# Generated by pormake.
# Topology the, (3,8)-cn, num edge types: 1
# Building blocks:
#     Node 0, Type 0, BuildingBlock: VETTIZ_charged_linker_0, # of connection points: 3
#     Node 1, Type 0, BuildingBlock: VETTIZ_charged_linker_0, # of connection points: 3
#     Node 2, Type 0, BuildingBlock: VETTIZ_charged_linker_0, # of connection points: 3
#     Node 3, Type 0, BuildingBlock: VETTIZ_charged_linker_0, # of connection points: 3
#     Node 4, Type 0, BuildingBlock: VETTIZ_charged_linker_0, # of connection points: 3
#     Node 5, Type 0, BuildingBlock: VETTIZ_charged_linker_0, # of connection points: 3
#     Node 6, Type 0, BuildingBlock: VETTIZ_charged_linker_0, # of connection points: 3
#     Node 7, Type 0, BuildingBlock: VETTIZ_charged_linker_0, # of connection points: 3
#     Node 8, Type 1, BuildingBlock: GIZVER_clean_sbu_0, # of connection points: 8
#     Node 9, Type 1, BuildingBlock: GIZVER_clean_sbu_0, # of connection points: 8
#     Node 10, Type 1, BuildingBlock: GIZVER_clean_sbu_0, # of connection points: 8
#     Edge 11, Type (0, 1), BuildingBlock: UVAHIK_clean_linker_0, # of connection points: 2
#     Edge 12, Type (0, 1), BuildingBlock: UVAHIK_clean_linker_0, # of connection points: 2
#     Edge 13, Type (0, 1), BuildingBlock: UVAHIK_clean_linker_0, # of connection points: 2
#     Edge 14, Type (0, 1), BuildingBlock: UVAHIK_clean_linker_0, # of connection points: 2
#     Edge 15, Type (0, 1), BuildingBlock: UVAHIK_clean_linker_0, # of connection points: 2
#     Edge 16, Type (0, 1), BuildingBlock: UVAHIK_clean_linker_0, # of connection points: 2
#     Edge 17, Type (0, 1), BuildingBlock: UVAHIK_clean_linker_0, # of connection points: 2
#     Edge 18, Type (0, 1), BuildingBlock: UVAHIK_clean_linker_0, # of connection points: 2
#     Edge 19, Type (0, 1), BuildingBlock: UVAHIK_clean_linker_0, # of connection points: 2
#     Edge 20, Type (0, 1), BuildingBlock: UVAHIK_clean_linker_0, # of connection points: 2
#     Edge 21, Type (0, 1), BuildingBlock: UVAHIK_clean_linker_0, # of connection points: 2
#     Edge 22, Type (0, 1), BuildingBlock: UVAHIK_clean_linker_0, # of connection points: 2
#     Edge 23, Type (0, 1), BuildingBlock: UVAHIK_clean_linker_0, # of connection points: 2
#     Edge 24, Type (0, 1), BuildingBlock: UVAHIK_clean_linker_0, # of connection points: 2
#     Edge 25, Type (0, 1), BuildingBlock: UVAHIK_clean_linker_0, # of connection points: 2
#     Edge 26, Type (0, 1), BuildingBlock: UVAHIK_clean_linker_0, # of connection points: 2
#     Edge 27, Type (0, 1), BuildingBlock: UVAHIK_clean_linker_0, # of connection points: 2
#     Edge 28, Type (0, 1), BuildingBlock: UVAHIK_clean_linker_0, # of connection points: 2
#     Edge 29, Type (0, 1), BuildingBlock: UVAHIK_clean_linker_0, # of connection points: 2
#     Edge 30, Type (0, 1), BuildingBlock: UVAHIK_clean_linker_0, # of connection points: 2
#     Edge 31, Type (0, 1), BuildingBlock: UVAHIK_clean_linker_0, # of connection points: 2
#     Edge 32, Type (0, 1), BuildingBlock: UVAHIK_clean_linker_0, # of connection points: 2
#     Edge 33, Type (0, 1), BuildingBlock: UVAHIK_clean_linker_0, # of connection points: 2
#     Edge 34, Type (0, 1), BuildingBlock: UVAHIK_clean_linker_0, # of connection points: 2
# Relax obj value: 0.044
# Max RMSD: 0.139
# Mean RMSD: 0.064
data_MOF--net-the--node1-GIZVER_clean_sbu_0--node2-VETTIZ_charged_linker_0--edge1-UVAHIK_clean_linker_0
_symmetry_space_group_name_H-M    P1
_symmetry_Int_Tables_number       1
_symmetry_cell_setting            triclinic
loop_
_symmetry_equiv_pos_as_xyz
'x, y, z'
_cell_length_a     61.326905
_cell_length_b     57.91083
_cell_length_c     53.731281
_cell_angle_alpha  86.772696
_cell_angle_beta   93.385454
_cell_angle_gamma 99.878458
loop_
_atom_site_label
_atom_site_type_symbol
_atom_site_fract_x
_atom_site_fract_y
_atom_site_fract_z
_atom_type_partial_charge
C0 C 0.33173 0.25991 0.41125 0.0
C1 C 0.35169 0.25482 0.40322 0.0
C2 C 0.36242 0.26895 0.38382 0.0
C3 C 0.3331 0.29231 0.38043 0.0
C4 C 0.32282 0.27864 0.39969 0.0
C5 C 0.30166 0.28621 0.40597 0.0
H6 H 0.22905 0.36123 0.38565 0.0
C7 C 0.31925 0.31007 0.37224 0.0
C8 C 0.30088 0.30662 0.38721 0.0
H9 H 0.22671 0.30304 0.44017 0.0
H10 H 0.26028 0.2937 0.42516 0.0
H11 H 0.24184 0.33292 0.34043 0.0
H12 H 0.28084 0.37992 0.39162 0.0
H13 H 0.29105 0.38721 0.36179 0.0
H14 H 0.26282 0.38967 0.36718 0.0
H15 H 0.24266 0.36407 0.3375 0.0
H16 H 0.26271 0.35018 0.32333 0.0
C17 C 0.28232 0.26566 0.40113 0.0
C18 C 0.30442 0.29419 0.43322 0.0
C19 C 0.34115 0.36694 0.29908 0.0
C20 C 0.33113 0.38472 0.28659 0.0
C21 C 0.31152 0.39003 0.29561 0.0
C22 C 0.30182 0.3775 0.31637 0.0
C23 C 0.31178 0.35941 0.32826 0.0
C24 C 0.3312 0.35451 0.31967 0.0
C25 C 0.33934 0.33456 0.33442 0.0
C26 C 0.32146 0.32811 0.35311 0.0
C27 C 0.30539 0.34272 0.34942 0.0
C28 C 0.33962 0.31455 0.31651 0.0
C29 C 0.36218 0.34409 0.34721 0.0
C30 C 0.23556 0.34625 0.39415 0.0
C31 C 0.2252 0.33285 0.41416 0.0
C32 C 0.23451 0.3138 0.42494 0.0
C33 C 0.25398 0.30837 0.41613 0.0
C34 C 0.26426 0.32213 0.39632 0.0
C35 C 0.25492 0.34056 0.38553 0.0
C36 C 0.26796 0.3531 0.36448 0.0
C37 C 0.28693 0.33939 0.36473 0.0
C38 C 0.28467 0.32135 0.38343 0.0
C39 C 0.25313 0.35017 0.3401 0.0
C40 C 0.27605 0.3789 0.37136 0.0
H41 H 0.36213 0.29772 0.35768 0.0
H42 H 0.32291 0.24922 0.42587 0.0
H43 H 0.32177 0.30274 0.43774 0.0
H44 H 0.29426 0.30757 0.43667 0.0
H45 H 0.3004 0.27903 0.44673 0.0
H46 H 0.2854 0.25571 0.38492 0.0
H47 H 0.28024 0.25312 0.41758 0.0
H48 H 0.26638 0.2716 0.39611 0.0
H49 H 0.35641 0.36265 0.2929 0.0
H50 H 0.30335 0.40348 0.28621 0.0
H51 H 0.28679 0.3822 0.32217 0.0
H52 H 0.32508 0.31306 0.30294 0.0
H53 H 0.35481 0.31788 0.30567 0.0
H54 H 0.33837 0.29709 0.32619 0.0
H55 H 0.36304 0.36257 0.35239 0.0
H56 H 0.36547 0.33444 0.36497 0.0
H57 H 0.37583 0.34371 0.33462 0.0
H58 H 0.37797 0.26556 0.3775 0.0
C59 C 0.35324 0.28767 0.3724 0.0
C60 C 0.66599 0.23931 0.34294 0.0
C61 C 0.64612 0.22664 0.33256 0.0
C62 C 0.6371 0.23534 0.30986 0.0
C63 C 0.66626 0.26933 0.30939 0.0
C64 C 0.67579 0.26045 0.33098 0.0
C65 C 0.69705 0.27598 0.33914 0.0
H66 H 0.76899 0.37823 0.32408 0.0
C67 C 0.67985 0.29212 0.30227 0.0
C68 C 0.69806 0.29609 0.31949 0.0
H69 H 0.7747 0.32043 0.37718 0.0
H70 H 0.74038 0.29872 0.36011 0.0
H71 H 0.71664 0.37688 0.32782 0.0
H72 H 0.7533 0.34554 0.27667 0.0
H73 H 0.73261 0.35805 0.25941 0.0
H74 H 0.75394 0.37665 0.27695 0.0
H75 H 0.73216 0.39395 0.30385 0.0
H76 H 0.70394 0.37966 0.29789 0.0
C77 C 0.69437 0.28422 0.36552 0.0
C78 C 0.7164 0.26213 0.33758 0.0
C79 C 0.65306 0.34155 0.22939 0.0
C80 C 0.66056 0.36438 0.21968 0.0
C81 C 0.67997 0.37747 0.23054 0.0
C82 C 0.69173 0.36791 0.25069 0.0
C83 C 0.68389 0.34508 0.26031 0.0
C84 C 0.66478 0.33239 0.2497 0.0
C85 C 0.65823 0.3089 0.263 0.0
C86 C 0.6767 0.30938 0.28315 0.0
C87 C 0.69178 0.33054 0.28146 0.0
C88 C 0.63538 0.30855 0.27407 0.0
C89 C 0.65866 0.28957 0.24429 0.0
C90 C 0.76277 0.36093 0.33207 0.0
C91 C 0.77453 0.35105 0.35205 0.0
C92 C 0.76605 0.32834 0.36167 0.0
C93 C 0.74608 0.3158 0.35179 0.0
C94 C 0.73448 0.32593 0.33189 0.0
C95 C 0.74299 0.34803 0.32217 0.0
C96 C 0.72879 0.35567 0.30046 0.0
C97 C 0.71045 0.33446 0.29866 0.0
C98 C 0.71371 0.31721 0.31735 0.0
C99 C 0.71995 0.37779 0.30761 0.0
C100 C 0.74278 0.35937 0.27706 0.0
H101 H 0.63904 0.26217 0.2813 0.0
H102 H 0.67357 0.23323 0.36022 0.0
H103 H 0.71254 0.24857 0.32336 0.0
H104 H 0.73177 0.27341 0.33148 0.0
H105 H 0.71992 0.25301 0.35574 0.0
H106 H 0.67799 0.28985 0.36653 0.0
H107 H 0.69532 0.26981 0.37987 0.0
H108 H 0.70684 0.2995 0.37069 0.0
H109 H 0.63797 0.33122 0.22178 0.0
H110 H 0.6861 0.39509 0.22335 0.0
H111 H 0.70638 0.37873 0.2581 0.0
H112 H 0.63413 0.32604 0.2809 0.0
H113 H 0.62167 0.30402 0.25981 0.0
H114 H 0.63244 0.29637 0.29052 0.0
H115 H 0.67167 0.29524 0.23059 0.0
H116 H 0.66296 0.27324 0.25342 0.0
H117 H 0.64253 0.28542 0.23359 0.0
H118 H 0.62233 0.22573 0.30081 0.0
C119 C 0.64695 0.25653 0.29835 0.0
C120 C 0.76643 0.69225 0.3628 0.0
C121 C 0.7772 0.67553 0.35292 0.0
C122 C 0.76897 0.66569 0.33014 0.0
C123 C 0.73909 0.68845 0.32796 0.0
C124 C 0.74765 0.69865 0.34989 0.0
C125 C 0.73473 0.71685 0.35723 0.0
H126 H 0.64682 0.77323 0.33681 0.0
C127 C 0.71917 0.69859 0.31954 0.0
C128 C 0.71673 0.71551 0.33641 0.0
H129 H 0.69889 0.7837 0.39499 0.0
H130 H 0.71674 0.75462 0.37799 0.0
H131 H 0.64177 0.71578 0.33807 0.0
H132 H 0.67887 0.77055 0.29224 0.0
H133 H 0.66771 0.74745 0.27298 0.0
H134 H 0.64931 0.76266 0.28828 0.0
H135 H 0.62873 0.73394 0.31567 0.0
H136 H 0.63804 0.70789 0.30676 0.0
C137 C 0.72508 0.70887 0.38292 0.0
C138 C 0.75028 0.741 0.35679 0.0
C139 C 0.67089 0.66517 0.24545 0.0
C140 C 0.65116 0.67039 0.23351 0.0
C141 C 0.64201 0.68917 0.24181 0.0
C142 C 0.65198 0.70207 0.26208 0.0
C143 C 0.67141 0.69626 0.27421 0.0
C144 C 0.68073 0.67831 0.26555 0.0
C145 C 0.70177 0.67502 0.28013 0.0
C146 C 0.70325 0.69349 0.29942 0.0
C147 C 0.68535 0.70581 0.29601 0.0
C148 C 0.69833 0.64984 0.29226 0.0
C149 C 0.72118 0.68042 0.2623 0.0
C150 C 0.66202 0.76915 0.34593 0.0
C151 C 0.67143 0.78085 0.36732 0.0
C152 C 0.6914 0.77522 0.37837 0.0
C153 C 0.70171 0.75818 0.36854 0.0
C154 C 0.69203 0.74652 0.34733 0.0
C155 C 0.67262 0.7522 0.33623 0.0
C156 C 0.66501 0.73821 0.31354 0.0
C157 C 0.68304 0.72321 0.31294 0.0
C158 C 0.69871 0.72807 0.33293 0.0
C159 C 0.64212 0.7232 0.31851 0.0
C160 C 0.66501 0.75547 0.29046 0.0
H161 H 0.74432 0.66363 0.30059 0.0
H162 H 0.77265 0.70036 0.38008 0.0
H163 H 0.76336 0.74176 0.34312 0.0
H164 H 0.7415 0.75565 0.35063 0.0
H165 H 0.75873 0.74459 0.37537 0.0
H166 H 0.71872 0.68967 0.38373 0.0
H167 H 0.73796 0.71252 0.39826 0.0
H168 H 0.71081 0.71716 0.38679 0.0
H169 H 0.67856 0.65113 0.23925 0.0
H170 H 0.62679 0.6935 0.23299 0.0
H171 H 0.64404 0.71594 0.2677 0.0
H172 H 0.68174 0.64543 0.30031 0.0
H173 H 0.69931 0.63671 0.27825 0.0
H174 H 0.71035 0.64753 0.30789 0.0
H175 H 0.71775 0.69309 0.24682 0.0
H176 H 0.73678 0.68899 0.27169 0.0
H177 H 0.7241 0.66426 0.25378 0.0
H178 H 0.77703 0.65276 0.32224 0.0
C179 C 0.74994 0.67198 0.31767 0.0
C180 C 0.34858 0.76493 0.33696 0.0
C181 C 0.34121 0.77622 0.35667 0.0
C182 C 0.3203 0.76701 0.36607 0.0
C183 C 0.31503 0.73567 0.33705 0.0
C184 C 0.33538 0.74473 0.32764 0.0
C185 C 0.3413 0.73007 0.30759 0.0
H186 H 0.31559 0.63328 0.23926 0.0
C187 C 0.30586 0.71403 0.32393 0.0
C188 C 0.32126 0.7106 0.30671 0.0
H189 H 0.37419 0.68675 0.23663 0.0
H190 H 0.36014 0.70778 0.2679 0.0
H191 H 0.31413 0.62901 0.29763 0.0
H192 H 0.28063 0.66916 0.24267 0.0
H193 H 0.2612 0.65654 0.26442 0.0
H194 H 0.27417 0.63777 0.24647 0.0
H195 H 0.29056 0.61577 0.27896 0.0
H196 H 0.28753 0.62857 0.30818 0.0
C197 C 0.36278 0.72071 0.31656 0.0
C198 C 0.34314 0.74529 0.28291 0.0
C199 C 0.23075 0.66709 0.34579 0.0
C200 C 0.21863 0.64555 0.33791 0.0
C201 C 0.2277 0.63353 0.31997 0.0
C202 C 0.24813 0.64276 0.30996 0.0
C203 C 0.25996 0.66419 0.31805 0.0
C204 C 0.25134 0.67591 0.33582 0.0
C205 C 0.2668 0.69791 0.34305 0.0
C206 C 0.28588 0.69766 0.3263 0.0
C207 C 0.2817 0.67792 0.31162 0.0
C208 C 0.2739 0.69509 0.37109 0.0
C209 C 0.25489 0.7191 0.33636 0.0
C210 C 0.32549 0.64943 0.24551 0.0
C211 C 0.34606 0.6583 0.23534 0.0
C212 C 0.35817 0.67962 0.24384 0.0
C213 C 0.35005 0.69176 0.26218 0.0
C214 C 0.32958 0.68253 0.27231 0.0
C215 C 0.31763 0.66176 0.26384 0.0
C216 C 0.29621 0.65456 0.27667 0.0
C217 C 0.29727 0.67441 0.29424 0.0
C218 C 0.31687 0.69072 0.29168 0.0
C219 C 0.2969 0.63067 0.29102 0.0
C220 C 0.27692 0.65428 0.25665 0.0
H221 H 0.29157 0.7408 0.36446 0.0
H222 H 0.36436 0.77156 0.32896 0.0
H223 H 0.33053 0.75709 0.28137 0.0
H224 H 0.33985 0.73479 0.26617 0.0
H225 H 0.35973 0.75649 0.28192 0.0
H226 H 0.363 0.71643 0.33701 0.0
H227 H 0.37772 0.73398 0.31274 0.0
H228 H 0.36434 0.70419 0.30809 0.0
H229 H 0.22442 0.67698 0.35941 0.0
H230 H 0.21924 0.61665 0.31392 0.0
H231 H 0.25402 0.63266 0.29645 0.0
H232 H 0.27423 0.67637 0.37679 0.0
H233 H 0.26225 0.70147 0.38308 0.0
H234 H 0.29092 0.70417 0.37558 0.0
H235 H 0.24563 0.71702 0.31795 0.0
H236 H 0.26643 0.73588 0.33447 0.0
H237 H 0.24279 0.72068 0.35051 0.0
H238 H 0.31423 0.77495 0.38147 0.0
C239 C 0.30719 0.74695 0.35633 0.0
C240 C 0.36079 0.66049 0.77758 0.0
C241 C 0.35329 0.638 0.78827 0.0
C242 C 0.33277 0.6255 0.77924 0.0
C243 C 0.32832 0.65743 0.74896 0.0
C244 C 0.34828 0.66967 0.75803 0.0
C245 C 0.35475 0.69285 0.7442 0.0
H246 H 0.33315 0.77274 0.65376 0.0
C247 C 0.31984 0.67196 0.72812 0.0
C248 C 0.33538 0.69268 0.72531 0.0
H249 H 0.39088 0.77478 0.7046 0.0
H250 H 0.3753 0.7377 0.72348 0.0
H251 H 0.29635 0.75073 0.69406 0.0
H252 H 0.33082 0.71904 0.64113 0.0
H253 H 0.3035 0.7038 0.64093 0.0
H254 H 0.30859 0.73461 0.63163 0.0
H255 H 0.29099 0.75388 0.66093 0.0
H256 H 0.2771 0.72916 0.67909 0.0
C257 C 0.35587 0.71247 0.76295 0.0
C258 C 0.37679 0.69245 0.73153 0.0
C259 C 0.24657 0.64273 0.68091 0.0
C260 C 0.23496 0.65212 0.66039 0.0
C261 C 0.24396 0.67441 0.64996 0.0
C262 C 0.26397 0.687 0.65961 0.0
C263 C 0.27541 0.67727 0.67989 0.0
C264 C 0.26668 0.65549 0.69024 0.0
C265 C 0.28141 0.64774 0.71142 0.0
C266 C 0.30035 0.66845 0.71207 0.0
C267 C 0.29672 0.68574 0.69353 0.0
C268 C 0.26842 0.64498 0.73554 0.0
C269 C 0.28914 0.62503 0.70421 0.0
C270 C 0.34249 0.76516 0.66889 0.0
C271 C 0.36324 0.77715 0.67784 0.0
C272 C 0.37466 0.76648 0.69766 0.0
C273 C 0.36566 0.74468 0.70851 0.0
C274 C 0.34501 0.733 0.69943 0.0
C275 C 0.33379 0.74315 0.67988 0.0
C276 C 0.31229 0.72768 0.67237 0.0
C277 C 0.31252 0.7067 0.69075 0.0
C278 C 0.33171 0.71005 0.70655 0.0
C279 C 0.29306 0.74096 0.6766 0.0
C280 C 0.31362 0.72096 0.64505 0.0
H281 H 0.3049 0.62465 0.75359 0.0
H282 H 0.3762 0.67089 0.78421 0.0
H283 H 0.37836 0.67431 0.72696 0.0
H284 H 0.3779 0.70246 0.71338 0.0
H285 H 0.39137 0.69923 0.74389 0.0
H286 H 0.34251 0.70792 0.77642 0.0
H287 H 0.37198 0.71505 0.77389 0.0
H288 H 0.35321 0.72944 0.75393 0.0
H289 H 0.24017 0.6258 0.68963 0.0
H290 H 0.23579 0.68201 0.63389 0.0
H291 H 0.26989 0.70375 0.65069 0.0
H292 H 0.25865 0.65941 0.73635 0.0
H293 H 0.25667 0.6281 0.73631 0.0
H294 H 0.27931 0.64605 0.75267 0.0
H295 H 0.29211 0.62566 0.68393 0.0
H296 H 0.30507 0.62247 0.71368 0.0
H297 H 0.27644 0.60934 0.70827 0.0
H298 H 0.32658 0.60807 0.78688 0.0
C299 C 0.32025 0.6351 0.75973 0.0
C300 C 0.24391 0.31685 0.64706 0.0
C301 C 0.23471 0.33533 0.65593 0.0
C302 C 0.24397 0.34565 0.67818 0.0
C303 C 0.27165 0.32026 0.68155 0.0
C304 C 0.26231 0.30964 0.66014 0.0
C305 C 0.27439 0.29054 0.65322 0.0
H306 H 0.36073 0.23167 0.67474 0.0
C307 C 0.29091 0.30919 0.69032 0.0
C308 C 0.29255 0.29162 0.6739 0.0
H309 H 0.30913 0.22209 0.616 0.0
H310 H 0.29155 0.25156 0.63285 0.0
H311 H 0.36711 0.28887 0.67361 0.0
H312 H 0.32834 0.23481 0.71868 0.0
H313 H 0.33907 0.25787 0.73812 0.0
H314 H 0.35783 0.24241 0.72371 0.0
H315 H 0.37929 0.27002 0.69603 0.0
H316 H 0.37082 0.29648 0.70502 0.0
C317 C 0.28396 0.29745 0.62728 0.0
C318 C 0.25809 0.26694 0.6544 0.0
C319 C 0.33885 0.34068 0.76544 0.0
C320 C 0.35783 0.33435 0.7781 0.0
C321 C 0.36639 0.31509 0.77002 0.0
C322 C 0.3565 0.30271 0.74935 0.0
C323 C 0.33775 0.30956 0.73661 0.0
C324 C 0.32908 0.32806 0.74498 0.0
C325 C 0.30873 0.33249 0.72973 0.0
C326 C 0.30675 0.31384 0.71058 0.0
C327 C 0.32389 0.30057 0.71452 0.0
C328 C 0.3137 0.35761 0.71754 0.0
C329 C 0.28888 0.32825 0.74699 0.0
C330 C 0.3457 0.23602 0.66544 0.0
C331 C 0.33639 0.22456 0.6439 0.0
C332 C 0.31657 0.23046 0.6327 0.0
C333 C 0.30645 0.24773 0.64243 0.0
C334 C 0.31618 0.25931 0.66366 0.0
C335 C 0.33533 0.25319 0.675 0.0
C336 C 0.34307 0.26705 0.69771 0.0
C337 C 0.32561 0.28275 0.69789 0.0
C338 C 0.30996 0.27823 0.6778 0.0
C339 C 0.36635 0.28132 0.69311 0.0
C340 C 0.34225 0.24977 0.72085 0.0
H341 H 0.26856 0.34701 0.70762 0.0
H342 H 0.23728 0.30853 0.63004 0.0
H343 H 0.24624 0.26661 0.66937 0.0
H344 H 0.26649 0.25174 0.6592 0.0
H345 H 0.24824 0.26402 0.63649 0.0
H346 H 0.29044 0.31661 0.62563 0.0
H347 H 0.27101 0.29333 0.61209 0.0
H348 H 0.29817 0.28891 0.62384 0.0
H349 H 0.33163 0.35513 0.77143 0.0
H350 H 0.38104 0.3099 0.77938 0.0
H351 H 0.36395 0.28841 0.74395 0.0
H352 H 0.33094 0.3615 0.71116 0.0
H353 H 0.31198 0.37097 0.73101 0.0
H354 H 0.30307 0.36016 0.70067 0.0
H355 H 0.29111 0.3149 0.76223 0.0
H356 H 0.27306 0.32102 0.73711 0.0
H357 H 0.28699 0.34463 0.75584 0.0
H358 H 0.23697 0.3595 0.68584 0.0
C359 C 0.2623 0.33826 0.69096 0.0
C360 C 0.66231 0.24496 0.66628 0.0
C361 C 0.67038 0.23438 0.64658 0.0
C362 C 0.69108 0.24441 0.63731 0.0
C363 C 0.69511 0.27527 0.66681 0.0
C364 C 0.6748 0.26544 0.67591 0.0
C365 C 0.6681 0.27968 0.69588 0.0
H366 H 0.68995 0.37624 0.76497 0.0
C367 C 0.70357 0.29686 0.68031 0.0
C368 C 0.68772 0.29963 0.69727 0.0
H369 H 0.63236 0.32144 0.76587 0.0
H370 H 0.64766 0.3012 0.73485 0.0
H371 H 0.69339 0.38078 0.70703 0.0
H372 H 0.72609 0.34077 0.76293 0.0
H373 H 0.74598 0.35377 0.74187 0.0
H374 H 0.73231 0.37218 0.75949 0.0
H375 H 0.71593 0.39423 0.72701 0.0
H376 H 0.72061 0.38218 0.69791 0.0
C377 C 0.64641 0.28844 0.68651 0.0
C378 C 0.6662 0.26427 0.72041 0.0
C379 C 0.77872 0.34522 0.66101 0.0
C380 C 0.79053 0.36657 0.66972 0.0
C381 C 0.78092 0.37805 0.68768 0.0
C382 C 0.76024 0.36847 0.69691 0.0
C383 C 0.74874 0.34718 0.68805 0.0
C384 C 0.75792 0.336 0.67026 0.0
C385 C 0.74288 0.31398 0.66232 0.0
C386 C 0.72338 0.3136 0.67863 0.0
C387 C 0.72696 0.33306 0.69372 0.0
C388 C 0.73629 0.31722 0.63418 0.0
C389 C 0.75502 0.29294 0.66892 0.0
C390 C 0.68075 0.35974 0.75871 0.0
C391 C 0.65985 0.35052 0.76789 0.0
C392 C 0.64833 0.32914 0.75889 0.0
C393 C 0.6573 0.31733 0.74092 0.0
C394 C 0.67803 0.32696 0.73166 0.0
C395 C 0.68944 0.34776 0.74068 0.0
C396 C 0.71117 0.35548 0.72858 0.0
C397 C 0.71089 0.33596 0.71077 0.0
C398 C 0.69143 0.31929 0.71262 0.0
C399 C 0.71048 0.37949 0.71449 0.0
C400 C 0.73 0.35578 0.74916 0.0
H401 H 0.71914 0.27141 0.63949 0.0
H402 H 0.64631 0.23785 0.67356 0.0
H403 H 0.67945 0.25325 0.72238 0.0
H404 H 0.66845 0.27466 0.73726 0.0
H405 H 0.64999 0.25229 0.72076 0.0
H406 H 0.64621 0.29239 0.66599 0.0
H407 H 0.63165 0.27499 0.69045 0.0
H408 H 0.64451 0.30505 0.69459 0.0
H409 H 0.78549 0.33574 0.64735 0.0
H410 H 0.78918 0.39476 0.69437 0.0
H411 H 0.75393 0.37816 0.71048 0.0
H412 H 0.73599 0.33599 0.62873 0.0
H413 H 0.7482 0.31107 0.62235 0.0
H414 H 0.71935 0.30815 0.62923 0.0
H415 H 0.76385 0.29478 0.68758 0.0
H416 H 0.74367 0.27598 0.6702 0.0
H417 H 0.76751 0.29188 0.65505 0.0
H418 H 0.6977 0.23649 0.62226 0.0
C419 C 0.70352 0.26468 0.64737 0.0
C420 C 0.67221 0.64442 0.7121 0.0
C421 C 0.65173 0.64868 0.71954 0.0
C422 C 0.64201 0.66664 0.70675 0.0
C423 C 0.67282 0.67522 0.67949 0.0
C424 C 0.68229 0.65767 0.6921 0.0
C425 C 0.70357 0.65446 0.68142 0.0
H426 H 0.77903 0.68438 0.59372 0.0
C427 C 0.68753 0.68538 0.65941 0.0
C428 C 0.70553 0.67322 0.66049 0.0
H429 H 0.77601 0.62853 0.65088 0.0
H430 H 0.74386 0.64022 0.66699 0.0
H431 H 0.76679 0.72398 0.62914 0.0
H432 H 0.7289 0.67553 0.5788 0.0
H433 H 0.71813 0.7017 0.57442 0.0
H434 H 0.74667 0.70167 0.56809 0.0
H435 H 0.7675 0.72845 0.59587 0.0
H436 H 0.74714 0.73892 0.61327 0.0
C437 C 0.72243 0.65972 0.70184 0.0
C438 C 0.70041 0.62936 0.67153 0.0
C439 C 0.66807 0.75217 0.60148 0.0
C440 C 0.67895 0.76518 0.58155 0.0
C441 C 0.6993 0.75995 0.57469 0.0
C442 C 0.70869 0.74204 0.58744 0.0
C443 C 0.69764 0.72918 0.60728 0.0
C444 C 0.67772 0.73436 0.6141 0.0
C445 C 0.6686 0.71905 0.63595 0.0
C446 C 0.6863 0.70376 0.64099 0.0
C447 C 0.70317 0.70978 0.62406 0.0
C448 C 0.66742 0.73495 0.65789 0.0
C449 C 0.64602 0.70464 0.62736 0.0
C450 C 0.7716 0.67498 0.60996 0.0
C451 C 0.7799 0.65556 0.62111 0.0
C452 C 0.76967 0.64345 0.64194 0.0
C453 C 0.75103 0.65025 0.65122 0.0
C454 C 0.74238 0.6692 0.63934 0.0
C455 C 0.75276 0.68134 0.61923 0.0
C456 C 0.74073 0.70037 0.60837 0.0
C457 C 0.72126 0.69741 0.62508 0.0
C458 C 0.7224 0.67925 0.64322 0.0
C459 C 0.75626 0.72425 0.61157 0.0
C460 C 0.73328 0.6948 0.58094 0.0
H461 H 0.64421 0.69329 0.67777 0.0
H462 H 0.68038 0.63106 0.72168 0.0
H463 H 0.68276 0.62285 0.66596 0.0
H464 H 0.70937 0.62859 0.6544 0.0
H465 H 0.7057 0.61668 0.68596 0.0
H466 H 0.72017 0.6749 0.71265 0.0
H467 H 0.72267 0.64441 0.71522 0.0
H468 H 0.73897 0.66474 0.69416 0.0
H469 H 0.65258 0.75607 0.60746 0.0
H470 H 0.7079 0.76964 0.55931 0.0
H471 H 0.72419 0.7389 0.58128 0.0
H472 H 0.68205 0.74926 0.65866 0.0
H473 H 0.65232 0.74324 0.65578 0.0
H474 H 0.66777 0.72552 0.6763 0.0
H475 H 0.64631 0.69952 0.60774 0.0
H476 H 0.64179 0.68791 0.63828 0.0
H477 H 0.63243 0.71497 0.62825 0.0
H478 H 0.62613 0.67018 0.71187 0.0
C479 C 0.65247 0.67996 0.68682 0.0
Co480 Co 0.0476 0.47538 0.51849 0.0
Co481 Co 0.0256 0.46745 0.47509 0.0
Co482 Co 0.00453 0.50389 0.50337 0.0
O483 O 0.01728 0.47437 0.50645 0.0
H484 H 0.00731 0.46129 0.51365 0.0
O485 O 0.99198 0.53348 0.50033 0.0
Co486 Co 0.96156 0.5336 0.48992 0.0
Co487 Co 0.98542 0.54036 0.53249 0.0
H488 H 1.00194 0.54645 0.49292 0.0
O489 O 0.03087 0.43752 0.46893 0.0
O490 O 0.05492 0.46715 0.48532 0.0
O491 O 0.02675 0.49174 0.44872 0.0
O492 O 0.02405 0.51873 0.47567 0.0
O493 O 0.98138 0.48864 0.47865 0.0
O494 O 0.93406 0.53658 0.47981 0.0
O495 O 0.96448 0.56461 0.4807 0.0
O496 O 0.95453 0.501 0.49685 0.0
O497 O 0.98488 0.48915 0.53095 0.0
O498 O 0.98592 0.51613 0.55887 0.0
O499 O 0.9556 0.53976 0.52434 0.0
O500 O 0.97956 0.56982 0.54001 0.0
C501 C 0.06606 0.45229 0.53608 0.0
C502 C 0.04815 0.52117 0.5242 0.0
C503 C 0.02971 0.51299 0.45465 0.0
C504 C 0.05073 0.44603 0.47731 0.0
C505 C 0.94329 0.55826 0.47544 0.0
C506 C 0.96074 0.48757 0.48175 0.0
C507 C 0.98105 0.495 0.55265 0.0
C508 C 0.95943 0.56038 0.53354 0.0
O509 O 0.07474 0.4739 0.53048 0.0
O510 O 0.0452 0.44481 0.52984 0.0
O511 O 0.0276 0.51921 0.52819 0.0
O512 O 0.05433 0.50757 0.50933 0.0
Co513 Co 0.53012 0.95754 0.49373 0.0
Co514 Co 0.53989 0.97675 0.53743 0.0
Co515 Co 0.50515 1.00309 0.50691 0.0
O516 O 0.53217 0.98855 0.50555 0.0
H517 H 0.54452 0.99938 0.49902 0.0
O518 O 0.47816 0.01765 0.50848 0.0
Co519 Co 0.48023 0.04876 0.52002 0.0
Co520 Co 0.47004 0.02914 0.47687 0.0
H521 H 0.46587 0.00687 0.51523 0.0
O522 O 0.56853 0.97113 0.54506 0.0
O523 O 0.54 0.94677 0.52738 0.0
O524 O 0.51826 0.97345 0.56265 0.0
O525 O 0.49184 0.98109 0.53481 0.0
O526 O 0.52188 0.02542 0.53136 0.0
O527 O 0.47964 0.07672 0.53146 0.0
O528 O 0.45196 0.04571 0.52995 0.0
O529 O 0.51039 0.05613 0.51217 0.0
O530 O 0.51839 0.02505 0.47881 0.0
O531 O 0.49119 0.03148 0.45145 0.0
O532 O 0.47083 0.05953 0.48623 0.0
O533 O 0.44163 0.03555 0.4693 0.0
C534 C 0.55082 0.93901 0.47736 0.0
C535 C 0.48618 0.95854 0.48716 0.0
C536 C 0.49795 0.97255 0.55602 0.0
C537 C 0.56048 0.95093 0.53601 0.0
C538 C 0.45933 0.06736 0.53589 0.0
C539 C 0.52431 0.04754 0.5268 0.0
C540 C 0.51167 0.03291 0.45749 0.0
C541 C 0.45042 0.05597 0.4773 0.0
O542 O 0.53058 0.92965 0.4821 0.0
O543 O 0.55827 0.96065 0.48331 0.0
O544 O 0.48844 0.98066 0.48252 0.0
O545 O 0.50012 0.95017 0.50196 0.0
Co546 Co 0.47869 0.51387 0.05679 0.0
Co547 Co 0.46831 0.47145 0.04172 0.0
Co548 Co 0.5043 0.50072 0.00661 0.0
O549 O 0.477 0.50002 0.02517 0.0
H550 H 0.46485 0.50398 0.01445 0.0
O551 O 0.53143 0.5016 0.98755 0.0
Co552 Co 0.52901 0.48952 0.95477 0.0
Co553 Co 0.54015 0.53118 0.97251 0.0
H554 H 0.54354 0.49687 0.99779 0.0
O555 O 0.43915 0.46213 0.04981 0.0
O556 O 0.46676 0.48303 0.07283 0.0
O557 O 0.4895 0.45057 0.04564 0.0
O558 O 0.51681 0.47639 0.02942 0.0
O559 O 0.48727 0.47549 0.98547 0.0
O560 O 0.52919 0.4775 0.92522 0.0
O561 O 0.55693 0.48303 0.95477 0.0
O562 O 0.49915 0.49374 0.9506 0.0
O563 O 0.49184 0.52496 0.98379 0.0
O564 O 0.51948 0.5528 0.97205 0.0
O565 O 0.53864 0.52138 0.94007 0.0
O566 O 0.56843 0.54099 0.96074 0.0
C567 C 0.45852 0.53039 0.07625 0.0
C568 C 0.52272 0.52268 0.05182 0.0
C569 C 0.50991 0.45733 0.04198 0.0
C570 C 0.44634 0.47227 0.07038 0.0
C571 C 0.54921 0.4752 0.93307 0.0
C572 C 0.48518 0.47861 0.96183 0.0
C573 C 0.49891 0.54513 0.97356 0.0
C574 C 0.55881 0.53282 0.94012 0.0
O575 O 0.47807 0.52757 0.08531 0.0
O576 O 0.45131 0.52194 0.05467 0.0
O577 O 0.5213 0.5258 0.02809 0.0
O578 O 0.50797 0.50818 0.06276 0.0
C579 C 0.18913 0.3475 0.40786 0.0
C580 C 0.20524 0.33942 0.42418 0.0
C581 C 0.17185 0.35659 0.41721 0.0
C582 C 0.13879 0.35935 0.47033 0.0
H583 H 0.13589 0.4224 0.44332 0.0
C584 C 0.09075 0.44262 0.48214 0.0
C585 C 0.06862 0.43196 0.4776 0.0
C586 C 0.10788 0.42986 0.48056 0.0
C587 C 0.13666 0.40491 0.45124 0.0
H588 H 0.21511 0.33329 0.46314 0.0
H589 H 0.18439 0.34878 0.47946 0.0
H590 H 0.16412 0.40165 0.42979 0.0
H591 H 0.04694 0.39922 0.46958 0.0
H592 H 0.07705 0.37695 0.46656 0.0
H593 H 0.11078 0.36256 0.49131 0.0
C594 C 0.18538 0.34814 0.45945 0.0
C595 C 0.15263 0.39299 0.44332 0.0
C596 C 0.20288 0.33924 0.45009 0.0
C597 C 0.06387 0.40796 0.47282 0.0
C598 C 0.08104 0.39515 0.47139 0.0
C599 C 0.1225 0.37122 0.47803 0.0
C600 C 0.17016 0.35751 0.44304 0.0
C601 C 0.15366 0.37005 0.45255 0.0
C602 C 0.10318 0.40621 0.47452 0.0
C603 C 0.12127 0.39404 0.46838 0.0
H604 H 0.19017 0.34733 0.38782 0.0
H605 H 0.16005 0.36344 0.40424 0.0
H606 H 0.1394 0.34166 0.4777 0.0
H607 H 0.09494 0.46102 0.48612 0.0
H608 H 0.12486 0.43868 0.48325 0.0
C609 C 0.61116 0.19941 0.34388 0.0
C610 C 0.63448 0.2047 0.34524 0.0
C611 C 0.60006 0.1786 0.35482 0.0
C612 C 0.60389 0.13411 0.40449 0.0
H613 H 0.5575 0.09629 0.36512 0.0
C614 C 0.5508 0.05086 0.44779 0.0
C615 C 0.52795 0.04765 0.44128 0.0
C616 C 0.56574 0.06744 0.43457 0.0
C617 C 0.57023 0.10671 0.37651 0.0
H618 H 0.66427 0.19203 0.35985 0.0
H619 H 0.64466 0.15599 0.37983 0.0
H620 H 0.5797 0.13085 0.34578 0.0
H621 H 0.50311 0.05888 0.41506 0.0
H622 H 0.52883 0.08791 0.3926 0.0
H623 H 0.59381 0.11076 0.43555 0.0
C624 C 0.63514 0.16804 0.3699 0.0
C625 C 0.58302 0.12646 0.36535 0.0
C626 C 0.64634 0.18876 0.35856 0.0
C627 C 0.52057 0.06072 0.42059 0.0
C628 C 0.53544 0.0774 0.40755 0.0
C629 C 0.59087 0.11451 0.4158 0.0
C630 C 0.61189 0.16264 0.36785 0.0
C631 C 0.59975 0.14057 0.3793 0.0
C632 C 0.5582 0.08134 0.41461 0.0
C633 C 0.57358 0.10076 0.40206 0.0
H634 H 0.60134 0.21146 0.3345 0.0
H635 H 0.58211 0.17511 0.35337 0.0
H636 H 0.6166 0.14477 0.41571 0.0
H637 H 0.55711 0.04106 0.46358 0.0
H638 H 0.58317 0.06961 0.44029 0.0
C639 C 0.81654 0.66867 0.3546 0.0
C640 C 0.79667 0.66791 0.36653 0.0
C641 C 0.83466 0.66072 0.36726 0.0
C642 C 0.85548 0.64173 0.43122 0.0
H643 H 0.89283 0.61064 0.39323 0.0
C644 C 0.90678 0.57179 0.47075 0.0
C645 C 0.9293 0.57536 0.4654 0.0
C646 C 0.89284 0.58673 0.46007 0.0
C647 C 0.88271 0.61957 0.404 0.0
H648 H 0.77998 0.65817 0.40086 0.0
H649 H 0.81098 0.64315 0.4226 0.0
H650 H 0.86379 0.62907 0.37159 0.0
H651 H 0.955 0.59752 0.44495 0.0
H652 H 0.93018 0.6232 0.42521 0.0
H653 H 0.87366 0.63057 0.46378 0.0
C654 C 0.81315 0.65071 0.40385 0.0
C655 C 0.86606 0.63027 0.39163 0.0
C656 C 0.79524 0.65915 0.39135 0.0
C657 C 0.93772 0.59445 0.44944 0.0
C658 C 0.92357 0.60905 0.43814 0.0
C659 C 0.8718 0.63056 0.4436 0.0
C660 C 0.83316 0.65128 0.392 0.0
C661 C 0.85197 0.64129 0.40506 0.0
C662 C 0.90098 0.60518 0.44328 0.0
C663 C 0.88541 0.61921 0.43011 0.0
H664 H 0.8181 0.67556 0.3355 0.0
H665 H 0.84983 0.66203 0.35757 0.0
H666 H 0.84548 0.6505 0.44229 0.0
H667 H 0.89983 0.55724 0.483 0.0
H668 H 0.87547 0.58331 0.4642 0.0
C669 C 0.37869 0.79808 0.37066 0.0
C670 C 0.35556 0.79685 0.36807 0.0
C671 C 0.39208 0.81679 0.38238 0.0
C672 C 0.39257 0.87695 0.40443 0.0
H673 H 0.44241 0.86205 0.44626 0.0
C674 C 0.45867 0.94818 0.4512 0.0
C675 C 0.46839 0.94208 0.47444 0.0
C676 C 0.44382 0.93139 0.43808 0.0
C677 C 0.42842 0.86657 0.43493 0.0
H678 H 0.32859 0.81506 0.37521 0.0
H679 H 0.35181 0.84708 0.39656 0.0
H680 H 0.4189 0.83132 0.42378 0.0
H681 H 0.46905 0.91414 0.50292 0.0
H682 H 0.44272 0.88529 0.48067 0.0
H683 H 0.40174 0.91213 0.41647 0.0
C684 C 0.35967 0.83375 0.38915 0.0
C685 C 0.4151 0.84892 0.42161 0.0
C686 C 0.34627 0.81513 0.37719 0.0
C687 C 0.46212 0.91928 0.48485 0.0
C688 C 0.44712 0.90266 0.47196 0.0
C689 C 0.40584 0.89463 0.41796 0.0
C690 C 0.38275 0.83472 0.39215 0.0
C691 C 0.39699 0.85382 0.40612 0.0
C692 C 0.43821 0.90824 0.44809 0.0
C693 C 0.42392 0.88965 0.43348 0.0
H694 H 0.38651 0.78429 0.36418 0.0
H695 H 0.40981 0.81708 0.38387 0.0
H696 H 0.37894 0.8815 0.3925 0.0
H697 H 0.46324 0.96562 0.44268 0.0
H698 H 0.43742 0.93635 0.4197 0.0
C699 C 0.21124 0.61409 0.64778 0.0
C700 C 0.21397 0.63861 0.6493 0.0
C701 C 0.19216 0.60162 0.63608 0.0
C702 C 0.13452 0.60642 0.61172 0.0
H703 H 0.14287 0.55536 0.57164 0.0
C704 C 0.06123 0.54571 0.56126 0.0
C705 C 0.06533 0.53734 0.53823 0.0
C706 C 0.0785 0.55873 0.57553 0.0
C707 C 0.14019 0.56972 0.5825 0.0
H708 H 0.19803 0.66896 0.64047 0.0
H709 H 0.16531 0.64743 0.61926 0.0
H710 H 0.17424 0.57641 0.59519 0.0
H711 H 0.0904 0.5373 0.51142 0.0
H712 H 0.12009 0.56046 0.53567 0.0
H713 H 0.10054 0.6002 0.59811 0.0
C714 C 0.17778 0.63773 0.62741 0.0
C715 C 0.15821 0.58159 0.59644 0.0
C716 C 0.19678 0.65018 0.6393 0.0
C717 C 0.08674 0.54318 0.52927 0.0
C718 C 0.10385 0.55634 0.54332 0.0
C719 C 0.11646 0.5946 0.5976 0.0
C720 C 0.1753 0.61329 0.62535 0.0
C721 C 0.15571 0.60018 0.6112 0.0
C722 C 0.10017 0.56382 0.56694 0.0
C723 C 0.1191 0.5762 0.58262 0.0
H724 H 0.22411 0.60451 0.65503 0.0
H725 H 0.19073 0.58277 0.63532 0.0
H726 H 0.13182 0.62042 0.62309 0.0
H727 H 0.04491 0.54143 0.5687 0.0
H728 H 0.07501 0.56409 0.59366 0.0
C729 C 0.37066 0.21152 0.63027 0.0
C730 C 0.34759 0.20708 0.63266 0.0
C731 C 0.38116 0.19564 0.61878 0.0
C732 C 0.37528 0.1339 0.6022 0.0
H733 H 0.42034 0.15883 0.55562 0.0
C734 C 0.42183 0.07428 0.54788 0.0
C735 C 0.44475 0.08201 0.5463 0.0
C736 C 0.40838 0.08887 0.55709 0.0
C737 C 0.40794 0.15155 0.56874 0.0
H738 H 0.31756 0.18211 0.62536 0.0
H739 H 0.33596 0.1543 0.6053 0.0
H740 H 0.40025 0.18541 0.57479 0.0
H741 H 0.47146 0.1111 0.55326 0.0
H742 H 0.44831 0.13608 0.5695 0.0
H743 H 0.38334 0.10004 0.59651 0.0
C744 C 0.34588 0.17014 0.6123 0.0
C745 C 0.39642 0.16682 0.57972 0.0
C746 C 0.33533 0.18615 0.62362 0.0
C747 C 0.45387 0.10454 0.55413 0.0
C748 C 0.44053 0.11901 0.56329 0.0
C749 C 0.38693 0.11858 0.5913 0.0
C750 C 0.36889 0.17481 0.60953 0.0
C751 C 0.38019 0.15825 0.59688 0.0
C752 C 0.41759 0.11148 0.56481 0.0
C753 C 0.4037 0.12728 0.57476 0.0
H754 H 0.38057 0.22755 0.63683 0.0
H755 H 0.39895 0.19964 0.61722 0.0
H756 H 0.36293 0.12675 0.61543 0.0
H757 H 0.41425 0.05711 0.54178 0.0
H758 H 0.39074 0.08259 0.55782 0.0
C759 C 0.81705 0.37503 0.63482 0.0
C760 C 0.81253 0.37712 0.65992 0.0
C761 C 0.83739 0.38563 0.6255 0.0
C762 C 0.882 0.4351 0.6349 0.0
H763 H 0.91565 0.40206 0.59434 0.0
C764 C 0.96297 0.48282 0.59325 0.0
C765 C 0.96645 0.47793 0.5686 0.0
C766 C 0.94652 0.46856 0.60678 0.0
C767 C 0.90638 0.41167 0.60539 0.0
H768 H 0.82652 0.39147 0.69502 0.0
H769 H 0.86156 0.41062 0.67842 0.0
H770 H 0.88189 0.38118 0.61258 0.0
H771 H 0.95586 0.45359 0.53924 0.0
H772 H 0.92694 0.42935 0.56234 0.0
H773 H 0.90564 0.46584 0.62691 0.0
C774 C 0.84926 0.40077 0.66603 0.0
C775 C 0.88708 0.39963 0.61592 0.0
C776 C 0.82908 0.38988 0.67547 0.0
C777 C 0.95379 0.45784 0.55825 0.0
C778 C 0.93715 0.44381 0.57162 0.0
C779 C 0.90109 0.44724 0.62407 0.0
C780 C 0.85359 0.39885 0.64093 0.0
C781 C 0.87461 0.41126 0.63064 0.0
C782 C 0.93291 0.44924 0.59588 0.0
C783 C 0.9135 0.43578 0.60897 0.0
H784 H 0.80468 0.36573 0.62211 0.0
H785 H 0.84019 0.38408 0.60599 0.0
H786 H 0.87258 0.44457 0.64596 0.0
H787 H 0.97252 0.49807 0.60185 0.0
H788 H 0.94419 0.47302 0.62563 0.0
C789 C 0.68303 0.80635 0.56343 0.0
C790 C 0.66947 0.78465 0.56851 0.0
C791 C 0.67382 0.82535 0.55307 0.0
C792 C 0.62347 0.84285 0.52159 0.0
H793 H 0.63899 0.89754 0.56154 0.0
C794 C 0.56567 0.90975 0.53033 0.0
C795 C 0.5749 0.93328 0.5341 0.0
C796 C 0.57934 0.89304 0.5286 0.0
C797 C 0.63479 0.88271 0.54973 0.0
H798 H 0.63592 0.7654 0.56546 0.0
H799 H 0.61974 0.79873 0.54766 0.0
H800 H 0.65949 0.8653 0.56847 0.0
H801 H 0.6056 0.95804 0.53775 0.0
H802 H 0.6295 0.92889 0.53459 0.0
H803 H 0.59831 0.86015 0.5033 0.0
C804 C 0.63749 0.80099 0.55153 0.0
C805 C 0.64656 0.86419 0.55375 0.0
C806 C 0.64669 0.78202 0.56202 0.0
C807 C 0.59804 0.93993 0.53536 0.0
C808 C 0.61171 0.92326 0.53346 0.0
C809 C 0.61176 0.86151 0.51742 0.0
C810 C 0.6509 0.82297 0.54751 0.0
C811 C 0.64062 0.84382 0.54023 0.0
C812 C 0.60252 0.89954 0.53056 0.0
C813 C 0.6169 0.88134 0.53198 0.0
H814 H 0.70063 0.80891 0.56836 0.0
H815 H 0.68453 0.84208 0.55004 0.0
H816 H 0.61876 0.82744 0.51069 0.0
H817 H 0.54787 0.90417 0.52912 0.0
H818 H 0.5717 0.87489 0.52667 0.0
C819 C 0.36937 0.21946 0.39929 0.0
C820 C 0.3608 0.23433 0.41448 0.0
C821 C 0.37688 0.19947 0.40962 0.0
C822 C 0.37861 0.15146 0.43318 0.0
H823 H 0.41588 0.1537 0.49417 0.0
C824 C 0.4145 0.07076 0.47019 0.0
C825 C 0.43738 0.07518 0.47617 0.0
C826 C 0.40249 0.08921 0.46745 0.0
C827 C 0.40545 0.15282 0.47714 0.0
H828 H 0.35389 0.24026 0.45254 0.0
H829 H 0.3667 0.205 0.47056 0.0
H830 H 0.40073 0.18848 0.47877 0.0
H831 H 0.46542 0.10218 0.48534 0.0
H832 H 0.44461 0.1344 0.47997 0.0
H833 H 0.38417 0.11633 0.43072 0.0
C834 C 0.3677 0.20892 0.45067 0.0
C835 C 0.39662 0.17265 0.46845 0.0
C836 C 0.3602 0.22897 0.44032 0.0
C837 C 0.44782 0.09824 0.48053 0.0
C838 C 0.43584 0.11669 0.4777 0.0
C839 C 0.38747 0.13173 0.44178 0.0
C840 C 0.37592 0.19385 0.43537 0.0
C841 C 0.38357 0.17231 0.44603 0.0
C842 C 0.41316 0.11244 0.47048 0.0
C843 C 0.40138 0.13234 0.46355 0.0
H844 H 0.36983 0.22298 0.37929 0.0
H845 H 0.38351 0.18842 0.3974 0.0
H846 H 0.36823 0.15053 0.41611 0.0
H847 H 0.40592 0.0531 0.46717 0.0
H848 H 0.38494 0.08534 0.46234 0.0
C849 C 0.79643 0.38791 0.36914 0.0
C850 C 0.79539 0.36447 0.36311 0.0
C851 C 0.8158 0.40043 0.38016 0.0
C852 C 0.86911 0.39223 0.41421 0.0
H853 H 0.88295 0.45959 0.4016 0.0
C854 C 0.94877 0.45357 0.45367 0.0
C855 C 0.94359 0.47206 0.4669 0.0
C856 C 0.93218 0.43942 0.43953 0.0
C857 C 0.87932 0.44076 0.40521 0.0
H858 H 0.81402 0.33589 0.36336 0.0
H859 H 0.84811 0.35789 0.3818 0.0
H860 H 0.85151 0.43705 0.37903 0.0
H861 H 0.91685 0.49003 0.47558 0.0
H862 H 0.88842 0.46598 0.45048 0.0
H863 H 0.89738 0.39625 0.4402 0.0
C864 C 0.83379 0.36651 0.37874 0.0
C865 C 0.86115 0.42781 0.39246 0.0
C866 C 0.81427 0.35388 0.36805 0.0
C867 C 0.92154 0.47604 0.46562 0.0
C868 C 0.90519 0.46232 0.45116 0.0
C869 C 0.88756 0.4052 0.42666 0.0
C870 C 0.83483 0.38997 0.38509 0.0
C871 C 0.85541 0.40341 0.39718 0.0
C872 C 0.91029 0.44391 0.43794 0.0
C873 C 0.89253 0.42965 0.42267 0.0
H874 H 0.78205 0.39644 0.36587 0.0
H875 H 0.81562 0.41821 0.38526 0.0
H876 H 0.86519 0.37356 0.41864 0.0
H877 H 0.96556 0.44999 0.45433 0.0
H878 H 0.9365 0.42528 0.42949 0.0
C879 C 0.67277 0.81938 0.3874 0.0
C880 C 0.66034 0.79844 0.37857 0.0
C881 C 0.66248 0.8354 0.39903 0.0
C882 C 0.61251 0.83885 0.4327 0.0
H883 H 0.62617 0.90571 0.41652 0.0
C884 C 0.55595 0.9018 0.45898 0.0
C885 C 0.56526 0.92428 0.46682 0.0
C886 C 0.56914 0.88713 0.44989 0.0
C887 C 0.62243 0.88714 0.42157 0.0
H888 H 0.62731 0.77803 0.37497 0.0
H889 H 0.60933 0.80601 0.3951 0.0
H890 H 0.64595 0.87887 0.39689 0.0
H891 H 0.59595 0.94884 0.47153 0.0
H892 H 0.6192 0.92303 0.45556 0.0
H893 H 0.58896 0.84695 0.45725 0.0
C894 C 0.62708 0.80997 0.39318 0.0
C895 C 0.63372 0.87175 0.41026 0.0
C896 C 0.63734 0.79405 0.38138 0.0
C897 C 0.58823 0.93174 0.46535 0.0
C898 C 0.60153 0.91695 0.45622 0.0
C899 C 0.60132 0.8542 0.44406 0.0
C900 C 0.63954 0.83076 0.4023 0.0
C901 C 0.62858 0.84737 0.41534 0.0
C902 C 0.59211 0.89441 0.44844 0.0
C903 C 0.60578 0.8785 0.43827 0.0
H904 H 0.6905 0.8234 0.38532 0.0
H905 H 0.67256 0.85119 0.40592 0.0
H906 H 0.60852 0.82024 0.43749 0.0
H907 H 0.53833 0.89541 0.45979 0.0
H908 H 0.56121 0.87013 0.44364 0.0
C909 C 0.19312 0.63821 0.37379 0.0
C910 C 0.19697 0.63525 0.3487 0.0
C911 C 0.17322 0.62767 0.38414 0.0
C912 C 0.11577 0.59651 0.3674 0.0
H913 H 0.11897 0.57346 0.43643 0.0
C914 C 0.04971 0.52607 0.41538 0.0
C915 C 0.04418 0.53084 0.43939 0.0
C916 C 0.06632 0.54124 0.40293 0.0
C917 C 0.11778 0.58001 0.4172 0.0
H918 H 0.18216 0.61939 0.31466 0.0
H919 H 0.1483 0.59991 0.33301 0.0
H920 H 0.15214 0.59475 0.41779 0.0
H921 H 0.05114 0.55595 0.4686 0.0
H922 H 0.08023 0.58202 0.44702 0.0
H923 H 0.08145 0.5805 0.3668 0.0
C924 C 0.1604 0.61085 0.34465 0.0
C925 C 0.13679 0.59238 0.40648 0.0
C926 C 0.18013 0.62174 0.33418 0.0
C927 C 0.05487 0.5517 0.45011 0.0
C928 C 0.07167 0.5666 0.43786 0.0
C929 C 0.09681 0.58373 0.37805 0.0
C930 C 0.15671 0.61348 0.36986 0.0
C931 C 0.13612 0.60085 0.3814 0.0
C932 C 0.07792 0.56124 0.41443 0.0
C933 C 0.09765 0.5754 0.40306 0.0
H934 H 0.20566 0.64824 0.38573 0.0
H935 H 0.17091 0.63059 0.40345 0.0
H936 H 0.11439 0.60306 0.3482 0.0
H937 H 0.04181 0.51018 0.4066 0.0
H938 H 0.07088 0.53669 0.38489 0.0
C939 C 0.37135 0.80532 0.64055 0.0
C940 C 0.37345 0.80032 0.66646 0.0
C941 C 0.38262 0.82629 0.62982 0.0
C942 C 0.43297 0.86865 0.63926 0.0
H943 H 0.40592 0.90965 0.59198 0.0
C944 C 0.48563 0.95165 0.59635 0.0
C945 C 0.48106 0.95748 0.57108 0.0
C946 C 0.47086 0.93482 0.60946 0.0
C947 C 0.41386 0.89827 0.6049 0.0
H948 H 0.38802 0.81443 0.70144 0.0
H949 H 0.40822 0.8504 0.68255 0.0
H950 H 0.38304 0.8753 0.61114 0.0
H951 H 0.45712 0.95053 0.5399 0.0
H952 H 0.43195 0.92074 0.56226 0.0
H953 H 0.46388 0.89058 0.63236 0.0
C954 C 0.39796 0.83798 0.67061 0.0
C955 C 0.40067 0.87866 0.61595 0.0
C956 C 0.38647 0.81726 0.68137 0.0
C957 C 0.46105 0.94668 0.55945 0.0
C958 C 0.44651 0.92955 0.57238 0.0
C959 C 0.44621 0.88796 0.62792 0.0
C960 C 0.39642 0.84256 0.6447 0.0
C961 C 0.41011 0.86366 0.63322 0.0
C962 C 0.45137 0.92302 0.59747 0.0
C963 C 0.4369 0.90309 0.6105 0.0
H964 H 0.36169 0.79268 0.62841 0.0
H965 H 0.38124 0.82935 0.60976 0.0
H966 H 0.44073 0.85719 0.6523 0.0
H967 H 0.50085 0.95975 0.60587 0.0
H968 H 0.47497 0.93081 0.62891 0.0
C969 C 0.19796 0.32905 0.63114 0.0
C970 C 0.21586 0.34434 0.6421 0.0
C971 C 0.17978 0.33781 0.61944 0.0
C972 C 0.15147 0.38896 0.62002 0.0
H973 H 0.12549 0.37087 0.55494 0.0
C974 C 0.10036 0.44683 0.56108 0.0
C975 C 0.08046 0.43669 0.54878 0.0
C976 C 0.11466 0.43287 0.57272 0.0
C977 C 0.13233 0.37577 0.57331 0.0
H978 H 0.22917 0.38094 0.64793 0.0
H979 H 0.1976 0.39604 0.62793 0.0
H980 H 0.15515 0.35134 0.57449 0.0
H981 H 0.06021 0.40382 0.53852 0.0
H982 H 0.0856 0.3791 0.55901 0.0
H983 H 0.12917 0.41363 0.61882 0.0
C984 C 0.19733 0.37726 0.62883 0.0
C985 C 0.14932 0.36465 0.58447 0.0
C986 C 0.21544 0.36857 0.64035 0.0
C987 C 0.07529 0.4121 0.54816 0.0
C988 C 0.08987 0.398 0.55968 0.0
C989 C 0.13459 0.39998 0.60896 0.0
C990 C 0.17911 0.362 0.61859 0.0
C991 C 0.15948 0.37163 0.60765 0.0
C992 C 0.10961 0.40831 0.57231 0.0
C993 C 0.12524 0.39401 0.58519 0.0
H994 H 0.19771 0.31028 0.63223 0.0
H995 H 0.16598 0.32562 0.61173 0.0
H996 H 0.15856 0.39433 0.63817 0.0
H997 H 0.10493 0.46571 0.56183 0.0
H998 H 0.12991 0.44138 0.58187 0.0
C999 C 0.64755 0.19398 0.65008 0.0
C1000 C 0.65703 0.21338 0.63516 0.0
C1001 C 0.63508 0.17419 0.63915 0.0
C1002 C 0.62249 0.14601 0.57756 0.0
H1003 H 0.5714 0.11175 0.6106 0.0
C1004 C 0.5502 0.08582 0.52758 0.0
C1005 C 0.54263 0.0637 0.53903 0.0
C1006 C 0.56615 0.1021 0.53976 0.0
C1007 C 0.58579 0.12098 0.60132 0.0
H1008 H 0.66046 0.22755 0.59718 0.0
H1009 H 0.63811 0.19366 0.57812 0.0
H1010 H 0.59478 0.14439 0.63101 0.0
H1011 H 0.54605 0.04116 0.5721 0.0
H1012 H 0.57365 0.07005 0.5938 0.0
H1013 H 0.61266 0.12319 0.54732 0.0
C1014 C 0.64088 0.19313 0.59821 0.0
C1015 C 0.59929 0.13969 0.61303 0.0
C1016 C 0.65362 0.2127 0.60912 0.0
C1017 C 0.55167 0.05803 0.56279 0.0
C1018 C 0.56732 0.07458 0.57524 0.0
C1019 C 0.60877 0.12758 0.5657 0.0
C1020 C 0.63148 0.1735 0.61302 0.0
C1021 C 0.61772 0.15268 0.6012 0.0
C1022 C 0.57459 0.09683 0.56388 0.0
C1023 C 0.59018 0.11502 0.57736 0.0
H1024 H 0.65008 0.19395 0.6702 0.0
H1025 H 0.62849 0.15937 0.65123 0.0
H1026 H 0.63681 0.15506 0.56805 0.0
H1027 H 0.54359 0.09066 0.50924 0.0
H1028 H 0.57135 0.11916 0.53063 0.0
C1029 C 0.79612 0.62331 0.60473 0.0
C1030 C 0.79829 0.64702 0.61011 0.0
C1031 C 0.81322 0.61507 0.59397 0.0
C1032 C 0.86479 0.63427 0.56032 0.0
H1033 H 0.87657 0.5729 0.58411 0.0
C1034 C 0.94429 0.59582 0.54443 0.0
C1035 C 0.9407 0.57234 0.53764 0.0
C1036 C 0.92646 0.60631 0.55024 0.0
C1037 C 0.87331 0.58997 0.57712 0.0
H1038 H 0.81977 0.68085 0.60841 0.0
H1039 H 0.85019 0.66629 0.59032 0.0
H1040 H 0.84662 0.58859 0.60112 0.0
H1041 H 0.91562 0.5418 0.53041 0.0
H1042 H 0.88467 0.56007 0.54082 0.0
H1043 H 0.8922 0.63569 0.53688 0.0
C1044 C 0.83507 0.65415 0.59388 0.0
C1045 C 0.85612 0.59894 0.58679 0.0
C1046 C 0.81778 0.66246 0.60438 0.0
C1047 C 0.91895 0.55987 0.53577 0.0
C1048 C 0.90123 0.57027 0.54175 0.0
C1049 C 0.88223 0.62535 0.55085 0.0
C1050 C 0.83301 0.63032 0.58869 0.0
C1051 C 0.85154 0.62112 0.5784 0.0
C1052 C 0.90489 0.59337 0.54957 0.0
C1053 C 0.88648 0.60306 0.5591 0.0
H1054 H 0.78102 0.61119 0.60853 0.0
H1055 H 0.81086 0.59674 0.58965 0.0
H1056 H 0.86153 0.65129 0.55328 0.0
H1057 H 0.96087 0.6059 0.5458 0.0
H1058 H 0.92963 0.62415 0.55632 0.0
C1059 C 0.34905 0.38435 0.24602 0.0
C1060 C 0.34069 0.39702 0.26375 0.0
C1061 C 0.3581 0.39567 0.22451 0.0
C1062 C 0.38307 0.4535 0.19808 0.0
H1063 H 0.37348 0.42065 0.13645 0.0
C1064 C 0.44061 0.47466 0.11582 0.0
C1065 C 0.43174 0.47004 0.09156 0.0
C1066 C 0.42715 0.46975 0.13621 0.0
C1067 C 0.37606 0.43036 0.15331 0.0
H1068 H 0.33531 0.43158 0.27276 0.0
H1069 H 0.35079 0.45137 0.23474 0.0
H1070 H 0.35386 0.40405 0.17288 0.0
H1071 H 0.4015 0.45875 0.06934 0.0
H1072 H 0.37793 0.45081 0.10475 0.0
H1073 H 0.4052 0.47994 0.17832 0.0
C1074 C 0.35052 0.43267 0.23772 0.0
C1075 C 0.36504 0.42061 0.17435 0.0
C1076 C 0.34147 0.42131 0.25935 0.0
C1077 C 0.4089 0.46201 0.08789 0.0
C1078 C 0.39541 0.45739 0.1082 0.0
C1079 C 0.39403 0.46337 0.17691 0.0
C1080 C 0.35891 0.41994 0.22004 0.0
C1081 C 0.36883 0.43175 0.19714 0.0
C1082 C 0.40451 0.46039 0.13268 0.0
C1083 C 0.391 0.45165 0.15441 0.0
H1084 H 0.34843 0.36557 0.24865 0.0
H1085 H 0.36473 0.38539 0.21149 0.0
H1086 H 0.38639 0.46249 0.21538 0.0
H1087 H 0.45813 0.48104 0.11922 0.0
H1088 H 0.43478 0.47216 0.15478 0.0
C1089 C 0.35758 0.61386 0.82847 0.0
C1090 C 0.36718 0.62768 0.80827 0.0
C1091 C 0.37092 0.60486 0.84745 0.0
C1092 C 0.42862 0.59334 0.86128 0.0
H1093 H 0.41252 0.59035 0.93025 0.0
C1094 C 0.4904 0.57624 0.94181 0.0
C1095 C 0.48285 0.55782 0.95905 0.0
C1096 C 0.47552 0.58545 0.92495 0.0
C1097 C 0.41714 0.591 0.91105 0.0
H1098 H 0.3985 0.64218 0.79203 0.0
H1099 H 0.42151 0.62756 0.82534 0.0
H1100 H 0.38795 0.60428 0.89735 0.0
H1101 H 0.45344 0.5357 0.97298 0.0
H1102 H 0.42743 0.55219 0.94375 0.0
H1103 H 0.45801 0.58057 0.87505 0.0
C1104 C 0.4037 0.62324 0.82647 0.0
C1105 C 0.40302 0.59885 0.89214 0.0
C1106 C 0.39043 0.63201 0.80746 0.0
C1107 C 0.45986 0.54985 0.95997 0.0
C1108 C 0.44493 0.5593 0.94324 0.0
C1109 C 0.4428 0.58581 0.88015 0.0
C1110 C 0.39419 0.60951 0.84676 0.0
C1111 C 0.40865 0.60028 0.86698 0.0
C1112 C 0.45269 0.5767 0.92507 0.0
C1113 C 0.43732 0.58469 0.90525 0.0
H1114 H 0.33977 0.61028 0.82986 0.0
H1115 H 0.36294 0.59413 0.86258 0.0
H1116 H 0.43331 0.59355 0.84215 0.0
H1117 H 0.50794 0.58286 0.9405 0.0
H1118 H 0.48193 0.5991 0.91138 0.0
C1119 C 0.37581 0.33689 0.82147 0.0
C1120 C 0.36888 0.34813 0.79926 0.0
C1121 C 0.3861 0.35003 0.84135 0.0
C1122 C 0.3956 0.41077 0.86493 0.0
H1123 H 0.44392 0.38926 0.90427 0.0
C1124 C 0.4615 0.47151 0.92272 0.0
C1125 C 0.46798 0.46352 0.94676 0.0
C1126 C 0.44698 0.45677 0.90718 0.0
C1127 C 0.43024 0.39533 0.89368 0.0
H1128 H 0.36778 0.38194 0.78028 0.0
H1129 H 0.38622 0.40482 0.81443 0.0
H1130 H 0.42384 0.36477 0.87203 0.0
H1131 H 0.46398 0.43389 0.97355 0.0
H1132 H 0.43882 0.4078 0.94602 0.0
H1133 H 0.40276 0.4418 0.88594 0.0
C1134 C 0.38311 0.38589 0.817 0.0
C1135 C 0.41867 0.38128 0.87518 0.0
C1136 C 0.37262 0.37277 0.7973 0.0
C1137 C 0.45919 0.44057 0.95516 0.0
C1138 C 0.44494 0.42561 0.93937 0.0
C1139 C 0.40736 0.42492 0.88318 0.0
C1140 C 0.38995 0.37475 0.83939 0.0
C1141 C 0.40137 0.38895 0.86027 0.0
C1142 C 0.43885 0.43352 0.91513 0.0
C1143 C 0.42499 0.41749 0.89753 0.0
H1144 H 0.37295 0.31792 0.82363 0.0
H1145 H 0.39079 0.34077 0.85835 0.0
H1146 H 0.38205 0.41708 0.85436 0.0
H1147 H 0.46795 0.48912 0.91572 0.0
H1148 H 0.44275 0.46332 0.88855 0.0
C1149 C 0.62721 0.36502 0.78383 0.0
C1150 C 0.64983 0.36333 0.78631 0.0
C1151 C 0.61768 0.37706 0.80098 0.0
C1152 C 0.63115 0.42144 0.84922 0.0
H1153 H 0.5713 0.39657 0.86803 0.0
C1154 C 0.58481 0.46158 0.92404 0.0
C1155 C 0.5627 0.46359 0.91719 0.0
C1156 C 0.59681 0.44954 0.90919 0.0
C1157 C 0.58799 0.40382 0.86286 0.0
H1158 H 0.68015 0.37294 0.80896 0.0
H1159 H 0.66344 0.39382 0.83908 0.0
H1160 H 0.58955 0.37493 0.84038 0.0
H1161 H 0.53609 0.45497 0.889 0.0
H1162 H 0.55686 0.43414 0.86345 0.0
H1163 H 0.62941 0.45038 0.87192 0.0
C1164 C 0.65314 0.3861 0.82362 0.0
C1165 C 0.59845 0.39145 0.84693 0.0
C1166 C 0.66272 0.3741 0.80636 0.0
C1167 C 0.55303 0.45369 0.895 0.0
C1168 C 0.5649 0.44158 0.88036 0.0
C1169 C 0.62068 0.4338 0.86533 0.0
C1170 C 0.63046 0.38767 0.82119 0.0
C1171 C 0.62002 0.40027 0.83951 0.0
C1172 C 0.58682 0.4391 0.88738 0.0
C1173 C 0.59882 0.42531 0.87195 0.0
H1174 H 0.61689 0.35735 0.76834 0.0
H1175 H 0.60028 0.37833 0.79814 0.0
H1176 H 0.64771 0.42886 0.84377 0.0
H1177 H 0.59276 0.46907 0.94097 0.0
H1178 H 0.6137 0.44789 0.91508 0.0
C1179 C 0.64195 0.61032 0.74383 0.0
C1180 C 0.64073 0.63437 0.74055 0.0
C1181 C 0.63281 0.59711 0.76435 0.0
C1182 C 0.59133 0.59452 0.81082 0.0
H1183 H 0.62821 0.55746 0.85157 0.0
C1184 C 0.59141 0.55137 0.91579 0.0
C1185 C 0.56955 0.53915 0.91621 0.0
C1186 C 0.60047 0.56002 0.89318 0.0
C1187 C 0.61774 0.56767 0.84028 0.0
H1188 H 0.62857 0.66321 0.75619 0.0
H1189 H 0.61205 0.63986 0.79169 0.0
H1190 H 0.64273 0.57917 0.81395 0.0
H1191 H 0.54052 0.52517 0.89315 0.0
H1192 H 0.55632 0.54058 0.85376 0.0
H1193 H 0.56641 0.58321 0.8372 0.0
C1194 C 0.62018 0.63137 0.77831 0.0
C1195 C 0.62597 0.57996 0.81875 0.0
C1196 C 0.62957 0.6447 0.75793 0.0
C1197 C 0.55735 0.5347 0.8935 0.0
C1198 C 0.56633 0.54357 0.87095 0.0
C1199 C 0.583 0.58198 0.83213 0.0
C1200 C 0.62197 0.60754 0.78184 0.0
C1201 C 0.61291 0.5937 0.804 0.0
C1202 C 0.58776 0.55678 0.87064 0.0
C1203 C 0.59621 0.56863 0.84718 0.0
H1204 H 0.64996 0.60165 0.73051 0.0
H1205 H 0.63412 0.57867 0.76648 0.0
H1206 H 0.5809 0.60487 0.79966 0.0
H1207 H 0.60128 0.55493 0.93296 0.0
H1208 H 0.61704 0.5702 0.89343 0.0
C1209 C 0.6315 0.66614 0.19103 0.0
C1210 C 0.63978 0.65577 0.21311 0.0
C1211 C 0.6204 0.65218 0.17217 0.0
C1212 C 0.58738 0.59414 0.163 0.0
H1213 H 0.60106 0.60476 0.09331 0.0
C1214 C 0.54613 0.5288 0.09116 0.0
C1215 C 0.53971 0.53748 0.06742 0.0
C1216 C 0.5599 0.54331 0.10758 0.0
C1217 C 0.59679 0.60171 0.11262 0.0
H1218 H 0.64279 0.62264 0.23273 0.0
H1219 H 0.62318 0.59833 0.20002 0.0
H1220 H 0.62158 0.6304 0.12452 0.0
H1221 H 0.54328 0.56802 0.0419 0.0
H1222 H 0.56681 0.59377 0.0709 0.0
H1223 H 0.56221 0.56609 0.15143 0.0
C1224 C 0.6254 0.61724 0.19722 0.0
C1225 C 0.60863 0.61638 0.1305 0.0
C1226 C 0.63676 0.63116 0.21587 0.0
C1227 C 0.54807 0.56083 0.06005 0.0
C1228 C 0.5616 0.57556 0.07671 0.0
C1229 C 0.57537 0.57972 0.14517 0.0
C1230 C 0.617 0.62757 0.1752 0.0
C1231 C 0.60418 0.61258 0.15592 0.0
C1232 C 0.5673 0.56712 0.10096 0.0
C1233 C 0.58004 0.58305 0.11973 0.0
H1234 H 0.6337 0.68506 0.18831 0.0
H1235 H 0.61401 0.66062 0.15546 0.0
H1236 H 0.58329 0.59103 0.18237 0.0
H1237 H 0.54017 0.51078 0.09725 0.0
H1238 H 0.56446 0.53585 0.12567 0.0
C1239 C 0.3664 0.65723 0.19617 0.0
C1240 C 0.35506 0.6452 0.21632 0.0
C1241 C 0.37562 0.645 0.17889 0.0
C1242 C 0.37439 0.58584 0.15497 0.0
H1243 H 0.43426 0.61156 0.13685 0.0
C1244 C 0.42266 0.54426 0.08344 0.0
C1245 C 0.44482 0.54296 0.09081 0.0
C1246 C 0.41026 0.55671 0.09732 0.0
C1247 C 0.41753 0.60413 0.14173 0.0
H1248 H 0.34444 0.61076 0.23389 0.0
H1249 H 0.36048 0.58948 0.20373 0.0
H1250 H 0.41508 0.63325 0.16355 0.0
H1251 H 0.47116 0.5534 0.11881 0.0
H1252 H 0.44969 0.57492 0.14274 0.0
H1253 H 0.37719 0.55639 0.13354 0.0
C1254 C 0.36198 0.60835 0.20111 0.0
C1255 C 0.40645 0.61668 0.15683 0.0
C1256 C 0.35279 0.62058 0.21843 0.0
C1257 C 0.45418 0.5541 0.11246 0.0
C1258 C 0.44191 0.56661 0.12614 0.0
C1259 C 0.38547 0.57331 0.1397 0.0
C1260 C 0.37372 0.62043 0.18129 0.0
C1261 C 0.38484 0.60759 0.16391 0.0
C1262 C 0.41988 0.56826 0.11867 0.0
C1263 C 0.4073 0.58217 0.13324 0.0
H1264 H 0.3681 0.67613 0.19368 0.0
H1265 H 0.38426 0.65482 0.16361 0.0
H1266 H 0.35766 0.57846 0.15988 0.0
H1267 H 0.41494 0.53576 0.06693 0.0
H1268 H 0.39331 0.5577 0.09109 0.0
C1269 C 0.63974 0.36167 0.17794 0.0
C1270 C 0.64767 0.37469 0.1989 0.0
C1271 C 0.62642 0.37078 0.15912 0.0
C1272 C 0.5866 0.41089 0.14973 0.0
H1273 H 0.59517 0.40792 0.07907 0.0
C1274 C 0.51949 0.42778 0.07495 0.0
C1275 C 0.52635 0.44475 0.05594 0.0
C1276 C 0.53504 0.41853 0.09083 0.0
C1277 C 0.59262 0.40888 0.09874 0.0
H1278 H 0.64801 0.40754 0.21644 0.0
H1279 H 0.62447 0.42336 0.18369 0.0
H1280 H 0.62166 0.39405 0.11003 0.0
H1281 H 0.5551 0.46428 0.03798 0.0
H1282 H 0.58226 0.44764 0.06552 0.0
H1283 H 0.55746 0.42537 0.13858 0.0
C1284 C 0.62868 0.40614 0.1818 0.0
C1285 C 0.60769 0.40086 0.11643 0.0
C1286 C 0.64228 0.39718 0.20043 0.0
C1287 C 0.5492 0.45126 0.0524 0.0
C1288 C 0.56478 0.44173 0.06815 0.0
C1289 C 0.57138 0.41853 0.13211 0.0
C1290 C 0.62045 0.39296 0.16105 0.0
C1291 C 0.60484 0.40184 0.14211 0.0
C1292 C 0.55784 0.42576 0.08794 0.0
C1293 C 0.5742 0.41758 0.10643 0.0
H1294 H 0.64374 0.34434 0.1762 0.0
H1295 H 0.62021 0.36017 0.14343 0.0
H1296 H 0.58386 0.41168 0.16938 0.0
H1297 H 0.50208 0.4223 0.0783 0.0
H1298 H 0.52922 0.40601 0.10573 0.0
loop_
_geom_bond_atom_site_label_1
_geom_bond_atom_site_label_2
_geom_bond_distance
_geom_bond_site_symmetry_2
_ccdc_geom_bond_type
C0 C1 1.391 . S
C0 C4 1.391 . S
C0 H42 0.948 . S
C1 C0 1.391 . S
C1 C2 1.391 . S
C2 C1 1.391 . S
C2 H58 0.947 . S
C2 C59 1.392 . S
C3 C4 1.391 . S
C3 C7 1.397 . S
C3 C59 1.419 . S
C4 C0 1.391 . S
C4 C3 1.391 . S
C4 C5 1.399 . S
C5 C4 1.399 . S
C5 C8 1.396 . S
C5 C17 1.453 . S
C5 C18 1.684 . S
H6 C30 0.948 . S
C7 C3 1.397 . S
C7 C8 1.394 . S
C7 C26 1.723 . S
C8 C5 1.396 . S
C8 C7 1.394 . S
C8 C38 1.723 . S
H9 C32 0.947 . S
H10 C33 0.948 . S
H11 C39 0.982 . S
H12 C40 0.979 . S
H13 C40 0.980 . S
H14 C40 0.983 . S
H15 C39 0.979 . S
H16 C39 0.977 . S
C17 C5 1.453 . S
C17 H46 0.982 . S
C17 H47 0.979 . S
C17 H48 0.977 . S
C18 C5 1.684 . S
C18 H43 0.979 . S
C18 H44 0.980 . S
C18 H45 0.983 . S
C19 C20 1.391 . S
C19 C24 1.391 . S
C19 H49 0.948 . S
C20 C19 1.391 . S
C20 C21 1.391 . S
C21 C20 1.391 . S
C21 C22 1.392 . S
C21 H50 0.947 . S
C22 C21 1.392 . S
C22 C23 1.419 . S
C22 H51 0.948 . S
C23 C22 1.419 . S
C23 C24 1.391 . S
C23 C27 1.397 . S
C24 C19 1.391 . S
C24 C23 1.391 . S
C24 C25 1.399 . S
C25 C24 1.399 . S
C25 C26 1.396 . S
C25 C28 1.453 . S
C25 C29 1.684 . S
C26 C7 1.723 . S
C26 C25 1.396 . S
C26 C27 1.394 . S
C27 C23 1.397 . S
C27 C26 1.394 . S
C27 C37 1.723 . S
C28 C25 1.453 . S
C28 H52 0.982 . S
C28 H53 0.979 . S
C28 H54 0.977 . S
C29 C25 1.684 . S
C29 H55 0.979 . S
C29 H56 0.980 . S
C29 H57 0.983 . S
C30 H6 0.948 . S
C30 C31 1.391 . S
C30 C35 1.391 . S
C31 C30 1.391 . S
C31 C32 1.391 . S
C32 H9 0.947 . S
C32 C31 1.391 . S
C32 C33 1.392 . S
C33 H10 0.948 . S
C33 C32 1.392 . S
C33 C34 1.419 . S
C34 C33 1.419 . S
C34 C35 1.391 . S
C34 C38 1.397 . S
C35 C30 1.391 . S
C35 C34 1.391 . S
C35 C36 1.399 . S
C36 C35 1.399 . S
C36 C37 1.396 . S
C36 C39 1.453 . S
C36 C40 1.684 . S
C37 C27 1.723 . S
C37 C36 1.396 . S
C37 C38 1.394 . S
C38 C8 1.723 . S
C38 C34 1.397 . S
C38 C37 1.394 . S
C39 H11 0.982 . S
C39 H15 0.979 . S
C39 H16 0.977 . S
C39 C36 1.453 . S
C40 H12 0.979 . S
C40 H13 0.980 . S
C40 H14 0.983 . S
C40 C36 1.684 . S
H41 C59 0.948 . S
H42 C0 0.948 . S
H43 C18 0.979 . S
H44 C18 0.980 . S
H45 C18 0.983 . S
H46 C17 0.982 . S
H47 C17 0.979 . S
H48 C17 0.977 . S
H49 C19 0.948 . S
H50 C21 0.947 . S
H51 C22 0.948 . S
H52 C28 0.982 . S
H53 C28 0.979 . S
H54 C28 0.977 . S
H55 C29 0.979 . S
H56 C29 0.980 . S
H57 C29 0.983 . S
H58 C2 0.947 . S
C59 C2 1.392 . S
C59 C3 1.419 . S
C59 H41 0.948 . S
C60 C61 1.391 . S
C60 C64 1.391 . S
C60 H102 0.948 . S
C61 C60 1.391 . S
C61 C62 1.391 . S
C62 C61 1.391 . S
C62 H118 0.947 . S
C62 C119 1.392 . S
C63 C64 1.391 . S
C63 C67 1.397 . S
C63 C119 1.419 . S
C64 C60 1.391 . S
C64 C63 1.391 . S
C64 C65 1.399 . S
C65 C64 1.399 . S
C65 C68 1.396 . S
C65 C77 1.453 . S
C65 C78 1.684 . S
H66 C90 0.948 . S
C67 C63 1.397 . S
C67 C68 1.394 . S
C67 C86 1.723 . S
C68 C65 1.396 . S
C68 C67 1.394 . S
C68 C98 1.723 . S
H69 C92 0.947 . S
H70 C93 0.948 . S
H71 C99 0.982 . S
H72 C100 0.979 . S
H73 C100 0.980 . S
H74 C100 0.983 . S
H75 C99 0.979 . S
H76 C99 0.977 . S
C77 C65 1.453 . S
C77 H106 0.982 . S
C77 H107 0.979 . S
C77 H108 0.977 . S
C78 C65 1.684 . S
C78 H103 0.979 . S
C78 H104 0.980 . S
C78 H105 0.983 . S
C79 C80 1.391 . S
C79 C84 1.391 . S
C79 H109 0.948 . S
C80 C79 1.391 . S
C80 C81 1.391 . S
C81 C80 1.391 . S
C81 C82 1.392 . S
C81 H110 0.947 . S
C82 C81 1.392 . S
C82 C83 1.419 . S
C82 H111 0.948 . S
C83 C82 1.419 . S
C83 C84 1.391 . S
C83 C87 1.397 . S
C84 C79 1.391 . S
C84 C83 1.391 . S
C84 C85 1.399 . S
C85 C84 1.399 . S
C85 C86 1.396 . S
C85 C88 1.453 . S
C85 C89 1.684 . S
C86 C67 1.723 . S
C86 C85 1.396 . S
C86 C87 1.394 . S
C87 C83 1.397 . S
C87 C86 1.394 . S
C87 C97 1.723 . S
C88 C85 1.453 . S
C88 H112 0.982 . S
C88 H113 0.979 . S
C88 H114 0.977 . S
C89 C85 1.684 . S
C89 H115 0.979 . S
C89 H116 0.980 . S
C89 H117 0.983 . S
C90 H66 0.948 . S
C90 C91 1.391 . S
C90 C95 1.391 . S
C91 C90 1.391 . S
C91 C92 1.391 . S
C92 H69 0.947 . S
C92 C91 1.391 . S
C92 C93 1.392 . S
C93 H70 0.948 . S
C93 C92 1.392 . S
C93 C94 1.419 . S
C94 C93 1.419 . S
C94 C95 1.391 . S
C94 C98 1.397 . S
C95 C90 1.391 . S
C95 C94 1.391 . S
C95 C96 1.399 . S
C96 C95 1.399 . S
C96 C97 1.396 . S
C96 C99 1.453 . S
C96 C100 1.684 . S
C97 C87 1.723 . S
C97 C96 1.396 . S
C97 C98 1.394 . S
C98 C68 1.723 . S
C98 C94 1.397 . S
C98 C97 1.394 . S
C99 H71 0.982 . S
C99 H75 0.979 . S
C99 H76 0.977 . S
C99 C96 1.453 . S
C100 H72 0.979 . S
C100 H73 0.980 . S
C100 H74 0.983 . S
C100 C96 1.684 . S
H101 C119 0.948 . S
H102 C60 0.948 . S
H103 C78 0.979 . S
H104 C78 0.980 . S
H105 C78 0.983 . S
H106 C77 0.982 . S
H107 C77 0.979 . S
H108 C77 0.977 . S
H109 C79 0.948 . S
H110 C81 0.947 . S
H111 C82 0.948 . S
H112 C88 0.982 . S
H113 C88 0.979 . S
H114 C88 0.977 . S
H115 C89 0.979 . S
H116 C89 0.980 . S
H117 C89 0.983 . S
H118 C62 0.947 . S
C119 C62 1.392 . S
C119 C63 1.419 . S
C119 H101 0.948 . S
C120 C121 1.391 . S
C120 C124 1.391 . S
C120 H162 0.948 . S
C121 C120 1.391 . S
C121 C122 1.391 . S
C122 C121 1.391 . S
C122 H178 0.947 . S
C122 C179 1.392 . S
C123 C124 1.391 . S
C123 C127 1.397 . S
C123 C179 1.419 . S
C124 C120 1.391 . S
C124 C123 1.391 . S
C124 C125 1.399 . S
C125 C124 1.399 . S
C125 C128 1.396 . S
C125 C137 1.453 . S
C125 C138 1.684 . S
H126 C150 0.948 . S
C127 C123 1.397 . S
C127 C128 1.394 . S
C127 C146 1.723 . S
C128 C125 1.396 . S
C128 C127 1.394 . S
C128 C158 1.723 . S
H129 C152 0.947 . S
H130 C153 0.948 . S
H131 C159 0.982 . S
H132 C160 0.979 . S
H133 C160 0.980 . S
H134 C160 0.983 . S
H135 C159 0.979 . S
H136 C159 0.977 . S
C137 C125 1.453 . S
C137 H166 0.982 . S
C137 H167 0.979 . S
C137 H168 0.977 . S
C138 C125 1.684 . S
C138 H163 0.979 . S
C138 H164 0.980 . S
C138 H165 0.983 . S
C139 C140 1.391 . S
C139 C144 1.391 . S
C139 H169 0.948 . S
C140 C139 1.391 . S
C140 C141 1.391 . S
C141 C140 1.391 . S
C141 C142 1.392 . S
C141 H170 0.947 . S
C142 C141 1.392 . S
C142 C143 1.419 . S
C142 H171 0.948 . S
C143 C142 1.419 . S
C143 C144 1.391 . S
C143 C147 1.397 . S
C144 C139 1.391 . S
C144 C143 1.391 . S
C144 C145 1.399 . S
C145 C144 1.399 . S
C145 C146 1.396 . S
C145 C148 1.453 . S
C145 C149 1.684 . S
C146 C127 1.723 . S
C146 C145 1.396 . S
C146 C147 1.394 . S
C147 C143 1.397 . S
C147 C146 1.394 . S
C147 C157 1.723 . S
C148 C145 1.453 . S
C148 H172 0.982 . S
C148 H173 0.979 . S
C148 H174 0.977 . S
C149 C145 1.684 . S
C149 H175 0.979 . S
C149 H176 0.980 . S
C149 H177 0.983 . S
C150 H126 0.948 . S
C150 C151 1.391 . S
C150 C155 1.391 . S
C151 C150 1.391 . S
C151 C152 1.391 . S
C152 H129 0.947 . S
C152 C151 1.391 . S
C152 C153 1.392 . S
C153 H130 0.948 . S
C153 C152 1.392 . S
C153 C154 1.419 . S
C154 C153 1.419 . S
C154 C155 1.391 . S
C154 C158 1.397 . S
C155 C150 1.391 . S
C155 C154 1.391 . S
C155 C156 1.399 . S
C156 C155 1.399 . S
C156 C157 1.396 . S
C156 C159 1.453 . S
C156 C160 1.684 . S
C157 C147 1.723 . S
C157 C156 1.396 . S
C157 C158 1.394 . S
C158 C128 1.723 . S
C158 C154 1.397 . S
C158 C157 1.394 . S
C159 H131 0.982 . S
C159 H135 0.979 . S
C159 H136 0.977 . S
C159 C156 1.453 . S
C160 H132 0.979 . S
C160 H133 0.980 . S
C160 H134 0.983 . S
C160 C156 1.684 . S
H161 C179 0.948 . S
H162 C120 0.948 . S
H163 C138 0.979 . S
H164 C138 0.980 . S
H165 C138 0.983 . S
H166 C137 0.982 . S
H167 C137 0.979 . S
H168 C137 0.977 . S
H169 C139 0.948 . S
H170 C141 0.947 . S
H171 C142 0.948 . S
H172 C148 0.982 . S
H173 C148 0.979 . S
H174 C148 0.977 . S
H175 C149 0.979 . S
H176 C149 0.980 . S
H177 C149 0.983 . S
H178 C122 0.947 . S
C179 C122 1.392 . S
C179 C123 1.419 . S
C179 H161 0.948 . S
C180 C181 1.391 . S
C180 C184 1.391 . S
C180 H222 0.948 . S
C181 C180 1.391 . S
C181 C182 1.391 . S
C182 C181 1.391 . S
C182 H238 0.947 . S
C182 C239 1.392 . S
C183 C184 1.391 . S
C183 C187 1.397 . S
C183 C239 1.419 . S
C184 C180 1.391 . S
C184 C183 1.391 . S
C184 C185 1.399 . S
C185 C184 1.399 . S
C185 C188 1.396 . S
C185 C197 1.453 . S
C185 C198 1.684 . S
H186 C210 0.948 . S
C187 C183 1.397 . S
C187 C188 1.394 . S
C187 C206 1.723 . S
C188 C185 1.396 . S
C188 C187 1.394 . S
C188 C218 1.723 . S
H189 C212 0.947 . S
H190 C213 0.948 . S
H191 C219 0.982 . S
H192 C220 0.979 . S
H193 C220 0.980 . S
H194 C220 0.983 . S
H195 C219 0.979 . S
H196 C219 0.977 . S
C197 C185 1.453 . S
C197 H226 0.982 . S
C197 H227 0.979 . S
C197 H228 0.977 . S
C198 C185 1.684 . S
C198 H223 0.979 . S
C198 H224 0.980 . S
C198 H225 0.983 . S
C199 C200 1.391 . S
C199 C204 1.391 . S
C199 H229 0.948 . S
C200 C199 1.391 . S
C200 C201 1.391 . S
C201 C200 1.391 . S
C201 C202 1.392 . S
C201 H230 0.947 . S
C202 C201 1.392 . S
C202 C203 1.419 . S
C202 H231 0.948 . S
C203 C202 1.419 . S
C203 C204 1.391 . S
C203 C207 1.397 . S
C204 C199 1.391 . S
C204 C203 1.391 . S
C204 C205 1.399 . S
C205 C204 1.399 . S
C205 C206 1.396 . S
C205 C208 1.453 . S
C205 C209 1.684 . S
C206 C187 1.723 . S
C206 C205 1.396 . S
C206 C207 1.394 . S
C207 C203 1.397 . S
C207 C206 1.394 . S
C207 C217 1.723 . S
C208 C205 1.453 . S
C208 H232 0.982 . S
C208 H233 0.979 . S
C208 H234 0.977 . S
C209 C205 1.684 . S
C209 H235 0.979 . S
C209 H236 0.980 . S
C209 H237 0.983 . S
C210 H186 0.948 . S
C210 C211 1.391 . S
C210 C215 1.391 . S
C211 C210 1.391 . S
C211 C212 1.391 . S
C212 H189 0.947 . S
C212 C211 1.391 . S
C212 C213 1.392 . S
C213 H190 0.948 . S
C213 C212 1.392 . S
C213 C214 1.419 . S
C214 C213 1.419 . S
C214 C215 1.391 . S
C214 C218 1.397 . S
C215 C210 1.391 . S
C215 C214 1.391 . S
C215 C216 1.399 . S
C216 C215 1.399 . S
C216 C217 1.396 . S
C216 C219 1.453 . S
C216 C220 1.684 . S
C217 C207 1.723 . S
C217 C216 1.396 . S
C217 C218 1.394 . S
C218 C188 1.723 . S
C218 C214 1.397 . S
C218 C217 1.394 . S
C219 H191 0.982 . S
C219 H195 0.979 . S
C219 H196 0.977 . S
C219 C216 1.453 . S
C220 H192 0.979 . S
C220 H193 0.980 . S
C220 H194 0.983 . S
C220 C216 1.684 . S
H221 C239 0.948 . S
H222 C180 0.948 . S
H223 C198 0.979 . S
H224 C198 0.980 . S
H225 C198 0.983 . S
H226 C197 0.982 . S
H227 C197 0.979 . S
H228 C197 0.977 . S
H229 C199 0.948 . S
H230 C201 0.947 . S
H231 C202 0.948 . S
H232 C208 0.982 . S
H233 C208 0.979 . S
H234 C208 0.977 . S
H235 C209 0.979 . S
H236 C209 0.980 . S
H237 C209 0.983 . S
H238 C182 0.947 . S
C239 C182 1.392 . S
C239 C183 1.419 . S
C239 H221 0.948 . S
C240 C241 1.391 . S
C240 C244 1.391 . S
C240 H282 0.948 . S
C241 C240 1.391 . S
C241 C242 1.391 . S
C242 C241 1.391 . S
C242 H298 0.947 . S
C242 C299 1.392 . S
C243 C244 1.391 . S
C243 C247 1.397 . S
C243 C299 1.419 . S
C244 C240 1.391 . S
C244 C243 1.391 . S
C244 C245 1.399 . S
C245 C244 1.399 . S
C245 C248 1.396 . S
C245 C257 1.453 . S
C245 C258 1.684 . S
H246 C270 0.948 . S
C247 C243 1.397 . S
C247 C248 1.394 . S
C247 C266 1.723 . S
C248 C245 1.396 . S
C248 C247 1.394 . S
C248 C278 1.723 . S
H249 C272 0.947 . S
H250 C273 0.948 . S
H251 C279 0.982 . S
H252 C280 0.979 . S
H253 C280 0.980 . S
H254 C280 0.983 . S
H255 C279 0.979 . S
H256 C279 0.977 . S
C257 C245 1.453 . S
C257 H286 0.982 . S
C257 H287 0.979 . S
C257 H288 0.977 . S
C258 C245 1.684 . S
C258 H283 0.979 . S
C258 H284 0.980 . S
C258 H285 0.983 . S
C259 C260 1.391 . S
C259 C264 1.391 . S
C259 H289 0.948 . S
C260 C259 1.391 . S
C260 C261 1.391 . S
C261 C260 1.391 . S
C261 C262 1.392 . S
C261 H290 0.947 . S
C262 C261 1.392 . S
C262 C263 1.419 . S
C262 H291 0.948 . S
C263 C262 1.419 . S
C263 C264 1.391 . S
C263 C267 1.397 . S
C264 C259 1.391 . S
C264 C263 1.391 . S
C264 C265 1.399 . S
C265 C264 1.399 . S
C265 C266 1.396 . S
C265 C268 1.453 . S
C265 C269 1.684 . S
C266 C247 1.723 . S
C266 C265 1.396 . S
C266 C267 1.394 . S
C267 C263 1.397 . S
C267 C266 1.394 . S
C267 C277 1.723 . S
C268 C265 1.453 . S
C268 H292 0.982 . S
C268 H293 0.979 . S
C268 H294 0.977 . S
C269 C265 1.684 . S
C269 H295 0.979 . S
C269 H296 0.980 . S
C269 H297 0.983 . S
C270 H246 0.948 . S
C270 C271 1.391 . S
C270 C275 1.391 . S
C271 C270 1.391 . S
C271 C272 1.391 . S
C272 H249 0.947 . S
C272 C271 1.391 . S
C272 C273 1.392 . S
C273 H250 0.948 . S
C273 C272 1.392 . S
C273 C274 1.419 . S
C274 C273 1.419 . S
C274 C275 1.391 . S
C274 C278 1.397 . S
C275 C270 1.391 . S
C275 C274 1.391 . S
C275 C276 1.399 . S
C276 C275 1.399 . S
C276 C277 1.396 . S
C276 C279 1.453 . S
C276 C280 1.684 . S
C277 C267 1.723 . S
C277 C276 1.396 . S
C277 C278 1.394 . S
C278 C248 1.723 . S
C278 C274 1.397 . S
C278 C277 1.394 . S
C279 H251 0.982 . S
C279 H255 0.979 . S
C279 H256 0.977 . S
C279 C276 1.453 . S
C280 H252 0.979 . S
C280 H253 0.980 . S
C280 H254 0.983 . S
C280 C276 1.684 . S
H281 C299 0.948 . S
H282 C240 0.948 . S
H283 C258 0.979 . S
H284 C258 0.980 . S
H285 C258 0.983 . S
H286 C257 0.982 . S
H287 C257 0.979 . S
H288 C257 0.977 . S
H289 C259 0.948 . S
H290 C261 0.947 . S
H291 C262 0.948 . S
H292 C268 0.982 . S
H293 C268 0.979 . S
H294 C268 0.977 . S
H295 C269 0.979 . S
H296 C269 0.980 . S
H297 C269 0.983 . S
H298 C242 0.947 . S
C299 C242 1.392 . S
C299 C243 1.419 . S
C299 H281 0.948 . S
C300 C301 1.391 . S
C300 C304 1.391 . S
C300 H342 0.948 . S
C301 C300 1.391 . S
C301 C302 1.391 . S
C302 C301 1.391 . S
C302 H358 0.947 . S
C302 C359 1.392 . S
C303 C304 1.391 . S
C303 C307 1.397 . S
C303 C359 1.419 . S
C304 C300 1.391 . S
C304 C303 1.391 . S
C304 C305 1.399 . S
C305 C304 1.399 . S
C305 C308 1.396 . S
C305 C317 1.453 . S
C305 C318 1.684 . S
H306 C330 0.948 . S
C307 C303 1.397 . S
C307 C308 1.394 . S
C307 C326 1.723 . S
C308 C305 1.396 . S
C308 C307 1.394 . S
C308 C338 1.723 . S
H309 C332 0.947 . S
H310 C333 0.948 . S
H311 C339 0.982 . S
H312 C340 0.979 . S
H313 C340 0.980 . S
H314 C340 0.983 . S
H315 C339 0.979 . S
H316 C339 0.977 . S
C317 C305 1.453 . S
C317 H346 0.982 . S
C317 H347 0.979 . S
C317 H348 0.977 . S
C318 C305 1.684 . S
C318 H343 0.979 . S
C318 H344 0.980 . S
C318 H345 0.983 . S
C319 C320 1.391 . S
C319 C324 1.391 . S
C319 H349 0.948 . S
C320 C319 1.391 . S
C320 C321 1.391 . S
C321 C320 1.391 . S
C321 C322 1.392 . S
C321 H350 0.947 . S
C322 C321 1.392 . S
C322 C323 1.419 . S
C322 H351 0.948 . S
C323 C322 1.419 . S
C323 C324 1.391 . S
C323 C327 1.397 . S
C324 C319 1.391 . S
C324 C323 1.391 . S
C324 C325 1.399 . S
C325 C324 1.399 . S
C325 C326 1.396 . S
C325 C328 1.453 . S
C325 C329 1.684 . S
C326 C307 1.723 . S
C326 C325 1.396 . S
C326 C327 1.394 . S
C327 C323 1.397 . S
C327 C326 1.394 . S
C327 C337 1.723 . S
C328 C325 1.453 . S
C328 H352 0.982 . S
C328 H353 0.979 . S
C328 H354 0.977 . S
C329 C325 1.684 . S
C329 H355 0.979 . S
C329 H356 0.980 . S
C329 H357 0.983 . S
C330 H306 0.948 . S
C330 C331 1.391 . S
C330 C335 1.391 . S
C331 C330 1.391 . S
C331 C332 1.391 . S
C332 H309 0.947 . S
C332 C331 1.391 . S
C332 C333 1.392 . S
C333 H310 0.948 . S
C333 C332 1.392 . S
C333 C334 1.419 . S
C334 C333 1.419 . S
C334 C335 1.391 . S
C334 C338 1.397 . S
C335 C330 1.391 . S
C335 C334 1.391 . S
C335 C336 1.399 . S
C336 C335 1.399 . S
C336 C337 1.396 . S
C336 C339 1.453 . S
C336 C340 1.684 . S
C337 C327 1.723 . S
C337 C336 1.396 . S
C337 C338 1.394 . S
C338 C308 1.723 . S
C338 C334 1.397 . S
C338 C337 1.394 . S
C339 H311 0.982 . S
C339 H315 0.979 . S
C339 H316 0.977 . S
C339 C336 1.453 . S
C340 H312 0.979 . S
C340 H313 0.980 . S
C340 H314 0.983 . S
C340 C336 1.684 . S
H341 C359 0.948 . S
H342 C300 0.948 . S
H343 C318 0.979 . S
H344 C318 0.980 . S
H345 C318 0.983 . S
H346 C317 0.982 . S
H347 C317 0.979 . S
H348 C317 0.977 . S
H349 C319 0.948 . S
H350 C321 0.947 . S
H351 C322 0.948 . S
H352 C328 0.982 . S
H353 C328 0.979 . S
H354 C328 0.977 . S
H355 C329 0.979 . S
H356 C329 0.980 . S
H357 C329 0.983 . S
H358 C302 0.947 . S
C359 C302 1.392 . S
C359 C303 1.419 . S
C359 H341 0.948 . S
C360 C361 1.391 . S
C360 C364 1.391 . S
C360 H402 0.948 . S
C361 C360 1.391 . S
C361 C362 1.391 . S
C362 C361 1.391 . S
C362 H418 0.947 . S
C362 C419 1.392 . S
C363 C364 1.391 . S
C363 C367 1.397 . S
C363 C419 1.419 . S
C364 C360 1.391 . S
C364 C363 1.391 . S
C364 C365 1.399 . S
C365 C364 1.399 . S
C365 C368 1.396 . S
C365 C377 1.453 . S
C365 C378 1.684 . S
H366 C390 0.948 . S
C367 C363 1.397 . S
C367 C368 1.394 . S
C367 C386 1.723 . S
C368 C365 1.396 . S
C368 C367 1.394 . S
C368 C398 1.723 . S
H369 C392 0.947 . S
H370 C393 0.948 . S
H371 C399 0.982 . S
H372 C400 0.979 . S
H373 C400 0.980 . S
H374 C400 0.983 . S
H375 C399 0.979 . S
H376 C399 0.977 . S
C377 C365 1.453 . S
C377 H406 0.982 . S
C377 H407 0.979 . S
C377 H408 0.977 . S
C378 C365 1.684 . S
C378 H403 0.979 . S
C378 H404 0.980 . S
C378 H405 0.983 . S
C379 C380 1.391 . S
C379 C384 1.391 . S
C379 H409 0.948 . S
C380 C379 1.391 . S
C380 C381 1.391 . S
C381 C380 1.391 . S
C381 C382 1.392 . S
C381 H410 0.947 . S
C382 C381 1.392 . S
C382 C383 1.419 . S
C382 H411 0.948 . S
C383 C382 1.419 . S
C383 C384 1.391 . S
C383 C387 1.397 . S
C384 C379 1.391 . S
C384 C383 1.391 . S
C384 C385 1.399 . S
C385 C384 1.399 . S
C385 C386 1.396 . S
C385 C388 1.453 . S
C385 C389 1.684 . S
C386 C367 1.723 . S
C386 C385 1.396 . S
C386 C387 1.394 . S
C387 C383 1.397 . S
C387 C386 1.394 . S
C387 C397 1.723 . S
C388 C385 1.453 . S
C388 H412 0.982 . S
C388 H413 0.979 . S
C388 H414 0.977 . S
C389 C385 1.684 . S
C389 H415 0.979 . S
C389 H416 0.980 . S
C389 H417 0.983 . S
C390 H366 0.948 . S
C390 C391 1.391 . S
C390 C395 1.391 . S
C391 C390 1.391 . S
C391 C392 1.391 . S
C392 H369 0.947 . S
C392 C391 1.391 . S
C392 C393 1.392 . S
C393 H370 0.948 . S
C393 C392 1.392 . S
C393 C394 1.419 . S
C394 C393 1.419 . S
C394 C395 1.391 . S
C394 C398 1.397 . S
C395 C390 1.391 . S
C395 C394 1.391 . S
C395 C396 1.399 . S
C396 C395 1.399 . S
C396 C397 1.396 . S
C396 C399 1.453 . S
C396 C400 1.684 . S
C397 C387 1.723 . S
C397 C396 1.396 . S
C397 C398 1.394 . S
C398 C368 1.723 . S
C398 C394 1.397 . S
C398 C397 1.394 . S
C399 H371 0.982 . S
C399 H375 0.979 . S
C399 H376 0.977 . S
C399 C396 1.453 . S
C400 H372 0.979 . S
C400 H373 0.980 . S
C400 H374 0.983 . S
C400 C396 1.684 . S
H401 C419 0.948 . S
H402 C360 0.948 . S
H403 C378 0.979 . S
H404 C378 0.980 . S
H405 C378 0.983 . S
H406 C377 0.982 . S
H407 C377 0.979 . S
H408 C377 0.977 . S
H409 C379 0.948 . S
H410 C381 0.947 . S
H411 C382 0.948 . S
H412 C388 0.982 . S
H413 C388 0.979 . S
H414 C388 0.977 . S
H415 C389 0.979 . S
H416 C389 0.980 . S
H417 C389 0.983 . S
H418 C362 0.947 . S
C419 C362 1.392 . S
C419 C363 1.419 . S
C419 H401 0.948 . S
C420 C421 1.391 . S
C420 C424 1.391 . S
C420 H462 0.948 . S
C421 C420 1.391 . S
C421 C422 1.391 . S
C422 C421 1.391 . S
C422 H478 0.947 . S
C422 C479 1.392 . S
C423 C424 1.391 . S
C423 C427 1.397 . S
C423 C479 1.419 . S
C424 C420 1.391 . S
C424 C423 1.391 . S
C424 C425 1.399 . S
C425 C424 1.399 . S
C425 C428 1.396 . S
C425 C437 1.453 . S
C425 C438 1.684 . S
H426 C450 0.948 . S
C427 C423 1.397 . S
C427 C428 1.394 . S
C427 C446 1.723 . S
C428 C425 1.396 . S
C428 C427 1.394 . S
C428 C458 1.723 . S
H429 C452 0.947 . S
H430 C453 0.948 . S
H431 C459 0.982 . S
H432 C460 0.979 . S
H433 C460 0.980 . S
H434 C460 0.983 . S
H435 C459 0.979 . S
H436 C459 0.977 . S
C437 C425 1.453 . S
C437 H466 0.982 . S
C437 H467 0.979 . S
C437 H468 0.977 . S
C438 C425 1.684 . S
C438 H463 0.979 . S
C438 H464 0.980 . S
C438 H465 0.983 . S
C439 C440 1.391 . S
C439 C444 1.391 . S
C439 H469 0.948 . S
C440 C439 1.391 . S
C440 C441 1.391 . S
C441 C440 1.391 . S
C441 C442 1.392 . S
C441 H470 0.947 . S
C442 C441 1.392 . S
C442 C443 1.419 . S
C442 H471 0.948 . S
C443 C442 1.419 . S
C443 C444 1.391 . S
C443 C447 1.397 . S
C444 C439 1.391 . S
C444 C443 1.391 . S
C444 C445 1.399 . S
C445 C444 1.399 . S
C445 C446 1.396 . S
C445 C448 1.453 . S
C445 C449 1.684 . S
C446 C427 1.723 . S
C446 C445 1.396 . S
C446 C447 1.394 . S
C447 C443 1.397 . S
C447 C446 1.394 . S
C447 C457 1.723 . S
C448 C445 1.453 . S
C448 H472 0.982 . S
C448 H473 0.979 . S
C448 H474 0.977 . S
C449 C445 1.684 . S
C449 H475 0.979 . S
C449 H476 0.980 . S
C449 H477 0.983 . S
C450 H426 0.948 . S
C450 C451 1.391 . S
C450 C455 1.391 . S
C451 C450 1.391 . S
C451 C452 1.391 . S
C452 H429 0.947 . S
C452 C451 1.391 . S
C452 C453 1.392 . S
C453 H430 0.948 . S
C453 C452 1.392 . S
C453 C454 1.419 . S
C454 C453 1.419 . S
C454 C455 1.391 . S
C454 C458 1.397 . S
C455 C450 1.391 . S
C455 C454 1.391 . S
C455 C456 1.399 . S
C456 C455 1.399 . S
C456 C457 1.396 . S
C456 C459 1.453 . S
C456 C460 1.684 . S
C457 C447 1.723 . S
C457 C456 1.396 . S
C457 C458 1.394 . S
C458 C428 1.723 . S
C458 C454 1.397 . S
C458 C457 1.394 . S
C459 H431 0.982 . S
C459 H435 0.979 . S
C459 H436 0.977 . S
C459 C456 1.453 . S
C460 H432 0.979 . S
C460 H433 0.980 . S
C460 H434 0.983 . S
C460 C456 1.684 . S
H461 C479 0.948 . S
H462 C420 0.948 . S
H463 C438 0.979 . S
H464 C438 0.980 . S
H465 C438 0.983 . S
H466 C437 0.982 . S
H467 C437 0.979 . S
H468 C437 0.977 . S
H469 C439 0.948 . S
H470 C441 0.947 . S
H471 C442 0.948 . S
H472 C448 0.982 . S
H473 C448 0.979 . S
H474 C448 0.977 . S
H475 C449 0.979 . S
H476 C449 0.980 . S
H477 C449 0.983 . S
H478 C422 0.947 . S
C479 C422 1.392 . S
C479 C423 1.419 . S
C479 H461 0.948 . S
Co480 O483 2.042 . S
Co480 O490 2.264 . S
Co480 O509 2.286 . S
Co480 O510 2.069 . S
Co480 O512 2.015 . S
Co481 O483 2.122 . S
Co481 O489 2.073 . S
Co481 O490 2.327 . S
Co481 O491 1.976 . S
Co482 O483 2.118 . S
Co482 O485 2.057 1_455 S
Co482 O492 2.127 . S
Co482 O493 2.122 1_455 S
Co482 O497 2.096 1_455 S
Co482 O511 2.165 . S
O483 Co480 2.042 . S
O483 Co481 2.122 . S
O483 Co482 2.118 . S
O483 H484 0.980 . S
H484 O483 0.980 . S
O485 Co482 2.057 1_655 S
O485 Co486 2.042 . S
O485 Co487 2.122 . S
O485 H488 0.980 . S
Co486 O485 2.042 . S
Co486 O494 2.286 . S
Co486 O495 2.069 . S
Co486 O496 2.015 . S
Co486 O499 2.264 . S
Co487 O485 2.122 . S
Co487 O498 1.976 . S
Co487 O499 2.327 . S
Co487 O500 2.073 . S
H488 O485 0.980 . S
O489 Co481 2.073 . S
O489 C504 1.245 . S
O490 Co480 2.264 . S
O490 Co481 2.327 . S
O490 C504 1.257 . S
O491 Co481 1.976 . S
O491 C503 1.251 . S
O492 Co482 2.127 . S
O492 C503 1.274 . S
O493 Co482 2.122 1_655 S
O493 C506 1.246 . S
O494 Co486 2.286 . S
O494 C505 1.259 . S
O495 Co486 2.069 . S
O495 C505 1.289 . S
O496 Co486 2.015 . S
O496 C506 1.257 . S
O497 Co482 2.096 1_655 S
O497 C507 1.274 . S
O498 Co487 1.976 . S
O498 C507 1.251 . S
O499 Co486 2.264 . S
O499 Co487 2.327 . S
O499 C508 1.257 . S
O500 Co487 2.073 . S
O500 C508 1.245 . S
C501 O509 1.259 . S
C501 O510 1.289 . S
C502 O511 1.246 . S
C502 O512 1.257 . S
C503 O491 1.251 . S
C503 O492 1.274 . S
C504 O489 1.245 . S
C504 O490 1.257 . S
C505 O494 1.259 . S
C505 O495 1.289 . S
C506 O493 1.246 . S
C506 O496 1.257 . S
C507 O497 1.274 . S
C507 O498 1.251 . S
C508 O499 1.257 . S
C508 O500 1.245 . S
O509 Co480 2.286 . S
O509 C501 1.259 . S
O510 Co480 2.069 . S
O510 C501 1.289 . S
O511 Co482 2.165 . S
O511 C502 1.246 . S
O512 Co480 2.015 . S
O512 C502 1.257 . S
Co513 O516 2.042 . S
Co513 O523 2.264 . S
Co513 O542 2.286 . S
Co513 O543 2.069 . S
Co513 O545 2.015 . S
Co514 O516 2.122 . S
Co514 O522 2.073 . S
Co514 O523 2.327 . S
Co514 O524 1.976 . S
Co515 O516 2.064 1_545 S
Co515 O518 2.110 . S
Co515 O525 2.101 1_545 S
Co515 O526 2.161 . S
Co515 O530 2.122 . S
Co515 O544 2.126 1_545 S
O516 Co513 2.042 . S
O516 Co514 2.122 . S
O516 Co515 2.064 1_565 S
O516 H517 0.980 . S
H517 O516 0.980 . S
O518 Co515 2.110 . S
O518 Co519 2.042 . S
O518 Co520 2.122 . S
O518 H521 0.980 . S
Co519 O518 2.042 . S
Co519 O527 2.286 . S
Co519 O528 2.069 . S
Co519 O529 2.015 . S
Co519 O532 2.264 . S
Co520 O518 2.122 . S
Co520 O531 1.976 . S
Co520 O532 2.327 . S
Co520 O533 2.073 . S
H521 O518 0.980 . S
O522 Co514 2.073 . S
O522 C537 1.245 . S
O523 Co513 2.264 . S
O523 Co514 2.327 . S
O523 C537 1.257 . S
O524 Co514 1.976 . S
O524 C536 1.251 . S
O525 Co515 2.101 1_565 S
O525 C536 1.274 . S
O526 Co515 2.161 . S
O526 C539 1.246 . S
O527 Co519 2.286 . S
O527 C538 1.259 . S
O528 Co519 2.069 . S
O528 C538 1.289 . S
O529 Co519 2.015 . S
O529 C539 1.257 . S
O530 Co515 2.122 . S
O530 C540 1.274 . S
O531 Co520 1.976 . S
O531 C540 1.251 . S
O532 Co519 2.264 . S
O532 Co520 2.327 . S
O532 C541 1.257 . S
O533 Co520 2.073 . S
O533 C541 1.245 . S
C534 O542 1.259 . S
C534 O543 1.289 . S
C535 O544 1.246 . S
C535 O545 1.257 . S
C536 O524 1.251 . S
C536 O525 1.274 . S
C537 O522 1.245 . S
C537 O523 1.257 . S
C538 O527 1.259 . S
C538 O528 1.289 . S
C539 O526 1.246 . S
C539 O529 1.257 . S
C540 O530 1.274 . S
C540 O531 1.251 . S
C541 O532 1.257 . S
C541 O533 1.245 . S
O542 Co513 2.286 . S
O542 C534 1.259 . S
O543 Co513 2.069 . S
O543 C534 1.289 . S
O544 Co515 2.126 1_565 S
O544 C535 1.246 . S
O545 Co513 2.015 . S
O545 C535 1.257 . S
Co546 O549 2.042 . S
Co546 O556 2.264 . S
Co546 O575 2.286 . S
Co546 O576 2.069 . S
Co546 O578 2.015 . S
Co547 O549 2.122 . S
Co547 O555 2.073 . S
Co547 O556 2.327 . S
Co547 O557 1.976 . S
Co548 O549 2.099 . S
Co548 O551 2.074 1_554 S
Co548 O558 2.117 . S
Co548 O559 2.134 1_554 S
Co548 O563 2.106 1_554 S
Co548 O577 2.153 . S
O549 Co546 2.042 . S
O549 Co547 2.122 . S
O549 Co548 2.099 . S
O549 H550 0.980 . S
H550 O549 0.980 . S
O551 Co548 2.074 1_556 S
O551 Co552 2.042 . S
O551 Co553 2.122 . S
O551 H554 0.980 . S
Co552 O551 2.042 . S
Co552 O560 2.286 . S
Co552 O561 2.069 . S
Co552 O562 2.015 . S
Co552 O565 2.264 . S
Co553 O551 2.122 . S
Co553 O564 1.976 . S
Co553 O565 2.327 . S
Co553 O566 2.073 . S
H554 O551 0.980 . S
O555 Co547 2.073 . S
O555 C570 1.245 . S
O556 Co546 2.264 . S
O556 Co547 2.327 . S
O556 C570 1.257 . S
O557 Co547 1.976 . S
O557 C569 1.251 . S
O558 Co548 2.117 . S
O558 C569 1.274 . S
O559 Co548 2.134 1_556 S
O559 C572 1.246 . S
O560 Co552 2.286 . S
O560 C571 1.259 . S
O561 Co552 2.069 . S
O561 C571 1.289 . S
O562 Co552 2.015 . S
O562 C572 1.257 . S
O563 Co548 2.106 1_556 S
O563 C573 1.274 . S
O564 Co553 1.976 . S
O564 C573 1.251 . S
O565 Co552 2.264 . S
O565 Co553 2.327 . S
O565 C574 1.257 . S
O566 Co553 2.073 . S
O566 C574 1.245 . S
C567 O575 1.259 . S
C567 O576 1.289 . S
C568 O577 1.246 . S
C568 O578 1.257 . S
C569 O557 1.251 . S
C569 O558 1.274 . S
C570 O555 1.245 . S
C570 O556 1.257 . S
C571 O560 1.259 . S
C571 O561 1.289 . S
C572 O559 1.246 . S
C572 O562 1.257 . S
C573 O563 1.274 . S
C573 O564 1.251 . S
C574 O565 1.257 . S
C574 O566 1.245 . S
O575 Co546 2.286 . S
O575 C567 1.259 . S
O576 Co546 2.069 . S
O576 C567 1.289 . S
O577 Co548 2.153 . S
O577 C568 1.246 . S
O578 Co546 2.015 . S
O578 C568 1.257 . S
C579 C580 1.349 . S
C579 C581 1.327 . S
C579 H604 0.950 . S
C580 C579 1.349 . S
C580 C596 1.349 . S
C581 C579 1.327 . S
C581 C600 1.429 . S
C581 H605 0.950 . S
C582 C599 1.574 . S
C582 C601 1.368 . S
C582 H606 0.949 . S
H583 C587 0.949 . S
C584 C585 1.349 . S
C584 C586 1.327 . S
C584 H607 0.950 . S
C585 C584 1.349 . S
C585 C597 1.349 . S
C586 C584 1.327 . S
C586 C602 1.429 . S
C586 H608 0.950 . S
C587 H583 0.949 . S
C587 C595 1.574 . S
C587 C603 1.368 . S
H588 C596 0.950 . S
H589 C594 0.950 . S
H590 C595 0.949 . S
H591 C597 0.950 . S
H592 C598 0.950 . S
H593 C599 0.949 . S
C594 H589 0.950 . S
C594 C596 1.327 . S
C594 C600 1.429 . S
C595 C587 1.574 . S
C595 H590 0.949 . S
C595 C601 1.368 . S
C596 C580 1.349 . S
C596 H588 0.950 . S
C596 C594 1.327 . S
C597 C585 1.349 . S
C597 H591 0.950 . S
C597 C598 1.327 . S
C598 H592 0.950 . S
C598 C597 1.327 . S
C598 C602 1.429 . S
C599 C582 1.574 . S
C599 H593 0.949 . S
C599 C603 1.368 . S
C600 C581 1.429 . S
C600 C594 1.429 . S
C600 C601 1.523 . S
C601 C582 1.368 . S
C601 C595 1.368 . S
C601 C600 1.523 . S
C602 C586 1.429 . S
C602 C598 1.429 . S
C602 C603 1.523 . S
C603 C587 1.368 . S
C603 C599 1.368 . S
C603 C602 1.523 . S
H604 C579 0.950 . S
H605 C581 0.950 . S
H606 C582 0.949 . S
H607 C584 0.950 . S
H608 C586 0.950 . S
C609 C610 1.349 . S
C609 C611 1.327 . S
C609 H634 0.950 . S
C610 C609 1.349 . S
C610 C626 1.349 . S
C611 C609 1.327 . S
C611 C630 1.429 . S
C611 H635 0.950 . S
C612 C629 1.574 . S
C612 C631 1.368 . S
C612 H636 0.949 . S
H613 C617 0.949 . S
C614 C615 1.349 . S
C614 C616 1.327 . S
C614 H637 0.950 . S
C615 C614 1.349 . S
C615 C627 1.349 . S
C616 C614 1.327 . S
C616 C632 1.429 . S
C616 H638 0.950 . S
C617 H613 0.949 . S
C617 C625 1.574 . S
C617 C633 1.368 . S
H618 C626 0.950 . S
H619 C624 0.950 . S
H620 C625 0.949 . S
H621 C627 0.950 . S
H622 C628 0.950 . S
H623 C629 0.949 . S
C624 H619 0.950 . S
C624 C626 1.327 . S
C624 C630 1.429 . S
C625 C617 1.574 . S
C625 H620 0.949 . S
C625 C631 1.368 . S
C626 C610 1.349 . S
C626 H618 0.950 . S
C626 C624 1.327 . S
C627 C615 1.349 . S
C627 H621 0.950 . S
C627 C628 1.327 . S
C628 H622 0.950 . S
C628 C627 1.327 . S
C628 C632 1.429 . S
C629 C612 1.574 . S
C629 H623 0.949 . S
C629 C633 1.368 . S
C630 C611 1.429 . S
C630 C624 1.429 . S
C630 C631 1.523 . S
C631 C612 1.368 . S
C631 C625 1.368 . S
C631 C630 1.523 . S
C632 C616 1.429 . S
C632 C628 1.429 . S
C632 C633 1.523 . S
C633 C617 1.368 . S
C633 C629 1.368 . S
C633 C632 1.523 . S
H634 C609 0.950 . S
H635 C611 0.950 . S
H636 C612 0.949 . S
H637 C614 0.950 . S
H638 C616 0.950 . S
C639 C640 1.349 . S
C639 C641 1.327 . S
C639 H664 0.950 . S
C640 C639 1.349 . S
C640 C656 1.349 . S
C641 C639 1.327 . S
C641 C660 1.429 . S
C641 H665 0.950 . S
C642 C659 1.574 . S
C642 C661 1.368 . S
C642 H666 0.949 . S
H643 C647 0.949 . S
C644 C645 1.349 . S
C644 C646 1.327 . S
C644 H667 0.950 . S
C645 C644 1.349 . S
C645 C657 1.349 . S
C646 C644 1.327 . S
C646 C662 1.429 . S
C646 H668 0.950 . S
C647 H643 0.949 . S
C647 C655 1.574 . S
C647 C663 1.368 . S
H648 C656 0.950 . S
H649 C654 0.950 . S
H650 C655 0.949 . S
H651 C657 0.950 . S
H652 C658 0.950 . S
H653 C659 0.949 . S
C654 H649 0.950 . S
C654 C656 1.327 . S
C654 C660 1.429 . S
C655 C647 1.574 . S
C655 H650 0.949 . S
C655 C661 1.368 . S
C656 C640 1.349 . S
C656 H648 0.950 . S
C656 C654 1.327 . S
C657 C645 1.349 . S
C657 H651 0.950 . S
C657 C658 1.327 . S
C658 H652 0.950 . S
C658 C657 1.327 . S
C658 C662 1.429 . S
C659 C642 1.574 . S
C659 H653 0.949 . S
C659 C663 1.368 . S
C660 C641 1.429 . S
C660 C654 1.429 . S
C660 C661 1.523 . S
C661 C642 1.368 . S
C661 C655 1.368 . S
C661 C660 1.523 . S
C662 C646 1.429 . S
C662 C658 1.429 . S
C662 C663 1.523 . S
C663 C647 1.368 . S
C663 C659 1.368 . S
C663 C662 1.523 . S
H664 C639 0.950 . S
H665 C641 0.950 . S
H666 C642 0.949 . S
H667 C644 0.950 . S
H668 C646 0.950 . S
C669 C670 1.349 . S
C669 C671 1.327 . S
C669 H694 0.950 . S
C670 C669 1.349 . S
C670 C686 1.349 . S
C671 C669 1.327 . S
C671 C690 1.429 . S
C671 H695 0.950 . S
C672 C689 1.574 . S
C672 C691 1.368 . S
C672 H696 0.949 . S
H673 C677 0.949 . S
C674 C675 1.349 . S
C674 C676 1.327 . S
C674 H697 0.950 . S
C675 C674 1.349 . S
C675 C687 1.349 . S
C676 C674 1.327 . S
C676 C692 1.429 . S
C676 H698 0.950 . S
C677 H673 0.949 . S
C677 C685 1.574 . S
C677 C693 1.368 . S
H678 C686 0.950 . S
H679 C684 0.950 . S
H680 C685 0.949 . S
H681 C687 0.950 . S
H682 C688 0.950 . S
H683 C689 0.949 . S
C684 H679 0.950 . S
C684 C686 1.327 . S
C684 C690 1.429 . S
C685 C677 1.574 . S
C685 H680 0.949 . S
C685 C691 1.368 . S
C686 C670 1.349 . S
C686 H678 0.950 . S
C686 C684 1.327 . S
C687 C675 1.349 . S
C687 H681 0.950 . S
C687 C688 1.327 . S
C688 H682 0.950 . S
C688 C687 1.327 . S
C688 C692 1.429 . S
C689 C672 1.574 . S
C689 H683 0.949 . S
C689 C693 1.368 . S
C690 C671 1.429 . S
C690 C684 1.429 . S
C690 C691 1.523 . S
C691 C672 1.368 . S
C691 C685 1.368 . S
C691 C690 1.523 . S
C692 C676 1.429 . S
C692 C688 1.429 . S
C692 C693 1.523 . S
C693 C677 1.368 . S
C693 C689 1.368 . S
C693 C692 1.523 . S
H694 C669 0.950 . S
H695 C671 0.950 . S
H696 C672 0.949 . S
H697 C674 0.950 . S
H698 C676 0.950 . S
C699 C700 1.349 . S
C699 C701 1.327 . S
C699 H724 0.950 . S
C700 C699 1.349 . S
C700 C716 1.349 . S
C701 C699 1.327 . S
C701 C720 1.429 . S
C701 H725 0.950 . S
C702 C719 1.574 . S
C702 C721 1.368 . S
C702 H726 0.949 . S
H703 C707 0.949 . S
C704 C705 1.349 . S
C704 C706 1.327 . S
C704 H727 0.950 . S
C705 C704 1.349 . S
C705 C717 1.349 . S
C706 C704 1.327 . S
C706 C722 1.429 . S
C706 H728 0.950 . S
C707 H703 0.949 . S
C707 C715 1.574 . S
C707 C723 1.368 . S
H708 C716 0.950 . S
H709 C714 0.950 . S
H710 C715 0.949 . S
H711 C717 0.950 . S
H712 C718 0.950 . S
H713 C719 0.949 . S
C714 H709 0.950 . S
C714 C716 1.327 . S
C714 C720 1.429 . S
C715 C707 1.574 . S
C715 H710 0.949 . S
C715 C721 1.368 . S
C716 C700 1.349 . S
C716 H708 0.950 . S
C716 C714 1.327 . S
C717 C705 1.349 . S
C717 H711 0.950 . S
C717 C718 1.327 . S
C718 H712 0.950 . S
C718 C717 1.327 . S
C718 C722 1.429 . S
C719 C702 1.574 . S
C719 H713 0.949 . S
C719 C723 1.368 . S
C720 C701 1.429 . S
C720 C714 1.429 . S
C720 C721 1.523 . S
C721 C702 1.368 . S
C721 C715 1.368 . S
C721 C720 1.523 . S
C722 C706 1.429 . S
C722 C718 1.429 . S
C722 C723 1.523 . S
C723 C707 1.368 . S
C723 C719 1.368 . S
C723 C722 1.523 . S
H724 C699 0.950 . S
H725 C701 0.950 . S
H726 C702 0.949 . S
H727 C704 0.950 . S
H728 C706 0.950 . S
C729 C730 1.349 . S
C729 C731 1.327 . S
C729 H754 0.950 . S
C730 C729 1.349 . S
C730 C746 1.349 . S
C731 C729 1.327 . S
C731 C750 1.429 . S
C731 H755 0.950 . S
C732 C749 1.574 . S
C732 C751 1.368 . S
C732 H756 0.949 . S
H733 C737 0.949 . S
C734 C735 1.349 . S
C734 C736 1.327 . S
C734 H757 0.950 . S
C735 C734 1.349 . S
C735 C747 1.349 . S
C736 C734 1.327 . S
C736 C752 1.429 . S
C736 H758 0.950 . S
C737 H733 0.949 . S
C737 C745 1.574 . S
C737 C753 1.368 . S
H738 C746 0.950 . S
H739 C744 0.950 . S
H740 C745 0.949 . S
H741 C747 0.950 . S
H742 C748 0.950 . S
H743 C749 0.949 . S
C744 H739 0.950 . S
C744 C746 1.327 . S
C744 C750 1.429 . S
C745 C737 1.574 . S
C745 H740 0.949 . S
C745 C751 1.368 . S
C746 C730 1.349 . S
C746 H738 0.950 . S
C746 C744 1.327 . S
C747 C735 1.349 . S
C747 H741 0.950 . S
C747 C748 1.327 . S
C748 H742 0.950 . S
C748 C747 1.327 . S
C748 C752 1.429 . S
C749 C732 1.574 . S
C749 H743 0.949 . S
C749 C753 1.368 . S
C750 C731 1.429 . S
C750 C744 1.429 . S
C750 C751 1.523 . S
C751 C732 1.368 . S
C751 C745 1.368 . S
C751 C750 1.523 . S
C752 C736 1.429 . S
C752 C748 1.429 . S
C752 C753 1.523 . S
C753 C737 1.368 . S
C753 C749 1.368 . S
C753 C752 1.523 . S
H754 C729 0.950 . S
H755 C731 0.950 . S
H756 C732 0.949 . S
H757 C734 0.950 . S
H758 C736 0.950 . S
C759 C760 1.349 . S
C759 C761 1.327 . S
C759 H784 0.950 . S
C760 C759 1.349 . S
C760 C776 1.349 . S
C761 C759 1.327 . S
C761 C780 1.429 . S
C761 H785 0.950 . S
C762 C779 1.574 . S
C762 C781 1.368 . S
C762 H786 0.949 . S
H763 C767 0.949 . S
C764 C765 1.349 . S
C764 C766 1.327 . S
C764 H787 0.950 . S
C765 C764 1.349 . S
C765 C777 1.349 . S
C766 C764 1.327 . S
C766 C782 1.429 . S
C766 H788 0.950 . S
C767 H763 0.949 . S
C767 C775 1.574 . S
C767 C783 1.368 . S
H768 C776 0.950 . S
H769 C774 0.950 . S
H770 C775 0.949 . S
H771 C777 0.950 . S
H772 C778 0.950 . S
H773 C779 0.949 . S
C774 H769 0.950 . S
C774 C776 1.327 . S
C774 C780 1.429 . S
C775 C767 1.574 . S
C775 H770 0.949 . S
C775 C781 1.368 . S
C776 C760 1.349 . S
C776 H768 0.950 . S
C776 C774 1.327 . S
C777 C765 1.349 . S
C777 H771 0.950 . S
C777 C778 1.327 . S
C778 H772 0.950 . S
C778 C777 1.327 . S
C778 C782 1.429 . S
C779 C762 1.574 . S
C779 H773 0.949 . S
C779 C783 1.368 . S
C780 C761 1.429 . S
C780 C774 1.429 . S
C780 C781 1.523 . S
C781 C762 1.368 . S
C781 C775 1.368 . S
C781 C780 1.523 . S
C782 C766 1.429 . S
C782 C778 1.429 . S
C782 C783 1.523 . S
C783 C767 1.368 . S
C783 C779 1.368 . S
C783 C782 1.523 . S
H784 C759 0.950 . S
H785 C761 0.950 . S
H786 C762 0.949 . S
H787 C764 0.950 . S
H788 C766 0.950 . S
C789 C790 1.349 . S
C789 C791 1.327 . S
C789 H814 0.950 . S
C790 C789 1.349 . S
C790 C806 1.349 . S
C791 C789 1.327 . S
C791 C810 1.429 . S
C791 H815 0.950 . S
C792 C809 1.574 . S
C792 C811 1.368 . S
C792 H816 0.949 . S
H793 C797 0.949 . S
C794 C795 1.349 . S
C794 C796 1.327 . S
C794 H817 0.950 . S
C795 C794 1.349 . S
C795 C807 1.349 . S
C796 C794 1.327 . S
C796 C812 1.429 . S
C796 H818 0.950 . S
C797 H793 0.949 . S
C797 C805 1.574 . S
C797 C813 1.368 . S
H798 C806 0.950 . S
H799 C804 0.950 . S
H800 C805 0.949 . S
H801 C807 0.950 . S
H802 C808 0.950 . S
H803 C809 0.949 . S
C804 H799 0.950 . S
C804 C806 1.327 . S
C804 C810 1.429 . S
C805 C797 1.574 . S
C805 H800 0.949 . S
C805 C811 1.368 . S
C806 C790 1.349 . S
C806 H798 0.950 . S
C806 C804 1.327 . S
C807 C795 1.349 . S
C807 H801 0.950 . S
C807 C808 1.327 . S
C808 H802 0.950 . S
C808 C807 1.327 . S
C808 C812 1.429 . S
C809 C792 1.574 . S
C809 H803 0.949 . S
C809 C813 1.368 . S
C810 C791 1.429 . S
C810 C804 1.429 . S
C810 C811 1.523 . S
C811 C792 1.368 . S
C811 C805 1.368 . S
C811 C810 1.523 . S
C812 C796 1.429 . S
C812 C808 1.429 . S
C812 C813 1.523 . S
C813 C797 1.368 . S
C813 C809 1.368 . S
C813 C812 1.523 . S
H814 C789 0.950 . S
H815 C791 0.950 . S
H816 C792 0.949 . S
H817 C794 0.950 . S
H818 C796 0.950 . S
C819 C820 1.349 . S
C819 C821 1.327 . S
C819 H844 0.950 . S
C820 C819 1.349 . S
C820 C836 1.349 . S
C821 C819 1.327 . S
C821 C840 1.429 . S
C821 H845 0.950 . S
C822 C839 1.574 . S
C822 C841 1.368 . S
C822 H846 0.949 . S
H823 C827 0.949 . S
C824 C825 1.349 . S
C824 C826 1.327 . S
C824 H847 0.950 . S
C825 C824 1.349 . S
C825 C837 1.349 . S
C826 C824 1.327 . S
C826 C842 1.429 . S
C826 H848 0.950 . S
C827 H823 0.949 . S
C827 C835 1.574 . S
C827 C843 1.368 . S
H828 C836 0.950 . S
H829 C834 0.950 . S
H830 C835 0.949 . S
H831 C837 0.950 . S
H832 C838 0.950 . S
H833 C839 0.949 . S
C834 H829 0.950 . S
C834 C836 1.327 . S
C834 C840 1.429 . S
C835 C827 1.574 . S
C835 H830 0.949 . S
C835 C841 1.368 . S
C836 C820 1.349 . S
C836 H828 0.950 . S
C836 C834 1.327 . S
C837 C825 1.349 . S
C837 H831 0.950 . S
C837 C838 1.327 . S
C838 H832 0.950 . S
C838 C837 1.327 . S
C838 C842 1.429 . S
C839 C822 1.574 . S
C839 H833 0.949 . S
C839 C843 1.368 . S
C840 C821 1.429 . S
C840 C834 1.429 . S
C840 C841 1.523 . S
C841 C822 1.368 . S
C841 C835 1.368 . S
C841 C840 1.523 . S
C842 C826 1.429 . S
C842 C838 1.429 . S
C842 C843 1.523 . S
C843 C827 1.368 . S
C843 C839 1.368 . S
C843 C842 1.523 . S
H844 C819 0.950 . S
H845 C821 0.950 . S
H846 C822 0.949 . S
H847 C824 0.950 . S
H848 C826 0.950 . S
C849 C850 1.349 . S
C849 C851 1.327 . S
C849 H874 0.950 . S
C850 C849 1.349 . S
C850 C866 1.349 . S
C851 C849 1.327 . S
C851 C870 1.429 . S
C851 H875 0.950 . S
C852 C869 1.574 . S
C852 C871 1.368 . S
C852 H876 0.949 . S
H853 C857 0.949 . S
C854 C855 1.349 . S
C854 C856 1.327 . S
C854 H877 0.950 . S
C855 C854 1.349 . S
C855 C867 1.349 . S
C856 C854 1.327 . S
C856 C872 1.429 . S
C856 H878 0.950 . S
C857 H853 0.949 . S
C857 C865 1.574 . S
C857 C873 1.368 . S
H858 C866 0.950 . S
H859 C864 0.950 . S
H860 C865 0.949 . S
H861 C867 0.950 . S
H862 C868 0.950 . S
H863 C869 0.949 . S
C864 H859 0.950 . S
C864 C866 1.327 . S
C864 C870 1.429 . S
C865 C857 1.574 . S
C865 H860 0.949 . S
C865 C871 1.368 . S
C866 C850 1.349 . S
C866 H858 0.950 . S
C866 C864 1.327 . S
C867 C855 1.349 . S
C867 H861 0.950 . S
C867 C868 1.327 . S
C868 H862 0.950 . S
C868 C867 1.327 . S
C868 C872 1.429 . S
C869 C852 1.574 . S
C869 H863 0.949 . S
C869 C873 1.368 . S
C870 C851 1.429 . S
C870 C864 1.429 . S
C870 C871 1.523 . S
C871 C852 1.368 . S
C871 C865 1.368 . S
C871 C870 1.523 . S
C872 C856 1.429 . S
C872 C868 1.429 . S
C872 C873 1.523 . S
C873 C857 1.368 . S
C873 C869 1.368 . S
C873 C872 1.523 . S
H874 C849 0.950 . S
H875 C851 0.950 . S
H876 C852 0.949 . S
H877 C854 0.950 . S
H878 C856 0.950 . S
C879 C880 1.349 . S
C879 C881 1.327 . S
C879 H904 0.950 . S
C880 C879 1.349 . S
C880 C896 1.349 . S
C881 C879 1.327 . S
C881 C900 1.429 . S
C881 H905 0.950 . S
C882 C899 1.574 . S
C882 C901 1.368 . S
C882 H906 0.949 . S
H883 C887 0.949 . S
C884 C885 1.349 . S
C884 C886 1.327 . S
C884 H907 0.950 . S
C885 C884 1.349 . S
C885 C897 1.349 . S
C886 C884 1.327 . S
C886 C902 1.429 . S
C886 H908 0.950 . S
C887 H883 0.949 . S
C887 C895 1.574 . S
C887 C903 1.368 . S
H888 C896 0.950 . S
H889 C894 0.950 . S
H890 C895 0.949 . S
H891 C897 0.950 . S
H892 C898 0.950 . S
H893 C899 0.949 . S
C894 H889 0.950 . S
C894 C896 1.327 . S
C894 C900 1.429 . S
C895 C887 1.574 . S
C895 H890 0.949 . S
C895 C901 1.368 . S
C896 C880 1.349 . S
C896 H888 0.950 . S
C896 C894 1.327 . S
C897 C885 1.349 . S
C897 H891 0.950 . S
C897 C898 1.327 . S
C898 H892 0.950 . S
C898 C897 1.327 . S
C898 C902 1.429 . S
C899 C882 1.574 . S
C899 H893 0.949 . S
C899 C903 1.368 . S
C900 C881 1.429 . S
C900 C894 1.429 . S
C900 C901 1.523 . S
C901 C882 1.368 . S
C901 C895 1.368 . S
C901 C900 1.523 . S
C902 C886 1.429 . S
C902 C898 1.429 . S
C902 C903 1.523 . S
C903 C887 1.368 . S
C903 C899 1.368 . S
C903 C902 1.523 . S
H904 C879 0.950 . S
H905 C881 0.950 . S
H906 C882 0.949 . S
H907 C884 0.950 . S
H908 C886 0.950 . S
C909 C910 1.349 . S
C909 C911 1.327 . S
C909 H934 0.950 . S
C910 C909 1.349 . S
C910 C926 1.349 . S
C911 C909 1.327 . S
C911 C930 1.429 . S
C911 H935 0.950 . S
C912 C929 1.574 . S
C912 C931 1.368 . S
C912 H936 0.949 . S
H913 C917 0.949 . S
C914 C915 1.349 . S
C914 C916 1.327 . S
C914 H937 0.950 . S
C915 C914 1.349 . S
C915 C927 1.349 . S
C916 C914 1.327 . S
C916 C932 1.429 . S
C916 H938 0.950 . S
C917 H913 0.949 . S
C917 C925 1.574 . S
C917 C933 1.368 . S
H918 C926 0.950 . S
H919 C924 0.950 . S
H920 C925 0.949 . S
H921 C927 0.950 . S
H922 C928 0.950 . S
H923 C929 0.949 . S
C924 H919 0.950 . S
C924 C926 1.327 . S
C924 C930 1.429 . S
C925 C917 1.574 . S
C925 H920 0.949 . S
C925 C931 1.368 . S
C926 C910 1.349 . S
C926 H918 0.950 . S
C926 C924 1.327 . S
C927 C915 1.349 . S
C927 H921 0.950 . S
C927 C928 1.327 . S
C928 H922 0.950 . S
C928 C927 1.327 . S
C928 C932 1.429 . S
C929 C912 1.574 . S
C929 H923 0.949 . S
C929 C933 1.368 . S
C930 C911 1.429 . S
C930 C924 1.429 . S
C930 C931 1.523 . S
C931 C912 1.368 . S
C931 C925 1.368 . S
C931 C930 1.523 . S
C932 C916 1.429 . S
C932 C928 1.429 . S
C932 C933 1.523 . S
C933 C917 1.368 . S
C933 C929 1.368 . S
C933 C932 1.523 . S
H934 C909 0.950 . S
H935 C911 0.950 . S
H936 C912 0.949 . S
H937 C914 0.950 . S
H938 C916 0.950 . S
C939 C940 1.349 . S
C939 C941 1.327 . S
C939 H964 0.950 . S
C940 C939 1.349 . S
C940 C956 1.349 . S
C941 C939 1.327 . S
C941 C960 1.429 . S
C941 H965 0.950 . S
C942 C959 1.574 . S
C942 C961 1.368 . S
C942 H966 0.949 . S
H943 C947 0.949 . S
C944 C945 1.349 . S
C944 C946 1.327 . S
C944 H967 0.950 . S
C945 C944 1.349 . S
C945 C957 1.349 . S
C946 C944 1.327 . S
C946 C962 1.429 . S
C946 H968 0.950 . S
C947 H943 0.949 . S
C947 C955 1.574 . S
C947 C963 1.368 . S
H948 C956 0.950 . S
H949 C954 0.950 . S
H950 C955 0.949 . S
H951 C957 0.950 . S
H952 C958 0.950 . S
H953 C959 0.949 . S
C954 H949 0.950 . S
C954 C956 1.327 . S
C954 C960 1.429 . S
C955 C947 1.574 . S
C955 H950 0.949 . S
C955 C961 1.368 . S
C956 C940 1.349 . S
C956 H948 0.950 . S
C956 C954 1.327 . S
C957 C945 1.349 . S
C957 H951 0.950 . S
C957 C958 1.327 . S
C958 H952 0.950 . S
C958 C957 1.327 . S
C958 C962 1.429 . S
C959 C942 1.574 . S
C959 H953 0.949 . S
C959 C963 1.368 . S
C960 C941 1.429 . S
C960 C954 1.429 . S
C960 C961 1.523 . S
C961 C942 1.368 . S
C961 C955 1.368 . S
C961 C960 1.523 . S
C962 C946 1.429 . S
C962 C958 1.429 . S
C962 C963 1.523 . S
C963 C947 1.368 . S
C963 C959 1.368 . S
C963 C962 1.523 . S
H964 C939 0.950 . S
H965 C941 0.950 . S
H966 C942 0.949 . S
H967 C944 0.950 . S
H968 C946 0.950 . S
C969 C970 1.349 . S
C969 C971 1.327 . S
C969 H994 0.950 . S
C970 C969 1.349 . S
C970 C986 1.349 . S
C971 C969 1.327 . S
C971 C990 1.429 . S
C971 H995 0.950 . S
C972 C989 1.574 . S
C972 C991 1.368 . S
C972 H996 0.949 . S
H973 C977 0.949 . S
C974 C975 1.349 . S
C974 C976 1.327 . S
C974 H997 0.950 . S
C975 C974 1.349 . S
C975 C987 1.349 . S
C976 C974 1.327 . S
C976 C992 1.429 . S
C976 H998 0.950 . S
C977 H973 0.949 . S
C977 C985 1.574 . S
C977 C993 1.368 . S
H978 C986 0.950 . S
H979 C984 0.950 . S
H980 C985 0.949 . S
H981 C987 0.950 . S
H982 C988 0.950 . S
H983 C989 0.949 . S
C984 H979 0.950 . S
C984 C986 1.327 . S
C984 C990 1.429 . S
C985 C977 1.574 . S
C985 H980 0.949 . S
C985 C991 1.368 . S
C986 C970 1.349 . S
C986 H978 0.950 . S
C986 C984 1.327 . S
C987 C975 1.349 . S
C987 H981 0.950 . S
C987 C988 1.327 . S
C988 H982 0.950 . S
C988 C987 1.327 . S
C988 C992 1.429 . S
C989 C972 1.574 . S
C989 H983 0.949 . S
C989 C993 1.368 . S
C990 C971 1.429 . S
C990 C984 1.429 . S
C990 C991 1.523 . S
C991 C972 1.368 . S
C991 C985 1.368 . S
C991 C990 1.523 . S
C992 C976 1.429 . S
C992 C988 1.429 . S
C992 C993 1.523 . S
C993 C977 1.368 . S
C993 C989 1.368 . S
C993 C992 1.523 . S
H994 C969 0.950 . S
H995 C971 0.950 . S
H996 C972 0.949 . S
H997 C974 0.950 . S
H998 C976 0.950 . S
C999 C1000 1.349 . S
C999 C1001 1.327 . S
C999 H1024 0.950 . S
C1000 C999 1.349 . S
C1000 C1016 1.349 . S
C1001 C999 1.327 . S
C1001 C1020 1.429 . S
C1001 H1025 0.950 . S
C1002 C1019 1.574 . S
C1002 C1021 1.368 . S
C1002 H1026 0.949 . S
H1003 C1007 0.949 . S
C1004 C1005 1.349 . S
C1004 C1006 1.327 . S
C1004 H1027 0.950 . S
C1005 C1004 1.349 . S
C1005 C1017 1.349 . S
C1006 C1004 1.327 . S
C1006 C1022 1.429 . S
C1006 H1028 0.950 . S
C1007 H1003 0.949 . S
C1007 C1015 1.574 . S
C1007 C1023 1.368 . S
H1008 C1016 0.950 . S
H1009 C1014 0.950 . S
H1010 C1015 0.949 . S
H1011 C1017 0.950 . S
H1012 C1018 0.950 . S
H1013 C1019 0.949 . S
C1014 H1009 0.950 . S
C1014 C1016 1.327 . S
C1014 C1020 1.429 . S
C1015 C1007 1.574 . S
C1015 H1010 0.949 . S
C1015 C1021 1.368 . S
C1016 C1000 1.349 . S
C1016 H1008 0.950 . S
C1016 C1014 1.327 . S
C1017 C1005 1.349 . S
C1017 H1011 0.950 . S
C1017 C1018 1.327 . S
C1018 H1012 0.950 . S
C1018 C1017 1.327 . S
C1018 C1022 1.429 . S
C1019 C1002 1.574 . S
C1019 H1013 0.949 . S
C1019 C1023 1.368 . S
C1020 C1001 1.429 . S
C1020 C1014 1.429 . S
C1020 C1021 1.523 . S
C1021 C1002 1.368 . S
C1021 C1015 1.368 . S
C1021 C1020 1.523 . S
C1022 C1006 1.429 . S
C1022 C1018 1.429 . S
C1022 C1023 1.523 . S
C1023 C1007 1.368 . S
C1023 C1019 1.368 . S
C1023 C1022 1.523 . S
H1024 C999 0.950 . S
H1025 C1001 0.950 . S
H1026 C1002 0.949 . S
H1027 C1004 0.950 . S
H1028 C1006 0.950 . S
C1029 C1030 1.349 . S
C1029 C1031 1.327 . S
C1029 H1054 0.950 . S
C1030 C1029 1.349 . S
C1030 C1046 1.349 . S
C1031 C1029 1.327 . S
C1031 C1050 1.429 . S
C1031 H1055 0.950 . S
C1032 C1049 1.574 . S
C1032 C1051 1.368 . S
C1032 H1056 0.949 . S
H1033 C1037 0.949 . S
C1034 C1035 1.349 . S
C1034 C1036 1.327 . S
C1034 H1057 0.950 . S
C1035 C1034 1.349 . S
C1035 C1047 1.349 . S
C1036 C1034 1.327 . S
C1036 C1052 1.429 . S
C1036 H1058 0.950 . S
C1037 H1033 0.949 . S
C1037 C1045 1.574 . S
C1037 C1053 1.368 . S
H1038 C1046 0.950 . S
H1039 C1044 0.950 . S
H1040 C1045 0.949 . S
H1041 C1047 0.950 . S
H1042 C1048 0.950 . S
H1043 C1049 0.949 . S
C1044 H1039 0.950 . S
C1044 C1046 1.327 . S
C1044 C1050 1.429 . S
C1045 C1037 1.574 . S
C1045 H1040 0.949 . S
C1045 C1051 1.368 . S
C1046 C1030 1.349 . S
C1046 H1038 0.950 . S
C1046 C1044 1.327 . S
C1047 C1035 1.349 . S
C1047 H1041 0.950 . S
C1047 C1048 1.327 . S
C1048 H1042 0.950 . S
C1048 C1047 1.327 . S
C1048 C1052 1.429 . S
C1049 C1032 1.574 . S
C1049 H1043 0.949 . S
C1049 C1053 1.368 . S
C1050 C1031 1.429 . S
C1050 C1044 1.429 . S
C1050 C1051 1.523 . S
C1051 C1032 1.368 . S
C1051 C1045 1.368 . S
C1051 C1050 1.523 . S
C1052 C1036 1.429 . S
C1052 C1048 1.429 . S
C1052 C1053 1.523 . S
C1053 C1037 1.368 . S
C1053 C1049 1.368 . S
C1053 C1052 1.523 . S
H1054 C1029 0.950 . S
H1055 C1031 0.950 . S
H1056 C1032 0.949 . S
H1057 C1034 0.950 . S
H1058 C1036 0.950 . S
C1059 C1060 1.349 . S
C1059 C1061 1.327 . S
C1059 H1084 0.950 . S
C1060 C1059 1.349 . S
C1060 C1076 1.349 . S
C1061 C1059 1.327 . S
C1061 C1080 1.429 . S
C1061 H1085 0.950 . S
C1062 C1079 1.574 . S
C1062 C1081 1.368 . S
C1062 H1086 0.949 . S
H1063 C1067 0.949 . S
C1064 C1065 1.349 . S
C1064 C1066 1.327 . S
C1064 H1087 0.950 . S
C1065 C1064 1.349 . S
C1065 C1077 1.349 . S
C1066 C1064 1.327 . S
C1066 C1082 1.429 . S
C1066 H1088 0.950 . S
C1067 H1063 0.949 . S
C1067 C1075 1.574 . S
C1067 C1083 1.368 . S
H1068 C1076 0.950 . S
H1069 C1074 0.950 . S
H1070 C1075 0.949 . S
H1071 C1077 0.950 . S
H1072 C1078 0.950 . S
H1073 C1079 0.949 . S
C1074 H1069 0.950 . S
C1074 C1076 1.327 . S
C1074 C1080 1.429 . S
C1075 C1067 1.574 . S
C1075 H1070 0.949 . S
C1075 C1081 1.368 . S
C1076 C1060 1.349 . S
C1076 H1068 0.950 . S
C1076 C1074 1.327 . S
C1077 C1065 1.349 . S
C1077 H1071 0.950 . S
C1077 C1078 1.327 . S
C1078 H1072 0.950 . S
C1078 C1077 1.327 . S
C1078 C1082 1.429 . S
C1079 C1062 1.574 . S
C1079 H1073 0.949 . S
C1079 C1083 1.368 . S
C1080 C1061 1.429 . S
C1080 C1074 1.429 . S
C1080 C1081 1.523 . S
C1081 C1062 1.368 . S
C1081 C1075 1.368 . S
C1081 C1080 1.523 . S
C1082 C1066 1.429 . S
C1082 C1078 1.429 . S
C1082 C1083 1.523 . S
C1083 C1067 1.368 . S
C1083 C1079 1.368 . S
C1083 C1082 1.523 . S
H1084 C1059 0.950 . S
H1085 C1061 0.950 . S
H1086 C1062 0.949 . S
H1087 C1064 0.950 . S
H1088 C1066 0.950 . S
C1089 C1090 1.349 . S
C1089 C1091 1.327 . S
C1089 H1114 0.950 . S
C1090 C1089 1.349 . S
C1090 C1106 1.349 . S
C1091 C1089 1.327 . S
C1091 C1110 1.429 . S
C1091 H1115 0.950 . S
C1092 C1109 1.574 . S
C1092 C1111 1.368 . S
C1092 H1116 0.949 . S
H1093 C1097 0.949 . S
C1094 C1095 1.349 . S
C1094 C1096 1.327 . S
C1094 H1117 0.950 . S
C1095 C1094 1.349 . S
C1095 C1107 1.349 . S
C1096 C1094 1.327 . S
C1096 C1112 1.429 . S
C1096 H1118 0.950 . S
C1097 H1093 0.949 . S
C1097 C1105 1.574 . S
C1097 C1113 1.368 . S
H1098 C1106 0.950 . S
H1099 C1104 0.950 . S
H1100 C1105 0.949 . S
H1101 C1107 0.950 . S
H1102 C1108 0.950 . S
H1103 C1109 0.949 . S
C1104 H1099 0.950 . S
C1104 C1106 1.327 . S
C1104 C1110 1.429 . S
C1105 C1097 1.574 . S
C1105 H1100 0.949 . S
C1105 C1111 1.368 . S
C1106 C1090 1.349 . S
C1106 H1098 0.950 . S
C1106 C1104 1.327 . S
C1107 C1095 1.349 . S
C1107 H1101 0.950 . S
C1107 C1108 1.327 . S
C1108 H1102 0.950 . S
C1108 C1107 1.327 . S
C1108 C1112 1.429 . S
C1109 C1092 1.574 . S
C1109 H1103 0.949 . S
C1109 C1113 1.368 . S
C1110 C1091 1.429 . S
C1110 C1104 1.429 . S
C1110 C1111 1.523 . S
C1111 C1092 1.368 . S
C1111 C1105 1.368 . S
C1111 C1110 1.523 . S
C1112 C1096 1.429 . S
C1112 C1108 1.429 . S
C1112 C1113 1.523 . S
C1113 C1097 1.368 . S
C1113 C1109 1.368 . S
C1113 C1112 1.523 . S
H1114 C1089 0.950 . S
H1115 C1091 0.950 . S
H1116 C1092 0.949 . S
H1117 C1094 0.950 . S
H1118 C1096 0.950 . S
C1119 C1120 1.349 . S
C1119 C1121 1.327 . S
C1119 H1144 0.950 . S
C1120 C1119 1.349 . S
C1120 C1136 1.349 . S
C1121 C1119 1.327 . S
C1121 C1140 1.429 . S
C1121 H1145 0.950 . S
C1122 C1139 1.574 . S
C1122 C1141 1.368 . S
C1122 H1146 0.949 . S
H1123 C1127 0.949 . S
C1124 C1125 1.349 . S
C1124 C1126 1.327 . S
C1124 H1147 0.950 . S
C1125 C1124 1.349 . S
C1125 C1137 1.349 . S
C1126 C1124 1.327 . S
C1126 C1142 1.429 . S
C1126 H1148 0.950 . S
C1127 H1123 0.949 . S
C1127 C1135 1.574 . S
C1127 C1143 1.368 . S
H1128 C1136 0.950 . S
H1129 C1134 0.950 . S
H1130 C1135 0.949 . S
H1131 C1137 0.950 . S
H1132 C1138 0.950 . S
H1133 C1139 0.949 . S
C1134 H1129 0.950 . S
C1134 C1136 1.327 . S
C1134 C1140 1.429 . S
C1135 C1127 1.574 . S
C1135 H1130 0.949 . S
C1135 C1141 1.368 . S
C1136 C1120 1.349 . S
C1136 H1128 0.950 . S
C1136 C1134 1.327 . S
C1137 C1125 1.349 . S
C1137 H1131 0.950 . S
C1137 C1138 1.327 . S
C1138 H1132 0.950 . S
C1138 C1137 1.327 . S
C1138 C1142 1.429 . S
C1139 C1122 1.574 . S
C1139 H1133 0.949 . S
C1139 C1143 1.368 . S
C1140 C1121 1.429 . S
C1140 C1134 1.429 . S
C1140 C1141 1.523 . S
C1141 C1122 1.368 . S
C1141 C1135 1.368 . S
C1141 C1140 1.523 . S
C1142 C1126 1.429 . S
C1142 C1138 1.429 . S
C1142 C1143 1.523 . S
C1143 C1127 1.368 . S
C1143 C1139 1.368 . S
C1143 C1142 1.523 . S
H1144 C1119 0.950 . S
H1145 C1121 0.950 . S
H1146 C1122 0.949 . S
H1147 C1124 0.950 . S
H1148 C1126 0.950 . S
C1149 C1150 1.349 . S
C1149 C1151 1.327 . S
C1149 H1174 0.950 . S
C1150 C1149 1.349 . S
C1150 C1166 1.349 . S
C1151 C1149 1.327 . S
C1151 C1170 1.429 . S
C1151 H1175 0.950 . S
C1152 C1169 1.574 . S
C1152 C1171 1.368 . S
C1152 H1176 0.949 . S
H1153 C1157 0.949 . S
C1154 C1155 1.349 . S
C1154 C1156 1.327 . S
C1154 H1177 0.950 . S
C1155 C1154 1.349 . S
C1155 C1167 1.349 . S
C1156 C1154 1.327 . S
C1156 C1172 1.429 . S
C1156 H1178 0.950 . S
C1157 H1153 0.949 . S
C1157 C1165 1.574 . S
C1157 C1173 1.368 . S
H1158 C1166 0.950 . S
H1159 C1164 0.950 . S
H1160 C1165 0.949 . S
H1161 C1167 0.950 . S
H1162 C1168 0.950 . S
H1163 C1169 0.949 . S
C1164 H1159 0.950 . S
C1164 C1166 1.327 . S
C1164 C1170 1.429 . S
C1165 C1157 1.574 . S
C1165 H1160 0.949 . S
C1165 C1171 1.368 . S
C1166 C1150 1.349 . S
C1166 H1158 0.950 . S
C1166 C1164 1.327 . S
C1167 C1155 1.349 . S
C1167 H1161 0.950 . S
C1167 C1168 1.327 . S
C1168 H1162 0.950 . S
C1168 C1167 1.327 . S
C1168 C1172 1.429 . S
C1169 C1152 1.574 . S
C1169 H1163 0.949 . S
C1169 C1173 1.368 . S
C1170 C1151 1.429 . S
C1170 C1164 1.429 . S
C1170 C1171 1.523 . S
C1171 C1152 1.368 . S
C1171 C1165 1.368 . S
C1171 C1170 1.523 . S
C1172 C1156 1.429 . S
C1172 C1168 1.429 . S
C1172 C1173 1.523 . S
C1173 C1157 1.368 . S
C1173 C1169 1.368 . S
C1173 C1172 1.523 . S
H1174 C1149 0.950 . S
H1175 C1151 0.950 . S
H1176 C1152 0.949 . S
H1177 C1154 0.950 . S
H1178 C1156 0.950 . S
C1179 C1180 1.349 . S
C1179 C1181 1.327 . S
C1179 H1204 0.950 . S
C1180 C1179 1.349 . S
C1180 C1196 1.349 . S
C1181 C1179 1.327 . S
C1181 C1200 1.429 . S
C1181 H1205 0.950 . S
C1182 C1199 1.574 . S
C1182 C1201 1.368 . S
C1182 H1206 0.949 . S
H1183 C1187 0.949 . S
C1184 C1185 1.349 . S
C1184 C1186 1.327 . S
C1184 H1207 0.950 . S
C1185 C1184 1.349 . S
C1185 C1197 1.349 . S
C1186 C1184 1.327 . S
C1186 C1202 1.429 . S
C1186 H1208 0.950 . S
C1187 H1183 0.949 . S
C1187 C1195 1.574 . S
C1187 C1203 1.368 . S
H1188 C1196 0.950 . S
H1189 C1194 0.950 . S
H1190 C1195 0.949 . S
H1191 C1197 0.950 . S
H1192 C1198 0.950 . S
H1193 C1199 0.949 . S
C1194 H1189 0.950 . S
C1194 C1196 1.327 . S
C1194 C1200 1.429 . S
C1195 C1187 1.574 . S
C1195 H1190 0.949 . S
C1195 C1201 1.368 . S
C1196 C1180 1.349 . S
C1196 H1188 0.950 . S
C1196 C1194 1.327 . S
C1197 C1185 1.349 . S
C1197 H1191 0.950 . S
C1197 C1198 1.327 . S
C1198 H1192 0.950 . S
C1198 C1197 1.327 . S
C1198 C1202 1.429 . S
C1199 C1182 1.574 . S
C1199 H1193 0.949 . S
C1199 C1203 1.368 . S
C1200 C1181 1.429 . S
C1200 C1194 1.429 . S
C1200 C1201 1.523 . S
C1201 C1182 1.368 . S
C1201 C1195 1.368 . S
C1201 C1200 1.523 . S
C1202 C1186 1.429 . S
C1202 C1198 1.429 . S
C1202 C1203 1.523 . S
C1203 C1187 1.368 . S
C1203 C1199 1.368 . S
C1203 C1202 1.523 . S
H1204 C1179 0.950 . S
H1205 C1181 0.950 . S
H1206 C1182 0.949 . S
H1207 C1184 0.950 . S
H1208 C1186 0.950 . S
C1209 C1210 1.349 . S
C1209 C1211 1.327 . S
C1209 H1234 0.950 . S
C1210 C1209 1.349 . S
C1210 C1226 1.349 . S
C1211 C1209 1.327 . S
C1211 C1230 1.429 . S
C1211 H1235 0.950 . S
C1212 C1229 1.574 . S
C1212 C1231 1.368 . S
C1212 H1236 0.949 . S
H1213 C1217 0.949 . S
C1214 C1215 1.349 . S
C1214 C1216 1.327 . S
C1214 H1237 0.950 . S
C1215 C1214 1.349 . S
C1215 C1227 1.349 . S
C1216 C1214 1.327 . S
C1216 C1232 1.429 . S
C1216 H1238 0.950 . S
C1217 H1213 0.949 . S
C1217 C1225 1.574 . S
C1217 C1233 1.368 . S
H1218 C1226 0.950 . S
H1219 C1224 0.950 . S
H1220 C1225 0.949 . S
H1221 C1227 0.950 . S
H1222 C1228 0.950 . S
H1223 C1229 0.949 . S
C1224 H1219 0.950 . S
C1224 C1226 1.327 . S
C1224 C1230 1.429 . S
C1225 C1217 1.574 . S
C1225 H1220 0.949 . S
C1225 C1231 1.368 . S
C1226 C1210 1.349 . S
C1226 H1218 0.950 . S
C1226 C1224 1.327 . S
C1227 C1215 1.349 . S
C1227 H1221 0.950 . S
C1227 C1228 1.327 . S
C1228 H1222 0.950 . S
C1228 C1227 1.327 . S
C1228 C1232 1.429 . S
C1229 C1212 1.574 . S
C1229 H1223 0.949 . S
C1229 C1233 1.368 . S
C1230 C1211 1.429 . S
C1230 C1224 1.429 . S
C1230 C1231 1.523 . S
C1231 C1212 1.368 . S
C1231 C1225 1.368 . S
C1231 C1230 1.523 . S
C1232 C1216 1.429 . S
C1232 C1228 1.429 . S
C1232 C1233 1.523 . S
C1233 C1217 1.368 . S
C1233 C1229 1.368 . S
C1233 C1232 1.523 . S
H1234 C1209 0.950 . S
H1235 C1211 0.950 . S
H1236 C1212 0.949 . S
H1237 C1214 0.950 . S
H1238 C1216 0.950 . S
C1239 C1240 1.349 . S
C1239 C1241 1.327 . S
C1239 H1264 0.950 . S
C1240 C1239 1.349 . S
C1240 C1256 1.349 . S
C1241 C1239 1.327 . S
C1241 C1260 1.429 . S
C1241 H1265 0.950 . S
C1242 C1259 1.574 . S
C1242 C1261 1.368 . S
C1242 H1266 0.949 . S
H1243 C1247 0.949 . S
C1244 C1245 1.349 . S
C1244 C1246 1.327 . S
C1244 H1267 0.950 . S
C1245 C1244 1.349 . S
C1245 C1257 1.349 . S
C1246 C1244 1.327 . S
C1246 C1262 1.429 . S
C1246 H1268 0.950 . S
C1247 H1243 0.949 . S
C1247 C1255 1.574 . S
C1247 C1263 1.368 . S
H1248 C1256 0.950 . S
H1249 C1254 0.950 . S
H1250 C1255 0.949 . S
H1251 C1257 0.950 . S
H1252 C1258 0.950 . S
H1253 C1259 0.949 . S
C1254 H1249 0.950 . S
C1254 C1256 1.327 . S
C1254 C1260 1.429 . S
C1255 C1247 1.574 . S
C1255 H1250 0.949 . S
C1255 C1261 1.368 . S
C1256 C1240 1.349 . S
C1256 H1248 0.950 . S
C1256 C1254 1.327 . S
C1257 C1245 1.349 . S
C1257 H1251 0.950 . S
C1257 C1258 1.327 . S
C1258 H1252 0.950 . S
C1258 C1257 1.327 . S
C1258 C1262 1.429 . S
C1259 C1242 1.574 . S
C1259 H1253 0.949 . S
C1259 C1263 1.368 . S
C1260 C1241 1.429 . S
C1260 C1254 1.429 . S
C1260 C1261 1.523 . S
C1261 C1242 1.368 . S
C1261 C1255 1.368 . S
C1261 C1260 1.523 . S
C1262 C1246 1.429 . S
C1262 C1258 1.429 . S
C1262 C1263 1.523 . S
C1263 C1247 1.368 . S
C1263 C1259 1.368 . S
C1263 C1262 1.523 . S
H1264 C1239 0.950 . S
H1265 C1241 0.950 . S
H1266 C1242 0.949 . S
H1267 C1244 0.950 . S
H1268 C1246 0.950 . S
C1269 C1270 1.349 . S
C1269 C1271 1.327 . S
C1269 H1294 0.950 . S
C1270 C1269 1.349 . S
C1270 C1286 1.349 . S
C1271 C1269 1.327 . S
C1271 C1290 1.429 . S
C1271 H1295 0.950 . S
C1272 C1289 1.574 . S
C1272 C1291 1.368 . S
C1272 H1296 0.949 . S
H1273 C1277 0.949 . S
C1274 C1275 1.349 . S
C1274 C1276 1.327 . S
C1274 H1297 0.950 . S
C1275 C1274 1.349 . S
C1275 C1287 1.349 . S
C1276 C1274 1.327 . S
C1276 C1292 1.429 . S
C1276 H1298 0.950 . S
C1277 H1273 0.949 . S
C1277 C1285 1.574 . S
C1277 C1293 1.368 . S
H1278 C1286 0.950 . S
H1279 C1284 0.950 . S
H1280 C1285 0.949 . S
H1281 C1287 0.950 . S
H1282 C1288 0.950 . S
H1283 C1289 0.949 . S
C1284 H1279 0.950 . S
C1284 C1286 1.327 . S
C1284 C1290 1.429 . S
C1285 C1277 1.574 . S
C1285 H1280 0.949 . S
C1285 C1291 1.368 . S
C1286 C1270 1.349 . S
C1286 H1278 0.950 . S
C1286 C1284 1.327 . S
C1287 C1275 1.349 . S
C1287 H1281 0.950 . S
C1287 C1288 1.327 . S
C1288 H1282 0.950 . S
C1288 C1287 1.327 . S
C1288 C1292 1.429 . S
C1289 C1272 1.574 . S
C1289 H1283 0.949 . S
C1289 C1293 1.368 . S
C1290 C1271 1.429 . S
C1290 C1284 1.429 . S
C1290 C1291 1.523 . S
C1291 C1272 1.368 . S
C1291 C1285 1.368 . S
C1291 C1290 1.523 . S
C1292 C1276 1.429 . S
C1292 C1288 1.429 . S
C1292 C1293 1.523 . S
C1293 C1277 1.368 . S
C1293 C1289 1.368 . S
C1293 C1292 1.523 . S
H1294 C1269 0.950 . S
H1295 C1271 0.950 . S
H1296 C1272 0.949 . S
H1297 C1274 0.950 . S
H1298 C1276 0.950 . S
C585 C504 0.963 . S
C580 C31 0.991 . S
C615 C540 1.656 . S
C610 C61 1.746 . S
C645 C505 1.390 . S
C640 C121 1.381 . S
C675 C535 1.530 . S
C670 C181 1.580 . S
C705 C502 1.454 . S
C700 C260 1.460 . S
C730 C331 1.713 . S
C735 C538 1.713 . S
C760 C380 1.119 . S
C765 C507 1.041 . S
C795 C537 1.402 . S
C790 C440 1.436 . S
C825 C541 1.402 . S
C820 C1 1.369 . S
C855 C506 1.454 . S
C850 C91 1.501 . S
C885 C534 1.713 . S
C880 C151 1.713 . S
C915 C503 1.041 . S
C910 C200 1.119 . S
C945 C536 1.656 . S
C940 C271 1.702 . S
C970 C301 1.381 . S
C975 C501 1.390 . S
C1000 C361 1.580 . S
C1005 C539 1.530 . S
C1035 C508 0.963 . S
C1030 C451 0.976 . S
C1065 C570 1.732 . S
C1060 C20 1.804 . S
C1090 C241 1.984 . S
C1095 C573 1.911 . S
C1125 C572 1.695 . S
C1120 C320 1.755 . S
C1150 C391 2.152 . S
C1155 C571 2.152 . S
C1185 C574 1.732 . S
C1180 C421 1.789 . S
C1210 C140 1.755 . S
C1215 C568 1.695 . S
C1245 C567 2.152 . S
C1240 C211 2.152 . S
C1270 C80 2.032 . S
C1275 C569 1.910 . S
