# Generated by pormake.
# Topology ptr, (4,4)-cn, num edge types: 1
# Building blocks:
#     Node 0, Type 0, BuildingBlock: KUFVIS_clean_sbu_0, # of connection points: 4
#     Node 1, Type 0, BuildingBlock: KUFVIS_clean_sbu_0, # of connection points: 4
#     Node 2, Type 0, BuildingBlock: KUFVIS_clean_sbu_0, # of connection points: 4
#     Node 3, Type 0, BuildingBlock: KUFVIS_clean_sbu_0, # of connection points: 4
#     Node 4, Type 0, BuildingBlock: KUFVIS_clean_sbu_0, # of connection points: 4
#     Node 5, Type 0, BuildingBlock: KUFVIS_clean_sbu_0, # of connection points: 4
#     Node 6, Type 0, BuildingBlock: KUFVIS_clean_sbu_0, # of connection points: 4
#     Node 7, Type 0, BuildingBlock: KUFVIS_clean_sbu_0, # of connection points: 4
#     Node 8, Type 0, BuildingBlock: KUFVIS_clean_sbu_0, # of connection points: 4
#     Node 9, Type 0, BuildingBlock: KUFVIS_clean_sbu_0, # of connection points: 4
#     Node 10, Type 0, BuildingBlock: KUFVIS_clean_sbu_0, # of connection points: 4
#     Node 11, Type 0, BuildingBlock: KUFVIS_clean_sbu_0, # of connection points: 4
#     Node 12, Type 0, BuildingBlock: KUFVIS_clean_sbu_0, # of connection points: 4
#     Node 13, Type 0, BuildingBlock: KUFVIS_clean_sbu_0, # of connection points: 4
#     Node 14, Type 0, BuildingBlock: KUFVIS_clean_sbu_0, # of connection points: 4
#     Node 15, Type 0, BuildingBlock: KUFVIS_clean_sbu_0, # of connection points: 4
#     Node 16, Type 0, BuildingBlock: KUFVIS_clean_sbu_0, # of connection points: 4
#     Node 17, Type 0, BuildingBlock: KUFVIS_clean_sbu_0, # of connection points: 4
#     Node 18, Type 1, BuildingBlock: MUDLON_clean_linker_0, # of connection points: 4
#     Node 19, Type 1, BuildingBlock: MUDLON_clean_linker_0, # of connection points: 4
#     Node 20, Type 1, BuildingBlock: MUDLON_clean_linker_0, # of connection points: 4
#     Node 21, Type 1, BuildingBlock: MUDLON_clean_linker_0, # of connection points: 4
#     Node 22, Type 1, BuildingBlock: MUDLON_clean_linker_0, # of connection points: 4
#     Node 23, Type 1, BuildingBlock: MUDLON_clean_linker_0, # of connection points: 4
#     Node 24, Type 1, BuildingBlock: MUDLON_clean_linker_0, # of connection points: 4
#     Node 25, Type 1, BuildingBlock: MUDLON_clean_linker_0, # of connection points: 4
#     Node 26, Type 1, BuildingBlock: MUDLON_clean_linker_0, # of connection points: 4
#     Node 27, Type 1, BuildingBlock: MUDLON_clean_linker_0, # of connection points: 4
#     Node 28, Type 1, BuildingBlock: MUDLON_clean_linker_0, # of connection points: 4
#     Node 29, Type 1, BuildingBlock: MUDLON_clean_linker_0, # of connection points: 4
#     Node 30, Type 1, BuildingBlock: MUDLON_clean_linker_0, # of connection points: 4
#     Node 31, Type 1, BuildingBlock: MUDLON_clean_linker_0, # of connection points: 4
#     Node 32, Type 1, BuildingBlock: MUDLON_clean_linker_0, # of connection points: 4
#     Node 33, Type 1, BuildingBlock: MUDLON_clean_linker_0, # of connection points: 4
#     Node 34, Type 1, BuildingBlock: MUDLON_clean_linker_0, # of connection points: 4
#     Node 35, Type 1, BuildingBlock: MUDLON_clean_linker_0, # of connection points: 4
#     Edge 36, Type (0, 1), BuildingBlock: MIFKUJ_clean_linker_0, # of connection points: 2
#     Edge 37, Type (0, 1), BuildingBlock: MIFKUJ_clean_linker_0, # of connection points: 2
#     Edge 38, Type (0, 1), BuildingBlock: MIFKUJ_clean_linker_0, # of connection points: 2
#     Edge 39, Type (0, 1), BuildingBlock: MIFKUJ_clean_linker_0, # of connection points: 2
#     Edge 40, Type (0, 1), BuildingBlock: MIFKUJ_clean_linker_0, # of connection points: 2
#     Edge 41, Type (0, 1), BuildingBlock: MIFKUJ_clean_linker_0, # of connection points: 2
#     Edge 42, Type (0, 1), BuildingBlock: MIFKUJ_clean_linker_0, # of connection points: 2
#     Edge 43, Type (0, 1), BuildingBlock: MIFKUJ_clean_linker_0, # of connection points: 2
#     Edge 44, Type (0, 1), BuildingBlock: MIFKUJ_clean_linker_0, # of connection points: 2
#     Edge 45, Type (0, 1), BuildingBlock: MIFKUJ_clean_linker_0, # of connection points: 2
#     Edge 46, Type (0, 1), BuildingBlock: MIFKUJ_clean_linker_0, # of connection points: 2
#     Edge 47, Type (0, 1), BuildingBlock: MIFKUJ_clean_linker_0, # of connection points: 2
#     Edge 48, Type (0, 1), BuildingBlock: MIFKUJ_clean_linker_0, # of connection points: 2
#     Edge 49, Type (0, 1), BuildingBlock: MIFKUJ_clean_linker_0, # of connection points: 2
#     Edge 50, Type (0, 1), BuildingBlock: MIFKUJ_clean_linker_0, # of connection points: 2
#     Edge 51, Type (0, 1), BuildingBlock: MIFKUJ_clean_linker_0, # of connection points: 2
#     Edge 52, Type (0, 1), BuildingBlock: MIFKUJ_clean_linker_0, # of connection points: 2
#     Edge 53, Type (0, 1), BuildingBlock: MIFKUJ_clean_linker_0, # of connection points: 2
#     Edge 54, Type (0, 1), BuildingBlock: MIFKUJ_clean_linker_0, # of connection points: 2
#     Edge 55, Type (0, 1), BuildingBlock: MIFKUJ_clean_linker_0, # of connection points: 2
#     Edge 56, Type (0, 1), BuildingBlock: MIFKUJ_clean_linker_0, # of connection points: 2
#     Edge 57, Type (0, 1), BuildingBlock: MIFKUJ_clean_linker_0, # of connection points: 2
#     Edge 58, Type (0, 1), BuildingBlock: MIFKUJ_clean_linker_0, # of connection points: 2
#     Edge 59, Type (0, 1), BuildingBlock: MIFKUJ_clean_linker_0, # of connection points: 2
#     Edge 60, Type (0, 1), BuildingBlock: MIFKUJ_clean_linker_0, # of connection points: 2
#     Edge 61, Type (0, 1), BuildingBlock: MIFKUJ_clean_linker_0, # of connection points: 2
#     Edge 62, Type (0, 1), BuildingBlock: MIFKUJ_clean_linker_0, # of connection points: 2
#     Edge 63, Type (0, 1), BuildingBlock: MIFKUJ_clean_linker_0, # of connection points: 2
#     Edge 64, Type (0, 1), BuildingBlock: MIFKUJ_clean_linker_0, # of connection points: 2
#     Edge 65, Type (0, 1), BuildingBlock: MIFKUJ_clean_linker_0, # of connection points: 2
#     Edge 66, Type (0, 1), BuildingBlock: MIFKUJ_clean_linker_0, # of connection points: 2
#     Edge 67, Type (0, 1), BuildingBlock: MIFKUJ_clean_linker_0, # of connection points: 2
#     Edge 68, Type (0, 1), BuildingBlock: MIFKUJ_clean_linker_0, # of connection points: 2
#     Edge 69, Type (0, 1), BuildingBlock: MIFKUJ_clean_linker_0, # of connection points: 2
#     Edge 70, Type (0, 1), BuildingBlock: MIFKUJ_clean_linker_0, # of connection points: 2
#     Edge 71, Type (0, 1), BuildingBlock: MIFKUJ_clean_linker_0, # of connection points: 2
#     Edge 72, Type (0, 1), BuildingBlock: MIFKUJ_clean_linker_0, # of connection points: 2
#     Edge 73, Type (0, 1), BuildingBlock: MIFKUJ_clean_linker_0, # of connection points: 2
#     Edge 74, Type (0, 1), BuildingBlock: MIFKUJ_clean_linker_0, # of connection points: 2
#     Edge 75, Type (0, 1), BuildingBlock: MIFKUJ_clean_linker_0, # of connection points: 2
#     Edge 76, Type (0, 1), BuildingBlock: MIFKUJ_clean_linker_0, # of connection points: 2
#     Edge 77, Type (0, 1), BuildingBlock: MIFKUJ_clean_linker_0, # of connection points: 2
#     Edge 78, Type (0, 1), BuildingBlock: MIFKUJ_clean_linker_0, # of connection points: 2
#     Edge 79, Type (0, 1), BuildingBlock: MIFKUJ_clean_linker_0, # of connection points: 2
#     Edge 80, Type (0, 1), BuildingBlock: MIFKUJ_clean_linker_0, # of connection points: 2
#     Edge 81, Type (0, 1), BuildingBlock: MIFKUJ_clean_linker_0, # of connection points: 2
#     Edge 82, Type (0, 1), BuildingBlock: MIFKUJ_clean_linker_0, # of connection points: 2
#     Edge 83, Type (0, 1), BuildingBlock: MIFKUJ_clean_linker_0, # of connection points: 2
#     Edge 84, Type (0, 1), BuildingBlock: MIFKUJ_clean_linker_0, # of connection points: 2
#     Edge 85, Type (0, 1), BuildingBlock: MIFKUJ_clean_linker_0, # of connection points: 2
#     Edge 86, Type (0, 1), BuildingBlock: MIFKUJ_clean_linker_0, # of connection points: 2
#     Edge 87, Type (0, 1), BuildingBlock: MIFKUJ_clean_linker_0, # of connection points: 2
#     Edge 88, Type (0, 1), BuildingBlock: MIFKUJ_clean_linker_0, # of connection points: 2
#     Edge 89, Type (0, 1), BuildingBlock: MIFKUJ_clean_linker_0, # of connection points: 2
#     Edge 90, Type (0, 1), BuildingBlock: MIFKUJ_clean_linker_0, # of connection points: 2
#     Edge 91, Type (0, 1), BuildingBlock: MIFKUJ_clean_linker_0, # of connection points: 2
#     Edge 92, Type (0, 1), BuildingBlock: MIFKUJ_clean_linker_0, # of connection points: 2
#     Edge 93, Type (0, 1), BuildingBlock: MIFKUJ_clean_linker_0, # of connection points: 2
#     Edge 94, Type (0, 1), BuildingBlock: MIFKUJ_clean_linker_0, # of connection points: 2
#     Edge 95, Type (0, 1), BuildingBlock: MIFKUJ_clean_linker_0, # of connection points: 2
#     Edge 96, Type (0, 1), BuildingBlock: MIFKUJ_clean_linker_0, # of connection points: 2
#     Edge 97, Type (0, 1), BuildingBlock: MIFKUJ_clean_linker_0, # of connection points: 2
#     Edge 98, Type (0, 1), BuildingBlock: MIFKUJ_clean_linker_0, # of connection points: 2
#     Edge 99, Type (0, 1), BuildingBlock: MIFKUJ_clean_linker_0, # of connection points: 2
#     Edge 100, Type (0, 1), BuildingBlock: MIFKUJ_clean_linker_0, # of connection points: 2
#     Edge 101, Type (0, 1), BuildingBlock: MIFKUJ_clean_linker_0, # of connection points: 2
#     Edge 102, Type (0, 1), BuildingBlock: MIFKUJ_clean_linker_0, # of connection points: 2
#     Edge 103, Type (0, 1), BuildingBlock: MIFKUJ_clean_linker_0, # of connection points: 2
#     Edge 104, Type (0, 1), BuildingBlock: MIFKUJ_clean_linker_0, # of connection points: 2
#     Edge 105, Type (0, 1), BuildingBlock: MIFKUJ_clean_linker_0, # of connection points: 2
#     Edge 106, Type (0, 1), BuildingBlock: MIFKUJ_clean_linker_0, # of connection points: 2
#     Edge 107, Type (0, 1), BuildingBlock: MIFKUJ_clean_linker_0, # of connection points: 2
# Relax obj value: 0.037
# Max RMSD: 0.123
# Mean RMSD: 0.070
data_MOF--net-ptr--node1-KUFVIS_clean_sbu_0--node2-MUDLON_clean_linker_0--edge1-MIFKUJ_clean_linker_0
_symmetry_space_group_name_H-M    P1
_symmetry_Int_Tables_number       1
_symmetry_cell_setting            triclinic
loop_
_symmetry_equiv_pos_as_xyz
'x, y, z'
_cell_length_a     127.6714
_cell_length_b     127.15939
_cell_length_c     77.817011
_cell_angle_alpha  89.683817
_cell_angle_beta   90.645485
_cell_angle_gamma 119.53618
loop_
_atom_site_label
_atom_site_type_symbol
_atom_site_fract_x
_atom_site_fract_y
_atom_site_fract_z
_atom_type_partial_charge
Mn0 Mn 0.00261 0.36049 0.00471 0.0
Mn1 Mn 0.02983 0.38559 0.00235 0.0
C2 C 0.00532 0.3759 0.98605 0.0
C3 C 0.98955 0.34061 0.99617 0.0
C4 C 0.01241 0.38046 0.03166 0.0
O5 O 0.01386 0.35557 0.01667 0.0
O6 O 0.03174 0.37189 0.01088 0.0
C7 C 0.04075 0.37819 0.97495 0.0
N8 N 0.03724 0.386 0.98099 0.0
C9 C 0.04598 0.39925 0.95681 0.0
C10 C 0.04975 0.39139 0.95037 0.0
C11 C 0.04702 0.38075 0.95939 0.0
C12 C 0.03948 0.39605 0.97212 0.0
H13 H 0.03886 0.37012 0.98202 0.0
C14 C 0.02535 0.36116 0.01673 0.0
O15 O 0.98824 0.34476 0.01072 0.0
O16 O 0.99855 0.34795 0.98675 0.0
N17 N 0.02955 0.39968 0.99424 0.0
C18 C 0.02624 0.40685 0.00293 0.0
C19 C 0.02829 0.41781 0.9956 0.0
C20 C 0.0341 0.42151 0.97971 0.0
C21 C 0.03795 0.41427 0.97141 0.0
C22 C 0.03547 0.40333 0.97918 0.0
H23 H 0.02202 0.40423 0.01533 0.0
O24 O 0.9946 0.36777 0.99067 0.0
O25 O 0.01411 0.37453 0.99204 0.0
O26 O 0.00365 0.37085 0.02539 0.0
O27 O 0.02272 0.38614 0.02456 0.0
C28 C 0.04454 0.41771 0.95606 0.0
C29 C 0.04864 0.41026 0.94885 0.0
H30 H 0.0548 0.39345 0.93856 0.0
H31 H 0.04989 0.37464 0.9545 0.0
H32 H 0.0255 0.42346 0.00226 0.0
H33 H 0.03579 0.43004 0.97419 0.0
H34 H 0.04668 0.42616 0.94982 0.0
H35 H 0.05393 0.41315 0.93724 0.0
Mn36 Mn 0.64237 0.64011 0.01852 0.0
Mn37 Mn 0.64448 0.61467 0.0212 0.0
C38 C 0.62937 0.62449 0.0363 0.0
C39 C 0.64871 0.65994 0.0271 0.0
C40 C 0.63204 0.61991 0.99161 0.0
O41 O 0.65861 0.64516 0.00764 0.0
O42 O 0.65955 0.62814 0.01174 0.0
C43 C 0.66357 0.62295 0.04798 0.0
N44 N 0.65242 0.61467 0.04215 0.0
C45 C 0.6493 0.6018 0.06656 0.0
C46 C 0.66079 0.61014 0.07278 0.0
C47 C 0.66793 0.62079 0.06348 0.0
C48 C 0.64542 0.60448 0.05109 0.0
H49 H 0.6691 0.63112 0.04082 0.0
C50 C 0.6641 0.6391 0.00667 0.0
O51 O 0.64361 0.65589 0.01224 0.0
O52 O 0.65027 0.65251 0.03688 0.0
N53 N 0.63081 0.60069 0.03016 0.0
C54 C 0.61977 0.59384 0.02274 0.0
C55 C 0.6116 0.58277 0.03024 0.0
C56 C 0.61486 0.57886 0.04526 0.0
C57 C 0.62617 0.58616 0.05284 0.0
C58 C 0.63404 0.59697 0.04458 0.0
H59 H 0.61729 0.5967 0.01105 0.0
O60 O 0.62692 0.63277 0.03119 0.0
O61 O 0.63969 0.6258 0.03139 0.0
O62 O 0.63367 0.63003 0.99721 0.0
O63 O 0.63594 0.61363 0.9994 0.0
C64 C 0.62997 0.58311 0.06822 0.0
C65 C 0.64149 0.59098 0.07516 0.0
H66 H 0.66419 0.6085 0.08472 0.0
H67 H 0.67679 0.6273 0.06823 0.0
H68 H 0.60289 0.57719 0.02427 0.0
H69 H 0.60868 0.57017 0.05076 0.0
H70 H 0.62406 0.57481 0.07493 0.0
H71 H 0.64425 0.58863 0.08712 0.0
Mn72 Mn 0.35569 0.99882 0.0118 0.0
Mn73 Mn 0.38245 0.0243 0.01726 0.0
C74 C 0.37014 0.99868 0.02978 0.0
C75 C 0.33554 0.98678 0.01938 0.0
C76 C 0.37618 0.00827 0.98576 0.0
O77 O 0.35252 0.01196 0.00237 0.0
O78 O 0.3703 0.02851 0.00838 0.0
C79 C 0.3756 0.03494 0.04577 0.0
N80 N 0.3829 0.03094 0.0394 0.0
C81 C 0.39444 0.03592 0.06572 0.0
C82 C 0.38709 0.04016 0.07253 0.0
C83 C 0.37761 0.03964 0.06253 0.0
C84 C 0.39198 0.03131 0.04897 0.0
H85 H 0.36829 0.03452 0.03813 0.0
C86 C 0.35944 0.02339 0.00268 0.0
O87 O 0.33937 0.98591 0.00435 0.0
O88 O 0.34337 0.99477 0.02983 0.0
N89 N 0.39515 0.02176 0.0258 0.0
C90 C 0.40132 0.01716 0.0174 0.0
C91 C 0.41115 0.01711 0.02557 0.0
C92 C 0.41462 0.02189 0.0422 0.0
C93 C 0.4082 0.02665 0.05055 0.0
C94 C 0.39858 0.02661 0.04167 0.0
H95 H 0.39877 0.01356 0.00456 0.0
O96 O 0.36145 0.98863 0.02372 0.0
O97 O 0.36995 0.00849 0.0255 0.0
O98 O 0.36575 1.00016 0.99064 0.0
O99 O 0.38288 0.0178 0.99447 0.0
C100 C 0.41094 0.03139 0.06735 0.0
C101 C 0.40402 0.03596 0.07497 0.0
H102 H 0.3886 0.04378 0.08546 0.0
H103 H 0.37186 0.04285 0.06772 0.0
H104 H 0.41607 0.01343 0.01904 0.0
H105 H 0.42225 0.02189 0.04841 0.0
H106 H 0.41827 0.03146 0.07458 0.0
H107 H 0.40612 0.03946 0.08796 0.0
Mn108 Mn 0.00264 0.64334 0.002 0.0
Mn109 Mn 0.02999 0.64593 0.99611 0.0
C110 C 0.0045 0.63003 0.98379 0.0
C111 C 0.9884 0.64919 0.99524 0.0
C112 C 0.01445 0.63313 0.02671 0.0
O113 O 0.01394 0.65993 0.012 0.0
O114 O 0.03156 0.66048 0.00783 0.0
C115 C 0.03842 0.6659 0.97084 0.0
N116 N 0.03626 0.65462 0.97518 0.0
C117 C 0.04363 0.65223 0.948 0.0
C118 C 0.04602 0.66386 0.94327 0.0
C119 C 0.04336 0.67071 0.95473 0.0
C120 C 0.03864 0.64791 0.96418 0.0
H121 H 0.0364 0.6712 0.9796 0.0
C122 C 0.02535 0.66514 0.01333 0.0
O123 O 0.98839 0.64438 0.01001 0.0
O124 O 0.9967 0.65065 0.98448 0.0
N125 N 0.03042 0.63282 0.98497 0.0
C126 C 0.02762 0.6218 0.99155 0.0
C127 C 0.02994 0.61393 0.98185 0.0
C128 C 0.03522 0.61753 0.96561 0.0
C129 C 0.03811 0.62892 0.95915 0.0
C130 C 0.03575 0.63645 0.9695 0.0
H131 H 0.02369 0.61906 0.00412 0.0
O132 O 0.99414 0.62752 0.98998 0.0
O133 O 0.01354 0.64065 0.98772 0.0
O134 O 0.00587 0.63521 0.02279 0.0
O135 O 0.02386 0.63665 0.01756 0.0
C136 C 0.04327 0.63312 0.94289 0.0
C137 C 0.04596 0.64474 0.93726 0.0
H138 H 0.04985 0.66761 0.93087 0.0
H139 H 0.04513 0.67967 0.95116 0.0
H140 H 0.0278 0.60519 0.987 0.0
H141 H 0.0372 0.61158 0.95826 0.0
H142 H 0.04513 0.62745 0.93457 0.0
H143 H 0.04983 0.64785 0.92468 0.0
Mn144 Mn 0.36128 0.36461 0.01734 0.0
Mn145 Mn 0.38752 0.365 0.02527 0.0
C146 C 0.3749 0.37826 0.03691 0.0
C147 C 0.34088 0.35675 0.02326 0.0
C148 C 0.38285 0.37598 0.99329 0.0
O149 O 0.3584 0.34865 0.00722 0.0
O150 O 0.37555 0.34905 0.01552 0.0
C151 C 0.37941 0.34679 0.05313 0.0
N152 N 0.38707 0.35815 0.04736 0.0
C153 C 0.39786 0.36364 0.07432 0.0
C154 C 0.39014 0.35197 0.08053 0.0
C155 C 0.38086 0.34353 0.0699 0.0
C156 C 0.39598 0.36637 0.05751 0.0
H157 H 0.37225 0.34028 0.04501 0.0
C158 C 0.36505 0.34379 0.00854 0.0
O159 O 0.34535 0.36185 0.00861 0.0
O160 O 0.34819 0.35595 0.0342 0.0
N161 N 0.39998 0.3798 0.03485 0.0
C162 C 0.40637 0.3908 0.02714 0.0
C163 C 0.41596 0.40028 0.03607 0.0
C164 C 0.41896 0.39834 0.05276 0.0
C165 C 0.41228 0.38695 0.06042 0.0
C166 C 0.40291 0.3778 0.05081 0.0
H167 H 0.40417 0.39234 0.01428 0.0
O168 O 0.36661 0.38007 0.03008 0.0
O169 O 0.37481 0.36839 0.03238 0.0
O170 O 0.37232 0.37389 0.99726 0.0
O171 O 0.38899 0.37258 0.00254 0.0
C172 C 0.41448 0.38435 0.07726 0.0
C173 C 0.40724 0.37272 0.08424 0.0
H174 H 0.39121 0.34942 0.09346 0.0
H175 H 0.37483 0.33452 0.07462 0.0
H176 H 0.42107 0.40906 0.03009 0.0
H177 H 0.4264 0.40566 0.05956 0.0
H178 H 0.42161 0.39127 0.08504 0.0
H179 H 0.40891 0.37087 0.09729 0.0
Mn180 Mn 0.64386 0.00503 0.00605 0.0
Mn181 Mn 0.61767 0.97926 0.9987 0.0
C182 C 0.63021 0.00488 0.98614 0.0
C183 C 0.66425 0.01754 0.00026 0.0
C184 C 0.62221 0.99517 0.02999 0.0
O185 O 0.64686 0.99207 0.01679 0.0
O186 O 0.62963 0.97539 0.0092 0.0
C187 C 0.62603 0.96882 0.9718 0.0
N188 N 0.61829 0.97261 0.97704 0.0
C189 C 0.60763 0.96699 0.94997 0.0
C190 C 0.61544 0.96296 0.94432 0.0
C191 C 0.6247 0.96391 0.95527 0.0
C192 C 0.60941 0.97181 0.96657 0.0
H193 H 0.63316 0.96955 0.98018 0.0
C194 C 0.64016 0.9806 0.0161 0.0
O195 O 0.65965 0.01825 0.01472 0.0
O196 O 0.65709 0.00936 0.98943 0.0
N197 N 0.6052 0.9815 0.98849 0.0
C198 C 0.59869 0.98618 0.99568 0.0
C199 C 0.58908 0.98593 0.9864 0.0
C200 C 0.58619 0.98079 0.9699 0.0
C201 C 0.59299 0.97602 0.96277 0.0
C202 C 0.60238 0.97638 0.97272 0.0
H203 H 0.60079 0.99003 0.00842 0.0
O204 O 0.63842 0.01499 0.99275 0.0
O205 O 0.63038 0.99518 0.9911 0.0
O206 O 0.63275 0.00346 0.02591 0.0
O207 O 0.61605 0.98564 0.02101 0.0
C208 C 0.59091 0.97102 0.94613 0.0
C209 C 0.59826 0.96657 0.93971 0.0
H210 H 0.61447 0.95919 0.93157 0.0
H211 H 0.6308 0.96087 0.95098 0.0
H212 H 0.58387 0.98964 0.99197 0.0
H213 H 0.57872 0.98055 0.96283 0.0
H214 H 0.58378 0.97071 0.9381 0.0
H215 H 0.59668 0.96289 0.92681 0.0
Mn216 Mn 0.66827 0.69445 0.33879 0.0
Mn217 Mn 0.69532 0.71999 0.33752 0.0
C218 C 0.67071 0.71031 0.32143 0.0
C219 C 0.65494 0.67481 0.32962 0.0
C220 C 0.67748 0.71458 0.36601 0.0
O221 O 0.67947 0.68907 0.34953 0.0
O222 O 0.69692 0.70661 0.34812 0.0
C223 C 0.70662 0.71138 0.31231 0.0
N224 N 0.70353 0.71973 0.31729 0.0
C225 C 0.71319 0.73219 0.2927 0.0
C226 C 0.71654 0.72376 0.28734 0.0
C227 C 0.71319 0.71329 0.29715 0.0
C228 C 0.70657 0.72976 0.30785 0.0
H229 H 0.7041 0.70334 0.31985 0.0
C230 C 0.69076 0.69544 0.35218 0.0
O231 O 0.65395 0.67868 0.34458 0.0
O232 O 0.6638 0.6823 0.32008 0.0
N233 N 0.69563 0.73394 0.32772 0.0
C234 C 0.69139 0.74098 0.33444 0.0
C235 C 0.69412 0.75191 0.32635 0.0
C236 C 0.70123 0.75551 0.31151 0.0
C237 C 0.70539 0.74807 0.30474 0.0
C238 C 0.70256 0.73738 0.31354 0.0
H239 H 0.68612 0.73836 0.34603 0.0
O240 O 0.6601 0.70205 0.32623 0.0
O241 O 0.67974 0.7089 0.32648 0.0
O242 O 0.66949 0.70426 0.36035 0.0
O243 O 0.68747 0.72118 0.35848 0.0
C244 C 0.71224 0.75084 0.28964 0.0
C245 C 0.71606 0.74286 0.28355 0.0
H246 H 0.72163 0.72521 0.27568 0.0
H247 H 0.71571 0.70672 0.29307 0.0
H248 H 0.69092 0.75762 0.33171 0.0
H249 H 0.70361 0.76408 0.30555 0.0
H250 H 0.71453 0.75903 0.28253 0.0
H251 H 0.7212 0.74501 0.27181 0.0
Mn252 Mn 0.30638 0.97335 0.34672 0.0
Mn253 Mn 0.30706 0.94733 0.35239 0.0
C254 C 0.29239 0.95841 0.36446 0.0
C255 C 0.31266 0.99339 0.35407 0.0
C256 C 0.29591 0.95224 0.32104 0.0
O257 O 0.32302 0.97776 0.33782 0.0
O258 O 0.32233 0.95997 0.34227 0.0
C259 C 0.32604 0.95623 0.37938 0.0
N260 N 0.31479 0.948 0.37384 0.0
C261 C 0.31113 0.93621 0.39961 0.0
C262 C 0.32271 0.94452 0.40558 0.0
C263 C 0.33017 0.95461 0.39545 0.0
C264 C 0.30749 0.93835 0.38356 0.0
H265 H 0.33182 0.96396 0.37159 0.0
C266 C 0.32771 0.97095 0.33711 0.0
O267 O 0.30844 0.98921 0.33885 0.0
O268 O 0.31354 0.98602 0.36483 0.0
N269 N 0.29311 0.93405 0.36207 0.0
C270 C 0.28207 0.92711 0.35467 0.0
C271 C 0.2736 0.91654 0.36298 0.0
C272 C 0.27658 0.91318 0.37873 0.0
C273 C 0.28791 0.92055 0.38622 0.0
C274 C 0.29607 0.93085 0.37719 0.0
H275 H 0.27983 0.92952 0.34239 0.0
O276 O 0.29039 0.96666 0.35787 0.0
O277 O 0.30273 0.95925 0.36083 0.0
O278 O 0.29836 0.96291 0.32532 0.0
O279 O 0.29876 0.94568 0.33025 0.0
C280 C 0.29146 0.91805 0.40224 0.0
C281 C 0.30303 0.92593 0.409 0.0
H282 H 0.32594 0.94329 0.41794 0.0
H283 H 0.3391 0.96109 0.39998 0.0
H284 H 0.26488 0.91089 0.35708 0.0
H285 H 0.27019 0.90485 0.38487 0.0
H286 H 0.28531 0.91015 0.40955 0.0
H287 H 0.3056 0.924 0.42144 0.0
Mn288 Mn 0.0231 0.32992 0.34751 0.0
Mn289 Mn 0.04929 0.35603 0.35293 0.0
C290 C 0.03719 0.33104 0.36736 0.0
C291 C 0.00284 0.31697 0.3538 0.0
C292 C 0.04531 0.33849 0.32446 0.0
O293 O 0.01933 0.34209 0.3361 0.0
O294 O 0.03769 0.35847 0.33847 0.0
C295 C 0.03901 0.36813 0.37378 0.0
N296 N 0.04716 0.36425 0.37195 0.0
C297 C 0.05623 0.37259 0.39942 0.0
C298 C 0.04794 0.37668 0.40157 0.0
C299 C 0.03928 0.37441 0.38871 0.0
C300 C 0.05544 0.36626 0.38434 0.0
H301 H 0.03236 0.36649 0.36393 0.0
C302 C 0.02673 0.35319 0.33321 0.0
O303 O 0.00744 0.3162 0.33938 0.0
O304 O 0.00993 0.32543 0.36434 0.0
N305 N 0.06161 0.35563 0.36673 0.0
C306 C 0.06936 0.35165 0.36233 0.0
C307 C 0.0787 0.3534 0.3737 0.0
C308 C 0.0802 0.35953 0.38927 0.0
C309 C 0.07239 0.36394 0.39327 0.0
C310 C 0.06321 0.36186 0.38147 0.0
H311 H 0.06839 0.34714 0.35027 0.0
O312 O 0.02914 0.3207 0.36119 0.0
O313 O 0.03668 0.34052 0.36207 0.0
O314 O 0.03416 0.33142 0.32745 0.0
O315 O 0.05212 0.34777 0.33358 0.0
C316 C 0.07344 0.3704 0.40844 0.0
C317 C 0.06529 0.37463 0.41158 0.0
H318 H 0.04817 0.3816 0.41302 0.0
H319 H 0.03286 0.37756 0.39026 0.0
H320 H 0.08477 0.35008 0.37042 0.0
H321 H 0.08743 0.36088 0.398 0.0
H322 H 0.08049 0.3722 0.41777 0.0
H323 H 0.06615 0.37954 0.42332 0.0
Mn324 Mn 0.66723 0.97602 0.33656 0.0
Mn325 Mn 0.69325 0.97542 0.3321 0.0
C326 C 0.66804 0.96232 0.31799 0.0
C327 C 0.65466 0.98382 0.32903 0.0
C328 C 0.67672 0.9645 0.36257 0.0
O329 O 0.67976 0.99204 0.34699 0.0
O330 O 0.6967 0.99128 0.34177 0.0
C331 C 0.7042 0.9939 0.3048 0.0
N332 N 0.70041 0.98247 0.31059 0.0
C333 C 0.70683 0.97719 0.28466 0.0
C334 C 0.71088 0.98893 0.27845 0.0
C335 C 0.70952 0.99731 0.28854 0.0
C336 C 0.7016 0.97432 0.30094 0.0
H337 H 0.70315 1.00035 0.31252 0.0
C338 C 0.69118 0.99667 0.34743 0.0
O339 O 0.65389 0.97879 0.34388 0.0
O340 O 0.66292 0.98454 0.31872 0.0
N341 N 0.69145 0.96068 0.32292 0.0
C342 C 0.68668 0.9496 0.33054 0.0
C343 C 0.68725 0.94017 0.32209 0.0
C344 C 0.6928 0.94224 0.306 0.0
C345 C 0.6977 0.95372 0.29846 0.0
C346 C 0.69699 0.96282 0.30757 0.0
H347 H 0.68248 0.94797 0.34296 0.0
O348 O 0.65778 0.96051 0.32374 0.0
O349 O 0.67752 0.97221 0.32301 0.0
O350 O 0.66854 0.96683 0.35747 0.0
O351 O 0.6864 0.96767 0.35429 0.0
C352 C 0.70312 0.95647 0.28217 0.0
C353 C 0.70764 0.96818 0.27524 0.0
H354 H 0.71497 0.99159 0.2659 0.0
H355 H 0.71257 0.00637 0.2838 0.0
H356 H 0.68344 0.93133 0.328 0.0
H357 H 0.69325 0.93496 0.29956 0.0
H358 H 0.70372 0.94959 0.27476 0.0
H359 H 0.71164 0.97014 0.2626 0.0
Mn360 Mn 0.02771 0.69684 0.35184 0.0
Mn361 Mn 0.05459 0.6981 0.35758 0.0
C362 C 0.04173 0.71071 0.37083 0.0
C363 C 0.00744 0.68864 0.3588 0.0
C364 C 0.0485 0.70869 0.32648 0.0
O365 O 0.02493 0.68095 0.34145 0.0
O366 O 0.04266 0.68205 0.34811 0.0
C367 C 0.04778 0.67989 0.38527 0.0
N368 N 0.05501 0.69131 0.37937 0.0
C369 C 0.06665 0.69701 0.40562 0.0
C370 C 0.05938 0.68527 0.41194 0.0
C371 C 0.04988 0.67669 0.40173 0.0
C372 C 0.06413 0.69966 0.38912 0.0
H373 H 0.04046 0.67328 0.37748 0.0
C374 C 0.03193 0.67645 0.34191 0.0
O375 O 0.01148 0.69365 0.34396 0.0
O376 O 0.0151 0.6881 0.36935 0.0
N377 N 0.06704 0.71305 0.36679 0.0
C378 C 0.07292 0.7241 0.35907 0.0
C379 C 0.08264 0.73372 0.36761 0.0
C380 C 0.08627 0.73187 0.38391 0.0
C381 C 0.08011 0.72043 0.39159 0.0
C382 C 0.07059 0.71114 0.38237 0.0
H383 H 0.07024 0.72556 0.34648 0.0
O384 O 0.03312 0.71229 0.36467 0.0
O385 O 0.04177 0.70097 0.36594 0.0
O386 O 0.038 0.70621 0.33126 0.0
O387 O 0.05519 0.70565 0.33505 0.0
C388 C 0.08296 0.71791 0.4081 0.0
C389 C 0.0762 0.70622 0.41514 0.0
H390 H 0.06095 0.68278 0.42464 0.0
H391 H 0.04419 0.66763 0.40655 0.0
H392 H 0.08734 0.74253 0.36161 0.0
H393 H 0.0938 0.7393 0.39042 0.0
H394 H 0.09022 0.72493 0.41558 0.0
H395 H 0.07836 0.70443 0.42794 0.0
Mn396 Mn 0.30634 0.33595 0.33836 0.0
Mn397 Mn 0.28107 0.30919 0.33184 0.0
C398 C 0.29143 0.33493 0.32006 0.0
C399 C 0.32632 0.34975 0.33171 0.0
C400 C 0.28462 0.32497 0.36267 0.0
O401 O 0.31111 0.324 0.34805 0.0
O402 O 0.29361 0.30693 0.34386 0.0
C403 C 0.29186 0.29981 0.30695 0.0
N404 N 0.2831 0.30251 0.31104 0.0
C405 C 0.27306 0.29496 0.28386 0.0
C406 C 0.28193 0.29203 0.27939 0.0
C407 C 0.29139 0.29452 0.29096 0.0
C408 C 0.27405 0.3003 0.29992 0.0
H409 H 0.29913 0.30168 0.31581 0.0
C410 C 0.30449 0.31259 0.34937 0.0
O411 O 0.32188 0.34978 0.34664 0.0
O412 O 0.31921 0.34157 0.32084 0.0
N413 N 0.2679 0.3094 0.32032 0.0
C414 C 0.26011 0.31283 0.32657 0.0
C415 C 0.25 0.31074 0.31672 0.0
C416 C 0.24796 0.30506 0.30065 0.0
C417 C 0.25606 0.3016 0.29448 0.0
C418 C 0.26588 0.30374 0.30497 0.0
H419 H 0.26158 0.31707 0.33901 0.0
O420 O 0.29947 0.34513 0.32665 0.0
O421 O 0.2926 0.32553 0.32375 0.0
O422 O 0.2954 0.33307 0.35916 0.0
O423 O 0.27832 0.31575 0.35317 0.0
C424 C 0.25476 0.29608 0.27835 0.0
C425 C 0.26331 0.29283 0.27299 0.0
H426 H 0.28158 0.28792 0.26709 0.0
H427 H 0.29829 0.29232 0.28759 0.0
H428 H 0.24373 0.31335 0.32163 0.0
H429 H 0.24007 0.3032 0.29321 0.0
H430 H 0.24727 0.29436 0.26993 0.0
H431 H 0.26228 0.28869 0.26051 0.0
Mn432 Mn 0.33597 0.03009 0.67292 0.0
Mn433 Mn 0.36278 0.05575 0.67203 0.0
C434 C 0.3391 0.04524 0.65343 0.0
C435 C 0.32347 0.01007 0.66446 0.0
C436 C 0.34411 0.05007 0.69965 0.0
O437 O 0.34713 0.0257 0.68638 0.0
O438 O 0.36495 0.04245 0.68166 0.0
C439 C 0.37564 0.04917 0.64659 0.0
N440 N 0.37132 0.05654 0.65164 0.0
C441 C 0.38095 0.0701 0.62804 0.0
C442 C 0.38554 0.06268 0.62261 0.0
C443 C 0.38277 0.0521 0.63182 0.0
C444 C 0.37361 0.06652 0.64255 0.0
H445 H 0.37375 0.04118 0.65388 0.0
C446 C 0.35862 0.03167 0.68742 0.0
O447 O 0.32162 0.0143 0.67854 0.0
O448 O 0.33275 0.0174 0.65546 0.0
N449 N 0.36206 0.06938 0.66294 0.0
C450 C 0.35748 0.07592 0.67038 0.0
C451 C 0.35926 0.08665 0.66256 0.0
C452 C 0.36603 0.09075 0.64747 0.0
C453 C 0.37101 0.0841 0.64039 0.0
C454 C 0.36873 0.07334 0.64855 0.0
H455 H 0.35249 0.07299 0.68218 0.0
O456 O 0.32827 0.03702 0.65744 0.0
O457 O 0.34774 0.04416 0.66061 0.0
O458 O 0.33583 0.04034 0.69297 0.0
O459 O 0.35464 0.05605 0.69334 0.0
C460 C 0.37849 0.08795 0.6259 0.0
C461 C 0.38358 0.08104 0.61988 0.0
H462 H 0.39124 0.06504 0.61142 0.0
H463 H 0.38628 0.04633 0.62771 0.0
H464 H 0.35553 0.09182 0.66826 0.0
H465 H 0.36752 0.09911 0.64158 0.0
H466 H 0.38056 0.09631 0.61945 0.0
H467 H 0.38961 0.08432 0.60906 0.0
Mn468 Mn 0.97436 0.30872 0.6801 0.0
Mn469 Mn 0.97613 0.28308 0.68227 0.0
C470 C 0.96152 0.29317 0.69805 0.0
C471 C 0.98057 0.32853 0.6885 0.0
C472 C 0.96315 0.28824 0.65354 0.0
O473 O 0.99056 0.31378 0.66904 0.0
O474 O 0.9908 0.2963 0.67161 0.0
C475 C 0.99627 0.29169 0.70741 0.0
N476 N 0.98483 0.28344 0.70259 0.0
C477 C 0.9825 0.27114 0.72742 0.0
C478 C 0.99427 0.27948 0.73264 0.0
C479 C 1.00117 0.28982 0.72261 0.0
C480 C 0.97808 0.27353 0.71221 0.0
H481 H 0.00162 0.29961 0.69969 0.0
C482 C 0.99559 0.30737 0.66697 0.0
O483 O 0.97542 0.32438 0.67371 0.0
O484 O 0.98234 0.32125 0.69832 0.0
N485 N 0.96279 0.26931 0.69226 0.0
C486 C 0.95154 0.26227 0.68555 0.0
C487 C 0.94359 0.25143 0.69378 0.0
C488 C 0.94731 0.2479 0.70875 0.0
C489 C 0.95887 0.25535 0.71551 0.0
C490 C 0.96648 0.26594 0.70658 0.0
H491 H 0.94873 0.26481 0.67386 0.0
O492 O 0.95902 0.30143 0.69301 0.0
O493 O 0.97179 0.29443 0.69294 0.0
O494 O 0.96539 0.2986 0.65896 0.0
O495 O 0.96684 0.28174 0.6612 0.0
C496 C 0.96317 0.25264 0.73071 0.0
C497 C 0.97495 0.26058 0.73673 0.0
H498 H 0.99808 0.27805 0.74432 0.0
H499 H 0.01025 0.29631 0.72655 0.0
H500 H 0.9347 0.24571 0.68841 0.0
H501 H 0.94132 0.23938 0.71481 0.0
H502 H 0.95747 0.24452 0.73793 0.0
H503 H 0.97812 0.25847 0.74851 0.0
Mn504 Mn 0.69313 0.6664 0.67654 0.0
Mn505 Mn 0.71829 0.69379 0.67648 0.0
C506 C 0.7088 0.67013 0.69539 0.0
C507 C 0.67345 0.65374 0.68567 0.0
C508 C 0.71283 0.67456 0.64952 0.0
O509 O 0.68792 0.67696 0.66324 0.0
O510 O 0.70463 0.69505 0.66637 0.0
C511 C 0.71082 0.70641 0.70116 0.0
N512 N 0.71863 0.70256 0.69653 0.0
C513 C 0.73175 0.71286 0.72045 0.0
C514 C 0.72386 0.71696 0.72548 0.0
C515 C 0.7133 0.71364 0.71587 0.0
C516 C 0.72863 0.7054 0.70597 0.0
H517 H 0.70282 0.70407 0.69361 0.0
C518 C 0.69374 0.68841 0.66128 0.0
O519 O 0.67742 0.65167 0.67153 0.0
O520 O 0.68087 0.66324 0.69441 0.0
N521 N 0.73241 0.69423 0.68585 0.0
C522 C 0.73975 0.69072 0.6782 0.0
C523 C 0.75073 0.69341 0.68612 0.0
C524 C 0.7543 0.70011 0.70143 0.0
C525 C 0.74692 0.70422 0.70854 0.0
C526 C 0.73596 0.70106 0.70026 0.0
H527 H 0.73723 0.68583 0.6662 0.0
O528 O 0.70062 0.65916 0.69169 0.0
O529 O 0.70736 0.67866 0.68836 0.0
O530 O 0.70313 0.66632 0.65618 0.0
O531 O 0.71883 0.68524 0.65566 0.0
C532 C 0.75027 0.71176 0.7231 0.0
C533 C 0.74272 0.71613 0.72899 0.0
H534 H 0.72586 0.72273 0.73663 0.0
H535 H 0.70718 0.71679 0.71964 0.0
H536 H 0.7565 0.69044 0.68032 0.0
H537 H 0.76284 0.70231 0.70739 0.0
H538 H 0.75872 0.7144 0.72971 0.0
H539 H 0.74551 0.72209 0.74002 0.0
Mn540 Mn 0.33626 0.31162 0.66997 0.0
Mn541 Mn 0.36224 0.31149 0.66256 0.0
C542 C 0.3364 0.29767 0.65113 0.0
C543 C 0.32317 0.31901 0.66362 0.0
C544 C 0.34734 0.30094 0.69471 0.0
O545 O 0.34906 0.3279 0.67947 0.0
O546 O 0.3658 0.32748 0.67181 0.0
C547 C 0.37131 0.32933 0.63421 0.0
N548 N 0.36816 0.31812 0.64036 0.0
C549 C 0.37364 0.31253 0.61384 0.0
C550 C 0.37702 0.32405 0.60725 0.0
C551 C 0.37581 0.33246 0.61746 0.0
C552 C 0.36918 0.30992 0.6306 0.0
H553 H 0.37038 0.33581 0.64201 0.0
C554 C 0.36048 0.3328 0.67832 0.0
O555 O 0.3231 0.31434 0.67854 0.0
O556 O 0.33102 0.31965 0.65264 0.0
N557 N 0.36036 0.29669 0.65349 0.0
C558 C 0.35626 0.28583 0.66152 0.0
C559 C 0.35683 0.2764 0.65305 0.0
C560 C 0.36171 0.27827 0.6365 0.0
C561 C 0.36587 0.28952 0.62849 0.0
C562 C 0.36521 0.29862 0.63764 0.0
H563 H 0.3526 0.28436 0.6743 0.0
O564 O 0.3264 0.29583 0.65791 0.0
O565 O 0.34599 0.30773 0.65529 0.0
O566 O 0.33878 0.30294 0.69055 0.0
O567 O 0.35664 0.30416 0.68545 0.0
C568 C 0.37053 0.29201 0.61172 0.0
C569 C 0.37435 0.30349 0.60436 0.0
H570 H 0.38048 0.3265 0.59433 0.0
H571 H 0.37835 0.34135 0.61243 0.0
H572 H 0.35358 0.26774 0.6593 0.0
H573 H 0.36223 0.27102 0.63008 0.0
H574 H 0.37106 0.28512 0.60428 0.0
H575 H 0.37775 0.30525 0.59137 0.0
Mn576 Mn 0.69296 0.02851 0.68324 0.0
Mn577 Mn 0.71911 0.02859 0.69096 0.0
C578 C 0.70643 0.04162 0.70347 0.0
C579 C 0.67248 0.02068 0.68856 0.0
C580 C 0.71474 0.04028 0.65956 0.0
O581 O 0.6901 0.01275 0.6723 0.0
O582 O 0.70714 0.01288 0.68062 0.0
C583 C 0.7108 0.0098 0.71802 0.0
N584 N 0.71855 0.02125 0.71268 0.0
C585 C 0.72943 0.02603 0.73956 0.0
C586 C 0.72162 0.01426 0.74531 0.0
C587 C 0.71225 0.00612 0.73451 0.0
C588 C 0.72755 0.02918 0.723 0.0
H589 H 0.70358 0.00353 0.70976 0.0
C590 C 0.6967 0.0078 0.67345 0.0
O591 O 0.67726 0.02618 0.67426 0.0
O592 O 0.67953 0.01948 0.69955 0.0
N593 N 0.73157 0.04316 0.7011 0.0
C594 C 0.73791 0.05436 0.69395 0.0
C595 C 0.74751 0.06362 0.7032 0.0
C596 C 0.75055 0.06125 0.71961 0.0
C597 C 0.74392 0.04965 0.72667 0.0
C598 C 0.73453 0.04075 0.71679 0.0
H599 H 0.73568 0.05622 0.68129 0.0
O600 O 0.69825 0.04365 0.69676 0.0
O601 O 0.70634 0.03184 0.69843 0.0
O602 O 0.70423 0.03822 0.66362 0.0
O603 O 0.72078 0.03665 0.66855 0.0
C604 C 0.74613 0.04662 0.74325 0.0
C605 C 0.73886 0.03484 0.74972 0.0
H606 H 0.72268 0.0114 0.75804 0.0
H607 H 0.70615 0.99704 0.7389 0.0
H608 H 0.75256 0.07256 0.69767 0.0
H609 H 0.75796 0.06841 0.72669 0.0
H610 H 0.75328 0.05335 0.75124 0.0
H611 H 0.74053 0.03267 0.76258 0.0
Mn612 Mn 0.97653 0.67503 0.67384 0.0
Mn613 Mn 0.95025 0.649 0.66825 0.0
C614 C 0.96247 0.67411 0.65404 0.0
C615 C 0.99676 0.68775 0.66728 0.0
C616 C 0.955 0.66595 0.69816 0.0
O617 O 0.98004 0.66256 0.68508 0.0
O618 O 0.96223 0.64578 0.68015 0.0
C619 C 0.9589 0.63751 0.64341 0.0
N620 N 0.95104 0.64139 0.64759 0.0
C621 C 0.94043 0.63432 0.62066 0.0
C622 C 0.94837 0.63018 0.6161 0.0
C623 C 0.95767 0.63182 0.62751 0.0
C624 C 0.94212 0.63995 0.63666 0.0
H625 H 0.96606 0.63876 0.65214 0.0
C626 C 0.97301 0.65117 0.68618 0.0
O627 O 0.99232 0.68857 0.68182 0.0
O628 O 0.98954 0.67929 0.65682 0.0
N629 N 0.93769 0.65053 0.65692 0.0
C630 C 0.931 0.65534 0.66307 0.0
C631 C 0.92128 0.6544 0.65327 0.0
C632 C 0.91847 0.64845 0.63734 0.0
C633 C 0.92545 0.64355 0.63128 0.0
C634 C 0.93494 0.64462 0.64172 0.0
H635 H 0.93307 0.65985 0.67537 0.0
O636 O 0.97061 0.68443 0.66019 0.0
O637 O 0.96285 0.66461 0.65949 0.0
O638 O 0.96573 0.67377 0.69401 0.0
O639 O 0.94849 0.65636 0.68947 0.0
C640 C 0.92345 0.63775 0.61524 0.0
C641 C 0.93097 0.63319 0.60989 0.0
H642 H 0.94745 0.62579 0.60385 0.0
H643 H 0.96386 0.62869 0.62405 0.0
H644 H 0.91594 0.65822 0.65801 0.0
H645 H 0.91091 0.64767 0.62989 0.0
H646 H 0.91624 0.63687 0.60683 0.0
H647 H 0.92944 0.62888 0.59744 0.0
H648 H 0.23296 0.36769 0.14187 0.0
N649 N 0.21157 0.3504 0.13091 0.0
H650 H 0.24353 0.3681 0.16867 0.0
H651 H 0.20231 0.33413 0.15786 0.0
H652 H 0.21264 0.33488 0.18469 0.0
H653 H 0.21579 0.3313 0.12962 0.0
H654 H 0.22921 0.32918 0.10961 0.0
H655 H 0.21987 0.36241 0.10168 0.0
H656 H 0.23283 0.36003 0.08099 0.0
H657 H 0.20013 0.36304 0.1307 0.0
H658 H 0.19403 0.32662 0.12862 0.0
H659 H 0.17845 0.35543 0.13044 0.0
H660 H 0.17234 0.31879 0.12958 0.0
H661 H 0.12032 0.33685 0.14721 0.0
H662 H 0.11032 0.33825 0.17278 0.0
H663 H 0.10413 0.3032 0.1893 0.0
H664 H 0.11406 0.3017 0.16326 0.0
H665 H 0.10216 0.29973 0.12281 0.0
H666 H 0.08912 0.30198 0.1016 0.0
H667 H 0.11478 0.34015 0.09787 0.0
H668 H 0.12796 0.33764 0.11836 0.0
H669 H 0.14042 0.33869 0.15025 0.0
H670 H 0.16183 0.34633 0.14782 0.0
H671 H 0.1549 0.3158 0.11583 0.0
N672 N 0.12221 0.31718 0.13699 0.0
H673 H 0.13329 0.30774 0.11942 0.0
C674 C 0.21678 0.351 0.14775 0.0
C675 C 0.22841 0.36058 0.15126 0.0
C676 C 0.23444 0.3608 0.16647 0.0
C677 C 0.22882 0.35155 0.17863 0.0
C678 C 0.21707 0.34216 0.17548 0.0
C679 C 0.21115 0.34177 0.16009 0.0
C680 C 0.21702 0.34718 0.11726 0.0
C681 C 0.21928 0.33745 0.11883 0.0
C682 C 0.22695 0.33623 0.1073 0.0
C683 C 0.23235 0.3446 0.09385 0.0
C684 C 0.22913 0.35363 0.09147 0.0
C685 C 0.22161 0.35493 0.10313 0.0
C686 C 0.19869 0.34544 0.12985 0.0
C687 C 0.19406 0.35338 0.13026 0.0
C688 C 0.18164 0.34897 0.13031 0.0
C689 C 0.17351 0.33644 0.13027 0.0
C690 C 0.17822 0.32848 0.12942 0.0
C691 C 0.19067 0.33294 0.12901 0.0
C692 C 0.11785 0.31904 0.15315 0.0
C693 C 0.11689 0.32944 0.15626 0.0
C694 C 0.11113 0.33025 0.17091 0.0
C695 C 0.10631 0.32077 0.18289 0.0
C696 C 0.10778 0.31065 0.18026 0.0
C697 C 0.11345 0.30978 0.16545 0.0
C698 C 0.11595 0.31848 0.12226 0.0
C699 C 0.10508 0.30849 0.11701 0.0
C700 C 0.09759 0.30985 0.10506 0.0
C701 C 0.10076 0.3213 0.09823 0.0
C702 C 0.11204 0.33118 0.10272 0.0
C703 C 0.1196 0.32977 0.11454 0.0
C704 C 0.13511 0.32242 0.13524 0.0
C705 C 0.1434 0.33352 0.14282 0.0
C706 C 0.15578 0.33801 0.14121 0.0
C707 C 0.16025 0.33173 0.13162 0.0
C708 C 0.15191 0.32081 0.12364 0.0
C709 C 0.13952 0.31621 0.12554 0.0
H710 H 0.70201 0.80063 0.15147 0.0
N711 N 0.68719 0.80436 0.13158 0.0
H712 H 0.69743 0.78969 0.17877 0.0
H713 H 0.66601 0.79532 0.14887 0.0
H714 H 0.66126 0.78425 0.17625 0.0
H715 H 0.66476 0.78757 0.12015 0.0
H716 H 0.66029 0.77079 0.10077 0.0
H717 H 0.70272 0.80209 0.11178 0.0
H718 H 0.69833 0.78531 0.0923 0.0
H719 H 0.70342 0.82558 0.14391 0.0
H720 H 0.66984 0.8081 0.1158 0.0
H721 H 0.70309 0.84452 0.1433 0.0
H722 H 0.66979 0.82724 0.11398 0.0
H723 H 0.70309 0.90279 0.14948 0.0
H724 H 0.69981 0.91075 0.17618 0.0
H725 H 0.66455 0.87916 0.18023 0.0
H726 H 0.66775 0.87158 0.15332 0.0
H727 H 0.66443 0.87813 0.12471 0.0
H728 H 0.6588 0.88964 0.10518 0.0
H729 H 0.69587 0.91076 0.08935 0.0
H730 H 0.70144 0.89941 0.10943 0.0
H731 H 0.70602 0.87972 0.12916 0.0
H732 H 0.70592 0.86057 0.12666 0.0
H733 H 0.66699 0.84148 0.12882 0.0
N734 N 0.6874 0.88324 0.13239 0.0
H735 H 0.66728 0.86079 0.12973 0.0
C736 C 0.68437 0.79873 0.14822 0.0
C737 C 0.69315 0.7972 0.15696 0.0
C738 C 0.69052 0.79099 0.17254 0.0
C739 C 0.67898 0.78612 0.17966 0.0
C740 C 0.67019 0.78782 0.17099 0.0
C741 C 0.67289 0.79414 0.15541 0.0
C742 C 0.68412 0.79616 0.11732 0.0
C743 C 0.67212 0.7874 0.11367 0.0
C744 C 0.66958 0.77777 0.1026 0.0
C745 C 0.67897 0.77667 0.09515 0.0
C746 C 0.69091 0.78585 0.098 0.0
C747 C 0.69343 0.7955 0.10895 0.0
C748 C 0.68679 0.81545 0.12978 0.0
C749 C 0.69608 0.82592 0.1373 0.0
C750 C 0.69591 0.83679 0.13677 0.0
C751 C 0.68649 0.83758 0.12836 0.0
C752 C 0.67714 0.82703 0.12073 0.0
C753 C 0.67722 0.81604 0.12158 0.0
C754 C 0.68576 0.88659 0.1494 0.0
C755 C 0.69476 0.89751 0.15634 0.0
C756 C 0.69286 0.90201 0.17163 0.0
C757 C 0.68187 0.89563 0.18036 0.0
C758 C 0.67304 0.88442 0.17372 0.0
C759 C 0.67492 0.87997 0.15836 0.0
C760 C 0.6834 0.88799 0.11855 0.0
C761 C 0.67129 0.88504 0.11677 0.0
C762 C 0.66809 0.89165 0.10553 0.0
C763 C 0.67692 0.90126 0.09585 0.0
C764 C 0.68889 0.9036 0.09687 0.0
C765 C 0.69207 0.89704 0.10816 0.0
C766 C 0.68673 0.8717 0.13009 0.0
C767 C 0.69749 0.87137 0.12893 0.0
C768 C 0.69738 0.86037 0.1277 0.0
C769 C 0.68645 0.84934 0.12798 0.0
C770 C 0.6756 0.84972 0.12853 0.0
C771 C 0.67574 0.8608 0.12936 0.0
H772 H 0.11858 0.7874 0.14692 0.0
N773 N 0.11676 0.80686 0.13537 0.0
H774 H 0.11069 0.77647 0.17368 0.0
H775 H 0.10704 0.81282 0.16103 0.0
H776 H 0.09913 0.80189 0.18813 0.0
H777 H 0.0945 0.79899 0.12392 0.0
H778 H 0.08292 0.78223 0.10429 0.0
H779 H 0.12595 0.79548 0.11565 0.0
H780 H 0.11466 0.77913 0.09528 0.0
H781 H 0.13709 0.80616 0.14622 0.0
H782 H 0.12488 0.82796 0.11939 0.0
H783 H 0.15774 0.82214 0.14362 0.0
H784 H 0.14578 0.84388 0.11571 0.0
H785 H 0.22023 0.86965 0.14545 0.0
H786 H 0.23102 0.88 0.17169 0.0
H787 H 0.20825 0.89614 0.17599 0.0
H788 H 0.19784 0.88608 0.14953 0.0
H789 H 0.20191 0.89209 0.11978 0.0
H790 H 0.21498 0.90745 0.09915 0.0
H791 H 0.23058 0.88523 0.08568 0.0
H792 H 0.21742 0.86994 0.10627 0.0
H793 H 0.19481 0.84846 0.12563 0.0
H794 H 0.17383 0.83234 0.12529 0.0
H795 H 0.16245 0.85908 0.13032 0.0
N796 N 0.20321 0.87198 0.12895 0.0
H797 H 0.18341 0.87507 0.12938 0.0
C798 C 0.11346 0.80103 0.15198 0.0
C799 C 0.11455 0.79079 0.15593 0.0
C800 C 0.11005 0.78453 0.1713 0.0
C801 C 0.10426 0.78829 0.18303 0.0
C802 C 0.10344 0.7987 0.17927 0.0
C803 C 0.10803 0.80501 0.1639 0.0
C804 C 0.11107 0.79856 0.12126 0.0
C805 C 0.099 0.79484 0.11741 0.0
C806 C 0.0924 0.78526 0.10611 0.0
C807 C 0.09779 0.7792 0.09822 0.0
C808 C 0.11012 0.78339 0.10136 0.0
C809 C 0.11667 0.7929 0.11286 0.0
C810 C 0.12928 0.81589 0.13325 0.0
C811 C 0.13879 0.81434 0.13965 0.0
C812 C 0.15073 0.82353 0.13794 0.0
C813 C 0.15355 0.83441 0.12945 0.0
C814 C 0.14402 0.83578 0.12264 0.0
C815 C 0.13206 0.82664 0.12459 0.0
C816 C 0.20819 0.87698 0.14557 0.0
C817 C 0.21747 0.87527 0.15226 0.0
C818 C 0.22359 0.88118 0.16728 0.0
C819 C 0.22052 0.88894 0.17598 0.0
C820 C 0.21096 0.89037 0.16951 0.0
C821 C 0.20488 0.88448 0.15442 0.0
C822 C 0.20874 0.87987 0.11456 0.0
C823 C 0.2079 0.89038 0.11207 0.0
C824 C 0.21545 0.8992 0.10034 0.0
C825 C 0.2239 0.89762 0.09087 0.0
C826 C 0.2241 0.8867 0.0926 0.0
C827 C 0.2166 0.87795 0.10436 0.0
C828 C 0.1907 0.86291 0.12782 0.0
C829 C 0.18774 0.85079 0.12647 0.0
C830 C 0.17572 0.84159 0.12647 0.0
C831 C 0.16634 0.84432 0.12809 0.0
C832 C 0.16936 0.85657 0.12894 0.0
C833 C 0.18141 0.86578 0.12865 0.0
H834 H 0.35779 0.22402 0.86771 0.0
N835 N 0.33923 0.20993 0.88735 0.0
H836 H 0.35756 0.23437 0.84128 0.0
H837 H 0.31912 0.20671 0.8699 0.0
H838 H 0.31868 0.21642 0.84309 0.0
H839 H 0.31912 0.20906 0.90067 0.0
H840 H 0.31885 0.22303 0.922 0.0
H841 H 0.35764 0.22582 0.90603 0.0
H842 H 0.35755 0.23989 0.92717 0.0
H843 H 0.35353 0.20068 0.8932 0.0
H844 H 0.31627 0.19069 0.88613 0.0
H845 H 0.34794 0.17938 0.89521 0.0
H846 H 0.3106 0.16939 0.88686 0.0
H847 H 0.33545 0.12184 0.87782 0.0
H848 H 0.33845 0.11324 0.85177 0.0
H849 H 0.30298 0.10467 0.83368 0.0
H850 H 0.29993 0.11312 0.86022 0.0
H851 H 0.30002 0.0999 0.89855 0.0
H852 H 0.30447 0.08817 0.91928 0.0
H853 H 0.3391 0.11955 0.92985 0.0
H854 H 0.33481 0.13097 0.90838 0.0
H855 H 0.33639 0.1414 0.87695 0.0
H856 H 0.34184 0.16251 0.87802 0.0
H857 H 0.30823 0.15287 0.90312 0.0
N858 N 0.31487 0.12196 0.88713 0.0
H859 H 0.30248 0.1315 0.90093 0.0
C860 C 0.33852 0.21449 0.87068 0.0
C861 C 0.34923 0.22221 0.8622 0.0
C862 C 0.34905 0.22808 0.84706 0.0
C863 C 0.33808 0.22627 0.83999 0.0
C864 C 0.3273 0.21819 0.84827 0.0
C865 C 0.32752 0.21245 0.86353 0.0
C866 C 0.33844 0.21645 0.90182 0.0
C867 C 0.32749 0.2156 0.90668 0.0
C868 C 0.32736 0.22365 0.91879 0.0
C869 C 0.33818 0.23264 0.92625 0.0
C870 C 0.34903 0.233 0.92191 0.0
C871 C 0.34912 0.225 0.90982 0.0
C872 C 0.33539 0.19728 0.88921 0.0
C873 C 0.34413 0.19385 0.89197 0.0
C874 C 0.34091 0.18165 0.89294 0.0
C875 C 0.32881 0.17255 0.89092 0.0
C876 C 0.32 0.17607 0.88861 0.0
C877 C 0.32324 0.18831 0.88793 0.0
C878 C 0.3174 0.11811 0.871 0.0
C879 C 0.32835 0.11825 0.86822 0.0
C880 C 0.33008 0.11337 0.85321 0.0
C881 C 0.32095 0.10824 0.84062 0.0
C882 C 0.31014 0.10841 0.84322 0.0
C883 C 0.30842 0.11332 0.85827 0.0
C884 C 0.317 0.11629 0.90188 0.0
C885 C 0.30846 0.1043 0.90564 0.0
C886 C 0.31103 0.09762 0.91757 0.0
C887 C 0.32221 0.10285 0.92622 0.0
C888 C 0.3305 0.11513 0.92319 0.0
C889 C 0.32798 0.12176 0.91105 0.0
C890 C 0.31884 0.13473 0.88859 0.0
C891 C 0.3301 0.14372 0.88258 0.0
C892 C 0.33331 0.15592 0.88342 0.0
C893 C 0.32549 0.15951 0.89062 0.0
C894 C 0.3144 0.1505 0.89714 0.0
C895 C 0.31112 0.13827 0.89605 0.0
H896 H 0.78771 0.12634 0.87673 0.0
N897 N 0.80437 0.12112 0.89069 0.0
H898 H 0.77615 0.1179 0.85022 0.0
H899 H 0.80736 0.10742 0.86782 0.0
H900 H 0.79564 0.09874 0.84134 0.0
H901 H 0.79772 0.09987 0.90498 0.0
H902 H 0.78174 0.0892 0.92572 0.0
H903 H 0.79277 0.13093 0.90816 0.0
H904 H 0.77695 0.12049 0.92954 0.0
H905 H 0.80717 0.14306 0.88013 0.0
H906 H 0.82504 0.12601 0.90557 0.0
H907 H 0.82585 0.16231 0.88042 0.0
H908 H 0.84365 0.14541 0.90699 0.0
H909 H 0.87385 0.21304 0.87085 0.0
H910 H 0.88184 0.22467 0.8444 0.0
H911 H 0.90453 0.20859 0.83808 0.0
H912 H 0.89682 0.19744 0.86493 0.0
H913 H 0.90121 0.20144 0.90325 0.0
H914 H 0.91435 0.21767 0.92303 0.0
H915 H 0.88977 0.23181 0.92087 0.0
H916 H 0.87669 0.21553 0.90132 0.0
H917 H 0.86008 0.19762 0.89233 0.0
H918 H 0.84082 0.17901 0.89568 0.0
H919 H 0.85877 0.15809 0.8883 0.0
N920 N 0.88194 0.1992 0.88671 0.0
H921 H 0.87797 0.17675 0.88595 0.0
C922 C 0.79853 0.11761 0.87411 0.0
C923 C 0.78975 0.12061 0.86885 0.0
C924 C 0.78312 0.11575 0.85372 0.0
C925 C 0.78499 0.10764 0.84377 0.0
C926 C 0.79398 0.10491 0.84883 0.0
C927 C 0.80072 0.10991 0.86383 0.0
C928 C 0.79643 0.11614 0.9051 0.0
C929 C 0.79338 0.1045 0.91061 0.0
C930 C 0.78426 0.09844 0.92255 0.0
C931 C 0.77798 0.10394 0.92937 0.0
C932 C 0.78145 0.1159 0.9244 0.0
C933 C 0.79057 0.12193 0.9123 0.0
C934 C 0.81477 0.13298 0.89249 0.0
C935 C 0.81506 0.14346 0.88599 0.0
C936 C 0.82579 0.15456 0.88634 0.0
C937 C 0.8364 0.15546 0.89347 0.0
C938 C 0.83581 0.14506 0.9009 0.0
C939 C 0.82515 0.13396 0.90028 0.0
C940 C 0.88487 0.20449 0.86987 0.0
C941 C 0.88044 0.21194 0.86365 0.0
C942 C 0.88499 0.21854 0.84847 0.0
C943 C 0.89398 0.21772 0.83923 0.0
C944 C 0.89784 0.20967 0.84507 0.0
C945 C 0.89336 0.20318 0.86027 0.0
C946 C 0.88798 0.20723 0.90087 0.0
C947 C 0.89851 0.20785 0.90748 0.0
C948 C 0.90605 0.21718 0.91861 0.0
C949 C 0.90316 0.2261 0.92336 0.0
C950 C 0.8922 0.22503 0.91757 0.0
C951 C 0.88469 0.2157 0.90636 0.0
C952 C 0.87048 0.18852 0.88916 0.0
C953 C 0.85987 0.18903 0.89176 0.0
C954 C 0.84882 0.17834 0.89348 0.0
C955 C 0.84816 0.16696 0.89239 0.0
C956 C 0.85887 0.16661 0.88968 0.0
C957 C 0.86988 0.17726 0.88818 0.0
H958 H 0.80837 0.70334 0.86014 0.0
N959 N 0.80476 0.68845 0.88635 0.0
H960 H 0.79633 0.69887 0.83362 0.0
H961 H 0.78756 0.66598 0.87533 0.0
H962 H 0.77543 0.66152 0.84913 0.0
H963 H 0.79247 0.66772 0.90508 0.0
H964 H 0.77593 0.66321 0.92468 0.0
H965 H 0.7991 0.70418 0.89942 0.0
H966 H 0.78314 0.7001 0.91984 0.0
H967 H 0.82476 0.7042 0.90241 0.0
H968 H 0.80829 0.66952 0.87726 0.0
H969 H 0.84345 0.70356 0.90589 0.0
H970 H 0.82714 0.66912 0.87961 0.0
H971 H 0.90036 0.70639 0.87227 0.0
H972 H 0.90895 0.70445 0.84532 0.0
H973 H 0.88357 0.66609 0.84485 0.0
H974 H 0.87474 0.66831 0.87137 0.0
H975 H 0.87779 0.66613 0.90117 0.0
H976 H 0.88961 0.66135 0.92134 0.0
H977 H 0.91256 0.69941 0.93161 0.0
H978 H 0.90062 0.70411 0.91133 0.0
H979 H 0.8788 0.70701 0.88845 0.0
H980 H 0.85934 0.70622 0.88874 0.0
H981 H 0.84175 0.66753 0.89648 0.0
N982 N 0.8832 0.68882 0.89058 0.0
H983 H 0.8613 0.66843 0.89519 0.0
C984 C 0.79884 0.68508 0.86978 0.0
C985 C 0.80138 0.69414 0.85758 0.0
C986 C 0.7945 0.69157 0.84248 0.0
C987 C 0.78487 0.67987 0.83943 0.0
C988 C 0.7827 0.67065 0.85128 0.0
C989 C 0.78966 0.67321 0.86626 0.0
C990 C 0.79683 0.68624 0.90059 0.0
C991 C 0.79053 0.67483 0.9084 0.0
C992 C 0.78112 0.67231 0.91972 0.0
C993 C 0.778 0.68123 0.92363 0.0
C994 C 0.78501 0.6929 0.91677 0.0
C995 C 0.79425 0.69532 0.90528 0.0
C996 C 0.8152 0.68708 0.88933 0.0
C997 C 0.8252 0.69645 0.89763 0.0
C998 C 0.83592 0.6961 0.89943 0.0
C999 C 0.83698 0.68642 0.89268 0.0
C1000 C 0.82672 0.67672 0.88503 0.0
C1001 C 0.8159 0.67699 0.88351 0.0
C1002 C 0.88702 0.68752 0.87381 0.0
C1003 C 0.89655 0.69762 0.86612 0.0
C1004 C 0.90151 0.69645 0.85085 0.0
C1005 C 0.89709 0.68507 0.84302 0.0
C1006 C 0.88717 0.675 0.85044 0.0
C1007 C 0.88215 0.67622 0.86568 0.0
C1008 C 0.88828 0.68553 0.90483 0.0
C1009 C 0.88509 0.67344 0.90814 0.0
C1010 C 0.8919 0.6707 0.91968 0.0
C1011 C 0.90209 0.68001 0.92794 0.0
C1012 C 0.90484 0.69205 0.92529 0.0
C1013 C 0.89798 0.69475 0.91387 0.0
C1014 C 0.87154 0.68786 0.89202 0.0
C1015 C 0.87073 0.69839 0.89034 0.0
C1016 C 0.85957 0.6979 0.89065 0.0
C1017 C 0.84888 0.68681 0.89284 0.0
C1018 C 0.84973 0.67622 0.89463 0.0
C1019 C 0.86095 0.67672 0.8941 0.0
H1020 H 0.76272 0.62651 0.48077 0.0
N1021 N 0.78322 0.64109 0.46511 0.0
H1022 H 0.75483 0.63054 0.5068 0.0
H1023 H 0.79554 0.66047 0.48651 0.0
H1024 H 0.78796 0.66444 0.51306 0.0
H1025 H 0.78987 0.66455 0.45728 0.0
H1026 H 0.77939 0.67127 0.43761 0.0
H1027 H 0.76582 0.62756 0.44298 0.0
H1028 H 0.7547 0.63404 0.42408 0.0
H1029 H 0.79137 0.62862 0.48269 0.0
H1030 H 0.80256 0.65712 0.44497 0.0
H1031 H 0.81123 0.6304 0.48188 0.0
H1032 H 0.82217 0.65855 0.44363 0.0
H1033 H 0.87157 0.63284 0.47963 0.0
H1034 H 0.88341 0.63753 0.50627 0.0
H1035 H 0.88171 0.67048 0.51128 0.0
H1036 H 0.87009 0.66582 0.4846 0.0
H1037 H 0.88128 0.67023 0.45747 0.0
H1038 H 0.89833 0.67716 0.43802 0.0
H1039 H 0.88361 0.64096 0.41802 0.0
H1040 H 0.86667 0.634 0.43788 0.0
H1041 H 0.84292 0.62705 0.46482 0.0
H1042 H 0.82326 0.62589 0.46424 0.0
H1043 H 0.84071 0.66473 0.45852 0.0
N1044 N 0.86439 0.64657 0.46326 0.0
H1045 H 0.86029 0.66565 0.45819 0.0
C1046 C 0.77968 0.64313 0.48176 0.0
C1047 C 0.76833 0.63471 0.48794 0.0
C1048 C 0.76387 0.63703 0.50288 0.0
C1049 C 0.77074 0.64784 0.5121 0.0
C1050 C 0.78234 0.65612 0.50617 0.0
C1051 C 0.78675 0.65382 0.49109 0.0
C1052 C 0.77874 0.64552 0.45137 0.0
C1053 C 0.78246 0.65788 0.44963 0.0
C1054 C 0.77629 0.66169 0.43855 0.0
C1055 C 0.76602 0.65321 0.42937 0.0
C1056 C 0.76263 0.64089 0.43068 0.0
C1057 C 0.76897 0.63713 0.4415 0.0
C1058 C 0.79529 0.64275 0.46414 0.0
C1059 C 0.79808 0.63526 0.47423 0.0
C1060 C 0.80944 0.63621 0.4736 0.0
C1061 C 0.81834 0.64457 0.46257 0.0
C1062 C 0.81561 0.65212 0.45245 0.0
C1063 C 0.80425 0.65126 0.45321 0.0
C1064 C 0.8699 0.6489 0.48011 0.0
C1065 C 0.87359 0.64095 0.48668 0.0
C1066 C 0.88033 0.64365 0.5019 0.0
C1067 C 0.88356 0.65442 0.51085 0.0
C1068 C 0.87951 0.66219 0.50456 0.0
C1069 C 0.87275 0.65947 0.48934 0.0
C1070 C 0.87274 0.65151 0.44926 0.0
C1071 C 0.88152 0.66382 0.44865 0.0
C1072 C 0.8913 0.66778 0.43756 0.0
C1073 C 0.89234 0.65957 0.42667 0.0
C1074 C 0.88301 0.6475 0.42623 0.0
C1075 C 0.87333 0.64351 0.43752 0.0
C1076 C 0.85305 0.64639 0.46171 0.0
C1077 C 0.84245 0.63528 0.46326 0.0
C1078 C 0.83124 0.63468 0.46312 0.0
C1079 C 0.83034 0.64525 0.46163 0.0
C1080 C 0.84101 0.6564 0.4596 0.0
C1081 C 0.85226 0.65696 0.45955 0.0
H1082 H 0.36404 0.12665 0.46934 0.0
N1083 N 0.35053 0.13594 0.45859 0.0
H1084 H 0.36114 0.11426 0.49498 0.0
H1085 H 0.33433 0.1316 0.48423 0.0
H1086 H 0.33159 0.11944 0.51019 0.0
H1087 H 0.32692 0.11837 0.45584 0.0
H1088 H 0.31904 0.101 0.43643 0.0
H1089 H 0.36121 0.13408 0.43054 0.0
H1090 H 0.35334 0.11678 0.41089 0.0
H1091 H 0.36755 0.15703 0.47034 0.0
H1092 H 0.33188 0.13969 0.44806 0.0
H1093 H 0.36726 0.17598 0.47217 0.0
H1094 H 0.33179 0.15882 0.44868 0.0
H1095 H 0.36907 0.23317 0.48399 0.0
H1096 H 0.36752 0.24215 0.51096 0.0
H1097 H 0.33011 0.21465 0.51452 0.0
H1098 H 0.33181 0.20568 0.4879 0.0
H1099 H 0.3285 0.21031 0.45942 0.0
H1100 H 0.32304 0.22248 0.44104 0.0
H1101 H 0.36006 0.24334 0.42474 0.0
H1102 H 0.36548 0.2315 0.44406 0.0
H1103 H 0.36942 0.21124 0.45963 0.0
H1104 H 0.36886 0.19193 0.4562 0.0
H1105 H 0.33051 0.17326 0.46547 0.0
N1106 N 0.35139 0.21508 0.46673 0.0
H1107 H 0.33112 0.19271 0.46741 0.0
C1108 C 0.34951 0.13013 0.47495 0.0
C1109 C 0.35706 0.12526 0.47835 0.0
C1110 C 0.35535 0.11814 0.49288 0.0
C1111 C 0.34612 0.11588 0.50445 0.0
C1112 C 0.33881 0.12112 0.50146 0.0
C1113 C 0.34039 0.12809 0.4867 0.0
C1114 C 0.34472 0.1275 0.44469 0.0
C1115 C 0.33263 0.11828 0.44574 0.0
C1116 C 0.32816 0.10832 0.43471 0.0
C1117 C 0.33563 0.10747 0.4223 0.0
C1118 C 0.34736 0.11721 0.42027 0.0
C1119 C 0.35186 0.12711 0.43144 0.0
C1120 C 0.34987 0.14696 0.4589 0.0
C1121 C 0.35972 0.15738 0.4656 0.0
C1122 C 0.35956 0.16826 0.46646 0.0
C1123 C 0.34958 0.16909 0.46031 0.0
C1124 C 0.33961 0.15857 0.45368 0.0
C1125 C 0.3397 0.14758 0.45314 0.0
C1126 C 0.35062 0.21877 0.48392 0.0
C1127 C 0.36064 0.22894 0.49086 0.0
C1128 C 0.35969 0.23411 0.50615 0.0
C1129 C 0.34865 0.22918 0.5148 0.0
C1130 C 0.33877 0.2186 0.50828 0.0
C1131 C 0.33973 0.21346 0.49296 0.0
C1132 C 0.34745 0.22013 0.45324 0.0
C1133 C 0.33539 0.21738 0.45171 0.0
C1134 C 0.33228 0.22435 0.44107 0.0
C1135 C 0.34115 0.23409 0.43158 0.0
C1136 C 0.35304 0.23616 0.4322 0.0
C1137 C 0.35615 0.2293 0.44302 0.0
C1138 C 0.35042 0.20343 0.46416 0.0
C1139 C 0.3609 0.20295 0.46078 0.0
C1140 C 0.36055 0.19186 0.45902 0.0
C1141 C 0.34968 0.18091 0.46094 0.0
C1142 C 0.33906 0.18144 0.46386 0.0
C1143 C 0.33941 0.1926 0.46526 0.0
H1144 H 0.79014 0.12087 0.48092 0.0
N1145 N 0.78498 0.13802 0.46872 0.0
H1146 H 0.7826 0.10933 0.50748 0.0
H1147 H 0.77377 0.14234 0.4939 0.0
H1148 H 0.76644 0.13108 0.52079 0.0
H1149 H 0.76266 0.12986 0.45744 0.0
H1150 H 0.75133 0.1133 0.43737 0.0
H1151 H 0.79446 0.12705 0.44868 0.0
H1152 H 0.78343 0.11093 0.42798 0.0
H1153 H 0.80716 0.1395 0.47055 0.0
H1154 H 0.78915 0.16017 0.46218 0.0
H1155 H 0.82664 0.1577 0.46691 0.0
H1156 H 0.80852 0.1786 0.45975 0.0
H1157 H 0.88023 0.21108 0.47798 0.0
H1158 H 0.8917 0.21939 0.50447 0.0
H1159 H 0.87121 0.23741 0.5145 0.0
H1160 H 0.85962 0.22886 0.48794 0.0
H1161 H 0.86904 0.2364 0.44864 0.0
H1162 H 0.88484 0.24673 0.42736 0.0
H1163 H 0.89107 0.21628 0.42683 0.0
H1164 H 0.87509 0.20596 0.44812 0.0
H1165 H 0.85911 0.19461 0.48041 0.0
H1166 H 0.84046 0.1755 0.48019 0.0
H1167 H 0.82528 0.19002 0.44336 0.0
N1168 N 0.86304 0.21573 0.46447 0.0
H1169 H 0.84376 0.20949 0.44475 0.0
C1170 C 0.78245 0.13244 0.48544 0.0
C1171 C 0.78518 0.1233 0.4897 0.0
C1172 C 0.78086 0.11671 0.50494 0.0
C1173 C 0.77377 0.11917 0.51619 0.0
C1174 C 0.77165 0.12878 0.51226 0.0
C1175 C 0.77593 0.13531 0.49702 0.0
C1176 C 0.77939 0.12978 0.45456 0.0
C1177 C 0.76728 0.1259 0.45076 0.0
C1178 C 0.76083 0.11644 0.43922 0.0
C1179 C 0.76641 0.11067 0.43105 0.0
C1180 C 0.77875 0.11498 0.43424 0.0
C1181 C 0.78516 0.12436 0.44598 0.0
C1182 C 0.79667 0.14847 0.46632 0.0
C1183 C 0.80739 0.14795 0.4678 0.0
C1184 C 0.81857 0.15845 0.46595 0.0
C1185 C 0.81928 0.16974 0.46295 0.0
C1186 C 0.80846 0.17012 0.46157 0.0
C1187 C 0.79733 0.15961 0.46311 0.0
C1188 C 0.86905 0.21939 0.48096 0.0
C1189 C 0.8781 0.21671 0.48592 0.0
C1190 C 0.88471 0.22153 0.50106 0.0
C1191 C 0.88245 0.22916 0.51153 0.0
C1192 C 0.87311 0.23148 0.50682 0.0
C1193 C 0.8665 0.22664 0.49166 0.0
C1194 C 0.87096 0.2205 0.44998 0.0
C1195 C 0.87363 0.23186 0.4436 0.0
C1196 C 0.88265 0.23772 0.43143 0.0
C1197 C 0.88927 0.23235 0.42547 0.0
C1198 C 0.88622 0.2207 0.43133 0.0
C1199 C 0.87708 0.21478 0.44342 0.0
C1200 C 0.85281 0.2037 0.46284 0.0
C1201 C 0.85183 0.19377 0.47227 0.0
C1202 C 0.84109 0.18269 0.47199 0.0
C1203 C 0.83116 0.18115 0.46197 0.0
C1204 C 0.83251 0.19089 0.45169 0.0
C1205 C 0.84315 0.20202 0.45227 0.0
H1206 H 0.02805 0.55723 0.19888 0.0
N1207 N 0.01 0.544 0.21984 0.0
H1208 H 0.02737 0.56749 0.17257 0.0
H1209 H 0.98964 0.54138 0.20385 0.0
H1210 H 0.98874 0.55106 0.17724 0.0
H1211 H 0.98973 0.54194 0.23455 0.0
H1212 H 0.98916 0.55591 0.25566 0.0
H1213 H 0.02845 0.56095 0.23729 0.0
H1214 H 0.02805 0.57494 0.2583 0.0
H1215 H 0.02455 0.53521 0.22688 0.0
H1216 H 0.98732 0.52438 0.2172 0.0
H1217 H 0.01944 0.51402 0.22862 0.0
H1218 H 0.98217 0.50321 0.2178 0.0
H1219 H 0.00888 0.45774 0.20891 0.0
H1220 H 0.01201 0.44874 0.18339 0.0
H1221 H 0.97546 0.43693 0.16683 0.0
H1222 H 0.9725 0.44637 0.19234 0.0
H1223 H 0.97237 0.43469 0.23008 0.0
H1224 H 0.97647 0.42245 0.2503 0.0
H1225 H 0.01174 0.45299 0.26055 0.0
H1226 H 0.00771 0.46495 0.23962 0.0
H1227 H 0.00931 0.47646 0.2096 0.0
H1228 H 0.01425 0.49742 0.211 0.0
H1229 H 0.97978 0.48666 0.23417 0.0
N1230 N 0.98774 0.45656 0.21861 0.0
H1231 H 0.97461 0.46546 0.23174 0.0
C1232 C 0.00894 0.54844 0.20323 0.0
C1233 C 0.01944 0.55572 0.19401 0.0
C1234 C 0.019 0.56154 0.17895 0.0
C1235 C 0.00799 0.56015 0.17274 0.0
C1236 C 0.9974 0.5525 0.18175 0.0
C1237 C 0.99787 0.54678 0.1969 0.0
C1238 C 0.00918 0.55047 0.23437 0.0
C1239 C 0.99809 0.54898 0.23994 0.0
C1240 C 0.99779 0.55701 0.25192 0.0
C1241 C 0.00856 0.56659 0.25861 0.0
C1242 C 0.01958 0.5676 0.25362 0.0
C1243 C 0.01985 0.55963 0.24162 0.0
C1244 C 0.0064 0.5314 0.22168 0.0
C1245 C 0.01527 0.52822 0.22507 0.0
C1246 C 0.01232 0.51609 0.22588 0.0
C1247 C 1.00039 0.5068 0.22309 0.0
C1248 C 0.99144 0.51004 0.22015 0.0
C1249 C 0.99439 0.52222 0.2196 0.0
C1250 C 0.99042 0.45281 0.20251 0.0
C1251 C 0.0016 0.45348 0.19964 0.0
C1252 C 0.00335 0.44817 0.1851 0.0
C1253 C 0.99394 0.44196 0.17316 0.0
C1254 C 0.98292 0.44172 0.17569 0.0
C1255 C 0.98121 0.44709 0.19025 0.0
C1256 C 0.98966 0.45072 0.23332 0.0
C1257 C 0.98086 0.43881 0.23703 0.0
C1258 C 0.98324 0.43183 0.24866 0.0
C1259 C 0.9945 0.43666 0.25703 0.0
C1260 C 0.00306 0.44887 0.25411 0.0
C1261 C 1.00071 0.45581 0.24229 0.0
C1262 C 0.99142 0.46924 0.22032 0.0
C1263 C 0.00274 0.4785 0.21491 0.0
C1264 C 0.00563 0.49061 0.21592 0.0
C1265 C 0.99742 0.49385 0.22266 0.0
C1266 C 0.98626 0.48457 0.22857 0.0
C1267 C 0.98331 0.47244 0.22734 0.0
H1268 H 0.55976 0.52843 0.2016 0.0
N1269 N 0.54614 0.53173 0.22401 0.0
H1270 H 0.56765 0.53923 0.1746 0.0
H1271 H 0.53938 0.54679 0.20847 0.0
H1272 H 0.54669 0.5572 0.18113 0.0
H1273 H 0.53962 0.54669 0.23978 0.0
H1274 H 0.55276 0.56394 0.2582 0.0
H1275 H 0.56673 0.53595 0.23843 0.0
H1276 H 0.57981 0.55293 0.2571 0.0
H1277 H 0.54277 0.51085 0.23632 0.0
H1278 H 0.52362 0.52899 0.21911 0.0
H1279 H 0.52373 0.49209 0.23974 0.0
H1280 H 0.50454 0.51012 0.22146 0.0
H1281 H 0.4625 0.43273 0.21289 0.0
H1282 H 0.4511 0.4253 0.18604 0.0
H1283 H 0.45087 0.45901 0.18007 0.0
H1284 H 0.46199 0.46619 0.20721 0.0
H1285 H 0.45009 0.45772 0.23447 0.0
H1286 H 0.43384 0.44685 0.25476 0.0
H1287 H 0.45279 0.4293 0.27576 0.0
H1288 H 0.46873 0.4398 0.25469 0.0
H1289 H 0.49075 0.45788 0.22144 0.0
H1290 H 0.50933 0.47726 0.22162 0.0
H1291 H 0.48966 0.49475 0.23908 0.0
N1292 N 0.46878 0.45346 0.2287 0.0
H1293 H 0.47098 0.47528 0.23807 0.0
C1294 C 0.54891 0.53668 0.20693 0.0
C1295 C 0.55671 0.53452 0.19697 0.0
C1296 C 0.56117 0.5407 0.18152 0.0
C1297 C 0.55785 0.54915 0.17564 0.0
C1298 C 0.5496 0.55091 0.18535 0.0
C1299 C 0.54524 0.5448 0.2009 0.0
C1300 C 0.5523 0.54014 0.23771 0.0
C1301 C 0.54827 0.54788 0.24384 0.0
C1302 C 0.55578 0.5577 0.25439 0.0
C1303 C 0.5674 0.5599 0.25887 0.0
C1304 C 0.571 0.55161 0.25362 0.0
C1305 C 0.56351 0.54185 0.24313 0.0
C1306 C 0.53465 0.52124 0.2272 0.0
C1307 C 0.53442 0.51075 0.23329 0.0
C1308 C 0.52352 0.50001 0.23505 0.0
C1309 C 0.51255 0.49946 0.23052 0.0
C1310 C 0.51277 0.51017 0.22512 0.0
C1311 C 0.52372 0.52099 0.22359 0.0
C1312 C 0.46314 0.44999 0.21199 0.0
C1313 C 0.4601 0.43855 0.20563 0.0
C1314 C 0.45363 0.43435 0.19026 0.0
C1315 C 0.45006 0.44156 0.18086 0.0
C1316 C 0.45335 0.45317 0.18708 0.0
C1317 C 0.45981 0.45734 0.20252 0.0
C1318 C 0.46056 0.44942 0.24292 0.0
C1319 C 0.45086 0.45171 0.24363 0.0
C1320 C 0.44157 0.4455 0.25537 0.0
C1321 C 0.44186 0.437 0.26677 0.0
C1322 C 0.45209 0.43552 0.26691 0.0
C1323 C 0.46129 0.44163 0.25503 0.0
C1324 C 0.47954 0.46509 0.2299 0.0
C1325 C 0.49049 0.46591 0.2254 0.0
C1326 C 0.50112 0.47701 0.22565 0.0
C1327 C 0.50109 0.48763 0.23058 0.0
C1328 C 0.49005 0.4868 0.23511 0.0
C1329 C 0.47935 0.47564 0.2347 0.0
H1330 H 0.54447 0.99435 0.2074 0.0
N1331 N 0.54501 0.01499 0.21877 0.0
H1332 H 0.55366 0.99224 0.18138 0.0
H1333 H 0.55525 0.0312 0.1939 0.0
H1334 H 0.56437 0.02911 0.1675 0.0
H1335 H 0.56567 0.03144 0.23264 0.0
H1336 H 0.57828 0.02807 0.25333 0.0
H1337 H 0.5379 0.99425 0.23803 0.0
H1338 H 0.55027 0.99089 0.25878 0.0
H1339 H 0.52578 0.99197 0.21528 0.0
H1340 H 0.53551 0.0292 0.22321 0.0
H1341 H 0.50467 0.98609 0.21626 0.0
H1342 H 0.51426 0.0236 0.22253 0.0
H1343 H 0.43661 0.97242 0.20236 0.0
H1344 H 0.42687 0.97372 0.17593 0.0
H1345 H 0.45677 0.00959 0.1669 0.0
H1346 H 0.46606 0.00838 0.19397 0.0
H1347 H 0.45403 0.00919 0.22143 0.0
H1348 H 0.44074 0.01077 0.24222 0.0
H1349 H 0.43452 0.97725 0.26559 0.0
H1350 H 0.44719 0.97538 0.24387 0.0
H1351 H 0.46802 0.97945 0.20059 0.0
H1352 H 0.48936 0.9858 0.2009 0.0
H1353 H 0.4959 0.01489 0.23573 0.0
N1354 N 0.45685 0.98942 0.21657 0.0
H1355 H 0.47469 0.00907 0.23405 0.0
C1356 C 0.54915 0.01298 0.20259 0.0
C1357 C 0.54859 0.00193 0.19867 0.0
C1358 C 0.55386 1.00072 0.18372 0.0
C1359 C 0.55981 0.01052 0.17238 0.0
C1360 C 0.56001 0.02144 0.17608 0.0
C1361 C 0.55473 0.02263 0.19104 0.0
C1362 C 0.55084 0.01318 0.23363 0.0
C1363 C 0.56214 0.02266 0.23868 0.0
C1364 C 0.56932 0.02071 0.25051 0.0
C1365 C 0.56533 0.00916 0.25756 0.0
C1366 C 0.55369 0.99984 0.25335 0.0
C1367 C 0.54652 0.00181 0.2415 0.0
C1368 C 0.53232 0.01106 0.21964 0.0
C1369 C 0.52341 0.99892 0.21738 0.0
C1370 C 0.51121 0.99559 0.21757 0.0
C1371 C 0.50757 0.00434 0.21935 0.0
C1372 C 0.51656 0.01651 0.22148 0.0
C1373 C 0.52876 0.01977 0.22176 0.0
C1374 C 0.45206 0.9902 0.20002 0.0
C1375 C 0.44108 0.9805 0.19454 0.0
C1376 C 0.43558 0.98126 0.17936 0.0
C1377 C 0.44103 0.99175 0.16913 0.0
C1378 C 0.45221 0.00143 0.17451 0.0
C1379 C 0.45763 1.00071 0.18988 0.0
C1380 C 0.45135 0.99198 0.23088 0.0
C1381 C 0.44989 0.00225 0.23113 0.0
C1382 C 0.44233 0.00318 0.24317 0.0
C1383 C 0.43627 0.99399 0.25541 0.0
C1384 C 0.43868 0.9843 0.25602 0.0
C1385 C 0.44605 0.98328 0.24378 0.0
C1386 C 0.46965 0.99365 0.21734 0.0
C1387 C 0.4741 0.98725 0.2082 0.0
C1388 C 0.48634 0.99084 0.2086 0.0
C1389 C 0.4945 1.00079 0.21858 0.0
C1390 C 0.49002 0.00727 0.22772 0.0
C1391 C 0.47777 0.00385 0.22693 0.0
H1392 H 0.43848 0.96451 0.82638 0.0
N1393 N 0.45286 0.98115 0.80412 0.0
H1394 H 0.42956 0.96773 0.85209 0.0
H1395 H 0.45965 0.00304 0.81922 0.0
H1396 H 0.45119 0.00636 0.84509 0.0
H1397 H 0.45986 0.00303 0.78903 0.0
H1398 H 0.44735 0.00777 0.77012 0.0
H1399 H 0.43297 0.96536 0.78782 0.0
H1400 H 0.42068 0.96981 0.76801 0.0
H1401 H 0.45689 0.964 0.7924 0.0
H1402 H 0.47522 0.00105 0.80937 0.0
H1403 H 0.47621 0.96478 0.78861 0.0
H1404 H 0.49456 0.00175 0.80669 0.0
H1405 H 0.53571 0.96752 0.81607 0.0
H1406 H 0.5481 0.97198 0.84212 0.0
H1407 H 0.555 0.00884 0.84074 0.0
H1408 H 0.5423 0.00414 0.8149 0.0
H1409 H 0.54807 0.00512 0.7849 0.0
H1410 H 0.56374 0.00929 0.7639 0.0
H1411 H 0.54906 0.97096 0.75605 0.0
H1412 H 0.53334 0.96688 0.77706 0.0
H1413 H 0.5104 0.96467 0.80467 0.0
H1414 H 0.49135 0.96471 0.8055 0.0
H1415 H 0.50943 0.00196 0.78859 0.0
N1416 N 0.53193 0.9828 0.79733 0.0
H1417 H 0.52857 0.00191 0.78867 0.0
C1418 C 0.4498 0.98347 0.82092 0.0
C1419 C 0.44151 0.97366 0.8307 0.0
C1420 C 0.43642 0.97553 0.84538 0.0
C1421 C 0.43956 0.98732 0.85058 0.0
C1422 C 0.44841 0.99716 0.84129 0.0
C1423 C 0.45342 0.99527 0.82656 0.0
C1424 C 0.4472 0.98384 0.79002 0.0
C1425 C 0.45138 0.99574 0.78433 0.0
C1426 C 0.44423 0.99841 0.77339 0.0
C1427 C 0.43284 0.9892 0.76777 0.0
C1428 C 0.4292 0.97718 0.77246 0.0
C1429 C 0.43628 0.97457 0.78356 0.0
C1430 C 0.46454 0.98233 0.80148 0.0
C1431 C 0.46511 0.97229 0.79541 0.0
C1432 C 0.47618 0.97274 0.7934 0.0
C1433 C 0.48702 0.98327 0.79765 0.0
C1434 C 0.48645 0.9935 0.80321 0.0
C1435 C 0.47532 0.99307 0.80497 0.0
C1436 C 0.53814 0.98548 0.8136 0.0
C1437 C 0.53976 0.9765 0.82159 0.0
C1438 C 0.54693 0.97911 0.83634 0.0
C1439 C 0.55267 0.99082 0.84337 0.0
C1440 C 0.55066 0.99973 0.83569 0.0
C1441 C 0.54345 0.99708 0.82089 0.0
C1442 C 0.53944 0.98564 0.78243 0.0
C1443 C 0.54792 0.99762 0.77822 0.0
C1444 C 0.55693 1.0 0.76624 0.0
C1445 C 0.55769 0.99044 0.75846 0.0
C1446 C 0.54877 0.9785 0.76197 0.0
C1447 C 0.53972 0.97615 0.77381 0.0
C1448 C 0.52085 0.98318 0.79642 0.0
C1449 C 0.5102 0.9728 0.80102 0.0
C1450 C 0.4993 0.97285 0.80137 0.0
C1451 C 0.49875 0.98332 0.79694 0.0
C1452 C 0.50949 0.99376 0.79223 0.0
C1453 C 0.52046 0.99372 0.79208 0.0
H1454 H 0.96565 0.53613 0.81107 0.0
N1455 N 0.98162 0.53047 0.79907 0.0
H1456 H 0.96698 0.54697 0.83771 0.0
H1457 H 0.99827 0.5358 0.82539 0.0
H1458 H 0.9993 0.54618 0.85208 0.0
H1459 H 0.00238 0.5523 0.79764 0.0
H1460 H 0.0058 0.56909 0.77877 0.0
H1461 H 0.96914 0.52916 0.77089 0.0
H1462 H 0.9727 0.54576 0.75145 0.0
H1463 H 0.96709 0.5068 0.79686 0.0
H1464 H 0.00455 0.53401 0.79673 0.0
H1465 H 0.97258 0.49101 0.79423 0.0
H1466 H 0.01026 0.51837 0.79544 0.0
H1467 H 0.98692 0.44666 0.80776 0.0
H1468 H 0.98508 0.43488 0.83346 0.0
H1469 H 0.02099 0.46166 0.84931 0.0
H1470 H 0.02274 0.47352 0.82344 0.0
H1471 H 0.02341 0.46277 0.78448 0.0
H1472 H 0.0201 0.44697 0.76397 0.0
H1473 H 0.98324 0.43894 0.75691 0.0
H1474 H 0.9866 0.45458 0.7779 0.0
H1475 H 0.98593 0.46529 0.81011 0.0
H1476 H 0.98007 0.48069 0.80958 0.0
H1477 H 0.01153 0.50377 0.77955 0.0
N1478 N 0.00703 0.46738 0.7975 0.0
H1479 H 0.01784 0.48851 0.78135 0.0
C1480 C 0.98174 0.53501 0.81612 0.0
C1481 C 0.9729 0.53809 0.82012 0.0
C1482 C 0.97369 0.54433 0.83523 0.0
C1483 C 0.98324 0.54738 0.84686 0.0
C1484 C 0.99181 0.54383 0.84333 0.0
C1485 C 0.99118 0.53784 0.82801 0.0
C1486 C 0.98537 0.53952 0.78578 0.0
C1487 C 0.99602 0.55072 0.78731 0.0
C1488 C 0.99799 0.56032 0.77646 0.0
C1489 C 0.9894 0.55884 0.76381 0.0
C1490 C 0.97934 0.54729 0.76133 0.0
C1491 C 0.97735 0.53775 0.77228 0.0
C1492 C 0.98536 0.52153 0.79725 0.0
C1493 C 0.97652 0.50933 0.79643 0.0
C1494 C 0.97971 0.50032 0.79508 0.0
C1495 C 0.9919 0.50331 0.79484 0.0
C1496 C 1.00078 0.51563 0.79536 0.0
C1497 C 0.99754 0.52465 0.79631 0.0
C1498 C 0.00505 0.46101 0.81362 0.0
C1499 C 0.99436 0.45011 0.81681 0.0
C1500 C 0.99333 0.44333 0.83149 0.0
C1501 C 0.00293 0.44727 0.84332 0.0
C1502 C 0.0134 0.45842 0.8405 0.0
C1503 C 0.01443 0.46519 0.82575 0.0
C1504 C 0.00531 0.45986 0.78273 0.0
C1505 C 0.01472 0.45781 0.77813 0.0
C1506 C 0.01279 0.44877 0.76636 0.0
C1507 C 0.00136 0.44158 0.75884 0.0
C1508 C 0.9921 0.44417 0.76266 0.0
C1509 C 0.99404 0.45321 0.77452 0.0
C1510 C 0.00255 0.47582 0.79605 0.0
C1511 C 0.99166 0.47364 0.80348 0.0
C1512 C 0.9882 0.4825 0.80297 0.0
C1513 C 0.99534 0.49363 0.79462 0.0
C1514 C 0.00593 0.49551 0.78652 0.0
C1515 C 0.00951 0.48674 0.78735 0.0
H1516 H 0.46845 0.4461 0.82215 0.0
N1517 N 0.46842 0.46356 0.80351 0.0
H1518 H 0.45734 0.43711 0.84854 0.0
H1519 H 0.45561 0.47171 0.82169 0.0
H1520 H 0.4445 0.46284 0.84824 0.0
H1521 H 0.44788 0.46365 0.79316 0.0
H1522 H 0.43353 0.45051 0.7714 0.0
H1523 H 0.47137 0.44937 0.78161 0.0
H1524 H 0.45695 0.43593 0.76011 0.0
H1525 H 0.49165 0.47262 0.8102 0.0
H1526 H 0.46558 0.48276 0.79347 0.0
H1527 H 0.50761 0.49368 0.8084 0.0
H1528 H 0.48151 0.50378 0.79086 0.0
H1529 H 0.54601 0.54102 0.81777 0.0
H1530 H 0.55799 0.54981 0.84374 0.0
H1531 H 0.54626 0.57644 0.84452 0.0
H1532 H 0.53492 0.56797 0.81787 0.0
H1533 H 0.53364 0.566 0.77711 0.0
H1534 H 0.54932 0.57861 0.75649 0.0
H1535 H 0.56864 0.55968 0.76919 0.0
H1536 H 0.55328 0.54744 0.78987 0.0
H1537 H 0.53554 0.53013 0.78924 0.0
H1538 H 0.51932 0.50933 0.78906 0.0
H1539 H 0.4948 0.52094 0.80734 0.0
N1540 N 0.53401 0.55016 0.79915 0.0
H1541 H 0.5111 0.54192 0.80674 0.0
C1542 C 0.46287 0.45953 0.82002 0.0
C1543 C 0.46338 0.4499 0.82797 0.0
C1544 C 0.45705 0.44481 0.84305 0.0
C1545 C 0.45001 0.44925 0.8505 0.0
C1546 C 0.44973 0.45913 0.84271 0.0
C1547 C 0.45613 0.46426 0.82761 0.0
C1548 C 0.46076 0.45752 0.78894 0.0
C1549 C 0.45009 0.45789 0.78569 0.0
C1550 C 0.44181 0.45026 0.77334 0.0
C1551 C 0.44402 0.44209 0.76406 0.0
C1552 C 0.455 0.44221 0.7668 0.0
C1553 C 0.46326 0.44985 0.77911 0.0
C1554 C 0.47748 0.47608 0.80186 0.0
C1555 C 0.48942 0.47941 0.80595 0.0
C1556 C 0.49853 0.49145 0.80476 0.0
C1557 C 0.49592 0.50049 0.79933 0.0
C1558 C 0.48387 0.49711 0.79525 0.0
C1559 C 0.47473 0.48504 0.7966 0.0
C1560 C 0.5397 0.55398 0.81577 0.0
C1561 C 0.54601 0.54873 0.82354 0.0
C1562 C 0.55278 0.55372 0.83854 0.0
C1563 C 0.55324 0.56396 0.84621 0.0
C1564 C 0.5464 0.56877 0.8388 0.0
C1565 C 0.53978 0.56387 0.82369 0.0
C1566 C 0.54207 0.5556 0.78488 0.0
C1567 C 0.54109 0.56436 0.77506 0.0
C1568 C 0.55009 0.5716 0.76342 0.0
C1569 C 0.56019 0.57011 0.76125 0.0
C1570 C 0.56087 0.56091 0.7704 0.0
C1571 C 0.55198 0.55382 0.78223 0.0
C1572 C 0.52455 0.53772 0.79786 0.0
C1573 C 0.5267 0.52833 0.79298 0.0
C1574 C 0.51736 0.51632 0.79306 0.0
C1575 C 0.5057 0.51337 0.79827 0.0
C1576 C 0.50358 0.52282 0.80298 0.0
C1577 C 0.51289 0.53483 0.80274 0.0
H1578 H 0.68895 0.89189 0.53417 0.0
N1579 N 0.67179 0.87401 0.55196 0.0
H1580 H 0.68678 0.90097 0.5076 0.0
H1581 H 0.65104 0.86608 0.5332 0.0
H1582 H 0.64874 0.87492 0.50626 0.0
H1583 H 0.65177 0.87489 0.56204 0.0
H1584 H 0.65134 0.88889 0.58304 0.0
H1585 H 0.6892 0.88787 0.57381 0.0
H1586 H 0.68903 0.90217 0.59443 0.0
H1587 H 0.68187 0.86269 0.53679 0.0
H1588 H 0.65226 0.85631 0.56947 0.0
H1589 H 0.67543 0.84123 0.53713 0.0
H1590 H 0.64623 0.83495 0.57096 0.0
H1591 H 0.6661 0.78503 0.54438 0.0
H1592 H 0.67014 0.77715 0.51837 0.0
H1593 H 0.63609 0.77058 0.49677 0.0
H1594 H 0.63197 0.77822 0.52324 0.0
H1595 H 0.63043 0.76237 0.55907 0.0
H1596 H 0.63391 0.74944 0.5788 0.0
H1597 H 0.66622 0.78066 0.59755 0.0
H1598 H 0.66302 0.79335 0.57736 0.0
H1599 H 0.66853 0.8044 0.55126 0.0
H1600 H 0.67472 0.82571 0.55306 0.0
H1601 H 0.63739 0.81667 0.55635 0.0
N1602 N 0.64536 0.78538 0.55179 0.0
H1603 H 0.63139 0.7952 0.55585 0.0
C1604 C 0.67021 0.87834 0.53555 0.0
C1605 C 0.68019 0.88809 0.528 0.0
C1606 C 0.67892 0.8932 0.51278 0.0
C1607 C 0.66758 0.88864 0.50473 0.0
C1608 C 0.65757 0.87871 0.51221 0.0
C1609 C 0.65887 0.8736 0.52752 0.0
C1610 C 0.67055 0.88029 0.56647 0.0
C1611 C 0.65983 0.88056 0.56944 0.0
C1612 C 0.65964 0.88869 0.58132 0.0
C1613 C 0.67018 0.89678 0.59034 0.0
C1614 C 0.68069 0.896 0.58794 0.0
C1615 C 0.68084 0.88784 0.57615 0.0
C1616 C 0.66768 0.86122 0.55314 0.0
C1617 C 0.67406 0.85665 0.54425 0.0
C1618 C 0.67041 0.84435 0.54463 0.0
C1619 C 0.66035 0.83623 0.55427 0.0
C1620 C 0.65393 0.84083 0.56323 0.0
C1621 C 0.65747 0.85316 0.56253 0.0
C1622 C 0.64867 0.78218 0.53576 0.0
C1623 C 0.65958 0.78209 0.53397 0.0
C1624 C 0.6619 0.7776 0.51901 0.0
C1625 C 0.65341 0.77316 0.50548 0.0
C1626 C 0.64273 0.77373 0.50705 0.0
C1627 C 0.6404 0.77819 0.52206 0.0
C1628 C 0.64643 0.77884 0.5664 0.0
C1629 C 0.63812 0.76646 0.56773 0.0
C1630 C 0.64013 0.75907 0.57908 0.0
C1631 C 0.65048 0.76394 0.58963 0.0
C1632 C 0.65833 0.77652 0.58928 0.0
C1633 C 0.65641 0.78387 0.57771 0.0
C1634 C 0.64944 0.79812 0.55371 0.0
C1635 C 0.66167 0.80695 0.55272 0.0
C1636 C 0.6652 0.81923 0.55349 0.0
C1637 C 0.65658 0.82306 0.55469 0.0
C1638 C 0.64435 0.81417 0.55574 0.0
C1639 C 0.64086 0.80187 0.55535 0.0
H1640 H 0.23398 0.87113 0.53561 0.0
N1641 N 0.21623 0.86832 0.55581 0.0
H1642 H 0.24006 0.88207 0.50834 0.0
H1643 H 0.20444 0.87831 0.53885 0.0
H1644 H 0.21043 0.88933 0.51144 0.0
H1645 H 0.21182 0.88594 0.56765 0.0
H1646 H 0.22475 0.90224 0.58733 0.0
H1647 H 0.23395 0.86942 0.57522 0.0
H1648 H 0.24697 0.8857 0.59502 0.0
H1649 H 0.21053 0.84673 0.5439 0.0
H1650 H 0.19589 0.86564 0.57172 0.0
H1651 H 0.19128 0.82815 0.54544 0.0
H1652 H 0.17674 0.84688 0.57444 0.0
H1653 H 0.13323 0.77024 0.54413 0.0
H1654 H 0.12198 0.76179 0.51737 0.0
H1655 H 0.11924 0.79406 0.5099 0.0
H1656 H 0.13013 0.80222 0.53679 0.0
H1657 H 0.11922 0.79524 0.56438 0.0
H1658 H 0.10266 0.78449 0.58428 0.0
H1659 H 0.12109 0.76669 0.60633 0.0
H1660 H 0.13726 0.77699 0.58555 0.0
H1661 H 0.15978 0.7938 0.56219 0.0
H1662 H 0.17878 0.81276 0.56334 0.0
H1663 H 0.15925 0.83252 0.5604 0.0
N1664 N 0.13779 0.79071 0.55938 0.0
H1665 H 0.14027 0.81338 0.56077 0.0
C1666 C 0.21882 0.87394 0.53916 0.0
C1667 C 0.22874 0.87496 0.53025 0.0
C1668 C 0.23215 0.88118 0.51468 0.0
C1669 C 0.2257 0.88655 0.50772 0.0
C1670 C 0.21562 0.88537 0.51656 0.0
C1671 C 0.21217 0.87906 0.53216 0.0
C1672 C 0.2219 0.8764 0.57007 0.0
C1673 C 0.21922 0.88559 0.574 0.0
C1674 C 0.22665 0.89494 0.58524 0.0
C1675 C 0.23695 0.89532 0.59259 0.0
C1676 C 0.23918 0.88573 0.5894 0.0
C1677 C 0.2317 0.87636 0.57826 0.0
C1678 C 0.20475 0.85753 0.55784 0.0
C1679 C 0.20317 0.84679 0.55061 0.0
C1680 C 0.19215 0.83613 0.55168 0.0
C1681 C 0.18239 0.83585 0.56033 0.0
C1682 C 0.18397 0.8467 0.56756 0.0
C1683 C 0.195 0.85747 0.56618 0.0
C1684 C 0.13259 0.78685 0.54247 0.0
C1685 C 0.13036 0.77555 0.53653 0.0
C1686 C 0.12396 0.77076 0.52121 0.0
C1687 C 0.11965 0.77722 0.5115 0.0
C1688 C 0.12227 0.78876 0.51719 0.0
C1689 C 0.12864 0.79352 0.53254 0.0
C1690 C 0.12938 0.78673 0.57332 0.0
C1691 C 0.11978 0.78916 0.57365 0.0
C1692 C 0.11031 0.78303 0.58517 0.0
C1693 C 0.11036 0.77449 0.59675 0.0
C1694 C 0.12053 0.7729 0.59728 0.0
C1695 C 0.12987 0.7789 0.58559 0.0
C1696 C 0.14867 0.80217 0.56098 0.0
C1697 C 0.15965 0.80225 0.56197 0.0
C1698 C 0.17051 0.81314 0.56242 0.0
C1699 C 0.17067 0.82429 0.56151 0.0
C1700 C 0.15956 0.82417 0.56113 0.0
C1701 C 0.14866 0.81321 0.56107 0.0
H1702 H 0.19434 0.31144 0.52836 0.0
N1703 N 0.20055 0.32699 0.55421 0.0
H1704 H 0.20567 0.31367 0.50219 0.0
H1705 H 0.22039 0.3477 0.54347 0.0
H1706 H 0.23151 0.35025 0.51707 0.0
H1707 H 0.21436 0.3464 0.57511 0.0
H1708 H 0.22995 0.34793 0.59542 0.0
H1709 H 0.20425 0.30931 0.56484 0.0
H1710 H 0.21991 0.31085 0.58482 0.0
H1711 H 0.17829 0.31352 0.56551 0.0
H1712 H 0.20332 0.34961 0.54866 0.0
H1713 H 0.16258 0.3191 0.56797 0.0
H1714 H 0.18761 0.35511 0.55016 0.0
H1715 H 0.1152 0.32999 0.54693 0.0
H1716 H 0.103 0.32561 0.5208 0.0
H1717 H 0.13064 0.35837 0.49768 0.0
H1718 H 0.14277 0.36298 0.52423 0.0
H1719 H 0.12905 0.36606 0.56196 0.0
H1720 H 0.11325 0.36281 0.5821 0.0
H1721 H 0.11145 0.32944 0.59865 0.0
H1722 H 0.12676 0.33246 0.57781 0.0
H1723 H 0.13409 0.32823 0.54823 0.0
H1724 H 0.14996 0.32295 0.55 0.0
H1725 H 0.17497 0.35914 0.56747 0.0
N1726 N 0.13655 0.35068 0.5537 0.0
H1727 H 0.15905 0.3645 0.56476 0.0
C1728 C 0.20641 0.32938 0.53778 0.0
C1729 C 0.20232 0.32 0.52575 0.0
C1730 C 0.20882 0.32133 0.5108 0.0
C1731 C 0.21957 0.33214 0.50751 0.0
C1732 C 0.22339 0.34173 0.51929 0.0
C1733 C 0.21693 0.34035 0.53431 0.0
C1734 C 0.2081 0.32767 0.56853 0.0
C1735 C 0.21527 0.3385 0.57756 0.0
C1736 C 0.22417 0.33938 0.58912 0.0
C1737 C 0.22614 0.32952 0.59153 0.0
C1738 C 0.21859 0.31858 0.58311 0.0
C1739 C 0.20962 0.31766 0.57182 0.0
C1740 C 0.19192 0.33103 0.55671 0.0
C1741 C 0.18038 0.32266 0.56237 0.0
C1742 C 0.17139 0.32585 0.5636 0.0
C1743 C 0.17372 0.33753 0.55903 0.0
C1744 C 0.18546 0.34607 0.55393 0.0
C1745 C 0.19449 0.34289 0.5529 0.0
C1746 C 0.12987 0.34698 0.53766 0.0
C1747 C 0.11872 0.33623 0.53627 0.0
C1748 C 0.11174 0.33371 0.52133 0.0
C1749 C 0.11587 0.3417 0.50734 0.0
C1750 C 0.1273 0.35206 0.50831 0.0
C1751 C 0.1342 0.3547 0.52341 0.0
C1752 C 0.12916 0.34958 0.5683 0.0
C1753 C 0.12543 0.35819 0.57024 0.0
C1754 C 0.11639 0.35631 0.58183 0.0
C1755 C 0.11092 0.34578 0.59195 0.0
C1756 C 0.11524 0.33752 0.59081 0.0
C1757 C 0.12417 0.33933 0.57902 0.0
C1758 C 0.14543 0.34688 0.55612 0.0
C1759 C 0.14297 0.33505 0.55242 0.0
C1760 C 0.15208 0.332 0.55364 0.0
C1761 C 0.16384 0.34062 0.55881 0.0
C1762 C 0.16612 0.35231 0.56311 0.0
C1763 C 0.15702 0.35538 0.56172 0.0
H1764 H 0.02899 0.40012 0.04986 0.0
H1765 H 0.02549 0.40978 0.07439 0.0
H1766 H 0.98782 0.3829 0.07342 0.0
H1767 H 0.99126 0.37302 0.04899 0.0
H1768 H 0.01221 0.42031 0.07656 0.0
H1769 H 0.9768 0.37888 0.11434 0.0
H1770 H 0.97115 0.35758 0.11957 0.0
H1771 H 0.00743 0.36581 0.10968 0.0
H1772 H 0.01333 0.38718 0.10462 0.0
H1773 H 0.98602 0.44019 0.13974 0.0
H1774 H 0.98851 0.42897 0.11615 0.0
H1775 H 0.00798 0.4176 0.15011 0.0
H1776 H 0.00513 0.42836 0.17384 0.0
H1777 H 0.99277 0.39926 0.13066 0.0
H1778 H 0.02272 0.44075 0.12148 0.0
H1779 H 0.03019 0.46255 0.11739 0.0
H1780 H 0.00819 0.45502 0.07201 0.0
H1781 H 1.00046 0.43316 0.07597 0.0
C1782 C 0.01997 0.39616 0.05492 0.0
C1783 C 0.01041 0.38576 0.0474 0.0
C1784 C 0.01798 0.40174 0.06893 0.0
C1785 C 0.00641 0.39706 0.07579 0.0
C1786 C 0.99686 0.3866 0.06849 0.0
C1787 C 0.99885 0.38096 0.05449 0.0
C1788 C 0.00434 0.40338 0.09025 0.0
C1789 C 0.00793 0.41568 0.08837 0.0
C1790 C 0.99888 0.39741 0.10575 0.0
C1791 C 0.99546 0.3846 0.10892 0.0
C1792 C 0.98357 0.37615 0.11333 0.0
C1793 C 0.98033 0.36406 0.11626 0.0
C1794 C 0.98891 0.36034 0.1149 0.0
C1795 C 1.00078 0.3687 0.11066 0.0
C1796 C 0.00407 0.38079 0.10774 0.0
C1797 C 0.99074 0.43522 0.14222 0.0
C1798 C 0.99547 0.43528 0.15865 0.0
C1799 C 0.99224 0.42888 0.12869 0.0
C1800 C 0.99855 0.42255 0.13132 0.0
C1801 C 0.0031 0.42244 0.14776 0.0
C1802 C 0.00159 0.42873 0.16127 0.0
C1803 C 1.0006 0.41616 0.11693 0.0
C1804 C 0.99698 0.40385 0.1188 0.0
C1805 C 0.00626 0.42218 0.10156 0.0
C1806 C 0.01092 0.43532 0.09912 0.0
C1807 C 0.0194 0.44374 0.11071 0.0
C1808 C 0.0237 0.45611 0.1084 0.0
C1809 C 0.01964 0.46017 0.09448 0.0
C1810 C 0.01131 0.45187 0.08281 0.0
C1811 C 0.00697 0.43949 0.08507 0.0
H1812 H 0.02298 0.46974 0.09271 0.0
H1813 H 0.98638 0.35098 0.11716 0.0
H1814 H 0.63568 0.6171 0.06566 0.0
H1815 H 0.62231 0.60293 0.08718 0.0
H1816 H 0.59172 0.60036 0.05921 0.0
H1817 H 0.60502 0.61287 0.03646 0.0
H1818 H 0.60998 0.60477 0.10855 0.0
H1819 H 0.56904 0.583 0.06748 0.0
H1820 H 0.56097 0.57341 0.03926 0.0
H1821 H 0.58502 0.55887 0.03963 0.0
H1822 H 0.59323 0.56851 0.06785 0.0
H1823 H 0.56486 0.57308 0.17023 0.0
H1824 H 0.5754 0.58556 0.14552 0.0
H1825 H 0.57515 0.55491 0.12159 0.0
H1826 H 0.56391 0.54217 0.14572 0.0
H1827 H 0.57122 0.56722 0.09832 0.0
H1828 H 0.60031 0.57738 0.14431 0.0
H1829 H 0.60845 0.58413 0.17355 0.0
H1830 H 0.60925 0.61789 0.16478 0.0
H1831 H 0.60098 0.61127 0.13554 0.0
C1832 C 0.62605 0.61282 0.06362 0.0
C1833 C 0.62135 0.6154 0.04885 0.0
C1834 C 0.61836 0.60496 0.07616 0.0
C1835 C 0.60579 0.6001 0.07477 0.0
C1836 C 0.60118 0.6032 0.0603 0.0
C1837 C 0.60885 0.61059 0.04738 0.0
C1838 C 0.59778 0.59273 0.08915 0.0
C1839 C 0.60155 0.59653 0.10618 0.0
C1840 C 0.58659 0.58204 0.08645 0.0
C1841 C 0.58209 0.57684 0.06926 0.0
C1842 C 0.5727 0.5779 0.06136 0.0
C1843 C 0.5681 0.57246 0.04542 0.0
C1844 C 0.57261 0.56569 0.03752 0.0
C1845 C 0.58169 0.5643 0.0456 0.0
C1846 C 0.58641 0.56985 0.06145 0.0
C1847 C 0.56679 0.5689 0.15956 0.0
C1848 C 0.56357 0.55659 0.16007 0.0
C1849 C 0.57299 0.57611 0.14552 0.0
C1850 C 0.57631 0.57126 0.13183 0.0
C1851 C 0.57276 0.5589 0.13204 0.0
C1852 C 0.56644 0.55164 0.14596 0.0
C1853 C 0.58372 0.57903 0.11747 0.0
C1854 C 0.57972 0.57544 0.10056 0.0
C1855 C 0.59482 0.58974 0.12031 0.0
C1856 C 0.59991 0.59378 0.13781 0.0
C1857 C 0.60216 0.58621 0.14866 0.0
C1858 C 0.6068 0.59002 0.16523 0.0
C1859 C 0.60933 0.60142 0.17104 0.0
C1860 C 0.60727 0.60906 0.16027 0.0
C1861 C 0.60261 0.60529 0.14369 0.0
H1862 H 0.61291 0.60435 0.18388 0.0
H1863 H 0.56899 0.56142 0.02523 0.0
H1864 H 0.38466 0.98878 0.02759 0.0
H1865 H 0.39742 0.9875 0.05051 0.0
H1866 H 0.38549 0.00567 0.08528 0.0
H1867 H 0.3729 0.0071 0.06231 0.0
H1868 H 0.41637 0.00689 0.0705 0.0
H1869 H 0.38126 0.99028 0.12425 0.0
H1870 H 0.35919 0.97881 0.12755 0.0
H1871 H 0.35582 0.95961 0.08074 0.0
H1872 H 0.37786 0.97084 0.0773 0.0
H1873 H 0.44063 0.01175 0.15627 0.0
H1874 H 0.4295 0.01286 0.13119 0.0
H1875 H 0.41568 0.97491 0.12157 0.0
H1876 H 0.42723 0.97379 0.14603 0.0
H1877 H 0.3978 0.98275 0.12294 0.0
H1878 H 0.43555 0.99263 0.09635 0.0
H1879 H 0.45757 0.00422 0.09279 0.0
H1880 H 0.45573 0.0367 0.08467 0.0
H1881 H 0.43371 0.02533 0.08846 0.0
C1882 C 0.38489 0.99258 0.04011 0.0
C1883 C 0.37815 0.99835 0.04317 0.0
C1884 C 0.39216 0.99187 0.05312 0.0
C1885 C 0.3924 0.99653 0.06952 0.0
C1886 C 0.38542 0.00204 0.07269 0.0
C1887 C 0.37832 0.00292 0.0596 0.0
C1888 C 0.39976 0.9954 0.08346 0.0
C1889 C 0.41233 0.00167 0.08198 0.0
C1890 C 0.39444 0.98846 0.09836 0.0
C1891 C 0.38119 0.98149 0.10044 0.0
C1892 C 0.3758 0.98358 0.1147 0.0
C1893 C 0.3633 0.97712 0.11659 0.0
C1894 C 0.3561 0.96851 0.10433 0.0
C1895 C 0.3614 0.96631 0.09019 0.0
C1896 C 0.37389 0.97273 0.08825 0.0
C1897 C 0.43546 0.00368 0.14864 0.0
C1898 C 0.43482 0.99266 0.15331 0.0
C1899 C 0.42903 0.00433 0.13438 0.0
C1900 C 0.42175 0.99395 0.12463 0.0
C1901 C 0.42119 0.98299 0.12906 0.0
C1902 C 0.42775 0.98237 0.14313 0.0
C1903 C 0.41444 0.99443 0.11009 0.0
C1904 C 0.40186 0.98805 0.11148 0.0
C1905 C 0.41976 0.00132 0.09515 0.0
C1906 C 0.433 0.00815 0.09291 0.0
C1907 C 0.43985 0.00227 0.094 0.0
C1908 C 0.45233 0.00879 0.09189 0.0
C1909 C 0.45805 0.02119 0.08856 0.0
C1910 C 0.45129 0.02709 0.08729 0.0
C1911 C 0.43881 0.02062 0.0894 0.0
H1912 H 0.46771 0.02623 0.08693 0.0
H1913 H 0.34643 0.96353 0.1058 0.0
H1914 H 0.3661 0.98842 0.96442 0.0
H1915 H 0.37586 0.98411 0.94068 0.0
H1916 H 0.40755 0.01894 0.94762 0.0
H1917 H 0.398 0.02333 0.97128 0.0
H1918 H 0.38617 0.99543 0.90956 0.0
H1919 H 0.43203 0.01484 0.94508 0.0
H1920 H 0.43986 0.01844 0.97486 0.0
H1921 H 0.40622 0.9894 0.99261 0.0
H1922 H 0.39828 0.98545 0.96291 0.0
H1923 H 0.43193 0.00397 0.85194 0.0
H1924 H 0.42045 0.00677 0.87452 0.0
H1925 H 0.42016 0.97762 0.9035 0.0
H1926 H 0.43214 0.97508 0.88123 0.0
H1927 H 0.42438 0.99593 0.92415 0.0
H1928 H 0.39529 0.97336 0.8803 0.0
H1929 H 0.38711 0.96914 0.85073 0.0
H1930 H 0.38605 0.00236 0.85016 0.0
H1931 H 0.39436 0.00686 0.87967 0.0
C1932 C 0.37508 0.99524 0.96075 0.0
C1933 C 0.38129 0.00617 0.96994 0.0
C1934 C 0.38063 0.99276 0.94715 0.0
C1935 C 0.39249 0.00113 0.94259 0.0
C1936 C 0.39846 0.01228 0.95111 0.0
C1937 C 0.39294 0.01478 0.96464 0.0
C1938 C 0.39895 0.998 0.92965 0.0
C1939 C 0.39451 0.99552 0.91272 0.0
C1940 C 0.40971 0.9979 0.9339 0.0
C1941 C 0.41453 0.99993 0.95176 0.0
C1942 C 0.42634 0.00917 0.95532 0.0
C1943 C 0.43079 0.01127 0.97219 0.0
C1944 C 0.42354 0.00417 0.98562 0.0
C1945 C 0.41182 0.99491 0.9822 0.0
C1946 C 0.40734 0.99273 0.96535 0.0
C1947 C 0.42963 0.99828 0.86324 0.0
C1948 C 0.433 0.98931 0.86477 0.0
C1949 C 0.4229 0.99978 0.87604 0.0
C1950 C 0.41926 0.99227 0.89057 0.0
C1951 C 0.42281 0.98347 0.89234 0.0
C1952 C 0.42959 0.98198 0.87955 0.0
C1953 C 0.41178 0.99364 0.9039 0.0
C1954 C 0.41602 0.99579 0.92095 0.0
C1955 C 0.40076 0.99327 0.89979 0.0
C1956 C 0.39553 0.99048 0.88216 0.0
C1957 C 0.39337 0.97979 0.87384 0.0
C1958 C 0.3887 0.97735 0.85709 0.0
C1959 C 0.38608 0.98549 0.84856 0.0
C1960 C 0.38808 0.99607 0.85679 0.0
C1961 C 0.39275 0.99856 0.87354 0.0
H1962 H 0.38249 0.98359 0.83558 0.0
H1963 H 0.427 0.00582 0.99866 0.0
H1964 H 0.00612 0.3706 0.95288 0.0
H1965 H 0.00406 0.3809 0.92782 0.0
H1966 H 0.00629 0.4093 0.96071 0.0
H1967 H 0.00517 0.3972 0.98566 0.0
H1968 H 0.99271 0.40792 0.94035 0.0
H1969 H 0.03139 0.40846 0.9236 0.0
H1970 H 0.04306 0.39832 0.91588 0.0
H1971 H 0.01537 0.37556 0.88021 0.0
H1972 H 0.00368 0.38561 0.88748 0.0
H1973 H 0.01001 0.45389 0.87676 0.0
H1974 H 0.00972 0.44096 0.90043 0.0
H1975 H 0.9941 0.41008 0.86656 0.0
H1976 H 0.99457 0.42297 0.84283 0.0
H1977 H 0.01268 0.41129 0.88482 0.0
H1978 H 0.97694 0.413 0.89615 0.0
H1979 H 0.96466 0.42276 0.90099 0.0
H1980 H 0.98595 0.44069 0.94567 0.0
H1981 H 0.99848 0.43116 0.94095 0.0
C1982 C 0.00633 0.37916 0.95459 0.0
C1983 C 0.00659 0.38356 0.97114 0.0
C1984 C 0.00541 0.38525 0.94014 0.0
C1985 C 0.00561 0.39639 0.94184 0.0
C1986 C 0.00612 0.40081 0.95862 0.0
C1987 C 0.00593 0.39413 0.97304 0.0
C1988 C 0.00437 0.40306 0.92661 0.0
C1989 C 0.99748 0.40889 0.9285 0.0
C1990 C 0.00965 0.40374 0.91032 0.0
C1991 C 0.01663 0.39763 0.90631 0.0
C1992 C 0.0278 0.40121 0.91427 0.0
C1993 C 0.0344 0.39552 0.90995 0.0
C1994 C 0.0299 0.38624 0.89777 0.0
C1995 C 0.01883 0.3827 0.88972 0.0
C1996 C 0.01224 0.38842 0.89386 0.0
C1997 C 0.00651 0.44435 0.87439 0.0
C1998 C 0.00227 0.43944 0.85796 0.0
C1999 C 0.00626 0.43695 0.88793 0.0
C2000 C 0.0018 0.42454 0.88527 0.0
C2001 C 0.99755 0.41963 0.8689 0.0
C2002 C 0.99773 0.42699 0.85539 0.0
C2003 C 0.00197 0.41675 0.89939 0.0
C2004 C 0.00835 0.41055 0.89705 0.0
C2005 C 0.99626 0.41573 0.91521 0.0
C2006 C 0.98872 0.42145 0.9181 0.0
C2007 C 0.97907 0.4191 0.90692 0.0
C2008 C 0.97205 0.42458 0.90966 0.0
C2009 C 0.97455 0.43236 0.9236 0.0
C2010 C 0.98404 0.43467 0.93486 0.0
C2011 C 0.9911 0.42922 0.93217 0.0
H2012 H 0.9691 0.43659 0.9257 0.0
H2013 H 0.03503 0.38185 0.8945 0.0
H2014 H 0.62266 0.59691 0.97914 0.0
H2015 H 0.60973 0.58812 0.95407 0.0
H2016 H 0.61208 0.62245 0.94257 0.0
H2017 H 0.62472 0.63126 0.96814 0.0
H2018 H 0.58992 0.60545 0.93889 0.0
H2019 H 0.62736 0.61091 0.91873 0.0
H2020 H 0.64594 0.60951 0.91919 0.0
H2021 H 0.62498 0.57076 0.91891 0.0
H2022 H 0.60626 0.57193 0.91868 0.0
H2023 H 0.56638 0.58822 0.85336 0.0
H2024 H 0.57971 0.598 0.87789 0.0
H2025 H 0.57218 0.56323 0.89754 0.0
H2026 H 0.55838 0.55326 0.87343 0.0
H2027 H 0.59729 0.58108 0.89613 0.0
H2028 H 0.55971 0.57648 0.91667 0.0
H2029 H 0.54164 0.57877 0.915 0.0
H2030 H 0.56391 0.61736 0.9128 0.0
H2031 H 0.58214 0.61529 0.91421 0.0
C2032 C 0.62052 0.60266 0.97126 0.0
C2033 C 0.62477 0.61483 0.9757 0.0
C2034 C 0.61315 0.59761 0.95683 0.0
C2035 C 0.61006 0.60465 0.94623 0.0
C2036 C 0.61435 0.61683 0.95053 0.0
C2037 C 0.62161 0.62186 0.96513 0.0
C2038 C 0.60203 0.59916 0.93103 0.0
C2039 C 0.59166 0.6003 0.9294 0.0
C2040 C 0.60416 0.59226 0.91874 0.0
C2041 C 0.6154 0.59151 0.91885 0.0
C2042 C 0.62671 0.60209 0.9189 0.0
C2043 C 0.63727 0.60133 0.9191 0.0
C2044 C 0.63664 0.59005 0.91912 0.0
C2045 C 0.62545 0.57949 0.91891 0.0
C2046 C 0.61486 0.5802 0.91873 0.0
C2047 C 0.56733 0.58259 0.86304 0.0
C2048 C 0.56121 0.5699 0.86139 0.0
C2049 C 0.57504 0.58823 0.87699 0.0
C2050 C 0.57689 0.58133 0.88952 0.0
C2051 C 0.57089 0.5687 0.88794 0.0
C2052 C 0.56305 0.56303 0.87409 0.0
C2053 C 0.58522 0.58733 0.90416 0.0
C2054 C 0.59563 0.58629 0.90563 0.0
C2055 C 0.58323 0.59447 0.91613 0.0
C2056 C 0.57229 0.59572 0.91536 0.0
C2057 C 0.56076 0.58545 0.91567 0.0
C2058 C 0.55049 0.58671 0.9148 0.0
C2059 C 0.55163 0.5982 0.91374 0.0
C2060 C 0.56304 0.60846 0.91359 0.0
C2061 C 0.57335 0.60725 0.91444 0.0
H2062 H 0.54366 0.59915 0.91307 0.0
H2063 H 0.64483 0.58949 0.91927 0.0
H2064 H 0.99494 0.606 0.9885 0.0
H2065 H 0.9923 0.59087 0.96704 0.0
H2066 H 0.01204 0.61918 0.93035 0.0
H2067 H 0.01399 0.63433 0.95153 0.0
H2068 H 0.98463 0.59795 0.92513 0.0
H2069 H 0.02789 0.59528 0.92151 0.0
H2070 H 0.04338 0.59366 0.93873 0.0
H2071 H 0.01921 0.57997 0.98138 0.0
H2072 H 0.00348 0.58106 0.96419 0.0
H2073 H 0.98493 0.5695 0.84728 0.0
H2074 H 0.98893 0.58277 0.87202 0.0
H2075 H 0.98853 0.55533 0.90543 0.0
H2076 H 0.98521 0.54236 0.88046 0.0
H2077 H 0.00601 0.57505 0.9143 0.0
H2078 H 0.96492 0.56317 0.90326 0.0
H2079 H 0.94715 0.5598 0.88615 0.0
H2080 H 0.96375 0.59781 0.8755 0.0
H2081 H 0.98169 0.60139 0.89236 0.0
C2082 C 0.99904 0.609 0.97601 0.0
C2083 C 0.00509 0.62136 0.97185 0.0
C2084 C 0.99768 0.60036 0.96384 0.0
C2085 C 0.00248 0.6039 0.94734 0.0
C2086 C 0.00865 0.61627 0.94321 0.0
C2087 C 0.00982 0.62492 0.95531 0.0
C2088 C 0.99895 0.59476 0.93352 0.0
C2089 C 0.98934 0.59296 0.92268 0.0
C2090 C 0.00484 0.58799 0.93067 0.0
C2091 C 0.01468 0.58879 0.94182 0.0
C2092 C 0.02597 0.59213 0.93467 0.0
C2093 C 0.03473 0.59111 0.94433 0.0
C2094 C 0.03233 0.58683 0.96121 0.0
C2095 C 0.02112 0.58344 0.96838 0.0
C2096 C 0.01229 0.58434 0.95872 0.0
C2097 C 0.98558 0.5663 0.85996 0.0
C2098 C 0.98472 0.55493 0.86205 0.0
C2099 C 0.9878 0.57385 0.87412 0.0
C2100 C 0.98884 0.57002 0.89072 0.0
C2101 C 0.98777 0.55853 0.8928 0.0
C2102 C 0.98584 0.5511 0.87857 0.0
C2103 C 0.99171 0.57823 0.90577 0.0
C2104 C 0.00125 0.57997 0.91671 0.0
C2105 C 0.98548 0.58463 0.90906 0.0
C2106 C 0.97469 0.58253 0.89895 0.0
C2107 C 0.96481 0.5708 0.89717 0.0
C2108 C 0.95471 0.56885 0.88753 0.0
C2109 C 0.95433 0.57858 0.87971 0.0
C2110 C 0.96406 0.59028 0.88155 0.0
C2111 C 0.97419 0.59228 0.89116 0.0
H2112 H 0.9465 0.57706 0.87225 0.0
H2113 H 0.03913 0.58607 0.96869 0.0
H2114 H 0.37324 0.38488 0.96922 0.0
H2115 H 0.38354 0.39811 0.94483 0.0
H2116 H 0.41591 0.39704 0.95792 0.0
H2117 H 0.4058 0.38391 0.98221 0.0
H2118 H 0.42029 0.42008 0.95226 0.0
H2119 H 0.39869 0.3811 0.92439 0.0
H2120 H 0.38058 0.362 0.91636 0.0
H2121 H 0.36536 0.38183 0.89195 0.0
H2122 H 0.38333 0.40106 0.90005 0.0
H2123 H 0.4566 0.441 0.87886 0.0
H2124 H 0.44404 0.42955 0.90299 0.0
H2125 H 0.41431 0.43249 0.88145 0.0
H2126 H 0.42675 0.44366 0.8569 0.0
H2127 H 0.40709 0.40979 0.89152 0.0
H2128 H 0.42928 0.44874 0.91699 0.0
H2129 H 0.44726 0.46795 0.92496 0.0
H2130 H 0.4611 0.44861 0.95406 0.0
H2131 H 0.44328 0.42925 0.94606 0.0
C2132 C 0.38252 0.38738 0.96684 0.0
C2133 C 0.38866 0.3833 0.97774 0.0
C2134 C 0.38839 0.39493 0.95288 0.0
C2135 C 0.40049 0.39855 0.94957 0.0
C2136 C 0.40658 0.3944 0.96028 0.0
C2137 C 0.40074 0.38682 0.97415 0.0
C2138 C 0.40699 0.40686 0.93517 0.0
C2139 C 0.41747 0.4178 0.93896 0.0
C2140 C 0.40307 0.40407 0.91789 0.0
C2141 C 0.39228 0.39251 0.913 0.0
C2142 C 0.39143 0.38139 0.91744 0.0
C2143 C 0.38121 0.37054 0.91286 0.0
C2144 C 0.37181 0.3707 0.9037 0.0
C2145 C 0.37264 0.38172 0.89907 0.0
C2146 C 0.38284 0.39259 0.90365 0.0
C2147 C 0.44739 0.43923 0.87925 0.0
C2148 C 0.44268 0.44323 0.86593 0.0
C2149 C 0.44025 0.43277 0.89314 0.0
C2150 C 0.42825 0.43025 0.89413 0.0
C2151 C 0.42355 0.43436 0.88098 0.0
C2152 C 0.43071 0.44084 0.86705 0.0
C2153 C 0.42057 0.42291 0.90858 0.0
C2154 C 0.40986 0.41217 0.90482 0.0
C2155 C 0.42424 0.42591 0.92593 0.0
C2156 C 0.43498 0.43753 0.93081 0.0
C2157 C 0.4362 0.44857 0.92498 0.0
C2158 C 0.44636 0.45949 0.92952 0.0
C2159 C 0.45533 0.4595 0.93998 0.0
C2160 C 0.45415 0.44858 0.94595 0.0
C2161 C 0.44401 0.43764 0.94144 0.0
H2162 H 0.46319 0.46796 0.94348 0.0
H2163 H 0.3639 0.36229 0.90016 0.0
H2164 H 0.62844 0.99538 0.95455 0.0
H2165 H 0.6161 0.99538 0.93026 0.0
H2166 H 0.60413 0.01586 0.96027 0.0
H2167 H 0.61625 0.0155 0.98479 0.0
H2168 H 0.58568 0.99808 0.9448 0.0
H2169 H 0.62419 0.02877 0.92657 0.0
H2170 H 0.64584 0.03808 0.92034 0.0
H2171 H 0.63839 0.01091 0.88226 0.0
H2172 H 0.6167 0.00132 0.88843 0.0
H2173 H 0.5551 0.00466 0.87172 0.0
H2174 H 0.56906 0.00929 0.89604 0.0
H2175 H 0.58312 0.98813 0.87286 0.0
H2176 H 0.56951 0.98379 0.84836 0.0
H2177 H 0.60098 0.0089 0.88537 0.0
H2178 H 0.563 0.97687 0.90569 0.0
H2179 H 0.54136 0.96699 0.91235 0.0
H2180 H 0.5479 0.99594 0.94675 0.0
H2181 H 0.56957 0.00608 0.9401 0.0
C2182 C 0.62308 0.99978 0.95593 0.0
C2183 C 0.62287 0.00505 0.9716 0.0
C2184 C 0.61619 0.99995 0.942 0.0
C2185 C 0.60923 0.00569 0.94338 0.0
C2186 C 0.60938 0.01134 0.95893 0.0
C2187 C 0.61627 0.01114 0.97288 0.0
C2188 C 0.60139 0.00526 0.92885 0.0
C2189 C 0.58906 1.00058 0.93185 0.0
C2190 C 0.60577 0.00849 0.9119 0.0
C2191 C 0.61881 0.01428 0.90805 0.0
C2192 C 0.62717 0.02473 0.91695 0.0
C2193 C 0.63945 0.03007 0.91341 0.0
C2194 C 0.64349 0.02508 0.90093 0.0
C2195 C 0.63525 0.01476 0.89193 0.0
C2196 C 0.62296 0.00938 0.89542 0.0
C2197 C 0.56124 0.00109 0.87176 0.0
C2198 C 0.56112 0.99377 0.85818 0.0
C2199 C 0.56914 0.00366 0.88571 0.0
C2200 C 0.57705 0.99895 0.88635 0.0
C2201 C 0.57709 0.99184 0.87267 0.0
C2202 C 0.56921 0.98926 0.85875 0.0
C2203 C 0.58523 0.00127 0.90129 0.0
C2204 C 0.59762 0.00639 0.89835 0.0
C2205 C 0.5809 0.99835 0.91829 0.0
C2206 C 0.56787 0.99231 0.92222 0.0
C2207 C 0.5598 0.98119 0.91454 0.0
C2208 C 0.54754 0.97553 0.91834 0.0
C2209 C 0.54325 0.98085 0.92991 0.0
C2210 C 0.55123 0.99184 0.93775 0.0
C2211 C 0.5635 0.99754 0.93397 0.0
H2212 H 0.53376 0.97645 0.93285 0.0
H2213 H 0.65301 0.02922 0.89822 0.0
H2214 H 0.631 0.0149 0.05143 0.0
H2215 H 0.62083 0.01796 0.07574 0.0
H2216 H 0.59035 0.98237 0.06798 0.0
H2217 H 0.60031 0.97928 0.04356 0.0
H2218 H 0.58313 0.99853 0.07211 0.0
H2219 H 0.61045 0.98852 0.10136 0.0
H2220 H 0.63024 0.99059 0.10857 0.0
H2221 H 0.64287 0.02691 0.12596 0.0
H2222 H 0.6232 0.02511 0.11862 0.0
H2223 H 0.55234 0.99137 0.15027 0.0
H2224 H 0.5634 0.98936 0.12626 0.0
H2225 H 0.59275 0.02534 0.13589 0.0
H2226 H 0.58191 0.02727 0.16029 0.0
H2227 H 0.60095 0.00985 0.13064 0.0
H2228 H 0.57344 0.01967 0.10209 0.0
H2229 H 0.55364 0.01758 0.09494 0.0
H2230 H 0.54135 0.98162 0.07622 0.0
H2231 H 0.56103 0.98344 0.08348 0.0
C2232 C 0.62217 0.00767 0.05496 0.0
C2233 C 0.6165 0.99684 0.04549 0.0
C2234 C 0.61638 0.00944 0.06891 0.0
C2235 C 0.60485 1.00036 0.07375 0.0
C2236 C 0.59923 0.9895 0.06446 0.0
C2237 C 0.60498 0.98775 0.05051 0.0
C2238 C 0.59843 0.00226 0.08817 0.0
C2239 C 0.58696 1.00086 0.08496 0.0
C2240 C 0.60357 0.00563 0.10482 0.0
C2241 C 0.6154 0.00672 0.10927 0.0
C2242 C 0.61748 0.99698 0.10659 0.0
C2243 C 0.62867 0.9981 0.11072 0.0
C2244 C 0.63782 0.00889 0.11767 0.0
C2245 C 0.63579 0.01857 0.12054 0.0
C2246 C 0.62461 0.0175 0.11641 0.0
C2247 C 0.56116 0.99885 0.14732 0.0
C2248 C 0.56622 0.0095 0.15718 0.0
C2249 C 0.56743 0.99772 0.13349 0.0
C2250 C 0.57886 0.00725 0.12916 0.0
C2251 C 0.58393 0.01789 0.13896 0.0
C2252 C 0.57767 0.01902 0.1528 0.0
C2253 C 0.5856 0.006 0.11461 0.0
C2254 C 0.59713 0.00756 0.11778 0.0
C2255 C 0.58052 0.00276 0.09791 0.0
C2256 C 0.56868 0.00166 0.09348 0.0
C2257 C 0.56648 0.01129 0.09657 0.0
C2258 C 0.55528 0.01015 0.09247 0.0
C2259 C 0.54623 0.99946 0.08517 0.0
C2260 C 0.54836 0.98989 0.0819 0.0
C2261 C 0.55955 0.99097 0.08599 0.0
H2262 H 0.53756 0.9986 0.082 0.0
H2263 H 0.64648 0.00973 0.12087 0.0
H2264 H 0.99758 0.626 0.05228 0.0
H2265 H 0.99556 0.61342 0.07736 0.0
H2266 H 0.02661 0.61114 0.06137 0.0
H2267 H 0.02877 0.6237 0.03644 0.0
H2268 H 0.00712 0.58883 0.07 0.0
H2269 H 0.0295 0.62914 0.09334 0.0
H2270 H 0.03298 0.64961 0.09962 0.0
H2271 H 1.00039 0.63449 0.12878 0.0
H2272 H 0.99662 0.61391 0.12244 0.0
H2273 H 0.02137 0.56543 0.14334 0.0
H2274 H 0.02157 0.57769 0.11902 0.0
H2275 H 0.99374 0.58241 0.14259 0.0
H2276 H 0.99399 0.57075 0.16746 0.0
H2277 H 0.01009 0.60305 0.13003 0.0
H2278 H 0.98788 0.56283 0.10797 0.0
H2279 H 0.98383 0.54222 0.10127 0.0
H2280 H 0.01513 0.55675 0.06938 0.0
H2281 H 0.01947 0.57746 0.07607 0.0
C2282 C 0.004 0.62287 0.05412 0.0
C2283 C 0.01333 0.62588 0.04229 0.0
C2284 C 0.00285 0.6157 0.06847 0.0
C2285 C 0.01095 0.61137 0.0712 0.0
C2286 C 0.02024 0.61436 0.05946 0.0
C2287 C 0.02148 0.6216 0.04524 0.0
C2288 C 0.00974 0.60362 0.08618 0.0
C2289 C 0.00788 0.59195 0.08314 0.0
C2290 C 0.01038 0.60761 0.10328 0.0
C2291 C 0.01271 0.61998 0.10726 0.0
C2292 C 0.02302 0.63018 0.10097 0.0
C2293 C 0.02506 0.6418 0.10456 0.0
C2294 C 0.01689 0.64335 0.11455 0.0
C2295 C 0.0067 0.63328 0.12102 0.0
C2296 C 0.00461 0.62163 0.11744 0.0
C2297 C 0.01535 0.56914 0.14345 0.0
C2298 C 0.00764 0.56704 0.1574 0.0
C2299 C 0.01537 0.57604 0.1294 0.0
C2300 C 0.00754 0.58084 0.12882 0.0
C2301 C 0.99982 0.57876 0.14269 0.0
C2302 C 0.99988 0.57195 0.15683 0.0
C2303 C 0.0076 0.58823 0.1139 0.0
C2304 C 0.00924 0.59984 0.11692 0.0
C2305 C 0.00666 0.58416 0.09675 0.0
C2306 C 0.00405 0.5717 0.09265 0.0
C2307 C 0.99395 0.56163 0.09963 0.0
C2308 C 0.99159 0.54993 0.09582 0.0
C2309 C 0.99923 0.54818 0.08494 0.0
C2310 C 0.00923 0.55812 0.07782 0.0
C2311 C 0.01163 0.56985 0.0816 0.0
H2312 H 0.99739 0.53911 0.082 0.0
H2313 H 0.01848 0.65236 0.1173 0.0
H2314 H 0.37672 0.37097 0.06897 0.0
H2315 H 0.38902 0.38356 0.09293 0.0
H2316 H 0.40097 0.41542 0.06138 0.0
H2317 H 0.38885 0.4027 0.03724 0.0
H2318 H 0.41942 0.41635 0.07759 0.0
H2319 H 0.38087 0.40922 0.09406 0.0
H2320 H 0.35912 0.39717 0.09967 0.0
H2321 H 0.36597 0.37793 0.13974 0.0
H2322 H 0.38778 0.38977 0.13421 0.0
H2323 H 0.43092 0.44423 0.17043 0.0
H2324 H 0.4181 0.43558 0.14501 0.0
H2325 H 0.43892 0.41874 0.1306 0.0
H2326 H 0.45209 0.4278 0.1555 0.0
H2327 H 0.40357 0.41299 0.13645 0.0
H2328 H 0.43901 0.41597 0.08766 0.0
H2329 H 0.46044 0.42932 0.08095 0.0
H2330 H 0.45931 0.45928 0.10423 0.0
H2331 H 0.43783 0.44616 0.11085 0.0
C2332 C 0.38208 0.38066 0.06718 0.0
C2333 C 0.38226 0.3859 0.05121 0.0
C2334 C 0.38895 0.38786 0.08091 0.0
C2335 C 0.3959 0.40046 0.07899 0.0
C2336 C 0.39575 0.40572 0.06313 0.0
C2337 C 0.38884 0.39849 0.04939 0.0
C2338 C 0.40362 0.40804 0.09338 0.0
C2339 C 0.41596 0.41558 0.09046 0.0
C2340 C 0.39905 0.40738 0.11007 0.0
C2341 C 0.38596 0.40034 0.11364 0.0
C2342 C 0.37773 0.40237 0.104 0.0
C2343 C 0.36539 0.39558 0.10718 0.0
C2344 C 0.36116 0.38676 0.12003 0.0
C2345 C 0.36927 0.38476 0.12978 0.0
C2346 C 0.38162 0.39152 0.12665 0.0
C2347 C 0.43293 0.43889 0.16167 0.0
C2348 C 0.44257 0.43675 0.165 0.0
C2349 C 0.42551 0.43384 0.14723 0.0
C2350 C 0.42758 0.42658 0.13581 0.0
C2351 C 0.43723 0.42446 0.13907 0.0
C2352 C 0.44469 0.42955 0.15343 0.0
C2353 C 0.41946 0.42089 0.12079 0.0
C2354 C 0.40704 0.41372 0.12358 0.0
C2355 C 0.42393 0.42205 0.1039 0.0
C2356 C 0.43683 0.43005 0.09987 0.0
C2357 C 0.44332 0.42542 0.09127 0.0
C2358 C 0.45548 0.43294 0.0875 0.0
C2359 C 0.46124 0.44513 0.0922 0.0
C2360 C 0.45485 0.44983 0.10065 0.0
C2361 C 0.44268 0.44235 0.10443 0.0
H2362 H 0.47066 0.45094 0.08928 0.0
H2363 H 0.3516 0.3815 0.12245 0.0
H2364 H 0.65583 0.70631 0.38223 0.0
H2365 H 0.65136 0.71576 0.40625 0.0
H2366 H 0.68862 0.74362 0.40878 0.0
H2367 H 0.69321 0.73428 0.38487 0.0
H2368 H 0.67913 0.73546 0.44082 0.0
H2369 H 0.66905 0.74949 0.38921 0.0
H2370 H 0.65898 0.74723 0.36116 0.0
H2371 H 0.62444 0.72769 0.38518 0.0
H2372 H 0.63432 0.72967 0.41336 0.0
H2373 H 0.67452 0.78025 0.48833 0.0
H2374 H 0.67811 0.76972 0.4649 0.0
H2375 H 0.64055 0.74256 0.46455 0.0
H2376 H 0.63691 0.75287 0.48821 0.0
H2377 H 0.64963 0.74973 0.43173 0.0
H2378 H 0.66007 0.73638 0.48371 0.0
H2379 H 0.67046 0.73898 0.51156 0.0
H2380 H 0.70471 0.75767 0.48658 0.0
H2381 H 0.69451 0.75534 0.45859 0.0
C2382 C 0.66311 0.71437 0.38801 0.0
C2383 C 0.67487 0.71956 0.38154 0.0
C2384 C 0.66052 0.71979 0.40168 0.0
C2385 C 0.66964 0.73046 0.40915 0.0
C2386 C 0.68145 0.7354 0.40317 0.0
C2387 C 0.68404 0.73005 0.38945 0.0
C2388 C 0.66685 0.73673 0.42285 0.0
C2389 C 0.67277 0.73869 0.43878 0.0
C2390 C 0.6584 0.74076 0.42026 0.0
C2391 C 0.65243 0.73961 0.40336 0.0
C2392 C 0.65931 0.74462 0.38849 0.0
C2393 C 0.65363 0.74341 0.37257 0.0
C2394 C 0.64108 0.73729 0.37138 0.0
C2395 C 0.63417 0.7324 0.38612 0.0
C2396 C 0.6398 0.73358 0.40207 0.0
C2397 C 0.66702 0.77202 0.48332 0.0
C2398 C 0.65544 0.76737 0.49025 0.0
C2399 C 0.66908 0.76603 0.46989 0.0
C2400 C 0.65962 0.75528 0.46313 0.0
C2401 C 0.64797 0.75085 0.46958 0.0
C2402 C 0.64591 0.7568 0.48306 0.0
C2403 C 0.66195 0.7485 0.44968 0.0
C2404 C 0.65595 0.74646 0.43379 0.0
C2405 C 0.67036 0.74444 0.45228 0.0
C2406 C 0.67652 0.74579 0.46907 0.0
C2407 C 0.66981 0.74113 0.48417 0.0
C2408 C 0.67567 0.74254 0.49998 0.0
C2409 C 0.68824 0.74851 0.50084 0.0
C2410 C 0.69497 0.75306 0.48589 0.0
C2411 C 0.68916 0.75169 0.47005 0.0
H2412 H 0.69276 0.7496 0.51309 0.0
H2413 H 0.6367 0.73636 0.35905 0.0
H2414 H 0.2981 0.95214 0.39522 0.0
H2415 H 0.28435 0.9392 0.4174 0.0
H2416 H 0.25438 0.93643 0.38755 0.0
H2417 H 0.26801 0.94767 0.3643 0.0
H2418 H 0.27162 0.94268 0.4373 0.0
H2419 H 0.23322 0.92024 0.39485 0.0
H2420 H 0.22525 0.90962 0.36721 0.0
H2421 H 0.24605 0.89166 0.37361 0.0
H2422 H 0.2541 0.90228 0.40127 0.0
H2423 H 0.22768 0.90859 0.50055 0.0
H2424 H 0.23644 0.9211 0.47495 0.0
H2425 H 0.24221 0.89325 0.4532 0.0
H2426 H 0.2332 0.88062 0.47845 0.0
H2427 H 0.23461 0.90312 0.42906 0.0
H2428 H 0.26472 0.91734 0.47462 0.0
H2429 H 0.27264 0.92546 0.50351 0.0
H2430 H 0.26897 0.95664 0.49266 0.0
H2431 H 0.26088 0.94861 0.46377 0.0
C2432 C 0.2885 0.94806 0.39298 0.0
C2433 C 0.28406 0.95016 0.37756 0.0
C2434 C 0.28061 0.94091 0.40585 0.0
C2435 C 0.2681 0.9363 0.40407 0.0
C2436 C 0.26376 0.93901 0.38897 0.0
C2437 C 0.27162 0.94569 0.37576 0.0
C2438 C 0.25994 0.9295 0.41859 0.0
C2439 C 0.2635 0.93406 0.43538 0.0
C2440 C 0.24914 0.91832 0.4164 0.0
C2441 C 0.24476 0.9125 0.3995 0.0
C2442 C 0.23624 0.9142 0.39013 0.0
C2443 C 0.23167 0.90816 0.37454 0.0
C2444 C 0.2353 0.90013 0.3685 0.0
C2445 C 0.24341 0.89805 0.37813 0.0
C2446 C 0.24808 0.90417 0.39364 0.0
C2447 C 0.2306 0.90505 0.49016 0.0
C2448 C 0.22985 0.89366 0.49158 0.0
C2449 C 0.23569 0.91225 0.47561 0.0
C2450 C 0.24012 0.90818 0.46227 0.0
C2451 C 0.23888 0.8966 0.46335 0.0
C2452 C 0.23382 0.88942 0.47785 0.0
C2453 C 0.24663 0.9161 0.44754 0.0
C2454 C 0.24267 0.91182 0.43084 0.0
C2455 C 0.25713 0.92745 0.44984 0.0
C2456 C 0.26206 0.93231 0.46714 0.0
C2457 C 0.26552 0.92588 0.47845 0.0
C2458 C 0.27005 0.93048 0.49481 0.0
C2459 C 0.27127 0.94154 0.49994 0.0
C2460 C 0.268 0.94806 0.48869 0.0
C2461 C 0.26344 0.9435 0.47232 0.0
H2462 H 0.27478 0.94508 0.51261 0.0
H2463 H 0.23172 0.89541 0.35646 0.0
H2464 H 0.05226 0.32173 0.36754 0.0
H2465 H 0.06566 0.3226 0.39093 0.0
H2466 H 0.05206 0.34078 0.42291 0.0
H2467 H 0.03929 0.34058 0.39906 0.0
H2468 H 0.07417 0.35144 0.42705 0.0
H2469 H 0.045 0.30954 0.4279 0.0
H2470 H 0.03226 0.28901 0.41631 0.0
H2471 H 0.0638 0.28717 0.40259 0.0
H2472 H 0.07674 0.30776 0.41391 0.0
H2473 H 0.09325 0.3385 0.5076 0.0
H2474 H 0.08017 0.33601 0.48285 0.0
H2475 H 0.10726 0.33766 0.44863 0.0
H2476 H 0.12059 0.34053 0.47341 0.0
H2477 H 0.07905 0.31675 0.44565 0.0
H2478 H 0.10794 0.35988 0.44553 0.0
H2479 H 0.11939 0.37995 0.45907 0.0
H2480 H 0.08637 0.37866 0.47329 0.0
H2481 H 0.07473 0.35845 0.46012 0.0
C2482 C 0.05221 0.32591 0.3796 0.0
C2483 C 0.04509 0.33141 0.38146 0.0
C2484 C 0.05975 0.32629 0.39304 0.0
C2485 C 0.05983 0.33164 0.40886 0.0
C2486 C 0.05226 0.33668 0.41086 0.0
C2487 C 0.04499 0.33659 0.39726 0.0
C2488 C 0.06818 0.33255 0.42303 0.0
C2489 C 0.07514 0.3438 0.43108 0.0
C2490 C 0.06959 0.32263 0.42839 0.0
C2491 C 0.06184 0.31024 0.4216 0.0
C2492 C 0.04922 0.30479 0.4223 0.0
C2493 C 0.04196 0.29314 0.4158 0.0
C2494 C 0.04722 0.2868 0.40868 0.0
C2495 C 0.05974 0.2921 0.40809 0.0
C2496 C 0.06704 0.30375 0.41456 0.0
C2497 C 0.09637 0.33825 0.49479 0.0
C2498 C 0.10789 0.33968 0.49234 0.0
C2499 C 0.08892 0.33685 0.48072 0.0
C2500 C 0.09278 0.33665 0.464 0.0
C2501 C 0.10416 0.33778 0.46149 0.0
C2502 C 0.11175 0.33946 0.47558 0.0
C2503 C 0.08499 0.33563 0.44921 0.0
C2504 C 0.07812 0.32436 0.44126 0.0
C2505 C 0.08348 0.34547 0.44407 0.0
C2506 C 0.09048 0.35757 0.4521 0.0
C2507 C 0.10313 0.36379 0.45177 0.0
C2508 C 0.10965 0.37521 0.45932 0.0
C2509 C 0.10362 0.38055 0.46711 0.0
C2510 C 0.09104 0.37449 0.46731 0.0
C2511 C 0.08448 0.36306 0.45981 0.0
H2512 H 0.10868 0.3894 0.47292 0.0
H2513 H 0.04159 0.27778 0.40365 0.0
H2514 H 0.03803 0.3348 0.29093 0.0
H2515 H 0.04786 0.33086 0.26686 0.0
H2516 H 0.07434 0.33092 0.30198 0.0
H2517 H 0.06492 0.33554 0.32569 0.0
H2518 H 0.08541 0.34249 0.27602 0.0
H2519 H 0.04978 0.30409 0.28251 0.0
H2520 H 0.028 0.28983 0.28467 0.0
H2521 H 0.02235 0.29976 0.23401 0.0
H2522 H 0.04408 0.31419 0.23162 0.0
H2523 H 0.10858 0.31634 0.21682 0.0
H2524 H 0.09752 0.31814 0.24123 0.0
H2525 H 0.07729 0.32813 0.20654 0.0
H2526 H 0.08833 0.3264 0.18219 0.0
H2527 H 0.06309 0.31081 0.23218 0.0
H2528 H 0.0995 0.34962 0.22709 0.0
H2529 H 0.1215 0.36288 0.2256 0.0
H2530 H 0.12571 0.35048 0.27527 0.0
H2531 H 0.10374 0.337 0.27694 0.0
C2532 C 0.04594 0.33394 0.29341 0.0
C2533 C 0.05081 0.33557 0.31006 0.0
C2534 C 0.05151 0.33159 0.27971 0.0
C2535 C 0.06179 0.33041 0.28256 0.0
C2536 C 0.06649 0.33186 0.29934 0.0
C2537 C 0.06112 0.33451 0.31291 0.0
C2538 C 0.06795 0.32809 0.26809 0.0
C2539 C 0.0805 0.33541 0.26665 0.0
C2540 C 0.06161 0.319 0.25558 0.0
C2541 C 0.04854 0.3103 0.25696 0.0
C2542 C 0.04388 0.30329 0.27188 0.0
C2543 C 0.03155 0.29517 0.27314 0.0
C2544 C 0.02379 0.29391 0.2595 0.0
C2545 C 0.02836 0.30075 0.24456 0.0
C2546 C 0.04069 0.3089 0.24324 0.0
C2547 C 0.10171 0.31883 0.21444 0.0
C2548 C 0.09937 0.32133 0.19766 0.0
C2549 C 0.09543 0.31989 0.22835 0.0
C2550 C 0.08664 0.32333 0.22566 0.0
C2551 C 0.08405 0.32547 0.20887 0.0
C2552 C 0.09042 0.32457 0.19501 0.0
C2553 C 0.08042 0.32514 0.24036 0.0
C2554 C 0.06792 0.31779 0.24173 0.0
C2555 C 0.0868 0.33404 0.253 0.0
C2556 C 0.1 0.34221 0.25205 0.0
C2557 C 0.10513 0.34965 0.23763 0.0
C2558 C 0.11759 0.35722 0.23676 0.0
C2559 C 0.12501 0.3575 0.25031 0.0
C2560 C 0.11996 0.35024 0.26478 0.0
C2561 C 0.10751 0.34264 0.26569 0.0
H2562 H 0.13465 0.36337 0.24962 0.0
H2563 H 0.01425 0.28762 0.2605 0.0
H2564 H 0.68419 0.71765 0.29238 0.0
H2565 H 0.68455 0.7317 0.27052 0.0
H2566 H 0.6569 0.73465 0.29792 0.0
H2567 H 0.65794 0.72211 0.32091 0.0
H2568 H 0.6688 0.72903 0.24929 0.0
H2569 H 0.65295 0.75184 0.29109 0.0
H2570 H 0.65534 0.76186 0.31913 0.0
H2571 H 0.69378 0.77841 0.31529 0.0
H2572 H 0.69149 0.76833 0.28729 0.0
H2573 H 0.65896 0.76444 0.18668 0.0
H2574 H 0.65537 0.75171 0.21215 0.0
H2575 H 0.68917 0.77872 0.23408 0.0
H2576 H 0.69267 0.79155 0.2089 0.0
H2577 H 0.67175 0.76899 0.25819 0.0
H2578 H 0.6873 0.75478 0.21266 0.0
H2579 H 0.68699 0.74696 0.18361 0.0
H2580 H 0.65238 0.71611 0.19334 0.0
H2581 H 0.65242 0.72384 0.2224 0.0
C2582 C 0.67879 0.72196 0.29421 0.0
C2583 C 0.67165 0.71945 0.30884 0.0
C2584 C 0.67875 0.72978 0.28152 0.0
C2585 C 0.67105 0.73473 0.28271 0.0
C2586 C 0.66352 0.73175 0.29706 0.0
C2587 C 0.66395 0.72435 0.31009 0.0
C2588 C 0.67026 0.74206 0.26821 0.0
C2589 C 0.66941 0.73775 0.25134 0.0
C2590 C 0.6708 0.75337 0.2706 0.0
C2591 C 0.67207 0.75889 0.28767 0.0
C2592 C 0.66189 0.75745 0.29644 0.0
C2593 C 0.66321 0.76315 0.31226 0.0
C2594 C 0.6747 0.77062 0.31913 0.0
C2595 C 0.68488 0.77247 0.3101 0.0
C2596 C 0.68357 0.76666 0.29438 0.0
C2597 C 0.6655 0.76775 0.19709 0.0
C2598 C 0.67614 0.77895 0.19575 0.0
C2599 C 0.66348 0.76044 0.21156 0.0
C2600 C 0.67208 0.76421 0.2249 0.0
C2601 C 0.68243 0.77562 0.22392 0.0
C2602 C 0.68446 0.7829 0.20947 0.0
C2603 C 0.67072 0.7561 0.2395 0.0
C2604 C 0.67103 0.76021 0.25626 0.0
C2605 C 0.66978 0.74466 0.237 0.0
C2606 C 0.6698 0.73995 0.21961 0.0
C2607 C 0.67959 0.74637 0.20856 0.0
C2608 C 0.67947 0.74195 0.1921 0.0
C2609 C 0.66965 0.73106 0.18661 0.0
C2610 C 0.65996 0.72455 0.1976 0.0
C2611 C 0.66003 0.72895 0.21406 0.0
H2612 H 0.66958 0.72766 0.17387 0.0
H2613 H 0.67572 0.77508 0.33134 0.0
H2614 H 0.28693 0.96233 0.29789 0.0
H2615 H 0.27441 0.95276 0.27245 0.0
H2616 H 0.27627 0.92035 0.28268 0.0
H2617 H 0.28886 0.92982 0.30785 0.0
H2618 H 0.27907 0.92562 0.24928 0.0
H2619 H 0.25155 0.92259 0.29344 0.0
H2620 H 0.24355 0.93047 0.31557 0.0
H2621 H 0.23819 0.95201 0.27754 0.0
H2622 H 0.24632 0.94438 0.25521 0.0
H2623 H 0.22968 0.88127 0.20217 0.0
H2624 H 0.24271 0.89322 0.22595 0.0
H2625 H 0.24043 0.92427 0.20844 0.0
H2626 H 0.22761 0.91247 0.18436 0.0
H2627 H 0.23831 0.92119 0.24408 0.0
H2628 H 0.26482 0.92308 0.19959 0.0
H2629 H 0.2725 0.91473 0.17768 0.0
H2630 H 0.27955 0.89494 0.21667 0.0
H2631 H 0.27173 0.90303 0.2388 0.0
C2632 C 0.28475 0.9532 0.29467 0.0
C2633 C 0.2889 0.94686 0.305 0.0
C2634 C 0.27754 0.94772 0.28016 0.0
C2635 C 0.27429 0.93578 0.27577 0.0
C2636 C 0.27866 0.92956 0.28581 0.0
C2637 C 0.28586 0.93501 0.30025 0.0
C2638 C 0.26619 0.92961 0.26091 0.0
C2639 C 0.27013 0.92457 0.24823 0.0
C2640 C 0.25461 0.92846 0.25931 0.0
C2641 C 0.24967 0.93302 0.2727 0.0
C2642 C 0.24876 0.92908 0.28982 0.0
C2643 C 0.24418 0.93349 0.3024 0.0
C2644 C 0.2404 0.94177 0.29798 0.0
C2645 C 0.24115 0.94562 0.28096 0.0
C2646 C 0.24573 0.94125 0.26833 0.0
C2647 C 0.23198 0.89065 0.2033 0.0
C2648 C 0.22765 0.89591 0.19125 0.0
C2649 C 0.23939 0.89745 0.21695 0.0
C2650 C 0.24264 0.90966 0.21883 0.0
C2651 C 0.23802 0.91485 0.20721 0.0
C2652 C 0.23064 0.90807 0.1935 0.0
C2653 C 0.25114 0.91706 0.23266 0.0
C2654 C 0.24729 0.92233 0.24509 0.0
C2655 C 0.26279 0.91838 0.23409 0.0
C2656 C 0.26759 0.91358 0.22083 0.0
C2657 C 0.26792 0.91687 0.20348 0.0
C2658 C 0.27231 0.9122 0.19102 0.0
C2659 C 0.27648 0.90429 0.19577 0.0
C2660 C 0.2763 0.90106 0.21301 0.0
C2661 C 0.27191 0.9057 0.22552 0.0
H2662 H 0.27988 0.90068 0.18611 0.0
H2663 H 0.23686 0.94517 0.30773 0.0
H2664 H 0.67834 0.96953 0.28681 0.0
H2665 H 0.67911 0.95687 0.26383 0.0
H2666 H 0.65802 0.92504 0.29458 0.0
H2667 H 0.65764 0.93784 0.31782 0.0
H2668 H 0.67566 0.92348 0.28109 0.0
H2669 H 0.64597 0.93239 0.25905 0.0
H2670 H 0.6373 0.94526 0.25071 0.0
H2671 H 0.66527 0.9635 0.21366 0.0
H2672 H 0.6742 0.95085 0.22195 0.0
H2673 H 0.66075 0.89494 0.18866 0.0
H2674 H 0.65687 0.90453 0.21294 0.0
H2675 H 0.6936 0.91884 0.23037 0.0
H2676 H 0.69739 0.90875 0.20658 0.0
H2677 H 0.66587 0.92727 0.22033 0.0
H2678 H 0.69548 0.92272 0.27362 0.0
H2679 H 0.7025 0.90859 0.28265 0.0
H2680 H 0.67177 0.8793 0.25802 0.0
H2681 H 0.66447 0.89322 0.24907 0.0
C2682 C 0.67398 0.95983 0.28865 0.0
C2683 C 0.66831 0.95463 0.3042 0.0
C2684 C 0.67426 0.95259 0.27545 0.0
C2685 C 0.66858 0.93997 0.27742 0.0
C2686 C 0.66254 0.93475 0.2928 0.0
C2687 C 0.6623 0.94202 0.30603 0.0
C2688 C 0.66926 0.9323 0.26362 0.0
C2689 C 0.67356 0.92435 0.26781 0.0
C2690 C 0.66619 0.93315 0.24632 0.0
C2691 C 0.6608 0.94072 0.24121 0.0
C2692 C 0.65031 0.9392 0.2492 0.0
C2693 C 0.64535 0.94645 0.24448 0.0
C2694 C 0.65074 0.95521 0.23169 0.0
C2695 C 0.6611 0.95672 0.22357 0.0
C2696 C 0.66611 0.94949 0.22826 0.0
C2697 C 0.66794 0.89988 0.19786 0.0
C2698 C 0.67938 0.901 0.19567 0.0
C2699 C 0.66574 0.90549 0.21165 0.0
C2700 C 0.67491 0.91235 0.22357 0.0
C2701 C 0.68632 0.91345 0.2215 0.0
C2702 C 0.68851 0.90777 0.20777 0.0
C2703 C 0.67264 0.91874 0.23775 0.0
C2704 C 0.66803 0.92645 0.23362 0.0
C2705 C 0.67524 0.91752 0.25515 0.0
C2706 C 0.67949 0.90904 0.26055 0.0
C2707 C 0.69019 0.91326 0.2702 0.0
C2708 C 0.69422 0.90528 0.27529 0.0
C2709 C 0.6876 0.89306 0.27086 0.0
C2710 C 0.67691 0.88878 0.26138 0.0
C2711 C 0.67283 0.89671 0.25628 0.0
H2712 H 0.69074 0.88691 0.2748 0.0
H2713 H 0.64689 0.96081 0.22805 0.0
H2714 H 0.038 0.71828 0.30524 0.0
H2715 H 0.0471 0.73186 0.28085 0.0
H2716 H 0.07953 0.72966 0.28777 0.0
H2717 H 0.07062 0.71623 0.31228 0.0
H2718 H 0.08466 0.75262 0.28398 0.0
H2719 H 0.05989 0.71507 0.25463 0.0
H2720 H 0.04104 0.69643 0.24749 0.0
H2721 H 0.02494 0.71752 0.23082 0.0
H2722 H 0.04366 0.7363 0.23808 0.0
H2723 H 0.11353 0.77799 0.20498 0.0
H2724 H 0.1036 0.76474 0.22944 0.0
H2725 H 0.07237 0.76887 0.22099 0.0
H2726 H 0.08214 0.78191 0.19624 0.0
H2727 H 0.06617 0.74537 0.22576 0.0
H2728 H 0.09116 0.78295 0.25433 0.0
H2729 H 0.11004 0.80158 0.26138 0.0
H2730 H 0.12575 0.78044 0.2795 0.0
H2731 H 0.107 0.76168 0.27233 0.0
C2732 C 0.04703 0.72057 0.3015 0.0
C2733 C 0.05356 0.71612 0.31078 0.0
C2734 C 0.05221 0.72833 0.28751 0.0
C2735 C 0.06398 0.73174 0.28243 0.0
C2736 C 0.07045 0.72718 0.29149 0.0
C2737 C 0.0653 0.71944 0.30547 0.0
C2738 C 0.06974 0.74035 0.26803 0.0
C2739 C 0.08069 0.75096 0.27119 0.0
C2740 C 0.06439 0.73836 0.25147 0.0
C2741 C 0.05313 0.72708 0.24707 0.0
C2742 C 0.0523 0.71573 0.24958 0.0
C2743 C 0.04164 0.70514 0.24548 0.0
C2744 C 0.03178 0.70579 0.23875 0.0
C2745 C 0.03257 0.71703 0.23606 0.0
C2746 C 0.04321 0.72765 0.24015 0.0
C2747 C 0.10455 0.77609 0.20834 0.0
C2748 C 0.09863 0.78101 0.19868 0.0
C2749 C 0.09892 0.76859 0.2224 0.0
C2750 C 0.08727 0.76588 0.22711 0.0
C2751 C 0.08137 0.77086 0.21759 0.0
C2752 C 0.08701 0.77839 0.20356 0.0
C2753 C 0.08114 0.75758 0.24168 0.0
C2754 C 0.07012 0.74705 0.23856 0.0
C2755 C 0.08642 0.75964 0.25828 0.0
C2756 C 0.09771 0.77091 0.26264 0.0
C2757 C 0.09867 0.78227 0.25968 0.0
C2758 C 0.10934 0.79286 0.26373 0.0
C2759 C 0.1191 0.79219 0.27084 0.0
C2760 C 0.11819 0.78094 0.27397 0.0
C2761 C 0.10754 0.77033 0.26993 0.0
H2762 H 0.12736 0.8004 0.27397 0.0
H2763 H 0.02354 0.69758 0.23559 0.0
H2764 H 0.27858 0.34645 0.32361 0.0
H2765 H 0.2666 0.34963 0.30161 0.0
H2766 H 0.2726 0.32708 0.26651 0.0
H2767 H 0.28556 0.32482 0.28806 0.0
H2768 H 0.27967 0.35377 0.25805 0.0
H2769 H 0.23245 0.31302 0.26115 0.0
H2770 H 0.2161 0.29984 0.28077 0.0
H2771 H 0.23027 0.32763 0.31927 0.0
H2772 H 0.24626 0.34113 0.29957 0.0
H2773 H 0.24836 0.34849 0.18019 0.0
H2774 H 0.25828 0.34627 0.20594 0.0
H2775 H 0.23418 0.35227 0.23773 0.0
H2776 H 0.22381 0.35371 0.21187 0.0
H2777 H 0.23548 0.335 0.25035 0.0
H2778 H 0.26579 0.37379 0.23227 0.0
H2779 H 0.27999 0.38937 0.21246 0.0
H2780 H 0.29858 0.36928 0.2059 0.0
H2781 H 0.28438 0.35348 0.22549 0.0
C2782 C 0.27704 0.34189 0.31135 0.0
C2783 C 0.28253 0.33492 0.30777 0.0
C2784 C 0.27 0.34353 0.29889 0.0
C2785 C 0.26808 0.33802 0.28273 0.0
C2786 C 0.27356 0.33103 0.27913 0.0
C2787 C 0.28088 0.32966 0.29146 0.0
C2788 C 0.26238 0.34135 0.26859 0.0
C2789 C 0.27 0.34965 0.25631 0.0
C2790 C 0.24977 0.3363 0.26665 0.0
C2791 C 0.24099 0.32787 0.27923 0.0
C2792 C 0.23218 0.31624 0.27391 0.0
C2793 C 0.22284 0.30878 0.28494 0.0
C2794 C 0.22225 0.31282 0.30136 0.0
C2795 C 0.23087 0.32441 0.30667 0.0
C2796 C 0.24013 0.33196 0.2956 0.0
C2797 C 0.2453 0.34944 0.19272 0.0
C2798 C 0.2354 0.3513 0.19418 0.0
C2799 C 0.25102 0.34827 0.20744 0.0
C2800 C 0.24714 0.3493 0.22388 0.0
C2801 C 0.23736 0.35142 0.22525 0.0
C2802 C 0.23147 0.3523 0.21052 0.0
C2803 C 0.25275 0.34735 0.23961 0.0
C2804 C 0.24516 0.33924 0.25208 0.0
C2805 C 0.26538 0.35291 0.24204 0.0
C2806 C 0.27395 0.3624 0.23025 0.0
C2807 C 0.27285 0.37265 0.22651 0.0
C2808 C 0.28091 0.38153 0.21533 0.0
C2809 C 0.29016 0.38031 0.20789 0.0
C2810 C 0.2914 0.37021 0.21166 0.0
C2811 C 0.28336 0.3613 0.22281 0.0
H2812 H 0.29639 0.38719 0.19924 0.0
H2813 H 0.21506 0.30702 0.30992 0.0
H2814 H 0.29541 0.34031 0.39003 0.0
H2815 H 0.28552 0.34302 0.41514 0.0
H2816 H 0.25098 0.31611 0.39526 0.0
H2817 H 0.26069 0.31314 0.37043 0.0
H2818 H 0.25228 0.33837 0.40628 0.0
H2819 H 0.26211 0.30795 0.42565 0.0
H2820 H 0.27606 0.30013 0.43138 0.0
H2821 H 0.29645 0.32952 0.46618 0.0
H2822 H 0.28272 0.33762 0.46043 0.0
H2823 H 0.21197 0.3231 0.47499 0.0
H2824 H 0.22423 0.32342 0.45099 0.0
H2825 H 0.25645 0.3441 0.48139 0.0
H2826 H 0.24421 0.34321 0.50581 0.0
H2827 H 0.25811 0.32711 0.46533 0.0
H2828 H 0.2481 0.35707 0.44812 0.0
H2829 H 0.23505 0.36589 0.4421 0.0
H2830 H 0.21619 0.33908 0.4032 0.0
H2831 H 0.22902 0.32998 0.40916 0.0
C2832 C 0.28571 0.33494 0.39103 0.0
C2833 C 0.27886 0.32652 0.37817 0.0
C2834 C 0.28009 0.3365 0.40537 0.0
C2835 C 0.26753 0.32978 0.40698 0.0
C2836 C 0.26068 0.32141 0.39419 0.0
C2837 C 0.26628 0.31971 0.38003 0.0
C2838 C 0.26142 0.33137 0.42198 0.0
C2839 C 0.25346 0.33584 0.41919 0.0
C2840 C 0.26331 0.32842 0.43884 0.0
C2841 C 0.27147 0.32347 0.44245 0.0
C2842 C 0.26963 0.3128 0.43441 0.0
C2843 C 0.27749 0.30831 0.43768 0.0
C2844 C 0.28716 0.31435 0.4491 0.0
C2845 C 0.28897 0.32487 0.45731 0.0
C2846 C 0.28115 0.32941 0.45406 0.0
C2847 C 0.22166 0.32767 0.47664 0.0
C2848 C 0.22707 0.33313 0.49239 0.0
C2849 C 0.22868 0.32798 0.4628 0.0
C2850 C 0.2413 0.33393 0.46427 0.0
C2851 C 0.24674 0.33949 0.4799 0.0
C2852 C 0.23972 0.3391 0.49381 0.0
C2853 C 0.24874 0.33396 0.44967 0.0
C2854 C 0.25697 0.32979 0.45249 0.0
C2855 C 0.24722 0.33734 0.43284 0.0
C2856 C 0.23947 0.34278 0.4292 0.0
C2857 C 0.24111 0.35299 0.43838 0.0
C2858 C 0.23376 0.35806 0.43496 0.0
C2859 C 0.22478 0.35304 0.4223 0.0
C2860 C 0.22315 0.34296 0.41301 0.0
C2861 C 0.23047 0.33785 0.41639 0.0
H2862 H 0.2191 0.35697 0.41967 0.0
H2863 H 0.29323 0.31085 0.4516 0.0
H2864 H 0.69194 0.95765 0.37733 0.0
H2865 H 0.68792 0.94386 0.4013 0.0
H2866 H 0.65287 0.94047 0.40748 0.0
H2867 H 0.65681 0.9544 0.38339 0.0
H2868 H 0.6651 0.94249 0.43886 0.0
H2869 H 0.65433 0.91886 0.38737 0.0
H2870 H 0.65775 0.91436 0.35785 0.0
H2871 H 0.68818 0.91136 0.37535 0.0
H2872 H 0.6851 0.91607 0.40494 0.0
H2873 H 0.64937 0.89338 0.4963 0.0
H2874 H 0.64828 0.90477 0.47156 0.0
H2875 H 0.68202 0.90926 0.45326 0.0
H2876 H 0.68287 0.89741 0.47743 0.0
H2877 H 0.66735 0.90532 0.42713 0.0
H2878 H 0.68009 0.93143 0.47699 0.0
H2879 H 0.67816 0.93737 0.5064 0.0
H2880 H 0.6452 0.93656 0.49202 0.0
H2881 H 0.64686 0.93046 0.46257 0.0
C2882 C 0.6834 0.9541 0.38381 0.0
C2883 C 0.67465 0.95708 0.37827 0.0
C2884 C 0.68111 0.94617 0.39751 0.0
C2885 C 0.67003 0.94099 0.40595 0.0
C2886 C 0.66146 0.94433 0.40104 0.0
C2887 C 0.66373 0.95228 0.38726 0.0
C2888 C 0.66736 0.93179 0.41947 0.0
C2889 C 0.66534 0.93423 0.43628 0.0
C2890 C 0.66787 0.92113 0.41607 0.0
C2891 C 0.66952 0.91789 0.39838 0.0
C2892 C 0.66179 0.91729 0.38492 0.0
C2893 C 0.66367 0.91471 0.36817 0.0
C2894 C 0.67319 0.9126 0.36472 0.0
C2895 C 0.68082 0.91301 0.37804 0.0
C2896 C 0.679 0.91562 0.39481 0.0
C2897 C 0.65643 0.89657 0.48682 0.0
C2898 C 0.66628 0.89459 0.48896 0.0
C2899 C 0.65586 0.9032 0.47278 0.0
C2900 C 0.66519 0.90808 0.46072 0.0
C2901 C 0.67475 0.90565 0.46244 0.0
C2902 C 0.67528 0.89897 0.47638 0.0
C2903 C 0.66536 0.91613 0.44669 0.0
C2904 C 0.6669 0.91346 0.42973 0.0
C2905 C 0.6645 0.92663 0.44998 0.0
C2906 C 0.66352 0.93035 0.46765 0.0
C2907 C 0.67238 0.93243 0.48014 0.0
C2908 C 0.67135 0.93584 0.49681 0.0
C2909 C 0.66154 0.9373 0.50109 0.0
C2910 C 0.65277 0.9354 0.48869 0.0
C2911 C 0.65376 0.93197 0.47201 0.0
H2912 H 0.66076 0.93995 0.514 0.0
H2913 H 0.67465 0.91062 0.35174 0.0
H2914 H 0.04471 0.70336 0.40227 0.0
H2915 H 0.05756 0.71592 0.42585 0.0
H2916 H 0.06774 0.74792 0.3953 0.0
H2917 H 0.0551 0.73523 0.37149 0.0
H2918 H 0.0869 0.74938 0.40983 0.0
H2919 H 0.04818 0.74029 0.42971 0.0
H2920 H 0.0268 0.7273 0.437 0.0
H2921 H 0.03655 0.70895 0.47499 0.0
H2922 H 0.05798 0.72172 0.46776 0.0
H2923 H 0.09947 0.77818 0.50175 0.0
H2924 H 0.08626 0.76843 0.47707 0.0
H2925 H 0.10855 0.75334 0.46217 0.0
H2926 H 0.12209 0.76347 0.48646 0.0
H2927 H 0.07272 0.74532 0.46982 0.0
H2928 H 0.10729 0.74989 0.4186 0.0
H2929 H 0.12834 0.76392 0.41064 0.0
H2930 H 0.12635 0.79325 0.43449 0.0
H2931 H 0.10524 0.77944 0.44236 0.0
C2932 C 0.04979 0.71307 0.40061 0.0
C2933 C 0.04933 0.71836 0.38498 0.0
C2934 C 0.05699 0.72026 0.41414 0.0
C2935 C 0.0636 0.73289 0.4124 0.0
C2936 C 0.06279 0.7382 0.39691 0.0
C2937 C 0.05558 0.73098 0.38336 0.0
C2938 C 0.07165 0.74049 0.42655 0.0
C2939 C 0.0838 0.74844 0.42294 0.0
C2940 C 0.06756 0.73954 0.44362 0.0
C2941 C 0.05468 0.73191 0.4481 0.0
C2942 C 0.04576 0.73343 0.43954 0.0
C2943 C 0.03363 0.72611 0.44367 0.0
C2944 C 0.03031 0.71729 0.45643 0.0
C2945 C 0.03913 0.71578 0.46511 0.0
C2946 C 0.05127 0.72307 0.46101 0.0
C2947 C 0.10172 0.77299 0.49304 0.0
C2948 C 0.1119 0.77167 0.49605 0.0
C2949 C 0.09407 0.76731 0.47903 0.0
C2950 C 0.09644 0.76021 0.4677 0.0
C2951 C 0.10662 0.7589 0.47061 0.0
C2952 C 0.11429 0.76461 0.4846 0.0
C2953 C 0.08806 0.75389 0.45315 0.0
C2954 C 0.07583 0.74619 0.4567 0.0
C2955 C 0.09206 0.75518 0.43598 0.0
C2956 C 0.10472 0.7636 0.43121 0.0
C2957 C 0.11133 0.75934 0.42208 0.0
C2958 C 0.12327 0.76726 0.4176 0.0
C2959 C 0.12869 0.77946 0.42211 0.0
C2960 C 0.12216 0.78379 0.43106 0.0
C2961 C 0.11021 0.77592 0.43556 0.0
H2962 H 0.13794 0.78558 0.41863 0.0
H2963 H 0.02092 0.71163 0.4596 0.0
H2964 H 0.35917 0.07074 0.7173 0.0
H2965 H 0.35433 0.07958 0.74151 0.0
H2966 H 0.31793 0.04976 0.74121 0.0
H2967 H 0.32263 0.04087 0.71673 0.0
H2968 H 0.31833 0.07109 0.74391 0.0
H2969 H 0.33766 0.05181 0.7723 0.0
H2970 H 0.35357 0.04653 0.77772 0.0
H2971 H 0.37904 0.08381 0.7877 0.0
H2972 H 0.36332 0.08935 0.7821 0.0
H2973 H 0.30443 0.08697 0.82546 0.0
H2974 H 0.30757 0.07652 0.80148 0.0
H2975 H 0.3443 0.10535 0.79738 0.0
H2976 H 0.3412 0.11593 0.82118 0.0
H2977 H 0.34276 0.08325 0.79763 0.0
H2978 H 0.32335 0.10245 0.76803 0.0
H2979 H 0.30727 0.1075 0.7627 0.0
H2980 H 0.28167 0.06992 0.75536 0.0
H2981 H 0.29757 0.06462 0.76089 0.0
C2982 C 0.35014 0.06597 0.72241 0.0
C2983 C 0.3413 0.05505 0.71504 0.0
C2984 C 0.34741 0.07104 0.73632 0.0
C2985 C 0.3358 0.06527 0.74329 0.0
C2986 C 0.32695 0.05435 0.73605 0.0
C2987 C 0.32968 0.04926 0.72209 0.0
C2988 C 0.3329 0.07087 0.75784 0.0
C2989 C 0.32354 0.07356 0.75578 0.0
C2990 C 0.33984 0.07429 0.7732 0.0
C2991 C 0.34933 0.071 0.77663 0.0
C2992 C 0.34668 0.0589 0.77552 0.0
C2993 C 0.35566 0.05586 0.77865 0.0
C2994 C 0.36732 0.06484 0.78302 0.0
C2995 C 0.37001 0.07687 0.7843 0.0
C2996 C 0.36106 0.07996 0.78117 0.0
C2997 C 0.31311 0.0912 0.81926 0.0
C2998 C 0.32257 0.10229 0.82527 0.0
C2999 C 0.31491 0.08519 0.80559 0.0
C3000 C 0.32617 0.09017 0.79762 0.0
C3001 C 0.33556 0.10131 0.80341 0.0
C3002 C 0.33377 0.10733 0.81704 0.0
C3003 C 0.32831 0.08361 0.7836 0.0
C3004 C 0.33752 0.08071 0.78579 0.0
C3005 C 0.3212 0.07996 0.76841 0.0
C3006 C 0.31163 0.08313 0.76506 0.0
C3007 C 0.31427 0.09525 0.76543 0.0
C3008 C 0.30519 0.09816 0.76234 0.0
C3009 C 0.29344 0.08903 0.75874 0.0
C3010 C 0.29076 0.07698 0.75818 0.0
C3011 C 0.29981 0.07402 0.76127 0.0
H3012 H 0.28643 0.0913 0.75635 0.0
H3013 H 0.37426 0.06246 0.78544 0.0
H3014 H 0.9682 0.28617 0.72744 0.0
H3015 H 0.95506 0.2725 0.74965 0.0
H3016 H 0.92412 0.2691 0.72175 0.0
H3017 H 0.93717 0.28133 0.69857 0.0
H3018 H 0.94228 0.27579 0.7704 0.0
H3019 H 0.90271 0.25196 0.72976 0.0
H3020 H 0.89465 0.24144 0.70208 0.0
H3021 H 0.91769 0.22579 0.70587 0.0
H3022 H 0.9259 0.23636 0.73353 0.0
H3023 H 0.88351 0.22441 0.81343 0.0
H3024 H 0.89352 0.23792 0.78915 0.0
H3025 H 0.92762 0.24219 0.80648 0.0
H3026 H 0.91784 0.22922 0.83105 0.0
H3027 H 0.90545 0.23596 0.76296 0.0
H3028 H 0.95035 0.26967 0.79736 0.0
H3029 H 0.95722 0.27876 0.82608 0.0
H3030 H 0.92197 0.27335 0.83665 0.0
H3031 H 0.91492 0.2644 0.80791 0.0
C3032 C 0.95854 0.28186 0.72562 0.0
C3033 C 0.95366 0.28418 0.71083 0.0
C3034 C 0.95101 0.27424 0.73849 0.0
C3035 C 0.93842 0.2693 0.73728 0.0
C3036 C 0.93361 0.27203 0.7227 0.0
C3037 C 0.94113 0.27926 0.70954 0.0
C3038 C 0.93064 0.26232 0.75203 0.0
C3039 C 0.93432 0.26701 0.76871 0.0
C3040 C 0.9198 0.25116 0.75003 0.0
C3041 C 0.91529 0.24533 0.73317 0.0
C3042 C 0.90617 0.24642 0.7245 0.0
C3043 C 0.90156 0.24044 0.70887 0.0
C3044 C 0.90578 0.23309 0.70209 0.0
C3045 C 0.91456 0.23163 0.71099 0.0
C3046 C 0.91928 0.23772 0.72652 0.0
C3047 C 0.89316 0.22834 0.81217 0.0
C3048 C 0.89986 0.22569 0.82419 0.0
C3049 C 0.89886 0.236 0.79823 0.0
C3050 C 0.91135 0.24121 0.79611 0.0
C3051 C 0.91801 0.23847 0.808 0.0
C3052 C 0.91236 0.23089 0.82193 0.0
C3053 C 0.91747 0.24919 0.78122 0.0
C3054 C 0.9134 0.24477 0.76459 0.0
C3055 C 0.92787 0.26066 0.78329 0.0
C3056 C 0.93209 0.26627 0.8005 0.0
C3057 C 0.94408 0.27048 0.80577 0.0
C3058 C 0.948 0.2756 0.82206 0.0
C3059 C 0.94003 0.2766 0.8332 0.0
C3060 C 0.92812 0.27253 0.82803 0.0
C3061 C 0.92416 0.26742 0.81175 0.0
H3062 H 0.94307 0.28054 0.84582 0.0
H3063 H 0.90217 0.22841 0.69004 0.0
H3064 H 0.70391 0.67208 0.72836 0.0
H3065 H 0.71481 0.67147 0.75376 0.0
H3066 H 0.74289 0.6731 0.72127 0.0
H3067 H 0.73017 0.67031 0.69631 0.0
H3068 H 0.74302 0.66132 0.74303 0.0
H3069 H 0.74105 0.69932 0.75495 0.0
H3070 H 0.73004 0.71045 0.76078 0.0
H3071 H 0.70993 0.685 0.80024 0.0
H3072 H 0.72079 0.67383 0.79473 0.0
H3073 H 0.7906 0.68646 0.8058 0.0
H3074 H 0.7767 0.68356 0.78191 0.0
H3075 H 0.74656 0.66538 0.81604 0.0
H3076 H 0.76037 0.66819 0.8399 0.0
H3077 H 0.74616 0.68372 0.79644 0.0
H3078 H 0.75056 0.64887 0.78859 0.0
H3079 H 0.76171 0.63779 0.78506 0.0
H3080 H 0.7776 0.6576 0.73882 0.0
H3081 H 0.76668 0.66894 0.74221 0.0
C3082 C 0.71252 0.67247 0.7268 0.0
C3083 C 0.7167 0.67216 0.71035 0.0
C3084 C 0.71896 0.67239 0.74143 0.0
C3085 C 0.73023 0.67296 0.73996 0.0
C3086 C 0.73434 0.67273 0.72325 0.0
C3087 C 0.72732 0.67163 0.70876 0.0
C3088 C 0.73745 0.67297 0.75543 0.0
C3089 C 0.7439 0.66662 0.75437 0.0
C3090 C 0.73813 0.679 0.77114 0.0
C3091 C 0.73159 0.6857 0.77422 0.0
C3092 C 0.73421 0.6961 0.76473 0.0
C3093 C 0.72802 0.7024 0.768 0.0
C3094 C 0.71925 0.69838 0.78072 0.0
C3095 C 0.71669 0.68809 0.79033 0.0
C3096 C 0.72287 0.6818 0.78718 0.0
C3097 C 0.781 0.68177 0.80814 0.0
C3098 C 0.77655 0.6775 0.82467 0.0
C3099 C 0.77309 0.68008 0.79451 0.0
C3100 C 0.76061 0.67422 0.79723 0.0
C3101 C 0.75615 0.6699 0.81369 0.0
C3102 C 0.76404 0.67144 0.82725 0.0
C3103 C 0.75225 0.67304 0.78306 0.0
C3104 C 0.74545 0.67886 0.78466 0.0
C3105 C 0.75133 0.66667 0.76784 0.0
C3106 C 0.75789 0.65984 0.76575 0.0
C3107 C 0.75651 0.65094 0.77775 0.0
C3108 C 0.76278 0.6446 0.77576 0.0
C3109 C 0.77038 0.64701 0.76175 0.0
C3110 C 0.77172 0.65575 0.74967 0.0
C3111 C 0.76548 0.66213 0.75162 0.0
H3112 H 0.77522 0.64209 0.76022 0.0
H3113 H 0.71448 0.70327 0.78319 0.0
H3114 H 0.73029 0.69016 0.62767 0.0
H3115 H 0.73961 0.68518 0.60418 0.0
H3116 H 0.71639 0.64719 0.61389 0.0
H3117 H 0.70692 0.65206 0.63742 0.0
H3118 H 0.74097 0.65403 0.61108 0.0
H3119 H 0.71092 0.65883 0.57982 0.0
H3120 H 0.69993 0.6694 0.57093 0.0
H3121 H 0.73258 0.69885 0.55124 0.0
H3122 H 0.7438 0.68854 0.56024 0.0
H3123 H 0.75596 0.63226 0.53689 0.0
H3124 H 0.74589 0.6366 0.55995 0.0
H3125 H 0.76393 0.67422 0.54535 0.0
H3126 H 0.77343 0.66982 0.52153 0.0
H3127 H 0.74152 0.66722 0.55083 0.0
H3128 H 0.77188 0.66334 0.58227 0.0
H3129 H 0.78355 0.6536 0.59173 0.0
H3130 H 0.75148 0.62359 0.61177 0.0
H3131 H 0.73958 0.63307 0.60223 0.0
C3132 C 0.72707 0.68073 0.62475 0.0
C3133 C 0.71783 0.67151 0.63443 0.0
C3134 C 0.7324 0.67791 0.61129 0.0
C3135 C 0.72866 0.66582 0.60728 0.0
C3136 C 0.71939 0.65658 0.6168 0.0
C3137 C 0.71395 0.65939 0.63016 0.0
C3138 C 0.7347 0.66288 0.59346 0.0
C3139 C 0.74095 0.65674 0.59784 0.0
C3140 C 0.73497 0.66676 0.57633 0.0
C3141 C 0.72822 0.67296 0.57085 0.0
C3142 C 0.71578 0.66761 0.57372 0.0
C3143 C 0.7095 0.67354 0.56864 0.0
C3144 C 0.71556 0.6848 0.56056 0.0
C3145 C 0.7279 0.69014 0.55752 0.0
C3146 C 0.73422 0.68424 0.56259 0.0
C3147 C 0.75775 0.64146 0.53849 0.0
C3148 C 0.76551 0.65068 0.52725 0.0
C3149 C 0.75209 0.64396 0.55186 0.0
C3150 C 0.75423 0.65577 0.55456 0.0
C3151 C 0.76213 0.66503 0.54357 0.0
C3152 C 0.76769 0.66252 0.53006 0.0
C3153 C 0.7479 0.6584 0.5684 0.0
C3154 C 0.74157 0.66448 0.56404 0.0
C3155 C 0.74768 0.65459 0.5856 0.0
C3156 C 0.75482 0.64886 0.59138 0.0
C3157 C 0.7673 0.65462 0.58857 0.0
C3158 C 0.77396 0.64915 0.59397 0.0
C3159 C 0.76825 0.63797 0.6023 0.0
C3160 C 0.75588 0.63224 0.60529 0.0
C3161 C 0.74917 0.63766 0.59991 0.0
H3162 H 0.77343 0.63375 0.60648 0.0
H3163 H 0.71068 0.68938 0.55664 0.0
H3164 H 0.34365 0.04047 0.62164 0.0
H3165 H 0.34288 0.05002 0.595 0.0
H3166 H 0.33894 0.07683 0.62391 0.0
H3167 H 0.33695 0.06542 0.65008 0.0
H3168 H 0.32651 0.07353 0.6004 0.0
H3169 H 0.3705 0.08075 0.58965 0.0
H3170 H 0.38409 0.07228 0.58471 0.0
H3171 H 0.35717 0.04445 0.55295 0.0
H3172 H 0.34366 0.05291 0.55726 0.0
H3173 H 0.3449 0.12032 0.53847 0.0
H3174 H 0.34264 0.10708 0.56284 0.0
H3175 H 0.3396 0.07953 0.52767 0.0
H3176 H 0.34242 0.09297 0.50346 0.0
H3177 H 0.35361 0.08093 0.55131 0.0
H3178 H 0.31495 0.07744 0.55126 0.0
H3179 H 0.29989 0.08423 0.55112 0.0
H3180 H 0.31335 0.10175 0.59979 0.0
H3181 H 0.32861 0.09521 0.60012 0.0
C3182 C 0.34277 0.04851 0.62217 0.0
C3183 C 0.34091 0.05258 0.63793 0.0
C3184 C 0.34261 0.05422 0.60683 0.0
C3185 C 0.34141 0.06466 0.60697 0.0
C3186 C 0.33986 0.06883 0.62303 0.0
C3187 C 0.33905 0.06252 0.63818 0.0
C3188 C 0.34084 0.07085 0.59071 0.0
C3189 C 0.33274 0.07539 0.58996 0.0
C3190 C 0.34806 0.0725 0.57605 0.0
C3191 C 0.356 0.06721 0.57426 0.0
C3192 C 0.36747 0.0727 0.58191 0.0
C3193 C 0.37515 0.06796 0.57913 0.0
C3194 C 0.3714 0.05773 0.56886 0.0
C3195 C 0.36003 0.0523 0.56106 0.0
C3196 C 0.3524 0.0571 0.56356 0.0
C3197 C 0.34365 0.11139 0.53602 0.0
C3198 C 0.34389 0.10766 0.51917 0.0
C3199 C 0.34229 0.1038 0.54992 0.0
C3200 C 0.34083 0.09222 0.54714 0.0
C3201 C 0.34077 0.08842 0.53021 0.0
C3202 C 0.34237 0.09608 0.51638 0.0
C3203 C 0.34005 0.08433 0.56186 0.0
C3204 C 0.34768 0.07932 0.56208 0.0
C3205 C 0.33218 0.08198 0.57577 0.0
C3206 C 0.323 0.08592 0.57564 0.0
C3207 C 0.31476 0.08282 0.56187 0.0
C3208 C 0.30618 0.08661 0.56177 0.0
C3209 C 0.30568 0.09344 0.57542 0.0
C3210 C 0.31376 0.09647 0.58922 0.0
C3211 C 0.32237 0.09272 0.58938 0.0
H3212 H 0.29903 0.09637 0.57532 0.0
H3213 H 0.37736 0.05408 0.56679 0.0
H3214 H 0.95108 0.29762 0.63536 0.0
H3215 H 0.93671 0.2881 0.6117 0.0
H3216 H 0.94307 0.2578 0.61316 0.0
H3217 H 0.95725 0.26708 0.63694 0.0
H3218 H 0.93825 0.28112 0.57988 0.0
H3219 H 0.91699 0.23199 0.60556 0.0
H3220 H 0.91377 0.22159 0.63347 0.0
H3221 H 0.91382 0.25153 0.65879 0.0
H3222 H 0.91684 0.26202 0.631 0.0
H3223 H 0.90689 0.23935 0.51408 0.0
H3224 H 0.91982 0.24975 0.53871 0.0
H3225 H 0.88873 0.24343 0.56792 0.0
H3226 H 0.87564 0.23267 0.54339 0.0
H3227 H 0.90422 0.23939 0.5872 0.0
H3228 H 0.90641 0.27082 0.55109 0.0
H3229 H 0.90925 0.28203 0.52402 0.0
H3230 H 0.94564 0.28884 0.52121 0.0
H3231 H 0.94296 0.2775 0.54815 0.0
C3232 C 0.9495 0.28897 0.63058 0.0
C3233 C 0.95528 0.28309 0.63818 0.0
C3234 C 0.94128 0.28355 0.61704 0.0
C3235 C 0.93867 0.27215 0.61087 0.0
C3236 C 0.94477 0.26649 0.61796 0.0
C3237 C 0.95293 0.27185 0.63152 0.0
C3238 C 0.92943 0.26605 0.59722 0.0
C3239 C 0.9308 0.27201 0.58149 0.0
C3240 C 0.91954 0.25427 0.59948 0.0
C3241 C 0.91724 0.24783 0.61619 0.0
C3242 C 0.91622 0.23631 0.61706 0.0
C3243 C 0.91445 0.23041 0.63287 0.0
C3244 C 0.91363 0.23592 0.6479 0.0
C3245 C 0.91449 0.2473 0.64714 0.0
C3246 C 0.91624 0.25322 0.63136 0.0
C3247 C 0.90276 0.24001 0.52581 0.0
C3248 C 0.89022 0.23516 0.52677 0.0
C3249 C 0.91019 0.24607 0.53983 0.0
C3250 C 0.90526 0.24749 0.55508 0.0
C3251 C 0.89273 0.24247 0.55624 0.0
C3252 C 0.88527 0.2364 0.54218 0.0
C3253 C 0.91325 0.25433 0.5697 0.0
C3254 C 0.91164 0.24852 0.58562 0.0
C3255 C 0.92278 0.26634 0.56774 0.0
C3256 C 0.92445 0.27323 0.55158 0.0
C3257 C 0.91499 0.27463 0.54464 0.0
C3258 C 0.91658 0.28102 0.52932 0.0
C3259 C 0.92761 0.28612 0.52088 0.0
C3260 C 0.93709 0.28487 0.52776 0.0
C3261 C 0.93555 0.27848 0.54306 0.0
H3262 H 0.92882 0.29107 0.50902 0.0
H3263 H 0.91233 0.23136 0.66013 0.0
H3264 H 0.34515 0.30437 0.61906 0.0
H3265 H 0.34548 0.29148 0.59612 0.0
H3266 H 0.32633 0.26014 0.62856 0.0
H3267 H 0.32645 0.27322 0.65178 0.0
H3268 H 0.34391 0.25908 0.61434 0.0
H3269 H 0.31287 0.26593 0.59274 0.0
H3270 H 0.30304 0.27773 0.58432 0.0
H3271 H 0.33013 0.29652 0.54628 0.0
H3272 H 0.34022 0.28495 0.55463 0.0
H3273 H 0.33636 0.21937 0.54468 0.0
H3274 H 0.3329 0.22996 0.56825 0.0
H3275 H 0.35413 0.26395 0.54222 0.0
H3276 H 0.35735 0.25343 0.51848 0.0
H3277 H 0.3333 0.26177 0.55362 0.0
H3278 H 0.36536 0.25629 0.57687 0.0
H3279 H 0.37541 0.24477 0.58566 0.0
H3280 H 0.3468 0.22393 0.62078 0.0
H3281 H 0.33649 0.23522 0.61202 0.0
C3282 C 0.3411 0.29473 0.62126 0.0
C3283 C 0.33619 0.28977 0.63727 0.0
C3284 C 0.3411 0.28733 0.60808 0.0
C3285 C 0.33586 0.27479 0.61053 0.0
C3286 C 0.33048 0.26978 0.62638 0.0
C3287 C 0.33054 0.27722 0.6396 0.0
C3288 C 0.33659 0.26706 0.59687 0.0
C3289 C 0.34149 0.25961 0.60111 0.0
C3290 C 0.33343 0.2677 0.57955 0.0
C3291 C 0.32735 0.27463 0.5744 0.0
C3292 C 0.31678 0.27263 0.58265 0.0
C3293 C 0.31115 0.27927 0.57788 0.0
C3294 C 0.31597 0.28788 0.56479 0.0
C3295 C 0.32641 0.28985 0.55642 0.0
C3296 C 0.33208 0.28324 0.56115 0.0
C3297 C 0.34029 0.2291 0.544 0.0
C3298 C 0.34718 0.23556 0.52974 0.0
C3299 C 0.33837 0.23515 0.55752 0.0
C3300 C 0.34331 0.24776 0.55703 0.0
C3301 C 0.35024 0.25422 0.54287 0.0
C3302 C 0.35218 0.2482 0.52939 0.0
C3303 C 0.34108 0.25424 0.57106 0.0
C3304 C 0.3358 0.26135 0.56688 0.0
C3305 C 0.34394 0.25334 0.58843 0.0
C3306 C 0.35007 0.24649 0.59362 0.0
C3307 C 0.36115 0.24916 0.58634 0.0
C3308 C 0.36691 0.2427 0.59135 0.0
C3309 C 0.36173 0.2336 0.60373 0.0
C3310 C 0.35079 0.23097 0.61116 0.0
C3311 C 0.34498 0.2374 0.60619 0.0
H3312 H 0.3662 0.22861 0.60759 0.0
H3313 H 0.3116 0.29301 0.56112 0.0
H3314 H 0.70541 0.05017 0.63673 0.0
H3315 H 0.71547 0.06324 0.6122 0.0
H3316 H 0.74719 0.06034 0.62272 0.0
H3317 H 0.73731 0.04742 0.64736 0.0
H3318 H 0.75299 0.08338 0.61694 0.0
H3319 H 0.72848 0.0452 0.58918 0.0
H3320 H 0.70965 0.0265 0.58216 0.0
H3321 H 0.69437 0.04744 0.56171 0.0
H3322 H 0.71306 0.06628 0.56883 0.0
H3323 H 0.78337 0.10932 0.53862 0.0
H3324 H 0.77336 0.09564 0.56268 0.0
H3325 H 0.74114 0.09766 0.55226 0.0
H3326 H 0.75091 0.11093 0.52785 0.0
H3327 H 0.73571 0.0749 0.55792 0.0
H3328 H 0.76002 0.11305 0.58601 0.0
H3329 H 0.77878 0.13179 0.59315 0.0
H3330 H 0.79434 0.11097 0.6131 0.0
H3331 H 0.77572 0.09209 0.60586 0.0
C3332 C 0.7145 0.05223 0.63379 0.0
C3333 C 0.72051 0.04769 0.64406 0.0
C3334 C 0.72023 0.05969 0.61971 0.0
C3335 C 0.73206 0.0627 0.61554 0.0
C3336 C 0.73807 0.05814 0.62569 0.0
C3337 C 0.73236 0.0507 0.63976 0.0
C3338 C 0.73832 0.07085 0.60086 0.0
C3339 C 0.74929 0.08144 0.60399 0.0
C3340 C 0.73337 0.06847 0.58403 0.0
C3341 C 0.72213 0.05715 0.57969 0.0
C3342 C 0.72107 0.04582 0.58331 0.0
C3343 C 0.71043 0.03519 0.57929 0.0
C3344 C 0.70081 0.03578 0.57154 0.0
C3345 C 0.70182 0.047 0.56774 0.0
C3346 C 0.71244 0.05765 0.57175 0.0
C3347 C 0.77414 0.10682 0.54141 0.0
C3348 C 0.76798 0.1113 0.53135 0.0
C3349 C 0.76846 0.09907 0.55526 0.0
C3350 C 0.75652 0.09572 0.55939 0.0
C3351 C 0.75035 0.10015 0.54935 0.0
C3352 C 0.75601 0.10786 0.53551 0.0
C3353 C 0.75037 0.08744 0.57401 0.0
C3354 C 0.73941 0.07683 0.57087 0.0
C3355 C 0.75533 0.08982 0.59084 0.0
C3356 C 0.76652 0.10116 0.59523 0.0
C3357 C 0.76748 0.11247 0.59179 0.0
C3358 C 0.77808 0.12312 0.59588 0.0
C3359 C 0.78775 0.12258 0.60353 0.0
C3360 C 0.78684 0.11138 0.60715 0.0
C3361 C 0.77626 0.1007 0.60307 0.0
H3362 H 0.79595 0.13083 0.60668 0.0
H3363 H 0.69257 0.02755 0.56843 0.0
H3364 H 0.96029 0.66343 0.62325 0.0
H3365 H 0.94751 0.66237 0.5989 0.0
H3366 H 0.93593 0.68398 0.62694 0.0
H3367 H 0.94851 0.68471 0.65155 0.0
H3368 H 0.91726 0.66573 0.613 0.0
H3369 H 0.9554 0.69556 0.59258 0.0
H3370 H 0.97696 0.70458 0.58584 0.0
H3371 H 0.96891 0.67604 0.54985 0.0
H3372 H 0.94731 0.66674 0.55657 0.0
H3373 H 0.90257 0.67661 0.51893 0.0
H3374 H 0.91626 0.68202 0.54364 0.0
H3375 H 0.89687 0.6452 0.56172 0.0
H3376 H 0.88292 0.6398 0.53732 0.0
H3377 H 0.9315 0.67416 0.55283 0.0
H3378 H 0.89741 0.64482 0.60468 0.0
H3379 H 0.8761 0.63714 0.61196 0.0
H3380 H 0.87653 0.66705 0.58544 0.0
H3381 H 0.8979 0.67502 0.57826 0.0
C3382 C 0.95493 0.66786 0.62419 0.0
C3383 C 0.95497 0.67377 0.63937 0.0
C3384 C 0.94778 0.66742 0.61021 0.0
C3385 C 0.94078 0.67314 0.61104 0.0
C3386 C 0.94119 0.67944 0.62605 0.0
C3387 C 0.94836 0.67988 0.64005 0.0
C3388 C 0.93265 0.67206 0.59653 0.0
C3389 C 0.92039 0.66752 0.59986 0.0
C3390 C 0.93676 0.67478 0.57939 0.0
C3391 C 0.94974 0.68041 0.57516 0.0
C3392 C 0.95823 0.69117 0.5833 0.0
C3393 C 0.97046 0.69633 0.57948 0.0
C3394 C 0.9743 0.69088 0.56745 0.0
C3395 C 0.96592 0.68025 0.55918 0.0
C3396 C 0.95368 0.67504 0.56297 0.0
C3397 C 0.90109 0.66971 0.52832 0.0
C3398 C 0.8916 0.65778 0.52621 0.0
C3399 C 0.909 0.67279 0.54234 0.0
C3400 C 0.90754 0.66405 0.55458 0.0
C3401 C 0.89807 0.65214 0.55254 0.0
C3402 C 0.89017 0.64904 0.53852 0.0
C3403 C 0.91606 0.6673 0.56931 0.0
C3404 C 0.9284 0.67229 0.566 0.0
C3405 C 0.91204 0.66512 0.5865 0.0
C3406 C 0.89923 0.66048 0.59089 0.0
C3407 C 0.89298 0.6498 0.60053 0.0
C3408 C 0.88088 0.64539 0.6046 0.0
C3409 C 0.87496 0.65159 0.59915 0.0
C3410 C 0.88112 0.66224 0.58963 0.0
C3411 C 0.89322 0.6667 0.58553 0.0
H3412 H 0.86559 0.64816 0.6023 0.0
H3413 H 0.98377 0.69489 0.56451 0.0
H3414 H 0.93143 0.6537 0.70792 0.0
H3415 H 0.92226 0.65774 0.73244 0.0
H3416 H 0.95685 0.68719 0.74785 0.0
H3417 H 0.9662 0.68327 0.72318 0.0
H3418 H 0.94334 0.67169 0.77517 0.0
H3419 H 0.93817 0.69396 0.729 0.0
H3420 H 0.93214 0.69657 0.69978 0.0
H3421 H 0.89553 0.66982 0.71005 0.0
H3422 H 0.90138 0.6669 0.73926 0.0
H3423 H 0.92127 0.69634 0.8366 0.0
H3424 H 0.93136 0.69379 0.81189 0.0
H3425 H 0.89701 0.66757 0.79044 0.0
H3426 H 0.88677 0.67053 0.81477 0.0
H3427 H 0.91097 0.68207 0.76598 0.0
H3428 H 0.91572 0.65904 0.81125 0.0
H3429 H 0.92134 0.65542 0.8402 0.0
H3430 H 0.95812 0.68242 0.83156 0.0
H3431 H 0.95268 0.68633 0.80263 0.0
C3432 C 0.93715 0.66103 0.7165 0.0
C3433 C 0.94958 0.66819 0.71349 0.0
C3434 C 0.93185 0.66334 0.7305 0.0
C3435 C 0.93885 0.67283 0.74184 0.0
C3436 C 0.95129 0.67984 0.73918 0.0
C3437 C 0.95661 0.67761 0.72505 0.0
C3438 C 0.93309 0.67541 0.75641 0.0
C3439 C 0.9364 0.67416 0.77321 0.0
C3440 C 0.92381 0.67829 0.75376 0.0
C3441 C 0.92024 0.68014 0.73627 0.0
C3442 C 0.92885 0.68857 0.72499 0.0
C3443 C 0.92546 0.69011 0.70843 0.0
C3444 C 0.91347 0.68334 0.70304 0.0
C3445 C 0.90482 0.67504 0.71423 0.0
C3446 C 0.90817 0.67345 0.7308 0.0
C3447 C 0.91581 0.69017 0.82651 0.0
C3448 C 0.90318 0.68365 0.82771 0.0
C3449 C 0.92162 0.68861 0.81248 0.0
C3450 C 0.91497 0.68034 0.79943 0.0
C3451 C 0.90235 0.67396 0.8004 0.0
C3452 C 0.89651 0.67558 0.8144 0.0
C3453 C 0.92118 0.67832 0.78485 0.0
C3454 C 0.91795 0.67966 0.76801 0.0
C3455 C 0.93047 0.67541 0.78746 0.0
C3456 C 0.93377 0.67306 0.80484 0.0
C3457 C 0.92499 0.66427 0.81557 0.0
C3458 C 0.92815 0.66216 0.83197 0.0
C3459 C 0.94007 0.66871 0.83773 0.0
C3460 C 0.94888 0.67737 0.82709 0.0
C3461 C 0.94577 0.67953 0.81068 0.0
H3462 H 0.9425 0.66706 0.85043 0.0
H3463 H 0.91086 0.68455 0.69021 0.0
H3464 H 0.32964 0.29299 0.71916 0.0
H3465 H 0.32722 0.28017 0.74408 0.0
H3466 H 0.35985 0.27999 0.73095 0.0
H3467 H 0.36238 0.29273 0.70609 0.0
H3468 H 0.34105 0.2572 0.73743 0.0
H3469 H 0.35973 0.29672 0.76394 0.0
H3470 H 0.36139 0.31635 0.77118 0.0
H3471 H 0.32708 0.29813 0.79606 0.0
H3472 H 0.32514 0.27839 0.78876 0.0
H3473 H 0.35277 0.2327 0.8118 0.0
H3474 H 0.35344 0.24522 0.78757 0.0
H3475 H 0.32349 0.24763 0.8083 0.0
H3476 H 0.32328 0.23578 0.8332 0.0
H3477 H 0.33942 0.26876 0.79771 0.0
H3478 H 0.3206 0.22941 0.77266 0.0
H3479 H 0.31808 0.20948 0.76518 0.0
H3480 H 0.35118 0.22661 0.73715 0.0
H3481 H 0.35398 0.24667 0.74465 0.0
C3482 C 0.33637 0.29031 0.72164 0.0
C3483 C 0.34621 0.29392 0.71057 0.0
C3484 C 0.33497 0.283 0.73591 0.0
C3485 C 0.34337 0.27915 0.73936 0.0
C3486 C 0.35325 0.28284 0.72848 0.0
C3487 C 0.3547 0.29018 0.7143 0.0
C3488 C 0.34177 0.27102 0.75405 0.0
C3489 C 0.34082 0.25976 0.75064 0.0
C3490 C 0.34105 0.27421 0.77119 0.0
C3491 C 0.34224 0.28608 0.77564 0.0
C3492 C 0.3525 0.2969 0.77083 0.0
C3493 C 0.3535 0.30805 0.77497 0.0
C3494 C 0.34433 0.30849 0.78403 0.0
C3495 C 0.33416 0.29778 0.78902 0.0
C3496 C 0.33311 0.28661 0.7849 0.0
C3497 C 0.34637 0.23595 0.81132 0.0
C3498 C 0.33796 0.23319 0.82453 0.0
C3499 C 0.34666 0.24299 0.79729 0.0
C3500 C 0.3384 0.24724 0.79593 0.0
C3501 C 0.32993 0.24442 0.809 0.0
C3502 C 0.32973 0.2375 0.82315 0.0
C3503 C 0.33885 0.25493 0.78116 0.0
C3504 C 0.33957 0.26612 0.78452 0.0
C3505 C 0.33921 0.2516 0.76393 0.0
C3506 C 0.33755 0.23955 0.75935 0.0
C3507 C 0.32738 0.22894 0.765 0.0
C3508 C 0.3259 0.21761 0.76074 0.0
C3509 C 0.33448 0.21678 0.75073 0.0
C3510 C 0.34455 0.22727 0.74492 0.0
C3511 C 0.34608 0.23862 0.74915 0.0
H3512 H 0.33331 0.208 0.74744 0.0
H3513 H 0.34512 0.31713 0.78723 0.0
H3514 H 0.70874 0.03367 0.73485 0.0
H3515 H 0.7215 0.04571 0.75878 0.0
H3516 H 0.73213 0.07832 0.72943 0.0
H3517 H 0.71982 0.06609 0.70511 0.0
H3518 H 0.75089 0.08006 0.74328 0.0
H3519 H 0.71241 0.06937 0.76569 0.0
H3520 H 0.69122 0.05596 0.77362 0.0
H3521 H 0.70203 0.0368 0.80867 0.0
H3522 H 0.72327 0.04999 0.80078 0.0
H3523 H 0.77866 0.11772 0.8173 0.0
H3524 H 0.7649 0.10719 0.79319 0.0
H3525 H 0.75945 0.07307 0.81277 0.0
H3526 H 0.77324 0.08354 0.83676 0.0
H3527 H 0.73783 0.07345 0.80403 0.0
H3528 H 0.77645 0.08399 0.77989 0.0
H3529 H 0.79749 0.0979 0.77182 0.0
H3530 H 0.78595 0.11802 0.73993 0.0
H3531 H 0.76484 0.10432 0.74802 0.0
C3532 C 0.71393 0.0434 0.73352 0.0
C3533 C 0.71377 0.04898 0.71801 0.0
C3534 C 0.72103 0.05032 0.7473 0.0
C3535 C 0.72777 0.06298 0.74603 0.0
C3536 C 0.72712 0.06857 0.73072 0.0
C3537 C 0.7201 0.06162 0.71686 0.0
C3538 C 0.73593 0.0703 0.76032 0.0
C3539 C 0.74795 0.07869 0.75651 0.0
C3540 C 0.73219 0.06853 0.77768 0.0
C3541 C 0.71943 0.06062 0.78255 0.0
C3542 C 0.71026 0.06225 0.77501 0.0
C3543 C 0.69824 0.0547 0.77951 0.0
C3544 C 0.69528 0.04552 0.79161 0.0
C3545 C 0.70434 0.04391 0.79928 0.0
C3546 C 0.71637 0.05143 0.79482 0.0
C3547 C 0.77454 0.10798 0.8164 0.0
C3548 C 0.77705 0.10144 0.82882 0.0
C3549 C 0.76673 0.10199 0.80264 0.0
C3550 C 0.76119 0.08937 0.80122 0.0
C3551 C 0.76364 0.08282 0.81365 0.0
C3552 C 0.77158 0.08881 0.82725 0.0
C3553 C 0.75273 0.08292 0.78689 0.0
C3554 C 0.74068 0.07475 0.79073 0.0
C3555 C 0.75641 0.08496 0.76956 0.0
C3556 C 0.76909 0.09323 0.76474 0.0
C3557 C 0.77841 0.09146 0.7713 0.0
C3558 C 0.79034 0.09928 0.76669 0.0
C3559 C 0.79306 0.10886 0.75542 0.0
C3560 C 0.78384 0.11061 0.74869 0.0
C3561 C 0.77189 0.10282 0.75328 0.0
H3562 H 0.80231 0.11491 0.75185 0.0
H3563 H 0.68597 0.03968 0.79507 0.0
H3564 H 0.04905 0.3679 0.01283 0.0
H3565 H 0.06003 0.35851 0.02519 0.0
H3566 H 0.02755 0.33127 0.04909 0.0
H3567 H 0.01637 0.34066 0.03672 0.0
H3568 H 0.04723 0.34169 0.07149 0.0
H3569 H 0.03818 0.32347 0.01581 0.0
H3570 H 0.03699 0.32313 0.98415 0.0
H3571 H 0.07542 0.34519 0.98148 0.0
H3572 H 0.07684 0.34582 0.01313 0.0
H3573 H 0.07631 0.31041 0.10221 0.0
H3574 H 0.06209 0.31456 0.08667 0.0
H3575 H 0.09096 0.34106 0.05571 0.0
H3576 H 0.10519 0.33645 0.07055 0.0
H3577 H 0.07129 0.32889 0.03657 0.0
H3578 H 0.08041 0.34909 0.09131 0.0
H3579 H 0.08218 0.35047 0.12291 0.0
H3580 H 0.04426 0.32583 0.12728 0.0
H3581 H 0.0423 0.32418 0.09568 0.0
C3582 C 0.04417 0.35988 0.02066 0.0
C3583 C 0.03181 0.35506 0.02382 0.0
C3584 C 0.05048 0.35448 0.02763 0.0
C3585 C 0.04459 0.34413 0.03793 0.0
C3586 C 0.03224 0.33923 0.04111 0.0
C3587 C 0.02587 0.34459 0.034 0.0
C3588 C 0.05155 0.33884 0.04589 0.0
C3589 C 0.05229 0.33864 0.06387 0.0
C3590 C 0.0584 0.33519 0.03592 0.0
C3591 C 0.0576 0.33476 0.01686 0.0
C3592 C 0.04637 0.32833 0.00848 0.0
C3593 C 0.04566 0.32807 0.99053 0.0
C3594 C 0.05612 0.33416 0.98081 0.0
C3595 C 0.06732 0.34049 0.98902 0.0
C3596 C 0.06809 0.34078 0.00697 0.0
C3597 C 0.07964 0.31691 0.09181 0.0
C3598 C 0.09196 0.32313 0.08772 0.0
C3599 C 0.07148 0.31939 0.08308 0.0
C3600 C 0.07548 0.3283 0.07026 0.0
C3601 C 0.08767 0.3342 0.06564 0.0
C3602 C 0.09583 0.33164 0.07427 0.0
C3603 C 0.06708 0.33186 0.06219 0.0
C3604 C 0.0661 0.33178 0.0442 0.0
C3605 C 0.06009 0.33537 0.07215 0.0
C3606 C 0.06123 0.33641 0.09114 0.0
C3607 C 0.07247 0.3439 0.09901 0.0
C3608 C 0.0735 0.34474 0.11692 0.0
C3609 C 0.06334 0.33821 0.1271 0.0
C3610 C 0.05212 0.33086 0.11938 0.0
C3611 C 0.05104 0.32998 0.10147 0.0
H3612 H 0.06416 0.33887 0.14096 0.0
H3613 H 0.05555 0.33395 0.96692 0.0
H3614 H 0.64168 0.67538 0.01358 0.0
H3615 H 0.64689 0.6955 0.02393 0.0
H3616 H 0.66938 0.69282 0.06358 0.0
H3617 H 0.66375 0.67247 0.05373 0.0
H3618 H 0.65731 0.70168 0.07697 0.0
H3619 H 0.68076 0.71095 0.02585 0.0
H3620 H 0.6846 0.70993 0.99509 0.0
H3621 H 0.66073 0.7235 0.98173 0.0
H3622 H 0.65662 0.72446 0.01243 0.0
H3623 H 0.69034 0.76349 0.09959 0.0
H3624 H 0.68525 0.74409 0.08655 0.0
H3625 H 0.6566 0.74469 0.05748 0.0
H3626 H 0.66166 0.76421 0.07054 0.0
H3627 H 0.67138 0.73721 0.03839 0.0
H3628 H 0.64878 0.7282 0.0909 0.0
H3629 H 0.64647 0.73 0.12199 0.0
H3630 H 0.67079 0.71656 0.13294 0.0
H3631 H 0.67338 0.71486 0.10188 0.0
C3632 C 0.64779 0.67911 0.02444 0.0
C3633 C 0.65233 0.67236 0.03282 0.0
C3634 C 0.65082 0.69066 0.03031 0.0
C3635 C 0.65869 0.69582 0.04442 0.0
C3636 C 0.66329 0.68908 0.0527 0.0
C3637 C 0.6601 0.67745 0.04702 0.0
C3638 C 0.66184 0.70805 0.0509 0.0
C3639 C 0.66054 0.70945 0.06851 0.0
C3640 C 0.66583 0.71822 0.03989 0.0
C3641 C 0.66829 0.71766 0.02143 0.0
C3642 C 0.67626 0.71363 0.01635 0.0
C3643 C 0.67849 0.71308 0.99892 0.0
C3644 C 0.67289 0.71662 0.98646 0.0
C3645 C 0.66505 0.72075 0.9914 0.0
C3646 C 0.66277 0.72131 0.00881 0.0
C3647 C 0.68308 0.75961 0.0902 0.0
C3648 C 0.67642 0.7654 0.08604 0.0
C3649 C 0.68014 0.74848 0.08286 0.0
C3650 C 0.67051 0.74293 0.07115 0.0
C3651 C 0.66406 0.74884 0.06651 0.0
C3652 C 0.66692 0.75994 0.07402 0.0
C3653 C 0.66692 0.73074 0.06434 0.0
C3654 C 0.66813 0.72938 0.04674 0.0
C3655 C 0.66303 0.72064 0.07537 0.0
C3656 C 0.66136 0.72151 0.09405 0.0
C3657 C 0.65371 0.72572 0.09993 0.0
C3658 C 0.65233 0.7267 0.11755 0.0
C3659 C 0.6585 0.72342 0.12943 0.0
C3660 C 0.66603 0.71911 0.12371 0.0
C3661 C 0.66744 0.71812 0.10611 0.0
H3662 H 0.65743 0.7242 0.14306 0.0
H3663 H 0.67463 0.71618 0.97298 0.0
H3664 H 0.31818 0.96663 0.00289 0.0
H3665 H 0.29801 0.95239 0.0132 0.0
H3666 H 0.30428 0.97452 0.05816 0.0
H3667 H 0.32455 0.98856 0.04818 0.0
H3668 H 0.29541 0.95219 0.06744 0.0
H3669 H 0.28473 0.97243 0.02453 0.0
H3670 H 0.28436 0.98035 0.99567 0.0
H3671 H 0.2676 0.94438 0.97501 0.0
H3672 H 0.26802 0.93626 0.00372 0.0
H3673 H 0.2368 0.92142 0.09995 0.0
H3674 H 0.25437 0.93747 0.0856 0.0
H3675 H 0.2505 0.9128 0.04505 0.0
H3676 H 0.23271 0.89668 0.0592 0.0
H3677 H 0.25765 0.93649 0.03316 0.0
H3678 H 0.26917 0.91668 0.07639 0.0
H3679 H 0.26928 0.90903 0.10554 0.0
H3680 H 0.28443 0.945 0.12582 0.0
H3681 H 0.28424 0.95284 0.0968 0.0
C3682 C 0.3152 0.96852 0.01488 0.0
C3683 C 0.32297 0.9787 0.02475 0.0
C3684 C 0.30364 0.9604 0.02073 0.0
C3685 C 0.29955 0.96241 0.03641 0.0
C3686 C 0.30722 0.97274 0.04605 0.0
C3687 C 0.3188 0.98078 0.0403 0.0
C3688 C 0.2876 0.95342 0.04333 0.0
C3689 C 0.28715 0.94894 0.06001 0.0
C3690 C 0.27681 0.9489 0.03353 0.0
C3691 C 0.27652 0.95375 0.01625 0.0
C3692 C 0.28105 0.96622 0.01381 0.0
C3693 C 0.28082 0.97074 0.99748 0.0
C3694 C 0.27599 0.96287 0.9835 0.0
C3695 C 0.27135 0.95046 0.98584 0.0
C3696 C 0.27158 0.94589 0.00214 0.0
C3697 C 0.23946 0.91947 0.08774 0.0
C3698 C 0.23338 0.90774 0.08077 0.0
C3699 C 0.24957 0.92864 0.07962 0.0
C3700 C 0.25383 0.92628 0.06439 0.0
C3701 C 0.24738 0.91479 0.05683 0.0
C3702 C 0.23727 0.90558 0.06499 0.0
C3703 C 0.26555 0.93545 0.05723 0.0
C3704 C 0.26595 0.93987 0.04055 0.0
C3705 C 0.27632 0.94 0.06703 0.0
C3706 C 0.27658 0.93532 0.08446 0.0
C3707 C 0.27244 0.92294 0.08709 0.0
C3708 C 0.27253 0.91858 0.10358 0.0
C3709 C 0.27683 0.92652 0.11754 0.0
C3710 C 0.28109 0.93885 0.11501 0.0
C3711 C 0.281 0.94326 0.09854 0.0
H3712 H 0.27689 0.92312 0.1303 0.0
H3713 H 0.27581 0.96639 0.97087 0.0
H3714 H 0.33592 0.01813 0.99958 0.0
H3715 H 0.32846 0.03147 0.98924 0.0
H3716 H 0.36496 0.05962 0.9801 0.0
H3717 H 0.37245 0.04657 0.99111 0.0
H3718 H 0.35359 0.06931 0.99344 0.0
H3719 H 0.3446 0.04109 0.94708 0.0
H3720 H 0.33573 0.02095 0.93361 0.0
H3721 H 0.30037 0.0137 0.94778 0.0
H3722 H 0.30906 0.03376 0.96152 0.0
H3723 H 0.34432 0.10431 0.92964 0.0
H3724 H 0.34941 0.0909 0.94566 0.0
H3725 H 0.31275 0.07018 0.9628 0.0
H3726 H 0.30762 0.0839 0.94746 0.0
H3727 H 0.32242 0.05629 0.9475 0.0
H3728 H 0.33231 0.08621 0.99129 0.0
H3729 H 0.342 0.10688 0.0031 0.0
H3730 H 0.37683 0.11147 0.99164 0.0
H3731 H 0.36734 0.09089 0.97952 0.0
C3732 C 0.34234 0.02716 0.99533 0.0
C3733 C 0.35478 0.03128 0.99612 0.0
C3734 C 0.33807 0.03477 0.98936 0.0
C3735 C 0.34612 0.04653 0.98364 0.0
C3736 C 0.35854 0.05063 0.98447 0.0
C3737 C 0.36282 0.04312 0.99073 0.0
C3738 C 0.34174 0.05464 0.97678 0.0
C3739 C 0.34686 0.06646 0.98328 0.0
C3740 C 0.33273 0.0509 0.96379 0.0
C3741 C 0.32749 0.03886 0.95549 0.0
C3742 C 0.33494 0.03516 0.94743 0.0
C3743 C 0.32994 0.02377 0.93973 0.0
C3744 C 0.3175 0.01604 0.93988 0.0
C3745 C 0.31001 0.01969 0.9477 0.0
C3746 C 0.31496 0.03107 0.95543 0.0
C3747 C 0.33737 0.09713 0.93717 0.0
C3748 C 0.32553 0.09525 0.9372 0.0
C3749 C 0.3403 0.0894 0.94622 0.0
C3750 C 0.33145 0.07956 0.9554 0.0
C3751 C 0.31969 0.07771 0.95572 0.0
C3752 C 0.31677 0.08554 0.94686 0.0
C3753 C 0.33446 0.07093 0.96396 0.0
C3754 C 0.32908 0.05904 0.95777 0.0
C3755 C 0.34336 0.07466 0.97702 0.0
C3756 C 0.3491 0.08703 0.98437 0.0
C3757 C 0.34203 0.09166 0.99115 0.0
C3758 C 0.34749 0.10335 0.99793 0.0
C3759 C 0.36002 0.11049 0.99809 0.0
C3760 C 0.36713 0.10594 0.9915 0.0
C3761 C 0.36171 0.09425 0.98469 0.0
H3762 H 0.36423 0.11955 0.00334 0.0
H3763 H 0.31364 0.00722 0.93392 0.0
H3764 H 0.96756 0.32488 0.00959 0.0
H3765 H 0.95285 0.30495 0.99857 0.0
H3766 H 0.97749 0.30833 0.95859 0.0
H3767 H 0.99203 0.32843 0.96918 0.0
H3768 H 0.9564 0.30025 0.94522 0.0
H3769 H 0.97144 0.2893 0.99476 0.0
H3770 H 0.97678 0.28937 0.02532 0.0
H3771 H 0.93983 0.27557 0.03926 0.0
H3772 H 0.9343 0.27557 0.00878 0.0
H3773 H 0.92729 0.23951 0.91777 0.0
H3774 H 0.94179 0.25835 0.93176 0.0
H3775 H 0.91375 0.25662 0.96403 0.0
H3776 H 0.89913 0.2376 0.95015 0.0
H3777 H 0.93598 0.26358 0.98166 0.0
H3778 H 0.92141 0.2744 0.93092 0.0
H3779 H 0.91671 0.27367 0.89998 0.0
H3780 H 0.95395 0.28723 0.88802 0.0
H3781 H 0.95884 0.28787 0.91891 0.0
C3782 C 0.96987 0.32133 0.99853 0.0
C3783 C 0.98095 0.32823 0.99025 0.0
C3784 C 0.96147 0.3099 0.99227 0.0
C3785 C 0.96408 0.30504 0.97783 0.0
C3786 C 0.97523 0.31187 0.96972 0.0
C3787 C 0.98356 0.32335 0.97582 0.0
C3788 C 0.95506 0.29304 0.97075 0.0
C3789 C 0.95208 0.29222 0.95319 0.0
C3790 C 0.94918 0.28256 0.98116 0.0
C3791 C 0.95248 0.28255 0.9995 0.0
C3792 C 0.96447 0.28637 0.00435 0.0
C3793 C 0.96753 0.28638 0.02166 0.0
C3794 C 0.95866 0.28251 0.03423 0.0
C3795 C 0.9467 0.27858 0.02951 0.0
C3796 C 0.94359 0.27857 0.01222 0.0
C3797 C 0.92423 0.243 0.92806 0.0
C3798 C 0.91206 0.23705 0.93288 0.0
C3799 C 0.93251 0.25382 0.93594 0.0
C3800 C 0.92881 0.25893 0.94881 0.0
C3801 C 0.91677 0.25283 0.95409 0.0
C3802 C 0.90843 0.24202 0.9461 0.0
C3803 C 0.93748 0.27086 0.95622 0.0
C3804 C 0.94034 0.27166 0.97379 0.0
C3805 C 0.94337 0.28129 0.9458 0.0
C3806 C 0.94047 0.28108 0.92723 0.0
C3807 C 0.92858 0.27714 0.92169 0.0
C3808 C 0.92589 0.27676 0.90416 0.0
C3809 C 0.93502 0.28037 0.89204 0.0
C3810 C 0.94688 0.28442 0.89743 0.0
C3811 C 0.94962 0.28481 0.91495 0.0
H3812 H 0.93291 0.28006 0.87847 0.0
H3813 H 0.96104 0.28252 0.04762 0.0
H3814 H 0.68092 0.63194 0.01053 0.0
H3815 H 0.7008 0.6408 0.9976 0.0
H3816 H 0.69503 0.66804 0.97309 0.0
H3817 H 0.67503 0.65926 0.98612 0.0
H3818 H 0.70341 0.65629 0.95081 0.0
H3819 H 0.71381 0.67636 0.0054 0.0
H3820 H 0.71387 0.67756 0.03701 0.0
H3821 H 0.73096 0.65579 0.04074 0.0
H3822 H 0.73084 0.65431 0.00913 0.0
H3823 H 0.7621 0.68959 0.9186 0.0
H3824 H 0.74364 0.68407 0.93402 0.0
H3825 H 0.74974 0.65977 0.96605 0.0
H3826 H 0.76871 0.66584 0.95134 0.0
H3827 H 0.74121 0.67102 0.98478 0.0
H3828 H 0.72989 0.64964 0.93123 0.0
H3829 H 0.7294 0.64735 0.89974 0.0
H3830 H 0.71355 0.67015 0.89411 0.0
H3831 H 0.7141 0.67272 0.92558 0.0
C3832 C 0.68386 0.63985 0.00244 0.0
C3833 C 0.67636 0.64488 0.99932 0.0
C3834 C 0.69527 0.64494 0.99514 0.0
C3835 C 0.69941 0.65511 0.98448 0.0
C3836 C 0.69199 0.6602 0.98133 0.0
C3837 C 0.6806 0.6552 0.98883 0.0
C3838 C 0.71132 0.6601 0.97617 0.0
C3839 C 0.71172 0.65973 0.9582 0.0
C3840 C 0.72207 0.6642 0.98588 0.0
C3841 C 0.72222 0.66514 0.00489 0.0
C3842 C 0.71749 0.67175 0.01296 0.0
C3843 C 0.71755 0.67249 0.03088 0.0
C3844 C 0.72239 0.66673 0.04088 0.0
C3845 C 0.7272 0.66024 0.03298 0.0
C3846 C 0.72715 0.65945 0.01506 0.0
C3847 C 0.75972 0.68328 0.92917 0.0
C3848 C 0.76697 0.67818 0.93369 0.0
C3849 C 0.74902 0.67999 0.93783 0.0
C3850 C 0.74515 0.67132 0.95098 0.0
C3851 C 0.75249 0.66642 0.95586 0.0
C3852 C 0.76329 0.66982 0.94731 0.0
C3853 C 0.73334 0.66719 0.95936 0.0
C3854 C 0.73293 0.66767 0.97735 0.0
C3855 C 0.72254 0.66304 0.94967 0.0
C3856 C 0.72215 0.66147 0.93075 0.0
C3857 C 0.72638 0.65424 0.92327 0.0
C3858 C 0.72608 0.65288 0.90543 0.0
C3859 C 0.72148 0.65862 0.89493 0.0
C3860 C 0.71713 0.66572 0.90226 0.0
C3861 C 0.71743 0.66712 0.9201 0.0
H3862 H 0.72126 0.65756 0.88112 0.0
H3863 H 0.72243 0.66732 0.05475 0.0
H3864 H 0.96658 0.64174 0.01028 0.0
H3865 H 0.95117 0.64702 0.00173 0.0
H3866 H 0.97431 0.67001 0.96167 0.0
H3867 H 0.98962 0.66459 0.96986 0.0
H3868 H 0.9628 0.68037 0.98301 0.0
H3869 H 0.95367 0.6446 0.94967 0.0
H3870 H 0.94899 0.62344 0.94632 0.0
H3871 H 0.9176 0.6115 0.9775 0.0
H3872 H 0.9222 0.63263 0.98125 0.0
H3873 H 0.92649 0.69129 0.92563 0.0
H3874 H 0.94032 0.68615 0.94029 0.0
H3875 H 0.91059 0.65736 0.96731 0.0
H3876 H 0.8966 0.66232 0.95221 0.0
H3877 H 0.92445 0.64945 0.95632 0.0
H3878 H 0.93176 0.6843 0.98779 0.0
H3879 H 0.93605 0.70521 0.99251 0.0
H3880 H 0.97014 0.71878 0.96757 0.0
H3881 H 0.96598 0.69794 0.96246 0.0
C3882 C 0.9684 0.64796 0.9997 0.0
C3883 C 0.97928 0.65273 0.99069 0.0
C3884 C 0.95959 0.65094 0.99483 0.0
C3885 C 0.96162 0.65888 0.98106 0.0
C3886 C 0.9726 0.66388 0.97234 0.0
C3887 C 0.9813 0.66074 0.97699 0.0
C3888 C 0.95221 0.66177 0.97537 0.0
C3889 C 0.95443 0.67366 0.97707 0.0
C3890 C 0.94114 0.65288 0.96821 0.0
C3891 C 0.93836 0.64019 0.96592 0.0
C3892 C 0.94584 0.63747 0.95596 0.0
C3893 C 0.94319 0.62549 0.95395 0.0
C3894 C 0.93303 0.61614 0.96174 0.0
C3895 C 0.92548 0.61876 0.97151 0.0
C3896 C 0.9281 0.63073 0.97357 0.0
C3897 C 0.9229 0.68399 0.93492 0.0
C3898 C 0.91046 0.67728 0.9379 0.0
C3899 C 0.93084 0.68107 0.94333 0.0
C3900 C 0.92656 0.6715 0.95519 0.0
C3901 C 0.91413 0.6648 0.95827 0.0
C3902 C 0.90614 0.66764 0.94967 0.0
C3903 C 0.93507 0.66819 0.96364 0.0
C3904 C 0.93271 0.65619 0.96247 0.0
C3905 C 0.94594 0.67697 0.97155 0.0
C3906 C 0.94851 0.68954 0.97463 0.0
C3907 C 0.94013 0.69174 0.9832 0.0
C3908 C 0.94255 0.70358 0.98596 0.0
C3909 C 0.95335 0.71332 0.98032 0.0
C3910 C 0.96177 0.71123 0.97193 0.0
C3911 C 0.9594 0.6994 0.96911 0.0
H3912 H 0.9552 0.72248 0.98247 0.0
H3913 H 0.93099 0.60686 0.96017 0.0
H3914 H 0.37381 0.32845 0.01521 0.0
H3915 H 0.36735 0.30867 0.00266 0.0
H3916 H 0.33987 0.3113 0.97328 0.0
H3917 H 0.34613 0.3311 0.98616 0.0
H3918 H 0.33149 0.28868 0.98513 0.0
H3919 H 0.36626 0.31725 0.95461 0.0
H3920 H 0.38706 0.33394 0.95115 0.0
H3921 H 0.40065 0.31264 0.97551 0.0
H3922 H 0.37991 0.29588 0.97934 0.0
H3923 H 0.32544 0.24464 0.92205 0.0
H3924 H 0.32799 0.2623 0.93791 0.0
H3925 H 0.35434 0.2604 0.97098 0.0
H3926 H 0.35171 0.24262 0.95538 0.0
H3927 H 0.36268 0.28268 0.95651 0.0
H3928 H 0.32714 0.25377 0.98631 0.0
H3929 H 0.30614 0.23729 0.98856 0.0
H3930 H 0.29375 0.25942 0.96366 0.0
H3931 H 0.31471 0.27599 0.96104 0.0
C3932 C 0.36637 0.32485 0.00612 0.0
C3933 C 0.36059 0.33146 0.00153 0.0
C3934 C 0.36269 0.31351 0.99893 0.0
C3935 C 0.35328 0.30859 0.98676 0.0
C3936 C 0.34719 0.31494 0.98259 0.0
C3937 C 0.3508 0.32627 0.98993 0.0
C3938 C 0.35016 0.29703 0.97804 0.0
C3939 C 0.33827 0.28741 0.97868 0.0
C3940 C 0.35903 0.29531 0.96976 0.0
C3941 C 0.37153 0.30535 0.9674 0.0
C3942 C 0.37368 0.31616 0.95934 0.0
C3943 C 0.38546 0.32563 0.9573 0.0
C3944 C 0.39517 0.32436 0.96314 0.0
C3945 C 0.39312 0.31362 0.971 0.0
C3946 C 0.38136 0.30412 0.9731 0.0
C3947 C 0.33154 0.24776 0.93299 0.0
C3948 C 0.33843 0.24224 0.93737 0.0
C3949 C 0.33301 0.2579 0.94201 0.0
C3950 C 0.34137 0.26268 0.95561 0.0
C3951 C 0.34789 0.2569 0.96046 0.0
C3952 C 0.3464 0.24676 0.9515 0.0
C3953 C 0.34407 0.27426 0.96387 0.0
C3954 C 0.3559 0.28393 0.96301 0.0
C3955 C 0.33511 0.27602 0.97173 0.0
C3956 C 0.32251 0.26608 0.97333 0.0
C3957 C 0.31995 0.25509 0.98118 0.0
C3958 C 0.30805 0.24574 0.98255 0.0
C3959 C 0.29862 0.24729 0.97622 0.0
C3960 C 0.30107 0.25822 0.96854 0.0
C3961 C 0.31295 0.2676 0.96712 0.0
H3962 H 0.28942 0.24004 0.97729 0.0
H3963 H 0.40428 0.3317 0.96155 0.0
H3964 H 0.67742 0.01536 0.97463 0.0
H3965 H 0.69761 0.03026 0.96544 0.0
H3966 H 0.69951 0.05441 0.00566 0.0
H3967 H 0.67948 0.03928 0.01534 0.0
H3968 H 0.70512 0.05097 0.95231 0.0
H3969 H 0.7285 0.07411 0.01658 0.0
H3970 H 0.72842 0.06877 0.04712 0.0
H3971 H 0.71618 0.03186 0.03315 0.0
H3972 H 0.71634 0.03701 0.00252 0.0
H3973 H 0.75673 0.10449 0.92975 0.0
H3974 H 0.73832 0.09088 0.9449 0.0
H3975 H 0.75609 0.07293 0.96818 0.0
H3976 H 0.77479 0.08704 0.95401 0.0
H3977 H 0.741 0.07303 0.99006 0.0
H3978 H 0.73867 0.06215 0.9308 0.0
H3979 H 0.7396 0.06538 0.89944 0.0
H3980 H 0.71093 0.07376 0.90217 0.0
H3981 H 0.70996 0.07074 0.93359 0.0
C3982 C 0.68221 0.02377 0.98168 0.0
C3983 C 0.67687 0.02614 0.99572 0.0
C3984 C 0.69375 0.03232 0.97636 0.0
C3985 C 0.70016 0.04349 0.98485 0.0
C3986 C 0.69489 0.0458 0.99907 0.0
C3987 C 0.68341 0.03715 0.00457 0.0
C3988 C 0.71204 0.0529 0.97819 0.0
C3989 C 0.71294 0.05577 0.96061 0.0
C3990 C 0.72235 0.05911 0.98889 0.0
C3991 C 0.72231 0.05593 0.00727 0.0
C3992 C 0.72583 0.06487 0.02002 0.0
C3993 C 0.72577 0.06187 0.03735 0.0
C3994 C 0.72226 0.04998 0.04208 0.0
C3995 C 0.71885 0.04106 0.02948 0.0
C3996 C 0.7189 0.04401 0.01213 0.0
C3997 C 0.75688 0.09791 0.93847 0.0
C3998 C 0.76726 0.09679 0.94041 0.0
C3999 C 0.74625 0.09 0.94697 0.0
C4000 C 0.7457 0.08065 0.95732 0.0
C4001 C 0.75623 0.07998 0.96013 0.0
C4002 C 0.76691 0.08799 0.95184 0.0
C4003 C 0.73401 0.07109 0.96425 0.0
C4004 C 0.73314 0.06823 0.98183 0.0
C4005 C 0.7238 0.06457 0.95346 0.0
C4006 C 0.72433 0.06634 0.93456 0.0
C4007 C 0.73262 0.06476 0.92472 0.0
C4008 C 0.73315 0.06654 0.90694 0.0
C4009 C 0.72535 0.0698 0.89882 0.0
C4010 C 0.71698 0.07126 0.90847 0.0
C4011 C 0.71643 0.0695 0.92627 0.0
H4012 H 0.72577 0.07118 0.88505 0.0
H4013 H 0.72221 0.04768 0.0555 0.0
H4014 H 0.66183 0.9874 0.03243 0.0
H4015 H 0.66873 0.97419 0.04514 0.0
H4016 H 0.63556 0.94287 0.02941 0.0
H4017 H 0.62855 0.9559 0.01688 0.0
H4018 H 0.6411 0.94077 0.06209 0.0
H4019 H 0.66166 0.95145 0.00794 0.0
H4020 H 0.67482 0.96545 0.98566 0.0
H4021 H 0.70442 0.98059 0.02156 0.0
H4022 H 0.69138 0.96679 0.04413 0.0
H4023 H 0.65675 0.8952 0.07607 0.0
H4024 H 0.65115 0.90892 0.06172 0.0
H4025 H 0.68448 0.93949 0.07875 0.0
H4026 H 0.69008 0.9259 0.09327 0.0
H4027 H 0.67928 0.94233 0.0457 0.0
H4028 H 0.65895 0.93185 0.09976 0.0
H4029 H 0.64592 0.91805 0.12231 0.0
H4030 H 0.61602 0.90283 0.08691 0.0
H4031 H 0.62893 0.91643 0.06406 0.0
C4032 C 0.65601 0.97771 0.03164 0.0
C4033 C 0.64461 0.97275 0.02363 0.0
C4034 C 0.65999 0.97016 0.03886 0.0
C4035 C 0.65269 0.95753 0.03813 0.0
C4036 C 0.64134 0.95258 0.03016 0.0
C4037 C 0.63736 0.96008 0.02296 0.0
C4038 C 0.6567 0.94939 0.04591 0.0
C4039 C 0.64937 0.94101 0.05833 0.0
C4040 C 0.66764 0.94991 0.04134 0.0
C4041 C 0.67551 0.95818 0.02777 0.0
C4042 C 0.67095 0.95784 0.01112 0.0
C4043 C 0.67839 0.96572 0.99843 0.0
C4044 C 0.69044 0.97393 0.0022 0.0
C4045 C 0.69508 0.97424 0.01866 0.0
C4046 C 0.68767 0.96638 0.0314 0.0
C4047 C 0.66289 0.90484 0.07676 0.0
C4048 C 0.67385 0.90942 0.08587 0.0
C4049 C 0.65969 0.91267 0.06853 0.0
C4050 C 0.66735 0.92524 0.06932 0.0
C4051 C 0.67845 0.92983 0.07792 0.0
C4052 C 0.68166 0.92202 0.08616 0.0
C4053 C 0.66361 0.93364 0.06173 0.0
C4054 C 0.671 0.94209 0.04941 0.0
C4055 C 0.65274 0.93322 0.06642 0.0
C4056 C 0.64494 0.92507 0.08015 0.0
C4057 C 0.64962 0.9255 0.09674 0.0
C4058 C 0.64225 0.91772 0.10959 0.0
C4059 C 0.63016 0.90955 0.10603 0.0
C4060 C 0.6254 0.90916 0.08964 0.0
C4061 C 0.63273 0.9169 0.07674 0.0
H4062 H 0.62447 0.90354 0.116 0.0
H4063 H 0.69619 0.98003 0.99236 0.0
H4064 H 0.04777 0.67558 0.02775 0.0
H4065 H 0.05876 0.69523 0.04185 0.0
H4066 H 0.02907 0.70164 0.03209 0.0
H4067 H 0.01783 0.68178 0.01811 0.0
H4068 H 0.05354 0.72158 0.02344 0.0
H4069 H 0.03127 0.69528 0.06994 0.0
H4070 H 0.02385 0.67698 0.08788 0.0
H4071 H 0.06016 0.68684 0.10194 0.0
H4072 H 0.06782 0.7051 0.08385 0.0
H4073 H 0.07868 0.77419 0.0765 0.0
H4074 H 0.06538 0.75515 0.062 0.0
H4075 H 0.08699 0.74007 0.08118 0.0
H4076 H 0.0998 0.75872 0.09671 0.0
H4077 H 0.06474 0.72437 0.08518 0.0
H4078 H 0.08745 0.74937 0.0379 0.0
H4079 H 0.09579 0.76723 0.01895 0.0
H4080 H 0.06004 0.75965 0.00538 0.0
H4081 H 0.05149 0.74182 0.02443 0.0
C4082 C 0.04355 0.68115 0.02856 0.0
C4083 C 0.03191 0.67711 0.02181 0.0
C4084 C 0.04984 0.69236 0.03666 0.0
C4085 C 0.0447 0.69984 0.03804 0.0
C4086 C 0.03316 0.69596 0.03114 0.0
C4087 C 0.02675 0.68462 0.02324 0.0
C4088 C 0.05149 0.71166 0.04681 0.0
C4089 C 0.05583 0.72226 0.03701 0.0
C4090 C 0.05471 0.71244 0.06438 0.0
C4091 C 0.05012 0.70151 0.07541 0.0
C4092 C 0.03768 0.69349 0.07674 0.0
C4093 C 0.03343 0.68314 0.08696 0.0
C4094 C 0.04153 0.68074 0.09602 0.0
C4095 C 0.0539 0.6887 0.0949 0.0
C4096 C 0.0582 0.69907 0.08468 0.0
C4097 C 0.08059 0.76681 0.07774 0.0
C4098 C 0.09036 0.76806 0.08785 0.0
C4099 C 0.07304 0.75595 0.06924 0.0
C4100 C 0.07522 0.74617 0.07033 0.0
C4101 C 0.0851 0.74746 0.08012 0.0
C4102 C 0.09254 0.75824 0.08881 0.0
C4103 C 0.06705 0.73443 0.06178 0.0
C4104 C 0.06242 0.7238 0.07164 0.0
C4105 C 0.06371 0.73363 0.04419 0.0
C4106 C 0.06883 0.74434 0.03274 0.0
C4107 C 0.08137 0.75157 0.03098 0.0
C4108 C 0.08614 0.76168 0.02021 0.0
C4109 C 0.07845 0.7646 0.01101 0.0
C4110 C 0.06598 0.75739 0.01254 0.0
C4111 C 0.06117 0.74728 0.02331 0.0
H4112 H 0.08216 0.77243 0.00267 0.0
H4113 H 0.03822 0.67272 0.10393 0.0
H4114 H 0.32412 0.35984 0.00494 0.0
H4115 H 0.30437 0.35595 0.01484 0.0
H4116 H 0.30945 0.34104 0.06206 0.0
H4117 H 0.32921 0.34504 0.0524 0.0
H4118 H 0.2832 0.33628 0.02579 0.0
H4119 H 0.3003 0.35183 0.09495 0.0
H4120 H 0.31942 0.36473 0.11034 0.0
H4121 H 0.33398 0.38623 0.06495 0.0
H4122 H 0.31489 0.37357 0.04937 0.0
H4123 H 0.23434 0.32524 0.08193 0.0
H4124 H 0.25169 0.32585 0.06787 0.0
H4125 H 0.26992 0.36482 0.06819 0.0
H4126 H 0.253 0.36432 0.08291 0.0
H4127 H 0.28438 0.35742 0.0798 0.0
H4128 H 0.25787 0.34791 0.03084 0.0
H4129 H 0.23904 0.33609 0.01433 0.0
H4130 H 0.24354 0.30481 0.01722 0.0
H4131 H 0.26233 0.31641 0.03396 0.0
C4132 C 0.32095 0.35556 0.01732 0.0
C4133 C 0.32829 0.35289 0.02798 0.0
C4134 C 0.30964 0.35331 0.02293 0.0
C4135 C 0.30552 0.34838 0.03929 0.0
C4136 C 0.31253 0.34502 0.04949 0.0
C4137 C 0.32383 0.3473 0.04393 0.0
C4138 C 0.29444 0.3477 0.04631 0.0
C4139 C 0.28342 0.34086 0.03762 0.0
C4140 C 0.29478 0.35383 0.06161 0.0
C4141 C 0.30621 0.36167 0.07096 0.0
C4142 C 0.30757 0.35934 0.08828 0.0
C4143 C 0.3184 0.36661 0.09703 0.0
C4144 C 0.32792 0.37627 0.08861 0.0
C4145 C 0.32661 0.37872 0.07144 0.0
C4146 C 0.31579 0.3715 0.06264 0.0
C4147 C 0.24204 0.33394 0.07899 0.0
C4148 C 0.24221 0.34473 0.08357 0.0
C4149 C 0.25191 0.33427 0.07079 0.0
C4150 C 0.26211 0.34538 0.06689 0.0
C4151 C 0.26217 0.35613 0.07106 0.0
C4152 C 0.25237 0.35582 0.07931 0.0
C4153 C 0.27304 0.34596 0.05935 0.0
C4154 C 0.28408 0.35277 0.068 0.0
C4155 C 0.27271 0.33996 0.04389 0.0
C4156 C 0.26144 0.33299 0.0338 0.0
C4157 C 0.2548 0.33848 0.02807 0.0
C4158 C 0.24414 0.33183 0.01865 0.0
C4159 C 0.24007 0.3197 0.01477 0.0
C4160 C 0.24668 0.31421 0.02026 0.0
C4161 C 0.25734 0.32082 0.0297 0.0
H4162 H 0.23182 0.31457 0.00747 0.0
H4163 H 0.3363 0.38186 0.09541 0.0
H4164 H 0.68695 0.67247 0.34754 0.0
H4165 H 0.69931 0.66407 0.35877 0.0
H4166 H 0.7214 0.69725 0.38656 0.0
H4167 H 0.70955 0.70584 0.37454 0.0
H4168 H 0.73532 0.69134 0.37266 0.0
H4169 H 0.69918 0.66884 0.40568 0.0
H4170 H 0.67741 0.65548 0.41002 0.0
H4171 H 0.67876 0.6272 0.38196 0.0
H4172 H 0.70053 0.64045 0.37728 0.0
H4173 H 0.7614 0.67155 0.43725 0.0
H4174 H 0.74846 0.67754 0.42189 0.0
H4175 H 0.73948 0.64929 0.38472 0.0
H4176 H 0.75298 0.64357 0.39943 0.0
H4177 H 0.719 0.65122 0.40062 0.0
H4178 H 0.75633 0.67441 0.37044 0.0
H4179 H 0.7782 0.68824 0.36848 0.0
H4180 H 0.77443 0.71591 0.39434 0.0
H4181 H 0.75254 0.70218 0.3967 0.0
C4182 C 0.69438 0.67789 0.35618 0.0
C4183 C 0.69732 0.68979 0.36018 0.0
C4184 C 0.70143 0.67308 0.36265 0.0
C4185 C 0.71128 0.67997 0.37368 0.0
C4186 C 0.71394 0.69175 0.37799 0.0
C4187 C 0.70713 0.69665 0.37119 0.0
C4188 C 0.71914 0.67522 0.38031 0.0
C4189 C 0.73169 0.6826 0.37892 0.0
C4190 C 0.71451 0.66368 0.38809 0.0
C4191 C 0.70144 0.65568 0.39097 0.0
C4192 C 0.69481 0.6598 0.40034 0.0
C4193 C 0.68248 0.65224 0.40287 0.0
C4194 C 0.6767 0.64051 0.39622 0.0
C4195 C 0.68325 0.6363 0.38708 0.0
C4196 C 0.69558 0.64382 0.38449 0.0
C4197 C 0.75695 0.66674 0.42559 0.0
C4198 C 0.75838 0.6571 0.41957 0.0
C4199 C 0.74943 0.67012 0.41694 0.0
C4200 C 0.74303 0.66384 0.40222 0.0
C4201 C 0.74431 0.65419 0.39614 0.0
C4202 C 0.75201 0.65092 0.40463 0.0
C4203 C 0.73502 0.66749 0.39329 0.0
C4204 C 0.72252 0.65989 0.39422 0.0
C4205 C 0.73966 0.67893 0.38539 0.0
C4206 C 0.75281 0.68723 0.38387 0.0
C4207 C 0.76018 0.68341 0.37584 0.0
C4208 C 0.77258 0.69124 0.37463 0.0
C4209 C 0.77771 0.70293 0.38131 0.0
C4210 C 0.77044 0.70684 0.38918 0.0
C4211 C 0.75804 0.69905 0.39044 0.0
H4212 H 0.78731 0.70898 0.38036 0.0
H4213 H 0.66715 0.63468 0.39819 0.0
H4214 H 0.31621 0.00243 0.38659 0.0
H4215 H 0.31955 0.02227 0.39553 0.0
H4216 H 0.31921 0.03215 0.34252 0.0
H4217 H 0.31564 0.01217 0.33343 0.0
H4218 H 0.33868 0.05048 0.36492 0.0
H4219 H 0.29554 0.02512 0.36176 0.0
H4220 H 0.2763 0.00673 0.36791 0.0
H4221 H 0.28241 0.01374 0.42206 0.0
H4222 H 0.30178 0.03208 0.41623 0.0
H4223 H 0.33744 0.10394 0.38792 0.0
H4224 H 0.33274 0.08493 0.37366 0.0
H4225 H 0.32131 0.06617 0.42214 0.0
H4226 H 0.32555 0.08498 0.43617 0.0
H4227 H 0.30702 0.05241 0.39891 0.0
H4228 H 0.35017 0.07595 0.4038 0.0
H4229 H 0.3702 0.09377 0.39955 0.0
H4230 H 0.36522 0.08981 0.34482 0.0
H4231 H 0.34508 0.07204 0.34876 0.0
C4232 C 0.31695 0.00885 0.37681 0.0
C4233 C 0.31563 0.00573 0.3593 0.0
C4234 C 0.31882 0.02016 0.38195 0.0
C4235 C 0.31955 0.02862 0.36968 0.0
C4236 C 0.31866 0.02572 0.35216 0.0
C4237 C 0.31659 0.01431 0.34701 0.0
C4238 C 0.32087 0.04033 0.37532 0.0
C4239 C 0.3317 0.05098 0.37209 0.0
C4240 C 0.31186 0.04087 0.38503 0.0
C4241 C 0.30016 0.02991 0.38856 0.0
C4242 C 0.29282 0.02269 0.37498 0.0
C4243 C 0.28189 0.01228 0.37841 0.0
C4244 C 0.27814 0.00906 0.39537 0.0
C4245 C 0.28532 0.01625 0.40893 0.0
C4246 C 0.29628 0.02665 0.40557 0.0
C4247 C 0.33379 0.09571 0.39543 0.0
C4248 C 0.33181 0.09592 0.41313 0.0
C4249 C 0.33118 0.08486 0.38732 0.0
C4250 C 0.32687 0.07411 0.39686 0.0
C4251 C 0.3246 0.0743 0.41445 0.0
C4252 C 0.327 0.08507 0.42247 0.0
C4253 C 0.32496 0.06268 0.38882 0.0
C4254 C 0.314 0.05203 0.39159 0.0
C4255 C 0.33396 0.06211 0.37897 0.0
C4256 C 0.34607 0.07276 0.37657 0.0
C4257 C 0.35331 0.07893 0.39086 0.0
C4258 C 0.36469 0.08902 0.38851 0.0
C4259 C 0.36896 0.09295 0.37193 0.0
C4260 C 0.36188 0.08677 0.35766 0.0
C4261 C 0.35049 0.0767 0.35994 0.0
H4262 H 0.37777 0.10075 0.37013 0.0
H4263 H 0.26967 0.001 0.39799 0.0
H4264 H 0.98583 0.29822 0.33451 0.0
H4265 H 0.96534 0.2833 0.34295 0.0
H4266 H 0.9711 0.30082 0.39221 0.0
H4267 H 0.99143 0.31584 0.38376 0.0
H4268 H 0.95744 0.26696 0.36773 0.0
H4269 H 0.94539 0.29822 0.40708 0.0
H4270 H 0.94954 0.31933 0.40662 0.0
H4271 H 0.9562 0.32133 0.35241 0.0
H4272 H 0.95192 0.30019 0.35249 0.0
H4273 H 0.91158 0.23447 0.42842 0.0
H4274 H 0.92967 0.24789 0.41237 0.0
H4275 H 0.90918 0.25974 0.3814 0.0
H4276 H 0.89106 0.24639 0.39758 0.0
H4277 H 0.9288 0.27849 0.39215 0.0
H4278 H 0.92007 0.24172 0.36465 0.0
H4279 H 0.91512 0.22042 0.36261 0.0
H4280 H 0.94833 0.22895 0.38824 0.0
H4281 H 0.95341 0.25028 0.39065 0.0
C4282 C 0.98268 0.29895 0.34708 0.0
C4283 C 0.99024 0.30825 0.35844 0.0
C4284 C 0.97099 0.29039 0.35191 0.0
C4285 C 0.96662 0.29098 0.36815 0.0
C4286 C 0.97417 0.30028 0.37949 0.0
C4287 C 0.98582 0.30885 0.37466 0.0
C4288 C 0.95432 0.28172 0.37353 0.0
C4289 C 0.95115 0.26947 0.373 0.0
C4290 C 0.94598 0.28495 0.38005 0.0
C4291 C 0.94842 0.29764 0.37983 0.0
C4292 C 0.94768 0.30314 0.39504 0.0
C4293 C 0.95007 0.31512 0.39485 0.0
C4294 C 0.95317 0.32168 0.3795 0.0
C4295 C 0.95384 0.31626 0.3643 0.0
C4296 C 0.95145 0.30428 0.36442 0.0
C4297 C 0.91086 0.23972 0.41794 0.0
C4298 C 0.89987 0.23936 0.41428 0.0
C4299 C 0.92123 0.24742 0.40876 0.0
C4300 C 0.92081 0.2548 0.39557 0.0
C4301 C 0.90976 0.25418 0.39155 0.0
C4302 C 0.8994 0.24654 0.4008 0.0
C4303 C 0.93203 0.26372 0.38679 0.0
C4304 C 0.93502 0.27594 0.38673 0.0
C4305 C 0.94008 0.26041 0.37939 0.0
C4306 C 0.93708 0.24759 0.37794 0.0
C4307 C 0.92628 0.23904 0.36996 0.0
C4308 C 0.92345 0.22696 0.36872 0.0
C4309 C 0.93139 0.22333 0.37533 0.0
C4310 C 0.94219 0.23177 0.38314 0.0
C4311 C 0.94505 0.24387 0.38443 0.0
H4312 H 0.92919 0.21397 0.37436 0.0
H4313 H 0.95502 0.33095 0.37939 0.0
H4314 H 0.04031 0.37471 0.31699 0.0
H4315 H 0.03373 0.38827 0.30507 0.0
H4316 H 0.99698 0.36267 0.31787 0.0
H4317 H 0.00349 0.34883 0.32946 0.0
H4318 H 0.99774 0.37291 0.2877 0.0
H4319 H 0.01404 0.38723 0.3434 0.0
H4320 H 0.02907 0.39343 0.36684 0.0
H4321 H 0.05467 0.42285 0.33606 0.0
H4322 H 0.03987 0.41668 0.31228 0.0
H4323 H 0.97976 0.41781 0.2783 0.0
H4324 H 0.98429 0.40325 0.29236 0.0
H4325 H 0.02073 0.42285 0.27402 0.0
H4326 H 0.01622 0.43715 0.2593 0.0
H4327 H 0.01861 0.41518 0.30913 0.0
H4328 H 0.00195 0.39923 0.25274 0.0
H4329 H 0.98642 0.39263 0.22995 0.0
H4330 H 0.96051 0.36599 0.26388 0.0
H4331 H 0.97586 0.37257 0.28697 0.0
C4332 C 0.03081 0.37189 0.31716 0.0
C4333 C 0.02244 0.36073 0.32434 0.0
C4334 C 0.02706 0.37969 0.3104 0.0
C4335 C 0.0149 0.37664 0.31098 0.0
C4336 C 0.00642 0.36526 0.31741 0.0
C4337 C 0.01016 0.35735 0.32401 0.0
C4338 C 0.01118 0.38551 0.30527 0.0
C4339 C 0.00217 0.38209 0.29261 0.0
C4340 C 0.01699 0.39753 0.3116 0.0
C4341 C 0.02586 0.40144 0.326 0.0
C4342 C 0.0229 0.39498 0.34158 0.0
C4343 C 0.03138 0.39849 0.35493 0.0
C4344 C 0.04283 0.40852 0.35293 0.0
C4345 C 0.0458 0.41508 0.33758 0.0
C4346 C 0.03737 0.41159 0.32417 0.0
C4347 C 0.98875 0.41904 0.27719 0.0
C4348 C 0.99758 0.42866 0.2675 0.0
C4349 C 0.99132 0.41073 0.28533 0.0
C4350 C 0.00281 0.41193 0.2841 0.0
C4351 C 0.01181 0.42179 0.27516 0.0
C4352 C 0.00921 0.43002 0.26684 0.0
C4353 C 0.00535 0.40261 0.29141 0.0
C4354 C 0.01413 0.40596 0.30438 0.0
C4355 C 0.99921 0.3905 0.28556 0.0
C4356 C 0.99001 0.38648 0.27164 0.0
C4357 C 0.99292 0.39204 0.25539 0.0
C4358 C 0.98415 0.38829 0.24241 0.0
C4359 C 0.97247 0.37892 0.24548 0.0
C4360 C 0.96955 0.37326 0.26153 0.0
C4361 C 0.97828 0.37699 0.27456 0.0
H4362 H 0.9657 0.37603 0.23541 0.0
H4363 H 0.04938 0.41121 0.36327 0.0
H4364 H 0.63353 0.65881 0.34421 0.0
H4365 H 0.61847 0.63904 0.33323 0.0
H4366 H 0.64138 0.64324 0.29036 0.0
H4367 H 0.6563 0.66321 0.30099 0.0
H4368 H 0.61957 0.63508 0.27921 0.0
H4369 H 0.63728 0.62391 0.3252 0.0
H4370 H 0.64421 0.62375 0.35486 0.0
H4371 H 0.60804 0.60925 0.373 0.0
H4372 H 0.60092 0.60948 0.34346 0.0
H4373 H 0.59089 0.57466 0.25058 0.0
H4374 H 0.60532 0.59378 0.26392 0.0
H4375 H 0.57831 0.5904 0.29976 0.0
H4376 H 0.56375 0.57105 0.28653 0.0
H4377 H 0.60141 0.59794 0.31495 0.0
H4378 H 0.58412 0.6088 0.26743 0.0
H4379 H 0.57797 0.60831 0.23716 0.0
H4380 H 0.61465 0.62285 0.22133 0.0
H4381 H 0.621 0.62328 0.25151 0.0
C4382 C 0.6354 0.65549 0.3325 0.0
C4383 C 0.64612 0.66256 0.32347 0.0
C4384 C 0.62679 0.64415 0.32627 0.0
C4385 C 0.62882 0.63955 0.31105 0.0
C4386 C 0.63958 0.64658 0.30211 0.0
C4387 C 0.64813 0.65798 0.30823 0.0
C4388 C 0.61958 0.62761 0.30414 0.0
C4389 C 0.61574 0.62695 0.287 0.0
C4390 C 0.61435 0.617 0.31436 0.0
C4391 C 0.61859 0.61683 0.33214 0.0
C4392 C 0.63082 0.62078 0.33553 0.0
C4393 C 0.63478 0.62066 0.35232 0.0
C4394 C 0.62658 0.61653 0.36581 0.0
C4395 C 0.61439 0.61247 0.36254 0.0
C4396 C 0.61039 0.61258 0.34577 0.0
C4397 C 0.58803 0.57788 0.26146 0.0
C4398 C 0.57618 0.57131 0.26757 0.0
C4399 C 0.59627 0.58886 0.26897 0.0
C4400 C 0.59285 0.59354 0.28273 0.0
C4401 C 0.58111 0.58693 0.28912 0.0
C4402 C 0.57279 0.57593 0.28151 0.0
C4403 C 0.60154 0.60548 0.29009 0.0
C4404 C 0.60526 0.60612 0.30726 0.0
C4405 C 0.6068 0.61605 0.27985 0.0
C4406 C 0.60302 0.61598 0.26172 0.0
C4407 C 0.59086 0.61182 0.25749 0.0
C4408 C 0.58734 0.61156 0.24035 0.0
C4409 C 0.59591 0.61552 0.22733 0.0
C4410 C 0.60802 0.61978 0.23143 0.0
C4411 C 0.61159 0.62005 0.24855 0.0
H4412 H 0.59316 0.6153 0.21406 0.0
H4413 H 0.62966 0.61644 0.3788 0.0
H4414 H 0.34476 0.99461 0.33015 0.0
H4415 H 0.36511 0.00197 0.31894 0.0
H4416 H 0.35846 0.96529 0.31635 0.0
H4417 H 0.33847 0.95797 0.32782 0.0
H4418 H 0.37969 0.97898 0.32962 0.0
H4419 H 0.35745 0.98174 0.2803 0.0
H4420 H 0.3454 0.98907 0.26459 0.0
H4421 H 0.37373 0.02573 0.27124 0.0
H4422 H 0.38588 0.01861 0.28718 0.0
H4423 H 0.41509 0.97442 0.26537 0.0
H4424 H 0.39904 0.97413 0.2822 0.0
H4425 H 0.41895 0.01295 0.28637 0.0
H4426 H 0.43549 0.01338 0.27005 0.0
H4427 H 0.39389 0.00278 0.2758 0.0
H4428 H 0.4174 0.99881 0.32082 0.0
H4429 H 0.42914 0.99057 0.3351 0.0
H4430 H 0.39794 0.9552 0.33544 0.0
H4431 H 0.38605 0.96318 0.32092 0.0
C4432 C 0.34765 0.98814 0.32716 0.0
C4433 C 0.33996 0.9757 0.32994 0.0
C4434 C 0.35928 0.99235 0.32072 0.0
C4435 C 0.36333 0.98419 0.31674 0.0
C4436 C 0.35561 0.9718 0.31944 0.0
C4437 C 0.34412 0.96762 0.32598 0.0
C4438 C 0.37555 0.98827 0.30975 0.0
C4439 C 0.38277 0.98417 0.31784 0.0
C4440 C 0.3798 0.99539 0.29468 0.0
C4441 C 0.3725 0.99966 0.28511 0.0
C4442 C 0.36106 0.99137 0.27853 0.0
C4443 C 0.35422 0.99548 0.26956 0.0
C4444 C 0.35878 0.00786 0.26697 0.0
C4445 C 0.3702 0.01615 0.27329 0.0
C4446 C 0.37707 0.01208 0.28229 0.0
C4447 C 0.41629 0.98292 0.27018 0.0
C4448 C 0.42673 0.99392 0.26644 0.0
C4449 C 0.40701 0.98273 0.2797 0.0
C4450 C 0.40784 0.99351 0.2856 0.0
C4451 C 0.41815 0.00454 0.28189 0.0
C4452 C 0.42757 0.00474 0.27252 0.0
C4453 C 0.3977 0.99304 0.29533 0.0
C4454 C 0.39091 0.99782 0.28779 0.0
C4455 C 0.39375 0.98643 0.31082 0.0
C4456 C 0.40085 0.98159 0.31969 0.0
C4457 C 0.41306 0.98926 0.32383 0.0
C4458 C 0.41974 0.98464 0.33199 0.0
C4459 C 0.4143 0.97237 0.33615 0.0
C4460 C 0.40215 0.9647 0.3322 0.0
C4461 C 0.39543 0.96927 0.32404 0.0
H4462 H 0.41949 0.96881 0.34246 0.0
H4463 H 0.35347 0.01102 0.26002 0.0
H4464 H 0.63714 0.9844 0.34829 0.0
H4465 H 0.62209 0.98982 0.33869 0.0
H4466 H 0.63756 0.99759 0.28804 0.0
H4467 H 0.65278 0.99248 0.29765 0.0
H4468 H 0.63141 0.01381 0.29639 0.0
H4469 H 0.61231 0.9704 0.29759 0.0
H4470 H 0.60581 0.95046 0.31076 0.0
H4471 H 0.5851 0.95717 0.34779 0.0
H4472 H 0.59162 0.97722 0.33497 0.0
H4473 H 0.56842 0.98945 0.25536 0.0
H4474 H 0.58338 0.98598 0.27012 0.0
H4475 H 0.59638 0.01957 0.2976 0.0
H4476 H 0.58137 0.02314 0.28279 0.0
H4477 H 0.58825 0.98316 0.30228 0.0
H4478 H 0.62705 0.03256 0.30221 0.0
H4479 H 0.63359 0.05142 0.2858 0.0
H4480 H 0.61493 0.03085 0.241 0.0
H4481 H 0.60842 0.01189 0.25707 0.0
C4482 C 0.63741 0.98738 0.33515 0.0
C4483 C 0.64611 0.98794 0.32369 0.0
C4484 C 0.62877 0.99042 0.32966 0.0
C4485 C 0.62858 0.99394 0.31257 0.0
C4486 C 0.63752 0.9949 0.30129 0.0
C4487 C 0.6462 0.99193 0.30679 0.0
C4488 C 0.61883 0.99618 0.30616 0.0
C4489 C 0.62197 0.00714 0.2978 0.0
C4490 C 0.6065 0.98742 0.30774 0.0
C4491 C 0.60256 0.97536 0.31544 0.0
C4492 C 0.60645 0.96766 0.30862 0.0
C4493 C 0.60275 0.95633 0.31601 0.0
C4494 C 0.59508 0.95257 0.33014 0.0
C4495 C 0.59106 0.96011 0.33687 0.0
C4496 C 0.59475 0.97145 0.32954 0.0
C4497 C 0.57429 0.996 0.2648 0.0
C4498 C 0.5737 0.00659 0.26788 0.0
C4499 C 0.58288 0.99402 0.27319 0.0
C4500 C 0.5911 0.00257 0.28483 0.0
C4501 C 0.59026 0.01294 0.28845 0.0
C4502 C 0.58168 0.01497 0.27999 0.0
C4503 C 0.60083 1.00078 0.29252 0.0
C4504 C 0.59768 0.98991 0.30112 0.0
C4505 C 0.61316 0.00949 0.29076 0.0
C4506 C 0.61714 0.02083 0.28091 0.0
C4507 C 0.62438 0.03207 0.28884 0.0
C4508 C 0.62808 0.04278 0.2796 0.0
C4509 C 0.62464 0.04233 0.26239 0.0
C4510 C 0.61755 0.03118 0.25435 0.0
C4511 C 0.61384 0.02046 0.26352 0.0
H4512 H 0.62751 0.05063 0.25526 0.0
H4513 H 0.59222 0.94379 0.33584 0.0
H4514 H 0.04133 0.6616 0.34792 0.0
H4515 H 0.03535 0.64205 0.33496 0.0
H4516 H 0.00707 0.64385 0.30656 0.0
H4517 H 0.01283 0.66343 0.3199 0.0
H4518 H 0.99952 0.62117 0.31774 0.0
H4519 H 0.03357 0.65091 0.28721 0.0
H4520 H 0.05404 0.66819 0.28375 0.0
H4521 H 0.06902 0.6478 0.30708 0.0
H4522 H 0.04861 0.63044 0.31092 0.0
H4523 H 0.9947 0.57743 0.25485 0.0
H4524 H 0.99662 0.59494 0.27051 0.0
H4525 H 0.02447 0.59505 0.30252 0.0
H4526 H 0.02253 0.57749 0.28704 0.0
H4527 H 0.0315 0.61693 0.28828 0.0
H4528 H 0.99671 0.58695 0.31851 0.0
H4529 H 0.97602 0.56986 0.32094 0.0
H4530 H 0.96219 0.59089 0.2964 0.0
H4531 H 0.98281 0.60805 0.29361 0.0
C4532 C 0.0338 0.65786 0.33897 0.0
C4533 C 0.02766 0.66418 0.33478 0.0
C4534 C 0.0304 0.64666 0.33154 0.0
C4535 C 0.02093 0.64159 0.31949 0.0
C4536 C 0.01445 0.64762 0.31575 0.0
C4537 C 0.01777 0.65882 0.32336 0.0
C4538 C 0.01817 0.63023 0.31042 0.0
C4539 C 0.00646 0.62028 0.3111 0.0
C4540 C 0.02725 0.62902 0.30187 0.0
C4541 C 0.03955 0.63941 0.29948 0.0
C4542 C 0.04122 0.65014 0.29171 0.0
C4543 C 0.05282 0.65994 0.28967 0.0
C4544 C 0.06282 0.6591 0.29523 0.0
C4545 C 0.06126 0.64844 0.3028 0.0
C4546 C 0.04968 0.63861 0.3049 0.0
C4547 C 1.00101 0.58098 0.26552 0.0
C4548 C 0.00851 0.57609 0.26964 0.0
C4549 C 0.00212 0.59102 0.27443 0.0
C4550 C 0.0107 0.59632 0.28769 0.0
C4551 C 0.01784 0.59115 0.29227 0.0
C4552 C 0.01674 0.58113 0.28339 0.0
C4553 C 0.01292 0.60777 0.29591 0.0
C4554 C 0.02454 0.61779 0.29495 0.0
C4555 C 0.00372 0.60905 0.30399 0.0
C4556 C 0.99132 0.59874 0.3057 0.0
C4557 C 0.98926 0.5879 0.3135 0.0
C4558 C 0.97755 0.5782 0.31497 0.0
C4559 C 0.9678 0.57928 0.30879 0.0
C4560 C 0.96975 0.59006 0.30117 0.0
C4561 C 0.98145 0.59978 0.29965 0.0
H4562 H 0.95873 0.57176 0.30994 0.0
H4563 H 0.07179 0.66671 0.29363 0.0
H4564 H 0.33702 0.35262 0.30062 0.0
H4565 H 0.35722 0.36805 0.29224 0.0
H4566 H 0.36396 0.38305 0.34337 0.0
H4567 H 0.34369 0.36756 0.35192 0.0
H4568 H 0.36709 0.39236 0.29142 0.0
H4569 H 0.39457 0.39455 0.35195 0.0
H4570 H 0.39394 0.3814 0.37583 0.0
H4571 H 0.37402 0.35005 0.34407 0.0
H4572 H 0.37468 0.36302 0.31994 0.0
H4573 H 0.4261 0.44252 0.28304 0.0
H4574 H 0.40709 0.42846 0.29682 0.0
H4575 H 0.4142 0.39913 0.28794 0.0
H4576 H 0.43295 0.41296 0.27376 0.0
H4577 H 0.40433 0.39765 0.31998 0.0
H4578 H 0.39679 0.4033 0.26061 0.0
H4579 H 0.39755 0.41534 0.23523 0.0
H4580 H 0.37746 0.4289 0.2621 0.0
H4581 H 0.37674 0.41705 0.28775 0.0
C4582 C 0.3428 0.35916 0.31014 0.0
C4583 C 0.33875 0.35886 0.32695 0.0
C4584 C 0.35434 0.36801 0.30529 0.0
C4585 C 0.36211 0.37669 0.31717 0.0
C4586 C 0.35814 0.37638 0.33403 0.0
C4587 C 0.34656 0.36754 0.33888 0.0
C4588 C 0.37429 0.38612 0.31171 0.0
C4589 C 0.37522 0.39356 0.29776 0.0
C4590 C 0.38492 0.38764 0.31987 0.0
C4591 C 0.38456 0.37975 0.33422 0.0
C4592 C 0.39009 0.38485 0.35006 0.0
C4593 C 0.38972 0.37743 0.36364 0.0
C4594 C 0.38391 0.3649 0.36149 0.0
C4595 C 0.37848 0.35976 0.34574 0.0
C4596 C 0.37883 0.36714 0.33212 0.0
C4597 C 0.42365 0.43309 0.28406 0.0
C4598 C 0.43108 0.42891 0.27716 0.0
C4599 C 0.41281 0.42508 0.29203 0.0
C4600 C 0.4092 0.41274 0.2933 0.0
C4601 C 0.41684 0.40863 0.28719 0.0
C4602 C 0.42762 0.4166 0.27913 0.0
C4603 C 0.3971 0.4039 0.29977 0.0
C4604 C 0.39618 0.39657 0.31386 0.0
C4605 C 0.38647 0.40235 0.29159 0.0
C4606 C 0.38683 0.4094 0.27615 0.0
C4607 C 0.39262 0.40892 0.26115 0.0
C4608 C 0.39303 0.4157 0.24671 0.0
C4609 C 0.38759 0.42291 0.24707 0.0
C4610 C 0.38169 0.42333 0.26186 0.0
C4611 C 0.38127 0.41658 0.27635 0.0
H4612 H 0.38791 0.42815 0.23587 0.0
H4613 H 0.38363 0.35917 0.37202 0.0
H4614 H 0.29272 0.28825 0.35509 0.0
H4615 H 0.30026 0.27626 0.36942 0.0
H4616 H 0.33475 0.30822 0.37721 0.0
H4617 H 0.32728 0.32044 0.36268 0.0
H4618 H 0.33694 0.2888 0.36633 0.0
H4619 H 0.31656 0.29697 0.41035 0.0
H4620 H 0.30001 0.29858 0.42379 0.0
H4621 H 0.27677 0.26029 0.41834 0.0
H4622 H 0.29313 0.25847 0.40462 0.0
H4623 H 0.35512 0.25869 0.42834 0.0
H4624 H 0.34999 0.27271 0.41409 0.0
H4625 H 0.3152 0.24305 0.4 0.0
H4626 H 0.32039 0.22882 0.41366 0.0
H4627 H 0.31445 0.26278 0.41562 0.0
H4628 H 0.33546 0.25542 0.37013 0.0
H4629 H 0.3526 0.25452 0.35739 0.0
H4630 H 0.37553 0.2924 0.36716 0.0
H4631 H 0.35855 0.29349 0.38018 0.0
C4632 C 0.30193 0.29281 0.35981 0.0
C4633 C 0.30936 0.30537 0.35779 0.0
C4634 C 0.30621 0.28591 0.36808 0.0
C4635 C 0.31801 0.29136 0.37461 0.0
C4636 C 0.32559 0.30384 0.37233 0.0
C4637 C 0.32129 0.31081 0.36406 0.0
C4638 C 0.32227 0.28389 0.38379 0.0
C4639 C 0.33216 0.28327 0.3773 0.0
C4640 C 0.31594 0.27658 0.39798 0.0
C4641 C 0.30606 0.2776 0.40631 0.0
C4642 C 0.3079 0.2889 0.41188 0.0
C4643 C 0.29855 0.28985 0.41958 0.0
C4644 C 0.28734 0.27955 0.42188 0.0
C4645 C 0.28546 0.26827 0.41653 0.0
C4646 C 0.29477 0.26727 0.40881 0.0
C4647 C 0.34647 0.25505 0.42189 0.0
C4648 C 0.3382 0.24255 0.42211 0.0
C4649 C 0.34353 0.26313 0.41386 0.0
C4650 C 0.33224 0.25891 0.40597 0.0
C4651 C 0.32396 0.24648 0.40609 0.0
C4652 C 0.32693 0.23837 0.41396 0.0
C4653 C 0.32896 0.26752 0.39794 0.0
C4654 C 0.31926 0.26836 0.40471 0.0
C4655 C 0.33557 0.27515 0.38417 0.0
C4656 C 0.34577 0.27451 0.3763 0.0
C4657 C 0.34419 0.26354 0.3697 0.0
C4658 C 0.35386 0.263 0.3624 0.0
C4659 C 0.36516 0.27339 0.36152 0.0
C4660 C 0.36678 0.28436 0.36788 0.0
C4661 C 0.35713 0.28494 0.37521 0.0
H4662 H 0.37264 0.27295 0.35586 0.0
H4663 H 0.28012 0.2803 0.42784 0.0
H4664 H 0.71412 0.00655 0.36003 0.0
H4665 H 0.72628 0.02638 0.37327 0.0
H4666 H 0.69741 0.0343 0.36534 0.0
H4667 H 0.68501 0.0143 0.35225 0.0
H4668 H 0.7221 0.05352 0.35552 0.0
H4669 H 0.69998 0.02779 0.4028 0.0
H4670 H 0.69238 0.00956 0.4209 0.0
H4671 H 0.72863 0.01826 0.43331 0.0
H4672 H 0.73645 0.03646 0.41505 0.0
H4673 H 0.74745 0.10582 0.40915 0.0
H4674 H 0.73435 0.08694 0.39415 0.0
H4675 H 0.75608 0.07188 0.41293 0.0
H4676 H 0.76871 0.09038 0.42889 0.0
H4677 H 0.73383 0.05618 0.41702 0.0
H4678 H 0.75639 0.08111 0.36979 0.0
H4679 H 0.76483 0.09897 0.35084 0.0
H4680 H 0.72916 0.09168 0.33738 0.0
H4681 H 0.72051 0.07385 0.35643 0.0
C4682 C 0.71034 0.0125 0.36102 0.0
C4683 C 0.69857 0.00882 0.35512 0.0
C4684 C 0.7173 0.02382 0.36862 0.0
C4685 C 0.71272 0.03176 0.3703 0.0
C4686 C 0.70109 0.02827 0.36413 0.0
C4687 C 0.69401 0.01684 0.35675 0.0
C4688 C 0.72008 0.04358 0.37886 0.0
C4689 C 0.72453 0.05417 0.36903 0.0
C4690 C 0.72348 0.04432 0.39634 0.0
C4691 C 0.7188 0.03342 0.40742 0.0
C4692 C 0.70633 0.02576 0.40926 0.0
C4693 C 0.70198 0.01544 0.41958 0.0
C4694 C 0.71001 0.01273 0.42822 0.0
C4695 C 0.72242 0.02036 0.42659 0.0
C4696 C 0.72681 0.03068 0.41628 0.0
C4697 C 0.74944 0.09849 0.41017 0.0
C4698 C 0.75917 0.09968 0.42032 0.0
C4699 C 0.742 0.08772 0.40138 0.0
C4700 C 0.74426 0.07798 0.40225 0.0
C4701 C 0.75413 0.07925 0.41203 0.0
C4702 C 0.76147 0.08993 0.42099 0.0
C4703 C 0.73607 0.06627 0.39367 0.0
C4704 C 0.73142 0.05564 0.40351 0.0
C4705 C 0.73263 0.0655 0.37613 0.0
C4706 C 0.73781 0.07622 0.36468 0.0
C4707 C 0.75035 0.08337 0.3629 0.0
C4708 C 0.75517 0.09348 0.35212 0.0
C4709 C 0.74754 0.09648 0.34295 0.0
C4710 C 0.73506 0.08936 0.34451 0.0
C4711 C 0.73019 0.07925 0.35529 0.0
H4712 H 0.75129 0.10431 0.33461 0.0
H4713 H 0.70663 0.00474 0.4362 0.0
H4714 H 0.99831 0.6835 0.3911 0.0
H4715 H 0.97798 0.67781 0.40006 0.0
H4716 H 0.9676 0.67817 0.34716 0.0
H4717 H 0.98821 0.68446 0.3382 0.0
H4718 H 0.9585 0.68829 0.36527 0.0
H4719 H 0.95832 0.65107 0.37085 0.0
H4720 H 0.96555 0.63706 0.37958 0.0
H4721 H 0.96278 0.64423 0.4327 0.0
H4722 H 0.95569 0.65842 0.42429 0.0
H4723 H 0.89535 0.65597 0.39274 0.0
H4724 H 0.91428 0.66047 0.37859 0.0
H4725 H 0.93368 0.67506 0.4261 0.0
H4726 H 0.91494 0.67086 0.44014 0.0
H4727 H 0.93661 0.65561 0.40775 0.0
H4728 H 0.9381 0.6944 0.40001 0.0
H4729 H 0.92993 0.70731 0.38971 0.0
H4730 H 0.92878 0.69505 0.33805 0.0
H4731 H 0.93678 0.68192 0.34811 0.0
C4732 C 0.99168 0.68226 0.38134 0.0
C4733 C 0.99485 0.68437 0.36393 0.0
C4734 C 0.98001 0.67894 0.38648 0.0
C4735 C 0.97113 0.67731 0.37428 0.0
C4736 C 0.97426 0.67933 0.35683 0.0
C4737 C 0.98603 0.68288 0.35171 0.0
C4738 C 0.95875 0.67395 0.37993 0.0
C4739 C 0.95364 0.68099 0.37431 0.0
C4740 C 0.95233 0.66444 0.39177 0.0
C4741 C 0.95656 0.65588 0.39692 0.0
C4742 C 0.95933 0.64972 0.38439 0.0
C4743 C 0.96339 0.64174 0.38929 0.0
C4744 C 0.96464 0.63977 0.40668 0.0
C4745 C 0.96181 0.64577 0.41923 0.0
C4746 C 0.95776 0.65377 0.4144 0.0
C4747 C 0.9037 0.66028 0.40005 0.0
C4748 C 0.90372 0.66316 0.41748 0.0
C4749 C 0.91446 0.66283 0.39199 0.0
C4750 C 0.92533 0.66807 0.40135 0.0
C4751 C 0.92537 0.67102 0.41869 0.0
C4752 C 0.91469 0.66871 0.42663 0.0
C4753 C 0.93664 0.67011 0.39337 0.0
C4754 C 0.94148 0.66279 0.39854 0.0
C4755 C 0.94266 0.67916 0.38087 0.0
C4756 C 0.93788 0.68706 0.37484 0.0
C4757 C 0.93598 0.69436 0.38649 0.0
C4758 C 0.93141 0.70174 0.38068 0.0
C4759 C 0.92879 0.70197 0.36324 0.0
C4760 C 0.93078 0.69484 0.35156 0.0
C4761 C 0.93534 0.68743 0.35731 0.0
H4762 H 0.92526 0.70769 0.35878 0.0
H4763 H 0.96779 0.63359 0.41045 0.0
H4764 H 0.38281 0.03994 0.68699 0.0
H4765 H 0.39385 0.03087 0.70005 0.0
H4766 H 0.3607 0.00138 0.71905 0.0
H4767 H 0.34943 0.01047 0.70597 0.0
H4768 H 0.37936 0.01096 0.74372 0.0
H4769 H 0.37335 0.99626 0.68597 0.0
H4770 H 0.37354 0.99792 0.65439 0.0
H4771 H 0.41187 0.02127 0.65564 0.0
H4772 H 0.41189 0.01989 0.68727 0.0
H4773 H 0.40835 0.97856 0.771 0.0
H4774 H 0.39465 0.98391 0.75647 0.0
H4775 H 0.42448 0.01246 0.72933 0.0
H4776 H 0.43821 0.00667 0.74304 0.0
H4777 H 0.40583 0.0015 0.70851 0.0
H4778 H 0.41189 0.01773 0.7658 0.0
H4779 H 0.4121 0.01682 0.79747 0.0
H4780 H 0.3742 0.99144 0.79724 0.0
H4781 H 0.37379 0.99208 0.76554 0.0
C4782 C 0.37779 0.03153 0.69394 0.0
C4783 C 0.36519 0.02594 0.69541 0.0
C4784 C 0.38415 0.02632 0.70134 0.0
C4785 C 0.37809 0.0154 0.71037 0.0
C4786 C 0.36553 0.00981 0.71207 0.0
C4787 C 0.35911 0.01499 0.70454 0.0
C4788 C 0.38502 0.01 0.71811 0.0
C4789 C 0.38497 0.00866 0.73602 0.0
C4790 C 0.39256 0.00729 0.70807 0.0
C4791 C 0.39261 0.00804 0.68902 0.0
C4792 C 0.38181 0.00182 0.67953 0.0
C4793 C 0.38188 0.0027 0.66161 0.0
C4794 C 0.39271 0.00972 0.65302 0.0
C4795 C 0.40349 0.01584 0.66232 0.0
C4796 C 0.40347 0.015 0.68024 0.0
C4797 C 0.41201 0.98581 0.76166 0.0
C4798 C 0.42444 0.99217 0.75822 0.0
C4799 C 0.40416 0.98898 0.75355 0.0
C4800 C 0.40855 0.99874 0.74205 0.0
C4801 C 0.42088 0.00493 0.73824 0.0
C4802 C 0.42875 0.00168 0.74622 0.0
C4803 C 0.40032 0.00262 0.73419 0.0
C4804 C 0.40014 0.00368 0.71624 0.0
C4805 C 0.39263 0.00516 0.74422 0.0
C4806 C 0.39283 0.00486 0.76329 0.0
C4807 C 0.40361 0.0119 0.7725 0.0
C4808 C 0.40377 0.01144 0.79045 0.0
C4809 C 0.39318 0.00405 0.79936 0.0
C4810 C 0.3824 0.99714 0.79033 0.0
C4811 C 0.3822 0.99756 0.77237 0.0
H4812 H 0.39332 0.0037 0.81326 0.0
H4813 H 0.39275 0.01039 0.63914 0.0
H4814 H 0.97238 0.34308 0.67535 0.0
H4815 H 0.97662 0.36287 0.6858 0.0
H4816 H 1.00052 0.36179 0.72459 0.0
H4817 H 0.99581 0.34169 0.71466 0.0
H4818 H 0.98786 0.36948 0.73864 0.0
H4819 H 0.01063 0.38039 0.68701 0.0
H4820 H 0.01438 0.37975 0.65611 0.0
H4821 H 0.98824 0.39061 0.64366 0.0
H4822 H 0.98422 0.39117 0.67448 0.0
H4823 H 0.01607 0.43928 0.7354 0.0
H4824 H 0.01322 0.42068 0.72207 0.0
H4825 H 0.97814 0.40085 0.74501 0.0
H4826 H 0.98115 0.41923 0.75908 0.0
H4827 H 0.99817 0.40442 0.70015 0.0
H4828 H 0.97313 0.37349 0.75808 0.0
H4829 H 0.97207 0.3751 0.78953 0.0
H4830 H 0.0077 0.40583 0.79028 0.0
H4831 H 0.00904 0.40429 0.7589 0.0
C4832 C 0.97861 0.34711 0.68603 0.0
C4833 C 0.98379 0.34085 0.69418 0.0
C4834 C 0.98109 0.35847 0.69195 0.0
C4835 C 0.98904 0.36397 0.70585 0.0
C4836 C 0.99434 0.35777 0.71386 0.0
C4837 C 0.99168 0.34629 0.70815 0.0
C4838 C 0.99144 0.37592 0.71251 0.0
C4839 C 0.99014 0.3771 0.73018 0.0
C4840 C 0.99463 0.38601 0.7016 0.0
C4841 C 0.99705 0.38572 0.68305 0.0
C4842 C 0.00562 0.38257 0.67768 0.0
C4843 C 0.00781 0.38223 0.66018 0.0
C4844 C 0.00153 0.38511 0.64793 0.0
C4845 C 0.99309 0.38837 0.65316 0.0
C4846 C 0.99086 0.38871 0.67064 0.0
C4847 C 0.00774 0.43096 0.73761 0.0
C4848 C 0.99891 0.43076 0.74851 0.0
C4849 C 0.00608 0.42035 0.72985 0.0
C4850 C 0.99557 0.40932 0.7328 0.0
C4851 C 0.98643 0.40921 0.7428 0.0
C4852 C 0.98811 0.41979 0.75067 0.0
C4853 C 0.99439 0.39784 0.72616 0.0
C4854 C 0.9959 0.39676 0.70854 0.0
C4855 C 0.99178 0.38796 0.73718 0.0
C4856 C 0.99112 0.38884 0.75611 0.0
C4857 C 0.98075 0.38056 0.76497 0.0
C4858 C 0.9801 0.38146 0.78279 0.0
C4859 C 0.98979 0.39058 0.79189 0.0
C4860 C 1.00018 0.39879 0.78321 0.0
C4861 C 1.00089 0.39792 0.76541 0.0
H4862 H 0.98927 0.39127 0.80568 0.0
H4863 H 0.00324 0.38484 0.63439 0.0
H4864 H 0.66095 0.65822 0.71006 0.0
H4865 H 0.64093 0.64431 0.72105 0.0
H4866 H 0.63829 0.61653 0.68675 0.0
H4867 H 0.65811 0.63061 0.67517 0.0
H4868 H 0.61753 0.61521 0.68788 0.0
H4869 H 0.64562 0.61756 0.73089 0.0
H4870 H 0.66268 0.62748 0.75124 0.0
H4871 H 0.64411 0.64253 0.77856 0.0
H4872 H 0.62699 0.63283 0.75823 0.0
H4873 H 0.57275 0.56522 0.73725 0.0
H4874 H 0.59118 0.57977 0.72246 0.0
H4875 H 0.58973 0.60916 0.7476 0.0
H4876 H 0.5713 0.59469 0.76228 0.0
H4877 H 0.6122 0.60944 0.75092 0.0
H4878 H 0.58351 0.60564 0.70715 0.0
H4879 H 0.56659 0.59445 0.68695 0.0
H4880 H 0.58668 0.58035 0.66139 0.0
H4881 H 0.60366 0.59132 0.6816 0.0
C4882 C 0.65608 0.64916 0.70481 0.0
C4883 C 0.66113 0.64547 0.69184 0.0
C4884 C 0.64465 0.64119 0.71117 0.0
C4885 C 0.63816 0.62925 0.70502 0.0
C4886 C 0.6431 0.62566 0.69175 0.0
C4887 C 0.65445 0.63371 0.68517 0.0
C4888 C 0.62636 0.62047 0.71263 0.0
C4889 C 0.61643 0.61386 0.70165 0.0
C4890 C 0.62481 0.61875 0.73064 0.0
C4891 C 0.63507 0.62456 0.74293 0.0
C4892 C 0.64521 0.62305 0.74117 0.0
C4893 C 0.65489 0.62863 0.75271 0.0
C4894 C 0.6545 0.63566 0.76616 0.0
C4895 C 0.64441 0.6371 0.76812 0.0
C4896 C 0.63471 0.63155 0.7566 0.0
C4897 C 0.5763 0.57479 0.73943 0.0
C4898 C 0.57057 0.57883 0.75085 0.0
C4899 C 0.58678 0.58308 0.73096 0.0
C4900 C 0.59179 0.59553 0.73394 0.0
C4901 C 0.58599 0.59959 0.74511 0.0
C4902 C 0.57542 0.59132 0.75338 0.0
C4903 C 0.60345 0.6043 0.72617 0.0
C4904 C 0.61335 0.61085 0.73715 0.0
C4905 C 0.605 0.60578 0.7082 0.0
C4906 C 0.59481 0.5992 0.69601 0.0
C4907 C 0.58428 0.60006 0.69732 0.0
C4908 C 0.57469 0.59378 0.68585 0.0
C4909 C 0.57555 0.58666 0.67292 0.0
C4910 C 0.58602 0.58585 0.67142 0.0
C4911 C 0.59564 0.59211 0.68287 0.0
H4912 H 0.56811 0.58181 0.66405 0.0
H4913 H 0.662 0.63997 0.77508 0.0
H4914 H 0.70435 0.7109 0.64719 0.0
H4915 H 0.69474 0.72215 0.63673 0.0
H4916 H 0.6598 0.69163 0.64721 0.0
H4917 H 0.66942 0.68009 0.65748 0.0
H4918 H 0.65974 0.70279 0.61714 0.0
H4919 H 0.67201 0.71486 0.67493 0.0
H4920 H 0.686 0.7215 0.69972 0.0
H4921 H 0.70971 0.75442 0.6734 0.0
H4922 H 0.69598 0.74788 0.6483 0.0
H4923 H 0.63524 0.74276 0.60656 0.0
H4924 H 0.64047 0.72862 0.62046 0.0
H4925 H 0.67796 0.75262 0.60978 0.0
H4926 H 0.67286 0.76655 0.59532 0.0
H4927 H 0.67384 0.74316 0.64329 0.0
H4928 H 0.66255 0.72944 0.58439 0.0
H4929 H 0.64869 0.72247 0.55944 0.0
H4930 H 0.62266 0.69237 0.58879 0.0
H4931 H 0.63632 0.69927 0.614 0.0
C4932 C 0.69461 0.7065 0.6472 0.0
C4933 C 0.68766 0.69463 0.65337 0.0
C4934 C 0.68913 0.71298 0.64125 0.0
C4935 C 0.67657 0.70784 0.64158 0.0
C4936 C 0.66952 0.6958 0.64698 0.0
C4937 C 0.67503 0.68922 0.65283 0.0
C4938 C 0.671 0.71531 0.63671 0.0
C4939 C 0.66262 0.7115 0.62311 0.0
C4940 C 0.67482 0.72672 0.64443 0.0
C4941 C 0.68298 0.73084 0.65967 0.0
C4942 C 0.68023 0.72349 0.67438 0.0
C4943 C 0.68812 0.72723 0.68849 0.0
C4944 C 0.69874 0.73837 0.68813 0.0
C4945 C 0.70148 0.7458 0.67367 0.0
C4946 C 0.69364 0.74208 0.6595 0.0
C4947 C 0.6446 0.74504 0.60711 0.0
C4948 C 0.65361 0.75584 0.59974 0.0
C4949 C 0.64756 0.73696 0.61515 0.0
C4950 C 0.65959 0.73956 0.61607 0.0
C4951 C 0.66863 0.75048 0.60929 0.0
C4952 C 0.66568 0.75849 0.60111 0.0
C4953 C 0.66285 0.73077 0.62346 0.0
C4954 C 0.67079 0.73434 0.63757 0.0
C4955 C 0.65856 0.71913 0.6163 0.0
C4956 C 0.65038 0.71496 0.60114 0.0
C4957 C 0.65382 0.7214 0.58557 0.0
C4958 C 0.64602 0.71745 0.57137 0.0
C4959 C 0.63478 0.707 0.57255 0.0
C4960 C 0.63135 0.70047 0.58791 0.0
C4961 C 0.63912 0.7044 0.60215 0.0
H4962 H 0.62875 0.70396 0.56154 0.0
H4963 H 0.70484 0.74124 0.69905 0.0
H4964 H 0.30106 0.99461 0.67665 0.0
H4965 H 0.28664 0.9746 0.66569 0.0
H4966 H 0.3125 0.97723 0.62823 0.0
H4967 H 0.32679 0.99748 0.63873 0.0
H4968 H 0.29194 0.96895 0.61328 0.0
H4969 H 0.30492 0.9585 0.66524 0.0
H4970 H 0.3093 0.95903 0.69626 0.0
H4971 H 0.27208 0.94618 0.70751 0.0
H4972 H 0.26751 0.94573 0.67655 0.0
H4973 H 0.26129 0.90737 0.5887 0.0
H4974 H 0.27608 0.92622 0.60242 0.0
H4975 H 0.24785 0.92705 0.63124 0.0
H4976 H 0.23293 0.90807 0.61755 0.0
H4977 H 0.26948 0.93315 0.65077 0.0
H4978 H 0.25711 0.94387 0.59773 0.0
H4979 H 0.25334 0.94269 0.56646 0.0
H4980 H 0.2906 0.95443 0.55719 0.0
H4981 H 0.29455 0.9555 0.58843 0.0
C4982 C 0.30371 0.99089 0.66617 0.0
C4983 C 0.31507 0.99762 0.65857 0.0
C4984 C 0.29547 0.9794 0.65996 0.0
C4985 C 0.29851 0.97428 0.64626 0.0
C4986 C 0.30992 0.98095 0.6388 0.0
C4987 C 0.31811 0.99252 0.64485 0.0
C4988 C 0.28961 0.9622 0.63926 0.0
C4989 C 0.28719 0.9611 0.6215 0.0
C4990 C 0.28318 0.95195 0.64994 0.0
C4991 C 0.2859 0.9522 0.66858 0.0
C4992 C 0.29769 0.95588 0.67433 0.0
C4993 C 0.3002 0.95614 0.69191 0.0
C4994 C 0.29098 0.95267 0.70385 0.0
C4995 C 0.27922 0.94888 0.69824 0.0
C4996 C 0.27666 0.94861 0.68068 0.0
C4997 C 0.25824 0.91144 0.59818 0.0
C4998 C 0.24594 0.90622 0.60208 0.0
C4999 C 0.26669 0.92225 0.60591 0.0
C5000 C 0.26304 0.92806 0.61774 0.0
C5001 C 0.25083 0.9227 0.62212 0.0
C5002 C 0.24233 0.91191 0.61425 0.0
C5003 C 0.27192 0.93999 0.62493 0.0
C5004 C 0.2743 0.94104 0.64265 0.0
C5005 C 0.27844 0.95015 0.61421 0.0
C5006 C 0.2761 0.94965 0.59542 0.0
C5007 C 0.26448 0.94611 0.58902 0.0
C5008 C 0.26231 0.94547 0.5713 0.0
C5009 C 0.27172 0.94845 0.55984 0.0
C5010 C 0.28332 0.95211 0.56608 0.0
C5011 C 0.28553 0.95274 0.58379 0.0
H5012 H 0.27002 0.94795 0.54613 0.0
H5013 H 0.29295 0.95288 0.71745 0.0
H5014 H 0.00647 0.29561 0.65323 0.0
H5015 H 0.02685 0.30423 0.64246 0.0
H5016 H 0.03294 0.34013 0.65265 0.0
H5017 H 0.01225 0.33152 0.6632 0.0
H5018 H 0.04292 0.33944 0.62262 0.0
H5019 H 0.0441 0.32706 0.6799 0.0
H5020 H 0.03736 0.31327 0.70479 0.0
H5021 H 0.04438 0.28821 0.67738 0.0
H5022 H 0.05095 0.30175 0.6522 0.0
H5023 H 0.10617 0.36151 0.61013 0.0
H5024 H 0.0875 0.35694 0.62469 0.0
H5025 H 0.07266 0.31919 0.61256 0.0
H5026 H 0.09098 0.32365 0.5974 0.0
H5027 H 0.06855 0.32357 0.64679 0.0
H5028 H 0.06503 0.33542 0.5885 0.0
H5029 H 0.07158 0.3494 0.56381 0.0
H5030 H 0.0694 0.37624 0.59442 0.0
H5031 H 0.063 0.36246 0.61938 0.0
C5032 C 0.01208 0.30535 0.65317 0.0
C5033 C 0.00774 0.31287 0.65927 0.0
C5034 C 0.02378 0.31027 0.64704 0.0
C5035 C 0.03154 0.32282 0.64714 0.0
C5036 C 0.02714 0.33042 0.6526 0.0
C5037 C 0.01532 0.32548 0.65861 0.0
C5038 C 0.04425 0.32781 0.64171 0.0
C5039 C 0.04861 0.33616 0.62815 0.0
C5040 C 0.05168 0.32349 0.64886 0.0
C5041 C 0.04795 0.3154 0.66411 0.0
C5042 C 0.04414 0.31858 0.67914 0.0
C5043 C 0.04035 0.31081 0.6933 0.0
C5044 C 0.04042 0.29987 0.69266 0.0
C5045 C 0.04432 0.29669 0.67786 0.0
C5046 C 0.04809 0.30442 0.66364 0.0
C5047 C 0.09893 0.35223 0.61049 0.0
C5048 C 0.10014 0.34297 0.60248 0.0
C5049 C 0.08829 0.34964 0.61891 0.0
C5050 C 0.07869 0.33774 0.61961 0.0
C5051 C 0.08 0.32843 0.61223 0.0
C5052 C 0.09055 0.33101 0.60365 0.0
C5053 C 0.06705 0.33493 0.62745 0.0
C5054 C 0.06291 0.32699 0.64148 0.0
C5055 C 0.0599 0.33973 0.62086 0.0
C5056 C 0.06369 0.34797 0.60585 0.0
C5057 C 0.06606 0.34434 0.59001 0.0
C5058 C 0.06972 0.35222 0.57596 0.0
C5059 C 0.07095 0.36371 0.57756 0.0
C5060 C 0.06847 0.36734 0.59321 0.0
C5061 C 0.06483 0.3595 0.60731 0.0
H5062 H 0.07378 0.3698 0.56667 0.0
H5063 H 0.03747 0.29386 0.70363 0.0
H5064 H 0.30776 0.322 0.68473 0.0
H5065 H 0.29211 0.32688 0.67619 0.0
H5066 H 0.30239 0.32869 0.62314 0.0
H5067 H 0.31829 0.32435 0.63166 0.0
H5068 H 0.29736 0.34556 0.62835 0.0
H5069 H 0.27761 0.30295 0.64217 0.0
H5070 H 0.27205 0.28523 0.66075 0.0
H5071 H 0.25629 0.29864 0.69693 0.0
H5072 H 0.2619 0.31653 0.67864 0.0
H5073 H 0.24383 0.32568 0.5799 0.0
H5074 H 0.26109 0.32712 0.59592 0.0
H5075 H 0.24945 0.3375 0.64143 0.0
H5076 H 0.23218 0.33632 0.6252 0.0
H5077 H 0.2551 0.31722 0.64455 0.0
H5078 H 0.27233 0.35837 0.62607 0.0
H5079 H 0.27712 0.37468 0.60508 0.0
H5080 H 0.29701 0.3624 0.57504 0.0
H5081 H 0.29218 0.34589 0.59571 0.0
C5082 C 0.30674 0.32356 0.67127 0.0
C5083 C 0.31421 0.32273 0.65886 0.0
C5084 C 0.29775 0.32629 0.66639 0.0
C5085 C 0.2959 0.32796 0.64896 0.0
C5086 C 0.30361 0.32746 0.63666 0.0
C5087 C 0.31269 0.32494 0.64155 0.0
C5088 C 0.28573 0.32979 0.64326 0.0
C5089 C 0.28813 0.33933 0.6319 0.0
C5090 C 0.27367 0.32187 0.64816 0.0
C5091 C 0.27032 0.31114 0.65916 0.0
C5092 C 0.27305 0.30216 0.65416 0.0
C5093 C 0.26987 0.29208 0.66462 0.0
C5094 C 0.26386 0.29083 0.68005 0.0
C5095 C 0.26098 0.29964 0.68501 0.0
C5096 C 0.26415 0.30975 0.6746 0.0
C5097 C 0.24499 0.32832 0.59331 0.0
C5098 C 0.2367 0.33085 0.60138 0.0
C5099 C 0.25485 0.32918 0.60241 0.0
C5100 C 0.25654 0.33245 0.61982 0.0
C5101 C 0.24828 0.33499 0.62798 0.0
C5102 C 0.23849 0.33436 0.61874 0.0
C5103 C 0.26678 0.33274 0.62937 0.0
C5104 C 0.26438 0.32359 0.64138 0.0
C5105 C 0.27881 0.34086 0.62481 0.0
C5106 C 0.28182 0.35084 0.6124 0.0
C5107 C 0.27764 0.35908 0.61492 0.0
C5108 C 0.28038 0.36838 0.60309 0.0
C5109 C 0.28735 0.36956 0.58872 0.0
C5110 C 0.29161 0.36147 0.58618 0.0
C5111 C 0.28889 0.35215 0.59796 0.0
H5112 H 0.28946 0.37676 0.57958 0.0
H5113 H 0.2614 0.28301 0.68813 0.0
H5114 H 0.70466 0.99194 0.68087 0.0
H5115 H 0.69832 0.97232 0.66788 0.0
H5116 H 0.67251 0.97622 0.63616 0.0
H5117 H 0.6786 0.99586 0.64955 0.0
H5118 H 0.66318 0.95341 0.64698 0.0
H5119 H 0.6997 0.98184 0.61996 0.0
H5120 H 0.72081 0.9982 0.61847 0.0
H5121 H 0.73238 0.97575 0.64443 0.0
H5122 H 0.71131 0.95931 0.6463 0.0
H5123 H 0.65915 0.91026 0.58387 0.0
H5124 H 0.66166 0.92795 0.59956 0.0
H5125 H 0.68504 0.9239 0.63613 0.0
H5126 H 0.68232 0.90597 0.62082 0.0
H5127 H 0.69508 0.94682 0.62201 0.0
H5128 H 0.65774 0.91809 0.64815 0.0
H5129 H 0.63647 0.902 0.64826 0.0
H5130 H 0.6263 0.92535 0.62173 0.0
H5131 H 0.64754 0.94153 0.62124 0.0
C5132 C 0.6976 0.98865 0.67117 0.0
C5133 C 0.69225 0.99557 0.66609 0.0
C5134 C 0.694 0.97742 0.66371 0.0
C5135 C 0.68513 0.9729 0.65076 0.0
C5136 C 0.67943 0.97955 0.64607 0.0
C5137 C 0.68294 0.99079 0.6537 0.0
C5138 C 0.68214 0.96142 0.64184 0.0
C5139 C 0.67013 0.95202 0.64131 0.0
C5140 C 0.69121 0.95954 0.63459 0.0
C5141 C 0.70391 0.96938 0.6334 0.0
C5142 C 0.70674 0.98042 0.62546 0.0
C5143 C 0.71869 0.9897 0.62453 0.0
C5144 C 0.72793 0.98802 0.63139 0.0
C5145 C 0.72522 0.97704 0.63914 0.0
C5146 C 0.71327 0.96774 0.64013 0.0
C5147 C 0.66456 0.9129 0.59552 0.0
C5148 C 0.67057 0.90667 0.60103 0.0
C5149 C 0.66603 0.92307 0.60443 0.0
C5150 C 0.67354 0.92724 0.619 0.0
C5151 C 0.67925 0.92085 0.62486 0.0
C5152 C 0.67772 0.91064 0.61604 0.0
C5153 C 0.67617 0.93875 0.6274 0.0
C5154 C 0.68813 0.9482 0.62771 0.0
C5155 C 0.66702 0.9407 0.6342 0.0
C5156 C 0.65425 0.93098 0.6345 0.0
C5157 C 0.65098 0.91976 0.6422 0.0
C5158 C 0.63893 0.91063 0.64236 0.0
C5159 C 0.63005 0.91264 0.63496 0.0
C5160 C 0.6332 0.9238 0.62743 0.0
C5161 C 0.64524 0.93296 0.62722 0.0
H5162 H 0.62072 0.90556 0.6351 0.0
H5163 H 0.73718 0.99522 0.63065 0.0
H5164 H 0.01405 0.70633 0.68646 0.0
H5165 H 0.03398 0.72199 0.67701 0.0
H5166 H 0.02753 0.70482 0.62741 0.0
H5167 H 0.00764 0.68919 0.63668 0.0
H5168 H 0.05402 0.72145 0.66473 0.0
H5169 H 0.03844 0.72687 0.59696 0.0
H5170 H 0.01993 0.72392 0.58236 0.0
H5171 H 0.00711 0.73014 0.62991 0.0
H5172 H 0.02561 0.73329 0.64473 0.0
H5173 H 0.10134 0.75053 0.60459 0.0
H5174 H 0.08293 0.73715 0.61983 0.0
H5175 H 0.07573 0.76658 0.62681 0.0
H5176 H 0.09446 0.78027 0.61208 0.0
H5177 H 0.05613 0.7458 0.61347 0.0
H5178 H 0.08387 0.75677 0.66062 0.0
H5179 H 0.10227 0.7599 0.67572 0.0
H5180 H 0.09083 0.72213 0.67083 0.0
H5181 H 0.07243 0.7188 0.65547 0.0
C5182 C 0.01693 0.70583 0.67359 0.0
C5183 C 0.00924 0.69656 0.66228 0.0
C5184 C 0.02832 0.71477 0.66824 0.0
C5185 C 0.03216 0.71465 0.65144 0.0
C5186 C 0.02467 0.70517 0.64035 0.0
C5187 C 0.01332 0.69622 0.6457 0.0
C5188 C 0.0438 0.72465 0.64526 0.0
C5189 C 0.0545 0.72679 0.65355 0.0
C5190 C 0.04439 0.73176 0.63085 0.0
C5191 C 0.03337 0.73021 0.62197 0.0
C5192 C 0.0317 0.72768 0.60427 0.0
C5193 C 0.0212 0.72596 0.59596 0.0
C5194 C 0.01233 0.72681 0.60521 0.0
C5195 C 0.01397 0.72944 0.62277 0.0
C5196 C 0.02445 0.73118 0.63113 0.0
C5197 C 0.09607 0.75431 0.60973 0.0
C5198 C 0.0995 0.76657 0.60713 0.0
C5199 C 0.08547 0.74658 0.61836 0.0
C5200 C 0.07799 0.75088 0.62451 0.0
C5201 C 0.08138 0.76309 0.62212 0.0
C5202 C 0.09207 0.77088 0.61363 0.0
C5203 C 0.06638 0.74242 0.63269 0.0
C5204 C 0.05567 0.74053 0.62473 0.0
C5205 C 0.06579 0.73561 0.64746 0.0
C5206 C 0.07681 0.73756 0.65677 0.0
C5207 C 0.08532 0.74915 0.66264 0.0
C5208 C 0.09574 0.75095 0.67127 0.0
C5209 C 0.09773 0.74122 0.6742 0.0
C5210 C 0.08928 0.72966 0.66854 0.0
C5211 C 0.07885 0.72781 0.65989 0.0
H5212 H 0.1058 0.74264 0.68088 0.0
H5213 H 0.0042 0.72545 0.59876 0.0
H5214 H 0.99631 0.65594 0.69147 0.0
H5215 H 0.00284 0.64268 0.70543 0.0
H5216 H 0.96578 0.61628 0.71498 0.0
H5217 H 0.95922 0.62926 0.701 0.0
H5218 H 0.98141 0.62126 0.7438 0.0
H5219 H 0.9789 0.61206 0.68257 0.0
H5220 H 0.98463 0.61744 0.6523 0.0
H5221 H 0.02152 0.62903 0.66528 0.0
H5222 H 0.01602 0.62388 0.69572 0.0
H5223 H 0.971 0.56334 0.75708 0.0
H5224 H 0.97203 0.58134 0.74445 0.0
H5225 H 0.01037 0.597 0.73823 0.0
H5226 H 0.00938 0.57867 0.75052 0.0
H5227 H 0.99914 0.60104 0.70988 0.0
H5228 H 1.00109 0.60684 0.77019 0.0
H5229 H 0.99545 0.60138 0.80046 0.0
H5230 H 0.96037 0.5968 0.78988 0.0
H5231 H 0.96572 0.60204 0.75947 0.0
C5232 C 0.98959 0.64733 0.69663 0.0
C5233 C 0.97725 0.64362 0.69506 0.0
C5234 C 0.99332 0.63977 0.70455 0.0
C5235 C 0.98477 0.62851 0.7112 0.0
C5236 C 0.97251 0.62495 0.70995 0.0
C5237 C 0.96878 0.63236 0.70187 0.0
C5238 C 0.98835 0.62015 0.71921 0.0
C5239 C 0.98531 0.61685 0.73642 0.0
C5240 C 0.99381 0.61471 0.70971 0.0
C5241 C 0.99708 0.61775 0.69144 0.0
C5242 C 0.98825 0.61587 0.679 0.0
C5243 C 0.99145 0.61885 0.66181 0.0
C5244 C 0.00344 0.62361 0.65688 0.0
C5245 C 0.01224 0.62537 0.66913 0.0
C5246 C 0.00909 0.62242 0.68635 0.0
C5247 C 0.97964 0.57046 0.75271 0.0
C5248 C 0.99011 0.56952 0.75477 0.0
C5249 C 0.98023 0.58083 0.74568 0.0
C5250 C 0.99131 0.59059 0.74068 0.0
C5251 C 0.00175 0.58959 0.74213 0.0
C5252 C 1.00117 0.57915 0.74923 0.0
C5253 C 0.99176 0.60182 0.73431 0.0
C5254 C 0.99554 0.60566 0.71743 0.0
C5255 C 0.98706 0.60784 0.74416 0.0
C5256 C 0.9838 0.60479 0.7625 0.0
C5257 C 0.99215 0.60459 0.77428 0.0
C5258 C 0.989 0.60154 0.79147 0.0
C5259 C 0.97756 0.59873 0.79708 0.0
C5260 C 0.96924 0.59899 0.78551 0.0
C5261 C 0.97233 0.60202 0.7683 0.0
H5262 H 0.97514 0.59637 0.8104 0.0
H5263 H 0.00589 0.62591 0.64356 0.0
H5264 H 0.35444 0.34528 0.7012 0.0
H5265 H 0.36781 0.36509 0.71398 0.0
H5266 H 0.39713 0.36823 0.68322 0.0
H5267 H 0.38397 0.34839 0.67081 0.0
H5268 H 0.40428 0.3735 0.71483 0.0
H5269 H 0.38263 0.3852 0.67543 0.0
H5270 H 0.36463 0.38433 0.662 0.0
H5271 H 0.35466 0.39256 0.71052 0.0
H5272 H 0.37252 0.39332 0.7243 0.0
H5273 H 0.44693 0.43386 0.73293 0.0
H5274 H 0.43183 0.41655 0.71654 0.0
H5275 H 0.40466 0.4119 0.75294 0.0
H5276 H 0.41972 0.42905 0.76959 0.0
H5277 H 0.39613 0.40774 0.71868 0.0
H5278 H 0.41754 0.39547 0.75791 0.0
H5279 H 0.43568 0.39655 0.77115 0.0
H5280 H 0.4461 0.38941 0.72221 0.0
H5281 H 0.4281 0.38848 0.70862 0.0
C5282 C 0.3637 0.35026 0.69704 0.0
C5283 C 0.36815 0.3452 0.68508 0.0
C5284 C 0.37133 0.36161 0.7043 0.0
C5285 C 0.38349 0.36821 0.69951 0.0
C5286 C 0.38782 0.3633 0.6872 0.0
C5287 C 0.38026 0.35194 0.68011 0.0
C5288 C 0.39195 0.37986 0.70797 0.0
C5289 C 0.40255 0.38104 0.71539 0.0
C5290 C 0.38958 0.38961 0.70919 0.0
C5291 C 0.37885 0.3892 0.70093 0.0
C5292 C 0.37655 0.38673 0.68327 0.0
C5293 C 0.36638 0.38627 0.67559 0.0
C5294 C 0.35849 0.38835 0.68541 0.0
C5295 C 0.36077 0.39093 0.70293 0.0
C5296 C 0.37092 0.39139 0.71068 0.0
C5297 C 0.43773 0.42921 0.7374 0.0
C5298 C 0.43458 0.43278 0.75269 0.0
C5299 C 0.4291 0.41936 0.72797 0.0
C5300 C 0.41717 0.41286 0.73366 0.0
C5301 C 0.41382 0.41681 0.74832 0.0
C5302 C 0.42245 0.42665 0.7578 0.0
C5303 C 0.40847 0.40136 0.72517 0.0
C5304 C 0.39783 0.4002 0.71794 0.0
C5305 C 0.41078 0.39159 0.72404 0.0
C5306 C 0.42154 0.39202 0.73222 0.0
C5307 C 0.42375 0.39422 0.74995 0.0
C5308 C 0.434 0.39479 0.75752 0.0
C5309 C 0.44205 0.39308 0.74752 0.0
C5310 C 0.43986 0.39075 0.72994 0.0
C5311 C 0.42963 0.3902 0.72229 0.0
H5312 H 0.44999 0.39353 0.75341 0.0
H5313 H 0.35062 0.38799 0.67945 0.0
H5314 H 0.65897 0.00499 0.71376 0.0
H5315 H 0.63837 0.99926 0.72188 0.0
H5316 H 0.63671 0.0216 0.68126 0.0
H5317 H 0.65728 0.02723 0.67284 0.0
H5318 H 0.62966 0.02548 0.71469 0.0
H5319 H 0.62102 0.99311 0.67556 0.0
H5320 H 0.62318 0.97634 0.6637 0.0
H5321 H 0.61179 0.95732 0.71164 0.0
H5322 H 0.60973 0.97406 0.72388 0.0
H5323 H 0.56847 0.00707 0.73264 0.0
H5324 H 0.58689 0.01169 0.71719 0.0
H5325 H 0.58978 0.98428 0.74646 0.0
H5326 H 0.57126 0.97942 0.76144 0.0
H5327 H 0.59574 0.98332 0.71537 0.0
H5328 H 0.60654 0.01557 0.7559 0.0
H5329 H 0.6053 0.03233 0.76971 0.0
H5330 H 0.61361 0.05154 0.72177 0.0
H5331 H 0.61474 0.0348 0.70762 0.0
C5332 C 0.65418 0.00859 0.70643 0.0
C5333 C 0.65974 0.01655 0.69265 0.0
C5334 C 0.64241 0.00529 0.71107 0.0
C5335 C 0.63602 0.00999 0.70214 0.0
C5336 C 0.64149 0.01787 0.68828 0.0
C5337 C 0.65322 0.02102 0.68345 0.0
C5338 C 0.62381 0.00702 0.70781 0.0
C5339 C 0.62215 0.0163 0.71454 0.0
C5340 C 0.61416 0.995 0.70803 0.0
C5341 C 0.61532 0.98489 0.70068 0.0
C5342 C 0.61907 0.98539 0.68362 0.0
C5343 C 0.62026 0.97588 0.67682 0.0
C5344 C 0.61765 0.96578 0.68692 0.0
C5345 C 0.61382 0.96515 0.70383 0.0
C5346 C 0.61263 0.97464 0.7107 0.0
C5347 C 0.57302 0.002 0.73565 0.0
C5348 C 0.56841 0.99287 0.74821 0.0
C5349 C 0.58357 0.00467 0.72688 0.0
C5350 C 0.58987 0.99846 0.73081 0.0
C5351 C 0.5851 0.98917 0.74311 0.0
C5352 C 0.57449 0.98639 0.75167 0.0
C5353 C 0.60157 0.00176 0.72256 0.0
C5354 C 0.60317 0.99254 0.71535 0.0
C5355 C 0.61125 0.01381 0.72219 0.0
C5356 C 0.61058 0.02388 0.73066 0.0
C5357 C 0.60801 0.02333 0.74828 0.0
C5358 C 0.60734 0.03283 0.75617 0.0
C5359 C 0.60934 0.04298 0.74661 0.0
C5360 C 0.61204 0.04366 0.72915 0.0
C5361 C 0.6127 0.03417 0.72119 0.0
H5362 H 0.60882 0.05032 0.75275 0.0
H5363 H 0.61857 0.95843 0.68163 0.0
loop_
_geom_bond_atom_site_label_1
_geom_bond_atom_site_label_2
_geom_bond_distance
_geom_bond_site_symmetry_2
_ccdc_geom_bond_type
Mn0 O5 2.095 1_655 S
Mn0 O15 2.162 . S
Mn0 O16 2.297 1_554 S
Mn0 O24 2.385 1_554 S
Mn0 O25 2.209 1_654 S
Mn0 O26 2.094 . S
Mn1 O6 2.121 . S
Mn1 N8 2.257 1_554 S
Mn1 N17 2.282 . S
Mn1 O25 2.215 1_554 S
Mn1 O27 2.117 . S
C2 O24 1.234 1_455 S
C2 O25 1.283 . S
C3 O15 1.281 1_556 S
C3 O16 1.236 . S
C4 O26 1.233 1_455 S
C4 O27 1.281 . S
O5 Mn0 2.095 1_455 S
O5 C14 1.250 . S
O6 Mn1 2.121 . S
O6 C14 1.258 . S
C7 N8 1.326 . S
C7 C11 1.460 . S
C7 H13 0.929 . S
N8 Mn1 2.257 1_556 S
N8 C7 1.326 . S
N8 C12 1.362 . S
C9 C10 1.258 . S
C9 C12 1.431 . S
C9 C29 1.449 . S
C10 C9 1.258 . S
C10 C11 1.477 . S
C10 H30 0.931 . S
C11 C7 1.460 . S
C11 C10 1.477 . S
C11 H31 0.930 . S
C12 N8 1.362 . S
C12 C9 1.431 . S
C12 C22 1.476 . S
H13 C7 0.929 . S
C14 O5 1.250 . S
C14 O6 1.258 . S
O15 Mn0 2.162 . S
O15 C3 1.281 1_554 S
O16 Mn0 2.297 1_556 S
O16 C3 1.236 . S
N17 Mn1 2.282 . S
N17 C18 1.328 . S
N17 C22 1.318 1_554 S
C18 N17 1.328 . S
C18 C19 1.447 1_554 S
C18 H23 0.929 . S
C19 C18 1.447 1_556 S
C19 C20 1.306 . S
C19 H32 0.925 1_556 S
C20 C19 1.306 . S
C20 C21 1.373 . S
C20 H33 0.929 . S
C21 C20 1.373 . S
C21 C22 1.396 . S
C21 C28 1.403 . S
C22 C12 1.476 . S
C22 N17 1.318 1_556 S
C22 C21 1.396 . S
H23 C18 0.929 . S
O24 Mn0 2.385 1_556 S
O24 C2 1.234 1_655 S
O25 Mn0 2.209 1_456 S
O25 Mn1 2.215 1_556 S
O25 C2 1.283 . S
O26 Mn0 2.094 . S
O26 C4 1.233 1_655 S
O27 Mn1 2.117 . S
O27 C4 1.281 . S
C28 C21 1.403 . S
C28 C29 1.399 . S
C28 H34 0.929 . S
C29 C9 1.449 . S
C29 C28 1.399 . S
C29 H35 0.930 . S
H30 C10 0.931 . S
H31 C11 0.930 . S
H32 C19 0.925 1_554 S
H33 C20 0.929 . S
H34 C28 0.929 . S
H35 C29 0.930 . S
Mn36 O41 2.095 1_554 S
Mn36 O51 2.162 . S
Mn36 O52 2.297 . S
Mn36 O60 2.385 . S
Mn36 O61 2.209 . S
Mn36 O62 2.094 1_554 S
Mn37 O42 2.114 1_554 S
Mn37 N44 2.257 . S
Mn37 N53 2.282 . S
Mn37 O61 2.215 . S
Mn37 O63 2.117 1_554 S
C38 O60 1.234 . S
C38 O61 1.283 . S
C39 O51 1.281 . S
C39 O52 1.236 . S
C40 O62 1.240 . S
C40 O63 1.264 . S
O41 Mn36 2.095 1_556 S
O41 C50 1.250 . S
O42 Mn37 2.114 1_556 S
O42 C50 1.275 . S
C43 N44 1.326 . S
C43 C47 1.460 . S
C43 H49 0.929 . S
N44 Mn37 2.257 . S
N44 C43 1.326 . S
N44 C48 1.362 . S
C45 C46 1.258 . S
C45 C48 1.431 . S
C45 C65 1.449 . S
C46 C45 1.258 . S
C46 C47 1.477 . S
C46 H66 0.931 . S
C47 C43 1.460 . S
C47 C46 1.477 . S
C47 H67 0.930 . S
C48 N44 1.362 . S
C48 C45 1.431 . S
C48 C58 1.476 . S
H49 C43 0.929 . S
C50 O41 1.250 . S
C50 O42 1.275 . S
O51 Mn36 2.162 . S
O51 C39 1.281 . S
O52 Mn36 2.297 . S
O52 C39 1.236 . S
N53 Mn37 2.282 . S
N53 C54 1.328 . S
N53 C58 1.318 . S
C54 N53 1.328 . S
C54 C55 1.457 . S
C54 H59 0.929 . S
C55 C54 1.457 . S
C55 C56 1.291 . S
C55 H68 0.931 . S
C56 C55 1.291 . S
C56 C57 1.373 . S
C56 H69 0.929 . S
C57 C56 1.373 . S
C57 C58 1.396 . S
C57 C64 1.403 . S
C58 C48 1.476 . S
C58 N53 1.318 . S
C58 C57 1.396 . S
H59 C54 0.929 . S
O60 Mn36 2.385 . S
O60 C38 1.234 . S
O61 Mn36 2.209 . S
O61 Mn37 2.215 . S
O61 C38 1.283 . S
O62 Mn36 2.094 1_556 S
O62 C40 1.240 . S
O63 Mn37 2.117 1_556 S
O63 C40 1.264 . S
C64 C57 1.403 . S
C64 C65 1.399 . S
C64 H70 0.929 . S
C65 C45 1.449 . S
C65 C64 1.399 . S
C65 H71 0.930 . S
H66 C46 0.931 . S
H67 C47 0.930 . S
H68 C55 0.931 . S
H69 C56 0.929 . S
H70 C64 0.929 . S
H71 C65 0.930 . S
Mn72 O77 2.095 1_564 S
Mn72 O87 2.162 . S
Mn72 O88 2.297 . S
Mn72 O96 2.385 . S
Mn72 O97 2.209 1_565 S
Mn72 O98 2.094 1_554 S
Mn73 O78 2.121 . S
Mn73 N80 2.257 . S
Mn73 N89 2.282 . S
Mn73 O97 2.215 . S
Mn73 O99 2.117 1_554 S
C74 O96 1.211 1_545 S
C74 O97 1.307 . S
C75 O87 1.281 . S
C75 O88 1.236 . S
C76 O98 1.242 . S
C76 O99 1.260 1_565 S
O77 Mn72 2.095 1_546 S
O77 C86 1.250 . S
O78 Mn73 2.121 . S
O78 C86 1.258 1_554 S
C79 N80 1.326 . S
C79 C83 1.460 . S
C79 H85 0.929 . S
N80 Mn73 2.257 . S
N80 C79 1.326 . S
N80 C84 1.362 . S
C81 C82 1.258 . S
C81 C84 1.431 . S
C81 C101 1.449 . S
C82 C81 1.258 . S
C82 C83 1.477 . S
C82 H102 0.931 . S
C83 C79 1.460 . S
C83 C82 1.477 . S
C83 H103 0.930 . S
C84 N80 1.362 . S
C84 C81 1.431 . S
C84 C94 1.476 . S
H85 C79 0.929 . S
C86 O77 1.250 . S
C86 O78 1.258 1_556 S
O87 Mn72 2.162 . S
O87 C75 1.281 . S
O88 Mn72 2.297 . S
O88 C75 1.236 . S
N89 Mn73 2.282 . S
N89 C90 1.328 . S
N89 C94 1.318 . S
C90 N89 1.328 . S
C90 C91 1.457 . S
C90 H95 0.929 . S
C91 C90 1.457 . S
C91 C92 1.291 . S
C91 H104 0.931 . S
C92 C91 1.291 . S
C92 C93 1.373 . S
C92 H105 0.929 . S
C93 C92 1.373 . S
C93 C94 1.396 . S
C93 C100 1.403 . S
C94 C84 1.476 . S
C94 N89 1.318 . S
C94 C93 1.396 . S
H95 C90 0.929 . S
O96 Mn72 2.385 . S
O96 C74 1.211 1_565 S
O97 Mn72 2.209 1_545 S
O97 Mn73 2.215 . S
O97 C74 1.307 . S
O98 Mn72 2.094 1_556 S
O98 C76 1.242 . S
O99 Mn73 2.117 1_556 S
O99 C76 1.260 1_545 S
C100 C93 1.403 . S
C100 C101 1.399 . S
C100 H106 0.929 . S
C101 C81 1.449 . S
C101 C100 1.399 . S
C101 H107 0.930 . S
H102 C82 0.931 . S
H103 C83 0.930 . S
H104 C91 0.931 . S
H105 C92 0.929 . S
H106 C100 0.929 . S
H107 C101 0.930 . S
Mn108 O113 2.095 1_655 S
Mn108 O123 2.162 . S
Mn108 O124 2.297 1_554 S
Mn108 O132 2.385 1_554 S
Mn108 O133 2.209 1_654 S
Mn108 O134 2.094 . S
Mn109 O114 2.121 . S
Mn109 N116 2.257 1_554 S
Mn109 N125 2.282 . S
Mn109 O133 2.215 1_554 S
Mn109 O135 2.117 . S
C110 O132 1.184 1_455 S
C110 O133 1.305 . S
C111 O123 1.231 1_556 S
C111 O124 1.262 . S
C112 O134 1.231 1_455 S
C112 O135 1.273 . S
O113 Mn108 2.095 1_455 S
O113 C122 1.250 . S
O114 Mn109 2.121 . S
O114 C122 1.258 . S
C115 N116 1.326 . S
C115 C119 1.460 . S
C115 H121 0.929 . S
N116 Mn109 2.257 1_556 S
N116 C115 1.326 . S
N116 C120 1.362 . S
C117 C118 1.258 . S
C117 C120 1.431 . S
C117 C137 1.449 . S
C118 C117 1.258 . S
C118 C119 1.477 . S
C118 H138 0.931 . S
C119 C115 1.460 . S
C119 C118 1.477 . S
C119 H139 0.930 . S
C120 N116 1.362 . S
C120 C117 1.431 . S
C120 C130 1.476 . S
H121 C115 0.929 . S
C122 O113 1.250 . S
C122 O114 1.258 . S
O123 Mn108 2.162 . S
O123 C111 1.231 1_554 S
O124 Mn108 2.297 1_556 S
O124 C111 1.262 . S
N125 Mn109 2.282 . S
N125 C126 1.328 . S
N125 C130 1.318 1_554 S
C126 N125 1.328 . S
C126 C127 1.454 . S
C126 H131 0.929 . S
C127 C126 1.454 . S
C127 C128 1.295 1_554 S
C127 H140 0.929 . S
C128 C127 1.295 1_556 S
C128 C129 1.373 . S
C128 H141 0.929 . S
C129 C128 1.373 . S
C129 C130 1.396 . S
C129 C136 1.403 . S
C130 C120 1.476 . S
C130 N125 1.318 1_556 S
C130 C129 1.396 . S
H131 C126 0.929 . S
O132 Mn108 2.385 1_556 S
O132 C110 1.184 1_655 S
O133 Mn108 2.209 1_456 S
O133 Mn109 2.215 1_556 S
O133 C110 1.305 . S
O134 Mn108 2.094 . S
O134 C112 1.231 1_655 S
O135 Mn109 2.117 . S
O135 C112 1.273 . S
C136 C129 1.403 . S
C136 C137 1.399 . S
C136 H142 0.929 . S
C137 C117 1.449 . S
C137 C136 1.399 . S
C137 H143 0.930 . S
H138 C118 0.931 . S
H139 C119 0.930 . S
H140 C127 0.929 . S
H141 C128 0.929 . S
H142 C136 0.929 . S
H143 C137 0.930 . S
Mn144 O149 2.095 1_554 S
Mn144 O159 2.162 . S
Mn144 O160 2.297 . S
Mn144 O168 2.385 . S
Mn144 O169 2.209 . S
Mn144 O170 2.094 1_554 S
Mn145 O150 2.121 . S
Mn145 N152 2.257 . S
Mn145 N161 2.282 . S
Mn145 O169 2.215 . S
Mn145 O171 2.117 1_554 S
C146 O168 1.234 . S
C146 O169 1.283 . S
C147 O159 1.281 . S
C147 O160 1.236 . S
C148 O170 1.240 . S
C148 O171 1.264 . S
O149 Mn144 2.095 1_556 S
O149 C158 1.250 . S
O150 Mn145 2.121 . S
O150 C158 1.258 1_554 S
C151 N152 1.326 . S
C151 C155 1.460 . S
C151 H157 0.929 . S
N152 Mn145 2.257 . S
N152 C151 1.326 . S
N152 C156 1.362 . S
C153 C154 1.258 . S
C153 C156 1.431 . S
C153 C173 1.449 . S
C154 C153 1.258 . S
C154 C155 1.477 . S
C154 H174 0.931 . S
C155 C151 1.460 . S
C155 C154 1.477 . S
C155 H175 0.930 . S
C156 N152 1.362 . S
C156 C153 1.431 . S
C156 C166 1.476 . S
H157 C151 0.929 . S
C158 O149 1.250 . S
C158 O150 1.258 1_556 S
O159 Mn144 2.162 . S
O159 C147 1.281 . S
O160 Mn144 2.297 . S
O160 C147 1.236 . S
N161 Mn145 2.282 . S
N161 C162 1.328 . S
N161 C166 1.318 . S
C162 N161 1.328 . S
C162 C163 1.457 . S
C162 H167 0.929 . S
C163 C162 1.457 . S
C163 C164 1.291 . S
C163 H176 0.931 . S
C164 C163 1.291 . S
C164 C165 1.373 . S
C164 H177 0.929 . S
C165 C164 1.373 . S
C165 C166 1.396 . S
C165 C172 1.403 . S
C166 C156 1.476 . S
C166 N161 1.318 . S
C166 C165 1.396 . S
H167 C162 0.929 . S
O168 Mn144 2.385 . S
O168 C146 1.234 . S
O169 Mn144 2.209 . S
O169 Mn145 2.215 . S
O169 C146 1.283 . S
O170 Mn144 2.094 1_556 S
O170 C148 1.240 . S
O171 Mn145 2.117 1_556 S
O171 C148 1.264 . S
C172 C165 1.403 . S
C172 C173 1.399 . S
C172 H178 0.929 . S
C173 C153 1.449 . S
C173 C172 1.399 . S
C173 H179 0.930 . S
H174 C154 0.931 . S
H175 C155 0.930 . S
H176 C163 0.931 . S
H177 C164 0.929 . S
H178 C172 0.929 . S
H179 C173 0.930 . S
Mn180 O185 2.095 1_545 S
Mn180 O195 2.162 . S
Mn180 O196 2.297 1_554 S
Mn180 O204 2.385 1_554 S
Mn180 O205 2.209 1_544 S
Mn180 O206 2.094 . S
Mn181 O186 2.121 . S
Mn181 N188 2.257 1_554 S
Mn181 N197 2.282 . S
Mn181 O205 2.215 1_554 S
Mn181 O207 2.117 . S
C182 O204 1.234 . S
C182 O205 1.283 1_545 S
C183 O195 1.281 . S
C183 O196 1.236 1_554 S
C184 O206 1.240 . S
C184 O207 1.264 1_545 S
O185 Mn180 2.095 1_565 S
O185 C194 1.250 . S
O186 Mn181 2.121 . S
O186 C194 1.258 . S
C187 N188 1.326 . S
C187 C191 1.460 . S
C187 H193 0.929 . S
N188 Mn181 2.257 1_556 S
N188 C187 1.326 . S
N188 C192 1.362 . S
C189 C190 1.258 . S
C189 C192 1.431 . S
C189 C209 1.449 . S
C190 C189 1.258 . S
C190 C191 1.477 . S
C190 H210 0.931 . S
C191 C187 1.460 . S
C191 C190 1.477 . S
C191 H211 0.930 . S
C192 N188 1.362 . S
C192 C189 1.431 . S
C192 C202 1.476 . S
H193 C187 0.929 . S
C194 O185 1.250 . S
C194 O186 1.258 . S
O195 Mn180 2.162 . S
O195 C183 1.281 . S
O196 Mn180 2.297 1_556 S
O196 C183 1.236 1_556 S
N197 Mn181 2.282 . S
N197 C198 1.328 . S
N197 C202 1.318 1_554 S
C198 N197 1.328 . S
C198 C199 1.463 . S
C198 H203 0.929 . S
C199 C198 1.463 . S
C199 C200 1.281 1_554 S
C199 H212 0.934 . S
C200 C199 1.281 1_556 S
C200 C201 1.373 . S
C200 H213 0.929 . S
C201 C200 1.373 . S
C201 C202 1.396 . S
C201 C208 1.403 . S
C202 C192 1.476 . S
C202 N197 1.318 1_556 S
C202 C201 1.396 . S
H203 C198 0.929 . S
O204 Mn180 2.385 1_556 S
O204 C182 1.234 . S
O205 Mn180 2.209 1_566 S
O205 Mn181 2.215 1_556 S
O205 C182 1.283 1_565 S
O206 Mn180 2.094 . S
O206 C184 1.240 . S
O207 Mn181 2.117 . S
O207 C184 1.264 1_565 S
C208 C201 1.403 . S
C208 C209 1.399 . S
C208 H214 0.929 . S
C209 C189 1.449 . S
C209 C208 1.399 . S
C209 H215 0.930 . S
H210 C190 0.931 . S
H211 C191 0.930 . S
H212 C199 0.934 . S
H213 C200 0.929 . S
H214 C208 0.929 . S
H215 C209 0.930 . S
Mn216 O221 2.095 . S
Mn216 O231 2.162 . S
Mn216 O232 2.297 . S
Mn216 O240 2.385 . S
Mn216 O241 2.209 . S
Mn216 O242 2.094 . S
Mn217 O222 2.121 . S
Mn217 N224 2.257 . S
Mn217 N233 2.282 . S
Mn217 O241 2.215 . S
Mn217 O243 2.117 . S
C218 O240 1.234 . S
C218 O241 1.283 . S
C219 O231 1.281 . S
C219 O232 1.236 . S
C220 O242 1.240 . S
C220 O243 1.264 . S
O221 Mn216 2.095 . S
O221 C230 1.250 . S
O222 Mn217 2.121 . S
O222 C230 1.258 . S
C223 N224 1.326 . S
C223 C227 1.460 . S
C223 H229 0.929 . S
N224 Mn217 2.257 . S
N224 C223 1.326 . S
N224 C228 1.362 . S
C225 C226 1.258 . S
C225 C228 1.431 . S
C225 C245 1.449 . S
C226 C225 1.258 . S
C226 C227 1.477 . S
C226 H246 0.931 . S
C227 C223 1.460 . S
C227 C226 1.477 . S
C227 H247 0.930 . S
C228 N224 1.362 . S
C228 C225 1.431 . S
C228 C238 1.476 . S
H229 C223 0.929 . S
C230 O221 1.250 . S
C230 O222 1.258 . S
O231 Mn216 2.162 . S
O231 C219 1.281 . S
O232 Mn216 2.297 . S
O232 C219 1.236 . S
N233 Mn217 2.282 . S
N233 C234 1.328 . S
N233 C238 1.318 . S
C234 N233 1.328 . S
C234 C235 1.457 . S
C234 H239 0.929 . S
C235 C234 1.457 . S
C235 C236 1.291 . S
C235 H248 0.931 . S
C236 C235 1.291 . S
C236 C237 1.373 . S
C236 H249 0.929 . S
C237 C236 1.373 . S
C237 C238 1.396 . S
C237 C244 1.403 . S
C238 C228 1.476 . S
C238 N233 1.318 . S
C238 C237 1.396 . S
H239 C234 0.929 . S
O240 Mn216 2.385 . S
O240 C218 1.234 . S
O241 Mn216 2.209 . S
O241 Mn217 2.215 . S
O241 C218 1.283 . S
O242 Mn216 2.094 . S
O242 C220 1.240 . S
O243 Mn217 2.117 . S
O243 C220 1.264 . S
C244 C237 1.403 . S
C244 C245 1.399 . S
C244 H250 0.929 . S
C245 C225 1.449 . S
C245 C244 1.399 . S
C245 H251 0.930 . S
H246 C226 0.931 . S
H247 C227 0.930 . S
H248 C235 0.931 . S
H249 C236 0.929 . S
H250 C244 0.929 . S
H251 C245 0.930 . S
Mn252 O257 2.095 . S
Mn252 O267 2.162 . S
Mn252 O268 2.297 . S
Mn252 O276 2.385 . S
Mn252 O277 2.209 . S
Mn252 O278 2.094 . S
Mn253 O258 2.121 . S
Mn253 N260 2.257 . S
Mn253 N269 2.282 . S
Mn253 O277 2.215 . S
Mn253 O279 2.117 . S
C254 O276 1.234 . S
C254 O277 1.283 . S
C255 O267 1.281 1_545 S
C255 O268 1.236 1_545 S
C256 O278 1.240 . S
C256 O279 1.264 . S
O257 Mn252 2.095 . S
O257 C266 1.250 . S
O258 Mn253 2.121 . S
O258 C266 1.258 . S
C259 N260 1.326 . S
C259 C263 1.460 . S
C259 H265 0.929 . S
N260 Mn253 2.257 . S
N260 C259 1.326 . S
N260 C264 1.362 . S
C261 C262 1.258 . S
C261 C264 1.431 . S
C261 C281 1.449 . S
C262 C261 1.258 . S
C262 C263 1.477 . S
C262 H282 0.931 . S
C263 C259 1.460 . S
C263 C262 1.477 . S
C263 H283 0.930 . S
C264 N260 1.362 . S
C264 C261 1.431 . S
C264 C274 1.476 . S
H265 C259 0.929 . S
C266 O257 1.250 . S
C266 O258 1.258 . S
O267 Mn252 2.162 . S
O267 C255 1.281 1_565 S
O268 Mn252 2.297 . S
O268 C255 1.236 1_565 S
N269 Mn253 2.282 . S
N269 C270 1.328 . S
N269 C274 1.318 . S
C270 N269 1.328 . S
C270 C271 1.457 . S
C270 H275 0.929 . S
C271 C270 1.457 . S
C271 C272 1.291 . S
C271 H284 0.931 . S
C272 C271 1.291 . S
C272 C273 1.373 . S
C272 H285 0.929 . S
C273 C272 1.373 . S
C273 C274 1.396 . S
C273 C280 1.403 . S
C274 C264 1.476 . S
C274 N269 1.318 . S
C274 C273 1.396 . S
H275 C270 0.929 . S
O276 Mn252 2.385 . S
O276 C254 1.234 . S
O277 Mn252 2.209 . S
O277 Mn253 2.215 . S
O277 C254 1.283 . S
O278 Mn252 2.094 . S
O278 C256 1.240 . S
O279 Mn253 2.117 . S
O279 C256 1.264 . S
C280 C273 1.403 . S
C280 C281 1.399 . S
C280 H286 0.929 . S
C281 C261 1.449 . S
C281 C280 1.399 . S
C281 H287 0.930 . S
H282 C262 0.931 . S
H283 C263 0.930 . S
H284 C271 0.931 . S
H285 C272 0.929 . S
H286 C280 0.929 . S
H287 C281 0.930 . S
Mn288 O293 2.095 . S
Mn288 O303 2.162 . S
Mn288 O304 2.297 . S
Mn288 O312 2.385 . S
Mn288 O313 2.209 . S
Mn288 O314 2.094 . S
Mn289 O294 2.121 . S
Mn289 N296 2.257 . S
Mn289 N305 2.282 . S
Mn289 O313 2.215 . S
Mn289 O315 2.117 . S
C290 O312 1.234 . S
C290 O313 1.283 . S
C291 O303 1.260 1_655 S
C291 O304 1.230 1_655 S
C292 O314 1.240 . S
C292 O315 1.264 . S
O293 Mn288 2.095 . S
O293 C302 1.250 . S
O294 Mn289 2.121 . S
O294 C302 1.258 . S
C295 N296 1.326 . S
C295 C299 1.460 . S
C295 H301 0.929 . S
N296 Mn289 2.257 . S
N296 C295 1.326 . S
N296 C300 1.362 . S
C297 C298 1.258 . S
C297 C300 1.431 . S
C297 C317 1.449 . S
C298 C297 1.258 . S
C298 C299 1.477 . S
C298 H318 0.931 . S
C299 C295 1.460 . S
C299 C298 1.477 . S
C299 H319 0.930 . S
C300 N296 1.362 . S
C300 C297 1.431 . S
C300 C310 1.476 . S
H301 C295 0.929 . S
C302 O293 1.250 . S
C302 O294 1.258 . S
O303 Mn288 2.162 . S
O303 C291 1.260 1_455 S
O304 Mn288 2.297 . S
O304 C291 1.230 1_455 S
N305 Mn289 2.282 . S
N305 C306 1.328 . S
N305 C310 1.318 . S
C306 N305 1.328 . S
C306 C307 1.457 . S
C306 H311 0.929 . S
C307 C306 1.457 . S
C307 C308 1.291 . S
C307 H320 0.931 . S
C308 C307 1.291 . S
C308 C309 1.373 . S
C308 H321 0.929 . S
C309 C308 1.373 . S
C309 C310 1.396 . S
C309 C316 1.403 . S
C310 C300 1.476 . S
C310 N305 1.318 . S
C310 C309 1.396 . S
H311 C306 0.929 . S
O312 Mn288 2.385 . S
O312 C290 1.234 . S
O313 Mn288 2.209 . S
O313 Mn289 2.215 . S
O313 C290 1.283 . S
O314 Mn288 2.094 . S
O314 C292 1.240 . S
O315 Mn289 2.117 . S
O315 C292 1.264 . S
C316 C309 1.403 . S
C316 C317 1.399 . S
C316 H322 0.929 . S
C317 C297 1.449 . S
C317 C316 1.399 . S
C317 H323 0.930 . S
H318 C298 0.931 . S
H319 C299 0.930 . S
H320 C307 0.931 . S
H321 C308 0.929 . S
H322 C316 0.929 . S
H323 C317 0.930 . S
Mn324 O329 2.095 . S
Mn324 O339 2.162 . S
Mn324 O340 2.297 . S
Mn324 O348 2.385 . S
Mn324 O349 2.209 . S
Mn324 O350 2.094 . S
Mn325 O330 2.121 . S
Mn325 N332 2.257 . S
Mn325 N341 2.282 . S
Mn325 O349 2.215 . S
Mn325 O351 2.117 . S
C326 O348 1.234 . S
C326 O349 1.283 . S
C327 O339 1.281 . S
C327 O340 1.236 . S
C328 O350 1.240 . S
C328 O351 1.264 . S
O329 Mn324 2.095 . S
O329 C338 1.250 . S
O330 Mn325 2.121 . S
O330 C338 1.258 . S
C331 N332 1.326 . S
C331 C335 1.460 . S
C331 H337 0.929 . S
N332 Mn325 2.257 . S
N332 C331 1.326 . S
N332 C336 1.362 . S
C333 C334 1.258 . S
C333 C336 1.431 . S
C333 C353 1.449 . S
C334 C333 1.258 . S
C334 C335 1.477 . S
C334 H354 0.931 . S
C335 C331 1.460 . S
C335 C334 1.477 . S
C335 H355 0.930 1_565 S
C336 N332 1.362 . S
C336 C333 1.431 . S
C336 C346 1.476 . S
H337 C331 0.929 . S
C338 O329 1.250 . S
C338 O330 1.258 . S
O339 Mn324 2.162 . S
O339 C327 1.281 . S
O340 Mn324 2.297 . S
O340 C327 1.236 . S
N341 Mn325 2.282 . S
N341 C342 1.328 . S
N341 C346 1.318 . S
C342 N341 1.328 . S
C342 C343 1.457 . S
C342 H347 0.929 . S
C343 C342 1.457 . S
C343 C344 1.291 . S
C343 H356 0.931 . S
C344 C343 1.291 . S
C344 C345 1.373 . S
C344 H357 0.929 . S
C345 C344 1.373 . S
C345 C346 1.396 . S
C345 C352 1.403 . S
C346 C336 1.476 . S
C346 N341 1.318 . S
C346 C345 1.396 . S
H347 C342 0.929 . S
O348 Mn324 2.385 . S
O348 C326 1.234 . S
O349 Mn324 2.209 . S
O349 Mn325 2.215 . S
O349 C326 1.283 . S
O350 Mn324 2.094 . S
O350 C328 1.240 . S
O351 Mn325 2.117 . S
O351 C328 1.264 . S
C352 C345 1.403 . S
C352 C353 1.399 . S
C352 H358 0.929 . S
C353 C333 1.449 . S
C353 C352 1.399 . S
C353 H359 0.930 . S
H354 C334 0.931 . S
H355 C335 0.930 1_545 S
H356 C343 0.931 . S
H357 C344 0.929 . S
H358 C352 0.929 . S
H359 C353 0.930 . S
Mn360 O365 2.095 . S
Mn360 O375 2.162 . S
Mn360 O376 2.297 . S
Mn360 O384 2.385 . S
Mn360 O385 2.209 . S
Mn360 O386 2.094 . S
Mn361 O366 2.121 . S
Mn361 N368 2.257 . S
Mn361 N377 2.282 . S
Mn361 O385 2.215 . S
Mn361 O387 2.117 . S
C362 O384 1.234 . S
C362 O385 1.283 . S
C363 O375 1.281 . S
C363 O376 1.236 . S
C364 O386 1.240 . S
C364 O387 1.264 . S
O365 Mn360 2.095 . S
O365 C374 1.250 . S
O366 Mn361 2.121 . S
O366 C374 1.258 . S
C367 N368 1.326 . S
C367 C371 1.460 . S
C367 H373 0.929 . S
N368 Mn361 2.257 . S
N368 C367 1.326 . S
N368 C372 1.362 . S
C369 C370 1.258 . S
C369 C372 1.431 . S
C369 C389 1.449 . S
C370 C369 1.258 . S
C370 C371 1.477 . S
C370 H390 0.931 . S
C371 C367 1.460 . S
C371 C370 1.477 . S
C371 H391 0.930 . S
C372 N368 1.362 . S
C372 C369 1.431 . S
C372 C382 1.476 . S
H373 C367 0.929 . S
C374 O365 1.250 . S
C374 O366 1.258 . S
O375 Mn360 2.162 . S
O375 C363 1.281 . S
O376 Mn360 2.297 . S
O376 C363 1.236 . S
N377 Mn361 2.282 . S
N377 C378 1.328 . S
N377 C382 1.318 . S
C378 N377 1.328 . S
C378 C379 1.457 . S
C378 H383 0.929 . S
C379 C378 1.457 . S
C379 C380 1.291 . S
C379 H392 0.931 . S
C380 C379 1.291 . S
C380 C381 1.373 . S
C380 H393 0.929 . S
C381 C380 1.373 . S
C381 C382 1.396 . S
C381 C388 1.403 . S
C382 C372 1.476 . S
C382 N377 1.318 . S
C382 C381 1.396 . S
H383 C378 0.929 . S
O384 Mn360 2.385 . S
O384 C362 1.234 . S
O385 Mn360 2.209 . S
O385 Mn361 2.215 . S
O385 C362 1.283 . S
O386 Mn360 2.094 . S
O386 C364 1.240 . S
O387 Mn361 2.117 . S
O387 C364 1.264 . S
C388 C381 1.403 . S
C388 C389 1.399 . S
C388 H394 0.929 . S
C389 C369 1.449 . S
C389 C388 1.399 . S
C389 H395 0.930 . S
H390 C370 0.931 . S
H391 C371 0.930 . S
H392 C379 0.931 . S
H393 C380 0.929 . S
H394 C388 0.929 . S
H395 C389 0.930 . S
Mn396 O401 2.095 . S
Mn396 O411 2.162 . S
Mn396 O412 2.297 . S
Mn396 O420 2.385 . S
Mn396 O421 2.209 . S
Mn396 O422 2.094 . S
Mn397 O402 2.121 . S
Mn397 N404 2.257 . S
Mn397 N413 2.282 . S
Mn397 O421 2.215 . S
Mn397 O423 2.117 . S
C398 O420 1.234 . S
C398 O421 1.283 . S
C399 O411 1.281 . S
C399 O412 1.236 . S
C400 O422 1.240 . S
C400 O423 1.264 . S
O401 Mn396 2.095 . S
O401 C410 1.250 . S
O402 Mn397 2.121 . S
O402 C410 1.258 . S
C403 N404 1.326 . S
C403 C407 1.460 . S
C403 H409 0.929 . S
N404 Mn397 2.257 . S
N404 C403 1.326 . S
N404 C408 1.362 . S
C405 C406 1.258 . S
C405 C408 1.431 . S
C405 C425 1.449 . S
C406 C405 1.258 . S
C406 C407 1.477 . S
C406 H426 0.931 . S
C407 C403 1.460 . S
C407 C406 1.477 . S
C407 H427 0.930 . S
C408 N404 1.362 . S
C408 C405 1.431 . S
C408 C418 1.476 . S
H409 C403 0.929 . S
C410 O401 1.250 . S
C410 O402 1.258 . S
O411 Mn396 2.162 . S
O411 C399 1.281 . S
O412 Mn396 2.297 . S
O412 C399 1.236 . S
N413 Mn397 2.282 . S
N413 C414 1.328 . S
N413 C418 1.318 . S
C414 N413 1.328 . S
C414 C415 1.457 . S
C414 H419 0.929 . S
C415 C414 1.457 . S
C415 C416 1.291 . S
C415 H428 0.931 . S
C416 C415 1.291 . S
C416 C417 1.373 . S
C416 H429 0.929 . S
C417 C416 1.373 . S
C417 C418 1.396 . S
C417 C424 1.403 . S
C418 C408 1.476 . S
C418 N413 1.318 . S
C418 C417 1.396 . S
H419 C414 0.929 . S
O420 Mn396 2.385 . S
O420 C398 1.234 . S
O421 Mn396 2.209 . S
O421 Mn397 2.215 . S
O421 C398 1.283 . S
O422 Mn396 2.094 . S
O422 C400 1.240 . S
O423 Mn397 2.117 . S
O423 C400 1.264 . S
C424 C417 1.403 . S
C424 C425 1.399 . S
C424 H430 0.929 . S
C425 C405 1.449 . S
C425 C424 1.399 . S
C425 H431 0.930 . S
H426 C406 0.931 . S
H427 C407 0.930 . S
H428 C415 0.931 . S
H429 C416 0.929 . S
H430 C424 0.929 . S
H431 C425 0.930 . S
Mn432 O437 2.095 . S
Mn432 O447 2.162 . S
Mn432 O448 2.297 . S
Mn432 O456 2.385 . S
Mn432 O457 2.209 . S
Mn432 O458 2.094 . S
Mn433 O438 2.121 . S
Mn433 N440 2.257 . S
Mn433 N449 2.282 . S
Mn433 O457 2.215 . S
Mn433 O459 2.117 . S
C434 O456 1.234 . S
C434 O457 1.283 . S
C435 O447 1.281 . S
C435 O448 1.236 . S
C436 O458 1.240 . S
C436 O459 1.264 . S
O437 Mn432 2.095 . S
O437 C446 1.250 . S
O438 Mn433 2.121 . S
O438 C446 1.258 . S
C439 N440 1.326 . S
C439 C443 1.460 . S
C439 H445 0.929 . S
N440 Mn433 2.257 . S
N440 C439 1.326 . S
N440 C444 1.362 . S
C441 C442 1.258 . S
C441 C444 1.431 . S
C441 C461 1.449 . S
C442 C441 1.258 . S
C442 C443 1.477 . S
C442 H462 0.931 . S
C443 C439 1.460 . S
C443 C442 1.477 . S
C443 H463 0.930 . S
C444 N440 1.362 . S
C444 C441 1.431 . S
C444 C454 1.476 . S
H445 C439 0.929 . S
C446 O437 1.250 . S
C446 O438 1.258 . S
O447 Mn432 2.162 . S
O447 C435 1.281 . S
O448 Mn432 2.297 . S
O448 C435 1.236 . S
N449 Mn433 2.282 . S
N449 C450 1.328 . S
N449 C454 1.318 . S
C450 N449 1.328 . S
C450 C451 1.457 . S
C450 H455 0.929 . S
C451 C450 1.457 . S
C451 C452 1.291 . S
C451 H464 0.931 . S
C452 C451 1.291 . S
C452 C453 1.373 . S
C452 H465 0.929 . S
C453 C452 1.373 . S
C453 C454 1.396 . S
C453 C460 1.403 . S
C454 C444 1.476 . S
C454 N449 1.318 . S
C454 C453 1.396 . S
H455 C450 0.929 . S
O456 Mn432 2.385 . S
O456 C434 1.234 . S
O457 Mn432 2.209 . S
O457 Mn433 2.215 . S
O457 C434 1.283 . S
O458 Mn432 2.094 . S
O458 C436 1.240 . S
O459 Mn433 2.117 . S
O459 C436 1.264 . S
C460 C453 1.403 . S
C460 C461 1.399 . S
C460 H466 0.929 . S
C461 C441 1.449 . S
C461 C460 1.399 . S
C461 H467 0.930 . S
H462 C442 0.931 . S
H463 C443 0.930 . S
H464 C451 0.931 . S
H465 C452 0.929 . S
H466 C460 0.929 . S
H467 C461 0.930 . S
Mn468 O473 2.095 . S
Mn468 O483 2.162 . S
Mn468 O484 2.297 . S
Mn468 O492 2.385 . S
Mn468 O493 2.209 . S
Mn468 O494 2.094 . S
Mn469 O474 2.121 . S
Mn469 N476 2.257 . S
Mn469 N485 2.282 . S
Mn469 O493 2.215 . S
Mn469 O495 2.117 . S
C470 O492 1.234 . S
C470 O493 1.283 . S
C471 O483 1.281 . S
C471 O484 1.236 . S
C472 O494 1.240 . S
C472 O495 1.264 . S
O473 Mn468 2.095 . S
O473 C482 1.250 . S
O474 Mn469 2.121 . S
O474 C482 1.258 . S
C475 N476 1.326 . S
C475 C479 1.460 . S
C475 H481 0.929 . S
N476 Mn469 2.257 . S
N476 C475 1.326 . S
N476 C480 1.362 . S
C477 C478 1.258 . S
C477 C480 1.431 . S
C477 C497 1.449 . S
C478 C477 1.258 . S
C478 C479 1.477 . S
C478 H498 0.931 . S
C479 C475 1.460 . S
C479 C478 1.477 . S
C479 H499 0.930 1_655 S
C480 N476 1.362 . S
C480 C477 1.431 . S
C480 C490 1.476 . S
H481 C475 0.929 . S
C482 O473 1.250 . S
C482 O474 1.258 . S
O483 Mn468 2.162 . S
O483 C471 1.281 . S
O484 Mn468 2.297 . S
O484 C471 1.236 . S
N485 Mn469 2.282 . S
N485 C486 1.328 . S
N485 C490 1.318 . S
C486 N485 1.328 . S
C486 C487 1.457 . S
C486 H491 0.929 . S
C487 C486 1.457 . S
C487 C488 1.291 . S
C487 H500 0.931 . S
C488 C487 1.291 . S
C488 C489 1.373 . S
C488 H501 0.929 . S
C489 C488 1.373 . S
C489 C490 1.396 . S
C489 C496 1.403 . S
C490 C480 1.476 . S
C490 N485 1.318 . S
C490 C489 1.396 . S
H491 C486 0.929 . S
O492 Mn468 2.385 . S
O492 C470 1.234 . S
O493 Mn468 2.209 . S
O493 Mn469 2.215 . S
O493 C470 1.283 . S
O494 Mn468 2.094 . S
O494 C472 1.240 . S
O495 Mn469 2.117 . S
O495 C472 1.264 . S
C496 C489 1.403 . S
C496 C497 1.399 . S
C496 H502 0.929 . S
C497 C477 1.449 . S
C497 C496 1.399 . S
C497 H503 0.930 . S
H498 C478 0.931 . S
H499 C479 0.930 1_455 S
H500 C487 0.931 . S
H501 C488 0.929 . S
H502 C496 0.929 . S
H503 C497 0.930 . S
Mn504 O509 2.095 . S
Mn504 O519 2.162 . S
Mn504 O520 2.297 . S
Mn504 O528 2.385 . S
Mn504 O529 2.209 . S
Mn504 O530 2.094 . S
Mn505 O510 2.121 . S
Mn505 N512 2.257 . S
Mn505 N521 2.282 . S
Mn505 O529 2.215 . S
Mn505 O531 2.117 . S
C506 O528 1.234 . S
C506 O529 1.283 . S
C507 O519 1.281 . S
C507 O520 1.236 . S
C508 O530 1.240 . S
C508 O531 1.264 . S
O509 Mn504 2.095 . S
O509 C518 1.250 . S
O510 Mn505 2.121 . S
O510 C518 1.258 . S
C511 N512 1.326 . S
C511 C515 1.460 . S
C511 H517 0.929 . S
N512 Mn505 2.257 . S
N512 C511 1.326 . S
N512 C516 1.362 . S
C513 C514 1.258 . S
C513 C516 1.431 . S
C513 C533 1.449 . S
C514 C513 1.258 . S
C514 C515 1.477 . S
C514 H534 0.931 . S
C515 C511 1.460 . S
C515 C514 1.477 . S
C515 H535 0.930 . S
C516 N512 1.362 . S
C516 C513 1.431 . S
C516 C526 1.476 . S
H517 C511 0.929 . S
C518 O509 1.250 . S
C518 O510 1.258 . S
O519 Mn504 2.162 . S
O519 C507 1.281 . S
O520 Mn504 2.297 . S
O520 C507 1.236 . S
N521 Mn505 2.282 . S
N521 C522 1.328 . S
N521 C526 1.318 . S
C522 N521 1.328 . S
C522 C523 1.457 . S
C522 H527 0.929 . S
C523 C522 1.457 . S
C523 C524 1.291 . S
C523 H536 0.931 . S
C524 C523 1.291 . S
C524 C525 1.373 . S
C524 H537 0.929 . S
C525 C524 1.373 . S
C525 C526 1.396 . S
C525 C532 1.403 . S
C526 C516 1.476 . S
C526 N521 1.318 . S
C526 C525 1.396 . S
H527 C522 0.929 . S
O528 Mn504 2.385 . S
O528 C506 1.234 . S
O529 Mn504 2.209 . S
O529 Mn505 2.215 . S
O529 C506 1.283 . S
O530 Mn504 2.094 . S
O530 C508 1.240 . S
O531 Mn505 2.117 . S
O531 C508 1.264 . S
C532 C525 1.403 . S
C532 C533 1.399 . S
C532 H538 0.929 . S
C533 C513 1.449 . S
C533 C532 1.399 . S
C533 H539 0.930 . S
H534 C514 0.931 . S
H535 C515 0.930 . S
H536 C523 0.931 . S
H537 C524 0.929 . S
H538 C532 0.929 . S
H539 C533 0.930 . S
Mn540 O545 2.095 . S
Mn540 O555 2.162 . S
Mn540 O556 2.297 . S
Mn540 O564 2.385 . S
Mn540 O565 2.209 . S
Mn540 O566 2.094 . S
Mn541 O546 2.121 . S
Mn541 N548 2.257 . S
Mn541 N557 2.282 . S
Mn541 O565 2.215 . S
Mn541 O567 2.117 . S
C542 O564 1.234 . S
C542 O565 1.283 . S
C543 O555 1.281 . S
C543 O556 1.236 . S
C544 O566 1.240 . S
C544 O567 1.264 . S
O545 Mn540 2.095 . S
O545 C554 1.250 . S
O546 Mn541 2.121 . S
O546 C554 1.258 . S
C547 N548 1.326 . S
C547 C551 1.460 . S
C547 H553 0.929 . S
N548 Mn541 2.257 . S
N548 C547 1.326 . S
N548 C552 1.362 . S
C549 C550 1.258 . S
C549 C552 1.431 . S
C549 C569 1.449 . S
C550 C549 1.258 . S
C550 C551 1.477 . S
C550 H570 0.931 . S
C551 C547 1.460 . S
C551 C550 1.477 . S
C551 H571 0.930 . S
C552 N548 1.362 . S
C552 C549 1.431 . S
C552 C562 1.476 . S
H553 C547 0.929 . S
C554 O545 1.250 . S
C554 O546 1.258 . S
O555 Mn540 2.162 . S
O555 C543 1.281 . S
O556 Mn540 2.297 . S
O556 C543 1.236 . S
N557 Mn541 2.282 . S
N557 C558 1.328 . S
N557 C562 1.318 . S
C558 N557 1.328 . S
C558 C559 1.457 . S
C558 H563 0.929 . S
C559 C558 1.457 . S
C559 C560 1.291 . S
C559 H572 0.931 . S
C560 C559 1.291 . S
C560 C561 1.373 . S
C560 H573 0.929 . S
C561 C560 1.373 . S
C561 C562 1.396 . S
C561 C568 1.403 . S
C562 C552 1.476 . S
C562 N557 1.318 . S
C562 C561 1.396 . S
H563 C558 0.929 . S
O564 Mn540 2.385 . S
O564 C542 1.234 . S
O565 Mn540 2.209 . S
O565 Mn541 2.215 . S
O565 C542 1.283 . S
O566 Mn540 2.094 . S
O566 C544 1.240 . S
O567 Mn541 2.117 . S
O567 C544 1.264 . S
C568 C561 1.403 . S
C568 C569 1.399 . S
C568 H574 0.929 . S
C569 C549 1.449 . S
C569 C568 1.399 . S
C569 H575 0.930 . S
H570 C550 0.931 . S
H571 C551 0.930 . S
H572 C559 0.931 . S
H573 C560 0.929 . S
H574 C568 0.929 . S
H575 C569 0.930 . S
Mn576 O581 2.095 . S
Mn576 O591 2.162 . S
Mn576 O592 2.297 . S
Mn576 O600 2.385 . S
Mn576 O601 2.209 . S
Mn576 O602 2.094 . S
Mn577 O582 2.121 . S
Mn577 N584 2.257 . S
Mn577 N593 2.282 . S
Mn577 O601 2.215 . S
Mn577 O603 2.117 . S
C578 O600 1.234 . S
C578 O601 1.283 . S
C579 O591 1.281 . S
C579 O592 1.236 . S
C580 O602 1.240 . S
C580 O603 1.264 . S
O581 Mn576 2.095 . S
O581 C590 1.250 . S
O582 Mn577 2.121 . S
O582 C590 1.258 . S
C583 N584 1.326 . S
C583 C587 1.460 . S
C583 H589 0.929 . S
N584 Mn577 2.257 . S
N584 C583 1.326 . S
N584 C588 1.362 . S
C585 C586 1.258 . S
C585 C588 1.431 . S
C585 C605 1.449 . S
C586 C585 1.258 . S
C586 C587 1.477 . S
C586 H606 0.931 . S
C587 C583 1.460 . S
C587 C586 1.477 . S
C587 H607 0.930 1_545 S
C588 N584 1.362 . S
C588 C585 1.431 . S
C588 C598 1.476 . S
H589 C583 0.929 . S
C590 O581 1.250 . S
C590 O582 1.258 . S
O591 Mn576 2.162 . S
O591 C579 1.281 . S
O592 Mn576 2.297 . S
O592 C579 1.236 . S
N593 Mn577 2.282 . S
N593 C594 1.328 . S
N593 C598 1.318 . S
C594 N593 1.328 . S
C594 C595 1.457 . S
C594 H599 0.929 . S
C595 C594 1.457 . S
C595 C596 1.291 . S
C595 H608 0.931 . S
C596 C595 1.291 . S
C596 C597 1.373 . S
C596 H609 0.929 . S
C597 C596 1.373 . S
C597 C598 1.396 . S
C597 C604 1.403 . S
C598 C588 1.476 . S
C598 N593 1.318 . S
C598 C597 1.396 . S
H599 C594 0.929 . S
O600 Mn576 2.385 . S
O600 C578 1.234 . S
O601 Mn576 2.209 . S
O601 Mn577 2.215 . S
O601 C578 1.283 . S
O602 Mn576 2.094 . S
O602 C580 1.240 . S
O603 Mn577 2.117 . S
O603 C580 1.264 . S
C604 C597 1.403 . S
C604 C605 1.399 . S
C604 H610 0.929 . S
C605 C585 1.449 . S
C605 C604 1.399 . S
C605 H611 0.930 . S
H606 C586 0.931 . S
H607 C587 0.930 1_565 S
H608 C595 0.931 . S
H609 C596 0.929 . S
H610 C604 0.929 . S
H611 C605 0.930 . S
Mn612 O617 2.095 . S
Mn612 O627 2.162 . S
Mn612 O628 2.297 . S
Mn612 O636 2.385 . S
Mn612 O637 2.209 . S
Mn612 O638 2.094 . S
Mn613 O618 2.121 . S
Mn613 N620 2.257 . S
Mn613 N629 2.282 . S
Mn613 O637 2.215 . S
Mn613 O639 2.117 . S
C614 O636 1.234 . S
C614 O637 1.283 . S
C615 O627 1.278 . S
C615 O628 1.235 . S
C616 O638 1.240 . S
C616 O639 1.264 . S
O617 Mn612 2.095 . S
O617 C626 1.250 . S
O618 Mn613 2.121 . S
O618 C626 1.258 . S
C619 N620 1.326 . S
C619 C623 1.460 . S
C619 H625 0.929 . S
N620 Mn613 2.257 . S
N620 C619 1.326 . S
N620 C624 1.362 . S
C621 C622 1.258 . S
C621 C624 1.431 . S
C621 C641 1.449 . S
C622 C621 1.258 . S
C622 C623 1.477 . S
C622 H642 0.931 . S
C623 C619 1.460 . S
C623 C622 1.477 . S
C623 H643 0.930 . S
C624 N620 1.362 . S
C624 C621 1.431 . S
C624 C634 1.476 . S
H625 C619 0.929 . S
C626 O617 1.250 . S
C626 O618 1.258 . S
O627 Mn612 2.162 . S
O627 C615 1.278 . S
O628 Mn612 2.297 . S
O628 C615 1.235 . S
N629 Mn613 2.282 . S
N629 C630 1.328 . S
N629 C634 1.318 . S
C630 N629 1.328 . S
C630 C631 1.457 . S
C630 H635 0.929 . S
C631 C630 1.457 . S
C631 C632 1.291 . S
C631 H644 0.931 . S
C632 C631 1.291 . S
C632 C633 1.373 . S
C632 H645 0.929 . S
C633 C632 1.373 . S
C633 C634 1.396 . S
C633 C640 1.403 . S
C634 C624 1.476 . S
C634 N629 1.318 . S
C634 C633 1.396 . S
H635 C630 0.929 . S
O636 Mn612 2.385 . S
O636 C614 1.234 . S
O637 Mn612 2.209 . S
O637 Mn613 2.215 . S
O637 C614 1.283 . S
O638 Mn612 2.094 . S
O638 C616 1.240 . S
O639 Mn613 2.117 . S
O639 C616 1.264 . S
C640 C633 1.403 . S
C640 C641 1.399 . S
C640 H646 0.929 . S
C641 C621 1.449 . S
C641 C640 1.399 . S
C641 H647 0.930 . S
H642 C622 0.931 . S
H643 C623 0.930 . S
H644 C631 0.931 . S
H645 C632 0.929 . S
H646 C640 0.929 . S
H647 C641 0.930 . S
H648 C675 0.929 . S
N649 C674 1.433 . S
N649 C680 1.435 . S
N649 C686 1.423 . S
H650 C676 0.930 . S
H651 C679 0.931 . S
H652 C678 0.929 . S
H653 C681 0.930 . S
H654 C682 0.932 . S
H655 C685 0.929 . S
H656 C684 0.931 . S
H657 C687 0.929 . S
H658 C691 0.932 . S
H659 C688 0.931 . S
H660 C690 0.929 . S
H661 C693 0.929 . S
H662 C694 0.930 . S
H663 C696 0.929 . S
H664 C697 0.931 . S
H665 C699 0.930 . S
H666 C700 0.932 . S
H667 C702 0.931 . S
H668 C703 0.929 . S
H669 C705 0.929 . S
H670 C706 0.931 . S
H671 C708 0.929 . S
N672 C692 1.433 . S
N672 C698 1.435 . S
N672 C704 1.423 . S
H673 C709 0.932 . S
C674 N649 1.433 . S
C674 C675 1.363 . S
C674 C679 1.370 . S
C675 H648 0.929 . S
C675 C674 1.363 . S
C675 C676 1.385 . S
C676 H650 0.930 . S
C676 C675 1.385 . S
C676 C677 1.357 . S
C677 C676 1.357 . S
C677 C678 1.406 . S
C678 H652 0.929 . S
C678 C677 1.406 . S
C678 C679 1.391 . S
C679 H651 0.931 . S
C679 C674 1.370 . S
C679 C678 1.391 . S
C680 N649 1.435 . S
C680 C681 1.358 . S
C680 C685 1.371 . S
C681 H653 0.930 . S
C681 C680 1.358 . S
C681 C682 1.405 . S
C682 H654 0.932 . S
C682 C681 1.405 . S
C682 C683 1.383 . S
C683 C682 1.383 . S
C683 C684 1.393 . S
C684 H656 0.931 . S
C684 C683 1.393 . S
C684 C685 1.382 . S
C685 H655 0.929 . S
C685 C680 1.371 . S
C685 C684 1.382 . S
C686 N649 1.423 . S
C686 C687 1.362 . S
C686 C691 1.388 . S
C687 H657 0.929 . S
C687 C686 1.362 . S
C687 C688 1.376 . S
C688 H659 0.931 . S
C688 C687 1.376 . S
C688 C689 1.396 . S
C689 C688 1.396 . S
C689 C690 1.348 . S
C689 C707 1.472 . S
C690 H660 0.929 . S
C690 C689 1.348 . S
C690 C691 1.443 . S
C691 H658 0.932 . S
C691 C686 1.388 . S
C691 C690 1.443 . S
C692 N672 1.433 . S
C692 C693 1.363 . S
C692 C697 1.370 . S
C693 H661 0.929 . S
C693 C692 1.363 . S
C693 C694 1.385 . S
C694 H662 0.930 . S
C694 C693 1.385 . S
C694 C695 1.357 . S
C695 C694 1.357 . S
C695 C696 1.406 . S
C696 H663 0.929 . S
C696 C695 1.406 . S
C696 C697 1.391 . S
C697 H664 0.931 . S
C697 C692 1.370 . S
C697 C696 1.391 . S
C698 N672 1.435 . S
C698 C699 1.358 . S
C698 C703 1.371 . S
C699 H665 0.930 . S
C699 C698 1.358 . S
C699 C700 1.405 . S
C700 H666 0.932 . S
C700 C699 1.405 . S
C700 C701 1.383 . S
C701 C700 1.383 . S
C701 C702 1.393 . S
C702 H667 0.931 . S
C702 C701 1.393 . S
C702 C703 1.382 . S
C703 H668 0.929 . S
C703 C698 1.371 . S
C703 C702 1.382 . S
C704 N672 1.423 . S
C704 C705 1.362 . S
C704 C709 1.388 . S
C705 H669 0.929 . S
C705 C704 1.362 . S
C705 C706 1.376 . S
C706 H670 0.931 . S
C706 C705 1.376 . S
C706 C707 1.396 . S
C707 C689 1.472 . S
C707 C706 1.396 . S
C707 C708 1.348 . S
C708 H671 0.929 . S
C708 C707 1.348 . S
C708 C709 1.443 . S
C709 H673 0.932 . S
C709 C704 1.388 . S
C709 C708 1.443 . S
H710 C737 0.929 . S
N711 C736 1.433 . S
N711 C742 1.435 . S
N711 C748 1.423 . S
H712 C738 0.930 . S
H713 C741 0.931 . S
H714 C740 0.929 . S
H715 C743 0.930 . S
H716 C744 0.932 . S
H717 C747 0.929 . S
H718 C746 0.931 . S
H719 C749 0.929 . S
H720 C753 0.932 . S
H721 C750 0.931 . S
H722 C752 0.929 . S
H723 C755 0.929 . S
H724 C756 0.930 . S
H725 C758 0.929 . S
H726 C759 0.931 . S
H727 C761 0.930 . S
H728 C762 0.932 . S
H729 C764 0.931 . S
H730 C765 0.929 . S
H731 C767 0.929 . S
H732 C768 0.931 . S
H733 C770 0.929 . S
N734 C754 1.433 . S
N734 C760 1.435 . S
N734 C766 1.423 . S
H735 C771 0.932 . S
C736 N711 1.433 . S
C736 C737 1.363 . S
C736 C741 1.370 . S
C737 H710 0.929 . S
C737 C736 1.363 . S
C737 C738 1.385 . S
C738 H712 0.930 . S
C738 C737 1.385 . S
C738 C739 1.357 . S
C739 C738 1.357 . S
C739 C740 1.406 . S
C740 H714 0.929 . S
C740 C739 1.406 . S
C740 C741 1.391 . S
C741 H713 0.931 . S
C741 C736 1.370 . S
C741 C740 1.391 . S
C742 N711 1.435 . S
C742 C743 1.358 . S
C742 C747 1.371 . S
C743 H715 0.930 . S
C743 C742 1.358 . S
C743 C744 1.405 . S
C744 H716 0.932 . S
C744 C743 1.405 . S
C744 C745 1.383 . S
C745 C744 1.383 . S
C745 C746 1.393 . S
C746 H718 0.931 . S
C746 C745 1.393 . S
C746 C747 1.382 . S
C747 H717 0.929 . S
C747 C742 1.371 . S
C747 C746 1.382 . S
C748 N711 1.423 . S
C748 C749 1.362 . S
C748 C753 1.388 . S
C749 H719 0.929 . S
C749 C748 1.362 . S
C749 C750 1.376 . S
C750 H721 0.931 . S
C750 C749 1.376 . S
C750 C751 1.396 . S
C751 C750 1.396 . S
C751 C752 1.348 . S
C751 C769 1.472 . S
C752 H722 0.929 . S
C752 C751 1.348 . S
C752 C753 1.443 . S
C753 H720 0.932 . S
C753 C748 1.388 . S
C753 C752 1.443 . S
C754 N734 1.433 . S
C754 C755 1.363 . S
C754 C759 1.370 . S
C755 H723 0.929 . S
C755 C754 1.363 . S
C755 C756 1.385 . S
C756 H724 0.930 . S
C756 C755 1.385 . S
C756 C757 1.357 . S
C757 C756 1.357 . S
C757 C758 1.406 . S
C758 H725 0.929 . S
C758 C757 1.406 . S
C758 C759 1.391 . S
C759 H726 0.931 . S
C759 C754 1.370 . S
C759 C758 1.391 . S
C760 N734 1.435 . S
C760 C761 1.358 . S
C760 C765 1.371 . S
C761 H727 0.930 . S
C761 C760 1.358 . S
C761 C762 1.405 . S
C762 H728 0.932 . S
C762 C761 1.405 . S
C762 C763 1.383 . S
C763 C762 1.383 . S
C763 C764 1.393 . S
C764 H729 0.931 . S
C764 C763 1.393 . S
C764 C765 1.382 . S
C765 H730 0.929 . S
C765 C760 1.371 . S
C765 C764 1.382 . S
C766 N734 1.423 . S
C766 C767 1.362 . S
C766 C771 1.388 . S
C767 H731 0.929 . S
C767 C766 1.362 . S
C767 C768 1.376 . S
C768 H732 0.931 . S
C768 C767 1.376 . S
C768 C769 1.396 . S
C769 C751 1.472 . S
C769 C768 1.396 . S
C769 C770 1.348 . S
C770 H733 0.929 . S
C770 C769 1.348 . S
C770 C771 1.443 . S
C771 H735 0.932 . S
C771 C766 1.388 . S
C771 C770 1.443 . S
H772 C799 0.929 . S
N773 C798 1.433 . S
N773 C804 1.435 . S
N773 C810 1.423 . S
H774 C800 0.930 . S
H775 C803 0.931 . S
H776 C802 0.929 . S
H777 C805 0.930 . S
H778 C806 0.932 . S
H779 C809 0.929 . S
H780 C808 0.931 . S
H781 C811 0.929 . S
H782 C815 0.932 . S
H783 C812 0.931 . S
H784 C814 0.929 . S
H785 C817 0.929 . S
H786 C818 0.930 . S
H787 C820 0.929 . S
H788 C821 0.931 . S
H789 C823 0.930 . S
H790 C824 0.932 . S
H791 C826 0.931 . S
H792 C827 0.929 . S
H793 C829 0.929 . S
H794 C830 0.931 . S
H795 C832 0.929 . S
N796 C816 1.433 . S
N796 C822 1.435 . S
N796 C828 1.423 . S
H797 C833 0.932 . S
C798 N773 1.433 . S
C798 C799 1.363 . S
C798 C803 1.370 . S
C799 H772 0.929 . S
C799 C798 1.363 . S
C799 C800 1.385 . S
C800 H774 0.930 . S
C800 C799 1.385 . S
C800 C801 1.357 . S
C801 C800 1.357 . S
C801 C802 1.406 . S
C802 H776 0.929 . S
C802 C801 1.406 . S
C802 C803 1.391 . S
C803 H775 0.931 . S
C803 C798 1.370 . S
C803 C802 1.391 . S
C804 N773 1.435 . S
C804 C805 1.358 . S
C804 C809 1.371 . S
C805 H777 0.930 . S
C805 C804 1.358 . S
C805 C806 1.405 . S
C806 H778 0.932 . S
C806 C805 1.405 . S
C806 C807 1.383 . S
C807 C806 1.383 . S
C807 C808 1.393 . S
C808 H780 0.931 . S
C808 C807 1.393 . S
C808 C809 1.382 . S
C809 H779 0.929 . S
C809 C804 1.371 . S
C809 C808 1.382 . S
C810 N773 1.423 . S
C810 C811 1.362 . S
C810 C815 1.388 . S
C811 H781 0.929 . S
C811 C810 1.362 . S
C811 C812 1.376 . S
C812 H783 0.931 . S
C812 C811 1.376 . S
C812 C813 1.396 . S
C813 C812 1.396 . S
C813 C814 1.348 . S
C813 C831 1.472 . S
C814 H784 0.929 . S
C814 C813 1.348 . S
C814 C815 1.443 . S
C815 H782 0.932 . S
C815 C810 1.388 . S
C815 C814 1.443 . S
C816 N796 1.433 . S
C816 C817 1.363 . S
C816 C821 1.370 . S
C817 H785 0.929 . S
C817 C816 1.363 . S
C817 C818 1.385 . S
C818 H786 0.930 . S
C818 C817 1.385 . S
C818 C819 1.357 . S
C819 C818 1.357 . S
C819 C820 1.406 . S
C820 H787 0.929 . S
C820 C819 1.406 . S
C820 C821 1.391 . S
C821 H788 0.931 . S
C821 C816 1.370 . S
C821 C820 1.391 . S
C822 N796 1.435 . S
C822 C823 1.358 . S
C822 C827 1.371 . S
C823 H789 0.930 . S
C823 C822 1.358 . S
C823 C824 1.405 . S
C824 H790 0.932 . S
C824 C823 1.405 . S
C824 C825 1.383 . S
C825 C824 1.383 . S
C825 C826 1.393 . S
C826 H791 0.931 . S
C826 C825 1.393 . S
C826 C827 1.382 . S
C827 H792 0.929 . S
C827 C822 1.371 . S
C827 C826 1.382 . S
C828 N796 1.423 . S
C828 C829 1.362 . S
C828 C833 1.388 . S
C829 H793 0.929 . S
C829 C828 1.362 . S
C829 C830 1.376 . S
C830 H794 0.931 . S
C830 C829 1.376 . S
C830 C831 1.396 . S
C831 C813 1.472 . S
C831 C830 1.396 . S
C831 C832 1.348 . S
C832 H795 0.929 . S
C832 C831 1.348 . S
C832 C833 1.443 . S
C833 H797 0.932 . S
C833 C828 1.388 . S
C833 C832 1.443 . S
H834 C861 0.929 . S
N835 C860 1.433 . S
N835 C866 1.435 . S
N835 C872 1.423 . S
H836 C862 0.930 . S
H837 C865 0.931 . S
H838 C864 0.929 . S
H839 C867 0.930 . S
H840 C868 0.932 . S
H841 C871 0.929 . S
H842 C870 0.931 . S
H843 C873 0.929 . S
H844 C877 0.932 . S
H845 C874 0.931 . S
H846 C876 0.929 . S
H847 C879 0.929 . S
H848 C880 0.930 . S
H849 C882 0.929 . S
H850 C883 0.931 . S
H851 C885 0.930 . S
H852 C886 0.932 . S
H853 C888 0.931 . S
H854 C889 0.929 . S
H855 C891 0.929 . S
H856 C892 0.931 . S
H857 C894 0.929 . S
N858 C878 1.433 . S
N858 C884 1.435 . S
N858 C890 1.423 . S
H859 C895 0.932 . S
C860 N835 1.433 . S
C860 C861 1.363 . S
C860 C865 1.370 . S
C861 H834 0.929 . S
C861 C860 1.363 . S
C861 C862 1.385 . S
C862 H836 0.930 . S
C862 C861 1.385 . S
C862 C863 1.357 . S
C863 C862 1.357 . S
C863 C864 1.406 . S
C864 H838 0.929 . S
C864 C863 1.406 . S
C864 C865 1.391 . S
C865 H837 0.931 . S
C865 C860 1.370 . S
C865 C864 1.391 . S
C866 N835 1.435 . S
C866 C867 1.358 . S
C866 C871 1.371 . S
C867 H839 0.930 . S
C867 C866 1.358 . S
C867 C868 1.405 . S
C868 H840 0.932 . S
C868 C867 1.405 . S
C868 C869 1.383 . S
C869 C868 1.383 . S
C869 C870 1.393 . S
C870 H842 0.931 . S
C870 C869 1.393 . S
C870 C871 1.382 . S
C871 H841 0.929 . S
C871 C866 1.371 . S
C871 C870 1.382 . S
C872 N835 1.423 . S
C872 C873 1.362 . S
C872 C877 1.388 . S
C873 H843 0.929 . S
C873 C872 1.362 . S
C873 C874 1.376 . S
C874 H845 0.931 . S
C874 C873 1.376 . S
C874 C875 1.396 . S
C875 C874 1.396 . S
C875 C876 1.348 . S
C875 C893 1.472 . S
C876 H846 0.929 . S
C876 C875 1.348 . S
C876 C877 1.443 . S
C877 H844 0.932 . S
C877 C872 1.388 . S
C877 C876 1.443 . S
C878 N858 1.433 . S
C878 C879 1.363 . S
C878 C883 1.370 . S
C879 H847 0.929 . S
C879 C878 1.363 . S
C879 C880 1.385 . S
C880 H848 0.930 . S
C880 C879 1.385 . S
C880 C881 1.357 . S
C881 C880 1.357 . S
C881 C882 1.406 . S
C882 H849 0.929 . S
C882 C881 1.406 . S
C882 C883 1.391 . S
C883 H850 0.931 . S
C883 C878 1.370 . S
C883 C882 1.391 . S
C884 N858 1.435 . S
C884 C885 1.358 . S
C884 C889 1.371 . S
C885 H851 0.930 . S
C885 C884 1.358 . S
C885 C886 1.405 . S
C886 H852 0.932 . S
C886 C885 1.405 . S
C886 C887 1.383 . S
C887 C886 1.383 . S
C887 C888 1.393 . S
C888 H853 0.931 . S
C888 C887 1.393 . S
C888 C889 1.382 . S
C889 H854 0.929 . S
C889 C884 1.371 . S
C889 C888 1.382 . S
C890 N858 1.423 . S
C890 C891 1.362 . S
C890 C895 1.388 . S
C891 H855 0.929 . S
C891 C890 1.362 . S
C891 C892 1.376 . S
C892 H856 0.931 . S
C892 C891 1.376 . S
C892 C893 1.396 . S
C893 C875 1.472 . S
C893 C892 1.396 . S
C893 C894 1.348 . S
C894 H857 0.929 . S
C894 C893 1.348 . S
C894 C895 1.443 . S
C895 H859 0.932 . S
C895 C890 1.388 . S
C895 C894 1.443 . S
H896 C923 0.929 . S
N897 C922 1.433 . S
N897 C928 1.435 . S
N897 C934 1.423 . S
H898 C924 0.930 . S
H899 C927 0.931 . S
H900 C926 0.929 . S
H901 C929 0.930 . S
H902 C930 0.932 . S
H903 C933 0.929 . S
H904 C932 0.931 . S
H905 C935 0.929 . S
H906 C939 0.932 . S
H907 C936 0.931 . S
H908 C938 0.929 . S
H909 C941 0.929 . S
H910 C942 0.930 . S
H911 C944 0.929 . S
H912 C945 0.931 . S
H913 C947 0.930 . S
H914 C948 0.932 . S
H915 C950 0.931 . S
H916 C951 0.929 . S
H917 C953 0.929 . S
H918 C954 0.931 . S
H919 C956 0.929 . S
N920 C940 1.433 . S
N920 C946 1.435 . S
N920 C952 1.423 . S
H921 C957 0.932 . S
C922 N897 1.433 . S
C922 C923 1.363 . S
C922 C927 1.370 . S
C923 H896 0.929 . S
C923 C922 1.363 . S
C923 C924 1.385 . S
C924 H898 0.930 . S
C924 C923 1.385 . S
C924 C925 1.357 . S
C925 C924 1.357 . S
C925 C926 1.406 . S
C926 H900 0.929 . S
C926 C925 1.406 . S
C926 C927 1.391 . S
C927 H899 0.931 . S
C927 C922 1.370 . S
C927 C926 1.391 . S
C928 N897 1.435 . S
C928 C929 1.358 . S
C928 C933 1.371 . S
C929 H901 0.930 . S
C929 C928 1.358 . S
C929 C930 1.405 . S
C930 H902 0.932 . S
C930 C929 1.405 . S
C930 C931 1.383 . S
C931 C930 1.383 . S
C931 C932 1.393 . S
C932 H904 0.931 . S
C932 C931 1.393 . S
C932 C933 1.382 . S
C933 H903 0.929 . S
C933 C928 1.371 . S
C933 C932 1.382 . S
C934 N897 1.423 . S
C934 C935 1.362 . S
C934 C939 1.388 . S
C935 H905 0.929 . S
C935 C934 1.362 . S
C935 C936 1.376 . S
C936 H907 0.931 . S
C936 C935 1.376 . S
C936 C937 1.396 . S
C937 C936 1.396 . S
C937 C938 1.348 . S
C937 C955 1.472 . S
C938 H908 0.929 . S
C938 C937 1.348 . S
C938 C939 1.443 . S
C939 H906 0.932 . S
C939 C934 1.388 . S
C939 C938 1.443 . S
C940 N920 1.433 . S
C940 C941 1.363 . S
C940 C945 1.370 . S
C941 H909 0.929 . S
C941 C940 1.363 . S
C941 C942 1.385 . S
C942 H910 0.930 . S
C942 C941 1.385 . S
C942 C943 1.357 . S
C943 C942 1.357 . S
C943 C944 1.406 . S
C944 H911 0.929 . S
C944 C943 1.406 . S
C944 C945 1.391 . S
C945 H912 0.931 . S
C945 C940 1.370 . S
C945 C944 1.391 . S
C946 N920 1.435 . S
C946 C947 1.358 . S
C946 C951 1.371 . S
C947 H913 0.930 . S
C947 C946 1.358 . S
C947 C948 1.405 . S
C948 H914 0.932 . S
C948 C947 1.405 . S
C948 C949 1.383 . S
C949 C948 1.383 . S
C949 C950 1.393 . S
C950 H915 0.931 . S
C950 C949 1.393 . S
C950 C951 1.382 . S
C951 H916 0.929 . S
C951 C946 1.371 . S
C951 C950 1.382 . S
C952 N920 1.423 . S
C952 C953 1.362 . S
C952 C957 1.388 . S
C953 H917 0.929 . S
C953 C952 1.362 . S
C953 C954 1.376 . S
C954 H918 0.931 . S
C954 C953 1.376 . S
C954 C955 1.396 . S
C955 C937 1.472 . S
C955 C954 1.396 . S
C955 C956 1.348 . S
C956 H919 0.929 . S
C956 C955 1.348 . S
C956 C957 1.443 . S
C957 H921 0.932 . S
C957 C952 1.388 . S
C957 C956 1.443 . S
H958 C985 0.929 . S
N959 C984 1.433 . S
N959 C990 1.435 . S
N959 C996 1.423 . S
H960 C986 0.930 . S
H961 C989 0.931 . S
H962 C988 0.929 . S
H963 C991 0.930 . S
H964 C992 0.932 . S
H965 C995 0.929 . S
H966 C994 0.931 . S
H967 C997 0.929 . S
H968 C1001 0.932 . S
H969 C998 0.931 . S
H970 C1000 0.929 . S
H971 C1003 0.929 . S
H972 C1004 0.930 . S
H973 C1006 0.929 . S
H974 C1007 0.931 . S
H975 C1009 0.930 . S
H976 C1010 0.932 . S
H977 C1012 0.931 . S
H978 C1013 0.929 . S
H979 C1015 0.929 . S
H980 C1016 0.931 . S
H981 C1018 0.929 . S
N982 C1002 1.433 . S
N982 C1008 1.435 . S
N982 C1014 1.423 . S
H983 C1019 0.932 . S
C984 N959 1.433 . S
C984 C985 1.363 . S
C984 C989 1.370 . S
C985 H958 0.929 . S
C985 C984 1.363 . S
C985 C986 1.385 . S
C986 H960 0.930 . S
C986 C985 1.385 . S
C986 C987 1.357 . S
C987 C986 1.357 . S
C987 C988 1.406 . S
C988 H962 0.929 . S
C988 C987 1.406 . S
C988 C989 1.391 . S
C989 H961 0.931 . S
C989 C984 1.370 . S
C989 C988 1.391 . S
C990 N959 1.435 . S
C990 C991 1.358 . S
C990 C995 1.371 . S
C991 H963 0.930 . S
C991 C990 1.358 . S
C991 C992 1.405 . S
C992 H964 0.932 . S
C992 C991 1.405 . S
C992 C993 1.383 . S
C993 C992 1.383 . S
C993 C994 1.393 . S
C994 H966 0.931 . S
C994 C993 1.393 . S
C994 C995 1.382 . S
C995 H965 0.929 . S
C995 C990 1.371 . S
C995 C994 1.382 . S
C996 N959 1.423 . S
C996 C997 1.362 . S
C996 C1001 1.388 . S
C997 H967 0.929 . S
C997 C996 1.362 . S
C997 C998 1.376 . S
C998 H969 0.931 . S
C998 C997 1.376 . S
C998 C999 1.396 . S
C999 C998 1.396 . S
C999 C1000 1.348 . S
C999 C1017 1.472 . S
C1000 H970 0.929 . S
C1000 C999 1.348 . S
C1000 C1001 1.443 . S
C1001 H968 0.932 . S
C1001 C996 1.388 . S
C1001 C1000 1.443 . S
C1002 N982 1.433 . S
C1002 C1003 1.363 . S
C1002 C1007 1.370 . S
C1003 H971 0.929 . S
C1003 C1002 1.363 . S
C1003 C1004 1.385 . S
C1004 H972 0.930 . S
C1004 C1003 1.385 . S
C1004 C1005 1.357 . S
C1005 C1004 1.357 . S
C1005 C1006 1.406 . S
C1006 H973 0.929 . S
C1006 C1005 1.406 . S
C1006 C1007 1.391 . S
C1007 H974 0.931 . S
C1007 C1002 1.370 . S
C1007 C1006 1.391 . S
C1008 N982 1.435 . S
C1008 C1009 1.358 . S
C1008 C1013 1.371 . S
C1009 H975 0.930 . S
C1009 C1008 1.358 . S
C1009 C1010 1.405 . S
C1010 H976 0.932 . S
C1010 C1009 1.405 . S
C1010 C1011 1.383 . S
C1011 C1010 1.383 . S
C1011 C1012 1.393 . S
C1012 H977 0.931 . S
C1012 C1011 1.393 . S
C1012 C1013 1.382 . S
C1013 H978 0.929 . S
C1013 C1008 1.371 . S
C1013 C1012 1.382 . S
C1014 N982 1.423 . S
C1014 C1015 1.362 . S
C1014 C1019 1.388 . S
C1015 H979 0.929 . S
C1015 C1014 1.362 . S
C1015 C1016 1.376 . S
C1016 H980 0.931 . S
C1016 C1015 1.376 . S
C1016 C1017 1.396 . S
C1017 C999 1.472 . S
C1017 C1016 1.396 . S
C1017 C1018 1.348 . S
C1018 H981 0.929 . S
C1018 C1017 1.348 . S
C1018 C1019 1.443 . S
C1019 H983 0.932 . S
C1019 C1014 1.388 . S
C1019 C1018 1.443 . S
H1020 C1047 0.929 . S
N1021 C1046 1.433 . S
N1021 C1052 1.435 . S
N1021 C1058 1.423 . S
H1022 C1048 0.930 . S
H1023 C1051 0.931 . S
H1024 C1050 0.929 . S
H1025 C1053 0.930 . S
H1026 C1054 0.932 . S
H1027 C1057 0.929 . S
H1028 C1056 0.931 . S
H1029 C1059 0.929 . S
H1030 C1063 0.932 . S
H1031 C1060 0.931 . S
H1032 C1062 0.929 . S
H1033 C1065 0.929 . S
H1034 C1066 0.930 . S
H1035 C1068 0.929 . S
H1036 C1069 0.931 . S
H1037 C1071 0.930 . S
H1038 C1072 0.932 . S
H1039 C1074 0.931 . S
H1040 C1075 0.929 . S
H1041 C1077 0.929 . S
H1042 C1078 0.931 . S
H1043 C1080 0.929 . S
N1044 C1064 1.433 . S
N1044 C1070 1.435 . S
N1044 C1076 1.423 . S
H1045 C1081 0.932 . S
C1046 N1021 1.433 . S
C1046 C1047 1.363 . S
C1046 C1051 1.370 . S
C1047 H1020 0.929 . S
C1047 C1046 1.363 . S
C1047 C1048 1.385 . S
C1048 H1022 0.930 . S
C1048 C1047 1.385 . S
C1048 C1049 1.357 . S
C1049 C1048 1.357 . S
C1049 C1050 1.406 . S
C1050 H1024 0.929 . S
C1050 C1049 1.406 . S
C1050 C1051 1.391 . S
C1051 H1023 0.931 . S
C1051 C1046 1.370 . S
C1051 C1050 1.391 . S
C1052 N1021 1.435 . S
C1052 C1053 1.358 . S
C1052 C1057 1.371 . S
C1053 H1025 0.930 . S
C1053 C1052 1.358 . S
C1053 C1054 1.405 . S
C1054 H1026 0.932 . S
C1054 C1053 1.405 . S
C1054 C1055 1.383 . S
C1055 C1054 1.383 . S
C1055 C1056 1.393 . S
C1056 H1028 0.931 . S
C1056 C1055 1.393 . S
C1056 C1057 1.382 . S
C1057 H1027 0.929 . S
C1057 C1052 1.371 . S
C1057 C1056 1.382 . S
C1058 N1021 1.423 . S
C1058 C1059 1.362 . S
C1058 C1063 1.388 . S
C1059 H1029 0.929 . S
C1059 C1058 1.362 . S
C1059 C1060 1.376 . S
C1060 H1031 0.931 . S
C1060 C1059 1.376 . S
C1060 C1061 1.396 . S
C1061 C1060 1.396 . S
C1061 C1062 1.348 . S
C1061 C1079 1.472 . S
C1062 H1032 0.929 . S
C1062 C1061 1.348 . S
C1062 C1063 1.443 . S
C1063 H1030 0.932 . S
C1063 C1058 1.388 . S
C1063 C1062 1.443 . S
C1064 N1044 1.433 . S
C1064 C1065 1.363 . S
C1064 C1069 1.370 . S
C1065 H1033 0.929 . S
C1065 C1064 1.363 . S
C1065 C1066 1.385 . S
C1066 H1034 0.930 . S
C1066 C1065 1.385 . S
C1066 C1067 1.357 . S
C1067 C1066 1.357 . S
C1067 C1068 1.406 . S
C1068 H1035 0.929 . S
C1068 C1067 1.406 . S
C1068 C1069 1.391 . S
C1069 H1036 0.931 . S
C1069 C1064 1.370 . S
C1069 C1068 1.391 . S
C1070 N1044 1.435 . S
C1070 C1071 1.358 . S
C1070 C1075 1.371 . S
C1071 H1037 0.930 . S
C1071 C1070 1.358 . S
C1071 C1072 1.405 . S
C1072 H1038 0.932 . S
C1072 C1071 1.405 . S
C1072 C1073 1.383 . S
C1073 C1072 1.383 . S
C1073 C1074 1.393 . S
C1074 H1039 0.931 . S
C1074 C1073 1.393 . S
C1074 C1075 1.382 . S
C1075 H1040 0.929 . S
C1075 C1070 1.371 . S
C1075 C1074 1.382 . S
C1076 N1044 1.423 . S
C1076 C1077 1.362 . S
C1076 C1081 1.388 . S
C1077 H1041 0.929 . S
C1077 C1076 1.362 . S
C1077 C1078 1.376 . S
C1078 H1042 0.931 . S
C1078 C1077 1.376 . S
C1078 C1079 1.396 . S
C1079 C1061 1.472 . S
C1079 C1078 1.396 . S
C1079 C1080 1.348 . S
C1080 H1043 0.929 . S
C1080 C1079 1.348 . S
C1080 C1081 1.443 . S
C1081 H1045 0.932 . S
C1081 C1076 1.388 . S
C1081 C1080 1.443 . S
H1082 C1109 0.929 . S
N1083 C1108 1.433 . S
N1083 C1114 1.435 . S
N1083 C1120 1.423 . S
H1084 C1110 0.930 . S
H1085 C1113 0.931 . S
H1086 C1112 0.929 . S
H1087 C1115 0.930 . S
H1088 C1116 0.932 . S
H1089 C1119 0.929 . S
H1090 C1118 0.931 . S
H1091 C1121 0.929 . S
H1092 C1125 0.932 . S
H1093 C1122 0.931 . S
H1094 C1124 0.929 . S
H1095 C1127 0.929 . S
H1096 C1128 0.930 . S
H1097 C1130 0.929 . S
H1098 C1131 0.931 . S
H1099 C1133 0.930 . S
H1100 C1134 0.932 . S
H1101 C1136 0.931 . S
H1102 C1137 0.929 . S
H1103 C1139 0.929 . S
H1104 C1140 0.931 . S
H1105 C1142 0.929 . S
N1106 C1126 1.433 . S
N1106 C1132 1.435 . S
N1106 C1138 1.423 . S
H1107 C1143 0.932 . S
C1108 N1083 1.433 . S
C1108 C1109 1.363 . S
C1108 C1113 1.370 . S
C1109 H1082 0.929 . S
C1109 C1108 1.363 . S
C1109 C1110 1.385 . S
C1110 H1084 0.930 . S
C1110 C1109 1.385 . S
C1110 C1111 1.357 . S
C1111 C1110 1.357 . S
C1111 C1112 1.406 . S
C1112 H1086 0.929 . S
C1112 C1111 1.406 . S
C1112 C1113 1.391 . S
C1113 H1085 0.931 . S
C1113 C1108 1.370 . S
C1113 C1112 1.391 . S
C1114 N1083 1.435 . S
C1114 C1115 1.358 . S
C1114 C1119 1.371 . S
C1115 H1087 0.930 . S
C1115 C1114 1.358 . S
C1115 C1116 1.405 . S
C1116 H1088 0.932 . S
C1116 C1115 1.405 . S
C1116 C1117 1.383 . S
C1117 C1116 1.383 . S
C1117 C1118 1.393 . S
C1118 H1090 0.931 . S
C1118 C1117 1.393 . S
C1118 C1119 1.382 . S
C1119 H1089 0.929 . S
C1119 C1114 1.371 . S
C1119 C1118 1.382 . S
C1120 N1083 1.423 . S
C1120 C1121 1.362 . S
C1120 C1125 1.388 . S
C1121 H1091 0.929 . S
C1121 C1120 1.362 . S
C1121 C1122 1.376 . S
C1122 H1093 0.931 . S
C1122 C1121 1.376 . S
C1122 C1123 1.396 . S
C1123 C1122 1.396 . S
C1123 C1124 1.348 . S
C1123 C1141 1.472 . S
C1124 H1094 0.929 . S
C1124 C1123 1.348 . S
C1124 C1125 1.443 . S
C1125 H1092 0.932 . S
C1125 C1120 1.388 . S
C1125 C1124 1.443 . S
C1126 N1106 1.433 . S
C1126 C1127 1.363 . S
C1126 C1131 1.370 . S
C1127 H1095 0.929 . S
C1127 C1126 1.363 . S
C1127 C1128 1.385 . S
C1128 H1096 0.930 . S
C1128 C1127 1.385 . S
C1128 C1129 1.357 . S
C1129 C1128 1.357 . S
C1129 C1130 1.406 . S
C1130 H1097 0.929 . S
C1130 C1129 1.406 . S
C1130 C1131 1.391 . S
C1131 H1098 0.931 . S
C1131 C1126 1.370 . S
C1131 C1130 1.391 . S
C1132 N1106 1.435 . S
C1132 C1133 1.358 . S
C1132 C1137 1.371 . S
C1133 H1099 0.930 . S
C1133 C1132 1.358 . S
C1133 C1134 1.405 . S
C1134 H1100 0.932 . S
C1134 C1133 1.405 . S
C1134 C1135 1.383 . S
C1135 C1134 1.383 . S
C1135 C1136 1.393 . S
C1136 H1101 0.931 . S
C1136 C1135 1.393 . S
C1136 C1137 1.382 . S
C1137 H1102 0.929 . S
C1137 C1132 1.371 . S
C1137 C1136 1.382 . S
C1138 N1106 1.423 . S
C1138 C1139 1.362 . S
C1138 C1143 1.388 . S
C1139 H1103 0.929 . S
C1139 C1138 1.362 . S
C1139 C1140 1.376 . S
C1140 H1104 0.931 . S
C1140 C1139 1.376 . S
C1140 C1141 1.396 . S
C1141 C1123 1.472 . S
C1141 C1140 1.396 . S
C1141 C1142 1.348 . S
C1142 H1105 0.929 . S
C1142 C1141 1.348 . S
C1142 C1143 1.443 . S
C1143 H1107 0.932 . S
C1143 C1138 1.388 . S
C1143 C1142 1.443 . S
H1144 C1171 0.929 . S
N1145 C1170 1.433 . S
N1145 C1176 1.435 . S
N1145 C1182 1.423 . S
H1146 C1172 0.930 . S
H1147 C1175 0.931 . S
H1148 C1174 0.929 . S
H1149 C1177 0.930 . S
H1150 C1178 0.932 . S
H1151 C1181 0.929 . S
H1152 C1180 0.931 . S
H1153 C1183 0.929 . S
H1154 C1187 0.932 . S
H1155 C1184 0.931 . S
H1156 C1186 0.929 . S
H1157 C1189 0.929 . S
H1158 C1190 0.930 . S
H1159 C1192 0.929 . S
H1160 C1193 0.931 . S
H1161 C1195 0.930 . S
H1162 C1196 0.932 . S
H1163 C1198 0.931 . S
H1164 C1199 0.929 . S
H1165 C1201 0.929 . S
H1166 C1202 0.931 . S
H1167 C1204 0.929 . S
N1168 C1188 1.433 . S
N1168 C1194 1.435 . S
N1168 C1200 1.423 . S
H1169 C1205 0.932 . S
C1170 N1145 1.433 . S
C1170 C1171 1.363 . S
C1170 C1175 1.370 . S
C1171 H1144 0.929 . S
C1171 C1170 1.363 . S
C1171 C1172 1.385 . S
C1172 H1146 0.930 . S
C1172 C1171 1.385 . S
C1172 C1173 1.357 . S
C1173 C1172 1.357 . S
C1173 C1174 1.406 . S
C1174 H1148 0.929 . S
C1174 C1173 1.406 . S
C1174 C1175 1.391 . S
C1175 H1147 0.931 . S
C1175 C1170 1.370 . S
C1175 C1174 1.391 . S
C1176 N1145 1.435 . S
C1176 C1177 1.358 . S
C1176 C1181 1.371 . S
C1177 H1149 0.930 . S
C1177 C1176 1.358 . S
C1177 C1178 1.405 . S
C1178 H1150 0.932 . S
C1178 C1177 1.405 . S
C1178 C1179 1.383 . S
C1179 C1178 1.383 . S
C1179 C1180 1.393 . S
C1180 H1152 0.931 . S
C1180 C1179 1.393 . S
C1180 C1181 1.382 . S
C1181 H1151 0.929 . S
C1181 C1176 1.371 . S
C1181 C1180 1.382 . S
C1182 N1145 1.423 . S
C1182 C1183 1.362 . S
C1182 C1187 1.388 . S
C1183 H1153 0.929 . S
C1183 C1182 1.362 . S
C1183 C1184 1.376 . S
C1184 H1155 0.931 . S
C1184 C1183 1.376 . S
C1184 C1185 1.396 . S
C1185 C1184 1.396 . S
C1185 C1186 1.348 . S
C1185 C1203 1.472 . S
C1186 H1156 0.929 . S
C1186 C1185 1.348 . S
C1186 C1187 1.443 . S
C1187 H1154 0.932 . S
C1187 C1182 1.388 . S
C1187 C1186 1.443 . S
C1188 N1168 1.433 . S
C1188 C1189 1.363 . S
C1188 C1193 1.370 . S
C1189 H1157 0.929 . S
C1189 C1188 1.363 . S
C1189 C1190 1.385 . S
C1190 H1158 0.930 . S
C1190 C1189 1.385 . S
C1190 C1191 1.357 . S
C1191 C1190 1.357 . S
C1191 C1192 1.406 . S
C1192 H1159 0.929 . S
C1192 C1191 1.406 . S
C1192 C1193 1.391 . S
C1193 H1160 0.931 . S
C1193 C1188 1.370 . S
C1193 C1192 1.391 . S
C1194 N1168 1.435 . S
C1194 C1195 1.358 . S
C1194 C1199 1.371 . S
C1195 H1161 0.930 . S
C1195 C1194 1.358 . S
C1195 C1196 1.405 . S
C1196 H1162 0.932 . S
C1196 C1195 1.405 . S
C1196 C1197 1.383 . S
C1197 C1196 1.383 . S
C1197 C1198 1.393 . S
C1198 H1163 0.931 . S
C1198 C1197 1.393 . S
C1198 C1199 1.382 . S
C1199 H1164 0.929 . S
C1199 C1194 1.371 . S
C1199 C1198 1.382 . S
C1200 N1168 1.423 . S
C1200 C1201 1.362 . S
C1200 C1205 1.388 . S
C1201 H1165 0.929 . S
C1201 C1200 1.362 . S
C1201 C1202 1.376 . S
C1202 H1166 0.931 . S
C1202 C1201 1.376 . S
C1202 C1203 1.396 . S
C1203 C1185 1.472 . S
C1203 C1202 1.396 . S
C1203 C1204 1.348 . S
C1204 H1167 0.929 . S
C1204 C1203 1.348 . S
C1204 C1205 1.443 . S
C1205 H1169 0.932 . S
C1205 C1200 1.388 . S
C1205 C1204 1.443 . S
H1206 C1233 0.929 . S
N1207 C1232 1.433 . S
N1207 C1238 1.435 . S
N1207 C1244 1.423 . S
H1208 C1234 0.930 . S
H1209 C1237 0.931 . S
H1210 C1236 0.929 . S
H1211 C1239 0.930 . S
H1212 C1240 0.932 . S
H1213 C1243 0.929 . S
H1214 C1242 0.931 . S
H1215 C1245 0.929 . S
H1216 C1249 0.932 1_655 S
H1217 C1246 0.931 . S
H1218 C1248 0.939 . S
H1219 C1251 0.929 . S
H1220 C1252 0.930 . S
H1221 C1254 0.929 . S
H1222 C1255 0.931 . S
H1223 C1257 0.930 . S
H1224 C1258 0.932 . S
H1225 C1260 0.931 . S
H1226 C1261 0.929 . S
H1227 C1263 0.929 . S
H1228 C1264 0.931 . S
H1229 C1266 0.966 . S
N1230 C1250 1.433 . S
N1230 C1256 1.435 . S
N1230 C1262 1.423 . S
H1231 C1267 0.932 1_655 S
C1232 N1207 1.433 . S
C1232 C1233 1.363 . S
C1232 C1237 1.370 1_455 S
C1233 H1206 0.929 . S
C1233 C1232 1.363 . S
C1233 C1234 1.385 . S
C1234 H1208 0.930 . S
C1234 C1233 1.385 . S
C1234 C1235 1.357 1_455 S
C1235 C1234 1.357 1_655 S
C1235 C1236 1.406 . S
C1236 H1210 0.929 . S
C1236 C1235 1.406 . S
C1236 C1237 1.391 . S
C1237 H1209 0.931 . S
C1237 C1232 1.370 1_655 S
C1237 C1236 1.391 . S
C1238 N1207 1.435 . S
C1238 C1239 1.358 1_455 S
C1238 C1243 1.371 . S
C1239 H1211 0.930 . S
C1239 C1238 1.358 1_655 S
C1239 C1240 1.405 . S
C1240 H1212 0.932 . S
C1240 C1239 1.405 . S
C1240 C1241 1.383 1_655 S
C1241 C1240 1.383 1_455 S
C1241 C1242 1.393 . S
C1242 H1214 0.931 . S
C1242 C1241 1.393 . S
C1242 C1243 1.382 . S
C1243 H1213 0.929 . S
C1243 C1238 1.371 . S
C1243 C1242 1.382 . S
C1244 N1207 1.423 . S
C1244 C1245 1.362 . S
C1244 C1249 1.388 . S
C1245 H1215 0.929 . S
C1245 C1244 1.362 . S
C1245 C1246 1.376 . S
C1246 H1217 0.931 . S
C1246 C1245 1.376 . S
C1246 C1247 1.396 . S
C1247 C1246 1.396 . S
C1247 C1248 1.348 . S
C1247 C1265 1.472 . S
C1248 H1218 0.939 . S
C1248 C1247 1.348 . S
C1248 C1249 1.443 . S
C1249 H1216 0.932 1_455 S
C1249 C1244 1.388 . S
C1249 C1248 1.443 . S
C1250 N1230 1.433 . S
C1250 C1251 1.363 . S
C1250 C1255 1.370 1_455 S
C1251 H1219 0.929 . S
C1251 C1250 1.363 . S
C1251 C1252 1.385 . S
C1252 H1220 0.930 . S
C1252 C1251 1.385 . S
C1252 C1253 1.357 1_455 S
C1253 C1252 1.357 1_655 S
C1253 C1254 1.406 . S
C1254 H1221 0.929 . S
C1254 C1253 1.406 . S
C1254 C1255 1.391 . S
C1255 H1222 0.931 . S
C1255 C1250 1.370 1_655 S
C1255 C1254 1.391 . S
C1256 N1230 1.435 . S
C1256 C1257 1.358 1_455 S
C1256 C1261 1.371 . S
C1257 H1223 0.930 . S
C1257 C1256 1.358 1_655 S
C1257 C1258 1.405 . S
C1258 H1224 0.932 . S
C1258 C1257 1.405 . S
C1258 C1259 1.383 1_655 S
C1259 C1258 1.383 1_455 S
C1259 C1260 1.393 . S
C1260 H1225 0.931 . S
C1260 C1259 1.393 . S
C1260 C1261 1.382 . S
C1261 H1226 0.929 . S
C1261 C1256 1.371 . S
C1261 C1260 1.382 . S
C1262 N1230 1.423 . S
C1262 C1263 1.362 . S
C1262 C1267 1.388 . S
C1263 H1227 0.929 . S
C1263 C1262 1.362 . S
C1263 C1264 1.376 . S
C1264 H1228 0.931 . S
C1264 C1263 1.376 . S
C1264 C1265 1.396 . S
C1265 C1247 1.472 . S
C1265 C1264 1.396 . S
C1265 C1266 1.348 . S
C1266 H1229 0.966 . S
C1266 C1265 1.348 . S
C1266 C1267 1.443 . S
C1267 H1231 0.932 1_455 S
C1267 C1262 1.388 . S
C1267 C1266 1.443 . S
H1268 C1295 0.929 . S
N1269 C1294 1.433 . S
N1269 C1300 1.435 . S
N1269 C1306 1.423 . S
H1270 C1296 0.930 . S
H1271 C1299 0.931 . S
H1272 C1298 0.929 . S
H1273 C1301 0.930 . S
H1274 C1302 0.932 . S
H1275 C1305 0.929 . S
H1276 C1304 0.931 . S
H1277 C1307 0.929 . S
H1278 C1311 0.932 . S
H1279 C1308 0.931 . S
H1280 C1310 0.929 . S
H1281 C1313 0.929 . S
H1282 C1314 0.930 . S
H1283 C1316 0.929 . S
H1284 C1317 0.931 . S
H1285 C1319 0.930 . S
H1286 C1320 0.932 . S
H1287 C1322 0.931 . S
H1288 C1323 0.929 . S
H1289 C1325 0.929 . S
H1290 C1326 0.931 . S
H1291 C1328 0.929 . S
N1292 C1312 1.433 . S
N1292 C1318 1.435 . S
N1292 C1324 1.423 . S
H1293 C1329 0.932 . S
C1294 N1269 1.433 . S
C1294 C1295 1.363 . S
C1294 C1299 1.370 . S
C1295 H1268 0.929 . S
C1295 C1294 1.363 . S
C1295 C1296 1.385 . S
C1296 H1270 0.930 . S
C1296 C1295 1.385 . S
C1296 C1297 1.357 . S
C1297 C1296 1.357 . S
C1297 C1298 1.406 . S
C1298 H1272 0.929 . S
C1298 C1297 1.406 . S
C1298 C1299 1.391 . S
C1299 H1271 0.931 . S
C1299 C1294 1.370 . S
C1299 C1298 1.391 . S
C1300 N1269 1.435 . S
C1300 C1301 1.358 . S
C1300 C1305 1.371 . S
C1301 H1273 0.930 . S
C1301 C1300 1.358 . S
C1301 C1302 1.405 . S
C1302 H1274 0.932 . S
C1302 C1301 1.405 . S
C1302 C1303 1.383 . S
C1303 C1302 1.383 . S
C1303 C1304 1.393 . S
C1304 H1276 0.931 . S
C1304 C1303 1.393 . S
C1304 C1305 1.382 . S
C1305 H1275 0.929 . S
C1305 C1300 1.371 . S
C1305 C1304 1.382 . S
C1306 N1269 1.423 . S
C1306 C1307 1.362 . S
C1306 C1311 1.388 . S
C1307 H1277 0.929 . S
C1307 C1306 1.362 . S
C1307 C1308 1.376 . S
C1308 H1279 0.931 . S
C1308 C1307 1.376 . S
C1308 C1309 1.396 . S
C1309 C1308 1.396 . S
C1309 C1310 1.348 . S
C1309 C1327 1.472 . S
C1310 H1280 0.929 . S
C1310 C1309 1.348 . S
C1310 C1311 1.443 . S
C1311 H1278 0.932 . S
C1311 C1306 1.388 . S
C1311 C1310 1.443 . S
C1312 N1292 1.433 . S
C1312 C1313 1.363 . S
C1312 C1317 1.370 . S
C1313 H1281 0.929 . S
C1313 C1312 1.363 . S
C1313 C1314 1.385 . S
C1314 H1282 0.930 . S
C1314 C1313 1.385 . S
C1314 C1315 1.357 . S
C1315 C1314 1.357 . S
C1315 C1316 1.406 . S
C1316 H1283 0.929 . S
C1316 C1315 1.406 . S
C1316 C1317 1.391 . S
C1317 H1284 0.931 . S
C1317 C1312 1.370 . S
C1317 C1316 1.391 . S
C1318 N1292 1.435 . S
C1318 C1319 1.358 . S
C1318 C1323 1.371 . S
C1319 H1285 0.930 . S
C1319 C1318 1.358 . S
C1319 C1320 1.405 . S
C1320 H1286 0.932 . S
C1320 C1319 1.405 . S
C1320 C1321 1.383 . S
C1321 C1320 1.383 . S
C1321 C1322 1.393 . S
C1322 H1287 0.931 . S
C1322 C1321 1.393 . S
C1322 C1323 1.382 . S
C1323 H1288 0.929 . S
C1323 C1318 1.371 . S
C1323 C1322 1.382 . S
C1324 N1292 1.423 . S
C1324 C1325 1.362 . S
C1324 C1329 1.388 . S
C1325 H1289 0.929 . S
C1325 C1324 1.362 . S
C1325 C1326 1.376 . S
C1326 H1290 0.931 . S
C1326 C1325 1.376 . S
C1326 C1327 1.396 . S
C1327 C1309 1.472 . S
C1327 C1326 1.396 . S
C1327 C1328 1.348 . S
C1328 H1291 0.929 . S
C1328 C1327 1.348 . S
C1328 C1329 1.443 . S
C1329 H1293 0.932 . S
C1329 C1324 1.388 . S
C1329 C1328 1.443 . S
H1330 C1357 0.929 . S
N1331 C1356 1.433 . S
N1331 C1362 1.435 . S
N1331 C1368 1.423 . S
H1332 C1358 0.930 . S
H1333 C1361 0.931 . S
H1334 C1360 0.929 . S
H1335 C1363 0.930 . S
H1336 C1364 0.932 . S
H1337 C1367 0.929 . S
H1338 C1366 0.931 . S
H1339 C1369 0.929 . S
H1340 C1373 0.932 1_545 S
H1341 C1370 0.931 . S
H1342 C1372 0.976 . S
H1343 C1375 0.929 . S
H1344 C1376 0.930 . S
H1345 C1378 0.929 . S
H1346 C1379 0.931 . S
H1347 C1381 0.930 . S
H1348 C1382 0.932 . S
H1349 C1384 0.931 . S
H1350 C1385 0.929 . S
H1351 C1387 0.929 . S
H1352 C1388 0.931 . S
H1353 C1390 0.940 . S
N1354 C1374 1.433 . S
N1354 C1380 1.435 . S
N1354 C1386 1.423 . S
H1355 C1391 0.932 1_545 S
C1356 N1331 1.433 . S
C1356 C1357 1.363 . S
C1356 C1361 1.370 1_565 S
C1357 H1330 0.929 . S
C1357 C1356 1.363 . S
C1357 C1358 1.385 . S
C1358 H1332 0.930 . S
C1358 C1357 1.385 . S
C1358 C1359 1.357 1_565 S
C1359 C1358 1.357 1_545 S
C1359 C1360 1.406 . S
C1360 H1334 0.929 . S
C1360 C1359 1.406 . S
C1360 C1361 1.391 . S
C1361 H1333 0.931 . S
C1361 C1356 1.370 1_545 S
C1361 C1360 1.391 . S
C1362 N1331 1.435 . S
C1362 C1363 1.358 1_565 S
C1362 C1367 1.371 . S
C1363 H1335 0.930 . S
C1363 C1362 1.358 1_545 S
C1363 C1364 1.405 . S
C1364 H1336 0.932 . S
C1364 C1363 1.405 . S
C1364 C1365 1.383 1_545 S
C1365 C1364 1.383 1_565 S
C1365 C1366 1.393 . S
C1366 H1338 0.931 . S
C1366 C1365 1.393 . S
C1366 C1367 1.382 . S
C1367 H1337 0.929 . S
C1367 C1362 1.371 . S
C1367 C1366 1.382 . S
C1368 N1331 1.423 . S
C1368 C1369 1.362 . S
C1368 C1373 1.388 . S
C1369 H1339 0.929 . S
C1369 C1368 1.362 . S
C1369 C1370 1.376 . S
C1370 H1341 0.931 . S
C1370 C1369 1.376 . S
C1370 C1371 1.396 . S
C1371 C1370 1.396 . S
C1371 C1372 1.348 . S
C1371 C1389 1.472 . S
C1372 H1342 0.976 . S
C1372 C1371 1.348 . S
C1372 C1373 1.443 . S
C1373 H1340 0.932 1_565 S
C1373 C1368 1.388 . S
C1373 C1372 1.443 . S
C1374 N1354 1.433 . S
C1374 C1375 1.363 . S
C1374 C1379 1.370 1_565 S
C1375 H1343 0.929 . S
C1375 C1374 1.363 . S
C1375 C1376 1.385 . S
C1376 H1344 0.930 . S
C1376 C1375 1.385 . S
C1376 C1377 1.357 1_565 S
C1377 C1376 1.357 1_545 S
C1377 C1378 1.406 . S
C1378 H1345 0.929 . S
C1378 C1377 1.406 . S
C1378 C1379 1.391 . S
C1379 H1346 0.931 . S
C1379 C1374 1.370 1_545 S
C1379 C1378 1.391 . S
C1380 N1354 1.435 . S
C1380 C1381 1.358 1_565 S
C1380 C1385 1.371 . S
C1381 H1347 0.930 . S
C1381 C1380 1.358 1_545 S
C1381 C1382 1.405 . S
C1382 H1348 0.932 . S
C1382 C1381 1.405 . S
C1382 C1383 1.383 1_545 S
C1383 C1382 1.383 1_565 S
C1383 C1384 1.393 . S
C1384 H1349 0.931 . S
C1384 C1383 1.393 . S
C1384 C1385 1.382 . S
C1385 H1350 0.929 . S
C1385 C1380 1.371 . S
C1385 C1384 1.382 . S
C1386 N1354 1.423 . S
C1386 C1387 1.362 . S
C1386 C1391 1.388 . S
C1387 H1351 0.929 . S
C1387 C1386 1.362 . S
C1387 C1388 1.376 . S
C1388 H1352 0.931 . S
C1388 C1387 1.376 . S
C1388 C1389 1.396 . S
C1389 C1371 1.472 . S
C1389 C1388 1.396 . S
C1389 C1390 1.348 . S
C1390 H1353 0.940 . S
C1390 C1389 1.348 . S
C1390 C1391 1.443 . S
C1391 H1355 0.932 1_565 S
C1391 C1386 1.388 . S
C1391 C1390 1.443 . S
H1392 C1419 0.929 . S
N1393 C1418 1.433 . S
N1393 C1424 1.435 . S
N1393 C1430 1.423 . S
H1394 C1420 0.930 . S
H1395 C1423 0.931 . S
H1396 C1422 0.929 . S
H1397 C1425 0.930 . S
H1398 C1426 0.932 . S
H1399 C1429 0.929 . S
H1400 C1428 0.931 . S
H1401 C1431 0.929 . S
H1402 C1435 0.989 . S
H1403 C1432 0.931 . S
H1404 C1434 0.915 1_545 S
H1405 C1437 0.929 . S
H1406 C1438 0.930 . S
H1407 C1440 0.929 . S
H1408 C1441 0.931 . S
H1409 C1443 0.930 . S
H1410 C1444 0.932 . S
H1411 C1446 0.931 . S
H1412 C1447 0.929 . S
H1413 C1449 0.929 . S
H1414 C1450 0.931 . S
H1415 C1452 0.885 1_545 S
N1416 C1436 1.433 . S
N1416 C1442 1.435 . S
N1416 C1448 1.423 . S
H1417 C1453 0.965 . S
C1418 N1393 1.433 . S
C1418 C1419 1.363 . S
C1418 C1423 1.359 1_565 S
C1419 H1392 0.929 . S
C1419 C1418 1.363 . S
C1419 C1420 1.385 . S
C1420 H1394 0.930 . S
C1420 C1419 1.385 . S
C1420 C1421 1.357 . S
C1421 C1420 1.357 . S
C1421 C1422 1.406 1_565 S
C1422 H1396 0.929 . S
C1422 C1421 1.406 1_545 S
C1422 C1423 1.411 . S
C1423 H1395 0.931 . S
C1423 C1418 1.359 1_545 S
C1423 C1422 1.411 . S
C1424 N1393 1.435 . S
C1424 C1425 1.358 1_565 S
C1424 C1429 1.371 . S
C1425 H1397 0.930 . S
C1425 C1424 1.358 1_545 S
C1425 C1426 1.405 . S
C1426 H1398 0.932 . S
C1426 C1425 1.405 . S
C1426 C1427 1.383 . S
C1427 C1426 1.383 . S
C1427 C1428 1.393 1_545 S
C1428 H1400 0.931 . S
C1428 C1427 1.393 1_565 S
C1428 C1429 1.382 . S
C1429 H1399 0.929 . S
C1429 C1424 1.371 . S
C1429 C1428 1.382 . S
C1430 N1393 1.423 . S
C1430 C1431 1.362 . S
C1430 C1435 1.371 1_565 S
C1431 H1401 0.929 . S
C1431 C1430 1.362 . S
C1431 C1432 1.376 . S
C1432 H1403 0.931 . S
C1432 C1431 1.376 . S
C1432 C1433 1.396 . S
C1433 C1432 1.396 . S
C1433 C1434 1.406 . S
C1433 C1451 1.472 . S
C1434 H1404 0.915 1_565 S
C1434 C1433 1.406 . S
C1434 C1435 1.367 1_565 S
C1435 H1402 0.989 . S
C1435 C1430 1.371 1_545 S
C1435 C1434 1.367 1_545 S
C1436 N1416 1.433 . S
C1436 C1437 1.363 . S
C1436 C1441 1.370 1_565 S
C1437 H1405 0.929 . S
C1437 C1436 1.363 . S
C1437 C1438 1.385 . S
C1438 H1406 0.930 . S
C1438 C1437 1.385 . S
C1438 C1439 1.357 . S
C1439 C1438 1.357 . S
C1439 C1440 1.406 1_565 S
C1440 H1407 0.929 . S
C1440 C1439 1.406 1_545 S
C1440 C1441 1.391 . S
C1441 H1408 0.931 . S
C1441 C1436 1.370 1_545 S
C1441 C1440 1.391 . S
C1442 N1416 1.435 . S
C1442 C1443 1.358 1_565 S
C1442 C1447 1.371 . S
C1443 H1409 0.930 . S
C1443 C1442 1.358 1_545 S
C1443 C1444 1.405 . S
C1444 H1410 0.932 . S
C1444 C1443 1.405 . S
C1444 C1445 1.383 . S
C1445 C1444 1.383 . S
C1445 C1446 1.393 1_545 S
C1446 H1411 0.931 . S
C1446 C1445 1.393 1_565 S
C1446 C1447 1.382 . S
C1447 H1412 0.929 . S
C1447 C1442 1.371 . S
C1447 C1446 1.382 . S
C1448 N1416 1.423 . S
C1448 C1449 1.362 . S
C1448 C1453 1.325 1_565 S
C1449 H1413 0.929 . S
C1449 C1448 1.362 . S
C1449 C1450 1.376 . S
C1450 H1414 0.931 . S
C1450 C1449 1.376 . S
C1450 C1451 1.396 . S
C1451 C1433 1.472 . S
C1451 C1450 1.396 . S
C1451 C1452 1.367 . S
C1452 H1415 0.885 1_565 S
C1452 C1451 1.367 . S
C1452 C1453 1.508 1_565 S
C1453 H1417 0.965 . S
C1453 C1448 1.325 1_545 S
C1453 C1452 1.508 1_545 S
H1454 C1481 0.929 . S
N1455 C1480 1.433 . S
N1455 C1486 1.435 . S
N1455 C1492 1.423 . S
H1456 C1482 0.930 . S
H1457 C1485 0.931 . S
H1458 C1484 0.929 . S
H1459 C1487 0.930 . S
H1460 C1488 0.932 . S
H1461 C1491 0.929 . S
H1462 C1490 0.931 . S
H1463 C1493 0.929 . S
H1464 C1497 0.932 1_455 S
H1465 C1494 0.931 . S
H1466 C1496 0.973 . S
H1467 C1499 0.929 . S
H1468 C1500 0.930 . S
H1469 C1502 0.929 . S
H1470 C1503 0.931 . S
H1471 C1505 0.930 . S
H1472 C1506 0.932 . S
H1473 C1508 0.931 . S
H1474 C1509 0.929 . S
H1475 C1511 0.929 . S
H1476 C1512 0.931 . S
H1477 C1514 0.941 . S
N1478 C1498 1.433 . S
N1478 C1504 1.435 . S
N1478 C1510 1.423 . S
H1479 C1515 0.932 1_455 S
C1480 N1455 1.433 . S
C1480 C1481 1.363 . S
C1480 C1485 1.370 1_655 S
C1481 H1454 0.929 . S
C1481 C1480 1.363 . S
C1481 C1482 1.385 . S
C1482 H1456 0.930 . S
C1482 C1481 1.385 . S
C1482 C1483 1.357 1_655 S
C1483 C1482 1.357 1_455 S
C1483 C1484 1.406 . S
C1484 H1458 0.929 . S
C1484 C1483 1.406 . S
C1484 C1485 1.391 . S
C1485 H1457 0.931 . S
C1485 C1480 1.370 1_455 S
C1485 C1484 1.391 . S
C1486 N1455 1.435 . S
C1486 C1487 1.358 1_655 S
C1486 C1491 1.371 . S
C1487 H1459 0.930 . S
C1487 C1486 1.358 1_455 S
C1487 C1488 1.405 . S
C1488 H1460 0.932 . S
C1488 C1487 1.405 . S
C1488 C1489 1.383 1_455 S
C1489 C1488 1.383 1_655 S
C1489 C1490 1.393 . S
C1490 H1462 0.931 . S
C1490 C1489 1.393 . S
C1490 C1491 1.382 . S
C1491 H1461 0.929 . S
C1491 C1486 1.371 . S
C1491 C1490 1.382 . S
C1492 N1455 1.423 . S
C1492 C1493 1.362 . S
C1492 C1497 1.388 . S
C1493 H1463 0.929 . S
C1493 C1492 1.362 . S
C1493 C1494 1.376 . S
C1494 H1465 0.931 . S
C1494 C1493 1.376 . S
C1494 C1495 1.396 . S
C1495 C1494 1.396 . S
C1495 C1496 1.348 . S
C1495 C1513 1.472 . S
C1496 H1466 0.973 . S
C1496 C1495 1.348 . S
C1496 C1497 1.443 . S
C1497 H1464 0.932 1_655 S
C1497 C1492 1.388 . S
C1497 C1496 1.443 . S
C1498 N1478 1.433 . S
C1498 C1499 1.363 . S
C1498 C1503 1.370 1_655 S
C1499 H1467 0.929 . S
C1499 C1498 1.363 . S
C1499 C1500 1.385 . S
C1500 H1468 0.930 . S
C1500 C1499 1.385 . S
C1500 C1501 1.357 1_655 S
C1501 C1500 1.357 1_455 S
C1501 C1502 1.406 . S
C1502 H1469 0.929 . S
C1502 C1501 1.406 . S
C1502 C1503 1.391 . S
C1503 H1470 0.931 . S
C1503 C1498 1.370 1_455 S
C1503 C1502 1.391 . S
C1504 N1478 1.435 . S
C1504 C1505 1.358 1_655 S
C1504 C1509 1.371 . S
C1505 H1471 0.930 . S
C1505 C1504 1.358 1_455 S
C1505 C1506 1.405 . S
C1506 H1472 0.932 . S
C1506 C1505 1.405 . S
C1506 C1507 1.383 1_455 S
C1507 C1506 1.383 1_655 S
C1507 C1508 1.393 . S
C1508 H1473 0.931 . S
C1508 C1507 1.393 . S
C1508 C1509 1.382 . S
C1509 H1474 0.929 . S
C1509 C1504 1.371 . S
C1509 C1508 1.382 . S
C1510 N1478 1.423 . S
C1510 C1511 1.362 . S
C1510 C1515 1.388 . S
C1511 H1475 0.929 . S
C1511 C1510 1.362 . S
C1511 C1512 1.376 . S
C1512 H1476 0.931 . S
C1512 C1511 1.376 . S
C1512 C1513 1.396 . S
C1513 C1495 1.472 . S
C1513 C1512 1.396 . S
C1513 C1514 1.348 . S
C1514 H1477 0.941 . S
C1514 C1513 1.348 . S
C1514 C1515 1.443 . S
C1515 H1479 0.932 1_655 S
C1515 C1510 1.388 . S
C1515 C1514 1.443 . S
H1516 C1543 0.929 . S
N1517 C1542 1.433 . S
N1517 C1548 1.435 . S
N1517 C1554 1.423 . S
H1518 C1544 0.930 . S
H1519 C1547 0.931 . S
H1520 C1546 0.929 . S
H1521 C1549 0.930 . S
H1522 C1550 0.932 . S
H1523 C1553 0.929 . S
H1524 C1552 0.931 . S
H1525 C1555 0.929 . S
H1526 C1559 0.932 . S
H1527 C1556 0.931 . S
H1528 C1558 0.929 . S
H1529 C1561 0.929 . S
H1530 C1562 0.930 . S
H1531 C1564 0.929 . S
H1532 C1565 0.931 . S
H1533 C1567 0.930 . S
H1534 C1568 0.932 . S
H1535 C1570 0.931 . S
H1536 C1571 0.929 . S
H1537 C1573 0.929 . S
H1538 C1574 0.931 . S
H1539 C1576 0.929 . S
N1540 C1560 1.433 . S
N1540 C1566 1.435 . S
N1540 C1572 1.423 . S
H1541 C1577 0.932 . S
C1542 N1517 1.433 . S
C1542 C1543 1.363 . S
C1542 C1547 1.370 . S
C1543 H1516 0.929 . S
C1543 C1542 1.363 . S
C1543 C1544 1.385 . S
C1544 H1518 0.930 . S
C1544 C1543 1.385 . S
C1544 C1545 1.357 . S
C1545 C1544 1.357 . S
C1545 C1546 1.406 . S
C1546 H1520 0.929 . S
C1546 C1545 1.406 . S
C1546 C1547 1.391 . S
C1547 H1519 0.931 . S
C1547 C1542 1.370 . S
C1547 C1546 1.391 . S
C1548 N1517 1.435 . S
C1548 C1549 1.358 . S
C1548 C1553 1.371 . S
C1549 H1521 0.930 . S
C1549 C1548 1.358 . S
C1549 C1550 1.405 . S
C1550 H1522 0.932 . S
C1550 C1549 1.405 . S
C1550 C1551 1.383 . S
C1551 C1550 1.383 . S
C1551 C1552 1.393 . S
C1552 H1524 0.931 . S
C1552 C1551 1.393 . S
C1552 C1553 1.382 . S
C1553 H1523 0.929 . S
C1553 C1548 1.371 . S
C1553 C1552 1.382 . S
C1554 N1517 1.423 . S
C1554 C1555 1.362 . S
C1554 C1559 1.388 . S
C1555 H1525 0.929 . S
C1555 C1554 1.362 . S
C1555 C1556 1.376 . S
C1556 H1527 0.931 . S
C1556 C1555 1.376 . S
C1556 C1557 1.396 . S
C1557 C1556 1.396 . S
C1557 C1558 1.348 . S
C1557 C1575 1.472 . S
C1558 H1528 0.929 . S
C1558 C1557 1.348 . S
C1558 C1559 1.443 . S
C1559 H1526 0.932 . S
C1559 C1554 1.388 . S
C1559 C1558 1.443 . S
C1560 N1540 1.433 . S
C1560 C1561 1.363 . S
C1560 C1565 1.370 . S
C1561 H1529 0.929 . S
C1561 C1560 1.363 . S
C1561 C1562 1.385 . S
C1562 H1530 0.930 . S
C1562 C1561 1.385 . S
C1562 C1563 1.357 . S
C1563 C1562 1.357 . S
C1563 C1564 1.406 . S
C1564 H1531 0.929 . S
C1564 C1563 1.406 . S
C1564 C1565 1.391 . S
C1565 H1532 0.931 . S
C1565 C1560 1.370 . S
C1565 C1564 1.391 . S
C1566 N1540 1.435 . S
C1566 C1567 1.358 . S
C1566 C1571 1.371 . S
C1567 H1533 0.930 . S
C1567 C1566 1.358 . S
C1567 C1568 1.405 . S
C1568 H1534 0.932 . S
C1568 C1567 1.405 . S
C1568 C1569 1.383 . S
C1569 C1568 1.383 . S
C1569 C1570 1.393 . S
C1570 H1535 0.931 . S
C1570 C1569 1.393 . S
C1570 C1571 1.382 . S
C1571 H1536 0.929 . S
C1571 C1566 1.371 . S
C1571 C1570 1.382 . S
C1572 N1540 1.423 . S
C1572 C1573 1.362 . S
C1572 C1577 1.388 . S
C1573 H1537 0.929 . S
C1573 C1572 1.362 . S
C1573 C1574 1.376 . S
C1574 H1538 0.931 . S
C1574 C1573 1.376 . S
C1574 C1575 1.396 . S
C1575 C1557 1.472 . S
C1575 C1574 1.396 . S
C1575 C1576 1.348 . S
C1576 H1539 0.929 . S
C1576 C1575 1.348 . S
C1576 C1577 1.443 . S
C1577 H1541 0.932 . S
C1577 C1572 1.388 . S
C1577 C1576 1.443 . S
H1578 C1605 0.929 . S
N1579 C1604 1.433 . S
N1579 C1610 1.435 . S
N1579 C1616 1.423 . S
H1580 C1606 0.930 . S
H1581 C1609 0.931 . S
H1582 C1608 0.929 . S
H1583 C1611 0.930 . S
H1584 C1612 0.932 . S
H1585 C1615 0.929 . S
H1586 C1614 0.931 . S
H1587 C1617 0.929 . S
H1588 C1621 0.932 . S
H1589 C1618 0.931 . S
H1590 C1620 0.929 . S
H1591 C1623 0.929 . S
H1592 C1624 0.930 . S
H1593 C1626 0.929 . S
H1594 C1627 0.931 . S
H1595 C1629 0.930 . S
H1596 C1630 0.932 . S
H1597 C1632 0.931 . S
H1598 C1633 0.929 . S
H1599 C1635 0.929 . S
H1600 C1636 0.931 . S
H1601 C1638 0.929 . S
N1602 C1622 1.433 . S
N1602 C1628 1.435 . S
N1602 C1634 1.423 . S
H1603 C1639 0.932 . S
C1604 N1579 1.433 . S
C1604 C1605 1.363 . S
C1604 C1609 1.370 . S
C1605 H1578 0.929 . S
C1605 C1604 1.363 . S
C1605 C1606 1.385 . S
C1606 H1580 0.930 . S
C1606 C1605 1.385 . S
C1606 C1607 1.357 . S
C1607 C1606 1.357 . S
C1607 C1608 1.406 . S
C1608 H1582 0.929 . S
C1608 C1607 1.406 . S
C1608 C1609 1.391 . S
C1609 H1581 0.931 . S
C1609 C1604 1.370 . S
C1609 C1608 1.391 . S
C1610 N1579 1.435 . S
C1610 C1611 1.358 . S
C1610 C1615 1.371 . S
C1611 H1583 0.930 . S
C1611 C1610 1.358 . S
C1611 C1612 1.405 . S
C1612 H1584 0.932 . S
C1612 C1611 1.405 . S
C1612 C1613 1.383 . S
C1613 C1612 1.383 . S
C1613 C1614 1.393 . S
C1614 H1586 0.931 . S
C1614 C1613 1.393 . S
C1614 C1615 1.382 . S
C1615 H1585 0.929 . S
C1615 C1610 1.371 . S
C1615 C1614 1.382 . S
C1616 N1579 1.423 . S
C1616 C1617 1.362 . S
C1616 C1621 1.388 . S
C1617 H1587 0.929 . S
C1617 C1616 1.362 . S
C1617 C1618 1.376 . S
C1618 H1589 0.931 . S
C1618 C1617 1.376 . S
C1618 C1619 1.396 . S
C1619 C1618 1.396 . S
C1619 C1620 1.348 . S
C1619 C1637 1.472 . S
C1620 H1590 0.929 . S
C1620 C1619 1.348 . S
C1620 C1621 1.443 . S
C1621 H1588 0.932 . S
C1621 C1616 1.388 . S
C1621 C1620 1.443 . S
C1622 N1602 1.433 . S
C1622 C1623 1.363 . S
C1622 C1627 1.370 . S
C1623 H1591 0.929 . S
C1623 C1622 1.363 . S
C1623 C1624 1.385 . S
C1624 H1592 0.930 . S
C1624 C1623 1.385 . S
C1624 C1625 1.357 . S
C1625 C1624 1.357 . S
C1625 C1626 1.406 . S
C1626 H1593 0.929 . S
C1626 C1625 1.406 . S
C1626 C1627 1.391 . S
C1627 H1594 0.931 . S
C1627 C1622 1.370 . S
C1627 C1626 1.391 . S
C1628 N1602 1.435 . S
C1628 C1629 1.358 . S
C1628 C1633 1.371 . S
C1629 H1595 0.930 . S
C1629 C1628 1.358 . S
C1629 C1630 1.405 . S
C1630 H1596 0.932 . S
C1630 C1629 1.405 . S
C1630 C1631 1.383 . S
C1631 C1630 1.383 . S
C1631 C1632 1.393 . S
C1632 H1597 0.931 . S
C1632 C1631 1.393 . S
C1632 C1633 1.382 . S
C1633 H1598 0.929 . S
C1633 C1628 1.371 . S
C1633 C1632 1.382 . S
C1634 N1602 1.423 . S
C1634 C1635 1.362 . S
C1634 C1639 1.388 . S
C1635 H1599 0.929 . S
C1635 C1634 1.362 . S
C1635 C1636 1.376 . S
C1636 H1600 0.931 . S
C1636 C1635 1.376 . S
C1636 C1637 1.396 . S
C1637 C1619 1.472 . S
C1637 C1636 1.396 . S
C1637 C1638 1.348 . S
C1638 H1601 0.929 . S
C1638 C1637 1.348 . S
C1638 C1639 1.443 . S
C1639 H1603 0.932 . S
C1639 C1634 1.388 . S
C1639 C1638 1.443 . S
H1640 C1667 0.929 . S
N1641 C1666 1.433 . S
N1641 C1672 1.435 . S
N1641 C1678 1.423 . S
H1642 C1668 0.930 . S
H1643 C1671 0.931 . S
H1644 C1670 0.929 . S
H1645 C1673 0.930 . S
H1646 C1674 0.932 . S
H1647 C1677 0.929 . S
H1648 C1676 0.931 . S
H1649 C1679 0.929 . S
H1650 C1683 0.932 . S
H1651 C1680 0.931 . S
H1652 C1682 0.929 . S
H1653 C1685 0.929 . S
H1654 C1686 0.930 . S
H1655 C1688 0.929 . S
H1656 C1689 0.931 . S
H1657 C1691 0.930 . S
H1658 C1692 0.932 . S
H1659 C1694 0.931 . S
H1660 C1695 0.929 . S
H1661 C1697 0.929 . S
H1662 C1698 0.931 . S
H1663 C1700 0.929 . S
N1664 C1684 1.433 . S
N1664 C1690 1.435 . S
N1664 C1696 1.423 . S
H1665 C1701 0.932 . S
C1666 N1641 1.433 . S
C1666 C1667 1.363 . S
C1666 C1671 1.370 . S
C1667 H1640 0.929 . S
C1667 C1666 1.363 . S
C1667 C1668 1.385 . S
C1668 H1642 0.930 . S
C1668 C1667 1.385 . S
C1668 C1669 1.357 . S
C1669 C1668 1.357 . S
C1669 C1670 1.406 . S
C1670 H1644 0.929 . S
C1670 C1669 1.406 . S
C1670 C1671 1.391 . S
C1671 H1643 0.931 . S
C1671 C1666 1.370 . S
C1671 C1670 1.391 . S
C1672 N1641 1.435 . S
C1672 C1673 1.358 . S
C1672 C1677 1.371 . S
C1673 H1645 0.930 . S
C1673 C1672 1.358 . S
C1673 C1674 1.405 . S
C1674 H1646 0.932 . S
C1674 C1673 1.405 . S
C1674 C1675 1.383 . S
C1675 C1674 1.383 . S
C1675 C1676 1.393 . S
C1676 H1648 0.931 . S
C1676 C1675 1.393 . S
C1676 C1677 1.382 . S
C1677 H1647 0.929 . S
C1677 C1672 1.371 . S
C1677 C1676 1.382 . S
C1678 N1641 1.423 . S
C1678 C1679 1.362 . S
C1678 C1683 1.388 . S
C1679 H1649 0.929 . S
C1679 C1678 1.362 . S
C1679 C1680 1.376 . S
C1680 H1651 0.931 . S
C1680 C1679 1.376 . S
C1680 C1681 1.396 . S
C1681 C1680 1.396 . S
C1681 C1682 1.348 . S
C1681 C1699 1.472 . S
C1682 H1652 0.929 . S
C1682 C1681 1.348 . S
C1682 C1683 1.443 . S
C1683 H1650 0.932 . S
C1683 C1678 1.388 . S
C1683 C1682 1.443 . S
C1684 N1664 1.433 . S
C1684 C1685 1.363 . S
C1684 C1689 1.370 . S
C1685 H1653 0.929 . S
C1685 C1684 1.363 . S
C1685 C1686 1.385 . S
C1686 H1654 0.930 . S
C1686 C1685 1.385 . S
C1686 C1687 1.357 . S
C1687 C1686 1.357 . S
C1687 C1688 1.406 . S
C1688 H1655 0.929 . S
C1688 C1687 1.406 . S
C1688 C1689 1.391 . S
C1689 H1656 0.931 . S
C1689 C1684 1.370 . S
C1689 C1688 1.391 . S
C1690 N1664 1.435 . S
C1690 C1691 1.358 . S
C1690 C1695 1.371 . S
C1691 H1657 0.930 . S
C1691 C1690 1.358 . S
C1691 C1692 1.405 . S
C1692 H1658 0.932 . S
C1692 C1691 1.405 . S
C1692 C1693 1.383 . S
C1693 C1692 1.383 . S
C1693 C1694 1.393 . S
C1694 H1659 0.931 . S
C1694 C1693 1.393 . S
C1694 C1695 1.382 . S
C1695 H1660 0.929 . S
C1695 C1690 1.371 . S
C1695 C1694 1.382 . S
C1696 N1664 1.423 . S
C1696 C1697 1.362 . S
C1696 C1701 1.388 . S
C1697 H1661 0.929 . S
C1697 C1696 1.362 . S
C1697 C1698 1.376 . S
C1698 H1662 0.931 . S
C1698 C1697 1.376 . S
C1698 C1699 1.396 . S
C1699 C1681 1.472 . S
C1699 C1698 1.396 . S
C1699 C1700 1.348 . S
C1700 H1663 0.929 . S
C1700 C1699 1.348 . S
C1700 C1701 1.443 . S
C1701 H1665 0.932 . S
C1701 C1696 1.388 . S
C1701 C1700 1.443 . S
H1702 C1729 0.929 . S
N1703 C1728 1.433 . S
N1703 C1734 1.435 . S
N1703 C1740 1.423 . S
H1704 C1730 0.930 . S
H1705 C1733 0.931 . S
H1706 C1732 0.929 . S
H1707 C1735 0.930 . S
H1708 C1736 0.932 . S
H1709 C1739 0.929 . S
H1710 C1738 0.931 . S
H1711 C1741 0.929 . S
H1712 C1745 0.932 . S
H1713 C1742 0.931 . S
H1714 C1744 0.929 . S
H1715 C1747 0.929 . S
H1716 C1748 0.930 . S
H1717 C1750 0.929 . S
H1718 C1751 0.931 . S
H1719 C1753 0.930 . S
H1720 C1754 0.932 . S
H1721 C1756 0.931 . S
H1722 C1757 0.929 . S
H1723 C1759 0.929 . S
H1724 C1760 0.931 . S
H1725 C1762 0.929 . S
N1726 C1746 1.433 . S
N1726 C1752 1.435 . S
N1726 C1758 1.423 . S
H1727 C1763 0.932 . S
C1728 N1703 1.433 . S
C1728 C1729 1.363 . S
C1728 C1733 1.370 . S
C1729 H1702 0.929 . S
C1729 C1728 1.363 . S
C1729 C1730 1.385 . S
C1730 H1704 0.930 . S
C1730 C1729 1.385 . S
C1730 C1731 1.357 . S
C1731 C1730 1.357 . S
C1731 C1732 1.406 . S
C1732 H1706 0.929 . S
C1732 C1731 1.406 . S
C1732 C1733 1.391 . S
C1733 H1705 0.931 . S
C1733 C1728 1.370 . S
C1733 C1732 1.391 . S
C1734 N1703 1.435 . S
C1734 C1735 1.358 . S
C1734 C1739 1.371 . S
C1735 H1707 0.930 . S
C1735 C1734 1.358 . S
C1735 C1736 1.405 . S
C1736 H1708 0.932 . S
C1736 C1735 1.405 . S
C1736 C1737 1.383 . S
C1737 C1736 1.383 . S
C1737 C1738 1.393 . S
C1738 H1710 0.931 . S
C1738 C1737 1.393 . S
C1738 C1739 1.382 . S
C1739 H1709 0.929 . S
C1739 C1734 1.371 . S
C1739 C1738 1.382 . S
C1740 N1703 1.423 . S
C1740 C1741 1.362 . S
C1740 C1745 1.388 . S
C1741 H1711 0.929 . S
C1741 C1740 1.362 . S
C1741 C1742 1.376 . S
C1742 H1713 0.931 . S
C1742 C1741 1.376 . S
C1742 C1743 1.396 . S
C1743 C1742 1.396 . S
C1743 C1744 1.348 . S
C1743 C1761 1.472 . S
C1744 H1714 0.929 . S
C1744 C1743 1.348 . S
C1744 C1745 1.443 . S
C1745 H1712 0.932 . S
C1745 C1740 1.388 . S
C1745 C1744 1.443 . S
C1746 N1726 1.433 . S
C1746 C1747 1.363 . S
C1746 C1751 1.370 . S
C1747 H1715 0.929 . S
C1747 C1746 1.363 . S
C1747 C1748 1.385 . S
C1748 H1716 0.930 . S
C1748 C1747 1.385 . S
C1748 C1749 1.357 . S
C1749 C1748 1.357 . S
C1749 C1750 1.406 . S
C1750 H1717 0.929 . S
C1750 C1749 1.406 . S
C1750 C1751 1.391 . S
C1751 H1718 0.931 . S
C1751 C1746 1.370 . S
C1751 C1750 1.391 . S
C1752 N1726 1.435 . S
C1752 C1753 1.358 . S
C1752 C1757 1.371 . S
C1753 H1719 0.930 . S
C1753 C1752 1.358 . S
C1753 C1754 1.405 . S
C1754 H1720 0.932 . S
C1754 C1753 1.405 . S
C1754 C1755 1.383 . S
C1755 C1754 1.383 . S
C1755 C1756 1.393 . S
C1756 H1721 0.931 . S
C1756 C1755 1.393 . S
C1756 C1757 1.382 . S
C1757 H1722 0.929 . S
C1757 C1752 1.371 . S
C1757 C1756 1.382 . S
C1758 N1726 1.423 . S
C1758 C1759 1.362 . S
C1758 C1763 1.388 . S
C1759 H1723 0.929 . S
C1759 C1758 1.362 . S
C1759 C1760 1.376 . S
C1760 H1724 0.931 . S
C1760 C1759 1.376 . S
C1760 C1761 1.396 . S
C1761 C1743 1.472 . S
C1761 C1760 1.396 . S
C1761 C1762 1.348 . S
C1762 H1725 0.929 . S
C1762 C1761 1.348 . S
C1762 C1763 1.443 . S
C1763 H1727 0.932 . S
C1763 C1758 1.388 . S
C1763 C1762 1.443 . S
H1764 C1782 0.951 . S
H1765 C1784 0.951 . S
H1766 C1786 0.950 . S
H1767 C1787 0.950 . S
H1768 C1789 0.950 . S
H1769 C1792 0.950 . S
H1770 C1793 0.950 . S
H1771 C1795 0.950 . S
H1772 C1796 0.921 1_455 S
H1773 C1797 0.951 . S
H1774 C1799 0.951 . S
H1775 C1801 0.950 . S
H1776 C1802 0.950 . S
H1777 C1804 0.950 . S
H1778 C1807 0.950 . S
H1779 C1808 0.950 . S
H1780 C1810 0.950 . S
H1781 C1811 0.928 1_655 S
C1782 H1764 0.951 . S
C1782 C1783 1.366 1_455 S
C1782 C1784 1.388 . S
C1783 C1782 1.366 1_655 S
C1783 C1787 1.385 . S
C1784 H1765 0.951 . S
C1784 C1782 1.388 . S
C1784 C1785 1.366 1_455 S
C1785 C1784 1.366 1_655 S
C1785 C1786 1.414 . S
C1785 C1788 1.499 . S
C1786 H1766 0.950 . S
C1786 C1785 1.414 . S
C1786 C1787 1.374 . S
C1787 H1767 0.950 . S
C1787 C1783 1.385 . S
C1787 C1786 1.374 . S
C1788 C1785 1.499 . S
C1788 C1789 1.372 1_655 S
C1788 C1790 1.389 . S
C1789 H1768 0.950 . S
C1789 C1788 1.372 1_455 S
C1789 C1805 1.400 . S
C1790 C1788 1.389 . S
C1790 C1791 1.524 . S
C1790 C1804 1.377 . S
C1791 C1790 1.524 . S
C1791 C1792 1.397 . S
C1791 C1796 1.363 . S
C1792 H1769 0.950 . S
C1792 C1791 1.397 . S
C1792 C1793 1.334 . S
C1793 H1770 0.950 . S
C1793 C1792 1.334 . S
C1793 C1794 1.287 . S
C1794 C1793 1.287 . S
C1794 C1795 1.524 . S
C1794 H1813 0.913 . S
C1795 H1771 0.950 . S
C1795 C1794 1.524 . S
C1795 C1796 1.415 . S
C1796 H1772 0.921 1_655 S
C1796 C1791 1.363 . S
C1796 C1795 1.415 . S
C1797 H1773 0.951 . S
C1797 C1798 1.366 . S
C1797 C1799 1.388 . S
C1798 C1797 1.366 . S
C1798 C1802 1.385 1_655 S
C1799 H1774 0.951 . S
C1799 C1797 1.388 . S
C1799 C1800 1.366 . S
C1800 C1799 1.366 . S
C1800 C1801 1.414 1_655 S
C1800 C1803 1.499 . S
C1801 H1775 0.950 . S
C1801 C1800 1.414 1_455 S
C1801 C1802 1.374 . S
C1802 H1776 0.950 . S
C1802 C1798 1.385 1_455 S
C1802 C1801 1.374 . S
C1803 C1800 1.499 . S
C1803 C1804 1.373 . S
C1803 C1805 1.384 1_655 S
C1804 H1777 0.950 . S
C1804 C1790 1.377 . S
C1804 C1803 1.373 . S
C1805 C1789 1.400 . S
C1805 C1803 1.384 1_455 S
C1805 C1806 1.517 . S
C1806 C1805 1.517 . S
C1806 C1807 1.397 . S
C1806 C1811 1.393 . S
C1807 H1778 0.950 . S
C1807 C1806 1.397 . S
C1807 C1808 1.334 . S
C1808 H1779 0.950 . S
C1808 C1807 1.334 . S
C1808 C1809 1.287 . S
C1809 C1808 1.287 . S
C1809 C1810 1.524 . S
C1809 H1812 0.999 . S
C1810 H1780 0.950 . S
C1810 C1809 1.524 . S
C1810 C1811 1.410 . S
C1811 H1781 0.928 1_455 S
C1811 C1806 1.393 . S
C1811 C1810 1.410 . S
H1812 C1809 0.999 . S
H1813 C1794 0.913 . S
H1814 C1832 0.951 . S
H1815 C1834 0.951 . S
H1816 C1836 0.950 . S
H1817 C1837 0.950 . S
H1818 C1839 0.950 . S
H1819 C1842 0.950 . S
H1820 C1843 0.950 . S
H1821 C1845 0.950 . S
H1822 C1846 0.950 . S
H1823 C1847 0.951 . S
H1824 C1849 0.951 . S
H1825 C1851 0.950 . S
H1826 C1852 0.950 . S
H1827 C1854 0.950 . S
H1828 C1857 0.950 . S
H1829 C1858 0.950 . S
H1830 C1860 0.950 . S
H1831 C1861 0.950 . S
C1832 H1814 0.951 . S
C1832 C1833 1.366 . S
C1832 C1834 1.388 . S
C1833 C1832 1.366 . S
C1833 C1837 1.385 . S
C1834 H1815 0.951 . S
C1834 C1832 1.388 . S
C1834 C1835 1.366 . S
C1835 C1834 1.366 . S
C1835 C1836 1.414 . S
C1835 C1838 1.499 . S
C1836 H1816 0.950 . S
C1836 C1835 1.414 . S
C1836 C1837 1.374 . S
C1837 H1817 0.950 . S
C1837 C1833 1.385 . S
C1837 C1836 1.374 . S
C1838 C1835 1.499 . S
C1838 C1839 1.373 . S
C1838 C1840 1.389 . S
C1839 H1818 0.950 . S
C1839 C1838 1.373 . S
C1839 C1855 1.377 . S
C1840 C1838 1.389 . S
C1840 C1841 1.524 . S
C1840 C1854 1.377 . S
C1841 C1840 1.524 . S
C1841 C1842 1.397 . S
C1841 C1846 1.363 . S
C1842 H1819 0.950 . S
C1842 C1841 1.397 . S
C1842 C1843 1.334 . S
C1843 H1820 0.950 . S
C1843 C1842 1.334 . S
C1843 C1844 1.287 . S
C1844 C1843 1.287 . S
C1844 C1845 1.524 . S
C1844 H1863 0.913 . S
C1845 H1821 0.950 . S
C1845 C1844 1.524 . S
C1845 C1846 1.415 . S
C1846 H1822 0.950 . S
C1846 C1841 1.363 . S
C1846 C1845 1.415 . S
C1847 H1823 0.951 . S
C1847 C1848 1.366 . S
C1847 C1849 1.388 . S
C1848 C1847 1.366 . S
C1848 C1852 1.385 . S
C1849 H1824 0.951 . S
C1849 C1847 1.388 . S
C1849 C1850 1.366 . S
C1850 C1849 1.366 . S
C1850 C1851 1.414 . S
C1850 C1853 1.499 . S
C1851 H1825 0.950 . S
C1851 C1850 1.414 . S
C1851 C1852 1.374 . S
C1852 H1826 0.950 . S
C1852 C1848 1.385 . S
C1852 C1851 1.374 . S
C1853 C1850 1.499 . S
C1853 C1854 1.373 . S
C1853 C1855 1.389 . S
C1854 H1827 0.950 . S
C1854 C1840 1.377 . S
C1854 C1853 1.373 . S
C1855 C1839 1.377 . S
C1855 C1853 1.389 . S
C1855 C1856 1.524 . S
C1856 C1855 1.524 . S
C1856 C1857 1.397 . S
C1856 C1861 1.363 . S
C1857 H1828 0.950 . S
C1857 C1856 1.397 . S
C1857 C1858 1.334 . S
C1858 H1829 0.950 . S
C1858 C1857 1.334 . S
C1858 C1859 1.287 . S
C1859 C1858 1.287 . S
C1859 C1860 1.524 . S
C1859 H1862 0.999 . S
C1860 H1830 0.950 . S
C1860 C1859 1.524 . S
C1860 C1861 1.415 . S
C1861 H1831 0.950 . S
C1861 C1856 1.363 . S
C1861 C1860 1.415 . S
H1862 C1859 0.999 . S
H1863 C1844 0.913 . S
H1864 C1882 0.951 . S
H1865 C1884 0.951 . S
H1866 C1886 0.950 . S
H1867 C1887 0.950 . S
H1868 C1889 0.950 . S
H1869 C1892 0.950 . S
H1870 C1893 0.950 . S
H1871 C1895 0.950 . S
H1872 C1896 0.950 . S
H1873 C1897 0.951 . S
H1874 C1899 0.951 . S
H1875 C1901 0.950 . S
H1876 C1902 0.950 . S
H1877 C1904 0.949 . S
H1878 C1907 0.950 . S
H1879 C1908 1.030 . S
H1880 C1910 0.950 . S
H1881 C1911 0.950 . S
C1882 H1864 0.951 . S
C1882 C1883 1.366 1_565 S
C1882 C1884 1.388 . S
C1883 C1882 1.366 1_545 S
C1883 C1887 1.385 . S
C1884 H1865 0.951 . S
C1884 C1882 1.388 . S
C1884 C1885 1.366 1_565 S
C1885 C1884 1.366 1_545 S
C1885 C1886 1.414 . S
C1885 C1888 1.499 . S
C1886 H1866 0.950 . S
C1886 C1885 1.414 . S
C1886 C1887 1.374 . S
C1887 H1867 0.950 . S
C1887 C1883 1.385 . S
C1887 C1886 1.374 . S
C1888 C1885 1.499 . S
C1888 C1889 1.373 . S
C1888 C1890 1.396 . S
C1889 H1868 0.950 . S
C1889 C1888 1.373 . S
C1889 C1905 1.377 . S
C1890 C1888 1.396 . S
C1890 C1891 1.541 1_545 S
C1890 C1904 1.361 1_545 S
C1891 C1890 1.541 1_565 S
C1891 C1892 1.397 1_565 S
C1891 C1896 1.363 . S
C1892 H1869 0.950 . S
C1892 C1891 1.397 1_545 S
C1892 C1893 1.334 . S
C1893 H1870 0.950 . S
C1893 C1892 1.334 . S
C1893 C1894 1.287 1_545 S
C1894 C1893 1.287 1_565 S
C1894 C1895 1.524 . S
C1894 H1913 0.913 . S
C1895 H1871 0.950 . S
C1895 C1894 1.524 . S
C1895 C1896 1.415 . S
C1896 H1872 0.950 . S
C1896 C1891 1.363 . S
C1896 C1895 1.415 . S
C1897 H1873 0.951 . S
C1897 C1898 1.366 . S
C1897 C1899 1.388 . S
C1898 C1897 1.366 . S
C1898 C1902 1.385 1_545 S
C1899 H1874 0.951 . S
C1899 C1897 1.388 . S
C1899 C1900 1.366 . S
C1900 C1899 1.366 . S
C1900 C1901 1.414 1_545 S
C1900 C1903 1.499 . S
C1901 H1875 0.950 . S
C1901 C1900 1.414 1_565 S
C1901 C1902 1.374 . S
C1902 H1876 0.950 . S
C1902 C1898 1.385 1_565 S
C1902 C1901 1.374 . S
C1903 C1900 1.499 . S
C1903 C1904 1.371 1_545 S
C1903 C1905 1.389 . S
C1904 H1877 0.949 . S
C1904 C1890 1.361 1_565 S
C1904 C1903 1.371 1_565 S
C1905 C1889 1.377 . S
C1905 C1903 1.389 . S
C1905 C1906 1.524 . S
C1906 C1905 1.524 . S
C1906 C1907 1.397 1_545 S
C1906 C1911 1.363 . S
C1907 H1878 0.950 . S
C1907 C1906 1.397 1_565 S
C1907 C1908 1.302 . S
C1908 H1879 1.030 . S
C1908 C1907 1.302 . S
C1908 C1909 1.241 1_565 S
C1909 C1908 1.241 1_545 S
C1909 C1910 1.524 . S
C1909 H1912 0.999 . S
C1910 H1880 0.950 . S
C1910 C1909 1.524 . S
C1910 C1911 1.415 . S
C1911 H1881 0.950 . S
C1911 C1906 1.363 . S
C1911 C1910 1.415 . S
H1912 C1909 0.999 . S
H1913 C1894 0.913 . S
H1914 C1932 0.951 . S
H1915 C1934 0.951 . S
H1916 C1936 0.950 . S
H1917 C1937 0.950 . S
H1918 C1939 0.950 . S
H1919 C1942 0.950 . S
H1920 C1943 0.950 . S
H1921 C1945 0.950 . S
H1922 C1946 0.950 . S
H1923 C1947 0.925 1_545 S
H1924 C1949 0.885 1_545 S
H1925 C1951 0.950 . S
H1926 C1952 0.950 . S
H1927 C1954 0.950 . S
H1928 C1957 0.950 . S
H1929 C1958 0.950 . S
H1930 C1960 0.950 . S
H1931 C1961 0.950 . S
C1932 H1914 0.951 . S
C1932 C1933 1.366 . S
C1932 C1934 1.388 . S
C1933 C1932 1.366 . S
C1933 C1937 1.385 1_565 S
C1934 H1915 0.951 . S
C1934 C1932 1.388 . S
C1934 C1935 1.366 . S
C1935 C1934 1.366 . S
C1935 C1936 1.414 1_565 S
C1935 C1938 1.499 . S
C1936 H1916 0.950 . S
C1936 C1935 1.414 1_545 S
C1936 C1937 1.374 . S
C1937 H1917 0.950 . S
C1937 C1933 1.385 1_545 S
C1937 C1936 1.374 . S
C1938 C1935 1.499 . S
C1938 C1939 1.373 . S
C1938 C1940 1.389 1_565 S
C1939 H1918 0.950 . S
C1939 C1938 1.373 . S
C1939 C1955 1.377 . S
C1940 C1938 1.389 1_545 S
C1940 C1941 1.524 . S
C1940 C1954 1.377 . S
C1941 C1940 1.524 . S
C1941 C1942 1.397 . S
C1941 C1946 1.363 . S
C1942 H1919 0.950 . S
C1942 C1941 1.397 . S
C1942 C1943 1.334 . S
C1943 H1920 0.950 . S
C1943 C1942 1.334 . S
C1943 C1944 1.287 . S
C1944 C1943 1.287 . S
C1944 C1945 1.524 . S
C1944 H1963 0.913 . S
C1945 H1921 0.950 . S
C1945 C1944 1.524 . S
C1945 C1946 1.415 . S
C1946 H1922 0.950 . S
C1946 C1941 1.363 . S
C1946 C1945 1.415 . S
C1947 H1923 0.925 1_565 S
C1947 C1948 1.435 . S
C1947 C1949 1.388 . S
C1948 C1947 1.435 . S
C1948 C1952 1.385 . S
C1949 H1924 0.885 1_565 S
C1949 C1947 1.388 . S
C1949 C1950 1.399 . S
C1950 C1949 1.399 . S
C1950 C1951 1.414 . S
C1950 C1953 1.499 . S
C1951 H1925 0.950 . S
C1951 C1950 1.414 . S
C1951 C1952 1.374 . S
C1952 H1926 0.950 . S
C1952 C1948 1.385 . S
C1952 C1951 1.374 . S
C1953 C1950 1.499 . S
C1953 C1954 1.373 1_565 S
C1953 C1955 1.389 . S
C1954 H1927 0.950 . S
C1954 C1940 1.377 . S
C1954 C1953 1.373 1_545 S
C1955 C1939 1.377 . S
C1955 C1953 1.389 . S
C1955 C1956 1.524 . S
C1956 C1955 1.524 . S
C1956 C1957 1.397 . S
C1956 C1961 1.363 . S
C1957 H1928 0.950 . S
C1957 C1956 1.397 . S
C1957 C1958 1.334 . S
C1958 H1929 0.950 . S
C1958 C1957 1.334 . S
C1958 C1959 1.287 . S
C1959 C1958 1.287 . S
C1959 C1960 1.524 . S
C1959 H1962 0.999 . S
C1960 H1930 0.950 . S
C1960 C1959 1.524 . S
C1960 C1961 1.415 . S
C1961 H1931 0.950 . S
C1961 C1956 1.363 . S
C1961 C1960 1.415 . S
H1962 C1959 0.999 . S
H1963 C1944 0.913 . S
H1964 C1982 0.951 . S
H1965 C1984 0.951 . S
H1966 C1986 0.950 . S
H1967 C1987 0.950 . S
H1968 C1989 0.950 . S
H1969 C1992 0.950 . S
H1970 C1993 0.950 . S
H1971 C1995 0.950 . S
H1972 C1996 0.950 . S
H1973 C1997 0.951 . S
H1974 C1999 0.951 . S
H1975 C2001 0.950 . S
H1976 C2002 0.950 . S
H1977 C2004 0.950 . S
H1978 C2007 0.950 . S
H1979 C2008 0.950 . S
H1980 C2010 0.950 . S
H1981 C2011 0.950 . S
C1982 H1964 0.951 . S
C1982 C1983 1.366 . S
C1982 C1984 1.388 . S
C1983 C1982 1.366 . S
C1983 C1987 1.385 . S
C1984 H1965 0.951 . S
C1984 C1982 1.388 . S
C1984 C1985 1.366 . S
C1985 C1984 1.366 . S
C1985 C1986 1.414 . S
C1985 C1988 1.499 . S
C1986 H1966 0.950 . S
C1986 C1985 1.414 . S
C1986 C1987 1.374 . S
C1987 H1967 0.950 . S
C1987 C1983 1.385 . S
C1987 C1986 1.374 . S
C1988 C1985 1.499 . S
C1988 C1989 1.373 1_455 S
C1988 C1990 1.389 . S
C1989 H1968 0.950 . S
C1989 C1988 1.373 1_655 S
C1989 C2005 1.377 . S
C1990 C1988 1.389 . S
C1990 C1991 1.524 . S
C1990 C2004 1.377 . S
C1991 C1990 1.524 . S
C1991 C1992 1.397 . S
C1991 C1996 1.363 . S
C1992 H1969 0.950 . S
C1992 C1991 1.397 . S
C1992 C1993 1.334 . S
C1993 H1970 0.950 . S
C1993 C1992 1.334 . S
C1993 C1994 1.287 . S
C1994 C1993 1.287 . S
C1994 C1995 1.524 . S
C1994 H2013 0.913 . S
C1995 H1971 0.950 . S
C1995 C1994 1.524 . S
C1995 C1996 1.415 . S
C1996 H1972 0.950 . S
C1996 C1991 1.363 . S
C1996 C1995 1.415 . S
C1997 H1973 0.951 . S
C1997 C1998 1.366 . S
C1997 C1999 1.388 . S
C1998 C1997 1.366 . S
C1998 C2002 1.385 . S
C1999 H1974 0.951 . S
C1999 C1997 1.388 . S
C1999 C2000 1.366 . S
C2000 C1999 1.366 . S
C2000 C2001 1.414 . S
C2000 C2003 1.499 . S
C2001 H1975 0.950 . S
C2001 C2000 1.414 . S
C2001 C2002 1.374 . S
C2002 H1976 0.950 . S
C2002 C1998 1.385 . S
C2002 C2001 1.374 . S
C2003 C2000 1.499 . S
C2003 C2004 1.373 . S
C2003 C2005 1.389 1_455 S
C2004 H1977 0.950 . S
C2004 C1990 1.377 . S
C2004 C2003 1.373 . S
C2005 C1989 1.377 . S
C2005 C2003 1.389 1_655 S
C2005 C2006 1.524 . S
C2006 C2005 1.524 . S
C2006 C2007 1.397 . S
C2006 C2011 1.363 . S
C2007 H1978 0.950 . S
C2007 C2006 1.397 . S
C2007 C2008 1.334 . S
C2008 H1979 0.950 . S
C2008 C2007 1.334 . S
C2008 C2009 1.287 . S
C2009 C2008 1.287 . S
C2009 C2010 1.524 . S
C2009 H2012 0.999 . S
C2010 H1980 0.950 . S
C2010 C2009 1.524 . S
C2010 C2011 1.415 . S
C2011 H1981 0.950 . S
C2011 C2006 1.363 . S
C2011 C2010 1.415 . S
H2012 C2009 0.999 . S
H2013 C1994 0.913 . S
H2014 C2032 0.951 . S
H2015 C2034 0.951 . S
H2016 C2036 0.950 . S
H2017 C2037 0.950 . S
H2018 C2039 0.950 . S
H2019 C2042 0.950 . S
H2020 C2043 0.950 . S
H2021 C2045 0.950 . S
H2022 C2046 0.950 . S
H2023 C2047 0.951 . S
H2024 C2049 0.951 . S
H2025 C2051 0.950 . S
H2026 C2052 0.950 . S
H2027 C2054 0.950 . S
H2028 C2057 0.950 . S
H2029 C2058 0.950 . S
H2030 C2060 0.950 . S
H2031 C2061 0.950 . S
C2032 H2014 0.951 . S
C2032 C2033 1.366 . S
C2032 C2034 1.388 . S
C2033 C2032 1.366 . S
C2033 C2037 1.385 . S
C2034 H2015 0.951 . S
C2034 C2032 1.388 . S
C2034 C2035 1.366 . S
C2035 C2034 1.366 . S
C2035 C2036 1.414 . S
C2035 C2038 1.499 . S
C2036 H2016 0.950 . S
C2036 C2035 1.414 . S
C2036 C2037 1.374 . S
C2037 H2017 0.950 . S
C2037 C2033 1.385 . S
C2037 C2036 1.374 . S
C2038 C2035 1.499 . S
C2038 C2039 1.373 . S
C2038 C2040 1.389 . S
C2039 H2018 0.950 . S
C2039 C2038 1.373 . S
C2039 C2055 1.377 . S
C2040 C2038 1.389 . S
C2040 C2041 1.524 . S
C2040 C2054 1.377 . S
C2041 C2040 1.524 . S
C2041 C2042 1.397 . S
C2041 C2046 1.363 . S
C2042 H2019 0.950 . S
C2042 C2041 1.397 . S
C2042 C2043 1.334 . S
C2043 H2020 0.950 . S
C2043 C2042 1.334 . S
C2043 C2044 1.287 . S
C2044 C2043 1.287 . S
C2044 C2045 1.524 . S
C2044 H2063 0.913 . S
C2045 H2021 0.950 . S
C2045 C2044 1.524 . S
C2045 C2046 1.415 . S
C2046 H2022 0.950 . S
C2046 C2041 1.363 . S
C2046 C2045 1.415 . S
C2047 H2023 0.951 . S
C2047 C2048 1.366 . S
C2047 C2049 1.388 . S
C2048 C2047 1.366 . S
C2048 C2052 1.385 . S
C2049 H2024 0.951 . S
C2049 C2047 1.388 . S
C2049 C2050 1.366 . S
C2050 C2049 1.366 . S
C2050 C2051 1.414 . S
C2050 C2053 1.499 . S
C2051 H2025 0.950 . S
C2051 C2050 1.414 . S
C2051 C2052 1.374 . S
C2052 H2026 0.950 . S
C2052 C2048 1.385 . S
C2052 C2051 1.374 . S
C2053 C2050 1.499 . S
C2053 C2054 1.373 . S
C2053 C2055 1.389 . S
C2054 H2027 0.950 . S
C2054 C2040 1.377 . S
C2054 C2053 1.373 . S
C2055 C2039 1.377 . S
C2055 C2053 1.389 . S
C2055 C2056 1.524 . S
C2056 C2055 1.524 . S
C2056 C2057 1.397 . S
C2056 C2061 1.363 . S
C2057 H2028 0.950 . S
C2057 C2056 1.397 . S
C2057 C2058 1.334 . S
C2058 H2029 0.950 . S
C2058 C2057 1.334 . S
C2058 C2059 1.287 . S
C2059 C2058 1.287 . S
C2059 C2060 1.524 . S
C2059 H2062 0.999 . S
C2060 H2030 0.950 . S
C2060 C2059 1.524 . S
C2060 C2061 1.415 . S
C2061 H2031 0.950 . S
C2061 C2056 1.363 . S
C2061 C2060 1.415 . S
H2062 C2059 0.999 . S
H2063 C2044 0.913 . S
H2064 C2082 0.953 . S
H2065 C2084 0.951 . S
H2066 C2086 0.950 . S
H2067 C2087 0.950 . S
H2068 C2089 0.950 . S
H2069 C2092 0.950 . S
H2070 C2093 0.950 . S
H2071 C2095 0.950 . S
H2072 C2096 0.950 . S
H2073 C2097 0.951 . S
H2074 C2099 0.951 . S
H2075 C2101 0.950 . S
H2076 C2102 0.950 . S
H2077 C2104 0.950 . S
H2078 C2107 0.950 . S
H2079 C2108 0.950 . S
H2080 C2110 0.950 . S
H2081 C2111 0.950 . S
C2082 H2064 0.953 . S
C2082 C2083 1.366 . S
C2082 C2084 1.388 . S
C2083 C2082 1.366 . S
C2083 C2087 1.385 . S
C2084 H2065 0.951 . S
C2084 C2082 1.388 . S
C2084 C2085 1.366 . S
C2085 C2084 1.366 . S
C2085 C2086 1.414 . S
C2085 C2088 1.499 . S
C2086 H2066 0.950 . S
C2086 C2085 1.414 . S
C2086 C2087 1.374 . S
C2087 H2067 0.950 . S
C2087 C2083 1.385 . S
C2087 C2086 1.374 . S
C2088 C2085 1.499 . S
C2088 C2089 1.373 1_455 S
C2088 C2090 1.389 . S
C2089 H2068 0.950 . S
C2089 C2088 1.373 1_655 S
C2089 C2105 1.377 . S
C2090 C2088 1.389 . S
C2090 C2091 1.524 . S
C2090 C2104 1.377 . S
C2091 C2090 1.524 . S
C2091 C2092 1.397 . S
C2091 C2096 1.363 . S
C2092 H2069 0.950 . S
C2092 C2091 1.397 . S
C2092 C2093 1.334 . S
C2093 H2070 0.950 . S
C2093 C2092 1.334 . S
C2093 C2094 1.287 . S
C2094 C2093 1.287 . S
C2094 C2095 1.524 . S
C2094 H2113 0.913 . S
C2095 H2071 0.950 . S
C2095 C2094 1.524 . S
C2095 C2096 1.415 . S
C2096 H2072 0.950 . S
C2096 C2091 1.363 . S
C2096 C2095 1.415 . S
C2097 H2073 0.951 . S
C2097 C2098 1.366 . S
C2097 C2099 1.388 . S
C2098 C2097 1.366 . S
C2098 C2102 1.385 . S
C2099 H2074 0.951 . S
C2099 C2097 1.388 . S
C2099 C2100 1.366 . S
C2100 C2099 1.366 . S
C2100 C2101 1.414 . S
C2100 C2103 1.499 . S
C2101 H2075 0.950 . S
C2101 C2100 1.414 . S
C2101 C2102 1.374 . S
C2102 H2076 0.950 . S
C2102 C2098 1.385 . S
C2102 C2101 1.374 . S
C2103 C2100 1.499 . S
C2103 C2104 1.373 . S
C2103 C2105 1.389 1_455 S
C2104 H2077 0.950 . S
C2104 C2090 1.377 . S
C2104 C2103 1.373 . S
C2105 C2089 1.377 . S
C2105 C2103 1.389 1_655 S
C2105 C2106 1.524 . S
C2106 C2105 1.524 . S
C2106 C2107 1.397 . S
C2106 C2111 1.363 . S
C2107 H2078 0.950 . S
C2107 C2106 1.397 . S
C2107 C2108 1.334 . S
C2108 H2079 0.950 . S
C2108 C2107 1.334 . S
C2108 C2109 1.287 . S
C2109 C2108 1.287 . S
C2109 C2110 1.524 . S
C2109 H2112 0.999 . S
C2110 H2080 0.950 . S
C2110 C2109 1.524 . S
C2110 C2111 1.415 . S
C2111 H2081 0.950 . S
C2111 C2106 1.363 . S
C2111 C2110 1.415 . S
H2112 C2109 0.999 . S
H2113 C2094 0.913 . S
H2114 C2132 0.951 . S
H2115 C2134 0.951 . S
H2116 C2136 0.950 . S
H2117 C2137 0.950 . S
H2118 C2139 0.950 . S
H2119 C2142 0.950 . S
H2120 C2143 0.950 . S
H2121 C2145 0.950 . S
H2122 C2146 0.950 . S
H2123 C2147 0.951 . S
H2124 C2149 0.951 . S
H2125 C2151 0.950 . S
H2126 C2152 0.950 . S
H2127 C2154 0.950 . S
H2128 C2157 0.950 . S
H2129 C2158 0.950 . S
H2130 C2160 0.950 . S
H2131 C2161 0.950 . S
C2132 H2114 0.951 . S
C2132 C2133 1.366 . S
C2132 C2134 1.388 . S
C2133 C2132 1.366 . S
C2133 C2137 1.385 . S
C2134 H2115 0.951 . S
C2134 C2132 1.388 . S
C2134 C2135 1.366 . S
C2135 C2134 1.366 . S
C2135 C2136 1.414 . S
C2135 C2138 1.499 . S
C2136 H2116 0.950 . S
C2136 C2135 1.414 . S
C2136 C2137 1.374 . S
C2137 H2117 0.950 . S
C2137 C2133 1.385 . S
C2137 C2136 1.374 . S
C2138 C2135 1.499 . S
C2138 C2139 1.373 . S
C2138 C2140 1.389 . S
C2139 H2118 0.950 . S
C2139 C2138 1.373 . S
C2139 C2155 1.377 . S
C2140 C2138 1.389 . S
C2140 C2141 1.524 . S
C2140 C2154 1.377 . S
C2141 C2140 1.524 . S
C2141 C2142 1.397 . S
C2141 C2146 1.363 . S
C2142 H2119 0.950 . S
C2142 C2141 1.397 . S
C2142 C2143 1.334 . S
C2143 H2120 0.950 . S
C2143 C2142 1.334 . S
C2143 C2144 1.287 . S
C2144 C2143 1.287 . S
C2144 C2145 1.524 . S
C2144 H2163 0.913 . S
C2145 H2121 0.950 . S
C2145 C2144 1.524 . S
C2145 C2146 1.415 . S
C2146 H2122 0.950 . S
C2146 C2141 1.363 . S
C2146 C2145 1.415 . S
C2147 H2123 0.951 . S
C2147 C2148 1.366 . S
C2147 C2149 1.388 . S
C2148 C2147 1.366 . S
C2148 C2152 1.385 . S
C2149 H2124 0.951 . S
C2149 C2147 1.388 . S
C2149 C2150 1.366 . S
C2150 C2149 1.366 . S
C2150 C2151 1.414 . S
C2150 C2153 1.499 . S
C2151 H2125 0.950 . S
C2151 C2150 1.414 . S
C2151 C2152 1.374 . S
C2152 H2126 0.950 . S
C2152 C2148 1.385 . S
C2152 C2151 1.374 . S
C2153 C2150 1.499 . S
C2153 C2154 1.373 . S
C2153 C2155 1.389 . S
C2154 H2127 0.950 . S
C2154 C2140 1.377 . S
C2154 C2153 1.373 . S
C2155 C2139 1.377 . S
C2155 C2153 1.389 . S
C2155 C2156 1.524 . S
C2156 C2155 1.524 . S
C2156 C2157 1.397 . S
C2156 C2161 1.363 . S
C2157 H2128 0.950 . S
C2157 C2156 1.397 . S
C2157 C2158 1.334 . S
C2158 H2129 0.950 . S
C2158 C2157 1.334 . S
C2158 C2159 1.287 . S
C2159 C2158 1.287 . S
C2159 C2160 1.524 . S
C2159 H2162 0.999 . S
C2160 H2130 0.950 . S
C2160 C2159 1.524 . S
C2160 C2161 1.415 . S
C2161 H2131 0.950 . S
C2161 C2156 1.363 . S
C2161 C2160 1.415 . S
H2162 C2159 0.999 . S
H2163 C2144 0.913 . S
H2164 C2182 0.951 . S
H2165 C2184 0.951 . S
H2166 C2186 0.950 . S
H2167 C2187 0.950 . S
H2168 C2189 0.950 . S
H2169 C2192 0.950 . S
H2170 C2193 0.950 . S
H2171 C2195 0.950 . S
H2172 C2196 0.950 . S
H2173 C2197 0.951 . S
H2174 C2199 0.951 . S
H2175 C2201 0.973 1_545 S
H2176 C2202 0.958 1_545 S
H2177 C2204 0.950 . S
H2178 C2207 0.950 . S
H2179 C2208 0.950 . S
H2180 C2210 0.950 . S
H2181 C2211 0.950 . S
C2182 H2164 0.951 . S
C2182 C2183 1.365 . S
C2182 C2184 1.388 . S
C2183 C2182 1.365 . S
C2183 C2187 1.382 1_545 S
C2184 H2165 0.951 . S
C2184 C2182 1.388 . S
C2184 C2185 1.369 1_545 S
C2185 C2184 1.369 1_565 S
C2185 C2186 1.415 . S
C2185 C2188 1.520 . S
C2186 H2166 0.950 . S
C2186 C2185 1.415 . S
C2186 C2187 1.374 . S
C2187 H2167 0.950 . S
C2187 C2183 1.382 1_565 S
C2187 C2186 1.374 . S
C2188 C2185 1.520 . S
C2188 C2189 1.404 . S
C2188 C2190 1.342 1_565 S
C2189 H2168 0.950 . S
C2189 C2188 1.404 . S
C2189 C2205 1.377 . S
C2190 C2188 1.342 1_545 S
C2190 C2191 1.524 . S
C2190 C2204 1.377 . S
C2191 C2190 1.524 . S
C2191 C2192 1.397 . S
C2191 C2196 1.363 . S
C2192 H2169 0.950 . S
C2192 C2191 1.397 . S
C2192 C2193 1.334 . S
C2193 H2170 0.950 . S
C2193 C2192 1.334 . S
C2193 C2194 1.287 . S
C2194 C2193 1.287 . S
C2194 C2195 1.524 . S
C2194 H2213 0.913 . S
C2195 H2171 0.950 . S
C2195 C2194 1.524 . S
C2195 C2196 1.415 . S
C2196 H2172 0.950 . S
C2196 C2191 1.363 . S
C2196 C2195 1.415 . S
C2197 H2173 0.951 . S
C2197 C2198 1.366 . S
C2197 C2199 1.388 . S
C2198 C2197 1.366 . S
C2198 C2202 1.356 . S
C2199 H2174 0.951 . S
C2199 C2197 1.388 . S
C2199 C2200 1.366 . S
C2200 C2199 1.366 . S
C2200 C2201 1.421 . S
C2200 C2203 1.499 . S
C2201 H2175 0.973 1_565 S
C2201 C2200 1.421 . S
C2201 C2202 1.386 . S
C2202 H2176 0.958 1_565 S
C2202 C2198 1.356 . S
C2202 C2201 1.386 . S
C2203 C2200 1.499 . S
C2203 C2204 1.373 1_565 S
C2203 C2205 1.389 . S
C2204 H2177 0.950 . S
C2204 C2190 1.377 . S
C2204 C2203 1.373 1_545 S
C2205 C2189 1.377 . S
C2205 C2203 1.389 . S
C2205 C2206 1.524 . S
C2206 C2205 1.524 . S
C2206 C2207 1.397 . S
C2206 C2211 1.363 . S
C2207 H2178 0.950 . S
C2207 C2206 1.397 . S
C2207 C2208 1.334 . S
C2208 H2179 0.950 . S
C2208 C2207 1.334 . S
C2208 C2209 1.287 . S
C2209 C2208 1.287 . S
C2209 C2210 1.524 . S
C2209 H2212 0.999 . S
C2210 H2180 0.950 . S
C2210 C2209 1.524 . S
C2210 C2211 1.415 . S
C2211 H2181 0.950 . S
C2211 C2206 1.363 . S
C2211 C2210 1.415 . S
H2212 C2209 0.999 . S
H2213 C2194 0.913 . S
H2214 C2232 0.951 . S
H2215 C2234 0.951 . S
H2216 C2236 0.950 . S
H2217 C2237 0.950 . S
H2218 C2239 0.950 . S
H2219 C2242 0.950 . S
H2220 C2243 0.950 . S
H2221 C2245 0.950 . S
H2222 C2246 0.950 . S
H2223 C2247 0.951 . S
H2224 C2249 0.951 . S
H2225 C2251 0.950 . S
H2226 C2252 0.950 . S
H2227 C2254 0.950 . S
H2228 C2257 0.950 . S
H2229 C2258 0.950 . S
H2230 C2260 0.950 . S
H2231 C2261 0.950 . S
C2232 H2214 0.951 . S
C2232 C2233 1.366 . S
C2232 C2234 1.388 . S
C2233 C2232 1.366 . S
C2233 C2237 1.385 1_545 S
C2234 H2215 0.951 . S
C2234 C2232 1.388 . S
C2234 C2235 1.366 . S
C2235 C2234 1.366 . S
C2235 C2236 1.414 1_545 S
C2235 C2238 1.499 . S
C2236 H2216 0.950 . S
C2236 C2235 1.414 1_565 S
C2236 C2237 1.374 . S
C2237 H2217 0.950 . S
C2237 C2233 1.385 1_565 S
C2237 C2236 1.374 . S
C2238 C2235 1.499 . S
C2238 C2239 1.373 1_545 S
C2238 C2240 1.389 . S
C2239 H2218 0.950 . S
C2239 C2238 1.373 1_565 S
C2239 C2255 1.377 . S
C2240 C2238 1.389 . S
C2240 C2241 1.524 . S
C2240 C2254 1.377 . S
C2241 C2240 1.524 . S
C2241 C2242 1.397 . S
C2241 C2246 1.363 . S
C2242 H2219 0.950 . S
C2242 C2241 1.397 . S
C2242 C2243 1.334 . S
C2243 H2220 0.950 . S
C2243 C2242 1.334 . S
C2243 C2244 1.287 . S
C2244 C2243 1.287 . S
C2244 C2245 1.524 . S
C2244 H2263 0.913 . S
C2245 H2221 0.950 . S
C2245 C2244 1.524 . S
C2245 C2246 1.415 . S
C2246 H2222 0.950 . S
C2246 C2241 1.363 . S
C2246 C2245 1.415 . S
C2247 H2223 0.951 . S
C2247 C2248 1.366 1_565 S
C2247 C2249 1.388 . S
C2248 C2247 1.366 1_545 S
C2248 C2252 1.385 . S
C2249 H2224 0.951 . S
C2249 C2247 1.388 . S
C2249 C2250 1.366 1_565 S
C2250 C2249 1.366 1_545 S
C2250 C2251 1.414 . S
C2250 C2253 1.499 . S
C2251 H2225 0.950 . S
C2251 C2250 1.414 . S
C2251 C2252 1.374 . S
C2252 H2226 0.950 . S
C2252 C2248 1.385 . S
C2252 C2251 1.374 . S
C2253 C2250 1.499 . S
C2253 C2254 1.373 . S
C2253 C2255 1.389 1_545 S
C2254 H2227 0.950 . S
C2254 C2240 1.377 . S
C2254 C2253 1.373 . S
C2255 C2239 1.377 . S
C2255 C2253 1.389 1_565 S
C2255 C2256 1.524 . S
C2256 C2255 1.524 . S
C2256 C2257 1.397 . S
C2256 C2261 1.363 . S
C2257 H2228 0.950 . S
C2257 C2256 1.397 . S
C2257 C2258 1.334 . S
C2258 H2229 0.950 . S
C2258 C2257 1.334 . S
C2258 C2259 1.287 . S
C2259 C2258 1.287 . S
C2259 C2260 1.524 . S
C2259 H2262 0.999 . S
C2260 H2230 0.950 . S
C2260 C2259 1.524 . S
C2260 C2261 1.415 . S
C2261 H2231 0.950 . S
C2261 C2256 1.363 . S
C2261 C2260 1.415 . S
H2262 C2259 0.999 . S
H2263 C2244 0.913 . S
H2264 C2282 0.951 . S
H2265 C2284 0.951 . S
H2266 C2286 0.950 . S
H2267 C2287 0.950 . S
H2268 C2289 0.950 . S
H2269 C2292 0.950 1_455 S
H2270 C2293 0.943 1_455 S
H2271 C2295 0.950 . S
H2272 C2296 0.950 . S
H2273 C2297 0.951 . S
H2274 C2299 0.951 . S
H2275 C2301 0.950 . S
H2276 C2302 0.950 . S
H2277 C2304 0.950 . S
H2278 C2307 0.950 . S
H2279 C2308 0.947 1_655 S
H2280 C2310 0.950 . S
H2281 C2311 0.950 . S
C2282 H2264 0.951 . S
C2282 C2283 1.366 . S
C2282 C2284 1.388 . S
C2283 C2282 1.366 . S
C2283 C2287 1.385 1_655 S
C2284 H2265 0.951 . S
C2284 C2282 1.388 . S
C2284 C2285 1.366 . S
C2285 C2284 1.366 . S
C2285 C2286 1.414 1_655 S
C2285 C2288 1.499 . S
C2286 H2266 0.950 . S
C2286 C2285 1.414 1_455 S
C2286 C2287 1.374 . S
C2287 H2267 0.950 . S
C2287 C2283 1.385 1_455 S
C2287 C2286 1.374 . S
C2288 C2285 1.499 . S
C2288 C2289 1.373 1_655 S
C2288 C2290 1.389 . S
C2289 H2268 0.950 . S
C2289 C2288 1.373 1_455 S
C2289 C2305 1.377 . S
C2290 C2288 1.389 . S
C2290 C2291 1.524 . S
C2290 C2304 1.377 . S
C2291 C2290 1.524 . S
C2291 C2292 1.397 . S
C2291 C2296 1.363 . S
C2292 H2269 0.950 1_655 S
C2292 C2291 1.397 . S
C2292 C2293 1.334 . S
C2293 H2270 0.943 1_655 S
C2293 C2292 1.334 . S
C2293 C2294 1.287 . S
C2294 C2293 1.287 . S
C2294 C2295 1.524 . S
C2294 H2313 0.913 . S
C2295 H2271 0.950 . S
C2295 C2294 1.524 . S
C2295 C2296 1.415 . S
C2296 H2272 0.950 . S
C2296 C2291 1.363 . S
C2296 C2295 1.415 . S
C2297 H2273 0.951 . S
C2297 C2298 1.366 1_455 S
C2297 C2299 1.388 . S
C2298 C2297 1.366 1_655 S
C2298 C2302 1.385 . S
C2299 H2274 0.951 . S
C2299 C2297 1.388 . S
C2299 C2300 1.366 1_455 S
C2300 C2299 1.366 1_655 S
C2300 C2301 1.414 . S
C2300 C2303 1.499 . S
C2301 H2275 0.950 . S
C2301 C2300 1.414 . S
C2301 C2302 1.374 . S
C2302 H2276 0.950 . S
C2302 C2298 1.385 . S
C2302 C2301 1.374 . S
C2303 C2300 1.499 . S
C2303 C2304 1.373 . S
C2303 C2305 1.389 1_655 S
C2304 H2277 0.950 . S
C2304 C2290 1.377 . S
C2304 C2303 1.373 . S
C2305 C2289 1.377 . S
C2305 C2303 1.389 1_455 S
C2305 C2306 1.524 . S
C2306 C2305 1.524 . S
C2306 C2307 1.397 1_455 S
C2306 C2311 1.363 . S
C2307 H2278 0.950 . S
C2307 C2306 1.397 1_655 S
C2307 C2308 1.322 1_655 S
C2308 H2279 0.947 1_455 S
C2308 C2307 1.322 1_455 S
C2308 C2309 1.303 . S
C2309 C2308 1.303 . S
C2309 C2310 1.524 . S
C2309 H2312 0.999 . S
C2310 H2280 0.950 . S
C2310 C2309 1.524 . S
C2310 C2311 1.415 . S
C2311 H2281 0.950 . S
C2311 C2306 1.363 . S
C2311 C2310 1.415 . S
H2312 C2309 0.999 . S
H2313 C2294 0.913 . S
H2314 C2332 0.951 . S
H2315 C2334 0.951 . S
H2316 C2336 0.950 . S
H2317 C2337 0.950 . S
H2318 C2339 0.950 . S
H2319 C2342 0.950 . S
H2320 C2343 0.950 . S
H2321 C2345 0.950 . S
H2322 C2346 0.950 . S
H2323 C2347 0.951 . S
H2324 C2349 0.951 . S
H2325 C2351 0.950 . S
H2326 C2352 0.950 . S
H2327 C2354 0.950 . S
H2328 C2357 0.950 . S
H2329 C2358 0.950 . S
H2330 C2360 0.950 . S
H2331 C2361 0.950 . S
C2332 H2314 0.951 . S
C2332 C2333 1.366 . S
C2332 C2334 1.388 . S
C2333 C2332 1.366 . S
C2333 C2337 1.385 . S
C2334 H2315 0.951 . S
C2334 C2332 1.388 . S
C2334 C2335 1.366 . S
C2335 C2334 1.366 . S
C2335 C2336 1.414 . S
C2335 C2338 1.499 . S
C2336 H2316 0.950 . S
C2336 C2335 1.414 . S
C2336 C2337 1.374 . S
C2337 H2317 0.950 . S
C2337 C2333 1.385 . S
C2337 C2336 1.374 . S
C2338 C2335 1.499 . S
C2338 C2339 1.373 . S
C2338 C2340 1.389 . S
C2339 H2318 0.950 . S
C2339 C2338 1.373 . S
C2339 C2355 1.377 . S
C2340 C2338 1.389 . S
C2340 C2341 1.524 . S
C2340 C2354 1.377 . S
C2341 C2340 1.524 . S
C2341 C2342 1.397 . S
C2341 C2346 1.363 . S
C2342 H2319 0.950 . S
C2342 C2341 1.397 . S
C2342 C2343 1.334 . S
C2343 H2320 0.950 . S
C2343 C2342 1.334 . S
C2343 C2344 1.287 . S
C2344 C2343 1.287 . S
C2344 C2345 1.524 . S
C2344 H2363 0.913 . S
C2345 H2321 0.950 . S
C2345 C2344 1.524 . S
C2345 C2346 1.415 . S
C2346 H2322 0.950 . S
C2346 C2341 1.363 . S
C2346 C2345 1.415 . S
C2347 H2323 0.951 . S
C2347 C2348 1.366 . S
C2347 C2349 1.388 . S
C2348 C2347 1.366 . S
C2348 C2352 1.385 . S
C2349 H2324 0.951 . S
C2349 C2347 1.388 . S
C2349 C2350 1.366 . S
C2350 C2349 1.366 . S
C2350 C2351 1.414 . S
C2350 C2353 1.499 . S
C2351 H2325 0.950 . S
C2351 C2350 1.414 . S
C2351 C2352 1.374 . S
C2352 H2326 0.950 . S
C2352 C2348 1.385 . S
C2352 C2351 1.374 . S
C2353 C2350 1.499 . S
C2353 C2354 1.373 . S
C2353 C2355 1.389 . S
C2354 H2327 0.950 . S
C2354 C2340 1.377 . S
C2354 C2353 1.373 . S
C2355 C2339 1.377 . S
C2355 C2353 1.389 . S
C2355 C2356 1.524 . S
C2356 C2355 1.524 . S
C2356 C2357 1.397 . S
C2356 C2361 1.363 . S
C2357 H2328 0.950 . S
C2357 C2356 1.397 . S
C2357 C2358 1.334 . S
C2358 H2329 0.950 . S
C2358 C2357 1.334 . S
C2358 C2359 1.287 . S
C2359 C2358 1.287 . S
C2359 C2360 1.524 . S
C2359 H2362 0.999 . S
C2360 H2330 0.950 . S
C2360 C2359 1.524 . S
C2360 C2361 1.415 . S
C2361 H2331 0.950 . S
C2361 C2356 1.363 . S
C2361 C2360 1.415 . S
H2362 C2359 0.999 . S
H2363 C2344 0.913 . S
H2364 C2382 0.951 . S
H2365 C2384 0.951 . S
H2366 C2386 0.950 . S
H2367 C2387 0.950 . S
H2368 C2389 0.950 . S
H2369 C2392 0.950 . S
H2370 C2393 0.950 . S
H2371 C2395 0.950 . S
H2372 C2396 0.950 . S
H2373 C2397 0.951 . S
H2374 C2399 0.951 . S
H2375 C2401 0.950 . S
H2376 C2402 0.950 . S
H2377 C2404 0.950 . S
H2378 C2407 0.950 . S
H2379 C2408 0.950 . S
H2380 C2410 0.950 . S
H2381 C2411 0.950 . S
C2382 H2364 0.951 . S
C2382 C2383 1.366 . S
C2382 C2384 1.388 . S
C2383 C2382 1.366 . S
C2383 C2387 1.385 . S
C2384 H2365 0.951 . S
C2384 C2382 1.388 . S
C2384 C2385 1.366 . S
C2385 C2384 1.366 . S
C2385 C2386 1.414 . S
C2385 C2388 1.499 . S
C2386 H2366 0.950 . S
C2386 C2385 1.414 . S
C2386 C2387 1.374 . S
C2387 H2367 0.950 . S
C2387 C2383 1.385 . S
C2387 C2386 1.374 . S
C2388 C2385 1.499 . S
C2388 C2389 1.373 . S
C2388 C2390 1.389 . S
C2389 H2368 0.950 . S
C2389 C2388 1.373 . S
C2389 C2405 1.377 . S
C2390 C2388 1.389 . S
C2390 C2391 1.524 . S
C2390 C2404 1.377 . S
C2391 C2390 1.524 . S
C2391 C2392 1.397 . S
C2391 C2396 1.363 . S
C2392 H2369 0.950 . S
C2392 C2391 1.397 . S
C2392 C2393 1.334 . S
C2393 H2370 0.950 . S
C2393 C2392 1.334 . S
C2393 C2394 1.287 . S
C2394 C2393 1.287 . S
C2394 C2395 1.524 . S
C2394 H2413 0.913 . S
C2395 H2371 0.950 . S
C2395 C2394 1.524 . S
C2395 C2396 1.415 . S
C2396 H2372 0.950 . S
C2396 C2391 1.363 . S
C2396 C2395 1.415 . S
C2397 H2373 0.951 . S
C2397 C2398 1.366 . S
C2397 C2399 1.388 . S
C2398 C2397 1.366 . S
C2398 C2402 1.385 . S
C2399 H2374 0.951 . S
C2399 C2397 1.388 . S
C2399 C2400 1.366 . S
C2400 C2399 1.366 . S
C2400 C2401 1.414 . S
C2400 C2403 1.499 . S
C2401 H2375 0.950 . S
C2401 C2400 1.414 . S
C2401 C2402 1.374 . S
C2402 H2376 0.950 . S
C2402 C2398 1.385 . S
C2402 C2401 1.374 . S
C2403 C2400 1.499 . S
C2403 C2404 1.373 . S
C2403 C2405 1.389 . S
C2404 H2377 0.950 . S
C2404 C2390 1.377 . S
C2404 C2403 1.373 . S
C2405 C2389 1.377 . S
C2405 C2403 1.389 . S
C2405 C2406 1.524 . S
C2406 C2405 1.524 . S
C2406 C2407 1.397 . S
C2406 C2411 1.363 . S
C2407 H2378 0.950 . S
C2407 C2406 1.397 . S
C2407 C2408 1.334 . S
C2408 H2379 0.950 . S
C2408 C2407 1.334 . S
C2408 C2409 1.287 . S
C2409 C2408 1.287 . S
C2409 C2410 1.524 . S
C2409 H2412 0.999 . S
C2410 H2380 0.950 . S
C2410 C2409 1.524 . S
C2410 C2411 1.415 . S
C2411 H2381 0.950 . S
C2411 C2406 1.363 . S
C2411 C2410 1.415 . S
H2412 C2409 0.999 . S
H2413 C2394 0.913 . S
H2414 C2432 0.951 . S
H2415 C2434 0.951 . S
H2416 C2436 0.950 . S
H2417 C2437 0.950 . S
H2418 C2439 0.950 . S
H2419 C2442 0.950 . S
H2420 C2443 0.950 . S
H2421 C2445 0.950 . S
H2422 C2446 0.950 . S
H2423 C2447 0.951 . S
H2424 C2449 0.951 . S
H2425 C2451 0.950 . S
H2426 C2452 0.950 . S
H2427 C2454 0.950 . S
H2428 C2457 0.950 . S
H2429 C2458 0.950 . S
H2430 C2460 0.950 . S
H2431 C2461 0.950 . S
C2432 H2414 0.951 . S
C2432 C2433 1.366 . S
C2432 C2434 1.388 . S
C2433 C2432 1.366 . S
C2433 C2437 1.385 . S
C2434 H2415 0.951 . S
C2434 C2432 1.388 . S
C2434 C2435 1.366 . S
C2435 C2434 1.366 . S
C2435 C2436 1.414 . S
C2435 C2438 1.499 . S
C2436 H2416 0.950 . S
C2436 C2435 1.414 . S
C2436 C2437 1.374 . S
C2437 H2417 0.950 . S
C2437 C2433 1.385 . S
C2437 C2436 1.374 . S
C2438 C2435 1.499 . S
C2438 C2439 1.373 . S
C2438 C2440 1.389 . S
C2439 H2418 0.950 . S
C2439 C2438 1.373 . S
C2439 C2455 1.377 . S
C2440 C2438 1.389 . S
C2440 C2441 1.524 . S
C2440 C2454 1.377 . S
C2441 C2440 1.524 . S
C2441 C2442 1.397 . S
C2441 C2446 1.363 . S
C2442 H2419 0.950 . S
C2442 C2441 1.397 . S
C2442 C2443 1.334 . S
C2443 H2420 0.950 . S
C2443 C2442 1.334 . S
C2443 C2444 1.287 . S
C2444 C2443 1.287 . S
C2444 C2445 1.524 . S
C2444 H2463 0.913 . S
C2445 H2421 0.950 . S
C2445 C2444 1.524 . S
C2445 C2446 1.415 . S
C2446 H2422 0.950 . S
C2446 C2441 1.363 . S
C2446 C2445 1.415 . S
C2447 H2423 0.951 . S
C2447 C2448 1.366 . S
C2447 C2449 1.388 . S
C2448 C2447 1.366 . S
C2448 C2452 1.385 . S
C2449 H2424 0.951 . S
C2449 C2447 1.388 . S
C2449 C2450 1.366 . S
C2450 C2449 1.366 . S
C2450 C2451 1.414 . S
C2450 C2453 1.499 . S
C2451 H2425 0.950 . S
C2451 C2450 1.414 . S
C2451 C2452 1.374 . S
C2452 H2426 0.950 . S
C2452 C2448 1.385 . S
C2452 C2451 1.374 . S
C2453 C2450 1.499 . S
C2453 C2454 1.373 . S
C2453 C2455 1.389 . S
C2454 H2427 0.950 . S
C2454 C2440 1.377 . S
C2454 C2453 1.373 . S
C2455 C2439 1.377 . S
C2455 C2453 1.389 . S
C2455 C2456 1.524 . S
C2456 C2455 1.524 . S
C2456 C2457 1.397 . S
C2456 C2461 1.363 . S
C2457 H2428 0.950 . S
C2457 C2456 1.397 . S
C2457 C2458 1.334 . S
C2458 H2429 0.950 . S
C2458 C2457 1.334 . S
C2458 C2459 1.287 . S
C2459 C2458 1.287 . S
C2459 C2460 1.524 . S
C2459 H2462 0.999 . S
C2460 H2430 0.950 . S
C2460 C2459 1.524 . S
C2460 C2461 1.415 . S
C2461 H2431 0.950 . S
C2461 C2456 1.363 . S
C2461 C2460 1.415 . S
H2462 C2459 0.999 . S
H2463 C2444 0.913 . S
H2464 C2482 0.951 . S
H2465 C2484 0.951 . S
H2466 C2486 0.950 . S
H2467 C2487 0.950 . S
H2468 C2489 0.950 . S
H2469 C2492 0.950 . S
H2470 C2493 0.950 . S
H2471 C2495 0.950 . S
H2472 C2496 0.950 . S
H2473 C2497 0.951 . S
H2474 C2499 0.951 . S
H2475 C2501 0.950 . S
H2476 C2502 0.950 . S
H2477 C2504 0.950 . S
H2478 C2507 0.950 . S
H2479 C2508 0.950 . S
H2480 C2510 0.950 . S
H2481 C2511 0.950 . S
C2482 H2464 0.951 . S
C2482 C2483 1.366 . S
C2482 C2484 1.388 . S
C2483 C2482 1.366 . S
C2483 C2487 1.385 . S
C2484 H2465 0.951 . S
C2484 C2482 1.388 . S
C2484 C2485 1.366 . S
C2485 C2484 1.366 . S
C2485 C2486 1.414 . S
C2485 C2488 1.499 . S
C2486 H2466 0.950 . S
C2486 C2485 1.414 . S
C2486 C2487 1.374 . S
C2487 H2467 0.950 . S
C2487 C2483 1.385 . S
C2487 C2486 1.374 . S
C2488 C2485 1.499 . S
C2488 C2489 1.373 . S
C2488 C2490 1.389 . S
C2489 H2468 0.950 . S
C2489 C2488 1.373 . S
C2489 C2505 1.377 . S
C2490 C2488 1.389 . S
C2490 C2491 1.524 . S
C2490 C2504 1.377 . S
C2491 C2490 1.524 . S
C2491 C2492 1.397 . S
C2491 C2496 1.363 . S
C2492 H2469 0.950 . S
C2492 C2491 1.397 . S
C2492 C2493 1.334 . S
C2493 H2470 0.950 . S
C2493 C2492 1.334 . S
C2493 C2494 1.287 . S
C2494 C2493 1.287 . S
C2494 C2495 1.524 . S
C2494 H2513 0.913 . S
C2495 H2471 0.950 . S
C2495 C2494 1.524 . S
C2495 C2496 1.415 . S
C2496 H2472 0.950 . S
C2496 C2491 1.363 . S
C2496 C2495 1.415 . S
C2497 H2473 0.951 . S
C2497 C2498 1.366 . S
C2497 C2499 1.388 . S
C2498 C2497 1.366 . S
C2498 C2502 1.385 . S
C2499 H2474 0.951 . S
C2499 C2497 1.388 . S
C2499 C2500 1.366 . S
C2500 C2499 1.366 . S
C2500 C2501 1.414 . S
C2500 C2503 1.499 . S
C2501 H2475 0.950 . S
C2501 C2500 1.414 . S
C2501 C2502 1.374 . S
C2502 H2476 0.950 . S
C2502 C2498 1.385 . S
C2502 C2501 1.374 . S
C2503 C2500 1.499 . S
C2503 C2504 1.373 . S
C2503 C2505 1.389 . S
C2504 H2477 0.950 . S
C2504 C2490 1.377 . S
C2504 C2503 1.373 . S
C2505 C2489 1.377 . S
C2505 C2503 1.389 . S
C2505 C2506 1.524 . S
C2506 C2505 1.524 . S
C2506 C2507 1.397 . S
C2506 C2511 1.363 . S
C2507 H2478 0.950 . S
C2507 C2506 1.397 . S
C2507 C2508 1.334 . S
C2508 H2479 0.950 . S
C2508 C2507 1.334 . S
C2508 C2509 1.287 . S
C2509 C2508 1.287 . S
C2509 C2510 1.524 . S
C2509 H2512 0.999 . S
C2510 H2480 0.950 . S
C2510 C2509 1.524 . S
C2510 C2511 1.415 . S
C2511 H2481 0.950 . S
C2511 C2506 1.363 . S
C2511 C2510 1.415 . S
H2512 C2509 0.999 . S
H2513 C2494 0.913 . S
H2514 C2532 0.951 . S
H2515 C2534 0.951 . S
H2516 C2536 0.950 . S
H2517 C2537 0.950 . S
H2518 C2539 0.950 . S
H2519 C2542 0.950 . S
H2520 C2543 0.950 . S
H2521 C2545 0.950 . S
H2522 C2546 0.950 . S
H2523 C2547 0.951 . S
H2524 C2549 0.951 . S
H2525 C2551 0.950 . S
H2526 C2552 0.950 . S
H2527 C2554 0.950 . S
H2528 C2557 0.950 . S
H2529 C2558 0.950 . S
H2530 C2560 0.950 . S
H2531 C2561 0.950 . S
C2532 H2514 0.951 . S
C2532 C2533 1.366 . S
C2532 C2534 1.388 . S
C2533 C2532 1.366 . S
C2533 C2537 1.385 . S
C2534 H2515 0.951 . S
C2534 C2532 1.388 . S
C2534 C2535 1.366 . S
C2535 C2534 1.366 . S
C2535 C2536 1.414 . S
C2535 C2538 1.499 . S
C2536 H2516 0.950 . S
C2536 C2535 1.414 . S
C2536 C2537 1.374 . S
C2537 H2517 0.950 . S
C2537 C2533 1.385 . S
C2537 C2536 1.374 . S
C2538 C2535 1.499 . S
C2538 C2539 1.373 . S
C2538 C2540 1.389 . S
C2539 H2518 0.950 . S
C2539 C2538 1.373 . S
C2539 C2555 1.377 . S
C2540 C2538 1.389 . S
C2540 C2541 1.524 . S
C2540 C2554 1.377 . S
C2541 C2540 1.524 . S
C2541 C2542 1.397 . S
C2541 C2546 1.363 . S
C2542 H2519 0.950 . S
C2542 C2541 1.397 . S
C2542 C2543 1.334 . S
C2543 H2520 0.950 . S
C2543 C2542 1.334 . S
C2543 C2544 1.287 . S
C2544 C2543 1.287 . S
C2544 C2545 1.524 . S
C2544 H2563 0.913 . S
C2545 H2521 0.950 . S
C2545 C2544 1.524 . S
C2545 C2546 1.415 . S
C2546 H2522 0.950 . S
C2546 C2541 1.363 . S
C2546 C2545 1.415 . S
C2547 H2523 0.951 . S
C2547 C2548 1.366 . S
C2547 C2549 1.388 . S
C2548 C2547 1.366 . S
C2548 C2552 1.385 . S
C2549 H2524 0.951 . S
C2549 C2547 1.388 . S
C2549 C2550 1.366 . S
C2550 C2549 1.366 . S
C2550 C2551 1.414 . S
C2550 C2553 1.499 . S
C2551 H2525 0.950 . S
C2551 C2550 1.414 . S
C2551 C2552 1.374 . S
C2552 H2526 0.950 . S
C2552 C2548 1.385 . S
C2552 C2551 1.374 . S
C2553 C2550 1.499 . S
C2553 C2554 1.373 . S
C2553 C2555 1.389 . S
C2554 H2527 0.950 . S
C2554 C2540 1.377 . S
C2554 C2553 1.373 . S
C2555 C2539 1.377 . S
C2555 C2553 1.389 . S
C2555 C2556 1.524 . S
C2556 C2555 1.524 . S
C2556 C2557 1.397 . S
C2556 C2561 1.363 . S
C2557 H2528 0.950 . S
C2557 C2556 1.397 . S
C2557 C2558 1.334 . S
C2558 H2529 0.950 . S
C2558 C2557 1.334 . S
C2558 C2559 1.287 . S
C2559 C2558 1.287 . S
C2559 C2560 1.524 . S
C2559 H2562 0.999 . S
C2560 H2530 0.950 . S
C2560 C2559 1.524 . S
C2560 C2561 1.415 . S
C2561 H2531 0.950 . S
C2561 C2556 1.363 . S
C2561 C2560 1.415 . S
H2562 C2559 0.999 . S
H2563 C2544 0.913 . S
H2564 C2582 0.951 . S
H2565 C2584 0.951 . S
H2566 C2586 0.950 . S
H2567 C2587 0.950 . S
H2568 C2589 0.950 . S
H2569 C2592 0.950 . S
H2570 C2593 0.950 . S
H2571 C2595 0.950 . S
H2572 C2596 0.950 . S
H2573 C2597 0.951 . S
H2574 C2599 0.951 . S
H2575 C2601 0.950 . S
H2576 C2602 0.950 . S
H2577 C2604 0.950 . S
H2578 C2607 0.950 . S
H2579 C2608 0.950 . S
H2580 C2610 0.950 . S
H2581 C2611 0.950 . S
C2582 H2564 0.951 . S
C2582 C2583 1.366 . S
C2582 C2584 1.388 . S
C2583 C2582 1.366 . S
C2583 C2587 1.385 . S
C2584 H2565 0.951 . S
C2584 C2582 1.388 . S
C2584 C2585 1.366 . S
C2585 C2584 1.366 . S
C2585 C2586 1.414 . S
C2585 C2588 1.499 . S
C2586 H2566 0.950 . S
C2586 C2585 1.414 . S
C2586 C2587 1.374 . S
C2587 H2567 0.950 . S
C2587 C2583 1.385 . S
C2587 C2586 1.374 . S
C2588 C2585 1.499 . S
C2588 C2589 1.373 . S
C2588 C2590 1.389 . S
C2589 H2568 0.950 . S
C2589 C2588 1.373 . S
C2589 C2605 1.377 . S
C2590 C2588 1.389 . S
C2590 C2591 1.524 . S
C2590 C2604 1.377 . S
C2591 C2590 1.524 . S
C2591 C2592 1.397 . S
C2591 C2596 1.363 . S
C2592 H2569 0.950 . S
C2592 C2591 1.397 . S
C2592 C2593 1.334 . S
C2593 H2570 0.950 . S
C2593 C2592 1.334 . S
C2593 C2594 1.287 . S
C2594 C2593 1.287 . S
C2594 C2595 1.524 . S
C2594 H2613 0.913 . S
C2595 H2571 0.950 . S
C2595 C2594 1.524 . S
C2595 C2596 1.415 . S
C2596 H2572 0.950 . S
C2596 C2591 1.363 . S
C2596 C2595 1.415 . S
C2597 H2573 0.951 . S
C2597 C2598 1.366 . S
C2597 C2599 1.388 . S
C2598 C2597 1.366 . S
C2598 C2602 1.385 . S
C2599 H2574 0.951 . S
C2599 C2597 1.388 . S
C2599 C2600 1.366 . S
C2600 C2599 1.366 . S
C2600 C2601 1.414 . S
C2600 C2603 1.499 . S
C2601 H2575 0.950 . S
C2601 C2600 1.414 . S
C2601 C2602 1.374 . S
C2602 H2576 0.950 . S
C2602 C2598 1.385 . S
C2602 C2601 1.374 . S
C2603 C2600 1.499 . S
C2603 C2604 1.373 . S
C2603 C2605 1.389 . S
C2604 H2577 0.950 . S
C2604 C2590 1.377 . S
C2604 C2603 1.373 . S
C2605 C2589 1.377 . S
C2605 C2603 1.389 . S
C2605 C2606 1.524 . S
C2606 C2605 1.524 . S
C2606 C2607 1.397 . S
C2606 C2611 1.363 . S
C2607 H2578 0.950 . S
C2607 C2606 1.397 . S
C2607 C2608 1.334 . S
C2608 H2579 0.950 . S
C2608 C2607 1.334 . S
C2608 C2609 1.287 . S
C2609 C2608 1.287 . S
C2609 C2610 1.524 . S
C2609 H2612 0.999 . S
C2610 H2580 0.950 . S
C2610 C2609 1.524 . S
C2610 C2611 1.415 . S
C2611 H2581 0.950 . S
C2611 C2606 1.363 . S
C2611 C2610 1.415 . S
H2612 C2609 0.999 . S
H2613 C2594 0.913 . S
H2614 C2632 0.951 . S
H2615 C2634 0.951 . S
H2616 C2636 0.950 . S
H2617 C2637 0.950 . S
H2618 C2639 0.950 . S
H2619 C2642 0.950 . S
H2620 C2643 0.950 . S
H2621 C2645 0.950 . S
H2622 C2646 0.950 . S
H2623 C2647 0.951 . S
H2624 C2649 0.951 . S
H2625 C2651 0.950 . S
H2626 C2652 0.950 . S
H2627 C2654 0.950 . S
H2628 C2657 0.950 . S
H2629 C2658 0.950 . S
H2630 C2660 0.950 . S
H2631 C2661 0.950 . S
C2632 H2614 0.951 . S
C2632 C2633 1.366 . S
C2632 C2634 1.388 . S
C2633 C2632 1.366 . S
C2633 C2637 1.385 . S
C2634 H2615 0.951 . S
C2634 C2632 1.388 . S
C2634 C2635 1.366 . S
C2635 C2634 1.366 . S
C2635 C2636 1.414 . S
C2635 C2638 1.499 . S
C2636 H2616 0.950 . S
C2636 C2635 1.414 . S
C2636 C2637 1.374 . S
C2637 H2617 0.950 . S
C2637 C2633 1.385 . S
C2637 C2636 1.374 . S
C2638 C2635 1.499 . S
C2638 C2639 1.373 . S
C2638 C2640 1.389 . S
C2639 H2618 0.950 . S
C2639 C2638 1.373 . S
C2639 C2655 1.377 . S
C2640 C2638 1.389 . S
C2640 C2641 1.524 . S
C2640 C2654 1.377 . S
C2641 C2640 1.524 . S
C2641 C2642 1.397 . S
C2641 C2646 1.363 . S
C2642 H2619 0.950 . S
C2642 C2641 1.397 . S
C2642 C2643 1.334 . S
C2643 H2620 0.950 . S
C2643 C2642 1.334 . S
C2643 C2644 1.287 . S
C2644 C2643 1.287 . S
C2644 C2645 1.524 . S
C2644 H2663 0.913 . S
C2645 H2621 0.950 . S
C2645 C2644 1.524 . S
C2645 C2646 1.415 . S
C2646 H2622 0.950 . S
C2646 C2641 1.363 . S
C2646 C2645 1.415 . S
C2647 H2623 0.951 . S
C2647 C2648 1.366 . S
C2647 C2649 1.388 . S
C2648 C2647 1.366 . S
C2648 C2652 1.385 . S
C2649 H2624 0.951 . S
C2649 C2647 1.388 . S
C2649 C2650 1.366 . S
C2650 C2649 1.366 . S
C2650 C2651 1.414 . S
C2650 C2653 1.499 . S
C2651 H2625 0.950 . S
C2651 C2650 1.414 . S
C2651 C2652 1.374 . S
C2652 H2626 0.950 . S
C2652 C2648 1.385 . S
C2652 C2651 1.374 . S
C2653 C2650 1.499 . S
C2653 C2654 1.373 . S
C2653 C2655 1.389 . S
C2654 H2627 0.950 . S
C2654 C2640 1.377 . S
C2654 C2653 1.373 . S
C2655 C2639 1.377 . S
C2655 C2653 1.389 . S
C2655 C2656 1.524 . S
C2656 C2655 1.524 . S
C2656 C2657 1.397 . S
C2656 C2661 1.363 . S
C2657 H2628 0.950 . S
C2657 C2656 1.397 . S
C2657 C2658 1.334 . S
C2658 H2629 0.950 . S
C2658 C2657 1.334 . S
C2658 C2659 1.287 . S
C2659 C2658 1.287 . S
C2659 C2660 1.524 . S
C2659 H2662 0.999 . S
C2660 H2630 0.950 . S
C2660 C2659 1.524 . S
C2660 C2661 1.415 . S
C2661 H2631 0.950 . S
C2661 C2656 1.363 . S
C2661 C2660 1.415 . S
H2662 C2659 0.999 . S
H2663 C2644 0.913 . S
H2664 C2682 0.951 . S
H2665 C2684 0.951 . S
H2666 C2686 0.950 . S
H2667 C2687 0.950 . S
H2668 C2689 0.950 . S
H2669 C2692 0.950 . S
H2670 C2693 0.950 . S
H2671 C2695 0.950 . S
H2672 C2696 0.950 . S
H2673 C2697 0.951 . S
H2674 C2699 0.951 . S
H2675 C2701 0.950 . S
H2676 C2702 0.950 . S
H2677 C2704 0.950 . S
H2678 C2707 0.950 . S
H2679 C2708 0.950 . S
H2680 C2710 0.950 . S
H2681 C2711 0.950 . S
C2682 H2664 0.951 . S
C2682 C2683 1.366 . S
C2682 C2684 1.388 . S
C2683 C2682 1.366 . S
C2683 C2687 1.385 . S
C2684 H2665 0.951 . S
C2684 C2682 1.388 . S
C2684 C2685 1.366 . S
C2685 C2684 1.366 . S
C2685 C2686 1.414 . S
C2685 C2688 1.499 . S
C2686 H2666 0.950 . S
C2686 C2685 1.414 . S
C2686 C2687 1.374 . S
C2687 H2667 0.950 . S
C2687 C2683 1.385 . S
C2687 C2686 1.374 . S
C2688 C2685 1.499 . S
C2688 C2689 1.373 . S
C2688 C2690 1.389 . S
C2689 H2668 0.950 . S
C2689 C2688 1.373 . S
C2689 C2705 1.377 . S
C2690 C2688 1.389 . S
C2690 C2691 1.524 . S
C2690 C2704 1.377 . S
C2691 C2690 1.524 . S
C2691 C2692 1.397 . S
C2691 C2696 1.363 . S
C2692 H2669 0.950 . S
C2692 C2691 1.397 . S
C2692 C2693 1.334 . S
C2693 H2670 0.950 . S
C2693 C2692 1.334 . S
C2693 C2694 1.287 . S
C2694 C2693 1.287 . S
C2694 C2695 1.524 . S
C2694 H2713 0.913 . S
C2695 H2671 0.950 . S
C2695 C2694 1.524 . S
C2695 C2696 1.415 . S
C2696 H2672 0.950 . S
C2696 C2691 1.363 . S
C2696 C2695 1.415 . S
C2697 H2673 0.951 . S
C2697 C2698 1.366 . S
C2697 C2699 1.388 . S
C2698 C2697 1.366 . S
C2698 C2702 1.385 . S
C2699 H2674 0.951 . S
C2699 C2697 1.388 . S
C2699 C2700 1.366 . S
C2700 C2699 1.366 . S
C2700 C2701 1.414 . S
C2700 C2703 1.499 . S
C2701 H2675 0.950 . S
C2701 C2700 1.414 . S
C2701 C2702 1.374 . S
C2702 H2676 0.950 . S
C2702 C2698 1.385 . S
C2702 C2701 1.374 . S
C2703 C2700 1.499 . S
C2703 C2704 1.373 . S
C2703 C2705 1.389 . S
C2704 H2677 0.950 . S
C2704 C2690 1.377 . S
C2704 C2703 1.373 . S
C2705 C2689 1.377 . S
C2705 C2703 1.389 . S
C2705 C2706 1.524 . S
C2706 C2705 1.524 . S
C2706 C2707 1.397 . S
C2706 C2711 1.363 . S
C2707 H2678 0.950 . S
C2707 C2706 1.397 . S
C2707 C2708 1.334 . S
C2708 H2679 0.950 . S
C2708 C2707 1.334 . S
C2708 C2709 1.287 . S
C2709 C2708 1.287 . S
C2709 C2710 1.524 . S
C2709 H2712 0.999 . S
C2710 H2680 0.950 . S
C2710 C2709 1.524 . S
C2710 C2711 1.415 . S
C2711 H2681 0.950 . S
C2711 C2706 1.363 . S
C2711 C2710 1.415 . S
H2712 C2709 0.999 . S
H2713 C2694 0.913 . S
H2714 C2732 0.951 . S
H2715 C2734 0.951 . S
H2716 C2736 0.950 . S
H2717 C2737 0.950 . S
H2718 C2739 0.950 . S
H2719 C2742 0.950 . S
H2720 C2743 0.950 . S
H2721 C2745 0.950 . S
H2722 C2746 0.950 . S
H2723 C2747 0.951 . S
H2724 C2749 0.951 . S
H2725 C2751 0.950 . S
H2726 C2752 0.950 . S
H2727 C2754 0.950 . S
H2728 C2757 0.950 . S
H2729 C2758 0.950 . S
H2730 C2760 0.950 . S
H2731 C2761 0.950 . S
C2732 H2714 0.951 . S
C2732 C2733 1.366 . S
C2732 C2734 1.388 . S
C2733 C2732 1.366 . S
C2733 C2737 1.385 . S
C2734 H2715 0.951 . S
C2734 C2732 1.388 . S
C2734 C2735 1.366 . S
C2735 C2734 1.366 . S
C2735 C2736 1.414 . S
C2735 C2738 1.499 . S
C2736 H2716 0.950 . S
C2736 C2735 1.414 . S
C2736 C2737 1.374 . S
C2737 H2717 0.950 . S
C2737 C2733 1.385 . S
C2737 C2736 1.374 . S
C2738 C2735 1.499 . S
C2738 C2739 1.373 . S
C2738 C2740 1.389 . S
C2739 H2718 0.950 . S
C2739 C2738 1.373 . S
C2739 C2755 1.377 . S
C2740 C2738 1.389 . S
C2740 C2741 1.524 . S
C2740 C2754 1.377 . S
C2741 C2740 1.524 . S
C2741 C2742 1.397 . S
C2741 C2746 1.363 . S
C2742 H2719 0.950 . S
C2742 C2741 1.397 . S
C2742 C2743 1.334 . S
C2743 H2720 0.950 . S
C2743 C2742 1.334 . S
C2743 C2744 1.287 . S
C2744 C2743 1.287 . S
C2744 C2745 1.524 . S
C2744 H2763 0.913 . S
C2745 H2721 0.950 . S
C2745 C2744 1.524 . S
C2745 C2746 1.415 . S
C2746 H2722 0.950 . S
C2746 C2741 1.363 . S
C2746 C2745 1.415 . S
C2747 H2723 0.951 . S
C2747 C2748 1.366 . S
C2747 C2749 1.388 . S
C2748 C2747 1.366 . S
C2748 C2752 1.385 . S
C2749 H2724 0.951 . S
C2749 C2747 1.388 . S
C2749 C2750 1.366 . S
C2750 C2749 1.366 . S
C2750 C2751 1.414 . S
C2750 C2753 1.499 . S
C2751 H2725 0.950 . S
C2751 C2750 1.414 . S
C2751 C2752 1.374 . S
C2752 H2726 0.950 . S
C2752 C2748 1.385 . S
C2752 C2751 1.374 . S
C2753 C2750 1.499 . S
C2753 C2754 1.373 . S
C2753 C2755 1.389 . S
C2754 H2727 0.950 . S
C2754 C2740 1.377 . S
C2754 C2753 1.373 . S
C2755 C2739 1.377 . S
C2755 C2753 1.389 . S
C2755 C2756 1.524 . S
C2756 C2755 1.524 . S
C2756 C2757 1.397 . S
C2756 C2761 1.363 . S
C2757 H2728 0.950 . S
C2757 C2756 1.397 . S
C2757 C2758 1.334 . S
C2758 H2729 0.950 . S
C2758 C2757 1.334 . S
C2758 C2759 1.287 . S
C2759 C2758 1.287 . S
C2759 C2760 1.524 . S
C2759 H2762 0.999 . S
C2760 H2730 0.950 . S
C2760 C2759 1.524 . S
C2760 C2761 1.415 . S
C2761 H2731 0.950 . S
C2761 C2756 1.363 . S
C2761 C2760 1.415 . S
H2762 C2759 0.999 . S
H2763 C2744 0.913 . S
H2764 C2782 0.951 . S
H2765 C2784 0.951 . S
H2766 C2786 0.950 . S
H2767 C2787 0.950 . S
H2768 C2789 0.950 . S
H2769 C2792 0.950 . S
H2770 C2793 0.950 . S
H2771 C2795 0.950 . S
H2772 C2796 0.950 . S
H2773 C2797 0.951 . S
H2774 C2799 0.951 . S
H2775 C2801 0.950 . S
H2776 C2802 0.950 . S
H2777 C2804 0.950 . S
H2778 C2807 0.950 . S
H2779 C2808 0.950 . S
H2780 C2810 0.950 . S
H2781 C2811 0.950 . S
C2782 H2764 0.951 . S
C2782 C2783 1.366 . S
C2782 C2784 1.388 . S
C2783 C2782 1.366 . S
C2783 C2787 1.385 . S
C2784 H2765 0.951 . S
C2784 C2782 1.388 . S
C2784 C2785 1.366 . S
C2785 C2784 1.366 . S
C2785 C2786 1.414 . S
C2785 C2788 1.499 . S
C2786 H2766 0.950 . S
C2786 C2785 1.414 . S
C2786 C2787 1.374 . S
C2787 H2767 0.950 . S
C2787 C2783 1.385 . S
C2787 C2786 1.374 . S
C2788 C2785 1.499 . S
C2788 C2789 1.373 . S
C2788 C2790 1.389 . S
C2789 H2768 0.950 . S
C2789 C2788 1.373 . S
C2789 C2805 1.377 . S
C2790 C2788 1.389 . S
C2790 C2791 1.524 . S
C2790 C2804 1.377 . S
C2791 C2790 1.524 . S
C2791 C2792 1.397 . S
C2791 C2796 1.363 . S
C2792 H2769 0.950 . S
C2792 C2791 1.397 . S
C2792 C2793 1.334 . S
C2793 H2770 0.950 . S
C2793 C2792 1.334 . S
C2793 C2794 1.287 . S
C2794 C2793 1.287 . S
C2794 C2795 1.524 . S
C2794 H2813 0.913 . S
C2795 H2771 0.950 . S
C2795 C2794 1.524 . S
C2795 C2796 1.415 . S
C2796 H2772 0.950 . S
C2796 C2791 1.363 . S
C2796 C2795 1.415 . S
C2797 H2773 0.951 . S
C2797 C2798 1.366 . S
C2797 C2799 1.388 . S
C2798 C2797 1.366 . S
C2798 C2802 1.385 . S
C2799 H2774 0.951 . S
C2799 C2797 1.388 . S
C2799 C2800 1.366 . S
C2800 C2799 1.366 . S
C2800 C2801 1.414 . S
C2800 C2803 1.499 . S
C2801 H2775 0.950 . S
C2801 C2800 1.414 . S
C2801 C2802 1.374 . S
C2802 H2776 0.950 . S
C2802 C2798 1.385 . S
C2802 C2801 1.374 . S
C2803 C2800 1.499 . S
C2803 C2804 1.373 . S
C2803 C2805 1.389 . S
C2804 H2777 0.950 . S
C2804 C2790 1.377 . S
C2804 C2803 1.373 . S
C2805 C2789 1.377 . S
C2805 C2803 1.389 . S
C2805 C2806 1.524 . S
C2806 C2805 1.524 . S
C2806 C2807 1.397 . S
C2806 C2811 1.363 . S
C2807 H2778 0.950 . S
C2807 C2806 1.397 . S
C2807 C2808 1.334 . S
C2808 H2779 0.950 . S
C2808 C2807 1.334 . S
C2808 C2809 1.287 . S
C2809 C2808 1.287 . S
C2809 C2810 1.524 . S
C2809 H2812 0.999 . S
C2810 H2780 0.950 . S
C2810 C2809 1.524 . S
C2810 C2811 1.415 . S
C2811 H2781 0.950 . S
C2811 C2806 1.363 . S
C2811 C2810 1.415 . S
H2812 C2809 0.999 . S
H2813 C2794 0.913 . S
H2814 C2832 0.951 . S
H2815 C2834 0.951 . S
H2816 C2836 0.950 . S
H2817 C2837 0.950 . S
H2818 C2839 0.950 . S
H2819 C2842 0.950 . S
H2820 C2843 0.950 . S
H2821 C2845 0.950 . S
H2822 C2846 0.950 . S
H2823 C2847 0.951 . S
H2824 C2849 0.951 . S
H2825 C2851 0.950 . S
H2826 C2852 0.950 . S
H2827 C2854 0.950 . S
H2828 C2857 0.950 . S
H2829 C2858 0.950 . S
H2830 C2860 0.950 . S
H2831 C2861 0.950 . S
C2832 H2814 0.951 . S
C2832 C2833 1.366 . S
C2832 C2834 1.388 . S
C2833 C2832 1.366 . S
C2833 C2837 1.385 . S
C2834 H2815 0.951 . S
C2834 C2832 1.388 . S
C2834 C2835 1.366 . S
C2835 C2834 1.366 . S
C2835 C2836 1.414 . S
C2835 C2838 1.499 . S
C2836 H2816 0.950 . S
C2836 C2835 1.414 . S
C2836 C2837 1.374 . S
C2837 H2817 0.950 . S
C2837 C2833 1.385 . S
C2837 C2836 1.374 . S
C2838 C2835 1.499 . S
C2838 C2839 1.373 . S
C2838 C2840 1.389 . S
C2839 H2818 0.950 . S
C2839 C2838 1.373 . S
C2839 C2855 1.377 . S
C2840 C2838 1.389 . S
C2840 C2841 1.524 . S
C2840 C2854 1.377 . S
C2841 C2840 1.524 . S
C2841 C2842 1.397 . S
C2841 C2846 1.363 . S
C2842 H2819 0.950 . S
C2842 C2841 1.397 . S
C2842 C2843 1.334 . S
C2843 H2820 0.950 . S
C2843 C2842 1.334 . S
C2843 C2844 1.287 . S
C2844 C2843 1.287 . S
C2844 C2845 1.524 . S
C2844 H2863 0.913 . S
C2845 H2821 0.950 . S
C2845 C2844 1.524 . S
C2845 C2846 1.415 . S
C2846 H2822 0.950 . S
C2846 C2841 1.363 . S
C2846 C2845 1.415 . S
C2847 H2823 0.951 . S
C2847 C2848 1.366 . S
C2847 C2849 1.388 . S
C2848 C2847 1.366 . S
C2848 C2852 1.385 . S
C2849 H2824 0.951 . S
C2849 C2847 1.388 . S
C2849 C2850 1.366 . S
C2850 C2849 1.366 . S
C2850 C2851 1.414 . S
C2850 C2853 1.499 . S
C2851 H2825 0.950 . S
C2851 C2850 1.414 . S
C2851 C2852 1.374 . S
C2852 H2826 0.950 . S
C2852 C2848 1.385 . S
C2852 C2851 1.374 . S
C2853 C2850 1.499 . S
C2853 C2854 1.373 . S
C2853 C2855 1.389 . S
C2854 H2827 0.950 . S
C2854 C2840 1.377 . S
C2854 C2853 1.373 . S
C2855 C2839 1.377 . S
C2855 C2853 1.389 . S
C2855 C2856 1.524 . S
C2856 C2855 1.524 . S
C2856 C2857 1.397 . S
C2856 C2861 1.363 . S
C2857 H2828 0.950 . S
C2857 C2856 1.397 . S
C2857 C2858 1.334 . S
C2858 H2829 0.950 . S
C2858 C2857 1.334 . S
C2858 C2859 1.287 . S
C2859 C2858 1.287 . S
C2859 C2860 1.524 . S
C2859 H2862 0.999 . S
C2860 H2830 0.950 . S
C2860 C2859 1.524 . S
C2860 C2861 1.415 . S
C2861 H2831 0.950 . S
C2861 C2856 1.363 . S
C2861 C2860 1.415 . S
H2862 C2859 0.999 . S
H2863 C2844 0.913 . S
H2864 C2882 0.951 . S
H2865 C2884 0.951 . S
H2866 C2886 0.950 . S
H2867 C2887 0.950 . S
H2868 C2889 0.950 . S
H2869 C2892 0.950 . S
H2870 C2893 0.950 . S
H2871 C2895 0.950 . S
H2872 C2896 0.950 . S
H2873 C2897 0.951 . S
H2874 C2899 0.951 . S
H2875 C2901 0.950 . S
H2876 C2902 0.950 . S
H2877 C2904 0.950 . S
H2878 C2907 0.950 . S
H2879 C2908 0.950 . S
H2880 C2910 0.950 . S
H2881 C2911 0.950 . S
C2882 H2864 0.951 . S
C2882 C2883 1.366 . S
C2882 C2884 1.388 . S
C2883 C2882 1.366 . S
C2883 C2887 1.385 . S
C2884 H2865 0.951 . S
C2884 C2882 1.388 . S
C2884 C2885 1.366 . S
C2885 C2884 1.366 . S
C2885 C2886 1.414 . S
C2885 C2888 1.499 . S
C2886 H2866 0.950 . S
C2886 C2885 1.414 . S
C2886 C2887 1.374 . S
C2887 H2867 0.950 . S
C2887 C2883 1.385 . S
C2887 C2886 1.374 . S
C2888 C2885 1.499 . S
C2888 C2889 1.373 . S
C2888 C2890 1.389 . S
C2889 H2868 0.950 . S
C2889 C2888 1.373 . S
C2889 C2905 1.377 . S
C2890 C2888 1.389 . S
C2890 C2891 1.524 . S
C2890 C2904 1.377 . S
C2891 C2890 1.524 . S
C2891 C2892 1.397 . S
C2891 C2896 1.363 . S
C2892 H2869 0.950 . S
C2892 C2891 1.397 . S
C2892 C2893 1.334 . S
C2893 H2870 0.950 . S
C2893 C2892 1.334 . S
C2893 C2894 1.287 . S
C2894 C2893 1.287 . S
C2894 C2895 1.524 . S
C2894 H2913 0.913 . S
C2895 H2871 0.950 . S
C2895 C2894 1.524 . S
C2895 C2896 1.415 . S
C2896 H2872 0.950 . S
C2896 C2891 1.363 . S
C2896 C2895 1.415 . S
C2897 H2873 0.951 . S
C2897 C2898 1.366 . S
C2897 C2899 1.388 . S
C2898 C2897 1.366 . S
C2898 C2902 1.385 . S
C2899 H2874 0.951 . S
C2899 C2897 1.388 . S
C2899 C2900 1.366 . S
C2900 C2899 1.366 . S
C2900 C2901 1.414 . S
C2900 C2903 1.499 . S
C2901 H2875 0.950 . S
C2901 C2900 1.414 . S
C2901 C2902 1.374 . S
C2902 H2876 0.950 . S
C2902 C2898 1.385 . S
C2902 C2901 1.374 . S
C2903 C2900 1.499 . S
C2903 C2904 1.373 . S
C2903 C2905 1.389 . S
C2904 H2877 0.950 . S
C2904 C2890 1.377 . S
C2904 C2903 1.373 . S
C2905 C2889 1.377 . S
C2905 C2903 1.389 . S
C2905 C2906 1.524 . S
C2906 C2905 1.524 . S
C2906 C2907 1.397 . S
C2906 C2911 1.363 . S
C2907 H2878 0.950 . S
C2907 C2906 1.397 . S
C2907 C2908 1.334 . S
C2908 H2879 0.950 . S
C2908 C2907 1.334 . S
C2908 C2909 1.287 . S
C2909 C2908 1.287 . S
C2909 C2910 1.524 . S
C2909 H2912 0.999 . S
C2910 H2880 0.950 . S
C2910 C2909 1.524 . S
C2910 C2911 1.415 . S
C2911 H2881 0.950 . S
C2911 C2906 1.363 . S
C2911 C2910 1.415 . S
H2912 C2909 0.999 . S
H2913 C2894 0.913 . S
H2914 C2932 0.951 . S
H2915 C2934 0.951 . S
H2916 C2936 0.950 . S
H2917 C2937 0.950 . S
H2918 C2939 0.950 . S
H2919 C2942 0.950 . S
H2920 C2943 0.950 . S
H2921 C2945 0.950 . S
H2922 C2946 0.950 . S
H2923 C2947 0.951 . S
H2924 C2949 0.951 . S
H2925 C2951 0.950 . S
H2926 C2952 0.950 . S
H2927 C2954 0.950 . S
H2928 C2957 0.950 . S
H2929 C2958 0.950 . S
H2930 C2960 0.950 . S
H2931 C2961 0.950 . S
C2932 H2914 0.951 . S
C2932 C2933 1.366 . S
C2932 C2934 1.388 . S
C2933 C2932 1.366 . S
C2933 C2937 1.385 . S
C2934 H2915 0.951 . S
C2934 C2932 1.388 . S
C2934 C2935 1.366 . S
C2935 C2934 1.366 . S
C2935 C2936 1.414 . S
C2935 C2938 1.499 . S
C2936 H2916 0.950 . S
C2936 C2935 1.414 . S
C2936 C2937 1.374 . S
C2937 H2917 0.950 . S
C2937 C2933 1.385 . S
C2937 C2936 1.374 . S
C2938 C2935 1.499 . S
C2938 C2939 1.373 . S
C2938 C2940 1.389 . S
C2939 H2918 0.950 . S
C2939 C2938 1.373 . S
C2939 C2955 1.377 . S
C2940 C2938 1.389 . S
C2940 C2941 1.524 . S
C2940 C2954 1.377 . S
C2941 C2940 1.524 . S
C2941 C2942 1.397 . S
C2941 C2946 1.363 . S
C2942 H2919 0.950 . S
C2942 C2941 1.397 . S
C2942 C2943 1.334 . S
C2943 H2920 0.950 . S
C2943 C2942 1.334 . S
C2943 C2944 1.287 . S
C2944 C2943 1.287 . S
C2944 C2945 1.524 . S
C2944 H2963 0.913 . S
C2945 H2921 0.950 . S
C2945 C2944 1.524 . S
C2945 C2946 1.415 . S
C2946 H2922 0.950 . S
C2946 C2941 1.363 . S
C2946 C2945 1.415 . S
C2947 H2923 0.951 . S
C2947 C2948 1.366 . S
C2947 C2949 1.388 . S
C2948 C2947 1.366 . S
C2948 C2952 1.385 . S
C2949 H2924 0.951 . S
C2949 C2947 1.388 . S
C2949 C2950 1.366 . S
C2950 C2949 1.366 . S
C2950 C2951 1.414 . S
C2950 C2953 1.499 . S
C2951 H2925 0.950 . S
C2951 C2950 1.414 . S
C2951 C2952 1.374 . S
C2952 H2926 0.950 . S
C2952 C2948 1.385 . S
C2952 C2951 1.374 . S
C2953 C2950 1.499 . S
C2953 C2954 1.373 . S
C2953 C2955 1.389 . S
C2954 H2927 0.950 . S
C2954 C2940 1.377 . S
C2954 C2953 1.373 . S
C2955 C2939 1.377 . S
C2955 C2953 1.389 . S
C2955 C2956 1.524 . S
C2956 C2955 1.524 . S
C2956 C2957 1.397 . S
C2956 C2961 1.363 . S
C2957 H2928 0.950 . S
C2957 C2956 1.397 . S
C2957 C2958 1.334 . S
C2958 H2929 0.950 . S
C2958 C2957 1.334 . S
C2958 C2959 1.287 . S
C2959 C2958 1.287 . S
C2959 C2960 1.524 . S
C2959 H2962 0.999 . S
C2960 H2930 0.950 . S
C2960 C2959 1.524 . S
C2960 C2961 1.415 . S
C2961 H2931 0.950 . S
C2961 C2956 1.363 . S
C2961 C2960 1.415 . S
H2962 C2959 0.999 . S
H2963 C2944 0.913 . S
H2964 C2982 0.951 . S
H2965 C2984 0.951 . S
H2966 C2986 0.950 . S
H2967 C2987 0.950 . S
H2968 C2989 0.950 . S
H2969 C2992 0.950 . S
H2970 C2993 0.950 . S
H2971 C2995 0.950 . S
H2972 C2996 0.950 . S
H2973 C2997 0.951 . S
H2974 C2999 0.951 . S
H2975 C3001 0.950 . S
H2976 C3002 0.950 . S
H2977 C3004 0.950 . S
H2978 C3007 0.950 . S
H2979 C3008 0.950 . S
H2980 C3010 0.950 . S
H2981 C3011 0.950 . S
C2982 H2964 0.951 . S
C2982 C2983 1.366 . S
C2982 C2984 1.388 . S
C2983 C2982 1.366 . S
C2983 C2987 1.385 . S
C2984 H2965 0.951 . S
C2984 C2982 1.388 . S
C2984 C2985 1.366 . S
C2985 C2984 1.366 . S
C2985 C2986 1.414 . S
C2985 C2988 1.499 . S
C2986 H2966 0.950 . S
C2986 C2985 1.414 . S
C2986 C2987 1.374 . S
C2987 H2967 0.950 . S
C2987 C2983 1.385 . S
C2987 C2986 1.374 . S
C2988 C2985 1.499 . S
C2988 C2989 1.373 . S
C2988 C2990 1.389 . S
C2989 H2968 0.950 . S
C2989 C2988 1.373 . S
C2989 C3005 1.377 . S
C2990 C2988 1.389 . S
C2990 C2991 1.524 . S
C2990 C3004 1.377 . S
C2991 C2990 1.524 . S
C2991 C2992 1.397 . S
C2991 C2996 1.363 . S
C2992 H2969 0.950 . S
C2992 C2991 1.397 . S
C2992 C2993 1.334 . S
C2993 H2970 0.950 . S
C2993 C2992 1.334 . S
C2993 C2994 1.287 . S
C2994 C2993 1.287 . S
C2994 C2995 1.524 . S
C2994 H3013 0.913 . S
C2995 H2971 0.950 . S
C2995 C2994 1.524 . S
C2995 C2996 1.415 . S
C2996 H2972 0.950 . S
C2996 C2991 1.363 . S
C2996 C2995 1.415 . S
C2997 H2973 0.951 . S
C2997 C2998 1.366 . S
C2997 C2999 1.388 . S
C2998 C2997 1.366 . S
C2998 C3002 1.385 . S
C2999 H2974 0.951 . S
C2999 C2997 1.388 . S
C2999 C3000 1.366 . S
C3000 C2999 1.366 . S
C3000 C3001 1.414 . S
C3000 C3003 1.499 . S
C3001 H2975 0.950 . S
C3001 C3000 1.414 . S
C3001 C3002 1.374 . S
C3002 H2976 0.950 . S
C3002 C2998 1.385 . S
C3002 C3001 1.374 . S
C3003 C3000 1.499 . S
C3003 C3004 1.373 . S
C3003 C3005 1.389 . S
C3004 H2977 0.950 . S
C3004 C2990 1.377 . S
C3004 C3003 1.373 . S
C3005 C2989 1.377 . S
C3005 C3003 1.389 . S
C3005 C3006 1.524 . S
C3006 C3005 1.524 . S
C3006 C3007 1.397 . S
C3006 C3011 1.363 . S
C3007 H2978 0.950 . S
C3007 C3006 1.397 . S
C3007 C3008 1.334 . S
C3008 H2979 0.950 . S
C3008 C3007 1.334 . S
C3008 C3009 1.287 . S
C3009 C3008 1.287 . S
C3009 C3010 1.524 . S
C3009 H3012 0.999 . S
C3010 H2980 0.950 . S
C3010 C3009 1.524 . S
C3010 C3011 1.415 . S
C3011 H2981 0.950 . S
C3011 C3006 1.363 . S
C3011 C3010 1.415 . S
H3012 C3009 0.999 . S
H3013 C2994 0.913 . S
H3014 C3032 0.951 . S
H3015 C3034 0.951 . S
H3016 C3036 0.950 . S
H3017 C3037 0.950 . S
H3018 C3039 0.950 . S
H3019 C3042 0.950 . S
H3020 C3043 0.950 . S
H3021 C3045 0.950 . S
H3022 C3046 0.950 . S
H3023 C3047 0.951 . S
H3024 C3049 0.951 . S
H3025 C3051 0.950 . S
H3026 C3052 0.950 . S
H3027 C3054 0.950 . S
H3028 C3057 0.950 . S
H3029 C3058 0.950 . S
H3030 C3060 0.950 . S
H3031 C3061 0.950 . S
C3032 H3014 0.951 . S
C3032 C3033 1.366 . S
C3032 C3034 1.388 . S
C3033 C3032 1.366 . S
C3033 C3037 1.385 . S
C3034 H3015 0.951 . S
C3034 C3032 1.388 . S
C3034 C3035 1.366 . S
C3035 C3034 1.366 . S
C3035 C3036 1.414 . S
C3035 C3038 1.499 . S
C3036 H3016 0.950 . S
C3036 C3035 1.414 . S
C3036 C3037 1.374 . S
C3037 H3017 0.950 . S
C3037 C3033 1.385 . S
C3037 C3036 1.374 . S
C3038 C3035 1.499 . S
C3038 C3039 1.373 . S
C3038 C3040 1.389 . S
C3039 H3018 0.950 . S
C3039 C3038 1.373 . S
C3039 C3055 1.377 . S
C3040 C3038 1.389 . S
C3040 C3041 1.524 . S
C3040 C3054 1.377 . S
C3041 C3040 1.524 . S
C3041 C3042 1.397 . S
C3041 C3046 1.363 . S
C3042 H3019 0.950 . S
C3042 C3041 1.397 . S
C3042 C3043 1.334 . S
C3043 H3020 0.950 . S
C3043 C3042 1.334 . S
C3043 C3044 1.287 . S
C3044 C3043 1.287 . S
C3044 C3045 1.524 . S
C3044 H3063 0.913 . S
C3045 H3021 0.950 . S
C3045 C3044 1.524 . S
C3045 C3046 1.415 . S
C3046 H3022 0.950 . S
C3046 C3041 1.363 . S
C3046 C3045 1.415 . S
C3047 H3023 0.951 . S
C3047 C3048 1.366 . S
C3047 C3049 1.388 . S
C3048 C3047 1.366 . S
C3048 C3052 1.385 . S
C3049 H3024 0.951 . S
C3049 C3047 1.388 . S
C3049 C3050 1.366 . S
C3050 C3049 1.366 . S
C3050 C3051 1.414 . S
C3050 C3053 1.499 . S
C3051 H3025 0.950 . S
C3051 C3050 1.414 . S
C3051 C3052 1.374 . S
C3052 H3026 0.950 . S
C3052 C3048 1.385 . S
C3052 C3051 1.374 . S
C3053 C3050 1.499 . S
C3053 C3054 1.373 . S
C3053 C3055 1.389 . S
C3054 H3027 0.950 . S
C3054 C3040 1.377 . S
C3054 C3053 1.373 . S
C3055 C3039 1.377 . S
C3055 C3053 1.389 . S
C3055 C3056 1.524 . S
C3056 C3055 1.524 . S
C3056 C3057 1.397 . S
C3056 C3061 1.363 . S
C3057 H3028 0.950 . S
C3057 C3056 1.397 . S
C3057 C3058 1.334 . S
C3058 H3029 0.950 . S
C3058 C3057 1.334 . S
C3058 C3059 1.287 . S
C3059 C3058 1.287 . S
C3059 C3060 1.524 . S
C3059 H3062 0.999 . S
C3060 H3030 0.950 . S
C3060 C3059 1.524 . S
C3060 C3061 1.415 . S
C3061 H3031 0.950 . S
C3061 C3056 1.363 . S
C3061 C3060 1.415 . S
H3062 C3059 0.999 . S
H3063 C3044 0.913 . S
H3064 C3082 0.951 . S
H3065 C3084 0.951 . S
H3066 C3086 0.950 . S
H3067 C3087 0.950 . S
H3068 C3089 0.950 . S
H3069 C3092 0.950 . S
H3070 C3093 0.950 . S
H3071 C3095 0.950 . S
H3072 C3096 0.950 . S
H3073 C3097 0.951 . S
H3074 C3099 0.951 . S
H3075 C3101 0.950 . S
H3076 C3102 0.950 . S
H3077 C3104 0.950 . S
H3078 C3107 0.950 . S
H3079 C3108 0.950 . S
H3080 C3110 0.950 . S
H3081 C3111 0.950 . S
C3082 H3064 0.951 . S
C3082 C3083 1.366 . S
C3082 C3084 1.388 . S
C3083 C3082 1.366 . S
C3083 C3087 1.385 . S
C3084 H3065 0.951 . S
C3084 C3082 1.388 . S
C3084 C3085 1.366 . S
C3085 C3084 1.366 . S
C3085 C3086 1.414 . S
C3085 C3088 1.499 . S
C3086 H3066 0.950 . S
C3086 C3085 1.414 . S
C3086 C3087 1.374 . S
C3087 H3067 0.950 . S
C3087 C3083 1.385 . S
C3087 C3086 1.374 . S
C3088 C3085 1.499 . S
C3088 C3089 1.373 . S
C3088 C3090 1.389 . S
C3089 H3068 0.950 . S
C3089 C3088 1.373 . S
C3089 C3105 1.377 . S
C3090 C3088 1.389 . S
C3090 C3091 1.524 . S
C3090 C3104 1.377 . S
C3091 C3090 1.524 . S
C3091 C3092 1.397 . S
C3091 C3096 1.363 . S
C3092 H3069 0.950 . S
C3092 C3091 1.397 . S
C3092 C3093 1.334 . S
C3093 H3070 0.950 . S
C3093 C3092 1.334 . S
C3093 C3094 1.287 . S
C3094 C3093 1.287 . S
C3094 C3095 1.524 . S
C3094 H3113 0.913 . S
C3095 H3071 0.950 . S
C3095 C3094 1.524 . S
C3095 C3096 1.415 . S
C3096 H3072 0.950 . S
C3096 C3091 1.363 . S
C3096 C3095 1.415 . S
C3097 H3073 0.951 . S
C3097 C3098 1.366 . S
C3097 C3099 1.388 . S
C3098 C3097 1.366 . S
C3098 C3102 1.385 . S
C3099 H3074 0.951 . S
C3099 C3097 1.388 . S
C3099 C3100 1.366 . S
C3100 C3099 1.366 . S
C3100 C3101 1.414 . S
C3100 C3103 1.499 . S
C3101 H3075 0.950 . S
C3101 C3100 1.414 . S
C3101 C3102 1.374 . S
C3102 H3076 0.950 . S
C3102 C3098 1.385 . S
C3102 C3101 1.374 . S
C3103 C3100 1.499 . S
C3103 C3104 1.373 . S
C3103 C3105 1.389 . S
C3104 H3077 0.950 . S
C3104 C3090 1.377 . S
C3104 C3103 1.373 . S
C3105 C3089 1.377 . S
C3105 C3103 1.389 . S
C3105 C3106 1.524 . S
C3106 C3105 1.524 . S
C3106 C3107 1.397 . S
C3106 C3111 1.363 . S
C3107 H3078 0.950 . S
C3107 C3106 1.397 . S
C3107 C3108 1.334 . S
C3108 H3079 0.950 . S
C3108 C3107 1.334 . S
C3108 C3109 1.287 . S
C3109 C3108 1.287 . S
C3109 C3110 1.524 . S
C3109 H3112 0.999 . S
C3110 H3080 0.950 . S
C3110 C3109 1.524 . S
C3110 C3111 1.415 . S
C3111 H3081 0.950 . S
C3111 C3106 1.363 . S
C3111 C3110 1.415 . S
H3112 C3109 0.999 . S
H3113 C3094 0.913 . S
H3114 C3132 0.951 . S
H3115 C3134 0.951 . S
H3116 C3136 0.950 . S
H3117 C3137 0.950 . S
H3118 C3139 0.950 . S
H3119 C3142 0.950 . S
H3120 C3143 0.950 . S
H3121 C3145 0.950 . S
H3122 C3146 0.950 . S
H3123 C3147 0.951 . S
H3124 C3149 0.951 . S
H3125 C3151 0.950 . S
H3126 C3152 0.950 . S
H3127 C3154 0.950 . S
H3128 C3157 0.950 . S
H3129 C3158 0.950 . S
H3130 C3160 0.950 . S
H3131 C3161 0.950 . S
C3132 H3114 0.951 . S
C3132 C3133 1.366 . S
C3132 C3134 1.388 . S
C3133 C3132 1.366 . S
C3133 C3137 1.385 . S
C3134 H3115 0.951 . S
C3134 C3132 1.388 . S
C3134 C3135 1.366 . S
C3135 C3134 1.366 . S
C3135 C3136 1.414 . S
C3135 C3138 1.499 . S
C3136 H3116 0.950 . S
C3136 C3135 1.414 . S
C3136 C3137 1.374 . S
C3137 H3117 0.950 . S
C3137 C3133 1.385 . S
C3137 C3136 1.374 . S
C3138 C3135 1.499 . S
C3138 C3139 1.373 . S
C3138 C3140 1.389 . S
C3139 H3118 0.950 . S
C3139 C3138 1.373 . S
C3139 C3155 1.377 . S
C3140 C3138 1.389 . S
C3140 C3141 1.524 . S
C3140 C3154 1.377 . S
C3141 C3140 1.524 . S
C3141 C3142 1.397 . S
C3141 C3146 1.363 . S
C3142 H3119 0.950 . S
C3142 C3141 1.397 . S
C3142 C3143 1.334 . S
C3143 H3120 0.950 . S
C3143 C3142 1.334 . S
C3143 C3144 1.287 . S
C3144 C3143 1.287 . S
C3144 C3145 1.524 . S
C3144 H3163 0.913 . S
C3145 H3121 0.950 . S
C3145 C3144 1.524 . S
C3145 C3146 1.415 . S
C3146 H3122 0.950 . S
C3146 C3141 1.363 . S
C3146 C3145 1.415 . S
C3147 H3123 0.951 . S
C3147 C3148 1.366 . S
C3147 C3149 1.388 . S
C3148 C3147 1.366 . S
C3148 C3152 1.385 . S
C3149 H3124 0.951 . S
C3149 C3147 1.388 . S
C3149 C3150 1.366 . S
C3150 C3149 1.366 . S
C3150 C3151 1.414 . S
C3150 C3153 1.499 . S
C3151 H3125 0.950 . S
C3151 C3150 1.414 . S
C3151 C3152 1.374 . S
C3152 H3126 0.950 . S
C3152 C3148 1.385 . S
C3152 C3151 1.374 . S
C3153 C3150 1.499 . S
C3153 C3154 1.373 . S
C3153 C3155 1.389 . S
C3154 H3127 0.950 . S
C3154 C3140 1.377 . S
C3154 C3153 1.373 . S
C3155 C3139 1.377 . S
C3155 C3153 1.389 . S
C3155 C3156 1.524 . S
C3156 C3155 1.524 . S
C3156 C3157 1.397 . S
C3156 C3161 1.363 . S
C3157 H3128 0.950 . S
C3157 C3156 1.397 . S
C3157 C3158 1.334 . S
C3158 H3129 0.950 . S
C3158 C3157 1.334 . S
C3158 C3159 1.287 . S
C3159 C3158 1.287 . S
C3159 C3160 1.524 . S
C3159 H3162 0.999 . S
C3160 H3130 0.950 . S
C3160 C3159 1.524 . S
C3160 C3161 1.415 . S
C3161 H3131 0.950 . S
C3161 C3156 1.363 . S
C3161 C3160 1.415 . S
H3162 C3159 0.999 . S
H3163 C3144 0.913 . S
H3164 C3182 0.951 . S
H3165 C3184 0.951 . S
H3166 C3186 0.950 . S
H3167 C3187 0.950 . S
H3168 C3189 0.950 . S
H3169 C3192 0.950 . S
H3170 C3193 0.950 . S
H3171 C3195 0.950 . S
H3172 C3196 0.950 . S
H3173 C3197 0.951 . S
H3174 C3199 0.951 . S
H3175 C3201 0.950 . S
H3176 C3202 0.950 . S
H3177 C3204 0.950 . S
H3178 C3207 0.950 . S
H3179 C3208 0.950 . S
H3180 C3210 0.950 . S
H3181 C3211 0.950 . S
C3182 H3164 0.951 . S
C3182 C3183 1.366 . S
C3182 C3184 1.388 . S
C3183 C3182 1.366 . S
C3183 C3187 1.385 . S
C3184 H3165 0.951 . S
C3184 C3182 1.388 . S
C3184 C3185 1.366 . S
C3185 C3184 1.366 . S
C3185 C3186 1.414 . S
C3185 C3188 1.499 . S
C3186 H3166 0.950 . S
C3186 C3185 1.414 . S
C3186 C3187 1.374 . S
C3187 H3167 0.950 . S
C3187 C3183 1.385 . S
C3187 C3186 1.374 . S
C3188 C3185 1.499 . S
C3188 C3189 1.373 . S
C3188 C3190 1.389 . S
C3189 H3168 0.950 . S
C3189 C3188 1.373 . S
C3189 C3205 1.377 . S
C3190 C3188 1.389 . S
C3190 C3191 1.524 . S
C3190 C3204 1.377 . S
C3191 C3190 1.524 . S
C3191 C3192 1.397 . S
C3191 C3196 1.363 . S
C3192 H3169 0.950 . S
C3192 C3191 1.397 . S
C3192 C3193 1.334 . S
C3193 H3170 0.950 . S
C3193 C3192 1.334 . S
C3193 C3194 1.287 . S
C3194 C3193 1.287 . S
C3194 C3195 1.524 . S
C3194 H3213 0.913 . S
C3195 H3171 0.950 . S
C3195 C3194 1.524 . S
C3195 C3196 1.415 . S
C3196 H3172 0.950 . S
C3196 C3191 1.363 . S
C3196 C3195 1.415 . S
C3197 H3173 0.951 . S
C3197 C3198 1.366 . S
C3197 C3199 1.388 . S
C3198 C3197 1.366 . S
C3198 C3202 1.385 . S
C3199 H3174 0.951 . S
C3199 C3197 1.388 . S
C3199 C3200 1.366 . S
C3200 C3199 1.366 . S
C3200 C3201 1.414 . S
C3200 C3203 1.499 . S
C3201 H3175 0.950 . S
C3201 C3200 1.414 . S
C3201 C3202 1.374 . S
C3202 H3176 0.950 . S
C3202 C3198 1.385 . S
C3202 C3201 1.374 . S
C3203 C3200 1.499 . S
C3203 C3204 1.373 . S
C3203 C3205 1.389 . S
C3204 H3177 0.950 . S
C3204 C3190 1.377 . S
C3204 C3203 1.373 . S
C3205 C3189 1.377 . S
C3205 C3203 1.389 . S
C3205 C3206 1.524 . S
C3206 C3205 1.524 . S
C3206 C3207 1.397 . S
C3206 C3211 1.363 . S
C3207 H3178 0.950 . S
C3207 C3206 1.397 . S
C3207 C3208 1.334 . S
C3208 H3179 0.950 . S
C3208 C3207 1.334 . S
C3208 C3209 1.287 . S
C3209 C3208 1.287 . S
C3209 C3210 1.524 . S
C3209 H3212 0.999 . S
C3210 H3180 0.950 . S
C3210 C3209 1.524 . S
C3210 C3211 1.415 . S
C3211 H3181 0.950 . S
C3211 C3206 1.363 . S
C3211 C3210 1.415 . S
H3212 C3209 0.999 . S
H3213 C3194 0.913 . S
H3214 C3232 0.951 . S
H3215 C3234 0.951 . S
H3216 C3236 0.950 . S
H3217 C3237 0.950 . S
H3218 C3239 0.950 . S
H3219 C3242 0.950 . S
H3220 C3243 0.950 . S
H3221 C3245 0.950 . S
H3222 C3246 0.950 . S
H3223 C3247 0.951 . S
H3224 C3249 0.951 . S
H3225 C3251 0.950 . S
H3226 C3252 0.950 . S
H3227 C3254 0.950 . S
H3228 C3257 0.950 . S
H3229 C3258 0.950 . S
H3230 C3260 0.950 . S
H3231 C3261 0.950 . S
C3232 H3214 0.951 . S
C3232 C3233 1.366 . S
C3232 C3234 1.388 . S
C3233 C3232 1.366 . S
C3233 C3237 1.385 . S
C3234 H3215 0.951 . S
C3234 C3232 1.388 . S
C3234 C3235 1.366 . S
C3235 C3234 1.366 . S
C3235 C3236 1.414 . S
C3235 C3238 1.499 . S
C3236 H3216 0.950 . S
C3236 C3235 1.414 . S
C3236 C3237 1.374 . S
C3237 H3217 0.950 . S
C3237 C3233 1.385 . S
C3237 C3236 1.374 . S
C3238 C3235 1.499 . S
C3238 C3239 1.373 . S
C3238 C3240 1.389 . S
C3239 H3218 0.950 . S
C3239 C3238 1.373 . S
C3239 C3255 1.377 . S
C3240 C3238 1.389 . S
C3240 C3241 1.524 . S
C3240 C3254 1.377 . S
C3241 C3240 1.524 . S
C3241 C3242 1.397 . S
C3241 C3246 1.363 . S
C3242 H3219 0.950 . S
C3242 C3241 1.397 . S
C3242 C3243 1.334 . S
C3243 H3220 0.950 . S
C3243 C3242 1.334 . S
C3243 C3244 1.287 . S
C3244 C3243 1.287 . S
C3244 C3245 1.524 . S
C3244 H3263 0.913 . S
C3245 H3221 0.950 . S
C3245 C3244 1.524 . S
C3245 C3246 1.415 . S
C3246 H3222 0.950 . S
C3246 C3241 1.363 . S
C3246 C3245 1.415 . S
C3247 H3223 0.951 . S
C3247 C3248 1.366 . S
C3247 C3249 1.388 . S
C3248 C3247 1.366 . S
C3248 C3252 1.385 . S
C3249 H3224 0.951 . S
C3249 C3247 1.388 . S
C3249 C3250 1.366 . S
C3250 C3249 1.366 . S
C3250 C3251 1.414 . S
C3250 C3253 1.499 . S
C3251 H3225 0.950 . S
C3251 C3250 1.414 . S
C3251 C3252 1.374 . S
C3252 H3226 0.950 . S
C3252 C3248 1.385 . S
C3252 C3251 1.374 . S
C3253 C3250 1.499 . S
C3253 C3254 1.373 . S
C3253 C3255 1.389 . S
C3254 H3227 0.950 . S
C3254 C3240 1.377 . S
C3254 C3253 1.373 . S
C3255 C3239 1.377 . S
C3255 C3253 1.389 . S
C3255 C3256 1.524 . S
C3256 C3255 1.524 . S
C3256 C3257 1.397 . S
C3256 C3261 1.363 . S
C3257 H3228 0.950 . S
C3257 C3256 1.397 . S
C3257 C3258 1.334 . S
C3258 H3229 0.950 . S
C3258 C3257 1.334 . S
C3258 C3259 1.287 . S
C3259 C3258 1.287 . S
C3259 C3260 1.524 . S
C3259 H3262 0.999 . S
C3260 H3230 0.950 . S
C3260 C3259 1.524 . S
C3260 C3261 1.415 . S
C3261 H3231 0.950 . S
C3261 C3256 1.363 . S
C3261 C3260 1.415 . S
H3262 C3259 0.999 . S
H3263 C3244 0.913 . S
H3264 C3282 0.951 . S
H3265 C3284 0.951 . S
H3266 C3286 0.950 . S
H3267 C3287 0.950 . S
H3268 C3289 0.950 . S
H3269 C3292 0.950 . S
H3270 C3293 0.950 . S
H3271 C3295 0.950 . S
H3272 C3296 0.950 . S
H3273 C3297 0.951 . S
H3274 C3299 0.951 . S
H3275 C3301 0.950 . S
H3276 C3302 0.950 . S
H3277 C3304 0.950 . S
H3278 C3307 0.950 . S
H3279 C3308 0.950 . S
H3280 C3310 0.950 . S
H3281 C3311 0.950 . S
C3282 H3264 0.951 . S
C3282 C3283 1.366 . S
C3282 C3284 1.388 . S
C3283 C3282 1.366 . S
C3283 C3287 1.385 . S
C3284 H3265 0.951 . S
C3284 C3282 1.388 . S
C3284 C3285 1.366 . S
C3285 C3284 1.366 . S
C3285 C3286 1.414 . S
C3285 C3288 1.499 . S
C3286 H3266 0.950 . S
C3286 C3285 1.414 . S
C3286 C3287 1.374 . S
C3287 H3267 0.950 . S
C3287 C3283 1.385 . S
C3287 C3286 1.374 . S
C3288 C3285 1.499 . S
C3288 C3289 1.373 . S
C3288 C3290 1.389 . S
C3289 H3268 0.950 . S
C3289 C3288 1.373 . S
C3289 C3305 1.377 . S
C3290 C3288 1.389 . S
C3290 C3291 1.524 . S
C3290 C3304 1.377 . S
C3291 C3290 1.524 . S
C3291 C3292 1.397 . S
C3291 C3296 1.363 . S
C3292 H3269 0.950 . S
C3292 C3291 1.397 . S
C3292 C3293 1.334 . S
C3293 H3270 0.950 . S
C3293 C3292 1.334 . S
C3293 C3294 1.287 . S
C3294 C3293 1.287 . S
C3294 C3295 1.524 . S
C3294 H3313 0.913 . S
C3295 H3271 0.950 . S
C3295 C3294 1.524 . S
C3295 C3296 1.415 . S
C3296 H3272 0.950 . S
C3296 C3291 1.363 . S
C3296 C3295 1.415 . S
C3297 H3273 0.951 . S
C3297 C3298 1.366 . S
C3297 C3299 1.388 . S
C3298 C3297 1.366 . S
C3298 C3302 1.385 . S
C3299 H3274 0.951 . S
C3299 C3297 1.388 . S
C3299 C3300 1.366 . S
C3300 C3299 1.366 . S
C3300 C3301 1.414 . S
C3300 C3303 1.499 . S
C3301 H3275 0.950 . S
C3301 C3300 1.414 . S
C3301 C3302 1.374 . S
C3302 H3276 0.950 . S
C3302 C3298 1.385 . S
C3302 C3301 1.374 . S
C3303 C3300 1.499 . S
C3303 C3304 1.373 . S
C3303 C3305 1.389 . S
C3304 H3277 0.950 . S
C3304 C3290 1.377 . S
C3304 C3303 1.373 . S
C3305 C3289 1.377 . S
C3305 C3303 1.389 . S
C3305 C3306 1.524 . S
C3306 C3305 1.524 . S
C3306 C3307 1.397 . S
C3306 C3311 1.363 . S
C3307 H3278 0.950 . S
C3307 C3306 1.397 . S
C3307 C3308 1.334 . S
C3308 H3279 0.950 . S
C3308 C3307 1.334 . S
C3308 C3309 1.287 . S
C3309 C3308 1.287 . S
C3309 C3310 1.524 . S
C3309 H3312 0.999 . S
C3310 H3280 0.950 . S
C3310 C3309 1.524 . S
C3310 C3311 1.415 . S
C3311 H3281 0.950 . S
C3311 C3306 1.363 . S
C3311 C3310 1.415 . S
H3312 C3309 0.999 . S
H3313 C3294 0.913 . S
H3314 C3332 0.951 . S
H3315 C3334 0.951 . S
H3316 C3336 0.950 . S
H3317 C3337 0.950 . S
H3318 C3339 0.950 . S
H3319 C3342 0.950 . S
H3320 C3343 0.950 . S
H3321 C3345 0.950 . S
H3322 C3346 0.950 . S
H3323 C3347 0.951 . S
H3324 C3349 0.951 . S
H3325 C3351 0.950 . S
H3326 C3352 0.950 . S
H3327 C3354 0.950 . S
H3328 C3357 0.950 . S
H3329 C3358 0.950 . S
H3330 C3360 0.950 . S
H3331 C3361 0.950 . S
C3332 H3314 0.951 . S
C3332 C3333 1.366 . S
C3332 C3334 1.388 . S
C3333 C3332 1.366 . S
C3333 C3337 1.385 . S
C3334 H3315 0.951 . S
C3334 C3332 1.388 . S
C3334 C3335 1.366 . S
C3335 C3334 1.366 . S
C3335 C3336 1.414 . S
C3335 C3338 1.499 . S
C3336 H3316 0.950 . S
C3336 C3335 1.414 . S
C3336 C3337 1.374 . S
C3337 H3317 0.950 . S
C3337 C3333 1.385 . S
C3337 C3336 1.374 . S
C3338 C3335 1.499 . S
C3338 C3339 1.373 . S
C3338 C3340 1.389 . S
C3339 H3318 0.950 . S
C3339 C3338 1.373 . S
C3339 C3355 1.377 . S
C3340 C3338 1.389 . S
C3340 C3341 1.524 . S
C3340 C3354 1.377 . S
C3341 C3340 1.524 . S
C3341 C3342 1.397 . S
C3341 C3346 1.363 . S
C3342 H3319 0.950 . S
C3342 C3341 1.397 . S
C3342 C3343 1.334 . S
C3343 H3320 0.950 . S
C3343 C3342 1.334 . S
C3343 C3344 1.287 . S
C3344 C3343 1.287 . S
C3344 C3345 1.524 . S
C3344 H3363 0.913 . S
C3345 H3321 0.950 . S
C3345 C3344 1.524 . S
C3345 C3346 1.415 . S
C3346 H3322 0.950 . S
C3346 C3341 1.363 . S
C3346 C3345 1.415 . S
C3347 H3323 0.951 . S
C3347 C3348 1.366 . S
C3347 C3349 1.388 . S
C3348 C3347 1.366 . S
C3348 C3352 1.385 . S
C3349 H3324 0.951 . S
C3349 C3347 1.388 . S
C3349 C3350 1.366 . S
C3350 C3349 1.366 . S
C3350 C3351 1.414 . S
C3350 C3353 1.499 . S
C3351 H3325 0.950 . S
C3351 C3350 1.414 . S
C3351 C3352 1.374 . S
C3352 H3326 0.950 . S
C3352 C3348 1.385 . S
C3352 C3351 1.374 . S
C3353 C3350 1.499 . S
C3353 C3354 1.373 . S
C3353 C3355 1.389 . S
C3354 H3327 0.950 . S
C3354 C3340 1.377 . S
C3354 C3353 1.373 . S
C3355 C3339 1.377 . S
C3355 C3353 1.389 . S
C3355 C3356 1.524 . S
C3356 C3355 1.524 . S
C3356 C3357 1.397 . S
C3356 C3361 1.363 . S
C3357 H3328 0.950 . S
C3357 C3356 1.397 . S
C3357 C3358 1.334 . S
C3358 H3329 0.950 . S
C3358 C3357 1.334 . S
C3358 C3359 1.287 . S
C3359 C3358 1.287 . S
C3359 C3360 1.524 . S
C3359 H3362 0.999 . S
C3360 H3330 0.950 . S
C3360 C3359 1.524 . S
C3360 C3361 1.415 . S
C3361 H3331 0.950 . S
C3361 C3356 1.363 . S
C3361 C3360 1.415 . S
H3362 C3359 0.999 . S
H3363 C3344 0.913 . S
H3364 C3382 0.951 . S
H3365 C3384 0.951 . S
H3366 C3386 0.950 . S
H3367 C3387 0.950 . S
H3368 C3389 0.950 . S
H3369 C3392 0.950 . S
H3370 C3393 0.950 . S
H3371 C3395 0.950 . S
H3372 C3396 0.950 . S
H3373 C3397 0.951 . S
H3374 C3399 0.951 . S
H3375 C3401 0.950 . S
H3376 C3402 0.950 . S
H3377 C3404 0.950 . S
H3378 C3407 0.950 . S
H3379 C3408 0.950 . S
H3380 C3410 0.950 . S
H3381 C3411 0.950 . S
C3382 H3364 0.951 . S
C3382 C3383 1.366 . S
C3382 C3384 1.388 . S
C3383 C3382 1.366 . S
C3383 C3387 1.385 . S
C3384 H3365 0.951 . S
C3384 C3382 1.388 . S
C3384 C3385 1.366 . S
C3385 C3384 1.366 . S
C3385 C3386 1.414 . S
C3385 C3388 1.499 . S
C3386 H3366 0.950 . S
C3386 C3385 1.414 . S
C3386 C3387 1.374 . S
C3387 H3367 0.950 . S
C3387 C3383 1.385 . S
C3387 C3386 1.374 . S
C3388 C3385 1.499 . S
C3388 C3389 1.373 . S
C3388 C3390 1.389 . S
C3389 H3368 0.950 . S
C3389 C3388 1.373 . S
C3389 C3405 1.377 . S
C3390 C3388 1.389 . S
C3390 C3391 1.524 . S
C3390 C3404 1.377 . S
C3391 C3390 1.524 . S
C3391 C3392 1.397 . S
C3391 C3396 1.363 . S
C3392 H3369 0.950 . S
C3392 C3391 1.397 . S
C3392 C3393 1.334 . S
C3393 H3370 0.950 . S
C3393 C3392 1.334 . S
C3393 C3394 1.287 . S
C3394 C3393 1.287 . S
C3394 C3395 1.524 . S
C3394 H3413 0.913 . S
C3395 H3371 0.950 . S
C3395 C3394 1.524 . S
C3395 C3396 1.415 . S
C3396 H3372 0.950 . S
C3396 C3391 1.363 . S
C3396 C3395 1.415 . S
C3397 H3373 0.951 . S
C3397 C3398 1.366 . S
C3397 C3399 1.388 . S
C3398 C3397 1.366 . S
C3398 C3402 1.385 . S
C3399 H3374 0.951 . S
C3399 C3397 1.388 . S
C3399 C3400 1.366 . S
C3400 C3399 1.366 . S
C3400 C3401 1.414 . S
C3400 C3403 1.499 . S
C3401 H3375 0.950 . S
C3401 C3400 1.414 . S
C3401 C3402 1.374 . S
C3402 H3376 0.950 . S
C3402 C3398 1.385 . S
C3402 C3401 1.374 . S
C3403 C3400 1.499 . S
C3403 C3404 1.373 . S
C3403 C3405 1.389 . S
C3404 H3377 0.950 . S
C3404 C3390 1.377 . S
C3404 C3403 1.373 . S
C3405 C3389 1.377 . S
C3405 C3403 1.389 . S
C3405 C3406 1.524 . S
C3406 C3405 1.524 . S
C3406 C3407 1.397 . S
C3406 C3411 1.363 . S
C3407 H3378 0.950 . S
C3407 C3406 1.397 . S
C3407 C3408 1.334 . S
C3408 H3379 0.950 . S
C3408 C3407 1.334 . S
C3408 C3409 1.287 . S
C3409 C3408 1.287 . S
C3409 C3410 1.524 . S
C3409 H3412 0.999 . S
C3410 H3380 0.950 . S
C3410 C3409 1.524 . S
C3410 C3411 1.415 . S
C3411 H3381 0.950 . S
C3411 C3406 1.363 . S
C3411 C3410 1.415 . S
H3412 C3409 0.999 . S
H3413 C3394 0.913 . S
H3414 C3432 0.951 . S
H3415 C3434 0.951 . S
H3416 C3436 0.950 . S
H3417 C3437 0.950 . S
H3418 C3439 0.950 . S
H3419 C3442 0.950 . S
H3420 C3443 0.950 . S
H3421 C3445 0.950 . S
H3422 C3446 0.950 . S
H3423 C3447 0.951 . S
H3424 C3449 0.951 . S
H3425 C3451 0.950 . S
H3426 C3452 0.950 . S
H3427 C3454 0.950 . S
H3428 C3457 0.950 . S
H3429 C3458 0.950 . S
H3430 C3460 0.950 . S
H3431 C3461 0.950 . S
C3432 H3414 0.951 . S
C3432 C3433 1.366 . S
C3432 C3434 1.388 . S
C3433 C3432 1.366 . S
C3433 C3437 1.385 . S
C3434 H3415 0.951 . S
C3434 C3432 1.388 . S
C3434 C3435 1.366 . S
C3435 C3434 1.366 . S
C3435 C3436 1.414 . S
C3435 C3438 1.499 . S
C3436 H3416 0.950 . S
C3436 C3435 1.414 . S
C3436 C3437 1.374 . S
C3437 H3417 0.950 . S
C3437 C3433 1.385 . S
C3437 C3436 1.374 . S
C3438 C3435 1.499 . S
C3438 C3439 1.373 . S
C3438 C3440 1.389 . S
C3439 H3418 0.950 . S
C3439 C3438 1.373 . S
C3439 C3455 1.377 . S
C3440 C3438 1.389 . S
C3440 C3441 1.524 . S
C3440 C3454 1.377 . S
C3441 C3440 1.524 . S
C3441 C3442 1.397 . S
C3441 C3446 1.363 . S
C3442 H3419 0.950 . S
C3442 C3441 1.397 . S
C3442 C3443 1.334 . S
C3443 H3420 0.950 . S
C3443 C3442 1.334 . S
C3443 C3444 1.287 . S
C3444 C3443 1.287 . S
C3444 C3445 1.524 . S
C3444 H3463 0.913 . S
C3445 H3421 0.950 . S
C3445 C3444 1.524 . S
C3445 C3446 1.415 . S
C3446 H3422 0.950 . S
C3446 C3441 1.363 . S
C3446 C3445 1.415 . S
C3447 H3423 0.951 . S
C3447 C3448 1.366 . S
C3447 C3449 1.388 . S
C3448 C3447 1.366 . S
C3448 C3452 1.385 . S
C3449 H3424 0.951 . S
C3449 C3447 1.388 . S
C3449 C3450 1.366 . S
C3450 C3449 1.366 . S
C3450 C3451 1.414 . S
C3450 C3453 1.499 . S
C3451 H3425 0.950 . S
C3451 C3450 1.414 . S
C3451 C3452 1.374 . S
C3452 H3426 0.950 . S
C3452 C3448 1.385 . S
C3452 C3451 1.374 . S
C3453 C3450 1.499 . S
C3453 C3454 1.373 . S
C3453 C3455 1.389 . S
C3454 H3427 0.950 . S
C3454 C3440 1.377 . S
C3454 C3453 1.373 . S
C3455 C3439 1.377 . S
C3455 C3453 1.389 . S
C3455 C3456 1.524 . S
C3456 C3455 1.524 . S
C3456 C3457 1.397 . S
C3456 C3461 1.363 . S
C3457 H3428 0.950 . S
C3457 C3456 1.397 . S
C3457 C3458 1.334 . S
C3458 H3429 0.950 . S
C3458 C3457 1.334 . S
C3458 C3459 1.287 . S
C3459 C3458 1.287 . S
C3459 C3460 1.524 . S
C3459 H3462 0.999 . S
C3460 H3430 0.950 . S
C3460 C3459 1.524 . S
C3460 C3461 1.415 . S
C3461 H3431 0.950 . S
C3461 C3456 1.363 . S
C3461 C3460 1.415 . S
H3462 C3459 0.999 . S
H3463 C3444 0.913 . S
H3464 C3482 0.951 . S
H3465 C3484 0.951 . S
H3466 C3486 0.950 . S
H3467 C3487 0.950 . S
H3468 C3489 0.950 . S
H3469 C3492 0.950 . S
H3470 C3493 0.950 . S
H3471 C3495 0.950 . S
H3472 C3496 0.950 . S
H3473 C3497 0.951 . S
H3474 C3499 0.951 . S
H3475 C3501 0.950 . S
H3476 C3502 0.950 . S
H3477 C3504 0.950 . S
H3478 C3507 0.950 . S
H3479 C3508 0.950 . S
H3480 C3510 0.950 . S
H3481 C3511 0.950 . S
C3482 H3464 0.951 . S
C3482 C3483 1.366 . S
C3482 C3484 1.388 . S
C3483 C3482 1.366 . S
C3483 C3487 1.385 . S
C3484 H3465 0.951 . S
C3484 C3482 1.388 . S
C3484 C3485 1.366 . S
C3485 C3484 1.366 . S
C3485 C3486 1.414 . S
C3485 C3488 1.499 . S
C3486 H3466 0.950 . S
C3486 C3485 1.414 . S
C3486 C3487 1.374 . S
C3487 H3467 0.950 . S
C3487 C3483 1.385 . S
C3487 C3486 1.374 . S
C3488 C3485 1.499 . S
C3488 C3489 1.373 . S
C3488 C3490 1.389 . S
C3489 H3468 0.950 . S
C3489 C3488 1.373 . S
C3489 C3505 1.377 . S
C3490 C3488 1.389 . S
C3490 C3491 1.524 . S
C3490 C3504 1.377 . S
C3491 C3490 1.524 . S
C3491 C3492 1.397 . S
C3491 C3496 1.363 . S
C3492 H3469 0.950 . S
C3492 C3491 1.397 . S
C3492 C3493 1.334 . S
C3493 H3470 0.950 . S
C3493 C3492 1.334 . S
C3493 C3494 1.287 . S
C3494 C3493 1.287 . S
C3494 C3495 1.524 . S
C3494 H3513 0.913 . S
C3495 H3471 0.950 . S
C3495 C3494 1.524 . S
C3495 C3496 1.415 . S
C3496 H3472 0.950 . S
C3496 C3491 1.363 . S
C3496 C3495 1.415 . S
C3497 H3473 0.951 . S
C3497 C3498 1.366 . S
C3497 C3499 1.388 . S
C3498 C3497 1.366 . S
C3498 C3502 1.385 . S
C3499 H3474 0.951 . S
C3499 C3497 1.388 . S
C3499 C3500 1.366 . S
C3500 C3499 1.366 . S
C3500 C3501 1.414 . S
C3500 C3503 1.499 . S
C3501 H3475 0.950 . S
C3501 C3500 1.414 . S
C3501 C3502 1.374 . S
C3502 H3476 0.950 . S
C3502 C3498 1.385 . S
C3502 C3501 1.374 . S
C3503 C3500 1.499 . S
C3503 C3504 1.373 . S
C3503 C3505 1.389 . S
C3504 H3477 0.950 . S
C3504 C3490 1.377 . S
C3504 C3503 1.373 . S
C3505 C3489 1.377 . S
C3505 C3503 1.389 . S
C3505 C3506 1.524 . S
C3506 C3505 1.524 . S
C3506 C3507 1.397 . S
C3506 C3511 1.363 . S
C3507 H3478 0.950 . S
C3507 C3506 1.397 . S
C3507 C3508 1.334 . S
C3508 H3479 0.950 . S
C3508 C3507 1.334 . S
C3508 C3509 1.287 . S
C3509 C3508 1.287 . S
C3509 C3510 1.524 . S
C3509 H3512 0.999 . S
C3510 H3480 0.950 . S
C3510 C3509 1.524 . S
C3510 C3511 1.415 . S
C3511 H3481 0.950 . S
C3511 C3506 1.363 . S
C3511 C3510 1.415 . S
H3512 C3509 0.999 . S
H3513 C3494 0.913 . S
H3514 C3532 0.951 . S
H3515 C3534 0.951 . S
H3516 C3536 0.950 . S
H3517 C3537 0.950 . S
H3518 C3539 0.950 . S
H3519 C3542 0.950 . S
H3520 C3543 0.950 . S
H3521 C3545 0.950 . S
H3522 C3546 0.950 . S
H3523 C3547 0.951 . S
H3524 C3549 0.951 . S
H3525 C3551 0.950 . S
H3526 C3552 0.950 . S
H3527 C3554 0.950 . S
H3528 C3557 0.950 . S
H3529 C3558 0.950 . S
H3530 C3560 0.950 . S
H3531 C3561 0.950 . S
C3532 H3514 0.951 . S
C3532 C3533 1.366 . S
C3532 C3534 1.388 . S
C3533 C3532 1.366 . S
C3533 C3537 1.385 . S
C3534 H3515 0.951 . S
C3534 C3532 1.388 . S
C3534 C3535 1.366 . S
C3535 C3534 1.366 . S
C3535 C3536 1.414 . S
C3535 C3538 1.499 . S
C3536 H3516 0.950 . S
C3536 C3535 1.414 . S
C3536 C3537 1.374 . S
C3537 H3517 0.950 . S
C3537 C3533 1.385 . S
C3537 C3536 1.374 . S
C3538 C3535 1.499 . S
C3538 C3539 1.373 . S
C3538 C3540 1.389 . S
C3539 H3518 0.950 . S
C3539 C3538 1.373 . S
C3539 C3555 1.377 . S
C3540 C3538 1.389 . S
C3540 C3541 1.524 . S
C3540 C3554 1.377 . S
C3541 C3540 1.524 . S
C3541 C3542 1.397 . S
C3541 C3546 1.363 . S
C3542 H3519 0.950 . S
C3542 C3541 1.397 . S
C3542 C3543 1.334 . S
C3543 H3520 0.950 . S
C3543 C3542 1.334 . S
C3543 C3544 1.287 . S
C3544 C3543 1.287 . S
C3544 C3545 1.524 . S
C3544 H3563 0.913 . S
C3545 H3521 0.950 . S
C3545 C3544 1.524 . S
C3545 C3546 1.415 . S
C3546 H3522 0.950 . S
C3546 C3541 1.363 . S
C3546 C3545 1.415 . S
C3547 H3523 0.951 . S
C3547 C3548 1.366 . S
C3547 C3549 1.388 . S
C3548 C3547 1.366 . S
C3548 C3552 1.385 . S
C3549 H3524 0.951 . S
C3549 C3547 1.388 . S
C3549 C3550 1.366 . S
C3550 C3549 1.366 . S
C3550 C3551 1.414 . S
C3550 C3553 1.499 . S
C3551 H3525 0.950 . S
C3551 C3550 1.414 . S
C3551 C3552 1.374 . S
C3552 H3526 0.950 . S
C3552 C3548 1.385 . S
C3552 C3551 1.374 . S
C3553 C3550 1.499 . S
C3553 C3554 1.373 . S
C3553 C3555 1.389 . S
C3554 H3527 0.950 . S
C3554 C3540 1.377 . S
C3554 C3553 1.373 . S
C3555 C3539 1.377 . S
C3555 C3553 1.389 . S
C3555 C3556 1.524 . S
C3556 C3555 1.524 . S
C3556 C3557 1.397 . S
C3556 C3561 1.363 . S
C3557 H3528 0.950 . S
C3557 C3556 1.397 . S
C3557 C3558 1.334 . S
C3558 H3529 0.950 . S
C3558 C3557 1.334 . S
C3558 C3559 1.287 . S
C3559 C3558 1.287 . S
C3559 C3560 1.524 . S
C3559 H3562 0.999 . S
C3560 H3530 0.950 . S
C3560 C3559 1.524 . S
C3560 C3561 1.415 . S
C3561 H3531 0.950 . S
C3561 C3556 1.363 . S
C3561 C3560 1.415 . S
H3562 C3559 0.999 . S
H3563 C3544 0.913 . S
H3564 C3582 0.951 . S
H3565 C3584 0.951 . S
H3566 C3586 0.950 . S
H3567 C3587 0.950 . S
H3568 C3589 0.950 . S
H3569 C3592 0.950 . S
H3570 C3593 0.950 . S
H3571 C3595 0.950 . S
H3572 C3596 0.950 . S
H3573 C3597 0.951 . S
H3574 C3599 0.951 . S
H3575 C3601 0.950 . S
H3576 C3602 0.950 . S
H3577 C3604 0.950 . S
H3578 C3607 0.950 . S
H3579 C3608 0.950 . S
H3580 C3610 0.950 . S
H3581 C3611 0.950 . S
C3582 H3564 0.951 . S
C3582 C3583 1.366 . S
C3582 C3584 1.388 . S
C3583 C3582 1.366 . S
C3583 C3587 1.385 . S
C3584 H3565 0.951 . S
C3584 C3582 1.388 . S
C3584 C3585 1.366 . S
C3585 C3584 1.366 . S
C3585 C3586 1.414 . S
C3585 C3588 1.499 . S
C3586 H3566 0.950 . S
C3586 C3585 1.414 . S
C3586 C3587 1.374 . S
C3587 H3567 0.950 . S
C3587 C3583 1.385 . S
C3587 C3586 1.374 . S
C3588 C3585 1.499 . S
C3588 C3589 1.373 . S
C3588 C3590 1.389 . S
C3589 H3568 0.950 . S
C3589 C3588 1.373 . S
C3589 C3605 1.377 . S
C3590 C3588 1.389 . S
C3590 C3591 1.524 . S
C3590 C3604 1.377 . S
C3591 C3590 1.524 . S
C3591 C3592 1.397 . S
C3591 C3596 1.363 . S
C3592 H3569 0.950 . S
C3592 C3591 1.397 . S
C3592 C3593 1.334 1_554 S
C3593 H3570 0.950 . S
C3593 C3592 1.334 1_556 S
C3593 C3594 1.287 . S
C3594 C3593 1.287 . S
C3594 C3595 1.524 . S
C3594 H3613 0.913 . S
C3595 H3571 0.950 . S
C3595 C3594 1.524 . S
C3595 C3596 1.415 1_556 S
C3596 H3572 0.950 . S
C3596 C3591 1.363 . S
C3596 C3595 1.415 1_554 S
C3597 H3573 0.951 . S
C3597 C3598 1.366 . S
C3597 C3599 1.388 . S
C3598 C3597 1.366 . S
C3598 C3602 1.385 . S
C3599 H3574 0.951 . S
C3599 C3597 1.388 . S
C3599 C3600 1.366 . S
C3600 C3599 1.366 . S
C3600 C3601 1.414 . S
C3600 C3603 1.499 . S
C3601 H3575 0.950 . S
C3601 C3600 1.414 . S
C3601 C3602 1.374 . S
C3602 H3576 0.950 . S
C3602 C3598 1.385 . S
C3602 C3601 1.374 . S
C3603 C3600 1.499 . S
C3603 C3604 1.373 . S
C3603 C3605 1.389 . S
C3604 H3577 0.950 . S
C3604 C3590 1.377 . S
C3604 C3603 1.373 . S
C3605 C3589 1.377 . S
C3605 C3603 1.389 . S
C3605 C3606 1.524 . S
C3606 C3605 1.524 . S
C3606 C3607 1.397 . S
C3606 C3611 1.363 . S
C3607 H3578 0.950 . S
C3607 C3606 1.397 . S
C3607 C3608 1.334 . S
C3608 H3579 0.950 . S
C3608 C3607 1.334 . S
C3608 C3609 1.287 . S
C3609 C3608 1.287 . S
C3609 C3610 1.524 . S
C3609 H3612 0.999 . S
C3610 H3580 0.950 . S
C3610 C3609 1.524 . S
C3610 C3611 1.415 . S
C3611 H3581 0.950 . S
C3611 C3606 1.363 . S
C3611 C3610 1.415 . S
H3612 C3609 0.999 . S
H3613 C3594 0.913 . S
H3614 C3632 0.951 . S
H3615 C3634 0.951 . S
H3616 C3636 0.950 . S
H3617 C3637 0.950 . S
H3618 C3639 0.950 . S
H3619 C3642 0.950 . S
H3620 C3643 0.950 . S
H3621 C3645 0.950 . S
H3622 C3646 0.950 . S
H3623 C3647 0.951 . S
H3624 C3649 0.951 . S
H3625 C3651 0.950 . S
H3626 C3652 0.950 . S
H3627 C3654 0.950 . S
H3628 C3657 0.950 . S
H3629 C3658 0.950 . S
H3630 C3660 0.950 . S
H3631 C3661 0.950 . S
C3632 H3614 0.951 . S
C3632 C3633 1.366 . S
C3632 C3634 1.388 . S
C3633 C3632 1.366 . S
C3633 C3637 1.385 . S
C3634 H3615 0.951 . S
C3634 C3632 1.388 . S
C3634 C3635 1.366 . S
C3635 C3634 1.366 . S
C3635 C3636 1.414 . S
C3635 C3638 1.499 . S
C3636 H3616 0.950 . S
C3636 C3635 1.414 . S
C3636 C3637 1.374 . S
C3637 H3617 0.950 . S
C3637 C3633 1.385 . S
C3637 C3636 1.374 . S
C3638 C3635 1.499 . S
C3638 C3639 1.373 . S
C3638 C3640 1.389 . S
C3639 H3618 0.950 . S
C3639 C3638 1.373 . S
C3639 C3655 1.377 . S
C3640 C3638 1.389 . S
C3640 C3641 1.524 . S
C3640 C3654 1.377 . S
C3641 C3640 1.524 . S
C3641 C3642 1.397 . S
C3641 C3646 1.363 . S
C3642 H3619 0.950 . S
C3642 C3641 1.397 . S
C3642 C3643 1.334 1_554 S
C3643 H3620 0.950 . S
C3643 C3642 1.334 1_556 S
C3643 C3644 1.287 . S
C3644 C3643 1.287 . S
C3644 C3645 1.524 . S
C3644 H3663 0.913 . S
C3645 H3621 0.950 . S
C3645 C3644 1.524 . S
C3645 C3646 1.415 1_556 S
C3646 H3622 0.950 . S
C3646 C3641 1.363 . S
C3646 C3645 1.415 1_554 S
C3647 H3623 0.951 . S
C3647 C3648 1.366 . S
C3647 C3649 1.388 . S
C3648 C3647 1.366 . S
C3648 C3652 1.385 . S
C3649 H3624 0.951 . S
C3649 C3647 1.388 . S
C3649 C3650 1.366 . S
C3650 C3649 1.366 . S
C3650 C3651 1.414 . S
C3650 C3653 1.499 . S
C3651 H3625 0.950 . S
C3651 C3650 1.414 . S
C3651 C3652 1.374 . S
C3652 H3626 0.950 . S
C3652 C3648 1.385 . S
C3652 C3651 1.374 . S
C3653 C3650 1.499 . S
C3653 C3654 1.373 . S
C3653 C3655 1.389 . S
C3654 H3627 0.950 . S
C3654 C3640 1.377 . S
C3654 C3653 1.373 . S
C3655 C3639 1.377 . S
C3655 C3653 1.389 . S
C3655 C3656 1.524 . S
C3656 C3655 1.524 . S
C3656 C3657 1.397 . S
C3656 C3661 1.363 . S
C3657 H3628 0.950 . S
C3657 C3656 1.397 . S
C3657 C3658 1.334 . S
C3658 H3629 0.950 . S
C3658 C3657 1.334 . S
C3658 C3659 1.287 . S
C3659 C3658 1.287 . S
C3659 C3660 1.524 . S
C3659 H3662 0.999 . S
C3660 H3630 0.950 . S
C3660 C3659 1.524 . S
C3660 C3661 1.415 . S
C3661 H3631 0.950 . S
C3661 C3656 1.363 . S
C3661 C3660 1.415 . S
H3662 C3659 0.999 . S
H3663 C3644 0.913 . S
H3664 C3682 0.951 . S
H3665 C3684 0.951 . S
H3666 C3686 0.950 . S
H3667 C3687 0.950 . S
H3668 C3689 0.950 . S
H3669 C3692 0.950 . S
H3670 C3693 0.950 . S
H3671 C3695 0.950 . S
H3672 C3696 0.950 . S
H3673 C3697 0.951 . S
H3674 C3699 0.951 . S
H3675 C3701 0.950 . S
H3676 C3702 0.950 . S
H3677 C3704 0.950 . S
H3678 C3707 0.950 . S
H3679 C3708 0.950 . S
H3680 C3710 0.950 . S
H3681 C3711 0.950 . S
C3682 H3664 0.951 . S
C3682 C3683 1.366 . S
C3682 C3684 1.388 . S
C3683 C3682 1.366 . S
C3683 C3687 1.385 . S
C3684 H3665 0.951 . S
C3684 C3682 1.388 . S
C3684 C3685 1.366 . S
C3685 C3684 1.366 . S
C3685 C3686 1.414 . S
C3685 C3688 1.499 . S
C3686 H3666 0.950 . S
C3686 C3685 1.414 . S
C3686 C3687 1.374 . S
C3687 H3667 0.950 . S
C3687 C3683 1.385 . S
C3687 C3686 1.374 . S
C3688 C3685 1.499 . S
C3688 C3689 1.373 . S
C3688 C3690 1.389 . S
C3689 H3668 0.950 . S
C3689 C3688 1.373 . S
C3689 C3705 1.377 . S
C3690 C3688 1.389 . S
C3690 C3691 1.524 . S
C3690 C3704 1.377 . S
C3691 C3690 1.524 . S
C3691 C3692 1.397 . S
C3691 C3696 1.363 . S
C3692 H3669 0.950 . S
C3692 C3691 1.397 . S
C3692 C3693 1.334 . S
C3693 H3670 0.950 . S
C3693 C3692 1.334 . S
C3693 C3694 1.287 1_554 S
C3694 C3693 1.287 1_556 S
C3694 C3695 1.524 . S
C3694 H3713 0.913 . S
C3695 H3671 0.950 . S
C3695 C3694 1.524 . S
C3695 C3696 1.415 1_556 S
C3696 H3672 0.950 . S
C3696 C3691 1.363 . S
C3696 C3695 1.415 1_554 S
C3697 H3673 0.951 . S
C3697 C3698 1.366 . S
C3697 C3699 1.388 . S
C3698 C3697 1.366 . S
C3698 C3702 1.385 . S
C3699 H3674 0.951 . S
C3699 C3697 1.388 . S
C3699 C3700 1.366 . S
C3700 C3699 1.366 . S
C3700 C3701 1.414 . S
C3700 C3703 1.499 . S
C3701 H3675 0.950 . S
C3701 C3700 1.414 . S
C3701 C3702 1.374 . S
C3702 H3676 0.950 . S
C3702 C3698 1.385 . S
C3702 C3701 1.374 . S
C3703 C3700 1.499 . S
C3703 C3704 1.373 . S
C3703 C3705 1.389 . S
C3704 H3677 0.950 . S
C3704 C3690 1.377 . S
C3704 C3703 1.373 . S
C3705 C3689 1.377 . S
C3705 C3703 1.389 . S
C3705 C3706 1.524 . S
C3706 C3705 1.524 . S
C3706 C3707 1.397 . S
C3706 C3711 1.363 . S
C3707 H3678 0.950 . S
C3707 C3706 1.397 . S
C3707 C3708 1.334 . S
C3708 H3679 0.950 . S
C3708 C3707 1.334 . S
C3708 C3709 1.287 . S
C3709 C3708 1.287 . S
C3709 C3710 1.524 . S
C3709 H3712 0.999 . S
C3710 H3680 0.950 . S
C3710 C3709 1.524 . S
C3710 C3711 1.415 . S
C3711 H3681 0.950 . S
C3711 C3706 1.363 . S
C3711 C3710 1.415 . S
H3712 C3709 0.999 . S
H3713 C3694 0.913 . S
H3714 C3732 0.951 1_554 S
H3715 C3734 0.951 . S
H3716 C3736 0.950 . S
H3717 C3737 0.950 . S
H3718 C3739 0.950 . S
H3719 C3742 0.950 . S
H3720 C3743 0.950 . S
H3721 C3745 0.950 . S
H3722 C3746 0.950 . S
H3723 C3747 0.951 . S
H3724 C3749 0.951 . S
H3725 C3751 0.950 . S
H3726 C3752 0.950 . S
H3727 C3754 0.950 . S
H3728 C3757 0.950 . S
H3729 C3758 0.950 . S
H3730 C3760 0.950 . S
H3731 C3761 0.950 . S
C3732 H3714 0.951 1_556 S
C3732 C3733 1.366 . S
C3732 C3734 1.388 . S
C3733 C3732 1.366 . S
C3733 C3737 1.385 . S
C3734 H3715 0.951 . S
C3734 C3732 1.388 . S
C3734 C3735 1.366 . S
C3735 C3734 1.366 . S
C3735 C3736 1.414 . S
C3735 C3738 1.499 . S
C3736 H3716 0.950 . S
C3736 C3735 1.414 . S
C3736 C3737 1.374 . S
C3737 H3717 0.950 . S
C3737 C3733 1.385 . S
C3737 C3736 1.374 . S
C3738 C3735 1.499 . S
C3738 C3739 1.373 . S
C3738 C3740 1.389 . S
C3739 H3718 0.950 . S
C3739 C3738 1.373 . S
C3739 C3755 1.377 . S
C3740 C3738 1.389 . S
C3740 C3741 1.524 . S
C3740 C3754 1.377 . S
C3741 C3740 1.524 . S
C3741 C3742 1.397 . S
C3741 C3746 1.363 . S
C3742 H3719 0.950 . S
C3742 C3741 1.397 . S
C3742 C3743 1.334 . S
C3743 H3720 0.950 . S
C3743 C3742 1.334 . S
C3743 C3744 1.287 . S
C3744 C3743 1.287 . S
C3744 C3745 1.524 . S
C3744 H3763 0.913 . S
C3745 H3721 0.950 . S
C3745 C3744 1.524 . S
C3745 C3746 1.415 . S
C3746 H3722 0.950 . S
C3746 C3741 1.363 . S
C3746 C3745 1.415 . S
C3747 H3723 0.951 . S
C3747 C3748 1.366 . S
C3747 C3749 1.388 . S
C3748 C3747 1.366 . S
C3748 C3752 1.385 . S
C3749 H3724 0.951 . S
C3749 C3747 1.388 . S
C3749 C3750 1.366 . S
C3750 C3749 1.366 . S
C3750 C3751 1.414 . S
C3750 C3753 1.499 . S
C3751 H3725 0.950 . S
C3751 C3750 1.414 . S
C3751 C3752 1.374 . S
C3752 H3726 0.950 . S
C3752 C3748 1.385 . S
C3752 C3751 1.374 . S
C3753 C3750 1.499 . S
C3753 C3754 1.373 . S
C3753 C3755 1.389 . S
C3754 H3727 0.950 . S
C3754 C3740 1.377 . S
C3754 C3753 1.373 . S
C3755 C3739 1.377 . S
C3755 C3753 1.389 . S
C3755 C3756 1.524 . S
C3756 C3755 1.524 . S
C3756 C3757 1.397 . S
C3756 C3761 1.363 . S
C3757 H3728 0.950 . S
C3757 C3756 1.397 . S
C3757 C3758 1.334 . S
C3758 H3729 0.950 . S
C3758 C3757 1.334 . S
C3758 C3759 1.287 . S
C3759 C3758 1.287 . S
C3759 C3760 1.524 . S
C3759 H3762 0.999 . S
C3760 H3730 0.950 . S
C3760 C3759 1.524 . S
C3760 C3761 1.415 . S
C3761 H3731 0.950 . S
C3761 C3756 1.363 . S
C3761 C3760 1.415 . S
H3762 C3759 0.999 . S
H3763 C3744 0.913 . S
H3764 C3782 0.951 1_554 S
H3765 C3784 0.951 . S
H3766 C3786 0.950 . S
H3767 C3787 0.950 . S
H3768 C3789 0.950 . S
H3769 C3792 0.950 1_556 S
H3770 C3793 0.950 . S
H3771 C3795 0.950 . S
H3772 C3796 0.950 . S
H3773 C3797 0.951 . S
H3774 C3799 0.951 . S
H3775 C3801 0.950 . S
H3776 C3802 0.950 . S
H3777 C3804 0.950 . S
H3778 C3807 0.950 . S
H3779 C3808 0.950 . S
H3780 C3810 0.950 . S
H3781 C3811 0.950 . S
C3782 H3764 0.951 1_556 S
C3782 C3783 1.366 . S
C3782 C3784 1.388 . S
C3783 C3782 1.366 . S
C3783 C3787 1.385 . S
C3784 H3765 0.951 . S
C3784 C3782 1.388 . S
C3784 C3785 1.366 . S
C3785 C3784 1.366 . S
C3785 C3786 1.414 . S
C3785 C3788 1.499 . S
C3786 H3766 0.950 . S
C3786 C3785 1.414 . S
C3786 C3787 1.374 . S
C3787 H3767 0.950 . S
C3787 C3783 1.385 . S
C3787 C3786 1.374 . S
C3788 C3785 1.499 . S
C3788 C3789 1.373 . S
C3788 C3790 1.389 . S
C3789 H3768 0.950 . S
C3789 C3788 1.373 . S
C3789 C3805 1.377 . S
C3790 C3788 1.389 . S
C3790 C3791 1.521 1_556 S
C3790 C3804 1.377 . S
C3791 C3790 1.521 1_554 S
C3791 C3792 1.398 . S
C3791 C3796 1.365 . S
C3792 H3769 0.950 1_554 S
C3792 C3791 1.398 . S
C3792 C3793 1.334 . S
C3793 H3770 0.950 . S
C3793 C3792 1.334 . S
C3793 C3794 1.287 . S
C3794 C3793 1.287 . S
C3794 C3795 1.524 . S
C3794 H3813 0.913 . S
C3795 H3771 0.950 . S
C3795 C3794 1.524 . S
C3795 C3796 1.415 . S
C3796 H3772 0.950 . S
C3796 C3791 1.365 . S
C3796 C3795 1.415 . S
C3797 H3773 0.951 . S
C3797 C3798 1.366 . S
C3797 C3799 1.388 . S
C3798 C3797 1.366 . S
C3798 C3802 1.385 . S
C3799 H3774 0.951 . S
C3799 C3797 1.388 . S
C3799 C3800 1.366 . S
C3800 C3799 1.366 . S
C3800 C3801 1.414 . S
C3800 C3803 1.499 . S
C3801 H3775 0.950 . S
C3801 C3800 1.414 . S
C3801 C3802 1.374 . S
C3802 H3776 0.950 . S
C3802 C3798 1.385 . S
C3802 C3801 1.374 . S
C3803 C3800 1.499 . S
C3803 C3804 1.373 . S
C3803 C3805 1.389 . S
C3804 H3777 0.950 . S
C3804 C3790 1.377 . S
C3804 C3803 1.373 . S
C3805 C3789 1.377 . S
C3805 C3803 1.389 . S
C3805 C3806 1.524 . S
C3806 C3805 1.524 . S
C3806 C3807 1.397 . S
C3806 C3811 1.363 . S
C3807 H3778 0.950 . S
C3807 C3806 1.397 . S
C3807 C3808 1.334 . S
C3808 H3779 0.950 . S
C3808 C3807 1.334 . S
C3808 C3809 1.287 . S
C3809 C3808 1.287 . S
C3809 C3810 1.524 . S
C3809 H3812 0.999 . S
C3810 H3780 0.950 . S
C3810 C3809 1.524 . S
C3810 C3811 1.415 . S
C3811 H3781 0.950 . S
C3811 C3806 1.363 . S
C3811 C3810 1.415 . S
H3812 C3809 0.999 . S
H3813 C3794 0.913 . S
H3814 C3832 0.945 1_554 S
H3815 C3834 0.951 1_554 S
H3816 C3836 0.950 . S
H3817 C3837 0.950 . S
H3818 C3839 0.950 . S
H3819 C3842 0.950 . S
H3820 C3843 0.950 . S
H3821 C3845 0.950 . S
H3822 C3846 0.950 . S
H3823 C3847 0.951 . S
H3824 C3849 0.951 . S
H3825 C3851 0.950 . S
H3826 C3852 0.950 . S
H3827 C3854 0.950 . S
H3828 C3857 0.950 . S
H3829 C3858 0.950 . S
H3830 C3860 0.950 . S
H3831 C3861 0.950 . S
C3832 H3814 0.945 1_556 S
C3832 C3833 1.369 . S
C3832 C3834 1.390 . S
C3833 C3832 1.369 . S
C3833 C3837 1.385 . S
C3834 H3815 0.951 1_556 S
C3834 C3832 1.390 . S
C3834 C3835 1.366 . S
C3835 C3834 1.366 . S
C3835 C3836 1.414 . S
C3835 C3838 1.499 . S
C3836 H3816 0.950 . S
C3836 C3835 1.414 . S
C3836 C3837 1.374 . S
C3837 H3817 0.950 . S
C3837 C3833 1.385 . S
C3837 C3836 1.374 . S
C3838 C3835 1.499 . S
C3838 C3839 1.373 . S
C3838 C3840 1.389 . S
C3839 H3818 0.950 . S
C3839 C3838 1.373 . S
C3839 C3855 1.377 . S
C3840 C3838 1.389 . S
C3840 C3841 1.524 . S
C3840 C3854 1.377 . S
C3841 C3840 1.524 . S
C3841 C3842 1.397 . S
C3841 C3846 1.363 1_556 S
C3842 H3819 0.950 . S
C3842 C3841 1.397 . S
C3842 C3843 1.334 1_556 S
C3843 H3820 0.950 . S
C3843 C3842 1.334 1_554 S
C3843 C3844 1.287 . S
C3844 C3843 1.287 . S
C3844 C3845 1.524 . S
C3844 H3863 0.913 . S
C3845 H3821 0.950 . S
C3845 C3844 1.524 . S
C3845 C3846 1.415 . S
C3846 H3822 0.950 . S
C3846 C3841 1.363 1_554 S
C3846 C3845 1.415 . S
C3847 H3823 0.951 . S
C3847 C3848 1.366 . S
C3847 C3849 1.388 . S
C3848 C3847 1.366 . S
C3848 C3852 1.385 . S
C3849 H3824 0.951 . S
C3849 C3847 1.388 . S
C3849 C3850 1.366 . S
C3850 C3849 1.366 . S
C3850 C3851 1.414 . S
C3850 C3853 1.499 . S
C3851 H3825 0.950 . S
C3851 C3850 1.414 . S
C3851 C3852 1.374 . S
C3852 H3826 0.950 . S
C3852 C3848 1.385 . S
C3852 C3851 1.374 . S
C3853 C3850 1.499 . S
C3853 C3854 1.373 . S
C3853 C3855 1.389 . S
C3854 H3827 0.950 . S
C3854 C3840 1.377 . S
C3854 C3853 1.373 . S
C3855 C3839 1.377 . S
C3855 C3853 1.389 . S
C3855 C3856 1.524 . S
C3856 C3855 1.524 . S
C3856 C3857 1.397 . S
C3856 C3861 1.363 . S
C3857 H3828 0.950 . S
C3857 C3856 1.397 . S
C3857 C3858 1.334 . S
C3858 H3829 0.950 . S
C3858 C3857 1.334 . S
C3858 C3859 1.287 . S
C3859 C3858 1.287 . S
C3859 C3860 1.524 . S
C3859 H3862 0.999 . S
C3860 H3830 0.950 . S
C3860 C3859 1.524 . S
C3860 C3861 1.415 . S
C3861 H3831 0.950 . S
C3861 C3856 1.363 . S
C3861 C3860 1.415 . S
H3862 C3859 0.999 . S
H3863 C3844 0.913 . S
H3864 C3882 0.924 1_554 S
H3865 C3884 0.951 . S
H3866 C3886 0.950 . S
H3867 C3887 0.950 . S
H3868 C3889 0.950 . S
H3869 C3892 0.950 . S
H3870 C3893 0.950 . S
H3871 C3895 0.950 . S
H3872 C3896 0.950 . S
H3873 C3897 0.951 . S
H3874 C3899 0.951 . S
H3875 C3901 0.950 . S
H3876 C3902 0.950 . S
H3877 C3904 0.950 . S
H3878 C3907 0.950 . S
H3879 C3908 0.950 . S
H3880 C3910 0.950 . S
H3881 C3911 0.950 . S
C3882 H3864 0.924 1_556 S
C3882 C3883 1.366 . S
C3882 C3884 1.388 . S
C3883 C3882 1.366 . S
C3883 C3887 1.385 . S
C3884 H3865 0.951 . S
C3884 C3882 1.388 . S
C3884 C3885 1.366 . S
C3885 C3884 1.366 . S
C3885 C3886 1.414 . S
C3885 C3888 1.499 . S
C3886 H3866 0.950 . S
C3886 C3885 1.414 . S
C3886 C3887 1.374 . S
C3887 H3867 0.950 . S
C3887 C3883 1.385 . S
C3887 C3886 1.374 . S
C3888 C3885 1.499 . S
C3888 C3889 1.373 . S
C3888 C3890 1.389 . S
C3889 H3868 0.950 . S
C3889 C3888 1.373 . S
C3889 C3905 1.377 . S
C3890 C3888 1.389 . S
C3890 C3891 1.524 . S
C3890 C3904 1.377 . S
C3891 C3890 1.524 . S
C3891 C3892 1.397 . S
C3891 C3896 1.363 . S
C3892 H3869 0.950 . S
C3892 C3891 1.397 . S
C3892 C3893 1.334 . S
C3893 H3870 0.950 . S
C3893 C3892 1.334 . S
C3893 C3894 1.287 . S
C3894 C3893 1.287 . S
C3894 C3895 1.524 . S
C3894 H3913 0.913 . S
C3895 H3871 0.950 . S
C3895 C3894 1.524 . S
C3895 C3896 1.415 . S
C3896 H3872 0.950 . S
C3896 C3891 1.363 . S
C3896 C3895 1.415 . S
C3897 H3873 0.951 . S
C3897 C3898 1.366 . S
C3897 C3899 1.388 . S
C3898 C3897 1.366 . S
C3898 C3902 1.385 . S
C3899 H3874 0.951 . S
C3899 C3897 1.388 . S
C3899 C3900 1.366 . S
C3900 C3899 1.366 . S
C3900 C3901 1.414 . S
C3900 C3903 1.499 . S
C3901 H3875 0.950 . S
C3901 C3900 1.414 . S
C3901 C3902 1.374 . S
C3902 H3876 0.950 . S
C3902 C3898 1.385 . S
C3902 C3901 1.374 . S
C3903 C3900 1.499 . S
C3903 C3904 1.373 . S
C3903 C3905 1.389 . S
C3904 H3877 0.950 . S
C3904 C3890 1.377 . S
C3904 C3903 1.373 . S
C3905 C3889 1.377 . S
C3905 C3903 1.389 . S
C3905 C3906 1.524 . S
C3906 C3905 1.524 . S
C3906 C3907 1.397 . S
C3906 C3911 1.363 . S
C3907 H3878 0.950 . S
C3907 C3906 1.397 . S
C3907 C3908 1.334 . S
C3908 H3879 0.950 . S
C3908 C3907 1.334 . S
C3908 C3909 1.287 . S
C3909 C3908 1.287 . S
C3909 C3910 1.524 . S
C3909 H3912 0.999 . S
C3910 H3880 0.950 . S
C3910 C3909 1.524 . S
C3910 C3911 1.415 . S
C3911 H3881 0.950 . S
C3911 C3906 1.363 . S
C3911 C3910 1.415 . S
H3912 C3909 0.999 . S
H3913 C3894 0.913 . S
H3914 C3932 0.951 1_554 S
H3915 C3934 0.951 . S
H3916 C3936 0.950 . S
H3917 C3937 0.950 . S
H3918 C3939 0.950 . S
H3919 C3942 0.950 . S
H3920 C3943 0.950 . S
H3921 C3945 0.950 . S
H3922 C3946 0.950 . S
H3923 C3947 0.951 . S
H3924 C3949 0.951 . S
H3925 C3951 0.950 . S
H3926 C3952 0.950 . S
H3927 C3954 0.950 . S
H3928 C3957 0.950 . S
H3929 C3958 0.950 . S
H3930 C3960 0.950 . S
H3931 C3961 0.950 . S
C3932 H3914 0.951 1_556 S
C3932 C3933 1.366 . S
C3932 C3934 1.388 . S
C3933 C3932 1.366 . S
C3933 C3937 1.385 . S
C3934 H3915 0.951 . S
C3934 C3932 1.388 . S
C3934 C3935 1.366 . S
C3935 C3934 1.366 . S
C3935 C3936 1.414 . S
C3935 C3938 1.499 . S
C3936 H3916 0.950 . S
C3936 C3935 1.414 . S
C3936 C3937 1.374 . S
C3937 H3917 0.950 . S
C3937 C3933 1.385 . S
C3937 C3936 1.374 . S
C3938 C3935 1.499 . S
C3938 C3939 1.373 . S
C3938 C3940 1.389 . S
C3939 H3918 0.950 . S
C3939 C3938 1.373 . S
C3939 C3955 1.377 . S
C3940 C3938 1.389 . S
C3940 C3941 1.524 . S
C3940 C3954 1.377 . S
C3941 C3940 1.524 . S
C3941 C3942 1.397 . S
C3941 C3946 1.363 . S
C3942 H3919 0.950 . S
C3942 C3941 1.397 . S
C3942 C3943 1.334 . S
C3943 H3920 0.950 . S
C3943 C3942 1.334 . S
C3943 C3944 1.287 . S
C3944 C3943 1.287 . S
C3944 C3945 1.524 . S
C3944 H3963 0.913 . S
C3945 H3921 0.950 . S
C3945 C3944 1.524 . S
C3945 C3946 1.415 . S
C3946 H3922 0.950 . S
C3946 C3941 1.363 . S
C3946 C3945 1.415 . S
C3947 H3923 0.951 . S
C3947 C3948 1.366 . S
C3947 C3949 1.388 . S
C3948 C3947 1.366 . S
C3948 C3952 1.385 . S
C3949 H3924 0.951 . S
C3949 C3947 1.388 . S
C3949 C3950 1.366 . S
C3950 C3949 1.366 . S
C3950 C3951 1.414 . S
C3950 C3953 1.499 . S
C3951 H3925 0.950 . S
C3951 C3950 1.414 . S
C3951 C3952 1.374 . S
C3952 H3926 0.950 . S
C3952 C3948 1.385 . S
C3952 C3951 1.374 . S
C3953 C3950 1.499 . S
C3953 C3954 1.373 . S
C3953 C3955 1.389 . S
C3954 H3927 0.950 . S
C3954 C3940 1.377 . S
C3954 C3953 1.373 . S
C3955 C3939 1.377 . S
C3955 C3953 1.389 . S
C3955 C3956 1.524 . S
C3956 C3955 1.524 . S
C3956 C3957 1.397 . S
C3956 C3961 1.363 . S
C3957 H3928 0.950 . S
C3957 C3956 1.397 . S
C3957 C3958 1.334 . S
C3958 H3929 0.950 . S
C3958 C3957 1.334 . S
C3958 C3959 1.287 . S
C3959 C3958 1.287 . S
C3959 C3960 1.524 . S
C3959 H3962 0.999 . S
C3960 H3930 0.950 . S
C3960 C3959 1.524 . S
C3960 C3961 1.415 . S
C3961 H3931 0.950 . S
C3961 C3956 1.363 . S
C3961 C3960 1.415 . S
H3962 C3959 0.999 . S
H3963 C3944 0.913 . S
H3964 C3982 0.951 . S
H3965 C3984 0.951 . S
H3966 C3986 0.950 . S
H3967 C3987 0.950 . S
H3968 C3989 0.950 . S
H3969 C3992 0.950 . S
H3970 C3993 0.950 . S
H3971 C3995 0.950 . S
H3972 C3996 0.950 . S
H3973 C3997 0.951 . S
H3974 C3999 0.951 . S
H3975 C4001 0.950 . S
H3976 C4002 0.950 . S
H3977 C4004 0.950 . S
H3978 C4007 0.950 . S
H3979 C4008 0.950 . S
H3980 C4010 0.950 . S
H3981 C4011 0.950 . S
C3982 H3964 0.951 . S
C3982 C3983 1.366 . S
C3982 C3984 1.388 . S
C3983 C3982 1.366 . S
C3983 C3987 1.385 . S
C3984 H3965 0.951 . S
C3984 C3982 1.388 . S
C3984 C3985 1.366 . S
C3985 C3984 1.366 . S
C3985 C3986 1.414 . S
C3985 C3988 1.499 . S
C3986 H3966 0.950 . S
C3986 C3985 1.414 . S
C3986 C3987 1.374 . S
C3987 H3967 0.950 . S
C3987 C3983 1.385 . S
C3987 C3986 1.374 . S
C3988 C3985 1.499 . S
C3988 C3989 1.373 . S
C3988 C3990 1.389 . S
C3989 H3968 0.950 . S
C3989 C3988 1.373 . S
C3989 C4005 1.377 . S
C3990 C3988 1.389 . S
C3990 C3991 1.524 . S
C3990 C4004 1.377 . S
C3991 C3990 1.524 . S
C3991 C3992 1.397 1_556 S
C3991 C3996 1.363 . S
C3992 H3969 0.950 . S
C3992 C3991 1.397 1_554 S
C3992 C3993 1.334 . S
C3993 H3970 0.950 . S
C3993 C3992 1.334 . S
C3993 C3994 1.287 . S
C3994 C3993 1.287 . S
C3994 C3995 1.524 . S
C3994 H4013 0.913 . S
C3995 H3971 0.950 . S
C3995 C3994 1.524 . S
C3995 C3996 1.415 1_554 S
C3996 H3972 0.950 . S
C3996 C3991 1.363 . S
C3996 C3995 1.415 1_556 S
C3997 H3973 0.951 . S
C3997 C3998 1.366 . S
C3997 C3999 1.388 . S
C3998 C3997 1.366 . S
C3998 C4002 1.385 . S
C3999 H3974 0.951 . S
C3999 C3997 1.388 . S
C3999 C4000 1.366 . S
C4000 C3999 1.366 . S
C4000 C4001 1.414 . S
C4000 C4003 1.499 . S
C4001 H3975 0.950 . S
C4001 C4000 1.414 . S
C4001 C4002 1.374 . S
C4002 H3976 0.950 . S
C4002 C3998 1.385 . S
C4002 C4001 1.374 . S
C4003 C4000 1.499 . S
C4003 C4004 1.373 . S
C4003 C4005 1.389 . S
C4004 H3977 0.950 . S
C4004 C3990 1.377 . S
C4004 C4003 1.373 . S
C4005 C3989 1.377 . S
C4005 C4003 1.389 . S
C4005 C4006 1.524 . S
C4006 C4005 1.524 . S
C4006 C4007 1.397 . S
C4006 C4011 1.363 . S
C4007 H3978 0.950 . S
C4007 C4006 1.397 . S
C4007 C4008 1.334 . S
C4008 H3979 0.950 . S
C4008 C4007 1.334 . S
C4008 C4009 1.287 . S
C4009 C4008 1.287 . S
C4009 C4010 1.524 . S
C4009 H4012 0.999 . S
C4010 H3980 0.950 . S
C4010 C4009 1.524 . S
C4010 C4011 1.415 . S
C4011 H3981 0.950 . S
C4011 C4006 1.363 . S
C4011 C4010 1.415 . S
H4012 C4009 0.999 . S
H4013 C3994 0.913 . S
H4014 C4032 0.951 . S
H4015 C4034 0.951 . S
H4016 C4036 0.950 . S
H4017 C4037 0.950 . S
H4018 C4039 0.950 . S
H4019 C4042 0.950 . S
H4020 C4043 0.950 . S
H4021 C4045 0.950 . S
H4022 C4046 0.950 . S
H4023 C4047 0.951 . S
H4024 C4049 0.951 . S
H4025 C4051 0.950 . S
H4026 C4052 0.950 . S
H4027 C4054 0.950 . S
H4028 C4057 0.950 . S
H4029 C4058 0.950 . S
H4030 C4060 0.950 . S
H4031 C4061 0.950 . S
C4032 H4014 0.951 . S
C4032 C4033 1.366 . S
C4032 C4034 1.388 . S
C4033 C4032 1.366 . S
C4033 C4037 1.385 . S
C4034 H4015 0.951 . S
C4034 C4032 1.388 . S
C4034 C4035 1.366 . S
C4035 C4034 1.366 . S
C4035 C4036 1.414 . S
C4035 C4038 1.499 . S
C4036 H4016 0.950 . S
C4036 C4035 1.414 . S
C4036 C4037 1.374 . S
C4037 H4017 0.950 . S
C4037 C4033 1.385 . S
C4037 C4036 1.374 . S
C4038 C4035 1.499 . S
C4038 C4039 1.373 . S
C4038 C4040 1.389 . S
C4039 H4018 0.950 . S
C4039 C4038 1.373 . S
C4039 C4055 1.377 . S
C4040 C4038 1.389 . S
C4040 C4041 1.524 . S
C4040 C4054 1.377 . S
C4041 C4040 1.524 . S
C4041 C4042 1.397 . S
C4041 C4046 1.363 . S
C4042 H4019 0.950 . S
C4042 C4041 1.397 . S
C4042 C4043 1.334 1_554 S
C4043 H4020 0.950 . S
C4043 C4042 1.334 1_556 S
C4043 C4044 1.287 . S
C4044 C4043 1.287 . S
C4044 C4045 1.524 . S
C4044 H4063 0.913 . S
C4045 H4021 0.950 . S
C4045 C4044 1.524 . S
C4045 C4046 1.415 1_556 S
C4046 H4022 0.950 . S
C4046 C4041 1.363 . S
C4046 C4045 1.415 1_554 S
C4047 H4023 0.951 . S
C4047 C4048 1.366 . S
C4047 C4049 1.388 . S
C4048 C4047 1.366 . S
C4048 C4052 1.385 . S
C4049 H4024 0.951 . S
C4049 C4047 1.388 . S
C4049 C4050 1.366 . S
C4050 C4049 1.366 . S
C4050 C4051 1.414 . S
C4050 C4053 1.499 . S
C4051 H4025 0.950 . S
C4051 C4050 1.414 . S
C4051 C4052 1.374 . S
C4052 H4026 0.950 . S
C4052 C4048 1.385 . S
C4052 C4051 1.374 . S
C4053 C4050 1.499 . S
C4053 C4054 1.373 . S
C4053 C4055 1.389 . S
C4054 H4027 0.950 . S
C4054 C4040 1.377 . S
C4054 C4053 1.373 . S
C4055 C4039 1.377 . S
C4055 C4053 1.389 . S
C4055 C4056 1.524 . S
C4056 C4055 1.524 . S
C4056 C4057 1.397 . S
C4056 C4061 1.363 . S
C4057 H4028 0.950 . S
C4057 C4056 1.397 . S
C4057 C4058 1.334 . S
C4058 H4029 0.950 . S
C4058 C4057 1.334 . S
C4058 C4059 1.287 . S
C4059 C4058 1.287 . S
C4059 C4060 1.524 . S
C4059 H4062 0.999 . S
C4060 H4030 0.950 . S
C4060 C4059 1.524 . S
C4060 C4061 1.415 . S
C4061 H4031 0.950 . S
C4061 C4056 1.363 . S
C4061 C4060 1.415 . S
H4062 C4059 0.999 . S
H4063 C4044 0.913 . S
H4064 C4082 0.951 . S
H4065 C4084 0.951 . S
H4066 C4086 0.950 . S
H4067 C4087 0.950 . S
H4068 C4089 0.950 . S
H4069 C4092 0.950 . S
H4070 C4093 0.950 . S
H4071 C4095 0.950 . S
H4072 C4096 0.950 . S
H4073 C4097 0.951 . S
H4074 C4099 0.951 . S
H4075 C4101 0.950 . S
H4076 C4102 0.950 . S
H4077 C4104 0.950 . S
H4078 C4107 0.950 . S
H4079 C4108 0.950 . S
H4080 C4110 0.950 1_556 S
H4081 C4111 0.950 . S
C4082 H4064 0.951 . S
C4082 C4083 1.366 . S
C4082 C4084 1.388 . S
C4083 C4082 1.366 . S
C4083 C4087 1.385 . S
C4084 H4065 0.951 . S
C4084 C4082 1.388 . S
C4084 C4085 1.366 . S
C4085 C4084 1.366 . S
C4085 C4086 1.414 . S
C4085 C4088 1.499 . S
C4086 H4066 0.950 . S
C4086 C4085 1.414 . S
C4086 C4087 1.374 . S
C4087 H4067 0.950 . S
C4087 C4083 1.385 . S
C4087 C4086 1.374 . S
C4088 C4085 1.499 . S
C4088 C4089 1.373 . S
C4088 C4090 1.389 . S
C4089 H4068 0.950 . S
C4089 C4088 1.373 . S
C4089 C4105 1.377 . S
C4090 C4088 1.389 . S
C4090 C4091 1.524 . S
C4090 C4104 1.377 . S
C4091 C4090 1.524 . S
C4091 C4092 1.397 . S
C4091 C4096 1.363 . S
C4092 H4069 0.950 . S
C4092 C4091 1.397 . S
C4092 C4093 1.334 . S
C4093 H4070 0.950 . S
C4093 C4092 1.334 . S
C4093 C4094 1.287 . S
C4094 C4093 1.287 . S
C4094 C4095 1.524 . S
C4094 H4113 0.913 . S
C4095 H4071 0.950 . S
C4095 C4094 1.524 . S
C4095 C4096 1.415 . S
C4096 H4072 0.950 . S
C4096 C4091 1.363 . S
C4096 C4095 1.415 . S
C4097 H4073 0.951 . S
C4097 C4098 1.366 . S
C4097 C4099 1.388 . S
C4098 C4097 1.366 . S
C4098 C4102 1.385 . S
C4099 H4074 0.951 . S
C4099 C4097 1.388 . S
C4099 C4100 1.366 . S
C4100 C4099 1.366 . S
C4100 C4101 1.414 . S
C4100 C4103 1.499 . S
C4101 H4075 0.950 . S
C4101 C4100 1.414 . S
C4101 C4102 1.374 . S
C4102 H4076 0.950 . S
C4102 C4098 1.385 . S
C4102 C4101 1.374 . S
C4103 C4100 1.499 . S
C4103 C4104 1.373 . S
C4103 C4105 1.389 . S
C4104 H4077 0.950 . S
C4104 C4090 1.377 . S
C4104 C4103 1.373 . S
C4105 C4089 1.377 . S
C4105 C4103 1.389 . S
C4105 C4106 1.524 . S
C4106 C4105 1.524 . S
C4106 C4107 1.397 . S
C4106 C4111 1.363 . S
C4107 H4078 0.950 . S
C4107 C4106 1.397 . S
C4107 C4108 1.334 . S
C4108 H4079 0.950 . S
C4108 C4107 1.334 . S
C4108 C4109 1.287 . S
C4109 C4108 1.287 . S
C4109 C4110 1.524 . S
C4109 H4112 0.999 1_554 S
C4110 H4080 0.950 1_554 S
C4110 C4109 1.524 . S
C4110 C4111 1.415 . S
C4111 H4081 0.950 . S
C4111 C4106 1.363 . S
C4111 C4110 1.415 . S
H4112 C4109 0.999 1_556 S
H4113 C4094 0.913 . S
H4114 C4132 0.951 . S
H4115 C4134 0.951 . S
H4116 C4136 0.950 . S
H4117 C4137 0.950 . S
H4118 C4139 0.950 . S
H4119 C4142 0.950 . S
H4120 C4143 0.950 . S
H4121 C4145 0.950 . S
H4122 C4146 0.950 . S
H4123 C4147 0.951 . S
H4124 C4149 0.951 . S
H4125 C4151 0.950 . S
H4126 C4152 0.950 . S
H4127 C4154 0.950 . S
H4128 C4157 0.950 . S
H4129 C4158 0.950 . S
H4130 C4160 0.950 . S
H4131 C4161 0.950 . S
C4132 H4114 0.951 . S
C4132 C4133 1.366 . S
C4132 C4134 1.388 . S
C4133 C4132 1.366 . S
C4133 C4137 1.385 . S
C4134 H4115 0.951 . S
C4134 C4132 1.388 . S
C4134 C4135 1.366 . S
C4135 C4134 1.366 . S
C4135 C4136 1.414 . S
C4135 C4138 1.499 . S
C4136 H4116 0.950 . S
C4136 C4135 1.414 . S
C4136 C4137 1.374 . S
C4137 H4117 0.950 . S
C4137 C4133 1.385 . S
C4137 C4136 1.374 . S
C4138 C4135 1.499 . S
C4138 C4139 1.373 . S
C4138 C4140 1.389 . S
C4139 H4118 0.950 . S
C4139 C4138 1.373 . S
C4139 C4155 1.377 . S
C4140 C4138 1.389 . S
C4140 C4141 1.524 . S
C4140 C4154 1.377 . S
C4141 C4140 1.524 . S
C4141 C4142 1.397 . S
C4141 C4146 1.363 . S
C4142 H4119 0.950 . S
C4142 C4141 1.397 . S
C4142 C4143 1.334 . S
C4143 H4120 0.950 . S
C4143 C4142 1.334 . S
C4143 C4144 1.287 . S
C4144 C4143 1.287 . S
C4144 C4145 1.524 . S
C4144 H4163 0.913 . S
C4145 H4121 0.950 . S
C4145 C4144 1.524 . S
C4145 C4146 1.415 . S
C4146 H4122 0.950 . S
C4146 C4141 1.363 . S
C4146 C4145 1.415 . S
C4147 H4123 0.951 . S
C4147 C4148 1.366 . S
C4147 C4149 1.388 . S
C4148 C4147 1.366 . S
C4148 C4152 1.385 . S
C4149 H4124 0.951 . S
C4149 C4147 1.388 . S
C4149 C4150 1.366 . S
C4150 C4149 1.366 . S
C4150 C4151 1.414 . S
C4150 C4153 1.499 . S
C4151 H4125 0.950 . S
C4151 C4150 1.414 . S
C4151 C4152 1.374 . S
C4152 H4126 0.950 . S
C4152 C4148 1.385 . S
C4152 C4151 1.374 . S
C4153 C4150 1.499 . S
C4153 C4154 1.373 . S
C4153 C4155 1.389 . S
C4154 H4127 0.950 . S
C4154 C4140 1.377 . S
C4154 C4153 1.373 . S
C4155 C4139 1.377 . S
C4155 C4153 1.389 . S
C4155 C4156 1.524 . S
C4156 C4155 1.524 . S
C4156 C4157 1.397 . S
C4156 C4161 1.363 . S
C4157 H4128 0.950 . S
C4157 C4156 1.397 . S
C4157 C4158 1.334 . S
C4158 H4129 0.950 . S
C4158 C4157 1.334 . S
C4158 C4159 1.287 . S
C4159 C4158 1.287 . S
C4159 C4160 1.524 . S
C4159 H4162 0.999 . S
C4160 H4130 0.950 . S
C4160 C4159 1.524 . S
C4160 C4161 1.415 . S
C4161 H4131 0.950 . S
C4161 C4156 1.363 . S
C4161 C4160 1.415 . S
H4162 C4159 0.999 . S
H4163 C4144 0.913 . S
H4164 C4182 0.951 . S
H4165 C4184 0.951 . S
H4166 C4186 0.950 . S
H4167 C4187 0.950 . S
H4168 C4189 0.950 . S
H4169 C4192 0.950 . S
H4170 C4193 0.950 . S
H4171 C4195 0.950 . S
H4172 C4196 0.950 . S
H4173 C4197 0.951 . S
H4174 C4199 0.951 . S
H4175 C4201 0.950 . S
H4176 C4202 0.950 . S
H4177 C4204 0.950 . S
H4178 C4207 0.950 . S
H4179 C4208 0.950 . S
H4180 C4210 0.950 . S
H4181 C4211 0.950 . S
C4182 H4164 0.951 . S
C4182 C4183 1.366 . S
C4182 C4184 1.388 . S
C4183 C4182 1.366 . S
C4183 C4187 1.385 . S
C4184 H4165 0.951 . S
C4184 C4182 1.388 . S
C4184 C4185 1.366 . S
C4185 C4184 1.366 . S
C4185 C4186 1.414 . S
C4185 C4188 1.499 . S
C4186 H4166 0.950 . S
C4186 C4185 1.414 . S
C4186 C4187 1.374 . S
C4187 H4167 0.950 . S
C4187 C4183 1.385 . S
C4187 C4186 1.374 . S
C4188 C4185 1.499 . S
C4188 C4189 1.373 . S
C4188 C4190 1.389 . S
C4189 H4168 0.950 . S
C4189 C4188 1.373 . S
C4189 C4205 1.377 . S
C4190 C4188 1.389 . S
C4190 C4191 1.524 . S
C4190 C4204 1.377 . S
C4191 C4190 1.524 . S
C4191 C4192 1.397 . S
C4191 C4196 1.363 . S
C4192 H4169 0.950 . S
C4192 C4191 1.397 . S
C4192 C4193 1.334 . S
C4193 H4170 0.950 . S
C4193 C4192 1.334 . S
C4193 C4194 1.287 . S
C4194 C4193 1.287 . S
C4194 C4195 1.524 . S
C4194 H4213 0.913 . S
C4195 H4171 0.950 . S
C4195 C4194 1.524 . S
C4195 C4196 1.415 . S
C4196 H4172 0.950 . S
C4196 C4191 1.363 . S
C4196 C4195 1.415 . S
C4197 H4173 0.951 . S
C4197 C4198 1.366 . S
C4197 C4199 1.388 . S
C4198 C4197 1.366 . S
C4198 C4202 1.385 . S
C4199 H4174 0.951 . S
C4199 C4197 1.388 . S
C4199 C4200 1.366 . S
C4200 C4199 1.366 . S
C4200 C4201 1.414 . S
C4200 C4203 1.499 . S
C4201 H4175 0.950 . S
C4201 C4200 1.414 . S
C4201 C4202 1.374 . S
C4202 H4176 0.950 . S
C4202 C4198 1.385 . S
C4202 C4201 1.374 . S
C4203 C4200 1.499 . S
C4203 C4204 1.373 . S
C4203 C4205 1.389 . S
C4204 H4177 0.950 . S
C4204 C4190 1.377 . S
C4204 C4203 1.373 . S
C4205 C4189 1.377 . S
C4205 C4203 1.389 . S
C4205 C4206 1.524 . S
C4206 C4205 1.524 . S
C4206 C4207 1.397 . S
C4206 C4211 1.363 . S
C4207 H4178 0.950 . S
C4207 C4206 1.397 . S
C4207 C4208 1.334 . S
C4208 H4179 0.950 . S
C4208 C4207 1.334 . S
C4208 C4209 1.287 . S
C4209 C4208 1.287 . S
C4209 C4210 1.524 . S
C4209 H4212 0.999 . S
C4210 H4180 0.950 . S
C4210 C4209 1.524 . S
C4210 C4211 1.415 . S
C4211 H4181 0.950 . S
C4211 C4206 1.363 . S
C4211 C4210 1.415 . S
H4212 C4209 0.999 . S
H4213 C4194 0.913 . S
H4214 C4232 0.951 . S
H4215 C4234 0.951 . S
H4216 C4236 0.950 . S
H4217 C4237 0.950 . S
H4218 C4239 0.950 . S
H4219 C4242 0.950 . S
H4220 C4243 0.950 . S
H4221 C4245 0.950 . S
H4222 C4246 0.950 . S
H4223 C4247 0.951 . S
H4224 C4249 0.951 . S
H4225 C4251 0.950 . S
H4226 C4252 0.950 . S
H4227 C4254 0.950 . S
H4228 C4257 0.950 . S
H4229 C4258 0.950 . S
H4230 C4260 0.950 . S
H4231 C4261 0.950 . S
C4232 H4214 0.951 . S
C4232 C4233 1.366 . S
C4232 C4234 1.388 . S
C4233 C4232 1.366 . S
C4233 C4237 1.385 . S
C4234 H4215 0.951 . S
C4234 C4232 1.388 . S
C4234 C4235 1.366 . S
C4235 C4234 1.366 . S
C4235 C4236 1.414 . S
C4235 C4238 1.499 . S
C4236 H4216 0.950 . S
C4236 C4235 1.414 . S
C4236 C4237 1.374 . S
C4237 H4217 0.950 . S
C4237 C4233 1.385 . S
C4237 C4236 1.374 . S
C4238 C4235 1.499 . S
C4238 C4239 1.373 . S
C4238 C4240 1.389 . S
C4239 H4218 0.950 . S
C4239 C4238 1.373 . S
C4239 C4255 1.377 . S
C4240 C4238 1.389 . S
C4240 C4241 1.524 . S
C4240 C4254 1.377 . S
C4241 C4240 1.524 . S
C4241 C4242 1.397 . S
C4241 C4246 1.363 . S
C4242 H4219 0.950 . S
C4242 C4241 1.397 . S
C4242 C4243 1.334 . S
C4243 H4220 0.950 . S
C4243 C4242 1.334 . S
C4243 C4244 1.287 . S
C4244 C4243 1.287 . S
C4244 C4245 1.524 . S
C4244 H4263 0.913 . S
C4245 H4221 0.950 . S
C4245 C4244 1.524 . S
C4245 C4246 1.415 . S
C4246 H4222 0.950 . S
C4246 C4241 1.363 . S
C4246 C4245 1.415 . S
C4247 H4223 0.951 . S
C4247 C4248 1.366 . S
C4247 C4249 1.388 . S
C4248 C4247 1.366 . S
C4248 C4252 1.385 . S
C4249 H4224 0.951 . S
C4249 C4247 1.388 . S
C4249 C4250 1.366 . S
C4250 C4249 1.366 . S
C4250 C4251 1.414 . S
C4250 C4253 1.499 . S
C4251 H4225 0.950 . S
C4251 C4250 1.414 . S
C4251 C4252 1.374 . S
C4252 H4226 0.950 . S
C4252 C4248 1.385 . S
C4252 C4251 1.374 . S
C4253 C4250 1.499 . S
C4253 C4254 1.373 . S
C4253 C4255 1.389 . S
C4254 H4227 0.950 . S
C4254 C4240 1.377 . S
C4254 C4253 1.373 . S
C4255 C4239 1.377 . S
C4255 C4253 1.389 . S
C4255 C4256 1.524 . S
C4256 C4255 1.524 . S
C4256 C4257 1.397 . S
C4256 C4261 1.363 . S
C4257 H4228 0.950 . S
C4257 C4256 1.397 . S
C4257 C4258 1.334 . S
C4258 H4229 0.950 . S
C4258 C4257 1.334 . S
C4258 C4259 1.287 . S
C4259 C4258 1.287 . S
C4259 C4260 1.524 . S
C4259 H4262 0.999 . S
C4260 H4230 0.950 . S
C4260 C4259 1.524 . S
C4260 C4261 1.415 . S
C4261 H4231 0.950 . S
C4261 C4256 1.363 . S
C4261 C4260 1.415 . S
H4262 C4259 0.999 . S
H4263 C4244 0.913 . S
H4264 C4282 0.951 . S
H4265 C4284 0.951 . S
H4266 C4286 0.950 . S
H4267 C4287 0.950 . S
H4268 C4289 0.950 . S
H4269 C4292 0.950 . S
H4270 C4293 0.950 . S
H4271 C4295 0.950 . S
H4272 C4296 0.950 . S
H4273 C4297 0.951 . S
H4274 C4299 0.951 . S
H4275 C4301 0.950 . S
H4276 C4302 0.950 . S
H4277 C4304 0.950 . S
H4278 C4307 0.950 . S
H4279 C4308 0.950 . S
H4280 C4310 0.950 . S
H4281 C4311 0.950 . S
C4282 H4264 0.951 . S
C4282 C4283 1.366 . S
C4282 C4284 1.388 . S
C4283 C4282 1.366 . S
C4283 C4287 1.385 . S
C4284 H4265 0.951 . S
C4284 C4282 1.388 . S
C4284 C4285 1.366 . S
C4285 C4284 1.366 . S
C4285 C4286 1.414 . S
C4285 C4288 1.499 . S
C4286 H4266 0.950 . S
C4286 C4285 1.414 . S
C4286 C4287 1.374 . S
C4287 H4267 0.950 . S
C4287 C4283 1.385 . S
C4287 C4286 1.374 . S
C4288 C4285 1.499 . S
C4288 C4289 1.373 . S
C4288 C4290 1.389 . S
C4289 H4268 0.950 . S
C4289 C4288 1.373 . S
C4289 C4305 1.377 . S
C4290 C4288 1.389 . S
C4290 C4291 1.524 . S
C4290 C4304 1.377 . S
C4291 C4290 1.524 . S
C4291 C4292 1.397 . S
C4291 C4296 1.363 . S
C4292 H4269 0.950 . S
C4292 C4291 1.397 . S
C4292 C4293 1.334 . S
C4293 H4270 0.950 . S
C4293 C4292 1.334 . S
C4293 C4294 1.287 . S
C4294 C4293 1.287 . S
C4294 C4295 1.524 . S
C4294 H4313 0.913 . S
C4295 H4271 0.950 . S
C4295 C4294 1.524 . S
C4295 C4296 1.415 . S
C4296 H4272 0.950 . S
C4296 C4291 1.363 . S
C4296 C4295 1.415 . S
C4297 H4273 0.951 . S
C4297 C4298 1.366 . S
C4297 C4299 1.388 . S
C4298 C4297 1.366 . S
C4298 C4302 1.385 . S
C4299 H4274 0.951 . S
C4299 C4297 1.388 . S
C4299 C4300 1.366 . S
C4300 C4299 1.366 . S
C4300 C4301 1.414 . S
C4300 C4303 1.499 . S
C4301 H4275 0.950 . S
C4301 C4300 1.414 . S
C4301 C4302 1.374 . S
C4302 H4276 0.950 . S
C4302 C4298 1.385 . S
C4302 C4301 1.374 . S
C4303 C4300 1.499 . S
C4303 C4304 1.373 . S
C4303 C4305 1.389 . S
C4304 H4277 0.950 . S
C4304 C4290 1.377 . S
C4304 C4303 1.373 . S
C4305 C4289 1.377 . S
C4305 C4303 1.389 . S
C4305 C4306 1.524 . S
C4306 C4305 1.524 . S
C4306 C4307 1.397 . S
C4306 C4311 1.363 . S
C4307 H4278 0.950 . S
C4307 C4306 1.397 . S
C4307 C4308 1.334 . S
C4308 H4279 0.950 . S
C4308 C4307 1.334 . S
C4308 C4309 1.287 . S
C4309 C4308 1.287 . S
C4309 C4310 1.524 . S
C4309 H4312 0.999 . S
C4310 H4280 0.950 . S
C4310 C4309 1.524 . S
C4310 C4311 1.415 . S
C4311 H4281 0.950 . S
C4311 C4306 1.363 . S
C4311 C4310 1.415 . S
H4312 C4309 0.999 . S
H4313 C4294 0.913 . S
H4314 C4332 0.951 . S
H4315 C4334 0.951 . S
H4316 C4336 0.950 1_655 S
H4317 C4337 0.950 1_655 S
H4318 C4339 0.950 1_655 S
H4319 C4342 0.950 . S
H4320 C4343 0.950 . S
H4321 C4345 0.950 . S
H4322 C4346 0.950 . S
H4323 C4347 0.951 . S
H4324 C4349 0.951 . S
H4325 C4351 0.950 . S
H4326 C4352 0.950 . S
H4327 C4354 0.950 . S
H4328 C4357 0.950 1_455 S
H4329 C4358 0.950 . S
H4330 C4360 0.950 . S
H4331 C4361 0.950 . S
C4332 H4314 0.951 . S
C4332 C4333 1.366 . S
C4332 C4334 1.388 . S
C4333 C4332 1.366 . S
C4333 C4337 1.385 . S
C4334 H4315 0.951 . S
C4334 C4332 1.388 . S
C4334 C4335 1.366 . S
C4335 C4334 1.366 . S
C4335 C4336 1.414 . S
C4335 C4338 1.499 . S
C4336 H4316 0.950 1_455 S
C4336 C4335 1.414 . S
C4336 C4337 1.374 . S
C4337 H4317 0.950 1_455 S
C4337 C4333 1.385 . S
C4337 C4336 1.374 . S
C4338 C4335 1.499 . S
C4338 C4339 1.373 . S
C4338 C4340 1.389 . S
C4339 H4318 0.950 1_455 S
C4339 C4338 1.373 . S
C4339 C4355 1.377 . S
C4340 C4338 1.389 . S
C4340 C4341 1.524 . S
C4340 C4354 1.377 . S
C4341 C4340 1.524 . S
C4341 C4342 1.397 . S
C4341 C4346 1.363 . S
C4342 H4319 0.950 . S
C4342 C4341 1.397 . S
C4342 C4343 1.334 . S
C4343 H4320 0.950 . S
C4343 C4342 1.334 . S
C4343 C4344 1.287 . S
C4344 C4343 1.287 . S
C4344 C4345 1.524 . S
C4344 H4363 0.913 . S
C4345 H4321 0.950 . S
C4345 C4344 1.524 . S
C4345 C4346 1.415 . S
C4346 H4322 0.950 . S
C4346 C4341 1.363 . S
C4346 C4345 1.415 . S
C4347 H4323 0.951 . S
C4347 C4348 1.366 1_655 S
C4347 C4349 1.388 . S
C4348 C4347 1.366 1_455 S
C4348 C4352 1.385 . S
C4349 H4324 0.951 . S
C4349 C4347 1.388 . S
C4349 C4350 1.366 1_655 S
C4350 C4349 1.366 1_455 S
C4350 C4351 1.414 . S
C4350 C4353 1.499 . S
C4351 H4325 0.950 . S
C4351 C4350 1.414 . S
C4351 C4352 1.374 . S
C4352 H4326 0.950 . S
C4352 C4348 1.385 . S
C4352 C4351 1.374 . S
C4353 C4350 1.499 . S
C4353 C4354 1.373 . S
C4353 C4355 1.389 . S
C4354 H4327 0.950 . S
C4354 C4340 1.377 . S
C4354 C4353 1.373 . S
C4355 C4339 1.377 . S
C4355 C4353 1.389 . S
C4355 C4356 1.524 1_455 S
C4356 C4355 1.524 1_655 S
C4356 C4357 1.397 . S
C4356 C4361 1.363 . S
C4357 H4328 0.950 1_655 S
C4357 C4356 1.397 . S
C4357 C4358 1.334 . S
C4358 H4329 0.950 . S
C4358 C4357 1.334 . S
C4358 C4359 1.287 . S
C4359 C4358 1.287 . S
C4359 C4360 1.524 . S
C4359 H4362 0.999 . S
C4360 H4330 0.950 . S
C4360 C4359 1.524 . S
C4360 C4361 1.415 . S
C4361 H4331 0.950 . S
C4361 C4356 1.363 . S
C4361 C4360 1.415 . S
H4362 C4359 0.999 . S
H4363 C4344 0.913 . S
H4364 C4382 0.951 . S
H4365 C4384 0.951 . S
H4366 C4386 0.950 . S
H4367 C4387 0.950 . S
H4368 C4389 0.950 . S
H4369 C4392 0.950 . S
H4370 C4393 0.950 . S
H4371 C4395 0.950 . S
H4372 C4396 0.950 . S
H4373 C4397 0.951 . S
H4374 C4399 0.951 . S
H4375 C4401 0.950 . S
H4376 C4402 0.950 . S
H4377 C4404 0.950 . S
H4378 C4407 0.950 . S
H4379 C4408 0.950 . S
H4380 C4410 0.950 . S
H4381 C4411 0.950 . S
C4382 H4364 0.951 . S
C4382 C4383 1.366 . S
C4382 C4384 1.388 . S
C4383 C4382 1.366 . S
C4383 C4387 1.385 . S
C4384 H4365 0.951 . S
C4384 C4382 1.388 . S
C4384 C4385 1.366 . S
C4385 C4384 1.366 . S
C4385 C4386 1.414 . S
C4385 C4388 1.499 . S
C4386 H4366 0.950 . S
C4386 C4385 1.414 . S
C4386 C4387 1.374 . S
C4387 H4367 0.950 . S
C4387 C4383 1.385 . S
C4387 C4386 1.374 . S
C4388 C4385 1.499 . S
C4388 C4389 1.373 . S
C4388 C4390 1.389 . S
C4389 H4368 0.950 . S
C4389 C4388 1.373 . S
C4389 C4405 1.377 . S
C4390 C4388 1.389 . S
C4390 C4391 1.524 . S
C4390 C4404 1.377 . S
C4391 C4390 1.524 . S
C4391 C4392 1.397 . S
C4391 C4396 1.363 . S
C4392 H4369 0.950 . S
C4392 C4391 1.397 . S
C4392 C4393 1.334 . S
C4393 H4370 0.950 . S
C4393 C4392 1.334 . S
C4393 C4394 1.287 . S
C4394 C4393 1.287 . S
C4394 C4395 1.524 . S
C4394 H4413 0.913 . S
C4395 H4371 0.950 . S
C4395 C4394 1.524 . S
C4395 C4396 1.415 . S
C4396 H4372 0.950 . S
C4396 C4391 1.363 . S
C4396 C4395 1.415 . S
C4397 H4373 0.951 . S
C4397 C4398 1.366 . S
C4397 C4399 1.388 . S
C4398 C4397 1.366 . S
C4398 C4402 1.385 . S
C4399 H4374 0.951 . S
C4399 C4397 1.388 . S
C4399 C4400 1.366 . S
C4400 C4399 1.366 . S
C4400 C4401 1.414 . S
C4400 C4403 1.499 . S
C4401 H4375 0.950 . S
C4401 C4400 1.414 . S
C4401 C4402 1.374 . S
C4402 H4376 0.950 . S
C4402 C4398 1.385 . S
C4402 C4401 1.374 . S
C4403 C4400 1.499 . S
C4403 C4404 1.373 . S
C4403 C4405 1.389 . S
C4404 H4377 0.950 . S
C4404 C4390 1.377 . S
C4404 C4403 1.373 . S
C4405 C4389 1.377 . S
C4405 C4403 1.389 . S
C4405 C4406 1.524 . S
C4406 C4405 1.524 . S
C4406 C4407 1.397 . S
C4406 C4411 1.363 . S
C4407 H4378 0.950 . S
C4407 C4406 1.397 . S
C4407 C4408 1.334 . S
C4408 H4379 0.950 . S
C4408 C4407 1.334 . S
C4408 C4409 1.287 . S
C4409 C4408 1.287 . S
C4409 C4410 1.524 . S
C4409 H4412 0.999 . S
C4410 H4380 0.950 . S
C4410 C4409 1.524 . S
C4410 C4411 1.415 . S
C4411 H4381 0.950 . S
C4411 C4406 1.363 . S
C4411 C4410 1.415 . S
H4412 C4409 0.999 . S
H4413 C4394 0.913 . S
H4414 C4432 0.955 1_545 S
H4415 C4434 0.951 1_545 S
H4416 C4436 0.950 . S
H4417 C4437 0.950 . S
H4418 C4439 0.950 . S
H4419 C4442 0.950 . S
H4420 C4443 0.953 1_565 S
H4421 C4445 0.950 . S
H4422 C4446 0.950 . S
H4423 C4447 0.951 . S
H4424 C4449 0.951 . S
H4425 C4451 0.950 . S
H4426 C4452 0.950 . S
H4427 C4454 0.950 1_545 S
H4428 C4457 0.950 . S
H4429 C4458 0.950 . S
H4430 C4460 0.950 . S
H4431 C4461 0.950 . S
C4432 H4414 0.955 1_565 S
C4432 C4433 1.366 . S
C4432 C4434 1.388 . S
C4433 C4432 1.366 . S
C4433 C4437 1.385 . S
C4434 H4415 0.951 1_565 S
C4434 C4432 1.388 . S
C4434 C4435 1.366 . S
C4435 C4434 1.366 . S
C4435 C4436 1.414 . S
C4435 C4438 1.499 . S
C4436 H4416 0.950 . S
C4436 C4435 1.414 . S
C4436 C4437 1.374 . S
C4437 H4417 0.950 . S
C4437 C4433 1.385 . S
C4437 C4436 1.374 . S
C4438 C4435 1.499 . S
C4438 C4439 1.373 . S
C4438 C4440 1.389 . S
C4439 H4418 0.950 . S
C4439 C4438 1.373 . S
C4439 C4455 1.377 . S
C4440 C4438 1.389 . S
C4440 C4441 1.524 1_565 S
C4440 C4454 1.377 . S
C4441 C4440 1.524 1_545 S
C4441 C4442 1.397 1_545 S
C4441 C4446 1.363 . S
C4442 H4419 0.950 . S
C4442 C4441 1.397 1_565 S
C4442 C4443 1.334 1_565 S
C4443 H4420 0.953 1_545 S
C4443 C4442 1.334 1_545 S
C4443 C4444 1.287 . S
C4444 C4443 1.287 . S
C4444 C4445 1.524 . S
C4444 H4463 0.913 . S
C4445 H4421 0.950 . S
C4445 C4444 1.524 . S
C4445 C4446 1.415 . S
C4446 H4422 0.950 . S
C4446 C4441 1.363 . S
C4446 C4445 1.415 . S
C4447 H4423 0.951 . S
C4447 C4448 1.366 . S
C4447 C4449 1.388 . S
C4448 C4447 1.366 . S
C4448 C4452 1.385 1_565 S
C4449 H4424 0.951 . S
C4449 C4447 1.388 . S
C4449 C4450 1.366 . S
C4450 C4449 1.366 . S
C4450 C4451 1.414 1_565 S
C4450 C4453 1.499 . S
C4451 H4425 0.950 . S
C4451 C4450 1.414 1_545 S
C4451 C4452 1.374 . S
C4452 H4426 0.950 . S
C4452 C4448 1.385 1_545 S
C4452 C4451 1.374 . S
C4453 C4450 1.499 . S
C4453 C4454 1.373 . S
C4453 C4455 1.389 . S
C4454 H4427 0.950 1_565 S
C4454 C4440 1.377 . S
C4454 C4453 1.373 . S
C4455 C4439 1.377 . S
C4455 C4453 1.389 . S
C4455 C4456 1.524 . S
C4456 C4455 1.524 . S
C4456 C4457 1.397 . S
C4456 C4461 1.363 . S
C4457 H4428 0.950 . S
C4457 C4456 1.397 . S
C4457 C4458 1.334 . S
C4458 H4429 0.950 . S
C4458 C4457 1.334 . S
C4458 C4459 1.287 . S
C4459 C4458 1.287 . S
C4459 C4460 1.524 . S
C4459 H4462 0.999 . S
C4460 H4430 0.950 . S
C4460 C4459 1.524 . S
C4460 C4461 1.415 . S
C4461 H4431 0.950 . S
C4461 C4456 1.363 . S
C4461 C4460 1.415 . S
H4462 C4459 0.999 . S
H4463 C4444 0.913 . S
H4464 C4482 0.951 . S
H4465 C4484 0.951 . S
H4466 C4486 0.950 . S
H4467 C4487 0.950 . S
H4468 C4489 0.950 . S
H4469 C4492 0.950 . S
H4470 C4493 0.950 . S
H4471 C4495 0.950 . S
H4472 C4496 0.950 . S
H4473 C4497 0.951 . S
H4474 C4499 0.951 . S
H4475 C4501 0.950 . S
H4476 C4502 0.950 1_545 S
H4477 C4504 0.950 . S
H4478 C4507 0.950 . S
H4479 C4508 0.950 . S
H4480 C4510 0.950 . S
H4481 C4511 0.965 . S
C4482 H4464 0.951 . S
C4482 C4483 1.366 . S
C4482 C4484 1.388 . S
C4483 C4482 1.366 . S
C4483 C4487 1.385 . S
C4484 H4465 0.951 . S
C4484 C4482 1.388 . S
C4484 C4485 1.366 . S
C4485 C4484 1.366 . S
C4485 C4486 1.414 . S
C4485 C4488 1.499 . S
C4486 H4466 0.950 . S
C4486 C4485 1.414 . S
C4486 C4487 1.374 . S
C4487 H4467 0.950 . S
C4487 C4483 1.385 . S
C4487 C4486 1.374 . S
C4488 C4485 1.499 . S
C4488 C4489 1.373 . S
C4488 C4490 1.389 . S
C4489 H4468 0.950 . S
C4489 C4488 1.373 . S
C4489 C4505 1.377 . S
C4490 C4488 1.389 . S
C4490 C4491 1.524 . S
C4490 C4504 1.377 . S
C4491 C4490 1.524 . S
C4491 C4492 1.397 . S
C4491 C4496 1.363 . S
C4492 H4469 0.950 . S
C4492 C4491 1.397 . S
C4492 C4493 1.334 . S
C4493 H4470 0.950 . S
C4493 C4492 1.334 . S
C4493 C4494 1.287 . S
C4494 C4493 1.287 . S
C4494 C4495 1.524 . S
C4494 H4513 0.913 . S
C4495 H4471 0.950 . S
C4495 C4494 1.524 . S
C4495 C4496 1.415 . S
C4496 H4472 0.950 . S
C4496 C4491 1.363 . S
C4496 C4495 1.415 . S
C4497 H4473 0.951 . S
C4497 C4498 1.366 . S
C4497 C4499 1.388 . S
C4498 C4497 1.366 . S
C4498 C4502 1.385 . S
C4499 H4474 0.951 . S
C4499 C4497 1.388 . S
C4499 C4500 1.366 . S
C4500 C4499 1.366 . S
C4500 C4501 1.414 . S
C4500 C4503 1.499 . S
C4501 H4475 0.950 . S
C4501 C4500 1.414 . S
C4501 C4502 1.374 . S
C4502 H4476 0.950 1_565 S
C4502 C4498 1.385 . S
C4502 C4501 1.374 . S
C4503 C4500 1.499 . S
C4503 C4504 1.373 . S
C4503 C4505 1.389 . S
C4504 H4477 0.950 . S
C4504 C4490 1.377 . S
C4504 C4503 1.373 . S
C4505 C4489 1.377 . S
C4505 C4503 1.389 . S
C4505 C4506 1.524 1_565 S
C4506 C4505 1.524 1_545 S
C4506 C4507 1.397 . S
C4506 C4511 1.356 1_545 S
C4507 H4478 0.950 . S
C4507 C4506 1.397 . S
C4507 C4508 1.334 . S
C4508 H4479 0.950 . S
C4508 C4507 1.334 . S
C4508 C4509 1.287 . S
C4509 C4508 1.287 . S
C4509 C4510 1.524 . S
C4509 H4512 0.999 . S
C4510 H4480 0.950 . S
C4510 C4509 1.524 . S
C4510 C4511 1.407 1_545 S
C4511 H4481 0.965 . S
C4511 C4506 1.356 1_565 S
C4511 C4510 1.407 1_565 S
H4512 C4509 0.999 . S
H4513 C4494 0.913 . S
H4514 C4532 0.951 . S
H4515 C4534 0.951 . S
H4516 C4536 0.950 . S
H4517 C4537 0.950 . S
H4518 C4539 0.954 . S
H4519 C4542 0.950 . S
H4520 C4543 0.950 . S
H4521 C4545 0.950 . S
H4522 C4546 0.950 . S
H4523 C4547 0.951 . S
H4524 C4549 0.951 . S
H4525 C4551 0.950 . S
H4526 C4552 0.950 . S
H4527 C4554 0.950 . S
H4528 C4557 0.950 . S
H4529 C4558 0.950 . S
H4530 C4560 0.950 . S
H4531 C4561 0.950 . S
C4532 H4514 0.951 . S
C4532 C4533 1.366 . S
C4532 C4534 1.388 . S
C4533 C4532 1.366 . S
C4533 C4537 1.385 . S
C4534 H4515 0.951 . S
C4534 C4532 1.388 . S
C4534 C4535 1.366 . S
C4535 C4534 1.366 . S
C4535 C4536 1.414 . S
C4535 C4538 1.499 . S
C4536 H4516 0.950 . S
C4536 C4535 1.414 . S
C4536 C4537 1.374 . S
C4537 H4517 0.950 . S
C4537 C4533 1.385 . S
C4537 C4536 1.374 . S
C4538 C4535 1.499 . S
C4538 C4539 1.373 . S
C4538 C4540 1.389 . S
C4539 H4518 0.954 . S
C4539 C4538 1.373 . S
C4539 C4555 1.377 . S
C4540 C4538 1.389 . S
C4540 C4541 1.524 . S
C4540 C4554 1.377 . S
C4541 C4540 1.524 . S
C4541 C4542 1.397 . S
C4541 C4546 1.363 . S
C4542 H4519 0.950 . S
C4542 C4541 1.397 . S
C4542 C4543 1.334 . S
C4543 H4520 0.950 . S
C4543 C4542 1.334 . S
C4543 C4544 1.287 . S
C4544 C4543 1.287 . S
C4544 C4545 1.524 . S
C4544 H4563 0.913 . S
C4545 H4521 0.950 . S
C4545 C4544 1.524 . S
C4545 C4546 1.415 . S
C4546 H4522 0.950 . S
C4546 C4541 1.363 . S
C4546 C4545 1.415 . S
C4547 H4523 0.951 . S
C4547 C4548 1.366 . S
C4547 C4549 1.388 . S
C4548 C4547 1.366 . S
C4548 C4552 1.385 . S
C4549 H4524 0.951 . S
C4549 C4547 1.388 . S
C4549 C4550 1.366 . S
C4550 C4549 1.366 . S
C4550 C4551 1.414 . S
C4550 C4553 1.499 . S
C4551 H4525 0.950 . S
C4551 C4550 1.414 . S
C4551 C4552 1.374 . S
C4552 H4526 0.950 . S
C4552 C4548 1.385 . S
C4552 C4551 1.374 . S
C4553 C4550 1.499 . S
C4553 C4554 1.373 . S
C4553 C4555 1.389 . S
C4554 H4527 0.950 . S
C4554 C4540 1.377 . S
C4554 C4553 1.373 . S
C4555 C4539 1.377 . S
C4555 C4553 1.389 . S
C4555 C4556 1.524 1_455 S
C4556 C4555 1.524 1_655 S
C4556 C4557 1.397 . S
C4556 C4561 1.363 . S
C4557 H4528 0.950 . S
C4557 C4556 1.397 . S
C4557 C4558 1.334 . S
C4558 H4529 0.950 . S
C4558 C4557 1.334 . S
C4558 C4559 1.287 . S
C4559 C4558 1.287 . S
C4559 C4560 1.524 . S
C4559 H4562 0.999 . S
C4560 H4530 0.950 . S
C4560 C4559 1.524 . S
C4560 C4561 1.415 . S
C4561 H4531 0.950 . S
C4561 C4556 1.363 . S
C4561 C4560 1.415 . S
H4562 C4559 0.999 . S
H4563 C4544 0.913 . S
H4564 C4582 0.951 . S
H4565 C4584 0.951 . S
H4566 C4586 0.950 . S
H4567 C4587 0.950 . S
H4568 C4589 0.950 . S
H4569 C4592 0.950 . S
H4570 C4593 0.950 . S
H4571 C4595 0.950 . S
H4572 C4596 0.950 . S
H4573 C4597 0.951 . S
H4574 C4599 0.951 . S
H4575 C4601 0.950 . S
H4576 C4602 0.950 . S
H4577 C4604 0.950 . S
H4578 C4607 0.950 . S
H4579 C4608 0.950 . S
H4580 C4610 0.950 . S
H4581 C4611 0.950 . S
C4582 H4564 0.951 . S
C4582 C4583 1.366 . S
C4582 C4584 1.388 . S
C4583 C4582 1.366 . S
C4583 C4587 1.385 . S
C4584 H4565 0.951 . S
C4584 C4582 1.388 . S
C4584 C4585 1.366 . S
C4585 C4584 1.366 . S
C4585 C4586 1.414 . S
C4585 C4588 1.499 . S
C4586 H4566 0.950 . S
C4586 C4585 1.414 . S
C4586 C4587 1.374 . S
C4587 H4567 0.950 . S
C4587 C4583 1.385 . S
C4587 C4586 1.374 . S
C4588 C4585 1.499 . S
C4588 C4589 1.373 . S
C4588 C4590 1.389 . S
C4589 H4568 0.950 . S
C4589 C4588 1.373 . S
C4589 C4605 1.377 . S
C4590 C4588 1.389 . S
C4590 C4591 1.524 . S
C4590 C4604 1.377 . S
C4591 C4590 1.524 . S
C4591 C4592 1.397 . S
C4591 C4596 1.363 . S
C4592 H4569 0.950 . S
C4592 C4591 1.397 . S
C4592 C4593 1.334 . S
C4593 H4570 0.950 . S
C4593 C4592 1.334 . S
C4593 C4594 1.287 . S
C4594 C4593 1.287 . S
C4594 C4595 1.524 . S
C4594 H4613 0.913 . S
C4595 H4571 0.950 . S
C4595 C4594 1.524 . S
C4595 C4596 1.415 . S
C4596 H4572 0.950 . S
C4596 C4591 1.363 . S
C4596 C4595 1.415 . S
C4597 H4573 0.951 . S
C4597 C4598 1.366 . S
C4597 C4599 1.388 . S
C4598 C4597 1.366 . S
C4598 C4602 1.385 . S
C4599 H4574 0.951 . S
C4599 C4597 1.388 . S
C4599 C4600 1.366 . S
C4600 C4599 1.366 . S
C4600 C4601 1.414 . S
C4600 C4603 1.499 . S
C4601 H4575 0.950 . S
C4601 C4600 1.414 . S
C4601 C4602 1.374 . S
C4602 H4576 0.950 . S
C4602 C4598 1.385 . S
C4602 C4601 1.374 . S
C4603 C4600 1.499 . S
C4603 C4604 1.373 . S
C4603 C4605 1.389 . S
C4604 H4577 0.950 . S
C4604 C4590 1.377 . S
C4604 C4603 1.373 . S
C4605 C4589 1.377 . S
C4605 C4603 1.389 . S
C4605 C4606 1.524 . S
C4606 C4605 1.524 . S
C4606 C4607 1.397 . S
C4606 C4611 1.363 . S
C4607 H4578 0.950 . S
C4607 C4606 1.397 . S
C4607 C4608 1.334 . S
C4608 H4579 0.950 . S
C4608 C4607 1.334 . S
C4608 C4609 1.287 . S
C4609 C4608 1.287 . S
C4609 C4610 1.524 . S
C4609 H4612 0.999 . S
C4610 H4580 0.950 . S
C4610 C4609 1.524 . S
C4610 C4611 1.415 . S
C4611 H4581 0.950 . S
C4611 C4606 1.363 . S
C4611 C4610 1.415 . S
H4612 C4609 0.999 . S
H4613 C4594 0.913 . S
H4614 C4632 0.951 . S
H4615 C4634 0.951 . S
H4616 C4636 0.950 . S
H4617 C4637 0.950 . S
H4618 C4639 0.950 . S
H4619 C4642 0.950 . S
H4620 C4643 0.950 . S
H4621 C4645 0.950 . S
H4622 C4646 0.950 . S
H4623 C4647 0.951 . S
H4624 C4649 0.951 . S
H4625 C4651 0.950 . S
H4626 C4652 0.950 . S
H4627 C4654 0.950 . S
H4628 C4657 0.950 . S
H4629 C4658 0.950 . S
H4630 C4660 0.950 . S
H4631 C4661 0.950 . S
C4632 H4614 0.951 . S
C4632 C4633 1.366 . S
C4632 C4634 1.388 . S
C4633 C4632 1.366 . S
C4633 C4637 1.385 . S
C4634 H4615 0.951 . S
C4634 C4632 1.388 . S
C4634 C4635 1.366 . S
C4635 C4634 1.366 . S
C4635 C4636 1.414 . S
C4635 C4638 1.499 . S
C4636 H4616 0.950 . S
C4636 C4635 1.414 . S
C4636 C4637 1.374 . S
C4637 H4617 0.950 . S
C4637 C4633 1.385 . S
C4637 C4636 1.374 . S
C4638 C4635 1.499 . S
C4638 C4639 1.373 . S
C4638 C4640 1.389 . S
C4639 H4618 0.950 . S
C4639 C4638 1.373 . S
C4639 C4655 1.377 . S
C4640 C4638 1.389 . S
C4640 C4641 1.524 . S
C4640 C4654 1.377 . S
C4641 C4640 1.524 . S
C4641 C4642 1.397 . S
C4641 C4646 1.363 . S
C4642 H4619 0.950 . S
C4642 C4641 1.397 . S
C4642 C4643 1.334 . S
C4643 H4620 0.950 . S
C4643 C4642 1.334 . S
C4643 C4644 1.287 . S
C4644 C4643 1.287 . S
C4644 C4645 1.524 . S
C4644 H4663 0.913 . S
C4645 H4621 0.950 . S
C4645 C4644 1.524 . S
C4645 C4646 1.415 . S
C4646 H4622 0.950 . S
C4646 C4641 1.363 . S
C4646 C4645 1.415 . S
C4647 H4623 0.951 . S
C4647 C4648 1.366 . S
C4647 C4649 1.388 . S
C4648 C4647 1.366 . S
C4648 C4652 1.385 . S
C4649 H4624 0.951 . S
C4649 C4647 1.388 . S
C4649 C4650 1.366 . S
C4650 C4649 1.366 . S
C4650 C4651 1.414 . S
C4650 C4653 1.499 . S
C4651 H4625 0.950 . S
C4651 C4650 1.414 . S
C4651 C4652 1.374 . S
C4652 H4626 0.950 . S
C4652 C4648 1.385 . S
C4652 C4651 1.374 . S
C4653 C4650 1.499 . S
C4653 C4654 1.373 . S
C4653 C4655 1.389 . S
C4654 H4627 0.950 . S
C4654 C4640 1.377 . S
C4654 C4653 1.373 . S
C4655 C4639 1.377 . S
C4655 C4653 1.389 . S
C4655 C4656 1.524 . S
C4656 C4655 1.524 . S
C4656 C4657 1.397 . S
C4656 C4661 1.363 . S
C4657 H4628 0.950 . S
C4657 C4656 1.397 . S
C4657 C4658 1.334 . S
C4658 H4629 0.950 . S
C4658 C4657 1.334 . S
C4658 C4659 1.287 . S
C4659 C4658 1.287 . S
C4659 C4660 1.524 . S
C4659 H4662 0.999 . S
C4660 H4630 0.950 . S
C4660 C4659 1.524 . S
C4660 C4661 1.415 . S
C4661 H4631 0.950 . S
C4661 C4656 1.363 . S
C4661 C4660 1.415 . S
H4662 C4659 0.999 . S
H4663 C4644 0.913 . S
H4664 C4682 0.951 . S
H4665 C4684 0.951 . S
H4666 C4686 0.950 . S
H4667 C4687 0.950 . S
H4668 C4689 0.950 . S
H4669 C4692 0.950 . S
H4670 C4693 0.950 . S
H4671 C4695 0.950 . S
H4672 C4696 0.950 . S
H4673 C4697 0.951 . S
H4674 C4699 0.951 . S
H4675 C4701 0.950 . S
H4676 C4702 0.950 . S
H4677 C4704 0.950 . S
H4678 C4707 0.950 . S
H4679 C4708 0.950 . S
H4680 C4710 0.950 . S
H4681 C4711 0.950 . S
C4682 H4664 0.951 . S
C4682 C4683 1.366 . S
C4682 C4684 1.388 . S
C4683 C4682 1.366 . S
C4683 C4687 1.385 . S
C4684 H4665 0.951 . S
C4684 C4682 1.388 . S
C4684 C4685 1.366 . S
C4685 C4684 1.366 . S
C4685 C4686 1.414 . S
C4685 C4688 1.499 . S
C4686 H4666 0.950 . S
C4686 C4685 1.414 . S
C4686 C4687 1.374 . S
C4687 H4667 0.950 . S
C4687 C4683 1.385 . S
C4687 C4686 1.374 . S
C4688 C4685 1.499 . S
C4688 C4689 1.373 . S
C4688 C4690 1.389 . S
C4689 H4668 0.950 . S
C4689 C4688 1.373 . S
C4689 C4705 1.377 . S
C4690 C4688 1.389 . S
C4690 C4691 1.524 . S
C4690 C4704 1.377 . S
C4691 C4690 1.524 . S
C4691 C4692 1.397 . S
C4691 C4696 1.363 . S
C4692 H4669 0.950 . S
C4692 C4691 1.397 . S
C4692 C4693 1.334 . S
C4693 H4670 0.950 . S
C4693 C4692 1.334 . S
C4693 C4694 1.287 . S
C4694 C4693 1.287 . S
C4694 C4695 1.524 . S
C4694 H4713 0.913 . S
C4695 H4671 0.950 . S
C4695 C4694 1.524 . S
C4695 C4696 1.415 . S
C4696 H4672 0.950 . S
C4696 C4691 1.363 . S
C4696 C4695 1.415 . S
C4697 H4673 0.951 . S
C4697 C4698 1.366 . S
C4697 C4699 1.388 . S
C4698 C4697 1.366 . S
C4698 C4702 1.385 . S
C4699 H4674 0.951 . S
C4699 C4697 1.388 . S
C4699 C4700 1.366 . S
C4700 C4699 1.366 . S
C4700 C4701 1.414 . S
C4700 C4703 1.499 . S
C4701 H4675 0.950 . S
C4701 C4700 1.414 . S
C4701 C4702 1.374 . S
C4702 H4676 0.950 . S
C4702 C4698 1.385 . S
C4702 C4701 1.374 . S
C4703 C4700 1.499 . S
C4703 C4704 1.373 . S
C4703 C4705 1.389 . S
C4704 H4677 0.950 . S
C4704 C4690 1.377 . S
C4704 C4703 1.373 . S
C4705 C4689 1.377 . S
C4705 C4703 1.389 . S
C4705 C4706 1.524 . S
C4706 C4705 1.524 . S
C4706 C4707 1.397 . S
C4706 C4711 1.363 . S
C4707 H4678 0.950 . S
C4707 C4706 1.397 . S
C4707 C4708 1.334 . S
C4708 H4679 0.950 . S
C4708 C4707 1.334 . S
C4708 C4709 1.287 . S
C4709 C4708 1.287 . S
C4709 C4710 1.524 . S
C4709 H4712 0.999 . S
C4710 H4680 0.950 . S
C4710 C4709 1.524 . S
C4710 C4711 1.415 . S
C4711 H4681 0.950 . S
C4711 C4706 1.363 . S
C4711 C4710 1.415 . S
H4712 C4709 0.999 . S
H4713 C4694 0.913 . S
H4714 C4732 0.951 . S
H4715 C4734 0.951 . S
H4716 C4736 0.950 . S
H4717 C4737 0.950 . S
H4718 C4739 0.950 . S
H4719 C4742 0.950 . S
H4720 C4743 0.950 . S
H4721 C4745 0.950 . S
H4722 C4746 0.950 . S
H4723 C4747 0.951 . S
H4724 C4749 0.951 . S
H4725 C4751 0.950 . S
H4726 C4752 0.950 . S
H4727 C4754 0.950 . S
H4728 C4757 0.950 . S
H4729 C4758 0.950 . S
H4730 C4760 0.950 . S
H4731 C4761 0.950 . S
C4732 H4714 0.951 . S
C4732 C4733 1.366 . S
C4732 C4734 1.388 . S
C4733 C4732 1.366 . S
C4733 C4737 1.385 . S
C4734 H4715 0.951 . S
C4734 C4732 1.388 . S
C4734 C4735 1.366 . S
C4735 C4734 1.366 . S
C4735 C4736 1.414 . S
C4735 C4738 1.499 . S
C4736 H4716 0.950 . S
C4736 C4735 1.414 . S
C4736 C4737 1.374 . S
C4737 H4717 0.950 . S
C4737 C4733 1.385 . S
C4737 C4736 1.374 . S
C4738 C4735 1.499 . S
C4738 C4739 1.373 . S
C4738 C4740 1.389 . S
C4739 H4718 0.950 . S
C4739 C4738 1.373 . S
C4739 C4755 1.377 . S
C4740 C4738 1.389 . S
C4740 C4741 1.524 . S
C4740 C4754 1.377 . S
C4741 C4740 1.524 . S
C4741 C4742 1.397 . S
C4741 C4746 1.363 . S
C4742 H4719 0.950 . S
C4742 C4741 1.397 . S
C4742 C4743 1.334 . S
C4743 H4720 0.950 . S
C4743 C4742 1.334 . S
C4743 C4744 1.287 . S
C4744 C4743 1.287 . S
C4744 C4745 1.524 . S
C4744 H4763 0.913 . S
C4745 H4721 0.950 . S
C4745 C4744 1.524 . S
C4745 C4746 1.415 . S
C4746 H4722 0.950 . S
C4746 C4741 1.363 . S
C4746 C4745 1.415 . S
C4747 H4723 0.951 . S
C4747 C4748 1.366 . S
C4747 C4749 1.388 . S
C4748 C4747 1.366 . S
C4748 C4752 1.385 . S
C4749 H4724 0.951 . S
C4749 C4747 1.388 . S
C4749 C4750 1.366 . S
C4750 C4749 1.366 . S
C4750 C4751 1.414 . S
C4750 C4753 1.499 . S
C4751 H4725 0.950 . S
C4751 C4750 1.414 . S
C4751 C4752 1.374 . S
C4752 H4726 0.950 . S
C4752 C4748 1.385 . S
C4752 C4751 1.374 . S
C4753 C4750 1.499 . S
C4753 C4754 1.373 . S
C4753 C4755 1.389 . S
C4754 H4727 0.950 . S
C4754 C4740 1.377 . S
C4754 C4753 1.373 . S
C4755 C4739 1.377 . S
C4755 C4753 1.389 . S
C4755 C4756 1.524 . S
C4756 C4755 1.524 . S
C4756 C4757 1.397 . S
C4756 C4761 1.363 . S
C4757 H4728 0.950 . S
C4757 C4756 1.397 . S
C4757 C4758 1.334 . S
C4758 H4729 0.950 . S
C4758 C4757 1.334 . S
C4758 C4759 1.287 . S
C4759 C4758 1.287 . S
C4759 C4760 1.524 . S
C4759 H4762 0.999 . S
C4760 H4730 0.950 . S
C4760 C4759 1.524 . S
C4760 C4761 1.415 . S
C4761 H4731 0.950 . S
C4761 C4756 1.363 . S
C4761 C4760 1.415 . S
H4762 C4759 0.999 . S
H4763 C4744 0.913 . S
H4764 C4782 0.951 . S
H4765 C4784 0.951 . S
H4766 C4786 0.897 1_565 S
H4767 C4787 0.950 . S
H4768 C4789 0.950 . S
H4769 C4792 0.950 . S
H4770 C4793 0.950 . S
H4771 C4795 0.950 . S
H4772 C4796 0.950 . S
H4773 C4797 0.951 . S
H4774 C4799 0.951 . S
H4775 C4801 0.950 . S
H4776 C4802 0.950 . S
H4777 C4804 0.950 . S
H4778 C4807 0.950 . S
H4779 C4808 0.950 . S
H4780 C4810 0.950 . S
H4781 C4811 0.950 . S
C4782 H4764 0.951 . S
C4782 C4783 1.366 . S
C4782 C4784 1.388 . S
C4783 C4782 1.366 . S
C4783 C4787 1.385 . S
C4784 H4765 0.951 . S
C4784 C4782 1.388 . S
C4784 C4785 1.366 . S
C4785 C4784 1.366 . S
C4785 C4786 1.414 . S
C4785 C4788 1.499 . S
C4786 H4766 0.897 1_545 S
C4786 C4785 1.414 . S
C4786 C4787 1.374 . S
C4787 H4767 0.950 . S
C4787 C4783 1.385 . S
C4787 C4786 1.374 . S
C4788 C4785 1.499 . S
C4788 C4789 1.373 . S
C4788 C4790 1.389 . S
C4789 H4768 0.950 . S
C4789 C4788 1.373 . S
C4789 C4805 1.377 . S
C4790 C4788 1.389 . S
C4790 C4791 1.524 . S
C4790 C4804 1.377 . S
C4791 C4790 1.524 . S
C4791 C4792 1.397 . S
C4791 C4796 1.363 . S
C4792 H4769 0.950 . S
C4792 C4791 1.397 . S
C4792 C4793 1.334 . S
C4793 H4770 0.950 . S
C4793 C4792 1.334 . S
C4793 C4794 1.287 . S
C4794 C4793 1.287 . S
C4794 C4795 1.524 . S
C4794 H4813 0.913 . S
C4795 H4771 0.950 . S
C4795 C4794 1.524 . S
C4795 C4796 1.415 . S
C4796 H4772 0.950 . S
C4796 C4791 1.363 . S
C4796 C4795 1.415 . S
C4797 H4773 0.951 . S
C4797 C4798 1.366 1_565 S
C4797 C4799 1.388 . S
C4798 C4797 1.366 1_545 S
C4798 C4802 1.385 . S
C4799 H4774 0.951 . S
C4799 C4797 1.388 . S
C4799 C4800 1.366 1_565 S
C4800 C4799 1.366 1_545 S
C4800 C4801 1.414 . S
C4800 C4803 1.499 . S
C4801 H4775 0.950 . S
C4801 C4800 1.414 . S
C4801 C4802 1.374 . S
C4802 H4776 0.950 . S
C4802 C4798 1.385 . S
C4802 C4801 1.374 . S
C4803 C4800 1.499 . S
C4803 C4804 1.373 . S
C4803 C4805 1.389 . S
C4804 H4777 0.950 . S
C4804 C4790 1.377 . S
C4804 C4803 1.373 . S
C4805 C4789 1.377 . S
C4805 C4803 1.389 . S
C4805 C4806 1.524 . S
C4806 C4805 1.524 . S
C4806 C4807 1.397 . S
C4806 C4811 1.363 1_545 S
C4807 H4778 0.950 . S
C4807 C4806 1.397 . S
C4807 C4808 1.334 . S
C4808 H4779 0.950 . S
C4808 C4807 1.334 . S
C4808 C4809 1.287 1_545 S
C4809 C4808 1.287 1_565 S
C4809 C4810 1.524 . S
C4809 H4812 0.999 . S
C4810 H4780 0.950 . S
C4810 C4809 1.524 . S
C4810 C4811 1.415 . S
C4811 H4781 0.950 . S
C4811 C4806 1.363 1_565 S
C4811 C4810 1.415 . S
H4812 C4809 0.999 . S
H4813 C4794 0.913 . S
H4814 C4832 0.951 . S
H4815 C4834 0.951 . S
H4816 C4836 0.921 1_455 S
H4817 C4837 0.950 . S
H4818 C4839 1.000 . S
H4819 C4842 0.950 . S
H4820 C4843 0.950 . S
H4821 C4845 0.950 . S
H4822 C4846 0.950 . S
H4823 C4847 0.951 . S
H4824 C4849 0.951 . S
H4825 C4851 0.950 . S
H4826 C4852 0.950 . S
H4827 C4854 0.950 . S
H4828 C4857 0.950 1_655 S
H4829 C4858 0.950 . S
H4830 C4860 0.950 . S
H4831 C4861 0.950 . S
C4832 H4814 0.951 . S
C4832 C4833 1.366 . S
C4832 C4834 1.388 . S
C4833 C4832 1.366 . S
C4833 C4837 1.385 . S
C4834 H4815 0.951 . S
C4834 C4832 1.388 . S
C4834 C4835 1.366 . S
C4835 C4834 1.366 . S
C4835 C4836 1.414 . S
C4835 C4838 1.499 . S
C4836 H4816 0.921 1_655 S
C4836 C4835 1.414 . S
C4836 C4837 1.374 . S
C4837 H4817 0.950 . S
C4837 C4833 1.385 . S
C4837 C4836 1.374 . S
C4838 C4835 1.499 . S
C4838 C4839 1.373 . S
C4838 C4840 1.389 . S
C4839 H4818 1.000 . S
C4839 C4838 1.373 . S
C4839 C4855 1.377 . S
C4840 C4838 1.389 . S
C4840 C4841 1.524 . S
C4840 C4854 1.377 . S
C4841 C4840 1.524 . S
C4841 C4842 1.397 . S
C4841 C4846 1.363 . S
C4842 H4819 0.950 . S
C4842 C4841 1.397 . S
C4842 C4843 1.334 . S
C4843 H4820 0.950 . S
C4843 C4842 1.334 . S
C4843 C4844 1.287 . S
C4844 C4843 1.287 . S
C4844 C4845 1.524 . S
C4844 H4863 0.913 . S
C4845 H4821 0.950 . S
C4845 C4844 1.524 . S
C4845 C4846 1.415 . S
C4846 H4822 0.950 . S
C4846 C4841 1.363 . S
C4846 C4845 1.415 . S
C4847 H4823 0.951 . S
C4847 C4848 1.366 1_455 S
C4847 C4849 1.388 . S
C4848 C4847 1.366 1_655 S
C4848 C4852 1.385 . S
C4849 H4824 0.951 . S
C4849 C4847 1.388 . S
C4849 C4850 1.366 1_455 S
C4850 C4849 1.366 1_655 S
C4850 C4851 1.414 . S
C4850 C4853 1.499 . S
C4851 H4825 0.950 . S
C4851 C4850 1.414 . S
C4851 C4852 1.374 . S
C4852 H4826 0.950 . S
C4852 C4848 1.385 . S
C4852 C4851 1.374 . S
C4853 C4850 1.499 . S
C4853 C4854 1.373 . S
C4853 C4855 1.389 . S
C4854 H4827 0.950 . S
C4854 C4840 1.377 . S
C4854 C4853 1.373 . S
C4855 C4839 1.377 . S
C4855 C4853 1.389 . S
C4855 C4856 1.524 1_655 S
C4856 C4855 1.524 1_455 S
C4856 C4857 1.397 . S
C4856 C4861 1.363 . S
C4857 H4828 0.950 1_455 S
C4857 C4856 1.397 . S
C4857 C4858 1.334 . S
C4858 H4829 0.950 . S
C4858 C4857 1.334 . S
C4858 C4859 1.287 . S
C4859 C4858 1.287 . S
C4859 C4860 1.524 . S
C4859 H4862 0.999 . S
C4860 H4830 0.950 . S
C4860 C4859 1.524 . S
C4860 C4861 1.415 . S
C4861 H4831 0.950 . S
C4861 C4856 1.363 . S
C4861 C4860 1.415 . S
H4862 C4859 0.999 . S
H4863 C4844 0.913 . S
H4864 C4882 0.951 . S
H4865 C4884 0.951 . S
H4866 C4886 0.950 . S
H4867 C4887 0.950 . S
H4868 C4889 0.950 . S
H4869 C4892 0.950 . S
H4870 C4893 0.950 . S
H4871 C4895 0.950 . S
H4872 C4896 0.950 . S
H4873 C4897 0.951 . S
H4874 C4899 0.951 . S
H4875 C4901 0.950 . S
H4876 C4902 0.950 . S
H4877 C4904 0.950 . S
H4878 C4907 0.950 . S
H4879 C4908 0.950 . S
H4880 C4910 0.950 . S
H4881 C4911 0.950 . S
C4882 H4864 0.951 . S
C4882 C4883 1.366 . S
C4882 C4884 1.388 . S
C4883 C4882 1.366 . S
C4883 C4887 1.385 . S
C4884 H4865 0.951 . S
C4884 C4882 1.388 . S
C4884 C4885 1.366 . S
C4885 C4884 1.366 . S
C4885 C4886 1.414 . S
C4885 C4888 1.499 . S
C4886 H4866 0.950 . S
C4886 C4885 1.414 . S
C4886 C4887 1.374 . S
C4887 H4867 0.950 . S
C4887 C4883 1.385 . S
C4887 C4886 1.374 . S
C4888 C4885 1.499 . S
C4888 C4889 1.373 . S
C4888 C4890 1.389 . S
C4889 H4868 0.950 . S
C4889 C4888 1.373 . S
C4889 C4905 1.377 . S
C4890 C4888 1.389 . S
C4890 C4891 1.524 . S
C4890 C4904 1.377 . S
C4891 C4890 1.524 . S
C4891 C4892 1.397 . S
C4891 C4896 1.363 . S
C4892 H4869 0.950 . S
C4892 C4891 1.397 . S
C4892 C4893 1.334 . S
C4893 H4870 0.950 . S
C4893 C4892 1.334 . S
C4893 C4894 1.287 . S
C4894 C4893 1.287 . S
C4894 C4895 1.524 . S
C4894 H4913 0.913 . S
C4895 H4871 0.950 . S
C4895 C4894 1.524 . S
C4895 C4896 1.415 . S
C4896 H4872 0.950 . S
C4896 C4891 1.363 . S
C4896 C4895 1.415 . S
C4897 H4873 0.951 . S
C4897 C4898 1.366 . S
C4897 C4899 1.388 . S
C4898 C4897 1.366 . S
C4898 C4902 1.385 . S
C4899 H4874 0.951 . S
C4899 C4897 1.388 . S
C4899 C4900 1.366 . S
C4900 C4899 1.366 . S
C4900 C4901 1.414 . S
C4900 C4903 1.499 . S
C4901 H4875 0.950 . S
C4901 C4900 1.414 . S
C4901 C4902 1.374 . S
C4902 H4876 0.950 . S
C4902 C4898 1.385 . S
C4902 C4901 1.374 . S
C4903 C4900 1.499 . S
C4903 C4904 1.373 . S
C4903 C4905 1.389 . S
C4904 H4877 0.950 . S
C4904 C4890 1.377 . S
C4904 C4903 1.373 . S
C4905 C4889 1.377 . S
C4905 C4903 1.389 . S
C4905 C4906 1.524 . S
C4906 C4905 1.524 . S
C4906 C4907 1.397 . S
C4906 C4911 1.363 . S
C4907 H4878 0.950 . S
C4907 C4906 1.397 . S
C4907 C4908 1.334 . S
C4908 H4879 0.950 . S
C4908 C4907 1.334 . S
C4908 C4909 1.287 . S
C4909 C4908 1.287 . S
C4909 C4910 1.524 . S
C4909 H4912 0.999 . S
C4910 H4880 0.950 . S
C4910 C4909 1.524 . S
C4910 C4911 1.415 . S
C4911 H4881 0.950 . S
C4911 C4906 1.363 . S
C4911 C4910 1.415 . S
H4912 C4909 0.999 . S
H4913 C4894 0.913 . S
H4914 C4932 0.951 . S
H4915 C4934 0.951 . S
H4916 C4936 0.950 . S
H4917 C4937 0.950 . S
H4918 C4939 0.950 . S
H4919 C4942 0.950 . S
H4920 C4943 0.950 . S
H4921 C4945 0.950 . S
H4922 C4946 0.950 . S
H4923 C4947 0.951 . S
H4924 C4949 0.951 . S
H4925 C4951 0.950 . S
H4926 C4952 0.950 . S
H4927 C4954 0.950 . S
H4928 C4957 0.950 . S
H4929 C4958 0.950 . S
H4930 C4960 0.950 . S
H4931 C4961 0.950 . S
C4932 H4914 0.951 . S
C4932 C4933 1.366 . S
C4932 C4934 1.388 . S
C4933 C4932 1.366 . S
C4933 C4937 1.385 . S
C4934 H4915 0.951 . S
C4934 C4932 1.388 . S
C4934 C4935 1.366 . S
C4935 C4934 1.366 . S
C4935 C4936 1.414 . S
C4935 C4938 1.499 . S
C4936 H4916 0.950 . S
C4936 C4935 1.414 . S
C4936 C4937 1.374 . S
C4937 H4917 0.950 . S
C4937 C4933 1.385 . S
C4937 C4936 1.374 . S
C4938 C4935 1.499 . S
C4938 C4939 1.373 . S
C4938 C4940 1.389 . S
C4939 H4918 0.950 . S
C4939 C4938 1.373 . S
C4939 C4955 1.377 . S
C4940 C4938 1.389 . S
C4940 C4941 1.524 . S
C4940 C4954 1.377 . S
C4941 C4940 1.524 . S
C4941 C4942 1.397 . S
C4941 C4946 1.363 . S
C4942 H4919 0.950 . S
C4942 C4941 1.397 . S
C4942 C4943 1.334 . S
C4943 H4920 0.950 . S
C4943 C4942 1.334 . S
C4943 C4944 1.287 . S
C4944 C4943 1.287 . S
C4944 C4945 1.524 . S
C4944 H4963 0.913 . S
C4945 H4921 0.950 . S
C4945 C4944 1.524 . S
C4945 C4946 1.415 . S
C4946 H4922 0.950 . S
C4946 C4941 1.363 . S
C4946 C4945 1.415 . S
C4947 H4923 0.951 . S
C4947 C4948 1.366 . S
C4947 C4949 1.388 . S
C4948 C4947 1.366 . S
C4948 C4952 1.385 . S
C4949 H4924 0.951 . S
C4949 C4947 1.388 . S
C4949 C4950 1.366 . S
C4950 C4949 1.366 . S
C4950 C4951 1.414 . S
C4950 C4953 1.499 . S
C4951 H4925 0.950 . S
C4951 C4950 1.414 . S
C4951 C4952 1.374 . S
C4952 H4926 0.950 . S
C4952 C4948 1.385 . S
C4952 C4951 1.374 . S
C4953 C4950 1.499 . S
C4953 C4954 1.373 . S
C4953 C4955 1.389 . S
C4954 H4927 0.950 . S
C4954 C4940 1.377 . S
C4954 C4953 1.373 . S
C4955 C4939 1.377 . S
C4955 C4953 1.389 . S
C4955 C4956 1.524 . S
C4956 C4955 1.524 . S
C4956 C4957 1.397 . S
C4956 C4961 1.363 . S
C4957 H4928 0.950 . S
C4957 C4956 1.397 . S
C4957 C4958 1.334 . S
C4958 H4929 0.950 . S
C4958 C4957 1.334 . S
C4958 C4959 1.287 . S
C4959 C4958 1.287 . S
C4959 C4960 1.524 . S
C4959 H4962 0.999 . S
C4960 H4930 0.950 . S
C4960 C4959 1.524 . S
C4960 C4961 1.415 . S
C4961 H4931 0.950 . S
C4961 C4956 1.363 . S
C4961 C4960 1.415 . S
H4962 C4959 0.999 . S
H4963 C4944 0.913 . S
H4964 C4982 0.951 . S
H4965 C4984 0.951 . S
H4966 C4986 0.950 . S
H4967 C4987 0.950 . S
H4968 C4989 0.950 . S
H4969 C4992 0.950 . S
H4970 C4993 0.950 . S
H4971 C4995 0.950 . S
H4972 C4996 0.950 . S
H4973 C4997 0.951 . S
H4974 C4999 0.951 . S
H4975 C5001 0.950 . S
H4976 C5002 0.950 . S
H4977 C5004 0.950 . S
H4978 C5007 0.950 . S
H4979 C5008 0.950 . S
H4980 C5010 0.950 . S
H4981 C5011 0.950 . S
C4982 H4964 0.951 . S
C4982 C4983 1.366 . S
C4982 C4984 1.388 . S
C4983 C4982 1.366 . S
C4983 C4987 1.385 . S
C4984 H4965 0.951 . S
C4984 C4982 1.388 . S
C4984 C4985 1.366 . S
C4985 C4984 1.366 . S
C4985 C4986 1.414 . S
C4985 C4988 1.499 . S
C4986 H4966 0.950 . S
C4986 C4985 1.414 . S
C4986 C4987 1.374 . S
C4987 H4967 0.950 . S
C4987 C4983 1.385 . S
C4987 C4986 1.374 . S
C4988 C4985 1.499 . S
C4988 C4989 1.373 . S
C4988 C4990 1.389 . S
C4989 H4968 0.950 . S
C4989 C4988 1.373 . S
C4989 C5005 1.377 . S
C4990 C4988 1.389 . S
C4990 C4991 1.524 . S
C4990 C5004 1.377 . S
C4991 C4990 1.524 . S
C4991 C4992 1.397 . S
C4991 C4996 1.363 . S
C4992 H4969 0.950 . S
C4992 C4991 1.397 . S
C4992 C4993 1.334 . S
C4993 H4970 0.950 . S
C4993 C4992 1.334 . S
C4993 C4994 1.287 . S
C4994 C4993 1.287 . S
C4994 C4995 1.524 . S
C4994 H5013 0.913 . S
C4995 H4971 0.950 . S
C4995 C4994 1.524 . S
C4995 C4996 1.415 . S
C4996 H4972 0.950 . S
C4996 C4991 1.363 . S
C4996 C4995 1.415 . S
C4997 H4973 0.951 . S
C4997 C4998 1.366 . S
C4997 C4999 1.388 . S
C4998 C4997 1.366 . S
C4998 C5002 1.385 . S
C4999 H4974 0.951 . S
C4999 C4997 1.388 . S
C4999 C5000 1.366 . S
C5000 C4999 1.366 . S
C5000 C5001 1.414 . S
C5000 C5003 1.499 . S
C5001 H4975 0.950 . S
C5001 C5000 1.414 . S
C5001 C5002 1.374 . S
C5002 H4976 0.950 . S
C5002 C4998 1.385 . S
C5002 C5001 1.374 . S
C5003 C5000 1.499 . S
C5003 C5004 1.373 . S
C5003 C5005 1.389 . S
C5004 H4977 0.950 . S
C5004 C4990 1.377 . S
C5004 C5003 1.373 . S
C5005 C4989 1.377 . S
C5005 C5003 1.389 . S
C5005 C5006 1.524 . S
C5006 C5005 1.524 . S
C5006 C5007 1.397 . S
C5006 C5011 1.363 . S
C5007 H4978 0.950 . S
C5007 C5006 1.397 . S
C5007 C5008 1.334 . S
C5008 H4979 0.950 . S
C5008 C5007 1.334 . S
C5008 C5009 1.287 . S
C5009 C5008 1.287 . S
C5009 C5010 1.524 . S
C5009 H5012 0.999 . S
C5010 H4980 0.950 . S
C5010 C5009 1.524 . S
C5010 C5011 1.415 . S
C5011 H4981 0.950 . S
C5011 C5006 1.363 . S
C5011 C5010 1.415 . S
H5012 C5009 0.999 . S
H5013 C4994 0.913 . S
H5014 C5032 0.951 . S
H5015 C5034 0.951 . S
H5016 C5036 0.950 . S
H5017 C5037 0.950 . S
H5018 C5039 0.950 . S
H5019 C5042 0.950 . S
H5020 C5043 0.950 . S
H5021 C5045 0.950 . S
H5022 C5046 0.950 . S
H5023 C5047 0.951 . S
H5024 C5049 0.951 . S
H5025 C5051 0.950 . S
H5026 C5052 0.950 . S
H5027 C5054 0.950 . S
H5028 C5057 0.950 . S
H5029 C5058 0.950 . S
H5030 C5060 0.950 . S
H5031 C5061 0.950 . S
C5032 H5014 0.951 . S
C5032 C5033 1.366 . S
C5032 C5034 1.388 . S
C5033 C5032 1.366 . S
C5033 C5037 1.385 . S
C5034 H5015 0.951 . S
C5034 C5032 1.388 . S
C5034 C5035 1.366 . S
C5035 C5034 1.366 . S
C5035 C5036 1.414 . S
C5035 C5038 1.499 . S
C5036 H5016 0.950 . S
C5036 C5035 1.414 . S
C5036 C5037 1.374 . S
C5037 H5017 0.950 . S
C5037 C5033 1.385 . S
C5037 C5036 1.374 . S
C5038 C5035 1.499 . S
C5038 C5039 1.373 . S
C5038 C5040 1.389 . S
C5039 H5018 0.950 . S
C5039 C5038 1.373 . S
C5039 C5055 1.377 . S
C5040 C5038 1.389 . S
C5040 C5041 1.524 . S
C5040 C5054 1.377 . S
C5041 C5040 1.524 . S
C5041 C5042 1.397 . S
C5041 C5046 1.363 . S
C5042 H5019 0.950 . S
C5042 C5041 1.397 . S
C5042 C5043 1.334 . S
C5043 H5020 0.950 . S
C5043 C5042 1.334 . S
C5043 C5044 1.287 . S
C5044 C5043 1.287 . S
C5044 C5045 1.524 . S
C5044 H5063 0.913 . S
C5045 H5021 0.950 . S
C5045 C5044 1.524 . S
C5045 C5046 1.415 . S
C5046 H5022 0.950 . S
C5046 C5041 1.363 . S
C5046 C5045 1.415 . S
C5047 H5023 0.951 . S
C5047 C5048 1.366 . S
C5047 C5049 1.388 . S
C5048 C5047 1.366 . S
C5048 C5052 1.385 . S
C5049 H5024 0.951 . S
C5049 C5047 1.388 . S
C5049 C5050 1.366 . S
C5050 C5049 1.366 . S
C5050 C5051 1.414 . S
C5050 C5053 1.499 . S
C5051 H5025 0.950 . S
C5051 C5050 1.414 . S
C5051 C5052 1.374 . S
C5052 H5026 0.950 . S
C5052 C5048 1.385 . S
C5052 C5051 1.374 . S
C5053 C5050 1.499 . S
C5053 C5054 1.373 . S
C5053 C5055 1.389 . S
C5054 H5027 0.950 . S
C5054 C5040 1.377 . S
C5054 C5053 1.373 . S
C5055 C5039 1.377 . S
C5055 C5053 1.389 . S
C5055 C5056 1.524 . S
C5056 C5055 1.524 . S
C5056 C5057 1.397 . S
C5056 C5061 1.363 . S
C5057 H5028 0.950 . S
C5057 C5056 1.397 . S
C5057 C5058 1.334 . S
C5058 H5029 0.950 . S
C5058 C5057 1.334 . S
C5058 C5059 1.287 . S
C5059 C5058 1.287 . S
C5059 C5060 1.524 . S
C5059 H5062 0.999 . S
C5060 H5030 0.950 . S
C5060 C5059 1.524 . S
C5060 C5061 1.415 . S
C5061 H5031 0.950 . S
C5061 C5056 1.363 . S
C5061 C5060 1.415 . S
H5062 C5059 0.999 . S
H5063 C5044 0.913 . S
H5064 C5082 0.951 . S
H5065 C5084 0.951 . S
H5066 C5086 0.950 . S
H5067 C5087 0.950 . S
H5068 C5089 0.950 . S
H5069 C5092 0.950 . S
H5070 C5093 0.950 . S
H5071 C5095 0.950 . S
H5072 C5096 0.950 . S
H5073 C5097 0.951 . S
H5074 C5099 0.951 . S
H5075 C5101 0.950 . S
H5076 C5102 0.950 . S
H5077 C5104 0.950 . S
H5078 C5107 0.950 . S
H5079 C5108 0.950 . S
H5080 C5110 0.950 . S
H5081 C5111 0.950 . S
C5082 H5064 0.951 . S
C5082 C5083 1.366 . S
C5082 C5084 1.388 . S
C5083 C5082 1.366 . S
C5083 C5087 1.385 . S
C5084 H5065 0.951 . S
C5084 C5082 1.388 . S
C5084 C5085 1.366 . S
C5085 C5084 1.366 . S
C5085 C5086 1.414 . S
C5085 C5088 1.499 . S
C5086 H5066 0.950 . S
C5086 C5085 1.414 . S
C5086 C5087 1.374 . S
C5087 H5067 0.950 . S
C5087 C5083 1.385 . S
C5087 C5086 1.374 . S
C5088 C5085 1.499 . S
C5088 C5089 1.373 . S
C5088 C5090 1.389 . S
C5089 H5068 0.950 . S
C5089 C5088 1.373 . S
C5089 C5105 1.377 . S
C5090 C5088 1.389 . S
C5090 C5091 1.524 . S
C5090 C5104 1.377 . S
C5091 C5090 1.524 . S
C5091 C5092 1.397 . S
C5091 C5096 1.363 . S
C5092 H5069 0.950 . S
C5092 C5091 1.397 . S
C5092 C5093 1.334 . S
C5093 H5070 0.950 . S
C5093 C5092 1.334 . S
C5093 C5094 1.287 . S
C5094 C5093 1.287 . S
C5094 C5095 1.524 . S
C5094 H5113 0.913 . S
C5095 H5071 0.950 . S
C5095 C5094 1.524 . S
C5095 C5096 1.415 . S
C5096 H5072 0.950 . S
C5096 C5091 1.363 . S
C5096 C5095 1.415 . S
C5097 H5073 0.951 . S
C5097 C5098 1.366 . S
C5097 C5099 1.388 . S
C5098 C5097 1.366 . S
C5098 C5102 1.385 . S
C5099 H5074 0.951 . S
C5099 C5097 1.388 . S
C5099 C5100 1.366 . S
C5100 C5099 1.366 . S
C5100 C5101 1.414 . S
C5100 C5103 1.499 . S
C5101 H5075 0.950 . S
C5101 C5100 1.414 . S
C5101 C5102 1.374 . S
C5102 H5076 0.950 . S
C5102 C5098 1.385 . S
C5102 C5101 1.374 . S
C5103 C5100 1.499 . S
C5103 C5104 1.373 . S
C5103 C5105 1.389 . S
C5104 H5077 0.950 . S
C5104 C5090 1.377 . S
C5104 C5103 1.373 . S
C5105 C5089 1.377 . S
C5105 C5103 1.389 . S
C5105 C5106 1.524 . S
C5106 C5105 1.524 . S
C5106 C5107 1.397 . S
C5106 C5111 1.363 . S
C5107 H5078 0.950 . S
C5107 C5106 1.397 . S
C5107 C5108 1.334 . S
C5108 H5079 0.950 . S
C5108 C5107 1.334 . S
C5108 C5109 1.287 . S
C5109 C5108 1.287 . S
C5109 C5110 1.524 . S
C5109 H5112 0.999 . S
C5110 H5080 0.950 . S
C5110 C5109 1.524 . S
C5110 C5111 1.415 . S
C5111 H5081 0.950 . S
C5111 C5106 1.363 . S
C5111 C5110 1.415 . S
H5112 C5109 0.999 . S
H5113 C5094 0.913 . S
H5114 C5132 0.951 . S
H5115 C5134 0.951 . S
H5116 C5136 0.950 . S
H5117 C5137 0.950 . S
H5118 C5139 0.950 . S
H5119 C5142 0.950 . S
H5120 C5143 0.950 . S
H5121 C5145 0.950 . S
H5122 C5146 0.950 . S
H5123 C5147 0.951 . S
H5124 C5149 0.951 . S
H5125 C5151 0.950 . S
H5126 C5152 0.950 . S
H5127 C5154 0.950 . S
H5128 C5157 0.950 . S
H5129 C5158 0.950 . S
H5130 C5160 0.950 . S
H5131 C5161 0.950 . S
C5132 H5114 0.951 . S
C5132 C5133 1.366 . S
C5132 C5134 1.388 . S
C5133 C5132 1.366 . S
C5133 C5137 1.385 . S
C5134 H5115 0.951 . S
C5134 C5132 1.388 . S
C5134 C5135 1.366 . S
C5135 C5134 1.366 . S
C5135 C5136 1.414 . S
C5135 C5138 1.499 . S
C5136 H5116 0.950 . S
C5136 C5135 1.414 . S
C5136 C5137 1.374 . S
C5137 H5117 0.950 . S
C5137 C5133 1.385 . S
C5137 C5136 1.374 . S
C5138 C5135 1.499 . S
C5138 C5139 1.373 . S
C5138 C5140 1.389 . S
C5139 H5118 0.950 . S
C5139 C5138 1.373 . S
C5139 C5155 1.377 . S
C5140 C5138 1.389 . S
C5140 C5141 1.524 . S
C5140 C5154 1.377 . S
C5141 C5140 1.524 . S
C5141 C5142 1.397 . S
C5141 C5146 1.363 . S
C5142 H5119 0.950 . S
C5142 C5141 1.397 . S
C5142 C5143 1.334 . S
C5143 H5120 0.950 . S
C5143 C5142 1.334 . S
C5143 C5144 1.287 . S
C5144 C5143 1.287 . S
C5144 C5145 1.524 . S
C5144 H5163 0.913 . S
C5145 H5121 0.950 . S
C5145 C5144 1.524 . S
C5145 C5146 1.415 . S
C5146 H5122 0.950 . S
C5146 C5141 1.363 . S
C5146 C5145 1.415 . S
C5147 H5123 0.951 . S
C5147 C5148 1.366 . S
C5147 C5149 1.388 . S
C5148 C5147 1.366 . S
C5148 C5152 1.385 . S
C5149 H5124 0.951 . S
C5149 C5147 1.388 . S
C5149 C5150 1.366 . S
C5150 C5149 1.366 . S
C5150 C5151 1.414 . S
C5150 C5153 1.499 . S
C5151 H5125 0.950 . S
C5151 C5150 1.414 . S
C5151 C5152 1.374 . S
C5152 H5126 0.950 . S
C5152 C5148 1.385 . S
C5152 C5151 1.374 . S
C5153 C5150 1.499 . S
C5153 C5154 1.373 . S
C5153 C5155 1.389 . S
C5154 H5127 0.950 . S
C5154 C5140 1.377 . S
C5154 C5153 1.373 . S
C5155 C5139 1.377 . S
C5155 C5153 1.389 . S
C5155 C5156 1.524 . S
C5156 C5155 1.524 . S
C5156 C5157 1.397 . S
C5156 C5161 1.363 . S
C5157 H5128 0.950 . S
C5157 C5156 1.397 . S
C5157 C5158 1.334 . S
C5158 H5129 0.950 . S
C5158 C5157 1.334 . S
C5158 C5159 1.287 . S
C5159 C5158 1.287 . S
C5159 C5160 1.524 . S
C5159 H5162 0.999 . S
C5160 H5130 0.950 . S
C5160 C5159 1.524 . S
C5160 C5161 1.415 . S
C5161 H5131 0.950 . S
C5161 C5156 1.363 . S
C5161 C5160 1.415 . S
H5162 C5159 0.999 . S
H5163 C5144 0.913 . S
H5164 C5182 0.951 . S
H5165 C5184 0.951 . S
H5166 C5186 0.950 . S
H5167 C5187 0.950 . S
H5168 C5189 0.950 . S
H5169 C5192 0.950 . S
H5170 C5193 0.950 . S
H5171 C5195 0.950 . S
H5172 C5196 0.950 . S
H5173 C5197 0.951 . S
H5174 C5199 0.951 . S
H5175 C5201 0.950 . S
H5176 C5202 0.950 . S
H5177 C5204 0.950 . S
H5178 C5207 0.950 . S
H5179 C5208 0.950 . S
H5180 C5210 0.950 . S
H5181 C5211 0.950 . S
C5182 H5164 0.951 . S
C5182 C5183 1.366 . S
C5182 C5184 1.388 . S
C5183 C5182 1.366 . S
C5183 C5187 1.385 . S
C5184 H5165 0.951 . S
C5184 C5182 1.388 . S
C5184 C5185 1.366 . S
C5185 C5184 1.366 . S
C5185 C5186 1.414 . S
C5185 C5188 1.499 . S
C5186 H5166 0.950 . S
C5186 C5185 1.414 . S
C5186 C5187 1.374 . S
C5187 H5167 0.950 . S
C5187 C5183 1.385 . S
C5187 C5186 1.374 . S
C5188 C5185 1.499 . S
C5188 C5189 1.373 . S
C5188 C5190 1.389 . S
C5189 H5168 0.950 . S
C5189 C5188 1.373 . S
C5189 C5205 1.377 . S
C5190 C5188 1.389 . S
C5190 C5191 1.524 . S
C5190 C5204 1.377 . S
C5191 C5190 1.524 . S
C5191 C5192 1.397 . S
C5191 C5196 1.363 . S
C5192 H5169 0.950 . S
C5192 C5191 1.397 . S
C5192 C5193 1.334 . S
C5193 H5170 0.950 . S
C5193 C5192 1.334 . S
C5193 C5194 1.287 . S
C5194 C5193 1.287 . S
C5194 C5195 1.524 . S
C5194 H5213 0.913 . S
C5195 H5171 0.950 . S
C5195 C5194 1.524 . S
C5195 C5196 1.415 . S
C5196 H5172 0.950 . S
C5196 C5191 1.363 . S
C5196 C5195 1.415 . S
C5197 H5173 0.951 . S
C5197 C5198 1.366 . S
C5197 C5199 1.388 . S
C5198 C5197 1.366 . S
C5198 C5202 1.385 . S
C5199 H5174 0.951 . S
C5199 C5197 1.388 . S
C5199 C5200 1.366 . S
C5200 C5199 1.366 . S
C5200 C5201 1.414 . S
C5200 C5203 1.499 . S
C5201 H5175 0.950 . S
C5201 C5200 1.414 . S
C5201 C5202 1.374 . S
C5202 H5176 0.950 . S
C5202 C5198 1.385 . S
C5202 C5201 1.374 . S
C5203 C5200 1.499 . S
C5203 C5204 1.373 . S
C5203 C5205 1.389 . S
C5204 H5177 0.950 . S
C5204 C5190 1.377 . S
C5204 C5203 1.373 . S
C5205 C5189 1.377 . S
C5205 C5203 1.389 . S
C5205 C5206 1.524 . S
C5206 C5205 1.524 . S
C5206 C5207 1.397 . S
C5206 C5211 1.363 . S
C5207 H5178 0.950 . S
C5207 C5206 1.397 . S
C5207 C5208 1.334 . S
C5208 H5179 0.950 . S
C5208 C5207 1.334 . S
C5208 C5209 1.287 . S
C5209 C5208 1.287 . S
C5209 C5210 1.524 . S
C5209 H5212 0.999 . S
C5210 H5180 0.950 . S
C5210 C5209 1.524 . S
C5210 C5211 1.415 . S
C5211 H5181 0.950 . S
C5211 C5206 1.363 . S
C5211 C5210 1.415 . S
H5212 C5209 0.999 . S
H5213 C5194 0.913 . S
H5214 C5232 0.951 . S
H5215 C5234 1.008 . S
H5216 C5236 0.950 . S
H5217 C5237 0.950 . S
H5218 C5239 0.950 . S
H5219 C5242 0.950 . S
H5220 C5243 0.950 . S
H5221 C5245 0.950 1_455 S
H5222 C5246 0.950 1_455 S
H5223 C5247 0.951 . S
H5224 C5249 0.951 . S
H5225 C5251 0.950 . S
H5226 C5252 0.950 . S
H5227 C5254 0.950 . S
H5228 C5257 0.937 1_455 S
H5229 C5258 0.950 . S
H5230 C5260 0.950 . S
H5231 C5261 0.950 . S
C5232 H5214 0.951 . S
C5232 C5233 1.366 . S
C5232 C5234 1.388 . S
C5233 C5232 1.366 . S
C5233 C5237 1.385 . S
C5234 H5215 1.008 . S
C5234 C5232 1.388 . S
C5234 C5235 1.366 . S
C5235 C5234 1.366 . S
C5235 C5236 1.414 . S
C5235 C5238 1.499 . S
C5236 H5216 0.950 . S
C5236 C5235 1.414 . S
C5236 C5237 1.374 . S
C5237 H5217 0.950 . S
C5237 C5233 1.385 . S
C5237 C5236 1.374 . S
C5238 C5235 1.499 . S
C5238 C5239 1.373 . S
C5238 C5240 1.389 . S
C5239 H5218 0.950 . S
C5239 C5238 1.373 . S
C5239 C5255 1.377 . S
C5240 C5238 1.389 . S
C5240 C5241 1.524 . S
C5240 C5254 1.377 . S
C5241 C5240 1.524 . S
C5241 C5242 1.397 . S
C5241 C5246 1.363 . S
C5242 H5219 0.950 . S
C5242 C5241 1.397 . S
C5242 C5243 1.334 . S
C5243 H5220 0.950 . S
C5243 C5242 1.334 . S
C5243 C5244 1.287 . S
C5244 C5243 1.287 . S
C5244 C5245 1.524 . S
C5244 H5263 0.913 . S
C5245 H5221 0.950 1_655 S
C5245 C5244 1.524 . S
C5245 C5246 1.415 . S
C5246 H5222 0.950 1_655 S
C5246 C5241 1.363 . S
C5246 C5245 1.415 . S
C5247 H5223 0.951 . S
C5247 C5248 1.366 . S
C5247 C5249 1.388 . S
C5248 C5247 1.366 . S
C5248 C5252 1.385 1_655 S
C5249 H5224 0.951 . S
C5249 C5247 1.388 . S
C5249 C5250 1.366 . S
C5250 C5249 1.366 . S
C5250 C5251 1.414 1_655 S
C5250 C5253 1.499 . S
C5251 H5225 0.950 . S
C5251 C5250 1.414 1_455 S
C5251 C5252 1.374 . S
C5252 H5226 0.950 . S
C5252 C5248 1.385 1_455 S
C5252 C5251 1.374 . S
C5253 C5250 1.499 . S
C5253 C5254 1.373 . S
C5253 C5255 1.389 . S
C5254 H5227 0.950 . S
C5254 C5240 1.377 . S
C5254 C5253 1.373 . S
C5255 C5239 1.377 . S
C5255 C5253 1.389 . S
C5255 C5256 1.524 . S
C5256 C5255 1.524 . S
C5256 C5257 1.411 . S
C5256 C5261 1.363 . S
C5257 H5228 0.937 1_655 S
C5257 C5256 1.411 . S
C5257 C5258 1.332 1_655 S
C5258 H5229 0.950 . S
C5258 C5257 1.332 1_455 S
C5258 C5259 1.287 1_455 S
C5259 C5258 1.287 1_655 S
C5259 C5260 1.524 . S
C5259 H5262 0.999 . S
C5260 H5230 0.950 . S
C5260 C5259 1.524 . S
C5260 C5261 1.415 . S
C5261 H5231 0.950 . S
C5261 C5256 1.363 . S
C5261 C5260 1.415 . S
H5262 C5259 0.999 . S
H5263 C5244 0.913 . S
H5264 C5282 0.951 . S
H5265 C5284 0.951 . S
H5266 C5286 0.950 . S
H5267 C5287 0.950 . S
H5268 C5289 0.950 . S
H5269 C5292 0.950 . S
H5270 C5293 0.950 . S
H5271 C5295 0.950 . S
H5272 C5296 0.950 . S
H5273 C5297 0.951 . S
H5274 C5299 0.951 . S
H5275 C5301 0.950 . S
H5276 C5302 0.950 . S
H5277 C5304 0.950 . S
H5278 C5307 0.950 . S
H5279 C5308 0.950 . S
H5280 C5310 0.950 . S
H5281 C5311 0.950 . S
C5282 H5264 0.951 . S
C5282 C5283 1.366 . S
C5282 C5284 1.388 . S
C5283 C5282 1.366 . S
C5283 C5287 1.385 . S
C5284 H5265 0.951 . S
C5284 C5282 1.388 . S
C5284 C5285 1.366 . S
C5285 C5284 1.366 . S
C5285 C5286 1.414 . S
C5285 C5288 1.499 . S
C5286 H5266 0.950 . S
C5286 C5285 1.414 . S
C5286 C5287 1.374 . S
C5287 H5267 0.950 . S
C5287 C5283 1.385 . S
C5287 C5286 1.374 . S
C5288 C5285 1.499 . S
C5288 C5289 1.373 . S
C5288 C5290 1.389 . S
C5289 H5268 0.950 . S
C5289 C5288 1.373 . S
C5289 C5305 1.377 . S
C5290 C5288 1.389 . S
C5290 C5291 1.524 . S
C5290 C5304 1.377 . S
C5291 C5290 1.524 . S
C5291 C5292 1.397 . S
C5291 C5296 1.363 . S
C5292 H5269 0.950 . S
C5292 C5291 1.397 . S
C5292 C5293 1.334 . S
C5293 H5270 0.950 . S
C5293 C5292 1.334 . S
C5293 C5294 1.287 . S
C5294 C5293 1.287 . S
C5294 C5295 1.524 . S
C5294 H5313 0.913 . S
C5295 H5271 0.950 . S
C5295 C5294 1.524 . S
C5295 C5296 1.415 . S
C5296 H5272 0.950 . S
C5296 C5291 1.363 . S
C5296 C5295 1.415 . S
C5297 H5273 0.951 . S
C5297 C5298 1.366 . S
C5297 C5299 1.388 . S
C5298 C5297 1.366 . S
C5298 C5302 1.385 . S
C5299 H5274 0.951 . S
C5299 C5297 1.388 . S
C5299 C5300 1.366 . S
C5300 C5299 1.366 . S
C5300 C5301 1.414 . S
C5300 C5303 1.499 . S
C5301 H5275 0.950 . S
C5301 C5300 1.414 . S
C5301 C5302 1.374 . S
C5302 H5276 0.950 . S
C5302 C5298 1.385 . S
C5302 C5301 1.374 . S
C5303 C5300 1.499 . S
C5303 C5304 1.373 . S
C5303 C5305 1.389 . S
C5304 H5277 0.950 . S
C5304 C5290 1.377 . S
C5304 C5303 1.373 . S
C5305 C5289 1.377 . S
C5305 C5303 1.389 . S
C5305 C5306 1.524 . S
C5306 C5305 1.524 . S
C5306 C5307 1.397 . S
C5306 C5311 1.363 . S
C5307 H5278 0.950 . S
C5307 C5306 1.397 . S
C5307 C5308 1.334 . S
C5308 H5279 0.950 . S
C5308 C5307 1.334 . S
C5308 C5309 1.287 . S
C5309 C5308 1.287 . S
C5309 C5310 1.524 . S
C5309 H5312 0.999 . S
C5310 H5280 0.950 . S
C5310 C5309 1.524 . S
C5310 C5311 1.415 . S
C5311 H5281 0.950 . S
C5311 C5306 1.363 . S
C5311 C5310 1.415 . S
H5312 C5309 0.999 . S
H5313 C5294 0.913 . S
H5314 C5332 0.951 . S
H5315 C5334 0.951 . S
H5316 C5336 0.950 . S
H5317 C5337 0.950 . S
H5318 C5339 0.950 . S
H5319 C5342 0.950 . S
H5320 C5343 0.950 . S
H5321 C5345 0.950 . S
H5322 C5346 0.950 . S
H5323 C5347 0.951 . S
H5324 C5349 0.951 . S
H5325 C5351 0.905 1_565 S
H5326 C5352 0.950 . S
H5327 C5354 0.910 1_565 S
H5328 C5357 0.950 . S
H5329 C5358 0.950 . S
H5330 C5360 0.950 . S
H5331 C5361 0.950 . S
C5332 H5314 0.951 . S
C5332 C5333 1.366 . S
C5332 C5334 1.388 . S
C5333 C5332 1.366 . S
C5333 C5337 1.385 . S
C5334 H5315 0.951 . S
C5334 C5332 1.388 . S
C5334 C5335 1.366 . S
C5335 C5334 1.366 . S
C5335 C5336 1.414 . S
C5335 C5338 1.499 . S
C5336 H5316 0.950 . S
C5336 C5335 1.414 . S
C5336 C5337 1.374 . S
C5337 H5317 0.950 . S
C5337 C5333 1.385 . S
C5337 C5336 1.374 . S
C5338 C5335 1.499 . S
C5338 C5339 1.373 . S
C5338 C5340 1.389 . S
C5339 H5318 0.950 . S
C5339 C5338 1.373 . S
C5339 C5355 1.377 . S
C5340 C5338 1.389 . S
C5340 C5341 1.524 1_545 S
C5340 C5354 1.355 . S
C5341 C5340 1.524 1_565 S
C5341 C5342 1.397 . S
C5341 C5346 1.363 . S
C5342 H5319 0.950 . S
C5342 C5341 1.397 . S
C5342 C5343 1.334 . S
C5343 H5320 0.950 . S
C5343 C5342 1.334 . S
C5343 C5344 1.287 . S
C5344 C5343 1.287 . S
C5344 C5345 1.524 . S
C5344 H5363 0.913 . S
C5345 H5321 0.950 . S
C5345 C5344 1.524 . S
C5345 C5346 1.415 . S
C5346 H5322 0.950 . S
C5346 C5341 1.363 . S
C5346 C5345 1.415 . S
C5347 H5323 0.951 . S
C5347 C5348 1.366 . S
C5347 C5349 1.388 . S
C5348 C5347 1.366 . S
C5348 C5352 1.385 1_545 S
C5349 H5324 0.951 . S
C5349 C5347 1.388 . S
C5349 C5350 1.366 . S
C5350 C5349 1.366 . S
C5350 C5351 1.442 . S
C5350 C5353 1.499 . S
C5351 H5325 0.905 1_545 S
C5351 C5350 1.442 . S
C5351 C5352 1.393 1_545 S
C5352 H5326 0.950 . S
C5352 C5348 1.385 1_565 S
C5352 C5351 1.393 1_565 S
C5353 C5350 1.499 . S
C5353 C5354 1.437 . S
C5353 C5355 1.389 . S
C5354 H5327 0.910 1_545 S
C5354 C5340 1.355 . S
C5354 C5353 1.437 . S
C5355 C5339 1.377 . S
C5355 C5353 1.389 . S
C5355 C5356 1.524 . S
C5356 C5355 1.524 . S
C5356 C5357 1.397 . S
C5356 C5361 1.363 . S
C5357 H5328 0.950 . S
C5357 C5356 1.397 . S
C5357 C5358 1.334 . S
C5358 H5329 0.950 . S
C5358 C5357 1.334 . S
C5358 C5359 1.287 . S
C5359 C5358 1.287 . S
C5359 C5360 1.524 . S
C5359 H5362 0.999 . S
C5360 H5330 0.950 . S
C5360 C5359 1.524 . S
C5360 C5361 1.415 . S
C5361 H5331 0.950 . S
C5361 C5356 1.363 . S
C5361 C5360 1.415 . S
H5362 C5359 0.999 . S
H5363 C5344 0.913 . S
C1783 C4 1.539 1_655 S
C1798 C1253 1.500 . S
C1833 C38 1.740 . S
C1848 C1297 1.703 . S
C1898 C1377 1.498 . S
C1883 C74 1.537 . S
C1933 C76 1.520 . S
C1948 C1421 1.481 . S
C1983 C2 1.640 . S
C1998 C1501 1.605 . S
C2033 C40 1.573 . S
C2048 C1563 1.512 . S
C2083 C110 1.633 . S
C2098 C1483 1.559 . S
C2148 C1545 1.502 . S
C2133 C148 1.568 . S
C2198 C1439 1.598 . S
C2183 C182 1.627 . S
C2233 C184 1.572 . S
C2248 C1359 1.526 . S
C2298 C1235 1.475 . S
C2283 C112 1.522 1_655 S
C2333 C146 1.669 . S
C2348 C1315 1.632 . S
C2383 C220 1.648 . S
C2398 C1625 1.585 . S
C2433 C254 1.792 . S
C2448 C1669 1.753 . S
C2498 C1749 1.595 . S
C2483 C290 1.663 . S
C2533 C292 1.568 . S
C2548 C695 1.504 . S
C2583 C218 1.717 . S
C2598 C739 1.683 . S
C2633 C256 1.586 . S
C2648 C819 1.524 . S
C2683 C326 1.710 . S
C2698 C757 1.673 . S
C2733 C364 1.622 . S
C2748 C801 1.553 . S
C2798 C677 1.661 . S
C2783 C398 1.725 . S
C2848 C1731 1.612 . S
C2833 C400 1.678 . S
C2898 C1607 1.488 . S
C2883 C328 1.545 . S
C2948 C1687 1.684 . S
C2933 C362 1.721 . S
C2983 C436 1.614 . S
C2998 C881 1.552 . S
C3033 C470 1.780 . S
C3048 C943 1.707 . S
C3083 C506 1.665 . S
C3098 C987 1.631 . S
C3133 C508 1.606 . S
C3148 C1049 1.566 . S
C3198 C1111 1.685 . S
C3183 C434 1.720 . S
C3248 C1191 1.546 . S
C3233 C472 1.609 . S
C3298 C1129 1.722 . S
C3283 C542 1.761 . S
C3348 C1173 1.553 . S
C3333 C580 1.622 . S
C3383 C614 1.709 . S
C3398 C1067 1.675 . S
C3448 C1005 1.585 . S
C3433 C616 1.623 . S
C3483 C544 1.554 . S
C3498 C863 1.496 . S
C3548 C925 1.627 . S
C3533 C578 1.694 . S
C3598 C701 1.502 . S
C3583 C14 1.544 . S
C3633 C39 1.525 . S
C3648 C745 1.472 . S
C3698 C825 1.443 . S
C3683 C75 1.523 . S
C3748 C887 1.340 . S
C3733 C86 1.366 . S
C3798 C949 1.487 . S
C3783 C3 1.555 . S
C3848 C993 1.462 . S
C3833 C50 1.481 . S
C3883 C111 1.578 . S
C3898 C1011 1.501 . S
C3933 C158 1.432 . S
C3948 C869 1.388 . S
C3983 C183 1.631 1_556 S
C3998 C931 1.559 . S
C4033 C194 1.517 . S
C4048 C763 1.501 . S
C4098 C807 1.386 . S
C4083 C122 1.428 . S
C4133 C147 1.442 . S
C4148 C683 1.377 . S
C4198 C1055 1.498 . S
C4183 C230 1.524 . S
C4233 C255 1.603 . S
C4248 C1117 1.548 . S
C4283 C291 1.574 . S
C4298 C1197 1.466 . S
C4348 C1259 1.309 . S
C4333 C302 1.317 . S
C4383 C219 1.544 . S
C4398 C1303 1.493 . S
C4433 C266 1.394 . S
C4448 C1383 1.392 . S
C4483 C327 1.387 . S
C4498 C1365 1.322 . S
C4533 C374 1.376 . S
C4548 C1241 1.358 . S
C4598 C1321 1.561 . S
C4583 C399 1.614 . S
C4633 C410 1.523 . S
C4648 C1135 1.505 . S
C4683 C338 1.502 1_545 S
C4698 C1179 1.463 . S
C4748 C1073 1.461 . S
C4733 C363 1.515 1_655 S
C4798 C1427 1.412 . S
C4783 C446 1.411 . S
C4833 C471 1.447 . S
C4848 C1507 1.395 . S
C4883 C507 1.485 . S
C4898 C1569 1.411 . S
C4948 C1631 1.357 . S
C4933 C518 1.394 . S
C4998 C1675 1.558 . S
C4983 C435 1.614 1_565 S
C5033 C482 1.544 1_455 S
C5048 C1755 1.516 . S
C5083 C543 1.512 . S
C5098 C1737 1.437 . S
C5133 C590 1.501 1_565 S
C5148 C1613 1.461 . S
C5198 C1693 1.604 . S
C5183 C615 1.665 1_455 S
C5248 C1489 1.399 . S
C5233 C626 1.396 . S
C5298 C1551 1.423 . S
C5283 C554 1.459 . S
C5333 C579 1.389 . S
C5348 C1445 1.344 . S
