# Generated by pormake.
# Topology pyr, (3,6)-cn, num edge types: 1
# Building blocks:
#     Node 0, Type 0, BuildingBlock: BETDAH_clean_linker_0, # of connection points: 3
#     Node 1, Type 0, BuildingBlock: BETDAH_clean_linker_0, # of connection points: 3
#     Node 2, Type 0, BuildingBlock: BETDAH_clean_linker_0, # of connection points: 3
#     Node 3, Type 0, BuildingBlock: BETDAH_clean_linker_0, # of connection points: 3
#     Node 4, Type 0, BuildingBlock: BETDAH_clean_linker_0, # of connection points: 3
#     Node 5, Type 0, BuildingBlock: BETDAH_clean_linker_0, # of connection points: 3
#     Node 6, Type 0, BuildingBlock: BETDAH_clean_linker_0, # of connection points: 3
#     Node 7, Type 0, BuildingBlock: BETDAH_clean_linker_0, # of connection points: 3
#     Node 8, Type 1, BuildingBlock: BETFAJ_clean_sbu_0, # of connection points: 6
#     Node 9, Type 1, BuildingBlock: BETFAJ_clean_sbu_0, # of connection points: 6
#     Node 10, Type 1, BuildingBlock: BETFAJ_clean_sbu_0, # of connection points: 6
#     Node 11, Type 1, BuildingBlock: BETFAJ_clean_sbu_0, # of connection points: 6
#     Edge 12, Type (0, 1), BuildingBlock: EZIPEK_clean_linker_0, # of connection points: 2
#     Edge 13, Type (0, 1), BuildingBlock: EZIPEK_clean_linker_0, # of connection points: 2
#     Edge 14, Type (0, 1), BuildingBlock: EZIPEK_clean_linker_0, # of connection points: 2
#     Edge 15, Type (0, 1), BuildingBlock: EZIPEK_clean_linker_0, # of connection points: 2
#     Edge 16, Type (0, 1), BuildingBlock: EZIPEK_clean_linker_0, # of connection points: 2
#     Edge 17, Type (0, 1), BuildingBlock: EZIPEK_clean_linker_0, # of connection points: 2
#     Edge 18, Type (0, 1), BuildingBlock: EZIPEK_clean_linker_0, # of connection points: 2
#     Edge 19, Type (0, 1), BuildingBlock: EZIPEK_clean_linker_0, # of connection points: 2
#     Edge 20, Type (0, 1), BuildingBlock: EZIPEK_clean_linker_0, # of connection points: 2
#     Edge 21, Type (0, 1), BuildingBlock: EZIPEK_clean_linker_0, # of connection points: 2
#     Edge 22, Type (0, 1), BuildingBlock: EZIPEK_clean_linker_0, # of connection points: 2
#     Edge 23, Type (0, 1), BuildingBlock: EZIPEK_clean_linker_0, # of connection points: 2
#     Edge 24, Type (0, 1), BuildingBlock: EZIPEK_clean_linker_0, # of connection points: 2
#     Edge 25, Type (0, 1), BuildingBlock: EZIPEK_clean_linker_0, # of connection points: 2
#     Edge 26, Type (0, 1), BuildingBlock: EZIPEK_clean_linker_0, # of connection points: 2
#     Edge 27, Type (0, 1), BuildingBlock: EZIPEK_clean_linker_0, # of connection points: 2
#     Edge 28, Type (0, 1), BuildingBlock: EZIPEK_clean_linker_0, # of connection points: 2
#     Edge 29, Type (0, 1), BuildingBlock: EZIPEK_clean_linker_0, # of connection points: 2
#     Edge 30, Type (0, 1), BuildingBlock: EZIPEK_clean_linker_0, # of connection points: 2
#     Edge 31, Type (0, 1), BuildingBlock: EZIPEK_clean_linker_0, # of connection points: 2
#     Edge 32, Type (0, 1), BuildingBlock: EZIPEK_clean_linker_0, # of connection points: 2
#     Edge 33, Type (0, 1), BuildingBlock: EZIPEK_clean_linker_0, # of connection points: 2
#     Edge 34, Type (0, 1), BuildingBlock: EZIPEK_clean_linker_0, # of connection points: 2
#     Edge 35, Type (0, 1), BuildingBlock: EZIPEK_clean_linker_0, # of connection points: 2
# Relax obj value: 0.214
# Max RMSD: 0.195
# Mean RMSD: 0.142
data_MOF--net-pyr--node1-BETFAJ_clean_sbu_0--node2-BETDAH_clean_linker_0--edge1-EZIPEK_clean_linker_0
_symmetry_space_group_name_H-M    P1
_symmetry_Int_Tables_number       1
_symmetry_cell_setting            triclinic
loop_
_symmetry_equiv_pos_as_xyz
'x, y, z'
_cell_length_a     27.322834
_cell_length_b     29.990213
_cell_length_c     27.975245
_cell_angle_alpha  91.21165
_cell_angle_beta   90.301889
_cell_angle_gamma 109.67212
loop_
_atom_site_label
_atom_site_type_symbol
_atom_site_fract_x
_atom_site_fract_y
_atom_site_fract_z
_atom_type_partial_charge
H0 H 0.39028 0.27297 0.29149 0.0
H1 H 0.50284 0.39021 0.22318 0.0
H2 H 0.37096 0.40858 0.29411 0.0
C3 C 0.40526 0.31039 0.28364 0.0
C4 C 0.37688 0.33953 0.2969 0.0
C5 C 0.45061 0.32838 0.25705 0.0
C6 C 0.46877 0.37658 0.24521 0.0
C7 C 0.43992 0.40587 0.25784 0.0
C8 C 0.39429 0.38705 0.2844 0.0
N9 N 0.45431 0.45248 0.23992 0.0
C10 C 0.4172 0.47428 0.23357 0.0
H11 H 0.32247 0.90206 0.77061 0.0
H12 H 0.2354 0.97289 0.69408 0.0
H13 H 0.28706 0.8687 0.62145 0.0
C14 C 0.30313 0.90645 0.73796 0.0
C15 C 0.3069 0.88126 0.69643 0.0
C16 C 0.27681 0.93903 0.73698 0.0
C17 C 0.25385 0.94619 0.69432 0.0
C18 C 0.25707 0.92049 0.65229 0.0
C19 C 0.28314 0.88762 0.65386 0.0
N20 N 0.23689 0.92864 0.60772 0.0
C21 C 0.21807 0.96571 0.60164 0.0
H22 H 0.73659 0.37746 1.01152 0.0
H23 H 0.73716 0.47304 0.89783 0.0
H24 H 0.61468 0.3376 0.90521 0.0
C25 C 0.71854 0.38574 0.97987 0.0
C26 C 0.67237 0.35237 0.96157 0.0
C27 C 0.74225 0.42936 0.95754 0.0
C28 C 0.71882 0.43997 0.91565 0.0
C29 C 0.67235 0.40672 0.89646 0.0
C30 C 0.64992 0.36336 0.91992 0.0
N31 N 0.64751 0.41282 0.85278 0.0
C32 C 0.65346 0.45292 0.82501 0.0
H33 H 0.82761 0.79455 0.49412 0.0
H34 H 0.96896 0.81091 0.41829 0.0
H35 H 0.84291 0.67775 0.41021 0.0
C36 C 0.85014 0.78052 0.47005 0.0
C37 C 0.82942 0.73275 0.45451 0.0
C38 C 0.90055 0.8096 0.45752 0.0
C39 C 0.92934 0.78992 0.42674 0.0
C40 C 0.90823 0.7433 0.40715 0.0
C41 C 0.85813 0.71458 0.42183 0.0
N42 N 0.94258 0.7242 0.3816 0.0
C43 C 0.93545 0.69981 0.33697 0.0
H44 H 0.78023 0.83367 0.93676 0.0
H45 H 0.64966 0.76546 1.02558 0.0
H46 H 0.64841 0.88046 0.93591 0.0
C47 C 0.74112 0.82941 0.94844 0.0
C48 C 0.71655 0.86033 0.93238 0.0
C49 C 0.71709 0.79494 0.9816 0.0
C50 C 0.6675 0.7909 0.99844 0.0
C51 C 0.64268 0.82211 0.98267 0.0
C52 C 0.66689 0.85602 0.94846 0.0
N53 N 0.59571 0.82147 1.00444 0.0
C54 C 0.58155 0.86183 1.00772 0.0
H55 H 0.84571 0.22727 0.46363 0.0
H56 H 0.93416 0.32012 0.57641 0.0
H57 H 0.86579 0.37497 0.46235 0.0
C58 C 0.86182 0.26237 0.48002 0.0
C59 C 0.85447 0.30079 0.45763 0.0
C60 C 0.8914 0.26902 0.52234 0.0
C61 C 0.91192 0.31469 0.54329 0.0
C62 C 0.90089 0.35272 0.52312 0.0
C63 C 0.87297 0.34572 0.47952 0.0
N64 N 0.91545 0.39695 0.54818 0.0
C65 C 0.88501 0.42556 0.54395 0.0
H66 H 0.3289 0.81793 0.19934 0.0
H67 H 0.3486 0.70697 0.28559 0.0
H68 H 0.46277 0.8473 0.29134 0.0
C69 C 0.35062 0.80634 0.22603 0.0
C70 C 0.39739 0.83874 0.24427 0.0
C71 C 0.33253 0.75866 0.24029 0.0
C72 C 0.3615 0.74363 0.27512 0.0
C73 C 0.40853 0.77585 0.29431 0.0
C74 C 0.426 0.82287 0.27798 0.0
N75 N 0.443 0.76237 0.3254 0.0
C76 C 0.43318 0.72696 0.35993 0.0
H77 H 0.22955 0.39255 0.66834 0.0
H78 H 0.27285 0.49239 0.78729 0.0
H79 H 0.13441 0.36994 0.79346 0.0
C80 C 0.22094 0.40503 0.70288 0.0
C81 C 0.17721 0.37657 0.72767 0.0
C82 C 0.2563 0.44702 0.72368 0.0
C83 C 0.24484 0.4619 0.76956 0.0
C84 C 0.19936 0.43571 0.79431 0.0
C85 C 0.16647 0.39259 0.77312 0.0
N86 N 0.19588 0.44407 0.84477 0.0
C87 C 0.17146 0.47275 0.86854 0.0
Sm88 Sm 0.0371 0.11876 0.54364 0.0
Sm89 Sm 1.0109 0.07447 0.6393 0.0
C90 C 0.04837 0.1541 0.45733 0.0
C91 C 0.09402 0.18391 0.43192 0.0
C92 C 0.09004 0.21927 0.4017 0.0
C93 C 0.13417 0.24861 0.37881 0.0
C94 C 0.18239 0.24252 0.386 0.0
C95 C 0.18635 0.20743 0.41645 0.0
C96 C 0.14253 0.17842 0.4394 0.0
C97 C 0.11984 0.10132 0.58789 0.0
C98 C 0.07164 0.1877 0.63857 0.0
C99 C 0.98922 1.02281 0.71677 0.0
C100 C 0.95352 1.01479 0.75671 0.0
C101 C 0.94702 0.97513 0.78462 0.0
C102 C 0.90517 0.95986 0.81545 0.0
C103 C 0.86952 0.98417 0.81861 0.0
C104 C 0.8778 1.02574 0.79303 0.0
C105 C 0.91964 1.04088 0.7618 0.0
C106 C 0.93976 0.11467 0.60483 0.0
C107 C 0.98357 1.00338 0.54427 0.0
O108 O 0.03404 0.17448 0.49392 0.0
O109 O 0.04772 0.1112 0.46599 0.0
O110 O 0.07318 0.07517 0.58736 0.0
O111 O 0.12487 0.13764 0.56191 0.0
O112 O 0.0521 0.18466 0.59465 0.0
O113 O 0.06917 0.1486 0.66114 0.0
O114 O 0.96636 1.00907 0.67536 0.0
O115 O 1.02705 0.06352 0.71558 0.0
O116 O 0.96156 0.09059 0.5818 0.0
O117 O 0.95485 0.11739 0.64897 0.0
O118 O 0.99831 1.00802 0.58976 0.0
O119 O 0.98755 1.04166 0.5197 0.0
H120 H 0.05298 0.22425 0.39602 0.0
H121 H 0.1308 0.27577 0.35539 0.0
H122 H 0.22341 0.20249 0.42235 0.0
H123 H 0.14659 0.15169 0.463 0.0
H124 H 0.97254 0.95442 0.78054 0.0
H125 H 0.89923 0.92786 0.83529 0.0
H126 H 0.85054 1.04483 0.79542 0.0
H127 H 0.92395 0.07126 0.73985 0.0
Sm128 Sm 0.5686 0.10716 0.14378 0.0
Sm129 Sm 0.48005 0.10088 0.08727 0.0
C130 C 0.66163 0.12023 0.18118 0.0
C131 C 0.69745 0.15671 0.21233 0.0
C132 C 0.69861 0.20393 0.21167 0.0
C133 C 0.72636 0.23645 0.24697 0.0
C134 C 0.75214 0.22165 0.28363 0.0
C135 C 0.75259 0.17504 0.28313 0.0
C136 C 0.72546 0.14277 0.24762 0.0
C137 C 0.48247 1.03411 0.17564 0.0
C138 C 0.50568 0.17276 0.17909 0.0
C139 C 0.38728 0.09172 0.05071 0.0
C140 C 0.35671 0.06643 1.00929 0.0
C141 C 0.36538 1.02631 0.98975 0.0
C142 C 0.3424 1.00677 0.94612 0.0
C143 C 0.31087 1.0273 0.92149 0.0
C144 C 0.30023 0.06607 0.94196 0.0
C145 C 0.32314 0.08558 0.9858 0.0
C146 C 0.56912 0.17026 0.05357 0.0
C147 C 0.54048 1.03285 0.05115 0.0
O148 O 0.6547 0.13202 0.13754 0.0
O149 O 0.61836 0.09571 0.20151 0.0
O150 O 0.49427 1.04364 0.13238 0.0
O151 O 0.51445 0.06628 0.20323 0.0
O152 O 0.55281 0.17081 0.17769 0.0
O153 O 0.46792 0.14171 0.15442 0.0
O154 O 0.39426 0.06578 0.08529 0.0
O155 O 0.42962 0.1261 1.04034 0.0
O156 O 0.55587 0.16337 0.09692 0.0
O157 O 0.53483 0.13883 1.02698 0.0
O158 O 0.49658 1.04119 1.04624 0.0
O159 O 0.57688 0.0586 0.08129 0.0
H160 H 0.67655 0.21514 0.18505 0.0
H161 H 0.72592 0.27243 0.24694 0.0
H162 H 0.77263 0.1633 0.31113 0.0
H163 H 0.72447 0.10638 0.2489 0.0
H164 H 0.39164 1.01138 1.00714 0.0
H165 H 0.35119 0.97703 0.93041 0.0
H166 H 0.27625 0.0824 0.92301 0.0
H167 H 0.31652 0.11683 1.0003 0.0
Sm168 Sm 0.54337 0.55176 0.5642 0.0
Sm169 Sm 0.54916 0.62818 0.61725 0.0
C170 C 0.55786 0.49308 0.49886 0.0
C171 C 0.60764 0.48532 0.49078 0.0
C172 C 0.65426 0.52432 0.49236 0.0
C173 C 0.70203 0.51745 0.49662 0.0
C174 C 0.70396 0.47156 0.49939 0.0
C175 C 0.65792 0.43243 0.49503 0.0
C176 C 0.60993 0.4393 0.49076 0.0
C177 C 0.455 0.53029 0.62166 0.0
C178 C 0.59438 0.55138 0.66715 0.0
C179 C 0.54684 0.69328 0.6817 0.0
C180 C 0.5125 0.72133 0.68668 0.0
C181 C 0.50067 0.73511 0.73214 0.0
C182 C 0.46596 0.7601 0.73666 0.0
C183 C 0.44313 0.77133 0.69568 0.0
C184 C 0.45473 0.75733 0.65036 0.0
C185 C 0.48903 0.73225 0.64589 0.0
C186 C 0.6348 0.64725 0.55676 0.0
C187 C 0.49433 0.62887 0.51739 0.0
O188 O 0.55694 0.53506 0.48869 0.0
O189 O 0.53643 0.47864 0.53984 0.0
O190 O 0.47359 0.56774 0.59785 0.0
O191 O 0.48455 0.50481 0.61648 0.0
O192 O 0.59608 0.53683 0.6227 0.0
O193 O 0.57315 0.58421 0.67516 0.0
O194 O 0.52485 0.648 0.68804 0.0
O195 O 0.57719 0.70245 0.64472 0.0
O196 O 0.61765 0.61124 0.58267 0.0
O197 O 0.60592 0.6734 0.56148 0.0
O198 O 0.49325 0.64231 0.56226 0.0
O199 O 0.51619 0.5965 0.50788 0.0
H200 H 0.6538 0.56029 0.49324 0.0
H201 H 0.73722 0.54795 0.50028 0.0
H202 H 0.659 0.39676 0.49738 0.0
H203 H 0.57454 0.40885 0.49035 0.0
H204 H 0.51804 0.7264 0.76393 0.0
H205 H 0.45718 0.77095 0.77184 0.0
H206 H 0.43728 0.76591 0.61853 0.0
H207 H 0.49713 0.72137 0.61057 0.0
Sm208 Sm 0.03815 0.5491 0.12211 0.0
Sm209 Sm 0.04539 0.62863 0.06614 0.0
C210 C 0.06196 0.48167 0.1663 0.0
C211 C 0.11218 0.48144 0.18571 0.0
C212 C 0.12829 0.44244 0.17616 0.0
C213 C 0.17909 0.44482 0.18729 0.0
C214 C 0.21453 0.48634 0.20787 0.0
C215 C 0.19806 0.52483 0.2189 0.0
C216 C 0.14718 0.52231 0.20812 0.0
C217 C 0.98601 0.60455 0.16734 0.0
C218 C 0.14225 0.6456 0.13677 0.0
C219 C 1.0241 0.69662 1.02075 0.0
C220 C 0.97612 0.70827 1.02126 0.0
C221 C 0.93701 0.68639 0.05406 0.0
C222 C 0.88985 0.6949 0.05309 0.0
C223 C 0.8817 0.72608 1.01988 0.0
C224 C 0.92093 0.74833 0.98742 0.0
C225 C 0.9679 0.73929 0.98797 0.0
C226 C 0.09622 0.57139 1.02157 0.0
C227 C 0.93819 0.53647 0.05599 0.0
O228 O 0.05992 0.48401 0.11988 0.0
O229 O 0.04065 0.50938 0.18793 0.0
O230 O 0.02963 0.6197 0.14632 0.0
O231 O 0.96975 0.55848 0.16469 0.0
O232 O 0.12291 0.59907 0.13941 0.0
O233 O 0.11724 0.6684 0.11246 0.0
O234 O 0.04992 0.7038 0.06112 0.0
O235 O 1.01983 0.65585 1.00067 0.0
O236 O 0.05252 0.55754 1.04212 0.0
O237 O 0.11347 0.6174 1.02382 0.0
O238 O 0.95805 0.58308 0.05623 0.0
O239 O 0.96462 0.51195 0.07583 0.0
H240 H 0.10218 0.41084 0.15846 0.0
H241 H 0.1913 0.41484 0.17848 0.0
H242 H 0.22496 0.55716 0.23467 0.0
H243 H 0.13586 0.55297 0.21579 0.0
H244 H 0.94284 0.66252 0.08025 0.0
H245 H 0.85991 0.67749 0.07831 0.0
H246 H 0.91495 0.77241 0.9615 0.0
H247 H 0.99755 0.75621 0.96232 0.0
C248 C 0.28333 0.28947 0.29022 0.0
C249 C 0.32537 0.31872 0.31883 0.0
C250 C 0.26884 0.30686 0.38823 0.0
C251 C 0.22936 0.27221 0.36139 0.0
N252 N 0.20011 0.22639 0.28831 0.0
N253 N 0.36043 0.3532 0.39559 0.0
C254 C 0.23665 0.26261 0.31261 0.0
C255 C 0.31871 0.32724 0.36797 0.0
N256 N 0.28776 0.28814 0.24157 0.0
N257 N 0.25824 0.32059 0.43279 0.0
H258 H 0.3975 0.369 0.38181 0.0
H259 H 0.35927 0.35627 0.43267 0.0
H260 H 0.22189 0.30632 0.44849 0.0
H261 H 0.28374 0.34889 0.45236 0.0
H262 H 0.25663 0.27131 0.21856 0.0
H263 H 0.32141 0.30758 0.22379 0.0
H264 H 0.2062 0.21413 0.25452 0.0
H265 H 0.16503 0.20603 0.30326 0.0
C266 C 0.24192 0.94794 0.81777 0.0
C267 C 0.27712 0.9678 0.7806 0.0
C268 C 0.32835 1.03239 0.83399 0.0
C269 C 0.29464 1.01127 0.8718 0.0
N270 N 0.21382 0.95634 0.8988 0.0
N271 N 0.34597 1.03366 0.74904 0.0
C272 C 0.24935 0.97145 0.86326 0.0
C273 C 0.31758 1.01187 0.78729 0.0
N274 N 0.20281 0.90571 0.80984 0.0
N275 N 0.37224 0.07047 0.84342 0.0
H276 H 0.34027 1.0188 0.71456 0.0
H277 H 0.37241 0.06803 0.75043 0.0
H278 H 0.38054 0.08759 0.87682 0.0
H279 H 0.40193 0.08383 0.81904 0.0
H280 H 0.17929 0.8863 0.83656 0.0
H281 H 0.19496 0.88897 0.77619 0.0
H282 H 0.17785 0.92988 0.89413 0.0
H283 H 0.21879 0.97297 0.9325 0.0
C284 C 0.67572 0.49695 0.74728 0.0
C285 C 0.64369 0.48408 0.78815 0.0
C286 C 0.57887 0.51246 0.74873 0.0
C287 C 0.61216 0.52843 0.70886 0.0
N288 N 0.6968 0.5427 0.67466 0.0
N289 N 0.57032 0.48943 0.83191 0.0
C290 C 0.6619 0.52249 0.70939 0.0
C291 C 0.59723 0.49525 0.79014 0.0
N292 N 0.71899 0.48397 0.74425 0.0
N293 N 0.52813 0.51029 0.74595 0.0
H294 H 0.58236 0.4767 0.86266 0.0
H295 H 0.53924 0.50159 0.83744 0.0
H296 H 0.51166 0.51939 0.71564 0.0
H297 H 0.50066 0.49434 0.77157 0.0
H298 H 0.74122 0.4874 0.71358 0.0
H299 H 0.73118 0.46731 0.77202 0.0
H300 H 0.7353 0.54385 0.67526 0.0
H301 H 0.68863 0.56203 0.64707 0.0
C302 C 0.91152 0.63118 0.27677 0.0
C303 C 0.94328 0.67784 0.29054 0.0
C304 C 0.99473 0.68112 0.21689 0.0
C305 C 0.96677 0.63243 0.20563 0.0
N306 N 0.88409 0.57002 0.21445 0.0
N307 N 1.01844 0.7461 0.27563 0.0
C308 C 0.92107 0.60984 0.23276 0.0
C309 C 0.98555 0.70248 0.26091 0.0
N310 N 0.87306 0.60635 0.30669 0.0
N311 N 1.02672 0.7085 0.18361 0.0
H312 H 1.012 0.76399 0.30603 0.0
H313 H 0.05404 0.76311 0.25974 0.0
H314 H 0.02868 0.69637 0.14889 0.0
H315 H 0.04498 0.74494 0.18759 0.0
H316 H 0.85296 0.57019 0.30258 0.0
H317 H 0.86372 0.62133 0.33785 0.0
H318 H 0.84806 0.55411 0.23 0.0
H319 H 0.88591 0.55658 0.1802 0.0
C320 C 0.4996 0.27149 0.26492 0.0
C321 C 0.47303 0.29409 0.23547 0.0
C322 C 0.47876 0.24355 0.16759 0.0
C323 C 0.49732 0.21583 0.19875 0.0
N324 N 0.52374 0.20169 0.27773 0.0
N325 N 0.43029 0.29709 0.16026 0.0
C326 C 0.50796 0.22963 0.24759 0.0
C327 C 0.46104 0.27918 0.18709 0.0
N328 N 0.5169 0.29031 0.30929 0.0
N329 N 0.47968 0.23708 0.11911 0.0
H330 H 0.4161 0.32331 0.17274 0.0
H331 H 0.41515 0.283 0.12683 0.0
H332 H 0.49352 0.2122 0.10288 0.0
H333 H 0.47204 0.25992 0.09489 0.0
H334 H 0.54063 0.27823 0.33099 0.0
H335 H 0.51117 0.32092 0.32266 0.0
H336 H 0.52703 0.20716 0.31464 0.0
H337 H 0.53002 0.17078 0.26621 0.0
C338 C 0.16399 1.00913 0.63574 0.0
C339 C 0.19978 1.00559 0.60083 0.0
C340 C 0.19873 0.07926 0.56516 0.0
C341 C 0.16111 0.08119 0.59932 0.0
N342 N 0.12847 0.06192 0.67825 0.0
N343 N 0.26088 1.04181 0.53941 0.0
C344 C 0.15086 1.0507 0.63846 0.0
C345 C 0.22043 1.04225 0.56777 0.0
N346 N 0.14059 0.97212 0.66482 0.0
N347 N 0.21276 0.11169 0.52987 0.0
H348 H 0.27663 1.01458 0.53987 0.0
H349 H 0.28107 0.0697 0.51781 0.0
H350 H 0.20476 0.14323 0.53124 0.0
H351 H 0.23317 0.10778 0.49966 0.0
H352 H 0.11055 0.9717 0.68781 0.0
H353 H 0.14777 0.9401 0.66275 0.0
H354 H 0.12333 1.04278 0.70959 0.0
H355 H 0.12135 0.09391 0.68125 0.0
C356 C 0.84048 0.45627 0.96427 0.0
C357 C 0.79309 0.4622 0.9783 0.0
C358 C 0.84078 0.51912 1.04218 0.0
C359 C 0.8879 0.51178 1.02899 0.0
N360 N 0.93473 0.48499 0.96855 0.0
N361 N 0.7469 0.49826 1.03059 0.0
C362 C 0.88824 0.4834 0.98764 0.0
C363 C 0.79312 0.49391 1.01695 0.0
N364 N 0.83963 0.42327 0.92949 0.0
N365 N 0.8419 0.55082 0.0784 0.0
H366 H 0.71216 0.48183 1.01181 0.0
H367 H 0.74195 0.51683 0.0609 0.0
H368 H 0.87532 0.56854 0.09837 0.0
H369 H 0.81076 0.56155 0.0878 0.0
H370 H 0.87116 0.4123 0.92203 0.0
H371 H 0.80619 0.40447 0.90988 0.0
H372 H 0.93833 0.46921 0.93588 0.0
H373 H 0.97031 0.50657 0.98281 0.0
C374 C 0.73057 0.70079 0.4559 0.0
C375 C 0.77884 0.70219 0.47607 0.0
C376 C 0.73296 0.66416 0.5485 0.0
C377 C 0.68429 0.66172 0.52787 0.0
N378 N 0.63642 0.6675 0.45694 0.0
N379 N 0.82477 0.67615 0.53701 0.0
C380 C 0.68312 0.67705 0.48006 0.0
C381 C 0.77944 0.68062 0.52079 0.0
N382 N 0.73013 0.72354 0.41418 0.0
N383 N 0.7357 0.65417 0.59567 0.0
H384 H 0.85946 0.68867 0.51827 0.0
H385 H 0.82702 0.65639 0.56658 0.0
H386 H 0.70343 0.64371 0.61771 0.0
H387 H 0.77053 0.66029 0.61428 0.0
H388 H 0.69732 0.72942 0.40062 0.0
H389 H 0.7636 0.73914 0.39441 0.0
H390 H 0.63275 0.67321 0.42072 0.0
H391 H 0.60113 0.64941 0.47277 0.0
C392 C 0.34195 0.49102 0.26799 0.0
C393 C 0.37106 0.48736 0.22728 0.0
C394 C 0.3022 0.49448 0.17485 0.0
C395 C 0.26976 0.49027 0.21521 0.0
N396 N 0.25688 0.48144 0.3002 0.0
N397 N 0.37977 0.48422 0.1418 0.0
C398 C 0.2893 0.48829 0.26194 0.0
C399 C 0.35167 0.48919 0.1806 0.0
N400 N 0.36478 0.49704 0.31235 0.0
N401 N 0.28602 0.50447 0.13127 0.0
H402 H 0.4172 0.48253 0.1448 0.0
H403 H 0.36509 0.47929 0.10693 0.0
H404 H 0.25013 0.50891 0.12589 0.0
H405 H 0.30977 0.51251 0.10146 0.0
H406 H 0.34717 0.5039 0.34322 0.0
H407 H 0.40343 0.49935 0.31759 0.0
H408 H 0.26714 0.47434 0.33437 0.0
H409 H 0.2181 0.47936 0.29719 0.0
C410 C 0.64872 0.2624 0.96341 0.0
C411 C 0.64839 0.30537 0.98578 0.0
C412 C 0.61401 0.2609 0.05848 0.0
C413 C 0.60443 0.21684 1.03334 0.0
N414 N 0.61883 0.17633 0.96212 0.0
N415 N 0.62283 0.34377 0.05296 0.0
C416 C 0.62351 0.21792 0.98575 0.0
C417 C 0.62867 0.30401 1.03281 0.0
N418 N 0.67538 0.26423 0.92185 0.0
N419 N 0.61297 0.26255 0.10719 0.0
H420 H 0.63257 0.37588 1.03538 0.0
H421 H 0.60348 0.34347 0.08503 0.0
H422 H 0.61206 0.23382 0.12764 0.0
H423 H 0.62247 0.29407 0.12722 0.0
H424 H 0.6821 0.23512 0.90609 0.0
H425 H 0.6948 0.29585 0.90495 0.0
H426 H 0.62408 0.17372 0.92546 0.0
H427 H 0.60911 0.14404 0.97927 0.0
C428 C 0.92129 0.86763 0.52934 0.0
C429 C 0.92369 0.85956 0.47919 0.0
C430 C 0.97277 0.94519 0.47244 0.0
C431 C 0.96227 0.95408 0.52101 0.0
N432 N 0.91071 0.92174 0.59023 0.0
N433 N 0.94193 0.89529 0.40168 0.0
C434 C 0.93205 0.9147 0.54796 0.0
C435 C 0.94662 0.8997 0.4503 0.0
N436 N 0.91055 0.83072 0.55986 0.0
N437 N 1.00958 0.9789 0.44776 0.0
H438 H 0.92085 0.86363 0.38403 0.0
H439 H 0.95399 0.92435 0.37944 0.0
H440 H 0.03292 1.01091 0.4633 0.0
H441 H 1.02142 0.97244 0.41371 0.0
H442 H 0.91246 0.83562 0.59693 0.0
H443 H 0.90614 0.79625 0.5484 0.0
H444 H 0.88537 0.894 0.60919 0.0
H445 H 0.91222 0.95516 0.60269 0.0
C446 C 0.39539 0.87551 0.69035 0.0
C447 C 0.34129 0.85256 0.6966 0.0
C448 C 0.35383 0.77595 0.70316 0.0
C449 C 0.40818 0.79936 0.69943 0.0
N450 N 0.48215 0.87128 0.6971 0.0
N451 N 0.26893 0.78319 0.71553 0.0
C452 C 0.42942 0.84918 0.69536 0.0
C453 C 0.3204 0.80334 0.70493 0.0
N454 N 0.41394 0.92218 0.67829 0.0
N455 N 0.33429 0.72755 0.70373 0.0
H456 H 0.24315 0.80214 0.71591 0.0
H457 H 0.25237 0.74862 0.72704 0.0
H458 H 0.35785 0.70647 0.7042 0.0
H459 H 0.29484 0.70804 0.7009 0.0
H460 H 0.45202 0.93951 0.66787 0.0
H461 H 0.39036 0.94306 0.67515 0.0
H462 H 0.49999 0.90787 0.69968 0.0
H463 H 0.5084 0.85296 0.6998 0.0
C464 C 0.74128 0.89602 0.85231 0.0
C465 C 0.7463 0.90032 0.90275 0.0
C466 C 0.8248 0.96992 0.89703 0.0
C467 C 0.82206 0.96327 0.84674 0.0
N468 N 0.77268 0.92936 0.77539 0.0
N469 N 0.7841 0.94629 0.97366 0.0
C470 C 0.7782 0.92958 0.82401 0.0
C471 C 0.78507 0.93932 0.92525 0.0
N472 N 0.70315 0.85825 0.83176 0.0
N473 N 0.86691 1.00388 0.91756 0.0
H474 H 0.75642 0.92339 0.99541 0.0
H475 H 0.80826 0.97616 0.99206 0.0
H476 H 0.8952 1.02821 0.89742 0.0
H477 H 0.87494 1.00728 0.9541 0.0
H478 H 0.7008 0.84963 0.79541 0.0
H479 H 0.67459 0.83394 0.85163 0.0
H480 H 0.73964 0.90845 0.75668 0.0
H481 H 0.79975 0.95306 0.75376 0.0
C482 C 0.77249 0.27473 0.40875 0.0
C483 C 0.82753 0.29294 0.41062 0.0
C484 C 0.8321 0.27518 0.32531 0.0
C485 C 0.77727 0.25371 0.32425 0.0
N486 N 0.69397 0.24166 0.36029 0.0
N487 N 0.90963 0.32095 0.37046 0.0
C488 C 0.74699 0.25671 0.36448 0.0
C489 C 0.85729 0.29688 0.36858 0.0
N490 N 0.74506 0.27275 0.44989 0.0
N491 N 0.8599 0.27279 0.2854 0.0
H492 H 0.9292 0.33645 0.40193 0.0
H493 H 0.93328 0.32863 0.34062 0.0
H494 H 0.8422 0.25929 0.25257 0.0
H495 H 0.9002 0.28261 0.28477 0.0
H496 H 0.70533 0.25504 0.45271 0.0
H497 H 0.7627 0.28786 0.48227 0.0
H498 H 0.66953 0.24642 0.3868 0.0
H499 H 0.67409 0.22704 0.3287 0.0
C500 C 0.43204 0.65045 0.39828 0.0
C501 C 0.4413 0.69998 0.40151 0.0
C502 C 0.48756 0.70327 0.47833 0.0
C503 C 0.47486 0.65297 0.47754 0.0
N504 N 0.42475 0.57814 0.44004 0.0
N505 N 0.46697 0.77115 0.45057 0.0
C506 C 0.44426 0.62639 0.4383 0.0
C507 C 0.46525 0.7254 0.44359 0.0
N508 N 0.41235 0.62636 0.35665 0.0
N509 N 0.52419 0.73083 0.50989 0.0
H510 H 0.45146 0.78863 0.42598 0.0
H511 H 0.47887 0.78992 0.48277 0.0
H512 H 0.54477 0.71727 0.53353 0.0
H513 H 0.53876 0.76766 0.50877 0.0
H514 H 0.41058 0.59162 0.34965 0.0
H515 H 0.40101 0.64238 0.32786 0.0
H516 H 0.39833 0.55701 0.41492 0.0
H517 H 0.43074 0.55943 0.46919 0.0
C518 C 0.10129 0.47631 0.92551 0.0
C519 C 0.15083 0.4985 0.90512 0.0
C520 C 0.16784 0.56288 0.96652 0.0
C521 C 0.11673 0.54256 0.98537 0.0
N522 N 0.04537 0.46895 0.99394 0.0
N523 N 0.22844 0.56652 0.9019 0.0
C524 C 0.08607 0.49628 0.96781 0.0
C525 C 0.18315 0.54284 0.92443 0.0
N526 N 0.06793 0.43633 0.90369 0.0
N527 N 0.20395 0.59834 0.99198 0.0
H528 H 0.24101 0.55273 0.87163 0.0
H529 H 0.25101 0.60139 0.91036 0.0
H530 H 0.19682 0.6088 1.02621 0.0
H531 H 0.24296 0.61235 0.98288 0.0
H532 H 0.02894 0.42147 0.91267 0.0
H533 H 0.07798 0.42059 0.87339 0.0
H534 H 1.0245 0.43366 0.98545 0.0
H535 H 0.03674 0.47878 1.02779 0.0
C536 C 0.60953 0.94967 1.0122 0.0
C537 C 0.5693 0.90512 1.01272 0.0
C538 C 0.50693 0.94391 1.03483 0.0
C539 C 0.54655 0.98911 1.0302 0.0
N540 N 0.63115 1.03372 1.00038 0.0
N541 N 0.47774 0.86039 1.01282 0.0
C542 C 0.59638 0.99149 1.01397 0.0
C543 C 0.51727 0.90251 1.01966 0.0
N544 N 0.6604 0.95236 1.01288 0.0
N545 N 0.46134 0.93935 0.05751 0.0
H546 H 0.48412 0.82909 1.00283 0.0
H547 H 0.43867 0.85765 1.01278 0.0
H548 H 0.4518 0.96735 0.07226 0.0
H549 H 0.43475 0.90663 0.06646 0.0
H550 H 0.69119 0.98426 1.0165 0.0
H551 H 0.67148 0.92253 1.01562 0.0
H552 H 0.66657 1.03662 0.98467 0.0
H553 H 0.62193 0.06478 0.99995 0.0
C554 C 0.88162 0.21311 0.59085 0.0
C555 C 0.89997 0.22739 0.5442 0.0
C556 C 0.91879 0.15393 0.533 0.0
C557 C 0.91422 0.14632 0.58278 0.0
N558 N 0.88076 0.16329 0.65817 0.0
N559 N 0.94268 0.21342 0.47268 0.0
C560 C 0.89246 0.17437 0.61157 0.0
C561 C 0.9205 0.19833 0.51573 0.0
N562 N 0.85117 0.23446 0.61405 0.0
N563 N 0.91876 0.11821 0.50195 0.0
H564 H 0.94861 0.24739 0.46033 0.0
H565 H 0.95969 0.1939 0.45139 0.0
H566 H 0.91036 0.08343 0.51284 0.0
H567 H 0.91888 0.12156 0.46493 0.0
H568 H 0.83259 0.22272 0.6461 0.0
H569 H 0.84017 0.26127 0.59913 0.0
H570 H 0.87307 0.18639 0.68298 0.0
H571 H 0.87831 0.13057 0.67188 0.0
C572 C 0.23691 0.70614 0.23999 0.0
C573 C 0.28471 0.7248 0.21545 0.0
C574 C 0.23857 0.69395 0.13908 0.0
C575 C 0.19151 0.67257 0.16384 0.0
N576 N 0.14717 0.65307 0.2389 0.0
N577 N 0.33281 0.72697 0.1431 0.0
C578 C 0.19127 0.67677 0.21467 0.0
C579 C 0.28594 0.71578 0.16538 0.0
N580 N 0.23434 0.7186 0.28694 0.0
N581 N 0.23797 0.69444 0.09027 0.0
H582 H 0.3682 0.74194 0.16131 0.0
H583 H 0.33689 0.71712 0.10783 0.0
H584 H 0.2043 0.6788 0.06986 0.0
H585 H 0.26971 0.71381 0.0702 0.0
H586 H 0.19968 0.71101 0.30552 0.0
H587 H 0.26661 0.7398 0.30662 0.0
H588 H 0.14608 0.64987 0.27589 0.0
H589 H 0.11215 0.63386 0.22184 0.0
C590 C 0.32532 0.51998 0.68719 0.0
C591 C 0.30794 0.47114 0.69912 0.0
C592 C 0.378 0.46152 0.64965 0.0
C593 C 0.40148 0.51137 0.64455 0.0
N594 N 0.3979 0.58913 0.66548 0.0
N595 N 0.33081 0.40016 0.70287 0.0
C596 C 0.37526 0.54104 0.66527 0.0
C597 C 0.33843 0.4435 0.68389 0.0
N598 N 0.29354 0.54606 0.69485 0.0
N599 N 0.39054 0.43059 0.61969 0.0
H600 H 0.30505 0.38705 0.73066 0.0
H601 H 0.35482 0.38037 0.69509 0.0
H602 H 0.41307 0.44142 0.58937 0.0
H603 H 0.37176 0.39403 0.62065 0.0
H604 H 0.30178 0.58032 0.6825 0.0
H605 H 0.25664 0.53187 0.70941 0.0
H606 H 0.38329 0.61184 0.68483 0.0
H607 H 0.43325 0.6064 0.64952 0.0
C608 C 0.78494 0.78983 1.03899 0.0
C609 C 0.74826 0.76797 1.00219 0.0
C610 C 0.79312 0.71152 0.9843 0.0
C611 C 0.832 0.73573 1.01858 0.0
N612 N 0.85951 0.78954 0.0864 0.0
N613 N 0.70903 0.7024 0.94789 0.0
C614 C 0.82585 0.77198 0.04879 0.0
C615 C 0.74947 0.72659 0.97772 0.0
N616 N 0.78222 0.82943 0.0624 0.0
N617 N 0.7992 0.67542 0.957 0.0
H618 H 0.67684 0.71316 0.94281 0.0
H619 H 0.70514 0.67011 0.93108 0.0
H620 H 0.82955 0.66226 0.96257 0.0
H621 H 0.77547 0.65931 0.92794 0.0
H622 H 0.81121 0.85096 0.08515 0.0
H623 H 0.7513 0.84199 0.05762 0.0
H624 H 0.85445 0.8127 0.11258 0.0
H625 H 0.89092 0.77827 0.09361 0.0
C626 C 0.39667 0.9237 0.24152 0.0
C627 C 0.41802 0.8887 0.22585 0.0
C628 C 0.48368 0.94967 0.1804 0.0
C629 C 0.45955 0.98376 0.19236 0.0
N630 N 0.38912 1.00149 0.23005 0.0
N631 N 0.47499 0.86664 0.17202 0.0
C632 C 0.41487 0.97019 0.22177 0.0
C633 C 0.45942 0.90123 0.19273 0.0
N634 N 0.36 0.91292 0.27642 0.0
N635 N 0.53151 0.96386 0.15973 0.0
H636 H 0.45858 0.83094 0.18025 0.0
H637 H 0.50059 0.87275 0.14348 0.0
H638 H 0.55228 0.99912 0.15279 0.0
H639 H 0.55314 0.94151 0.15426 0.0
H640 H 0.34677 0.93789 0.29329 0.0
H641 H 0.34547 0.8794 0.29116 0.0
H642 H 0.35328 0.99254 0.24679 0.0
H643 H 0.40182 1.03575 0.21688 0.0
C644 C 0.09897 0.31723 0.68361 0.0
C645 C 0.14738 0.32719 0.70803 0.0
C646 C 0.14797 0.24752 0.68383 0.0
C647 C 0.0975 0.23587 0.66271 0.0
N648 N 1.02087 0.25756 0.65135 0.0
N649 N 0.21184 0.29736 0.74036 0.0
C650 C 0.07192 0.27027 0.66496 0.0
C651 C 0.16989 0.29089 0.71084 0.0
N652 N 0.07924 0.35294 0.67722 0.0
N653 N 0.17657 0.21851 0.67592 0.0
H654 H 0.22821 0.32801 0.76136 0.0
H655 H 0.22685 0.27057 0.7478 0.0
H656 H 0.16337 0.18767 0.65478 0.0
H657 H 0.21553 0.22759 0.68601 0.0
H658 H 0.04739 0.34966 0.65507 0.0
H659 H 0.09712 0.38709 0.69141 0.0
H660 H 0.99845 0.27927 0.65641 0.0
H661 H 0.99932 0.22348 0.63924 0.0
C662 C 0.80603 0.4407 0.57095 0.0
C663 C 0.84456 0.44575 0.53587 0.0
C664 C 0.7921 0.4695 0.477 0.0
C665 C 0.75357 0.46473 0.51216 0.0
N666 N 0.72837 0.45682 0.59497 0.0
N667 N 0.88084 0.47454 0.45976 0.0
C668 C 0.76197 0.45375 0.55997 0.0
C669 C 0.83973 0.46345 0.49022 0.0
N670 N 0.81078 0.42192 0.61415 0.0
N671 N 0.78222 0.47786 0.43069 0.0
H672 H 0.91613 0.47031 0.46874 0.0
H673 H 0.88171 0.49156 0.42757 0.0
H674 H 0.74787 0.48286 0.41989 0.0
H675 H 0.80629 0.47665 0.40234 0.0
H676 H 0.78109 0.41172 0.63903 0.0
H677 H 0.84382 0.41417 0.6242 0.0
H678 H 0.73499 0.45368 0.63119 0.0
H679 H 0.69569 0.46641 0.58832 0.0
loop_
_geom_bond_atom_site_label_1
_geom_bond_atom_site_label_2
_geom_bond_distance
_geom_bond_site_symmetry_2
_ccdc_geom_bond_type
H0 C3 0.929 . S
H1 C6 0.929 . S
H2 C8 0.930 . S
C3 H0 0.929 . S
C3 C4 1.398 . S
C3 C5 1.396 . S
C4 C3 1.398 . S
C4 C8 1.407 . S
C5 C3 1.396 . S
C5 C6 1.394 . S
C6 H1 0.929 . S
C6 C5 1.394 . S
C6 C7 1.382 . S
C7 C6 1.382 . S
C7 C8 1.392 . S
C7 N9 1.420 . S
C8 H2 0.930 . S
C8 C4 1.407 . S
C8 C7 1.392 . S
N9 C7 1.420 . S
N9 C10 1.244 . S
C10 N9 1.244 . S
H11 C14 0.929 . S
H12 C17 0.929 . S
H13 C19 0.930 . S
C14 H11 0.929 . S
C14 C15 1.398 . S
C14 C16 1.396 . S
C15 C14 1.398 . S
C15 C19 1.407 . S
C16 C14 1.396 . S
C16 C17 1.394 . S
C17 H12 0.929 . S
C17 C16 1.394 . S
C17 C18 1.382 . S
C18 C17 1.382 . S
C18 C19 1.392 . S
C18 N20 1.420 . S
C19 H13 0.930 . S
C19 C15 1.407 . S
C19 C18 1.392 . S
N20 C18 1.420 . S
N20 C21 1.244 . S
C21 N20 1.244 . S
H22 C25 0.929 . S
H23 C28 0.929 . S
H24 C30 0.930 . S
C25 H22 0.929 . S
C25 C26 1.398 . S
C25 C27 1.396 . S
C26 C25 1.398 . S
C26 C30 1.407 . S
C27 C25 1.396 . S
C27 C28 1.394 . S
C28 H23 0.929 . S
C28 C27 1.394 . S
C28 C29 1.382 . S
C29 C28 1.382 . S
C29 C30 1.392 . S
C29 N31 1.420 . S
C30 H24 0.930 . S
C30 C26 1.407 . S
C30 C29 1.392 . S
N31 C29 1.420 . S
N31 C32 1.244 . S
C32 N31 1.244 . S
H33 C36 0.929 . S
H34 C39 0.929 . S
H35 C41 0.930 . S
C36 H33 0.929 . S
C36 C37 1.398 . S
C36 C38 1.396 . S
C37 C36 1.398 . S
C37 C41 1.407 . S
C38 C36 1.396 . S
C38 C39 1.394 . S
C39 H34 0.929 . S
C39 C38 1.394 . S
C39 C40 1.382 . S
C40 C39 1.382 . S
C40 C41 1.392 . S
C40 N42 1.420 . S
C41 H35 0.930 . S
C41 C37 1.407 . S
C41 C40 1.392 . S
N42 C40 1.420 . S
N42 C43 1.244 . S
C43 N42 1.244 . S
H44 C47 0.929 . S
H45 C50 0.929 . S
H46 C52 0.930 . S
C47 H44 0.929 . S
C47 C48 1.398 . S
C47 C49 1.396 . S
C48 C47 1.398 . S
C48 C52 1.407 . S
C49 C47 1.396 . S
C49 C50 1.394 . S
C50 H45 0.929 . S
C50 C49 1.394 . S
C50 C51 1.382 . S
C51 C50 1.382 . S
C51 C52 1.392 . S
C51 N53 1.420 . S
C52 H46 0.930 . S
C52 C48 1.407 . S
C52 C51 1.392 . S
N53 C51 1.420 . S
N53 C54 1.244 . S
C54 N53 1.244 . S
H55 C58 0.929 . S
H56 C61 0.929 . S
H57 C63 0.930 . S
C58 H55 0.929 . S
C58 C59 1.398 . S
C58 C60 1.396 . S
C59 C58 1.398 . S
C59 C63 1.407 . S
C60 C58 1.396 . S
C60 C61 1.394 . S
C61 H56 0.929 . S
C61 C60 1.394 . S
C61 C62 1.382 . S
C62 C61 1.382 . S
C62 C63 1.392 . S
C62 N64 1.420 . S
C63 H57 0.930 . S
C63 C59 1.407 . S
C63 C62 1.392 . S
N64 C62 1.420 . S
N64 C65 1.244 . S
C65 N64 1.244 . S
H66 C69 0.929 . S
H67 C72 0.929 . S
H68 C74 0.930 . S
C69 H66 0.929 . S
C69 C70 1.398 . S
C69 C71 1.396 . S
C70 C69 1.398 . S
C70 C74 1.407 . S
C71 C69 1.396 . S
C71 C72 1.394 . S
C72 H67 0.929 . S
C72 C71 1.394 . S
C72 C73 1.382 . S
C73 C72 1.382 . S
C73 C74 1.392 . S
C73 N75 1.420 . S
C74 H68 0.930 . S
C74 C70 1.407 . S
C74 C73 1.392 . S
N75 C73 1.420 . S
N75 C76 1.244 . S
C76 N75 1.244 . S
H77 C80 0.929 . S
H78 C83 0.929 . S
H79 C85 0.930 . S
C80 H77 0.929 . S
C80 C81 1.398 . S
C80 C82 1.396 . S
C81 C80 1.398 . S
C81 C85 1.407 . S
C82 C80 1.396 . S
C82 C83 1.394 . S
C83 H78 0.929 . S
C83 C82 1.394 . S
C83 C84 1.382 . S
C84 C83 1.382 . S
C84 C85 1.392 . S
C84 N86 1.420 . S
C85 H79 0.930 . S
C85 C81 1.407 . S
C85 C84 1.392 . S
N86 C84 1.420 . S
N86 C87 1.244 . S
C87 N86 1.244 . S
Sm88 C90 2.846 . S
Sm88 O108 2.543 . S
Sm88 O109 2.450 . S
Sm88 O110 2.681 . S
Sm88 O111 2.464 . S
Sm88 O112 2.396 . S
Sm88 O116 2.386 1_455 S
Sm88 O119 2.408 1_445 S
Sm89 C99 2.846 1_545 S
Sm89 O110 2.386 1_655 S
Sm89 O113 2.408 1_655 S
Sm89 O114 2.543 1_545 S
Sm89 O115 2.450 1_545 S
Sm89 O116 2.681 . S
Sm89 O117 2.464 . S
Sm89 O118 2.396 1_545 S
C90 Sm88 2.846 . S
C90 C91 1.506 . S
C90 O108 1.261 . S
C90 O109 1.242 . S
C91 C90 1.506 . S
C91 C92 1.358 . S
C91 C96 1.382 . S
C92 C91 1.358 . S
C92 C93 1.385 . S
C92 H120 0.930 . S
C93 C92 1.385 . S
C93 C94 1.395 . S
C93 H121 0.929 . S
C94 C93 1.395 . S
C94 C95 1.335 . S
C95 C94 1.335 . S
C95 C96 1.398 . S
C95 H122 0.930 . S
C96 C91 1.382 . S
C96 C95 1.398 . S
C96 H123 0.929 . S
C97 O110 1.271 1_565 S
C97 O111 1.251 1_565 S
C98 O112 1.252 . S
C98 O113 1.272 . S
C99 Sm89 2.846 1_565 S
C99 C100 1.506 . S
C99 O114 1.261 . S
C99 O115 1.242 . S
C100 C99 1.506 . S
C100 C101 1.358 . S
C100 C105 1.382 . S
C101 C100 1.358 . S
C101 C102 1.385 . S
C101 H124 0.930 . S
C102 C101 1.385 . S
C102 C103 1.395 . S
C102 H125 0.929 . S
C103 C102 1.395 . S
C103 C104 1.335 . S
C104 C103 1.335 . S
C104 C105 1.398 . S
C104 H126 0.930 . S
C105 C100 1.382 . S
C105 C104 1.398 . S
C105 H127 0.929 . S
C106 O116 1.271 . S
C106 O117 1.251 . S
C107 O118 1.252 . S
C107 O119 1.272 . S
O108 Sm88 2.543 . S
O108 C90 1.261 . S
O109 Sm88 2.450 . S
O109 C90 1.242 . S
O110 Sm88 2.681 . S
O110 Sm89 2.386 1_455 S
O110 C97 1.271 1_545 S
O111 Sm88 2.464 . S
O111 C97 1.251 1_545 S
O112 Sm88 2.396 . S
O112 C98 1.252 . S
O113 Sm89 2.408 1_455 S
O113 C98 1.272 . S
O114 Sm89 2.543 1_565 S
O114 C99 1.261 . S
O115 Sm89 2.450 1_565 S
O115 C99 1.242 . S
O116 Sm88 2.386 1_655 S
O116 Sm89 2.681 . S
O116 C106 1.271 . S
O117 Sm89 2.464 . S
O117 C106 1.251 . S
O118 Sm89 2.396 1_565 S
O118 C107 1.252 . S
O119 Sm88 2.408 1_665 S
O119 C107 1.272 . S
H120 C92 0.930 . S
H121 C93 0.929 . S
H122 C95 0.930 . S
H123 C96 0.929 . S
H124 C101 0.930 . S
H125 C102 0.929 . S
H126 C104 0.930 . S
H127 C105 0.929 . S
Sm128 C130 2.846 . S
Sm128 O148 2.543 . S
Sm128 O149 2.450 . S
Sm128 O150 2.681 1_545 S
Sm128 O151 2.464 1_545 S
Sm128 O152 2.396 . S
Sm128 O156 2.386 . S
Sm128 O159 2.408 1_545 S
Sm129 C139 2.846 1_544 S
Sm129 O150 2.386 1_545 S
Sm129 O153 2.408 . S
Sm129 O154 2.543 1_544 S
Sm129 O155 2.450 1_554 S
Sm129 O156 2.681 . S
Sm129 O157 2.464 1_554 S
Sm129 O158 2.396 1_554 S
C130 Sm128 2.846 . S
C130 C131 1.506 . S
C130 O148 1.261 . S
C130 O149 1.242 . S
C131 C130 1.506 . S
C131 C132 1.358 . S
C131 C136 1.382 . S
C132 C131 1.358 . S
C132 C133 1.385 . S
C132 H160 0.930 . S
C133 C132 1.385 . S
C133 C134 1.395 . S
C133 H161 0.929 . S
C134 C133 1.395 . S
C134 C135 1.335 . S
C135 C134 1.335 . S
C135 C136 1.398 . S
C135 H162 0.930 . S
C136 C131 1.382 . S
C136 C135 1.398 . S
C136 H163 0.929 . S
C137 O150 1.271 . S
C137 O151 1.251 . S
C138 O152 1.252 . S
C138 O153 1.272 . S
C139 Sm129 2.846 1_566 S
C139 C140 1.506 . S
C139 O154 1.261 . S
C139 O155 1.242 1_565 S
C140 C139 1.506 . S
C140 C141 1.358 . S
C140 C145 1.382 . S
C141 C140 1.358 . S
C141 C142 1.385 . S
C141 H164 0.930 . S
C142 C141 1.385 . S
C142 C143 1.395 . S
C142 H165 0.929 . S
C143 C142 1.395 . S
C143 C144 1.335 . S
C144 C143 1.335 . S
C144 C145 1.398 . S
C144 H166 0.930 . S
C145 C140 1.382 . S
C145 C144 1.398 . S
C145 H167 0.929 1_565 S
C146 O156 1.271 . S
C146 O157 1.251 1_554 S
C147 O158 1.250 1_564 S
C147 O159 1.276 . S
O148 Sm128 2.543 . S
O148 C130 1.261 . S
O149 Sm128 2.450 . S
O149 C130 1.242 . S
O150 Sm128 2.681 1_565 S
O150 Sm129 2.386 1_565 S
O150 C137 1.271 . S
O151 Sm128 2.464 1_565 S
O151 C137 1.251 . S
O152 Sm128 2.396 . S
O152 C138 1.252 . S
O153 Sm129 2.408 . S
O153 C138 1.272 . S
O154 Sm129 2.543 1_566 S
O154 C139 1.261 . S
O155 Sm129 2.450 1_556 S
O155 C139 1.242 1_545 S
O156 Sm128 2.386 . S
O156 Sm129 2.681 . S
O156 C146 1.271 . S
O157 Sm129 2.464 1_556 S
O157 C146 1.251 1_556 S
O158 Sm129 2.396 1_556 S
O158 C147 1.250 1_546 S
O159 Sm128 2.408 1_565 S
O159 C147 1.276 . S
H160 C132 0.930 . S
H161 C133 0.929 . S
H162 C135 0.930 . S
H163 C136 0.929 . S
H164 C141 0.930 . S
H165 C142 0.929 . S
H166 C144 0.930 . S
H167 C145 0.929 1_545 S
Sm168 C170 2.846 . S
Sm168 O188 2.543 . S
Sm168 O189 2.450 . S
Sm168 O190 2.681 . S
Sm168 O191 2.464 . S
Sm168 O192 2.396 . S
Sm168 O196 2.386 . S
Sm168 O199 2.408 . S
Sm169 C179 2.846 . S
Sm169 O190 2.386 . S
Sm169 O193 2.408 . S
Sm169 O194 2.543 . S
Sm169 O195 2.450 . S
Sm169 O196 2.681 . S
Sm169 O197 2.464 . S
Sm169 O198 2.396 . S
C170 Sm168 2.846 . S
C170 C171 1.506 . S
C170 O188 1.261 . S
C170 O189 1.242 . S
C171 C170 1.506 . S
C171 C172 1.358 . S
C171 C176 1.382 . S
C172 C171 1.358 . S
C172 C173 1.385 . S
C172 H200 0.930 . S
C173 C172 1.385 . S
C173 C174 1.395 . S
C173 H201 0.929 . S
C174 C173 1.395 . S
C174 C175 1.335 . S
C175 C174 1.335 . S
C175 C176 1.398 . S
C175 H202 0.930 . S
C176 C171 1.382 . S
C176 C175 1.398 . S
C176 H203 0.929 . S
C177 O190 1.271 . S
C177 O191 1.251 . S
C178 O192 1.252 . S
C178 O193 1.272 . S
C179 Sm169 2.846 . S
C179 C180 1.506 . S
C179 O194 1.261 . S
C179 O195 1.242 . S
C180 C179 1.506 . S
C180 C181 1.358 . S
C180 C185 1.382 . S
C181 C180 1.358 . S
C181 C182 1.385 . S
C181 H204 0.930 . S
C182 C181 1.385 . S
C182 C183 1.395 . S
C182 H205 0.929 . S
C183 C182 1.395 . S
C183 C184 1.335 . S
C184 C183 1.335 . S
C184 C185 1.398 . S
C184 H206 0.930 . S
C185 C180 1.382 . S
C185 C184 1.398 . S
C185 H207 0.929 . S
C186 O196 1.271 . S
C186 O197 1.251 . S
C187 O198 1.252 . S
C187 O199 1.272 . S
O188 Sm168 2.543 . S
O188 C170 1.261 . S
O189 Sm168 2.450 . S
O189 C170 1.242 . S
O190 Sm168 2.681 . S
O190 Sm169 2.386 . S
O190 C177 1.271 . S
O191 Sm168 2.464 . S
O191 C177 1.251 . S
O192 Sm168 2.396 . S
O192 C178 1.252 . S
O193 Sm169 2.408 . S
O193 C178 1.272 . S
O194 Sm169 2.543 . S
O194 C179 1.261 . S
O195 Sm169 2.450 . S
O195 C179 1.242 . S
O196 Sm168 2.386 . S
O196 Sm169 2.681 . S
O196 C186 1.271 . S
O197 Sm169 2.464 . S
O197 C186 1.251 . S
O198 Sm169 2.396 . S
O198 C187 1.252 . S
O199 Sm168 2.408 . S
O199 C187 1.272 . S
H200 C172 0.930 . S
H201 C173 0.929 . S
H202 C175 0.930 . S
H203 C176 0.929 . S
H204 C181 0.930 . S
H205 C182 0.929 . S
H206 C184 0.930 . S
H207 C185 0.929 . S
Sm208 C210 2.846 . S
Sm208 O228 2.543 . S
Sm208 O229 2.450 . S
Sm208 O230 2.681 1_455 S
Sm208 O231 2.464 1_455 S
Sm208 O232 2.396 . S
Sm208 O236 2.386 1_554 S
Sm208 O239 2.408 1_455 S
Sm209 C219 2.846 1_455 S
Sm209 O230 2.386 1_456 S
Sm209 O233 2.408 1_556 S
Sm209 O234 2.543 1_455 S
Sm209 O235 2.450 1_455 S
Sm209 O236 2.681 . S
Sm209 O237 2.464 . S
Sm209 O238 2.396 1_455 S
C210 Sm208 2.846 . S
C210 C211 1.506 . S
C210 O228 1.261 . S
C210 O229 1.242 . S
C211 C210 1.506 . S
C211 C212 1.358 . S
C211 C216 1.382 . S
C212 C211 1.358 . S
C212 C213 1.385 . S
C212 H240 0.930 . S
C213 C212 1.385 . S
C213 C214 1.395 . S
C213 H241 0.929 . S
C214 C213 1.395 . S
C214 C215 1.335 . S
C215 C214 1.335 . S
C215 C216 1.398 . S
C215 H242 0.930 . S
C216 C211 1.382 . S
C216 C215 1.398 . S
C216 H243 0.929 . S
C217 O230 1.271 . S
C217 O231 1.251 . S
C218 O232 1.252 . S
C218 O233 1.272 . S
C219 Sm209 2.846 1_655 S
C219 C220 1.506 . S
C219 O234 1.261 . S
C219 O235 1.242 . S
C220 C219 1.506 . S
C220 C221 1.358 . S
C220 C225 1.382 . S
C221 C220 1.358 . S
C221 C222 1.385 . S
C221 H244 0.930 . S
C222 C221 1.385 . S
C222 C223 1.395 . S
C222 H245 0.929 . S
C223 C222 1.395 . S
C223 C224 1.335 . S
C224 C223 1.335 . S
C224 C225 1.398 . S
C224 H246 0.930 . S
C225 C220 1.382 . S
C225 C224 1.398 . S
C225 H247 0.929 . S
C226 O236 1.271 . S
C226 O237 1.251 . S
C227 O238 1.252 . S
C227 O239 1.272 1_556 S
O228 Sm208 2.543 . S
O228 C210 1.261 . S
O229 Sm208 2.450 . S
O229 C210 1.242 . S
O230 Sm208 2.681 1_655 S
O230 Sm209 2.386 1_654 S
O230 C217 1.271 . S
O231 Sm208 2.464 1_655 S
O231 C217 1.251 . S
O232 Sm208 2.396 . S
O232 C218 1.252 . S
O233 Sm209 2.408 1_554 S
O233 C218 1.272 . S
O234 Sm209 2.543 1_655 S
O234 C219 1.261 . S
O235 Sm209 2.450 1_655 S
O235 C219 1.242 . S
O236 Sm208 2.386 1_556 S
O236 Sm209 2.681 . S
O236 C226 1.271 . S
O237 Sm209 2.464 . S
O237 C226 1.251 . S
O238 Sm209 2.396 1_655 S
O238 C227 1.252 . S
O239 Sm208 2.408 1_655 S
O239 C227 1.272 1_554 S
H240 C212 0.930 . S
H241 C213 0.929 . S
H242 C215 0.930 . S
H243 C216 0.929 . S
H244 C221 0.930 . S
H245 C222 0.929 . S
H246 C224 0.930 . S
H247 C225 0.929 . S
C248 C249 1.363 . S
C248 C254 1.379 . S
C248 N256 1.356 . S
C249 C248 1.363 . S
C249 C255 1.363 . S
C250 C251 1.363 . S
C250 C255 1.379 . S
C250 N257 1.356 . S
C251 C250 1.363 . S
C251 C254 1.363 . S
N252 C254 1.356 . S
N252 H264 0.984 . S
N252 H265 0.985 . S
N253 C255 1.356 . S
N253 H258 0.984 . S
N253 H259 0.985 . S
C254 C248 1.379 . S
C254 C251 1.363 . S
C254 N252 1.356 . S
C255 C249 1.363 . S
C255 C250 1.379 . S
C255 N253 1.356 . S
N256 C248 1.356 . S
N256 H262 0.984 . S
N256 H263 0.984 . S
N257 C250 1.356 . S
N257 H260 0.984 . S
N257 H261 0.985 . S
H258 N253 0.984 . S
H259 N253 0.985 . S
H260 N257 0.984 . S
H261 N257 0.985 . S
H262 N256 0.984 . S
H263 N256 0.984 . S
H264 N252 0.984 . S
H265 N252 0.985 . S
C266 C267 1.363 . S
C266 C272 1.379 . S
C266 N274 1.356 . S
C267 C266 1.363 . S
C267 C273 1.363 . S
C268 C269 1.363 . S
C268 C273 1.379 . S
C268 N275 1.356 . S
C269 C268 1.363 . S
C269 C272 1.363 . S
N270 C272 1.356 . S
N270 H282 0.984 . S
N270 H283 0.985 . S
N271 C273 1.356 . S
N271 H276 0.984 . S
N271 H277 0.985 . S
C272 C266 1.379 . S
C272 C269 1.363 . S
C272 N270 1.356 . S
C273 C267 1.363 . S
C273 C268 1.379 . S
C273 N271 1.356 . S
N274 C266 1.356 . S
N274 H280 0.984 . S
N274 H281 0.984 . S
N275 C268 1.356 . S
N275 H278 0.984 . S
N275 H279 0.985 . S
H276 N271 0.984 . S
H277 N271 0.985 . S
H278 N275 0.984 . S
H279 N275 0.985 . S
H280 N274 0.984 . S
H281 N274 0.984 . S
H282 N270 0.984 . S
H283 N270 0.985 . S
C284 C285 1.363 . S
C284 C290 1.379 . S
C284 N292 1.356 . S
C285 C284 1.363 . S
C285 C291 1.363 . S
C286 C287 1.363 . S
C286 C291 1.379 . S
C286 N293 1.356 . S
C287 C286 1.363 . S
C287 C290 1.363 . S
N288 C290 1.356 . S
N288 H300 0.984 . S
N288 H301 0.985 . S
N289 C291 1.356 . S
N289 H294 0.984 . S
N289 H295 0.985 . S
C290 C284 1.379 . S
C290 C287 1.363 . S
C290 N288 1.356 . S
C291 C285 1.363 . S
C291 C286 1.379 . S
C291 N289 1.356 . S
N292 C284 1.356 . S
N292 H298 0.984 . S
N292 H299 0.984 . S
N293 C286 1.356 . S
N293 H296 0.984 . S
N293 H297 0.985 . S
H294 N289 0.984 . S
H295 N289 0.985 . S
H296 N293 0.984 . S
H297 N293 0.985 . S
H298 N292 0.984 . S
H299 N292 0.984 . S
H300 N288 0.984 . S
H301 N288 0.985 . S
C302 C303 1.363 . S
C302 C308 1.379 . S
C302 N310 1.356 . S
C303 C302 1.363 . S
C303 C309 1.363 . S
C304 C305 1.363 . S
C304 C309 1.379 . S
C304 N311 1.356 1_655 S
C305 C304 1.363 . S
C305 C308 1.363 . S
N306 C308 1.356 . S
N306 H318 0.984 . S
N306 H319 0.985 . S
N307 C309 1.356 . S
N307 H312 0.984 . S
N307 H313 0.985 1_655 S
C308 C302 1.379 . S
C308 C305 1.363 . S
C308 N306 1.356 . S
C309 C303 1.363 . S
C309 C304 1.379 . S
C309 N307 1.356 . S
N310 C302 1.356 . S
N310 H316 0.984 . S
N310 H317 0.984 . S
N311 C304 1.356 1_455 S
N311 H314 0.984 . S
N311 H315 0.985 . S
H312 N307 0.984 . S
H313 N307 0.985 1_455 S
H314 N311 0.984 . S
H315 N311 0.985 . S
H316 N310 0.984 . S
H317 N310 0.984 . S
H318 N306 0.984 . S
H319 N306 0.985 . S
C320 C321 1.363 . S
C320 C326 1.379 . S
C320 N328 1.356 . S
C321 C320 1.363 . S
C321 C327 1.363 . S
C322 C323 1.363 . S
C322 C327 1.379 . S
C322 N329 1.356 . S
C323 C322 1.363 . S
C323 C326 1.363 . S
N324 C326 1.356 . S
N324 H336 0.984 . S
N324 H337 0.985 . S
N325 C327 1.356 . S
N325 H330 0.984 . S
N325 H331 0.985 . S
C326 C320 1.379 . S
C326 C323 1.363 . S
C326 N324 1.356 . S
C327 C321 1.363 . S
C327 C322 1.379 . S
C327 N325 1.356 . S
N328 C320 1.356 . S
N328 H334 0.984 . S
N328 H335 0.984 . S
N329 C322 1.356 . S
N329 H332 0.984 . S
N329 H333 0.985 . S
H330 N325 0.984 . S
H331 N325 0.985 . S
H332 N329 0.984 . S
H333 N329 0.985 . S
H334 N328 0.984 . S
H335 N328 0.984 . S
H336 N324 0.984 . S
H337 N324 0.985 . S
C338 C339 1.363 . S
C338 C344 1.379 . S
C338 N346 1.356 . S
C339 C338 1.363 . S
C339 C345 1.363 . S
C340 C341 1.363 . S
C340 C345 1.379 . S
C340 N347 1.356 . S
C341 C340 1.363 . S
C341 C344 1.363 . S
N342 C344 1.356 1_545 S
N342 H354 0.984 . S
N342 H355 0.985 . S
N343 C345 1.356 . S
N343 H348 0.984 . S
N343 H349 0.985 . S
C344 C338 1.379 . S
C344 C341 1.363 . S
C344 N342 1.356 1_565 S
C345 C339 1.363 . S
C345 C340 1.379 . S
C345 N343 1.356 . S
N346 C338 1.356 . S
N346 H352 0.984 . S
N346 H353 0.984 . S
N347 C340 1.356 . S
N347 H350 0.984 1_565 S
N347 H351 0.985 . S
H348 N343 0.984 . S
H349 N343 0.985 . S
H350 N347 0.984 1_545 S
H351 N347 0.985 . S
H352 N346 0.984 . S
H353 N346 0.984 . S
H354 N342 0.984 . S
H355 N342 0.985 . S
C356 C357 1.363 . S
C356 C362 1.379 . S
C356 N364 1.356 . S
C357 C356 1.363 . S
C357 C363 1.363 . S
C358 C359 1.363 . S
C358 C363 1.379 . S
C358 N365 1.356 . S
C359 C358 1.363 . S
C359 C362 1.363 . S
N360 C362 1.356 . S
N360 H372 0.984 . S
N360 H373 0.985 . S
N361 C363 1.356 . S
N361 H366 0.984 . S
N361 H367 0.985 . S
C362 C356 1.379 . S
C362 C359 1.363 . S
C362 N360 1.356 . S
C363 C357 1.363 . S
C363 C358 1.379 . S
C363 N361 1.356 . S
N364 C356 1.356 . S
N364 H370 0.984 . S
N364 H371 0.984 . S
N365 C358 1.356 . S
N365 H368 0.984 . S
N365 H369 0.985 . S
H366 N361 0.984 . S
H367 N361 0.985 . S
H368 N365 0.984 . S
H369 N365 0.985 . S
H370 N364 0.984 . S
H371 N364 0.984 . S
H372 N360 0.984 . S
H373 N360 0.985 . S
C374 C375 1.363 . S
C374 C380 1.379 . S
C374 N382 1.356 . S
C375 C374 1.363 . S
C375 C381 1.363 . S
C376 C377 1.363 . S
C376 C381 1.379 . S
C376 N383 1.356 . S
C377 C376 1.363 . S
C377 C380 1.363 . S
N378 C380 1.356 . S
N378 H390 0.984 . S
N378 H391 0.985 . S
N379 C381 1.356 . S
N379 H384 0.984 . S
N379 H385 0.985 . S
C380 C374 1.379 . S
C380 C377 1.363 . S
C380 N378 1.356 . S
C381 C375 1.363 . S
C381 C376 1.379 . S
C381 N379 1.356 . S
N382 C374 1.356 . S
N382 H388 0.984 . S
N382 H389 0.984 . S
N383 C376 1.356 . S
N383 H386 0.984 . S
N383 H387 0.985 . S
H384 N379 0.984 . S
H385 N379 0.985 . S
H386 N383 0.984 . S
H387 N383 0.985 . S
H388 N382 0.984 . S
H389 N382 0.984 . S
H390 N378 0.984 . S
H391 N378 0.985 . S
C392 C393 1.363 . S
C392 C398 1.379 . S
C392 N400 1.356 . S
C393 C392 1.363 . S
C393 C399 1.363 . S
C394 C395 1.363 . S
C394 C399 1.379 . S
C394 N401 1.356 . S
C395 C394 1.363 . S
C395 C398 1.363 . S
N396 C398 1.356 . S
N396 H408 0.984 . S
N396 H409 0.985 . S
N397 C399 1.356 . S
N397 H402 0.984 . S
N397 H403 0.985 . S
C398 C392 1.379 . S
C398 C395 1.363 . S
C398 N396 1.356 . S
C399 C393 1.363 . S
C399 C394 1.379 . S
C399 N397 1.356 . S
N400 C392 1.356 . S
N400 H406 0.984 . S
N400 H407 0.984 . S
N401 C394 1.356 . S
N401 H404 0.984 . S
N401 H405 0.985 . S
H402 N397 0.984 . S
H403 N397 0.985 . S
H404 N401 0.984 . S
H405 N401 0.985 . S
H406 N400 0.984 . S
H407 N400 0.984 . S
H408 N396 0.984 . S
H409 N396 0.985 . S
C410 C411 1.363 . S
C410 C416 1.379 . S
C410 N418 1.356 . S
C411 C410 1.363 . S
C411 C417 1.363 . S
C412 C413 1.363 1_554 S
C412 C417 1.379 1_554 S
C412 N419 1.356 . S
C413 C412 1.363 1_556 S
C413 C416 1.363 . S
N414 C416 1.356 . S
N414 H426 0.984 . S
N414 H427 0.985 . S
N415 C417 1.356 1_554 S
N415 H420 0.984 1_554 S
N415 H421 0.985 . S
C416 C410 1.379 . S
C416 C413 1.363 . S
C416 N414 1.356 . S
C417 C411 1.363 . S
C417 C412 1.379 1_556 S
C417 N415 1.356 1_556 S
N418 C410 1.356 . S
N418 H424 0.984 . S
N418 H425 0.984 . S
N419 C412 1.356 . S
N419 H422 0.984 . S
N419 H423 0.985 . S
H420 N415 0.984 1_556 S
H421 N415 0.985 . S
H422 N419 0.984 . S
H423 N419 0.985 . S
H424 N418 0.984 . S
H425 N418 0.984 . S
H426 N414 0.984 . S
H427 N414 0.985 . S
C428 C429 1.363 . S
C428 C434 1.379 . S
C428 N436 1.356 . S
C429 C428 1.363 . S
C429 C435 1.363 . S
C430 C431 1.363 . S
C430 C435 1.379 . S
C430 N437 1.356 . S
C431 C430 1.363 . S
C431 C434 1.363 . S
N432 C434 1.356 . S
N432 H444 0.984 . S
N432 H445 0.985 . S
N433 C435 1.356 . S
N433 H438 0.984 . S
N433 H439 0.985 . S
C434 C428 1.379 . S
C434 C431 1.363 . S
C434 N432 1.356 . S
C435 C429 1.363 . S
C435 C430 1.379 . S
C435 N433 1.356 . S
N436 C428 1.356 . S
N436 H442 0.984 . S
N436 H443 0.984 . S
N437 C430 1.356 . S
N437 H440 0.984 . S
N437 H441 0.985 . S
H438 N433 0.984 . S
H439 N433 0.985 . S
H440 N437 0.984 . S
H441 N437 0.985 . S
H442 N436 0.984 . S
H443 N436 0.984 . S
H444 N432 0.984 . S
H445 N432 0.985 . S
C446 C447 1.363 . S
C446 C452 1.379 . S
C446 N454 1.356 . S
C447 C446 1.363 . S
C447 C453 1.363 . S
C448 C449 1.363 . S
C448 C453 1.379 . S
C448 N455 1.356 . S
C449 C448 1.363 . S
C449 C452 1.363 . S
N450 C452 1.356 . S
N450 H462 0.984 . S
N450 H463 0.985 . S
N451 C453 1.356 . S
N451 H456 0.984 . S
N451 H457 0.985 . S
C452 C446 1.379 . S
C452 C449 1.363 . S
C452 N450 1.356 . S
C453 C447 1.363 . S
C453 C448 1.379 . S
C453 N451 1.356 . S
N454 C446 1.356 . S
N454 H460 0.984 . S
N454 H461 0.984 . S
N455 C448 1.356 . S
N455 H458 0.984 . S
N455 H459 0.985 . S
H456 N451 0.984 . S
H457 N451 0.985 . S
H458 N455 0.984 . S
H459 N455 0.985 . S
H460 N454 0.984 . S
H461 N454 0.984 . S
H462 N450 0.984 . S
H463 N450 0.985 . S
C464 C465 1.363 . S
C464 C470 1.379 . S
C464 N472 1.356 . S
C465 C464 1.363 . S
C465 C471 1.363 . S
C466 C467 1.363 . S
C466 C471 1.379 . S
C466 N473 1.356 . S
C467 C466 1.363 . S
C467 C470 1.363 . S
N468 C470 1.356 . S
N468 H480 0.984 . S
N468 H481 0.985 . S
N469 C471 1.356 . S
N469 H474 0.984 . S
N469 H475 0.985 . S
C470 C464 1.379 . S
C470 C467 1.363 . S
C470 N468 1.356 . S
C471 C465 1.363 . S
C471 C466 1.379 . S
C471 N469 1.356 . S
N472 C464 1.356 . S
N472 H478 0.984 . S
N472 H479 0.984 . S
N473 C466 1.356 . S
N473 H476 0.984 . S
N473 H477 0.985 . S
H474 N469 0.984 . S
H475 N469 0.985 . S
H476 N473 0.984 . S
H477 N473 0.985 . S
H478 N472 0.984 . S
H479 N472 0.984 . S
H480 N468 0.984 . S
H481 N468 0.985 . S
C482 C483 1.363 . S
C482 C488 1.379 . S
C482 N490 1.356 . S
C483 C482 1.363 . S
C483 C489 1.363 . S
C484 C485 1.363 . S
C484 C489 1.379 . S
C484 N491 1.356 . S
C485 C484 1.363 . S
C485 C488 1.363 . S
N486 C488 1.356 . S
N486 H498 0.984 . S
N486 H499 0.985 . S
N487 C489 1.356 . S
N487 H492 0.984 . S
N487 H493 0.985 . S
C488 C482 1.379 . S
C488 C485 1.363 . S
C488 N486 1.356 . S
C489 C483 1.363 . S
C489 C484 1.379 . S
C489 N487 1.356 . S
N490 C482 1.356 . S
N490 H496 0.984 . S
N490 H497 0.984 . S
N491 C484 1.356 . S
N491 H494 0.984 . S
N491 H495 0.985 . S
H492 N487 0.984 . S
H493 N487 0.985 . S
H494 N491 0.984 . S
H495 N491 0.985 . S
H496 N490 0.984 . S
H497 N490 0.984 . S
H498 N486 0.984 . S
H499 N486 0.985 . S
C500 C501 1.363 . S
C500 C506 1.379 . S
C500 N508 1.356 . S
C501 C500 1.363 . S
C501 C507 1.363 . S
C502 C503 1.363 . S
C502 C507 1.379 . S
C502 N509 1.356 . S
C503 C502 1.363 . S
C503 C506 1.363 . S
N504 C506 1.356 . S
N504 H516 0.984 . S
N504 H517 0.985 . S
N505 C507 1.356 . S
N505 H510 0.984 . S
N505 H511 0.985 . S
C506 C500 1.379 . S
C506 C503 1.363 . S
C506 N504 1.356 . S
C507 C501 1.363 . S
C507 C502 1.379 . S
C507 N505 1.356 . S
N508 C500 1.356 . S
N508 H514 0.984 . S
N508 H515 0.984 . S
N509 C502 1.356 . S
N509 H512 0.984 . S
N509 H513 0.985 . S
H510 N505 0.984 . S
H511 N505 0.985 . S
H512 N509 0.984 . S
H513 N509 0.985 . S
H514 N508 0.984 . S
H515 N508 0.984 . S
H516 N504 0.984 . S
H517 N504 0.985 . S
C518 C519 1.363 . S
C518 C524 1.379 . S
C518 N526 1.356 . S
C519 C518 1.363 . S
C519 C525 1.363 . S
C520 C521 1.363 . S
C520 C525 1.379 . S
C520 N527 1.356 . S
C521 C520 1.363 . S
C521 C524 1.363 . S
N522 C524 1.356 . S
N522 H534 0.984 . S
N522 H535 0.985 . S
N523 C525 1.356 . S
N523 H528 0.984 . S
N523 H529 0.985 . S
C524 C518 1.379 . S
C524 C521 1.363 . S
C524 N522 1.356 . S
C525 C519 1.363 . S
C525 C520 1.379 . S
C525 N523 1.356 . S
N526 C518 1.356 . S
N526 H532 0.984 . S
N526 H533 0.984 . S
N527 C520 1.356 . S
N527 H530 0.984 . S
N527 H531 0.985 . S
H528 N523 0.984 . S
H529 N523 0.985 . S
H530 N527 0.984 . S
H531 N527 0.985 . S
H532 N526 0.984 . S
H533 N526 0.984 . S
H534 N522 0.984 . S
H535 N522 0.985 . S
C536 C537 1.363 . S
C536 C542 1.379 . S
C536 N544 1.356 . S
C537 C536 1.363 . S
C537 C543 1.363 . S
C538 C539 1.363 . S
C538 C543 1.379 . S
C538 N545 1.356 1_556 S
C539 C538 1.363 . S
C539 C542 1.363 . S
N540 C542 1.356 . S
N540 H552 0.984 . S
N540 H553 0.985 . S
N541 C543 1.356 . S
N541 H546 0.984 . S
N541 H547 0.985 . S
C542 C536 1.379 . S
C542 C539 1.363 . S
C542 N540 1.356 . S
C543 C537 1.363 . S
C543 C538 1.379 . S
C543 N541 1.356 . S
N544 C536 1.356 . S
N544 H550 0.984 . S
N544 H551 0.984 . S
N545 C538 1.356 1_554 S
N545 H548 0.984 . S
N545 H549 0.985 . S
H546 N541 0.984 . S
H547 N541 0.985 . S
H548 N545 0.984 . S
H549 N545 0.985 . S
H550 N544 0.984 . S
H551 N544 0.984 . S
H552 N540 0.984 . S
H553 N540 0.985 . S
C554 C555 1.363 . S
C554 C560 1.379 . S
C554 N562 1.356 . S
C555 C554 1.363 . S
C555 C561 1.363 . S
C556 C557 1.363 . S
C556 C561 1.379 . S
C556 N563 1.356 . S
C557 C556 1.363 . S
C557 C560 1.363 . S
N558 C560 1.356 . S
N558 H570 0.984 . S
N558 H571 0.985 . S
N559 C561 1.356 . S
N559 H564 0.984 . S
N559 H565 0.985 . S
C560 C554 1.379 . S
C560 C557 1.363 . S
C560 N558 1.356 . S
C561 C555 1.363 . S
C561 C556 1.379 . S
C561 N559 1.356 . S
N562 C554 1.356 . S
N562 H568 0.984 . S
N562 H569 0.984 . S
N563 C556 1.356 . S
N563 H566 0.984 . S
N563 H567 0.985 . S
H564 N559 0.984 . S
H565 N559 0.985 . S
H566 N563 0.984 . S
H567 N563 0.985 . S
H568 N562 0.984 . S
H569 N562 0.984 . S
H570 N558 0.984 . S
H571 N558 0.985 . S
C572 C573 1.363 . S
C572 C578 1.379 . S
C572 N580 1.356 . S
C573 C572 1.363 . S
C573 C579 1.363 . S
C574 C575 1.363 . S
C574 C579 1.379 . S
C574 N581 1.356 . S
C575 C574 1.363 . S
C575 C578 1.363 . S
N576 C578 1.356 . S
N576 H588 0.984 . S
N576 H589 0.985 . S
N577 C579 1.356 . S
N577 H582 0.984 . S
N577 H583 0.985 . S
C578 C572 1.379 . S
C578 C575 1.363 . S
C578 N576 1.356 . S
C579 C573 1.363 . S
C579 C574 1.379 . S
C579 N577 1.356 . S
N580 C572 1.356 . S
N580 H586 0.984 . S
N580 H587 0.984 . S
N581 C574 1.356 . S
N581 H584 0.984 . S
N581 H585 0.985 . S
H582 N577 0.984 . S
H583 N577 0.985 . S
H584 N581 0.984 . S
H585 N581 0.985 . S
H586 N580 0.984 . S
H587 N580 0.984 . S
H588 N576 0.984 . S
H589 N576 0.985 . S
C590 C591 1.363 . S
C590 C596 1.379 . S
C590 N598 1.356 . S
C591 C590 1.363 . S
C591 C597 1.363 . S
C592 C593 1.363 . S
C592 C597 1.379 . S
C592 N599 1.356 . S
C593 C592 1.363 . S
C593 C596 1.363 . S
N594 C596 1.356 . S
N594 H606 0.984 . S
N594 H607 0.985 . S
N595 C597 1.356 . S
N595 H600 0.984 . S
N595 H601 0.985 . S
C596 C590 1.379 . S
C596 C593 1.363 . S
C596 N594 1.356 . S
C597 C591 1.363 . S
C597 C592 1.379 . S
C597 N595 1.356 . S
N598 C590 1.356 . S
N598 H604 0.984 . S
N598 H605 0.984 . S
N599 C592 1.356 . S
N599 H602 0.984 . S
N599 H603 0.985 . S
H600 N595 0.984 . S
H601 N595 0.985 . S
H602 N599 0.984 . S
H603 N599 0.985 . S
H604 N598 0.984 . S
H605 N598 0.984 . S
H606 N594 0.984 . S
H607 N594 0.985 . S
C608 C609 1.363 . S
C608 C614 1.379 . S
C608 N616 1.356 . S
C609 C608 1.363 . S
C609 C615 1.363 . S
C610 C611 1.363 . S
C610 C615 1.379 . S
C610 N617 1.356 . S
C611 C610 1.363 . S
C611 C614 1.363 . S
N612 C614 1.356 . S
N612 H624 0.984 . S
N612 H625 0.985 . S
N613 C615 1.356 . S
N613 H618 0.984 . S
N613 H619 0.985 . S
C614 C608 1.379 . S
C614 C611 1.363 . S
C614 N612 1.356 . S
C615 C609 1.363 . S
C615 C610 1.379 . S
C615 N613 1.356 . S
N616 C608 1.356 . S
N616 H622 0.984 . S
N616 H623 0.984 . S
N617 C610 1.356 . S
N617 H620 0.984 . S
N617 H621 0.985 . S
H618 N613 0.984 . S
H619 N613 0.985 . S
H620 N617 0.984 . S
H621 N617 0.985 . S
H622 N616 0.984 . S
H623 N616 0.984 . S
H624 N612 0.984 . S
H625 N612 0.985 . S
C626 C627 1.363 . S
C626 C632 1.379 . S
C626 N634 1.356 . S
C627 C626 1.363 . S
C627 C633 1.363 . S
C628 C629 1.363 . S
C628 C633 1.379 . S
C628 N635 1.356 . S
C629 C628 1.363 . S
C629 C632 1.363 . S
N630 C632 1.356 . S
N630 H642 0.984 . S
N630 H643 0.985 . S
N631 C633 1.356 . S
N631 H636 0.984 . S
N631 H637 0.985 . S
C632 C626 1.379 . S
C632 C629 1.363 . S
C632 N630 1.356 . S
C633 C627 1.363 . S
C633 C628 1.379 . S
C633 N631 1.356 . S
N634 C626 1.356 . S
N634 H640 0.984 . S
N634 H641 0.984 . S
N635 C628 1.356 . S
N635 H638 0.984 . S
N635 H639 0.985 . S
H636 N631 0.984 . S
H637 N631 0.985 . S
H638 N635 0.984 . S
H639 N635 0.985 . S
H640 N634 0.984 . S
H641 N634 0.984 . S
H642 N630 0.984 . S
H643 N630 0.985 . S
C644 C645 1.363 . S
C644 C650 1.379 . S
C644 N652 1.356 . S
C645 C644 1.363 . S
C645 C651 1.363 . S
C646 C647 1.363 . S
C646 C651 1.379 . S
C646 N653 1.356 . S
C647 C646 1.363 . S
C647 C650 1.363 . S
N648 C650 1.356 . S
N648 H660 0.984 . S
N648 H661 0.985 . S
N649 C651 1.356 . S
N649 H654 0.984 . S
N649 H655 0.985 . S
C650 C644 1.379 . S
C650 C647 1.363 . S
C650 N648 1.356 . S
C651 C645 1.363 . S
C651 C646 1.379 . S
C651 N649 1.356 . S
N652 C644 1.356 . S
N652 H658 0.984 . S
N652 H659 0.984 . S
N653 C646 1.356 . S
N653 H656 0.984 . S
N653 H657 0.985 . S
H654 N649 0.984 . S
H655 N649 0.985 . S
H656 N653 0.984 . S
H657 N653 0.985 . S
H658 N652 0.984 . S
H659 N652 0.984 . S
H660 N648 0.984 . S
H661 N648 0.985 . S
C662 C663 1.363 . S
C662 C668 1.379 . S
C662 N670 1.356 . S
C663 C662 1.363 . S
C663 C669 1.363 . S
C664 C665 1.363 . S
C664 C669 1.379 . S
C664 N671 1.356 . S
C665 C664 1.363 . S
C665 C668 1.363 . S
N666 C668 1.356 . S
N666 H678 0.984 . S
N666 H679 0.985 . S
N667 C669 1.356 . S
N667 H672 0.984 . S
N667 H673 0.985 . S
C668 C662 1.379 . S
C668 C665 1.363 . S
C668 N666 1.356 . S
C669 C663 1.363 . S
C669 C664 1.379 . S
C669 N667 1.356 . S
N670 C662 1.356 . S
N670 H676 0.984 . S
N670 H677 0.984 . S
N671 C664 1.356 . S
N671 H674 0.984 . S
N671 H675 0.985 . S
H672 N667 0.984 . S
H673 N667 0.985 . S
H674 N671 0.984 . S
H675 N671 0.985 . S
H676 N670 0.984 . S
H677 N670 0.984 . S
H678 N666 0.984 . S
H679 N666 0.985 . S
C249 C4 1.131 . S
C251 C94 1.160 . S
C267 C16 1.266 . S
C269 C143 1.282 . S
C287 C178 2.162 . S
C285 C32 2.204 . S
C303 C43 2.381 . S
C305 C217 2.326 . S
C323 C138 2.526 . S
C321 C5 2.356 . S
C341 C97 0.531 . S
C339 C21 0.565 . S
C359 C227 1.963 . S
C357 C27 2.021 . S
C377 C186 1.768 . S
C375 C37 1.761 . S
C393 C10 1.444 . S
C395 C214 1.483 . S
C413 C146 2.514 1_556 S
C411 C26 2.610 . S
C429 C38 2.147 . S
C431 C107 2.148 . S
C447 C15 1.312 . S
C449 C183 1.342 . S
C467 C103 1.234 . S
C465 C48 1.220 . S
C483 C59 1.178 . S
C485 C134 1.182 . S
C501 C76 2.510 . S
C503 C187 2.461 . S
C519 C87 2.243 . S
C521 C226 2.237 . S
C537 C54 1.899 . S
C539 C147 2.071 1_556 S
C557 C106 1.278 . S
C555 C60 1.314 . S
C575 C218 1.852 . S
C573 C71 1.900 . S
C593 C177 1.712 . S
C591 C82 1.784 . S
C609 C49 1.664 . S
C611 C223 1.805 . S
C629 C137 2.038 . S
C627 C70 2.127 . S
C647 C98 2.538 . S
C645 C81 2.547 . S
C663 C65 1.080 . S
C665 C174 1.097 . S
