# Generated by pormake.
# Topology eea, (3,6)-cn, num edge types: 1
# Building blocks:
#     Node 0, Type 0, BuildingBlock: ESEHIV_clean_linker_0, # of connection points: 3
#     Node 1, Type 0, BuildingBlock: ESEHIV_clean_linker_0, # of connection points: 3
#     Node 2, Type 0, BuildingBlock: ESEHIV_clean_linker_0, # of connection points: 3
#     Node 3, Type 0, BuildingBlock: ESEHIV_clean_linker_0, # of connection points: 3
#     Node 4, Type 0, BuildingBlock: ESEHIV_clean_linker_0, # of connection points: 3
#     Node 5, Type 0, BuildingBlock: ESEHIV_clean_linker_0, # of connection points: 3
#     Node 6, Type 0, BuildingBlock: ESEHIV_clean_linker_0, # of connection points: 3
#     Node 7, Type 0, BuildingBlock: ESEHIV_clean_linker_0, # of connection points: 3
#     Node 8, Type 0, BuildingBlock: ESEHIV_clean_linker_0, # of connection points: 3
#     Node 9, Type 0, BuildingBlock: ESEHIV_clean_linker_0, # of connection points: 3
#     Node 10, Type 0, BuildingBlock: ESEHIV_clean_linker_0, # of connection points: 3
#     Node 11, Type 0, BuildingBlock: ESEHIV_clean_linker_0, # of connection points: 3
#     Node 12, Type 0, BuildingBlock: ESEHIV_clean_linker_0, # of connection points: 3
#     Node 13, Type 0, BuildingBlock: ESEHIV_clean_linker_0, # of connection points: 3
#     Node 14, Type 0, BuildingBlock: ESEHIV_clean_linker_0, # of connection points: 3
#     Node 15, Type 0, BuildingBlock: ESEHIV_clean_linker_0, # of connection points: 3
#     Node 16, Type 0, BuildingBlock: ESEHIV_clean_linker_0, # of connection points: 3
#     Node 17, Type 0, BuildingBlock: ESEHIV_clean_linker_0, # of connection points: 3
#     Node 18, Type 1, BuildingBlock: KUMBUR_clean_sbu_0, # of connection points: 6
#     Node 19, Type 1, BuildingBlock: KUMBUR_clean_sbu_0, # of connection points: 6
#     Node 20, Type 1, BuildingBlock: KUMBUR_clean_sbu_0, # of connection points: 6
#     Node 21, Type 1, BuildingBlock: KUMBUR_clean_sbu_0, # of connection points: 6
#     Node 22, Type 1, BuildingBlock: KUMBUR_clean_sbu_0, # of connection points: 6
#     Node 23, Type 1, BuildingBlock: KUMBUR_clean_sbu_0, # of connection points: 6
#     Node 24, Type 1, BuildingBlock: KUMBUR_clean_sbu_0, # of connection points: 6
#     Node 25, Type 1, BuildingBlock: KUMBUR_clean_sbu_0, # of connection points: 6
#     Node 26, Type 1, BuildingBlock: KUMBUR_clean_sbu_0, # of connection points: 6
#     Edge 27, Type (0, 1), BuildingBlock: CIFDUS_clean_linker_0, # of connection points: 2
#     Edge 28, Type (0, 1), BuildingBlock: CIFDUS_clean_linker_0, # of connection points: 2
#     Edge 29, Type (0, 1), BuildingBlock: CIFDUS_clean_linker_0, # of connection points: 2
#     Edge 30, Type (0, 1), BuildingBlock: CIFDUS_clean_linker_0, # of connection points: 2
#     Edge 31, Type (0, 1), BuildingBlock: CIFDUS_clean_linker_0, # of connection points: 2
#     Edge 32, Type (0, 1), BuildingBlock: CIFDUS_clean_linker_0, # of connection points: 2
#     Edge 33, Type (0, 1), BuildingBlock: CIFDUS_clean_linker_0, # of connection points: 2
#     Edge 34, Type (0, 1), BuildingBlock: CIFDUS_clean_linker_0, # of connection points: 2
#     Edge 35, Type (0, 1), BuildingBlock: CIFDUS_clean_linker_0, # of connection points: 2
#     Edge 36, Type (0, 1), BuildingBlock: CIFDUS_clean_linker_0, # of connection points: 2
#     Edge 37, Type (0, 1), BuildingBlock: CIFDUS_clean_linker_0, # of connection points: 2
#     Edge 38, Type (0, 1), BuildingBlock: CIFDUS_clean_linker_0, # of connection points: 2
#     Edge 39, Type (0, 1), BuildingBlock: CIFDUS_clean_linker_0, # of connection points: 2
#     Edge 40, Type (0, 1), BuildingBlock: CIFDUS_clean_linker_0, # of connection points: 2
#     Edge 41, Type (0, 1), BuildingBlock: CIFDUS_clean_linker_0, # of connection points: 2
#     Edge 42, Type (0, 1), BuildingBlock: CIFDUS_clean_linker_0, # of connection points: 2
#     Edge 43, Type (0, 1), BuildingBlock: CIFDUS_clean_linker_0, # of connection points: 2
#     Edge 44, Type (0, 1), BuildingBlock: CIFDUS_clean_linker_0, # of connection points: 2
#     Edge 45, Type (0, 1), BuildingBlock: CIFDUS_clean_linker_0, # of connection points: 2
#     Edge 46, Type (0, 1), BuildingBlock: CIFDUS_clean_linker_0, # of connection points: 2
#     Edge 47, Type (0, 1), BuildingBlock: CIFDUS_clean_linker_0, # of connection points: 2
#     Edge 48, Type (0, 1), BuildingBlock: CIFDUS_clean_linker_0, # of connection points: 2
#     Edge 49, Type (0, 1), BuildingBlock: CIFDUS_clean_linker_0, # of connection points: 2
#     Edge 50, Type (0, 1), BuildingBlock: CIFDUS_clean_linker_0, # of connection points: 2
#     Edge 51, Type (0, 1), BuildingBlock: CIFDUS_clean_linker_0, # of connection points: 2
#     Edge 52, Type (0, 1), BuildingBlock: CIFDUS_clean_linker_0, # of connection points: 2
#     Edge 53, Type (0, 1), BuildingBlock: CIFDUS_clean_linker_0, # of connection points: 2
#     Edge 54, Type (0, 1), BuildingBlock: CIFDUS_clean_linker_0, # of connection points: 2
#     Edge 55, Type (0, 1), BuildingBlock: CIFDUS_clean_linker_0, # of connection points: 2
#     Edge 56, Type (0, 1), BuildingBlock: CIFDUS_clean_linker_0, # of connection points: 2
#     Edge 57, Type (0, 1), BuildingBlock: CIFDUS_clean_linker_0, # of connection points: 2
#     Edge 58, Type (0, 1), BuildingBlock: CIFDUS_clean_linker_0, # of connection points: 2
#     Edge 59, Type (0, 1), BuildingBlock: CIFDUS_clean_linker_0, # of connection points: 2
#     Edge 60, Type (0, 1), BuildingBlock: CIFDUS_clean_linker_0, # of connection points: 2
#     Edge 61, Type (0, 1), BuildingBlock: CIFDUS_clean_linker_0, # of connection points: 2
#     Edge 62, Type (0, 1), BuildingBlock: CIFDUS_clean_linker_0, # of connection points: 2
#     Edge 63, Type (0, 1), BuildingBlock: CIFDUS_clean_linker_0, # of connection points: 2
#     Edge 64, Type (0, 1), BuildingBlock: CIFDUS_clean_linker_0, # of connection points: 2
#     Edge 65, Type (0, 1), BuildingBlock: CIFDUS_clean_linker_0, # of connection points: 2
#     Edge 66, Type (0, 1), BuildingBlock: CIFDUS_clean_linker_0, # of connection points: 2
#     Edge 67, Type (0, 1), BuildingBlock: CIFDUS_clean_linker_0, # of connection points: 2
#     Edge 68, Type (0, 1), BuildingBlock: CIFDUS_clean_linker_0, # of connection points: 2
#     Edge 69, Type (0, 1), BuildingBlock: CIFDUS_clean_linker_0, # of connection points: 2
#     Edge 70, Type (0, 1), BuildingBlock: CIFDUS_clean_linker_0, # of connection points: 2
#     Edge 71, Type (0, 1), BuildingBlock: CIFDUS_clean_linker_0, # of connection points: 2
#     Edge 72, Type (0, 1), BuildingBlock: CIFDUS_clean_linker_0, # of connection points: 2
#     Edge 73, Type (0, 1), BuildingBlock: CIFDUS_clean_linker_0, # of connection points: 2
#     Edge 74, Type (0, 1), BuildingBlock: CIFDUS_clean_linker_0, # of connection points: 2
#     Edge 75, Type (0, 1), BuildingBlock: CIFDUS_clean_linker_0, # of connection points: 2
#     Edge 76, Type (0, 1), BuildingBlock: CIFDUS_clean_linker_0, # of connection points: 2
#     Edge 77, Type (0, 1), BuildingBlock: CIFDUS_clean_linker_0, # of connection points: 2
#     Edge 78, Type (0, 1), BuildingBlock: CIFDUS_clean_linker_0, # of connection points: 2
#     Edge 79, Type (0, 1), BuildingBlock: CIFDUS_clean_linker_0, # of connection points: 2
#     Edge 80, Type (0, 1), BuildingBlock: CIFDUS_clean_linker_0, # of connection points: 2
# Relax obj value: 0.008
# Max RMSD: 0.089
# Mean RMSD: 0.080
data_MOF--net-eea--node1-KUMBUR_clean_sbu_0--node2-ESEHIV_clean_linker_0--edge1-CIFDUS_clean_linker_0
_symmetry_space_group_name_H-M    P1
_symmetry_Int_Tables_number       1
_symmetry_cell_setting            triclinic
loop_
_symmetry_equiv_pos_as_xyz
'x, y, z'
_cell_length_a     40.633983
_cell_length_b     41.983538
_cell_length_c     62.413306
_cell_angle_alpha  89.621326
_cell_angle_beta   89.845967
_cell_angle_gamma 119.79936
loop_
_atom_site_label
_atom_site_type_symbol
_atom_site_fract_x
_atom_site_fract_y
_atom_site_fract_z
_atom_type_partial_charge
H0 H 0.29005 0.18225 0.44717 0.0
H1 H 0.28525 0.07825 0.4555 0.0
H2 H 0.22288 0.09313 0.40471 0.0
C3 C 0.27916 0.15404 0.44234 0.0
C4 C 0.25586 0.14057 0.42418 0.0
C5 C 0.28973 0.13156 0.45379 0.0
C6 C 0.27668 0.09543 0.44692 0.0
C7 C 0.2529 0.08141 0.42907 0.0
C8 C 0.24224 0.10406 0.41807 0.0
H9 H 0.83974 0.089 0.4479 0.0
H10 H 0.93799 0.19676 0.44956 0.0
H11 H 0.91797 0.12894 0.39454 0.0
C12 C 0.86545 0.11021 0.44041 0.0
C13 C 0.87558 0.1047 0.4197 0.0
C14 C 0.88804 0.143 0.45157 0.0
C15 C 0.92079 0.17094 0.44147 0.0
C16 C 0.93151 0.16601 0.42087 0.0
C17 C 0.90923 0.13268 0.41029 0.0
H18 H 0.84003 0.76425 0.45153 0.0
H19 H 0.94112 0.75523 0.45037 0.0
H20 H 0.92085 0.81357 0.3999 0.0
C21 C 0.86654 0.77018 0.44395 0.0
C22 C 0.87777 0.79046 0.42458 0.0
C23 C 0.8893 0.75737 0.4535 0.0
C24 C 0.92332 0.76477 0.44313 0.0
C25 C 0.93518 0.78519 0.42384 0.0
C26 C 0.91233 0.79824 0.41487 0.0
H27 H 0.08849 0.26096 0.58987 0.0
H28 H 0.19388 0.26006 0.59212 0.0
H29 H 0.12109 0.22778 0.64774 0.0
C30 C 0.10821 0.25516 0.59834 0.0
C31 C 0.10034 0.24296 0.6198 0.0
C32 C 0.14169 0.26122 0.588 0.0
C33 C 0.1677 0.25515 0.59968 0.0
C34 C 0.16051 0.24294 0.62115 0.0
C35 C 0.12636 0.23621 0.63105 0.0
H36 H 0.71706 0.90841 0.59312 0.0
H37 H 0.72287 0.80909 0.59376 0.0
H38 H 0.78172 0.89094 0.64161 0.0
C39 C 0.72672 0.89117 0.60056 0.0
C40 C 0.74961 0.90351 0.61895 0.0
C41 C 0.71703 0.85723 0.59128 0.0
C42 C 0.73114 0.83579 0.6004 0.0
C43 C 0.75512 0.848 0.61828 0.0
C44 C 0.76383 0.88171 0.6276 0.0
H45 H 0.08514 0.81441 0.59455 0.0
H46 H 0.18229 0.92298 0.59573 0.0
H47 H 0.10468 0.88229 0.64943 0.0
C48 C 0.10203 0.8404 0.60254 0.0
C49 C 0.09138 0.84515 0.62319 0.0
C50 C 0.13441 0.86858 0.59226 0.0
C51 C 0.15679 0.90159 0.60331 0.0
C52 C 0.14674 0.90698 0.6241 0.0
C53 C 0.11335 0.87869 0.63362 0.0
H54 H 0.93743 0.51468 0.78132 0.0
H55 H 0.9366 0.4122 0.78602 0.0
H56 H 0.87579 0.4294 0.73528 0.0
C57 C 0.92769 0.48721 0.77545 0.0
C58 C 0.90544 0.47508 0.75673 0.0
C59 C 0.93903 0.46458 0.78606 0.0
C60 C 0.92752 0.42947 0.778 0.0
C61 C 0.90491 0.41657 0.75965 0.0
C62 C 0.89391 0.43952 0.74919 0.0
H63 H 0.51349 0.40526 0.78991 0.0
H64 H 0.61109 0.51387 0.78711 0.0
H65 H 0.58793 0.43964 0.73497 0.0
C66 C 0.53814 0.42623 0.78144 0.0
C67 C 0.54747 0.41826 0.76115 0.0
C68 C 0.56082 0.4606 0.79112 0.0
C69 C 0.5935 0.48712 0.7801 0.0
C70 C 0.60373 0.47944 0.76002 0.0
C71 C 0.58061 0.44503 0.75072 0.0
H72 H 0.50448 0.10055 0.77784 0.0
H73 H 0.60943 0.09899 0.77588 0.0
H74 H 0.58232 0.15178 0.72502 0.0
C75 C 0.53135 0.10829 0.77008 0.0
C76 C 0.5405 0.12765 0.7504 0.0
C77 C 0.55612 0.09793 0.77946 0.0
C78 C 0.59027 0.107 0.76879 0.0
C79 C 0.60021 0.12654 0.74921 0.0
C80 C 0.57539 0.13738 0.74029 0.0
H81 H 0.74049 0.57654 0.93187 0.0
H82 H 0.85018 0.58418 0.93153 0.0
H83 H 0.77725 0.53986 0.98666 0.0
C84 C 0.76159 0.57176 0.9395 0.0
C85 C 0.75439 0.55627 0.96027 0.0
C86 C 0.796 0.58186 0.92877 0.0
C87 C 0.82344 0.57658 0.93941 0.0
C88 C 0.81706 0.56171 0.96026 0.0
C89 C 0.78209 0.55076 0.97045 0.0
H90 H 0.39708 0.25172 0.93108 0.0
H91 H 0.40554 0.15417 0.92673 0.0
H92 H 0.4614 0.23045 0.97792 0.0
C93 C 0.40715 0.2341 0.93752 0.0
C94 C 0.42923 0.24451 0.95618 0.0
C95 C 0.39848 0.20165 0.92678 0.0
C96 C 0.41305 0.17979 0.93461 0.0
C97 C 0.43621 0.19007 0.95289 0.0
C98 C 0.44402 0.22248 0.96368 0.0
H99 H 0.75747 0.15146 0.92344 0.0
H100 H 0.84863 0.26271 0.91798 0.0
H101 H 0.78054 0.22618 0.97556 0.0
C102 C 0.77391 0.17866 0.93014 0.0
C103 C 0.76528 0.18545 0.95088 0.0
C104 C 0.80386 0.20635 0.91811 0.0
C105 C 0.82527 0.24133 0.92709 0.0
C106 C 0.81726 0.24896 0.94778 0.0
C107 C 0.78696 0.22079 0.95958 0.0
H108 H 0.60747 0.85128 0.12196 0.0
H109 H 0.60242 0.74686 0.12349 0.0
H110 H 0.57004 0.78199 0.06632 0.0
C111 C 0.60152 0.8262 0.11392 0.0
C112 C 0.58794 0.82002 0.09273 0.0
C113 C 0.60704 0.8001 0.12507 0.0
C114 C 0.59813 0.76705 0.11494 0.0
C115 C 0.58467 0.76014 0.09376 0.0
C116 C 0.57937 0.78669 0.08282 0.0
H117 H 0.17604 0.7452 0.11676 0.0
H118 H 0.26689 0.85686 0.11436 0.0
H119 H 0.24869 0.78607 0.06089 0.0
C120 C 0.19994 0.76715 0.10828 0.0
C121 C 0.20972 0.76097 0.08759 0.0
C122 C 0.22004 0.80178 0.11793 0.0
C123 C 0.25098 0.83024 0.10688 0.0
C124 C 0.26187 0.82477 0.08642 0.0
C125 C 0.24121 0.78998 0.07694 0.0
H126 H 0.16504 0.41253 0.11717 0.0
H127 H 0.27653 0.42441 0.11464 0.0
H128 H 0.23565 0.46037 0.0614 0.0
C129 C 0.19162 0.42117 0.10883 0.0
C130 C 0.19679 0.43667 0.08814 0.0
C131 C 0.22031 0.41699 0.11883 0.0
C132 C 0.25451 0.42837 0.10753 0.0
C133 C 0.26045 0.44426 0.08689 0.0
C134 C 0.23167 0.44896 0.07746 0.0
H135 H 0.42098 0.92207 0.25991 0.0
H136 H 0.52494 0.91811 0.26232 0.0
H137 H 0.45468 0.89216 0.31853 0.0
C138 C 0.44065 0.91634 0.26847 0.0
C139 C 0.43326 0.90544 0.29017 0.0
C140 C 0.47356 0.92094 0.25801 0.0
C141 C 0.49929 0.91463 0.26986 0.0
C142 C 0.49277 0.90446 0.29161 0.0
C143 C 0.45941 0.8993 0.30164 0.0
H144 H 0.06233 0.57292 0.26583 0.0
H145 H 0.06667 0.47273 0.2666 0.0
H146 H 0.11867 0.55119 0.31721 0.0
C147 C 0.07085 0.55502 0.27361 0.0
C148 C 0.09114 0.56591 0.29283 0.0
C149 C 0.06166 0.52142 0.26411 0.0
C150 C 0.07416 0.49895 0.27368 0.0
C151 C 0.09476 0.50954 0.29293 0.0
C152 C 0.1031 0.54306 0.30231 0.0
H153 H 0.42748 0.48552 0.26374 0.0
H154 H 0.53075 0.58918 0.26949 0.0
H155 H 0.44429 0.55449 0.31808 0.0
C156 C 0.44491 0.5108 0.27228 0.0
C157 C 0.43158 0.51728 0.29172 0.0
C158 C 0.48081 0.53665 0.26404 0.0
C159 C 0.5031 0.56899 0.27563 0.0
C160 C 0.49035 0.57552 0.29518 0.0
C161 C 0.45443 0.54962 0.30304 0.0
Tb162 Tb 0.49852 0.98319 0.99449 0.0
C163 C 0.58128 0.11263 0.05459 0.0
C164 C 0.64698 0.13054 0.04856 0.0
C165 C 0.63004 0.17649 0.05843 0.0
C166 C 0.60826 0.10354 0.04902 0.0
C167 C 0.59182 0.14891 0.06017 0.0
C168 C 0.65762 0.16731 0.05258 0.0
C169 C 0.52719 0.12677 0.07169 0.0
N170 N 0.54499 0.08499 0.05654 0.0
C171 C 0.51832 0.09116 0.06609 0.0
C172 C 0.56396 0.15593 0.06832 0.0
Tb173 Tb 0.53224 0.02775 0.04598 0.0
N174 N 0.59669 0.0676 0.04579 0.0
C175 C 0.62302 0.05648 0.04381 0.0
C176 C 0.67382 0.11953 0.04497 0.0
C177 C 0.6618 0.08224 0.04301 0.0
H178 H 0.48979 0.06878 0.06864 0.0
H179 H 0.68236 0.07329 0.04077 0.0
H180 H 0.68718 0.18857 0.05203 0.0
H181 H 0.50566 0.13168 0.07859 0.0
H182 H 0.61449 0.0279 0.0421 0.0
H183 H 0.34835 0.93765 0.99708 0.0
H184 H 0.70385 0.1394 0.04442 0.0
H185 H 0.54441 0.94168 0.9767 0.0
H186 H 0.41625 0.98295 0.99803 0.0
H187 H 0.52922 0.87907 0.96672 0.0
H188 H 0.63872 0.20468 0.06235 0.0
H189 H 0.3272 0.87212 0.99097 0.0
H190 H 0.34441 0.8236 0.98269 0.0
H191 H 0.57085 0.18343 0.07283 0.0
H192 H 0.3937 0.80758 0.97436 0.0
N193 N 0.43428 0.94368 0.99305 0.0
C194 C 0.40785 0.95462 0.99525 0.0
C195 C 0.35724 0.89195 0.99136 0.0
C196 C 0.38433 0.88121 0.9879 0.0
C197 C 0.36908 0.92891 0.99475 0.0
C198 C 0.42304 0.90812 0.98871 0.0
H199 H 0.46276 0.82821 0.9681 0.0
N200 N 0.48722 0.92632 0.98423 0.0
C201 C 0.50681 0.88428 0.97169 0.0
C202 C 0.45053 0.89909 0.98413 0.0
C203 C 0.51529 0.91976 0.9773 0.0
C204 C 0.46927 0.85563 0.97253 0.0
C205 C 0.44047 0.86295 0.97849 0.0
O206 O 0.52689 0.99669 0.96463 0.0
O207 O 0.54311 0.02801 1.01205 0.0
O208 O 0.52004 0.06466 0.02704 0.0
O209 O 0.48252 0.02571 0.99955 0.0
O210 O 0.55912 0.00339 0.98957 0.0
O211 O 0.47635 1.00015 0.96914 0.0
O212 O 0.50584 0.01465 0.07646 0.0
O213 O 0.48737 0.98379 0.02823 0.0
O214 O 0.50504 0.94453 1.01524 0.0
O215 O 0.54819 0.98523 0.03997 0.0
O216 O 0.47151 0.00631 0.05194 0.0
O217 O 0.55545 0.01043 0.07056 0.0
C218 C 0.57182 0.03002 1.00291 0.0
C219 C 0.48988 0.98887 0.93387 0.0
C220 C 0.49175 0.99826 0.89486 0.0
C221 C 0.5024 0.01248 0.91577 0.0
C222 C 0.46806 0.96016 0.89252 0.0
C223 C 0.46617 0.95109 0.93098 0.0
C224 C 0.45535 0.93689 0.91043 0.0
C225 C 0.49667 0.05662 1.01061 0.0
C226 C 0.50248 0.00387 0.95556 0.0
C227 C 0.40205 0.83563 0.97846 0.0
C228 C 0.374 0.84475 0.98319 0.0
C229 C 0.45859 0.98097 0.03774 0.0
C230 C 0.54711 0.02639 0.10562 0.0
C231 C 0.53643 0.00623 0.12508 0.0
C232 C 0.5523 0.02382 0.1447 0.0
C233 C 0.57799 0.06187 0.14445 0.0
C234 C 0.5734 0.06405 0.10598 0.0
C235 C 0.58844 0.08169 0.12526 0.0
C236 C 0.5302 0.95256 0.03069 0.0
C237 C 0.53117 0.00826 0.08497 0.0
H238 H 0.52091 0.0417 0.91794 0.0
H239 H 0.45888 0.94832 0.8768 0.0
H240 H 0.45608 0.93255 0.94458 0.0
H241 H 0.437 0.90766 0.90836 0.0
H242 H 0.51657 0.97698 0.12488 0.0
H243 H 0.59007 0.07647 0.15919 0.0
H244 H 0.58249 0.07988 0.09136 0.0
H245 H 0.60846 0.11086 0.12532 0.0
Tb246 Tb 0.03431 0.51324 1.00049 0.0
C247 C 0.88979 0.43986 0.05512 0.0
C248 C 0.86505 0.48139 0.05179 0.0
C249 C 0.82183 0.4162 0.05748 0.0
C250 C 0.89582 0.47475 0.05179 0.0
C251 C 0.85288 0.41026 0.0587 0.0
C252 C 0.82791 0.45176 0.054 0.0
C253 C 0.88068 0.37252 0.06712 0.0
N254 N 0.92061 0.43555 0.05655 0.0
C255 C 0.91673 0.40291 0.06362 0.0
C256 C 0.84854 0.37603 0.06428 0.0
Tb257 Tb 0.97852 0.48624 0.04945 0.0
N258 N 0.93217 0.50253 0.05011 0.0
C259 C 0.93974 0.53816 0.0502 0.0
C260 C 0.87264 0.51768 0.05036 0.0
C261 C 0.9102 0.54621 0.04994 0.0
H262 H 0.9414 0.39994 0.06592 0.0
H263 H 0.91645 0.57445 0.04933 0.0
H264 H 0.80384 0.45623 0.05377 0.0
H265 H 0.87774 0.34646 0.07205 0.0
H266 H 0.96848 0.56066 0.04971 0.0
H267 H 0.09062 0.42042 0.99817 0.0
H268 H 0.84982 0.52399 0.05021 0.0
H269 H 0.07476 0.60193 0.98863 0.0
H270 H 0.0404 0.43672 0.99924 0.0
H271 H 0.13955 0.65413 0.98324 0.0
H272 H 0.79316 0.39375 0.05993 0.0
H273 H 0.15799 0.46911 0.99648 0.0
H274 H 0.20598 0.53642 0.99351 0.0
H275 H 0.82067 0.35255 0.06717 0.0
H276 H 0.21939 0.6002 0.98952 0.0
N277 N 0.07859 0.49453 0.9987 0.0
C278 C 0.06951 0.45847 0.99839 0.0
C279 C 0.13599 0.47653 0.99692 0.0
C280 C 0.14506 0.5133 0.99602 0.0
C281 C 0.09801 0.44899 0.99782 0.0
C282 C 0.11532 0.52142 0.99678 0.0
H283 H 0.19473 0.64438 0.98543 0.0
N284 N 0.09314 0.56318 0.99449 0.0
C285 C 0.13528 0.62699 0.98654 0.0
C286 C 0.1229 0.5571 0.99466 0.0
C287 C 0.09861 0.59733 0.98954 0.0
C288 C 0.16636 0.6214 0.98785 0.0
C289 C 0.16035 0.58598 0.99156 0.0
O290 O 0.02415 0.53314 0.97168 0.0
O291 O 0.98302 0.50368 1.01649 0.0
O292 O 0.9463 0.44207 0.02708 0.0
O293 O 0.99225 0.45353 1.00066 0.0
O294 O 1.00962 0.54899 0.99723 0.0
O295 O 0.02521 0.48239 0.97243 0.0
O296 O 0.99267 0.47067 0.0786 0.0
O297 O 0.0295 0.49526 0.03327 0.0
O298 O 0.06725 0.55502 0.02447 0.0
O299 O 0.01842 0.5461 0.04783 0.0
O300 O 1.00396 0.45109 0.05326 0.0
O301 O 0.98514 0.51778 0.07688 0.0
C302 C 0.97993 0.52998 1.00888 0.0
C303 C 0.04193 0.51603 0.93974 0.0
C304 C 0.03982 0.52033 0.90066 0.0
C305 C 0.02124 0.51035 0.92074 0.0
C306 C 0.07958 0.53638 0.90004 0.0
C307 C 0.08143 0.53174 0.93868 0.0
C308 C 0.10011 0.54193 0.91891 0.0
C309 C 0.95887 0.43233 1.01019 0.0
C310 C 0.02172 0.50608 0.96045 0.0
C311 C 0.19033 0.57836 0.99167 0.0
C312 C 0.1827 0.54205 0.99391 0.0
C313 C 0.03296 0.46922 0.04098 0.0
C314 C 0.96904 0.48411 0.10944 0.0
C315 C 0.9878 0.48644 0.1287 0.0
C316 C 0.96738 0.47401 0.14811 0.0
C317 C 0.92771 0.45872 0.1478 0.0
C318 C 0.92961 0.46943 0.10957 0.0
C319 C 0.90907 0.4566 0.12865 0.0
C320 C 0.05355 0.56615 0.04024 0.0
C321 C 0.99102 0.49619 0.08937 0.0
H322 H 0.99063 0.49769 0.92165 0.0
H323 H 0.09494 0.54498 0.88497 0.0
H324 H 0.0978 0.53621 0.95307 0.0
H325 H 0.13066 0.55427 0.9182 0.0
H326 H 0.01838 0.49852 0.12856 0.0
H327 H 0.91103 0.44832 0.16236 0.0
H328 H 0.9147 0.46787 0.095 0.0
H329 H 0.87859 0.44501 0.12861 0.0
Tb330 Tb 0.52945 0.49788 0.04648 0.0
C331 C 0.43176 0.54161 0.99244 0.0
C332 C 0.36778 0.4911 0.99665 0.0
C333 C 0.37864 0.55285 0.99056 0.0
C334 C 0.40729 0.50493 0.99616 0.0
C335 C 0.41784 0.566 0.98908 0.0
C336 C 0.35362 0.51541 0.99437 0.0
C337 C 0.48201 0.61362 0.9813 0.0
N338 N 0.46927 0.55301 0.99102 0.0
C339 C 0.49437 0.58827 0.9847 0.0
C340 C 0.44363 0.60257 0.98377 0.0
Tb341 Tb 0.48726 0.51011 0.99813 0.0
N342 N 0.42222 0.48251 0.99815 0.0
C343 C 0.39873 0.44528 0.99894 0.0
C344 C 0.34375 0.45322 0.99882 0.0
C345 C 0.35931 0.43017 0.99962 0.0
H346 H 0.52415 0.59728 0.98289 0.0
H347 H 0.34099 0.40073 1.00088 0.0
H348 H 0.32338 0.5054 0.99496 0.0
H349 H 0.50213 0.64167 0.97681 0.0
H350 H 0.41005 0.42696 0.99977 0.0
H351 H 0.67555 0.60784 0.04389 0.0
H352 H 0.31323 0.44146 0.99936 0.0
H353 H 0.49278 0.41018 0.0607 0.0
H354 H 0.60647 0.58137 0.04482 0.0
H355 H 0.51515 0.36592 0.06616 0.0
H356 H 0.36736 0.57119 0.98826 0.0
H357 H 0.70358 0.56736 0.04542 0.0
H358 H 0.69376 0.50352 0.04947 0.0
H359 H 0.43412 0.62222 0.98107 0.0
H360 H 0.65003 0.43751 0.05555 0.0
N361 N 0.59453 0.52586 0.04653 0.0
C362 C 0.61789 0.56312 0.04572 0.0
C363 C 0.67305 0.55547 0.04594 0.0
C364 C 0.64915 0.51755 0.04798 0.0
C365 C 0.65733 0.57839 0.04512 0.0
C366 C 0.60961 0.50353 0.04844 0.0
H367 H 0.58333 0.38597 0.06211 0.0
N368 N 0.54763 0.45496 0.05304 0.0
C369 C 0.53518 0.39418 0.06202 0.0
C370 C 0.58525 0.46668 0.0518 0.0
C371 C 0.52263 0.41944 0.05897 0.0
C372 C 0.57366 0.40557 0.05967 0.0
C373 C 0.59935 0.44237 0.05484 0.0
O374 O 0.50266 0.47888 0.07646 0.0
O375 O 0.47983 0.49481 0.0316 0.0
O376 O 0.49106 0.55099 0.0212 0.0
O377 O 0.53908 0.55434 0.04319 0.0
O378 O 0.47125 0.45383 0.05246 0.0
O379 O 0.55057 0.53321 0.073 0.0
O380 O 0.5123 0.52846 0.96763 0.0
O381 O 0.53668 0.51363 1.0132 0.0
O382 O 0.52691 0.45819 0.02314 0.0
O383 O 0.47756 0.45355 1.00189 0.0
O384 O 0.54567 0.55369 0.99168 0.0
O385 O 0.46749 0.47293 0.97244 0.0
C386 C 0.45417 0.46605 0.04056 0.0
C387 C 0.54037 0.50389 0.10695 0.0
C388 C 0.53631 0.50133 0.14621 0.0
C389 C 0.52452 0.50779 0.12617 0.0
C390 C 0.56426 0.49078 0.1465 0.0
C391 C 0.56843 0.49381 0.10774 0.0
C392 C 0.58024 0.48728 0.12743 0.0
C393 C 0.51783 0.56786 0.03578 0.0
C394 C 0.52604 0.50887 0.08629 0.0
C395 C 0.6386 0.45579 0.05348 0.0
C396 C 0.66349 0.49336 0.05004 0.0
C397 C 0.56256 0.54187 1.00401 0.0
C398 C 0.47396 0.49881 0.93779 0.0
C399 C 0.48603 0.48969 0.91871 0.0
C400 C 0.47035 0.49101 0.89877 0.0
C401 C 0.44293 0.50222 0.89833 0.0
C402 C 0.44646 0.50962 0.93684 0.0
C403 C 0.43117 0.51141 0.91719 0.0
C404 C 0.49961 0.44071 1.009 0.0
C405 C 0.49039 0.49716 0.95853 0.0
H406 H 0.50318 0.51606 0.12542 0.0
H407 H 0.57352 0.48471 0.16146 0.0
H408 H 0.58095 0.49069 0.09318 0.0
H409 H 0.60168 0.47915 0.12792 0.0
H410 H 0.50706 0.481 0.91947 0.0
H411 H 0.43071 0.50418 0.88332 0.0
H412 H 0.43685 0.51672 0.95125 0.0
H413 H 0.41007 0.51997 0.91658 0.0
Tb414 Tb 0.16923 0.30013 0.32836 0.0
C415 C 0.25364 0.44461 0.37767 0.0
C416 C 0.31917 0.45974 0.37536 0.0
C417 C 0.30353 0.50852 0.37744 0.0
C418 C 0.28016 0.43359 0.37582 0.0
C419 C 0.26489 0.48211 0.37922 0.0
C420 C 0.33068 0.49733 0.37548 0.0
C421 C 0.19959 0.46415 0.38685 0.0
N422 N 0.21682 0.41818 0.37964 0.0
C423 C 0.19003 0.4273 0.38535 0.0
C424 C 0.23711 0.49174 0.38338 0.0
Tb425 Tb 0.20309 0.35859 0.37557 0.0
N426 N 0.2677 0.39707 0.37602 0.0
C427 C 0.29319 0.38489 0.37787 0.0
C428 C 0.34531 0.44729 0.37561 0.0
C429 C 0.33224 0.4097 0.37731 0.0
H430 H 0.16099 0.40613 0.38808 0.0
H431 H 0.35221 0.39976 0.37807 0.0
H432 H 0.36049 0.51788 0.37482 0.0
H433 H 0.17804 0.47123 0.39069 0.0
H434 H 0.28377 0.35597 0.37904 0.0
H435 H 0.02054 0.26116 0.32721 0.0
H436 H 0.37554 0.46644 0.3752 0.0
H437 H 0.21104 0.25184 0.31687 0.0
H438 H 0.08894 0.30415 0.32716 0.0
H439 H 0.19294 0.18688 0.31245 0.0
H440 H 0.31279 0.53753 0.37831 0.0
H441 H 0.99626 0.19423 0.32684 0.0
H442 H 1.01026 0.14229 0.32457 0.0
H443 H 0.24452 0.52026 0.3847 0.0
H444 H 0.05731 0.12194 0.32054 0.0
N445 N 0.10443 0.26239 0.32746 0.0
C446 C 0.07931 0.27518 0.32694 0.0
C447 C 0.02657 0.21305 0.32684 0.0
C448 C 0.05229 0.20012 0.32603 0.0
C449 C 0.04018 0.25079 0.32699 0.0
C450 C 0.09143 0.22584 0.3262 0.0
H451 H 0.1256 0.13844 0.3157 0.0
N452 N 0.1547 0.24048 0.32335 0.0
C453 C 0.17142 0.19421 0.31585 0.0
C454 C 0.1176 0.21443 0.32412 0.0
C455 C 0.18156 0.23106 0.31836 0.0
C456 C 0.13342 0.16695 0.31776 0.0
C457 C 0.10583 0.17695 0.32157 0.0
O458 O 0.19809 0.30604 0.29914 0.0
O459 O 0.21495 0.34792 0.34337 0.0
O460 O 0.19489 0.39087 0.35073 0.0
O461 O 0.15515 0.34433 0.32718 0.0
O462 O 0.22874 0.31546 0.32555 0.0
O463 O 0.15017 0.31433 0.30043 0.0
O464 O 0.17484 0.35351 0.4049 0.0
O465 O 0.15807 0.31074 0.36054 0.0
O466 O 0.17656 0.26742 0.35353 0.0
O467 O 0.21669 0.31407 0.37701 0.0
O468 O 0.14266 0.34056 0.37932 0.0
O469 O 0.22385 0.34691 0.40368 0.0
C470 C 0.24265 0.34506 0.33652 0.0
C471 C 0.16244 0.29493 0.26737 0.0
C472 C 0.15644 0.29798 0.22835 0.0
C473 C 0.16953 0.31567 0.24825 0.0
C474 C 0.13686 0.25933 0.22799 0.0
C475 C 0.14259 0.25652 0.26646 0.0
C476 C 0.13005 0.2389 0.24686 0.0
C477 C 0.17129 0.37842 0.33433 0.0
C478 C 0.17567 0.31361 0.28812 0.0
C479 C 0.06697 0.15093 0.32226 0.0
C480 C 0.0402 0.16251 0.32453 0.0
C481 C 0.12953 0.31122 0.3681 0.0
C482 C 0.21206 0.36808 0.4362 0.0
C483 C 0.20327 0.34903 0.456 0.0
C484 C 0.21687 0.36829 0.4754 0.0
C485 C 0.23873 0.40687 0.47456 0.0
C486 C 0.23415 0.40645 0.4359 0.0
C487 C 0.24723 0.42568 0.45499 0.0
C488 C 0.19956 0.27964 0.3703 0.0
C489 C 0.19839 0.34767 0.41601 0.0
H490 H 0.1845 0.34538 0.24894 0.0
H491 H 0.12694 0.24479 0.21302 0.0
H492 H 0.13679 0.24013 0.28087 0.0
H493 H 0.11491 0.20921 0.24629 0.0
H494 H 0.18657 0.31932 0.45624 0.0
H495 H 0.24911 0.42263 0.48911 0.0
H496 H 0.24136 0.42155 0.42094 0.0
H497 H 0.26412 0.45533 0.45462 0.0
Tb498 Tb 0.70819 0.85523 0.33293 0.0
C499 C 0.56407 0.79788 0.37546 0.0
C500 C 0.55489 0.85053 0.37618 0.0
C501 C 0.5013 0.79016 0.36938 0.0
C502 C 0.57891 0.83518 0.37761 0.0
C503 C 0.52473 0.77475 0.37228 0.0
C504 C 0.51639 0.82804 0.37131 0.0
C505 C 0.53323 0.72279 0.37894 0.0
N506 N 0.58747 0.78394 0.37854 0.0
C507 C 0.57182 0.74686 0.38224 0.0
C508 C 0.50971 0.73676 0.3733 0.0
Tb509 Tb 0.65161 0.82624 0.38114 0.0
N510 N 0.61639 0.85612 0.38219 0.0
C511 C 0.63024 0.89215 0.38785 0.0
C512 C 0.56996 0.88785 0.38025 0.0
C513 C 0.60758 0.90851 0.38657 0.0
H514 H 0.58919 0.73534 0.38721 0.0
H515 H 0.61918 0.93714 0.3906 0.0
H516 H 0.49778 0.83951 0.36975 0.0
H517 H 0.52164 0.6935 0.38094 0.0
H518 H 0.65854 0.90911 0.3937 0.0
H519 H 0.7432 0.74696 0.33469 0.0
H520 H 0.55251 0.90065 0.37926 0.0
H521 H 0.76125 0.94304 0.31972 0.0
H522 H 0.70056 0.77294 0.33293 0.0
H523 H 0.82964 0.9889 0.31703 0.0
H524 H 0.47121 0.77288 0.36653 0.0
H525 H 0.81267 0.78826 0.33666 0.0
H526 H 0.8681 0.85286 0.33616 0.0
H527 H 0.47971 0.71811 0.37096 0.0
H528 H 0.89176 0.91913 0.33171 0.0
N529 N 0.74525 0.8284 0.33415 0.0
C530 C 0.73074 0.79126 0.33368 0.0
C531 C 0.79406 0.7998 0.33581 0.0
C532 C 0.80878 0.83783 0.33523 0.0
C533 C 0.75487 0.77642 0.33464 0.0
C534 C 0.78326 0.85136 0.33419 0.0
H535 H 0.8776 0.97021 0.3242 0.0
N536 N 0.77069 0.89962 0.32958 0.0
C537 C 0.82073 0.96078 0.32145 0.0
C538 C 0.7965 0.88842 0.33197 0.0
C539 C 0.78211 0.93481 0.32296 0.0
C540 C 0.8477 0.95015 0.32557 0.0
C541 C 0.83572 0.91334 0.33036 0.0
O542 O 0.70441 0.87919 0.30391 0.0
O543 O 0.65659 0.84573 0.34857 0.0
O544 O 0.63608 0.77706 0.36161 0.0
O545 O 0.65785 0.80223 0.3278 0.0
O546 O 0.68627 0.89348 0.33144 0.0
O547 O 0.70353 0.8277 0.30405 0.0
O548 O 0.64323 0.78735 0.40523 0.0
O549 O 0.69693 0.82461 0.36291 0.0
O550 O 0.73891 0.89907 0.35603 0.0
O551 O 0.69422 0.88462 0.38355 0.0
O552 O 0.70571 0.83788 0.39462 0.0
O553 O 0.65021 0.84058 0.41301 0.0
C554 C 0.65528 0.87359 0.342 0.0
C555 C 0.72534 0.86357 0.27243 0.0
C556 C 0.7275 0.86771 0.23329 0.0
C557 C 0.70676 0.85761 0.25266 0.0
C558 C 0.76722 0.8839 0.23408 0.0
C559 C 0.76489 0.8794 0.27285 0.0
C560 C 0.78568 0.88959 0.25373 0.0
C561 C 0.63575 0.77442 0.34046 0.0
C562 C 0.70266 0.85287 0.29227 0.0
C563 C 0.86147 0.90038 0.33259 0.0
C564 C 0.848 0.86264 0.33506 0.0
C565 C 0.72072 0.83264 0.37798 0.0
C566 C 0.6201 0.79409 0.43912 0.0
C567 C 0.63719 0.798 0.45911 0.0
C568 C 0.61547 0.7873 0.47805 0.0
C569 C 0.57592 0.77195 0.47664 0.0
C570 C 0.58071 0.77896 0.43789 0.0
C571 C 0.5587 0.76763 0.45663 0.0
C572 C 0.72696 0.90684 0.37392 0.0
C573 C 0.64519 0.80939 0.42043 0.0
H574 H 0.67617 0.84549 0.2524 0.0
H575 H 0.784 0.89165 0.21948 0.0
H576 H 0.77965 0.88378 0.28785 0.0
H577 H 0.81623 0.90181 0.25413 0.0
H578 H 0.66783 0.81087 0.45995 0.0
H579 H 0.55841 0.76335 0.49097 0.0
H580 H 0.56712 0.77655 0.42264 0.0
H581 H 0.52827 0.75598 0.45569 0.0
Tb582 Tb 0.19861 0.82037 0.38406 0.0
C583 C 0.10608 0.86658 0.32683 0.0
C584 C 0.04123 0.82032 0.33427 0.0
C585 C 0.05598 0.882 0.32404 0.0
C586 C 0.08014 0.83145 0.33304 0.0
C587 C 0.09432 0.89205 0.32153 0.0
C588 C 0.02943 0.84613 0.33045 0.0
C589 C 0.15809 0.93338 0.30911 0.0
N590 N 0.14258 0.8748 0.32434 0.0
C591 C 0.16822 0.90701 0.31455 0.0
C592 C 0.12113 0.92616 0.313 0.0
Tb593 Tb 0.15746 0.83097 0.33468 0.0
N594 N 0.09281 0.80741 0.33614 0.0
C595 C 0.06728 0.77077 0.33848 0.0
C596 C 0.01531 0.78332 0.33834 0.0
C597 C 0.02836 0.75832 0.34 0.0
H598 H 0.1969 0.91296 0.31154 0.0
H599 H 1.0085 0.72944 0.34258 0.0
H600 H 0.99973 0.83828 0.33161 0.0
H601 H 0.17881 0.95926 0.30195 0.0
H602 H 0.07663 0.75095 0.33998 0.0
H603 H 0.34567 0.92743 0.378 0.0
H604 H 0.98518 0.77362 0.33948 0.0
H605 H 0.16039 0.73406 0.40086 0.0
H606 H 0.27687 0.90269 0.37955 0.0
H607 H 0.1813 0.689 0.40806 0.0
H608 H 0.04638 0.9013 0.32034 0.0
H609 H 0.37217 0.88584 0.38128 0.0
H610 H 0.36078 0.82188 0.38769 0.0
H611 H 0.11328 0.94652 0.30867 0.0
H612 H 0.31597 0.7568 0.39582 0.0
N613 N 0.26353 0.84692 0.38319 0.0
C614 C 0.2876 0.88393 0.38112 0.0
C615 C 0.34174 0.87468 0.38201 0.0
C616 C 0.31717 0.83713 0.38529 0.0
C617 C 0.32689 0.89824 0.3802 0.0
C618 C 0.2778 0.82405 0.38596 0.0
H619 H 0.24893 0.70702 0.40371 0.0
N620 N 0.21546 0.77696 0.3919 0.0
C621 C 0.20171 0.71664 0.403 0.0
C622 C 0.25281 0.78767 0.3904 0.0
C623 C 0.18999 0.7423 0.39898 0.0
C624 C 0.23989 0.72688 0.40048 0.0
C625 C 0.26611 0.76297 0.39446 0.0
O626 O 0.1752 0.80371 0.41504 0.0
O627 O 0.15004 0.81924 0.36888 0.0
O628 O 0.16782 0.87789 0.35426 0.0
O629 O 0.20986 0.87699 0.37972 0.0
O630 O 0.13979 0.77944 0.3912 0.0
O631 O 0.22049 0.85873 0.40904 0.0
O632 O 0.18328 0.84276 0.30409 0.0
O633 O 0.20559 0.83267 0.35033 0.0
O634 O 0.19211 0.77724 0.36221 0.0
O635 O 0.14355 0.77389 0.34088 0.0
O636 O 0.21703 0.87087 0.32716 0.0
O637 O 0.13255 0.79167 0.31027 0.0
C638 C 0.12373 0.79215 0.37885 0.0
C639 C 0.21635 0.83424 0.44379 0.0
C640 C 0.22283 0.84318 0.48266 0.0
C641 C 0.20571 0.84392 0.46313 0.0
C642 C 0.2504 0.83216 0.48241 0.0
C643 C 0.2441 0.82371 0.44404 0.0
C644 C 0.26091 0.82259 0.46325 0.0
C645 C 0.19269 0.89285 0.36995 0.0
C646 C 0.19837 0.83528 0.42352 0.0
C647 C 0.30516 0.7754 0.39296 0.0
C648 C 0.33066 0.81245 0.38836 0.0
C649 C 0.23264 0.85875 0.34029 0.0
C650 C 0.14287 0.81531 0.27476 0.0
C651 C 0.15784 0.80889 0.25591 0.0
C652 C 0.14534 0.81311 0.23554 0.0
C653 C 0.11741 0.82359 0.23446 0.0
C654 C 0.115 0.82559 0.27319 0.0
C655 C 0.10237 0.82966 0.25313 0.0
C656 C 0.1643 0.75998 0.34834 0.0
C657 C 0.15741 0.81224 0.29585 0.0
H658 H 0.18457 0.8525 0.46289 0.0
H659 H 0.26363 0.83052 0.4971 0.0
H660 H 0.25279 0.81636 0.42943 0.0
H661 H 0.28217 0.81421 0.46331 0.0
H662 H 0.17965 0.80127 0.25712 0.0
H663 H 0.10679 0.82662 0.21913 0.0
H664 H 0.10304 0.8305 0.28744 0.0
H665 H 0.08081 0.83756 0.25205 0.0
Tb666 Tb 0.82396 0.65018 0.67055 0.0
C667 C 0.91126 0.78659 0.72619 0.0
C668 C 0.97606 0.80056 0.7213 0.0
C669 C 0.96251 0.84971 0.72859 0.0
C670 C 0.93686 0.77511 0.72193 0.0
C671 C 0.92371 0.8238 0.73035 0.0
C672 C 0.98869 0.83809 0.72401 0.0
C673 C 0.85941 0.80606 0.74049 0.0
N674 N 0.87427 0.76058 0.72809 0.0
C675 C 0.84864 0.76946 0.73631 0.0
C676 C 0.89701 0.83349 0.7371 0.0
Tb677 Tb 0.85845 0.70145 0.72014 0.0
N678 N 0.92337 0.7386 0.71979 0.0
C679 C 0.94815 0.72546 0.71877 0.0
C680 C 1.00135 0.78737 0.71871 0.0
C681 C 0.98733 0.74959 0.71782 0.0
H682 H 0.81953 0.7484 0.73901 0.0
H683 H 1.00666 0.73899 0.71633 0.0
H684 H 0.01866 0.85815 0.72333 0.0
H685 H 0.83874 0.81306 0.74635 0.0
H686 H 0.93807 0.69642 0.71795 0.0
H687 H 0.67494 0.60978 0.67138 0.0
H688 H 0.03168 0.80599 0.71804 0.0
H689 H 0.86635 0.60463 0.65422 0.0
H690 H 0.74333 0.65345 0.67109 0.0
H691 H 0.84882 0.54043 0.64691 0.0
H692 H 0.97267 0.87854 0.73145 0.0
H693 H 0.65144 0.54306 0.66938 0.0
H694 H 0.66622 0.49196 0.66459 0.0
H695 H 0.90538 0.86178 0.74051 0.0
H696 H 0.71371 0.47296 0.65771 0.0
N697 N 0.75933 0.61215 0.66965 0.0
C698 C 0.7339 0.62456 0.67012 0.0
C699 C 0.68168 0.56217 0.66926 0.0
C700 C 0.70773 0.54978 0.66723 0.0
C701 C 0.69484 0.59979 0.67032 0.0
C702 C 0.74677 0.57584 0.66727 0.0
H703 H 0.78196 0.49099 0.65063 0.0
N704 N 0.81014 0.59165 0.66254 0.0
C705 C 0.82725 0.54697 0.65169 0.0
C706 C 0.7732 0.56518 0.66351 0.0
C707 C 0.83706 0.58336 0.6558 0.0
C708 C 0.78951 0.51913 0.65387 0.0
C709 C 0.76179 0.52814 0.65948 0.0
O710 O 0.85316 0.66066 0.641 0.0
O711 O 0.86922 0.69626 0.68683 0.0
O712 O 0.84815 0.73689 0.69868 0.0
O713 O 0.80998 0.69459 0.67259 0.0
O714 O 0.88406 0.66745 0.66672 0.0
O715 O 0.80324 0.66545 0.64369 0.0
O716 O 0.83023 0.69143 0.74997 0.0
O717 O 0.81258 0.65579 0.70379 0.0
O718 O 0.83048 0.61337 0.69323 0.0
O719 O 0.87111 0.65628 0.71817 0.0
O720 O 0.79869 0.68469 0.72456 0.0
O721 O 0.88031 0.68704 0.74675 0.0
C722 C 0.89749 0.69604 0.67861 0.0
C723 C 0.81826 0.65237 0.60917 0.0
C724 C 0.82156 0.66066 0.56994 0.0
C725 C 0.83134 0.67546 0.59081 0.0
C726 C 0.79811 0.62242 0.56796 0.0
C727 C 0.79493 0.61447 0.60658 0.0
C728 C 0.78493 0.59968 0.5861 0.0
C729 C 0.82484 0.72702 0.68211 0.0
C730 C 0.8298 0.66803 0.63086 0.0
C731 C 0.72309 0.50166 0.66051 0.0
C732 C 0.69606 0.51247 0.66442 0.0
C733 C 0.7847 0.65685 0.71206 0.0
C734 C 0.8683 0.70387 0.78072 0.0
C735 C 0.85854 0.68312 0.79993 0.0
C736 C 0.8719 0.70062 0.81983 0.0
C737 C 0.89433 0.73916 0.82012 0.0
C738 C 0.89126 0.74211 0.78154 0.0
C739 C 0.90392 0.75962 0.80113 0.0
C740 C 0.85356 0.62285 0.70993 0.0
C741 C 0.85467 0.68542 0.75995 0.0
H742 H 0.8496 0.70477 0.59278 0.0
H743 H 0.78943 0.61003 0.55233 0.0
H744 H 0.7845 0.59632 0.62038 0.0
H745 H 0.76682 0.57036 0.58425 0.0
H746 H 0.84132 0.65348 0.7993 0.0
H747 H 0.90446 0.75362 0.8351 0.0
H748 H 0.89951 0.75849 0.76708 0.0
H749 H 0.92139 0.7892 0.80161 0.0
Tb750 Tb 0.36967 0.18434 0.66732 0.0
C751 C 0.21775 0.11177 0.71665 0.0
C752 C 0.19707 0.1565 0.71376 0.0
C753 C 0.15041 0.09172 0.71734 0.0
C754 C 0.22626 0.14758 0.71421 0.0
C755 C 0.17981 0.08339 0.71886 0.0
C756 C 0.15904 0.12828 0.71476 0.0
C757 C 0.20316 0.04166 0.72628 0.0
N758 N 0.24701 0.10511 0.71832 0.0
C759 C 0.24031 0.07088 0.72411 0.0
C760 C 0.17271 0.04781 0.7233 0.0
Tb761 Tb 0.307 0.15409 0.71347 0.0
N762 N 0.26333 0.17388 0.71355 0.0
C763 C 0.27311 0.21012 0.71424 0.0
C764 C 0.20703 0.19351 0.713 0.0
C765 C 0.24524 0.22044 0.7136 0.0
H766 H 0.26354 0.06571 0.72645 0.0
H767 H 0.2533 0.24919 0.71348 0.0
H768 H 0.13619 0.13452 0.7142 0.0
H769 H 0.19805 0.01444 0.73024 0.0
H770 H 0.30238 0.23148 0.71456 0.0
H771 H 0.42053 0.08744 0.66213 0.0
H772 H 0.18551 0.20156 0.71254 0.0
H773 H 0.41498 0.27477 0.66082 0.0
H774 H 0.37224 0.10639 0.66248 0.0
H775 H 0.48128 0.32566 0.65987 0.0
H776 H 0.12102 0.07028 0.71876 0.0
H777 H 0.48852 0.13393 0.66495 0.0
H778 H 0.53873 0.20058 0.66679 0.0
H779 H 0.14397 0.0252 0.72511 0.0
H780 H 0.55535 0.26558 0.66617 0.0
N781 N 0.41212 0.16338 0.66592 0.0
C782 C 0.40169 0.1272 0.66357 0.0
C783 C 0.4674 0.14251 0.66504 0.0
C784 C 0.47804 0.17966 0.66618 0.0
C785 C 0.42907 0.11622 0.6634 0.0
C786 C 0.44938 0.18928 0.66637 0.0
H787 H 0.53409 0.31256 0.66328 0.0
N788 N 0.4301 0.23334 0.66522 0.0
C789 C 0.47533 0.29763 0.66169 0.0
C790 C 0.45873 0.22562 0.66603 0.0
C791 C 0.43781 0.26873 0.66215 0.0
C792 C 0.50506 0.29014 0.66368 0.0
C793 C 0.49698 0.2537 0.66552 0.0
O794 O 0.36757 0.20984 0.63865 0.0
O795 O 0.31718 0.1757 0.68124 0.0
O796 O 0.27633 0.11336 0.68877 0.0
O797 O 0.32572 0.12581 0.66449 0.0
O798 O 0.34749 0.22238 0.66373 0.0
O799 O 0.36164 0.1558 0.6385 0.0
O800 O 0.31605 0.13429 0.74264 0.0
O801 O 0.35876 0.16118 0.69912 0.0
O802 O 0.40061 0.22014 0.69402 0.0
O803 O 0.34935 0.21337 0.71419 0.0
O804 O 0.32749 0.11495 0.71696 0.0
O805 O 0.31447 0.1847 0.7414 0.0
C806 C 0.31605 0.2032 0.67393 0.0
C807 C 0.38614 0.19217 0.60716 0.0
C808 C 0.38842 0.19582 0.56805 0.0
C809 C 0.36778 0.18687 0.58742 0.0
C810 C 0.42793 0.21029 0.56882 0.0
C811 C 0.42549 0.20657 0.60763 0.0
C812 C 0.44626 0.21562 0.5885 0.0
C813 C 0.29055 0.10504 0.67194 0.0
C814 C 0.36339 0.18256 0.62691 0.0
C815 C 0.52575 0.24442 0.66632 0.0
C816 C 0.51629 0.20742 0.66666 0.0
C817 C 0.35829 0.13261 0.70602 0.0
C818 C 0.29591 0.15078 0.77381 0.0
C819 C 0.3156 0.15604 0.79304 0.0
C820 C 0.29616 0.14588 0.8128 0.0
C821 C 0.25647 0.13037 0.81294 0.0
C822 C 0.25641 0.13542 0.77422 0.0
C823 C 0.23682 0.12524 0.79375 0.0
C824 C 0.38595 0.23146 0.70909 0.0
C825 C 0.31744 0.16106 0.75363 0.0
H826 H 0.33723 0.17518 0.58718 0.0
H827 H 0.44471 0.21777 0.55423 0.0
H828 H 0.4401 0.2108 0.62268 0.0
H829 H 0.47667 0.22683 0.58893 0.0
H830 H 0.34623 0.16851 0.79257 0.0
H831 H 0.24057 0.12187 0.82784 0.0
H832 H 0.24079 0.13129 0.75954 0.0
H833 H 0.20629 0.11325 0.79401 0.0
Tb834 Tb 0.86362 0.15947 0.70991 0.0
C835 C 0.7724 0.21046 0.65612 0.0
C836 C 0.70727 0.16432 0.66296 0.0
C837 C 0.72306 0.22709 0.65497 0.0
C838 C 0.74604 0.17498 0.66147 0.0
C839 C 0.76121 0.23675 0.65204 0.0
C840 C 0.69607 0.19086 0.66045 0.0
C841 C 0.825 0.27814 0.63963 0.0
N842 N 0.80866 0.21825 0.65305 0.0
C843 C 0.83452 0.25092 0.64379 0.0
C844 C 0.78835 0.27129 0.64418 0.0
Tb845 Tb 0.82262 0.17296 0.66136 0.0
N846 N 0.75813 0.15026 0.66333 0.0
C847 C 0.73213 0.11359 0.66471 0.0
C848 C 0.68087 0.12714 0.66599 0.0
C849 C 0.69333 0.10159 0.66642 0.0
H850 H 0.86298 0.25653 0.64034 0.0
H851 H 0.67309 0.07262 0.66821 0.0
H852 H 0.6665 0.18335 0.66189 0.0
H853 H 0.84593 0.30437 0.63295 0.0
H854 H 0.741 0.09333 0.66526 0.0
H855 H 0.01154 0.26469 0.70452 0.0
H856 H 0.65083 0.11778 0.66729 0.0
H857 H 0.82392 0.07243 0.7255 0.0
H858 H 0.94296 0.24113 0.70619 0.0
H859 H 0.84355 0.02611 0.73154 0.0
H860 H 0.71392 0.24701 0.65222 0.0
H861 H 0.03674 0.22192 0.7066 0.0
H862 H 0.02397 0.15724 0.71172 0.0
H863 H 0.78095 0.29229 0.64081 0.0
H864 H 0.97816 0.0921 0.71898 0.0
N865 N 0.92842 0.18488 0.70878 0.0
C866 C 0.9531 0.22185 0.70726 0.0
C867 C 1.0064 0.21128 0.7074 0.0
C868 C 0.98122 0.17371 0.71011 0.0
C869 C 0.99228 0.23549 0.70627 0.0
C870 C 0.94199 0.16133 0.71091 0.0
H871 H 0.91077 0.04296 0.72668 0.0
N872 N 0.8793 0.11489 0.71665 0.0
C873 C 0.86434 0.05378 0.72676 0.0
C874 C 0.91645 0.12492 0.7149 0.0
C875 C 0.85336 0.08015 0.7234 0.0
C876 C 0.90229 0.06337 0.72394 0.0
C877 C 0.92903 0.0995 0.71831 0.0
O878 O 0.8405 0.14154 0.74083 0.0
O879 O 0.81552 0.16015 0.69537 0.0
O880 O 0.83425 0.21923 0.68192 0.0
O881 O 0.87628 0.2169 0.70678 0.0
O882 O 0.8045 0.11936 0.71711 0.0
O883 O 0.88613 0.19669 0.73539 0.0
O884 O 0.84597 0.18707 0.63021 0.0
O885 O 0.87026 0.17273 0.67634 0.0
O886 O 0.85557 0.11655 0.68737 0.0
O887 O 0.80766 0.11509 0.66621 0.0
O888 O 0.8826 0.21116 0.65325 0.0
O889 O 0.79739 0.13434 0.63671 0.0
C890 C 0.78893 0.1331 0.70517 0.0
C891 C 0.88222 0.17051 0.76957 0.0
C892 C 0.88916 0.17784 0.80845 0.0
C893 C 0.87168 0.1792 0.78923 0.0
C894 C 0.91696 0.16718 0.80763 0.0
C895 C 0.91012 0.16017 0.76919 0.0
C896 C 0.92727 0.15841 0.78813 0.0
C897 C 0.85948 0.23355 0.69747 0.0
C898 C 0.86407 0.17265 0.74964 0.0
C899 C 0.9679 0.11125 0.71662 0.0
C900 C 0.99398 0.14833 0.71251 0.0
C901 C 0.89765 0.19821 0.6662 0.0
C902 C 0.80223 0.1599 0.60222 0.0
C903 C 0.81395 0.1539 0.58212 0.0
C904 C 0.79708 0.15719 0.5631 0.0
C905 C 0.7688 0.16717 0.56462 0.0
C906 C 0.77365 0.16929 0.60323 0.0
C907 C 0.7572 0.17308 0.58453 0.0
C908 C 0.82765 0.10014 0.67344 0.0
C909 C 0.82009 0.1565 0.62197 0.0
H910 H 0.85043 0.18765 0.78949 0.0
H911 H 0.93055 0.16532 0.82212 0.0
H912 H 0.91872 0.15355 0.7543 0.0
H913 H 0.9487 0.15027 0.78771 0.0
H914 H 0.83568 0.14612 0.58136 0.0
H915 H 0.75576 0.17069 0.55037 0.0
H916 H 0.76396 0.17365 0.61844 0.0
H917 H 0.73533 0.1806 0.58548 0.0
H918 H 0.32167 0.82586 0.06509 0.0
H919 H 0.27431 0.8944 0.08184 0.0
H920 H 0.32942 0.94783 0.06635 0.0
H921 H 0.39335 0.97627 0.05068 0.0
H922 H 0.44265 0.90904 0.03536 0.0
H923 H 0.38463 0.85413 0.04705 0.0
C924 C 0.32322 0.8524 0.06504 0.0
C925 C 0.29405 0.85615 0.0749 0.0
C926 C 0.35543 0.88334 0.05628 0.0
C927 C 0.29661 0.89082 0.07475 0.0
C928 C 0.32808 0.92141 0.06582 0.0
C929 C 0.39108 0.94947 0.04959 0.0
C930 C 0.42202 0.94675 0.04171 0.0
C931 C 0.35801 0.91817 0.05696 0.0
C932 C 0.41902 0.91195 0.04076 0.0
C933 C 0.38587 0.8805 0.0477 0.0
H934 H 0.19398 0.49541 0.07042 0.0
H935 H 0.12666 0.37883 0.08188 0.0
H936 H 0.07125 0.37838 0.06648 0.0
H937 H 0.04068 0.41139 0.05179 0.0
H938 H 0.10561 0.52864 0.04302 0.0
H939 H 0.16301 0.52867 0.05486 0.0
C940 C 0.16723 0.46994 0.0693 0.0
C941 C 0.16436 0.43719 0.07736 0.0
C942 C 0.13502 0.47003 0.06084 0.0
C943 C 0.12947 0.4044 0.07597 0.0
C944 C 0.09779 0.40412 0.06713 0.0
C945 C 0.06755 0.43689 0.05223 0.0
C946 C 0.06902 0.46978 0.04593 0.0
C947 C 0.10005 0.4368 0.05983 0.0
C948 C 0.10382 0.50276 0.04708 0.0
C949 C 0.13664 0.50281 0.0541 0.0
H950 H 0.52525 0.71431 0.06805 0.0
H951 H 0.62955 0.72897 0.09507 0.0
H952 H 0.61796 0.67129 0.07958 0.0
H953 H 0.57803 0.61619 0.05921 0.0
H954 H 0.47398 0.60058 0.03136 0.0
H955 H 0.48596 0.65928 0.04605 0.0
C956 C 0.5456 0.70503 0.07035 0.0
C957 C 0.57798 0.72581 0.083 0.0
C958 C 0.53886 0.67166 0.06125 0.0
C959 C 0.60398 0.71324 0.08585 0.0
C960 C 0.5975 0.68031 0.07688 0.0
C961 C 0.5579 0.6255 0.05625 0.0
C962 C 0.52516 0.60386 0.04413 0.0
C963 C 0.56491 0.65914 0.06475 0.0
C964 C 0.49958 0.6167 0.04048 0.0
C965 C 0.50635 0.65026 0.04896 0.0
H966 H 0.84671 0.26627 0.98812 0.0
H967 H 0.84336 0.31552 0.92787 0.0
H968 H 0.88834 0.37626 0.94137 0.0
H969 H 0.92955 0.41578 0.97027 0.0
H970 H 0.93172 0.36684 0.03068 0.0
H971 H 0.88635 0.30589 1.01734 0.0
C972 C 0.85537 0.29033 0.97806 0.0
C973 C 0.84175 0.28618 0.95696 0.0
C974 C 0.88131 0.32533 0.98594 0.0
C975 C 0.85373 0.31776 0.94408 0.0
C976 C 0.87946 0.35258 0.95178 0.0
C977 C 0.92019 0.39163 0.98036 0.0
C978 C 0.93369 0.39558 1.00141 0.0
C979 C 0.89378 0.3567 0.97261 0.0
C980 C 0.92119 0.36435 1.01452 0.0
C981 C 0.89537 0.32952 1.00686 0.0
H982 H 0.72796 0.60288 0.96779 0.0
H983 H 0.70109 0.49102 0.97833 0.0
H984 H 0.63966 0.47639 0.9942 0.0
H985 H 0.59147 0.49475 1.00217 0.0
H986 H 0.62071 0.60769 0.99297 0.0
H987 H 0.68312 0.62256 0.97928 0.0
C988 C 0.70867 0.57535 0.97365 0.0
C989 C 0.71867 0.54792 0.97161 0.0
C990 C 0.67375 0.56734 0.98287 0.0
C991 C 0.69383 0.51251 0.97964 0.0
C992 C 0.6587 0.50415 0.98862 0.0
C993 C 0.61188 0.52275 0.99772 0.0
C994 C 0.60171 0.55026 0.99892 0.0
C995 C 0.64803 0.53122 0.98997 0.0
C996 C 0.62808 0.58618 0.9924 0.0
C997 C 0.66372 0.59469 0.98452 0.0
H998 H 0.44211 0.17162 0.9943 0.0
H999 H 0.46471 0.15498 0.9289 0.0
H1000 H 0.48499 0.11216 0.94101 0.0
H1001 H 0.49489 0.0781 0.97007 0.0
H1002 H 0.47385 0.09555 0.0354 0.0
H1003 H 0.45529 0.13994 0.02355 0.0
C1004 C 0.45204 0.15911 0.98271 0.0
C1005 C 0.45143 0.1663 0.96068 0.0
C1006 C 0.46407 0.13469 0.98979 0.0
C1007 C 0.46408 0.14944 0.94592 0.0
C1008 C 0.47589 0.12505 0.95282 0.0
C1009 C 0.48628 0.09173 0.98167 0.0
C1010 C 0.48614 0.08397 1.0036 0.0
C1011 C 0.47559 0.11714 0.97468 0.0
C1012 C 0.47517 0.10184 1.01852 0.0
C1013 C 0.46415 0.12694 1.0117 0.0
H1014 H 0.70532 0.18457 0.9718 0.0
H1015 H 0.75534 0.11733 0.95771 0.0
H1016 H 0.70123 0.06422 0.97423 0.0
H1017 H 0.63741 0.03548 0.98997 0.0
H1018 H 0.58526 0.10107 1.00287 0.0
H1019 H 0.64231 0.15612 0.98991 0.0
C1020 C 0.70455 0.15841 0.97269 0.0
C1021 C 0.73416 0.15482 0.96334 0.0
C1022 C 0.67284 0.12762 0.98195 0.0
C1023 C 0.73269 0.12069 0.96451 0.0
C1024 C 0.70177 0.0903 0.97398 0.0
C1025 C 0.63882 0.06198 0.9902 0.0
C1026 C 0.60751 0.06435 0.99771 0.0
C1027 C 0.67133 0.09323 0.98229 0.0
C1028 C 0.60933 0.09867 0.99762 0.0
C1029 C 0.64187 0.13011 0.99004 0.0
H1030 H 0.81979 0.50257 0.9772 0.0
H1031 H 0.88557 0.61995 0.96868 0.0
H1032 H 0.94073 0.62058 0.98457 0.0
H1033 H 0.97167 0.58762 0.99866 0.0
H1034 H 0.90836 0.46989 1.0051 0.0
H1035 H 0.85095 0.46933 0.99255 0.0
C1036 C 0.84613 0.52821 0.97911 0.0
C1037 C 0.84875 0.56119 0.97176 0.0
C1038 C 0.87819 0.52825 0.98785 0.0
C1039 C 0.88304 0.59427 0.97413 0.0
C1040 C 0.91457 0.59464 0.9832 0.0
C1041 C 0.94514 0.5619 0.99752 0.0
C1042 C 0.94402 0.52898 1.00325 0.0
C1043 C 0.91268 0.56179 0.98975 0.0
C1044 C 0.90972 0.49571 1.00131 0.0
C1045 C 0.87696 0.49538 0.99397 0.0
H1046 H 0.49503 0.29705 0.97484 0.0
H1047 H 0.37861 0.26794 0.96349 0.0
H1048 H 0.39031 0.32585 0.97861 0.0
H1049 H 0.43373 0.38562 0.99374 0.0
H1050 H 0.54924 0.41451 1.00728 0.0
H1051 H 0.53758 0.35559 0.993 0.0
C1052 C 0.47208 0.30312 0.97598 0.0
C1053 C 0.43617 0.27836 0.9676 0.0
C1054 C 0.47884 0.3365 0.98502 0.0
C1055 C 0.40681 0.28683 0.96924 0.0
C1056 C 0.41337 0.3199 0.978 0.0
C1057 C 0.4564 0.37912 0.99355 0.0
C1058 C 0.49239 0.40459 1.00127 0.0
C1059 C 0.44938 0.34516 0.9856 0.0
C1060 C 0.52126 0.39537 1.00133 0.0
C1061 C 0.51463 0.36172 0.99314 0.0
H1062 H 0.13265 0.71747 0.08895 0.0
H1063 H 0.23301 0.72299 0.06155 0.0
H1064 H 0.19383 0.6643 0.04377 0.0
H1065 H 0.13086 0.61026 0.03678 0.0
H1066 H 0.03144 0.60466 0.06575 0.0
H1067 H 0.07057 0.66392 0.08242 0.0
C1068 C 0.14619 0.70572 0.07938 0.0
C1069 C 0.18595 0.72483 0.07681 0.0
C1070 C 0.12357 0.67169 0.06947 0.0
C1071 C 0.20255 0.70929 0.06376 0.0
C1072 C 0.18014 0.67553 0.05365 0.0
C1073 C 0.11772 0.62212 0.0466 0.0
C1074 C 0.07807 0.60285 0.04986 0.0
C1075 C 0.14057 0.65637 0.05644 0.0
C1076 C 0.06175 0.6186 0.0629 0.0
C1077 C 0.08415 0.65263 0.07248 0.0
H1078 H 0.28889 0.39971 0.07793 0.0
H1079 H 0.31176 0.51065 0.06894 0.0
H1080 H 0.37323 0.52755 0.0522 0.0
H1081 H 0.42297 0.51144 0.04306 0.0
H1082 H 0.39737 0.3993 0.05097 0.0
H1083 H 0.33478 0.38223 0.06525 0.0
C1084 C 0.3073 0.42755 0.0722 0.0
C1085 C 0.29614 0.45403 0.07497 0.0
C1086 C 0.34225 0.43687 0.06249 0.0
C1087 C 0.31988 0.48984 0.0671 0.0
C1088 C 0.35506 0.4995 0.05761 0.0
C1089 C 0.40328 0.48315 0.04739 0.0
C1090 C 0.41465 0.45652 0.04573 0.0
C1091 C 0.36693 0.47338 0.05558 0.0
C1092 C 0.38915 0.42017 0.05196 0.0
C1093 C 0.35338 0.4104 0.06018 0.0
H1094 H 0.5321 0.81118 0.06463 0.0
H1095 H 0.63491 0.89443 0.09408 0.0
H1096 H 0.62643 0.94229 0.07729 0.0
H1097 H 0.58903 0.96088 0.0553 0.0
H1098 H 0.48765 0.87838 0.02443 0.0
H1099 H 0.49702 0.83009 0.04024 0.0
C1100 C 0.55298 0.83976 0.06715 0.0
C1101 C 0.58375 0.84896 0.081 0.0
C1102 C 0.54829 0.86741 0.05712 0.0
C1103 C 0.61034 0.88631 0.08406 0.0
C1104 C 0.60572 0.91383 0.0743 0.0
C1105 C 0.56903 0.93237 0.05191 0.0
C1106 C 0.53757 0.92338 0.03877 0.0
C1107 C 0.57458 0.90472 0.06103 0.0
C1108 C 0.5122 0.8862 0.03442 0.0
C1109 C 0.51744 0.8585 0.04356 0.0
H1110 H 0.99083 0.16304 0.40251 0.0
H1111 H 0.94793 0.23662 0.41518 0.0
H1112 H 1.00396 0.28714 0.39806 0.0
H1113 H 0.06635 0.31103 0.38086 0.0
H1114 H 0.11215 0.23904 0.37138 0.0
H1115 H 0.05373 0.1872 0.38527 0.0
C1116 C 0.99375 0.19012 0.40135 0.0
C1117 C 0.96543 0.19621 0.41013 0.0
C1118 C 0.02642 0.21922 0.39186 0.0
C1119 C 0.96959 0.23144 0.40873 0.0
C1120 C 1.0015 0.26025 0.39887 0.0
C1121 C 0.06328 0.28384 0.38162 0.0
C1122 C 0.09309 0.27869 0.37442 0.0
C1123 C 0.03025 0.25454 0.39057 0.0
C1124 C 0.08923 0.24359 0.37604 0.0
C1125 C 0.05591 0.21397 0.38426 0.0
H1126 H 0.8042 0.75001 0.41163 0.0
H1127 H 0.89781 0.86083 0.414 0.0
H1128 H 0.85864 0.88365 0.39764 0.0
H1129 H 0.79618 0.87242 0.38486 0.0
H1130 H 0.70321 0.7616 0.38135 0.0
H1131 H 0.74345 0.73831 0.39566 0.0
C1132 C 0.8159 0.77913 0.40855 0.0
C1133 C 0.85366 0.80379 0.41432 0.0
C1134 C 0.79338 0.79197 0.39873 0.0
C1135 C 0.86876 0.84138 0.40985 0.0
C1136 C 0.84638 0.85442 0.40047 0.0
C1137 C 0.78522 0.84312 0.38665 0.0
C1138 C 0.74726 0.81861 0.38135 0.0
C1139 C 0.80853 0.83004 0.39504 0.0
C1140 C 0.73278 0.78081 0.38456 0.0
C1141 C 0.75565 0.76757 0.393 0.0
H1142 H 0.24525 0.05828 0.38784 0.0
H1143 H 0.23131 0.01914 0.45325 0.0
H1144 H 0.21156 0.95735 0.44059 0.0
H1145 H 0.19844 0.91451 0.41088 0.0
H1146 H 0.2098 0.9534 0.34576 0.0
H1147 H 0.22893 0.01508 0.35835 0.0
C1148 C 0.23724 0.03619 0.39939 0.0
C1149 C 0.23988 0.0435 0.42149 0.0
C1150 C 0.22504 1.00063 0.39203 0.0
C1151 C 0.23021 0.01454 0.43615 0.0
C1152 C 0.21861 0.97911 0.42894 0.0
C1153 C 0.20498 0.93656 0.3995 0.0
C1154 C 0.20228 0.92952 0.37743 0.0
C1155 C 0.21606 0.9719 0.40692 0.0
C1156 C 0.21064 0.95802 0.36278 0.0
C1157 C 0.22205 0.99337 0.37 0.0
H1158 H 0.52862 0.64497 0.2797 0.0
H1159 H 0.50694 0.58187 0.338 0.0
H1160 H 0.55006 0.63766 0.35753 0.0
H1161 H 0.59624 0.70433 0.35745 0.0
H1162 H 0.61513 0.76644 0.29877 0.0
H1163 H 0.57192 0.71102 0.27995 0.0
C1164 C 0.53346 0.64342 0.29667 0.0
C1165 C 0.5149 0.6094 0.30735 0.0
C1166 C 0.55818 0.67542 0.30771 0.0
C1167 C 0.52083 0.60785 0.32944 0.0
C1168 C 0.54564 0.63969 0.34057 0.0
C1169 C 0.5904 0.70583 0.34068 0.0
C1170 C 0.60895 0.73972 0.3297 0.0
C1171 C 0.56474 0.67366 0.32983 0.0
C1172 C 0.60166 0.74084 0.30773 0.0
C1173 C 0.5767 0.70912 0.29687 0.0
H1174 H 0.37595 0.84671 0.31143 0.0
H1175 H 0.41449 0.95891 0.29284 0.0
H1176 H 0.35729 0.95508 0.30834 0.0
H1177 H 0.29459 0.91892 0.32535 0.0
H1178 H 0.25309 0.80515 0.34102 0.0
H1179 H 0.3128 0.81042 0.32891 0.0
C1180 C 0.37187 0.87035 0.31102 0.0
C1181 C 0.39936 0.90305 0.30098 0.0
C1182 C 0.33831 0.86764 0.31951 0.0
C1183 C 0.39362 0.9334 0.30035 0.0
C1184 C 0.36094 0.93123 0.30922 0.0
C1185 C 0.29888 0.89543 0.32635 0.0
C1186 C 0.26985 0.86205 0.33481 0.0
C1187 C 0.33284 0.89837 0.31856 0.0
C1188 C 0.27534 0.83153 0.33539 0.0
C1189 C 0.30946 0.83445 0.3282 0.0
H1190 H 0.12568 0.47154 0.27461 0.0
H1191 H 0.091 0.49349 0.33561 0.0
H1192 H 0.11377 0.45676 0.35388 0.0
H1193 H 0.14197 0.41706 0.35251 0.0
H1194 H 0.17463 0.39278 0.29181 0.0
H1195 H 0.15349 0.43107 0.2733 0.0
C1196 C 0.12279 0.46797 0.29187 0.0
C1197 C 0.10696 0.48552 0.30371 0.0
C1198 C 0.13561 0.44645 0.30231 0.0
C1199 C 0.1037 0.48086 0.32612 0.0
C1200 C 0.11654 0.45971 0.3366 0.0
C1201 C 0.14542 0.42105 0.33534 0.0
C1202 C 0.16074 0.40318 0.32356 0.0
C1203 C 0.13268 0.44253 0.32488 0.0
C1204 C 0.16325 0.40681 0.30115 0.0
C1205 C 0.15112 0.42857 0.2906 0.0
H1206 H 0.4084 0.44668 0.30196 0.0
H1207 H 0.37215 0.52717 0.3024 0.0
H1208 H 0.31054 0.48171 0.31763 0.0
H1209 H 0.26589 0.41774 0.32915 0.0
H1210 H 0.30433 0.33877 0.33031 0.0
H1211 H 0.36608 0.38475 0.31611 0.0
C1212 C 0.38685 0.45408 0.30531 0.0
C1213 C 0.39431 0.48981 0.30076 0.0
C1214 C 0.352 0.42811 0.31442 0.0
C1215 C 0.36668 0.49956 0.30561 0.0
C1216 C 0.33157 0.47365 0.31432 0.0
C1217 C 0.28815 0.41099 0.32675 0.0
C1218 C 0.28095 0.37518 0.33108 0.0
C1219 C 0.32377 0.4377 0.31864 0.0
C1220 C 0.30956 0.36637 0.32731 0.0
C1221 C 0.34476 0.39255 0.31912 0.0
H1222 H 0.50035 0.84494 0.30126 0.0
H1223 H 0.55377 0.96198 0.30912 0.0
H1224 H 0.60826 0.96279 0.32639 0.0
H1225 H 0.64254 0.93065 0.3373 0.0
H1226 H 0.58991 0.81373 0.32882 0.0
H1227 H 0.53357 0.8122 0.31382 0.0
C1228 C 0.52376 0.87041 0.30707 0.0
C1229 C 0.52316 0.90335 0.30411 0.0
C1230 C 0.55525 0.87068 0.31673 0.0
C1231 C 0.5537 0.93634 0.31142 0.0
C1232 C 0.58487 0.93681 0.32118 0.0
C1233 C 0.61848 0.90485 0.33237 0.0
C1234 C 0.61998 0.87229 0.33463 0.0
C1235 C 0.58626 0.90426 0.32362 0.0
C1236 C 0.58905 0.83907 0.32772 0.0
C1237 C 0.5569 0.83821 0.31903 0.0
H1238 H 0.15544 0.61535 0.31364 0.0
H1239 H 0.04389 0.59455 0.29564 0.0
H1240 H 0.05682 0.65247 0.31136 0.0
H1241 H 0.09969 0.70914 0.32963 0.0
H1242 H 0.21001 0.7293 0.34956 0.0
H1243 H 0.19708 0.67073 0.33424 0.0
C1244 C 0.13372 0.62318 0.31342 0.0
C1245 C 0.09891 0.60073 0.30319 0.0
C1246 C 0.14098 0.65623 0.32294 0.0
C1247 C 0.07131 0.61164 0.30289 0.0
C1248 C 0.0785 0.64462 0.31205 0.0
C1249 C 0.12093 0.70076 0.3307 0.0
C1250 C 0.15583 0.72362 0.34057 0.0
C1251 C 0.11329 0.6672 0.32196 0.0
C1252 C 0.18285 0.71211 0.34206 0.0
C1253 C 0.17555 0.67873 0.33322 0.0
H1254 H 0.83203 0.0349 0.43582 0.0
H1255 H 0.8619 0.09652 0.37632 0.0
H1256 H 0.8204 0.04077 0.35685 0.0
H1257 H 0.77328 0.97469 0.35675 0.0
H1258 H 0.73899 0.91488 0.41662 0.0
H1259 H 0.78331 0.97006 0.43595 0.0
C1260 C 0.82917 0.03651 0.41865 0.0
C1261 C 0.85048 0.07026 0.40771 0.0
C1262 C 0.80399 0.00461 0.40757 0.0
C1263 C 0.84674 0.07106 0.38529 0.0
C1264 C 0.82258 0.03917 0.37408 0.0
C1265 C 0.77582 0.97377 0.37399 0.0
C1266 C 0.75317 0.94082 0.38524 0.0
C1267 C 0.80088 0.00582 0.38506 0.0
C1268 C 0.75602 0.94008 0.40764 0.0
C1269 C 0.78147 0.97155 0.41869 0.0
H1270 H 0.96002 0.73678 0.41651 0.0
H1271 H 0.99122 0.85001 0.4064 0.0
H1272 H 0.05135 0.86232 0.38997 0.0
H1273 H 0.09737 0.84151 0.38069 0.0
H1274 H 0.06448 0.7278 0.39073 0.0
H1275 H 1.00322 0.71523 0.40503 0.0
C1276 C 0.98002 0.7642 0.41079 0.0
C1277 C 0.97122 0.79249 0.41299 0.0
C1278 C 0.01446 0.77106 0.40134 0.0
C1279 C 0.99719 0.82768 0.40497 0.0
C1280 C 0.0317 0.83479 0.39563 0.0
C1281 C 0.07641 0.81391 0.3856 0.0
C1282 C 0.08525 0.78547 0.3844 0.0
C1283 C 0.04095 0.80679 0.39397 0.0
C1284 C 0.05819 0.75002 0.39133 0.0
C1285 C 0.02317 0.74282 0.39958 0.0
H1286 H 0.23532 0.18964 0.4382 0.0
H1287 H 0.25451 0.14484 0.38055 0.0
H1288 H 0.23609 0.18172 0.35871 0.0
H1289 H 0.21623 0.2282 0.3559 0.0
H1290 H 0.19941 0.27464 0.41341 0.0
H1291 H 0.21554 0.23608 0.43535 0.0
C1292 C 0.23581 0.18822 0.42087 0.0
C1293 C 0.24607 0.16436 0.41108 0.0
C1294 C 0.22555 0.2098 0.40834 0.0
C1295 C 0.24615 0.16256 0.38855 0.0
C1296 C 0.23577 0.18375 0.37601 0.0
C1297 C 0.21545 0.2293 0.3732 0.0
C1298 C 0.20647 0.25395 0.38303 0.0
C1299 C 0.22536 0.20744 0.38572 0.0
C1300 C 0.2065 0.25593 0.4055 0.0
C1301 C 0.21569 0.23389 0.41806 0.0
H1302 H 0.62328 0.54989 0.75055 0.0
H1303 H 0.66149 0.47145 0.74336 0.0
H1304 H 0.71992 0.5183 0.72582 0.0
H1305 H 0.76247 0.58334 0.71518 0.0
H1306 H 0.72252 0.66064 0.72165 0.0
H1307 H 0.66259 0.61266 0.73668 0.0
C1308 C 0.64444 0.54312 0.74513 0.0
C1309 C 0.6384 0.50749 0.74855 0.0
C1310 C 0.67768 0.57003 0.73488 0.0
C1311 C 0.66565 0.49881 0.74102 0.0
C1312 C 0.69906 0.52558 0.73102 0.0
C1313 C 0.74023 0.58935 0.71936 0.0
C1314 C 0.74672 0.62541 0.71711 0.0
C1315 C 0.70569 0.5615 0.72814 0.0
C1316 C 0.71799 0.633 0.72309 0.0
C1317 C 0.6838 0.60564 0.73179 0.0
H1318 H 0.46888 0.07851 0.73888 0.0
H1319 H 0.54918 0.19436 0.73815 0.0
H1320 H 0.50083 0.20698 0.72316 0.0
H1321 H 0.43365 0.18471 0.71276 0.0
H1322 H 0.3555 0.06817 0.71177 0.0
H1323 H 0.40473 0.05616 0.72503 0.0
C1324 C 0.47578 0.10651 0.73536 0.0
C1325 C 0.5123 0.1355 0.73992 0.0
C1326 C 0.44809 0.11341 0.7265 0.0
C1327 C 0.52114 0.17161 0.73491 0.0
C1328 C 0.49347 0.17881 0.7264 0.0
C1329 C 0.42777 0.15673 0.71491 0.0
C1330 C 0.39102 0.12729 0.71093 0.0
C1331 C 0.45657 0.14992 0.72241 0.0
C1332 C 0.38361 0.09123 0.71448 0.0
C1333 C 0.41172 0.08433 0.72213 0.0
H1334 H 0.90303 0.39666 0.71795 0.0
H1335 H 0.88175 0.35288 0.78245 0.0
H1336 H 0.86697 0.29282 0.76894 0.0
H1337 H 0.86036 0.25259 0.73874 0.0
H1338 H 0.88038 0.29605 0.67439 0.0
H1339 H 0.89455 0.35607 0.68776 0.0
C1340 C 0.89461 0.37388 0.72905 0.0
C1341 C 0.89372 0.37945 0.75121 0.0
C1342 C 0.88576 0.33927 0.72116 0.0
C1343 C 0.8833 0.34962 0.76535 0.0
C1344 C 0.87465 0.31518 0.75763 0.0
C1345 C 0.86788 0.27531 0.72771 0.0
C1346 C 0.86873 0.26991 0.70559 0.0
C1347 C 0.87603 0.30974 0.73559 0.0
C1348 C 0.87838 0.29933 0.6914 0.0
C1349 C 0.8869 0.33375 0.69909 0.0
H1350 H 0.19016 0.97736 0.60833 0.0
H1351 H 0.16049 0.91458 0.66743 0.0
H1352 H 0.20039 0.97014 0.68734 0.0
H1353 H 0.24571 0.03642 0.68808 0.0
H1354 H 0.28007 0.09829 0.629 0.0
H1355 H 0.23763 0.04302 0.60891 0.0
C1356 C 0.19269 0.97551 0.62551 0.0
C1357 C 0.17167 0.94142 0.6362 0.0
C1358 C 0.21695 0.00749 0.63692 0.0
C1359 C 0.17522 0.94026 0.65862 0.0
C1360 C 0.19849 0.97207 0.67011 0.0
C1361 C 0.24344 0.03782 0.67087 0.0
C1362 C 0.26542 0.07134 0.66005 0.0
C1363 C 0.21953 0.00582 0.65944 0.0
C1364 C 0.26333 0.07265 0.63764 0.0
C1365 C 0.239 0.04112 0.62618 0.0
H1366 H 0.03988 0.18296 0.63857 0.0
H1367 H 0.08449 0.29791 0.62469 0.0
H1368 H 0.02685 0.29466 0.63903 0.0
H1369 H 0.96205 0.25848 0.65353 0.0
H1370 H 0.91521 0.14268 0.66515 0.0
H1371 H 0.97482 0.14674 0.65395 0.0
C1372 C 0.03705 0.2073 0.63899 0.0
C1373 C 0.06641 0.24066 0.63058 0.0
C1374 C 1.00322 0.20502 0.64682 0.0
C1375 C 0.06223 0.27193 0.631 0.0
C1376 C 0.02925 0.27007 0.63916 0.0
C1377 C 0.96512 0.23424 0.65381 0.0
C1378 C 0.93455 0.20059 0.66089 0.0
C1379 C 0.99929 0.23667 0.64678 0.0
C1380 C 0.93857 0.1692 0.66059 0.0
C1381 C 0.97268 0.17146 0.65394 0.0
H1382 H 0.76481 0.83589 0.66032 0.0
H1383 H 0.78133 0.80918 0.59593 0.0
H1384 H 0.80437 0.7696 0.61001 0.0
H1385 H 0.81886 0.74161 0.64062 0.0
H1386 H 0.80407 0.76958 0.70481 0.0
H1387 H 0.78254 0.8105 0.69086 0.0
C1388 C 0.77399 0.82192 0.64933 0.0
C1389 C 0.77091 0.82533 0.62707 0.0
C1390 C 0.78786 0.79962 0.65752 0.0
C1391 C 0.78254 0.8065 0.61314 0.0
C1392 C 0.79601 0.78403 0.62116 0.0
C1393 C 0.81107 0.75685 0.6515 0.0
C1394 C 0.81361 0.7531 0.67372 0.0
C1395 C 0.7985 0.78015 0.64331 0.0
C1396 C 0.80352 0.77292 0.68769 0.0
C1397 C 0.79071 0.79596 0.67969 0.0
H1398 H 0.03237 0.84643 0.64356 0.0
H1399 H 0.07632 0.77474 0.62768 0.0
H1400 H 0.02175 0.72322 0.64511 0.0
H1401 H 0.96032 0.69784 0.66356 0.0
H1402 H 0.91347 0.76786 0.677 0.0
H1403 H 0.97052 0.8208 0.66241 0.0
C1404 C 0.03004 0.81955 0.64408 0.0
C1405 C 0.05823 0.81433 0.63423 0.0
C1406 C 0.9982 0.78983 0.65387 0.0
C1407 C 0.05475 0.77932 0.63488 0.0
C1408 C 0.02367 0.74991 0.64494 0.0
C1409 C 0.96287 0.72483 0.6635 0.0
C1410 C 0.93321 0.72912 0.6719 0.0
C1411 C 0.99506 0.75475 0.65429 0.0
C1412 C 0.93638 0.764 0.67126 0.0
C1413 C 0.96886 0.79422 0.66268 0.0
H1414 H 0.16007 0.18232 0.63835 0.0
H1415 H 0.22947 0.29955 0.63088 0.0
H1416 H 0.2827 0.29783 0.64791 0.0
H1417 H 0.31099 0.26277 0.66292 0.0
H1418 H 0.24378 0.14507 0.66816 0.0
H1419 H 0.18848 0.14701 0.65434 0.0
C1420 C 0.18674 0.20743 0.64076 0.0
C1421 C 0.19087 0.24107 0.63346 0.0
C1422 C 0.21771 0.20609 0.65012 0.0
C1423 C 0.22568 0.2734 0.6364 0.0
C1424 C 0.25613 0.27241 0.64609 0.0
C1425 C 0.2841 0.23759 0.66121 0.0
C1426 C 0.28135 0.20394 0.66707 0.0
C1427 C 0.25272 0.23889 0.65269 0.0
C1428 C 0.24651 0.17145 0.66435 0.0
C1429 C 0.21489 0.17254 0.65626 0.0
H1430 H 0.81568 0.95411 0.6383 0.0
H1431 H 0.70305 0.93307 0.62273 0.0
H1432 H 0.71751 0.99183 0.63785 0.0
H1433 H 0.7619 0.04935 0.65525 0.0
H1434 H 0.8728 0.06889 0.67335 0.0
H1435 H 0.85867 0.00997 0.65808 0.0
C1436 C 0.79398 0.96195 0.63848 0.0
C1437 C 0.7584 0.93905 0.62905 0.0
C1438 C 0.80206 0.99549 0.64778 0.0
C1439 C 0.73103 0.95031 0.62928 0.0
C1440 C 0.73911 0.98385 0.63814 0.0
C1441 C 0.783 0.04075 0.6559 0.0
C1442 C 0.81843 0.06363 0.66529 0.0
C1443 C 0.77457 0.00673 0.6473 0.0
C1444 C 0.84525 0.05179 0.66623 0.0
C1445 C 0.83725 0.01815 0.65743 0.0
H1446 H 0.46999 0.37944 0.76096 0.0
H1447 H 0.56822 0.37604 0.73748 0.0
H1448 H 0.52718 0.31865 0.71906 0.0
H1449 H 0.46337 0.2691 0.70977 0.0
H1450 H 0.36526 0.27182 0.73414 0.0
H1451 H 0.40632 0.32919 0.75246 0.0
C1452 C 0.48252 0.36595 0.75209 0.0
C1453 C 0.52229 0.38232 0.75064 0.0
C1454 C 0.45874 0.33267 0.7417 0.0
C1455 C 0.5378 0.36454 0.73867 0.0
C1456 C 0.51432 0.33153 0.72821 0.0
C1457 C 0.45092 0.28234 0.71895 0.0
C1458 C 0.41118 0.26622 0.72035 0.0
C1459 C 0.47475 0.3154 0.72955 0.0
C1460 C 0.39567 0.28352 0.73269 0.0
C1461 C 0.41917 0.31643 0.74319 0.0
H1462 H 0.62411 0.07803 0.74092 0.0
H1463 H 0.65636 0.19171 0.73201 0.0
H1464 H 0.71736 0.20429 0.71646 0.0
H1465 H 0.76368 0.18331 0.7079 0.0
H1466 H 0.72891 0.06881 0.71626 0.0
H1467 H 0.66725 0.05635 0.72979 0.0
C1468 C 0.64447 0.10558 0.73556 0.0
C1469 C 0.6359 0.13398 0.73793 0.0
C1470 C 0.67928 0.11252 0.72666 0.0
C1471 C 0.66228 0.16936 0.73044 0.0
C1472 C 0.69726 0.1766 0.72166 0.0
C1473 C 0.74224 0.15558 0.71227 0.0
C1474 C 0.75061 0.12684 0.71074 0.0
C1475 C 0.7064 0.14848 0.72002 0.0
C1476 C 0.72297 0.09125 0.71707 0.0
C1477 C 0.68771 0.0841 0.72483 0.0
H1478 H 0.88461 0.5229 0.77297 0.0
H1479 H 0.90268 0.48265 0.71316 0.0
H1480 H 0.88535 0.52232 0.6933 0.0
H1481 H 0.86776 0.57087 0.69282 0.0
H1482 H 0.85283 0.61284 0.75266 0.0
H1483 H 0.86671 0.57071 0.77249 0.0
C1484 C 0.8851 0.52297 0.7556 0.0
C1485 C 0.8949 0.49959 0.74469 0.0
C1486 C 0.87573 0.54637 0.7442 0.0
C1487 C 0.89471 0.49982 0.7221 0.0
C1488 C 0.88502 0.52273 0.71066 0.0
C1489 C 0.86694 0.57029 0.71015 0.0
C1490 C 0.85923 0.59489 0.72123 0.0
C1491 C 0.87562 0.54628 0.72152 0.0
C1492 C 0.85906 0.5944 0.74376 0.0
C1493 C 0.86693 0.57025 0.75513 0.0
H1494 H 0.54262 0.96748 0.2397 0.0
H1495 H 0.42354 0.90458 0.22454 0.0
H1496 H 0.43709 0.92924 0.18801 0.0
H1497 H 0.48285 0.97102 0.16055 0.0
H1498 H 0.60195 0.03076 0.17593 0.0
H1499 H 0.58826 0.00416 0.21183 0.0
C1500 C 0.51954 0.95837 0.22839 0.0
C1501 C 0.482 0.9342 0.23517 0.0
C1502 C 0.52755 0.97218 0.20727 0.0
C1503 C 0.45266 0.92367 0.22011 0.0
C1504 C 0.46042 0.93757 0.19908 0.0
C1505 C 0.50582 0.97773 0.17166 0.0
C1506 C 0.54334 0.00341 0.16556 0.0
C1507 C 0.49776 0.96219 0.1925 0.0
C1508 C 0.57272 0.01176 0.18026 0.0
C1509 C 0.56495 0.99647 0.20083 0.0
H1510 H 0.07317 0.49359 0.22718 0.0
H1511 H 0.99697 0.52378 0.25725 0.0
H1512 H 0.96068 0.51086 0.22428 0.0
H1513 H 0.95266 0.49453 0.18648 0.0
H1514 H 0.02758 0.46311 0.156 0.0
H1515 H 0.06246 0.47326 0.18946 0.0
C1516 C 0.0483 0.4968 0.22654 0.0
C1517 C 0.038 0.50997 0.24454 0.0
C1518 C 0.02759 0.48951 0.20742 0.0
C1519 C 1.00583 0.51423 0.24349 0.0
C1520 C 0.985 0.50678 0.22467 0.0
C1521 C 0.97618 0.48924 0.18719 0.0
C1522 C 0.98747 0.47816 0.16869 0.0
C1523 C 0.99595 0.49495 0.20646 0.0
C1524 C 0.01857 0.47217 0.1699 0.0
C1525 C 0.03842 0.47776 0.18907 0.0
H1526 H 0.44315 0.50884 0.22625 0.0
H1527 H 0.55252 0.54975 0.25594 0.0
H1528 H 0.57915 0.54345 0.22231 0.0
H1529 H 0.57222 0.52786 0.18433 0.0
H1530 H 0.4625 0.48378 0.15458 0.0
H1531 H 0.43554 0.49031 0.18818 0.0
C1532 C 0.47269 0.51596 0.22542 0.0
C1533 C 0.49581 0.53015 0.24364 0.0
C1534 C 0.48797 0.51208 0.20592 0.0
C1535 C 0.53415 0.53947 0.24214 0.0
C1536 C 0.54944 0.53572 0.2229 0.0
C1537 C 0.54226 0.51913 0.18517 0.0
C1538 C 0.51961 0.50534 0.16676 0.0
C1539 C 0.52672 0.52232 0.20465 0.0
C1540 C 0.48097 0.49505 0.16827 0.0
C1541 C 0.46536 0.49847 0.18759 0.0
H1542 H 0.92959 0.49496 0.82256 0.0
H1543 H 1.00378 0.46216 0.79266 0.0
H1544 H 0.0416 0.47695 0.82519 0.0
H1545 H 0.05183 0.49611 0.86263 0.0
H1546 H 0.97832 0.52936 0.89302 0.0
H1547 H 0.9418 0.51703 0.86001 0.0
C1548 C 0.95435 0.49158 0.82313 0.0
C1549 C 0.96376 0.47732 0.80526 0.0
C1550 C 0.97581 0.49973 0.84208 0.0
C1551 C 0.99574 0.47275 0.80628 0.0
C1552 C 0.01738 0.48119 0.82487 0.0
C1553 C 0.02817 0.50121 0.86201 0.0
C1554 C 0.01792 0.51362 0.88039 0.0
C1555 C 1.0074 0.49422 0.84296 0.0
C1556 C 0.98662 0.51932 0.87927 0.0
C1557 C 0.96584 0.51251 0.86032 0.0
H1558 H 0.4899 0.44048 0.80649 0.0
H1559 H 0.60786 0.499 0.82443 0.0
H1560 H 0.59063 0.51276 0.85931 0.0
H1561 H 0.54185 0.509 0.88476 0.0
H1562 H 0.42403 0.44892 0.86669 0.0
H1563 H 0.44143 0.43455 0.83218 0.0
C1564 C 0.51192 0.45585 0.81808 0.0
C1565 C 0.55021 0.46868 0.81263 0.0
C1566 C 0.5018 0.46341 0.83824 0.0
C1567 C 0.5782 0.48918 0.8279 0.0
C1568 C 0.56834 0.49686 0.84798 0.0
C1569 C 0.51998 0.49241 0.87337 0.0
C1570 C 0.48165 0.48038 0.87836 0.0
C1571 C 0.53021 0.48422 0.85334 0.0
C1572 C 0.45377 0.45912 0.86324 0.0
C1573 C 0.46368 0.45075 0.84346 0.0
H1574 H 0.53115 0.11135 0.81748 0.0
H1575 H 0.55801 0.035 0.78713 0.0
H1576 H 0.54167 0.99836 0.82005 0.0
H1577 H 0.51911 0.98733 0.85736 0.0
H1578 H 0.49346 0.06388 0.88847 0.0
H1579 H 0.51043 0.10124 0.85564 0.0
C1580 C 0.53327 0.08661 0.8181 0.0
C1581 C 0.54574 0.07593 0.7998 0.0
C1582 C 0.52427 0.06578 0.8373 0.0
C1583 C 0.54875 0.04401 0.80097 0.0
C1584 C 0.53933 0.02297 0.8198 0.0
C1585 C 0.51716 0.01217 0.85697 0.0
C1586 C 0.50476 0.02258 0.87539 0.0
C1587 C 0.52701 0.03352 0.83805 0.0
C1588 C 0.50312 0.05527 0.87464 0.0
C1589 C 0.51258 0.07653 0.85579 0.0
H1590 H 0.20966 0.31315 0.57086 0.0
H1591 H 0.0926 0.24154 0.55408 0.0
H1592 H 0.10549 0.26687 0.51769 0.0
H1593 H 0.14973 0.31123 0.49076 0.0
H1594 H 0.26681 0.38189 0.50784 0.0
H1595 H 0.25427 0.35471 0.54366 0.0
C1596 C 0.18702 0.30258 0.55919 0.0
C1597 C 0.15013 0.27545 0.56539 0.0
C1598 C 0.19462 0.31723 0.53822 0.0
C1599 C 0.12115 0.26275 0.54998 0.0
C1600 C 0.12854 0.2771 0.52907 0.0
C1601 C 0.17258 0.32032 0.50223 0.0
C1602 C 0.20912 0.34889 0.49658 0.0
C1603 C 0.16512 0.30462 0.52302 0.0
C1604 C 0.23829 0.36044 0.51179 0.0
C1605 C 0.23118 0.34481 0.53231 0.0
H1606 H 0.72448 0.82181 0.55677 0.0
H1607 H 0.65448 0.86358 0.58211 0.0
H1608 H 0.61567 0.84397 0.54986 0.0
H1609 H 0.60292 0.81678 0.51383 0.0
H1610 H 0.6721 0.77362 0.48924 0.0
H1611 H 0.70932 0.7912 0.52206 0.0
C1612 C 0.70038 0.82613 0.55545 0.0
C1613 C 0.69262 0.84432 0.57189 0.0
C1614 C 0.6779 0.81442 0.53699 0.0
C1615 C 0.6616 0.85023 0.5696 0.0
C1616 C 0.63917 0.83876 0.55122 0.0
C1617 C 0.6257 0.81063 0.51584 0.0
C1618 C 0.63484 0.79409 0.49906 0.0
C1619 C 0.6472 0.82104 0.53474 0.0
C1620 C 0.66477 0.78672 0.5018 0.0
C1621 C 0.68606 0.79675 0.52057 0.0
H1622 H 0.20536 0.89011 0.57629 0.0
H1623 H 0.08737 0.83442 0.55834 0.0
H1624 H 0.10408 0.82257 0.52285 0.0
H1625 H 0.15209 0.82614 0.49715 0.0
H1626 H 0.27018 0.884 0.51487 0.0
H1627 H 0.2535 0.8972 0.54994 0.0
C1628 C 0.18328 0.87589 0.56455 0.0
C1629 C 0.14508 0.86301 0.57019 0.0
C1630 C 0.19309 0.86941 0.54403 0.0
C1631 C 0.11695 0.8441 0.55471 0.0
C1632 C 0.12649 0.83749 0.5343 0.0
C1633 C 0.17424 0.84209 0.50856 0.0
C1634 C 0.21234 0.85365 0.50335 0.0
C1635 C 0.16446 0.84974 0.52882 0.0
C1636 C 0.24055 0.87406 0.51851 0.0
C1637 C 0.23107 0.8818 0.53859 0.0
H1638 H 0.66781 0.86299 0.13914 0.0
H1639 H 0.58362 0.75439 0.16013 0.0
H1640 H 0.6127 0.76599 0.19557 0.0
H1641 H 0.66333 0.80639 0.2203 0.0
H1642 H 0.74781 0.91475 0.19906 0.0
H1643 H 0.71734 0.9039 0.16411 0.0
C1644 C 0.65554 0.84204 0.15156 0.0
C1645 C 0.62356 0.80788 0.14698 0.0
C1646 C 0.67261 0.84879 0.17185 0.0
C1647 C 0.6084 0.7808 0.16317 0.0
C1648 C 0.62496 0.78746 0.18346 0.0
C1649 C 0.67482 0.82777 0.20809 0.0
C1650 C 0.70789 0.86131 0.2123 0.0
C1651 C 0.65725 0.82125 0.18794 0.0
C1652 C 0.72268 0.88853 0.19618 0.0
C1653 C 0.70517 0.8824 0.17621 0.0
H1654 H 0.20129 0.76052 0.15495 0.0
H1655 H 0.21053 0.85963 0.12812 0.0
H1656 H 0.18943 0.8723 0.16202 0.0
H1657 H 0.16736 0.855 0.19915 0.0
H1658 H 0.15843 0.75645 0.22656 0.0
H1659 H 0.1807 0.74404 0.19281 0.0
C1660 C 0.19857 0.78482 0.15654 0.0
C1661 C 0.20754 0.80909 0.13896 0.0
C1662 C 0.18658 0.79213 0.17625 0.0
C1663 C 0.20423 0.84067 0.1414 0.0
C1664 C 0.192 0.84788 0.16078 0.0
C1665 C 0.17016 0.83072 0.19774 0.0
C1666 C 0.16098 0.80659 0.21538 0.0
C1667 C 0.18298 0.82378 0.17829 0.0
C1668 C 0.16551 0.77564 0.21333 0.0
C1669 C 0.17802 0.7684 0.19396 0.0
H1670 H 0.15533 0.35943 0.13559 0.0
H1671 H 0.27154 0.43594 0.15173 0.0
H1672 H 0.26207 0.40724 0.1871 0.0
H1673 H 0.22094 0.35909 0.21343 0.0
H1674 H 0.10451 0.28397 0.19703 0.0
H1675 H 0.1138 0.31386 0.16218 0.0
C1676 C 0.17854 0.37031 0.14689 0.0
C1677 C 0.21418 0.39992 0.14076 0.0
C1678 C 0.17285 0.35384 0.16733 0.0
C1679 C 0.24394 0.41289 0.1557 0.0
C1680 C 0.23847 0.39662 0.17607 0.0
C1681 C 0.19751 0.34958 0.20233 0.0
C1682 C 0.16215 0.31899 0.20788 0.0
C1683 C 0.20308 0.36691 0.18207 0.0
C1684 C 0.1322 0.30699 0.19315 0.0
C1685 C 0.13744 0.32415 0.17317 0.0
H1686 H 0.86316 0.63745 0.91313 0.0
H1687 H 0.74685 0.56557 0.89494 0.0
H1688 H 0.7599 0.59486 0.85956 0.0
H1689 H 0.80443 0.64206 0.83381 0.0
H1690 H 0.92109 0.71156 0.8522 0.0
H1691 H 0.9079 0.68145 0.88715 0.0
C1692 C 0.84068 0.6276 0.90138 0.0
C1693 C 0.80401 0.59918 0.90689 0.0
C1694 C 0.84847 0.64421 0.88095 0.0
C1695 C 0.77523 0.58769 0.89141 0.0
C1696 C 0.78274 0.60427 0.87105 0.0
C1697 C 0.82703 0.65027 0.84537 0.0
C1698 C 0.86363 0.67944 0.84038 0.0
C1699 C 0.81927 0.63271 0.86564 0.0
C1700 C 0.8925 0.68977 0.85568 0.0
C1701 C 0.88504 0.67246 0.87569 0.0
H1702 H 0.40751 0.1725 0.88978 0.0
H1703 H 0.33445 0.20629 0.92026 0.0
H1704 H 0.29614 0.1915 0.88795 0.0
H1705 H 0.28451 0.17087 0.85065 0.0
H1706 H 0.356 0.13479 0.8206 0.0
H1707 H 0.39359 0.14841 0.85316 0.0
C1708 C 0.3829 0.17615 0.88947 0.0
C1709 C 0.37412 0.19078 0.9074 0.0
C1710 C 0.36075 0.16733 0.87088 0.0
C1711 C 0.34234 0.19573 0.90658 0.0
C1712 C 0.32024 0.18707 0.88814 0.0
C1713 C 0.30794 0.16544 0.85131 0.0
C1714 C 0.31751 0.15205 0.83312 0.0
C1715 C 0.32935 0.17314 0.87014 0.0
C1716 C 0.34836 0.14569 0.83422 0.0
C1717 C 0.36979 0.15329 0.85288 0.0
H1718 H 0.87402 0.22804 0.90148 0.0
H1719 H 0.75513 0.16685 0.88586 0.0
H1720 H 0.77081 0.15327 0.85047 0.0
H1721 H 0.81848 0.15802 0.82407 0.0
H1722 H 0.93727 0.22015 0.83986 0.0
H1723 H 0.92143 0.23439 0.8749 0.0
C1724 C 0.85151 0.21212 0.89026 0.0
C1725 C 0.81343 0.19854 0.89639 0.0
C1726 C 0.86073 0.20452 0.86992 0.0
C1727 C 0.78466 0.17732 0.88171 0.0
C1728 C 0.79362 0.16971 0.8614 0.0
C1729 C 0.84088 0.175 0.83509 0.0
C1730 C 0.87901 0.1878 0.82934 0.0
C1731 C 0.83157 0.18307 0.85534 0.0
C1732 C 0.90768 0.20946 0.84395 0.0
C1733 C 0.89866 0.21777 0.86399 0.0
H1734 H 0.28304 0.16843 0.48774 0.0
H1735 H 0.35189 0.12529 0.4627 0.0
H1736 H 0.3894 0.14265 0.49544 0.0
H1737 H 0.40035 0.16684 0.53196 0.0
H1738 H 0.33156 0.20989 0.55729 0.0
H1739 H 0.29631 0.19576 0.52375 0.0
C1740 C 0.30662 0.16336 0.48936 0.0
C1741 C 0.31452 0.1454 0.47288 0.0
C1742 C 0.32785 0.17307 0.50836 0.0
C1743 C 0.34494 0.13866 0.47527 0.0
C1744 C 0.36644 0.14864 0.49397 0.0
C1745 C 0.37804 0.17366 0.53004 0.0
C1746 C 0.36854 0.18925 0.54717 0.0
C1747 C 0.3578 0.16535 0.51075 0.0
C1748 C 0.33912 0.19739 0.54448 0.0
C1749 C 0.31905 0.18948 0.52526 0.0
H1750 H 0.81706 0.1215 0.46728 0.0
H1751 H 0.93476 0.17609 0.48581 0.0
H1752 H 0.9173 0.18491 0.52185 0.0
H1753 H 0.86849 0.17771 0.54814 0.0
H1754 H 0.75072 0.12036 0.52971 0.0
H1755 H 0.76839 0.11161 0.49382 0.0
C1756 C 0.83895 0.13487 0.47923 0.0
C1757 C 0.87724 0.14813 0.47367 0.0
C1758 C 0.82869 0.13939 0.50005 0.0
C1759 C 0.90512 0.16608 0.48941 0.0
C1760 C 0.89513 0.17091 0.51013 0.0
C1761 C 0.84666 0.1629 0.53636 0.0
C1762 C 0.80833 0.15007 0.54166 0.0
C1763 C 0.85699 0.15773 0.51564 0.0
C1764 C 0.7805 0.13121 0.52604 0.0
C1765 C 0.79054 0.12601 0.50549 0.0
H1766 H 0.8644 0.7724 0.49119 0.0
H1767 H 0.888 0.69302 0.46197 0.0
H1768 H 0.87041 0.65712 0.4952 0.0
H1769 H 0.84813 0.64777 0.53256 0.0
H1770 H 0.8253 0.72711 0.56251 0.0
H1771 H 0.84327 0.76359 0.52932 0.0
C1772 C 0.86546 0.74713 0.49209 0.0
C1773 C 0.87748 0.73546 0.47398 0.0
C1774 C 0.85571 0.72668 0.5115 0.0
C1775 C 0.87914 0.70285 0.4756 0.0
C1776 C 0.869 0.68222 0.49463 0.0
C1777 C 0.84692 0.67298 0.53186 0.0
C1778 C 0.83508 0.68441 0.55012 0.0
C1779 C 0.85727 0.69382 0.51269 0.0
C1780 C 0.83452 0.71764 0.54887 0.0
C1781 C 0.84455 0.73842 0.52979 0.0
loop_
_geom_bond_atom_site_label_1
_geom_bond_atom_site_label_2
_geom_bond_distance
_geom_bond_site_symmetry_2
_ccdc_geom_bond_type
H0 C3 0.931 . S
H1 C6 0.928 . S
H2 C8 0.930 . S
C3 H0 0.931 . S
C3 C4 1.413 . S
C3 C5 1.360 . S
C4 C3 1.413 . S
C4 C8 1.429 . S
C5 C3 1.360 . S
C5 C6 1.372 . S
C6 H1 0.928 . S
C6 C5 1.372 . S
C6 C7 1.404 . S
C7 C6 1.404 . S
C7 C8 1.391 . S
C8 H2 0.930 . S
C8 C4 1.429 . S
C8 C7 1.391 . S
H9 C12 0.931 . S
H10 C15 0.928 . S
H11 C17 0.930 . S
C12 H9 0.931 . S
C12 C13 1.413 . S
C12 C14 1.360 . S
C13 C12 1.413 . S
C13 C17 1.429 . S
C14 C12 1.360 . S
C14 C15 1.372 . S
C15 H10 0.928 . S
C15 C14 1.372 . S
C15 C16 1.404 . S
C16 C15 1.404 . S
C16 C17 1.391 . S
C17 H11 0.930 . S
C17 C13 1.429 . S
C17 C16 1.391 . S
H18 C21 0.931 . S
H19 C24 0.928 . S
H20 C26 0.930 . S
C21 H18 0.931 . S
C21 C22 1.413 . S
C21 C23 1.360 . S
C22 C21 1.413 . S
C22 C26 1.429 . S
C23 C21 1.360 . S
C23 C24 1.372 . S
C24 H19 0.928 . S
C24 C23 1.372 . S
C24 C25 1.404 . S
C25 C24 1.404 . S
C25 C26 1.391 . S
C26 H20 0.930 . S
C26 C22 1.429 . S
C26 C25 1.391 . S
H27 C30 0.931 . S
H28 C33 0.928 . S
H29 C35 0.930 . S
C30 H27 0.931 . S
C30 C31 1.413 . S
C30 C32 1.360 . S
C31 C30 1.413 . S
C31 C35 1.429 . S
C32 C30 1.360 . S
C32 C33 1.372 . S
C33 H28 0.928 . S
C33 C32 1.372 . S
C33 C34 1.404 . S
C34 C33 1.404 . S
C34 C35 1.391 . S
C35 H29 0.930 . S
C35 C31 1.429 . S
C35 C34 1.391 . S
H36 C39 0.931 . S
H37 C42 0.928 . S
H38 C44 0.930 . S
C39 H36 0.931 . S
C39 C40 1.413 . S
C39 C41 1.360 . S
C40 C39 1.413 . S
C40 C44 1.429 . S
C41 C39 1.360 . S
C41 C42 1.372 . S
C42 H37 0.928 . S
C42 C41 1.372 . S
C42 C43 1.404 . S
C43 C42 1.404 . S
C43 C44 1.391 . S
C44 H38 0.930 . S
C44 C40 1.429 . S
C44 C43 1.391 . S
H45 C48 0.931 . S
H46 C51 0.928 . S
H47 C53 0.930 . S
C48 H45 0.931 . S
C48 C49 1.413 . S
C48 C50 1.360 . S
C49 C48 1.413 . S
C49 C53 1.429 . S
C50 C48 1.360 . S
C50 C51 1.372 . S
C51 H46 0.928 . S
C51 C50 1.372 . S
C51 C52 1.404 . S
C52 C51 1.404 . S
C52 C53 1.391 . S
C53 H47 0.930 . S
C53 C49 1.429 . S
C53 C52 1.391 . S
H54 C57 0.931 . S
H55 C60 0.928 . S
H56 C62 0.930 . S
C57 H54 0.931 . S
C57 C58 1.413 . S
C57 C59 1.360 . S
C58 C57 1.413 . S
C58 C62 1.429 . S
C59 C57 1.360 . S
C59 C60 1.372 . S
C60 H55 0.928 . S
C60 C59 1.372 . S
C60 C61 1.404 . S
C61 C60 1.404 . S
C61 C62 1.391 . S
C62 H56 0.930 . S
C62 C58 1.429 . S
C62 C61 1.391 . S
H63 C66 0.931 . S
H64 C69 0.928 . S
H65 C71 0.930 . S
C66 H63 0.931 . S
C66 C67 1.413 . S
C66 C68 1.360 . S
C67 C66 1.413 . S
C67 C71 1.429 . S
C68 C66 1.360 . S
C68 C69 1.372 . S
C69 H64 0.928 . S
C69 C68 1.372 . S
C69 C70 1.404 . S
C70 C69 1.404 . S
C70 C71 1.391 . S
C71 H65 0.930 . S
C71 C67 1.429 . S
C71 C70 1.391 . S
H72 C75 0.931 . S
H73 C78 0.928 . S
H74 C80 0.930 . S
C75 H72 0.931 . S
C75 C76 1.413 . S
C75 C77 1.360 . S
C76 C75 1.413 . S
C76 C80 1.429 . S
C77 C75 1.360 . S
C77 C78 1.372 . S
C78 H73 0.928 . S
C78 C77 1.372 . S
C78 C79 1.404 . S
C79 C78 1.404 . S
C79 C80 1.391 . S
C80 H74 0.930 . S
C80 C76 1.429 . S
C80 C79 1.391 . S
H81 C84 0.931 . S
H82 C87 0.928 . S
H83 C89 0.930 . S
C84 H81 0.931 . S
C84 C85 1.413 . S
C84 C86 1.360 . S
C85 C84 1.413 . S
C85 C89 1.429 . S
C86 C84 1.360 . S
C86 C87 1.372 . S
C87 H82 0.928 . S
C87 C86 1.372 . S
C87 C88 1.404 . S
C88 C87 1.404 . S
C88 C89 1.391 . S
C89 H83 0.930 . S
C89 C85 1.429 . S
C89 C88 1.391 . S
H90 C93 0.931 . S
H91 C96 0.928 . S
H92 C98 0.930 . S
C93 H90 0.931 . S
C93 C94 1.413 . S
C93 C95 1.360 . S
C94 C93 1.413 . S
C94 C98 1.429 . S
C95 C93 1.360 . S
C95 C96 1.372 . S
C96 H91 0.928 . S
C96 C95 1.372 . S
C96 C97 1.404 . S
C97 C96 1.404 . S
C97 C98 1.391 . S
C98 H92 0.930 . S
C98 C94 1.429 . S
C98 C97 1.391 . S
H99 C102 0.931 . S
H100 C105 0.928 . S
H101 C107 0.930 . S
C102 H99 0.931 . S
C102 C103 1.413 . S
C102 C104 1.360 . S
C103 C102 1.413 . S
C103 C107 1.429 . S
C104 C102 1.360 . S
C104 C105 1.372 . S
C105 H100 0.928 . S
C105 C104 1.372 . S
C105 C106 1.404 . S
C106 C105 1.404 . S
C106 C107 1.391 . S
C107 H101 0.930 . S
C107 C103 1.429 . S
C107 C106 1.391 . S
H108 C111 0.931 . S
H109 C114 0.928 . S
H110 C116 0.930 . S
C111 H108 0.931 . S
C111 C112 1.413 . S
C111 C113 1.360 . S
C112 C111 1.413 . S
C112 C116 1.429 . S
C113 C111 1.360 . S
C113 C114 1.372 . S
C114 H109 0.928 . S
C114 C113 1.372 . S
C114 C115 1.404 . S
C115 C114 1.404 . S
C115 C116 1.391 . S
C116 H110 0.930 . S
C116 C112 1.429 . S
C116 C115 1.391 . S
H117 C120 0.931 . S
H118 C123 0.928 . S
H119 C125 0.930 . S
C120 H117 0.931 . S
C120 C121 1.413 . S
C120 C122 1.360 . S
C121 C120 1.413 . S
C121 C125 1.429 . S
C122 C120 1.360 . S
C122 C123 1.372 . S
C123 H118 0.928 . S
C123 C122 1.372 . S
C123 C124 1.404 . S
C124 C123 1.404 . S
C124 C125 1.391 . S
C125 H119 0.930 . S
C125 C121 1.429 . S
C125 C124 1.391 . S
H126 C129 0.931 . S
H127 C132 0.928 . S
H128 C134 0.930 . S
C129 H126 0.931 . S
C129 C130 1.413 . S
C129 C131 1.360 . S
C130 C129 1.413 . S
C130 C134 1.429 . S
C131 C129 1.360 . S
C131 C132 1.372 . S
C132 H127 0.928 . S
C132 C131 1.372 . S
C132 C133 1.404 . S
C133 C132 1.404 . S
C133 C134 1.391 . S
C134 H128 0.930 . S
C134 C130 1.429 . S
C134 C133 1.391 . S
H135 C138 0.931 . S
H136 C141 0.928 . S
H137 C143 0.930 . S
C138 H135 0.931 . S
C138 C139 1.413 . S
C138 C140 1.360 . S
C139 C138 1.413 . S
C139 C143 1.429 . S
C140 C138 1.360 . S
C140 C141 1.372 . S
C141 H136 0.928 . S
C141 C140 1.372 . S
C141 C142 1.404 . S
C142 C141 1.404 . S
C142 C143 1.391 . S
C143 H137 0.930 . S
C143 C139 1.429 . S
C143 C142 1.391 . S
H144 C147 0.931 . S
H145 C150 0.928 . S
H146 C152 0.930 . S
C147 H144 0.931 . S
C147 C148 1.413 . S
C147 C149 1.360 . S
C148 C147 1.413 . S
C148 C152 1.429 . S
C149 C147 1.360 . S
C149 C150 1.372 . S
C150 H145 0.928 . S
C150 C149 1.372 . S
C150 C151 1.404 . S
C151 C150 1.404 . S
C151 C152 1.391 . S
C152 H146 0.930 . S
C152 C148 1.429 . S
C152 C151 1.391 . S
H153 C156 0.931 . S
H154 C159 0.928 . S
H155 C161 0.930 . S
C156 H153 0.931 . S
C156 C157 1.413 . S
C156 C158 1.360 . S
C157 C156 1.413 . S
C157 C161 1.429 . S
C158 C156 1.360 . S
C158 C159 1.372 . S
C159 H154 0.928 . S
C159 C158 1.372 . S
C159 C160 1.404 . S
C160 C159 1.404 . S
C160 C161 1.391 . S
C161 H155 0.930 . S
C161 C157 1.429 . S
C161 C160 1.391 . S
Tb162 N193 2.660 . S
Tb162 N200 2.600 . S
Tb162 O206 2.546 . S
Tb162 O207 2.610 1_565 S
Tb162 O209 2.320 1_565 S
Tb162 O210 2.552 1_565 S
Tb162 O211 2.413 . S
Tb162 O213 2.362 1_556 S
Tb162 O214 2.421 . S
Tb162 C226 2.833 . S
C163 C166 1.432 . S
C163 C167 1.414 . S
C163 N170 1.359 . S
C164 C166 1.417 . S
C164 C168 1.432 . S
C164 C176 1.410 . S
C165 C167 1.444 . S
C165 C168 1.317 . S
C165 H188 0.929 . S
C166 C163 1.432 . S
C166 C164 1.417 . S
C166 N174 1.360 . S
C167 C163 1.414 . S
C167 C165 1.444 . S
C167 C172 1.385 . S
C168 C164 1.432 . S
C168 C165 1.317 . S
C168 H180 0.930 . S
C169 C171 1.392 . S
C169 C172 1.370 . S
C169 H181 0.931 . S
N170 C163 1.359 . S
N170 C171 1.327 . S
N170 Tb173 2.600 . S
C171 C169 1.392 . S
C171 N170 1.327 . S
C171 H178 0.930 . S
C172 C167 1.385 . S
C172 C169 1.370 . S
C172 H191 0.930 . S
Tb173 N170 2.600 . S
Tb173 N174 2.660 . S
Tb173 O207 2.362 1_554 S
Tb173 O208 2.421 . S
Tb173 O212 2.546 . S
Tb173 O213 2.610 1_545 S
Tb173 O215 2.320 1_545 S
Tb173 O216 2.552 1_545 S
Tb173 O217 2.413 . S
Tb173 C237 2.833 . S
N174 C166 1.360 . S
N174 Tb173 2.660 . S
N174 C175 1.305 . S
C175 N174 1.305 . S
C175 C177 1.407 . S
C175 H182 0.930 . S
C176 C164 1.410 . S
C176 C177 1.345 . S
C176 H184 0.930 . S
C177 C175 1.407 . S
C177 C176 1.345 . S
C177 H179 0.930 . S
H178 C171 0.930 . S
H179 C177 0.930 . S
H180 C168 0.930 . S
H181 C169 0.931 . S
H182 C175 0.930 . S
H183 C197 0.930 . S
H184 C176 0.930 . S
H185 C203 0.930 . S
H186 C194 0.930 . S
H187 C201 0.931 . S
H188 C165 0.929 . S
H189 C195 0.930 . S
H190 C228 0.930 . S
H191 C172 0.930 . S
H192 C227 0.929 . S
N193 Tb162 2.660 . S
N193 C194 1.305 . S
N193 C198 1.360 . S
C194 H186 0.930 . S
C194 N193 1.305 . S
C194 C197 1.407 . S
C195 H189 0.930 . S
C195 C196 1.410 . S
C195 C197 1.345 . S
C196 C195 1.410 . S
C196 C198 1.417 . S
C196 C228 1.432 . S
C197 H183 0.930 . S
C197 C194 1.407 . S
C197 C195 1.345 . S
C198 N193 1.360 . S
C198 C196 1.417 . S
C198 C202 1.432 . S
H199 C204 0.930 . S
N200 Tb162 2.600 . S
N200 C202 1.359 . S
N200 C203 1.327 . S
C201 H187 0.931 . S
C201 C203 1.392 . S
C201 C204 1.370 . S
C202 C198 1.432 . S
C202 N200 1.359 . S
C202 C205 1.414 . S
C203 H185 0.930 . S
C203 N200 1.327 . S
C203 C201 1.392 . S
C204 H199 0.930 . S
C204 C201 1.370 . S
C204 C205 1.385 . S
C205 C202 1.414 . S
C205 C204 1.385 . S
C205 C227 1.444 . S
O206 Tb162 2.546 . S
O206 C226 1.251 . S
O207 Tb162 2.610 1_545 S
O207 Tb173 2.362 1_556 S
O207 C218 1.283 . S
O208 Tb173 2.421 . S
O208 C225 1.262 1_554 S
O209 Tb162 2.320 1_545 S
O209 C225 1.260 . S
O210 Tb162 2.552 1_545 S
O210 C218 1.243 . S
O211 Tb162 2.413 . S
O211 C226 1.256 . S
O212 Tb173 2.546 . S
O212 C237 1.251 . S
O213 Tb162 2.362 1_554 S
O213 Tb173 2.610 1_565 S
O213 C229 1.283 . S
O214 Tb162 2.421 . S
O214 C236 1.262 1_556 S
O215 Tb173 2.320 1_565 S
O215 C236 1.260 . S
O216 Tb173 2.552 1_565 S
O216 C229 1.243 . S
O217 Tb173 2.413 . S
O217 C237 1.256 . S
C218 O207 1.283 . S
C218 O210 1.243 . S
C219 C221 1.382 1_565 S
C219 C223 1.393 . S
C219 C226 1.500 . S
C220 C221 1.400 . S
C220 C222 1.384 1_545 S
C221 C219 1.382 1_545 S
C221 C220 1.400 . S
C221 H238 0.930 . S
C222 C220 1.384 1_565 S
C222 C224 1.392 . S
C222 H239 0.931 . S
C223 C219 1.393 . S
C223 C224 1.401 . S
C223 H240 0.930 . S
C224 C222 1.392 . S
C224 C223 1.401 . S
C224 H241 0.930 . S
C225 O208 1.262 1_556 S
C225 O209 1.260 . S
C226 Tb162 2.833 . S
C226 O206 1.251 . S
C226 O211 1.256 . S
C226 C219 1.500 . S
C227 H192 0.929 . S
C227 C205 1.444 . S
C227 C228 1.317 . S
C228 H190 0.930 . S
C228 C196 1.432 . S
C228 C227 1.317 . S
C229 O213 1.283 . S
C229 O216 1.243 . S
C230 C231 1.382 1_545 S
C230 C234 1.393 . S
C230 C237 1.500 . S
C231 C230 1.382 1_565 S
C231 C232 1.400 . S
C231 H242 0.930 . S
C232 C231 1.400 . S
C232 C233 1.384 1_565 S
C233 C232 1.384 1_545 S
C233 C235 1.392 . S
C233 H243 0.931 . S
C234 C230 1.393 . S
C234 C235 1.401 . S
C234 H244 0.930 . S
C235 C233 1.392 . S
C235 C234 1.401 . S
C235 H245 0.930 . S
C236 O214 1.262 1_554 S
C236 O215 1.260 . S
C237 Tb173 2.833 . S
C237 O212 1.251 . S
C237 O217 1.256 . S
C237 C230 1.500 . S
H238 C221 0.930 . S
H239 C222 0.931 . S
H240 C223 0.930 . S
H241 C224 0.930 . S
H242 C231 0.930 . S
H243 C233 0.931 . S
H244 C234 0.930 . S
H245 C235 0.930 . S
Tb246 N277 2.660 . S
Tb246 N284 2.600 . S
Tb246 O290 2.546 . S
Tb246 O291 2.610 1_455 S
Tb246 O293 2.320 1_455 S
Tb246 O294 2.552 1_455 S
Tb246 O295 2.413 . S
Tb246 O297 2.362 1_556 S
Tb246 O298 2.421 . S
Tb246 C310 2.833 . S
C247 C250 1.432 . S
C247 C251 1.414 . S
C247 N254 1.359 . S
C248 C250 1.417 . S
C248 C252 1.432 . S
C248 C260 1.410 . S
C249 C251 1.444 . S
C249 C252 1.317 . S
C249 H272 0.929 . S
C250 C247 1.432 . S
C250 C248 1.417 . S
C250 N258 1.360 . S
C251 C247 1.414 . S
C251 C249 1.444 . S
C251 C256 1.385 . S
C252 C248 1.432 . S
C252 C249 1.317 . S
C252 H264 0.930 . S
C253 C255 1.392 . S
C253 C256 1.370 . S
C253 H265 0.931 . S
N254 C247 1.359 . S
N254 C255 1.327 . S
N254 Tb257 2.600 . S
C255 C253 1.392 . S
C255 N254 1.327 . S
C255 H262 0.930 . S
C256 C251 1.385 . S
C256 C253 1.370 . S
C256 H275 0.930 . S
Tb257 N254 2.600 . S
Tb257 N258 2.660 . S
Tb257 O291 2.362 1_554 S
Tb257 O292 2.421 . S
Tb257 O296 2.546 . S
Tb257 O297 2.610 1_655 S
Tb257 O299 2.320 1_655 S
Tb257 O300 2.552 1_655 S
Tb257 O301 2.413 . S
Tb257 C321 2.833 . S
N258 C250 1.360 . S
N258 Tb257 2.660 . S
N258 C259 1.305 . S
C259 N258 1.305 . S
C259 C261 1.407 . S
C259 H266 0.930 . S
C260 C248 1.410 . S
C260 C261 1.345 . S
C260 H268 0.930 . S
C261 C259 1.407 . S
C261 C260 1.345 . S
C261 H263 0.930 . S
H262 C255 0.930 . S
H263 C261 0.930 . S
H264 C252 0.930 . S
H265 C253 0.931 . S
H266 C259 0.930 . S
H267 C281 0.930 . S
H268 C260 0.930 . S
H269 C287 0.930 . S
H270 C278 0.930 . S
H271 C285 0.931 . S
H272 C249 0.929 . S
H273 C279 0.930 . S
H274 C312 0.930 . S
H275 C256 0.930 . S
H276 C311 0.929 . S
N277 Tb246 2.660 . S
N277 C278 1.305 . S
N277 C282 1.360 . S
C278 H270 0.930 . S
C278 N277 1.305 . S
C278 C281 1.407 . S
C279 H273 0.930 . S
C279 C280 1.410 . S
C279 C281 1.345 . S
C280 C279 1.410 . S
C280 C282 1.417 . S
C280 C312 1.432 . S
C281 H267 0.930 . S
C281 C278 1.407 . S
C281 C279 1.345 . S
C282 N277 1.360 . S
C282 C280 1.417 . S
C282 C286 1.432 . S
H283 C288 0.930 . S
N284 Tb246 2.600 . S
N284 C286 1.359 . S
N284 C287 1.327 . S
C285 H271 0.931 . S
C285 C287 1.392 . S
C285 C288 1.370 . S
C286 C282 1.432 . S
C286 N284 1.359 . S
C286 C289 1.414 . S
C287 H269 0.930 . S
C287 N284 1.327 . S
C287 C285 1.392 . S
C288 H283 0.930 . S
C288 C285 1.370 . S
C288 C289 1.385 . S
C289 C286 1.414 . S
C289 C288 1.385 . S
C289 C311 1.444 . S
O290 Tb246 2.546 . S
O290 C310 1.251 . S
O291 Tb246 2.610 1_655 S
O291 Tb257 2.362 1_556 S
O291 C302 1.283 . S
O292 Tb257 2.421 . S
O292 C309 1.262 1_554 S
O293 Tb246 2.320 1_655 S
O293 C309 1.260 . S
O294 Tb246 2.552 1_655 S
O294 C302 1.243 . S
O295 Tb246 2.413 . S
O295 C310 1.256 . S
O296 Tb257 2.546 . S
O296 C321 1.251 . S
O297 Tb246 2.362 1_554 S
O297 Tb257 2.610 1_455 S
O297 C313 1.283 . S
O298 Tb246 2.421 . S
O298 C320 1.262 1_556 S
O299 Tb257 2.320 1_455 S
O299 C320 1.260 . S
O300 Tb257 2.552 1_455 S
O300 C313 1.243 . S
O301 Tb257 2.413 . S
O301 C321 1.256 . S
C302 O291 1.283 . S
C302 O294 1.243 . S
C303 C305 1.382 1_455 S
C303 C307 1.393 . S
C303 C310 1.500 . S
C304 C305 1.400 . S
C304 C306 1.384 1_655 S
C305 C303 1.382 1_655 S
C305 C304 1.400 . S
C305 H322 0.930 . S
C306 C304 1.384 1_455 S
C306 C308 1.392 . S
C306 H323 0.931 . S
C307 C303 1.393 . S
C307 C308 1.401 . S
C307 H324 0.930 . S
C308 C306 1.392 . S
C308 C307 1.401 . S
C308 H325 0.930 . S
C309 O292 1.262 1_556 S
C309 O293 1.260 . S
C310 Tb246 2.833 . S
C310 O290 1.251 . S
C310 O295 1.256 . S
C310 C303 1.500 . S
C311 H276 0.929 . S
C311 C289 1.444 . S
C311 C312 1.317 . S
C312 H274 0.930 . S
C312 C280 1.432 . S
C312 C311 1.317 . S
C313 O297 1.283 . S
C313 O300 1.243 . S
C314 C315 1.382 1_655 S
C314 C318 1.393 . S
C314 C321 1.500 . S
C315 C314 1.382 1_455 S
C315 C316 1.400 . S
C315 H326 0.930 . S
C316 C315 1.400 . S
C316 C317 1.384 1_455 S
C317 C316 1.384 1_655 S
C317 C319 1.392 . S
C317 H327 0.931 . S
C318 C314 1.393 . S
C318 C319 1.401 . S
C318 H328 0.930 . S
C319 C317 1.392 . S
C319 C318 1.401 . S
C319 H329 0.930 . S
C320 O298 1.262 1_554 S
C320 O299 1.260 . S
C321 Tb257 2.833 . S
C321 O296 1.251 . S
C321 O301 1.256 . S
C321 C314 1.500 . S
H322 C305 0.930 . S
H323 C306 0.931 . S
H324 C307 0.930 . S
H325 C308 0.930 . S
H326 C315 0.930 . S
H327 C317 0.931 . S
H328 C318 0.930 . S
H329 C319 0.930 . S
Tb330 N361 2.660 . S
Tb330 N368 2.600 . S
Tb330 O374 2.546 . S
Tb330 O375 2.610 . S
Tb330 O377 2.320 . S
Tb330 O378 2.552 . S
Tb330 O379 2.413 . S
Tb330 O381 2.362 1_554 S
Tb330 O382 2.421 . S
Tb330 C394 2.833 . S
C331 C334 1.432 . S
C331 C335 1.414 . S
C331 N338 1.359 . S
C332 C334 1.417 . S
C332 C336 1.432 . S
C332 C344 1.410 . S
C333 C335 1.444 . S
C333 C336 1.317 . S
C333 H356 0.929 . S
C334 C331 1.432 . S
C334 C332 1.417 . S
C334 N342 1.360 . S
C335 C331 1.414 . S
C335 C333 1.444 . S
C335 C340 1.385 . S
C336 C332 1.432 . S
C336 C333 1.317 . S
C336 H348 0.930 . S
C337 C339 1.392 . S
C337 C340 1.370 . S
C337 H349 0.931 . S
N338 C331 1.359 . S
N338 C339 1.327 . S
N338 Tb341 2.600 . S
C339 C337 1.392 . S
C339 N338 1.327 . S
C339 H346 0.930 . S
C340 C335 1.385 . S
C340 C337 1.370 . S
C340 H359 0.930 . S
Tb341 N338 2.600 . S
Tb341 N342 2.660 . S
Tb341 O375 2.362 1_556 S
Tb341 O376 2.421 . S
Tb341 O380 2.546 . S
Tb341 O381 2.610 . S
Tb341 O383 2.320 . S
Tb341 O384 2.552 . S
Tb341 O385 2.413 . S
Tb341 C405 2.833 . S
N342 C334 1.360 . S
N342 Tb341 2.660 . S
N342 C343 1.305 . S
C343 N342 1.305 . S
C343 C345 1.407 . S
C343 H350 0.930 . S
C344 C332 1.410 . S
C344 C345 1.345 . S
C344 H352 0.930 . S
C345 C343 1.407 . S
C345 C344 1.345 . S
C345 H347 0.930 . S
H346 C339 0.930 . S
H347 C345 0.930 . S
H348 C336 0.930 . S
H349 C337 0.931 . S
H350 C343 0.930 . S
H351 C365 0.930 . S
H352 C344 0.930 . S
H353 C371 0.930 . S
H354 C362 0.930 . S
H355 C369 0.931 . S
H356 C333 0.929 . S
H357 C363 0.930 . S
H358 C396 0.930 . S
H359 C340 0.930 . S
H360 C395 0.929 . S
N361 Tb330 2.660 . S
N361 C362 1.305 . S
N361 C366 1.360 . S
C362 H354 0.930 . S
C362 N361 1.305 . S
C362 C365 1.407 . S
C363 H357 0.930 . S
C363 C364 1.410 . S
C363 C365 1.345 . S
C364 C363 1.410 . S
C364 C366 1.417 . S
C364 C396 1.432 . S
C365 H351 0.930 . S
C365 C362 1.407 . S
C365 C363 1.345 . S
C366 N361 1.360 . S
C366 C364 1.417 . S
C366 C370 1.432 . S
H367 C372 0.930 . S
N368 Tb330 2.600 . S
N368 C370 1.359 . S
N368 C371 1.327 . S
C369 H355 0.931 . S
C369 C371 1.392 . S
C369 C372 1.370 . S
C370 C366 1.432 . S
C370 N368 1.359 . S
C370 C373 1.414 . S
C371 H353 0.930 . S
C371 N368 1.327 . S
C371 C369 1.392 . S
C372 H367 0.930 . S
C372 C369 1.370 . S
C372 C373 1.385 . S
C373 C370 1.414 . S
C373 C372 1.385 . S
C373 C395 1.444 . S
O374 Tb330 2.546 . S
O374 C394 1.251 . S
O375 Tb330 2.610 . S
O375 Tb341 2.362 1_554 S
O375 C386 1.283 . S
O376 Tb341 2.421 . S
O376 C393 1.262 1_556 S
O377 Tb330 2.320 . S
O377 C393 1.260 . S
O378 Tb330 2.552 . S
O378 C386 1.243 . S
O379 Tb330 2.413 . S
O379 C394 1.256 . S
O380 Tb341 2.546 . S
O380 C405 1.251 . S
O381 Tb330 2.362 1_556 S
O381 Tb341 2.610 . S
O381 C397 1.283 . S
O382 Tb330 2.421 . S
O382 C404 1.262 1_554 S
O383 Tb341 2.320 . S
O383 C404 1.260 . S
O384 Tb341 2.552 . S
O384 C397 1.243 . S
O385 Tb341 2.413 . S
O385 C405 1.256 . S
C386 O375 1.283 . S
C386 O378 1.243 . S
C387 C389 1.382 . S
C387 C391 1.393 . S
C387 C394 1.500 . S
C388 C389 1.400 . S
C388 C390 1.384 . S
C389 C387 1.382 . S
C389 C388 1.400 . S
C389 H406 0.930 . S
C390 C388 1.384 . S
C390 C392 1.392 . S
C390 H407 0.931 . S
C391 C387 1.393 . S
C391 C392 1.401 . S
C391 H408 0.930 . S
C392 C390 1.392 . S
C392 C391 1.401 . S
C392 H409 0.930 . S
C393 O376 1.262 1_554 S
C393 O377 1.260 . S
C394 Tb330 2.833 . S
C394 O374 1.251 . S
C394 O379 1.256 . S
C394 C387 1.500 . S
C395 H360 0.929 . S
C395 C373 1.444 . S
C395 C396 1.317 . S
C396 H358 0.930 . S
C396 C364 1.432 . S
C396 C395 1.317 . S
C397 O381 1.283 . S
C397 O384 1.243 . S
C398 C399 1.382 . S
C398 C402 1.393 . S
C398 C405 1.500 . S
C399 C398 1.382 . S
C399 C400 1.400 . S
C399 H410 0.930 . S
C400 C399 1.400 . S
C400 C401 1.384 . S
C401 C400 1.384 . S
C401 C403 1.392 . S
C401 H411 0.931 . S
C402 C398 1.393 . S
C402 C403 1.401 . S
C402 H412 0.930 . S
C403 C401 1.392 . S
C403 C402 1.401 . S
C403 H413 0.930 . S
C404 O382 1.262 1_556 S
C404 O383 1.260 . S
C405 Tb341 2.833 . S
C405 O380 1.251 . S
C405 O385 1.256 . S
C405 C398 1.500 . S
H406 C389 0.930 . S
H407 C390 0.931 . S
H408 C391 0.930 . S
H409 C392 0.930 . S
H410 C399 0.930 . S
H411 C401 0.931 . S
H412 C402 0.930 . S
H413 C403 0.930 . S
Tb414 N445 2.660 . S
Tb414 N452 2.600 . S
Tb414 O458 2.546 . S
Tb414 O459 2.610 . S
Tb414 O461 2.320 . S
Tb414 O462 2.552 . S
Tb414 O463 2.413 . S
Tb414 O465 2.362 . S
Tb414 O466 2.421 . S
Tb414 C478 2.833 . S
C415 C418 1.432 . S
C415 C419 1.414 . S
C415 N422 1.359 . S
C416 C418 1.417 . S
C416 C420 1.432 . S
C416 C428 1.410 . S
C417 C419 1.444 . S
C417 C420 1.317 . S
C417 H440 0.929 . S
C418 C415 1.432 . S
C418 C416 1.417 . S
C418 N426 1.360 . S
C419 C415 1.414 . S
C419 C417 1.444 . S
C419 C424 1.385 . S
C420 C416 1.432 . S
C420 C417 1.317 . S
C420 H432 0.930 . S
C421 C423 1.392 . S
C421 C424 1.370 . S
C421 H433 0.931 . S
N422 C415 1.359 . S
N422 C423 1.327 . S
N422 Tb425 2.600 . S
C423 C421 1.392 . S
C423 N422 1.327 . S
C423 H430 0.930 . S
C424 C419 1.385 . S
C424 C421 1.370 . S
C424 H443 0.930 . S
Tb425 N422 2.600 . S
Tb425 N426 2.660 . S
Tb425 O459 2.362 . S
Tb425 O460 2.421 . S
Tb425 O464 2.546 . S
Tb425 O465 2.610 . S
Tb425 O467 2.320 . S
Tb425 O468 2.552 . S
Tb425 O469 2.413 . S
Tb425 C489 2.833 . S
N426 C418 1.360 . S
N426 Tb425 2.660 . S
N426 C427 1.305 . S
C427 N426 1.305 . S
C427 C429 1.407 . S
C427 H434 0.930 . S
C428 C416 1.410 . S
C428 C429 1.345 . S
C428 H436 0.930 . S
C429 C427 1.407 . S
C429 C428 1.345 . S
C429 H431 0.930 . S
H430 C423 0.930 . S
H431 C429 0.930 . S
H432 C420 0.930 . S
H433 C421 0.931 . S
H434 C427 0.930 . S
H435 C449 0.930 . S
H436 C428 0.930 . S
H437 C455 0.930 . S
H438 C446 0.930 . S
H439 C453 0.931 . S
H440 C417 0.929 . S
H441 C447 0.930 1_655 S
H442 C480 0.930 1_655 S
H443 C424 0.930 . S
H444 C479 0.929 . S
N445 Tb414 2.660 . S
N445 C446 1.305 . S
N445 C450 1.360 . S
C446 H438 0.930 . S
C446 N445 1.305 . S
C446 C449 1.407 . S
C447 H441 0.930 1_455 S
C447 C448 1.410 . S
C447 C449 1.345 . S
C448 C447 1.410 . S
C448 C450 1.417 . S
C448 C480 1.432 . S
C449 H435 0.930 . S
C449 C446 1.407 . S
C449 C447 1.345 . S
C450 N445 1.360 . S
C450 C448 1.417 . S
C450 C454 1.432 . S
H451 C456 0.930 . S
N452 Tb414 2.600 . S
N452 C454 1.359 . S
N452 C455 1.327 . S
C453 H439 0.931 . S
C453 C455 1.392 . S
C453 C456 1.370 . S
C454 C450 1.432 . S
C454 N452 1.359 . S
C454 C457 1.414 . S
C455 H437 0.930 . S
C455 N452 1.327 . S
C455 C453 1.392 . S
C456 H451 0.930 . S
C456 C453 1.370 . S
C456 C457 1.385 . S
C457 C454 1.414 . S
C457 C456 1.385 . S
C457 C479 1.444 . S
O458 Tb414 2.546 . S
O458 C478 1.251 . S
O459 Tb414 2.610 . S
O459 Tb425 2.362 . S
O459 C470 1.283 . S
O460 Tb425 2.421 . S
O460 C477 1.262 . S
O461 Tb414 2.320 . S
O461 C477 1.260 . S
O462 Tb414 2.552 . S
O462 C470 1.243 . S
O463 Tb414 2.413 . S
O463 C478 1.256 . S
O464 Tb425 2.546 . S
O464 C489 1.251 . S
O465 Tb414 2.362 . S
O465 Tb425 2.610 . S
O465 C481 1.283 . S
O466 Tb414 2.421 . S
O466 C488 1.262 . S
O467 Tb425 2.320 . S
O467 C488 1.260 . S
O468 Tb425 2.552 . S
O468 C481 1.243 . S
O469 Tb425 2.413 . S
O469 C489 1.256 . S
C470 O459 1.283 . S
C470 O462 1.243 . S
C471 C473 1.382 . S
C471 C475 1.393 . S
C471 C478 1.500 . S
C472 C473 1.400 . S
C472 C474 1.384 . S
C473 C471 1.382 . S
C473 C472 1.400 . S
C473 H490 0.930 . S
C474 C472 1.384 . S
C474 C476 1.392 . S
C474 H491 0.931 . S
C475 C471 1.393 . S
C475 C476 1.401 . S
C475 H492 0.930 . S
C476 C474 1.392 . S
C476 C475 1.401 . S
C476 H493 0.930 . S
C477 O460 1.262 . S
C477 O461 1.260 . S
C478 Tb414 2.833 . S
C478 O458 1.251 . S
C478 O463 1.256 . S
C478 C471 1.500 . S
C479 H444 0.929 . S
C479 C457 1.444 . S
C479 C480 1.317 . S
C480 H442 0.930 1_455 S
C480 C448 1.432 . S
C480 C479 1.317 . S
C481 O465 1.283 . S
C481 O468 1.243 . S
C482 C483 1.382 . S
C482 C486 1.393 . S
C482 C489 1.500 . S
C483 C482 1.382 . S
C483 C484 1.400 . S
C483 H494 0.930 . S
C484 C483 1.400 . S
C484 C485 1.384 . S
C485 C484 1.384 . S
C485 C487 1.392 . S
C485 H495 0.931 . S
C486 C482 1.393 . S
C486 C487 1.401 . S
C486 H496 0.930 . S
C487 C485 1.392 . S
C487 C486 1.401 . S
C487 H497 0.930 . S
C488 O466 1.262 . S
C488 O467 1.260 . S
C489 Tb425 2.833 . S
C489 O464 1.251 . S
C489 O469 1.256 . S
C489 C482 1.500 . S
H490 C473 0.930 . S
H491 C474 0.931 . S
H492 C475 0.930 . S
H493 C476 0.930 . S
H494 C483 0.930 . S
H495 C485 0.931 . S
H496 C486 0.930 . S
H497 C487 0.930 . S
Tb498 N529 2.660 . S
Tb498 N536 2.600 . S
Tb498 O542 2.546 . S
Tb498 O543 2.610 . S
Tb498 O545 2.320 . S
Tb498 O546 2.552 . S
Tb498 O547 2.413 . S
Tb498 O549 2.362 . S
Tb498 O550 2.421 . S
Tb498 C562 2.833 . S
C499 C502 1.432 . S
C499 C503 1.414 . S
C499 N506 1.359 . S
C500 C502 1.417 . S
C500 C504 1.432 . S
C500 C512 1.410 . S
C501 C503 1.444 . S
C501 C504 1.317 . S
C501 H524 0.929 . S
C502 C499 1.432 . S
C502 C500 1.417 . S
C502 N510 1.360 . S
C503 C499 1.414 . S
C503 C501 1.444 . S
C503 C508 1.385 . S
C504 C500 1.432 . S
C504 C501 1.317 . S
C504 H516 0.930 . S
C505 C507 1.392 . S
C505 C508 1.370 . S
C505 H517 0.931 . S
N506 C499 1.359 . S
N506 C507 1.327 . S
N506 Tb509 2.600 . S
C507 C505 1.392 . S
C507 N506 1.327 . S
C507 H514 0.930 . S
C508 C503 1.385 . S
C508 C505 1.370 . S
C508 H527 0.930 . S
Tb509 N506 2.600 . S
Tb509 N510 2.660 . S
Tb509 O543 2.362 . S
Tb509 O544 2.421 . S
Tb509 O548 2.546 . S
Tb509 O549 2.610 . S
Tb509 O551 2.320 . S
Tb509 O552 2.552 . S
Tb509 O553 2.413 . S
Tb509 C573 2.833 . S
N510 C502 1.360 . S
N510 Tb509 2.660 . S
N510 C511 1.305 . S
C511 N510 1.305 . S
C511 C513 1.407 . S
C511 H518 0.930 . S
C512 C500 1.410 . S
C512 C513 1.345 . S
C512 H520 0.930 . S
C513 C511 1.407 . S
C513 C512 1.345 . S
C513 H515 0.930 . S
H514 C507 0.930 . S
H515 C513 0.930 . S
H516 C504 0.930 . S
H517 C505 0.931 . S
H518 C511 0.930 . S
H519 C533 0.930 . S
H520 C512 0.930 . S
H521 C539 0.930 . S
H522 C530 0.930 . S
H523 C537 0.931 . S
H524 C501 0.929 . S
H525 C531 0.930 . S
H526 C564 0.930 . S
H527 C508 0.930 . S
H528 C563 0.929 . S
N529 Tb498 2.660 . S
N529 C530 1.305 . S
N529 C534 1.360 . S
C530 H522 0.930 . S
C530 N529 1.305 . S
C530 C533 1.407 . S
C531 H525 0.930 . S
C531 C532 1.410 . S
C531 C533 1.345 . S
C532 C531 1.410 . S
C532 C534 1.417 . S
C532 C564 1.432 . S
C533 H519 0.930 . S
C533 C530 1.407 . S
C533 C531 1.345 . S
C534 N529 1.360 . S
C534 C532 1.417 . S
C534 C538 1.432 . S
H535 C540 0.930 . S
N536 Tb498 2.600 . S
N536 C538 1.359 . S
N536 C539 1.327 . S
C537 H523 0.931 . S
C537 C539 1.392 . S
C537 C540 1.370 . S
C538 C534 1.432 . S
C538 N536 1.359 . S
C538 C541 1.414 . S
C539 H521 0.930 . S
C539 N536 1.327 . S
C539 C537 1.392 . S
C540 H535 0.930 . S
C540 C537 1.370 . S
C540 C541 1.385 . S
C541 C538 1.414 . S
C541 C540 1.385 . S
C541 C563 1.444 . S
O542 Tb498 2.546 . S
O542 C562 1.251 . S
O543 Tb498 2.610 . S
O543 Tb509 2.362 . S
O543 C554 1.283 . S
O544 Tb509 2.421 . S
O544 C561 1.262 . S
O545 Tb498 2.320 . S
O545 C561 1.260 . S
O546 Tb498 2.552 . S
O546 C554 1.243 . S
O547 Tb498 2.413 . S
O547 C562 1.256 . S
O548 Tb509 2.546 . S
O548 C573 1.251 . S
O549 Tb498 2.362 . S
O549 Tb509 2.610 . S
O549 C565 1.283 . S
O550 Tb498 2.421 . S
O550 C572 1.262 . S
O551 Tb509 2.320 . S
O551 C572 1.260 . S
O552 Tb509 2.552 . S
O552 C565 1.243 . S
O553 Tb509 2.413 . S
O553 C573 1.256 . S
C554 O543 1.283 . S
C554 O546 1.243 . S
C555 C557 1.382 . S
C555 C559 1.393 . S
C555 C562 1.500 . S
C556 C557 1.400 . S
C556 C558 1.384 . S
C557 C555 1.382 . S
C557 C556 1.400 . S
C557 H574 0.930 . S
C558 C556 1.384 . S
C558 C560 1.392 . S
C558 H575 0.931 . S
C559 C555 1.393 . S
C559 C560 1.401 . S
C559 H576 0.930 . S
C560 C558 1.392 . S
C560 C559 1.401 . S
C560 H577 0.930 . S
C561 O544 1.262 . S
C561 O545 1.260 . S
C562 Tb498 2.833 . S
C562 O542 1.251 . S
C562 O547 1.256 . S
C562 C555 1.500 . S
C563 H528 0.929 . S
C563 C541 1.444 . S
C563 C564 1.317 . S
C564 H526 0.930 . S
C564 C532 1.432 . S
C564 C563 1.317 . S
C565 O549 1.283 . S
C565 O552 1.243 . S
C566 C567 1.382 . S
C566 C570 1.393 . S
C566 C573 1.500 . S
C567 C566 1.382 . S
C567 C568 1.400 . S
C567 H578 0.930 . S
C568 C567 1.400 . S
C568 C569 1.384 . S
C569 C568 1.384 . S
C569 C571 1.392 . S
C569 H579 0.931 . S
C570 C566 1.393 . S
C570 C571 1.401 . S
C570 H580 0.930 . S
C571 C569 1.392 . S
C571 C570 1.401 . S
C571 H581 0.930 . S
C572 O550 1.262 . S
C572 O551 1.260 . S
C573 Tb509 2.833 . S
C573 O548 1.251 . S
C573 O553 1.256 . S
C573 C566 1.500 . S
H574 C557 0.930 . S
H575 C558 0.931 . S
H576 C559 0.930 . S
H577 C560 0.930 . S
H578 C567 0.930 . S
H579 C569 0.931 . S
H580 C570 0.930 . S
H581 C571 0.930 . S
Tb582 N613 2.660 . S
Tb582 N620 2.600 . S
Tb582 O626 2.546 . S
Tb582 O627 2.610 . S
Tb582 O629 2.320 . S
Tb582 O630 2.552 . S
Tb582 O631 2.413 . S
Tb582 O633 2.362 . S
Tb582 O634 2.421 . S
Tb582 C646 2.833 . S
C583 C586 1.432 . S
C583 C587 1.414 . S
C583 N590 1.359 . S
C584 C586 1.417 . S
C584 C588 1.432 . S
C584 C596 1.410 . S
C585 C587 1.444 . S
C585 C588 1.317 . S
C585 H608 0.929 . S
C586 C583 1.432 . S
C586 C584 1.417 . S
C586 N594 1.360 . S
C587 C583 1.414 . S
C587 C585 1.444 . S
C587 C592 1.385 . S
C588 C584 1.432 . S
C588 C585 1.317 . S
C588 H600 0.930 1_455 S
C589 C591 1.392 . S
C589 C592 1.370 . S
C589 H601 0.931 . S
N590 C583 1.359 . S
N590 C591 1.327 . S
N590 Tb593 2.600 . S
C591 C589 1.392 . S
C591 N590 1.327 . S
C591 H598 0.930 . S
C592 C587 1.385 . S
C592 C589 1.370 . S
C592 H611 0.930 . S
Tb593 N590 2.600 . S
Tb593 N594 2.660 . S
Tb593 O627 2.362 . S
Tb593 O628 2.421 . S
Tb593 O632 2.546 . S
Tb593 O633 2.610 . S
Tb593 O635 2.320 . S
Tb593 O636 2.552 . S
Tb593 O637 2.413 . S
Tb593 C657 2.833 . S
N594 C586 1.360 . S
N594 Tb593 2.660 . S
N594 C595 1.305 . S
C595 N594 1.305 . S
C595 C597 1.407 . S
C595 H602 0.930 . S
C596 C584 1.410 . S
C596 C597 1.345 . S
C596 H604 0.930 1_455 S
C597 C595 1.407 . S
C597 C596 1.345 . S
C597 H599 0.930 . S
H598 C591 0.930 . S
H599 C597 0.930 . S
H600 C588 0.930 1_655 S
H601 C589 0.931 . S
H602 C595 0.930 . S
H603 C617 0.930 . S
H604 C596 0.930 1_655 S
H605 C623 0.930 . S
H606 C614 0.930 . S
H607 C621 0.931 . S
H608 C585 0.929 . S
H609 C615 0.930 . S
H610 C648 0.930 . S
H611 C592 0.930 . S
H612 C647 0.929 . S
N613 Tb582 2.660 . S
N613 C614 1.305 . S
N613 C618 1.360 . S
C614 H606 0.930 . S
C614 N613 1.305 . S
C614 C617 1.407 . S
C615 H609 0.930 . S
C615 C616 1.410 . S
C615 C617 1.345 . S
C616 C615 1.410 . S
C616 C618 1.417 . S
C616 C648 1.432 . S
C617 H603 0.930 . S
C617 C614 1.407 . S
C617 C615 1.345 . S
C618 N613 1.360 . S
C618 C616 1.417 . S
C618 C622 1.432 . S
H619 C624 0.930 . S
N620 Tb582 2.600 . S
N620 C622 1.359 . S
N620 C623 1.327 . S
C621 H607 0.931 . S
C621 C623 1.392 . S
C621 C624 1.370 . S
C622 C618 1.432 . S
C622 N620 1.359 . S
C622 C625 1.414 . S
C623 H605 0.930 . S
C623 N620 1.327 . S
C623 C621 1.392 . S
C624 H619 0.930 . S
C624 C621 1.370 . S
C624 C625 1.385 . S
C625 C622 1.414 . S
C625 C624 1.385 . S
C625 C647 1.444 . S
O626 Tb582 2.546 . S
O626 C646 1.251 . S
O627 Tb582 2.610 . S
O627 Tb593 2.362 . S
O627 C638 1.283 . S
O628 Tb593 2.421 . S
O628 C645 1.262 . S
O629 Tb582 2.320 . S
O629 C645 1.260 . S
O630 Tb582 2.552 . S
O630 C638 1.243 . S
O631 Tb582 2.413 . S
O631 C646 1.256 . S
O632 Tb593 2.546 . S
O632 C657 1.251 . S
O633 Tb582 2.362 . S
O633 Tb593 2.610 . S
O633 C649 1.283 . S
O634 Tb582 2.421 . S
O634 C656 1.262 . S
O635 Tb593 2.320 . S
O635 C656 1.260 . S
O636 Tb593 2.552 . S
O636 C649 1.243 . S
O637 Tb593 2.413 . S
O637 C657 1.256 . S
C638 O627 1.283 . S
C638 O630 1.243 . S
C639 C641 1.382 . S
C639 C643 1.393 . S
C639 C646 1.500 . S
C640 C641 1.400 . S
C640 C642 1.384 . S
C641 C639 1.382 . S
C641 C640 1.400 . S
C641 H658 0.930 . S
C642 C640 1.384 . S
C642 C644 1.392 . S
C642 H659 0.931 . S
C643 C639 1.393 . S
C643 C644 1.401 . S
C643 H660 0.930 . S
C644 C642 1.392 . S
C644 C643 1.401 . S
C644 H661 0.930 . S
C645 O628 1.262 . S
C645 O629 1.260 . S
C646 Tb582 2.833 . S
C646 O626 1.251 . S
C646 O631 1.256 . S
C646 C639 1.500 . S
C647 H612 0.929 . S
C647 C625 1.444 . S
C647 C648 1.317 . S
C648 H610 0.930 . S
C648 C616 1.432 . S
C648 C647 1.317 . S
C649 O633 1.283 . S
C649 O636 1.243 . S
C650 C651 1.382 . S
C650 C654 1.393 . S
C650 C657 1.500 . S
C651 C650 1.382 . S
C651 C652 1.400 . S
C651 H662 0.930 . S
C652 C651 1.400 . S
C652 C653 1.384 . S
C653 C652 1.384 . S
C653 C655 1.392 . S
C653 H663 0.931 . S
C654 C650 1.393 . S
C654 C655 1.401 . S
C654 H664 0.930 . S
C655 C653 1.392 . S
C655 C654 1.401 . S
C655 H665 0.930 . S
C656 O634 1.262 . S
C656 O635 1.260 . S
C657 Tb593 2.833 . S
C657 O632 1.251 . S
C657 O637 1.256 . S
C657 C650 1.500 . S
H658 C641 0.930 . S
H659 C642 0.931 . S
H660 C643 0.930 . S
H661 C644 0.930 . S
H662 C651 0.930 . S
H663 C653 0.931 . S
H664 C654 0.930 . S
H665 C655 0.930 . S
Tb666 N697 2.660 . S
Tb666 N704 2.600 . S
Tb666 O710 2.546 . S
Tb666 O711 2.610 . S
Tb666 O713 2.320 . S
Tb666 O714 2.552 . S
Tb666 O715 2.413 . S
Tb666 O717 2.362 . S
Tb666 O718 2.421 . S
Tb666 C730 2.833 . S
C667 C670 1.432 . S
C667 C671 1.414 . S
C667 N674 1.359 . S
C668 C670 1.417 . S
C668 C672 1.432 . S
C668 C680 1.410 . S
C669 C671 1.444 . S
C669 C672 1.317 . S
C669 H692 0.929 . S
C670 C667 1.432 . S
C670 C668 1.417 . S
C670 N678 1.360 . S
C671 C667 1.414 . S
C671 C669 1.444 . S
C671 C676 1.385 . S
C672 C668 1.432 . S
C672 C669 1.317 . S
C672 H684 0.930 1_655 S
C673 C675 1.392 . S
C673 C676 1.370 . S
C673 H685 0.931 . S
N674 C667 1.359 . S
N674 C675 1.327 . S
N674 Tb677 2.600 . S
C675 C673 1.392 . S
C675 N674 1.327 . S
C675 H682 0.930 . S
C676 C671 1.385 . S
C676 C673 1.370 . S
C676 H695 0.930 . S
Tb677 N674 2.600 . S
Tb677 N678 2.660 . S
Tb677 O711 2.362 . S
Tb677 O712 2.421 . S
Tb677 O716 2.546 . S
Tb677 O717 2.610 . S
Tb677 O719 2.320 . S
Tb677 O720 2.552 . S
Tb677 O721 2.413 . S
Tb677 C741 2.833 . S
N678 C670 1.360 . S
N678 Tb677 2.660 . S
N678 C679 1.305 . S
C679 N678 1.305 . S
C679 C681 1.407 . S
C679 H686 0.930 . S
C680 C668 1.410 . S
C680 C681 1.345 . S
C680 H688 0.930 1_655 S
C681 C679 1.407 . S
C681 C680 1.345 . S
C681 H683 0.930 . S
H682 C675 0.930 . S
H683 C681 0.930 . S
H684 C672 0.930 1_455 S
H685 C673 0.931 . S
H686 C679 0.930 . S
H687 C701 0.930 . S
H688 C680 0.930 1_455 S
H689 C707 0.930 . S
H690 C698 0.930 . S
H691 C705 0.931 . S
H692 C669 0.929 . S
H693 C699 0.930 . S
H694 C732 0.930 . S
H695 C676 0.930 . S
H696 C731 0.929 . S
N697 Tb666 2.660 . S
N697 C698 1.305 . S
N697 C702 1.360 . S
C698 H690 0.930 . S
C698 N697 1.305 . S
C698 C701 1.407 . S
C699 H693 0.930 . S
C699 C700 1.410 . S
C699 C701 1.345 . S
C700 C699 1.410 . S
C700 C702 1.417 . S
C700 C732 1.432 . S
C701 H687 0.930 . S
C701 C698 1.407 . S
C701 C699 1.345 . S
C702 N697 1.360 . S
C702 C700 1.417 . S
C702 C706 1.432 . S
H703 C708 0.930 . S
N704 Tb666 2.600 . S
N704 C706 1.359 . S
N704 C707 1.327 . S
C705 H691 0.931 . S
C705 C707 1.392 . S
C705 C708 1.370 . S
C706 C702 1.432 . S
C706 N704 1.359 . S
C706 C709 1.414 . S
C707 H689 0.930 . S
C707 N704 1.327 . S
C707 C705 1.392 . S
C708 H703 0.930 . S
C708 C705 1.370 . S
C708 C709 1.385 . S
C709 C706 1.414 . S
C709 C708 1.385 . S
C709 C731 1.444 . S
O710 Tb666 2.546 . S
O710 C730 1.251 . S
O711 Tb666 2.610 . S
O711 Tb677 2.362 . S
O711 C722 1.283 . S
O712 Tb677 2.421 . S
O712 C729 1.262 . S
O713 Tb666 2.320 . S
O713 C729 1.260 . S
O714 Tb666 2.552 . S
O714 C722 1.243 . S
O715 Tb666 2.413 . S
O715 C730 1.256 . S
O716 Tb677 2.546 . S
O716 C741 1.251 . S
O717 Tb666 2.362 . S
O717 Tb677 2.610 . S
O717 C733 1.283 . S
O718 Tb666 2.421 . S
O718 C740 1.262 . S
O719 Tb677 2.320 . S
O719 C740 1.260 . S
O720 Tb677 2.552 . S
O720 C733 1.243 . S
O721 Tb677 2.413 . S
O721 C741 1.256 . S
C722 O711 1.283 . S
C722 O714 1.243 . S
C723 C725 1.382 . S
C723 C727 1.393 . S
C723 C730 1.500 . S
C724 C725 1.400 . S
C724 C726 1.384 . S
C725 C723 1.382 . S
C725 C724 1.400 . S
C725 H742 0.930 . S
C726 C724 1.384 . S
C726 C728 1.392 . S
C726 H743 0.931 . S
C727 C723 1.393 . S
C727 C728 1.401 . S
C727 H744 0.930 . S
C728 C726 1.392 . S
C728 C727 1.401 . S
C728 H745 0.930 . S
C729 O712 1.262 . S
C729 O713 1.260 . S
C730 Tb666 2.833 . S
C730 O710 1.251 . S
C730 O715 1.256 . S
C730 C723 1.500 . S
C731 H696 0.929 . S
C731 C709 1.444 . S
C731 C732 1.317 . S
C732 H694 0.930 . S
C732 C700 1.432 . S
C732 C731 1.317 . S
C733 O717 1.283 . S
C733 O720 1.243 . S
C734 C735 1.382 . S
C734 C738 1.393 . S
C734 C741 1.500 . S
C735 C734 1.382 . S
C735 C736 1.400 . S
C735 H746 0.930 . S
C736 C735 1.400 . S
C736 C737 1.384 . S
C737 C736 1.384 . S
C737 C739 1.392 . S
C737 H747 0.931 . S
C738 C734 1.393 . S
C738 C739 1.401 . S
C738 H748 0.930 . S
C739 C737 1.392 . S
C739 C738 1.401 . S
C739 H749 0.930 . S
C740 O718 1.262 . S
C740 O719 1.260 . S
C741 Tb677 2.833 . S
C741 O716 1.251 . S
C741 O721 1.256 . S
C741 C734 1.500 . S
H742 C725 0.930 . S
H743 C726 0.931 . S
H744 C727 0.930 . S
H745 C728 0.930 . S
H746 C735 0.930 . S
H747 C737 0.931 . S
H748 C738 0.930 . S
H749 C739 0.930 . S
Tb750 N781 2.660 . S
Tb750 N788 2.600 . S
Tb750 O794 2.546 . S
Tb750 O795 2.610 . S
Tb750 O797 2.320 . S
Tb750 O798 2.552 . S
Tb750 O799 2.413 . S
Tb750 O801 2.362 . S
Tb750 O802 2.421 . S
Tb750 C814 2.833 . S
C751 C754 1.432 . S
C751 C755 1.414 . S
C751 N758 1.359 . S
C752 C754 1.417 . S
C752 C756 1.432 . S
C752 C764 1.410 . S
C753 C755 1.444 . S
C753 C756 1.317 . S
C753 H776 0.929 . S
C754 C751 1.432 . S
C754 C752 1.417 . S
C754 N762 1.360 . S
C755 C751 1.414 . S
C755 C753 1.444 . S
C755 C760 1.385 . S
C756 C752 1.432 . S
C756 C753 1.317 . S
C756 H768 0.930 . S
C757 C759 1.392 . S
C757 C760 1.370 . S
C757 H769 0.931 . S
N758 C751 1.359 . S
N758 C759 1.327 . S
N758 Tb761 2.600 . S
C759 C757 1.392 . S
C759 N758 1.327 . S
C759 H766 0.930 . S
C760 C755 1.385 . S
C760 C757 1.370 . S
C760 H779 0.930 . S
Tb761 N758 2.600 . S
Tb761 N762 2.660 . S
Tb761 O795 2.362 . S
Tb761 O796 2.421 . S
Tb761 O800 2.546 . S
Tb761 O801 2.610 . S
Tb761 O803 2.320 . S
Tb761 O804 2.552 . S
Tb761 O805 2.413 . S
Tb761 C825 2.833 . S
N762 C754 1.360 . S
N762 Tb761 2.660 . S
N762 C763 1.305 . S
C763 N762 1.305 . S
C763 C765 1.407 . S
C763 H770 0.930 . S
C764 C752 1.410 . S
C764 C765 1.345 . S
C764 H772 0.930 . S
C765 C763 1.407 . S
C765 C764 1.345 . S
C765 H767 0.930 . S
H766 C759 0.930 . S
H767 C765 0.930 . S
H768 C756 0.930 . S
H769 C757 0.931 . S
H770 C763 0.930 . S
H771 C785 0.930 . S
H772 C764 0.930 . S
H773 C791 0.930 . S
H774 C782 0.930 . S
H775 C789 0.931 . S
H776 C753 0.929 . S
H777 C783 0.930 . S
H778 C816 0.930 . S
H779 C760 0.930 . S
H780 C815 0.929 . S
N781 Tb750 2.660 . S
N781 C782 1.305 . S
N781 C786 1.360 . S
C782 H774 0.930 . S
C782 N781 1.305 . S
C782 C785 1.407 . S
C783 H777 0.930 . S
C783 C784 1.410 . S
C783 C785 1.345 . S
C784 C783 1.410 . S
C784 C786 1.417 . S
C784 C816 1.432 . S
C785 H771 0.930 . S
C785 C782 1.407 . S
C785 C783 1.345 . S
C786 N781 1.360 . S
C786 C784 1.417 . S
C786 C790 1.432 . S
H787 C792 0.930 . S
N788 Tb750 2.600 . S
N788 C790 1.359 . S
N788 C791 1.327 . S
C789 H775 0.931 . S
C789 C791 1.392 . S
C789 C792 1.370 . S
C790 C786 1.432 . S
C790 N788 1.359 . S
C790 C793 1.414 . S
C791 H773 0.930 . S
C791 N788 1.327 . S
C791 C789 1.392 . S
C792 H787 0.930 . S
C792 C789 1.370 . S
C792 C793 1.385 . S
C793 C790 1.414 . S
C793 C792 1.385 . S
C793 C815 1.444 . S
O794 Tb750 2.546 . S
O794 C814 1.251 . S
O795 Tb750 2.610 . S
O795 Tb761 2.362 . S
O795 C806 1.283 . S
O796 Tb761 2.421 . S
O796 C813 1.262 . S
O797 Tb750 2.320 . S
O797 C813 1.260 . S
O798 Tb750 2.552 . S
O798 C806 1.243 . S
O799 Tb750 2.413 . S
O799 C814 1.256 . S
O800 Tb761 2.546 . S
O800 C825 1.251 . S
O801 Tb750 2.362 . S
O801 Tb761 2.610 . S
O801 C817 1.283 . S
O802 Tb750 2.421 . S
O802 C824 1.262 . S
O803 Tb761 2.320 . S
O803 C824 1.260 . S
O804 Tb761 2.552 . S
O804 C817 1.243 . S
O805 Tb761 2.413 . S
O805 C825 1.256 . S
C806 O795 1.283 . S
C806 O798 1.243 . S
C807 C809 1.382 . S
C807 C811 1.393 . S
C807 C814 1.500 . S
C808 C809 1.400 . S
C808 C810 1.384 . S
C809 C807 1.382 . S
C809 C808 1.400 . S
C809 H826 0.930 . S
C810 C808 1.384 . S
C810 C812 1.392 . S
C810 H827 0.931 . S
C811 C807 1.393 . S
C811 C812 1.401 . S
C811 H828 0.930 . S
C812 C810 1.392 . S
C812 C811 1.401 . S
C812 H829 0.930 . S
C813 O796 1.262 . S
C813 O797 1.260 . S
C814 Tb750 2.833 . S
C814 O794 1.251 . S
C814 O799 1.256 . S
C814 C807 1.500 . S
C815 H780 0.929 . S
C815 C793 1.444 . S
C815 C816 1.317 . S
C816 H778 0.930 . S
C816 C784 1.432 . S
C816 C815 1.317 . S
C817 O801 1.283 . S
C817 O804 1.243 . S
C818 C819 1.382 . S
C818 C822 1.393 . S
C818 C825 1.500 . S
C819 C818 1.382 . S
C819 C820 1.400 . S
C819 H830 0.930 . S
C820 C819 1.400 . S
C820 C821 1.384 . S
C821 C820 1.384 . S
C821 C823 1.392 . S
C821 H831 0.931 . S
C822 C818 1.393 . S
C822 C823 1.401 . S
C822 H832 0.930 . S
C823 C821 1.392 . S
C823 C822 1.401 . S
C823 H833 0.930 . S
C824 O802 1.262 . S
C824 O803 1.260 . S
C825 Tb761 2.833 . S
C825 O800 1.251 . S
C825 O805 1.256 . S
C825 C818 1.500 . S
H826 C809 0.930 . S
H827 C810 0.931 . S
H828 C811 0.930 . S
H829 C812 0.930 . S
H830 C819 0.930 . S
H831 C821 0.931 . S
H832 C822 0.930 . S
H833 C823 0.930 . S
Tb834 N865 2.660 . S
Tb834 N872 2.600 . S
Tb834 O878 2.546 . S
Tb834 O879 2.610 . S
Tb834 O881 2.320 . S
Tb834 O882 2.552 . S
Tb834 O883 2.413 . S
Tb834 O885 2.362 . S
Tb834 O886 2.421 . S
Tb834 C898 2.833 . S
C835 C838 1.432 . S
C835 C839 1.414 . S
C835 N842 1.359 . S
C836 C838 1.417 . S
C836 C840 1.432 . S
C836 C848 1.410 . S
C837 C839 1.444 . S
C837 C840 1.317 . S
C837 H860 0.929 . S
C838 C835 1.432 . S
C838 C836 1.417 . S
C838 N846 1.360 . S
C839 C835 1.414 . S
C839 C837 1.444 . S
C839 C844 1.385 . S
C840 C836 1.432 . S
C840 C837 1.317 . S
C840 H852 0.930 . S
C841 C843 1.392 . S
C841 C844 1.370 . S
C841 H853 0.931 . S
N842 C835 1.359 . S
N842 C843 1.327 . S
N842 Tb845 2.600 . S
C843 C841 1.392 . S
C843 N842 1.327 . S
C843 H850 0.930 . S
C844 C839 1.385 . S
C844 C841 1.370 . S
C844 H863 0.930 . S
Tb845 N842 2.600 . S
Tb845 N846 2.660 . S
Tb845 O879 2.362 . S
Tb845 O880 2.421 . S
Tb845 O884 2.546 . S
Tb845 O885 2.610 . S
Tb845 O887 2.320 . S
Tb845 O888 2.552 . S
Tb845 O889 2.413 . S
Tb845 C909 2.833 . S
N846 C838 1.360 . S
N846 Tb845 2.660 . S
N846 C847 1.305 . S
C847 N846 1.305 . S
C847 C849 1.407 . S
C847 H854 0.930 . S
C848 C836 1.410 . S
C848 C849 1.345 . S
C848 H856 0.930 . S
C849 C847 1.407 . S
C849 C848 1.345 . S
C849 H851 0.930 . S
H850 C843 0.930 . S
H851 C849 0.930 . S
H852 C840 0.930 . S
H853 C841 0.931 . S
H854 C847 0.930 . S
H855 C869 0.930 . S
H856 C848 0.930 . S
H857 C875 0.930 . S
H858 C866 0.930 . S
H859 C873 0.931 . S
H860 C837 0.929 . S
H861 C867 0.930 1_455 S
H862 C900 0.930 1_455 S
H863 C844 0.930 . S
H864 C899 0.929 . S
N865 Tb834 2.660 . S
N865 C866 1.305 . S
N865 C870 1.360 . S
C866 H858 0.930 . S
C866 N865 1.305 . S
C866 C869 1.407 . S
C867 H861 0.930 1_655 S
C867 C868 1.410 . S
C867 C869 1.345 . S
C868 C867 1.410 . S
C868 C870 1.417 . S
C868 C900 1.432 . S
C869 H855 0.930 . S
C869 C866 1.407 . S
C869 C867 1.345 . S
C870 N865 1.360 . S
C870 C868 1.417 . S
C870 C874 1.432 . S
H871 C876 0.930 . S
N872 Tb834 2.600 . S
N872 C874 1.359 . S
N872 C875 1.327 . S
C873 H859 0.931 . S
C873 C875 1.392 . S
C873 C876 1.370 . S
C874 C870 1.432 . S
C874 N872 1.359 . S
C874 C877 1.414 . S
C875 H857 0.930 . S
C875 N872 1.327 . S
C875 C873 1.392 . S
C876 H871 0.930 . S
C876 C873 1.370 . S
C876 C877 1.385 . S
C877 C874 1.414 . S
C877 C876 1.385 . S
C877 C899 1.444 . S
O878 Tb834 2.546 . S
O878 C898 1.251 . S
O879 Tb834 2.610 . S
O879 Tb845 2.362 . S
O879 C890 1.283 . S
O880 Tb845 2.421 . S
O880 C897 1.262 . S
O881 Tb834 2.320 . S
O881 C897 1.260 . S
O882 Tb834 2.552 . S
O882 C890 1.243 . S
O883 Tb834 2.413 . S
O883 C898 1.256 . S
O884 Tb845 2.546 . S
O884 C909 1.251 . S
O885 Tb834 2.362 . S
O885 Tb845 2.610 . S
O885 C901 1.283 . S
O886 Tb834 2.421 . S
O886 C908 1.262 . S
O887 Tb845 2.320 . S
O887 C908 1.260 . S
O888 Tb845 2.552 . S
O888 C901 1.243 . S
O889 Tb845 2.413 . S
O889 C909 1.256 . S
C890 O879 1.283 . S
C890 O882 1.243 . S
C891 C893 1.382 . S
C891 C895 1.393 . S
C891 C898 1.500 . S
C892 C893 1.400 . S
C892 C894 1.384 . S
C893 C891 1.382 . S
C893 C892 1.400 . S
C893 H910 0.930 . S
C894 C892 1.384 . S
C894 C896 1.392 . S
C894 H911 0.931 . S
C895 C891 1.393 . S
C895 C896 1.401 . S
C895 H912 0.930 . S
C896 C894 1.392 . S
C896 C895 1.401 . S
C896 H913 0.930 . S
C897 O880 1.262 . S
C897 O881 1.260 . S
C898 Tb834 2.833 . S
C898 O878 1.251 . S
C898 O883 1.256 . S
C898 C891 1.500 . S
C899 H864 0.929 . S
C899 C877 1.444 . S
C899 C900 1.317 . S
C900 H862 0.930 1_655 S
C900 C868 1.432 . S
C900 C899 1.317 . S
C901 O885 1.283 . S
C901 O888 1.243 . S
C902 C903 1.382 . S
C902 C906 1.393 . S
C902 C909 1.500 . S
C903 C902 1.382 . S
C903 C904 1.400 . S
C903 H914 0.930 . S
C904 C903 1.400 . S
C904 C905 1.384 . S
C905 C904 1.384 . S
C905 C907 1.392 . S
C905 H915 0.931 . S
C906 C902 1.393 . S
C906 C907 1.401 . S
C906 H916 0.930 . S
C907 C905 1.392 . S
C907 C906 1.401 . S
C907 H917 0.930 . S
C908 O886 1.262 . S
C908 O887 1.260 . S
C909 Tb845 2.833 . S
C909 O884 1.251 . S
C909 O889 1.256 . S
C909 C902 1.500 . S
H910 C893 0.930 . S
H911 C894 0.931 . S
H912 C895 0.930 . S
H913 C896 0.930 . S
H914 C903 0.930 . S
H915 C905 0.931 . S
H916 C906 0.930 . S
H917 C907 0.930 . S
H918 C924 0.930 . S
H919 C927 0.930 . S
H920 C928 0.930 . S
H921 C929 0.930 . S
H922 C932 0.930 . S
H923 C933 0.930 . S
C924 H918 0.930 . S
C924 C925 1.355 . S
C924 C926 1.415 . S
C925 C924 1.355 . S
C925 C927 1.419 . S
C926 C924 1.415 . S
C926 C931 1.425 . S
C926 C933 1.409 . S
C927 H919 0.930 . S
C927 C925 1.419 . S
C927 C928 1.362 . S
C928 H920 0.930 . S
C928 C927 1.362 . S
C928 C931 1.409 . S
C929 H921 0.930 . S
C929 C930 1.355 . S
C929 C931 1.415 . S
C930 C929 1.355 . S
C930 C932 1.419 . S
C931 C926 1.425 . S
C931 C928 1.409 . S
C931 C929 1.415 . S
C932 H922 0.930 . S
C932 C930 1.419 . S
C932 C933 1.362 . S
C933 H923 0.930 . S
C933 C926 1.409 . S
C933 C932 1.362 . S
H934 C940 0.930 . S
H935 C943 0.930 . S
H936 C944 0.930 . S
H937 C945 0.930 . S
H938 C948 0.930 . S
H939 C949 0.930 . S
C940 H934 0.930 . S
C940 C941 1.355 . S
C940 C942 1.415 . S
C941 C940 1.355 . S
C941 C943 1.419 . S
C942 C940 1.415 . S
C942 C947 1.425 . S
C942 C949 1.409 . S
C943 H935 0.930 . S
C943 C941 1.419 . S
C943 C944 1.362 . S
C944 H936 0.930 . S
C944 C943 1.362 . S
C944 C947 1.409 . S
C945 H937 0.930 . S
C945 C946 1.355 . S
C945 C947 1.415 . S
C946 C945 1.355 . S
C946 C948 1.419 . S
C947 C942 1.425 . S
C947 C944 1.409 . S
C947 C945 1.415 . S
C948 H938 0.930 . S
C948 C946 1.419 . S
C948 C949 1.362 . S
C949 H939 0.930 . S
C949 C942 1.409 . S
C949 C948 1.362 . S
H950 C956 0.930 . S
H951 C959 0.930 . S
H952 C960 0.930 . S
H953 C961 0.930 . S
H954 C964 0.930 . S
H955 C965 0.930 . S
C956 H950 0.930 . S
C956 C957 1.355 . S
C956 C958 1.415 . S
C957 C956 1.355 . S
C957 C959 1.419 . S
C958 C956 1.415 . S
C958 C963 1.425 . S
C958 C965 1.409 . S
C959 H951 0.930 . S
C959 C957 1.419 . S
C959 C960 1.362 . S
C960 H952 0.930 . S
C960 C959 1.362 . S
C960 C963 1.409 . S
C961 H953 0.930 . S
C961 C962 1.355 . S
C961 C963 1.415 . S
C962 C961 1.355 . S
C962 C964 1.419 . S
C963 C958 1.425 . S
C963 C960 1.409 . S
C963 C961 1.415 . S
C964 H954 0.930 . S
C964 C962 1.419 . S
C964 C965 1.362 . S
C965 H955 0.930 . S
C965 C958 1.409 . S
C965 C964 1.362 . S
H966 C972 0.930 . S
H967 C975 0.930 . S
H968 C976 0.930 . S
H969 C977 0.930 . S
H970 C980 0.930 . S
H971 C981 0.930 . S
C972 H966 0.930 . S
C972 C973 1.355 . S
C972 C974 1.415 . S
C973 C972 1.355 . S
C973 C975 1.419 . S
C974 C972 1.415 . S
C974 C979 1.425 . S
C974 C981 1.409 . S
C975 H967 0.930 . S
C975 C973 1.419 . S
C975 C976 1.362 . S
C976 H968 0.930 . S
C976 C975 1.362 . S
C976 C979 1.409 . S
C977 H969 0.930 . S
C977 C978 1.355 . S
C977 C979 1.415 . S
C978 C977 1.355 . S
C978 C980 1.419 . S
C979 C974 1.425 . S
C979 C976 1.409 . S
C979 C977 1.415 . S
C980 H970 0.930 . S
C980 C978 1.419 . S
C980 C981 1.362 . S
C981 H971 0.930 . S
C981 C974 1.409 . S
C981 C980 1.362 . S
H982 C988 0.930 . S
H983 C991 0.930 . S
H984 C992 0.930 . S
H985 C993 0.930 . S
H986 C996 0.930 . S
H987 C997 0.930 . S
C988 H982 0.930 . S
C988 C989 1.355 . S
C988 C990 1.415 . S
C989 C988 1.355 . S
C989 C991 1.419 . S
C990 C988 1.415 . S
C990 C995 1.425 . S
C990 C997 1.409 . S
C991 H983 0.930 . S
C991 C989 1.419 . S
C991 C992 1.362 . S
C992 H984 0.930 . S
C992 C991 1.362 . S
C992 C995 1.409 . S
C993 H985 0.930 . S
C993 C994 1.355 . S
C993 C995 1.415 . S
C994 C993 1.355 . S
C994 C996 1.419 . S
C995 C990 1.425 . S
C995 C992 1.409 . S
C995 C993 1.415 . S
C996 H986 0.930 . S
C996 C994 1.419 . S
C996 C997 1.362 . S
C997 H987 0.930 . S
C997 C990 1.409 . S
C997 C996 1.362 . S
H998 C1004 0.930 . S
H999 C1007 0.930 . S
H1000 C1008 0.930 . S
H1001 C1009 0.930 . S
H1002 C1012 0.930 . S
H1003 C1013 0.930 . S
C1004 H998 0.930 . S
C1004 C1005 1.355 . S
C1004 C1006 1.415 . S
C1005 C1004 1.355 . S
C1005 C1007 1.419 . S
C1006 C1004 1.415 . S
C1006 C1011 1.425 . S
C1006 C1013 1.409 . S
C1007 H999 0.930 . S
C1007 C1005 1.419 . S
C1007 C1008 1.362 . S
C1008 H1000 0.930 . S
C1008 C1007 1.362 . S
C1008 C1011 1.409 . S
C1009 H1001 0.930 . S
C1009 C1010 1.355 . S
C1009 C1011 1.415 . S
C1010 C1009 1.355 . S
C1010 C1012 1.419 . S
C1011 C1006 1.425 . S
C1011 C1008 1.409 . S
C1011 C1009 1.415 . S
C1012 H1002 0.930 . S
C1012 C1010 1.419 . S
C1012 C1013 1.362 . S
C1013 H1003 0.930 . S
C1013 C1006 1.409 . S
C1013 C1012 1.362 . S
H1014 C1020 0.930 . S
H1015 C1023 0.930 . S
H1016 C1024 0.930 . S
H1017 C1025 0.930 . S
H1018 C1028 0.930 . S
H1019 C1029 0.930 . S
C1020 H1014 0.930 . S
C1020 C1021 1.355 . S
C1020 C1022 1.415 . S
C1021 C1020 1.355 . S
C1021 C1023 1.419 . S
C1022 C1020 1.415 . S
C1022 C1027 1.425 . S
C1022 C1029 1.409 . S
C1023 H1015 0.930 . S
C1023 C1021 1.419 . S
C1023 C1024 1.362 . S
C1024 H1016 0.930 . S
C1024 C1023 1.362 . S
C1024 C1027 1.409 . S
C1025 H1017 0.930 . S
C1025 C1026 1.355 . S
C1025 C1027 1.415 . S
C1026 C1025 1.355 . S
C1026 C1028 1.419 . S
C1027 C1022 1.425 . S
C1027 C1024 1.409 . S
C1027 C1025 1.415 . S
C1028 H1018 0.930 . S
C1028 C1026 1.419 . S
C1028 C1029 1.362 . S
C1029 H1019 0.930 . S
C1029 C1022 1.409 . S
C1029 C1028 1.362 . S
H1030 C1036 0.930 . S
H1031 C1039 0.930 . S
H1032 C1040 0.930 . S
H1033 C1041 0.930 . S
H1034 C1044 0.930 . S
H1035 C1045 0.930 . S
C1036 H1030 0.930 . S
C1036 C1037 1.355 . S
C1036 C1038 1.415 . S
C1037 C1036 1.355 . S
C1037 C1039 1.419 . S
C1038 C1036 1.415 . S
C1038 C1043 1.425 . S
C1038 C1045 1.409 . S
C1039 H1031 0.930 . S
C1039 C1037 1.419 . S
C1039 C1040 1.362 . S
C1040 H1032 0.930 . S
C1040 C1039 1.362 . S
C1040 C1043 1.409 . S
C1041 H1033 0.930 . S
C1041 C1042 1.355 . S
C1041 C1043 1.415 . S
C1042 C1041 1.355 . S
C1042 C1044 1.419 . S
C1043 C1038 1.425 . S
C1043 C1040 1.409 . S
C1043 C1041 1.415 . S
C1044 H1034 0.930 . S
C1044 C1042 1.419 . S
C1044 C1045 1.362 . S
C1045 H1035 0.930 . S
C1045 C1038 1.409 . S
C1045 C1044 1.362 . S
H1046 C1052 0.930 . S
H1047 C1055 0.930 . S
H1048 C1056 0.930 . S
H1049 C1057 0.930 . S
H1050 C1060 0.930 . S
H1051 C1061 0.930 . S
C1052 H1046 0.930 . S
C1052 C1053 1.355 . S
C1052 C1054 1.415 . S
C1053 C1052 1.355 . S
C1053 C1055 1.419 . S
C1054 C1052 1.415 . S
C1054 C1059 1.425 . S
C1054 C1061 1.409 . S
C1055 H1047 0.930 . S
C1055 C1053 1.419 . S
C1055 C1056 1.362 . S
C1056 H1048 0.930 . S
C1056 C1055 1.362 . S
C1056 C1059 1.409 . S
C1057 H1049 0.930 . S
C1057 C1058 1.355 . S
C1057 C1059 1.415 . S
C1058 C1057 1.355 . S
C1058 C1060 1.419 . S
C1059 C1054 1.425 . S
C1059 C1056 1.409 . S
C1059 C1057 1.415 . S
C1060 H1050 0.930 . S
C1060 C1058 1.419 . S
C1060 C1061 1.362 . S
C1061 H1051 0.930 . S
C1061 C1054 1.409 . S
C1061 C1060 1.362 . S
H1062 C1068 0.930 . S
H1063 C1071 0.930 . S
H1064 C1072 0.930 . S
H1065 C1073 0.930 . S
H1066 C1076 0.930 . S
H1067 C1077 0.930 . S
C1068 H1062 0.930 . S
C1068 C1069 1.355 . S
C1068 C1070 1.415 . S
C1069 C1068 1.355 . S
C1069 C1071 1.419 . S
C1070 C1068 1.415 . S
C1070 C1075 1.425 . S
C1070 C1077 1.409 . S
C1071 H1063 0.930 . S
C1071 C1069 1.419 . S
C1071 C1072 1.362 . S
C1072 H1064 0.930 . S
C1072 C1071 1.362 . S
C1072 C1075 1.409 . S
C1073 H1065 0.930 . S
C1073 C1074 1.355 . S
C1073 C1075 1.415 . S
C1074 C1073 1.355 . S
C1074 C1076 1.419 . S
C1075 C1070 1.425 . S
C1075 C1072 1.409 . S
C1075 C1073 1.415 . S
C1076 H1066 0.930 . S
C1076 C1074 1.419 . S
C1076 C1077 1.362 . S
C1077 H1067 0.930 . S
C1077 C1070 1.409 . S
C1077 C1076 1.362 . S
H1078 C1084 0.930 . S
H1079 C1087 0.930 . S
H1080 C1088 0.930 . S
H1081 C1089 0.930 . S
H1082 C1092 0.930 . S
H1083 C1093 0.930 . S
C1084 H1078 0.930 . S
C1084 C1085 1.355 . S
C1084 C1086 1.415 . S
C1085 C1084 1.355 . S
C1085 C1087 1.419 . S
C1086 C1084 1.415 . S
C1086 C1091 1.425 . S
C1086 C1093 1.409 . S
C1087 H1079 0.930 . S
C1087 C1085 1.419 . S
C1087 C1088 1.362 . S
C1088 H1080 0.930 . S
C1088 C1087 1.362 . S
C1088 C1091 1.409 . S
C1089 H1081 0.930 . S
C1089 C1090 1.355 . S
C1089 C1091 1.415 . S
C1090 C1089 1.355 . S
C1090 C1092 1.419 . S
C1091 C1086 1.425 . S
C1091 C1088 1.409 . S
C1091 C1089 1.415 . S
C1092 H1082 0.930 . S
C1092 C1090 1.419 . S
C1092 C1093 1.362 . S
C1093 H1083 0.930 . S
C1093 C1086 1.409 . S
C1093 C1092 1.362 . S
H1094 C1100 0.930 . S
H1095 C1103 0.930 . S
H1096 C1104 0.930 . S
H1097 C1105 0.930 . S
H1098 C1108 0.930 . S
H1099 C1109 0.930 . S
C1100 H1094 0.930 . S
C1100 C1101 1.355 . S
C1100 C1102 1.415 . S
C1101 C1100 1.355 . S
C1101 C1103 1.419 . S
C1102 C1100 1.415 . S
C1102 C1107 1.425 . S
C1102 C1109 1.409 . S
C1103 H1095 0.930 . S
C1103 C1101 1.419 . S
C1103 C1104 1.362 . S
C1104 H1096 0.930 . S
C1104 C1103 1.362 . S
C1104 C1107 1.409 . S
C1105 H1097 0.930 . S
C1105 C1106 1.355 . S
C1105 C1107 1.415 . S
C1106 C1105 1.355 . S
C1106 C1108 1.419 . S
C1107 C1102 1.425 . S
C1107 C1104 1.409 . S
C1107 C1105 1.415 . S
C1108 H1098 0.930 . S
C1108 C1106 1.419 . S
C1108 C1109 1.362 . S
C1109 H1099 0.930 . S
C1109 C1102 1.409 . S
C1109 C1108 1.362 . S
H1110 C1116 0.930 . S
H1111 C1119 0.930 . S
H1112 C1120 0.930 . S
H1113 C1121 0.930 . S
H1114 C1124 0.930 . S
H1115 C1125 0.930 . S
C1116 H1110 0.930 . S
C1116 C1117 1.355 . S
C1116 C1118 1.415 1_655 S
C1117 C1116 1.355 . S
C1117 C1119 1.419 . S
C1118 C1116 1.415 1_455 S
C1118 C1123 1.425 . S
C1118 C1125 1.409 . S
C1119 H1111 0.930 . S
C1119 C1117 1.419 . S
C1119 C1120 1.362 . S
C1120 H1112 0.930 . S
C1120 C1119 1.362 . S
C1120 C1123 1.409 1_655 S
C1121 H1113 0.930 . S
C1121 C1122 1.355 . S
C1121 C1123 1.415 . S
C1122 C1121 1.355 . S
C1122 C1124 1.419 . S
C1123 C1118 1.425 . S
C1123 C1120 1.409 1_455 S
C1123 C1121 1.415 . S
C1124 H1114 0.930 . S
C1124 C1122 1.419 . S
C1124 C1125 1.362 . S
C1125 H1115 0.930 . S
C1125 C1118 1.409 . S
C1125 C1124 1.362 . S
H1126 C1132 0.930 . S
H1127 C1135 0.930 . S
H1128 C1136 0.930 . S
H1129 C1137 0.930 . S
H1130 C1140 0.930 . S
H1131 C1141 0.930 . S
C1132 H1126 0.930 . S
C1132 C1133 1.355 . S
C1132 C1134 1.415 . S
C1133 C1132 1.355 . S
C1133 C1135 1.419 . S
C1134 C1132 1.415 . S
C1134 C1139 1.425 . S
C1134 C1141 1.409 . S
C1135 H1127 0.930 . S
C1135 C1133 1.419 . S
C1135 C1136 1.362 . S
C1136 H1128 0.930 . S
C1136 C1135 1.362 . S
C1136 C1139 1.409 . S
C1137 H1129 0.930 . S
C1137 C1138 1.355 . S
C1137 C1139 1.415 . S
C1138 C1137 1.355 . S
C1138 C1140 1.419 . S
C1139 C1134 1.425 . S
C1139 C1136 1.409 . S
C1139 C1137 1.415 . S
C1140 H1130 0.930 . S
C1140 C1138 1.419 . S
C1140 C1141 1.362 . S
C1141 H1131 0.930 . S
C1141 C1134 1.409 . S
C1141 C1140 1.362 . S
H1142 C1148 0.930 . S
H1143 C1151 0.930 . S
H1144 C1152 0.930 . S
H1145 C1153 0.930 . S
H1146 C1156 0.930 . S
H1147 C1157 0.930 1_545 S
C1148 H1142 0.930 . S
C1148 C1149 1.355 . S
C1148 C1150 1.415 . S
C1149 C1148 1.355 . S
C1149 C1151 1.419 . S
C1150 C1148 1.415 . S
C1150 C1155 1.425 1_545 S
C1150 C1157 1.409 1_545 S
C1151 H1143 0.930 . S
C1151 C1149 1.419 . S
C1151 C1152 1.362 1_545 S
C1152 H1144 0.930 . S
C1152 C1151 1.362 1_565 S
C1152 C1155 1.409 . S
C1153 H1145 0.930 . S
C1153 C1154 1.355 . S
C1153 C1155 1.415 . S
C1154 C1153 1.355 . S
C1154 C1156 1.419 . S
C1155 C1150 1.425 1_565 S
C1155 C1152 1.409 . S
C1155 C1153 1.415 . S
C1156 H1146 0.930 . S
C1156 C1154 1.419 . S
C1156 C1157 1.362 . S
C1157 H1147 0.930 1_565 S
C1157 C1150 1.409 1_565 S
C1157 C1156 1.362 . S
H1158 C1164 0.930 . S
H1159 C1167 0.930 . S
H1160 C1168 0.930 . S
H1161 C1169 0.930 . S
H1162 C1172 0.930 . S
H1163 C1173 0.930 . S
C1164 H1158 0.930 . S
C1164 C1165 1.355 . S
C1164 C1166 1.415 . S
C1165 C1164 1.355 . S
C1165 C1167 1.419 . S
C1166 C1164 1.415 . S
C1166 C1171 1.425 . S
C1166 C1173 1.409 . S
C1167 H1159 0.930 . S
C1167 C1165 1.419 . S
C1167 C1168 1.362 . S
C1168 H1160 0.930 . S
C1168 C1167 1.362 . S
C1168 C1171 1.409 . S
C1169 H1161 0.930 . S
C1169 C1170 1.355 . S
C1169 C1171 1.415 . S
C1170 C1169 1.355 . S
C1170 C1172 1.419 . S
C1171 C1166 1.425 . S
C1171 C1168 1.409 . S
C1171 C1169 1.415 . S
C1172 H1162 0.930 . S
C1172 C1170 1.419 . S
C1172 C1173 1.362 . S
C1173 H1163 0.930 . S
C1173 C1166 1.409 . S
C1173 C1172 1.362 . S
H1174 C1180 0.930 . S
H1175 C1183 0.930 . S
H1176 C1184 0.930 . S
H1177 C1185 0.930 . S
H1178 C1188 0.930 . S
H1179 C1189 0.930 . S
C1180 H1174 0.930 . S
C1180 C1181 1.355 . S
C1180 C1182 1.415 . S
C1181 C1180 1.355 . S
C1181 C1183 1.419 . S
C1182 C1180 1.415 . S
C1182 C1187 1.425 . S
C1182 C1189 1.409 . S
C1183 H1175 0.930 . S
C1183 C1181 1.419 . S
C1183 C1184 1.362 . S
C1184 H1176 0.930 . S
C1184 C1183 1.362 . S
C1184 C1187 1.409 . S
C1185 H1177 0.930 . S
C1185 C1186 1.355 . S
C1185 C1187 1.415 . S
C1186 C1185 1.355 . S
C1186 C1188 1.419 . S
C1187 C1182 1.425 . S
C1187 C1184 1.409 . S
C1187 C1185 1.415 . S
C1188 H1178 0.930 . S
C1188 C1186 1.419 . S
C1188 C1189 1.362 . S
C1189 H1179 0.930 . S
C1189 C1182 1.409 . S
C1189 C1188 1.362 . S
H1190 C1196 0.930 . S
H1191 C1199 0.930 . S
H1192 C1200 0.930 . S
H1193 C1201 0.930 . S
H1194 C1204 0.930 . S
H1195 C1205 0.930 . S
C1196 H1190 0.930 . S
C1196 C1197 1.355 . S
C1196 C1198 1.415 . S
C1197 C1196 1.355 . S
C1197 C1199 1.419 . S
C1198 C1196 1.415 . S
C1198 C1203 1.425 . S
C1198 C1205 1.409 . S
C1199 H1191 0.930 . S
C1199 C1197 1.419 . S
C1199 C1200 1.362 . S
C1200 H1192 0.930 . S
C1200 C1199 1.362 . S
C1200 C1203 1.409 . S
C1201 H1193 0.930 . S
C1201 C1202 1.355 . S
C1201 C1203 1.415 . S
C1202 C1201 1.355 . S
C1202 C1204 1.419 . S
C1203 C1198 1.425 . S
C1203 C1200 1.409 . S
C1203 C1201 1.415 . S
C1204 H1194 0.930 . S
C1204 C1202 1.419 . S
C1204 C1205 1.362 . S
C1205 H1195 0.930 . S
C1205 C1198 1.409 . S
C1205 C1204 1.362 . S
H1206 C1212 0.930 . S
H1207 C1215 0.930 . S
H1208 C1216 0.930 . S
H1209 C1217 0.930 . S
H1210 C1220 0.930 . S
H1211 C1221 0.930 . S
C1212 H1206 0.930 . S
C1212 C1213 1.355 . S
C1212 C1214 1.415 . S
C1213 C1212 1.355 . S
C1213 C1215 1.419 . S
C1214 C1212 1.415 . S
C1214 C1219 1.425 . S
C1214 C1221 1.409 . S
C1215 H1207 0.930 . S
C1215 C1213 1.419 . S
C1215 C1216 1.362 . S
C1216 H1208 0.930 . S
C1216 C1215 1.362 . S
C1216 C1219 1.409 . S
C1217 H1209 0.930 . S
C1217 C1218 1.355 . S
C1217 C1219 1.415 . S
C1218 C1217 1.355 . S
C1218 C1220 1.419 . S
C1219 C1214 1.425 . S
C1219 C1216 1.409 . S
C1219 C1217 1.415 . S
C1220 H1210 0.930 . S
C1220 C1218 1.419 . S
C1220 C1221 1.362 . S
C1221 H1211 0.930 . S
C1221 C1214 1.409 . S
C1221 C1220 1.362 . S
H1222 C1228 0.930 . S
H1223 C1231 0.930 . S
H1224 C1232 0.930 . S
H1225 C1233 0.930 . S
H1226 C1236 0.930 . S
H1227 C1237 0.930 . S
C1228 H1222 0.930 . S
C1228 C1229 1.355 . S
C1228 C1230 1.415 . S
C1229 C1228 1.355 . S
C1229 C1231 1.419 . S
C1230 C1228 1.415 . S
C1230 C1235 1.425 . S
C1230 C1237 1.409 . S
C1231 H1223 0.930 . S
C1231 C1229 1.419 . S
C1231 C1232 1.362 . S
C1232 H1224 0.930 . S
C1232 C1231 1.362 . S
C1232 C1235 1.409 . S
C1233 H1225 0.930 . S
C1233 C1234 1.355 . S
C1233 C1235 1.415 . S
C1234 C1233 1.355 . S
C1234 C1236 1.419 . S
C1235 C1230 1.425 . S
C1235 C1232 1.409 . S
C1235 C1233 1.415 . S
C1236 H1226 0.930 . S
C1236 C1234 1.419 . S
C1236 C1237 1.362 . S
C1237 H1227 0.930 . S
C1237 C1230 1.409 . S
C1237 C1236 1.362 . S
H1238 C1244 0.930 . S
H1239 C1247 0.930 . S
H1240 C1248 0.930 . S
H1241 C1249 0.930 . S
H1242 C1252 0.930 . S
H1243 C1253 0.930 . S
C1244 H1238 0.930 . S
C1244 C1245 1.355 . S
C1244 C1246 1.415 . S
C1245 C1244 1.355 . S
C1245 C1247 1.419 . S
C1246 C1244 1.415 . S
C1246 C1251 1.425 . S
C1246 C1253 1.409 . S
C1247 H1239 0.930 . S
C1247 C1245 1.419 . S
C1247 C1248 1.362 . S
C1248 H1240 0.930 . S
C1248 C1247 1.362 . S
C1248 C1251 1.409 . S
C1249 H1241 0.930 . S
C1249 C1250 1.355 . S
C1249 C1251 1.415 . S
C1250 C1249 1.355 . S
C1250 C1252 1.419 . S
C1251 C1246 1.425 . S
C1251 C1248 1.409 . S
C1251 C1249 1.415 . S
C1252 H1242 0.930 . S
C1252 C1250 1.419 . S
C1252 C1253 1.362 . S
C1253 H1243 0.930 . S
C1253 C1246 1.409 . S
C1253 C1252 1.362 . S
H1254 C1260 0.930 . S
H1255 C1263 0.930 . S
H1256 C1264 0.930 . S
H1257 C1265 0.930 . S
H1258 C1268 0.930 . S
H1259 C1269 0.930 . S
C1260 H1254 0.930 . S
C1260 C1261 1.355 . S
C1260 C1262 1.415 1_545 S
C1261 C1260 1.355 . S
C1261 C1263 1.419 . S
C1262 C1260 1.415 1_565 S
C1262 C1267 1.425 . S
C1262 C1269 1.409 . S
C1263 H1255 0.930 . S
C1263 C1261 1.419 . S
C1263 C1264 1.362 . S
C1264 H1256 0.930 . S
C1264 C1263 1.362 . S
C1264 C1267 1.409 1_545 S
C1265 H1257 0.930 . S
C1265 C1266 1.355 . S
C1265 C1267 1.415 . S
C1266 C1265 1.355 . S
C1266 C1268 1.419 . S
C1267 C1262 1.425 . S
C1267 C1264 1.409 1_565 S
C1267 C1265 1.415 . S
C1268 H1258 0.930 . S
C1268 C1266 1.419 . S
C1268 C1269 1.362 . S
C1269 H1259 0.930 . S
C1269 C1262 1.409 . S
C1269 C1268 1.362 . S
H1270 C1276 0.930 . S
H1271 C1279 0.930 . S
H1272 C1280 0.930 . S
H1273 C1281 0.930 . S
H1274 C1284 0.930 . S
H1275 C1285 0.930 . S
C1276 H1270 0.930 . S
C1276 C1277 1.355 . S
C1276 C1278 1.415 1_655 S
C1277 C1276 1.355 . S
C1277 C1279 1.419 . S
C1278 C1276 1.415 1_455 S
C1278 C1283 1.425 . S
C1278 C1285 1.409 . S
C1279 H1271 0.930 . S
C1279 C1277 1.419 . S
C1279 C1280 1.362 . S
C1280 H1272 0.930 . S
C1280 C1279 1.362 . S
C1280 C1283 1.409 1_655 S
C1281 H1273 0.930 . S
C1281 C1282 1.355 . S
C1281 C1283 1.415 . S
C1282 C1281 1.355 . S
C1282 C1284 1.419 . S
C1283 C1278 1.425 . S
C1283 C1280 1.409 1_455 S
C1283 C1281 1.415 . S
C1284 H1274 0.930 . S
C1284 C1282 1.419 . S
C1284 C1285 1.362 . S
C1285 H1275 0.930 . S
C1285 C1278 1.409 . S
C1285 C1284 1.362 . S
H1286 C1292 0.930 . S
H1287 C1295 0.930 . S
H1288 C1296 0.930 . S
H1289 C1297 0.930 . S
H1290 C1300 0.930 . S
H1291 C1301 0.930 . S
C1292 H1286 0.930 . S
C1292 C1293 1.355 . S
C1292 C1294 1.415 . S
C1293 C1292 1.355 . S
C1293 C1295 1.419 . S
C1294 C1292 1.415 . S
C1294 C1299 1.425 . S
C1294 C1301 1.409 . S
C1295 H1287 0.930 . S
C1295 C1293 1.419 . S
C1295 C1296 1.362 . S
C1296 H1288 0.930 . S
C1296 C1295 1.362 . S
C1296 C1299 1.409 . S
C1297 H1289 0.930 . S
C1297 C1298 1.355 . S
C1297 C1299 1.415 . S
C1298 C1297 1.355 . S
C1298 C1300 1.419 . S
C1299 C1294 1.425 . S
C1299 C1296 1.409 . S
C1299 C1297 1.415 . S
C1300 H1290 0.930 . S
C1300 C1298 1.419 . S
C1300 C1301 1.362 . S
C1301 H1291 0.930 . S
C1301 C1294 1.409 . S
C1301 C1300 1.362 . S
H1302 C1308 0.930 . S
H1303 C1311 0.930 . S
H1304 C1312 0.930 . S
H1305 C1313 0.930 . S
H1306 C1316 0.930 . S
H1307 C1317 0.930 . S
C1308 H1302 0.930 . S
C1308 C1309 1.355 . S
C1308 C1310 1.415 . S
C1309 C1308 1.355 . S
C1309 C1311 1.419 . S
C1310 C1308 1.415 . S
C1310 C1315 1.425 . S
C1310 C1317 1.409 . S
C1311 H1303 0.930 . S
C1311 C1309 1.419 . S
C1311 C1312 1.362 . S
C1312 H1304 0.930 . S
C1312 C1311 1.362 . S
C1312 C1315 1.409 . S
C1313 H1305 0.930 . S
C1313 C1314 1.355 . S
C1313 C1315 1.415 . S
C1314 C1313 1.355 . S
C1314 C1316 1.419 . S
C1315 C1310 1.425 . S
C1315 C1312 1.409 . S
C1315 C1313 1.415 . S
C1316 H1306 0.930 . S
C1316 C1314 1.419 . S
C1316 C1317 1.362 . S
C1317 H1307 0.930 . S
C1317 C1310 1.409 . S
C1317 C1316 1.362 . S
H1318 C1324 0.930 . S
H1319 C1327 0.930 . S
H1320 C1328 0.930 . S
H1321 C1329 0.930 . S
H1322 C1332 0.930 . S
H1323 C1333 0.930 . S
C1324 H1318 0.930 . S
C1324 C1325 1.355 . S
C1324 C1326 1.415 . S
C1325 C1324 1.355 . S
C1325 C1327 1.419 . S
C1326 C1324 1.415 . S
C1326 C1331 1.425 . S
C1326 C1333 1.409 . S
C1327 H1319 0.930 . S
C1327 C1325 1.419 . S
C1327 C1328 1.362 . S
C1328 H1320 0.930 . S
C1328 C1327 1.362 . S
C1328 C1331 1.409 . S
C1329 H1321 0.930 . S
C1329 C1330 1.355 . S
C1329 C1331 1.415 . S
C1330 C1329 1.355 . S
C1330 C1332 1.419 . S
C1331 C1326 1.425 . S
C1331 C1328 1.409 . S
C1331 C1329 1.415 . S
C1332 H1322 0.930 . S
C1332 C1330 1.419 . S
C1332 C1333 1.362 . S
C1333 H1323 0.930 . S
C1333 C1326 1.409 . S
C1333 C1332 1.362 . S
H1334 C1340 0.930 . S
H1335 C1343 0.930 . S
H1336 C1344 0.930 . S
H1337 C1345 0.930 . S
H1338 C1348 0.930 . S
H1339 C1349 0.930 . S
C1340 H1334 0.930 . S
C1340 C1341 1.355 . S
C1340 C1342 1.415 . S
C1341 C1340 1.355 . S
C1341 C1343 1.419 . S
C1342 C1340 1.415 . S
C1342 C1347 1.425 . S
C1342 C1349 1.409 . S
C1343 H1335 0.930 . S
C1343 C1341 1.419 . S
C1343 C1344 1.362 . S
C1344 H1336 0.930 . S
C1344 C1343 1.362 . S
C1344 C1347 1.409 . S
C1345 H1337 0.930 . S
C1345 C1346 1.355 . S
C1345 C1347 1.415 . S
C1346 C1345 1.355 . S
C1346 C1348 1.419 . S
C1347 C1342 1.425 . S
C1347 C1344 1.409 . S
C1347 C1345 1.415 . S
C1348 H1338 0.930 . S
C1348 C1346 1.419 . S
C1348 C1349 1.362 . S
C1349 H1339 0.930 . S
C1349 C1342 1.409 . S
C1349 C1348 1.362 . S
H1350 C1356 0.930 . S
H1351 C1359 0.930 . S
H1352 C1360 0.930 . S
H1353 C1361 0.930 . S
H1354 C1364 0.930 . S
H1355 C1365 0.930 . S
C1356 H1350 0.930 . S
C1356 C1357 1.355 . S
C1356 C1358 1.415 1_565 S
C1357 C1356 1.355 . S
C1357 C1359 1.419 . S
C1358 C1356 1.415 1_545 S
C1358 C1363 1.425 . S
C1358 C1365 1.409 . S
C1359 H1351 0.930 . S
C1359 C1357 1.419 . S
C1359 C1360 1.362 . S
C1360 H1352 0.930 . S
C1360 C1359 1.362 . S
C1360 C1363 1.409 1_565 S
C1361 H1353 0.930 . S
C1361 C1362 1.355 . S
C1361 C1363 1.415 . S
C1362 C1361 1.355 . S
C1362 C1364 1.419 . S
C1363 C1358 1.425 . S
C1363 C1360 1.409 1_545 S
C1363 C1361 1.415 . S
C1364 H1354 0.930 . S
C1364 C1362 1.419 . S
C1364 C1365 1.362 . S
C1365 H1355 0.930 . S
C1365 C1358 1.409 . S
C1365 C1364 1.362 . S
H1366 C1372 0.930 . S
H1367 C1375 0.930 . S
H1368 C1376 0.930 . S
H1369 C1377 0.930 . S
H1370 C1380 0.930 . S
H1371 C1381 0.930 . S
C1372 H1366 0.930 . S
C1372 C1373 1.355 . S
C1372 C1374 1.415 1_455 S
C1373 C1372 1.355 . S
C1373 C1375 1.419 . S
C1374 C1372 1.415 1_655 S
C1374 C1379 1.425 . S
C1374 C1381 1.409 . S
C1375 H1367 0.930 . S
C1375 C1373 1.419 . S
C1375 C1376 1.362 . S
C1376 H1368 0.930 . S
C1376 C1375 1.362 . S
C1376 C1379 1.409 1_455 S
C1377 H1369 0.930 . S
C1377 C1378 1.355 . S
C1377 C1379 1.415 . S
C1378 C1377 1.355 . S
C1378 C1380 1.419 . S
C1379 C1374 1.425 . S
C1379 C1376 1.409 1_655 S
C1379 C1377 1.415 . S
C1380 H1370 0.930 . S
C1380 C1378 1.419 . S
C1380 C1381 1.362 . S
C1381 H1371 0.930 . S
C1381 C1374 1.409 . S
C1381 C1380 1.362 . S
H1382 C1388 0.930 . S
H1383 C1391 0.930 . S
H1384 C1392 0.930 . S
H1385 C1393 0.930 . S
H1386 C1396 0.930 . S
H1387 C1397 0.930 . S
C1388 H1382 0.930 . S
C1388 C1389 1.355 . S
C1388 C1390 1.415 . S
C1389 C1388 1.355 . S
C1389 C1391 1.419 . S
C1390 C1388 1.415 . S
C1390 C1395 1.425 . S
C1390 C1397 1.409 . S
C1391 H1383 0.930 . S
C1391 C1389 1.419 . S
C1391 C1392 1.362 . S
C1392 H1384 0.930 . S
C1392 C1391 1.362 . S
C1392 C1395 1.409 . S
C1393 H1385 0.930 . S
C1393 C1394 1.355 . S
C1393 C1395 1.415 . S
C1394 C1393 1.355 . S
C1394 C1396 1.419 . S
C1395 C1390 1.425 . S
C1395 C1392 1.409 . S
C1395 C1393 1.415 . S
C1396 H1386 0.930 . S
C1396 C1394 1.419 . S
C1396 C1397 1.362 . S
C1397 H1387 0.930 . S
C1397 C1390 1.409 . S
C1397 C1396 1.362 . S
H1398 C1404 0.930 . S
H1399 C1407 0.930 . S
H1400 C1408 0.930 . S
H1401 C1409 0.930 . S
H1402 C1412 0.930 . S
H1403 C1413 0.930 . S
C1404 H1398 0.930 . S
C1404 C1405 1.355 . S
C1404 C1406 1.415 1_455 S
C1405 C1404 1.355 . S
C1405 C1407 1.419 . S
C1406 C1404 1.415 1_655 S
C1406 C1411 1.425 . S
C1406 C1413 1.409 . S
C1407 H1399 0.930 . S
C1407 C1405 1.419 . S
C1407 C1408 1.362 . S
C1408 H1400 0.930 . S
C1408 C1407 1.362 . S
C1408 C1411 1.409 1_455 S
C1409 H1401 0.930 . S
C1409 C1410 1.355 . S
C1409 C1411 1.415 . S
C1410 C1409 1.355 . S
C1410 C1412 1.419 . S
C1411 C1406 1.425 . S
C1411 C1408 1.409 1_655 S
C1411 C1409 1.415 . S
C1412 H1402 0.930 . S
C1412 C1410 1.419 . S
C1412 C1413 1.362 . S
C1413 H1403 0.930 . S
C1413 C1406 1.409 . S
C1413 C1412 1.362 . S
H1414 C1420 0.930 . S
H1415 C1423 0.930 . S
H1416 C1424 0.930 . S
H1417 C1425 0.930 . S
H1418 C1428 0.930 . S
H1419 C1429 0.930 . S
C1420 H1414 0.930 . S
C1420 C1421 1.355 . S
C1420 C1422 1.415 . S
C1421 C1420 1.355 . S
C1421 C1423 1.419 . S
C1422 C1420 1.415 . S
C1422 C1427 1.425 . S
C1422 C1429 1.409 . S
C1423 H1415 0.930 . S
C1423 C1421 1.419 . S
C1423 C1424 1.362 . S
C1424 H1416 0.930 . S
C1424 C1423 1.362 . S
C1424 C1427 1.409 . S
C1425 H1417 0.930 . S
C1425 C1426 1.355 . S
C1425 C1427 1.415 . S
C1426 C1425 1.355 . S
C1426 C1428 1.419 . S
C1427 C1422 1.425 . S
C1427 C1424 1.409 . S
C1427 C1425 1.415 . S
C1428 H1418 0.930 . S
C1428 C1426 1.419 . S
C1428 C1429 1.362 . S
C1429 H1419 0.930 . S
C1429 C1422 1.409 . S
C1429 C1428 1.362 . S
H1430 C1436 0.930 . S
H1431 C1439 0.930 . S
H1432 C1440 0.930 1_545 S
H1433 C1441 0.930 . S
H1434 C1444 0.930 . S
H1435 C1445 0.930 1_565 S
C1436 H1430 0.930 . S
C1436 C1437 1.355 . S
C1436 C1438 1.415 . S
C1437 C1436 1.355 . S
C1437 C1439 1.419 . S
C1438 C1436 1.415 . S
C1438 C1443 1.425 1_565 S
C1438 C1445 1.409 1_565 S
C1439 H1431 0.930 . S
C1439 C1437 1.419 . S
C1439 C1440 1.362 . S
C1440 H1432 0.930 1_565 S
C1440 C1439 1.362 . S
C1440 C1443 1.409 1_565 S
C1441 H1433 0.930 . S
C1441 C1442 1.355 . S
C1441 C1443 1.415 . S
C1442 C1441 1.355 . S
C1442 C1444 1.419 . S
C1443 C1438 1.425 1_545 S
C1443 C1440 1.409 1_545 S
C1443 C1441 1.415 . S
C1444 H1434 0.930 . S
C1444 C1442 1.419 . S
C1444 C1445 1.362 . S
C1445 H1435 0.930 1_545 S
C1445 C1438 1.409 1_545 S
C1445 C1444 1.362 . S
H1446 C1452 0.930 . S
H1447 C1455 0.930 . S
H1448 C1456 0.930 . S
H1449 C1457 0.930 . S
H1450 C1460 0.930 . S
H1451 C1461 0.930 . S
C1452 H1446 0.930 . S
C1452 C1453 1.355 . S
C1452 C1454 1.415 . S
C1453 C1452 1.355 . S
C1453 C1455 1.419 . S
C1454 C1452 1.415 . S
C1454 C1459 1.425 . S
C1454 C1461 1.409 . S
C1455 H1447 0.930 . S
C1455 C1453 1.419 . S
C1455 C1456 1.362 . S
C1456 H1448 0.930 . S
C1456 C1455 1.362 . S
C1456 C1459 1.409 . S
C1457 H1449 0.930 . S
C1457 C1458 1.355 . S
C1457 C1459 1.415 . S
C1458 C1457 1.355 . S
C1458 C1460 1.419 . S
C1459 C1454 1.425 . S
C1459 C1456 1.409 . S
C1459 C1457 1.415 . S
C1460 H1450 0.930 . S
C1460 C1458 1.419 . S
C1460 C1461 1.362 . S
C1461 H1451 0.930 . S
C1461 C1454 1.409 . S
C1461 C1460 1.362 . S
H1462 C1468 0.930 . S
H1463 C1471 0.930 . S
H1464 C1472 0.930 . S
H1465 C1473 0.930 . S
H1466 C1476 0.930 . S
H1467 C1477 0.930 . S
C1468 H1462 0.930 . S
C1468 C1469 1.355 . S
C1468 C1470 1.415 . S
C1469 C1468 1.355 . S
C1469 C1471 1.419 . S
C1470 C1468 1.415 . S
C1470 C1475 1.425 . S
C1470 C1477 1.409 . S
C1471 H1463 0.930 . S
C1471 C1469 1.419 . S
C1471 C1472 1.362 . S
C1472 H1464 0.930 . S
C1472 C1471 1.362 . S
C1472 C1475 1.409 . S
C1473 H1465 0.930 . S
C1473 C1474 1.355 . S
C1473 C1475 1.415 . S
C1474 C1473 1.355 . S
C1474 C1476 1.419 . S
C1475 C1470 1.425 . S
C1475 C1472 1.409 . S
C1475 C1473 1.415 . S
C1476 H1466 0.930 . S
C1476 C1474 1.419 . S
C1476 C1477 1.362 . S
C1477 H1467 0.930 . S
C1477 C1470 1.409 . S
C1477 C1476 1.362 . S
H1478 C1484 0.930 . S
H1479 C1487 0.930 . S
H1480 C1488 0.930 . S
H1481 C1489 0.930 . S
H1482 C1492 0.930 . S
H1483 C1493 0.930 . S
C1484 H1478 0.930 . S
C1484 C1485 1.355 . S
C1484 C1486 1.415 . S
C1485 C1484 1.355 . S
C1485 C1487 1.419 . S
C1486 C1484 1.415 . S
C1486 C1491 1.425 . S
C1486 C1493 1.409 . S
C1487 H1479 0.930 . S
C1487 C1485 1.419 . S
C1487 C1488 1.362 . S
C1488 H1480 0.930 . S
C1488 C1487 1.362 . S
C1488 C1491 1.409 . S
C1489 H1481 0.930 . S
C1489 C1490 1.355 . S
C1489 C1491 1.415 . S
C1490 C1489 1.355 . S
C1490 C1492 1.419 . S
C1491 C1486 1.425 . S
C1491 C1488 1.409 . S
C1491 C1489 1.415 . S
C1492 H1482 0.930 . S
C1492 C1490 1.419 . S
C1492 C1493 1.362 . S
C1493 H1483 0.930 . S
C1493 C1486 1.409 . S
C1493 C1492 1.362 . S
H1494 C1500 0.930 . S
H1495 C1503 0.930 . S
H1496 C1504 0.930 . S
H1497 C1505 0.930 . S
H1498 C1508 0.930 1_545 S
H1499 C1509 0.930 1_545 S
C1500 H1494 0.930 . S
C1500 C1501 1.355 . S
C1500 C1502 1.415 . S
C1501 C1500 1.355 . S
C1501 C1503 1.419 . S
C1502 C1500 1.415 . S
C1502 C1507 1.425 . S
C1502 C1509 1.409 . S
C1503 H1495 0.930 . S
C1503 C1501 1.419 . S
C1503 C1504 1.362 . S
C1504 H1496 0.930 . S
C1504 C1503 1.362 . S
C1504 C1507 1.409 . S
C1505 H1497 0.930 . S
C1505 C1506 1.355 . S
C1505 C1507 1.415 . S
C1506 C1505 1.355 . S
C1506 C1508 1.419 . S
C1507 C1502 1.425 . S
C1507 C1504 1.409 . S
C1507 C1505 1.415 . S
C1508 H1498 0.930 1_565 S
C1508 C1506 1.419 . S
C1508 C1509 1.362 . S
C1509 H1499 0.930 1_565 S
C1509 C1502 1.409 . S
C1509 C1508 1.362 . S
H1510 C1516 0.930 . S
H1511 C1519 0.930 . S
H1512 C1520 0.930 1_655 S
H1513 C1521 0.930 1_655 S
H1514 C1524 0.930 . S
H1515 C1525 0.930 . S
C1516 H1510 0.930 . S
C1516 C1517 1.355 . S
C1516 C1518 1.415 . S
C1517 C1516 1.355 . S
C1517 C1519 1.419 . S
C1518 C1516 1.415 . S
C1518 C1523 1.425 . S
C1518 C1525 1.409 . S
C1519 H1511 0.930 . S
C1519 C1517 1.419 . S
C1519 C1520 1.362 . S
C1520 H1512 0.930 1_455 S
C1520 C1519 1.362 . S
C1520 C1523 1.409 . S
C1521 H1513 0.930 1_455 S
C1521 C1522 1.355 . S
C1521 C1523 1.415 . S
C1522 C1521 1.355 . S
C1522 C1524 1.419 . S
C1523 C1518 1.425 . S
C1523 C1520 1.409 . S
C1523 C1521 1.415 . S
C1524 H1514 0.930 . S
C1524 C1522 1.419 . S
C1524 C1525 1.362 . S
C1525 H1515 0.930 . S
C1525 C1518 1.409 . S
C1525 C1524 1.362 . S
H1526 C1532 0.930 . S
H1527 C1535 0.930 . S
H1528 C1536 0.930 . S
H1529 C1537 0.930 . S
H1530 C1540 0.930 . S
H1531 C1541 0.930 . S
C1532 H1526 0.930 . S
C1532 C1533 1.355 . S
C1532 C1534 1.415 . S
C1533 C1532 1.355 . S
C1533 C1535 1.419 . S
C1534 C1532 1.415 . S
C1534 C1539 1.425 . S
C1534 C1541 1.409 . S
C1535 H1527 0.930 . S
C1535 C1533 1.419 . S
C1535 C1536 1.362 . S
C1536 H1528 0.930 . S
C1536 C1535 1.362 . S
C1536 C1539 1.409 . S
C1537 H1529 0.930 . S
C1537 C1538 1.355 . S
C1537 C1539 1.415 . S
C1538 C1537 1.355 . S
C1538 C1540 1.419 . S
C1539 C1534 1.425 . S
C1539 C1536 1.409 . S
C1539 C1537 1.415 . S
C1540 H1530 0.930 . S
C1540 C1538 1.419 . S
C1540 C1541 1.362 . S
C1541 H1531 0.930 . S
C1541 C1534 1.409 . S
C1541 C1540 1.362 . S
H1542 C1548 0.930 . S
H1543 C1551 0.930 . S
H1544 C1552 0.930 . S
H1545 C1553 0.930 . S
H1546 C1556 0.930 . S
H1547 C1557 0.930 . S
C1548 H1542 0.930 . S
C1548 C1549 1.355 . S
C1548 C1550 1.415 . S
C1549 C1548 1.355 . S
C1549 C1551 1.419 . S
C1550 C1548 1.415 . S
C1550 C1555 1.425 . S
C1550 C1557 1.409 . S
C1551 H1543 0.930 . S
C1551 C1549 1.419 . S
C1551 C1552 1.362 . S
C1552 H1544 0.930 . S
C1552 C1551 1.362 . S
C1552 C1555 1.409 . S
C1553 H1545 0.930 . S
C1553 C1554 1.355 . S
C1553 C1555 1.415 . S
C1554 C1553 1.355 . S
C1554 C1556 1.419 . S
C1555 C1550 1.425 . S
C1555 C1552 1.409 . S
C1555 C1553 1.415 . S
C1556 H1546 0.930 . S
C1556 C1554 1.419 . S
C1556 C1557 1.362 . S
C1557 H1547 0.930 . S
C1557 C1550 1.409 . S
C1557 C1556 1.362 . S
H1558 C1564 0.930 . S
H1559 C1567 0.930 . S
H1560 C1568 0.930 . S
H1561 C1569 0.930 . S
H1562 C1572 0.930 . S
H1563 C1573 0.930 . S
C1564 H1558 0.930 . S
C1564 C1565 1.355 . S
C1564 C1566 1.415 . S
C1565 C1564 1.355 . S
C1565 C1567 1.419 . S
C1566 C1564 1.415 . S
C1566 C1571 1.425 . S
C1566 C1573 1.409 . S
C1567 H1559 0.930 . S
C1567 C1565 1.419 . S
C1567 C1568 1.362 . S
C1568 H1560 0.930 . S
C1568 C1567 1.362 . S
C1568 C1571 1.409 . S
C1569 H1561 0.930 . S
C1569 C1570 1.355 . S
C1569 C1571 1.415 . S
C1570 C1569 1.355 . S
C1570 C1572 1.419 . S
C1571 C1566 1.425 . S
C1571 C1568 1.409 . S
C1571 C1569 1.415 . S
C1572 H1562 0.930 . S
C1572 C1570 1.419 . S
C1572 C1573 1.362 . S
C1573 H1563 0.930 . S
C1573 C1566 1.409 . S
C1573 C1572 1.362 . S
H1574 C1580 0.930 . S
H1575 C1583 0.930 . S
H1576 C1584 0.930 . S
H1577 C1585 0.930 . S
H1578 C1588 0.930 . S
H1579 C1589 0.930 . S
C1580 H1574 0.930 . S
C1580 C1581 1.355 . S
C1580 C1582 1.415 . S
C1581 C1580 1.355 . S
C1581 C1583 1.419 . S
C1582 C1580 1.415 . S
C1582 C1587 1.425 . S
C1582 C1589 1.409 . S
C1583 H1575 0.930 . S
C1583 C1581 1.419 . S
C1583 C1584 1.362 . S
C1584 H1576 0.930 . S
C1584 C1583 1.362 . S
C1584 C1587 1.409 . S
C1585 H1577 0.930 . S
C1585 C1586 1.355 . S
C1585 C1587 1.415 . S
C1586 C1585 1.355 . S
C1586 C1588 1.419 . S
C1587 C1582 1.425 . S
C1587 C1584 1.409 . S
C1587 C1585 1.415 . S
C1588 H1578 0.930 . S
C1588 C1586 1.419 . S
C1588 C1589 1.362 . S
C1589 H1579 0.930 . S
C1589 C1582 1.409 . S
C1589 C1588 1.362 . S
H1590 C1596 0.930 . S
H1591 C1599 0.930 . S
H1592 C1600 0.930 . S
H1593 C1601 0.930 . S
H1594 C1604 0.930 . S
H1595 C1605 0.930 . S
C1596 H1590 0.930 . S
C1596 C1597 1.355 . S
C1596 C1598 1.415 . S
C1597 C1596 1.355 . S
C1597 C1599 1.419 . S
C1598 C1596 1.415 . S
C1598 C1603 1.425 . S
C1598 C1605 1.409 . S
C1599 H1591 0.930 . S
C1599 C1597 1.419 . S
C1599 C1600 1.362 . S
C1600 H1592 0.930 . S
C1600 C1599 1.362 . S
C1600 C1603 1.409 . S
C1601 H1593 0.930 . S
C1601 C1602 1.355 . S
C1601 C1603 1.415 . S
C1602 C1601 1.355 . S
C1602 C1604 1.419 . S
C1603 C1598 1.425 . S
C1603 C1600 1.409 . S
C1603 C1601 1.415 . S
C1604 H1594 0.930 . S
C1604 C1602 1.419 . S
C1604 C1605 1.362 . S
C1605 H1595 0.930 . S
C1605 C1598 1.409 . S
C1605 C1604 1.362 . S
H1606 C1612 0.930 . S
H1607 C1615 0.930 . S
H1608 C1616 0.930 . S
H1609 C1617 0.930 . S
H1610 C1620 0.930 . S
H1611 C1621 0.930 . S
C1612 H1606 0.930 . S
C1612 C1613 1.355 . S
C1612 C1614 1.415 . S
C1613 C1612 1.355 . S
C1613 C1615 1.419 . S
C1614 C1612 1.415 . S
C1614 C1619 1.425 . S
C1614 C1621 1.409 . S
C1615 H1607 0.930 . S
C1615 C1613 1.419 . S
C1615 C1616 1.362 . S
C1616 H1608 0.930 . S
C1616 C1615 1.362 . S
C1616 C1619 1.409 . S
C1617 H1609 0.930 . S
C1617 C1618 1.355 . S
C1617 C1619 1.415 . S
C1618 C1617 1.355 . S
C1618 C1620 1.419 . S
C1619 C1614 1.425 . S
C1619 C1616 1.409 . S
C1619 C1617 1.415 . S
C1620 H1610 0.930 . S
C1620 C1618 1.419 . S
C1620 C1621 1.362 . S
C1621 H1611 0.930 . S
C1621 C1614 1.409 . S
C1621 C1620 1.362 . S
H1622 C1628 0.930 . S
H1623 C1631 0.930 . S
H1624 C1632 0.930 . S
H1625 C1633 0.930 . S
H1626 C1636 0.930 . S
H1627 C1637 0.930 . S
C1628 H1622 0.930 . S
C1628 C1629 1.355 . S
C1628 C1630 1.415 . S
C1629 C1628 1.355 . S
C1629 C1631 1.419 . S
C1630 C1628 1.415 . S
C1630 C1635 1.425 . S
C1630 C1637 1.409 . S
C1631 H1623 0.930 . S
C1631 C1629 1.419 . S
C1631 C1632 1.362 . S
C1632 H1624 0.930 . S
C1632 C1631 1.362 . S
C1632 C1635 1.409 . S
C1633 H1625 0.930 . S
C1633 C1634 1.355 . S
C1633 C1635 1.415 . S
C1634 C1633 1.355 . S
C1634 C1636 1.419 . S
C1635 C1630 1.425 . S
C1635 C1632 1.409 . S
C1635 C1633 1.415 . S
C1636 H1626 0.930 . S
C1636 C1634 1.419 . S
C1636 C1637 1.362 . S
C1637 H1627 0.930 . S
C1637 C1630 1.409 . S
C1637 C1636 1.362 . S
H1638 C1644 0.930 . S
H1639 C1647 0.930 . S
H1640 C1648 0.930 . S
H1641 C1649 0.930 . S
H1642 C1652 0.930 . S
H1643 C1653 0.930 . S
C1644 H1638 0.930 . S
C1644 C1645 1.355 . S
C1644 C1646 1.415 . S
C1645 C1644 1.355 . S
C1645 C1647 1.419 . S
C1646 C1644 1.415 . S
C1646 C1651 1.425 . S
C1646 C1653 1.409 . S
C1647 H1639 0.930 . S
C1647 C1645 1.419 . S
C1647 C1648 1.362 . S
C1648 H1640 0.930 . S
C1648 C1647 1.362 . S
C1648 C1651 1.409 . S
C1649 H1641 0.930 . S
C1649 C1650 1.355 . S
C1649 C1651 1.415 . S
C1650 C1649 1.355 . S
C1650 C1652 1.419 . S
C1651 C1646 1.425 . S
C1651 C1648 1.409 . S
C1651 C1649 1.415 . S
C1652 H1642 0.930 . S
C1652 C1650 1.419 . S
C1652 C1653 1.362 . S
C1653 H1643 0.930 . S
C1653 C1646 1.409 . S
C1653 C1652 1.362 . S
H1654 C1660 0.930 . S
H1655 C1663 0.930 . S
H1656 C1664 0.930 . S
H1657 C1665 0.930 . S
H1658 C1668 0.930 . S
H1659 C1669 0.930 . S
C1660 H1654 0.930 . S
C1660 C1661 1.355 . S
C1660 C1662 1.415 . S
C1661 C1660 1.355 . S
C1661 C1663 1.419 . S
C1662 C1660 1.415 . S
C1662 C1667 1.425 . S
C1662 C1669 1.409 . S
C1663 H1655 0.930 . S
C1663 C1661 1.419 . S
C1663 C1664 1.362 . S
C1664 H1656 0.930 . S
C1664 C1663 1.362 . S
C1664 C1667 1.409 . S
C1665 H1657 0.930 . S
C1665 C1666 1.355 . S
C1665 C1667 1.415 . S
C1666 C1665 1.355 . S
C1666 C1668 1.419 . S
C1667 C1662 1.425 . S
C1667 C1664 1.409 . S
C1667 C1665 1.415 . S
C1668 H1658 0.930 . S
C1668 C1666 1.419 . S
C1668 C1669 1.362 . S
C1669 H1659 0.930 . S
C1669 C1662 1.409 . S
C1669 C1668 1.362 . S
H1670 C1676 0.930 . S
H1671 C1679 0.930 . S
H1672 C1680 0.930 . S
H1673 C1681 0.930 . S
H1674 C1684 0.930 . S
H1675 C1685 0.930 . S
C1676 H1670 0.930 . S
C1676 C1677 1.355 . S
C1676 C1678 1.415 . S
C1677 C1676 1.355 . S
C1677 C1679 1.419 . S
C1678 C1676 1.415 . S
C1678 C1683 1.425 . S
C1678 C1685 1.409 . S
C1679 H1671 0.930 . S
C1679 C1677 1.419 . S
C1679 C1680 1.362 . S
C1680 H1672 0.930 . S
C1680 C1679 1.362 . S
C1680 C1683 1.409 . S
C1681 H1673 0.930 . S
C1681 C1682 1.355 . S
C1681 C1683 1.415 . S
C1682 C1681 1.355 . S
C1682 C1684 1.419 . S
C1683 C1678 1.425 . S
C1683 C1680 1.409 . S
C1683 C1681 1.415 . S
C1684 H1674 0.930 . S
C1684 C1682 1.419 . S
C1684 C1685 1.362 . S
C1685 H1675 0.930 . S
C1685 C1678 1.409 . S
C1685 C1684 1.362 . S
H1686 C1692 0.930 . S
H1687 C1695 0.930 . S
H1688 C1696 0.930 . S
H1689 C1697 0.930 . S
H1690 C1700 0.930 . S
H1691 C1701 0.930 . S
C1692 H1686 0.930 . S
C1692 C1693 1.355 . S
C1692 C1694 1.415 . S
C1693 C1692 1.355 . S
C1693 C1695 1.419 . S
C1694 C1692 1.415 . S
C1694 C1699 1.425 . S
C1694 C1701 1.409 . S
C1695 H1687 0.930 . S
C1695 C1693 1.419 . S
C1695 C1696 1.362 . S
C1696 H1688 0.930 . S
C1696 C1695 1.362 . S
C1696 C1699 1.409 . S
C1697 H1689 0.930 . S
C1697 C1698 1.355 . S
C1697 C1699 1.415 . S
C1698 C1697 1.355 . S
C1698 C1700 1.419 . S
C1699 C1694 1.425 . S
C1699 C1696 1.409 . S
C1699 C1697 1.415 . S
C1700 H1690 0.930 . S
C1700 C1698 1.419 . S
C1700 C1701 1.362 . S
C1701 H1691 0.930 . S
C1701 C1694 1.409 . S
C1701 C1700 1.362 . S
H1702 C1708 0.930 . S
H1703 C1711 0.930 . S
H1704 C1712 0.930 . S
H1705 C1713 0.930 . S
H1706 C1716 0.930 . S
H1707 C1717 0.930 . S
C1708 H1702 0.930 . S
C1708 C1709 1.355 . S
C1708 C1710 1.415 . S
C1709 C1708 1.355 . S
C1709 C1711 1.419 . S
C1710 C1708 1.415 . S
C1710 C1715 1.425 . S
C1710 C1717 1.409 . S
C1711 H1703 0.930 . S
C1711 C1709 1.419 . S
C1711 C1712 1.362 . S
C1712 H1704 0.930 . S
C1712 C1711 1.362 . S
C1712 C1715 1.409 . S
C1713 H1705 0.930 . S
C1713 C1714 1.355 . S
C1713 C1715 1.415 . S
C1714 C1713 1.355 . S
C1714 C1716 1.419 . S
C1715 C1710 1.425 . S
C1715 C1712 1.409 . S
C1715 C1713 1.415 . S
C1716 H1706 0.930 . S
C1716 C1714 1.419 . S
C1716 C1717 1.362 . S
C1717 H1707 0.930 . S
C1717 C1710 1.409 . S
C1717 C1716 1.362 . S
H1718 C1724 0.930 . S
H1719 C1727 0.930 . S
H1720 C1728 0.930 . S
H1721 C1729 0.930 . S
H1722 C1732 0.930 . S
H1723 C1733 0.930 . S
C1724 H1718 0.930 . S
C1724 C1725 1.355 . S
C1724 C1726 1.415 . S
C1725 C1724 1.355 . S
C1725 C1727 1.419 . S
C1726 C1724 1.415 . S
C1726 C1731 1.425 . S
C1726 C1733 1.409 . S
C1727 H1719 0.930 . S
C1727 C1725 1.419 . S
C1727 C1728 1.362 . S
C1728 H1720 0.930 . S
C1728 C1727 1.362 . S
C1728 C1731 1.409 . S
C1729 H1721 0.930 . S
C1729 C1730 1.355 . S
C1729 C1731 1.415 . S
C1730 C1729 1.355 . S
C1730 C1732 1.419 . S
C1731 C1726 1.425 . S
C1731 C1728 1.409 . S
C1731 C1729 1.415 . S
C1732 H1722 0.930 . S
C1732 C1730 1.419 . S
C1732 C1733 1.362 . S
C1733 H1723 0.930 . S
C1733 C1726 1.409 . S
C1733 C1732 1.362 . S
H1734 C1740 0.930 . S
H1735 C1743 0.930 . S
H1736 C1744 0.930 . S
H1737 C1745 0.930 . S
H1738 C1748 0.930 . S
H1739 C1749 0.930 . S
C1740 H1734 0.930 . S
C1740 C1741 1.355 . S
C1740 C1742 1.415 . S
C1741 C1740 1.355 . S
C1741 C1743 1.419 . S
C1742 C1740 1.415 . S
C1742 C1747 1.425 . S
C1742 C1749 1.409 . S
C1743 H1735 0.930 . S
C1743 C1741 1.419 . S
C1743 C1744 1.362 . S
C1744 H1736 0.930 . S
C1744 C1743 1.362 . S
C1744 C1747 1.409 . S
C1745 H1737 0.930 . S
C1745 C1746 1.355 . S
C1745 C1747 1.415 . S
C1746 C1745 1.355 . S
C1746 C1748 1.419 . S
C1747 C1742 1.425 . S
C1747 C1744 1.409 . S
C1747 C1745 1.415 . S
C1748 H1738 0.930 . S
C1748 C1746 1.419 . S
C1748 C1749 1.362 . S
C1749 H1739 0.930 . S
C1749 C1742 1.409 . S
C1749 C1748 1.362 . S
H1750 C1756 0.930 . S
H1751 C1759 0.930 . S
H1752 C1760 0.930 . S
H1753 C1761 0.930 . S
H1754 C1764 0.930 . S
H1755 C1765 0.930 . S
C1756 H1750 0.930 . S
C1756 C1757 1.355 . S
C1756 C1758 1.415 . S
C1757 C1756 1.355 . S
C1757 C1759 1.419 . S
C1758 C1756 1.415 . S
C1758 C1763 1.425 . S
C1758 C1765 1.409 . S
C1759 H1751 0.930 . S
C1759 C1757 1.419 . S
C1759 C1760 1.362 . S
C1760 H1752 0.930 . S
C1760 C1759 1.362 . S
C1760 C1763 1.409 . S
C1761 H1753 0.930 . S
C1761 C1762 1.355 . S
C1761 C1763 1.415 . S
C1762 C1761 1.355 . S
C1762 C1764 1.419 . S
C1763 C1758 1.425 . S
C1763 C1760 1.409 . S
C1763 C1761 1.415 . S
C1764 H1754 0.930 . S
C1764 C1762 1.419 . S
C1764 C1765 1.362 . S
C1765 H1755 0.930 . S
C1765 C1758 1.409 . S
C1765 C1764 1.362 . S
H1766 C1772 0.930 . S
H1767 C1775 0.930 . S
H1768 C1776 0.930 . S
H1769 C1777 0.930 . S
H1770 C1780 0.930 . S
H1771 C1781 0.930 . S
C1772 H1766 0.930 . S
C1772 C1773 1.355 . S
C1772 C1774 1.415 . S
C1773 C1772 1.355 . S
C1773 C1775 1.419 . S
C1774 C1772 1.415 . S
C1774 C1779 1.425 . S
C1774 C1781 1.409 . S
C1775 H1767 0.930 . S
C1775 C1773 1.419 . S
C1775 C1776 1.362 . S
C1776 H1768 0.930 . S
C1776 C1775 1.362 . S
C1776 C1779 1.409 . S
C1777 H1769 0.930 . S
C1777 C1778 1.355 . S
C1777 C1779 1.415 . S
C1778 C1777 1.355 . S
C1778 C1780 1.419 . S
C1779 C1774 1.425 . S
C1779 C1776 1.409 . S
C1779 C1777 1.415 . S
C1780 H1770 0.930 . S
C1780 C1778 1.419 . S
C1780 C1781 1.362 . S
C1781 H1771 0.930 . S
C1781 C1774 1.409 . S
C1781 C1780 1.362 . S
C925 C124 1.452 . S
C930 C229 1.368 . S
C941 C130 1.494 . S
C946 C313 1.405 . S
C957 C115 1.466 . S
C962 C393 1.437 . S
C973 C106 1.435 . S
C978 C309 1.376 . S
C994 C397 1.314 . S
C989 C85 1.436 . S
C1005 C97 1.400 . S
C1010 C225 1.341 . S
C1026 C218 1.394 . S
C1021 C103 1.474 . S
C1042 C302 1.426 . S
C1037 C88 1.468 . S
C1053 C94 1.479 . S
C1058 C404 1.462 . S
C1069 C121 1.438 . S
C1074 C320 1.388 . S
C1085 C133 1.413 . S
C1090 C386 1.293 . S
C1106 C236 1.419 . S
C1101 C112 1.442 . S
C1122 C481 1.397 . S
C1117 C16 1.448 . S
C1133 C22 1.487 . S
C1138 C565 1.371 . S
C1149 C7 1.455 . S
C1154 C645 1.398 . S
C1165 C160 1.454 . S
C1170 C561 1.432 . S
C1181 C139 1.441 . S
C1186 C649 1.324 . S
C1197 C151 1.422 . S
C1202 C477 1.398 . S
C1213 C157 1.452 . S
C1218 C470 1.368 . S
C1229 C142 1.465 . S
C1234 C554 1.347 . S
C1250 C656 1.456 . S
C1245 C148 1.478 . S
C1261 C13 1.450 . S
C1266 C572 1.426 . S
C1282 C638 1.292 . S
C1277 C25 1.414 . S
C1293 C4 1.430 . S
C1298 C488 1.387 . S
C1314 C733 1.324 . S
C1309 C70 1.447 . S
C1325 C76 1.489 . S
C1330 C817 1.376 . S
C1346 C897 1.397 . S
C1341 C61 1.455 . S
C1362 C813 1.433 . S
C1357 C52 1.455 . S
C1378 C901 1.401 . S
C1373 C31 1.445 . S
C1389 C43 1.396 . S
C1394 C729 1.338 . S
C1405 C49 1.473 . S
C1410 C722 1.403 . S
C1421 C34 1.464 . S
C1426 C806 1.434 . S
C1442 C908 1.439 . S
C1437 C40 1.468 . S
C1453 C67 1.437 . S
C1458 C824 1.386 . S
C1469 C79 1.406 . S
C1474 C890 1.315 . S
C1485 C58 1.440 . S
C1490 C740 1.413 . S
C1501 C140 1.488 . S
C1506 C232 1.332 . S
C1522 C316 1.421 . S
C1517 C149 1.505 . S
C1533 C158 1.502 . S
C1538 C388 1.422 . S
C1549 C59 1.521 . S
C1554 C304 1.392 . S
C1565 C68 1.489 . S
C1570 C400 1.378 . S
C1586 C220 1.404 . S
C1581 C77 1.484 . S
C1597 C32 1.488 . S
C1602 C484 1.354 . S
C1613 C41 1.507 . S
C1618 C568 1.385 . S
C1629 C50 1.507 . S
C1634 C640 1.329 . S
C1645 C113 1.520 . S
C1650 C556 1.357 . S
C1666 C652 1.416 . S
C1661 C122 1.487 . S
C1677 C131 1.489 . S
C1682 C472 1.322 . S
C1693 C86 1.488 . S
C1698 C736 1.369 . S
C1709 C95 1.506 . S
C1714 C820 1.409 . S
C1730 C892 1.356 . S
C1725 C104 1.507 . S
C1741 C5 1.521 . S
C1746 C808 1.426 . S
C1757 C14 1.488 . S
C1762 C904 1.398 . S
C1773 C23 1.483 . S
C1778 C724 1.411 . S
