# Generated by pormake.
# Topology ptr, (4,4)-cn, num edge types: 1
# Building blocks:
#     Node 0, Type 0, BuildingBlock: QUQFOY_clean_sbu_3, # of connection points: 4
#     Node 1, Type 0, BuildingBlock: QUQFOY_clean_sbu_3, # of connection points: 4
#     Node 2, Type 0, BuildingBlock: QUQFOY_clean_sbu_3, # of connection points: 4
#     Node 3, Type 0, BuildingBlock: QUQFOY_clean_sbu_3, # of connection points: 4
#     Node 4, Type 0, BuildingBlock: QUQFOY_clean_sbu_3, # of connection points: 4
#     Node 5, Type 0, BuildingBlock: QUQFOY_clean_sbu_3, # of connection points: 4
#     Node 6, Type 0, BuildingBlock: QUQFOY_clean_sbu_3, # of connection points: 4
#     Node 7, Type 0, BuildingBlock: QUQFOY_clean_sbu_3, # of connection points: 4
#     Node 8, Type 0, BuildingBlock: QUQFOY_clean_sbu_3, # of connection points: 4
#     Node 9, Type 0, BuildingBlock: QUQFOY_clean_sbu_3, # of connection points: 4
#     Node 10, Type 0, BuildingBlock: QUQFOY_clean_sbu_3, # of connection points: 4
#     Node 11, Type 0, BuildingBlock: QUQFOY_clean_sbu_3, # of connection points: 4
#     Node 12, Type 0, BuildingBlock: QUQFOY_clean_sbu_3, # of connection points: 4
#     Node 13, Type 0, BuildingBlock: QUQFOY_clean_sbu_3, # of connection points: 4
#     Node 14, Type 0, BuildingBlock: QUQFOY_clean_sbu_3, # of connection points: 4
#     Node 15, Type 0, BuildingBlock: QUQFOY_clean_sbu_3, # of connection points: 4
#     Node 16, Type 0, BuildingBlock: QUQFOY_clean_sbu_3, # of connection points: 4
#     Node 17, Type 0, BuildingBlock: QUQFOY_clean_sbu_3, # of connection points: 4
#     Node 18, Type 1, BuildingBlock: GIZVER_clean_linker_0, # of connection points: 4
#     Node 19, Type 1, BuildingBlock: GIZVER_clean_linker_0, # of connection points: 4
#     Node 20, Type 1, BuildingBlock: GIZVER_clean_linker_0, # of connection points: 4
#     Node 21, Type 1, BuildingBlock: GIZVER_clean_linker_0, # of connection points: 4
#     Node 22, Type 1, BuildingBlock: GIZVER_clean_linker_0, # of connection points: 4
#     Node 23, Type 1, BuildingBlock: GIZVER_clean_linker_0, # of connection points: 4
#     Node 24, Type 1, BuildingBlock: GIZVER_clean_linker_0, # of connection points: 4
#     Node 25, Type 1, BuildingBlock: GIZVER_clean_linker_0, # of connection points: 4
#     Node 26, Type 1, BuildingBlock: GIZVER_clean_linker_0, # of connection points: 4
#     Node 27, Type 1, BuildingBlock: GIZVER_clean_linker_0, # of connection points: 4
#     Node 28, Type 1, BuildingBlock: GIZVER_clean_linker_0, # of connection points: 4
#     Node 29, Type 1, BuildingBlock: GIZVER_clean_linker_0, # of connection points: 4
#     Node 30, Type 1, BuildingBlock: GIZVER_clean_linker_0, # of connection points: 4
#     Node 31, Type 1, BuildingBlock: GIZVER_clean_linker_0, # of connection points: 4
#     Node 32, Type 1, BuildingBlock: GIZVER_clean_linker_0, # of connection points: 4
#     Node 33, Type 1, BuildingBlock: GIZVER_clean_linker_0, # of connection points: 4
#     Node 34, Type 1, BuildingBlock: GIZVER_clean_linker_0, # of connection points: 4
#     Node 35, Type 1, BuildingBlock: GIZVER_clean_linker_0, # of connection points: 4
#     Edge 36, Type (0, 1), BuildingBlock: AJUNOK_clean_linker_0, # of connection points: 2
#     Edge 37, Type (0, 1), BuildingBlock: AJUNOK_clean_linker_0, # of connection points: 2
#     Edge 38, Type (0, 1), BuildingBlock: AJUNOK_clean_linker_0, # of connection points: 2
#     Edge 39, Type (0, 1), BuildingBlock: AJUNOK_clean_linker_0, # of connection points: 2
#     Edge 40, Type (0, 1), BuildingBlock: AJUNOK_clean_linker_0, # of connection points: 2
#     Edge 41, Type (0, 1), BuildingBlock: AJUNOK_clean_linker_0, # of connection points: 2
#     Edge 42, Type (0, 1), BuildingBlock: AJUNOK_clean_linker_0, # of connection points: 2
#     Edge 43, Type (0, 1), BuildingBlock: AJUNOK_clean_linker_0, # of connection points: 2
#     Edge 44, Type (0, 1), BuildingBlock: AJUNOK_clean_linker_0, # of connection points: 2
#     Edge 45, Type (0, 1), BuildingBlock: AJUNOK_clean_linker_0, # of connection points: 2
#     Edge 46, Type (0, 1), BuildingBlock: AJUNOK_clean_linker_0, # of connection points: 2
#     Edge 47, Type (0, 1), BuildingBlock: AJUNOK_clean_linker_0, # of connection points: 2
#     Edge 48, Type (0, 1), BuildingBlock: AJUNOK_clean_linker_0, # of connection points: 2
#     Edge 49, Type (0, 1), BuildingBlock: AJUNOK_clean_linker_0, # of connection points: 2
#     Edge 50, Type (0, 1), BuildingBlock: AJUNOK_clean_linker_0, # of connection points: 2
#     Edge 51, Type (0, 1), BuildingBlock: AJUNOK_clean_linker_0, # of connection points: 2
#     Edge 52, Type (0, 1), BuildingBlock: AJUNOK_clean_linker_0, # of connection points: 2
#     Edge 53, Type (0, 1), BuildingBlock: AJUNOK_clean_linker_0, # of connection points: 2
#     Edge 54, Type (0, 1), BuildingBlock: AJUNOK_clean_linker_0, # of connection points: 2
#     Edge 55, Type (0, 1), BuildingBlock: AJUNOK_clean_linker_0, # of connection points: 2
#     Edge 56, Type (0, 1), BuildingBlock: AJUNOK_clean_linker_0, # of connection points: 2
#     Edge 57, Type (0, 1), BuildingBlock: AJUNOK_clean_linker_0, # of connection points: 2
#     Edge 58, Type (0, 1), BuildingBlock: AJUNOK_clean_linker_0, # of connection points: 2
#     Edge 59, Type (0, 1), BuildingBlock: AJUNOK_clean_linker_0, # of connection points: 2
#     Edge 60, Type (0, 1), BuildingBlock: AJUNOK_clean_linker_0, # of connection points: 2
#     Edge 61, Type (0, 1), BuildingBlock: AJUNOK_clean_linker_0, # of connection points: 2
#     Edge 62, Type (0, 1), BuildingBlock: AJUNOK_clean_linker_0, # of connection points: 2
#     Edge 63, Type (0, 1), BuildingBlock: AJUNOK_clean_linker_0, # of connection points: 2
#     Edge 64, Type (0, 1), BuildingBlock: AJUNOK_clean_linker_0, # of connection points: 2
#     Edge 65, Type (0, 1), BuildingBlock: AJUNOK_clean_linker_0, # of connection points: 2
#     Edge 66, Type (0, 1), BuildingBlock: AJUNOK_clean_linker_0, # of connection points: 2
#     Edge 67, Type (0, 1), BuildingBlock: AJUNOK_clean_linker_0, # of connection points: 2
#     Edge 68, Type (0, 1), BuildingBlock: AJUNOK_clean_linker_0, # of connection points: 2
#     Edge 69, Type (0, 1), BuildingBlock: AJUNOK_clean_linker_0, # of connection points: 2
#     Edge 70, Type (0, 1), BuildingBlock: AJUNOK_clean_linker_0, # of connection points: 2
#     Edge 71, Type (0, 1), BuildingBlock: AJUNOK_clean_linker_0, # of connection points: 2
#     Edge 72, Type (0, 1), BuildingBlock: AJUNOK_clean_linker_0, # of connection points: 2
#     Edge 73, Type (0, 1), BuildingBlock: AJUNOK_clean_linker_0, # of connection points: 2
#     Edge 74, Type (0, 1), BuildingBlock: AJUNOK_clean_linker_0, # of connection points: 2
#     Edge 75, Type (0, 1), BuildingBlock: AJUNOK_clean_linker_0, # of connection points: 2
#     Edge 76, Type (0, 1), BuildingBlock: AJUNOK_clean_linker_0, # of connection points: 2
#     Edge 77, Type (0, 1), BuildingBlock: AJUNOK_clean_linker_0, # of connection points: 2
#     Edge 78, Type (0, 1), BuildingBlock: AJUNOK_clean_linker_0, # of connection points: 2
#     Edge 79, Type (0, 1), BuildingBlock: AJUNOK_clean_linker_0, # of connection points: 2
#     Edge 80, Type (0, 1), BuildingBlock: AJUNOK_clean_linker_0, # of connection points: 2
#     Edge 81, Type (0, 1), BuildingBlock: AJUNOK_clean_linker_0, # of connection points: 2
#     Edge 82, Type (0, 1), BuildingBlock: AJUNOK_clean_linker_0, # of connection points: 2
#     Edge 83, Type (0, 1), BuildingBlock: AJUNOK_clean_linker_0, # of connection points: 2
#     Edge 84, Type (0, 1), BuildingBlock: AJUNOK_clean_linker_0, # of connection points: 2
#     Edge 85, Type (0, 1), BuildingBlock: AJUNOK_clean_linker_0, # of connection points: 2
#     Edge 86, Type (0, 1), BuildingBlock: AJUNOK_clean_linker_0, # of connection points: 2
#     Edge 87, Type (0, 1), BuildingBlock: AJUNOK_clean_linker_0, # of connection points: 2
#     Edge 88, Type (0, 1), BuildingBlock: AJUNOK_clean_linker_0, # of connection points: 2
#     Edge 89, Type (0, 1), BuildingBlock: AJUNOK_clean_linker_0, # of connection points: 2
#     Edge 90, Type (0, 1), BuildingBlock: AJUNOK_clean_linker_0, # of connection points: 2
#     Edge 91, Type (0, 1), BuildingBlock: AJUNOK_clean_linker_0, # of connection points: 2
#     Edge 92, Type (0, 1), BuildingBlock: AJUNOK_clean_linker_0, # of connection points: 2
#     Edge 93, Type (0, 1), BuildingBlock: AJUNOK_clean_linker_0, # of connection points: 2
#     Edge 94, Type (0, 1), BuildingBlock: AJUNOK_clean_linker_0, # of connection points: 2
#     Edge 95, Type (0, 1), BuildingBlock: AJUNOK_clean_linker_0, # of connection points: 2
#     Edge 96, Type (0, 1), BuildingBlock: AJUNOK_clean_linker_0, # of connection points: 2
#     Edge 97, Type (0, 1), BuildingBlock: AJUNOK_clean_linker_0, # of connection points: 2
#     Edge 98, Type (0, 1), BuildingBlock: AJUNOK_clean_linker_0, # of connection points: 2
#     Edge 99, Type (0, 1), BuildingBlock: AJUNOK_clean_linker_0, # of connection points: 2
#     Edge 100, Type (0, 1), BuildingBlock: AJUNOK_clean_linker_0, # of connection points: 2
#     Edge 101, Type (0, 1), BuildingBlock: AJUNOK_clean_linker_0, # of connection points: 2
#     Edge 102, Type (0, 1), BuildingBlock: AJUNOK_clean_linker_0, # of connection points: 2
#     Edge 103, Type (0, 1), BuildingBlock: AJUNOK_clean_linker_0, # of connection points: 2
#     Edge 104, Type (0, 1), BuildingBlock: AJUNOK_clean_linker_0, # of connection points: 2
#     Edge 105, Type (0, 1), BuildingBlock: AJUNOK_clean_linker_0, # of connection points: 2
#     Edge 106, Type (0, 1), BuildingBlock: AJUNOK_clean_linker_0, # of connection points: 2
#     Edge 107, Type (0, 1), BuildingBlock: AJUNOK_clean_linker_0, # of connection points: 2
# Relax obj value: 0.043
# Max RMSD: 0.108
# Mean RMSD: 0.075
data_MOF--net-ptr--node1-QUQFOY_clean_sbu_3--node2-GIZVER_clean_linker_0--edge1-AJUNOK_clean_linker_0
_symmetry_space_group_name_H-M    P1
_symmetry_Int_Tables_number       1
_symmetry_cell_setting            triclinic
loop_
_symmetry_equiv_pos_as_xyz
'x, y, z'
_cell_length_a     60.152258
_cell_length_b     60.401704
_cell_length_c     37.551919
_cell_angle_alpha  90.677029
_cell_angle_beta   90.017782
_cell_angle_gamma 120.60034
loop_
_atom_site_label
_atom_site_type_symbol
_atom_site_fract_x
_atom_site_fract_y
_atom_site_fract_z
_atom_type_partial_charge
C0 C 0.95148 0.33449 -0.00485 0.0
O1 O 0.94234 0.34882 0.0029 0.0
Cd2 Cd 0.96911 0.39354 0.01901 0.0
O3 O 0.97585 0.34377 -0.00566 0.0
Cd4 Cd 0.01689 0.38517 0.00475 0.0
C5 C 0.00425 0.41794 0.94283 0.0
O6 O 0.00063 0.39438 0.05882 0.0
O7 O 0.03861 0.42394 0.04316 0.0
O8 O 0.03246 0.35634 0.02057 0.0
C9 C 0.02052 0.41596 0.06562 0.0
O10 O 0.98766 0.4176 0.96423 0.0
C11 C 0.05488 0.36996 0.00766 0.0
O12 O 0.01603 0.40601 0.95006 0.0
O13 O 0.05963 0.39062 -0.00738 0.0
C14 C 0.61753 0.68243 0.00137 0.0
O15 O 0.59383 0.67043 -0.00749 0.0
Cd16 Cd 0.57147 0.62527 0.97756 0.0
O17 O 0.63012 0.67068 0.00203 0.0
Cd18 Cd 0.62389 0.62739 -0.01029 0.0
C19 C 0.57882 0.59934 0.05404 0.0
O20 O 0.59771 0.61839 0.93527 0.0
O21 O 0.60136 0.58715 0.95546 0.0
O22 O 0.66854 0.65083 0.96888 0.0
C23 C 0.59341 0.59568 0.93094 0.0
O24 O 0.56352 0.6022 0.03375 0.0
C25 C 0.67559 0.63685 0.98446 0.0
O26 O 0.60221 0.60803 0.04521 0.0
O27 O 0.65872 0.61875 0.00322 0.0
C28 C 0.32666 0.94103 -0.00928 0.0
O29 O 0.3388 0.93119 0.97628 0.0
Cd30 Cd 0.38383 0.95403 0.96301 0.0
O31 O 0.33814 0.96503 -0.00171 0.0
Cd32 Cd 0.38087 0.00509 -0.00735 0.0
C33 C 0.40615 0.97913 0.0477 0.0
O34 O 0.38959 0.99198 0.93682 0.0
O35 O 0.42129 0.02741 0.95745 0.0
O36 O 0.35572 0.0251 0.97906 0.0
C37 C 0.41244 0.0104 0.93298 0.0
O38 O 0.40357 0.96376 0.02236 0.0
C39 C 0.36957 0.04555 -0.00287 0.0
O40 O 0.39884 0.99544 0.04417 0.0
O41 O 0.38835 0.04684 0.01446 0.0
C42 C 0.93451 0.60283 0.00032 0.0
O43 O 0.92512 0.57976 0.01031 0.0
Cd44 Cd 0.951 0.56139 0.02499 0.0
O45 O 0.95889 0.61768 -0.00196 0.0
Cd46 Cd 0.99914 0.61691 0.00958 0.0
C47 C 0.98403 0.57011 0.94738 0.0
O48 O 0.98423 0.5922 0.06423 0.0
O49 O 0.02081 0.59927 0.04428 0.0
O50 O 0.01768 0.6617 0.02871 0.0
C51 C 0.00407 0.59032 0.06867 0.0
O52 O 0.9666 0.55425 0.96815 0.0
C53 C 0.03897 0.66997 0.01258 0.0
O54 O 0.99745 0.5939 0.9555 0.0
O55 O 0.04146 0.65365 -0.00592 0.0
C56 C 0.32402 0.38761 0.01274 0.0
O57 O 0.3362 0.41082 0.00269 0.0
Cd58 Cd 0.38099 0.43214 0.98707 0.0
O59 O 0.3355 0.37486 0.01548 0.0
Cd60 Cd 0.37843 0.37995 0.0057 0.0
C61 C 0.4079 0.4287 0.06568 0.0
O62 O 0.38602 0.40254 0.9495 0.0
O63 O 0.41811 0.40067 0.97151 0.0
O64 O 0.35443 0.33468 0.98779 0.0
C65 C 0.40874 0.40666 0.94573 0.0
O66 O 0.40528 0.44275 0.04305 0.0
C67 C 0.36927 0.32857 0.00328 0.0
O68 O 0.39855 0.40479 0.05958 0.0
O69 O 0.3879 0.34619 0.02124 0.0
C70 C 0.67844 0.06775 0.00338 0.0
O71 O 0.6635 0.07625 0.01065 0.0
Cd72 Cd 0.6189 0.04829 0.02658 0.0
O73 O 0.66989 0.04364 0.00359 0.0
Cd74 Cd 0.62858 0.0032 0.01552 0.0
C75 C 0.59446 0.01193 0.95109 0.0
O76 O 0.61669 0.01807 0.06984 0.0
O77 O 0.58787 0.98147 0.0478 0.0
O78 O 0.65604 0.98709 0.03704 0.0
C79 C 0.59481 0.99779 0.07302 0.0
O80 O 0.5938 0.02828 0.97208 0.0
C81 C 0.64357 0.96525 0.02164 0.0
O82 O 0.6077 0.00164 0.95916 0.0
O83 O 0.62428 0.96111 0.00279 0.0
C84 C 0.61859 0.67418 0.32494 0.0
O85 O 0.61099 0.68972 0.33303 0.0
Cd86 Cd 0.64014 0.73397 0.34949 0.0
O87 O 0.64266 0.68187 0.32486 0.0
Cd88 Cd 0.68438 0.72258 0.33688 0.0
C89 C 0.67506 0.75659 0.27355 0.0
O90 O 0.67015 0.73404 0.39186 0.0
O91 O 0.70806 0.76204 0.37296 0.0
O92 O 0.6994 0.69358 0.3547 0.0
C93 C 0.69114 0.75502 0.39697 0.0
O94 O 0.6593 0.75785 0.29489 0.0
C95 C 0.72178 0.70672 0.34146 0.0
O96 O 0.68532 0.74331 0.28127 0.0
O97 O 0.72658 0.7269 0.32501 0.0
C98 C 0.28706 0.01736 0.33637 0.0
O99 O 0.26361 0.00679 0.32656 0.0
Cd100 Cd 0.23961 0.96158 0.3116 0.0
O101 O 0.29813 0.00417 0.33772 0.0
Cd102 Cd 0.2901 0.96033 0.32479 0.0
C103 C 0.2445 0.93431 0.38869 0.0
O104 O 0.26476 0.95274 0.26986 0.0
O105 O 0.26621 0.92034 0.29048 0.0
O106 O 0.33438 0.98382 0.30344 0.0
C107 C 0.25936 0.92965 0.26563 0.0
O108 O 0.23028 0.93831 0.36778 0.0
C109 C 0.34169 0.96967 0.31781 0.0
O110 O 0.26771 0.94151 0.3804 0.0
O111 O 0.32499 0.95104 0.3361 0.0
C112 C 0.9919 0.27405 0.32753 0.0
O113 O 0.00568 0.26546 0.31487 0.0
Cd114 Cd 0.05012 0.29136 0.29921 0.0
O115 O 0.00149 0.29813 0.33288 0.0
Cd116 Cd 0.04331 0.33877 0.32492 0.0
C117 C 0.07294 0.31861 0.38131 0.0
O118 O 0.05115 0.32589 0.26822 0.0
O119 O 0.08402 0.35983 0.28979 0.0
O120 O 0.0175 0.35819 0.31148 0.0
C121 C 0.07404 0.34406 0.26394 0.0
O122 O 0.07375 0.30476 0.3561 0.0
C123 C 0.0318 0.37915 0.32828 0.0
O124 O 0.06124 0.33105 0.37769 0.0
O125 O 0.05122 0.38108 0.34461 0.0
C126 C 0.60508 0.9339 0.33503 0.0
O127 O 0.5954 0.91052 0.34368 0.0
Cd128 Cd 0.62084 0.89146 0.35691 0.0
O129 O 0.62951 0.9486 0.33317 0.0
Cd130 Cd 0.66935 0.94682 0.34378 0.0
C131 C 0.65427 0.90137 0.2795 0.0
O132 O 0.6534 0.92145 0.39771 0.0
O133 O 0.69018 0.92839 0.37889 0.0
O134 O 0.68825 0.99168 0.36283 0.0
C135 C 0.67307 0.9194 0.4028 0.0
O136 O 0.63656 0.88513 0.29958 0.0
C137 C 0.70983 0.99958 0.34769 0.0
O138 O 0.66782 0.92491 0.28876 0.0
O139 O 0.71237 0.98304 0.32985 0.0
C140 C 0.9951 0.72274 0.34491 0.0
O141 O 0.0091 0.7465 0.33812 0.0
Cd142 Cd 0.05392 0.76611 0.32267 0.0
O143 O 0.00478 0.70825 0.34523 0.0
Cd144 Cd 0.04708 0.71185 0.33541 0.0
C145 C 0.07884 0.7575 0.39898 0.0
O146 O 0.05635 0.73684 0.28115 0.0
O147 O 0.08702 0.73185 0.30131 0.0
O148 O 0.02278 0.66679 0.31603 0.0
C149 C 0.07847 0.7396 0.27657 0.0
O150 O 0.07875 0.77373 0.37779 0.0
C151 C 0.03722 0.66033 0.3319 0.0
O152 O 0.06693 0.7337 0.39078 0.0
O153 O 0.05564 0.67761 0.35047 0.0
C154 C 0.34816 0.40496 0.33846 0.0
O155 O 0.33337 0.41337 0.34709 0.0
Cd156 Cd 0.28887 0.38571 0.36343 0.0
O157 O 0.33961 0.38082 0.33809 0.0
Cd158 Cd 0.29833 0.34021 0.35075 0.0
C159 C 0.26361 0.34942 0.28775 0.0
O160 O 0.28685 0.35502 0.40536 0.0
O161 O 0.25753 0.31875 0.38308 0.0
O162 O 0.32579 0.3239 0.37187 0.0
C163 C 0.26475 0.33503 0.4084 0.0
O164 O 0.26337 0.36578 0.3092 0.0
C165 C 0.31299 0.30195 0.35684 0.0
O166 O 0.27684 0.33895 0.29497 0.0
O167 O 0.2935 0.29781 0.33845 0.0
C168 C 0.28628 0.007 0.66106 0.0
O169 O 0.27851 0.02256 0.66817 0.0
Cd170 Cd 0.3073 0.06669 0.68533 0.0
O171 O 0.31033 0.01466 0.66185 0.0
Cd172 Cd 0.35212 0.05492 0.67472 0.0
C173 C 0.34378 0.08907 0.61031 0.0
O174 O 0.33636 0.06571 0.72841 0.0
O175 O 0.37469 0.09403 0.71212 0.0
O176 O 0.36629 0.02528 0.69278 0.0
C177 C 0.35702 0.0867 0.73513 0.0
O178 O 0.32756 0.09026 0.63081 0.0
C179 C 0.38884 0.03821 0.67995 0.0
O180 O 0.35409 0.07602 0.61905 0.0
O181 O 0.39421 0.05872 0.66397 0.0
C182 C 0.95044 0.34626 0.6731 0.0
O183 O 0.92631 0.33236 0.66737 0.0
Cd184 Cd 0.90641 0.28729 0.65198 0.0
O185 O 0.96476 0.33638 0.6721 0.0
Cd186 Cd 0.96083 0.29406 0.66091 0.0
C187 C 0.91772 0.26321 0.7268 0.0
O188 O 0.93328 0.28332 0.60769 0.0
O189 O 0.93992 0.25368 0.62675 0.0
O190 O 0.00512 0.3197 0.63931 0.0
C191 C 0.93059 0.26128 0.60285 0.0
O192 O 0.90069 0.26325 0.70672 0.0
C193 C 0.01339 0.3065 0.65422 0.0
O194 O 0.94127 0.27478 0.71743 0.0
O195 O 0.99729 0.28767 0.6727 0.0
C196 C 0.65377 0.60397 0.65561 0.0
O197 O 0.6671 0.59459 0.64381 0.0
Cd198 Cd 0.71213 0.61866 0.62982 0.0
O199 O 0.66408 0.62813 0.661 0.0
Cd200 Cd 0.70642 0.66815 0.65497 0.0
C201 C 0.73367 0.6455 0.71247 0.0
O202 O 0.71573 0.65458 0.59973 0.0
O203 O 0.74696 0.69048 0.61985 0.0
O204 O 0.68145 0.68833 0.64097 0.0
C205 C 0.73839 0.67326 0.59565 0.0
O206 O 0.734 0.63104 0.6878 0.0
C207 C 0.69515 0.70858 0.65952 0.0
O208 O 0.7233 0.65912 0.70798 0.0
O209 O 0.71388 0.70976 0.67685 0.0
C210 C 0.2655 0.26516 0.67134 0.0
O211 O 0.25594 0.24208 0.68133 0.0
Cd212 Cd 0.28234 0.22398 0.69432 0.0
O213 O 0.28988 0.2797 0.66853 0.0
Cd214 Cd 0.32989 0.27844 0.67891 0.0
C215 C 0.31354 0.23245 0.61524 0.0
O216 O 0.31581 0.25417 0.73429 0.0
O217 O 0.3516 0.26041 0.71231 0.0
O218 O 0.34842 0.32324 0.69793 0.0
C219 C 0.33587 0.25254 0.73795 0.0
O220 O 0.29645 0.21657 0.63634 0.0
C221 C 0.36984 0.33145 0.68219 0.0
O222 O 0.32752 0.25609 0.62383 0.0
O223 O 0.37243 0.31511 0.66392 0.0
C224 C 0.65822 0.05063 0.67696 0.0
O225 O 0.6698 0.07393 0.66727 0.0
Cd226 Cd 0.71477 0.09667 0.65249 0.0
O227 O 0.67039 0.03854 0.67937 0.0
Cd228 Cd 0.71375 0.04454 0.66911 0.0
C229 C 0.74214 0.09249 0.73044 0.0
O230 O 0.72081 0.06813 0.61403 0.0
O231 O 0.75319 0.06597 0.6342 0.0
O232 O 0.68948 0.99941 0.65101 0.0
C233 C 0.74368 0.07285 0.60961 0.0
O234 O 0.73854 0.10653 0.70892 0.0
C235 C 0.7044 0.9931 0.66575 0.0
O236 O 0.73372 0.06888 0.7233 0.0
O237 O 0.72363 0.01069 0.68286 0.0
C238 C 0.01593 0.73532 0.67035 0.0
O239 O 0.00195 0.74488 0.67789 0.0
Cd240 Cd 0.9567 0.71849 0.6917 0.0
O241 O 0.00607 0.71096 0.66998 0.0
Cd242 Cd 0.96368 0.67134 0.68144 0.0
C243 C 0.93199 0.68227 0.61575 0.0
O244 O 0.95212 0.6873 0.73482 0.0
O245 O 0.92242 0.65112 0.71279 0.0
O246 O 0.98961 0.65385 0.70427 0.0
C247 C 0.92968 0.66776 0.73766 0.0
O248 O 0.93232 0.69934 0.63633 0.0
C249 C 0.97671 0.63201 0.68898 0.0
O250 O 0.94379 0.67065 0.62461 0.0
O251 O 0.95785 0.62845 0.66961 0.0
H252 H 0.14221 0.31935 0.15426 0.0
H253 H 0.13816 0.3255 0.04036 0.0
H254 H 0.10997 0.36211 0.11082 0.0
H255 H 0.14371 0.2876 0.1091 0.0
H256 H 0.15194 0.29751 0.064 0.0
H257 H 0.17572 0.31009 0.15854 0.0
H258 H 0.25543 0.35437 0.12838 0.0
H259 H 0.19619 0.32947 0.04837 0.0
C260 C 0.13848 0.32772 0.13133 0.0
C261 C 0.12672 0.34237 0.13626 0.0
C262 C 0.14353 0.32219 0.09679 0.0
C263 C 0.13593 0.33097 0.06712 0.0
C264 C 0.12419 0.34576 0.07225 0.0
C265 C 0.12036 0.35194 0.10682 0.0
C266 C 0.15446 0.30474 0.09196 0.0
C267 C 0.18266 0.31853 0.10233 0.0
C268 C 0.19019 0.31969 0.13822 0.0
C269 C 0.21645 0.33266 0.14774 0.0
C270 C 0.23507 0.34446 0.12129 0.0
C271 C 0.22785 0.34324 0.08565 0.0
C272 C 0.20169 0.33045 0.0761 0.0
H273 H 0.70904 0.83662 0.13874 0.0
H274 H 0.67668 0.81144 0.0332 0.0
H275 H 0.66347 0.75613 0.11362 0.0
H276 H 0.72391 0.8671 0.0869 0.0
H277 H 0.70695 0.85685 0.04519 0.0
H278 H 0.69007 0.85941 0.14296 0.0
H279 H 0.65022 0.89916 0.11989 0.0
H280 H 0.68561 0.88019 0.03471 0.0
C281 C 0.69712 0.82141 0.11991 0.0
C282 C 0.68562 0.79579 0.13068 0.0
C283 C 0.69314 0.8274 0.08519 0.0
C284 C 0.67928 0.80723 0.06034 0.0
C285 C 0.66934 0.7816 0.07048 0.0
C286 C 0.67211 0.77604 0.10566 0.0
C287 C 0.70445 0.85521 0.07457 0.0
C288 C 0.68792 0.86622 0.08676 0.0
C289 C 0.6826 0.86677 0.12321 0.0
C290 C 0.66849 0.87798 0.13494 0.0
C291 C 0.66009 0.88939 0.11046 0.0
C292 C 0.66656 0.89058 0.07449 0.0
C293 C 0.68021 0.87877 0.06249 0.0
H294 H 0.16677 0.79704 0.15489 0.0
H295 H 0.15285 0.78028 0.04259 0.0
H296 H 0.08997 0.74703 0.11684 0.0
H297 H 0.20103 0.79997 0.11201 0.0
H298 H 0.19601 0.80019 0.06535 0.0
H299 H 0.1988 0.83628 0.15087 0.0
H300 H 0.25001 0.90899 0.10476 0.0
H301 H 0.21642 0.84066 0.03918 0.0
C302 C 0.15359 0.78863 0.13261 0.0
C303 C 0.12719 0.77311 0.13935 0.0
C304 C 0.16304 0.79201 0.09769 0.0
C305 C 0.14562 0.77882 0.0694 0.0
C306 C 0.11916 0.76231 0.07614 0.0
C307 C 0.11014 0.76036 0.11106 0.0
C308 C 0.19185 0.80602 0.09159 0.0
C309 C 0.20456 0.83503 0.09416 0.0
C310 C 0.20737 0.84741 0.1273 0.0
C311 C 0.22283 0.87423 0.13089 0.0
C312 C 0.23607 0.88868 0.10115 0.0
C313 C 0.23396 0.87678 0.068 0.0
C314 C 0.21753 0.85002 0.06447 0.0
H315 H 0.37519 0.20417 0.86085 0.0
H316 H 0.38336 0.22603 0.97185 0.0
H317 H 0.34661 0.2518 0.89847 0.0
H318 H 0.41389 0.21061 0.90535 0.0
H319 H 0.40497 0.20491 0.95091 0.0
H320 H 0.38764 0.17636 0.85822 0.0
H321 H 0.35404 0.09929 0.89487 0.0
H322 H 0.37947 0.16149 0.97088 0.0
C323 C 0.37136 0.2132 0.88299 0.0
C324 C 0.35889 0.22697 0.87622 0.0
C325 C 0.37998 0.21232 0.9175 0.0
C326 C 0.37599 0.22573 0.94541 0.0
C327 C 0.36389 0.24003 0.93876 0.0
C328 C 0.35492 0.23995 0.90425 0.0
C329 C 0.39698 0.20084 0.92332 0.0
C330 C 0.38341 0.17221 0.91544 0.0
C331 C 0.38038 0.16304 0.88003 0.0
C332 C 0.36878 0.13666 0.87257 0.0
C333 C 0.3614 0.11949 0.90076 0.0
C334 C 0.36579 0.12826 0.93623 0.0
C335 C 0.37602 0.15459 0.94352 0.0
H336 H 0.86599 0.18077 0.85857 0.0
H337 H 0.8689 0.20538 0.96789 0.0
H338 H 0.90706 0.26096 0.8858 0.0
H339 H 0.85662 0.15076 0.91224 0.0
H340 H 0.85076 0.16028 0.95477 0.0
H341 H 0.82673 0.14687 0.85917 0.0
H342 H 0.74768 0.1149 0.88859 0.0
H343 H 0.80666 0.14524 0.96983 0.0
C344 C 0.87134 0.19579 0.87839 0.0
C345 C 0.88655 0.22147 0.86809 0.0
C346 C 0.86414 0.18964 0.91432 0.0
C347 C 0.87332 0.20971 0.93997 0.0
C348 C 0.88891 0.2354 0.92956 0.0
C349 C 0.89498 0.24107 0.89371 0.0
C350 C 0.84869 0.16179 0.9256 0.0
C351 C 0.82039 0.14933 0.91552 0.0
C352 C 0.81268 0.14317 0.87963 0.0
C353 C 0.78661 0.1314 0.86992 0.0
C354 C 0.76796 0.12503 0.89614 0.0
C355 C 0.77497 0.12944 0.93217 0.0
C356 C 0.80125 0.14197 0.9419 0.0
H357 H 0.83043 0.63231 0.84441 0.0
H358 H 0.83314 0.61121 0.95287 0.0
H359 H 0.90263 0.65061 0.89176 0.0
H360 H 0.79257 0.59068 0.87943 0.0
H361 H 0.79251 0.59523 0.92621 0.0
H362 H 0.78685 0.61845 0.83757 0.0
H363 H 0.74845 0.65653 0.8788 0.0
H364 H 0.77976 0.62439 0.95085 0.0
C365 C 0.84134 0.63311 0.86779 0.0
C366 C 0.86826 0.64446 0.86531 0.0
C367 C 0.82847 0.62152 0.89963 0.0
C368 C 0.84294 0.6212 0.92886 0.0
C369 C 0.86977 0.63191 0.92633 0.0
C370 C 0.88223 0.64387 0.89472 0.0
C371 C 0.79929 0.60575 0.9007 0.0
C372 C 0.78665 0.62156 0.89491 0.0
C373 C 0.78142 0.62604 0.86007 0.0
C374 C 0.76747 0.63847 0.85418 0.0
C375 C 0.75937 0.64706 0.88344 0.0
C376 C 0.76256 0.64106 0.91831 0.0
C377 C 0.77713 0.62913 0.92402 0.0
H378 H 0.81117 0.6537 0.48367 0.0
H379 H 0.80675 0.66461 0.37118 0.0
H380 H 0.77634 0.69594 0.44708 0.0
H381 H 0.81374 0.62459 0.43453 0.0
H382 H 0.82222 0.63705 0.39059 0.0
H383 H 0.84496 0.6463 0.48597 0.0
H384 H 0.92491 0.69048 0.45765 0.0
H385 H 0.86664 0.66854 0.37675 0.0
C386 C 0.80688 0.66261 0.46199 0.0
C387 C 0.7942 0.67616 0.46937 0.0
C388 C 0.81243 0.6591 0.4267 0.0
C389 C 0.80422 0.66863 0.3986 0.0
C390 C 0.79147 0.68219 0.40608 0.0
C391 C 0.78735 0.6866 0.44145 0.0
C392 C 0.82429 0.64271 0.41925 0.0
C393 C 0.85242 0.65645 0.43021 0.0
C394 C 0.85957 0.65645 0.46603 0.0
C395 C 0.88571 0.66878 0.47591 0.0
C396 C 0.90466 0.68121 0.45011 0.0
C397 C 0.89789 0.68105 0.4145 0.0
C398 C 0.8718 0.66884 0.40448 0.0
H399 H 0.3734 0.17055 0.47842 0.0
H400 H 0.34309 0.14531 0.37192 0.0
H401 H 0.33433 0.09035 0.45044 0.0
H402 H 0.38777 0.20143 0.42733 0.0
H403 H 0.3721 0.19086 0.38482 0.0
H404 H 0.34979 0.18956 0.48078 0.0
H405 H 0.31198 0.23099 0.45517 0.0
H406 H 0.35192 0.21502 0.37326 0.0
C407 C 0.36282 0.15531 0.45898 0.0
C408 C 0.35369 0.12978 0.46868 0.0
C409 C 0.35849 0.16118 0.42436 0.0
C410 C 0.34595 0.14111 0.39894 0.0
C411 C 0.33793 0.11568 0.40824 0.0
C412 C 0.34143 0.11017 0.44312 0.0
C413 C 0.36878 0.18891 0.41405 0.0
C414 C 0.35101 0.19878 0.42484 0.0
C415 C 0.34359 0.19788 0.46064 0.0
C416 C 0.32909 0.20894 0.47132 0.0
C417 C 0.3221 0.22132 0.44639 0.0
C418 C 0.33052 0.22381 0.41116 0.0
C419 C 0.3448 0.2124 0.4003 0.0
H420 H 0.83406 0.1291 0.49199 0.0
H421 H 0.824 0.10862 0.38046 0.0
H422 H 0.75848 0.07912 0.45005 0.0
H423 H 0.86931 0.12874 0.45281 0.0
H424 H 0.86639 0.12937 0.40572 0.0
H425 H 0.87074 0.16554 0.49101 0.0
H426 H 0.91762 0.23858 0.44289 0.0
H427 H 0.88444 0.16984 0.37809 0.0
C428 C 0.82168 0.12021 0.46906 0.0
C429 C 0.79498 0.10566 0.4741 0.0
C430 C 0.83238 0.12201 0.4352 0.0
C431 C 0.81588 0.10823 0.40635 0.0
C432 C 0.78909 0.09253 0.41154 0.0
C433 C 0.77889 0.09204 0.4453 0.0
C434 C 0.86137 0.13526 0.43125 0.0
C435 C 0.87447 0.16427 0.43381 0.0
C436 C 0.8781 0.17668 0.4671 0.0
C437 C 0.89262 0.20357 0.47016 0.0
C438 C 0.90437 0.21806 0.43983 0.0
C439 C 0.90174 0.20611 0.40659 0.0
C440 C 0.88609 0.17923 0.40355 0.0
H441 H 0.04457 0.53943 0.1858 0.0
H442 H 0.05213 0.55847 0.29785 0.0
H443 H 0.01347 0.58393 0.22741 0.0
H444 H 0.08186 0.54317 0.2281 0.0
H445 H 0.07494 0.53903 0.27449 0.0
H446 H 0.05331 0.5081 0.18384 0.0
H447 H 0.01651 0.43183 0.2245 0.0
H448 H 0.04801 0.49632 0.29732 0.0
C449 C 0.04014 0.54747 0.20865 0.0
C450 C 0.02636 0.56012 0.20339 0.0
C451 C 0.049 0.54616 0.24282 0.0
C452 C 0.0446 0.55857 0.27167 0.0
C453 C 0.03186 0.57239 0.26627 0.0
C454 C 0.02231 0.57243 0.23223 0.0
C455 C 0.0658 0.5344 0.24758 0.0
C456 C 0.05095 0.50561 0.24135 0.0
C457 C 0.04612 0.49542 0.20639 0.0
C458 C 0.03264 0.46879 0.20033 0.0
C459 C 0.02509 0.45233 0.22937 0.0
C460 C 0.03072 0.46201 0.26437 0.0
C461 C 0.04327 0.48871 0.27034 0.0
H462 H 0.53178 0.52 0.18874 0.0
H463 H 0.53829 0.54592 0.29795 0.0
H464 H 0.56652 0.60029 0.21272 0.0
H465 H 0.52729 0.49171 0.24325 0.0
H466 H 0.52135 0.50091 0.28599 0.0
H467 H 0.49497 0.48386 0.19155 0.0
H468 H 0.41634 0.4491 0.22423 0.0
H469 H 0.47697 0.48369 0.30298 0.0
C470 C 0.53662 0.5351 0.20824 0.0
C471 C 0.54842 0.56055 0.19669 0.0
C472 C 0.53156 0.52934 0.24468 0.0
C473 C 0.54065 0.54982 0.26968 0.0
C474 C 0.55346 0.57542 0.2581 0.0
C475 C 0.55649 0.58052 0.22165 0.0
C476 C 0.51833 0.50166 0.25691 0.0
C477 C 0.48967 0.48707 0.24815 0.0
C478 C 0.48127 0.47984 0.21263 0.0
C479 C 0.45497 0.46689 0.20407 0.0
C480 C 0.43676 0.45989 0.23098 0.0
C481 C 0.44451 0.46539 0.26665 0.0
C482 C 0.47099 0.47936 0.27533 0.0
H483 H 0.49995 0.96621 0.18632 0.0
H484 H 0.50451 0.94594 0.29464 0.0
H485 H 0.57223 0.98203 0.22952 0.0
H486 H 0.4624 0.92368 0.2254 0.0
H487 H 0.46342 0.93174 0.27113 0.0
H488 H 0.4593 0.95168 0.17836 0.0
H489 H 0.41376 0.98436 0.20996 0.0
H490 H 0.44553 0.95757 0.28963 0.0
C491 C 0.51097 0.96663 0.20916 0.0
C492 C 0.53754 0.97642 0.20485 0.0
C493 C 0.49872 0.95591 0.24171 0.0
C494 C 0.51377 0.95542 0.27011 0.0
C495 C 0.54038 0.96515 0.26605 0.0
C496 C 0.5521 0.97608 0.23361 0.0
C497 C 0.46945 0.94029 0.24426 0.0
C498 C 0.45592 0.95489 0.23518 0.0
C499 C 0.45202 0.95861 0.19935 0.0
C500 C 0.43757 0.97 0.19021 0.0
C501 C 0.42631 0.97709 0.2172 0.0
C502 C 0.42881 0.97246 0.25305 0.0
C503 C 0.44403 0.96174 0.26204 0.0
H504 H 0.47759 0.9827 0.81887 0.0
H505 H 0.46961 0.99072 0.70636 0.0
H506 H 0.44642 0.02832 0.78292 0.0
H507 H 0.47627 0.95089 0.76968 0.0
H508 H 0.48461 0.96274 0.7254 0.0
H509 H 0.50843 0.97204 0.82014 0.0
H510 H 0.58823 0.01442 0.79051 0.0
H511 H 0.5295 0.99248 0.71035 0.0
C512 C 0.4734 0.99161 0.79712 0.0
C513 C 0.463 0.00722 0.80482 0.0
C514 C 0.47705 0.98645 0.76164 0.0
C515 C 0.46865 0.99597 0.73377 0.0
C516 C 0.45781 0.01127 0.74155 0.0
C517 C 0.45592 0.01751 0.77696 0.0
C518 C 0.48738 0.96872 0.75396 0.0
C519 C 0.51559 0.98127 0.76415 0.0
C520 C 0.52296 0.98159 0.79992 0.0
C521 C 0.54914 0.99386 0.80962 0.0
C522 C 0.56793 0.00508 0.78329 0.0
C523 C 0.56093 0.00438 0.74765 0.0
C524 C 0.53482 0.99281 0.73802 0.0
H525 H 0.03618 0.49967 0.81033 0.0
H526 H 0.00534 0.47542 0.70391 0.0
H527 H 0.98993 0.4194 0.78424 0.0
H528 H 0.05233 0.53035 0.75875 0.0
H529 H 0.03602 0.52054 0.71656 0.0
H530 H 0.01835 0.52378 0.81369 0.0
H531 H 0.98043 0.56513 0.78854 0.0
H532 H 0.0153 0.5443 0.7048 0.0
C533 C 0.02429 0.48464 0.79126 0.0
C534 C 0.01249 0.45891 0.80167 0.0
C535 C 0.02094 0.49093 0.75641 0.0
C536 C 0.00725 0.47096 0.73121 0.0
C537 C 0.99649 0.44519 0.74126 0.0
C538 C 0.99872 0.43937 0.7765 0.0
C539 C 0.03301 0.51885 0.74586 0.0
C540 C 0.01684 0.53042 0.75728 0.0
C541 C 0.01134 0.53135 0.79357 0.0
C542 C 0.99772 0.54325 0.80462 0.0
C543 C 0.9899 0.55484 0.77961 0.0
C544 C 0.9965 0.55559 0.74377 0.0
C545 C 0.00974 0.54318 0.73246 0.0
H546 H 0.49647 0.46243 0.82331 0.0
H547 H 0.48341 0.44176 0.71196 0.0
H548 H 0.42007 0.41036 0.78551 0.0
H549 H 0.53088 0.46299 0.78205 0.0
H550 H 0.52645 0.4628 0.73519 0.0
H551 H 0.53137 0.50002 0.82001 0.0
H552 H 0.57945 0.5722 0.77037 0.0
H553 H 0.54459 0.50274 0.70709 0.0
C554 C 0.48346 0.45305 0.80112 0.0
C555 C 0.45708 0.43741 0.80781 0.0
C556 C 0.49318 0.45522 0.76654 0.0
C557 C 0.47599 0.44109 0.73846 0.0
C558 C 0.44948 0.42473 0.74512 0.0
C559 C 0.44023 0.42369 0.7797 0.0
C560 C 0.52205 0.46894 0.76099 0.0
C561 C 0.53485 0.49796 0.76287 0.0
C562 C 0.53878 0.51083 0.79587 0.0
C563 C 0.55387 0.53775 0.79841 0.0
C564 C 0.56573 0.55176 0.76775 0.0
C565 C 0.56266 0.53932 0.73478 0.0
C566 C 0.54648 0.51249 0.73231 0.0
H567 H 0.71215 0.86998 0.52407 0.0
H568 H 0.72091 0.89281 0.63484 0.0
H569 H 0.68107 0.9154 0.56219 0.0
H570 H 0.75093 0.87663 0.5686 0.0
H571 H 0.74184 0.87077 0.61418 0.0
H572 H 0.72685 0.84269 0.52162 0.0
H573 H 0.68682 0.76507 0.55773 0.0
H574 H 0.71279 0.82727 0.63381 0.0
C575 C 0.70794 0.87873 0.54628 0.0
C576 C 0.69418 0.89126 0.53984 0.0
C577 C 0.7171 0.87849 0.58068 0.0
C578 C 0.7129 0.89175 0.60859 0.0
C579 C 0.69946 0.90475 0.60221 0.0
C580 C 0.69 0.9041 0.56786 0.0
C581 C 0.73398 0.86693 0.58652 0.0
C582 C 0.71991 0.83834 0.57847 0.0
C583 C 0.71794 0.82928 0.54315 0.0
C584 C 0.70569 0.80286 0.53569 0.0
C585 C 0.69552 0.78546 0.56359 0.0
C586 C 0.69828 0.79403 0.59902 0.0
C587 C 0.71018 0.82052 0.60641 0.0
H588 H 0.19706 0.85414 0.52236 0.0
H589 H 0.20626 0.87971 0.63205 0.0
H590 H 0.23081 0.93416 0.5471 0.0
H591 H 0.19767 0.82737 0.57751 0.0
H592 H 0.19037 0.83533 0.62009 0.0
H593 H 0.16476 0.8147 0.52625 0.0
H594 H 0.08603 0.77213 0.55941 0.0
H595 H 0.14551 0.81656 0.63674 0.0
C596 C 0.202 0.86908 0.54213 0.0
C597 C 0.21294 0.89451 0.5308 0.0
C598 C 0.19824 0.86324 0.5787 0.0
C599 C 0.20752 0.88364 0.6038 0.0
C600 C 0.21945 0.90925 0.59242 0.0
C601 C 0.22125 0.91439 0.55598 0.0
C602 C 0.18713 0.83576 0.591 0.0
C603 C 0.15861 0.81884 0.58226 0.0
C604 C 0.1507 0.80978 0.54711 0.0
C605 C 0.1246 0.79326 0.53885 0.0
C606 C 0.10627 0.78512 0.56582 0.0
C607 C 0.11366 0.79314 0.60107 0.0
C608 C 0.13979 0.81041 0.60935 0.0
H609 H 0.1654 0.29883 0.51387 0.0
H610 H 0.16561 0.2758 0.62201 0.0
H611 H 0.2362 0.31451 0.56303 0.0
H612 H 0.12582 0.25778 0.54759 0.0
H613 H 0.12549 0.2619 0.5945 0.0
H614 H 0.12279 0.28732 0.50637 0.0
H615 H 0.08888 0.32977 0.54746 0.0
H616 H 0.11438 0.2922 0.61927 0.0
C617 C 0.17573 0.29888 0.53745 0.0
C618 C 0.20259 0.30961 0.53572 0.0
C619 C 0.16221 0.28711 0.56882 0.0
C620 C 0.17593 0.28588 0.59833 0.0
C621 C 0.20271 0.29601 0.59655 0.0
C622 C 0.21585 0.30817 0.56539 0.0
C623 C 0.133 0.2726 0.56924 0.0
C624 C 0.12205 0.28992 0.56354 0.0
C625 C 0.11825 0.29573 0.52876 0.0
C626 C 0.10675 0.31056 0.52275 0.0
C627 C 0.09877 0.31927 0.55209 0.0
C628 C 0.10058 0.31208 0.58688 0.0
C629 C 0.11309 0.2981 0.59257 0.0
C630 C 0.04655 0.45222 0.10853 0.0
C631 C 0.02257 0.43091 0.09826 0.0
C632 C 0.04943 0.46536 0.14082 0.0
C633 C 0.02842 0.45767 0.16388 0.0
H634 H 0.06344 0.4583 0.09212 0.0
H635 H 0.06847 0.48088 0.1485 0.0
S636 S 0.96091 0.40537 0.1475 0.0
N637 N 0.97692 0.4043 0.11245 0.0
N638 N 0.98244 0.42915 0.17292 0.0
C639 C 0.0041 0.43732 0.15311 0.0
C640 C 0.00114 0.4239 0.12036 0.0
C641 C 0.54933 0.58777 0.10625 0.0
C642 C 0.56962 0.58684 0.08895 0.0
C643 C 0.54186 0.57826 0.14074 0.0
C644 C 0.55399 0.56697 0.15874 0.0
H645 H 0.53984 0.59683 0.09367 0.0
H646 H 0.52693 0.58031 0.1538 0.0
S647 S 0.60658 0.55791 0.12454 0.0
N648 N 0.60075 0.57246 0.09197 0.0
N649 N 0.58623 0.55421 0.15662 0.0
C650 C 0.57345 0.56487 0.14133 0.0
C651 C 0.5814 0.57491 0.10646 0.0
C652 C 0.42666 0.99795 0.10673 0.0
C653 C 0.41641 0.97706 0.08253 0.0
C654 C 0.43443 0.99579 0.14102 0.0
C655 C 0.43207 0.97261 0.1525 0.0
H656 H 0.42837 0.01604 0.09934 0.0
H657 H 0.44188 0.01225 0.15897 0.0
S658 S 0.40612 0.91206 0.09963 0.0
N659 N 0.40461 0.93248 0.07234 0.0
N660 N 0.41857 0.92827 0.13713 0.0
C661 C 0.42233 0.95171 0.12839 0.0
C662 C 0.41466 0.95398 0.09332 0.0
C663 C 0.42247 0.98675 0.88732 0.0
C664 C 0.42842 0.01034 0.9033 0.0
C665 C 0.43541 0.98592 0.85691 0.0
C666 C 0.45446 0.00867 0.84111 0.0
H667 H 0.40721 0.96876 0.89783 0.0
H668 H 0.42938 0.96741 0.84446 0.0
S669 S 0.47857 0.0752 0.87388 0.0
N670 N 0.45595 0.05691 0.90258 0.0
N671 N 0.47987 0.0553 0.84454 0.0
C672 C 0.46145 0.03233 0.85762 0.0
C673 C 0.44854 0.03318 0.88901 0.0
C674 C 0.01951 0.42405 0.87992 0.0
C675 C 0.00889 0.4311 0.9082 0.0
C676 C 0.02175 0.43411 0.84586 0.0
C677 C 0.01382 0.45186 0.83887 0.0
H678 H 0.02522 0.40988 0.88368 0.0
H679 H 0.02908 0.4274 0.82455 0.0
S680 S 0.98719 0.47867 0.90408 0.0
N681 N 0.99212 0.45848 0.92734 0.0
N682 N 0.9965 0.4774 0.86313 0.0
C683 C 0.00445 0.46015 0.86714 0.0
C684 C 0.00189 0.44972 0.90184 0.0
C685 C 0.57996 0.55663 0.89273 0.0
C686 C 0.58091 0.5802 0.89825 0.0
C687 C 0.5701 0.54243 0.86102 0.0
C688 C 0.5607 0.55118 0.83359 0.0
H689 H 0.5876 0.54937 0.91261 0.0
H690 H 0.57085 0.525 0.85742 0.0
S691 S 0.55619 0.61018 0.836 0.0
N692 N 0.56978 0.61068 0.87445 0.0
N693 N 0.55101 0.58377 0.81501 0.0
C694 C 0.56047 0.57411 0.83931 0.0
C695 C 0.5706 0.58865 0.87158 0.0
C696 C 0.96721 0.54177 0.89323 0.0
C697 C 0.98828 0.56111 0.91278 0.0
C698 C 0.97047 0.53519 0.85847 0.0
C699 C 0.99498 0.54725 0.84273 0.0
H700 H 0.94792 0.53255 0.9042 0.0
H701 H 0.95369 0.52114 0.84345 0.0
S702 S 0.05658 0.59717 0.88375 0.0
N703 N 0.03466 0.59103 0.91457 0.0
N704 N 0.04075 0.57813 0.84955 0.0
C705 C 0.01633 0.56559 0.86258 0.0
C706 C 0.01299 0.57266 0.89759 0.0
C707 C 0.4132 0.4262 0.8861 0.0
C708 C 0.42307 0.41695 0.91227 0.0
C709 C 0.42502 0.43389 0.85287 0.0
C710 C 0.44713 0.43263 0.84461 0.0
H711 H 0.39587 0.427 0.89098 0.0
H712 H 0.41644 0.4403 0.83314 0.0
S713 S 0.48088 0.41025 0.90384 0.0
N714 N 0.45675 0.40766 0.92795 0.0
N715 N 0.47863 0.42168 0.86516 0.0
C716 C 0.45766 0.42414 0.87081 0.0
C717 C 0.4457 0.4164 0.90473 0.0
C718 C 0.58662 0.99272 0.88978 0.0
C719 C 0.58055 0.00541 0.91636 0.0
C720 C 0.57544 0.98801 0.85581 0.0
C721 C 0.55752 0.99552 0.84712 0.0
H722 H 0.60076 0.98707 0.89479 0.0
H723 H 0.58134 0.97898 0.83583 0.0
S724 S 0.53325 0.02738 0.90747 0.0
N725 N 0.55404 0.02394 0.93208 0.0
N726 N 0.53308 0.01497 0.86798 0.0
C727 C 0.55032 0.00713 0.87371 0.0
C728 C 0.56186 0.01216 0.90835 0.0
C729 C 0.58768 0.01104 0.13341 0.0
C730 C 0.57846 0.99322 0.10484 0.0
C731 C 0.57365 0.00613 0.16505 0.0
C732 C 0.54976 0.9833 0.16924 0.0
H733 H 0.60626 0.02862 0.13182 0.0
H734 H 0.5819 0.01994 0.18684 0.0
S735 S 0.51637 0.93088 0.10203 0.0
N736 N 0.54322 0.95228 0.08233 0.0
N737 N 0.51712 0.94301 0.14192 0.0
C738 C 0.53982 0.96577 0.14045 0.0
C739 C 0.5541 0.97072 0.10824 0.0
C740 C 0.0325 0.58219 0.10822 0.0
C741 C 0.00818 0.57942 0.1014 0.0
C742 C 0.03782 0.57448 0.14059 0.0
C743 C 0.01898 0.56366 0.16723 0.0
H744 H 0.04792 0.59128 0.089 0.0
H745 H 0.05719 0.57819 0.14545 0.0
S746 S 0.95127 0.5489 0.16092 0.0
N747 N 0.96432 0.5627 0.12276 0.0
N748 N 0.97441 0.54812 0.18351 0.0
C749 C 0.99418 0.55939 0.16 0.0
C750 C 0.98875 0.56728 0.12711 0.0
C751 C 0.43163 0.42724 0.11941 0.0
C752 C 0.42177 0.4401 0.09966 0.0
C753 C 0.4436 0.43677 0.15258 0.0
C754 C 0.44594 0.45935 0.16713 0.0
H755 H 0.42982 0.40949 0.10942 0.0
H756 H 0.4503 0.426 0.16746 0.0
S757 S 0.4241 0.50062 0.12661 0.0
N758 N 0.41594 0.47715 0.09716 0.0
N759 N 0.43818 0.49466 0.15986 0.0
C760 C 0.43677 0.47271 0.14764 0.0
C761 C 0.42478 0.46321 0.11373 0.0
C762 C 0.68754 0.78559 0.43835 0.0
C763 C 0.69681 0.76886 0.43115 0.0
C764 C 0.69157 0.79766 0.47188 0.0
C765 C 0.70462 0.79295 0.49913 0.0
H766 H 0.67679 0.78901 0.41818 0.0
H767 H 0.68361 0.80995 0.47696 0.0
S768 S 0.73352 0.75151 0.49251 0.0
N769 N 0.72036 0.74894 0.45292 0.0
N770 N 0.72778 0.77134 0.51602 0.0
C771 C 0.71452 0.77674 0.49171 0.0
C772 C 0.71061 0.76471 0.45763 0.0
C773 C 0.24613 0.91019 0.44152 0.0
C774 C 0.23426 0.92184 0.42346 0.0
C775 C 0.23803 0.89989 0.47555 0.0
C776 C 0.21801 0.90115 0.49282 0.0
H777 H 0.2621 0.9094 0.42955 0.0
H778 H 0.24821 0.89187 0.48906 0.0
S779 S 0.17988 0.92854 0.45722 0.0
N780 N 0.20057 0.93293 0.42529 0.0
N781 N 0.1859 0.91397 0.48953 0.0
C782 C 0.2055 0.91202 0.4749 0.0
C783 C 0.21346 0.92223 0.44011 0.0
C784 C 0.06686 0.31287 0.44622 0.0
C785 C 0.08285 0.31776 0.41667 0.0
C786 C 0.07481 0.31053 0.48015 0.0
C787 C 0.09946 0.31381 0.48614 0.0
H788 H 0.04766 0.31002 0.44291 0.0
H789 H 0.06118 0.30555 0.5017 0.0
S790 S 0.14929 0.32872 0.41729 0.0
N791 N 0.12444 0.32626 0.39493 0.0
N792 N 0.1403 0.32352 0.4594 0.0
C793 C 0.11591 0.31929 0.45671 0.0
C794 C 0.10741 0.32092 0.42183 0.0
C795 C 0.07584 0.32566 0.20538 0.0
C796 C 0.08886 0.34418 0.23249 0.0
C797 C 0.08872 0.32485 0.175 0.0
C798 C 0.11509 0.34243 0.17057 0.0
H799 H 0.05539 0.31177 0.2073 0.0
H800 H 0.07784 0.31064 0.1544 0.0
S801 S 0.15848 0.39428 0.23333 0.0
N802 N 0.13003 0.3803 0.25302 0.0
N803 N 0.15417 0.37859 0.19521 0.0
C804 C 0.12862 0.36081 0.19736 0.0
C805 C 0.11549 0.36174 0.22853 0.0
C806 C 0.69095 0.76152 0.21102 0.0
C807 C 0.68037 0.76932 0.23848 0.0
C808 C 0.69375 0.77112 0.17656 0.0
C809 C 0.68641 0.78914 0.16829 0.0
H810 H 0.69623 0.74712 0.21574 0.0
H811 H 0.70106 0.76385 0.15593 0.0
S812 S 0.65994 0.81772 0.2309 0.0
N813 N 0.66421 0.79764 0.25542 0.0
N814 N 0.66951 0.81559 0.19046 0.0
C815 C 0.67703 0.79812 0.19573 0.0
C816 C 0.67395 0.7882 0.23085 0.0
C817 C 0.24566 0.89083 0.22684 0.0
C818 C 0.24734 0.91474 0.23239 0.0
C819 C 0.23655 0.87726 0.19454 0.0
C820 C 0.22864 0.887 0.16653 0.0
H821 H 0.25223 0.88285 0.24715 0.0
H822 H 0.23679 0.85956 0.19098 0.0
S823 S 0.22627 0.94717 0.16873 0.0
N824 N 0.23832 0.94655 0.20798 0.0
N825 N 0.22092 0.92082 0.14741 0.0
C826 C 0.22902 0.91024 0.17227 0.0
C827 C 0.2384 0.92414 0.20514 0.0
C828 C 0.63766 0.87435 0.22411 0.0
C829 C 0.65865 0.8932 0.24431 0.0
C830 C 0.64104 0.86871 0.18888 0.0
C831 C 0.66559 0.88125 0.17325 0.0
H832 H 0.61834 0.8648 0.23499 0.0
H833 H 0.62432 0.85498 0.17346 0.0
S834 S 0.72703 0.93021 0.21573 0.0
N835 N 0.70502 0.92319 0.24672 0.0
N836 N 0.71132 0.91205 0.18079 0.0
C837 C 0.68687 0.8991 0.19367 0.0
C838 C 0.68341 0.90522 0.22919 0.0
C839 C 0.0838 0.76116 0.2184 0.0
C840 C 0.09303 0.75053 0.24343 0.0
C841 C 0.09572 0.76952 0.18536 0.0
C842 C 0.11732 0.7676 0.17616 0.0
H843 H 0.06687 0.76253 0.22398 0.0
H844 H 0.08761 0.77696 0.16647 0.0
S845 S 0.14945 0.74179 0.23231 0.0
N846 N 0.12564 0.73931 0.2571 0.0
N847 N 0.14776 0.75469 0.19464 0.0
C848 C 0.12727 0.75778 0.20126 0.0
C849 C 0.11518 0.74931 0.235 0.0
C850 C 0.25506 0.3309 0.226 0.0
C851 C 0.24918 0.34311 0.25347 0.0
C852 C 0.24341 0.32651 0.19239 0.0
C853 C 0.2252 0.33388 0.18495 0.0
H854 H 0.26944 0.32541 0.23001 0.0
H855 H 0.24921 0.31787 0.17168 0.0
S856 S 0.20105 0.36424 0.24815 0.0
N857 N 0.22239 0.36085 0.27149 0.0
N858 N 0.20055 0.35249 0.20803 0.0
C859 C 0.21812 0.34493 0.21246 0.0
C860 C 0.23014 0.34963 0.24676 0.0
C861 C 0.22346 0.30829 0.44112 0.0
C862 C 0.24802 0.33072 0.43967 0.0
C863 C 0.20805 0.30243 0.47151 0.0
C864 C 0.21664 0.31875 0.50164 0.0
H865 H 0.21633 0.29466 0.41905 0.0
H866 H 0.18989 0.28432 0.47208 0.0
S867 S 0.27788 0.38127 0.51024 0.0
N868 N 0.27913 0.37046 0.47013 0.0
N869 N 0.25006 0.35932 0.52721 0.0
C870 C 0.24047 0.34189 0.49992 0.0
C871 C 0.25618 0.34792 0.46896 0.0
C872 C 0.70095 0.91139 0.44364 0.0
C873 C 0.67679 0.90875 0.43608 0.0
C874 C 0.70599 0.90422 0.47664 0.0
C875 C 0.68702 0.89411 0.50319 0.0
H876 H 0.71649 0.92002 0.42453 0.0
H877 H 0.72527 0.90786 0.48204 0.0
S878 S 0.61955 0.87983 0.49513 0.0
N879 N 0.63286 0.8928 0.45669 0.0
N880 N 0.64244 0.87925 0.51865 0.0
C881 C 0.66233 0.88989 0.49525 0.0
C882 C 0.65718 0.89722 0.4617 0.0
C883 C 0.10762 0.79275 0.44186 0.0
C884 C 0.09241 0.76622 0.43382 0.0
C885 C 0.11926 0.80147 0.47543 0.0
C886 C 0.11594 0.78401 0.5021 0.0
H887 H 0.11013 0.80688 0.42242 0.0
H888 H 0.13004 0.82201 0.48103 0.0
S889 S 0.08022 0.71292 0.49432 0.0
N890 N 0.07637 0.72267 0.45514 0.0
N891 N 0.09818 0.73936 0.5181 0.0
C892 C 0.10179 0.75758 0.49416 0.0
C893 C 0.09006 0.74865 0.46003 0.0
C894 C 0.33913 0.09337 0.79157 0.0
C895 C 0.36022 0.1015 0.76844 0.0
C896 C 0.34187 0.10563 0.82449 0.0
C897 C 0.36578 0.12655 0.83561 0.0
H898 H 0.3204 0.07703 0.78458 0.0
H899 H 0.32525 0.09831 0.8418 0.0
S900 S 0.42689 0.15593 0.78481 0.0
N901 N 0.40573 0.13246 0.7586 0.0
N902 N 0.41084 0.15526 0.82082 0.0
C903 C 0.38685 0.13545 0.8124 0.0
C904 C 0.38408 0.12297 0.77875 0.0
C905 C 0.88379 0.23502 0.77067 0.0
C906 C 0.91013 0.25024 0.76181 0.0
C907 C 0.87613 0.22427 0.80457 0.0
C908 C 0.89455 0.2285 0.83079 0.0
H909 H 0.8689 0.23188 0.75161 0.0
H910 H 0.85573 0.2136 0.81082 0.0
S911 S 0.96567 0.26465 0.8209 0.0
N912 N 0.95456 0.26722 0.7819 0.0
N913 N 0.93993 0.24715 0.84548 0.0
C914 C 0.9208 0.24259 0.82199 0.0
C915 C 0.92866 0.25341 0.78752 0.0
C916 C 0.76784 0.64982 0.75461 0.0
C917 C 0.74236 0.64389 0.74828 0.0
C918 C 0.77597 0.64811 0.789 0.0
C919 C 0.75869 0.63995 0.8178 0.0
H920 H 0.78158 0.65617 0.73301 0.0
H921 H 0.79592 0.65342 0.79314 0.0
S922 S 0.68885 0.61864 0.81305 0.0
N923 N 0.69952 0.62793 0.77229 0.0
N924 N 0.71413 0.62315 0.83637 0.0
C925 C 0.73283 0.63293 0.81113 0.0
C926 C 0.72484 0.6353 0.77647 0.0
C927 C 0.77488 0.69711 0.55337 0.0
C928 C 0.75456 0.67361 0.56588 0.0
C929 C 0.78877 0.69788 0.52294 0.0
C930 C 0.78321 0.67512 0.5048 0.0
H931 H 0.77931 0.71508 0.56619 0.0
H932 H 0.80338 0.71637 0.51286 0.0
S933 S 0.73323 0.60865 0.52813 0.0
N934 N 0.73048 0.62698 0.55864 0.0
N935 N 0.75696 0.62854 0.50204 0.0
C936 C 0.76383 0.65149 0.518 0.0
C937 C 0.74938 0.65071 0.54842 0.0
C938 C 0.34049 0.11868 0.56718 0.0
C939 C 0.34965 0.10196 0.57524 0.0
C940 C 0.34341 0.12905 0.53312 0.0
C941 C 0.35542 0.12293 0.50584 0.0
H942 H 0.3303 0.12325 0.58698 0.0
H943 H 0.33505 0.14088 0.5276 0.0
S944 S 0.38525 0.08255 0.51353 0.0
N945 N 0.37326 0.08163 0.55339 0.0
N946 N 0.37846 0.10107 0.48947 0.0
C947 C 0.36585 0.1074 0.51386 0.0
C948 C 0.36306 0.09696 0.54854 0.0
C949 C 0.91849 0.22263 0.56445 0.0
C950 C 0.91828 0.2456 0.57028 0.0
C951 C 0.90898 0.20844 0.53267 0.0
C952 C 0.89885 0.21665 0.50552 0.0
H953 H 0.92678 0.21589 0.5841 0.0
H954 H 0.91062 0.19153 0.52874 0.0
S955 S 0.89116 0.27377 0.50885 0.0
N956 N 0.90517 0.27477 0.54714 0.0
N957 N 0.88715 0.24791 0.48753 0.0
C958 C 0.8974 0.23889 0.5116 0.0
C959 C 0.90712 0.25339 0.54393 0.0
C960 C 0.34198 0.23575 0.56497 0.0
C961 C 0.31717 0.22373 0.57999 0.0
C962 C 0.34582 0.22963 0.53033 0.0
C963 C 0.32492 0.21164 0.50937 0.0
H964 H 0.35851 0.25031 0.5799 0.0
H965 H 0.36509 0.23983 0.5193 0.0
S966 S 0.25635 0.17437 0.53614 0.0
N967 N 0.27153 0.19226 0.57157 0.0
N968 N 0.27882 0.18141 0.50583 0.0
C969 C 0.30015 0.19904 0.52415 0.0
C970 C 0.29626 0.20489 0.55971 0.0
C971 C 0.78104 0.0843 0.56972 0.0
C972 C 0.75809 0.08439 0.57656 0.0
C973 C 0.79369 0.09256 0.53711 0.0
C974 C 0.7839 0.10132 0.51024 0.0
H975 H 0.78882 0.07686 0.58913 0.0
H976 H 0.81054 0.0909 0.53229 0.0
S977 S 0.72657 0.10879 0.51643 0.0
N978 N 0.7275 0.09636 0.55494 0.0
N979 N 0.75153 0.11208 0.49367 0.0
C980 C 0.76185 0.10292 0.51741 0.0
C981 C 0.74888 0.09443 0.55058 0.0
C982 C 0.90205 0.68635 0.57325 0.0
C983 C 0.91812 0.67626 0.58098 0.0
C984 C 0.89014 0.68246 0.53977 0.0
C985 C 0.894 0.6685 0.51284 0.0
H986 H 0.89907 0.69783 0.59291 0.0
H987 H 0.8788 0.69139 0.5344 0.0
S988 S 0.93233 0.63635 0.51959 0.0
N989 N 0.93571 0.65018 0.55899 0.0
N990 N 0.91346 0.64326 0.4962 0.0
C991 C 0.90905 0.65744 0.52048 0.0
C992 C 0.92105 0.6612 0.55452 0.0
C993 C 0.88852 0.64142 0.77094 0.0
C994 C 0.91288 0.66405 0.76867 0.0
C995 C 0.87324 0.63607 0.8014 0.0
C996 C 0.88174 0.65313 0.83075 0.0
H997 H 0.88153 0.62722 0.74957 0.0
H998 H 0.85533 0.61777 0.80274 0.0
S999 S 0.94229 0.71645 0.83677 0.0
N1000 N 0.94358 0.70478 0.79733 0.0
N1001 N 0.91475 0.6946 0.85451 0.0
C1002 C 0.90528 0.67648 0.82806 0.0
C1003 C 0.92087 0.68198 0.79705 0.0
C1004 C 0.3226 0.23349 0.79841 0.0
C1005 C 0.34138 0.24353 0.77151 0.0
C1006 C 0.32806 0.22711 0.83171 0.0
C1007 C 0.35248 0.23047 0.83937 0.0
H1008 H 0.30368 0.23108 0.79406 0.0
H1009 H 0.31325 0.22004 0.85195 0.0
S1010 S 0.40825 0.25551 0.77808 0.0
N1011 N 0.3852 0.25573 0.75452 0.0
N1012 N 0.39552 0.24415 0.81737 0.0
C1013 C 0.37119 0.23974 0.81244 0.0
C1014 C 0.36563 0.24616 0.77846 0.0
C1015 C 0.7541 0.12394 0.78085 0.0
C1016 C 0.75558 0.1036 0.76466 0.0
C1017 C 0.76496 0.13348 0.81458 0.0
C1018 C 0.77817 0.12341 0.83278 0.0
H1019 H 0.74368 0.13193 0.76798 0.0
H1020 H 0.7626 0.14848 0.82684 0.0
S1021 S 0.78908 0.0714 0.80124 0.0
N1022 N 0.77232 0.07452 0.76886 0.0
N1023 N 0.7931 0.09289 0.83206 0.0
C1024 C 0.78069 0.10381 0.81644 0.0
C1025 C 0.76928 0.09378 0.7824 0.0
C1026 C 0.06766 0.33757 0.02079 0.0
C1027 C 0.07504 0.36323 0.01367 0.0
C1028 C 0.08529 0.33139 0.03519 0.0
C1029 C 0.11075 0.3507 0.04337 0.0
H1030 H 0.04771 0.32237 0.01749 0.0
H1031 H 0.07824 0.31178 0.04337 0.0
S1032 S 0.14074 0.42018 0.02528 0.0
N1033 N 0.11052 0.40761 0.01158 0.0
N1034 N 0.14333 0.39589 0.03985 0.0
C1035 C 0.11901 0.37601 0.03336 0.0
C1036 C 0.1012 0.38231 0.01816 0.0
C1037 C 0.65766 0.72407 0.01626 0.0
C1038 C 0.63053 0.70983 0.01301 0.0
C1039 C 0.6704 0.74861 0.03207 0.0
C1040 C 0.65653 0.75989 0.04503 0.0
H1041 H 0.66914 0.71578 0.00791 0.0
H1042 H 0.69112 0.75821 0.03613 0.0
S1043 S 0.58575 0.73208 0.04089 0.0
N1044 N 0.59044 0.70994 0.02208 0.0
N1045 N 0.61471 0.75609 0.05213 0.0
C1046 C 0.62968 0.74671 0.04023 0.0
C1047 C 0.6166 0.72169 0.02404 0.0
C1048 C 0.29096 0.89753 0.00756 0.0
C1049 C 0.29989 0.92384 0.00299 0.0
C1050 C 0.26815 0.88174 0.02596 0.0
C1051 C 0.25322 0.89156 0.04016 0.0
H1052 H 0.30254 0.88938 -0.00086 0.0
H1053 H 0.26336 0.86223 0.03144 0.0
S1054 S 0.26489 0.95751 0.02824 0.0
N1055 N 0.28986 0.95799 0.00911 0.0
N1056 N 0.24654 0.92799 0.04308 0.0
C1057 C 0.26048 0.91711 0.03252 0.0
C1058 C 0.28391 0.93332 0.0141 0.0
C1059 C 0.34307 0.06437 0.9781 0.0
C1060 C 0.3661 0.06799 -0.00671 0.0
C1061 C 0.34182 0.08503 0.96386 0.0
C1062 C 0.36365 0.10997 0.96393 0.0
H1063 H 0.32652 0.04517 0.97461 0.0
H1064 H 0.32449 0.08103 0.94954 0.0
S1065 S 0.42676 0.13049 0.00724 0.0
N1066 N 0.40969 0.09912 0.01332 0.0
N1067 N 0.40754 0.13784 0.98558 0.0
C1068 C 0.38568 0.11436 0.983 0.0
C1069 C 0.38688 0.09333 -0.00213 0.0
C1070 C 0.90856 0.2992 0.97268 0.0
C1071 C 0.93372 0.30715 0.98492 0.0
C1072 C 0.89278 0.2746 0.95774 0.0
C1073 C 0.90137 0.25696 0.95532 0.0
H1074 H 0.90156 0.31255 0.97255 0.0
H1075 H 0.87442 0.26993 0.94596 0.0
S1076 S 0.96399 0.26678 0.98742 0.0
N1077 N 0.96535 0.29425 -0.00336 0.0
N1078 N 0.93543 0.24802 0.96871 0.0
C1079 C 0.92558 0.26388 0.96975 0.0
C1080 C 0.94183 0.28899 0.98454 0.0
C1081 C 0.72098 0.6629 0.96299 0.0
C1082 C 0.70123 0.63985 0.97742 0.0
C1083 C 0.74301 0.66432 0.94804 0.0
C1084 C 0.74586 0.64259 0.94629 0.0
H1085 H 0.7187 0.67952 0.9612 0.0
H1086 H 0.75679 0.68189 0.93487 0.0
S1087 S 0.70167 0.57892 0.98573 0.0
N1088 N 0.6878 0.59599 -0.00602 0.0
N1089 N 0.72865 0.59833 0.9646 0.0
C1090 C 0.72757 0.62026 0.96399 0.0
C1091 C 0.70531 0.61894 0.97976 0.0
C1092 C 0.89095 0.59347 0.98003 0.0
C1093 C 0.91691 0.6117 0.98811 0.0
C1094 C 0.87498 0.60061 0.96272 0.0
C1095 C 0.88429 0.62627 0.95309 0.0
H1096 H 0.88327 0.57324 0.98507 0.0
H1097 H 0.85582 0.58559 0.95457 0.0
S1098 S 0.94892 0.68219 0.97468 0.0
N1099 N 0.94996 0.65716 -0.01021 0.0
N1100 N 0.91969 0.67051 0.9576 0.0
C1101 C 0.90938 0.64503 0.96393 0.0
C1102 C 0.92576 0.63777 0.98134 0.0
C1103 C 0.34318 0.28268 0.98357 0.0
C1104 C 0.36674 0.30318 -0.00352 0.0
C1105 C 0.34171 0.26063 0.96855 0.0
C1106 C 0.36384 0.25845 0.96532 0.0
H1107 H 0.32605 0.2843 0.9831 0.0
H1108 H 0.32353 0.24606 0.95684 0.0
S1109 S 0.42943 0.30525 -0.00043 0.0
N1110 N 0.41197 0.31849 0.00935 0.0
N1111 N 0.40941 0.27746 0.97991 0.0
C1112 C 0.38698 0.27774 0.98114 0.0
C1113 C 0.38839 0.30006 -0.00304 0.0
C1114 C 0.71157 0.10953 0.97684 0.0
C1115 C 0.7053 0.08574 -0.00829 0.0
C1116 C 0.73539 0.12499 0.96019 0.0
C1117 C 0.75401 0.11754 0.95858 0.0
H1118 H 0.6974 0.11553 0.976 0.0
H1119 H 0.73869 0.14215 0.94666 0.0
S1120 S 0.74868 0.05892 -0.00274 0.0
N1121 N 0.72083 0.05679 0.00661 0.0
N1122 N 0.76566 0.08613 0.97562 0.0
C1123 C 0.74884 0.09487 0.97562 0.0
C1124 C 0.72446 0.07889 -0.00789 0.0
C1125 C 0.67535 0.95236 0.03941 0.0
C1126 C 0.65028 0.94515 0.02774 0.0
C1127 C 0.68121 0.93395 0.05108 0.0
C1128 C 0.66218 0.90775 0.05175 0.0
H1129 H 0.69027 0.97248 0.04102 0.0
H1130 H 0.70026 0.94043 0.06203 0.0
S1131 S 0.59425 0.87851 0.0218 0.0
N1132 N 0.60681 0.90962 0.01515 0.0
N1133 N 0.61788 0.8752 0.03814 0.0
C1134 C 0.63751 0.90008 0.03839 0.0
C1135 C 0.63156 0.91875 0.02601 0.0
C1136 C 0.0557 0.71528 0.03274 0.0
C1137 C 0.06071 0.69653 0.01894 0.0
C1138 C 0.07558 0.73842 0.0473 0.0
C1139 C 0.10113 0.74344 0.04921 0.0
H1140 H 0.03606 0.71142 0.03433 0.0
H1141 H 0.07055 0.7515 0.0599 0.0
S1142 S 0.12498 0.70232 0.0116 0.0
N1143 N 0.09362 0.68611 0.00333 0.0
N1144 N 0.13082 0.72915 0.03196 0.0
C1145 C 0.10679 0.72601 0.03225 0.0
C1146 C 0.08657 0.70259 0.01688 0.0
C1147 C 0.28815 0.39161 0.03915 0.0
C1148 C 0.29695 0.37592 0.02442 0.0
C1149 C 0.26435 0.38079 0.05654 0.0
C1150 C 0.2484 0.354 0.05892 0.0
H1151 H 0.30046 0.41236 0.03944 0.0
H1152 H 0.25908 0.39339 0.07005 0.0
S1153 S 0.26068 0.30455 0.02054 0.0
N1154 N 0.28652 0.33221 0.01021 0.0
N1155 N 0.2416 0.31203 0.04262 0.0
C1156 C 0.25595 0.33813 0.04195 0.0
C1157 C 0.28031 0.34906 0.02471 0.0
C1158 C 0.73465 0.67449 0.35525 0.0
C1159 C 0.74192 0.70016 0.34852 0.0
C1160 C 0.75227 0.66834 0.36974 0.0
C1161 C 0.77762 0.68769 0.37845 0.0
H1162 H 0.7148 0.65921 0.35127 0.0
H1163 H 0.74536 0.64862 0.37724 0.0
S1164 S 0.80705 0.75744 0.36295 0.0
N1165 N 0.77702 0.74476 0.34838 0.0
N1166 N 0.80979 0.73309 0.37687 0.0
C1167 C 0.78569 0.71313 0.36946 0.0
C1168 C 0.7679 0.7194 0.3541 0.0
C1169 C 0.28747 0.05709 0.35798 0.0
C1170 C 0.30119 0.04468 0.3486 0.0
C1171 C 0.29993 0.08143 0.37472 0.0
C1172 C 0.32651 0.09422 0.38218 0.0
H1173 H 0.26674 0.04739 0.35422 0.0
H1174 H 0.28847 0.08956 0.38381 0.0
S1175 S 0.37192 0.07206 0.35902 0.0
N1176 N 0.34352 0.04861 0.34484 0.0
N1177 N 0.3666 0.09416 0.37646 0.0
C1178 C 0.34073 0.08294 0.37086 0.0
C1179 C 0.32816 0.05822 0.35397 0.0
C1180 C 0.95813 0.22964 0.34459 0.0
C1181 C 0.96549 0.25561 0.34009 0.0
C1182 C 0.93581 0.21285 0.36326 0.0
C1183 C 0.91987 0.22131 0.37789 0.0
H1184 H 0.9706 0.22258 0.33587 0.0
H1185 H 0.93226 0.19375 0.36873 0.0
S1186 S 0.92705 0.28551 0.36626 0.0
N1187 N 0.95263 0.28771 0.34656 0.0
N1188 N 0.91035 0.25585 0.38126 0.0
C1189 C 0.92543 0.24635 0.37024 0.0
C1190 C 0.94832 0.26358 0.35146 0.0
C1191 C 0.0502 0.42658 0.3259 0.0
C1192 C 0.02848 0.40159 0.32361 0.0
C1193 C 0.0498 0.44746 0.31062 0.0
C1194 C 0.02762 0.44394 0.2929 0.0
H1195 H 0.06838 0.42967 0.33627 0.0
H1196 H 0.06775 0.46573 0.3093 0.0
S1197 S 0.96373 0.38399 0.28884 0.0
N1198 N 0.98273 0.37565 0.30903 0.0
N1199 N 0.98197 0.41502 0.28079 0.0
C1200 C 0.00481 0.41989 0.29511 0.0
C1201 C 0.00525 0.39861 0.3103 0.0
C1202 C 0.60709 0.62872 0.31193 0.0
C1203 C 0.59958 0.64734 0.3136 0.0
C1204 C 0.59078 0.60422 0.29698 0.0
C1205 C 0.56645 0.59752 0.28303 0.0
H1206 H 0.62611 0.63339 0.32099 0.0
H1207 H 0.59792 0.59106 0.29417 0.0
S1208 S 0.5365 0.63796 0.28322 0.0
N1209 N 0.56503 0.6563 0.30226 0.0
N1210 N 0.53483 0.61041 0.27354 0.0
C1211 C 0.55808 0.61527 0.28619 0.0
C1212 C 0.57451 0.64013 0.3017 0.0
C1213 C 0.3711 0.95185 0.31199 0.0
C1214 C 0.36735 0.97299 0.30988 0.0
C1215 C 0.39285 0.95272 0.29678 0.0
C1216 C 0.41162 0.97482 0.27921 0.0
H1217 H 0.35622 0.93384 0.32296 0.0
H1218 H 0.39379 0.93528 0.29608 0.0
S1219 S 0.41385 0.03714 0.27372 0.0
N1220 N 0.38643 0.01802 0.29419 0.0
N1221 N 0.42731 0.01962 0.26591 0.0
C1222 C 0.40949 0.99692 0.28043 0.0
C1223 C 0.38733 0.99602 0.29566 0.0
C1224 C 0.56141 0.92569 0.31735 0.0
C1225 C 0.58772 0.94342 0.32417 0.0
C1226 C 0.54543 0.93339 0.30143 0.0
C1227 C 0.5551 0.95912 0.29192 0.0
H1228 H 0.55337 0.9054 0.32235 0.0
H1229 H 0.52591 0.91871 0.29414 0.0
S1230 S 0.62095 0.01398 0.31054 0.0
N1231 N 0.62164 0.98859 0.3249 0.0
N1232 N 0.59137 0.00296 0.29515 0.0
C1233 C 0.58064 0.97743 0.30154 0.0
C1234 C 0.59701 0.96961 0.31761 0.0
C1235 C 0.01103 0.61441 0.31239 0.0
C1236 C 0.03465 0.63496 0.325 0.0
C1237 C 0.00954 0.59237 0.29733 0.0
C1238 C 0.03176 0.59036 0.29356 0.0
H1239 H 0.99387 0.61599 0.3122 0.0
H1240 H 0.99131 0.57775 0.28581 0.0
S1241 S 0.0975 0.63733 0.32714 0.0
N1242 N 0.07998 0.65043 0.33733 0.0
N1243 N 0.07744 0.60953 0.30757 0.0
C1244 C 0.05495 0.60968 0.3092 0.0
C1245 C 0.05635 0.63193 0.32518 0.0
C1246 C 0.39274 0.41442 0.3231 0.0
C1247 C 0.37502 0.42305 0.32656 0.0
C1248 C 0.41684 0.42967 0.307 0.0
C1249 C 0.42408 0.45406 0.29378 0.0
H1250 H 0.38753 0.39527 0.3314 0.0
H1251 H 0.42909 0.42158 0.30255 0.0
S1252 S 0.38627 0.4868 0.29881 0.0
N1253 N 0.36769 0.45879 0.31786 0.0
N1254 N 0.41281 0.48699 0.28705 0.0
C1255 C 0.40741 0.46362 0.29895 0.0
C1256 C 0.38294 0.44825 0.31556 0.0
C1257 C 0.29888 0.25552 0.36402 0.0
C1258 C 0.31899 0.28142 0.3635 0.0
C1259 C 0.30312 0.23623 0.37684 0.0
C1260 C 0.32775 0.24209 0.3885 0.0
H1261 H 0.27937 0.25038 0.35681 0.0
H1262 H 0.2868 0.21689 0.37951 0.0
S1263 S 0.38743 0.30613 0.3884 0.0
N1264 N 0.36486 0.31141 0.37289 0.0
N1265 N 0.37283 0.27497 0.39611 0.0
C1266 C 0.34835 0.26747 0.38561 0.0
C1267 C 0.34397 0.2872 0.37329 0.0
C1268 C 0.72676 0.04533 0.36563 0.0
C1269 C 0.7317 0.02599 0.35429 0.0
C1270 C 0.74646 0.06857 0.38016 0.0
C1271 C 0.7717 0.07311 0.38464 0.0
H1272 H 0.70724 0.0419 0.3652 0.0
H1273 H 0.74141 0.08221 0.3907 0.0
S1274 S 0.79538 0.0301 0.35431 0.0
N1275 N 0.76435 0.0143 0.34385 0.0
N1276 N 0.80115 0.05753 0.3726 0.0
C1277 C 0.7774 0.05496 0.37025 0.0
C1278 C 0.7574 0.03144 0.35481 0.0
C1279 C 0.96041 0.72851 0.37182 0.0
C1280 C 0.96793 0.71221 0.35565 0.0
C1281 C 0.93632 0.71841 0.38825 0.0
C1282 C 0.9188 0.6918 0.38824 0.0
H1283 H 0.97385 0.74903 0.37401 0.0
H1284 H 0.93201 0.73129 0.40298 0.0
S1285 S 0.92747 0.64126 0.34531 0.0
N1286 N 0.9547 0.66834 0.33743 0.0
N1287 N 0.90929 0.64955 0.3681 0.0
C1288 C 0.92514 0.67551 0.36975 0.0
C1289 C 0.94978 0.68568 0.35346 0.0
C1290 C 0.40043 0.00503 0.69391 0.0
C1291 C 0.40844 0.03081 0.68657 0.0
C1292 C 0.41779 0.99822 0.70753 0.0
C1293 C 0.44364 0.01701 0.71469 0.0
H1294 H 0.38029 0.99021 0.69103 0.0
H1295 H 0.41042 0.97851 0.71554 0.0
S1296 S 0.47499 0.08664 0.69683 0.0
N1297 N 0.44467 0.07479 0.68406 0.0
N1298 N 0.477 0.0619 0.71089 0.0
C1299 C 0.45235 0.04247 0.70505 0.0
C1300 C 0.43481 0.0494 0.6906 0.0
C1301 C 0.9464 0.38189 0.70098 0.0
C1302 C 0.96179 0.37365 0.68377 0.0
C1303 C 0.95753 0.40639 0.71694 0.0
C1304 C 0.98427 0.42364 0.71544 0.0
H1305 H 0.92588 0.36876 0.70425 0.0
H1306 H 0.9454 0.41128 0.73245 0.0
S1307 S 0.03258 0.41296 0.66967 0.0
N1308 N 0.0049 0.38584 0.66322 0.0
N1309 N 0.02557 0.43194 0.69299 0.0
C1310 C 0.99957 0.41647 0.69606 0.0
C1311 C 0.98838 0.39144 0.68024 0.0
C1312 C 0.61872 0.5602 0.67279 0.0
C1313 C 0.62702 0.58633 0.66769 0.0
C1314 C 0.5962 0.54424 0.69166 0.0
C1315 C 0.581 0.55374 0.70588 0.0
H1316 H 0.63062 0.55237 0.66452 0.0
H1317 H 0.59195 0.52497 0.69766 0.0
S1318 S 0.5907 0.61878 0.69237 0.0
N1319 N 0.61579 0.6197 0.67295 0.0
N1320 N 0.57314 0.5894 0.70805 0.0
C1321 C 0.58746 0.57894 0.69752 0.0
C1322 C 0.61055 0.59531 0.67851 0.0
C1323 C 0.71377 0.75609 0.66113 0.0
C1324 C 0.69215 0.73129 0.65593 0.0
C1325 C 0.71433 0.7777 0.64681 0.0
C1326 C 0.69323 0.77511 0.62713 0.0
H1327 H 0.73133 0.75858 0.67302 0.0
H1328 H 0.73239 0.79592 0.64763 0.0
S1329 S 0.6295 0.71573 0.61548 0.0
N1330 N 0.64722 0.70631 0.6368 0.0
N1331 N 0.6483 0.74705 0.6102 0.0
C1332 C 0.67025 0.75111 0.62657 0.0
C1333 C 0.66972 0.7291 0.64083 0.0
C1334 C 0.24359 0.97472 0.63425 0.0
C1335 C 0.26739 0.98031 0.64931 0.0
C1336 C 0.22698 0.95074 0.6182 0.0
C1337 C 0.23326 0.9313 0.61736 0.0
H1338 H 0.23839 0.98943 0.63298 0.0
H1339 H 0.20972 0.9478 0.60476 0.0
S1340 S 0.29153 0.93488 0.65663 0.0
N1341 N 0.29519 0.96346 0.66506 0.0
N1342 N 0.26371 0.91832 0.63515 0.0
C1343 C 0.25603 0.93594 0.63443 0.0
C1344 C 0.27317 0.96047 0.65032 0.0
C1345 C 0.04348 0.28978 0.64715 0.0
C1346 C 0.03936 0.3107 0.64636 0.0
C1347 C 0.06534 0.29134 0.63136 0.0
C1348 C 0.08396 0.31398 0.6146 0.0
H1349 H 0.0287 0.27137 0.65725 0.0
H1350 H 0.06631 0.27395 0.62935 0.0
S1351 S 0.08556 0.37617 0.61416 0.0
N1352 N 0.05797 0.3561 0.63357 0.0
N1353 N 0.09947 0.35926 0.60484 0.0
C1354 C 0.08166 0.33597 0.61783 0.0
C1355 C 0.05921 0.33426 0.63339 0.0
C1356 C 0.22227 0.25642 0.65053 0.0
C1357 C 0.24815 0.27438 0.65941 0.0
C1358 C 0.20675 0.264 0.63291 0.0
C1359 C 0.21649 0.28982 0.62377 0.0
H1360 H 0.21437 0.2361 0.65507 0.0
H1361 H 0.18768 0.24922 0.62405 0.0
S1362 S 0.28096 0.34509 0.64774 0.0
N1363 N 0.28147 0.31972 0.66257 0.0
N1364 N 0.25206 0.33388 0.62975 0.0
C1365 C 0.24143 0.30829 0.63554 0.0
C1366 C 0.25733 0.30059 0.65327 0.0
C1367 C 0.72328 0.96487 0.65812 0.0
C1368 C 0.70134 0.9675 0.65904 0.0
C1369 C 0.72202 0.94288 0.64303 0.0
C1370 C 0.69871 0.92275 0.62876 0.0
H1371 H 0.74199 0.98073 0.66629 0.0
H1372 H 0.73982 0.94271 0.63967 0.0
S1373 S 0.63468 0.91765 0.6328 0.0
N1374 N 0.65487 0.94632 0.65013 0.0
N1375 N 0.65242 0.90478 0.62256 0.0
C1376 C 0.67613 0.9239 0.63349 0.0
C1377 C 0.67747 0.94636 0.64838 0.0
C1378 C 0.05877 0.7413 0.65232 0.0
C1379 C 0.04337 0.75224 0.65961 0.0
C1380 C 0.08316 0.75572 0.63678 0.0
C1381 C 0.09324 0.78167 0.62821 0.0
H1382 H 0.05143 0.72107 0.65688 0.0
H1383 H 0.09346 0.74603 0.62909 0.0
S1384 S 0.06257 0.82049 0.64524 0.0
N1385 N 0.04145 0.79163 0.65999 0.0
N1386 N 0.08728 0.81839 0.63039 0.0
C1387 C 0.07907 0.7934 0.63757 0.0
C1388 C 0.05416 0.77878 0.65342 0.0
C1389 C 0.00738 0.61787 0.70752 0.0
C1390 C 0.98255 0.61135 0.69563 0.0
C1391 C 0.01247 0.59901 0.71961 0.0
C1392 C 0.99287 0.57302 0.72053 0.0
H1393 H 0.02274 0.63782 0.70895 0.0
H1394 H 0.03137 0.60501 0.7307 0.0
S1395 S 0.92519 0.54548 0.69024 0.0
N1396 N 0.93864 0.57665 0.68314 0.0
N1397 N 0.94824 0.54139 0.70696 0.0
C1398 C 0.9684 0.566 0.70699 0.0
C1399 C 0.96324 0.58514 0.69417 0.0
C1400 C 0.38641 0.37693 0.70131 0.0
C1401 C 0.39154 0.35799 0.68866 0.0
C1402 C 0.40613 0.40021 0.71573 0.0
C1403 C 0.43163 0.40522 0.71867 0.0
H1404 H 0.36677 0.37315 0.702 0.0
H1405 H 0.401 0.41351 0.72732 0.0
S1406 S 0.45576 0.36339 0.68478 0.0
N1407 N 0.42453 0.34718 0.67559 0.0
N1408 N 0.46143 0.39052 0.70397 0.0
C1409 C 0.43744 0.38749 0.70304 0.0
C1410 C 0.41739 0.36391 0.68781 0.0
C1411 C 0.62062 0.05309 0.70038 0.0
C1412 C 0.63091 0.03801 0.68823 0.0
C1413 C 0.59647 0.04177 0.71695 0.0
C1414 C 0.58168 0.01503 0.72117 0.0
H1415 H 0.63195 0.07388 0.69922 0.0
H1416 H 0.59006 0.05408 0.7285 0.0
S1417 S 0.59797 0.96673 0.68976 0.0
N1418 N 0.62301 0.99464 0.67831 0.0
N1419 N 0.57756 0.97356 0.70938 0.0
C1420 C 0.59075 0.99961 0.70683 0.0
C1421 C 0.61541 0.01106 0.69031 0.0
loop_
_geom_bond_atom_site_label_1
_geom_bond_atom_site_label_2
_geom_bond_distance
_geom_bond_site_symmetry_2
_ccdc_geom_bond_type
C0 O1 1.306 1_556 S
C0 O3 1.160 . S
O1 C0 1.306 1_554 S
O1 Cd2 2.228 . S
Cd2 O1 2.228 . S
Cd2 O6 2.273 . S
Cd2 O10 2.277 1_554 S
O3 C0 1.160 . S
O3 Cd4 2.203 1_656 S
Cd4 O3 2.203 1_454 S
Cd4 O6 2.411 1_455 S
Cd4 O7 2.333 . S
Cd4 O8 2.352 . S
Cd4 O12 2.277 1_554 S
Cd4 O13 2.356 . S
C5 O10 1.209 1_455 S
C5 O12 1.226 . S
O6 Cd2 2.273 . S
O6 Cd4 2.411 1_655 S
O6 C9 1.310 1_655 S
O7 Cd4 2.333 . S
O7 C9 1.238 . S
O8 Cd4 2.352 . S
O8 C11 1.258 . S
C9 O6 1.310 1_455 S
C9 O7 1.238 . S
O10 Cd2 2.277 1_556 S
O10 C5 1.209 1_655 S
C11 O8 1.258 . S
C11 O13 1.282 . S
O12 Cd4 2.277 1_556 S
O12 C5 1.226 . S
O13 Cd4 2.356 . S
O13 C11 1.282 . S
C14 O15 1.306 . S
C14 O17 1.160 . S
O15 C14 1.306 . S
O15 Cd16 2.228 . S
Cd16 O15 2.228 . S
Cd16 O20 2.273 1_554 S
Cd16 O24 2.277 . S
O17 C14 1.160 . S
O17 Cd18 2.203 . S
Cd18 O17 2.203 . S
Cd18 O20 2.411 1_554 S
Cd18 O21 2.333 1_554 S
Cd18 O22 2.352 1_554 S
Cd18 O26 2.277 . S
Cd18 O27 2.356 . S
C19 O24 1.209 . S
C19 O26 1.226 . S
O20 Cd16 2.273 1_556 S
O20 Cd18 2.411 1_556 S
O20 C23 1.320 . S
O21 Cd18 2.333 1_556 S
O21 C23 1.214 . S
O22 Cd18 2.352 1_556 S
O22 C25 1.258 . S
C23 O20 1.320 . S
C23 O21 1.214 . S
O24 Cd16 2.277 . S
O24 C19 1.209 . S
C25 O22 1.258 . S
C25 O27 1.282 1_556 S
O26 Cd18 2.277 . S
O26 C19 1.226 . S
O27 Cd18 2.356 . S
O27 C25 1.282 1_554 S
C28 O29 1.306 . S
C28 O31 1.160 . S
O29 C28 1.306 . S
O29 Cd30 2.228 . S
Cd30 O29 2.228 . S
Cd30 O34 2.273 1_554 S
Cd30 O38 2.277 . S
O31 C28 1.160 . S
O31 Cd32 2.203 1_565 S
Cd32 O31 2.203 1_545 S
Cd32 O34 2.411 1_544 S
Cd32 O35 2.333 1_554 S
Cd32 O36 2.352 1_554 S
Cd32 O40 2.277 . S
Cd32 O41 2.356 . S
C33 O38 1.209 1_545 S
C33 O40 1.226 . S
O34 Cd30 2.273 1_556 S
O34 Cd32 2.411 1_566 S
O34 C37 1.320 1_565 S
O35 Cd32 2.333 1_556 S
O35 C37 1.214 . S
O36 Cd32 2.352 1_556 S
O36 C39 1.258 . S
C37 O34 1.320 1_545 S
C37 O35 1.214 . S
O38 Cd30 2.277 . S
O38 C33 1.209 1_565 S
C39 O36 1.258 . S
C39 O41 1.282 1_556 S
O40 Cd32 2.277 . S
O40 C33 1.226 . S
O41 Cd32 2.356 . S
O41 C39 1.282 1_554 S
C42 O43 1.306 . S
C42 O45 1.160 . S
O43 C42 1.306 . S
O43 Cd44 2.228 1_556 S
Cd44 O43 2.228 1_554 S
Cd44 O48 2.273 . S
Cd44 O52 2.277 1_554 S
O45 C42 1.160 . S
O45 Cd46 2.203 1_656 S
Cd46 O45 2.203 1_454 S
Cd46 O48 2.411 1_455 S
Cd46 O49 2.333 . S
Cd46 O50 2.352 . S
Cd46 O54 2.277 1_554 S
Cd46 O55 2.356 . S
C47 O52 1.209 1_455 S
C47 O54 1.226 . S
O48 Cd44 2.273 . S
O48 Cd46 2.411 1_655 S
O48 C51 1.295 1_655 S
O49 Cd46 2.333 . S
O49 C51 1.233 . S
O50 Cd46 2.352 . S
O50 C53 1.258 . S
C51 O48 1.295 1_455 S
C51 O49 1.233 . S
O52 Cd44 2.277 1_556 S
O52 C47 1.209 1_655 S
C53 O50 1.258 . S
C53 O55 1.282 . S
O54 Cd46 2.277 1_556 S
O54 C47 1.226 . S
O55 Cd46 2.356 . S
O55 C53 1.282 . S
C56 O57 1.306 . S
C56 O59 1.160 . S
O57 C56 1.306 . S
O57 Cd58 2.228 . S
Cd58 O57 2.228 . S
Cd58 O62 2.273 1_554 S
Cd58 O66 2.277 . S
O59 C56 1.160 . S
O59 Cd60 2.203 . S
Cd60 O59 2.203 . S
Cd60 O62 2.411 1_554 S
Cd60 O63 2.333 1_554 S
Cd60 O64 2.352 1_554 S
Cd60 O68 2.277 . S
Cd60 O69 2.356 . S
C61 O66 1.209 . S
C61 O68 1.226 . S
O62 Cd58 2.273 1_556 S
O62 Cd60 2.411 1_556 S
O62 C65 1.320 . S
O63 Cd60 2.333 1_556 S
O63 C65 1.214 . S
O64 Cd60 2.352 1_556 S
O64 C67 1.258 . S
C65 O62 1.320 . S
C65 O63 1.214 . S
O66 Cd58 2.277 . S
O66 C61 1.209 . S
C67 O64 1.258 . S
C67 O69 1.282 1_556 S
O68 Cd60 2.277 . S
O68 C61 1.226 . S
O69 Cd60 2.356 . S
O69 C67 1.282 1_554 S
C70 O71 1.303 1_556 S
C70 O73 1.160 . S
O71 C70 1.303 1_554 S
O71 Cd72 2.230 . S
Cd72 O71 2.230 . S
Cd72 O76 2.273 . S
Cd72 O80 2.277 1_554 S
O73 C70 1.160 . S
O73 Cd74 2.203 1_546 S
Cd74 O73 2.203 1_564 S
Cd74 O76 2.411 1_565 S
Cd74 O77 2.333 . S
Cd74 O78 2.352 . S
Cd74 O82 2.277 1_554 S
Cd74 O83 2.356 . S
C75 O80 1.178 1_565 S
C75 O82 1.271 . S
O76 Cd72 2.273 . S
O76 Cd74 2.411 1_545 S
O76 C79 1.340 . S
O77 Cd74 2.333 . S
O77 C79 1.173 1_565 S
O78 Cd74 2.352 . S
O78 C81 1.258 . S
C79 O76 1.340 . S
C79 O77 1.173 1_545 S
O80 Cd72 2.277 1_556 S
O80 C75 1.178 1_545 S
C81 O78 1.258 . S
C81 O83 1.282 . S
O82 Cd74 2.277 1_556 S
O82 C75 1.271 . S
O83 Cd74 2.356 . S
O83 C81 1.282 . S
C84 O85 1.306 . S
C84 O87 1.160 . S
O85 C84 1.306 . S
O85 Cd86 2.228 . S
Cd86 O85 2.228 . S
Cd86 O90 2.273 . S
Cd86 O94 2.277 . S
O87 C84 1.160 . S
O87 Cd88 2.203 . S
Cd88 O87 2.203 . S
Cd88 O90 2.411 . S
Cd88 O91 2.333 . S
Cd88 O92 2.352 . S
Cd88 O96 2.277 . S
Cd88 O97 2.356 . S
C89 O94 1.209 . S
C89 O96 1.226 . S
O90 Cd86 2.273 . S
O90 Cd88 2.411 . S
O90 C93 1.320 . S
O91 Cd88 2.333 . S
O91 C93 1.214 . S
O92 Cd88 2.352 . S
O92 C95 1.258 . S
C93 O90 1.320 . S
C93 O91 1.214 . S
O94 Cd86 2.277 . S
O94 C89 1.209 . S
C95 O92 1.258 . S
C95 O97 1.282 . S
O96 Cd88 2.277 . S
O96 C89 1.226 . S
O97 Cd88 2.356 . S
O97 C95 1.282 . S
C98 O99 1.306 . S
C98 O101 1.160 . S
O99 C98 1.306 . S
O99 Cd100 2.228 1_545 S
Cd100 O99 2.228 1_565 S
Cd100 O104 2.273 . S
Cd100 O108 2.277 . S
O101 C98 1.160 . S
O101 Cd102 2.203 1_545 S
Cd102 O101 2.203 1_565 S
Cd102 O104 2.411 . S
Cd102 O105 2.333 . S
Cd102 O106 2.352 1_565 S
Cd102 O110 2.277 . S
Cd102 O111 2.356 . S
C103 O108 1.209 . S
C103 O110 1.226 . S
O104 Cd100 2.273 . S
O104 Cd102 2.411 . S
O104 C107 1.320 . S
O105 Cd102 2.333 . S
O105 C107 1.214 . S
O106 Cd102 2.352 1_545 S
O106 C109 1.258 1_545 S
C107 O104 1.320 . S
C107 O105 1.214 . S
O108 Cd100 2.277 . S
O108 C103 1.209 . S
C109 O106 1.258 1_565 S
C109 O111 1.282 . S
O110 Cd102 2.277 . S
O110 C103 1.226 . S
O111 Cd102 2.356 . S
O111 C109 1.282 . S
C112 O113 1.306 . S
C112 O115 1.160 . S
O113 C112 1.306 . S
O113 Cd114 2.228 1_655 S
Cd114 O113 2.228 1_455 S
Cd114 O118 2.273 . S
Cd114 O122 2.277 . S
O115 C112 1.160 . S
O115 Cd116 2.203 1_655 S
Cd116 O115 2.203 1_455 S
Cd116 O118 2.411 . S
Cd116 O119 2.333 . S
Cd116 O120 2.352 . S
Cd116 O124 2.277 . S
Cd116 O125 2.356 . S
C117 O122 1.209 . S
C117 O124 1.226 . S
O118 Cd114 2.273 . S
O118 Cd116 2.411 . S
O118 C121 1.320 . S
O119 Cd116 2.333 . S
O119 C121 1.214 . S
O120 Cd116 2.352 . S
O120 C123 1.258 . S
C121 O118 1.320 . S
C121 O119 1.214 . S
O122 Cd114 2.277 . S
O122 C117 1.209 . S
C123 O120 1.258 . S
C123 O125 1.282 . S
O124 Cd116 2.277 . S
O124 C117 1.226 . S
O125 Cd116 2.356 . S
O125 C123 1.282 . S
C126 O127 1.306 . S
C126 O129 1.162 . S
O127 C126 1.306 . S
O127 Cd128 2.228 . S
Cd128 O127 2.228 . S
Cd128 O132 2.273 . S
Cd128 O136 2.277 . S
O129 C126 1.162 . S
O129 Cd130 2.233 . S
Cd130 O129 2.233 . S
Cd130 O132 2.411 . S
Cd130 O133 2.333 . S
Cd130 O134 2.352 1_565 S
Cd130 O138 2.277 . S
Cd130 O139 2.356 1_565 S
C131 O136 1.209 . S
C131 O138 1.226 . S
O132 Cd128 2.273 . S
O132 Cd130 2.411 . S
O132 C135 1.320 . S
O133 Cd130 2.333 . S
O133 C135 1.214 . S
O134 Cd130 2.352 1_545 S
O134 C137 1.258 . S
C135 O132 1.320 . S
C135 O133 1.214 . S
O136 Cd128 2.277 . S
O136 C131 1.209 . S
C137 O134 1.258 . S
C137 O139 1.282 . S
O138 Cd130 2.277 . S
O138 C131 1.226 . S
O139 Cd130 2.356 1_545 S
O139 C137 1.282 . S
C140 O141 1.306 . S
C140 O143 1.160 . S
O141 C140 1.306 . S
O141 Cd142 2.228 1_655 S
Cd142 O141 2.228 1_455 S
Cd142 O146 2.273 . S
Cd142 O150 2.277 . S
O143 C140 1.160 . S
O143 Cd144 2.203 1_655 S
Cd144 O143 2.203 1_455 S
Cd144 O146 2.411 . S
Cd144 O147 2.333 . S
Cd144 O148 2.345 1_455 S
Cd144 O152 2.277 . S
Cd144 O153 2.356 . S
C145 O150 1.209 . S
C145 O152 1.226 . S
O146 Cd142 2.273 . S
O146 Cd144 2.411 . S
O146 C149 1.320 . S
O147 Cd144 2.333 . S
O147 C149 1.214 . S
O148 Cd144 2.345 1_655 S
O148 C151 1.226 1_655 S
C149 O146 1.320 . S
C149 O147 1.214 . S
O150 Cd142 2.277 . S
O150 C145 1.209 . S
C151 O148 1.226 1_455 S
C151 O153 1.282 . S
O152 Cd144 2.277 . S
O152 C145 1.226 . S
O153 Cd144 2.356 . S
O153 C151 1.282 . S
C154 O155 1.306 . S
C154 O157 1.160 . S
O155 C154 1.306 . S
O155 Cd156 2.228 . S
Cd156 O155 2.228 . S
Cd156 O160 2.273 . S
Cd156 O164 2.277 . S
O157 C154 1.160 . S
O157 Cd158 2.203 . S
Cd158 O157 2.203 . S
Cd158 O160 2.411 . S
Cd158 O161 2.333 . S
Cd158 O162 2.352 . S
Cd158 O166 2.277 . S
Cd158 O167 2.356 . S
C159 O164 1.209 . S
C159 O166 1.226 . S
O160 Cd156 2.273 . S
O160 Cd158 2.411 . S
O160 C163 1.320 . S
O161 Cd158 2.333 . S
O161 C163 1.214 . S
O162 Cd158 2.352 . S
O162 C165 1.258 . S
C163 O160 1.320 . S
C163 O161 1.214 . S
O164 Cd156 2.277 . S
O164 C159 1.209 . S
C165 O162 1.258 . S
C165 O167 1.282 . S
O166 Cd158 2.277 . S
O166 C159 1.226 . S
O167 Cd158 2.356 . S
O167 C165 1.282 . S
C168 O169 1.306 . S
C168 O171 1.160 . S
O169 C168 1.306 . S
O169 Cd170 2.228 1_565 S
Cd170 O169 2.228 1_545 S
Cd170 O174 2.273 . S
Cd170 O178 2.277 . S
O171 C168 1.160 . S
O171 Cd172 2.203 1_565 S
Cd172 O171 2.203 1_545 S
Cd172 O174 2.411 . S
Cd172 O175 2.333 . S
Cd172 O176 2.352 1_545 S
Cd172 O180 2.277 . S
Cd172 O181 2.356 . S
C173 O178 1.209 . S
C173 O180 1.226 . S
O174 Cd170 2.273 . S
O174 Cd172 2.411 . S
O174 C177 1.320 . S
O175 Cd172 2.333 . S
O175 C177 1.214 . S
O176 Cd172 2.352 1_565 S
O176 C179 1.258 1_565 S
C177 O174 1.320 . S
C177 O175 1.214 . S
O178 Cd170 2.277 . S
O178 C173 1.209 . S
C179 O176 1.258 1_545 S
C179 O181 1.282 . S
O180 Cd172 2.277 . S
O180 C173 1.226 . S
O181 Cd172 2.356 . S
O181 C179 1.282 . S
C182 O183 1.306 . S
C182 O185 1.160 1_655 S
O183 C182 1.306 . S
O183 Cd184 2.228 . S
Cd184 O183 2.228 . S
Cd184 O188 2.273 . S
Cd184 O192 2.277 . S
O185 C182 1.160 1_455 S
O185 Cd186 2.203 1_455 S
Cd186 O185 2.203 1_655 S
Cd186 O188 2.411 . S
Cd186 O189 2.333 . S
Cd186 O190 2.352 1_655 S
Cd186 O194 2.277 . S
Cd186 O195 2.356 1_655 S
C187 O192 1.209 . S
C187 O194 1.226 . S
O188 Cd184 2.273 . S
O188 Cd186 2.411 . S
O188 C191 1.320 . S
O189 Cd186 2.333 . S
O189 C191 1.214 . S
O190 Cd186 2.352 1_455 S
O190 C193 1.258 . S
C191 O188 1.320 . S
C191 O189 1.214 . S
O192 Cd184 2.277 . S
O192 C187 1.209 . S
C193 O190 1.258 . S
C193 O195 1.282 . S
O194 Cd186 2.277 . S
O194 C187 1.226 . S
O195 Cd186 2.356 1_455 S
O195 C193 1.282 . S
C196 O197 1.306 . S
C196 O199 1.160 . S
O197 C196 1.306 . S
O197 Cd198 2.228 . S
Cd198 O197 2.228 . S
Cd198 O202 2.273 . S
Cd198 O206 2.277 . S
O199 C196 1.160 . S
O199 Cd200 2.203 . S
Cd200 O199 2.203 . S
Cd200 O202 2.411 . S
Cd200 O203 2.333 . S
Cd200 O204 2.352 . S
Cd200 O208 2.277 . S
Cd200 O209 2.356 . S
C201 O206 1.209 . S
C201 O208 1.226 . S
O202 Cd198 2.273 . S
O202 Cd200 2.411 . S
O202 C205 1.320 . S
O203 Cd200 2.333 . S
O203 C205 1.214 . S
O204 Cd200 2.352 . S
O204 C207 1.258 . S
C205 O202 1.320 . S
C205 O203 1.214 . S
O206 Cd198 2.277 . S
O206 C201 1.209 . S
C207 O204 1.258 . S
C207 O209 1.282 . S
O208 Cd200 2.277 . S
O208 C201 1.226 . S
O209 Cd200 2.356 . S
O209 C207 1.282 . S
C210 O211 1.306 . S
C210 O213 1.160 . S
O211 C210 1.306 . S
O211 Cd212 2.228 . S
Cd212 O211 2.228 . S
Cd212 O216 2.273 . S
Cd212 O220 2.277 . S
O213 C210 1.160 . S
O213 Cd214 2.203 . S
Cd214 O213 2.203 . S
Cd214 O216 2.411 . S
Cd214 O217 2.333 . S
Cd214 O218 2.352 . S
Cd214 O222 2.277 . S
Cd214 O223 2.356 . S
C215 O220 1.209 . S
C215 O222 1.226 . S
O216 Cd212 2.273 . S
O216 Cd214 2.411 . S
O216 C219 1.320 . S
O217 Cd214 2.333 . S
O217 C219 1.214 . S
O218 Cd214 2.352 . S
O218 C221 1.258 . S
C219 O216 1.320 . S
C219 O217 1.214 . S
O220 Cd212 2.277 . S
O220 C215 1.209 . S
C221 O218 1.258 . S
C221 O223 1.282 . S
O222 Cd214 2.277 . S
O222 C215 1.226 . S
O223 Cd214 2.356 . S
O223 C221 1.282 . S
C224 O225 1.306 . S
C224 O227 1.160 . S
O225 C224 1.306 . S
O225 Cd226 2.228 . S
Cd226 O225 2.228 . S
Cd226 O230 2.273 . S
Cd226 O234 2.277 . S
O227 C224 1.160 . S
O227 Cd228 2.203 . S
Cd228 O227 2.203 . S
Cd228 O230 2.411 . S
Cd228 O231 2.333 . S
Cd228 O232 2.352 1_545 S
Cd228 O236 2.277 . S
Cd228 O237 2.356 1_545 S
C229 O234 1.209 . S
C229 O236 1.226 . S
O230 Cd226 2.273 . S
O230 Cd228 2.411 . S
O230 C233 1.320 . S
O231 Cd228 2.333 . S
O231 C233 1.214 . S
O232 Cd228 2.352 1_565 S
O232 C235 1.258 . S
C233 O230 1.320 . S
C233 O231 1.214 . S
O234 Cd226 2.277 . S
O234 C229 1.209 . S
C235 O232 1.258 . S
C235 O237 1.282 . S
O236 Cd228 2.277 . S
O236 C229 1.226 . S
O237 Cd228 2.356 1_565 S
O237 C235 1.282 . S
C238 O239 1.306 . S
C238 O241 1.160 . S
O239 C238 1.306 . S
O239 Cd240 2.228 1_455 S
Cd240 O239 2.228 1_655 S
Cd240 O244 2.273 . S
Cd240 O248 2.277 . S
O241 C238 1.160 . S
O241 Cd242 2.203 1_455 S
Cd242 O241 2.203 1_655 S
Cd242 O244 2.411 . S
Cd242 O245 2.333 . S
Cd242 O246 2.352 1_655 S
Cd242 O250 2.277 . S
Cd242 O251 2.356 . S
C243 O248 1.209 . S
C243 O250 1.226 . S
O244 Cd240 2.273 . S
O244 Cd242 2.411 . S
O244 C247 1.320 . S
O245 Cd242 2.333 . S
O245 C247 1.214 . S
O246 Cd242 2.352 1_455 S
O246 C249 1.258 1_455 S
C247 O244 1.320 . S
C247 O245 1.214 . S
O248 Cd240 2.277 . S
O248 C243 1.209 . S
C249 O246 1.258 1_655 S
C249 O251 1.282 . S
O250 Cd242 2.277 . S
O250 C243 1.226 . S
O251 Cd242 2.356 . S
O251 C249 1.282 . S
H252 C260 0.930 . S
H253 C263 0.930 . S
H254 C265 0.930 . S
H255 C266 0.970 . S
H256 C266 0.970 . S
H257 C268 0.930 . S
H258 C270 0.930 . S
H259 C272 0.930 . S
C260 H252 0.930 . S
C260 C261 1.382 . S
C260 C262 1.426 . S
C261 C260 1.382 . S
C261 C265 1.389 . S
C262 C260 1.426 . S
C262 C263 1.375 . S
C262 C266 1.532 . S
C263 H253 0.930 . S
C263 C262 1.375 . S
C263 C264 1.416 . S
C264 C263 1.416 . S
C264 C265 1.371 . S
C265 H254 0.930 . S
C265 C261 1.389 . S
C265 C264 1.371 . S
C266 H255 0.970 . S
C266 H256 0.970 . S
C266 C262 1.532 . S
C266 C267 1.499 . S
C267 C266 1.499 . S
C267 C268 1.370 . S
C267 C272 1.415 . S
C268 H257 0.930 . S
C268 C267 1.370 . S
C268 C269 1.407 . S
C269 C268 1.407 . S
C269 C270 1.365 . S
C270 H258 0.930 . S
C270 C269 1.365 . S
C270 C271 1.393 . S
C271 C270 1.393 . S
C271 C272 1.387 . S
C272 H259 0.930 . S
C272 C267 1.415 . S
C272 C271 1.387 . S
H273 C281 0.930 . S
H274 C284 0.930 . S
H275 C286 0.930 . S
H276 C287 0.970 . S
H277 C287 0.970 . S
H278 C289 0.930 . S
H279 C291 0.930 . S
H280 C293 0.930 . S
C281 H273 0.930 . S
C281 C282 1.382 . S
C281 C283 1.426 . S
C282 C281 1.382 . S
C282 C286 1.389 . S
C283 C281 1.426 . S
C283 C284 1.375 . S
C283 C287 1.532 . S
C284 H274 0.930 . S
C284 C283 1.375 . S
C284 C285 1.416 . S
C285 C284 1.416 . S
C285 C286 1.371 . S
C286 H275 0.930 . S
C286 C282 1.389 . S
C286 C285 1.371 . S
C287 H276 0.970 . S
C287 H277 0.970 . S
C287 C283 1.532 . S
C287 C288 1.499 . S
C288 C287 1.499 . S
C288 C289 1.370 . S
C288 C293 1.415 . S
C289 H278 0.930 . S
C289 C288 1.370 . S
C289 C290 1.407 . S
C290 C289 1.407 . S
C290 C291 1.365 . S
C291 H279 0.930 . S
C291 C290 1.365 . S
C291 C292 1.393 . S
C292 C291 1.393 . S
C292 C293 1.387 . S
C293 H280 0.930 . S
C293 C288 1.415 . S
C293 C292 1.387 . S
H294 C302 0.930 . S
H295 C305 0.930 . S
H296 C307 0.930 . S
H297 C308 0.970 . S
H298 C308 0.970 . S
H299 C310 0.930 . S
H300 C312 0.930 . S
H301 C314 0.930 . S
C302 H294 0.930 . S
C302 C303 1.382 . S
C302 C304 1.426 . S
C303 C302 1.382 . S
C303 C307 1.389 . S
C304 C302 1.426 . S
C304 C305 1.375 . S
C304 C308 1.532 . S
C305 H295 0.930 . S
C305 C304 1.375 . S
C305 C306 1.416 . S
C306 C305 1.416 . S
C306 C307 1.371 . S
C307 H296 0.930 . S
C307 C303 1.389 . S
C307 C306 1.371 . S
C308 H297 0.970 . S
C308 H298 0.970 . S
C308 C304 1.532 . S
C308 C309 1.499 . S
C309 C308 1.499 . S
C309 C310 1.370 . S
C309 C314 1.415 . S
C310 H299 0.930 . S
C310 C309 1.370 . S
C310 C311 1.407 . S
C311 C310 1.407 . S
C311 C312 1.365 . S
C312 H300 0.930 . S
C312 C311 1.365 . S
C312 C313 1.393 . S
C313 C312 1.393 . S
C313 C314 1.387 . S
C314 H301 0.930 . S
C314 C309 1.415 . S
C314 C313 1.387 . S
H315 C323 0.930 . S
H316 C326 0.930 . S
H317 C328 0.930 . S
H318 C329 0.970 . S
H319 C329 0.970 . S
H320 C331 0.930 . S
H321 C333 0.930 . S
H322 C335 0.930 . S
C323 H315 0.930 . S
C323 C324 1.382 . S
C323 C325 1.426 . S
C324 C323 1.382 . S
C324 C328 1.389 . S
C325 C323 1.426 . S
C325 C326 1.375 . S
C325 C329 1.532 . S
C326 H316 0.930 . S
C326 C325 1.375 . S
C326 C327 1.416 . S
C327 C326 1.416 . S
C327 C328 1.371 . S
C328 H317 0.930 . S
C328 C324 1.389 . S
C328 C327 1.371 . S
C329 H318 0.970 . S
C329 H319 0.970 . S
C329 C325 1.532 . S
C329 C330 1.499 . S
C330 C329 1.499 . S
C330 C331 1.370 . S
C330 C335 1.415 . S
C331 H320 0.930 . S
C331 C330 1.370 . S
C331 C332 1.407 . S
C332 C331 1.407 . S
C332 C333 1.365 . S
C333 H321 0.930 . S
C333 C332 1.365 . S
C333 C334 1.393 . S
C334 C333 1.393 . S
C334 C335 1.387 . S
C335 H322 0.930 . S
C335 C330 1.415 . S
C335 C334 1.387 . S
H336 C344 0.930 . S
H337 C347 0.930 . S
H338 C349 0.930 . S
H339 C350 0.970 . S
H340 C350 0.970 . S
H341 C352 0.930 . S
H342 C354 0.930 . S
H343 C356 0.930 . S
C344 H336 0.930 . S
C344 C345 1.382 . S
C344 C346 1.426 . S
C345 C344 1.382 . S
C345 C349 1.389 . S
C346 C344 1.426 . S
C346 C347 1.375 . S
C346 C350 1.532 . S
C347 H337 0.930 . S
C347 C346 1.375 . S
C347 C348 1.416 . S
C348 C347 1.416 . S
C348 C349 1.371 . S
C349 H338 0.930 . S
C349 C345 1.389 . S
C349 C348 1.371 . S
C350 H339 0.970 . S
C350 H340 0.970 . S
C350 C346 1.532 . S
C350 C351 1.499 . S
C351 C350 1.499 . S
C351 C352 1.370 . S
C351 C356 1.415 . S
C352 H341 0.930 . S
C352 C351 1.370 . S
C352 C353 1.407 . S
C353 C352 1.407 . S
C353 C354 1.365 . S
C354 H342 0.930 . S
C354 C353 1.365 . S
C354 C355 1.393 . S
C355 C354 1.393 . S
C355 C356 1.387 . S
C356 H343 0.930 . S
C356 C351 1.415 . S
C356 C355 1.387 . S
H357 C365 0.930 . S
H358 C368 0.930 . S
H359 C370 0.930 . S
H360 C371 0.970 . S
H361 C371 0.970 . S
H362 C373 0.930 . S
H363 C375 0.930 . S
H364 C377 0.930 . S
C365 H357 0.930 . S
C365 C366 1.382 . S
C365 C367 1.426 . S
C366 C365 1.382 . S
C366 C370 1.389 . S
C367 C365 1.426 . S
C367 C368 1.375 . S
C367 C371 1.532 . S
C368 H358 0.930 . S
C368 C367 1.375 . S
C368 C369 1.416 . S
C369 C368 1.416 . S
C369 C370 1.371 . S
C370 H359 0.930 . S
C370 C366 1.389 . S
C370 C369 1.371 . S
C371 H360 0.970 . S
C371 H361 0.970 . S
C371 C367 1.532 . S
C371 C372 1.499 . S
C372 C371 1.499 . S
C372 C373 1.370 . S
C372 C377 1.415 . S
C373 H362 0.930 . S
C373 C372 1.370 . S
C373 C374 1.407 . S
C374 C373 1.407 . S
C374 C375 1.365 . S
C375 H363 0.930 . S
C375 C374 1.365 . S
C375 C376 1.393 . S
C376 C375 1.393 . S
C376 C377 1.387 . S
C377 H364 0.930 . S
C377 C372 1.415 . S
C377 C376 1.387 . S
H378 C386 0.930 . S
H379 C389 0.930 . S
H380 C391 0.930 . S
H381 C392 0.970 . S
H382 C392 0.970 . S
H383 C394 0.930 . S
H384 C396 0.930 . S
H385 C398 0.930 . S
C386 H378 0.930 . S
C386 C387 1.382 . S
C386 C388 1.426 . S
C387 C386 1.382 . S
C387 C391 1.389 . S
C388 C386 1.426 . S
C388 C389 1.375 . S
C388 C392 1.532 . S
C389 H379 0.930 . S
C389 C388 1.375 . S
C389 C390 1.416 . S
C390 C389 1.416 . S
C390 C391 1.371 . S
C391 H380 0.930 . S
C391 C387 1.389 . S
C391 C390 1.371 . S
C392 H381 0.970 . S
C392 H382 0.970 . S
C392 C388 1.532 . S
C392 C393 1.499 . S
C393 C392 1.499 . S
C393 C394 1.370 . S
C393 C398 1.415 . S
C394 H383 0.930 . S
C394 C393 1.370 . S
C394 C395 1.407 . S
C395 C394 1.407 . S
C395 C396 1.365 . S
C396 H384 0.930 . S
C396 C395 1.365 . S
C396 C397 1.393 . S
C397 C396 1.393 . S
C397 C398 1.387 . S
C398 H385 0.930 . S
C398 C393 1.415 . S
C398 C397 1.387 . S
H399 C407 0.930 . S
H400 C410 0.930 . S
H401 C412 0.930 . S
H402 C413 0.970 . S
H403 C413 0.970 . S
H404 C415 0.930 . S
H405 C417 0.930 . S
H406 C419 0.930 . S
C407 H399 0.930 . S
C407 C408 1.382 . S
C407 C409 1.426 . S
C408 C407 1.382 . S
C408 C412 1.389 . S
C409 C407 1.426 . S
C409 C410 1.375 . S
C409 C413 1.532 . S
C410 H400 0.930 . S
C410 C409 1.375 . S
C410 C411 1.416 . S
C411 C410 1.416 . S
C411 C412 1.371 . S
C412 H401 0.930 . S
C412 C408 1.389 . S
C412 C411 1.371 . S
C413 H402 0.970 . S
C413 H403 0.970 . S
C413 C409 1.532 . S
C413 C414 1.499 . S
C414 C413 1.499 . S
C414 C415 1.370 . S
C414 C419 1.415 . S
C415 H404 0.930 . S
C415 C414 1.370 . S
C415 C416 1.407 . S
C416 C415 1.407 . S
C416 C417 1.365 . S
C417 H405 0.930 . S
C417 C416 1.365 . S
C417 C418 1.393 . S
C418 C417 1.393 . S
C418 C419 1.387 . S
C419 H406 0.930 . S
C419 C414 1.415 . S
C419 C418 1.387 . S
H420 C428 0.930 . S
H421 C431 0.930 . S
H422 C433 0.930 . S
H423 C434 0.970 . S
H424 C434 0.970 . S
H425 C436 0.930 . S
H426 C438 0.930 . S
H427 C440 0.930 . S
C428 H420 0.930 . S
C428 C429 1.382 . S
C428 C430 1.426 . S
C429 C428 1.382 . S
C429 C433 1.389 . S
C430 C428 1.426 . S
C430 C431 1.375 . S
C430 C434 1.532 . S
C431 H421 0.930 . S
C431 C430 1.375 . S
C431 C432 1.416 . S
C432 C431 1.416 . S
C432 C433 1.371 . S
C433 H422 0.930 . S
C433 C429 1.389 . S
C433 C432 1.371 . S
C434 H423 0.970 . S
C434 H424 0.970 . S
C434 C430 1.532 . S
C434 C435 1.499 . S
C435 C434 1.499 . S
C435 C436 1.370 . S
C435 C440 1.415 . S
C436 H425 0.930 . S
C436 C435 1.370 . S
C436 C437 1.407 . S
C437 C436 1.407 . S
C437 C438 1.365 . S
C438 H426 0.930 . S
C438 C437 1.365 . S
C438 C439 1.393 . S
C439 C438 1.393 . S
C439 C440 1.387 . S
C440 H427 0.930 . S
C440 C435 1.415 . S
C440 C439 1.387 . S
H441 C449 0.930 . S
H442 C452 0.930 . S
H443 C454 0.930 . S
H444 C455 0.970 . S
H445 C455 0.970 . S
H446 C457 0.930 . S
H447 C459 0.930 . S
H448 C461 0.930 . S
C449 H441 0.930 . S
C449 C450 1.382 . S
C449 C451 1.426 . S
C450 C449 1.382 . S
C450 C454 1.389 1_455 S
C451 C449 1.426 . S
C451 C452 1.375 . S
C451 C455 1.532 . S
C452 H442 0.930 . S
C452 C451 1.375 . S
C452 C453 1.416 . S
C453 C452 1.416 . S
C453 C454 1.371 1_455 S
C454 H443 0.930 . S
C454 C450 1.389 1_655 S
C454 C453 1.371 1_655 S
C455 H444 0.970 . S
C455 H445 0.970 . S
C455 C451 1.532 . S
C455 C456 1.499 . S
C456 C455 1.499 . S
C456 C457 1.370 . S
C456 C461 1.415 . S
C457 H446 0.930 . S
C457 C456 1.370 . S
C457 C458 1.410 . S
C458 C457 1.410 . S
C458 C459 1.369 1_455 S
C459 H447 0.930 . S
C459 C458 1.369 1_655 S
C459 C460 1.393 1_655 S
C460 C459 1.393 1_455 S
C460 C461 1.387 . S
C461 H448 0.930 . S
C461 C456 1.415 . S
C461 C460 1.387 . S
H462 C470 0.930 . S
H463 C473 0.930 . S
H464 C475 0.930 . S
H465 C476 0.970 . S
H466 C476 0.970 . S
H467 C478 0.930 . S
H468 C480 0.930 . S
H469 C482 0.930 . S
C470 H462 0.930 . S
C470 C471 1.382 . S
C470 C472 1.426 . S
C471 C470 1.382 . S
C471 C475 1.389 . S
C472 C470 1.426 . S
C472 C473 1.375 . S
C472 C476 1.532 . S
C473 H463 0.930 . S
C473 C472 1.375 . S
C473 C474 1.416 . S
C474 C473 1.416 . S
C474 C475 1.371 . S
C475 H464 0.930 . S
C475 C471 1.389 . S
C475 C474 1.371 . S
C476 H465 0.970 . S
C476 H466 0.970 . S
C476 C472 1.532 . S
C476 C477 1.499 . S
C477 C476 1.499 . S
C477 C478 1.370 . S
C477 C482 1.415 . S
C478 H467 0.930 . S
C478 C477 1.370 . S
C478 C479 1.407 . S
C479 C478 1.407 . S
C479 C480 1.365 . S
C480 H468 0.930 . S
C480 C479 1.365 . S
C480 C481 1.393 . S
C481 C480 1.393 . S
C481 C482 1.387 . S
C482 H469 0.930 . S
C482 C477 1.415 . S
C482 C481 1.387 . S
H483 C491 0.930 . S
H484 C494 0.930 . S
H485 C496 0.930 . S
H486 C497 0.970 . S
H487 C497 0.970 . S
H488 C499 0.930 . S
H489 C501 0.930 . S
H490 C503 0.930 . S
C491 H483 0.930 . S
C491 C492 1.382 . S
C491 C493 1.426 . S
C492 C491 1.382 . S
C492 C496 1.389 1_565 S
C493 C491 1.426 . S
C493 C494 1.375 . S
C493 C497 1.532 . S
C494 H484 0.930 . S
C494 C493 1.375 . S
C494 C495 1.416 . S
C495 C494 1.416 . S
C495 C496 1.371 1_565 S
C496 H485 0.930 . S
C496 C492 1.389 1_545 S
C496 C495 1.371 1_545 S
C497 H486 0.970 . S
C497 H487 0.970 . S
C497 C493 1.532 . S
C497 C498 1.499 . S
C498 C497 1.499 . S
C498 C499 1.370 . S
C498 C503 1.415 . S
C499 H488 0.930 . S
C499 C498 1.370 . S
C499 C500 1.426 . S
C500 C499 1.426 . S
C500 C501 1.357 1_565 S
C501 H489 0.930 . S
C501 C500 1.357 1_545 S
C501 C502 1.393 1_545 S
C502 C501 1.393 1_565 S
C502 C503 1.387 . S
C503 H490 0.930 . S
C503 C498 1.415 . S
C503 C502 1.387 . S
H504 C512 0.930 . S
H505 C515 0.930 . S
H506 C517 0.930 . S
H507 C518 0.970 . S
H508 C518 0.970 . S
H509 C520 0.930 . S
H510 C522 0.930 . S
H511 C524 0.930 . S
C512 H504 0.930 . S
C512 C513 1.382 . S
C512 C514 1.426 . S
C513 C512 1.382 . S
C513 C517 1.389 1_565 S
C514 C512 1.426 . S
C514 C515 1.375 . S
C514 C518 1.532 . S
C515 H505 0.930 . S
C515 C514 1.375 . S
C515 C516 1.416 . S
C516 C515 1.416 . S
C516 C517 1.371 1_565 S
C517 H506 0.930 . S
C517 C513 1.389 1_545 S
C517 C516 1.371 1_545 S
C518 H507 0.970 . S
C518 H508 0.970 . S
C518 C514 1.532 . S
C518 C519 1.499 . S
C519 C518 1.499 . S
C519 C520 1.370 . S
C519 C524 1.415 . S
C520 H509 0.930 . S
C520 C519 1.370 . S
C520 C521 1.407 . S
C521 C520 1.407 . S
C521 C522 1.365 1_565 S
C522 H510 0.930 . S
C522 C521 1.365 1_545 S
C522 C523 1.393 1_545 S
C523 C522 1.393 1_565 S
C523 C524 1.387 . S
C524 H511 0.930 . S
C524 C519 1.415 . S
C524 C523 1.387 . S
H525 C533 0.930 . S
H526 C536 0.930 . S
H527 C538 0.930 . S
H528 C539 0.970 . S
H529 C539 0.970 . S
H530 C541 0.930 . S
H531 C543 0.930 . S
H532 C545 0.930 . S
C533 H525 0.930 . S
C533 C534 1.382 . S
C533 C535 1.426 . S
C534 C533 1.382 . S
C534 C538 1.389 1_455 S
C535 C533 1.426 . S
C535 C536 1.375 . S
C535 C539 1.532 . S
C536 H526 0.930 . S
C536 C535 1.375 . S
C536 C537 1.416 . S
C537 C536 1.416 . S
C537 C538 1.371 1_455 S
C538 H527 0.930 . S
C538 C534 1.389 1_655 S
C538 C537 1.371 1_655 S
C539 H528 0.970 . S
C539 H529 0.970 . S
C539 C535 1.532 . S
C539 C540 1.499 . S
C540 C539 1.499 . S
C540 C541 1.370 . S
C540 C545 1.415 . S
C541 H530 0.930 . S
C541 C540 1.370 . S
C541 C542 1.407 . S
C542 C541 1.407 . S
C542 C543 1.365 1_455 S
C543 H531 0.930 . S
C543 C542 1.365 1_655 S
C543 C544 1.393 1_655 S
C544 C543 1.393 1_455 S
C544 C545 1.387 . S
C545 H532 0.930 . S
C545 C540 1.415 . S
C545 C544 1.387 . S
H546 C554 0.930 . S
H547 C557 0.930 . S
H548 C559 0.930 . S
H549 C560 0.970 . S
H550 C560 0.970 . S
H551 C562 0.930 . S
H552 C564 0.930 . S
H553 C566 0.930 . S
C554 H546 0.930 . S
C554 C555 1.382 . S
C554 C556 1.426 . S
C555 C554 1.382 . S
C555 C559 1.389 . S
C556 C554 1.426 . S
C556 C557 1.375 . S
C556 C560 1.532 . S
C557 H547 0.930 . S
C557 C556 1.375 . S
C557 C558 1.416 . S
C558 C557 1.416 . S
C558 C559 1.371 . S
C559 H548 0.930 . S
C559 C555 1.389 . S
C559 C558 1.371 . S
C560 H549 0.970 . S
C560 H550 0.970 . S
C560 C556 1.532 . S
C560 C561 1.499 . S
C561 C560 1.499 . S
C561 C562 1.370 . S
C561 C566 1.415 . S
C562 H551 0.930 . S
C562 C561 1.370 . S
C562 C563 1.407 . S
C563 C562 1.407 . S
C563 C564 1.365 . S
C564 H552 0.930 . S
C564 C563 1.365 . S
C564 C565 1.393 . S
C565 C564 1.393 . S
C565 C566 1.387 . S
C566 H553 0.930 . S
C566 C561 1.415 . S
C566 C565 1.387 . S
H567 C575 0.930 . S
H568 C578 0.930 . S
H569 C580 0.930 . S
H570 C581 0.970 . S
H571 C581 0.970 . S
H572 C583 0.930 . S
H573 C585 0.930 . S
H574 C587 0.930 . S
C575 H567 0.930 . S
C575 C576 1.382 . S
C575 C577 1.426 . S
C576 C575 1.382 . S
C576 C580 1.389 . S
C577 C575 1.426 . S
C577 C578 1.375 . S
C577 C581 1.532 . S
C578 H568 0.930 . S
C578 C577 1.375 . S
C578 C579 1.416 . S
C579 C578 1.416 . S
C579 C580 1.371 . S
C580 H569 0.930 . S
C580 C576 1.389 . S
C580 C579 1.371 . S
C581 H570 0.970 . S
C581 H571 0.970 . S
C581 C577 1.532 . S
C581 C582 1.499 . S
C582 C581 1.499 . S
C582 C583 1.370 . S
C582 C587 1.415 . S
C583 H572 0.930 . S
C583 C582 1.370 . S
C583 C584 1.407 . S
C584 C583 1.407 . S
C584 C585 1.365 . S
C585 H573 0.930 . S
C585 C584 1.365 . S
C585 C586 1.393 . S
C586 C585 1.393 . S
C586 C587 1.387 . S
C587 H574 0.930 . S
C587 C582 1.415 . S
C587 C586 1.387 . S
H588 C596 0.930 . S
H589 C599 0.930 . S
H590 C601 0.930 . S
H591 C602 0.970 . S
H592 C602 0.970 . S
H593 C604 0.930 . S
H594 C606 0.930 . S
H595 C608 0.930 . S
C596 H588 0.930 . S
C596 C597 1.382 . S
C596 C598 1.426 . S
C597 C596 1.382 . S
C597 C601 1.389 . S
C598 C596 1.426 . S
C598 C599 1.375 . S
C598 C602 1.532 . S
C599 H589 0.930 . S
C599 C598 1.375 . S
C599 C600 1.416 . S
C600 C599 1.416 . S
C600 C601 1.371 . S
C601 H590 0.930 . S
C601 C597 1.389 . S
C601 C600 1.371 . S
C602 H591 0.970 . S
C602 H592 0.970 . S
C602 C598 1.532 . S
C602 C603 1.499 . S
C603 C602 1.499 . S
C603 C604 1.370 . S
C603 C608 1.415 . S
C604 H593 0.930 . S
C604 C603 1.370 . S
C604 C605 1.407 . S
C605 C604 1.407 . S
C605 C606 1.365 . S
C606 H594 0.930 . S
C606 C605 1.365 . S
C606 C607 1.393 . S
C607 C606 1.393 . S
C607 C608 1.387 . S
C608 H595 0.930 . S
C608 C603 1.415 . S
C608 C607 1.387 . S
H609 C617 0.930 . S
H610 C620 0.930 . S
H611 C622 0.930 . S
H612 C623 0.970 . S
H613 C623 0.970 . S
H614 C625 0.930 . S
H615 C627 0.930 . S
H616 C629 0.930 . S
C617 H609 0.930 . S
C617 C618 1.382 . S
C617 C619 1.426 . S
C618 C617 1.382 . S
C618 C622 1.389 . S
C619 C617 1.426 . S
C619 C620 1.375 . S
C619 C623 1.532 . S
C620 H610 0.930 . S
C620 C619 1.375 . S
C620 C621 1.416 . S
C621 C620 1.416 . S
C621 C622 1.371 . S
C622 H611 0.930 . S
C622 C618 1.389 . S
C622 C621 1.371 . S
C623 H612 0.970 . S
C623 H613 0.970 . S
C623 C619 1.532 . S
C623 C624 1.499 . S
C624 C623 1.499 . S
C624 C625 1.370 . S
C624 C629 1.415 . S
C625 H614 0.930 . S
C625 C624 1.370 . S
C625 C626 1.407 . S
C626 C625 1.407 . S
C626 C627 1.365 . S
C627 H615 0.930 . S
C627 C626 1.365 . S
C627 C628 1.393 . S
C628 C627 1.393 . S
C628 C629 1.387 . S
C629 H616 0.930 . S
C629 C624 1.415 . S
C629 C628 1.387 . S
C630 C631 1.369 1_455 S
C630 C632 1.419 . S
C630 H634 0.930 . S
C631 C630 1.369 1_655 S
C631 C640 1.429 . S
C632 C630 1.419 . S
C632 C633 1.363 1_455 S
C632 H635 0.929 . S
C633 C632 1.363 1_655 S
C633 C639 1.428 . S
H634 C630 0.930 . S
H635 C632 0.929 . S
S636 N637 1.613 . S
S636 N638 1.610 . S
N637 S636 1.613 . S
N637 C640 1.350 . S
N638 S636 1.610 . S
N638 C639 1.351 . S
C639 C633 1.428 . S
C639 N638 1.351 . S
C639 C640 1.434 . S
C640 C631 1.429 . S
C640 N637 1.350 . S
C640 C639 1.434 . S
C641 C642 1.369 . S
C641 C643 1.419 . S
C641 H645 0.930 . S
C642 C641 1.369 . S
C642 C651 1.429 . S
C643 C641 1.419 . S
C643 C644 1.363 . S
C643 H646 0.929 . S
C644 C643 1.363 . S
C644 C650 1.428 . S
H645 C641 0.930 . S
H646 C643 0.929 . S
S647 N648 1.613 . S
S647 N649 1.610 . S
N648 S647 1.613 . S
N648 C651 1.350 . S
N649 S647 1.610 . S
N649 C650 1.351 . S
C650 C644 1.428 . S
C650 N649 1.351 . S
C650 C651 1.434 . S
C651 C642 1.429 . S
C651 N648 1.350 . S
C651 C650 1.434 . S
C652 C653 1.369 . S
C652 C654 1.419 . S
C652 H656 0.930 . S
C653 C652 1.369 . S
C653 C662 1.429 1_545 S
C654 C652 1.419 . S
C654 C655 1.363 . S
C654 H657 0.929 . S
C655 C654 1.363 . S
C655 C661 1.428 1_545 S
H656 C652 0.930 . S
H657 C654 0.929 . S
S658 N659 1.613 . S
S658 N660 1.610 . S
N659 S658 1.613 . S
N659 C662 1.350 . S
N660 S658 1.610 . S
N660 C661 1.351 . S
C661 C655 1.428 1_565 S
C661 N660 1.351 . S
C661 C662 1.434 . S
C662 C653 1.429 1_565 S
C662 N659 1.350 . S
C662 C661 1.434 . S
C663 C664 1.369 . S
C663 C665 1.419 . S
C663 H667 0.930 . S
C664 C663 1.369 . S
C664 C673 1.429 1_565 S
C665 C663 1.419 . S
C665 C666 1.363 . S
C665 H668 0.929 . S
C666 C665 1.363 . S
C666 C672 1.428 1_565 S
H667 C663 0.930 . S
H668 C665 0.929 . S
S669 N670 1.613 . S
S669 N671 1.610 . S
N670 S669 1.613 . S
N670 C673 1.350 . S
N671 S669 1.610 . S
N671 C672 1.351 . S
C672 C666 1.428 1_545 S
C672 N671 1.351 . S
C672 C673 1.434 . S
C673 C664 1.429 1_545 S
C673 N670 1.350 . S
C673 C672 1.434 . S
C674 C675 1.369 1_655 S
C674 C676 1.419 . S
C674 H678 0.930 . S
C675 C674 1.369 1_455 S
C675 C684 1.429 . S
C676 C674 1.419 . S
C676 C677 1.363 1_655 S
C676 H679 0.929 . S
C677 C676 1.363 1_455 S
C677 C683 1.428 . S
H678 C674 0.930 . S
H679 C676 0.929 . S
S680 N681 1.613 . S
S680 N682 1.610 . S
N681 S680 1.613 . S
N681 C684 1.350 . S
N682 S680 1.610 . S
N682 C683 1.351 . S
C683 C677 1.428 . S
C683 N682 1.351 . S
C683 C684 1.434 . S
C684 C675 1.429 . S
C684 N681 1.350 . S
C684 C683 1.434 . S
C685 C686 1.369 . S
C685 C687 1.419 . S
C685 H689 0.930 . S
C686 C685 1.369 . S
C686 C695 1.429 . S
C687 C685 1.419 . S
C687 C688 1.363 . S
C687 H690 0.929 . S
C688 C687 1.363 . S
C688 C694 1.428 . S
H689 C685 0.930 . S
H690 C687 0.929 . S
S691 N692 1.613 . S
S691 N693 1.610 . S
N692 S691 1.613 . S
N692 C695 1.350 . S
N693 S691 1.610 . S
N693 C694 1.351 . S
C694 C688 1.428 . S
C694 N693 1.351 . S
C694 C695 1.434 . S
C695 C686 1.429 . S
C695 N692 1.350 . S
C695 C694 1.434 . S
C696 C697 1.369 1_655 S
C696 C698 1.419 . S
C696 H700 0.930 . S
C697 C696 1.369 1_455 S
C697 C706 1.429 . S
C698 C696 1.419 . S
C698 C699 1.363 1_655 S
C698 H701 0.929 . S
C699 C698 1.363 1_455 S
C699 C705 1.428 . S
H700 C696 0.930 . S
H701 C698 0.929 . S
S702 N703 1.613 . S
S702 N704 1.610 . S
N703 S702 1.613 . S
N703 C706 1.350 . S
N704 S702 1.610 . S
N704 C705 1.351 . S
C705 C699 1.428 . S
C705 N704 1.351 . S
C705 C706 1.434 . S
C706 C697 1.429 . S
C706 N703 1.350 . S
C706 C705 1.434 . S
C707 C708 1.369 . S
C707 C709 1.419 . S
C707 H711 0.930 . S
C708 C707 1.369 . S
C708 C717 1.429 . S
C709 C707 1.419 . S
C709 C710 1.363 . S
C709 H712 0.929 . S
C710 C709 1.363 . S
C710 C716 1.428 . S
H711 C707 0.930 . S
H712 C709 0.929 . S
S713 N714 1.613 . S
S713 N715 1.610 . S
N714 S713 1.613 . S
N714 C717 1.350 . S
N715 S713 1.610 . S
N715 C716 1.351 . S
C716 C710 1.428 . S
C716 N715 1.351 . S
C716 C717 1.434 . S
C717 C708 1.429 . S
C717 N714 1.350 . S
C717 C716 1.434 . S
C718 C719 1.369 . S
C718 C720 1.419 . S
C718 H722 0.930 . S
C719 C718 1.369 . S
C719 C728 1.429 1_565 S
C720 C718 1.419 . S
C720 C721 1.382 . S
C720 H723 0.929 . S
C721 C720 1.382 . S
C721 C727 1.423 1_565 S
H722 C718 0.930 . S
H723 C720 0.929 . S
S724 N725 1.613 . S
S724 N726 1.610 . S
N725 S724 1.613 . S
N725 C728 1.350 . S
N726 S724 1.610 . S
N726 C727 1.351 . S
C727 C721 1.423 1_545 S
C727 N726 1.351 . S
C727 C728 1.434 . S
C728 C719 1.429 1_545 S
C728 N725 1.350 . S
C728 C727 1.434 . S
C729 C730 1.369 . S
C729 C731 1.419 . S
C729 H733 0.930 . S
C730 C729 1.369 . S
C730 C739 1.429 1_545 S
C731 C729 1.419 . S
C731 C732 1.379 . S
C731 H734 0.929 . S
C732 C731 1.379 . S
C732 C738 1.394 1_545 S
H733 C729 0.930 . S
H734 C731 0.929 . S
S735 N736 1.613 . S
S735 N737 1.610 . S
N736 S735 1.613 . S
N736 C739 1.350 . S
N737 S735 1.610 . S
N737 C738 1.351 . S
C738 C732 1.394 1_565 S
C738 N737 1.351 . S
C738 C739 1.434 . S
C739 C730 1.429 1_565 S
C739 N736 1.350 . S
C739 C738 1.434 . S
C740 C741 1.369 1_455 S
C740 C742 1.419 . S
C740 H744 0.930 . S
C741 C740 1.369 1_655 S
C741 C750 1.429 . S
C742 C740 1.419 . S
C742 C743 1.363 1_455 S
C742 H745 0.929 . S
C743 C742 1.363 1_655 S
C743 C749 1.428 . S
H744 C740 0.930 . S
H745 C742 0.929 . S
S746 N747 1.613 . S
S746 N748 1.610 . S
N747 S746 1.613 . S
N747 C750 1.350 . S
N748 S746 1.610 . S
N748 C749 1.351 . S
C749 C743 1.428 . S
C749 N748 1.351 . S
C749 C750 1.434 . S
C750 C741 1.429 . S
C750 N747 1.350 . S
C750 C749 1.434 . S
C751 C752 1.369 . S
C751 C753 1.419 . S
C751 H755 0.930 . S
C752 C751 1.369 . S
C752 C761 1.429 . S
C753 C751 1.419 . S
C753 C754 1.363 . S
C753 H756 0.929 . S
C754 C753 1.363 . S
C754 C760 1.428 . S
H755 C751 0.930 . S
H756 C753 0.929 . S
S757 N758 1.613 . S
S757 N759 1.610 . S
N758 S757 1.613 . S
N758 C761 1.350 . S
N759 S757 1.610 . S
N759 C760 1.351 . S
C760 C754 1.428 . S
C760 N759 1.351 . S
C760 C761 1.434 . S
C761 C752 1.429 . S
C761 N758 1.350 . S
C761 C760 1.434 . S
C762 C763 1.369 . S
C762 C764 1.419 . S
C762 H766 0.930 . S
C763 C762 1.369 . S
C763 C772 1.429 . S
C764 C762 1.419 . S
C764 C765 1.363 . S
C764 H767 0.929 . S
C765 C764 1.363 . S
C765 C771 1.428 . S
H766 C762 0.930 . S
H767 C764 0.929 . S
S768 N769 1.613 . S
S768 N770 1.610 . S
N769 S768 1.613 . S
N769 C772 1.350 . S
N770 S768 1.610 . S
N770 C771 1.351 . S
C771 C765 1.428 . S
C771 N770 1.351 . S
C771 C772 1.434 . S
C772 C763 1.429 . S
C772 N769 1.350 . S
C772 C771 1.434 . S
C773 C774 1.369 . S
C773 C775 1.419 . S
C773 H777 0.930 . S
C774 C773 1.369 . S
C774 C783 1.429 . S
C775 C773 1.419 . S
C775 C776 1.363 . S
C775 H778 0.929 . S
C776 C775 1.363 . S
C776 C782 1.428 . S
H777 C773 0.930 . S
H778 C775 0.929 . S
S779 N780 1.613 . S
S779 N781 1.610 . S
N780 S779 1.613 . S
N780 C783 1.350 . S
N781 S779 1.610 . S
N781 C782 1.351 . S
C782 C776 1.428 . S
C782 N781 1.351 . S
C782 C783 1.434 . S
C783 C774 1.429 . S
C783 N780 1.350 . S
C783 C782 1.434 . S
C784 C785 1.369 . S
C784 C786 1.419 . S
C784 H788 0.930 . S
C785 C784 1.369 . S
C785 C794 1.429 . S
C786 C784 1.419 . S
C786 C787 1.363 . S
C786 H789 0.929 . S
C787 C786 1.363 . S
C787 C793 1.428 . S
H788 C784 0.930 . S
H789 C786 0.929 . S
S790 N791 1.613 . S
S790 N792 1.610 . S
N791 S790 1.613 . S
N791 C794 1.350 . S
N792 S790 1.610 . S
N792 C793 1.351 . S
C793 C787 1.428 . S
C793 N792 1.351 . S
C793 C794 1.434 . S
C794 C785 1.429 . S
C794 N791 1.350 . S
C794 C793 1.434 . S
C795 C796 1.369 . S
C795 C797 1.419 . S
C795 H799 0.930 . S
C796 C795 1.369 . S
C796 C805 1.429 . S
C797 C795 1.419 . S
C797 C798 1.363 . S
C797 H800 0.929 . S
C798 C797 1.363 . S
C798 C804 1.428 . S
H799 C795 0.930 . S
H800 C797 0.929 . S
S801 N802 1.613 . S
S801 N803 1.610 . S
N802 S801 1.613 . S
N802 C805 1.350 . S
N803 S801 1.610 . S
N803 C804 1.351 . S
C804 C798 1.428 . S
C804 N803 1.351 . S
C804 C805 1.434 . S
C805 C796 1.429 . S
C805 N802 1.350 . S
C805 C804 1.434 . S
C806 C807 1.369 . S
C806 C808 1.419 . S
C806 H810 0.930 . S
C807 C806 1.369 . S
C807 C816 1.429 . S
C808 C806 1.419 . S
C808 C809 1.363 . S
C808 H811 0.929 . S
C809 C808 1.363 . S
C809 C815 1.428 . S
H810 C806 0.930 . S
H811 C808 0.929 . S
S812 N813 1.613 . S
S812 N814 1.610 . S
N813 S812 1.613 . S
N813 C816 1.350 . S
N814 S812 1.610 . S
N814 C815 1.351 . S
C815 C809 1.428 . S
C815 N814 1.351 . S
C815 C816 1.434 . S
C816 C807 1.429 . S
C816 N813 1.350 . S
C816 C815 1.434 . S
C817 C818 1.369 . S
C817 C819 1.419 . S
C817 H821 0.930 . S
C818 C817 1.369 . S
C818 C827 1.429 . S
C819 C817 1.419 . S
C819 C820 1.363 . S
C819 H822 0.929 . S
C820 C819 1.363 . S
C820 C826 1.428 . S
H821 C817 0.930 . S
H822 C819 0.929 . S
S823 N824 1.613 . S
S823 N825 1.610 . S
N824 S823 1.613 . S
N824 C827 1.350 . S
N825 S823 1.610 . S
N825 C826 1.351 . S
C826 C820 1.428 . S
C826 N825 1.351 . S
C826 C827 1.434 . S
C827 C818 1.429 . S
C827 N824 1.350 . S
C827 C826 1.434 . S
C828 C829 1.369 . S
C828 C830 1.419 . S
C828 H832 0.930 . S
C829 C828 1.369 . S
C829 C838 1.429 . S
C830 C828 1.419 . S
C830 C831 1.363 . S
C830 H833 0.929 . S
C831 C830 1.363 . S
C831 C837 1.428 . S
H832 C828 0.930 . S
H833 C830 0.929 . S
S834 N835 1.613 . S
S834 N836 1.610 . S
N835 S834 1.613 . S
N835 C838 1.350 . S
N836 S834 1.610 . S
N836 C837 1.351 . S
C837 C831 1.428 . S
C837 N836 1.351 . S
C837 C838 1.434 . S
C838 C829 1.429 . S
C838 N835 1.350 . S
C838 C837 1.434 . S
C839 C840 1.369 . S
C839 C841 1.419 . S
C839 H843 0.930 . S
C840 C839 1.369 . S
C840 C849 1.429 . S
C841 C839 1.419 . S
C841 C842 1.363 . S
C841 H844 0.929 . S
C842 C841 1.363 . S
C842 C848 1.428 . S
H843 C839 0.930 . S
H844 C841 0.929 . S
S845 N846 1.613 . S
S845 N847 1.610 . S
N846 S845 1.613 . S
N846 C849 1.350 . S
N847 S845 1.610 . S
N847 C848 1.351 . S
C848 C842 1.428 . S
C848 N847 1.351 . S
C848 C849 1.434 . S
C849 C840 1.429 . S
C849 N846 1.350 . S
C849 C848 1.434 . S
C850 C851 1.369 . S
C850 C852 1.419 . S
C850 H854 0.930 . S
C851 C850 1.369 . S
C851 C860 1.429 . S
C852 C850 1.419 . S
C852 C853 1.363 . S
C852 H855 0.929 . S
C853 C852 1.363 . S
C853 C859 1.428 . S
H854 C850 0.930 . S
H855 C852 0.929 . S
S856 N857 1.613 . S
S856 N858 1.610 . S
N857 S856 1.613 . S
N857 C860 1.350 . S
N858 S856 1.610 . S
N858 C859 1.351 . S
C859 C853 1.428 . S
C859 N858 1.351 . S
C859 C860 1.434 . S
C860 C851 1.429 . S
C860 N857 1.350 . S
C860 C859 1.434 . S
C861 C862 1.369 . S
C861 C863 1.419 . S
C861 H865 0.930 . S
C862 C861 1.369 . S
C862 C871 1.429 . S
C863 C861 1.419 . S
C863 C864 1.363 . S
C863 H866 0.929 . S
C864 C863 1.363 . S
C864 C870 1.428 . S
H865 C861 0.930 . S
H866 C863 0.929 . S
S867 N868 1.613 . S
S867 N869 1.610 . S
N868 S867 1.613 . S
N868 C871 1.350 . S
N869 S867 1.610 . S
N869 C870 1.351 . S
C870 C864 1.428 . S
C870 N869 1.351 . S
C870 C871 1.434 . S
C871 C862 1.429 . S
C871 N868 1.350 . S
C871 C870 1.434 . S
C872 C873 1.369 . S
C872 C874 1.419 . S
C872 H876 0.930 . S
C873 C872 1.369 . S
C873 C882 1.429 . S
C874 C872 1.419 . S
C874 C875 1.363 . S
C874 H877 0.929 . S
C875 C874 1.363 . S
C875 C881 1.428 . S
H876 C872 0.930 . S
H877 C874 0.929 . S
S878 N879 1.613 . S
S878 N880 1.610 . S
N879 S878 1.613 . S
N879 C882 1.350 . S
N880 S878 1.610 . S
N880 C881 1.351 . S
C881 C875 1.428 . S
C881 N880 1.351 . S
C881 C882 1.434 . S
C882 C873 1.429 . S
C882 N879 1.350 . S
C882 C881 1.434 . S
C883 C884 1.369 . S
C883 C885 1.419 . S
C883 H887 0.930 . S
C884 C883 1.369 . S
C884 C893 1.429 . S
C885 C883 1.419 . S
C885 C886 1.363 . S
C885 H888 0.929 . S
C886 C885 1.363 . S
C886 C892 1.428 . S
H887 C883 0.930 . S
H888 C885 0.929 . S
S889 N890 1.613 . S
S889 N891 1.610 . S
N890 S889 1.613 . S
N890 C893 1.350 . S
N891 S889 1.610 . S
N891 C892 1.351 . S
C892 C886 1.428 . S
C892 N891 1.351 . S
C892 C893 1.434 . S
C893 C884 1.429 . S
C893 N890 1.350 . S
C893 C892 1.434 . S
C894 C895 1.369 . S
C894 C896 1.419 . S
C894 H898 0.930 . S
C895 C894 1.369 . S
C895 C904 1.429 . S
C896 C894 1.419 . S
C896 C897 1.363 . S
C896 H899 0.929 . S
C897 C896 1.363 . S
C897 C903 1.428 . S
H898 C894 0.930 . S
H899 C896 0.929 . S
S900 N901 1.613 . S
S900 N902 1.610 . S
N901 S900 1.613 . S
N901 C904 1.350 . S
N902 S900 1.610 . S
N902 C903 1.351 . S
C903 C897 1.428 . S
C903 N902 1.351 . S
C903 C904 1.434 . S
C904 C895 1.429 . S
C904 N901 1.350 . S
C904 C903 1.434 . S
C905 C906 1.369 . S
C905 C907 1.419 . S
C905 H909 0.930 . S
C906 C905 1.369 . S
C906 C915 1.429 . S
C907 C905 1.419 . S
C907 C908 1.363 . S
C907 H910 0.929 . S
C908 C907 1.363 . S
C908 C914 1.428 . S
H909 C905 0.930 . S
H910 C907 0.929 . S
S911 N912 1.613 . S
S911 N913 1.610 . S
N912 S911 1.613 . S
N912 C915 1.350 . S
N913 S911 1.610 . S
N913 C914 1.351 . S
C914 C908 1.428 . S
C914 N913 1.351 . S
C914 C915 1.434 . S
C915 C906 1.429 . S
C915 N912 1.350 . S
C915 C914 1.434 . S
C916 C917 1.369 . S
C916 C918 1.419 . S
C916 H920 0.930 . S
C917 C916 1.369 . S
C917 C926 1.429 . S
C918 C916 1.419 . S
C918 C919 1.363 . S
C918 H921 0.929 . S
C919 C918 1.363 . S
C919 C925 1.428 . S
H920 C916 0.930 . S
H921 C918 0.929 . S
S922 N923 1.613 . S
S922 N924 1.610 . S
N923 S922 1.613 . S
N923 C926 1.350 . S
N924 S922 1.610 . S
N924 C925 1.351 . S
C925 C919 1.428 . S
C925 N924 1.351 . S
C925 C926 1.434 . S
C926 C917 1.429 . S
C926 N923 1.350 . S
C926 C925 1.434 . S
C927 C928 1.369 . S
C927 C929 1.419 . S
C927 H931 0.930 . S
C928 C927 1.369 . S
C928 C937 1.429 . S
C929 C927 1.419 . S
C929 C930 1.363 . S
C929 H932 0.929 . S
C930 C929 1.363 . S
C930 C936 1.428 . S
H931 C927 0.930 . S
H932 C929 0.929 . S
S933 N934 1.613 . S
S933 N935 1.610 . S
N934 S933 1.613 . S
N934 C937 1.350 . S
N935 S933 1.610 . S
N935 C936 1.351 . S
C936 C930 1.428 . S
C936 N935 1.351 . S
C936 C937 1.434 . S
C937 C928 1.429 . S
C937 N934 1.350 . S
C937 C936 1.434 . S
C938 C939 1.369 . S
C938 C940 1.419 . S
C938 H942 0.930 . S
C939 C938 1.369 . S
C939 C948 1.429 . S
C940 C938 1.419 . S
C940 C941 1.363 . S
C940 H943 0.929 . S
C941 C940 1.363 . S
C941 C947 1.428 . S
H942 C938 0.930 . S
H943 C940 0.929 . S
S944 N945 1.613 . S
S944 N946 1.610 . S
N945 S944 1.613 . S
N945 C948 1.350 . S
N946 S944 1.610 . S
N946 C947 1.351 . S
C947 C941 1.428 . S
C947 N946 1.351 . S
C947 C948 1.434 . S
C948 C939 1.429 . S
C948 N945 1.350 . S
C948 C947 1.434 . S
C949 C950 1.369 . S
C949 C951 1.419 . S
C949 H953 0.930 . S
C950 C949 1.369 . S
C950 C959 1.429 . S
C951 C949 1.419 . S
C951 C952 1.363 . S
C951 H954 0.929 . S
C952 C951 1.363 . S
C952 C958 1.428 . S
H953 C949 0.930 . S
H954 C951 0.929 . S
S955 N956 1.613 . S
S955 N957 1.610 . S
N956 S955 1.613 . S
N956 C959 1.350 . S
N957 S955 1.610 . S
N957 C958 1.351 . S
C958 C952 1.428 . S
C958 N957 1.351 . S
C958 C959 1.434 . S
C959 C950 1.429 . S
C959 N956 1.350 . S
C959 C958 1.434 . S
C960 C961 1.369 . S
C960 C962 1.419 . S
C960 H964 0.930 . S
C961 C960 1.369 . S
C961 C970 1.429 . S
C962 C960 1.419 . S
C962 C963 1.363 . S
C962 H965 0.929 . S
C963 C962 1.363 . S
C963 C969 1.428 . S
H964 C960 0.930 . S
H965 C962 0.929 . S
S966 N967 1.613 . S
S966 N968 1.610 . S
N967 S966 1.613 . S
N967 C970 1.350 . S
N968 S966 1.610 . S
N968 C969 1.351 . S
C969 C963 1.428 . S
C969 N968 1.351 . S
C969 C970 1.434 . S
C970 C961 1.429 . S
C970 N967 1.350 . S
C970 C969 1.434 . S
C971 C972 1.369 . S
C971 C973 1.419 . S
C971 H975 0.930 . S
C972 C971 1.369 . S
C972 C981 1.429 . S
C973 C971 1.419 . S
C973 C974 1.363 . S
C973 H976 0.929 . S
C974 C973 1.363 . S
C974 C980 1.428 . S
H975 C971 0.930 . S
H976 C973 0.929 . S
S977 N978 1.613 . S
S977 N979 1.610 . S
N978 S977 1.613 . S
N978 C981 1.350 . S
N979 S977 1.610 . S
N979 C980 1.351 . S
C980 C974 1.428 . S
C980 N979 1.351 . S
C980 C981 1.434 . S
C981 C972 1.429 . S
C981 N978 1.350 . S
C981 C980 1.434 . S
C982 C983 1.369 . S
C982 C984 1.419 . S
C982 H986 0.930 . S
C983 C982 1.369 . S
C983 C992 1.429 . S
C984 C982 1.419 . S
C984 C985 1.363 . S
C984 H987 0.929 . S
C985 C984 1.363 . S
C985 C991 1.428 . S
H986 C982 0.930 . S
H987 C984 0.929 . S
S988 N989 1.613 . S
S988 N990 1.610 . S
N989 S988 1.613 . S
N989 C992 1.350 . S
N990 S988 1.610 . S
N990 C991 1.351 . S
C991 C985 1.428 . S
C991 N990 1.351 . S
C991 C992 1.434 . S
C992 C983 1.429 . S
C992 N989 1.350 . S
C992 C991 1.434 . S
C993 C994 1.369 . S
C993 C995 1.419 . S
C993 H997 0.930 . S
C994 C993 1.369 . S
C994 C1003 1.429 . S
C995 C993 1.419 . S
C995 C996 1.363 . S
C995 H998 0.929 . S
C996 C995 1.363 . S
C996 C1002 1.428 . S
H997 C993 0.930 . S
H998 C995 0.929 . S
S999 N1000 1.613 . S
S999 N1001 1.610 . S
N1000 S999 1.613 . S
N1000 C1003 1.350 . S
N1001 S999 1.610 . S
N1001 C1002 1.351 . S
C1002 C996 1.428 . S
C1002 N1001 1.351 . S
C1002 C1003 1.434 . S
C1003 C994 1.429 . S
C1003 N1000 1.350 . S
C1003 C1002 1.434 . S
C1004 C1005 1.369 . S
C1004 C1006 1.419 . S
C1004 H1008 0.930 . S
C1005 C1004 1.369 . S
C1005 C1014 1.429 . S
C1006 C1004 1.419 . S
C1006 C1007 1.363 . S
C1006 H1009 0.929 . S
C1007 C1006 1.363 . S
C1007 C1013 1.428 . S
H1008 C1004 0.930 . S
H1009 C1006 0.929 . S
S1010 N1011 1.613 . S
S1010 N1012 1.610 . S
N1011 S1010 1.613 . S
N1011 C1014 1.350 . S
N1012 S1010 1.610 . S
N1012 C1013 1.351 . S
C1013 C1007 1.428 . S
C1013 N1012 1.351 . S
C1013 C1014 1.434 . S
C1014 C1005 1.429 . S
C1014 N1011 1.350 . S
C1014 C1013 1.434 . S
C1015 C1016 1.369 . S
C1015 C1017 1.419 . S
C1015 H1019 0.930 . S
C1016 C1015 1.369 . S
C1016 C1025 1.429 . S
C1017 C1015 1.419 . S
C1017 C1018 1.363 . S
C1017 H1020 0.929 . S
C1018 C1017 1.363 . S
C1018 C1024 1.428 . S
H1019 C1015 0.930 . S
H1020 C1017 0.929 . S
S1021 N1022 1.613 . S
S1021 N1023 1.610 . S
N1022 S1021 1.613 . S
N1022 C1025 1.350 . S
N1023 S1021 1.610 . S
N1023 C1024 1.351 . S
C1024 C1018 1.428 . S
C1024 N1023 1.351 . S
C1024 C1025 1.434 . S
C1025 C1016 1.429 . S
C1025 N1022 1.350 . S
C1025 C1024 1.434 . S
C1026 C1027 1.369 . S
C1026 C1028 1.419 . S
C1026 H1030 0.930 . S
C1027 C1026 1.369 . S
C1027 C1036 1.429 . S
C1028 C1026 1.419 . S
C1028 C1029 1.363 . S
C1028 H1031 0.929 . S
C1029 C1028 1.363 . S
C1029 C1035 1.428 . S
H1030 C1026 0.930 . S
H1031 C1028 0.929 . S
S1032 N1033 1.613 . S
S1032 N1034 1.610 . S
N1033 S1032 1.613 . S
N1033 C1036 1.350 . S
N1034 S1032 1.610 . S
N1034 C1035 1.351 . S
C1035 C1029 1.428 . S
C1035 N1034 1.351 . S
C1035 C1036 1.434 . S
C1036 C1027 1.429 . S
C1036 N1033 1.350 . S
C1036 C1035 1.434 . S
C1037 C1038 1.369 . S
C1037 C1039 1.419 . S
C1037 H1041 0.930 . S
C1038 C1037 1.369 . S
C1038 C1047 1.429 . S
C1039 C1037 1.419 . S
C1039 C1040 1.363 . S
C1039 H1042 0.929 . S
C1040 C1039 1.363 . S
C1040 C1046 1.428 . S
H1041 C1037 0.930 . S
H1042 C1039 0.929 . S
S1043 N1044 1.613 1_556 S
S1043 N1045 1.610 1_556 S
N1044 S1043 1.613 1_554 S
N1044 C1047 1.350 . S
N1045 S1043 1.610 1_554 S
N1045 C1046 1.351 . S
C1046 C1040 1.428 . S
C1046 N1045 1.351 . S
C1046 C1047 1.434 . S
C1047 C1038 1.429 . S
C1047 N1044 1.350 . S
C1047 C1046 1.434 . S
C1048 C1049 1.369 . S
C1048 C1050 1.419 . S
C1048 H1052 0.930 . S
C1049 C1048 1.369 . S
C1049 C1058 1.429 . S
C1050 C1048 1.419 . S
C1050 C1051 1.363 . S
C1050 H1053 0.929 . S
C1051 C1050 1.363 . S
C1051 C1057 1.428 . S
H1052 C1048 0.930 . S
H1053 C1050 0.929 . S
S1054 N1055 1.613 . S
S1054 N1056 1.610 . S
N1055 S1054 1.613 . S
N1055 C1058 1.350 . S
N1056 S1054 1.610 . S
N1056 C1057 1.351 . S
C1057 C1051 1.428 . S
C1057 N1056 1.351 . S
C1057 C1058 1.434 . S
C1058 C1049 1.429 . S
C1058 N1055 1.350 . S
C1058 C1057 1.434 . S
C1059 C1060 1.369 . S
C1059 C1061 1.419 . S
C1059 H1063 0.930 1_556 S
C1060 C1059 1.369 . S
C1060 C1069 1.429 . S
C1061 C1059 1.419 . S
C1061 C1062 1.363 . S
C1061 H1064 0.929 . S
C1062 C1061 1.363 . S
C1062 C1068 1.428 . S
H1063 C1059 0.930 1_554 S
H1064 C1061 0.929 . S
S1065 N1066 1.613 . S
S1065 N1067 1.610 . S
N1066 S1065 1.613 . S
N1066 C1069 1.350 . S
N1067 S1065 1.610 . S
N1067 C1068 1.351 . S
C1068 C1062 1.428 . S
C1068 N1067 1.351 . S
C1068 C1069 1.434 . S
C1069 C1060 1.429 . S
C1069 N1066 1.350 . S
C1069 C1068 1.434 . S
C1070 C1071 1.369 . S
C1070 C1072 1.419 . S
C1070 H1074 0.930 . S
C1071 C1070 1.369 . S
C1071 C1080 1.429 . S
C1072 C1070 1.419 . S
C1072 C1073 1.363 . S
C1072 H1075 0.929 . S
C1073 C1072 1.363 . S
C1073 C1079 1.428 . S
H1074 C1070 0.930 . S
H1075 C1072 0.929 . S
S1076 N1077 1.613 . S
S1076 N1078 1.610 . S
N1077 S1076 1.613 . S
N1077 C1080 1.350 . S
N1078 S1076 1.610 . S
N1078 C1079 1.351 . S
C1079 C1073 1.428 . S
C1079 N1078 1.351 . S
C1079 C1080 1.434 . S
C1080 C1071 1.429 . S
C1080 N1077 1.350 . S
C1080 C1079 1.434 . S
C1081 C1082 1.369 . S
C1081 C1083 1.419 . S
C1081 H1085 0.930 . S
C1082 C1081 1.369 . S
C1082 C1091 1.429 . S
C1083 C1081 1.419 . S
C1083 C1084 1.363 . S
C1083 H1086 0.929 . S
C1084 C1083 1.363 . S
C1084 C1090 1.428 . S
H1085 C1081 0.930 . S
H1086 C1083 0.929 . S
S1087 N1088 1.613 . S
S1087 N1089 1.610 . S
N1088 S1087 1.613 . S
N1088 C1091 1.350 . S
N1089 S1087 1.610 . S
N1089 C1090 1.351 . S
C1090 C1084 1.428 . S
C1090 N1089 1.351 . S
C1090 C1091 1.434 . S
C1091 C1082 1.429 . S
C1091 N1088 1.350 . S
C1091 C1090 1.434 . S
C1092 C1093 1.369 . S
C1092 C1094 1.419 . S
C1092 H1096 0.930 . S
C1093 C1092 1.369 . S
C1093 C1102 1.429 . S
C1094 C1092 1.419 . S
C1094 C1095 1.363 . S
C1094 H1097 0.929 . S
C1095 C1094 1.363 . S
C1095 C1101 1.428 . S
H1096 C1092 0.930 . S
H1097 C1094 0.929 . S
S1098 N1099 1.613 . S
S1098 N1100 1.610 1_554 S
N1099 S1098 1.613 . S
N1099 C1102 1.350 1_554 S
N1100 S1098 1.610 1_556 S
N1100 C1101 1.351 . S
C1101 C1095 1.428 . S
C1101 N1100 1.351 . S
C1101 C1102 1.434 . S
C1102 C1093 1.429 . S
C1102 N1099 1.350 1_556 S
C1102 C1101 1.434 . S
C1103 C1104 1.369 . S
C1103 C1105 1.419 . S
C1103 H1107 0.930 1_556 S
C1104 C1103 1.369 . S
C1104 C1113 1.429 . S
C1105 C1103 1.419 . S
C1105 C1106 1.363 . S
C1105 H1108 0.929 . S
C1106 C1105 1.363 . S
C1106 C1112 1.428 . S
H1107 C1103 0.930 1_554 S
H1108 C1105 0.929 . S
S1109 N1110 1.613 . S
S1109 N1111 1.610 . S
N1110 S1109 1.613 . S
N1110 C1113 1.350 . S
N1111 S1109 1.610 . S
N1111 C1112 1.351 . S
C1112 C1106 1.428 . S
C1112 N1111 1.351 . S
C1112 C1113 1.434 . S
C1113 C1104 1.429 . S
C1113 N1110 1.350 . S
C1113 C1112 1.434 . S
C1114 C1115 1.369 . S
C1114 C1116 1.419 . S
C1114 H1118 0.930 1_556 S
C1115 C1114 1.369 . S
C1115 C1124 1.429 . S
C1116 C1114 1.419 . S
C1116 C1117 1.363 . S
C1116 H1119 0.929 . S
C1117 C1116 1.363 . S
C1117 C1123 1.428 . S
H1118 C1114 0.930 1_554 S
H1119 C1116 0.929 . S
S1120 N1121 1.613 . S
S1120 N1122 1.610 . S
N1121 S1120 1.613 . S
N1121 C1124 1.350 . S
N1122 S1120 1.610 . S
N1122 C1123 1.351 . S
C1123 C1117 1.428 . S
C1123 N1122 1.351 . S
C1123 C1124 1.434 . S
C1124 C1115 1.429 . S
C1124 N1121 1.350 . S
C1124 C1123 1.434 . S
C1125 C1126 1.369 . S
C1125 C1127 1.419 . S
C1125 H1129 0.930 . S
C1126 C1125 1.369 . S
C1126 C1135 1.429 . S
C1127 C1125 1.419 . S
C1127 C1128 1.363 . S
C1127 H1130 0.929 . S
C1128 C1127 1.363 . S
C1128 C1134 1.428 . S
H1129 C1125 0.930 . S
H1130 C1127 0.929 . S
S1131 N1132 1.613 . S
S1131 N1133 1.610 1_556 S
N1132 S1131 1.613 . S
N1132 C1135 1.350 1_556 S
N1133 S1131 1.610 1_554 S
N1133 C1134 1.351 . S
C1134 C1128 1.428 . S
C1134 N1133 1.351 . S
C1134 C1135 1.434 . S
C1135 C1126 1.429 . S
C1135 N1132 1.350 1_554 S
C1135 C1134 1.434 . S
C1136 C1137 1.369 . S
C1136 C1138 1.419 . S
C1136 H1140 0.930 . S
C1137 C1136 1.369 . S
C1137 C1146 1.429 . S
C1138 C1136 1.419 . S
C1138 C1139 1.363 . S
C1138 H1141 0.929 . S
C1139 C1138 1.363 . S
C1139 C1145 1.428 . S
H1140 C1136 0.930 . S
H1141 C1138 0.929 . S
S1142 N1143 1.613 . S
S1142 N1144 1.610 . S
N1143 S1142 1.613 . S
N1143 C1146 1.350 . S
N1144 S1142 1.610 . S
N1144 C1145 1.351 . S
C1145 C1139 1.428 . S
C1145 N1144 1.351 . S
C1145 C1146 1.434 . S
C1146 C1137 1.429 . S
C1146 N1143 1.350 . S
C1146 C1145 1.434 . S
C1147 C1148 1.369 . S
C1147 C1149 1.419 . S
C1147 H1151 0.930 . S
C1148 C1147 1.369 . S
C1148 C1157 1.429 . S
C1149 C1147 1.419 . S
C1149 C1150 1.363 . S
C1149 H1152 0.929 . S
C1150 C1149 1.363 . S
C1150 C1156 1.428 . S
H1151 C1147 0.930 . S
H1152 C1149 0.929 . S
S1153 N1154 1.613 . S
S1153 N1155 1.610 . S
N1154 S1153 1.613 . S
N1154 C1157 1.350 . S
N1155 S1153 1.610 . S
N1155 C1156 1.351 . S
C1156 C1150 1.428 . S
C1156 N1155 1.351 . S
C1156 C1157 1.434 . S
C1157 C1148 1.429 . S
C1157 N1154 1.350 . S
C1157 C1156 1.434 . S
C1158 C1159 1.369 . S
C1158 C1160 1.419 . S
C1158 H1162 0.930 . S
C1159 C1158 1.369 . S
C1159 C1168 1.429 . S
C1160 C1158 1.419 . S
C1160 C1161 1.363 . S
C1160 H1163 0.929 . S
C1161 C1160 1.363 . S
C1161 C1167 1.428 . S
H1162 C1158 0.930 . S
H1163 C1160 0.929 . S
S1164 N1165 1.613 . S
S1164 N1166 1.610 . S
N1165 S1164 1.613 . S
N1165 C1168 1.350 . S
N1166 S1164 1.610 . S
N1166 C1167 1.351 . S
C1167 C1161 1.428 . S
C1167 N1166 1.351 . S
C1167 C1168 1.434 . S
C1168 C1159 1.429 . S
C1168 N1165 1.350 . S
C1168 C1167 1.434 . S
C1169 C1170 1.369 . S
C1169 C1171 1.419 . S
C1169 H1173 0.930 . S
C1170 C1169 1.369 . S
C1170 C1179 1.429 . S
C1171 C1169 1.419 . S
C1171 C1172 1.363 . S
C1171 H1174 0.929 . S
C1172 C1171 1.363 . S
C1172 C1178 1.428 . S
H1173 C1169 0.930 . S
H1174 C1171 0.929 . S
S1175 N1176 1.613 . S
S1175 N1177 1.610 . S
N1176 S1175 1.613 . S
N1176 C1179 1.350 . S
N1177 S1175 1.610 . S
N1177 C1178 1.351 . S
C1178 C1172 1.428 . S
C1178 N1177 1.351 . S
C1178 C1179 1.434 . S
C1179 C1170 1.429 . S
C1179 N1176 1.350 . S
C1179 C1178 1.434 . S
C1180 C1181 1.369 . S
C1180 C1182 1.419 . S
C1180 H1184 0.930 . S
C1181 C1180 1.369 . S
C1181 C1190 1.429 . S
C1182 C1180 1.419 . S
C1182 C1183 1.363 . S
C1182 H1185 0.929 . S
C1183 C1182 1.363 . S
C1183 C1189 1.428 . S
H1184 C1180 0.930 . S
H1185 C1182 0.929 . S
S1186 N1187 1.613 . S
S1186 N1188 1.610 . S
N1187 S1186 1.613 . S
N1187 C1190 1.350 . S
N1188 S1186 1.610 . S
N1188 C1189 1.351 . S
C1189 C1183 1.428 . S
C1189 N1188 1.351 . S
C1189 C1190 1.434 . S
C1190 C1181 1.429 . S
C1190 N1187 1.350 . S
C1190 C1189 1.434 . S
C1191 C1192 1.369 . S
C1191 C1193 1.419 . S
C1191 H1195 0.930 . S
C1192 C1191 1.369 . S
C1192 C1201 1.429 1_455 S
C1193 C1191 1.419 . S
C1193 C1194 1.363 . S
C1193 H1196 0.929 . S
C1194 C1193 1.363 . S
C1194 C1200 1.428 1_455 S
H1195 C1191 0.930 . S
H1196 C1193 0.929 . S
S1197 N1198 1.613 . S
S1197 N1199 1.610 . S
N1198 S1197 1.613 . S
N1198 C1201 1.350 . S
N1199 S1197 1.610 . S
N1199 C1200 1.351 . S
C1200 C1194 1.428 1_655 S
C1200 N1199 1.351 . S
C1200 C1201 1.434 . S
C1201 C1192 1.429 1_655 S
C1201 N1198 1.350 . S
C1201 C1200 1.434 . S
C1202 C1203 1.369 . S
C1202 C1204 1.419 . S
C1202 H1206 0.930 . S
C1203 C1202 1.369 . S
C1203 C1212 1.429 . S
C1204 C1202 1.419 . S
C1204 C1205 1.363 . S
C1204 H1207 0.929 . S
C1205 C1204 1.363 . S
C1205 C1211 1.428 . S
H1206 C1202 0.930 . S
H1207 C1204 0.929 . S
S1208 N1209 1.613 . S
S1208 N1210 1.610 . S
N1209 S1208 1.613 . S
N1209 C1212 1.350 . S
N1210 S1208 1.610 . S
N1210 C1211 1.351 . S
C1211 C1205 1.428 . S
C1211 N1210 1.351 . S
C1211 C1212 1.434 . S
C1212 C1203 1.429 . S
C1212 N1209 1.350 . S
C1212 C1211 1.434 . S
C1213 C1214 1.369 . S
C1213 C1215 1.419 . S
C1213 H1217 0.930 . S
C1214 C1213 1.369 . S
C1214 C1223 1.429 1_565 S
C1215 C1213 1.419 . S
C1215 C1216 1.363 . S
C1215 H1218 0.929 . S
C1216 C1215 1.363 . S
C1216 C1222 1.428 1_565 S
H1217 C1213 0.930 . S
H1218 C1215 0.929 . S
S1219 N1220 1.613 . S
S1219 N1221 1.610 . S
N1220 S1219 1.613 . S
N1220 C1223 1.350 . S
N1221 S1219 1.610 . S
N1221 C1222 1.351 . S
C1222 C1216 1.428 1_545 S
C1222 N1221 1.351 . S
C1222 C1223 1.434 . S
C1223 C1214 1.429 1_545 S
C1223 N1220 1.350 . S
C1223 C1222 1.434 . S
C1224 C1225 1.369 . S
C1224 C1226 1.419 . S
C1224 H1228 0.930 . S
C1225 C1224 1.369 . S
C1225 C1234 1.429 1_565 S
C1226 C1224 1.419 . S
C1226 C1227 1.363 . S
C1226 H1229 0.929 . S
C1227 C1226 1.363 . S
C1227 C1233 1.428 1_565 S
H1228 C1224 0.930 . S
H1229 C1226 0.929 . S
S1230 N1231 1.613 . S
S1230 N1232 1.610 . S
N1231 S1230 1.613 . S
N1231 C1234 1.350 . S
N1232 S1230 1.610 . S
N1232 C1233 1.351 . S
C1233 C1227 1.428 1_545 S
C1233 N1232 1.351 . S
C1233 C1234 1.434 . S
C1234 C1225 1.429 1_545 S
C1234 N1231 1.350 . S
C1234 C1233 1.434 . S
C1235 C1236 1.369 1_655 S
C1235 C1237 1.419 . S
C1235 H1239 0.930 . S
C1236 C1235 1.369 1_455 S
C1236 C1245 1.429 . S
C1237 C1235 1.419 . S
C1237 C1238 1.363 1_655 S
C1237 H1240 0.929 . S
C1238 C1237 1.363 1_455 S
C1238 C1244 1.428 . S
H1239 C1235 0.930 . S
H1240 C1237 0.929 . S
S1241 N1242 1.613 . S
S1241 N1243 1.610 . S
N1242 S1241 1.613 . S
N1242 C1245 1.350 . S
N1243 S1241 1.610 . S
N1243 C1244 1.351 . S
C1244 C1238 1.428 . S
C1244 N1243 1.351 . S
C1244 C1245 1.434 . S
C1245 C1236 1.429 . S
C1245 N1242 1.350 . S
C1245 C1244 1.434 . S
C1246 C1247 1.369 . S
C1246 C1248 1.419 . S
C1246 H1250 0.930 . S
C1247 C1246 1.369 . S
C1247 C1256 1.429 . S
C1248 C1246 1.419 . S
C1248 C1249 1.363 . S
C1248 H1251 0.929 . S
C1249 C1248 1.363 . S
C1249 C1255 1.428 . S
H1250 C1246 0.930 . S
H1251 C1248 0.929 . S
S1252 N1253 1.613 . S
S1252 N1254 1.610 . S
N1253 S1252 1.613 . S
N1253 C1256 1.350 . S
N1254 S1252 1.610 . S
N1254 C1255 1.351 . S
C1255 C1249 1.428 . S
C1255 N1254 1.351 . S
C1255 C1256 1.434 . S
C1256 C1247 1.429 . S
C1256 N1253 1.350 . S
C1256 C1255 1.434 . S
C1257 C1258 1.369 . S
C1257 C1259 1.419 . S
C1257 H1261 0.930 . S
C1258 C1257 1.369 . S
C1258 C1267 1.429 . S
C1259 C1257 1.419 . S
C1259 C1260 1.363 . S
C1259 H1262 0.929 . S
C1260 C1259 1.363 . S
C1260 C1266 1.428 . S
H1261 C1257 0.930 . S
H1262 C1259 0.929 . S
S1263 N1264 1.613 . S
S1263 N1265 1.610 . S
N1264 S1263 1.613 . S
N1264 C1267 1.350 . S
N1265 S1263 1.610 . S
N1265 C1266 1.351 . S
C1266 C1260 1.428 . S
C1266 N1265 1.351 . S
C1266 C1267 1.434 . S
C1267 C1258 1.429 . S
C1267 N1264 1.350 . S
C1267 C1266 1.434 . S
C1268 C1269 1.369 . S
C1268 C1270 1.419 . S
C1268 H1272 0.930 . S
C1269 C1268 1.369 . S
C1269 C1278 1.429 . S
C1270 C1268 1.419 . S
C1270 C1271 1.363 . S
C1270 H1273 0.929 . S
C1271 C1270 1.363 . S
C1271 C1277 1.428 . S
H1272 C1268 0.930 . S
H1273 C1270 0.929 . S
S1274 N1275 1.613 . S
S1274 N1276 1.610 . S
N1275 S1274 1.613 . S
N1275 C1278 1.350 . S
N1276 S1274 1.610 . S
N1276 C1277 1.351 . S
C1277 C1271 1.428 . S
C1277 N1276 1.351 . S
C1277 C1278 1.434 . S
C1278 C1269 1.429 . S
C1278 N1275 1.350 . S
C1278 C1277 1.434 . S
C1279 C1280 1.369 . S
C1279 C1281 1.419 . S
C1279 H1283 0.930 . S
C1280 C1279 1.369 . S
C1280 C1289 1.429 . S
C1281 C1279 1.419 . S
C1281 C1282 1.363 . S
C1281 H1284 0.929 . S
C1282 C1281 1.363 . S
C1282 C1288 1.428 . S
H1283 C1279 0.930 . S
H1284 C1281 0.929 . S
S1285 N1286 1.613 . S
S1285 N1287 1.610 . S
N1286 S1285 1.613 . S
N1286 C1289 1.350 . S
N1287 S1285 1.610 . S
N1287 C1288 1.351 . S
C1288 C1282 1.428 . S
C1288 N1287 1.351 . S
C1288 C1289 1.434 . S
C1289 C1280 1.429 . S
C1289 N1286 1.350 . S
C1289 C1288 1.434 . S
C1290 C1291 1.369 1_565 S
C1290 C1292 1.419 . S
C1290 H1294 0.930 . S
C1291 C1290 1.369 1_545 S
C1291 C1300 1.429 . S
C1292 C1290 1.419 . S
C1292 C1293 1.363 1_565 S
C1292 H1295 0.929 . S
C1293 C1292 1.363 1_545 S
C1293 C1299 1.428 . S
H1294 C1290 0.930 . S
H1295 C1292 0.929 . S
S1296 N1297 1.613 . S
S1296 N1298 1.610 . S
N1297 S1296 1.613 . S
N1297 C1300 1.350 . S
N1298 S1296 1.610 . S
N1298 C1299 1.351 . S
C1299 C1293 1.428 . S
C1299 N1298 1.351 . S
C1299 C1300 1.434 . S
C1300 C1291 1.429 . S
C1300 N1297 1.350 . S
C1300 C1299 1.434 . S
C1301 C1302 1.369 . S
C1301 C1303 1.419 . S
C1301 H1305 0.930 . S
C1302 C1301 1.369 . S
C1302 C1311 1.429 . S
C1303 C1301 1.419 . S
C1303 C1304 1.363 . S
C1303 H1306 0.929 . S
C1304 C1303 1.363 . S
C1304 C1310 1.428 . S
H1305 C1301 0.930 . S
H1306 C1303 0.929 . S
S1307 N1308 1.613 . S
S1307 N1309 1.610 . S
N1308 S1307 1.613 . S
N1308 C1311 1.350 . S
N1309 S1307 1.610 . S
N1309 C1310 1.351 . S
C1310 C1304 1.428 . S
C1310 N1309 1.351 . S
C1310 C1311 1.434 . S
C1311 C1302 1.429 . S
C1311 N1308 1.350 . S
C1311 C1310 1.434 . S
C1312 C1313 1.369 . S
C1312 C1314 1.419 . S
C1312 H1316 0.930 . S
C1313 C1312 1.369 . S
C1313 C1322 1.429 . S
C1314 C1312 1.419 . S
C1314 C1315 1.363 . S
C1314 H1317 0.929 . S
C1315 C1314 1.363 . S
C1315 C1321 1.428 . S
H1316 C1312 0.930 . S
H1317 C1314 0.929 . S
S1318 N1319 1.613 . S
S1318 N1320 1.610 . S
N1319 S1318 1.613 . S
N1319 C1322 1.350 . S
N1320 S1318 1.610 . S
N1320 C1321 1.351 . S
C1321 C1315 1.428 . S
C1321 N1320 1.351 . S
C1321 C1322 1.434 . S
C1322 C1313 1.429 . S
C1322 N1319 1.350 . S
C1322 C1321 1.434 . S
C1323 C1324 1.369 . S
C1323 C1325 1.419 . S
C1323 H1327 0.930 . S
C1324 C1323 1.369 . S
C1324 C1333 1.429 . S
C1325 C1323 1.419 . S
C1325 C1326 1.363 . S
C1325 H1328 0.929 . S
C1326 C1325 1.363 . S
C1326 C1332 1.428 . S
H1327 C1323 0.930 . S
H1328 C1325 0.929 . S
S1329 N1330 1.613 . S
S1329 N1331 1.610 . S
N1330 S1329 1.613 . S
N1330 C1333 1.350 . S
N1331 S1329 1.610 . S
N1331 C1332 1.351 . S
C1332 C1326 1.428 . S
C1332 N1331 1.351 . S
C1332 C1333 1.434 . S
C1333 C1324 1.429 . S
C1333 N1330 1.350 . S
C1333 C1332 1.434 . S
C1334 C1335 1.369 . S
C1334 C1336 1.419 . S
C1334 H1338 0.930 . S
C1335 C1334 1.369 . S
C1335 C1344 1.429 . S
C1336 C1334 1.419 . S
C1336 C1337 1.363 . S
C1336 H1339 0.929 . S
C1337 C1336 1.363 . S
C1337 C1343 1.428 . S
H1338 C1334 0.930 . S
H1339 C1336 0.929 . S
S1340 N1341 1.613 . S
S1340 N1342 1.610 . S
N1341 S1340 1.613 . S
N1341 C1344 1.350 . S
N1342 S1340 1.610 . S
N1342 C1343 1.351 . S
C1343 C1337 1.428 . S
C1343 N1342 1.351 . S
C1343 C1344 1.434 . S
C1344 C1335 1.429 . S
C1344 N1341 1.350 . S
C1344 C1343 1.434 . S
C1345 C1346 1.369 . S
C1345 C1347 1.419 . S
C1345 H1349 0.930 . S
C1346 C1345 1.369 . S
C1346 C1355 1.429 . S
C1347 C1345 1.419 . S
C1347 C1348 1.363 . S
C1347 H1350 0.929 . S
C1348 C1347 1.363 . S
C1348 C1354 1.428 . S
H1349 C1345 0.930 . S
H1350 C1347 0.929 . S
S1351 N1352 1.613 . S
S1351 N1353 1.610 . S
N1352 S1351 1.613 . S
N1352 C1355 1.350 . S
N1353 S1351 1.610 . S
N1353 C1354 1.351 . S
C1354 C1348 1.428 . S
C1354 N1353 1.351 . S
C1354 C1355 1.434 . S
C1355 C1346 1.429 . S
C1355 N1352 1.350 . S
C1355 C1354 1.434 . S
C1356 C1357 1.369 . S
C1356 C1358 1.419 . S
C1356 H1360 0.930 . S
C1357 C1356 1.369 . S
C1357 C1366 1.429 . S
C1358 C1356 1.419 . S
C1358 C1359 1.363 . S
C1358 H1361 0.929 . S
C1359 C1358 1.363 . S
C1359 C1365 1.428 . S
H1360 C1356 0.930 . S
H1361 C1358 0.929 . S
S1362 N1363 1.613 . S
S1362 N1364 1.610 . S
N1363 S1362 1.613 . S
N1363 C1366 1.350 . S
N1364 S1362 1.610 . S
N1364 C1365 1.351 . S
C1365 C1359 1.428 . S
C1365 N1364 1.351 . S
C1365 C1366 1.434 . S
C1366 C1357 1.429 . S
C1366 N1363 1.350 . S
C1366 C1365 1.434 . S
C1367 C1368 1.369 . S
C1367 C1369 1.419 . S
C1367 H1371 0.930 . S
C1368 C1367 1.369 . S
C1368 C1377 1.429 . S
C1369 C1367 1.419 . S
C1369 C1370 1.363 . S
C1369 H1372 0.929 . S
C1370 C1369 1.363 . S
C1370 C1376 1.428 . S
H1371 C1367 0.930 . S
H1372 C1369 0.929 . S
S1373 N1374 1.613 . S
S1373 N1375 1.610 . S
N1374 S1373 1.613 . S
N1374 C1377 1.350 . S
N1375 S1373 1.610 . S
N1375 C1376 1.351 . S
C1376 C1370 1.428 . S
C1376 N1375 1.351 . S
C1376 C1377 1.434 . S
C1377 C1368 1.429 . S
C1377 N1374 1.350 . S
C1377 C1376 1.434 . S
C1378 C1379 1.369 . S
C1378 C1380 1.419 . S
C1378 H1382 0.930 . S
C1379 C1378 1.369 . S
C1379 C1388 1.429 . S
C1380 C1378 1.419 . S
C1380 C1381 1.363 . S
C1380 H1383 0.929 . S
C1381 C1380 1.363 . S
C1381 C1387 1.428 . S
H1382 C1378 0.930 . S
H1383 C1380 0.929 . S
S1384 N1385 1.613 . S
S1384 N1386 1.610 . S
N1385 S1384 1.613 . S
N1385 C1388 1.350 . S
N1386 S1384 1.610 . S
N1386 C1387 1.351 . S
C1387 C1381 1.428 . S
C1387 N1386 1.351 . S
C1387 C1388 1.434 . S
C1388 C1379 1.429 . S
C1388 N1385 1.350 . S
C1388 C1387 1.434 . S
C1389 C1390 1.369 1_455 S
C1389 C1391 1.419 . S
C1389 H1393 0.930 . S
C1390 C1389 1.369 1_655 S
C1390 C1399 1.429 . S
C1391 C1389 1.419 . S
C1391 C1392 1.363 1_455 S
C1391 H1394 0.929 . S
C1392 C1391 1.363 1_655 S
C1392 C1398 1.428 . S
H1393 C1389 0.930 . S
H1394 C1391 0.929 . S
S1395 N1396 1.613 . S
S1395 N1397 1.610 . S
N1396 S1395 1.613 . S
N1396 C1399 1.350 . S
N1397 S1395 1.610 . S
N1397 C1398 1.351 . S
C1398 C1392 1.428 . S
C1398 N1397 1.351 . S
C1398 C1399 1.434 . S
C1399 C1390 1.429 . S
C1399 N1396 1.350 . S
C1399 C1398 1.434 . S
C1400 C1401 1.369 . S
C1400 C1402 1.419 . S
C1400 H1404 0.930 . S
C1401 C1400 1.369 . S
C1401 C1410 1.429 . S
C1402 C1400 1.419 . S
C1402 C1403 1.363 . S
C1402 H1405 0.929 . S
C1403 C1402 1.363 . S
C1403 C1409 1.428 . S
H1404 C1400 0.930 . S
H1405 C1402 0.929 . S
S1406 N1407 1.613 . S
S1406 N1408 1.610 . S
N1407 S1406 1.613 . S
N1407 C1410 1.350 . S
N1408 S1406 1.610 . S
N1408 C1409 1.351 . S
C1409 C1403 1.428 . S
C1409 N1408 1.351 . S
C1409 C1410 1.434 . S
C1410 C1401 1.429 . S
C1410 N1407 1.350 . S
C1410 C1409 1.434 . S
C1411 C1412 1.369 . S
C1411 C1413 1.419 . S
C1411 H1415 0.930 . S
C1412 C1411 1.369 . S
C1412 C1421 1.429 1_545 S
C1413 C1411 1.419 . S
C1413 C1414 1.363 . S
C1413 H1416 0.929 . S
C1414 C1413 1.363 . S
C1414 C1420 1.428 1_545 S
H1415 C1411 0.930 . S
H1416 C1413 0.929 . S
S1417 N1418 1.613 . S
S1417 N1419 1.610 . S
N1418 S1417 1.613 . S
N1418 C1421 1.350 . S
N1419 S1417 1.610 . S
N1419 C1420 1.351 . S
C1420 C1414 1.428 1_565 S
C1420 N1419 1.351 . S
C1420 C1421 1.434 . S
C1421 C1412 1.429 1_565 S
C1421 N1418 1.350 . S
C1421 C1420 1.434 . S
C631 C9 1.548 1_655 S
C633 C458 1.501 1_655 S
C642 C19 1.562 . S
C644 C471 1.534 . S
C655 C500 1.483 1_545 S
C653 C33 1.569 . S
C664 C37 1.549 1_565 S
C666 C513 1.513 . S
C675 C5 1.538 . S
C677 C534 1.505 . S
C686 C23 1.596 . S
C688 C563 1.496 . S
C697 C47 1.554 . S
C699 C542 1.490 . S
C710 C555 1.512 . S
C708 C65 1.584 . S
C721 C521 1.476 . S
C719 C75 1.518 . S
C730 C79 1.525 . S
C732 C492 1.468 1_545 S
C743 C450 1.521 1_655 S
C741 C51 1.577 1_655 S
C752 C61 1.560 . S
C754 C479 1.520 . S
C763 C93 1.646 . S
C765 C584 1.531 . S
C774 C103 1.595 . S
C776 C597 1.565 . S
C787 C626 1.520 . S
C785 C117 1.617 . S
C796 C121 1.598 . S
C798 C261 1.570 . S
C807 C89 1.601 . S
C809 C282 1.577 . S
C818 C107 1.615 . S
C820 C311 1.515 . S
C829 C131 1.580 . S
C831 C290 1.533 . S
C840 C149 1.598 . S
C842 C303 1.520 . S
C853 C269 1.531 . S
C851 C159 1.568 . S
C864 C618 1.505 . S
C862 C163 1.577 . S
C875 C576 1.536 . S
C873 C135 1.621 . S
C886 C605 1.547 . S
C884 C145 1.588 . S
C895 C177 1.618 . S
C897 C332 1.505 . S
C906 C187 1.579 . S
C908 C345 1.548 . S
C917 C201 1.620 . S
C919 C374 1.516 . S
C928 C205 1.629 . S
C930 C387 1.596 . S
C941 C408 1.578 . S
C939 C173 1.603 . S
C952 C437 1.526 . S
C950 C191 1.631 . S
C963 C416 1.569 . S
C961 C215 1.608 . S
C974 C429 1.539 . S
C972 C233 1.616 . S
C983 C243 1.569 . S
C985 C395 1.525 . S
C996 C366 1.476 . S
C994 C247 1.546 . S
C1005 C219 1.619 . S
C1007 C324 1.530 . S
C1018 C353 1.540 . S
C1016 C229 1.579 . S
C1029 C264 1.402 . S
C1027 C11 1.506 . S
C1038 C14 1.479 . S
C1040 C285 1.376 . S
C1051 C313 1.427 . S
C1049 C28 1.543 . S
C1062 C334 1.410 . S
C1060 C39 1.531 . S
C1073 C348 1.401 . S
C1071 C0 1.511 . S
C1084 C376 1.338 . S
C1082 C25 1.454 . S
C1093 C42 1.580 . S
C1095 C369 1.408 . S
C1104 C67 1.511 . S
C1106 C327 1.332 . S
C1115 C70 1.495 . S
C1117 C355 1.404 . S
C1126 C81 1.501 . S
C1128 C292 1.425 . S
C1139 C306 1.367 . S
C1137 C53 1.546 . S
C1148 C56 1.531 . S
C1150 C271 1.444 . S
C1161 C390 1.384 . S
C1159 C95 1.501 . S
C1170 C98 1.525 . S
C1172 C411 1.408 . S
C1181 C112 1.571 . S
C1183 C439 1.446 . S
C1194 C460 1.389 . S
C1192 C123 1.471 . S
C1203 C84 1.506 . S
C1205 C474 1.392 . S
C1214 C109 1.443 . S
C1216 C502 1.369 . S
C1225 C126 1.514 . S
C1227 C495 1.385 . S
C1236 C151 1.468 . S
C1238 C453 1.341 . S
C1249 C481 1.410 . S
C1247 C154 1.499 . S
C1258 C165 1.492 . S
C1260 C418 1.397 . S
C1269 C137 1.565 . S
C1271 C432 1.384 . S
C1282 C397 1.487 . S
C1280 C140 1.573 . S
C1293 C516 1.346 1_545 S
C1291 C179 1.466 . S
C1302 C182 1.455 . S
C1304 C537 1.335 1_655 S
C1313 C196 1.539 . S
C1315 C565 1.425 . S
C1326 C586 1.397 . S
C1324 C207 1.523 . S
C1337 C600 1.415 . S
C1335 C168 1.536 . S
C1346 C193 1.507 . S
C1348 C628 1.394 . S
C1357 C210 1.575 . S
C1359 C621 1.398 . S
C1368 C235 1.554 . S
C1370 C579 1.387 . S
C1381 C607 1.438 . S
C1379 C238 1.526 . S
C1392 C544 1.347 1_655 S
C1390 C249 1.429 . S
C1403 C558 1.360 . S
C1401 C221 1.535 . S
C1412 C224 1.490 . S
C1414 C523 1.405 1_545 S
