# Generated by pormake.
# Topology ssa, (4,4)-cn, num edge types: 1
# Building blocks:
#     Node 0, Type 0, BuildingBlock: IZENUY_clean_linker_0, # of connection points: 4
#     Node 1, Type 0, BuildingBlock: IZENUY_clean_linker_0, # of connection points: 4
#     Node 2, Type 0, BuildingBlock: IZENUY_clean_linker_0, # of connection points: 4
#     Node 3, Type 0, BuildingBlock: IZENUY_clean_linker_0, # of connection points: 4
#     Node 4, Type 0, BuildingBlock: IZENUY_clean_linker_0, # of connection points: 4
#     Node 5, Type 0, BuildingBlock: IZENUY_clean_linker_0, # of connection points: 4
#     Node 6, Type 1, BuildingBlock: KOZSID_clean_sbu_0, # of connection points: 4
#     Node 7, Type 1, BuildingBlock: KOZSID_clean_sbu_0, # of connection points: 4
#     Node 8, Type 1, BuildingBlock: KOZSID_clean_sbu_0, # of connection points: 4
#     Node 9, Type 1, BuildingBlock: KOZSID_clean_sbu_0, # of connection points: 4
#     Node 10, Type 1, BuildingBlock: KOZSID_clean_sbu_0, # of connection points: 4
#     Node 11, Type 1, BuildingBlock: KOZSID_clean_sbu_0, # of connection points: 4
#     Edge 12, Type (0, 1), BuildingBlock: EYOCIG_clean_linker_4, # of connection points: 2
#     Edge 13, Type (0, 1), BuildingBlock: EYOCIG_clean_linker_4, # of connection points: 2
#     Edge 14, Type (0, 1), BuildingBlock: EYOCIG_clean_linker_4, # of connection points: 2
#     Edge 15, Type (0, 1), BuildingBlock: EYOCIG_clean_linker_4, # of connection points: 2
#     Edge 16, Type (0, 1), BuildingBlock: EYOCIG_clean_linker_4, # of connection points: 2
#     Edge 17, Type (0, 1), BuildingBlock: EYOCIG_clean_linker_4, # of connection points: 2
#     Edge 18, Type (0, 1), BuildingBlock: EYOCIG_clean_linker_4, # of connection points: 2
#     Edge 19, Type (0, 1), BuildingBlock: EYOCIG_clean_linker_4, # of connection points: 2
#     Edge 20, Type (0, 1), BuildingBlock: EYOCIG_clean_linker_4, # of connection points: 2
#     Edge 21, Type (0, 1), BuildingBlock: EYOCIG_clean_linker_4, # of connection points: 2
#     Edge 22, Type (0, 1), BuildingBlock: EYOCIG_clean_linker_4, # of connection points: 2
#     Edge 23, Type (0, 1), BuildingBlock: EYOCIG_clean_linker_4, # of connection points: 2
#     Edge 24, Type (0, 1), BuildingBlock: EYOCIG_clean_linker_4, # of connection points: 2
#     Edge 25, Type (0, 1), BuildingBlock: EYOCIG_clean_linker_4, # of connection points: 2
#     Edge 26, Type (0, 1), BuildingBlock: EYOCIG_clean_linker_4, # of connection points: 2
#     Edge 27, Type (0, 1), BuildingBlock: EYOCIG_clean_linker_4, # of connection points: 2
#     Edge 28, Type (0, 1), BuildingBlock: EYOCIG_clean_linker_4, # of connection points: 2
#     Edge 29, Type (0, 1), BuildingBlock: EYOCIG_clean_linker_4, # of connection points: 2
#     Edge 30, Type (0, 1), BuildingBlock: EYOCIG_clean_linker_4, # of connection points: 2
#     Edge 31, Type (0, 1), BuildingBlock: EYOCIG_clean_linker_4, # of connection points: 2
#     Edge 32, Type (0, 1), BuildingBlock: EYOCIG_clean_linker_4, # of connection points: 2
#     Edge 33, Type (0, 1), BuildingBlock: EYOCIG_clean_linker_4, # of connection points: 2
#     Edge 34, Type (0, 1), BuildingBlock: EYOCIG_clean_linker_4, # of connection points: 2
#     Edge 35, Type (0, 1), BuildingBlock: EYOCIG_clean_linker_4, # of connection points: 2
# Relax obj value: 0.002
# Max RMSD: 0.042
# Mean RMSD: 0.019
data_MOF--net-ssa--node1-KOZSID_clean_sbu_0--node2-IZENUY_clean_linker_0--edge1-EYOCIG_clean_linker_4
_symmetry_space_group_name_H-M    P1
_symmetry_Int_Tables_number       1
_symmetry_cell_setting            triclinic
loop_
_symmetry_equiv_pos_as_xyz
'x, y, z'
_cell_length_a     47.267957
_cell_length_b     47.257611
_cell_length_c     34.769767
_cell_angle_alpha  94.329684
_cell_angle_beta   94.252086
_cell_angle_gamma 120.00729
loop_
_atom_site_label
_atom_site_type_symbol
_atom_site_fract_x
_atom_site_fract_y
_atom_site_fract_z
_atom_type_partial_charge
H0 H 0.96257 0.44498 0.9689 0.0
H1 H 0.95847 0.53431 0.96664 0.0
H2 H 0.89112 0.44706 0.88786 0.0
H3 H 0.0385 0.55928 0.04156 0.0
H4 H 0.03596 0.46756 0.05365 0.0
H5 H 0.11437 0.55892 0.11639 0.0
N6 N 0.99159 0.50847 1.00102 0.0
N7 N 0.00481 0.49406 0.0163 0.0
C8 C 0.95189 0.45861 0.95703 0.0
C9 C 0.92579 0.44296 0.92709 0.0
C10 C 0.96407 0.49178 0.97152 0.0
C11 C 0.94935 0.50879 0.95557 0.0
C12 C 0.92289 0.49248 0.92522 0.0
C13 C 0.91157 0.45978 0.91119 0.0
C14 C 0.04873 0.54552 0.05417 0.0
C15 C 0.07771 0.56224 0.07995 0.0
C16 C 0.03338 0.51118 0.04431 0.0
C17 C 0.04751 0.49399 0.0612 0.0
C18 C 0.07685 0.51138 0.08743 0.0
C19 C 0.09163 0.54535 0.09639 0.0
H20 H 0.55956 0.04138 0.53754 0.0
H21 H 0.47095 0.04696 0.53832 0.0
H22 H 0.55735 0.11263 0.61901 0.0
H23 H 0.4456 0.96706 0.46322 0.0
H24 H 0.53678 0.96836 0.45188 0.0
H25 H 0.44539 0.89077 0.38832 0.0
N26 N 0.49647 0.01347 0.50422 0.0
N27 N 0.51068 0.99996 0.48908 0.0
C28 C 0.54604 0.05228 0.54922 0.0
C29 C 0.56147 0.07797 0.57968 0.0
C30 C 0.51315 0.04073 0.53406 0.0
C31 C 0.49627 0.05566 0.54983 0.0
C32 C 0.51239 0.08173 0.58063 0.0
C33 C 0.54479 0.09247 0.5953 0.0
C34 C 0.4592 0.9566 0.45066 0.0
C35 C 0.44232 0.92767 0.42473 0.0
C36 C 0.49345 0.97155 0.46082 0.0
C37 C 0.51043 0.95712 0.44408 0.0
C38 C 0.49294 0.92788 0.4177 0.0
C39 C 0.45903 0.91345 0.40841 0.0
H40 H 0.47918 0.44341 0.96447 0.0
H41 H 0.56671 0.53684 0.95715 0.0
H42 H 0.55296 0.44784 0.89571 0.0
H43 H 0.52141 0.56332 0.03344 0.0
H44 H 0.43266 0.47018 0.03803 0.0
H45 H 0.45157 0.5571 0.10993 0.0
N46 N 0.51275 0.51037 0.99025 0.0
N47 N 0.48674 0.49677 0.00522 0.0
C48 C 0.50246 0.45769 0.95343 0.0
C49 C 0.5139 0.44166 0.92848 0.0
C50 C 0.52182 0.4925 0.96405 0.0
C51 C 0.55181 0.51036 0.94922 0.0
C52 C 0.5627 0.49409 0.9247 0.0
C53 C 0.54396 0.46012 0.91468 0.0
C54 C 0.49847 0.54883 0.04509 0.0
C55 C 0.48856 0.56418 0.07316 0.0
C56 C 0.47813 0.5144 0.03239 0.0
C57 C 0.44843 0.49633 0.04774 0.0
C58 C 0.43925 0.51189 0.07565 0.0
C59 C 0.45922 0.54539 0.08823 0.0
H60 H 0.03359 0.47927 0.46706 0.0
H61 H 0.03415 0.57059 0.45907 0.0
H62 H 0.10277 0.55221 0.40359 0.0
H63 H 0.96662 0.52364 0.53194 0.0
H64 H 0.96091 0.42931 0.53336 0.0
H65 H 0.90202 0.4536 0.60176 0.0
N66 N 0.00476 0.51396 0.4906 0.0
N67 N 0.99198 0.48685 0.50385 0.0
C68 C 0.04334 0.50307 0.45672 0.0
C69 C 0.06935 0.51368 0.43418 0.0
C70 C 0.03034 0.52354 0.46616 0.0
C71 C 0.04383 0.5546 0.45206 0.0
C72 C 0.07008 0.56492 0.42932 0.0
C73 C 0.08245 0.54428 0.42086 0.0
C74 C 0.95673 0.49977 0.54213 0.0
C75 C 0.93323 0.49071 0.56809 0.0
C76 C 0.96724 0.47781 0.52942 0.0
C77 C 0.95333 0.44654 0.54307 0.0
C78 C 0.92966 0.43786 0.5693 0.0
C79 C 0.92024 0.46023 0.58161 0.0
H80 H 0.48149 0.03888 0.97382 0.0
H81 H 0.57493 0.04306 0.97047 0.0
H82 H 0.55123 0.10284 0.90315 0.0
H83 H 0.52554 0.97124 0.03755 0.0
H84 H 0.43448 0.97103 0.04663 0.0
H85 H 0.45291 0.90225 0.10144 0.0
N86 N 0.51784 0.01279 1.00092 0.0
N87 N 0.4909 1.00025 0.01455 0.0
C88 C 0.50519 0.04849 0.96324 0.0
C89 C 0.51428 0.07199 0.9373 0.0
C90 C 0.5269 0.03755 0.97539 0.0
C91 C 0.55793 0.05102 0.9612 0.0
C92 C 0.5667 0.07472 0.93501 0.0
C93 C 0.54458 0.08462 0.92327 0.0
C94 C 0.50184 0.9616 0.04812 0.0
C95 C 0.49127 0.9356 0.07064 0.0
C96 C 0.4814 0.97469 0.03898 0.0
C97 C 0.45045 0.9613 0.05339 0.0
C98 C 0.44024 0.93505 0.07611 0.0
C99 C 0.46081 0.9226 0.08421 0.0
H100 H 0.44173 0.48301 0.47098 0.0
H101 H 0.53422 0.57314 0.46895 0.0
H102 H 0.44756 0.55397 0.39643 0.0
H103 H 0.56192 0.52593 0.54015 0.0
H104 H 0.46864 0.43871 0.54903 0.0
H105 H 0.55795 0.45287 0.60984 0.0
N106 N 0.50813 0.51839 0.50028 0.0
N107 N 0.49478 0.4923 0.51516 0.0
C108 C 0.45606 0.5063 0.45998 0.0
C109 C 0.44064 0.51635 0.43214 0.0
C110 C 0.49036 0.52697 0.47327 0.0
C111 C 0.50819 0.55713 0.45878 0.0
C112 C 0.49262 0.56652 0.43116 0.0
C113 C 0.45927 0.5462 0.41792 0.0
C114 C 0.54772 0.5028 0.55155 0.0
C115 C 0.56393 0.49156 0.57655 0.0
C116 C 0.51286 0.48344 0.54132 0.0
C117 C 0.49514 0.45364 0.55663 0.0
C118 C 0.51157 0.44296 0.58122 0.0
C119 C 0.54557 0.46171 0.59083 0.0
C120 C 0.21775 0.52836 0.21497 0.0
C121 C 0.22143 0.55896 0.2108 0.0
C122 C 0.24996 0.5818 0.23353 0.0
C123 C 0.2621 0.564 0.25022 0.0
N124 N 0.24305 0.5311 0.23956 0.0
Co125 Co 0.249 0.496 0.26143 0.0
N126 N 0.28887 0.52946 0.29849 0.0
C127 C 0.30239 0.56259 0.30238 0.0
C128 C 0.33068 0.5794 0.32826 0.0
C129 C 0.3358 0.55562 0.34147 0.0
C130 C 0.31024 0.52555 0.32278 0.0
N131 N 0.25496 0.46083 0.28303 0.0
C132 C 0.28004 0.46341 0.30782 0.0
C133 C 0.27647 0.43281 0.3116 0.0
C134 C 0.24826 0.41008 0.28848 0.0
C135 C 0.23621 0.42794 0.27187 0.0
N136 N 0.20905 0.46241 0.22458 0.0
C137 C 0.19548 0.42925 0.22061 0.0
C138 C 0.16768 0.41246 0.19409 0.0
C139 C 0.16267 0.43619 0.18079 0.0
C140 C 0.18787 0.46624 0.20006 0.0
N141 N 0.27827 0.49831 0.2222 0.0
C142 C 0.3243 0.4974 0.17682 0.0
C143 C 0.29426 0.4691 0.17715 0.0
C144 C 0.27172 0.4701 0.19971 0.0
C145 C 0.33078 0.52685 0.19759 0.0
C146 C 0.3071 0.52687 0.21953 0.0
N147 N 0.21965 0.49348 0.30061 0.0
C148 C 0.16815 0.46187 0.32625 0.0
C149 C 0.1724 0.49019 0.34715 0.0
C150 C 0.20093 0.52019 0.34568 0.0
C151 C 0.22417 0.5213 0.32221 0.0
C152 C 0.19234 0.46392 0.30414 0.0
H153 H 0.24521 0.54493 0.32151 0.0
H154 H 0.18819 0.44124 0.28987 0.0
H155 H 0.24962 0.44736 0.19902 0.0
H156 H 0.31284 0.55003 0.2345 0.0
C157 C 0.28916 0.57712 0.27912 0.0
C158 C 0.18948 0.49738 0.19563 0.0
C159 C 0.30807 0.49409 0.32782 0.0
C160 C 0.20904 0.41468 0.24318 0.0
H161 H 0.20475 0.56411 0.19388 0.0
H162 H 0.25992 0.60815 0.23867 0.0
H163 H 0.34628 0.60583 0.33569 0.0
H164 H 0.35648 0.55994 0.36177 0.0
H165 H 0.293 0.42753 0.32862 0.0
H166 H 0.23837 0.38375 0.28325 0.0
H167 H 0.15243 0.38606 0.18611 0.0
H168 H 0.14226 0.4318 0.15996 0.0
H169 H 0.28831 0.44602 0.16056 0.0
H170 H 0.35386 0.54952 0.1971 0.0
H171 H 0.14628 0.43816 0.32701 0.0
H172 H 0.20507 0.54268 0.36202 0.0
C173 C 0.69038 0.2166 0.69861 0.0
C174 C 0.66297 0.21931 0.68833 0.0
C175 C 0.6691 0.24847 0.7076 0.0
C176 C 0.69971 0.26175 0.7285 0.0
N177 N 0.71361 0.24294 0.72348 0.0
Co178 Co 0.75515 0.24971 0.75258 0.0
N179 N 0.7617 0.28983 0.78551 0.0
C180 C 0.74218 0.30319 0.78377 0.0
C181 C 0.75444 0.33208 0.80814 0.0
C182 C 0.78378 0.33775 0.82623 0.0
C183 C 0.78761 0.31183 0.81171 0.0
N184 N 0.79663 0.25626 0.78146 0.0
C185 C 0.81958 0.28202 0.80705 0.0
C186 C 0.84711 0.27932 0.81683 0.0
C187 C 0.84132 0.25077 0.79668 0.0
C188 C 0.81083 0.23778 0.77583 0.0
N189 N 0.74873 0.2096 0.71982 0.0
C190 C 0.76841 0.1964 0.72118 0.0
C191 C 0.75664 0.16789 0.69643 0.0
C192 C 0.72725 0.162 0.67869 0.0
C193 C 0.72293 0.18747 0.69385 0.0
N194 N 0.78218 0.27866 0.71445 0.0
C195 C 0.82686 0.32293 0.66805 0.0
C196 C 0.82599 0.29376 0.6738 0.0
C197 C 0.80382 0.27228 0.69683 0.0
C198 C 0.80433 0.32939 0.68478 0.0
C199 C 0.78196 0.30679 0.70726 0.0
N200 N 0.72819 0.22074 0.79061 0.0
C201 C 0.70832 0.17029 0.82027 0.0
C202 C 0.68471 0.17494 0.83667 0.0
C203 C 0.68362 0.20327 0.8306 0.0
C204 C 0.70534 0.22565 0.80754 0.0
C205 C 0.73005 0.19359 0.79823 0.0
H206 H 0.70284 0.24645 0.80335 0.0
H207 H 0.74803 0.18894 0.78737 0.0
H208 H 0.80529 0.25096 0.7004 0.0
H209 H 0.76497 0.31273 0.7188 0.0
C210 C 0.71394 0.28938 0.75663 0.0
C211 C 0.69294 0.18819 0.68503 0.0
C212 C 0.81692 0.30991 0.82202 0.0
C213 C 0.7968 0.21029 0.74779 0.0
H214 H 0.64052 0.20159 0.66976 0.0
H215 H 0.65256 0.25805 0.7078 0.0
H216 H 0.74393 0.34777 0.81128 0.0
H217 H 0.8009 0.35905 0.84684 0.0
H218 H 0.86949 0.29668 0.83573 0.0
H219 H 0.85799 0.24134 0.79593 0.0
H220 H 0.76752 0.15259 0.69283 0.0
H221 H 0.71036 0.14068 0.65799 0.0
H222 H 0.84278 0.28765 0.66096 0.0
H223 H 0.80398 0.35173 0.68067 0.0
H224 H 0.71013 0.14874 0.82451 0.0
H225 H 0.66586 0.20802 0.8432 0.0
C226 C 0.47737 0.69206 0.1866 0.0
C227 C 0.44699 0.66453 0.17252 0.0
C228 C 0.42377 0.66942 0.1879 0.0
C229 C 0.44117 0.69956 0.21043 0.0
N230 N 0.47415 0.71424 0.21042 0.0
Co231 Co 0.50872 0.7558 0.24375 0.0
N232 N 0.47464 0.76121 0.26964 0.0
C233 C 0.44157 0.74088 0.26279 0.0
C234 C 0.42435 0.75174 0.28327 0.0
C235 C 0.44781 0.78104 0.30412 0.0
C236 C 0.47809 0.78635 0.2951 0.0
N237 N 0.54338 0.79731 0.27695 0.0
C238 C 0.54031 0.81941 0.30095 0.0
C239 C 0.57076 0.84669 0.31548 0.0
C240 C 0.59388 0.8418 0.30006 0.0
C241 C 0.57638 0.81198 0.27705 0.0
N242 N 0.5429 0.75038 0.2181 0.0
C243 C 0.57603 0.77054 0.22524 0.0
C244 C 0.59329 0.75988 0.2047 0.0
C245 C 0.56992 0.73085 0.18353 0.0
C246 C 0.53958 0.72549 0.19241 0.0
N247 N 0.50702 0.78301 0.20384 0.0
C248 C 0.50833 0.82943 0.15724 0.0
C249 C 0.53675 0.82879 0.16801 0.0
C250 C 0.53556 0.80556 0.19101 0.0
C251 C 0.47868 0.80583 0.16854 0.0
C252 C 0.47848 0.78245 0.19128 0.0
N253 N 0.51066 0.7288 0.28369 0.0
C254 C 0.54193 0.70958 0.31981 0.0
C255 C 0.51338 0.68482 0.33125 0.0
C256 C 0.48344 0.68274 0.32004 0.0
C257 C 0.48262 0.7049 0.2962 0.0
C258 C 0.54013 0.73171 0.29702 0.0
H259 H 0.45904 0.70186 0.28784 0.0
H260 H 0.56295 0.75075 0.29035 0.0
H261 H 0.55841 0.80712 0.19868 0.0
H262 H 0.45519 0.76455 0.19881 0.0
C263 C 0.42753 0.71298 0.23492 0.0
C264 C 0.50859 0.6957 0.17704 0.0
C265 C 0.50931 0.81624 0.3101 0.0
C266 C 0.59016 0.79863 0.25276 0.0
H267 H 0.4422 0.64282 0.15382 0.0
H268 H 0.39743 0.65243 0.18433 0.0
H269 H 0.39788 0.74026 0.28221 0.0
H270 H 0.44315 0.79711 0.32305 0.0
H271 H 0.57571 0.86829 0.33452 0.0
H272 H 0.62025 0.85857 0.30401 0.0
H273 H 0.61976 0.7714 0.20579 0.0
H274 H 0.57471 0.715 0.16442 0.0
H275 H 0.56008 0.8466 0.1593 0.0
H276 H 0.45598 0.80554 0.16018 0.0
H277 H 0.56561 0.71198 0.32855 0.0
H278 H 0.46082 0.66394 0.32915 0.0
C279 C 0.72451 0.54181 0.69706 0.0
C280 C 0.72792 0.57237 0.69342 0.0
C281 C 0.75588 0.5951 0.71693 0.0
C282 C 0.76794 0.57728 0.73362 0.0
N283 N 0.7494 0.54442 0.72222 0.0
Co284 Co 0.75541 0.50927 0.74385 0.0
N285 N 0.7953 0.5429 0.78076 0.0
C286 C 0.80893 0.57606 0.78458 0.0
C287 C 0.83669 0.59289 0.81115 0.0
C288 C 0.84153 0.56917 0.82481 0.0
C289 C 0.81625 0.53908 0.80571 0.0
N290 N 0.76137 0.47418 0.76575 0.0
C291 C 0.78626 0.47691 0.79107 0.0
C292 C 0.78257 0.44632 0.79538 0.0
C293 C 0.75437 0.42347 0.77211 0.0
C294 C 0.74245 0.44129 0.75496 0.0
N295 N 0.71564 0.47579 0.70666 0.0
C296 C 0.70213 0.44266 0.70282 0.0
C297 C 0.67393 0.42583 0.6768 0.0
C298 C 0.66893 0.4496 0.66332 0.0
C299 C 0.69446 0.47969 0.682 0.0
N300 N 0.78487 0.51193 0.70477 0.0
C301 C 0.8329 0.51549 0.65945 0.0
C302 C 0.80431 0.48541 0.66049 0.0
C303 C 0.78066 0.48417 0.68337 0.0
C304 C 0.83666 0.54377 0.67987 0.0
C305 C 0.81207 0.54158 0.7013 0.0
N306 N 0.72612 0.50687 0.78307 0.0
C307 C 0.67367 0.47823 0.80779 0.0
C308 C 0.6801 0.50767 0.82854 0.0
C309 C 0.71015 0.53598 0.82829 0.0
C310 C 0.73268 0.53503 0.80569 0.0
C311 C 0.69734 0.47826 0.78578 0.0
H312 H 0.75478 0.55778 0.80643 0.0
H313 H 0.69164 0.45513 0.77074 0.0
H314 H 0.75957 0.4605 0.68382 0.0
H315 H 0.81585 0.56423 0.71515 0.0
C316 C 0.7952 0.59059 0.76219 0.0
C317 C 0.69688 0.51116 0.67639 0.0
C318 C 0.81405 0.50784 0.81124 0.0
C319 C 0.71541 0.42815 0.72604 0.0
H320 H 0.7115 0.57763 0.67614 0.0
H321 H 0.76568 0.62142 0.72221 0.0
H322 H 0.85191 0.61929 0.81912 0.0
H323 H 0.86177 0.57357 0.84593 0.0
H324 H 0.79896 0.44117 0.81291 0.0
H325 H 0.74439 0.39709 0.76724 0.0
H326 H 0.65837 0.3994 0.66935 0.0
H327 H 0.64839 0.44527 0.64275 0.0
H328 H 0.80044 0.46298 0.64431 0.0
H329 H 0.85847 0.56756 0.67924 0.0
H330 H 0.65058 0.45556 0.8082 0.0
H331 H 0.71604 0.55906 0.84485 0.0
C332 C 0.2816 0.82002 0.30744 0.0
C333 C 0.27921 0.84779 0.31679 0.0
C334 C 0.25086 0.84219 0.29631 0.0
C335 C 0.23773 0.81158 0.27565 0.0
N336 N 0.25597 0.79718 0.28158 0.0
Co337 Co 0.24936 0.75563 0.25267 0.0
N338 N 0.20916 0.7491 0.22001 0.0
C339 C 0.19566 0.7685 0.22193 0.0
C340 C 0.16707 0.75665 0.19735 0.0
C341 C 0.16164 0.72767 0.17878 0.0
C342 C 0.18749 0.72369 0.19321 0.0
N343 N 0.24266 0.7141 0.22351 0.0
C344 C 0.21704 0.69145 0.19733 0.0
C345 C 0.21962 0.66389 0.18735 0.0
C346 C 0.24811 0.66948 0.20778 0.0
C347 C 0.26114 0.69992 0.22904 0.0
N348 N 0.28949 0.76223 0.28558 0.0
C349 C 0.30289 0.74275 0.28373 0.0
C350 C 0.3317 0.75493 0.30818 0.0
C351 C 0.33718 0.78408 0.32663 0.0
C352 C 0.31121 0.78788 0.31228 0.0
N353 N 0.22043 0.7287 0.29078 0.0
C354 C 0.17404 0.68473 0.33593 0.0
C355 C 0.20251 0.68376 0.33025 0.0
C356 C 0.2252 0.70576 0.30764 0.0
C357 C 0.16974 0.70869 0.31998 0.0
C358 C 0.19336 0.73069 0.29849 0.0
N359 N 0.27824 0.7827 0.21453 0.0
C360 C 0.3296 0.80594 0.18612 0.0
C361 C 0.32324 0.82873 0.16992 0.0
C362 C 0.29358 0.8271 0.17478 0.0
C363 C 0.27169 0.80419 0.19685 0.0
C364 C 0.30662 0.78289 0.20769 0.0
H365 H 0.24994 0.80503 0.19977 0.0
H366 H 0.31251 0.76576 0.21897 0.0
H367 H 0.24611 0.70337 0.30373 0.0
H368 H 0.18899 0.74897 0.28812 0.0
C369 C 0.2099 0.79722 0.24811 0.0
C370 C 0.30869 0.81666 0.32384 0.0
C371 C 0.18976 0.69494 0.18147 0.0
C372 C 0.28888 0.71428 0.25694 0.0
H373 H 0.29652 0.87009 0.33587 0.0
H374 H 0.24154 0.85893 0.29549 0.0
H375 H 0.15167 0.76744 0.19399 0.0
H376 H 0.14063 0.71104 0.15756 0.0
H377 H 0.20236 0.64181 0.16789 0.0
H378 H 0.25762 0.65288 0.20805 0.0
H379 H 0.34732 0.74435 0.31137 0.0
H380 H 0.35827 0.80102 0.34761 0.0
H381 H 0.20707 0.66584 0.34268 0.0
H382 H 0.14818 0.71051 0.32408 0.0
H383 H 0.35221 0.80603 0.18247 0.0
H384 H 0.28745 0.84394 0.16214 0.0
C385 C 0.46314 0.28061 0.80815 0.0
C386 C 0.43259 0.27723 0.81176 0.0
C387 C 0.40988 0.24924 0.78827 0.0
C388 C 0.4277 0.23713 0.77163 0.0
N389 N 0.46054 0.25565 0.7831 0.0
Co390 Co 0.49571 0.24956 0.76165 0.0
N391 N 0.46215 0.20971 0.72463 0.0
C392 C 0.429 0.19616 0.72065 0.0
C393 C 0.41221 0.16836 0.6941 0.0
C394 C 0.43594 0.1634 0.68066 0.0
C395 C 0.46599 0.18866 0.69987 0.0
N396 N 0.53082 0.24352 0.73992 0.0
C397 C 0.52811 0.21851 0.7148 0.0
C398 C 0.55868 0.22208 0.71072 0.0
C399 C 0.58149 0.25032 0.73397 0.0
C400 C 0.56369 0.26239 0.75084 0.0
N401 N 0.52914 0.28928 0.79894 0.0
C402 C 0.56225 0.30271 0.80296 0.0
C403 C 0.57905 0.33095 0.82894 0.0
C404 C 0.55529 0.3361 0.84217 0.0
C405 C 0.52523 0.31058 0.8234 0.0
N406 N 0.4928 0.22001 0.8007 0.0
C407 C 0.48887 0.17201 0.84628 0.0
C408 C 0.51903 0.20046 0.84513 0.0
C409 C 0.52046 0.2241 0.82214 0.0
C410 C 0.46069 0.16834 0.82576 0.0
C411 C 0.46307 0.19291 0.80417 0.0
N412 N 0.49834 0.27896 0.72247 0.0
C413 C 0.52715 0.33159 0.6982 0.0
C414 C 0.49779 0.32533 0.67745 0.0
C415 C 0.46946 0.29523 0.67742 0.0
C416 C 0.47028 0.27252 0.69979 0.0
C417 C 0.527 0.30776 0.71998 0.0
H418 H 0.44751 0.25039 0.69887 0.0
H419 H 0.55007 0.31337 0.73504 0.0
H420 H 0.5442 0.24508 0.82165 0.0
H421 H 0.44051 0.1892 0.79021 0.0
C422 C 0.41443 0.20991 0.74299 0.0
C423 C 0.49379 0.30832 0.82869 0.0
C424 C 0.4972 0.1907 0.69468 0.0
C425 C 0.57679 0.28941 0.77981 0.0
H426 H 0.42734 0.29372 0.82895 0.0
H427 H 0.38358 0.23947 0.78293 0.0
H428 H 0.38583 0.15316 0.68605 0.0
H429 H 0.43156 0.14308 0.65966 0.0
H430 H 0.56384 0.20556 0.69343 0.0
H431 H 0.60781 0.2602 0.73915 0.0
H432 H 0.60546 0.34649 0.83646 0.0
H433 H 0.5596 0.35672 0.86261 0.0
H434 H 0.5414 0.20423 0.86134 0.0
H435 H 0.43684 0.14662 0.82642 0.0
H436 H 0.54985 0.35471 0.69798 0.0
H437 H 0.44644 0.28944 0.66084 0.0
C438 C 0.1134 0.49271 0.12563 0.0
C439 C 0.09352 0.49633 0.10589 0.0
C440 C 0.13978 0.4945 0.15023 0.0
C441 C 0.16278 0.49697 0.17115 0.0
C442 C 0.62058 0.10947 0.61506 0.0
C443 C 0.59497 0.09134 0.59523 0.0
C444 C 0.64571 0.1361 0.64015 0.0
C445 C 0.66605 0.16025 0.66103 0.0
C446 C 0.51201 0.6244 0.10628 0.0
C447 C 0.50636 0.599 0.08762 0.0
C448 C 0.51149 0.64978 0.13044 0.0
C449 C 0.50933 0.67013 0.15144 0.0
C450 C 0.90359 0.51915 0.59767 0.0
C451 C 0.92037 0.51103 0.5811 0.0
C452 C 0.87977 0.52007 0.61891 0.0
C453 C 0.85831 0.51781 0.63733 0.0
C454 C 0.38703 0.90016 0.109 0.0
C455 C 0.40904 0.91904 0.09186 0.0
C456 C 0.36476 0.87538 0.13029 0.0
C457 C 0.34651 0.85384 0.14847 0.0
C458 C 0.48995 0.39013 0.615 0.0
C459 C 0.49486 0.4126 0.59719 0.0
C460 C 0.49212 0.36761 0.63729 0.0
C461 C 0.49593 0.34916 0.656 0.0
C462 C 0.51233 0.89147 0.3802 0.0
C463 C 0.50798 0.91104 0.39954 0.0
C464 C 0.51175 0.86558 0.35594 0.0
C465 C 0.51 0.8429 0.33506 0.0
C466 C 0.61578 0.51593 0.89151 0.0
C467 C 0.59322 0.51096 0.90914 0.0
C468 C 0.63821 0.51364 0.86914 0.0
C469 C 0.65646 0.50967 0.85023 0.0
C470 C 0.10436 0.61906 0.39726 0.0
C471 C 0.086 0.59633 0.41393 0.0
C472 C 0.12841 0.64259 0.37626 0.0
C473 C 0.14934 0.66161 0.35798 0.0
C474 C 0.48567 0.10176 0.90843 0.0
C475 C 0.49405 0.08506 0.92471 0.0
C476 C 0.48434 0.12536 0.88718 0.0
C477 C 0.48642 0.14664 0.86854 0.0
C478 C 0.38022 0.49185 0.39844 0.0
C479 C 0.40588 0.49815 0.41711 0.0
C480 C 0.35416 0.49134 0.37439 0.0
C481 C 0.33337 0.49291 0.35347 0.0
C482 C 0.89366 0.38275 0.89418 0.0
C483 C 0.91172 0.40908 0.91265 0.0
C484 C 0.86752 0.35637 0.86982 0.0
C485 C 0.84403 0.33566 0.84831 0.0
C486 C 0.88655 0.51135 0.88692 0.0
C487 C 0.90579 0.50738 0.90746 0.0
C488 C 0.8614 0.51011 0.86057 0.0
C489 C 0.83952 0.50803 0.83789 0.0
C490 C 0.38042 0.89174 0.39876 0.0
C491 C 0.4076 0.91142 0.41407 0.0
C492 C 0.35353 0.8653 0.37528 0.0
C493 C 0.33312 0.84251 0.35263 0.0
C494 C 0.49106 0.38052 0.8986 0.0
C495 C 0.49661 0.40654 0.91549 0.0
C496 C 0.49095 0.35423 0.87554 0.0
C497 C 0.49261 0.33343 0.85473 0.0
C498 C 0.10212 0.48694 0.40937 0.0
C499 C 0.08401 0.49442 0.42373 0.0
C500 C 0.12633 0.48604 0.3889 0.0
C501 C 0.14742 0.4881 0.36993 0.0
C502 C 0.62034 0.10793 0.90159 0.0
C503 C 0.59799 0.09048 0.91935 0.0
C504 C 0.64345 0.1308 0.87914 0.0
C505 C 0.66217 0.15092 0.85984 0.0
C506 C 0.51643 0.62002 0.39801 0.0
C507 C 0.50974 0.59715 0.41579 0.0
C508 C 0.51716 0.64344 0.37498 0.0
C509 C 0.51526 0.66223 0.35504 0.0
C510 C 0.49365 0.11813 0.61903 0.0
C511 C 0.49758 0.09894 0.59835 0.0
C512 C 0.49493 0.14323 0.64553 0.0
C513 C 0.49703 0.16513 0.66822 0.0
C514 C 0.38735 0.48956 0.11115 0.0
C515 C 0.40917 0.4948 0.09205 0.0
C516 C 0.36561 0.49162 0.13494 0.0
C517 C 0.34763 0.49551 0.15444 0.0
C518 C 0.89507 0.38477 0.60249 0.0
C519 C 0.91331 0.40646 0.58453 0.0
C520 C 0.87139 0.36316 0.62536 0.0
C521 C 0.85081 0.3455 0.64493 0.0
C522 C 0.51612 0.9016 0.09551 0.0
C523 C 0.5102 0.9206 0.08079 0.0
C524 C 0.51427 0.87635 0.11613 0.0
C525 C 0.51047 0.85457 0.13483 0.0
C526 C 0.62512 0.51418 0.60595 0.0
C527 C 0.59912 0.50878 0.58916 0.0
C528 C 0.6513 0.51412 0.62905 0.0
C529 C 0.67195 0.51237 0.65002 0.0
C530 C 0.11461 0.6238 0.10616 0.0
C531 C 0.09435 0.59697 0.0905 0.0
C532 C 0.14144 0.64982 0.13011 0.0
C533 C 0.16427 0.66986 0.15295 0.0
loop_
_geom_bond_atom_site_label_1
_geom_bond_atom_site_label_2
_geom_bond_distance
_geom_bond_site_symmetry_2
_ccdc_geom_bond_type
H0 C8 0.940 . S
H1 C11 0.940 . S
H2 C13 0.940 . S
H3 C14 0.940 . S
H4 C17 0.940 . S
H5 C19 0.940 . S
N6 N7 1.191 1_655 S
N6 C10 1.477 1_554 S
N7 N6 1.191 1_455 S
N7 C16 1.475 . S
C8 H0 0.940 . S
C8 C9 1.390 . S
C8 C10 1.322 . S
C9 C8 1.390 . S
C9 C13 1.370 . S
C10 N6 1.477 1_556 S
C10 C8 1.322 . S
C10 C11 1.447 . S
C11 H1 0.940 . S
C11 C10 1.447 . S
C11 C12 1.373 . S
C12 C11 1.373 . S
C12 C13 1.417 . S
C13 H2 0.940 . S
C13 C9 1.370 . S
C13 C12 1.417 . S
C14 H3 0.940 . S
C14 C15 1.390 . S
C14 C16 1.322 . S
C15 C14 1.390 . S
C15 C19 1.370 . S
C16 N7 1.475 . S
C16 C14 1.322 . S
C16 C17 1.447 . S
C17 H4 0.940 . S
C17 C16 1.447 . S
C17 C18 1.373 . S
C18 C17 1.373 . S
C18 C19 1.417 . S
C19 H5 0.940 . S
C19 C15 1.370 . S
C19 C18 1.417 . S
H20 C28 0.940 . S
H21 C31 0.940 . S
H22 C33 0.940 . S
H23 C34 0.940 . S
H24 C37 0.940 . S
H25 C39 0.940 . S
N26 N27 1.190 . S
N26 C30 1.477 . S
N27 N26 1.190 . S
N27 C36 1.477 1_545 S
C28 H20 0.940 . S
C28 C29 1.390 . S
C28 C30 1.322 . S
C29 C28 1.390 . S
C29 C33 1.370 . S
C30 N26 1.477 . S
C30 C28 1.322 . S
C30 C31 1.447 . S
C31 H21 0.940 . S
C31 C30 1.447 . S
C31 C32 1.373 . S
C32 C31 1.373 . S
C32 C33 1.417 . S
C33 H22 0.940 . S
C33 C29 1.370 . S
C33 C32 1.417 . S
C34 H23 0.940 . S
C34 C35 1.390 . S
C34 C36 1.322 . S
C35 C34 1.390 . S
C35 C39 1.370 . S
C36 N27 1.477 1_565 S
C36 C34 1.322 . S
C36 C37 1.447 . S
C37 H24 0.940 . S
C37 C36 1.447 . S
C37 C38 1.373 . S
C38 C37 1.373 . S
C38 C39 1.417 . S
C39 H25 0.940 . S
C39 C35 1.370 . S
C39 C38 1.417 . S
H40 C48 0.940 . S
H41 C51 0.940 . S
H42 C53 0.940 . S
H43 C54 0.940 . S
H44 C57 0.940 . S
H45 C59 0.940 . S
N46 N47 1.190 . S
N46 C50 1.477 . S
N47 N46 1.190 . S
N47 C56 1.477 1_556 S
C48 H40 0.940 . S
C48 C49 1.390 . S
C48 C50 1.322 . S
C49 C48 1.390 . S
C49 C53 1.370 . S
C50 N46 1.477 . S
C50 C48 1.322 . S
C50 C51 1.447 . S
C51 H41 0.940 . S
C51 C50 1.447 . S
C51 C52 1.373 . S
C52 C51 1.373 . S
C52 C53 1.417 . S
C53 H42 0.940 . S
C53 C49 1.370 . S
C53 C52 1.417 . S
C54 H43 0.940 . S
C54 C55 1.390 . S
C54 C56 1.322 . S
C55 C54 1.390 . S
C55 C59 1.370 . S
C56 N47 1.477 1_554 S
C56 C54 1.322 . S
C56 C57 1.447 . S
C57 H44 0.940 . S
C57 C56 1.447 . S
C57 C58 1.373 . S
C58 C57 1.373 . S
C58 C59 1.417 . S
C59 H45 0.940 . S
C59 C55 1.370 . S
C59 C58 1.417 . S
H60 C68 0.940 . S
H61 C71 0.940 . S
H62 C73 0.940 . S
H63 C74 0.940 . S
H64 C77 0.940 . S
H65 C79 0.940 . S
N66 N67 1.190 . S
N66 C70 1.477 1_655 S
N67 N66 1.190 . S
N67 C76 1.477 . S
C68 H60 0.940 . S
C68 C69 1.390 . S
C68 C70 1.322 . S
C69 C68 1.390 . S
C69 C73 1.370 . S
C70 N66 1.477 1_455 S
C70 C68 1.322 . S
C70 C71 1.447 . S
C71 H61 0.940 . S
C71 C70 1.447 . S
C71 C72 1.373 . S
C72 C71 1.373 . S
C72 C73 1.417 . S
C73 H62 0.940 . S
C73 C69 1.370 . S
C73 C72 1.417 . S
C74 H63 0.940 . S
C74 C75 1.390 . S
C74 C76 1.322 . S
C75 C74 1.390 . S
C75 C79 1.370 . S
C76 N67 1.477 . S
C76 C74 1.322 . S
C76 C77 1.447 . S
C77 H64 0.940 . S
C77 C76 1.447 . S
C77 C78 1.373 . S
C78 C77 1.373 . S
C78 C79 1.417 . S
C79 H65 0.940 . S
C79 C75 1.370 . S
C79 C78 1.417 . S
H80 C88 0.940 . S
H81 C91 0.940 . S
H82 C93 0.940 . S
H83 C94 0.940 . S
H84 C97 0.940 . S
H85 C99 0.940 . S
N86 N87 1.190 . S
N86 C90 1.477 1_554 S
N87 N86 1.190 . S
N87 C96 1.477 1_545 S
C88 H80 0.940 . S
C88 C89 1.390 . S
C88 C90 1.322 . S
C89 C88 1.390 . S
C89 C93 1.370 . S
C90 N86 1.477 1_556 S
C90 C88 1.322 . S
C90 C91 1.447 . S
C91 H81 0.940 . S
C91 C90 1.447 . S
C91 C92 1.373 . S
C92 C91 1.373 . S
C92 C93 1.417 . S
C93 H82 0.940 . S
C93 C89 1.370 . S
C93 C92 1.417 . S
C94 H83 0.940 . S
C94 C95 1.390 . S
C94 C96 1.322 . S
C95 C94 1.390 . S
C95 C99 1.370 . S
C96 N87 1.477 1_565 S
C96 C94 1.322 . S
C96 C97 1.447 . S
C97 H84 0.940 . S
C97 C96 1.447 . S
C97 C98 1.373 . S
C98 C97 1.373 . S
C98 C99 1.417 . S
C99 H85 0.940 . S
C99 C95 1.370 . S
C99 C98 1.417 . S
H100 C108 0.940 . S
H101 C111 0.940 . S
H102 C113 0.940 . S
H103 C114 0.940 . S
H104 C117 0.940 . S
H105 C119 0.940 . S
N106 N107 1.190 . S
N106 C110 1.477 . S
N107 N106 1.190 . S
N107 C116 1.477 . S
C108 H100 0.940 . S
C108 C109 1.390 . S
C108 C110 1.322 . S
C109 C108 1.390 . S
C109 C113 1.370 . S
C110 N106 1.477 . S
C110 C108 1.322 . S
C110 C111 1.447 . S
C111 H101 0.940 . S
C111 C110 1.447 . S
C111 C112 1.373 . S
C112 C111 1.373 . S
C112 C113 1.417 . S
C113 H102 0.940 . S
C113 C109 1.370 . S
C113 C112 1.417 . S
C114 H103 0.940 . S
C114 C115 1.390 . S
C114 C116 1.322 . S
C115 C114 1.390 . S
C115 C119 1.370 . S
C116 N107 1.477 . S
C116 C114 1.322 . S
C116 C117 1.447 . S
C117 H104 0.940 . S
C117 C116 1.447 . S
C117 C118 1.373 . S
C118 C117 1.373 . S
C118 C119 1.417 . S
C119 H105 0.940 . S
C119 C115 1.370 . S
C119 C118 1.417 . S
C120 C121 1.443 . S
C120 N124 1.376 . S
C120 C158 1.389 . S
C121 C120 1.443 . S
C121 C122 1.340 . S
C121 H161 0.951 . S
C122 C121 1.340 . S
C122 C123 1.439 . S
C122 H162 0.950 . S
C123 C122 1.439 . S
C123 N124 1.374 . S
C123 C157 1.395 . S
N124 C120 1.376 . S
N124 C123 1.374 . S
N124 Co125 2.008 . S
Co125 N124 2.008 . S
Co125 N126 1.995 . S
Co125 N131 2.008 . S
Co125 N136 1.995 . S
Co125 N141 2.282 . S
Co125 N147 2.282 . S
N126 Co125 1.995 . S
N126 C127 1.376 . S
N126 C130 1.383 . S
C127 N126 1.376 . S
C127 C128 1.446 . S
C127 C157 1.391 . S
C128 C127 1.446 . S
C128 C129 1.339 . S
C128 H163 0.949 . S
C129 C128 1.339 . S
C129 C130 1.439 . S
C129 H164 0.950 . S
C130 N126 1.383 . S
C130 C129 1.439 . S
C130 C159 1.392 . S
N131 Co125 2.008 . S
N131 C132 1.376 . S
N131 C135 1.374 . S
C132 N131 1.376 . S
C132 C133 1.443 . S
C132 C159 1.389 . S
C133 C132 1.443 . S
C133 C134 1.340 . S
C133 H165 0.951 . S
C134 C133 1.340 . S
C134 C135 1.439 . S
C134 H166 0.950 . S
C135 N131 1.374 . S
C135 C134 1.439 . S
C135 C160 1.395 . S
N136 Co125 1.995 . S
N136 C137 1.376 . S
N136 C140 1.383 . S
C137 N136 1.376 . S
C137 C138 1.446 . S
C137 C160 1.391 . S
C138 C137 1.446 . S
C138 C139 1.339 . S
C138 H167 0.949 . S
C139 C138 1.339 . S
C139 C140 1.439 . S
C139 H168 0.950 . S
C140 N136 1.383 . S
C140 C139 1.439 . S
C140 C158 1.392 . S
N141 Co125 2.282 . S
N141 C144 1.332 . S
N141 C146 1.332 . S
C142 C143 1.386 . S
C142 C145 1.388 . S
C143 C142 1.386 . S
C143 C144 1.382 . S
C143 H169 0.950 . S
C144 N141 1.332 . S
C144 C143 1.382 . S
C144 H155 0.952 . S
C145 C142 1.388 . S
C145 C146 1.382 . S
C145 H170 0.950 . S
C146 N141 1.332 . S
C146 C145 1.382 . S
C146 H156 0.948 . S
N147 Co125 2.282 . S
N147 C151 1.332 . S
N147 C152 1.332 . S
C148 C149 1.388 . S
C148 C152 1.382 . S
C148 H171 0.950 . S
C149 C148 1.388 . S
C149 C150 1.386 . S
C150 C149 1.386 . S
C150 C151 1.382 . S
C150 H172 0.950 . S
C151 N147 1.332 . S
C151 C150 1.382 . S
C151 H153 0.952 . S
C152 N147 1.332 . S
C152 C148 1.382 . S
C152 H154 0.948 . S
H153 C151 0.952 . S
H154 C152 0.948 . S
H155 C144 0.952 . S
H156 C146 0.948 . S
C157 C123 1.395 . S
C157 C127 1.391 . S
C158 C120 1.389 . S
C158 C140 1.392 . S
C159 C130 1.392 . S
C159 C132 1.389 . S
C160 C135 1.395 . S
C160 C137 1.391 . S
H161 C121 0.951 . S
H162 C122 0.950 . S
H163 C128 0.949 . S
H164 C129 0.950 . S
H165 C133 0.951 . S
H166 C134 0.950 . S
H167 C138 0.949 . S
H168 C139 0.950 . S
H169 C143 0.950 . S
H170 C145 0.950 . S
H171 C148 0.950 . S
H172 C150 0.950 . S
C173 C174 1.443 . S
C173 N177 1.376 . S
C173 C211 1.389 . S
C174 C173 1.443 . S
C174 C175 1.340 . S
C174 H214 0.951 . S
C175 C174 1.340 . S
C175 C176 1.439 . S
C175 H215 0.950 . S
C176 C175 1.439 . S
C176 N177 1.374 . S
C176 C210 1.395 . S
N177 C173 1.376 . S
N177 C176 1.374 . S
N177 Co178 2.008 . S
Co178 N177 2.008 . S
Co178 N179 1.995 . S
Co178 N184 2.008 . S
Co178 N189 1.995 . S
Co178 N194 2.282 . S
Co178 N200 2.282 . S
N179 Co178 1.995 . S
N179 C180 1.376 . S
N179 C183 1.383 . S
C180 N179 1.376 . S
C180 C181 1.446 . S
C180 C210 1.391 . S
C181 C180 1.446 . S
C181 C182 1.339 . S
C181 H216 0.949 . S
C182 C181 1.339 . S
C182 C183 1.439 . S
C182 H217 0.950 . S
C183 N179 1.383 . S
C183 C182 1.439 . S
C183 C212 1.392 . S
N184 Co178 2.008 . S
N184 C185 1.376 . S
N184 C188 1.374 . S
C185 N184 1.376 . S
C185 C186 1.443 . S
C185 C212 1.389 . S
C186 C185 1.443 . S
C186 C187 1.340 . S
C186 H218 0.951 . S
C187 C186 1.340 . S
C187 C188 1.439 . S
C187 H219 0.950 . S
C188 N184 1.374 . S
C188 C187 1.439 . S
C188 C213 1.395 . S
N189 Co178 1.995 . S
N189 C190 1.376 . S
N189 C193 1.383 . S
C190 N189 1.376 . S
C190 C191 1.446 . S
C190 C213 1.391 . S
C191 C190 1.446 . S
C191 C192 1.339 . S
C191 H220 0.949 . S
C192 C191 1.339 . S
C192 C193 1.439 . S
C192 H221 0.950 . S
C193 N189 1.383 . S
C193 C192 1.439 . S
C193 C211 1.392 . S
N194 Co178 2.282 . S
N194 C197 1.332 . S
N194 C199 1.332 . S
C195 C196 1.386 . S
C195 C198 1.388 . S
C196 C195 1.386 . S
C196 C197 1.382 . S
C196 H222 0.950 . S
C197 N194 1.332 . S
C197 C196 1.382 . S
C197 H208 0.952 . S
C198 C195 1.388 . S
C198 C199 1.382 . S
C198 H223 0.950 . S
C199 N194 1.332 . S
C199 C198 1.382 . S
C199 H209 0.948 . S
N200 Co178 2.282 . S
N200 C204 1.332 . S
N200 C205 1.332 . S
C201 C202 1.388 . S
C201 C205 1.382 . S
C201 H224 0.950 . S
C202 C201 1.388 . S
C202 C203 1.386 . S
C203 C202 1.386 . S
C203 C204 1.382 . S
C203 H225 0.950 . S
C204 N200 1.332 . S
C204 C203 1.382 . S
C204 H206 0.952 . S
C205 N200 1.332 . S
C205 C201 1.382 . S
C205 H207 0.948 . S
H206 C204 0.952 . S
H207 C205 0.948 . S
H208 C197 0.952 . S
H209 C199 0.948 . S
C210 C176 1.395 . S
C210 C180 1.391 . S
C211 C173 1.389 . S
C211 C193 1.392 . S
C212 C183 1.392 . S
C212 C185 1.389 . S
C213 C188 1.395 . S
C213 C190 1.391 . S
H214 C174 0.951 . S
H215 C175 0.950 . S
H216 C181 0.949 . S
H217 C182 0.950 . S
H218 C186 0.951 . S
H219 C187 0.950 . S
H220 C191 0.949 . S
H221 C192 0.950 . S
H222 C196 0.950 . S
H223 C198 0.950 . S
H224 C201 0.950 . S
H225 C203 0.950 . S
C226 C227 1.443 . S
C226 N230 1.376 . S
C226 C264 1.389 . S
C227 C226 1.443 . S
C227 C228 1.340 . S
C227 H267 0.951 . S
C228 C227 1.340 . S
C228 C229 1.439 . S
C228 H268 0.950 . S
C229 C228 1.439 . S
C229 N230 1.374 . S
C229 C263 1.395 . S
N230 C226 1.376 . S
N230 C229 1.374 . S
N230 Co231 2.008 . S
Co231 N230 2.008 . S
Co231 N232 1.995 . S
Co231 N237 2.008 . S
Co231 N242 1.995 . S
Co231 N247 2.282 . S
Co231 N253 2.282 . S
N232 Co231 1.995 . S
N232 C233 1.376 . S
N232 C236 1.383 . S
C233 N232 1.376 . S
C233 C234 1.446 . S
C233 C263 1.391 . S
C234 C233 1.446 . S
C234 C235 1.339 . S
C234 H269 0.949 . S
C235 C234 1.339 . S
C235 C236 1.439 . S
C235 H270 0.950 . S
C236 N232 1.383 . S
C236 C235 1.439 . S
C236 C265 1.392 . S
N237 Co231 2.008 . S
N237 C238 1.376 . S
N237 C241 1.374 . S
C238 N237 1.376 . S
C238 C239 1.443 . S
C238 C265 1.389 . S
C239 C238 1.443 . S
C239 C240 1.340 . S
C239 H271 0.951 . S
C240 C239 1.340 . S
C240 C241 1.439 . S
C240 H272 0.950 . S
C241 N237 1.374 . S
C241 C240 1.439 . S
C241 C266 1.395 . S
N242 Co231 1.995 . S
N242 C243 1.376 . S
N242 C246 1.383 . S
C243 N242 1.376 . S
C243 C244 1.446 . S
C243 C266 1.391 . S
C244 C243 1.446 . S
C244 C245 1.339 . S
C244 H273 0.949 . S
C245 C244 1.339 . S
C245 C246 1.439 . S
C245 H274 0.950 . S
C246 N242 1.383 . S
C246 C245 1.439 . S
C246 C264 1.392 . S
N247 Co231 2.282 . S
N247 C250 1.332 . S
N247 C252 1.332 . S
C248 C249 1.386 . S
C248 C251 1.388 . S
C249 C248 1.386 . S
C249 C250 1.382 . S
C249 H275 0.950 . S
C250 N247 1.332 . S
C250 C249 1.382 . S
C250 H261 0.952 . S
C251 C248 1.388 . S
C251 C252 1.382 . S
C251 H276 0.950 . S
C252 N247 1.332 . S
C252 C251 1.382 . S
C252 H262 0.948 . S
N253 Co231 2.282 . S
N253 C257 1.332 . S
N253 C258 1.332 . S
C254 C255 1.388 . S
C254 C258 1.382 . S
C254 H277 0.950 . S
C255 C254 1.388 . S
C255 C256 1.386 . S
C256 C255 1.386 . S
C256 C257 1.382 . S
C256 H278 0.950 . S
C257 N253 1.332 . S
C257 C256 1.382 . S
C257 H259 0.952 . S
C258 N253 1.332 . S
C258 C254 1.382 . S
C258 H260 0.948 . S
H259 C257 0.952 . S
H260 C258 0.948 . S
H261 C250 0.952 . S
H262 C252 0.948 . S
C263 C229 1.395 . S
C263 C233 1.391 . S
C264 C226 1.389 . S
C264 C246 1.392 . S
C265 C236 1.392 . S
C265 C238 1.389 . S
C266 C241 1.395 . S
C266 C243 1.391 . S
H267 C227 0.951 . S
H268 C228 0.950 . S
H269 C234 0.949 . S
H270 C235 0.950 . S
H271 C239 0.951 . S
H272 C240 0.950 . S
H273 C244 0.949 . S
H274 C245 0.950 . S
H275 C249 0.950 . S
H276 C251 0.950 . S
H277 C254 0.950 . S
H278 C256 0.950 . S
C279 C280 1.443 . S
C279 N283 1.376 . S
C279 C317 1.389 . S
C280 C279 1.443 . S
C280 C281 1.340 . S
C280 H320 0.951 . S
C281 C280 1.340 . S
C281 C282 1.439 . S
C281 H321 0.950 . S
C282 C281 1.439 . S
C282 N283 1.374 . S
C282 C316 1.395 . S
N283 C279 1.376 . S
N283 C282 1.374 . S
N283 Co284 2.008 . S
Co284 N283 2.008 . S
Co284 N285 1.995 . S
Co284 N290 2.008 . S
Co284 N295 1.995 . S
Co284 N300 2.282 . S
Co284 N306 2.282 . S
N285 Co284 1.995 . S
N285 C286 1.376 . S
N285 C289 1.383 . S
C286 N285 1.376 . S
C286 C287 1.446 . S
C286 C316 1.391 . S
C287 C286 1.446 . S
C287 C288 1.339 . S
C287 H322 0.949 . S
C288 C287 1.339 . S
C288 C289 1.439 . S
C288 H323 0.950 . S
C289 N285 1.383 . S
C289 C288 1.439 . S
C289 C318 1.392 . S
N290 Co284 2.008 . S
N290 C291 1.376 . S
N290 C294 1.374 . S
C291 N290 1.376 . S
C291 C292 1.443 . S
C291 C318 1.389 . S
C292 C291 1.443 . S
C292 C293 1.340 . S
C292 H324 0.951 . S
C293 C292 1.340 . S
C293 C294 1.439 . S
C293 H325 0.950 . S
C294 N290 1.374 . S
C294 C293 1.439 . S
C294 C319 1.395 . S
N295 Co284 1.995 . S
N295 C296 1.376 . S
N295 C299 1.383 . S
C296 N295 1.376 . S
C296 C297 1.446 . S
C296 C319 1.391 . S
C297 C296 1.446 . S
C297 C298 1.339 . S
C297 H326 0.949 . S
C298 C297 1.339 . S
C298 C299 1.439 . S
C298 H327 0.950 . S
C299 N295 1.383 . S
C299 C298 1.439 . S
C299 C317 1.392 . S
N300 Co284 2.282 . S
N300 C303 1.332 . S
N300 C305 1.332 . S
C301 C302 1.386 . S
C301 C304 1.388 . S
C302 C301 1.386 . S
C302 C303 1.382 . S
C302 H328 0.950 . S
C303 N300 1.332 . S
C303 C302 1.382 . S
C303 H314 0.952 . S
C304 C301 1.388 . S
C304 C305 1.382 . S
C304 H329 0.950 . S
C305 N300 1.332 . S
C305 C304 1.382 . S
C305 H315 0.948 . S
N306 Co284 2.282 . S
N306 C310 1.332 . S
N306 C311 1.332 . S
C307 C308 1.388 . S
C307 C311 1.382 . S
C307 H330 0.950 . S
C308 C307 1.388 . S
C308 C309 1.386 . S
C309 C308 1.386 . S
C309 C310 1.382 . S
C309 H331 0.950 . S
C310 N306 1.332 . S
C310 C309 1.382 . S
C310 H312 0.952 . S
C311 N306 1.332 . S
C311 C307 1.382 . S
C311 H313 0.948 . S
H312 C310 0.952 . S
H313 C311 0.948 . S
H314 C303 0.952 . S
H315 C305 0.948 . S
C316 C282 1.395 . S
C316 C286 1.391 . S
C317 C279 1.389 . S
C317 C299 1.392 . S
C318 C289 1.392 . S
C318 C291 1.389 . S
C319 C294 1.395 . S
C319 C296 1.391 . S
H320 C280 0.951 . S
H321 C281 0.950 . S
H322 C287 0.949 . S
H323 C288 0.950 . S
H324 C292 0.951 . S
H325 C293 0.950 . S
H326 C297 0.949 . S
H327 C298 0.950 . S
H328 C302 0.950 . S
H329 C304 0.950 . S
H330 C307 0.950 . S
H331 C309 0.950 . S
C332 C333 1.443 . S
C332 N336 1.376 . S
C332 C370 1.389 . S
C333 C332 1.443 . S
C333 C334 1.340 . S
C333 H373 0.951 . S
C334 C333 1.340 . S
C334 C335 1.439 . S
C334 H374 0.950 . S
C335 C334 1.439 . S
C335 N336 1.374 . S
C335 C369 1.395 . S
N336 C332 1.376 . S
N336 C335 1.374 . S
N336 Co337 2.008 . S
Co337 N336 2.008 . S
Co337 N338 1.995 . S
Co337 N343 2.008 . S
Co337 N348 1.995 . S
Co337 N353 2.282 . S
Co337 N359 2.282 . S
N338 Co337 1.995 . S
N338 C339 1.376 . S
N338 C342 1.383 . S
C339 N338 1.376 . S
C339 C340 1.446 . S
C339 C369 1.391 . S
C340 C339 1.446 . S
C340 C341 1.339 . S
C340 H375 0.949 . S
C341 C340 1.339 . S
C341 C342 1.439 . S
C341 H376 0.950 . S
C342 N338 1.383 . S
C342 C341 1.439 . S
C342 C371 1.392 . S
N343 Co337 2.008 . S
N343 C344 1.376 . S
N343 C347 1.374 . S
C344 N343 1.376 . S
C344 C345 1.443 . S
C344 C371 1.389 . S
C345 C344 1.443 . S
C345 C346 1.340 . S
C345 H377 0.951 . S
C346 C345 1.340 . S
C346 C347 1.439 . S
C346 H378 0.950 . S
C347 N343 1.374 . S
C347 C346 1.439 . S
C347 C372 1.395 . S
N348 Co337 1.995 . S
N348 C349 1.376 . S
N348 C352 1.383 . S
C349 N348 1.376 . S
C349 C350 1.446 . S
C349 C372 1.391 . S
C350 C349 1.446 . S
C350 C351 1.339 . S
C350 H379 0.949 . S
C351 C350 1.339 . S
C351 C352 1.439 . S
C351 H380 0.950 . S
C352 N348 1.383 . S
C352 C351 1.439 . S
C352 C370 1.392 . S
N353 Co337 2.282 . S
N353 C356 1.332 . S
N353 C358 1.332 . S
C354 C355 1.386 . S
C354 C357 1.388 . S
C355 C354 1.386 . S
C355 C356 1.382 . S
C355 H381 0.950 . S
C356 N353 1.332 . S
C356 C355 1.382 . S
C356 H367 0.952 . S
C357 C354 1.388 . S
C357 C358 1.382 . S
C357 H382 0.950 . S
C358 N353 1.332 . S
C358 C357 1.382 . S
C358 H368 0.948 . S
N359 Co337 2.282 . S
N359 C363 1.332 . S
N359 C364 1.332 . S
C360 C361 1.388 . S
C360 C364 1.382 . S
C360 H383 0.950 . S
C361 C360 1.388 . S
C361 C362 1.386 . S
C362 C361 1.386 . S
C362 C363 1.382 . S
C362 H384 0.950 . S
C363 N359 1.332 . S
C363 C362 1.382 . S
C363 H365 0.952 . S
C364 N359 1.332 . S
C364 C360 1.382 . S
C364 H366 0.948 . S
H365 C363 0.952 . S
H366 C364 0.948 . S
H367 C356 0.952 . S
H368 C358 0.948 . S
C369 C335 1.395 . S
C369 C339 1.391 . S
C370 C332 1.389 . S
C370 C352 1.392 . S
C371 C342 1.392 . S
C371 C344 1.389 . S
C372 C347 1.395 . S
C372 C349 1.391 . S
H373 C333 0.951 . S
H374 C334 0.950 . S
H375 C340 0.949 . S
H376 C341 0.950 . S
H377 C345 0.951 . S
H378 C346 0.950 . S
H379 C350 0.949 . S
H380 C351 0.950 . S
H381 C355 0.950 . S
H382 C357 0.950 . S
H383 C360 0.950 . S
H384 C362 0.950 . S
C385 C386 1.443 . S
C385 N389 1.376 . S
C385 C423 1.389 . S
C386 C385 1.443 . S
C386 C387 1.340 . S
C386 H426 0.951 . S
C387 C386 1.340 . S
C387 C388 1.439 . S
C387 H427 0.950 . S
C388 C387 1.439 . S
C388 N389 1.374 . S
C388 C422 1.395 . S
N389 C385 1.376 . S
N389 C388 1.374 . S
N389 Co390 2.008 . S
Co390 N389 2.008 . S
Co390 N391 1.995 . S
Co390 N396 2.008 . S
Co390 N401 1.995 . S
Co390 N406 2.282 . S
Co390 N412 2.282 . S
N391 Co390 1.995 . S
N391 C392 1.376 . S
N391 C395 1.383 . S
C392 N391 1.376 . S
C392 C393 1.446 . S
C392 C422 1.391 . S
C393 C392 1.446 . S
C393 C394 1.339 . S
C393 H428 0.949 . S
C394 C393 1.339 . S
C394 C395 1.439 . S
C394 H429 0.950 . S
C395 N391 1.383 . S
C395 C394 1.439 . S
C395 C424 1.392 . S
N396 Co390 2.008 . S
N396 C397 1.376 . S
N396 C400 1.374 . S
C397 N396 1.376 . S
C397 C398 1.443 . S
C397 C424 1.389 . S
C398 C397 1.443 . S
C398 C399 1.340 . S
C398 H430 0.951 . S
C399 C398 1.340 . S
C399 C400 1.439 . S
C399 H431 0.950 . S
C400 N396 1.374 . S
C400 C399 1.439 . S
C400 C425 1.395 . S
N401 Co390 1.995 . S
N401 C402 1.376 . S
N401 C405 1.383 . S
C402 N401 1.376 . S
C402 C403 1.446 . S
C402 C425 1.391 . S
C403 C402 1.446 . S
C403 C404 1.339 . S
C403 H432 0.949 . S
C404 C403 1.339 . S
C404 C405 1.439 . S
C404 H433 0.950 . S
C405 N401 1.383 . S
C405 C404 1.439 . S
C405 C423 1.392 . S
N406 Co390 2.282 . S
N406 C409 1.332 . S
N406 C411 1.332 . S
C407 C408 1.386 . S
C407 C410 1.388 . S
C408 C407 1.386 . S
C408 C409 1.382 . S
C408 H434 0.950 . S
C409 N406 1.332 . S
C409 C408 1.382 . S
C409 H420 0.952 . S
C410 C407 1.388 . S
C410 C411 1.382 . S
C410 H435 0.950 . S
C411 N406 1.332 . S
C411 C410 1.382 . S
C411 H421 0.948 . S
N412 Co390 2.282 . S
N412 C416 1.332 . S
N412 C417 1.332 . S
C413 C414 1.388 . S
C413 C417 1.382 . S
C413 H436 0.950 . S
C414 C413 1.388 . S
C414 C415 1.386 . S
C415 C414 1.386 . S
C415 C416 1.382 . S
C415 H437 0.950 . S
C416 N412 1.332 . S
C416 C415 1.382 . S
C416 H418 0.952 . S
C417 N412 1.332 . S
C417 C413 1.382 . S
C417 H419 0.948 . S
H418 C416 0.952 . S
H419 C417 0.948 . S
H420 C409 0.952 . S
H421 C411 0.948 . S
C422 C388 1.395 . S
C422 C392 1.391 . S
C423 C385 1.389 . S
C423 C405 1.392 . S
C424 C395 1.392 . S
C424 C397 1.389 . S
C425 C400 1.395 . S
C425 C402 1.391 . S
H426 C386 0.951 . S
H427 C387 0.950 . S
H428 C393 0.949 . S
H429 C394 0.950 . S
H430 C398 0.951 . S
H431 C399 0.950 . S
H432 C403 0.949 . S
H433 C404 0.950 . S
H434 C408 0.950 . S
H435 C410 0.950 . S
H436 C413 0.950 . S
H437 C415 0.950 . S
C438 C439 1.170 . S
C438 C440 1.380 . S
C439 C438 1.170 . S
C440 C438 1.380 . S
C440 C441 1.170 . S
C441 C440 1.170 . S
C442 C443 1.170 . S
C442 C444 1.380 . S
C443 C442 1.170 . S
C444 C442 1.380 . S
C444 C445 1.170 . S
C445 C444 1.170 . S
C446 C447 1.170 . S
C446 C448 1.380 . S
C447 C446 1.170 . S
C448 C446 1.380 . S
C448 C449 1.170 . S
C449 C448 1.170 . S
C450 C451 1.170 . S
C450 C452 1.380 . S
C451 C450 1.170 . S
C452 C450 1.380 . S
C452 C453 1.170 . S
C453 C452 1.170 . S
C454 C455 1.170 . S
C454 C456 1.380 . S
C455 C454 1.170 . S
C456 C454 1.380 . S
C456 C457 1.170 . S
C457 C456 1.170 . S
C458 C459 1.170 . S
C458 C460 1.380 . S
C459 C458 1.170 . S
C460 C458 1.380 . S
C460 C461 1.170 . S
C461 C460 1.170 . S
C462 C463 1.170 . S
C462 C464 1.380 . S
C463 C462 1.170 . S
C464 C462 1.380 . S
C464 C465 1.170 . S
C465 C464 1.170 . S
C466 C467 1.170 . S
C466 C468 1.380 . S
C467 C466 1.170 . S
C468 C466 1.380 . S
C468 C469 1.170 . S
C469 C468 1.170 . S
C470 C471 1.170 . S
C470 C472 1.380 . S
C471 C470 1.170 . S
C472 C470 1.380 . S
C472 C473 1.170 . S
C473 C472 1.170 . S
C474 C475 1.170 . S
C474 C476 1.380 . S
C475 C474 1.170 . S
C476 C474 1.380 . S
C476 C477 1.170 . S
C477 C476 1.170 . S
C478 C479 1.170 . S
C478 C480 1.380 . S
C479 C478 1.170 . S
C480 C478 1.380 . S
C480 C481 1.170 . S
C481 C480 1.170 . S
C482 C483 1.170 . S
C482 C484 1.380 . S
C483 C482 1.170 . S
C484 C482 1.380 . S
C484 C485 1.170 . S
C485 C484 1.170 . S
C486 C487 1.170 . S
C486 C488 1.380 . S
C487 C486 1.170 . S
C488 C486 1.380 . S
C488 C489 1.170 . S
C489 C488 1.170 . S
C490 C491 1.170 . S
C490 C492 1.380 . S
C491 C490 1.170 . S
C492 C490 1.380 . S
C492 C493 1.170 . S
C493 C492 1.170 . S
C494 C495 1.170 . S
C494 C496 1.380 . S
C495 C494 1.170 . S
C496 C494 1.380 . S
C496 C497 1.170 . S
C497 C496 1.170 . S
C498 C499 1.170 . S
C498 C500 1.380 . S
C499 C498 1.170 . S
C500 C498 1.380 . S
C500 C501 1.170 . S
C501 C500 1.170 . S
C502 C503 1.170 . S
C502 C504 1.380 . S
C503 C502 1.170 . S
C504 C502 1.380 . S
C504 C505 1.170 . S
C505 C504 1.170 . S
C506 C507 1.170 . S
C506 C508 1.380 . S
C507 C506 1.170 . S
C508 C506 1.380 . S
C508 C509 1.170 . S
C509 C508 1.170 . S
C510 C511 1.170 . S
C510 C512 1.380 . S
C511 C510 1.170 . S
C512 C510 1.380 . S
C512 C513 1.170 . S
C513 C512 1.170 . S
C514 C515 1.170 . S
C514 C516 1.380 . S
C515 C514 1.170 . S
C516 C514 1.380 . S
C516 C517 1.170 . S
C517 C516 1.170 . S
C518 C519 1.170 . S
C518 C520 1.380 . S
C519 C518 1.170 . S
C520 C518 1.380 . S
C520 C521 1.170 . S
C521 C520 1.170 . S
C522 C523 1.170 . S
C522 C524 1.380 . S
C523 C522 1.170 . S
C524 C522 1.380 . S
C524 C525 1.170 . S
C525 C524 1.170 . S
C526 C527 1.170 . S
C526 C528 1.380 . S
C527 C526 1.170 . S
C528 C526 1.380 . S
C528 C529 1.170 . S
C529 C528 1.170 . S
C530 C531 1.170 . S
C530 C532 1.380 . S
C531 C530 1.170 . S
C532 C530 1.380 . S
C532 C533 1.170 . S
C533 C532 1.170 . S
C439 C18 1.590 . S
C441 C158 1.632 . S
C443 C29 1.318 . S
C445 C211 1.424 . S
C449 C264 1.636 . S
C447 C55 1.524 . S
C453 C301 1.386 . S
C451 C75 1.244 . S
C457 C361 1.560 . S
C455 C98 1.473 . S
C461 C414 1.376 . S
C459 C118 1.303 . S
C463 C38 1.569 . S
C465 C265 1.631 . S
C467 C52 1.306 . S
C469 C308 1.376 . S
C473 C354 1.561 . S
C471 C72 1.472 . S
C477 C407 1.385 . S
C475 C89 1.292 . S
C479 C109 1.495 . S
C481 C159 1.636 . S
C485 C212 1.426 . S
C483 C9 1.328 . S
C489 C318 1.629 . S
C487 C12 1.595 . S
C491 C35 1.360 . S
C493 C370 1.425 . S
C497 C423 1.635 . S
C495 C49 1.498 . S
C499 C69 1.244 . S
C501 C149 1.385 . S
C503 C92 1.491 . S
C505 C202 1.562 . S
C507 C112 1.327 . S
C509 C255 1.378 . S
C511 C32 1.560 . S
C513 C424 1.633 . S
C517 C142 1.385 . S
C515 C58 1.332 . S
C519 C78 1.498 . S
C521 C195 1.558 . S
C523 C95 1.252 . S
C525 C248 1.382 . S
C527 C115 1.545 . S
C529 C317 1.633 . S
C531 C15 1.354 . S
C533 C371 1.421 . S
