# Generated by pormake.
# Topology ant, (3,6)-cn, num edge types: 1
# Building blocks:
#     Node 0, Type 0, BuildingBlock: ESEHIV_clean_linker_0, # of connection points: 3
#     Node 1, Type 0, BuildingBlock: ESEHIV_clean_linker_0, # of connection points: 3
#     Node 2, Type 0, BuildingBlock: ESEHIV_clean_linker_0, # of connection points: 3
#     Node 3, Type 0, BuildingBlock: ESEHIV_clean_linker_0, # of connection points: 3
#     Node 4, Type 0, BuildingBlock: ESEHIV_clean_linker_0, # of connection points: 3
#     Node 5, Type 0, BuildingBlock: ESEHIV_clean_linker_0, # of connection points: 3
#     Node 6, Type 0, BuildingBlock: ESEHIV_clean_linker_0, # of connection points: 3
#     Node 7, Type 0, BuildingBlock: ESEHIV_clean_linker_0, # of connection points: 3
#     Node 8, Type 1, BuildingBlock: MIDCAF_clean_sbu_0, # of connection points: 6
#     Node 9, Type 1, BuildingBlock: MIDCAF_clean_sbu_0, # of connection points: 6
#     Node 10, Type 1, BuildingBlock: MIDCAF_clean_sbu_0, # of connection points: 6
#     Node 11, Type 1, BuildingBlock: MIDCAF_clean_sbu_0, # of connection points: 6
#     Edge 12, Type (0, 1), BuildingBlock: TEMPAE_clean_linker_10, # of connection points: 2
#     Edge 13, Type (0, 1), BuildingBlock: TEMPAE_clean_linker_10, # of connection points: 2
#     Edge 14, Type (0, 1), BuildingBlock: TEMPAE_clean_linker_10, # of connection points: 2
#     Edge 15, Type (0, 1), BuildingBlock: TEMPAE_clean_linker_10, # of connection points: 2
#     Edge 16, Type (0, 1), BuildingBlock: TEMPAE_clean_linker_10, # of connection points: 2
#     Edge 17, Type (0, 1), BuildingBlock: TEMPAE_clean_linker_10, # of connection points: 2
#     Edge 18, Type (0, 1), BuildingBlock: TEMPAE_clean_linker_10, # of connection points: 2
#     Edge 19, Type (0, 1), BuildingBlock: TEMPAE_clean_linker_10, # of connection points: 2
#     Edge 20, Type (0, 1), BuildingBlock: TEMPAE_clean_linker_10, # of connection points: 2
#     Edge 21, Type (0, 1), BuildingBlock: TEMPAE_clean_linker_10, # of connection points: 2
#     Edge 22, Type (0, 1), BuildingBlock: TEMPAE_clean_linker_10, # of connection points: 2
#     Edge 23, Type (0, 1), BuildingBlock: TEMPAE_clean_linker_10, # of connection points: 2
#     Edge 24, Type (0, 1), BuildingBlock: TEMPAE_clean_linker_10, # of connection points: 2
#     Edge 25, Type (0, 1), BuildingBlock: TEMPAE_clean_linker_10, # of connection points: 2
#     Edge 26, Type (0, 1), BuildingBlock: TEMPAE_clean_linker_10, # of connection points: 2
#     Edge 27, Type (0, 1), BuildingBlock: TEMPAE_clean_linker_10, # of connection points: 2
#     Edge 28, Type (0, 1), BuildingBlock: TEMPAE_clean_linker_10, # of connection points: 2
#     Edge 29, Type (0, 1), BuildingBlock: TEMPAE_clean_linker_10, # of connection points: 2
#     Edge 30, Type (0, 1), BuildingBlock: TEMPAE_clean_linker_10, # of connection points: 2
#     Edge 31, Type (0, 1), BuildingBlock: TEMPAE_clean_linker_10, # of connection points: 2
#     Edge 32, Type (0, 1), BuildingBlock: TEMPAE_clean_linker_10, # of connection points: 2
#     Edge 33, Type (0, 1), BuildingBlock: TEMPAE_clean_linker_10, # of connection points: 2
#     Edge 34, Type (0, 1), BuildingBlock: TEMPAE_clean_linker_10, # of connection points: 2
#     Edge 35, Type (0, 1), BuildingBlock: TEMPAE_clean_linker_10, # of connection points: 2
# Relax obj value: 0.103
# Max RMSD: 0.160
# Mean RMSD: 0.105
data_MOF--net-ant--node1-MIDCAF_clean_sbu_0--node2-ESEHIV_clean_linker_0--edge1-TEMPAE_clean_linker_10
_symmetry_space_group_name_H-M    P1
_symmetry_Int_Tables_number       1
_symmetry_cell_setting            triclinic
loop_
_symmetry_equiv_pos_as_xyz
'x, y, z'
_cell_length_a     26.719249
_cell_length_b     26.444676
_cell_length_c     73.126149
_cell_angle_alpha  90.396838
_cell_angle_beta   94.1616
_cell_angle_gamma 89.990233
loop_
_atom_site_label
_atom_site_type_symbol
_atom_site_fract_x
_atom_site_fract_y
_atom_site_fract_z
_atom_type_partial_charge
H0 H 0.15319 0.28034 0.02938 0.0
H1 H 0.18476 0.12575 0.04344 0.0
H2 H 0.20793 0.24211 0.08449 0.0
C3 C 0.16681 0.25248 0.03933 0.0
C4 C 0.18195 0.26809 0.05733 0.0
C5 C 0.16747 0.20118 0.0342 0.0
C6 C 0.1831 0.16531 0.04736 0.0
C7 C 0.19669 0.17948 0.06555 0.0
C8 C 0.19687 0.23105 0.07048 0.0
H9 H 0.99756 0.7965 0.28644 0.0
H10 H 0.1557 0.83001 0.29105 0.0
H11 H 0.0713 0.83695 0.3387 0.0
C12 C 0.0311 0.80882 0.29443 0.0
C13 C 0.02823 0.81929 0.3132 0.0
C14 C 0.07688 0.81201 0.28616 0.0
C15 C 0.12006 0.82644 0.2971 0.0
C16 C 0.11862 0.83408 0.31607 0.0
C17 C 0.07256 0.83049 0.32409 0.0
H18 H 0.67672 0.76229 0.536 0.0
H19 H 0.68956 0.60576 0.55123 0.0
H20 H 0.73378 0.72161 0.59045 0.0
C21 C 0.68554 0.73347 0.54616 0.0
C22 C 0.70347 0.74855 0.56394 0.0
C23 C 0.6799 0.68202 0.5413 0.0
C24 C 0.69418 0.64557 0.5545 0.0
C25 C 0.71495 0.65958 0.57199 0.0
C26 C 0.71949 0.71107 0.57671 0.0
H27 H 0.49086 0.30546 0.78437 0.0
H28 H 0.64738 0.34539 0.7889 0.0
H29 H 0.56588 0.33632 0.83727 0.0
C30 C 0.5244 0.3168 0.79256 0.0
C31 C 0.52241 0.32204 0.81164 0.0
C32 C 0.56932 0.32465 0.78411 0.0
C33 C 0.61241 0.33904 0.79514 0.0
C34 C 0.61188 0.3424 0.81431 0.0
C35 C 0.56652 0.33433 0.82248 0.0
H36 H 0.0193 0.63053 0.93697 0.0
H37 H 0.06716 0.78347 0.94824 0.0
H38 H 0.99351 0.74417 0.89566 0.0
C39 C 0.02145 0.66973 0.93282 0.0
C40 C 0.00233 0.68379 0.9152 0.0
C41 C 0.04602 0.70517 0.94464 0.0
C42 C 0.04969 0.75559 0.9389 0.0
C43 C 0.03012 0.77052 0.92138 0.0
C44 C 0.00695 0.73398 0.90949 0.0
H45 H 0.61175 0.83599 0.20306 0.0
H46 H 0.76498 0.78644 0.20345 0.0
H47 H 0.67887 0.80751 0.15226 0.0
C48 C 0.64369 0.82417 0.1958 0.0
C49 C 0.63862 0.8209 0.17654 0.0
C50 C 0.68829 0.80984 0.2058 0.0
C51 C 0.73018 0.7978 0.19612 0.0
C52 C 0.72762 0.79907 0.17689 0.0
C53 C 0.68157 0.81001 0.1671 0.0
H54 H 0.57374 0.12706 0.43727 0.0
H55 H 0.58085 0.2834 0.45434 0.0
H56 H 0.53083 0.24359 0.39892 0.0
C57 C 0.56826 0.1669 0.43452 0.0
C58 C 0.54971 0.18119 0.41687 0.0
C59 C 0.57896 0.20294 0.44846 0.0
C60 C 0.57304 0.25457 0.44398 0.0
C61 C 0.55747 0.26981 0.42605 0.0
C62 C 0.54447 0.23263 0.41264 0.0
H63 H 0.11128 0.34502 0.69621 0.0
H64 H 0.27003 0.32095 0.70393 0.0
H65 H 0.19681 0.31983 0.64945 0.0
C66 C 0.14715 0.33909 0.6905 0.0
C67 C 0.149 0.33445 0.67142 0.0
C68 C 0.19035 0.33282 0.70236 0.0
C69 C 0.23652 0.32514 0.69483 0.0
C70 C 0.23967 0.3206 0.67578 0.0
C71 C 0.19544 0.32495 0.66411 0.0
Zn72 Zn 0.2224 0.67545 0.13825 0.0
Zn73 Zn 0.12701 0.79851 0.10225 0.0
Zn74 Zn 0.17539 0.73914 0.11722 0.0
C75 C 0.15031 0.73653 0.07529 0.0
C76 C 0.20082 0.85467 0.1173 0.0
O77 O 0.13827 0.73455 0.14328 0.0
O78 O 0.18599 0.68358 0.16097 0.0
C79 C 0.19182 0.6229 0.10604 0.0
O80 O 0.15585 0.70764 0.08941 0.0
O81 O 0.14906 0.78383 0.07768 0.0
O82 O 0.15379 0.8596 0.11562 0.0
O83 O 0.22004 0.81029 0.11556 0.0
O84 O 0.20947 0.61611 0.12232 0.0
O85 O 0.17754 0.66741 0.10073 0.0
O86 O 0.25206 0.77107 0.12224 0.0
O87 O 0.28965 0.70701 0.13681 0.0
C88 C 0.29211 0.74988 0.12941 0.0
O89 O 0.10281 0.75266 0.13032 0.0
O90 O 0.05735 0.77754 0.10575 0.0
C91 C 0.1489 0.71305 0.15886 0.0
C92 C 0.05958 0.76234 0.12206 0.0
Zn93 Zn 0.54241 0.67937 0.34595 0.0
Zn94 Zn 0.62605 0.8035 0.39327 0.0
Zn95 Zn 0.58162 0.74194 0.37091 0.0
C96 C 0.5349 0.84759 0.38463 0.0
C97 C 0.69076 0.79762 0.36676 0.0
O98 O 0.57337 0.66597 0.38396 0.0
O99 O 0.53908 0.61882 0.36126 0.0
C100 C 0.47131 0.75656 0.3505 0.0
O101 O 0.53113 0.80851 0.37396 0.0
O102 O 0.57306 0.85342 0.3956 0.0
O103 O 0.68561 0.82385 0.38095 0.0
O104 O 0.65593 0.76607 0.36111 0.0
O105 O 0.47896 0.71736 0.34114 0.0
O106 O 0.50561 0.77249 0.3625 0.0
O107 O 0.62685 0.74097 0.34675 0.0
O108 O 0.59302 0.68341 0.32753 0.0
C109 C 0.62587 0.71685 0.33134 0.0
O110 O 0.5971 0.69914 0.3969 0.0
O111 O 0.63946 0.75708 0.41351 0.0
C112 C 0.5554 0.62326 0.37782 0.0
C113 C 0.62202 0.7129 0.41186 0.0
Zn114 Zn 0.63908 0.29029 0.59977 0.0
Zn115 Zn 0.72411 0.16156 0.64611 0.0
Zn116 Zn 0.68679 0.2243 0.62007 0.0
C117 C 0.79914 0.2339 0.63833 0.0
C118 C 0.69951 0.10378 0.61411 0.0
O119 O 0.61425 0.24995 0.63065 0.0
O120 O 0.58178 0.31187 0.61336 0.0
C121 C 0.73407 0.32956 0.60676 0.0
O122 O 0.76365 0.25182 0.62737 0.0
O123 O 0.79155 0.19495 0.64769 0.0
O124 O 0.71278 0.09995 0.63097 0.0
O125 O 0.69013 0.1476 0.60696 0.0
O126 O 0.69366 0.33824 0.59733 0.0
O127 O 0.739 0.28913 0.61649 0.0
O128 O 0.66836 0.18301 0.59396 0.0
O129 O 0.62352 0.2429 0.57953 0.0
C130 C 0.64122 0.19867 0.57985 0.0
O131 O 0.64399 0.22657 0.64494 0.0
O132 O 0.67843 0.17457 0.66581 0.0
C133 C 0.57932 0.28279 0.62682 0.0
C134 C 0.64548 0.207 0.66107 0.0
Zn135 Zn 0.03761 0.18456 0.83892 0.0
Zn136 Zn 0.12277 0.28469 0.89141 0.0
Zn137 Zn 0.07317 0.24064 0.86647 0.0
C138 C 0.0893 0.20164 0.9078 0.0
C139 C 0.04258 0.34766 0.88074 0.0
O140 O 0.11972 0.24949 0.84278 0.0
O141 O 0.08353 0.20345 0.82011 0.0
C142 C 0.05452 0.11801 0.86729 0.0
O143 O 0.0787 0.19024 0.89081 0.0
O144 O 0.10616 0.24471 0.9123 0.0
O145 O 0.08623 0.34875 0.8886 0.0
O146 O 0.02679 0.30761 0.87202 0.0
O147 O 0.04486 0.11701 0.85015 0.0
O148 O 0.06351 0.16061 0.87567 0.0
O149 O -0.00084 0.27536 0.85939 0.0
O150 O 0.97118 0.21953 0.83846 0.0
C151 C 0.96384 0.25854 0.84803 0.0
O152 O 0.14965 0.26359 0.8584 0.0
O153 O 0.1926 0.28098 0.88464 0.0
C154 C 0.11728 0.23397 0.82598 0.0
C155 C 0.19155 0.27431 0.86755 0.0
C156 C 0.19736 0.35943 0.05003 0.0
C157 C 0.1809 0.32304 0.06219 0.0
C158 C 0.19622 0.41136 0.05425 0.0
C159 C 0.17841 0.42753 0.07109 0.0
C160 C 0.16072 0.39112 0.08323 0.0
C161 C 0.16226 0.33941 0.07866 0.0
C162 C 0.21554 0.44881 0.04095 0.0
C163 C 0.14139 0.40671 0.10132 0.0
C164 C 0.23114 0.54441 0.09561 0.0
C165 C 0.19083 0.57838 0.09366 0.0
C166 C 0.2284 0.49633 0.0875 0.0
C167 C 0.18404 0.48146 0.07713 0.0
C168 C 0.14443 0.51692 0.07397 0.0
C169 C 0.14823 0.56518 0.08235 0.0
C170 C 0.27193 0.46035 0.09104 0.0
C171 C 0.0969 0.50293 0.0627 0.0
H172 H 0.21219 0.34722 0.03732 0.0
H173 H 0.14858 0.31176 0.08797 0.0
H174 H 0.18752 0.47917 0.03801 0.0
H175 H 0.25016 0.4671 0.04715 0.0
H176 H 0.22422 0.43065 0.02781 0.0
H177 H 0.12547 0.37435 0.10859 0.0
H178 H 0.17242 0.42342 0.11031 0.0
H179 H 0.11201 0.43615 0.09913 0.0
H180 H 0.26433 0.55474 0.10426 0.0
H181 H 0.11692 0.59128 0.08091 0.0
H182 H 0.28301 0.44367 0.07798 0.0
H183 H 0.26051 0.42878 0.09975 0.0
H184 H 0.30524 0.47918 0.09808 0.0
H185 H 0.10554 0.48237 0.05004 0.0
H186 H 0.07394 0.53676 0.05884 0.0
H187 H 0.0742 0.47733 0.07076 0.0
C188 C 0.9365 0.83947 0.31175 0.0
C189 C 0.97863 0.81758 0.32119 0.0
C190 C 0.88884 0.83663 0.31856 0.0
C191 C 0.88307 0.81146 0.33527 0.0
C192 C 0.92552 0.7899 0.34503 0.0
C193 C 0.97283 0.7932 0.33787 0.0
C194 C 0.8448 0.86111 0.30795 0.0
C195 C 0.92091 0.76331 0.36303 0.0
C196 C 0.76929 0.84441 0.36119 0.0
C197 C 0.73817 0.80221 0.35753 0.0
C198 C 0.81656 0.84777 0.35412 0.0
C199 C 0.83274 0.80854 0.3427 0.0
C200 C 0.80101 0.76648 0.33852 0.0
C201 C 0.7547 0.76321 0.34639 0.0
C202 C 0.8496 0.8928 0.3592 0.0
C203 C 0.81615 0.72476 0.32586 0.0
H204 H 0.94088 0.85917 0.29901 0.0
H205 H 0.00512 0.77587 0.34516 0.0
H206 H 0.81265 0.83452 0.30632 0.0
H207 H 0.83216 0.89445 0.31565 0.0
H208 H 0.85444 0.8739 0.29421 0.0
H209 H 0.95764 0.74939 0.3691 0.0
H210 H 0.9047 0.7894 0.37298 0.0
H211 H 0.89495 0.73069 0.36101 0.0
H212 H 0.7571 0.87459 0.36994 0.0
H213 H 0.73211 0.72949 0.34419 0.0
H214 H 0.8592 0.91293 0.34667 0.0
H215 H 0.88537 0.87986 0.36632 0.0
H216 H 0.83144 0.92002 0.36828 0.0
H217 H 0.82458 0.74086 0.31245 0.0
H218 H 0.78638 0.69564 0.32345 0.0
H219 H 0.85085 0.70616 0.33173 0.0
C220 C 0.78206 0.61406 0.59121 0.0
C221 C 0.73146 0.61897 0.58493 0.0
C222 C 0.79999 0.56891 0.59947 0.0
C223 C 0.76648 0.52797 0.6012 0.0
C224 C 0.7145 0.53492 0.5964 0.0
C225 C 0.69775 0.58034 0.58838 0.0
C226 C 0.85526 0.56416 0.60497 0.0
C227 C 0.67689 0.49285 0.59821 0.0
C228 C 0.78524 0.3912 0.59168 0.0
C229 C 0.77072 0.37103 0.60811 0.0
C230 C 0.79253 0.44337 0.58993 0.0
C231 C 0.78495 0.47559 0.60505 0.0
C232 C 0.78038 0.45408 0.62253 0.0
C233 C 0.77312 0.40156 0.62388 0.0
C234 C 0.79969 0.46434 0.57116 0.0
C235 C 0.77554 0.48688 0.63924 0.0
H236 H 0.80821 0.64404 0.58857 0.0
H237 H 0.65853 0.58451 0.58368 0.0
H238 H 0.86277 0.5361 0.61604 0.0
H239 H 0.87515 0.55183 0.59291 0.0
H240 H 0.87123 0.60125 0.60962 0.0
H241 H 0.63766 0.50555 0.5949 0.0
H242 H 0.68492 0.46127 0.58879 0.0
H243 H 0.67977 0.47786 0.61237 0.0
H244 H 0.78385 0.36732 0.57952 0.0
H245 H 0.76228 0.38587 0.63668 0.0
H246 H 0.82695 0.496 0.57208 0.0
H247 H 0.76335 0.47922 0.56512 0.0
H248 H 0.81314 0.43494 0.56176 0.0
H249 H 0.79882 0.52152 0.63868 0.0
H250 H 0.78679 0.46596 0.652 0.0
H251 H 0.73583 0.4987 0.63982 0.0
C252 C 0.6739 0.31115 0.83889 0.0
C253 C 0.66043 0.34737 0.82552 0.0
C254 C 0.72395 0.30615 0.84598 0.0
C255 C 0.76128 0.33828 0.83959 0.0
C256 C 0.74672 0.37879 0.82781 0.0
C257 C 0.69649 0.38261 0.82078 0.0
C258 C 0.73764 0.26285 0.85871 0.0
C259 C 0.78497 0.415 0.82117 0.0
C260 C 0.89655 0.31664 0.85886 0.0
C261 C 0.91384 0.28327 0.84571 0.0
C262 C 0.84766 0.337 0.8568 0.0
C263 C 0.81494 0.3222 0.84156 0.0
C264 C 0.83271 0.28925 0.82813 0.0
C265 C 0.88178 0.27069 0.8303 0.0
C266 C 0.83082 0.37296 0.87123 0.0
C267 C 0.79944 0.27231 0.8116 0.0
H268 H 0.64625 0.28381 0.84263 0.0
H269 H 0.68606 0.41128 0.81068 0.0
H270 H 0.75585 0.23253 0.85098 0.0
H271 H 0.76481 0.27535 0.87002 0.0
H272 H 0.70417 0.24662 0.86468 0.0
H273 H 0.76705 0.44981 0.81534 0.0
H274 H 0.81291 0.42577 0.83249 0.0
H275 H 0.80551 0.39631 0.81033 0.0
H276 H 0.92062 0.32585 0.87098 0.0
H277 H 0.89474 0.24528 0.81995 0.0
H278 H 0.80846 0.3519 0.88086 0.0
H279 H 0.8067 0.40335 0.86501 0.0
H280 H 0.8633 0.39057 0.87924 0.0
H281 H 0.76619 0.25201 0.81611 0.0
H282 H 0.81923 0.24684 0.80236 0.0
H283 H 0.78559 0.3056 0.80359 0.0
C284 C 0.94045 0.61655 0.90534 0.0
C285 C 0.98395 0.64382 0.90226 0.0
C286 C 0.93132 0.56925 0.89688 0.0
C287 C 0.96806 0.54806 0.88612 0.0
C288 C 0.00827 0.5787 0.88104 0.0
C289 C 0.01555 0.62658 0.88914 0.0
C290 C 0.88564 0.53948 0.90125 0.0
C291 C 0.0477 0.55827 0.8692 0.0
C292 C 0.01796 0.41972 0.89934 0.0
C293 C 0.01127 0.39292 0.88279 0.0
C294 C 0.00084 0.46923 0.90091 0.0
C295 C 0.97451 0.49221 0.88562 0.0
C296 C 0.96226 0.46315 0.86951 0.0
C297 C 0.9818 0.41384 0.86812 0.0
C298 C 0.01516 0.49811 0.91847 0.0
C299 C 0.93128 0.48452 0.85334 0.0
H300 H 0.91553 0.63049 0.91529 0.0
H301 H 0.04894 0.64813 0.8867 0.0
H302 H 0.87283 0.51433 0.88961 0.0
H303 H 0.89493 0.51547 0.9134 0.0
H304 H 0.85443 0.56504 0.90448 0.0
H305 H 0.07302 0.58848 0.86482 0.0
H306 H 0.07076 0.52961 0.87699 0.0
H307 H 0.0298 0.53942 0.85681 0.0
H308 H 0.03992 0.40301 0.91082 0.0
H309 H 0.97642 0.39309 0.85529 0.0
H310 H 0.98109 0.51226 0.92461 0.0
H311 H 0.03858 0.53134 0.91555 0.0
H312 H 0.03653 0.47454 0.92885 0.0
H313 H 0.90825 0.51727 0.85723 0.0
H314 H 0.90607 0.45492 0.84694 0.0
H315 H 0.95651 0.49682 0.84282 0.0
C316 C 0.79136 0.82214 0.15497 0.0
C317 C 0.77349 0.78758 0.16737 0.0
C318 C 0.83832 0.81514 0.14782 0.0
C319 C 0.86761 0.77216 0.15302 0.0
C320 C 0.84879 0.73619 0.165 0.0
C321 C 0.80205 0.74447 0.1721 0.0
C322 C 0.85727 0.85454 0.13518 0.0
C323 C 0.87851 0.68957 0.17065 0.0
C324 C 0.96989 0.73804 0.12172 0.0
C325 C 0.01259 0.75849 0.13129 0.0
C326 C 0.92278 0.74044 0.12897 0.0
C327 C 0.91811 0.76511 0.14599 0.0
C328 C 0.96147 0.78476 0.15592 0.0
C329 C 0.00837 0.78084 0.14849 0.0
C330 C 0.87777 0.71805 0.11813 0.0
C331 C 0.95798 0.81229 0.17391 0.0
H332 H 0.76953 0.85572 0.15148 0.0
H333 H 0.78807 0.71755 0.18162 0.0
H334 H 0.89273 0.87117 0.14137 0.0
H335 H 0.86577 0.83683 0.12196 0.0
H336 H 0.82975 0.8855 0.13234 0.0
H337 H 0.85744 0.66401 0.17933 0.0
H338 H 0.8887 0.66828 0.15833 0.0
H339 H 0.91403 0.70076 0.17843 0.0
H340 H 0.97327 0.72094 0.10834 0.0
H341 H 0.04113 0.79798 0.15558 0.0
H342 H 0.85142 0.74865 0.11357 0.0
H343 H 0.85729 0.69223 0.12687 0.0
H344 H 0.8884 0.69676 0.10585 0.0
H345 H 0.93674 0.84799 0.17155 0.0
H346 H 0.99558 0.8216 0.18056 0.0
H347 H 0.93716 0.78919 0.18343 0.0
C348 C 0.57714 0.34055 0.40511 0.0
C349 C 0.55682 0.32452 0.42124 0.0
C350 C 0.5783 0.39196 0.40051 0.0
C351 C 0.55847 0.42848 0.41228 0.0
C352 C 0.53858 0.41272 0.42874 0.0
C353 C 0.53799 0.36095 0.43303 0.0
C354 C 0.60004 0.40713 0.38286 0.0
C355 C 0.51721 0.45049 0.44164 0.0
C356 C 0.59382 0.56419 0.40166 0.0
C357 C 0.55328 0.57812 0.38953 0.0
C358 C 0.59474 0.51667 0.41027 0.0
C359 C 0.55455 0.48228 0.40635 0.0
C360 C 0.51232 0.49762 0.39494 0.0
C361 C 0.5123 0.54523 0.38667 0.0
C362 C 0.64011 0.50225 0.4226 0.0
C363 C 0.46838 0.46258 0.39051 0.0
H364 H 0.59272 0.31281 0.39614 0.0
H365 H 0.52204 0.34889 0.44549 0.0
H366 H 0.57031 0.42427 0.37348 0.0
H367 H 0.62969 0.4361 0.38566 0.0
H368 H 0.6164 0.37451 0.37572 0.0
H369 H 0.50444 0.43234 0.45414 0.0
H370 H 0.54585 0.47949 0.44585 0.0
H371 H 0.48494 0.47052 0.43456 0.0
H372 H 0.62595 0.58915 0.40362 0.0
H373 H 0.48078 0.55606 0.37734 0.0
H374 H 0.66413 0.47637 0.41506 0.0
H375 H 0.62891 0.48195 0.43489 0.0
H376 H 0.66276 0.53589 0.42715 0.0
H377 H 0.48034 0.43055 0.38197 0.0
H378 H 0.43644 0.48202 0.38294 0.0
H379 H 0.45509 0.44647 0.40326 0.0
C380 C 0.06308 0.36847 0.66284 0.0
C381 C 0.10091 0.33316 0.65984 0.0
C382 C 0.01329 0.36006 0.65601 0.0
C383 C 0.00109 0.31519 0.646 0.0
C384 C 0.04007 0.28238 0.64121 0.0
C385 C 0.08961 0.29174 0.6482 0.0
C386 C 0.97313 0.39661 0.66111 0.0
C387 C 0.02882 0.23457 0.6303 0.0
C388 C 0.88074 0.24878 0.65617 0.0
C389 C 0.84935 0.25807 0.64035 0.0
C390 C 0.92965 0.26799 0.65818 0.0
C391 C 0.94801 0.29743 0.64401 0.0
C392 C 0.91615 0.30821 0.62817 0.0
C393 C 0.86721 0.28805 0.62647 0.0
C394 C 0.96199 0.25593 0.67543 0.0
C395 C 0.93407 0.33958 0.61277 0.0
H396 H 0.07185 0.40103 0.67159 0.0
H397 H 0.11863 0.2643 0.64583 0.0
H398 H 0.9453 0.40294 0.64934 0.0
H399 H 0.95279 0.38044 0.67241 0.0
H400 H 0.98921 0.43365 0.66578 0.0
H401 H 0.06325 0.21781 0.62512 0.0
H402 H 0.01179 0.20635 0.63915 0.0
H403 H 0.00142 0.24205 0.6185 0.0
H404 H 0.86715 0.22594 0.66703 0.0
H405 H 0.84364 0.29444 0.61403 0.0
H406 H 0.97541 0.29141 0.68233 0.0
H407 H 0.99555 0.23424 0.67189 0.0
H408 H 0.94162 0.23345 0.68531 0.0
H409 H 0.95534 0.37313 0.61821 0.0
H410 H 0.9024 0.35252 0.60326 0.0
H411 H 0.95978 0.31658 0.60485 0.0
C412 C 0.32411 0.27823 0.67805 0.0
C413 C 0.28924 0.30992 0.66842 0.0
C414 C 0.37274 0.27167 0.67242 0.0
C415 C 0.38633 0.29559 0.65628 0.0
C416 C 0.35072 0.32564 0.64598 0.0
C417 C 0.30281 0.33295 0.65229 0.0
C418 C 0.4094 0.23921 0.68384 0.0
C419 C 0.36342 0.35055 0.62838 0.0
C420 C 0.52213 0.32334 0.64787 0.0
C421 C 0.53339 0.28268 0.63658 0.0
C422 C 0.47512 0.32662 0.65519 0.0
C423 C 0.43796 0.28974 0.65024 0.0
C424 C 0.44973 0.24819 0.63902 0.0
C425 C 0.49776 0.24477 0.63255 0.0
C426 C 0.4648 0.37045 0.6677 0.0
C427 C 0.41091 0.20877 0.63309 0.0
H428 H 0.31363 0.25868 0.69017 0.0
H429 H 0.2764 0.35764 0.64478 0.0
H430 H 0.41213 0.20153 0.67725 0.0
H431 H 0.44752 0.25612 0.68488 0.0
H432 H 0.39729 0.23354 0.69789 0.0
H433 H 0.3304 0.36936 0.62126 0.0
H434 H 0.39319 0.37928 0.63136 0.0
H435 H 0.3783 0.32208 0.61896 0.0
H436 H 0.54987 0.35279 0.65078 0.0
H437 H 0.50666 0.21383 0.62353 0.0
H438 H 0.44355 0.35783 0.67933 0.0
H439 H 0.44156 0.39894 0.65994 0.0
H440 H 0.50001 0.38908 0.67325 0.0
H441 H 0.39637 0.19061 0.64524 0.0
H442 H 0.42616 0.17889 0.62429 0.0
H443 H 0.37861 0.22705 0.62535 0.0
C444 C 0.54692 0.80066 0.17526 0.0
C445 C 0.58727 0.82269 0.1669 0.0
C446 C 0.49862 0.79896 0.16652 0.0
C447 C 0.48999 0.8186 0.14862 0.0
C448 C 0.53002 0.84185 0.14011 0.0
C449 C 0.57826 0.84366 0.14936 0.0
C450 C 0.45727 0.77374 0.1762 0.0
C451 C 0.52239 0.86304 0.12102 0.0
C452 C 0.38309 0.74406 0.12568 0.0
C453 C 0.34186 0.77409 0.12944 0.0
C454 C 0.43229 0.76091 0.12987 0.0
C455 C 0.44048 0.80867 0.13843 0.0
C456 C 0.39901 0.84123 0.14058 0.0
C457 C 0.3499 0.82355 0.13595 0.0
C458 C 0.47513 0.72519 0.12695 0.0
C459 C 0.40597 0.8926 0.14946 0.0
H460 H 0.55327 0.78285 0.18852 0.0
H461 H 0.60891 0.86103 0.14278 0.0
H462 H 0.42375 0.79855 0.17602 0.0
H463 H 0.44591 0.73809 0.16896 0.0
H464 H 0.46903 0.76461 0.19069 0.0
H465 H 0.55442 0.88704 0.11754 0.0
H466 H 0.51839 0.83146 0.11095 0.0
H467 H 0.48741 0.88571 0.1195 0.0
H468 H 0.37677 0.70595 0.12042 0.0
H469 H 0.31798 0.84678 0.13888 0.0
H470 H 0.48875 0.70851 0.14028 0.0
H471 H 0.507 0.7456 0.12147 0.0
H472 H 0.46355 0.69385 0.11736 0.0
H473 H 0.41085 0.88809 0.16456 0.0
H474 H 0.37292 0.91734 0.14622 0.0
H475 H 0.44003 0.91155 0.14501 0.0
C476 C 0.45785 0.34697 0.83326 0.0
C477 C 0.47426 0.31316 0.82011 0.0
C478 C 0.41122 0.34041 0.84065 0.0
C479 C 0.38043 0.29884 0.83485 0.0
C480 C 0.397 0.26431 0.82171 0.0
C481 C 0.44372 0.27184 0.81453 0.0
C482 C 0.39463 0.37826 0.85453 0.0
C483 C 0.3654 0.21938 0.81526 0.0
C484 C 0.28274 0.25699 0.86678 0.0
C485 C 0.23883 0.27829 0.85848 0.0
C486 C 0.32893 0.26267 0.85906 0.0
C487 C 0.33129 0.29099 0.84279 0.0
C488 C 0.28691 0.31252 0.83435 0.0
C489 C 0.24115 0.30592 0.84235 0.0
C490 C 0.37525 0.23882 0.86841 0.0
C491 C 0.28789 0.34307 0.81705 0.0
H492 H 0.48104 0.37923 0.83746 0.0
H493 H 0.4565 0.24516 0.80456 0.0
H494 H 0.35856 0.39572 0.84943 0.0
H495 H 0.38808 0.35888 0.86755 0.0
H496 H 0.42272 0.40875 0.85747 0.0
H497 H 0.38387 0.19584 0.80506 0.0
H498 H 0.3577 0.19534 0.82711 0.0
H499 H 0.32864 0.23239 0.80897 0.0
H500 H 0.28088 0.23585 0.87937 0.0
H501 H 0.20755 0.32403 0.83642 0.0
H502 H 0.40299 0.26858 0.87272 0.0
H503 H 0.39322 0.21335 0.8587 0.0
H504 H 0.36673 0.21673 0.88067 0.0
H505 H 0.3153 0.37449 0.81906 0.0
H506 H 0.25054 0.35914 0.81271 0.0
H507 H 0.30033 0.31874 0.80585 0.0
C508 C 0.18121 0.80314 0.34033 0.0
C509 C 0.16675 0.83996 0.32733 0.0
C510 C 0.2315 0.79883 0.34721 0.0
C511 C 0.26786 0.8326 0.34109 0.0
C512 C 0.25212 0.87355 0.3297 0.0
C513 C 0.2018 0.87635 0.32273 0.0
C514 C 0.2465 0.75475 0.3594 0.0
C515 C 0.28925 0.91155 0.32345 0.0
C516 C 0.40278 0.8135 0.36096 0.0
C517 C 0.42168 0.78177 0.34764 0.0
C518 C 0.3535 0.83274 0.35873 0.0
C519 C 0.32202 0.81843 0.34311 0.0
C520 C 0.34151 0.78752 0.32942 0.0
C521 C 0.391 0.77013 0.33178 0.0
C522 C 0.33485 0.86662 0.37346 0.0
C523 C 0.3095 0.77105 0.31252 0.0
H524 H 0.15417 0.7749 0.34385 0.0
H525 H 0.19049 0.90517 0.31279 0.0
H526 H 0.2662 0.72613 0.35139 0.0
H527 H 0.27281 0.76717 0.37099 0.0
H528 H 0.21351 0.73642 0.365 0.0
H529 H 0.27027 0.9463 0.31803 0.0
H530 H 0.31694 0.92217 0.33488 0.0
H531 H 0.31023 0.89456 0.31238 0.0
H532 H 0.42559 0.82173 0.37345 0.0
H533 H 0.40525 0.74595 0.32131 0.0
H534 H 0.31323 0.84373 0.3828 0.0
H535 H 0.30959 0.89647 0.36748 0.0
H536 H 0.36645 0.8849 0.38174 0.0
H537 H 0.27663 0.74928 0.31658 0.0
H538 H 0.33051 0.7471 0.30316 0.0
H539 H 0.295 0.8046 0.30481 0.0
C540 C 0.66346 0.8347 0.56275 0.0
C541 C 0.70351 0.80339 0.5691 0.0
C542 C 0.66178 0.88602 0.56776 0.0
C543 C 0.70072 0.90672 0.57964 0.0
C544 C 0.74176 0.87573 0.58583 0.0
C545 C 0.74271 0.82453 0.58048 0.0
C546 C 0.61732 0.91758 0.56087 0.0
C547 C 0.78405 0.89633 0.59855 0.0
C548 C 0.71541 0.04947 0.58677 0.0
C549 C 0.69351 0.05622 0.60343 0.0
C550 C 0.71692 1.00121 0.57849 0.0
C551 C 0.69606 0.95905 0.58715 0.0
C552 C 0.67221 0.96638 0.60362 0.0
C553 C 0.6714 0.01472 0.61154 0.0
C554 C 0.74216 0.99503 0.56081 0.0
C555 C 0.64927 0.92276 0.61331 0.0
H556 H 0.63248 0.81877 0.5542 0.0
H557 H 0.77416 0.80104 0.58524 0.0
H558 H 0.59461 0.92764 0.57248 0.0
H559 H 0.63013 0.95347 0.55498 0.0
H560 H 0.5928 0.89739 0.55028 0.0
H561 H 0.81485 0.86848 0.60112 0.0
H562 H 0.79969 0.93104 0.5927 0.0
H563 H 0.76953 0.907 0.61188 0.0
H564 H 0.73385 0.08113 0.58082 0.0
H565 H 0.6546 0.01989 0.62449 0.0
H566 H 0.71428 0.98219 0.54978 0.0
H567 H 0.77176 0.96561 0.56233 0.0
H568 H 0.75939 0.0308 0.55648 0.0
H569 H 0.6217 0.90256 0.60383 0.0
H570 H 0.63007 0.93528 0.62554 0.0
H571 H 0.67896 0.89524 0.61779 0.0
C572 C 0.25351 0.13676 0.08986 0.0
C573 C 0.20792 0.13872 0.0791 0.0
C574 C 0.26677 0.09344 0.10029 0.0
C575 C 0.23384 0.05128 0.09966 0.0
C576 C 0.18671 0.05451 0.08949 0.0
C577 C 0.17431 0.09823 0.07954 0.0
C578 C 0.3168 0.09224 0.11123 0.0
C579 C 0.14985 0.01098 0.08846 0.0
C580 C 0.25955 0.9124 0.10323 0.0
C581 C 0.231 0.90126 0.11798 0.0
C582 C 0.26789 0.96294 0.09841 0.0
C583 C 0.24771 1.00251 0.10882 0.0
C584 C 0.22729 0.99097 0.12561 0.0
C585 C 0.21833 0.94027 0.12985 0.0
C586 C 0.29126 0.97356 0.08068 0.0
C587 C 0.20798 0.03198 0.13768 0.0
H588 H 0.27965 0.16803 0.0895 0.0
H589 H 0.13872 0.10007 0.07143 0.0
H590 H 0.31509 0.06972 0.12392 0.0
H591 H 0.34502 0.07453 0.10281 0.0
H592 H 0.33 0.13102 0.115 0.0
H593 H 0.11516 0.01961 0.07974 0.0
H594 H 0.1675 0.97688 0.08277 0.0
H595 H 0.13901 1.00152 0.10239 0.0
H596 H 0.26948 0.88215 0.09408 0.0
H597 H 0.19667 0.9315 0.14141 0.0
H598 H 0.31608 0.00716 0.08213 0.0
H599 H 0.26114 0.98173 0.06984 0.0
H600 H 0.31334 0.94077 0.07615 0.0
H601 H 0.23261 0.0658 0.13791 0.0
H602 H 0.20531 0.01855 0.15194 0.0
H603 H 0.16993 0.04357 0.13218 0.0
C604 C 0.48494 0.13479 0.39676 0.0
C605 C 0.53516 0.14087 0.40338 0.0
C606 C 0.46833 0.08903 0.38841 0.0
C607 C 0.50278 0.04871 0.38697 0.0
C608 C 0.55452 0.05708 0.39188 0.0
C609 C 0.56997 0.10311 0.39998 0.0
C610 C 0.41333 0.08285 0.38266 0.0
C611 C 0.59309 0.01571 0.39035 0.0
C612 C 0.48569 0.91359 0.39874 0.0
C613 C 0.50036 0.89076 0.38268 0.0
C614 C 0.47796 0.96589 0.3996 0.0
C615 C 0.48533 0.99557 0.38396 0.0
C616 C 0.49039 0.97125 0.36687 0.0
C617 C 0.49813 0.91863 0.36642 0.0
C618 C 0.47032 0.98985 0.41798 0.0
C619 C 0.49485 1.00126 0.34963 0.0
H620 H 0.45796 0.16416 0.39933 0.0
H621 H 0.6089 0.10824 0.40494 0.0
H622 H 0.40675 0.05354 0.37181 0.0
H623 H 0.39306 0.07154 0.39469 0.0
H624 H 0.39698 0.11921 0.37758 0.0
H625 H 0.63201 0.02962 0.39351 0.0
H626 H 0.5859 0.9849 0.40006 0.0
H627 H 0.59045 0.99926 0.37633 0.0
H628 H 0.48678 0.89167 0.41125 0.0
H629 H 0.50895 0.9008 0.3539 0.0
H630 H 0.442 0.02045 0.41654 0.0
H631 H 0.50618 0.00687 0.42367 0.0
H632 H 0.45796 0.96179 0.42796 0.0
H633 H 0.47165 0.03608 0.34968 0.0
H634 H 0.48325 0.9783 0.33726 0.0
H635 H 0.53453 0.0127 0.3487 0.0
C636 C 0.99447 0.84792 0.90563 0.0
C637 C 0.03473 0.82398 0.91544 0.0
C638 C 0.9987 0.89777 0.89945 0.0
C639 C 0.04433 0.92444 0.90314 0.0
C640 C 0.08468 0.90104 0.91347 0.0
C641 C 0.07945 0.85107 0.91945 0.0
C642 C 0.95472 0.92145 0.88854 0.0
C643 C 0.1339 0.92823 0.91769 0.0
C644 C 0.07011 0.02533 0.86847 0.0
C645 C 0.05568 0.06961 0.87733 0.0
C646 C 0.068 0.97814 0.87698 0.0
C647 C 0.051 0.97503 0.89483 0.0
C648 C 0.03776 0.01982 0.90408 0.0
C649 C 0.0397 0.06657 0.89511 0.0
C650 C 0.08264 0.93141 0.86663 0.0
C651 C 0.01991 0.01824 0.92318 0.0
H652 H 0.95952 0.8276 0.90277 0.0
H653 H 0.11094 0.83274 0.92687 0.0
H654 H 0.94503 0.95823 0.89476 0.0
H655 H 0.96496 0.92912 0.87438 0.0
H656 H 0.92095 0.89681 0.88776 0.0
H657 H 0.15998 0.90652 0.9272 0.0
H658 H 0.15235 0.93464 0.90479 0.0
H659 H 0.12737 0.96589 0.92387 0.0
H660 H 0.08253 0.02753 0.85471 0.0
H661 H 0.02663 0.10035 0.90167 0.0
H662 H 0.04954 0.90633 0.86409 0.0
H663 H 0.11163 0.90979 0.87491 0.0
H664 H 0.09744 0.9406 0.85323 0.0
H665 H 0.98266 0.99957 0.92278 0.0
H666 H 0.0166 0.05666 0.92923 0.0
H667 H 0.04605 0.99562 0.93233 0.0
C668 C 0.1233 0.14037 0.0118 0.0
C669 C 0.15149 0.18484 0.01516 0.0
C670 C 0.10767 0.12506 0.99385 0.0
C671 C 0.1193 0.1557 0.97898 0.0
C672 C 0.14851 0.2001 0.98228 0.0
C673 C 0.16457 0.21376 0.00028 0.0
C674 C 0.07747 0.07705 0.99105 0.0
C675 C 0.16192 0.2341 0.96682 0.0
C676 C 0.12122 0.13449 0.92861 0.0
C677 C 0.08187 0.1667 0.92274 0.0
C678 C 0.12953 0.12264 0.94726 0.0
C679 C 0.09839 0.14479 0.95998 0.0
C680 C 0.05359 0.1694 0.95353 0.0
C681 C 0.0458 0.18003 0.93483 0.0
C682 C 0.1757 0.09301 0.95357 0.0
C683 C 0.01833 0.192 0.96657 0.0
H684 H 0.1125 0.11789 0.0232 0.0
H685 H 0.18736 0.24738 0.0027 0.0
H686 H 0.03703 0.08605 0.99149 0.0
H687 H 0.08308 0.05883 0.97764 0.0
H688 H 0.08743 0.04952 0.00214 0.0
H689 H 0.18482 0.26717 0.97177 0.0
H690 H 0.18335 0.21251 0.95694 0.0
H691 H 0.12724 0.24827 0.95928 0.0
H692 H 0.14889 0.12391 0.91913 0.0
H693 H 0.0152 0.20479 0.93013 0.0
H694 H 0.16891 0.06997 0.96577 0.0
H695 H 0.20685 0.11964 0.95744 0.0
H696 H 0.18771 0.06773 0.9425 0.0
H697 H 0.01201 0.16541 0.97782 0.0
H698 H 0.9815 0.2019 0.95946 0.0
H699 H 0.03527 0.22698 0.9728 0.0
C700 C 0.03931 0.80542 0.25345 0.0
C701 C 0.08014 0.79794 0.26641 0.0
C702 C 0.04162 0.79046 0.23505 0.0
C703 C 0.08679 0.77019 0.22916 0.0
C704 C 0.12834 0.76322 0.24203 0.0
C705 C 0.12406 0.77583 0.26049 0.0
C706 C 0.9957 0.79701 0.22203 0.0
C707 C 0.17772 0.74275 0.23631 0.0
C708 C 0.10365 0.69217 0.18646 0.0
C709 C 0.12281 0.72841 0.175 0.0
C710 C 0.08693 0.7062 0.20354 0.0
C711 C 0.09193 0.75713 0.20956 0.0
C712 C 0.10877 0.79419 0.19753 0.0
C713 C 0.12351 0.77937 0.18028 0.0
C714 C 0.06638 0.66616 0.21555 0.0
C715 C 0.11496 0.84877 0.20342 0.0
H716 H 0.00535 0.8232 0.25756 0.0
H717 H 0.15539 0.7679 0.27027 0.0
H718 H 0.99842 0.83342 0.21474 0.0
H719 H 0.99241 0.76609 0.21168 0.0
H720 H 0.96086 0.79796 0.22944 0.0
H721 H 0.20728 0.74249 0.2478 0.0
H722 H 0.17263 0.70355 0.23102 0.0
H723 H 0.19114 0.76594 0.22505 0.0
H724 H 0.10303 0.65276 0.18226 0.0
H725 H 0.13873 0.80722 0.17137 0.0
H726 H 0.03207 0.6801 0.22165 0.0
H727 H 0.0945 0.65732 0.22699 0.0
H728 H 0.0572 0.63068 0.2078 0.0
H729 H 0.07947 0.86343 0.20837 0.0
H730 H 0.12605 0.87328 0.19212 0.0
H731 H 0.14415 0.85165 0.21499 0.0
C732 C 0.62678 0.69803 0.51207 0.0
C733 C 0.66055 0.66673 0.52232 0.0
C734 C 0.61529 0.68944 0.49331 0.0
C735 C 0.6359 0.64687 0.48469 0.0
C736 C 0.66415 0.6113 0.49544 0.0
C737 C 0.67743 0.6223 0.51398 0.0
C738 C 0.58474 0.72857 0.48245 0.0
C739 C 0.68353 0.56329 0.4872 0.0
C740 C 0.59162 0.65099 0.43444 0.0
C741 C 0.63042 0.67972 0.42786 0.0
C742 C 0.59552 0.63325 0.45261 0.0
C743 C 0.63786 0.64707 0.46442 0.0
C744 C 0.67925 0.67099 0.45706 0.0
C745 C 0.67527 0.68602 0.43877 0.0
C746 C 0.55274 0.60329 0.45941 0.0
C747 C 0.72558 0.68622 0.46894 0.0
H748 H 0.61097 0.73082 0.51848 0.0
H749 H 0.70308 0.59703 0.52154 0.0
H750 H 0.60807 0.74631 0.47228 0.0
H751 H 0.5522 0.71043 0.47476 0.0
H752 H 0.57056 0.75889 0.4913 0.0
H753 H 0.68395 0.53205 0.49729 0.0
H754 H 0.66047 0.55156 0.47465 0.0
H755 H 0.72271 0.56908 0.4836 0.0
H756 H 0.55703 0.64556 0.42596 0.0
H757 H 0.70572 0.70727 0.43347 0.0
H758 H 0.52408 0.62955 0.46425 0.0
H759 H 0.56566 0.57828 0.47094 0.0
H760 H 0.53439 0.57985 0.44817 0.0
H761 H 0.71522 0.71317 0.47974 0.0
H762 H 0.75439 0.7044 0.46095 0.0
H763 H 0.74275 0.65266 0.47586 0.0
C764 C 0.53082 0.32155 0.75144 0.0
C765 C 0.57226 0.3137 0.76411 0.0
C766 C 0.53224 0.30725 0.73292 0.0
C767 C 0.5766 0.2858 0.72678 0.0
C768 C 0.61915 0.27974 0.73928 0.0
C769 C 0.6161 0.29266 0.75776 0.0
C770 C 0.48537 0.31307 0.72032 0.0
C771 C 0.66787 0.25842 0.73325 0.0
C772 C 0.59293 0.19595 0.68752 0.0
C773 C 0.61441 0.22797 0.6751 0.0
C774 C 0.57414 0.2155 0.70354 0.0
C775 C 0.5793 0.26779 0.70754 0.0
C776 C 0.59664 0.30073 0.69419 0.0
C777 C 0.61369 0.28035 0.678 0.0
C778 C 0.55264 0.17968 0.71689 0.0
C779 C 0.6021 0.35677 0.69778 0.0
H780 H 0.49685 0.3384 0.75596 0.0
H781 H 0.64801 0.28482 0.7673 0.0
H782 H 0.49408 0.32046 0.706 0.0
H783 H 0.46355 0.27741 0.72042 0.0
H784 H 0.46122 0.34409 0.725 0.0
H785 H 0.69879 0.26092 0.74423 0.0
H786 H 0.66266 0.2181 0.72927 0.0
H787 H 0.67945 0.27899 0.72107 0.0
H788 H 0.59303 0.15544 0.68512 0.0
H789 H 0.63047 0.30506 0.66837 0.0
H790 H 0.51864 0.19625 0.72243 0.0
H791 H 0.58061 0.17318 0.72861 0.0
H792 H 0.5427 0.14255 0.71041 0.0
H793 H 0.56813 0.3722 0.70367 0.0
H794 H 0.60868 0.37791 0.6851 0.0
H795 H 0.63439 0.36344 0.70794 0.0
C796 C 0.11633 0.70633 0.96916 0.0
C797 C 0.06809 0.68995 0.96301 0.0
C798 C 0.13475 0.69935 0.98741 0.0
C799 C 0.10385 0.67616 -0.00013 0.0
C800 C 0.0574 0.65469 0.99324 0.0
C801 C 0.03999 0.66188 0.97484 0.0
C802 C 0.18505 0.72168 0.99378 0.0
C803 C 0.02367 0.62892 0.00598 0.0
C804 C 0.1543 0.6705 0.05017 0.0
C805 C 0.1374 0.71714 0.05652 0.0
C806 C 0.14248 0.6551 0.03183 0.0
C807 C 0.11333 0.68734 0.01979 0.0
C808 C 0.09479 0.73346 0.0265 0.0
C809 C 0.10708 0.74762 0.04466 0.0
C810 C 0.16268 0.60546 0.02528 0.0
C811 C 0.06289 0.7689 0.01438 0.0
H812 H 0.13884 0.72667 0.95987 0.0
H813 H 0.00291 0.64853 0.97008 0.0
H814 H 0.17922 0.75781 0.00114 0.0
H815 H 0.20605 0.69586 0.00345 0.0
H816 H 0.20826 0.7295 0.98211 0.0
H817 H 0.99514 0.60478 -0.00167 0.0
H818 H 0.04581 0.60532 0.01611 0.0
H819 H 0.00375 0.65804 0.01369 0.0
H820 H 0.17786 0.64696 0.05928 0.0
H821 H 0.09285 0.78324 0.04957 0.0
H822 H 0.19676 0.61268 0.01789 0.0
H823 H 0.13496 0.58606 0.01561 0.0
H824 H 0.17311 0.5798 0.03691 0.0
H825 H 0.08478 0.78278 0.0031 0.0
H826 H 0.04971 0.80222 0.02203 0.0
H827 H 0.02953 0.74868 0.00807 0.0
C828 C 0.64613 0.7863 0.23412 0.0
C829 C 0.68945 0.80259 0.22609 0.0
C830 C 0.64663 0.77642 0.25289 0.0
C831 C 0.69225 0.78014 0.26396 0.0
C832 C 0.73632 0.79611 0.25605 0.0
C833 C 0.73406 0.80852 0.23735 0.0
C834 C 0.59823 0.76072 0.26077 0.0
C835 C 0.78612 0.80043 0.26703 0.0
C836 C 0.66393 0.78476 0.31356 0.0
C837 C 0.65751 0.73308 0.31679 0.0
C838 C 0.68122 0.80129 0.29695 0.0
C839 C 0.6926 0.76514 0.28352 0.0
C840 C 0.69312 0.71311 0.28792 0.0
C841 C 0.67443 0.69753 0.30439 0.0
C842 C 0.68234 0.85716 0.29304 0.0
C843 C 0.709 0.6737 0.2745 0.0
H844 H 0.61166 0.77981 0.22571 0.0
H845 H 0.76768 0.82222 0.23159 0.0
H846 H 0.60068 0.72054 0.265 0.0
H847 H 0.59177 0.78374 0.27313 0.0
H848 H 0.56521 0.76498 0.25076 0.0
H849 H 0.81724 0.78903 0.2586 0.0
H850 H 0.79232 0.84062 0.27096 0.0
H851 H 0.78806 0.77715 0.27962 0.0
H852 H 0.65138 0.81228 0.32329 0.0
H853 H 0.67057 0.65752 0.30712 0.0
H854 H 0.6516 0.86661 0.28259 0.0
H855 H 0.71832 0.86749 0.28737 0.0
H856 H 0.67773 0.88037 0.30553 0.0
H857 H 0.67845 0.66787 0.26358 0.0
H858 H 0.71722 0.63685 0.28128 0.0
H859 H 0.74282 0.68649 0.26786 0.0
C860 C 0.5806 0.1393 0.47433 0.0
C861 C 0.5951 0.1866 0.46763 0.0
C862 C 0.59313 0.12492 0.49253 0.0
C863 C 0.6176 0.1599 0.50483 0.0
C864 C 0.63364 0.20698 0.49817 0.0
C865 C 0.62383 0.21884 0.4796 0.0
C866 C 0.57778 0.07305 0.49857 0.0
C867 C 0.65844 0.24643 0.51088 0.0
C868 C 0.58428 0.17332 0.55362 0.0
C869 C 0.63162 0.16848 0.563 0.0
C870 C 0.57794 0.16621 0.53465 0.0
C871 C 0.61966 0.15162 0.52497 0.0
C872 C 0.66542 0.1386 0.53483 0.0
C873 C 0.6714 0.14851 0.55381 0.0
C874 C 0.52827 0.18033 0.5248 0.0
C875 C 0.70909 0.11825 0.5251 0.0
H876 H 0.55794 0.11355 0.46567 0.0
H877 H 0.63773 0.2543 0.47469 0.0
H878 H 0.5998 0.0605 0.51118 0.0
H879 H 0.53742 0.0734 0.50121 0.0
H880 H 0.58253 0.04479 0.48752 0.0
H881 H 0.66719 0.28173 0.5036 0.0
H882 H 0.63344 0.25613 0.52187 0.0
H883 H 0.69383 0.23144 0.51758 0.0
H884 H 0.55344 0.1884 0.56085 0.0
H885 H 0.70822 0.14548 0.56093 0.0
H886 H 0.51364 0.14843 0.5161 0.0
H887 H 0.53347 0.21303 0.51569 0.0
H888 H 0.49954 0.19056 0.53444 0.0
H889 H 0.69608 0.08821 0.51519 0.0
H890 H 0.7388 0.10261 0.53487 0.0
H891 H 0.72581 0.14881 0.51722 0.0
C892 C 0.14627 0.30142 0.72904 0.0
C893 C 0.18646 0.32825 0.72248 0.0
C894 C 0.14371 0.29244 0.74776 0.0
C895 C 0.18294 0.30965 0.76034 0.0
C896 C 0.22329 0.33749 0.75394 0.0
C897 C 0.22438 0.34681 0.73507 0.0
C898 C 0.09947 0.26319 0.754 0.0
C899 C 0.26605 0.356 0.76685 0.0
C900 C 0.13697 0.30812 0.80767 0.0
C901 C 0.14759 0.25803 0.8126 0.0
C902 C 0.15337 0.32799 0.79143 0.0
C903 C 0.1811 0.29683 0.78002 0.0
C904 C 0.19686 0.24824 0.78614 0.0
C905 C 0.17897 0.22893 0.80226 0.0
C906 C 0.13592 0.38003 0.78551 0.0
C907 C 0.22799 0.21455 0.77471 0.0
H908 H 0.1174 0.28576 0.71947 0.0
H909 H 0.25533 0.36805 0.73017 0.0
H910 H 0.11251 0.22672 0.76005 0.0
H911 H 0.08127 0.28474 0.76477 0.0
H912 H 0.07081 0.25507 0.74258 0.0
H913 H 0.29159 0.38176 0.76002 0.0
H914 H 0.25158 0.37611 0.77872 0.0
H915 H 0.28817 0.32313 0.77222 0.0
H916 H 0.11234 0.33035 0.81573 0.0
H917 H 0.187 0.19013 0.80617 0.0
H918 H 0.10334 0.37633 0.77527 0.0
H919 H 0.16584 0.40068 0.77892 0.0
H920 H 0.12412 0.40288 0.79726 0.0
H921 H 0.20364 0.1979 0.76328 0.0
H922 H 0.24557 0.18319 0.78292 0.0
H923 H 0.25791 0.23655 0.76863 0.0
loop_
_geom_bond_atom_site_label_1
_geom_bond_atom_site_label_2
_geom_bond_distance
_geom_bond_site_symmetry_2
_ccdc_geom_bond_type
H0 C3 0.931 . S
H1 C6 0.928 . S
H2 C8 0.930 . S
C3 H0 0.931 . S
C3 C4 1.413 . S
C3 C5 1.360 . S
C4 C3 1.413 . S
C4 C8 1.429 . S
C5 C3 1.360 . S
C5 C6 1.372 . S
C6 H1 0.928 . S
C6 C5 1.372 . S
C6 C7 1.404 . S
C7 C6 1.404 . S
C7 C8 1.391 . S
C8 H2 0.930 . S
C8 C4 1.429 . S
C8 C7 1.391 . S
H9 C12 0.931 . S
H10 C15 0.928 . S
H11 C17 0.930 . S
C12 H9 0.931 . S
C12 C13 1.413 . S
C12 C14 1.360 . S
C13 C12 1.413 . S
C13 C17 1.429 . S
C14 C12 1.360 . S
C14 C15 1.372 . S
C15 H10 0.928 . S
C15 C14 1.372 . S
C15 C16 1.404 . S
C16 C15 1.404 . S
C16 C17 1.391 . S
C17 H11 0.930 . S
C17 C13 1.429 . S
C17 C16 1.391 . S
H18 C21 0.931 . S
H19 C24 0.928 . S
H20 C26 0.930 . S
C21 H18 0.931 . S
C21 C22 1.413 . S
C21 C23 1.360 . S
C22 C21 1.413 . S
C22 C26 1.429 . S
C23 C21 1.360 . S
C23 C24 1.372 . S
C24 H19 0.928 . S
C24 C23 1.372 . S
C24 C25 1.404 . S
C25 C24 1.404 . S
C25 C26 1.391 . S
C26 H20 0.930 . S
C26 C22 1.429 . S
C26 C25 1.391 . S
H27 C30 0.931 . S
H28 C33 0.928 . S
H29 C35 0.930 . S
C30 H27 0.931 . S
C30 C31 1.413 . S
C30 C32 1.360 . S
C31 C30 1.413 . S
C31 C35 1.429 . S
C32 C30 1.360 . S
C32 C33 1.372 . S
C33 H28 0.928 . S
C33 C32 1.372 . S
C33 C34 1.404 . S
C34 C33 1.404 . S
C34 C35 1.391 . S
C35 H29 0.930 . S
C35 C31 1.429 . S
C35 C34 1.391 . S
H36 C39 0.931 . S
H37 C42 0.928 . S
H38 C44 0.930 . S
C39 H36 0.931 . S
C39 C40 1.413 . S
C39 C41 1.360 . S
C40 C39 1.413 . S
C40 C44 1.429 . S
C41 C39 1.360 . S
C41 C42 1.372 . S
C42 H37 0.928 . S
C42 C41 1.372 . S
C42 C43 1.404 . S
C43 C42 1.404 . S
C43 C44 1.391 . S
C44 H38 0.930 . S
C44 C40 1.429 . S
C44 C43 1.391 . S
H45 C48 0.931 . S
H46 C51 0.928 . S
H47 C53 0.930 . S
C48 H45 0.931 . S
C48 C49 1.413 . S
C48 C50 1.360 . S
C49 C48 1.413 . S
C49 C53 1.429 . S
C50 C48 1.360 . S
C50 C51 1.372 . S
C51 H46 0.928 . S
C51 C50 1.372 . S
C51 C52 1.404 . S
C52 C51 1.404 . S
C52 C53 1.391 . S
C53 H47 0.930 . S
C53 C49 1.429 . S
C53 C52 1.391 . S
H54 C57 0.931 . S
H55 C60 0.928 . S
H56 C62 0.930 . S
C57 H54 0.931 . S
C57 C58 1.413 . S
C57 C59 1.360 . S
C58 C57 1.413 . S
C58 C62 1.429 . S
C59 C57 1.360 . S
C59 C60 1.372 . S
C60 H55 0.928 . S
C60 C59 1.372 . S
C60 C61 1.404 . S
C61 C60 1.404 . S
C61 C62 1.391 . S
C62 H56 0.930 . S
C62 C58 1.429 . S
C62 C61 1.391 . S
H63 C66 0.931 . S
H64 C69 0.928 . S
H65 C71 0.930 . S
C66 H63 0.931 . S
C66 C67 1.413 . S
C66 C68 1.360 . S
C67 C66 1.413 . S
C67 C71 1.429 . S
C68 C66 1.360 . S
C68 C69 1.372 . S
C69 H64 0.928 . S
C69 C68 1.372 . S
C69 C70 1.404 . S
C70 C69 1.404 . S
C70 C71 1.391 . S
C71 H65 0.930 . S
C71 C67 1.429 . S
C71 C70 1.391 . S
Zn72 O78 1.920 . S
Zn72 O84 1.898 . S
Zn72 O87 1.905 . S
Zn73 O81 1.905 . S
Zn73 O82 1.898 . S
Zn73 O90 1.920 . S
Zn74 O77 2.080 . S
Zn74 O80 2.114 . S
Zn74 O83 2.120 . S
Zn74 O85 2.120 . S
Zn74 O86 2.114 . S
Zn74 O89 2.080 . S
C75 O80 1.166 . S
C75 O81 1.182 . S
C76 O82 1.167 . S
C76 O83 1.299 . S
O77 Zn74 2.080 . S
O77 C91 1.305 . S
O78 Zn72 1.920 . S
O78 C91 1.234 . S
C79 O84 1.167 . S
C79 O85 1.299 . S
O80 Zn74 2.114 . S
O80 C75 1.166 . S
O81 Zn73 1.905 . S
O81 C75 1.182 . S
O82 Zn73 1.898 . S
O82 C76 1.167 . S
O83 Zn74 2.120 . S
O83 C76 1.299 . S
O84 Zn72 1.898 . S
O84 C79 1.167 . S
O85 Zn74 2.120 . S
O85 C79 1.299 . S
O86 Zn74 2.114 . S
O86 C88 1.166 . S
O87 Zn72 1.905 . S
O87 C88 1.182 . S
C88 O86 1.166 . S
C88 O87 1.182 . S
O89 Zn74 2.080 . S
O89 C92 1.305 . S
O90 Zn73 1.920 . S
O90 C92 1.234 . S
C91 O77 1.305 . S
C91 O78 1.234 . S
C92 O89 1.305 . S
C92 O90 1.234 . S
Zn93 O99 1.920 . S
Zn93 O105 1.898 . S
Zn93 O108 1.905 . S
Zn94 O102 1.905 . S
Zn94 O103 1.898 . S
Zn94 O111 1.920 . S
Zn95 O98 2.080 . S
Zn95 O101 2.114 . S
Zn95 O104 2.120 . S
Zn95 O106 2.120 . S
Zn95 O107 2.114 . S
Zn95 O110 2.080 . S
C96 O101 1.166 . S
C96 O102 1.182 . S
C97 O103 1.167 . S
C97 O104 1.299 . S
O98 Zn95 2.080 . S
O98 C112 1.305 . S
O99 Zn93 1.920 . S
O99 C112 1.234 . S
C100 O105 1.167 . S
C100 O106 1.299 . S
O101 Zn95 2.114 . S
O101 C96 1.166 . S
O102 Zn94 1.905 . S
O102 C96 1.182 . S
O103 Zn94 1.898 . S
O103 C97 1.167 . S
O104 Zn95 2.120 . S
O104 C97 1.299 . S
O105 Zn93 1.898 . S
O105 C100 1.167 . S
O106 Zn95 2.120 . S
O106 C100 1.299 . S
O107 Zn95 2.114 . S
O107 C109 1.166 . S
O108 Zn93 1.905 . S
O108 C109 1.182 . S
C109 O107 1.166 . S
C109 O108 1.182 . S
O110 Zn95 2.080 . S
O110 C113 1.305 . S
O111 Zn94 1.920 . S
O111 C113 1.234 . S
C112 O98 1.305 . S
C112 O99 1.234 . S
C113 O110 1.305 . S
C113 O111 1.234 . S
Zn114 O120 1.920 . S
Zn114 O126 1.898 . S
Zn114 O129 1.905 . S
Zn115 O123 1.905 . S
Zn115 O124 1.898 . S
Zn115 O132 1.920 . S
Zn116 O119 2.080 . S
Zn116 O122 2.114 . S
Zn116 O125 2.120 . S
Zn116 O127 2.120 . S
Zn116 O128 2.114 . S
Zn116 O131 2.080 . S
C117 O122 1.166 . S
C117 O123 1.182 . S
C118 O124 1.167 . S
C118 O125 1.299 . S
O119 Zn116 2.080 . S
O119 C133 1.305 . S
O120 Zn114 1.920 . S
O120 C133 1.234 . S
C121 O126 1.167 . S
C121 O127 1.299 . S
O122 Zn116 2.114 . S
O122 C117 1.166 . S
O123 Zn115 1.905 . S
O123 C117 1.182 . S
O124 Zn115 1.898 . S
O124 C118 1.167 . S
O125 Zn116 2.120 . S
O125 C118 1.299 . S
O126 Zn114 1.898 . S
O126 C121 1.167 . S
O127 Zn116 2.120 . S
O127 C121 1.299 . S
O128 Zn116 2.114 . S
O128 C130 1.166 . S
O129 Zn114 1.905 . S
O129 C130 1.182 . S
C130 O128 1.166 . S
C130 O129 1.182 . S
O131 Zn116 2.080 . S
O131 C134 1.305 . S
O132 Zn115 1.920 . S
O132 C134 1.234 . S
C133 O119 1.305 . S
C133 O120 1.234 . S
C134 O131 1.305 . S
C134 O132 1.234 . S
Zn135 O141 1.920 . S
Zn135 O147 1.898 . S
Zn135 O150 1.905 1_455 S
Zn136 O144 1.905 . S
Zn136 O145 1.898 . S
Zn136 O153 1.920 . S
Zn137 O140 2.080 . S
Zn137 O143 2.114 . S
Zn137 O146 2.120 . S
Zn137 O148 2.120 . S
Zn137 O149 2.114 . S
Zn137 O152 2.080 . S
C138 O143 1.166 . S
C138 O144 1.182 . S
C139 O145 1.167 . S
C139 O146 1.299 . S
O140 Zn137 2.080 . S
O140 C154 1.305 . S
O141 Zn135 1.920 . S
O141 C154 1.234 . S
C142 O147 1.167 . S
C142 O148 1.299 . S
O143 Zn137 2.114 . S
O143 C138 1.166 . S
O144 Zn136 1.905 . S
O144 C138 1.182 . S
O145 Zn136 1.898 . S
O145 C139 1.167 . S
O146 Zn137 2.120 . S
O146 C139 1.299 . S
O147 Zn135 1.898 . S
O147 C142 1.167 . S
O148 Zn137 2.120 . S
O148 C142 1.299 . S
O149 Zn137 2.114 . S
O149 C151 1.166 . S
O150 Zn135 1.905 1_655 S
O150 C151 1.182 1_655 S
C151 O149 1.166 . S
C151 O150 1.182 1_455 S
O152 Zn137 2.080 . S
O152 C155 1.305 . S
O153 Zn136 1.920 . S
O153 C155 1.234 . S
C154 O140 1.305 . S
C154 O141 1.234 . S
C155 O152 1.305 . S
C155 O153 1.234 . S
C156 C157 1.391 . S
C156 C158 1.394 . S
C156 H172 0.931 . S
C157 C156 1.391 . S
C157 C161 1.376 . S
C158 C156 1.394 . S
C158 C159 1.369 . S
C158 C162 1.531 . S
C159 C158 1.369 . S
C159 C160 1.410 . S
C159 C167 1.503 . S
C160 C159 1.410 . S
C160 C161 1.392 . S
C160 C163 1.511 . S
C161 C157 1.376 . S
C161 C160 1.392 . S
C161 H173 0.929 . S
C162 C158 1.531 . S
C162 H174 0.960 . S
C162 H175 0.962 . S
C162 H176 0.960 . S
C163 C160 1.511 . S
C163 H177 0.961 . S
C163 H178 0.961 . S
C163 H179 0.961 . S
C164 C165 1.370 . S
C164 C166 1.363 . S
C164 H180 0.931 . S
C165 C164 1.370 . S
C165 C169 1.408 . S
C166 C164 1.363 . S
C166 C167 1.370 . S
C166 C170 1.524 . S
C167 C159 1.503 . S
C167 C166 1.370 . S
C167 C168 1.403 . S
C168 C167 1.403 . S
C168 C169 1.404 . S
C168 C171 1.539 . S
C169 C165 1.408 . S
C169 C168 1.404 . S
C169 H181 0.930 . S
C170 C166 1.524 . S
C170 H182 0.956 . S
C170 H183 0.961 . S
C170 H184 0.961 . S
C171 C168 1.539 . S
C171 H185 0.958 . S
C171 H186 0.961 . S
C171 H187 0.960 . S
H172 C156 0.931 . S
H173 C161 0.929 . S
H174 C162 0.960 . S
H175 C162 0.962 . S
H176 C162 0.960 . S
H177 C163 0.961 . S
H178 C163 0.961 . S
H179 C163 0.961 . S
H180 C164 0.931 . S
H181 C169 0.930 . S
H182 C170 0.956 . S
H183 C170 0.961 . S
H184 C170 0.961 . S
H185 C171 0.958 . S
H186 C171 0.961 . S
H187 C171 0.960 . S
C188 C189 1.391 1_655 S
C188 C190 1.394 . S
C188 H204 0.931 . S
C189 C188 1.391 1_455 S
C189 C193 1.376 . S
C190 C188 1.394 . S
C190 C191 1.369 . S
C190 C194 1.531 . S
C191 C190 1.369 . S
C191 C192 1.410 . S
C191 C199 1.503 . S
C192 C191 1.410 . S
C192 C193 1.392 1_655 S
C192 C195 1.511 . S
C193 C189 1.376 . S
C193 C192 1.392 1_455 S
C193 H205 0.929 . S
C194 C190 1.531 . S
C194 H206 0.960 . S
C194 H207 0.962 . S
C194 H208 0.960 . S
C195 C192 1.511 . S
C195 H209 0.961 . S
C195 H210 0.961 . S
C195 H211 0.961 . S
C196 C197 1.370 . S
C196 C198 1.363 . S
C196 H212 0.931 . S
C197 C196 1.370 . S
C197 C201 1.408 . S
C198 C196 1.363 . S
C198 C199 1.370 . S
C198 C202 1.524 . S
C199 C191 1.503 . S
C199 C198 1.370 . S
C199 C200 1.403 . S
C200 C199 1.403 . S
C200 C201 1.404 . S
C200 C203 1.539 . S
C201 C197 1.408 . S
C201 C200 1.404 . S
C201 H213 0.930 . S
C202 C198 1.524 . S
C202 H214 0.956 . S
C202 H215 0.961 . S
C202 H216 0.961 . S
C203 C200 1.539 . S
C203 H217 0.958 . S
C203 H218 0.961 . S
C203 H219 0.960 . S
H204 C188 0.931 . S
H205 C193 0.929 . S
H206 C194 0.960 . S
H207 C194 0.962 . S
H208 C194 0.960 . S
H209 C195 0.961 . S
H210 C195 0.961 . S
H211 C195 0.961 . S
H212 C196 0.931 . S
H213 C201 0.930 . S
H214 C202 0.956 . S
H215 C202 0.961 . S
H216 C202 0.961 . S
H217 C203 0.958 . S
H218 C203 0.961 . S
H219 C203 0.960 . S
C220 C221 1.391 . S
C220 C222 1.394 . S
C220 H236 0.931 . S
C221 C220 1.391 . S
C221 C225 1.376 . S
C222 C220 1.394 . S
C222 C223 1.369 . S
C222 C226 1.531 . S
C223 C222 1.369 . S
C223 C224 1.410 . S
C223 C231 1.503 . S
C224 C223 1.410 . S
C224 C225 1.392 . S
C224 C227 1.511 . S
C225 C221 1.376 . S
C225 C224 1.392 . S
C225 H237 0.929 . S
C226 C222 1.531 . S
C226 H238 0.960 . S
C226 H239 0.962 . S
C226 H240 0.960 . S
C227 C224 1.511 . S
C227 H241 0.961 . S
C227 H242 0.961 . S
C227 H243 0.961 . S
C228 C229 1.370 . S
C228 C230 1.363 . S
C228 H244 0.931 . S
C229 C228 1.370 . S
C229 C233 1.408 . S
C230 C228 1.363 . S
C230 C231 1.370 . S
C230 C234 1.524 . S
C231 C223 1.503 . S
C231 C230 1.370 . S
C231 C232 1.403 . S
C232 C231 1.403 . S
C232 C233 1.404 . S
C232 C235 1.539 . S
C233 C229 1.408 . S
C233 C232 1.404 . S
C233 H245 0.930 . S
C234 C230 1.524 . S
C234 H246 0.956 . S
C234 H247 0.961 . S
C234 H248 0.961 . S
C235 C232 1.539 . S
C235 H249 0.958 . S
C235 H250 0.961 . S
C235 H251 0.960 . S
H236 C220 0.931 . S
H237 C225 0.929 . S
H238 C226 0.960 . S
H239 C226 0.962 . S
H240 C226 0.960 . S
H241 C227 0.961 . S
H242 C227 0.961 . S
H243 C227 0.961 . S
H244 C228 0.931 . S
H245 C233 0.930 . S
H246 C234 0.956 . S
H247 C234 0.961 . S
H248 C234 0.961 . S
H249 C235 0.958 . S
H250 C235 0.961 . S
H251 C235 0.960 . S
C252 C253 1.391 . S
C252 C254 1.394 . S
C252 H268 0.931 . S
C253 C252 1.391 . S
C253 C257 1.376 . S
C254 C252 1.394 . S
C254 C255 1.369 . S
C254 C258 1.531 . S
C255 C254 1.369 . S
C255 C256 1.410 . S
C255 C263 1.503 . S
C256 C255 1.410 . S
C256 C257 1.392 . S
C256 C259 1.511 . S
C257 C253 1.376 . S
C257 C256 1.392 . S
C257 H269 0.929 . S
C258 C254 1.531 . S
C258 H270 0.960 . S
C258 H271 0.962 . S
C258 H272 0.960 . S
C259 C256 1.511 . S
C259 H273 0.961 . S
C259 H274 0.961 . S
C259 H275 0.961 . S
C260 C261 1.370 . S
C260 C262 1.363 . S
C260 H276 0.931 . S
C261 C260 1.370 . S
C261 C265 1.408 . S
C262 C260 1.363 . S
C262 C263 1.370 . S
C262 C266 1.524 . S
C263 C255 1.503 . S
C263 C262 1.370 . S
C263 C264 1.403 . S
C264 C263 1.403 . S
C264 C265 1.404 . S
C264 C267 1.539 . S
C265 C261 1.408 . S
C265 C264 1.404 . S
C265 H277 0.930 . S
C266 C262 1.524 . S
C266 H278 0.956 . S
C266 H279 0.961 . S
C266 H280 0.961 . S
C267 C264 1.539 . S
C267 H281 0.958 . S
C267 H282 0.961 . S
C267 H283 0.960 . S
H268 C252 0.931 . S
H269 C257 0.929 . S
H270 C258 0.960 . S
H271 C258 0.962 . S
H272 C258 0.960 . S
H273 C259 0.961 . S
H274 C259 0.961 . S
H275 C259 0.961 . S
H276 C260 0.931 . S
H277 C265 0.930 . S
H278 C266 0.956 . S
H279 C266 0.961 . S
H280 C266 0.961 . S
H281 C267 0.958 . S
H282 C267 0.961 . S
H283 C267 0.960 . S
C284 C285 1.391 . S
C284 C286 1.394 . S
C284 H300 0.931 1_455 S
C285 C284 1.391 . S
C285 C289 1.376 . S
C286 C284 1.394 . S
C286 C287 1.369 . S
C286 C290 1.531 1_455 S
C287 C286 1.369 . S
C287 C288 1.410 . S
C287 C295 1.503 . S
C288 C287 1.410 . S
C288 C289 1.392 . S
C288 C291 1.511 . S
C289 C285 1.376 . S
C289 C288 1.392 . S
C289 H301 0.929 . S
C290 C286 1.531 1_655 S
C290 H302 0.960 . S
C290 H303 0.962 . S
C290 H304 0.960 . S
C291 C288 1.511 . S
C291 H305 0.961 . S
C291 H306 0.961 . S
C291 H307 0.961 . S
C292 C293 1.370 . S
C292 C294 1.363 . S
C292 H308 0.931 . S
C293 C292 1.370 . S
C293 C297 1.408 . S
C294 C292 1.363 . S
C294 C295 1.370 . S
C294 C298 1.524 . S
C295 C287 1.503 . S
C295 C294 1.370 . S
C295 C296 1.403 . S
C296 C295 1.403 . S
C296 C297 1.404 . S
C296 C299 1.539 . S
C297 C293 1.408 . S
C297 C296 1.404 . S
C297 H309 0.930 . S
C298 C294 1.524 . S
C298 H310 0.956 . S
C298 H311 0.961 . S
C298 H312 0.961 . S
C299 C296 1.539 . S
C299 H313 0.958 1_455 S
C299 H314 0.961 . S
C299 H315 0.960 . S
H300 C284 0.931 1_655 S
H301 C289 0.929 . S
H302 C290 0.960 . S
H303 C290 0.962 . S
H304 C290 0.960 . S
H305 C291 0.961 . S
H306 C291 0.961 . S
H307 C291 0.961 . S
H308 C292 0.931 . S
H309 C297 0.930 . S
H310 C298 0.956 . S
H311 C298 0.961 . S
H312 C298 0.961 . S
H313 C299 0.958 1_655 S
H314 C299 0.961 . S
H315 C299 0.960 . S
C316 C317 1.391 . S
C316 C318 1.394 . S
C316 H332 0.931 . S
C317 C316 1.391 . S
C317 C321 1.376 . S
C318 C316 1.394 . S
C318 C319 1.369 . S
C318 C322 1.531 . S
C319 C318 1.369 . S
C319 C320 1.410 . S
C319 C327 1.503 . S
C320 C319 1.410 . S
C320 C321 1.392 . S
C320 C323 1.511 . S
C321 C317 1.376 . S
C321 C320 1.392 . S
C321 H333 0.929 . S
C322 C318 1.531 . S
C322 H334 0.960 . S
C322 H335 0.962 . S
C322 H336 0.960 . S
C323 C320 1.511 . S
C323 H337 0.961 . S
C323 H338 0.961 . S
C323 H339 0.961 . S
C324 C325 1.370 . S
C324 C326 1.363 . S
C324 H340 0.931 . S
C325 C324 1.370 . S
C325 C329 1.408 . S
C326 C324 1.363 . S
C326 C327 1.370 . S
C326 C330 1.524 . S
C327 C319 1.503 . S
C327 C326 1.370 . S
C327 C328 1.403 . S
C328 C327 1.403 . S
C328 C329 1.404 . S
C328 C331 1.539 . S
C329 C325 1.408 . S
C329 C328 1.404 . S
C329 H341 0.930 . S
C330 C326 1.524 . S
C330 H342 0.956 . S
C330 H343 0.961 . S
C330 H344 0.961 . S
C331 C328 1.539 . S
C331 H345 0.958 . S
C331 H346 0.961 . S
C331 H347 0.960 . S
H332 C316 0.931 . S
H333 C321 0.929 . S
H334 C322 0.960 . S
H335 C322 0.962 . S
H336 C322 0.960 . S
H337 C323 0.961 . S
H338 C323 0.961 . S
H339 C323 0.961 . S
H340 C324 0.931 . S
H341 C329 0.930 . S
H342 C330 0.956 . S
H343 C330 0.961 . S
H344 C330 0.961 . S
H345 C331 0.958 . S
H346 C331 0.961 . S
H347 C331 0.960 . S
C348 C349 1.391 . S
C348 C350 1.394 . S
C348 H364 0.931 . S
C349 C348 1.391 . S
C349 C353 1.376 . S
C350 C348 1.394 . S
C350 C351 1.369 . S
C350 C354 1.531 . S
C351 C350 1.369 . S
C351 C352 1.410 . S
C351 C359 1.503 . S
C352 C351 1.410 . S
C352 C353 1.392 . S
C352 C355 1.511 . S
C353 C349 1.376 . S
C353 C352 1.392 . S
C353 H365 0.929 . S
C354 C350 1.531 . S
C354 H366 0.960 . S
C354 H367 0.962 . S
C354 H368 0.960 . S
C355 C352 1.511 . S
C355 H369 0.961 . S
C355 H370 0.961 . S
C355 H371 0.961 . S
C356 C357 1.370 . S
C356 C358 1.363 . S
C356 H372 0.931 . S
C357 C356 1.370 . S
C357 C361 1.408 . S
C358 C356 1.363 . S
C358 C359 1.370 . S
C358 C362 1.524 . S
C359 C351 1.503 . S
C359 C358 1.370 . S
C359 C360 1.403 . S
C360 C359 1.403 . S
C360 C361 1.404 . S
C360 C363 1.539 . S
C361 C357 1.408 . S
C361 C360 1.404 . S
C361 H373 0.930 . S
C362 C358 1.524 . S
C362 H374 0.956 . S
C362 H375 0.961 . S
C362 H376 0.961 . S
C363 C360 1.539 . S
C363 H377 0.958 . S
C363 H378 0.961 . S
C363 H379 0.960 . S
H364 C348 0.931 . S
H365 C353 0.929 . S
H366 C354 0.960 . S
H367 C354 0.962 . S
H368 C354 0.960 . S
H369 C355 0.961 . S
H370 C355 0.961 . S
H371 C355 0.961 . S
H372 C356 0.931 . S
H373 C361 0.930 . S
H374 C362 0.956 . S
H375 C362 0.961 . S
H376 C362 0.961 . S
H377 C363 0.958 . S
H378 C363 0.961 . S
H379 C363 0.960 . S
C380 C381 1.391 . S
C380 C382 1.394 1_455 S
C380 H396 0.931 . S
C381 C380 1.391 . S
C381 C385 1.376 . S
C382 C380 1.394 1_655 S
C382 C383 1.369 . S
C382 C386 1.531 . S
C383 C382 1.369 . S
C383 C384 1.410 . S
C383 C391 1.503 . S
C384 C383 1.410 . S
C384 C385 1.392 1_655 S
C384 C387 1.511 . S
C385 C381 1.376 . S
C385 C384 1.392 1_455 S
C385 H397 0.929 . S
C386 C382 1.531 . S
C386 H398 0.960 . S
C386 H399 0.962 . S
C386 H400 0.960 . S
C387 C384 1.511 . S
C387 H401 0.961 . S
C387 H402 0.961 . S
C387 H403 0.961 . S
C388 C389 1.370 . S
C388 C390 1.363 . S
C388 H404 0.931 . S
C389 C388 1.370 . S
C389 C393 1.408 . S
C390 C388 1.363 . S
C390 C391 1.370 . S
C390 C394 1.524 . S
C391 C383 1.503 . S
C391 C390 1.370 . S
C391 C392 1.403 . S
C392 C391 1.403 . S
C392 C393 1.404 . S
C392 C395 1.539 . S
C393 C389 1.408 . S
C393 C392 1.404 . S
C393 H405 0.930 . S
C394 C390 1.524 . S
C394 H406 0.956 . S
C394 H407 0.961 . S
C394 H408 0.961 . S
C395 C392 1.539 . S
C395 H409 0.958 . S
C395 H410 0.961 . S
C395 H411 0.960 . S
H396 C380 0.931 . S
H397 C385 0.929 . S
H398 C386 0.960 . S
H399 C386 0.962 . S
H400 C386 0.960 . S
H401 C387 0.961 . S
H402 C387 0.961 . S
H403 C387 0.961 . S
H404 C388 0.931 . S
H405 C393 0.930 . S
H406 C394 0.956 . S
H407 C394 0.961 . S
H408 C394 0.961 . S
H409 C395 0.958 . S
H410 C395 0.961 . S
H411 C395 0.960 . S
C412 C413 1.391 . S
C412 C414 1.394 . S
C412 H428 0.931 . S
C413 C412 1.391 . S
C413 C417 1.376 . S
C414 C412 1.394 . S
C414 C415 1.369 . S
C414 C418 1.531 . S
C415 C414 1.369 . S
C415 C416 1.410 . S
C415 C423 1.503 . S
C416 C415 1.410 . S
C416 C417 1.392 . S
C416 C419 1.511 . S
C417 C413 1.376 . S
C417 C416 1.392 . S
C417 H429 0.929 . S
C418 C414 1.531 . S
C418 H430 0.960 . S
C418 H431 0.962 . S
C418 H432 0.960 . S
C419 C416 1.511 . S
C419 H433 0.961 . S
C419 H434 0.961 . S
C419 H435 0.961 . S
C420 C421 1.370 . S
C420 C422 1.363 . S
C420 H436 0.931 . S
C421 C420 1.370 . S
C421 C425 1.408 . S
C422 C420 1.363 . S
C422 C423 1.370 . S
C422 C426 1.524 . S
C423 C415 1.503 . S
C423 C422 1.370 . S
C423 C424 1.403 . S
C424 C423 1.403 . S
C424 C425 1.404 . S
C424 C427 1.539 . S
C425 C421 1.408 . S
C425 C424 1.404 . S
C425 H437 0.930 . S
C426 C422 1.524 . S
C426 H438 0.956 . S
C426 H439 0.961 . S
C426 H440 0.961 . S
C427 C424 1.539 . S
C427 H441 0.958 . S
C427 H442 0.961 . S
C427 H443 0.960 . S
H428 C412 0.931 . S
H429 C417 0.929 . S
H430 C418 0.960 . S
H431 C418 0.962 . S
H432 C418 0.960 . S
H433 C419 0.961 . S
H434 C419 0.961 . S
H435 C419 0.961 . S
H436 C420 0.931 . S
H437 C425 0.930 . S
H438 C426 0.956 . S
H439 C426 0.961 . S
H440 C426 0.961 . S
H441 C427 0.958 . S
H442 C427 0.961 . S
H443 C427 0.960 . S
C444 C445 1.391 . S
C444 C446 1.394 . S
C444 H460 0.931 . S
C445 C444 1.391 . S
C445 C449 1.376 . S
C446 C444 1.394 . S
C446 C447 1.369 . S
C446 C450 1.531 . S
C447 C446 1.369 . S
C447 C448 1.410 . S
C447 C455 1.503 . S
C448 C447 1.410 . S
C448 C449 1.392 . S
C448 C451 1.511 . S
C449 C445 1.376 . S
C449 C448 1.392 . S
C449 H461 0.929 . S
C450 C446 1.531 . S
C450 H462 0.960 . S
C450 H463 0.962 . S
C450 H464 0.960 . S
C451 C448 1.511 . S
C451 H465 0.961 . S
C451 H466 0.961 . S
C451 H467 0.961 . S
C452 C453 1.370 . S
C452 C454 1.363 . S
C452 H468 0.931 . S
C453 C452 1.370 . S
C453 C457 1.408 . S
C454 C452 1.363 . S
C454 C455 1.370 . S
C454 C458 1.524 . S
C455 C447 1.503 . S
C455 C454 1.370 . S
C455 C456 1.403 . S
C456 C455 1.403 . S
C456 C457 1.404 . S
C456 C459 1.539 . S
C457 C453 1.408 . S
C457 C456 1.404 . S
C457 H469 0.930 . S
C458 C454 1.524 . S
C458 H470 0.956 . S
C458 H471 0.961 . S
C458 H472 0.961 . S
C459 C456 1.539 . S
C459 H473 0.958 . S
C459 H474 0.961 . S
C459 H475 0.960 . S
H460 C444 0.931 . S
H461 C449 0.929 . S
H462 C450 0.960 . S
H463 C450 0.962 . S
H464 C450 0.960 . S
H465 C451 0.961 . S
H466 C451 0.961 . S
H467 C451 0.961 . S
H468 C452 0.931 . S
H469 C457 0.930 . S
H470 C458 0.956 . S
H471 C458 0.961 . S
H472 C458 0.961 . S
H473 C459 0.958 . S
H474 C459 0.961 . S
H475 C459 0.960 . S
C476 C477 1.391 . S
C476 C478 1.394 . S
C476 H492 0.931 . S
C477 C476 1.391 . S
C477 C481 1.376 . S
C478 C476 1.394 . S
C478 C479 1.369 . S
C478 C482 1.531 . S
C479 C478 1.369 . S
C479 C480 1.410 . S
C479 C487 1.503 . S
C480 C479 1.410 . S
C480 C481 1.392 . S
C480 C483 1.511 . S
C481 C477 1.376 . S
C481 C480 1.392 . S
C481 H493 0.929 . S
C482 C478 1.531 . S
C482 H494 0.960 . S
C482 H495 0.962 . S
C482 H496 0.960 . S
C483 C480 1.511 . S
C483 H497 0.961 . S
C483 H498 0.961 . S
C483 H499 0.961 . S
C484 C485 1.370 . S
C484 C486 1.363 . S
C484 H500 0.931 . S
C485 C484 1.370 . S
C485 C489 1.408 . S
C486 C484 1.363 . S
C486 C487 1.370 . S
C486 C490 1.524 . S
C487 C479 1.503 . S
C487 C486 1.370 . S
C487 C488 1.403 . S
C488 C487 1.403 . S
C488 C489 1.404 . S
C488 C491 1.539 . S
C489 C485 1.408 . S
C489 C488 1.404 . S
C489 H501 0.930 . S
C490 C486 1.524 . S
C490 H502 0.956 . S
C490 H503 0.961 . S
C490 H504 0.961 . S
C491 C488 1.539 . S
C491 H505 0.958 . S
C491 H506 0.961 . S
C491 H507 0.960 . S
H492 C476 0.931 . S
H493 C481 0.929 . S
H494 C482 0.960 . S
H495 C482 0.962 . S
H496 C482 0.960 . S
H497 C483 0.961 . S
H498 C483 0.961 . S
H499 C483 0.961 . S
H500 C484 0.931 . S
H501 C489 0.930 . S
H502 C490 0.956 . S
H503 C490 0.961 . S
H504 C490 0.961 . S
H505 C491 0.958 . S
H506 C491 0.961 . S
H507 C491 0.960 . S
C508 C509 1.391 . S
C508 C510 1.394 . S
C508 H524 0.931 . S
C509 C508 1.391 . S
C509 C513 1.376 . S
C510 C508 1.394 . S
C510 C511 1.369 . S
C510 C514 1.531 . S
C511 C510 1.369 . S
C511 C512 1.410 . S
C511 C519 1.503 . S
C512 C511 1.410 . S
C512 C513 1.392 . S
C512 C515 1.511 . S
C513 C509 1.376 . S
C513 C512 1.392 . S
C513 H525 0.929 . S
C514 C510 1.531 . S
C514 H526 0.960 . S
C514 H527 0.962 . S
C514 H528 0.960 . S
C515 C512 1.511 . S
C515 H529 0.961 . S
C515 H530 0.961 . S
C515 H531 0.961 . S
C516 C517 1.370 . S
C516 C518 1.363 . S
C516 H532 0.931 . S
C517 C516 1.370 . S
C517 C521 1.408 . S
C518 C516 1.363 . S
C518 C519 1.370 . S
C518 C522 1.524 . S
C519 C511 1.503 . S
C519 C518 1.370 . S
C519 C520 1.403 . S
C520 C519 1.403 . S
C520 C521 1.404 . S
C520 C523 1.539 . S
C521 C517 1.408 . S
C521 C520 1.404 . S
C521 H533 0.930 . S
C522 C518 1.524 . S
C522 H534 0.956 . S
C522 H535 0.961 . S
C522 H536 0.961 . S
C523 C520 1.539 . S
C523 H537 0.958 . S
C523 H538 0.961 . S
C523 H539 0.960 . S
H524 C508 0.931 . S
H525 C513 0.929 . S
H526 C514 0.960 . S
H527 C514 0.962 . S
H528 C514 0.960 . S
H529 C515 0.961 . S
H530 C515 0.961 . S
H531 C515 0.961 . S
H532 C516 0.931 . S
H533 C521 0.930 . S
H534 C522 0.956 . S
H535 C522 0.961 . S
H536 C522 0.961 . S
H537 C523 0.958 . S
H538 C523 0.961 . S
H539 C523 0.960 . S
C540 C541 1.391 . S
C540 C542 1.394 . S
C540 H556 0.931 . S
C541 C540 1.391 . S
C541 C545 1.376 . S
C542 C540 1.394 . S
C542 C543 1.369 . S
C542 C546 1.531 . S
C543 C542 1.369 . S
C543 C544 1.410 . S
C543 C551 1.503 . S
C544 C543 1.410 . S
C544 C545 1.392 . S
C544 C547 1.511 . S
C545 C541 1.376 . S
C545 C544 1.392 . S
C545 H557 0.929 . S
C546 C542 1.531 . S
C546 H558 0.960 . S
C546 H559 0.962 . S
C546 H560 0.960 . S
C547 C544 1.511 . S
C547 H561 0.961 . S
C547 H562 0.961 . S
C547 H563 0.961 . S
C548 C549 1.370 . S
C548 C550 1.363 . S
C548 H564 0.931 . S
C549 C548 1.370 . S
C549 C553 1.408 . S
C550 C548 1.363 . S
C550 C551 1.370 1_545 S
C550 C554 1.524 1_545 S
C551 C543 1.503 . S
C551 C550 1.370 1_565 S
C551 C552 1.403 . S
C552 C551 1.403 . S
C552 C553 1.404 1_565 S
C552 C555 1.539 . S
C553 C549 1.408 . S
C553 C552 1.404 1_545 S
C553 H565 0.930 . S
C554 C550 1.524 1_565 S
C554 H566 0.956 . S
C554 H567 0.961 . S
C554 H568 0.961 1_565 S
C555 C552 1.539 . S
C555 H569 0.958 . S
C555 H570 0.961 . S
C555 H571 0.960 . S
H556 C540 0.931 . S
H557 C545 0.929 . S
H558 C546 0.960 . S
H559 C546 0.962 . S
H560 C546 0.960 . S
H561 C547 0.961 . S
H562 C547 0.961 . S
H563 C547 0.961 . S
H564 C548 0.931 . S
H565 C553 0.930 . S
H566 C554 0.956 . S
H567 C554 0.961 . S
H568 C554 0.961 1_545 S
H569 C555 0.958 . S
H570 C555 0.961 . S
H571 C555 0.960 . S
C572 C573 1.391 . S
C572 C574 1.394 . S
C572 H588 0.931 . S
C573 C572 1.391 . S
C573 C577 1.376 . S
C574 C572 1.394 . S
C574 C575 1.369 . S
C574 C578 1.531 . S
C575 C574 1.369 . S
C575 C576 1.410 . S
C575 C583 1.505 1_545 S
C576 C575 1.410 . S
C576 C577 1.392 . S
C576 C579 1.511 . S
C577 C573 1.376 . S
C577 C576 1.392 . S
C577 H589 0.929 . S
C578 C574 1.531 . S
C578 H590 0.960 . S
C578 H591 0.962 . S
C578 H592 0.960 . S
C579 C576 1.511 . S
C579 H593 0.961 . S
C579 H594 0.961 . S
C579 H595 0.961 . S
C580 C581 1.370 . S
C580 C582 1.363 . S
C580 H596 0.931 . S
C581 C580 1.370 . S
C581 C585 1.408 . S
C582 C580 1.363 . S
C582 C583 1.369 . S
C582 C586 1.524 . S
C583 C575 1.505 1_565 S
C583 C582 1.369 . S
C583 C584 1.402 . S
C584 C583 1.402 . S
C584 C585 1.404 . S
C584 C587 1.539 1_565 S
C585 C581 1.408 . S
C585 C584 1.404 . S
C585 H597 0.930 . S
C586 C582 1.524 . S
C586 H598 0.956 . S
C586 H599 0.961 . S
C586 H600 0.961 . S
C587 C584 1.539 1_545 S
C587 H601 0.958 . S
C587 H602 0.961 . S
C587 H603 0.960 . S
H588 C572 0.931 . S
H589 C577 0.929 . S
H590 C578 0.960 . S
H591 C578 0.962 . S
H592 C578 0.960 . S
H593 C579 0.961 . S
H594 C579 0.961 . S
H595 C579 0.961 . S
H596 C580 0.931 . S
H597 C585 0.930 . S
H598 C586 0.956 . S
H599 C586 0.961 . S
H600 C586 0.961 . S
H601 C587 0.958 . S
H602 C587 0.961 . S
H603 C587 0.960 . S
C604 C605 1.391 . S
C604 C606 1.394 . S
C604 H620 0.931 . S
C605 C604 1.391 . S
C605 C609 1.376 . S
C606 C604 1.394 . S
C606 C607 1.369 . S
C606 C610 1.531 . S
C607 C606 1.369 . S
C607 C608 1.410 . S
C607 C615 1.503 1_545 S
C608 C607 1.410 . S
C608 C609 1.392 . S
C608 C611 1.511 . S
C609 C605 1.376 . S
C609 C608 1.392 . S
C609 H621 0.929 . S
C610 C606 1.531 . S
C610 H622 0.960 . S
C610 H623 0.962 . S
C610 H624 0.960 . S
C611 C608 1.511 . S
C611 H625 0.961 . S
C611 H626 0.961 1_545 S
C611 H627 0.961 . S
C612 C613 1.370 . S
C612 C614 1.363 . S
C612 H628 0.931 . S
C613 C612 1.370 . S
C613 C617 1.408 . S
C614 C612 1.363 . S
C614 C615 1.370 . S
C614 C618 1.524 . S
C615 C607 1.503 1_565 S
C615 C614 1.370 . S
C615 C616 1.403 . S
C616 C615 1.403 . S
C616 C617 1.404 . S
C616 C619 1.539 1_565 S
C617 C613 1.408 . S
C617 C616 1.404 . S
C617 H629 0.930 . S
C618 C614 1.524 . S
C618 H630 0.956 1_565 S
C618 H631 0.961 . S
C618 H632 0.961 . S
C619 C616 1.539 1_545 S
C619 H633 0.958 . S
C619 H634 0.961 1_545 S
C619 H635 0.960 . S
H620 C604 0.931 . S
H621 C609 0.929 . S
H622 C610 0.960 . S
H623 C610 0.962 . S
H624 C610 0.960 . S
H625 C611 0.961 . S
H626 C611 0.961 1_565 S
H627 C611 0.961 . S
H628 C612 0.931 . S
H629 C617 0.930 . S
H630 C618 0.956 1_545 S
H631 C618 0.961 . S
H632 C618 0.961 . S
H633 C619 0.958 . S
H634 C619 0.961 1_565 S
H635 C619 0.960 . S
C636 C637 1.391 . S
C636 C638 1.394 . S
C636 H652 0.931 1_455 S
C637 C636 1.391 . S
C637 C641 1.376 . S
C638 C636 1.394 . S
C638 C639 1.369 . S
C638 C642 1.531 1_455 S
C639 C638 1.369 . S
C639 C640 1.410 . S
C639 C647 1.503 . S
C640 C639 1.410 . S
C640 C641 1.392 . S
C640 C643 1.511 . S
C641 C637 1.376 . S
C641 C640 1.392 . S
C641 H653 0.929 . S
C642 C638 1.531 1_655 S
C642 H654 0.960 . S
C642 H655 0.962 . S
C642 H656 0.960 . S
C643 C640 1.511 . S
C643 H657 0.961 . S
C643 H658 0.961 . S
C643 H659 0.961 . S
C644 C645 1.370 . S
C644 C646 1.363 1_545 S
C644 H660 0.931 . S
C645 C644 1.370 . S
C645 C649 1.408 . S
C646 C644 1.363 1_565 S
C646 C647 1.370 . S
C646 C650 1.524 . S
C647 C639 1.503 . S
C647 C646 1.370 . S
C647 C648 1.403 1_565 S
C648 C647 1.403 1_545 S
C648 C649 1.404 . S
C648 C651 1.539 . S
C649 C645 1.408 . S
C649 C648 1.404 . S
C649 H661 0.930 . S
C650 C646 1.524 . S
C650 H662 0.956 . S
C650 H663 0.961 . S
C650 H664 0.961 . S
C651 C648 1.539 . S
C651 H665 0.958 . S
C651 H666 0.961 . S
C651 H667 0.960 1_545 S
H652 C636 0.931 1_655 S
H653 C641 0.929 . S
H654 C642 0.960 . S
H655 C642 0.962 . S
H656 C642 0.960 . S
H657 C643 0.961 . S
H658 C643 0.961 . S
H659 C643 0.961 . S
H660 C644 0.931 . S
H661 C649 0.930 . S
H662 C650 0.956 . S
H663 C650 0.961 . S
H664 C650 0.961 . S
H665 C651 0.958 . S
H666 C651 0.961 . S
H667 C651 0.960 1_565 S
C668 C669 1.391 . S
C668 C670 1.394 . S
C668 H684 0.931 . S
C669 C668 1.391 . S
C669 C673 1.376 . S
C670 C668 1.394 . S
C670 C671 1.369 1_554 S
C670 C674 1.531 1_554 S
C671 C670 1.369 1_556 S
C671 C672 1.411 . S
C671 C679 1.503 . S
C672 C671 1.411 . S
C672 C673 1.388 1_556 S
C672 C675 1.513 . S
C673 C669 1.376 . S
C673 C672 1.388 1_554 S
C673 H685 0.929 . S
C674 C670 1.531 1_556 S
C674 H686 0.960 . S
C674 H687 0.962 . S
C674 H688 0.927 1_556 S
C675 C672 1.513 . S
C675 H689 0.961 . S
C675 H690 0.961 . S
C675 H691 0.961 . S
C676 C677 1.370 . S
C676 C678 1.363 . S
C676 H692 0.931 . S
C677 C676 1.370 . S
C677 C681 1.408 . S
C678 C676 1.363 . S
C678 C679 1.370 . S
C678 C682 1.524 . S
C679 C671 1.503 . S
C679 C678 1.370 . S
C679 C680 1.403 . S
C680 C679 1.403 . S
C680 C681 1.404 . S
C680 C683 1.539 . S
C681 C677 1.408 . S
C681 C680 1.404 . S
C681 H693 0.930 . S
C682 C678 1.524 . S
C682 H694 0.956 . S
C682 H695 0.961 . S
C682 H696 0.961 . S
C683 C680 1.539 . S
C683 H697 0.958 . S
C683 H698 0.961 . S
C683 H699 0.960 . S
H684 C668 0.931 . S
H685 C673 0.929 . S
H686 C674 0.960 . S
H687 C674 0.962 . S
H688 C674 0.927 1_554 S
H689 C675 0.961 . S
H690 C675 0.961 . S
H691 C675 0.961 . S
H692 C676 0.931 . S
H693 C681 0.930 . S
H694 C682 0.956 . S
H695 C682 0.961 . S
H696 C682 0.961 . S
H697 C683 0.958 . S
H698 C683 0.961 . S
H699 C683 0.960 . S
C700 C701 1.391 . S
C700 C702 1.394 . S
C700 H716 0.931 . S
C701 C700 1.391 . S
C701 C705 1.376 . S
C702 C700 1.394 . S
C702 C703 1.369 . S
C702 C706 1.531 . S
C703 C702 1.369 . S
C703 C704 1.410 . S
C703 C711 1.503 . S
C704 C703 1.410 . S
C704 C705 1.392 . S
C704 C707 1.511 . S
C705 C701 1.376 . S
C705 C704 1.392 . S
C705 H717 0.929 . S
C706 C702 1.531 . S
C706 H718 0.960 . S
C706 H719 0.962 . S
C706 H720 0.960 1_455 S
C707 C704 1.511 . S
C707 H721 0.961 . S
C707 H722 0.961 . S
C707 H723 0.961 . S
C708 C709 1.370 . S
C708 C710 1.363 . S
C708 H724 0.931 . S
C709 C708 1.370 . S
C709 C713 1.408 . S
C710 C708 1.363 . S
C710 C711 1.370 . S
C710 C714 1.524 . S
C711 C703 1.503 . S
C711 C710 1.370 . S
C711 C712 1.403 . S
C712 C711 1.403 . S
C712 C713 1.404 . S
C712 C715 1.539 . S
C713 C709 1.408 . S
C713 C712 1.404 . S
C713 H725 0.930 . S
C714 C710 1.524 . S
C714 H726 0.956 . S
C714 H727 0.961 . S
C714 H728 0.961 . S
C715 C712 1.539 . S
C715 H729 0.958 . S
C715 H730 0.961 . S
C715 H731 0.960 . S
H716 C700 0.931 . S
H717 C705 0.929 . S
H718 C706 0.960 . S
H719 C706 0.962 . S
H720 C706 0.960 1_655 S
H721 C707 0.961 . S
H722 C707 0.961 . S
H723 C707 0.961 . S
H724 C708 0.931 . S
H725 C713 0.930 . S
H726 C714 0.956 . S
H727 C714 0.961 . S
H728 C714 0.961 . S
H729 C715 0.958 . S
H730 C715 0.961 . S
H731 C715 0.960 . S
C732 C733 1.391 . S
C732 C734 1.394 . S
C732 H748 0.931 . S
C733 C732 1.391 . S
C733 C737 1.376 . S
C734 C732 1.394 . S
C734 C735 1.369 . S
C734 C738 1.531 . S
C735 C734 1.369 . S
C735 C736 1.410 . S
C735 C743 1.503 . S
C736 C735 1.410 . S
C736 C737 1.392 . S
C736 C739 1.511 . S
C737 C733 1.376 . S
C737 C736 1.392 . S
C737 H749 0.929 . S
C738 C734 1.531 . S
C738 H750 0.960 . S
C738 H751 0.962 . S
C738 H752 0.960 . S
C739 C736 1.511 . S
C739 H753 0.961 . S
C739 H754 0.961 . S
C739 H755 0.961 . S
C740 C741 1.370 . S
C740 C742 1.363 . S
C740 H756 0.931 . S
C741 C740 1.370 . S
C741 C745 1.408 . S
C742 C740 1.363 . S
C742 C743 1.370 . S
C742 C746 1.524 . S
C743 C735 1.503 . S
C743 C742 1.370 . S
C743 C744 1.403 . S
C744 C743 1.403 . S
C744 C745 1.404 . S
C744 C747 1.539 . S
C745 C741 1.408 . S
C745 C744 1.404 . S
C745 H757 0.930 . S
C746 C742 1.524 . S
C746 H758 0.956 . S
C746 H759 0.961 . S
C746 H760 0.961 . S
C747 C744 1.539 . S
C747 H761 0.958 . S
C747 H762 0.961 . S
C747 H763 0.960 . S
H748 C732 0.931 . S
H749 C737 0.929 . S
H750 C738 0.960 . S
H751 C738 0.962 . S
H752 C738 0.960 . S
H753 C739 0.961 . S
H754 C739 0.961 . S
H755 C739 0.961 . S
H756 C740 0.931 . S
H757 C745 0.930 . S
H758 C746 0.956 . S
H759 C746 0.961 . S
H760 C746 0.961 . S
H761 C747 0.958 . S
H762 C747 0.961 . S
H763 C747 0.960 . S
C764 C765 1.391 . S
C764 C766 1.394 . S
C764 H780 0.931 . S
C765 C764 1.391 . S
C765 C769 1.376 . S
C766 C764 1.394 . S
C766 C767 1.369 . S
C766 C770 1.531 . S
C767 C766 1.369 . S
C767 C768 1.410 . S
C767 C775 1.503 . S
C768 C767 1.410 . S
C768 C769 1.392 . S
C768 C771 1.511 . S
C769 C765 1.376 . S
C769 C768 1.392 . S
C769 H781 0.929 . S
C770 C766 1.531 . S
C770 H782 0.960 . S
C770 H783 0.962 . S
C770 H784 0.960 . S
C771 C768 1.511 . S
C771 H785 0.961 . S
C771 H786 0.961 . S
C771 H787 0.961 . S
C772 C773 1.370 . S
C772 C774 1.363 . S
C772 H788 0.931 . S
C773 C772 1.370 . S
C773 C777 1.408 . S
C774 C772 1.363 . S
C774 C775 1.370 . S
C774 C778 1.524 . S
C775 C767 1.503 . S
C775 C774 1.370 . S
C775 C776 1.403 . S
C776 C775 1.403 . S
C776 C777 1.404 . S
C776 C779 1.539 . S
C777 C773 1.408 . S
C777 C776 1.404 . S
C777 H789 0.930 . S
C778 C774 1.524 . S
C778 H790 0.956 . S
C778 H791 0.961 . S
C778 H792 0.961 . S
C779 C776 1.539 . S
C779 H793 0.958 . S
C779 H794 0.961 . S
C779 H795 0.960 . S
H780 C764 0.931 . S
H781 C769 0.929 . S
H782 C770 0.960 . S
H783 C770 0.962 . S
H784 C770 0.960 . S
H785 C771 0.961 . S
H786 C771 0.961 . S
H787 C771 0.961 . S
H788 C772 0.931 . S
H789 C777 0.930 . S
H790 C778 0.956 . S
H791 C778 0.961 . S
H792 C778 0.961 . S
H793 C779 0.958 . S
H794 C779 0.961 . S
H795 C779 0.960 . S
C796 C797 1.391 . S
C796 C798 1.394 . S
C796 H812 0.931 . S
C797 C796 1.391 . S
C797 C801 1.376 . S
C798 C796 1.394 . S
C798 C799 1.369 1_556 S
C798 C802 1.531 1_556 S
C799 C798 1.369 1_554 S
C799 C800 1.410 1_554 S
C799 C807 1.503 . S
C800 C799 1.410 1_556 S
C800 C801 1.392 . S
C800 C803 1.511 1_456 S
C801 C797 1.376 . S
C801 C800 1.392 . S
C801 H813 0.917 1_455 S
C802 C798 1.531 1_554 S
C802 H814 0.960 . S
C802 H815 0.962 . S
C802 H816 0.943 1_554 S
C803 C800 1.511 1_654 S
C803 H817 0.961 . S
C803 H818 0.961 1_655 S
C803 H819 0.961 . S
C804 C805 1.370 . S
C804 C806 1.363 . S
C804 H820 0.931 . S
C805 C804 1.370 . S
C805 C809 1.408 . S
C806 C804 1.363 . S
C806 C807 1.370 . S
C806 C810 1.524 . S
C807 C799 1.503 . S
C807 C806 1.370 . S
C807 C808 1.403 . S
C808 C807 1.403 . S
C808 C809 1.404 . S
C808 C811 1.539 . S
C809 C805 1.408 . S
C809 C808 1.404 . S
C809 H821 0.930 . S
C810 C806 1.524 . S
C810 H822 0.956 . S
C810 H823 0.961 . S
C810 H824 0.961 . S
C811 C808 1.539 . S
C811 H825 0.958 . S
C811 H826 0.961 1_455 S
C811 H827 0.960 1_455 S
H812 C796 0.931 . S
H813 C801 0.917 1_655 S
H814 C802 0.960 . S
H815 C802 0.962 . S
H816 C802 0.943 1_556 S
H817 C803 0.961 . S
H818 C803 0.961 1_455 S
H819 C803 0.961 . S
H820 C804 0.931 . S
H821 C809 0.930 . S
H822 C810 0.956 . S
H823 C810 0.961 . S
H824 C810 0.961 . S
H825 C811 0.958 . S
H826 C811 0.961 1_655 S
H827 C811 0.960 1_655 S
C828 C829 1.391 . S
C828 C830 1.394 . S
C828 H844 0.931 . S
C829 C828 1.391 . S
C829 C833 1.376 . S
C830 C828 1.394 . S
C830 C831 1.369 . S
C830 C834 1.531 . S
C831 C830 1.369 . S
C831 C832 1.410 . S
C831 C839 1.503 . S
C832 C831 1.410 . S
C832 C833 1.392 . S
C832 C835 1.511 . S
C833 C829 1.376 . S
C833 C832 1.392 . S
C833 H845 0.929 . S
C834 C830 1.531 . S
C834 H846 0.960 . S
C834 H847 0.962 . S
C834 H848 0.960 . S
C835 C832 1.511 . S
C835 H849 0.961 . S
C835 H850 0.961 . S
C835 H851 0.961 . S
C836 C837 1.370 . S
C836 C838 1.363 . S
C836 H852 0.931 . S
C837 C836 1.370 . S
C837 C841 1.408 . S
C838 C836 1.363 . S
C838 C839 1.370 . S
C838 C842 1.524 . S
C839 C831 1.503 . S
C839 C838 1.370 . S
C839 C840 1.403 . S
C840 C839 1.403 . S
C840 C841 1.404 . S
C840 C843 1.539 . S
C841 C837 1.408 . S
C841 C840 1.404 . S
C841 H853 0.930 . S
C842 C838 1.524 . S
C842 H854 0.956 . S
C842 H855 0.961 . S
C842 H856 0.961 . S
C843 C840 1.539 . S
C843 H857 0.958 . S
C843 H858 0.961 . S
C843 H859 0.960 . S
H844 C828 0.931 . S
H845 C833 0.929 . S
H846 C834 0.960 . S
H847 C834 0.962 . S
H848 C834 0.960 . S
H849 C835 0.961 . S
H850 C835 0.961 . S
H851 C835 0.961 . S
H852 C836 0.931 . S
H853 C841 0.930 . S
H854 C842 0.956 . S
H855 C842 0.961 . S
H856 C842 0.961 . S
H857 C843 0.958 . S
H858 C843 0.961 . S
H859 C843 0.960 . S
C860 C861 1.391 . S
C860 C862 1.394 . S
C860 H876 0.931 . S
C861 C860 1.391 . S
C861 C865 1.376 . S
C862 C860 1.394 . S
C862 C863 1.369 . S
C862 C866 1.531 . S
C863 C862 1.369 . S
C863 C864 1.410 . S
C863 C871 1.503 . S
C864 C863 1.410 . S
C864 C865 1.392 . S
C864 C867 1.511 . S
C865 C861 1.376 . S
C865 C864 1.392 . S
C865 H877 0.929 . S
C866 C862 1.531 . S
C866 H878 0.960 . S
C866 H879 0.962 . S
C866 H880 0.960 . S
C867 C864 1.511 . S
C867 H881 0.961 . S
C867 H882 0.961 . S
C867 H883 0.961 . S
C868 C869 1.370 . S
C868 C870 1.363 . S
C868 H884 0.931 . S
C869 C868 1.370 . S
C869 C873 1.408 . S
C870 C868 1.363 . S
C870 C871 1.370 . S
C870 C874 1.524 . S
C871 C863 1.503 . S
C871 C870 1.370 . S
C871 C872 1.403 . S
C872 C871 1.403 . S
C872 C873 1.404 . S
C872 C875 1.539 . S
C873 C869 1.408 . S
C873 C872 1.404 . S
C873 H885 0.930 . S
C874 C870 1.524 . S
C874 H886 0.956 . S
C874 H887 0.961 . S
C874 H888 0.961 . S
C875 C872 1.539 . S
C875 H889 0.958 . S
C875 H890 0.961 . S
C875 H891 0.960 . S
H876 C860 0.931 . S
H877 C865 0.929 . S
H878 C866 0.960 . S
H879 C866 0.962 . S
H880 C866 0.960 . S
H881 C867 0.961 . S
H882 C867 0.961 . S
H883 C867 0.961 . S
H884 C868 0.931 . S
H885 C873 0.930 . S
H886 C874 0.956 . S
H887 C874 0.961 . S
H888 C874 0.961 . S
H889 C875 0.958 . S
H890 C875 0.961 . S
H891 C875 0.960 . S
C892 C893 1.391 . S
C892 C894 1.394 . S
C892 H908 0.931 . S
C893 C892 1.391 . S
C893 C897 1.376 . S
C894 C892 1.394 . S
C894 C895 1.369 . S
C894 C898 1.531 . S
C895 C894 1.369 . S
C895 C896 1.410 . S
C895 C903 1.503 . S
C896 C895 1.410 . S
C896 C897 1.392 . S
C896 C899 1.511 . S
C897 C893 1.376 . S
C897 C896 1.392 . S
C897 H909 0.929 . S
C898 C894 1.531 . S
C898 H910 0.960 . S
C898 H911 0.962 . S
C898 H912 0.960 . S
C899 C896 1.511 . S
C899 H913 0.961 . S
C899 H914 0.961 . S
C899 H915 0.961 . S
C900 C901 1.370 . S
C900 C902 1.363 . S
C900 H916 0.931 . S
C901 C900 1.370 . S
C901 C905 1.408 . S
C902 C900 1.363 . S
C902 C903 1.370 . S
C902 C906 1.524 . S
C903 C895 1.503 . S
C903 C902 1.370 . S
C903 C904 1.403 . S
C904 C903 1.403 . S
C904 C905 1.404 . S
C904 C907 1.539 . S
C905 C901 1.408 . S
C905 C904 1.404 . S
C905 H917 0.930 . S
C906 C902 1.524 . S
C906 H918 0.956 . S
C906 H919 0.961 . S
C906 H920 0.961 . S
C907 C904 1.539 . S
C907 H921 0.958 . S
C907 H922 0.961 . S
C907 H923 0.960 . S
H908 C892 0.931 . S
H909 C897 0.929 . S
H910 C898 0.960 . S
H911 C898 0.962 . S
H912 C898 0.960 . S
H913 C899 0.961 . S
H914 C899 0.961 . S
H915 C899 0.961 . S
H916 C900 0.931 . S
H917 C905 0.930 . S
H918 C906 0.956 . S
H919 C906 0.961 . S
H920 C906 0.961 . S
H921 C907 0.958 . S
H922 C907 0.961 . S
H923 C907 0.960 . S
C165 C79 1.452 . S
C157 C4 1.523 . S
C197 C97 1.326 . S
C189 C13 1.383 . S
C221 C25 1.344 . S
C229 C121 1.215 . S
C261 C151 1.214 1_655 S
C253 C34 1.394 . S
C293 C139 1.256 . S
C285 C40 1.377 . S
C317 C52 1.375 . S
C325 C92 1.333 1_655 S
C349 C61 1.554 . S
C357 C112 1.420 . S
C381 C67 1.430 . S
C389 C117 1.275 . S
C413 C70 1.383 . S
C421 C133 1.316 . S
C445 C49 1.424 . S
C453 C88 1.271 . S
C485 C155 1.341 . S
C477 C31 1.384 . S
C517 C100 1.209 . S
C509 C16 1.383 . S
C541 C22 1.546 . S
C549 C118 1.409 . S
C573 C7 1.356 . S
C581 C76 1.227 . S
C613 C96 1.224 . S
C605 C58 1.353 . S
C645 C142 1.445 . S
C637 C43 1.534 . S
C677 C138 1.318 . S
C669 C5 1.463 . S
C709 C91 1.356 . S
C701 C14 1.460 . S
C733 C23 1.464 . S
C741 C113 1.269 . S
C765 C32 1.476 . S
C773 C134 1.361 . S
C805 C75 1.293 . S
C797 C41 1.489 . S
C829 C50 1.486 . S
C837 C109 1.392 . S
C869 C130 1.353 . S
C861 C59 1.496 . S
C901 C154 1.373 . S
C893 C68 1.466 . S
