# Generated by pormake.
# Topology anh, (6,3)-cn, num edge types: 1
# Building blocks:
#     Node 0, Type 0, BuildingBlock: BETGAK_clean_sbu_0, # of connection points: 6
#     Node 1, Type 0, BuildingBlock: BETGAK_clean_sbu_0, # of connection points: 6
#     Node 2, Type 0, BuildingBlock: BETGAK_clean_sbu_0, # of connection points: 6
#     Node 3, Type 1, BuildingBlock: PAMTOO_clean_linker_0, # of connection points: 3
#     Node 4, Type 1, BuildingBlock: PAMTOO_clean_linker_0, # of connection points: 3
#     Node 5, Type 1, BuildingBlock: PAMTOO_clean_linker_0, # of connection points: 3
#     Node 6, Type 1, BuildingBlock: PAMTOO_clean_linker_0, # of connection points: 3
#     Node 7, Type 1, BuildingBlock: PAMTOO_clean_linker_0, # of connection points: 3
#     Node 8, Type 1, BuildingBlock: PAMTOO_clean_linker_0, # of connection points: 3
#     Edge 9, Type (0, 1), BuildingBlock: UVAHIK_clean_linker_0, # of connection points: 2
#     Edge 10, Type (0, 1), BuildingBlock: UVAHIK_clean_linker_0, # of connection points: 2
#     Edge 11, Type (0, 1), BuildingBlock: UVAHIK_clean_linker_0, # of connection points: 2
#     Edge 12, Type (0, 1), BuildingBlock: UVAHIK_clean_linker_0, # of connection points: 2
#     Edge 13, Type (0, 1), BuildingBlock: UVAHIK_clean_linker_0, # of connection points: 2
#     Edge 14, Type (0, 1), BuildingBlock: UVAHIK_clean_linker_0, # of connection points: 2
#     Edge 15, Type (0, 1), BuildingBlock: UVAHIK_clean_linker_0, # of connection points: 2
#     Edge 16, Type (0, 1), BuildingBlock: UVAHIK_clean_linker_0, # of connection points: 2
#     Edge 17, Type (0, 1), BuildingBlock: UVAHIK_clean_linker_0, # of connection points: 2
#     Edge 18, Type (0, 1), BuildingBlock: UVAHIK_clean_linker_0, # of connection points: 2
#     Edge 19, Type (0, 1), BuildingBlock: UVAHIK_clean_linker_0, # of connection points: 2
#     Edge 20, Type (0, 1), BuildingBlock: UVAHIK_clean_linker_0, # of connection points: 2
#     Edge 21, Type (0, 1), BuildingBlock: UVAHIK_clean_linker_0, # of connection points: 2
#     Edge 22, Type (0, 1), BuildingBlock: UVAHIK_clean_linker_0, # of connection points: 2
#     Edge 23, Type (0, 1), BuildingBlock: UVAHIK_clean_linker_0, # of connection points: 2
#     Edge 24, Type (0, 1), BuildingBlock: UVAHIK_clean_linker_0, # of connection points: 2
#     Edge 25, Type (0, 1), BuildingBlock: UVAHIK_clean_linker_0, # of connection points: 2
#     Edge 26, Type (0, 1), BuildingBlock: UVAHIK_clean_linker_0, # of connection points: 2
# Relax obj value: 0.136
# Max RMSD: 0.166
# Mean RMSD: 0.121
data_MOF--net-anh--node1-BETGAK_clean_sbu_0--node2-PAMTOO_clean_linker_0--edge1-UVAHIK_clean_linker_0
_symmetry_space_group_name_H-M    P1
_symmetry_Int_Tables_number       1
_symmetry_cell_setting            triclinic
loop_
_symmetry_equiv_pos_as_xyz
'x, y, z'
_cell_length_a     38.784929
_cell_length_b     46.803747
_cell_length_c     64.082271
_cell_angle_alpha  89.063283
_cell_angle_beta   91.523664
_cell_angle_gamma 127.98376
loop_
_atom_site_label
_atom_site_type_symbol
_atom_site_fract_x
_atom_site_fract_y
_atom_site_fract_z
_atom_type_partial_charge
La0 La 0.20587 0.57956 0.15287 0.0
La1 La 0.15022 0.59897 0.16847 0.0
C2 C 0.25593 0.57328 0.13289 0.0
C3 C 0.25717 0.54348 0.12793 0.0
C4 C 0.22872 0.50949 0.1375 0.0
C5 C 0.2314 0.48173 0.13316 0.0
C6 C 0.26255 0.48759 0.11917 0.0
C7 C 0.29023 0.52153 0.10929 0.0
C8 C 0.28757 0.54923 0.11367 0.0
C9 C 0.19508 0.57413 0.19333 0.0
C10 C 0.24665 0.66239 0.16165 0.0
C11 C 0.09417 0.59695 0.18857 0.0
C12 C 1.04631 0.56901 0.18808 0.0
C13 C 1.02426 0.5522 0.16914 0.0
C14 C 0.97981 0.52298 0.16883 0.0
C15 C 0.9564 0.50946 0.18747 0.0
C16 C 0.97848 0.52651 0.20644 0.0
C17 C 1.02311 0.55604 0.20672 0.0
C18 C 0.15805 0.60134 0.12762 0.0
C19 C 0.10806 0.51522 0.16013 0.0
O20 O 0.22376 0.57153 0.12422 0.0
O21 O 0.26198 0.58248 0.15259 0.0
O22 O 0.1984 0.5528 0.18249 0.0
O23 O 0.2007 0.59866 0.18178 0.0
O24 O 0.24724 0.63933 0.15014 0.0
O25 O 0.21303 0.65107 0.17347 0.0
O26 O 0.11158 0.61598 0.17146 0.0
O27 O 0.11582 0.58597 0.19624 0.0
O28 O 0.15392 0.6227 0.13787 0.0
O29 O 0.15432 0.57859 0.13999 0.0
O30 O 0.10499 0.53949 0.1681 0.0
O31 O 0.14431 0.52479 0.15134 0.0
H32 H 0.20492 0.50463 0.14853 0.0
H33 H 0.20987 0.45603 0.14116 0.0
H34 H 0.31404 0.52673 0.09816 0.0
H35 H 0.30952 0.57527 0.10604 0.0
H36 H 1.04154 0.56119 0.15455 0.0
H37 H 0.96378 0.51107 0.15389 0.0
H38 H 0.96153 0.5166 0.22109 0.0
H39 H 1.03976 0.56818 0.22153 0.0
La40 La 0.67451 0.03955 0.48555 0.0
La41 La 0.61756 0.06033 0.47295 0.0
C42 C 0.70572 0.01149 0.50366 0.0
C43 C 0.69574 0.97556 0.5049 0.0
C44 C 0.68467 0.95425 0.48702 0.0
C45 C 0.67729 0.92101 0.48856 0.0
C46 C 0.68035 0.90828 0.50802 0.0
C47 C 0.69056 0.92938 0.52591 0.0
C48 C 0.69831 0.96272 0.52434 0.0
C49 C 0.67219 0.05046 0.4453 0.0
C50 C 0.57227 0.97811 0.47503 0.0
C51 C 0.58692 0.09005 0.45665 0.0
C52 C 0.59459 0.12441 0.46089 0.0
C53 C 0.61135 0.14147 0.48038 0.0
C54 C 0.61713 0.1734 0.48465 0.0
C55 C 0.60672 0.18921 0.46944 0.0
C56 C 0.59094 0.17238 0.44973 0.0
C57 C 0.58484 0.14025 0.44554 0.0
C58 C 0.62217 0.05139 0.51345 0.0
C59 C 0.72067 0.12181 0.4814 0.0
O60 O 0.71923 0.0284 0.48574 0.0
O61 O 0.67769 0.01433 0.51222 0.0
O62 O 0.70591 0.0571 0.45524 0.0
O63 O 0.64038 0.03531 0.45738 0.0
O64 O 0.60805 0.98719 0.48513 0.0
O65 O 0.57122 1.00291 0.46556 0.0
O66 O 0.56777 0.06573 0.47148 0.0
O67 O 0.61993 0.09291 0.44908 0.0
O68 O 0.58813 0.04461 0.50387 0.0
O69 O 0.65281 0.06562 0.50081 0.0
O70 O 0.68386 0.11222 0.4723 0.0
O71 O 0.72292 0.09766 0.4909 0.0
H72 H 0.68206 0.96338 0.47184 0.0
H73 H 0.66898 0.90517 0.47454 0.0
H74 H 0.69356 0.92049 0.54109 0.0
H75 H 0.7068 0.97872 0.53832 0.0
H76 H 0.61937 0.12979 0.49242 0.0
H77 H 0.62878 0.18515 0.50007 0.0
H78 H 0.58336 0.18405 0.43748 0.0
H79 H 0.57228 0.12765 0.43034 0.0
La80 La 0.66409 0.56007 0.84414 0.0
La81 La 0.60271 0.47894 0.84491 0.0
C82 C 0.70305 0.62573 0.83472 0.0
C83 C 0.69263 0.65086 0.83031 0.0
C84 C 0.68411 0.66554 0.84651 0.0
C85 C 0.67755 0.69129 0.84219 0.0
C86 C 0.67936 0.70294 0.8216 0.0
C87 C 0.68724 0.68784 0.8054 0.0
C88 C 0.69398 0.66223 0.80972 0.0
C89 C 0.64909 0.53022 0.88128 0.0
C90 C 0.56025 0.51778 0.84638 0.0
C91 C 0.56493 0.41313 0.85345 0.0
C92 C 0.57392 0.38745 0.84958 0.0
C93 C 0.55021 0.35418 0.86008 0.0
C94 C 0.55796 0.32925 0.85631 0.0
C95 C 0.5896 0.3372 0.84192 0.0
C96 C 0.61365 0.37086 0.83158 0.0
C97 C 0.60592 0.3958 0.8354 0.0
C98 C 0.61663 0.50799 0.80764 0.0
C99 C 0.70756 0.52191 0.84391 0.0
O100 O 0.69854 0.61397 0.8539 0.0
O101 O 0.68929 0.60017 0.82096 0.0
O102 O 0.68652 0.55993 0.876 0.0
O103 O 0.6218 0.51995 0.86659 0.0
O104 O 0.59895 0.54746 0.84055 0.0
O105 O 0.55556 0.48824 0.85214 0.0
O106 O 0.55561 0.42418 0.83693 0.0
O107 O 0.59238 0.43983 0.86619 0.0
O108 O 0.5798 0.47834 0.8134 0.0
O109 O 0.64487 0.51879 0.82203 0.0
O110 O 0.66771 0.49096 0.84665 0.0
O111 O 0.71383 0.55276 0.84058 0.0
H112 H 0.68308 0.65756 0.86258 0.0
H113 H 0.67114 0.70216 0.85498 0.0
H114 H 0.68946 0.69659 0.7894 0.0
H115 H 0.70108 0.65179 0.79695 0.0
H116 H 0.52542 0.34735 0.87109 0.0
H117 H 0.53853 0.30344 0.86435 0.0
H118 H 0.63861 0.378 0.82061 0.0
H119 H 0.62473 0.42151 0.82722 0.0
H120 H 0.74455 0.16009 0.22663 0.0
H121 H 0.63925 0.04752 0.21412 0.0
H122 H 0.71159 0.12051 0.16341 0.0
H123 H 0.61718 0.05554 0.14778 0.0
C124 C 0.60978 0.04567 0.16416 0.0
O125 O 0.64708 0.05341 0.17365 0.0
H126 H 0.59911 0.06008 0.172 0.0
C127 C 0.72434 0.13799 0.21565 0.0
C128 C 0.73203 0.14473 0.19417 0.0
C129 C 0.69127 0.10303 0.22312 0.0
C130 C 0.66488 0.07472 0.20874 0.0
C131 C 0.67224 0.08108 0.18728 0.0
C132 C 0.7061 0.1159 0.18003 0.0
H133 H 0.65989 0.61112 0.58767 0.0
H134 H 0.66199 0.52127 0.57926 0.0
H135 H 0.65625 0.5746 0.52569 0.0
H136 H 0.60086 0.49588 0.52084 0.0
C137 C 0.61672 0.48946 0.53267 0.0
O138 O 0.65677 0.52133 0.53848 0.0
H139 H 0.59508 0.47678 0.5464 0.0
C140 C 0.65958 0.59284 0.57734 0.0
C141 C 0.65815 0.59662 0.55558 0.0
C142 C 0.66112 0.56592 0.58603 0.0
C143 C 0.66168 0.54265 0.57278 0.0
C144 C 0.65956 0.54565 0.55107 0.0
C145 C 0.65838 0.57285 0.54249 0.0
H146 H 0.08357 0.55648 0.90417 0.0
H147 H 0.19154 0.55284 0.90105 0.0
H148 H 0.10977 0.52732 0.84665 0.0
H149 H 0.15449 0.48761 0.84752 0.0
C150 C 0.17603 0.50414 0.86105 0.0
O151 O 0.18045 0.53584 0.86164 0.0
H152 H 0.15971 0.4876 0.87533 0.0
C153 C 0.1033 0.55198 0.89531 0.0
C154 C 0.09226 0.54159 0.87429 0.0
C155 C 0.13852 0.55561 0.90522 0.0
C156 C 0.16369 0.54941 0.89373 0.0
C157 C 0.15369 0.53935 0.87264 0.0
C158 C 0.11746 0.53492 0.86296 0.0
H159 H 0.07991 0.47816 0.41191 0.0
H160 H 0.19631 0.58642 0.42515 0.0
H161 H 0.12161 0.51361 0.47552 0.0
H162 H 0.17693 0.59642 0.49067 0.0
C163 C 0.1853 0.60322 0.47395 0.0
O164 O 0.19067 0.57918 0.4656 0.0
H165 H 0.15753 0.60076 0.46614 0.0
C166 C 0.10278 0.49907 0.42306 0.0
C167 C 0.09604 0.49165 0.44454 0.0
C168 C 0.13891 0.53304 0.4158 0.0
C169 C 0.1681 0.56008 0.43036 0.0
C170 C 0.16181 0.55303 0.45181 0.0
C171 C 0.12615 0.51877 0.45889 0.0
H172 H 0.66225 0.98369 0.73192 0.0
H173 H 0.64981 0.06663 0.7456 0.0
H174 H 0.65325 1.00647 0.79565 0.0
H175 H 0.59789 0.02864 0.80633 0.0
C176 C 0.60785 0.0471 0.79274 0.0
O177 O 0.64795 0.05823 0.78604 0.0
H178 H 0.58222 0.03166 0.78026 0.0
C179 C 0.65937 0.99907 0.74322 0.0
C180 C 0.65802 0.99143 0.76465 0.0
C181 C 0.65619 0.02595 0.73616 0.0
C182 C 0.6523 0.04579 0.75076 0.0
C183 C 0.65172 0.03893 0.77214 0.0
C184 C 0.65469 0.01195 0.77907 0.0
H185 H 0.58077 0.34417 0.08205 0.0
H186 H 0.45634 0.32261 0.07355 0.0
H187 H 0.48291 0.28718 0.12937 0.0
H188 H 0.37547 0.24024 0.11695 0.0
C189 C 0.38633 0.26104 0.10464 0.0
O190 O 0.42713 0.29231 0.11002 0.0
H191 H 0.38691 0.24971 0.08961 0.0
C192 C 0.54786 0.33124 0.08731 0.0
C193 C 0.53539 0.31491 0.10717 0.0
C194 C 0.51956 0.33402 0.07497 0.0
C195 C 0.47819 0.31985 0.08255 0.0
C196 C 0.46492 0.30243 0.10194 0.0
C197 C 0.49315 0.29958 0.11407 0.0
C198 C 0.30918 0.46818 0.11403 0.0
C199 C 0.26731 0.45896 0.11536 0.0
C200 C 0.31413 0.44158 0.11051 0.0
C201 C 0.3156 0.38411 0.09118 0.0
H202 H 0.24888 0.29473 0.12301 0.0
C203 C 0.35035 0.28248 0.08374 0.0
C204 C 0.35577 0.27052 0.10287 0.0
C205 C 0.32998 0.29881 0.0829 0.0
C206 C 0.26765 0.31951 0.11396 0.0
H207 H 0.19772 0.41443 0.11401 0.0
H208 H 0.20646 0.36775 0.10794 0.0
H209 H 0.23362 0.33792 0.12635 0.0
H210 H 0.34369 0.26548 0.13598 0.0
H211 H 0.30849 0.29434 0.13466 0.0
H212 H 0.35114 0.36685 0.07955 0.0
C213 C 0.23541 0.39566 0.10974 0.0
C214 C 0.25866 0.34408 0.11573 0.0
C215 C 0.23043 0.42237 0.11324 0.0
C216 C 0.33897 0.27381 0.12099 0.0
C217 C 0.31878 0.2903 0.12019 0.0
C218 C 0.32459 0.35963 0.08941 0.0
C219 C 0.27736 0.40504 0.10824 0.0
C220 C 0.28329 0.37705 0.10473 0.0
C221 C 0.31532 0.30405 0.10123 0.0
C222 C 0.30137 0.32737 0.1011 0.0
H223 H 0.33828 0.49596 0.11607 0.0
H224 H 0.34692 0.44961 0.10993 0.0
H225 H 0.33469 0.40902 0.08224 0.0
H226 H 0.36374 0.28074 0.06963 0.0
H227 H 0.32733 0.30868 0.06801 0.0
C228 C 0.75724 0.18563 0.46979 0.0
C229 C 0.75971 0.16056 0.48066 0.0
C230 C 0.79424 0.22167 0.46769 0.0
C231 C 0.90397 0.29304 0.48926 0.0
H232 H 0.92357 0.33354 0.43362 0.0
C233 C 1.06225 0.43539 0.4664 0.0
C234 C 1.05755 0.45538 0.45163 0.0
C235 C 1.02644 0.39977 0.47139 0.0
C236 C 0.91837 0.32296 0.44935 0.0
H237 H 0.803 0.15422 0.49844 0.0
H238 H 0.86792 0.21762 0.49481 0.0
H239 H 0.86058 0.27106 0.43983 0.0
H240 H 1.01128 0.45465 0.4315 0.0
H241 H 0.9488 0.39319 0.44052 0.0
H242 H 0.96164 0.3453 0.49882 0.0
C243 C 0.8371 0.2091 0.48793 0.0
C244 C 0.88226 0.28701 0.45287 0.0
C245 C 0.79996 0.17278 0.48994 0.0
C246 C 1.01603 0.43966 0.44266 0.0
C247 C 0.98028 0.40432 0.44777 0.0
C248 C 0.9401 0.32927 0.48577 0.0
C249 C 0.83474 0.23376 0.47646 0.0
C250 C 0.87436 0.27169 0.47289 0.0
C251 C 0.98514 0.38354 0.46183 0.0
C252 C 0.94749 0.34481 0.46577 0.0
H253 H 0.72681 0.17737 0.46255 0.0
H254 H 0.79118 0.24013 0.45906 0.0
H255 H 0.8986 0.28202 0.50488 0.0
H256 H 0.09397 0.4468 0.47347 0.0
H257 H 1.03152 0.38457 0.48218 0.0
C258 C 0.64993 0.72872 0.79954 0.0
C259 C 0.6745 0.73156 0.81703 0.0
C260 C 0.64703 0.75641 0.79469 0.0
C261 C 0.66357 0.83693 0.81684 0.0
H262 H 0.67042 0.86345 0.7586 0.0
C263 C 0.68354 0.96525 0.78946 0.0
C264 C 0.65884 0.9614 0.77172 0.0
C265 C 0.68493 0.93713 0.79566 0.0
C266 C 0.668 0.85614 0.77492 0.0
H267 H 0.71522 0.76576 0.84319 0.0
H268 H 0.71039 0.81419 0.83468 0.0
H269 H 0.67335 0.81444 0.76819 0.0
H270 H 0.61482 0.92436 0.74713 0.0
H271 H 0.61747 0.87562 0.75783 0.0
H272 H 0.65856 0.87898 0.82351 0.0
C273 C 0.69276 0.79028 0.82487 0.0
C274 C 0.6696 0.82797 0.78042 0.0
C275 C 0.69554 0.76251 0.82976 0.0
C276 C 0.63499 0.92858 0.76057 0.0
C277 C 0.63646 0.90059 0.76672 0.0
C278 C 0.66208 0.86523 0.81132 0.0
C279 C 0.66878 0.78772 0.80717 0.0
C280 C 0.6672 0.81787 0.80144 0.0
C281 C 0.66169 0.9046 0.78423 0.0
C282 C 0.66406 0.87502 0.79028 0.0
H283 H 0.63277 0.70497 0.7896 0.0
H284 H 0.62756 0.7532 0.78117 0.0
H285 H 0.66114 0.8296 0.83315 0.0
H286 H 0.70257 0.99028 0.79829 0.0
H287 H 0.70499 0.94119 0.80911 0.0
C288 C 0.87947 0.47788 0.19935 0.0
C289 C 0.90893 0.4783 0.18679 0.0
C290 C 0.83437 0.45109 0.19661 0.0
C291 C 0.7492 0.36485 0.16789 0.0
H292 H 0.6879 0.4061 0.16627 0.0
C293 C 0.60018 0.31589 0.1144 0.0
C294 C 0.56865 0.31891 0.12167 0.0
C295 C 0.6363 0.32659 0.12701 0.0
C296 C 0.70412 0.39379 0.16704 0.0
H297 H 0.91415 0.44884 0.16292 0.0
H298 H 0.83587 0.40348 0.15737 0.0
H299 H 0.76185 0.44148 0.18038 0.0
H300 H 0.54892 0.33327 0.14842 0.0
H301 H 0.61144 0.35132 0.17041 0.0
H302 H 0.69172 0.31788 0.15325 0.0
C303 C 0.84729 0.42346 0.16952 0.0
C304 C 0.74668 0.41411 0.17523 0.0
C305 C 0.89233 0.44993 0.17244 0.0
C306 C 0.57237 0.33032 0.14234 0.0
C307 C 0.60844 0.34103 0.1549 0.0
C308 C 0.70661 0.34461 0.15948 0.0
C309 C 0.81768 0.42437 0.18109 0.0
C310 C 0.77022 0.4003 0.17533 0.0
C311 C 0.64161 0.34061 0.14709 0.0
C312 C 0.68402 0.35923 0.15859 0.0
H313 H 0.89106 0.49921 0.2106 0.0
H314 H 0.81257 0.45215 0.20617 0.0
H315 H 0.76603 0.35307 0.16806 0.0
H316 H 0.59793 0.3068 0.09863 0.0
H317 H 0.66141 0.32608 0.12052 0.0
C318 C 0.49694 0.92832 0.4611 0.0
C319 C 0.53358 0.93929 0.47357 0.0
C320 C 0.46022 0.89178 0.46001 0.0
C321 C 0.42325 0.79842 0.47097 0.0
H322 H 0.30807 0.77441 0.46961 0.0
C323 C 0.26369 0.65303 0.48476 0.0
C324 C 0.22701 0.64147 0.47219 0.0
C325 C 0.3019 0.68894 0.48383 0.0
C326 C 0.33999 0.78065 0.46973 0.0
H327 H 0.56027 0.92026 0.49464 0.0
H328 H 0.49603 0.85681 0.49307 0.0
H329 H 0.37285 0.83773 0.47027 0.0
H330 H 0.20189 0.65778 0.44823 0.0
H331 H 0.26855 0.72061 0.44663 0.0
H332 H 0.39012 0.74115 0.47081 0.0
C333 C 0.49589 0.87629 0.48381 0.0
C334 C 0.37722 0.81701 0.47008 0.0
C335 C 0.5327 0.9128 0.48482 0.0
C336 C 0.22958 0.66616 0.45826 0.0
C337 C 0.26765 0.70212 0.45742 0.0
C338 C 0.38598 0.76202 0.47074 0.0
C339 C 0.45905 0.86527 0.47144 0.0
C340 C 0.41939 0.82643 0.47073 0.0
C341 C 0.30413 0.71404 0.47034 0.0
C342 C 0.3439 0.7527 0.47015 0.0
H343 H 0.49656 0.94794 0.45213 0.0
H344 H 0.43283 0.88431 0.45004 0.0
H345 H 0.45512 0.80457 0.47111 0.0
H346 H 0.26248 0.63436 0.49553 0.0
H347 H 0.32928 0.69728 0.49409 0.0
C348 C 0.59725 0.28979 0.85366 0.0
C349 C 0.59671 0.31011 0.83743 0.0
C350 C 0.6021 0.26326 0.84934 0.0
C351 C 0.63743 0.23136 0.80848 0.0
H352 H 0.56433 0.14009 0.83823 0.0
C353 C 0.61296 0.10187 0.78273 0.0
C354 C 0.61081 0.07962 0.79845 0.0
C355 C 0.61438 0.13151 0.78788 0.0
C356 C 0.58542 0.16557 0.82997 0.0
H357 H 0.60101 0.3185 0.80393 0.0
H358 H 0.6092 0.2721 0.79638 0.0
H359 H 0.56112 0.18898 0.8465 0.0
H360 H 0.61031 0.07155 0.83183 0.0
H361 H 0.6129 0.12342 0.84092 0.0
H362 H 0.66124 0.20763 0.79175 0.0
C363 C 0.60659 0.27706 0.81249 0.0
C364 C 0.58361 0.19365 0.83473 0.0
C365 C 0.60186 0.30366 0.81682 0.0
C366 C 0.61137 0.08806 0.81943 0.0
C367 C 0.61267 0.11764 0.82459 0.0
C368 C 0.63917 0.20321 0.80369 0.0
C369 C 0.60641 0.25631 0.82869 0.0
C370 C 0.60945 0.22687 0.82399 0.0
C371 C 0.61377 0.13952 0.80887 0.0
C372 C 0.61305 0.16993 0.81433 0.0
H373 H 0.59409 0.2945 0.86974 0.0
H374 H 0.60262 0.24827 0.86223 0.0
H375 H 0.65827 0.25676 0.80012 0.0
H376 H 0.61289 0.09594 0.76645 0.0
H377 H 0.61487 0.14762 0.77539 0.0
C378 C 0.6936 0.86518 0.49554 0.0
C379 C 0.67384 0.87352 0.50969 0.0
C380 C 0.68931 0.83332 0.49779 0.0
C381 C 0.62155 0.74254 0.52217 0.0
H382 H 0.72645 0.7497 0.51995 0.0
C383 C 0.62951 0.63225 0.55637 0.0
C384 C 0.65565 0.62501 0.54684 0.0
C385 C 0.62934 0.66054 0.54931 0.0
C386 C 0.69665 0.74698 0.52025 0.0
H387 H 0.633 0.85444 0.53688 0.0
H388 H 0.6255 0.79889 0.5408 0.0
H389 H 0.73041 0.80283 0.51221 0.0
H390 H 0.70108 0.64126 0.5219 0.0
H391 H 0.70001 0.69026 0.50919 0.0
H392 H 0.58773 0.6868 0.53027 0.0
C393 C 0.64429 0.81694 0.52796 0.0
C394 C 0.69897 0.77751 0.51585 0.0
C395 C 0.64892 0.84892 0.52584 0.0
C396 C 0.68049 0.64604 0.52956 0.0
C397 C 0.68024 0.67439 0.52243 0.0
C398 C 0.61915 0.71196 0.52642 0.0
C399 C 0.66478 0.80893 0.51409 0.0
C400 C 0.6616 0.77579 0.51712 0.0
C401 C 0.65507 0.68229 0.53239 0.0
C402 C 0.65682 0.71392 0.5259 0.0
H403 H 0.71328 0.88371 0.48303 0.0
H404 H 0.70523 0.82778 0.48677 0.0
H405 H 0.59203 0.74019 0.52292 0.0
H406 H 0.60937 0.61622 0.56949 0.0
H407 H 0.60991 0.66597 0.55755 0.0
C408 C 0.78906 0.55493 0.84437 0.0
C409 C 0.74626 0.52202 0.84436 0.0
C410 C 0.82559 0.55539 0.84526 0.0
C411 C 0.85962 0.49752 0.85871 0.0
H412 H 0.96634 0.57518 0.83157 0.0
C413 C 1.01527 0.50458 0.85934 0.0
C414 C 1.05448 0.53848 0.86486 0.0
C415 C 0.97718 0.50101 0.85442 0.0
C416 C 0.93687 0.55334 0.83931 0.0
H417 H 0.70875 0.46359 0.84504 0.0
H418 H 0.77223 0.46429 0.84604 0.0
H419 H 0.9011 0.57158 0.8278 0.0
H420 H 0.08483 0.59528 0.86901 0.0
H421 H 1.01915 0.58941 0.85992 0.0
H422 H 0.8957 0.47928 0.87008 0.0
C423 C 0.77774 0.48994 0.84582 0.0
C424 C 0.8993 0.55134 0.83725 0.0
C425 C 0.74112 0.4895 0.8451 0.0
C426 C 1.05524 0.56891 0.86452 0.0
C427 C 1.0175 0.56548 0.85933 0.0
C428 C 0.89715 0.49935 0.8606 0.0
C429 C 0.82067 0.52293 0.84597 0.0
C430 C 0.86015 0.52373 0.84719 0.0
C431 C 0.97761 0.53137 0.85467 0.0
C432 C 0.93652 0.52759 0.85117 0.0
H433 H 0.79453 0.58059 0.844 0.0
H434 H 0.85779 0.58143 0.84579 0.0
H435 H 0.83059 0.47609 0.86687 0.0
H436 H 1.01355 0.48059 0.85981 0.0
H437 H 0.94719 0.47438 0.85076 0.0
C438 C 0.28657 0.7254 0.17556 0.0
C439 C 0.28466 0.7015 0.16167 0.0
C440 C 0.32227 0.76225 0.17576 0.0
C441 C 0.43779 0.8277 0.15957 0.0
H442 H 0.41742 0.89802 0.16809 0.0
C443 C 0.57228 0.98278 0.14976 0.0
C444 C 0.57353 1.00537 0.16443 0.0
C445 C 0.53795 0.94548 0.14959 0.0
C446 C 0.42373 0.87872 0.16592 0.0
H447 H 0.31894 0.69778 0.13699 0.0
H448 H 0.38095 0.76227 0.13707 0.0
H449 H 0.35567 0.8337 0.16692 0.0
H450 H 0.5414 1.00672 0.19106 0.0
H451 H 0.48122 0.94154 0.19078 0.0
H452 H 0.50595 0.87299 0.15835 0.0
C453 C 0.35511 0.75237 0.14808 0.0
C454 C 0.3883 0.84178 0.16526 0.0
C455 C 0.3194 0.71539 0.14795 0.0
C456 C 0.54069 0.9899 0.17936 0.0
C457 C 0.50624 0.95266 0.17914 0.0
C458 C 0.47325 0.86472 0.16012 0.0
C459 C 0.35699 0.7763 0.16199 0.0
C460 C 0.39483 0.81573 0.1622 0.0
C461 C 0.50422 0.93004 0.16412 0.0
C462 C 0.46665 0.89065 0.16341 0.0
H463 H 0.26057 0.71566 0.18646 0.0
H464 H 0.32287 0.77965 0.18694 0.0
H465 H 0.44418 0.80844 0.15748 0.0
H466 H 0.59757 0.99412 0.13824 0.0
H467 H 0.53729 0.92886 0.13777 0.0
C468 C 0.58022 0.22664 0.46655 0.0
C469 C 0.61111 0.22243 0.47435 0.0
C470 C 0.5832 0.25699 0.47182 0.0
C471 C 0.65913 0.35013 0.49436 0.0
H472 H 0.55106 0.33564 0.50395 0.0
C473 C 0.65087 0.45737 0.5332 0.0
C474 C 0.62164 0.46238 0.52397 0.0
C475 C 0.65186 0.42962 0.52631 0.0
C476 C 0.58153 0.34023 0.50113 0.0
H477 H 0.67025 0.24782 0.49343 0.0
H478 H 0.67444 0.29989 0.50325 0.0
H479 H 0.54842 0.28451 0.49367 0.0
H480 H 0.56971 0.44165 0.50079 0.0
H481 H 0.57139 0.39329 0.48874 0.0
H482 H 0.69211 0.40587 0.50237 0.0
C483 C 0.64821 0.27998 0.49277 0.0
C484 C 0.58006 0.3109 0.49515 0.0
C485 C 0.64543 0.24975 0.48736 0.0
C486 C 0.59316 0.43887 0.50789 0.0
C487 C 0.59387 0.411 0.50113 0.0
C488 C 0.6606 0.37945 0.50054 0.0
C489 C 0.61693 0.2839 0.4852 0.0
C490 C 0.61881 0.31541 0.49158 0.0
C491 C 0.62295 0.40583 0.51037 0.0
C492 C 0.62178 0.37484 0.50389 0.0
H493 H 0.55303 0.20609 0.45669 0.0
H494 H 0.5589 0.25927 0.46537 0.0
H495 H 0.68965 0.35484 0.49149 0.0
H496 H 0.67236 0.47447 0.54601 0.0
H497 H 0.67421 0.42601 0.53392 0.0
C498 C 0.52618 0.5495 0.84186 0.0
C499 C 0.52218 0.51839 0.84758 0.0
C500 C 0.49053 0.55013 0.84328 0.0
C501 C 0.38261 0.50316 0.86899 0.0
H502 H 0.36238 0.5517 0.82664 0.0
C503 C 0.24544 0.51798 0.87731 0.0
C504 C 0.22023 0.51199 0.85932 0.0
C505 C 0.28397 0.52142 0.87597 0.0
C506 C 0.36731 0.53784 0.83859 0.0
H507 H 0.47684 0.46342 0.85918 0.0
H508 H 0.41497 0.46442 0.86148 0.0
H509 H 0.42468 0.55123 0.8239 0.0
H510 H 0.21699 0.50685 0.82571 0.0
H511 H 0.28397 0.51274 0.82328 0.0
H512 H 0.32478 0.48907 0.88344 0.0
C513 C 0.44583 0.4886 0.85615 0.0
C514 C 0.40348 0.53791 0.83713 0.0
C515 C 0.4814 0.48794 0.85468 0.0
C516 C 0.2356 0.51128 0.83986 0.0
C517 C 0.27417 0.51479 0.83849 0.0
C518 C 0.34657 0.50319 0.87048 0.0
C519 C 0.44977 0.51973 0.85052 0.0
C520 C 0.41161 0.52038 0.85225 0.0
C521 C 0.29859 0.51925 0.85657 0.0
C522 C 0.33814 0.52038 0.85526 0.0
H523 H 0.55699 0.57356 0.83636 0.0
H524 H 0.49521 0.57477 0.83901 0.0
H525 H 0.38786 0.48974 0.88111 0.0
H526 H 0.23465 0.51901 0.8925 0.0
H527 H 0.30217 0.52558 0.89022 0.0
C528 C 1.03079 0.46687 0.1705 0.0
C529 C 1.06896 0.4765 0.16102 0.0
C530 C 0.99417 0.43063 0.17225 0.0
C531 C 0.93909 0.33889 0.15141 0.0
H532 H 0.88411 0.30938 0.20539 0.0
C533 C 0.79972 0.18846 0.17343 0.0
C534 C 0.76762 0.18197 0.18693 0.0
C535 C 0.83594 0.22404 0.16866 0.0
C536 C 0.89852 0.31716 0.1901 0.0
H537 H 0.09796 0.45531 0.14548 0.0
H538 H 1.03353 0.39157 0.14861 0.0
H539 H 0.94832 0.37168 0.20005 0.0
H540 H 0.74667 0.20737 0.20493 0.0
H541 H 0.80882 0.26917 0.19621 0.0
H542 H 0.88877 0.28426 0.14141 0.0
C543 C 1.03223 0.41238 0.15461 0.0
C544 C 0.93553 0.35293 0.18708 0.0
C545 C 1.06916 0.44886 0.15291 0.0
C546 C 0.77131 0.21161 0.19475 0.0
C547 C 0.80712 0.24703 0.18984 0.0
C548 C 0.9017 0.30298 0.1544 0.0
C549 C 0.99457 0.4029 0.16458 0.0
C550 C 0.95608 0.36434 0.16768 0.0
C551 C 0.84055 0.25381 0.17718 0.0
C552 C 0.8807 0.29175 0.17376 0.0
H553 H 1.02912 0.48731 0.17682 0.0
H554 H 0.96543 0.42429 0.17969 0.0
H555 H 0.95409 0.34695 0.13625 0.0
H556 H 0.79777 0.16606 0.16729 0.0
H557 H 0.8611 0.22816 0.15896 0.0
C558 C 0.16505 0.62704 0.09198 0.0
C559 C 0.15984 0.59997 0.1047 0.0
C560 C 0.16641 0.6253 0.07024 0.0
C561 C 0.18878 0.58545 0.02877 0.0
H562 H 0.11617 0.59822 0.99373 0.0
C563 C 0.15413 0.54507 0.94159 0.0
C564 C 0.14817 0.56529 0.9277 0.0
C565 C 0.15929 0.55213 0.96304 0.0
C566 C 0.13732 0.59523 0.0032 0.0
H567 H 0.15068 0.54937 0.10472 0.0
H568 H 0.15412 0.5468 0.06693 0.0
H569 H 0.11847 0.60587 0.03139 0.0
H570 H 0.14509 0.60989 0.92521 0.0
H571 H 0.15531 0.62296 0.96252 0.0
H572 H 0.20798 0.57508 0.00068 0.0
C573 C 0.15769 0.56958 0.07369 0.0
C574 C 0.13848 0.59952 0.02481 0.0
C575 C 0.15581 0.5711 0.09534 0.0
C576 C 0.14902 0.59354 0.93561 0.0
C577 C 0.15464 0.60088 0.95701 0.0
C578 C 0.188 0.58153 0.00714 0.0
C579 C 0.16296 0.59662 0.06089 0.0
C580 C 0.16381 0.59426 0.03785 0.0
C581 C 0.15908 0.57986 0.97108 0.0
C582 C 0.16186 0.58596 -0.00595 0.0
H583 H 0.16809 0.64953 0.09881 0.0
H584 H 0.17062 0.64658 0.06075 0.0
H585 H 0.20906 0.58169 0.03842 0.0
H586 H 0.15317 0.5229 0.93594 0.0
H587 H 0.16198 0.53501 0.97336 0.0
C588 C 0.70911 0.07549 0.41132 0.0
C589 C 0.67052 0.05641 0.42276 0.0
C590 C 0.70809 0.0809 0.38991 0.0
C591 C 0.63636 0.04361 0.34343 0.0
H592 H 0.72738 0.13731 0.31962 0.0
C593 C 0.64371 0.07516 0.2547 0.0
C594 C 0.68552 0.0963 0.24596 0.0
C595 C 0.63897 0.07015 0.27635 0.0
C596 C 0.70195 0.11087 0.32597 0.0
H597 H 0.60057 0.02815 0.42095 0.0
H598 H 0.59867 0.03739 0.38326 0.0
H599 H 0.72431 0.12928 0.35733 0.0
H600 H 0.75492 0.1274 0.25298 0.0
H601 H 0.74673 0.11845 0.29052 0.0
H602 H 0.6146 0.02499 0.31199 0.0
C603 C 0.62968 0.04806 0.3909 0.0
C604 C 0.70014 0.10632 0.3476 0.0
C605 C 0.63078 0.04291 0.41244 0.0
C606 C 0.72232 0.11163 0.25926 0.0
C607 C 0.71761 0.10655 0.28081 0.0
C608 C 0.63829 0.04812 0.32172 0.0
C609 C 0.66839 0.06717 0.37943 0.0
C610 C 0.66779 0.07252 0.35656 0.0
C611 C 0.67595 0.0861 0.28967 0.0
C612 C 0.67161 0.08166 0.31273 0.0
H613 H 0.74018 0.08618 0.41891 0.0
H614 H 0.73837 0.09532 0.38147 0.0
H615 H 0.61123 0.01717 0.34989 0.0
H616 H 0.61476 0.06318 0.24484 0.0
H617 H 0.60643 0.05443 0.28267 0.0
C618 C 0.6677 0.53773 0.7776 0.0
C619 C 0.62586 0.52007 0.78575 0.0
C620 C 0.67429 0.54458 0.75612 0.0
C621 C 0.61025 0.51302 0.70589 0.0
H622 H 0.7186 0.59593 0.68252 0.0
C623 C 0.62602 0.55688 0.62011 0.0
C624 C 0.65956 0.56107 0.60896 0.0
C625 C 0.62406 0.55234 0.64173 0.0
C626 C 0.68833 0.57254 0.6889 0.0
H627 H 0.55892 0.49798 0.7784 0.0
H628 H 0.57063 0.51162 0.74133 0.0
H629 H 0.71128 0.58909 0.72046 0.0
H630 H 0.71762 0.56427 0.61155 0.0
H631 H 0.7148 0.55718 0.64976 0.0
H632 H 0.58687 0.49735 0.67431 0.0
C633 C 0.59808 0.5187 0.7511 0.0
C634 C 0.68409 0.5685 0.71062 0.0
C635 C 0.59138 0.51122 0.7724 0.0
C636 C 0.69138 0.56094 0.61985 0.0
C637 C 0.68992 0.55712 0.64161 0.0
C638 C 0.61424 0.51743 0.68428 0.0
C639 C 0.63927 0.53443 0.74251 0.0
C640 C 0.64478 0.53881 0.71942 0.0
C641 C 0.65603 0.55254 0.65269 0.0
C642 C 0.65315 0.5473 0.67559 0.0
H643 H 0.6948 0.54472 0.78765 0.0
H644 H 0.70642 0.55656 0.75015 0.0
H645 H 0.57996 0.48918 0.71193 0.0
H646 H 0.60101 0.55674 0.61203 0.0
H647 H 0.59772 0.54898 0.64994 0.0
C648 C 0.66603 0.05963 0.54536 0.0
C649 C 0.62666 0.04952 0.53625 0.0
C650 C 0.67005 0.05781 0.56701 0.0
C651 C 0.60311 0.01733 0.61489 0.0
H652 H 0.71402 0.08894 0.6431 0.0
C653 C 0.62189 0.03224 0.7046 0.0
C654 C 0.65537 0.03221 0.71348 0.0
C655 C 0.61929 0.03559 0.68301 0.0
C656 C 0.68293 0.06871 0.63538 0.0
H657 H 0.56094 0.03032 0.54251 0.0
H658 H 0.56831 0.02852 0.58024 0.0
H659 H 0.70744 0.09229 0.60531 0.0
H660 H 0.71314 0.03683 0.70694 0.0
H661 H 0.70906 0.0434 0.66915 0.0
H662 H 0.57849 0.99445 0.64515 0.0
C663 C 0.59575 0.0367 0.57078 0.0
C664 C 0.67914 0.07043 0.61371 0.0
C665 C 0.59157 0.038 0.54913 0.0
C666 C 0.6869 0.0366 0.70045 0.0
C667 C 0.68471 0.04055 0.67889 0.0
C668 C 0.60676 0.01598 0.63656 0.0
C669 C 0.63498 0.04642 0.58004 0.0
C670 C 0.63918 0.0447 0.60314 0.0
C671 C 0.65052 0.03956 0.66995 0.0
C672 C 0.6467 0.04158 0.647 0.0
H673 H 0.69373 0.06889 0.53578 0.0
H674 H 0.70054 0.06501 0.57347 0.0
H675 H 0.57208 0.99656 0.60734 0.0
H676 H 0.59703 0.02865 0.7143 0.0
H677 H 0.59278 0.03499 0.6765 0.0
C678 C 0.67141 0.52413 0.91713 0.0
C679 C 0.63894 0.51143 0.90153 0.0
C680 C 0.66125 0.50563 0.93617 0.0
C681 C 0.58328 0.41602 0.9597 0.0
H682 H 0.61475 0.46751 0.0122 0.0
C683 C 0.52971 0.38107 0.05069 0.0
C684 C 0.53467 0.35421 0.05496 0.0
C685 C 0.54524 0.401 0.03217 0.0
C686 C 0.60582 0.45283 -0.00236 0.0
H687 H 0.57032 0.47008 0.89367 0.0
H688 H 0.55292 0.43745 0.92658 0.0
H689 H 0.63746 0.50133 0.97929 0.0
H690 H 0.55937 0.32693 0.0432 0.0
H691 H 0.58592 0.36145 0.01055 0.0
H692 H 0.5514 0.36752 0.97799 0.0
C693 C 0.5862 0.46147 0.92412 0.0
C694 C 0.61909 0.47218 0.97886 0.0
C695 C 0.59618 0.48019 0.9053 0.0
C696 C 0.55521 0.34752 0.04029 0.0
C697 C 0.5702 0.36713 0.02161 0.0
C698 C 0.57055 0.39675 0.97847 0.0
C699 C 0.6186 0.47393 0.93973 0.0
C700 C 0.6074 0.45389 0.95971 0.0
C701 C 0.56556 0.39419 0.01743 0.0
C702 C 0.58118 0.4149 -0.00239 0.0
H703 H 0.70461 0.54822 0.91462 0.0
H704 H 0.68683 0.51576 0.94796 0.0
H705 H 0.5741 0.40129 0.94514 0.0
H706 H 0.51444 0.38706 0.06184 0.0
H707 H 0.54089 0.42148 0.02925 0.0
C708 C 0.18061 0.54167 0.22703 0.0
C709 C 0.18929 0.57161 0.2161 0.0
C710 C 0.17611 0.53933 0.24866 0.0
C711 C 0.15438 0.57504 0.29328 0.0
H712 H 0.20475 0.53738 0.32531 0.0
C713 C 0.15845 0.57214 0.38398 0.0
C714 C 0.14652 0.5397 0.39305 0.0
C715 C 0.16499 0.57791 0.36247 0.0
C716 C 0.19024 0.54771 0.31658 0.0
H717 H 0.19976 0.62249 0.21906 0.0
H718 H 0.1924 0.61869 0.25702 0.0
H719 H 0.21337 0.54396 0.28764 0.0
H720 H 0.13296 0.48825 0.38674 0.0
H721 H 0.14403 0.49816 0.34929 0.0
H722 H 0.13132 0.57877 0.32237 0.0
C723 C 0.18855 0.59678 0.24885 0.0
C724 C 0.19508 0.55142 0.29497 0.0
C725 C 0.19295 0.59906 0.22715 0.0
C726 C 0.14167 0.51335 0.38019 0.0
C727 C 0.14846 0.5192 0.35877 0.0
C728 C 0.14967 0.57144 0.31496 0.0
C729 C 0.18041 0.56699 0.25988 0.0
C730 C 0.17675 0.56468 0.283 0.0
C731 C 0.16016 0.55151 0.34964 0.0
C732 C 0.1671 0.55732 0.3268 0.0
H733 H 0.17728 0.51999 0.21885 0.0
H734 H 0.16897 0.51566 0.25658 0.0
H735 H 0.13951 0.58503 0.28452 0.0
H736 H 0.16217 0.59285 0.39349 0.0
H737 H 0.17428 0.60318 0.3559 0.0
loop_
_geom_bond_atom_site_label_1
_geom_bond_atom_site_label_2
_geom_bond_distance
_geom_bond_site_symmetry_2
_ccdc_geom_bond_type
La0 C2 2.928 . S
La0 O20 2.521 . S
La0 O21 2.628 . S
La0 O22 2.554 . S
La0 O23 2.757 1_455 S
La0 O24 2.470 . S
La0 O29 2.482 . S
La0 O31 2.503 1_455 S
La1 C11 2.928 . S
La1 O23 2.482 . S
La1 O25 2.503 1_655 S
La1 O26 2.521 . S
La1 O27 2.628 . S
La1 O28 2.554 . S
La1 O29 2.757 1_655 S
La1 O30 2.470 . S
C2 La0 2.928 . S
C2 C3 1.503 . S
C2 O20 1.261 . S
C2 O21 1.243 . S
C3 C2 1.503 . S
C3 C4 1.394 . S
C3 C8 1.373 . S
C4 C3 1.394 . S
C4 C5 1.380 . S
C4 H32 0.930 . S
C5 C4 1.380 . S
C5 C6 1.376 . S
C5 H33 0.930 . S
C6 C5 1.376 . S
C6 C7 1.370 . S
C7 C6 1.370 . S
C7 C8 1.396 . S
C7 H34 0.929 . S
C8 C3 1.373 . S
C8 C7 1.396 . S
C8 H35 0.929 . S
C9 O22 1.240 . S
C9 O23 1.289 1_455 S
C10 O24 1.258 . S
C10 O25 1.256 . S
C11 La1 2.928 . S
C11 C12 1.503 . S
C11 O26 1.261 . S
C11 O27 1.243 . S
C12 C11 1.503 . S
C12 C13 1.394 . S
C12 C17 1.373 . S
C13 C12 1.394 . S
C13 C14 1.380 . S
C13 H36 0.930 . S
C14 C13 1.380 . S
C14 C15 1.376 . S
C14 H37 0.930 . S
C15 C14 1.376 . S
C15 C16 1.370 . S
C16 C15 1.370 . S
C16 C17 1.396 . S
C16 H38 0.929 . S
C17 C12 1.373 . S
C17 C16 1.396 . S
C17 H39 0.929 . S
C18 O28 1.240 1_455 S
C18 O29 1.289 . S
C19 O30 1.258 . S
C19 O31 1.256 . S
O20 La0 2.521 . S
O20 C2 1.261 . S
O21 La0 2.628 . S
O21 C2 1.243 . S
O22 La0 2.554 . S
O22 C9 1.240 . S
O23 La0 2.757 1_655 S
O23 La1 2.482 . S
O23 C9 1.289 1_655 S
O24 La0 2.470 . S
O24 C10 1.258 . S
O25 La1 2.503 1_455 S
O25 C10 1.256 . S
O26 La1 2.521 . S
O26 C11 1.261 . S
O27 La1 2.628 . S
O27 C11 1.243 . S
O28 La1 2.554 . S
O28 C18 1.240 1_655 S
O29 La0 2.482 . S
O29 La1 2.757 1_455 S
O29 C18 1.289 . S
O30 La1 2.470 . S
O30 C19 1.258 . S
O31 La0 2.503 1_655 S
O31 C19 1.256 . S
H32 C4 0.930 . S
H33 C5 0.930 . S
H34 C7 0.929 . S
H35 C8 0.929 . S
H36 C13 0.930 . S
H37 C14 0.930 . S
H38 C16 0.929 . S
H39 C17 0.929 . S
La40 C42 2.928 1_545 S
La40 O60 2.521 1_545 S
La40 O61 2.628 1_545 S
La40 O62 2.554 . S
La40 O63 2.757 . S
La40 O64 2.470 1_545 S
La40 O69 2.482 . S
La40 O71 2.503 . S
La41 C51 2.928 . S
La41 O63 2.482 . S
La41 O65 2.503 1_545 S
La41 O66 2.521 . S
La41 O67 2.628 . S
La41 O68 2.554 . S
La41 O69 2.757 . S
La41 O70 2.470 . S
C42 La40 2.928 1_565 S
C42 C43 1.503 . S
C42 O60 1.261 . S
C42 O61 1.243 . S
C43 C42 1.503 . S
C43 C44 1.394 . S
C43 C48 1.373 . S
C44 C43 1.394 . S
C44 C45 1.380 . S
C44 H72 0.930 . S
C45 C44 1.380 . S
C45 C46 1.376 . S
C45 H73 0.930 . S
C46 C45 1.376 . S
C46 C47 1.370 . S
C47 C46 1.370 . S
C47 C48 1.396 . S
C47 H74 0.929 . S
C48 C43 1.373 . S
C48 C47 1.396 . S
C48 H75 0.929 . S
C49 O62 1.240 . S
C49 O63 1.289 . S
C50 O64 1.258 . S
C50 O65 1.256 . S
C51 La41 2.928 . S
C51 C52 1.503 . S
C51 O66 1.261 . S
C51 O67 1.243 . S
C52 C51 1.503 . S
C52 C53 1.394 . S
C52 C57 1.373 . S
C53 C52 1.394 . S
C53 C54 1.380 . S
C53 H76 0.930 . S
C54 C53 1.380 . S
C54 C55 1.376 . S
C54 H77 0.930 . S
C55 C54 1.376 . S
C55 C56 1.370 . S
C56 C55 1.370 . S
C56 C57 1.396 . S
C56 H78 0.929 . S
C57 C52 1.373 . S
C57 C56 1.396 . S
C57 H79 0.929 . S
C58 O68 1.240 . S
C58 O69 1.289 . S
C59 O70 1.258 . S
C59 O71 1.256 . S
O60 La40 2.521 1_565 S
O60 C42 1.261 . S
O61 La40 2.628 1_565 S
O61 C42 1.243 . S
O62 La40 2.554 . S
O62 C49 1.240 . S
O63 La40 2.757 . S
O63 La41 2.482 . S
O63 C49 1.289 . S
O64 La40 2.470 1_565 S
O64 C50 1.258 . S
O65 La41 2.503 1_565 S
O65 C50 1.256 . S
O66 La41 2.521 . S
O66 C51 1.261 . S
O67 La41 2.628 . S
O67 C51 1.243 . S
O68 La41 2.554 . S
O68 C58 1.240 . S
O69 La40 2.482 . S
O69 La41 2.757 . S
O69 C58 1.289 . S
O70 La41 2.470 . S
O70 C59 1.258 . S
O71 La40 2.503 . S
O71 C59 1.256 . S
H72 C44 0.930 . S
H73 C45 0.930 . S
H74 C47 0.929 . S
H75 C48 0.929 . S
H76 C53 0.930 . S
H77 C54 0.930 . S
H78 C56 0.929 . S
H79 C57 0.929 . S
La80 C82 2.928 . S
La80 O100 2.521 . S
La80 O101 2.628 . S
La80 O102 2.554 . S
La80 O103 2.757 . S
La80 O104 2.470 . S
La80 O109 2.482 . S
La80 O111 2.503 . S
La81 C91 2.928 . S
La81 O103 2.482 . S
La81 O105 2.503 . S
La81 O106 2.521 . S
La81 O107 2.628 . S
La81 O108 2.554 . S
La81 O109 2.757 . S
La81 O110 2.470 . S
C82 La80 2.928 . S
C82 C83 1.503 . S
C82 O100 1.261 . S
C82 O101 1.243 . S
C83 C82 1.503 . S
C83 C84 1.394 . S
C83 C88 1.373 . S
C84 C83 1.394 . S
C84 C85 1.380 . S
C84 H112 0.930 . S
C85 C84 1.380 . S
C85 C86 1.376 . S
C85 H113 0.930 . S
C86 C85 1.376 . S
C86 C87 1.370 . S
C87 C86 1.370 . S
C87 C88 1.396 . S
C87 H114 0.929 . S
C88 C83 1.373 . S
C88 C87 1.396 . S
C88 H115 0.929 . S
C89 O102 1.240 . S
C89 O103 1.289 . S
C90 O104 1.258 . S
C90 O105 1.256 . S
C91 La81 2.928 . S
C91 C92 1.503 . S
C91 O106 1.261 . S
C91 O107 1.243 . S
C92 C91 1.503 . S
C92 C93 1.394 . S
C92 C97 1.373 . S
C93 C92 1.394 . S
C93 C94 1.380 . S
C93 H116 0.930 . S
C94 C93 1.380 . S
C94 C95 1.376 . S
C94 H117 0.930 . S
C95 C94 1.376 . S
C95 C96 1.370 . S
C96 C95 1.370 . S
C96 C97 1.396 . S
C96 H118 0.929 . S
C97 C92 1.373 . S
C97 C96 1.396 . S
C97 H119 0.929 . S
C98 O108 1.240 . S
C98 O109 1.289 . S
C99 O110 1.258 . S
C99 O111 1.256 . S
O100 La80 2.521 . S
O100 C82 1.261 . S
O101 La80 2.628 . S
O101 C82 1.243 . S
O102 La80 2.554 . S
O102 C89 1.240 . S
O103 La80 2.757 . S
O103 La81 2.482 . S
O103 C89 1.289 . S
O104 La80 2.470 . S
O104 C90 1.258 . S
O105 La81 2.503 . S
O105 C90 1.256 . S
O106 La81 2.521 . S
O106 C91 1.261 . S
O107 La81 2.628 . S
O107 C91 1.243 . S
O108 La81 2.554 . S
O108 C98 1.240 . S
O109 La80 2.482 . S
O109 La81 2.757 . S
O109 C98 1.289 . S
O110 La81 2.470 . S
O110 C99 1.258 . S
O111 La80 2.503 . S
O111 C99 1.256 . S
H112 C84 0.930 . S
H113 C85 0.930 . S
H114 C87 0.929 . S
H115 C88 0.929 . S
H116 C93 0.930 . S
H117 C94 0.930 . S
H118 C96 0.929 . S
H119 C97 0.929 . S
H120 C127 0.929 . S
H121 C130 0.930 . S
H122 C132 0.929 . S
H123 C124 0.969 . S
C124 H123 0.969 . S
C124 O125 1.550 . S
C124 H126 0.973 . S
O125 C124 1.550 . S
O125 C131 1.412 . S
H126 C124 0.973 . S
C127 H120 0.929 . S
C127 C128 1.400 . S
C127 C129 1.364 . S
C128 C127 1.400 . S
C128 C132 1.377 . S
C129 C127 1.364 . S
C129 C130 1.374 1_545 S
C130 H121 0.930 . S
C130 C129 1.374 1_565 S
C130 C131 1.383 . S
C131 O125 1.412 . S
C131 C130 1.383 . S
C131 C132 1.394 1_565 S
C132 H122 0.929 . S
C132 C128 1.377 . S
C132 C131 1.394 1_545 S
H133 C140 0.929 . S
H134 C143 0.930 . S
H135 C145 0.929 . S
H136 C137 0.969 . S
C137 H136 0.969 . S
C137 O138 1.550 . S
C137 H139 0.973 . S
O138 C137 1.550 . S
O138 C144 1.412 . S
H139 C137 0.973 . S
C140 H133 0.929 . S
C140 C141 1.400 . S
C140 C142 1.364 . S
C141 C140 1.400 . S
C141 C145 1.377 . S
C142 C140 1.364 . S
C142 C143 1.374 . S
C143 H134 0.930 . S
C143 C142 1.374 . S
C143 C144 1.383 . S
C144 O138 1.412 . S
C144 C143 1.383 . S
C144 C145 1.394 . S
C145 H135 0.929 . S
C145 C141 1.377 . S
C145 C144 1.394 . S
H146 C153 0.929 . S
H147 C156 0.930 . S
H148 C158 0.929 . S
H149 C150 0.969 . S
C150 H149 0.969 . S
C150 O151 1.550 . S
C150 H152 0.973 . S
O151 C150 1.550 . S
O151 C157 1.412 . S
H152 C150 0.973 . S
C153 H146 0.929 . S
C153 C154 1.400 . S
C153 C155 1.364 . S
C154 C153 1.400 . S
C154 C158 1.377 . S
C155 C153 1.364 . S
C155 C156 1.374 . S
C156 H147 0.930 . S
C156 C155 1.374 . S
C156 C157 1.383 . S
C157 O151 1.412 . S
C157 C156 1.383 . S
C157 C158 1.394 . S
C158 H148 0.929 . S
C158 C154 1.377 . S
C158 C157 1.394 . S
H159 C166 0.929 1_655 S
H160 C169 0.930 . S
H161 C171 0.929 . S
H162 C163 0.969 . S
C163 H162 0.969 . S
C163 O164 1.550 . S
C163 H165 0.973 . S
O164 C163 1.550 . S
O164 C170 1.412 . S
H165 C163 0.973 . S
C166 H159 0.929 1_455 S
C166 C167 1.400 1_455 S
C166 C168 1.364 . S
C167 C166 1.400 1_655 S
C167 C171 1.378 1_655 S
C168 C166 1.364 . S
C168 C169 1.374 . S
C169 H160 0.930 . S
C169 C168 1.374 . S
C169 C170 1.383 . S
C170 O164 1.412 . S
C170 C169 1.383 . S
C170 C171 1.394 . S
C171 H161 0.929 . S
C171 C167 1.378 1_455 S
C171 C170 1.394 . S
H172 C179 0.929 . S
H173 C182 0.930 . S
H174 C184 0.929 . S
H175 C176 0.969 . S
C176 H175 0.969 . S
C176 O177 1.550 . S
C176 H178 0.973 . S
O177 C176 1.550 . S
O177 C183 1.412 . S
H178 C176 0.973 . S
C179 H172 0.929 . S
C179 C180 1.400 . S
C179 C181 1.364 1_565 S
C180 C179 1.400 . S
C180 C184 1.377 1_565 S
C181 C179 1.364 1_545 S
C181 C182 1.374 . S
C182 H173 0.930 . S
C182 C181 1.374 . S
C182 C183 1.383 . S
C183 O177 1.412 . S
C183 C182 1.383 . S
C183 C184 1.394 . S
C184 H174 0.929 . S
C184 C180 1.377 1_545 S
C184 C183 1.394 . S
H185 C192 0.929 . S
H186 C195 0.930 . S
H187 C197 0.929 . S
H188 C189 0.969 . S
C189 H188 0.969 . S
C189 O190 1.550 . S
C189 H191 0.973 . S
O190 C189 1.550 . S
O190 C196 1.412 . S
H191 C189 0.973 . S
C192 H185 0.929 . S
C192 C193 1.400 . S
C192 C194 1.364 . S
C193 C192 1.400 . S
C193 C197 1.377 . S
C194 C192 1.364 . S
C194 C195 1.374 . S
C195 H186 0.930 . S
C195 C194 1.374 . S
C195 C196 1.383 . S
C196 O190 1.412 . S
C196 C195 1.383 . S
C196 C197 1.394 . S
C197 H187 0.929 . S
C197 C193 1.377 . S
C197 C196 1.394 . S
C198 C199 1.349 . S
C198 C200 1.327 . S
C198 H223 0.950 . S
C199 C198 1.349 . S
C199 C215 1.349 . S
C200 C198 1.327 . S
C200 C219 1.429 . S
C200 H224 0.950 . S
C201 C218 1.574 . S
C201 C220 1.368 . S
C201 H225 0.949 . S
H202 C206 0.949 . S
C203 C204 1.349 . S
C203 C205 1.327 . S
C203 H226 0.950 . S
C204 C203 1.349 . S
C204 C216 1.349 . S
C205 C203 1.327 . S
C205 C221 1.429 . S
C205 H227 0.950 . S
C206 H202 0.949 . S
C206 C214 1.574 . S
C206 C222 1.368 . S
H207 C215 0.950 . S
H208 C213 0.950 . S
H209 C214 0.949 . S
H210 C216 0.950 . S
H211 C217 0.950 . S
H212 C218 0.949 . S
C213 H208 0.950 . S
C213 C215 1.327 . S
C213 C219 1.429 . S
C214 C206 1.574 . S
C214 H209 0.949 . S
C214 C220 1.368 . S
C215 C199 1.349 . S
C215 H207 0.950 . S
C215 C213 1.327 . S
C216 C204 1.349 . S
C216 H210 0.950 . S
C216 C217 1.327 . S
C217 H211 0.950 . S
C217 C216 1.327 . S
C217 C221 1.429 . S
C218 C201 1.574 . S
C218 H212 0.949 . S
C218 C222 1.368 . S
C219 C200 1.429 . S
C219 C213 1.429 . S
C219 C220 1.523 . S
C220 C201 1.368 . S
C220 C214 1.368 . S
C220 C219 1.523 . S
C221 C205 1.429 . S
C221 C217 1.429 . S
C221 C222 1.523 . S
C222 C206 1.368 . S
C222 C218 1.368 . S
C222 C221 1.523 . S
H223 C198 0.950 . S
H224 C200 0.950 . S
H225 C201 0.949 . S
H226 C203 0.950 . S
H227 C205 0.950 . S
C228 C229 1.349 . S
C228 C230 1.327 . S
C228 H253 0.950 . S
C229 C228 1.349 . S
C229 C245 1.349 . S
C230 C228 1.327 . S
C230 C249 1.429 . S
C230 H254 0.950 . S
C231 C248 1.574 . S
C231 C250 1.368 . S
C231 H255 0.949 . S
H232 C236 0.949 . S
C233 C234 1.349 . S
C233 C235 1.327 . S
C233 H256 0.950 . S
C234 C233 1.349 . S
C234 C246 1.349 . S
C235 C233 1.327 . S
C235 C251 1.429 . S
C235 H257 0.950 . S
C236 H232 0.949 . S
C236 C244 1.574 . S
C236 C252 1.368 . S
H237 C245 0.950 . S
H238 C243 0.950 . S
H239 C244 0.949 . S
H240 C246 0.950 . S
H241 C247 0.950 . S
H242 C248 0.949 . S
C243 H238 0.950 . S
C243 C245 1.327 . S
C243 C249 1.429 . S
C244 C236 1.574 . S
C244 H239 0.949 . S
C244 C250 1.368 . S
C245 C229 1.349 . S
C245 H237 0.950 . S
C245 C243 1.327 . S
C246 C234 1.349 . S
C246 H240 0.950 . S
C246 C247 1.327 . S
C247 H241 0.950 . S
C247 C246 1.327 . S
C247 C251 1.429 . S
C248 C231 1.574 . S
C248 H242 0.949 . S
C248 C252 1.368 . S
C249 C230 1.429 . S
C249 C243 1.429 . S
C249 C250 1.523 . S
C250 C231 1.368 . S
C250 C244 1.368 . S
C250 C249 1.523 . S
C251 C235 1.429 . S
C251 C247 1.429 . S
C251 C252 1.523 . S
C252 C236 1.368 . S
C252 C248 1.368 . S
C252 C251 1.523 . S
H253 C228 0.950 . S
H254 C230 0.950 . S
H255 C231 0.949 . S
H256 C233 0.950 . S
H257 C235 0.950 . S
C258 C259 1.349 . S
C258 C260 1.327 . S
C258 H283 0.950 . S
C259 C258 1.349 . S
C259 C275 1.349 . S
C260 C258 1.327 . S
C260 C279 1.429 . S
C260 H284 0.950 . S
C261 C278 1.574 . S
C261 C280 1.368 . S
C261 H285 0.949 . S
H262 C266 0.949 . S
C263 C264 1.349 . S
C263 C265 1.327 . S
C263 H286 0.950 . S
C264 C263 1.349 . S
C264 C276 1.349 . S
C265 C263 1.327 . S
C265 C281 1.429 . S
C265 H287 0.950 . S
C266 H262 0.949 . S
C266 C274 1.574 . S
C266 C282 1.368 . S
H267 C275 0.950 . S
H268 C273 0.950 . S
H269 C274 0.949 . S
H270 C276 0.950 . S
H271 C277 0.950 . S
H272 C278 0.949 . S
C273 H268 0.950 . S
C273 C275 1.327 . S
C273 C279 1.429 . S
C274 C266 1.574 . S
C274 H269 0.949 . S
C274 C280 1.368 . S
C275 C259 1.349 . S
C275 H267 0.950 . S
C275 C273 1.327 . S
C276 C264 1.349 . S
C276 H270 0.950 . S
C276 C277 1.327 . S
C277 H271 0.950 . S
C277 C276 1.327 . S
C277 C281 1.429 . S
C278 C261 1.574 . S
C278 H272 0.949 . S
C278 C282 1.368 . S
C279 C260 1.429 . S
C279 C273 1.429 . S
C279 C280 1.523 . S
C280 C261 1.368 . S
C280 C274 1.368 . S
C280 C279 1.523 . S
C281 C265 1.429 . S
C281 C277 1.429 . S
C281 C282 1.523 . S
C282 C266 1.368 . S
C282 C278 1.368 . S
C282 C281 1.523 . S
H283 C258 0.950 . S
H284 C260 0.950 . S
H285 C261 0.949 . S
H286 C263 0.950 . S
H287 C265 0.950 . S
C288 C289 1.349 . S
C288 C290 1.327 . S
C288 H313 0.950 . S
C289 C288 1.349 . S
C289 C305 1.349 . S
C290 C288 1.327 . S
C290 C309 1.429 . S
C290 H314 0.950 . S
C291 C308 1.574 . S
C291 C310 1.368 . S
C291 H315 0.949 . S
H292 C296 0.949 . S
C293 C294 1.349 . S
C293 C295 1.327 . S
C293 H316 0.950 . S
C294 C293 1.349 . S
C294 C306 1.349 . S
C295 C293 1.327 . S
C295 C311 1.429 . S
C295 H317 0.950 . S
C296 H292 0.949 . S
C296 C304 1.574 . S
C296 C312 1.368 . S
H297 C305 0.950 . S
H298 C303 0.950 . S
H299 C304 0.949 . S
H300 C306 0.950 . S
H301 C307 0.950 . S
H302 C308 0.949 . S
C303 H298 0.950 . S
C303 C305 1.327 . S
C303 C309 1.429 . S
C304 C296 1.574 . S
C304 H299 0.949 . S
C304 C310 1.368 . S
C305 C289 1.349 . S
C305 H297 0.950 . S
C305 C303 1.327 . S
C306 C294 1.349 . S
C306 H300 0.950 . S
C306 C307 1.327 . S
C307 H301 0.950 . S
C307 C306 1.327 . S
C307 C311 1.429 . S
C308 C291 1.574 . S
C308 H302 0.949 . S
C308 C312 1.368 . S
C309 C290 1.429 . S
C309 C303 1.429 . S
C309 C310 1.523 . S
C310 C291 1.368 . S
C310 C304 1.368 . S
C310 C309 1.523 . S
C311 C295 1.429 . S
C311 C307 1.429 . S
C311 C312 1.523 . S
C312 C296 1.368 . S
C312 C308 1.368 . S
C312 C311 1.523 . S
H313 C288 0.950 . S
H314 C290 0.950 . S
H315 C291 0.949 . S
H316 C293 0.950 . S
H317 C295 0.950 . S
C318 C319 1.349 . S
C318 C320 1.327 . S
C318 H343 0.950 . S
C319 C318 1.349 . S
C319 C335 1.349 . S
C320 C318 1.327 . S
C320 C339 1.429 . S
C320 H344 0.950 . S
C321 C338 1.574 . S
C321 C340 1.368 . S
C321 H345 0.949 . S
H322 C326 0.949 . S
C323 C324 1.349 . S
C323 C325 1.327 . S
C323 H346 0.950 . S
C324 C323 1.349 . S
C324 C336 1.349 . S
C325 C323 1.327 . S
C325 C341 1.429 . S
C325 H347 0.950 . S
C326 H322 0.949 . S
C326 C334 1.574 . S
C326 C342 1.368 . S
H327 C335 0.950 . S
H328 C333 0.950 . S
H329 C334 0.949 . S
H330 C336 0.950 . S
H331 C337 0.950 . S
H332 C338 0.949 . S
C333 H328 0.950 . S
C333 C335 1.327 . S
C333 C339 1.429 . S
C334 C326 1.574 . S
C334 H329 0.949 . S
C334 C340 1.368 . S
C335 C319 1.349 . S
C335 H327 0.950 . S
C335 C333 1.327 . S
C336 C324 1.349 . S
C336 H330 0.950 . S
C336 C337 1.327 . S
C337 H331 0.950 . S
C337 C336 1.327 . S
C337 C341 1.429 . S
C338 C321 1.574 . S
C338 H332 0.949 . S
C338 C342 1.368 . S
C339 C320 1.429 . S
C339 C333 1.429 . S
C339 C340 1.523 . S
C340 C321 1.368 . S
C340 C334 1.368 . S
C340 C339 1.523 . S
C341 C325 1.429 . S
C341 C337 1.429 . S
C341 C342 1.523 . S
C342 C326 1.368 . S
C342 C338 1.368 . S
C342 C341 1.523 . S
H343 C318 0.950 . S
H344 C320 0.950 . S
H345 C321 0.949 . S
H346 C323 0.950 . S
H347 C325 0.950 . S
C348 C349 1.349 . S
C348 C350 1.327 . S
C348 H373 0.950 . S
C349 C348 1.349 . S
C349 C365 1.349 . S
C350 C348 1.327 . S
C350 C369 1.429 . S
C350 H374 0.950 . S
C351 C368 1.574 . S
C351 C370 1.368 . S
C351 H375 0.949 . S
H352 C356 0.949 . S
C353 C354 1.349 . S
C353 C355 1.327 . S
C353 H376 0.950 . S
C354 C353 1.349 . S
C354 C366 1.349 . S
C355 C353 1.327 . S
C355 C371 1.429 . S
C355 H377 0.950 . S
C356 H352 0.949 . S
C356 C364 1.574 . S
C356 C372 1.368 . S
H357 C365 0.950 . S
H358 C363 0.950 . S
H359 C364 0.949 . S
H360 C366 0.950 . S
H361 C367 0.950 . S
H362 C368 0.949 . S
C363 H358 0.950 . S
C363 C365 1.327 . S
C363 C369 1.429 . S
C364 C356 1.574 . S
C364 H359 0.949 . S
C364 C370 1.368 . S
C365 C349 1.349 . S
C365 H357 0.950 . S
C365 C363 1.327 . S
C366 C354 1.349 . S
C366 H360 0.950 . S
C366 C367 1.327 . S
C367 H361 0.950 . S
C367 C366 1.327 . S
C367 C371 1.429 . S
C368 C351 1.574 . S
C368 H362 0.949 . S
C368 C372 1.368 . S
C369 C350 1.429 . S
C369 C363 1.429 . S
C369 C370 1.523 . S
C370 C351 1.368 . S
C370 C364 1.368 . S
C370 C369 1.523 . S
C371 C355 1.429 . S
C371 C367 1.429 . S
C371 C372 1.523 . S
C372 C356 1.368 . S
C372 C368 1.368 . S
C372 C371 1.523 . S
H373 C348 0.950 . S
H374 C350 0.950 . S
H375 C351 0.949 . S
H376 C353 0.950 . S
H377 C355 0.950 . S
C378 C379 1.349 . S
C378 C380 1.327 . S
C378 H403 0.950 . S
C379 C378 1.349 . S
C379 C395 1.349 . S
C380 C378 1.327 . S
C380 C399 1.429 . S
C380 H404 0.950 . S
C381 C398 1.574 . S
C381 C400 1.368 . S
C381 H405 0.949 . S
H382 C386 0.949 . S
C383 C384 1.349 . S
C383 C385 1.327 . S
C383 H406 0.950 . S
C384 C383 1.349 . S
C384 C396 1.349 . S
C385 C383 1.327 . S
C385 C401 1.429 . S
C385 H407 0.950 . S
C386 H382 0.949 . S
C386 C394 1.574 . S
C386 C402 1.368 . S
H387 C395 0.950 . S
H388 C393 0.950 . S
H389 C394 0.949 . S
H390 C396 0.950 . S
H391 C397 0.950 . S
H392 C398 0.949 . S
C393 H388 0.950 . S
C393 C395 1.327 . S
C393 C399 1.429 . S
C394 C386 1.574 . S
C394 H389 0.949 . S
C394 C400 1.368 . S
C395 C379 1.349 . S
C395 H387 0.950 . S
C395 C393 1.327 . S
C396 C384 1.349 . S
C396 H390 0.950 . S
C396 C397 1.327 . S
C397 H391 0.950 . S
C397 C396 1.327 . S
C397 C401 1.429 . S
C398 C381 1.574 . S
C398 H392 0.949 . S
C398 C402 1.368 . S
C399 C380 1.429 . S
C399 C393 1.429 . S
C399 C400 1.523 . S
C400 C381 1.368 . S
C400 C394 1.368 . S
C400 C399 1.523 . S
C401 C385 1.429 . S
C401 C397 1.429 . S
C401 C402 1.523 . S
C402 C386 1.368 . S
C402 C398 1.368 . S
C402 C401 1.523 . S
H403 C378 0.950 . S
H404 C380 0.950 . S
H405 C381 0.949 . S
H406 C383 0.950 . S
H407 C385 0.950 . S
C408 C409 1.349 . S
C408 C410 1.327 . S
C408 H433 0.950 . S
C409 C408 1.349 . S
C409 C425 1.349 . S
C410 C408 1.327 . S
C410 C429 1.429 . S
C410 H434 0.950 . S
C411 C428 1.574 . S
C411 C430 1.368 . S
C411 H435 0.949 . S
H412 C416 0.949 . S
C413 C414 1.349 . S
C413 C415 1.327 . S
C413 H436 0.950 . S
C414 C413 1.349 . S
C414 C426 1.349 . S
C415 C413 1.327 . S
C415 C431 1.429 . S
C415 H437 0.950 . S
C416 H412 0.949 . S
C416 C424 1.574 . S
C416 C432 1.368 . S
H417 C425 0.950 . S
H418 C423 0.950 . S
H419 C424 0.949 . S
H420 C426 0.950 . S
H421 C427 0.950 . S
H422 C428 0.949 . S
C423 H418 0.950 . S
C423 C425 1.327 . S
C423 C429 1.429 . S
C424 C416 1.574 . S
C424 H419 0.949 . S
C424 C430 1.368 . S
C425 C409 1.349 . S
C425 H417 0.950 . S
C425 C423 1.327 . S
C426 C414 1.349 . S
C426 H420 0.950 . S
C426 C427 1.327 . S
C427 H421 0.950 . S
C427 C426 1.327 . S
C427 C431 1.429 . S
C428 C411 1.574 . S
C428 H422 0.949 . S
C428 C432 1.368 . S
C429 C410 1.429 . S
C429 C423 1.429 . S
C429 C430 1.523 . S
C430 C411 1.368 . S
C430 C424 1.368 . S
C430 C429 1.523 . S
C431 C415 1.429 . S
C431 C427 1.429 . S
C431 C432 1.523 . S
C432 C416 1.368 . S
C432 C428 1.368 . S
C432 C431 1.523 . S
H433 C408 0.950 . S
H434 C410 0.950 . S
H435 C411 0.949 . S
H436 C413 0.950 . S
H437 C415 0.950 . S
C438 C439 1.349 . S
C438 C440 1.327 . S
C438 H463 0.950 . S
C439 C438 1.349 . S
C439 C455 1.349 . S
C440 C438 1.327 . S
C440 C459 1.429 . S
C440 H464 0.950 . S
C441 C458 1.574 . S
C441 C460 1.368 . S
C441 H465 0.949 . S
H442 C446 0.949 . S
C443 C444 1.349 . S
C443 C445 1.327 . S
C443 H466 0.950 . S
C444 C443 1.349 . S
C444 C456 1.349 . S
C445 C443 1.327 . S
C445 C461 1.429 . S
C445 H467 0.950 . S
C446 H442 0.949 . S
C446 C454 1.574 . S
C446 C462 1.368 . S
H447 C455 0.950 . S
H448 C453 0.950 . S
H449 C454 0.949 . S
H450 C456 0.950 . S
H451 C457 0.950 . S
H452 C458 0.949 . S
C453 H448 0.950 . S
C453 C455 1.327 . S
C453 C459 1.429 . S
C454 C446 1.574 . S
C454 H449 0.949 . S
C454 C460 1.368 . S
C455 C439 1.349 . S
C455 H447 0.950 . S
C455 C453 1.327 . S
C456 C444 1.349 . S
C456 H450 0.950 . S
C456 C457 1.327 . S
C457 H451 0.950 . S
C457 C456 1.327 . S
C457 C461 1.429 . S
C458 C441 1.574 . S
C458 H452 0.949 . S
C458 C462 1.368 . S
C459 C440 1.429 . S
C459 C453 1.429 . S
C459 C460 1.523 . S
C460 C441 1.368 . S
C460 C454 1.368 . S
C460 C459 1.523 . S
C461 C445 1.429 . S
C461 C457 1.429 . S
C461 C462 1.523 . S
C462 C446 1.368 . S
C462 C458 1.368 . S
C462 C461 1.523 . S
H463 C438 0.950 . S
H464 C440 0.950 . S
H465 C441 0.949 . S
H466 C443 0.950 . S
H467 C445 0.950 . S
C468 C469 1.349 . S
C468 C470 1.327 . S
C468 H493 0.950 . S
C469 C468 1.349 . S
C469 C485 1.349 . S
C470 C468 1.327 . S
C470 C489 1.429 . S
C470 H494 0.950 . S
C471 C488 1.574 . S
C471 C490 1.368 . S
C471 H495 0.949 . S
H472 C476 0.949 . S
C473 C474 1.349 . S
C473 C475 1.327 . S
C473 H496 0.950 . S
C474 C473 1.349 . S
C474 C486 1.349 . S
C475 C473 1.327 . S
C475 C491 1.429 . S
C475 H497 0.950 . S
C476 H472 0.949 . S
C476 C484 1.574 . S
C476 C492 1.368 . S
H477 C485 0.950 . S
H478 C483 0.950 . S
H479 C484 0.949 . S
H480 C486 0.950 . S
H481 C487 0.950 . S
H482 C488 0.949 . S
C483 H478 0.950 . S
C483 C485 1.327 . S
C483 C489 1.429 . S
C484 C476 1.574 . S
C484 H479 0.949 . S
C484 C490 1.368 . S
C485 C469 1.349 . S
C485 H477 0.950 . S
C485 C483 1.327 . S
C486 C474 1.349 . S
C486 H480 0.950 . S
C486 C487 1.327 . S
C487 H481 0.950 . S
C487 C486 1.327 . S
C487 C491 1.429 . S
C488 C471 1.574 . S
C488 H482 0.949 . S
C488 C492 1.368 . S
C489 C470 1.429 . S
C489 C483 1.429 . S
C489 C490 1.523 . S
C490 C471 1.368 . S
C490 C484 1.368 . S
C490 C489 1.523 . S
C491 C475 1.429 . S
C491 C487 1.429 . S
C491 C492 1.523 . S
C492 C476 1.368 . S
C492 C488 1.368 . S
C492 C491 1.523 . S
H493 C468 0.950 . S
H494 C470 0.950 . S
H495 C471 0.949 . S
H496 C473 0.950 . S
H497 C475 0.950 . S
C498 C499 1.349 . S
C498 C500 1.327 . S
C498 H523 0.950 . S
C499 C498 1.349 . S
C499 C515 1.349 . S
C500 C498 1.327 . S
C500 C519 1.429 . S
C500 H524 0.950 . S
C501 C518 1.574 . S
C501 C520 1.368 . S
C501 H525 0.949 . S
H502 C506 0.949 . S
C503 C504 1.349 . S
C503 C505 1.327 . S
C503 H526 0.950 . S
C504 C503 1.349 . S
C504 C516 1.349 . S
C505 C503 1.327 . S
C505 C521 1.429 . S
C505 H527 0.950 . S
C506 H502 0.949 . S
C506 C514 1.574 . S
C506 C522 1.368 . S
H507 C515 0.950 . S
H508 C513 0.950 . S
H509 C514 0.949 . S
H510 C516 0.950 . S
H511 C517 0.950 . S
H512 C518 0.949 . S
C513 H508 0.950 . S
C513 C515 1.327 . S
C513 C519 1.429 . S
C514 C506 1.574 . S
C514 H509 0.949 . S
C514 C520 1.368 . S
C515 C499 1.349 . S
C515 H507 0.950 . S
C515 C513 1.327 . S
C516 C504 1.349 . S
C516 H510 0.950 . S
C516 C517 1.327 . S
C517 H511 0.950 . S
C517 C516 1.327 . S
C517 C521 1.429 . S
C518 C501 1.574 . S
C518 H512 0.949 . S
C518 C522 1.368 . S
C519 C500 1.429 . S
C519 C513 1.429 . S
C519 C520 1.523 . S
C520 C501 1.368 . S
C520 C514 1.368 . S
C520 C519 1.523 . S
C521 C505 1.429 . S
C521 C517 1.429 . S
C521 C522 1.523 . S
C522 C506 1.368 . S
C522 C518 1.368 . S
C522 C521 1.523 . S
H523 C498 0.950 . S
H524 C500 0.950 . S
H525 C501 0.949 . S
H526 C503 0.950 . S
H527 C505 0.950 . S
C528 C529 1.349 . S
C528 C530 1.327 . S
C528 H553 0.950 . S
C529 C528 1.349 . S
C529 C545 1.349 . S
C530 C528 1.327 . S
C530 C549 1.429 . S
C530 H554 0.950 . S
C531 C548 1.574 . S
C531 C550 1.368 . S
C531 H555 0.949 . S
H532 C536 0.949 . S
C533 C534 1.349 . S
C533 C535 1.327 . S
C533 H556 0.950 . S
C534 C533 1.349 . S
C534 C546 1.349 . S
C535 C533 1.327 . S
C535 C551 1.429 . S
C535 H557 0.950 . S
C536 H532 0.949 . S
C536 C544 1.574 . S
C536 C552 1.368 . S
H537 C545 0.950 . S
H538 C543 0.950 . S
H539 C544 0.949 . S
H540 C546 0.950 . S
H541 C547 0.950 . S
H542 C548 0.949 . S
C543 H538 0.950 . S
C543 C545 1.327 . S
C543 C549 1.429 . S
C544 C536 1.574 . S
C544 H539 0.949 . S
C544 C550 1.368 . S
C545 C529 1.349 . S
C545 H537 0.950 . S
C545 C543 1.327 . S
C546 C534 1.349 . S
C546 H540 0.950 . S
C546 C547 1.327 . S
C547 H541 0.950 . S
C547 C546 1.327 . S
C547 C551 1.429 . S
C548 C531 1.574 . S
C548 H542 0.949 . S
C548 C552 1.368 . S
C549 C530 1.429 . S
C549 C543 1.429 . S
C549 C550 1.523 . S
C550 C531 1.368 . S
C550 C544 1.368 . S
C550 C549 1.523 . S
C551 C535 1.429 . S
C551 C547 1.429 . S
C551 C552 1.523 . S
C552 C536 1.368 . S
C552 C548 1.368 . S
C552 C551 1.523 . S
H553 C528 0.950 . S
H554 C530 0.950 . S
H555 C531 0.949 . S
H556 C533 0.950 . S
H557 C535 0.950 . S
C558 C559 1.349 . S
C558 C560 1.327 . S
C558 H583 0.950 . S
C559 C558 1.349 . S
C559 C575 1.349 1_455 S
C560 C558 1.327 . S
C560 C579 1.429 . S
C560 H584 0.950 . S
C561 C578 1.574 1_554 S
C561 C580 1.368 . S
C561 H585 0.949 1_455 S
H562 C566 0.949 1_556 S
C563 C564 1.349 . S
C563 C565 1.327 . S
C563 H586 0.950 . S
C564 C563 1.349 . S
C564 C576 1.349 . S
C565 C563 1.327 . S
C565 C581 1.429 . S
C565 H587 0.947 1_455 S
C566 H562 0.949 1_554 S
C566 C574 1.574 . S
C566 C582 1.368 1_554 S
H567 C575 0.950 . S
H568 C573 0.950 . S
H569 C574 0.949 . S
H570 C576 0.950 . S
H571 C577 0.950 . S
H572 C578 0.949 1_655 S
C573 H568 0.950 . S
C573 C575 1.327 . S
C573 C579 1.429 1_655 S
C574 C566 1.574 . S
C574 H569 0.949 . S
C574 C580 1.368 . S
C575 C559 1.349 1_655 S
C575 H567 0.950 . S
C575 C573 1.327 . S
C576 C564 1.349 . S
C576 H570 0.950 . S
C576 C577 1.327 . S
C577 H571 0.950 . S
C577 C576 1.327 . S
C577 C581 1.429 . S
C578 C561 1.574 1_556 S
C578 H572 0.949 1_455 S
C578 C582 1.368 . S
C579 C560 1.429 . S
C579 C573 1.429 1_455 S
C579 C580 1.523 . S
C580 C561 1.368 . S
C580 C574 1.368 . S
C580 C579 1.523 . S
C581 C565 1.429 . S
C581 C577 1.429 . S
C581 C582 1.523 . S
C582 C566 1.368 1_556 S
C582 C578 1.368 . S
C582 C581 1.523 . S
H583 C558 0.950 . S
H584 C560 0.950 . S
H585 C561 0.949 1_655 S
H586 C563 0.950 . S
H587 C565 0.947 1_655 S
C588 C589 1.349 . S
C588 C590 1.327 . S
C588 H613 0.950 . S
C589 C588 1.349 . S
C589 C605 1.349 1_545 S
C590 C588 1.327 . S
C590 C609 1.429 . S
C590 H614 0.950 . S
C591 C608 1.574 . S
C591 C610 1.368 1_565 S
C591 H615 0.949 . S
H592 C596 0.949 . S
C593 C594 1.349 1_565 S
C593 C595 1.327 . S
C593 H616 0.950 . S
C594 C593 1.349 1_545 S
C594 C606 1.349 . S
C595 C593 1.327 . S
C595 C611 1.429 1_565 S
C595 H617 0.950 . S
C596 H592 0.949 . S
C596 C604 1.574 . S
C596 C612 1.368 . S
H597 C605 0.950 . S
H598 C603 0.950 . S
H599 C604 0.949 . S
H600 C606 0.950 . S
H601 C607 0.950 . S
H602 C608 0.949 . S
C603 H598 0.950 . S
C603 C605 1.327 . S
C603 C609 1.429 1_565 S
C604 C596 1.574 . S
C604 H599 0.949 . S
C604 C610 1.368 . S
C605 C589 1.349 1_565 S
C605 H597 0.950 . S
C605 C603 1.327 . S
C606 C594 1.349 . S
C606 H600 0.950 . S
C606 C607 1.327 . S
C607 H601 0.950 . S
C607 C606 1.327 . S
C607 C611 1.429 . S
C608 C591 1.574 . S
C608 H602 0.949 . S
C608 C612 1.368 1_565 S
C609 C590 1.429 . S
C609 C603 1.429 1_545 S
C609 C610 1.523 . S
C610 C591 1.368 1_545 S
C610 C604 1.368 . S
C610 C609 1.523 . S
C611 C595 1.429 1_545 S
C611 C607 1.429 . S
C611 C612 1.523 . S
C612 C596 1.368 . S
C612 C608 1.368 1_545 S
C612 C611 1.523 . S
H613 C588 0.950 . S
H614 C590 0.950 . S
H615 C591 0.949 . S
H616 C593 0.950 . S
H617 C595 0.950 . S
C618 C619 1.349 . S
C618 C620 1.327 . S
C618 H643 0.950 . S
C619 C618 1.349 . S
C619 C635 1.349 . S
C620 C618 1.327 . S
C620 C639 1.429 . S
C620 H644 0.950 . S
C621 C638 1.574 . S
C621 C640 1.368 . S
C621 H645 0.949 . S
H622 C626 0.949 . S
C623 C624 1.349 . S
C623 C625 1.327 . S
C623 H646 0.950 . S
C624 C623 1.349 . S
C624 C636 1.349 . S
C625 C623 1.327 . S
C625 C641 1.429 . S
C625 H647 0.950 . S
C626 H622 0.949 . S
C626 C634 1.574 . S
C626 C642 1.368 . S
H627 C635 0.950 . S
H628 C633 0.950 . S
H629 C634 0.949 . S
H630 C636 0.950 . S
H631 C637 0.950 . S
H632 C638 0.949 . S
C633 H628 0.950 . S
C633 C635 1.327 . S
C633 C639 1.429 . S
C634 C626 1.574 . S
C634 H629 0.949 . S
C634 C640 1.368 . S
C635 C619 1.349 . S
C635 H627 0.950 . S
C635 C633 1.327 . S
C636 C624 1.349 . S
C636 H630 0.950 . S
C636 C637 1.327 . S
C637 H631 0.950 . S
C637 C636 1.327 . S
C637 C641 1.429 . S
C638 C621 1.574 . S
C638 H632 0.949 . S
C638 C642 1.368 . S
C639 C620 1.429 . S
C639 C633 1.429 . S
C639 C640 1.523 . S
C640 C621 1.368 . S
C640 C634 1.368 . S
C640 C639 1.523 . S
C641 C625 1.429 . S
C641 C637 1.429 . S
C641 C642 1.523 . S
C642 C626 1.368 . S
C642 C638 1.368 . S
C642 C641 1.523 . S
H643 C618 0.950 . S
H644 C620 0.950 . S
H645 C621 0.949 . S
H646 C623 0.950 . S
H647 C625 0.950 . S
C648 C649 1.349 1_565 S
C648 C650 1.327 . S
C648 H673 0.950 . S
C649 C648 1.349 1_545 S
C649 C665 1.349 . S
C650 C648 1.327 . S
C650 C669 1.429 1_565 S
C650 H674 0.950 . S
C651 C668 1.574 . S
C651 C670 1.368 . S
C651 H675 0.949 . S
H652 C656 0.949 . S
C653 C654 1.349 . S
C653 C655 1.327 . S
C653 H676 0.950 . S
C654 C653 1.349 . S
C654 C666 1.349 1_545 S
C655 C653 1.327 . S
C655 C671 1.429 . S
C655 H677 0.950 . S
C656 H652 0.949 . S
C656 C664 1.574 . S
C656 C672 1.368 1_565 S
H657 C665 0.950 . S
H658 C663 0.950 . S
H659 C664 0.949 . S
H660 C666 0.950 . S
H661 C667 0.950 . S
H662 C668 0.949 . S
C663 H658 0.950 . S
C663 C665 1.327 . S
C663 C669 1.429 . S
C664 C656 1.574 . S
C664 H659 0.949 . S
C664 C670 1.368 1_565 S
C665 C649 1.349 . S
C665 H657 0.950 . S
C665 C663 1.327 . S
C666 C654 1.349 1_565 S
C666 H660 0.950 . S
C666 C667 1.327 . S
C667 H661 0.950 . S
C667 C666 1.327 . S
C667 C671 1.429 1_565 S
C668 C651 1.574 . S
C668 H662 0.949 . S
C668 C672 1.368 . S
C669 C650 1.429 1_545 S
C669 C663 1.429 . S
C669 C670 1.523 . S
C670 C651 1.368 . S
C670 C664 1.368 1_545 S
C670 C669 1.523 . S
C671 C655 1.429 . S
C671 C667 1.429 1_545 S
C671 C672 1.523 . S
C672 C656 1.368 1_545 S
C672 C668 1.368 . S
C672 C671 1.523 . S
H673 C648 0.950 . S
H674 C650 0.950 . S
H675 C651 0.949 . S
H676 C653 0.950 . S
H677 C655 0.950 . S
C678 C679 1.349 . S
C678 C680 1.327 . S
C678 H703 0.950 . S
C679 C678 1.349 . S
C679 C695 1.349 . S
C680 C678 1.327 . S
C680 C699 1.429 . S
C680 H704 0.950 . S
C681 C698 1.574 . S
C681 C700 1.368 . S
C681 H705 0.949 . S
H682 C686 0.949 1_554 S
C683 C684 1.349 . S
C683 C685 1.327 . S
C683 H706 0.950 . S
C684 C683 1.349 . S
C684 C696 1.349 . S
C685 C683 1.327 . S
C685 C701 1.429 . S
C685 H707 0.950 . S
C686 H682 0.949 1_556 S
C686 C694 1.574 . S
C686 C702 1.368 1_556 S
H687 C695 0.950 . S
H688 C693 0.950 . S
H689 C694 0.949 . S
H690 C696 0.950 . S
H691 C697 0.950 . S
H692 C698 0.949 1_554 S
C693 H688 0.950 . S
C693 C695 1.327 . S
C693 C699 1.429 . S
C694 C686 1.574 . S
C694 H689 0.949 . S
C694 C700 1.368 . S
C695 C679 1.349 . S
C695 H687 0.950 . S
C695 C693 1.327 . S
C696 C684 1.349 . S
C696 H690 0.950 . S
C696 C697 1.327 . S
C697 H691 0.950 . S
C697 C696 1.327 . S
C697 C701 1.429 . S
C698 C681 1.574 . S
C698 H692 0.949 1_556 S
C698 C702 1.368 1_556 S
C699 C680 1.429 . S
C699 C693 1.429 . S
C699 C700 1.523 . S
C700 C681 1.368 . S
C700 C694 1.368 . S
C700 C699 1.523 . S
C701 C685 1.429 . S
C701 C697 1.429 . S
C701 C702 1.523 . S
C702 C686 1.368 1_554 S
C702 C698 1.368 1_554 S
C702 C701 1.523 . S
H703 C678 0.950 . S
H704 C680 0.950 . S
H705 C681 0.949 . S
H706 C683 0.950 . S
H707 C685 0.950 . S
C708 C709 1.349 1_455 S
C708 C710 1.327 . S
C708 H733 0.950 . S
C709 C708 1.349 1_655 S
C709 C725 1.349 . S
C710 C708 1.327 . S
C710 C729 1.429 . S
C710 H734 0.950 . S
C711 C728 1.574 . S
C711 C730 1.368 . S
C711 H735 0.949 1_455 S
H712 C716 0.949 . S
C713 C714 1.349 . S
C713 C715 1.327 . S
C713 H736 0.950 . S
C714 C713 1.349 . S
C714 C726 1.349 . S
C715 C713 1.327 . S
C715 C731 1.429 . S
C715 H737 0.950 . S
C716 H712 0.949 . S
C716 C724 1.574 . S
C716 C732 1.368 . S
H717 C725 0.950 . S
H718 C723 0.950 . S
H719 C724 0.949 . S
H720 C726 0.950 . S
H721 C727 0.950 . S
H722 C728 0.949 . S
C723 H718 0.950 . S
C723 C725 1.327 . S
C723 C729 1.429 1_655 S
C724 C716 1.574 . S
C724 H719 0.949 . S
C724 C730 1.368 . S
C725 C709 1.349 . S
C725 H717 0.950 . S
C725 C723 1.327 . S
C726 C714 1.349 . S
C726 H720 0.950 . S
C726 C727 1.327 . S
C727 H721 0.950 . S
C727 C726 1.327 . S
C727 C731 1.429 . S
C728 C711 1.574 . S
C728 H722 0.949 . S
C728 C732 1.368 . S
C729 C710 1.429 . S
C729 C723 1.429 1_455 S
C729 C730 1.523 . S
C730 C711 1.368 . S
C730 C724 1.368 . S
C730 C729 1.523 . S
C731 C715 1.429 . S
C731 C727 1.429 . S
C731 C732 1.523 . S
C732 C716 1.368 . S
C732 C728 1.368 . S
C732 C731 1.523 . S
H733 C708 0.950 . S
H734 C710 0.950 . S
H735 C711 0.949 1_655 S
H736 C713 0.950 . S
H737 C715 0.950 . S
C199 C6 0.454 . S
C204 C189 0.534 . S
C229 C59 1.783 . S
C234 C167 1.763 . S
C259 C86 1.096 . S
C264 C180 1.092 . S
C289 C15 0.279 . S
C294 C193 0.173 . S
C324 C163 1.865 . S
C319 C50 1.990 . S
C354 C176 1.230 . S
C349 C95 1.301 . S
C379 C46 1.038 . S
C384 C141 1.032 . S
C409 C99 2.999 . S
C414 C154 2.971 1_655 S
C439 C10 1.987 . S
C444 C124 1.865 . S
C474 C137 1.250 . S
C469 C55 1.313 . S
C504 C150 2.888 . S
C499 C90 3.036 . S
C529 C19 1.787 . S
C534 C128 1.777 . S
C564 C155 1.739 . S
C559 C18 1.688 . S
C589 C49 1.461 . S
C594 C129 1.499 . S
C619 C98 1.508 . S
C624 C142 1.605 . S
C654 C181 1.548 . S
C649 C58 1.468 . S
C684 C194 1.344 . S
C679 C89 1.324 . S
C709 C9 1.434 1_655 S
C714 C168 1.490 . S
