# Generated by pormake.
# Topology anh, (6,3)-cn, num edge types: 1
# Building blocks:
#     Node 0, Type 0, BuildingBlock: BETFEN_clean_sbu_0, # of connection points: 6
#     Node 1, Type 0, BuildingBlock: BETFEN_clean_sbu_0, # of connection points: 6
#     Node 2, Type 0, BuildingBlock: BETFEN_clean_sbu_0, # of connection points: 6
#     Node 3, Type 1, BuildingBlock: PAMTOO_clean_linker_0, # of connection points: 3
#     Node 4, Type 1, BuildingBlock: PAMTOO_clean_linker_0, # of connection points: 3
#     Node 5, Type 1, BuildingBlock: PAMTOO_clean_linker_0, # of connection points: 3
#     Node 6, Type 1, BuildingBlock: PAMTOO_clean_linker_0, # of connection points: 3
#     Node 7, Type 1, BuildingBlock: PAMTOO_clean_linker_0, # of connection points: 3
#     Node 8, Type 1, BuildingBlock: PAMTOO_clean_linker_0, # of connection points: 3
#     Edge 9, Type (0, 1), BuildingBlock: UVAHIK_clean_linker_0, # of connection points: 2
#     Edge 10, Type (0, 1), BuildingBlock: UVAHIK_clean_linker_0, # of connection points: 2
#     Edge 11, Type (0, 1), BuildingBlock: UVAHIK_clean_linker_0, # of connection points: 2
#     Edge 12, Type (0, 1), BuildingBlock: UVAHIK_clean_linker_0, # of connection points: 2
#     Edge 13, Type (0, 1), BuildingBlock: UVAHIK_clean_linker_0, # of connection points: 2
#     Edge 14, Type (0, 1), BuildingBlock: UVAHIK_clean_linker_0, # of connection points: 2
#     Edge 15, Type (0, 1), BuildingBlock: UVAHIK_clean_linker_0, # of connection points: 2
#     Edge 16, Type (0, 1), BuildingBlock: UVAHIK_clean_linker_0, # of connection points: 2
#     Edge 17, Type (0, 1), BuildingBlock: UVAHIK_clean_linker_0, # of connection points: 2
#     Edge 18, Type (0, 1), BuildingBlock: UVAHIK_clean_linker_0, # of connection points: 2
#     Edge 19, Type (0, 1), BuildingBlock: UVAHIK_clean_linker_0, # of connection points: 2
#     Edge 20, Type (0, 1), BuildingBlock: UVAHIK_clean_linker_0, # of connection points: 2
#     Edge 21, Type (0, 1), BuildingBlock: UVAHIK_clean_linker_0, # of connection points: 2
#     Edge 22, Type (0, 1), BuildingBlock: UVAHIK_clean_linker_0, # of connection points: 2
#     Edge 23, Type (0, 1), BuildingBlock: UVAHIK_clean_linker_0, # of connection points: 2
#     Edge 24, Type (0, 1), BuildingBlock: UVAHIK_clean_linker_0, # of connection points: 2
#     Edge 25, Type (0, 1), BuildingBlock: UVAHIK_clean_linker_0, # of connection points: 2
#     Edge 26, Type (0, 1), BuildingBlock: UVAHIK_clean_linker_0, # of connection points: 2
# Relax obj value: 0.129
# Max RMSD: 0.164
# Mean RMSD: 0.113
data_MOF--net-anh--node1-BETFEN_clean_sbu_0--node2-PAMTOO_clean_linker_0--edge1-UVAHIK_clean_linker_0
_symmetry_space_group_name_H-M    P1
_symmetry_Int_Tables_number       1
_symmetry_cell_setting            triclinic
loop_
_symmetry_equiv_pos_as_xyz
'x, y, z'
_cell_length_a     38.541476
_cell_length_b     39.663491
_cell_length_c     63.765587
_cell_angle_alpha  86.647368
_cell_angle_beta   93.720013
_cell_angle_gamma 105.67761
loop_
_atom_site_label
_atom_site_type_symbol
_atom_site_fract_x
_atom_site_fract_y
_atom_site_fract_z
_atom_type_partial_charge
Pr0 Pr 0.08097 0.54388 0.16008 0.0
Pr1 Pr 0.10731 0.62607 0.14338 0.0
C2 C 0.05675 0.4862 0.18484 0.0
C3 C 1.02417 0.45668 0.18601 0.0
C4 C 1.00116 0.44672 0.16815 0.0
C5 C 0.96954 0.41938 0.16972 0.0
C6 C 0.96028 0.40184 0.18922 0.0
C7 C 0.98358 0.41191 0.20702 0.0
C8 C 1.01523 0.43908 0.2054 0.0
C9 C 0.07249 0.55059 0.11599 0.0
C10 C 1.02074 0.58941 0.14726 0.0
C11 C 0.13744 0.68881 0.12456 0.0
C12 C 0.16866 0.71848 0.12959 0.0
C13 C 0.18199 0.72389 0.15047 0.0
C14 C 0.2119 0.75185 0.1552 0.0
C15 C 0.22933 0.7748 0.13911 0.0
C16 C 0.2159 0.7691 0.11816 0.0
C17 C 0.18581 0.74118 0.11347 0.0
C18 C 0.10419 0.61337 0.18684 0.0
C19 C 0.16774 0.57793 0.15103 0.0
O20 O 0.05268 0.51692 0.18888 0.0
O21 O 0.07731 0.48716 0.16907 0.0
O22 O 0.08325 0.57412 0.12896 0.0
O23 O 0.06434 0.52028 0.12612 0.0
O24 O 0.04482 0.61212 0.13589 0.0
O25 O 0.02969 0.56532 0.16016 0.0
O26 O 0.14487 0.65991 0.11988 0.0
O27 O 0.11034 0.68334 0.13684 0.0
O28 O 0.11447 0.59526 0.17423 0.0
O29 O 0.09815 0.64123 0.17732 0.0
O30 O 0.14352 0.55165 0.16002 0.0
O31 O 0.15994 0.6068 0.14301 0.0
H32 H 1.00745 0.46032 0.15306 0.0
H33 H 0.95197 0.41248 0.15579 0.0
H34 H 0.97742 0.39865 0.2222 0.0
H35 H 0.03263 0.44652 0.21935 0.0
H36 H 0.16922 0.7065 0.16315 0.0
H37 H 0.22109 0.75567 0.17151 0.0
H38 H 0.22892 0.78588 0.10535 0.0
H39 H 0.17605 0.7372 0.09724 0.0
Pr40 Pr 0.63755 0.07107 0.51264 0.0
Pr41 Pr 0.55131 0.04709 0.51813 0.0
C42 C 0.70517 0.10056 0.50059 0.0
C43 C 0.73059 0.13548 0.49696 0.0
C44 C 0.74277 0.15879 0.51333 0.0
C45 C 0.76798 0.19106 0.50968 0.0
C46 C 0.78136 0.20079 0.48959 0.0
C47 C 0.76882 0.1776 0.4732 0.0
C48 C 0.74383 0.14526 0.47688 0.0
C49 C 0.61412 0.05586 0.5533 0.0
C50 C 0.59221 0.13364 0.51537 0.0
C51 C 0.48651 1.02016 0.53422 0.0
C52 C 0.45592 0.98969 0.52933 0.0
C53 C 0.44756 0.97911 0.50856 0.0
C54 C 0.4199 0.94903 0.50413 0.0
C55 C 0.40021 0.92859 0.52041 0.0
C56 C 0.40859 0.93942 0.54121 0.0
C57 C 0.43619 0.96969 0.54561 0.0
C58 C 0.56542 0.04611 0.47568 0.0
C59 C 0.59757 0.98575 0.5144 0.0
O60 O 0.67738 0.09139 0.48718 0.0
O61 O 0.69753 0.0903 0.52005 0.0
O62 O 0.60068 0.07242 0.539 0.0
O63 O 0.64216 0.04748 0.54717 0.0
O64 O 0.56205 0.10881 0.51922 0.0
O65 O 0.62268 0.1258 0.51167 0.0
O66 O 0.5159 1.01276 0.54232 0.0
O67 O 0.4928 0.04623 0.52007 0.0
O68 O 0.588 0.05445 0.49085 0.0
O69 O 0.53296 1.03763 0.48234 0.0
O70 O 0.62575 1.01042 0.50757 0.0
O71 O 0.56914 0.99381 0.52142 0.0
H72 H 0.73304 0.15208 0.52899 0.0
H73 H 0.77684 0.2085 0.52257 0.0
H74 H 0.77892 0.18414 0.4576 0.0
H75 H 0.73508 0.12768 0.46403 0.0
H76 H 0.46264 0.99392 0.49572 0.0
H77 H 0.4139 0.94188 0.4879 0.0
H78 H 0.39439 0.92411 0.55418 0.0
H79 H 0.44253 0.97717 0.56178 0.0
Pr80 Pr 0.59929 0.55962 0.81246 0.0
Pr81 Pr 0.61869 0.63094 0.83281 0.0
C82 C 0.59675 0.50599 0.78806 0.0
C83 C 0.61752 0.48018 0.7876 0.0
C84 C 0.64936 0.48365 0.80026 0.0
C85 C 0.66657 0.45672 0.80183 0.0
C86 C 0.65198 0.42589 0.79087 0.0
C87 C 0.62102 0.4235 0.77739 0.0
C88 C 0.60396 0.45046 0.77579 0.0
C89 C 0.60069 0.55589 0.85623 0.0
C90 C 0.6869 0.60205 0.82405 0.0
C91 C 0.61564 0.68285 0.857 0.0
C92 C 0.58356 0.69443 0.86079 0.0
C93 C 0.55595 0.69119 0.84497 0.0
C94 C 0.52387 0.6989 0.8488 0.0
C95 C 0.51842 0.70978 0.86863 0.0
C96 C 0.54597 0.71259 0.8846 0.0
C97 C 0.57828 0.70484 0.88071 0.0
C98 C 0.61741 0.63361 0.78896 0.0
C99 C 0.53194 0.58905 0.82191 0.0
O100 O 0.61398 0.53842 0.78315 0.0
O101 O 0.577 0.50293 0.80436 0.0
O102 O 0.62331 0.57708 0.84511 0.0
O103 O 0.57715 0.5337 0.84479 0.0
O104 O 0.67657 0.6237 0.83566 0.0
O105 O 0.66325 0.57845 0.81274 0.0
O106 O 0.61477 0.65138 0.86471 0.0
O107 O 0.62703 0.68863 0.83786 0.0
O108 O 0.59448 0.61317 0.80024 0.0
O109 O 0.64163 0.65547 0.80031 0.0
O110 O 0.54256 0.5705 0.80835 0.0
O111 O 0.55556 0.60949 0.8348 0.0
H112 H 0.66012 0.50655 0.80952 0.0
H113 H 0.69046 0.45948 0.81221 0.0
H114 H 0.60859 0.3999 0.76903 0.0
H115 H 0.5793 0.44741 0.76604 0.0
H116 H 0.55905 0.68243 0.82959 0.0
H117 H 0.50369 0.69713 0.83598 0.0
H118 H 0.54254 0.72077 0.90006 0.0
H119 H 0.59894 0.70662 0.89326 0.0
H120 H 0.65786 0.12131 0.25816 0.0
H121 H 0.55956 1.04355 0.24211 0.0
H122 H 0.61846 0.10957 0.19336 0.0
H123 H 0.53667 0.0878 0.18286 0.0
C124 C 0.53075 0.06736 0.19579 0.0
O125 O 0.56191 0.0575 0.20155 0.0
H126 H 0.52132 0.07865 0.20924 0.0
C127 C 0.63805 0.10835 0.24632 0.0
C128 C 0.64194 0.11921 0.225 0.0
C129 C 0.60837 0.08136 0.25263 0.0
C130 C 0.58266 0.06443 0.23743 0.0
C131 C 0.5866 0.07438 0.21609 0.0
C132 C 0.61614 0.10169 0.20988 0.0
H133 H 0.61356 0.64174 0.56495 0.0
H134 H 0.61774 0.53453 0.5646 0.0
H135 H 0.59751 0.58904 0.50647 0.0
H136 H 0.55834 0.504 0.50948 0.0
C137 C 0.57644 0.49911 0.52293 0.0
O138 O 0.60649 0.52803 0.52415 0.0
H139 H 0.5609 0.49634 0.53734 0.0
C140 C 0.61207 0.61857 0.55631 0.0
C141 C 0.60511 0.61957 0.53449 0.0
C142 C 0.61653 0.58822 0.56727 0.0
C143 C 0.61404 0.55799 0.55622 0.0
C144 C 0.60713 0.55773 0.53433 0.0
C145 C 0.60265 0.58882 0.52336 0.0
H146 H 0.03754 0.59225 0.89142 0.0
H147 H 0.14794 0.59125 0.88631 0.0
H148 H 0.08308 0.60464 0.83058 0.0
H149 H 0.13808 0.56382 0.82271 0.0
C150 C 0.15406 0.57025 0.8378 0.0
O151 O 0.14717 0.59969 0.8453 0.0
H152 H 0.14561 0.54738 0.84908 0.0
C153 C 0.06017 0.59391 0.88178 0.0
C154 C 0.05628 0.59933 0.8599 0.0
C155 C 0.09295 0.59086 0.89142 0.0
C156 C 0.12238 0.5934 0.87903 0.0
C157 C 0.11867 0.59779 0.85709 0.0
C158 C 0.0856 0.60067 0.84751 0.0
H159 H 0.04762 0.50621 0.407 0.0
H160 H 0.12903 0.60137 0.42092 0.0
H161 H 0.07012 0.53914 0.47088 0.0
H162 H 0.09066 0.61666 0.47917 0.0
C163 C 0.11005 0.6247 0.46646 0.0
O164 O 0.12091 0.59583 0.4614 0.0
H165 H 0.09615 0.63481 0.45261 0.0
C166 C 0.0627 0.52467 0.41835 0.0
C167 C 0.05533 0.51878 0.43978 0.0
C168 C 0.089 0.55443 0.41132 0.0
C169 C 0.10854 0.57831 0.42602 0.0
C170 C 0.10183 0.5726 0.44743 0.0
C171 C 0.07539 0.5429 0.45431 0.0
H172 H 0.45526 0.9502 0.76426 0.0
H173 H 0.52043 0.05695 0.76658 0.0
H174 H 0.47235 1.00507 0.82225 0.0
H175 H 0.48734 0.08311 0.82516 0.0
C176 C 0.50218 0.08874 0.81043 0.0
O177 O 0.51608 0.06118 0.80693 0.0
H178 H 0.48279 0.09257 0.79735 0.0
C179 C 0.46631 0.97369 0.77298 0.0
C180 C 0.46058 0.97359 0.79462 0.0
C181 C 0.48726 1.00395 0.76264 0.0
C182 C 0.50311 1.03386 0.77412 0.0
C183 C 0.49801 1.03369 0.79558 0.0
C184 C 0.47622 1.00417 0.80564 0.0
H185 H 0.66411 0.59206 0.07902 0.0
H186 H 0.55172 0.58315 0.08626 0.0
H187 H 0.6238 0.58631 0.14089 0.0
H188 H 0.54326 0.54026 0.14782 0.0
C189 C 0.53246 0.55092 0.13305 0.0
O190 O 0.55666 0.58225 0.12727 0.0
H191 H 0.52923 0.53143 0.1207 0.0
C192 C 0.64202 0.59053 0.08905 0.0
C193 C 0.64855 0.59026 0.11097 0.0
C194 C 0.6073 0.58778 0.0799 0.0
C195 C 0.57864 0.58477 0.09301 0.0
C196 C 0.5845 0.58405 0.11495 0.0
C197 C 0.61938 0.58648 0.12394 0.0
C198 C 0.23016 0.60004 0.13771 0.0
C199 C 0.2054 0.57534 0.14994 0.0
C200 C 0.26551 0.59764 0.13641 0.0
C201 C 0.3227 0.53539 0.14572 0.0
H202 H 0.40105 0.62036 0.14177 0.0
C203 C 0.47308 0.53413 0.15078 0.0
C204 C 0.49563 0.55602 0.13621 0.0
C205 C 0.43796 0.53671 0.15289 0.0
C206 C 0.37944 0.59639 0.1427 0.0
H207 H 0.19882 0.52886 0.17058 0.0
H208 H 0.26066 0.52514 0.16873 0.0
H209 H 0.33965 0.62438 0.14507 0.0
H210 H 0.49829 0.5967 0.11167 0.0
H211 H 0.43718 0.60175 0.11562 0.0
H212 H 0.36278 0.50749 0.14364 0.0
C213 C 0.25255 0.54601 0.15975 0.0
C214 C 0.34412 0.59865 0.14453 0.0
C215 C 0.21704 0.54825 0.16092 0.0
C216 C 0.48199 0.58018 0.12349 0.0
C217 C 0.44696 0.58303 0.12573 0.0
C218 C 0.35807 0.53315 0.14407 0.0
C219 C 0.27731 0.57065 0.14744 0.0
C220 C 0.31516 0.56819 0.14596 0.0
C221 C 0.42445 0.56121 0.1404 0.0
C222 C 0.38687 0.56362 0.14245 0.0
H223 H 0.22217 0.62114 0.12889 0.0
H224 H 0.28342 0.61675 0.12645 0.0
H225 H 0.30118 0.51134 0.1464 0.0
H226 H 0.48259 0.51475 0.16046 0.0
H227 H 0.42141 0.51961 0.16438 0.0
C228 C 0.80579 0.25553 0.46744 0.0
C229 C 0.8087 0.23474 0.48573 0.0
C230 C 0.83207 0.28689 0.46343 0.0
C231 C 0.90758 0.35368 0.4888 0.0
H232 H 0.93587 0.37629 0.43132 0.0
C233 C 0.03113 0.46766 0.46503 0.0
C234 C 1.02632 0.48771 0.44668 0.0
C235 C 1.00439 0.43739 0.47072 0.0
C236 C 0.92804 0.37055 0.44743 0.0
H237 H 0.84151 0.23061 0.51419 0.0
H238 H 0.88766 0.28514 0.5071 0.0
H239 H 0.88983 0.32246 0.43942 0.0
H240 H 0.98876 0.4926 0.42055 0.0
H241 H 0.9425 0.43986 0.43034 0.0
H242 H 0.94632 0.40179 0.49674 0.0
C243 C 0.86472 0.27755 0.496 0.0
C244 C 0.90154 0.33969 0.45208 0.0
C245 C 0.83829 0.24625 0.50007 0.0
C246 C 0.99377 0.47732 0.4345 0.0
C247 C 0.9672 0.4471 0.44012 0.0
C248 C 0.93428 0.38454 0.48414 0.0
C249 C 0.86208 0.29816 0.47755 0.0
C250 C 0.89075 0.33093 0.47279 0.0
C251 C 0.97234 0.42651 0.45814 0.0
C252 C 0.94461 0.39343 0.46337 0.0
H253 H 0.78302 0.24767 0.45625 0.0
H254 H 0.82871 0.30241 0.44929 0.0
H255 H 0.89968 0.34799 0.50489 0.0
H256 H 0.05597 0.47478 0.47468 0.0
H257 H 1.00924 0.42196 0.48463 0.0
C258 C 0.45244 0.70504 0.86139 0.0
C259 C 0.48571 0.72163 0.87154 0.0
C260 C 0.42485 0.72187 0.85881 0.0
C261 C 0.40235 0.80527 0.86927 0.0
H262 H 0.39899 0.81552 0.8084 0.0
C263 C 0.45368 0.93332 0.82667 0.0
C264 C 0.44112 0.94106 0.80624 0.0
C265 C 0.43761 0.90193 0.83729 0.0
C266 C 0.39828 0.81259 0.82537 0.0
H267 H 0.51415 0.76657 0.88946 0.0
H268 H 0.46643 0.79568 0.88509 0.0
H269 H 0.40796 0.76219 0.82538 0.0
H270 H 0.40049 0.92217 0.78137 0.0
H271 H 0.37321 0.86618 0.79979 0.0
H272 H 0.3961 0.85728 0.86909 0.0
C273 C 0.46136 0.76974 0.87905 0.0
C274 C 0.40342 0.78182 0.8352 0.0
C275 C 0.48897 0.75304 0.88152 0.0
C276 C 0.41119 0.91684 0.79696 0.0
C277 C 0.39529 0.88499 0.80757 0.0
C278 C 0.39709 0.83602 0.85942 0.0
C279 C 0.43003 0.75547 0.86644 0.0
C280 C 0.40866 0.77918 0.85721 0.0
C281 C 0.40881 0.877 0.82772 0.0
C282 C 0.39819 0.84106 0.83743 0.0
H283 H 0.44874 0.68029 0.85407 0.0
H284 H 0.40075 0.70994 0.84934 0.0
H285 H 0.40537 0.80356 0.88628 0.0
H286 H 0.4772 0.95072 0.83419 0.0
H287 H 0.44949 0.89627 0.8525 0.0
C288 C 0.97138 0.61611 0.13259 0.0
C289 C 0.98239 0.59069 0.14566 0.0
C290 C 0.93522 0.61713 0.13118 0.0
C291 C 0.84249 0.56216 0.14032 0.0
H292 H 0.8189 0.6514 0.13637 0.0
C293 C 0.69408 0.57023 0.13528 0.0
C294 C 0.68612 0.59397 0.1197 0.0
C295 C 0.73006 0.57104 0.14109 0.0
C296 C 0.82499 0.62623 0.13735 0.0
H297 H 0.96365 0.54641 0.16756 0.0
H298 H 0.90095 0.54838 0.1652 0.0
H299 H 0.88187 0.65011 0.14067 0.0
H300 H 0.70953 0.63841 0.09894 0.0
H301 H 0.77185 0.63977 0.10893 0.0
H302 H 0.78564 0.5383 0.13668 0.0
C303 C 0.92016 0.56733 0.15584 0.0
C304 C 0.86116 0.6255 0.13976 0.0
C305 C 0.95627 0.56635 0.15728 0.0
C306 C 0.7148 0.61958 0.11088 0.0
C307 C 0.75059 0.62051 0.11673 0.0
C308 C 0.80631 0.56289 0.1379 0.0
C309 C 0.9091 0.59271 0.14277 0.0
C310 C 0.87045 0.59347 0.14104 0.0
C311 C 0.75879 0.59582 0.13159 0.0
C312 C 0.79708 0.59496 0.13611 0.0
H313 H 0.99065 0.63524 0.12336 0.0
H314 H 0.92765 0.63675 0.12072 0.0
H315 H 0.84858 0.537 0.141 0.0
H316 H 0.67255 0.55013 0.14229 0.0
H317 H 0.73538 0.5519 0.15279 0.0
C318 C 0.33928 0.8867 0.5265 0.0
C319 C 0.37139 0.89597 0.51565 0.0
C320 C 0.3121 0.85632 0.52177 0.0
C321 C 0.27726 0.79492 0.47943 0.0
H322 H 0.22739 0.73347 0.52386 0.0
C323 C 0.17315 0.66348 0.46151 0.0
C324 C 0.14221 0.6538 0.47332 0.0
C325 C 0.20208 0.6919 0.46713 0.0
C326 C 0.24073 0.75054 0.51124 0.0
H327 H 0.40031 0.87973 0.4917 0.0
H328 H 0.35271 0.82719 0.48327 0.0
H329 H 0.27568 0.78532 0.53285 0.0
H330 H 0.11665 0.66697 0.49978 0.0
H331 H 0.16676 0.71692 0.50945 0.0
H332 H 0.24203 0.76067 0.45778 0.0
C333 C 0.34843 0.84368 0.49527 0.0
C334 C 0.26846 0.78024 0.51641 0.0
C335 C 0.37568 0.87389 0.50008 0.0
C336 C 0.14052 0.67341 0.49067 0.0
C337 C 0.16933 0.70195 0.49624 0.0
C338 C 0.24939 0.76537 0.47424 0.0
C339 C 0.31627 0.83459 0.506 0.0
C340 C 0.28702 0.80279 0.50056 0.0
C341 C 0.20047 0.71167 0.48451 0.0
C342 C 0.23069 0.74278 0.49007 0.0
H343 H 0.33478 0.90327 0.53838 0.0
H344 H 0.28746 0.85026 0.53015 0.0
H345 H 0.29068 0.81204 0.46684 0.0
H346 H 0.17486 0.64915 0.44783 0.0
H347 H 0.22571 0.69833 0.45784 0.0
C348 C 0.66425 0.3708 0.77982 0.0
C349 C 0.66525 0.39433 0.79562 0.0
C350 C 0.66568 0.33657 0.78514 0.0
C351 C 0.63288 0.27545 0.82836 0.0
H352 H 0.64943 0.2091 0.79048 0.0
C353 C 0.54903 0.13221 0.83174 0.0
C354 C 0.53285 0.12119 0.81207 0.0
C355 C 0.57791 0.1623 0.8331 0.0
C356 C 0.64488 0.2273 0.80132 0.0
H357 H 0.67402 0.40199 0.82919 0.0
H358 H 0.67787 0.34274 0.83836 0.0
H359 H 0.68334 0.2707 0.78717 0.0
H360 H 0.5355 0.13085 0.7784 0.0
H361 H 0.5853 0.18401 0.78065 0.0
H362 H 0.59304 0.23274 0.84171 0.0
C363 C 0.67469 0.35034 0.82191 0.0
C364 C 0.66432 0.26253 0.79947 0.0
C365 C 0.67284 0.38448 0.8166 0.0
C366 C 0.54712 0.1395 0.79374 0.0
C367 C 0.57596 0.16952 0.79506 0.0
C368 C 0.61362 0.24032 0.83026 0.0
C369 C 0.6685 0.32535 0.80638 0.0
C370 C 0.65709 0.28731 0.81223 0.0
C371 C 0.59129 0.1816 0.81477 0.0
C372 C 0.61805 0.21625 0.81606 0.0
H373 H 0.65942 0.37796 0.76345 0.0
H374 H 0.661 0.31819 0.77269 0.0
H375 H 0.6262 0.29369 0.83836 0.0
H376 H 0.53902 0.1178 0.84605 0.0
H377 H 0.58942 0.17077 0.84848 0.0
C378 C 0.62793 0.93758 0.5084 0.0
C379 C 0.59773 0.94765 0.51446 0.0
C380 C 0.62802 0.90195 0.50868 0.0
C381 C 0.57929 0.81239 0.53092 0.0
H382 H 0.63121 0.77898 0.49019 0.0
C383 C 0.56896 0.66363 0.52796 0.0
C384 C 0.60044 0.65356 0.52464 0.0
C385 C 0.56769 0.69873 0.52469 0.0
C386 C 0.61675 0.78774 0.50184 0.0
H387 H 0.54362 0.92703 0.52535 0.0
H388 H 0.5435 0.86559 0.52553 0.0
H389 H 0.63115 0.84063 0.48889 0.0
H390 H 0.65539 0.67307 0.51523 0.0
H391 H 0.65322 0.73412 0.50915 0.0
H392 H 0.56498 0.75968 0.54392 0.0
C393 C 0.56762 0.88515 0.52092 0.0
C394 C 0.61677 0.82343 0.50113 0.0
C395 C 0.56757 0.92071 0.52068 0.0
C396 C 0.63029 0.67957 0.51723 0.0
C397 C 0.62906 0.71479 0.51393 0.0
C398 C 0.5792 0.77679 0.53159 0.0
C399 C 0.59788 0.87494 0.51501 0.0
C400 C 0.598 0.83654 0.51565 0.0
C401 C 0.59805 0.72528 0.51821 0.0
C402 C 0.59786 0.76363 0.51706 0.0
H403 H 0.65179 0.95728 0.50355 0.0
H404 H 0.65214 0.89573 0.50426 0.0
H405 H 0.56512 0.82105 0.54275 0.0
H406 H 0.54581 0.64456 0.53421 0.0
H407 H 0.54301 0.70516 0.52783 0.0
C408 C 0.73782 0.58056 0.81208 0.0
C409 C 0.72584 0.6035 0.82407 0.0
C410 C 0.77447 0.58155 0.81248 0.0
C411 C 0.866 0.63798 0.82692 0.0
H412 H 0.89302 0.55039 0.83105 0.0
C413 C 1.0055 0.62741 0.85935 0.0
C414 C 1.02147 0.60397 0.85055 0.0
C415 C 0.97083 0.62914 0.85257 0.0
C416 C 0.88598 0.5751 0.82952 0.0
H417 H 0.74325 0.64562 0.84582 0.0
H418 H 0.80679 0.64702 0.84672 0.0
H419 H 0.82946 0.54956 0.82632 0.0
H420 H 1.01421 0.56477 0.82724 0.0
H421 H 0.95315 0.56771 0.81529 0.0
H422 H 0.92246 0.66345 0.83071 0.0
C423 C 0.78802 0.6286 0.83673 0.0
C424 C 0.8495 0.57464 0.82683 0.0
C425 C 0.75144 0.62762 0.83633 0.0
C426 C 1.00255 0.58317 0.83422 0.0
C427 C 0.96755 0.58465 0.82754 0.0
C428 C 0.90242 0.63842 0.82967 0.0
C429 C 0.80005 0.60554 0.82486 0.0
C430 C 0.83899 0.60606 0.82591 0.0
C431 C 0.95109 0.60731 0.83688 0.0
C432 C 0.91283 0.60698 0.83141 0.0
H433 H 0.71891 0.56169 0.8024 0.0
H434 H 0.78278 0.56364 0.80298 0.0
H435 H 0.859 0.66271 0.8258 0.0
H436 H 1.01957 0.64388 0.87189 0.0
H437 H 0.95893 0.64663 0.86027 0.0
C438 C 0.26619 0.8373 0.13343 0.0
C439 C 0.26133 0.8045 0.14421 0.0
C440 C 0.29592 0.8653 0.13852 0.0
C441 C 0.36257 0.89801 0.18163 0.0
H442 H 0.41677 0.95733 0.13783 0.0
C443 C 0.49455 1.00421 0.20084 0.0
C444 C 0.50105 1.03602 0.18894 0.0
C445 C 0.46594 0.97566 0.19505 0.0
C446 C 0.40168 0.94132 0.15027 0.0
H447 H 0.28471 0.77538 0.16848 0.0
H448 H 0.33614 0.82434 0.17754 0.0
H449 H 0.36555 0.90835 0.12827 0.0
H450 H 0.48182 0.06348 0.16227 0.0
H451 H 0.43142 1.01393 0.15231 0.0
H452 H 0.39814 0.93115 0.20365 0.0
C453 C 0.31669 0.82845 0.1653 0.0
C454 C 0.37236 0.9132 0.14477 0.0
C455 C 0.28713 0.80041 0.16012 0.0
C456 C 0.47789 1.03899 0.17142 0.0
C457 C 0.44911 1.01052 0.1657 0.0
C458 C 0.39171 0.92626 0.18713 0.0
C459 C 0.32138 0.86124 0.15461 0.0
C460 C 0.35252 0.89118 0.16039 0.0
C461 C 0.44273 0.97846 0.17744 0.0
C462 C 0.41172 0.94828 0.17153 0.0
H463 H 0.24664 0.8416 0.12131 0.0
H464 H 0.29856 0.89036 0.13016 0.0
H465 H 0.34749 0.88184 0.19403 0.0
H466 H 0.51161 1.00144 0.21466 0.0
H467 H 0.46213 0.95134 0.20436 0.0
C468 C 0.62435 0.199 0.51366 0.0
C469 C 0.59227 0.17181 0.51577 0.0
C470 C 0.62452 0.23458 0.51429 0.0
C471 C 0.56338 0.29473 0.50841 0.0
H472 H 0.64458 0.36181 0.53468 0.0
C473 C 0.57302 0.44431 0.5027 0.0
C474 C 0.58589 0.46426 0.52055 0.0
C475 C 0.5759 0.40974 0.50181 0.0
C476 C 0.62151 0.34355 0.52734 0.0
H477 H 0.53504 0.16182 0.52022 0.0
H478 H 0.5353 0.22332 0.52129 0.0
H479 H 0.64468 0.30025 0.53413 0.0
H480 H 0.61261 0.46305 0.55134 0.0
H481 H 0.6181 0.40297 0.54979 0.0
H482 H 0.53994 0.33776 0.50186 0.0
C483 C 0.56048 0.21724 0.51896 0.0
C484 C 0.62173 0.30802 0.52682 0.0
C485 C 0.56035 0.18166 0.51846 0.0
C486 C 0.60289 0.44878 0.53722 0.0
C487 C 0.60591 0.41413 0.53631 0.0
C488 C 0.56327 0.33023 0.5088 0.0
C489 C 0.59257 0.24449 0.51691 0.0
C490 C 0.5926 0.28282 0.51738 0.0
C491 C 0.59175 0.39361 0.51875 0.0
C492 C 0.5923 0.35544 0.51827 0.0
H493 H 0.64959 0.19285 0.51156 0.0
H494 H 0.64979 0.2544 0.51238 0.0
H495 H 0.54051 0.27664 0.50077 0.0
H496 H 0.55954 0.45507 0.48959 0.0
H497 H 0.56525 0.3955 0.4878 0.0
C498 C 0.46762 0.57118 0.80728 0.0
C499 C 0.49317 0.58776 0.82275 0.0
C500 C 0.4312 0.57063 0.80811 0.0
C501 C 0.37051 0.61444 0.83268 0.0
H502 H 0.29635 0.53087 0.81721 0.0
C503 C 0.21977 0.59119 0.85049 0.0
C504 C 0.19388 0.5763 0.83473 0.0
C505 C 0.25643 0.59415 0.84832 0.0
C506 C 0.3167 0.55457 0.82136 0.0
H507 H 0.50022 0.61635 0.85143 0.0
H508 H 0.43696 0.61456 0.85315 0.0
H509 H 0.35966 0.53269 0.81479 0.0
H510 H 0.18596 0.55198 0.80463 0.0
H511 H 0.24991 0.55724 0.80075 0.0
H512 H 0.32738 0.63602 0.83959 0.0
C513 C 0.44504 0.6028 0.84003 0.0
C514 C 0.35308 0.55566 0.81993 0.0
C515 C 0.4814 0.60357 0.83912 0.0
C516 C 0.20538 0.56409 0.81687 0.0
C517 C 0.24196 0.56683 0.81474 0.0
C518 C 0.33411 0.61326 0.83422 0.0
C519 C 0.4194 0.58643 0.82451 0.0
C520 C 0.38053 0.58557 0.82562 0.0
C521 C 0.26795 0.58171 0.83049 0.0
C522 C 0.30674 0.58329 0.8286 0.0
H523 H 0.47577 0.55893 0.7944 0.0
H524 H 0.41238 0.55816 0.79572 0.0
H525 H 0.39078 0.63818 0.83683 0.0
H526 H 0.21155 0.60006 0.86465 0.0
H527 H 0.27565 0.60526 0.86089 0.0
C528 C 0.91541 0.34748 0.1762 0.0
C529 C 0.92626 0.37345 0.19117 0.0
C530 C 0.88396 0.32015 0.17856 0.0
C531 C 0.82204 0.27384 0.21934 0.0
H532 H 0.75719 0.23781 0.17187 0.0
C533 C 0.68286 0.17898 0.23125 0.0
C534 C 0.67254 0.14932 0.2189 0.0
C535 C 0.71303 0.20639 0.22662 0.0
C536 C 0.77524 0.24741 0.18524 0.0
H537 H 0.91179 0.39194 0.21983 0.0
H538 H 0.85694 0.34468 0.22384 0.0
H539 H 0.81142 0.28577 0.16616 0.0
H540 H 0.68518 0.12584 0.19151 0.0
H541 H 0.73804 0.1741 0.18332 0.0
H542 H 0.78589 0.23581 0.23844 0.0
C543 C 0.87313 0.34479 0.21056 0.0
C544 C 0.80632 0.27485 0.18198 0.0
C545 C 0.90457 0.37194 0.20826 0.0
C546 C 0.69235 0.14838 0.20128 0.0
C547 C 0.72261 0.17598 0.1966 0.0
C548 C 0.79101 0.24663 0.22259 0.0
C549 C 0.86262 0.31829 0.1959 0.0
C550 C 0.82994 0.28859 0.19904 0.0
C551 C 0.73363 0.20499 0.20947 0.0
C552 C 0.76708 0.23328 0.20563 0.0
H553 H 0.9317 0.34779 0.16294 0.0
H554 H 0.87687 0.30002 0.16708 0.0
H555 H 0.84002 0.28314 0.23278 0.0
H556 H 0.66766 0.18097 0.24461 0.0
H557 H 0.72031 0.22874 0.23656 0.0
C558 C 0.09302 0.58807 0.0839 0.0
C559 C 0.07408 0.5558 0.09296 0.0
C560 C 0.09692 0.5921 0.06217 0.0
C561 C 0.08965 0.53949 0.01465 0.0
H562 H 0.09209 0.62813 0.98488 0.0
C563 C 0.0713 0.55681 0.92436 0.0
C564 C 0.09586 0.58511 0.91451 0.0
C565 C 0.07162 0.55288 0.94627 0.0
C566 C 0.09184 0.60335 0.99306 0.0
H567 H 0.04319 0.50284 0.08653 0.0
H568 H 0.04842 0.51015 0.04855 0.0
H569 H 0.08462 0.62231 0.02272 0.0
H570 H 0.14021 0.63125 0.91959 0.0
H571 H 0.14031 0.6248 0.95816 0.0
H572 H 0.09537 0.52031 0.98467 0.0
C573 C 0.06152 0.53209 0.05816 0.0
C574 C 0.08765 0.59997 0.01477 0.0
C575 C 0.05816 0.52794 0.07991 0.0
C576 C 0.12121 0.60911 0.92689 0.0
C577 C 0.12108 0.60555 0.94886 0.0
C578 C 0.09324 0.54275 0.99291 0.0
C579 C 0.08144 0.56406 0.04899 0.0
C580 C 0.08634 0.56793 0.02587 0.0
C581 C 0.09607 0.57754 0.95872 0.0
C582 C 0.09427 0.57466 0.98191 0.0
H583 H 0.10569 0.60991 0.09366 0.0
H584 H 0.11284 0.61697 0.05582 0.0
H585 H 0.08967 0.51466 0.02265 0.0
H586 H 0.0515 0.53801 0.91508 0.0
H587 H 0.05192 0.5312 0.95348 0.0
C588 C 0.54975 1.02138 0.44045 0.0
C589 C 0.57363 1.04523 0.45355 0.0
C590 C 0.55537 1.02172 0.41904 0.0
C591 C 0.62207 0.06054 0.37802 0.0
H592 H 0.53567 1.03651 0.3413 0.0
C593 C 0.63055 0.06202 0.2878 0.0
C594 C 0.60362 0.07232 0.27525 0.0
C595 C 0.62711 0.05583 0.30948 0.0
C596 C 0.56017 1.04382 0.35121 0.0
H597 H 0.62233 0.08791 0.45488 0.0
H598 H 0.63126 0.09014 0.41719 0.0
H599 H 0.53033 1.03295 0.37889 0.0
H600 H 0.5523 0.08462 0.27526 0.0
H601 H 0.54687 0.07561 0.31312 0.0
H602 H 0.6517 0.07397 0.35019 0.0
C603 C 0.60884 0.07015 0.42342 0.0
C604 C 0.55715 1.04103 0.37297 0.0
C605 C 0.60372 0.06908 0.44503 0.0
C606 C 0.57314 0.07619 0.28464 0.0
C607 C 0.57004 0.07081 0.30636 0.0
C608 C 0.62505 0.06411 0.3562 0.0
C609 C 0.58439 0.04676 0.41004 0.0
C610 C 0.58803 0.04927 0.38676 0.0
C611 C 0.59704 0.06064 0.31915 0.0
C612 C 0.59411 0.05587 0.34245 0.0
H613 H 0.52657 1.00242 0.44677 0.0
H614 H 0.53661 1.00244 0.40956 0.0
H615 H 0.64658 0.06666 0.38799 0.0
H616 H 0.65427 0.05881 0.2808 0.0
H617 H 0.64811 0.04731 0.3186 0.0
C618 C 0.64722 0.65125 0.75475 0.0
C619 C 0.61923 0.62948 0.76623 0.0
C620 C 0.64961 0.64597 0.73343 0.0
C621 C 0.62127 0.57865 0.69366 0.0
H622 H 0.63895 0.65789 0.65354 0.0
C623 C 0.60062 0.56333 0.60355 0.0
C624 C 0.62292 0.5886 0.59045 0.0
C625 C 0.60325 0.56682 0.62536 0.0
C626 C 0.63466 0.63547 0.66454 0.0
H627 H 0.57155 0.58542 0.76443 0.0
H628 H 0.57579 0.57618 0.72731 0.0
H629 H 0.63753 0.66761 0.69078 0.0
H630 H 0.66702 0.63592 0.58986 0.0
H631 H 0.67245 0.6415 0.62788 0.0
H632 H 0.61847 0.54646 0.66746 0.0
C633 C 0.59607 0.5971 0.73477 0.0
C634 C 0.63372 0.6411 0.6859 0.0
C635 C 0.59351 0.60257 0.75599 0.0
C636 C 0.64919 0.61631 0.59961 0.0
C637 C 0.65209 0.61962 0.62138 0.0
C638 C 0.62247 0.57302 0.6723 0.0
C639 C 0.62421 0.61865 0.72326 0.0
C640 C 0.62671 0.61274 0.70068 0.0
C641 C 0.62849 0.59549 0.63451 0.0
C642 C 0.62892 0.60135 0.65742 0.0
H643 H 0.66747 0.67211 0.76228 0.0
H644 H 0.67171 0.66288 0.72499 0.0
H645 H 0.61629 0.5563 0.70474 0.0
H646 H 0.57994 0.54188 0.59684 0.0
H647 H 0.58441 0.54788 0.63492 0.0
C648 C 0.57308 0.06286 0.58033 0.0
C649 C 0.59944 0.04736 0.57433 0.0
C650 C 0.55957 0.05584 0.60037 0.0
C651 C 0.545 0.99253 0.64482 0.0
H652 H 0.54622 0.07267 0.67715 0.0
C653 C 0.51069 0.97975 0.73276 0.0
C654 C 0.49461 1.00427 0.74014 0.0
C655 C 0.52182 0.98293 0.7121 0.0
C656 C 0.54496 0.0499 0.66826 0.0
H657 H 0.63166 1.01165 0.58425 0.0
H658 H 0.60745 0.99885 0.61939 0.0
H659 H 0.56874 0.08185 0.64196 0.0
H660 H 0.47569 0.0501 0.73164 0.0
H661 H 0.4934 0.05483 0.69537 0.0
H662 H 0.52036 0.96047 0.67087 0.0
C663 C 0.59753 1.0166 0.60856 0.0
C664 C 0.55816 0.05525 0.64813 0.0
C665 C 0.61148 1.02406 0.58856 0.0
C666 C 0.48832 1.03105 0.72631 0.0
C667 C 0.49884 1.0339 0.7056 0.0
C668 C 0.53125 0.98712 0.6649 0.0
C669 C 0.57177 1.03279 0.61471 0.0
C670 C 0.55825 1.02666 0.6362 0.0
C671 C 0.51662 1.01046 0.69835 0.0
C672 C 0.53095 1.01577 0.67688 0.0
H673 H 0.56319 0.08081 0.56963 0.0
H674 H 0.53948 0.06839 0.60465 0.0
H675 H 0.54458 0.97005 0.63585 0.0
H676 H 0.51612 0.95907 0.74325 0.0
H677 H 0.53572 0.96459 0.70722 0.0
C678 C 0.62722 0.58243 0.89008 0.0
C679 C 0.59989 0.55786 0.87921 0.0
C680 C 0.62601 0.58551 0.91169 0.0
C681 C 0.56409 0.56554 0.95543 0.0
H682 H 0.65344 0.58152 0.98967 0.0
C683 C 0.57269 0.56239 0.04709 0.0
C684 C 0.6015 0.58741 0.05665 0.0
C685 C 0.57006 0.55944 0.02523 0.0
C686 C 0.6283 0.57746 0.9803 0.0
H687 H 0.54999 0.517 0.88236 0.0
H688 H 0.54816 0.52187 0.92034 0.0
H689 H 0.65403 0.57378 0.95217 0.0
H690 H 0.64857 0.63058 0.05071 0.0
H691 H 0.64398 0.62549 0.01269 0.0
H692 H 0.53843 0.56897 0.98381 0.0
C693 C 0.57025 0.53916 0.91208 0.0
C694 C 0.62863 0.57302 0.95878 0.0
C695 C 0.57144 0.53615 0.89039 0.0
C696 C 0.62651 0.61055 0.04384 0.0
C697 C 0.62391 0.60759 0.02208 0.0
C698 C 0.56375 0.56988 0.97705 0.0
C699 C 0.59754 0.56391 0.92298 0.0
C700 C 0.59663 0.56732 0.94603 0.0
C701 C 0.59621 0.58145 0.01256 0.0
C702 C 0.59594 0.57623 0.98967 0.0
H703 H 0.64946 0.59956 0.88184 0.0
H704 H 0.64718 0.60522 0.9195 0.0
H705 H 0.53901 0.56155 0.94602 0.0
H706 H 0.55312 0.54408 0.05657 0.0
H707 H 0.54847 0.53897 0.01835 0.0
C708 C 0.11063 0.57569 0.21897 0.0
C709 C 0.10358 0.60639 0.20981 0.0
C710 C 0.1105 0.56952 0.2408 0.0
C711 C 0.12245 0.61501 0.2903 0.0
H712 H 0.06969 0.52519 0.31431 0.0
C713 C 0.09591 0.59379 0.37878 0.0
C714 C 0.095 0.56091 0.38852 0.0
C715 C 0.09894 0.5992 0.35704 0.0
C716 C 0.08511 0.55025 0.30792 0.0
H717 H 0.09092 0.6547 0.21618 0.0
H718 H 0.09114 0.64415 0.25431 0.0
H719 H 0.07113 0.53446 0.27621 0.0
H720 H 0.09799 0.5083 0.38332 0.0
H721 H 0.10427 0.51789 0.34546 0.0
H722 H 0.13691 0.6308 0.32188 0.0
C723 C 0.09678 0.62488 0.24464 0.0
C724 C 0.08578 0.55555 0.28606 0.0
C725 C 0.09647 0.63082 0.22283 0.0
C726 C 0.09817 0.5338 0.37617 0.0
C727 C 0.10158 0.53929 0.35446 0.0
C728 C 0.12212 0.60961 0.31215 0.0
C729 C 0.10382 0.5942 0.25386 0.0
C730 C 0.10418 0.58809 0.27704 0.0
C731 C 0.10151 0.57192 0.34455 0.0
C732 C 0.10317 0.57725 0.32127 0.0
H733 H 0.1164 0.55651 0.20928 0.0
H734 H 0.11624 0.54576 0.24749 0.0
H735 H 0.13729 0.64022 0.28376 0.0
H736 H 0.09308 0.61502 0.38789 0.0
H737 H 0.09821 0.6245 0.34998 0.0
loop_
_geom_bond_atom_site_label_1
_geom_bond_atom_site_label_2
_geom_bond_distance
_geom_bond_site_symmetry_2
_ccdc_geom_bond_type
Pr0 C2 2.880 . S
Pr0 O20 2.562 . S
Pr0 O21 2.490 . S
Pr0 O22 2.695 1_655 S
Pr0 O23 2.512 . S
Pr0 O25 2.437 . S
Pr0 O28 2.436 1_655 S
Pr0 O30 2.438 1_655 S
Pr1 C11 2.880 . S
Pr1 O22 2.436 . S
Pr1 O24 2.438 1_455 S
Pr1 O26 2.562 . S
Pr1 O27 2.490 . S
Pr1 O28 2.695 . S
Pr1 O29 2.512 . S
Pr1 O31 2.437 . S
C2 Pr0 2.880 . S
C2 C3 1.491 . S
C2 O20 1.254 . S
C2 O21 1.225 . S
C3 C2 1.491 . S
C3 C4 1.392 . S
C3 C8 1.356 . S
C4 C3 1.392 . S
C4 C5 1.368 . S
C4 H32 0.929 . S
C5 C4 1.368 . S
C5 C6 1.386 . S
C5 H33 0.929 . S
C6 C5 1.386 . S
C6 C7 1.373 . S
C7 C6 1.373 . S
C7 C8 1.409 . S
C7 H34 0.931 . S
C8 C3 1.356 . S
C8 C7 1.409 . S
C8 H35 0.930 . S
C9 O22 1.270 . S
C9 O23 1.248 1_455 S
C10 O24 1.267 . S
C10 O25 1.278 . S
C11 Pr1 2.880 . S
C11 C12 1.491 . S
C11 O26 1.254 . S
C11 O27 1.225 . S
C12 C11 1.491 . S
C12 C13 1.392 . S
C12 C17 1.356 . S
C13 C12 1.392 . S
C13 C14 1.368 . S
C13 H36 0.929 . S
C14 C13 1.368 . S
C14 C15 1.386 . S
C14 H37 0.929 . S
C15 C14 1.386 . S
C15 C16 1.373 . S
C16 C15 1.373 . S
C16 C17 1.409 . S
C16 H38 0.931 . S
C17 C12 1.356 . S
C17 C16 1.409 . S
C17 H39 0.930 . S
C18 O28 1.270 . S
C18 O29 1.248 . S
C19 O30 1.267 . S
C19 O31 1.278 . S
O20 Pr0 2.562 . S
O20 C2 1.254 . S
O21 Pr0 2.490 . S
O21 C2 1.225 . S
O22 Pr0 2.695 1_455 S
O22 Pr1 2.436 . S
O22 C9 1.270 . S
O23 Pr0 2.512 . S
O23 C9 1.248 1_655 S
O24 Pr1 2.438 1_655 S
O24 C10 1.267 . S
O25 Pr0 2.437 . S
O25 C10 1.278 . S
O26 Pr1 2.562 . S
O26 C11 1.254 . S
O27 Pr1 2.490 . S
O27 C11 1.225 . S
O28 Pr0 2.436 1_455 S
O28 Pr1 2.695 . S
O28 C18 1.270 . S
O29 Pr1 2.512 . S
O29 C18 1.248 . S
O30 Pr0 2.438 1_455 S
O30 C19 1.267 . S
O31 Pr1 2.437 . S
O31 C19 1.278 . S
H32 C4 0.929 . S
H33 C5 0.929 . S
H34 C7 0.931 . S
H35 C8 0.930 . S
H36 C13 0.929 . S
H37 C14 0.929 . S
H38 C16 0.931 . S
H39 C17 0.930 . S
Pr40 C42 2.880 . S
Pr40 O60 2.562 . S
Pr40 O61 2.490 . S
Pr40 O62 2.695 . S
Pr40 O63 2.512 . S
Pr40 O65 2.437 . S
Pr40 O68 2.436 . S
Pr40 O70 2.438 1_545 S
Pr41 C51 2.880 . S
Pr41 O62 2.436 1_565 S
Pr41 O64 2.438 1_565 S
Pr41 O66 2.562 . S
Pr41 O67 2.490 . S
Pr41 O68 2.695 1_565 S
Pr41 O69 2.512 1_565 S
Pr41 O71 2.437 . S
C42 Pr40 2.880 . S
C42 C43 1.491 . S
C42 O60 1.254 . S
C42 O61 1.225 . S
C43 C42 1.491 . S
C43 C44 1.392 . S
C43 C48 1.356 . S
C44 C43 1.392 . S
C44 C45 1.368 . S
C44 H72 0.929 . S
C45 C44 1.368 . S
C45 C46 1.386 . S
C45 H73 0.929 . S
C46 C45 1.386 . S
C46 C47 1.373 . S
C47 C46 1.373 . S
C47 C48 1.409 . S
C47 H74 0.931 . S
C48 C43 1.356 . S
C48 C47 1.409 . S
C48 H75 0.930 . S
C49 O62 1.270 . S
C49 O63 1.248 . S
C50 O64 1.267 . S
C50 O65 1.278 . S
C51 Pr41 2.880 . S
C51 C52 1.491 . S
C51 O66 1.254 . S
C51 O67 1.225 . S
C52 C51 1.491 . S
C52 C53 1.392 . S
C52 C57 1.356 . S
C53 C52 1.392 . S
C53 C54 1.368 . S
C53 H76 0.929 . S
C54 C53 1.368 . S
C54 C55 1.386 . S
C54 H77 0.929 . S
C55 C54 1.386 . S
C55 C56 1.373 . S
C56 C55 1.373 . S
C56 C57 1.409 . S
C56 H78 0.931 . S
C57 C52 1.356 . S
C57 C56 1.409 . S
C57 H79 0.930 . S
C58 O68 1.270 . S
C58 O69 1.248 . S
C59 O70 1.267 . S
C59 O71 1.278 . S
O60 Pr40 2.562 . S
O60 C42 1.254 . S
O61 Pr40 2.490 . S
O61 C42 1.225 . S
O62 Pr40 2.695 . S
O62 Pr41 2.436 1_545 S
O62 C49 1.270 . S
O63 Pr40 2.512 . S
O63 C49 1.248 . S
O64 Pr41 2.438 1_545 S
O64 C50 1.267 . S
O65 Pr40 2.437 . S
O65 C50 1.278 . S
O66 Pr41 2.562 . S
O66 C51 1.254 . S
O67 Pr41 2.490 . S
O67 C51 1.225 . S
O68 Pr40 2.436 . S
O68 Pr41 2.695 1_545 S
O68 C58 1.270 . S
O69 Pr41 2.512 1_545 S
O69 C58 1.248 . S
O70 Pr40 2.438 1_565 S
O70 C59 1.267 . S
O71 Pr41 2.437 . S
O71 C59 1.278 . S
H72 C44 0.929 . S
H73 C45 0.929 . S
H74 C47 0.931 . S
H75 C48 0.930 . S
H76 C53 0.929 . S
H77 C54 0.929 . S
H78 C56 0.931 . S
H79 C57 0.930 . S
Pr80 C82 2.880 . S
Pr80 O100 2.562 . S
Pr80 O101 2.490 . S
Pr80 O102 2.695 . S
Pr80 O103 2.512 . S
Pr80 O105 2.437 . S
Pr80 O108 2.436 . S
Pr80 O110 2.438 . S
Pr81 C91 2.880 . S
Pr81 O102 2.436 . S
Pr81 O104 2.438 . S
Pr81 O106 2.562 . S
Pr81 O107 2.490 . S
Pr81 O108 2.695 . S
Pr81 O109 2.512 . S
Pr81 O111 2.437 . S
C82 Pr80 2.880 . S
C82 C83 1.491 . S
C82 O100 1.254 . S
C82 O101 1.225 . S
C83 C82 1.491 . S
C83 C84 1.392 . S
C83 C88 1.356 . S
C84 C83 1.392 . S
C84 C85 1.368 . S
C84 H112 0.929 . S
C85 C84 1.368 . S
C85 C86 1.386 . S
C85 H113 0.929 . S
C86 C85 1.386 . S
C86 C87 1.373 . S
C87 C86 1.373 . S
C87 C88 1.409 . S
C87 H114 0.931 . S
C88 C83 1.356 . S
C88 C87 1.409 . S
C88 H115 0.930 . S
C89 O102 1.270 . S
C89 O103 1.248 . S
C90 O104 1.267 . S
C90 O105 1.278 . S
C91 Pr81 2.880 . S
C91 C92 1.491 . S
C91 O106 1.254 . S
C91 O107 1.225 . S
C92 C91 1.491 . S
C92 C93 1.392 . S
C92 C97 1.356 . S
C93 C92 1.392 . S
C93 C94 1.368 . S
C93 H116 0.929 . S
C94 C93 1.368 . S
C94 C95 1.386 . S
C94 H117 0.929 . S
C95 C94 1.386 . S
C95 C96 1.373 . S
C96 C95 1.373 . S
C96 C97 1.409 . S
C96 H118 0.931 . S
C97 C92 1.356 . S
C97 C96 1.409 . S
C97 H119 0.930 . S
C98 O108 1.270 . S
C98 O109 1.248 . S
C99 O110 1.267 . S
C99 O111 1.278 . S
O100 Pr80 2.562 . S
O100 C82 1.254 . S
O101 Pr80 2.490 . S
O101 C82 1.225 . S
O102 Pr80 2.695 . S
O102 Pr81 2.436 . S
O102 C89 1.270 . S
O103 Pr80 2.512 . S
O103 C89 1.248 . S
O104 Pr81 2.438 . S
O104 C90 1.267 . S
O105 Pr80 2.437 . S
O105 C90 1.278 . S
O106 Pr81 2.562 . S
O106 C91 1.254 . S
O107 Pr81 2.490 . S
O107 C91 1.225 . S
O108 Pr80 2.436 . S
O108 Pr81 2.695 . S
O108 C98 1.270 . S
O109 Pr81 2.512 . S
O109 C98 1.248 . S
O110 Pr80 2.438 . S
O110 C99 1.267 . S
O111 Pr81 2.437 . S
O111 C99 1.278 . S
H112 C84 0.929 . S
H113 C85 0.929 . S
H114 C87 0.931 . S
H115 C88 0.930 . S
H116 C93 0.929 . S
H117 C94 0.929 . S
H118 C96 0.931 . S
H119 C97 0.930 . S
H120 C127 0.929 . S
H121 C130 0.930 1_565 S
H122 C132 0.929 . S
H123 C124 0.969 . S
C124 H123 0.969 . S
C124 O125 1.550 . S
C124 H126 0.973 . S
O125 C124 1.550 . S
O125 C131 1.412 1_565 S
H126 C124 0.973 . S
C127 H120 0.929 . S
C127 C128 1.400 . S
C127 C129 1.364 . S
C128 C127 1.400 . S
C128 C132 1.377 . S
C129 C127 1.364 . S
C129 C130 1.374 . S
C130 H121 0.930 1_545 S
C130 C129 1.374 . S
C130 C131 1.383 . S
C131 O125 1.412 1_545 S
C131 C130 1.383 . S
C131 C132 1.394 . S
C132 H122 0.929 . S
C132 C128 1.377 . S
C132 C131 1.394 . S
H133 C140 0.929 . S
H134 C143 0.930 . S
H135 C145 0.929 . S
H136 C137 0.969 . S
C137 H136 0.969 . S
C137 O138 1.550 . S
C137 H139 0.973 . S
O138 C137 1.550 . S
O138 C144 1.412 . S
H139 C137 0.973 . S
C140 H133 0.929 . S
C140 C141 1.400 . S
C140 C142 1.364 . S
C141 C140 1.400 . S
C141 C145 1.377 . S
C142 C140 1.364 . S
C142 C143 1.374 . S
C143 H134 0.930 . S
C143 C142 1.374 . S
C143 C144 1.383 . S
C144 O138 1.412 . S
C144 C143 1.383 . S
C144 C145 1.394 . S
C145 H135 0.929 . S
C145 C141 1.377 . S
C145 C144 1.394 . S
H146 C153 0.929 . S
H147 C156 0.930 . S
H148 C158 0.929 . S
H149 C150 0.969 . S
C150 H149 0.969 . S
C150 O151 1.550 . S
C150 H152 0.973 . S
O151 C150 1.550 . S
O151 C157 1.412 . S
H152 C150 0.973 . S
C153 H146 0.929 . S
C153 C154 1.400 . S
C153 C155 1.364 . S
C154 C153 1.400 . S
C154 C158 1.377 . S
C155 C153 1.364 . S
C155 C156 1.374 . S
C156 H147 0.930 . S
C156 C155 1.374 . S
C156 C157 1.383 . S
C157 O151 1.412 . S
C157 C156 1.383 . S
C157 C158 1.394 . S
C158 H148 0.929 . S
C158 C154 1.377 . S
C158 C157 1.394 . S
H159 C166 0.929 . S
H160 C169 0.930 . S
H161 C171 0.929 . S
H162 C163 0.969 . S
C163 H162 0.969 . S
C163 O164 1.550 . S
C163 H165 0.973 . S
O164 C163 1.550 . S
O164 C170 1.412 . S
H165 C163 0.973 . S
C166 H159 0.929 . S
C166 C167 1.400 . S
C166 C168 1.364 . S
C167 C166 1.400 . S
C167 C171 1.377 . S
C168 C166 1.364 . S
C168 C169 1.374 . S
C169 H160 0.930 . S
C169 C168 1.374 . S
C169 C170 1.383 . S
C170 O164 1.412 . S
C170 C169 1.383 . S
C170 C171 1.394 . S
C171 H161 0.929 . S
C171 C167 1.377 . S
C171 C170 1.394 . S
H172 C179 0.929 . S
H173 C182 0.930 . S
H174 C184 0.928 1_565 S
H175 C176 0.969 . S
C176 H175 0.969 . S
C176 O177 1.550 . S
C176 H178 0.973 . S
O177 C176 1.550 . S
O177 C183 1.412 . S
H178 C176 0.973 . S
C179 H172 0.929 . S
C179 C180 1.400 . S
C179 C181 1.364 1_565 S
C180 C179 1.400 . S
C180 C184 1.377 1_565 S
C181 C179 1.364 1_545 S
C181 C182 1.374 . S
C182 H173 0.930 . S
C182 C181 1.374 . S
C182 C183 1.383 . S
C183 O177 1.412 . S
C183 C182 1.383 . S
C183 C184 1.394 . S
C184 H174 0.928 1_545 S
C184 C180 1.377 1_545 S
C184 C183 1.394 . S
H185 C192 0.929 . S
H186 C195 0.930 . S
H187 C197 0.929 . S
H188 C189 0.969 . S
C189 H188 0.969 . S
C189 O190 1.550 . S
C189 H191 0.973 . S
O190 C189 1.550 . S
O190 C196 1.412 . S
H191 C189 0.973 . S
C192 H185 0.929 . S
C192 C193 1.400 . S
C192 C194 1.364 . S
C193 C192 1.400 . S
C193 C197 1.377 . S
C194 C192 1.364 . S
C194 C195 1.374 . S
C195 H186 0.930 . S
C195 C194 1.374 . S
C195 C196 1.383 . S
C196 O190 1.412 . S
C196 C195 1.383 . S
C196 C197 1.394 . S
C197 H187 0.929 . S
C197 C193 1.377 . S
C197 C196 1.394 . S
C198 C199 1.349 . S
C198 C200 1.327 . S
C198 H223 0.950 . S
C199 C198 1.349 . S
C199 C215 1.349 . S
C200 C198 1.327 . S
C200 C219 1.429 . S
C200 H224 0.950 . S
C201 C218 1.574 . S
C201 C220 1.368 . S
C201 H225 0.949 . S
H202 C206 0.949 . S
C203 C204 1.349 . S
C203 C205 1.327 . S
C203 H226 0.950 . S
C204 C203 1.349 . S
C204 C216 1.349 . S
C205 C203 1.327 . S
C205 C221 1.429 . S
C205 H227 0.950 . S
C206 H202 0.949 . S
C206 C214 1.574 . S
C206 C222 1.368 . S
H207 C215 0.950 . S
H208 C213 0.950 . S
H209 C214 0.949 . S
H210 C216 0.950 . S
H211 C217 0.950 . S
H212 C218 0.949 . S
C213 H208 0.950 . S
C213 C215 1.327 . S
C213 C219 1.429 . S
C214 C206 1.574 . S
C214 H209 0.949 . S
C214 C220 1.368 . S
C215 C199 1.349 . S
C215 H207 0.950 . S
C215 C213 1.327 . S
C216 C204 1.349 . S
C216 H210 0.950 . S
C216 C217 1.327 . S
C217 H211 0.950 . S
C217 C216 1.327 . S
C217 C221 1.429 . S
C218 C201 1.574 . S
C218 H212 0.949 . S
C218 C222 1.368 . S
C219 C200 1.429 . S
C219 C213 1.429 . S
C219 C220 1.523 . S
C220 C201 1.368 . S
C220 C214 1.368 . S
C220 C219 1.523 . S
C221 C205 1.429 . S
C221 C217 1.429 . S
C221 C222 1.523 . S
C222 C206 1.368 . S
C222 C218 1.368 . S
C222 C221 1.523 . S
H223 C198 0.950 . S
H224 C200 0.950 . S
H225 C201 0.949 . S
H226 C203 0.950 . S
H227 C205 0.950 . S
C228 C229 1.349 . S
C228 C230 1.327 . S
C228 H253 0.950 . S
C229 C228 1.349 . S
C229 C245 1.349 . S
C230 C228 1.327 . S
C230 C249 1.429 . S
C230 H254 0.950 . S
C231 C248 1.574 . S
C231 C250 1.368 . S
C231 H255 0.949 . S
H232 C236 0.949 . S
C233 C234 1.349 . S
C233 C235 1.327 1_455 S
C233 H256 0.950 . S
C234 C233 1.349 . S
C234 C246 1.349 1_455 S
C235 C233 1.327 1_655 S
C235 C251 1.429 . S
C235 H257 0.950 . S
C236 H232 0.949 . S
C236 C244 1.574 . S
C236 C252 1.368 . S
H237 C245 0.950 . S
H238 C243 0.950 . S
H239 C244 0.949 . S
H240 C246 0.950 . S
H241 C247 0.950 . S
H242 C248 0.949 . S
C243 H238 0.950 . S
C243 C245 1.327 . S
C243 C249 1.429 . S
C244 C236 1.574 . S
C244 H239 0.949 . S
C244 C250 1.368 . S
C245 C229 1.349 . S
C245 H237 0.950 . S
C245 C243 1.327 . S
C246 C234 1.349 1_655 S
C246 H240 0.950 . S
C246 C247 1.327 . S
C247 H241 0.950 . S
C247 C246 1.327 . S
C247 C251 1.429 . S
C248 C231 1.574 . S
C248 H242 0.949 . S
C248 C252 1.368 . S
C249 C230 1.429 . S
C249 C243 1.429 . S
C249 C250 1.523 . S
C250 C231 1.368 . S
C250 C244 1.368 . S
C250 C249 1.523 . S
C251 C235 1.429 . S
C251 C247 1.429 . S
C251 C252 1.523 . S
C252 C236 1.368 . S
C252 C248 1.368 . S
C252 C251 1.523 . S
H253 C228 0.950 . S
H254 C230 0.950 . S
H255 C231 0.949 . S
H256 C233 0.950 . S
H257 C235 0.950 . S
C258 C259 1.349 . S
C258 C260 1.327 . S
C258 H283 0.950 . S
C259 C258 1.349 . S
C259 C275 1.349 . S
C260 C258 1.327 . S
C260 C279 1.429 . S
C260 H284 0.950 . S
C261 C278 1.574 . S
C261 C280 1.368 . S
C261 H285 0.949 . S
H262 C266 0.949 . S
C263 C264 1.349 . S
C263 C265 1.327 . S
C263 H286 0.950 . S
C264 C263 1.349 . S
C264 C276 1.349 . S
C265 C263 1.327 . S
C265 C281 1.429 . S
C265 H287 0.950 . S
C266 H262 0.949 . S
C266 C274 1.574 . S
C266 C282 1.368 . S
H267 C275 0.950 . S
H268 C273 0.950 . S
H269 C274 0.949 . S
H270 C276 0.950 . S
H271 C277 0.950 . S
H272 C278 0.949 . S
C273 H268 0.950 . S
C273 C275 1.327 . S
C273 C279 1.429 . S
C274 C266 1.574 . S
C274 H269 0.949 . S
C274 C280 1.368 . S
C275 C259 1.349 . S
C275 H267 0.950 . S
C275 C273 1.327 . S
C276 C264 1.349 . S
C276 H270 0.950 . S
C276 C277 1.327 . S
C277 H271 0.950 . S
C277 C276 1.327 . S
C277 C281 1.429 . S
C278 C261 1.574 . S
C278 H272 0.949 . S
C278 C282 1.368 . S
C279 C260 1.429 . S
C279 C273 1.429 . S
C279 C280 1.523 . S
C280 C261 1.368 . S
C280 C274 1.368 . S
C280 C279 1.523 . S
C281 C265 1.429 . S
C281 C277 1.429 . S
C281 C282 1.523 . S
C282 C266 1.368 . S
C282 C278 1.368 . S
C282 C281 1.523 . S
H283 C258 0.950 . S
H284 C260 0.950 . S
H285 C261 0.949 . S
H286 C263 0.950 . S
H287 C265 0.950 . S
C288 C289 1.349 . S
C288 C290 1.327 . S
C288 H313 0.950 . S
C289 C288 1.349 . S
C289 C305 1.349 . S
C290 C288 1.327 . S
C290 C309 1.429 . S
C290 H314 0.950 . S
C291 C308 1.574 . S
C291 C310 1.368 . S
C291 H315 0.949 . S
H292 C296 0.949 . S
C293 C294 1.349 . S
C293 C295 1.327 . S
C293 H316 0.950 . S
C294 C293 1.349 . S
C294 C306 1.349 . S
C295 C293 1.327 . S
C295 C311 1.429 . S
C295 H317 0.950 . S
C296 H292 0.949 . S
C296 C304 1.574 . S
C296 C312 1.368 . S
H297 C305 0.950 . S
H298 C303 0.950 . S
H299 C304 0.949 . S
H300 C306 0.950 . S
H301 C307 0.950 . S
H302 C308 0.949 . S
C303 H298 0.950 . S
C303 C305 1.327 . S
C303 C309 1.429 . S
C304 C296 1.574 . S
C304 H299 0.949 . S
C304 C310 1.368 . S
C305 C289 1.349 . S
C305 H297 0.950 . S
C305 C303 1.327 . S
C306 C294 1.349 . S
C306 H300 0.950 . S
C306 C307 1.327 . S
C307 H301 0.950 . S
C307 C306 1.327 . S
C307 C311 1.429 . S
C308 C291 1.574 . S
C308 H302 0.949 . S
C308 C312 1.368 . S
C309 C290 1.429 . S
C309 C303 1.429 . S
C309 C310 1.523 . S
C310 C291 1.368 . S
C310 C304 1.368 . S
C310 C309 1.523 . S
C311 C295 1.429 . S
C311 C307 1.429 . S
C311 C312 1.523 . S
C312 C296 1.368 . S
C312 C308 1.368 . S
C312 C311 1.523 . S
H313 C288 0.950 . S
H314 C290 0.950 . S
H315 C291 0.949 . S
H316 C293 0.950 . S
H317 C295 0.950 . S
C318 C319 1.349 . S
C318 C320 1.327 . S
C318 H343 0.950 . S
C319 C318 1.349 . S
C319 C335 1.349 . S
C320 C318 1.327 . S
C320 C339 1.429 . S
C320 H344 0.950 . S
C321 C338 1.574 . S
C321 C340 1.368 . S
C321 H345 0.949 . S
H322 C326 0.949 . S
C323 C324 1.349 . S
C323 C325 1.327 . S
C323 H346 0.950 . S
C324 C323 1.349 . S
C324 C336 1.349 . S
C325 C323 1.327 . S
C325 C341 1.429 . S
C325 H347 0.950 . S
C326 H322 0.949 . S
C326 C334 1.574 . S
C326 C342 1.368 . S
H327 C335 0.950 . S
H328 C333 0.950 . S
H329 C334 0.949 . S
H330 C336 0.950 . S
H331 C337 0.950 . S
H332 C338 0.949 . S
C333 H328 0.950 . S
C333 C335 1.327 . S
C333 C339 1.429 . S
C334 C326 1.574 . S
C334 H329 0.949 . S
C334 C340 1.368 . S
C335 C319 1.349 . S
C335 H327 0.950 . S
C335 C333 1.327 . S
C336 C324 1.349 . S
C336 H330 0.950 . S
C336 C337 1.327 . S
C337 H331 0.950 . S
C337 C336 1.327 . S
C337 C341 1.429 . S
C338 C321 1.574 . S
C338 H332 0.949 . S
C338 C342 1.368 . S
C339 C320 1.429 . S
C339 C333 1.429 . S
C339 C340 1.523 . S
C340 C321 1.368 . S
C340 C334 1.368 . S
C340 C339 1.523 . S
C341 C325 1.429 . S
C341 C337 1.429 . S
C341 C342 1.523 . S
C342 C326 1.368 . S
C342 C338 1.368 . S
C342 C341 1.523 . S
H343 C318 0.950 . S
H344 C320 0.950 . S
H345 C321 0.949 . S
H346 C323 0.950 . S
H347 C325 0.950 . S
C348 C349 1.349 . S
C348 C350 1.327 . S
C348 H373 0.950 . S
C349 C348 1.349 . S
C349 C365 1.349 . S
C350 C348 1.327 . S
C350 C369 1.429 . S
C350 H374 0.950 . S
C351 C368 1.574 . S
C351 C370 1.368 . S
C351 H375 0.949 . S
H352 C356 0.949 . S
C353 C354 1.349 . S
C353 C355 1.327 . S
C353 H376 0.950 . S
C354 C353 1.349 . S
C354 C366 1.349 . S
C355 C353 1.327 . S
C355 C371 1.429 . S
C355 H377 0.950 . S
C356 H352 0.949 . S
C356 C364 1.574 . S
C356 C372 1.368 . S
H357 C365 0.950 . S
H358 C363 0.950 . S
H359 C364 0.949 . S
H360 C366 0.950 . S
H361 C367 0.950 . S
H362 C368 0.949 . S
C363 H358 0.950 . S
C363 C365 1.327 . S
C363 C369 1.429 . S
C364 C356 1.574 . S
C364 H359 0.949 . S
C364 C370 1.368 . S
C365 C349 1.349 . S
C365 H357 0.950 . S
C365 C363 1.327 . S
C366 C354 1.349 . S
C366 H360 0.950 . S
C366 C367 1.327 . S
C367 H361 0.950 . S
C367 C366 1.327 . S
C367 C371 1.429 . S
C368 C351 1.574 . S
C368 H362 0.949 . S
C368 C372 1.368 . S
C369 C350 1.429 . S
C369 C363 1.429 . S
C369 C370 1.523 . S
C370 C351 1.368 . S
C370 C364 1.368 . S
C370 C369 1.523 . S
C371 C355 1.429 . S
C371 C367 1.429 . S
C371 C372 1.523 . S
C372 C356 1.368 . S
C372 C368 1.368 . S
C372 C371 1.523 . S
H373 C348 0.950 . S
H374 C350 0.950 . S
H375 C351 0.949 . S
H376 C353 0.950 . S
H377 C355 0.950 . S
C378 C379 1.349 . S
C378 C380 1.327 . S
C378 H403 0.950 . S
C379 C378 1.349 . S
C379 C395 1.349 . S
C380 C378 1.327 . S
C380 C399 1.429 . S
C380 H404 0.950 . S
C381 C398 1.574 . S
C381 C400 1.368 . S
C381 H405 0.949 . S
H382 C386 0.949 . S
C383 C384 1.349 . S
C383 C385 1.327 . S
C383 H406 0.950 . S
C384 C383 1.349 . S
C384 C396 1.349 . S
C385 C383 1.327 . S
C385 C401 1.429 . S
C385 H407 0.950 . S
C386 H382 0.949 . S
C386 C394 1.574 . S
C386 C402 1.368 . S
H387 C395 0.950 . S
H388 C393 0.950 . S
H389 C394 0.949 . S
H390 C396 0.950 . S
H391 C397 0.950 . S
H392 C398 0.949 . S
C393 H388 0.950 . S
C393 C395 1.327 . S
C393 C399 1.429 . S
C394 C386 1.574 . S
C394 H389 0.949 . S
C394 C400 1.368 . S
C395 C379 1.349 . S
C395 H387 0.950 . S
C395 C393 1.327 . S
C396 C384 1.349 . S
C396 H390 0.950 . S
C396 C397 1.327 . S
C397 H391 0.950 . S
C397 C396 1.327 . S
C397 C401 1.429 . S
C398 C381 1.574 . S
C398 H392 0.949 . S
C398 C402 1.368 . S
C399 C380 1.429 . S
C399 C393 1.429 . S
C399 C400 1.523 . S
C400 C381 1.368 . S
C400 C394 1.368 . S
C400 C399 1.523 . S
C401 C385 1.429 . S
C401 C397 1.429 . S
C401 C402 1.523 . S
C402 C386 1.368 . S
C402 C398 1.368 . S
C402 C401 1.523 . S
H403 C378 0.950 . S
H404 C380 0.950 . S
H405 C381 0.949 . S
H406 C383 0.950 . S
H407 C385 0.950 . S
C408 C409 1.349 . S
C408 C410 1.327 . S
C408 H433 0.950 . S
C409 C408 1.349 . S
C409 C425 1.349 . S
C410 C408 1.327 . S
C410 C429 1.429 . S
C410 H434 0.950 . S
C411 C428 1.574 . S
C411 C430 1.368 . S
C411 H435 0.949 . S
H412 C416 0.949 . S
C413 C414 1.349 . S
C413 C415 1.327 . S
C413 H436 0.950 . S
C414 C413 1.349 . S
C414 C426 1.349 . S
C415 C413 1.327 . S
C415 C431 1.429 . S
C415 H437 0.950 . S
C416 H412 0.949 . S
C416 C424 1.574 . S
C416 C432 1.368 . S
H417 C425 0.950 . S
H418 C423 0.950 . S
H419 C424 0.949 . S
H420 C426 0.950 . S
H421 C427 0.950 . S
H422 C428 0.949 . S
C423 H418 0.950 . S
C423 C425 1.327 . S
C423 C429 1.429 . S
C424 C416 1.574 . S
C424 H419 0.949 . S
C424 C430 1.368 . S
C425 C409 1.349 . S
C425 H417 0.950 . S
C425 C423 1.327 . S
C426 C414 1.349 . S
C426 H420 0.950 . S
C426 C427 1.327 . S
C427 H421 0.950 . S
C427 C426 1.327 . S
C427 C431 1.429 . S
C428 C411 1.574 . S
C428 H422 0.949 . S
C428 C432 1.368 . S
C429 C410 1.429 . S
C429 C423 1.429 . S
C429 C430 1.523 . S
C430 C411 1.368 . S
C430 C424 1.368 . S
C430 C429 1.523 . S
C431 C415 1.429 . S
C431 C427 1.429 . S
C431 C432 1.523 . S
C432 C416 1.368 . S
C432 C428 1.368 . S
C432 C431 1.523 . S
H433 C408 0.950 . S
H434 C410 0.950 . S
H435 C411 0.949 . S
H436 C413 0.950 . S
H437 C415 0.950 . S
C438 C439 1.349 . S
C438 C440 1.327 . S
C438 H463 0.950 . S
C439 C438 1.349 . S
C439 C455 1.349 . S
C440 C438 1.327 . S
C440 C459 1.429 . S
C440 H464 0.950 . S
C441 C458 1.574 . S
C441 C460 1.368 . S
C441 H465 0.949 . S
H442 C446 0.949 . S
C443 C444 1.349 . S
C443 C445 1.327 . S
C443 H466 0.950 . S
C444 C443 1.349 . S
C444 C456 1.349 . S
C445 C443 1.327 . S
C445 C461 1.429 . S
C445 H467 0.950 . S
C446 H442 0.949 . S
C446 C454 1.574 . S
C446 C462 1.368 . S
H447 C455 0.950 . S
H448 C453 0.950 . S
H449 C454 0.949 . S
H450 C456 0.950 . S
H451 C457 0.950 . S
H452 C458 0.949 . S
C453 H448 0.950 . S
C453 C455 1.327 . S
C453 C459 1.429 . S
C454 C446 1.574 . S
C454 H449 0.949 . S
C454 C460 1.368 . S
C455 C439 1.349 . S
C455 H447 0.950 . S
C455 C453 1.327 . S
C456 C444 1.349 . S
C456 H450 0.950 . S
C456 C457 1.327 . S
C457 H451 0.950 . S
C457 C456 1.327 . S
C457 C461 1.429 . S
C458 C441 1.574 . S
C458 H452 0.949 . S
C458 C462 1.368 . S
C459 C440 1.429 . S
C459 C453 1.429 . S
C459 C460 1.523 . S
C460 C441 1.368 . S
C460 C454 1.368 . S
C460 C459 1.523 . S
C461 C445 1.429 . S
C461 C457 1.429 . S
C461 C462 1.523 . S
C462 C446 1.368 . S
C462 C458 1.368 . S
C462 C461 1.523 . S
H463 C438 0.950 . S
H464 C440 0.950 . S
H465 C441 0.949 . S
H466 C443 0.950 . S
H467 C445 0.950 . S
C468 C469 1.349 . S
C468 C470 1.327 . S
C468 H493 0.950 . S
C469 C468 1.349 . S
C469 C485 1.349 . S
C470 C468 1.327 . S
C470 C489 1.429 . S
C470 H494 0.950 . S
C471 C488 1.574 . S
C471 C490 1.368 . S
C471 H495 0.949 . S
H472 C476 0.949 . S
C473 C474 1.349 . S
C473 C475 1.327 . S
C473 H496 0.950 . S
C474 C473 1.349 . S
C474 C486 1.349 . S
C475 C473 1.327 . S
C475 C491 1.429 . S
C475 H497 0.950 . S
C476 H472 0.949 . S
C476 C484 1.574 . S
C476 C492 1.368 . S
H477 C485 0.950 . S
H478 C483 0.950 . S
H479 C484 0.949 . S
H480 C486 0.950 . S
H481 C487 0.950 . S
H482 C488 0.949 . S
C483 H478 0.950 . S
C483 C485 1.327 . S
C483 C489 1.429 . S
C484 C476 1.574 . S
C484 H479 0.949 . S
C484 C490 1.368 . S
C485 C469 1.349 . S
C485 H477 0.950 . S
C485 C483 1.327 . S
C486 C474 1.349 . S
C486 H480 0.950 . S
C486 C487 1.327 . S
C487 H481 0.950 . S
C487 C486 1.327 . S
C487 C491 1.429 . S
C488 C471 1.574 . S
C488 H482 0.949 . S
C488 C492 1.368 . S
C489 C470 1.429 . S
C489 C483 1.429 . S
C489 C490 1.523 . S
C490 C471 1.368 . S
C490 C484 1.368 . S
C490 C489 1.523 . S
C491 C475 1.429 . S
C491 C487 1.429 . S
C491 C492 1.523 . S
C492 C476 1.368 . S
C492 C488 1.368 . S
C492 C491 1.523 . S
H493 C468 0.950 . S
H494 C470 0.950 . S
H495 C471 0.949 . S
H496 C473 0.950 . S
H497 C475 0.950 . S
C498 C499 1.349 . S
C498 C500 1.327 . S
C498 H523 0.950 . S
C499 C498 1.349 . S
C499 C515 1.349 . S
C500 C498 1.327 . S
C500 C519 1.429 . S
C500 H524 0.950 . S
C501 C518 1.574 . S
C501 C520 1.368 . S
C501 H525 0.949 . S
H502 C506 0.949 . S
C503 C504 1.349 . S
C503 C505 1.327 . S
C503 H526 0.950 . S
C504 C503 1.349 . S
C504 C516 1.349 . S
C505 C503 1.327 . S
C505 C521 1.429 . S
C505 H527 0.950 . S
C506 H502 0.949 . S
C506 C514 1.574 . S
C506 C522 1.368 . S
H507 C515 0.950 . S
H508 C513 0.950 . S
H509 C514 0.949 . S
H510 C516 0.950 . S
H511 C517 0.950 . S
H512 C518 0.949 . S
C513 H508 0.950 . S
C513 C515 1.327 . S
C513 C519 1.429 . S
C514 C506 1.574 . S
C514 H509 0.949 . S
C514 C520 1.368 . S
C515 C499 1.349 . S
C515 H507 0.950 . S
C515 C513 1.327 . S
C516 C504 1.349 . S
C516 H510 0.950 . S
C516 C517 1.327 . S
C517 H511 0.950 . S
C517 C516 1.327 . S
C517 C521 1.429 . S
C518 C501 1.574 . S
C518 H512 0.949 . S
C518 C522 1.368 . S
C519 C500 1.429 . S
C519 C513 1.429 . S
C519 C520 1.523 . S
C520 C501 1.368 . S
C520 C514 1.368 . S
C520 C519 1.523 . S
C521 C505 1.429 . S
C521 C517 1.429 . S
C521 C522 1.523 . S
C522 C506 1.368 . S
C522 C518 1.368 . S
C522 C521 1.523 . S
H523 C498 0.950 . S
H524 C500 0.950 . S
H525 C501 0.949 . S
H526 C503 0.950 . S
H527 C505 0.950 . S
C528 C529 1.349 . S
C528 C530 1.327 . S
C528 H553 0.950 . S
C529 C528 1.349 . S
C529 C545 1.349 . S
C530 C528 1.327 . S
C530 C549 1.429 . S
C530 H554 0.950 . S
C531 C548 1.574 . S
C531 C550 1.368 . S
C531 H555 0.949 . S
H532 C536 0.949 . S
C533 C534 1.349 . S
C533 C535 1.327 . S
C533 H556 0.950 . S
C534 C533 1.349 . S
C534 C546 1.349 . S
C535 C533 1.327 . S
C535 C551 1.429 . S
C535 H557 0.950 . S
C536 H532 0.949 . S
C536 C544 1.574 . S
C536 C552 1.368 . S
H537 C545 0.950 . S
H538 C543 0.950 . S
H539 C544 0.949 . S
H540 C546 0.950 . S
H541 C547 0.950 . S
H542 C548 0.949 . S
C543 H538 0.950 . S
C543 C545 1.327 . S
C543 C549 1.429 . S
C544 C536 1.574 . S
C544 H539 0.949 . S
C544 C550 1.368 . S
C545 C529 1.349 . S
C545 H537 0.950 . S
C545 C543 1.327 . S
C546 C534 1.349 . S
C546 H540 0.950 . S
C546 C547 1.327 . S
C547 H541 0.950 . S
C547 C546 1.327 . S
C547 C551 1.429 . S
C548 C531 1.574 . S
C548 H542 0.949 . S
C548 C552 1.368 . S
C549 C530 1.429 . S
C549 C543 1.429 . S
C549 C550 1.523 . S
C550 C531 1.368 . S
C550 C544 1.368 . S
C550 C549 1.523 . S
C551 C535 1.429 . S
C551 C547 1.429 . S
C551 C552 1.523 . S
C552 C536 1.368 . S
C552 C548 1.368 . S
C552 C551 1.523 . S
H553 C528 0.950 . S
H554 C530 0.950 . S
H555 C531 0.949 . S
H556 C533 0.950 . S
H557 C535 0.950 . S
C558 C559 1.349 . S
C558 C560 1.327 . S
C558 H583 0.950 . S
C559 C558 1.349 . S
C559 C575 1.349 1_455 S
C560 C558 1.327 . S
C560 C579 1.429 . S
C560 H584 0.950 . S
C561 C578 1.574 1_554 S
C561 C580 1.368 . S
C561 H585 0.949 1_455 S
H562 C566 0.961 . S
C563 C564 1.349 . S
C563 C565 1.327 . S
C563 H586 0.950 . S
C564 C563 1.349 . S
C564 C576 1.349 . S
C565 C563 1.327 . S
C565 C581 1.429 . S
C565 H587 0.950 1_455 S
C566 H562 0.961 . S
C566 C574 1.548 1_556 S
C566 C582 1.381 . S
H567 C575 0.950 . S
H568 C573 0.950 . S
H569 C574 0.949 . S
H570 C576 0.950 . S
H571 C577 0.950 . S
H572 C578 0.949 1_655 S
C573 H568 0.950 . S
C573 C575 1.327 . S
C573 C579 1.429 1_655 S
C574 C566 1.548 1_554 S
C574 H569 0.949 . S
C574 C580 1.368 . S
C575 C559 1.349 1_655 S
C575 H567 0.950 . S
C575 C573 1.327 . S
C576 C564 1.349 . S
C576 H570 0.950 . S
C576 C577 1.327 . S
C577 H571 0.950 . S
C577 C576 1.327 . S
C577 C581 1.429 . S
C578 C561 1.574 1_556 S
C578 H572 0.949 1_455 S
C578 C582 1.368 . S
C579 C560 1.429 . S
C579 C573 1.429 1_455 S
C579 C580 1.523 . S
C580 C561 1.368 . S
C580 C574 1.368 . S
C580 C579 1.523 . S
C581 C565 1.429 . S
C581 C577 1.429 . S
C581 C582 1.523 . S
C582 C566 1.381 . S
C582 C578 1.368 . S
C582 C581 1.523 . S
H583 C558 0.950 . S
H584 C560 0.950 . S
H585 C561 0.949 1_655 S
H586 C563 0.950 . S
H587 C565 0.950 1_655 S
C588 C589 1.349 . S
C588 C590 1.327 . S
C588 H613 0.950 1_545 S
C589 C588 1.349 . S
C589 C605 1.349 . S
C590 C588 1.327 . S
C590 C609 1.429 . S
C590 H614 0.950 1_545 S
C591 C608 1.574 . S
C591 C610 1.368 . S
C591 H615 0.949 . S
H592 C596 0.949 1_565 S
C593 C594 1.349 . S
C593 C595 1.327 . S
C593 H616 0.950 . S
C594 C593 1.349 . S
C594 C606 1.349 . S
C595 C593 1.327 . S
C595 C611 1.429 . S
C595 H617 0.950 . S
C596 H592 0.949 1_545 S
C596 C604 1.574 . S
C596 C612 1.368 . S
H597 C605 0.950 . S
H598 C603 0.950 . S
H599 C604 0.949 1_565 S
H600 C606 0.950 1_565 S
H601 C607 0.950 1_565 S
H602 C608 0.949 . S
C603 H598 0.950 . S
C603 C605 1.327 . S
C603 C609 1.429 . S
C604 C596 1.574 . S
C604 H599 0.949 1_545 S
C604 C610 1.368 . S
C605 C589 1.349 . S
C605 H597 0.950 . S
C605 C603 1.327 . S
C606 C594 1.349 . S
C606 H600 0.950 1_545 S
C606 C607 1.327 . S
C607 H601 0.950 1_545 S
C607 C606 1.327 . S
C607 C611 1.429 . S
C608 C591 1.574 . S
C608 H602 0.949 . S
C608 C612 1.368 . S
C609 C590 1.429 . S
C609 C603 1.429 . S
C609 C610 1.523 . S
C610 C591 1.368 . S
C610 C604 1.368 . S
C610 C609 1.523 . S
C611 C595 1.429 . S
C611 C607 1.429 . S
C611 C612 1.523 . S
C612 C596 1.368 . S
C612 C608 1.368 . S
C612 C611 1.523 . S
H613 C588 0.950 1_565 S
H614 C590 0.950 1_565 S
H615 C591 0.949 . S
H616 C593 0.950 . S
H617 C595 0.950 . S
C618 C619 1.349 . S
C618 C620 1.327 . S
C618 H643 0.950 . S
C619 C618 1.349 . S
C619 C635 1.349 . S
C620 C618 1.327 . S
C620 C639 1.429 . S
C620 H644 0.950 . S
C621 C638 1.574 . S
C621 C640 1.368 . S
C621 H645 0.949 . S
H622 C626 0.949 . S
C623 C624 1.349 . S
C623 C625 1.327 . S
C623 H646 0.950 . S
C624 C623 1.349 . S
C624 C636 1.349 . S
C625 C623 1.327 . S
C625 C641 1.429 . S
C625 H647 0.950 . S
C626 H622 0.949 . S
C626 C634 1.574 . S
C626 C642 1.368 . S
H627 C635 0.950 . S
H628 C633 0.950 . S
H629 C634 0.949 . S
H630 C636 0.950 . S
H631 C637 0.950 . S
H632 C638 0.949 . S
C633 H628 0.950 . S
C633 C635 1.327 . S
C633 C639 1.429 . S
C634 C626 1.574 . S
C634 H629 0.949 . S
C634 C640 1.368 . S
C635 C619 1.349 . S
C635 H627 0.950 . S
C635 C633 1.327 . S
C636 C624 1.349 . S
C636 H630 0.950 . S
C636 C637 1.327 . S
C637 H631 0.950 . S
C637 C636 1.327 . S
C637 C641 1.429 . S
C638 C621 1.574 . S
C638 H632 0.949 . S
C638 C642 1.368 . S
C639 C620 1.429 . S
C639 C633 1.429 . S
C639 C640 1.523 . S
C640 C621 1.368 . S
C640 C634 1.368 . S
C640 C639 1.523 . S
C641 C625 1.429 . S
C641 C637 1.429 . S
C641 C642 1.523 . S
C642 C626 1.368 . S
C642 C638 1.368 . S
C642 C641 1.523 . S
H643 C618 0.950 . S
H644 C620 0.950 . S
H645 C621 0.949 . S
H646 C623 0.950 . S
H647 C625 0.950 . S
C648 C649 1.349 . S
C648 C650 1.327 . S
C648 H673 0.950 . S
C649 C648 1.349 . S
C649 C665 1.349 1_545 S
C650 C648 1.327 . S
C650 C669 1.429 . S
C650 H674 0.950 . S
C651 C668 1.574 . S
C651 C670 1.368 1_565 S
C651 H675 0.949 . S
H652 C656 0.949 . S
C653 C654 1.349 1_565 S
C653 C655 1.327 . S
C653 H676 0.950 . S
C654 C653 1.349 1_545 S
C654 C666 1.349 . S
C655 C653 1.327 . S
C655 C671 1.429 1_565 S
C655 H677 0.950 . S
C656 H652 0.949 . S
C656 C664 1.574 . S
C656 C672 1.368 . S
H657 C665 0.950 . S
H658 C663 0.950 . S
H659 C664 0.949 . S
H660 C666 0.950 . S
H661 C667 0.950 . S
H662 C668 0.949 . S
C663 H658 0.950 . S
C663 C665 1.327 . S
C663 C669 1.429 1_565 S
C664 C656 1.574 . S
C664 H659 0.949 . S
C664 C670 1.368 . S
C665 C649 1.349 1_565 S
C665 H657 0.950 . S
C665 C663 1.327 . S
C666 C654 1.349 . S
C666 H660 0.950 . S
C666 C667 1.327 . S
C667 H661 0.950 . S
C667 C666 1.327 . S
C667 C671 1.429 . S
C668 C651 1.574 . S
C668 H662 0.949 . S
C668 C672 1.368 1_565 S
C669 C650 1.429 . S
C669 C663 1.429 1_545 S
C669 C670 1.523 . S
C670 C651 1.368 1_545 S
C670 C664 1.368 . S
C670 C669 1.523 . S
C671 C655 1.429 1_545 S
C671 C667 1.429 . S
C671 C672 1.523 . S
C672 C656 1.368 . S
C672 C668 1.368 1_545 S
C672 C671 1.523 . S
H673 C648 0.950 . S
H674 C650 0.950 . S
H675 C651 0.949 . S
H676 C653 0.950 . S
H677 C655 0.950 . S
C678 C679 1.349 . S
C678 C680 1.327 . S
C678 H703 0.950 . S
C679 C678 1.349 . S
C679 C695 1.349 . S
C680 C678 1.327 . S
C680 C699 1.429 . S
C680 H704 0.950 . S
C681 C698 1.574 1_556 S
C681 C700 1.368 . S
C681 H705 0.949 . S
H682 C686 0.973 . S
C683 C684 1.349 . S
C683 C685 1.327 . S
C683 H706 0.950 . S
C684 C683 1.349 . S
C684 C696 1.349 . S
C685 C683 1.327 . S
C685 C701 1.429 . S
C685 H707 0.950 . S
C686 H682 0.973 . S
C686 C694 1.531 1_554 S
C686 C702 1.386 . S
H687 C695 0.950 . S
H688 C693 0.950 . S
H689 C694 0.949 . S
H690 C696 0.950 . S
H691 C697 0.950 . S
H692 C698 0.949 . S
C693 H688 0.950 . S
C693 C695 1.327 . S
C693 C699 1.429 . S
C694 C686 1.531 1_556 S
C694 H689 0.949 . S
C694 C700 1.368 . S
C695 C679 1.349 . S
C695 H687 0.950 . S
C695 C693 1.327 . S
C696 C684 1.349 . S
C696 H690 0.950 . S
C696 C697 1.327 . S
C697 H691 0.950 . S
C697 C696 1.327 . S
C697 C701 1.429 . S
C698 C681 1.574 1_554 S
C698 H692 0.949 . S
C698 C702 1.368 . S
C699 C680 1.429 . S
C699 C693 1.429 . S
C699 C700 1.523 . S
C700 C681 1.368 . S
C700 C694 1.368 . S
C700 C699 1.523 . S
C701 C685 1.429 . S
C701 C697 1.429 . S
C701 C702 1.523 . S
C702 C686 1.386 . S
C702 C698 1.368 . S
C702 C701 1.523 . S
H703 C678 0.950 . S
H704 C680 0.950 . S
H705 C681 0.949 . S
H706 C683 0.950 . S
H707 C685 0.950 . S
C708 C709 1.349 . S
C708 C710 1.327 . S
C708 H733 0.950 . S
C709 C708 1.349 . S
C709 C725 1.349 . S
C710 C708 1.327 . S
C710 C729 1.429 . S
C710 H734 0.950 . S
C711 C728 1.574 . S
C711 C730 1.368 . S
C711 H735 0.949 . S
H712 C716 0.949 . S
C713 C714 1.349 . S
C713 C715 1.327 . S
C713 H736 0.950 . S
C714 C713 1.349 . S
C714 C726 1.349 . S
C715 C713 1.327 . S
C715 C731 1.429 . S
C715 H737 0.950 . S
C716 H712 0.949 . S
C716 C724 1.574 . S
C716 C732 1.368 . S
H717 C725 0.950 . S
H718 C723 0.950 . S
H719 C724 0.949 . S
H720 C726 0.950 . S
H721 C727 0.950 . S
H722 C728 0.949 . S
C723 H718 0.950 . S
C723 C725 1.327 . S
C723 C729 1.429 . S
C724 C716 1.574 . S
C724 H719 0.949 . S
C724 C730 1.368 . S
C725 C709 1.349 . S
C725 H717 0.950 . S
C725 C723 1.327 . S
C726 C714 1.349 . S
C726 H720 0.950 . S
C726 C727 1.327 . S
C727 H721 0.950 . S
C727 C726 1.327 . S
C727 C731 1.429 . S
C728 C711 1.574 . S
C728 H722 0.949 . S
C728 C732 1.368 . S
C729 C710 1.429 . S
C729 C723 1.429 . S
C729 C730 1.523 . S
C730 C711 1.368 . S
C730 C724 1.368 . S
C730 C729 1.523 . S
C731 C715 1.429 . S
C731 C727 1.429 . S
C731 C732 1.523 . S
C732 C716 1.368 . S
C732 C728 1.368 . S
C732 C731 1.523 . S
H733 C708 0.950 . S
H734 C710 0.950 . S
H735 C711 0.949 . S
H736 C713 0.950 . S
H737 C715 0.950 . S
C199 C19 1.916 . S
C204 C189 1.761 . S
C229 C46 1.107 . S
C234 C167 1.102 . S
C259 C95 0.249 . S
C264 C180 0.182 . S
C289 C10 1.846 . S
C294 C193 1.830 . S
C324 C163 1.250 . S
C319 C55 1.321 . S
C354 C176 0.583 . S
C349 C86 0.551 . S
C379 C59 2.989 . S
C384 C141 2.953 . S
C409 C90 1.844 . S
C414 C154 1.833 1_655 S
C439 C15 1.285 . S
C444 C124 1.218 . S
C474 C137 2.865 . S
C469 C50 3.025 . S
C504 C150 1.793 . S
C499 C99 1.933 . S
C529 C6 1.063 . S
C534 C128 1.058 . S
C564 C155 1.479 . S
C559 C9 1.436 . S
C589 C58 1.508 . S
C594 C129 1.603 . S
C619 C98 1.680 . S
C624 C142 1.718 . S
C654 C181 1.336 . S
C649 C49 1.319 . S
C684 C194 1.452 . S
C679 C89 1.400 . S
C709 C18 1.485 . S
C714 C168 1.552 . S
