# Generated by pormake.
# Topology tsx, (6,3)-cn, num edge types: 1
# Building blocks:
#     Node 0, Type 0, BuildingBlock: FUNLAD_clean_sbu_0, # of connection points: 6
#     Node 1, Type 0, BuildingBlock: FUNLAD_clean_sbu_0, # of connection points: 6
#     Node 2, Type 1, BuildingBlock: BETDIP_clean_linker_0, # of connection points: 3
#     Node 3, Type 1, BuildingBlock: BETDIP_clean_linker_0, # of connection points: 3
#     Node 4, Type 1, BuildingBlock: BETDIP_clean_linker_0, # of connection points: 3
#     Node 5, Type 1, BuildingBlock: BETDIP_clean_linker_0, # of connection points: 3
#     Edge 6, Type (0, 1), BuildingBlock: ZUJKAS_clean_linker_0, # of connection points: 2
#     Edge 7, Type (0, 1), BuildingBlock: ZUJKAS_clean_linker_0, # of connection points: 2
#     Edge 8, Type (0, 1), BuildingBlock: ZUJKAS_clean_linker_0, # of connection points: 2
#     Edge 9, Type (0, 1), BuildingBlock: ZUJKAS_clean_linker_0, # of connection points: 2
#     Edge 10, Type (0, 1), BuildingBlock: ZUJKAS_clean_linker_0, # of connection points: 2
#     Edge 11, Type (0, 1), BuildingBlock: ZUJKAS_clean_linker_0, # of connection points: 2
#     Edge 12, Type (0, 1), BuildingBlock: ZUJKAS_clean_linker_0, # of connection points: 2
#     Edge 13, Type (0, 1), BuildingBlock: ZUJKAS_clean_linker_0, # of connection points: 2
#     Edge 14, Type (0, 1), BuildingBlock: ZUJKAS_clean_linker_0, # of connection points: 2
#     Edge 15, Type (0, 1), BuildingBlock: ZUJKAS_clean_linker_0, # of connection points: 2
#     Edge 16, Type (0, 1), BuildingBlock: ZUJKAS_clean_linker_0, # of connection points: 2
#     Edge 17, Type (0, 1), BuildingBlock: ZUJKAS_clean_linker_0, # of connection points: 2
# Relax obj value: 0.109
# Max RMSD: 0.114
# Mean RMSD: 0.110
data_MOF--net-tsx--node1-FUNLAD_clean_sbu_0--node2-BETDIP_clean_linker_0--edge1-ZUJKAS_clean_linker_0
_symmetry_space_group_name_H-M    P1
_symmetry_Int_Tables_number       1
_symmetry_cell_setting            triclinic
loop_
_symmetry_equiv_pos_as_xyz
'x, y, z'
_cell_length_a     25.539481
_cell_length_b     28.18886
_cell_length_c     49.746858
_cell_angle_alpha  91.028718
_cell_angle_beta   102.0413
_cell_angle_gamma 89.913259
loop_
_atom_site_label
_atom_site_type_symbol
_atom_site_fract_x
_atom_site_fract_y
_atom_site_fract_z
_atom_type_partial_charge
C0 C 0.93135 0.9367 0.00381 0.0
N1 N 0.02648 0.00726 0.07167 0.0
C2 C 0.98221 0.00714 0.08286 0.0
C3 C 0.98728 0.00919 0.11131 0.0
C4 C 0.03841 0.01145 0.12848 0.0
C5 C 0.08346 0.01131 0.11639 0.0
C6 C 0.07654 0.00911 0.08779 0.0
Zn7 Zn 0.01638 0.00646 0.0299 0.0
C8 C 0.08599 0.93731 0.00937 0.0
N9 N 0.99148 0.00611 0.94244 0.0
C10 C 0.94225 0.00621 0.92546 0.0
C11 C 0.0369 0.00714 0.93223 0.0
C12 C 0.034 0.00864 0.904 0.0
C13 C 0.98385 0.00878 0.88589 0.0
C14 C 0.93748 0.00752 0.89694 0.0
Zn15 Zn 0.00052 0.00602 0.98422 0.0
O16 O 0.95716 0.95308 0.02674 0.0
C17 C 0.93087 0.07503 0.00505 0.0
O18 O 0.94136 0.95249 0.98163 0.0
H19 H 0.07567 0.00723 0.94604 0.0
H20 H 0.94277 0.00593 0.06968 0.0
H21 H 0.90667 0.0054 0.93403 0.0
O22 O 0.95692 0.05922 0.02768 0.0
O23 O 0.94087 0.05899 0.9826 0.0
H24 H 0.11117 0.00912 0.07844 0.0
O25 O 0.05969 0.05958 0.98732 0.0
O26 O 0.07535 0.05998 0.03234 0.0
O27 O 0.0602 0.95305 0.98665 0.0
O28 O 0.07582 0.95357 0.03171 0.0
C29 C 0.0854 0.07591 0.01022 0.0
H30 H 0.95146 0.00987 0.11974 0.0
H31 H 0.12361 0.01247 0.12889 0.0
H32 H 0.07081 0.01046 0.89651 0.0
H33 H 0.898 0.0071 0.88373 0.0
C34 C 0.42382 0.4401 0.5009 0.0
N35 N 0.51784 0.50976 0.56934 0.0
C36 C 0.47275 0.50995 0.57985 0.0
C37 C 0.47631 0.51267 0.60817 0.0
C38 C 0.52677 0.51528 0.62594 0.0
C39 C 0.57275 0.51416 0.61459 0.0
C40 C 0.56733 0.51145 0.58605 0.0
Zn41 Zn 0.50898 0.50958 0.52762 0.0
C42 C 0.57884 0.44044 0.50705 0.0
N43 N 0.48517 0.51079 0.44023 0.0
C44 C 0.436 0.51283 0.42325 0.0
C45 C 0.5307 0.51236 0.43013 0.0
C46 C 0.52799 0.51733 0.40208 0.0
C47 C 0.47793 0.52057 0.3841 0.0
C48 C 0.43143 0.51755 0.3949 0.0
Zn49 Zn 0.49363 0.5094 0.48194 0.0
O50 O 0.44969 0.45631 0.52385 0.0
C51 C 0.4242 0.57883 0.50271 0.0
O52 O 0.43384 0.45605 0.47875 0.0
H53 H 0.5694 0.51058 0.44394 0.0
H54 H 0.43379 0.50851 0.56623 0.0
H55 H 0.40035 0.51171 0.43174 0.0
O56 O 0.44949 0.56259 0.52538 0.0
O57 O 0.43458 0.56282 0.48035 0.0
H58 H 0.60262 0.51139 0.57723 0.0
O59 O 0.55329 0.56267 0.48569 0.0
O60 O 0.56818 0.56295 0.53069 0.0
O61 O 0.55304 0.45617 0.48431 0.0
O62 O 0.56854 0.4566 0.5294 0.0
C63 C 0.5787 0.57889 0.50868 0.0
H64 H 0.43986 0.5126 0.61605 0.0
H65 H 0.61241 0.51642 0.62756 0.0
H66 H 0.56479 0.51865 0.39453 0.0
H67 H 0.39207 0.52008 0.3817 0.0
H68 H 0.04639 -0.00425 0.49398 0.0
H69 H 0.01038 0.08219 0.422 0.0
H70 H 0.09631 0.95166 0.42002 0.0
H71 H 0.01969 0.14074 0.45663 0.0
C72 C -0.00573 0.12455 0.46894 0.0
C73 C 0.04853 0.00187 0.4728 0.0
C74 C 0.0738 0.96865 0.45846 0.0
C75 C 0.02601 0.04311 0.4599 0.0
C76 C 0.02855 0.05092 0.43232 0.0
C77 C 0.05424 0.01821 0.41788 0.0
C78 C 0.0766 0.9772 0.4311 0.0
N79 N -0.00065 0.07539 0.47468 0.0
H80 H 0.97296 0.98406 0.51903 0.0
H81 H 0.02784 0.06608 0.59338 0.0
H82 H 0.94047 0.93667 0.59557 0.0
H83 H 0.00805 0.127 0.55991 0.0
C84 C 0.03107 0.11133 0.54595 0.0
C85 C 0.97634 0.98891 0.54098 0.0
C86 C 0.95458 0.95505 0.55588 0.0
C87 C 0.00202 0.02938 0.55429 0.0
C88 C 0.00649 0.03569 0.58283 0.0
C89 C 0.98506 0.00196 0.59798 0.0
C90 C 0.95901 0.96196 0.58425 0.0
N91 N 0.02484 0.06238 0.53881 0.0
H92 H 0.55729 0.49269 -0.00517 0.0
H93 H 0.49614 0.56683 0.92001 0.0
H94 H 0.60079 0.44766 0.91932 0.0
H95 H 0.51404 0.6302 0.95407 0.0
C96 C 0.49061 0.61441 0.96752 0.0
C97 C 0.55451 0.49661 0.97294 0.0
C98 C 0.58294 0.46591 0.95869 0.0
C99 C 0.52459 0.53397 0.95925 0.0
C100 C 0.52101 0.53918 0.93086 0.0
C101 C 0.54783 0.50777 0.91622 0.0
C102 C 0.57913 0.47158 0.93038 0.0
N103 N 0.49782 0.56576 0.97421 0.0
H104 H 0.4761 0.48287 0.01917 0.0
H105 H 0.52548 0.57025 0.09184 0.0
H106 H 0.44013 0.44051 0.09603 0.0
H107 H 0.50529 0.62856 0.05698 0.0
C108 C 0.52962 0.61252 0.04376 0.0
C109 C 0.47799 0.48924 0.0409 0.0
C110 C 0.45582 0.45625 0.05621 0.0
C111 C 0.5022 0.53082 0.05351 0.0
C112 C 0.5051 0.53904 0.08177 0.0
C113 C 0.48353 0.50618 0.09735 0.0
C114 C 0.45874 0.46511 0.08434 0.0
N115 N 0.52515 0.56311 0.03768 0.0
H116 H 0.12291 0.11106 0.96695 0.0
H117 H 0.18956 0.1738 0.96812 0.0
H118 H 0.20699 0.18787 0.05598 0.0
H119 H 0.14045 0.12516 0.05511 0.0
H120 H 0.18772 0.27554 0.02375 0.0
H121 H 0.35562 0.1654 0.0017 0.0
H122 H 0.29047 0.15671 0.97989 0.0
H123 H 0.30158 0.14056 0.01533 0.0
C124 C 0.14105 0.12737 0.98656 0.0
C125 C 0.12637 0.11317 0.01096 0.0
C126 C 0.17927 0.16301 0.98717 0.0
C127 C 0.20334 0.18504 0.01215 0.0
C128 C 0.18887 0.17103 0.03652 0.0
H129 H 0.46566 0.36563 0.07465 0.0
H130 H 0.40525 0.29912 0.05862 0.0
C131 C 0.15091 0.13522 0.03598 0.0
C132 C 0.24227 0.22398 0.01292 0.0
H133 H 0.37079 0.24776 0.00773 0.0
C134 C 0.2276 0.2697 0.02 0.0
C135 C 0.29415 0.21587 0.00805 0.0
C136 C 0.31187 0.167 0.00096 0.0
C137 C 0.26395 0.30759 0.02298 0.0
C138 C 0.31614 0.29949 0.01842 0.0
C139 C 0.33052 0.25386 0.01084 0.0
C140 C 0.35774 0.33683 0.02454 0.0
C141 C 0.24698 0.35551 0.03217 0.0
C142 C 0.35242 0.37928 0.00988 0.0
C143 C 0.3868 0.41748 0.01909 0.0
C144 C 0.42683 0.41359 0.04307 0.0
C145 C 0.43457 0.36977 0.05636 0.0
C146 C 0.40033 0.33171 0.04715 0.0
H147 H 0.20865 0.35367 0.03934 0.0
H148 H 0.27822 0.3706 0.04907 0.0
H149 H 0.24152 0.38023 0.0147 0.0
H150 H 0.32016 0.38358 0.99213 0.0
H151 H 0.37995 0.45086 0.00847 0.0
H152 H 0.14603 0.89263 0.05392 0.0
H153 H 0.21567 0.83275 0.05383 0.0
H154 H 0.19033 0.84028 0.96554 0.0
H155 H 0.12036 0.89932 0.96534 0.0
H156 H 0.19612 0.74793 0.98471 0.0
H157 H 0.36636 0.85821 0.04053 0.0
H158 H 0.31133 0.85102 0.05749 0.0
H159 H 0.30173 0.88315 0.02601 0.0
C160 C 0.15531 0.88151 0.03449 0.0
C161 C 0.12777 0.90084 0.00963 0.0
C162 C 0.19527 0.84748 0.0345 0.0
C163 C 0.20854 0.83255 0.00971 0.0
C164 C 0.1807 0.8514 0.9849 0.0
H165 H 0.47625 0.70847 0.96089 0.0
H166 H 0.40871 0.75861 0.97553 0.0
C167 C 0.14076 0.88521 0.98484 0.0
C168 C 0.25128 0.79722 0.00921 0.0
H169 H 0.38658 0.78126 0.02666 0.0
C170 C 0.23774 0.75489 0.99411 0.0
C171 C 0.30547 0.8067 0.02141 0.0
C172 C 0.32244 0.85234 0.03712 0.0
C173 C 0.27714 0.72239 0.99008 0.0
C174 C 0.33145 0.73216 0.00195 0.0
C175 C 0.34484 0.77379 0.01779 0.0
C176 C 0.37519 0.7022 -0.00431 0.0
C177 C 0.26052 0.67914 0.97198 0.0
C178 C 0.37955 0.65414 0.00278 0.0
C179 C 0.41781 0.62534 0.99417 0.0
C180 C 0.45253 0.64446 0.97864 0.0
C181 C 0.44962 0.69292 0.97266 0.0
C182 C 0.4113 0.72157 0.98113 0.0
H183 H 0.21866 0.68179 0.96013 0.0
H184 H 0.28739 0.67383 0.95728 0.0
H185 H 0.26334 0.64728 0.98498 0.0
H186 H 0.3527 0.63875 0.01446 0.0
H187 H 0.41948 0.5881 -0.00074 0.0
H188 H 0.87184 0.88971 0.9589 0.0
H189 H 0.80225 0.82973 0.95857 0.0
H190 H 0.82645 0.84198 0.04685 0.0
H191 H 0.89635 0.90099 0.04748 0.0
H192 H 0.82171 0.74914 0.02796 0.0
H193 H 0.65085 0.85424 0.97096 0.0
H194 H 0.70623 0.8461 0.95422 0.0
H195 H 0.71508 0.88059 0.98555 0.0
C196 C 0.86229 0.8796 0.97823 0.0
C197 C 0.88956 0.90019 0.00322 0.0
C198 C 0.82235 0.84554 0.97798 0.0
C199 C 0.80878 0.83188 0.00266 0.0
C200 C 0.83628 0.85208 0.02757 0.0
H201 H 0.54017 0.70755 0.04946 0.0
H202 H 0.60686 0.75804 0.03508 0.0
C203 C 0.87622 0.88587 0.02787 0.0
C204 C 0.76634 0.79627 0.00298 0.0
H205 H 0.63134 0.77794 0.98478 0.0
C206 C 0.78012 0.75512 0.01829 0.0
C207 C 0.71215 0.80447 0.99046 0.0
C208 C 0.69485 0.84886 0.97453 0.0
C209 C 0.74101 0.72263 0.02223 0.0
C210 C 0.6867 0.73105 0.00997 0.0
C211 C 0.67306 0.77147 0.99395 0.0
C212 C 0.64319 0.70083 0.01585 0.0
C213 C 0.75793 0.68091 0.04064 0.0
C214 C 0.64059 0.65217 0.00914 0.0
C215 C 0.60294 0.62321 0.01764 0.0
C216 C 0.5669 0.64271 0.03264 0.0
C217 C 0.56786 0.6917 0.03812 0.0
C218 C 0.60569 0.72054 0.0298 0.0
H219 H 0.79929 0.68516 0.05298 0.0
H220 H 0.73032 0.67603 0.05491 0.0
H221 H 0.75673 0.64816 0.02781 0.0
H222 H 0.66848 0.63644 -0.0021 0.0
H223 H 0.60286 0.58555 0.01296 0.0
H224 H 0.89916 0.11472 0.04954 0.0
H225 H 0.83305 0.17739 0.04984 0.0
H226 H 0.80425 0.18236 0.96137 0.0
H227 H 0.86978 0.11924 0.9608 0.0
H228 H 0.83669 0.26767 0.03115 0.0
H229 H 0.65294 0.1766 0.97568 0.0
H230 H 0.7137 0.14499 0.98992 0.0
H231 H 0.70608 0.17314 0.95714 0.0
C232 C 0.87845 0.12884 0.0301 0.0
C233 C 0.88972 0.11198 0.00511 0.0
C234 C 0.84065 0.1646 0.03034 0.0
C235 C 0.81316 0.18396 0.00563 0.0
C236 C 0.82411 0.1671 0.98065 0.0
H237 H 0.68623 0.44846 0.95637 0.0
H238 H 0.74037 0.38016 0.97424 0.0
C239 C 0.86189 0.13129 0.98036 0.0
C240 C 0.77572 0.22401 0.00595 0.0
H241 H 0.65007 0.26212 0.97709 0.0
C242 C 0.79558 0.26622 0.01974 0.0
C243 C 0.72179 0.2218 0.99157 0.0
C244 C 0.69717 0.17651 0.97799 0.0
C245 C 0.76399 0.30723 0.01793 0.0
C246 C 0.71158 0.30607 0.00161 0.0
C247 C 0.69048 0.26304 0.98941 0.0
C248 C 0.68065 0.34998 0.99408 0.0
C249 C 0.7875 0.3518 0.0329 0.0
C250 C 0.62903 0.3557 -0.00067 0.0
C251 C 0.59786 0.39486 0.98904 0.0
C252 C 0.61768 0.42816 0.97297 0.0
C253 C 0.66997 0.42308 0.96857 0.0
C254 C 0.70108 0.38433 0.97897 0.0
H255 H 0.81903 0.34337 0.05119 0.0
H256 H 0.80628 0.37319 0.01892 0.0
H257 H 0.7562 0.37369 0.0396 0.0
H258 H 0.61246 0.32929 0.01077 0.0
H259 H 0.55752 0.39795 0.99255 0.0
H260 H 0.61356 0.61708 0.46541 0.0
H261 H 0.68049 0.67959 0.46693 0.0
H262 H 0.70395 0.6872 0.55528 0.0
H263 H 0.63686 0.62488 0.55404 0.0
H264 H 0.68622 0.77625 0.52786 0.0
H265 H 0.84556 0.66915 0.49472 0.0
H266 H 0.7795 0.6646 0.4734 0.0
H267 H 0.79177 0.64254 0.50776 0.0
C268 C 0.63309 0.6319 0.4852 0.0
C269 C 0.61989 0.61603 0.50963 0.0
C270 C 0.67152 0.6674 0.486 0.0
C271 C 0.69745 0.68754 0.51122 0.0
C272 C 0.68443 0.67185 0.53563 0.0
H273 H 0.96634 0.86293 0.57131 0.0
H274 H 0.90443 0.79745 0.55511 0.0
C275 C 0.64613 0.63626 0.53487 0.0
C276 C 0.73677 0.72629 0.51224 0.0
H277 H 0.86211 0.75123 0.50232 0.0
C278 C 0.72451 0.77098 0.52208 0.0
C279 C 0.78665 0.719 0.50474 0.0
C280 C 0.80211 0.6712 0.49473 0.0
C281 C 0.76129 0.80853 0.52511 0.0
C282 C 0.81134 0.80125 0.51776 0.0
C283 C 0.82336 0.75673 0.50754 0.0
C284 C 0.85353 0.83806 0.52351 0.0
C285 C 0.74721 0.85514 0.53724 0.0
C286 C 0.84665 0.88183 0.5102 0.0
C287 C 0.88199 0.91935 0.51946 0.0
C288 C 0.92444 0.91344 0.54216 0.0
C289 C 0.9335 0.86848 0.55398 0.0
C290 C 0.89837 0.83106 0.54468 0.0
H291 H 0.71073 0.85235 0.54599 0.0
H292 H 0.78083 0.86793 0.55367 0.0
H293 H 0.73976 0.88218 0.52095 0.0
H294 H 0.81249 0.88763 0.49361 0.0
H295 H 0.87411 0.95369 0.51004 0.0
H296 H 0.63988 0.39646 0.55161 0.0
H297 H 0.71129 0.33829 0.55156 0.0
H298 H 0.68554 0.34576 0.46326 0.0
H299 H 0.6138 0.40305 0.46302 0.0
H300 H 0.69498 0.25373 0.48219 0.0
H301 H 0.86099 0.36786 0.53857 0.0
H302 H 0.80635 0.35878 0.55558 0.0
H303 H 0.79548 0.39108 0.52411 0.0
C304 C 0.6494 0.38565 0.53218 0.0
C305 C 0.62125 0.4045 0.50732 0.0
C306 C 0.69039 0.35262 0.53222 0.0
C307 C 0.70415 0.33823 0.50744 0.0
C308 C 0.67561 0.35648 0.48262 0.0
H309 H 0.9791 0.21856 0.46185 0.0
H310 H 0.90958 0.26809 0.47517 0.0
C311 C 0.63462 0.38929 0.48253 0.0
C312 C 0.74818 0.30412 0.507 0.0
H313 H 0.88387 0.29118 0.52535 0.0
C314 C 0.73626 0.26164 0.49184 0.0
C315 C 0.80197 0.31483 0.51946 0.0
C316 C 0.81731 0.36074 0.53518 0.0
C317 C 0.7768 0.23009 0.48813 0.0
C318 C 0.83066 0.24094 0.50041 0.0
C319 C 0.84248 0.28285 0.51617 0.0
C320 C 0.87553 0.2115 0.49494 0.0
C321 C 0.76183 0.18659 0.47001 0.0
C322 C 0.88033 0.16359 0.50231 0.0
C323 C 0.91973 0.13515 0.49449 0.0
C324 C 0.95517 0.15445 0.47942 0.0
C325 C 0.95191 0.20285 0.47325 0.0
C326 C 0.91243 0.23115 0.48094 0.0
H327 H 0.72034 0.18868 0.45762 0.0
H328 H 0.78973 0.18158 0.45581 0.0
H329 H 0.76442 0.15481 0.48306 0.0
H330 H 0.85294 0.148 0.51362 0.0
H331 H 0.92169 0.098 0.49978 0.0
H332 H 0.36404 0.39278 0.45608 0.0
H333 H 0.29558 0.33177 0.45612 0.0
H334 H 0.32104 0.34423 0.54443 0.0
H335 H 0.38964 0.40419 0.54469 0.0
H336 H 0.31889 0.25126 0.5255 0.0
H337 H 0.14388 0.35287 0.46956 0.0
H338 H 0.1992 0.34609 0.45262 0.0
H339 H 0.20743 0.38069 0.48387 0.0
C340 C 0.35494 0.38252 0.47548 0.0
C341 C 0.38226 0.40337 0.50038 0.0
C342 C 0.31566 0.34786 0.47544 0.0
C343 C 0.30289 0.33387 0.50026 0.0
C344 C 0.33029 0.35453 0.52506 0.0
H345 H 0.04071 0.20653 0.55118 0.0
H346 H 0.10553 0.2575 0.53555 0.0
C347 C 0.3695 0.38888 0.52514 0.0
C348 C 0.26157 0.29734 0.50094 0.0
H349 H 0.12682 0.27682 0.48457 0.0
C350 C 0.27693 0.2565 0.5163 0.0
C351 C 0.20691 0.30457 0.48901 0.0
C352 C 0.18802 0.34853 0.47299 0.0
C353 C 0.23895 0.22349 0.52098 0.0
C354 C 0.18414 0.23103 0.50943 0.0
C355 C 0.16891 0.27105 0.49324 0.0
C356 C 0.14181 0.20038 0.51622 0.0
C357 C 0.25764 0.18224 0.53949 0.0
C358 C 0.13989 0.15156 0.50997 0.0
C359 C 0.1034 0.12233 0.51923 0.0
C360 C 0.06769 0.14172 0.53446 0.0
C361 C 0.06812 0.19079 0.53963 0.0
C362 C 0.10484 0.2199 0.53058 0.0
H363 H 0.29933 0.18724 0.55128 0.0
H364 H 0.2311 0.17712 0.55427 0.0
H365 H 0.25647 0.14934 0.5268 0.0
H366 H 0.16737 0.13593 0.49845 0.0
H367 H 0.10383 0.08458 0.51485 0.0
H368 H 0.37344 0.63071 0.45901 0.0
H369 H 0.31001 0.69578 0.45945 0.0
H370 H 0.32036 0.67764 0.54625 0.0
H371 H 0.38409 0.61265 0.54615 0.0
H372 H 0.20984 0.68774 0.50954 0.0
H373 H 0.35677 0.82851 0.5 0.0
H374 H 0.35345 0.77888 0.47645 0.0
H375 H 0.37673 0.7701 0.51262 0.0
C376 C 0.3621 0.64039 0.47818 0.0
C377 C 0.38404 0.61672 0.50257 0.0
C378 C 0.326 0.6776 0.47839 0.0
C379 C 0.31103 0.69157 0.50292 0.0
C380 C 0.33168 0.66734 0.52716 0.0
H381 H 0.14512 0.96247 0.5075 0.0
H382 H 0.19952 0.89319 0.52473 0.0
C383 C 0.36813 0.63035 0.52704 0.0
C384 C 0.27453 0.73217 0.50319 0.0
H385 H 0.26549 0.8514 0.493 0.0
C386 C 0.22201 0.72366 0.50626 0.0
C387 C 0.291 0.77894 0.49941 0.0
C388 C 0.34768 0.78999 0.49715 0.0
C389 C 0.18456 0.76067 0.50418 0.0
C390 C 0.20021 0.80703 0.49874 0.0
C391 C 0.25354 0.81581 0.49714 0.0
C392 C 0.16113 0.846 0.49169 0.0
C393 C 0.1284 0.74974 0.50733 0.0
C394 C 0.12085 0.84201 0.46782 0.0
C395 C 0.09007 0.88135 0.45798 0.0
C396 C 0.09912 0.92544 0.47179 0.0
C397 C 0.13718 0.92877 0.4966 0.0
C398 C 0.16831 0.88935 0.50637 0.0
H399 H 0.12732 0.71755 0.51978 0.0
H400 H 0.11113 0.77997 0.51716 0.0
H401 H 0.10272 0.74294 0.48672 0.0
H402 H 0.11527 0.80919 0.4559 0.0
H403 H 0.06076 0.87788 0.43887 0.0
H404 H 0.10735 0.06748 0.16524 0.0
H405 H 0.11624 0.07247 0.21522 0.0
H406 H 0.99089 0.96828 0.20996 0.0
H407 H 0.98273 0.96208 0.16019 0.0
H408 H 0.0369 0.09743 0.24502 0.0
H409 H 0.11417 0.9155 0.26845 0.0
H410 H 0.11371 0.94314 0.23593 0.0
H411 H 0.05347 0.91735 0.24265 0.0
C412 C 0.0822 0.04516 0.17479 0.0
C413 C 0.04448 0.01423 0.15879 0.0
C414 C 0.08706 0.04833 0.20327 0.0
C415 C 0.05464 0.02036 0.21624 0.0
C416 C 0.01682 0.98964 0.20035 0.0
H417 H 0.97378 0.04567 0.3757 0.0
H418 H 0.977 0.05097 0.32699 0.0
C419 C 0.01187 0.9865 0.1719 0.0
C420 C 0.05952 0.02374 0.24636 0.0
H421 H 0.08517 0.95795 0.30449 0.0
C422 C 0.04785 0.0671 0.25811 0.0
C423 C 0.07452 0.98426 0.26336 0.0
C424 C 0.0902 0.93753 0.25205 0.0
C425 C 0.04921 0.0716 0.2864 0.0
C426 C 0.06185 0.0315 0.30318 0.0
C427 C 0.07504 0.98856 0.29152 0.0
C428 C 0.06096 0.03277 0.33284 0.0
C429 C 0.03742 0.11924 0.29809 0.0
C430 C 0.10698 0.02059 0.35223 0.0
C431 C 0.10516 0.01731 0.37997 0.0
C432 C 0.05717 0.02596 0.38884 0.0
C433 C 0.01145 0.03941 0.3695 0.0
C434 C 0.01328 0.04253 0.3417 0.0
H435 H 0.04347 0.14861 0.28444 0.0
H436 H -0.00499 0.12004 0.30018 0.0
H437 H 0.06318 0.12571 0.31874 0.0
H438 H 0.14415 0.01286 0.3458 0.0
H439 H 0.14116 0.00741 0.39447 0.0
H440 H 0.91319 0.0591 0.84764 0.0
H441 H 0.9106 0.06386 0.79821 0.0
H442 H 0.04506 0.96868 0.80671 0.0
H443 H 0.04719 0.9626 0.85583 0.0
H444 H 0.05064 0.05994 0.7767 0.0
H445 H 0.86693 0.95096 0.73967 0.0
H446 H 0.86456 -0.00288 0.76491 0.0
H447 H 0.90651 0.94644 0.77415 0.0
C448 C 0.94171 0.03863 0.83893 0.0
C449 C 0.9805 0.01056 0.85573 0.0
C450 C 0.94034 0.04163 0.81075 0.0
C451 C 0.9777 0.01665 0.79897 0.0
C452 C 0.01614 0.98842 0.81555 0.0
H453 H 0.00772 0.93449 0.63739 0.0
H454 H 0.00556 0.94274 0.68611 0.0
C455 C 0.01738 0.98518 0.84363 0.0
C456 C 0.97722 0.01982 0.76932 0.0
H457 H 0.91033 0.98085 0.70617 0.0
C458 C 0.01975 0.04311 0.76119 0.0
C459 C 0.93696 -0.00249 0.74934 0.0
C460 C 0.89115 0.9713 0.75727 0.0
C461 C 0.02342 0.04411 0.73344 0.0
C462 C 0.98356 0.02122 0.71351 0.0
C463 C 0.94064 -0.00147 0.72161 0.0
C464 C 0.98739 0.01769 0.68434 0.0
C465 C 0.07065 0.06818 0.72562 0.0
C466 C 0.97837 0.05734 0.66737 0.0
C467 C 0.9791 0.0527 0.63939 0.0
C468 C 0.98876 0.00826 0.62803 0.0
C469 C -0.00076 0.96901 0.64539 0.0
C470 C -0.00175 0.97365 0.67323 0.0
H471 H 0.10123 0.07959 0.7439 0.0
H472 H 0.08971 0.04393 0.71266 0.0
H473 H 0.05666 0.09994 0.7133 0.0
H474 H 0.96953 0.09155 0.67563 0.0
H475 H 0.97036 0.08347 0.62651 0.0
H476 H 0.46609 0.57017 0.65342 0.0
H477 H 0.47023 0.57462 0.70293 0.0
H478 H 0.60081 0.47478 0.7162 0.0
H479 H 0.59675 0.46987 0.66662 0.0
H480 H 0.45582 0.50007 0.73643 0.0
H481 H 0.65613 0.58277 0.77123 0.0
H482 H 0.62068 0.58278 0.73579 0.0
H483 H 0.65599 0.53067 0.74988 0.0
C484 C 0.49567 0.5491 0.66686 0.0
C485 C 0.53102 0.51954 0.6561 0.0
C486 C 0.49815 0.5519 0.69514 0.0
C487 C 0.5362 0.52548 0.71321 0.0
C488 C 0.57188 0.49623 0.70262 0.0
H489 H 0.53225 0.43697 0.87723 0.0
H490 H 0.5279 0.44387 0.82792 0.0
C491 C 0.56948 0.49343 0.6743 0.0
C492 C 0.53661 0.52664 0.743 0.0
H493 H 0.61535 0.55119 0.80603 0.0
C494 C 0.49056 0.51154 0.75165 0.0
C495 C 0.58175 0.54219 0.76274 0.0
C496 C 0.6313 0.56096 0.7545 0.0
C497 C 0.48893 0.51034 0.77963 0.0
C498 C 0.53484 0.52401 0.79941 0.0
C499 C 0.58038 0.54039 0.79076 0.0
C500 C 0.53686 0.52024 0.82921 0.0
C501 C 0.43806 0.49461 0.78778 0.0
C502 C 0.54425 0.56086 0.8463 0.0
C503 C 0.54713 0.55701 0.87456 0.0
C504 C 0.54322 0.51236 0.88616 0.0
C505 C 0.53586 0.47179 0.86892 0.0
C506 C 0.53285 0.4757 0.84073 0.0
H507 H 0.40283 0.49758 0.77051 0.0
H508 H 0.44198 0.45688 0.79387 0.0
H509 H 0.43048 0.51595 0.80556 0.0
H510 H 0.54777 0.59551 0.83776 0.0
H511 H 0.55342 0.5888 0.88738 0.0
H512 H 0.53718 0.58111 0.36024 0.0
H513 H 0.53673 0.58872 0.31131 0.0
H514 H 0.41211 0.48287 0.29183 0.0
H515 H 0.41211 0.47533 0.34079 0.0
H516 H 0.56077 0.51968 0.27753 0.0
H517 H 0.35549 0.58559 0.23723 0.0
H518 H 0.38562 0.58623 0.27345 0.0
H519 H 0.35637 0.53255 0.25673 0.0
C520 C 0.50948 0.55962 0.3455 0.0
C521 C 0.47481 0.52744 0.35432 0.0
C522 C 0.5091 0.56418 0.31757 0.0
C523 C 0.47398 0.53679 0.29791 0.0
C524 C 0.43866 0.50519 0.3066 0.0
H525 H 0.50824 0.44191 0.13841 0.0
H526 H 0.50776 0.45379 0.18708 0.0
C527 C 0.43881 0.50078 0.33457 0.0
C528 C 0.47723 0.53864 0.26856 0.0
H529 H 0.40275 0.55445 0.20392 0.0
C530 C 0.52634 0.52779 0.26146 0.0
C531 C 0.43254 0.54994 0.24765 0.0
C532 C 0.37967 0.56472 0.25413 0.0
C533 C 0.53147 0.52615 0.23395 0.0
C534 C 0.48601 0.5347 0.21297 0.0
C535 C 0.43741 0.54741 0.22006 0.0
C536 C 0.48748 0.52831 0.18354 0.0
C537 C 0.58551 0.51515 0.22761 0.0
C538 C 0.4753 0.56611 0.16532 0.0
C539 C 0.47503 0.5593 0.13737 0.0
C540 C 0.48642 0.51443 0.12718 0.0
C541 C 0.49886 0.47678 0.14558 0.0
C542 C 0.49915 0.48363 0.17344 0.0
H543 H 0.61849 0.5237 0.24543 0.0
H544 H 0.58767 0.47669 0.22281 0.0
H545 H 0.59204 0.53522 0.20958 0.0
H546 H 0.46581 0.60079 0.17273 0.0
H547 H 0.46468 0.58882 0.12364 0.0
loop_
_geom_bond_atom_site_label_1
_geom_bond_atom_site_label_2
_geom_bond_distance
_geom_bond_site_symmetry_2
_ccdc_geom_bond_type
C0 O16 1.251 . S
C0 O18 1.254 1_554 S
N1 C2 1.333 1_455 S
N1 C6 1.307 . S
N1 Zn7 2.020 . S
C2 N1 1.333 1_655 S
C2 C3 1.379 . S
C2 H20 0.952 1_545 S
C3 C2 1.379 . S
C3 C4 1.390 1_655 S
C3 H30 0.949 1_545 S
C4 C3 1.390 1_455 S
C4 C5 1.357 . S
C5 C4 1.357 . S
C5 C6 1.370 . S
C5 H31 0.950 . S
C6 N1 1.307 . S
C6 C5 1.370 . S
C6 H24 0.948 . S
Zn7 N1 2.020 . S
Zn7 O16 2.039 1_445 S
Zn7 O22 2.034 1_455 S
Zn7 O26 2.025 . S
Zn7 O28 2.024 1_545 S
C8 O27 1.246 1_554 S
C8 O28 1.249 . S
N9 C10 1.307 1_455 S
N9 C11 1.333 . S
N9 Zn15 2.020 . S
C10 N9 1.307 1_655 S
C10 C14 1.370 . S
C10 H21 0.948 1_545 S
C11 N9 1.333 . S
C11 C12 1.379 . S
C11 H19 0.952 . S
C12 C11 1.379 . S
C12 C13 1.390 1_455 S
C12 H32 0.949 . S
C13 C12 1.390 1_655 S
C13 C14 1.357 . S
C14 C10 1.370 . S
C14 C13 1.357 . S
C14 H33 0.950 1_545 S
Zn15 N9 2.020 . S
Zn15 O18 2.025 1_445 S
Zn15 O23 2.024 1_455 S
Zn15 O25 2.039 . S
Zn15 O27 2.034 1_545 S
O16 C0 1.251 . S
O16 Zn7 2.039 1_665 S
C17 O22 1.246 . S
C17 O23 1.249 1_554 S
O18 C0 1.254 1_556 S
O18 Zn15 2.025 1_665 S
H19 C11 0.952 . S
H20 C2 0.952 1_565 S
H21 C10 0.948 1_565 S
O22 Zn7 2.034 1_655 S
O22 C17 1.246 . S
O23 Zn15 2.024 1_655 S
O23 C17 1.249 1_556 S
H24 C6 0.948 . S
O25 Zn15 2.039 . S
O25 C29 1.251 1_556 S
O26 Zn7 2.025 . S
O26 C29 1.254 . S
O27 C8 1.246 1_556 S
O27 Zn15 2.034 1_565 S
O28 Zn7 2.024 1_565 S
O28 C8 1.249 . S
C29 O25 1.251 1_554 S
C29 O26 1.254 . S
H30 C3 0.949 1_565 S
H31 C5 0.950 . S
H32 C12 0.949 . S
H33 C14 0.950 1_565 S
C34 O50 1.251 . S
C34 O52 1.254 . S
N35 C36 1.333 . S
N35 C40 1.307 . S
N35 Zn41 2.020 . S
C36 N35 1.333 . S
C36 C37 1.379 . S
C36 H54 0.952 . S
C37 C36 1.379 . S
C37 C38 1.390 . S
C37 H64 0.949 . S
C38 C37 1.390 . S
C38 C39 1.357 . S
C39 C38 1.357 . S
C39 C40 1.370 . S
C39 H65 0.950 . S
C40 N35 1.307 . S
C40 C39 1.370 . S
C40 H58 0.948 . S
Zn41 N35 2.020 . S
Zn41 O50 2.039 . S
Zn41 O56 2.034 . S
Zn41 O60 2.025 . S
Zn41 O62 2.024 . S
C42 O61 1.246 . S
C42 O62 1.249 . S
N43 C44 1.307 . S
N43 C45 1.333 . S
N43 Zn49 2.020 . S
C44 N43 1.307 . S
C44 C48 1.370 . S
C44 H55 0.948 . S
C45 N43 1.333 . S
C45 C46 1.379 . S
C45 H53 0.952 . S
C46 C45 1.379 . S
C46 C47 1.390 . S
C46 H66 0.949 . S
C47 C46 1.390 . S
C47 C48 1.357 . S
C48 C44 1.370 . S
C48 C47 1.357 . S
C48 H67 0.950 . S
Zn49 N43 2.020 . S
Zn49 O52 2.025 . S
Zn49 O57 2.024 . S
Zn49 O59 2.039 . S
Zn49 O61 2.034 . S
O50 C34 1.251 . S
O50 Zn41 2.039 . S
C51 O56 1.246 . S
C51 O57 1.249 . S
O52 C34 1.254 . S
O52 Zn49 2.025 . S
H53 C45 0.952 . S
H54 C36 0.952 . S
H55 C44 0.948 . S
O56 Zn41 2.034 . S
O56 C51 1.246 . S
O57 Zn49 2.024 . S
O57 C51 1.249 . S
H58 C40 0.948 . S
O59 Zn49 2.039 . S
O59 C63 1.251 . S
O60 Zn41 2.025 . S
O60 C63 1.254 . S
O61 C42 1.246 . S
O61 Zn49 2.034 . S
O62 Zn41 2.024 . S
O62 C42 1.249 . S
C63 O59 1.251 . S
C63 O60 1.254 . S
H64 C37 0.949 . S
H65 C39 0.950 . S
H66 C46 0.949 . S
H67 C48 0.950 . S
H68 C73 0.930 . S
H69 C76 0.930 1_655 S
H70 C78 0.930 . S
H71 C72 1.016 . S
C72 H71 1.016 . S
C72 N79 1.286 . S
C73 H68 0.930 . S
C73 C74 1.397 . S
C73 C75 1.361 1_565 S
C74 C73 1.397 . S
C74 C78 1.390 . S
C75 C73 1.361 1_545 S
C75 C76 1.393 . S
C75 N79 1.413 1_455 S
C76 H69 0.930 1_455 S
C76 C75 1.393 . S
C76 C77 1.399 . S
C77 C76 1.399 . S
C77 C78 1.381 1_545 S
C78 H70 0.930 . S
C78 C74 1.390 . S
C78 C77 1.381 1_565 S
N79 C72 1.286 . S
N79 C75 1.413 1_655 S
H80 C85 0.930 1_565 S
H81 C88 0.930 . S
H82 C90 0.930 . S
H83 C84 1.016 . S
C84 H83 1.016 . S
C84 N91 1.286 . S
C85 H80 0.930 1_545 S
C85 C86 1.397 1_545 S
C85 C87 1.361 1_655 S
C86 C85 1.397 1_565 S
C86 C90 1.390 . S
C87 C85 1.361 1_455 S
C87 C88 1.393 . S
C87 N91 1.413 . S
C88 H81 0.930 . S
C88 C87 1.393 . S
C88 C89 1.399 1_455 S
C89 C88 1.399 1_655 S
C89 C90 1.381 1_545 S
C90 H82 0.930 . S
C90 C86 1.390 . S
C90 C89 1.381 1_565 S
N91 C84 1.286 . S
N91 C87 1.413 . S
H92 C97 0.930 1_554 S
H93 C100 0.930 . S
H94 C102 0.930 . S
H95 C96 1.016 . S
C96 H95 1.016 . S
C96 N103 1.286 . S
C97 H92 0.930 1_556 S
C97 C98 1.397 . S
C97 C99 1.361 . S
C98 C97 1.397 . S
C98 C102 1.390 . S
C99 C97 1.361 . S
C99 C100 1.393 . S
C99 N103 1.413 . S
C100 H93 0.930 . S
C100 C99 1.393 . S
C100 C101 1.399 . S
C101 C100 1.399 . S
C101 C102 1.381 . S
C102 H94 0.930 . S
C102 C98 1.390 . S
C102 C101 1.381 . S
N103 C96 1.286 . S
N103 C99 1.413 . S
H104 C109 0.930 . S
H105 C112 0.930 . S
H106 C114 0.930 . S
H107 C108 1.016 . S
C108 H107 1.016 . S
C108 N115 1.286 . S
C109 H104 0.930 . S
C109 C110 1.397 . S
C109 C111 1.361 . S
C110 C109 1.397 . S
C110 C114 1.390 . S
C111 C109 1.361 . S
C111 C112 1.393 . S
C111 N115 1.413 . S
C112 H105 0.930 . S
C112 C111 1.393 . S
C112 C113 1.399 . S
C113 C112 1.399 . S
C113 C114 1.381 . S
C114 H106 0.930 . S
C114 C110 1.390 . S
C114 C113 1.381 . S
N115 C108 1.286 . S
N115 C111 1.413 . S
H116 C124 0.929 . S
H117 C126 0.930 . S
H118 C128 0.930 . S
H119 C131 0.929 . S
H120 C134 0.930 1_556 S
H121 C136 0.960 . S
H122 C136 0.960 . S
H123 C136 0.960 . S
C124 H116 0.929 . S
C124 C125 1.377 1_556 S
C124 C126 1.384 . S
C125 C124 1.377 1_554 S
C125 C131 1.390 . S
C126 H117 0.930 . S
C126 C124 1.384 . S
C126 C127 1.372 1_556 S
C127 C126 1.372 1_554 S
C127 C128 1.400 . S
C127 C132 1.490 . S
C128 H118 0.930 . S
C128 C127 1.400 . S
C128 C131 1.386 . S
H129 C145 0.930 . S
H130 C146 0.931 . S
C131 H119 0.929 . S
C131 C125 1.390 . S
C131 C128 1.386 . S
C132 C127 1.490 . S
C132 C134 1.395 . S
C132 C135 1.403 . S
H133 C139 0.930 . S
C134 H120 0.930 1_554 S
C134 C132 1.395 . S
C134 C137 1.403 . S
C135 C132 1.403 . S
C135 C136 1.524 . S
C135 C139 1.400 . S
C136 H121 0.960 . S
C136 H122 0.960 . S
C136 H123 0.960 . S
C136 C135 1.524 . S
C137 C134 1.403 . S
C137 C138 1.392 . S
C137 C141 1.495 1_554 S
C138 C137 1.392 . S
C138 C139 1.385 . S
C138 C140 1.478 . S
C139 H133 0.930 . S
C139 C135 1.400 . S
C139 C138 1.385 . S
C140 C138 1.478 . S
C140 C142 1.381 . S
C140 C146 1.383 . S
C141 C137 1.495 1_556 S
C141 H147 0.959 . S
C141 H148 0.961 1_556 S
C141 H149 0.960 . S
C142 C140 1.381 . S
C142 C143 1.394 . S
C142 H150 0.930 1_554 S
C143 C142 1.394 . S
C143 C144 1.383 . S
C143 H151 0.909 1_554 S
C144 C143 1.383 . S
C144 C145 1.377 . S
C145 H129 0.930 . S
C145 C144 1.377 . S
C145 C146 1.379 . S
C146 H130 0.931 . S
C146 C140 1.383 . S
C146 C145 1.379 . S
H147 C141 0.959 . S
H148 C141 0.961 1_554 S
H149 C141 0.960 . S
H150 C142 0.930 1_556 S
H151 C143 0.909 1_556 S
H152 C160 0.929 . S
H153 C162 0.930 . S
H154 C164 0.930 . S
H155 C167 0.929 . S
H156 C170 0.930 . S
H157 C172 0.960 . S
H158 C172 0.960 . S
H159 C172 0.960 . S
C160 H152 0.929 . S
C160 C161 1.377 . S
C160 C162 1.384 . S
C161 C160 1.377 . S
C161 C167 1.390 1_554 S
C162 H153 0.930 . S
C162 C160 1.384 . S
C162 C163 1.372 . S
C163 C162 1.372 . S
C163 C164 1.400 1_554 S
C163 C168 1.490 . S
C164 H154 0.930 . S
C164 C163 1.400 1_556 S
C164 C167 1.386 . S
H165 C181 0.930 . S
H166 C182 0.931 . S
C167 H155 0.929 . S
C167 C161 1.390 1_556 S
C167 C164 1.386 . S
C168 C163 1.490 . S
C168 C170 1.395 . S
C168 C171 1.403 . S
H169 C175 0.930 . S
C170 H156 0.930 . S
C170 C168 1.395 . S
C170 C173 1.403 . S
C171 C168 1.403 . S
C171 C172 1.524 . S
C171 C175 1.400 . S
C172 H157 0.960 . S
C172 H158 0.960 . S
C172 H159 0.960 . S
C172 C171 1.524 . S
C173 C170 1.403 . S
C173 C174 1.392 . S
C173 C177 1.495 1_554 S
C174 C173 1.392 . S
C174 C175 1.385 . S
C174 C176 1.482 . S
C175 H169 0.930 . S
C175 C171 1.400 . S
C175 C174 1.385 . S
C176 C174 1.482 . S
C176 C178 1.394 . S
C176 C182 1.365 1_554 S
C177 C173 1.495 1_556 S
C177 H183 0.959 . S
C177 H184 0.961 . S
C177 H185 0.960 1_556 S
C178 C176 1.394 . S
C178 C179 1.394 . S
C178 H186 0.930 . S
C179 C178 1.394 . S
C179 C180 1.383 1_554 S
C179 H187 0.929 . S
C180 C179 1.383 1_556 S
C180 C181 1.377 . S
C181 H165 0.930 . S
C181 C180 1.377 . S
C181 C182 1.379 . S
C182 H166 0.931 . S
C182 C176 1.365 1_556 S
C182 C181 1.379 . S
H183 C177 0.959 . S
H184 C177 0.961 . S
H185 C177 0.960 1_554 S
H186 C178 0.930 . S
H187 C179 0.929 . S
H188 C196 0.929 . S
H189 C198 0.930 . S
H190 C200 0.930 . S
H191 C203 0.929 . S
H192 C206 0.930 . S
H193 C208 0.960 . S
H194 C208 0.960 . S
H195 C208 0.960 1_554 S
C196 H188 0.929 . S
C196 C197 1.377 1_556 S
C196 C198 1.384 . S
C197 C196 1.377 1_554 S
C197 C203 1.390 . S
C198 H189 0.930 . S
C198 C196 1.384 . S
C198 C199 1.372 1_556 S
C199 C198 1.372 1_554 S
C199 C200 1.400 . S
C199 C204 1.490 . S
C200 H190 0.930 . S
C200 C199 1.400 . S
C200 C203 1.386 . S
H201 C217 0.930 . S
H202 C218 0.931 . S
C203 H191 0.929 . S
C203 C197 1.390 . S
C203 C200 1.386 . S
C204 C199 1.490 . S
C204 C206 1.395 . S
C204 C207 1.403 . S
H205 C211 0.930 . S
C206 H192 0.930 . S
C206 C204 1.395 . S
C206 C209 1.403 . S
C207 C204 1.403 . S
C207 C208 1.524 1_554 S
C207 C211 1.400 . S
C208 H193 0.960 . S
C208 H194 0.960 . S
C208 H195 0.960 1_556 S
C208 C207 1.524 1_556 S
C209 C206 1.403 . S
C209 C210 1.392 . S
C209 C213 1.495 . S
C210 C209 1.392 . S
C210 C211 1.385 . S
C210 C212 1.478 . S
C211 H205 0.930 . S
C211 C207 1.400 . S
C211 C210 1.385 . S
C212 C210 1.478 . S
C212 C214 1.381 . S
C212 C218 1.383 . S
C213 C209 1.495 . S
C213 H219 0.959 . S
C213 H220 0.961 . S
C213 H221 0.960 . S
C214 C212 1.381 . S
C214 C215 1.394 . S
C214 H222 0.930 1_554 S
C215 C214 1.394 . S
C215 C216 1.383 . S
C215 H223 0.929 1_554 S
C216 C215 1.383 . S
C216 C217 1.377 . S
C217 H201 0.930 . S
C217 C216 1.377 . S
C217 C218 1.379 . S
C218 H202 0.931 . S
C218 C212 1.383 . S
C218 C217 1.379 . S
H219 C213 0.959 . S
H220 C213 0.961 . S
H221 C213 0.960 . S
H222 C214 0.930 1_556 S
H223 C215 0.929 1_556 S
H224 C232 0.929 . S
H225 C234 0.930 . S
H226 C236 0.930 . S
H227 C239 0.929 . S
H228 C242 0.930 . S
H229 C244 0.960 . S
H230 C244 0.960 . S
H231 C244 0.960 . S
C232 H224 0.929 . S
C232 C233 1.377 . S
C232 C234 1.384 . S
C233 C232 1.377 . S
C233 C239 1.390 1_554 S
C234 H225 0.930 . S
C234 C232 1.384 . S
C234 C235 1.372 . S
C235 C234 1.372 . S
C235 C236 1.400 1_554 S
C235 C240 1.489 . S
C236 H226 0.930 . S
C236 C235 1.400 1_556 S
C236 C239 1.386 . S
H237 C253 0.930 . S
H238 C254 0.931 . S
C239 H227 0.929 . S
C239 C233 1.390 1_556 S
C239 C236 1.386 . S
C240 C235 1.489 . S
C240 C242 1.411 . S
C240 C243 1.389 1_554 S
H241 C247 0.930 . S
C242 H228 0.930 . S
C242 C240 1.411 . S
C242 C245 1.403 . S
C243 C240 1.389 1_556 S
C243 C244 1.524 . S
C243 C247 1.400 . S
C244 H229 0.960 . S
C244 H230 0.960 . S
C244 H231 0.960 . S
C244 C243 1.524 . S
C245 C242 1.403 . S
C245 C246 1.392 1_554 S
C245 C249 1.495 . S
C246 C245 1.392 1_556 S
C246 C247 1.385 . S
C246 C248 1.478 . S
C247 H241 0.930 . S
C247 C243 1.400 . S
C247 C246 1.385 . S
C248 C246 1.478 . S
C248 C250 1.381 1_556 S
C248 C254 1.383 . S
C249 C245 1.495 . S
C249 H255 0.959 . S
C249 H256 0.961 . S
C249 H257 0.960 . S
C250 C248 1.381 1_554 S
C250 C251 1.394 . S
C250 H258 0.930 . S
C251 C250 1.394 . S
C251 C252 1.383 1_554 S
C251 H259 0.929 . S
C252 C251 1.383 1_556 S
C252 C253 1.377 . S
C253 H237 0.930 . S
C253 C252 1.377 . S
C253 C254 1.379 . S
C254 H238 0.931 . S
C254 C248 1.383 . S
C254 C253 1.379 . S
H255 C249 0.959 . S
H256 C249 0.961 . S
H257 C249 0.960 . S
H258 C250 0.930 . S
H259 C251 0.929 . S
H260 C268 0.929 . S
H261 C270 0.930 . S
H262 C272 0.930 . S
H263 C275 0.929 . S
H264 C278 0.930 . S
H265 C280 0.960 . S
H266 C280 0.960 . S
H267 C280 0.960 . S
C268 H260 0.929 . S
C268 C269 1.377 . S
C268 C270 1.384 . S
C269 C268 1.377 . S
C269 C275 1.390 . S
C270 H261 0.930 . S
C270 C268 1.384 . S
C270 C271 1.372 . S
C271 C270 1.372 . S
C271 C272 1.400 . S
C271 C276 1.490 . S
C272 H262 0.930 . S
C272 C271 1.400 . S
C272 C275 1.386 . S
H273 C289 0.930 . S
H274 C290 0.931 . S
C275 H263 0.929 . S
C275 C269 1.390 . S
C275 C272 1.386 . S
C276 C271 1.490 . S
C276 C278 1.395 . S
C276 C279 1.403 . S
H277 C283 0.930 . S
C278 H264 0.930 . S
C278 C276 1.395 . S
C278 C281 1.403 . S
C279 C276 1.403 . S
C279 C280 1.524 . S
C279 C283 1.400 . S
C280 H265 0.960 . S
C280 H266 0.960 . S
C280 H267 0.960 . S
C280 C279 1.524 . S
C281 C278 1.403 . S
C281 C282 1.392 . S
C281 C285 1.495 . S
C282 C281 1.392 . S
C282 C283 1.385 . S
C282 C284 1.478 . S
C283 H277 0.930 . S
C283 C279 1.400 . S
C283 C282 1.385 . S
C284 C282 1.478 . S
C284 C286 1.381 . S
C284 C290 1.383 . S
C285 C281 1.495 . S
C285 H291 0.959 . S
C285 H292 0.961 . S
C285 H293 0.960 . S
C286 C284 1.381 . S
C286 C287 1.394 . S
C286 H294 0.930 . S
C287 C286 1.394 . S
C287 C288 1.383 . S
C287 H295 0.929 . S
C288 C287 1.383 . S
C288 C289 1.377 . S
C289 H273 0.930 . S
C289 C288 1.377 . S
C289 C290 1.379 . S
C290 H274 0.931 . S
C290 C284 1.383 . S
C290 C289 1.379 . S
H291 C285 0.959 . S
H292 C285 0.961 . S
H293 C285 0.960 . S
H294 C286 0.930 . S
H295 C287 0.929 . S
H296 C304 0.929 . S
H297 C306 0.930 . S
H298 C308 0.930 . S
H299 C311 0.929 . S
H300 C314 0.930 . S
H301 C316 0.960 . S
H302 C316 0.960 . S
H303 C316 0.960 . S
C304 H296 0.929 . S
C304 C305 1.377 . S
C304 C306 1.384 . S
C305 C304 1.377 . S
C305 C311 1.390 . S
C306 H297 0.930 . S
C306 C304 1.384 . S
C306 C307 1.372 . S
C307 C306 1.372 . S
C307 C308 1.400 . S
C307 C312 1.490 . S
C308 H298 0.930 . S
C308 C307 1.400 . S
C308 C311 1.386 . S
H309 C325 0.930 . S
H310 C326 0.931 . S
C311 H299 0.929 . S
C311 C305 1.390 . S
C311 C308 1.386 . S
C312 C307 1.490 . S
C312 C314 1.395 . S
C312 C315 1.403 . S
H313 C319 0.930 . S
C314 H300 0.930 . S
C314 C312 1.395 . S
C314 C317 1.403 . S
C315 C312 1.403 . S
C315 C316 1.524 . S
C315 C319 1.400 . S
C316 H301 0.960 . S
C316 H302 0.960 . S
C316 H303 0.960 . S
C316 C315 1.524 . S
C317 C314 1.403 . S
C317 C318 1.392 . S
C317 C321 1.495 . S
C318 C317 1.392 . S
C318 C319 1.385 . S
C318 C320 1.478 . S
C319 H313 0.930 . S
C319 C315 1.400 . S
C319 C318 1.385 . S
C320 C318 1.478 . S
C320 C322 1.381 . S
C320 C326 1.383 . S
C321 C317 1.495 . S
C321 H327 0.959 . S
C321 H328 0.961 . S
C321 H329 0.960 . S
C322 C320 1.381 . S
C322 C323 1.394 . S
C322 H330 0.930 . S
C323 C322 1.394 . S
C323 C324 1.383 . S
C323 H331 0.929 . S
C324 C323 1.383 . S
C324 C325 1.377 . S
C325 H309 0.930 . S
C325 C324 1.377 . S
C325 C326 1.379 . S
C326 H310 0.931 . S
C326 C320 1.383 . S
C326 C325 1.379 . S
H327 C321 0.959 . S
H328 C321 0.961 . S
H329 C321 0.960 . S
H330 C322 0.930 . S
H331 C323 0.929 . S
H332 C340 0.929 . S
H333 C342 0.930 . S
H334 C344 0.930 . S
H335 C347 0.929 . S
H336 C350 0.930 . S
H337 C352 0.960 . S
H338 C352 0.960 . S
H339 C352 0.960 . S
C340 H332 0.929 . S
C340 C341 1.377 . S
C340 C342 1.384 . S
C341 C340 1.377 . S
C341 C347 1.390 . S
C342 H333 0.930 . S
C342 C340 1.384 . S
C342 C343 1.372 . S
C343 C342 1.372 . S
C343 C344 1.400 . S
C343 C348 1.490 . S
C344 H334 0.930 . S
C344 C343 1.400 . S
C344 C347 1.386 . S
H345 C361 0.930 . S
H346 C362 0.931 . S
C347 H335 0.929 . S
C347 C341 1.390 . S
C347 C344 1.386 . S
C348 C343 1.490 . S
C348 C350 1.395 . S
C348 C351 1.403 . S
H349 C355 0.930 . S
C350 H336 0.930 . S
C350 C348 1.395 . S
C350 C353 1.403 . S
C351 C348 1.403 . S
C351 C352 1.524 . S
C351 C355 1.400 . S
C352 H337 0.960 . S
C352 H338 0.960 . S
C352 H339 0.960 . S
C352 C351 1.524 . S
C353 C350 1.403 . S
C353 C354 1.392 . S
C353 C357 1.495 . S
C354 C353 1.392 . S
C354 C355 1.385 . S
C354 C356 1.478 . S
C355 H349 0.930 . S
C355 C351 1.400 . S
C355 C354 1.385 . S
C356 C354 1.478 . S
C356 C358 1.381 . S
C356 C362 1.383 . S
C357 C353 1.495 . S
C357 H363 0.959 . S
C357 H364 0.961 . S
C357 H365 0.960 . S
C358 C356 1.381 . S
C358 C359 1.394 . S
C358 H366 0.930 . S
C359 C358 1.394 . S
C359 C360 1.383 . S
C359 H367 0.929 . S
C360 C359 1.383 . S
C360 C361 1.377 . S
C361 H345 0.930 . S
C361 C360 1.377 . S
C361 C362 1.379 . S
C362 H346 0.931 . S
C362 C356 1.383 . S
C362 C361 1.379 . S
H363 C357 0.959 . S
H364 C357 0.961 . S
H365 C357 0.960 . S
H366 C358 0.930 . S
H367 C359 0.929 . S
H368 C376 0.929 . S
H369 C378 0.930 . S
H370 C380 0.930 . S
H371 C383 0.929 . S
H372 C386 0.930 . S
H373 C388 0.960 . S
H374 C388 0.960 . S
H375 C388 0.960 . S
C376 H368 0.929 . S
C376 C377 1.377 . S
C376 C378 1.384 . S
C377 C376 1.377 . S
C377 C383 1.390 . S
C378 H369 0.930 . S
C378 C376 1.384 . S
C378 C379 1.372 . S
C379 C378 1.372 . S
C379 C380 1.400 . S
C379 C384 1.490 . S
C380 H370 0.930 . S
C380 C379 1.400 . S
C380 C383 1.386 . S
H381 C397 0.930 . S
H382 C398 0.931 . S
C383 H371 0.929 . S
C383 C377 1.390 . S
C383 C380 1.386 . S
C384 C379 1.490 . S
C384 C386 1.395 . S
C384 C387 1.403 . S
H385 C391 0.930 . S
C386 H372 0.930 . S
C386 C384 1.395 . S
C386 C389 1.403 . S
C387 C384 1.403 . S
C387 C388 1.524 . S
C387 C391 1.400 . S
C388 H373 0.960 . S
C388 H374 0.960 . S
C388 H375 0.960 . S
C388 C387 1.524 . S
C389 C386 1.403 . S
C389 C390 1.392 . S
C389 C393 1.495 . S
C390 C389 1.392 . S
C390 C391 1.385 . S
C390 C392 1.478 . S
C391 H385 0.930 . S
C391 C387 1.400 . S
C391 C390 1.385 . S
C392 C390 1.478 . S
C392 C394 1.381 . S
C392 C398 1.383 . S
C393 C389 1.495 . S
C393 H399 0.959 . S
C393 H400 0.961 . S
C393 H401 0.960 . S
C394 C392 1.381 . S
C394 C395 1.394 . S
C394 H402 0.930 . S
C395 C394 1.394 . S
C395 C396 1.383 . S
C395 H403 0.929 . S
C396 C395 1.383 . S
C396 C397 1.377 . S
C397 H381 0.930 . S
C397 C396 1.377 . S
C397 C398 1.379 . S
C398 H382 0.931 . S
C398 C392 1.383 . S
C398 C397 1.379 . S
H399 C393 0.959 . S
H400 C393 0.961 . S
H401 C393 0.960 . S
H402 C394 0.930 . S
H403 C395 0.929 . S
H404 C412 0.929 . S
H405 C414 0.930 . S
H406 C416 0.930 . S
H407 C419 0.929 . S
H408 C422 0.930 . S
H409 C424 0.960 . S
H410 C424 0.960 . S
H411 C424 0.960 . S
C412 H404 0.929 . S
C412 C413 1.377 . S
C412 C414 1.384 . S
C413 C412 1.377 . S
C413 C419 1.390 1_445 S
C414 H405 0.930 . S
C414 C412 1.384 . S
C414 C415 1.372 . S
C415 C414 1.372 . S
C415 C416 1.400 1_445 S
C415 C420 1.490 . S
C416 H406 0.930 . S
C416 C415 1.400 1_665 S
C416 C419 1.386 . S
H417 C433 0.930 . S
H418 C434 0.931 . S
C419 H407 0.929 . S
C419 C413 1.390 1_665 S
C419 C416 1.386 . S
C420 C415 1.490 . S
C420 C422 1.395 . S
C420 C423 1.403 1_545 S
H421 C427 0.930 . S
C422 H408 0.930 . S
C422 C420 1.395 . S
C422 C425 1.403 . S
C423 C420 1.403 1_565 S
C423 C424 1.524 . S
C423 C427 1.400 . S
C424 H409 0.960 . S
C424 H410 0.960 . S
C424 H411 0.960 . S
C424 C423 1.524 . S
C425 C422 1.403 . S
C425 C426 1.392 . S
C425 C429 1.495 . S
C426 C425 1.392 . S
C426 C427 1.385 1_545 S
C426 C428 1.478 . S
C427 H421 0.930 . S
C427 C423 1.400 . S
C427 C426 1.385 1_565 S
C428 C426 1.478 . S
C428 C430 1.381 . S
C428 C434 1.383 1_455 S
C429 C425 1.495 . S
C429 H435 0.959 . S
C429 H436 0.961 . S
C429 H437 0.960 . S
C430 C428 1.381 . S
C430 C431 1.394 . S
C430 H438 0.930 . S
C431 C430 1.394 . S
C431 C432 1.383 . S
C431 H439 0.929 . S
C432 C431 1.383 . S
C432 C433 1.377 1_455 S
C433 H417 0.930 . S
C433 C432 1.377 1_655 S
C433 C434 1.379 . S
C434 H418 0.931 . S
C434 C428 1.383 1_655 S
C434 C433 1.379 . S
H435 C429 0.959 . S
H436 C429 0.961 . S
H437 C429 0.960 . S
H438 C430 0.930 . S
H439 C431 0.929 . S
H440 C448 0.929 . S
H441 C450 0.930 . S
H442 C452 0.930 . S
H443 C455 0.929 . S
H444 C458 0.930 . S
H445 C460 0.960 . S
H446 C460 0.960 . S
H447 C460 0.960 . S
C448 H440 0.929 . S
C448 C449 1.377 . S
C448 C450 1.384 . S
C449 C448 1.377 . S
C449 C455 1.390 1_645 S
C450 H441 0.930 . S
C450 C448 1.384 . S
C450 C451 1.372 . S
C451 C450 1.372 . S
C451 C452 1.400 1_645 S
C451 C456 1.490 . S
C452 H442 0.930 . S
C452 C451 1.400 1_465 S
C452 C455 1.386 . S
H453 C469 0.930 . S
H454 C470 0.931 . S
C455 H443 0.929 . S
C455 C449 1.390 1_465 S
C455 C452 1.386 . S
C456 C451 1.490 . S
C456 C458 1.395 1_655 S
C456 C459 1.402 . S
H457 C463 0.930 1_565 S
C458 H444 0.930 . S
C458 C456 1.395 1_455 S
C458 C461 1.403 . S
C459 C456 1.402 . S
C459 C460 1.525 1_545 S
C459 C463 1.400 . S
C460 H445 0.960 . S
C460 H446 0.960 . S
C460 H447 0.960 . S
C460 C459 1.525 1_565 S
C461 C458 1.403 . S
C461 C462 1.392 . S
C461 C465 1.495 . S
C462 C461 1.392 . S
C462 C463 1.385 1_455 S
C462 C464 1.478 . S
C463 H457 0.930 1_545 S
C463 C459 1.400 . S
C463 C462 1.385 1_655 S
C464 C462 1.478 . S
C464 C466 1.381 1_455 S
C464 C470 1.383 1_545 S
C465 C461 1.495 . S
C465 H471 0.959 . S
C465 H472 0.961 . S
C465 H473 0.960 . S
C466 C464 1.381 1_655 S
C466 C467 1.394 . S
C466 H474 0.930 . S
C467 C466 1.394 . S
C467 C468 1.383 . S
C467 H475 0.929 . S
C468 C467 1.383 . S
C468 C469 1.377 1_645 S
C469 H453 0.930 . S
C469 C468 1.377 1_465 S
C469 C470 1.379 . S
C470 H454 0.931 . S
C470 C464 1.383 1_565 S
C470 C469 1.379 . S
H471 C465 0.959 . S
H472 C465 0.961 . S
H473 C465 0.960 . S
H474 C466 0.930 . S
H475 C467 0.929 . S
H476 C484 0.929 . S
H477 C486 0.930 . S
H478 C488 0.930 . S
H479 C491 0.929 . S
H480 C494 0.930 . S
H481 C496 0.960 . S
H482 C496 0.960 . S
H483 C496 0.960 . S
C484 H476 0.929 . S
C484 C485 1.377 . S
C484 C486 1.384 . S
C485 C484 1.377 . S
C485 C491 1.390 . S
C486 H477 0.930 . S
C486 C484 1.384 . S
C486 C487 1.372 . S
C487 C486 1.372 . S
C487 C488 1.400 . S
C487 C492 1.490 . S
C488 H478 0.930 . S
C488 C487 1.400 . S
C488 C491 1.386 . S
H489 C505 0.930 . S
H490 C506 0.931 . S
C491 H479 0.929 . S
C491 C485 1.390 . S
C491 C488 1.386 . S
C492 C487 1.490 . S
C492 C494 1.395 . S
C492 C495 1.403 . S
H493 C499 0.930 . S
C494 H480 0.930 . S
C494 C492 1.395 . S
C494 C497 1.403 . S
C495 C492 1.403 . S
C495 C496 1.524 . S
C495 C499 1.400 . S
C496 H481 0.960 . S
C496 H482 0.960 . S
C496 H483 0.960 . S
C496 C495 1.524 . S
C497 C494 1.403 . S
C497 C498 1.392 . S
C497 C501 1.495 . S
C498 C497 1.392 . S
C498 C499 1.385 . S
C498 C500 1.478 . S
C499 H493 0.930 . S
C499 C495 1.400 . S
C499 C498 1.385 . S
C500 C498 1.478 . S
C500 C502 1.381 . S
C500 C506 1.383 . S
C501 C497 1.495 . S
C501 H507 0.959 . S
C501 H508 0.961 . S
C501 H509 0.960 . S
C502 C500 1.381 . S
C502 C503 1.394 . S
C502 H510 0.930 . S
C503 C502 1.394 . S
C503 C504 1.383 . S
C503 H511 0.929 . S
C504 C503 1.383 . S
C504 C505 1.377 . S
C505 H489 0.930 . S
C505 C504 1.377 . S
C505 C506 1.379 . S
C506 H490 0.931 . S
C506 C500 1.383 . S
C506 C505 1.379 . S
H507 C501 0.959 . S
H508 C501 0.961 . S
H509 C501 0.960 . S
H510 C502 0.930 . S
H511 C503 0.929 . S
H512 C520 0.929 . S
H513 C522 0.930 . S
H514 C524 0.930 . S
H515 C527 0.929 . S
H516 C530 0.930 . S
H517 C532 0.960 . S
H518 C532 0.960 . S
H519 C532 0.960 . S
C520 H512 0.929 . S
C520 C521 1.377 . S
C520 C522 1.384 . S
C521 C520 1.377 . S
C521 C527 1.390 . S
C522 H513 0.930 . S
C522 C520 1.384 . S
C522 C523 1.372 . S
C523 C522 1.372 . S
C523 C524 1.400 . S
C523 C528 1.490 . S
C524 H514 0.930 . S
C524 C523 1.400 . S
C524 C527 1.386 . S
H525 C541 0.930 . S
H526 C542 0.931 . S
C527 H515 0.929 . S
C527 C521 1.390 . S
C527 C524 1.386 . S
C528 C523 1.490 . S
C528 C530 1.395 . S
C528 C531 1.403 . S
H529 C535 0.930 . S
C530 H516 0.930 . S
C530 C528 1.395 . S
C530 C533 1.403 . S
C531 C528 1.403 . S
C531 C532 1.524 . S
C531 C535 1.400 . S
C532 H517 0.960 . S
C532 H518 0.960 . S
C532 H519 0.960 . S
C532 C531 1.524 . S
C533 C530 1.403 . S
C533 C534 1.392 . S
C533 C537 1.495 . S
C534 C533 1.392 . S
C534 C535 1.385 . S
C534 C536 1.478 . S
C535 H529 0.930 . S
C535 C531 1.400 . S
C535 C534 1.385 . S
C536 C534 1.478 . S
C536 C538 1.381 . S
C536 C542 1.383 . S
C537 C533 1.495 . S
C537 H543 0.959 . S
C537 H544 0.961 . S
C537 H545 0.960 . S
C538 C536 1.381 . S
C538 C539 1.394 . S
C538 H546 0.930 . S
C539 C538 1.394 . S
C539 C540 1.383 . S
C539 H547 0.929 . S
C540 C539 1.383 . S
C540 C541 1.377 . S
C541 H525 0.930 . S
C541 C540 1.377 . S
C541 C542 1.379 . S
C542 H526 0.931 . S
C542 C536 1.383 . S
C542 C541 1.379 . S
H543 C537 0.959 . S
H544 C537 0.961 . S
H545 C537 0.960 . S
H546 C538 0.930 . S
H547 C539 0.929 . S
C144 C110 1.450 . S
C125 C29 1.468 . S
C161 C8 1.347 . S
C180 C96 1.300 . S
C197 C0 1.356 . S
C216 C108 1.301 . S
C233 C17 1.471 . S
C252 C98 1.457 . S
C269 C63 1.468 . S
C288 C86 1.424 . S
C305 C42 1.346 . S
C324 C72 1.318 . S
C360 C84 1.294 . S
C341 C34 1.356 . S
C396 C74 1.433 . S
C377 C51 1.471 . S
C413 C4 1.519 . S
C432 C77 1.519 . S
C449 C13 1.513 . S
C468 C89 1.511 . S
C504 C101 1.515 . S
C485 C38 1.518 . S
C521 C47 1.513 . S
C540 C113 1.502 . S
