# Generated by pormake.
# Topology anh, (6,3)-cn, num edge types: 1
# Building blocks:
#     Node 0, Type 0, BuildingBlock: VOLQOD_clean_sbu_1, # of connection points: 6
#     Node 1, Type 0, BuildingBlock: VOLQOD_clean_sbu_1, # of connection points: 6
#     Node 2, Type 0, BuildingBlock: VOLQOD_clean_sbu_1, # of connection points: 6
#     Node 3, Type 1, BuildingBlock: INOVEN_clean_linker_0, # of connection points: 3
#     Node 4, Type 1, BuildingBlock: INOVEN_clean_linker_0, # of connection points: 3
#     Node 5, Type 1, BuildingBlock: INOVEN_clean_linker_0, # of connection points: 3
#     Node 6, Type 1, BuildingBlock: INOVEN_clean_linker_0, # of connection points: 3
#     Node 7, Type 1, BuildingBlock: INOVEN_clean_linker_0, # of connection points: 3
#     Node 8, Type 1, BuildingBlock: INOVEN_clean_linker_0, # of connection points: 3
#     Edge 9, Type (0, 1), BuildingBlock: CIFDUS_clean_linker_0, # of connection points: 2
#     Edge 10, Type (0, 1), BuildingBlock: CIFDUS_clean_linker_0, # of connection points: 2
#     Edge 11, Type (0, 1), BuildingBlock: CIFDUS_clean_linker_0, # of connection points: 2
#     Edge 12, Type (0, 1), BuildingBlock: CIFDUS_clean_linker_0, # of connection points: 2
#     Edge 13, Type (0, 1), BuildingBlock: CIFDUS_clean_linker_0, # of connection points: 2
#     Edge 14, Type (0, 1), BuildingBlock: CIFDUS_clean_linker_0, # of connection points: 2
#     Edge 15, Type (0, 1), BuildingBlock: CIFDUS_clean_linker_0, # of connection points: 2
#     Edge 16, Type (0, 1), BuildingBlock: CIFDUS_clean_linker_0, # of connection points: 2
#     Edge 17, Type (0, 1), BuildingBlock: CIFDUS_clean_linker_0, # of connection points: 2
#     Edge 18, Type (0, 1), BuildingBlock: CIFDUS_clean_linker_0, # of connection points: 2
#     Edge 19, Type (0, 1), BuildingBlock: CIFDUS_clean_linker_0, # of connection points: 2
#     Edge 20, Type (0, 1), BuildingBlock: CIFDUS_clean_linker_0, # of connection points: 2
#     Edge 21, Type (0, 1), BuildingBlock: CIFDUS_clean_linker_0, # of connection points: 2
#     Edge 22, Type (0, 1), BuildingBlock: CIFDUS_clean_linker_0, # of connection points: 2
#     Edge 23, Type (0, 1), BuildingBlock: CIFDUS_clean_linker_0, # of connection points: 2
#     Edge 24, Type (0, 1), BuildingBlock: CIFDUS_clean_linker_0, # of connection points: 2
#     Edge 25, Type (0, 1), BuildingBlock: CIFDUS_clean_linker_0, # of connection points: 2
#     Edge 26, Type (0, 1), BuildingBlock: CIFDUS_clean_linker_0, # of connection points: 2
# Relax obj value: 0.156
# Max RMSD: 0.215
# Mean RMSD: 0.132
data_MOF--net-anh--node1-VOLQOD_clean_sbu_1--node2-INOVEN_clean_linker_0--edge1-CIFDUS_clean_linker_0
_symmetry_space_group_name_H-M    P1
_symmetry_Int_Tables_number       1
_symmetry_cell_setting            triclinic
loop_
_symmetry_equiv_pos_as_xyz
'x, y, z'
_cell_length_a     26.058995
_cell_length_b     26.004209
_cell_length_c     49.672721
_cell_angle_alpha  92.400907
_cell_angle_beta   92.509178
_cell_angle_gamma 120.35194
loop_
_atom_site_label
_atom_site_type_symbol
_atom_site_fract_x
_atom_site_fract_y
_atom_site_fract_z
_atom_type_partial_charge
O0 O 0.05291 0.63976 0.22275 0.0
Zn1 Zn 0.06065 0.66471 0.18452 0.0
O2 O 0.06548 0.60568 0.16024 0.0
Zn3 Zn -0.00129 0.56987 0.133 0.0
Zn4 Zn 0.06358 0.54211 0.18072 0.0
Zn5 Zn 0.13885 0.64521 0.14189 0.0
O6 O 0.02526 0.58397 0.09547 0.0
O7 O 0.12362 0.64149 0.1015 0.0
O8 O 0.9893 0.67286 0.17348 0.0
O9 O 0.94955 0.60754 0.13749 0.0
O10 O 0.94387 0.48182 0.13641 0.0
O11 O 0.98887 0.4636 0.17042 0.0
O12 O 0.13441 0.5322 0.17472 0.0
O13 O 0.13616 0.74582 0.18518 0.0
O14 O 0.18777 0.60736 0.14933 0.0
O15 O 0.18931 0.73077 0.15551 0.0
C16 C 0.05567 0.59806 0.2341 0.0
C17 C 0.07587 0.61459 0.08602 0.0
C18 C 0.94557 0.44604 0.15264 0.0
C19 C 0.94989 0.64659 0.15383 0.0
C20 C 0.18067 0.56317 0.16214 0.0
C21 C 0.18335 0.76484 0.17259 0.0
O22 O 0.06196 0.55922 0.2205 0.0
O23 O 0.5363 0.05383 0.4396 0.0
Zn24 Zn 0.50359 0.04464 0.47576 0.0
O25 O 0.55679 0.03954 0.50241 0.0
Zn26 Zn 0.59766 0.11268 0.5258 0.0
Zn27 Zn 0.61403 0.0255 0.48417 0.0
Zn28 Zn 0.50896 0.97404 0.5239 0.0
O29 O 0.58002 0.09686 0.5649 0.0
O30 O 0.50456 0.00296 0.56105 0.0
O31 O 0.4909 0.11348 0.48494 0.0
O32 O 0.56708 0.16649 0.51563 0.0
O33 O 0.68586 0.15783 0.52106 0.0
O34 O 0.69609 0.09795 0.49138 0.0
O35 O 0.61454 0.95257 0.49729 0.0
O36 O 0.42596 0.96759 0.4709 0.0
O37 O 0.54838 0.92637 0.52846 0.0
O38 O 0.42678 0.9175 0.50584 0.0
C39 C 0.56974 0.03712 0.42914 0.0
C40 C 0.5385 0.05168 0.57521 0.0
C41 C 0.71811 0.14681 0.50606 0.0
C42 C 0.5236 0.16047 0.50038 0.0
C43 C 0.58723 0.92041 0.51636 0.0
C44 C 0.40138 0.92134 0.48418 0.0
O45 O 0.59821 0.01881 0.44352 0.0
O46 O 0.46537 0.46195 0.76808 0.0
Zn47 Zn 0.44962 0.44609 0.80718 0.0
O48 O 0.51754 0.50695 0.83115 0.0
Zn49 Zn 0.49201 0.55132 0.85338 0.0
Zn50 Zn 0.58173 0.56275 0.80993 0.0
Zn51 Zn 0.5469 0.46892 0.85524 0.0
O52 O 0.51295 0.55353 0.8927 0.0
O53 O 0.54527 0.4896 0.8949 0.0
O54 O 0.37248 0.4442 0.81447 0.0
O55 O 0.40399 0.51277 0.84908 0.0
O56 O 0.52556 0.63486 0.84249 0.0
O57 O 0.59322 0.64551 0.81421 0.0
O58 O 0.65946 0.56495 0.81911 0.0
O59 O 0.43819 0.36422 0.8124 0.0
O60 O 0.63074 0.49374 0.84793 0.0
O61 O 0.5011 0.38039 0.8477 0.0
C62 C 0.51123 0.499 0.75659 0.0
C63 C 0.53173 0.52537 0.90644 0.0
C64 C 0.56591 0.66661 0.8271 0.0
C65 C 0.36247 0.47289 0.83289 0.0
C66 C 0.67008 0.53204 0.8339 0.0
C67 C 0.46102 0.34507 0.82965 0.0
O68 O 0.55873 0.53795 0.7703 0.0
H69 H 0.55978 0.06945 0.19178 0.0
H70 H 0.45952 -0.0047 0.26086 0.0
H71 H 0.64701 0.12261 0.27192 0.0
N72 N 0.6656 0.14053 0.22113 0.0
N73 N 0.67145 0.15546 0.19743 0.0
C74 C 0.55772 0.06636 0.21342 0.0
C75 C 0.50298 0.0284 0.22417 0.0
C76 C 0.60976 0.10022 0.23077 0.0
C77 C 0.6069 0.09582 0.25868 0.0
C78 C 0.55254 0.05921 0.26965 0.0
C79 C 0.50101 0.02545 0.25232 0.0
H80 H 0.46804 0.45265 0.51802 0.0
H81 H 0.42818 0.35897 0.59063 0.0
H82 H 0.48316 0.54538 0.59426 0.0
N83 N 0.49762 0.55788 0.54092 0.0
N84 N 0.52394 0.60792 0.55362 0.0
C85 C 0.4628 0.45193 0.53956 0.0
C86 C 0.44528 0.39917 0.55247 0.0
C87 C 0.47693 0.50474 0.55447 0.0
C88 C 0.47217 0.50452 0.58257 0.0
C89 C 0.4536 0.45179 0.59572 0.0
C90 C 0.43948 0.39905 0.58045 0.0
H91 H 0.01418 0.55766 0.84798 0.0
H92 H 0.96927 0.62878 0.91697 0.0
H93 H 0.09018 0.56356 0.92747 0.0
N94 N 0.08809 0.53227 0.8751 0.0
N95 N 0.11037 0.51036 0.89019 0.0
C96 C 0.0201 0.57054 0.86943 0.0
C97 C 0.98852 0.59597 0.88048 0.0
C98 C 0.05734 0.55929 0.88625 0.0
C99 C 0.06286 0.57379 0.91425 0.0
C100 C 0.03131 0.59879 0.92553 0.0
C101 C -0.00496 0.6108 0.90841 0.0
H102 H 0.09364 0.55522 0.46928 0.0
H103 H 0.12127 0.64272 0.39485 0.0
H104 H 0.00038 0.4544 0.39486 0.0
N105 N 0.01109 0.44847 0.44863 0.0
N106 N 0.98606 0.39712 0.43718 0.0
C107 C 0.08423 0.55437 0.44777 0.0
C108 C 0.11435 0.60666 0.43389 0.0
C109 C 0.043 0.49964 0.43388 0.0
C110 C 0.03216 0.49663 0.4057 0.0
C111 C 0.06078 0.54819 0.39153 0.0
C112 C 0.10029 0.60299 0.40588 0.0
H113 H 0.43873 0.01112 0.80608 0.0
H114 H 0.43491 0.07565 0.72775 0.0
H115 H 0.48829 0.94587 0.73697 0.0
N116 N 0.47914 0.94041 0.79056 0.0
N117 N 0.513 0.92237 0.78343 0.0
C118 C 0.44489 0.01108 0.78465 0.0
C119 C 0.43382 0.04796 0.76833 0.0
C120 C 0.46567 0.97521 0.77358 0.0
C121 C 0.4729 0.97407 0.74575 0.0
C122 C 0.46097 0.00955 0.72915 0.0
C123 C 0.44216 0.04684 0.74056 0.0
H124 H 0.58161 0.57535 0.14502 0.0
H125 H 0.66076 0.56106 0.07295 0.0
H126 H 0.47727 0.5159 0.06884 0.0
N127 N 0.47392 0.5422 0.11996 0.0
N128 N 0.47909 0.56926 0.14215 0.0
C129 C 0.57775 0.56397 0.1235 0.0
C130 C 0.62735 0.56983 0.11087 0.0
C131 C 0.52358 0.54454 0.10826 0.0
C132 C 0.5191 0.53039 0.08047 0.0
C133 C 0.56857 0.53684 0.06748 0.0
C134 C 0.62239 0.55603 0.08286 0.0
H135 H 0.29402 0.63196 0.18235 0.0
H136 H 0.17165 0.46131 0.14042 0.0
H137 H 0.25443 0.44467 0.13198 0.0
H138 H 0.36285 0.48485 0.13215 0.0
H139 H 0.48455 0.65321 0.17603 0.0
H140 H 0.40072 0.66458 0.18876 0.0
C141 C 0.28567 0.59064 0.17191 0.0
C142 C 0.22757 0.54796 0.16182 0.0
C143 C 0.3332 0.58142 0.1674 0.0
C144 C 0.2164 0.49442 0.14839 0.0
C145 C 0.26363 0.48519 0.14344 0.0
C146 C 0.37072 0.52351 0.1448 0.0
C147 C 0.42948 0.56908 0.15278 0.0
C148 C 0.32239 0.52924 0.15215 0.0
C149 C 0.43943 0.61819 0.16965 0.0
C150 C 0.3917 0.62473 0.17675 0.0
H151 H 0.78975 0.14861 0.46757 0.0
H152 H 0.7833 0.25577 0.53467 0.0
H153 H 0.87264 0.34332 0.52115 0.0
H154 H 0.94302 0.39223 0.48635 0.0
H155 H 0.94403 0.28619 0.41763 0.0
H156 H 0.86655 0.19512 0.43575 0.0
C157 C 0.80853 0.19071 0.47966 0.0
C158 C 0.77924 0.19565 0.50191 0.0
C159 C 0.85857 0.2413 0.47122 0.0
C160 C 0.80454 0.2507 0.51732 0.0
C161 C 0.85551 0.30094 0.50951 0.0
C162 C 0.92717 0.34901 0.47571 0.0
C163 C 0.94879 0.34537 0.45063 0.0
C164 C 0.88143 0.29726 0.48588 0.0
C165 C 0.9277 0.28942 0.43694 0.0
C166 C 0.8834 0.23762 0.44725 0.0
H167 H 0.51112 0.72262 0.84859 0.0
H168 H 0.63972 0.74321 0.79161 0.0
H169 H 0.6385 0.82951 0.77498 0.0
H170 H 0.59078 0.89045 0.77246 0.0
H171 H 0.46031 0.86787 0.8283 0.0
H172 H 0.47232 0.79107 0.84961 0.0
C173 C 0.53975 0.74654 0.83286 0.0
C174 C 0.5747 0.72573 0.82108 0.0
C175 C 0.53785 0.79532 0.82295 0.0
C176 C 0.61196 0.75781 0.80092 0.0
C177 C 0.61109 0.80704 0.79127 0.0
C178 C 0.56598 0.86924 0.78963 0.0
C179 C 0.52469 0.88411 0.79869 0.0
C180 C 0.57263 0.82476 0.80147 0.0
C181 C 0.49237 0.85689 0.82094 0.0
C182 C 0.49912 0.81292 0.83306 0.0
H183 H 0.84876 0.59627 0.17902 0.0
H184 H 0.94003 0.71702 0.11817 0.0
H185 H 0.84668 0.70957 0.10121 0.0
H186 H 0.73737 0.65569 0.09919 0.0
H187 H 0.64496 0.52922 0.15809 0.0
H188 H 0.74027 0.55228 0.1807 0.0
C189 C 0.84826 0.62272 0.16279 0.0
C190 C 0.90065 0.65785 0.15002 0.0
C191 C 0.79407 0.61601 0.15248 0.0
C192 C 0.89999 0.6907 0.1285 0.0
C193 C 0.84661 0.68577 0.11862 0.0
C194 C 0.73828 0.63373 0.11715 0.0
C195 C 0.68452 0.59011 0.12673 0.0
C196 C 0.79305 0.64644 0.12968 0.0
C197 C 0.68595 0.56282 0.15033 0.0
C198 C 0.74036 0.57581 0.16318 0.0
H199 H 0.3049 0.83629 0.50831 0.0
H200 H 0.37997 0.88566 0.43132 0.0
H201 H 0.29955 0.79212 0.40947 0.0
H202 H 0.21287 0.69497 0.41259 0.0
H203 H 0.1262 0.64933 0.48738 0.0
H204 H 0.20777 0.74174 0.50996 0.0
C205 C 0.30295 0.8266 0.48672 0.0
C206 C 0.34815 0.86761 0.47142 0.0
C207 C 0.2554 0.77313 0.474 0.0
C208 C 0.34531 0.85499 0.44345 0.0
C209 C 0.29962 0.80133 0.43096 0.0
C210 C 0.20983 0.7054 0.43358 0.0
C211 C 0.16241 0.66436 0.44796 0.0
C212 C 0.25484 0.75994 0.44608 0.0
C213 C 0.16225 0.67889 0.47563 0.0
C214 C 0.2087 0.73226 0.48859 0.0
H215 H 0.38477 0.2575 0.79156 0.0
H216 H 0.50809 0.292 0.86033 0.0
H217 H 0.50427 0.19812 0.84919 0.0
H218 H 0.47902 0.11524 0.81603 0.0
H219 H 0.35509 0.0793 0.74742 0.0
H220 H 0.34634 0.16493 0.76245 0.0
C221 C 0.40986 0.24396 0.80445 0.0
C222 C 0.44769 0.28254 0.82637 0.0
C223 C 0.40827 0.19017 0.79772 0.0
C224 C 0.47921 0.26373 0.84307 0.0
C225 C 0.47729 0.21005 0.83668 0.0
C226 C 0.44864 0.12485 0.80476 0.0
C227 C 0.41882 0.09163 0.78031 0.0
C228 C 0.44391 0.17419 0.81345 0.0
C229 C 0.3799 0.10518 0.76594 0.0
C230 C 0.37466 0.154 0.77456 0.0
H231 H 0.56286 0.82055 0.48647 0.0
H232 H 0.63015 0.91306 0.56532 0.0
H233 H 0.62224 0.82345 0.58334 0.0
H234 H 0.58226 0.71521 0.57806 0.0
H235 H 0.50805 0.62035 0.50012 0.0
H236 H 0.53229 0.71379 0.48018 0.0
C237 C 0.57769 0.82131 0.50732 0.0
C238 C 0.59778 0.87296 0.52458 0.0
C239 C 0.57036 0.76881 0.51777 0.0
C240 C 0.61534 0.87362 0.55174 0.0
C241 C 0.61023 0.82235 0.56207 0.0
C242 C 0.57247 0.71559 0.55664 0.0
C243 C 0.54318 0.66159 0.54069 0.0
C244 C 0.5856 0.76915 0.54552 0.0
C245 C 0.53036 0.66164 0.51288 0.0
C246 C 0.5442 0.71501 0.50148 0.0
H247 H 0.77911 0.63301 0.84064 0.0
H248 H 0.69132 0.44096 0.83007 0.0
H249 H 0.78658 0.4454 0.83835 0.0
H250 H 0.89149 0.50242 0.8551 0.0
H251 H 0.9777 0.69304 0.87154 0.0
H252 H 0.88727 0.69137 0.85408 0.0
C253 C 0.7814 0.59247 0.83959 0.0
C254 C 0.72875 0.53677 0.83488 0.0
C255 C 0.83603 0.59525 0.84559 0.0
C256 C 0.73158 0.48424 0.83387 0.0
C257 C 0.7859 0.48676 0.8386 0.0
C258 C 0.89088 0.54371 0.85399 0.0
C259 C 0.94084 0.59779 0.86423 0.0
C260 C 0.83801 0.5418 0.84537 0.0
C261 C 0.93954 0.65103 0.86346 0.0
C262 C 0.88781 0.64994 0.85371 0.0
H263 H 0.29317 0.81472 0.15328 0.0
H264 H 0.19063 0.85086 0.20904 0.0
H265 H 0.2808 0.94222 0.22703 0.0
H266 H 0.38998 0.0039 0.23102 0.0
H267 H 0.4928 0.96249 0.17779 0.0
H268 H 0.40103 0.88221 0.15414 0.0
C269 C 0.29017 0.84296 0.16907 0.0
C270 C 0.23523 0.82528 0.1801 0.0
C271 C 0.34238 0.89447 0.17984 0.0
C272 C 0.23233 0.86294 0.20036 0.0
C273 C 0.28394 0.91515 0.21072 0.0
C274 C 0.39227 0.9776 0.21408 0.0
C275 C 0.44815 0.98847 0.20649 0.0
C276 C 0.33943 0.93007 0.20128 0.0
C277 C 0.45045 0.95518 0.18404 0.0
C278 C 0.39796 0.90884 0.17068 0.0
H279 H 0.42178 0.15426 0.51431 0.0
H280 H 0.59823 0.27515 0.4908 0.0
H281 H 0.5849 0.36033 0.50095 0.0
H282 H 0.52902 0.40069 0.5224 0.0
H283 H 0.35714 0.2816 0.55097 0.0
H284 H 0.36211 0.19508 0.53293 0.0
C285 C 0.45642 0.19924 0.5108 0.0
C286 C 0.51064 0.20903 0.5017 0.0
C287 C 0.44946 0.24807 0.51795 0.0
C288 C 0.55609 0.26716 0.4977 0.0
C289 C 0.54857 0.31567 0.50361 0.0
C290 C 0.49194 0.35578 0.52399 0.0
C291 C 0.4427 0.34721 0.53781 0.0
C292 C 0.49629 0.30676 0.51458 0.0
C293 C 0.39548 0.28894 0.54036 0.0
C294 C 0.39842 0.23965 0.53013 0.0
H295 H 0.30542 0.44468 0.87797 0.0
H296 H 0.28706 0.47962 0.79522 0.0
H297 H 0.20009 0.48866 0.8048 0.0
H298 H 0.13982 0.50177 0.83884 0.0
H299 H 0.16037 0.46707 0.92148 0.0
H300 H 0.23565 0.44183 0.90992 0.0
C301 C 0.2811 0.45248 0.8619 0.0
C302 C 0.30209 0.46169 0.83605 0.0
C303 C 0.23226 0.45843 0.8677 0.0
C304 C 0.2709 0.47189 0.81524 0.0
C305 C 0.22175 0.4777 0.82081 0.0
C306 C 0.16001 0.48749 0.8541 0.0
C307 C 0.14567 0.48686 0.88114 0.0
C308 C 0.20357 0.47344 0.84725 0.0
C309 C 0.1715 0.46795 0.90068 0.0
C310 C 0.21446 0.45377 0.89409 0.0
H311 H 0.93042 0.3621 0.18717 0.0
H312 H 0.84217 0.39311 0.11954 0.0
H313 H 0.74997 0.30013 0.1257 0.0
H314 H 0.69114 0.21654 0.15403 0.0
H315 H 0.77944 0.1904 0.22297 0.0
H316 H 0.87479 0.27441 0.21247 0.0
C317 C 0.89138 0.34823 0.17346 0.0
C318 C 0.89313 0.38509 0.15317 0.0
C319 C 0.83819 0.29568 0.17755 0.0
C320 C 0.84207 0.36592 0.13549 0.0
C321 C 0.78918 0.31281 0.13905 0.0
C322 C 0.73166 0.22888 0.16633 0.0
C323 C 0.72828 0.19818 0.18933 0.0
C324 C 0.78621 0.27836 0.16056 0.0
C325 C 0.78079 0.21404 0.20533 0.0
C326 C 0.83534 0.26206 0.19935 0.0
H327 H 0.98381 0.58341 0.04883 0.0
H328 H 0.17456 0.65805 0.05692 0.0
H329 H 0.17824 0.66396 0.00799 0.0
H330 H 0.12652 0.64402 0.96279 0.0
H331 H 0.93554 0.56752 0.95516 0.0
H332 H 0.93304 0.56772 0.00415 0.0
C333 C 0.02627 0.60096 0.03995 0.0
C334 C 0.07873 0.61963 0.0565 0.0
C335 C 0.0281 0.60442 0.0119 0.0
C336 C 0.13344 0.64309 0.04464 0.0
C337 C 0.1356 0.64652 0.01667 0.0
C338 C 0.08442 0.6276 0.97189 0.0
C339 C 0.03133 0.60576 0.95533 0.0
C340 C 0.08311 0.62676 9e-05 0.0
C341 C 0.97718 0.58538 0.96741 0.0
C342 C 0.9756 0.58486 0.99543 0.0
H343 H 0.50068 0.05333 0.39227 0.0
H344 H 0.65028 0.02522 0.39964 0.0
H345 H 0.65895 0.03062 0.35085 0.0
H346 H 0.62363 0.04337 0.30603 0.0
H347 H 0.47296 0.06967 0.29936 0.0
H348 H 0.4651 0.0649 0.34808 0.0
C349 C 0.53535 0.04849 0.38329 0.0
C350 C 0.5749 0.03911 0.39962 0.0
C351 C 0.53984 0.05129 0.35536 0.0
C352 C 0.61916 0.03238 0.38753 0.0
C353 C 0.62424 0.03559 0.35965 0.0
C354 C 0.58939 0.04839 0.31536 0.0
C355 C 0.54891 0.05685 0.29924 0.0
C356 C 0.58486 0.04515 0.34338 0.0
C357 C 0.50425 0.06261 0.3114 0.0
C358 C 0.49985 0.06008 0.33922 0.0
H359 H 0.42175 0.4183 0.72031 0.0
H360 H 0.59609 0.57775 0.72551 0.0
H361 H 0.59261 0.57783 0.67644 0.0
H362 H 0.54088 0.53251 0.632 0.0
H363 H 0.3675 0.37254 0.62629 0.0
H364 H 0.3699 0.37271 0.67564 0.0
C365 C 0.45901 0.4531 0.71074 0.0
C366 C 0.50907 0.49794 0.72668 0.0
C367 C 0.4569 0.45286 0.68242 0.0
C368 C 0.557 0.54255 0.71384 0.0
C369 C 0.55506 0.54277 0.68574 0.0
C370 C 0.5033 0.49812 0.64159 0.0
C371 C 0.45387 0.45288 0.62559 0.0
C372 C 0.50527 0.49824 0.66985 0.0
C373 C 0.40608 0.40778 0.63823 0.0
C374 C 0.40742 0.40792 0.66641 0.0
H375 H 0.47354 0.95903 0.60539 0.0
H376 H 0.58389 0.15136 0.61043 0.0
H377 H 0.56832 0.15544 0.65851 0.0
H378 H 0.52388 0.10389 0.69921 0.0
H379 H 0.41631 0.91155 0.69391 0.0
H380 H 0.4303 0.90789 0.64568 0.0
C381 C 0.49408 0.00196 0.61693 0.0
C382 C 0.52965 0.05484 0.6043 0.0
C383 C 0.48547 0.0039 0.64449 0.0
C384 C 0.55639 0.10998 0.61967 0.0
C385 C 0.54742 0.11235 0.64713 0.0
C386 C 0.50325 0.06132 0.68737 0.0
C387 C 0.46903 0.00805 0.69992 0.0
C388 C 0.51207 0.05957 0.65975 0.0
C389 C 0.44311 0.95303 0.68459 0.0
C390 C 0.45097 0.95095 0.65707 0.0
H391 H 0.57635 0.4797 0.94323 0.0
H392 H 0.49531 0.5888 0.93697 0.0
H393 H 0.49844 0.60045 0.98592 0.0
H394 H 0.52419 0.58037 0.0306 0.0
H395 H 0.60667 0.47319 0.03771 0.0
H396 H 0.60316 0.46027 0.98838 0.0
C397 C 0.55944 0.50606 0.95257 0.0
C398 C 0.53561 0.53323 0.93633 0.0
C399 C 0.56151 0.51289 0.9809 0.0
C400 C 0.51405 0.56741 0.94885 0.0
C401 C 0.51566 0.57407 0.97691 0.0
C402 C 0.54078 0.55363 0.02132 0.0
C403 C 0.56515 0.52734 0.03768 0.0
C404 C 0.5391 0.54692 0.99311 0.0
C405 C 0.58776 0.49392 0.02546 0.0
C406 C 0.58567 0.48647 0.9973 0.0
H407 H 0.05428 0.51294 0.26476 0.0
H408 H 0.04767 0.67571 0.27019 0.0
H409 H 0.04417 0.67209 0.3191 0.0
H410 H 0.04678 0.62496 0.36049 0.0
H411 H 0.05687 0.46425 0.3552 0.0
H412 H 0.05353 0.46405 0.306 0.0
C413 C 0.05196 0.54763 0.27658 0.0
C414 C 0.05173 0.59478 0.26374 0.0
C415 C 0.05013 0.54544 0.30474 0.0
C416 C 0.04822 0.63901 0.27947 0.0
C417 C 0.04615 0.63699 0.30748 0.0
C418 C 0.04835 0.58993 0.34858 0.0
C419 C 0.05244 0.54491 0.36156 0.0
C420 C 0.04772 0.59078 0.32034 0.0
C421 C 0.05312 0.49913 0.34576 0.0
C422 C 0.05179 0.49928 0.31762 0.0
loop_
_geom_bond_atom_site_label_1
_geom_bond_atom_site_label_2
_geom_bond_distance
_geom_bond_site_symmetry_2
_ccdc_geom_bond_type
O0 Zn1 1.953 . S
O0 C16 1.225 . S
Zn1 O0 1.953 . S
Zn1 O2 1.949 . S
Zn1 O8 1.919 1_455 S
Zn1 O13 1.924 . S
O2 Zn1 1.949 . S
O2 Zn3 1.923 1_455 S
O2 Zn4 1.950 . S
O2 Zn5 1.945 . S
Zn3 O2 1.923 1_655 S
Zn3 O6 1.933 . S
Zn3 O9 1.941 . S
Zn3 O10 1.965 . S
Zn4 O2 1.950 . S
Zn4 O11 1.938 1_455 S
Zn4 O12 1.906 . S
Zn4 O22 1.953 . S
Zn5 O2 1.945 . S
Zn5 O7 1.932 . S
Zn5 O14 1.977 . S
Zn5 O15 1.910 . S
O6 Zn3 1.933 . S
O6 C17 1.226 1_655 S
O7 Zn5 1.932 . S
O7 C17 1.307 . S
O8 Zn1 1.919 1_655 S
O8 C19 1.253 . S
O9 Zn3 1.941 . S
O9 C19 1.283 . S
O10 Zn3 1.965 . S
O10 C18 1.303 . S
O11 Zn4 1.938 1_655 S
O11 C18 1.247 . S
O12 Zn4 1.906 . S
O12 C20 1.304 . S
O13 Zn1 1.924 . S
O13 C21 1.311 . S
O14 Zn5 1.977 . S
O14 C20 1.272 . S
O15 Zn5 1.910 . S
O15 C21 1.231 . S
C16 O0 1.225 . S
C16 O22 1.298 . S
C17 O6 1.226 1_455 S
C17 O7 1.307 . S
C18 O10 1.303 . S
C18 O11 1.247 . S
C19 O8 1.253 . S
C19 O9 1.283 . S
C20 O12 1.304 . S
C20 O14 1.272 . S
C21 O13 1.311 . S
C21 O15 1.231 . S
O22 Zn4 1.953 . S
O22 C16 1.298 . S
O23 Zn24 1.953 . S
O23 C39 1.225 . S
Zn24 O23 1.953 . S
Zn24 O25 1.949 . S
Zn24 O31 1.919 . S
Zn24 O36 1.924 1_545 S
O25 Zn24 1.949 . S
O25 Zn26 1.923 . S
O25 Zn27 1.950 . S
O25 Zn28 1.945 1_545 S
Zn26 O25 1.923 . S
Zn26 O29 1.933 . S
Zn26 O32 1.941 . S
Zn26 O33 1.965 . S
Zn27 O25 1.950 . S
Zn27 O34 1.938 . S
Zn27 O35 1.906 1_545 S
Zn27 O45 1.953 . S
Zn28 O25 1.945 1_565 S
Zn28 O30 1.932 1_565 S
Zn28 O37 1.977 . S
Zn28 O38 1.910 . S
O29 Zn26 1.933 . S
O29 C40 1.226 . S
O30 Zn28 1.932 1_545 S
O30 C40 1.307 . S
O31 Zn24 1.919 . S
O31 C42 1.253 . S
O32 Zn26 1.941 . S
O32 C42 1.283 . S
O33 Zn26 1.965 . S
O33 C41 1.303 . S
O34 Zn27 1.938 . S
O34 C41 1.247 . S
O35 Zn27 1.906 1_565 S
O35 C43 1.304 . S
O36 Zn24 1.924 1_565 S
O36 C44 1.311 . S
O37 Zn28 1.977 . S
O37 C43 1.272 . S
O38 Zn28 1.910 . S
O38 C44 1.231 . S
C39 O23 1.225 . S
C39 O45 1.298 . S
C40 O29 1.226 . S
C40 O30 1.307 . S
C41 O33 1.303 . S
C41 O34 1.247 . S
C42 O31 1.253 . S
C42 O32 1.283 . S
C43 O35 1.304 . S
C43 O37 1.272 . S
C44 O36 1.311 . S
C44 O38 1.231 . S
O45 Zn27 1.953 . S
O45 C39 1.298 . S
O46 Zn47 1.953 . S
O46 C62 1.225 . S
Zn47 O46 1.953 . S
Zn47 O48 1.949 . S
Zn47 O54 1.919 . S
Zn47 O59 1.924 . S
O48 Zn47 1.949 . S
O48 Zn49 1.923 . S
O48 Zn50 1.950 . S
O48 Zn51 1.945 . S
Zn49 O48 1.923 . S
Zn49 O52 1.933 . S
Zn49 O55 1.941 . S
Zn49 O56 1.965 . S
Zn50 O48 1.950 . S
Zn50 O57 1.938 . S
Zn50 O58 1.906 . S
Zn50 O68 1.953 . S
Zn51 O48 1.945 . S
Zn51 O53 1.932 . S
Zn51 O60 1.977 . S
Zn51 O61 1.910 . S
O52 Zn49 1.933 . S
O52 C63 1.226 . S
O53 Zn51 1.932 . S
O53 C63 1.307 . S
O54 Zn47 1.919 . S
O54 C65 1.253 . S
O55 Zn49 1.941 . S
O55 C65 1.283 . S
O56 Zn49 1.965 . S
O56 C64 1.303 . S
O57 Zn50 1.938 . S
O57 C64 1.247 . S
O58 Zn50 1.906 . S
O58 C66 1.304 . S
O59 Zn47 1.924 . S
O59 C67 1.311 . S
O60 Zn51 1.977 . S
O60 C66 1.272 . S
O61 Zn51 1.910 . S
O61 C67 1.231 . S
C62 O46 1.225 . S
C62 O68 1.298 . S
C63 O52 1.226 . S
C63 O53 1.307 . S
C64 O56 1.303 . S
C64 O57 1.247 . S
C65 O54 1.253 . S
C65 O55 1.283 . S
C66 O58 1.304 . S
C66 O60 1.272 . S
C67 O59 1.311 . S
C67 O61 1.231 . S
O68 Zn50 1.953 . S
O68 C62 1.298 . S
H69 C74 0.929 . S
H70 C79 0.931 1_565 S
H71 C77 0.930 . S
N72 N73 1.234 . S
N72 C76 1.453 . S
N73 N72 1.234 . S
C74 H69 0.929 . S
C74 C75 1.373 1_545 S
C74 C76 1.368 . S
C75 C74 1.373 1_565 S
C75 C79 1.397 1_565 S
C76 N72 1.453 . S
C76 C74 1.368 . S
C76 C77 1.373 . S
C77 H71 0.930 . S
C77 C76 1.373 . S
C77 C78 1.371 . S
C78 C77 1.371 . S
C78 C79 1.383 . S
C79 H70 0.931 1_545 S
C79 C75 1.397 1_545 S
C79 C78 1.383 . S
H80 C85 0.929 . S
H81 C90 0.931 . S
H82 C88 0.930 . S
N83 N84 1.234 . S
N83 C87 1.453 . S
N84 N83 1.234 . S
C85 H80 0.929 . S
C85 C86 1.373 . S
C85 C87 1.368 . S
C86 C85 1.373 . S
C86 C90 1.397 . S
C87 N83 1.453 . S
C87 C85 1.368 . S
C87 C88 1.373 . S
C88 H82 0.930 . S
C88 C87 1.373 . S
C88 C89 1.371 . S
C89 C88 1.371 . S
C89 C90 1.383 . S
C90 H81 0.931 . S
C90 C86 1.397 . S
C90 C89 1.383 . S
H91 C96 0.929 . S
H92 C101 0.931 1_655 S
H93 C99 0.930 . S
N94 N95 1.234 . S
N94 C98 1.453 . S
N95 N94 1.234 . S
C96 H91 0.929 . S
C96 C97 1.373 1_455 S
C96 C98 1.368 . S
C97 C96 1.373 1_655 S
C97 C101 1.397 1_655 S
C98 N94 1.453 . S
C98 C96 1.368 . S
C98 C99 1.373 . S
C99 H93 0.930 . S
C99 C98 1.373 . S
C99 C100 1.371 . S
C100 C99 1.371 . S
C100 C101 1.383 . S
C101 H92 0.931 1_455 S
C101 C97 1.397 1_455 S
C101 C100 1.383 . S
H102 C107 0.929 . S
H103 C112 0.931 . S
H104 C110 0.930 1_655 S
N105 N106 1.234 . S
N105 C109 1.453 1_655 S
N106 N105 1.234 . S
C107 H102 0.929 . S
C107 C108 1.373 . S
C107 C109 1.368 . S
C108 C107 1.373 . S
C108 C112 1.397 . S
C109 N105 1.453 1_455 S
C109 C107 1.368 . S
C109 C110 1.373 . S
C110 H104 0.930 1_455 S
C110 C109 1.373 . S
C110 C111 1.371 . S
C111 C110 1.371 . S
C111 C112 1.383 . S
C112 H103 0.931 . S
C112 C108 1.397 . S
C112 C111 1.383 . S
H113 C118 0.929 . S
H114 C123 0.931 . S
H115 C121 0.930 1_565 S
N116 N117 1.234 . S
N116 C120 1.453 1_565 S
N117 N116 1.234 . S
C118 H113 0.929 . S
C118 C119 1.373 . S
C118 C120 1.368 . S
C119 C118 1.373 . S
C119 C123 1.397 . S
C120 N116 1.453 1_545 S
C120 C118 1.368 . S
C120 C121 1.373 . S
C121 H115 0.930 1_545 S
C121 C120 1.373 . S
C121 C122 1.371 . S
C122 C121 1.371 . S
C122 C123 1.383 . S
C123 H114 0.931 . S
C123 C119 1.397 . S
C123 C122 1.383 . S
H124 C129 0.929 . S
H125 C134 0.931 . S
H126 C132 0.930 . S
N127 N128 1.234 . S
N127 C131 1.453 . S
N128 N127 1.234 . S
C129 H124 0.929 . S
C129 C130 1.373 . S
C129 C131 1.368 . S
C130 C129 1.373 . S
C130 C134 1.397 . S
C131 N127 1.453 . S
C131 C129 1.368 . S
C131 C132 1.373 . S
C132 H126 0.930 . S
C132 C131 1.373 . S
C132 C133 1.371 . S
C133 C132 1.371 . S
C133 C134 1.383 . S
C134 H125 0.931 . S
C134 C130 1.397 . S
C134 C133 1.383 . S
H135 C141 0.930 . S
H136 C144 0.930 . S
H137 C145 0.930 . S
H138 C146 0.930 . S
H139 C149 0.930 . S
H140 C150 0.930 . S
C141 H135 0.930 . S
C141 C142 1.355 . S
C141 C143 1.415 . S
C142 C141 1.355 . S
C142 C144 1.419 . S
C143 C141 1.415 . S
C143 C148 1.425 . S
C143 C150 1.409 . S
C144 H136 0.930 . S
C144 C142 1.419 . S
C144 C145 1.362 . S
C145 H137 0.930 . S
C145 C144 1.362 . S
C145 C148 1.409 . S
C146 H138 0.930 . S
C146 C147 1.355 . S
C146 C148 1.415 . S
C147 C146 1.355 . S
C147 C149 1.419 . S
C148 C143 1.425 . S
C148 C145 1.409 . S
C148 C146 1.415 . S
C149 H139 0.930 . S
C149 C147 1.419 . S
C149 C150 1.362 . S
C150 H140 0.930 . S
C150 C143 1.409 . S
C150 C149 1.362 . S
H151 C157 0.930 . S
H152 C160 0.930 . S
H153 C161 0.930 . S
H154 C162 0.930 . S
H155 C165 0.930 . S
H156 C166 0.930 . S
C157 H151 0.930 . S
C157 C158 1.355 . S
C157 C159 1.415 . S
C158 C157 1.355 . S
C158 C160 1.419 . S
C159 C157 1.415 . S
C159 C164 1.425 . S
C159 C166 1.409 . S
C160 H152 0.930 . S
C160 C158 1.419 . S
C160 C161 1.362 . S
C161 H153 0.930 . S
C161 C160 1.362 . S
C161 C164 1.409 . S
C162 H154 0.930 . S
C162 C163 1.355 . S
C162 C164 1.415 . S
C163 C162 1.355 . S
C163 C165 1.419 . S
C164 C159 1.425 . S
C164 C161 1.409 . S
C164 C162 1.415 . S
C165 H155 0.930 . S
C165 C163 1.419 . S
C165 C166 1.362 . S
C166 H156 0.930 . S
C166 C159 1.409 . S
C166 C165 1.362 . S
H167 C173 0.930 . S
H168 C176 0.930 . S
H169 C177 0.930 . S
H170 C178 0.930 . S
H171 C181 0.930 . S
H172 C182 0.930 . S
C173 H167 0.930 . S
C173 C174 1.355 . S
C173 C175 1.415 . S
C174 C173 1.355 . S
C174 C176 1.419 . S
C175 C173 1.415 . S
C175 C180 1.425 . S
C175 C182 1.409 . S
C176 H168 0.930 . S
C176 C174 1.419 . S
C176 C177 1.362 . S
C177 H169 0.930 . S
C177 C176 1.362 . S
C177 C180 1.409 . S
C178 H170 0.930 . S
C178 C179 1.355 . S
C178 C180 1.415 . S
C179 C178 1.355 . S
C179 C181 1.419 . S
C180 C175 1.425 . S
C180 C177 1.409 . S
C180 C178 1.415 . S
C181 H171 0.930 . S
C181 C179 1.419 . S
C181 C182 1.362 . S
C182 H172 0.930 . S
C182 C175 1.409 . S
C182 C181 1.362 . S
H183 C189 0.930 . S
H184 C192 0.930 . S
H185 C193 0.930 . S
H186 C194 0.930 . S
H187 C197 0.930 . S
H188 C198 0.930 . S
C189 H183 0.930 . S
C189 C190 1.355 . S
C189 C191 1.415 . S
C190 C189 1.355 . S
C190 C192 1.419 . S
C191 C189 1.415 . S
C191 C196 1.425 . S
C191 C198 1.409 . S
C192 H184 0.930 . S
C192 C190 1.419 . S
C192 C193 1.362 . S
C193 H185 0.930 . S
C193 C192 1.362 . S
C193 C196 1.409 . S
C194 H186 0.930 . S
C194 C195 1.355 . S
C194 C196 1.415 . S
C195 C194 1.355 . S
C195 C197 1.419 . S
C196 C191 1.425 . S
C196 C193 1.409 . S
C196 C194 1.415 . S
C197 H187 0.930 . S
C197 C195 1.419 . S
C197 C198 1.362 . S
C198 H188 0.930 . S
C198 C191 1.409 . S
C198 C197 1.362 . S
H199 C205 0.930 . S
H200 C208 0.930 . S
H201 C209 0.930 . S
H202 C210 0.930 . S
H203 C213 0.930 . S
H204 C214 0.930 . S
C205 H199 0.930 . S
C205 C206 1.355 . S
C205 C207 1.415 . S
C206 C205 1.355 . S
C206 C208 1.419 . S
C207 C205 1.415 . S
C207 C212 1.425 . S
C207 C214 1.409 . S
C208 H200 0.930 . S
C208 C206 1.419 . S
C208 C209 1.362 . S
C209 H201 0.930 . S
C209 C208 1.362 . S
C209 C212 1.409 . S
C210 H202 0.930 . S
C210 C211 1.355 . S
C210 C212 1.415 . S
C211 C210 1.355 . S
C211 C213 1.419 . S
C212 C207 1.425 . S
C212 C209 1.409 . S
C212 C210 1.415 . S
C213 H203 0.930 . S
C213 C211 1.419 . S
C213 C214 1.362 . S
C214 H204 0.930 . S
C214 C207 1.409 . S
C214 C213 1.362 . S
H215 C221 0.930 . S
H216 C224 0.930 . S
H217 C225 0.930 . S
H218 C226 0.930 . S
H219 C229 0.930 . S
H220 C230 0.930 . S
C221 H215 0.930 . S
C221 C222 1.355 . S
C221 C223 1.415 . S
C222 C221 1.355 . S
C222 C224 1.419 . S
C223 C221 1.415 . S
C223 C228 1.425 . S
C223 C230 1.409 . S
C224 H216 0.930 . S
C224 C222 1.419 . S
C224 C225 1.362 . S
C225 H217 0.930 . S
C225 C224 1.362 . S
C225 C228 1.409 . S
C226 H218 0.930 . S
C226 C227 1.355 . S
C226 C228 1.415 . S
C227 C226 1.355 . S
C227 C229 1.419 . S
C228 C223 1.425 . S
C228 C225 1.409 . S
C228 C226 1.415 . S
C229 H219 0.930 . S
C229 C227 1.419 . S
C229 C230 1.362 . S
C230 H220 0.930 . S
C230 C223 1.409 . S
C230 C229 1.362 . S
H231 C237 0.930 . S
H232 C240 0.930 . S
H233 C241 0.930 . S
H234 C242 0.930 . S
H235 C245 0.930 . S
H236 C246 0.930 . S
C237 H231 0.930 . S
C237 C238 1.355 . S
C237 C239 1.415 . S
C238 C237 1.355 . S
C238 C240 1.419 . S
C239 C237 1.415 . S
C239 C244 1.425 . S
C239 C246 1.409 . S
C240 H232 0.930 . S
C240 C238 1.419 . S
C240 C241 1.362 . S
C241 H233 0.930 . S
C241 C240 1.362 . S
C241 C244 1.409 . S
C242 H234 0.930 . S
C242 C243 1.355 . S
C242 C244 1.415 . S
C243 C242 1.355 . S
C243 C245 1.419 . S
C244 C239 1.425 . S
C244 C241 1.409 . S
C244 C242 1.415 . S
C245 H235 0.930 . S
C245 C243 1.419 . S
C245 C246 1.362 . S
C246 H236 0.930 . S
C246 C239 1.409 . S
C246 C245 1.362 . S
H247 C253 0.930 . S
H248 C256 0.930 . S
H249 C257 0.930 . S
H250 C258 0.930 . S
H251 C261 0.930 1_455 S
H252 C262 0.930 . S
C253 H247 0.930 . S
C253 C254 1.355 . S
C253 C255 1.415 . S
C254 C253 1.355 . S
C254 C256 1.419 . S
C255 C253 1.415 . S
C255 C260 1.425 . S
C255 C262 1.409 . S
C256 H248 0.930 . S
C256 C254 1.419 . S
C256 C257 1.362 . S
C257 H249 0.930 . S
C257 C256 1.362 . S
C257 C260 1.409 . S
C258 H250 0.930 . S
C258 C259 1.355 . S
C258 C260 1.415 . S
C259 C258 1.355 . S
C259 C261 1.419 . S
C260 C255 1.425 . S
C260 C257 1.409 . S
C260 C258 1.415 . S
C261 H251 0.930 1_655 S
C261 C259 1.419 . S
C261 C262 1.362 . S
C262 H252 0.930 . S
C262 C255 1.409 . S
C262 C261 1.362 . S
H263 C269 0.930 . S
H264 C272 0.930 . S
H265 C273 0.930 . S
H266 C274 0.930 . S
H267 C277 0.930 . S
H268 C278 0.930 . S
C269 H263 0.930 . S
C269 C270 1.355 . S
C269 C271 1.415 . S
C270 C269 1.355 . S
C270 C272 1.419 . S
C271 C269 1.415 . S
C271 C276 1.425 . S
C271 C278 1.409 . S
C272 H264 0.930 . S
C272 C270 1.419 . S
C272 C273 1.362 . S
C273 H265 0.930 . S
C273 C272 1.362 . S
C273 C276 1.409 . S
C274 H266 0.930 . S
C274 C275 1.355 . S
C274 C276 1.415 . S
C275 C274 1.355 . S
C275 C277 1.419 . S
C276 C271 1.425 . S
C276 C273 1.409 . S
C276 C274 1.415 . S
C277 H267 0.930 . S
C277 C275 1.419 . S
C277 C278 1.362 . S
C278 H268 0.930 . S
C278 C271 1.409 . S
C278 C277 1.362 . S
H279 C285 0.930 . S
H280 C288 0.930 . S
H281 C289 0.930 . S
H282 C290 0.930 . S
H283 C293 0.930 . S
H284 C294 0.930 . S
C285 H279 0.930 . S
C285 C286 1.355 . S
C285 C287 1.415 . S
C286 C285 1.355 . S
C286 C288 1.419 . S
C287 C285 1.415 . S
C287 C292 1.425 . S
C287 C294 1.409 . S
C288 H280 0.930 . S
C288 C286 1.419 . S
C288 C289 1.362 . S
C289 H281 0.930 . S
C289 C288 1.362 . S
C289 C292 1.409 . S
C290 H282 0.930 . S
C290 C291 1.355 . S
C290 C292 1.415 . S
C291 C290 1.355 . S
C291 C293 1.419 . S
C292 C287 1.425 . S
C292 C289 1.409 . S
C292 C290 1.415 . S
C293 H283 0.930 . S
C293 C291 1.419 . S
C293 C294 1.362 . S
C294 H284 0.930 . S
C294 C287 1.409 . S
C294 C293 1.362 . S
H295 C301 0.930 . S
H296 C304 0.930 . S
H297 C305 0.930 . S
H298 C306 0.930 . S
H299 C309 0.930 . S
H300 C310 0.930 . S
C301 H295 0.930 . S
C301 C302 1.355 . S
C301 C303 1.415 . S
C302 C301 1.355 . S
C302 C304 1.419 . S
C303 C301 1.415 . S
C303 C308 1.425 . S
C303 C310 1.409 . S
C304 H296 0.930 . S
C304 C302 1.419 . S
C304 C305 1.362 . S
C305 H297 0.930 . S
C305 C304 1.362 . S
C305 C308 1.409 . S
C306 H298 0.930 . S
C306 C307 1.355 . S
C306 C308 1.415 . S
C307 C306 1.355 . S
C307 C309 1.419 . S
C308 C303 1.425 . S
C308 C305 1.409 . S
C308 C306 1.415 . S
C309 H299 0.930 . S
C309 C307 1.419 . S
C309 C310 1.362 . S
C310 H300 0.930 . S
C310 C303 1.409 . S
C310 C309 1.362 . S
H311 C317 0.930 . S
H312 C320 0.930 . S
H313 C321 0.930 . S
H314 C322 0.930 . S
H315 C325 0.930 . S
H316 C326 0.930 . S
C317 H311 0.930 . S
C317 C318 1.355 . S
C317 C319 1.415 . S
C318 C317 1.355 . S
C318 C320 1.419 . S
C319 C317 1.415 . S
C319 C324 1.425 . S
C319 C326 1.409 . S
C320 H312 0.930 . S
C320 C318 1.419 . S
C320 C321 1.362 . S
C321 H313 0.930 . S
C321 C320 1.362 . S
C321 C324 1.409 . S
C322 H314 0.930 . S
C322 C323 1.355 . S
C322 C324 1.415 . S
C323 C322 1.355 . S
C323 C325 1.419 . S
C324 C319 1.425 . S
C324 C321 1.409 . S
C324 C322 1.415 . S
C325 H315 0.930 . S
C325 C323 1.419 . S
C325 C326 1.362 . S
C326 H316 0.930 . S
C326 C319 1.409 . S
C326 C325 1.362 . S
H327 C333 0.930 1_655 S
H328 C336 0.930 . S
H329 C337 0.930 . S
H330 C338 0.930 . S
H331 C341 0.930 . S
H332 C342 0.930 . S
C333 H327 0.930 1_455 S
C333 C334 1.355 . S
C333 C335 1.415 . S
C334 C333 1.355 . S
C334 C336 1.419 . S
C335 C333 1.415 . S
C335 C340 1.425 . S
C335 C342 1.409 1_454 S
C336 H328 0.930 . S
C336 C334 1.419 . S
C336 C337 1.362 . S
C337 H329 0.930 . S
C337 C336 1.362 . S
C337 C340 1.409 . S
C338 H330 0.930 . S
C338 C339 1.355 . S
C338 C340 1.415 1_556 S
C339 C338 1.355 . S
C339 C341 1.419 1_455 S
C340 C335 1.425 . S
C340 C337 1.409 . S
C340 C338 1.415 1_554 S
C341 H331 0.930 . S
C341 C339 1.419 1_655 S
C341 C342 1.362 . S
C342 H332 0.930 . S
C342 C335 1.409 1_656 S
C342 C341 1.362 . S
H343 C349 0.930 . S
H344 C352 0.930 . S
H345 C353 0.930 . S
H346 C354 0.930 1_565 S
H347 C357 0.930 . S
H348 C358 0.930 . S
C349 H343 0.930 . S
C349 C350 1.355 . S
C349 C351 1.415 . S
C350 C349 1.355 . S
C350 C352 1.419 1_545 S
C351 C349 1.415 . S
C351 C356 1.425 . S
C351 C358 1.409 . S
C352 H344 0.930 . S
C352 C350 1.419 1_565 S
C352 C353 1.362 . S
C353 H345 0.930 . S
C353 C352 1.362 . S
C353 C356 1.409 1_565 S
C354 H346 0.930 1_545 S
C354 C355 1.355 . S
C354 C356 1.415 . S
C355 C354 1.355 . S
C355 C357 1.419 . S
C356 C351 1.425 . S
C356 C353 1.409 1_545 S
C356 C354 1.415 . S
C357 H347 0.930 . S
C357 C355 1.419 . S
C357 C358 1.362 . S
C358 H348 0.930 . S
C358 C351 1.409 . S
C358 C357 1.362 . S
H359 C365 0.930 . S
H360 C368 0.930 . S
H361 C369 0.930 . S
H362 C370 0.930 . S
H363 C373 0.930 . S
H364 C374 0.930 . S
C365 H359 0.930 . S
C365 C366 1.355 . S
C365 C367 1.415 . S
C366 C365 1.355 . S
C366 C368 1.419 . S
C367 C365 1.415 . S
C367 C372 1.425 . S
C367 C374 1.409 . S
C368 H360 0.930 . S
C368 C366 1.419 . S
C368 C369 1.362 . S
C369 H361 0.930 . S
C369 C368 1.362 . S
C369 C372 1.409 . S
C370 H362 0.930 . S
C370 C371 1.355 . S
C370 C372 1.415 . S
C371 C370 1.355 . S
C371 C373 1.419 . S
C372 C367 1.425 . S
C372 C369 1.409 . S
C372 C370 1.415 . S
C373 H363 0.930 . S
C373 C371 1.419 . S
C373 C374 1.362 . S
C374 H364 0.930 . S
C374 C367 1.409 . S
C374 C373 1.362 . S
H375 C381 0.930 . S
H376 C384 0.930 . S
H377 C385 0.930 . S
H378 C386 0.930 . S
H379 C389 0.930 . S
H380 C390 0.930 . S
C381 H375 0.930 . S
C381 C382 1.355 . S
C381 C383 1.415 . S
C382 C381 1.355 . S
C382 C384 1.419 . S
C383 C381 1.415 . S
C383 C388 1.425 . S
C383 C390 1.409 . S
C384 H376 0.930 . S
C384 C382 1.419 . S
C384 C385 1.362 . S
C385 H377 0.930 . S
C385 C384 1.362 . S
C385 C388 1.409 . S
C386 H378 0.930 . S
C386 C387 1.355 . S
C386 C388 1.415 . S
C387 C386 1.355 . S
C387 C389 1.419 . S
C388 C383 1.425 . S
C388 C385 1.409 . S
C388 C386 1.415 . S
C389 H379 0.930 . S
C389 C387 1.419 . S
C389 C390 1.362 . S
C390 H380 0.930 . S
C390 C383 1.409 . S
C390 C389 1.362 . S
H391 C397 0.930 . S
H392 C400 0.930 . S
H393 C401 0.930 . S
H394 C402 0.930 . S
H395 C405 0.930 . S
H396 C406 0.930 . S
C397 H391 0.930 . S
C397 C398 1.355 . S
C397 C399 1.415 . S
C398 C397 1.355 . S
C398 C400 1.419 . S
C399 C397 1.415 . S
C399 C404 1.425 . S
C399 C406 1.409 . S
C400 H392 0.930 . S
C400 C398 1.419 . S
C400 C401 1.362 . S
C401 H393 0.930 . S
C401 C400 1.362 . S
C401 C404 1.409 . S
C402 H394 0.930 . S
C402 C403 1.355 . S
C402 C404 1.415 1_554 S
C403 C402 1.355 . S
C403 C405 1.419 . S
C404 C399 1.425 . S
C404 C401 1.409 . S
C404 C402 1.415 1_556 S
C405 H395 0.930 . S
C405 C403 1.419 . S
C405 C406 1.362 1_554 S
C406 H396 0.930 . S
C406 C399 1.409 . S
C406 C405 1.362 1_556 S
H407 C413 0.930 . S
H408 C416 0.930 . S
H409 C417 0.930 . S
H410 C418 0.930 . S
H411 C421 0.930 1_655 S
H412 C422 0.930 1_655 S
C413 H407 0.930 . S
C413 C414 1.355 . S
C413 C415 1.415 . S
C414 C413 1.355 . S
C414 C416 1.419 . S
C415 C413 1.415 . S
C415 C420 1.425 . S
C415 C422 1.409 . S
C416 H408 0.930 . S
C416 C414 1.419 . S
C416 C417 1.362 . S
C417 H409 0.930 . S
C417 C416 1.362 . S
C417 C420 1.409 . S
C418 H410 0.930 . S
C418 C419 1.355 . S
C418 C420 1.415 . S
C419 C418 1.355 . S
C419 C421 1.419 . S
C420 C415 1.425 . S
C420 C417 1.409 . S
C420 C418 1.415 . S
C421 H411 0.930 1_455 S
C421 C419 1.419 . S
C421 C422 1.362 . S
C422 H412 0.930 1_455 S
C422 C415 1.409 . S
C422 C421 1.362 . S
C142 C20 1.334 . S
C147 N128 1.306 . S
C158 C41 1.341 . S
C163 N106 1.298 . S
C174 C64 1.372 . S
C179 N117 1.362 . S
C190 C19 1.281 . S
C195 C130 1.380 . S
C211 C108 1.339 . S
C206 C44 1.311 . S
C227 C119 1.282 . S
C222 C67 1.266 . S
C238 C43 1.292 . S
C243 N84 1.340 . S
C254 C66 1.189 . S
C259 C97 1.275 . S
C270 C21 1.335 . S
C275 C75 1.354 . S
C291 C86 1.344 . S
C286 C42 1.251 . S
C307 N95 1.328 . S
C302 C65 1.319 . S
C318 C18 1.348 . S
C323 N73 1.322 . S
C339 C100 1.493 . S
C334 C17 1.502 . S
C350 C39 1.530 . S
C355 C78 1.531 . S
C366 C62 1.516 . S
C371 C89 1.500 . S
C387 C122 1.497 . S
C382 C40 1.488 . S
C403 C133 1.509 . S
C398 C63 1.509 . S
C414 C16 1.528 . S
C419 C111 1.525 . S
