# Generated by pormake.
# Topology ptr, (4,4)-cn, num edge types: 1
# Building blocks:
#     Node 0, Type 0, BuildingBlock: TATPOV_clean_sbu_0, # of connection points: 4
#     Node 1, Type 0, BuildingBlock: TATPOV_clean_sbu_0, # of connection points: 4
#     Node 2, Type 0, BuildingBlock: TATPOV_clean_sbu_0, # of connection points: 4
#     Node 3, Type 0, BuildingBlock: TATPOV_clean_sbu_0, # of connection points: 4
#     Node 4, Type 0, BuildingBlock: TATPOV_clean_sbu_0, # of connection points: 4
#     Node 5, Type 0, BuildingBlock: TATPOV_clean_sbu_0, # of connection points: 4
#     Node 6, Type 0, BuildingBlock: TATPOV_clean_sbu_0, # of connection points: 4
#     Node 7, Type 0, BuildingBlock: TATPOV_clean_sbu_0, # of connection points: 4
#     Node 8, Type 0, BuildingBlock: TATPOV_clean_sbu_0, # of connection points: 4
#     Node 9, Type 0, BuildingBlock: TATPOV_clean_sbu_0, # of connection points: 4
#     Node 10, Type 0, BuildingBlock: TATPOV_clean_sbu_0, # of connection points: 4
#     Node 11, Type 0, BuildingBlock: TATPOV_clean_sbu_0, # of connection points: 4
#     Node 12, Type 0, BuildingBlock: TATPOV_clean_sbu_0, # of connection points: 4
#     Node 13, Type 0, BuildingBlock: TATPOV_clean_sbu_0, # of connection points: 4
#     Node 14, Type 0, BuildingBlock: TATPOV_clean_sbu_0, # of connection points: 4
#     Node 15, Type 0, BuildingBlock: TATPOV_clean_sbu_0, # of connection points: 4
#     Node 16, Type 0, BuildingBlock: TATPOV_clean_sbu_0, # of connection points: 4
#     Node 17, Type 0, BuildingBlock: TATPOV_clean_sbu_0, # of connection points: 4
#     Node 18, Type 1, BuildingBlock: MIFKUJ_clean_linker_1, # of connection points: 4
#     Node 19, Type 1, BuildingBlock: MIFKUJ_clean_linker_1, # of connection points: 4
#     Node 20, Type 1, BuildingBlock: MIFKUJ_clean_linker_1, # of connection points: 4
#     Node 21, Type 1, BuildingBlock: MIFKUJ_clean_linker_1, # of connection points: 4
#     Node 22, Type 1, BuildingBlock: MIFKUJ_clean_linker_1, # of connection points: 4
#     Node 23, Type 1, BuildingBlock: MIFKUJ_clean_linker_1, # of connection points: 4
#     Node 24, Type 1, BuildingBlock: MIFKUJ_clean_linker_1, # of connection points: 4
#     Node 25, Type 1, BuildingBlock: MIFKUJ_clean_linker_1, # of connection points: 4
#     Node 26, Type 1, BuildingBlock: MIFKUJ_clean_linker_1, # of connection points: 4
#     Node 27, Type 1, BuildingBlock: MIFKUJ_clean_linker_1, # of connection points: 4
#     Node 28, Type 1, BuildingBlock: MIFKUJ_clean_linker_1, # of connection points: 4
#     Node 29, Type 1, BuildingBlock: MIFKUJ_clean_linker_1, # of connection points: 4
#     Node 30, Type 1, BuildingBlock: MIFKUJ_clean_linker_1, # of connection points: 4
#     Node 31, Type 1, BuildingBlock: MIFKUJ_clean_linker_1, # of connection points: 4
#     Node 32, Type 1, BuildingBlock: MIFKUJ_clean_linker_1, # of connection points: 4
#     Node 33, Type 1, BuildingBlock: MIFKUJ_clean_linker_1, # of connection points: 4
#     Node 34, Type 1, BuildingBlock: MIFKUJ_clean_linker_1, # of connection points: 4
#     Node 35, Type 1, BuildingBlock: MIFKUJ_clean_linker_1, # of connection points: 4
#     Edge 36, Type (0, 1), BuildingBlock: OJICUG_clean_linker_0, # of connection points: 2
#     Edge 37, Type (0, 1), BuildingBlock: OJICUG_clean_linker_0, # of connection points: 2
#     Edge 38, Type (0, 1), BuildingBlock: OJICUG_clean_linker_0, # of connection points: 2
#     Edge 39, Type (0, 1), BuildingBlock: OJICUG_clean_linker_0, # of connection points: 2
#     Edge 40, Type (0, 1), BuildingBlock: OJICUG_clean_linker_0, # of connection points: 2
#     Edge 41, Type (0, 1), BuildingBlock: OJICUG_clean_linker_0, # of connection points: 2
#     Edge 42, Type (0, 1), BuildingBlock: OJICUG_clean_linker_0, # of connection points: 2
#     Edge 43, Type (0, 1), BuildingBlock: OJICUG_clean_linker_0, # of connection points: 2
#     Edge 44, Type (0, 1), BuildingBlock: OJICUG_clean_linker_0, # of connection points: 2
#     Edge 45, Type (0, 1), BuildingBlock: OJICUG_clean_linker_0, # of connection points: 2
#     Edge 46, Type (0, 1), BuildingBlock: OJICUG_clean_linker_0, # of connection points: 2
#     Edge 47, Type (0, 1), BuildingBlock: OJICUG_clean_linker_0, # of connection points: 2
#     Edge 48, Type (0, 1), BuildingBlock: OJICUG_clean_linker_0, # of connection points: 2
#     Edge 49, Type (0, 1), BuildingBlock: OJICUG_clean_linker_0, # of connection points: 2
#     Edge 50, Type (0, 1), BuildingBlock: OJICUG_clean_linker_0, # of connection points: 2
#     Edge 51, Type (0, 1), BuildingBlock: OJICUG_clean_linker_0, # of connection points: 2
#     Edge 52, Type (0, 1), BuildingBlock: OJICUG_clean_linker_0, # of connection points: 2
#     Edge 53, Type (0, 1), BuildingBlock: OJICUG_clean_linker_0, # of connection points: 2
#     Edge 54, Type (0, 1), BuildingBlock: OJICUG_clean_linker_0, # of connection points: 2
#     Edge 55, Type (0, 1), BuildingBlock: OJICUG_clean_linker_0, # of connection points: 2
#     Edge 56, Type (0, 1), BuildingBlock: OJICUG_clean_linker_0, # of connection points: 2
#     Edge 57, Type (0, 1), BuildingBlock: OJICUG_clean_linker_0, # of connection points: 2
#     Edge 58, Type (0, 1), BuildingBlock: OJICUG_clean_linker_0, # of connection points: 2
#     Edge 59, Type (0, 1), BuildingBlock: OJICUG_clean_linker_0, # of connection points: 2
#     Edge 60, Type (0, 1), BuildingBlock: OJICUG_clean_linker_0, # of connection points: 2
#     Edge 61, Type (0, 1), BuildingBlock: OJICUG_clean_linker_0, # of connection points: 2
#     Edge 62, Type (0, 1), BuildingBlock: OJICUG_clean_linker_0, # of connection points: 2
#     Edge 63, Type (0, 1), BuildingBlock: OJICUG_clean_linker_0, # of connection points: 2
#     Edge 64, Type (0, 1), BuildingBlock: OJICUG_clean_linker_0, # of connection points: 2
#     Edge 65, Type (0, 1), BuildingBlock: OJICUG_clean_linker_0, # of connection points: 2
#     Edge 66, Type (0, 1), BuildingBlock: OJICUG_clean_linker_0, # of connection points: 2
#     Edge 67, Type (0, 1), BuildingBlock: OJICUG_clean_linker_0, # of connection points: 2
#     Edge 68, Type (0, 1), BuildingBlock: OJICUG_clean_linker_0, # of connection points: 2
#     Edge 69, Type (0, 1), BuildingBlock: OJICUG_clean_linker_0, # of connection points: 2
#     Edge 70, Type (0, 1), BuildingBlock: OJICUG_clean_linker_0, # of connection points: 2
#     Edge 71, Type (0, 1), BuildingBlock: OJICUG_clean_linker_0, # of connection points: 2
#     Edge 72, Type (0, 1), BuildingBlock: OJICUG_clean_linker_0, # of connection points: 2
#     Edge 73, Type (0, 1), BuildingBlock: OJICUG_clean_linker_0, # of connection points: 2
#     Edge 74, Type (0, 1), BuildingBlock: OJICUG_clean_linker_0, # of connection points: 2
#     Edge 75, Type (0, 1), BuildingBlock: OJICUG_clean_linker_0, # of connection points: 2
#     Edge 76, Type (0, 1), BuildingBlock: OJICUG_clean_linker_0, # of connection points: 2
#     Edge 77, Type (0, 1), BuildingBlock: OJICUG_clean_linker_0, # of connection points: 2
#     Edge 78, Type (0, 1), BuildingBlock: OJICUG_clean_linker_0, # of connection points: 2
#     Edge 79, Type (0, 1), BuildingBlock: OJICUG_clean_linker_0, # of connection points: 2
#     Edge 80, Type (0, 1), BuildingBlock: OJICUG_clean_linker_0, # of connection points: 2
#     Edge 81, Type (0, 1), BuildingBlock: OJICUG_clean_linker_0, # of connection points: 2
#     Edge 82, Type (0, 1), BuildingBlock: OJICUG_clean_linker_0, # of connection points: 2
#     Edge 83, Type (0, 1), BuildingBlock: OJICUG_clean_linker_0, # of connection points: 2
#     Edge 84, Type (0, 1), BuildingBlock: OJICUG_clean_linker_0, # of connection points: 2
#     Edge 85, Type (0, 1), BuildingBlock: OJICUG_clean_linker_0, # of connection points: 2
#     Edge 86, Type (0, 1), BuildingBlock: OJICUG_clean_linker_0, # of connection points: 2
#     Edge 87, Type (0, 1), BuildingBlock: OJICUG_clean_linker_0, # of connection points: 2
#     Edge 88, Type (0, 1), BuildingBlock: OJICUG_clean_linker_0, # of connection points: 2
#     Edge 89, Type (0, 1), BuildingBlock: OJICUG_clean_linker_0, # of connection points: 2
#     Edge 90, Type (0, 1), BuildingBlock: OJICUG_clean_linker_0, # of connection points: 2
#     Edge 91, Type (0, 1), BuildingBlock: OJICUG_clean_linker_0, # of connection points: 2
#     Edge 92, Type (0, 1), BuildingBlock: OJICUG_clean_linker_0, # of connection points: 2
#     Edge 93, Type (0, 1), BuildingBlock: OJICUG_clean_linker_0, # of connection points: 2
#     Edge 94, Type (0, 1), BuildingBlock: OJICUG_clean_linker_0, # of connection points: 2
#     Edge 95, Type (0, 1), BuildingBlock: OJICUG_clean_linker_0, # of connection points: 2
#     Edge 96, Type (0, 1), BuildingBlock: OJICUG_clean_linker_0, # of connection points: 2
#     Edge 97, Type (0, 1), BuildingBlock: OJICUG_clean_linker_0, # of connection points: 2
#     Edge 98, Type (0, 1), BuildingBlock: OJICUG_clean_linker_0, # of connection points: 2
#     Edge 99, Type (0, 1), BuildingBlock: OJICUG_clean_linker_0, # of connection points: 2
#     Edge 100, Type (0, 1), BuildingBlock: OJICUG_clean_linker_0, # of connection points: 2
#     Edge 101, Type (0, 1), BuildingBlock: OJICUG_clean_linker_0, # of connection points: 2
#     Edge 102, Type (0, 1), BuildingBlock: OJICUG_clean_linker_0, # of connection points: 2
#     Edge 103, Type (0, 1), BuildingBlock: OJICUG_clean_linker_0, # of connection points: 2
#     Edge 104, Type (0, 1), BuildingBlock: OJICUG_clean_linker_0, # of connection points: 2
#     Edge 105, Type (0, 1), BuildingBlock: OJICUG_clean_linker_0, # of connection points: 2
#     Edge 106, Type (0, 1), BuildingBlock: OJICUG_clean_linker_0, # of connection points: 2
#     Edge 107, Type (0, 1), BuildingBlock: OJICUG_clean_linker_0, # of connection points: 2
# Relax obj value: 0.067
# Max RMSD: 0.225
# Mean RMSD: 0.108
data_MOF--net-ptr--node1-TATPOV_clean_sbu_0--node2-MIFKUJ_clean_linker_1--edge1-OJICUG_clean_linker_0
_symmetry_space_group_name_H-M    P1
_symmetry_Int_Tables_number       1
_symmetry_cell_setting            triclinic
loop_
_symmetry_equiv_pos_as_xyz
'x, y, z'
_cell_length_a     69.533669
_cell_length_b     70.454279
_cell_length_c     46.848875
_cell_angle_alpha  89.698569
_cell_angle_beta   90.963558
_cell_angle_gamma 121.28685
loop_
_atom_site_label
_atom_site_type_symbol
_atom_site_fract_x
_atom_site_fract_y
_atom_site_fract_z
_atom_type_partial_charge
Zn0 Zn 0.95354 0.35927 0.01306 0.0
Zn1 Zn 0.99258 0.3625 0.02617 0.0
O2 O 0.97073 0.32947 0.01602 0.0
O3 O 0.9378 0.32618 0.00883 0.0
O4 O 0.0199 0.36197 0.03998 0.0
O5 O 0.95395 0.37387 0.0502 0.0
O6 O 0.98569 0.37564 0.06124 0.0
C7 C 0.94983 0.31753 0.00977 0.0
C8 C 0.98951 0.38559 0.97318 0.0
O9 O 0.00197 0.38237 0.99035 0.0
O10 O 0.96882 0.37739 0.97808 0.0
C11 C 0.02761 0.35175 0.02659 0.0
O12 O 0.01866 0.34267 1.0017 0.0
C13 C 0.97014 0.37931 0.06759 0.0
Zn14 Zn 0.64102 0.59878 0.9881 0.0
Zn15 Zn 0.6449 0.63565 0.00821 0.0
O16 O 0.67702 0.64531 0.99371 0.0
O17 O 0.67383 0.61383 0.98068 0.0
O18 O 0.64804 0.66391 0.02451 0.0
O19 O 0.62885 0.58321 0.02526 0.0
O20 O 0.63388 0.61432 0.04309 0.0
C21 C 0.68579 0.63466 0.98395 0.0
C22 C 0.61379 0.61136 0.95673 0.0
O23 O 0.6208 0.62647 0.97583 0.0
O24 O 0.62054 0.59779 0.9567 0.0
C25 C 0.6643 0.68337 0.019 0.0
O26 O 0.68002 0.6858 1.00159 0.0
C27 C 0.62791 0.59397 0.04618 0.0
Zn28 Zn 0.34632 0.953 0.01885 0.0
Zn29 Zn 0.35369 0.99407 0.0145 0.0
O30 O 0.3202 0.97474 0.02494 0.0
O31 O 0.3133 0.9405 0.02412 0.0
O32 O 0.3557 0.02274 0.00369 0.0
O33 O 0.35773 0.95332 0.97976 0.0
O34 O 0.3642 0.98729 0.97689 0.0
C35 C 0.30653 0.95391 0.02708 0.0
C36 C 0.37859 0.98545 0.06105 0.0
O37 O 0.37517 -0.00039 0.04857 0.0
O38 O 0.36827 0.96542 0.05249 0.0
C39 C 0.35418 0.03653 0.01939 0.0
O40 O 0.35279 0.03375 0.04719 0.0
C41 C 0.36489 0.97114 0.9659 0.0
Zn42 Zn 0.03524 0.63491 0.01747 0.0
Zn43 Zn 0.99813 0.63653 0.00694 0.0
O44 O 0.02277 0.66857 0.0173 0.0
O45 O 0.05246 0.66696 0.02999 0.0
O46 O 0.97185 0.64001 0.99574 0.0
O47 O 0.03583 0.62649 0.97662 0.0
O48 O 0.00247 0.62256 0.97055 0.0
C49 C 0.04286 0.67798 0.02708 0.0
C50 C 0.99773 0.60708 0.05446 0.0
O51 O 0.98818 0.61626 0.04212 0.0
O52 O 0.01688 0.61118 0.04667 0.0
C53 C 0.97006 0.65579 0.0057 0.0
O54 O 0.98445 0.66894 0.02537 0.0
C55 C 0.01852 0.62067 0.96118 0.0
Zn56 Zn 0.3672 0.40382 0.03678 0.0
Zn57 Zn 0.36027 0.36462 0.01898 0.0
O58 O 0.32891 0.35696 0.03364 0.0
O59 O 0.33551 0.38914 0.04974 0.0
O60 O 0.35582 0.33554 0.00433 0.0
O61 O 0.37425 0.41576 0.9969 0.0
O62 O 0.37124 0.38447 0.98292 0.0
C63 C 0.32206 0.36858 0.04561 0.0
C64 C 0.39493 0.39088 0.06653 0.0
O65 O 0.38437 0.37358 0.05091 0.0
O66 O 0.39107 0.40651 0.06425 0.0
C67 C 0.33858 0.31646 0.00876 0.0
O68 O 0.32211 0.3148 0.02404 0.0
C69 C 0.37535 0.40397 0.97748 0.0
Zn70 Zn 0.6598 0.04645 0.0144 0.0
Zn71 Zn 0.64826 0.00425 0.01939 0.0
O72 O 0.68229 0.0215 0.01093 0.0
O73 O 0.69245 0.05675 0.01212 0.0
O74 O 0.64365 0.9745 0.03009 0.0
O75 O 0.64718 0.04696 0.05227 0.0
O76 O 0.6371 0.01184 0.05588 0.0
C77 C 0.69748 0.04199 0.0097 0.0
C78 C 0.62813 0.01594 0.97022 0.0
O79 O 0.62877 0.00058 0.98394 0.0
O80 O 0.63984 0.03593 0.97877 0.0
C81 C 0.6472 0.9621 0.0142 0.0
O82 O 0.65201 0.96732 0.98723 0.0
C83 C 0.63783 0.02896 0.06607 0.0
Zn84 Zn 0.6195 0.69044 0.35123 0.0
Zn85 Zn 0.65939 0.69448 0.35656 0.0
O86 O 0.63707 0.66174 0.34501 0.0
O87 O 0.60404 0.65852 0.3398 0.0
O88 O 0.68758 0.69391 0.36618 0.0
O89 O 0.61975 0.69958 0.39177 0.0
O90 O 0.65456 0.70687 0.39416 0.0
C91 C 0.61622 0.6501 0.3384 0.0
C92 C 0.65313 0.72097 0.31062 0.0
O93 O 0.66616 0.71535 0.32227 0.0
O94 O 0.63344 0.71329 0.31998 0.0
C95 C 0.69169 0.68023 0.35427 0.0
O96 O 0.67873 0.66796 0.33295 0.0
C97 C 0.63817 0.70721 0.40541 0.0
Zn98 Zn 0.29419 0.92861 0.32145 0.0
Zn99 Zn 0.30218 0.96784 0.34093 0.0
O100 O 0.33327 0.97529 0.32603 0.0
O101 O 0.32603 0.94319 0.30875 0.0
O102 O 0.30681 0.99666 0.35699 0.0
O103 O 0.28664 0.91566 0.36069 0.0
O104 O 0.29147 0.9473 0.37634 0.0
C105 C 0.33979 0.96359 0.31357 0.0
C106 C 0.26722 0.94282 0.29296 0.0
O107 O 0.2782 0.95985 0.30896 0.0
O108 O 0.27052 0.92681 0.29457 0.0
C109 C 0.32549 0.01505 0.35807 0.0
O110 O 0.34356 0.01621 0.34793 0.0
C111 C 0.28653 0.92741 0.38094 0.0
Zn112 Zn 0.01269 0.29745 0.35883 0.0
Zn113 Zn 0.02391 0.33962 0.35212 0.0
O114 O 0.98977 0.32202 0.36042 0.0
O115 O 0.97994 0.28685 0.36103 0.0
O116 O 0.02921 0.37 0.34274 0.0
O117 O 0.02554 0.29702 0.32112 0.0
O118 O 0.03463 0.33172 0.31544 0.0
C119 C 0.97474 0.30153 0.36244 0.0
C120 C 0.04457 0.32839 0.40178 0.0
O121 O 0.04369 0.34331 0.38731 0.0
O122 O 0.03268 0.30816 0.39431 0.0
C123 C 0.01864 0.37754 0.35575 0.0
O124 O 0.00593 0.36632 0.37736 0.0
C125 C 0.03425 0.3145 0.30626 0.0
Zn126 Zn 0.71894 0.9837 0.34315 0.0
Zn127 Zn 0.67871 0.9793 0.33876 0.0
O128 O 0.70106 0.0124 0.34896 0.0
O129 O 0.73434 0.01603 0.35302 0.0
O130 O 0.64984 0.97897 0.33054 0.0
O131 O 0.71743 0.97334 0.30279 0.0
O132 O 0.68264 0.96618 0.30116 0.0
C133 C 0.72207 0.02436 0.35458 0.0
C134 C 0.68635 0.95393 0.38522 0.0
O135 O 0.67302 0.95914 0.37351 0.0
O136 O 0.70596 0.96164 0.37554 0.0
C137 C 0.6458 0.99288 0.34193 0.0
O138 O 0.65971 0.00657 0.36158 0.0
C139 C 0.69877 0.96548 0.28965 0.0
Zn140 Zn 0.02035 0.74006 0.36291 0.0
Zn141 Zn 0.01811 0.70192 0.35243 0.0
O142 O 0.98611 0.69241 0.36692 0.0
O143 O 0.98885 0.72425 0.37672 0.0
O144 O 0.01621 0.67322 0.34061 0.0
O145 O 0.02649 0.74966 0.32211 0.0
O146 O 0.02837 0.71983 0.31461 0.0
C147 C 0.97739 0.70325 0.37617 0.0
C148 C 0.05152 0.73369 0.39738 0.0
O149 O 0.04231 0.71494 0.38463 0.0
O150 O 0.04556 0.74743 0.39106 0.0
C151 C -0.00037 0.65376 0.34526 0.0
O152 O 0.9825 0.65134 0.35978 0.0
C153 C 0.03016 0.73779 0.3056 0.0
Zn154 Zn 0.32154 0.37768 0.33667 0.0
Zn155 Zn 0.31491 0.3375 0.34743 0.0
O156 O 0.3482 0.35654 0.33561 0.0
O157 O 0.35481 0.39066 0.33366 0.0
O158 O 0.31359 0.30976 0.36135 0.0
O159 O 0.30873 0.37889 0.37442 0.0
O160 O 0.30493 0.34649 0.38359 0.0
C161 C 0.36175 0.37729 0.33221 0.0
C162 C 0.2902 0.34238 0.29718 0.0
O163 O 0.29252 0.32923 0.31373 0.0
O164 O 0.30121 0.36315 0.30184 0.0
C165 C 0.3133 0.29449 0.34667 0.0
O166 O 0.31227 0.2951 0.31868 0.0
C167 C 0.30304 0.36277 0.39124 0.0
Zn168 Zn 0.2826 0.01437 0.68845 0.0
Zn169 Zn 0.32423 0.02125 0.69046 0.0
O170 O 0.30279 0.9876 0.68236 0.0
O171 O 0.2685 0.98171 0.6816 0.0
O172 O 0.35449 0.02388 0.69632 0.0
O173 O 0.28578 0.02618 0.7283 0.0
O174 O 0.3209 0.03426 0.72845 0.0
C175 C 0.28162 0.9744 0.67929 0.0
C176 C 0.31267 0.0441 0.64421 0.0
O177 O 0.32724 0.04046 0.65562 0.0
O178 O 0.29311 0.03523 0.65451 0.0
C179 C 0.35879 0.0099 0.68577 0.0
O180 O 0.34403 0.99438 0.66846 0.0
C181 C 0.30482 0.03461 0.74064 0.0
Zn182 Zn 0.97259 0.26022 0.66776 0.0
Zn183 Zn 0.97492 0.29665 0.68326 0.0
O184 O 0.00758 0.30718 0.67037 0.0
O185 O 0.0053 0.27564 0.6601 0.0
O186 O 0.97811 0.32507 0.69855 0.0
O187 O 0.96147 0.24543 0.70501 0.0
O188 O 0.96388 0.27625 0.71938 0.0
C189 C 0.01686 0.29656 0.66234 0.0
C190 C 0.94423 0.26942 0.63285 0.0
O191 O 0.95157 0.28624 0.64939 0.0
O192 O 0.95093 0.25596 0.63643 0.0
C193 C 0.97391 0.33819 0.68487 0.0
O194 O 0.96654 0.33347 0.65832 0.0
C195 C 0.95933 0.25651 0.72448 0.0
Zn196 Zn 0.68703 0.63292 0.70768 0.0
Zn197 Zn 0.68606 0.66724 0.68581 0.0
O198 O 0.65397 0.64656 0.70122 0.0
O199 O 0.65431 0.61708 0.71608 0.0
O200 O 0.68328 0.69193 0.66832 0.0
O201 O 0.69772 0.62801 0.67025 0.0
O202 O 0.69507 0.65528 0.65154 0.0
C203 C 0.64388 0.62719 0.71213 0.0
C204 C 0.7172 0.674 0.73656 0.0
O205 O 0.71108 0.68242 0.71688 0.0
O206 O 0.70886 0.65322 0.73779 0.0
C207 C 0.68446 0.70766 0.68296 0.0
O208 O 0.68843 0.7085 0.71058 0.0
C209 C 0.69941 0.63987 0.64893 0.0
Zn210 Zn 0.38119 0.31513 0.68385 0.0
Zn211 Zn 0.34028 0.30884 0.6798 0.0
O212 O 0.36105 0.34207 0.69028 0.0
O213 O 0.39503 0.34732 0.69375 0.0
O214 O 0.31124 0.30746 0.66999 0.0
O215 O 0.38051 0.30509 0.64349 0.0
O216 O 0.34531 0.29666 0.64229 0.0
C217 C 0.38201 0.35477 0.6956 0.0
C218 C 0.34906 0.2841 0.72575 0.0
O219 O 0.33504 0.2885 0.7143 0.0
O220 O 0.3688 0.29282 0.71604 0.0
C221 C 0.30478 0.31922 0.68223 0.0
O222 O 0.3159 0.33102 0.70485 0.0
C223 C 0.36172 0.29666 0.63052 0.0
Zn224 Zn 0.71108 0.07804 0.70965 0.0
Zn225 Zn 0.70279 0.03952 0.68885 0.0
O226 O 0.67137 0.03283 0.70191 0.0
O227 O 0.67836 0.06566 0.71579 0.0
O228 O 0.69715 0.01047 0.6721 0.0
O229 O 0.72451 0.09329 0.67282 0.0
O230 O 0.71564 0.06105 0.65431 0.0
C231 C 0.66452 0.04521 0.71145 0.0
C232 C 0.73403 0.06089 0.74134 0.0
O233 O 0.7255 0.04578 0.7222 0.0
O234 O 0.72999 0.07644 0.74122 0.0
C235 C 0.67937 0.99167 0.67595 0.0
O236 O 0.66337 0.9904 0.69186 0.0
C237 C 0.72373 0.08188 0.65157 0.0
Zn238 Zn 0.97583 0.70212 0.653 0.0
Zn239 Zn 0.97576 0.66622 0.67228 0.0
O240 O 0.0082 0.68706 0.65787 0.0
O241 O 0.00841 0.71703 0.64395 0.0
O242 O 0.97786 0.64091 0.68914 0.0
O243 O 0.96652 0.70688 0.69165 0.0
O244 O 0.96669 0.67742 0.70712 0.0
C245 C 0.0186 0.70665 0.64761 0.0
C246 C 0.94453 0.66164 0.62268 0.0
O247 O 0.9509 0.6524 0.64085 0.0
O248 O 0.95295 0.68247 0.62308 0.0
C249 C 0.97452 0.62384 0.6756 0.0
O250 O 0.96857 0.62152 0.64849 0.0
C251 C 0.96376 0.69357 0.71163 0.0
H252 H 0.14324 0.3429 0.19981 0.0
H253 H 0.11656 0.34426 0.23165 0.0
H254 H 0.06146 0.28934 0.1858 0.0
H255 H 0.08841 0.28785 0.15416 0.0
H256 H 0.15084 0.30949 0.19371 0.0
H257 H 0.13221 0.35302 0.13388 0.0
H258 H 0.10755 0.36276 0.10862 0.0
H259 H 0.07807 0.30121 0.06092 0.0
H260 H 0.10343 0.29202 0.08577 0.0
H261 H 0.19012 0.29067 0.12365 0.0
H262 H 0.22634 0.30193 0.10189 0.0
H263 H 0.22862 0.35986 0.0667 0.0
H264 H 0.19332 0.34928 0.08957 0.0
H265 H 0.15237 0.31854 0.08855 0.0
H266 H 0.17092 0.2796 0.18412 0.0
H267 H 0.20174 0.28385 0.21491 0.0
H268 H 0.23925 0.35429 0.1966 0.0
H269 H 0.20907 0.34944 0.16474 0.0
C270 C 0.11781 0.31517 0.17478 0.0
C271 C 0.1254 0.33123 0.19651 0.0
C272 C 0.11012 0.33216 0.21447 0.0
C273 C 0.08691 0.31693 0.2112 0.0
C274 C 0.07927 0.3012 0.18892 0.0
C275 C 0.09461 0.30037 0.1708 0.0
C276 C 0.13438 0.31368 0.15696 0.0
C277 C 0.15094 0.31105 0.17064 0.0
C278 C 0.1348 0.31621 0.12701 0.0
C279 C 0.11942 0.32169 0.1119 0.0
C280 C 0.12034 0.3416 0.11806 0.0
C281 C 0.10617 0.3471 0.10363 0.0
C282 C 0.09069 0.33273 0.08277 0.0
C283 C 0.08996 0.31282 0.07654 0.0
C284 C 0.10431 0.30744 0.09085 0.0
C285 C 0.18918 0.31936 0.10876 0.0
C286 C 0.19842 0.30576 0.11118 0.0
C287 C 0.21898 0.31207 0.09848 0.0
C288 C 0.2305 0.33198 0.08299 0.0
C289 C 0.22039 0.34468 0.07902 0.0
C290 C 0.20005 0.3385 0.09186 0.0
C291 C 0.16924 0.31487 0.12537 0.0
C292 C 0.15182 0.3161 0.11148 0.0
C293 C 0.16866 0.3122 0.15537 0.0
C294 C 0.18789 0.31417 0.17201 0.0
C295 C 0.18604 0.29583 0.18644 0.0
C296 C 0.20362 0.29837 0.20425 0.0
C297 C 0.22317 0.31944 0.20847 0.0
C298 C 0.22488 0.33768 0.19353 0.0
C299 C 0.20752 0.33503 0.17539 0.0
H300 H 0.71854 0.88565 0.17405 0.0
H301 H 0.72185 0.91451 0.20544 0.0
H302 H 0.65562 0.89951 0.17819 0.0
H303 H 0.65198 0.86957 0.14782 0.0
H304 H 0.68867 0.84296 0.18063 0.0
H305 H 0.70416 0.89737 0.10782 0.0
H306 H 0.69582 0.92297 0.08292 0.0
H307 H 0.63285 0.86756 0.05198 0.0
H308 H 0.64057 0.84192 0.07815 0.0
H309 H 0.64183 0.78655 0.08295 0.0
H310 H 0.63841 0.75401 0.0591 0.0
H311 H 0.70465 0.77249 0.09061 0.0
H312 H 0.70805 0.80501 0.1142 0.0
H313 H 0.67019 0.83038 0.07722 0.0
H314 H 0.64859 0.77801 0.14966 0.0
H315 H 0.64397 0.75211 0.18737 0.0
H316 H 0.70915 0.80036 0.22277 0.0
H317 H 0.71412 0.82607 0.18419 0.0
C318 C 0.68507 0.87545 0.15846 0.0
C319 C 0.70479 0.88868 0.17461 0.0
C320 C 0.70674 0.90542 0.19239 0.0
C321 C 0.68904 0.90955 0.19439 0.0
C322 C 0.66951 0.89671 0.17747 0.0
C323 C 0.66749 0.87973 0.15981 0.0
C324 C 0.68246 0.85605 0.1424 0.0
C325 C 0.68524 0.84052 0.15783 0.0
C326 C 0.67655 0.85222 0.11297 0.0
C327 C 0.67274 0.8677 0.09552 0.0
C328 C 0.68845 0.89067 0.09593 0.0
C329 C 0.68377 0.90527 0.08158 0.0
C330 C 0.66364 0.89715 0.06579 0.0
C331 C 0.64848 0.87416 0.06402 0.0
C332 C 0.65293 0.85955 0.07892 0.0
C333 C 0.67516 0.79818 0.10046 0.0
C334 C 0.65565 0.78364 0.08458 0.0
C335 C 0.65364 0.76497 0.07117 0.0
C336 C 0.67125 0.76067 0.07301 0.0
C337 C 0.69087 0.77543 0.08861 0.0
C338 C 0.69278 0.79395 0.10224 0.0
C339 C 0.67708 0.81765 0.11546 0.0
C340 C 0.67411 0.8331 0.09988 0.0
C341 C 0.68224 0.82122 0.145 0.0
C342 C 0.68172 0.80402 0.164 0.0
C343 C 0.66231 0.78276 0.1648 0.0
C344 C 0.65956 0.76805 0.18661 0.0
C345 C 0.67603 0.77438 0.2083 0.0
C346 C 0.6962 0.79501 0.20633 0.0
C347 C 0.69899 0.80973 0.18438 0.0
H348 H 0.08707 0.83582 0.17687 0.0
H349 H 0.06308 0.80915 0.21232 0.0
H350 H 0.08484 0.76454 0.1859 0.0
H351 H 0.11046 0.79239 0.15232 0.0
H352 H 0.13129 0.85624 0.17985 0.0
H353 H 0.07477 0.80258 0.10839 0.0
H354 H 0.05543 0.76562 0.086 0.0
H355 H 0.11982 0.77486 0.06362 0.0
H356 H 0.13883 0.81067 0.08729 0.0
H357 H 0.18172 0.85596 0.08984 0.0
H358 H 0.21696 0.87893 0.06579 0.0
H359 H 0.21157 0.93666 0.0796 0.0
H360 H 0.1761 0.91324 0.10486 0.0
H361 H 0.14087 0.84671 0.07749 0.0
H362 H 0.19517 0.87968 0.14924 0.0
H363 H 0.22391 0.90439 0.1833 0.0
H364 H 0.17922 0.92453 0.21507 0.0
H365 H 0.15044 0.90013 0.17978 0.0
C366 C 0.1004 0.81609 0.16157 0.0
C367 C 0.08648 0.82018 0.1785 0.0
C368 C 0.07251 0.80468 0.19865 0.0
C369 C 0.0718 0.78444 0.20217 0.0
C370 C 0.08508 0.77999 0.18426 0.0
C371 C 0.09949 0.79579 0.16453 0.0
C372 C 0.11766 0.83419 0.1436 0.0
C373 C 0.13303 0.85439 0.15722 0.0
C374 C 0.12078 0.83124 0.11452 0.0
C375 C 0.10827 0.80938 0.09975 0.0
C376 C 0.08465 0.79653 0.09877 0.0
C377 C 0.07363 0.77552 0.08572 0.0
C378 C 0.0861 0.76718 0.07326 0.0
C379 C 0.10968 0.78049 0.07353 0.0
C380 C 0.12059 0.80118 0.08678 0.0
C381 C 0.17615 0.88284 0.09886 0.0
C382 C 0.18792 0.87352 0.08742 0.0
C383 C 0.20808 0.88672 0.07347 0.0
C384 C 0.21694 0.90963 0.07017 0.0
C385 C 0.2052 0.91907 0.08175 0.0
C386 C 0.18493 0.90574 0.09608 0.0
C387 C 0.15499 0.8681 0.1141 0.0
C388 C 0.13859 0.84884 0.09987 0.0
C389 C 0.15231 0.8709 0.14334 0.0
C390 C 0.17078 0.88845 0.16126 0.0
C391 C 0.1918 0.89014 0.16248 0.0
C392 C 0.20825 0.90423 0.18218 0.0
C393 C 0.20389 0.91656 0.2017 0.0
C394 C 0.18304 0.91527 0.20019 0.0
C395 C 0.16665 0.90139 0.18004 0.0
H396 H 0.29108 0.17416 0.84543 0.0
H397 H 0.2958 0.20094 0.80856 0.0
H398 H 0.35977 0.24933 0.84681 0.0
H399 H 0.35547 0.22231 0.88269 0.0
H400 H 0.31651 0.15746 0.8497 0.0
H401 H 0.29557 0.19435 0.91549 0.0
H402 H 0.29855 0.22674 0.9389 0.0
H403 H 0.36382 0.24445 0.97346 0.0
H404 H 0.36088 0.21216 0.94961 0.0
H405 H 0.36227 0.15665 0.95336 0.0
H406 H 0.36895 0.13053 0.98002 0.0
H407 H 0.30589 0.07592 0.94782 0.0
H408 H 0.29874 0.10203 0.92216 0.0
H409 H 0.33254 0.16845 0.95376 0.0
H410 H 0.35213 0.13016 0.88295 0.0
H411 H 0.34853 0.10029 0.8524 0.0
H412 H 0.28243 0.0855 0.82488 0.0
H413 H 0.28576 0.11443 0.85622 0.0
C414 C 0.3229 0.19617 0.86689 0.0
C415 C 0.30594 0.19068 0.84614 0.0
C416 C 0.30858 0.20604 0.82518 0.0
C417 C 0.32829 0.22716 0.82455 0.0
C418 C 0.34454 0.23307 0.84645 0.0
C419 C 0.34196 0.2177 0.86725 0.0
C420 C 0.32222 0.17873 0.88564 0.0
C421 C 0.31947 0.1596 0.8726 0.0
C422 C 0.32661 0.18178 0.91538 0.0
C423 C 0.32808 0.20092 0.93063 0.0
C424 C 0.31053 0.20521 0.9281 0.0
C425 C 0.31218 0.22363 0.94165 0.0
C426 C 0.33144 0.23817 0.95798 0.0
C427 C 0.34888 0.23368 0.96078 0.0
C428 C 0.34714 0.21515 0.94737 0.0
C429 C 0.33022 0.13132 0.9352 0.0
C430 C 0.3497 0.13908 0.95235 0.0
C431 C 0.35353 0.12418 0.96757 0.0
C432 C 0.33805 0.10124 0.96568 0.0
C433 C 0.31824 0.09353 0.94928 0.0
C434 C 0.31422 0.10843 0.93449 0.0
C435 C 0.32697 0.14715 0.9177 0.0
C436 C 0.32918 0.16609 0.93096 0.0
C437 C 0.32174 0.14377 0.88809 0.0
C438 C 0.31914 0.12443 0.87201 0.0
C439 C 0.33667 0.12008 0.87082 0.0
C440 C 0.33467 0.10314 0.85312 0.0
C441 C 0.31518 0.09039 0.83612 0.0
C442 C 0.29751 0.09457 0.838 0.0
C443 C 0.29946 0.11131 0.85575 0.0
H444 H 0.84892 0.0958 0.8548 0.0
H445 H 0.81917 0.07306 0.81966 0.0
H446 H 0.77835 0.0972 0.85378 0.0
H447 H 0.80776 0.11947 0.88845 0.0
H448 H 0.86973 0.14153 0.85608 0.0
H449 H 0.82598 0.08172 0.92774 0.0
H450 H 0.79099 0.05728 0.95352 0.0
H451 H 0.78703 0.11455 0.97626 0.0
H452 H 0.82157 0.13846 0.95135 0.0
H453 H 0.86112 0.18179 0.95407 0.0
H454 H 0.8783 0.2171 0.97854 0.0
H455 H 0.94355 0.23362 0.94803 0.0
H456 H 0.92632 0.19694 0.92538 0.0
H457 H 0.8621 0.14768 0.95995 0.0
H458 H 0.87935 0.19674 0.87423 0.0
H459 H 0.90111 0.22306 0.83648 0.0
H460 H 0.94502 0.19666 0.83465 0.0
H461 H 0.92257 0.16985 0.87147 0.0
C462 C 0.83039 0.10895 0.87474 0.0
C463 C 0.83328 0.09567 0.85509 0.0
C464 C 0.81632 0.08281 0.83492 0.0
C465 C 0.79625 0.08314 0.83394 0.0
C466 C 0.79324 0.09597 0.85428 0.0
C467 C 0.81012 0.10877 0.87429 0.0
C468 C 0.84946 0.12551 0.89285 0.0
C469 C 0.86833 0.14259 0.87898 0.0
C470 C 0.8474 0.12731 0.92255 0.0
C471 C 0.82655 0.11193 0.93801 0.0
C472 C 0.81756 0.08889 0.93854 0.0
C473 C 0.79761 0.07499 0.95322 0.0
C474 C 0.78647 0.08401 0.96748 0.0
C475 C 0.79552 0.10706 0.96646 0.0
C476 C 0.81528 0.1208 0.95203 0.0
C477 C 0.89233 0.18656 0.93761 0.0
C478 C 0.87922 0.19273 0.95298 0.0
C479 C 0.88906 0.21319 0.9667 0.0
C480 C 0.91228 0.22847 0.96488 0.0
C481 C 0.9256 0.22223 0.94997 0.0
C482 C 0.91572 0.20138 0.93661 0.0
C483 C 0.88083 0.16472 0.92262 0.0
C484 C 0.86392 0.14629 0.93722 0.0
C485 C 0.88347 0.16253 0.89321 0.0
C486 C 0.8994 0.18141 0.87547 0.0
C487 C 0.89402 0.19707 0.86611 0.0
C488 C 0.90653 0.21215 0.84462 0.0
C489 C 0.9246 0.21174 0.8322 0.0
C490 C 0.9309 0.19708 0.8433 0.0
C491 C 0.91824 0.18187 0.86449 0.0
H492 H 0.82777 0.68984 0.81187 0.0
H493 H 0.79952 0.69056 0.7815 0.0
H494 H 0.78893 0.72774 0.84561 0.0
H495 H 0.81883 0.7287 0.87556 0.0
H496 H 0.86466 0.71413 0.83044 0.0
H497 H 0.79661 0.66775 0.87631 0.0
H498 H 0.76056 0.65372 0.89946 0.0
H499 H 0.79328 0.70323 0.96587 0.0
H500 H 0.82958 0.71755 0.94218 0.0
H501 H 0.8935 0.71599 0.94752 0.0
H502 H 0.91517 0.70448 0.97638 0.0
H503 H 0.90302 0.6551 0.91253 0.0
H504 H 0.87963 0.66521 0.88554 0.0
H505 H 0.84965 0.69253 0.93215 0.0
H506 H 0.92106 0.73308 0.86482 0.0
H507 H 0.9468 0.73106 0.8311 0.0
H508 H 0.8919 0.66851 0.79901 0.0
H509 H 0.86642 0.67089 0.83198 0.0
C510 C 0.82554 0.70913 0.84628 0.0
C511 C 0.82008 0.69888 0.81923 0.0
C512 C 0.80388 0.69925 0.8018 0.0
C513 C 0.79234 0.7094 0.81119 0.0
C514 C 0.79786 0.72001 0.83792 0.0
C515 C 0.8147 0.72027 0.85512 0.0
C516 C 0.84195 0.70721 0.86514 0.0
C517 C 0.86128 0.7095 0.85274 0.0
C518 C 0.8377 0.70091 0.89423 0.0
C519 C 0.81573 0.69384 0.90736 0.0
C520 C 0.79602 0.67587 0.89556 0.0
C521 C 0.77546 0.66775 0.90895 0.0
C522 C 0.77417 0.67729 0.93458 0.0
C523 C 0.7938 0.69566 0.94606 0.0
C524 C 0.8145 0.70377 0.93265 0.0
C525 C 0.88554 0.69203 0.9138 0.0
C526 C 0.89549 0.70264 0.93983 0.0
C527 C 0.90807 0.69613 0.95621 0.0
C528 C 0.91119 0.67896 0.94677 0.0
C529 C 0.90093 0.66822 0.9208 0.0
C530 C 0.88796 0.67442 0.90481 0.0
C531 C 0.87165 0.69861 0.89695 0.0
C532 C 0.85318 0.69775 0.91005 0.0
C533 C 0.87544 0.70422 0.86775 0.0
C534 C 0.89197 0.70203 0.85094 0.0
C535 C 0.91479 0.71878 0.85086 0.0
C536 C 0.92939 0.71763 0.83162 0.0
C537 C 0.92133 0.69954 0.81264 0.0
C538 C 0.89865 0.68244 0.81369 0.0
C539 C 0.88407 0.68383 0.83239 0.0
H540 H 0.78098 0.66376 0.50237 0.0
H541 H 0.75631 0.66507 0.53761 0.0
H542 H 0.72209 0.59369 0.54648 0.0
H543 H 0.74749 0.59272 0.51186 0.0
H544 H 0.79373 0.61616 0.52523 0.0
H545 H 0.80384 0.67775 0.43862 0.0
H546 H 0.78133 0.68923 0.41112 0.0
H547 H 0.72323 0.623 0.41817 0.0
H548 H 0.74583 0.61158 0.44564 0.0
H549 H 0.83429 0.62125 0.41648 0.0
H550 H 0.87122 0.63597 0.39461 0.0
H551 H 0.90232 0.68266 0.46437 0.0
H552 H 0.86548 0.66822 0.48574 0.0
H553 H 0.81481 0.6472 0.42777 0.0
H554 H 0.8444 0.60812 0.48198 0.0
H555 H 0.87467 0.61034 0.51239 0.0
H556 H 0.85842 0.64176 0.57861 0.0
H557 H 0.82965 0.64127 0.54782 0.0
C558 C 0.76605 0.62813 0.5045 0.0
C559 C 0.76771 0.64832 0.51126 0.0
C560 C 0.75354 0.64903 0.53147 0.0
C561 C 0.73738 0.62952 0.54527 0.0
C562 C 0.73468 0.6091 0.53678 0.0
C563 C 0.74902 0.60846 0.51679 0.0
C564 C 0.78435 0.62825 0.48862 0.0
C565 C 0.79827 0.62262 0.50374 0.0
C566 C 0.79024 0.637 0.46081 0.0
C567 C 0.77649 0.64381 0.44418 0.0
C568 C 0.78627 0.66569 0.43415 0.0
C569 C 0.77339 0.67227 0.4186 0.0
C570 C 0.75056 0.65699 0.41245 0.0
C571 C 0.74085 0.63506 0.42235 0.0
C572 C 0.75367 0.62855 0.4382 0.0
C573 C 0.84721 0.64356 0.45279 0.0
C574 C 0.84913 0.63452 0.42712 0.0
C575 C 0.8702 0.64282 0.41477 0.0
C576 C 0.8896 0.6605 0.42773 0.0
C577 C 0.88762 0.66918 0.45375 0.0
C578 C 0.86663 0.66086 0.46608 0.0
C579 C 0.82482 0.63596 0.46485 0.0
C580 C 0.81011 0.64017 0.44899 0.0
C581 C 0.81891 0.62711 0.49278 0.0
C582 C 0.83489 0.62493 0.51223 0.0
C583 C 0.84733 0.61553 0.50301 0.0
C584 C 0.86441 0.61652 0.52045 0.0
C585 C 0.8686 0.62603 0.54781 0.0
C586 C 0.85522 0.63403 0.55773 0.0
C587 C 0.83872 0.6337 0.54006 0.0
H588 H 0.37869 0.21488 0.51506 0.0
H589 H 0.38312 0.24423 0.54645 0.0
H590 H 0.31857 0.23285 0.51735 0.0
H591 H 0.31374 0.20244 0.48695 0.0
H592 H 0.34659 0.17245 0.52128 0.0
H593 H 0.36662 0.22829 0.44787 0.0
H594 H 0.36056 0.25479 0.42129 0.0
H595 H 0.29639 0.201 0.39044 0.0
H596 H 0.30213 0.17458 0.41779 0.0
H597 H 0.30328 0.11917 0.41885 0.0
H598 H 0.30062 0.08737 0.39409 0.0
H599 H 0.36343 0.10193 0.4338 0.0
H600 H 0.36633 0.13404 0.45772 0.0
H601 H 0.33152 0.16198 0.41703 0.0
H602 H 0.30641 0.10766 0.48791 0.0
H603 H 0.3013 0.08006 0.5234 0.0
H604 H 0.36532 0.12734 0.5626 0.0
H605 H 0.37081 0.15464 0.52619 0.0
C606 C 0.34592 0.20645 0.49858 0.0
C607 C 0.36557 0.21883 0.5152 0.0
C608 C 0.36817 0.23585 0.53298 0.0
C609 C 0.35124 0.24108 0.53449 0.0
C610 C 0.33186 0.22916 0.51701 0.0
C611 C 0.32917 0.21191 0.49934 0.0
C612 C 0.34246 0.18669 0.48267 0.0
C613 C 0.34381 0.17039 0.49835 0.0
C614 C 0.33734 0.18338 0.45304 0.0
C615 C 0.33462 0.19945 0.43537 0.0
C616 C 0.35115 0.22218 0.43561 0.0
C617 C 0.34772 0.2373 0.42034 0.0
C618 C 0.32793 0.22993 0.40399 0.0
C619 C 0.31183 0.20711 0.40277 0.0
C620 C 0.31511 0.19202 0.4184 0.0
C621 C 0.33491 0.12891 0.44034 0.0
C622 C 0.31655 0.11559 0.42206 0.0
C623 C 0.31495 0.0973 0.40812 0.0
C624 C 0.33178 0.09205 0.41203 0.0
C625 C 0.35028 0.1056 0.43008 0.0
C626 C 0.35185 0.12385 0.44402 0.0
C627 C 0.33648 0.14812 0.45559 0.0
C628 C 0.33464 0.1642 0.43988 0.0
C629 C 0.34046 0.15098 0.48542 0.0
C630 C 0.33903 0.13326 0.50427 0.0
C631 C 0.31969 0.1119 0.50356 0.0
C632 C 0.31666 0.09621 0.52413 0.0
C633 C 0.33276 0.1016 0.5461 0.0
C634 C 0.35265 0.12259 0.54591 0.0
C635 C 0.35573 0.13828 0.52521 0.0
H636 H 0.75594 0.17111 0.50898 0.0
H637 H 0.73608 0.14489 0.54747 0.0
H638 H 0.77434 0.11347 0.53239 0.0
H639 H 0.79377 0.13953 0.49331 0.0
H640 H 0.80731 0.19622 0.5177 0.0
H641 H 0.74751 0.14183 0.4502 0.0
H642 H 0.72961 0.10569 0.42586 0.0
H643 H 0.79354 0.12374 0.38919 0.0
H644 H 0.81144 0.15852 0.41499 0.0
H645 H 0.84992 0.20248 0.41414 0.0
H646 H 0.88369 0.22764 0.38877 0.0
H647 H 0.88166 0.28364 0.42239 0.0
H648 H 0.84751 0.25786 0.44868 0.0
H649 H 0.8096 0.19247 0.4125 0.0
H650 H 0.86859 0.22147 0.47593 0.0
H651 H 0.89931 0.24052 0.51009 0.0
H652 H 0.85853 0.25661 0.56119 0.0
H653 H 0.82805 0.2388 0.52541 0.0
C654 C 0.77622 0.15717 0.49833 0.0
C655 C 0.7595 0.15811 0.51337 0.0
C656 C 0.74833 0.14324 0.5355 0.0
C657 C 0.75396 0.12738 0.54331 0.0
C658 C 0.76957 0.12543 0.52682 0.0
C659 C 0.78067 0.14028 0.5045 0.0
C660 C 0.79168 0.17615 0.48032 0.0
C661 C 0.80761 0.19575 0.49456 0.0
C662 C 0.79296 0.17453 0.45045 0.0
C663 C 0.78093 0.15296 0.43477 0.0
C664 C 0.75768 0.13785 0.4372 0.0
C665 C 0.7474 0.11731 0.42292 0.0
C666 C 0.76018 0.11166 0.40578 0.0
C667 C 0.78322 0.1272 0.4027 0.0
C668 C 0.79346 0.14736 0.41722 0.0
C669 C 0.84599 0.22823 0.43314 0.0
C670 C 0.85636 0.22014 0.41565 0.0
C671 C 0.87574 0.23465 0.40095 0.0
C672 C 0.88529 0.25775 0.40307 0.0
C673 C 0.87475 0.26594 0.4203 0.0
C674 C 0.85524 0.25127 0.43527 0.0
C675 C 0.82624 0.21212 0.44994 0.0
C676 C 0.80903 0.19335 0.43557 0.0
C677 C 0.82586 0.21313 0.48011 0.0
C678 C 0.84596 0.22894 0.49762 0.0
C679 C 0.86651 0.2301 0.49353 0.0
C680 C 0.88401 0.24066 0.51351 0.0
C681 C 0.8812 0.24966 0.5387 0.0
C682 C 0.86126 0.24989 0.54198 0.0
C683 C 0.84379 0.23962 0.52159 0.0
H684 H 0.9464 0.5046 0.1852 0.0
H685 H 0.9445 0.52682 0.14615 0.0
H686 H 0.00859 0.58264 0.17328 0.0
H687 H 0.0111 0.56019 0.21141 0.0
H688 H 0.97447 0.49235 0.18574 0.0
H689 H 0.95767 0.53126 0.25382 0.0
H690 H 0.96041 0.56331 0.27779 0.0
H691 H 0.02916 0.58596 0.3027 0.0
H692 H 0.02649 0.55412 0.27802 0.0
H693 H 0.03396 0.49679 0.27236 0.0
H694 H 0.04205 0.47189 0.30001 0.0
H695 H 0.97149 0.42104 0.29634 0.0
H696 H 0.96359 0.44586 0.26867 0.0
H697 H 0.00161 0.51093 0.28608 0.0
H698 H 0.01858 0.47802 0.20142 0.0
H699 H 0.01446 0.4501 0.167 0.0
H700 H 0.94218 0.41534 0.17607 0.0
H701 H 0.94655 0.44396 0.20936 0.0
C702 C 0.97893 0.53063 0.20132 0.0
C703 C 0.95985 0.52176 0.18317 0.0
C704 C 0.9587 0.53444 0.16093 0.0
C705 C 0.97638 0.55636 0.15683 0.0
C706 C 0.99461 0.56583 0.17629 0.0
C707 C 0.996 0.55301 0.19819 0.0
C708 C 0.98251 0.51565 0.2202 0.0
C709 C 0.97987 0.49629 0.2079 0.0
C710 C 0.99031 0.52099 0.2489 0.0
C711 C 0.99194 0.54036 0.26385 0.0
C712 C 0.97339 0.5432 0.26426 0.0
C713 C 0.97491 0.56143 0.27824 0.0
C714 C 0.99501 0.57721 0.29219 0.0
C715 C 0.01352 0.57426 0.29191 0.0
C716 C 0.01196 0.55596 0.27799 0.0
C717 C 0.99821 0.47308 0.26846 0.0
C718 C 0.02028 0.48029 0.27763 0.0
C719 C 0.02488 0.46607 0.29327 0.0
C720 C 0.00738 0.4446 0.3004 0.0
C721 C 0.98526 0.43758 0.29143 0.0
C722 C 0.98074 0.45166 0.27549 0.0
C723 C 0.99327 0.48782 0.25141 0.0
C724 C 0.99585 0.50709 0.26403 0.0
C725 C 0.98507 0.48236 0.2231 0.0
C726 C 0.98287 0.463 0.20783 0.0
C727 C 0.00192 0.46406 0.19645 0.0
C728 C -0.00051 0.44802 0.1768 0.0
C729 C 0.97794 0.43059 0.16832 0.0
C730 C 0.959 0.4288 0.18149 0.0
C731 C 0.96144 0.44499 0.2008 0.0
H732 H 0.51336 0.43041 0.17604 0.0
H733 H 0.48306 0.40713 0.14171 0.0
H734 H 0.44307 0.43236 0.17528 0.0
H735 H 0.47314 0.4555 0.20877 0.0
H736 H 0.53512 0.47583 0.17658 0.0
H737 H 0.49095 0.41789 0.25114 0.0
H738 H 0.45582 0.39446 0.27703 0.0
H739 H 0.45137 0.45243 0.29344 0.0
H740 H 0.48636 0.47541 0.2689 0.0
H741 H 0.52701 0.51853 0.27165 0.0
H742 H 0.54462 0.55353 0.2968 0.0
H743 H 0.61 0.56791 0.26972 0.0
H744 H 0.59214 0.53143 0.24613 0.0
H745 H 0.52725 0.48405 0.27987 0.0
H746 H 0.54863 0.53432 0.19702 0.0
H747 H 0.57085 0.56044 0.15935 0.0
H748 H 0.60846 0.52758 0.15073 0.0
H749 H 0.58562 0.50113 0.18766 0.0
C750 C 0.49531 0.44425 0.19558 0.0
C751 C 0.49782 0.43047 0.17636 0.0
C752 C 0.48056 0.41727 0.1567 0.0
C753 C 0.46055 0.41769 0.15597 0.0
C754 C 0.45796 0.43111 0.17575 0.0
C755 C 0.47518 0.44434 0.1951 0.0
C756 C 0.51455 0.46082 0.21343 0.0
C757 C 0.53371 0.47736 0.19938 0.0
C758 C 0.51245 0.46317 0.24297 0.0
C759 C 0.49142 0.44841 0.25849 0.0
C760 C 0.48241 0.42543 0.26064 0.0
C761 C 0.46232 0.4121 0.27533 0.0
C762 C 0.45092 0.42158 0.28784 0.0
C763 C 0.45998 0.44457 0.2851 0.0
C764 C 0.48 0.45779 0.27084 0.0
C765 C 0.55818 0.52218 0.25692 0.0
C766 C 0.5452 0.52895 0.27136 0.0
C767 C 0.55531 0.54925 0.28547 0.0
C768 C 0.57873 0.56378 0.28497 0.0
C769 C 0.59191 0.55705 0.27065 0.0
C770 C 0.5817 0.53634 0.25682 0.0
C771 C 0.54639 0.50018 0.24239 0.0
C772 C 0.52916 0.48221 0.25728 0.0
C773 C 0.54915 0.49743 0.21317 0.0
C774 C 0.56555 0.51586 0.19509 0.0
C775 C 0.56207 0.53315 0.18747 0.0
C776 C 0.57482 0.54809 0.16596 0.0
C777 C 0.59125 0.54593 0.15169 0.0
C778 C 0.59563 0.52944 0.16082 0.0
C779 C 0.58275 0.51442 0.1821 0.0
H780 H 0.56188 0.05669 0.18028 0.0
H781 H 0.58967 0.05808 0.14815 0.0
H782 H 0.5758 0.9944 0.17963 0.0
H783 H 0.54688 0.99252 0.21041 0.0
H784 H 0.51811 0.02668 0.17633 0.0
H785 H 0.57577 0.04745 0.25291 0.0
H786 H 0.60278 0.04091 0.27875 0.0
H787 H 0.54929 0.97424 0.29822 0.0
H788 H 0.52241 0.98084 0.2724 0.0
H789 H 0.46896 0.98106 0.27662 0.0
H790 H 0.43278 0.97046 0.29708 0.0
H791 H 0.43738 0.02948 0.26195 0.0
H792 H 0.47422 0.04056 0.24235 0.0
H793 H 0.50996 0.01178 0.28031 0.0
H794 H 0.45406 0.98439 0.20969 0.0
H795 H 0.42409 0.97782 0.17627 0.0
H796 H 0.46782 0.04171 0.13754 0.0
H797 H 0.49744 0.04884 0.17249 0.0
C798 C 0.55242 0.02463 0.19798 0.0
C799 C 0.565 0.04314 0.18048 0.0
C800 C 0.58109 0.04398 0.16228 0.0
C801 C 0.58511 0.02636 0.16127 0.0
C802 C 0.57301 0.00815 0.17958 0.0
C803 C 0.55668 0.0072 0.19756 0.0
C804 C 0.53343 0.02272 0.21438 0.0
C805 C 0.5166 0.02411 0.19924 0.0
C806 C 0.53083 0.0179 0.2439 0.0
C807 C 0.54713 0.01461 0.26067 0.0
C808 C 0.56988 0.03149 0.26288 0.0
C809 C 0.58523 0.02776 0.27774 0.0
C810 C 0.57811 0.00704 0.29043 0.0
C811 C 0.55527 0.99029 0.28846 0.0
C812 C 0.5399 0.9941 0.27391 0.0
C813 C 0.47418 0.01145 0.25758 0.0
C814 C 0.4625 0.99203 0.27385 0.0
C815 C 0.44169 0.98586 0.2853 0.0
C816 C 0.43208 0.99895 0.28067 0.0
C817 C 0.44438 0.01908 0.26587 0.0
C818 C 0.46532 0.02532 0.25447 0.0
C819 C 0.49472 0.01615 0.24233 0.0
C820 C 0.51176 0.01515 0.25758 0.0
C821 C 0.49693 0.02013 0.21253 0.0
C822 C 0.47799 0.01727 0.19397 0.0
C823 C 0.45703 0.99735 0.19468 0.0
C824 C 0.43997 0.99345 0.17517 0.0
C825 C 0.4436 0.00911 0.1539 0.0
C826 C 0.46435 0.02937 0.15375 0.0
C827 C 0.48137 0.03339 0.17359 0.0
H828 H 0.4768 0.01797 0.8612 0.0
H829 H 0.44651 0.01388 0.89101 0.0
H830 H 0.39884 0.95533 0.84313 0.0
H831 H 0.42954 0.95949 0.81329 0.0
H832 H 0.48905 0.9872 0.85923 0.0
H833 H 0.46387 0.02311 0.79872 0.0
H834 H 0.43659 0.0276 0.77141 0.0
H835 H 0.4301 0.97839 0.71074 0.0
H836 H 0.45595 0.97251 0.73995 0.0
H837 H 0.52 0.9722 0.75214 0.0
H838 H 0.55575 0.98301 0.72899 0.0
H839 H 0.58964 0.04149 0.78269 0.0
H840 H 0.55409 0.03102 0.80487 0.0
H841 H 0.49842 0.99762 0.75455 0.0
H842 H 0.53086 0.96745 0.82495 0.0
H843 H 0.56094 0.97193 0.85796 0.0
H844 H 0.56045 0.0263 0.89937 0.0
H845 H 0.53085 0.02192 0.86661 0.0
C846 C 0.45541 0.98894 0.83522 0.0
C847 C 0.45977 0.00443 0.85685 0.0
C848 C 0.44239 0.00219 0.87368 0.0
C849 C 0.42028 0.98428 0.86941 0.0
C850 C 0.41576 0.96923 0.84697 0.0
C851 C 0.43321 0.97161 0.82989 0.0
C852 C 0.4745 0.99025 0.81988 0.0
C853 C 0.49102 0.98936 0.83629 0.0
C854 C 0.47705 0.99323 0.78998 0.0
C855 C 0.46139 0.99686 0.77205 0.0
C856 C 0.4562 0.01289 0.77991 0.0
C857 C 0.44089 0.01581 0.76377 0.0
C858 C 0.4309 0.00332 0.73874 0.0
C859 C 0.43695 0.98797 0.7302 0.0
C860 C 0.45194 0.98472 0.74675 0.0
C861 C 0.53448 0.00069 0.78042 0.0
C862 C 0.53519 0.98733 0.75883 0.0
C863 C 0.5556 0.99344 0.74578 0.0
C864 C 0.57547 0.01316 0.75391 0.0
C865 C 0.57459 0.02637 0.77563 0.0
C866 C 0.55431 0.02029 0.78858 0.0
C867 C 0.51303 0.99477 0.79406 0.0
C868 C 0.49601 0.99471 0.77732 0.0
C869 C 0.5105 0.99215 0.82395 0.0
C870 C 0.52867 0.99438 0.84333 0.0
C871 C 0.53735 0.98035 0.84112 0.0
C872 C 0.55439 0.98284 0.86001 0.0
C873 C 0.56312 -0.00043 0.88106 0.0
C874 C 0.55429 0.01347 0.88313 0.0
C875 C 0.53725 0.01088 0.86455 0.0
H876 H 0.04385 0.54668 0.8417 0.0
H877 H 0.04606 0.57424 0.87455 0.0
H878 H 0.98043 0.55981 0.84529 0.0
H879 H 0.97768 0.53091 0.81388 0.0
H880 H 0.0161 0.50477 0.84608 0.0
H881 H 0.03073 0.55812 0.77289 0.0
H882 H 0.02415 0.58456 0.74715 0.0
H883 H 0.95807 0.53107 0.72134 0.0
H884 H 0.96457 0.50469 0.7475 0.0
H885 H 0.96423 0.44887 0.74986 0.0
H886 H 0.95751 0.41504 0.72614 0.0
H887 H 0.02278 0.42873 0.75535 0.0
H888 H 0.0295 0.46259 0.77878 0.0
H889 H 0.99302 0.49111 0.74399 0.0
H890 H 0.97388 0.44091 0.82234 0.0
H891 H 0.97335 0.4162 0.85913 0.0
H892 H 0.04391 0.46256 0.87757 0.0
H893 H 0.04393 0.48766 0.84124 0.0
C894 C 0.01064 0.53668 0.8252 0.0
C895 C 0.02999 0.54956 0.84215 0.0
C896 C 0.03132 0.56559 0.86078 0.0
C897 C 0.01342 0.56942 0.86274 0.0
C898 C 0.99442 0.55716 0.84476 0.0
C899 C 0.99296 0.54082 0.8264 0.0
C900 C 0.00823 0.51752 0.80872 0.0
C901 C 0.01163 0.50213 0.82352 0.0
C902 C 0.00141 0.51352 0.7796 0.0
C903 C 0.99802 0.52943 0.76253 0.0
C904 C 0.01477 0.55207 0.76183 0.0
C905 C 0.011 0.56718 0.74711 0.0
C906 C 0.99052 0.55991 0.73241 0.0
C907 C 0.97406 0.53714 0.73232 0.0
C908 C 0.97777 0.52206 0.74727 0.0
C909 C 0.99726 0.4582 0.76645 0.0
C910 C 0.97716 0.44468 0.751 0.0
C911 C 0.97335 0.42534 0.73741 0.0
C912 C 0.98955 0.4191 0.739 0.0
C913 C 0.00979 0.43284 0.75414 0.0
C914 C 0.01364 0.45222 0.76757 0.0
C915 C 0.00106 0.47848 0.78145 0.0
C916 C 0.99792 0.49404 0.76638 0.0
C917 C 0.00793 0.48265 0.81048 0.0
C918 C 0.00894 0.46606 0.82899 0.0
C919 C 0.98937 0.44549 0.83382 0.0
C920 C 0.98917 0.43132 0.85491 0.0
C921 C 0.00861 0.43735 0.87155 0.0
C922 C 0.02854 0.45751 0.86558 0.0
C923 C 0.02864 0.4718 0.84465 0.0
H924 H 0.42199 0.5063 0.85459 0.0
H925 H 0.4008 0.47804 0.88992 0.0
H926 H 0.42287 0.43636 0.85325 0.0
H927 H 0.44566 0.46578 0.81945 0.0
H928 H 0.46753 0.52667 0.85421 0.0
H929 H 0.40634 0.47443 0.78543 0.0
H930 H 0.38805 0.43784 0.76204 0.0
H931 H 0.4515 0.45509 0.72461 0.0
H932 H 0.4698 0.49012 0.74962 0.0
H933 H 0.50704 0.52959 0.74913 0.0
H934 H 0.54364 0.55164 0.7278 0.0
H935 H 0.55248 0.61056 0.76858 0.0
H936 H 0.51474 0.58842 0.78885 0.0
H937 H 0.46951 0.52454 0.74879 0.0
H938 H 0.52463 0.54242 0.82059 0.0
H939 H 0.55662 0.56346 0.85262 0.0
H940 H 0.52564 0.59843 0.88539 0.0
H941 H 0.49299 0.57636 0.85362 0.0
C942 C 0.43514 0.48809 0.83405 0.0
C943 C 0.42197 0.49092 0.85389 0.0
C944 C 0.40965 0.47453 0.874 0.0
C945 C 0.40992 0.45466 0.8746 0.0
C946 C 0.42242 0.45148 0.85384 0.0
C947 C 0.43518 0.46817 0.83407 0.0
C948 C 0.45113 0.50723 0.81639 0.0
C949 C 0.46766 0.52634 0.83104 0.0
C950 C 0.45219 0.50623 0.78628 0.0
C951 C 0.43958 0.48507 0.76974 0.0
C952 C 0.41627 0.47023 0.77228 0.0
C953 C 0.40579 0.44942 0.75863 0.0
C954 C 0.41841 0.44333 0.74188 0.0
C955 C 0.44135 0.45886 0.738 0.0
C956 C 0.45181 0.47921 0.75202 0.0
C957 C 0.50805 0.55724 0.77089 0.0
C958 C 0.51639 0.54736 0.75289 0.0
C959 C 0.53753 0.55995 0.74095 0.0
C960 C 0.55111 0.58271 0.74703 0.0
C961 C 0.54235 0.59301 0.76358 0.0
C962 C 0.5209 0.58035 0.77536 0.0
C963 C 0.48704 0.54264 0.78676 0.0
C964 C 0.46895 0.52499 0.7719 0.0
C965 C 0.48636 0.54327 0.81688 0.0
C966 C 0.50662 0.55808 0.83444 0.0
C967 C 0.52491 0.5549 0.83431 0.0
C968 C 0.54331 0.56712 0.85262 0.0
C969 C 0.54397 0.58293 0.87154 0.0
C970 C 0.5257 0.58632 0.8713 0.0
C971 C 0.50709 0.57386 0.85304 0.0
H972 H 0.62378 0.84773 0.50966 0.0
H973 H 0.62984 0.87411 0.47158 0.0
H974 H 0.69519 0.92071 0.50813 0.0
H975 H 0.68948 0.89405 0.54532 0.0
H976 H 0.64801 0.82947 0.51378 0.0
H977 H 0.63032 0.86955 0.57919 0.0
H978 H 0.63529 0.90274 0.60278 0.0
H979 H 0.69964 0.91709 0.63682 0.0
H980 H 0.69472 0.88401 0.61282 0.0
H981 H 0.69384 0.82746 0.61585 0.0
H982 H 0.69982 0.80063 0.64171 0.0
H983 H 0.63454 0.74749 0.61282 0.0
H984 H 0.62838 0.77441 0.5875 0.0
H985 H 0.66484 0.84091 0.61765 0.0
H986 H 0.68263 0.80124 0.54863 0.0
H987 H 0.67905 0.77116 0.51872 0.0
H988 H 0.61406 0.75776 0.48825 0.0
H989 H 0.61724 0.7868 0.51926 0.0
C990 C 0.65616 0.86887 0.5304 0.0
C991 C 0.63922 0.86383 0.50979 0.0
C992 C 0.64265 0.87896 0.48811 0.0
C993 C 0.66313 0.89935 0.48663 0.0
C994 C 0.67938 0.90497 0.50845 0.0
C995 C 0.676 0.88983 0.52999 0.0
C996 C 0.65468 0.85125 0.54946 0.0
C997 C 0.65105 0.83169 0.53666 0.0
C998 C 0.65942 0.85451 0.57913 0.0
C999 C 0.66221 0.87435 0.59409 0.0
C1000 C 0.64553 0.87987 0.59167 0.0
C1001 C 0.64832 0.89876 0.60533 0.0
C1002 C 0.66788 0.91255 0.62163 0.0
C1003 C 0.68449 0.90692 0.62417 0.0
C1004 C 0.68162 0.88793 0.61067 0.0
C1005 C 0.66081 0.80293 0.59935 0.0
C1006 C 0.68066 0.81008 0.61542 0.0
C1007 C 0.68408 0.79475 0.63017 0.0
C1008 C 0.66774 0.77197 0.62901 0.0
C1009 C 0.64758 0.76491 0.61368 0.0
C1010 C 0.64405 0.78028 0.59922 0.0
C1011 C 0.65815 0.81908 0.58184 0.0
C1012 C 0.66124 0.83845 0.5949 0.0
C1013 C 0.65282 0.81563 0.55228 0.0
C1014 C 0.65011 0.79617 0.53637 0.0
C1015 C 0.66737 0.79139 0.53606 0.0
C1016 C 0.6654 0.77434 0.51867 0.0
C1017 C 0.64627 0.76195 0.50096 0.0
C1018 C 0.62885 0.76653 0.50194 0.0
C1019 C 0.63073 0.78336 0.51947 0.0
H1020 H 0.16901 0.76448 0.50208 0.0
H1021 H 0.13759 0.74702 0.46756 0.0
H1022 H 0.1023 0.77135 0.51578 0.0
H1023 H 0.13394 0.78947 0.54928 0.0
H1024 H 0.19179 0.80967 0.50697 0.0
H1025 H 0.14848 0.74785 0.57281 0.0
H1026 H 0.11101 0.72497 0.59343 0.0
H1027 H 0.12 0.78247 0.63836 0.0
H1028 H 0.15641 0.80534 0.6167 0.0
H1029 H 0.20656 0.86562 0.56907 0.0
H1030 H 0.22501 0.89945 0.59763 0.0
H1031 H 0.26199 0.87522 0.64439 0.0
H1032 H 0.24344 0.84107 0.61512 0.0
H1033 H 0.19427 0.81255 0.61269 0.0
H1034 H 0.19818 0.85334 0.51237 0.0
H1035 H 0.22111 0.88198 0.47771 0.0
H1036 H 0.27803 0.87575 0.50067 0.0
H1037 H 0.25489 0.84713 0.53585 0.0
C1038 C 0.15376 0.77807 0.5285 0.0
C1039 C 0.15422 0.76553 0.50558 0.0
C1040 C 0.13625 0.75552 0.48591 0.0
C1041 C 0.1176 0.75804 0.48876 0.0
C1042 C 0.11658 0.76938 0.51276 0.0
C1043 C 0.13455 0.77948 0.53222 0.0
C1044 C 0.17457 0.7929 0.5453 0.0
C1045 C 0.19257 0.80984 0.53015 0.0
C1046 C 0.17529 0.79359 0.5756 0.0
C1047 C 0.15519 0.77845 0.5927 0.0
C1048 C 0.14249 0.75543 0.58742 0.0
C1049 C 0.12117 0.74234 0.59937 0.0
C1050 C 0.11244 0.75208 0.617 0.0
C1051 C 0.1261 0.77462 0.62434 0.0
C1052 C 0.14713 0.78767 0.6122 0.0
C1053 C 0.22401 0.85106 0.58954 0.0
C1054 C 0.21907 0.86777 0.58493 0.0
C1055 C 0.22936 0.88695 0.60158 0.0
C1056 C 0.24473 0.88982 0.62342 0.0
C1057 C 0.25022 0.87339 0.62763 0.0
C1058 C 0.23971 0.85397 0.61096 0.0
C1059 C 0.21042 0.8297 0.57418 0.0
C1060 C 0.19398 0.81149 0.58958 0.0
C1061 C 0.20981 0.82869 0.54412 0.0
C1062 C 0.22487 0.8481 0.52644 0.0
C1063 C 0.21575 0.8585 0.51037 0.0
C1064 C 0.2289 0.87497 0.49076 0.0
C1065 C 0.25133 0.88105 0.48651 0.0
C1066 C 0.26075 0.8713 0.50354 0.0
C1067 C 0.24762 0.85502 0.52359 0.0
H1068 H 0.1464 0.32659 0.4997 0.0
H1069 H 0.11528 0.32095 0.46896 0.0
H1070 H 0.11609 0.37631 0.50942 0.0
H1071 H 0.1477 0.38206 0.54038 0.0
H1072 H 0.18821 0.36049 0.50465 0.0
H1073 H 0.12625 0.31814 0.5628 0.0
H1074 H 0.09124 0.30631 0.5874 0.0
H1075 H 0.12399 0.36691 0.63708 0.0
H1076 H 0.15932 0.37896 0.61178 0.0
H1077 H 0.23439 0.38154 0.61296 0.0
H1078 H 0.25823 0.3717 0.64052 0.0
H1079 H 0.22386 0.30678 0.60055 0.0
H1080 H 0.20099 0.31721 0.57237 0.0
H1081 H 0.18195 0.35317 0.60994 0.0
H1082 H 0.24867 0.38778 0.54458 0.0
H1083 H 0.27668 0.38878 0.51229 0.0
H1084 H 0.22528 0.32669 0.47452 0.0
H1085 H 0.19758 0.32585 0.50665 0.0
C1086 C 0.14941 0.35477 0.52229 0.0
C1087 C 0.14001 0.33763 0.50192 0.0
C1088 C 0.12208 0.33429 0.48455 0.0
C1089 C 0.11315 0.34808 0.48699 0.0
C1090 C 0.1227 0.36548 0.50711 0.0
C1091 C 0.14064 0.36871 0.52482 0.0
C1092 C 0.16818 0.35749 0.54084 0.0
C1093 C 0.18698 0.35923 0.52773 0.0
C1094 C 0.16653 0.35571 0.57091 0.0
C1095 C 0.14528 0.34952 0.58526 0.0
C1096 C 0.12587 0.32906 0.57868 0.0
C1097 C 0.10594 0.32224 0.59294 0.0
C1098 C 0.10498 0.33563 0.61432 0.0
C1099 C 0.1243 0.35634 0.62061 0.0
C1100 C 0.14442 0.36317 0.60631 0.0
C1101 C 0.21621 0.3502 0.59045 0.0
C1102 C 0.23215 0.36526 0.61017 0.0
C1103 C 0.2456 0.35949 0.62606 0.0
C1104 C 0.24307 0.33842 0.62276 0.0
C1105 C 0.22668 0.32329 0.60328 0.0
C1106 C 0.2135 0.32917 0.58722 0.0
C1107 C 0.20176 0.35587 0.57356 0.0
C1108 C 0.18375 0.35566 0.58703 0.0
C1109 C 0.20341 0.3578 0.5436 0.0
C1110 C 0.2211 0.35681 0.52781 0.0
C1111 C 0.24364 0.37418 0.52975 0.0
C1112 C 0.25955 0.37477 0.51124 0.0
C1113 C 0.25314 0.35785 0.49081 0.0
C1114 C 0.2308 0.33984 0.49019 0.0
C1115 C 0.21493 0.3394 0.50841 0.0
C1116 C 0.95562 0.39721 0.09964 0.0
C1117 C 0.9714 0.39091 0.09455 0.0
H1118 H 0.94552 0.41484 0.12627 0.0
C1119 C 0.98875 0.39667 0.11482 0.0
H1120 H 0.94207 0.39317 0.08448 0.0
C1121 C 0.99055 0.40892 0.13926 0.0
C1122 C 0.97509 0.41577 0.14391 0.0
H1123 H 0.00113 0.39198 0.11164 0.0
H1124 H 0.00417 0.41319 0.15437 0.0
C1125 C 0.95749 0.40954 0.12387 0.0
C1126 C 0.61714 0.59313 0.09761 0.0
C1127 C 0.61953 0.58243 0.07386 0.0
H1128 H 0.60664 0.59014 0.14109 0.0
C1129 C 0.61336 0.56008 0.07643 0.0
H1130 H 0.62178 0.61035 0.09638 0.0
C1131 C 0.60469 0.54858 0.10181 0.0
C1132 C 0.60198 0.55906 0.12551 0.0
H1133 H 0.6149 0.55123 0.05863 0.0
H1134 H 0.59948 0.53118 0.10249 0.0
C1135 C 0.6084 0.58154 0.12319 0.0
C1136 C 0.40645 0.01361 0.09659 0.0
C1137 C 0.39491 0.99194 0.08525 0.0
H1138 H 0.43069 0.03605 0.12752 0.0
C1139 C 0.39932 0.97614 0.09697 0.0
H1140 H 0.40344 0.02617 0.08807 0.0
C1141 C 0.41491 0.98179 0.11922 0.0
C1142 C 0.42652 0.00339 0.13067 0.0
H1143 H 0.39091 0.95931 0.08873 0.0
H1144 H 0.41821 0.96923 0.12701 0.0
C1145 C 0.42212 0.01928 0.1191 0.0
C1146 C 0.38804 0.99474 0.92516 0.0
C1147 C 0.37593 0.9738 0.93819 0.0
H1148 H 0.41134 0.01442 0.89269 0.0
C1149 C 0.37617 0.95577 0.92583 0.0
H1150 H 0.38807 0.00893 0.93399 0.0
C1151 C 0.38945 0.95893 0.90218 0.0
C1152 C 0.40283 0.98018 0.89044 0.0
H1153 H 0.36687 0.93937 0.93519 0.0
H1154 H 0.3903 0.94497 0.89425 0.0
C1155 C 0.40141 0.9979 0.90156 0.0
C1156 C 0.01437 0.42089 0.94725 0.0
C1157 C 0.99838 0.3981 0.94663 0.0
H1158 H 0.02989 0.4514 0.92403 0.0
C1159 C 0.98807 0.38783 0.92062 0.0
H1160 H 0.02228 0.42913 0.96725 0.0
C1161 C 0.99273 0.40035 0.89574 0.0
C1162 C 0.00731 0.42354 0.89654 0.0
H1163 H 0.97569 0.3702 0.91976 0.0
H1164 H 0.98414 0.39192 0.87613 0.0
C1165 C 0.01871 0.43357 0.92242 0.0
C1166 C 0.60166 0.60638 0.90595 0.0
C1167 C 0.59751 0.60893 0.93442 0.0
H1168 H 0.58851 0.59752 0.86345 0.0
C1169 C 0.57656 0.60582 0.94155 0.0
H1170 H 0.6178 0.60886 0.89999 0.0
C1171 C 0.55937 0.59848 0.92078 0.0
C1172 C 0.56304 0.59451 0.89249 0.0
H1173 H 0.57298 0.60751 0.96349 0.0
H1174 H 0.54287 0.59463 0.92737 0.0
C1175 C 0.58476 0.59963 0.88513 0.0
C1176 C 0.03593 0.61574 0.91793 0.0
C1177 C 0.01651 0.61004 0.9333 0.0
H1178 H 0.05006 0.60832 0.88273 0.0
C1179 C 0.99562 0.59256 0.92334 0.0
H1180 H 0.05222 0.62935 0.92495 0.0
C1181 C 0.99442 0.57994 0.89962 0.0
C1182 C 0.01406 0.58484 0.88505 0.0
H1183 H 0.9804 0.58775 0.93491 0.0
H1184 H 0.97824 0.56562 0.8938 0.0
C1185 C 0.03468 0.60351 0.89386 0.0
C1186 C 0.3714 0.42413 0.93644 0.0
C1187 C 0.38175 0.41341 0.94871 0.0
H1188 H 0.3711 0.44422 0.90246 0.0
C1189 C 0.39974 0.41404 0.93478 0.0
H1190 H 0.35732 0.42363 0.94675 0.0
C1191 C 0.40835 0.42666 0.90995 0.0
C1192 C 0.39875 0.43843 0.89827 0.0
H1193 H 0.40805 0.40599 0.94407 0.0
H1194 H 0.42329 0.42811 0.90095 0.0
C1195 C 0.37952 0.43613 0.91121 0.0
C1196 C 0.61502 0.02844 0.92834 0.0
C1197 C 0.61305 0.01088 0.94501 0.0
H1198 H 0.60108 0.03849 0.89478 0.0
C1199 C 0.59578 0.98904 0.93835 0.0
H1200 H 0.62831 0.04544 0.93252 0.0
C1201 C 0.58004 0.98508 0.91651 0.0
C1202 C 0.58136 0.0029 0.9011 0.0
H1203 H 0.59387 0.97515 0.95072 0.0
H1204 H 0.56626 0.96825 0.91263 0.0
C1205 C 0.5994 0.0245 0.90669 0.0
C1206 C 0.63247 0.04708 0.10829 0.0
C1207 C 0.6264 0.02763 0.09295 0.0
H1208 H 0.62488 0.06181 0.14265 0.0
C1209 C 0.60812 0.00734 0.10216 0.0
H1210 H 0.6467 0.06293 0.10192 0.0
C1211 C 0.59523 0.00675 0.12513 0.0
C1212 C 0.60059 0.02641 0.13963 0.0
H1213 H 0.60302 0.99209 0.09066 0.0
H1214 H 0.58041 0.99103 0.1305 0.0
C1215 C 0.61985 0.04644 0.13153 0.0
C1216 C 0.98295 0.57091 0.07876 0.0
C1217 C 0.98763 0.59279 0.07937 0.0
H1218 H 0.97499 0.54197 0.10305 0.0
C1219 C 0.98625 0.60196 0.10522 0.0
H1220 H 0.98428 0.56371 0.05905 0.0
C1221 C 0.98156 0.58978 0.13054 0.0
C1222 C 0.97765 0.56812 0.13007 0.0
H1223 H 0.99024 0.619 0.10613 0.0
H1224 H 0.98178 0.59751 0.15057 0.0
C1225 C 0.97766 0.55854 0.10385 0.0
C1226 C 0.43339 0.40083 0.08242 0.0
C1227 C 0.4108 0.39263 0.08884 0.0
H1228 H 0.46707 0.41519 0.0989 0.0
C1229 C 0.40422 0.38979 0.11739 0.0
H1230 H 0.43877 0.40341 0.06044 0.0
C1231 C 0.42024 0.3963 0.13937 0.0
C1232 C 0.4432 0.40613 0.13313 0.0
H1233 H 0.38683 0.38361 0.12268 0.0
H1234 H 0.4148 0.39471 0.16124 0.0
C1235 C 0.44952 0.40751 0.10444 0.0
C1236 C 0.62216 0.71344 0.44918 0.0
C1237 C 0.64107 0.71856 0.433 0.0
H1238 H 0.60911 0.72241 0.48414 0.0
C1239 C 0.66226 0.73632 0.44168 0.0
H1240 H 0.60565 0.69964 0.44321 0.0
C1241 C 0.66419 0.7498 0.46475 0.0
C1242 C 0.645 0.74555 0.47984 0.0
H1243 H 0.67712 0.74071 0.42954 0.0
H1244 H 0.68052 0.76428 0.46958 0.0
C1245 C 0.62414 0.72662 0.47251 0.0
C1246 C 0.28141 0.89872 0.41643 0.0
C1247 C 0.28015 0.91752 0.40967 0.0
H1248 H 0.27362 0.87275 0.44629 0.0
C1249 C 0.27161 0.92577 0.42992 0.0
H1250 H 0.28811 0.89209 0.40137 0.0
C1251 C 0.26319 0.91456 0.45571 0.0
C1252 C 0.26357 0.89519 0.46184 0.0
H1253 H 0.27051 0.94026 0.42531 0.0
H1254 H 0.25577 0.92063 0.4705 0.0
C1255 C 0.27333 0.88776 0.4423 0.0
C1256 C 0.05927 0.31739 0.44358 0.0
C1257 C 0.06043 0.33433 0.42631 0.0
H1258 H 0.07477 0.30861 0.4766 0.0
C1259 C 0.07781 0.3564 0.43148 0.0
H1260 H 0.04594 0.30024 0.44053 0.0
C1261 C 0.09446 0.36118 0.45233 0.0
C1262 C 0.09396 0.34396 0.46824 0.0
H1263 H 0.07913 0.36983 0.41861 0.0
H1264 H 0.1083 0.37815 0.45499 0.0
C1265 C 0.07581 0.32215 0.46426 0.0
C1266 C 0.06063 0.33544 0.2664 0.0
C1267 C 0.0454 0.31514 0.27933 0.0
H1268 H 0.08564 0.35194 0.23436 0.0
C1269 C 0.04226 0.29536 0.26764 0.0
H1270 H 0.06338 0.35096 0.27483 0.0
C1271 C 0.05493 0.29592 0.24452 0.0
C1272 C 0.07111 0.31629 0.23263 0.0
H1273 H 0.03054 0.27941 0.27697 0.0
H1274 H 0.05285 0.28045 0.23694 0.0
C1275 C 0.07345 0.33601 0.24333 0.0
C1276 C 0.68118 0.74392 0.27267 0.0
C1277 C 0.65996 0.73541 0.28508 0.0
H1278 H 0.70299 0.76292 0.23835 0.0
C1279 C 0.64447 0.74005 0.27211 0.0
H1280 H 0.69347 0.74062 0.28212 0.0
C1281 C 0.64981 0.7525 0.24722 0.0
C1282 C 0.67081 0.76077 0.23452 0.0
H1283 H 0.628 0.73391 0.28104 0.0
H1284 H 0.63748 0.75589 0.23808 0.0
C1285 C 0.68661 0.75662 0.24764 0.0
C1286 C 0.22846 0.931 0.27644 0.0
C1287 C 0.25153 0.94181 0.2709 0.0
H1288 H 0.19507 0.91476 0.25852 0.0
C1289 C 0.25895 0.94733 0.24277 0.0
H1290 H 0.22247 0.92626 0.29803 0.0
C1291 C 0.24339 0.94073 0.22019 0.0
C1292 C 0.22017 0.92839 0.22544 0.0
H1293 H 0.27671 0.95541 0.23812 0.0
H1294 H 0.24948 0.94411 0.19852 0.0
C1295 C 0.21285 0.92445 0.25385 0.0
C1296 C 0.67406 0.93556 0.25447 0.0
C1297 C 0.69534 0.95361 0.26231 0.0
H1298 H 0.65539 0.90718 0.22731 0.0
C1299 C 0.7139 0.95866 0.24544 0.0
H1300 H 0.65946 0.93122 0.26716 0.0
C1301 C 0.71152 0.94522 0.22221 0.0
C1302 C 0.69061 0.92606 0.21564 0.0
H1303 H 0.73046 0.97266 0.25074 0.0
H1304 H 0.72631 0.94947 0.20999 0.0
C1305 C 0.67174 0.92181 0.2315 0.0
C1306 C 0.0293 0.75695 0.26128 0.0
C1307 C 0.03816 0.746 0.27663 0.0
H1308 H 0.03193 0.77638 0.22483 0.0
C1309 C 0.05646 0.74541 0.26561 0.0
H1310 H 0.01501 0.7574 0.26926 0.0
C1311 C 0.06685 0.75709 0.24072 0.0
C1312 C 0.05877 0.76915 0.22599 0.0
H1313 H 0.06369 0.7372 0.27725 0.0
H1314 H 0.08196 0.75763 0.2341 0.0
C1315 C 0.03921 0.76804 0.23598 0.0
C1316 C 0.25208 0.31575 0.2764 0.0
C1317 C 0.27403 0.33385 0.27299 0.0
H1318 H 0.21857 0.29738 0.25923 0.0
C1319 C 0.27977 0.34554 0.24715 0.0
H1320 H 0.24724 0.30661 0.29627 0.0
C1321 C 0.26362 0.33988 0.22552 0.0
C1322 C 0.2411 0.32287 0.22957 0.0
H1323 H 0.2967 0.35944 0.24394 0.0
H1324 H 0.26874 0.34935 0.20593 0.0
C1325 C 0.23569 0.31045 0.25503 0.0
C1326 C 0.28169 0.3426 0.43495 0.0
C1327 C 0.29282 0.36227 0.41894 0.0
H1328 H 0.26058 0.32583 0.47058 0.0
C1329 C 0.29279 0.3811 0.42868 0.0
H1330 H 0.28148 0.32783 0.42813 0.0
C1331 C 0.28095 0.37997 0.45305 0.0
C1332 C 0.26876 0.35996 0.46812 0.0
H1333 H 0.30132 0.39656 0.41695 0.0
H1334 H 0.28038 0.39447 0.4592 0.0
C1335 C 0.26968 0.34143 0.45922 0.0
C1336 C 0.69534 0.9352 0.42396 0.0
C1337 C 0.67972 0.93961 0.41088 0.0
H1338 H 0.70227 0.91908 0.45771 0.0
C1339 C 0.65837 0.93072 0.42304 0.0
H1340 H 0.71192 0.94167 0.41523 0.0
C1341 C 0.65286 0.91773 0.4478 0.0
C1342 C 0.66867 0.91359 0.46092 0.0
H1343 H 0.64598 0.93385 0.41353 0.0
H1344 H 0.63634 0.91112 0.45682 0.0
C1345 C 0.68989 0.9224 0.44859 0.0
C1346 C 0.07582 0.72495 0.42876 0.0
C1347 C 0.06869 0.73956 0.42032 0.0
H1348 H 0.09681 0.7192 0.45728 0.0
C1349 C 0.07783 0.76007 0.43451 0.0
H1350 H 0.0691 0.70902 0.41828 0.0
C1351 C 0.09349 0.7658 0.45669 0.0
C1352 C 0.10051 0.75121 0.4654 0.0
H1353 H 0.07288 0.77183 0.42857 0.0
H1354 H 0.10036 0.7819 0.46677 0.0
C1355 C 0.09167 0.73077 0.45106 0.0
C1356 C 0.29019 0.04121 0.78541 0.0
C1357 C 0.30855 0.04652 0.768 0.0
H1358 H 0.27809 0.05024 0.82133 0.0
C1359 C 0.32984 0.06473 0.77542 0.0
H1360 H 0.27364 0.02706 0.78045 0.0
C1361 C 0.33232 0.07841 0.79854 0.0
C1362 C 0.3136 0.07393 0.81489 0.0
H1363 H 0.34428 0.06924 0.76233 0.0
H1364 H 0.34862 0.09318 0.80248 0.0
C1365 C 0.29273 0.05461 0.80874 0.0
C1366 C 0.94735 0.25674 0.77506 0.0
C1367 C 0.95143 0.24604 0.75279 0.0
H1368 H 0.93594 0.25445 0.81799 0.0
C1369 C 0.9475 0.22458 0.75743 0.0
H1370 H 0.95025 0.27328 0.77218 0.0
C1371 C 0.93935 0.21389 0.78336 0.0
C1372 C 0.93494 0.22432 0.80559 0.0
H1373 H 0.9504 0.21575 0.74083 0.0
H1374 H 0.93584 0.19708 0.78558 0.0
C1375 C 0.93911 0.24594 0.80124 0.0
C1376 C 0.75641 0.70452 0.74749 0.0
C1377 C 0.73518 0.68805 0.75714 0.0
H1378 H 0.79173 0.72439 0.75759 0.0
C1379 C 0.73249 0.68204 0.78607 0.0
H1380 H 0.75886 0.70915 0.72517 0.0
C1381 C 0.75107 0.69113 0.80467 0.0
C1382 C 0.77265 0.70591 0.79438 0.0
H1383 H 0.71625 0.66924 0.79385 0.0
H1384 H 0.74886 0.68507 0.8264 0.0
C1385 C 0.77514 0.71319 0.76596 0.0
C1386 C 0.70955 0.64903 0.59723 0.0
C1387 C 0.70729 0.63619 0.62145 0.0
H1388 H 0.72027 0.65664 0.55385 0.0
C1389 C 0.7135 0.62017 0.61963 0.0
H1390 H 0.7048 0.66142 0.59786 0.0
C1391 C 0.72249 0.61757 0.59461 0.0
C1392 C 0.7254 0.6308 0.57058 0.0
H1393 H 0.71202 0.60998 0.63783 0.0
H1394 H 0.728 0.60574 0.59459 0.0
C1395 C 0.71849 0.64634 0.57204 0.0
C1396 C 0.33975 0.06942 0.60692 0.0
C1397 C 0.31814 0.05852 0.61875 0.0
H1398 H 0.36132 0.09141 0.5744 0.0
C1399 C 0.30145 0.06152 0.60602 0.0
H1400 H 0.35297 0.06742 0.61616 0.0
C1401 C 0.30621 0.07516 0.58228 0.0
C1402 C 0.32779 0.08621 0.57049 0.0
H1403 H 0.28462 0.05345 0.61452 0.0
H1404 H 0.29303 0.07745 0.57357 0.0
C1405 C 0.34454 0.08318 0.58306 0.0
C1406 C 0.9208 0.24628 0.59175 0.0
C1407 C 0.92805 0.26511 0.60908 0.0
H1408 H 0.90038 0.22666 0.55673 0.0
C1409 C 0.91974 0.2792 0.60313 0.0
H1410 H 0.92661 0.23489 0.59566 0.0
C1411 C 0.90454 0.27444 0.58021 0.0
C1412 C 0.8976 0.25565 0.5628 0.0
H1413 H 0.92497 0.29382 0.61609 0.0
H1414 H 0.8984 0.28551 0.57594 0.0
C1415 C 0.90582 0.24162 0.56909 0.0
C1416 C 0.37703 0.28947 0.58668 0.0
C1417 C 0.3584 0.28491 0.6031 0.0
H1418 H 0.38927 0.27996 0.55137 0.0
C1419 C 0.33694 0.26751 0.59459 0.0
H1420 H 0.39375 0.30298 0.59247 0.0
C1421 C 0.3344 0.25391 0.57139 0.0
C1422 C 0.35325 0.25763 0.55596 0.0
H1423 H 0.32225 0.26356 0.60687 0.0
H1424 H 0.31783 0.23975 0.56666 0.0
C1425 C 0.37446 0.27615 0.56322 0.0
C1426 C 0.73882 0.11566 0.62115 0.0
C1427 C 0.73157 0.09303 0.62359 0.0
H1428 H 0.75158 0.14404 0.59424 0.0
C1429 C 0.73158 0.08149 0.59916 0.0
H1430 H 0.73914 0.12516 0.63945 0.0
C1431 C 0.73871 0.09246 0.57288 0.0
C1432 C 0.74571 0.11507 0.57057 0.0
H1433 H 0.72608 0.06403 0.60032 0.0
H1434 H 0.73854 0.08324 0.55435 0.0
C1435 C 0.74577 0.1265 0.59506 0.0
C1436 C 0.92866 0.65564 0.57344 0.0
C1437 C 0.92632 0.64844 0.60186 0.0
H1438 H 0.91199 0.65333 0.53358 0.0
C1439 C 0.90534 0.63111 0.61105 0.0
H1440 H 0.9447 0.66909 0.566 0.0
C1441 C 0.88652 0.62249 0.5927 0.0
C1442 C 0.88867 0.63065 0.56476 0.0
H1443 H 0.90313 0.62554 0.633 0.0
H1444 H 0.8701 0.61037 0.60076 0.0
C1445 C 0.91003 0.6466 0.55491 0.0
C1446 C 0.94584 0.67831 0.75889 0.0
C1447 C 0.95581 0.69613 0.73964 0.0
H1448 H 0.92718 0.6655 0.7974 0.0
C1449 C 0.95668 0.71598 0.74653 0.0
H1450 H 0.94496 0.66283 0.75425 0.0
C1451 C 0.94678 0.71758 0.77138 0.0
C1452 C 0.93557 0.69928 0.78966 0.0
H1453 H 0.96441 0.73008 0.73225 0.0
H1454 H 0.94678 0.73271 0.77544 0.0
C1455 C 0.93566 0.67982 0.78356 0.0
C1456 C 0.32149 0.25882 0.7628 0.0
C1457 C 0.34308 0.26935 0.75094 0.0
H1458 H 0.29982 0.23728 0.79566 0.0
C1459 C 0.35953 0.26597 0.76369 0.0
H1460 H 0.30846 0.2611 0.75352 0.0
C1461 C 0.35464 0.25254 0.78762 0.0
C1462 C 0.33316 0.24203 0.79962 0.0
H1463 H 0.37633 0.27371 0.75519 0.0
H1464 H 0.36767 0.25006 0.79643 0.0
C1465 C 0.31654 0.24519 0.78688 0.0
C1466 C 0.74115 0.05782 0.79253 0.0
C1467 C 0.74854 0.06072 0.76432 0.0
H1468 H 0.75027 0.06155 0.83683 0.0
C1469 C 0.77107 0.06778 0.75909 0.0
H1470 H 0.72382 0.0525 0.79695 0.0
C1471 C 0.78644 0.07357 0.7819 0.0
C1472 C 0.77941 0.07227 0.81026 0.0
H1473 H 0.77713 0.07045 0.73741 0.0
H1474 H 0.80405 0.08061 0.77716 0.0
C1475 C 0.75637 0.06325 0.81529 0.0
C1476 C 0.05439 0.33797 0.02524 0.0
C1477 C 0.0448 0.34814 0.04031 0.0
H1478 H 0.07671 0.32555 0.02653 0.0
C1479 C 0.05086 0.35373 0.06918 0.0
H1480 H 0.05013 0.33351 0.00295 0.0
C1481 C 0.06577 0.34883 0.08283 0.0
C1482 C 0.0752 0.3384 0.06791 0.0
H1483 H 0.04365 0.36142 0.08151 0.0
H1484 H 0.06947 0.35276 0.10532 0.0
C1485 C 0.06949 0.33323 0.03885 0.0
C1486 C 0.64777 0.70123 0.04803 0.0
C1487 C 0.66581 0.70313 0.03247 0.0
H1488 H 0.63533 0.71791 0.07298 0.0
C1489 C 0.68551 0.72415 0.03007 0.0
H1490 H 0.63236 0.6853 0.05028 0.0
C1491 C 0.68723 0.74277 0.04318 0.0
C1492 C 0.66922 0.74088 0.05877 0.0
H1493 H 0.69973 0.72623 0.01825 0.0
H1494 H 0.70262 0.75873 0.0409 0.0
C1495 C 0.64942 0.71993 0.06091 0.0
C1496 C 0.27715 0.95523 0.05559 0.0
C1497 C 0.28289 0.94505 0.03446 0.0
H1498 H 0.25171 0.95176 0.08405 0.0
C1499 C 0.26614 0.92484 0.02251 0.0
H1500 H 0.28989 0.97084 0.06512 0.0
C1501 C 0.24426 0.91426 0.03266 0.0
C1502 C 0.23883 0.9233 0.05566 0.0
H1503 H 0.27013 0.91686 0.00586 0.0
H1504 H 0.23182 0.89847 0.02325 0.0
C1505 C 0.25529 0.94433 0.06632 0.0
C1506 C 0.3458 0.05241 0.97649 0.0
C1507 C 0.35129 0.05395 0.00577 0.0
H1508 H 0.33712 0.06603 0.94112 0.0
C1509 C 0.35292 0.07157 0.02177 0.0
H1510 H 0.34433 0.03902 0.96352 0.0
C1511 C 0.34899 0.08724 0.00873 0.0
C1512 C 0.34294 0.08526 0.97964 0.0
H1513 H 0.35712 0.0732 0.04435 0.0
H1514 H 0.3502 0.10061 0.02148 0.0
C1515 C 0.3415 0.06777 0.96366 0.0
C1516 C 0.91841 0.28287 0.98776 0.0
C1517 C 0.93998 0.29418 1.00046 0.0
H1518 H 0.89332 0.25399 0.9657 0.0
C1519 C 0.95245 0.28361 0.00187 0.0
H1520 H 0.90844 0.29059 0.98591 0.0
C1521 C 0.94352 0.2622 0.99056 0.0
C1522 C 0.92204 0.25106 0.97745 0.0
H1523 H 0.96917 0.29194 0.01141 0.0
H1524 H 0.95341 0.25439 0.99215 0.0
C1525 C 0.90967 0.26174 0.97622 0.0
C1526 C 0.72257 0.66957 0.97239 0.0
C1527 C 0.70945 0.64628 0.9744 0.0
H1528 H 0.75352 0.6978 0.95806 0.0
C1529 C 0.71859 0.63368 0.96518 0.0
H1530 H 0.71603 0.67975 0.97933 0.0
C1531 C 0.73978 0.64392 0.95303 0.0
C1532 C 0.75251 0.66706 0.9498 0.0
H1533 H 0.70914 0.61573 0.96668 0.0
H1534 H 0.74613 0.63364 0.94577 0.0
C1535 C 0.74399 0.6799 0.96024 0.0
C1536 C 0.95834 0.68292 0.99372 0.0
C1537 C 0.95394 0.6611 0.99265 0.0
H1538 H 0.94901 0.70586 0.97938 0.0
C1539 C 0.93483 0.6449 0.97757 0.0
H1540 H 0.97309 0.69584 0.00494 0.0
C1541 C 0.92057 0.6505 0.96348 0.0
C1542 C 0.9254 0.67256 0.96357 0.0
H1543 H 0.93095 0.6279 0.97658 0.0
H1544 H 0.90583 0.63748 0.95243 0.0
C1545 C 0.9444 0.68864 0.97913 0.0
C1546 C 0.35531 0.29773 0.98225 0.0
C1547 C 0.33692 0.29635 0.99633 0.0
H1548 H 0.36797 0.28047 0.95908 0.0
C1549 C 0.31685 0.2756 0.99814 0.0
H1550 H 0.37103 0.31346 0.98048 0.0
C1551 C 0.3151 0.25671 0.98583 0.0
C1552 C 0.33345 0.25812 0.97164 0.0
H1553 H 0.30237 0.27393 0.00886 0.0
H1554 H 0.29942 0.24095 0.98759 0.0
C1555 C 0.35362 0.27881 0.97013 0.0
C1556 C 0.73839 0.06758 0.01731 0.0
C1557 C 0.72084 0.04901 0.00324 0.0
H1558 H 0.77332 0.09247 0.01798 0.0
C1559 C 0.72568 0.0396 0.9802 0.0
H1560 H 0.73501 0.07493 0.03534 0.0
C1561 C 0.74756 0.05006 0.96957 0.0
C1562 C 0.76482 0.06984 0.9822 0.0
H1563 H 0.71228 0.02528 0.969 0.0
H1564 H 0.75052 0.0436 0.9503 0.0
C1565 C 0.76024 0.07768 0.0072 0.0
C1566 C 0.64963 0.92781 0.01043 0.0
C1567 C 0.64946 0.94418 0.0273 0.0
H1568 H 0.65395 0.89973 0.00958 0.0
C1569 C 0.65309 0.94428 0.05695 0.0
H1570 H 0.64689 0.92733 0.98755 0.0
C1571 C 0.65758 0.9289 0.06931 0.0
C1572 C 0.65809 0.9128 0.05243 0.0
H1573 H 0.65319 0.95671 0.07057 0.0
H1574 H 0.66075 0.92962 0.09212 0.0
C1575 C 0.65366 0.91207 0.02297 0.0
C1576 C 0.07445 0.71007 0.0533 0.0
C1577 C 0.05429 0.70122 0.03738 0.0
H1578 H 0.09973 0.73731 0.07781 0.0
C1579 C 0.04459 0.71429 0.03311 0.0
H1580 H 0.08225 0.7004 0.05732 0.0
C1581 C 0.05482 0.73572 0.0447 0.0
C1582 C 0.0749 0.74445 0.06084 0.0
H1583 H 0.02905 0.70794 0.02095 0.0
H1584 H 0.04711 0.74548 0.04083 0.0
C1585 C 0.08453 0.73132 0.06501 0.0
C1586 C 0.29194 0.37207 0.06836 0.0
C1587 C 0.2985 0.35855 0.05499 0.0
H1588 H 0.2657 0.37423 0.08794 0.0
C1589 C 0.28246 0.33585 0.05101 0.0
H1590 H 0.30381 0.38959 0.07204 0.0
C1591 C 0.26027 0.32698 0.06012 0.0
C1592 C 0.2538 0.34072 0.07315 0.0
H1593 H 0.287 0.32498 0.04085 0.0
H1594 H 0.24814 0.30951 0.05663 0.0
C1595 C 0.26996 0.36329 0.07734 0.0
C1596 C 0.70856 0.65645 0.3593 0.0
C1597 C 0.70848 0.67566 0.36712 0.0
H1598 H 0.72188 0.63549 0.36759 0.0
C1599 C 0.72329 0.68934 0.38893 0.0
H1600 H 0.69735 0.64551 0.34264 0.0
C1601 C 0.7374 0.6836 0.40314 0.0
C1602 C 0.7368 0.66393 0.39605 0.0
H1603 H 0.72363 0.70424 0.39546 0.0
H1604 H 0.74824 0.69415 0.42033 0.0
C1605 C 0.72247 0.65059 0.37374 0.0
C1606 C 0.34761 0.05514 0.3728 0.0
C1607 C 0.32695 0.03486 0.37124 0.0
H1608 H 0.36528 0.0891 0.38648 0.0
C1609 C 0.30778 0.03365 0.38273 0.0
H1610 H 0.36269 0.0567 0.36407 0.0
C1611 C 0.30931 0.05223 0.39571 0.0
C1612 C 0.33002 0.07245 0.39754 0.0
H1613 H 0.2916 0.01829 0.38194 0.0
H1614 H 0.29431 0.05062 0.40482 0.0
C1615 C 0.34913 0.0737 0.3858 0.0
C1616 C 0.93389 0.27699 0.35307 0.0
C1617 C 0.95137 0.2945 0.3687 0.0
H1618 H 0.89885 0.25254 0.35069 0.0
C1619 C 0.94639 0.3025 0.39311 0.0
H1620 H 0.93742 0.27072 0.33404 0.0
C1621 C 0.92439 0.29156 0.40337 0.0
C1622 C 0.9071 0.27274 0.38901 0.0
H1623 H 0.95976 0.31596 0.40554 0.0
H1624 H 0.92136 0.29682 0.42361 0.0
C1625 C 0.91188 0.26649 0.36281 0.0
C1626 C 0.00138 0.40107 0.35326 0.0
C1627 C 0.01778 0.39663 0.34393 0.0
H1628 H 0.98527 0.41972 0.34676 0.0
C1629 C 0.03194 0.40938 0.32158 0.0
H1630 H 0.9902 0.39159 0.37042 0.0
C1631 C 0.02917 0.42562 0.30815 0.0
C1632 C 0.01202 0.42922 0.31659 0.0
H1633 H 0.04476 0.4064 0.31392 0.0
H1634 H 0.03982 0.4347 0.29039 0.0
C1635 C 0.99845 0.41708 0.33962 0.0
C1636 C 0.61846 0.61638 0.32713 0.0
C1637 C 0.60664 0.62762 0.32606 0.0
H1638 H 0.6188 0.58716 0.31534 0.0
C1639 C 0.58599 0.61789 0.31113 0.0
H1640 H 0.6345 0.62355 0.33833 0.0
C1641 C 0.57737 0.59752 0.29744 0.0
C1642 C 0.58888 0.58599 0.29875 0.0
H1643 H 0.57664 0.62626 0.30936 0.0
H1644 H 0.56171 0.59095 0.28549 0.0
C1645 C 0.60959 0.59567 0.31371 0.0
C1646 C 0.3798 0.99576 0.31007 0.0
C1647 C 0.36346 0.97331 0.30493 0.0
H1648 H 0.41454 0.02158 0.30654 0.0
C1649 C 0.36992 0.95971 0.29153 0.0
H1650 H 0.37535 0.00667 0.32032 0.0
C1651 C 0.39213 0.96818 0.28375 0.0
C1652 C 0.40856 0.99048 0.28917 0.0
H1653 H 0.35781 0.94238 0.28702 0.0
H1654 H 0.39638 0.95723 0.27318 0.0
C1655 C 0.40219 0.0043 0.30215 0.0
C1656 C 0.62667 0.01464 0.33721 0.0
C1657 C 0.6273 0.99552 0.33062 0.0
H1658 H 0.61068 0.03331 0.32955 0.0
C1659 C 0.611 0.97976 0.31165 0.0
H1660 H 0.63902 0.02714 0.35167 0.0
C1661 C 0.59472 0.98327 0.29912 0.0
C1662 C 0.59456 0.00273 0.30503 0.0
H1663 H 0.61104 0.96487 0.30612 0.0
H1664 H 0.58265 0.97107 0.28413 0.0
C1665 C 0.61057 0.01828 0.3244 0.0
C1666 C 0.01709 0.63647 0.317 0.0
C1667 C 0.99897 0.63408 0.33288 0.0
H1668 H 0.03 0.62049 0.29157 0.0
C1669 C 0.97985 0.61274 0.33597 0.0
H1670 H 0.03208 0.65265 0.31415 0.0
C1671 C 0.97868 0.59431 0.32305 0.0
C1672 C 0.99663 0.59673 0.30679 0.0
H1673 H 0.9656 0.61026 0.34811 0.0
H1674 H 0.96369 0.57812 0.32586 0.0
C1675 C 0.01595 0.618 0.30416 0.0
C1676 C 0.40219 0.40624 0.33656 0.0
C1677 C 0.38534 0.38603 0.32474 0.0
H1678 H 0.43648 0.43262 0.3354 0.0
C1679 C 0.39086 0.3759 0.30331 0.0
H1680 H 0.39833 0.41419 0.35337 0.0
C1681 C 0.4126 0.38685 0.29217 0.0
C1682 C 0.42917 0.40788 0.30272 0.0
H1683 H 0.37802 0.36031 0.29383 0.0
H1684 H 0.41596 0.37945 0.27421 0.0
C1685 C 0.42396 0.41685 0.32603 0.0
C1686 C 0.32306 0.28025 0.39014 0.0
C1687 C 0.31617 0.27739 0.36127 0.0
H1688 H 0.3323 0.26759 0.42606 0.0
C1689 C 0.31288 0.25856 0.34655 0.0
H1690 H 0.32582 0.29458 0.40213 0.0
C1691 C 0.31647 0.24297 0.36044 0.0
C1692 C 0.32376 0.24613 0.38913 0.0
H1693 H 0.30758 0.25589 0.32432 0.0
H1694 H 0.31393 0.22865 0.34862 0.0
C1695 C 0.32695 0.26489 0.40383 0.0
C1696 C 0.71919 0.05756 0.36708 0.0
C1697 C 0.73187 0.04722 0.36588 0.0
H1698 H 0.7182 0.08617 0.38031 0.0
C1699 C 0.75375 0.05828 0.37768 0.0
H1700 H 0.70224 0.04944 0.35827 0.0
C1701 C 0.76264 0.07895 0.39073 0.0
C1702 C 0.7501 0.08942 0.392 0.0
H1703 H 0.76392 0.05073 0.37755 0.0
H1704 H 0.7793 0.08652 0.40035 0.0
C1705 C 0.72825 0.0785 0.37996 0.0
C1706 C 0.94088 0.66845 0.38879 0.0
C1707 C 0.95434 0.69176 0.38779 0.0
H1708 H 0.90971 0.64016 0.40235 0.0
C1709 C 0.94596 0.70443 0.39919 0.0
H1710 H 0.94684 0.65822 0.38019 0.0
C1711 C 0.92495 0.69418 0.41188 0.0
C1712 C 0.91166 0.67095 0.41345 0.0
H1713 H 0.95574 0.72241 0.39871 0.0
H1714 H 0.91907 0.7045 0.42043 0.0
C1715 C 0.91965 0.65813 0.40142 0.0
C1716 C 0.37805 0.98889 0.69578 0.0
C1717 C 0.37847 0.00903 0.69632 0.0
H1718 H 0.39364 0.97103 0.70942 0.0
C1719 C 0.39703 0.02773 0.70898 0.0
H1720 H 0.36387 0.97412 0.68637 0.0
C1721 C 0.41453 0.02615 0.72157 0.0
C1722 C 0.4136 0.00568 0.72244 0.0
H1723 H 0.3979 0.04353 0.70946 0.0
H1724 H 0.42861 0.04096 0.73098 0.0
C1725 C 0.39527 0.98717 0.70892 0.0
C1726 C 0.97182 0.37277 0.68455 0.0
C1727 C 0.97766 0.35878 0.69874 0.0
H1728 H 0.9711 0.4028 0.686 0.0
C1729 C 0.98729 0.36473 0.72632 0.0
H1730 H 0.96439 0.36871 0.66329 0.0
C1731 C 0.99113 0.38426 0.7393 0.0
C1732 C 0.98534 0.39828 0.72511 0.0
H1733 H 0.99196 0.35435 0.73792 0.0
H1734 H 0.99842 0.38826 0.76064 0.0
C1735 C 0.97556 0.39226 0.69762 0.0
C1736 C 0.60765 0.62682 0.7175 0.0
C1737 C 0.62013 0.61636 0.72089 0.0
H1738 H 0.57578 0.62434 0.72313 0.0
C1739 C 0.60983 0.5952 0.73335 0.0
H1740 H 0.61517 0.64319 0.7081 0.0
C1741 C 0.5876 0.58462 0.74197 0.0
C1742 C 0.57493 0.5948 0.73825 0.0
H1743 H 0.61894 0.58669 0.73659 0.0
H1744 H 0.58034 0.56841 0.7518 0.0
C1745 C 0.58519 0.61613 0.72621 0.0
C1746 C 0.68486 0.74347 0.68401 0.0
C1747 C 0.6805 0.72431 0.66914 0.0
H1748 H 0.68425 0.77359 0.68296 0.0
C1749 C 0.67191 0.72098 0.64103 0.0
H1750 H 0.69148 0.74652 0.70568 0.0
C1751 C 0.6676 0.73636 0.62817 0.0
C1752 C 0.67201 0.75553 0.64299 0.0
H1753 H 0.66832 0.70638 0.62899 0.0
H1754 H 0.66109 0.7334 0.60643 0.0
C1755 C 0.68079 0.759 0.67099 0.0
C1756 C 0.28658 0.94378 0.66065 0.0
C1757 C 0.27236 0.95119 0.6697 0.0
H1758 H 0.28893 0.91835 0.63876 0.0
C1759 C 0.24895 0.93694 0.66654 0.0
H1760 H 0.30467 0.95429 0.6629 0.0
C1761 C 0.24004 0.91651 0.65279 0.0
C1762 C 0.25429 0.90979 0.64192 0.0
H1763 H 0.23747 0.94194 0.67358 0.0
H1764 H 0.22196 0.90625 0.64978 0.0
C1765 C 0.27759 0.9232 0.64688 0.0
C1766 C 0.05137 0.29582 0.65194 0.0
C1767 C 0.04076 0.30813 0.6541 0.0
H1768 H 0.08009 0.29508 0.63823 0.0
C1769 C 0.05258 0.3306 0.646 0.0
H1770 H 0.04293 0.27859 0.65845 0.0
C1771 C 0.07406 0.34008 0.63419 0.0
C1772 C 0.08391 0.32719 0.63039 0.0
H1773 H 0.04482 0.34049 0.64749 0.0
H1774 H 0.08246 0.35709 0.62677 0.0
C1775 C 0.07266 0.30524 0.64028 0.0
C1776 C 0.27953 0.33487 0.68165 0.0
C1777 C 0.28733 0.32236 0.66832 0.0
H1778 H 0.2591 0.34936 0.67809 0.0
C1779 C 0.27973 0.31441 0.64045 0.0
H1780 H 0.28503 0.3412 0.70314 0.0
C1781 C 0.26528 0.31947 0.62588 0.0
C1782 C 0.25779 0.33238 0.63891 0.0
H1783 H 0.28555 0.30489 0.62941 0.0
H1784 H 0.26057 0.31379 0.60403 0.0
C1785 C 0.26484 0.33974 0.66716 0.0
C1786 C 0.69444 0.9721 0.64774 0.0
C1787 C 0.67656 0.97141 0.66232 0.0
H1788 H 0.70569 0.95409 0.62345 0.0
C1789 C 0.65589 0.95116 0.66359 0.0
H1790 H 0.71059 0.98741 0.64635 0.0
C1791 C 0.65308 0.9321 0.65041 0.0
C1792 C 0.67094 0.93279 0.63584 0.0
H1793 H 0.64177 0.95002 0.67465 0.0
H1794 H 0.63697 0.91674 0.65188 0.0
C1795 C 0.69168 0.95298 0.63476 0.0
C1796 C 0.05346 0.73943 0.62916 0.0
C1797 C 0.04259 0.71767 0.63984 0.0
H1798 H 0.08367 0.76698 0.6133 0.0
C1799 C 0.05486 0.70695 0.64278 0.0
H1800 H 0.04456 0.74819 0.62637 0.0
C1801 C 0.07762 0.71794 0.6353 0.0
C1802 C 0.08842 0.73984 0.62504 0.0
H1803 H 0.04693 0.69014 0.65085 0.0
H1804 H 0.08682 0.70947 0.63788 0.0
C1805 C 0.076 0.75032 0.62183 0.0
C1806 C 0.97256 0.58721 0.67652 0.0
C1807 C 0.97819 0.60722 0.69016 0.0
H1808 H 0.97209 0.55657 0.67915 0.0
C1809 C 0.98774 0.61142 0.71782 0.0
H1810 H 0.96519 0.58346 0.65523 0.0
C1811 C 0.99178 0.5961 0.7314 0.0
C1812 C 0.98621 0.57612 0.71778 0.0
H1813 H 0.99228 0.62666 0.72897 0.0
H1814 H 0.99905 0.59979 0.75276 0.0
C1815 C 0.97643 0.57177 0.69025 0.0
C1816 C 0.37788 0.3875 0.70652 0.0
C1817 C 0.39106 0.37766 0.70631 0.0
H1818 H 0.3762 0.41616 0.7176 0.0
C1819 C 0.41293 0.38945 0.71807 0.0
H1820 H 0.36089 0.37876 0.69776 0.0
C1821 C 0.42142 0.41046 0.72986 0.0
C1822 C 0.40851 0.42057 0.7298 0.0
H1823 H 0.42344 0.38228 0.71877 0.0
H1824 H 0.43814 0.41866 0.73942 0.0
C1825 C 0.38656 0.40882 0.7181 0.0
C1826 C 0.63286 0.05064 0.72267 0.0
C1827 C 0.64069 0.03604 0.71879 0.0
H1828 H 0.60605 0.05474 0.73601 0.0
C1829 C 0.62606 0.01327 0.72401 0.0
H1830 H 0.64355 0.06823 0.71838 0.0
C1831 C 0.60444 0.00553 0.73448 0.0
C1832 C 0.59716 0.02044 0.73976 0.0
H1833 H 0.63163 0.00163 0.72118 0.0
H1834 H 0.59382 0.98808 0.73957 0.0
C1835 C 0.61137 0.04294 0.7329 0.0
loop_
_geom_bond_atom_site_label_1
_geom_bond_atom_site_label_2
_geom_bond_distance
_geom_bond_site_symmetry_2
_ccdc_geom_bond_type
Zn0 O3 2.031 1_554 S
Zn0 O5 2.049 . S
Zn0 O10 2.067 1_554 S
Zn1 O2 1.962 1_455 S
Zn1 O4 1.986 . S
Zn1 O6 1.996 1_455 S
Zn1 O9 1.943 1_554 S
O2 Zn1 1.962 1_655 S
O2 C7 1.254 1_554 S
O3 Zn0 2.031 1_556 S
O3 C7 1.269 . S
O4 Zn1 1.986 . S
O4 C11 1.262 . S
O5 Zn0 2.049 . S
O5 C13 1.260 . S
O6 Zn1 1.996 1_655 S
O6 C13 1.257 . S
C7 O2 1.254 1_556 S
C7 O3 1.269 . S
C8 O9 1.249 . S
C8 O10 1.270 1_455 S
O9 Zn1 1.943 1_556 S
O9 C8 1.249 . S
O10 Zn0 2.067 1_556 S
O10 C8 1.270 1_655 S
C11 O4 1.262 . S
C11 O12 1.232 . S
O12 C11 1.232 . S
C13 O5 1.260 . S
C13 O6 1.257 . S
Zn14 O17 2.031 1_554 S
Zn14 O19 2.049 . S
Zn14 O24 2.067 1_554 S
Zn15 O16 1.962 . S
Zn15 O18 1.986 . S
Zn15 O20 1.996 . S
Zn15 O23 1.943 1_554 S
O16 Zn15 1.962 . S
O16 C21 1.254 1_554 S
O17 Zn14 2.031 1_556 S
O17 C21 1.269 . S
O18 Zn15 1.986 . S
O18 C25 1.262 . S
O19 Zn14 2.049 . S
O19 C27 1.260 . S
O20 Zn15 1.996 . S
O20 C27 1.257 . S
C21 O16 1.254 1_556 S
C21 O17 1.269 . S
C22 O23 1.249 . S
C22 O24 1.270 . S
O23 Zn15 1.943 1_556 S
O23 C22 1.249 . S
O24 Zn14 2.067 1_556 S
O24 C22 1.270 . S
C25 O18 1.262 . S
C25 O26 1.232 . S
O26 C25 1.232 . S
C27 O19 1.260 . S
C27 O20 1.257 . S
Zn28 O31 2.031 . S
Zn28 O33 2.049 1_554 S
Zn28 O38 2.067 . S
Zn29 O30 1.962 1_545 S
Zn29 O32 1.986 1_554 S
Zn29 O34 1.996 1_544 S
Zn29 O37 1.943 . S
O30 Zn29 1.962 1_565 S
O30 C35 1.254 . S
O31 Zn28 2.031 . S
O31 C35 1.269 . S
O32 Zn29 1.986 1_556 S
O32 C39 1.262 . S
O33 Zn28 2.049 1_556 S
O33 C41 1.260 . S
O34 Zn29 1.996 1_566 S
O34 C41 1.257 . S
C35 O30 1.254 . S
C35 O31 1.269 . S
C36 O37 1.249 . S
C36 O38 1.270 1_545 S
O37 Zn29 1.943 . S
O37 C36 1.249 . S
O38 Zn28 2.067 . S
O38 C36 1.270 1_565 S
C39 O32 1.262 . S
C39 O40 1.232 1_556 S
O40 C39 1.232 1_554 S
C41 O33 1.260 . S
C41 O34 1.257 . S
Zn42 O45 2.031 . S
Zn42 O47 2.049 1_554 S
Zn42 O52 2.067 . S
Zn43 O44 1.962 1_655 S
Zn43 O46 1.986 1_554 S
Zn43 O48 1.996 1_654 S
Zn43 O51 1.943 . S
O44 Zn43 1.962 1_455 S
O44 C49 1.254 . S
O45 Zn42 2.031 . S
O45 C49 1.269 . S
O46 Zn43 1.986 1_556 S
O46 C53 1.262 . S
O47 Zn42 2.049 1_556 S
O47 C55 1.260 . S
O48 Zn43 1.996 1_456 S
O48 C55 1.257 . S
C49 O44 1.254 . S
C49 O45 1.269 . S
C50 O51 1.249 . S
C50 O52 1.270 1_655 S
O51 Zn43 1.943 . S
O51 C50 1.249 . S
O52 Zn42 2.067 . S
O52 C50 1.270 1_455 S
C53 O46 1.262 . S
C53 O54 1.232 1_556 S
O54 C53 1.232 1_554 S
C55 O47 1.260 . S
C55 O48 1.257 . S
Zn56 O59 2.031 . S
Zn56 O61 2.049 1_554 S
Zn56 O66 2.067 . S
Zn57 O58 1.962 . S
Zn57 O60 1.986 1_554 S
Zn57 O62 1.996 1_554 S
Zn57 O65 1.943 . S
O58 Zn57 1.962 . S
O58 C63 1.254 . S
O59 Zn56 2.031 . S
O59 C63 1.269 . S
O60 Zn57 1.986 1_556 S
O60 C67 1.262 . S
O61 Zn56 2.049 1_556 S
O61 C69 1.260 . S
O62 Zn57 1.996 1_556 S
O62 C69 1.257 . S
C63 O58 1.254 . S
C63 O59 1.269 . S
C64 O65 1.249 . S
C64 O66 1.270 . S
O65 Zn57 1.943 . S
O65 C64 1.249 . S
O66 Zn56 2.067 . S
O66 C64 1.270 . S
C67 O60 1.262 . S
C67 O68 1.232 1_556 S
O68 C67 1.232 1_554 S
C69 O61 1.260 . S
C69 O62 1.257 . S
Zn70 O73 2.031 1_554 S
Zn70 O75 2.049 . S
Zn70 O80 2.067 1_554 S
Zn71 O72 1.962 1_565 S
Zn71 O74 1.986 . S
Zn71 O76 1.996 1_565 S
Zn71 O79 1.943 1_554 S
O72 Zn71 1.962 1_545 S
O72 C77 1.254 1_554 S
O73 Zn70 2.031 1_556 S
O73 C77 1.269 . S
O74 Zn71 1.986 . S
O74 C81 1.262 . S
O75 Zn70 2.049 . S
O75 C83 1.260 . S
O76 Zn71 1.996 1_545 S
O76 C83 1.257 . S
C77 O72 1.254 1_556 S
C77 O73 1.269 . S
C78 O79 1.249 . S
C78 O80 1.270 1_565 S
O79 Zn71 1.943 1_556 S
O79 C78 1.249 . S
O80 Zn70 2.067 1_556 S
O80 C78 1.270 1_545 S
C81 O74 1.262 . S
C81 O82 1.232 . S
O82 C81 1.232 . S
C83 O75 1.260 . S
C83 O76 1.257 . S
Zn84 O87 2.031 . S
Zn84 O89 2.049 . S
Zn84 O94 2.067 . S
Zn85 O86 1.962 . S
Zn85 O88 1.986 . S
Zn85 O90 1.996 . S
Zn85 O93 1.943 . S
O86 Zn85 1.962 . S
O86 C91 1.254 . S
O87 Zn84 2.031 . S
O87 C91 1.269 . S
O88 Zn85 1.986 . S
O88 C95 1.262 . S
O89 Zn84 2.049 . S
O89 C97 1.260 . S
O90 Zn85 1.996 . S
O90 C97 1.257 . S
C91 O86 1.254 . S
C91 O87 1.269 . S
C92 O93 1.249 . S
C92 O94 1.270 . S
O93 Zn85 1.943 . S
O93 C92 1.249 . S
O94 Zn84 2.067 . S
O94 C92 1.270 . S
C95 O88 1.262 . S
C95 O96 1.232 . S
O96 C95 1.232 . S
C97 O89 1.260 . S
C97 O90 1.257 . S
Zn98 O101 2.031 . S
Zn98 O103 2.049 . S
Zn98 O108 2.067 . S
Zn99 O100 1.962 . S
Zn99 O102 1.986 1_565 S
Zn99 O104 1.996 . S
Zn99 O107 1.943 . S
O100 Zn99 1.962 . S
O100 C105 1.254 . S
O101 Zn98 2.031 . S
O101 C105 1.269 . S
O102 Zn99 1.986 1_545 S
O102 C109 1.262 . S
O103 Zn98 2.049 . S
O103 C111 1.260 . S
O104 Zn99 1.996 . S
O104 C111 1.257 . S
C105 O100 1.254 . S
C105 O101 1.269 . S
C106 O107 1.249 . S
C106 O108 1.270 . S
O107 Zn99 1.943 . S
O107 C106 1.249 . S
O108 Zn98 2.067 . S
O108 C106 1.270 . S
C109 O102 1.262 . S
C109 O110 1.232 . S
O110 C109 1.232 . S
C111 O103 1.260 . S
C111 O104 1.257 . S
Zn112 O115 2.046 . S
Zn112 O117 2.049 . S
Zn112 O122 2.067 . S
Zn113 O114 1.962 1_455 S
Zn113 O116 1.986 . S
Zn113 O118 1.996 . S
Zn113 O121 1.943 . S
O114 Zn113 1.962 1_655 S
O114 C119 1.254 . S
O115 Zn112 2.046 . S
O115 C119 1.253 1_455 S
O116 Zn113 1.986 . S
O116 C123 1.262 . S
O117 Zn112 2.049 . S
O117 C125 1.260 . S
O118 Zn113 1.996 . S
O118 C125 1.257 . S
C119 O114 1.254 . S
C119 O115 1.253 1_655 S
C120 O121 1.249 . S
C120 O122 1.270 . S
O121 Zn113 1.943 . S
O121 C120 1.249 . S
O122 Zn112 2.067 . S
O122 C120 1.270 . S
C123 O116 1.262 . S
C123 O124 1.232 . S
O124 C123 1.232 . S
C125 O117 1.260 . S
C125 O118 1.257 . S
Zn126 O129 2.031 1_565 S
Zn126 O131 2.049 . S
Zn126 O136 2.067 . S
Zn127 O128 1.962 1_565 S
Zn127 O130 1.986 . S
Zn127 O132 1.996 . S
Zn127 O135 1.943 . S
O128 Zn127 1.962 1_545 S
O128 C133 1.254 . S
O129 Zn126 2.031 1_545 S
O129 C133 1.269 . S
O130 Zn127 1.986 . S
O130 C137 1.262 . S
O131 Zn126 2.049 . S
O131 C139 1.260 . S
O132 Zn127 1.996 . S
O132 C139 1.257 . S
C133 O128 1.254 . S
C133 O129 1.269 . S
C134 O135 1.249 . S
C134 O136 1.270 . S
O135 Zn127 1.943 . S
O135 C134 1.249 . S
O136 Zn126 2.067 . S
O136 C134 1.270 . S
C137 O130 1.262 . S
C137 O138 1.232 . S
O138 C137 1.232 . S
C139 O131 1.260 . S
C139 O132 1.257 . S
Zn140 O143 2.031 1_455 S
Zn140 O145 2.049 . S
Zn140 O150 2.067 . S
Zn141 O142 1.962 1_455 S
Zn141 O144 1.986 . S
Zn141 O146 1.996 . S
Zn141 O149 1.943 . S
O142 Zn141 1.962 1_655 S
O142 C147 1.254 . S
O143 Zn140 2.031 1_655 S
O143 C147 1.269 . S
O144 Zn141 1.986 . S
O144 C151 1.262 . S
O145 Zn140 2.049 . S
O145 C153 1.260 . S
O146 Zn141 1.996 . S
O146 C153 1.257 . S
C147 O142 1.254 . S
C147 O143 1.269 . S
C148 O149 1.249 . S
C148 O150 1.270 . S
O149 Zn141 1.943 . S
O149 C148 1.249 . S
O150 Zn140 2.067 . S
O150 C148 1.270 . S
C151 O144 1.262 . S
C151 O152 1.232 . S
O152 C151 1.232 . S
C153 O145 1.260 . S
C153 O146 1.257 . S
Zn154 O157 2.031 . S
Zn154 O159 2.049 . S
Zn154 O164 2.067 . S
Zn155 O156 1.962 . S
Zn155 O158 1.986 . S
Zn155 O160 1.996 . S
Zn155 O163 1.943 . S
O156 Zn155 1.962 . S
O156 C161 1.254 . S
O157 Zn154 2.031 . S
O157 C161 1.269 . S
O158 Zn155 1.986 . S
O158 C165 1.262 . S
O159 Zn154 2.049 . S
O159 C167 1.260 . S
O160 Zn155 1.996 . S
O160 C167 1.257 . S
C161 O156 1.254 . S
C161 O157 1.269 . S
C162 O163 1.249 . S
C162 O164 1.270 . S
O163 Zn155 1.943 . S
O163 C162 1.249 . S
O164 Zn154 2.067 . S
O164 C162 1.270 . S
C165 O158 1.262 . S
C165 O166 1.232 . S
O166 C165 1.232 . S
C167 O159 1.260 . S
C167 O160 1.257 . S
Zn168 O171 2.031 . S
Zn168 O173 2.049 . S
Zn168 O178 2.067 . S
Zn169 O170 1.962 1_545 S
Zn169 O172 1.986 . S
Zn169 O174 1.996 . S
Zn169 O177 1.943 . S
O170 Zn169 1.962 1_565 S
O170 C175 1.254 . S
O171 Zn168 2.031 . S
O171 C175 1.269 1_545 S
O172 Zn169 1.986 . S
O172 C179 1.262 . S
O173 Zn168 2.049 . S
O173 C181 1.260 . S
O174 Zn169 1.996 . S
O174 C181 1.257 . S
C175 O170 1.254 . S
C175 O171 1.269 1_565 S
C176 O177 1.249 . S
C176 O178 1.270 . S
O177 Zn169 1.943 . S
O177 C176 1.249 . S
O178 Zn168 2.067 . S
O178 C176 1.270 . S
C179 O172 1.262 . S
C179 O180 1.232 . S
O180 C179 1.232 . S
C181 O173 1.260 . S
C181 O174 1.257 . S
Zn182 O185 2.031 1_655 S
Zn182 O187 2.049 . S
Zn182 O192 2.067 . S
Zn183 O184 1.962 1_655 S
Zn183 O186 1.986 . S
Zn183 O188 1.996 . S
Zn183 O191 1.943 . S
O184 Zn183 1.962 1_455 S
O184 C189 1.254 . S
O185 Zn182 2.031 1_455 S
O185 C189 1.269 . S
O186 Zn183 1.986 . S
O186 C193 1.262 . S
O187 Zn182 2.049 . S
O187 C195 1.260 . S
O188 Zn183 1.996 . S
O188 C195 1.257 . S
C189 O184 1.254 . S
C189 O185 1.269 . S
C190 O191 1.249 . S
C190 O192 1.270 . S
O191 Zn183 1.943 . S
O191 C190 1.249 . S
O192 Zn182 2.067 . S
O192 C190 1.270 . S
C193 O186 1.262 . S
C193 O194 1.232 . S
O194 C193 1.232 . S
C195 O187 1.260 . S
C195 O188 1.257 . S
Zn196 O199 2.031 . S
Zn196 O201 2.049 . S
Zn196 O206 2.067 . S
Zn197 O198 1.962 . S
Zn197 O200 1.986 . S
Zn197 O202 1.996 . S
Zn197 O205 1.943 . S
O198 Zn197 1.962 . S
O198 C203 1.254 . S
O199 Zn196 2.031 . S
O199 C203 1.269 . S
O200 Zn197 1.986 . S
O200 C207 1.262 . S
O201 Zn196 2.049 . S
O201 C209 1.260 . S
O202 Zn197 1.996 . S
O202 C209 1.257 . S
C203 O198 1.254 . S
C203 O199 1.269 . S
C204 O205 1.249 . S
C204 O206 1.270 . S
O205 Zn197 1.943 . S
O205 C204 1.249 . S
O206 Zn196 2.067 . S
O206 C204 1.270 . S
C207 O200 1.262 . S
C207 O208 1.232 . S
O208 C207 1.232 . S
C209 O201 1.260 . S
C209 O202 1.257 . S
Zn210 O213 2.031 . S
Zn210 O215 2.049 . S
Zn210 O220 2.067 . S
Zn211 O212 1.962 . S
Zn211 O214 1.986 . S
Zn211 O216 1.996 . S
Zn211 O219 1.943 . S
O212 Zn211 1.962 . S
O212 C217 1.254 . S
O213 Zn210 2.031 . S
O213 C217 1.269 . S
O214 Zn211 1.986 . S
O214 C221 1.262 . S
O215 Zn210 2.049 . S
O215 C223 1.260 . S
O216 Zn211 1.996 . S
O216 C223 1.257 . S
C217 O212 1.254 . S
C217 O213 1.269 . S
C218 O219 1.249 . S
C218 O220 1.270 . S
O219 Zn211 1.943 . S
O219 C218 1.249 . S
O220 Zn210 2.067 . S
O220 C218 1.270 . S
C221 O214 1.262 . S
C221 O222 1.232 . S
O222 C221 1.232 . S
C223 O215 1.260 . S
C223 O216 1.257 . S
Zn224 O227 2.031 . S
Zn224 O229 2.049 . S
Zn224 O234 2.067 . S
Zn225 O226 1.962 . S
Zn225 O228 1.986 1_545 S
Zn225 O230 1.996 . S
Zn225 O233 1.943 . S
O226 Zn225 1.962 . S
O226 C231 1.254 . S
O227 Zn224 2.031 . S
O227 C231 1.269 . S
O228 Zn225 1.986 1_565 S
O228 C235 1.262 . S
O229 Zn224 2.049 . S
O229 C237 1.260 . S
O230 Zn225 1.996 . S
O230 C237 1.257 . S
C231 O226 1.254 . S
C231 O227 1.269 . S
C232 O233 1.249 . S
C232 O234 1.270 . S
O233 Zn225 1.943 . S
O233 C232 1.249 . S
O234 Zn224 2.067 . S
O234 C232 1.270 . S
C235 O228 1.262 . S
C235 O236 1.232 . S
O236 C235 1.232 . S
C237 O229 1.260 . S
C237 O230 1.257 . S
Zn238 O241 2.031 1_655 S
Zn238 O243 2.049 . S
Zn238 O248 2.067 . S
Zn239 O240 1.962 1_655 S
Zn239 O242 1.986 . S
Zn239 O244 1.996 . S
Zn239 O247 1.943 . S
O240 Zn239 1.962 1_455 S
O240 C245 1.254 . S
O241 Zn238 2.031 1_455 S
O241 C245 1.269 . S
O242 Zn239 1.986 . S
O242 C249 1.262 . S
O243 Zn238 2.049 . S
O243 C251 1.260 . S
O244 Zn239 1.996 . S
O244 C251 1.257 . S
C245 O240 1.254 . S
C245 O241 1.269 . S
C246 O247 1.249 . S
C246 O248 1.270 . S
O247 Zn239 1.943 . S
O247 C246 1.249 . S
O248 Zn238 2.067 . S
O248 C246 1.270 . S
C249 O242 1.262 . S
C249 O250 1.232 . S
O250 C249 1.232 . S
C251 O243 1.260 . S
C251 O244 1.257 . S
H252 C271 0.949 . S
H253 C272 0.950 . S
H254 C274 0.950 . S
H255 C275 0.950 . S
H256 C277 0.950 . S
H257 C280 0.950 . S
H258 C281 0.950 . S
H259 C283 0.951 . S
H260 C284 0.949 . S
H261 C286 0.949 . S
H262 C287 0.950 . S
H263 C289 0.950 . S
H264 C290 0.950 . S
H265 C292 0.950 . S
H266 C295 0.950 . S
H267 C296 0.950 . S
H268 C298 0.951 . S
H269 C299 0.949 . S
C270 C271 1.376 . S
C270 C275 1.386 . S
C270 C276 1.483 . S
C271 H252 0.949 . S
C271 C270 1.376 . S
C271 C272 1.397 . S
C272 H253 0.950 . S
C272 C271 1.397 . S
C272 C273 1.391 . S
C273 C272 1.391 . S
C273 C274 1.405 . S
C274 H254 0.950 . S
C274 C273 1.405 . S
C274 C275 1.367 . S
C275 H255 0.950 . S
C275 C270 1.386 . S
C275 C274 1.367 . S
C276 C270 1.483 . S
C276 C277 1.382 . S
C276 C278 1.403 . S
C277 H256 0.950 . S
C277 C276 1.382 . S
C277 C293 1.411 . S
C278 C276 1.403 . S
C278 C279 1.489 . S
C278 C292 1.411 . S
C279 C278 1.489 . S
C279 C280 1.383 . S
C279 C284 1.382 . S
C280 H257 0.950 . S
C280 C279 1.383 . S
C280 C281 1.395 . S
C281 H258 0.950 . S
C281 C280 1.395 . S
C281 C282 1.288 . S
C282 C281 1.288 . S
C282 C283 1.392 . S
C283 H259 0.951 . S
C283 C282 1.392 . S
C283 C284 1.392 . S
C284 H260 0.949 . S
C284 C279 1.382 . S
C284 C283 1.392 . S
C285 C286 1.376 . S
C285 C290 1.386 . S
C285 C291 1.483 . S
C286 H261 0.949 . S
C286 C285 1.376 . S
C286 C287 1.397 . S
C287 H262 0.950 . S
C287 C286 1.397 . S
C287 C288 1.391 . S
C288 C287 1.391 . S
C288 C289 1.405 . S
C289 H263 0.950 . S
C289 C288 1.405 . S
C289 C290 1.367 . S
C290 H264 0.950 . S
C290 C285 1.386 . S
C290 C289 1.367 . S
C291 C285 1.483 . S
C291 C292 1.382 . S
C291 C293 1.403 . S
C292 H265 0.950 . S
C292 C278 1.411 . S
C292 C291 1.382 . S
C293 C277 1.411 . S
C293 C291 1.403 . S
C293 C294 1.489 . S
C294 C293 1.489 . S
C294 C295 1.383 . S
C294 C299 1.382 . S
C295 H266 0.950 . S
C295 C294 1.383 . S
C295 C296 1.395 . S
C296 H267 0.950 . S
C296 C295 1.395 . S
C296 C297 1.288 . S
C297 C296 1.288 . S
C297 C298 1.392 . S
C298 H268 0.951 . S
C298 C297 1.392 . S
C298 C299 1.392 . S
C299 H269 0.949 . S
C299 C294 1.382 . S
C299 C298 1.392 . S
H300 C319 0.949 . S
H301 C320 0.950 . S
H302 C322 0.950 . S
H303 C323 0.950 . S
H304 C325 0.950 . S
H305 C328 0.950 . S
H306 C329 0.950 . S
H307 C331 0.951 . S
H308 C332 0.949 . S
H309 C334 0.949 . S
H310 C335 0.950 . S
H311 C337 0.950 . S
H312 C338 0.950 . S
H313 C340 0.950 . S
H314 C343 0.950 . S
H315 C344 0.950 . S
H316 C346 0.951 . S
H317 C347 0.949 . S
C318 C319 1.376 . S
C318 C323 1.386 . S
C318 C324 1.483 . S
C319 H300 0.949 . S
C319 C318 1.376 . S
C319 C320 1.397 . S
C320 H301 0.950 . S
C320 C319 1.397 . S
C320 C321 1.391 . S
C321 C320 1.391 . S
C321 C322 1.405 . S
C322 H302 0.950 . S
C322 C321 1.405 . S
C322 C323 1.367 . S
C323 H303 0.950 . S
C323 C318 1.386 . S
C323 C322 1.367 . S
C324 C318 1.483 . S
C324 C325 1.382 . S
C324 C326 1.403 . S
C325 H304 0.950 . S
C325 C324 1.382 . S
C325 C341 1.411 . S
C326 C324 1.403 . S
C326 C327 1.489 . S
C326 C340 1.411 . S
C327 C326 1.489 . S
C327 C328 1.383 . S
C327 C332 1.382 . S
C328 H305 0.950 . S
C328 C327 1.383 . S
C328 C329 1.395 . S
C329 H306 0.950 . S
C329 C328 1.395 . S
C329 C330 1.288 . S
C330 C329 1.288 . S
C330 C331 1.392 . S
C331 H307 0.951 . S
C331 C330 1.392 . S
C331 C332 1.392 . S
C332 H308 0.949 . S
C332 C327 1.382 . S
C332 C331 1.392 . S
C333 C334 1.376 . S
C333 C338 1.386 . S
C333 C339 1.483 . S
C334 H309 0.949 . S
C334 C333 1.376 . S
C334 C335 1.397 . S
C335 H310 0.950 . S
C335 C334 1.397 . S
C335 C336 1.391 . S
C336 C335 1.391 . S
C336 C337 1.405 . S
C337 H311 0.950 . S
C337 C336 1.405 . S
C337 C338 1.367 . S
C338 H312 0.950 . S
C338 C333 1.386 . S
C338 C337 1.367 . S
C339 C333 1.483 . S
C339 C340 1.382 . S
C339 C341 1.403 . S
C340 H313 0.950 . S
C340 C326 1.411 . S
C340 C339 1.382 . S
C341 C325 1.411 . S
C341 C339 1.403 . S
C341 C342 1.489 . S
C342 C341 1.489 . S
C342 C343 1.383 . S
C342 C347 1.382 . S
C343 H314 0.950 . S
C343 C342 1.383 . S
C343 C344 1.395 . S
C344 H315 0.950 . S
C344 C343 1.395 . S
C344 C345 1.288 . S
C345 C344 1.288 . S
C345 C346 1.392 . S
C346 H316 0.951 . S
C346 C345 1.392 . S
C346 C347 1.392 . S
C347 H317 0.949 . S
C347 C342 1.382 . S
C347 C346 1.392 . S
H348 C367 0.949 . S
H349 C368 0.950 . S
H350 C370 0.950 . S
H351 C371 0.950 . S
H352 C373 0.950 . S
H353 C376 0.950 . S
H354 C377 0.950 . S
H355 C379 0.951 . S
H356 C380 0.949 . S
H357 C382 0.949 . S
H358 C383 0.950 . S
H359 C385 0.950 . S
H360 C386 0.950 . S
H361 C388 0.950 . S
H362 C391 0.950 . S
H363 C392 0.950 . S
H364 C394 0.951 . S
H365 C395 0.949 . S
C366 C367 1.376 . S
C366 C371 1.386 . S
C366 C372 1.483 . S
C367 H348 0.949 . S
C367 C366 1.376 . S
C367 C368 1.397 . S
C368 H349 0.950 . S
C368 C367 1.397 . S
C368 C369 1.391 . S
C369 C368 1.391 . S
C369 C370 1.405 . S
C370 H350 0.950 . S
C370 C369 1.405 . S
C370 C371 1.367 . S
C371 H351 0.950 . S
C371 C366 1.386 . S
C371 C370 1.367 . S
C372 C366 1.483 . S
C372 C373 1.382 . S
C372 C374 1.403 . S
C373 H352 0.950 . S
C373 C372 1.382 . S
C373 C389 1.411 . S
C374 C372 1.403 . S
C374 C375 1.489 . S
C374 C388 1.411 . S
C375 C374 1.489 . S
C375 C376 1.383 . S
C375 C380 1.382 . S
C376 H353 0.950 . S
C376 C375 1.383 . S
C376 C377 1.395 . S
C377 H354 0.950 . S
C377 C376 1.395 . S
C377 C378 1.288 . S
C378 C377 1.288 . S
C378 C379 1.392 . S
C379 H355 0.951 . S
C379 C378 1.392 . S
C379 C380 1.392 . S
C380 H356 0.949 . S
C380 C375 1.382 . S
C380 C379 1.392 . S
C381 C382 1.376 . S
C381 C386 1.386 . S
C381 C387 1.483 . S
C382 H357 0.949 . S
C382 C381 1.376 . S
C382 C383 1.397 . S
C383 H358 0.950 . S
C383 C382 1.397 . S
C383 C384 1.391 . S
C384 C383 1.391 . S
C384 C385 1.405 . S
C385 H359 0.950 . S
C385 C384 1.405 . S
C385 C386 1.367 . S
C386 H360 0.950 . S
C386 C381 1.386 . S
C386 C385 1.367 . S
C387 C381 1.483 . S
C387 C388 1.382 . S
C387 C389 1.403 . S
C388 H361 0.950 . S
C388 C374 1.411 . S
C388 C387 1.382 . S
C389 C373 1.411 . S
C389 C387 1.403 . S
C389 C390 1.489 . S
C390 C389 1.489 . S
C390 C391 1.383 . S
C390 C395 1.382 . S
C391 H362 0.950 . S
C391 C390 1.383 . S
C391 C392 1.395 . S
C392 H363 0.950 . S
C392 C391 1.395 . S
C392 C393 1.288 . S
C393 C392 1.288 . S
C393 C394 1.392 . S
C394 H364 0.951 . S
C394 C393 1.392 . S
C394 C395 1.392 . S
C395 H365 0.949 . S
C395 C390 1.382 . S
C395 C394 1.392 . S
H396 C415 0.949 . S
H397 C416 0.950 . S
H398 C418 0.950 . S
H399 C419 0.950 . S
H400 C421 0.950 . S
H401 C424 0.950 . S
H402 C425 0.950 . S
H403 C427 0.951 . S
H404 C428 0.949 . S
H405 C430 0.949 . S
H406 C431 0.950 . S
H407 C433 0.950 . S
H408 C434 0.950 . S
H409 C436 0.950 . S
H410 C439 0.950 . S
H411 C440 0.950 . S
H412 C442 0.951 . S
H413 C443 0.949 . S
C414 C415 1.376 . S
C414 C419 1.386 . S
C414 C420 1.483 . S
C415 H396 0.949 . S
C415 C414 1.376 . S
C415 C416 1.397 . S
C416 H397 0.950 . S
C416 C415 1.397 . S
C416 C417 1.391 . S
C417 C416 1.391 . S
C417 C418 1.405 . S
C418 H398 0.950 . S
C418 C417 1.405 . S
C418 C419 1.367 . S
C419 H399 0.950 . S
C419 C414 1.386 . S
C419 C418 1.367 . S
C420 C414 1.483 . S
C420 C421 1.382 . S
C420 C422 1.403 . S
C421 H400 0.950 . S
C421 C420 1.382 . S
C421 C437 1.411 . S
C422 C420 1.403 . S
C422 C423 1.489 . S
C422 C436 1.411 . S
C423 C422 1.489 . S
C423 C424 1.383 . S
C423 C428 1.382 . S
C424 H401 0.950 . S
C424 C423 1.383 . S
C424 C425 1.395 . S
C425 H402 0.950 . S
C425 C424 1.395 . S
C425 C426 1.288 . S
C426 C425 1.288 . S
C426 C427 1.392 . S
C427 H403 0.951 . S
C427 C426 1.392 . S
C427 C428 1.392 . S
C428 H404 0.949 . S
C428 C423 1.382 . S
C428 C427 1.392 . S
C429 C430 1.376 . S
C429 C434 1.386 . S
C429 C435 1.483 . S
C430 H405 0.949 . S
C430 C429 1.376 . S
C430 C431 1.397 . S
C431 H406 0.950 . S
C431 C430 1.397 . S
C431 C432 1.391 . S
C432 C431 1.391 . S
C432 C433 1.405 . S
C433 H407 0.950 . S
C433 C432 1.405 . S
C433 C434 1.367 . S
C434 H408 0.950 . S
C434 C429 1.386 . S
C434 C433 1.367 . S
C435 C429 1.483 . S
C435 C436 1.382 . S
C435 C437 1.403 . S
C436 H409 0.950 . S
C436 C422 1.411 . S
C436 C435 1.382 . S
C437 C421 1.411 . S
C437 C435 1.403 . S
C437 C438 1.489 . S
C438 C437 1.489 . S
C438 C439 1.383 . S
C438 C443 1.382 . S
C439 H410 0.950 . S
C439 C438 1.383 . S
C439 C440 1.395 . S
C440 H411 0.950 . S
C440 C439 1.395 . S
C440 C441 1.288 . S
C441 C440 1.288 . S
C441 C442 1.392 . S
C442 H412 0.951 . S
C442 C441 1.392 . S
C442 C443 1.392 . S
C443 H413 0.949 . S
C443 C438 1.382 . S
C443 C442 1.392 . S
H444 C463 0.949 . S
H445 C464 0.950 . S
H446 C466 0.950 . S
H447 C467 0.950 . S
H448 C469 0.950 . S
H449 C472 0.950 . S
H450 C473 0.950 . S
H451 C475 0.951 . S
H452 C476 0.949 . S
H453 C478 0.949 . S
H454 C479 0.950 . S
H455 C481 0.950 . S
H456 C482 0.950 . S
H457 C484 0.950 . S
H458 C487 0.950 . S
H459 C488 0.950 . S
H460 C490 0.951 . S
H461 C491 0.949 . S
C462 C463 1.376 . S
C462 C467 1.386 . S
C462 C468 1.483 . S
C463 H444 0.949 . S
C463 C462 1.376 . S
C463 C464 1.397 . S
C464 H445 0.950 . S
C464 C463 1.397 . S
C464 C465 1.391 . S
C465 C464 1.391 . S
C465 C466 1.405 . S
C466 H446 0.950 . S
C466 C465 1.405 . S
C466 C467 1.367 . S
C467 H447 0.950 . S
C467 C462 1.386 . S
C467 C466 1.367 . S
C468 C462 1.483 . S
C468 C469 1.382 . S
C468 C470 1.403 . S
C469 H448 0.950 . S
C469 C468 1.382 . S
C469 C485 1.411 . S
C470 C468 1.403 . S
C470 C471 1.489 . S
C470 C484 1.411 . S
C471 C470 1.489 . S
C471 C472 1.383 . S
C471 C476 1.382 . S
C472 H449 0.950 . S
C472 C471 1.383 . S
C472 C473 1.395 . S
C473 H450 0.950 . S
C473 C472 1.395 . S
C473 C474 1.288 . S
C474 C473 1.288 . S
C474 C475 1.392 . S
C475 H451 0.951 . S
C475 C474 1.392 . S
C475 C476 1.392 . S
C476 H452 0.949 . S
C476 C471 1.382 . S
C476 C475 1.392 . S
C477 C478 1.376 . S
C477 C482 1.386 . S
C477 C483 1.483 . S
C478 H453 0.949 . S
C478 C477 1.376 . S
C478 C479 1.397 . S
C479 H454 0.950 . S
C479 C478 1.397 . S
C479 C480 1.391 . S
C480 C479 1.391 . S
C480 C481 1.405 . S
C481 H455 0.950 . S
C481 C480 1.405 . S
C481 C482 1.367 . S
C482 H456 0.950 . S
C482 C477 1.386 . S
C482 C481 1.367 . S
C483 C477 1.483 . S
C483 C484 1.382 . S
C483 C485 1.403 . S
C484 H457 0.950 . S
C484 C470 1.411 . S
C484 C483 1.382 . S
C485 C469 1.411 . S
C485 C483 1.403 . S
C485 C486 1.489 . S
C486 C485 1.489 . S
C486 C487 1.383 . S
C486 C491 1.382 . S
C487 H458 0.950 . S
C487 C486 1.383 . S
C487 C488 1.395 . S
C488 H459 0.950 . S
C488 C487 1.395 . S
C488 C489 1.288 . S
C489 C488 1.288 . S
C489 C490 1.392 . S
C490 H460 0.951 . S
C490 C489 1.392 . S
C490 C491 1.392 . S
C491 H461 0.949 . S
C491 C486 1.382 . S
C491 C490 1.392 . S
H492 C511 0.949 . S
H493 C512 0.950 . S
H494 C514 0.950 . S
H495 C515 0.950 . S
H496 C517 0.950 . S
H497 C520 0.950 . S
H498 C521 0.950 . S
H499 C523 0.951 . S
H500 C524 0.949 . S
H501 C526 0.949 . S
H502 C527 0.950 . S
H503 C529 0.950 . S
H504 C530 0.950 . S
H505 C532 0.950 . S
H506 C535 0.950 . S
H507 C536 0.950 . S
H508 C538 0.951 . S
H509 C539 0.949 . S
C510 C511 1.376 . S
C510 C515 1.386 . S
C510 C516 1.483 . S
C511 H492 0.949 . S
C511 C510 1.376 . S
C511 C512 1.397 . S
C512 H493 0.950 . S
C512 C511 1.397 . S
C512 C513 1.391 . S
C513 C512 1.391 . S
C513 C514 1.405 . S
C514 H494 0.950 . S
C514 C513 1.405 . S
C514 C515 1.367 . S
C515 H495 0.950 . S
C515 C510 1.386 . S
C515 C514 1.367 . S
C516 C510 1.483 . S
C516 C517 1.382 . S
C516 C518 1.403 . S
C517 H496 0.950 . S
C517 C516 1.382 . S
C517 C533 1.411 . S
C518 C516 1.403 . S
C518 C519 1.489 . S
C518 C532 1.411 . S
C519 C518 1.489 . S
C519 C520 1.383 . S
C519 C524 1.382 . S
C520 H497 0.950 . S
C520 C519 1.383 . S
C520 C521 1.395 . S
C521 H498 0.950 . S
C521 C520 1.395 . S
C521 C522 1.288 . S
C522 C521 1.288 . S
C522 C523 1.392 . S
C523 H499 0.951 . S
C523 C522 1.392 . S
C523 C524 1.392 . S
C524 H500 0.949 . S
C524 C519 1.382 . S
C524 C523 1.392 . S
C525 C526 1.376 . S
C525 C530 1.386 . S
C525 C531 1.483 . S
C526 H501 0.949 . S
C526 C525 1.376 . S
C526 C527 1.397 . S
C527 H502 0.950 . S
C527 C526 1.397 . S
C527 C528 1.391 . S
C528 C527 1.391 . S
C528 C529 1.405 . S
C529 H503 0.950 . S
C529 C528 1.405 . S
C529 C530 1.367 . S
C530 H504 0.950 . S
C530 C525 1.386 . S
C530 C529 1.367 . S
C531 C525 1.483 . S
C531 C532 1.382 . S
C531 C533 1.403 . S
C532 H505 0.950 . S
C532 C518 1.411 . S
C532 C531 1.382 . S
C533 C517 1.411 . S
C533 C531 1.403 . S
C533 C534 1.489 . S
C534 C533 1.489 . S
C534 C535 1.383 . S
C534 C539 1.382 . S
C535 H506 0.950 . S
C535 C534 1.383 . S
C535 C536 1.395 . S
C536 H507 0.950 . S
C536 C535 1.395 . S
C536 C537 1.288 . S
C537 C536 1.288 . S
C537 C538 1.392 . S
C538 H508 0.951 . S
C538 C537 1.392 . S
C538 C539 1.392 . S
C539 H509 0.949 . S
C539 C534 1.382 . S
C539 C538 1.392 . S
H540 C559 0.949 . S
H541 C560 0.950 . S
H542 C562 0.950 . S
H543 C563 0.950 . S
H544 C565 0.950 . S
H545 C568 0.950 . S
H546 C569 0.950 . S
H547 C571 0.951 . S
H548 C572 0.949 . S
H549 C574 0.949 . S
H550 C575 0.950 . S
H551 C577 0.950 . S
H552 C578 0.950 . S
H553 C580 0.950 . S
H554 C583 0.950 . S
H555 C584 0.950 . S
H556 C586 0.951 . S
H557 C587 0.949 . S
C558 C559 1.376 . S
C558 C563 1.386 . S
C558 C564 1.483 . S
C559 H540 0.949 . S
C559 C558 1.376 . S
C559 C560 1.397 . S
C560 H541 0.950 . S
C560 C559 1.397 . S
C560 C561 1.391 . S
C561 C560 1.391 . S
C561 C562 1.405 . S
C562 H542 0.950 . S
C562 C561 1.405 . S
C562 C563 1.367 . S
C563 H543 0.950 . S
C563 C558 1.386 . S
C563 C562 1.367 . S
C564 C558 1.483 . S
C564 C565 1.382 . S
C564 C566 1.403 . S
C565 H544 0.950 . S
C565 C564 1.382 . S
C565 C581 1.411 . S
C566 C564 1.403 . S
C566 C567 1.489 . S
C566 C580 1.411 . S
C567 C566 1.489 . S
C567 C568 1.383 . S
C567 C572 1.382 . S
C568 H545 0.950 . S
C568 C567 1.383 . S
C568 C569 1.395 . S
C569 H546 0.950 . S
C569 C568 1.395 . S
C569 C570 1.288 . S
C570 C569 1.288 . S
C570 C571 1.392 . S
C571 H547 0.951 . S
C571 C570 1.392 . S
C571 C572 1.392 . S
C572 H548 0.949 . S
C572 C567 1.382 . S
C572 C571 1.392 . S
C573 C574 1.376 . S
C573 C578 1.386 . S
C573 C579 1.483 . S
C574 H549 0.949 . S
C574 C573 1.376 . S
C574 C575 1.397 . S
C575 H550 0.950 . S
C575 C574 1.397 . S
C575 C576 1.391 . S
C576 C575 1.391 . S
C576 C577 1.405 . S
C577 H551 0.950 . S
C577 C576 1.405 . S
C577 C578 1.367 . S
C578 H552 0.950 . S
C578 C573 1.386 . S
C578 C577 1.367 . S
C579 C573 1.483 . S
C579 C580 1.382 . S
C579 C581 1.403 . S
C580 H553 0.950 . S
C580 C566 1.411 . S
C580 C579 1.382 . S
C581 C565 1.411 . S
C581 C579 1.403 . S
C581 C582 1.489 . S
C582 C581 1.489 . S
C582 C583 1.383 . S
C582 C587 1.382 . S
C583 H554 0.950 . S
C583 C582 1.383 . S
C583 C584 1.395 . S
C584 H555 0.950 . S
C584 C583 1.395 . S
C584 C585 1.288 . S
C585 C584 1.288 . S
C585 C586 1.392 . S
C586 H556 0.951 . S
C586 C585 1.392 . S
C586 C587 1.392 . S
C587 H557 0.949 . S
C587 C582 1.382 . S
C587 C586 1.392 . S
H588 C607 0.949 . S
H589 C608 0.950 . S
H590 C610 0.950 . S
H591 C611 0.950 . S
H592 C613 0.950 . S
H593 C616 0.950 . S
H594 C617 0.950 . S
H595 C619 0.951 . S
H596 C620 0.949 . S
H597 C622 0.949 . S
H598 C623 0.950 . S
H599 C625 0.950 . S
H600 C626 0.950 . S
H601 C628 0.950 . S
H602 C631 0.950 . S
H603 C632 0.950 . S
H604 C634 0.951 . S
H605 C635 0.949 . S
C606 C607 1.376 . S
C606 C611 1.386 . S
C606 C612 1.483 . S
C607 H588 0.949 . S
C607 C606 1.376 . S
C607 C608 1.397 . S
C608 H589 0.950 . S
C608 C607 1.397 . S
C608 C609 1.391 . S
C609 C608 1.391 . S
C609 C610 1.405 . S
C610 H590 0.950 . S
C610 C609 1.405 . S
C610 C611 1.367 . S
C611 H591 0.950 . S
C611 C606 1.386 . S
C611 C610 1.367 . S
C612 C606 1.483 . S
C612 C613 1.382 . S
C612 C614 1.403 . S
C613 H592 0.950 . S
C613 C612 1.382 . S
C613 C629 1.411 . S
C614 C612 1.403 . S
C614 C615 1.489 . S
C614 C628 1.411 . S
C615 C614 1.489 . S
C615 C616 1.383 . S
C615 C620 1.382 . S
C616 H593 0.950 . S
C616 C615 1.383 . S
C616 C617 1.395 . S
C617 H594 0.950 . S
C617 C616 1.395 . S
C617 C618 1.288 . S
C618 C617 1.288 . S
C618 C619 1.392 . S
C619 H595 0.951 . S
C619 C618 1.392 . S
C619 C620 1.392 . S
C620 H596 0.949 . S
C620 C615 1.382 . S
C620 C619 1.392 . S
C621 C622 1.376 . S
C621 C626 1.386 . S
C621 C627 1.483 . S
C622 H597 0.949 . S
C622 C621 1.376 . S
C622 C623 1.397 . S
C623 H598 0.950 . S
C623 C622 1.397 . S
C623 C624 1.391 . S
C624 C623 1.391 . S
C624 C625 1.405 . S
C625 H599 0.950 . S
C625 C624 1.405 . S
C625 C626 1.367 . S
C626 H600 0.950 . S
C626 C621 1.386 . S
C626 C625 1.367 . S
C627 C621 1.483 . S
C627 C628 1.382 . S
C627 C629 1.403 . S
C628 H601 0.950 . S
C628 C614 1.411 . S
C628 C627 1.382 . S
C629 C613 1.411 . S
C629 C627 1.403 . S
C629 C630 1.489 . S
C630 C629 1.489 . S
C630 C631 1.383 . S
C630 C635 1.382 . S
C631 H602 0.950 . S
C631 C630 1.383 . S
C631 C632 1.395 . S
C632 H603 0.950 . S
C632 C631 1.395 . S
C632 C633 1.288 . S
C633 C632 1.288 . S
C633 C634 1.392 . S
C634 H604 0.951 . S
C634 C633 1.392 . S
C634 C635 1.392 . S
C635 H605 0.949 . S
C635 C630 1.382 . S
C635 C634 1.392 . S
H636 C655 0.949 . S
H637 C656 0.950 . S
H638 C658 0.950 . S
H639 C659 0.950 . S
H640 C661 0.950 . S
H641 C664 0.950 . S
H642 C665 0.950 . S
H643 C667 0.951 . S
H644 C668 0.949 . S
H645 C670 0.949 . S
H646 C671 0.950 . S
H647 C673 0.950 . S
H648 C674 0.950 . S
H649 C676 0.950 . S
H650 C679 0.950 . S
H651 C680 0.950 . S
H652 C682 0.951 . S
H653 C683 0.949 . S
C654 C655 1.376 . S
C654 C659 1.386 . S
C654 C660 1.483 . S
C655 H636 0.949 . S
C655 C654 1.376 . S
C655 C656 1.397 . S
C656 H637 0.950 . S
C656 C655 1.397 . S
C656 C657 1.391 . S
C657 C656 1.391 . S
C657 C658 1.405 . S
C658 H638 0.950 . S
C658 C657 1.405 . S
C658 C659 1.367 . S
C659 H639 0.950 . S
C659 C654 1.386 . S
C659 C658 1.367 . S
C660 C654 1.483 . S
C660 C661 1.382 . S
C660 C662 1.403 . S
C661 H640 0.950 . S
C661 C660 1.382 . S
C661 C677 1.411 . S
C662 C660 1.403 . S
C662 C663 1.489 . S
C662 C676 1.411 . S
C663 C662 1.489 . S
C663 C664 1.383 . S
C663 C668 1.382 . S
C664 H641 0.950 . S
C664 C663 1.383 . S
C664 C665 1.395 . S
C665 H642 0.950 . S
C665 C664 1.395 . S
C665 C666 1.288 . S
C666 C665 1.288 . S
C666 C667 1.392 . S
C667 H643 0.951 . S
C667 C666 1.392 . S
C667 C668 1.392 . S
C668 H644 0.949 . S
C668 C663 1.382 . S
C668 C667 1.392 . S
C669 C670 1.376 . S
C669 C674 1.386 . S
C669 C675 1.483 . S
C670 H645 0.949 . S
C670 C669 1.376 . S
C670 C671 1.397 . S
C671 H646 0.950 . S
C671 C670 1.397 . S
C671 C672 1.391 . S
C672 C671 1.391 . S
C672 C673 1.405 . S
C673 H647 0.950 . S
C673 C672 1.405 . S
C673 C674 1.367 . S
C674 H648 0.950 . S
C674 C669 1.386 . S
C674 C673 1.367 . S
C675 C669 1.483 . S
C675 C676 1.382 . S
C675 C677 1.403 . S
C676 H649 0.950 . S
C676 C662 1.411 . S
C676 C675 1.382 . S
C677 C661 1.411 . S
C677 C675 1.403 . S
C677 C678 1.489 . S
C678 C677 1.489 . S
C678 C679 1.383 . S
C678 C683 1.382 . S
C679 H650 0.950 . S
C679 C678 1.383 . S
C679 C680 1.395 . S
C680 H651 0.950 . S
C680 C679 1.395 . S
C680 C681 1.288 . S
C681 C680 1.288 . S
C681 C682 1.392 . S
C682 H652 0.951 . S
C682 C681 1.392 . S
C682 C683 1.392 . S
C683 H653 0.949 . S
C683 C678 1.382 . S
C683 C682 1.392 . S
H684 C703 0.949 . S
H685 C704 0.950 . S
H686 C706 0.950 . S
H687 C707 0.950 . S
H688 C709 0.950 . S
H689 C712 0.950 . S
H690 C713 0.950 . S
H691 C715 0.951 . S
H692 C716 0.949 . S
H693 C718 0.949 . S
H694 C719 0.950 . S
H695 C721 0.950 . S
H696 C722 0.950 . S
H697 C724 0.950 . S
H698 C727 0.950 . S
H699 C728 0.950 . S
H700 C730 0.951 . S
H701 C731 0.949 . S
C702 C703 1.376 . S
C702 C707 1.386 1_655 S
C702 C708 1.483 . S
C703 H684 0.949 . S
C703 C702 1.376 . S
C703 C704 1.397 . S
C704 H685 0.950 . S
C704 C703 1.397 . S
C704 C705 1.391 . S
C705 C704 1.391 . S
C705 C706 1.405 1_655 S
C706 H686 0.950 . S
C706 C705 1.405 1_455 S
C706 C707 1.367 . S
C707 H687 0.950 . S
C707 C702 1.386 1_455 S
C707 C706 1.367 . S
C708 C702 1.483 . S
C708 C709 1.382 . S
C708 C710 1.403 1_655 S
C709 H688 0.950 . S
C709 C708 1.382 . S
C709 C725 1.411 . S
C710 C708 1.403 1_455 S
C710 C711 1.489 . S
C710 C724 1.411 . S
C711 C710 1.489 . S
C711 C712 1.383 1_455 S
C711 C716 1.382 . S
C712 H689 0.950 . S
C712 C711 1.383 1_655 S
C712 C713 1.395 . S
C713 H690 0.950 . S
C713 C712 1.395 . S
C713 C714 1.288 1_655 S
C714 C713 1.288 1_455 S
C714 C715 1.392 . S
C715 H691 0.951 . S
C715 C714 1.392 . S
C715 C716 1.392 . S
C716 H692 0.949 . S
C716 C711 1.382 . S
C716 C715 1.392 . S
C717 C718 1.376 . S
C717 C722 1.386 1_455 S
C717 C723 1.483 . S
C718 H693 0.949 . S
C718 C717 1.376 . S
C718 C719 1.397 . S
C719 H694 0.950 . S
C719 C718 1.397 . S
C719 C720 1.391 . S
C720 C719 1.391 . S
C720 C721 1.405 1_455 S
C721 H695 0.950 . S
C721 C720 1.405 1_655 S
C721 C722 1.367 . S
C722 H696 0.950 . S
C722 C717 1.386 1_655 S
C722 C721 1.367 . S
C723 C717 1.483 . S
C723 C724 1.382 . S
C723 C725 1.403 1_455 S
C724 H697 0.950 . S
C724 C710 1.411 . S
C724 C723 1.382 . S
C725 C709 1.411 . S
C725 C723 1.403 1_655 S
C725 C726 1.489 . S
C726 C725 1.489 . S
C726 C727 1.383 1_655 S
C726 C731 1.382 . S
C727 H698 0.950 . S
C727 C726 1.383 1_455 S
C727 C728 1.395 . S
C728 H699 0.950 . S
C728 C727 1.395 . S
C728 C729 1.288 1_455 S
C729 C728 1.288 1_655 S
C729 C730 1.392 . S
C730 H700 0.951 . S
C730 C729 1.392 . S
C730 C731 1.392 . S
C731 H701 0.949 . S
C731 C726 1.382 . S
C731 C730 1.392 . S
H732 C751 0.949 . S
H733 C752 0.950 . S
H734 C754 0.950 . S
H735 C755 0.950 . S
H736 C757 0.950 . S
H737 C760 0.950 . S
H738 C761 0.950 . S
H739 C763 0.951 . S
H740 C764 0.949 . S
H741 C766 0.949 . S
H742 C767 0.950 . S
H743 C769 0.950 . S
H744 C770 0.950 . S
H745 C772 0.950 . S
H746 C775 0.950 . S
H747 C776 0.950 . S
H748 C778 0.951 . S
H749 C779 0.949 . S
C750 C751 1.376 . S
C750 C755 1.386 . S
C750 C756 1.483 . S
C751 H732 0.949 . S
C751 C750 1.376 . S
C751 C752 1.397 . S
C752 H733 0.950 . S
C752 C751 1.397 . S
C752 C753 1.391 . S
C753 C752 1.391 . S
C753 C754 1.405 . S
C754 H734 0.950 . S
C754 C753 1.405 . S
C754 C755 1.367 . S
C755 H735 0.950 . S
C755 C750 1.386 . S
C755 C754 1.367 . S
C756 C750 1.483 . S
C756 C757 1.382 . S
C756 C758 1.403 . S
C757 H736 0.950 . S
C757 C756 1.382 . S
C757 C773 1.411 . S
C758 C756 1.403 . S
C758 C759 1.489 . S
C758 C772 1.411 . S
C759 C758 1.489 . S
C759 C760 1.383 . S
C759 C764 1.382 . S
C760 H737 0.950 . S
C760 C759 1.383 . S
C760 C761 1.395 . S
C761 H738 0.950 . S
C761 C760 1.395 . S
C761 C762 1.288 . S
C762 C761 1.288 . S
C762 C763 1.392 . S
C763 H739 0.951 . S
C763 C762 1.392 . S
C763 C764 1.392 . S
C764 H740 0.949 . S
C764 C759 1.382 . S
C764 C763 1.392 . S
C765 C766 1.376 . S
C765 C770 1.386 . S
C765 C771 1.483 . S
C766 H741 0.949 . S
C766 C765 1.376 . S
C766 C767 1.397 . S
C767 H742 0.950 . S
C767 C766 1.397 . S
C767 C768 1.391 . S
C768 C767 1.391 . S
C768 C769 1.405 . S
C769 H743 0.950 . S
C769 C768 1.405 . S
C769 C770 1.367 . S
C770 H744 0.950 . S
C770 C765 1.386 . S
C770 C769 1.367 . S
C771 C765 1.483 . S
C771 C772 1.382 . S
C771 C773 1.403 . S
C772 H745 0.950 . S
C772 C758 1.411 . S
C772 C771 1.382 . S
C773 C757 1.411 . S
C773 C771 1.403 . S
C773 C774 1.489 . S
C774 C773 1.489 . S
C774 C775 1.383 . S
C774 C779 1.382 . S
C775 H746 0.950 . S
C775 C774 1.383 . S
C775 C776 1.395 . S
C776 H747 0.950 . S
C776 C775 1.395 . S
C776 C777 1.288 . S
C777 C776 1.288 . S
C777 C778 1.392 . S
C778 H748 0.951 . S
C778 C777 1.392 . S
C778 C779 1.392 . S
C779 H749 0.949 . S
C779 C774 1.382 . S
C779 C778 1.392 . S
H780 C799 0.949 . S
H781 C800 0.950 . S
H782 C802 0.950 . S
H783 C803 0.950 . S
H784 C805 0.950 . S
H785 C808 0.950 . S
H786 C809 0.950 . S
H787 C811 0.951 . S
H788 C812 0.949 . S
H789 C814 0.949 . S
H790 C815 0.950 . S
H791 C817 0.950 . S
H792 C818 0.950 . S
H793 C820 0.950 . S
H794 C823 0.950 . S
H795 C824 0.950 . S
H796 C826 0.951 . S
H797 C827 0.949 . S
C798 C799 1.376 . S
C798 C803 1.386 1_545 S
C798 C804 1.483 . S
C799 H780 0.949 . S
C799 C798 1.376 . S
C799 C800 1.397 . S
C800 H781 0.950 . S
C800 C799 1.397 . S
C800 C801 1.391 . S
C801 C800 1.391 . S
C801 C802 1.405 1_545 S
C802 H782 0.950 . S
C802 C801 1.405 1_565 S
C802 C803 1.367 . S
C803 H783 0.950 . S
C803 C798 1.386 1_565 S
C803 C802 1.367 . S
C804 C798 1.483 . S
C804 C805 1.382 . S
C804 C806 1.403 1_545 S
C805 H784 0.950 . S
C805 C804 1.382 . S
C805 C821 1.411 . S
C806 C804 1.403 1_565 S
C806 C807 1.489 . S
C806 C820 1.411 . S
C807 C806 1.489 . S
C807 C808 1.383 1_565 S
C807 C812 1.382 . S
C808 H785 0.950 . S
C808 C807 1.383 1_545 S
C808 C809 1.395 . S
C809 H786 0.950 . S
C809 C808 1.395 . S
C809 C810 1.288 1_545 S
C810 C809 1.288 1_565 S
C810 C811 1.392 . S
C811 H787 0.951 . S
C811 C810 1.392 . S
C811 C812 1.392 . S
C812 H788 0.949 . S
C812 C807 1.382 . S
C812 C811 1.392 . S
C813 C814 1.376 . S
C813 C818 1.386 1_565 S
C813 C819 1.483 . S
C814 H789 0.949 . S
C814 C813 1.376 . S
C814 C815 1.397 . S
C815 H790 0.950 . S
C815 C814 1.397 . S
C815 C816 1.391 . S
C816 C815 1.391 . S
C816 C817 1.405 1_565 S
C817 H791 0.950 . S
C817 C816 1.405 1_545 S
C817 C818 1.367 . S
C818 H792 0.950 . S
C818 C813 1.386 1_545 S
C818 C817 1.367 . S
C819 C813 1.483 . S
C819 C820 1.382 . S
C819 C821 1.403 1_565 S
C820 H793 0.950 . S
C820 C806 1.411 . S
C820 C819 1.382 . S
C821 C805 1.411 . S
C821 C819 1.403 1_545 S
C821 C822 1.489 . S
C822 C821 1.489 . S
C822 C823 1.383 1_545 S
C822 C827 1.382 . S
C823 H794 0.950 . S
C823 C822 1.383 1_565 S
C823 C824 1.395 . S
C824 H795 0.950 . S
C824 C823 1.395 . S
C824 C825 1.288 1_565 S
C825 C824 1.288 1_545 S
C825 C826 1.392 . S
C826 H796 0.951 . S
C826 C825 1.392 . S
C826 C827 1.392 . S
C827 H797 0.949 . S
C827 C822 1.382 . S
C827 C826 1.392 . S
H828 C847 0.949 . S
H829 C848 0.950 . S
H830 C850 0.950 . S
H831 C851 0.950 . S
H832 C853 0.950 . S
H833 C856 0.950 . S
H834 C857 0.950 . S
H835 C859 0.951 . S
H836 C860 0.949 . S
H837 C862 0.949 . S
H838 C863 0.950 . S
H839 C865 0.950 . S
H840 C866 0.950 . S
H841 C868 0.950 . S
H842 C871 0.950 . S
H843 C872 0.950 . S
H844 C874 0.951 . S
H845 C875 0.949 . S
C846 C847 1.407 . S
C846 C851 1.373 1_545 S
C846 C852 1.465 . S
C847 H828 0.949 . S
C847 C846 1.407 . S
C847 C848 1.397 . S
C848 H829 0.950 . S
C848 C847 1.397 . S
C848 C849 1.391 1_545 S
C849 C848 1.391 1_565 S
C849 C850 1.405 . S
C850 H830 0.950 . S
C850 C849 1.405 . S
C850 C851 1.367 . S
C851 H831 0.950 . S
C851 C846 1.373 1_565 S
C851 C850 1.367 . S
C852 C846 1.465 . S
C852 C853 1.382 . S
C852 C854 1.400 1_545 S
C853 H832 0.950 . S
C853 C852 1.382 . S
C853 C869 1.437 . S
C854 C852 1.400 1_565 S
C854 C855 1.476 . S
C854 C868 1.430 . S
C855 C854 1.476 . S
C855 C856 1.377 1_565 S
C855 C860 1.384 . S
C856 H833 0.950 . S
C856 C855 1.377 1_545 S
C856 C857 1.395 . S
C857 H834 0.950 . S
C857 C856 1.395 . S
C857 C858 1.288 . S
C858 C857 1.288 . S
C858 C859 1.392 1_545 S
C859 H835 0.951 . S
C859 C858 1.392 1_565 S
C859 C860 1.392 . S
C860 H836 0.949 . S
C860 C855 1.384 . S
C860 C859 1.392 . S
C861 C862 1.397 . S
C861 C866 1.377 1_565 S
C861 C867 1.471 . S
C862 H837 0.949 . S
C862 C861 1.397 . S
C862 C863 1.397 . S
C863 H838 0.950 . S
C863 C862 1.397 . S
C863 C864 1.391 1_565 S
C864 C863 1.391 1_545 S
C864 C865 1.405 . S
C865 H839 0.950 . S
C865 C864 1.405 . S
C865 C866 1.367 . S
C866 H840 0.950 . S
C866 C861 1.377 1_545 S
C866 C865 1.367 . S
C867 C861 1.471 . S
C867 C868 1.382 . S
C867 C869 1.400 1_565 S
C868 H841 0.950 . S
C868 C854 1.430 . S
C868 C867 1.382 . S
C869 C853 1.437 . S
C869 C867 1.400 1_545 S
C869 C870 1.476 . S
C870 C869 1.476 . S
C870 C871 1.364 1_545 S
C870 C875 1.392 . S
C871 H842 0.950 . S
C871 C870 1.364 1_565 S
C871 C872 1.395 . S
C872 H843 0.950 . S
C872 C871 1.395 . S
C872 C873 1.288 . S
C873 C872 1.288 . S
C873 C874 1.392 1_565 S
C874 H844 0.951 . S
C874 C873 1.392 1_545 S
C874 C875 1.392 . S
C875 H845 0.949 . S
C875 C870 1.392 . S
C875 C874 1.392 . S
H876 C895 0.949 . S
H877 C896 0.950 . S
H878 C898 0.950 . S
H879 C899 0.950 . S
H880 C901 0.950 . S
H881 C904 0.950 . S
H882 C905 0.950 . S
H883 C907 0.951 . S
H884 C908 0.949 . S
H885 C910 0.949 . S
H886 C911 0.950 . S
H887 C913 0.950 . S
H888 C914 0.950 . S
H889 C916 0.950 . S
H890 C919 0.950 . S
H891 C920 0.950 . S
H892 C922 0.951 . S
H893 C923 0.949 . S
C894 C895 1.376 . S
C894 C899 1.386 1_455 S
C894 C900 1.483 . S
C895 H876 0.949 . S
C895 C894 1.376 . S
C895 C896 1.397 . S
C896 H877 0.950 . S
C896 C895 1.397 . S
C896 C897 1.391 . S
C897 C896 1.391 . S
C897 C898 1.405 1_455 S
C898 H878 0.950 . S
C898 C897 1.405 1_655 S
C898 C899 1.367 . S
C899 H879 0.950 . S
C899 C894 1.386 1_655 S
C899 C898 1.367 . S
C900 C894 1.483 . S
C900 C901 1.382 . S
C900 C902 1.403 1_455 S
C901 H880 0.950 . S
C901 C900 1.382 . S
C901 C917 1.411 . S
C902 C900 1.403 1_655 S
C902 C903 1.489 . S
C902 C916 1.411 . S
C903 C902 1.489 . S
C903 C904 1.383 1_655 S
C903 C908 1.382 . S
C904 H881 0.950 . S
C904 C903 1.383 1_455 S
C904 C905 1.395 . S
C905 H882 0.950 . S
C905 C904 1.395 . S
C905 C906 1.288 1_455 S
C906 C905 1.288 1_655 S
C906 C907 1.392 . S
C907 H883 0.951 . S
C907 C906 1.392 . S
C907 C908 1.392 . S
C908 H884 0.949 . S
C908 C903 1.382 . S
C908 C907 1.392 . S
C909 C910 1.376 . S
C909 C914 1.386 1_655 S
C909 C915 1.483 . S
C910 H885 0.949 . S
C910 C909 1.376 . S
C910 C911 1.397 . S
C911 H886 0.950 . S
C911 C910 1.397 . S
C911 C912 1.391 . S
C912 C911 1.391 . S
C912 C913 1.405 1_655 S
C913 H887 0.950 . S
C913 C912 1.405 1_455 S
C913 C914 1.367 . S
C914 H888 0.950 . S
C914 C909 1.386 1_455 S
C914 C913 1.367 . S
C915 C909 1.483 . S
C915 C916 1.382 . S
C915 C917 1.403 1_655 S
C916 H889 0.950 . S
C916 C902 1.411 . S
C916 C915 1.382 . S
C917 C901 1.411 . S
C917 C915 1.403 1_455 S
C917 C918 1.489 . S
C918 C917 1.489 . S
C918 C919 1.383 1_455 S
C918 C923 1.382 . S
C919 H890 0.950 . S
C919 C918 1.383 1_655 S
C919 C920 1.395 . S
C920 H891 0.950 . S
C920 C919 1.395 . S
C920 C921 1.288 1_655 S
C921 C920 1.288 1_455 S
C921 C922 1.392 . S
C922 H892 0.951 . S
C922 C921 1.392 . S
C922 C923 1.392 . S
C923 H893 0.949 . S
C923 C918 1.382 . S
C923 C922 1.392 . S
H924 C943 0.949 . S
H925 C944 0.950 . S
H926 C946 0.950 . S
H927 C947 0.950 . S
H928 C949 0.950 . S
H929 C952 0.950 . S
H930 C953 0.950 . S
H931 C955 0.951 . S
H932 C956 0.949 . S
H933 C958 0.949 . S
H934 C959 0.950 . S
H935 C961 0.950 . S
H936 C962 0.950 . S
H937 C964 0.950 . S
H938 C967 0.950 . S
H939 C968 0.950 . S
H940 C970 0.951 . S
H941 C971 0.949 . S
C942 C943 1.376 . S
C942 C947 1.386 . S
C942 C948 1.483 . S
C943 H924 0.949 . S
C943 C942 1.376 . S
C943 C944 1.397 . S
C944 H925 0.950 . S
C944 C943 1.397 . S
C944 C945 1.391 . S
C945 C944 1.391 . S
C945 C946 1.405 . S
C946 H926 0.950 . S
C946 C945 1.405 . S
C946 C947 1.367 . S
C947 H927 0.950 . S
C947 C942 1.386 . S
C947 C946 1.367 . S
C948 C942 1.483 . S
C948 C949 1.382 . S
C948 C950 1.403 . S
C949 H928 0.950 . S
C949 C948 1.382 . S
C949 C965 1.411 . S
C950 C948 1.403 . S
C950 C951 1.489 . S
C950 C964 1.411 . S
C951 C950 1.489 . S
C951 C952 1.383 . S
C951 C956 1.382 . S
C952 H929 0.950 . S
C952 C951 1.383 . S
C952 C953 1.395 . S
C953 H930 0.950 . S
C953 C952 1.395 . S
C953 C954 1.288 . S
C954 C953 1.288 . S
C954 C955 1.392 . S
C955 H931 0.951 . S
C955 C954 1.392 . S
C955 C956 1.392 . S
C956 H932 0.949 . S
C956 C951 1.382 . S
C956 C955 1.392 . S
C957 C958 1.376 . S
C957 C962 1.386 . S
C957 C963 1.483 . S
C958 H933 0.949 . S
C958 C957 1.376 . S
C958 C959 1.397 . S
C959 H934 0.950 . S
C959 C958 1.397 . S
C959 C960 1.391 . S
C960 C959 1.391 . S
C960 C961 1.405 . S
C961 H935 0.950 . S
C961 C960 1.405 . S
C961 C962 1.367 . S
C962 H936 0.950 . S
C962 C957 1.386 . S
C962 C961 1.367 . S
C963 C957 1.483 . S
C963 C964 1.382 . S
C963 C965 1.403 . S
C964 H937 0.950 . S
C964 C950 1.411 . S
C964 C963 1.382 . S
C965 C949 1.411 . S
C965 C963 1.403 . S
C965 C966 1.489 . S
C966 C965 1.489 . S
C966 C967 1.383 . S
C966 C971 1.382 . S
C967 H938 0.950 . S
C967 C966 1.383 . S
C967 C968 1.395 . S
C968 H939 0.950 . S
C968 C967 1.395 . S
C968 C969 1.288 . S
C969 C968 1.288 . S
C969 C970 1.392 . S
C970 H940 0.951 . S
C970 C969 1.392 . S
C970 C971 1.392 . S
C971 H941 0.949 . S
C971 C966 1.382 . S
C971 C970 1.392 . S
H972 C991 0.949 . S
H973 C992 0.950 . S
H974 C994 0.950 . S
H975 C995 0.950 . S
H976 C997 0.950 . S
H977 C1000 0.950 . S
H978 C1001 0.950 . S
H979 C1003 0.951 . S
H980 C1004 0.949 . S
H981 C1006 0.949 . S
H982 C1007 0.950 . S
H983 C1009 0.950 . S
H984 C1010 0.950 . S
H985 C1012 0.950 . S
H986 C1015 0.950 . S
H987 C1016 0.950 . S
H988 C1018 0.951 . S
H989 C1019 0.949 . S
C990 C991 1.376 . S
C990 C995 1.386 . S
C990 C996 1.483 . S
C991 H972 0.949 . S
C991 C990 1.376 . S
C991 C992 1.397 . S
C992 H973 0.950 . S
C992 C991 1.397 . S
C992 C993 1.391 . S
C993 C992 1.391 . S
C993 C994 1.405 . S
C994 H974 0.950 . S
C994 C993 1.405 . S
C994 C995 1.367 . S
C995 H975 0.950 . S
C995 C990 1.386 . S
C995 C994 1.367 . S
C996 C990 1.483 . S
C996 C997 1.382 . S
C996 C998 1.403 . S
C997 H976 0.950 . S
C997 C996 1.382 . S
C997 C1013 1.411 . S
C998 C996 1.403 . S
C998 C999 1.489 . S
C998 C1012 1.411 . S
C999 C998 1.489 . S
C999 C1000 1.383 . S
C999 C1004 1.382 . S
C1000 H977 0.950 . S
C1000 C999 1.383 . S
C1000 C1001 1.395 . S
C1001 H978 0.950 . S
C1001 C1000 1.395 . S
C1001 C1002 1.288 . S
C1002 C1001 1.288 . S
C1002 C1003 1.392 . S
C1003 H979 0.951 . S
C1003 C1002 1.392 . S
C1003 C1004 1.392 . S
C1004 H980 0.949 . S
C1004 C999 1.382 . S
C1004 C1003 1.392 . S
C1005 C1006 1.376 . S
C1005 C1010 1.386 . S
C1005 C1011 1.483 . S
C1006 H981 0.949 . S
C1006 C1005 1.376 . S
C1006 C1007 1.397 . S
C1007 H982 0.950 . S
C1007 C1006 1.397 . S
C1007 C1008 1.391 . S
C1008 C1007 1.391 . S
C1008 C1009 1.405 . S
C1009 H983 0.950 . S
C1009 C1008 1.405 . S
C1009 C1010 1.367 . S
C1010 H984 0.950 . S
C1010 C1005 1.386 . S
C1010 C1009 1.367 . S
C1011 C1005 1.483 . S
C1011 C1012 1.382 . S
C1011 C1013 1.403 . S
C1012 H985 0.950 . S
C1012 C998 1.411 . S
C1012 C1011 1.382 . S
C1013 C997 1.411 . S
C1013 C1011 1.403 . S
C1013 C1014 1.489 . S
C1014 C1013 1.489 . S
C1014 C1015 1.383 . S
C1014 C1019 1.382 . S
C1015 H986 0.950 . S
C1015 C1014 1.383 . S
C1015 C1016 1.395 . S
C1016 H987 0.950 . S
C1016 C1015 1.395 . S
C1016 C1017 1.288 . S
C1017 C1016 1.288 . S
C1017 C1018 1.392 . S
C1018 H988 0.951 . S
C1018 C1017 1.392 . S
C1018 C1019 1.392 . S
C1019 H989 0.949 . S
C1019 C1014 1.382 . S
C1019 C1018 1.392 . S
H1020 C1039 0.949 . S
H1021 C1040 0.950 . S
H1022 C1042 0.950 . S
H1023 C1043 0.950 . S
H1024 C1045 0.950 . S
H1025 C1048 0.950 . S
H1026 C1049 0.950 . S
H1027 C1051 0.951 . S
H1028 C1052 0.949 . S
H1029 C1054 0.949 . S
H1030 C1055 0.950 . S
H1031 C1057 0.950 . S
H1032 C1058 0.950 . S
H1033 C1060 0.950 . S
H1034 C1063 0.950 . S
H1035 C1064 0.950 . S
H1036 C1066 0.951 . S
H1037 C1067 0.949 . S
C1038 C1039 1.376 . S
C1038 C1043 1.386 . S
C1038 C1044 1.483 . S
C1039 H1020 0.949 . S
C1039 C1038 1.376 . S
C1039 C1040 1.397 . S
C1040 H1021 0.950 . S
C1040 C1039 1.397 . S
C1040 C1041 1.391 . S
C1041 C1040 1.391 . S
C1041 C1042 1.405 . S
C1042 H1022 0.950 . S
C1042 C1041 1.405 . S
C1042 C1043 1.367 . S
C1043 H1023 0.950 . S
C1043 C1038 1.386 . S
C1043 C1042 1.367 . S
C1044 C1038 1.483 . S
C1044 C1045 1.382 . S
C1044 C1046 1.403 . S
C1045 H1024 0.950 . S
C1045 C1044 1.382 . S
C1045 C1061 1.411 . S
C1046 C1044 1.403 . S
C1046 C1047 1.489 . S
C1046 C1060 1.411 . S
C1047 C1046 1.489 . S
C1047 C1048 1.383 . S
C1047 C1052 1.382 . S
C1048 H1025 0.950 . S
C1048 C1047 1.383 . S
C1048 C1049 1.395 . S
C1049 H1026 0.950 . S
C1049 C1048 1.395 . S
C1049 C1050 1.288 . S
C1050 C1049 1.288 . S
C1050 C1051 1.392 . S
C1051 H1027 0.951 . S
C1051 C1050 1.392 . S
C1051 C1052 1.392 . S
C1052 H1028 0.949 . S
C1052 C1047 1.382 . S
C1052 C1051 1.392 . S
C1053 C1054 1.376 . S
C1053 C1058 1.386 . S
C1053 C1059 1.483 . S
C1054 H1029 0.949 . S
C1054 C1053 1.376 . S
C1054 C1055 1.397 . S
C1055 H1030 0.950 . S
C1055 C1054 1.397 . S
C1055 C1056 1.391 . S
C1056 C1055 1.391 . S
C1056 C1057 1.405 . S
C1057 H1031 0.950 . S
C1057 C1056 1.405 . S
C1057 C1058 1.367 . S
C1058 H1032 0.950 . S
C1058 C1053 1.386 . S
C1058 C1057 1.367 . S
C1059 C1053 1.483 . S
C1059 C1060 1.382 . S
C1059 C1061 1.403 . S
C1060 H1033 0.950 . S
C1060 C1046 1.411 . S
C1060 C1059 1.382 . S
C1061 C1045 1.411 . S
C1061 C1059 1.403 . S
C1061 C1062 1.489 . S
C1062 C1061 1.489 . S
C1062 C1063 1.383 . S
C1062 C1067 1.382 . S
C1063 H1034 0.950 . S
C1063 C1062 1.383 . S
C1063 C1064 1.395 . S
C1064 H1035 0.950 . S
C1064 C1063 1.395 . S
C1064 C1065 1.288 . S
C1065 C1064 1.288 . S
C1065 C1066 1.392 . S
C1066 H1036 0.951 . S
C1066 C1065 1.392 . S
C1066 C1067 1.392 . S
C1067 H1037 0.949 . S
C1067 C1062 1.382 . S
C1067 C1066 1.392 . S
H1068 C1087 0.949 . S
H1069 C1088 0.950 . S
H1070 C1090 0.950 . S
H1071 C1091 0.950 . S
H1072 C1093 0.950 . S
H1073 C1096 0.950 . S
H1074 C1097 0.950 . S
H1075 C1099 0.951 . S
H1076 C1100 0.949 . S
H1077 C1102 0.949 . S
H1078 C1103 0.950 . S
H1079 C1105 0.950 . S
H1080 C1106 0.950 . S
H1081 C1108 0.950 . S
H1082 C1111 0.950 . S
H1083 C1112 0.950 . S
H1084 C1114 0.951 . S
H1085 C1115 0.949 . S
C1086 C1087 1.376 . S
C1086 C1091 1.386 . S
C1086 C1092 1.483 . S
C1087 H1068 0.949 . S
C1087 C1086 1.376 . S
C1087 C1088 1.397 . S
C1088 H1069 0.950 . S
C1088 C1087 1.397 . S
C1088 C1089 1.391 . S
C1089 C1088 1.391 . S
C1089 C1090 1.405 . S
C1090 H1070 0.950 . S
C1090 C1089 1.405 . S
C1090 C1091 1.367 . S
C1091 H1071 0.950 . S
C1091 C1086 1.386 . S
C1091 C1090 1.367 . S
C1092 C1086 1.483 . S
C1092 C1093 1.382 . S
C1092 C1094 1.403 . S
C1093 H1072 0.950 . S
C1093 C1092 1.382 . S
C1093 C1109 1.411 . S
C1094 C1092 1.403 . S
C1094 C1095 1.489 . S
C1094 C1108 1.411 . S
C1095 C1094 1.489 . S
C1095 C1096 1.383 . S
C1095 C1100 1.382 . S
C1096 H1073 0.950 . S
C1096 C1095 1.383 . S
C1096 C1097 1.395 . S
C1097 H1074 0.950 . S
C1097 C1096 1.395 . S
C1097 C1098 1.288 . S
C1098 C1097 1.288 . S
C1098 C1099 1.392 . S
C1099 H1075 0.951 . S
C1099 C1098 1.392 . S
C1099 C1100 1.392 . S
C1100 H1076 0.949 . S
C1100 C1095 1.382 . S
C1100 C1099 1.392 . S
C1101 C1102 1.376 . S
C1101 C1106 1.386 . S
C1101 C1107 1.483 . S
C1102 H1077 0.949 . S
C1102 C1101 1.376 . S
C1102 C1103 1.397 . S
C1103 H1078 0.950 . S
C1103 C1102 1.397 . S
C1103 C1104 1.391 . S
C1104 C1103 1.391 . S
C1104 C1105 1.405 . S
C1105 H1079 0.950 . S
C1105 C1104 1.405 . S
C1105 C1106 1.367 . S
C1106 H1080 0.950 . S
C1106 C1101 1.386 . S
C1106 C1105 1.367 . S
C1107 C1101 1.483 . S
C1107 C1108 1.382 . S
C1107 C1109 1.403 . S
C1108 H1081 0.950 . S
C1108 C1094 1.411 . S
C1108 C1107 1.382 . S
C1109 C1093 1.411 . S
C1109 C1107 1.403 . S
C1109 C1110 1.489 . S
C1110 C1109 1.489 . S
C1110 C1111 1.383 . S
C1110 C1115 1.382 . S
C1111 H1082 0.950 . S
C1111 C1110 1.383 . S
C1111 C1112 1.395 . S
C1112 H1083 0.950 . S
C1112 C1111 1.395 . S
C1112 C1113 1.288 . S
C1113 C1112 1.288 . S
C1113 C1114 1.392 . S
C1114 H1084 0.951 . S
C1114 C1113 1.392 . S
C1114 C1115 1.392 . S
C1115 H1085 0.949 . S
C1115 C1110 1.382 . S
C1115 C1114 1.392 . S
C1116 C1117 1.387 . S
C1116 H1120 0.950 . S
C1116 C1125 1.390 . S
C1117 C1116 1.387 . S
C1117 C1119 1.387 1_655 S
H1118 C1125 0.950 . S
C1119 C1117 1.387 1_455 S
C1119 C1121 1.390 . S
C1119 H1123 0.950 . S
H1120 C1116 0.950 . S
C1121 C1119 1.390 . S
C1121 C1122 1.387 1_455 S
C1121 H1124 0.950 . S
C1122 C1121 1.387 1_655 S
C1122 C1125 1.387 . S
H1123 C1119 0.950 . S
H1124 C1121 0.950 . S
C1125 C1116 1.390 . S
C1125 H1118 0.950 . S
C1125 C1122 1.387 . S
C1126 C1127 1.387 . S
C1126 H1130 0.950 . S
C1126 C1135 1.390 . S
C1127 C1126 1.387 . S
C1127 C1129 1.387 . S
H1128 C1135 0.950 . S
C1129 C1127 1.387 . S
C1129 C1131 1.390 . S
C1129 H1133 0.950 . S
H1130 C1126 0.950 . S
C1131 C1129 1.390 . S
C1131 C1132 1.387 . S
C1131 H1134 0.950 . S
C1132 C1131 1.387 . S
C1132 C1135 1.387 . S
H1133 C1129 0.950 . S
H1134 C1131 0.950 . S
C1135 C1126 1.390 . S
C1135 H1128 0.950 . S
C1135 C1132 1.387 . S
C1136 C1137 1.387 . S
C1136 H1140 0.950 . S
C1136 C1145 1.390 . S
C1137 C1136 1.387 . S
C1137 C1139 1.387 1_545 S
H1138 C1145 0.950 . S
C1139 C1137 1.387 1_565 S
C1139 C1141 1.390 . S
C1139 H1143 0.950 . S
H1140 C1136 0.950 . S
C1141 C1139 1.390 . S
C1141 C1142 1.387 1_565 S
C1141 H1144 0.950 . S
C1142 C1141 1.387 1_545 S
C1142 C1145 1.387 . S
H1143 C1139 0.950 . S
H1144 C1141 0.950 . S
C1145 C1136 1.390 . S
C1145 H1138 0.950 . S
C1145 C1142 1.387 . S
C1146 C1147 1.387 1_545 S
C1146 H1150 0.950 . S
C1146 C1155 1.390 . S
C1147 C1146 1.387 1_565 S
C1147 C1149 1.387 . S
H1148 C1155 0.950 . S
C1149 C1147 1.387 . S
C1149 C1151 1.390 . S
C1149 H1153 0.950 . S
H1150 C1146 0.950 . S
C1151 C1149 1.390 . S
C1151 C1152 1.387 . S
C1151 H1154 0.950 . S
C1152 C1151 1.387 . S
C1152 C1155 1.387 1_565 S
H1153 C1149 0.950 . S
H1154 C1151 0.950 . S
C1155 C1146 1.390 . S
C1155 H1148 0.950 . S
C1155 C1152 1.387 1_545 S
C1156 C1157 1.387 . S
C1156 H1160 0.950 . S
C1156 C1165 1.390 . S
C1157 C1156 1.387 . S
C1157 C1159 1.387 1_455 S
H1158 C1165 0.950 . S
C1159 C1157 1.387 1_655 S
C1159 C1161 1.390 . S
C1159 H1163 0.950 . S
H1160 C1156 0.950 . S
C1161 C1159 1.390 . S
C1161 C1162 1.387 1_655 S
C1161 H1164 0.950 . S
C1162 C1161 1.387 1_455 S
C1162 C1165 1.387 . S
H1163 C1159 0.950 . S
H1164 C1161 0.950 . S
C1165 C1156 1.390 . S
C1165 H1158 0.950 . S
C1165 C1162 1.387 . S
C1166 C1167 1.387 . S
C1166 H1170 0.950 . S
C1166 C1175 1.390 . S
C1167 C1166 1.387 . S
C1167 C1169 1.387 . S
H1168 C1175 0.950 . S
C1169 C1167 1.387 . S
C1169 C1171 1.390 . S
C1169 H1173 0.950 . S
H1170 C1166 0.950 . S
C1171 C1169 1.390 . S
C1171 C1172 1.387 . S
C1171 H1174 0.950 . S
C1172 C1171 1.387 . S
C1172 C1175 1.387 . S
H1173 C1169 0.950 . S
H1174 C1171 0.950 . S
C1175 C1166 1.390 . S
C1175 H1168 0.950 . S
C1175 C1172 1.387 . S
C1176 C1177 1.387 . S
C1176 H1180 0.950 . S
C1176 C1185 1.390 . S
C1177 C1176 1.387 . S
C1177 C1179 1.387 1_455 S
H1178 C1185 0.950 . S
C1179 C1177 1.387 1_655 S
C1179 C1181 1.390 . S
C1179 H1183 0.950 . S
H1180 C1176 0.950 . S
C1181 C1179 1.390 . S
C1181 C1182 1.387 1_655 S
C1181 H1184 0.950 . S
C1182 C1181 1.387 1_455 S
C1182 C1185 1.387 . S
H1183 C1179 0.950 . S
H1184 C1181 0.950 . S
C1185 C1176 1.390 . S
C1185 H1178 0.950 . S
C1185 C1182 1.387 . S
C1186 C1187 1.387 . S
C1186 H1190 0.950 . S
C1186 C1195 1.390 . S
C1187 C1186 1.387 . S
C1187 C1189 1.387 . S
H1188 C1195 0.950 . S
C1189 C1187 1.387 . S
C1189 C1191 1.390 . S
C1189 H1193 0.950 . S
H1190 C1186 0.950 . S
C1191 C1189 1.390 . S
C1191 C1192 1.387 . S
C1191 H1194 0.950 . S
C1192 C1191 1.387 . S
C1192 C1195 1.387 . S
H1193 C1189 0.950 . S
H1194 C1191 0.950 . S
C1195 C1186 1.390 . S
C1195 H1188 0.950 . S
C1195 C1192 1.387 . S
C1196 C1197 1.387 1_545 S
C1196 H1200 0.950 . S
C1196 C1205 1.390 . S
C1197 C1196 1.387 1_565 S
C1197 C1199 1.387 . S
H1198 C1205 0.950 . S
C1199 C1197 1.387 . S
C1199 C1201 1.390 . S
C1199 H1203 0.950 . S
H1200 C1196 0.950 . S
C1201 C1199 1.390 . S
C1201 C1202 1.387 . S
C1201 H1204 0.950 . S
C1202 C1201 1.387 . S
C1202 C1205 1.387 1_565 S
H1203 C1199 0.950 . S
H1204 C1201 0.950 . S
C1205 C1196 1.390 . S
C1205 H1198 0.950 . S
C1205 C1202 1.387 1_545 S
C1206 C1207 1.387 . S
C1206 H1210 0.950 . S
C1206 C1215 1.390 . S
C1207 C1206 1.387 . S
C1207 C1209 1.387 1_545 S
H1208 C1215 0.950 . S
C1209 C1207 1.387 1_565 S
C1209 C1211 1.390 . S
C1209 H1213 0.950 . S
H1210 C1206 0.950 . S
C1211 C1209 1.390 . S
C1211 C1212 1.387 1_565 S
C1211 H1214 0.950 . S
C1212 C1211 1.387 1_545 S
C1212 C1215 1.387 . S
H1213 C1209 0.950 . S
H1214 C1211 0.950 . S
C1215 C1206 1.390 . S
C1215 H1208 0.950 . S
C1215 C1212 1.387 . S
C1216 C1217 1.387 . S
C1216 H1220 0.950 . S
C1216 C1225 1.390 . S
C1217 C1216 1.387 . S
C1217 C1219 1.387 . S
H1218 C1225 0.950 . S
C1219 C1217 1.387 . S
C1219 C1221 1.390 . S
C1219 H1223 0.950 . S
H1220 C1216 0.950 . S
C1221 C1219 1.390 . S
C1221 C1222 1.387 . S
C1221 H1224 0.950 . S
C1222 C1221 1.387 . S
C1222 C1225 1.387 . S
H1223 C1219 0.950 . S
H1224 C1221 0.950 . S
C1225 C1216 1.390 . S
C1225 H1218 0.950 . S
C1225 C1222 1.387 . S
C1226 C1227 1.387 . S
C1226 H1230 0.950 . S
C1226 C1235 1.390 . S
C1227 C1226 1.387 . S
C1227 C1229 1.387 . S
H1228 C1235 0.950 . S
C1229 C1227 1.387 . S
C1229 C1231 1.390 . S
C1229 H1233 0.950 . S
H1230 C1226 0.950 . S
C1231 C1229 1.390 . S
C1231 C1232 1.387 . S
C1231 H1234 0.950 . S
C1232 C1231 1.387 . S
C1232 C1235 1.387 . S
H1233 C1229 0.950 . S
H1234 C1231 0.950 . S
C1235 C1226 1.390 . S
C1235 H1228 0.950 . S
C1235 C1232 1.387 . S
C1236 C1237 1.387 . S
C1236 H1240 0.950 . S
C1236 C1245 1.390 . S
C1237 C1236 1.387 . S
C1237 C1239 1.387 . S
H1238 C1245 0.950 . S
C1239 C1237 1.387 . S
C1239 C1241 1.390 . S
C1239 H1243 0.950 . S
H1240 C1236 0.950 . S
C1241 C1239 1.390 . S
C1241 C1242 1.387 . S
C1241 H1244 0.950 . S
C1242 C1241 1.387 . S
C1242 C1245 1.387 . S
H1243 C1239 0.950 . S
H1244 C1241 0.950 . S
C1245 C1236 1.390 . S
C1245 H1238 0.950 . S
C1245 C1242 1.387 . S
C1246 C1247 1.387 . S
C1246 H1250 0.950 . S
C1246 C1255 1.390 . S
C1247 C1246 1.387 . S
C1247 C1249 1.387 . S
H1248 C1255 0.950 . S
C1249 C1247 1.387 . S
C1249 C1251 1.390 . S
C1249 H1253 0.950 . S
H1250 C1246 0.950 . S
C1251 C1249 1.390 . S
C1251 C1252 1.387 . S
C1251 H1254 0.950 . S
C1252 C1251 1.387 . S
C1252 C1255 1.387 . S
H1253 C1249 0.950 . S
H1254 C1251 0.950 . S
C1255 C1246 1.390 . S
C1255 H1248 0.950 . S
C1255 C1252 1.387 . S
C1256 C1257 1.387 . S
C1256 H1260 0.950 . S
C1256 C1265 1.390 . S
C1257 C1256 1.387 . S
C1257 C1259 1.387 . S
H1258 C1265 0.950 . S
C1259 C1257 1.387 . S
C1259 C1261 1.390 . S
C1259 H1263 0.950 . S
H1260 C1256 0.950 . S
C1261 C1259 1.390 . S
C1261 C1262 1.387 . S
C1261 H1264 0.950 . S
C1262 C1261 1.387 . S
C1262 C1265 1.387 . S
H1263 C1259 0.950 . S
H1264 C1261 0.950 . S
C1265 C1256 1.390 . S
C1265 H1258 0.950 . S
C1265 C1262 1.387 . S
C1266 C1267 1.387 . S
C1266 H1270 0.950 . S
C1266 C1275 1.390 . S
C1267 C1266 1.387 . S
C1267 C1269 1.387 . S
H1268 C1275 0.950 . S
C1269 C1267 1.387 . S
C1269 C1271 1.390 . S
C1269 H1273 0.950 . S
H1270 C1266 0.950 . S
C1271 C1269 1.390 . S
C1271 C1272 1.387 . S
C1271 H1274 0.950 . S
C1272 C1271 1.387 . S
C1272 C1275 1.387 . S
H1273 C1269 0.950 . S
H1274 C1271 0.950 . S
C1275 C1266 1.390 . S
C1275 H1268 0.950 . S
C1275 C1272 1.387 . S
C1276 C1277 1.387 . S
C1276 H1280 0.950 . S
C1276 C1285 1.390 . S
C1277 C1276 1.387 . S
C1277 C1279 1.387 . S
H1278 C1285 0.950 . S
C1279 C1277 1.387 . S
C1279 C1281 1.390 . S
C1279 H1283 0.950 . S
H1280 C1276 0.950 . S
C1281 C1279 1.390 . S
C1281 C1282 1.387 . S
C1281 H1284 0.950 . S
C1282 C1281 1.387 . S
C1282 C1285 1.387 . S
H1283 C1279 0.950 . S
H1284 C1281 0.950 . S
C1285 C1276 1.390 . S
C1285 H1278 0.950 . S
C1285 C1282 1.387 . S
C1286 C1287 1.387 . S
C1286 H1290 0.950 . S
C1286 C1295 1.390 . S
C1287 C1286 1.387 . S
C1287 C1289 1.387 . S
H1288 C1295 0.950 . S
C1289 C1287 1.387 . S
C1289 C1291 1.390 . S
C1289 H1293 0.950 . S
H1290 C1286 0.950 . S
C1291 C1289 1.390 . S
C1291 C1292 1.387 . S
C1291 H1294 0.950 . S
C1292 C1291 1.387 . S
C1292 C1295 1.387 . S
H1293 C1289 0.950 . S
H1294 C1291 0.950 . S
C1295 C1286 1.390 . S
C1295 H1288 0.950 . S
C1295 C1292 1.387 . S
C1296 C1297 1.387 . S
C1296 H1300 0.950 . S
C1296 C1305 1.390 . S
C1297 C1296 1.387 . S
C1297 C1299 1.387 . S
H1298 C1305 0.950 . S
C1299 C1297 1.387 . S
C1299 C1301 1.390 . S
C1299 H1303 0.950 . S
H1300 C1296 0.950 . S
C1301 C1299 1.390 . S
C1301 C1302 1.387 . S
C1301 H1304 0.950 . S
C1302 C1301 1.387 . S
C1302 C1305 1.387 . S
H1303 C1299 0.950 . S
H1304 C1301 0.950 . S
C1305 C1296 1.390 . S
C1305 H1298 0.950 . S
C1305 C1302 1.387 . S
C1306 C1307 1.387 . S
C1306 H1310 0.950 . S
C1306 C1315 1.390 . S
C1307 C1306 1.387 . S
C1307 C1309 1.387 . S
H1308 C1315 0.950 . S
C1309 C1307 1.387 . S
C1309 C1311 1.390 . S
C1309 H1313 0.950 . S
H1310 C1306 0.950 . S
C1311 C1309 1.390 . S
C1311 C1312 1.387 . S
C1311 H1314 0.950 . S
C1312 C1311 1.387 . S
C1312 C1315 1.387 . S
H1313 C1309 0.950 . S
H1314 C1311 0.950 . S
C1315 C1306 1.390 . S
C1315 H1308 0.950 . S
C1315 C1312 1.387 . S
C1316 C1317 1.387 . S
C1316 H1320 0.950 . S
C1316 C1325 1.390 . S
C1317 C1316 1.387 . S
C1317 C1319 1.387 . S
H1318 C1325 0.950 . S
C1319 C1317 1.387 . S
C1319 C1321 1.390 . S
C1319 H1323 0.950 . S
H1320 C1316 0.950 . S
C1321 C1319 1.390 . S
C1321 C1322 1.387 . S
C1321 H1324 0.950 . S
C1322 C1321 1.387 . S
C1322 C1325 1.387 . S
H1323 C1319 0.950 . S
H1324 C1321 0.950 . S
C1325 C1316 1.390 . S
C1325 H1318 0.950 . S
C1325 C1322 1.387 . S
C1326 C1327 1.387 . S
C1326 H1330 0.950 . S
C1326 C1335 1.390 . S
C1327 C1326 1.387 . S
C1327 C1329 1.387 . S
H1328 C1335 0.950 . S
C1329 C1327 1.387 . S
C1329 C1331 1.390 . S
C1329 H1333 0.950 . S
H1330 C1326 0.950 . S
C1331 C1329 1.390 . S
C1331 C1332 1.387 . S
C1331 H1334 0.950 . S
C1332 C1331 1.387 . S
C1332 C1335 1.387 . S
H1333 C1329 0.950 . S
H1334 C1331 0.950 . S
C1335 C1326 1.390 . S
C1335 H1328 0.950 . S
C1335 C1332 1.387 . S
C1336 C1337 1.387 . S
C1336 H1340 0.950 . S
C1336 C1345 1.390 . S
C1337 C1336 1.387 . S
C1337 C1339 1.387 . S
H1338 C1345 0.950 . S
C1339 C1337 1.387 . S
C1339 C1341 1.390 . S
C1339 H1343 0.950 . S
H1340 C1336 0.950 . S
C1341 C1339 1.390 . S
C1341 C1342 1.387 . S
C1341 H1344 0.950 . S
C1342 C1341 1.387 . S
C1342 C1345 1.387 . S
H1343 C1339 0.950 . S
H1344 C1341 0.950 . S
C1345 C1336 1.390 . S
C1345 H1338 0.950 . S
C1345 C1342 1.387 . S
C1346 C1347 1.387 . S
C1346 H1350 0.950 . S
C1346 C1355 1.390 . S
C1347 C1346 1.387 . S
C1347 C1349 1.387 . S
H1348 C1355 0.950 . S
C1349 C1347 1.387 . S
C1349 C1351 1.390 . S
C1349 H1353 0.950 . S
H1350 C1346 0.950 . S
C1351 C1349 1.390 . S
C1351 C1352 1.387 . S
C1351 H1354 0.950 . S
C1352 C1351 1.387 . S
C1352 C1355 1.387 . S
H1353 C1349 0.950 . S
H1354 C1351 0.950 . S
C1355 C1346 1.390 . S
C1355 H1348 0.950 . S
C1355 C1352 1.387 . S
C1356 C1357 1.387 . S
C1356 H1360 0.950 . S
C1356 C1365 1.390 . S
C1357 C1356 1.387 . S
C1357 C1359 1.387 . S
H1358 C1365 0.950 . S
C1359 C1357 1.387 . S
C1359 C1361 1.390 . S
C1359 H1363 0.950 . S
H1360 C1356 0.950 . S
C1361 C1359 1.390 . S
C1361 C1362 1.387 . S
C1361 H1364 0.950 . S
C1362 C1361 1.387 . S
C1362 C1365 1.387 . S
H1363 C1359 0.950 . S
H1364 C1361 0.950 . S
C1365 C1356 1.390 . S
C1365 H1358 0.950 . S
C1365 C1362 1.387 . S
C1366 C1367 1.387 . S
C1366 H1370 0.950 . S
C1366 C1375 1.390 . S
C1367 C1366 1.387 . S
C1367 C1369 1.387 . S
H1368 C1375 0.950 . S
C1369 C1367 1.387 . S
C1369 C1371 1.390 . S
C1369 H1373 0.950 . S
H1370 C1366 0.950 . S
C1371 C1369 1.390 . S
C1371 C1372 1.387 . S
C1371 H1374 0.950 . S
C1372 C1371 1.387 . S
C1372 C1375 1.387 . S
H1373 C1369 0.950 . S
H1374 C1371 0.950 . S
C1375 C1366 1.390 . S
C1375 H1368 0.950 . S
C1375 C1372 1.387 . S
C1376 C1377 1.387 . S
C1376 H1380 0.950 . S
C1376 C1385 1.390 . S
C1377 C1376 1.387 . S
C1377 C1379 1.387 . S
H1378 C1385 0.950 . S
C1379 C1377 1.387 . S
C1379 C1381 1.390 . S
C1379 H1383 0.950 . S
H1380 C1376 0.950 . S
C1381 C1379 1.390 . S
C1381 C1382 1.387 . S
C1381 H1384 0.950 . S
C1382 C1381 1.387 . S
C1382 C1385 1.387 . S
H1383 C1379 0.950 . S
H1384 C1381 0.950 . S
C1385 C1376 1.390 . S
C1385 H1378 0.950 . S
C1385 C1382 1.387 . S
C1386 C1387 1.387 . S
C1386 H1390 0.950 . S
C1386 C1395 1.390 . S
C1387 C1386 1.387 . S
C1387 C1389 1.387 . S
H1388 C1395 0.950 . S
C1389 C1387 1.387 . S
C1389 C1391 1.390 . S
C1389 H1393 0.950 . S
H1390 C1386 0.950 . S
C1391 C1389 1.390 . S
C1391 C1392 1.387 . S
C1391 H1394 0.950 . S
C1392 C1391 1.387 . S
C1392 C1395 1.387 . S
H1393 C1389 0.950 . S
H1394 C1391 0.950 . S
C1395 C1386 1.390 . S
C1395 H1388 0.950 . S
C1395 C1392 1.387 . S
C1396 C1397 1.387 . S
C1396 H1400 0.950 . S
C1396 C1405 1.390 . S
C1397 C1396 1.387 . S
C1397 C1399 1.387 . S
H1398 C1405 0.950 . S
C1399 C1397 1.387 . S
C1399 C1401 1.390 . S
C1399 H1403 0.950 . S
H1400 C1396 0.950 . S
C1401 C1399 1.390 . S
C1401 C1402 1.387 . S
C1401 H1404 0.950 . S
C1402 C1401 1.387 . S
C1402 C1405 1.387 . S
H1403 C1399 0.950 . S
H1404 C1401 0.950 . S
C1405 C1396 1.390 . S
C1405 H1398 0.950 . S
C1405 C1402 1.387 . S
C1406 C1407 1.387 . S
C1406 H1410 0.950 . S
C1406 C1415 1.390 . S
C1407 C1406 1.387 . S
C1407 C1409 1.387 . S
H1408 C1415 0.950 . S
C1409 C1407 1.387 . S
C1409 C1411 1.390 . S
C1409 H1413 0.950 . S
H1410 C1406 0.950 . S
C1411 C1409 1.390 . S
C1411 C1412 1.387 . S
C1411 H1414 0.950 . S
C1412 C1411 1.387 . S
C1412 C1415 1.387 . S
H1413 C1409 0.950 . S
H1414 C1411 0.950 . S
C1415 C1406 1.390 . S
C1415 H1408 0.950 . S
C1415 C1412 1.387 . S
C1416 C1417 1.387 . S
C1416 H1420 0.950 . S
C1416 C1425 1.390 . S
C1417 C1416 1.387 . S
C1417 C1419 1.387 . S
H1418 C1425 0.950 . S
C1419 C1417 1.387 . S
C1419 C1421 1.390 . S
C1419 H1423 0.950 . S
H1420 C1416 0.950 . S
C1421 C1419 1.390 . S
C1421 C1422 1.387 . S
C1421 H1424 0.950 . S
C1422 C1421 1.387 . S
C1422 C1425 1.387 . S
H1423 C1419 0.950 . S
H1424 C1421 0.950 . S
C1425 C1416 1.390 . S
C1425 H1418 0.950 . S
C1425 C1422 1.387 . S
C1426 C1427 1.387 . S
C1426 H1430 0.950 . S
C1426 C1435 1.390 . S
C1427 C1426 1.387 . S
C1427 C1429 1.387 . S
H1428 C1435 0.950 . S
C1429 C1427 1.387 . S
C1429 C1431 1.390 . S
C1429 H1433 0.950 . S
H1430 C1426 0.950 . S
C1431 C1429 1.390 . S
C1431 C1432 1.387 . S
C1431 H1434 0.950 . S
C1432 C1431 1.387 . S
C1432 C1435 1.387 . S
H1433 C1429 0.950 . S
H1434 C1431 0.950 . S
C1435 C1426 1.390 . S
C1435 H1428 0.950 . S
C1435 C1432 1.387 . S
C1436 C1437 1.387 . S
C1436 H1440 0.950 . S
C1436 C1445 1.390 . S
C1437 C1436 1.387 . S
C1437 C1439 1.387 . S
H1438 C1445 0.950 . S
C1439 C1437 1.387 . S
C1439 C1441 1.390 . S
C1439 H1443 0.950 . S
H1440 C1436 0.950 . S
C1441 C1439 1.390 . S
C1441 C1442 1.387 . S
C1441 H1444 0.950 . S
C1442 C1441 1.387 . S
C1442 C1445 1.387 . S
H1443 C1439 0.950 . S
H1444 C1441 0.950 . S
C1445 C1436 1.390 . S
C1445 H1438 0.950 . S
C1445 C1442 1.387 . S
C1446 C1447 1.387 . S
C1446 H1450 0.950 . S
C1446 C1455 1.390 . S
C1447 C1446 1.387 . S
C1447 C1449 1.387 . S
H1448 C1455 0.950 . S
C1449 C1447 1.387 . S
C1449 C1451 1.390 . S
C1449 H1453 0.950 . S
H1450 C1446 0.950 . S
C1451 C1449 1.390 . S
C1451 C1452 1.387 . S
C1451 H1454 0.950 . S
C1452 C1451 1.387 . S
C1452 C1455 1.387 . S
H1453 C1449 0.950 . S
H1454 C1451 0.950 . S
C1455 C1446 1.390 . S
C1455 H1448 0.950 . S
C1455 C1452 1.387 . S
C1456 C1457 1.387 . S
C1456 H1460 0.950 . S
C1456 C1465 1.390 . S
C1457 C1456 1.387 . S
C1457 C1459 1.387 . S
H1458 C1465 0.950 . S
C1459 C1457 1.387 . S
C1459 C1461 1.390 . S
C1459 H1463 0.950 . S
H1460 C1456 0.950 . S
C1461 C1459 1.390 . S
C1461 C1462 1.387 . S
C1461 H1464 0.950 . S
C1462 C1461 1.387 . S
C1462 C1465 1.387 . S
H1463 C1459 0.950 . S
H1464 C1461 0.950 . S
C1465 C1456 1.390 . S
C1465 H1458 0.950 . S
C1465 C1462 1.387 . S
C1466 C1467 1.387 . S
C1466 H1470 0.950 . S
C1466 C1475 1.390 . S
C1467 C1466 1.387 . S
C1467 C1469 1.387 . S
H1468 C1475 0.950 . S
C1469 C1467 1.387 . S
C1469 C1471 1.390 . S
C1469 H1473 0.950 . S
H1470 C1466 0.950 . S
C1471 C1469 1.390 . S
C1471 C1472 1.387 . S
C1471 H1474 0.950 . S
C1472 C1471 1.387 . S
C1472 C1475 1.387 . S
H1473 C1469 0.950 . S
H1474 C1471 0.950 . S
C1475 C1466 1.390 . S
C1475 H1468 0.950 . S
C1475 C1472 1.387 . S
C1476 C1477 1.387 . S
C1476 H1480 0.950 . S
C1476 C1485 1.390 . S
C1477 C1476 1.387 . S
C1477 C1479 1.387 . S
H1478 C1485 0.950 . S
C1479 C1477 1.387 . S
C1479 C1481 1.390 . S
C1479 H1483 0.950 . S
H1480 C1476 0.950 . S
C1481 C1479 1.390 . S
C1481 C1482 1.387 . S
C1481 H1484 0.950 . S
C1482 C1481 1.387 . S
C1482 C1485 1.387 . S
H1483 C1479 0.950 . S
H1484 C1481 0.950 . S
C1485 C1476 1.390 . S
C1485 H1478 0.950 . S
C1485 C1482 1.387 . S
C1486 C1487 1.387 . S
C1486 H1490 0.950 . S
C1486 C1495 1.390 . S
C1487 C1486 1.387 . S
C1487 C1489 1.387 . S
H1488 C1495 0.950 . S
C1489 C1487 1.387 . S
C1489 C1491 1.390 . S
C1489 H1493 0.950 . S
H1490 C1486 0.950 . S
C1491 C1489 1.390 . S
C1491 C1492 1.387 . S
C1491 H1494 0.950 . S
C1492 C1491 1.387 . S
C1492 C1495 1.387 . S
H1493 C1489 0.950 . S
H1494 C1491 0.950 . S
C1495 C1486 1.390 . S
C1495 H1488 0.950 . S
C1495 C1492 1.387 . S
C1496 C1497 1.387 . S
C1496 H1500 0.950 . S
C1496 C1505 1.390 . S
C1497 C1496 1.387 . S
C1497 C1499 1.387 . S
H1498 C1505 0.950 . S
C1499 C1497 1.387 . S
C1499 C1501 1.390 . S
C1499 H1503 0.950 . S
H1500 C1496 0.950 . S
C1501 C1499 1.390 . S
C1501 C1502 1.387 . S
C1501 H1504 0.950 . S
C1502 C1501 1.387 . S
C1502 C1505 1.387 . S
H1503 C1499 0.950 . S
H1504 C1501 0.950 . S
C1505 C1496 1.390 . S
C1505 H1498 0.950 . S
C1505 C1502 1.387 . S
C1506 C1507 1.387 . S
C1506 H1510 0.950 . S
C1506 C1515 1.390 . S
C1507 C1506 1.387 . S
C1507 C1509 1.387 . S
H1508 C1515 0.950 . S
C1509 C1507 1.387 . S
C1509 C1511 1.390 . S
C1509 H1513 0.950 1_556 S
H1510 C1506 0.950 . S
C1511 C1509 1.390 . S
C1511 C1512 1.387 . S
C1511 H1514 0.950 . S
C1512 C1511 1.387 . S
C1512 C1515 1.387 . S
H1513 C1509 0.950 1_554 S
H1514 C1511 0.950 . S
C1515 C1506 1.390 . S
C1515 H1508 0.950 . S
C1515 C1512 1.387 . S
C1516 C1517 1.387 . S
C1516 H1520 0.950 . S
C1516 C1525 1.390 . S
C1517 C1516 1.387 . S
C1517 C1519 1.387 . S
H1518 C1525 0.950 . S
C1519 C1517 1.387 . S
C1519 C1521 1.390 . S
C1519 H1523 0.950 1_556 S
H1520 C1516 0.950 . S
C1521 C1519 1.390 . S
C1521 C1522 1.387 . S
C1521 H1524 0.950 . S
C1522 C1521 1.387 . S
C1522 C1525 1.387 . S
H1523 C1519 0.950 1_554 S
H1524 C1521 0.950 . S
C1525 C1516 1.390 . S
C1525 H1518 0.950 . S
C1525 C1522 1.387 . S
C1526 C1527 1.387 . S
C1526 H1530 0.950 1_556 S
C1526 C1535 1.390 . S
C1527 C1526 1.387 . S
C1527 C1529 1.387 . S
H1528 C1535 0.950 . S
C1529 C1527 1.387 . S
C1529 C1531 1.390 . S
C1529 H1533 0.950 . S
H1530 C1526 0.950 1_554 S
C1531 C1529 1.390 . S
C1531 C1532 1.387 . S
C1531 H1534 0.950 . S
C1532 C1531 1.387 . S
C1532 C1535 1.387 . S
H1533 C1529 0.950 . S
H1534 C1531 0.950 . S
C1535 C1526 1.390 . S
C1535 H1528 0.950 . S
C1535 C1532 1.387 . S
C1536 C1537 1.387 . S
C1536 H1540 0.950 1_556 S
C1536 C1545 1.390 . S
C1537 C1536 1.387 . S
C1537 C1539 1.387 . S
H1538 C1545 0.950 . S
C1539 C1537 1.387 . S
C1539 C1541 1.390 . S
C1539 H1543 0.950 . S
H1540 C1536 0.950 1_554 S
C1541 C1539 1.390 . S
C1541 C1542 1.387 . S
C1541 H1544 0.950 . S
C1542 C1541 1.387 . S
C1542 C1545 1.387 . S
H1543 C1539 0.950 . S
H1544 C1541 0.950 . S
C1545 C1536 1.390 . S
C1545 H1538 0.950 . S
C1545 C1542 1.387 . S
C1546 C1547 1.387 . S
C1546 H1550 0.950 . S
C1546 C1555 1.390 . S
C1547 C1546 1.387 . S
C1547 C1549 1.387 . S
H1548 C1555 0.950 . S
C1549 C1547 1.387 . S
C1549 C1551 1.390 . S
C1549 H1553 0.950 . S
H1550 C1546 0.950 . S
C1551 C1549 1.390 . S
C1551 C1552 1.387 . S
C1551 H1554 0.950 . S
C1552 C1551 1.387 . S
C1552 C1555 1.387 . S
H1553 C1549 0.950 . S
H1554 C1551 0.950 . S
C1555 C1546 1.390 . S
C1555 H1548 0.950 . S
C1555 C1552 1.387 . S
C1556 C1557 1.387 . S
C1556 H1560 0.950 . S
C1556 C1565 1.390 . S
C1557 C1556 1.387 . S
C1557 C1559 1.387 . S
H1558 C1565 0.950 . S
C1559 C1557 1.387 . S
C1559 C1561 1.390 . S
C1559 H1563 0.950 . S
H1560 C1556 0.950 . S
C1561 C1559 1.390 . S
C1561 C1562 1.387 . S
C1561 H1564 0.950 . S
C1562 C1561 1.387 . S
C1562 C1565 1.387 . S
H1563 C1559 0.950 . S
H1564 C1561 0.950 . S
C1565 C1556 1.390 . S
C1565 H1558 0.950 . S
C1565 C1562 1.387 . S
C1566 C1567 1.387 . S
C1566 H1570 0.950 . S
C1566 C1575 1.390 . S
C1567 C1566 1.387 . S
C1567 C1569 1.387 . S
H1568 C1575 0.950 . S
C1569 C1567 1.387 . S
C1569 C1571 1.390 . S
C1569 H1573 0.950 . S
H1570 C1566 0.950 . S
C1571 C1569 1.390 . S
C1571 C1572 1.387 . S
C1571 H1574 0.950 . S
C1572 C1571 1.387 . S
C1572 C1575 1.387 . S
H1573 C1569 0.950 . S
H1574 C1571 0.950 . S
C1575 C1566 1.390 . S
C1575 H1568 0.950 . S
C1575 C1572 1.387 . S
C1576 C1577 1.387 . S
C1576 H1580 0.950 . S
C1576 C1585 1.390 . S
C1577 C1576 1.387 . S
C1577 C1579 1.387 . S
H1578 C1585 0.950 . S
C1579 C1577 1.387 . S
C1579 C1581 1.390 . S
C1579 H1583 0.950 . S
H1580 C1576 0.950 . S
C1581 C1579 1.390 . S
C1581 C1582 1.387 . S
C1581 H1584 0.950 . S
C1582 C1581 1.387 . S
C1582 C1585 1.387 . S
H1583 C1579 0.950 . S
H1584 C1581 0.950 . S
C1585 C1576 1.390 . S
C1585 H1578 0.950 . S
C1585 C1582 1.387 . S
C1586 C1587 1.387 . S
C1586 H1590 0.950 . S
C1586 C1595 1.390 . S
C1587 C1586 1.387 . S
C1587 C1589 1.387 . S
H1588 C1595 0.950 . S
C1589 C1587 1.387 . S
C1589 C1591 1.390 . S
C1589 H1593 0.950 . S
H1590 C1586 0.950 . S
C1591 C1589 1.390 . S
C1591 C1592 1.387 . S
C1591 H1594 0.950 . S
C1592 C1591 1.387 . S
C1592 C1595 1.387 . S
H1593 C1589 0.950 . S
H1594 C1591 0.950 . S
C1595 C1586 1.390 . S
C1595 H1588 0.950 . S
C1595 C1592 1.387 . S
C1596 C1597 1.387 . S
C1596 H1600 0.950 . S
C1596 C1605 1.390 . S
C1597 C1596 1.387 . S
C1597 C1599 1.387 . S
H1598 C1605 0.950 . S
C1599 C1597 1.387 . S
C1599 C1601 1.390 . S
C1599 H1603 0.950 . S
H1600 C1596 0.950 . S
C1601 C1599 1.390 . S
C1601 C1602 1.387 . S
C1601 H1604 0.950 . S
C1602 C1601 1.387 . S
C1602 C1605 1.387 . S
H1603 C1599 0.950 . S
H1604 C1601 0.950 . S
C1605 C1596 1.390 . S
C1605 H1598 0.950 . S
C1605 C1602 1.387 . S
C1606 C1607 1.387 . S
C1606 H1610 0.950 . S
C1606 C1615 1.390 . S
C1607 C1606 1.387 . S
C1607 C1609 1.387 . S
H1608 C1615 0.950 . S
C1609 C1607 1.387 . S
C1609 C1611 1.390 . S
C1609 H1613 0.950 . S
H1610 C1606 0.950 . S
C1611 C1609 1.390 . S
C1611 C1612 1.387 . S
C1611 H1614 0.950 . S
C1612 C1611 1.387 . S
C1612 C1615 1.387 . S
H1613 C1609 0.950 . S
H1614 C1611 0.950 . S
C1615 C1606 1.390 . S
C1615 H1608 0.950 . S
C1615 C1612 1.387 . S
C1616 C1617 1.387 . S
C1616 H1620 0.950 . S
C1616 C1625 1.390 . S
C1617 C1616 1.387 . S
C1617 C1619 1.387 . S
H1618 C1625 0.950 . S
C1619 C1617 1.387 . S
C1619 C1621 1.390 . S
C1619 H1623 0.950 . S
H1620 C1616 0.950 . S
C1621 C1619 1.390 . S
C1621 C1622 1.387 . S
C1621 H1624 0.950 . S
C1622 C1621 1.387 . S
C1622 C1625 1.387 . S
H1623 C1619 0.950 . S
H1624 C1621 0.950 . S
C1625 C1616 1.390 . S
C1625 H1618 0.950 . S
C1625 C1622 1.387 . S
C1626 C1627 1.404 . S
C1626 H1630 0.945 1_455 S
C1626 C1635 1.379 1_455 S
C1627 C1626 1.404 . S
C1627 C1629 1.387 . S
H1628 C1635 0.950 . S
C1629 C1627 1.387 . S
C1629 C1631 1.390 . S
C1629 H1633 0.950 . S
H1630 C1626 0.945 1_655 S
C1631 C1629 1.390 . S
C1631 C1632 1.387 . S
C1631 H1634 0.950 . S
C1632 C1631 1.387 . S
C1632 C1635 1.387 1_455 S
H1633 C1629 0.950 . S
H1634 C1631 0.950 . S
C1635 C1626 1.379 1_655 S
C1635 H1628 0.950 . S
C1635 C1632 1.387 1_655 S
C1636 C1637 1.387 . S
C1636 H1640 0.950 . S
C1636 C1645 1.390 . S
C1637 C1636 1.387 . S
C1637 C1639 1.387 . S
H1638 C1645 0.950 . S
C1639 C1637 1.387 . S
C1639 C1641 1.390 . S
C1639 H1643 0.950 . S
H1640 C1636 0.950 . S
C1641 C1639 1.390 . S
C1641 C1642 1.387 . S
C1641 H1644 0.950 . S
C1642 C1641 1.387 . S
C1642 C1645 1.387 . S
H1643 C1639 0.950 . S
H1644 C1641 0.950 . S
C1645 C1636 1.390 . S
C1645 H1638 0.950 . S
C1645 C1642 1.387 . S
C1646 C1647 1.387 1_545 S
C1646 H1650 0.950 . S
C1646 C1655 1.390 . S
C1647 C1646 1.387 1_565 S
C1647 C1649 1.387 . S
H1648 C1655 0.950 . S
C1649 C1647 1.387 . S
C1649 C1651 1.390 . S
C1649 H1653 0.950 . S
H1650 C1646 0.950 . S
C1651 C1649 1.390 . S
C1651 C1652 1.387 . S
C1651 H1654 0.950 . S
C1652 C1651 1.387 . S
C1652 C1655 1.387 1_565 S
H1653 C1649 0.950 . S
H1654 C1651 0.950 . S
C1655 C1646 1.390 . S
C1655 H1648 0.950 . S
C1655 C1652 1.387 1_545 S
C1656 C1657 1.387 1_545 S
C1656 H1660 0.950 . S
C1656 C1665 1.390 . S
C1657 C1656 1.387 1_565 S
C1657 C1659 1.387 . S
H1658 C1665 0.950 . S
C1659 C1657 1.387 . S
C1659 C1661 1.390 . S
C1659 H1663 0.950 . S
H1660 C1656 0.950 . S
C1661 C1659 1.390 . S
C1661 C1662 1.387 . S
C1661 H1664 0.950 . S
C1662 C1661 1.387 . S
C1662 C1665 1.387 1_565 S
H1663 C1659 0.950 . S
H1664 C1661 0.950 . S
C1665 C1656 1.390 . S
C1665 H1658 0.950 . S
C1665 C1662 1.387 1_545 S
C1666 C1667 1.387 . S
C1666 H1670 0.950 . S
C1666 C1675 1.390 . S
C1667 C1666 1.387 . S
C1667 C1669 1.387 . S
H1668 C1675 0.950 . S
C1669 C1667 1.387 . S
C1669 C1671 1.412 1_455 S
C1669 H1673 0.950 1_455 S
H1670 C1666 0.950 . S
C1671 C1669 1.412 1_655 S
C1671 C1672 1.373 1_655 S
C1671 H1674 0.946 . S
C1672 C1671 1.373 1_455 S
C1672 C1675 1.387 . S
H1673 C1669 0.950 1_655 S
H1674 C1671 0.946 . S
C1675 C1666 1.390 . S
C1675 H1668 0.950 . S
C1675 C1672 1.387 . S
C1676 C1677 1.387 . S
C1676 H1680 0.950 . S
C1676 C1685 1.390 . S
C1677 C1676 1.387 . S
C1677 C1679 1.387 . S
H1678 C1685 0.950 . S
C1679 C1677 1.387 . S
C1679 C1681 1.390 . S
C1679 H1683 0.950 . S
H1680 C1676 0.950 . S
C1681 C1679 1.390 . S
C1681 C1682 1.387 . S
C1681 H1684 0.950 . S
C1682 C1681 1.387 . S
C1682 C1685 1.387 . S
H1683 C1679 0.950 . S
H1684 C1681 0.950 . S
C1685 C1676 1.390 . S
C1685 H1678 0.950 . S
C1685 C1682 1.387 . S
C1686 C1687 1.387 . S
C1686 H1690 0.950 . S
C1686 C1695 1.390 . S
C1687 C1686 1.387 . S
C1687 C1689 1.387 . S
H1688 C1695 0.950 . S
C1689 C1687 1.387 . S
C1689 C1691 1.390 . S
C1689 H1693 0.950 . S
H1690 C1686 0.950 . S
C1691 C1689 1.390 . S
C1691 C1692 1.387 . S
C1691 H1694 0.950 . S
C1692 C1691 1.387 . S
C1692 C1695 1.387 . S
H1693 C1689 0.950 . S
H1694 C1691 0.950 . S
C1695 C1686 1.390 . S
C1695 H1688 0.950 . S
C1695 C1692 1.387 . S
C1696 C1697 1.387 . S
C1696 H1700 0.950 . S
C1696 C1705 1.390 . S
C1697 C1696 1.387 . S
C1697 C1699 1.387 . S
H1698 C1705 0.950 . S
C1699 C1697 1.387 . S
C1699 C1701 1.390 . S
C1699 H1703 0.950 . S
H1700 C1696 0.950 . S
C1701 C1699 1.390 . S
C1701 C1702 1.387 . S
C1701 H1704 0.950 . S
C1702 C1701 1.387 . S
C1702 C1705 1.387 . S
H1703 C1699 0.950 . S
H1704 C1701 0.950 . S
C1705 C1696 1.390 . S
C1705 H1698 0.950 . S
C1705 C1702 1.387 . S
C1706 C1707 1.387 . S
C1706 H1710 0.950 . S
C1706 C1715 1.390 . S
C1707 C1706 1.387 . S
C1707 C1709 1.387 . S
H1708 C1715 0.950 . S
C1709 C1707 1.387 . S
C1709 C1711 1.390 . S
C1709 H1713 0.950 . S
H1710 C1706 0.950 . S
C1711 C1709 1.390 . S
C1711 C1712 1.387 . S
C1711 H1714 0.950 . S
C1712 C1711 1.387 . S
C1712 C1715 1.387 . S
H1713 C1709 0.950 . S
H1714 C1711 0.950 . S
C1715 C1706 1.390 . S
C1715 H1708 0.950 . S
C1715 C1712 1.387 . S
C1716 C1717 1.387 1_565 S
C1716 H1720 0.950 . S
C1716 C1725 1.390 . S
C1717 C1716 1.387 1_545 S
C1717 C1719 1.387 . S
H1718 C1725 0.950 . S
C1719 C1717 1.387 . S
C1719 C1721 1.390 . S
C1719 H1723 0.950 . S
H1720 C1716 0.950 . S
C1721 C1719 1.390 . S
C1721 C1722 1.387 . S
C1721 H1724 0.950 . S
C1722 C1721 1.387 . S
C1722 C1725 1.387 1_545 S
H1723 C1719 0.950 . S
H1724 C1721 0.950 . S
C1725 C1716 1.390 . S
C1725 H1718 0.950 . S
C1725 C1722 1.387 1_565 S
C1726 C1727 1.387 . S
C1726 H1730 0.950 . S
C1726 C1735 1.390 . S
C1727 C1726 1.387 . S
C1727 C1729 1.387 . S
H1728 C1735 0.950 . S
C1729 C1727 1.387 . S
C1729 C1731 1.414 1_655 S
C1729 H1733 0.950 1_655 S
H1730 C1726 0.950 . S
C1731 C1729 1.414 1_455 S
C1731 C1732 1.349 1_455 S
C1731 H1734 0.968 . S
C1732 C1731 1.349 1_655 S
C1732 C1735 1.387 . S
H1733 C1729 0.950 1_455 S
H1734 C1731 0.968 . S
C1735 C1726 1.390 . S
C1735 H1728 0.950 . S
C1735 C1732 1.387 . S
C1736 C1737 1.387 . S
C1736 H1740 0.950 . S
C1736 C1745 1.390 . S
C1737 C1736 1.387 . S
C1737 C1739 1.387 . S
H1738 C1745 0.950 . S
C1739 C1737 1.387 . S
C1739 C1741 1.390 . S
C1739 H1743 0.950 . S
H1740 C1736 0.950 . S
C1741 C1739 1.390 . S
C1741 C1742 1.387 . S
C1741 H1744 0.950 . S
C1742 C1741 1.387 . S
C1742 C1745 1.387 . S
H1743 C1739 0.950 . S
H1744 C1741 0.950 . S
C1745 C1736 1.390 . S
C1745 H1738 0.950 . S
C1745 C1742 1.387 . S
C1746 C1747 1.387 . S
C1746 H1750 0.950 . S
C1746 C1755 1.390 . S
C1747 C1746 1.387 . S
C1747 C1749 1.387 . S
H1748 C1755 0.950 . S
C1749 C1747 1.387 . S
C1749 C1751 1.390 . S
C1749 H1753 0.950 . S
H1750 C1746 0.950 . S
C1751 C1749 1.390 . S
C1751 C1752 1.387 . S
C1751 H1754 0.950 . S
C1752 C1751 1.387 . S
C1752 C1755 1.387 . S
H1753 C1749 0.950 . S
H1754 C1751 0.950 . S
C1755 C1746 1.390 . S
C1755 H1748 0.950 . S
C1755 C1752 1.387 . S
C1756 C1757 1.387 . S
C1756 H1760 0.950 . S
C1756 C1765 1.390 . S
C1757 C1756 1.387 . S
C1757 C1759 1.387 . S
H1758 C1765 0.950 . S
C1759 C1757 1.387 . S
C1759 C1761 1.390 . S
C1759 H1763 0.950 . S
H1760 C1756 0.950 . S
C1761 C1759 1.390 . S
C1761 C1762 1.387 . S
C1761 H1764 0.950 . S
C1762 C1761 1.387 . S
C1762 C1765 1.387 . S
H1763 C1759 0.950 . S
H1764 C1761 0.950 . S
C1765 C1756 1.390 . S
C1765 H1758 0.950 . S
C1765 C1762 1.387 . S
C1766 C1767 1.387 . S
C1766 H1770 0.950 . S
C1766 C1775 1.390 . S
C1767 C1766 1.387 . S
C1767 C1769 1.387 . S
H1768 C1775 0.950 . S
C1769 C1767 1.387 . S
C1769 C1771 1.390 . S
C1769 H1773 0.950 . S
H1770 C1766 0.950 . S
C1771 C1769 1.390 . S
C1771 C1772 1.387 . S
C1771 H1774 0.950 . S
C1772 C1771 1.387 . S
C1772 C1775 1.387 . S
H1773 C1769 0.950 . S
H1774 C1771 0.950 . S
C1775 C1766 1.390 . S
C1775 H1768 0.950 . S
C1775 C1772 1.387 . S
C1776 C1777 1.387 . S
C1776 H1780 0.950 . S
C1776 C1785 1.390 . S
C1777 C1776 1.387 . S
C1777 C1779 1.387 . S
H1778 C1785 0.950 . S
C1779 C1777 1.387 . S
C1779 C1781 1.390 . S
C1779 H1783 0.950 . S
H1780 C1776 0.950 . S
C1781 C1779 1.390 . S
C1781 C1782 1.387 . S
C1781 H1784 0.950 . S
C1782 C1781 1.387 . S
C1782 C1785 1.387 . S
H1783 C1779 0.950 . S
H1784 C1781 0.950 . S
C1785 C1776 1.390 . S
C1785 H1778 0.950 . S
C1785 C1782 1.387 . S
C1786 C1787 1.387 . S
C1786 H1790 0.950 . S
C1786 C1795 1.390 . S
C1787 C1786 1.387 . S
C1787 C1789 1.387 . S
H1788 C1795 0.950 . S
C1789 C1787 1.387 . S
C1789 C1791 1.390 . S
C1789 H1793 0.950 . S
H1790 C1786 0.950 . S
C1791 C1789 1.390 . S
C1791 C1792 1.387 . S
C1791 H1794 0.950 . S
C1792 C1791 1.387 . S
C1792 C1795 1.387 . S
H1793 C1789 0.950 . S
H1794 C1791 0.950 . S
C1795 C1786 1.390 . S
C1795 H1788 0.950 . S
C1795 C1792 1.387 . S
C1796 C1797 1.387 . S
C1796 H1800 0.950 . S
C1796 C1805 1.390 . S
C1797 C1796 1.387 . S
C1797 C1799 1.387 . S
H1798 C1805 0.950 . S
C1799 C1797 1.387 . S
C1799 C1801 1.390 . S
C1799 H1803 0.950 . S
H1800 C1796 0.950 . S
C1801 C1799 1.390 . S
C1801 C1802 1.387 . S
C1801 H1804 0.950 . S
C1802 C1801 1.387 . S
C1802 C1805 1.387 . S
H1803 C1799 0.950 . S
H1804 C1801 0.950 . S
C1805 C1796 1.390 . S
C1805 H1798 0.950 . S
C1805 C1802 1.387 . S
C1806 C1807 1.387 . S
C1806 H1810 0.950 . S
C1806 C1815 1.390 . S
C1807 C1806 1.387 . S
C1807 C1809 1.387 . S
H1808 C1815 0.950 . S
C1809 C1807 1.387 . S
C1809 C1811 1.390 . S
C1809 H1813 0.950 . S
H1810 C1806 0.950 . S
C1811 C1809 1.390 . S
C1811 C1812 1.387 . S
C1811 H1814 0.960 . S
C1812 C1811 1.387 . S
C1812 C1815 1.387 . S
H1813 C1809 0.950 . S
H1814 C1811 0.960 . S
C1815 C1806 1.390 . S
C1815 H1808 0.950 . S
C1815 C1812 1.387 . S
C1816 C1817 1.387 . S
C1816 H1820 0.950 . S
C1816 C1825 1.390 . S
C1817 C1816 1.387 . S
C1817 C1819 1.387 . S
H1818 C1825 0.950 . S
C1819 C1817 1.387 . S
C1819 C1821 1.390 . S
C1819 H1823 0.950 . S
H1820 C1816 0.950 . S
C1821 C1819 1.390 . S
C1821 C1822 1.387 . S
C1821 H1824 0.950 . S
C1822 C1821 1.387 . S
C1822 C1825 1.387 . S
H1823 C1819 0.950 . S
H1824 C1821 0.950 . S
C1825 C1816 1.390 . S
C1825 H1818 0.950 . S
C1825 C1822 1.387 . S
C1826 C1827 1.387 . S
C1826 H1830 0.950 . S
C1826 C1835 1.390 . S
C1827 C1826 1.387 . S
C1827 C1829 1.387 1_545 S
H1828 C1835 0.950 . S
C1829 C1827 1.387 1_565 S
C1829 C1831 1.390 . S
C1829 H1833 0.950 . S
H1830 C1826 0.950 . S
C1831 C1829 1.390 . S
C1831 C1832 1.387 1_565 S
C1831 H1834 0.950 . S
C1832 C1831 1.387 1_545 S
C1832 C1835 1.387 . S
H1833 C1829 0.950 . S
H1834 C1831 0.950 . S
C1835 C1826 1.390 . S
C1835 H1828 0.950 . S
C1835 C1832 1.387 . S
C1117 C13 1.468 . S
C1122 C729 1.524 . S
C1127 C27 1.385 . S
C1132 C777 1.461 . S
C1142 C825 1.511 . S
C1137 C36 1.418 . S
C1147 C41 1.447 . S
C1152 C849 1.524 . S
C1157 C8 1.490 . S
C1162 C921 1.594 . S
C1167 C22 1.469 . S
C1172 C969 1.537 . S
C1177 C55 1.475 . S
C1182 C897 1.533 . S
C1192 C945 1.467 . S
C1187 C69 1.390 . S
C1202 C873 1.522 . S
C1197 C78 1.434 . S
C1207 C83 1.451 . S
C1212 C801 1.515 . S
C1222 C705 1.613 . S
C1217 C50 1.508 . S
C1227 C64 1.470 . S
C1232 C753 1.540 . S
C1237 C97 1.540 . S
C1242 C1017 1.649 . S
C1247 C111 1.428 . S
C1252 C1065 1.510 . S
C1262 C1089 1.593 . S
C1257 C120 1.569 . S
C1267 C125 1.478 . S
C1272 C273 1.563 . S
C1277 C92 1.679 . S
C1282 C345 1.725 . S
C1287 C106 1.530 . S
C1292 C393 1.579 . S
C1297 C139 1.502 . S
C1302 C321 1.603 . S
C1307 C153 1.432 . S
C1312 C369 1.501 . S
C1322 C297 1.572 . S
C1317 C162 1.563 . S
C1332 C1113 1.583 . S
C1327 C167 1.508 . S
C1342 C993 1.718 . S
C1337 C134 1.682 . S
C1352 C1041 1.594 . S
C1347 C148 1.551 . S
C1357 C181 1.504 . S
C1362 C441 1.608 . S
C1367 C195 1.420 . S
C1372 C489 1.489 . S
C1377 C204 1.564 . S
C1382 C513 1.600 . S
C1387 C209 1.512 . S
C1392 C561 1.605 . S
C1402 C633 1.730 . S
C1397 C176 1.688 . S
C1412 C681 1.591 . S
C1407 C190 1.552 . S
C1422 C609 1.656 . S
C1417 C223 1.551 . S
C1432 C657 1.521 . S
C1427 C237 1.437 . S
C1437 C246 1.558 . S
C1442 C585 1.560 . S
C1452 C537 1.534 . S
C1447 C251 1.467 . S
C1457 C218 1.679 . S
C1462 C417 1.722 . S
C1472 C465 1.587 . S
C1467 C232 1.535 . S
C1482 C282 1.551 . S
C1477 C11 1.507 . S
C1487 C25 1.426 . S
C1492 C336 1.418 . S
C1502 C384 1.486 . S
C1497 C35 1.527 . S
C1512 C432 1.530 . S
C1507 C39 1.529 . S
C1522 C480 1.565 . S
C1517 C7 1.613 . S
C1532 C522 1.494 . S
C1527 C21 1.508 . S
C1537 C53 1.519 . S
C1542 C528 1.546 . S
C1547 C67 1.421 . S
C1552 C426 1.395 . S
C1557 C77 1.511 . S
C1562 C474 1.450 . S
C1567 C81 1.540 . S
C1572 C330 1.523 . S
C1582 C378 1.549 . S
C1577 C49 1.614 . S
C1587 C63 1.511 . S
C1592 C288 1.478 . S
C1602 C570 1.511 . S
C1597 C95 1.482 . S
C1607 C109 1.478 . S
C1612 C624 1.463 . S
C1617 C119 1.556 . S
C1622 C672 1.512 . S
C1632 C720 1.337 . S
C1627 C123 1.339 . S
C1637 C91 1.556 . S
C1642 C768 1.516 . S
C1647 C105 1.325 . S
C1652 C816 1.323 . S
C1657 C137 1.367 . S
C1662 C810 1.357 . S
C1667 C151 1.255 . S
C1672 C714 1.253 . S
C1682 C762 1.427 . S
C1677 C161 1.471 . S
C1687 C165 1.517 . S
C1692 C618 1.486 . S
C1697 C133 1.623 . S
C1702 C666 1.563 . S
C1712 C576 1.532 . S
C1707 C147 1.564 . S
C1722 C858 1.385 . S
C1717 C179 1.373 . S
C1727 C193 1.249 . S
C1732 C912 1.251 . S
C1737 C203 1.472 . S
C1742 C960 1.438 . S
C1752 C1008 1.495 . S
C1747 C207 1.508 . S
C1762 C1056 1.578 . S
C1757 C175 1.625 . S
C1767 C189 1.562 . S
C1772 C1098 1.549 . S
C1777 C221 1.495 . S
C1782 C1104 1.503 . S
C1787 C235 1.474 . S
C1792 C1002 1.442 . S
C1802 C1050 1.486 . S
C1797 C245 1.540 . S
C1812 C906 1.321 . S
C1807 C249 1.325 . S
C1822 C954 1.512 . S
C1817 C217 1.561 . S
C1827 C231 1.345 . S
C1832 C864 1.343 . S
