# Generated by pormake.
# Topology rtl, (3,6)-cn, num edge types: 1
# Building blocks:
#     Node 0, Type 0, BuildingBlock: BETDIP_clean_linker_0, # of connection points: 3
#     Node 1, Type 0, BuildingBlock: BETDIP_clean_linker_0, # of connection points: 3
#     Node 2, Type 0, BuildingBlock: BETDIP_clean_linker_0, # of connection points: 3
#     Node 3, Type 0, BuildingBlock: BETDIP_clean_linker_0, # of connection points: 3
#     Node 4, Type 1, BuildingBlock: KUMJIN_clean_sbu_1, # of connection points: 6
#     Node 5, Type 1, BuildingBlock: KUMJIN_clean_sbu_1, # of connection points: 6
#     Edge 6, Type (0, 1), BuildingBlock: KIFKEQ_clean_linker_1, # of connection points: 2
#     Edge 7, Type (0, 1), BuildingBlock: KIFKEQ_clean_linker_1, # of connection points: 2
#     Edge 8, Type (0, 1), BuildingBlock: KIFKEQ_clean_linker_1, # of connection points: 2
#     Edge 9, Type (0, 1), BuildingBlock: KIFKEQ_clean_linker_1, # of connection points: 2
#     Edge 10, Type (0, 1), BuildingBlock: KIFKEQ_clean_linker_1, # of connection points: 2
#     Edge 11, Type (0, 1), BuildingBlock: KIFKEQ_clean_linker_1, # of connection points: 2
#     Edge 12, Type (0, 1), BuildingBlock: KIFKEQ_clean_linker_1, # of connection points: 2
#     Edge 13, Type (0, 1), BuildingBlock: KIFKEQ_clean_linker_1, # of connection points: 2
#     Edge 14, Type (0, 1), BuildingBlock: KIFKEQ_clean_linker_1, # of connection points: 2
#     Edge 15, Type (0, 1), BuildingBlock: KIFKEQ_clean_linker_1, # of connection points: 2
#     Edge 16, Type (0, 1), BuildingBlock: KIFKEQ_clean_linker_1, # of connection points: 2
#     Edge 17, Type (0, 1), BuildingBlock: KIFKEQ_clean_linker_1, # of connection points: 2
# Relax obj value: 0.052
# Max RMSD: 0.219
# Mean RMSD: 0.160
data_MOF--net-rtl--node1-KUMJIN_clean_sbu_1--node2-BETDIP_clean_linker_0--edge1-KIFKEQ_clean_linker_1
_symmetry_space_group_name_H-M    P1
_symmetry_Int_Tables_number       1
_symmetry_cell_setting            triclinic
loop_
_symmetry_equiv_pos_as_xyz
'x, y, z'
_cell_length_a     35.849315
_cell_length_b     36.068425
_cell_length_c     27.451846
_cell_angle_alpha  78.464133
_cell_angle_beta   100.0846
_cell_angle_gamma 91.180392
loop_
_atom_site_label
_atom_site_type_symbol
_atom_site_fract_x
_atom_site_fract_y
_atom_site_fract_z
_atom_type_partial_charge
H0 H 0.2311 0.83017 0.94108 0.0
H1 H 0.23732 0.80696 0.10253 0.0
H2 H 0.15274 0.88429 0.00704 0.0
H3 H 0.29762 0.78656 0.10251 0.0
C4 C 0.29542 0.77522 0.06836 0.0
C5 C 0.22102 0.83533 0.97416 0.0
C6 C 0.1897 0.85938 0.96844 0.0
C7 C 0.23884 0.81676 0.02218 0.0
C8 C 0.22489 0.82223 0.06534 0.0
C9 C 0.19322 0.84613 0.05994 0.0
C10 C 0.17648 0.86502 0.01145 0.0
N11 N 0.26885 0.79091 0.02468 0.0
H12 H 0.71178 0.72279 0.72292 0.0
H13 H 0.71953 0.71427 0.57059 0.0
H14 H 0.65778 0.63153 0.65883 0.0
H15 H 0.72442 0.77874 0.56208 0.0
C16 C 0.74496 0.78011 0.59582 0.0
C17 C 0.70468 0.70854 0.69138 0.0
C18 C 0.68325 0.67521 0.69651 0.0
C19 C 0.71749 0.72329 0.6458 0.0
C20 C 0.70866 0.70424 0.60518 0.0
C21 C 0.68735 0.671 0.60973 0.0
C22 C 0.67479 0.65682 0.65543 0.0
N23 N 0.74079 0.75599 0.64245 0.0
H24 H 0.79116 0.21042 0.97572 0.0
H25 H 0.79287 0.19085 0.13623 0.0
H26 H 0.8758 0.13677 0.07804 0.0
H27 H 0.72953 0.2049 0.11032 0.0
C28 C 0.73012 0.22851 0.07893 0.0
C29 C 0.80339 0.19633 0.01369 0.0
C30 C 0.83577 0.17306 0.02185 0.0
C31 C 0.78705 0.20222 0.05451 0.0
C32 C 0.80382 0.18508 0.10415 0.0
C33 C 0.83633 0.16204 0.11268 0.0
C34 C 0.85144 0.1556 0.07138 0.0
N35 N 0.75545 0.2275 0.04471 0.0
H36 H 0.32028 0.30394 0.3787 0.0
H37 H 0.31232 0.31176 0.53123 0.0
H38 H 0.38082 0.39005 0.44717 0.0
H39 H 0.25136 0.29463 0.50324 0.0
C40 C 0.25649 0.27139 0.48533 0.0
C41 C 0.3283 0.31729 0.41095 0.0
C42 C 0.3524 0.34869 0.40763 0.0
C43 C 0.31272 0.30443 0.45486 0.0
C44 C 0.32336 0.3219 0.49677 0.0
C45 C 0.34769 0.353 0.49418 0.0
C46 C 0.36186 0.36618 0.4494 0.0
N47 N 0.28583 0.27464 0.45578 0.0
Eu48 Eu 0.04107 0.97261 0.51522 0.0
C49 C 0.94896 0.12069 0.48145 0.0
N50 N 0.98266 0.11179 0.51295 0.0
C51 C 1.00715 0.1724 0.48115 0.0
C52 C 0.94344 0.15586 0.44749 0.0
C53 C 0.01143 0.1371 0.51387 0.0
C54 C 0.97308 0.18177 0.44763 0.0
C55 C 0.88542 0.10227 0.44891 0.0
C56 C 0.9204 0.09393 0.48195 0.0
C57 C 0.88004 0.13708 0.41463 0.0
C58 C 0.90892 0.1638 0.41398 0.0
Eu59 Eu 0.98806 0.05119 0.56546 0.0
N60 N 0.92666 0.05999 0.5148 0.0
C61 C 0.85661 0.07562 0.45181 0.0
C62 C 0.89743 0.03557 0.5207 0.0
C63 C 0.86241 0.04248 0.48855 0.0
H64 H 0.03755 0.13015 0.54025 0.0
H65 H 0.83966 0.02252 0.49278 0.0
H66 H 0.99356 0.89279 0.54386 0.0
H67 H 0.18949 1.00466 0.58312 0.0
H68 H 0.90021 0.01129 0.55102 0.0
H69 H 0.82937 0.08095 0.42709 0.0
H70 H 0.12851 0.01373 0.52558 0.0
H71 H 0.03012 0.19235 0.4818 0.0
H72 H 0.85348 0.14374 0.38871 0.0
H73 H 0.90429 0.19054 0.38735 0.0
H74 H 1.00265 0.83144 0.60412 0.0
H75 H 0.96995 0.20904 0.42207 0.0
H76 H 0.20106 0.94782 0.65132 0.0
N77 N 0.04816 0.91267 0.56951 0.0
C78 C 0.08212 0.90494 0.6008 0.0
C79 C 0.02516 0.85191 0.60371 0.0
C80 C 0.0885 0.87037 0.63591 0.0
C81 C 0.01998 0.88669 0.56988 0.0
C82 C 0.05948 0.84377 0.63706 0.0
N83 N 0.10295 0.96563 0.56487 0.0
C84 C 0.13181 0.99022 0.55708 0.0
C85 C 0.1453 0.92519 0.63161 0.0
C86 C 0.11002 0.93234 0.59895 0.0
C87 C 0.17362 0.95225 0.62697 0.0
C88 C 0.16709 0.98451 0.5888 0.0
H89 H 0.06329 0.81692 0.66352 0.0
H90 H 0.12851 0.83745 0.69676 0.0
H91 H 0.17829 0.88531 0.69283 0.0
O92 O 0.07235 0.97672 0.45267 0.0
O93 O 0.03345 0.96283 0.59712 0.0
O94 O 0.03972 0.02147 0.61686 0.0
O95 O 0.04106 0.92639 0.4747 0.0
O96 O 0.0637 0.03322 0.50302 0.0
O97 O 0.05158 0.05745 0.57078 0.0
O98 O 0.95699 0.04626 0.62831 0.0
O99 O 0.9952 0.06055 0.48351 0.0
O100 O 0.98928 1.00197 0.46341 0.0
O101 O 0.98793 0.09697 0.60659 0.0
O102 O 0.96482 0.99101 0.57721 0.0
O103 O 0.97763 0.96467 0.51124 0.0
C104 C 0.04531 0.98477 0.62905 0.0
C105 C 0.04594 0.94395 0.38902 0.0
C106 C 0.05531 0.93047 0.3082 0.0
C107 C 0.01724 0.94121 0.2882 0.0
C108 C 1.00826 0.9548 0.36818 0.0
C109 C 0.99407 0.95346 0.31795 0.0
C110 C 0.06941 0.93204 0.35899 0.0
C111 C 0.07076 0.05729 0.534 0.0
C112 C 0.06084 0.94428 0.44224 0.0
C113 C 0.12323 0.86369 0.66923 0.0
C114 C 0.15151 0.89103 0.66714 0.0
C115 C 0.98281 0.03857 0.45181 0.0
C116 C 0.98439 0.07816 0.69245 0.0
C117 C 0.97641 0.09053 0.77428 0.0
C118 C 0.01467 0.08 0.79309 0.0
C119 C 0.02234 0.06763 0.712 0.0
C120 C 0.96149 0.08931 0.72363 0.0
C121 C 0.0373 0.06844 0.76218 0.0
C122 C 0.95812 0.96604 0.54746 0.0
C123 C 0.96867 0.07851 0.6393 0.0
H124 H 1.00506 0.93962 0.24971 0.0
H125 H 0.98975 0.96391 0.39084 0.0
H126 H 0.96488 0.96159 0.30214 0.0
H127 H 0.09865 0.92425 0.37524 0.0
H128 H 0.02742 0.08129 0.83149 0.0
H129 H 0.04049 0.05923 0.68839 0.0
H130 H 0.93206 0.09688 0.70834 0.0
H131 H 0.06668 0.06051 0.77701 0.0
Eu132 Eu 0.48039 0.49544 0.99975 0.0
C133 C 0.62682 0.5774 0.06963 0.0
N134 N 0.61417 0.54126 0.07272 0.0
C135 C 0.6681 0.52395 0.04101 0.0
C136 C 0.66016 0.58842 0.05022 0.0
C137 C 0.63487 0.51433 0.06041 0.0
C138 C 0.68065 0.56121 0.03549 0.0
C139 C 0.61728 0.64178 0.07978 0.0
C140 C 0.60562 0.60384 0.08437 0.0
C141 C 0.65049 0.65275 0.06048 0.0
C142 C 0.67185 0.62618 0.04575 0.0
Eu143 Eu 0.55803 0.52841 0.10672 0.0
N144 N 0.57316 0.5927 0.102 0.0
C145 C 0.59501 0.66767 0.09435 0.0
C146 C 0.55157 0.61765 0.11682 0.0
C147 C 0.56208 0.65551 0.11306 0.0
H148 H 0.6263 0.48532 0.06609 0.0
H149 H 0.54486 0.67526 0.12479 0.0
H150 H 0.40982 0.54211 0.03109 0.0
H151 H 0.49031 0.34712 0.98665 0.0
H152 H 0.52657 0.60824 0.13238 0.0
H153 H 0.60303 0.69706 0.09139 0.0
H154 H 0.50969 0.41392 0.9766 0.0
H155 H 0.68418 0.50254 0.03071 0.0
H156 H 0.65983 0.68179 0.05661 0.0
H157 H 0.69732 0.63514 0.03076 0.0
H158 H 0.35137 0.52735 0.06574 0.0
H159 H 0.70637 0.56858 0.02032 0.0
H160 H 0.43165 0.32739 0.02006 0.0
N161 N 0.4228 0.48497 0.03113 0.0
C162 C 0.40968 0.44893 0.03603 0.0
C163 C 0.36781 0.5049 0.05832 0.0
C164 C 0.37576 0.43926 0.05466 0.0
C165 C 0.40157 0.51313 0.03973 0.0
C166 C 0.35509 0.46772 0.06646 0.0
N167 N 0.46341 0.43139 0.00582 0.0
C168 C 0.48456 0.40541 0.99225 0.0
C169 C 0.41826 0.38364 0.02907 0.0
C170 C 0.43061 0.42141 0.02315 0.0
C171 C 0.44019 0.35668 0.01604 0.0
C172 C 0.47339 0.36767 0.99734 0.0
H173 H 0.3289 0.46144 0.08087 0.0
H174 H 0.33763 0.39369 0.0753 0.0
H175 H 0.37485 0.34503 0.05303 0.0
O176 O 0.46354 0.47851 0.9261 0.0
O177 O 0.48368 0.46255 0.081 0.0
O178 O 0.50278 0.50655 0.13002 0.0
O179 O 0.44582 0.53349 0.93725 0.0
O180 O 0.53907 0.46997 0.00958 0.0
O181 O 0.5618 0.46811 0.09408 0.0
O182 O 0.5754 0.54427 0.18094 0.0
O183 O 0.55393 0.56105 0.02514 0.0
O184 O 0.53643 0.5158 0.97801 0.0
O185 O 0.59535 0.49104 0.16681 0.0
O186 O 0.49909 0.55175 0.09898 0.0
O187 O 0.47615 0.55562 0.01413 0.0
C188 C 0.48568 0.47491 0.12332 0.0
C189 C 0.42476 0.51962 0.85361 0.0
C190 C 0.40467 0.50399 0.77028 0.0
C191 C 0.38888 0.54056 0.75244 0.0
C192 C 0.40847 0.5559 0.83476 0.0
C193 C 0.39062 0.56618 0.78458 0.0
C194 C 0.42238 0.49345 0.82122 0.0
C195 C 0.55985 0.45414 0.05292 0.0
C196 C 0.44506 0.51016 0.90641 0.0
C197 C 0.36351 0.40164 0.0608 0.0
C198 C 0.38469 0.37392 0.04806 0.0
C199 C 0.55238 0.54815 0.98329 0.0
C200 C 0.61723 0.50375 0.25084 0.0
C201 C 0.63809 0.51829 0.33462 0.0
C202 C 0.65582 0.48247 0.35065 0.0
C203 C 0.63545 0.46821 0.26785 0.0
C204 C 0.61901 0.52899 0.28435 0.0
C205 C 0.65464 0.45776 0.31738 0.0
C206 C 0.47781 0.56815 0.05645 0.0
C207 C 0.5956 0.51339 0.1988 0.0
H208 H 0.37487 0.54922 0.71357 0.0
H209 H 0.40981 0.57659 0.85868 0.0
H210 H 0.37827 0.59424 0.77044 0.0
H211 H 0.43488 0.4654 0.83512 0.0
H212 H 0.67094 0.47372 0.38896 0.0
H213 H 0.6346 0.44823 0.24301 0.0
H214 H 0.60499 0.55644 0.27184 0.0
H215 H 0.66849 0.43029 0.33011 0.0
H216 H 0.1968 0.26371 0.53361 0.0
H217 H 0.2576 0.20538 0.44826 0.0
H218 H 0.15352 0.21107 0.54441 0.0
H219 H 0.21455 0.15178 0.46004 0.0
H220 H 0.10296 0.08192 0.44964 0.0
H221 H 0.14904 0.13238 0.43669 0.0
H222 H 0.15283 0.1473 0.58975 0.0
H223 H 0.10651 0.09765 0.60221 0.0
C224 C 0.20097 0.23944 0.51729 0.0
C225 C 0.23062 0.23867 0.49022 0.0
C226 C 0.17631 0.20908 0.5238 0.0
C227 C 0.18068 0.17684 0.50361 0.0
C228 C 0.21017 0.1762 0.47587 0.0
C229 C 0.23496 0.20682 0.46928 0.0
C230 C 0.11388 0.09584 0.48058 0.0
C231 C 0.10072 0.08601 0.52678 0.0
C232 C 0.14041 0.12469 0.47323 0.0
C233 C 0.15442 0.14432 0.51195 0.0
C234 C 0.14208 0.13349 0.55863 0.0
C235 C 0.11559 0.10483 0.5659 0.0
H236 H 0.2941 0.73387 0.9944 0.0
H237 H 0.35842 0.74989 0.13682 0.0
H238 H 0.33875 0.68484 0.99144 0.0
H239 H 0.40424 0.70178 0.13309 0.0
H240 H 0.44326 0.62177 0.97686 0.0
H241 H 0.40072 0.67312 0.97925 0.0
H242 H 0.41132 0.63597 0.14096 0.0
H243 H 0.45472 0.58579 0.13861 0.0
C244 C 0.31806 0.72717 0.02489 0.0
C245 C 0.32283 0.74572 0.06592 0.0
C246 C 0.34389 0.69918 0.02302 0.0
C247 C 0.37532 0.68926 0.06192 0.0
C248 C 0.38012 0.70815 0.1028 0.0
C249 C 0.35403 0.73589 0.10488 0.0
C250 C 0.43662 0.6248 0.01289 0.0
C251 C 0.45257 0.5999 0.05754 0.0
C252 C 0.41202 0.65408 0.0143 0.0
C253 C 0.40246 0.65885 0.06034 0.0
C254 C 0.41853 0.6338 0.10493 0.0
C255 C 0.44335 0.60483 0.10356 0.0
H256 H 0.75656 0.82865 0.51152 0.0
H257 H 0.8044 0.79307 0.6693 0.0
H258 H 0.80806 0.87303 0.50062 0.0
H259 H 0.85663 0.8371 0.65835 0.0
H260 H 0.9219 0.94893 0.62905 0.0
H261 H 0.87096 0.90415 0.64196 0.0
H262 H 0.87488 0.87405 0.49833 0.0
H263 H 0.92515 0.91954 0.48483 0.0
C264 C 0.7782 0.83034 0.54391 0.0
C265 C 0.77638 0.80742 0.59122 0.0
C266 C 0.80793 0.85557 0.5376 0.0
C267 C 0.83678 0.85859 0.57848 0.0
C268 C 0.83476 0.83582 0.62609 0.0
C269 C 0.80491 0.81046 0.63239 0.0
C270 C 0.91186 0.93283 0.60012 0.0
C271 C 0.92757 0.93806 0.55573 0.0
C272 C 0.8828 0.90687 0.60776 0.0
C273 C 0.86861 0.88545 0.57119 0.0
C274 C 0.88464 0.89042 0.52703 0.0
C275 C 0.91371 0.91636 0.51941 0.0
H276 H 0.72432 0.2949 0.00804 0.0
H277 H 0.67683 0.23538 0.13524 0.0
H278 H 0.68254 0.34903 1.00099 0.0
H279 H 0.63431 0.28903 0.12753 0.0
H280 H 0.597 0.40701 0.13717 0.0
H281 H 0.63746 0.3527 0.14173 0.0
H282 H 0.61709 0.37027 0.97884 0.0
H283 H 0.57766 0.42561 0.97421 0.0
C284 C 0.70468 0.29324 0.03419 0.0
C285 C 0.70382 0.26096 0.07231 0.0
C286 C 0.68058 0.3242 0.03 0.0
C287 C 0.65511 0.32349 0.0638 0.0
C288 C 0.65397 0.29084 0.10138 0.0
C289 C 0.67812 0.25999 0.10562 0.0
C290 C 0.6011 0.39934 0.10226 0.0
C291 C 0.58374 0.4205 0.05532 0.0
C292 C 0.62411 0.36796 0.1049 0.0
C293 C 0.63038 0.35688 0.06067 0.0
C294 C 0.61312 0.37814 0.01367 0.0
C295 C 0.59015 0.40964 0.01103 0.0
H296 H 0.22882 0.85966 0.15209 0.0
H297 H 0.11848 0.84422 0.06644 0.0
H298 H 0.19827 0.87835 0.21738 0.0
H299 H 0.08844 0.86375 0.13035 0.0
H300 H 0.05634 0.95738 0.20788 0.0
H301 H 0.09199 0.9326 0.1534 0.0
H302 H 0.14715 0.8504 0.28073 0.0
H303 H 0.11016 0.87398 0.33556 0.0
C304 C 0.1982 0.85958 0.14768 0.0
C305 C 0.17603 0.85123 0.1037 0.0
C306 C 0.18079 0.87038 0.18482 0.0
C307 C 0.14108 0.87315 0.17817 0.0
C308 C 0.11911 0.86252 0.13582 0.0
C309 C 0.13635 0.85141 0.09927 0.0
C310 C 0.07572 0.93378 0.22445 0.0
C311 C 0.07979 0.91734 0.2761 0.0
C312 C 0.09633 0.91981 0.19323 0.0
C313 C 0.122 0.88944 0.21291 0.0
C314 C 0.12757 0.87394 0.2648 0.0
C315 C 0.10645 0.88759 0.2961 0.0
H316 H 0.64378 0.71087 0.75161 0.0
H317 H 0.69077 0.60241 0.74863 0.0
H318 H 0.61339 0.68143 0.82282 0.0
H319 H 0.66171 0.57314 0.82041 0.0
H320 H 0.5668 0.5234 0.90059 0.0
H321 H 0.60046 0.55544 0.83524 0.0
H322 H 0.61921 0.65065 0.90985 0.0
H323 H 0.58351 0.61922 0.97406 0.0
C324 C 0.64826 0.68089 0.76693 0.0
C325 C 0.66931 0.65888 0.74422 0.0
C326 C 0.63088 0.66395 0.80778 0.0
C327 C 0.63444 0.62465 0.82706 0.0
C328 C 0.65729 0.6032 0.80584 0.0
C329 C 0.67425 0.62002 0.76487 0.0
C330 C 0.57794 0.55122 0.90314 0.0
C331 C 0.57275 0.56843 0.94316 0.0
C332 C 0.59772 0.56953 0.86578 0.0
C333 C 0.61319 0.60557 0.86734 0.0
C334 C 0.60765 0.62303 0.9071 0.0
C335 C 0.5875 0.60477 0.94436 0.0
H336 H 0.8062 0.12318 0.19317 0.0
H337 H 0.91156 0.16446 0.14854 0.0
H338 H 0.841 0.09303 0.27658 0.0
H339 H 0.94612 0.13399 0.23065 0.0
H340 H 0.9916 0.10892 0.39849 0.0
H341 H 0.95372 0.14034 0.31902 0.0
H342 H 0.8882 0.03901 0.31241 0.0
H343 H 0.9258 0.00776 0.39322 0.0
C344 C 0.83668 0.12601 0.20137 0.0
C345 C 0.85625 0.14592 0.16442 0.0
C346 C 0.85659 0.10849 0.24875 0.0
C347 C 0.89628 0.11104 0.25999 0.0
C348 C 0.91555 0.13174 0.2233 0.0
C349 C 0.89579 0.14896 0.17615 0.0
C350 C 0.96907 0.09337 0.38007 0.0
C351 C 0.96152 0.05599 0.40186 0.0
C352 C 0.94749 0.11129 0.33449 0.0
C353 C 0.91797 0.09214 0.3095 0.0
C354 C 0.9105 0.05458 0.33116 0.0
C355 C 0.93228 0.03655 0.37691 0.0
H356 H 0.34698 0.42895 0.49063 0.0
H357 H 0.36976 0.32208 0.59501 0.0
H358 H 0.36376 0.46235 0.55972 0.0
H359 H 0.38751 0.35565 0.66472 0.0
H360 H 0.37591 0.43239 0.78048 0.0
H361 H 0.36347 0.39371 0.71556 0.0
H362 H 0.41695 0.47783 0.61554 0.0
H363 H 0.4279 0.51667 0.67958 0.0
C364 C 0.35602 0.41259 0.5284 0.0
C365 C 0.35734 0.37288 0.53725 0.0
C366 C 0.36584 0.43175 0.56814 0.0
C367 C 0.3776 0.41181 0.61794 0.0
C368 C 0.3784 0.37197 0.62698 0.0
C369 C 0.36827 0.35271 0.58706 0.0
C370 C 0.38544 0.44215 0.74481 0.0
C371 C 0.40246 0.47764 0.73474 0.0
C372 C 0.37836 0.42004 0.70759 0.0
C373 C 0.38851 0.43293 0.65978 0.0
C374 C 0.40765 0.46746 0.65121 0.0
C375 C 0.41425 0.48962 0.68804 0.0
H376 H 0.66141 0.70008 0.50944 0.0
H377 H 0.6945 0.59527 0.61435 0.0
H378 H 0.64575 0.66538 0.44069 0.0
H379 H 0.67996 0.56074 0.54602 0.0
H380 H 0.6192 0.50186 0.42804 0.0
H381 H 0.62843 0.54048 0.49234 0.0
H382 H 0.67191 0.63046 0.38879 0.0
H383 H 0.66115 0.59192 0.32375 0.0
C384 C 0.66563 0.66966 0.51767 0.0
C385 C 0.67889 0.65035 0.56735 0.0
C386 C 0.65673 0.64975 0.47829 0.0
C387 C 0.66117 0.61011 0.4877 0.0
C388 C 0.67514 0.59107 0.53738 0.0
C389 C 0.68368 0.61088 0.57665 0.0
C390 C 0.63036 0.53006 0.41895 0.0
C391 C 0.63975 0.54381 0.37113 0.0
C392 C 0.63597 0.55214 0.4559 0.0
C393 C 0.65168 0.5884 0.44629 0.0
C394 C 0.6596 0.60279 0.39758 0.0
C395 C 0.6535 0.58075 0.36028 0.0
H396 H 0.80225 0.1595 0.92898 0.0
H397 H 0.91134 0.17281 0.01934 0.0
H398 H 0.83421 0.14108 0.86502 0.0
H399 H 0.94277 0.15334 0.95665 0.0
H400 H 0.97694 0.06311 0.8749 0.0
H401 H 0.94135 0.08676 0.93042 0.0
H402 H 0.88461 0.1691 0.8044 0.0
H403 H 0.92144 0.1467 0.74863 0.0
C404 C 0.83292 0.15905 0.93484 0.0
C405 C 0.85426 0.16688 0.97966 0.0
C406 C 0.85113 0.14839 0.89841 0.0
C407 C 0.89084 0.14515 0.90658 0.0
C408 C 0.91208 0.15488 0.95003 0.0
C409 C 0.89404 0.16593 0.98592 0.0
C410 C 0.95725 0.08653 0.85889 0.0
C411 C 0.95252 0.10326 0.80729 0.0
C412 C 0.93671 0.09988 0.8907 0.0
C413 C 0.91052 0.12988 0.87162 0.0
C414 C 0.90456 0.14581 0.81986 0.0
C415 C 0.92557 0.13281 0.78801 0.0
H416 H 0.3914 0.31241 0.35262 0.0
H417 H 0.34658 0.42157 0.35664 0.0
H418 H 0.42251 0.34158 0.28186 0.0
H419 H 0.37618 0.45056 0.28526 0.0
H420 H 0.47181 0.49911 0.20659 0.0
H421 H 0.43782 0.46709 0.27147 0.0
H422 H 0.41729 0.373 0.19495 0.0
H423 H 0.45346 0.40435 0.13122 0.0
C424 C 0.3876 0.3425 0.33763 0.0
C425 C 0.36698 0.36481 0.36044 0.0
C426 C 0.40535 0.35928 0.29705 0.0
C427 C 0.40252 0.39866 0.27822 0.0
C428 C 0.38005 0.42041 0.29954 0.0
C429 C 0.36279 0.40377 0.34025 0.0
C430 C 0.46024 0.47153 0.20351 0.0
C431 C 0.46504 0.45462 0.16308 0.0
C432 C 0.44025 0.45325 0.2406 0.0
C433 C 0.42414 0.41756 0.23833 0.0
C434 C 0.42932 0.40036 0.19819 0.0
C435 C 0.4497 0.41859 0.1612 0.0
H436 H 0.21961 0.89766 0.88766 0.0
H437 H 0.11369 0.86149 0.93501 0.0
H438 H 0.18483 0.92868 0.80482 0.0
H439 H 0.07915 0.89279 0.85308 0.0
H440 H 0.10222 0.01536 0.68775 0.0
H441 H 0.13862 0.98453 0.76955 0.0
H442 H 0.07158 0.88407 0.76402 0.0
H443 H 0.03504 0.91499 0.6831 0.0
C444 C 0.18898 0.89626 0.88025 0.0
C445 C 0.16931 0.87735 0.91773 0.0
C446 C 0.16911 0.91425 0.83317 0.0
C447 C 0.12933 0.91319 0.82269 0.0
C448 C 0.10981 0.89385 0.86001 0.0
C449 C 0.12956 0.87621 0.907 0.0
C450 C 0.09513 0.98685 0.70447 0.0
C451 C 0.0659 0.96747 0.67941 0.0
C452 C 0.11619 0.96909 0.75081 0.0
C453 C 0.10793 0.93192 0.77301 0.0
C454 C 0.07835 0.91284 0.74802 0.0
C455 C 0.05756 0.93045 0.70168 0.0
loop_
_geom_bond_atom_site_label_1
_geom_bond_atom_site_label_2
_geom_bond_distance
_geom_bond_site_symmetry_2
_ccdc_geom_bond_type
H0 C5 0.930 . S
H1 C8 0.930 . S
H2 C10 0.930 . S
H3 C4 1.016 . S
C4 H3 1.016 . S
C4 N11 1.286 . S
C5 H0 0.930 . S
C5 C6 1.397 . S
C5 C7 1.361 1_556 S
C6 C5 1.397 . S
C6 C10 1.390 1_556 S
C7 C5 1.361 1_554 S
C7 C8 1.393 . S
C7 N11 1.413 . S
C8 H1 0.930 . S
C8 C7 1.393 . S
C8 C9 1.399 . S
C9 C8 1.399 . S
C9 C10 1.381 . S
C10 H2 0.930 . S
C10 C6 1.390 1_554 S
C10 C9 1.381 . S
N11 C4 1.286 . S
N11 C7 1.413 . S
H12 C17 0.930 . S
H13 C20 0.930 . S
H14 C22 0.930 . S
H15 C16 1.016 . S
C16 H15 1.016 . S
C16 N23 1.286 . S
C17 H12 0.930 . S
C17 C18 1.397 . S
C17 C19 1.361 . S
C18 C17 1.397 . S
C18 C22 1.390 . S
C19 C17 1.361 . S
C19 C20 1.393 . S
C19 N23 1.413 . S
C20 H13 0.930 . S
C20 C19 1.393 . S
C20 C21 1.399 . S
C21 C20 1.399 . S
C21 C22 1.381 . S
C22 H14 0.930 . S
C22 C18 1.390 . S
C22 C21 1.381 . S
N23 C16 1.286 . S
N23 C19 1.413 . S
H24 C29 0.930 1_556 S
H25 C32 0.930 . S
H26 C34 0.930 . S
H27 C28 1.016 . S
C28 H27 1.016 . S
C28 N35 1.286 . S
C29 H24 0.930 1_554 S
C29 C30 1.397 . S
C29 C31 1.361 . S
C30 C29 1.397 . S
C30 C34 1.390 . S
C31 C29 1.361 . S
C31 C32 1.393 . S
C31 N35 1.413 . S
C32 H25 0.930 . S
C32 C31 1.393 . S
C32 C33 1.399 . S
C33 C32 1.399 . S
C33 C34 1.381 . S
C34 H26 0.930 . S
C34 C30 1.390 . S
C34 C33 1.381 . S
N35 C28 1.286 . S
N35 C31 1.413 . S
H36 C41 0.930 . S
H37 C44 0.930 . S
H38 C46 0.930 . S
H39 C40 1.016 . S
C40 H39 1.016 . S
C40 N47 1.286 . S
C41 H36 0.930 . S
C41 C42 1.397 . S
C41 C43 1.361 . S
C42 C41 1.397 . S
C42 C46 1.390 . S
C43 C41 1.361 . S
C43 C44 1.393 . S
C43 N47 1.413 . S
C44 H37 0.930 . S
C44 C43 1.393 . S
C44 C45 1.399 . S
C45 C44 1.399 . S
C45 C46 1.381 . S
C46 H38 0.930 . S
C46 C42 1.390 . S
C46 C45 1.381 . S
N47 C40 1.286 . S
N47 C43 1.413 . S
Eu48 N77 2.600 . S
Eu48 N83 2.562 . S
Eu48 O92 2.462 . S
Eu48 O93 2.373 . S
Eu48 O95 2.432 . S
Eu48 O96 2.291 1_565 S
Eu48 O100 2.335 1_465 S
Eu48 O103 2.372 1_455 S
Eu48 C112 2.787 . S
C49 N50 1.365 . S
C49 C52 1.405 . S
C49 C56 1.448 . S
N50 C49 1.365 . S
N50 C53 1.319 1_655 S
N50 Eu59 2.600 . S
C51 C53 1.397 . S
C51 C54 1.367 1_455 S
C51 H71 0.931 . S
C52 C49 1.405 . S
C52 C54 1.403 . S
C52 C58 1.439 . S
C53 N50 1.319 1_455 S
C53 C51 1.397 . S
C53 H64 0.930 . S
C54 C51 1.367 1_655 S
C54 C52 1.403 . S
C54 H75 0.929 . S
C55 C56 1.430 . S
C55 C57 1.387 . S
C55 C61 1.404 . S
C56 C49 1.448 . S
C56 C55 1.430 . S
C56 N60 1.351 . S
C57 C55 1.387 . S
C57 C58 1.374 . S
C57 H72 0.931 . S
C58 C52 1.439 . S
C58 C57 1.374 . S
C58 H73 0.931 . S
Eu59 N50 2.600 . S
Eu59 N60 2.562 . S
Eu59 O94 2.335 1_655 S
Eu59 O97 2.372 1_655 S
Eu59 O98 2.462 . S
Eu59 O99 2.373 . S
Eu59 O101 2.432 . S
Eu59 O102 2.291 1_545 S
Eu59 C123 2.787 . S
N60 C56 1.351 . S
N60 Eu59 2.562 . S
N60 C62 1.325 . S
C61 C55 1.404 . S
C61 C63 1.366 . S
C61 H69 0.930 . S
C62 N60 1.325 . S
C62 C63 1.416 . S
C62 H68 0.929 . S
C63 C61 1.366 . S
C63 C62 1.416 . S
C63 H65 0.930 . S
H64 C53 0.930 . S
H65 C63 0.930 . S
H66 C81 0.930 1_655 S
H67 C88 0.930 . S
H68 C62 0.929 . S
H69 C61 0.930 . S
H70 C84 0.929 . S
H71 C51 0.931 . S
H72 C57 0.931 . S
H73 C58 0.931 . S
H74 C79 0.931 1_655 S
H75 C54 0.929 . S
H76 C87 0.930 . S
N77 Eu48 2.600 . S
N77 C78 1.365 . S
N77 C81 1.319 . S
C78 N77 1.365 . S
C78 C80 1.405 . S
C78 C86 1.448 . S
C79 H74 0.931 1_455 S
C79 C81 1.397 . S
C79 C82 1.367 . S
C80 C78 1.405 . S
C80 C82 1.403 . S
C80 C113 1.439 . S
C81 H66 0.930 1_455 S
C81 N77 1.319 . S
C81 C79 1.397 . S
C82 C79 1.367 . S
C82 C80 1.403 . S
C82 H89 0.929 . S
N83 Eu48 2.562 . S
N83 C84 1.325 . S
N83 C86 1.351 . S
C84 H70 0.929 . S
C84 N83 1.325 . S
C84 C88 1.416 . S
C85 C86 1.430 . S
C85 C87 1.404 . S
C85 C114 1.387 . S
C86 C78 1.448 . S
C86 N83 1.351 . S
C86 C85 1.430 . S
C87 H76 0.930 . S
C87 C85 1.404 . S
C87 C88 1.366 . S
C88 H67 0.930 . S
C88 C84 1.416 . S
C88 C87 1.366 . S
H89 C82 0.929 . S
H90 C113 0.931 . S
H91 C114 0.931 . S
O92 Eu48 2.462 . S
O92 C112 1.252 . S
O93 Eu48 2.373 . S
O93 C104 1.249 . S
O94 Eu59 2.335 1_455 S
O94 C104 1.264 1_545 S
O95 Eu48 2.432 . S
O95 C112 1.268 . S
O96 Eu48 2.291 1_545 S
O96 C111 1.255 . S
O97 Eu59 2.372 1_455 S
O97 C111 1.257 . S
O98 Eu59 2.462 . S
O98 C123 1.252 . S
O99 Eu59 2.373 . S
O99 C115 1.249 . S
O100 Eu48 2.335 1_645 S
O100 C115 1.264 . S
O101 Eu59 2.432 . S
O101 C123 1.268 . S
O102 Eu59 2.291 1_565 S
O102 C122 1.255 . S
O103 Eu48 2.372 1_655 S
O103 C122 1.257 . S
C104 O93 1.249 . S
C104 O94 1.264 1_565 S
C105 C108 1.382 . S
C105 C110 1.390 . S
C105 C112 1.506 . S
C106 C107 1.398 . S
C106 C110 1.392 . S
C107 C106 1.398 . S
C107 C109 1.372 . S
C107 H124 0.931 . S
C108 C105 1.382 . S
C108 C109 1.390 . S
C108 H125 0.931 . S
C109 C107 1.372 . S
C109 C108 1.390 . S
C109 H126 0.929 . S
C110 C105 1.390 . S
C110 C106 1.392 . S
C110 H127 0.930 . S
C111 O96 1.255 . S
C111 O97 1.257 . S
C112 Eu48 2.787 . S
C112 O92 1.252 . S
C112 O95 1.268 . S
C112 C105 1.506 . S
C113 C80 1.439 . S
C113 H90 0.931 . S
C113 C114 1.374 . S
C114 C85 1.387 . S
C114 H91 0.931 . S
C114 C113 1.374 . S
C115 O99 1.249 . S
C115 O100 1.264 . S
C116 C119 1.382 . S
C116 C120 1.390 . S
C116 C123 1.506 . S
C117 C118 1.398 . S
C117 C120 1.392 . S
C118 C117 1.398 . S
C118 C121 1.372 . S
C118 H128 0.931 . S
C119 C116 1.382 . S
C119 C121 1.390 . S
C119 H129 0.931 . S
C120 C116 1.390 . S
C120 C117 1.392 . S
C120 H130 0.930 . S
C121 C118 1.372 . S
C121 C119 1.390 . S
C121 H131 0.929 . S
C122 O102 1.255 . S
C122 O103 1.257 . S
C123 Eu59 2.787 . S
C123 O98 1.252 . S
C123 O101 1.268 . S
C123 C116 1.506 . S
H124 C107 0.931 . S
H125 C108 0.931 . S
H126 C109 0.929 . S
H127 C110 0.930 . S
H128 C118 0.931 . S
H129 C119 0.931 . S
H130 C120 0.930 . S
H131 C121 0.929 . S
Eu132 N161 2.597 1_556 S
Eu132 N167 2.560 1_556 S
Eu132 O176 2.472 . S
Eu132 O177 2.361 1_556 S
Eu132 O179 2.442 . S
Eu132 O180 2.289 1_556 S
Eu132 O184 2.341 . S
Eu132 O187 2.368 1_556 S
Eu132 C196 2.798 . S
C133 N134 1.365 . S
C133 C136 1.405 . S
C133 C140 1.448 . S
N134 C133 1.365 . S
N134 C137 1.319 . S
N134 Eu143 2.600 . S
C135 C137 1.397 . S
C135 C138 1.367 . S
C135 H155 0.931 . S
C136 C133 1.405 . S
C136 C138 1.403 . S
C136 C142 1.439 . S
C137 N134 1.319 . S
C137 C135 1.397 . S
C137 H148 0.930 . S
C138 C135 1.367 . S
C138 C136 1.403 . S
C138 H159 0.929 . S
C139 C140 1.430 . S
C139 C141 1.387 . S
C139 C145 1.404 . S
C140 C133 1.448 . S
C140 C139 1.430 . S
C140 N144 1.351 . S
C141 C139 1.387 . S
C141 C142 1.374 . S
C141 H156 0.931 . S
C142 C136 1.439 . S
C142 C141 1.374 . S
C142 H157 0.931 . S
Eu143 N134 2.600 . S
Eu143 N144 2.562 . S
Eu143 O178 2.335 . S
Eu143 O181 2.372 . S
Eu143 O182 2.462 . S
Eu143 O183 2.373 . S
Eu143 O185 2.432 . S
Eu143 O186 2.291 . S
Eu143 C207 2.787 . S
N144 C140 1.351 . S
N144 Eu143 2.562 . S
N144 C146 1.325 . S
C145 C139 1.404 . S
C145 C147 1.366 . S
C145 H153 0.930 . S
C146 N144 1.325 . S
C146 C147 1.416 . S
C146 H152 0.929 . S
C147 C145 1.366 . S
C147 C146 1.416 . S
C147 H149 0.930 . S
H148 C137 0.930 . S
H149 C147 0.930 . S
H150 C165 0.930 . S
H151 C172 0.930 . S
H152 C146 0.929 . S
H153 C145 0.930 . S
H154 C168 0.929 . S
H155 C135 0.931 . S
H156 C141 0.931 . S
H157 C142 0.931 . S
H158 C163 0.931 . S
H159 C138 0.929 . S
H160 C171 0.930 . S
N161 Eu132 2.597 1_554 S
N161 C162 1.365 . S
N161 C165 1.319 1_554 S
C162 N161 1.365 . S
C162 C164 1.405 . S
C162 C170 1.448 . S
C163 H158 0.931 . S
C163 C165 1.397 . S
C163 C166 1.367 1_556 S
C164 C162 1.405 . S
C164 C166 1.403 . S
C164 C197 1.439 . S
C165 H150 0.930 . S
C165 N161 1.319 1_556 S
C165 C163 1.397 . S
C166 C163 1.367 1_554 S
C166 C164 1.403 . S
C166 H173 0.929 . S
N167 Eu132 2.560 1_554 S
N167 C168 1.325 . S
N167 C170 1.351 . S
C168 H154 0.929 . S
C168 N167 1.325 . S
C168 C172 1.416 . S
C169 C170 1.430 . S
C169 C171 1.404 . S
C169 C198 1.387 . S
C170 C162 1.448 . S
C170 N167 1.351 . S
C170 C169 1.430 . S
C171 H160 0.930 . S
C171 C169 1.404 . S
C171 C172 1.366 . S
C172 H151 0.930 . S
C172 C168 1.416 . S
C172 C171 1.366 . S
H173 C166 0.929 . S
H174 C197 0.931 . S
H175 C198 0.931 . S
O176 Eu132 2.472 . S
O176 C196 1.252 . S
O177 Eu132 2.361 1_554 S
O177 C188 1.249 . S
O178 Eu143 2.335 . S
O178 C188 1.264 . S
O179 Eu132 2.442 . S
O179 C196 1.268 . S
O180 Eu132 2.289 1_554 S
O180 C195 1.255 . S
O181 Eu143 2.372 . S
O181 C195 1.257 . S
O182 Eu143 2.462 . S
O182 C207 1.252 . S
O183 Eu143 2.373 . S
O183 C199 1.249 1_554 S
O184 Eu132 2.341 . S
O184 C199 1.264 . S
O185 Eu143 2.432 . S
O185 C207 1.268 . S
O186 Eu143 2.291 . S
O186 C206 1.255 . S
O187 Eu132 2.368 1_554 S
O187 C206 1.257 . S
C188 O177 1.249 . S
C188 O178 1.264 . S
C189 C192 1.382 . S
C189 C194 1.390 . S
C189 C196 1.506 . S
C190 C191 1.398 . S
C190 C194 1.392 . S
C191 C190 1.398 . S
C191 C193 1.372 . S
C191 H208 0.931 . S
C192 C189 1.382 . S
C192 C193 1.390 . S
C192 H209 0.931 . S
C193 C191 1.372 . S
C193 C192 1.390 . S
C193 H210 0.929 . S
C194 C189 1.390 . S
C194 C190 1.392 . S
C194 H211 0.930 . S
C195 O180 1.255 . S
C195 O181 1.257 . S
C196 Eu132 2.798 . S
C196 O176 1.252 . S
C196 O179 1.268 . S
C196 C189 1.506 . S
C197 C164 1.439 . S
C197 H174 0.931 . S
C197 C198 1.374 . S
C198 C169 1.387 . S
C198 H175 0.931 . S
C198 C197 1.374 . S
C199 O183 1.249 1_556 S
C199 O184 1.264 . S
C200 C203 1.382 . S
C200 C204 1.390 . S
C200 C207 1.506 . S
C201 C202 1.398 . S
C201 C204 1.392 . S
C202 C201 1.398 . S
C202 C205 1.372 . S
C202 H212 0.931 . S
C203 C200 1.382 . S
C203 C205 1.390 . S
C203 H213 0.931 . S
C204 C200 1.390 . S
C204 C201 1.392 . S
C204 H214 0.930 . S
C205 C202 1.372 . S
C205 C203 1.390 . S
C205 H215 0.929 . S
C206 O186 1.255 . S
C206 O187 1.257 . S
C207 Eu143 2.787 . S
C207 O182 1.252 . S
C207 O185 1.268 . S
C207 C200 1.506 . S
H208 C191 0.931 . S
H209 C192 0.931 . S
H210 C193 0.929 . S
H211 C194 0.930 . S
H212 C202 0.931 . S
H213 C203 0.931 . S
H214 C204 0.930 . S
H215 C205 0.929 . S
H216 C224 0.950 . S
H217 C229 0.950 . S
H218 C226 0.950 . S
H219 C228 0.950 . S
H220 C230 0.950 . S
H221 C232 0.950 . S
H222 C234 0.950 . S
H223 C235 0.950 . S
C224 H216 0.950 . S
C224 C225 1.386 . S
C224 C226 1.391 . S
C225 C224 1.386 . S
C225 C229 1.393 . S
C226 H218 0.950 . S
C226 C224 1.391 . S
C226 C227 1.400 . S
C227 C226 1.400 . S
C227 C228 1.398 . S
C227 C233 1.491 . S
C228 H219 0.950 . S
C228 C227 1.398 . S
C228 C229 1.391 . S
C229 H217 0.950 . S
C229 C225 1.393 . S
C229 C228 1.391 . S
C230 H220 0.950 . S
C230 C231 1.386 . S
C230 C232 1.391 . S
C231 C230 1.386 . S
C231 C235 1.393 . S
C232 H221 0.950 . S
C232 C230 1.391 . S
C232 C233 1.400 . S
C233 C227 1.491 . S
C233 C232 1.400 . S
C233 C234 1.398 . S
C234 H222 0.950 . S
C234 C233 1.398 . S
C234 C235 1.391 . S
C235 H223 0.950 . S
C235 C231 1.393 . S
C235 C234 1.391 . S
H236 C244 0.950 . S
H237 C249 0.950 . S
H238 C246 0.950 . S
H239 C248 0.950 . S
H240 C250 0.950 . S
H241 C252 0.950 . S
H242 C254 0.950 . S
H243 C255 0.950 . S
C244 H236 0.950 . S
C244 C245 1.386 . S
C244 C246 1.391 . S
C245 C244 1.386 . S
C245 C249 1.393 . S
C246 H238 0.950 . S
C246 C244 1.391 . S
C246 C247 1.400 . S
C247 C246 1.400 . S
C247 C248 1.398 . S
C247 C253 1.491 . S
C248 H239 0.950 . S
C248 C247 1.398 . S
C248 C249 1.391 . S
C249 H237 0.950 . S
C249 C245 1.393 . S
C249 C248 1.391 . S
C250 H240 0.950 . S
C250 C251 1.386 . S
C250 C252 1.391 . S
C251 C250 1.386 . S
C251 C255 1.393 . S
C252 H241 0.950 . S
C252 C250 1.391 . S
C252 C253 1.400 . S
C253 C247 1.491 . S
C253 C252 1.400 . S
C253 C254 1.398 . S
C254 H242 0.950 . S
C254 C253 1.398 . S
C254 C255 1.391 . S
C255 H243 0.950 . S
C255 C251 1.393 . S
C255 C254 1.391 . S
H256 C264 0.950 . S
H257 C269 0.950 . S
H258 C266 0.950 . S
H259 C268 0.950 . S
H260 C270 0.950 . S
H261 C272 0.950 . S
H262 C274 0.950 . S
H263 C275 0.950 . S
C264 H256 0.950 . S
C264 C265 1.386 . S
C264 C266 1.391 . S
C265 C264 1.386 . S
C265 C269 1.393 . S
C266 H258 0.950 . S
C266 C264 1.391 . S
C266 C267 1.400 . S
C267 C266 1.400 . S
C267 C268 1.398 . S
C267 C273 1.491 . S
C268 H259 0.950 . S
C268 C267 1.398 . S
C268 C269 1.391 . S
C269 H257 0.950 . S
C269 C265 1.393 . S
C269 C268 1.391 . S
C270 H260 0.950 . S
C270 C271 1.386 . S
C270 C272 1.391 . S
C271 C270 1.386 . S
C271 C275 1.393 . S
C272 H261 0.950 . S
C272 C270 1.391 . S
C272 C273 1.400 . S
C273 C267 1.491 . S
C273 C272 1.400 . S
C273 C274 1.398 . S
C274 H262 0.950 . S
C274 C273 1.398 . S
C274 C275 1.391 . S
C275 H263 0.950 . S
C275 C271 1.393 . S
C275 C274 1.391 . S
H276 C284 0.950 1_556 S
H277 C289 0.950 . S
H278 C286 0.950 1_556 S
H279 C288 0.950 . S
H280 C290 0.950 . S
H281 C292 0.950 . S
H282 C294 0.950 1_556 S
H283 C295 0.950 1_556 S
C284 H276 0.950 1_554 S
C284 C285 1.386 . S
C284 C286 1.391 . S
C285 C284 1.386 . S
C285 C289 1.393 . S
C286 H278 0.950 1_554 S
C286 C284 1.391 . S
C286 C287 1.400 . S
C287 C286 1.400 . S
C287 C288 1.398 . S
C287 C293 1.491 . S
C288 H279 0.950 . S
C288 C287 1.398 . S
C288 C289 1.391 . S
C289 H277 0.950 . S
C289 C285 1.393 . S
C289 C288 1.391 . S
C290 H280 0.950 . S
C290 C291 1.386 . S
C290 C292 1.391 . S
C291 C290 1.386 . S
C291 C295 1.393 . S
C292 H281 0.950 . S
C292 C290 1.391 . S
C292 C293 1.400 . S
C293 C287 1.491 . S
C293 C292 1.400 . S
C293 C294 1.398 . S
C294 H282 0.950 1_554 S
C294 C293 1.398 . S
C294 C295 1.391 . S
C295 H283 0.950 1_554 S
C295 C291 1.393 . S
C295 C294 1.391 . S
H296 C304 0.950 . S
H297 C309 0.950 . S
H298 C306 0.950 . S
H299 C308 0.950 . S
H300 C310 0.950 . S
H301 C312 0.950 . S
H302 C314 0.950 . S
H303 C315 0.950 . S
C304 H296 0.950 . S
C304 C305 1.386 . S
C304 C306 1.391 . S
C305 C304 1.386 . S
C305 C309 1.393 . S
C306 H298 0.950 . S
C306 C304 1.391 . S
C306 C307 1.400 . S
C307 C306 1.400 . S
C307 C308 1.398 . S
C307 C313 1.491 . S
C308 H299 0.950 . S
C308 C307 1.398 . S
C308 C309 1.391 . S
C309 H297 0.950 . S
C309 C305 1.393 . S
C309 C308 1.391 . S
C310 H300 0.950 . S
C310 C311 1.386 . S
C310 C312 1.391 . S
C311 C310 1.386 . S
C311 C315 1.393 . S
C312 H301 0.950 . S
C312 C310 1.391 . S
C312 C313 1.400 . S
C313 C307 1.491 . S
C313 C312 1.400 . S
C313 C314 1.398 . S
C314 H302 0.950 . S
C314 C313 1.398 . S
C314 C315 1.391 . S
C315 H303 0.950 . S
C315 C311 1.393 . S
C315 C314 1.391 . S
H316 C324 0.950 . S
H317 C329 0.950 . S
H318 C326 0.950 . S
H319 C328 0.950 . S
H320 C330 0.950 . S
H321 C332 0.950 . S
H322 C334 0.950 . S
H323 C335 0.950 . S
C324 H316 0.950 . S
C324 C325 1.386 . S
C324 C326 1.391 . S
C325 C324 1.386 . S
C325 C329 1.393 . S
C326 H318 0.950 . S
C326 C324 1.391 . S
C326 C327 1.400 . S
C327 C326 1.400 . S
C327 C328 1.398 . S
C327 C333 1.491 . S
C328 H319 0.950 . S
C328 C327 1.398 . S
C328 C329 1.391 . S
C329 H317 0.950 . S
C329 C325 1.393 . S
C329 C328 1.391 . S
C330 H320 0.950 . S
C330 C331 1.386 . S
C330 C332 1.391 . S
C331 C330 1.386 . S
C331 C335 1.393 . S
C332 H321 0.950 . S
C332 C330 1.391 . S
C332 C333 1.400 . S
C333 C327 1.491 . S
C333 C332 1.400 . S
C333 C334 1.398 . S
C334 H322 0.950 . S
C334 C333 1.398 . S
C334 C335 1.391 . S
C335 H323 0.950 . S
C335 C331 1.393 . S
C335 C334 1.391 . S
H336 C344 0.950 . S
H337 C349 0.950 . S
H338 C346 0.950 . S
H339 C348 0.950 . S
H340 C350 0.950 . S
H341 C352 0.950 . S
H342 C354 0.950 . S
H343 C355 0.950 . S
C344 H336 0.950 . S
C344 C345 1.386 . S
C344 C346 1.391 . S
C345 C344 1.386 . S
C345 C349 1.393 . S
C346 H338 0.950 . S
C346 C344 1.391 . S
C346 C347 1.400 . S
C347 C346 1.400 . S
C347 C348 1.398 . S
C347 C353 1.491 . S
C348 H339 0.950 . S
C348 C347 1.398 . S
C348 C349 1.391 . S
C349 H337 0.950 . S
C349 C345 1.393 . S
C349 C348 1.391 . S
C350 H340 0.950 . S
C350 C351 1.386 . S
C350 C352 1.391 . S
C351 C350 1.386 . S
C351 C355 1.393 . S
C352 H341 0.950 . S
C352 C350 1.391 . S
C352 C353 1.400 . S
C353 C347 1.491 . S
C353 C352 1.400 . S
C353 C354 1.398 . S
C354 H342 0.950 . S
C354 C353 1.398 . S
C354 C355 1.391 . S
C355 H343 0.950 . S
C355 C351 1.393 . S
C355 C354 1.391 . S
H356 C364 0.950 . S
H357 C369 0.950 . S
H358 C366 0.950 . S
H359 C368 0.950 . S
H360 C370 0.950 . S
H361 C372 0.950 . S
H362 C374 0.950 . S
H363 C375 0.950 . S
C364 H356 0.950 . S
C364 C365 1.386 . S
C364 C366 1.391 . S
C365 C364 1.386 . S
C365 C369 1.393 . S
C366 H358 0.950 . S
C366 C364 1.391 . S
C366 C367 1.400 . S
C367 C366 1.400 . S
C367 C368 1.398 . S
C367 C373 1.491 . S
C368 H359 0.950 . S
C368 C367 1.398 . S
C368 C369 1.391 . S
C369 H357 0.950 . S
C369 C365 1.393 . S
C369 C368 1.391 . S
C370 H360 0.950 . S
C370 C371 1.386 . S
C370 C372 1.391 . S
C371 C370 1.386 . S
C371 C375 1.393 . S
C372 H361 0.950 . S
C372 C370 1.391 . S
C372 C373 1.400 . S
C373 C367 1.491 . S
C373 C372 1.400 . S
C373 C374 1.398 . S
C374 H362 0.950 . S
C374 C373 1.398 . S
C374 C375 1.391 . S
C375 H363 0.950 . S
C375 C371 1.393 . S
C375 C374 1.391 . S
H376 C384 0.950 . S
H377 C389 0.950 . S
H378 C386 0.950 . S
H379 C388 0.950 . S
H380 C390 0.950 . S
H381 C392 0.950 . S
H382 C394 0.950 . S
H383 C395 0.950 . S
C384 H376 0.950 . S
C384 C385 1.386 . S
C384 C386 1.391 . S
C385 C384 1.386 . S
C385 C389 1.393 . S
C386 H378 0.950 . S
C386 C384 1.391 . S
C386 C387 1.400 . S
C387 C386 1.400 . S
C387 C388 1.398 . S
C387 C393 1.491 . S
C388 H379 0.950 . S
C388 C387 1.398 . S
C388 C389 1.391 . S
C389 H377 0.950 . S
C389 C385 1.393 . S
C389 C388 1.391 . S
C390 H380 0.950 . S
C390 C391 1.386 . S
C390 C392 1.391 . S
C391 C390 1.386 . S
C391 C395 1.393 . S
C392 H381 0.950 . S
C392 C390 1.391 . S
C392 C393 1.400 . S
C393 C387 1.491 . S
C393 C392 1.400 . S
C393 C394 1.398 . S
C394 H382 0.950 . S
C394 C393 1.398 . S
C394 C395 1.391 . S
C395 H383 0.950 . S
C395 C391 1.393 . S
C395 C394 1.391 . S
H396 C404 0.950 . S
H397 C409 0.950 1_554 S
H398 C406 0.950 . S
H399 C408 0.950 . S
H400 C410 0.950 . S
H401 C412 0.950 . S
H402 C414 0.950 . S
H403 C415 0.950 . S
C404 H396 0.950 . S
C404 C405 1.386 . S
C404 C406 1.391 . S
C405 C404 1.386 . S
C405 C409 1.393 . S
C406 H398 0.950 . S
C406 C404 1.391 . S
C406 C407 1.400 . S
C407 C406 1.400 . S
C407 C408 1.398 . S
C407 C413 1.491 . S
C408 H399 0.950 . S
C408 C407 1.398 . S
C408 C409 1.391 . S
C409 H397 0.950 1_556 S
C409 C405 1.393 . S
C409 C408 1.391 . S
C410 H400 0.950 . S
C410 C411 1.386 . S
C410 C412 1.391 . S
C411 C410 1.386 . S
C411 C415 1.393 . S
C412 H401 0.950 . S
C412 C410 1.391 . S
C412 C413 1.400 . S
C413 C407 1.491 . S
C413 C412 1.400 . S
C413 C414 1.398 . S
C414 H402 0.950 . S
C414 C413 1.398 . S
C414 C415 1.391 . S
C415 H403 0.950 . S
C415 C411 1.393 . S
C415 C414 1.391 . S
H416 C424 0.950 . S
H417 C429 0.950 . S
H418 C426 0.950 . S
H419 C428 0.950 . S
H420 C430 0.950 . S
H421 C432 0.950 . S
H422 C434 0.950 . S
H423 C435 0.950 . S
C424 H416 0.950 . S
C424 C425 1.386 . S
C424 C426 1.391 . S
C425 C424 1.386 . S
C425 C429 1.393 . S
C426 H418 0.950 . S
C426 C424 1.391 . S
C426 C427 1.400 . S
C427 C426 1.400 . S
C427 C428 1.398 . S
C427 C433 1.491 . S
C428 H419 0.950 . S
C428 C427 1.398 . S
C428 C429 1.391 . S
C429 H417 0.950 . S
C429 C425 1.393 . S
C429 C428 1.391 . S
C430 H420 0.950 . S
C430 C431 1.386 . S
C430 C432 1.391 . S
C431 C430 1.386 . S
C431 C435 1.393 . S
C432 H421 0.950 . S
C432 C430 1.391 . S
C432 C433 1.400 . S
C433 C427 1.491 . S
C433 C432 1.400 . S
C433 C434 1.398 . S
C434 H422 0.950 . S
C434 C433 1.398 . S
C434 C435 1.391 . S
C435 H423 0.950 . S
C435 C431 1.393 . S
C435 C434 1.391 . S
H436 C444 0.950 . S
H437 C449 0.950 . S
H438 C446 0.950 . S
H439 C448 0.950 . S
H440 C450 0.950 . S
H441 C452 0.950 . S
H442 C454 0.950 . S
H443 C455 0.950 . S
C444 H436 0.950 . S
C444 C445 1.386 . S
C444 C446 1.391 . S
C445 C444 1.386 . S
C445 C449 1.393 . S
C446 H438 0.950 . S
C446 C444 1.391 . S
C446 C447 1.400 . S
C447 C446 1.400 . S
C447 C448 1.398 . S
C447 C453 1.491 . S
C448 H439 0.950 . S
C448 C447 1.398 . S
C448 C449 1.391 . S
C449 H437 0.950 . S
C449 C445 1.393 . S
C449 C448 1.391 . S
C450 H440 0.950 . S
C450 C451 1.386 . S
C450 C452 1.391 . S
C451 C450 1.386 . S
C451 C455 1.393 . S
C452 H441 0.950 . S
C452 C450 1.391 . S
C452 C453 1.400 . S
C453 C447 1.491 . S
C453 C452 1.400 . S
C453 C454 1.398 . S
C454 H442 0.950 . S
C454 C453 1.398 . S
C454 C455 1.391 . S
C455 H443 0.950 . S
C455 C451 1.393 . S
C455 C454 1.391 . S
C231 C111 1.652 . S
C225 C40 1.664 . S
C245 C4 1.664 . S
C251 C206 1.655 . S
C265 C16 1.665 . S
C271 C122 1.671 . S
C285 C28 1.636 . S
C291 C195 1.627 . S
C311 C106 1.429 . S
C305 C9 1.603 . S
C331 C199 1.705 . S
C325 C18 1.706 . S
C345 C33 1.633 . S
C351 C115 1.651 . S
C365 C45 1.604 . S
C371 C190 1.462 . S
C391 C201 1.425 . S
C385 C21 1.569 . S
C411 C117 1.411 . S
C405 C30 1.561 1_556 S
C431 C188 1.643 . S
C425 C42 1.627 . S
C445 C6 1.571 . S
C451 C104 1.594 . S
