# Generated by pormake.
# Topology pth, (4,4)-cn, num edge types: 1
# Building blocks:
#     Node 0, Type 0, BuildingBlock: GALJAG_clean_sbu_0, # of connection points: 4
#     Node 1, Type 0, BuildingBlock: GALJAG_clean_sbu_0, # of connection points: 4
#     Node 2, Type 0, BuildingBlock: GALJAG_clean_sbu_0, # of connection points: 4
#     Node 3, Type 1, BuildingBlock: MIFKUJ_clean_linker_1, # of connection points: 4
#     Node 4, Type 1, BuildingBlock: MIFKUJ_clean_linker_1, # of connection points: 4
#     Node 5, Type 1, BuildingBlock: MIFKUJ_clean_linker_1, # of connection points: 4
#     Edge 6, Type (0, 1), BuildingBlock: EZIPEK_clean_linker_0, # of connection points: 2
#     Edge 7, Type (0, 1), BuildingBlock: EZIPEK_clean_linker_0, # of connection points: 2
#     Edge 8, Type (0, 1), BuildingBlock: EZIPEK_clean_linker_0, # of connection points: 2
#     Edge 9, Type (0, 1), BuildingBlock: EZIPEK_clean_linker_0, # of connection points: 2
#     Edge 10, Type (0, 1), BuildingBlock: EZIPEK_clean_linker_0, # of connection points: 2
#     Edge 11, Type (0, 1), BuildingBlock: EZIPEK_clean_linker_0, # of connection points: 2
#     Edge 12, Type (0, 1), BuildingBlock: EZIPEK_clean_linker_0, # of connection points: 2
#     Edge 13, Type (0, 1), BuildingBlock: EZIPEK_clean_linker_0, # of connection points: 2
#     Edge 14, Type (0, 1), BuildingBlock: EZIPEK_clean_linker_0, # of connection points: 2
#     Edge 15, Type (0, 1), BuildingBlock: EZIPEK_clean_linker_0, # of connection points: 2
#     Edge 16, Type (0, 1), BuildingBlock: EZIPEK_clean_linker_0, # of connection points: 2
#     Edge 17, Type (0, 1), BuildingBlock: EZIPEK_clean_linker_0, # of connection points: 2
# Relax obj value: 0.002
# Max RMSD: 0.043
# Mean RMSD: 0.028
data_MOF--net-pth--node1-GALJAG_clean_sbu_0--node2-MIFKUJ_clean_linker_1--edge1-EZIPEK_clean_linker_0
_symmetry_space_group_name_H-M    P1
_symmetry_Int_Tables_number       1
_symmetry_cell_setting            triclinic
loop_
_symmetry_equiv_pos_as_xyz
'x, y, z'
_cell_length_a     23.366801
_cell_length_b     23.347062
_cell_length_c     48.1359
_cell_angle_alpha  90.149775
_cell_angle_beta   90.063837
_cell_angle_gamma 120.0349
loop_
_atom_site_label
_atom_site_type_symbol
_atom_site_fract_x
_atom_site_fract_y
_atom_site_fract_z
_atom_type_partial_charge
In0 In 0.00541 0.00379 0.04001 0.0
O1 O 0.96626 0.07336 0.05088 0.0
O2 O 0.03409 0.06813 0.07877 0.0
C3 C 0.91283 0.91747 0.00455 0.0
C4 C 0.1076 0.08927 0.00848 0.0
C5 C 0.00455 0.91394 0.07509 0.0
O6 O 0.89882 0.94453 0.02407 0.0
O7 O 0.97314 0.93515 0.0025 0.0
O8 O 0.04996 0.94382 0.05743 0.0
O9 O 0.96063 0.93029 0.07539 0.0
C10 C 0.9991 0.09378 0.07317 0.0
O11 O 0.11329 0.05206 0.02594 0.0
O12 O 0.05088 0.08302 0.00694 0.0
In13 In 0.00682 0.00807 0.3741 0.0
O14 O 0.06519 0.115 0.35868 0.0
O15 O 0.97158 0.05091 0.34023 0.0
C16 C 0.09983 0.01283 0.40835 0.0
C17 C 0.91078 0.99898 0.40818 0.0
C18 C 0.99952 0.9134 0.33981 0.0
O19 O 0.11009 0.06112 0.39315 0.0
O20 O 0.04268 0.96277 0.40657 0.0
O21 O 0.95635 0.90149 0.35809 0.0
O22 O 0.04554 0.97268 0.33853 0.0
C23 C 0.02175 0.10796 0.34122 0.0
O24 O 0.89836 0.96881 0.38523 0.0
O25 O 0.97139 0.0328 0.41407 0.0
In26 In 0.0022 0.00177 0.707 0.0
O27 O 0.96113 0.90387 0.73048 0.0
O28 O 0.91346 0.96055 0.73593 0.0
C29 C 0.08658 0.9905 0.67214 0.0
C30 C 0.92023 0.0151 0.6715 0.0
C31 C 0.08643 0.09424 0.743 0.0
O32 O 0.03703 0.94075 0.68242 0.0
O33 O 0.09297 0.04549 0.67905 0.0
O34 O 0.05308 0.10579 0.72557 0.0
O35 O 0.07623 0.03582 0.74276 0.0
C36 C 0.91508 0.90882 0.74177 0.0
O37 O 0.95717 0.06027 0.68829 0.0
O38 O 0.92592 0.96419 0.67205 0.0
H39 H 0.08039 0.46475 0.14783 0.0
H40 H 0.07531 0.37616 0.11884 0.0
H41 H 0.9246 0.23053 0.17204 0.0
H42 H 0.92522 0.31898 0.19971 0.0
H43 H 0.00309 0.50546 0.1564 0.0
H44 H 0.10224 0.42045 0.21969 0.0
H45 H 0.11182 0.33791 0.2479 0.0
H46 H 0.93236 0.2927 0.29095 0.0
H47 H 0.92249 0.37485 0.26281 0.0
H48 H 0.91128 0.544 0.26099 0.0
H49 H 0.91028 0.63171 0.28893 0.0
H50 H 0.09066 0.77698 0.24963 0.0
H51 H 0.09228 0.68931 0.22182 0.0
H52 H 0.0037 0.50529 0.25938 0.0
H53 H 0.91434 0.60135 0.19572 0.0
H54 H 0.91523 0.69056 0.16844 0.0
H55 H 0.09084 0.72161 0.12597 0.0
H56 H 0.09131 0.63382 0.15373 0.0
C57 C 0.00388 0.39897 0.17633 0.0
C58 C 0.04563 0.41388 0.15319 0.0
C59 C 0.04303 0.36337 0.1367 0.0
C60 C 0.99976 0.29682 0.14335 0.0
C61 C 0.95843 0.28159 0.16659 0.0
C62 C 0.95952 0.33219 0.1826 0.0
C63 C 0.00516 0.45346 0.19303 0.0
C64 C 0.00442 0.50575 0.17893 0.0
C65 C 0.00562 0.45381 0.22249 0.0
C66 C 0.01133 0.40337 0.23902 0.0
C67 C 0.06471 0.39244 0.23505 0.0
C68 C 0.07033 0.34569 0.25114 0.0
C69 C 0.02267 0.30935 0.27137 0.0
C70 C 0.96948 0.32033 0.27539 0.0
C71 C 0.96397 0.36715 0.2594 0.0
C72 C 0.00158 0.61022 0.2392 0.0
C73 C 0.95064 0.59469 0.25838 0.0
C74 C 0.94986 0.64453 0.27419 0.0
C75 C 1.00022 0.71047 0.27115 0.0
C76 C 0.05129 0.72624 0.25207 0.0
C77 C 0.05207 0.67637 0.23623 0.0
C78 C 0.00211 0.55684 0.22266 0.0
C79 C 0.00293 0.50484 0.23683 0.0
C80 C 0.00344 0.55763 0.1933 0.0
C81 C 0.00318 0.61134 0.17696 0.0
C82 C 0.95356 0.62787 0.18082 0.0
C83 C 0.95385 0.67845 0.16524 0.0
C84 C 0.00319 0.71249 0.14532 0.0
C85 C 0.05255 0.69588 0.14133 0.0
C86 C 0.05257 0.6457 0.15704 0.0
H87 H 0.61448 0.06979 0.481 0.0
H88 H 0.70011 0.06701 0.45282 0.0
H89 H 0.69581 0.91693 0.50626 0.0
H90 H 0.60633 0.91569 0.53326 0.0
H91 H 0.49558 0.99009 0.4896 0.0
H92 H 0.68362 0.09417 0.55177 0.0
H93 H 0.77667 0.10281 0.57913 0.0
H94 H 0.64244 0.92622 0.62389 0.0
H95 H 0.54954 0.91718 0.59655 0.0
H96 H 0.31708 0.89764 0.55507 0.0
H97 H 0.22597 0.89253 0.58257 0.0
H98 H 0.36145 0.07966 0.62077 0.0
H99 H 0.45274 0.08467 0.59352 0.0
H100 H 0.50173 0.99993 0.59257 0.0
H101 H 0.36515 0.90634 0.48701 0.0
H102 H 0.28062 0.91307 0.45908 0.0
H103 H 0.32394 0.09331 0.50151 0.0
H104 H 0.40883 0.0871 0.52932 0.0
C105 C 0.60426 0.99361 0.50959 0.0
C106 C 0.63119 0.0356 0.48655 0.0
C107 C 0.68029 0.03433 0.47053 0.0
C108 C 0.70443 0.99198 0.47753 0.0
C109 C 0.6779 0.95006 0.50057 0.0
C110 C 0.62738 0.94998 0.51614 0.0
C111 C 0.5512 0.99487 0.52622 0.0
C112 C 0.4972 0.99225 0.51212 0.0
C113 C 0.55325 0.99874 0.55564 0.0
C114 C 0.60977 0.00472 0.57201 0.0
C115 C 0.67429 0.05714 0.56737 0.0
C116 C 0.7272 0.06219 0.58294 0.0
C117 C 0.71612 0.01499 0.60337 0.0
C118 C 0.65171 0.96294 0.60815 0.0
C119 C 0.59889 0.95796 0.59265 0.0
C120 C 0.39153 0.99169 0.57222 0.0
C121 C 0.32711 0.93767 0.56928 0.0
C122 C 0.27532 0.93463 0.58493 0.0
C123 C 0.28731 0.98583 0.60353 0.0
C124 C 0.35154 0.03988 0.60643 0.0
C125 C 0.40342 0.04259 0.591 0.0
C126 C 0.44666 0.99474 0.55587 0.0
C127 C 0.5006 0.99788 0.57004 0.0
C128 C 0.44555 0.99322 0.52653 0.0
C129 C 0.39285 0.99589 0.5104 0.0
C130 C 0.35634 0.94718 0.49037 0.0
C131 C 0.30817 0.95089 0.47452 0.0
C132 C 0.29621 0.00356 0.47838 0.0
C133 C 0.33244 0.05219 0.49842 0.0
C134 C 0.38052 0.04843 0.5143 0.0
H135 H 0.45857 0.36346 0.82088 0.0
H136 H 0.36646 0.27683 0.79386 0.0
H137 H 0.23055 0.32158 0.83589 0.0
H138 H 0.32251 0.40822 0.86296 0.0
H139 H 0.50439 0.49514 0.82224 0.0
H140 H 0.42085 0.31853 0.88747 0.0
H141 H 0.33839 0.22763 0.91604 0.0
H142 H 0.29272 0.36363 0.95764 0.0
H143 H 0.37491 0.45463 0.92903 0.0
H144 H 0.54324 0.63219 0.92674 0.0
H145 H 0.6307 0.72211 0.95428 0.0
H146 H 0.7774 0.69377 0.91208 0.0
H147 H 0.68997 0.60226 0.88518 0.0
H148 H 0.50582 0.50501 0.9252 0.0
H149 H 0.59799 0.68414 0.85872 0.0
H150 H 0.68721 0.77151 0.83109 0.0
H151 H 0.7218 0.62588 0.79143 0.0
H152 H 0.6338 0.53851 0.81947 0.0
C153 C 0.39734 0.392 0.84403 0.0
C154 C 0.40895 0.35447 0.82437 0.0
C155 C 0.35656 0.30503 0.80907 0.0
C156 C 0.29191 0.29287 0.81303 0.0
C157 C 0.28011 0.33009 0.83274 0.0
C158 C 0.33246 0.37929 0.84815 0.0
C159 C 0.45322 0.44579 0.85966 0.0
C160 C 0.50522 0.49696 0.84476 0.0
C161 C 0.4539 0.44841 0.88901 0.0
C162 C 0.40353 0.39324 0.90595 0.0
C163 C 0.39272 0.32874 0.90256 0.0
C164 C 0.34606 0.27704 0.91888 0.0
C165 C 0.30962 0.28918 0.93881 0.0
C166 C 0.32047 0.35354 0.94231 0.0
C167 C 0.36727 0.40527 0.92605 0.0
C168 C 0.61005 0.61083 0.90371 0.0
C169 C 0.59419 0.64522 0.92341 0.0
C170 C 0.64392 0.69663 0.93898 0.0
C171 C 0.71026 0.71458 0.93502 0.0
C172 C 0.72639 0.68073 0.91522 0.0
C173 C 0.67659 0.62881 0.89986 0.0
C174 C 0.5566 0.55514 0.8878 0.0
C175 C 0.50505 0.5034 0.90266 0.0
C176 C 0.55693 0.5517 0.85842 0.0
C177 C 0.60968 0.60481 0.84139 0.0
C178 C 0.62514 0.67099 0.8443 0.0
C179 C 0.67578 0.72074 0.82856 0.0
C180 C 0.71098 0.70484 0.80944 0.0
C181 C 0.69515 0.63883 0.80621 0.0
C182 C 0.64485 0.58915 0.82207 0.0
C183 C 0.93815 0.14357 0.09728 0.0
C184 C 0.9985 0.14541 0.09112 0.0
C185 C 0.05666 0.23928 0.12299 0.0
C186 C 0.99843 0.24334 0.12594 0.0
N187 N 0.88678 0.20721 0.11073 0.0
N188 N 0.11816 0.20723 0.09279 0.0
C189 C 0.93991 0.19774 0.1116 0.0
C190 C 0.05871 0.19662 0.10251 0.0
N191 N 0.87894 0.08908 0.09072 0.0
N192 N 0.10954 0.27477 0.14018 0.0
H193 H 0.12241 0.18063 0.0763 0.0
H194 H 0.16315 0.24776 0.0988 0.0
H195 H 0.10923 0.30493 0.15614 0.0
H196 H 0.15075 0.2686 0.14046 0.0
H197 H 0.83374 0.08318 0.09718 0.0
H198 H 0.87497 0.04665 0.08166 0.0
H199 H 0.84551 0.1789 0.09825 0.0
H200 H 0.88667 0.24739 0.12018 0.0
C201 C 0.80006 0.93519 0.43171 0.0
C202 C 0.85843 0.99644 0.4265 0.0
C203 C 0.82024 0.0513 0.45885 0.0
C204 C 0.75807 0.9924 0.46073 0.0
N205 N 0.68444 0.88128 0.44421 0.0
N206 N 0.91597 0.11595 0.43022 0.0
C207 C 0.74663 0.93505 0.44583 0.0
C208 C 0.86653 0.05549 0.43877 0.0
N209 N 0.79641 0.87688 0.42436 0.0
N210 N 0.83587 0.1028 0.47665 0.0
H211 H 0.94843 0.122 0.41419 0.0
H212 H 0.91978 0.16031 0.43679 0.0
H213 H 0.80401 0.10093 0.49225 0.0
H214 H 0.88299 0.14433 0.4778 0.0
H215 H 0.75723 0.83086 0.43009 0.0
H216 H 0.83561 0.87433 0.41533 0.0
H217 H 0.67249 0.84095 0.43127 0.0
H218 H 0.64347 0.87971 0.45359 0.0
C219 C 0.87933 0.84419 0.78612 0.0
C220 C 0.86363 0.85581 0.75901 0.0
C221 C 0.74724 0.77186 0.76578 0.0
C222 C 0.76364 0.75727 0.7922 0.0
N223 N 0.8452 0.77301 0.82667 0.0
N224 N 0.78609 0.82496 0.72107 0.0
C225 C 0.82977 0.79159 0.80214 0.0
C226 C 0.79844 0.81817 0.74831 0.0
N227 N 0.94094 0.88502 0.79687 0.0
N228 N 0.68247 0.74236 0.75766 0.0
H229 H 0.8223 0.85837 0.7076 0.0
H230 H 0.74148 0.79394 0.71109 0.0
H231 H 0.64373 0.70672 0.76954 0.0
H232 H 0.66638 0.75638 0.74015 0.0
H233 H 0.9536 0.88419 0.81754 0.0
H234 H 0.97867 0.92331 0.78554 0.0
H235 H 0.89337 0.79086 0.83367 0.0
H236 H 0.80981 0.73616 0.83936 0.0
C237 C 0.9507 0.79633 0.09143 0.0
C238 C 0.00262 0.86303 0.09398 0.0
C239 C 0.04994 0.83203 0.13271 0.0
C240 C 0.00233 0.76457 0.12801 0.0
N241 N 0.914 0.6809 0.10016 0.0
N242 N 0.10427 0.94485 0.11571 0.0
C243 C 0.95431 0.74625 0.10669 0.0
C244 C 0.05323 0.88098 0.11416 0.0
N245 N 0.8976 0.78063 0.07462 0.0
N246 N 0.09025 0.84944 0.15553 0.0
H247 H 0.10594 0.98323 0.10405 0.0
H248 H 0.14676 0.95935 0.1275 0.0
H249 H 0.08887 0.81491 0.16963 0.0
H250 H 0.1212 0.89815 0.16184 0.0
H251 H 0.85499 0.73426 0.07441 0.0
H252 H 0.89333 0.81512 0.06247 0.0
H253 H 0.88342 0.66471 0.08273 0.0
H254 H 0.91521 0.64261 0.11075 0.0
C255 C 0.13942 0.00222 0.45544 0.0
C256 C 0.1514 0.01378 0.42653 0.0
C257 C 0.26175 0.0276 0.43257 0.0
C258 C 0.24681 0.00867 0.46079 0.0
N259 N 0.16863 0.96946 0.49854 0.0
N260 N 0.2192 0.02644 0.38658 0.0
C261 C 0.18485 0.99371 0.47212 0.0
C262 C 0.21143 0.02383 0.41479 0.0
N263 N 0.08591 0.00183 0.46713 0.0
N264 N 0.32454 0.05074 0.42291 0.0
H265 H 0.18329 0.02292 0.3727 0.0
H266 H 0.25872 0.02603 0.3768 0.0
H267 H 0.36281 0.05424 0.43531 0.0
H268 H 0.34016 0.07202 0.40339 0.0
H269 H 0.07826 1.00052 0.48848 0.0
H270 H 0.05218 0.0091 0.45567 0.0
H271 H 0.12154 0.95082 0.50689 0.0
H272 H 0.2008 0.96299 0.51147 0.0
C273 C 0.13464 0.13643 0.79038 0.0
C274 C 0.13697 0.14631 0.76122 0.0
C275 C 0.2347 0.25621 0.76694 0.0
C276 C 0.23707 0.243 0.79553 0.0
N277 N 0.19473 0.16718 0.83407 0.0
N278 N 0.19669 0.21031 0.72108 0.0
C279 C 0.18843 0.18216 0.8072 0.0
C280 C 0.18883 0.20491 0.74928 0.0
N281 N 0.07998 0.08474 0.80213 0.0
N282 N 0.27526 0.3183 0.75676 0.0
H283 H 0.16567 0.1732 0.70726 0.0
H284 H 0.23787 0.24882 0.71148 0.0
H285 H 0.30931 0.35745 0.76908 0.0
H286 H 0.27074 0.33258 0.73676 0.0
H287 H 0.07254 0.07874 0.82349 0.0
H288 H 0.03895 0.05122 0.79054 0.0
H289 H 0.1648 0.12077 0.8428 0.0
H290 H 0.23334 0.19947 0.84705 0.0
C291 C 0.82306 0.03241 0.66582 0.0
C292 C 0.87079 0.01942 0.65364 0.0
C293 C 0.81601 0.00182 0.60835 0.0
C294 C 0.77172 0.01994 0.62016 0.0
N295 N 0.74129 0.06574 0.65851 0.0
N296 N 0.92055 0.00432 0.61243 0.0
C297 C 0.77791 0.03947 0.64841 0.0
C298 C 0.86951 0.00768 0.62462 0.0
N299 N 0.81797 0.03395 0.69408 0.0
N300 N 0.80563 0.97681 0.58193 0.0
H301 H 0.96099 0.0093 0.62361 0.0
H302 H 0.92591 0.00284 0.59101 0.0
H303 H 0.76731 0.97224 0.56926 0.0
H304 H 0.83171 0.95571 0.57335 0.0
H305 H 0.77943 0.03595 0.70402 0.0
H306 H 0.84823 0.02656 0.70778 0.0
H307 H 0.74879 0.08732 0.67813 0.0
H308 H 0.7076 0.0716 0.64635 0.0
C309 C 0.82679 0.88335 0.96712 0.0
C310 C 0.86203 0.86621 0.98624 0.0
C311 C 0.79432 0.7494 0.97319 0.0
C312 C 0.76273 0.76708 0.95253 0.0
N313 N 0.75578 0.85138 0.92642 0.0
N314 N 0.88813 0.78505 0.00391 0.0
C315 C 0.78072 0.83427 0.94858 0.0
C316 C 0.84867 0.79992 0.98811 0.0
N317 N 0.83753 0.94654 0.96661 0.0
N318 N 0.77053 0.68421 0.97945 0.0
H319 H 0.92748 0.81988 0.01584 0.0
H320 H 0.88527 0.73908 0.00348 0.0
H321 H 0.73026 0.64557 0.96924 0.0
H322 H 0.78664 0.66852 0.99645 0.0
H323 H 0.808 0.96026 0.95554 0.0
H324 H 0.87379 0.98485 0.97859 0.0
H325 H 0.77214 0.90008 0.92064 0.0
H326 H 0.72241 0.8168 0.91229 0.0
C327 C 0.04273 0.83737 0.32886 0.0
C328 C 0.99895 0.86102 0.32238 0.0
C329 C 0.95981 0.78979 0.28108 0.0
C330 C 1.00029 0.76292 0.28861 0.0
N331 N 0.07347 0.75353 0.32126 0.0
N332 N 0.91075 0.85604 0.29457 0.0
C333 C 0.04007 0.78476 0.31292 0.0
C334 C 0.95582 0.83599 0.29916 0.0
N335 N 0.08724 0.86566 0.35013 0.0
N336 N 0.92694 0.77261 0.25621 0.0
H337 H 0.9083 0.8918 0.30674 0.0
H338 H 0.873 0.83447 0.27989 0.0
H339 H 0.92831 0.73847 0.24259 0.0
H340 H 0.90222 0.79547 0.24801 0.0
H341 H 0.12589 0.85657 0.35377 0.0
H342 H 0.08819 0.90161 0.36334 0.0
H343 H 0.0973 0.76181 0.34036 0.0
H344 H 0.0735 0.71541 0.30991 0.0
C345 C 0.14501 0.01012 0.62639 0.0
C346 C 0.13507 0.98536 0.65399 0.0
C347 C 0.22414 0.9594 0.64821 0.0
C348 C 0.23279 0.98266 0.62046 0.0
N349 N 0.19699 0.02142 0.58148 0.0
N350 N 0.16033 0.93134 0.69081 0.0
C351 C 0.19179 0.0054 0.60906 0.0
C352 C 0.17294 0.95804 0.66472 0.0
N353 N 0.11035 0.0391 0.61691 0.0
N354 N 0.26643 0.94055 0.65897 0.0
H355 H 0.1276 0.93446 0.70456 0.0
H356 H 0.17995 0.90331 0.69863 0.0
H357 H 0.30236 0.93781 0.64714 0.0
H358 H 0.26865 0.93069 0.67988 0.0
H359 H 0.1207 0.06545 0.59844 0.0
H360 H 0.07283 0.03991 0.62824 0.0
H361 H 0.16383 0.03101 0.57092 0.0
H362 H 0.23232 0.02096 0.5684 0.0
C363 C 0.22259 0.18623 0.00246 0.0
C364 C 0.16251 0.13629 0.99052 0.0
C365 C 0.19872 0.18679 0.94458 0.0
C366 C 0.26009 0.23455 0.95627 0.0
N367 N 0.33641 0.27149 0.99483 0.0
N368 N 0.10012 0.0795 0.94952 0.0
C369 C 0.27388 0.23165 0.98478 0.0
C370 C 0.15255 0.13375 0.96133 0.0
N371 N 0.22951 0.19271 0.03069 0.0
N372 N 0.1835 0.19338 0.91776 0.0
H373 H 0.06636 0.0387 0.96103 0.0
H374 H 0.09391 0.07186 0.92814 0.0
H375 H 0.21604 0.23143 0.90474 0.0
H376 H 0.13669 0.16432 0.90911 0.0
H377 H 0.26896 0.23294 0.04049 0.0
H378 H 0.19328 0.16085 0.04449 0.0
H379 H 0.35122 0.26676 0.01469 0.0
H380 H 0.37524 0.30539 0.98246 0.0
C381 C 0.02011 0.15175 0.29397 0.0
C382 C 0.02838 0.16218 0.32312 0.0
C383 C 0.04564 0.27399 0.3172 0.0
C384 C 0.02833 0.25996 0.28873 0.0
N385 N 0.99073 0.18252 0.25047 0.0
N386 N 0.03919 0.22957 0.36318 0.0
C387 C 0.0135 0.19808 0.27717 0.0
C388 C 0.03909 0.22255 0.33497 0.0
N389 N 0.02084 0.09874 0.28221 0.0
N390 N 0.0694 0.3368 0.32714 0.0
H391 H 0.0332 0.19281 0.37706 0.0
H392 H 0.0392 0.26954 0.37285 0.0
H393 H 0.07494 0.37577 0.31469 0.0
H394 H 0.08932 0.35162 0.34698 0.0
H395 H 0.02161 0.09218 0.26083 0.0
H396 H 0.0275 0.06473 0.29374 0.0
H397 H 0.972 0.13538 0.24197 0.0
H398 H 0.98543 0.21518 0.23742 0.0
loop_
_geom_bond_atom_site_label_1
_geom_bond_atom_site_label_2
_geom_bond_distance
_geom_bond_site_symmetry_2
_ccdc_geom_bond_type
In0 O1 2.294 1_455 S
In0 O2 2.326 . S
In0 O6 2.266 1_445 S
In0 O7 2.326 1_445 S
In0 O8 2.266 1_545 S
In0 O9 2.326 1_445 S
In0 O11 2.294 . S
In0 O12 2.326 . S
O1 In0 2.294 1_655 S
O1 C10 1.240 1_655 S
O2 In0 2.326 . S
O2 C10 1.252 . S
C3 O6 1.252 . S
C3 O7 1.260 . S
C4 O11 1.240 . S
C4 O12 1.252 . S
C5 O8 1.252 1_655 S
C5 O9 1.260 . S
O6 In0 2.266 1_665 S
O6 C3 1.252 . S
O7 In0 2.326 1_665 S
O7 C3 1.260 . S
O8 In0 2.266 1_565 S
O8 C5 1.252 1_455 S
O9 In0 2.326 1_665 S
O9 C5 1.260 . S
C10 O1 1.240 1_455 S
C10 O2 1.252 . S
O11 In0 2.294 . S
O11 C4 1.240 . S
O12 In0 2.326 . S
O12 C4 1.252 . S
In13 O14 2.294 . S
In13 O15 2.326 1_455 S
In13 O19 2.266 . S
In13 O20 2.326 1_545 S
In13 O21 2.266 1_445 S
In13 O22 2.326 1_545 S
In13 O24 2.294 1_445 S
In13 O25 2.326 1_455 S
O14 In13 2.294 . S
O14 C23 1.240 1_455 S
O15 In13 2.326 1_655 S
O15 C23 1.252 . S
C16 O19 1.252 1_565 S
C16 O20 1.260 . S
C17 O24 1.240 1_545 S
C17 O25 1.252 . S
C18 O21 1.252 1_455 S
C18 O22 1.260 . S
O19 In13 2.266 . S
O19 C16 1.252 1_545 S
O20 In13 2.326 1_565 S
O20 C16 1.260 . S
O21 In13 2.266 1_665 S
O21 C18 1.252 1_655 S
O22 In13 2.326 1_565 S
O22 C18 1.260 . S
C23 O14 1.240 1_655 S
C23 O15 1.252 . S
O24 In13 2.294 1_665 S
O24 C17 1.240 1_565 S
O25 In13 2.326 1_655 S
O25 C17 1.252 . S
In26 O27 2.288 1_445 S
In26 O28 2.327 1_445 S
In26 O32 2.260 1_545 S
In26 O33 2.327 . S
In26 O34 2.272 . S
In26 O35 2.325 . S
In26 O37 2.300 1_455 S
In26 O38 2.325 1_445 S
O27 In26 2.288 1_665 S
O27 C36 1.240 . S
O28 In26 2.327 1_665 S
O28 C36 1.252 . S
C29 O32 1.252 1_545 S
C29 O33 1.260 . S
C30 O37 1.240 1_565 S
C30 O38 1.252 . S
C31 O34 1.252 . S
C31 O35 1.260 . S
O32 In26 2.260 1_565 S
O32 C29 1.252 1_565 S
O33 In26 2.327 . S
O33 C29 1.260 . S
O34 In26 2.272 . S
O34 C31 1.252 . S
O35 In26 2.325 . S
O35 C31 1.260 . S
C36 O27 1.240 . S
C36 O28 1.252 . S
O37 In26 2.300 1_655 S
O37 C30 1.240 1_545 S
O38 In26 2.325 1_665 S
O38 C30 1.252 . S
H39 C58 0.949 . S
H40 C59 0.950 . S
H41 C61 0.950 . S
H42 C62 0.950 . S
H43 C64 0.950 . S
H44 C67 0.950 . S
H45 C68 0.950 . S
H46 C70 0.951 . S
H47 C71 0.949 . S
H48 C73 0.949 . S
H49 C74 0.950 . S
H50 C76 0.950 . S
H51 C77 0.950 . S
H52 C79 0.950 . S
H53 C82 0.950 . S
H54 C83 0.950 . S
H55 C85 0.951 . S
H56 C86 0.949 . S
C57 C58 1.376 . S
C57 C62 1.386 1_455 S
C57 C63 1.483 . S
C58 H39 0.949 . S
C58 C57 1.376 . S
C58 C59 1.397 . S
C59 H40 0.950 . S
C59 C58 1.397 . S
C59 C60 1.391 . S
C60 C59 1.391 . S
C60 C61 1.405 1_455 S
C61 H41 0.950 . S
C61 C60 1.405 1_655 S
C61 C62 1.367 . S
C62 H42 0.950 . S
C62 C57 1.386 1_655 S
C62 C61 1.367 . S
C63 C57 1.483 . S
C63 C64 1.382 . S
C63 C65 1.403 1_455 S
C64 H43 0.950 . S
C64 C63 1.382 . S
C64 C80 1.411 . S
C65 C63 1.403 1_655 S
C65 C66 1.489 . S
C65 C79 1.411 . S
C66 C65 1.489 . S
C66 C67 1.383 1_655 S
C66 C71 1.382 . S
C67 H44 0.950 . S
C67 C66 1.383 1_455 S
C67 C68 1.395 . S
C68 H45 0.950 . S
C68 C67 1.395 . S
C68 C69 1.288 1_455 S
C69 C68 1.288 1_655 S
C69 C70 1.392 . S
C70 H46 0.951 . S
C70 C69 1.392 . S
C70 C71 1.392 . S
C71 H47 0.949 . S
C71 C66 1.382 . S
C71 C70 1.392 . S
C72 C73 1.376 . S
C72 C77 1.386 1_655 S
C72 C78 1.483 . S
C73 H48 0.949 . S
C73 C72 1.376 . S
C73 C74 1.397 . S
C74 H49 0.950 . S
C74 C73 1.397 . S
C74 C75 1.391 1_655 S
C75 C74 1.391 1_455 S
C75 C76 1.405 . S
C76 H50 0.950 . S
C76 C75 1.405 . S
C76 C77 1.367 . S
C77 H51 0.950 . S
C77 C72 1.386 1_455 S
C77 C76 1.367 . S
C78 C72 1.483 . S
C78 C79 1.382 . S
C78 C80 1.403 1_655 S
C79 H52 0.950 . S
C79 C65 1.411 . S
C79 C78 1.382 . S
C80 C64 1.411 . S
C80 C78 1.403 1_455 S
C80 C81 1.489 . S
C81 C80 1.489 . S
C81 C82 1.383 1_455 S
C81 C86 1.382 . S
C82 H53 0.950 . S
C82 C81 1.383 1_655 S
C82 C83 1.395 . S
C83 H54 0.950 . S
C83 C82 1.395 . S
C83 C84 1.288 1_655 S
C84 C83 1.288 1_455 S
C84 C85 1.392 . S
C85 H55 0.951 . S
C85 C84 1.392 . S
C85 C86 1.392 . S
C86 H56 0.949 . S
C86 C81 1.382 . S
C86 C85 1.392 . S
H87 C106 0.949 . S
H88 C107 0.950 . S
H89 C109 0.950 . S
H90 C110 0.950 . S
H91 C112 0.950 . S
H92 C115 0.950 . S
H93 C116 0.950 . S
H94 C118 0.951 . S
H95 C119 0.949 . S
H96 C121 0.949 . S
H97 C122 0.950 . S
H98 C124 0.950 . S
H99 C125 0.950 . S
H100 C127 0.950 . S
H101 C130 0.950 . S
H102 C131 0.950 . S
H103 C133 0.951 . S
H104 C134 0.949 . S
C105 C106 1.376 . S
C105 C110 1.386 1_545 S
C105 C111 1.483 . S
C106 H87 0.949 . S
C106 C105 1.376 . S
C106 C107 1.397 . S
C107 H88 0.950 . S
C107 C106 1.397 . S
C107 C108 1.391 . S
C108 C107 1.391 . S
C108 C109 1.405 1_545 S
C109 H89 0.950 . S
C109 C108 1.405 1_565 S
C109 C110 1.367 . S
C110 H90 0.950 . S
C110 C105 1.386 1_565 S
C110 C109 1.367 . S
C111 C105 1.483 . S
C111 C112 1.382 . S
C111 C113 1.403 1_545 S
C112 H91 0.950 . S
C112 C111 1.382 . S
C112 C128 1.411 . S
C113 C111 1.403 1_565 S
C113 C114 1.489 . S
C113 C127 1.411 . S
C114 C113 1.489 . S
C114 C115 1.383 1_565 S
C114 C119 1.382 . S
C115 H92 0.950 . S
C115 C114 1.383 1_545 S
C115 C116 1.395 . S
C116 H93 0.950 . S
C116 C115 1.395 . S
C116 C117 1.288 1_545 S
C117 C116 1.288 1_565 S
C117 C118 1.392 . S
C118 H94 0.951 . S
C118 C117 1.392 . S
C118 C119 1.392 . S
C119 H95 0.949 . S
C119 C114 1.382 . S
C119 C118 1.392 . S
C120 C121 1.376 . S
C120 C125 1.386 1_565 S
C120 C126 1.483 . S
C121 H96 0.949 . S
C121 C120 1.376 . S
C121 C122 1.397 . S
C122 H97 0.950 . S
C122 C121 1.397 . S
C122 C123 1.407 . S
C123 C122 1.407 . S
C123 C124 1.397 1_565 S
C124 H98 0.950 . S
C124 C123 1.397 1_545 S
C124 C125 1.367 . S
C125 H99 0.950 . S
C125 C120 1.386 1_545 S
C125 C124 1.367 . S
C126 C120 1.483 . S
C126 C127 1.382 . S
C126 C128 1.403 1_565 S
C127 H100 0.950 . S
C127 C113 1.411 . S
C127 C126 1.382 . S
C128 C112 1.411 . S
C128 C126 1.403 1_545 S
C128 C129 1.489 . S
C129 C128 1.489 . S
C129 C130 1.383 1_545 S
C129 C134 1.382 . S
C130 H101 0.950 . S
C130 C129 1.383 1_565 S
C130 C131 1.395 . S
C131 H102 0.950 . S
C131 C130 1.395 . S
C131 C132 1.288 1_565 S
C132 C131 1.288 1_545 S
C132 C133 1.392 . S
C133 H103 0.951 . S
C133 C132 1.392 . S
C133 C134 1.392 . S
C134 H104 0.949 . S
C134 C129 1.382 . S
C134 C133 1.392 . S
H135 C154 0.949 . S
H136 C155 0.950 . S
H137 C157 0.950 . S
H138 C158 0.950 . S
H139 C160 0.950 . S
H140 C163 0.950 . S
H141 C164 0.950 . S
H142 C166 0.951 . S
H143 C167 0.949 . S
H144 C169 0.949 . S
H145 C170 0.950 . S
H146 C172 0.950 . S
H147 C173 0.950 . S
H148 C175 0.950 . S
H149 C178 0.950 . S
H150 C179 0.950 . S
H151 C181 0.951 . S
H152 C182 0.949 . S
C153 C154 1.376 . S
C153 C158 1.386 . S
C153 C159 1.483 . S
C154 H135 0.949 . S
C154 C153 1.376 . S
C154 C155 1.397 . S
C155 H136 0.950 . S
C155 C154 1.397 . S
C155 C156 1.391 . S
C156 C155 1.391 . S
C156 C157 1.405 . S
C157 H137 0.950 . S
C157 C156 1.405 . S
C157 C158 1.367 . S
C158 H138 0.950 . S
C158 C153 1.386 . S
C158 C157 1.367 . S
C159 C153 1.483 . S
C159 C160 1.382 . S
C159 C161 1.403 . S
C160 H139 0.950 . S
C160 C159 1.382 . S
C160 C176 1.411 . S
C161 C159 1.403 . S
C161 C162 1.489 . S
C161 C175 1.411 . S
C162 C161 1.489 . S
C162 C163 1.383 . S
C162 C167 1.382 . S
C163 H140 0.950 . S
C163 C162 1.383 . S
C163 C164 1.395 . S
C164 H141 0.950 . S
C164 C163 1.395 . S
C164 C165 1.288 . S
C165 C164 1.288 . S
C165 C166 1.392 . S
C166 H142 0.951 . S
C166 C165 1.392 . S
C166 C167 1.392 . S
C167 H143 0.949 . S
C167 C162 1.382 . S
C167 C166 1.392 . S
C168 C169 1.376 . S
C168 C173 1.386 . S
C168 C174 1.483 . S
C169 H144 0.949 . S
C169 C168 1.376 . S
C169 C170 1.397 . S
C170 H145 0.950 . S
C170 C169 1.397 . S
C170 C171 1.391 . S
C171 C170 1.391 . S
C171 C172 1.405 . S
C172 H146 0.950 . S
C172 C171 1.405 . S
C172 C173 1.367 . S
C173 H147 0.950 . S
C173 C168 1.386 . S
C173 C172 1.367 . S
C174 C168 1.483 . S
C174 C175 1.382 . S
C174 C176 1.403 . S
C175 H148 0.950 . S
C175 C161 1.411 . S
C175 C174 1.382 . S
C176 C160 1.411 . S
C176 C174 1.403 . S
C176 C177 1.489 . S
C177 C176 1.489 . S
C177 C178 1.383 . S
C177 C182 1.382 . S
C178 H149 0.950 . S
C178 C177 1.383 . S
C178 C179 1.395 . S
C179 H150 0.950 . S
C179 C178 1.395 . S
C179 C180 1.288 . S
C180 C179 1.288 . S
C180 C181 1.392 . S
C181 H151 0.951 . S
C181 C180 1.392 . S
C181 C182 1.392 . S
C182 H152 0.949 . S
C182 C177 1.382 . S
C182 C181 1.392 . S
C183 C184 1.363 1_655 S
C183 C189 1.379 . S
C183 N191 1.356 . S
C184 C183 1.363 1_455 S
C184 C190 1.363 . S
C185 C186 1.363 . S
C185 C190 1.379 . S
C185 N192 1.356 . S
C186 C185 1.363 . S
C186 C189 1.363 1_455 S
N187 C189 1.356 . S
N187 H199 0.984 . S
N187 H200 0.985 . S
N188 C190 1.356 . S
N188 H193 0.984 . S
N188 H194 0.985 . S
C189 C183 1.379 . S
C189 C186 1.363 1_655 S
C189 N187 1.356 . S
C190 C184 1.363 . S
C190 C185 1.379 . S
C190 N188 1.356 . S
N191 C183 1.356 . S
N191 H197 0.984 . S
N191 H198 0.984 . S
N192 C185 1.356 . S
N192 H195 0.984 . S
N192 H196 0.985 . S
H193 N188 0.984 . S
H194 N188 0.985 . S
H195 N192 0.984 . S
H196 N192 0.985 . S
H197 N191 0.984 . S
H198 N191 0.984 . S
H199 N187 0.984 . S
H200 N187 0.985 . S
C201 C202 1.363 1_565 S
C201 C207 1.379 . S
C201 N209 1.356 . S
C202 C201 1.363 1_545 S
C202 C208 1.363 . S
C203 C204 1.363 . S
C203 C208 1.379 . S
C203 N210 1.356 . S
C204 C203 1.363 . S
C204 C207 1.363 1_545 S
N205 C207 1.356 . S
N205 H217 0.984 . S
N205 H218 0.985 . S
N206 C208 1.356 . S
N206 H211 0.984 . S
N206 H212 0.985 . S
C207 C201 1.379 . S
C207 C204 1.363 1_565 S
C207 N205 1.356 . S
C208 C202 1.363 . S
C208 C203 1.379 . S
C208 N206 1.356 . S
N209 C201 1.356 . S
N209 H215 0.984 . S
N209 H216 0.984 . S
N210 C203 1.356 . S
N210 H213 0.984 . S
N210 H214 0.985 . S
H211 N206 0.984 . S
H212 N206 0.985 . S
H213 N210 0.984 . S
H214 N210 0.985 . S
H215 N209 0.984 . S
H216 N209 0.984 . S
H217 N205 0.984 . S
H218 N205 0.985 . S
C219 C220 1.363 . S
C219 C225 1.379 . S
C219 N227 1.356 . S
C220 C219 1.363 . S
C220 C226 1.363 . S
C221 C222 1.363 . S
C221 C226 1.379 . S
C221 N228 1.356 . S
C222 C221 1.363 . S
C222 C225 1.363 . S
N223 C225 1.356 . S
N223 H235 0.984 . S
N223 H236 0.985 . S
N224 C226 1.356 . S
N224 H229 0.984 . S
N224 H230 0.985 . S
C225 C219 1.379 . S
C225 C222 1.363 . S
C225 N223 1.356 . S
C226 C220 1.363 . S
C226 C221 1.379 . S
C226 N224 1.356 . S
N227 C219 1.356 . S
N227 H233 0.984 . S
N227 H234 0.984 . S
N228 C221 1.356 . S
N228 H231 0.984 . S
N228 H232 0.985 . S
H229 N224 0.984 . S
H230 N224 0.985 . S
H231 N228 0.984 . S
H232 N228 0.985 . S
H233 N227 0.984 . S
H234 N227 0.984 . S
H235 N223 0.984 . S
H236 N223 0.985 . S
C237 C238 1.363 . S
C237 C243 1.379 . S
C237 N245 1.356 . S
C238 C237 1.363 . S
C238 C244 1.363 1_655 S
C239 C240 1.363 . S
C239 C244 1.379 . S
C239 N246 1.356 . S
C240 C239 1.363 . S
C240 C243 1.363 1_455 S
N241 C243 1.356 . S
N241 H253 0.984 . S
N241 H254 0.985 . S
N242 C244 1.356 . S
N242 H247 0.984 . S
N242 H248 0.985 . S
C243 C237 1.379 . S
C243 C240 1.363 1_655 S
C243 N241 1.356 . S
C244 C238 1.363 1_455 S
C244 C239 1.379 . S
C244 N242 1.356 . S
N245 C237 1.356 . S
N245 H251 0.984 . S
N245 H252 0.984 . S
N246 C239 1.356 . S
N246 H249 0.984 . S
N246 H250 0.985 . S
H247 N242 0.984 . S
H248 N242 0.985 . S
H249 N246 0.984 . S
H250 N246 0.985 . S
H251 N245 0.984 . S
H252 N245 0.984 . S
H253 N241 0.984 . S
H254 N241 0.985 . S
C255 C256 1.363 . S
C255 C261 1.379 . S
C255 N263 1.356 . S
C256 C255 1.363 . S
C256 C262 1.363 1_565 S
C257 C258 1.363 . S
C257 C262 1.379 . S
C257 N264 1.356 . S
C258 C257 1.363 . S
C258 C261 1.363 1_545 S
N259 C261 1.356 . S
N259 H271 0.984 . S
N259 H272 0.985 . S
N260 C262 1.356 . S
N260 H265 0.984 . S
N260 H266 0.985 . S
C261 C255 1.379 . S
C261 C258 1.363 1_565 S
C261 N259 1.356 . S
C262 C256 1.363 1_545 S
C262 C257 1.379 . S
C262 N260 1.356 . S
N263 C255 1.356 . S
N263 H269 0.984 . S
N263 H270 0.984 . S
N264 C257 1.356 . S
N264 H267 0.984 . S
N264 H268 0.985 . S
H265 N260 0.984 . S
H266 N260 0.985 . S
H267 N264 0.984 . S
H268 N264 0.985 . S
H269 N263 0.984 . S
H270 N263 0.984 . S
H271 N259 0.984 . S
H272 N259 0.985 . S
C273 C274 1.363 . S
C273 C279 1.379 . S
C273 N281 1.356 . S
C274 C273 1.363 . S
C274 C280 1.363 . S
C275 C276 1.363 . S
C275 C280 1.379 . S
C275 N282 1.356 . S
C276 C275 1.363 . S
C276 C279 1.363 . S
N277 C279 1.356 . S
N277 H289 0.984 . S
N277 H290 0.985 . S
N278 C280 1.356 . S
N278 H283 0.984 . S
N278 H284 0.985 . S
C279 C273 1.379 . S
C279 C276 1.363 . S
C279 N277 1.356 . S
C280 C274 1.363 . S
C280 C275 1.379 . S
C280 N278 1.356 . S
N281 C273 1.356 . S
N281 H287 0.984 . S
N281 H288 0.984 . S
N282 C275 1.356 . S
N282 H285 0.984 . S
N282 H286 0.985 . S
H283 N278 0.984 . S
H284 N278 0.985 . S
H285 N282 0.984 . S
H286 N282 0.985 . S
H287 N281 0.984 . S
H288 N281 0.984 . S
H289 N277 0.984 . S
H290 N277 0.985 . S
C291 C292 1.363 1_545 S
C291 C297 1.379 . S
C291 N299 1.356 . S
C292 C291 1.363 1_565 S
C292 C298 1.363 . S
C293 C294 1.362 1_565 S
C293 C298 1.379 . S
C293 N300 1.356 . S
C294 C293 1.362 1_545 S
C294 C297 1.363 . S
N295 C297 1.356 . S
N295 H307 0.984 . S
N295 H308 0.985 . S
N296 C298 1.356 . S
N296 H301 0.984 . S
N296 H302 0.985 . S
C297 C291 1.379 . S
C297 C294 1.363 . S
C297 N295 1.356 . S
C298 C292 1.363 . S
C298 C293 1.379 . S
C298 N296 1.356 . S
N299 C291 1.356 . S
N299 H305 0.984 . S
N299 H306 0.984 . S
N300 C293 1.356 . S
N300 H303 0.984 . S
N300 H304 0.985 . S
H301 N296 0.984 . S
H302 N296 0.985 . S
H303 N300 0.984 . S
H304 N300 0.985 . S
H305 N299 0.984 . S
H306 N299 0.984 . S
H307 N295 0.984 . S
H308 N295 0.985 . S
C309 C310 1.363 . S
C309 C315 1.379 . S
C309 N317 1.356 . S
C310 C309 1.363 . S
C310 C316 1.363 . S
C311 C312 1.363 . S
C311 C316 1.379 . S
C311 N318 1.356 . S
C312 C311 1.363 . S
C312 C315 1.363 . S
N313 C315 1.356 . S
N313 H325 0.984 . S
N313 H326 0.985 . S
N314 C316 1.356 1_554 S
N314 H319 0.984 . S
N314 H320 0.985 . S
C315 C309 1.379 . S
C315 C312 1.363 . S
C315 N313 1.356 . S
C316 C310 1.363 . S
C316 C311 1.379 . S
C316 N314 1.356 1_556 S
N317 C309 1.356 . S
N317 H323 0.984 . S
N317 H324 0.984 . S
N318 C311 1.356 . S
N318 H321 0.984 . S
N318 H322 0.985 . S
H319 N314 0.984 . S
H320 N314 0.985 . S
H321 N318 0.984 . S
H322 N318 0.985 . S
H323 N317 0.984 . S
H324 N317 0.984 . S
H325 N313 0.984 . S
H326 N313 0.985 . S
C327 C328 1.363 . S
C327 C333 1.379 . S
C327 N335 1.356 . S
C328 C327 1.363 . S
C328 C334 1.363 1_455 S
C329 C330 1.363 1_655 S
C329 C334 1.379 . S
C329 N336 1.356 . S
C330 C329 1.363 1_455 S
C330 C333 1.363 . S
N331 C333 1.356 . S
N331 H343 0.984 . S
N331 H344 0.985 . S
N332 C334 1.356 . S
N332 H337 0.984 . S
N332 H338 0.985 . S
C333 C327 1.379 . S
C333 C330 1.363 . S
C333 N331 1.356 . S
C334 C328 1.363 1_655 S
C334 C329 1.379 . S
C334 N332 1.356 . S
N335 C327 1.356 . S
N335 H341 0.984 . S
N335 H342 0.984 . S
N336 C329 1.356 . S
N336 H339 0.984 . S
N336 H340 0.985 . S
H337 N332 0.984 . S
H338 N332 0.985 . S
H339 N336 0.984 . S
H340 N336 0.985 . S
H341 N335 0.984 . S
H342 N335 0.984 . S
H343 N331 0.984 . S
H344 N331 0.985 . S
C345 C346 1.363 . S
C345 C351 1.379 . S
C345 N353 1.356 . S
C346 C345 1.363 . S
C346 C352 1.363 1_545 S
C347 C348 1.363 1_565 S
C347 C352 1.379 . S
C347 N354 1.356 . S
C348 C347 1.363 1_545 S
C348 C351 1.363 . S
N349 C351 1.356 . S
N349 H361 0.984 . S
N349 H362 0.985 . S
N350 C352 1.356 . S
N350 H355 0.984 . S
N350 H356 0.985 . S
C351 C345 1.379 . S
C351 C348 1.363 . S
C351 N349 1.356 . S
C352 C346 1.363 1_565 S
C352 C347 1.379 . S
C352 N350 1.356 . S
N353 C345 1.356 . S
N353 H359 0.984 . S
N353 H360 0.984 . S
N354 C347 1.356 . S
N354 H357 0.984 . S
N354 H358 0.985 . S
H355 N350 0.984 . S
H356 N350 0.985 . S
H357 N354 0.984 . S
H358 N354 0.985 . S
H359 N353 0.984 . S
H360 N353 0.984 . S
H361 N349 0.984 . S
H362 N349 0.985 . S
C363 C364 1.363 . S
C363 C369 1.379 . S
C363 N371 1.356 1_556 S
C364 C363 1.363 . S
C364 C370 1.363 . S
C365 C366 1.363 . S
C365 C370 1.379 . S
C365 N372 1.356 . S
C366 C365 1.363 . S
C366 C369 1.363 . S
N367 C369 1.356 . S
N367 H379 0.984 . S
N367 H380 0.985 . S
N368 C370 1.356 . S
N368 H373 0.984 . S
N368 H374 0.985 . S
C369 C363 1.379 . S
C369 C366 1.363 . S
C369 N367 1.356 . S
C370 C364 1.363 . S
C370 C365 1.379 . S
C370 N368 1.356 . S
N371 C363 1.356 1_554 S
N371 H377 0.984 . S
N371 H378 0.984 . S
N372 C365 1.356 . S
N372 H375 0.984 . S
N372 H376 0.985 . S
H373 N368 0.984 . S
H374 N368 0.985 . S
H375 N372 0.984 . S
H376 N372 0.985 . S
H377 N371 0.984 . S
H378 N371 0.984 . S
H379 N367 0.984 . S
H380 N367 0.985 . S
C381 C382 1.363 . S
C381 C387 1.379 . S
C381 N389 1.356 . S
C382 C381 1.363 . S
C382 C388 1.363 1_655 S
C383 C384 1.363 . S
C383 C388 1.379 . S
C383 N390 1.356 . S
C384 C383 1.363 . S
C384 C387 1.363 1_455 S
N385 C387 1.356 . S
N385 H397 0.984 . S
N385 H398 0.985 . S
N386 C388 1.356 . S
N386 H391 0.984 . S
N386 H392 0.985 . S
C387 C381 1.379 . S
C387 C384 1.363 1_655 S
C387 N385 1.356 . S
C388 C382 1.363 1_455 S
C388 C383 1.379 . S
C388 N386 1.356 . S
N389 C381 1.356 . S
N389 H395 0.984 . S
N389 H396 0.984 . S
N390 C383 1.356 . S
N390 H393 0.984 . S
N390 H394 0.985 . S
H391 N386 0.984 . S
H392 N386 0.985 . S
H393 N390 0.984 . S
H394 N390 0.985 . S
H395 N389 0.984 . S
H396 N389 0.984 . S
H397 N385 0.984 . S
H398 N385 0.985 . S
C186 C60 1.526 . S
C184 C10 1.527 . S
C202 C17 1.527 . S
C204 C108 1.526 . S
C220 C36 1.528 . S
C222 C180 1.526 . S
C238 C5 1.529 . S
C240 C84 1.525 . S
C258 C132 1.525 . S
C256 C16 1.529 . S
C274 C31 1.528 . S
C276 C156 1.526 . S
C294 C117 1.521 1_545 S
C292 C30 1.527 . S
C310 C3 1.528 1_556 S
C312 C171 1.527 . S
C330 C75 1.528 . S
C328 C18 1.529 . S
C348 C123 1.521 1_545 S
C346 C29 1.529 . S
C366 C165 1.521 . S
C364 C4 1.528 1_556 S
C382 C23 1.527 . S
C384 C69 1.521 1_455 S
