# Generated by pormake.
# Topology apo, (3,6)-cn, num edge types: 1
# Building blocks:
#     Node 0, Type 0, BuildingBlock: BETDIP_clean_linker_0, # of connection points: 3
#     Node 1, Type 0, BuildingBlock: BETDIP_clean_linker_0, # of connection points: 3
#     Node 2, Type 0, BuildingBlock: BETDIP_clean_linker_0, # of connection points: 3
#     Node 3, Type 0, BuildingBlock: BETDIP_clean_linker_0, # of connection points: 3
#     Node 4, Type 0, BuildingBlock: BETDIP_clean_linker_0, # of connection points: 3
#     Node 5, Type 0, BuildingBlock: BETDIP_clean_linker_0, # of connection points: 3
#     Node 6, Type 0, BuildingBlock: BETDIP_clean_linker_0, # of connection points: 3
#     Node 7, Type 0, BuildingBlock: BETDIP_clean_linker_0, # of connection points: 3
#     Node 8, Type 1, BuildingBlock: KUMJIN_clean_sbu_1, # of connection points: 6
#     Node 9, Type 1, BuildingBlock: KUMJIN_clean_sbu_1, # of connection points: 6
#     Node 10, Type 1, BuildingBlock: KUMJIN_clean_sbu_1, # of connection points: 6
#     Node 11, Type 1, BuildingBlock: KUMJIN_clean_sbu_1, # of connection points: 6
#     Edge 12, Type (0, 1), BuildingBlock: XIVTED_clean_linker_0, # of connection points: 2
#     Edge 13, Type (0, 1), BuildingBlock: XIVTED_clean_linker_0, # of connection points: 2
#     Edge 14, Type (0, 1), BuildingBlock: XIVTED_clean_linker_0, # of connection points: 2
#     Edge 15, Type (0, 1), BuildingBlock: XIVTED_clean_linker_0, # of connection points: 2
#     Edge 16, Type (0, 1), BuildingBlock: XIVTED_clean_linker_0, # of connection points: 2
#     Edge 17, Type (0, 1), BuildingBlock: XIVTED_clean_linker_0, # of connection points: 2
#     Edge 18, Type (0, 1), BuildingBlock: XIVTED_clean_linker_0, # of connection points: 2
#     Edge 19, Type (0, 1), BuildingBlock: XIVTED_clean_linker_0, # of connection points: 2
#     Edge 20, Type (0, 1), BuildingBlock: XIVTED_clean_linker_0, # of connection points: 2
#     Edge 21, Type (0, 1), BuildingBlock: XIVTED_clean_linker_0, # of connection points: 2
#     Edge 22, Type (0, 1), BuildingBlock: XIVTED_clean_linker_0, # of connection points: 2
#     Edge 23, Type (0, 1), BuildingBlock: XIVTED_clean_linker_0, # of connection points: 2
#     Edge 24, Type (0, 1), BuildingBlock: XIVTED_clean_linker_0, # of connection points: 2
#     Edge 25, Type (0, 1), BuildingBlock: XIVTED_clean_linker_0, # of connection points: 2
#     Edge 26, Type (0, 1), BuildingBlock: XIVTED_clean_linker_0, # of connection points: 2
#     Edge 27, Type (0, 1), BuildingBlock: XIVTED_clean_linker_0, # of connection points: 2
#     Edge 28, Type (0, 1), BuildingBlock: XIVTED_clean_linker_0, # of connection points: 2
#     Edge 29, Type (0, 1), BuildingBlock: XIVTED_clean_linker_0, # of connection points: 2
#     Edge 30, Type (0, 1), BuildingBlock: XIVTED_clean_linker_0, # of connection points: 2
#     Edge 31, Type (0, 1), BuildingBlock: XIVTED_clean_linker_0, # of connection points: 2
#     Edge 32, Type (0, 1), BuildingBlock: XIVTED_clean_linker_0, # of connection points: 2
#     Edge 33, Type (0, 1), BuildingBlock: XIVTED_clean_linker_0, # of connection points: 2
#     Edge 34, Type (0, 1), BuildingBlock: XIVTED_clean_linker_0, # of connection points: 2
#     Edge 35, Type (0, 1), BuildingBlock: XIVTED_clean_linker_0, # of connection points: 2
# Relax obj value: 0.037
# Max RMSD: 0.198
# Mean RMSD: 0.156
data_MOF--net-apo--node1-KUMJIN_clean_sbu_1--node2-BETDIP_clean_linker_0--edge1-XIVTED_clean_linker_0
_symmetry_space_group_name_H-M    P1
_symmetry_Int_Tables_number       1
_symmetry_cell_setting            triclinic
loop_
_symmetry_equiv_pos_as_xyz
'x, y, z'
_cell_length_a     27.463737
_cell_length_b     42.425951
_cell_length_c     52.350864
_cell_angle_alpha  90.025706
_cell_angle_beta   90.020787
_cell_angle_gamma 90.563783
loop_
_atom_site_label
_atom_site_type_symbol
_atom_site_fract_x
_atom_site_fract_y
_atom_site_fract_z
_atom_type_partial_charge
H0 H 0.26958 0.33772 0.44115 0.0
H1 H 0.27629 0.37693 0.36538 0.0
H2 H 0.35918 0.4195 0.42587 0.0
H3 H 0.19432 0.35787 0.36653 0.0
C4 C 0.20308 0.33431 0.37315 0.0
C5 C 0.28336 0.3555 0.4281 0.0
C6 C 0.31642 0.37872 0.43681 0.0
C7 C 0.26793 0.35503 0.40249 0.0
C8 C 0.28646 0.37775 0.38536 0.0
C9 C 0.32011 0.40066 0.39364 0.0
C10 C 0.33444 0.40112 0.41936 0.0
N11 N 0.23568 0.33068 0.39406 0.0
H12 H 0.24743 0.15331 0.94663 0.0
H13 H 0.22492 0.12255 0.86908 0.0
H14 H 0.15551 0.07269 0.93033 0.0
H15 H 0.30238 0.14266 0.86577 0.0
C16 C 0.29813 0.1651 0.87549 0.0
C17 C 0.23024 0.13733 0.93315 0.0
C18 C 0.20065 0.11224 0.94199 0.0
C19 C 0.23997 0.14099 0.90693 0.0
C20 C 0.21882 0.1197 0.88938 0.0
C21 C 0.1884 0.09508 0.89778 0.0
C22 C 0.17906 0.09177 0.92397 0.0
N23 N 0.27083 0.16622 0.89861 0.0
H24 H 0.76871 0.17479 0.57226 0.0
H25 H 0.77597 0.12476 0.64347 0.0
H26 H 0.85535 0.09116 0.57842 0.0
H27 H 0.7077 0.14858 0.65207 0.0
C28 C 0.70959 0.17135 0.64269 0.0
C29 C 0.78226 0.15527 0.58346 0.0
C30 C 0.81337 0.13312 0.57223 0.0
C31 C 0.76754 0.15212 0.60893 0.0
C32 C 0.7858 0.12706 0.62358 0.0
C33 C 0.8174 0.10483 0.61279 0.0
C34 C 0.83043 0.10781 0.58692 0.0
N35 N 0.73572 0.17506 0.61941 0.0
H36 H 0.74456 0.32859 0.07031 0.0
H37 H 0.73243 0.37499 0.14275 0.0
H38 H 0.65278 0.40978 0.07809 0.0
H39 H 0.80341 0.35245 0.15036 0.0
C40 C 0.8008 0.32963 0.14105 0.0
C41 C 0.72918 0.34719 0.08188 0.0
C42 C 0.69725 0.36911 0.0709 0.0
C43 C 0.7426 0.34933 0.10759 0.0
C44 C 0.72295 0.37341 0.12276 0.0
C45 C 0.69068 0.39552 0.11235 0.0
C46 C 0.67833 0.39331 0.08627 0.0
N47 N 0.77457 0.32627 0.11776 0.0
H48 H 0.73493 0.65686 0.56849 0.0
H49 H 0.70777 0.6284 0.64605 0.0
H50 H 0.65011 0.57299 0.58436 0.0
H51 H 0.70606 0.68506 0.64932 0.0
C52 C 0.7408 0.68907 0.63985 0.0
C53 C 0.71808 0.64063 0.58187 0.0
C54 C 0.69152 0.61426 0.57287 0.0
C55 C 0.7232 0.64628 0.60819 0.0
C56 C 0.70253 0.62488 0.62574 0.0
C57 C 0.67707 0.59804 0.61717 0.0
C58 C 0.67129 0.59315 0.59082 0.0
N59 N 0.75078 0.67293 0.61664 0.0
H60 H 0.77281 0.83897 0.06691 0.0
H61 H 0.79528 0.87049 0.14408 0.0
H62 H 0.85767 0.92293 0.0819 0.0
H63 H 0.80371 0.81214 0.14682 0.0
C64 C 0.76802 0.80828 0.13831 0.0
C65 C 0.78896 0.85571 0.08013 0.0
C66 C 0.81571 0.88183 0.07091 0.0
C67 C 0.7829 0.851 0.10651 0.0
C68 C 0.80207 0.87329 0.12382 0.0
C69 C 0.8279 0.89985 0.11501 0.0
C70 C 0.8356 0.90334 0.08864 0.0
N71 N 0.75597 0.82435 0.11536 0.0
H72 H 0.22994 0.82332 0.43557 0.0
H73 H 0.22788 0.87151 0.36367 0.0
H74 H 0.15021 0.90979 0.42763 0.0
H75 H 0.23399 0.82306 0.3481 0.0
C76 C 0.25885 0.81138 0.36107 0.0
C77 C 0.2175 0.84285 0.42402 0.0
C78 C 0.18905 0.86676 0.435 0.0
C79 C 0.23014 0.84373 0.39814 0.0
C80 C 0.21569 0.86955 0.38324 0.0
C81 C 0.18649 0.89344 0.39351 0.0
C82 C 0.17353 0.89192 0.41954 0.0
N83 N 0.25768 0.81854 0.38763 0.0
H84 H 0.27202 0.67458 0.93589 0.0
H85 H 0.2715 0.62631 0.86373 0.0
H86 H 0.35 0.58766 0.92718 0.0
H87 H 0.26982 0.67602 0.84901 0.0
C88 C 0.24385 0.68736 0.86158 0.0
C89 C 0.28288 0.65469 0.92428 0.0
C90 C 0.31205 0.63091 0.93482 0.0
C91 C 0.2697 0.6539 0.89843 0.0
C92 C 0.28377 0.6281 0.88332 0.0
C93 C 0.31289 0.60409 0.89343 0.0
C94 C 0.32698 0.60579 0.91922 0.0
N95 N 0.24284 0.67942 0.88798 0.0
Eu96 Eu 0.06466 0.11044 0.23035 0.0
C97 C 0.85559 0.0778 0.25671 0.0
N98 N 0.87849 0.10619 0.25949 0.0
C99 C 0.81239 0.13169 0.23808 0.0
C100 C 0.81108 0.07515 0.24337 0.0
C101 C 0.85611 0.13317 0.25174 0.0
C102 C 0.79021 0.1025 0.23346 0.0
C103 C 0.85116 0.02206 0.26722 0.0
C104 C 0.87521 0.05152 0.26851 0.0
C105 C 0.80798 0.01909 0.25303 0.0
C106 C 0.78803 0.04557 0.2411 0.0
Eu107 Eu 0.95409 0.10534 0.28146 0.0
N108 N 0.91762 0.05487 0.28161 0.0
C109 C 0.87099 0.99656 0.28052 0.0
C110 C 0.93597 0.03061 0.29563 0.0
C111 C 0.91325 1.00097 0.29506 0.0
H112 H 0.87122 0.156 0.25643 0.0
H113 H 0.92836 0.98155 0.30575 0.0
H114 H 0.15864 0.08395 0.26407 0.0
H115 H 0.04658 0.22291 0.17987 0.0
H116 H 0.96865 0.03413 0.30683 0.0
H117 H 0.85357 0.97354 0.28002 0.0
H118 H 0.0292 0.16686 0.18847 0.0
H119 H 0.79542 0.15313 0.2315 0.0
H120 H 0.78925 0.99657 0.25155 0.0
H121 H 0.75408 0.04306 0.23071 0.0
H122 H 0.23456 0.10471 0.2837 0.0
H123 H 0.75607 0.10147 0.2231 0.0
H124 H 0.11395 0.25009 0.20259 0.0
N125 N 0.13814 0.12829 0.2489 0.0
C126 C 0.15081 0.15888 0.24483 0.0
C127 C 0.21115 0.12024 0.27297 0.0
C128 C 0.19348 0.1718 0.25573 0.0
C129 C 0.16825 0.10856 0.26191 0.0
C130 C 0.22353 0.15209 0.27014 0.0
N131 N 0.08181 0.16327 0.21814 0.0
C132 C 0.05681 0.17885 0.19955 0.0
C133 C 0.13387 0.20876 0.22432 0.0
C134 C 0.12124 0.17706 0.22938 0.0
C135 C 0.1055 0.22569 0.20698 0.0
C136 C 0.06737 0.21047 0.19418 0.0
H137 H 0.25667 0.16111 0.27881 0.0
H138 H 0.23733 0.2142 0.26012 0.0
H139 H 0.18517 0.24658 0.23257 0.0
O140 O 0.1002 0.11215 0.19257 0.0
O141 O 0.07379 0.13024 0.27064 0.0
O142 O 0.9989 0.15045 0.27973 0.0
O143 O 0.09949 0.06854 0.21483 0.0
O144 O 0.99126 0.1309 0.21846 0.0
O145 O 0.95778 0.14887 0.25618 0.0
O146 O 0.96438 0.10403 0.32287 0.0
O147 O 0.97099 0.06476 0.2544 0.0
O148 O 0.99141 0.09105 0.2181 0.0
O149 O 0.89601 0.11948 0.30733 0.0
O150 O 0.02605 0.08541 0.29444 0.0
O151 O 0.06629 0.06844 0.25786 0.0
C152 C 0.04657 0.1519 0.28119 0.0
C153 C 0.14069 0.06649 0.17371 0.0
C154 C 0.16679 0.06092 0.12916 0.0
C155 C 0.19315 0.03398 0.13621 0.0
C156 C 0.16688 0.03933 0.18001 0.0
C157 C 0.19314 0.02335 0.16139 0.0
C158 C 0.14107 0.07744 0.14823 0.0
C159 C 0.96404 0.15086 0.23128 0.0
C160 C 0.11293 0.08276 0.1939 0.0
C161 C 0.205 0.20372 0.25166 0.0
C162 C 0.17521 0.22218 0.23602 0.0
C163 C 0.9705 0.06703 0.22945 0.0
C164 C 0.92241 0.14314 0.34557 0.0
C165 C 0.91036 0.16371 0.38872 0.0
C166 C 0.92047 0.19426 0.37941 0.0
C167 C 0.93284 0.17368 0.33679 0.0
C168 C 0.91175 0.13818 0.37147 0.0
C169 C 0.93192 0.19908 0.3537 0.0
C170 C 0.05697 0.06683 0.28266 0.0
C171 C 0.92223 0.11631 0.32784 0.0
H172 H 0.21416 0.02111 0.12222 0.0
H173 H 0.16736 0.03051 0.19943 0.0
H174 H 0.21351 0.00257 0.16648 0.0
H175 H 0.12035 0.09813 0.14315 0.0
H176 H 0.91882 0.2146 0.39185 0.0
H177 H 0.94128 0.17788 0.31687 0.0
H178 H 0.90489 0.11436 0.37809 0.0
H179 H 0.93965 0.22265 0.3468 0.0
Eu180 Eu 0.43957 0.38783 0.73292 0.0
C181 C 0.63127 0.44482 0.76919 0.0
N182 N 0.62121 0.41379 0.76543 0.0
C183 C 0.69427 0.40811 0.74094 0.0
C184 C 0.67235 0.45917 0.75781 0.0
C185 C 0.65284 0.39499 0.75247 0.0
C186 C 0.7037 0.44043 0.7433 0.0
C187 C 0.61096 0.49405 0.78984 0.0
C188 C 0.60085 0.46195 0.78494 0.0
C189 C 0.65051 0.5089 0.77759 0.0
C190 C 0.68119 0.49148 0.76164 0.0
Eu191 Eu 0.54968 0.39355 0.78453 0.0
N192 N 0.56326 0.44677 0.79672 0.0
C193 C 0.58204 0.50994 0.80759 0.0
C194 C 0.53796 0.46139 0.81568 0.0
C195 C 0.54599 0.49335 0.82093 0.0
H196 H 0.64524 0.37004 0.75057 0.0
H197 H 0.52485 0.50504 0.83552 0.0
H198 H 0.36031 0.44462 0.75076 0.0
H199 H 0.39837 0.26366 0.71625 0.0
H200 H 0.5119 0.44839 0.82704 0.0
H201 H 0.58855 0.53461 0.81188 0.0
H202 H 0.4443 0.31403 0.71156 0.0
H203 H 0.71876 0.39334 0.73017 0.0
H204 H 0.6585 0.53363 0.7809 0.0
H205 H 0.71223 0.50306 0.7528 0.0
H206 H 0.2834 0.44857 0.77474 0.0
H207 H 0.73569 0.45056 0.73426 0.0
H208 H 0.32414 0.26163 0.74308 0.0
N209 N 0.36273 0.39454 0.7529 0.0
C210 C 0.33732 0.36775 0.75836 0.0
C211 C 0.2985 0.42566 0.7706 0.0
C212 C 0.29232 0.36884 0.77129 0.0
C213 C 0.34257 0.42332 0.7574 0.0
C214 C 0.27371 0.39828 0.77804 0.0
N215 N 0.39675 0.33946 0.73581 0.0
C216 C 0.41162 0.31314 0.72308 0.0
C217 C 0.32735 0.31132 0.75257 0.0
C218 C 0.35448 0.33937 0.74918 0.0
C219 C 0.34398 0.28368 0.74096 0.0
C220 C 0.38583 0.28473 0.72576 0.0
H221 H 0.23928 0.40015 0.78801 0.0
H222 H 0.23213 0.34104 0.78626 0.0
H223 H 0.26287 0.29062 0.76985 0.0
O224 O 0.45296 0.38126 0.69221 0.0
O225 O 0.45538 0.34765 0.76046 0.0
O226 O 0.47794 0.37182 0.79769 0.0
O227 O 0.38617 0.4027 0.70436 0.0
O228 O 0.5109 0.36495 0.72112 0.0
O229 O 0.55069 0.35074 0.7586 0.0
O230 O 0.58629 0.3951 0.82229 0.0
O231 O 0.55783 0.41148 0.74352 0.0
O232 O 0.4841 0.43295 0.7343 0.0
O233 O 0.58869 0.35276 0.79846 0.0
O234 O 0.47533 0.41169 0.79629 0.0
O235 O 0.44454 0.43131 0.75863 0.0
C236 C 0.45534 0.34893 0.7855 0.0
C237 C 0.41721 0.41689 0.66376 0.0
C238 C 0.40972 0.42766 0.61809 0.0
C239 C 0.4307 0.45765 0.6222 0.0
C240 C 0.438 0.44685 0.66749 0.0
C241 C 0.44455 0.46714 0.64675 0.0
C242 C 0.40289 0.40745 0.63913 0.0
C243 C 0.54192 0.3474 0.73396 0.0
C244 C 0.41277 0.39446 0.68498 0.0
C245 C 0.26648 0.34071 0.77609 0.0
C246 C 0.28393 0.31199 0.76671 0.0
C247 C 0.53173 0.4337 0.73295 0.0
C248 C 0.63278 0.34994 0.83832 0.0
C249 C 0.65872 0.33956 0.88217 0.0
C250 C 0.69011 0.31615 0.87294 0.0
C251 C 0.66427 0.32635 0.82966 0.0
C252 C 0.63057 0.35685 0.86463 0.0
C253 C 0.69294 0.30974 0.84688 0.0
C254 C 0.4479 0.43168 0.78374 0.0
C255 C 0.60182 0.3664 0.81966 0.0
H256 H 0.43609 0.47385 0.60644 0.0
H257 H 0.4495 0.45437 0.68634 0.0
H258 H 0.46071 0.49024 0.64969 0.0
H259 H 0.3877 0.38402 0.63628 0.0
H260 H 0.71273 0.30284 0.88592 0.0
H261 H 0.66683 0.32077 0.80951 0.0
H262 H 0.60593 0.37477 0.87148 0.0
H263 H 0.71725 0.29169 0.84001 0.0
Eu264 Eu 0.0548 0.89193 0.72752 0.0
C265 C 0.83801 0.86515 0.76345 0.0
N266 N 0.86145 0.89324 0.76024 0.0
C267 C 0.79196 0.91434 0.73879 0.0
C268 C 0.7904 0.86048 0.75396 0.0
C269 C 0.83924 0.91781 0.74833 0.0
C270 C 0.76744 0.88554 0.74156 0.0
C271 C 0.83924 0.81107 0.77846 0.0
C272 C 0.86253 0.84064 0.77536 0.0
C273 C 0.79195 0.8063 0.76887 0.0
C274 C 0.76761 0.83093 0.75667 0.0
Eu275 Eu 0.94068 0.8973 0.77719 0.0
N276 N 0.90868 0.84576 0.78418 0.0
C277 C 0.86379 0.78727 0.7915 0.0
C278 C 0.93102 0.82331 0.79861 0.0
C279 C 0.90954 0.7936 0.80197 0.0
H280 H 0.85787 0.94022 0.74648 0.0
H281 H 0.92792 0.77578 0.81307 0.0
H282 H 0.14033 0.85665 0.76256 0.0
H283 H 0.05562 0.00997 0.68432 0.0
H284 H 0.96458 0.82822 0.80842 0.0
H285 H 0.84713 0.76427 0.79429 0.0
H286 H 0.02725 0.95555 0.69017 0.0
H287 H 0.77445 0.93386 0.72932 0.0
H288 H 0.77372 0.78369 0.77098 0.0
H289 H 0.73116 0.82685 0.74938 0.0
H290 H 0.22054 0.86962 0.78166 0.0
H291 H 0.7309 0.88286 0.734 0.0
H292 H 0.12995 0.02874 0.70642 0.0
N293 N 0.13022 0.90246 0.74737 0.0
C294 C 0.14949 0.93176 0.74349 0.0
C295 C 0.20082 0.88733 0.77111 0.0
C296 C 0.19504 0.94019 0.75408 0.0
C297 C 0.15539 0.88008 0.76047 0.0
C298 C 0.22065 0.91754 0.76801 0.0
N299 N 0.07946 0.94467 0.71887 0.0
C300 C 0.05713 0.96393 0.70165 0.0
C301 C 0.1421 0.98422 0.72549 0.0
C302 C 0.1229 0.9536 0.72944 0.0
C303 C 0.11642 0.00505 0.70991 0.0
C304 C 0.07427 0.99463 0.69755 0.0
H305 H 0.25575 0.92313 0.77641 0.0
H306 H 0.24808 0.97786 0.75887 0.0
H307 H 0.20193 0.01633 0.73377 0.0
O308 O 0.07228 0.89081 0.68604 0.0
O309 O 0.06708 0.91347 0.76732 0.0
O310 O 0.9943 0.93735 0.77277 0.0
O311 O 0.10838 0.85942 0.71293 0.0
O312 O 0.9855 0.91496 0.71294 0.0
O313 O 0.95315 0.93762 0.7493 0.0
O314 O 0.93762 0.8996 0.81974 0.0
O315 O 0.92527 0.87421 0.7388 0.0
O316 O 0.99753 0.85267 0.72452 0.0
O317 O 0.8906 0.92865 0.79597 0.0
O318 O 0.00877 0.87113 0.79034 0.0
O319 O 0.03744 0.85031 0.7527 0.0
C320 C 0.04035 0.93498 0.77844 0.0
C321 C 0.13462 0.85474 0.66904 0.0
C322 C 0.15529 0.8464 0.62407 0.0
C323 C 0.19213 0.82563 0.63166 0.0
C324 C 0.17193 0.83392 0.67597 0.0
C325 C 0.20046 0.8196 0.65741 0.0
C326 C 0.1268 0.86132 0.64291 0.0
C327 C 0.95684 0.93549 0.72424 0.0
C328 C 0.10453 0.86887 0.68945 0.0
C329 C 0.21335 0.9709 0.7507 0.0
C330 C 0.18693 0.99285 0.73651 0.0
C331 C 0.94955 0.85367 0.72511 0.0
C332 C 0.88133 0.93639 0.84127 0.0
C333 C 0.863 0.9398 0.88696 0.0
C334 C 0.83819 0.96811 0.88236 0.0
C335 C 0.85649 0.96484 0.83743 0.0
C336 C 0.88438 0.92376 0.86618 0.0
C337 C 0.83506 0.98047 0.85783 0.0
C338 C 0.03559 0.85069 0.77772 0.0
C339 C 0.90357 0.92079 0.8189 0.0
H340 H 0.21486 0.81419 0.61759 0.0
H341 H 0.17918 0.82859 0.69584 0.0
H342 H 0.22907 0.80365 0.66301 0.0
H343 H 0.09819 0.87727 0.63724 0.0
H344 H 0.82073 0.98067 0.89782 0.0
H345 H 0.85368 0.97519 0.81858 0.0
H346 H 0.90358 0.90193 0.86942 0.0
H347 H 0.81591 0.00229 0.8546 0.0
Eu348 Eu 0.45503 0.60918 0.22763 0.0
C349 C 0.66326 0.64526 0.26169 0.0
N350 N 0.64487 0.61558 0.25898 0.0
C351 C 0.71615 0.59981 0.23611 0.0
C352 C 0.70876 0.65355 0.25102 0.0
C353 C 0.67065 0.59275 0.24675 0.0
C354 C 0.7352 0.63037 0.23814 0.0
C355 C 0.65406 0.69856 0.2776 0.0
C356 C 0.63581 0.66756 0.27463 0.0
C357 C 0.69884 0.7071 0.26649 0.0
C358 C 0.72612 0.68465 0.25326 0.0
Eu359 Eu 0.56805 0.6056 0.27749 0.0
N360 N 0.59229 0.65872 0.28506 0.0
C361 C 0.62746 0.71988 0.29229 0.0
C362 C 0.56898 0.67855 0.30146 0.0
C363 C 0.58528 0.70961 0.30471 0.0
H364 H 0.65596 0.56911 0.2452 0.0
H365 H 0.56586 0.72541 0.31725 0.0
H366 H 0.37745 0.66461 0.24708 0.0
H367 H 0.42788 0.4818 0.21658 0.0
H368 H 0.53868 0.67045 0.3128 0.0
H369 H 0.64026 0.74388 0.29505 0.0
H370 H 0.47323 0.53188 0.21418 0.0
H371 H 0.73641 0.58173 0.22628 0.0
H372 H 0.71311 0.73088 0.26839 0.0
H373 H 0.76076 0.69155 0.24496 0.0
H374 H 0.29282 0.66807 0.2629 0.0
H375 H 0.77029 0.63583 0.2297 0.0
H376 H 0.34251 0.48107 0.23155 0.0
N377 N 0.37472 0.615 0.24243 0.0
C378 C 0.34704 0.58826 0.24331 0.0
C379 C 0.30772 0.64546 0.25761 0.0
C380 C 0.29839 0.58914 0.25187 0.0
C381 C 0.35577 0.64343 0.24903 0.0
C382 C 0.27892 0.6182 0.25912 0.0
N383 N 0.41558 0.55935 0.22912 0.0
C384 C 0.4367 0.53198 0.22145 0.0
C385 C 0.3403 0.53152 0.23766 0.0
C386 C 0.36787 0.5597 0.2363 0.0
C387 C 0.36245 0.50321 0.23075 0.0
C388 C 0.41073 0.5035 0.22243 0.0
H389 H 0.2417 0.61984 0.26581 0.0
H390 H 0.23349 0.56134 0.25971 0.0
H391 H 0.27012 0.51096 0.24727 0.0
O392 O 0.45487 0.59918 0.18669 0.0
O393 O 0.44132 0.58511 0.2661 0.0
O394 O 0.5157 0.56438 0.27611 0.0
O395 O 0.40819 0.6354 0.20159 0.0
O396 O 0.52236 0.58265 0.215 0.0
O397 O 0.5604 0.56315 0.25124 0.0
O398 O 0.57608 0.60411 0.31991 0.0
O399 O 0.58039 0.6253 0.23751 0.0
O400 O 0.50901 0.65023 0.228 0.0
O401 O 0.6226 0.57629 0.29505 0.0
O402 O 0.49718 0.62931 0.28999 0.0
O403 O 0.4693 0.65154 0.25262 0.0
C404 C 0.46838 0.56515 0.27887 0.0
C405 C 0.43877 0.64224 0.15984 0.0
C406 C 0.43608 0.65526 0.11443 0.0
C407 C 0.46956 0.67998 0.11886 0.0
C408 C 0.47172 0.66718 0.16385 0.0
C409 C 0.48705 0.68593 0.14345 0.0
C410 C 0.42065 0.63647 0.13515 0.0
C411 C 0.55222 0.563 0.2264 0.0
C412 C 0.42449 0.62157 0.18115 0.0
C413 C 0.2709 0.5611 0.25315 0.0
C414 C 0.29177 0.5324 0.24606 0.0
C415 C 0.55653 0.64787 0.22603 0.0
C416 C 0.63824 0.57018 0.34015 0.0
C417 C 0.65776 0.56621 0.38574 0.0
C418 C 0.6895 0.54133 0.38009 0.0
C419 C 0.67017 0.54514 0.33531 0.0
C420 C 0.63231 0.58089 0.36554 0.0
C421 C 0.69559 0.53096 0.35512 0.0
C422 C 0.47138 0.65061 0.27769 0.0
C423 C 0.61171 0.58415 0.31828 0.0
H424 H 0.48177 0.69494 0.10332 0.0
H425 H 0.48556 0.67205 0.18275 0.0
H426 H 0.51261 0.70511 0.1467 0.0
H427 H 0.39541 0.61705 0.13199 0.0
H428 H 0.71013 0.52997 0.39508 0.0
H429 H 0.67555 0.53631 0.31611 0.0
H430 H 0.60774 0.60008 0.36961 0.0
H431 H 0.72013 0.51177 0.35109 0.0
H432 H 0.15776 0.88995 0.34326 0.0
H433 H 0.0718 0.06807 0.3341 0.0
H434 H 0.17498 0.95635 0.40526 0.0
H435 H 0.09678 0.01061 0.26742 0.0
H436 H 0.10547 0.02658 0.36082 0.0
H437 H 0.13115 0.93277 0.31569 0.0
C438 C 0.15641 0.91355 0.35109 0.0
C439 C 0.16908 0.91944 0.37672 0.0
C440 C 0.10395 0.02309 0.34034 0.0
C441 C 0.13745 0.9686 0.34515 0.0
C442 C 0.08461 0.04674 0.32504 0.0
C443 C 0.0813 0.04274 0.29846 0.0
C444 C 0.11954 0.99492 0.32911 0.0
C445 C 0.09881 0.0147 0.28781 0.0
C446 C 0.14099 0.93798 0.33529 0.0
C447 C 0.16515 0.95049 0.3858 0.0
N448 N 0.11674 0.99169 0.30321 0.0
N449 N 0.14957 0.97384 0.37007 0.0
H450 H 0.32015 0.54122 0.90545 0.0
H451 H 0.42315 0.491 0.76812 0.0
H452 H 0.34357 0.6068 0.84353 0.0
H453 H 0.41567 0.42839 0.8329 0.0
H454 H 0.38704 0.53269 0.79421 0.0
H455 H 0.34933 0.49868 0.87813 0.0
C456 C 0.33156 0.54673 0.88615 0.0
C457 C 0.32946 0.57772 0.87686 0.0
C458 C 0.39308 0.50979 0.80268 0.0
C459 C 0.36241 0.52896 0.84529 0.0
C460 C 0.4134 0.48597 0.78775 0.0
C461 C 0.42259 0.45633 0.79845 0.0
C462 C 0.38166 0.50381 0.82843 0.0
C463 C 0.40954 0.45105 0.82401 0.0
C464 C 0.34796 0.52237 0.8705 0.0
C465 C 0.34394 0.58325 0.85147 0.0
N466 N 0.38991 0.47457 0.83815 0.0
N467 N 0.35986 0.55916 0.83663 0.0
H468 H 0.62058 0.60864 0.65948 0.0
H469 H 0.61481 0.42866 0.70458 0.0
H470 H 0.68883 0.53418 0.61682 0.0
H471 H 0.5024 0.4942 0.72508 0.0
H472 H 0.65253 0.46931 0.67757 0.0
H473 H 0.58664 0.56901 0.68893 0.0
C474 C 0.62861 0.58397 0.65643 0.0
C475 C 0.65727 0.5746 0.63563 0.0
C476 C 0.61966 0.4748 0.68802 0.0
C477 C 0.61911 0.52935 0.66926 0.0
C478 C 0.59836 0.45171 0.70355 0.0
C479 C 0.55555 0.45817 0.71707 0.0
C480 C 0.59826 0.50466 0.68623 0.0
C481 C 0.53531 0.48828 0.71483 0.0
C482 C 0.6091 0.56141 0.67312 0.0
C483 C 0.66646 0.54234 0.63247 0.0
N484 N 0.55694 0.51048 0.69977 0.0
N485 N 0.64764 0.52089 0.64915 0.0
H486 H 0.82639 0.96384 0.10856 0.0
H487 H 0.95525 0.00498 0.24188 0.0
H488 H 0.86953 0.89259 0.16264 0.0
H489 H 0.93353 0.07227 0.18134 0.0
H490 H 0.91697 0.96409 0.2153 0.0
H491 H 0.85883 0.00432 0.13702 0.0
C492 C 0.84296 0.95664 0.12637 0.0
C493 C 0.84581 0.92463 0.13299 0.0
C494 C 0.92052 0.98781 0.20786 0.0
C495 C 0.8825 0.97117 0.16603 0.0
C496 C 0.94205 0.01118 0.22308 0.0
C497 C 0.94731 0.04206 0.21383 0.0
C498 C 0.90419 0.99542 0.18321 0.0
C499 C 0.93041 0.04872 0.18917 0.0
C500 C 0.86126 0.97985 0.14271 0.0
C501 C 0.86641 0.91693 0.15674 0.0
N502 N 0.90959 0.02562 0.17474 0.0
N503 N 0.88415 0.94003 0.17236 0.0
H504 H 0.83136 0.04271 0.59974 0.0
H505 H 0.92439 0.99344 0.73896 0.0
H506 H 0.8493 0.10804 0.66239 0.0
H507 H 0.93506 0.93246 0.67323 0.0
H508 H 0.88929 0.03415 0.71185 0.0
H509 H 0.86348 1.00072 0.62684 0.0
C510 C 0.84223 0.04829 0.61912 0.0
C511 C 0.83736 0.07899 0.62879 0.0
C512 C 0.89922 0.01185 0.70334 0.0
C513 C 0.87345 0.03093 0.66 0.0
C514 C 0.91902 0.98853 0.71884 0.0
C515 C 0.93291 0.95958 0.70829 0.0
C516 C 0.89289 0.00616 0.6771 0.0
C517 C 0.92519 0.95456 0.68209 0.0
C518 C 0.86031 0.02426 0.63462 0.0
C519 C 0.85146 0.08467 0.6542 0.0
N520 N 0.90576 0.97765 0.66736 0.0
N521 N 0.86873 0.0609 0.66889 0.0
H522 H 0.67344 0.45753 0.10017 0.0
H523 H 0.59349 0.5072 0.2414 0.0
H524 H 0.66065 0.39114 0.16239 0.0
H525 H 0.56376 0.5635 0.17462 0.0
H526 H 0.62786 0.46648 0.21367 0.0
H527 H 0.64125 0.49861 0.12805 0.0
C528 C 0.66361 0.45147 0.1196 0.0
C529 C 0.67 0.42072 0.12887 0.0
C530 C 0.61383 0.48779 0.20514 0.0
C531 C 0.63406 0.46792 0.16108 0.0
C532 C 0.59447 0.51109 0.22096 0.0
C533 C 0.5755 0.53872 0.21031 0.0
C534 C 0.61479 0.49235 0.17855 0.0
C535 C 0.57759 0.54247 0.18367 0.0
C536 C 0.64553 0.47502 0.13556 0.0
C537 C 0.65734 0.41456 0.15445 0.0
N538 N 0.59692 0.5196 0.16873 0.0
N539 N 0.64018 0.43793 0.16965 0.0
H540 H 0.41592 0.41613 0.3877 0.0
H541 H 0.37132 0.55869 0.29162 0.0
H542 H 0.27324 0.43772 0.3585 0.0
H543 H 0.51164 0.51607 0.30354 0.0
H544 H 0.33398 0.51737 0.31794 0.0
H545 H 0.45119 0.4557 0.35915 0.0
C546 C 0.39203 0.42927 0.37525 0.0
C547 C 0.3416 0.42377 0.37551 0.0
C548 C 0.37289 0.51703 0.31462 0.0
C549 C 0.38168 0.46919 0.34277 0.0
C550 C 0.39425 0.54055 0.2995 0.0
C551 C 0.44468 0.5407 0.29498 0.0
C552 C 0.40232 0.49389 0.32576 0.0
C553 C 0.47263 0.51697 0.30635 0.0
C554 C 0.41217 0.45174 0.35886 0.0
C555 C 0.31234 0.44119 0.35877 0.0
N556 N 0.45113 0.49467 0.32125 0.0
N557 N 0.33277 0.46335 0.34318 0.0
H558 H 0.23597 0.06072 0.86143 0.0
H559 H 0.99618 0.98548 0.80066 0.0
H560 H 0.09304 0.07713 0.89244 0.0
H561 H 0.13393 0.9376 0.79764 0.0
H562 H 0.03235 0.02463 0.82926 0.0
H563 H 0.20059 0.02119 0.83228 0.0
C564 C 0.19711 0.05613 0.86194 0.0
C565 C 0.1673 0.07213 0.87932 0.0
C566 C 0.05473 0.00564 0.8222 0.0
C567 C 0.12677 0.02729 0.8461 0.0
C568 C 0.03419 0.98324 0.80581 0.0
C569 C 0.06238 0.95845 0.79617 0.0
C570 C 0.10405 0.0036 0.82885 0.0
C571 C 0.11129 0.95679 0.80385 0.0
C572 C 0.17707 0.03348 0.84548 0.0
C573 C 0.11725 0.06517 0.87939 0.0
N574 N 0.13075 0.97922 0.81955 0.0
N575 N 0.09849 0.04343 0.86292 0.0
H576 H 0.19889 0.05509 0.9661 0.0
H577 H 0.17466 0.12093 0.10871 0.0
H578 H 0.18881 0.15472 0.98182 0.0
H579 H 0.15706 0.02333 0.0871 0.0
H580 H 0.18086 0.135 0.06319 0.0
H581 H 0.18626 0.04411 0.01106 0.0
C582 C 0.19347 0.07476 0.97895 0.0
C583 C 0.19419 0.10592 0.96989 0.0
C584 C 0.17541 0.11055 0.06849 0.0
C585 C 0.18064 0.09336 0.02212 0.0
C586 C 0.17161 0.10252 0.09444 0.0
C587 C 0.16607 0.07082 0.10181 0.0
C588 C 0.17368 0.08668 0.04985 0.0
C589 C 0.16251 0.04798 0.08246 0.0
C590 C 0.18651 0.06842 0.00479 0.0
C591 C 0.18866 0.13033 0.98787 0.0
N592 N 0.16668 0.05632 0.05753 0.0
N593 N 0.1821 0.12354 0.01313 0.0
H594 H 0.40787 0.39051 0.45563 0.0
H595 H 0.32642 0.39672 0.60249 0.0
H596 H 0.26066 0.37101 0.48018 0.0
H597 H 0.46208 0.43475 0.57393 0.0
H598 H 0.30455 0.38069 0.5589 0.0
H599 H 0.43122 0.39981 0.49995 0.0
C600 C 0.38041 0.3881 0.47036 0.0
C601 C 0.33199 0.38044 0.46406 0.0
C602 C 0.33912 0.39249 0.56221 0.0
C603 C 0.35873 0.39088 0.5151 0.0
C604 C 0.35172 0.40153 0.58708 0.0
C605 C 0.39604 0.41729 0.59186 0.0
C606 C 0.3713 0.39896 0.54198 0.0
C607 C 0.42725 0.4231 0.57112 0.0
C608 C 0.39383 0.39338 0.49571 0.0
C609 C 0.29838 0.37684 0.48412 0.0
N610 N 0.41431 0.41394 0.54716 0.0
N611 N 0.31228 0.38233 0.50872 0.0
H612 H 0.68997 0.4164 0.03512 0.0
H613 H 0.64863 0.29542 0.91958 0.0
H614 H 0.67406 0.31571 0.04399 0.0
H615 H 0.6612 0.39586 0.90842 0.0
H616 H 0.65154 0.30349 0.96563 0.0
H617 H 0.67324 0.41055 0.98932 0.0
C618 C 0.68246 0.39311 0.0275 0.0
C619 C 0.68393 0.36646 0.0434 0.0
C620 C 0.6534 0.32387 0.95322 0.0
C621 C 0.66511 0.35959 0.99101 0.0
C622 C 0.65185 0.31924 0.92688 0.0
C623 C 0.6553 0.34498 0.91015 0.0
C624 C 0.65879 0.3545 0.96308 0.0
C625 C 0.65847 0.37538 0.92068 0.0
C626 C 0.67313 0.38978 1.00134 0.0
C627 C 0.67427 0.33686 0.03242 0.0
N628 N 0.66067 0.3793 0.9465 0.0
N629 N 0.66554 0.33424 0.00697 0.0
H630 H 0.80962 0.08892 0.53424 0.0
H631 H 0.94579 0.19543 0.43089 0.0
H632 H 0.85181 0.18538 0.54904 0.0
H633 H 0.84637 0.12029 0.40959 0.0
H634 H 0.92258 0.18789 0.47548 0.0
H635 H 0.8344 0.09563 0.48948 0.0
C636 C 0.8243 0.11145 0.52804 0.0
C637 C 0.82856 0.13669 0.54523 0.0
C638 C 0.90594 0.17309 0.46098 0.0
C639 C 0.8573 0.14441 0.49438 0.0
C640 C 0.91892 0.17746 0.43544 0.0
C641 C 0.89788 0.15863 0.41618 0.0
C642 C 0.87226 0.14937 0.46749 0.0
C643 C 0.86426 0.13512 0.42362 0.0
C644 C 0.83817 0.1153 0.50255 0.0
C645 C 0.84756 0.16545 0.53628 0.0
N646 N 0.85262 0.13112 0.44866 0.0
N647 N 0.86152 0.16849 0.51149 0.0
H648 H 0.83163 0.83846 0.03216 0.0
H649 H 0.88746 0.97307 0.9295 0.0
H650 H 0.81536 0.93825 0.0456 0.0
H651 H 0.84397 0.8798 0.90526 0.0
H652 H 0.87777 0.95691 0.97384 0.0
H653 H 0.84814 0.84988 0.98685 0.0
C654 C 0.83124 0.86268 0.02567 0.0
C655 C 0.82278 0.88745 0.04297 0.0
C656 C 0.87054 0.93985 0.95888 0.0
C657 C 0.84281 0.90055 0.99143 0.0
C658 C 0.87624 0.94903 0.93355 0.0
C659 C 0.86565 0.92792 0.91364 0.0
C660 C 0.85429 0.9092 0.96459 0.0
C661 C 0.85233 0.89683 0.92006 0.0
C662 C 0.84099 0.86914 0.99986 0.0
C663 C 0.82307 0.91837 0.03335 0.0
N664 N 0.84654 0.88841 0.94506 0.0
N665 N 0.83328 0.92398 0.00841 0.0
H666 H 0.69201 0.55755 0.5477 0.0
H667 H 0.66276 0.62604 0.40651 0.0
H668 H 0.67623 0.65728 0.53395 0.0
H669 H 0.64193 0.52839 0.42691 0.0
H670 H 0.66834 0.63936 0.45228 0.0
H671 H 0.67687 0.5475 0.50272 0.0
C672 C 0.68499 0.57741 0.5353 0.0
C673 C 0.68487 0.60833 0.54491 0.0
C674 C 0.662 0.61509 0.44667 0.0
C675 C 0.66822 0.59688 0.49273 0.0
C676 C 0.65843 0.60754 0.4206 0.0
C677 C 0.65247 0.57601 0.4129 0.0
C678 C 0.65975 0.59088 0.46502 0.0
C679 C 0.6474 0.55293 0.43195 0.0
C680 C 0.67646 0.57163 0.50947 0.0
C681 C 0.67701 0.63306 0.52748 0.0
N682 N 0.65165 0.56076 0.45699 0.0
N683 N 0.66904 0.62682 0.50224 0.0
H684 H 0.25833 0.64433 0.97762 0.0
H685 H 0.48898 0.65127 0.07042 0.0
H686 H 0.40413 0.62242 0.95324 0.0
H687 H 0.34171 0.64569 0.09873 0.0
H688 H 0.4583 0.64398 0.02695 0.0
H689 H 0.28774 0.64841 0.0218 0.0
C690 C 0.2965 0.64041 0.98159 0.0
C691 C 0.32883 0.63298 0.96176 0.0
C692 C 0.43265 0.64419 0.04266 0.0
C693 C 0.3627 0.63769 0.01212 0.0
C694 C 0.45014 0.64849 0.06745 0.0
C695 C 0.4178 0.6492 0.08818 0.0
C696 C 0.38234 0.64097 0.03844 0.0
C697 C 0.36786 0.64512 0.08328 0.0
C698 C 0.31319 0.64255 0.00678 0.0
C699 C 0.37786 0.62788 0.96797 0.0
N700 N 0.35158 0.64145 0.05887 0.0
N701 N 0.39333 0.63053 0.99254 0.0
H702 H 0.15859 0.81494 0.462 0.0
H703 H 0.15327 0.90253 0.59778 0.0
H704 H 0.18728 0.91455 0.47069 0.0
H705 H 0.14109 0.802 0.58736 0.0
H706 H 0.15399 0.90914 0.55104 0.0
H707 H 0.14129 0.81141 0.50756 0.0
C708 C 0.16134 0.83611 0.4735 0.0
C709 C 0.17513 0.865 0.46249 0.0
C710 C 0.15055 0.88569 0.55902 0.0
C711 C 0.15483 0.86118 0.51494 0.0
C712 C 0.14975 0.88196 0.58564 0.0
C713 C 0.14747 0.85167 0.59635 0.0
C714 C 0.14874 0.85891 0.54314 0.0
C715 C 0.14339 0.82574 0.57983 0.0
C716 C 0.15116 0.83411 0.49955 0.0
C717 C 0.17677 0.89178 0.47833 0.0
N718 N 0.14447 0.82993 0.55414 0.0
N719 N 0.16717 0.88919 0.50379 0.0
H720 H 0.12753 0.33552 0.33996 0.0
H721 H 0.1342 0.1521 0.30609 0.0
H722 H 0.2243 0.27108 0.37772 0.0
H723 H 0.01125 0.211 0.28923 0.0
H724 H 0.1725 0.19621 0.32905 0.0
H725 H 0.0887 0.29091 0.31802 0.0
C726 C 0.14043 0.31191 0.34369 0.0
C727 C 0.17892 0.30694 0.36075 0.0
C728 C 0.13708 0.19944 0.3204 0.0
C729 C 0.1352 0.25582 0.33549 0.0
C730 C 0.11541 0.17438 0.30713 0.0
C731 C 0.06973 0.17803 0.29557 0.0
C732 C 0.11297 0.22842 0.32198 0.0
C733 C 0.0465 0.20719 0.2979 0.0
C734 C 0.11825 0.28648 0.3312 0.0
C735 C 0.19447 0.27593 0.36484 0.0
N736 N 0.06851 0.23132 0.3107 0.0
N737 N 0.17273 0.25152 0.35216 0.0
H738 H 0.30017 0.22693 0.89299 0.0
H739 H 0.45017 0.28764 0.77073 0.0
H740 H 0.35021 0.16724 0.83191 0.0
H741 H 0.41338 0.3491 0.83323 0.0
H742 H 0.41177 0.24373 0.79313 0.0
H743 H 0.33967 0.27236 0.87198 0.0
C744 C 0.31955 0.22338 0.87523 0.0
C745 C 0.32202 0.19329 0.86413 0.0
C746 C 0.41199 0.26674 0.80209 0.0
C747 C 0.36696 0.24496 0.84004 0.0
C748 C 0.43365 0.29191 0.78917 0.0
C749 C 0.43431 0.32212 0.79997 0.0
C750 C 0.39081 0.27162 0.82618 0.0
C751 C 0.4136 0.32611 0.82426 0.0
C752 C 0.34207 0.24928 0.86325 0.0
C753 C 0.34748 0.19002 0.84111 0.0
N754 N 0.39241 0.30115 0.83654 0.0
N755 N 0.36879 0.21546 0.82985 0.0
H756 H 0.69048 0.23024 0.62286 0.0
H757 H 0.58846 0.29685 0.75459 0.0
H758 H 0.67273 0.17322 0.69048 0.0
H759 H 0.55362 0.33988 0.68219 0.0
H760 H 0.62954 0.25452 0.73191 0.0
H761 H 0.64965 0.27382 0.6448 0.0
C762 C 0.67805 0.22693 0.64232 0.0
C763 C 0.68491 0.19816 0.65497 0.0
C764 C 0.61286 0.27321 0.72098 0.0
C765 C 0.63886 0.24776 0.68009 0.0
C766 C 0.58957 0.29749 0.73391 0.0
C767 C 0.56743 0.32194 0.72026 0.0
C768 C 0.61469 0.27351 0.6942 0.0
C769 C 0.56996 0.3214 0.69346 0.0
C770 C 0.65466 0.25172 0.65476 0.0
C771 C 0.66802 0.19505 0.6801 0.0
N772 N 0.59339 0.29761 0.68128 0.0
N773 N 0.64604 0.2196 0.6919 0.0
H774 H 0.81101 0.26899 0.1227 0.0
H775 H 0.94002 0.20825 0.25034 0.0
H776 H 0.8463 0.32885 0.18684 0.0
H777 H 0.93379 0.15281 0.18131 0.0
H778 H 0.90061 0.25149 0.22795 0.0
H779 H 0.85124 0.22501 0.14427 0.0
C780 C 0.82728 0.27288 0.14129 0.0
C781 C 0.8254 0.30257 0.15307 0.0
C782 C 0.90791 0.22993 0.21762 0.0
C783 C 0.87108 0.25246 0.17782 0.0
C784 C 0.93022 0.20519 0.23043 0.0
C785 C 0.94024 0.17698 0.21761 0.0
C786 C 0.89504 0.22642 0.19181 0.0
C787 C 0.92697 0.17431 0.1918 0.0
C788 C 0.85027 0.2478 0.15356 0.0
C789 C 0.84704 0.30632 0.17713 0.0
N790 N 0.90488 0.19872 0.17973 0.0
N791 N 0.8688 0.28155 0.18875 0.0
H792 H 0.83876 0.69883 0.63014 0.0
H793 H 0.85428 0.85756 0.71075 0.0
H794 H 0.71804 0.73501 0.67345 0.0
H795 H 0.97951 0.79766 0.70351 0.0
H796 H 0.80462 0.81755 0.68952 0.0
H797 H 0.89194 0.73948 0.64949 0.0
C798 C 0.82341 0.71547 0.64354 0.0
C799 C 0.77392 0.71373 0.65019 0.0
C800 C 0.84295 0.8131 0.69261 0.0
C801 C 0.8341 0.76015 0.67201 0.0
C802 C 0.87129 0.83581 0.705 0.0
C803 C 0.92081 0.83054 0.70985 0.0
C804 C 0.86441 0.78512 0.68419 0.0
C805 C 0.94134 0.80258 0.70049 0.0
C806 C 0.85377 0.73846 0.65464 0.0
C807 C 0.75597 0.73561 0.6678 0.0
N808 N 0.91301 0.78084 0.6881 0.0
N809 N 0.78589 0.75803 0.67795 0.0
H810 H 0.79377 0.76073 0.16974 0.0
H811 H 0.53045 0.70818 0.21279 0.0
H812 H 0.66856 0.80126 0.13303 0.0
H813 H 0.64625 0.64098 0.20465 0.0
H814 H 0.58026 0.74713 0.18944 0.0
H815 H 0.74049 0.72109 0.18969 0.0
C816 C 0.75503 0.76116 0.16584 0.0
C817 C 0.73551 0.78401 0.14957 0.0
C818 C 0.59451 0.72379 0.19279 0.0
C819 C 0.67443 0.73933 0.17269 0.0
C820 C 0.56619 0.70156 0.20602 0.0
C821 C 0.58451 0.67138 0.21095 0.0
C822 C 0.64179 0.71593 0.18504 0.0
C823 C 0.63118 0.66418 0.20188 0.0
C824 C 0.72477 0.73857 0.17715 0.0
C825 C 0.68503 0.78377 0.14525 0.0
N826 N 0.65847 0.68639 0.1897 0.0
N827 N 0.65601 0.76191 0.15698 0.0
H828 H 0.2764 0.80133 0.3112 0.0
H829 H 0.44244 0.64993 0.32815 0.0
H830 H 0.31738 0.76827 0.38599 0.0
H831 H 0.43999 0.70722 0.26007 0.0
H832 H 0.39289 0.68976 0.35002 0.0
H833 H 0.33101 0.76301 0.29203 0.0
C834 C 0.29705 0.78595 0.32358 0.0
C835 C 0.29255 0.788 0.35015 0.0
C836 C 0.40351 0.69355 0.33034 0.0
C837 C 0.35506 0.74385 0.32838 0.0
C838 C 0.43174 0.6709 0.31787 0.0
C839 C 0.44465 0.67501 0.29212 0.0
C840 C 0.38793 0.72024 0.31683 0.0
C841 C 0.4301 0.70271 0.27976 0.0
C842 C 0.32835 0.76416 0.31265 0.0
C843 C 0.32003 0.7675 0.36537 0.0
N844 N 0.40218 0.72402 0.29212 0.0
N845 N 0.35002 0.74606 0.35425 0.0
H846 H 0.23527 0.7018 0.81178 0.0
H847 H 0.052 0.84542 0.82965 0.0
H848 H 0.17982 0.72775 0.88584 0.0
H849 H 0.08282 0.80026 0.75758 0.0
H850 H 0.10137 0.80541 0.85131 0.0
H851 H 0.18324 0.74117 0.79217 0.0
C852 C 0.212 0.71586 0.82391 0.0
C853 C 0.21172 0.7115 0.8504 0.0
C854 C 0.09701 0.80431 0.83078 0.0
C855 C 0.1519 0.75683 0.82812 0.0
C856 C 0.06887 0.82709 0.81841 0.0
C857 C 0.06333 0.82632 0.79172 0.0
C858 C 0.12003 0.78086 0.81629 0.0
C859 C 0.08611 0.80203 0.77814 0.0
C860 C 0.18218 0.7383 0.81271 0.0
C861 C 0.18097 0.73035 0.86529 0.0
N862 N 0.11353 0.78049 0.79053 0.0
N863 N 0.15229 0.75236 0.85393 0.0
loop_
_geom_bond_atom_site_label_1
_geom_bond_atom_site_label_2
_geom_bond_distance
_geom_bond_site_symmetry_2
_ccdc_geom_bond_type
H0 C5 0.930 . S
H1 C8 0.930 . S
H2 C10 0.930 . S
H3 C4 1.016 . S
C4 H3 1.016 . S
C4 N11 1.286 . S
C5 H0 0.930 . S
C5 C6 1.397 . S
C5 C7 1.361 . S
C6 C5 1.397 . S
C6 C10 1.390 . S
C7 C5 1.361 . S
C7 C8 1.393 . S
C7 N11 1.413 . S
C8 H1 0.930 . S
C8 C7 1.393 . S
C8 C9 1.399 . S
C9 C8 1.399 . S
C9 C10 1.381 . S
C10 H2 0.930 . S
C10 C6 1.390 . S
C10 C9 1.381 . S
N11 C4 1.286 . S
N11 C7 1.413 . S
H12 C17 0.930 . S
H13 C20 0.930 . S
H14 C22 0.930 . S
H15 C16 1.016 . S
C16 H15 1.016 . S
C16 N23 1.286 . S
C17 H12 0.930 . S
C17 C18 1.397 . S
C17 C19 1.361 . S
C18 C17 1.397 . S
C18 C22 1.390 . S
C19 C17 1.361 . S
C19 C20 1.393 . S
C19 N23 1.413 . S
C20 H13 0.930 . S
C20 C19 1.393 . S
C20 C21 1.399 . S
C21 C20 1.399 . S
C21 C22 1.381 . S
C22 H14 0.930 . S
C22 C18 1.390 . S
C22 C21 1.381 . S
N23 C16 1.286 . S
N23 C19 1.413 . S
H24 C29 0.930 . S
H25 C32 0.930 . S
H26 C34 0.930 . S
H27 C28 1.016 . S
C28 H27 1.016 . S
C28 N35 1.286 . S
C29 H24 0.930 . S
C29 C30 1.397 . S
C29 C31 1.361 . S
C30 C29 1.397 . S
C30 C34 1.390 . S
C31 C29 1.361 . S
C31 C32 1.393 . S
C31 N35 1.413 . S
C32 H25 0.930 . S
C32 C31 1.393 . S
C32 C33 1.399 . S
C33 C32 1.399 . S
C33 C34 1.381 . S
C34 H26 0.930 . S
C34 C30 1.390 . S
C34 C33 1.381 . S
N35 C28 1.286 . S
N35 C31 1.413 . S
H36 C41 0.930 . S
H37 C44 0.930 . S
H38 C46 0.930 . S
H39 C40 1.016 . S
C40 H39 1.016 . S
C40 N47 1.286 . S
C41 H36 0.930 . S
C41 C42 1.397 . S
C41 C43 1.361 . S
C42 C41 1.397 . S
C42 C46 1.390 . S
C43 C41 1.361 . S
C43 C44 1.393 . S
C43 N47 1.413 . S
C44 H37 0.930 . S
C44 C43 1.393 . S
C44 C45 1.399 . S
C45 C44 1.399 . S
C45 C46 1.381 . S
C46 H38 0.930 . S
C46 C42 1.390 . S
C46 C45 1.381 . S
N47 C40 1.286 . S
N47 C43 1.413 . S
H48 C53 0.930 . S
H49 C56 0.930 . S
H50 C58 0.930 . S
H51 C52 1.016 . S
C52 H51 1.016 . S
C52 N59 1.286 . S
C53 H48 0.930 . S
C53 C54 1.397 . S
C53 C55 1.361 . S
C54 C53 1.397 . S
C54 C58 1.390 . S
C55 C53 1.361 . S
C55 C56 1.393 . S
C55 N59 1.413 . S
C56 H49 0.930 . S
C56 C55 1.393 . S
C56 C57 1.399 . S
C57 C56 1.399 . S
C57 C58 1.381 . S
C58 H50 0.930 . S
C58 C54 1.390 . S
C58 C57 1.381 . S
N59 C52 1.286 . S
N59 C55 1.413 . S
H60 C65 0.930 . S
H61 C68 0.930 . S
H62 C70 0.930 . S
H63 C64 1.016 . S
C64 H63 1.016 . S
C64 N71 1.286 . S
C65 H60 0.930 . S
C65 C66 1.397 . S
C65 C67 1.361 . S
C66 C65 1.397 . S
C66 C70 1.390 . S
C67 C65 1.361 . S
C67 C68 1.393 . S
C67 N71 1.413 . S
C68 H61 0.930 . S
C68 C67 1.393 . S
C68 C69 1.399 . S
C69 C68 1.399 . S
C69 C70 1.381 . S
C70 H62 0.930 . S
C70 C66 1.390 . S
C70 C69 1.381 . S
N71 C64 1.286 . S
N71 C67 1.413 . S
H72 C77 0.930 . S
H73 C80 0.930 . S
H74 C82 0.930 . S
H75 C76 1.016 . S
C76 H75 1.016 . S
C76 N83 1.286 . S
C77 H72 0.930 . S
C77 C78 1.397 . S
C77 C79 1.361 . S
C78 C77 1.397 . S
C78 C82 1.390 . S
C79 C77 1.361 . S
C79 C80 1.393 . S
C79 N83 1.413 . S
C80 H73 0.930 . S
C80 C79 1.393 . S
C80 C81 1.399 . S
C81 C80 1.399 . S
C81 C82 1.381 . S
C82 H74 0.930 . S
C82 C78 1.390 . S
C82 C81 1.381 . S
N83 C76 1.286 . S
N83 C79 1.413 . S
H84 C89 0.930 . S
H85 C92 0.930 . S
H86 C94 0.930 . S
H87 C88 1.016 . S
C88 H87 1.016 . S
C88 N95 1.286 . S
C89 H84 0.930 . S
C89 C90 1.397 . S
C89 C91 1.361 . S
C90 C89 1.397 . S
C90 C94 1.390 . S
C91 C89 1.361 . S
C91 C92 1.393 . S
C91 N95 1.413 . S
C92 H85 0.930 . S
C92 C91 1.393 . S
C92 C93 1.399 . S
C93 C92 1.399 . S
C93 C94 1.381 . S
C94 H86 0.930 . S
C94 C90 1.390 . S
C94 C93 1.381 . S
N95 C88 1.286 . S
N95 C91 1.413 . S
Eu96 N125 2.600 . S
Eu96 N131 2.562 . S
Eu96 O140 2.462 . S
Eu96 O141 2.373 . S
Eu96 O143 2.432 . S
Eu96 O144 2.293 1_455 S
Eu96 O148 2.346 . S
Eu96 O151 2.372 . S
Eu96 C160 2.787 . S
C97 N98 1.365 . S
C97 C100 1.405 . S
C97 C104 1.448 . S
N98 C97 1.365 . S
N98 C101 1.319 . S
N98 Eu107 2.600 . S
C99 C101 1.397 . S
C99 C102 1.367 . S
C99 H119 0.931 . S
C100 C97 1.405 . S
C100 C102 1.403 . S
C100 C106 1.439 . S
C101 N98 1.319 . S
C101 C99 1.397 . S
C101 H112 0.930 . S
C102 C99 1.367 . S
C102 C100 1.403 . S
C102 H123 0.929 . S
C103 C104 1.430 . S
C103 C105 1.387 . S
C103 C109 1.404 1_545 S
C104 C97 1.448 . S
C104 C103 1.430 . S
C104 N108 1.351 . S
C105 C103 1.387 . S
C105 C106 1.374 . S
C105 H120 0.918 1_545 S
C106 C100 1.439 . S
C106 C105 1.374 . S
C106 H121 0.931 . S
Eu107 N98 2.600 . S
Eu107 N108 2.562 . S
Eu107 O142 2.335 1_655 S
Eu107 O145 2.372 . S
Eu107 O146 2.462 . S
Eu107 O147 2.373 . S
Eu107 O149 2.432 . S
Eu107 O150 2.291 1_655 S
Eu107 C171 2.787 . S
N108 C104 1.351 . S
N108 Eu107 2.562 . S
N108 C110 1.325 . S
C109 C103 1.404 1_565 S
C109 C111 1.366 . S
C109 H117 0.930 . S
C110 N108 1.325 . S
C110 C111 1.416 1_545 S
C110 H116 0.929 . S
C111 C109 1.366 . S
C111 C110 1.416 1_565 S
C111 H113 0.930 . S
H112 C101 0.930 . S
H113 C111 0.930 . S
H114 C129 0.930 . S
H115 C136 0.930 . S
H116 C110 0.929 . S
H117 C109 0.930 . S
H118 C132 0.929 . S
H119 C99 0.931 . S
H120 C105 0.918 1_565 S
H121 C106 0.931 . S
H122 C127 0.931 . S
H123 C102 0.929 . S
H124 C135 0.930 . S
N125 Eu96 2.600 . S
N125 C126 1.365 . S
N125 C129 1.319 . S
C126 N125 1.365 . S
C126 C128 1.405 . S
C126 C134 1.448 . S
C127 H122 0.931 . S
C127 C129 1.397 . S
C127 C130 1.367 . S
C128 C126 1.405 . S
C128 C130 1.403 . S
C128 C161 1.439 . S
C129 H114 0.930 . S
C129 N125 1.319 . S
C129 C127 1.397 . S
C130 C127 1.367 . S
C130 C128 1.403 . S
C130 H137 0.929 . S
N131 Eu96 2.562 . S
N131 C132 1.325 . S
N131 C134 1.351 . S
C132 H118 0.929 . S
C132 N131 1.325 . S
C132 C136 1.416 . S
C133 C134 1.430 . S
C133 C135 1.404 . S
C133 C162 1.387 . S
C134 C126 1.448 . S
C134 N131 1.351 . S
C134 C133 1.430 . S
C135 H124 0.930 . S
C135 C133 1.404 . S
C135 C136 1.366 . S
C136 H115 0.930 . S
C136 C132 1.416 . S
C136 C135 1.366 . S
H137 C130 0.929 . S
H138 C161 0.931 . S
H139 C162 0.931 . S
O140 Eu96 2.462 . S
O140 C160 1.252 . S
O141 Eu96 2.373 . S
O141 C152 1.249 . S
O142 Eu107 2.335 1_455 S
O142 C152 1.264 . S
O143 Eu96 2.432 . S
O143 C160 1.268 . S
O144 Eu96 2.293 1_655 S
O144 C159 1.253 . S
O145 Eu107 2.372 . S
O145 C159 1.257 . S
O146 Eu107 2.462 . S
O146 C171 1.252 . S
O147 Eu107 2.373 . S
O147 C163 1.249 . S
O148 Eu96 2.346 . S
O148 C163 1.250 1_455 S
O149 Eu107 2.432 . S
O149 C171 1.268 . S
O150 Eu107 2.291 1_455 S
O150 C170 1.255 . S
O151 Eu96 2.372 . S
O151 C170 1.257 . S
C152 O141 1.249 . S
C152 O142 1.264 . S
C153 C156 1.382 . S
C153 C158 1.390 . S
C153 C160 1.506 . S
C154 C155 1.398 . S
C154 C158 1.392 . S
C155 C154 1.398 . S
C155 C157 1.372 . S
C155 H172 0.931 . S
C156 C153 1.382 . S
C156 C157 1.390 . S
C156 H173 0.931 . S
C157 C155 1.372 . S
C157 C156 1.390 . S
C157 H174 0.929 . S
C158 C153 1.390 . S
C158 C154 1.392 . S
C158 H175 0.930 . S
C159 O144 1.253 . S
C159 O145 1.257 . S
C160 Eu96 2.787 . S
C160 O140 1.252 . S
C160 O143 1.268 . S
C160 C153 1.506 . S
C161 C128 1.439 . S
C161 H138 0.931 . S
C161 C162 1.374 . S
C162 C133 1.387 . S
C162 H139 0.931 . S
C162 C161 1.374 . S
C163 O147 1.249 . S
C163 O148 1.250 1_655 S
C164 C167 1.382 . S
C164 C168 1.390 . S
C164 C171 1.506 . S
C165 C166 1.398 . S
C165 C168 1.392 . S
C166 C165 1.398 . S
C166 C169 1.372 . S
C166 H176 0.931 . S
C167 C164 1.382 . S
C167 C169 1.390 . S
C167 H177 0.931 . S
C168 C164 1.390 . S
C168 C165 1.392 . S
C168 H178 0.930 . S
C169 C166 1.372 . S
C169 C167 1.390 . S
C169 H179 0.929 . S
C170 O150 1.255 . S
C170 O151 1.257 . S
C171 Eu107 2.787 . S
C171 O146 1.252 . S
C171 O149 1.268 . S
C171 C164 1.506 . S
H172 C155 0.931 . S
H173 C156 0.931 . S
H174 C157 0.929 . S
H175 C158 0.930 . S
H176 C166 0.931 . S
H177 C167 0.931 . S
H178 C168 0.930 . S
H179 C169 0.929 . S
Eu180 N209 2.600 . S
Eu180 N215 2.562 . S
Eu180 O224 2.462 . S
Eu180 O225 2.373 . S
Eu180 O227 2.432 . S
Eu180 O228 2.291 . S
Eu180 O232 2.335 . S
Eu180 O235 2.372 . S
Eu180 C244 2.787 . S
C181 N182 1.365 . S
C181 C184 1.405 . S
C181 C188 1.448 . S
N182 C181 1.365 . S
N182 C185 1.319 . S
N182 Eu191 2.600 . S
C183 C185 1.397 . S
C183 C186 1.367 . S
C183 H203 0.931 . S
C184 C181 1.405 . S
C184 C186 1.403 . S
C184 C190 1.439 . S
C185 N182 1.319 . S
C185 C183 1.397 . S
C185 H196 0.930 . S
C186 C183 1.367 . S
C186 C184 1.403 . S
C186 H207 0.929 . S
C187 C188 1.430 . S
C187 C189 1.387 . S
C187 C193 1.404 . S
C188 C181 1.448 . S
C188 C187 1.430 . S
C188 N192 1.351 . S
C189 C187 1.387 . S
C189 C190 1.374 . S
C189 H204 0.931 . S
C190 C184 1.439 . S
C190 C189 1.374 . S
C190 H205 0.931 . S
Eu191 N182 2.600 . S
Eu191 N192 2.562 . S
Eu191 O226 2.335 . S
Eu191 O229 2.372 . S
Eu191 O230 2.462 . S
Eu191 O231 2.373 . S
Eu191 O233 2.432 . S
Eu191 O234 2.291 . S
Eu191 C255 2.787 . S
N192 C188 1.351 . S
N192 Eu191 2.562 . S
N192 C194 1.325 . S
C193 C187 1.404 . S
C193 C195 1.366 . S
C193 H201 0.930 . S
C194 N192 1.325 . S
C194 C195 1.416 . S
C194 H200 0.929 . S
C195 C193 1.366 . S
C195 C194 1.416 . S
C195 H197 0.930 . S
H196 C185 0.930 . S
H197 C195 0.930 . S
H198 C213 0.930 . S
H199 C220 0.930 . S
H200 C194 0.929 . S
H201 C193 0.930 . S
H202 C216 0.929 . S
H203 C183 0.931 . S
H204 C189 0.931 . S
H205 C190 0.931 . S
H206 C211 0.931 . S
H207 C186 0.929 . S
H208 C219 0.930 . S
N209 Eu180 2.600 . S
N209 C210 1.365 . S
N209 C213 1.319 . S
C210 N209 1.365 . S
C210 C212 1.405 . S
C210 C218 1.448 . S
C211 H206 0.931 . S
C211 C213 1.397 . S
C211 C214 1.367 . S
C212 C210 1.405 . S
C212 C214 1.403 . S
C212 C245 1.439 . S
C213 H198 0.930 . S
C213 N209 1.319 . S
C213 C211 1.397 . S
C214 C211 1.367 . S
C214 C212 1.403 . S
C214 H221 0.929 . S
N215 Eu180 2.562 . S
N215 C216 1.325 . S
N215 C218 1.351 . S
C216 H202 0.929 . S
C216 N215 1.325 . S
C216 C220 1.416 . S
C217 C218 1.430 . S
C217 C219 1.404 . S
C217 C246 1.387 . S
C218 C210 1.448 . S
C218 N215 1.351 . S
C218 C217 1.430 . S
C219 H208 0.930 . S
C219 C217 1.404 . S
C219 C220 1.366 . S
C220 H199 0.930 . S
C220 C216 1.416 . S
C220 C219 1.366 . S
H221 C214 0.929 . S
H222 C245 0.931 . S
H223 C246 0.931 . S
O224 Eu180 2.462 . S
O224 C244 1.252 . S
O225 Eu180 2.373 . S
O225 C236 1.249 . S
O226 Eu191 2.335 . S
O226 C236 1.264 . S
O227 Eu180 2.432 . S
O227 C244 1.268 . S
O228 Eu180 2.291 . S
O228 C243 1.255 . S
O229 Eu191 2.372 . S
O229 C243 1.257 . S
O230 Eu191 2.462 . S
O230 C255 1.252 . S
O231 Eu191 2.373 . S
O231 C247 1.249 . S
O232 Eu180 2.335 . S
O232 C247 1.264 . S
O233 Eu191 2.432 . S
O233 C255 1.268 . S
O234 Eu191 2.291 . S
O234 C254 1.255 . S
O235 Eu180 2.372 . S
O235 C254 1.257 . S
C236 O225 1.249 . S
C236 O226 1.264 . S
C237 C240 1.382 . S
C237 C242 1.390 . S
C237 C244 1.506 . S
C238 C239 1.398 . S
C238 C242 1.392 . S
C239 C238 1.398 . S
C239 C241 1.372 . S
C239 H256 0.931 . S
C240 C237 1.382 . S
C240 C241 1.390 . S
C240 H257 0.931 . S
C241 C239 1.372 . S
C241 C240 1.390 . S
C241 H258 0.929 . S
C242 C237 1.390 . S
C242 C238 1.392 . S
C242 H259 0.930 . S
C243 O228 1.255 . S
C243 O229 1.257 . S
C244 Eu180 2.787 . S
C244 O224 1.252 . S
C244 O227 1.268 . S
C244 C237 1.506 . S
C245 C212 1.439 . S
C245 H222 0.931 . S
C245 C246 1.374 . S
C246 C217 1.387 . S
C246 H223 0.931 . S
C246 C245 1.374 . S
C247 O231 1.249 . S
C247 O232 1.264 . S
C248 C251 1.382 . S
C248 C252 1.390 . S
C248 C255 1.506 . S
C249 C250 1.398 . S
C249 C252 1.392 . S
C250 C249 1.398 . S
C250 C253 1.372 . S
C250 H260 0.931 . S
C251 C248 1.382 . S
C251 C253 1.390 . S
C251 H261 0.931 . S
C252 C248 1.390 . S
C252 C249 1.392 . S
C252 H262 0.930 . S
C253 C250 1.372 . S
C253 C251 1.390 . S
C253 H263 0.929 . S
C254 O234 1.255 . S
C254 O235 1.257 . S
C255 Eu191 2.787 . S
C255 O230 1.252 . S
C255 O233 1.268 . S
C255 C248 1.506 . S
H256 C239 0.931 . S
H257 C240 0.931 . S
H258 C241 0.929 . S
H259 C242 0.930 . S
H260 C250 0.931 . S
H261 C251 0.931 . S
H262 C252 0.930 . S
H263 C253 0.929 . S
Eu264 N293 2.600 . S
Eu264 N299 2.562 . S
Eu264 O308 2.462 . S
Eu264 O309 2.373 . S
Eu264 O311 2.432 . S
Eu264 O312 2.291 . S
Eu264 O316 2.335 . S
Eu264 O319 2.372 . S
Eu264 C328 2.787 . S
C265 N266 1.365 . S
C265 C268 1.405 . S
C265 C272 1.448 . S
N266 C265 1.365 . S
N266 C269 1.319 . S
N266 Eu275 2.600 . S
C267 C269 1.397 . S
C267 C270 1.367 . S
C267 H287 0.931 . S
C268 C265 1.405 . S
C268 C270 1.403 . S
C268 C274 1.439 . S
C269 N266 1.319 . S
C269 C267 1.397 . S
C269 H280 0.930 . S
C270 C267 1.367 . S
C270 C268 1.403 . S
C270 H291 0.929 . S
C271 C272 1.430 . S
C271 C273 1.387 . S
C271 C277 1.404 . S
C272 C265 1.448 . S
C272 C271 1.430 . S
C272 N276 1.351 . S
C273 C271 1.387 . S
C273 C274 1.374 . S
C273 H288 0.931 . S
C274 C268 1.439 . S
C274 C273 1.374 . S
C274 H289 0.931 . S
Eu275 N266 2.600 . S
Eu275 N276 2.562 . S
Eu275 O310 2.335 1_655 S
Eu275 O313 2.372 . S
Eu275 O314 2.462 . S
Eu275 O315 2.373 . S
Eu275 O317 2.432 . S
Eu275 O318 2.291 1_655 S
Eu275 C339 2.787 . S
N276 C272 1.351 . S
N276 Eu275 2.562 . S
N276 C278 1.325 . S
C277 C271 1.404 . S
C277 C279 1.366 . S
C277 H285 0.930 . S
C278 N276 1.325 . S
C278 C279 1.416 . S
C278 H284 0.929 . S
C279 C277 1.366 . S
C279 C278 1.416 . S
C279 H281 0.930 . S
H280 C269 0.930 . S
H281 C279 0.930 . S
H282 C297 0.930 . S
H283 C304 0.930 . S
H284 C278 0.929 . S
H285 C277 0.930 . S
H286 C300 0.929 . S
H287 C267 0.931 . S
H288 C273 0.931 . S
H289 C274 0.931 . S
H290 C295 0.931 . S
H291 C270 0.929 . S
H292 C303 0.930 . S
N293 Eu264 2.600 . S
N293 C294 1.365 . S
N293 C297 1.319 . S
C294 N293 1.365 . S
C294 C296 1.405 . S
C294 C302 1.448 . S
C295 H290 0.931 . S
C295 C297 1.397 . S
C295 C298 1.367 . S
C296 C294 1.405 . S
C296 C298 1.403 . S
C296 C329 1.439 . S
C297 H282 0.930 . S
C297 N293 1.319 . S
C297 C295 1.397 . S
C298 C295 1.367 . S
C298 C296 1.403 . S
C298 H305 0.929 . S
N299 Eu264 2.562 . S
N299 C300 1.325 . S
N299 C302 1.351 . S
C300 H286 0.929 . S
C300 N299 1.325 . S
C300 C304 1.416 1_565 S
C301 C302 1.430 . S
C301 C303 1.404 1_565 S
C301 C330 1.387 . S
C302 C294 1.448 . S
C302 N299 1.351 . S
C302 C301 1.430 . S
C303 H292 0.930 . S
C303 C301 1.404 1_545 S
C303 C304 1.366 . S
C304 H283 0.930 . S
C304 C300 1.416 1_545 S
C304 C303 1.366 . S
H305 C298 0.929 . S
H306 C329 0.931 . S
H307 C330 0.918 1_545 S
O308 Eu264 2.462 . S
O308 C328 1.252 . S
O309 Eu264 2.373 . S
O309 C320 1.249 . S
O310 Eu275 2.335 1_455 S
O310 C320 1.264 . S
O311 Eu264 2.432 . S
O311 C328 1.268 . S
O312 Eu264 2.291 . S
O312 C327 1.255 1_455 S
O313 Eu275 2.372 . S
O313 C327 1.257 . S
O314 Eu275 2.462 . S
O314 C339 1.252 . S
O315 Eu275 2.373 . S
O315 C331 1.249 . S
O316 Eu264 2.335 . S
O316 C331 1.264 1_455 S
O317 Eu275 2.432 . S
O317 C339 1.268 . S
O318 Eu275 2.291 1_455 S
O318 C338 1.255 . S
O319 Eu264 2.372 . S
O319 C338 1.257 . S
C320 O309 1.249 . S
C320 O310 1.264 . S
C321 C324 1.382 . S
C321 C326 1.390 . S
C321 C328 1.506 . S
C322 C323 1.398 . S
C322 C326 1.392 . S
C323 C322 1.398 . S
C323 C325 1.372 . S
C323 H340 0.931 . S
C324 C321 1.382 . S
C324 C325 1.390 . S
C324 H341 0.931 . S
C325 C323 1.372 . S
C325 C324 1.390 . S
C325 H342 0.929 . S
C326 C321 1.390 . S
C326 C322 1.392 . S
C326 H343 0.930 . S
C327 O312 1.255 1_655 S
C327 O313 1.257 . S
C328 Eu264 2.787 . S
C328 O308 1.252 . S
C328 O311 1.268 . S
C328 C321 1.506 . S
C329 C296 1.439 . S
C329 H306 0.931 . S
C329 C330 1.374 . S
C330 C301 1.387 . S
C330 H307 0.918 1_565 S
C330 C329 1.374 . S
C331 O315 1.249 . S
C331 O316 1.264 1_655 S
C332 C335 1.382 . S
C332 C336 1.390 . S
C332 C339 1.506 . S
C333 C334 1.398 . S
C333 C336 1.392 . S
C334 C333 1.398 . S
C334 C337 1.372 . S
C334 H344 0.931 . S
C335 C332 1.382 . S
C335 C337 1.390 . S
C335 H345 0.931 . S
C336 C332 1.390 . S
C336 C333 1.392 . S
C336 H346 0.930 . S
C337 C334 1.372 . S
C337 C335 1.390 . S
C337 H347 0.929 . S
C338 O318 1.255 . S
C338 O319 1.257 . S
C339 Eu275 2.787 . S
C339 O314 1.252 . S
C339 O317 1.268 . S
C339 C332 1.506 . S
H340 C323 0.931 . S
H341 C324 0.931 . S
H342 C325 0.929 . S
H343 C326 0.930 . S
H344 C334 0.931 . S
H345 C335 0.931 . S
H346 C336 0.930 . S
H347 C337 0.929 . S
Eu348 N377 2.600 . S
Eu348 N383 2.562 . S
Eu348 O392 2.462 . S
Eu348 O393 2.373 . S
Eu348 O395 2.432 . S
Eu348 O396 2.291 . S
Eu348 O400 2.335 . S
Eu348 O403 2.372 . S
Eu348 C412 2.787 . S
C349 N350 1.365 . S
C349 C352 1.405 . S
C349 C356 1.448 . S
N350 C349 1.365 . S
N350 C353 1.319 . S
N350 Eu359 2.600 . S
C351 C353 1.397 . S
C351 C354 1.367 . S
C351 H371 0.931 . S
C352 C349 1.405 . S
C352 C354 1.403 . S
C352 C358 1.439 . S
C353 N350 1.319 . S
C353 C351 1.397 . S
C353 H364 0.930 . S
C354 C351 1.367 . S
C354 C352 1.403 . S
C354 H375 0.929 . S
C355 C356 1.430 . S
C355 C357 1.387 . S
C355 C361 1.404 . S
C356 C349 1.448 . S
C356 C355 1.430 . S
C356 N360 1.351 . S
C357 C355 1.387 . S
C357 C358 1.374 . S
C357 H372 0.931 . S
C358 C352 1.439 . S
C358 C357 1.374 . S
C358 H373 0.931 . S
Eu359 N350 2.600 . S
Eu359 N360 2.562 . S
Eu359 O394 2.335 . S
Eu359 O397 2.372 . S
Eu359 O398 2.462 . S
Eu359 O399 2.373 . S
Eu359 O401 2.432 . S
Eu359 O402 2.291 . S
Eu359 C423 2.787 . S
N360 C356 1.351 . S
N360 Eu359 2.562 . S
N360 C362 1.325 . S
C361 C355 1.404 . S
C361 C363 1.366 . S
C361 H369 0.930 . S
C362 N360 1.325 . S
C362 C363 1.416 . S
C362 H368 0.929 . S
C363 C361 1.366 . S
C363 C362 1.416 . S
C363 H365 0.930 . S
H364 C353 0.930 . S
H365 C363 0.930 . S
H366 C381 0.930 . S
H367 C388 0.930 . S
H368 C362 0.929 . S
H369 C361 0.930 . S
H370 C384 0.929 . S
H371 C351 0.931 . S
H372 C357 0.931 . S
H373 C358 0.931 . S
H374 C379 0.931 . S
H375 C354 0.929 . S
H376 C387 0.930 . S
N377 Eu348 2.600 . S
N377 C378 1.365 . S
N377 C381 1.319 . S
C378 N377 1.365 . S
C378 C380 1.405 . S
C378 C386 1.448 . S
C379 H374 0.931 . S
C379 C381 1.397 . S
C379 C382 1.367 . S
C380 C378 1.405 . S
C380 C382 1.403 . S
C380 C413 1.439 . S
C381 H366 0.930 . S
C381 N377 1.319 . S
C381 C379 1.397 . S
C382 C379 1.367 . S
C382 C380 1.403 . S
C382 H389 0.929 . S
N383 Eu348 2.562 . S
N383 C384 1.325 . S
N383 C386 1.351 . S
C384 H370 0.929 . S
C384 N383 1.325 . S
C384 C388 1.416 . S
C385 C386 1.430 . S
C385 C387 1.404 . S
C385 C414 1.387 . S
C386 C378 1.448 . S
C386 N383 1.351 . S
C386 C385 1.430 . S
C387 H376 0.930 . S
C387 C385 1.404 . S
C387 C388 1.366 . S
C388 H367 0.930 . S
C388 C384 1.416 . S
C388 C387 1.366 . S
H389 C382 0.929 . S
H390 C413 0.931 . S
H391 C414 0.931 . S
O392 Eu348 2.462 . S
O392 C412 1.252 . S
O393 Eu348 2.373 . S
O393 C404 1.249 . S
O394 Eu359 2.335 . S
O394 C404 1.264 . S
O395 Eu348 2.432 . S
O395 C412 1.268 . S
O396 Eu348 2.291 . S
O396 C411 1.255 . S
O397 Eu359 2.372 . S
O397 C411 1.257 . S
O398 Eu359 2.462 . S
O398 C423 1.252 . S
O399 Eu359 2.373 . S
O399 C415 1.249 . S
O400 Eu348 2.335 . S
O400 C415 1.264 . S
O401 Eu359 2.432 . S
O401 C423 1.268 . S
O402 Eu359 2.291 . S
O402 C422 1.255 . S
O403 Eu348 2.372 . S
O403 C422 1.257 . S
C404 O393 1.249 . S
C404 O394 1.264 . S
C405 C408 1.382 . S
C405 C410 1.390 . S
C405 C412 1.506 . S
C406 C407 1.398 . S
C406 C410 1.392 . S
C407 C406 1.398 . S
C407 C409 1.372 . S
C407 H424 0.931 . S
C408 C405 1.382 . S
C408 C409 1.390 . S
C408 H425 0.931 . S
C409 C407 1.372 . S
C409 C408 1.390 . S
C409 H426 0.929 . S
C410 C405 1.390 . S
C410 C406 1.392 . S
C410 H427 0.930 . S
C411 O396 1.255 . S
C411 O397 1.257 . S
C412 Eu348 2.787 . S
C412 O392 1.252 . S
C412 O395 1.268 . S
C412 C405 1.506 . S
C413 C380 1.439 . S
C413 H390 0.931 . S
C413 C414 1.374 . S
C414 C385 1.387 . S
C414 H391 0.931 . S
C414 C413 1.374 . S
C415 O399 1.249 . S
C415 O400 1.264 . S
C416 C419 1.382 . S
C416 C420 1.390 . S
C416 C423 1.506 . S
C417 C418 1.398 . S
C417 C420 1.392 . S
C418 C417 1.398 . S
C418 C421 1.372 . S
C418 H428 0.931 . S
C419 C416 1.382 . S
C419 C421 1.390 . S
C419 H429 0.931 . S
C420 C416 1.390 . S
C420 C417 1.392 . S
C420 H430 0.930 . S
C421 C418 1.372 . S
C421 C419 1.390 . S
C421 H431 0.929 . S
C422 O402 1.255 . S
C422 O403 1.257 . S
C423 Eu359 2.787 . S
C423 O398 1.252 . S
C423 O401 1.268 . S
C423 C416 1.506 . S
H424 C407 0.931 . S
H425 C408 0.931 . S
H426 C409 0.929 . S
H427 C410 0.930 . S
H428 C418 0.931 . S
H429 C419 0.931 . S
H430 C420 0.930 . S
H431 C421 0.929 . S
H432 C438 0.930 . S
H433 C442 0.930 . S
H434 C447 0.929 . S
H435 C445 0.929 . S
H436 C440 0.929 . S
H437 C446 0.929 . S
C438 H432 0.930 . S
C438 C439 1.367 . S
C438 C446 1.378 . S
C439 C438 1.367 . S
C439 C447 1.433 . S
C440 H436 0.929 . S
C440 C442 1.378 . S
C440 C444 1.350 1_545 S
C441 C444 1.463 . S
C441 C446 1.350 . S
C441 N449 1.427 . S
C442 H433 0.930 . S
C442 C440 1.378 . S
C442 C443 1.367 . S
C443 C442 1.367 . S
C443 C445 1.433 1_545 S
C444 C440 1.350 1_565 S
C444 C441 1.463 . S
C444 N448 1.427 . S
C445 H435 0.929 . S
C445 C443 1.433 1_565 S
C445 N448 1.384 . S
C446 H437 0.929 . S
C446 C438 1.378 . S
C446 C441 1.350 . S
C447 H434 0.929 . S
C447 C439 1.433 . S
C447 N449 1.384 . S
N448 C444 1.427 . S
N448 C445 1.384 . S
N449 C441 1.427 . S
N449 C447 1.384 . S
H450 C456 0.930 . S
H451 C460 0.930 . S
H452 C465 0.929 . S
H453 C463 0.929 . S
H454 C458 0.929 . S
H455 C464 0.929 . S
C456 H450 0.930 . S
C456 C457 1.367 . S
C456 C464 1.378 . S
C457 C456 1.367 . S
C457 C465 1.433 . S
C458 H454 0.929 . S
C458 C460 1.378 . S
C458 C462 1.350 . S
C459 C462 1.463 . S
C459 C464 1.350 . S
C459 N467 1.427 . S
C460 H451 0.930 . S
C460 C458 1.378 . S
C460 C461 1.367 . S
C461 C460 1.367 . S
C461 C463 1.433 . S
C462 C458 1.350 . S
C462 C459 1.463 . S
C462 N466 1.427 . S
C463 H453 0.929 . S
C463 C461 1.433 . S
C463 N466 1.384 . S
C464 H455 0.929 . S
C464 C456 1.378 . S
C464 C459 1.350 . S
C465 H452 0.929 . S
C465 C457 1.433 . S
C465 N467 1.384 . S
N466 C462 1.427 . S
N466 C463 1.384 . S
N467 C459 1.427 . S
N467 C465 1.384 . S
H468 C474 0.930 . S
H469 C478 0.930 . S
H470 C483 0.929 . S
H471 C481 0.929 . S
H472 C476 0.929 . S
H473 C482 0.929 . S
C474 H468 0.930 . S
C474 C475 1.367 . S
C474 C482 1.378 . S
C475 C474 1.367 . S
C475 C483 1.433 . S
C476 H472 0.929 . S
C476 C478 1.378 . S
C476 C480 1.350 . S
C477 C480 1.463 . S
C477 C482 1.350 . S
C477 N485 1.427 . S
C478 H469 0.930 . S
C478 C476 1.378 . S
C478 C479 1.367 . S
C479 C478 1.367 . S
C479 C481 1.433 . S
C480 C476 1.350 . S
C480 C477 1.463 . S
C480 N484 1.427 . S
C481 H471 0.929 . S
C481 C479 1.433 . S
C481 N484 1.384 . S
C482 H473 0.929 . S
C482 C474 1.378 . S
C482 C477 1.350 . S
C483 H470 0.929 . S
C483 C475 1.433 . S
C483 N485 1.384 . S
N484 C480 1.427 . S
N484 C481 1.384 . S
N485 C477 1.427 . S
N485 C483 1.384 . S
H486 C492 0.930 . S
H487 C496 0.928 1_565 S
H488 C501 0.929 . S
H489 C499 0.929 . S
H490 C494 0.929 . S
H491 C500 0.929 . S
C492 H486 0.930 . S
C492 C493 1.367 . S
C492 C500 1.378 . S
C493 C492 1.367 . S
C493 C501 1.433 . S
C494 H490 0.929 . S
C494 C496 1.367 1_565 S
C494 C498 1.350 . S
C495 C498 1.463 . S
C495 C500 1.350 . S
C495 N503 1.427 . S
C496 H487 0.928 1_545 S
C496 C494 1.367 1_545 S
C496 C497 1.381 . S
C497 C496 1.381 . S
C497 C499 1.433 . S
C498 C494 1.350 . S
C498 C495 1.463 . S
C498 N502 1.427 1_565 S
C499 H489 0.929 . S
C499 C497 1.433 . S
C499 N502 1.384 . S
C500 H491 0.929 . S
C500 C492 1.378 . S
C500 C495 1.350 . S
C501 H488 0.929 . S
C501 C493 1.433 . S
C501 N503 1.384 . S
N502 C498 1.427 1_545 S
N502 C499 1.384 . S
N503 C495 1.427 . S
N503 C501 1.384 . S
H504 C510 0.930 . S
H505 C514 0.930 . S
H506 C519 0.929 . S
H507 C517 0.929 . S
H508 C512 0.929 . S
H509 C518 0.929 . S
C510 H504 0.930 . S
C510 C511 1.367 . S
C510 C518 1.378 . S
C511 C510 1.367 . S
C511 C519 1.433 . S
C512 H508 0.929 . S
C512 C514 1.378 1_545 S
C512 C516 1.350 . S
C513 C516 1.463 . S
C513 C518 1.350 . S
C513 N521 1.427 . S
C514 H505 0.930 . S
C514 C512 1.378 1_565 S
C514 C515 1.367 . S
C515 C514 1.367 . S
C515 C517 1.433 . S
C516 C512 1.350 . S
C516 C513 1.463 . S
C516 N520 1.427 1_545 S
C517 H507 0.929 . S
C517 C515 1.433 . S
C517 N520 1.384 . S
C518 H509 0.929 . S
C518 C510 1.378 . S
C518 C513 1.350 . S
C519 H506 0.929 . S
C519 C511 1.433 . S
C519 N521 1.384 . S
N520 C516 1.427 1_565 S
N520 C517 1.384 . S
N521 C513 1.427 . S
N521 C519 1.384 . S
H522 C528 0.930 . S
H523 C532 0.930 . S
H524 C537 0.929 . S
H525 C535 0.929 . S
H526 C530 0.929 . S
H527 C536 0.929 . S
C528 H522 0.930 . S
C528 C529 1.367 . S
C528 C536 1.378 . S
C529 C528 1.367 . S
C529 C537 1.433 . S
C530 H526 0.929 . S
C530 C532 1.378 . S
C530 C534 1.350 . S
C531 C534 1.463 . S
C531 C536 1.350 . S
C531 N539 1.427 . S
C532 H523 0.930 . S
C532 C530 1.378 . S
C532 C533 1.367 . S
C533 C532 1.367 . S
C533 C535 1.433 . S
C534 C530 1.350 . S
C534 C531 1.463 . S
C534 N538 1.427 . S
C535 H525 0.929 . S
C535 C533 1.433 . S
C535 N538 1.384 . S
C536 H527 0.929 . S
C536 C528 1.378 . S
C536 C531 1.350 . S
C537 H524 0.929 . S
C537 C529 1.433 . S
C537 N539 1.384 . S
N538 C534 1.427 . S
N538 C535 1.384 . S
N539 C531 1.427 . S
N539 C537 1.384 . S
H540 C546 0.930 . S
H541 C550 0.930 . S
H542 C555 0.929 . S
H543 C553 0.929 . S
H544 C548 0.929 . S
H545 C554 0.929 . S
C546 H540 0.930 . S
C546 C547 1.367 . S
C546 C554 1.378 . S
C547 C546 1.367 . S
C547 C555 1.433 . S
C548 H544 0.929 . S
C548 C550 1.378 . S
C548 C552 1.350 . S
C549 C552 1.463 . S
C549 C554 1.350 . S
C549 N557 1.427 . S
C550 H541 0.930 . S
C550 C548 1.378 . S
C550 C551 1.367 . S
C551 C550 1.367 . S
C551 C553 1.433 . S
C552 C548 1.350 . S
C552 C549 1.463 . S
C552 N556 1.427 . S
C553 H543 0.929 . S
C553 C551 1.433 . S
C553 N556 1.384 . S
C554 H545 0.929 . S
C554 C546 1.378 . S
C554 C549 1.350 . S
C555 H542 0.929 . S
C555 C547 1.433 . S
C555 N557 1.384 . S
N556 C552 1.427 . S
N556 C553 1.384 . S
N557 C549 1.427 . S
N557 C555 1.384 . S
H558 C564 0.930 . S
H559 C568 0.930 . S
H560 C573 0.929 . S
H561 C571 0.929 . S
H562 C566 0.929 . S
H563 C572 0.929 . S
C564 H558 0.930 . S
C564 C565 1.367 . S
C564 C572 1.378 . S
C565 C564 1.367 . S
C565 C573 1.433 . S
C566 H562 0.929 . S
C566 C568 1.378 1_545 S
C566 C570 1.350 . S
C567 C570 1.463 . S
C567 C572 1.350 . S
C567 N575 1.427 . S
C568 H559 0.930 . S
C568 C566 1.378 1_565 S
C568 C569 1.367 . S
C569 C568 1.367 . S
C569 C571 1.433 . S
C570 C566 1.350 . S
C570 C567 1.463 . S
C570 N574 1.427 . S
C571 H561 0.929 . S
C571 C569 1.433 . S
C571 N574 1.384 1_565 S
C572 H563 0.929 . S
C572 C564 1.378 . S
C572 C567 1.350 . S
C573 H560 0.929 . S
C573 C565 1.433 . S
C573 N575 1.384 . S
N574 C570 1.427 . S
N574 C571 1.384 1_545 S
N575 C567 1.427 . S
N575 C573 1.384 . S
H576 C582 0.930 . S
H577 C586 0.930 . S
H578 C591 0.929 . S
H579 C589 0.929 . S
H580 C584 0.929 . S
H581 C590 0.931 1_554 S
C582 H576 0.930 . S
C582 C583 1.367 . S
C582 C590 1.373 . S
C583 C582 1.367 . S
C583 C591 1.433 . S
C584 H580 0.929 . S
C584 C586 1.378 . S
C584 C588 1.350 . S
C585 C588 1.463 . S
C585 C590 1.352 1_554 S
C585 N593 1.427 1_554 S
C586 H577 0.930 . S
C586 C584 1.378 . S
C586 C587 1.367 . S
C587 C586 1.367 . S
C587 C589 1.433 . S
C588 C584 1.350 . S
C588 C585 1.463 . S
C588 N592 1.427 . S
C589 H579 0.929 . S
C589 C587 1.433 . S
C589 N592 1.384 . S
C590 H581 0.931 1_556 S
C590 C582 1.373 . S
C590 C585 1.352 1_556 S
C591 H578 0.929 . S
C591 C583 1.433 . S
C591 N593 1.384 . S
N592 C588 1.427 . S
N592 C589 1.384 . S
N593 C585 1.427 1_556 S
N593 C591 1.384 . S
H594 C600 0.930 . S
H595 C604 0.930 . S
H596 C609 0.929 . S
H597 C607 0.929 . S
H598 C602 0.929 . S
H599 C608 0.929 . S
C600 H594 0.930 . S
C600 C601 1.367 . S
C600 C608 1.378 . S
C601 C600 1.367 . S
C601 C609 1.433 . S
C602 H598 0.929 . S
C602 C604 1.378 . S
C602 C606 1.350 . S
C603 C606 1.463 . S
C603 C608 1.350 . S
C603 N611 1.427 . S
C604 H595 0.930 . S
C604 C602 1.378 . S
C604 C605 1.367 . S
C605 C604 1.367 . S
C605 C607 1.433 . S
C606 C602 1.350 . S
C606 C603 1.463 . S
C606 N610 1.427 . S
C607 H597 0.929 . S
C607 C605 1.433 . S
C607 N610 1.384 . S
C608 H599 0.929 . S
C608 C600 1.378 . S
C608 C603 1.350 . S
C609 H596 0.929 . S
C609 C601 1.433 . S
C609 N611 1.384 . S
N610 C606 1.427 . S
N610 C607 1.384 . S
N611 C603 1.427 . S
N611 C609 1.384 . S
H612 C618 0.930 . S
H613 C622 0.930 . S
H614 C627 0.929 . S
H615 C625 0.929 . S
H616 C620 0.929 . S
H617 C626 0.929 1_556 S
C618 H612 0.930 . S
C618 C619 1.367 . S
C618 C626 1.378 . S
C619 C618 1.367 . S
C619 C627 1.433 . S
C620 H616 0.929 . S
C620 C622 1.378 . S
C620 C624 1.350 . S
C621 C624 1.463 . S
C621 C626 1.350 1_556 S
C621 N629 1.427 1_556 S
C622 H613 0.930 . S
C622 C620 1.378 . S
C622 C623 1.367 . S
C623 C622 1.367 . S
C623 C625 1.433 . S
C624 C620 1.350 . S
C624 C621 1.463 . S
C624 N628 1.427 . S
C625 H615 0.929 . S
C625 C623 1.433 . S
C625 N628 1.384 . S
C626 H617 0.929 1_554 S
C626 C618 1.378 . S
C626 C621 1.350 1_554 S
C627 H614 0.929 . S
C627 C619 1.433 . S
C627 N629 1.384 . S
N628 C624 1.427 . S
N628 C625 1.384 . S
N629 C621 1.427 1_554 S
N629 C627 1.384 . S
H630 C636 0.930 . S
H631 C640 0.930 . S
H632 C645 0.929 . S
H633 C643 0.929 . S
H634 C638 0.929 . S
H635 C644 0.929 . S
C636 H630 0.930 . S
C636 C637 1.367 . S
C636 C644 1.378 . S
C637 C636 1.367 . S
C637 C645 1.433 . S
C638 H634 0.929 . S
C638 C640 1.378 . S
C638 C642 1.350 . S
C639 C642 1.463 . S
C639 C644 1.350 . S
C639 N647 1.427 . S
C640 H631 0.930 . S
C640 C638 1.378 . S
C640 C641 1.367 . S
C641 C640 1.367 . S
C641 C643 1.433 . S
C642 C638 1.350 . S
C642 C639 1.463 . S
C642 N646 1.427 . S
C643 H633 0.929 . S
C643 C641 1.433 . S
C643 N646 1.384 . S
C644 H635 0.929 . S
C644 C636 1.378 . S
C644 C639 1.350 . S
C645 H632 0.929 . S
C645 C637 1.433 . S
C645 N647 1.384 . S
N646 C642 1.427 . S
N646 C643 1.384 . S
N647 C639 1.427 . S
N647 C645 1.384 . S
H648 C654 0.930 . S
H649 C658 0.930 . S
H650 C663 0.929 . S
H651 C661 0.929 . S
H652 C656 0.929 . S
H653 C662 0.945 . S
C654 H648 0.930 . S
C654 C655 1.367 . S
C654 C662 1.354 1_554 S
C655 C654 1.367 . S
C655 C663 1.433 . S
C656 H652 0.929 . S
C656 C658 1.378 . S
C656 C660 1.350 . S
C657 C660 1.463 . S
C657 C662 1.358 . S
C657 N665 1.427 1_556 S
C658 H649 0.930 . S
C658 C656 1.378 . S
C658 C659 1.367 . S
C659 C658 1.367 . S
C659 C661 1.433 . S
C660 C656 1.350 . S
C660 C657 1.463 . S
C660 N664 1.427 . S
C661 H651 0.929 . S
C661 C659 1.433 . S
C661 N664 1.384 . S
C662 H653 0.945 . S
C662 C654 1.354 1_556 S
C662 C657 1.358 . S
C663 H650 0.929 . S
C663 C655 1.433 . S
C663 N665 1.384 . S
N664 C660 1.427 . S
N664 C661 1.384 . S
N665 C657 1.427 1_554 S
N665 C663 1.384 . S
H666 C672 0.930 . S
H667 C676 0.930 . S
H668 C681 0.929 . S
H669 C679 0.929 . S
H670 C674 0.929 . S
H671 C680 0.929 . S
C672 H666 0.930 . S
C672 C673 1.367 . S
C672 C680 1.378 . S
C673 C672 1.367 . S
C673 C681 1.433 . S
C674 H670 0.929 . S
C674 C676 1.378 . S
C674 C678 1.350 . S
C675 C678 1.463 . S
C675 C680 1.350 . S
C675 N683 1.427 . S
C676 H667 0.930 . S
C676 C674 1.378 . S
C676 C677 1.367 . S
C677 C676 1.367 . S
C677 C679 1.433 . S
C678 C674 1.350 . S
C678 C675 1.463 . S
C678 N682 1.427 . S
C679 H669 0.929 . S
C679 C677 1.433 . S
C679 N682 1.384 . S
C680 H671 0.929 . S
C680 C672 1.378 . S
C680 C675 1.350 . S
C681 H668 0.929 . S
C681 C673 1.433 . S
C681 N683 1.384 . S
N682 C678 1.427 . S
N682 C679 1.384 . S
N683 C675 1.427 . S
N683 C681 1.384 . S
H684 C690 0.930 . S
H685 C694 0.930 . S
H686 C699 0.929 . S
H687 C697 0.929 . S
H688 C692 0.929 . S
H689 C698 0.929 . S
C690 H684 0.930 . S
C690 C691 1.367 . S
C690 C698 1.378 1_556 S
C691 C690 1.367 . S
C691 C699 1.433 . S
C692 H688 0.929 . S
C692 C694 1.378 . S
C692 C696 1.350 . S
C693 C696 1.463 . S
C693 C698 1.350 . S
C693 N701 1.427 1_554 S
C694 H685 0.930 . S
C694 C692 1.378 . S
C694 C695 1.367 . S
C695 C694 1.367 . S
C695 C697 1.433 . S
C696 C692 1.350 . S
C696 C693 1.463 . S
C696 N700 1.427 . S
C697 H687 0.929 . S
C697 C695 1.433 . S
C697 N700 1.384 . S
C698 H689 0.929 . S
C698 C690 1.378 1_554 S
C698 C693 1.350 . S
C699 H686 0.929 . S
C699 C691 1.433 . S
C699 N701 1.384 . S
N700 C696 1.427 . S
N700 C697 1.384 . S
N701 C693 1.427 1_556 S
N701 C699 1.384 . S
H702 C708 0.930 . S
H703 C712 0.930 . S
H704 C717 0.929 . S
H705 C715 0.929 . S
H706 C710 0.929 . S
H707 C716 0.929 . S
C708 H702 0.930 . S
C708 C709 1.367 . S
C708 C716 1.378 . S
C709 C708 1.367 . S
C709 C717 1.433 . S
C710 H706 0.929 . S
C710 C712 1.378 . S
C710 C714 1.350 . S
C711 C714 1.463 . S
C711 C716 1.350 . S
C711 N719 1.427 . S
C712 H703 0.930 . S
C712 C710 1.378 . S
C712 C713 1.367 . S
C713 C712 1.367 . S
C713 C715 1.433 . S
C714 C710 1.350 . S
C714 C711 1.463 . S
C714 N718 1.427 . S
C715 H705 0.929 . S
C715 C713 1.433 . S
C715 N718 1.384 . S
C716 H707 0.929 . S
C716 C708 1.378 . S
C716 C711 1.350 . S
C717 H704 0.929 . S
C717 C709 1.433 . S
C717 N719 1.384 . S
N718 C714 1.427 . S
N718 C715 1.384 . S
N719 C711 1.427 . S
N719 C717 1.384 . S
H720 C726 0.930 . S
H721 C730 0.930 . S
H722 C735 0.929 . S
H723 C733 0.929 . S
H724 C728 0.929 . S
H725 C734 0.929 . S
C726 H720 0.930 . S
C726 C727 1.367 . S
C726 C734 1.378 . S
C727 C726 1.367 . S
C727 C735 1.433 . S
C728 H724 0.929 . S
C728 C730 1.378 . S
C728 C732 1.350 . S
C729 C732 1.463 . S
C729 C734 1.350 . S
C729 N737 1.427 . S
C730 H721 0.930 . S
C730 C728 1.378 . S
C730 C731 1.367 . S
C731 C730 1.367 . S
C731 C733 1.433 . S
C732 C728 1.350 . S
C732 C729 1.463 . S
C732 N736 1.427 . S
C733 H723 0.929 . S
C733 C731 1.433 . S
C733 N736 1.384 . S
C734 H725 0.929 . S
C734 C726 1.378 . S
C734 C729 1.350 . S
C735 H722 0.929 . S
C735 C727 1.433 . S
C735 N737 1.384 . S
N736 C732 1.427 . S
N736 C733 1.384 . S
N737 C729 1.427 . S
N737 C735 1.384 . S
H738 C744 0.930 . S
H739 C748 0.930 . S
H740 C753 0.929 . S
H741 C751 0.929 . S
H742 C746 0.929 . S
H743 C752 0.929 . S
C744 H738 0.930 . S
C744 C745 1.367 . S
C744 C752 1.378 . S
C745 C744 1.367 . S
C745 C753 1.433 . S
C746 H742 0.929 . S
C746 C748 1.378 . S
C746 C750 1.350 . S
C747 C750 1.463 . S
C747 C752 1.350 . S
C747 N755 1.427 . S
C748 H739 0.930 . S
C748 C746 1.378 . S
C748 C749 1.367 . S
C749 C748 1.367 . S
C749 C751 1.433 . S
C750 C746 1.350 . S
C750 C747 1.463 . S
C750 N754 1.427 . S
C751 H741 0.929 . S
C751 C749 1.433 . S
C751 N754 1.384 . S
C752 H743 0.929 . S
C752 C744 1.378 . S
C752 C747 1.350 . S
C753 H740 0.929 . S
C753 C745 1.433 . S
C753 N755 1.384 . S
N754 C750 1.427 . S
N754 C751 1.384 . S
N755 C747 1.427 . S
N755 C753 1.384 . S
H756 C762 0.930 . S
H757 C766 0.930 . S
H758 C771 0.929 . S
H759 C769 0.929 . S
H760 C764 0.929 . S
H761 C770 0.929 . S
C762 H756 0.930 . S
C762 C763 1.367 . S
C762 C770 1.378 . S
C763 C762 1.367 . S
C763 C771 1.433 . S
C764 H760 0.929 . S
C764 C766 1.378 . S
C764 C768 1.350 . S
C765 C768 1.463 . S
C765 C770 1.350 . S
C765 N773 1.427 . S
C766 H757 0.930 . S
C766 C764 1.378 . S
C766 C767 1.367 . S
C767 C766 1.367 . S
C767 C769 1.433 . S
C768 C764 1.350 . S
C768 C765 1.463 . S
C768 N772 1.427 . S
C769 H759 0.929 . S
C769 C767 1.433 . S
C769 N772 1.384 . S
C770 H761 0.929 . S
C770 C762 1.378 . S
C770 C765 1.350 . S
C771 H758 0.929 . S
C771 C763 1.433 . S
C771 N773 1.384 . S
N772 C768 1.427 . S
N772 C769 1.384 . S
N773 C765 1.427 . S
N773 C771 1.384 . S
H774 C780 0.930 . S
H775 C784 0.930 . S
H776 C789 0.929 . S
H777 C787 0.929 . S
H778 C782 0.929 . S
H779 C788 0.929 . S
C780 H774 0.930 . S
C780 C781 1.367 . S
C780 C788 1.378 . S
C781 C780 1.367 . S
C781 C789 1.433 . S
C782 H778 0.929 . S
C782 C784 1.378 . S
C782 C786 1.350 . S
C783 C786 1.463 . S
C783 C788 1.350 . S
C783 N791 1.427 . S
C784 H775 0.930 . S
C784 C782 1.378 . S
C784 C785 1.367 . S
C785 C784 1.367 . S
C785 C787 1.433 . S
C786 C782 1.350 . S
C786 C783 1.463 . S
C786 N790 1.427 . S
C787 H777 0.929 . S
C787 C785 1.433 . S
C787 N790 1.384 . S
C788 H779 0.929 . S
C788 C780 1.378 . S
C788 C783 1.350 . S
C789 H776 0.929 . S
C789 C781 1.433 . S
C789 N791 1.384 . S
N790 C786 1.427 . S
N790 C787 1.384 . S
N791 C783 1.427 . S
N791 C789 1.384 . S
H792 C798 0.930 . S
H793 C802 0.930 . S
H794 C807 0.929 . S
H795 C805 0.929 1_455 S
H796 C800 0.929 . S
H797 C806 0.929 . S
C798 H792 0.930 . S
C798 C799 1.367 . S
C798 C806 1.378 . S
C799 C798 1.367 . S
C799 C807 1.433 . S
C800 H796 0.929 . S
C800 C802 1.378 . S
C800 C804 1.350 . S
C801 C804 1.463 . S
C801 C806 1.350 . S
C801 N809 1.427 . S
C802 H793 0.930 . S
C802 C800 1.378 . S
C802 C803 1.367 . S
C803 C802 1.367 . S
C803 C805 1.433 . S
C804 C800 1.350 . S
C804 C801 1.463 . S
C804 N808 1.427 . S
C805 H795 0.929 1_655 S
C805 C803 1.433 . S
C805 N808 1.384 . S
C806 H797 0.929 . S
C806 C798 1.378 . S
C806 C801 1.350 . S
C807 H794 0.929 . S
C807 C799 1.433 . S
C807 N809 1.384 . S
N808 C804 1.427 . S
N808 C805 1.384 . S
N809 C801 1.427 . S
N809 C807 1.384 . S
H810 C816 0.930 . S
H811 C820 0.930 . S
H812 C825 0.929 . S
H813 C823 0.929 . S
H814 C818 0.929 . S
H815 C824 0.929 . S
C816 H810 0.930 . S
C816 C817 1.367 . S
C816 C824 1.378 . S
C817 C816 1.367 . S
C817 C825 1.433 . S
C818 H814 0.929 . S
C818 C820 1.378 . S
C818 C822 1.350 . S
C819 C822 1.463 . S
C819 C824 1.350 . S
C819 N827 1.427 . S
C820 H811 0.930 . S
C820 C818 1.378 . S
C820 C821 1.367 . S
C821 C820 1.367 . S
C821 C823 1.433 . S
C822 C818 1.350 . S
C822 C819 1.463 . S
C822 N826 1.427 . S
C823 H813 0.929 . S
C823 C821 1.433 . S
C823 N826 1.384 . S
C824 H815 0.929 . S
C824 C816 1.378 . S
C824 C819 1.350 . S
C825 H812 0.929 . S
C825 C817 1.433 . S
C825 N827 1.384 . S
N826 C822 1.427 . S
N826 C823 1.384 . S
N827 C819 1.427 . S
N827 C825 1.384 . S
H828 C834 0.930 . S
H829 C838 0.930 . S
H830 C843 0.929 . S
H831 C841 0.929 . S
H832 C836 0.929 . S
H833 C842 0.929 . S
C834 H828 0.930 . S
C834 C835 1.367 . S
C834 C842 1.378 . S
C835 C834 1.367 . S
C835 C843 1.433 . S
C836 H832 0.929 . S
C836 C838 1.378 . S
C836 C840 1.350 . S
C837 C840 1.463 . S
C837 C842 1.350 . S
C837 N845 1.427 . S
C838 H829 0.930 . S
C838 C836 1.378 . S
C838 C839 1.367 . S
C839 C838 1.367 . S
C839 C841 1.433 . S
C840 C836 1.350 . S
C840 C837 1.463 . S
C840 N844 1.427 . S
C841 H831 0.929 . S
C841 C839 1.433 . S
C841 N844 1.384 . S
C842 H833 0.929 . S
C842 C834 1.378 . S
C842 C837 1.350 . S
C843 H830 0.929 . S
C843 C835 1.433 . S
C843 N845 1.384 . S
N844 C840 1.427 . S
N844 C841 1.384 . S
N845 C837 1.427 . S
N845 C843 1.384 . S
H846 C852 0.930 . S
H847 C856 0.930 . S
H848 C861 0.929 . S
H849 C859 0.929 . S
H850 C854 0.929 . S
H851 C860 0.929 . S
C852 H846 0.930 . S
C852 C853 1.367 . S
C852 C860 1.378 . S
C853 C852 1.367 . S
C853 C861 1.433 . S
C854 H850 0.929 . S
C854 C856 1.378 . S
C854 C858 1.350 . S
C855 C858 1.463 . S
C855 C860 1.350 . S
C855 N863 1.427 . S
C856 H847 0.930 . S
C856 C854 1.378 . S
C856 C857 1.367 . S
C857 C856 1.367 . S
C857 C859 1.433 . S
C858 C854 1.350 . S
C858 C855 1.463 . S
C858 N862 1.427 . S
C859 H849 0.929 . S
C859 C857 1.433 . S
C859 N862 1.384 . S
C860 H851 0.929 . S
C860 C852 1.378 . S
C860 C855 1.350 . S
C861 H848 0.929 . S
C861 C853 1.433 . S
C861 N863 1.384 . S
N862 C858 1.427 . S
N862 C859 1.384 . S
N863 C855 1.427 . S
N863 C861 1.384 . S
C439 C81 1.685 . S
C443 C170 1.671 . S
C461 C254 1.667 . S
C457 C93 1.685 . S
C479 C247 1.672 . S
C475 C57 1.679 . S
C493 C69 1.678 . S
C497 C163 1.676 . S
C515 C327 1.664 . S
C511 C33 1.679 . S
C533 C411 1.664 . S
C529 C45 1.679 . S
C547 C9 1.671 . S
C551 C404 1.673 . S
C565 C21 1.676 . S
C569 C320 1.674 . S
C587 C154 1.467 . S
C583 C18 1.612 . S
C605 C238 1.449 . S
C601 C6 1.607 . S
C623 C249 1.400 . S
C619 C42 1.618 . S
C641 C165 1.399 . S
C637 C30 1.617 . S
C659 C333 1.451 . S
C655 C66 1.619 . S
C673 C54 1.617 . S
C677 C417 1.464 . S
C695 C406 1.416 . S
C691 C90 1.625 . S
C709 C78 1.625 . S
C713 C322 1.414 . S
C731 C152 1.537 . S
C727 C4 1.518 . S
C749 C236 1.537 . S
C745 C16 1.526 . S
C763 C28 1.522 . S
C767 C243 1.504 . S
C785 C159 1.505 . S
C781 C40 1.522 . S
C803 C331 1.536 . S
C799 C52 1.520 . S
C817 C64 1.515 . S
C821 C415 1.538 . S
C835 C76 1.510 . S
C839 C422 1.514 . S
C853 C88 1.510 . S
C857 C338 1.514 . S
