# Generated by pormake.
# Topology apo, (3,6)-cn, num edge types: 1
# Building blocks:
#     Node 0, Type 0, BuildingBlock: CUQRIR_clean_linker_1, # of connection points: 3
#     Node 1, Type 0, BuildingBlock: CUQRIR_clean_linker_1, # of connection points: 3
#     Node 2, Type 0, BuildingBlock: CUQRIR_clean_linker_1, # of connection points: 3
#     Node 3, Type 0, BuildingBlock: CUQRIR_clean_linker_1, # of connection points: 3
#     Node 4, Type 0, BuildingBlock: CUQRIR_clean_linker_1, # of connection points: 3
#     Node 5, Type 0, BuildingBlock: CUQRIR_clean_linker_1, # of connection points: 3
#     Node 6, Type 0, BuildingBlock: CUQRIR_clean_linker_1, # of connection points: 3
#     Node 7, Type 0, BuildingBlock: CUQRIR_clean_linker_1, # of connection points: 3
#     Node 8, Type 1, BuildingBlock: KUMBOL_clean_sbu_1, # of connection points: 6
#     Node 9, Type 1, BuildingBlock: KUMBOL_clean_sbu_1, # of connection points: 6
#     Node 10, Type 1, BuildingBlock: KUMBOL_clean_sbu_1, # of connection points: 6
#     Node 11, Type 1, BuildingBlock: KUMBOL_clean_sbu_1, # of connection points: 6
#     Edge 12, Type (0, 1), BuildingBlock: XUDNAN_clean_linker_2, # of connection points: 2
#     Edge 13, Type (0, 1), BuildingBlock: XUDNAN_clean_linker_2, # of connection points: 2
#     Edge 14, Type (0, 1), BuildingBlock: XUDNAN_clean_linker_2, # of connection points: 2
#     Edge 15, Type (0, 1), BuildingBlock: XUDNAN_clean_linker_2, # of connection points: 2
#     Edge 16, Type (0, 1), BuildingBlock: XUDNAN_clean_linker_2, # of connection points: 2
#     Edge 17, Type (0, 1), BuildingBlock: XUDNAN_clean_linker_2, # of connection points: 2
#     Edge 18, Type (0, 1), BuildingBlock: XUDNAN_clean_linker_2, # of connection points: 2
#     Edge 19, Type (0, 1), BuildingBlock: XUDNAN_clean_linker_2, # of connection points: 2
#     Edge 20, Type (0, 1), BuildingBlock: XUDNAN_clean_linker_2, # of connection points: 2
#     Edge 21, Type (0, 1), BuildingBlock: XUDNAN_clean_linker_2, # of connection points: 2
#     Edge 22, Type (0, 1), BuildingBlock: XUDNAN_clean_linker_2, # of connection points: 2
#     Edge 23, Type (0, 1), BuildingBlock: XUDNAN_clean_linker_2, # of connection points: 2
#     Edge 24, Type (0, 1), BuildingBlock: XUDNAN_clean_linker_2, # of connection points: 2
#     Edge 25, Type (0, 1), BuildingBlock: XUDNAN_clean_linker_2, # of connection points: 2
#     Edge 26, Type (0, 1), BuildingBlock: XUDNAN_clean_linker_2, # of connection points: 2
#     Edge 27, Type (0, 1), BuildingBlock: XUDNAN_clean_linker_2, # of connection points: 2
#     Edge 28, Type (0, 1), BuildingBlock: XUDNAN_clean_linker_2, # of connection points: 2
#     Edge 29, Type (0, 1), BuildingBlock: XUDNAN_clean_linker_2, # of connection points: 2
#     Edge 30, Type (0, 1), BuildingBlock: XUDNAN_clean_linker_2, # of connection points: 2
#     Edge 31, Type (0, 1), BuildingBlock: XUDNAN_clean_linker_2, # of connection points: 2
#     Edge 32, Type (0, 1), BuildingBlock: XUDNAN_clean_linker_2, # of connection points: 2
#     Edge 33, Type (0, 1), BuildingBlock: XUDNAN_clean_linker_2, # of connection points: 2
#     Edge 34, Type (0, 1), BuildingBlock: XUDNAN_clean_linker_2, # of connection points: 2
#     Edge 35, Type (0, 1), BuildingBlock: XUDNAN_clean_linker_2, # of connection points: 2
# Relax obj value: 0.045
# Max RMSD: 0.227
# Mean RMSD: 0.178
data_MOF--net-apo--node1-KUMBOL_clean_sbu_1--node2-CUQRIR_clean_linker_1--edge1-XUDNAN_clean_linker_2
_symmetry_space_group_name_H-M    P1
_symmetry_Int_Tables_number       1
_symmetry_cell_setting            triclinic
loop_
_symmetry_equiv_pos_as_xyz
'x, y, z'
_cell_length_a     25.96765
_cell_length_b     39.293579
_cell_length_c     47.302835
_cell_angle_alpha  90.121048
_cell_angle_beta   89.945637
_cell_angle_gamma 90.505101
loop_
_atom_site_label
_atom_site_type_symbol
_atom_site_fract_x
_atom_site_fract_y
_atom_site_fract_z
_atom_type_partial_charge
C0 C 0.26395 0.34699 0.42087 0.0
N1 N 0.29751 0.37336 0.42432 0.0
N2 N 0.25457 0.34147 0.39307 0.0
C3 C 0.23713 0.3284 0.44453 0.0
C4 C 0.28252 0.3657 0.37973 0.0
N5 N 0.30839 0.38515 0.39865 0.0
C6 C 0.28235 0.3715 0.34831 0.0
H7 H 0.26345 0.30894 0.45318 0.0
H8 H 0.20166 0.31526 0.4371 0.0
H9 H 0.22717 0.34628 0.46185 0.0
H10 H 0.27234 0.34779 0.33672 0.0
H11 H 0.32047 0.38108 0.34107 0.0
H12 H 0.25315 0.39101 0.34325 0.0
C13 C 0.24596 0.16341 0.92313 0.0
N14 N 0.21805 0.13431 0.92608 0.0
N15 N 0.25825 0.16877 0.89569 0.0
C16 C 0.25858 0.18794 0.94667 0.0
C17 C 0.23627 0.14213 0.88191 0.0
N18 N 0.2114 0.12136 0.90034 0.0
C19 C 0.24263 0.13499 0.85082 0.0
H20 H 0.2282 0.18739 0.96319 0.0
H21 H 0.26264 0.21425 0.93842 0.0
H22 H 0.29566 0.18071 0.9565 0.0
H23 H 0.28005 0.14499 0.84296 0.0
H24 H 0.21136 0.14788 0.83913 0.0
H25 H 0.24007 0.10733 0.84625 0.0
C26 C 0.75951 0.16439 0.61546 0.0
N27 N 0.7871 0.13515 0.61502 0.0
N28 N 0.74348 0.17158 0.64207 0.0
C29 C 0.74686 0.18542 0.5898 0.0
C30 C 0.76153 0.14566 0.6578 0.0
N31 N 0.7878 0.12349 0.64149 0.0
C32 C 0.75079 0.14103 0.68888 0.0
H33 H 0.78045 0.20183 0.58453 0.0
H34 H 0.71374 0.20241 0.59344 0.0
H35 H 0.73858 0.16872 0.57137 0.0
H36 H 0.71207 0.15071 0.69445 0.0
H37 H 0.77976 0.15584 0.70111 0.0
H38 H 0.75331 0.11396 0.69528 0.0
C39 C 0.7437 0.34343 0.12428 0.0
N40 N 0.70584 0.36648 0.12046 0.0
N41 N 0.76567 0.34741 0.15004 0.0
C42 C 0.76084 0.3181 0.10241 0.0
C43 C 0.73995 0.37379 0.16168 0.0
N44 N 0.70399 0.38564 0.14358 0.0
C45 C 0.74767 0.38639 0.19153 0.0
H46 H 0.73587 0.29509 0.10372 0.0
H47 H 0.80134 0.31046 0.10601 0.0
H48 H 0.75718 0.32886 0.08084 0.0
H49 H 0.78196 0.4034 0.19208 0.0
H50 H 0.75476 0.36472 0.20597 0.0
H51 H 0.71432 0.40103 0.19942 0.0
C52 C 0.74695 0.66447 0.61918 0.0
N53 N 0.71996 0.63498 0.61723 0.0
N54 N 0.7672 0.66836 0.64539 0.0
C55 C 0.75264 0.6896 0.5954 0.0
C56 C 0.75122 0.64008 0.65938 0.0
N57 N 0.72223 0.61979 0.64231 0.0
C58 C 0.76931 0.63025 0.68847 0.0
H59 H 0.78627 0.68248 0.58224 0.0
H60 H 0.75859 0.7158 0.60362 0.0
H61 H 0.71801 0.68908 0.58167 0.0
H62 H 0.74274 0.641 0.70449 0.0
H63 H 0.80854 0.64048 0.69262 0.0
H64 H 0.76984 0.60219 0.69096 0.0
C65 C 0.76425 0.84617 0.11808 0.0
N66 N 0.79662 0.8733 0.11727 0.0
N67 N 0.74546 0.84172 0.14447 0.0
C68 C 0.75192 0.82362 0.09324 0.0
C69 C 0.76741 0.86716 0.15974 0.0
N70 N 0.79909 0.88633 0.14323 0.0
C71 C 0.75385 0.87492 0.19003 0.0
H72 H 0.72101 0.83561 0.08062 0.0
H73 H 0.73836 0.79814 0.10024 0.0
H74 H 0.78617 0.82078 0.07941 0.0
H75 H 0.7827 0.86302 0.20409 0.0
H76 H 0.71536 0.86442 0.19557 0.0
H77 H 0.75404 0.90276 0.19395 0.0
C78 C 0.23122 0.84221 0.42224 0.0
N79 N 0.20364 0.87107 0.42527 0.0
N80 N 0.25064 0.83975 0.39571 0.0
C81 C 0.2398 0.81669 0.44546 0.0
C82 C 0.23349 0.86809 0.38262 0.0
N83 N 0.20478 0.88714 0.40052 0.0
C84 C 0.24917 0.87893 0.35329 0.0
H85 H 0.27012 0.82654 0.4599 0.0
H86 H 0.25176 0.7917 0.43686 0.0
H87 H 0.20425 0.81284 0.45806 0.0
H88 H 0.22143 0.86803 0.33783 0.0
H89 H 0.28816 0.86955 0.34796 0.0
H90 H 0.249 0.90705 0.3512 0.0
C91 C 0.27198 0.6738 0.91589 0.0
N92 N 0.30541 0.64789 0.92009 0.0
N93 N 0.25416 0.67341 0.88906 0.0
C94 C 0.25679 0.69976 0.93775 0.0
C95 C 0.27817 0.64679 0.87684 0.0
N96 N 0.31005 0.63156 0.89553 0.0
C97 C 0.2689 0.63487 0.84693 0.0
H98 H 0.22244 0.69028 0.94938 0.0
H99 H 0.24652 0.72425 0.92773 0.0
H100 H 0.28844 0.70433 0.95308 0.0
H101 H 0.30137 0.64351 0.83342 0.0
H102 H 0.23304 0.64532 0.83792 0.0
H103 H 0.26705 0.60666 0.84604 0.0
C104 C 0.83971 0.08543 0.27995 0.0
C105 C 0.83874 0.0258 0.29365 0.0
C106 C 0.86326 0.0579 0.29286 0.0
C107 C 0.79055 0.02146 0.28066 0.0
C108 C 0.79048 0.08136 0.26774 0.0
C109 C 0.76652 0.04914 0.26772 0.0
N110 N 0.86374 0.11642 0.28054 0.0
C111 C 0.83839 0.14473 0.27151 0.0
C112 C 0.76607 0.10998 0.25669 0.0
C113 C 0.78977 0.14186 0.25903 0.0
Gd114 Gd 0.05883 0.11834 0.2413 0.0
Gd115 Gd 0.94587 0.11754 0.30194 0.0
N116 N 0.91057 0.0626 0.30461 0.0
C117 C 0.86323 0.99912 0.30775 0.0
C118 C 0.93378 0.03714 0.31933 0.0
C119 C 0.91079 1.00489 0.3208 0.0
H120 H 0.97012 0.04181 0.32977 0.0
H121 H 0.92963 0.98456 0.33208 0.0
H122 H 0.04977 0.19995 0.21948 0.0
H123 H 0.85454 0.16985 0.27445 0.0
H124 H 0.10512 0.25083 0.21684 0.0
H125 H 0.84548 0.97411 0.30894 0.0
H126 H 0.77124 0.9969 0.28084 0.0
H127 H 0.13646 0.05434 0.2621 0.0
H128 H 0.72818 0.10793 0.24722 0.0
H129 H 0.77017 0.16436 0.2517 0.0
H130 H 0.27044 0.21227 0.24746 0.0
H131 H 0.72888 0.04554 0.25824 0.0
H132 H 0.28681 0.09597 0.27551 0.0
H133 H 0.22636 0.04704 0.27662 0.0
N134 N 0.14376 0.10788 0.25561 0.0
C135 C 0.17679 0.13485 0.25377 0.0
C136 C 0.16134 0.07645 0.26297 0.0
C137 C 0.24682 0.09961 0.26984 0.0
C138 C 0.21279 0.07197 0.27062 0.0
C139 C 0.22922 0.13141 0.26099 0.0
H140 H 0.30301 0.15733 0.26412 0.0
N141 N 0.10791 0.16847 0.23686 0.0
C142 C 0.15843 0.16593 0.24415 0.0
C143 C 0.17223 0.22519 0.23247 0.0
C144 C 0.19198 0.19425 0.24197 0.0
C145 C 0.08894 0.19828 0.22664 0.0
C146 C 0.12053 0.22716 0.22469 0.0
O147 O 0.95405 0.07454 0.27025 0.0
O148 O 0.97564 0.10696 0.23297 0.0
O149 O 0.07802 0.12674 0.19713 0.0
O150 O 0.07513 0.07538 0.21379 0.0
O151 O 0.02559 0.1006 0.31285 0.0
O152 O 0.05187 0.07396 0.27196 0.0
O153 O 0.07644 0.14737 0.28173 0.0
O154 O 0.99708 0.16416 0.29943 0.0
O155 O 0.95316 0.1103 0.34752 0.0
O156 O 0.89359 0.14241 0.33092 0.0
O157 O 0.99292 0.15431 0.23223 0.0
O158 O 0.94445 0.16399 0.27348 0.0
C159 C 0.95438 0.07949 0.24299 0.0
C160 C 0.05164 0.07691 0.29974 0.0
C161 C 0.12876 0.08576 0.17366 0.0
C162 C 0.16601 0.0822 0.12611 0.0
C163 C 0.2139 0.06223 0.16707 0.0
C164 C 0.1734 0.07124 0.18486 0.0
C165 C 0.21025 0.06741 0.13795 0.0
C166 C 0.12539 0.09141 0.14434 0.0
C167 C 0.08466 0.09457 0.19184 0.0
C168 C 0.24412 0.19081 0.24911 0.0
C169 C 0.26265 0.15954 0.25869 0.0
H170 H 0.19671 0.24756 0.23072 0.0
C171 C 0.04715 0.16844 0.29615 0.0
C172 C 0.95877 0.17131 0.24733 0.0
C173 C 0.8732 0.11024 0.37146 0.0
C174 C 0.84411 0.09144 0.41814 0.0
C175 C 0.79187 0.07988 0.37643 0.0
C176 C 0.82832 0.09613 0.35951 0.0
C177 C 0.79953 0.07757 0.40549 0.0
C178 C 0.88091 0.10801 0.4009 0.0
C179 C 0.91161 0.12727 0.3532 0.0
H180 H 0.24811 0.0508 0.17585 0.0
H181 H 0.17687 0.06652 0.20723 0.0
H182 H 0.24188 0.05926 0.12472 0.0
H183 H 0.09112 0.10315 0.13586 0.0
H184 H 0.75733 0.06924 0.36701 0.0
H185 H 0.82102 0.09795 0.3371 0.0
H186 H 0.76999 0.06532 0.41815 0.0
H187 H 0.9155 0.11879 0.41025 0.0
C188 C 0.66691 0.42249 0.78372 0.0
C189 C 0.66774 0.4829 0.79449 0.0
C190 C 0.64194 0.45124 0.79346 0.0
C191 C 0.71823 0.48561 0.78402 0.0
C192 C 0.7187 0.42467 0.77487 0.0
C193 C 0.74367 0.45654 0.77421 0.0
N194 N 0.64206 0.39197 0.78533 0.0
C195 C 0.66837 0.36247 0.78129 0.0
C196 C 0.74453 0.39455 0.76825 0.0
C197 C 0.71956 0.36327 0.77207 0.0
Gd198 Gd 0.43741 0.39665 0.74067 0.0
Gd199 Gd 0.55518 0.39335 0.79926 0.0
N200 N 0.59302 0.44776 0.80338 0.0
C201 C 0.64266 0.51054 0.80696 0.0
C202 C 0.56985 0.47393 0.81738 0.0
C203 C 0.5938 0.5059 0.81884 0.0
H204 H 0.53285 0.47008 0.82723 0.0
H205 H 0.5748 0.52683 0.82934 0.0
H206 H 0.41968 0.31453 0.72538 0.0
H207 H 0.64991 0.33826 0.78552 0.0
H208 H 0.34812 0.27266 0.7243 0.0
H209 H 0.66132 0.53526 0.80834 0.0
H210 H 0.73851 0.50982 0.78426 0.0
H211 H 0.3811 0.4729 0.75432 0.0
H212 H 0.78438 0.3951 0.76143 0.0
H213 H 0.7399 0.33976 0.76832 0.0
H214 H 0.20344 0.33439 0.7601 0.0
H215 H 0.78325 0.45878 0.76714 0.0
H216 H 0.22526 0.45333 0.77854 0.0
H217 H 0.29746 0.49369 0.77097 0.0
N218 N 0.35916 0.42042 0.75605 0.0
C219 C 0.31908 0.39805 0.75838 0.0
C220 C 0.35102 0.45461 0.75907 0.0
C221 C 0.26255 0.44382 0.77216 0.0
C222 C 0.3032 0.46668 0.76795 0.0
C223 C 0.26971 0.4092 0.7666 0.0
H224 H 0.19052 0.39392 0.77427 0.0
N225 N 0.37372 0.35437 0.7417 0.0
C226 C 0.32626 0.36432 0.75039 0.0
C227 C 0.2925 0.30799 0.74069 0.0
C228 C 0.28445 0.34117 0.75043 0.0
C229 C 0.38196 0.32201 0.73237 0.0
C230 C 0.34151 0.29833 0.73172 0.0
O231 O 0.54989 0.43775 0.76893 0.0
O232 O 0.52013 0.40895 0.73068 0.0
O233 O 0.4198 0.382 0.69743 0.0
O234 O 0.4215 0.43525 0.70901 0.0
O235 O 0.47491 0.4099 0.80989 0.0
O236 O 0.45165 0.44031 0.77105 0.0
O237 O 0.42405 0.36264 0.779 0.0
O238 O 0.50601 0.34645 0.79268 0.0
O239 O 0.53963 0.3994 0.84428 0.0
O240 O 0.60011 0.3661 0.83043 0.0
O241 O 0.49555 0.35567 0.73152 0.0
O242 O 0.56505 0.35417 0.76349 0.0
C243 C 0.54576 0.43444 0.74152 0.0
C244 C 0.45253 0.43618 0.79858 0.0
C245 C 0.36704 0.41855 0.67104 0.0
C246 C 0.32975 0.42345 0.62392 0.0
C247 C 0.27606 0.4305 0.66557 0.0
C248 C 0.31857 0.42497 0.68292 0.0
C249 C 0.28161 0.43001 0.63623 0.0
C250 C 0.37237 0.41735 0.64144 0.0
C251 C 0.41239 0.41305 0.68904 0.0
C252 C 0.23585 0.35194 0.75966 0.0
C253 C 0.22855 0.38582 0.76783 0.0
H254 H 0.26115 0.28962 0.74005 0.0
C255 C 0.45554 0.34331 0.79379 0.0
C256 C 0.54014 0.34358 0.7404 0.0
C257 C 0.61296 0.39531 0.87349 0.0
C258 C 0.63732 0.40243 0.92322 0.0
C259 C 0.69043 0.4269 0.88576 0.0
C260 C 0.65677 0.41399 0.86541 0.0
C261 C 0.68117 0.42098 0.91439 0.0
C262 C 0.60301 0.38993 0.90238 0.0
C263 C 0.57822 0.38069 0.85194 0.0
H264 H 0.23879 0.43546 0.6749 0.0
H265 H 0.31348 0.42595 0.70551 0.0
H266 H 0.24827 0.43467 0.62308 0.0
H267 H 0.40972 0.41244 0.63208 0.0
H268 H 0.72442 0.44101 0.87928 0.0
H269 H 0.66549 0.41816 0.84338 0.0
H270 H 0.70934 0.43022 0.92946 0.0
H271 H 0.5687 0.37586 0.90847 0.0
C272 C 0.82204 0.89113 0.78488 0.0
C273 C 0.79292 0.83298 0.79228 0.0
C274 C 0.83231 0.85791 0.7926 0.0
C275 C 0.74391 0.84143 0.78211 0.0
C276 C 0.77206 0.90015 0.77613 0.0
C277 C 0.73359 0.87491 0.77386 0.0
N278 N 0.85941 0.91515 0.78861 0.0
C279 C 0.84762 0.94892 0.78682 0.0
C280 C 0.76145 0.93452 0.77143 0.0
C281 C 0.79911 0.95906 0.77737 0.0
Gd282 Gd 0.05396 0.89387 0.74126 0.0
Gd283 Gd 0.94052 0.89495 0.80297 0.0
N284 N 0.87982 0.85059 0.80258 0.0
C285 C 0.8035 0.80065 0.80316 0.0
C286 C 0.88949 0.81987 0.81488 0.0
C287 C 0.85184 0.79421 0.81485 0.0
H288 H 0.92664 0.81516 0.8243 0.0
H289 H 0.86003 0.76959 0.82394 0.0
H290 H 0.01986 0.95976 0.6998 0.0
H291 H 0.87551 0.96825 0.79265 0.0
H292 H 0.04786 0.01881 0.69122 0.0
H293 H 0.77428 0.78079 0.80328 0.0
H294 H 0.71333 0.82251 0.78132 0.0
H295 H 0.15474 0.85591 0.77021 0.0
H296 H 0.72361 0.94248 0.76461 0.0
H297 H 0.79057 0.98583 0.7751 0.0
H298 H 0.19783 0.03316 0.74934 0.0
H299 H 0.69512 0.88131 0.76693 0.0
H300 H 0.26695 0.93243 0.79149 0.0
H301 H 0.23851 0.87212 0.79167 0.0
N302 N 0.1357 0.90664 0.75938 0.0
C303 C 0.15175 0.93948 0.75764 0.0
C304 C 0.16687 0.88226 0.77039 0.0
C305 C 0.23018 0.92545 0.78225 0.0
C306 C 0.21427 0.89136 0.78239 0.0
C307 C 0.19923 0.94993 0.76931 0.0
H308 H 0.25081 0.99281 0.77615 0.0
N309 N 0.07721 0.95053 0.73092 0.0
C310 C 0.12136 0.96222 0.74307 0.0
C311 C 0.11025 0.01702 0.72107 0.0
C312 C 0.13845 0.99601 0.73906 0.0
C313 C 0.05177 0.9701 0.71176 0.0
C314 C 0.06772 1.00361 0.70668 0.0
O315 O 0.94054 0.851 0.77165 0.0
O316 O 0.97201 0.87848 0.73299 0.0
O317 O 0.0853 0.89671 0.69842 0.0
O318 O 0.07724 0.84754 0.71962 0.0
O319 O 0.00312 0.85601 0.80911 0.0
O320 O 0.05594 0.84759 0.76918 0.0
O321 O 0.06996 0.90737 0.78722 0.0
O322 O 0.99828 0.93751 0.79861 0.0
O323 O 0.97222 0.89267 0.84558 0.0
O324 O 0.89322 0.9073 0.83926 0.0
O325 O 0.97805 0.91959 0.73202 0.0
O326 O 0.95174 0.94165 0.77487 0.0
C327 C 0.9502 0.85178 0.74443 0.0
C328 C 0.03887 0.83975 0.79465 0.0
C329 C 0.1103 0.8465 0.6713 0.0
C330 C 0.1286 0.84603 0.62052 0.0
C331 C 0.13388 0.79383 0.6478 0.0
C332 C 0.12003 0.81141 0.67226 0.0
C333 C 0.13774 0.8109 0.62206 0.0
C334 C 0.11546 0.86388 0.64534 0.0
C335 C 0.08981 0.86385 0.69666 0.0
C336 C 0.18446 0.00714 0.75186 0.0
C337 C 0.21473 0.98414 0.76704 0.0
H338 H 0.12248 0.04299 0.71703 0.0
C339 C 0.04787 0.93246 0.80083 0.0
C340 C 0.95312 0.94237 0.74704 0.0
C341 C 0.93355 0.92717 0.88067 0.0
C342 C 0.92493 0.93939 0.93099 0.0
C343 C 0.93969 0.98535 0.89758 0.0
C344 C 0.94078 0.96196 0.87527 0.0
C345 C 0.93143 0.9742 0.92531 0.0
C346 C 0.9263 0.91593 0.90858 0.0
C347 C 0.92966 0.90236 0.85753 0.0
H348 H 0.14111 0.76677 0.64874 0.0
H349 H 0.11607 0.79737 0.69183 0.0
H350 H 0.14843 0.79669 0.60332 0.0
H351 H 0.10752 0.89087 0.64418 0.0
H352 H 0.94455 0.01223 0.89336 0.0
H353 H 0.94629 0.97101 0.85384 0.0
H354 H 0.93026 0.99267 0.94233 0.0
H355 H 0.92035 0.88906 0.91281 0.0
C356 C 0.68142 0.63742 0.28716 0.0
C357 C 0.69367 0.69746 0.29814 0.0
C358 C 0.66125 0.66861 0.29571 0.0
C359 C 0.74644 0.69459 0.29219 0.0
C360 C 0.73436 0.63475 0.28077 0.0
C361 C 0.7666 0.66345 0.28328 0.0
N362 N 0.64965 0.60974 0.28537 0.0
C363 C 0.66892 0.57847 0.27874 0.0
C364 C 0.75365 0.60311 0.2725 0.0
C365 C 0.72082 0.57485 0.27163 0.0
Gd366 Gd 0.45056 0.61594 0.24073 0.0
Gd367 Gd 0.56513 0.61906 0.30074 0.0
N368 N 0.6099 0.67093 0.30112 0.0
C369 C 0.67197 0.72856 0.30605 0.0
C370 C 0.58844 0.70127 0.30842 0.0
C371 C 0.61908 0.73053 0.31088 0.0
H372 H 0.54792 0.70315 0.31264 0.0
H373 H 0.60193 0.75454 0.31675 0.0
H374 H 0.46691 0.53817 0.21421 0.0
H375 H 0.64511 0.55589 0.27962 0.0
H376 H 0.42293 0.48188 0.21542 0.0
H377 H 0.69562 0.75129 0.30806 0.0
H378 H 0.77188 0.71649 0.294 0.0
H379 H 0.35759 0.67404 0.24863 0.0
H380 H 0.79402 0.60009 0.26736 0.0
H381 H 0.73573 0.55007 0.26607 0.0
H382 H 0.26092 0.50536 0.25999 0.0
H383 H 0.80734 0.66178 0.27856 0.0
H384 H 0.22022 0.62242 0.27557 0.0
H385 H 0.26668 0.67586 0.26429 0.0
N386 N 0.36381 0.62069 0.25418 0.0
C387 C 0.33756 0.59082 0.25741 0.0
C388 C 0.33832 0.65086 0.25512 0.0
C389 C 0.26046 0.62158 0.26955 0.0
C390 C 0.28667 0.65187 0.26343 0.0
C391 C 0.2853 0.59047 0.26557 0.0
H392 H 0.21861 0.55853 0.27412 0.0
N393 N 0.41017 0.56238 0.23917 0.0
C394 C 0.36121 0.56077 0.24933 0.0
C395 C 0.35716 0.50074 0.2383 0.0
C396 C 0.33359 0.52974 0.24951 0.0
C397 C 0.43085 0.53526 0.22528 0.0
C398 C 0.40554 0.5037 0.22551 0.0
O399 O 0.57814 0.64622 0.25875 0.0
O400 O 0.49658 0.66414 0.24703 0.0
O401 O 0.47756 0.6189 0.19691 0.0
O402 O 0.39716 0.62472 0.20653 0.0
O403 O 0.4964 0.65135 0.31094 0.0
O404 O 0.43962 0.65953 0.27293 0.0
O405 O 0.45666 0.57261 0.27177 0.0
O406 O 0.48373 0.60249 0.31017 0.0
O407 O 0.58939 0.63382 0.34296 0.0
O408 O 0.5902 0.58083 0.33085 0.0
O409 O 0.52981 0.59378 0.2326 0.0
O410 O 0.55774 0.57123 0.27471 0.0
C411 C 0.54698 0.66655 0.24477 0.0
C412 C 0.45656 0.66633 0.29896 0.0
C413 C 0.4261 0.65011 0.16456 0.0
C414 C 0.41359 0.66281 0.11463 0.0
C415 C 0.40389 0.70729 0.14992 0.0
C416 C 0.41454 0.68398 0.17133 0.0
C417 C 0.40293 0.69673 0.12171 0.0
C418 C 0.42601 0.63966 0.1361 0.0
C419 C 0.43183 0.62444 0.18684 0.0
C420 C 0.28264 0.52903 0.25942 0.0
C421 C 0.25859 0.55931 0.26755 0.0
H422 H 0.33726 0.47639 0.23811 0.0
C423 C 0.46166 0.57566 0.29912 0.0
C424 C 0.55223 0.56959 0.24714 0.0
C425 C 0.57112 0.59414 0.37863 0.0
C426 C 0.57603 0.58948 0.43015 0.0
C427 C 0.49506 0.57866 0.40574 0.0
C428 C 0.51856 0.5858 0.37989 0.0
C429 C 0.52348 0.58046 0.43072 0.0
C430 C 0.59969 0.5961 0.40382 0.0
C431 C 0.59575 0.6027 0.35143 0.0
H432 H 0.39496 0.73338 0.15526 0.0
H433 H 0.41233 0.69213 0.19318 0.0
H434 H 0.39309 0.71488 0.10541 0.0
H435 H 0.43315 0.61325 0.13079 0.0
H436 H 0.45457 0.57191 0.40643 0.0
H437 H 0.49548 0.58515 0.36099 0.0
H438 H 0.50433 0.57456 0.45049 0.0
H439 H 0.63995 0.60354 0.4029 0.0
H440 H 0.13545 0.89541 0.35892 0.0
H441 H 0.22139 0.94977 0.42326 0.0
H442 H 0.18839 1.00417 0.40541 0.0
H443 H 0.16667 0.95257 0.30483 0.0
H444 H 0.10588 0.94953 0.28658 0.0
H445 H 0.12829 0.91424 0.30729 0.0
H446 H 0.04406 0.91462 0.3368 0.0
H447 H 0.02097 0.94944 0.31571 0.0
H448 H 0.024 0.95355 0.35362 0.0
H449 H 0.1505 0.05277 0.37879 0.0
H450 H 0.1095 0.09253 0.34542 0.0
H451 H 0.0559 0.00738 0.29464 0.0
C452 C 0.14582 0.91882 0.3697 0.0
C453 C 0.17916 0.91831 0.3933 0.0
C454 C 0.19372 0.94932 0.40631 0.0
C455 C 0.17584 0.98044 0.3959 0.0
C456 C 0.14424 0.98009 0.3721 0.0
C457 C 0.12927 0.9501 0.35912 0.0
C458 C 0.09897 0.95692 0.33233 0.0
C459 C 0.12662 0.94246 0.30622 0.0
C460 C 0.04372 0.94279 0.33477 0.0
C461 C 0.09959 0.99546 0.33218 0.0
C462 C 0.12544 0.00825 0.3555 0.0
C463 C 0.13023 0.04307 0.36045 0.0
C464 C 0.10702 0.0654 0.34139 0.0
C465 C 0.08023 0.05287 0.31746 0.0
C466 C 0.07711 0.0175 0.31254 0.0
H467 H 0.37842 0.62113 0.8536 0.0
H468 H 0.30274 0.5725 0.92449 0.0
H469 H 0.3362 0.51662 0.90883 0.0
H470 H 0.34187 0.56011 0.8048 0.0
H471 H 0.3998 0.56188 0.78381 0.0
H472 H 0.37996 0.59867 0.80361 0.0
H473 H 0.46812 0.60087 0.8293 0.0
H474 H 0.48871 0.56447 0.80913 0.0
H475 H 0.49104 0.56348 0.8472 0.0
H476 H 0.37073 0.46576 0.8826 0.0
H477 H 0.40495 0.42371 0.84864 0.0
H478 H 0.44912 0.50535 0.79181 0.0
C479 C 0.37007 0.59872 0.86611 0.0
C480 C 0.33838 0.60086 0.89028 0.0
C481 C 0.32782 0.57126 0.90624 0.0
C482 C 0.34628 0.5395 0.89732 0.0
C483 C 0.37488 0.53799 0.87234 0.0
C484 C 0.38699 0.56689 0.85704 0.0
C485 C 0.41338 0.55815 0.82941 0.0
C486 C 0.38186 0.57043 0.80391 0.0
C487 C 0.46859 0.5726 0.82873 0.0
C488 C 0.41333 0.51974 0.83122 0.0
C489 C 0.3918 0.50864 0.85637 0.0
C490 C 0.38781 0.47419 0.86292 0.0
C491 C 0.40713 0.45054 0.84349 0.0
C492 C 0.4291 0.46141 0.8176 0.0
C493 C 0.4317 0.49643 0.81128 0.0
H494 H 0.66191 0.61184 0.68833 0.0
H495 H 0.72369 0.55779 0.61615 0.0
H496 H 0.68153 0.50488 0.63264 0.0
H497 H 0.68749 0.54478 0.73776 0.0
H498 H 0.63112 0.5539 0.75864 0.0
H499 H 0.66212 0.58734 0.7389 0.0
H500 H 0.57408 0.59947 0.71468 0.0
H501 H 0.54444 0.5651 0.7341 0.0
H502 H 0.54133 0.56558 0.69603 0.0
H503 H 0.63357 0.45766 0.65771 0.0
H504 H 0.58761 0.41897 0.69044 0.0
H505 H 0.56702 0.50224 0.74961 0.0
C506 C 0.66632 0.58885 0.67596 0.0
C507 C 0.69524 0.58911 0.65063 0.0
C508 C 0.70025 0.55859 0.63499 0.0
C509 C 0.67696 0.52828 0.64444 0.0
C510 C 0.6497 0.52883 0.66987 0.0
C511 C 0.64471 0.55828 0.68555 0.0
C512 C 0.61674 0.55164 0.71315 0.0
C513 C 0.6515 0.55989 0.73861 0.0
C514 C 0.56614 0.57164 0.71455 0.0
C515 C 0.60665 0.51376 0.71059 0.0
C516 C 0.62532 0.50121 0.68526 0.0
C517 C 0.61909 0.46717 0.67765 0.0
C518 C 0.59291 0.44543 0.69634 0.0
C519 C 0.57416 0.45766 0.72254 0.0
C520 C 0.58156 0.4922 0.72984 0.0
H521 H 0.85881 0.89631 0.18969 0.0
H522 H 0.79706 0.94681 0.11599 0.0
H523 H 0.83514 1.00125 0.13218 0.0
H524 H 0.82647 0.96297 0.23759 0.0
H525 H 0.88245 0.95673 0.25945 0.0
H526 H 0.85578 0.92162 0.23974 0.0
H527 H 0.94585 0.91253 0.21683 0.0
H528 H 0.97134 0.94835 0.2363 0.0
H529 H 0.97651 0.94728 0.19831 0.0
H530 H 0.87638 0.05058 0.15751 0.0
H531 H 0.91519 0.0919 0.19083 0.0
H532 H 0.94118 0.01071 0.25104 0.0
C533 C 0.85375 0.91882 0.1769 0.0
C534 C 0.82568 0.91727 0.15133 0.0
C535 C 0.8198 0.9472 0.13512 0.0
C536 C 0.8408 0.9783 0.14435 0.0
C537 C 0.86689 0.97913 0.17008 0.0
C538 C 0.87321 0.95022 0.18623 0.0
C539 C 0.89909 0.95853 0.21416 0.0
C540 C 0.86378 0.94944 0.23921 0.0
C541 C 0.9513 0.94061 0.21652 0.0
C542 C 0.90596 0.9967 0.21131 0.0
C543 C 0.88784 0.00795 0.18552 0.0
C544 C 0.89066 0.04208 0.17776 0.0
C545 C 0.91278 0.06533 0.1968 0.0
C546 C 0.93097 0.05446 0.22346 0.0
C547 C 0.92719 0.01971 0.23086 0.0
H548 H 0.87468 0.11591 0.67156 0.0
H549 H 0.74079 0.06242 0.63988 0.0
H550 H 0.77004 0.00937 0.66246 0.0
H551 H 0.96962 0.04855 0.67349 0.0
H552 H 0.99289 0.06218 0.70777 0.0
H553 H 0.96472 0.09248 0.68414 0.0
H554 H 0.90208 0.10831 0.72504 0.0
H555 H 0.9288 0.07586 0.74739 0.0
H556 H 0.86078 0.07582 0.73985 0.0
H557 H 0.81493 0.96233 0.68766 0.0
H558 H 0.86802 0.92507 0.71781 0.0
H559 H 0.96433 0.01134 0.74087 0.0
C560 C 0.8531 0.09249 0.6685 0.0
C561 C 0.80857 0.09197 0.65145 0.0
C562 C 0.77793 0.06209 0.65022 0.0
C563 C 0.79356 0.0322 0.66363 0.0
C564 C 0.83822 0.03332 0.67985 0.0
C565 C 0.86682 0.0629 0.68304 0.0
C566 C 0.90914 0.05838 0.70472 0.0
C567 C 0.96227 0.06577 0.69171 0.0
C568 C 0.89961 0.08094 0.73079 0.0
C569 C 0.90187 0.02101 0.71186 0.0
C570 C 0.86048 0.00718 0.69731 0.0
C571 C 0.84701 0.97289 0.69944 0.0
C572 C 0.87718 0.95199 0.71656 0.0
C573 C 0.91937 0.96565 0.73174 0.0
C574 C 0.93152 1.00063 0.72975 0.0
H575 H 0.70355 0.45381 0.13726 0.0
H576 H 0.61715 0.36819 0.17012 0.0
H577 H 0.56432 0.40714 0.19909 0.0
H578 H 0.71347 0.49925 0.19716 0.0
H579 H 0.7039 0.54125 0.18297 0.0
H580 H 0.72884 0.50808 0.16071 0.0
H581 H 0.65492 0.51637 0.12473 0.0
H582 H 0.63074 0.5506 0.14629 0.0
H583 H 0.58908 0.51545 0.13684 0.0
H584 H 0.53905 0.4528 0.23307 0.0
H585 H 0.52261 0.50535 0.26049 0.0
H586 H 0.61543 0.56334 0.20126 0.0
C587 C 0.67143 0.44374 0.14931 0.0
C588 C 0.66338 0.40831 0.15133 0.0
C589 C 0.62256 0.39542 0.16801 0.0
C590 C 0.593 0.4173 0.18472 0.0
C591 C 0.60392 0.45205 0.18371 0.0
C592 C 0.64054 0.46545 0.1655 0.0
C593 C 0.64605 0.50363 0.1695 0.0
C594 C 0.70134 0.5136 0.17809 0.0
C595 C 0.62917 0.52264 0.14275 0.0
C596 C 0.60864 0.50925 0.19363 0.0
C597 C 0.58552 0.47902 0.20186 0.0
C598 C 0.55516 0.47686 0.22613 0.0
C599 C 0.54661 0.50663 0.24176 0.0
C600 C 0.56668 0.53819 0.23238 0.0
C601 C 0.59839 0.53952 0.2082 0.0
H602 H 0.27642 0.44514 0.37848 0.0
H603 H 0.41165 0.38869 0.40213 0.0
H604 H 0.46752 0.43404 0.38159 0.0
H605 H 0.31735 0.47362 0.31304 0.0
H606 H 0.28833 0.51499 0.31645 0.0
H607 H 0.26204 0.47953 0.3356 0.0
H608 H 0.27262 0.51555 0.38175 0.0
H609 H 0.30061 0.55001 0.36167 0.0
H610 H 0.33534 0.53215 0.39099 0.0
H611 H 0.50687 0.48122 0.35247 0.0
H612 H 0.52781 0.52958 0.32091 0.0
H613 H 0.36651 0.55622 0.31732 0.0
C614 C 0.31788 0.44312 0.38 0.0
C615 C 0.34033 0.414 0.39193 0.0
C616 C 0.39439 0.41132 0.39336 0.0
C617 C 0.4261 0.43679 0.38168 0.0
C618 C 0.40276 0.46484 0.36913 0.0
C619 C 0.34986 0.4685 0.36878 0.0
C620 C 0.33422 0.50017 0.35291 0.0
C621 C 0.29842 0.49146 0.328 0.0
C622 C 0.30923 0.526 0.37304 0.0
C623 C 0.38632 0.51273 0.34284 0.0
C624 C 0.42546 0.49228 0.35277 0.0
C625 C 0.47669 0.49782 0.34512 0.0
C626 C 0.48825 0.52523 0.3272 0.0
C627 C 0.4488 0.54666 0.31731 0.0
C628 C 0.39726 0.54025 0.32502 0.0
H629 H 0.12317 0.10996 0.87206 0.0
H630 H 0.2522 0.06015 0.9114 0.0
H631 H 0.22357 1.00476 0.89101 0.0
H632 H 0.03028 0.03898 0.88162 0.0
H633 H 0.99917 0.04639 0.84816 0.0
H634 H 0.02777 0.08142 0.86737 0.0
H635 H 0.08385 0.09702 0.82395 0.0
H636 H 0.05564 0.06228 0.80433 0.0
H637 H 0.12456 0.06513 0.80832 0.0
H638 H 0.18635 0.9567 0.86094 0.0
H639 H 0.13649 0.91796 0.82961 0.0
H640 H 0.02896 0.99909 0.81238 0.0
C641 C 0.14418 0.08705 0.877 0.0
C642 C 0.18923 0.08875 0.89351 0.0
C643 C 0.21699 0.05879 0.89919 0.0
C644 C 0.20124 0.02748 0.88751 0.0
C645 C 0.15729 0.02672 0.87054 0.0
C646 C 0.12851 0.05563 0.86583 0.0
C647 C 0.08345 0.04825 0.84642 0.0
C648 C 0.0321 0.0541 0.8618 0.0
C649 C 0.08713 0.06943 0.81915 0.0
C650 C 0.0918 0.01085 0.84049 0.0
C651 C 0.13486 0.9989 0.85431 0.0
C652 C 0.15197 0.96563 0.8505 0.0
C653 C 0.1237 0.94389 0.83255 0.0
C654 C 0.07867 0.95549 0.81893 0.0
C655 C 0.06275 0.9894 0.82297 0.0
H656 H 0.27602 0.12303 0.97224 0.0
H657 H 0.12117 0.11339 0.9394 0.0
H658 H 0.08987 0.09641 0.98709 0.0
H659 H 0.27077 0.05524 0.02463 0.0
H660 H 0.30772 0.07945 0.05002 0.0
H661 H 0.31764 0.08618 1.01274 0.0
H662 H 0.29947 0.15047 1.01946 0.0
H663 H 0.28894 0.14394 0.05668 0.0
H664 H 0.23976 0.16347 0.03547 0.0
H665 H 0.07588 0.08421 0.03989 0.0
H666 H 0.08031 0.07637 0.09165 0.0
H667 H 0.24386 0.10036 0.08944 0.0
C668 C 0.23561 0.117 0.9751 0.0
C669 C 0.20084 0.11954 0.95236 0.0
C670 C 0.14834 0.11116 0.95663 0.0
C671 C 0.13033 0.1018 0.98363 0.0
C672 C 0.16545 0.1011 1.00599 0.0
C673 C 0.21707 0.10839 1.00186 0.0
C674 C 0.24661 0.1083 0.02938 0.0
C675 C 0.28813 0.08064 0.02917 0.0
C676 C 0.27006 0.14364 0.03561 0.0
C677 C 0.2037 0.09972 0.04983 0.0
C678 C 0.15719 0.09544 0.03605 0.0
C679 C 0.11218 0.0875 0.05083 0.0
C680 C 0.11503 0.08342 0.08033 0.0
C681 C 0.1625 0.08759 0.09488 0.0
C682 C 0.2071 0.09622 0.07917 0.0
H683 H 0.33823 0.34187 0.46991 0.0
H684 H 0.28712 0.43947 0.43891 0.0
H685 H 0.30237 0.46489 0.48598 0.0
H686 H 0.27261 0.34706 0.53378 0.0
H687 H 0.32047 0.32567 0.55465 0.0
H688 H 0.31505 0.31672 0.51746 0.0
H689 H 0.41127 0.3325 0.51048 0.0
H690 H 0.41707 0.34145 0.54774 0.0
H691 H 0.43481 0.37346 0.52219 0.0
H692 H 0.31102 0.47768 0.53728 0.0
H693 H 0.31267 0.4772 0.58955 0.0
H694 H 0.35591 0.37097 0.58847 0.0
C695 C 0.33134 0.36873 0.47303 0.0
C696 C 0.31242 0.38893 0.45073 0.0
C697 C 0.30316 0.42388 0.45547 0.0
C698 C 0.31136 0.43842 0.4822 0.0
C699 C 0.32866 0.4176 0.50399 0.0
C700 C 0.33868 0.38349 0.49971 0.0
C701 C 0.35155 0.36592 0.52731 0.0
C702 C 0.3126 0.33716 0.53367 0.0
C703 C 0.40698 0.35255 0.5269 0.0
C704 C 0.3459 0.39529 0.54791 0.0
C705 C 0.33321 0.42494 0.5339 0.0
C706 C 0.32186 0.45483 0.54844 0.0
C707 C 0.32274 0.45433 0.57805 0.0
C708 C 0.335 0.42422 0.5928 0.0
C709 C 0.34761 0.39449 0.57755 0.0
H710 H 0.70434 0.4211 0.08626 0.0
H711 H 0.64215 0.31968 0.0975 0.0
H712 H 0.60574 0.32108 0.04913 0.0
H713 H 0.59769 0.45407 0.03855 0.0
H714 H 0.64344 0.47795 1.01767 0.0
H715 H 0.65485 0.4715 0.05487 0.0
H716 H 0.74377 0.44568 0.04306 0.0
H717 H 0.73236 0.45142 1.00591 0.0
H718 H 0.74723 0.40976 1.01935 0.0
H719 H 0.5913 0.32926 0.99738 0.0
H720 H 0.59565 0.34436 0.94701 0.0
H721 H 0.66305 0.44238 0.96941 0.0
C722 C 0.6809 0.4 0.07884 0.0
C723 C 0.67514 0.37047 0.09543 0.0
C724 C 0.64618 0.34257 0.08496 0.0
C725 C 0.62549 0.34321 0.0576 0.0
C726 C 0.63375 0.37215 0.04114 0.0
C727 C 0.66006 0.40031 0.05151 0.0
C728 C 0.66858 0.4266 0.02854 0.0
C729 C 0.63938 0.45948 0.03531 0.0
C730 C 0.7264 0.43376 0.02396 0.0
C731 C 0.64507 0.40821 1.00341 0.0
C732 C 0.62471 0.37702 1.01117 0.0
C733 C 0.60573 0.35405 0.99116 0.0
C734 C 0.60817 0.363 0.96247 0.0
C735 C 0.6294 0.39474 0.95389 0.0
C736 C 0.64684 0.41783 0.97494 0.0
H737 H 0.84811 0.16456 0.57502 0.0
H738 H 0.76874 0.0708 0.59612 0.0
H739 H 0.79569 0.04565 0.55141 0.0
H740 H 0.79259 0.16546 0.50892 0.0
H741 H 0.84563 0.18569 0.49073 0.0
H742 H 0.83648 0.19294 0.52792 0.0
H743 H 0.92927 0.17251 0.53775 0.0
H744 H 0.93875 0.16517 0.50046 0.0
H745 H 0.94908 0.13123 0.52535 0.0
H746 H 0.81969 0.03275 0.50239 0.0
H747 H 0.82647 0.0354 0.45059 0.0
H748 H 0.8748 0.1412 0.45618 0.0
C749 C 0.83767 0.13842 0.57048 0.0
C750 C 0.80868 0.11901 0.59018 0.0
C751 C 0.79442 0.0853 0.58297 0.0
C752 C 0.80884 0.07097 0.55707 0.0
C753 C 0.83592 0.09109 0.53786 0.0
C754 C 0.84927 0.1244 0.54394 0.0
C755 C 0.86789 0.14275 0.51752 0.0
C756 C 0.83359 0.17351 0.51088 0.0
C757 C 0.92464 0.15354 0.52045 0.0
C758 C 0.8614 0.11475 0.49557 0.0
C759 C 0.84465 0.08489 0.5081 0.0
C760 C 0.833 0.05591 0.49233 0.0
C761 C 0.83665 0.05775 0.46288 0.0
C762 C 0.85059 0.08859 0.4493 0.0
C763 C 0.86474 0.11716 0.46597 0.0
H764 H 0.76135 0.90666 0.07163 0.0
H765 H 0.89747 0.86257 0.1085 0.0
H766 H 0.94645 0.87461 0.06437 0.0
H767 H 0.77805 0.87722 1.00184 0.0
H768 H 0.75617 0.91557 0.98498 0.0
H769 H 0.73279 0.90445 1.01962 0.0
H770 H 0.76378 0.96271 0.03928 0.0
H771 H 0.7866 0.97428 1.00459 0.0
H772 H 0.82992 0.9757 0.03433 0.0
H773 H 0.97755 0.88736 1.01461 0.0
H774 H 0.99197 0.90607 0.96511 0.0
H775 H 0.83706 0.94581 0.96213 0.0
C776 C 0.80172 0.90019 0.07036 0.0
C777 C 0.82626 0.88404 0.09317 0.0
C778 C 0.87877 0.87539 0.09112 0.0
C779 C 0.90652 0.88196 0.06619 0.0
C780 C 0.88112 0.89767 0.04379 0.0
C781 C 0.83015 0.90729 0.04588 0.0
C782 C 0.81199 0.92423 1.01899 0.0
C783 C 0.7671 0.90416 1.00557 0.0
C784 C 0.79721 0.96144 0.02464 0.0
C785 C 0.86033 0.92204 1.00116 0.0
C786 C 0.89968 0.90636 1.01575 0.0
C787 C 0.94732 0.90015 1.00317 0.0
C788 C 0.95516 0.91073 0.97513 0.0
C789 C 0.91582 0.92763 0.96022 0.0
C790 C 0.86786 0.93328 0.97336 0.0
H791 H 0.62624 0.63923 0.59246 0.0
H792 H 0.78 0.5999 0.58216 0.0
H793 H 0.75912 0.58175 0.53325 0.0
H794 H 0.55816 0.57438 0.54886 0.0
H795 H 0.51475 0.60509 0.53401 0.0
H796 H 0.5402 0.61137 0.56909 0.0
H797 H 0.5748 0.67074 0.55427 0.0
H798 H 0.55016 0.66449 0.51906 0.0
H799 H 0.61743 0.67427 0.5243 0.0
H800 H 0.72362 0.5717 0.48479 0.0
H801 H 0.67484 0.56835 0.44008 0.0
H802 H 0.54451 0.61638 0.48106 0.0
C803 C 0.65457 0.62573 0.58005 0.0
C804 C 0.70409 0.61971 0.59102 0.0
C805 C 0.74147 0.60358 0.57405 0.0
C806 C 0.73 0.59346 0.54635 0.0
C807 C 0.68103 0.6001 0.53585 0.0
C808 C 0.64375 0.61572 0.55217 0.0
C809 C 0.59536 0.62185 0.53509 0.0
C810 C 0.5494 0.60198 0.54751 0.0
C811 C 0.58379 0.66011 0.53306 0.0
C812 C 0.61142 0.60745 0.50668 0.0
C813 C 0.66093 0.595 0.50761 0.0
C814 C 0.68466 0.58117 0.48382 0.0
C815 C 0.6568 0.57964 0.45845 0.0
C816 C 0.60575 0.59196 0.45699 0.0
C817 C 0.5831 0.60618 0.48153 0.0
H818 H 0.26044 0.64041 0.97119 0.0
H819 H 0.40742 0.6375 0.92821 0.0
H820 H 0.45179 0.63216 0.97444 0.0
H821 H 0.3008 0.69635 0.02283 0.0
H822 H 0.26168 0.6787 0.05078 0.0
H823 H 0.24153 0.67427 1.01461 0.0
H824 H 0.23655 0.60874 1.02045 0.0
H825 H 0.25655 0.61297 0.05678 0.0
H826 H 0.29208 0.58607 0.03295 0.0
H827 H 0.48014 0.63453 0.02596 0.0
H828 H 0.49002 0.64698 0.07722 0.0
H829 H 0.32448 0.65418 0.08557 0.0
C830 C 0.30192 0.63811 0.97157 0.0
C831 C 0.33069 0.63948 0.94629 0.0
C832 C 0.38482 0.63611 0.94741 0.0
C833 C 0.41019 0.63318 0.97356 0.0
C834 C 0.38073 0.63373 0.99829 0.0
C835 C 0.32766 0.6361 0.99741 0.0
C836 C 0.30506 0.64077 0.02665 0.0
C837 C 0.27556 0.67452 0.02883 0.0
C838 C 0.27053 0.61031 0.03468 0.0
C839 C 0.35372 0.64166 0.04417 0.0
C840 C 0.39699 0.63674 0.02761 0.0
C841 C 0.44648 0.63805 0.03912 0.0
C842 C 0.45182 0.64513 0.06814 0.0
C843 C 0.40797 0.65139 0.08503 0.0
C844 C 0.35846 0.64919 0.07297 0.0
H845 H 0.1203 0.84865 0.45354 0.0
H846 H 0.25125 0.91659 0.45873 0.0
H847 H 0.23255 0.92758 0.50903 0.0
H848 H 0.03644 0.88695 0.51169 0.0
H849 H 0.01926 0.84518 0.52448 0.0
H850 H 0.03142 0.85173 0.48734 0.0
H851 H 0.09992 0.80423 0.48836 0.0
H852 H 0.08854 0.79777 0.52542 0.0
H853 H 0.15267 0.80743 0.51301 0.0
H854 H 0.20913 0.92369 0.56017 0.0
H855 H 0.18925 0.90105 0.60781 0.0
H856 H 0.0811 0.82923 0.57081 0.0
C857 C 0.14271 0.86746 0.46504 0.0
C858 C 0.1848 0.88388 0.45184 0.0
C859 C 0.21644 0.90605 0.4679 0.0
C860 C 0.2065 0.91193 0.49664 0.0
C861 C 0.16567 0.89448 0.50936 0.0
C862 C 0.13449 0.87237 0.49408 0.0
C863 C 0.10074 0.85122 0.51361 0.0
C864 C 0.04356 0.85926 0.509 0.0
C865 C 0.11113 0.81292 0.50987 0.0
C866 C 0.11909 0.86395 0.54217 0.0
C867 C 0.15532 0.88968 0.53928 0.0
C868 C 0.18022 0.90392 0.5627 0.0
C869 C 0.16871 0.89098 0.58967 0.0
C870 C 0.13364 0.86353 0.59288 0.0
C871 C 0.1078 0.85043 0.56887 0.0
H872 H 0.27055 0.28047 0.36857 0.0
H873 H 0.15364 0.35417 0.38913 0.0
H874 H 0.08752 0.31816 0.36536 0.0
H875 H 0.22187 0.2567 0.29909 0.0
H876 H 0.23958 0.21281 0.30397 0.0
H877 H 0.27509 0.2459 0.32178 0.0
H878 H 0.25615 0.21354 0.36892 0.0
H879 H 0.21853 0.18207 0.35018 0.0
H880 H 0.19022 0.2054 0.37904 0.0
H881 H 0.03532 0.27466 0.33946 0.0
H882 H 0.99823 0.22555 0.31408 0.0
H883 H 0.14949 0.17942 0.30958 0.0
C884 C 0.23084 0.28861 0.36809 0.0
C885 C 0.21637 0.31963 0.38063 0.0
C886 C 0.1646 0.33018 0.37968 0.0
C887 C 0.12719 0.31002 0.3662 0.0
C888 C 0.14255 0.27951 0.35381 0.0
C889 C 0.19305 0.26872 0.35472 0.0
C890 C 0.19913 0.23476 0.33991 0.0
C891 C 0.23609 0.23781 0.31466 0.0
C892 C 0.21705 0.20732 0.36077 0.0
C893 C 0.14425 0.22823 0.33031 0.0
C894 C 0.11234 0.25439 0.33865 0.0
C895 C 0.05986 0.254 0.33284 0.0
C896 C 0.03918 0.22591 0.31845 0.0
C897 C 0.07089 0.19853 0.30993 0.0
C898 C 0.1243 0.2 0.31566 0.0
H899 H 0.24183 0.21289 0.85274 0.0
H900 H 0.35543 0.17967 0.91336 0.0
H901 H 0.41837 0.22126 0.89409 0.0
H902 H 0.33179 0.22283 0.79588 0.0
H903 H 0.30091 0.25928 0.78088 0.0
H904 H 0.26336 0.22847 0.80013 0.0
H905 H 0.22981 0.27524 0.83377 0.0
H906 H 0.26601 0.30675 0.81435 0.0
H907 H 0.27518 0.30252 0.85195 0.0
H908 H 0.46916 0.26511 0.86748 0.0
H909 H 0.50444 0.30967 0.83626 0.0
H910 H 0.35732 0.31546 0.79311 0.0
C911 C 0.27991 0.21471 0.86194 0.0
C912 C 0.29398 0.19355 0.88464 0.0
C913 C 0.34405 0.19618 0.89622 0.0
C914 C 0.37995 0.21955 0.88534 0.0
C915 C 0.36502 0.24007 0.86287 0.0
C916 C 0.31617 0.23803 0.85137 0.0
C917 C 0.31066 0.26216 0.82667 0.0
C918 C 0.3011 0.24198 0.79928 0.0
C919 C 0.26788 0.28821 0.83203 0.0
C920 C 0.36351 0.27891 0.82664 0.0
C921 C 0.39445 0.26536 0.84744 0.0
C922 C 0.44526 0.27601 0.85116 0.0
C923 C 0.46497 0.3013 0.83323 0.0
C924 C 0.43381 0.31604 0.812 0.0
C925 C 0.38228 0.3047 0.80889 0.0
H926 H 0.76013 0.22009 0.6816 0.0
H927 H 0.64562 0.17817 0.62467 0.0
H928 H 0.58107 0.21854 0.64325 0.0
H929 H 0.6754 0.23014 0.74041 0.0
H930 H 0.70431 0.26933 0.75272 0.0
H931 H 0.74253 0.23892 0.7336 0.0
H932 H 0.76776 0.28529 0.69717 0.0
H933 H 0.72985 0.31589 0.71624 0.0
H934 H 0.71792 0.30845 0.67921 0.0
H935 H 0.52951 0.26243 0.66827 0.0
H936 H 0.49269 0.30678 0.69844 0.0
H937 H 0.63977 0.31884 0.74092 0.0
C938 C 0.72161 0.22003 0.67286 0.0
C939 C 0.70774 0.19698 0.65122 0.0
C940 C 0.65689 0.19655 0.64064 0.0
C941 C 0.62012 0.21911 0.65121 0.0
C942 C 0.63487 0.24153 0.67263 0.0
C943 C 0.68433 0.24219 0.68341 0.0
C944 C 0.68943 0.26795 0.70715 0.0
C945 C 0.70375 0.25054 0.73513 0.0
C946 C 0.72855 0.29606 0.69947 0.0
C947 C 0.63504 0.28154 0.70804 0.0
C948 C 0.6044 0.26603 0.68788 0.0
C949 C 0.55303 0.27463 0.68429 0.0
C950 C 0.53241 0.29987 0.70174 0.0
C951 C 0.56282 0.3161 0.72284 0.0
C952 C 0.6149 0.30665 0.7258 0.0
H953 H 0.76174 0.27886 0.15527 0.0
H954 H 0.85334 0.36816 0.17565 0.0
H955 H 0.9131 0.33251 0.20332 0.0
H956 H 0.77403 0.23603 0.22092 0.0
H957 H 0.77897 0.19429 0.20529 0.0
H958 H 0.74432 0.22718 0.18722 0.0
H959 H 0.80231 0.21813 0.14308 0.0
H960 H 0.83707 0.18549 0.16151 0.0
H961 H 0.87129 0.22137 0.14669 0.0
H962 H 0.95893 0.28784 0.23127 0.0
H963 H 0.99318 0.23591 0.25396 0.0
H964 H 0.87556 0.17496 0.21254 0.0
C965 C 0.79501 0.29066 0.16512 0.0
C966 C 0.80309 0.32617 0.16358 0.0
C967 C 0.84642 0.34101 0.17702 0.0
C968 C 0.88048 0.32098 0.19265 0.0
C969 C 0.87092 0.28609 0.19423 0.0
C970 C 0.82972 0.27094 0.18048 0.0
C971 C 0.82832 0.23286 0.18545 0.0
C972 C 0.77845 0.22198 0.20064 0.0
C973 C 0.83518 0.21332 0.15752 0.0
C974 C 0.87479 0.22905 0.20445 0.0
C975 C 0.89858 0.26012 0.20942 0.0
C976 C 0.9411 0.26331 0.22724 0.0
C977 C 0.96018 0.23387 0.24003 0.0
C978 C 0.93712 0.20186 0.23455 0.0
C979 C 0.89391 0.19934 0.21668 0.0
H980 H 0.75964 0.70265 0.69495 0.0
H981 H 0.85195 0.69364 0.61903 0.0
H982 H 0.90876 0.74032 0.63581 0.0
H983 H 0.76884 0.7922 0.70428 0.0
H984 H 0.77514 0.79026 0.74211 0.0
H985 H 0.74075 0.75715 0.72363 0.0
H986 H 0.80013 0.71198 0.74586 0.0
H987 H 0.83515 0.74479 0.7645 0.0
H988 H 0.86894 0.71587 0.74163 0.0
H989 H 0.95261 0.7899 0.66009 0.0
H990 H 0.98507 0.83521 0.69178 0.0
H991 H 0.87063 0.80679 0.75434 0.0
C992 C 0.79211 0.71033 0.68203 0.0
C993 C 0.80096 0.69505 0.65547 0.0
C994 C 0.8437 0.70578 0.63905 0.0
C995 C 0.87638 0.732 0.64853 0.0
C996 C 0.86646 0.74663 0.67481 0.0
C997 C 0.82588 0.73579 0.69153 0.0
C998 C 0.82472 0.75483 0.71936 0.0
C999 C 0.77436 0.77479 0.7225 0.0
C1000 C 0.83271 0.73041 0.74431 0.0
C1001 C 0.87058 0.77845 0.71553 0.0
C1002 C 0.8938 0.77355 0.68957 0.0
C1003 C 0.93521 0.7936 0.68065 0.0
C1004 C 0.95339 0.81928 0.69881 0.0
C1005 C 0.93086 0.82426 0.72578 0.0
C1006 C 0.88914 0.80335 0.73417 0.0
H1007 H 0.76346 0.79292 0.18297 0.0
H1008 H 0.64676 0.8341 0.12799 0.0
H1009 H 0.58278 0.79267 0.14706 0.0
H1010 H 0.72247 0.70359 0.17849 0.0
H1011 H 0.73688 0.69549 0.21514 0.0
H1012 H 0.77296 0.72733 0.196 0.0
H1013 H 0.74867 0.77302 0.23355 0.0
H1014 H 0.71422 0.74063 0.2525 0.0
H1015 H 0.68172 0.77895 0.24242 0.0
H1016 H 0.53091 0.74977 0.17498 0.0
H1017 H 0.49583 0.70565 0.20666 0.0
H1018 H 0.64822 0.68916 0.241 0.0
C1019 C 0.72451 0.79271 0.17483 0.0
C1020 C 0.70948 0.81634 0.15414 0.0
C1021 C 0.65847 0.81586 0.14381 0.0
C1022 C 0.62215 0.79255 0.15454 0.0
C1023 C 0.63796 0.7697 0.17528 0.0
C1024 C 0.68813 0.76925 0.18498 0.0
C1025 C 0.69497 0.74276 0.2078 0.0
C1026 C 0.73414 0.71569 0.1988 0.0
C1027 C 0.71078 0.75992 0.23571 0.0
C1028 C 0.64086 0.72808 0.2094 0.0
C1029 C 0.60846 0.74433 0.19071 0.0
C1030 C 0.55614 0.73653 0.18937 0.0
C1031 C 0.53651 0.71132 0.20743 0.0
C1032 C 0.56904 0.69355 0.22625 0.0
C1033 C 0.62209 0.70209 0.22701 0.0
H1034 H 0.24567 0.80446 0.34627 0.0
H1035 H 0.33909 0.82122 0.42094 0.0
H1036 H 0.40082 0.77817 0.40422 0.0
H1037 H 0.26576 0.71501 0.33895 0.0
H1038 H 0.27023 0.71593 0.30098 0.0
H1039 H 0.23272 0.74739 0.31918 0.0
H1040 H 0.28583 0.79521 0.29477 0.0
H1041 H 0.32343 0.76366 0.27655 0.0
H1042 H 0.355 0.79556 0.29799 0.0
H1043 H 0.44883 0.73177 0.38121 0.0
H1044 H 0.48696 0.68813 0.35127 0.0
H1045 H 0.36901 0.70538 0.28778 0.0
C1046 C 0.27939 0.79912 0.35889 0.0
C1047 C 0.28722 0.81544 0.38521 0.0
C1048 C 0.33178 0.80815 0.40117 0.0
C1049 C 0.36715 0.78399 0.39173 0.0
C1050 C 0.358 0.768 0.36591 0.0
C1051 C 0.31584 0.7756 0.34941 0.0
C1052 C 0.31621 0.75521 0.32213 0.0
C1053 C 0.26838 0.73201 0.32022 0.0
C1054 C 0.32038 0.77883 0.29633 0.0
C1055 C 0.36495 0.7347 0.32607 0.0
C1056 C 0.38787 0.74237 0.35165 0.0
C1057 C 0.43173 0.72589 0.3609 0.0
C1058 C 0.45311 0.70099 0.3435 0.0
C1059 C 0.43146 0.69296 0.31665 0.0
C1060 C 0.38672 0.71039 0.30792 0.0
H1061 H 0.26121 0.73943 0.87392 0.0
H1062 H 0.15782 0.65268 0.8773 0.0
H1063 H 0.08981 0.68621 0.85359 0.0
H1064 H 0.16213 0.80393 0.88723 0.0
H1065 H 0.19181 0.83453 0.86386 0.0
H1066 H 0.23092 0.8039 0.88206 0.0
H1067 H 0.26823 0.78401 0.83402 0.0
H1068 H 0.22869 0.81419 0.81568 0.0
H1069 H 0.22499 0.76968 0.80656 0.0
H1070 H 0.03504 0.72844 0.82782 0.0
H1071 H 0.99573 0.77751 0.80323 0.0
H1072 H 0.13424 0.83717 0.81785 0.0
C1073 C 0.2239 0.72791 0.8699 0.0
C1074 C 0.21408 0.69375 0.8772 0.0
C1075 C 0.16534 0.67896 0.87169 0.0
C1076 C 0.12682 0.69774 0.8583 0.0
C1077 C 0.13778 0.73135 0.85092 0.0
C1078 C 0.18493 0.74645 0.85678 0.0
C1079 C 0.18691 0.78289 0.84648 0.0
C1080 C 0.19331 0.80778 0.87139 0.0
C1081 C 0.22975 0.78796 0.82437 0.0
C1082 C 0.13402 0.78564 0.83332 0.0
C1083 C 0.10616 0.7557 0.83622 0.0
C1084 C 0.05634 0.75207 0.82555 0.0
C1085 C 0.03435 0.7799 0.81168 0.0
C1086 C 0.06241 0.8106 0.80858 0.0
C1087 C 0.11263 0.81358 0.81957 0.0
loop_
_geom_bond_atom_site_label_1
_geom_bond_atom_site_label_2
_geom_bond_distance
_geom_bond_site_symmetry_2
_ccdc_geom_bond_type
C0 N1 1.317 . S
C0 N2 1.348 . S
C0 C3 1.485 . S
N1 C0 1.317 . S
N1 N5 1.370 . S
N2 C0 1.348 . S
N2 C4 1.346 . S
C3 C0 1.485 . S
C3 H7 0.960 . S
C3 H8 0.961 . S
C3 H9 0.960 . S
C4 N2 1.346 . S
C4 N5 1.307 . S
C4 C6 1.486 . S
N5 N1 1.370 . S
N5 C4 1.307 . S
C6 C4 1.486 . S
C6 H10 0.960 . S
C6 H11 0.960 . S
C6 H12 0.959 . S
H7 C3 0.960 . S
H8 C3 0.961 . S
H9 C3 0.960 . S
H10 C6 0.960 . S
H11 C6 0.960 . S
H12 C6 0.959 . S
C13 N14 1.317 . S
C13 N15 1.348 . S
C13 C16 1.485 . S
N14 C13 1.317 . S
N14 N18 1.370 . S
N15 C13 1.348 . S
N15 C17 1.346 . S
C16 C13 1.485 . S
C16 H20 0.960 . S
C16 H21 0.961 . S
C16 H22 0.960 . S
C17 N15 1.346 . S
C17 N18 1.307 . S
C17 C19 1.486 . S
N18 N14 1.370 . S
N18 C17 1.307 . S
C19 C17 1.486 . S
C19 H23 0.960 . S
C19 H24 0.960 . S
C19 H25 0.959 . S
H20 C16 0.960 . S
H21 C16 0.961 . S
H22 C16 0.960 . S
H23 C19 0.960 . S
H24 C19 0.960 . S
H25 C19 0.959 . S
C26 N27 1.317 . S
C26 N28 1.348 . S
C26 C29 1.485 . S
N27 C26 1.317 . S
N27 N31 1.370 . S
N28 C26 1.348 . S
N28 C30 1.346 . S
C29 C26 1.485 . S
C29 H33 0.960 . S
C29 H34 0.961 . S
C29 H35 0.960 . S
C30 N28 1.346 . S
C30 N31 1.307 . S
C30 C32 1.486 . S
N31 N27 1.370 . S
N31 C30 1.307 . S
C32 C30 1.486 . S
C32 H36 0.960 . S
C32 H37 0.960 . S
C32 H38 0.959 . S
H33 C29 0.960 . S
H34 C29 0.961 . S
H35 C29 0.960 . S
H36 C32 0.960 . S
H37 C32 0.960 . S
H38 C32 0.959 . S
C39 N40 1.317 . S
C39 N41 1.348 . S
C39 C42 1.485 . S
N40 C39 1.317 . S
N40 N44 1.370 . S
N41 C39 1.348 . S
N41 C43 1.346 . S
C42 C39 1.485 . S
C42 H46 0.960 . S
C42 H47 0.961 . S
C42 H48 0.960 . S
C43 N41 1.346 . S
C43 N44 1.307 . S
C43 C45 1.486 . S
N44 N40 1.370 . S
N44 C43 1.307 . S
C45 C43 1.486 . S
C45 H49 0.960 . S
C45 H50 0.960 . S
C45 H51 0.959 . S
H46 C42 0.960 . S
H47 C42 0.961 . S
H48 C42 0.960 . S
H49 C45 0.960 . S
H50 C45 0.960 . S
H51 C45 0.959 . S
C52 N53 1.317 . S
C52 N54 1.348 . S
C52 C55 1.485 . S
N53 C52 1.317 . S
N53 N57 1.370 . S
N54 C52 1.348 . S
N54 C56 1.346 . S
C55 C52 1.485 . S
C55 H59 0.960 . S
C55 H60 0.961 . S
C55 H61 0.960 . S
C56 N54 1.346 . S
C56 N57 1.307 . S
C56 C58 1.486 . S
N57 N53 1.370 . S
N57 C56 1.307 . S
C58 C56 1.486 . S
C58 H62 0.960 . S
C58 H63 0.960 . S
C58 H64 0.959 . S
H59 C55 0.960 . S
H60 C55 0.961 . S
H61 C55 0.960 . S
H62 C58 0.960 . S
H63 C58 0.960 . S
H64 C58 0.959 . S
C65 N66 1.317 . S
C65 N67 1.348 . S
C65 C68 1.485 . S
N66 C65 1.317 . S
N66 N70 1.370 . S
N67 C65 1.348 . S
N67 C69 1.346 . S
C68 C65 1.485 . S
C68 H72 0.960 . S
C68 H73 0.961 . S
C68 H74 0.960 . S
C69 N67 1.346 . S
C69 N70 1.307 . S
C69 C71 1.486 . S
N70 N66 1.370 . S
N70 C69 1.307 . S
C71 C69 1.486 . S
C71 H75 0.960 . S
C71 H76 0.960 . S
C71 H77 0.959 . S
H72 C68 0.960 . S
H73 C68 0.961 . S
H74 C68 0.960 . S
H75 C71 0.960 . S
H76 C71 0.960 . S
H77 C71 0.959 . S
C78 N79 1.317 . S
C78 N80 1.348 . S
C78 C81 1.485 . S
N79 C78 1.317 . S
N79 N83 1.370 . S
N80 C78 1.348 . S
N80 C82 1.346 . S
C81 C78 1.485 . S
C81 H85 0.960 . S
C81 H86 0.961 . S
C81 H87 0.960 . S
C82 N80 1.346 . S
C82 N83 1.307 . S
C82 C84 1.486 . S
N83 N79 1.370 . S
N83 C82 1.307 . S
C84 C82 1.486 . S
C84 H88 0.960 . S
C84 H89 0.960 . S
C84 H90 0.959 . S
H85 C81 0.960 . S
H86 C81 0.961 . S
H87 C81 0.960 . S
H88 C84 0.960 . S
H89 C84 0.960 . S
H90 C84 0.959 . S
C91 N92 1.317 . S
C91 N93 1.348 . S
C91 C94 1.485 . S
N92 C91 1.317 . S
N92 N96 1.370 . S
N93 C91 1.348 . S
N93 C95 1.346 . S
C94 C91 1.485 . S
C94 H98 0.960 . S
C94 H99 0.961 . S
C94 H100 0.960 . S
C95 N93 1.346 . S
C95 N96 1.307 . S
C95 C97 1.486 . S
N96 N92 1.370 . S
N96 C95 1.307 . S
C97 C95 1.486 . S
C97 H101 0.960 . S
C97 H102 0.960 . S
C97 H103 0.959 . S
H98 C94 0.960 . S
H99 C94 0.961 . S
H100 C94 0.960 . S
H101 C97 0.960 . S
H102 C97 0.960 . S
H103 C97 0.959 . S
C104 C106 1.422 . S
C104 C108 1.415 . S
C104 N110 1.369 . S
C105 C106 1.421 . S
C105 C107 1.417 . S
C105 C117 1.422 1_545 S
C106 C104 1.422 . S
C106 C105 1.421 . S
C106 N116 1.359 . S
C107 C105 1.417 . S
C107 C109 1.329 . S
C107 H126 0.930 1_545 S
C108 C104 1.415 . S
C108 C109 1.437 . S
C108 C112 1.413 . S
C109 C107 1.329 . S
C109 C108 1.437 . S
C109 H131 0.929 . S
N110 C104 1.369 . S
N110 C111 1.338 . S
N110 Gd115 2.622 . S
C111 N110 1.338 . S
C111 C113 1.378 . S
C111 H123 0.929 . S
C112 C108 1.413 . S
C112 C113 1.348 . S
C112 H128 0.931 . S
C113 C111 1.378 . S
C113 C112 1.348 . S
C113 H129 0.930 . S
Gd114 N134 2.622 . S
Gd114 N141 2.570 . S
Gd114 O148 2.353 1_455 S
Gd114 O149 2.468 . S
Gd114 O150 2.427 . S
Gd114 O152 2.388 . S
Gd114 O153 2.386 . S
Gd114 O157 2.307 1_455 S
Gd114 C167 2.805 . S
Gd115 N110 2.622 . S
Gd115 N116 2.570 . S
Gd115 O147 2.386 . S
Gd115 O151 2.307 1_655 S
Gd115 O154 2.353 1_655 S
Gd115 O155 2.468 . S
Gd115 O156 2.427 . S
Gd115 O158 2.388 . S
Gd115 C179 2.805 . S
N116 C106 1.359 . S
N116 Gd115 2.570 . S
N116 C118 1.343 . S
C117 C105 1.422 1_565 S
C117 C119 1.321 . S
C117 H125 0.931 . S
C118 N116 1.343 . S
C118 C119 1.390 1_545 S
C118 H120 0.931 . S
C119 C117 1.321 . S
C119 C118 1.390 1_565 S
C119 H121 0.930 . S
H120 C118 0.931 . S
H121 C119 0.930 . S
H122 C145 0.931 . S
H123 C111 0.929 . S
H124 C146 0.930 . S
H125 C117 0.931 . S
H126 C107 0.930 1_565 S
H127 C136 0.929 . S
H128 C112 0.931 . S
H129 C113 0.930 . S
H130 C168 0.930 . S
H131 C109 0.929 . S
H132 C137 0.931 . S
H133 C138 0.930 . S
N134 Gd114 2.622 . S
N134 C135 1.369 . S
N134 C136 1.338 . S
C135 N134 1.369 . S
C135 C139 1.415 . S
C135 C142 1.422 . S
C136 H127 0.929 . S
C136 N134 1.338 . S
C136 C138 1.378 . S
C137 H132 0.931 . S
C137 C138 1.348 . S
C137 C139 1.413 . S
C138 H133 0.930 . S
C138 C136 1.378 . S
C138 C137 1.348 . S
C139 C135 1.415 . S
C139 C137 1.413 . S
C139 C169 1.437 . S
H140 C169 0.929 . S
N141 Gd114 2.570 . S
N141 C142 1.359 . S
N141 C145 1.343 . S
C142 C135 1.422 . S
C142 N141 1.359 . S
C142 C144 1.421 . S
C143 C144 1.422 . S
C143 C146 1.321 . S
C143 H170 0.931 . S
C144 C142 1.421 . S
C144 C143 1.422 . S
C144 C168 1.417 . S
C145 H122 0.931 . S
C145 N141 1.343 . S
C145 C146 1.390 . S
C146 H124 0.930 . S
C146 C143 1.321 . S
C146 C145 1.390 . S
O147 Gd115 2.386 . S
O147 C159 1.265 . S
O148 Gd114 2.353 1_655 S
O148 C159 1.242 . S
O149 Gd114 2.468 . S
O149 C167 1.263 . S
O150 Gd114 2.427 . S
O150 C167 1.252 . S
O151 Gd115 2.307 1_455 S
O151 C160 1.261 . S
O152 Gd114 2.388 . S
O152 C160 1.252 . S
O153 Gd114 2.386 . S
O153 C171 1.265 . S
O154 Gd115 2.353 1_455 S
O154 C171 1.242 . S
O155 Gd115 2.468 . S
O155 C179 1.263 . S
O156 Gd115 2.427 . S
O156 C179 1.252 . S
O157 Gd114 2.307 1_655 S
O157 C172 1.261 . S
O158 Gd115 2.388 . S
O158 C172 1.252 . S
C159 O147 1.265 . S
C159 O148 1.242 . S
C160 O151 1.261 . S
C160 O152 1.252 . S
C161 C164 1.394 . S
C161 C166 1.370 . S
C161 C167 1.500 . S
C162 C165 1.383 . S
C162 C166 1.395 . S
C163 C164 1.396 . S
C163 C165 1.365 . S
C163 H180 0.929 . S
C164 C161 1.394 . S
C164 C163 1.396 . S
C164 H181 0.930 . S
C165 C162 1.383 . S
C165 C163 1.365 . S
C165 H182 0.931 . S
C166 C161 1.370 . S
C166 C162 1.395 . S
C166 H183 0.930 . S
C167 Gd114 2.805 . S
C167 O149 1.263 . S
C167 O150 1.252 . S
C167 C161 1.500 . S
C168 H130 0.930 . S
C168 C144 1.417 . S
C168 C169 1.329 . S
C169 C139 1.437 . S
C169 H140 0.929 . S
C169 C168 1.329 . S
H170 C143 0.931 . S
C171 O153 1.265 . S
C171 O154 1.242 . S
C172 O157 1.261 . S
C172 O158 1.252 . S
C173 C176 1.394 . S
C173 C178 1.370 . S
C173 C179 1.500 . S
C174 C177 1.383 . S
C174 C178 1.395 . S
C175 C176 1.396 . S
C175 C177 1.365 . S
C175 H184 0.929 . S
C176 C173 1.394 . S
C176 C175 1.396 . S
C176 H185 0.930 . S
C177 C174 1.383 . S
C177 C175 1.365 . S
C177 H186 0.931 . S
C178 C173 1.370 . S
C178 C174 1.395 . S
C178 H187 0.930 . S
C179 Gd115 2.805 . S
C179 O155 1.263 . S
C179 O156 1.252 . S
C179 C173 1.500 . S
H180 C163 0.929 . S
H181 C164 0.930 . S
H182 C165 0.931 . S
H183 C166 0.930 . S
H184 C175 0.929 . S
H185 C176 0.930 . S
H186 C177 0.931 . S
H187 C178 0.930 . S
C188 C190 1.422 . S
C188 C192 1.415 . S
C188 N194 1.369 . S
C189 C190 1.421 . S
C189 C191 1.417 . S
C189 C201 1.422 . S
C190 C188 1.422 . S
C190 C189 1.421 . S
C190 N200 1.359 . S
C191 C189 1.417 . S
C191 C193 1.329 . S
C191 H210 0.930 . S
C192 C188 1.415 . S
C192 C193 1.437 . S
C192 C196 1.413 . S
C193 C191 1.329 . S
C193 C192 1.437 . S
C193 H215 0.929 . S
N194 C188 1.369 . S
N194 C195 1.338 . S
N194 Gd199 2.622 . S
C195 N194 1.338 . S
C195 C197 1.378 . S
C195 H207 0.929 . S
C196 C192 1.413 . S
C196 C197 1.348 . S
C196 H212 0.931 . S
C197 C195 1.378 . S
C197 C196 1.348 . S
C197 H213 0.930 . S
Gd198 N218 2.622 . S
Gd198 N225 2.570 . S
Gd198 O232 2.353 . S
Gd198 O233 2.468 . S
Gd198 O234 2.427 . S
Gd198 O236 2.388 . S
Gd198 O237 2.386 . S
Gd198 O241 2.307 . S
Gd198 C251 2.805 . S
Gd199 N194 2.622 . S
Gd199 N200 2.570 . S
Gd199 O231 2.386 . S
Gd199 O235 2.307 . S
Gd199 O238 2.353 . S
Gd199 O239 2.468 . S
Gd199 O240 2.427 . S
Gd199 O242 2.388 . S
Gd199 C263 2.805 . S
N200 C190 1.359 . S
N200 Gd199 2.570 . S
N200 C202 1.343 . S
C201 C189 1.422 . S
C201 C203 1.321 . S
C201 H209 0.931 . S
C202 N200 1.343 . S
C202 C203 1.390 . S
C202 H204 0.931 . S
C203 C201 1.321 . S
C203 C202 1.390 . S
C203 H205 0.930 . S
H204 C202 0.931 . S
H205 C203 0.930 . S
H206 C229 0.931 . S
H207 C195 0.929 . S
H208 C230 0.930 . S
H209 C201 0.931 . S
H210 C191 0.930 . S
H211 C220 0.929 . S
H212 C196 0.931 . S
H213 C197 0.930 . S
H214 C252 0.930 . S
H215 C193 0.929 . S
H216 C221 0.931 . S
H217 C222 0.930 . S
N218 Gd198 2.622 . S
N218 C219 1.369 . S
N218 C220 1.338 . S
C219 N218 1.369 . S
C219 C223 1.415 . S
C219 C226 1.422 . S
C220 H211 0.929 . S
C220 N218 1.338 . S
C220 C222 1.378 . S
C221 H216 0.931 . S
C221 C222 1.348 . S
C221 C223 1.413 . S
C222 H217 0.930 . S
C222 C220 1.378 . S
C222 C221 1.348 . S
C223 C219 1.415 . S
C223 C221 1.413 . S
C223 C253 1.437 . S
H224 C253 0.929 . S
N225 Gd198 2.570 . S
N225 C226 1.359 . S
N225 C229 1.343 . S
C226 C219 1.422 . S
C226 N225 1.359 . S
C226 C228 1.421 . S
C227 C228 1.422 . S
C227 C230 1.321 . S
C227 H254 0.931 . S
C228 C226 1.421 . S
C228 C227 1.422 . S
C228 C252 1.417 . S
C229 H206 0.931 . S
C229 N225 1.343 . S
C229 C230 1.390 . S
C230 H208 0.930 . S
C230 C227 1.321 . S
C230 C229 1.390 . S
O231 Gd199 2.386 . S
O231 C243 1.265 . S
O232 Gd198 2.353 . S
O232 C243 1.242 . S
O233 Gd198 2.468 . S
O233 C251 1.263 . S
O234 Gd198 2.427 . S
O234 C251 1.252 . S
O235 Gd199 2.307 . S
O235 C244 1.261 . S
O236 Gd198 2.388 . S
O236 C244 1.252 . S
O237 Gd198 2.386 . S
O237 C255 1.265 . S
O238 Gd199 2.353 . S
O238 C255 1.242 . S
O239 Gd199 2.468 . S
O239 C263 1.263 . S
O240 Gd199 2.427 . S
O240 C263 1.252 . S
O241 Gd198 2.307 . S
O241 C256 1.261 . S
O242 Gd199 2.388 . S
O242 C256 1.252 . S
C243 O231 1.265 . S
C243 O232 1.242 . S
C244 O235 1.261 . S
C244 O236 1.252 . S
C245 C248 1.394 . S
C245 C250 1.370 . S
C245 C251 1.500 . S
C246 C249 1.383 . S
C246 C250 1.395 . S
C247 C248 1.396 . S
C247 C249 1.365 . S
C247 H264 0.929 . S
C248 C245 1.394 . S
C248 C247 1.396 . S
C248 H265 0.930 . S
C249 C246 1.383 . S
C249 C247 1.365 . S
C249 H266 0.931 . S
C250 C245 1.370 . S
C250 C246 1.395 . S
C250 H267 0.930 . S
C251 Gd198 2.805 . S
C251 O233 1.263 . S
C251 O234 1.252 . S
C251 C245 1.500 . S
C252 H214 0.930 . S
C252 C228 1.417 . S
C252 C253 1.329 . S
C253 C223 1.437 . S
C253 H224 0.929 . S
C253 C252 1.329 . S
H254 C227 0.931 . S
C255 O237 1.265 . S
C255 O238 1.242 . S
C256 O241 1.261 . S
C256 O242 1.252 . S
C257 C260 1.394 . S
C257 C262 1.370 . S
C257 C263 1.500 . S
C258 C261 1.383 . S
C258 C262 1.395 . S
C259 C260 1.396 . S
C259 C261 1.365 . S
C259 H268 0.929 . S
C260 C257 1.394 . S
C260 C259 1.396 . S
C260 H269 0.930 . S
C261 C258 1.383 . S
C261 C259 1.365 . S
C261 H270 0.931 . S
C262 C257 1.370 . S
C262 C258 1.395 . S
C262 H271 0.930 . S
C263 Gd199 2.805 . S
C263 O239 1.263 . S
C263 O240 1.252 . S
C263 C257 1.500 . S
H264 C247 0.929 . S
H265 C248 0.930 . S
H266 C249 0.931 . S
H267 C250 0.930 . S
H268 C259 0.929 . S
H269 C260 0.930 . S
H270 C261 0.931 . S
H271 C262 0.930 . S
C272 C274 1.422 . S
C272 C276 1.415 . S
C272 N278 1.369 . S
C273 C274 1.421 . S
C273 C275 1.417 . S
C273 C285 1.422 . S
C274 C272 1.422 . S
C274 C273 1.421 . S
C274 N284 1.359 . S
C275 C273 1.417 . S
C275 C277 1.329 . S
C275 H294 0.930 . S
C276 C272 1.415 . S
C276 C277 1.437 . S
C276 C280 1.413 . S
C277 C275 1.329 . S
C277 C276 1.437 . S
C277 H299 0.929 . S
N278 C272 1.369 . S
N278 C279 1.338 . S
N278 Gd283 2.622 . S
C279 N278 1.338 . S
C279 C281 1.378 . S
C279 H291 0.929 . S
C280 C276 1.413 . S
C280 C281 1.348 . S
C280 H296 0.931 . S
C281 C279 1.378 . S
C281 C280 1.348 . S
C281 H297 0.930 . S
Gd282 N302 2.622 . S
Gd282 N309 2.570 . S
Gd282 O316 2.353 . S
Gd282 O317 2.468 . S
Gd282 O318 2.427 . S
Gd282 O320 2.388 . S
Gd282 O321 2.386 . S
Gd282 O325 2.316 . S
Gd282 C335 2.805 . S
Gd283 N278 2.622 . S
Gd283 N284 2.570 . S
Gd283 O315 2.386 . S
Gd283 O319 2.307 1_655 S
Gd283 O322 2.353 1_655 S
Gd283 O323 2.468 . S
Gd283 O324 2.427 . S
Gd283 O326 2.388 . S
Gd283 C347 2.805 . S
N284 C274 1.359 . S
N284 Gd283 2.570 . S
N284 C286 1.343 . S
C285 C273 1.422 . S
C285 C287 1.321 . S
C285 H293 0.931 . S
C286 N284 1.343 . S
C286 C287 1.390 . S
C286 H288 0.931 . S
C287 C285 1.321 . S
C287 C286 1.390 . S
C287 H289 0.930 . S
H288 C286 0.931 . S
H289 C287 0.930 . S
H290 C313 0.931 . S
H291 C279 0.929 . S
H292 C314 0.930 . S
H293 C285 0.931 . S
H294 C275 0.930 . S
H295 C304 0.929 . S
H296 C280 0.931 . S
H297 C281 0.930 . S
H298 C336 0.930 1_545 S
H299 C277 0.929 . S
H300 C305 0.931 . S
H301 C306 0.930 . S
N302 Gd282 2.622 . S
N302 C303 1.369 . S
N302 C304 1.338 . S
C303 N302 1.369 . S
C303 C307 1.415 . S
C303 C310 1.422 . S
C304 H295 0.929 . S
C304 N302 1.338 . S
C304 C306 1.378 . S
C305 H300 0.931 . S
C305 C306 1.348 . S
C305 C307 1.413 . S
C306 H301 0.930 . S
C306 C304 1.378 . S
C306 C305 1.348 . S
C307 C303 1.415 . S
C307 C305 1.413 . S
C307 C337 1.437 . S
H308 C337 0.929 . S
N309 Gd282 2.570 . S
N309 C310 1.359 . S
N309 C313 1.343 . S
C310 C303 1.422 . S
C310 N309 1.359 . S
C310 C312 1.421 . S
C311 C312 1.422 1_545 S
C311 C314 1.321 . S
C311 H338 0.931 . S
C312 C310 1.421 . S
C312 C311 1.422 1_565 S
C312 C336 1.417 . S
C313 H290 0.931 . S
C313 N309 1.343 . S
C313 C314 1.390 1_565 S
C314 H292 0.930 . S
C314 C311 1.321 . S
C314 C313 1.390 1_545 S
O315 Gd283 2.386 . S
O315 C327 1.265 . S
O316 Gd282 2.353 . S
O316 C327 1.242 1_455 S
O317 Gd282 2.468 . S
O317 C335 1.263 . S
O318 Gd282 2.427 . S
O318 C335 1.252 . S
O319 Gd283 2.307 1_455 S
O319 C328 1.261 . S
O320 Gd282 2.388 . S
O320 C328 1.252 . S
O321 Gd282 2.386 . S
O321 C339 1.265 . S
O322 Gd283 2.353 1_455 S
O322 C339 1.242 . S
O323 Gd283 2.468 . S
O323 C347 1.263 . S
O324 Gd283 2.427 . S
O324 C347 1.252 . S
O325 Gd282 2.316 . S
O325 C340 1.251 1_455 S
O326 Gd283 2.388 . S
O326 C340 1.252 . S
C327 O315 1.265 . S
C327 O316 1.242 1_655 S
C328 O319 1.261 . S
C328 O320 1.252 . S
C329 C332 1.394 . S
C329 C334 1.370 . S
C329 C335 1.500 . S
C330 C333 1.383 . S
C330 C334 1.395 . S
C331 C332 1.396 . S
C331 C333 1.365 . S
C331 H348 0.929 . S
C332 C329 1.394 . S
C332 C331 1.396 . S
C332 H349 0.930 . S
C333 C330 1.383 . S
C333 C331 1.365 . S
C333 H350 0.931 . S
C334 C329 1.370 . S
C334 C330 1.395 . S
C334 H351 0.930 . S
C335 Gd282 2.805 . S
C335 O317 1.263 . S
C335 O318 1.252 . S
C335 C329 1.500 . S
C336 H298 0.930 1_565 S
C336 C312 1.417 . S
C336 C337 1.329 . S
C337 C307 1.437 . S
C337 H308 0.929 . S
C337 C336 1.329 . S
H338 C311 0.931 . S
C339 O321 1.265 . S
C339 O322 1.242 . S
C340 O325 1.251 1_655 S
C340 O326 1.252 . S
C341 C344 1.394 . S
C341 C346 1.370 . S
C341 C347 1.500 . S
C342 C345 1.383 . S
C342 C346 1.395 . S
C343 C344 1.396 . S
C343 C345 1.365 . S
C343 H352 0.929 . S
C344 C341 1.394 . S
C344 C343 1.396 . S
C344 H353 0.930 . S
C345 C342 1.383 . S
C345 C343 1.365 . S
C345 H354 0.931 . S
C346 C341 1.370 . S
C346 C342 1.395 . S
C346 H355 0.930 . S
C347 Gd283 2.805 . S
C347 O323 1.263 . S
C347 O324 1.252 . S
C347 C341 1.500 . S
H348 C331 0.929 . S
H349 C332 0.930 . S
H350 C333 0.931 . S
H351 C334 0.930 . S
H352 C343 0.929 . S
H353 C344 0.930 . S
H354 C345 0.931 . S
H355 C346 0.930 . S
C356 C358 1.422 . S
C356 C360 1.415 . S
C356 N362 1.369 . S
C357 C358 1.421 . S
C357 C359 1.417 . S
C357 C369 1.422 . S
C358 C356 1.422 . S
C358 C357 1.421 . S
C358 N368 1.359 . S
C359 C357 1.417 . S
C359 C361 1.329 . S
C359 H378 0.930 . S
C360 C356 1.415 . S
C360 C361 1.437 . S
C360 C364 1.413 . S
C361 C359 1.329 . S
C361 C360 1.437 . S
C361 H383 0.929 . S
N362 C356 1.369 . S
N362 C363 1.338 . S
N362 Gd367 2.622 . S
C363 N362 1.338 . S
C363 C365 1.378 . S
C363 H375 0.929 . S
C364 C360 1.413 . S
C364 C365 1.348 . S
C364 H380 0.931 . S
C365 C363 1.378 . S
C365 C364 1.348 . S
C365 H381 0.930 . S
Gd366 N386 2.622 . S
Gd366 N393 2.570 . S
Gd366 O400 2.353 . S
Gd366 O401 2.468 . S
Gd366 O402 2.427 . S
Gd366 O404 2.388 . S
Gd366 O405 2.386 . S
Gd366 O409 2.307 . S
Gd366 C419 2.805 . S
Gd367 N362 2.622 . S
Gd367 N368 2.570 . S
Gd367 O399 2.386 . S
Gd367 O403 2.307 . S
Gd367 O406 2.353 . S
Gd367 O407 2.468 . S
Gd367 O408 2.427 . S
Gd367 O410 2.388 . S
Gd367 C431 2.805 . S
N368 C358 1.359 . S
N368 Gd367 2.570 . S
N368 C370 1.343 . S
C369 C357 1.422 . S
C369 C371 1.321 . S
C369 H377 0.931 . S
C370 N368 1.343 . S
C370 C371 1.390 . S
C370 H372 0.931 . S
C371 C369 1.321 . S
C371 C370 1.390 . S
C371 H373 0.930 . S
H372 C370 0.931 . S
H373 C371 0.930 . S
H374 C397 0.931 . S
H375 C363 0.929 . S
H376 C398 0.930 . S
H377 C369 0.931 . S
H378 C359 0.930 . S
H379 C388 0.929 . S
H380 C364 0.931 . S
H381 C365 0.930 . S
H382 C420 0.930 . S
H383 C361 0.929 . S
H384 C389 0.931 . S
H385 C390 0.930 . S
N386 Gd366 2.622 . S
N386 C387 1.369 . S
N386 C388 1.338 . S
C387 N386 1.369 . S
C387 C391 1.415 . S
C387 C394 1.422 . S
C388 H379 0.929 . S
C388 N386 1.338 . S
C388 C390 1.378 . S
C389 H384 0.931 . S
C389 C390 1.348 . S
C389 C391 1.413 . S
C390 H385 0.930 . S
C390 C388 1.378 . S
C390 C389 1.348 . S
C391 C387 1.415 . S
C391 C389 1.413 . S
C391 C421 1.437 . S
H392 C421 0.929 . S
N393 Gd366 2.570 . S
N393 C394 1.359 . S
N393 C397 1.343 . S
C394 C387 1.422 . S
C394 N393 1.359 . S
C394 C396 1.421 . S
C395 C396 1.422 . S
C395 C398 1.321 . S
C395 H422 0.931 . S
C396 C394 1.421 . S
C396 C395 1.422 . S
C396 C420 1.417 . S
C397 H374 0.931 . S
C397 N393 1.343 . S
C397 C398 1.390 . S
C398 H376 0.930 . S
C398 C395 1.321 . S
C398 C397 1.390 . S
O399 Gd367 2.386 . S
O399 C411 1.265 . S
O400 Gd366 2.353 . S
O400 C411 1.242 . S
O401 Gd366 2.468 . S
O401 C419 1.263 . S
O402 Gd366 2.427 . S
O402 C419 1.252 . S
O403 Gd367 2.307 . S
O403 C412 1.261 . S
O404 Gd366 2.388 . S
O404 C412 1.252 . S
O405 Gd366 2.386 . S
O405 C423 1.265 . S
O406 Gd367 2.353 . S
O406 C423 1.242 . S
O407 Gd367 2.468 . S
O407 C431 1.263 . S
O408 Gd367 2.427 . S
O408 C431 1.252 . S
O409 Gd366 2.307 . S
O409 C424 1.261 . S
O410 Gd367 2.388 . S
O410 C424 1.252 . S
C411 O399 1.265 . S
C411 O400 1.242 . S
C412 O403 1.261 . S
C412 O404 1.252 . S
C413 C416 1.394 . S
C413 C418 1.370 . S
C413 C419 1.500 . S
C414 C417 1.383 . S
C414 C418 1.395 . S
C415 C416 1.396 . S
C415 C417 1.365 . S
C415 H432 0.929 . S
C416 C413 1.394 . S
C416 C415 1.396 . S
C416 H433 0.930 . S
C417 C414 1.383 . S
C417 C415 1.365 . S
C417 H434 0.931 . S
C418 C413 1.370 . S
C418 C414 1.395 . S
C418 H435 0.930 . S
C419 Gd366 2.805 . S
C419 O401 1.263 . S
C419 O402 1.252 . S
C419 C413 1.500 . S
C420 H382 0.930 . S
C420 C396 1.417 . S
C420 C421 1.329 . S
C421 C391 1.437 . S
C421 H392 0.929 . S
C421 C420 1.329 . S
H422 C395 0.931 . S
C423 O405 1.265 . S
C423 O406 1.242 . S
C424 O409 1.261 . S
C424 O410 1.252 . S
C425 C428 1.394 . S
C425 C430 1.370 . S
C425 C431 1.500 . S
C426 C429 1.383 . S
C426 C430 1.395 . S
C427 C428 1.396 . S
C427 C429 1.365 . S
C427 H436 0.929 . S
C428 C425 1.394 . S
C428 C427 1.396 . S
C428 H437 0.930 . S
C429 C426 1.383 . S
C429 C427 1.365 . S
C429 H438 0.931 . S
C430 C425 1.370 . S
C430 C426 1.395 . S
C430 H439 0.930 . S
C431 Gd367 2.805 . S
C431 O407 1.263 . S
C431 O408 1.252 . S
C431 C425 1.500 . S
H432 C415 0.929 . S
H433 C416 0.930 . S
H434 C417 0.931 . S
H435 C418 0.930 . S
H436 C427 0.929 . S
H437 C428 0.930 . S
H438 C429 0.931 . S
H439 C430 0.930 . S
H440 C452 0.930 . S
H441 C454 0.930 . S
H442 C455 0.930 . S
H443 C459 0.959 . S
H444 C459 0.959 . S
H445 C459 0.961 . S
H446 C460 0.960 . S
H447 C460 0.961 . S
H448 C460 0.959 . S
H449 C463 0.929 . S
H450 C464 0.931 . S
H451 C466 0.928 1_565 S
C452 H440 0.930 . S
C452 C453 1.399 . S
C452 C457 1.399 . S
C453 C452 1.399 . S
C453 C454 1.376 . S
C454 H441 0.930 . S
C454 C453 1.376 . S
C454 C455 1.388 . S
C455 H442 0.930 . S
C455 C454 1.388 . S
C455 C456 1.390 . S
C456 C455 1.390 . S
C456 C457 1.394 . S
C456 C462 1.465 . S
C457 C452 1.399 . S
C457 C456 1.394 . S
C457 C458 1.516 . S
C458 C457 1.516 . S
C458 C459 1.502 . S
C458 C460 1.561 . S
C458 C461 1.526 . S
C459 H443 0.959 . S
C459 H444 0.959 . S
C459 H445 0.961 . S
C459 C458 1.502 . S
C460 H446 0.960 . S
C460 H447 0.961 . S
C460 H448 0.959 . S
C460 C458 1.561 . S
C461 C458 1.526 . S
C461 C462 1.396 . S
C461 C466 1.374 1_565 S
C462 C456 1.465 . S
C462 C461 1.396 . S
C462 C463 1.399 1_565 S
C463 H449 0.929 . S
C463 C462 1.399 1_545 S
C463 C464 1.385 . S
C464 H450 0.931 . S
C464 C463 1.385 . S
C464 C465 1.389 . S
C465 C464 1.389 . S
C465 C466 1.405 . S
C466 H451 0.928 1_545 S
C466 C461 1.374 1_545 S
C466 C465 1.405 . S
H467 C479 0.930 . S
H468 C481 0.930 . S
H469 C482 0.930 . S
H470 C486 0.959 . S
H471 C486 0.959 . S
H472 C486 0.961 . S
H473 C487 0.960 . S
H474 C487 0.961 . S
H475 C487 0.959 . S
H476 C490 0.929 . S
H477 C491 0.931 . S
H478 C493 0.930 . S
C479 H467 0.930 . S
C479 C480 1.399 . S
C479 C484 1.399 . S
C480 C479 1.399 . S
C480 C481 1.376 . S
C481 H468 0.930 . S
C481 C480 1.376 . S
C481 C482 1.388 . S
C482 H469 0.930 . S
C482 C481 1.388 . S
C482 C483 1.390 . S
C483 C482 1.390 . S
C483 C484 1.394 . S
C483 C489 1.465 . S
C484 C479 1.399 . S
C484 C483 1.394 . S
C484 C485 1.516 . S
C485 C484 1.516 . S
C485 C486 1.502 . S
C485 C487 1.561 . S
C485 C488 1.526 . S
C486 H470 0.959 . S
C486 H471 0.959 . S
C486 H472 0.961 . S
C486 C485 1.502 . S
C487 H473 0.960 . S
C487 H474 0.961 . S
C487 H475 0.959 . S
C487 C485 1.561 . S
C488 C485 1.526 . S
C488 C489 1.396 . S
C488 C493 1.390 . S
C489 C483 1.465 . S
C489 C488 1.396 . S
C489 C490 1.399 . S
C490 H476 0.929 . S
C490 C489 1.399 . S
C490 C491 1.385 . S
C491 H477 0.931 . S
C491 C490 1.385 . S
C491 C492 1.389 . S
C492 C491 1.389 . S
C492 C493 1.387 . S
C493 H478 0.930 . S
C493 C488 1.390 . S
C493 C492 1.387 . S
H494 C506 0.930 . S
H495 C508 0.930 . S
H496 C509 0.930 . S
H497 C513 0.959 . S
H498 C513 0.959 . S
H499 C513 0.961 . S
H500 C514 0.960 . S
H501 C514 0.961 . S
H502 C514 0.959 . S
H503 C517 0.929 . S
H504 C518 0.931 . S
H505 C520 0.930 . S
C506 H494 0.930 . S
C506 C507 1.399 . S
C506 C511 1.399 . S
C507 C506 1.399 . S
C507 C508 1.376 . S
C508 H495 0.930 . S
C508 C507 1.376 . S
C508 C509 1.388 . S
C509 H496 0.930 . S
C509 C508 1.388 . S
C509 C510 1.390 . S
C510 C509 1.390 . S
C510 C511 1.394 . S
C510 C516 1.465 . S
C511 C506 1.399 . S
C511 C510 1.394 . S
C511 C512 1.516 . S
C512 C511 1.516 . S
C512 C513 1.502 . S
C512 C514 1.561 . S
C512 C515 1.526 . S
C513 H497 0.959 . S
C513 H498 0.959 . S
C513 H499 0.961 . S
C513 C512 1.502 . S
C514 H500 0.960 . S
C514 H501 0.961 . S
C514 H502 0.959 . S
C514 C512 1.561 . S
C515 C512 1.526 . S
C515 C516 1.396 . S
C515 C520 1.390 . S
C516 C510 1.465 . S
C516 C515 1.396 . S
C516 C517 1.399 . S
C517 H503 0.929 . S
C517 C516 1.399 . S
C517 C518 1.385 . S
C518 H504 0.931 . S
C518 C517 1.385 . S
C518 C519 1.389 . S
C519 C518 1.389 . S
C519 C520 1.387 . S
C520 H505 0.930 . S
C520 C515 1.390 . S
C520 C519 1.387 . S
H521 C533 0.930 . S
H522 C535 0.930 . S
H523 C536 0.930 . S
H524 C540 0.959 . S
H525 C540 0.959 . S
H526 C540 0.961 . S
H527 C541 0.960 . S
H528 C541 0.961 . S
H529 C541 0.959 . S
H530 C544 0.929 . S
H531 C545 0.931 . S
H532 C547 0.930 . S
C533 H521 0.930 . S
C533 C534 1.399 . S
C533 C538 1.399 . S
C534 C533 1.399 . S
C534 C535 1.376 . S
C535 H522 0.930 . S
C535 C534 1.376 . S
C535 C536 1.388 . S
C536 H523 0.930 . S
C536 C535 1.388 . S
C536 C537 1.390 . S
C537 C536 1.390 . S
C537 C538 1.394 . S
C537 C543 1.465 . S
C538 C533 1.399 . S
C538 C537 1.394 . S
C538 C539 1.516 . S
C539 C538 1.516 . S
C539 C540 1.502 . S
C539 C541 1.561 . S
C539 C542 1.526 . S
C540 H524 0.959 . S
C540 H525 0.959 . S
C540 H526 0.961 . S
C540 C539 1.502 . S
C541 H527 0.960 . S
C541 H528 0.961 . S
C541 H529 0.959 . S
C541 C539 1.561 . S
C542 C539 1.526 . S
C542 C543 1.396 . S
C542 C547 1.390 . S
C543 C537 1.465 . S
C543 C542 1.396 . S
C543 C544 1.399 1_565 S
C544 H530 0.929 . S
C544 C543 1.399 1_545 S
C544 C545 1.385 . S
C545 H531 0.931 . S
C545 C544 1.385 . S
C545 C546 1.389 . S
C546 C545 1.389 . S
C546 C547 1.387 1_545 S
C547 H532 0.930 . S
C547 C542 1.390 . S
C547 C546 1.387 1_565 S
H548 C560 0.930 . S
H549 C562 0.930 . S
H550 C563 0.930 . S
H551 C567 0.959 . S
H552 C567 0.959 . S
H553 C567 0.961 . S
H554 C568 0.960 . S
H555 C568 0.961 . S
H556 C568 0.959 . S
H557 C571 0.929 . S
H558 C572 0.931 . S
H559 C574 0.930 . S
C560 H548 0.930 . S
C560 C561 1.399 . S
C560 C565 1.399 . S
C561 C560 1.399 . S
C561 C562 1.376 . S
C562 H549 0.930 . S
C562 C561 1.376 . S
C562 C563 1.388 . S
C563 H550 0.930 . S
C563 C562 1.388 . S
C563 C564 1.390 . S
C564 C563 1.390 . S
C564 C565 1.394 . S
C564 C570 1.465 . S
C565 C560 1.399 . S
C565 C564 1.394 . S
C565 C566 1.516 . S
C566 C565 1.516 . S
C566 C567 1.502 . S
C566 C568 1.561 . S
C566 C569 1.526 . S
C567 H551 0.959 . S
C567 H552 0.959 . S
C567 H553 0.961 . S
C567 C566 1.502 . S
C568 H554 0.960 . S
C568 H555 0.961 . S
C568 H556 0.959 . S
C568 C566 1.561 . S
C569 C566 1.526 . S
C569 C570 1.396 . S
C569 C574 1.390 . S
C570 C564 1.465 . S
C570 C569 1.396 . S
C570 C571 1.399 1_545 S
C571 H557 0.929 . S
C571 C570 1.399 1_565 S
C571 C572 1.385 . S
C572 H558 0.931 . S
C572 C571 1.385 . S
C572 C573 1.389 . S
C573 C572 1.389 . S
C573 C574 1.387 1_565 S
C574 H559 0.930 . S
C574 C569 1.390 . S
C574 C573 1.387 1_545 S
H575 C587 0.930 . S
H576 C589 0.930 . S
H577 C590 0.930 . S
H578 C594 0.959 . S
H579 C594 0.959 . S
H580 C594 0.961 . S
H581 C595 0.960 . S
H582 C595 0.961 . S
H583 C595 0.959 . S
H584 C598 0.929 . S
H585 C599 0.931 . S
H586 C601 0.930 . S
C587 H575 0.930 . S
C587 C588 1.399 . S
C587 C592 1.399 . S
C588 C587 1.399 . S
C588 C589 1.376 . S
C589 H576 0.930 . S
C589 C588 1.376 . S
C589 C590 1.388 . S
C590 H577 0.930 . S
C590 C589 1.388 . S
C590 C591 1.390 . S
C591 C590 1.390 . S
C591 C592 1.394 . S
C591 C597 1.465 . S
C592 C587 1.399 . S
C592 C591 1.394 . S
C592 C593 1.516 . S
C593 C592 1.516 . S
C593 C594 1.502 . S
C593 C595 1.561 . S
C593 C596 1.526 . S
C594 H578 0.959 . S
C594 H579 0.959 . S
C594 H580 0.961 . S
C594 C593 1.502 . S
C595 H581 0.960 . S
C595 H582 0.961 . S
C595 H583 0.959 . S
C595 C593 1.561 . S
C596 C593 1.526 . S
C596 C597 1.396 . S
C596 C601 1.390 . S
C597 C591 1.465 . S
C597 C596 1.396 . S
C597 C598 1.399 . S
C598 H584 0.929 . S
C598 C597 1.399 . S
C598 C599 1.385 . S
C599 H585 0.931 . S
C599 C598 1.385 . S
C599 C600 1.389 . S
C600 C599 1.389 . S
C600 C601 1.387 . S
C601 H586 0.930 . S
C601 C596 1.390 . S
C601 C600 1.387 . S
H602 C614 0.930 . S
H603 C616 0.930 . S
H604 C617 0.930 . S
H605 C621 0.959 . S
H606 C621 0.959 . S
H607 C621 0.961 . S
H608 C622 0.960 . S
H609 C622 0.961 . S
H610 C622 0.959 . S
H611 C625 0.929 . S
H612 C626 0.931 . S
H613 C628 0.930 . S
C614 H602 0.930 . S
C614 C615 1.399 . S
C614 C619 1.399 . S
C615 C614 1.399 . S
C615 C616 1.376 . S
C616 H603 0.930 . S
C616 C615 1.376 . S
C616 C617 1.388 . S
C617 H604 0.930 . S
C617 C616 1.388 . S
C617 C618 1.390 . S
C618 C617 1.390 . S
C618 C619 1.394 . S
C618 C624 1.465 . S
C619 C614 1.399 . S
C619 C618 1.394 . S
C619 C620 1.516 . S
C620 C619 1.516 . S
C620 C621 1.502 . S
C620 C622 1.561 . S
C620 C623 1.526 . S
C621 H605 0.959 . S
C621 H606 0.959 . S
C621 H607 0.961 . S
C621 C620 1.502 . S
C622 H608 0.960 . S
C622 H609 0.961 . S
C622 H610 0.959 . S
C622 C620 1.561 . S
C623 C620 1.526 . S
C623 C624 1.396 . S
C623 C628 1.390 . S
C624 C618 1.465 . S
C624 C623 1.396 . S
C624 C625 1.399 . S
C625 H611 0.929 . S
C625 C624 1.399 . S
C625 C626 1.385 . S
C626 H612 0.931 . S
C626 C625 1.385 . S
C626 C627 1.389 . S
C627 C626 1.389 . S
C627 C628 1.387 . S
C628 H613 0.930 . S
C628 C623 1.390 . S
C628 C627 1.387 . S
H629 C641 0.930 . S
H630 C643 0.930 . S
H631 C644 0.930 . S
H632 C648 0.959 . S
H633 C648 0.959 . S
H634 C648 0.961 . S
H635 C649 0.960 . S
H636 C649 0.961 . S
H637 C649 0.959 . S
H638 C652 0.929 . S
H639 C653 0.931 . S
H640 C655 0.930 . S
C641 H629 0.930 . S
C641 C642 1.399 . S
C641 C646 1.399 . S
C642 C641 1.399 . S
C642 C643 1.376 . S
C643 H630 0.930 . S
C643 C642 1.376 . S
C643 C644 1.388 . S
C644 H631 0.930 . S
C644 C643 1.388 . S
C644 C645 1.390 . S
C645 C644 1.390 . S
C645 C646 1.394 . S
C645 C651 1.465 . S
C646 C641 1.399 . S
C646 C645 1.394 . S
C646 C647 1.516 . S
C647 C646 1.516 . S
C647 C648 1.502 . S
C647 C649 1.561 . S
C647 C650 1.526 . S
C648 H632 0.959 . S
C648 H633 0.959 . S
C648 H634 0.961 . S
C648 C647 1.502 . S
C649 H635 0.960 . S
C649 H636 0.961 . S
C649 H637 0.959 . S
C649 C647 1.561 . S
C650 C647 1.526 . S
C650 C651 1.396 . S
C650 C655 1.390 . S
C651 C645 1.465 . S
C651 C650 1.396 . S
C651 C652 1.399 1_545 S
C652 H638 0.929 . S
C652 C651 1.399 1_565 S
C652 C653 1.385 . S
C653 H639 0.931 . S
C653 C652 1.385 . S
C653 C654 1.389 . S
C654 C653 1.389 . S
C654 C655 1.387 1_565 S
C655 H640 0.930 . S
C655 C650 1.390 . S
C655 C654 1.387 1_545 S
H656 C668 0.930 . S
H657 C670 0.930 . S
H658 C671 0.930 . S
H659 C675 0.959 . S
H660 C675 0.959 . S
H661 C675 0.961 . S
H662 C676 0.960 . S
H663 C676 0.961 . S
H664 C676 0.959 . S
H665 C679 0.929 . S
H666 C680 0.931 . S
H667 C682 0.930 . S
C668 H656 0.930 . S
C668 C669 1.399 . S
C668 C673 1.399 . S
C669 C668 1.399 . S
C669 C670 1.376 . S
C670 H657 0.930 . S
C670 C669 1.376 . S
C670 C671 1.388 . S
C671 H658 0.930 . S
C671 C670 1.388 . S
C671 C672 1.390 . S
C672 C671 1.390 . S
C672 C673 1.394 . S
C672 C678 1.465 1_556 S
C673 C668 1.399 . S
C673 C672 1.394 . S
C673 C674 1.516 1_556 S
C674 C673 1.516 1_554 S
C674 C675 1.502 . S
C674 C676 1.561 . S
C674 C677 1.526 . S
C675 H659 0.959 . S
C675 H660 0.959 . S
C675 H661 0.961 . S
C675 C674 1.502 . S
C676 H662 0.960 . S
C676 H663 0.961 . S
C676 H664 0.959 . S
C676 C674 1.561 . S
C677 C674 1.526 . S
C677 C678 1.396 . S
C677 C682 1.390 . S
C678 C672 1.465 1_554 S
C678 C677 1.396 . S
C678 C679 1.399 . S
C679 H665 0.929 . S
C679 C678 1.399 . S
C679 C680 1.385 . S
C680 H666 0.931 . S
C680 C679 1.385 . S
C680 C681 1.389 . S
C681 C680 1.389 . S
C681 C682 1.387 . S
C682 H667 0.930 . S
C682 C677 1.390 . S
C682 C681 1.387 . S
H683 C695 0.930 . S
H684 C697 0.930 . S
H685 C698 0.930 . S
H686 C702 0.959 . S
H687 C702 0.959 . S
H688 C702 0.961 . S
H689 C703 0.960 . S
H690 C703 0.961 . S
H691 C703 0.959 . S
H692 C706 0.929 . S
H693 C707 0.931 . S
H694 C709 0.930 . S
C695 H683 0.930 . S
C695 C696 1.399 . S
C695 C700 1.399 . S
C696 C695 1.399 . S
C696 C697 1.376 . S
C697 H684 0.930 . S
C697 C696 1.376 . S
C697 C698 1.388 . S
C698 H685 0.930 . S
C698 C697 1.388 . S
C698 C699 1.390 . S
C699 C698 1.390 . S
C699 C700 1.394 . S
C699 C705 1.465 . S
C700 C695 1.399 . S
C700 C699 1.394 . S
C700 C701 1.516 . S
C701 C700 1.516 . S
C701 C702 1.502 . S
C701 C703 1.561 . S
C701 C704 1.526 . S
C702 H686 0.959 . S
C702 H687 0.959 . S
C702 H688 0.961 . S
C702 C701 1.502 . S
C703 H689 0.960 . S
C703 H690 0.961 . S
C703 H691 0.959 . S
C703 C701 1.561 . S
C704 C701 1.526 . S
C704 C705 1.396 . S
C704 C709 1.390 . S
C705 C699 1.465 . S
C705 C704 1.396 . S
C705 C706 1.399 . S
C706 H692 0.929 . S
C706 C705 1.399 . S
C706 C707 1.385 . S
C707 H693 0.931 . S
C707 C706 1.385 . S
C707 C708 1.389 . S
C708 C707 1.389 . S
C708 C709 1.387 . S
C709 H694 0.930 . S
C709 C704 1.390 . S
C709 C708 1.387 . S
H710 C722 0.930 . S
H711 C724 0.930 . S
H712 C725 0.930 . S
H713 C729 0.959 . S
H714 C729 0.959 . S
H715 C729 0.961 . S
H716 C730 0.960 . S
H717 C730 0.961 1_556 S
H718 C730 0.959 1_556 S
H719 C733 0.929 . S
H720 C734 0.931 . S
H721 C736 0.930 . S
C722 H710 0.930 . S
C722 C723 1.399 . S
C722 C727 1.399 . S
C723 C722 1.399 . S
C723 C724 1.376 . S
C724 H711 0.930 . S
C724 C723 1.376 . S
C724 C725 1.388 . S
C725 H712 0.930 . S
C725 C724 1.388 . S
C725 C726 1.390 . S
C726 C725 1.390 . S
C726 C727 1.394 . S
C726 C732 1.465 1_554 S
C727 C722 1.399 . S
C727 C726 1.394 . S
C727 C728 1.516 . S
C728 C727 1.516 . S
C728 C729 1.502 . S
C728 C730 1.561 . S
C728 C731 1.526 1_554 S
C729 H713 0.959 . S
C729 H714 0.959 . S
C729 H715 0.961 . S
C729 C728 1.502 . S
C730 H716 0.960 . S
C730 H717 0.961 1_554 S
C730 H718 0.959 1_554 S
C730 C728 1.561 . S
C731 C728 1.526 1_556 S
C731 C732 1.396 . S
C731 C736 1.390 . S
C732 C726 1.465 1_556 S
C732 C731 1.396 . S
C732 C733 1.399 . S
C733 H719 0.929 . S
C733 C732 1.399 . S
C733 C734 1.385 . S
C734 H720 0.931 . S
C734 C733 1.385 . S
C734 C735 1.389 . S
C735 C734 1.389 . S
C735 C736 1.387 . S
C736 H721 0.930 . S
C736 C731 1.390 . S
C736 C735 1.387 . S
H737 C749 0.930 . S
H738 C751 0.930 . S
H739 C752 0.930 . S
H740 C756 0.959 . S
H741 C756 0.959 . S
H742 C756 0.961 . S
H743 C757 0.960 . S
H744 C757 0.961 . S
H745 C757 0.959 . S
H746 C760 0.929 . S
H747 C761 0.931 . S
H748 C763 0.930 . S
C749 H737 0.930 . S
C749 C750 1.399 . S
C749 C754 1.399 . S
C750 C749 1.399 . S
C750 C751 1.376 . S
C751 H738 0.930 . S
C751 C750 1.376 . S
C751 C752 1.388 . S
C752 H739 0.930 . S
C752 C751 1.388 . S
C752 C753 1.390 . S
C753 C752 1.390 . S
C753 C754 1.394 . S
C753 C759 1.465 . S
C754 C749 1.399 . S
C754 C753 1.394 . S
C754 C755 1.516 . S
C755 C754 1.516 . S
C755 C756 1.502 . S
C755 C757 1.561 . S
C755 C758 1.526 . S
C756 H740 0.959 . S
C756 H741 0.959 . S
C756 H742 0.961 . S
C756 C755 1.502 . S
C757 H743 0.960 . S
C757 H744 0.961 . S
C757 H745 0.959 . S
C757 C755 1.561 . S
C758 C755 1.526 . S
C758 C759 1.396 . S
C758 C763 1.390 . S
C759 C753 1.465 . S
C759 C758 1.396 . S
C759 C760 1.399 . S
C760 H746 0.929 . S
C760 C759 1.399 . S
C760 C761 1.385 . S
C761 H747 0.931 . S
C761 C760 1.385 . S
C761 C762 1.389 . S
C762 C761 1.389 . S
C762 C763 1.387 . S
C763 H748 0.930 . S
C763 C758 1.390 . S
C763 C762 1.387 . S
H764 C776 0.930 . S
H765 C778 0.930 . S
H766 C779 0.930 . S
H767 C783 0.959 . S
H768 C783 0.959 . S
H769 C783 0.961 . S
H770 C784 0.960 . S
H771 C784 0.961 1_556 S
H772 C784 0.959 . S
H773 C787 0.929 . S
H774 C788 0.931 . S
H775 C790 0.930 . S
C776 H764 0.930 . S
C776 C777 1.399 . S
C776 C781 1.399 . S
C777 C776 1.399 . S
C777 C778 1.376 . S
C778 H765 0.930 . S
C778 C777 1.376 . S
C778 C779 1.388 . S
C779 H766 0.930 . S
C779 C778 1.388 . S
C779 C780 1.390 . S
C780 C779 1.390 . S
C780 C781 1.394 . S
C780 C786 1.465 1_554 S
C781 C776 1.399 . S
C781 C780 1.394 . S
C781 C782 1.516 1_554 S
C782 C781 1.516 1_556 S
C782 C783 1.502 . S
C782 C784 1.561 1_556 S
C782 C785 1.526 . S
C783 H767 0.959 . S
C783 H768 0.959 . S
C783 H769 0.961 . S
C783 C782 1.502 . S
C784 H770 0.960 . S
C784 H771 0.961 1_554 S
C784 H772 0.959 . S
C784 C782 1.561 1_554 S
C785 C782 1.526 . S
C785 C786 1.396 . S
C785 C790 1.390 . S
C786 C780 1.465 1_556 S
C786 C785 1.396 . S
C786 C787 1.399 . S
C787 H773 0.929 . S
C787 C786 1.399 . S
C787 C788 1.385 . S
C788 H774 0.931 . S
C788 C787 1.385 . S
C788 C789 1.389 . S
C789 C788 1.389 . S
C789 C790 1.387 . S
C790 H775 0.930 . S
C790 C785 1.390 . S
C790 C789 1.387 . S
H791 C803 0.930 . S
H792 C805 0.930 . S
H793 C806 0.930 . S
H794 C810 0.959 . S
H795 C810 0.959 . S
H796 C810 0.961 . S
H797 C811 0.960 . S
H798 C811 0.961 . S
H799 C811 0.959 . S
H800 C814 0.929 . S
H801 C815 0.931 . S
H802 C817 0.930 . S
C803 H791 0.930 . S
C803 C804 1.399 . S
C803 C808 1.399 . S
C804 C803 1.399 . S
C804 C805 1.376 . S
C805 H792 0.930 . S
C805 C804 1.376 . S
C805 C806 1.388 . S
C806 H793 0.930 . S
C806 C805 1.388 . S
C806 C807 1.390 . S
C807 C806 1.390 . S
C807 C808 1.394 . S
C807 C813 1.465 . S
C808 C803 1.399 . S
C808 C807 1.394 . S
C808 C809 1.516 . S
C809 C808 1.516 . S
C809 C810 1.502 . S
C809 C811 1.561 . S
C809 C812 1.526 . S
C810 H794 0.959 . S
C810 H795 0.959 . S
C810 H796 0.961 . S
C810 C809 1.502 . S
C811 H797 0.960 . S
C811 H798 0.961 . S
C811 H799 0.959 . S
C811 C809 1.561 . S
C812 C809 1.526 . S
C812 C813 1.396 . S
C812 C817 1.390 . S
C813 C807 1.465 . S
C813 C812 1.396 . S
C813 C814 1.399 . S
C814 H800 0.929 . S
C814 C813 1.399 . S
C814 C815 1.385 . S
C815 H801 0.931 . S
C815 C814 1.385 . S
C815 C816 1.389 . S
C816 C815 1.389 . S
C816 C817 1.387 . S
C817 H802 0.930 . S
C817 C812 1.390 . S
C817 C816 1.387 . S
H818 C830 0.930 . S
H819 C832 0.930 . S
H820 C833 0.930 . S
H821 C837 0.959 . S
H822 C837 0.959 . S
H823 C837 0.961 . S
H824 C838 0.960 . S
H825 C838 0.961 . S
H826 C838 0.959 . S
H827 C841 0.929 . S
H828 C842 0.931 . S
H829 C844 0.930 . S
C830 H818 0.930 . S
C830 C831 1.399 . S
C830 C835 1.399 . S
C831 C830 1.399 . S
C831 C832 1.376 . S
C832 H819 0.930 . S
C832 C831 1.376 . S
C832 C833 1.388 . S
C833 H820 0.930 . S
C833 C832 1.388 . S
C833 C834 1.390 . S
C834 C833 1.390 . S
C834 C835 1.394 . S
C834 C840 1.465 1_556 S
C835 C830 1.399 . S
C835 C834 1.394 . S
C835 C836 1.516 1_556 S
C836 C835 1.516 1_554 S
C836 C837 1.502 . S
C836 C838 1.561 . S
C836 C839 1.526 . S
C837 H821 0.959 . S
C837 H822 0.959 . S
C837 H823 0.961 . S
C837 C836 1.502 . S
C838 H824 0.960 . S
C838 H825 0.961 . S
C838 H826 0.959 . S
C838 C836 1.561 . S
C839 C836 1.526 . S
C839 C840 1.396 . S
C839 C844 1.390 . S
C840 C834 1.465 1_554 S
C840 C839 1.396 . S
C840 C841 1.399 . S
C841 H827 0.929 . S
C841 C840 1.399 . S
C841 C842 1.385 . S
C842 H828 0.931 . S
C842 C841 1.385 . S
C842 C843 1.389 . S
C843 C842 1.389 . S
C843 C844 1.387 . S
C844 H829 0.930 . S
C844 C839 1.390 . S
C844 C843 1.387 . S
H845 C857 0.930 . S
H846 C859 0.930 . S
H847 C860 0.930 . S
H848 C864 0.959 . S
H849 C864 0.959 . S
H850 C864 0.961 . S
H851 C865 0.960 . S
H852 C865 0.961 . S
H853 C865 0.959 . S
H854 C868 0.929 . S
H855 C869 0.931 . S
H856 C871 0.930 . S
C857 H845 0.930 . S
C857 C858 1.399 . S
C857 C862 1.399 . S
C858 C857 1.399 . S
C858 C859 1.376 . S
C859 H846 0.930 . S
C859 C858 1.376 . S
C859 C860 1.388 . S
C860 H847 0.930 . S
C860 C859 1.388 . S
C860 C861 1.390 . S
C861 C860 1.390 . S
C861 C862 1.394 . S
C861 C867 1.465 . S
C862 C857 1.399 . S
C862 C861 1.394 . S
C862 C863 1.516 . S
C863 C862 1.516 . S
C863 C864 1.502 . S
C863 C865 1.561 . S
C863 C866 1.526 . S
C864 H848 0.959 . S
C864 H849 0.959 . S
C864 H850 0.961 . S
C864 C863 1.502 . S
C865 H851 0.960 . S
C865 H852 0.961 . S
C865 H853 0.959 . S
C865 C863 1.561 . S
C866 C863 1.526 . S
C866 C867 1.396 . S
C866 C871 1.390 . S
C867 C861 1.465 . S
C867 C866 1.396 . S
C867 C868 1.399 . S
C868 H854 0.929 . S
C868 C867 1.399 . S
C868 C869 1.385 . S
C869 H855 0.931 . S
C869 C868 1.385 . S
C869 C870 1.389 . S
C870 C869 1.389 . S
C870 C871 1.387 . S
C871 H856 0.930 . S
C871 C866 1.390 . S
C871 C870 1.387 . S
H872 C884 0.930 . S
H873 C886 0.930 . S
H874 C887 0.930 . S
H875 C891 0.959 . S
H876 C891 0.959 . S
H877 C891 0.961 . S
H878 C892 0.960 . S
H879 C892 0.961 . S
H880 C892 0.959 . S
H881 C895 0.929 . S
H882 C896 0.931 . S
H883 C898 0.930 . S
C884 H872 0.930 . S
C884 C885 1.399 . S
C884 C889 1.399 . S
C885 C884 1.399 . S
C885 C886 1.376 . S
C886 H873 0.930 . S
C886 C885 1.376 . S
C886 C887 1.388 . S
C887 H874 0.930 . S
C887 C886 1.388 . S
C887 C888 1.390 . S
C888 C887 1.390 . S
C888 C889 1.394 . S
C888 C894 1.465 . S
C889 C884 1.399 . S
C889 C888 1.394 . S
C889 C890 1.516 . S
C890 C889 1.516 . S
C890 C891 1.502 . S
C890 C892 1.561 . S
C890 C893 1.526 . S
C891 H875 0.959 . S
C891 H876 0.959 . S
C891 H877 0.961 . S
C891 C890 1.502 . S
C892 H878 0.960 . S
C892 H879 0.961 . S
C892 H880 0.959 . S
C892 C890 1.561 . S
C893 C890 1.526 . S
C893 C894 1.396 . S
C893 C898 1.390 . S
C894 C888 1.465 . S
C894 C893 1.396 . S
C894 C895 1.399 . S
C895 H881 0.929 . S
C895 C894 1.399 . S
C895 C896 1.385 . S
C896 H882 0.931 . S
C896 C895 1.385 . S
C896 C897 1.389 . S
C897 C896 1.389 . S
C897 C898 1.387 . S
C898 H883 0.930 . S
C898 C893 1.390 . S
C898 C897 1.387 . S
H899 C911 0.930 . S
H900 C913 0.930 . S
H901 C914 0.930 . S
H902 C918 0.959 . S
H903 C918 0.959 . S
H904 C918 0.961 . S
H905 C919 0.960 . S
H906 C919 0.961 . S
H907 C919 0.959 . S
H908 C922 0.929 . S
H909 C923 0.931 . S
H910 C925 0.930 . S
C911 H899 0.930 . S
C911 C912 1.399 . S
C911 C916 1.399 . S
C912 C911 1.399 . S
C912 C913 1.376 . S
C913 H900 0.930 . S
C913 C912 1.376 . S
C913 C914 1.388 . S
C914 H901 0.930 . S
C914 C913 1.388 . S
C914 C915 1.390 . S
C915 C914 1.390 . S
C915 C916 1.394 . S
C915 C921 1.465 . S
C916 C911 1.399 . S
C916 C915 1.394 . S
C916 C917 1.516 . S
C917 C916 1.516 . S
C917 C918 1.502 . S
C917 C919 1.561 . S
C917 C920 1.526 . S
C918 H902 0.959 . S
C918 H903 0.959 . S
C918 H904 0.961 . S
C918 C917 1.502 . S
C919 H905 0.960 . S
C919 H906 0.961 . S
C919 H907 0.959 . S
C919 C917 1.561 . S
C920 C917 1.526 . S
C920 C921 1.396 . S
C920 C925 1.390 . S
C921 C915 1.465 . S
C921 C920 1.396 . S
C921 C922 1.399 . S
C922 H908 0.929 . S
C922 C921 1.399 . S
C922 C923 1.385 . S
C923 H909 0.931 . S
C923 C922 1.385 . S
C923 C924 1.389 . S
C924 C923 1.389 . S
C924 C925 1.387 . S
C925 H910 0.930 . S
C925 C920 1.390 . S
C925 C924 1.387 . S
H926 C938 0.930 . S
H927 C940 0.930 . S
H928 C941 0.930 . S
H929 C945 0.959 . S
H930 C945 0.959 . S
H931 C945 0.961 . S
H932 C946 0.960 . S
H933 C946 0.961 . S
H934 C946 0.959 . S
H935 C949 0.929 . S
H936 C950 0.931 . S
H937 C952 0.930 . S
C938 H926 0.930 . S
C938 C939 1.399 . S
C938 C943 1.399 . S
C939 C938 1.399 . S
C939 C940 1.376 . S
C940 H927 0.930 . S
C940 C939 1.376 . S
C940 C941 1.388 . S
C941 H928 0.930 . S
C941 C940 1.388 . S
C941 C942 1.390 . S
C942 C941 1.390 . S
C942 C943 1.394 . S
C942 C948 1.465 . S
C943 C938 1.399 . S
C943 C942 1.394 . S
C943 C944 1.516 . S
C944 C943 1.516 . S
C944 C945 1.502 . S
C944 C946 1.561 . S
C944 C947 1.526 . S
C945 H929 0.959 . S
C945 H930 0.959 . S
C945 H931 0.961 . S
C945 C944 1.502 . S
C946 H932 0.960 . S
C946 H933 0.961 . S
C946 H934 0.959 . S
C946 C944 1.561 . S
C947 C944 1.526 . S
C947 C948 1.396 . S
C947 C952 1.390 . S
C948 C942 1.465 . S
C948 C947 1.396 . S
C948 C949 1.399 . S
C949 H935 0.929 . S
C949 C948 1.399 . S
C949 C950 1.385 . S
C950 H936 0.931 . S
C950 C949 1.385 . S
C950 C951 1.389 . S
C951 C950 1.389 . S
C951 C952 1.387 . S
C952 H937 0.930 . S
C952 C947 1.390 . S
C952 C951 1.387 . S
H953 C965 0.930 . S
H954 C967 0.930 . S
H955 C968 0.930 . S
H956 C972 0.959 . S
H957 C972 0.959 . S
H958 C972 0.961 . S
H959 C973 0.960 . S
H960 C973 0.961 . S
H961 C973 0.959 . S
H962 C976 0.929 . S
H963 C977 0.931 . S
H964 C979 0.930 . S
C965 H953 0.930 . S
C965 C966 1.399 . S
C965 C970 1.399 . S
C966 C965 1.399 . S
C966 C967 1.376 . S
C967 H954 0.930 . S
C967 C966 1.376 . S
C967 C968 1.388 . S
C968 H955 0.930 . S
C968 C967 1.388 . S
C968 C969 1.390 . S
C969 C968 1.390 . S
C969 C970 1.394 . S
C969 C975 1.465 . S
C970 C965 1.399 . S
C970 C969 1.394 . S
C970 C971 1.516 . S
C971 C970 1.516 . S
C971 C972 1.502 . S
C971 C973 1.561 . S
C971 C974 1.526 . S
C972 H956 0.959 . S
C972 H957 0.959 . S
C972 H958 0.961 . S
C972 C971 1.502 . S
C973 H959 0.960 . S
C973 H960 0.961 . S
C973 H961 0.959 . S
C973 C971 1.561 . S
C974 C971 1.526 . S
C974 C975 1.396 . S
C974 C979 1.390 . S
C975 C969 1.465 . S
C975 C974 1.396 . S
C975 C976 1.399 . S
C976 H962 0.929 . S
C976 C975 1.399 . S
C976 C977 1.385 . S
C977 H963 0.931 . S
C977 C976 1.385 . S
C977 C978 1.389 . S
C978 C977 1.389 . S
C978 C979 1.387 . S
C979 H964 0.930 . S
C979 C974 1.390 . S
C979 C978 1.387 . S
H980 C992 0.930 . S
H981 C994 0.930 . S
H982 C995 0.930 . S
H983 C999 0.959 . S
H984 C999 0.959 . S
H985 C999 0.961 . S
H986 C1000 0.960 . S
H987 C1000 0.961 . S
H988 C1000 0.959 . S
H989 C1003 0.929 . S
H990 C1004 0.931 . S
H991 C1006 0.930 . S
C992 H980 0.930 . S
C992 C993 1.399 . S
C992 C997 1.399 . S
C993 C992 1.399 . S
C993 C994 1.376 . S
C994 H981 0.930 . S
C994 C993 1.376 . S
C994 C995 1.388 . S
C995 H982 0.930 . S
C995 C994 1.388 . S
C995 C996 1.390 . S
C996 C995 1.390 . S
C996 C997 1.394 . S
C996 C1002 1.465 . S
C997 C992 1.399 . S
C997 C996 1.394 . S
C997 C998 1.516 . S
C998 C997 1.516 . S
C998 C999 1.502 . S
C998 C1000 1.561 . S
C998 C1001 1.526 . S
C999 H983 0.959 . S
C999 H984 0.959 . S
C999 H985 0.961 . S
C999 C998 1.502 . S
C1000 H986 0.960 . S
C1000 H987 0.961 . S
C1000 H988 0.959 . S
C1000 C998 1.561 . S
C1001 C998 1.526 . S
C1001 C1002 1.396 . S
C1001 C1006 1.390 . S
C1002 C996 1.465 . S
C1002 C1001 1.396 . S
C1002 C1003 1.399 . S
C1003 H989 0.929 . S
C1003 C1002 1.399 . S
C1003 C1004 1.385 . S
C1004 H990 0.931 . S
C1004 C1003 1.385 . S
C1004 C1005 1.389 . S
C1005 C1004 1.389 . S
C1005 C1006 1.387 . S
C1006 H991 0.930 . S
C1006 C1001 1.390 . S
C1006 C1005 1.387 . S
H1007 C1019 0.930 . S
H1008 C1021 0.930 . S
H1009 C1022 0.930 . S
H1010 C1026 0.959 . S
H1011 C1026 0.959 . S
H1012 C1026 0.961 . S
H1013 C1027 0.960 . S
H1014 C1027 0.961 . S
H1015 C1027 0.959 . S
H1016 C1030 0.929 . S
H1017 C1031 0.931 . S
H1018 C1033 0.930 . S
C1019 H1007 0.930 . S
C1019 C1020 1.399 . S
C1019 C1024 1.399 . S
C1020 C1019 1.399 . S
C1020 C1021 1.376 . S
C1021 H1008 0.930 . S
C1021 C1020 1.376 . S
C1021 C1022 1.388 . S
C1022 H1009 0.930 . S
C1022 C1021 1.388 . S
C1022 C1023 1.390 . S
C1023 C1022 1.390 . S
C1023 C1024 1.394 . S
C1023 C1029 1.465 . S
C1024 C1019 1.399 . S
C1024 C1023 1.394 . S
C1024 C1025 1.516 . S
C1025 C1024 1.516 . S
C1025 C1026 1.502 . S
C1025 C1027 1.561 . S
C1025 C1028 1.526 . S
C1026 H1010 0.959 . S
C1026 H1011 0.959 . S
C1026 H1012 0.961 . S
C1026 C1025 1.502 . S
C1027 H1013 0.960 . S
C1027 H1014 0.961 . S
C1027 H1015 0.959 . S
C1027 C1025 1.561 . S
C1028 C1025 1.526 . S
C1028 C1029 1.396 . S
C1028 C1033 1.390 . S
C1029 C1023 1.465 . S
C1029 C1028 1.396 . S
C1029 C1030 1.399 . S
C1030 H1016 0.929 . S
C1030 C1029 1.399 . S
C1030 C1031 1.385 . S
C1031 H1017 0.931 . S
C1031 C1030 1.385 . S
C1031 C1032 1.389 . S
C1032 C1031 1.389 . S
C1032 C1033 1.387 . S
C1033 H1018 0.930 . S
C1033 C1028 1.390 . S
C1033 C1032 1.387 . S
H1034 C1046 0.930 . S
H1035 C1048 0.930 . S
H1036 C1049 0.930 . S
H1037 C1053 0.959 . S
H1038 C1053 0.959 . S
H1039 C1053 0.961 . S
H1040 C1054 0.960 . S
H1041 C1054 0.961 . S
H1042 C1054 0.959 . S
H1043 C1057 0.929 . S
H1044 C1058 0.931 . S
H1045 C1060 0.930 . S
C1046 H1034 0.930 . S
C1046 C1047 1.399 . S
C1046 C1051 1.399 . S
C1047 C1046 1.399 . S
C1047 C1048 1.376 . S
C1048 H1035 0.930 . S
C1048 C1047 1.376 . S
C1048 C1049 1.388 . S
C1049 H1036 0.930 . S
C1049 C1048 1.388 . S
C1049 C1050 1.390 . S
C1050 C1049 1.390 . S
C1050 C1051 1.394 . S
C1050 C1056 1.465 . S
C1051 C1046 1.399 . S
C1051 C1050 1.394 . S
C1051 C1052 1.516 . S
C1052 C1051 1.516 . S
C1052 C1053 1.502 . S
C1052 C1054 1.561 . S
C1052 C1055 1.526 . S
C1053 H1037 0.959 . S
C1053 H1038 0.959 . S
C1053 H1039 0.961 . S
C1053 C1052 1.502 . S
C1054 H1040 0.960 . S
C1054 H1041 0.961 . S
C1054 H1042 0.959 . S
C1054 C1052 1.561 . S
C1055 C1052 1.526 . S
C1055 C1056 1.396 . S
C1055 C1060 1.390 . S
C1056 C1050 1.465 . S
C1056 C1055 1.396 . S
C1056 C1057 1.399 . S
C1057 H1043 0.929 . S
C1057 C1056 1.399 . S
C1057 C1058 1.385 . S
C1058 H1044 0.931 . S
C1058 C1057 1.385 . S
C1058 C1059 1.389 . S
C1059 C1058 1.389 . S
C1059 C1060 1.387 . S
C1060 H1045 0.930 . S
C1060 C1055 1.390 . S
C1060 C1059 1.387 . S
H1061 C1073 0.930 . S
H1062 C1075 0.930 . S
H1063 C1076 0.930 . S
H1064 C1080 0.959 . S
H1065 C1080 0.959 . S
H1066 C1080 0.961 . S
H1067 C1081 0.960 . S
H1068 C1081 0.961 . S
H1069 C1081 0.959 . S
H1070 C1084 0.929 . S
H1071 C1085 0.931 . S
H1072 C1087 0.930 . S
C1073 H1061 0.930 . S
C1073 C1074 1.399 . S
C1073 C1078 1.399 . S
C1074 C1073 1.399 . S
C1074 C1075 1.376 . S
C1075 H1062 0.930 . S
C1075 C1074 1.376 . S
C1075 C1076 1.388 . S
C1076 H1063 0.930 . S
C1076 C1075 1.388 . S
C1076 C1077 1.390 . S
C1077 C1076 1.390 . S
C1077 C1078 1.394 . S
C1077 C1083 1.465 . S
C1078 C1073 1.399 . S
C1078 C1077 1.394 . S
C1078 C1079 1.516 . S
C1079 C1078 1.516 . S
C1079 C1080 1.502 . S
C1079 C1081 1.561 . S
C1079 C1082 1.526 . S
C1080 H1064 0.959 . S
C1080 H1065 0.959 . S
C1080 H1066 0.961 . S
C1080 C1079 1.502 . S
C1081 H1067 0.960 . S
C1081 H1068 0.961 . S
C1081 H1069 0.959 . S
C1081 C1079 1.561 . S
C1082 C1079 1.526 . S
C1082 C1083 1.396 . S
C1082 C1087 1.390 . S
C1083 C1077 1.465 . S
C1083 C1082 1.396 . S
C1083 C1084 1.399 . S
C1084 H1070 0.929 . S
C1084 C1083 1.399 . S
C1084 C1085 1.385 . S
C1085 H1071 0.931 . S
C1085 C1084 1.385 . S
C1085 C1086 1.389 . S
C1086 C1085 1.389 . S
C1086 C1087 1.387 . S
C1087 H1072 0.930 . S
C1087 C1082 1.390 . S
C1087 C1086 1.387 . S
C453 N83 1.650 . S
C465 C160 1.654 . S
C492 C244 1.653 . S
C480 N96 1.656 . S
C519 C243 1.645 . S
C507 N57 1.638 . S
C534 N70 1.645 . S
C546 C159 1.640 . S
C573 C340 1.651 . S
C561 N31 1.651 . S
C600 C424 1.614 . S
C588 N44 1.621 . S
C615 N5 1.607 . S
C627 C423 1.654 . S
C642 N18 1.637 . S
C654 C339 1.634 . S
C681 C162 1.465 . S
C669 N14 1.616 . S
C708 C246 1.421 . S
C696 N1 1.619 . S
C735 C258 1.313 . S
C723 N40 1.598 . S
C762 C174 1.448 . S
C750 N27 1.620 . S
C789 C342 1.496 . S
C777 N66 1.585 . S
C804 N53 1.595 . S
C816 C426 1.406 . S
C843 C414 1.444 . S
C831 N92 1.607 . S
C858 N79 1.611 . S
C870 C330 1.365 . S
C897 C171 1.546 . S
C885 N2 1.542 . S
C924 C255 1.539 . S
C912 N15 1.545 . S
C939 N28 1.541 . S
C951 C256 1.533 . S
C978 C172 1.488 . S
C966 N41 1.533 . S
C1005 C327 1.536 . S
C993 N54 1.544 . S
C1020 N67 1.546 . S
C1032 C411 1.541 . S
C1047 N80 1.540 . S
C1059 C412 1.516 . S
C1074 N93 1.529 . S
C1086 C328 1.489 . S
