# Generated by pormake.
# Topology zzz, (3,6)-cn, num edge types: 1
# Building blocks:
#     Node 0, Type 0, BuildingBlock: INOVEN_clean_linker_0, # of connection points: 3
#     Node 1, Type 0, BuildingBlock: INOVEN_clean_linker_0, # of connection points: 3
#     Node 2, Type 0, BuildingBlock: INOVEN_clean_linker_0, # of connection points: 3
#     Node 3, Type 0, BuildingBlock: INOVEN_clean_linker_0, # of connection points: 3
#     Node 4, Type 0, BuildingBlock: INOVEN_clean_linker_0, # of connection points: 3
#     Node 5, Type 0, BuildingBlock: INOVEN_clean_linker_0, # of connection points: 3
#     Node 6, Type 0, BuildingBlock: INOVEN_clean_linker_0, # of connection points: 3
#     Node 7, Type 0, BuildingBlock: INOVEN_clean_linker_0, # of connection points: 3
#     Node 8, Type 1, BuildingBlock: LEVNOQ01_clean_sbu_1, # of connection points: 6
#     Node 9, Type 1, BuildingBlock: LEVNOQ01_clean_sbu_1, # of connection points: 6
#     Node 10, Type 1, BuildingBlock: LEVNOQ01_clean_sbu_1, # of connection points: 6
#     Node 11, Type 1, BuildingBlock: LEVNOQ01_clean_sbu_1, # of connection points: 6
#     Edge 12, Type (0, 1), BuildingBlock: KIFKEQ_clean_linker_1, # of connection points: 2
#     Edge 13, Type (0, 1), BuildingBlock: KIFKEQ_clean_linker_1, # of connection points: 2
#     Edge 14, Type (0, 1), BuildingBlock: KIFKEQ_clean_linker_1, # of connection points: 2
#     Edge 15, Type (0, 1), BuildingBlock: KIFKEQ_clean_linker_1, # of connection points: 2
#     Edge 16, Type (0, 1), BuildingBlock: KIFKEQ_clean_linker_1, # of connection points: 2
#     Edge 17, Type (0, 1), BuildingBlock: KIFKEQ_clean_linker_1, # of connection points: 2
#     Edge 18, Type (0, 1), BuildingBlock: KIFKEQ_clean_linker_1, # of connection points: 2
#     Edge 19, Type (0, 1), BuildingBlock: KIFKEQ_clean_linker_1, # of connection points: 2
#     Edge 20, Type (0, 1), BuildingBlock: KIFKEQ_clean_linker_1, # of connection points: 2
#     Edge 21, Type (0, 1), BuildingBlock: KIFKEQ_clean_linker_1, # of connection points: 2
#     Edge 22, Type (0, 1), BuildingBlock: KIFKEQ_clean_linker_1, # of connection points: 2
#     Edge 23, Type (0, 1), BuildingBlock: KIFKEQ_clean_linker_1, # of connection points: 2
#     Edge 24, Type (0, 1), BuildingBlock: KIFKEQ_clean_linker_1, # of connection points: 2
#     Edge 25, Type (0, 1), BuildingBlock: KIFKEQ_clean_linker_1, # of connection points: 2
#     Edge 26, Type (0, 1), BuildingBlock: KIFKEQ_clean_linker_1, # of connection points: 2
#     Edge 27, Type (0, 1), BuildingBlock: KIFKEQ_clean_linker_1, # of connection points: 2
#     Edge 28, Type (0, 1), BuildingBlock: KIFKEQ_clean_linker_1, # of connection points: 2
#     Edge 29, Type (0, 1), BuildingBlock: KIFKEQ_clean_linker_1, # of connection points: 2
#     Edge 30, Type (0, 1), BuildingBlock: KIFKEQ_clean_linker_1, # of connection points: 2
#     Edge 31, Type (0, 1), BuildingBlock: KIFKEQ_clean_linker_1, # of connection points: 2
#     Edge 32, Type (0, 1), BuildingBlock: KIFKEQ_clean_linker_1, # of connection points: 2
#     Edge 33, Type (0, 1), BuildingBlock: KIFKEQ_clean_linker_1, # of connection points: 2
#     Edge 34, Type (0, 1), BuildingBlock: KIFKEQ_clean_linker_1, # of connection points: 2
#     Edge 35, Type (0, 1), BuildingBlock: KIFKEQ_clean_linker_1, # of connection points: 2
# Relax obj value: 0.138
# Max RMSD: 0.182
# Mean RMSD: 0.107
data_MOF--net-zzz--node1-LEVNOQ01_clean_sbu_1--node2-INOVEN_clean_linker_0--edge1-KIFKEQ_clean_linker_1
_symmetry_space_group_name_H-M    P1
_symmetry_Int_Tables_number       1
_symmetry_cell_setting            triclinic
loop_
_symmetry_equiv_pos_as_xyz
'x, y, z'
_cell_length_a     50.861922
_cell_length_b     50.929425
_cell_length_c     16.143232
_cell_angle_alpha  89.973783
_cell_angle_beta   90.059808
_cell_angle_gamma 90.045404
loop_
_atom_site_label
_atom_site_type_symbol
_atom_site_fract_x
_atom_site_fract_y
_atom_site_fract_z
_atom_type_partial_charge
H0 H 0.77439 0.54716 0.26533 0.0
H1 H 0.84679 0.57211 0.15375 0.0
H2 H 0.77579 0.57349 0.0113 0.0
N3 N 0.74411 0.55592 0.13044 0.0
N4 N 0.7303 0.56835 0.07976 0.0
C5 C 0.78484 0.55594 0.21384 0.0
C6 C 0.81227 0.55987 0.21877 0.0
C7 C 0.77121 0.56224 0.14 0.0
C8 C 0.7855 0.5712 0.07068 0.0
C9 C 0.81272 0.57458 0.07526 0.0
C10 C 0.82553 0.5703 0.15064 0.0
H11 H 0.96678 0.76237 0.29502 0.0
H12 H 0.95084 0.83964 0.19858 0.0
H13 H 0.95472 0.77511 0.03242 0.0
N14 N 0.96411 0.73739 0.14488 0.0
N15 N 0.96638 0.73074 0.07065 0.0
C16 C 0.96153 0.77504 0.24373 0.0
C17 C 0.95761 0.80233 0.25705 0.0
C18 C 0.95951 0.76459 0.16241 0.0
C19 C 0.9547 0.78198 0.09595 0.0
C20 C 0.95177 0.80874 0.10919 0.0
C21 C 0.95194 0.81853 0.1895 0.0
H22 H 0.75576 0.97507 0.2778 0.0
H23 H 0.68174 0.94705 0.18586 0.0
H24 H 0.75029 0.94235 0.0323 0.0
N25 N 0.78341 0.96429 0.13925 0.0
N26 N 0.79695 0.95092 0.09034 0.0
C27 C 0.74454 0.96498 0.23043 0.0
C28 C 0.71752 0.95999 0.24237 0.0
C29 C 0.75683 0.95725 0.15592 0.0
C30 C 0.7415 0.94612 0.09226 0.0
C31 C 0.71428 0.94309 0.10165 0.0
C32 C 0.70289 0.9486 0.17849 0.0
H33 H 0.56696 0.7586 0.30055 0.0
H34 H 0.57283 0.68111 0.19488 0.0
H35 H 0.57185 0.74769 0.03528 0.0
N36 N 0.57092 0.7846 0.15192 0.0
N37 N 0.58077 0.79302 0.08605 0.0
C38 C 0.5694 0.74594 0.24726 0.0
C39 C 0.57072 0.71828 0.25767 0.0
C40 C 0.57142 0.75692 0.16658 0.0
C41 C 0.57257 0.73994 0.09782 0.0
C42 C 0.57331 0.71292 0.10849 0.0
C43 C 0.57332 0.70232 0.18783 0.0
H44 H 0.2543 0.45977 0.15151 0.0
H45 H 0.18075 0.4523 0.28233 0.0
H46 H 0.25249 0.45074 0.4179 0.0
N47 N 0.2851 0.45566 0.29061 0.0
N48 N 0.29616 0.44439 0.35008 0.0
C49 C 0.24343 0.45671 0.20833 0.0
C50 C 0.21552 0.455 0.20657 0.0
C51 C 0.25711 0.45396 0.28467 0.0
C52 C 0.24261 0.45103 0.35835 0.0
C53 C 0.21537 0.45001 0.35688 0.0
C54 C 0.20208 0.45168 0.28157 0.0
H55 H 0.05876 0.24919 0.15144 0.0
H56 H 0.07812 0.17726 0.27787 0.0
H57 H 0.07881 0.24952 0.41114 0.0
N58 N 0.06677 0.2809 0.28546 0.0
N59 N 0.07861 0.2937 0.34016 0.0
C60 C 0.06587 0.239 0.20591 0.0
C61 C 0.06845 0.21126 0.20515 0.0
C62 C 0.07127 0.25327 0.27953 0.0
C63 C 0.07775 0.23937 0.35219 0.0
C64 C 0.07973 0.21212 0.35171 0.0
C65 C 0.07704 0.19855 0.27715 0.0
H66 H 0.27007 0.07035 0.13121 0.0
H67 H 0.34619 0.08287 0.24134 0.0
H68 H 0.27891 0.07474 0.3966 0.0
N69 N 0.24363 0.06805 0.27794 0.0
N70 N 0.23777 0.05349 0.33745 0.0
C71 C 0.28208 0.07443 0.18512 0.0
C72 C 0.30952 0.07837 0.17641 0.0
C73 C 0.27071 0.07402 0.26509 0.0
C74 C 0.28704 0.07686 0.33487 0.0
C75 C 0.31413 0.0797 0.32624 0.0
C76 C 0.32493 0.08208 0.24738 0.0
H77 H 0.46461 0.26802 0.12814 0.0
H78 H 0.45935 0.33958 0.26976 0.0
H79 H 0.46107 0.26588 0.3953 0.0
N80 N 0.4638 0.23571 0.26369 0.0
N81 N 0.44971 0.22307 0.31305 0.0
C82 C 0.46257 0.2781 0.18683 0.0
C83 C 0.4607 0.30588 0.18928 0.0
C84 C 0.46135 0.26349 0.2615 0.0
C85 C 0.46011 0.27676 0.33762 0.0
C86 C 0.45922 0.30396 0.34006 0.0
C87 C 0.45899 0.31829 0.26643 0.0
O88 O 0.04821 0.96439 0.84119 0.0
Mg89 Mg 0.05566 0.97332 0.71609 0.0
O90 O 0.0108 0.98247 0.8074 0.0
Mg91 Mg 0.01287 0.01247 0.70351 0.0
O92 O 0.05857 0.01137 0.67561 0.0
O93 O 0.09286 0.98387 0.68972 0.0
O94 O 0.01529 0.04252 0.5969 0.0
O95 O 0.02241 0.0468 0.79812 0.0
Mg96 Mg 0.97288 0.04916 0.67983 0.0
O97 O 0.96724 0.01372 0.73788 0.0
O98 O 0.97599 0.05026 0.55036 0.0
O99 O 0.99515 0.07697 0.74991 0.0
O100 O 0.93561 0.04389 0.71844 0.0
C101 C 0.01465 0.95589 0.59276 0.0
C102 C 0.02391 0.96724 0.85372 0.0
C103 C 0.08359 0.00633 0.66689 0.0
C104 C 0.00048 0.05315 0.54323 0.0
C105 C 0.01394 0.0705 0.79751 0.0
C106 C 0.94289 0.02135 0.74684 0.0
O107 O 0.03631 0.94984 0.62676 0.0
O108 O 0.00304 0.9776 0.60992 0.0
O109 O 0.4598 0.98801 0.84846 0.0
Mg110 Mg 0.4805 0.97015 0.75146 0.0
O111 O 0.48117 0.02489 0.82302 0.0
Mg112 Mg 0.51501 0.01489 0.72553 0.0
O113 O 0.52027 0.96982 0.76567 0.0
O114 O 0.49392 0.9343 0.77736 0.0
O115 O 0.54911 0.00487 0.62619 0.0
O116 O 0.54628 0.01817 0.82849 0.0
Mg117 Mg 0.54885 0.05566 0.68059 0.0
O118 O 0.50941 0.06029 0.68772 0.0
O119 O 0.55975 0.04194 0.56458 0.0
O120 O 0.57541 0.0443 0.77186 0.0
O121 O 0.53895 0.09343 0.68398 0.0
C122 C 0.46585 0.99433 0.59906 0.0
C123 C 0.46304 0.0123 0.86127 0.0
C124 C 0.51691 0.9449 0.78286 0.0
C125 C 0.56165 0.01728 0.56927 0.0
C126 C 0.56955 0.02712 0.82488 0.0
C127 C 0.51501 0.08519 0.67676 0.0
O128 O 0.46335 0.97246 0.63485 0.0
O129 O 0.48299 0.0107 0.6242 0.0
O130 O 0.52934 0.44432 0.74713 0.0
Mg131 Mg 0.55179 0.47128 0.67593 0.0
O132 O 0.50273 0.47454 0.79888 0.0
Mg133 Mg 0.51293 0.50945 0.70681 0.0
O134 O 0.55866 0.5059 0.73812 0.0
O135 O 0.58946 0.4754 0.71188 0.0
O136 O 0.52291 0.54488 0.61572 0.0
O137 O 0.51513 0.53907 0.81099 0.0
Mg138 Mg 0.46744 0.55087 0.71989 0.0
O139 O 0.46804 0.51296 0.68023 0.0
O140 O 0.48956 0.57286 0.63223 0.0
O141 O 0.47741 0.55682 0.84548 0.0
O142 O 0.43117 0.53663 0.68731 0.0
C143 C 0.52154 0.46753 0.54684 0.0
C144 C 0.5108 0.4507 0.7957 0.0
C145 C 0.58288 0.49753 0.74481 0.0
C146 C 0.51142 0.56676 0.59922 0.0
C147 C 0.50183 0.55411 0.85745 0.0
C148 C 0.44297 0.51527 0.66593 0.0
O149 O 0.54629 0.46917 0.54665 0.0
O150 O 0.50904 0.48009 0.60181 0.0
O151 O 0.9678 0.47296 0.85797 0.0
Mg152 Mg 0.97235 0.46318 0.731 0.0
O153 O 0.98488 0.51002 0.81601 0.0
Mg154 Mg 0.01429 0.50812 0.71109 0.0
O155 O 0.00959 0.4639 0.68225 0.0
O156 O 0.98604 0.42712 0.69039 0.0
O157 O 0.04383 0.50678 0.60493 0.0
O158 O 0.04998 0.49841 0.80132 0.0
Mg159 Mg 0.05516 0.55424 0.69212 0.0
O160 O 0.01873 0.55206 0.74352 0.0
O161 O 0.05331 0.54654 0.56416 0.0
O162 O 0.07946 0.52888 0.76531 0.0
O163 O 0.0416 0.58928 0.74004 0.0
C164 C 0.95591 0.50808 0.61285 0.0
C165 C 0.9702 0.49759 0.86588 0.0
C166 C 0.00701 0.43907 0.66592 0.0
C167 C 0.0555 0.52201 0.55474 0.0
C168 C 0.07322 0.50834 0.80585 0.0
C169 C 0.0208 0.5767 0.76255 0.0
O170 O 0.9492 0.48736 0.65164 0.0
O171 O 0.97898 0.5181 0.62057 0.0
H172 H 0.19382 0.0841 0.31889 0.0
H173 H 0.22425 0.01314 0.42777 0.0
H174 H 0.15316 0.07926 0.40116 0.0
H175 H 0.18412 0.00797 0.5083 0.0
H176 H 0.13236 0.01931 0.71669 0.0
H177 H 0.16783 0.03477 0.62824 0.0
H178 H 0.11258 0.04735 0.42899 0.0
H179 H 0.07668 0.03211 0.51926 0.0
C180 C 0.1914 0.06705 0.35823 0.0
C181 C 0.21192 0.0487 0.36683 0.0
C182 C 0.16832 0.06441 0.40577 0.0
C183 C 0.16573 0.04358 0.46267 0.0
C184 C 0.18574 0.02459 0.46669 0.0
C185 C 0.20852 0.02726 0.41977 0.0
C186 C 0.1276 0.02639 0.65515 0.0
C187 C 0.10186 0.02441 0.62458 0.0
C188 C 0.14795 0.03497 0.60411 0.0
C189 C 0.14311 0.04143 0.5208 0.0
C190 C 0.11691 0.04228 0.49271 0.0
C191 C 0.09634 0.03379 0.5445 0.0
H192 H 0.41511 0.1898 0.37667 0.0
H193 H 0.49707 0.19894 0.31605 0.0
H194 H 0.42587 0.15246 0.46696 0.0
H195 H 0.50794 0.16221 0.40764 0.0
H196 H 0.51618 0.13834 0.68069 0.0
H197 H 0.49778 0.16753 0.57642 0.0
H198 H 0.45382 0.10311 0.47192 0.0
H199 H 0.47291 0.07333 0.57604 0.0
C200 C 0.43525 0.18298 0.3798 0.0
C201 C 0.45516 0.197 0.3389 0.0
C202 C 0.4414 0.16183 0.43185 0.0
C203 C 0.46772 0.1548 0.445 0.0
C204 C 0.48747 0.16739 0.39864 0.0
C205 C 0.48124 0.18818 0.34541 0.0
C206 C 0.50203 0.13043 0.63711 0.0
C207 C 0.49631 0.10341 0.63596 0.0
C208 C 0.49177 0.14711 0.57678 0.0
C209 C 0.47514 0.13733 0.51469 0.0
C210 C 0.46699 0.11097 0.51852 0.0
C211 C 0.47761 0.09404 0.57876 0.0
H212 H 0.31944 0.41664 0.46472 0.0
H213 H 0.3322 0.48064 0.29493 0.0
H214 H 0.36015 0.42752 0.53752 0.0
H215 H 0.37343 0.49156 0.36752 0.0
H216 H 0.45321 0.4955 0.512 0.0
H217 H 0.42119 0.47347 0.42068 0.0
H218 H 0.36564 0.47073 0.62243 0.0
H219 H 0.39714 0.49315 0.71192 0.0
C220 C 0.33162 0.43243 0.44116 0.0
C221 C 0.32283 0.44763 0.37432 0.0
C222 C 0.35478 0.43876 0.48305 0.0
C223 C 0.36989 0.46044 0.4585 0.0
C224 C 0.36225 0.47457 0.38728 0.0
C225 C 0.33872 0.46833 0.34563 0.0
C226 C 0.43447 0.4893 0.53719 0.0
C227 C 0.4277 0.49558 0.61925 0.0
C228 C 0.41608 0.47706 0.48479 0.0
C229 C 0.39091 0.47048 0.51438 0.0
C230 C 0.38494 0.47533 0.59801 0.0
C231 C 0.403 0.48801 0.64947 0.0
H232 H 0.03465 0.32262 0.30426 0.0
H233 H 0.10886 0.3234 0.43294 0.0
H234 H 0.02189 0.36329 0.37563 0.0
H235 H 0.0964 0.36393 0.50389 0.0
H236 H 0.04082 0.40024 0.70826 0.0
H237 H 0.06179 0.36897 0.6144 0.0
H238 H 0.03218 0.41238 0.40434 0.0
H239 H 0.01171 0.44409 0.49922 0.0
C240 C 0.0486 0.33203 0.34534 0.0
C241 C 0.07289 0.32006 0.36293 0.0
C242 C 0.04131 0.35527 0.38646 0.0
C243 C 0.05806 0.36671 0.44614 0.0
C244 C 0.08295 0.35551 0.45909 0.0
C245 C 0.0902 0.33249 0.41799 0.0
C246 C 0.03973 0.40364 0.64208 0.0
C247 C 0.02522 0.42483 0.61089 0.0
C248 C 0.05159 0.38569 0.58816 0.0
C249 C 0.04857 0.38812 0.50173 0.0
C250 C 0.0348 0.40993 0.47048 0.0
C251 C 0.0234 0.42824 0.52465 0.0
H252 H 0.83475 0.92011 0.03134 0.0
H253 H 0.81404 0.00102 0.07397 0.0
H254 H 0.87335 0.93421 0.95076 0.0
H255 H 0.85195 0.0151 0.99182 0.0
H256 H 0.88987 0.02333 0.7336 0.0
H257 H 0.85732 0.00483 0.82742 0.0
H258 H 0.91883 0.96623 0.96542 0.0
H259 H 0.95189 0.98594 0.87288 0.0
C260 C 0.83895 0.94088 0.02528 0.0
C261 C 0.82172 0.95944 0.05958 0.0
C262 C 0.8609 0.94891 0.97918 0.0
C263 C 0.86546 0.97571 0.96474 0.0
C264 C 0.84882 0.9943 0.00209 0.0
C265 C 0.82728 0.98628 0.04967 0.0
C266 C 0.89655 0.01069 0.78334 0.0
C267 C 0.92351 0.00596 0.79546 0.0
C268 C 0.87789 0.0002 0.83722 0.0
C269 C 0.88561 0.98448 0.90429 0.0
C270 C 0.9124 0.97835 0.91411 0.0
C271 C 0.93127 0.98927 0.86051 0.0
H272 H 0.60587 0.81041 0.95618 0.0
H273 H 0.55046 0.8338 0.14372 0.0
H274 H 0.59799 0.85127 0.88067 0.0
H275 H 0.5426 0.87518 0.0683 0.0
H276 H 0.54573 0.95362 0.92259 0.0
H277 H 0.56672 0.91911 0.00646 0.0
H278 H 0.55359 0.86349 0.80905 0.0
H279 H 0.53242 0.89764 0.72683 0.0
C280 C 0.59263 0.82482 0.98241 0.0
C281 C 0.57904 0.81915 0.05571 0.0
C282 C 0.58803 0.84809 0.93914 0.0
C283 C 0.56978 0.86643 0.96869 0.0
C284 C 0.55711 0.86152 0.04485 0.0
C285 C 0.56157 0.83791 0.08802 0.0
C286 C 0.54851 0.93431 0.89596 0.0
C287 C 0.53788 0.92832 0.81785 0.0
C288 C 0.56002 0.91448 0.94445 0.0
C289 C 0.56148 0.88858 0.91462 0.0
C290 C 0.55287 0.88328 0.83357 0.0
C291 C 0.541 0.90287 0.78607 0.0
H292 H 0.69501 0.59832 0.00466 0.0
H293 H 0.70859 0.51981 0.09462 0.0
H294 H 0.65563 0.58313 0.93058 0.0
H295 H 0.66966 0.50447 0.01943 0.0
H296 H 0.63494 0.48623 0.75859 0.0
H297 H 0.66673 0.50436 0.85513 0.0
H298 H 0.6082 0.55802 0.9481 0.0
H299 H 0.57557 0.53876 0.85318 0.0
C300 C 0.68899 0.57801 0.01068 0.0
C301 C 0.70466 0.56032 0.05548 0.0
C302 C 0.66656 0.56932 0.9683 0.0
C303 C 0.6598 0.5426 0.96869 0.0
C304 C 0.67456 0.52517 0.01789 0.0
C305 C 0.6967 0.53396 0.06143 0.0
C306 C 0.62866 0.50194 0.79921 0.0
C307 C 0.60262 0.51124 0.79739 0.0
C308 C 0.64692 0.51219 0.85501 0.0
C309 C 0.63983 0.5323 0.9099 0.0
C310 C 0.61413 0.54242 0.90653 0.0
C311 C 0.59557 0.5317 0.85146 0.0
H312 H 0.96549 0.68306 0.15315 0.0
H313 H 0.97559 0.72068 0.91641 0.0
H314 H 0.97097 0.6397 0.08613 0.0
H315 H 0.98146 0.67843 0.85003 0.0
H316 H 0.97781 0.60557 0.7225 0.0
H317 H 0.95824 0.63959 0.80954 0.0
H318 H 0.00595 0.61393 0.01581 0.0
H319 H 0.02462 0.57933 0.92897 0.0
C320 C 0.96895 0.682 0.08709 0.0
C321 C 0.97024 0.70503 0.03918 0.0
C322 C 0.97197 0.6573 0.0486 0.0
C323 C 0.97607 0.65547 0.96216 0.0
C324 C 0.97745 0.67879 0.9159 0.0
C325 C 0.97449 0.70307 0.95395 0.0
C326 C 0.98306 0.60644 0.78752 0.0
C327 C 0.00255 0.58989 0.81938 0.0
C328 C 0.97217 0.62611 0.83727 0.0
C329 C 0.98112 0.63001 0.91915 0.0
C330 C -0.00139 0.61158 0.95327 0.0
C331 C 0.00929 0.59173 0.90357 0.0
H332 H 0.11027 0.1741 0.42401 0.0
H333 H 0.03634 0.21484 0.44421 0.0
H334 H 0.09083 0.13559 0.4894 0.0
H335 H 0.01603 0.17619 0.49979 0.0
H336 H 0.9808 0.10043 0.57909 0.0
H337 H 0.00413 0.14158 0.57237 0.0
H338 H 0.06601 0.10377 0.43142 0.0
H339 H 0.04357 0.06188 0.44752 0.0
C340 C 0.09018 0.17513 0.44592 0.0
C341 C 0.07456 0.19701 0.42745 0.0
C342 C 0.07869 0.15282 0.48078 0.0
C343 C 0.05133 0.15194 0.49447 0.0
C344 C 0.03699 0.17553 0.48908 0.0
C345 C 0.04875 0.19806 0.45761 0.0
C346 C -0.00094 0.10117 0.54458 0.0
C347 C 0.01017 0.07821 0.51182 0.0
C348 C 0.01269 0.12482 0.54139 0.0
C349 C 0.03733 0.12635 0.50218 0.0
C350 C 0.04762 0.10346 0.46499 0.0
C351 C 0.03442 0.07952 0.47141 0.0
H352 H 0.35633 0.10575 0.39271 0.0
H353 H 0.3126 0.03322 0.40294 0.0
H354 H 0.39295 0.08476 0.46508 0.0
H355 H 0.34931 0.01162 0.46731 0.0
H356 H 0.41537 0.97903 0.61439 0.0
H357 H 0.37707 0.00282 0.57046 0.0
H358 H 0.42644 0.05638 0.4315 0.0
H359 H 0.46532 0.03358 0.4831 0.0
C360 C 0.35435 0.08555 0.41286 0.0
C361 C 0.33175 0.07109 0.39307 0.0
C362 C 0.37549 0.07328 0.45231 0.0
C363 C 0.37457 0.04619 0.46999 0.0
C364 C 0.35095 0.03249 0.45592 0.0
C365 C 0.32966 0.04493 0.41911 0.0
C366 C 0.41811 0.99551 0.57279 0.0
C367 C 0.44338 0.00432 0.5514 0.0
C368 C 0.39598 0.00934 0.54772 0.0
C369 C 0.39841 0.03178 0.49764 0.0
C370 C 0.42372 0.03969 0.47211 0.0
C371 C 0.44602 0.02629 0.49978 0.0
H372 H 0.42505 0.33718 0.41306 0.0
H373 H 0.50291 0.30457 0.43527 0.0
H374 H 0.43952 0.37682 0.48189 0.0
H375 H 0.51759 0.34404 0.50741 0.0
H376 H 0.54258 0.42888 0.44888 0.0
H377 H 0.52591 0.38424 0.43439 0.0
H378 H 0.4576 0.4048 0.57984 0.0
H379 H 0.47303 0.44938 0.58896 0.0
C380 C 0.44485 0.33792 0.43781 0.0
C381 C 0.46309 0.31844 0.41738 0.0
C382 C 0.45331 0.36073 0.47683 0.0
C383 C 0.48007 0.36403 0.49624 0.0
C384 C 0.49709 0.34239 0.48977 0.0
C385 C 0.4886 0.31959 0.45019 0.0
C386 C 0.52365 0.42401 0.47551 0.0
C387 C 0.50912 0.44286 0.51913 0.0
C388 C 0.51443 0.39826 0.46946 0.0
C389 C 0.4907 0.3908 0.50786 0.0
C390 C 0.47588 0.40984 0.54939 0.0
C391 C 0.48471 0.4356 0.55363 0.0
H392 H 0.21692 0.49089 0.46165 0.0
H393 H 0.17823 0.4168 0.4188 0.0
H394 H 0.17814 0.50749 0.52899 0.0
H395 H 0.13955 0.43248 0.49268 0.0
H396 H 0.06609 0.48175 0.44931 0.0
H397 H 0.10821 0.45938 0.43548 0.0
H398 H 0.14286 0.51432 0.6093 0.0
H399 H 0.10179 0.53811 0.61405 0.0
C400 C 0.20061 0.47756 0.47185 0.0
C401 C 0.19996 0.45302 0.43294 0.0
C402 C 0.17811 0.4871 0.51026 0.0
C403 C 0.15501 0.47183 0.51171 0.0
C404 C 0.1565 0.44528 0.48803 0.0
C405 C 0.17881 0.43601 0.44755 0.0
C406 C 0.08315 0.48949 0.48132 0.0
C407 C 0.08116 0.51216 0.52962 0.0
C408 C 0.10709 0.47624 0.47611 0.0
C409 C 0.1291 0.48477 0.5223 0.0
C410 C 0.12672 0.50739 0.57139 0.0
C411 C 0.10321 0.52122 0.57351 0.0
H412 H 0.92004 0.84889 0.05982 0.0
H413 H 0.99472 0.81152 0.01322 0.0
H414 H 0.93588 0.88884 0.99186 0.0
H415 H 0.01063 0.85132 0.94609 0.0
H416 H 0.04133 0.9352 0.97809 0.0
H417 H 0.02065 0.89412 0.02254 0.0
H418 H 0.95452 0.90954 0.8617 0.0
H419 H 0.97497 0.95006 0.81703 0.0
C420 C 0.93936 0.84892 0.03155 0.0
C421 C 0.95626 0.82743 0.04164 0.0
C422 C 0.94851 0.87173 0.9936 0.0
C423 C 0.97471 0.87322 0.96668 0.0
C424 C 0.99055 0.85071 0.9684 0.0
C425 C 0.98129 0.82784 0.00524 0.0
C426 C 0.0221 0.93009 0.95412 0.0
C427 C 0.00951 0.94616 0.89593 0.0
C428 C 0.01048 0.90649 0.97832 0.0
C429 C 0.98624 0.89867 0.94422 0.0
C430 C 0.97313 0.91527 0.88903 0.0
C431 C 0.9847 0.93874 0.86483 0.0
H432 H 0.66882 0.91454 0.07948 0.0
H433 H 0.71919 0.9716 0.96105 0.0
H434 H 0.63184 0.92973 0.99544 0.0
H435 H 0.68283 0.98699 0.87964 0.0
H436 H 0.61479 0.0165 0.74624 0.0
H437 H 0.64877 0.9859 0.78564 0.0
H438 H 0.60708 0.96915 0.01318 0.0
H439 H 0.5717 -0.00123 0.96984 0.0
C440 C 0.67225 0.92952 0.03305 0.0
C441 C 0.69669 0.94239 0.02854 0.0
C442 C 0.65101 0.9385 0.98591 0.0
C443 C 0.65408 0.96031 0.93341 0.0
C444 C 0.67952 0.97026 0.91969 0.0
C445 C 0.70066 0.96124 0.96635 0.0
C446 C 0.613 0.00662 0.80546 0.0
C447 C 0.59113 0.01087 0.85701 0.0
C448 C 0.63242 0.98881 0.82756 0.0
C449 C 0.63099 0.97531 0.90312 0.0
C450 C 0.60874 0.97903 0.95402 0.0
C451 C 0.58877 0.99642 0.93048 0.0
H452 H 0.60508 0.67424 0.05139 0.0
H453 H 0.5292 0.71054 0.01732 0.0
H454 H 0.58913 0.63453 0.98279 0.0
H455 H 0.51311 0.67086 0.94917 0.0
H456 H 0.4852 0.58559 0.98411 0.0
H457 H 0.50514 0.6274 0.02534 0.0
H458 H 0.56911 0.61419 0.85464 0.0
H459 H 0.5493 0.57312 0.8128 0.0
C460 C 0.58543 0.67408 0.02541 0.0
C461 C 0.56825 0.69509 0.03939 0.0
C462 C 0.57622 0.65139 0.98711 0.0
C463 C 0.54971 0.64957 0.96363 0.0
C464 C 0.53347 0.67175 0.96885 0.0
C465 C 0.54278 0.69453 0.00621 0.0
C466 C 0.50384 0.59137 0.95729 0.0
C467 C 0.51608 0.57569 0.89746 0.0
C468 C 0.515 0.61537 0.97958 0.0
C469 C 0.53841 0.62397 0.94194 0.0
C470 C 0.55116 0.60785 0.88474 0.0
C471 C 0.54004 0.58401 0.86237 0.0
H472 H 0.81128 0.53948 0.94959 0.0
H473 H 0.85278 0.60804 0.03625 0.0
H474 H 0.85151 0.52301 0.88743 0.0
H475 H 0.89332 0.59115 0.97807 0.0
H476 H 0.96446 0.55075 0.86691 0.0
H477 H 0.92364 0.57449 0.88321 0.0
H478 H 0.88579 0.50332 0.96783 0.0
H479 H 0.92641 0.47909 0.94629 0.0
C480 C 0.82867 0.55178 0.9513 0.0
C481 C 0.82931 0.57451 0.00042 0.0
C482 C 0.85192 0.54198 0.91773 0.0
C483 C 0.87589 0.55494 0.93269 0.0
C484 C 0.87536 0.58028 0.96718 0.0
C485 C 0.85201 0.59022 -0.00029 0.0
C486 C 0.9476 0.54017 0.8905 0.0
C487 C 0.94869 0.51284 0.90415 0.0
C488 C 0.92405 0.55384 0.89912 0.0
C489 C 0.90115 0.54067 0.92387 0.0
C490 C 0.9028 0.51385 0.9449 0.0
C491 C 0.92629 0.50005 0.93484 0.0
H492 H 0.0833 0.21043 0.04013 0.0
H493 H 0.0326 0.17211 0.21696 0.0
H494 H 0.0728 0.17601 0.93778 0.0
H495 H 0.02282 0.13774 0.11683 0.0
H496 H 0.03482 0.06517 0.95418 0.0
H497 H 0.0486 0.10054 0.04817 0.0
H498 H 0.03283 0.15776 0.85729 0.0
H499 H 0.01867 0.12262 0.7643 0.0
C500 C 0.06957 0.19503 0.05651 0.0
C501 C 0.05883 0.19403 0.13656 0.0
C502 C 0.06377 0.17516 -0.00156 0.0
C503 C 0.04741 0.15381 0.01984 0.0
C504 C 0.03596 0.1535 0.09885 0.0
C505 C 0.04137 0.17339 0.1559 0.0
C506 C 0.03465 0.08526 0.93207 0.0
C507 C 0.02545 0.09109 0.85208 0.0
C508 C 0.04238 0.10554 0.98594 0.0
C509 C 0.04164 0.13204 0.96033 0.0
C510 C 0.03372 0.13764 0.87891 0.0
C511 C 0.02547 0.11748 0.82584 0.0
H512 H 0.3424 0.11121 0.0932 0.0
H513 H 0.31272 0.03196 0.09442 0.0
H514 H 0.38078 0.09701 0.0148 0.0
H515 H 0.35066 0.01767 0.01369 0.0
H516 H 0.43556 0.99317 0.99237 0.0
H517 H 0.3955 0.011 0.05239 0.0
H518 H 0.40236 0.0794 0.8954 0.0
H519 H 0.44313 0.06175 0.83723 0.0
C520 C 0.34338 0.09101 0.07244 0.0
C521 C 0.32442 0.07276 0.09936 0.0
C522 C 0.3656 0.08274 0.02836 0.0
C523 C 0.36933 0.05602 0.00986 0.0
C524 C 0.34888 0.03829 0.02897 0.0
C525 C 0.32669 0.04657 0.07328 0.0
C526 C 0.4288 0.01228 0.97189 0.0
C527 C 0.44255 0.02606 0.91015 0.0
C528 C 0.40553 0.02232 0.00522 0.0
C529 C 0.3951 0.04632 0.97703 0.0
C530 C 0.40967 0.06083 0.91849 0.0
C531 C 0.4332 0.05084 0.88561 0.0
H532 H 0.42962 0.34772 0.15038 0.0
H533 H 0.49724 0.30462 0.06413 0.0
H534 H 0.43913 0.38288 0.05238 0.0
H535 H 0.50673 0.33976 0.96513 0.0
H536 H 0.50779 0.39904 0.75723 0.0
H537 H 0.49244 0.36285 0.84262 0.0
H538 H 0.47183 0.41758 0.03624 0.0
H539 H 0.48679 0.45417 0.94904 0.0
C540 C 0.44621 0.34548 0.10892 0.0
C541 C 0.46269 0.32329 0.11507 0.0
C542 C 0.45183 0.36582 0.05342 0.0
C543 C 0.47391 0.36445 0.00145 0.0
C544 C 0.48945 0.34148 0.00383 0.0
C545 C 0.48392 0.32116 0.06006 0.0
C546 C 0.49989 0.40344 0.81797 0.0
C547 C 0.4988 0.42952 0.84671 0.0
C548 C 0.49118 0.3826 0.86712 0.0
C549 C 0.48122 0.3871 0.94693 0.0
C550 C 0.47922 0.41333 0.97482 0.0
C551 C 0.48781 0.43434 0.92503 0.0
H552 H 0.21873 0.49265 0.08329 0.0
H553 H 0.17348 0.42524 0.16041 0.0
H554 H 0.18444 0.50348 0.98145 0.0
H555 H 0.13907 0.43658 0.062 0.0
H556 H 0.06951 0.48779 0.96338 0.0
H557 H 0.10591 0.47311 0.05228 0.0
H558 H 0.1607 0.4874 0.85325 0.0
H559 H 0.12453 0.50239 0.76552 0.0
C560 C 0.2019 0.47976 0.07708 0.0
C561 C 0.19889 0.45817 0.13052 0.0
C562 C 0.18207 0.48611 0.01942 0.0
C563 C 0.15869 0.47119 0.01483 0.0
C564 C 0.15648 0.4488 0.06495 0.0
C565 C 0.1764 0.4422 0.12091 0.0
C566 C 0.08926 0.4873 0.93837 0.0
C567 C 0.09414 0.49617 0.85748 0.0
C568 C 0.11015 0.479 0.98922 0.0
C569 C 0.13633 0.47922 0.96 0.0
C570 C 0.14095 0.48742 0.87827 0.0
C571 C 0.12017 0.49582 0.82786 0.0
H572 H 0.92384 0.83006 0.3532 0.0
H573 H 0.00555 0.80967 0.32755 0.0
H574 H 0.93583 0.86877 0.43319 0.0
H575 H 0.01783 0.84776 0.41071 0.0
H576 H 0.0356 0.93291 0.45665 0.0
H577 H 0.0206 0.89297 0.38804 0.0
H578 H 0.95256 0.89103 0.54836 0.0
H579 H 0.96713 0.93194 0.61338 0.0
C580 C 0.94433 0.83303 0.3691 0.0
C581 C 0.9637 0.8165 0.3352 0.0
C582 C 0.95131 0.85554 0.41408 0.0
C583 C 0.97792 0.86205 0.42698 0.0
C584 C 0.99716 0.84399 0.40008 0.0
C585 C 0.99013 0.82158 0.35454 0.0
C586 C 0.01704 0.92429 0.47534 0.0
C587 C 0.00231 0.93573 0.53929 0.0
C588 C 0.00866 0.90103 0.43732 0.0
C589 C 0.98565 0.88807 0.46386 0.0
C590 C 0.97032 0.90027 0.52569 0.0
C591 C 0.97851 0.9239 0.56268 0.0
H592 H 0.69571 0.93098 0.36487 0.0
H593 H 0.70235 0.01012 0.27321 0.0
H594 H 0.65752 0.94347 0.4471 0.0
H595 H 0.66447 0.02309 0.35685 0.0
H596 H 0.57749 0.02888 0.41282 0.0
H597 H 0.61841 0.01588 0.34607 0.0
H598 H 0.63732 0.96705 0.55695 0.0
H599 H 0.59572 0.97936 0.62189 0.0
C600 C 0.68975 0.95139 0.36585 0.0
C601 C 0.70231 0.9697 0.31423 0.0
C602 C 0.66765 0.95855 0.41228 0.0
C603 C 0.65745 0.98419 0.40761 0.0
C604 C 0.67135 0.00301 0.36069 0.0
C605 C 0.69349 0.9958 0.31432 0.0
C606 C 0.5901 0.01482 0.44381 0.0
C607 C 0.58318 0.00479 0.52189 0.0
C608 C 0.61385 0.00775 0.40637 0.0
C609 C 0.6316 0.99079 0.44668 0.0
C610 C 0.62417 0.98 0.52364 0.0
C611 C 0.60017 0.98684 0.56063 0.0
H612 H 0.60488 0.68658 0.3394 0.0
H613 H 0.52516 0.71489 0.34524 0.0
H614 H 0.5923 0.64865 0.42228 0.0
H615 H 0.51251 0.67759 0.43157 0.0
H616 H 0.48853 0.59375 0.47421 0.0
H617 H 0.50477 0.63307 0.40547 0.0
H618 H 0.57763 0.62689 0.54235 0.0
H619 H 0.5615 0.58657 0.60808 0.0
C620 C 0.58494 0.68547 0.36274 0.0
C621 C 0.5661 0.70398 0.33669 0.0
C622 C 0.57758 0.66344 0.40951 0.0
C623 C 0.55116 0.65943 0.43213 0.0
C624 C 0.53289 0.67945 0.41327 0.0
C625 C 0.54025 0.70136 0.36581 0.0
C626 C 0.50827 0.60049 0.48803 0.0
C627 C 0.52384 0.58694 0.54577 0.0
C628 C 0.51745 0.6234 0.44988 0.0
C629 C 0.54231 0.63388 0.4698 0.0
C630 C 0.5584 0.61958 0.52511 0.0
C631 C 0.54929 0.59631 0.56242 0.0
H632 H 0.84843 0.52133 0.2101 0.0
H633 H 0.81539 0.57793 0.37896 0.0
H634 H 0.88417 0.51262 0.30716 0.0
H635 H 0.85115 0.56883 0.47788 0.0
H636 H 0.90557 0.51769 0.65555 0.0
H637 H 0.86933 0.53107 0.56562 0.0
H638 H 0.92346 0.53887 0.36127 0.0
H639 H 0.95999 0.52578 0.45238 0.0
C640 C 0.84845 0.53134 0.26935 0.0
C641 C 0.82894 0.55004 0.28765 0.0
C642 C 0.86917 0.52672 0.32419 0.0
C643 C 0.87079 0.54041 0.39945 0.0
C644 C 0.85047 0.55806 0.42011 0.0
C645 C 0.82981 0.563 0.36428 0.0
C646 C 0.90979 0.52279 0.59174 0.0
C647 C 0.93554 0.52065 0.56073 0.0
C648 C 0.88904 0.5305 0.54038 0.0
C649 C 0.89344 0.53572 0.45621 0.0
C650 C 0.91943 0.53468 0.42582 0.0
C651 C 0.94037 0.52745 0.4779 0.0
loop_
_geom_bond_atom_site_label_1
_geom_bond_atom_site_label_2
_geom_bond_distance
_geom_bond_site_symmetry_2
_ccdc_geom_bond_type
H0 C5 0.929 . S
H1 C10 0.931 . S
H2 C8 0.930 1_556 S
N3 N4 1.234 . S
N3 C7 1.453 . S
N4 N3 1.234 . S
C5 H0 0.929 . S
C5 C6 1.373 . S
C5 C7 1.368 . S
C6 C5 1.373 . S
C6 C10 1.397 . S
C7 N3 1.453 . S
C7 C5 1.368 . S
C7 C8 1.373 . S
C8 H2 0.930 1_554 S
C8 C7 1.373 . S
C8 C9 1.371 . S
C9 C8 1.371 . S
C9 C10 1.383 . S
C10 H1 0.931 . S
C10 C6 1.397 . S
C10 C9 1.383 . S
H11 C16 0.929 . S
H12 C21 0.931 . S
H13 C19 0.930 1_556 S
N14 N15 1.234 . S
N14 C18 1.453 . S
N15 N14 1.234 . S
C16 H11 0.929 . S
C16 C17 1.373 . S
C16 C18 1.368 . S
C17 C16 1.373 . S
C17 C21 1.397 . S
C18 N14 1.453 . S
C18 C16 1.368 . S
C18 C19 1.373 . S
C19 H13 0.930 1_554 S
C19 C18 1.373 . S
C19 C20 1.371 . S
C20 C19 1.371 . S
C20 C21 1.383 . S
C21 H12 0.931 . S
C21 C17 1.397 . S
C21 C20 1.383 . S
H22 C27 0.929 . S
H23 C32 0.931 . S
H24 C30 0.930 1_556 S
N25 N26 1.234 . S
N25 C29 1.453 . S
N26 N25 1.234 . S
C27 H22 0.929 . S
C27 C28 1.373 . S
C27 C29 1.368 . S
C28 C27 1.373 . S
C28 C32 1.397 . S
C29 N25 1.453 . S
C29 C27 1.368 . S
C29 C30 1.373 . S
C30 H24 0.930 1_554 S
C30 C29 1.373 . S
C30 C31 1.371 . S
C31 C30 1.371 . S
C31 C32 1.383 . S
C32 H23 0.931 . S
C32 C28 1.397 . S
C32 C31 1.383 . S
H33 C38 0.929 . S
H34 C43 0.931 . S
H35 C41 0.930 1_556 S
N36 N37 1.234 . S
N36 C40 1.453 . S
N37 N36 1.234 . S
C38 H33 0.929 . S
C38 C39 1.373 . S
C38 C40 1.368 . S
C39 C38 1.373 . S
C39 C43 1.397 . S
C40 N36 1.453 . S
C40 C38 1.368 . S
C40 C41 1.373 . S
C41 H35 0.930 1_554 S
C41 C40 1.373 . S
C41 C42 1.371 . S
C42 C41 1.371 . S
C42 C43 1.383 . S
C43 H34 0.931 . S
C43 C39 1.397 . S
C43 C42 1.383 . S
H44 C49 0.929 . S
H45 C54 0.931 . S
H46 C52 0.930 . S
N47 N48 1.234 . S
N47 C51 1.453 . S
N48 N47 1.234 . S
C49 H44 0.929 . S
C49 C50 1.373 . S
C49 C51 1.368 . S
C50 C49 1.373 . S
C50 C54 1.397 . S
C51 N47 1.453 . S
C51 C49 1.368 . S
C51 C52 1.373 . S
C52 H46 0.930 . S
C52 C51 1.373 . S
C52 C53 1.371 . S
C53 C52 1.371 . S
C53 C54 1.383 . S
C54 H45 0.931 . S
C54 C50 1.397 . S
C54 C53 1.383 . S
H55 C60 0.929 . S
H56 C65 0.931 . S
H57 C63 0.930 . S
N58 N59 1.234 . S
N58 C62 1.453 . S
N59 N58 1.234 . S
C60 H55 0.929 . S
C60 C61 1.373 . S
C60 C62 1.368 . S
C61 C60 1.373 . S
C61 C65 1.397 . S
C62 N58 1.453 . S
C62 C60 1.368 . S
C62 C63 1.373 . S
C63 H57 0.930 . S
C63 C62 1.373 . S
C63 C64 1.371 . S
C64 C63 1.371 . S
C64 C65 1.383 . S
C65 H56 0.931 . S
C65 C61 1.397 . S
C65 C64 1.383 . S
H66 C71 0.929 . S
H67 C76 0.931 . S
H68 C74 0.930 . S
N69 N70 1.234 . S
N69 C73 1.453 . S
N70 N69 1.234 . S
C71 H66 0.929 . S
C71 C72 1.373 . S
C71 C73 1.368 . S
C72 C71 1.373 . S
C72 C76 1.397 . S
C73 N69 1.453 . S
C73 C71 1.368 . S
C73 C74 1.373 . S
C74 H68 0.930 . S
C74 C73 1.373 . S
C74 C75 1.371 . S
C75 C74 1.371 . S
C75 C76 1.383 . S
C76 H67 0.931 . S
C76 C72 1.397 . S
C76 C75 1.383 . S
H77 C82 0.929 . S
H78 C87 0.931 . S
H79 C85 0.930 . S
N80 N81 1.234 . S
N80 C84 1.453 . S
N81 N80 1.234 . S
C82 H77 0.929 . S
C82 C83 1.373 . S
C82 C84 1.368 . S
C83 C82 1.373 . S
C83 C87 1.397 . S
C84 N80 1.453 . S
C84 C82 1.368 . S
C84 C85 1.373 . S
C85 H79 0.930 . S
C85 C84 1.373 . S
C85 C86 1.371 . S
C86 C85 1.371 . S
C86 C87 1.383 . S
C87 H78 0.931 . S
C87 C83 1.397 . S
C87 C86 1.383 . S
O88 Mg89 1.990 . S
O88 C102 1.253 . S
Mg89 O88 1.990 . S
Mg89 O92 2.180 1_565 S
Mg89 O93 2.117 . S
Mg89 O107 2.030 . S
O90 Mg91 2.072 1_565 S
O90 C102 1.260 . S
Mg91 O90 2.072 1_545 S
Mg91 O92 2.099 . S
Mg91 O94 2.079 . S
Mg91 O95 2.072 . S
Mg91 O97 2.099 1_455 S
Mg91 O108 2.079 1_545 S
O92 Mg89 2.180 1_545 S
O92 Mg91 2.099 . S
O92 C103 1.279 . S
O93 Mg89 2.117 . S
O93 C103 1.250 1_565 S
O94 Mg91 2.079 . S
O94 C104 1.264 . S
O95 Mg91 2.072 . S
O95 C105 1.260 . S
Mg96 O97 2.180 . S
Mg96 O98 2.030 . S
Mg96 O99 1.990 1_655 S
Mg96 O100 2.117 . S
O97 Mg91 2.099 1_655 S
O97 Mg96 2.180 . S
O97 C106 1.279 . S
O98 Mg96 2.030 . S
O98 C104 1.248 1_655 S
O99 Mg96 1.990 1_455 S
O99 C105 1.253 . S
O100 Mg96 2.117 . S
O100 C106 1.250 . S
C101 O107 1.248 . S
C101 O108 1.264 . S
C102 O88 1.253 . S
C102 O90 1.260 . S
C103 O92 1.279 . S
C103 O93 1.250 1_545 S
C104 O94 1.264 . S
C104 O98 1.248 1_455 S
C105 O95 1.260 . S
C105 O99 1.253 . S
C106 O97 1.279 . S
C106 O100 1.250 . S
O107 Mg89 2.030 . S
O107 C101 1.248 . S
O108 Mg91 2.079 1_565 S
O108 C101 1.264 . S
O109 Mg110 1.990 . S
O109 C123 1.253 1_565 S
Mg110 O109 1.990 . S
Mg110 O113 2.180 . S
Mg110 O114 2.117 . S
Mg110 O128 2.030 . S
O111 Mg112 2.072 . S
O111 C123 1.260 . S
Mg112 O111 2.072 . S
Mg112 O113 2.099 1_545 S
Mg112 O115 2.065 1_545 S
Mg112 O116 2.072 . S
Mg112 O118 2.099 . S
Mg112 O129 2.079 . S
O113 Mg110 2.180 . S
O113 Mg112 2.099 1_565 S
O113 C124 1.279 . S
O114 Mg110 2.117 . S
O114 C124 1.250 . S
O115 Mg112 2.065 1_565 S
O115 C125 1.257 1_565 S
O116 Mg112 2.072 . S
O116 C126 1.260 . S
Mg117 O118 2.180 . S
Mg117 O119 2.030 . S
Mg117 O120 1.990 . S
Mg117 O121 2.117 . S
O118 Mg112 2.099 . S
O118 Mg117 2.180 . S
O118 C127 1.279 . S
O119 Mg117 2.030 . S
O119 C125 1.248 . S
O120 Mg117 1.990 . S
O120 C126 1.253 . S
O121 Mg117 2.117 . S
O121 C127 1.250 . S
C122 O128 1.248 1_545 S
C122 O129 1.264 . S
C123 O109 1.253 1_545 S
C123 O111 1.260 . S
C124 O113 1.279 . S
C124 O114 1.250 . S
C125 O115 1.257 1_545 S
C125 O119 1.248 . S
C126 O116 1.260 . S
C126 O120 1.253 . S
C127 O118 1.279 . S
C127 O121 1.250 . S
O128 Mg110 2.030 . S
O128 C122 1.248 1_565 S
O129 Mg112 2.079 . S
O129 C122 1.264 . S
O130 Mg131 1.990 . S
O130 C144 1.253 . S
Mg131 O130 1.990 . S
Mg131 O134 2.180 . S
Mg131 O135 2.117 . S
Mg131 O149 2.030 . S
O132 Mg133 2.072 . S
O132 C144 1.260 . S
Mg133 O132 2.072 . S
Mg133 O134 2.099 . S
Mg133 O136 2.079 . S
Mg133 O137 2.072 . S
Mg133 O139 2.099 . S
Mg133 O150 2.079 . S
O134 Mg131 2.180 . S
O134 Mg133 2.099 . S
O134 C145 1.279 . S
O135 Mg131 2.117 . S
O135 C145 1.250 . S
O136 Mg133 2.079 . S
O136 C146 1.264 . S
O137 Mg133 2.072 . S
O137 C147 1.260 . S
Mg138 O139 2.180 . S
Mg138 O140 2.030 . S
Mg138 O141 1.990 . S
Mg138 O142 2.117 . S
O139 Mg133 2.099 . S
O139 Mg138 2.180 . S
O139 C148 1.279 . S
O140 Mg138 2.030 . S
O140 C146 1.248 . S
O141 Mg138 1.990 . S
O141 C147 1.253 . S
O142 Mg138 2.117 . S
O142 C148 1.250 . S
C143 O149 1.248 . S
C143 O150 1.264 . S
C144 O130 1.253 . S
C144 O132 1.260 . S
C145 O134 1.279 . S
C145 O135 1.250 . S
C146 O136 1.264 . S
C146 O140 1.248 . S
C147 O137 1.260 . S
C147 O141 1.253 . S
C148 O139 1.279 . S
C148 O142 1.250 . S
O149 Mg131 2.030 . S
O149 C143 1.248 . S
O150 Mg133 2.079 . S
O150 C143 1.264 . S
O151 Mg152 1.990 . S
O151 C165 1.253 . S
Mg152 O151 1.990 . S
Mg152 O155 2.180 1_655 S
Mg152 O156 2.117 . S
Mg152 O170 2.030 . S
O153 Mg154 2.072 1_655 S
O153 C165 1.260 . S
Mg154 O153 2.072 1_455 S
Mg154 O155 2.099 . S
Mg154 O157 2.079 . S
Mg154 O158 2.072 . S
Mg154 O160 2.099 . S
Mg154 O171 2.079 1_455 S
O155 Mg152 2.180 1_455 S
O155 Mg154 2.099 . S
O155 C166 1.279 . S
O156 Mg152 2.117 . S
O156 C166 1.250 1_655 S
O157 Mg154 2.079 . S
O157 C167 1.264 . S
O158 Mg154 2.072 . S
O158 C168 1.260 . S
Mg159 O160 2.180 . S
Mg159 O161 2.030 . S
Mg159 O162 1.990 . S
Mg159 O163 2.117 . S
O160 Mg154 2.099 . S
O160 Mg159 2.180 . S
O160 C169 1.279 . S
O161 Mg159 2.030 . S
O161 C167 1.248 . S
O162 Mg159 1.990 . S
O162 C168 1.253 . S
O163 Mg159 2.117 . S
O163 C169 1.250 . S
C164 O170 1.248 . S
C164 O171 1.264 . S
C165 O151 1.253 . S
C165 O153 1.260 . S
C166 O155 1.279 . S
C166 O156 1.250 1_455 S
C167 O157 1.264 . S
C167 O161 1.248 . S
C168 O158 1.260 . S
C168 O162 1.253 . S
C169 O160 1.279 . S
C169 O163 1.250 . S
O170 Mg152 2.030 . S
O170 C164 1.248 . S
O171 Mg154 2.079 1_655 S
O171 C164 1.264 . S
H172 C180 0.950 . S
H173 C185 0.950 . S
H174 C182 0.950 . S
H175 C184 0.950 . S
H176 C186 0.950 1_565 S
H177 C188 0.950 . S
H178 C190 0.950 . S
H179 C191 0.950 . S
C180 H172 0.950 . S
C180 C181 1.386 . S
C180 C182 1.391 . S
C181 C180 1.386 . S
C181 C185 1.393 . S
C182 H174 0.950 . S
C182 C180 1.391 . S
C182 C183 1.400 . S
C183 C182 1.400 . S
C183 C184 1.398 . S
C183 C189 1.491 . S
C184 H175 0.950 . S
C184 C183 1.398 . S
C184 C185 1.391 . S
C185 H173 0.950 . S
C185 C181 1.393 . S
C185 C184 1.391 . S
C186 H176 0.950 1_545 S
C186 C187 1.386 . S
C186 C188 1.391 . S
C187 C186 1.386 . S
C187 C191 1.393 . S
C188 H177 0.950 . S
C188 C186 1.391 . S
C188 C189 1.400 . S
C189 C183 1.491 . S
C189 C188 1.400 . S
C189 C190 1.398 . S
C190 H178 0.950 . S
C190 C189 1.398 . S
C190 C191 1.391 . S
C191 H179 0.950 . S
C191 C187 1.393 . S
C191 C190 1.391 . S
H192 C200 0.950 . S
H193 C205 0.950 . S
H194 C202 0.950 . S
H195 C204 0.950 . S
H196 C206 0.950 . S
H197 C208 0.950 . S
H198 C210 0.950 . S
H199 C211 0.950 . S
C200 H192 0.950 . S
C200 C201 1.386 . S
C200 C202 1.391 . S
C201 C200 1.386 . S
C201 C205 1.393 . S
C202 H194 0.950 . S
C202 C200 1.391 . S
C202 C203 1.400 . S
C203 C202 1.400 . S
C203 C204 1.398 . S
C203 C209 1.491 . S
C204 H195 0.950 . S
C204 C203 1.398 . S
C204 C205 1.391 . S
C205 H193 0.950 . S
C205 C201 1.393 . S
C205 C204 1.391 . S
C206 H196 0.950 . S
C206 C207 1.386 . S
C206 C208 1.391 . S
C207 C206 1.386 . S
C207 C211 1.393 . S
C208 H197 0.950 . S
C208 C206 1.391 . S
C208 C209 1.400 . S
C209 C203 1.491 . S
C209 C208 1.400 . S
C209 C210 1.398 . S
C210 H198 0.950 . S
C210 C209 1.398 . S
C210 C211 1.391 . S
C211 H199 0.950 . S
C211 C207 1.393 . S
C211 C210 1.391 . S
H212 C220 0.950 . S
H213 C225 0.950 . S
H214 C222 0.950 . S
H215 C224 0.950 . S
H216 C226 0.950 . S
H217 C228 0.950 . S
H218 C230 0.950 . S
H219 C231 0.950 . S
C220 H212 0.950 . S
C220 C221 1.386 . S
C220 C222 1.391 . S
C221 C220 1.386 . S
C221 C225 1.393 . S
C222 H214 0.950 . S
C222 C220 1.391 . S
C222 C223 1.400 . S
C223 C222 1.400 . S
C223 C224 1.398 . S
C223 C229 1.491 . S
C224 H215 0.950 . S
C224 C223 1.398 . S
C224 C225 1.391 . S
C225 H213 0.950 . S
C225 C221 1.393 . S
C225 C224 1.391 . S
C226 H216 0.950 . S
C226 C227 1.386 . S
C226 C228 1.391 . S
C227 C226 1.386 . S
C227 C231 1.393 . S
C228 H217 0.950 . S
C228 C226 1.391 . S
C228 C229 1.400 . S
C229 C223 1.491 . S
C229 C228 1.400 . S
C229 C230 1.398 . S
C230 H218 0.950 . S
C230 C229 1.398 . S
C230 C231 1.391 . S
C231 H219 0.950 . S
C231 C227 1.393 . S
C231 C230 1.391 . S
H232 C240 0.950 . S
H233 C245 0.950 . S
H234 C242 0.950 . S
H235 C244 0.950 . S
H236 C246 0.950 . S
H237 C248 0.950 . S
H238 C250 0.950 . S
H239 C251 0.950 1_655 S
C240 H232 0.950 . S
C240 C241 1.386 . S
C240 C242 1.391 . S
C241 C240 1.386 . S
C241 C245 1.393 . S
C242 H234 0.950 . S
C242 C240 1.391 . S
C242 C243 1.400 . S
C243 C242 1.400 . S
C243 C244 1.398 . S
C243 C249 1.491 . S
C244 H235 0.950 . S
C244 C243 1.398 . S
C244 C245 1.391 . S
C245 H233 0.950 . S
C245 C241 1.393 . S
C245 C244 1.391 . S
C246 H236 0.950 . S
C246 C247 1.386 . S
C246 C248 1.391 . S
C247 C246 1.386 . S
C247 C251 1.393 . S
C248 H237 0.950 . S
C248 C246 1.391 . S
C248 C249 1.400 . S
C249 C243 1.491 . S
C249 C248 1.400 . S
C249 C250 1.398 . S
C250 H238 0.950 . S
C250 C249 1.398 . S
C250 C251 1.391 . S
C251 H239 0.950 1_455 S
C251 C247 1.393 . S
C251 C250 1.391 . S
H252 C260 0.950 . S
H253 C265 0.950 1_545 S
H254 C262 0.950 . S
H255 C264 0.950 . S
H256 C266 0.950 . S
H257 C268 0.950 . S
H258 C270 0.950 . S
H259 C271 0.950 . S
C260 H252 0.950 . S
C260 C261 1.386 . S
C260 C262 1.391 1_554 S
C261 C260 1.386 . S
C261 C265 1.393 1_554 S
C262 H254 0.950 . S
C262 C260 1.391 1_556 S
C262 C263 1.400 . S
C263 C262 1.400 . S
C263 C264 1.398 1_565 S
C263 C269 1.491 . S
C264 H255 0.950 . S
C264 C263 1.398 1_545 S
C264 C265 1.391 1_545 S
C265 H253 0.950 1_565 S
C265 C261 1.393 1_556 S
C265 C264 1.391 1_565 S
C266 H256 0.950 . S
C266 C267 1.386 . S
C266 C268 1.391 . S
C267 C266 1.386 . S
C267 C271 1.393 1_545 S
C268 H257 0.950 . S
C268 C266 1.391 . S
C268 C269 1.400 1_545 S
C269 C263 1.491 . S
C269 C268 1.400 1_565 S
C269 C270 1.398 . S
C270 H258 0.950 . S
C270 C269 1.398 . S
C270 C271 1.391 . S
C271 H259 0.950 . S
C271 C267 1.393 1_565 S
C271 C270 1.391 . S
H272 C280 0.950 . S
H273 C285 0.950 . S
H274 C282 0.950 . S
H275 C284 0.950 . S
H276 C286 0.950 . S
H277 C288 0.950 . S
H278 C290 0.950 . S
H279 C291 0.950 . S
C280 H272 0.950 . S
C280 C281 1.386 1_556 S
C280 C282 1.391 . S
C281 C280 1.386 1_554 S
C281 C285 1.393 . S
C282 H274 0.950 . S
C282 C280 1.391 . S
C282 C283 1.400 . S
C283 C282 1.400 . S
C283 C284 1.398 1_556 S
C283 C289 1.491 . S
C284 H275 0.950 . S
C284 C283 1.398 1_554 S
C284 C285 1.391 . S
C285 H273 0.950 . S
C285 C281 1.393 . S
C285 C284 1.391 . S
C286 H276 0.950 . S
C286 C287 1.386 . S
C286 C288 1.391 . S
C287 C286 1.386 . S
C287 C291 1.393 . S
C288 H277 0.950 . S
C288 C286 1.391 . S
C288 C289 1.400 . S
C289 C283 1.491 . S
C289 C288 1.400 . S
C289 C290 1.398 . S
C290 H278 0.950 . S
C290 C289 1.398 . S
C290 C291 1.391 . S
C291 H279 0.950 . S
C291 C287 1.393 . S
C291 C290 1.391 . S
H292 C300 0.950 1_554 S
H293 C305 0.950 1_554 S
H294 C302 0.950 . S
H295 C304 0.950 . S
H296 C306 0.950 . S
H297 C308 0.950 . S
H298 C310 0.950 . S
H299 C311 0.950 . S
C300 H292 0.950 1_556 S
C300 C301 1.386 1_556 S
C300 C302 1.391 . S
C301 C300 1.386 1_554 S
C301 C305 1.393 1_554 S
C302 H294 0.950 . S
C302 C300 1.391 . S
C302 C303 1.400 . S
C303 C302 1.400 . S
C303 C304 1.398 . S
C303 C309 1.491 . S
C304 H295 0.950 . S
C304 C303 1.398 . S
C304 C305 1.391 . S
C305 H293 0.950 1_556 S
C305 C301 1.393 1_556 S
C305 C304 1.391 . S
C306 H296 0.950 . S
C306 C307 1.386 . S
C306 C308 1.391 . S
C307 C306 1.386 . S
C307 C311 1.393 . S
C308 H297 0.950 . S
C308 C306 1.391 . S
C308 C309 1.400 . S
C309 C303 1.491 . S
C309 C308 1.400 . S
C309 C310 1.398 . S
C310 H298 0.950 . S
C310 C309 1.398 . S
C310 C311 1.391 . S
C311 H299 0.950 . S
C311 C307 1.393 . S
C311 C310 1.391 . S
H312 C320 0.950 . S
H313 C325 0.950 . S
H314 C322 0.950 . S
H315 C324 0.950 . S
H316 C326 0.950 . S
H317 C328 0.949 1_655 S
H318 C330 0.948 1_655 S
H319 C331 0.950 . S
C320 H312 0.950 . S
C320 C321 1.386 . S
C320 C322 1.391 . S
C321 C320 1.386 . S
C321 C325 1.393 1_554 S
C322 H314 0.950 . S
C322 C320 1.391 . S
C322 C323 1.400 1_554 S
C323 C322 1.400 1_556 S
C323 C324 1.398 . S
C323 C329 1.491 . S
C324 H315 0.950 . S
C324 C323 1.398 . S
C324 C325 1.391 . S
C325 H313 0.950 . S
C325 C321 1.393 1_556 S
C325 C324 1.391 . S
C326 H316 0.950 . S
C326 C327 1.386 . S
C326 C328 1.394 . S
C327 C326 1.386 . S
C327 C331 1.393 . S
C328 H317 0.949 1_455 S
C328 C326 1.394 . S
C328 C329 1.399 1_455 S
C329 C323 1.491 . S
C329 C328 1.399 1_655 S
C329 C330 1.396 1_655 S
C330 H318 0.948 1_455 S
C330 C329 1.396 1_455 S
C330 C331 1.394 . S
C331 H319 0.950 . S
C331 C327 1.393 . S
C331 C330 1.394 . S
H332 C340 0.950 . S
H333 C345 0.950 . S
H334 C342 0.950 . S
H335 C344 0.950 . S
H336 C346 0.950 . S
H337 C348 0.950 1_655 S
H338 C350 0.950 . S
H339 C351 0.950 . S
C340 H332 0.950 . S
C340 C341 1.386 . S
C340 C342 1.391 . S
C341 C340 1.386 . S
C341 C345 1.393 . S
C342 H334 0.950 . S
C342 C340 1.391 . S
C342 C343 1.400 . S
C343 C342 1.400 . S
C343 C344 1.398 . S
C343 C349 1.491 . S
C344 H335 0.950 . S
C344 C343 1.398 . S
C344 C345 1.391 . S
C345 H333 0.950 . S
C345 C341 1.393 . S
C345 C344 1.391 . S
C346 H336 0.950 . S
C346 C347 1.386 1_655 S
C346 C348 1.391 1_655 S
C347 C346 1.386 1_455 S
C347 C351 1.393 . S
C348 H337 0.950 1_455 S
C348 C346 1.391 1_455 S
C348 C349 1.400 . S
C349 C343 1.491 . S
C349 C348 1.400 . S
C349 C350 1.398 . S
C350 H338 0.950 . S
C350 C349 1.398 . S
C350 C351 1.391 . S
C351 H339 0.950 . S
C351 C347 1.393 . S
C351 C350 1.391 . S
H352 C360 0.950 . S
H353 C365 0.950 . S
H354 C362 0.950 . S
H355 C364 0.950 . S
H356 C366 0.950 . S
H357 C368 0.950 1_565 S
H358 C370 0.950 . S
H359 C371 0.950 . S
C360 H352 0.950 . S
C360 C361 1.386 . S
C360 C362 1.391 . S
C361 C360 1.386 . S
C361 C365 1.393 . S
C362 H354 0.950 . S
C362 C360 1.391 . S
C362 C363 1.400 . S
C363 C362 1.400 . S
C363 C364 1.398 . S
C363 C369 1.491 . S
C364 H355 0.950 . S
C364 C363 1.398 . S
C364 C365 1.391 . S
C365 H353 0.950 . S
C365 C361 1.393 . S
C365 C364 1.391 . S
C366 H356 0.950 . S
C366 C367 1.386 1_565 S
C366 C368 1.391 1_565 S
C367 C366 1.386 1_545 S
C367 C371 1.393 . S
C368 H357 0.950 1_545 S
C368 C366 1.391 1_545 S
C368 C369 1.400 . S
C369 C363 1.491 . S
C369 C368 1.400 . S
C369 C370 1.398 . S
C370 H358 0.950 . S
C370 C369 1.398 . S
C370 C371 1.391 . S
C371 H359 0.950 . S
C371 C367 1.393 . S
C371 C370 1.391 . S
H372 C380 0.950 . S
H373 C385 0.950 . S
H374 C382 0.950 . S
H375 C384 0.950 . S
H376 C386 0.950 . S
H377 C388 0.950 . S
H378 C390 0.950 . S
H379 C391 0.950 . S
C380 H372 0.950 . S
C380 C381 1.386 . S
C380 C382 1.391 . S
C381 C380 1.386 . S
C381 C385 1.393 . S
C382 H374 0.950 . S
C382 C380 1.391 . S
C382 C383 1.400 . S
C383 C382 1.400 . S
C383 C384 1.398 . S
C383 C389 1.491 . S
C384 H375 0.950 . S
C384 C383 1.398 . S
C384 C385 1.391 . S
C385 H373 0.950 . S
C385 C381 1.393 . S
C385 C384 1.391 . S
C386 H376 0.950 . S
C386 C387 1.386 . S
C386 C388 1.391 . S
C387 C386 1.386 . S
C387 C391 1.393 . S
C388 H377 0.950 . S
C388 C386 1.391 . S
C388 C389 1.400 . S
C389 C383 1.491 . S
C389 C388 1.400 . S
C389 C390 1.398 . S
C390 H378 0.950 . S
C390 C389 1.398 . S
C390 C391 1.391 . S
C391 H379 0.950 . S
C391 C387 1.393 . S
C391 C390 1.391 . S
H392 C400 0.950 . S
H393 C405 0.950 . S
H394 C402 0.950 . S
H395 C404 0.950 . S
H396 C406 0.950 . S
H397 C408 0.950 . S
H398 C410 0.950 . S
H399 C411 0.950 . S
C400 H392 0.950 . S
C400 C401 1.386 . S
C400 C402 1.391 . S
C401 C400 1.386 . S
C401 C405 1.393 . S
C402 H394 0.950 . S
C402 C400 1.391 . S
C402 C403 1.400 . S
C403 C402 1.400 . S
C403 C404 1.398 . S
C403 C409 1.491 . S
C404 H395 0.950 . S
C404 C403 1.398 . S
C404 C405 1.391 . S
C405 H393 0.950 . S
C405 C401 1.393 . S
C405 C404 1.391 . S
C406 H396 0.950 . S
C406 C407 1.386 . S
C406 C408 1.391 . S
C407 C406 1.386 . S
C407 C411 1.393 . S
C408 H397 0.950 . S
C408 C406 1.391 . S
C408 C409 1.400 . S
C409 C403 1.491 . S
C409 C408 1.400 . S
C409 C410 1.398 . S
C410 H398 0.950 . S
C410 C409 1.398 . S
C410 C411 1.391 . S
C411 H399 0.950 . S
C411 C407 1.393 . S
C411 C410 1.391 . S
H412 C420 0.950 . S
H413 C425 0.950 . S
H414 C422 0.950 . S
H415 C424 0.950 1_455 S
H416 C426 0.950 . S
H417 C428 0.950 1_554 S
H418 C430 0.950 . S
H419 C431 0.950 1_655 S
C420 H412 0.950 . S
C420 C421 1.386 1_556 S
C420 C422 1.391 . S
C421 C420 1.386 1_554 S
C421 C425 1.393 . S
C422 H414 0.950 . S
C422 C420 1.391 . S
C422 C423 1.400 . S
C423 C422 1.400 . S
C423 C424 1.398 1_556 S
C423 C429 1.491 1_655 S
C424 H415 0.950 1_655 S
C424 C423 1.398 1_554 S
C424 C425 1.391 . S
C425 H413 0.950 . S
C425 C421 1.393 . S
C425 C424 1.391 . S
C426 H416 0.950 . S
C426 C427 1.386 . S
C426 C428 1.391 . S
C427 C426 1.386 . S
C427 C431 1.393 . S
C428 H417 0.950 1_556 S
C428 C426 1.391 . S
C428 C429 1.400 . S
C429 C423 1.491 1_455 S
C429 C428 1.400 . S
C429 C430 1.398 1_455 S
C430 H418 0.950 . S
C430 C429 1.398 1_655 S
C430 C431 1.391 1_655 S
C431 H419 0.950 1_455 S
C431 C427 1.393 . S
C431 C430 1.391 1_455 S
H432 C440 0.950 . S
H433 C445 0.950 . S
H434 C442 0.950 . S
H435 C444 0.950 1_545 S
H436 C446 0.950 . S
H437 C448 0.950 . S
H438 C450 0.950 . S
H439 C451 0.950 . S
C440 H432 0.950 . S
C440 C441 1.386 . S
C440 C442 1.391 . S
C441 C440 1.386 . S
C441 C445 1.393 1_554 S
C442 H434 0.950 . S
C442 C440 1.391 . S
C442 C443 1.400 1_554 S
C443 C442 1.400 1_556 S
C443 C444 1.398 . S
C443 C449 1.491 . S
C444 H435 0.950 1_565 S
C444 C443 1.398 . S
C444 C445 1.391 . S
C445 H433 0.950 . S
C445 C441 1.393 1_556 S
C445 C444 1.391 . S
C446 H436 0.950 . S
C446 C447 1.386 . S
C446 C448 1.391 . S
C447 C446 1.386 . S
C447 C451 1.393 1_545 S
C448 H437 0.950 . S
C448 C446 1.391 . S
C448 C449 1.400 1_545 S
C449 C443 1.491 . S
C449 C448 1.400 1_565 S
C449 C450 1.398 . S
C450 H438 0.950 . S
C450 C449 1.398 . S
C450 C451 1.391 . S
C451 H439 0.950 . S
C451 C447 1.393 1_565 S
C451 C450 1.391 . S
H452 C460 0.950 . S
H453 C465 0.950 . S
H454 C462 0.950 . S
H455 C464 0.950 . S
H456 C466 0.950 . S
H457 C468 0.950 . S
H458 C470 0.950 . S
H459 C471 0.950 . S
C460 H452 0.950 . S
C460 C461 1.386 1_556 S
C460 C462 1.391 . S
C461 C460 1.386 1_554 S
C461 C465 1.393 . S
C462 H454 0.950 . S
C462 C460 1.391 . S
C462 C463 1.400 . S
C463 C462 1.400 . S
C463 C464 1.398 1_556 S
C463 C469 1.491 . S
C464 H455 0.950 . S
C464 C463 1.398 1_554 S
C464 C465 1.391 . S
C465 H453 0.950 . S
C465 C461 1.393 . S
C465 C464 1.391 . S
C466 H456 0.950 . S
C466 C467 1.386 . S
C466 C468 1.391 . S
C467 C466 1.386 . S
C467 C471 1.393 . S
C468 H457 0.950 . S
C468 C466 1.391 . S
C468 C469 1.400 . S
C469 C463 1.491 . S
C469 C468 1.400 . S
C469 C470 1.398 . S
C470 H458 0.950 . S
C470 C469 1.398 . S
C470 C471 1.391 . S
C471 H459 0.950 . S
C471 C467 1.393 . S
C471 C470 1.391 . S
H472 C480 0.950 1_554 S
H473 C485 0.950 . S
H474 C482 0.950 . S
H475 C484 0.950 . S
H476 C486 0.950 . S
H477 C488 0.950 . S
H478 C490 0.950 . S
H479 C491 0.950 . S
C480 H472 0.950 1_556 S
C480 C481 1.386 1_556 S
C480 C482 1.391 . S
C481 C480 1.386 1_554 S
C481 C485 1.393 1_554 S
C482 H474 0.950 . S
C482 C480 1.391 . S
C482 C483 1.400 . S
C483 C482 1.400 . S
C483 C484 1.398 . S
C483 C489 1.491 . S
C484 H475 0.950 . S
C484 C483 1.398 . S
C484 C485 1.391 . S
C485 H473 0.950 . S
C485 C481 1.393 1_556 S
C485 C484 1.391 . S
C486 H476 0.950 . S
C486 C487 1.386 . S
C486 C488 1.391 . S
C487 C486 1.386 . S
C487 C491 1.393 . S
C488 H477 0.950 . S
C488 C486 1.391 . S
C488 C489 1.400 . S
C489 C483 1.491 . S
C489 C488 1.400 . S
C489 C490 1.398 . S
C490 H478 0.950 . S
C490 C489 1.398 . S
C490 C491 1.391 . S
C491 H479 0.950 . S
C491 C487 1.393 . S
C491 C490 1.391 . S
H492 C500 0.950 . S
H493 C505 0.950 . S
H494 C502 0.950 1_556 S
H495 C504 0.950 . S
H496 C506 0.950 1_554 S
H497 C508 0.950 . S
H498 C510 0.950 . S
H499 C511 0.950 . S
C500 H492 0.950 . S
C500 C501 1.386 . S
C500 C502 1.391 . S
C501 C500 1.386 . S
C501 C505 1.393 . S
C502 H494 0.950 1_554 S
C502 C500 1.391 . S
C502 C503 1.400 . S
C503 C502 1.400 . S
C503 C504 1.398 . S
C503 C509 1.491 . S
C504 H495 0.950 . S
C504 C503 1.398 . S
C504 C505 1.391 . S
C505 H493 0.950 . S
C505 C501 1.393 . S
C505 C504 1.391 . S
C506 H496 0.950 1_556 S
C506 C507 1.386 . S
C506 C508 1.391 1_556 S
C507 C506 1.386 . S
C507 C511 1.393 . S
C508 H497 0.950 . S
C508 C506 1.391 1_554 S
C508 C509 1.400 . S
C509 C503 1.491 . S
C509 C508 1.400 . S
C509 C510 1.398 1_554 S
C510 H498 0.950 . S
C510 C509 1.398 1_556 S
C510 C511 1.391 . S
C511 H499 0.950 . S
C511 C507 1.393 . S
C511 C510 1.391 . S
H512 C520 0.950 . S
H513 C525 0.950 . S
H514 C522 0.950 . S
H515 C524 0.950 . S
H516 C526 0.950 1_565 S
H517 C528 0.971 1_554 S
H518 C530 0.950 . S
H519 C531 0.950 . S
C520 H512 0.950 . S
C520 C521 1.386 . S
C520 C522 1.391 . S
C521 C520 1.386 . S
C521 C525 1.393 . S
C522 H514 0.950 . S
C522 C520 1.391 . S
C522 C523 1.400 . S
C523 C522 1.400 . S
C523 C524 1.398 . S
C523 C529 1.491 . S
C524 H515 0.950 . S
C524 C523 1.398 . S
C524 C525 1.391 . S
C525 H513 0.950 . S
C525 C521 1.393 . S
C525 C524 1.391 . S
C526 H516 0.950 1_545 S
C526 C527 1.386 . S
C526 C528 1.391 . S
C527 C526 1.386 . S
C527 C531 1.393 . S
C528 H517 0.971 1_556 S
C528 C526 1.391 . S
C528 C529 1.400 1_556 S
C529 C523 1.491 . S
C529 C528 1.400 1_554 S
C529 C530 1.398 1_554 S
C530 H518 0.950 . S
C530 C529 1.398 1_556 S
C530 C531 1.391 . S
C531 H519 0.950 . S
C531 C527 1.393 . S
C531 C530 1.391 . S
H532 C540 0.950 . S
H533 C545 0.950 . S
H534 C542 0.950 . S
H535 C544 0.950 1_556 S
H536 C546 0.950 . S
H537 C548 0.950 . S
H538 C550 0.950 . S
H539 C551 0.955 . S
C540 H532 0.950 . S
C540 C541 1.386 . S
C540 C542 1.391 . S
C541 C540 1.386 . S
C541 C545 1.393 . S
C542 H534 0.950 . S
C542 C540 1.391 . S
C542 C543 1.400 . S
C543 C542 1.400 . S
C543 C544 1.398 . S
C543 C549 1.491 . S
C544 H535 0.950 1_554 S
C544 C543 1.398 . S
C544 C545 1.391 . S
C545 H533 0.950 . S
C545 C541 1.393 . S
C545 C544 1.391 . S
C546 H536 0.950 . S
C546 C547 1.386 . S
C546 C548 1.391 . S
C547 C546 1.386 . S
C547 C551 1.393 . S
C548 H537 0.950 . S
C548 C546 1.391 . S
C548 C549 1.400 1_556 S
C549 C543 1.491 . S
C549 C548 1.400 1_554 S
C549 C550 1.398 . S
C550 H538 0.950 . S
C550 C549 1.398 . S
C550 C551 1.391 1_554 S
C551 H539 0.955 . S
C551 C547 1.393 . S
C551 C550 1.391 1_556 S
H552 C560 0.950 . S
H553 C565 0.950 . S
H554 C562 0.950 1_556 S
H555 C564 0.950 . S
H556 C566 0.950 1_554 S
H557 C568 0.950 . S
H558 C570 0.950 . S
H559 C571 0.950 . S
C560 H552 0.950 . S
C560 C561 1.386 . S
C560 C562 1.391 . S
C561 C560 1.386 . S
C561 C565 1.393 . S
C562 H554 0.950 1_554 S
C562 C560 1.391 . S
C562 C563 1.400 . S
C563 C562 1.400 . S
C563 C564 1.398 . S
C563 C569 1.491 . S
C564 H555 0.950 . S
C564 C563 1.398 . S
C564 C565 1.391 . S
C565 H553 0.950 . S
C565 C561 1.393 . S
C565 C564 1.391 . S
C566 H556 0.950 1_556 S
C566 C567 1.386 . S
C566 C568 1.391 1_556 S
C567 C566 1.386 . S
C567 C571 1.393 . S
C568 H557 0.950 . S
C568 C566 1.391 1_554 S
C568 C569 1.400 . S
C569 C563 1.491 . S
C569 C568 1.400 . S
C569 C570 1.398 1_554 S
C570 H558 0.950 . S
C570 C569 1.398 1_556 S
C570 C571 1.391 . S
C571 H559 0.950 . S
C571 C567 1.393 . S
C571 C570 1.391 . S
H572 C580 0.950 . S
H573 C585 0.950 . S
H574 C582 0.950 . S
H575 C584 0.950 . S
H576 C586 0.950 . S
H577 C588 0.950 . S
H578 C590 0.950 . S
H579 C591 0.950 . S
C580 H572 0.950 . S
C580 C581 1.386 . S
C580 C582 1.391 . S
C581 C580 1.386 . S
C581 C585 1.393 1_655 S
C582 H574 0.950 . S
C582 C580 1.391 . S
C582 C583 1.400 . S
C583 C582 1.400 . S
C583 C584 1.398 1_655 S
C583 C589 1.491 . S
C584 H575 0.950 . S
C584 C583 1.398 1_455 S
C584 C585 1.391 . S
C585 H573 0.950 . S
C585 C581 1.393 1_455 S
C585 C584 1.391 . S
C586 H576 0.950 . S
C586 C587 1.386 1_455 S
C586 C588 1.391 . S
C587 C586 1.386 1_655 S
C587 C591 1.393 . S
C588 H577 0.950 . S
C588 C586 1.391 . S
C588 C589 1.400 1_455 S
C589 C583 1.491 . S
C589 C588 1.400 1_655 S
C589 C590 1.398 . S
C590 H578 0.950 . S
C590 C589 1.398 . S
C590 C591 1.391 . S
C591 H579 0.950 . S
C591 C587 1.393 . S
C591 C590 1.391 . S
H592 C600 0.950 . S
H593 C605 0.950 . S
H594 C602 0.950 . S
H595 C604 0.950 1_545 S
H596 C606 0.968 . S
H597 C608 0.950 1_545 S
H598 C610 0.950 . S
H599 C611 0.950 . S
C600 H592 0.950 . S
C600 C601 1.386 . S
C600 C602 1.391 . S
C601 C600 1.386 . S
C601 C605 1.393 . S
C602 H594 0.950 . S
C602 C600 1.391 . S
C602 C603 1.400 . S
C603 C602 1.400 . S
C603 C604 1.398 . S
C603 C609 1.491 . S
C604 H595 0.950 1_565 S
C604 C603 1.398 . S
C604 C605 1.391 . S
C605 H593 0.950 . S
C605 C601 1.393 . S
C605 C604 1.391 . S
C606 H596 0.968 . S
C606 C607 1.372 1_545 S
C606 C608 1.388 1_545 S
C607 C606 1.372 1_565 S
C607 C611 1.393 . S
C608 H597 0.950 1_565 S
C608 C606 1.388 1_565 S
C608 C609 1.400 . S
C609 C603 1.491 . S
C609 C608 1.400 . S
C609 C610 1.398 . S
C610 H598 0.950 . S
C610 C609 1.398 . S
C610 C611 1.391 . S
C611 H599 0.950 . S
C611 C607 1.393 . S
C611 C610 1.391 . S
H612 C620 0.950 . S
H613 C625 0.950 . S
H614 C622 0.950 . S
H615 C624 0.950 . S
H616 C626 0.950 . S
H617 C628 0.950 . S
H618 C630 0.950 . S
H619 C631 0.950 . S
C620 H612 0.950 . S
C620 C621 1.386 . S
C620 C622 1.391 . S
C621 C620 1.386 . S
C621 C625 1.393 . S
C622 H614 0.950 . S
C622 C620 1.391 . S
C622 C623 1.400 . S
C623 C622 1.400 . S
C623 C624 1.398 . S
C623 C629 1.491 . S
C624 H615 0.950 . S
C624 C623 1.398 . S
C624 C625 1.391 . S
C625 H613 0.950 . S
C625 C621 1.393 . S
C625 C624 1.391 . S
C626 H616 0.950 . S
C626 C627 1.386 . S
C626 C628 1.391 . S
C627 C626 1.386 . S
C627 C631 1.393 . S
C628 H617 0.950 . S
C628 C626 1.391 . S
C628 C629 1.400 . S
C629 C623 1.491 . S
C629 C628 1.400 . S
C629 C630 1.398 . S
C630 H618 0.950 . S
C630 C629 1.398 . S
C630 C631 1.391 . S
C631 H619 0.950 . S
C631 C627 1.393 . S
C631 C630 1.391 . S
H632 C640 0.950 . S
H633 C645 0.950 . S
H634 C642 0.950 . S
H635 C644 0.950 . S
H636 C646 0.950 . S
H637 C648 0.950 . S
H638 C650 0.950 . S
H639 C651 0.950 . S
C640 H632 0.950 . S
C640 C641 1.386 . S
C640 C642 1.391 . S
C641 C640 1.386 . S
C641 C645 1.393 . S
C642 H634 0.950 . S
C642 C640 1.391 . S
C642 C643 1.400 . S
C643 C642 1.400 . S
C643 C644 1.398 . S
C643 C649 1.491 . S
C644 H635 0.950 . S
C644 C643 1.398 . S
C644 C645 1.391 . S
C645 H633 0.950 . S
C645 C641 1.393 . S
C645 C644 1.391 . S
C646 H636 0.950 . S
C646 C647 1.386 . S
C646 C648 1.391 . S
C647 C646 1.386 . S
C647 C651 1.393 . S
C648 H637 0.950 . S
C648 C646 1.391 . S
C648 C649 1.400 . S
C649 C643 1.491 . S
C649 C648 1.400 . S
C649 C650 1.398 . S
C650 H638 0.950 . S
C650 C649 1.398 . S
C650 C651 1.391 . S
C651 H639 0.950 . S
C651 C647 1.393 . S
C651 C650 1.391 . S
C181 N70 1.553 . S
C187 C103 1.438 . S
C207 C127 1.433 . S
C201 N81 1.557 . S
C227 C148 1.401 . S
C221 N48 1.558 . S
C247 C166 1.420 . S
C241 N59 1.537 . S
C267 C106 1.329 . S
C261 N26 1.476 . S
C281 N37 1.478 . S
C287 C124 1.364 . S
C301 N4 1.473 . S
C307 C145 1.339 . S
C321 N15 1.485 . S
C327 C169 1.322 . S
C347 C104 0.667 . S
C341 C64 0.674 . S
C367 C122 0.664 . S
C361 C75 0.677 . S
C387 C143 0.662 . S
C381 C86 0.660 . S
C401 C53 0.621 . S
C407 C167 0.628 . S
C421 C20 0.732 . S
C427 C102 0.715 . S
C447 C126 0.734 . S
C441 C31 0.712 . S
C467 C147 0.714 . S
C461 C42 0.727 . S
C481 C9 0.761 . S
C487 C165 0.748 . S
C501 C61 1.598 . S
C507 C105 1.536 . S
C521 C72 1.589 . S
C527 C123 1.550 . S
C547 C144 1.565 . S
C541 C83 1.597 . S
C567 C168 1.537 . S
C561 C50 1.596 . S
C581 C17 1.462 . S
C587 C101 1.432 1_655 S
C607 C125 1.434 1_565 S
C601 C28 1.455 . S
C627 C146 1.429 . S
C621 C39 1.465 . S
C641 C6 1.459 . S
C647 C164 1.403 . S
