# Generated by pormake.
# Topology llk, (3,12)-cn, num edge types: 1
# Building blocks:
#     Node 0, Type 0, BuildingBlock: PAMTOO_clean_linker_0, # of connection points: 3
#     Node 1, Type 0, BuildingBlock: PAMTOO_clean_linker_0, # of connection points: 3
#     Node 2, Type 0, BuildingBlock: PAMTOO_clean_linker_0, # of connection points: 3
#     Node 3, Type 0, BuildingBlock: PAMTOO_clean_linker_0, # of connection points: 3
#     Node 4, Type 0, BuildingBlock: PAMTOO_clean_linker_0, # of connection points: 3
#     Node 5, Type 0, BuildingBlock: PAMTOO_clean_linker_0, # of connection points: 3
#     Node 6, Type 0, BuildingBlock: PAMTOO_clean_linker_0, # of connection points: 3
#     Node 7, Type 0, BuildingBlock: PAMTOO_clean_linker_0, # of connection points: 3
#     Node 8, Type 0, BuildingBlock: PAMTOO_clean_linker_0, # of connection points: 3
#     Node 9, Type 0, BuildingBlock: PAMTOO_clean_linker_0, # of connection points: 3
#     Node 10, Type 0, BuildingBlock: PAMTOO_clean_linker_0, # of connection points: 3
#     Node 11, Type 0, BuildingBlock: PAMTOO_clean_linker_0, # of connection points: 3
#     Node 12, Type 0, BuildingBlock: PAMTOO_clean_linker_0, # of connection points: 3
#     Node 13, Type 0, BuildingBlock: PAMTOO_clean_linker_0, # of connection points: 3
#     Node 14, Type 0, BuildingBlock: PAMTOO_clean_linker_0, # of connection points: 3
#     Node 15, Type 0, BuildingBlock: PAMTOO_clean_linker_0, # of connection points: 3
#     Node 16, Type 0, BuildingBlock: PAMTOO_clean_linker_0, # of connection points: 3
#     Node 17, Type 0, BuildingBlock: PAMTOO_clean_linker_0, # of connection points: 3
#     Node 18, Type 0, BuildingBlock: PAMTOO_clean_linker_0, # of connection points: 3
#     Node 19, Type 0, BuildingBlock: PAMTOO_clean_linker_0, # of connection points: 3
#     Node 20, Type 0, BuildingBlock: PAMTOO_clean_linker_0, # of connection points: 3
#     Node 21, Type 0, BuildingBlock: PAMTOO_clean_linker_0, # of connection points: 3
#     Node 22, Type 0, BuildingBlock: PAMTOO_clean_linker_0, # of connection points: 3
#     Node 23, Type 0, BuildingBlock: PAMTOO_clean_linker_0, # of connection points: 3
#     Node 24, Type 1, BuildingBlock: EZIPEK_clean_sbu_0, # of connection points: 12
#     Node 25, Type 1, BuildingBlock: EZIPEK_clean_sbu_0, # of connection points: 12
#     Node 26, Type 1, BuildingBlock: EZIPEK_clean_sbu_0, # of connection points: 12
#     Node 27, Type 1, BuildingBlock: EZIPEK_clean_sbu_0, # of connection points: 12
#     Node 28, Type 1, BuildingBlock: EZIPEK_clean_sbu_0, # of connection points: 12
#     Node 29, Type 1, BuildingBlock: EZIPEK_clean_sbu_0, # of connection points: 12
#     Edge 30, Type (0, 1), BuildingBlock: UVAHIK_clean_linker_0, # of connection points: 2
#     Edge 31, Type (0, 1), BuildingBlock: UVAHIK_clean_linker_0, # of connection points: 2
#     Edge 32, Type (0, 1), BuildingBlock: UVAHIK_clean_linker_0, # of connection points: 2
#     Edge 33, Type (0, 1), BuildingBlock: UVAHIK_clean_linker_0, # of connection points: 2
#     Edge 34, Type (0, 1), BuildingBlock: UVAHIK_clean_linker_0, # of connection points: 2
#     Edge 35, Type (0, 1), BuildingBlock: UVAHIK_clean_linker_0, # of connection points: 2
#     Edge 36, Type (0, 1), BuildingBlock: UVAHIK_clean_linker_0, # of connection points: 2
#     Edge 37, Type (0, 1), BuildingBlock: UVAHIK_clean_linker_0, # of connection points: 2
#     Edge 38, Type (0, 1), BuildingBlock: UVAHIK_clean_linker_0, # of connection points: 2
#     Edge 39, Type (0, 1), BuildingBlock: UVAHIK_clean_linker_0, # of connection points: 2
#     Edge 40, Type (0, 1), BuildingBlock: UVAHIK_clean_linker_0, # of connection points: 2
#     Edge 41, Type (0, 1), BuildingBlock: UVAHIK_clean_linker_0, # of connection points: 2
#     Edge 42, Type (0, 1), BuildingBlock: UVAHIK_clean_linker_0, # of connection points: 2
#     Edge 43, Type (0, 1), BuildingBlock: UVAHIK_clean_linker_0, # of connection points: 2
#     Edge 44, Type (0, 1), BuildingBlock: UVAHIK_clean_linker_0, # of connection points: 2
#     Edge 45, Type (0, 1), BuildingBlock: UVAHIK_clean_linker_0, # of connection points: 2
#     Edge 46, Type (0, 1), BuildingBlock: UVAHIK_clean_linker_0, # of connection points: 2
#     Edge 47, Type (0, 1), BuildingBlock: UVAHIK_clean_linker_0, # of connection points: 2
#     Edge 48, Type (0, 1), BuildingBlock: UVAHIK_clean_linker_0, # of connection points: 2
#     Edge 49, Type (0, 1), BuildingBlock: UVAHIK_clean_linker_0, # of connection points: 2
#     Edge 50, Type (0, 1), BuildingBlock: UVAHIK_clean_linker_0, # of connection points: 2
#     Edge 51, Type (0, 1), BuildingBlock: UVAHIK_clean_linker_0, # of connection points: 2
#     Edge 52, Type (0, 1), BuildingBlock: UVAHIK_clean_linker_0, # of connection points: 2
#     Edge 53, Type (0, 1), BuildingBlock: UVAHIK_clean_linker_0, # of connection points: 2
#     Edge 54, Type (0, 1), BuildingBlock: UVAHIK_clean_linker_0, # of connection points: 2
#     Edge 55, Type (0, 1), BuildingBlock: UVAHIK_clean_linker_0, # of connection points: 2
#     Edge 56, Type (0, 1), BuildingBlock: UVAHIK_clean_linker_0, # of connection points: 2
#     Edge 57, Type (0, 1), BuildingBlock: UVAHIK_clean_linker_0, # of connection points: 2
#     Edge 58, Type (0, 1), BuildingBlock: UVAHIK_clean_linker_0, # of connection points: 2
#     Edge 59, Type (0, 1), BuildingBlock: UVAHIK_clean_linker_0, # of connection points: 2
#     Edge 60, Type (0, 1), BuildingBlock: UVAHIK_clean_linker_0, # of connection points: 2
#     Edge 61, Type (0, 1), BuildingBlock: UVAHIK_clean_linker_0, # of connection points: 2
#     Edge 62, Type (0, 1), BuildingBlock: UVAHIK_clean_linker_0, # of connection points: 2
#     Edge 63, Type (0, 1), BuildingBlock: UVAHIK_clean_linker_0, # of connection points: 2
#     Edge 64, Type (0, 1), BuildingBlock: UVAHIK_clean_linker_0, # of connection points: 2
#     Edge 65, Type (0, 1), BuildingBlock: UVAHIK_clean_linker_0, # of connection points: 2
#     Edge 66, Type (0, 1), BuildingBlock: UVAHIK_clean_linker_0, # of connection points: 2
#     Edge 67, Type (0, 1), BuildingBlock: UVAHIK_clean_linker_0, # of connection points: 2
#     Edge 68, Type (0, 1), BuildingBlock: UVAHIK_clean_linker_0, # of connection points: 2
#     Edge 69, Type (0, 1), BuildingBlock: UVAHIK_clean_linker_0, # of connection points: 2
#     Edge 70, Type (0, 1), BuildingBlock: UVAHIK_clean_linker_0, # of connection points: 2
#     Edge 71, Type (0, 1), BuildingBlock: UVAHIK_clean_linker_0, # of connection points: 2
#     Edge 72, Type (0, 1), BuildingBlock: UVAHIK_clean_linker_0, # of connection points: 2
#     Edge 73, Type (0, 1), BuildingBlock: UVAHIK_clean_linker_0, # of connection points: 2
#     Edge 74, Type (0, 1), BuildingBlock: UVAHIK_clean_linker_0, # of connection points: 2
#     Edge 75, Type (0, 1), BuildingBlock: UVAHIK_clean_linker_0, # of connection points: 2
#     Edge 76, Type (0, 1), BuildingBlock: UVAHIK_clean_linker_0, # of connection points: 2
#     Edge 77, Type (0, 1), BuildingBlock: UVAHIK_clean_linker_0, # of connection points: 2
#     Edge 78, Type (0, 1), BuildingBlock: UVAHIK_clean_linker_0, # of connection points: 2
#     Edge 79, Type (0, 1), BuildingBlock: UVAHIK_clean_linker_0, # of connection points: 2
#     Edge 80, Type (0, 1), BuildingBlock: UVAHIK_clean_linker_0, # of connection points: 2
#     Edge 81, Type (0, 1), BuildingBlock: UVAHIK_clean_linker_0, # of connection points: 2
#     Edge 82, Type (0, 1), BuildingBlock: UVAHIK_clean_linker_0, # of connection points: 2
#     Edge 83, Type (0, 1), BuildingBlock: UVAHIK_clean_linker_0, # of connection points: 2
#     Edge 84, Type (0, 1), BuildingBlock: UVAHIK_clean_linker_0, # of connection points: 2
#     Edge 85, Type (0, 1), BuildingBlock: UVAHIK_clean_linker_0, # of connection points: 2
#     Edge 86, Type (0, 1), BuildingBlock: UVAHIK_clean_linker_0, # of connection points: 2
#     Edge 87, Type (0, 1), BuildingBlock: UVAHIK_clean_linker_0, # of connection points: 2
#     Edge 88, Type (0, 1), BuildingBlock: UVAHIK_clean_linker_0, # of connection points: 2
#     Edge 89, Type (0, 1), BuildingBlock: UVAHIK_clean_linker_0, # of connection points: 2
#     Edge 90, Type (0, 1), BuildingBlock: UVAHIK_clean_linker_0, # of connection points: 2
#     Edge 91, Type (0, 1), BuildingBlock: UVAHIK_clean_linker_0, # of connection points: 2
#     Edge 92, Type (0, 1), BuildingBlock: UVAHIK_clean_linker_0, # of connection points: 2
#     Edge 93, Type (0, 1), BuildingBlock: UVAHIK_clean_linker_0, # of connection points: 2
#     Edge 94, Type (0, 1), BuildingBlock: UVAHIK_clean_linker_0, # of connection points: 2
#     Edge 95, Type (0, 1), BuildingBlock: UVAHIK_clean_linker_0, # of connection points: 2
#     Edge 96, Type (0, 1), BuildingBlock: UVAHIK_clean_linker_0, # of connection points: 2
#     Edge 97, Type (0, 1), BuildingBlock: UVAHIK_clean_linker_0, # of connection points: 2
#     Edge 98, Type (0, 1), BuildingBlock: UVAHIK_clean_linker_0, # of connection points: 2
#     Edge 99, Type (0, 1), BuildingBlock: UVAHIK_clean_linker_0, # of connection points: 2
#     Edge 100, Type (0, 1), BuildingBlock: UVAHIK_clean_linker_0, # of connection points: 2
#     Edge 101, Type (0, 1), BuildingBlock: UVAHIK_clean_linker_0, # of connection points: 2
# Relax obj value: 0.068
# Max RMSD: 0.163
# Mean RMSD: 0.123
data_MOF--net-llk--node1-EZIPEK_clean_sbu_0--node2-PAMTOO_clean_linker_0--edge1-UVAHIK_clean_linker_0
_symmetry_space_group_name_H-M    P1
_symmetry_Int_Tables_number       1
_symmetry_cell_setting            triclinic
loop_
_symmetry_equiv_pos_as_xyz
'x, y, z'
_cell_length_a     58.74603
_cell_length_b     60.268514
_cell_length_c     59.476484
_cell_angle_alpha  90.029973
_cell_angle_beta   90.001437
_cell_angle_gamma 89.998894
loop_
_atom_site_label
_atom_site_type_symbol
_atom_site_fract_x
_atom_site_fract_y
_atom_site_fract_z
_atom_type_partial_charge
H0 H 0.00735 0.31614 0.2489 0.0
H1 H 0.01709 0.25903 0.29115 0.0
H2 H 0.01827 0.25182 0.2192 0.0
H3 H 0.0009 0.20576 0.2465 0.0
C4 C 0.00312 0.21587 0.26198 0.0
O5 O 0.02086 0.23065 0.25853 0.0
H6 H 0.98672 0.22478 0.26469 0.0
C7 C 0.00996 0.29841 0.25072 0.0
C8 C 0.01253 0.28526 0.23144 0.0
C9 C 0.01174 0.28917 0.27227 0.0
C10 C 0.01575 0.26637 0.27457 0.0
C11 C 0.01759 0.25276 0.2556 0.0
C12 C 0.01635 0.26225 0.23391 0.0
H13 H 0.76411 0.01533 0.31002 0.0
H14 H 0.72693 0.99971 0.25006 0.0
H15 H 0.80008 1.0019 0.24834 0.0
H16 H 0.77838 0.00848 0.19732 0.0
C17 C 0.76275 0.01066 0.20761 0.0
O18 O 0.763 0.99492 0.22454 0.0
H19 H 0.76319 0.0278 0.21464 0.0
C20 C 0.76405 0.01173 0.29216 0.0
C21 C 0.78475 0.00957 0.28056 0.0
C22 C 0.74321 0.00817 0.28134 0.0
C23 C 0.74299 1.00243 0.25853 0.0
C24 C 0.76346 1.00035 0.24661 0.0
C25 C 0.78434 1.00369 0.25766 0.0
H26 H 0.0196 0.75714 0.31511 0.0
H27 H 0.02217 0.71766 0.255 0.0
H28 H 0.0192 0.78879 0.25023 0.0
H29 H 0.99645 0.76025 0.20438 0.0
C30 C 0.00106 0.74558 0.21473 0.0
O31 O 0.02021 0.75073 0.22731 0.0
H32 H 0.98612 0.74217 0.22576 0.0
C33 C 0.02029 0.75604 0.29693 0.0
C34 C 0.02022 0.77565 0.28419 0.0
C35 C 0.02107 0.73508 0.28672 0.0
C36 C 0.02111 0.73367 0.26322 0.0
C37 C 0.01991 0.75286 0.25003 0.0
C38 C 0.01943 0.77396 0.26048 0.0
H39 H 0.32172 0.0082 0.2487 0.0
H40 H 0.26275 0.99344 0.28875 0.0
H41 H 0.25652 0.99957 0.21702 0.0
H42 H 0.20822 0.01024 0.24087 0.0
C43 C 0.21873 0.01024 0.25641 0.0
O44 O 0.23426 0.99304 0.25484 0.0
H45 H 0.22746 0.02663 0.25741 0.0
C46 C 0.30363 1.00485 0.25003 0.0
C47 C 0.29035 1.00446 0.23047 0.0
C48 C 0.29396 1.00054 0.27112 0.0
C49 C 0.27045 0.99673 0.2726 0.0
C50 C 0.25693 0.99658 0.25317 0.0
C51 C 0.26696 1.0 0.23204 0.0
H52 H 0.01314 0.69527 0.7546 0.0
H53 H 0.0137 0.75429 0.71415 0.0
H54 H 0.02238 0.75914 0.7858 0.0
H55 H 0.00067 0.80611 0.75997 0.0
C56 C 0.00259 0.79616 0.74436 0.0
O57 O 0.02061 0.78157 0.74714 0.0
H58 H 0.98624 0.78707 0.74198 0.0
C59 C 0.01427 0.71318 0.75331 0.0
C60 C 0.01811 0.72572 0.77284 0.0
C61 C 0.01243 0.72321 0.73213 0.0
C62 C 0.0147 0.74628 0.73041 0.0
C63 C 0.01791 0.75932 0.74964 0.0
C64 C 0.0194 0.74908 0.771 0.0
H65 H 0.32108 1.00392 0.75768 0.0
H66 H 0.2619 0.019 0.71801 0.0
H67 H 0.25614 0.01283 0.78978 0.0
H68 H 0.20707 1.00316 0.76597 0.0
C69 C 0.21794 1.00259 0.75069 0.0
O70 O 0.23368 0.01961 0.75215 0.0
H71 H 0.22646 0.98607 0.75038 0.0
C72 C 0.30299 0.00733 0.75647 0.0
C73 C 0.28984 0.00775 0.77611 0.0
C74 C 0.29321 0.01175 0.73544 0.0
C75 C 0.26971 0.01564 0.73411 0.0
C76 C 0.25633 0.01585 0.75364 0.0
C77 C 0.26648 0.01234 0.7747 0.0
H78 H 0.00567 0.25329 0.69313 0.0
H79 H 0.01739 0.29414 0.75134 0.0
H80 H 0.02084 0.22311 0.75704 0.0
H81 H 0.00888 0.25071 0.80771 0.0
C82 C 0.00749 0.26447 0.79538 0.0
O83 O 0.02402 0.26155 0.779 0.0
H84 H 0.99009 0.26335 0.78798 0.0
C85 C 0.00906 0.25481 0.71099 0.0
C86 C 0.01276 0.23559 0.72378 0.0
C87 C 0.01094 0.27596 0.72067 0.0
C88 C 0.01601 0.27791 0.74361 0.0
C89 C 0.01914 0.259 0.75685 0.0
C90 C 0.01788 0.23775 0.74689 0.0
H91 H 0.76403 0.99686 0.6971 0.0
H92 H 0.72725 0.01277 0.75724 0.0
H93 H 0.8004 0.01093 0.75841 0.0
H94 H 0.77877 1.00546 0.81014 0.0
C95 C 0.76346 1.00259 0.79957 0.0
O96 O 0.76351 0.01805 0.78238 0.0
H97 H 0.76469 0.98537 0.79282 0.0
C98 C 0.7641 1.00057 0.71494 0.0
C99 C 0.78488 1.00294 0.72635 0.0
C100 C 0.74332 1.0041 0.72589 0.0
C101 C 0.74325 0.01002 0.74866 0.0
C102 C 0.7638 0.01231 0.76039 0.0
C103 C 0.7846 0.00897 0.74922 0.0
H104 H 0.265 0.31512 0.99747 0.0
H105 H 0.30208 0.25378 0.99554 0.0
H106 H 0.23029 0.25335 0.01 0.0
H107 H 0.25835 0.20833 0.03037 0.0
C108 C 0.27332 0.21769 0.02401 0.0
O109 O 0.26716 0.22858 0.00446 0.0
H110 H 0.27812 0.22964 0.03753 0.0
C111 C 0.2652 0.29718 0.99892 0.0
C112 C 0.24506 0.28583 0.0043 0.0
C113 C 0.28575 0.28584 0.99587 0.0
C114 C 0.28623 0.26271 0.99782 0.0
C115 C 0.26629 0.25097 1.00279 0.0
C116 C 0.24562 0.26249 0.00594 0.0
H117 H 0.26487 0.6963 0.00828 0.0
H118 H 0.3022 0.75737 0.01447 0.0
H119 H 0.23094 0.75878 0.99802 0.0
H120 H 0.25881 0.80339 0.97912 0.0
C121 C 0.2739 0.79409 0.98532 0.0
O122 O 0.26792 0.78299 0.0048 0.0
H123 H 0.27872 0.7823 0.97167 0.0
C124 C 0.26532 0.71428 0.00787 0.0
C125 C 0.24536 0.72601 1.00272 0.0
C126 C 0.2859 0.72529 0.01216 0.0
C127 C 0.28647 0.74854 0.01124 0.0
C128 C 0.26678 0.76058 0.00604 0.0
C129 C 0.24612 0.74937 1.00205 0.0
H130 H 0.76719 0.31481 0.0051 0.0
H131 H 0.72707 0.25553 0.0132 0.0
H132 H 0.79927 0.25076 1.00241 0.0
H133 H 0.772 0.2065 0.98377 0.0
C134 C 0.75652 0.21614 0.98827 0.0
O135 O 0.76096 0.22824 0.00754 0.0
H136 H 0.75283 0.22718 0.97369 0.0
C137 C 0.76593 0.29688 0.00609 0.0
C138 C 0.78567 0.28411 0.00358 0.0
C139 C 0.7447 0.28687 0.00981 0.0
C140 C 0.74328 0.26363 0.0104 0.0
C141 C 0.76283 0.25062 0.00747 0.0
C142 C 0.78414 0.26085 0.00444 0.0
H143 H 0.76665 0.69734 1.00172 0.0
H144 H 0.72653 0.7566 0.99351 0.0
H145 H 0.79877 0.76137 0.00405 0.0
H146 H 0.77174 0.80566 0.02257 0.0
C147 C 0.75619 0.79609 0.01818 0.0
O148 O 0.76048 0.78389 0.99894 0.0
H149 H 0.75249 0.78512 0.03282 0.0
C150 C 0.76539 0.71526 1.00067 0.0
C151 C 0.78515 0.72803 0.00308 0.0
C152 C 0.74416 0.72527 0.99696 0.0
C153 C 0.74275 0.74851 0.9963 0.0
C154 C 0.76232 0.76151 0.9991 0.0
C155 C 0.78363 0.75128 1.00211 0.0
H156 H 0.51683 0.8162 0.74804 0.0
H157 H 0.51593 0.75925 0.79175 0.0
H158 H 0.51768 0.75041 0.72004 0.0
H159 H 0.49496 0.70731 0.74874 0.0
C160 C 0.49905 0.71705 0.76409 0.0
O161 O 0.518 0.73004 0.7598 0.0
H162 H 0.48383 0.72749 0.76778 0.0
C163 C 0.5165 0.79836 0.75044 0.0
C164 C 0.51712 0.78454 0.73153 0.0
C165 C 0.51576 0.78954 0.77226 0.0
C166 C 0.51634 0.76643 0.77507 0.0
C167 C 0.51691 0.75228 0.7564 0.0
C168 C 0.51708 0.76132 0.7345 0.0
H169 H 0.26436 0.51538 0.80979 0.0
H170 H 0.22722 0.49963 0.74983 0.0
H171 H 0.30037 0.50132 0.74827 0.0
H172 H 0.2785 0.50725 0.69681 0.0
C173 C 0.26311 0.50989 0.70734 0.0
O174 O 0.26331 0.49435 0.72446 0.0
H175 H 0.26407 0.52709 0.71415 0.0
C176 C 0.26432 0.51169 0.79194 0.0
C177 C 0.28504 0.50931 0.78041 0.0
C178 C 0.24348 0.50821 0.7811 0.0
C179 C 0.24327 0.50232 0.75832 0.0
C180 C 0.26375 0.50002 0.74647 0.0
C181 C 0.28463 0.5033 0.75754 0.0
H182 H 0.51483 0.25761 0.81446 0.0
H183 H 0.51529 0.21784 0.75452 0.0
H184 H 0.52259 0.28866 0.7497 0.0
H185 H 0.50093 0.26221 0.70179 0.0
C186 C 0.50294 0.24721 0.71247 0.0
O187 O 0.52114 0.25053 0.72691 0.0
H188 H 0.48669 0.2453 0.72194 0.0
C189 C 0.51579 0.2564 0.7963 0.0
C190 C 0.51909 0.27576 0.78359 0.0
C191 C 0.51419 0.23548 0.78609 0.0
C192 C 0.51616 0.23387 0.76268 0.0
C193 C 0.51881 0.25291 0.74949 0.0
C194 C 0.52005 0.27399 0.7599 0.0
H195 H 0.82141 0.50828 0.74857 0.0
H196 H 0.76251 0.49344 0.78872 0.0
H197 H 0.75619 0.49953 0.71699 0.0
H198 H 0.70772 0.50991 0.74098 0.0
C199 C 0.71842 0.51011 0.75639 0.0
O200 O 0.734 0.49296 0.75482 0.0
H201 H 0.7271 0.52654 0.7571 0.0
C202 C 0.80333 0.5049 0.74993 0.0
C203 C 0.79002 0.50449 0.73039 0.0
C204 C 0.7937 0.50057 0.77104 0.0
C205 C 0.77019 0.49673 0.77255 0.0
C206 C 0.75665 0.49655 0.75313 0.0
C207 C 0.76665 0.49998 0.73199 0.0
H208 H 0.51802 0.19531 0.2591 0.0
H209 H 0.51648 0.25221 0.21537 0.0
H210 H 0.51737 0.26111 0.28709 0.0
H211 H 0.49404 0.30374 0.25794 0.0
C212 C 0.49863 0.29413 0.24265 0.0
O213 O 0.51774 0.28147 0.24729 0.0
H214 H 0.4837 0.28342 0.23863 0.0
C215 C 0.51741 0.21314 0.2567 0.0
C216 C 0.51759 0.22697 0.27561 0.0
C217 C 0.51667 0.22193 0.23487 0.0
C218 C 0.51687 0.24505 0.23205 0.0
C219 C 0.51701 0.25922 0.25071 0.0
C220 C 0.51712 0.25019 0.27263 0.0
H221 H 0.82155 0.50365 0.25743 0.0
H222 H 0.76231 0.51876 0.21789 0.0
H223 H 0.75664 0.51236 0.28965 0.0
H224 H 0.70776 0.50246 0.26604 0.0
C225 C 0.71843 0.50212 0.25062 0.0
O226 O 0.73411 0.5192 0.25206 0.0
H227 H 0.72702 0.48564 0.24999 0.0
C228 C 0.80346 0.50704 0.25626 0.0
C229 C 0.79034 0.50738 0.27592 0.0
C230 C 0.79364 0.5115 0.23526 0.0
C231 C 0.77013 0.51537 0.23398 0.0
C232 C 0.75677 0.5155 0.25352 0.0
C233 C 0.76696 0.51195 0.27456 0.0
H234 H 0.51591 0.75405 0.19164 0.0
H235 H 0.51558 0.79446 0.25113 0.0
H236 H 0.52167 0.7236 0.2569 0.0
H237 H 0.49887 0.75056 0.30353 0.0
C238 C 0.5017 0.76566 0.29319 0.0
O239 O 0.52024 0.76201 0.27925 0.0
H240 H 0.48584 0.76825 0.28325 0.0
C241 C 0.51648 0.75545 0.2098 0.0
C242 C 0.51918 0.73619 0.2228 0.0
C243 C 0.51493 0.7765 0.21974 0.0
C244 C 0.51641 0.77833 0.24317 0.0
C245 C 0.51846 0.75941 0.25664 0.0
C246 C 0.51962 0.7382 0.24649 0.0
H247 H 0.26401 0.49669 0.19688 0.0
H248 H 0.22708 0.51229 0.257 0.0
H249 H 0.30023 0.51016 0.25842 0.0
H250 H 0.27879 0.50378 0.30959 0.0
C251 C 0.26317 0.50146 0.29932 0.0
O252 O 0.26328 0.51716 0.28235 0.0
H253 H 0.26373 0.4843 0.29233 0.0
C254 C 0.26403 0.50029 0.21475 0.0
C255 C 0.28478 0.50247 0.22626 0.0
C256 C 0.24323 0.50383 0.22566 0.0
C257 C 0.24311 0.50957 0.24847 0.0
C258 C 0.26362 0.51168 0.26029 0.0
C259 C 0.28445 0.50835 0.24916 0.0
H260 H 0.76479 0.81579 0.4984 0.0
H261 H 0.80227 0.75485 0.49193 0.0
H262 H 0.73101 0.75319 0.50832 0.0
H263 H 0.75913 0.70854 0.52704 0.0
C264 C 0.77417 0.71789 0.52081 0.0
O265 O 0.76807 0.72909 0.50142 0.0
H266 H 0.77904 0.72961 0.5345 0.0
C267 C 0.76528 0.79782 0.49873 0.0
C268 C 0.74534 0.78602 0.5038 0.0
C269 C 0.78589 0.78687 0.4944 0.0
C270 C 0.78652 0.76363 0.49519 0.0
C271 C 0.76686 0.75151 0.50031 0.0
C272 C 0.74616 0.76266 0.50436 0.0
H273 H 0.76463 0.19629 0.50858 0.0
H274 H 0.80159 0.25757 0.51477 0.0
H275 H 0.73033 0.25857 0.49832 0.0
H276 H 0.75811 0.30355 0.47955 0.0
C277 C 0.77316 0.29415 0.48568 0.0
O278 O 0.76716 0.28299 0.50512 0.0
H279 H 0.77787 0.28239 0.47196 0.0
C280 C 0.76498 0.21427 0.50816 0.0
C281 C 0.74494 0.22588 0.50301 0.0
C282 C 0.78549 0.2254 0.51245 0.0
C283 C 0.78592 0.24864 0.51154 0.0
C284 C 0.76615 0.26058 0.50634 0.0
C285 C 0.74556 0.24924 0.50234 0.0
H286 H 0.26666 0.81476 0.50481 0.0
H287 H 0.22641 0.7556 0.51312 0.0
H288 H 0.29866 0.75066 0.50276 0.0
H289 H 0.27159 0.70641 0.4843 0.0
C290 C 0.25602 0.71594 0.4887 0.0
O291 O 0.26031 0.72823 0.50788 0.0
H292 H 0.25224 0.72685 0.47403 0.0
C293 C 0.26537 0.79684 0.5059 0.0
C294 C 0.28511 0.78403 0.50358 0.0
C295 C 0.24411 0.78689 0.50961 0.0
C296 C 0.24265 0.76365 0.51034 0.0
C297 C 0.2622 0.7506 0.50762 0.0
C298 C 0.28354 0.76079 0.50462 0.0
H299 H 0.26708 0.1973 0.50161 0.0
H300 H 0.22711 0.25666 0.4934 0.0
H301 H 0.29933 0.26126 0.50411 0.0
H302 H 0.27224 0.30575 0.52255 0.0
C303 C 0.25677 0.29603 0.51821 0.0
O304 O 0.2611 0.28386 0.49896 0.0
H305 H 0.25325 0.28503 0.53288 0.0
C306 C 0.26586 0.21523 0.50058 0.0
C307 C 0.28564 0.22795 0.50305 0.0
C308 C 0.24466 0.22528 0.49684 0.0
C309 C 0.2433 0.24853 0.49621 0.0
C310 C 0.26289 0.26148 0.49908 0.0
C311 C 0.28418 0.2512 0.50212 0.0
C312 C 0.01442 0.95267 0.55844 0.0
C313 C 0.01432 0.95243 0.44856 0.0
C314 C 0.01472 0.06039 0.5582 0.0
C315 C 0.01442 0.06011 0.44829 0.0
C316 C 0.9595 0.06039 0.50464 0.0
C317 C 0.95945 0.95248 0.50228 0.0
C318 C 0.0695 0.06028 0.50269 0.0
C319 C 0.06941 0.95242 0.5038 0.0
C320 C 0.06923 0.0068 0.44854 0.0
C321 C 0.95925 0.00675 0.44883 0.0
C322 C 0.06957 0.00578 0.55785 0.0
C323 C 0.95955 0.00608 0.55816 0.0
Eu324 Eu 0.01443 0.96432 0.50348 0.0
O325 O 0.99408 0.98663 0.48362 0.0
O326 O 0.03473 0.98677 0.52322 0.0
Eu327 Eu 0.9711 0.00642 0.50346 0.0
Eu328 Eu 0.05775 0.00636 0.50324 0.0
O329 O 0.9941 0.98669 0.5234 0.0
O330 O 0.03473 0.98654 0.48337 0.0
Eu331 Eu 0.0145 0.00652 0.54573 0.0
Eu332 Eu 0.01424 0.00625 0.46099 0.0
O333 O 0.99424 0.0262 0.52319 0.0
O334 O 0.99404 0.02618 0.48344 0.0
O335 O 0.03459 0.02601 0.48343 0.0
O336 O 0.03485 0.02625 0.52321 0.0
Eu337 Eu 0.01448 0.04854 0.50327 0.0
O338 O 0.01429 0.94569 0.53704 0.0
O339 O 0.0148 0.94563 0.47 0.0
O340 O 0.01485 0.06724 0.53677 0.0
O341 O 0.01441 0.06712 0.46968 0.0
O342 O 0.95228 0.03935 0.50517 0.0
O343 O 0.95224 0.97352 0.50184 0.0
O344 O 0.07665 0.03923 0.50238 0.0
O345 O 0.0766 0.97346 0.50399 0.0
O346 O 0.0475 0.00701 0.44208 0.0
O347 O 0.98088 0.00574 0.44215 0.0
O348 O 0.04788 0.00554 0.56444 0.0
O349 O 0.98122 0.00713 0.56474 0.0
O350 O 0.04787 0.06696 0.50323 0.0
O351 O 0.98113 0.06699 0.50353 0.0
O352 O 0.04776 0.9458 0.50344 0.0
O353 O 0.98108 0.94587 0.50326 0.0
O354 O 0.01393 0.97359 0.44189 0.0
O355 O 0.01427 0.03886 0.44187 0.0
O356 O 0.01445 0.97392 0.56488 0.0
O357 O 0.01459 0.03919 0.56478 0.0
O358 O 0.95231 1.00509 0.53687 0.0
O359 O 0.9521 0.00774 0.47015 0.0
O360 O 0.07683 0.00664 0.53656 0.0
O361 O 0.07662 0.00605 0.46979 0.0
C362 C 0.51351 0.95287 0.05796 0.0
C363 C 0.51468 0.06036 0.0572 0.0
C364 C 0.51451 0.95212 0.94898 0.0
C365 C 0.51331 0.05964 0.94819 0.0
C366 C 0.56959 1.00523 0.9487 0.0
C367 C 0.56969 0.00728 0.05735 0.0
C368 C 0.45886 1.00547 0.94894 0.0
C369 C 0.45899 0.00697 0.05732 0.0
C370 C 0.45874 0.06003 0.00344 0.0
C371 C 0.5697 0.06005 1.00224 0.0
C372 C 0.45883 0.95244 0.00299 0.0
C373 C 0.56975 0.95252 0.00383 0.0
Eu374 Eu 0.51436 0.00646 0.04575 0.0
O375 O 0.53432 0.02617 0.02291 0.0
O376 O 0.49418 0.9865 0.02328 0.0
Eu377 Eu 0.55702 0.00628 0.00304 0.0
Eu378 Eu 0.47159 0.00624 0.00313 0.0
O379 O 0.53451 0.98647 0.02327 0.0
O380 O 0.49428 0.02616 0.02298 0.0
Eu381 Eu 0.5143 0.96402 0.00337 0.0
Eu382 Eu 0.51424 0.04851 1.00281 0.0
O383 O 0.53428 0.98639 0.98318 0.0
O384 O 0.53441 0.02604 0.98283 0.0
O385 O 0.49415 0.02598 0.98289 0.0
O386 O 0.49428 0.98636 0.98319 0.0
Eu387 Eu 0.51427 0.00605 0.96035 0.0
O388 O 0.51437 0.97396 0.06476 0.0
O389 O 0.51407 0.03931 0.06419 0.0
O390 O 0.51391 0.97315 0.94196 0.0
O391 O 0.51421 0.03856 0.94139 0.0
O392 O 0.57621 1.00511 0.97015 0.0
O393 O 0.57628 0.00742 0.03589 0.0
O394 O 0.45232 0.00553 0.97039 0.0
O395 O 0.4524 0.00691 0.03589 0.0
O396 O 0.48036 0.06705 0.00372 0.0
O397 O 0.54809 0.06707 1.00209 0.0
O398 O 0.48045 0.94545 1.00268 0.0
O399 O 0.54814 0.94549 0.00401 0.0
O400 O 0.48041 0.00586 0.94172 0.0
O401 O 0.54803 0.00591 0.94152 0.0
O402 O 0.48056 0.0066 0.06449 0.0
O403 O 0.54814 0.00659 0.06455 0.0
O404 O 0.51515 0.06711 0.03584 0.0
O405 O 0.51294 0.0666 0.96951 0.0
O406 O 0.51313 0.94592 0.03665 0.0
O407 O 0.51505 0.9454 0.97035 0.0
O408 O 0.57629 0.97374 0.00353 0.0
O409 O 0.57625 0.03884 1.00253 0.0
O410 O 0.45229 0.97366 0.00344 0.0
O411 O 0.45223 0.0388 0.0029 0.0
C412 C 0.0134 0.45179 0.05743 0.0
C413 C 0.01434 0.45235 0.94827 0.0
C414 C 0.01418 0.56036 0.05822 0.0
C415 C 0.01396 0.56085 0.94906 0.0
C416 C 0.95896 0.56047 0.0041 0.0
C417 C 0.95898 0.45219 1.00222 0.0
C418 C 0.06908 0.56039 0.00313 0.0
C419 C 0.06903 0.45219 0.00348 0.0
C420 C 0.06897 0.50698 0.9487 0.0
C421 C 0.95862 0.50648 0.94876 0.0
C422 C 0.06859 0.50573 0.05821 0.0
C423 C 0.95822 0.50628 0.05738 0.0
Eu424 Eu 0.01397 0.46456 0.00294 0.0
O425 O 0.99364 0.48678 0.983 0.0
O426 O 0.03401 0.48672 0.02325 0.0
Eu427 Eu 0.97069 0.50634 0.00312 0.0
Eu428 Eu 0.05722 0.5063 0.00341 0.0
O429 O 0.99353 0.48656 0.02314 0.0
O430 O 0.03431 0.48682 0.98305 0.0
Eu431 Eu 0.01357 0.50614 0.04608 0.0
Eu432 Eu 0.0139 0.50651 0.96047 0.0
O433 O 0.99355 0.52593 0.02335 0.0
O434 O 0.99369 0.52615 0.98325 0.0
O435 O 0.03413 0.52594 0.98347 0.0
O436 O 0.03412 0.52583 0.02356 0.0
Eu437 Eu 0.01398 0.54818 0.00355 0.0
O438 O 0.01348 0.44554 0.03587 0.0
O439 O 0.0141 0.44591 0.96977 0.0
O440 O 0.01438 0.56678 0.03672 0.0
O441 O 0.01355 0.56723 0.97058 0.0
O442 O 0.95173 0.53941 0.00349 0.0
O443 O 0.95173 0.47325 1.00267 0.0
O444 O 0.07622 0.5393 1.00277 0.0
O445 O 0.07619 0.47326 0.00403 0.0
O446 O 0.04733 0.50731 0.94196 0.0
O447 O 0.98024 0.50615 0.94179 0.0
O448 O 0.0469 0.50539 0.06481 0.0
O449 O 0.97978 0.5066 0.0645 0.0
O450 O 0.04738 0.56692 0.00364 0.0
O451 O 0.98069 0.56687 0.00428 0.0
O452 O 0.04731 0.44572 1.00282 0.0
O453 O 0.98071 0.44582 1.00221 0.0
O454 O 0.01444 0.4735 0.94133 0.0
O455 O 0.01431 0.53976 0.94192 0.0
O456 O 0.01347 0.47286 0.06466 0.0
O457 O 0.01377 0.53922 0.0652 0.0
O458 O 0.95146 0.50588 0.03598 0.0
O459 O 0.95171 0.50683 0.97012 0.0
O460 O 0.07589 0.5065 0.03692 0.0
O461 O 0.07614 0.50617 0.97003 0.0
C462 C 0.51386 0.45187 0.05827 0.0
C463 C 0.51491 0.55953 0.05853 0.0
C464 C 0.51521 0.45207 0.94842 0.0
C465 C 0.51411 0.55973 0.94868 0.0
C466 C 0.56947 0.5066 0.94885 0.0
C467 C 0.56942 0.50512 0.05816 0.0
C468 C 0.45943 0.5061 0.94887 0.0
C469 C 0.45947 0.50541 0.05819 0.0
C470 C 0.45951 0.55974 0.00487 0.0
C471 C 0.56947 0.55978 0.00302 0.0
C472 C 0.45957 0.45185 1.00123 0.0
C473 C 0.56956 0.45192 0.0041 0.0
Eu474 Eu 0.5144 0.50577 0.04581 0.0
O475 O 0.53483 0.52559 0.02346 0.0
O476 O 0.49412 0.48591 0.02337 0.0
Eu477 Eu 0.55782 0.50584 0.0035 0.0
Eu478 Eu 0.47115 0.50579 0.00356 0.0
O479 O 0.53473 0.48611 0.02326 0.0
O480 O 0.49415 0.52557 0.02338 0.0
Eu481 Eu 0.51456 0.4637 0.00337 0.0
Eu482 Eu 0.51449 0.5479 0.00357 0.0
O483 O 0.53488 0.48606 0.98346 0.0
O484 O 0.5347 0.52552 0.98366 0.0
O485 O 0.49414 0.52558 0.98363 0.0
O486 O 0.49424 0.48614 0.98365 0.0
Eu487 Eu 0.51443 0.50583 0.96111 0.0
O488 O 0.51401 0.4731 0.06478 0.0
O489 O 0.51445 0.53834 0.0651 0.0
O490 O 0.51454 0.47325 0.94184 0.0
O491 O 0.51409 0.53851 0.94215 0.0
O492 O 0.57679 0.50563 0.97012 0.0
O493 O 0.57675 0.50611 0.0369 0.0
O494 O 0.45224 0.50706 0.97018 0.0
O495 O 0.45225 0.50446 0.0369 0.0
O496 O 0.48114 0.56635 0.00396 0.0
O497 O 0.54783 0.56641 0.00348 0.0
O498 O 0.48124 0.44527 1.00154 0.0
O499 O 0.54793 0.44526 0.00366 0.0
O500 O 0.48108 0.50514 0.94223 0.0
O501 O 0.54776 0.50693 0.94232 0.0
O502 O 0.48112 0.50641 0.0648 0.0
O503 O 0.5477 0.50473 0.06466 0.0
O504 O 0.5152 0.56643 0.03712 0.0
O505 O 0.51419 0.56664 0.9701 0.0
O506 O 0.51387 0.44496 0.03685 0.0
O507 O 0.51564 0.44518 0.96982 0.0
O508 O 0.57672 0.47297 0.00429 0.0
O509 O 0.57667 0.53874 1.00276 0.0
O510 O 0.45232 0.47286 1.00217 0.0
O511 O 0.45229 0.5387 0.00522 0.0
C512 C 0.0133 0.45224 0.55851 0.0
C513 C 0.01424 0.45105 0.44952 0.0
C514 C 0.01355 0.55986 0.55714 0.0
C515 C 0.01471 0.55854 0.44816 0.0
C516 C 0.959 0.55942 0.50266 0.0
C517 C 0.95867 0.4518 0.50361 0.0
C518 C 0.06993 0.55906 0.50299 0.0
C519 C 0.06958 0.45157 0.50418 0.0
C520 C 0.06995 0.50433 0.44937 0.0
C521 C 0.95921 0.50436 0.4489 0.0
C522 C 0.06931 0.5066 0.55805 0.0
C523 C 0.95859 0.5066 0.55726 0.0
Eu524 Eu 0.01417 0.46326 0.50387 0.0
O525 O 0.99433 0.48554 0.48346 0.0
O526 O 0.03429 0.48575 0.52386 0.0
Eu527 Eu 0.97159 0.50557 0.50314 0.0
Eu528 Eu 0.05703 0.50534 0.50364 0.0
O529 O 0.99397 0.48588 0.52359 0.0
O530 O 0.03439 0.48543 0.48369 0.0
Eu531 Eu 0.01402 0.50585 0.54612 0.0
Eu532 Eu 0.01454 0.50501 0.46064 0.0
O533 O 0.99429 0.52547 0.523 0.0
O534 O 0.99433 0.52517 0.48293 0.0
O535 O 0.03462 0.52502 0.48317 0.0
O536 O 0.03426 0.52539 0.52331 0.0
Eu537 Eu 0.01446 0.54767 0.50284 0.0
O538 O 0.01388 0.44522 0.53722 0.0
O539 O 0.01382 0.44447 0.47094 0.0
O540 O 0.01446 0.56646 0.53574 0.0
O541 O 0.01506 0.56559 0.46944 0.0
O542 O 0.9524 0.53821 0.50257 0.0
O543 O 0.95218 0.47304 0.5036 0.0
O544 O 0.07643 0.53782 0.50315 0.0
O545 O 0.07619 0.47276 0.50422 0.0
O546 O 0.04843 0.50505 0.44206 0.0
O547 O 0.9808 0.50457 0.4418 0.0
O548 O 0.04771 0.50601 0.56513 0.0
O549 O 0.98011 0.50618 0.56458 0.0
O550 O 0.04834 0.56612 0.50284 0.0
O551 O 0.98065 0.56635 0.50279 0.0
O552 O 0.04796 0.4446 0.50409 0.0
O553 O 0.98028 0.44476 0.50367 0.0
O554 O 0.01481 0.47205 0.4424 0.0
O555 O 0.0142 0.5374 0.44147 0.0
O556 O 0.01315 0.47338 0.56521 0.0
O557 O 0.0131 0.53887 0.56431 0.0
O558 O 0.95214 0.50651 0.53578 0.0
O559 O 0.95253 0.50467 0.47031 0.0
O560 O 0.07603 0.50656 0.53663 0.0
O561 O 0.07643 0.50415 0.47087 0.0
C562 C 0.51353 0.95136 0.55795 0.0
C563 C 0.51414 0.9516 0.44889 0.0
C564 C 0.51438 0.05993 0.55848 0.0
C565 C 0.51374 0.06018 0.44937 0.0
C566 C 0.45899 0.05997 0.50442 0.0
C567 C 0.45887 0.95167 0.50284 0.0
C568 C 0.56906 0.05977 0.50345 0.0
C569 C 0.56892 0.95162 0.504 0.0
C570 C 0.56873 0.00624 0.44898 0.0
C571 C 0.45836 0.00574 0.44929 0.0
C572 C 0.56855 1.00523 0.55855 0.0
C573 C 0.45816 0.00594 0.55789 0.0
Eu574 Eu 0.51388 0.96404 0.50347 0.0
O575 O 0.49348 0.98619 0.4835 0.0
O576 O 0.53392 0.98624 0.52369 0.0
Eu577 Eu 0.47059 0.00581 0.50361 0.0
Eu578 Eu 0.55713 0.00571 0.50375 0.0
O579 O 0.49343 0.98606 0.52365 0.0
O580 O 0.53416 0.98623 0.48345 0.0
Eu581 Eu 0.5135 0.00569 0.54652 0.0
Eu582 Eu 0.51365 0.00584 0.46084 0.0
O583 O 0.49349 0.02543 0.52377 0.0
O584 O 0.49358 0.02554 0.48367 0.0
O585 O 0.53401 0.02527 0.48376 0.0
O586 O 0.53409 0.02526 0.52392 0.0
Eu587 Eu 0.51398 0.04755 0.50389 0.0
O588 O 0.51381 0.9451 0.53641 0.0
O589 O 0.51424 0.94528 0.47041 0.0
O590 O 0.5146 0.06627 0.53697 0.0
O591 O 0.51397 0.06647 0.47092 0.0
O592 O 0.4517 0.03893 0.50392 0.0
O593 O 0.45163 0.97273 0.50326 0.0
O594 O 0.57619 0.03868 0.50304 0.0
O595 O 0.5761 0.97269 0.5045 0.0
O596 O 0.54707 0.0066 0.44228 0.0
O597 O 0.47996 1.00536 0.44227 0.0
O598 O 0.54687 1.00489 0.56519 0.0
O599 O 0.47974 0.00628 0.56498 0.0
O600 O 0.54737 0.06629 0.50401 0.0
O601 O 0.48074 0.06632 0.50454 0.0
O602 O 0.54721 0.94516 0.50333 0.0
O603 O 0.48061 0.94529 0.50283 0.0
O604 O 0.51385 0.97272 0.44181 0.0
O605 O 0.51347 0.03909 0.44221 0.0
O606 O 0.51325 0.97244 0.56513 0.0
O607 O 0.5138 0.03881 0.56555 0.0
O608 O 0.45139 1.00546 0.53649 0.0
O609 O 0.45151 0.00622 0.47066 0.0
O610 O 0.57582 0.00597 0.53725 0.0
O611 O 0.57594 1.00546 0.4703 0.0
C612 C 0.20366 0.21656 0.50499 0.0
C613 C 0.22414 0.21121 0.49406 0.0
C614 C 0.18523 0.2019 0.5043 0.0
C615 C 0.16337 0.1514 0.47518 0.0
H616 H 0.13172 0.14183 0.53157 0.0
C617 C 0.10857 0.07388 0.493 0.0
C618 C 0.08688 0.07795 0.50206 0.0
C619 C 0.12448 0.09104 0.49137 0.0
C620 C 0.14031 0.14447 0.51567 0.0
H621 H 0.24085 0.18705 0.47263 0.0
H622 H 0.20919 0.16123 0.47211 0.0
H623 H 0.16026 0.17107 0.52892 0.0
H624 H 0.06506 0.10299 0.51709 0.0
H625 H 0.09299 0.13279 0.5145 0.0
H626 H 0.14385 0.12421 0.46225 0.0
C627 C 0.20713 0.17676 0.48103 0.0
C628 C 0.15654 0.16131 0.51408 0.0
C629 C 0.22543 0.19145 0.48158 0.0
C630 C 0.08159 0.09936 0.50989 0.0
C631 C 0.09758 0.1164 0.50853 0.0
C632 C 0.14733 0.1344 0.47687 0.0
C633 C 0.18695 0.18159 0.49272 0.0
C634 C 0.16841 0.16486 0.49386 0.0
C635 C 0.11908 0.11246 0.49907 0.0
C636 C 0.13578 0.13069 0.49717 0.0
H637 H 0.20216 0.23165 0.51477 0.0
H638 H 0.16978 0.20631 0.51316 0.0
H639 H 0.17189 0.15392 0.45923 0.0
H640 H 0.1131 0.05758 0.48675 0.0
H641 H 0.14105 0.08756 0.4842 0.0
C642 C 0.80555 0.19307 0.52989 0.0
C643 C 0.80646 0.21233 0.51661 0.0
C644 C 0.82403 0.17859 0.53076 0.0
C645 C 0.87343 0.16242 0.4964 0.0
H646 H 0.88717 0.12514 0.54779 0.0
C647 C 0.94747 0.09952 0.49786 0.0
C648 C 0.94225 0.07816 0.50583 0.0
C649 C 0.93176 0.11674 0.49988 0.0
C650 C 0.88338 0.13538 0.5333 0.0
H651 H 0.82809 0.23236 0.49516 0.0
H652 H 0.86077 0.20749 0.49738 0.0
H653 H 0.85972 0.15532 0.5517 0.0
H654 H 0.91643 0.05806 0.52209 0.0
H655 H 0.88893 0.08837 0.52578 0.0
H656 H 0.89728 0.14252 0.47811 0.0
C657 C 0.84547 0.20323 0.50657 0.0
C658 C 0.8677 0.15266 0.5355 0.0
C659 C 0.82686 0.21765 0.50554 0.0
C660 C 0.92088 0.07432 0.51569 0.0
C661 C 0.90525 0.09167 0.51799 0.0
C662 C 0.88929 0.14531 0.49429 0.0
C663 C 0.84399 0.18316 0.51858 0.0
C664 C 0.8623 0.16621 0.51699 0.0
C665 C 0.91061 0.11304 0.51015 0.0
C666 C 0.8942 0.13148 0.51263 0.0
H667 H 0.79019 0.18874 0.53896 0.0
H668 H 0.82217 0.16328 0.54009 0.0
H669 H 0.86938 0.17218 0.48166 0.0
H670 H 0.96375 0.10299 0.49005 0.0
H671 H 0.93633 0.13308 0.49379 0.0
C672 C 0.80569 0.81945 0.47714 0.0
C673 C 0.80675 0.80013 0.49032 0.0
C674 C 0.82407 0.83406 0.47632 0.0
C675 C 0.87348 0.85036 0.51062 0.0
H676 H 0.88696 0.88782 0.45931 0.0
C677 C 0.94744 0.91334 0.50908 0.0
C678 C 0.94219 0.93471 0.50115 0.0
C679 C 0.93172 0.89612 0.50708 0.0
C680 C 0.88325 0.87753 0.47378 0.0
H681 H 0.82855 0.78015 0.51165 0.0
H682 H 0.86105 0.80524 0.50951 0.0
H683 H 0.85959 0.85758 0.45539 0.0
H684 H 0.91631 0.95484 0.48501 0.0
H685 H 0.8888 0.92454 0.48138 0.0
H686 H 0.89734 0.87026 0.5289 0.0
C687 C 0.84571 0.80945 0.50037 0.0
C688 C 0.8676 0.86022 0.47157 0.0
C689 C 0.8272 0.7949 0.50134 0.0
C690 C 0.92078 0.93857 0.49137 0.0
C691 C 0.90514 0.92123 0.48911 0.0
C692 C 0.8893 0.8675 0.51274 0.0
C693 C 0.84408 0.82956 0.48845 0.0
C694 C 0.8623 0.84659 0.49005 0.0
C695 C 0.91053 0.89985 0.49689 0.0
C696 C 0.89412 0.8814 0.49442 0.0
H697 H 0.7903 0.82372 0.4681 0.0
H698 H 0.8221 0.8494 0.46705 0.0
H699 H 0.8695 0.84054 0.52534 0.0
H700 H 0.96375 0.90986 0.51681 0.0
H701 H 0.93631 0.87977 0.51313 0.0
C702 C 0.22501 0.82084 0.52474 0.0
C703 C 0.22365 0.80106 0.5123 0.0
C704 C 0.20676 0.8356 0.52526 0.0
C705 C 0.15619 0.85117 0.49222 0.0
H706 H 0.14366 0.88834 0.54404 0.0
C707 C 0.08139 0.91333 0.49653 0.0
C708 C 0.08675 0.93472 0.50436 0.0
C709 C 0.09735 0.89625 0.49784 0.0
C710 C 0.1471 0.87813 0.52942 0.0
H711 H 0.20161 0.78067 0.4916 0.0
H712 H 0.16932 0.80613 0.49314 0.0
H713 H 0.17162 0.85856 0.54704 0.0
H714 H 0.11306 0.95502 0.51959 0.0
H715 H 0.14095 0.92498 0.52206 0.0
H716 H 0.1314 0.87071 0.47474 0.0
C717 C 0.18478 0.8105 0.50201 0.0
C718 C 0.16309 0.86109 0.53111 0.0
C719 C 0.20316 0.79577 0.50136 0.0
C720 C 0.10848 0.93874 0.51334 0.0
C721 C 0.12435 0.92154 0.51493 0.0
C722 C 0.14 0.86806 0.49063 0.0
C723 C 0.18656 0.83082 0.51356 0.0
C724 C 0.16808 0.8476 0.51243 0.0
C725 C 0.11888 0.90014 0.50724 0.0
C726 C 0.13554 0.88186 0.50913 0.0
H727 H 0.24043 0.8252 0.53371 0.0
H728 H 0.20887 0.85114 0.53416 0.0
H729 H 0.15986 0.84139 0.47738 0.0
H730 H 0.06483 0.90974 0.48938 0.0
H731 H 0.09269 0.87987 0.49188 0.0
C732 C 0.52814 0.2113 0.19553 0.0
C733 C 0.51567 0.20679 0.2152 0.0
C734 C 0.52791 0.19634 0.17755 0.0
C735 C 0.52057 0.13764 0.16578 0.0
H736 H 0.50803 0.15545 0.10438 0.0
C737 C 0.50635 0.07313 0.09628 0.0
C738 C 0.51483 0.0777 0.07471 0.0
C739 C 0.50653 0.08945 0.1129 0.0
C740 C 0.51192 0.15025 0.12137 0.0
H741 H 0.49228 0.18357 0.23089 0.0
H742 H 0.49248 0.15727 0.19982 0.0
H743 H 0.50846 0.18335 0.13422 0.0
H744 H 0.53034 0.10289 0.05365 0.0
H745 H 0.53133 0.1312 0.08288 0.0
H746 H 0.52457 0.10473 0.15316 0.0
C747 C 0.50256 0.17227 0.19845 0.0
C748 C 0.51207 0.16622 0.13842 0.0
C749 C 0.50255 0.18729 0.21625 0.0
C750 C 0.52352 0.09893 0.07008 0.0
C751 C 0.52398 0.11519 0.08682 0.0
C752 C 0.52072 0.12175 0.14875 0.0
C753 C 0.51541 0.17654 0.17906 0.0
C754 C 0.51614 0.15998 0.16078 0.0
C755 C 0.51552 0.11063 0.10844 0.0
C756 C 0.51613 0.12779 0.12637 0.0
H757 H 0.53857 0.22605 0.19424 0.0
H758 H 0.53802 0.19991 0.16276 0.0
H759 H 0.5241 0.1325 0.18288 0.0
H760 H 0.49927 0.05701 0.10028 0.0
H761 H 0.4994 0.0855 0.1292 0.0
C762 C 0.82964 0.52312 0.21623 0.0
C763 C 0.80828 0.5127 0.21498 0.0
C764 C 0.84412 0.52339 0.19771 0.0
C765 C 0.85591 0.49369 0.14488 0.0
H766 H 0.89521 0.54428 0.13399 0.0
C767 C 0.91789 0.49998 0.06934 0.0
C768 C 0.94016 0.50678 0.07465 0.0
C769 C 0.90066 0.501 0.08547 0.0
C770 C 0.8844 0.53001 0.13692 0.0
H771 H 0.78509 0.49491 0.19308 0.0
H772 H 0.81026 0.4959 0.16035 0.0
H773 H 0.86621 0.54641 0.16321 0.0
H774 H 0.9618 0.51998 0.10104 0.0
H775 H 0.93161 0.52188 0.12914 0.0
H776 H 0.87416 0.4774 0.11839 0.0
C777 C 0.81594 0.50348 0.17588 0.0
C778 C 0.86781 0.53119 0.15365 0.0
C779 C 0.80143 0.50312 0.19453 0.0
C780 C 0.94485 0.51453 0.09644 0.0
C781 C 0.92755 0.51579 0.11248 0.0
C782 C 0.87238 0.4926 0.12797 0.0
C783 C 0.83755 0.51345 0.17735 0.0
C784 C 0.85365 0.5129 0.15812 0.0
C785 C 0.9053 0.50909 0.10711 0.0
C786 C 0.88701 0.51062 0.12411 0.0
H787 H 0.83526 0.53101 0.23163 0.0
H788 H 0.86074 0.53096 0.19956 0.0
H789 H 0.84549 0.4792 0.14806 0.0
H790 H 0.91375 0.49381 0.05272 0.0
H791 H 0.88362 0.49581 0.08091 0.0
C792 C 0.4981 0.79569 0.18632 0.0
C793 C 0.51228 0.79644 0.20536 0.0
C794 C 0.49719 0.81355 0.1715 0.0
C795 C 0.5073 0.87285 0.16517 0.0
H796 H 0.51863 0.85802 0.1027 0.0
C797 C 0.52144 0.93987 0.09712 0.0
C798 C 0.51274 0.93566 0.07554 0.0
C799 C 0.52097 0.92338 0.1136 0.0
C800 C 0.51506 0.86246 0.11998 0.0
H801 H 0.53586 0.81697 0.22424 0.0
H802 H 0.53376 0.84851 0.19846 0.0
H803 H 0.51754 0.82869 0.13075 0.0
H804 H 0.49609 0.91116 0.05446 0.0
H805 H 0.4946 0.88269 0.08333 0.0
H806 H 0.50429 0.90658 0.15439 0.0
C807 C 0.52352 0.83395 0.19508 0.0
C808 C 0.51454 0.84565 0.13604 0.0
C809 C 0.52465 0.81593 0.20983 0.0
C810 C 0.50323 0.91479 0.07085 0.0
C811 C 0.50247 0.89844 0.0874 0.0
C812 C 0.5075 0.88969 0.14903 0.0
C813 C 0.51017 0.83267 0.17554 0.0
C814 C 0.51062 0.85068 0.15875 0.0
C815 C 0.51153 0.90244 0.10892 0.0
C816 C 0.51136 0.88468 0.12622 0.0
H817 H 0.48791 0.78114 0.1827 0.0
H818 H 0.48648 0.81235 0.15671 0.0
H819 H 0.50413 0.87707 0.1826 0.0
H820 H 0.52901 0.95577 0.10116 0.0
H821 H 0.5284 0.92694 0.12987 0.0
C822 C 0.21789 0.4841 0.19858 0.0
C823 C 0.22191 0.50245 0.21257 0.0
C824 C 0.19946 0.48403 0.18381 0.0
C825 C 0.16467 0.52219 0.15148 0.0
H826 H 0.12644 0.47075 0.14094 0.0
C827 C 0.10833 0.51199 0.07237 0.0
C828 C 0.08584 0.50506 0.07628 0.0
C829 C 0.12429 0.51176 0.08981 0.0
C830 C 0.13693 0.48527 0.14378 0.0
H831 H 0.20953 0.53478 0.22277 0.0
H832 H 0.17717 0.53473 0.19674 0.0
H833 H 0.15429 0.47013 0.17148 0.0
H834 H 0.06261 0.49201 0.10145 0.0
H835 H 0.09048 0.49152 0.13168 0.0
H836 H 0.14748 0.53724 0.12361 0.0
C837 C 0.18834 0.52044 0.19723 0.0
C838 C 0.1529 0.48487 0.16116 0.0
C839 C 0.20666 0.52038 0.21222 0.0
C840 C 0.07975 0.49762 0.09787 0.0
C841 C 0.09573 0.49717 0.11518 0.0
C842 C 0.14887 0.52251 0.13394 0.0
C843 C 0.18484 0.50243 0.1826 0.0
C844 C 0.16695 0.5033 0.16513 0.0
C845 C 0.11811 0.50433 0.11137 0.0
C846 C 0.1349 0.50402 0.1299 0.0
H847 H 0.22942 0.47006 0.19863 0.0
H848 H 0.19724 0.47 0.17263 0.0
H849 H 0.17549 0.53653 0.15401 0.0
H850 H 0.11354 0.51785 0.05594 0.0
H851 H 0.14153 0.51719 0.0864 0.0
C852 C 0.52702 0.80039 0.8116 0.0
C853 C 0.51447 0.80468 0.79192 0.0
C854 C 0.52667 0.81544 0.82949 0.0
C855 C 0.51902 0.87415 0.84078 0.0
H856 H 0.50726 0.85681 0.90246 0.0
C857 C 0.50581 0.9392 0.91002 0.0
C858 C 0.51453 0.93473 0.93152 0.0
C859 C 0.50576 0.92278 0.89349 0.0
C860 C 0.51093 0.86189 0.88538 0.0
H861 H 0.49078 0.82756 0.77617 0.0
H862 H 0.49078 0.85403 0.8071 0.0
H863 H 0.50742 0.82867 0.87286 0.0
H864 H 0.53024 0.90962 0.95254 0.0
H865 H 0.53083 0.88116 0.92347 0.0
H866 H 0.52312 0.90717 0.85308 0.0
C867 C 0.50101 0.83913 0.80854 0.0
C868 C 0.51092 0.84578 0.86847 0.0
C869 C 0.50111 0.82401 0.79081 0.0
C870 C 0.52323 0.91351 0.93616 0.0
C871 C 0.52347 0.89716 0.91952 0.0
C872 C 0.51934 0.89019 0.85767 0.0
C873 C 0.51398 0.83511 0.8279 0.0
C874 C 0.51473 0.85185 0.84602 0.0
C875 C 0.51473 0.9016 0.89797 0.0
C876 C 0.51506 0.88432 0.88016 0.0
H877 H 0.53763 0.78575 0.81292 0.0
H878 H 0.53689 0.81206 0.84426 0.0
H879 H 0.52235 0.87916 0.8236 0.0
H880 H 0.49871 0.95532 0.90602 0.0
H881 H 0.49844 0.92666 0.87725 0.0
C882 C 0.20686 0.49189 0.79468 0.0
C883 C 0.2222 0.50974 0.79423 0.0
C884 C 0.18861 0.49197 0.80975 0.0
C885 C 0.15354 0.5278 0.84593 0.0
H886 H 0.1479 0.47544 0.88348 0.0
C887 C 0.08032 0.51532 0.90915 0.0
C888 C 0.08632 0.50773 0.93072 0.0
C889 C 0.09636 0.51577 0.89189 0.0
C890 C 0.14936 0.49018 0.87316 0.0
H891 H 0.22994 0.54213 0.80805 0.0
H892 H 0.19788 0.54242 0.83418 0.0
H893 H 0.17583 0.476 0.85301 0.0
H894 H 0.11389 0.49474 0.95109 0.0
H895 H 0.14198 0.49542 0.92071 0.0
H896 H 0.12722 0.54206 0.86621 0.0
C897 C 0.19997 0.52835 0.82303 0.0
C898 C 0.16511 0.4904 0.85558 0.0
C899 C 0.21834 0.52815 0.80818 0.0
C900 C 0.10877 0.50071 0.93468 0.0
C901 C 0.12478 0.50095 0.91728 0.0
C902 C 0.13763 0.52749 0.86335 0.0
C903 C 0.18527 0.51002 0.82435 0.0
C904 C 0.16746 0.50927 0.84191 0.0
C905 C 0.1187 0.50849 0.89574 0.0
C906 C 0.13551 0.50874 0.87723 0.0
H907 H 0.20961 0.47745 0.78417 0.0
H908 H 0.17737 0.47773 0.81032 0.0
H909 H 0.15499 0.54253 0.83559 0.0
H910 H 0.06322 0.52101 0.90554 0.0
H911 H 0.09118 0.52152 0.87541 0.0
C912 C 0.49664 0.21609 0.81901 0.0
C913 C 0.51114 0.21542 0.80022 0.0
C914 C 0.49557 0.19821 0.83381 0.0
C915 C 0.50617 0.13904 0.8406 0.0
H916 H 0.5173 0.1544 0.90298 0.0
C917 C 0.52115 0.07259 0.90902 0.0
C918 C 0.51243 0.07682 0.93059 0.0
C919 C 0.52048 0.089 0.89246 0.0
C920 C 0.51378 0.14981 0.88573 0.0
H921 H 0.53506 0.19499 0.78164 0.0
H922 H 0.5327 0.16341 0.80736 0.0
H923 H 0.51587 0.18352 0.87473 0.0
H924 H 0.49557 0.10124 0.95158 0.0
H925 H 0.49371 0.12956 0.92258 0.0
H926 H 0.50356 0.10535 0.8516 0.0
C927 C 0.52233 0.17793 0.81059 0.0
C928 C 0.51306 0.1665 0.86955 0.0
C929 C 0.52361 0.19596 0.79587 0.0
C930 C 0.50273 0.09761 0.9352 0.0
C931 C 0.50176 0.11388 0.91857 0.0
C932 C 0.50656 0.1223 0.85686 0.0
C933 C 0.50873 0.17917 0.82996 0.0
C934 C 0.50924 0.16127 0.84688 0.0
C935 C 0.51079 0.10986 0.89705 0.0
C936 C 0.51036 0.12751 0.87963 0.0
H937 H 0.48638 0.23062 0.82253 0.0
H938 H 0.48468 0.19937 0.84846 0.0
H939 H 0.50309 0.13466 0.82319 0.0
H940 H 0.52888 0.05675 0.90503 0.0
H941 H 0.52792 0.08544 0.87619 0.0
C942 C 0.80179 0.50917 0.81167 0.0
C943 C 0.80851 0.49951 0.79121 0.0
C944 C 0.81643 0.50893 0.83021 0.0
C945 C 0.86856 0.48148 0.85221 0.0
H946 H 0.87475 0.53534 0.8874 0.0
C947 C 0.94548 0.49835 0.90959 0.0
C948 C 0.94067 0.50604 0.93138 0.0
C949 C 0.92825 0.49709 0.89347 0.0
C950 C 0.87302 0.52013 0.87784 0.0
H951 H 0.83543 0.48121 0.77446 0.0
H952 H 0.86115 0.48149 0.80634 0.0
H953 H 0.84603 0.53339 0.85779 0.0
H954 H 0.91413 0.51894 0.9532 0.0
H955 H 0.88414 0.51694 0.92489 0.0
H956 H 0.89605 0.46852 0.87184 0.0
C957 C 0.84453 0.48902 0.80828 0.0
C958 C 0.85652 0.51895 0.86096 0.0
C959 C 0.82989 0.48915 0.78986 0.0
C960 C 0.91837 0.51282 0.9366 0.0
C961 C 0.90121 0.5118 0.92039 0.0
C962 C 0.88518 0.48275 0.86891 0.0
C963 C 0.83807 0.49903 0.82864 0.0
C964 C 0.8543 0.4997 0.84776 0.0
C965 C 0.90596 0.50374 0.89875 0.0
C966 C 0.88772 0.50216 0.8817 0.0
H967 H 0.78544 0.51733 0.8132 0.0
H968 H 0.81084 0.51657 0.84575 0.0
H969 H 0.86699 0.46624 0.84269 0.0
H970 H 0.96245 0.49293 0.90506 0.0
H971 H 0.93238 0.49103 0.87682 0.0
C972 C 0.72499 0.69138 0.98175 0.0
C973 C 0.72367 0.71115 0.99423 0.0
C974 C 0.70673 0.67665 0.98124 0.0
C975 C 0.65625 0.66105 0.01438 0.0
H976 H 0.64358 0.62392 0.96258 0.0
C977 C 0.58148 0.59887 0.01029 0.0
C978 C 0.58682 0.57748 1.00242 0.0
C979 C 0.59742 0.61596 0.00894 0.0
C980 C 0.64705 0.63411 0.97719 0.0
H981 H 0.70168 0.73153 0.01498 0.0
H982 H 0.66936 0.7061 0.01345 0.0
H983 H 0.67152 0.65371 0.95951 0.0
H984 H 0.61307 0.55721 0.98706 0.0
H985 H 0.64093 0.58726 0.98451 0.0
H986 H 0.63152 0.6415 0.03192 0.0
C987 C 0.68481 0.70173 0.00455 0.0
C988 C 0.66304 0.65116 0.97547 0.0
C989 C 0.7032 0.71644 0.0052 0.0
C990 C 0.6085 0.57348 0.99334 0.0
C991 C 0.62436 0.59069 0.99171 0.0
C992 C 0.64007 0.64416 0.01601 0.0
C993 C 0.68656 0.68142 0.99297 0.0
C994 C 0.66807 0.66464 0.99414 0.0
C995 C 0.61891 0.61208 0.99944 0.0
C996 C 0.63556 0.63037 0.99751 0.0
H997 H 0.7404 0.68702 0.97277 0.0
H998 H 0.70881 0.66112 0.97231 0.0
H999 H 0.65996 0.67083 0.02921 0.0
H1000 H 0.56495 0.60244 0.01751 0.0
H1001 H 0.59279 0.63232 0.01493 0.0
C1002 C 0.32723 0.7173 0.0053 0.0
C1003 C 0.30678 0.7121 0.01634 0.0
C1004 C 0.34575 0.70277 0.00635 0.0
C1005 C 0.36765 0.6521 0.03534 0.0
H1006 H 0.3974 0.64187 0.97805 0.0
C1007 C 0.42084 0.57367 0.01575 0.0
C1008 C 0.44225 0.57751 0.00599 0.0
C1009 C 0.40519 0.59102 0.01797 0.0
C1010 C 0.38936 0.64468 0.9942 0.0
H1011 H 0.29035 0.6886 0.03867 0.0
H1012 H 0.32217 0.66295 0.03984 0.0
H1013 H 0.36957 0.67161 0.9815 0.0
H1014 H 0.46383 0.60235 0.99032 0.0
H1015 H 0.43639 0.63244 0.99392 0.0
H1016 H 0.387 0.62452 0.0477 0.0
C1017 C 0.32413 0.67825 0.03051 0.0
C1018 C 0.37354 0.66183 0.99626 0.0
C1019 C 0.30575 0.69284 0.02962 0.0
C1020 C 0.44751 0.59888 0.99805 0.0
C1021 C 0.43179 0.6161 1.0 0.0
C1022 C 0.38329 0.63477 0.03319 0.0
C1023 C 0.34413 0.68271 0.01836 0.0
C1024 C 0.36236 0.66567 0.01682 0.0
C1025 C 0.41058 0.61239 0.01016 0.0
C1026 C 0.39418 0.63084 0.01256 0.0
H1027 H 0.32856 0.732 0.99492 0.0
H1028 H 0.36109 0.70694 0.99718 0.0
H1029 H 0.35964 0.65478 0.05151 0.0
H1030 H 0.41635 0.55741 0.02212 0.0
H1031 H 0.38883 0.58772 0.02569 0.0
C1032 C 0.32495 0.29709 0.00719 0.0
C1033 C 0.30673 0.29873 0.99205 0.0
C1034 C 0.34289 0.31228 0.00623 0.0
C1035 C 0.35423 0.36921 0.98617 0.0
H1036 H 0.41621 0.35539 0.00348 0.0
C1037 C 0.41971 0.43775 0.00608 0.0
C1038 C 0.4423 0.43415 0.9993 0.0
C1039 C 0.40365 0.4207 0.00444 0.0
C1040 C 0.39904 0.35952 0.99836 0.0
H1041 H 0.29356 0.31624 0.96308 0.0
H1042 H 0.32531 0.34223 0.96072 0.0
H1043 H 0.38847 0.3256 1.00003 0.0
H1044 H 0.46565 0.41006 0.98494 0.0
H1045 H 0.43761 0.38069 0.98153 0.0
H1046 H 0.36491 0.40301 0.98385 0.0
C1047 C 0.32546 0.32979 0.97385 0.0
C1048 C 0.38306 0.34244 0.99664 0.0
C1049 C 0.30741 0.31481 0.97503 0.0
C1050 C 0.44844 0.41329 0.99061 0.0
C1051 C 0.43237 0.39638 0.98874 0.0
C1052 C 0.37024 0.38624 0.98768 0.0
C1053 C 0.34301 0.32921 0.98993 0.0
C1054 C 0.36042 0.34709 0.99064 0.0
C1055 C 0.4098 0.39981 0.99574 0.0
C1056 C 0.39281 0.38164 0.99392 0.0
H1057 H 0.32462 0.28493 0.0206 0.0
H1058 H 0.356 0.31143 0.01899 0.0
H1059 H 0.33686 0.3735 0.9819 0.0
H1060 H 0.41451 0.45359 0.01299 0.0
H1061 H 0.38649 0.42382 0.0103 0.0
C1062 C 0.70372 0.29567 1.00168 0.0
C1063 C 0.72421 0.30098 0.0126 0.0
C1064 C 0.68531 0.31035 1.00238 0.0
C1065 C 0.66353 0.36087 0.03154 0.0
H1066 H 0.63179 0.37043 0.97519 0.0
C1067 C 0.60864 0.43835 0.01378 0.0
C1068 C 0.58694 0.43426 0.00476 0.0
C1069 C 0.62456 0.4212 0.0154 0.0
C1070 C 0.6404 0.36779 0.99108 0.0
H1071 H 0.74096 0.32512 0.03403 0.0
H1072 H 0.70934 0.35098 0.03457 0.0
H1073 H 0.66034 0.3412 0.9778 0.0
H1074 H 0.56512 0.40921 0.98977 0.0
H1075 H 0.59306 0.37942 0.99234 0.0
H1076 H 0.64401 0.38804 0.0445 0.0
C1077 C 0.70726 0.33545 0.02564 0.0
C1078 C 0.65664 0.35096 0.99264 0.0
C1079 C 0.72554 0.32074 0.02508 0.0
C1080 C 0.58165 0.41285 0.99695 0.0
C1081 C 0.59766 0.39581 0.99829 0.0
C1082 C 0.64748 0.37786 0.02987 0.0
C1083 C 0.68706 0.33065 0.01396 0.0
C1084 C 0.66854 0.3474 0.01285 0.0
C1085 C 0.61916 0.39978 0.00772 0.0
C1086 C 0.63589 0.38156 0.00959 0.0
H1087 H 0.70219 0.28058 0.99189 0.0
H1088 H 0.66984 0.30596 0.99353 0.0
H1089 H 0.67207 0.35834 0.04747 0.0
H1090 H 0.61316 0.45465 0.02001 0.0
H1091 H 0.64114 0.42469 0.02255 0.0
C1092 C 0.99433 0.69078 0.71285 0.0
C1093 C 0.00902 0.70918 0.71191 0.0
C1094 C 0.99324 0.67584 0.69501 0.0
C1095 C 0.00452 0.66752 0.63533 0.0
H1096 H 0.01576 0.60646 0.65267 0.0
C1097 C 0.02123 0.59868 0.56988 0.0
C1098 C 0.01261 0.57741 0.5744 0.0
C1099 C 0.02019 0.61532 0.58619 0.0
C1100 C 0.01221 0.62333 0.64752 0.0
H1101 H 0.03312 0.72698 0.69096 0.0
H1102 H 0.03072 0.70099 0.65944 0.0
H1103 H 0.01366 0.63509 0.68142 0.0
H1104 H 0.99565 0.55698 0.59929 0.0
H1105 H 0.99314 0.58613 0.62746 0.0
H1106 H 0.00257 0.65577 0.60145 0.0
C1107 C 0.02023 0.69817 0.67414 0.0
C1108 C 0.0111 0.63973 0.664 0.0
C1109 C 0.02154 0.71305 0.69214 0.0
C1110 C 0.00273 0.57314 0.59544 0.0
C1111 C 0.00138 0.58985 0.61162 0.0
C1112 C 0.0053 0.65104 0.61881 0.0
C1113 C 0.00655 0.67914 0.67573 0.0
C1114 C 0.00726 0.66194 0.65806 0.0
C1115 C 0.0102 0.61112 0.60725 0.0
C1116 C 0.00919 0.62873 0.62471 0.0
H1117 H 0.98404 0.68765 0.72762 0.0
H1118 H 0.98227 0.66145 0.69643 0.0
H1119 H 0.00144 0.68456 0.6304 0.0
H1120 H 0.0291 0.60241 0.55384 0.0
H1121 H 0.02752 0.63136 0.58237 0.0
C1122 C 0.3011 1.00329 0.69474 0.0
C1123 C 0.3079 0.01291 0.71519 0.0
C1124 C 0.31566 1.0036 0.67613 0.0
C1125 C 0.36764 0.03119 0.65398 0.0
H1126 H 0.37404 0.97729 0.61891 0.0
C1127 C 0.44478 0.01433 0.59692 0.0
C1128 C 0.4401 0.00649 0.57515 0.0
C1129 C 0.42747 0.01565 0.61294 0.0
C1130 C 0.37225 0.99251 0.62843 0.0
H1131 H 0.33484 0.03126 0.73186 0.0
H1132 H 0.3604 0.03112 0.69986 0.0
H1133 H 0.34528 0.97921 0.64848 0.0
H1134 H 0.4137 0.99344 0.55326 0.0
H1135 H 0.38356 0.99554 0.58141 0.0
H1136 H 0.39511 0.0442 0.63435 0.0
C1137 C 0.34379 0.02355 0.69798 0.0
C1138 C 0.35572 0.99367 0.64529 0.0
C1139 C 0.32925 0.02334 0.71646 0.0
C1140 C 0.41784 0.99967 0.56986 0.0
C1141 C 0.4006 1.00075 0.58597 0.0
C1142 C 0.38428 0.02995 0.6373 0.0
C1143 C 0.33727 0.01356 0.67763 0.0
C1144 C 0.35344 0.01293 0.65846 0.0
C1145 C 0.40522 0.00893 0.60759 0.0
C1146 C 0.38691 0.01051 0.62456 0.0
H1147 H 0.28476 0.99508 0.69327 0.0
H1148 H 0.31003 0.99597 0.66061 0.0
H1149 H 0.36602 0.04645 0.66348 0.0
H1150 H 0.46172 0.0198 0.6015 0.0
H1151 H 0.43151 0.02181 0.62958 0.0
C1152 C 0.99073 0.29776 0.69097 0.0
C1153 C 0.00868 0.29595 0.70643 0.0
C1154 C 0.98963 0.31578 0.67628 0.0
C1155 C 0.01333 0.37199 0.66563 0.0
H1156 H 0.9961 0.35886 0.60412 0.0
C1157 C 0.00495 0.44026 0.59797 0.0
C1158 C 0.01249 0.43503 0.57617 0.0
C1159 C 0.0036 0.42382 0.61446 0.0
C1160 C 0.00115 0.36279 0.62118 0.0
H1161 H 0.03936 0.31161 0.71896 0.0
H1162 H 0.03775 0.34287 0.69303 0.0
H1163 H 0.99529 0.32954 0.6321 0.0
H1164 H 0.02507 0.40857 0.55475 0.0
H1165 H 0.02327 0.38009 0.58361 0.0
H1166 H 0.02014 0.40504 0.65443 0.0
C1167 C 0.02422 0.33068 0.69253 0.0
C1168 C 0.00033 0.34604 0.63732 0.0
C1169 C 0.0252 0.31275 0.70735 0.0
C1170 C 0.01894 0.41311 0.5713 0.0
C1171 C 0.01779 0.39674 0.58783 0.0
C1172 C 0.01431 0.38872 0.64943 0.0
C1173 C 0.00659 0.33224 0.6766 0.0
C1174 C 0.00651 0.3504 0.65973 0.0
C1175 C 0.00995 0.40185 0.60956 0.0
C1176 C 0.00837 0.38428 0.62697 0.0
H1177 H 0.97763 0.28513 0.69013 0.0
H1178 H 0.97556 0.3167 0.66455 0.0
H1179 H 0.01796 0.37598 0.68279 0.0
H1180 H -0.00034 0.45696 0.60221 0.0
H1181 H 0.99719 0.42827 0.63093 0.0
C1182 C 0.71796 0.98418 0.69898 0.0
C1183 C 0.72196 1.00261 0.71287 0.0
C1184 C 0.69951 0.98402 0.68422 0.0
C1185 C 0.66471 0.02201 0.65169 0.0
H1186 H 0.62649 0.97052 0.64139 0.0
C1187 C 0.60833 0.01149 0.57265 0.0
C1188 C 0.58583 1.00459 0.57661 0.0
C1189 C 0.62431 0.01131 0.59007 0.0
C1190 C 0.63698 0.98504 0.64416 0.0
H1191 H 0.70955 0.03497 0.7229 0.0
H1192 H 0.67718 0.03476 0.6969 0.0
H1193 H 0.65434 0.97003 0.67193 0.0
H1194 H 0.56262 0.99166 0.60186 0.0
H1195 H 0.59052 0.99126 0.63205 0.0
H1196 H 0.64752 0.03693 0.62375 0.0
C1197 C 0.68836 0.02048 0.69746 0.0
C1198 C 0.65295 0.98472 0.66154 0.0
C1199 C 0.70669 0.02052 0.71244 0.0
C1200 C 0.57976 0.99724 0.59824 0.0
C1201 C 0.59576 0.99685 0.61553 0.0
C1202 C 0.64891 0.02224 0.63415 0.0
C1203 C 0.68488 1.0024 0.68292 0.0
C1204 C 0.66699 1.00318 0.66543 0.0
C1205 C 0.61815 1.00397 0.61166 0.0
C1206 C 0.63495 1.00374 0.63019 0.0
H1207 H 0.72951 0.97016 0.69909 0.0
H1208 H 0.6973 0.96993 0.67312 0.0
H1209 H 0.67553 0.03636 0.65416 0.0
H1210 H 0.61352 0.01728 0.55619 0.0
H1211 H 0.64155 0.01672 0.58663 0.0
C1212 C 0.02666 0.30266 0.3092 0.0
C1213 C 0.01005 0.30363 0.29227 0.0
C1214 C 0.0261 0.3176 0.32715 0.0
C1215 C 0.00308 0.37266 0.34214 0.0
H1216 H 0.02229 0.35617 0.40221 0.0
C1217 C 0.02064 0.43829 0.41001 0.0
C1218 C 0.01381 0.43356 0.43213 0.0
C1219 C 0.01989 0.42187 0.39348 0.0
C1220 C 0.01665 0.361 0.38558 0.0
H1221 H 0.97925 0.32011 0.28126 0.0
H1222 H 0.97787 0.34586 0.31287 0.0
H1223 H 0.02017 0.32794 0.37296 0.0
H1224 H 0.0007 0.40791 0.45423 0.0
H1225 H 0.99891 0.37942 0.42526 0.0
H1226 H 0.99892 0.40555 0.35485 0.0
C1227 C 0.99172 0.33404 0.31202 0.0
C1228 C 0.0157 0.34487 0.36874 0.0
C1229 C 0.99242 0.31925 0.29398 0.0
C1230 C 0.00628 0.41204 0.43738 0.0
C1231 C 0.00533 0.39567 0.42079 0.0
C1232 C 0.00386 0.38873 0.35899 0.0
C1233 C 0.00878 0.33366 0.3286 0.0
C1234 C 0.00902 0.35054 0.34679 0.0
C1235 C 0.01207 0.40042 0.39863 0.0
C1236 C 0.01081 0.38314 0.38087 0.0
H1237 H 0.04055 0.29088 0.30813 0.0
H1238 H 0.03967 0.31702 0.33945 0.0
H1239 H 0.99818 0.3777 0.32535 0.0
H1240 H 0.02676 0.45463 0.40546 0.0
H1241 H 0.02564 0.42598 0.37669 0.0
C1242 C 0.70675 0.99157 0.29498 0.0
C1243 C 0.72195 0.00953 0.29451 0.0
C1244 C 0.68851 0.99152 0.31007 0.0
C1245 C 0.65316 0.02712 0.34617 0.0
H1246 H 0.64791 0.97482 0.38385 0.0
C1247 C 0.58 0.0143 0.40935 0.0
C1248 C 0.58605 0.00692 0.43098 0.0
C1249 C 0.59603 0.01475 0.39209 0.0
C1250 C 0.64926 0.98954 0.37349 0.0
H1251 H 0.72948 0.04197 0.30835 0.0
H1252 H 0.69743 0.04203 0.3345 0.0
H1253 H 0.67587 0.97551 0.3534 0.0
H1254 H 0.61372 0.99424 0.45143 0.0
H1255 H 0.64181 0.99492 0.42104 0.0
H1256 H 0.6267 0.04123 0.36638 0.0
C1257 C 0.69962 0.02797 0.32335 0.0
C1258 C 0.66503 0.98984 0.35593 0.0
C1259 C 0.71798 0.02791 0.30849 0.0
C1260 C 0.60855 1.00006 0.43497 0.0
C1261 C 0.62456 1.0003 0.41757 0.0
C1262 C 0.63723 0.02673 0.36357 0.0
C1263 C 0.68505 0.00955 0.32467 0.0
C1264 C 0.66723 0.0087 0.34221 0.0
C1265 C 0.61842 0.00767 0.39599 0.0
C1266 C 0.63525 0.008 0.37749 0.0
H1267 H 0.70959 0.97716 0.28445 0.0
H1268 H 0.67737 0.9772 0.31064 0.0
H1269 H 0.6545 0.04184 0.3358 0.0
H1270 H 0.56285 0.01985 0.4057 0.0
H1271 H 0.59081 0.02036 0.37557 0.0
C1272 C 0.00888 0.69598 0.2954 0.0
C1273 C 0.02186 0.71484 0.3009 0.0
C1274 C 0.00818 0.67779 0.30998 0.0
C1275 C 0.01268 0.66526 0.3693 0.0
H1276 H 0.02432 0.60436 0.35168 0.0
C1277 C 0.02371 0.59689 0.43516 0.0
C1278 C 0.01506 0.57568 0.43048 0.0
C1279 C 0.02413 0.61316 0.41852 0.0
C1280 C 0.02065 0.62123 0.35681 0.0
H1281 H 0.04549 0.72873 0.32521 0.0
H1282 H 0.04367 0.69731 0.35084 0.0
H1283 H 0.02585 0.63383 0.32344 0.0
H1284 H -0.00012 0.55488 0.40474 0.0
H1285 H -3e-05 0.58355 0.37582 0.0
H1286 H 0.00696 0.65295 0.40244 0.0
C1287 C 0.03388 0.69674 0.33541 0.0
C1288 C 0.02163 0.63805 0.34065 0.0
C1289 C 0.03482 0.71473 0.32077 0.0
C1290 C 0.00681 0.57106 0.4088 0.0
C1291 C 0.00695 0.58745 0.3922 0.0
C1292 C 0.01139 0.64848 0.38535 0.0
C1293 C 0.02026 0.67831 0.33034 0.0
C1294 C 0.01801 0.66021 0.34689 0.0
C1295 C 0.01559 0.60872 0.39689 0.0
C1296 C 0.01574 0.6263 0.37941 0.0
H1297 H 0.99862 0.6956 0.28027 0.0
H1298 H 0.99753 0.66371 0.30579 0.0
H1299 H 0.00944 0.68223 0.3744 0.0
H1300 H 0.03049 0.60087 0.45162 0.0
H1301 H 0.0314 0.62918 0.4226 0.0
C1302 C 0.3301 0.98906 0.29002 0.0
C1303 C 0.30873 0.99945 0.29132 0.0
C1304 C 0.34465 0.98884 0.30849 0.0
C1305 C 0.35651 0.01855 0.36133 0.0
H1306 H 0.39573 0.9679 0.37226 0.0
C1307 C 0.4181 0.01207 0.43713 0.0
C1308 C 0.44039 1.00525 0.43194 0.0
C1309 C 0.40096 0.0111 0.4209 0.0
C1310 C 0.38494 0.98219 0.36932 0.0
H1311 H 0.28562 0.01729 0.31327 0.0
H1312 H 0.31089 0.01638 0.34591 0.0
H1313 H 0.36681 0.96584 0.34295 0.0
H1314 H 0.46216 0.99205 0.40565 0.0
H1315 H 0.43212 0.99022 0.37737 0.0
H1316 H 0.37469 0.03478 0.3879 0.0
C1317 C 0.31653 0.00877 0.33037 0.0
C1318 C 0.36841 0.98105 0.35253 0.0
C1319 C 0.30195 0.00909 0.31177 0.0
C1320 C 0.44519 0.99751 0.41016 0.0
C1321 C 0.42798 0.99629 0.39403 0.0
C1322 C 0.37293 0.0196 0.37829 0.0
C1323 C 0.33813 0.99881 0.32886 0.0
C1324 C 0.35426 0.99935 0.34806 0.0
C1325 C 0.40572 1.00302 0.39927 0.0
C1326 C 0.38752 1.00156 0.38217 0.0
H1327 H 0.33567 0.98113 0.27462 0.0
H1328 H 0.36126 0.98128 0.3066 0.0
H1329 H 0.34611 0.03305 0.35815 0.0
H1330 H 0.41387 0.01823 0.45373 0.0
H1331 H 0.3839 0.0163 0.42538 0.0
C1332 C 0.01505 0.17903 0.27906 0.0
C1333 C 0.00767 0.20101 0.28209 0.0
C1334 C 0.01706 0.1646 0.29745 0.0
C1335 C 0.02108 0.16221 0.35996 0.0
H1336 H 0.9976 0.10268 0.35158 0.0
C1337 C 0.01052 0.09971 0.43436 0.0
C1338 C 0.01464 0.0771 0.42995 0.0
C1339 C 0.01025 0.11535 0.41681 0.0
C1340 C 0.00457 0.11911 0.35423 0.0
H1341 H 0.99756 0.22535 0.3069 0.0
H1342 H 0.00123 0.20026 0.33911 0.0
H1343 H 0.997 0.12874 0.3204 0.0
H1344 H 0.0224 0.05354 0.4034 0.0
H1345 H 0.02235 0.08058 0.37322 0.0
H1346 H 0.02877 0.15248 0.39382 0.0
C1347 C 0.00545 0.19411 0.32251 0.0
C1348 C 0.0042 0.13412 0.33626 0.0
C1349 C 0.00332 0.20851 0.30407 0.0
C1350 C 0.01886 0.0707 0.40756 0.0
C1351 C 0.01871 0.08628 0.39011 0.0
C1352 C 0.02157 0.14711 0.37797 0.0
C1353 C 0.01192 0.1718 0.31942 0.0
C1354 C 0.01252 0.15587 0.33879 0.0
C1355 C 0.01419 0.10884 0.39436 0.0
C1356 C 0.0134 0.12527 0.37536 0.0
H1357 H 0.01871 0.17283 0.26235 0.0
H1358 H 0.02251 0.1477 0.29442 0.0
H1359 H 0.02781 0.17874 0.36253 0.0
H1360 H 0.00714 0.10533 0.45134 0.0
H1361 H 0.00649 0.13248 0.42083 0.0
C1362 C 0.80809 0.02928 0.30954 0.0
C1363 C 0.80638 0.01248 0.2932 0.0
C1364 C 0.82619 0.02956 0.32469 0.0
C1365 C 0.88373 0.0114 0.33685 0.0
H1366 H 0.86294 0.00825 0.39868 0.0
C1367 C 0.94635 0.99655 0.41017 0.0
C1368 C 0.94188 0.00691 0.43087 0.0
C1369 C 0.93033 0.99715 0.39283 0.0
C1370 C 0.86915 0.00953 0.38159 0.0
H1371 H 0.82337 0.98387 0.27879 0.0
H1372 H 0.8556 0.98484 0.30503 0.0
H1373 H 0.83529 0.01088 0.36835 0.0
H1374 H 0.91725 0.0262 0.44962 0.0
H1375 H 0.88962 0.0281 0.41914 0.0
H1376 H 0.91761 0.01084 0.34996 0.0
C1377 C 0.8426 0.99754 0.30618 0.0
C1378 C 0.85326 0.01089 0.36421 0.0
C1379 C 0.82424 0.99706 0.29113 0.0
C1380 C 0.92104 0.01787 0.43392 0.0
C1381 C 0.90517 0.01884 0.41642 0.0
C1382 C 0.89971 0.01046 0.35428 0.0
C1383 C 0.84322 0.01331 0.32358 0.0
C1384 C 0.86039 0.01186 0.34171 0.0
C1385 C 0.90958 0.00848 0.39561 0.0
C1386 C 0.89263 0.00949 0.37693 0.0
H1387 H 0.79488 0.04172 0.31124 0.0
H1388 H 0.82653 0.04211 0.33773 0.0
H1389 H 0.8896 0.01222 0.3196 0.0
H1390 H 0.96219 0.98774 0.40742 0.0
H1391 H 0.93419 0.98852 0.37733 0.0
C1392 C 0.00654 0.81492 0.29224 0.0
C1393 C 0.02161 0.79726 0.29655 0.0
C1394 C 0.00561 0.83333 0.30687 0.0
C1395 C 0.01442 0.84613 0.36622 0.0
H1396 H 0.01888 0.90813 0.34974 0.0
C1397 C 0.02322 0.9139 0.43456 0.0
C1398 C 0.01427 0.93516 0.43058 0.0
C1399 C 0.02363 0.89788 0.41744 0.0
C1400 C 0.01717 0.89094 0.35472 0.0
H1401 H 0.04882 0.78613 0.31849 0.0
H1402 H 0.04681 0.81768 0.34394 0.0
H1403 H 0.02011 0.87958 0.3205 0.0
H1404 H 0.99826 0.95602 0.40545 0.0
H1405 H 0.99806 0.92796 0.376 0.0
H1406 H 0.01079 0.85704 0.40018 0.0
C1407 C 0.0355 0.81724 0.32955 0.0
C1408 C 0.01798 0.87458 0.33786 0.0
C1409 C 0.03664 0.79916 0.31491 0.0
C1410 C 0.00549 0.93988 0.40909 0.0
C1411 C 0.00553 0.92374 0.39207 0.0
C1412 C 0.0132 0.8624 0.38299 0.0
C1413 C 0.01958 0.83425 0.32612 0.0
C1414 C 0.017 0.85197 0.34349 0.0
C1415 C 0.01468 0.90245 0.39589 0.0
C1416 C 0.01494 0.88512 0.37763 0.0
H1417 H 0.99472 0.81398 0.2783 0.0
H1418 H 0.99322 0.84627 0.30377 0.0
H1419 H 0.01329 0.82884 0.37107 0.0
H1420 H 0.03037 0.90975 0.45081 0.0
H1421 H 0.03134 0.88199 0.42112 0.0
C1422 C 0.21002 0.9956 0.29577 0.0
C1423 C 0.20351 0.00793 0.27675 0.0
C1424 C 0.19652 0.99554 0.31512 0.0
C1425 C 0.1507 0.02772 0.34325 0.0
H1426 H 0.14371 0.97434 0.379 0.0
C1427 C 0.0803 0.01688 0.40938 0.0
C1428 C 0.08633 0.00779 0.43032 0.0
C1429 C 0.09594 0.01747 0.39176 0.0
C1430 C 0.14576 0.98943 0.36931 0.0
H1431 H 0.17775 0.02978 0.26315 0.0
H1432 H 0.15367 0.02902 0.29654 0.0
H1433 H 0.16772 0.97364 0.34549 0.0
H1434 H 0.11358 0.99231 0.44924 0.0
H1435 H 0.14098 0.99303 0.41809 0.0
H1436 H 0.12813 0.04325 0.36674 0.0
C1437 C 0.16946 0.01975 0.29674 0.0
C1438 C 0.15951 0.98906 0.35012 0.0
C1439 C 0.18308 0.01998 0.27749 0.0
C1440 C 0.10847 0.99945 0.43331 0.0
C1441 C 0.12407 0.99975 0.41549 0.0
C1442 C 0.13678 0.028 0.36227 0.0
C1443 C 0.17613 0.00774 0.31592 0.0
C1444 C 0.16199 0.00816 0.33671 0.0
C1445 C 0.11791 0.00877 0.39456 0.0
C1446 C 0.13401 0.00881 0.37538 0.0
H1447 H 0.22558 0.98608 0.29589 0.0
H1448 H 0.20236 0.98629 0.32962 0.0
H1449 H 0.15262 0.04289 0.3337 0.0
H1450 H 0.06345 0.02362 0.40655 0.0
H1451 H 0.09066 0.02435 0.37576 0.0
C1452 C 0.01491 0.83291 0.72728 0.0
C1453 C 0.00652 0.81127 0.72429 0.0
C1454 C 0.01685 0.84747 0.70898 0.0
C1455 C 0.01927 0.85016 0.64643 0.0
H1456 H 0.99858 0.91054 0.65562 0.0
C1457 C 0.00961 0.91319 0.57242 0.0
C1458 C 0.01453 0.93565 0.57676 0.0
C1459 C 0.00916 0.89755 0.58996 0.0
C1460 C 0.00478 0.89387 0.65273 0.0
H1461 H 0.99446 0.78767 0.69959 0.0
H1462 H 0.99806 0.81295 0.66754 0.0
H1463 H 0.9977 0.88439 0.68672 0.0
H1464 H 0.02354 0.95894 0.60317 0.0
H1465 H 0.02324 0.93188 0.63333 0.0
H1466 H 0.02654 0.85972 0.61244 0.0
C1467 C 0.0031 0.81874 0.68405 0.0
C1468 C 0.00423 0.8788 0.67066 0.0
C1469 C 0.001 0.80423 0.70241 0.0
C1470 C 0.01937 0.94191 0.59907 0.0
C1471 C 0.01907 0.92631 0.61652 0.0
C1472 C 0.01997 0.86531 0.62848 0.0
C1473 C 0.01069 0.84071 0.68712 0.0
C1474 C 0.01151 0.85673 0.66783 0.0
C1475 C 0.01375 0.9039 0.61235 0.0
C1476 C 0.01279 0.88746 0.63135 0.0
H1477 H 0.0195 0.83873 0.7439 0.0
H1478 H 0.02315 0.8641 0.71198 0.0
H1479 H 0.0252 0.83337 0.64363 0.0
H1480 H 0.00572 0.9077 0.5555 0.0
H1481 H 0.00476 0.88055 0.586 0.0
C1482 C 0.18332 0.99167 0.72863 0.0
C1483 C 0.20318 1.00453 0.72998 0.0
C1484 C 0.17 0.99178 0.70918 0.0
C1485 C 0.15943 0.02344 0.65651 0.0
H1486 H 0.12995 0.96872 0.63838 0.0
C1487 C 0.10873 0.01351 0.57303 0.0
C1488 C 0.08678 1.00469 0.57595 0.0
C1489 C 0.12442 0.01316 0.59078 0.0
C1490 C 0.13809 0.98411 0.64326 0.0
H1491 H 0.22454 0.02779 0.71174 0.0
H1492 H 0.2019 0.02734 0.67762 0.0
H1493 H 0.15436 0.96901 0.67149 0.0
H1494 H 0.06433 0.98791 0.59944 0.0
H1495 H 0.09172 0.98705 0.6301 0.0
H1496 H 0.1432 0.03837 0.62797 0.0
C1497 C 0.19626 0.01751 0.69179 0.0
C1498 C 0.15195 0.98436 0.66233 0.0
C1499 C 0.20944 0.01757 0.71136 0.0
C1500 C 0.08103 0.99504 0.5967 0.0
C1501 C 0.09677 0.99437 0.61423 0.0
C1502 C 0.14576 0.02312 0.63726 0.0
C1503 C 0.17642 1.00451 0.69039 0.0
C1504 C 0.16252 1.0041 0.66943 0.0
C1505 C 0.11854 1.00357 0.61153 0.0
C1506 C 0.13468 1.00353 0.63067 0.0
H1507 H 0.17818 0.98138 0.74268 0.0
H1508 H 0.15461 0.98189 0.70893 0.0
H1509 H 0.16706 0.03902 0.66158 0.0
H1510 H 0.11361 0.0211 0.55724 0.0
H1511 H 0.14115 0.02028 0.58828 0.0
C1512 C 0.99252 0.20755 0.69996 0.0
C1513 C 0.01207 0.21376 0.71205 0.0
C1514 C 0.99292 0.18934 0.68532 0.0
C1515 C 0.0323 0.15792 0.64942 0.0
H1516 H 0.98215 0.11646 0.64378 0.0
C1517 C 0.02082 0.0997 0.57193 0.0
C1518 C 0.01461 0.07756 0.57634 0.0
C1519 C 0.02099 0.11559 0.58922 0.0
C1520 C 0.99637 0.12783 0.64517 0.0
H1521 H 0.0473 0.20554 0.71855 0.0
H1522 H 0.04812 0.17364 0.6928 0.0
H1523 H 0.98167 0.14431 0.67368 0.0
H1524 H 0.00342 0.05502 0.60258 0.0
H1525 H 0.00351 0.08269 0.63246 0.0
H1526 H 0.04686 0.14161 0.62072 0.0
C1527 C 0.03241 0.18284 0.69476 0.0
C1528 C 0.99602 0.14389 0.66226 0.0
C1529 C 0.03188 0.20091 0.70971 0.0
C1530 C 0.0084 0.07185 0.59847 0.0
C1531 C 0.0083 0.08777 0.61565 0.0
C1532 C 0.03251 0.14204 0.63214 0.0
C1533 C 0.01303 0.17707 0.68206 0.0
C1534 C 0.01396 0.15919 0.6646 0.0
C1535 C 0.01465 0.10986 0.61131 0.0
C1536 C 0.01452 0.12679 0.62975 0.0
H1537 H 0.9771 0.21735 0.70123 0.0
H1538 H 0.97774 0.18552 0.67573 0.0
H1539 H 0.04629 0.16958 0.65056 0.0
H1540 H 0.02577 0.10474 0.55515 0.0
H1541 H 0.02578 0.13249 0.58522 0.0
C1542 C 0.82431 0.01555 0.71569 0.0
C1543 C 0.80646 1.00013 0.71359 0.0
C1544 C 0.84268 0.0151 0.70065 0.0
C1545 C 0.85349 1.00187 0.64263 0.0
H1546 H 0.9178 1.00175 0.65707 0.0
C1547 C 0.92139 0.99491 0.57308 0.0
C1548 C 0.94224 0.00584 0.57617 0.0
C1549 C 0.90551 0.99391 0.59057 0.0
C1550 C 0.89992 1.00218 0.6527 0.0
H1551 H 0.79497 0.97093 0.69547 0.0
H1552 H 0.82662 0.97062 0.66897 0.0
H1553 H 0.88969 1.00035 0.68735 0.0
H1554 H 0.96259 0.02487 0.5997 0.0
H1555 H 0.93456 0.02405 0.62978 0.0
H1556 H 0.86328 1.00459 0.6082 0.0
C1557 C 0.82627 0.98314 0.68205 0.0
C1558 C 0.88388 1.00123 0.67008 0.0
C1559 C 0.80816 0.98338 0.69719 0.0
C1560 C 0.94673 0.01611 0.59691 0.0
C1561 C 0.93069 0.01548 0.61424 0.0
C1562 C 0.86944 1.00325 0.6253 0.0
C1563 C 0.84332 0.99937 0.68322 0.0
C1564 C 0.86055 1.00083 0.66514 0.0
C1565 C 0.90991 1.00421 0.61141 0.0
C1566 C 0.89291 1.00322 0.63004 0.0
H1567 H 0.82346 0.02871 0.72806 0.0
H1568 H 0.85569 0.02779 0.70185 0.0
H1569 H 0.83554 1.00193 0.63843 0.0
H1570 H 0.91757 0.98664 0.55735 0.0
H1571 H 0.88995 0.98468 0.5878 0.0
C1572 C 0.31493 0.02695 0.20522 0.0
C1573 C 0.30174 0.00786 0.20864 0.0
C1574 C 0.32977 0.02828 0.18697 0.0
C1575 C 0.3468 1.00121 0.13333 0.0
H1576 H 0.40604 0.02507 0.14908 0.0
C1577 C 0.41811 0.01241 0.06778 0.0
C1578 C 0.44059 0.00759 0.07435 0.0
C1579 C 0.40056 0.01287 0.08355 0.0
C1580 C 0.38967 0.01817 0.14445 0.0
H1581 H 0.29268 0.97566 0.19531 0.0
H1582 H 0.31893 0.9777 0.16345 0.0
H1583 H 0.37553 0.02556 0.17665 0.0
H1584 H 0.46216 0.9994 0.10277 0.0
H1585 H 0.43138 0.99986 0.13031 0.0
H1586 H 0.36128 0.99308 0.10137 0.0
C1587 C 0.3176 0.99184 0.17462 0.0
C1588 C 0.37203 0.01878 0.16014 0.0
C1589 C 0.30254 0.99064 0.1928 0.0
C1590 C 0.44509 1.00329 0.09714 0.0
C1591 C 0.42744 1.00364 0.11294 0.0
C1592 C 0.36451 1.00051 0.11764 0.0
C1593 C 0.33196 0.01037 0.17195 0.0
C1594 C 0.35036 0.01035 0.15478 0.0
C1595 C 0.40497 0.00842 0.10631 0.0
C1596 C 0.38617 0.00898 0.12303 0.0
H1597 H 0.31449 0.04045 0.21726 0.0
H1598 H 0.34012 0.04303 0.18509 0.0
H1599 H 0.33031 0.99466 0.12861 0.0
H1600 H 0.41399 0.01604 0.05042 0.0
H1601 H 0.38356 0.01703 0.07792 0.0
C1602 C 0.99184 0.30731 0.20229 0.0
C1603 C 0.01186 0.29653 0.20923 0.0
C1604 C 0.99212 0.32217 0.18418 0.0
C1605 C 0.03083 0.36064 0.15511 0.0
H1606 H 0.98213 0.36497 0.11134 0.0
C1607 C 0.01852 0.43779 0.09726 0.0
C1608 C 0.0132 0.43364 0.07456 0.0
C1609 C 0.01872 0.42045 0.11305 0.0
C1610 C 0.99594 0.36396 0.12336 0.0
H1611 H 0.0478 0.29264 0.20251 0.0
H1612 H 0.0484 0.31864 0.17073 0.0
H1613 H 0.98205 0.33471 0.13867 0.0
H1614 H 0.00365 0.40778 0.05092 0.0
H1615 H 0.00387 0.37784 0.07836 0.0
H1616 H 0.04461 0.39 0.1399 0.0
C1617 C 0.03242 0.3155 0.17924 0.0
C1618 C 0.99581 0.34666 0.13913 0.0
C1619 C 0.03205 0.30038 0.19721 0.0
C1620 C 0.0079 0.41172 0.06819 0.0
C1621 C 0.00787 0.39448 0.08399 0.0
C1622 C 0.03081 0.37809 0.13949 0.0
C1623 C 0.01255 0.32696 0.1728 0.0
C1624 C 0.01324 0.34476 0.15525 0.0
C1625 C 0.01334 0.39856 0.10664 0.0
C1626 C 0.01336 0.38001 0.1234 0.0
H1627 H 0.97616 0.30497 0.21158 0.0
H1628 H 0.97655 0.33079 0.17986 0.0
H1629 H 0.04438 0.35987 0.16743 0.0
H1630 H 0.02275 0.45439 0.10282 0.0
H1631 H 0.02282 0.42425 0.13039 0.0
C1632 C 0.74136 0.02087 0.1726 0.0
C1633 C 0.74203 0.00859 0.19263 0.0
C1634 C 0.72206 0.02056 0.15888 0.0
C1635 C 0.66846 0.98929 0.14786 0.0
H1636 H 0.65192 0.04339 0.11658 0.0
C1637 C 0.58486 0.9996 0.09615 0.0
C1638 C 0.58807 0.00812 0.07437 0.0
C1639 C 0.60277 0.99976 0.11173 0.0
C1640 C 0.65636 0.02815 0.12518 0.0
H1641 H 0.72275 0.98601 0.21379 0.0
H1642 H 0.68885 0.98614 0.19041 0.0
H1643 H 0.68481 0.04325 0.1415 0.0
H1644 H 0.61239 0.02398 0.05208 0.0
H1645 H 0.64334 0.02452 0.07929 0.0
H1646 H 0.63963 0.97439 0.13163 0.0
C1647 C 0.70345 0.99571 0.18499 0.0
C1648 C 0.67532 0.02799 0.13936 0.0
C1649 C 0.72289 0.99584 0.1986 0.0
C1650 C 0.60937 0.01715 0.06866 0.0
C1651 C 0.62708 0.01761 0.08429 0.0
C1652 C 0.6493 0.98954 0.13385 0.0
C1653 C 0.7027 0.00819 0.16501 0.0
C1654 C 0.68186 0.00848 0.15065 0.0
C1655 C 0.62404 0.00881 0.10593 0.0
C1656 C 0.64327 0.00889 0.12213 0.0
H1657 H 0.75584 0.03086 0.16762 0.0
H1658 H 0.72238 0.03 0.14341 0.0
H1659 H 0.67306 0.97388 0.15603 0.0
H1660 H 0.56868 0.99245 0.10102 0.0
H1661 H 0.59996 0.99295 0.12835 0.0
C1662 C 0.00161 0.70394 0.20767 0.0
C1663 C 0.00534 0.72561 0.19972 0.0
C1664 C 0.00382 0.68559 0.19325 0.0
C1665 C 0.00213 0.67117 0.13257 0.0
H1666 H 0.02788 0.61504 0.15167 0.0
C1667 C 0.01827 0.60061 0.06891 0.0
C1668 C 0.01432 0.57848 0.07547 0.0
C1669 C 0.01781 0.61791 0.08462 0.0
C1670 C 0.02037 0.63049 0.1461 0.0
H1671 H 0.01548 0.74492 0.17076 0.0
H1672 H 0.01945 0.71303 0.1456 0.0
H1673 H 0.0265 0.64624 0.17794 0.0
H1674 H 0.00703 0.55742 0.10413 0.0
H1675 H 0.00592 0.5877 0.13154 0.0
H1676 H 0.99571 0.65555 0.10091 0.0
C1677 C 0.01435 0.71015 0.16285 0.0
C1678 C 0.01962 0.64845 0.1612 0.0
C1679 C 0.01224 0.72845 0.17729 0.0
C1680 C 0.0102 0.57419 0.09839 0.0
C1681 C 0.00966 0.5916 0.11417 0.0
C1682 C 0.00279 0.65326 0.11756 0.0
C1683 C 0.00982 0.68846 0.1705 0.0
C1684 C 0.01063 0.66912 0.1546 0.0
C1685 C 0.01327 0.61378 0.10748 0.0
C1686 C 0.01207 0.63266 0.12398 0.0
H1687 H 0.99633 0.70125 0.2249 0.0
H1688 H 0.0001 0.66921 0.19977 0.0
H1689 H 0.9946 0.68661 0.12697 0.0
H1690 H 0.02178 0.60471 0.05153 0.0
H1691 H 0.02122 0.63459 0.07878 0.0
C1692 C 0.3021 0.02144 0.81382 0.0
C1693 C 0.30136 1.00431 0.79787 0.0
C1694 C 0.3172 0.02022 0.83196 0.0
C1695 C 0.37179 0.99348 0.84623 0.0
H1696 H 0.36097 0.01886 0.90513 0.0
C1697 C 0.44485 0.00917 0.90917 0.0
C1698 C 0.44043 1.00479 0.93196 0.0
C1699 C 0.42719 0.00875 0.8934 0.0
C1700 C 0.36422 0.01152 0.88883 0.0
H1701 H 0.31428 0.97183 0.78906 0.0
H1702 H 0.34 0.96922 0.82116 0.0
H1703 H 0.32998 0.01723 0.87793 0.0
H1704 H 0.41394 0.99611 0.95592 0.0
H1705 H 0.38346 0.995 0.92847 0.0
H1706 H 0.40585 0.98732 0.85722 0.0
C1707 C 0.32956 0.98393 0.81938 0.0
C1708 C 0.3465 0.01079 0.87316 0.0
C1709 C 0.31468 0.98527 0.80116 0.0
C1710 C 0.418 0.99981 0.93856 0.0
C1711 C 0.40042 0.99928 0.92281 0.0
C1712 C 0.38945 0.99412 0.86191 0.0
C1713 C 0.33167 1.00176 0.8345 0.0
C1714 C 0.35008 1.00178 0.85165 0.0
C1715 C 0.40475 1.00381 0.90006 0.0
C1716 C 0.38592 1.0032 0.88337 0.0
H1717 H 0.29214 0.03638 0.81142 0.0
H1718 H 0.31846 0.0343 0.84321 0.0
H1719 H 0.37532 0.98681 0.82969 0.0
H1720 H 0.46189 0.01317 0.90352 0.0
H1721 H 0.43107 0.0126 0.87604 0.0
C1722 C 0.99266 0.30182 0.80886 0.0
C1723 C 0.01056 0.28636 0.80771 0.0
C1724 C 0.9945 0.32089 0.82228 0.0
C1725 C 0.02646 0.34272 0.87168 0.0
H1726 H 0.99694 0.39808 0.85585 0.0
C1727 C 0.01251 0.41193 0.9375 0.0
C1728 C 0.01454 0.43431 0.93094 0.0
C1729 C 0.01291 0.3948 0.92158 0.0
C1730 C 0.0055 0.38285 0.86049 0.0
H1731 H 0.04461 0.27908 0.81932 0.0
H1732 H 0.04817 0.31258 0.84236 0.0
H1733 H 0.99694 0.36731 0.82917 0.0
H1734 H 0.01849 0.45595 0.90208 0.0
H1735 H 0.01947 0.42602 0.87432 0.0
H1736 H 0.03537 0.3583 0.90279 0.0
C1737 C 0.03248 0.30985 0.83321 0.0
C1738 C 0.00526 0.36503 0.84524 0.0
C1739 C 0.03059 0.29074 0.81983 0.0
C1740 C 0.01684 0.43899 0.90785 0.0
C1741 C 0.01729 0.42177 0.89187 0.0
C1742 C 0.02674 0.36051 0.88687 0.0
C1743 C 0.01431 0.32507 0.83496 0.0
C1744 C 0.01556 0.34459 0.85067 0.0
C1745 C 0.01544 0.39938 0.89851 0.0
C1746 C 0.01604 0.38079 0.88166 0.0
H1747 H 0.97693 0.29884 0.79986 0.0
H1748 H 0.98001 0.33194 0.82331 0.0
H1749 H 0.03437 0.32728 0.8767 0.0
H1750 H 0.0105 0.4075 0.95503 0.0
H1751 H 0.01093 0.37791 0.92743 0.0
C1752 C 0.72351 0.01738 0.80833 0.0
C1753 C 0.74239 1.0042 0.81413 0.0
C1754 C 0.70389 0.01735 0.82169 0.0
C1755 C 0.67488 0.98434 0.86631 0.0
H1756 H 0.64002 0.0383 0.87513 0.0
C1757 C 0.60912 0.99501 0.93724 0.0
C1758 C 0.58793 1.00435 0.93165 0.0
C1759 C 0.62681 0.99452 0.92159 0.0
C1760 C 0.64946 0.02306 0.87259 0.0
H1761 H 0.75562 0.98108 0.83864 0.0
H1762 H 0.72187 0.98162 0.86245 0.0
H1763 H 0.67355 0.03883 0.85087 0.0
H1764 H 0.5687 0.02054 0.90521 0.0
H1765 H 0.59997 0.02003 0.87785 0.0
H1766 H 0.65117 0.96884 0.88871 0.0
C1767 C 0.72184 0.9915 0.84725 0.0
C1768 C 0.66867 0.02332 0.85865 0.0
C1769 C 0.74131 0.99134 0.83376 0.0
C1770 C 0.5848 0.01315 0.90997 0.0
C1771 C 0.6027 0.01298 0.89438 0.0
C1772 C 0.65588 0.98418 0.88044 0.0
C1773 C 0.70274 1.00431 0.84129 0.0
C1774 C 0.68178 1.00399 0.85549 0.0
C1775 C 0.62387 1.00362 0.90006 0.0
C1776 C 0.64309 1.00356 0.88388 0.0
H1777 H 0.72371 0.02771 0.79347 0.0
H1778 H 0.6895 0.02727 0.8164 0.0
H1779 H 0.68413 0.96899 0.86388 0.0
H1780 H 0.61206 0.98796 0.95374 0.0
H1781 H 0.64299 0.98737 0.92649 0.0
C1782 C 0.00788 0.7179 0.81352 0.0
C1783 C 0.0213 0.71345 0.79445 0.0
C1784 C 0.00777 0.7031 0.83187 0.0
C1785 C 0.01562 0.64376 0.8427 0.0
H1786 H 0.02136 0.65878 0.90576 0.0
C1787 C 0.02309 0.57496 0.91018 0.0
C1788 C 0.01426 0.5788 0.93179 0.0
C1789 C 0.02397 0.59208 0.89422 0.0
C1790 C 0.01933 0.65422 0.88827 0.0
H1791 H 0.04649 0.69102 0.78055 0.0
H1792 H 0.04611 0.66536 0.81217 0.0
H1793 H 0.02287 0.68812 0.87739 0.0
H1794 H 0.99899 0.60372 0.95334 0.0
H1795 H -0.00038 0.63319 0.9254 0.0
H1796 H 0.01135 0.61013 0.85319 0.0
C1797 C 0.03541 0.67999 0.8129 0.0
C1798 C 0.02031 0.67113 0.87201 0.0
C1799 C 0.0357 0.69477 0.79483 0.0
C1800 C 0.00609 0.60017 0.93692 0.0
C1801 C 0.00662 0.6172 0.92086 0.0
C1802 C 0.01427 0.62695 0.85889 0.0
C1803 C 0.02095 0.68354 0.83134 0.0
C1804 C 0.01879 0.66604 0.84901 0.0
C1805 C 0.01566 0.61351 0.89922 0.0
C1806 C 0.01639 0.63179 0.88198 0.0
H1807 H 0.99654 0.73206 0.8137 0.0
H1808 H 0.9965 0.70632 0.8459 0.0
H1809 H 0.014 0.63931 0.82513 0.0
H1810 H 0.0298 0.55881 0.9057 0.0
H1811 H 0.03156 0.5885 0.87804 0.0
C1812 C 0.22531 0.31844 0.02145 0.0
C1813 C 0.22404 0.29908 0.00829 0.0
C1814 C 0.2073 0.33352 0.02198 0.0
C1815 C 0.14651 0.34231 0.01109 0.0
H1816 H 0.16544 0.40271 0.99853 0.0
C1817 C 0.08107 0.41285 0.99615 0.0
C1818 C 0.08648 0.43432 0.00377 0.0
C1819 C 0.09726 0.39582 0.99674 0.0
C1820 C 0.15978 0.38606 1.00244 0.0
H1821 H 0.20214 0.27958 0.98668 0.0
H1822 H 0.17018 0.30594 0.98797 0.0
H1823 H 0.19377 0.3734 1.0007 0.0
H1824 H 0.11318 0.45459 0.01827 0.0
H1825 H 0.14118 0.42484 0.01999 0.0
H1826 H 0.11255 0.35501 0.01341 0.0
C1827 C 0.18537 0.30944 0.99767 0.0
C1828 C 0.17608 0.3692 0.00357 0.0
C1829 C 0.20358 0.29432 0.997 0.0
C1830 C 0.1085 0.43832 0.01204 0.0
C1831 C 0.12462 0.42121 0.01292 0.0
C1832 C 0.13016 0.35927 0.01027 0.0
C1833 C 0.1874 0.32957 0.00955 0.0
C1834 C 0.16968 0.34716 0.00801 0.0
C1835 C 0.11927 0.39968 0.00523 0.0
C1836 C 0.13658 0.38144 0.00599 0.0
H1837 H 0.24069 0.32238 0.03069 0.0
H1838 H 0.20919 0.34862 0.0317 0.0
H1839 H 0.14109 0.3255 0.01466 0.0
H1840 H 0.06433 0.4092 0.98946 0.0
H1841 H 0.09253 0.37968 0.99024 0.0
C1842 C 0.20387 0.71769 0.00981 0.0
C1843 C 0.2242 0.71315 0.99822 0.0
C1844 C 0.18558 0.70269 0.00886 0.0
C1845 C 0.17621 0.64319 1.00186 0.0
H1846 H 0.11253 0.65753 0.99323 0.0
C1847 C 0.10842 0.57421 0.99408 0.0
C1848 C 0.08655 0.5782 1.00273 0.0
C1849 C 0.12454 0.59131 0.99302 0.0
C1850 C 0.13019 0.65322 0.99603 0.0
H1851 H 0.24053 0.69046 0.97497 0.0
H1852 H 0.20888 0.66439 0.97348 0.0
H1853 H 0.14107 0.68703 0.99187 0.0
H1854 H 0.06467 0.60325 0.01756 0.0
H1855 H 0.09291 0.63273 0.01651 0.0
H1856 H 0.16563 0.60964 0.00673 0.0
C1857 C 0.20715 0.67923 0.98362 0.0
C1858 C 0.14653 0.67017 0.99513 0.0
C1859 C 0.22524 0.69421 0.98442 0.0
C1860 C 0.08129 0.59962 0.01058 0.0
C1861 C 0.0975 0.61663 0.00982 0.0
C1862 C 0.15992 0.62633 0.00307 0.0
C1863 C 0.18742 0.6829 0.99639 0.0
C1864 C 0.16974 0.66528 0.99781 0.0
C1865 C 0.11935 0.61279 1.00092 0.0
C1866 C 0.13666 0.63101 0.99999 0.0
H1867 H 0.20261 0.7321 0.02063 0.0
H1868 H 0.17052 0.70596 0.01884 0.0
H1869 H 0.19394 0.63895 0.0044 0.0
H1870 H 0.11296 0.55798 0.98766 0.0
H1871 H 0.14097 0.5877 0.98564 0.0
C1872 C 0.28894 0.17976 0.01407 0.0
C1873 C 0.29297 0.20206 0.01961 0.0
C1874 C 0.30711 0.16499 0.01117 0.0
C1875 C 0.36943 0.16189 1.00063 0.0
H1876 H 0.36337 0.10363 0.02754 0.0
C1877 C 0.44513 0.0997 0.00712 0.0
C1878 C 0.44026 0.07702 0.00403 0.0
C1879 C 0.4275 0.11539 0.00834 0.0
C1880 C 0.3653 0.1197 0.01964 0.0
H1881 H 0.31912 0.2267 0.02535 0.0
H1882 H 0.35097 0.20093 0.02034 0.0
H1883 H 0.33213 0.12997 0.03026 0.0
H1884 H 0.41279 0.05334 0.99927 0.0
H1885 H 0.38242 0.08053 1.00104 0.0
H1886 H 0.40265 0.15153 0.98998 0.0
C1887 C 0.33378 0.19478 0.01829 0.0
C1888 C 0.34732 0.13485 0.02122 0.0
C1889 C 0.31557 0.20953 0.02126 0.0
C1890 C 0.41733 0.07057 1.00186 0.0
C1891 C 0.39979 0.08622 0.00302 0.0
C1892 C 0.38744 0.14667 0.99899 0.0
C1893 C 0.32979 0.17222 0.01354 0.0
C1894 C 0.34908 0.15614 0.01168 0.0
C1895 C 0.40456 0.10883 0.00648 0.0
C1896 C 0.38559 0.12532 0.00841 0.0
H1897 H 0.27167 0.17367 0.01236 0.0
H1898 H 0.30338 0.14786 0.00708 0.0
H1899 H 0.37132 0.17805 0.9929 0.0
H1900 H 0.46253 0.10535 0.00891 0.0
H1901 H 0.43187 0.13261 0.01122 0.0
C1902 C 0.82356 0.29675 0.01777 0.0
C1903 C 0.80752 0.29586 1.00034 0.0
C1904 C 0.84143 0.31214 0.017 0.0
C1905 C 0.85502 0.36636 0.99073 0.0
H1906 H 0.91473 0.35647 0.0165 0.0
C1907 C 0.91856 0.43842 0.00574 0.0
C1908 C 0.94172 0.43414 1.00162 0.0
C1909 C 0.90261 0.42111 0.00548 0.0
C1910 C 0.8982 0.35949 0.00904 0.0
H1911 H 0.79807 0.30928 0.96794 0.0
H1912 H 0.82973 0.33544 0.96602 0.0
H1913 H 0.88754 0.32598 0.01478 0.0
H1914 H 0.96608 0.40817 0.99359 0.0
H1915 H 0.9384 0.37836 0.99274 0.0
H1916 H 0.86582 0.39969 0.98448 0.0
C1917 C 0.8283 0.32481 0.98062 0.0
C1918 C 0.8825 0.34202 0.00829 0.0
C1919 C 0.81036 0.30961 0.98152 0.0
C1920 C 0.94846 0.41217 0.99707 0.0
C1921 C 0.93255 0.39495 0.99671 0.0
C1922 C 0.87074 0.38378 0.9914 0.0
C1923 C 0.8436 0.32687 0.99871 0.0
C1924 C 0.86069 0.3452 0.99909 0.0
C1925 C 0.90942 0.39913 1.00099 0.0
C1926 C 0.89255 0.3806 1.00056 0.0
H1927 H 0.82142 0.28656 0.03263 0.0
H1928 H 0.85275 0.31331 0.03132 0.0
H1929 H 0.83827 0.36962 0.98391 0.0
H1930 H 0.91275 0.45508 0.00943 0.0
H1931 H 0.88499 0.42493 0.00913 0.0
C1932 C 0.73991 0.83383 0.00884 0.0
C1933 C 0.73629 0.8115 0.01448 0.0
C1934 C 0.72151 0.84841 0.00662 0.0
C1935 C 0.65898 0.851 0.99819 0.0
H1936 H 0.66543 0.90904 0.02559 0.0
C1937 C 0.58339 0.91291 0.00733 0.0
C1938 C 0.58819 0.93556 0.00404 0.0
C1939 C 0.60103 0.89723 0.00803 0.0
C1940 C 0.66339 0.89302 0.01758 0.0
H1941 H 0.71066 0.78657 0.02113 0.0
H1942 H 0.67837 0.81203 0.0173 0.0
H1943 H 0.69689 0.88286 0.0272 0.0
H1944 H 0.61547 0.95923 0.99823 0.0
H1945 H 0.64587 0.93204 0.99915 0.0
H1946 H 0.62543 0.86127 0.98852 0.0
C1947 C 0.69542 0.81834 0.01464 0.0
C1948 C 0.68148 0.87798 0.01851 0.0
C1949 C 0.71387 0.80378 0.01694 0.0
C1950 C 0.61102 0.94202 1.00108 0.0
C1951 C 0.62857 0.92639 1.00172 0.0
C1952 C 0.64086 0.86611 0.99719 0.0
C1953 C 0.69903 0.84093 0.00981 0.0
C1954 C 0.67958 0.85681 0.00874 0.0
C1955 C 0.62388 0.9038 0.00541 0.0
C1956 C 0.64287 0.88738 0.00678 0.0
H1957 H 0.75703 0.8401 0.00653 0.0
H1958 H 0.72489 0.86558 1.00245 0.0
H1959 H 0.657 0.83491 0.99032 0.0
H1960 H 0.56605 0.90728 0.00968 0.0
H1961 H 0.59678 0.88001 0.01108 0.0
C1962 C 0.80983 0.70243 0.02503 0.0
C1963 C 0.80701 0.7163 0.0063 0.0
C1964 C 0.82782 0.6873 0.0259 0.0
C1965 C 0.8822 0.67048 0.99836 0.0
H1966 H 0.86562 0.61259 0.02167 0.0
C1967 C 0.94833 0.60045 0.00937 0.0
C1968 C 0.94167 0.57849 0.00467 0.0
C1969 C 0.93238 0.61763 0.00977 0.0
C1970 C 0.8705 0.62857 0.01489 0.0
H1971 H 0.82103 0.7259 0.97415 0.0
H1972 H 0.85246 0.69925 0.9754 0.0
H1973 H 0.83795 0.64256 0.02233 0.0
H1974 H 0.91279 0.55752 0.9966 0.0
H1975 H 0.88496 0.58759 0.99694 0.0
H1976 H 0.91452 0.6562 0.99019 0.0
C1977 C 0.84107 0.70027 0.98967 0.0
C1978 C 0.85473 0.64593 0.01561 0.0
C1979 C 0.82313 0.71561 0.98893 0.0
C1980 C 0.91854 0.57418 1.00041 0.0
C1981 C 0.90255 0.59144 1.0007 0.0
C1982 C 0.89797 0.65307 0.99755 0.0
C1983 C 0.8432 0.68543 0.00786 0.0
C1984 C 0.86036 0.66716 0.00743 0.0
C1985 C 0.90928 0.61341 0.00536 0.0
C1986 C 0.89235 0.63188 0.00585 0.0
H1987 H 0.79748 0.70263 0.03857 0.0
H1988 H 0.82923 0.67657 0.04044 0.0
H1989 H 0.88721 0.68659 0.992 0.0
H1990 H 0.96593 0.60447 0.01296 0.0
H1991 H 0.93816 0.6342 0.01386 0.0
C1992 C 0.31608 0.80224 0.98859 0.0
C1993 C 0.29348 0.80978 0.9897 0.0
C1994 C 0.33427 0.81707 0.9913 0.0
C1995 C 0.34781 0.87684 0.98635 0.0
H1996 H 0.40284 0.86135 0.01873 0.0
C1997 C 0.41743 0.94187 0.00435 0.0
C1998 C 0.44039 0.93541 1.0026 0.0
C1999 C 0.39994 0.92615 0.00348 0.0
C2000 C 0.38771 0.86586 0.00939 0.0
H2001 H 0.27212 0.8384 0.99576 0.0
H2002 H 0.30377 0.86434 1.0006 0.0
H2003 H 0.37156 0.8347 0.01646 0.0
H2004 H 0.46278 0.90701 0.99877 0.0
H2005 H 0.43221 0.87961 0.99697 0.0
H2006 H 0.36388 0.90785 0.97906 0.0
C2007 C 0.30754 0.84708 0.99713 0.0
C2008 C 0.36974 0.85057 0.00813 0.0
C2009 C 0.28939 0.83224 0.99449 0.0
C2010 C 0.44534 0.91267 1.0002 0.0
C2011 C 0.42778 0.8969 0.99929 0.0
C2012 C 0.36575 0.89206 0.98756 0.0
C2013 C 0.33023 0.83977 0.99523 0.0
C2014 C 0.34949 0.85591 0.99668 0.0
C2015 C 0.40481 0.90345 1.00076 0.0
C2016 C 0.38592 0.88687 0.9992 0.0
H2017 H 0.31966 0.78495 0.98507 0.0
H2018 H 0.35148 0.81085 0.98964 0.0
H2019 H 0.3327 0.88137 0.97698 0.0
H2020 H 0.41281 0.95915 0.00638 0.0
H2021 H 0.38253 0.93183 0.00512 0.0
C2022 C 0.71416 0.2086 0.98954 0.0
C2023 C 0.73656 0.2008 0.99198 0.0
C2024 C 0.69565 0.1941 0.9918 0.0
C2025 C 0.68153 0.13451 0.98773 0.0
H2026 H 0.62548 0.15127 0.01769 0.0
C2027 C 0.61098 0.07054 0.00497 0.0
C2028 C 0.58815 0.07701 1.00204 0.0
C2029 C 0.62854 0.08616 0.00436 0.0
C2030 C 0.64091 0.14641 0.00902 0.0
H2031 H 0.75719 0.17211 0.99987 0.0
H2032 H 0.72496 0.14673 0.00387 0.0
H2033 H 0.65712 0.17757 0.01599 0.0
H2034 H 0.56603 0.10532 0.99647 0.0
H2035 H 0.59678 0.13258 0.99512 0.0
H2036 H 0.66542 0.10351 0.98054 0.0
C2037 C 0.72163 0.16393 0.99975 0.0
C2038 C 0.65907 0.16149 0.00809 0.0
C2039 C 0.74009 0.17844 0.99757 0.0
C2040 C 0.58337 0.09968 0.99879 0.0
C2041 C 0.60102 0.11535 0.99813 0.0
C2042 C 0.6634 0.11951 0.98859 0.0
C2043 C 0.69918 0.17149 0.99656 0.0
C2044 C 0.67967 0.15566 0.99755 0.0
C2045 C 0.62387 0.10876 1.00072 0.0
C2046 C 0.64289 0.12516 0.99939 0.0
H2047 H 0.71102 0.22583 0.98539 0.0
H2048 H 0.67863 0.20048 0.98915 0.0
H2049 H 0.69694 0.12962 0.97904 0.0
H2050 H 0.61543 0.05332 0.00779 0.0
H2051 H 0.64584 0.08048 0.00692 0.0
C2052 C 0.5098 0.67952 0.78028 0.0
C2053 C 0.50334 0.70168 0.78383 0.0
C2054 C 0.51214 0.66486 0.79844 0.0
C2055 C 0.51902 0.66205 0.8607 0.0
H2056 H 0.49411 0.60298 0.85304 0.0
C2057 C 0.5101 0.5994 0.9351 0.0
C2058 C 0.51395 0.5768 0.93044 0.0
C2059 C 0.50941 0.61513 0.91765 0.0
C2060 C 0.50147 0.61928 0.85546 0.0
H2061 H 0.49531 0.72616 0.80924 0.0
H2062 H 0.49941 0.70063 0.84104 0.0
H2063 H 0.49258 0.62923 0.82205 0.0
H2064 H 0.52075 0.55332 0.90355 0.0
H2065 H 0.5199 0.58052 0.87352 0.0
H2066 H 0.52796 0.65201 0.89416 0.0
C2067 C 0.50264 0.69449 0.82423 0.0
C2068 C 0.50057 0.6344 0.8376 0.0
C2069 C 0.50022 0.70913 0.80602 0.0
C2070 C 0.51745 0.57047 0.90791 0.0
C2071 C 0.51685 0.58614 0.89055 0.0
C2072 C 0.52 0.64686 0.8786 0.0
C2073 C 0.50826 0.67204 0.82067 0.0
C2074 C 0.5094 0.65599 0.83989 0.0
C2075 C 0.51261 0.60869 0.89507 0.0
C2076 C 0.51131 0.62519 0.87622 0.0
H2077 H 0.51259 0.67339 0.76338 0.0
H2078 H 0.51694 0.64784 0.79504 0.0
H2079 H 0.52618 0.67844 0.86306 0.0
H2080 H 0.50728 0.60496 0.95219 0.0
H2081 H 0.5059 0.63227 0.92185 0.0
C2082 C 0.32444 0.49658 0.79107 0.0
C2083 C 0.30667 0.5121 0.79309 0.0
C2084 C 0.34279 0.49699 0.80614 0.0
C2085 C 0.35351 0.51034 0.86415 0.0
H2086 H 0.41787 0.51017 0.84992 0.0
C2087 C 0.42125 0.51723 0.93391 0.0
C2088 C 0.44209 0.50626 0.93088 0.0
C2089 C 0.4054 0.51821 0.91639 0.0
C2090 C 0.39997 0.50981 0.85424 0.0
H2091 H 0.29533 0.54144 0.81107 0.0
H2092 H 0.32695 0.5417 0.8376 0.0
H2093 H 0.38987 0.51158 0.81955 0.0
H2094 H 0.46243 0.48712 0.90744 0.0
H2095 H 0.43446 0.48791 0.87731 0.0
H2096 H 0.36318 0.50769 0.89862 0.0
C2097 C 0.32655 0.52913 0.82458 0.0
C2098 C 0.384 0.51077 0.8368 0.0
C2099 C 0.30846 0.52893 0.80941 0.0
C2100 C 0.44659 0.49592 0.91017 0.0
C2101 C 0.43058 0.49653 0.89282 0.0
C2102 C 0.3694 0.50895 0.88154 0.0
C2103 C 0.34349 0.51278 0.82351 0.0
C2104 C 0.36065 0.51128 0.84165 0.0
C2105 C 0.40982 0.50786 0.89558 0.0
C2106 C 0.39289 0.50887 0.87689 0.0
H2107 H 0.32351 0.48338 0.77876 0.0
H2108 H 0.35572 0.48422 0.80502 0.0
H2109 H 0.33555 0.51037 0.86828 0.0
H2110 H 0.41744 0.52555 0.94961 0.0
H2111 H 0.38985 0.52748 0.9191 0.0
C2112 C 0.50866 0.31597 0.79113 0.0
C2113 C 0.52199 0.29718 0.79599 0.0
C2114 C 0.50848 0.3343 0.80587 0.0
C2115 C 0.51603 0.34598 0.86587 0.0
H2116 H 0.52249 0.40788 0.84967 0.0
C2117 C 0.52424 0.41352 0.93453 0.0
C2118 C 0.51557 0.43486 0.93037 0.0
C2119 C 0.52497 0.39753 0.91739 0.0
C2120 C 0.52025 0.39073 0.85455 0.0
H2121 H 0.54702 0.28378 0.81909 0.0
H2122 H 0.54646 0.31532 0.84466 0.0
H2123 H 0.52381 0.37938 0.8204 0.0
H2124 H 0.50044 0.4559 0.90486 0.0
H2125 H 0.50087 0.42792 0.87534 0.0
H2126 H 0.51176 0.35694 0.89975 0.0
C2127 C 0.53586 0.31584 0.82976 0.0
C2128 C 0.52112 0.37438 0.83768 0.0
C2129 C 0.53622 0.29779 0.81503 0.0
C2130 C 0.50745 0.4397 0.90865 0.0
C2131 C 0.50784 0.42361 0.8916 0.0
C2132 C 0.51479 0.36225 0.88263 0.0
C2133 C 0.5215 0.33404 0.82578 0.0
C2134 C 0.51935 0.35179 0.84321 0.0
C2135 C 0.51667 0.40223 0.89563 0.0
C2136 C 0.5172 0.38492 0.87737 0.0
H2137 H 0.49746 0.31599 0.77666 0.0
H2138 H 0.49729 0.34814 0.80231 0.0
H2139 H 0.51421 0.32872 0.87065 0.0
H2140 H 0.53089 0.40925 0.95096 0.0
H2141 H 0.53241 0.38155 0.92123 0.0
C2142 C 0.68326 0.5204 0.77796 0.0
C2143 C 0.70343 0.50797 0.77692 0.0
C2144 C 0.6698 0.52023 0.79732 0.0
C2145 C 0.65959 0.48904 0.85033 0.0
H2146 H 0.62916 0.5435 0.86776 0.0
C2147 C 0.60867 0.49907 0.93364 0.0
C2148 C 0.58664 0.5077 0.9307 0.0
C2149 C 0.62432 0.49943 0.91587 0.0
C2150 C 0.63755 0.52818 0.86307 0.0
H2151 H 0.72522 0.48548 0.79562 0.0
H2152 H 0.70229 0.48578 0.82955 0.0
H2153 H 0.65361 0.5432 0.83468 0.0
H2154 H 0.56401 0.52411 0.90711 0.0
H2155 H 0.59133 0.52495 0.8764 0.0
H2156 H 0.64356 0.47419 0.87902 0.0
C2157 C 0.69652 0.4953 0.81521 0.0
C2158 C 0.65144 0.52793 0.84402 0.0
C2159 C 0.70986 0.49532 0.79574 0.0
C2160 C 0.58078 0.51714 0.90988 0.0
C2161 C 0.59647 0.51779 0.89232 0.0
C2162 C 0.64587 0.48937 0.86955 0.0
C2163 C 0.67638 0.50787 0.81631 0.0
C2164 C 0.66237 0.50828 0.83719 0.0
C2165 C 0.61833 0.5088 0.89505 0.0
C2166 C 0.63445 0.50886 0.8759 0.0
H2167 H 0.678 0.53043 0.76376 0.0
H2168 H 0.65419 0.52979 0.79735 0.0
H2169 H 0.6675 0.47354 0.84547 0.0
H2170 H 0.61365 0.49165 0.94948 0.0
H2171 H 0.64113 0.49247 0.91841 0.0
C2172 C 0.50088 0.30207 0.20075 0.0
C2173 C 0.50298 0.30964 0.22301 0.0
C2174 C 0.50329 0.31677 0.18259 0.0
C2175 C 0.49919 0.37674 0.169 0.0
H2176 H 0.52916 0.36017 0.1134 0.0
C2177 C 0.51602 0.44125 0.09918 0.0
C2178 C 0.51357 0.4348 0.07654 0.0
C2179 C 0.51536 0.42557 0.11653 0.0
C2180 C 0.52047 0.36502 0.12869 0.0
H2181 H 0.51037 0.3383 0.24368 0.0
H2182 H 0.51467 0.36398 0.21212 0.0
H2183 H 0.52741 0.33371 0.14449 0.0
H2184 H 0.50873 0.40641 0.05463 0.0
H2185 H 0.50728 0.37908 0.08495 0.0
H2186 H 0.49199 0.40788 0.1533 0.0
C2187 C 0.51071 0.34677 0.2086 0.0
C2188 C 0.51951 0.34981 0.14658 0.0
C2189 C 0.5084 0.33205 0.22671 0.0
C2190 C 0.5107 0.41207 0.0718 0.0
C2191 C 0.50998 0.39634 0.08924 0.0
C2192 C 0.50007 0.39187 0.15115 0.0
C2193 C 0.50786 0.33944 0.18627 0.0
C2194 C 0.50896 0.35551 0.16705 0.0
C2195 C 0.51214 0.40288 0.11191 0.0
C2196 C 0.51084 0.38634 0.13074 0.0
H2197 H 0.49676 0.28487 0.19741 0.0
H2198 H 0.50086 0.3105 0.1657 0.0
H2199 H 0.49048 0.38161 0.18428 0.0
H2200 H 0.51851 0.4585 0.10365 0.0
H2201 H 0.51759 0.4313 0.13365 0.0
C2202 C 0.68331 0.49169 0.22906 0.0
C2203 C 0.70341 0.50423 0.2301 0.0
C2204 C 0.66981 0.49184 0.20973 0.0
C2205 C 0.65938 0.52307 0.15676 0.0
H2206 H 0.62916 0.4685 0.13933 0.0
C2207 C 0.60858 0.51278 0.0734 0.0
C2208 C 0.58656 0.5041 0.07633 0.0
C2209 C 0.62421 0.5125 0.09119 0.0
C2210 C 0.63749 0.48385 0.14402 0.0
H2211 H 0.725 0.52694 0.21144 0.0
H2212 H 0.70203 0.52657 0.17754 0.0
H2213 H 0.65363 0.46888 0.17239 0.0
H2214 H 0.56394 0.4877 0.09994 0.0
H2215 H 0.59123 0.48698 0.13067 0.0
H2216 H 0.64329 0.53787 0.12807 0.0
C2217 C 0.69635 0.51697 0.19187 0.0
C2218 C 0.65139 0.48415 0.16306 0.0
C2219 C 0.70972 0.51699 0.21131 0.0
C2220 C 0.5807 0.49469 0.09717 0.0
C2221 C 0.59638 0.49412 0.11475 0.0
C2222 C 0.64565 0.52269 0.13754 0.0
C2223 C 0.67629 0.50428 0.19076 0.0
C2224 C 0.66225 0.50384 0.1699 0.0
C2225 C 0.61821 0.50315 0.11202 0.0
C2226 C 0.63432 0.50316 0.13119 0.0
H2227 H 0.67814 0.48159 0.24324 0.0
H2228 H 0.65426 0.4822 0.20971 0.0
H2229 H 0.66723 0.53859 0.16162 0.0
H2230 H 0.61355 0.52018 0.05755 0.0
H2231 H 0.641 0.51949 0.08865 0.0
C2232 C 0.53664 0.71353 0.192 0.0
C2233 C 0.52197 0.71459 0.21069 0.0
C2234 C 0.53619 0.6954 0.17737 0.0
C2235 C 0.52041 0.63722 0.16929 0.0
H2236 H 0.5121 0.65473 0.1071 0.0
C2237 C 0.50684 0.57197 0.09821 0.0
C2238 C 0.51522 0.57673 0.07657 0.0
C2239 C 0.50722 0.58807 0.11526 0.0
C2240 C 0.51484 0.64939 0.12425 0.0
H2241 H 0.49652 0.69647 0.22954 0.0
H2242 H 0.4962 0.66417 0.20409 0.0
H2243 H 0.51466 0.68293 0.13619 0.0
H2244 H 0.53101 0.60217 0.05613 0.0
H2245 H 0.53254 0.62987 0.08586 0.0
H2246 H 0.52142 0.60369 0.15736 0.0
C2247 C 0.50781 0.67773 0.20073 0.0
C2248 C 0.51613 0.66566 0.14101 0.0
C2249 C 0.50808 0.69614 0.21536 0.0
C2250 C 0.52415 0.59799 0.07249 0.0
C2251 C 0.52488 0.61397 0.08963 0.0
C2252 C 0.5195 0.62087 0.15243 0.0
C2253 C 0.5213 0.67758 0.18112 0.0
C2254 C 0.51907 0.65983 0.16371 0.0
C2255 C 0.51631 0.60936 0.11131 0.0
C2256 C 0.51684 0.62669 0.12957 0.0
H2257 H 0.54784 0.72729 0.18811 0.0
H2258 H 0.54714 0.6956 0.16271 0.0
H2259 H 0.52279 0.63221 0.18662 0.0
H2260 H 0.49965 0.55583 0.10193 0.0
H2261 H 0.50004 0.58383 0.13145 0.0
C2262 C 0.32427 0.51496 0.21569 0.0
C2263 C 0.30637 0.4996 0.21356 0.0
C2264 C 0.34265 0.51447 0.20067 0.0
C2265 C 0.3534 0.50125 0.14263 0.0
H2266 H 0.41771 0.50105 0.15706 0.0
C2267 C 0.42129 0.49424 0.07309 0.0
C2268 C 0.44213 0.50518 0.07618 0.0
C2269 C 0.40541 0.49324 0.09057 0.0
C2270 C 0.39983 0.50151 0.15269 0.0
H2271 H 0.29481 0.47045 0.1954 0.0
H2272 H 0.32649 0.47005 0.16894 0.0
H2273 H 0.38962 0.49968 0.18734 0.0
H2274 H 0.46247 0.52424 0.0997 0.0
H2275 H 0.43443 0.52342 0.12977 0.0
H2276 H 0.36319 0.50396 0.1082 0.0
C2277 C 0.32616 0.48256 0.18203 0.0
C2278 C 0.3838 0.50057 0.17008 0.0
C2279 C 0.30804 0.48285 0.19715 0.0
C2280 C 0.44662 0.51547 0.09692 0.0
C2281 C 0.43057 0.51484 0.11424 0.0
C2282 C 0.36935 0.50261 0.1253 0.0
C2283 C 0.34325 0.49876 0.18322 0.0
C2284 C 0.36047 0.5002 0.16515 0.0
C2285 C 0.4098 0.50355 0.1114 0.0
C2286 C 0.39282 0.50256 0.13003 0.0
H2287 H 0.32344 0.52811 0.22808 0.0
H2288 H 0.35569 0.52712 0.20189 0.0
H2289 H 0.33545 0.50133 0.13844 0.0
H2290 H 0.41749 0.48595 0.05736 0.0
H2291 H 0.38985 0.484 0.08781 0.0
C2292 C 0.80207 0.49076 0.69263 0.0
C2293 C 0.80137 0.50792 0.70854 0.0
C2294 C 0.81706 0.49199 0.67439 0.0
C2295 C 0.87153 0.51879 0.6599 0.0
H2296 H 0.86061 0.49329 0.60106 0.0
C2297 C 0.94451 0.5029 0.59699 0.0
C2298 C 0.94012 0.50729 0.5742 0.0
C2299 C 0.92683 0.50334 0.61274 0.0
C2300 C 0.86388 0.50067 0.61735 0.0
H2301 H 0.81422 0.54046 0.71721 0.0
H2302 H 0.83975 0.54308 0.68496 0.0
H2303 H 0.82966 0.49495 0.62834 0.0
H2304 H 0.91367 0.51597 0.5502 0.0
H2305 H 0.88314 0.51712 0.57763 0.0
H2306 H 0.90556 0.52494 0.64883 0.0
C2307 C 0.82936 0.52835 0.68683 0.0
C2308 C 0.84619 0.50141 0.63305 0.0
C2309 C 0.81459 0.527 0.70513 0.0
C2310 C 0.9177 0.51227 0.56757 0.0
C2311 C 0.9001 0.51283 0.5833 0.0
C2312 C 0.88915 0.51813 0.64419 0.0
C2313 C 0.83146 0.51049 0.67175 0.0
C2314 C 0.84981 0.51046 0.65454 0.0
C2315 C 0.90441 0.50832 0.60606 0.0
C2316 C 0.88559 0.509 0.62275 0.0
H2317 H 0.79217 0.47579 0.69512 0.0
H2318 H 0.81831 0.47788 0.66318 0.0
H2319 H 0.87508 0.5255 0.67642 0.0
H2320 H 0.96153 0.49886 0.60267 0.0
H2321 H 0.93069 0.49949 0.63011 0.0
C2322 C 0.49811 0.79916 0.69689 0.0
C2323 C 0.51815 0.79532 0.70913 0.0
C2324 C 0.49791 0.81438 0.67901 0.0
C2325 C 0.52948 0.86418 0.65937 0.0
H2326 H 0.49189 0.85817 0.60619 0.0
C2327 C 0.51401 0.9379 0.5983 0.0
C2328 C 0.51366 0.93322 0.57511 0.0
C2329 C 0.51439 0.92067 0.61419 0.0
C2330 C 0.50263 0.8601 0.62086 0.0
H2331 H 0.55379 0.80378 0.712 0.0
H2332 H 0.55378 0.82967 0.68038 0.0
H2333 H 0.49381 0.8278 0.63324 0.0
H2334 H 0.51339 0.90638 0.55069 0.0
H2335 H 0.5143 0.87667 0.5782 0.0
H2336 H 0.5386 0.89629 0.64686 0.0
C2337 C 0.53807 0.82129 0.68467 0.0
C2338 C 0.50355 0.84271 0.63652 0.0
C2339 C 0.53821 0.80617 0.70254 0.0
C2340 C 0.5136 0.9108 0.56833 0.0
C2341 C 0.51396 0.89363 0.58419 0.0
C2342 C 0.52854 0.88155 0.64374 0.0
C2343 C 0.51776 0.82619 0.6731 0.0
C2344 C 0.51704 0.84446 0.656 0.0
C2345 C 0.5144 0.89827 0.60736 0.0
C2346 C 0.51512 0.87979 0.62422 0.0
H2347 H 0.4823 0.79143 0.70204 0.0
H2348 H 0.4819 0.81779 0.67069 0.0
H2349 H 0.53976 0.86638 0.67431 0.0
H2350 H 0.51403 0.95489 0.60424 0.0
H2351 H 0.51444 0.92495 0.63187 0.0
C2352 C 0.22313 0.49509 0.69868 0.0
C2353 C 0.2421 0.50808 0.6927 0.0
C2354 C 0.20352 0.49505 0.6853 0.0
C2355 C 0.1747 0.52771 0.64029 0.0
H2356 H 0.13942 0.47391 0.63216 0.0
C2357 C 0.10887 0.51674 0.56951 0.0
C2358 C 0.08762 0.50757 0.57515 0.0
C2359 C 0.12654 0.51728 0.58517 0.0
C2360 C 0.14897 0.48911 0.63451 0.0
H2361 H 0.25547 0.53081 0.66789 0.0
H2362 H 0.22173 0.53012 0.64406 0.0
H2363 H 0.17297 0.47342 0.6564 0.0
H2364 H 0.06825 0.49178 0.60173 0.0
H2365 H 0.0995 0.49238 0.62913 0.0
H2366 H 0.15109 0.54313 0.61774 0.0
C2367 C 0.22164 0.52045 0.65939 0.0
C2368 C 0.1682 0.48888 0.64843 0.0
C2369 C 0.2411 0.52067 0.67289 0.0
C2370 C 0.08441 0.49902 0.59692 0.0
C2371 C 0.10229 0.49924 0.61253 0.0
C2372 C 0.15569 0.52785 0.62619 0.0
C2373 C 0.20244 0.50783 0.66553 0.0
C2374 C 0.18147 0.50814 0.65135 0.0
C2375 C 0.12352 0.50841 0.60679 0.0
C2376 C 0.14274 0.50852 0.62299 0.0
H2377 H 0.22326 0.48499 0.71368 0.0
H2378 H 0.18906 0.48529 0.69072 0.0
H2379 H 0.18408 0.54302 0.64253 0.0
H2380 H 0.11189 0.5236 0.55294 0.0
H2381 H 0.14277 0.52429 0.58022 0.0
C2382 C 0.51595 0.22889 0.67619 0.0
C2383 C 0.50671 0.22684 0.69788 0.0
C2384 C 0.51784 0.21034 0.66205 0.0
C2385 C 0.51842 0.14852 0.66108 0.0
H2386 H 0.50002 0.15655 0.59905 0.0
C2387 C 0.50898 0.0743 0.59826 0.0
C2388 C 0.51476 0.07811 0.57561 0.0
C2389 C 0.50852 0.09188 0.61384 0.0
C2390 C 0.50557 0.15397 0.61621 0.0
H2391 H 0.49313 0.20356 0.72209 0.0
H2392 H 0.49662 0.17107 0.69754 0.0
H2393 H 0.49912 0.18792 0.62474 0.0
H2394 H 0.52544 0.10353 0.552 0.0
H2395 H 0.52512 0.13369 0.57894 0.0
H2396 H 0.52505 0.11455 0.65245 0.0
C2397 C 0.50235 0.18703 0.69137 0.0
C2398 C 0.50502 0.17206 0.63101 0.0
C2399 C 0.50031 0.20564 0.70546 0.0
C2400 C 0.52056 0.09987 0.56916 0.0
C2401 C 0.52025 0.11732 0.58469 0.0
C2402 C 0.51912 0.13039 0.6462 0.0
C2403 C 0.51078 0.18917 0.66931 0.0
C2404 C 0.51151 0.16967 0.65364 0.0
C2405 C 0.51394 0.11374 0.60723 0.0
C2406 C 0.51282 0.13285 0.62347 0.0
H2407 H 0.52126 0.24497 0.66998 0.0
H2408 H 0.5248 0.2126 0.64535 0.0
H2409 H 0.5237 0.14606 0.67834 0.0
H2410 H 0.50435 0.05782 0.60388 0.0
H2411 H 0.50339 0.08839 0.63096 0.0
C2412 C 0.80259 0.52091 0.31369 0.0
C2413 C 0.80189 0.50386 0.29765 0.0
C2414 C 0.81772 0.51963 0.33182 0.0
C2415 C 0.87241 0.493 0.34587 0.0
H2416 H 0.86147 0.51776 0.40502 0.0
C2417 C 0.94533 0.50831 0.40911 0.0
C2418 C 0.94087 0.50365 0.43183 0.0
C2419 C 0.92771 0.50798 0.39329 0.0
C2420 C 0.86475 0.5106 0.38864 0.0
H2421 H 0.8149 0.47147 0.28864 0.0
H2422 H 0.84067 0.46876 0.32069 0.0
H2423 H 0.8305 0.5163 0.37778 0.0
H2424 H 0.91437 0.49454 0.45562 0.0
H2425 H 0.88396 0.49359 0.42808 0.0
H2426 H 0.90649 0.48685 0.35682 0.0
C2427 C 0.83018 0.48344 0.31901 0.0
C2428 C 0.84704 0.50996 0.37295 0.0
C2429 C 0.81527 0.48485 0.30082 0.0
C2430 C 0.91845 0.49846 0.43831 0.0
C2431 C 0.90092 0.49802 0.42252 0.0
C2432 C 0.89006 0.49354 0.36156 0.0
C2433 C 0.83225 0.50119 0.33423 0.0
C2434 C 0.85067 0.50116 0.35137 0.0
C2435 C 0.90528 0.50286 0.39984 0.0
C2436 C 0.88648 0.50239 0.38312 0.0
H2437 H 0.79258 0.53583 0.3114 0.0
H2438 H 0.81894 0.53365 0.34315 0.0
H2439 H 0.87596 0.48648 0.32926 0.0
H2440 H 0.96236 0.5125 0.40357 0.0
H2441 H 0.93161 0.51206 0.37599 0.0
C2442 C 0.51284 0.78304 0.33055 0.0
C2443 C 0.5056 0.78571 0.3082 0.0
C2444 C 0.51476 0.8014 0.34495 0.0
C2445 C 0.51954 0.86299 0.3464 0.0
H2446 H 0.49541 0.85622 0.40664 0.0
C2447 C 0.51034 0.9376 0.40877 0.0
C2448 C 0.51424 0.9334 0.43174 0.0
C2449 C 0.50976 0.92011 0.39308 0.0
C2450 C 0.50257 0.85842 0.39001 0.0
H2451 H 0.49552 0.80986 0.2832 0.0
H2452 H 0.49918 0.842 0.30818 0.0
H2453 H 0.49442 0.825 0.38074 0.0
H2454 H 0.52127 0.90723 0.45588 0.0
H2455 H 0.52067 0.87722 0.42881 0.0
H2456 H 0.52787 0.89642 0.35578 0.0
C2457 C 0.50331 0.8257 0.31465 0.0
C2458 C 0.50196 0.84042 0.3751 0.0
C2459 C 0.50121 0.80729 0.30031 0.0
C2460 C 0.51793 0.91127 0.43845 0.0
C2461 C 0.51745 0.8939 0.42284 0.0
C2462 C 0.52029 0.88102 0.36141 0.0
C2463 C 0.50974 0.82298 0.3373 0.0
C2464 C 0.51051 0.84238 0.3531 0.0
C2465 C 0.51312 0.89793 0.39992 0.0
C2466 C 0.51192 0.87898 0.38352 0.0
H2467 H 0.51654 0.76665 0.33706 0.0
H2468 H 0.52012 0.79867 0.36214 0.0
H2469 H 0.52645 0.8651 0.32965 0.0
H2470 H 0.50737 0.95436 0.40291 0.0
H2471 H 0.50619 0.92395 0.37566 0.0
C2472 C 0.22329 0.51617 0.30842 0.0
C2473 C 0.24245 0.50342 0.31432 0.0
C2474 C 0.20387 0.51623 0.32204 0.0
C2475 C 0.17586 0.48383 0.36766 0.0
H2476 H 0.14005 0.53735 0.37541 0.0
C2477 C 0.10972 0.49458 0.43824 0.0
C2478 C 0.0884 0.50352 0.43243 0.0
C2479 C 0.12748 0.49414 0.42268 0.0
C2480 C 0.14976 0.52223 0.37318 0.0
H2481 H 0.25634 0.4811 0.33924 0.0
H2482 H 0.22291 0.48184 0.3635 0.0
H2483 H 0.1735 0.53795 0.35105 0.0
H2484 H 0.06904 0.51902 0.40567 0.0
H2485 H 0.10042 0.51858 0.37845 0.0
H2486 H 0.15248 0.46838 0.39042 0.0
C2487 C 0.22255 0.49133 0.34806 0.0
C2488 C 0.16892 0.52252 0.35919 0.0
C2489 C 0.24183 0.49108 0.3343 0.0
C2490 C 0.08524 0.51195 0.41062 0.0
C2491 C 0.1032 0.51183 0.3951 0.0
C2492 C 0.1569 0.48363 0.38184 0.0
C2493 C 0.20317 0.5037 0.34199 0.0
C2494 C 0.18235 0.50336 0.35638 0.0
C2495 C 0.12448 0.50288 0.40101 0.0
C2496 C 0.14375 0.50286 0.38488 0.0
H2497 H 0.22312 0.52606 0.29327 0.0
H2498 H 0.18925 0.5258 0.31667 0.0
H2499 H 0.18538 0.46859 0.36552 0.0
H2500 H 0.11271 0.48781 0.45486 0.0
H2501 H 0.14375 0.48731 0.42775 0.0
C2502 C 0.53859 0.20511 0.30451 0.0
C2503 C 0.51861 0.21618 0.29803 0.0
C2504 C 0.53839 0.19 0.32238 0.0
C2505 C 0.50395 0.16887 0.37074 0.0
H2506 H 0.53856 0.11506 0.36024 0.0
C2507 C 0.51393 0.10074 0.43895 0.0
C2508 C 0.51388 0.07832 0.4322 0.0
C2509 C 0.51429 0.1179 0.42307 0.0
C2510 C 0.52862 0.12986 0.36341 0.0
H2511 H 0.48286 0.22047 0.30536 0.0
H2512 H 0.48236 0.19411 0.33672 0.0
H2513 H 0.53976 0.14493 0.33276 0.0
H2514 H 0.51406 0.05662 0.40308 0.0
H2515 H 0.51445 0.08654 0.37542 0.0
H2516 H 0.49236 0.1535 0.40115 0.0
C2517 C 0.49836 0.19735 0.32829 0.0
C2518 C 0.52958 0.14722 0.34776 0.0
C2519 C 0.49861 0.21257 0.31041 0.0
C2520 C 0.51413 0.07362 0.40901 0.0
C2521 C 0.5145 0.09083 0.3931 0.0
C2522 C 0.503 0.15149 0.38642 0.0
C2523 C 0.51811 0.18531 0.33408 0.0
C2524 C 0.51731 0.16703 0.35118 0.0
C2525 C 0.51461 0.11325 0.3999 0.0
C2526 C 0.51534 0.13171 0.38301 0.0
H2527 H 0.55414 0.20734 0.29496 0.0
H2528 H 0.55405 0.18146 0.32658 0.0
H2529 H 0.49433 0.18385 0.37407 0.0
H2530 H 0.51381 0.10519 0.45659 0.0
H2531 H 0.51472 0.13487 0.42905 0.0
C2532 C 0.72514 0.81771 0.52221 0.0
C2533 C 0.72414 0.79882 0.50834 0.0
C2534 C 0.70703 0.83267 0.52305 0.0
C2535 C 0.64639 0.84173 0.51156 0.0
H2536 H 0.66544 0.90232 0.50024 0.0
C2537 C 0.58107 0.91235 0.49654 0.0
C2538 C 0.58636 0.93376 0.5044 0.0
C2539 C 0.59727 0.89533 0.49722 0.0
C2540 C 0.65974 0.88562 0.50381 0.0
H2541 H 0.7026 0.77995 0.48582 0.0
H2542 H 0.67047 0.80604 0.48769 0.0
H2543 H 0.69377 0.87302 0.50241 0.0
H2544 H 0.61282 0.95393 0.51945 0.0
H2545 H 0.6408 0.92419 0.52137 0.0
H2546 H 0.61238 0.85434 0.51354 0.0
C2547 C 0.68551 0.80929 0.4977 0.0
C2548 C 0.67604 0.86876 0.50494 0.0
C2549 C 0.70382 0.79431 0.49671 0.0
C2550 C 0.60825 0.93771 0.51302 0.0
C2551 C 0.62436 0.9206 0.51402 0.0
C2552 C 0.63004 0.85867 0.51075 0.0
C2553 C 0.68731 0.82903 0.51025 0.0
C2554 C 0.6696 0.84665 0.5089 0.0
C2555 C 0.61915 0.89913 0.50607 0.0
C2556 C 0.63648 0.88091 0.5069 0.0
H2557 H 0.74041 0.82145 0.5317 0.0
H2558 H 0.70872 0.84748 0.53326 0.0
H2559 H 0.64095 0.82485 0.51474 0.0
H2560 H 0.56443 0.90875 0.48958 0.0
H2561 H 0.59266 0.87924 0.49051 0.0
C2562 C 0.70348 0.21738 0.51008 0.0
C2563 C 0.72385 0.2129 0.49853 0.0
C2564 C 0.68525 0.2023 0.50914 0.0
C2565 C 0.67608 0.14274 0.50215 0.0
H2566 H 0.61237 0.15694 0.49355 0.0
C2567 C 0.6084 0.07363 0.4944 0.0
C2568 C 0.58653 0.07759 0.50306 0.0
C2569 C 0.6245 0.09075 0.49334 0.0
C2570 C 0.63004 0.15267 0.49634 0.0
H2571 H 0.74031 0.19023 0.47535 0.0
H2572 H 0.70877 0.16403 0.47387 0.0
H2573 H 0.64083 0.18651 0.49219 0.0
H2574 H 0.56463 0.10261 0.51791 0.0
H2575 H 0.59283 0.13213 0.51685 0.0
H2576 H 0.66559 0.10917 0.507 0.0
C2577 C 0.70697 0.17888 0.48398 0.0
C2578 C 0.64634 0.16966 0.49544 0.0
C2579 C 0.72499 0.19393 0.48478 0.0
C2580 C 0.58125 0.09901 0.51092 0.0
C2581 C 0.59743 0.11603 0.51016 0.0
C2582 C 0.65983 0.12585 0.50336 0.0
C2583 C 0.68719 0.1825 0.49671 0.0
C2584 C 0.66956 0.16482 0.49811 0.0
C2585 C 0.61928 0.11222 0.50124 0.0
C2586 C 0.63656 0.13048 0.50029 0.0
H2587 H 0.70214 0.23181 0.52087 0.0
H2588 H 0.67017 0.20554 0.51908 0.0
H2589 H 0.69383 0.13855 0.50469 0.0
H2590 H 0.61296 0.0574 0.48798 0.0
H2591 H 0.64093 0.08716 0.48596 0.0
C2592 C 0.81636 0.70974 0.51744 0.0
C2593 C 0.79375 0.70223 0.51626 0.0
C2594 C 0.83454 0.69491 0.51463 0.0
C2595 C 0.848 0.63506 0.51911 0.0
H2596 H 0.9032 0.65078 0.48715 0.0
C2597 C 0.91764 0.57009 0.50094 0.0
C2598 C 0.9406 0.5765 0.5029 0.0
C2599 C 0.90017 0.58584 0.5018 0.0
C2600 C 0.88802 0.6462 0.49636 0.0
H2601 H 0.77237 0.67367 0.50996 0.0
H2602 H 0.80401 0.64774 0.50493 0.0
H2603 H 0.87194 0.67744 0.48952 0.0
H2604 H 0.963 0.60483 0.50711 0.0
H2605 H 0.93246 0.63227 0.50887 0.0
H2606 H 0.86399 0.60396 0.52618 0.0
C2607 C 0.80779 0.66497 0.50854 0.0
C2608 C 0.87006 0.6615 0.49769 0.0
C2609 C 0.78965 0.67981 0.51128 0.0
C2610 C 0.94557 0.59922 0.50548 0.0
C2611 C 0.92802 0.61501 0.50639 0.0
C2612 C 0.86592 0.61982 0.51784 0.0
C2613 C 0.83049 0.67224 0.51052 0.0
C2614 C 0.84975 0.65608 0.50899 0.0
C2615 C 0.90505 0.6085 0.50473 0.0
C2616 C 0.88616 0.62509 0.50635 0.0
H2617 H 0.81995 0.727 0.5211 0.0
H2618 H 0.85176 0.70111 0.51636 0.0
H2619 H 0.83284 0.63045 0.52838 0.0
H2620 H 0.91301 0.55283 0.49875 0.0
H2621 H 0.88276 0.58019 0.5 0.0
C2622 C 0.32306 0.79647 0.51782 0.0
C2623 C 0.307 0.79574 0.50039 0.0
C2624 C 0.34099 0.81181 0.51713 0.0
C2625 C 0.35474 0.86611 0.49113 0.0
H2626 H 0.41442 0.85593 0.51683 0.0
C2627 C 0.41845 0.93794 0.5064 0.0
C2628 C 0.4416 0.93363 0.50226 0.0
C2629 C 0.40247 0.92067 0.5061 0.0
C2630 C 0.3979 0.85904 0.50939 0.0
H2631 H 0.29759 0.80934 0.46807 0.0
H2632 H 0.32934 0.8354 0.46627 0.0
H2633 H 0.38714 0.82552 0.51497 0.0
H2634 H 0.46592 0.90764 0.49417 0.0
H2635 H 0.43817 0.87789 0.49323 0.0
H2636 H 0.36564 0.89944 0.48503 0.0
C2637 C 0.32788 0.8247 0.48082 0.0
C2638 C 0.38215 0.84162 0.50856 0.0
C2639 C 0.30989 0.80957 0.48165 0.0
C2640 C 0.4483 0.91166 0.49766 0.0
C2641 C 0.43235 0.89447 0.49725 0.0
C2642 C 0.3705 0.88348 0.49187 0.0
C2643 C 0.34319 0.82662 0.49891 0.0
C2644 C 0.36035 0.8449 0.49938 0.0
C2645 C 0.40923 0.89868 0.50153 0.0
C2646 C 0.39231 0.8802 0.50101 0.0
H2647 H 0.32089 0.78621 0.53263 0.0
H2648 H 0.35232 0.81286 0.53144 0.0
H2649 H 0.33799 0.86946 0.48433 0.0
H2650 H 0.41267 0.95461 0.51013 0.0
H2651 H 0.38485 0.92452 0.50975 0.0
C2652 C 0.24011 0.33354 0.50861 0.0
C2653 C 0.23671 0.31126 0.51458 0.0
C2654 C 0.22158 0.34796 0.50644 0.0
C2655 C 0.15893 0.3501 0.49879 0.0
H2656 H 0.16545 0.40851 0.52534 0.0
C2657 C 0.08326 0.41199 0.50801 0.0
C2658 C 0.088 0.43459 0.50431 0.0
C2659 C 0.10092 0.39632 0.5087 0.0
C2660 C 0.16339 0.39238 0.51757 0.0
H2661 H 0.21134 0.28624 0.52181 0.0
H2662 H 0.17882 0.31145 0.51808 0.0
H2663 H 0.19705 0.38249 0.52691 0.0
H2664 H 0.11518 0.45817 0.49773 0.0
H2665 H 0.1456 0.43103 0.49866 0.0
H2666 H 0.1252 0.36011 0.4894 0.0
C2667 C 0.1958 0.31783 0.51514 0.0
C2668 C 0.18155 0.37743 0.51848 0.0
C2669 C 0.21437 0.30342 0.51739 0.0
C2670 C 0.11078 0.44101 0.50093 0.0
C2671 C 0.12834 0.4254 0.50156 0.0
C2672 C 0.14072 0.36512 0.49782 0.0
C2673 C 0.1992 0.34038 0.51 0.0
C2674 C 0.17964 0.35614 0.509 0.0
C2675 C 0.12372 0.40288 0.50568 0.0
C2676 C 0.14277 0.38652 0.50709 0.0
H2677 H 0.25716 0.33988 0.50601 0.0
H2678 H 0.2248 0.36511 0.50201 0.0
H2679 H 0.15693 0.3339 0.49116 0.0
H2680 H 0.06595 0.40641 0.51072 0.0
H2681 H 0.09673 0.37915 0.51208 0.0
C2682 C 0.32359 0.21539 0.48895 0.0
C2683 C 0.30746 0.21617 0.50631 0.0
C2684 C 0.34148 0.20002 0.48973 0.0
C2685 C 0.355 0.14571 0.5158 0.0
H2686 H 0.4148 0.15577 0.49034 0.0
C2687 C 0.41861 0.07377 0.50073 0.0
C2688 C 0.44174 0.07803 0.50497 0.0
C2689 C 0.40266 0.09108 0.50098 0.0
C2690 C 0.39825 0.1527 0.49771 0.0
H2691 H 0.29789 0.20261 0.53861 0.0
H2692 H 0.32958 0.17648 0.54055 0.0
H2693 H 0.38759 0.18623 0.4921 0.0
H2694 H 0.46608 0.10397 0.51321 0.0
H2695 H 0.43839 0.13377 0.51407 0.0
H2696 H 0.36579 0.11236 0.52193 0.0
C2697 C 0.32819 0.18717 0.52599 0.0
C2698 C 0.38253 0.17015 0.49849 0.0
C2699 C 0.31024 0.20234 0.52508 0.0
C2700 C 0.44847 0.09998 0.50964 0.0
C2701 C 0.43256 0.1172 0.51001 0.0
C2702 C 0.37072 0.12831 0.51512 0.0
C2703 C 0.34358 0.18522 0.50796 0.0
C2704 C 0.36069 0.16691 0.50757 0.0
C2705 C 0.40945 0.11304 0.50561 0.0
C2706 C 0.39257 0.13155 0.50606 0.0
H2707 H 0.32151 0.22565 0.47414 0.0
H2708 H 0.35287 0.19893 0.47546 0.0
H2709 H 0.33821 0.1424 0.52253 0.0
H2710 H 0.41282 0.05712 0.49695 0.0
H2711 H 0.38506 0.08726 0.49724 0.0
C2712 C 0.8154 0.30215 0.48867 0.0
C2713 C 0.79283 0.30973 0.49009 0.0
C2714 C 0.83365 0.3169 0.49143 0.0
C2715 C 0.84729 0.37671 0.48722 0.0
H2716 H 0.90262 0.36062 0.5188 0.0
C2717 C 0.91728 0.4413 0.50542 0.0
C2718 C 0.9402 0.43482 0.5033 0.0
C2719 C 0.89974 0.42564 0.50455 0.0
C2720 C 0.8874 0.36531 0.50969 0.0
H2721 H 0.7716 0.33832 0.49673 0.0
H2722 H 0.80337 0.36411 0.50165 0.0
H2723 H 0.87125 0.33408 0.51645 0.0
H2724 H 0.96247 0.40643 0.49876 0.0
H2725 H 0.93181 0.37913 0.49697 0.0
H2726 H 0.86337 0.40779 0.48024 0.0
C2727 C 0.80705 0.3469 0.49791 0.0
C2728 C 0.86938 0.35008 0.50837 0.0
C2729 C 0.78884 0.33214 0.49522 0.0
C2730 C 0.94507 0.4121 0.50053 0.0
C2731 C 0.92745 0.39639 0.4996 0.0
C2732 C 0.86528 0.39187 0.48847 0.0
C2733 C 0.82971 0.33956 0.49571 0.0
C2734 C 0.84903 0.35563 0.49721 0.0
C2735 C 0.90452 0.40297 0.50143 0.0
C2736 C 0.88556 0.38647 0.49982 0.0
H2737 H 0.8189 0.2849 0.4849 0.0
H2738 H 0.85083 0.31066 0.48953 0.0
H2739 H 0.83211 0.38142 0.47807 0.0
H2740 H 0.91274 0.45857 0.50777 0.0
H2741 H 0.88237 0.43134 0.50648 0.0
C2742 C 0.21373 0.70806 0.48999 0.0
C2743 C 0.23619 0.70046 0.4925 0.0
C2744 C 0.19534 0.69343 0.49233 0.0
C2745 C 0.18171 0.63367 0.48879 0.0
H2746 H 0.12542 0.6504 0.51831 0.0
C2747 C 0.11119 0.56957 0.50605 0.0
C2748 C 0.08838 0.57601 0.50288 0.0
C2749 C 0.12874 0.58521 0.50547 0.0
C2750 C 0.14092 0.64554 0.50977 0.0
H2751 H 0.25706 0.67199 0.50061 0.0
H2752 H 0.22504 0.64639 0.50479 0.0
H2753 H 0.15691 0.67685 0.51653 0.0
H2754 H 0.06629 0.60425 0.49687 0.0
H2755 H 0.09701 0.63152 0.4956 0.0
H2756 H 0.16581 0.60251 0.48183 0.0
C2757 C 0.22157 0.66352 0.50053 0.0
C2758 C 0.159 0.66071 0.50879 0.0
C2759 C 0.23991 0.67818 0.49826 0.0
C2760 C 0.08361 0.59864 0.49942 0.0
C2761 C 0.10124 0.61433 0.49879 0.0
C2762 C 0.16367 0.61857 0.48972 0.0
C2763 C 0.19906 0.67088 0.49727 0.0
C2764 C 0.17968 0.6549 0.49838 0.0
C2765 C 0.12407 0.60778 0.50164 0.0
C2766 C 0.14306 0.62422 0.50034 0.0
H2767 H 0.21044 0.72524 0.48571 0.0
H2768 H 0.17827 0.69965 0.48961 0.0
H2769 H 0.19719 0.62878 0.48022 0.0
H2770 H 0.11561 0.55237 0.50903 0.0
H2771 H 0.14603 0.57958 0.50821 0.0
loop_
_geom_bond_atom_site_label_1
_geom_bond_atom_site_label_2
_geom_bond_distance
_geom_bond_site_symmetry_2
_ccdc_geom_bond_type
H0 C7 0.929 . S
H1 C10 0.930 . S
H2 C12 0.929 . S
H3 C4 0.969 1_655 S
C4 H3 0.969 1_455 S
C4 O5 1.550 . S
C4 H6 0.973 . S
O5 C4 1.550 . S
O5 C11 1.412 . S
H6 C4 0.973 . S
C7 H0 0.929 . S
C7 C8 1.400 . S
C7 C9 1.364 . S
C8 C7 1.400 . S
C8 C12 1.377 . S
C9 C7 1.364 . S
C9 C10 1.374 . S
C10 H1 0.930 . S
C10 C9 1.374 . S
C10 C11 1.383 . S
C11 O5 1.412 . S
C11 C10 1.383 . S
C11 C12 1.394 . S
C12 H2 0.929 . S
C12 C8 1.377 . S
C12 C11 1.394 . S
H13 C20 0.931 . S
H14 C23 0.930 . S
H15 C25 0.931 . S
H16 C17 0.969 . S
C17 H16 0.969 . S
C17 O18 1.550 1_545 S
C17 H19 0.973 1_545 S
O18 C17 1.550 1_565 S
O18 C24 1.412 1_565 S
H19 C17 0.973 1_565 S
C20 H13 0.931 . S
C20 C21 1.400 . S
C20 C22 1.364 . S
C21 C20 1.400 . S
C21 C25 1.377 . S
C22 C20 1.364 . S
C22 C23 1.376 . S
C23 H14 0.930 . S
C23 C22 1.376 . S
C23 C24 1.386 . S
C24 O18 1.412 1_545 S
C24 C23 1.386 . S
C24 C25 1.394 . S
C25 H15 0.931 . S
C25 C21 1.377 . S
C25 C24 1.394 . S
H26 C33 0.929 . S
H27 C36 0.930 . S
H28 C38 0.929 . S
H29 C30 0.969 1_655 S
C30 H29 0.969 1_455 S
C30 O31 1.550 . S
C30 H32 0.973 . S
O31 C30 1.550 . S
O31 C37 1.412 . S
H32 C30 0.973 . S
C33 H26 0.929 . S
C33 C34 1.400 . S
C33 C35 1.364 . S
C34 C33 1.400 . S
C34 C38 1.377 . S
C35 C33 1.364 . S
C35 C36 1.374 . S
C36 H27 0.930 . S
C36 C35 1.374 . S
C36 C37 1.383 . S
C37 O31 1.412 . S
C37 C36 1.383 . S
C37 C38 1.394 . S
C38 H28 0.929 . S
C38 C34 1.377 . S
C38 C37 1.394 . S
H39 C46 0.931 . S
H40 C49 0.930 . S
H41 C51 0.931 . S
H42 C43 0.969 . S
C43 H42 0.969 . S
C43 O44 1.550 1_545 S
C43 H45 0.973 1_545 S
O44 C43 1.550 1_565 S
O44 C50 1.412 1_565 S
H45 C43 0.973 1_565 S
C46 H39 0.931 . S
C46 C47 1.400 . S
C46 C48 1.364 . S
C47 C46 1.400 . S
C47 C51 1.377 . S
C48 C46 1.364 . S
C48 C49 1.376 . S
C49 H40 0.930 . S
C49 C48 1.376 . S
C49 C50 1.386 . S
C50 O44 1.412 1_545 S
C50 C49 1.386 . S
C50 C51 1.394 . S
C51 H41 0.931 . S
C51 C47 1.377 . S
C51 C50 1.394 . S
H52 C59 0.929 . S
H53 C62 0.930 . S
H54 C64 0.929 . S
H55 C56 0.969 1_655 S
C56 H55 0.969 1_455 S
C56 O57 1.550 . S
C56 H58 0.973 . S
O57 C56 1.550 . S
O57 C63 1.412 . S
H58 C56 0.973 . S
C59 H52 0.929 . S
C59 C60 1.400 . S
C59 C61 1.364 . S
C60 C59 1.400 . S
C60 C64 1.377 . S
C61 C59 1.364 . S
C61 C62 1.374 . S
C62 H53 0.930 . S
C62 C61 1.374 . S
C62 C63 1.383 . S
C63 O57 1.412 . S
C63 C62 1.383 . S
C63 C64 1.394 . S
C64 H54 0.929 . S
C64 C60 1.377 . S
C64 C63 1.394 . S
H65 C72 0.928 1_545 S
H66 C75 0.930 . S
H67 C77 0.928 1_545 S
H68 C69 0.969 . S
C69 H68 0.969 . S
C69 O70 1.550 1_565 S
C69 H71 0.973 1_565 S
O70 C69 1.550 1_545 S
O70 C76 1.405 1_545 S
H71 C69 0.973 1_545 S
C72 H65 0.928 1_565 S
C72 C73 1.400 . S
C72 C74 1.364 . S
C73 C72 1.400 . S
C73 C77 1.377 . S
C74 C72 1.364 . S
C74 C75 1.374 1_565 S
C75 H66 0.930 . S
C75 C74 1.374 1_545 S
C75 C76 1.382 1_545 S
C76 O70 1.405 1_565 S
C76 C75 1.382 1_565 S
C76 C77 1.394 . S
C77 H67 0.928 1_565 S
C77 C73 1.377 . S
C77 C76 1.394 . S
H78 C85 0.929 . S
H79 C88 0.930 . S
H80 C90 0.929 . S
H81 C82 0.969 1_655 S
C82 H81 0.969 1_455 S
C82 O83 1.550 . S
C82 H84 0.973 . S
O83 C82 1.550 . S
O83 C89 1.412 . S
H84 C82 0.973 . S
C85 H78 0.929 . S
C85 C86 1.400 . S
C85 C87 1.364 . S
C86 C85 1.400 . S
C86 C90 1.377 . S
C87 C85 1.364 . S
C87 C88 1.374 . S
C88 H79 0.930 . S
C88 C87 1.374 . S
C88 C89 1.383 . S
C89 O83 1.412 . S
C89 C88 1.383 . S
C89 C90 1.394 . S
C90 H80 0.929 . S
C90 C86 1.377 . S
C90 C89 1.394 . S
H91 C98 0.928 1_545 S
H92 C101 0.930 . S
H93 C103 0.928 1_545 S
H94 C95 0.969 . S
C95 H94 0.969 . S
C95 O96 1.550 1_565 S
C95 H97 0.973 1_565 S
O96 C95 1.550 1_545 S
O96 C102 1.405 1_545 S
H97 C95 0.973 1_545 S
C98 H91 0.928 1_565 S
C98 C99 1.400 . S
C98 C100 1.364 . S
C99 C98 1.400 . S
C99 C103 1.377 . S
C100 C98 1.364 . S
C100 C101 1.374 1_565 S
C101 H92 0.930 . S
C101 C100 1.374 1_545 S
C101 C102 1.382 1_545 S
C102 O96 1.405 1_565 S
C102 C101 1.382 1_565 S
C102 C103 1.394 . S
C103 H93 0.928 1_565 S
C103 C99 1.377 . S
C103 C102 1.394 . S
H104 C111 0.928 1_556 S
H105 C114 0.930 . S
H106 C116 0.928 1_556 S
H107 C108 0.969 . S
C108 H107 0.969 . S
C108 O109 1.550 1_554 S
C108 H110 0.973 1_554 S
O109 C108 1.550 1_556 S
O109 C115 1.402 1_556 S
H110 C108 0.973 1_556 S
C111 H104 0.928 1_554 S
C111 C112 1.400 . S
C111 C113 1.364 . S
C112 C111 1.400 . S
C112 C116 1.377 . S
C113 C111 1.364 . S
C113 C114 1.374 1_554 S
C114 H105 0.930 . S
C114 C113 1.374 1_556 S
C114 C115 1.382 1_556 S
C115 O109 1.402 1_554 S
C115 C114 1.382 1_554 S
C115 C116 1.394 . S
C116 H106 0.928 1_554 S
C116 C112 1.377 . S
C116 C115 1.394 . S
H117 C124 0.931 . S
H118 C127 0.930 . S
H119 C129 0.932 . S
H120 C121 0.969 . S
C121 H120 0.969 . S
C121 O122 1.550 1_556 S
C121 H123 0.973 1_556 S
O122 C121 1.550 1_554 S
O122 C128 1.418 . S
H123 C121 0.973 1_554 S
C124 H117 0.931 . S
C124 C125 1.400 . S
C124 C126 1.364 . S
C125 C124 1.400 . S
C125 C129 1.377 . S
C126 C124 1.364 . S
C126 C127 1.376 . S
C127 H118 0.930 . S
C127 C126 1.376 . S
C127 C128 1.384 . S
C128 O122 1.418 . S
C128 C127 1.384 . S
C128 C129 1.394 . S
C129 H119 0.932 . S
C129 C125 1.377 . S
C129 C128 1.394 . S
H130 C137 0.928 1_554 S
H131 C140 0.930 . S
H132 C142 0.928 1_554 S
H133 C134 0.969 . S
C134 H133 0.969 . S
C134 O135 1.550 1_556 S
C134 H136 0.973 1_556 S
O135 C134 1.550 1_554 S
O135 C141 1.405 1_554 S
H136 C134 0.973 1_554 S
C137 H130 0.928 1_556 S
C137 C138 1.400 . S
C137 C139 1.364 . S
C138 C137 1.400 . S
C138 C142 1.377 . S
C139 C137 1.364 . S
C139 C140 1.374 1_556 S
C140 H131 0.930 . S
C140 C139 1.374 1_554 S
C140 C141 1.382 1_554 S
C141 O135 1.405 1_556 S
C141 C140 1.382 1_556 S
C141 C142 1.394 . S
C142 H132 0.928 1_556 S
C142 C138 1.377 . S
C142 C141 1.394 . S
H143 C150 0.931 . S
H144 C153 0.930 . S
H145 C155 0.931 . S
H146 C147 0.969 . S
C147 H146 0.969 . S
C147 O148 1.550 1_554 S
C147 H149 0.973 1_554 S
O148 C147 1.550 1_556 S
O148 C154 1.412 1_556 S
H149 C147 0.973 1_556 S
C150 H143 0.931 . S
C150 C151 1.400 . S
C150 C152 1.364 . S
C151 C150 1.400 . S
C151 C155 1.377 . S
C152 C150 1.364 . S
C152 C153 1.376 . S
C153 H144 0.930 . S
C153 C152 1.376 . S
C153 C154 1.386 . S
C154 O148 1.412 1_554 S
C154 C153 1.386 . S
C154 C155 1.394 . S
C155 H145 0.931 . S
C155 C151 1.377 . S
C155 C154 1.394 . S
H156 C163 0.929 . S
H157 C166 0.930 . S
H158 C168 0.929 . S
H159 C160 0.969 . S
C160 H159 0.969 . S
C160 O161 1.550 . S
C160 H162 0.973 . S
O161 C160 1.550 . S
O161 C167 1.412 . S
H162 C160 0.973 . S
C163 H156 0.929 . S
C163 C164 1.400 . S
C163 C165 1.364 . S
C164 C163 1.400 . S
C164 C168 1.377 . S
C165 C163 1.364 . S
C165 C166 1.374 . S
C166 H157 0.930 . S
C166 C165 1.374 . S
C166 C167 1.383 . S
C167 O161 1.412 . S
C167 C166 1.383 . S
C167 C168 1.394 . S
C168 H158 0.929 . S
C168 C164 1.377 . S
C168 C167 1.394 . S
H169 C176 0.929 . S
H170 C179 0.930 . S
H171 C181 0.929 . S
H172 C173 0.969 . S
C173 H172 0.969 . S
C173 O174 1.550 . S
C173 H175 0.973 . S
O174 C173 1.550 . S
O174 C180 1.412 . S
H175 C173 0.973 . S
C176 H169 0.929 . S
C176 C177 1.400 . S
C176 C178 1.364 . S
C177 C176 1.400 . S
C177 C181 1.377 . S
C178 C176 1.364 . S
C178 C179 1.374 . S
C179 H170 0.930 . S
C179 C178 1.374 . S
C179 C180 1.383 . S
C180 O174 1.412 . S
C180 C179 1.383 . S
C180 C181 1.394 . S
C181 H171 0.929 . S
C181 C177 1.377 . S
C181 C180 1.394 . S
H182 C189 0.929 . S
H183 C192 0.930 . S
H184 C194 0.929 . S
H185 C186 0.969 . S
C186 H185 0.969 . S
C186 O187 1.550 . S
C186 H188 0.973 . S
O187 C186 1.550 . S
O187 C193 1.412 . S
H188 C186 0.973 . S
C189 H182 0.929 . S
C189 C190 1.400 . S
C189 C191 1.364 . S
C190 C189 1.400 . S
C190 C194 1.377 . S
C191 C189 1.364 . S
C191 C192 1.374 . S
C192 H183 0.930 . S
C192 C191 1.374 . S
C192 C193 1.383 . S
C193 O187 1.412 . S
C193 C192 1.383 . S
C193 C194 1.394 . S
C194 H184 0.929 . S
C194 C190 1.377 . S
C194 C193 1.394 . S
H195 C202 0.929 . S
H196 C205 0.930 . S
H197 C207 0.929 . S
H198 C199 0.969 . S
C199 H198 0.969 . S
C199 O200 1.550 . S
C199 H201 0.973 . S
O200 C199 1.550 . S
O200 C206 1.412 . S
H201 C199 0.973 . S
C202 H195 0.929 . S
C202 C203 1.400 . S
C202 C204 1.364 . S
C203 C202 1.400 . S
C203 C207 1.377 . S
C204 C202 1.364 . S
C204 C205 1.374 . S
C205 H196 0.930 . S
C205 C204 1.374 . S
C205 C206 1.383 . S
C206 O200 1.412 . S
C206 C205 1.383 . S
C206 C207 1.394 . S
C207 H197 0.929 . S
C207 C203 1.377 . S
C207 C206 1.394 . S
H208 C215 0.929 . S
H209 C218 0.930 . S
H210 C220 0.929 . S
H211 C212 0.969 . S
C212 H211 0.969 . S
C212 O213 1.550 . S
C212 H214 0.973 . S
O213 C212 1.550 . S
O213 C219 1.412 . S
H214 C212 0.973 . S
C215 H208 0.929 . S
C215 C216 1.400 . S
C215 C217 1.364 . S
C216 C215 1.400 . S
C216 C220 1.377 . S
C217 C215 1.364 . S
C217 C218 1.374 . S
C218 H209 0.930 . S
C218 C217 1.374 . S
C218 C219 1.383 . S
C219 O213 1.412 . S
C219 C218 1.383 . S
C219 C220 1.394 . S
C220 H210 0.929 . S
C220 C216 1.377 . S
C220 C219 1.394 . S
H221 C228 0.929 . S
H222 C231 0.930 . S
H223 C233 0.929 . S
H224 C225 0.969 . S
C225 H224 0.969 . S
C225 O226 1.550 . S
C225 H227 0.973 . S
O226 C225 1.550 . S
O226 C232 1.412 . S
H227 C225 0.973 . S
C228 H221 0.929 . S
C228 C229 1.400 . S
C228 C230 1.364 . S
C229 C228 1.400 . S
C229 C233 1.377 . S
C230 C228 1.364 . S
C230 C231 1.374 . S
C231 H222 0.930 . S
C231 C230 1.374 . S
C231 C232 1.383 . S
C232 O226 1.412 . S
C232 C231 1.383 . S
C232 C233 1.394 . S
C233 H223 0.929 . S
C233 C229 1.377 . S
C233 C232 1.394 . S
H234 C241 0.929 . S
H235 C244 0.930 . S
H236 C246 0.929 . S
H237 C238 0.969 . S
C238 H237 0.969 . S
C238 O239 1.550 . S
C238 H240 0.973 . S
O239 C238 1.550 . S
O239 C245 1.412 . S
H240 C238 0.973 . S
C241 H234 0.929 . S
C241 C242 1.400 . S
C241 C243 1.364 . S
C242 C241 1.400 . S
C242 C246 1.377 . S
C243 C241 1.364 . S
C243 C244 1.374 . S
C244 H235 0.930 . S
C244 C243 1.374 . S
C244 C245 1.383 . S
C245 O239 1.412 . S
C245 C244 1.383 . S
C245 C246 1.394 . S
C246 H236 0.929 . S
C246 C242 1.377 . S
C246 C245 1.394 . S
H247 C254 0.929 . S
H248 C257 0.930 . S
H249 C259 0.929 . S
H250 C251 0.969 . S
C251 H250 0.969 . S
C251 O252 1.550 . S
C251 H253 0.973 . S
O252 C251 1.550 . S
O252 C258 1.412 . S
H253 C251 0.973 . S
C254 H247 0.929 . S
C254 C255 1.400 . S
C254 C256 1.364 . S
C255 C254 1.400 . S
C255 C259 1.377 . S
C256 C254 1.364 . S
C256 C257 1.374 . S
C257 H248 0.930 . S
C257 C256 1.374 . S
C257 C258 1.383 . S
C258 O252 1.412 . S
C258 C257 1.383 . S
C258 C259 1.394 . S
C259 H249 0.929 . S
C259 C255 1.377 . S
C259 C258 1.394 . S
H260 C267 0.929 . S
H261 C270 0.930 . S
H262 C272 0.929 . S
H263 C264 0.969 . S
C264 H263 0.969 . S
C264 O265 1.550 . S
C264 H266 0.973 . S
O265 C264 1.550 . S
O265 C271 1.412 . S
H266 C264 0.973 . S
C267 H260 0.929 . S
C267 C268 1.400 . S
C267 C269 1.364 . S
C268 C267 1.400 . S
C268 C272 1.377 . S
C269 C267 1.364 . S
C269 C270 1.374 . S
C270 H261 0.930 . S
C270 C269 1.374 . S
C270 C271 1.383 . S
C271 O265 1.412 . S
C271 C270 1.383 . S
C271 C272 1.394 . S
C272 H262 0.929 . S
C272 C268 1.377 . S
C272 C271 1.394 . S
H273 C280 0.929 . S
H274 C283 0.930 . S
H275 C285 0.929 . S
H276 C277 0.969 . S
C277 H276 0.969 . S
C277 O278 1.550 . S
C277 H279 0.973 . S
O278 C277 1.550 . S
O278 C284 1.412 . S
H279 C277 0.973 . S
C280 H273 0.929 . S
C280 C281 1.400 . S
C280 C282 1.364 . S
C281 C280 1.400 . S
C281 C285 1.377 . S
C282 C280 1.364 . S
C282 C283 1.374 . S
C283 H274 0.930 . S
C283 C282 1.374 . S
C283 C284 1.383 . S
C284 O278 1.412 . S
C284 C283 1.383 . S
C284 C285 1.394 . S
C285 H275 0.929 . S
C285 C281 1.377 . S
C285 C284 1.394 . S
H286 C293 0.929 . S
H287 C296 0.930 . S
H288 C298 0.929 . S
H289 C290 0.969 . S
C290 H289 0.969 . S
C290 O291 1.550 . S
C290 H292 0.973 . S
O291 C290 1.550 . S
O291 C297 1.412 . S
H292 C290 0.973 . S
C293 H286 0.929 . S
C293 C294 1.400 . S
C293 C295 1.364 . S
C294 C293 1.400 . S
C294 C298 1.377 . S
C295 C293 1.364 . S
C295 C296 1.374 . S
C296 H287 0.930 . S
C296 C295 1.374 . S
C296 C297 1.383 . S
C297 O291 1.412 . S
C297 C296 1.383 . S
C297 C298 1.394 . S
C298 H288 0.929 . S
C298 C294 1.377 . S
C298 C297 1.394 . S
H299 C306 0.929 . S
H300 C309 0.930 . S
H301 C311 0.929 . S
H302 C303 0.969 . S
C303 H302 0.969 . S
C303 O304 1.550 . S
C303 H305 0.973 . S
O304 C303 1.550 . S
O304 C310 1.412 . S
H305 C303 0.973 . S
C306 H299 0.929 . S
C306 C307 1.400 . S
C306 C308 1.364 . S
C307 C306 1.400 . S
C307 C311 1.377 . S
C308 C306 1.364 . S
C308 C309 1.374 . S
C309 H300 0.930 . S
C309 C308 1.374 . S
C309 C310 1.383 . S
C310 O304 1.412 . S
C310 C309 1.383 . S
C310 C311 1.394 . S
C311 H301 0.929 . S
C311 C307 1.377 . S
C311 C310 1.394 . S
C312 O338 1.283 . S
C312 O356 1.283 . S
C313 O339 1.283 . S
C313 O354 1.283 . S
C314 O340 1.283 . S
C314 O357 1.283 . S
C315 O341 1.283 . S
C315 O355 1.283 . S
C316 O342 1.283 . S
C316 O351 1.283 . S
C317 O343 1.283 . S
C317 O353 1.283 . S
C318 O344 1.283 . S
C318 O350 1.283 . S
C319 O345 1.283 . S
C319 O352 1.283 . S
C320 O346 1.283 . S
C320 O361 1.283 . S
C321 O347 1.283 . S
C321 O359 1.283 . S
C322 O348 1.283 . S
C322 O360 1.283 . S
C323 O349 1.283 . S
C323 O358 1.283 . S
Eu324 O325 2.370 1_455 S
Eu324 O326 2.370 . S
Eu324 O329 2.370 1_455 S
Eu324 O330 2.370 . S
Eu324 O338 2.363 . S
Eu324 O339 2.363 . S
Eu324 O352 2.363 . S
Eu324 O353 2.363 1_455 S
O325 Eu324 2.370 1_655 S
O325 Eu327 2.356 1_565 S
O325 Eu332 2.354 1_665 S
O326 Eu324 2.370 . S
O326 Eu328 2.356 1_565 S
O326 Eu331 2.358 1_565 S
Eu327 O325 2.356 1_545 S
Eu327 O329 2.356 1_545 S
Eu327 O333 2.385 . S
Eu327 O334 2.385 . S
Eu327 O342 2.387 . S
Eu327 O343 2.339 1_545 S
Eu327 O358 2.363 . S
Eu327 O359 2.363 . S
Eu328 O326 2.356 1_545 S
Eu328 O330 2.356 1_545 S
Eu328 O335 2.385 . S
Eu328 O336 2.385 . S
Eu328 O344 2.387 . S
Eu328 O345 2.339 1_545 S
Eu328 O360 2.363 . S
Eu328 O361 2.363 . S
O329 Eu324 2.370 1_655 S
O329 Eu327 2.356 1_565 S
O329 Eu331 2.358 1_665 S
O330 Eu324 2.370 . S
O330 Eu328 2.356 1_565 S
O330 Eu332 2.354 1_565 S
Eu331 O326 2.358 1_545 S
Eu331 O329 2.358 1_445 S
Eu331 O333 2.383 1_455 S
Eu331 O336 2.383 . S
Eu331 O348 2.363 . S
Eu331 O349 2.363 1_455 S
Eu331 O356 2.342 1_545 S
Eu331 O357 2.384 . S
Eu332 O325 2.354 1_445 S
Eu332 O330 2.354 1_545 S
Eu332 O334 2.386 1_455 S
Eu332 O335 2.386 . S
Eu332 O346 2.363 . S
Eu332 O347 2.363 1_455 S
Eu332 O354 2.335 1_545 S
Eu332 O355 2.390 . S
O333 Eu327 2.385 . S
O333 Eu331 2.383 1_655 S
O333 Eu337 2.370 1_655 S
O334 Eu327 2.385 . S
O334 Eu332 2.386 1_655 S
O334 Eu337 2.370 1_655 S
O335 Eu328 2.385 . S
O335 Eu332 2.386 . S
O335 Eu337 2.370 . S
O336 Eu328 2.385 . S
O336 Eu331 2.383 . S
O336 Eu337 2.370 . S
Eu337 O333 2.370 1_455 S
Eu337 O334 2.370 1_455 S
Eu337 O335 2.370 . S
Eu337 O336 2.370 . S
Eu337 O340 2.363 . S
Eu337 O341 2.363 . S
Eu337 O350 2.363 . S
Eu337 O351 2.363 1_455 S
O338 C312 1.283 . S
O338 Eu324 2.363 . S
O339 C313 1.283 . S
O339 Eu324 2.363 . S
O340 C314 1.283 . S
O340 Eu337 2.363 . S
O341 C315 1.283 . S
O341 Eu337 2.363 . S
O342 C316 1.283 . S
O342 Eu327 2.387 . S
O343 C317 1.283 . S
O343 Eu327 2.339 1_565 S
O344 C318 1.283 . S
O344 Eu328 2.387 . S
O345 C319 1.283 . S
O345 Eu328 2.339 1_565 S
O346 C320 1.283 . S
O346 Eu332 2.363 . S
O347 C321 1.283 . S
O347 Eu332 2.363 1_655 S
O348 C322 1.283 . S
O348 Eu331 2.363 . S
O349 C323 1.283 . S
O349 Eu331 2.363 1_655 S
O350 C318 1.283 . S
O350 Eu337 2.363 . S
O351 C316 1.283 . S
O351 Eu337 2.363 1_655 S
O352 C319 1.283 . S
O352 Eu324 2.363 . S
O353 C317 1.283 . S
O353 Eu324 2.363 1_655 S
O354 C313 1.283 . S
O354 Eu332 2.335 1_565 S
O355 C315 1.283 . S
O355 Eu332 2.390 . S
O356 C312 1.283 . S
O356 Eu331 2.342 1_565 S
O357 C314 1.283 . S
O357 Eu331 2.384 . S
O358 C323 1.283 . S
O358 Eu327 2.363 . S
O359 C321 1.283 . S
O359 Eu327 2.363 . S
O360 C322 1.283 . S
O360 Eu328 2.363 . S
O361 C320 1.283 . S
O361 Eu328 2.363 . S
C362 O388 1.283 . S
C362 O406 1.283 . S
C363 O389 1.283 . S
C363 O404 1.283 . S
C364 O390 1.283 . S
C364 O407 1.283 . S
C365 O391 1.283 . S
C365 O405 1.283 . S
C366 O392 1.283 . S
C366 O401 1.283 . S
C367 O393 1.283 . S
C367 O403 1.283 . S
C368 O394 1.283 . S
C368 O400 1.283 . S
C369 O395 1.283 . S
C369 O402 1.283 . S
C370 O396 1.283 . S
C370 O411 1.283 . S
C371 O397 1.283 . S
C371 O409 1.283 . S
C372 O398 1.283 . S
C372 O410 1.283 . S
C373 O399 1.283 . S
C373 O408 1.283 . S
Eu374 O375 2.390 . S
Eu374 O376 2.350 1_545 S
Eu374 O379 2.350 1_545 S
Eu374 O380 2.390 . S
Eu374 O388 2.329 1_545 S
Eu374 O389 2.397 . S
Eu374 O402 2.363 . S
Eu374 O403 2.363 . S
O375 Eu374 2.390 . S
O375 Eu377 2.399 . S
O375 Eu382 2.379 . S
O376 Eu374 2.350 1_565 S
O376 Eu378 2.370 1_565 S
O376 Eu381 2.390 . S
Eu377 O375 2.399 . S
Eu377 O379 2.370 1_545 S
Eu377 O383 2.342 1_544 S
Eu377 O384 2.371 1_554 S
Eu377 O392 2.339 1_554 S
Eu377 O393 2.387 . S
Eu377 O408 2.339 1_545 S
Eu377 O409 2.387 . S
Eu378 O376 2.370 1_545 S
Eu378 O380 2.399 . S
Eu378 O385 2.371 1_554 S
Eu378 O386 2.342 1_544 S
Eu378 O394 2.339 1_554 S
Eu378 O395 2.387 . S
Eu378 O410 2.339 1_545 S
Eu378 O411 2.387 . S
O379 Eu374 2.350 1_565 S
O379 Eu377 2.370 1_565 S
O379 Eu381 2.390 . S
O380 Eu374 2.390 . S
O380 Eu378 2.399 . S
O380 Eu382 2.379 . S
Eu381 O376 2.390 . S
Eu381 O379 2.390 . S
Eu381 O383 2.351 1_554 S
Eu381 O386 2.351 1_554 S
Eu381 O398 2.363 . S
Eu381 O399 2.363 . S
Eu381 O406 2.396 . S
Eu381 O407 2.330 1_554 S
Eu382 O375 2.379 . S
Eu382 O380 2.379 . S
Eu382 O384 2.362 1_554 S
Eu382 O385 2.362 1_554 S
Eu382 O396 2.363 . S
Eu382 O397 2.363 . S
Eu382 O404 2.377 . S
Eu382 O405 2.349 1_554 S
O383 Eu377 2.342 1_566 S
O383 Eu381 2.351 1_556 S
O383 Eu387 2.361 1_565 S
O384 Eu377 2.371 1_556 S
O384 Eu382 2.362 1_556 S
O384 Eu387 2.379 . S
O385 Eu378 2.371 1_556 S
O385 Eu382 2.362 1_556 S
O385 Eu387 2.379 . S
O386 Eu378 2.342 1_566 S
O386 Eu381 2.351 1_556 S
O386 Eu387 2.361 1_565 S
Eu387 O383 2.361 1_545 S
Eu387 O384 2.379 . S
Eu387 O385 2.379 . S
Eu387 O386 2.361 1_545 S
Eu387 O390 2.348 1_545 S
Eu387 O391 2.378 . S
Eu387 O400 2.363 . S
Eu387 O401 2.363 . S
O388 C362 1.283 . S
O388 Eu374 2.329 1_565 S
O389 C363 1.283 . S
O389 Eu374 2.397 . S
O390 C364 1.283 . S
O390 Eu387 2.348 1_565 S
O391 C365 1.283 . S
O391 Eu387 2.378 . S
O392 C366 1.283 . S
O392 Eu377 2.339 1_556 S
O393 C367 1.283 . S
O393 Eu377 2.387 . S
O394 C368 1.283 . S
O394 Eu378 2.339 1_556 S
O395 C369 1.283 . S
O395 Eu378 2.387 . S
O396 C370 1.283 . S
O396 Eu382 2.363 . S
O397 C371 1.283 . S
O397 Eu382 2.363 . S
O398 C372 1.283 . S
O398 Eu381 2.363 . S
O399 C373 1.283 . S
O399 Eu381 2.363 . S
O400 C368 1.283 . S
O400 Eu387 2.363 . S
O401 C366 1.283 . S
O401 Eu387 2.363 . S
O402 C369 1.283 . S
O402 Eu374 2.363 . S
O403 C367 1.283 . S
O403 Eu374 2.363 . S
O404 C363 1.283 . S
O404 Eu382 2.377 . S
O405 C365 1.283 . S
O405 Eu382 2.349 1_556 S
O406 C362 1.283 . S
O406 Eu381 2.396 . S
O407 C364 1.283 . S
O407 Eu381 2.330 1_556 S
O408 C373 1.283 . S
O408 Eu377 2.339 1_565 S
O409 C371 1.283 . S
O409 Eu377 2.387 . S
O410 C372 1.283 . S
O410 Eu378 2.339 1_565 S
O411 C370 1.283 . S
O411 Eu378 2.387 . S
C412 O438 1.283 . S
C412 O456 1.283 . S
C413 O439 1.283 . S
C413 O454 1.283 . S
C414 O440 1.283 . S
C414 O457 1.283 . S
C415 O441 1.283 . S
C415 O455 1.283 . S
C416 O442 1.283 . S
C416 O451 1.283 . S
C417 O443 1.283 . S
C417 O453 1.283 . S
C418 O444 1.283 . S
C418 O450 1.283 . S
C419 O445 1.283 . S
C419 O452 1.283 . S
C420 O446 1.283 . S
C420 O461 1.283 . S
C421 O447 1.283 . S
C421 O459 1.283 . S
C422 O448 1.283 . S
C422 O460 1.283 . S
C423 O449 1.283 . S
C423 O458 1.283 . S
Eu424 O425 2.360 1_554 S
Eu424 O426 2.382 . S
Eu424 O429 2.384 . S
Eu424 O430 2.358 1_554 S
Eu424 O438 2.383 . S
Eu424 O439 2.342 1_554 S
Eu424 O452 2.363 . S
Eu424 O453 2.363 1_455 S
O425 Eu424 2.360 1_556 S
O425 Eu427 2.354 1_456 S
O425 Eu432 2.372 . S
O426 Eu424 2.382 . S
O426 Eu428 2.384 . S
O426 Eu431 2.370 . S
Eu427 O425 2.354 1_654 S
Eu427 O429 2.382 1_655 S
Eu427 O433 2.382 1_655 S
Eu427 O434 2.354 1_654 S
Eu427 O442 2.363 . S
Eu427 O443 2.363 . S
Eu427 O458 2.387 . S
Eu427 O459 2.339 1_554 S
Eu428 O426 2.384 . S
Eu428 O430 2.356 1_554 S
Eu428 O435 2.356 1_554 S
Eu428 O436 2.384 . S
Eu428 O444 2.363 . S
Eu428 O445 2.363 . S
Eu428 O460 2.387 . S
Eu428 O461 2.339 1_554 S
O429 Eu424 2.384 . S
O429 Eu427 2.382 1_455 S
O429 Eu431 2.372 . S
O430 Eu424 2.358 1_556 S
O430 Eu428 2.356 1_556 S
O430 Eu432 2.370 . S
Eu431 O426 2.370 . S
Eu431 O429 2.372 . S
Eu431 O433 2.372 . S
Eu431 O436 2.370 . S
Eu431 O448 2.363 . S
Eu431 O449 2.363 1_455 S
Eu431 O456 2.363 . S
Eu431 O457 2.363 . S
Eu432 O425 2.372 . S
Eu432 O430 2.370 . S
Eu432 O434 2.372 . S
Eu432 O435 2.370 . S
Eu432 O446 2.363 . S
Eu432 O447 2.363 1_455 S
Eu432 O454 2.363 . S
Eu432 O455 2.363 . S
O433 Eu427 2.382 1_455 S
O433 Eu431 2.372 . S
O433 Eu437 2.388 . S
O434 Eu427 2.354 1_456 S
O434 Eu432 2.372 . S
O434 Eu437 2.356 1_556 S
O435 Eu428 2.356 1_556 S
O435 Eu432 2.370 . S
O435 Eu437 2.354 1_556 S
O436 Eu428 2.384 . S
O436 Eu431 2.370 . S
O436 Eu437 2.386 . S
Eu437 O433 2.388 . S
Eu437 O434 2.356 1_554 S
Eu437 O435 2.354 1_554 S
Eu437 O436 2.386 . S
Eu437 O440 2.390 . S
Eu437 O441 2.336 1_554 S
Eu437 O450 2.363 . S
Eu437 O451 2.363 1_455 S
O438 C412 1.283 . S
O438 Eu424 2.383 . S
O439 C413 1.283 . S
O439 Eu424 2.342 1_556 S
O440 C414 1.283 . S
O440 Eu437 2.390 . S
O441 C415 1.283 . S
O441 Eu437 2.336 1_556 S
O442 C416 1.283 . S
O442 Eu427 2.363 . S
O443 C417 1.283 . S
O443 Eu427 2.363 . S
O444 C418 1.283 . S
O444 Eu428 2.363 . S
O445 C419 1.283 . S
O445 Eu428 2.363 . S
O446 C420 1.283 . S
O446 Eu432 2.363 . S
O447 C421 1.283 . S
O447 Eu432 2.363 1_655 S
O448 C422 1.283 . S
O448 Eu431 2.363 . S
O449 C423 1.283 . S
O449 Eu431 2.363 1_655 S
O450 C418 1.283 . S
O450 Eu437 2.363 . S
O451 C416 1.283 . S
O451 Eu437 2.363 1_655 S
O452 C419 1.283 . S
O452 Eu424 2.363 . S
O453 C417 1.283 . S
O453 Eu424 2.363 1_655 S
O454 C413 1.283 . S
O454 Eu432 2.363 . S
O455 C415 1.283 . S
O455 Eu432 2.363 . S
O456 C412 1.283 . S
O456 Eu431 2.363 . S
O457 C414 1.283 . S
O457 Eu431 2.363 . S
O458 C423 1.283 . S
O458 Eu427 2.387 . S
O459 C421 1.283 . S
O459 Eu427 2.339 1_556 S
O460 C422 1.283 . S
O460 Eu428 2.387 . S
O461 C420 1.283 . S
O461 Eu428 2.339 1_556 S
C462 O488 1.283 . S
C462 O506 1.283 . S
C463 O489 1.283 . S
C463 O504 1.283 . S
C464 O490 1.283 . S
C464 O507 1.283 . S
C465 O491 1.283 . S
C465 O505 1.283 . S
C466 O492 1.283 . S
C466 O501 1.283 . S
C467 O493 1.283 . S
C467 O503 1.283 . S
C468 O494 1.283 . S
C468 O500 1.283 . S
C469 O495 1.283 . S
C469 O502 1.283 . S
C470 O496 1.283 . S
C470 O511 1.283 . S
C471 O497 1.283 . S
C471 O509 1.283 . S
C472 O498 1.283 . S
C472 O510 1.283 . S
C473 O499 1.283 . S
C473 O508 1.283 . S
Eu474 O475 2.370 . S
Eu474 O476 2.370 . S
Eu474 O479 2.370 . S
Eu474 O480 2.370 . S
Eu474 O488 2.363 . S
Eu474 O489 2.363 . S
Eu474 O502 2.363 . S
Eu474 O503 2.363 . S
O475 Eu474 2.370 . S
O475 Eu477 2.384 . S
O475 Eu482 2.386 . S
O476 Eu474 2.370 . S
O476 Eu478 2.384 . S
O476 Eu481 2.382 . S
Eu477 O475 2.384 . S
Eu477 O479 2.384 . S
Eu477 O483 2.356 1_554 S
Eu477 O484 2.356 1_554 S
Eu477 O492 2.339 1_554 S
Eu477 O493 2.387 . S
Eu477 O508 2.363 . S
Eu477 O509 2.363 . S
Eu478 O476 2.384 . S
Eu478 O480 2.384 . S
Eu478 O485 2.356 1_554 S
Eu478 O486 2.356 1_554 S
Eu478 O494 2.339 1_554 S
Eu478 O495 2.387 . S
Eu478 O510 2.363 . S
Eu478 O511 2.363 . S
O479 Eu474 2.370 . S
O479 Eu477 2.384 . S
O479 Eu481 2.382 . S
O480 Eu474 2.370 . S
O480 Eu478 2.384 . S
O480 Eu482 2.386 . S
Eu481 O476 2.382 . S
Eu481 O479 2.382 . S
Eu481 O483 2.358 1_554 S
Eu481 O486 2.358 1_554 S
Eu481 O498 2.363 . S
Eu481 O499 2.363 . S
Eu481 O506 2.383 . S
Eu481 O507 2.342 1_554 S
Eu482 O475 2.386 . S
Eu482 O480 2.386 . S
Eu482 O484 2.354 1_554 S
Eu482 O485 2.354 1_554 S
Eu482 O496 2.363 . S
Eu482 O497 2.363 . S
Eu482 O504 2.390 . S
Eu482 O505 2.336 1_554 S
O483 Eu477 2.356 1_556 S
O483 Eu481 2.358 1_556 S
O483 Eu487 2.370 . S
O484 Eu477 2.356 1_556 S
O484 Eu482 2.354 1_556 S
O484 Eu487 2.370 . S
O485 Eu478 2.356 1_556 S
O485 Eu482 2.354 1_556 S
O485 Eu487 2.370 . S
O486 Eu478 2.356 1_556 S
O486 Eu481 2.358 1_556 S
O486 Eu487 2.370 . S
Eu487 O483 2.370 . S
Eu487 O484 2.370 . S
Eu487 O485 2.370 . S
Eu487 O486 2.370 . S
Eu487 O490 2.363 . S
Eu487 O491 2.363 . S
Eu487 O500 2.363 . S
Eu487 O501 2.363 . S
O488 C462 1.283 . S
O488 Eu474 2.363 . S
O489 C463 1.283 . S
O489 Eu474 2.363 . S
O490 C464 1.283 . S
O490 Eu487 2.363 . S
O491 C465 1.283 . S
O491 Eu487 2.363 . S
O492 C466 1.283 . S
O492 Eu477 2.339 1_556 S
O493 C467 1.283 . S
O493 Eu477 2.387 . S
O494 C468 1.283 . S
O494 Eu478 2.339 1_556 S
O495 C469 1.283 . S
O495 Eu478 2.387 . S
O496 C470 1.283 . S
O496 Eu482 2.363 . S
O497 C471 1.283 . S
O497 Eu482 2.363 . S
O498 C472 1.283 . S
O498 Eu481 2.363 . S
O499 C473 1.283 . S
O499 Eu481 2.363 . S
O500 C468 1.283 . S
O500 Eu487 2.363 . S
O501 C466 1.283 . S
O501 Eu487 2.363 . S
O502 C469 1.283 . S
O502 Eu474 2.363 . S
O503 C467 1.283 . S
O503 Eu474 2.363 . S
O504 C463 1.283 . S
O504 Eu482 2.390 . S
O505 C465 1.283 . S
O505 Eu482 2.336 1_556 S
O506 C462 1.283 . S
O506 Eu481 2.383 . S
O507 C464 1.283 . S
O507 Eu481 2.342 1_556 S
O508 C473 1.283 . S
O508 Eu477 2.363 . S
O509 C471 1.283 . S
O509 Eu477 2.363 . S
O510 C472 1.283 . S
O510 Eu478 2.363 . S
O511 C470 1.283 . S
O511 Eu478 2.363 . S
C512 O538 1.283 . S
C512 O556 1.283 . S
C513 O539 1.283 . S
C513 O554 1.283 . S
C514 O540 1.283 . S
C514 O557 1.283 . S
C515 O541 1.283 . S
C515 O555 1.283 . S
C516 O542 1.283 . S
C516 O551 1.283 . S
C517 O543 1.283 . S
C517 O553 1.283 . S
C518 O544 1.283 . S
C518 O550 1.283 . S
C519 O545 1.283 . S
C519 O552 1.283 . S
C520 O546 1.283 . S
C520 O561 1.283 . S
C521 O547 1.283 . S
C521 O559 1.283 . S
C522 O548 1.283 . S
C522 O560 1.283 . S
C523 O549 1.283 . S
C523 O558 1.283 . S
Eu524 O525 2.370 1_455 S
Eu524 O526 2.370 . S
Eu524 O529 2.370 1_455 S
Eu524 O530 2.370 . S
Eu524 O538 2.363 . S
Eu524 O539 2.363 . S
Eu524 O552 2.363 . S
Eu524 O553 2.363 1_455 S
O525 Eu524 2.370 1_655 S
O525 Eu527 2.370 . S
O525 Eu532 2.370 1_655 S
O526 Eu524 2.370 . S
O526 Eu528 2.370 . S
O526 Eu531 2.370 . S
Eu527 O525 2.370 . S
Eu527 O529 2.370 . S
Eu527 O533 2.370 . S
Eu527 O534 2.370 . S
Eu527 O542 2.363 . S
Eu527 O543 2.363 . S
Eu527 O558 2.363 . S
Eu527 O559 2.363 . S
Eu528 O526 2.370 . S
Eu528 O530 2.370 . S
Eu528 O535 2.370 . S
Eu528 O536 2.370 . S
Eu528 O544 2.363 . S
Eu528 O545 2.363 . S
Eu528 O560 2.363 . S
Eu528 O561 2.363 . S
O529 Eu524 2.370 1_655 S
O529 Eu527 2.370 . S
O529 Eu531 2.370 1_655 S
O530 Eu524 2.370 . S
O530 Eu528 2.370 . S
O530 Eu532 2.370 . S
Eu531 O526 2.370 . S
Eu531 O529 2.370 1_455 S
Eu531 O533 2.370 1_455 S
Eu531 O536 2.370 . S
Eu531 O548 2.363 . S
Eu531 O549 2.363 1_455 S
Eu531 O556 2.363 . S
Eu531 O557 2.363 . S
Eu532 O525 2.370 1_455 S
Eu532 O530 2.370 . S
Eu532 O534 2.370 1_455 S
Eu532 O535 2.370 . S
Eu532 O546 2.363 . S
Eu532 O547 2.363 1_455 S
Eu532 O554 2.363 . S
Eu532 O555 2.363 . S
O533 Eu527 2.370 . S
O533 Eu531 2.370 1_655 S
O533 Eu537 2.370 1_655 S
O534 Eu527 2.370 . S
O534 Eu532 2.370 1_655 S
O534 Eu537 2.370 1_655 S
O535 Eu528 2.370 . S
O535 Eu532 2.370 . S
O535 Eu537 2.370 . S
O536 Eu528 2.370 . S
O536 Eu531 2.370 . S
O536 Eu537 2.370 . S
Eu537 O533 2.370 1_455 S
Eu537 O534 2.370 1_455 S
Eu537 O535 2.370 . S
Eu537 O536 2.370 . S
Eu537 O540 2.363 . S
Eu537 O541 2.363 . S
Eu537 O550 2.363 . S
Eu537 O551 2.363 1_455 S
O538 C512 1.283 . S
O538 Eu524 2.363 . S
O539 C513 1.283 . S
O539 Eu524 2.363 . S
O540 C514 1.283 . S
O540 Eu537 2.363 . S
O541 C515 1.283 . S
O541 Eu537 2.363 . S
O542 C516 1.283 . S
O542 Eu527 2.363 . S
O543 C517 1.283 . S
O543 Eu527 2.363 . S
O544 C518 1.283 . S
O544 Eu528 2.363 . S
O545 C519 1.283 . S
O545 Eu528 2.363 . S
O546 C520 1.283 . S
O546 Eu532 2.363 . S
O547 C521 1.283 . S
O547 Eu532 2.363 1_655 S
O548 C522 1.283 . S
O548 Eu531 2.363 . S
O549 C523 1.283 . S
O549 Eu531 2.363 1_655 S
O550 C518 1.283 . S
O550 Eu537 2.363 . S
O551 C516 1.283 . S
O551 Eu537 2.363 1_655 S
O552 C519 1.283 . S
O552 Eu524 2.363 . S
O553 C517 1.283 . S
O553 Eu524 2.363 1_655 S
O554 C513 1.283 . S
O554 Eu532 2.363 . S
O555 C515 1.283 . S
O555 Eu532 2.363 . S
O556 C512 1.283 . S
O556 Eu531 2.363 . S
O557 C514 1.283 . S
O557 Eu531 2.363 . S
O558 C523 1.283 . S
O558 Eu527 2.363 . S
O559 C521 1.283 . S
O559 Eu527 2.363 . S
O560 C522 1.283 . S
O560 Eu528 2.363 . S
O561 C520 1.283 . S
O561 Eu528 2.363 . S
C562 O588 1.283 . S
C562 O606 1.283 . S
C563 O589 1.283 . S
C563 O604 1.283 . S
C564 O590 1.283 . S
C564 O607 1.283 . S
C565 O591 1.283 . S
C565 O605 1.283 . S
C566 O592 1.283 . S
C566 O601 1.283 . S
C567 O593 1.283 . S
C567 O603 1.283 . S
C568 O594 1.283 . S
C568 O600 1.283 . S
C569 O595 1.283 . S
C569 O602 1.283 . S
C570 O596 1.283 . S
C570 O611 1.283 . S
C571 O597 1.283 . S
C571 O609 1.283 . S
C572 O598 1.283 . S
C572 O610 1.283 . S
C573 O599 1.283 . S
C573 O608 1.283 . S
Eu574 O575 2.370 . S
Eu574 O576 2.370 . S
Eu574 O579 2.370 . S
Eu574 O580 2.370 . S
Eu574 O588 2.363 . S
Eu574 O589 2.363 . S
Eu574 O602 2.363 . S
Eu574 O603 2.363 . S
O575 Eu574 2.370 . S
O575 Eu577 2.356 1_565 S
O575 Eu582 2.354 1_565 S
O576 Eu574 2.370 . S
O576 Eu578 2.356 1_565 S
O576 Eu581 2.358 1_565 S
Eu577 O575 2.356 1_545 S
Eu577 O579 2.356 1_545 S
Eu577 O583 2.385 . S
Eu577 O584 2.385 . S
Eu577 O592 2.387 . S
Eu577 O593 2.339 1_545 S
Eu577 O608 2.363 . S
Eu577 O609 2.363 . S
Eu578 O576 2.356 1_545 S
Eu578 O580 2.356 1_545 S
Eu578 O585 2.385 . S
Eu578 O586 2.385 . S
Eu578 O594 2.387 . S
Eu578 O595 2.339 1_545 S
Eu578 O610 2.363 . S
Eu578 O611 2.363 . S
O579 Eu574 2.370 . S
O579 Eu577 2.356 1_565 S
O579 Eu581 2.358 1_565 S
O580 Eu574 2.370 . S
O580 Eu578 2.356 1_565 S
O580 Eu582 2.354 1_565 S
Eu581 O576 2.358 1_545 S
Eu581 O579 2.358 1_545 S
Eu581 O583 2.383 . S
Eu581 O586 2.383 . S
Eu581 O598 2.363 . S
Eu581 O599 2.363 . S
Eu581 O606 2.342 1_545 S
Eu581 O607 2.384 . S
Eu582 O575 2.354 1_545 S
Eu582 O580 2.354 1_545 S
Eu582 O584 2.386 . S
Eu582 O585 2.386 . S
Eu582 O596 2.363 . S
Eu582 O597 2.363 . S
Eu582 O604 2.336 1_545 S
Eu582 O605 2.390 . S
O583 Eu577 2.385 . S
O583 Eu581 2.383 . S
O583 Eu587 2.370 . S
O584 Eu577 2.385 . S
O584 Eu582 2.386 . S
O584 Eu587 2.370 . S
O585 Eu578 2.385 . S
O585 Eu582 2.386 . S
O585 Eu587 2.370 . S
O586 Eu578 2.385 . S
O586 Eu581 2.383 . S
O586 Eu587 2.370 . S
Eu587 O583 2.370 . S
Eu587 O584 2.370 . S
Eu587 O585 2.370 . S
Eu587 O586 2.370 . S
Eu587 O590 2.363 . S
Eu587 O591 2.363 . S
Eu587 O600 2.363 . S
Eu587 O601 2.363 . S
O588 C562 1.283 . S
O588 Eu574 2.363 . S
O589 C563 1.283 . S
O589 Eu574 2.363 . S
O590 C564 1.283 . S
O590 Eu587 2.363 . S
O591 C565 1.283 . S
O591 Eu587 2.363 . S
O592 C566 1.283 . S
O592 Eu577 2.387 . S
O593 C567 1.283 . S
O593 Eu577 2.339 1_565 S
O594 C568 1.283 . S
O594 Eu578 2.387 . S
O595 C569 1.283 . S
O595 Eu578 2.339 1_565 S
O596 C570 1.283 . S
O596 Eu582 2.363 . S
O597 C571 1.283 . S
O597 Eu582 2.363 . S
O598 C572 1.283 . S
O598 Eu581 2.363 . S
O599 C573 1.283 . S
O599 Eu581 2.363 . S
O600 C568 1.283 . S
O600 Eu587 2.363 . S
O601 C566 1.283 . S
O601 Eu587 2.363 . S
O602 C569 1.283 . S
O602 Eu574 2.363 . S
O603 C567 1.283 . S
O603 Eu574 2.363 . S
O604 C563 1.283 . S
O604 Eu582 2.336 1_565 S
O605 C565 1.283 . S
O605 Eu582 2.390 . S
O606 C562 1.283 . S
O606 Eu581 2.342 1_565 S
O607 C564 1.283 . S
O607 Eu581 2.384 . S
O608 C573 1.283 . S
O608 Eu577 2.363 . S
O609 C571 1.283 . S
O609 Eu577 2.363 . S
O610 C572 1.283 . S
O610 Eu578 2.363 . S
O611 C570 1.283 . S
O611 Eu578 2.363 . S
C612 C613 1.349 . S
C612 C614 1.327 . S
C612 H637 0.950 . S
C613 C612 1.349 . S
C613 C629 1.349 . S
C614 C612 1.327 . S
C614 C633 1.429 . S
C614 H638 0.950 . S
C615 C632 1.574 . S
C615 C634 1.368 . S
C615 H639 0.949 . S
H616 C620 0.949 . S
C617 C618 1.349 . S
C617 C619 1.327 . S
C617 H640 0.950 . S
C618 C617 1.349 . S
C618 C630 1.349 . S
C619 C617 1.327 . S
C619 C635 1.429 . S
C619 H641 0.950 . S
C620 H616 0.949 . S
C620 C628 1.574 . S
C620 C636 1.368 . S
H621 C629 0.950 . S
H622 C627 0.950 . S
H623 C628 0.949 . S
H624 C630 0.950 . S
H625 C631 0.950 . S
H626 C632 0.949 . S
C627 H622 0.950 . S
C627 C629 1.327 . S
C627 C633 1.429 . S
C628 C620 1.574 . S
C628 H623 0.949 . S
C628 C634 1.368 . S
C629 C613 1.349 . S
C629 H621 0.950 . S
C629 C627 1.327 . S
C630 C618 1.349 . S
C630 H624 0.950 . S
C630 C631 1.327 . S
C631 H625 0.950 . S
C631 C630 1.327 . S
C631 C635 1.429 . S
C632 C615 1.574 . S
C632 H626 0.949 . S
C632 C636 1.368 . S
C633 C614 1.429 . S
C633 C627 1.429 . S
C633 C634 1.523 . S
C634 C615 1.368 . S
C634 C628 1.368 . S
C634 C633 1.523 . S
C635 C619 1.429 . S
C635 C631 1.429 . S
C635 C636 1.523 . S
C636 C620 1.368 . S
C636 C632 1.368 . S
C636 C635 1.523 . S
H637 C612 0.950 . S
H638 C614 0.950 . S
H639 C615 0.949 . S
H640 C617 0.950 . S
H641 C619 0.950 . S
C642 C643 1.349 . S
C642 C644 1.327 . S
C642 H667 0.950 . S
C643 C642 1.349 . S
C643 C659 1.349 . S
C644 C642 1.327 . S
C644 C663 1.429 . S
C644 H668 0.950 . S
C645 C662 1.574 . S
C645 C664 1.368 . S
C645 H669 0.949 . S
H646 C650 0.949 . S
C647 C648 1.349 . S
C647 C649 1.327 . S
C647 H670 0.950 . S
C648 C647 1.349 . S
C648 C660 1.349 . S
C649 C647 1.327 . S
C649 C665 1.429 . S
C649 H671 0.950 . S
C650 H646 0.949 . S
C650 C658 1.574 . S
C650 C666 1.368 . S
H651 C659 0.950 . S
H652 C657 0.950 . S
H653 C658 0.949 . S
H654 C660 0.950 . S
H655 C661 0.950 . S
H656 C662 0.949 . S
C657 H652 0.950 . S
C657 C659 1.327 . S
C657 C663 1.429 . S
C658 C650 1.574 . S
C658 H653 0.949 . S
C658 C664 1.368 . S
C659 C643 1.349 . S
C659 H651 0.950 . S
C659 C657 1.327 . S
C660 C648 1.349 . S
C660 H654 0.950 . S
C660 C661 1.327 . S
C661 H655 0.950 . S
C661 C660 1.327 . S
C661 C665 1.429 . S
C662 C645 1.574 . S
C662 H656 0.949 . S
C662 C666 1.368 . S
C663 C644 1.429 . S
C663 C657 1.429 . S
C663 C664 1.523 . S
C664 C645 1.368 . S
C664 C658 1.368 . S
C664 C663 1.523 . S
C665 C649 1.429 . S
C665 C661 1.429 . S
C665 C666 1.523 . S
C666 C650 1.368 . S
C666 C662 1.368 . S
C666 C665 1.523 . S
H667 C642 0.950 . S
H668 C644 0.950 . S
H669 C645 0.949 . S
H670 C647 0.950 . S
H671 C649 0.950 . S
C672 C673 1.349 . S
C672 C674 1.327 . S
C672 H697 0.950 . S
C673 C672 1.349 . S
C673 C689 1.349 . S
C674 C672 1.327 . S
C674 C693 1.429 . S
C674 H698 0.950 . S
C675 C692 1.574 . S
C675 C694 1.368 . S
C675 H699 0.949 . S
H676 C680 0.949 . S
C677 C678 1.349 . S
C677 C679 1.327 . S
C677 H700 0.950 . S
C678 C677 1.349 . S
C678 C690 1.349 . S
C679 C677 1.327 . S
C679 C695 1.429 . S
C679 H701 0.950 . S
C680 H676 0.949 . S
C680 C688 1.574 . S
C680 C696 1.368 . S
H681 C689 0.950 . S
H682 C687 0.950 . S
H683 C688 0.949 . S
H684 C690 0.950 . S
H685 C691 0.950 . S
H686 C692 0.949 . S
C687 H682 0.950 . S
C687 C689 1.327 . S
C687 C693 1.429 . S
C688 C680 1.574 . S
C688 H683 0.949 . S
C688 C694 1.368 . S
C689 C673 1.349 . S
C689 H681 0.950 . S
C689 C687 1.327 . S
C690 C678 1.349 . S
C690 H684 0.950 . S
C690 C691 1.327 . S
C691 H685 0.950 . S
C691 C690 1.327 . S
C691 C695 1.429 . S
C692 C675 1.574 . S
C692 H686 0.949 . S
C692 C696 1.368 . S
C693 C674 1.429 . S
C693 C687 1.429 . S
C693 C694 1.523 . S
C694 C675 1.368 . S
C694 C688 1.368 . S
C694 C693 1.523 . S
C695 C679 1.429 . S
C695 C691 1.429 . S
C695 C696 1.523 . S
C696 C680 1.368 . S
C696 C692 1.368 . S
C696 C695 1.523 . S
H697 C672 0.950 . S
H698 C674 0.950 . S
H699 C675 0.949 . S
H700 C677 0.950 . S
H701 C679 0.950 . S
C702 C703 1.349 . S
C702 C704 1.327 . S
C702 H727 0.950 . S
C703 C702 1.349 . S
C703 C719 1.349 . S
C704 C702 1.327 . S
C704 C723 1.429 . S
C704 H728 0.950 . S
C705 C722 1.574 . S
C705 C724 1.368 . S
C705 H729 0.949 . S
H706 C710 0.949 . S
C707 C708 1.349 . S
C707 C709 1.327 . S
C707 H730 0.950 . S
C708 C707 1.349 . S
C708 C720 1.349 . S
C709 C707 1.327 . S
C709 C725 1.429 . S
C709 H731 0.950 . S
C710 H706 0.949 . S
C710 C718 1.574 . S
C710 C726 1.368 . S
H711 C719 0.950 . S
H712 C717 0.950 . S
H713 C718 0.949 . S
H714 C720 0.950 . S
H715 C721 0.950 . S
H716 C722 0.949 . S
C717 H712 0.950 . S
C717 C719 1.327 . S
C717 C723 1.429 . S
C718 C710 1.574 . S
C718 H713 0.949 . S
C718 C724 1.368 . S
C719 C703 1.349 . S
C719 H711 0.950 . S
C719 C717 1.327 . S
C720 C708 1.349 . S
C720 H714 0.950 . S
C720 C721 1.327 . S
C721 H715 0.950 . S
C721 C720 1.327 . S
C721 C725 1.429 . S
C722 C705 1.574 . S
C722 H716 0.949 . S
C722 C726 1.368 . S
C723 C704 1.429 . S
C723 C717 1.429 . S
C723 C724 1.523 . S
C724 C705 1.368 . S
C724 C718 1.368 . S
C724 C723 1.523 . S
C725 C709 1.429 . S
C725 C721 1.429 . S
C725 C726 1.523 . S
C726 C710 1.368 . S
C726 C722 1.368 . S
C726 C725 1.523 . S
H727 C702 0.950 . S
H728 C704 0.950 . S
H729 C705 0.949 . S
H730 C707 0.950 . S
H731 C709 0.950 . S
C732 C733 1.349 . S
C732 C734 1.327 . S
C732 H757 0.950 . S
C733 C732 1.349 . S
C733 C749 1.349 . S
C734 C732 1.327 . S
C734 C753 1.429 . S
C734 H758 0.950 . S
C735 C752 1.574 . S
C735 C754 1.368 . S
C735 H759 0.949 . S
H736 C740 0.949 . S
C737 C738 1.349 . S
C737 C739 1.327 . S
C737 H760 0.950 . S
C738 C737 1.349 . S
C738 C750 1.349 . S
C739 C737 1.327 . S
C739 C755 1.429 . S
C739 H761 0.950 . S
C740 H736 0.949 . S
C740 C748 1.574 . S
C740 C756 1.368 . S
H741 C749 0.950 . S
H742 C747 0.950 . S
H743 C748 0.949 . S
H744 C750 0.950 . S
H745 C751 0.950 . S
H746 C752 0.949 . S
C747 H742 0.950 . S
C747 C749 1.327 . S
C747 C753 1.429 . S
C748 C740 1.574 . S
C748 H743 0.949 . S
C748 C754 1.368 . S
C749 C733 1.349 . S
C749 H741 0.950 . S
C749 C747 1.327 . S
C750 C738 1.349 . S
C750 H744 0.950 . S
C750 C751 1.327 . S
C751 H745 0.950 . S
C751 C750 1.327 . S
C751 C755 1.429 . S
C752 C735 1.574 . S
C752 H746 0.949 . S
C752 C756 1.368 . S
C753 C734 1.429 . S
C753 C747 1.429 . S
C753 C754 1.523 . S
C754 C735 1.368 . S
C754 C748 1.368 . S
C754 C753 1.523 . S
C755 C739 1.429 . S
C755 C751 1.429 . S
C755 C756 1.523 . S
C756 C740 1.368 . S
C756 C752 1.368 . S
C756 C755 1.523 . S
H757 C732 0.950 . S
H758 C734 0.950 . S
H759 C735 0.949 . S
H760 C737 0.950 . S
H761 C739 0.950 . S
C762 C763 1.349 . S
C762 C764 1.327 . S
C762 H787 0.950 . S
C763 C762 1.349 . S
C763 C779 1.349 . S
C764 C762 1.327 . S
C764 C783 1.429 . S
C764 H788 0.950 . S
C765 C782 1.574 . S
C765 C784 1.368 . S
C765 H789 0.949 . S
H766 C770 0.949 . S
C767 C768 1.349 . S
C767 C769 1.327 . S
C767 H790 0.950 . S
C768 C767 1.349 . S
C768 C780 1.349 . S
C769 C767 1.327 . S
C769 C785 1.429 . S
C769 H791 0.950 . S
C770 H766 0.949 . S
C770 C778 1.574 . S
C770 C786 1.368 . S
H771 C779 0.950 . S
H772 C777 0.950 . S
H773 C778 0.949 . S
H774 C780 0.950 . S
H775 C781 0.950 . S
H776 C782 0.949 . S
C777 H772 0.950 . S
C777 C779 1.327 . S
C777 C783 1.429 . S
C778 C770 1.574 . S
C778 H773 0.949 . S
C778 C784 1.368 . S
C779 C763 1.349 . S
C779 H771 0.950 . S
C779 C777 1.327 . S
C780 C768 1.349 . S
C780 H774 0.950 . S
C780 C781 1.327 . S
C781 H775 0.950 . S
C781 C780 1.327 . S
C781 C785 1.429 . S
C782 C765 1.574 . S
C782 H776 0.949 . S
C782 C786 1.368 . S
C783 C764 1.429 . S
C783 C777 1.429 . S
C783 C784 1.523 . S
C784 C765 1.368 . S
C784 C778 1.368 . S
C784 C783 1.523 . S
C785 C769 1.429 . S
C785 C781 1.429 . S
C785 C786 1.523 . S
C786 C770 1.368 . S
C786 C782 1.368 . S
C786 C785 1.523 . S
H787 C762 0.950 . S
H788 C764 0.950 . S
H789 C765 0.949 . S
H790 C767 0.950 . S
H791 C769 0.950 . S
C792 C793 1.349 . S
C792 C794 1.327 . S
C792 H817 0.950 . S
C793 C792 1.349 . S
C793 C809 1.349 . S
C794 C792 1.327 . S
C794 C813 1.429 . S
C794 H818 0.950 . S
C795 C812 1.574 . S
C795 C814 1.368 . S
C795 H819 0.949 . S
H796 C800 0.949 . S
C797 C798 1.349 . S
C797 C799 1.327 . S
C797 H820 0.950 . S
C798 C797 1.349 . S
C798 C810 1.349 . S
C799 C797 1.327 . S
C799 C815 1.429 . S
C799 H821 0.950 . S
C800 H796 0.949 . S
C800 C808 1.574 . S
C800 C816 1.368 . S
H801 C809 0.950 . S
H802 C807 0.950 . S
H803 C808 0.949 . S
H804 C810 0.950 . S
H805 C811 0.950 . S
H806 C812 0.949 . S
C807 H802 0.950 . S
C807 C809 1.327 . S
C807 C813 1.429 . S
C808 C800 1.574 . S
C808 H803 0.949 . S
C808 C814 1.368 . S
C809 C793 1.349 . S
C809 H801 0.950 . S
C809 C807 1.327 . S
C810 C798 1.349 . S
C810 H804 0.950 . S
C810 C811 1.327 . S
C811 H805 0.950 . S
C811 C810 1.327 . S
C811 C815 1.429 . S
C812 C795 1.574 . S
C812 H806 0.949 . S
C812 C816 1.368 . S
C813 C794 1.429 . S
C813 C807 1.429 . S
C813 C814 1.523 . S
C814 C795 1.368 . S
C814 C808 1.368 . S
C814 C813 1.523 . S
C815 C799 1.429 . S
C815 C811 1.429 . S
C815 C816 1.523 . S
C816 C800 1.368 . S
C816 C812 1.368 . S
C816 C815 1.523 . S
H817 C792 0.950 . S
H818 C794 0.950 . S
H819 C795 0.949 . S
H820 C797 0.950 . S
H821 C799 0.950 . S
C822 C823 1.349 . S
C822 C824 1.327 . S
C822 H847 0.950 . S
C823 C822 1.349 . S
C823 C839 1.349 . S
C824 C822 1.327 . S
C824 C843 1.429 . S
C824 H848 0.950 . S
C825 C842 1.574 . S
C825 C844 1.368 . S
C825 H849 0.949 . S
H826 C830 0.949 . S
C827 C828 1.349 . S
C827 C829 1.327 . S
C827 H850 0.950 . S
C828 C827 1.349 . S
C828 C840 1.349 . S
C829 C827 1.327 . S
C829 C845 1.429 . S
C829 H851 0.950 . S
C830 H826 0.949 . S
C830 C838 1.574 . S
C830 C846 1.368 . S
H831 C839 0.950 . S
H832 C837 0.950 . S
H833 C838 0.949 . S
H834 C840 0.950 . S
H835 C841 0.950 . S
H836 C842 0.949 . S
C837 H832 0.950 . S
C837 C839 1.327 . S
C837 C843 1.429 . S
C838 C830 1.574 . S
C838 H833 0.949 . S
C838 C844 1.368 . S
C839 C823 1.349 . S
C839 H831 0.950 . S
C839 C837 1.327 . S
C840 C828 1.349 . S
C840 H834 0.950 . S
C840 C841 1.327 . S
C841 H835 0.950 . S
C841 C840 1.327 . S
C841 C845 1.429 . S
C842 C825 1.574 . S
C842 H836 0.949 . S
C842 C846 1.368 . S
C843 C824 1.429 . S
C843 C837 1.429 . S
C843 C844 1.523 . S
C844 C825 1.368 . S
C844 C838 1.368 . S
C844 C843 1.523 . S
C845 C829 1.429 . S
C845 C841 1.429 . S
C845 C846 1.523 . S
C846 C830 1.368 . S
C846 C842 1.368 . S
C846 C845 1.523 . S
H847 C822 0.950 . S
H848 C824 0.950 . S
H849 C825 0.949 . S
H850 C827 0.950 . S
H851 C829 0.950 . S
C852 C853 1.349 . S
C852 C854 1.327 . S
C852 H877 0.950 . S
C853 C852 1.349 . S
C853 C869 1.349 . S
C854 C852 1.327 . S
C854 C873 1.429 . S
C854 H878 0.950 . S
C855 C872 1.574 . S
C855 C874 1.368 . S
C855 H879 0.949 . S
H856 C860 0.949 . S
C857 C858 1.349 . S
C857 C859 1.327 . S
C857 H880 0.950 . S
C858 C857 1.349 . S
C858 C870 1.349 . S
C859 C857 1.327 . S
C859 C875 1.429 . S
C859 H881 0.950 . S
C860 H856 0.949 . S
C860 C868 1.574 . S
C860 C876 1.368 . S
H861 C869 0.950 . S
H862 C867 0.950 . S
H863 C868 0.949 . S
H864 C870 0.950 . S
H865 C871 0.950 . S
H866 C872 0.949 . S
C867 H862 0.950 . S
C867 C869 1.327 . S
C867 C873 1.429 . S
C868 C860 1.574 . S
C868 H863 0.949 . S
C868 C874 1.368 . S
C869 C853 1.349 . S
C869 H861 0.950 . S
C869 C867 1.327 . S
C870 C858 1.349 . S
C870 H864 0.950 . S
C870 C871 1.327 . S
C871 H865 0.950 . S
C871 C870 1.327 . S
C871 C875 1.429 . S
C872 C855 1.574 . S
C872 H866 0.949 . S
C872 C876 1.368 . S
C873 C854 1.429 . S
C873 C867 1.429 . S
C873 C874 1.523 . S
C874 C855 1.368 . S
C874 C868 1.368 . S
C874 C873 1.523 . S
C875 C859 1.429 . S
C875 C871 1.429 . S
C875 C876 1.523 . S
C876 C860 1.368 . S
C876 C872 1.368 . S
C876 C875 1.523 . S
H877 C852 0.950 . S
H878 C854 0.950 . S
H879 C855 0.949 . S
H880 C857 0.950 . S
H881 C859 0.950 . S
C882 C883 1.349 . S
C882 C884 1.327 . S
C882 H907 0.950 . S
C883 C882 1.349 . S
C883 C899 1.349 . S
C884 C882 1.327 . S
C884 C903 1.429 . S
C884 H908 0.950 . S
C885 C902 1.574 . S
C885 C904 1.368 . S
C885 H909 0.949 . S
H886 C890 0.949 . S
C887 C888 1.349 . S
C887 C889 1.327 . S
C887 H910 0.950 . S
C888 C887 1.349 . S
C888 C900 1.349 . S
C889 C887 1.327 . S
C889 C905 1.429 . S
C889 H911 0.950 . S
C890 H886 0.949 . S
C890 C898 1.574 . S
C890 C906 1.368 . S
H891 C899 0.950 . S
H892 C897 0.950 . S
H893 C898 0.949 . S
H894 C900 0.950 . S
H895 C901 0.950 . S
H896 C902 0.949 . S
C897 H892 0.950 . S
C897 C899 1.327 . S
C897 C903 1.429 . S
C898 C890 1.574 . S
C898 H893 0.949 . S
C898 C904 1.368 . S
C899 C883 1.349 . S
C899 H891 0.950 . S
C899 C897 1.327 . S
C900 C888 1.349 . S
C900 H894 0.950 . S
C900 C901 1.327 . S
C901 H895 0.950 . S
C901 C900 1.327 . S
C901 C905 1.429 . S
C902 C885 1.574 . S
C902 H896 0.949 . S
C902 C906 1.368 . S
C903 C884 1.429 . S
C903 C897 1.429 . S
C903 C904 1.523 . S
C904 C885 1.368 . S
C904 C898 1.368 . S
C904 C903 1.523 . S
C905 C889 1.429 . S
C905 C901 1.429 . S
C905 C906 1.523 . S
C906 C890 1.368 . S
C906 C902 1.368 . S
C906 C905 1.523 . S
H907 C882 0.950 . S
H908 C884 0.950 . S
H909 C885 0.949 . S
H910 C887 0.950 . S
H911 C889 0.950 . S
C912 C913 1.349 . S
C912 C914 1.327 . S
C912 H937 0.950 . S
C913 C912 1.349 . S
C913 C929 1.349 . S
C914 C912 1.327 . S
C914 C933 1.429 . S
C914 H938 0.950 . S
C915 C932 1.574 . S
C915 C934 1.368 . S
C915 H939 0.949 . S
H916 C920 0.949 . S
C917 C918 1.349 . S
C917 C919 1.327 . S
C917 H940 0.950 . S
C918 C917 1.349 . S
C918 C930 1.349 . S
C919 C917 1.327 . S
C919 C935 1.429 . S
C919 H941 0.950 . S
C920 H916 0.949 . S
C920 C928 1.574 . S
C920 C936 1.368 . S
H921 C929 0.950 . S
H922 C927 0.950 . S
H923 C928 0.949 . S
H924 C930 0.950 . S
H925 C931 0.950 . S
H926 C932 0.949 . S
C927 H922 0.950 . S
C927 C929 1.327 . S
C927 C933 1.429 . S
C928 C920 1.574 . S
C928 H923 0.949 . S
C928 C934 1.368 . S
C929 C913 1.349 . S
C929 H921 0.950 . S
C929 C927 1.327 . S
C930 C918 1.349 . S
C930 H924 0.950 . S
C930 C931 1.327 . S
C931 H925 0.950 . S
C931 C930 1.327 . S
C931 C935 1.429 . S
C932 C915 1.574 . S
C932 H926 0.949 . S
C932 C936 1.368 . S
C933 C914 1.429 . S
C933 C927 1.429 . S
C933 C934 1.523 . S
C934 C915 1.368 . S
C934 C928 1.368 . S
C934 C933 1.523 . S
C935 C919 1.429 . S
C935 C931 1.429 . S
C935 C936 1.523 . S
C936 C920 1.368 . S
C936 C932 1.368 . S
C936 C935 1.523 . S
H937 C912 0.950 . S
H938 C914 0.950 . S
H939 C915 0.949 . S
H940 C917 0.950 . S
H941 C919 0.950 . S
C942 C943 1.349 . S
C942 C944 1.327 . S
C942 H967 0.950 . S
C943 C942 1.349 . S
C943 C959 1.349 . S
C944 C942 1.327 . S
C944 C963 1.429 . S
C944 H968 0.950 . S
C945 C962 1.574 . S
C945 C964 1.368 . S
C945 H969 0.949 . S
H946 C950 0.949 . S
C947 C948 1.349 . S
C947 C949 1.327 . S
C947 H970 0.950 . S
C948 C947 1.349 . S
C948 C960 1.349 . S
C949 C947 1.327 . S
C949 C965 1.429 . S
C949 H971 0.950 . S
C950 H946 0.949 . S
C950 C958 1.574 . S
C950 C966 1.368 . S
H951 C959 0.950 . S
H952 C957 0.950 . S
H953 C958 0.949 . S
H954 C960 0.950 . S
H955 C961 0.950 . S
H956 C962 0.949 . S
C957 H952 0.950 . S
C957 C959 1.327 . S
C957 C963 1.429 . S
C958 C950 1.574 . S
C958 H953 0.949 . S
C958 C964 1.368 . S
C959 C943 1.349 . S
C959 H951 0.950 . S
C959 C957 1.327 . S
C960 C948 1.349 . S
C960 H954 0.950 . S
C960 C961 1.327 . S
C961 H955 0.950 . S
C961 C960 1.327 . S
C961 C965 1.429 . S
C962 C945 1.574 . S
C962 H956 0.949 . S
C962 C966 1.368 . S
C963 C944 1.429 . S
C963 C957 1.429 . S
C963 C964 1.523 . S
C964 C945 1.368 . S
C964 C958 1.368 . S
C964 C963 1.523 . S
C965 C949 1.429 . S
C965 C961 1.429 . S
C965 C966 1.523 . S
C966 C950 1.368 . S
C966 C962 1.368 . S
C966 C965 1.523 . S
H967 C942 0.950 . S
H968 C944 0.950 . S
H969 C945 0.949 . S
H970 C947 0.950 . S
H971 C949 0.950 . S
C972 C973 1.349 1_556 S
C972 C974 1.327 . S
C972 H997 0.950 . S
C973 C972 1.349 1_554 S
C973 C989 1.349 . S
C974 C972 1.327 . S
C974 C993 1.394 1_556 S
C974 H998 0.950 . S
C975 C992 1.574 . S
C975 C994 1.405 . S
C975 H999 0.949 . S
H976 C980 0.949 . S
C977 C978 1.373 . S
C977 C979 1.327 . S
C977 H1000 0.950 . S
C978 C977 1.373 . S
C978 C990 1.326 1_554 S
C979 C977 1.327 . S
C979 C995 1.456 . S
C979 H1001 0.950 . S
C980 H976 0.949 . S
C980 C988 1.574 . S
C980 C996 1.337 1_556 S
H981 C989 0.950 . S
H982 C987 0.950 . S
H983 C988 0.949 . S
H984 C990 0.950 . S
H985 C991 0.950 . S
H986 C992 0.949 . S
C987 H982 0.950 . S
C987 C989 1.327 . S
C987 C993 1.464 . S
C988 C980 1.574 . S
C988 H983 0.949 . S
C988 C994 1.332 1_556 S
C989 C973 1.349 . S
C989 H981 0.950 . S
C989 C987 1.327 . S
C990 C978 1.326 1_556 S
C990 H984 0.950 . S
C990 C991 1.327 . S
C991 H985 0.950 . S
C991 C990 1.327 . S
C991 C995 1.402 1_556 S
C992 C975 1.574 . S
C992 H986 0.949 . S
C992 C996 1.401 . S
C993 C974 1.394 1_554 S
C993 C987 1.464 . S
C993 C994 1.523 . S
C994 C975 1.405 . S
C994 C988 1.332 1_554 S
C994 C993 1.523 . S
C995 C979 1.456 . S
C995 C991 1.402 1_554 S
C995 C996 1.523 . S
C996 C980 1.337 1_554 S
C996 C992 1.401 . S
C996 C995 1.523 . S
H997 C972 0.950 . S
H998 C974 0.950 . S
H999 C975 0.949 . S
H1000 C977 0.950 . S
H1001 C979 0.950 . S
C1002 C1003 1.349 1_556 S
C1002 C1004 1.327 . S
C1002 H1027 0.950 . S
C1003 C1002 1.349 1_554 S
C1003 C1019 1.349 . S
C1004 C1002 1.327 . S
C1004 C1023 1.394 1_556 S
C1004 H1028 0.950 . S
C1005 C1022 1.574 . S
C1005 C1024 1.405 . S
C1005 H1029 0.949 . S
H1006 C1010 0.949 . S
C1007 C1008 1.372 . S
C1007 C1009 1.327 . S
C1007 H1030 0.950 . S
C1008 C1007 1.372 . S
C1008 C1020 1.326 1_554 S
C1009 C1007 1.327 . S
C1009 C1025 1.455 . S
C1009 H1031 0.950 . S
C1010 H1006 0.949 . S
C1010 C1018 1.574 . S
C1010 C1026 1.337 1_556 S
H1011 C1019 0.950 . S
H1012 C1017 0.950 . S
H1013 C1018 0.949 . S
H1014 C1020 0.950 . S
H1015 C1021 0.950 . S
H1016 C1022 0.949 . S
C1017 H1012 0.950 . S
C1017 C1019 1.327 . S
C1017 C1023 1.464 . S
C1018 C1010 1.574 . S
C1018 H1013 0.949 . S
C1018 C1024 1.333 1_556 S
C1019 C1003 1.349 . S
C1019 H1011 0.950 . S
C1019 C1017 1.327 . S
C1020 C1008 1.326 1_556 S
C1020 H1014 0.950 . S
C1020 C1021 1.327 . S
C1021 H1015 0.950 . S
C1021 C1020 1.327 . S
C1021 C1025 1.402 1_556 S
C1022 C1005 1.574 . S
C1022 H1016 0.949 . S
C1022 C1026 1.400 . S
C1023 C1004 1.394 1_554 S
C1023 C1017 1.464 . S
C1023 C1024 1.523 . S
C1024 C1005 1.405 . S
C1024 C1018 1.333 1_554 S
C1024 C1023 1.523 . S
C1025 C1009 1.455 . S
C1025 C1021 1.402 1_554 S
C1025 C1026 1.523 . S
C1026 C1010 1.337 1_554 S
C1026 C1022 1.400 . S
C1026 C1025 1.523 . S
H1027 C1002 0.950 . S
H1028 C1004 0.950 . S
H1029 C1005 0.949 . S
H1030 C1007 0.950 . S
H1031 C1009 0.950 . S
C1032 C1033 1.350 . S
C1032 C1034 1.327 . S
C1032 H1057 0.950 . S
C1033 C1032 1.350 . S
C1033 C1049 1.348 1_554 S
C1034 C1032 1.327 . S
C1034 C1053 1.434 . S
C1034 H1058 0.950 . S
C1035 C1052 1.574 . S
C1035 C1054 1.360 1_556 S
C1035 H1059 0.949 . S
H1036 C1040 0.949 . S
C1037 C1038 1.331 1_556 S
C1037 C1039 1.327 . S
C1037 H1060 0.950 . S
C1038 C1037 1.331 1_554 S
C1038 C1050 1.367 . S
C1039 C1037 1.327 . S
C1039 C1055 1.415 1_556 S
C1039 H1061 0.950 . S
C1040 H1036 0.949 . S
C1040 C1048 1.574 . S
C1040 C1056 1.381 . S
H1041 C1049 0.950 . S
H1042 C1047 0.950 . S
H1043 C1048 0.949 . S
H1044 C1050 0.950 . S
H1045 C1051 0.950 . S
H1046 C1052 0.949 . S
C1047 H1042 0.950 . S
C1047 C1049 1.327 . S
C1047 C1053 1.424 1_556 S
C1048 C1040 1.574 . S
C1048 H1043 0.949 . S
C1048 C1054 1.376 . S
C1049 C1033 1.348 1_556 S
C1049 H1041 0.950 . S
C1049 C1047 1.327 . S
C1050 C1038 1.367 . S
C1050 H1044 0.950 . S
C1050 C1051 1.327 . S
C1051 H1045 0.950 . S
C1051 C1050 1.327 . S
C1051 C1055 1.442 . S
C1052 C1035 1.574 . S
C1052 H1046 0.949 . S
C1052 C1056 1.356 1_556 S
C1053 C1034 1.434 . S
C1053 C1047 1.424 1_554 S
C1053 C1054 1.523 . S
C1054 C1035 1.360 1_554 S
C1054 C1048 1.376 . S
C1054 C1053 1.523 . S
C1055 C1039 1.415 1_554 S
C1055 C1051 1.442 . S
C1055 C1056 1.523 . S
C1056 C1040 1.381 . S
C1056 C1052 1.356 1_554 S
C1056 C1055 1.523 . S
H1057 C1032 0.950 . S
H1058 C1034 0.950 . S
H1059 C1035 0.949 . S
H1060 C1037 0.950 . S
H1061 C1039 0.950 . S
C1062 C1063 1.352 1_556 S
C1062 C1064 1.327 . S
C1062 H1087 0.950 . S
C1063 C1062 1.352 1_554 S
C1063 C1079 1.346 . S
C1064 C1062 1.327 . S
C1064 C1083 1.427 1_556 S
C1064 H1088 0.950 . S
C1065 C1082 1.574 . S
C1065 C1084 1.372 . S
C1065 H1089 0.949 . S
H1066 C1070 0.949 . S
C1067 C1068 1.363 . S
C1067 C1069 1.327 . S
C1067 H1090 0.950 . S
C1068 C1067 1.363 . S
C1068 C1080 1.335 1_554 S
C1069 C1067 1.327 . S
C1069 C1085 1.438 . S
C1069 H1091 0.950 . S
C1070 H1066 0.949 . S
C1070 C1078 1.574 . S
C1070 C1086 1.361 1_556 S
H1071 C1079 0.950 . S
H1072 C1077 0.950 . S
H1073 C1078 0.949 . S
H1074 C1080 0.950 . S
H1075 C1081 0.950 . S
H1076 C1082 0.949 . S
C1077 H1072 0.950 . S
C1077 C1079 1.327 . S
C1077 C1083 1.430 . S
C1078 C1070 1.574 . S
C1078 H1073 0.949 . S
C1078 C1084 1.365 1_556 S
C1079 C1063 1.346 . S
C1079 H1071 0.950 . S
C1079 C1077 1.327 . S
C1080 C1068 1.335 1_556 S
C1080 H1074 0.950 . S
C1080 C1081 1.327 . S
C1081 H1075 0.950 . S
C1081 C1080 1.327 . S
C1081 C1085 1.419 1_556 S
C1082 C1065 1.574 . S
C1082 H1076 0.949 . S
C1082 C1086 1.376 . S
C1083 C1064 1.427 1_554 S
C1083 C1077 1.430 . S
C1083 C1084 1.523 . S
C1084 C1065 1.372 . S
C1084 C1078 1.365 1_554 S
C1084 C1083 1.523 . S
C1085 C1069 1.438 . S
C1085 C1081 1.419 1_554 S
C1085 C1086 1.523 . S
C1086 C1070 1.361 1_554 S
C1086 C1082 1.376 . S
C1086 C1085 1.523 . S
H1087 C1062 0.950 . S
H1088 C1064 0.950 . S
H1089 C1065 0.949 . S
H1090 C1067 0.950 . S
H1091 C1069 0.950 . S
C1092 C1093 1.349 . S
C1092 C1094 1.327 . S
C1092 H1117 0.950 1_455 S
C1093 C1092 1.349 . S
C1093 C1109 1.349 . S
C1094 C1092 1.327 . S
C1094 C1113 1.429 . S
C1094 H1118 0.950 1_455 S
C1095 C1112 1.574 . S
C1095 C1114 1.368 . S
C1095 H1119 0.949 . S
H1096 C1100 0.949 1_655 S
C1097 C1098 1.349 . S
C1097 C1099 1.327 . S
C1097 H1120 0.950 . S
C1098 C1097 1.349 . S
C1098 C1110 1.349 . S
C1099 C1097 1.327 . S
C1099 C1115 1.429 . S
C1099 H1121 0.950 . S
C1100 H1096 0.949 1_455 S
C1100 C1108 1.574 . S
C1100 C1116 1.368 . S
H1101 C1109 0.950 . S
H1102 C1107 0.950 . S
H1103 C1108 0.949 1_655 S
H1104 C1110 0.950 1_655 S
H1105 C1111 0.950 1_655 S
H1106 C1112 0.949 . S
C1107 H1102 0.950 . S
C1107 C1109 1.327 . S
C1107 C1113 1.429 . S
C1108 C1100 1.574 . S
C1108 H1103 0.949 1_455 S
C1108 C1114 1.368 . S
C1109 C1093 1.349 . S
C1109 H1101 0.950 . S
C1109 C1107 1.327 . S
C1110 C1098 1.349 . S
C1110 H1104 0.950 1_455 S
C1110 C1111 1.327 . S
C1111 H1105 0.950 1_455 S
C1111 C1110 1.327 . S
C1111 C1115 1.429 . S
C1112 C1095 1.574 . S
C1112 H1106 0.949 . S
C1112 C1116 1.368 . S
C1113 C1094 1.429 . S
C1113 C1107 1.429 . S
C1113 C1114 1.523 . S
C1114 C1095 1.368 . S
C1114 C1108 1.368 . S
C1114 C1113 1.523 . S
C1115 C1099 1.429 . S
C1115 C1111 1.429 . S
C1115 C1116 1.523 . S
C1116 C1100 1.368 . S
C1116 C1112 1.368 . S
C1116 C1115 1.523 . S
H1117 C1092 0.950 1_655 S
H1118 C1094 0.950 1_655 S
H1119 C1095 0.949 . S
H1120 C1097 0.950 . S
H1121 C1099 0.950 . S
C1122 C1123 1.348 1_565 S
C1122 C1124 1.327 . S
C1122 H1147 0.950 . S
C1123 C1122 1.348 1_545 S
C1123 C1139 1.350 . S
C1124 C1122 1.327 . S
C1124 C1143 1.423 1_565 S
C1124 H1148 0.950 . S
C1125 C1142 1.574 . S
C1125 C1144 1.377 . S
C1125 H1149 0.949 . S
H1126 C1130 0.949 . S
C1127 C1128 1.368 . S
C1127 C1129 1.327 . S
C1127 H1150 0.950 . S
C1128 C1127 1.368 . S
C1128 C1140 1.330 1_545 S
C1129 C1127 1.327 . S
C1129 C1145 1.443 . S
C1129 H1151 0.950 . S
C1130 H1126 0.949 . S
C1130 C1138 1.574 . S
C1130 C1146 1.356 1_565 S
H1131 C1139 0.950 . S
H1132 C1137 0.950 . S
H1133 C1138 0.949 . S
H1134 C1140 0.950 . S
H1135 C1141 0.950 . S
H1136 C1142 0.949 . S
C1137 H1132 0.950 . S
C1137 C1139 1.327 . S
C1137 C1143 1.434 . S
C1138 C1130 1.574 . S
C1138 H1133 0.949 . S
C1138 C1144 1.360 1_565 S
C1139 C1123 1.350 . S
C1139 H1131 0.950 . S
C1139 C1137 1.327 . S
C1140 C1128 1.330 1_565 S
C1140 H1134 0.950 . S
C1140 C1141 1.327 . S
C1141 H1135 0.950 . S
C1141 C1140 1.327 . S
C1141 C1145 1.415 1_565 S
C1142 C1125 1.574 . S
C1142 H1136 0.949 . S
C1142 C1146 1.381 . S
C1143 C1124 1.423 1_545 S
C1143 C1137 1.434 . S
C1143 C1144 1.523 . S
C1144 C1125 1.377 . S
C1144 C1138 1.360 1_545 S
C1144 C1143 1.523 . S
C1145 C1129 1.443 . S
C1145 C1141 1.415 1_545 S
C1145 C1146 1.523 . S
C1146 C1130 1.356 1_545 S
C1146 C1142 1.381 . S
C1146 C1145 1.523 . S
H1147 C1122 0.950 . S
H1148 C1124 0.950 . S
H1149 C1125 0.949 . S
H1150 C1127 0.950 . S
H1151 C1129 0.950 . S
C1152 C1153 1.349 . S
C1152 C1154 1.328 . S
C1152 H1177 0.950 1_455 S
C1153 C1152 1.349 . S
C1153 C1169 1.349 . S
C1154 C1152 1.328 . S
C1154 C1173 1.453 . S
C1154 H1178 0.925 1_455 S
C1155 C1172 1.574 . S
C1155 C1174 1.368 . S
C1155 H1179 0.949 . S
H1156 C1160 0.947 1_655 S
C1157 C1158 1.349 . S
C1157 C1159 1.327 . S
C1157 H1180 0.950 . S
C1158 C1157 1.349 . S
C1158 C1170 1.349 . S
C1159 C1157 1.327 . S
C1159 C1175 1.429 . S
C1159 H1181 0.950 . S
C1160 H1156 0.947 1_455 S
C1160 C1168 1.574 . S
C1160 C1176 1.370 . S
H1161 C1169 0.950 . S
H1162 C1167 0.950 . S
H1163 C1168 0.948 1_655 S
H1164 C1170 0.950 1_655 S
H1165 C1171 0.919 1_655 S
H1166 C1172 0.949 . S
C1167 H1162 0.950 . S
C1167 C1169 1.327 . S
C1167 C1173 1.429 . S
C1168 C1160 1.574 . S
C1168 H1163 0.948 1_455 S
C1168 C1174 1.369 . S
C1169 C1153 1.349 . S
C1169 H1161 0.950 . S
C1169 C1167 1.327 . S
C1170 C1158 1.349 . S
C1170 H1164 0.950 1_455 S
C1170 C1171 1.329 . S
C1171 H1165 0.919 1_455 S
C1171 C1170 1.329 . S
C1171 C1175 1.458 . S
C1172 C1155 1.574 . S
C1172 H1166 0.949 . S
C1172 C1176 1.368 . S
C1173 C1154 1.453 . S
C1173 C1167 1.429 . S
C1173 C1174 1.523 . S
C1174 C1155 1.368 . S
C1174 C1168 1.369 . S
C1174 C1173 1.523 . S
C1175 C1159 1.429 . S
C1175 C1171 1.458 . S
C1175 C1176 1.523 . S
C1176 C1160 1.370 . S
C1176 C1172 1.368 . S
C1176 C1175 1.523 . S
H1177 C1152 0.950 1_655 S
H1178 C1154 0.925 1_655 S
H1179 C1155 0.949 . S
H1180 C1157 0.950 . S
H1181 C1159 0.950 . S
C1182 C1183 1.348 1_565 S
C1182 C1184 1.327 . S
C1182 H1207 0.950 . S
C1183 C1182 1.348 1_545 S
C1183 C1199 1.350 . S
C1184 C1182 1.327 . S
C1184 C1203 1.423 1_565 S
C1184 H1208 0.950 . S
C1185 C1202 1.574 . S
C1185 C1204 1.377 . S
C1185 H1209 0.949 . S
H1186 C1190 0.949 . S
C1187 C1188 1.368 . S
C1187 C1189 1.327 . S
C1187 H1210 0.950 . S
C1188 C1187 1.368 . S
C1188 C1200 1.330 1_545 S
C1189 C1187 1.327 . S
C1189 C1205 1.443 . S
C1189 H1211 0.950 . S
C1190 H1186 0.949 . S
C1190 C1198 1.574 . S
C1190 C1206 1.355 1_565 S
H1191 C1199 0.950 . S
H1192 C1197 0.950 . S
H1193 C1198 0.949 . S
H1194 C1200 0.950 . S
H1195 C1201 0.950 . S
H1196 C1202 0.949 . S
C1197 H1192 0.950 . S
C1197 C1199 1.327 . S
C1197 C1203 1.434 . S
C1198 C1190 1.574 . S
C1198 H1193 0.949 . S
C1198 C1204 1.360 1_565 S
C1199 C1183 1.350 . S
C1199 H1191 0.950 . S
C1199 C1197 1.327 . S
C1200 C1188 1.330 1_565 S
C1200 H1194 0.950 . S
C1200 C1201 1.327 . S
C1201 H1195 0.950 . S
C1201 C1200 1.327 . S
C1201 C1205 1.414 1_565 S
C1202 C1185 1.574 . S
C1202 H1196 0.949 . S
C1202 C1206 1.381 . S
C1203 C1184 1.423 1_545 S
C1203 C1197 1.434 . S
C1203 C1204 1.523 . S
C1204 C1185 1.377 . S
C1204 C1198 1.360 1_545 S
C1204 C1203 1.523 . S
C1205 C1189 1.443 . S
C1205 C1201 1.414 1_545 S
C1205 C1206 1.523 . S
C1206 C1190 1.355 1_545 S
C1206 C1202 1.381 . S
C1206 C1205 1.523 . S
H1207 C1182 0.950 . S
H1208 C1184 0.950 . S
H1209 C1185 0.949 . S
H1210 C1187 0.950 . S
H1211 C1189 0.950 . S
C1212 C1213 1.349 . S
C1212 C1214 1.327 . S
C1212 H1237 0.950 . S
C1213 C1212 1.349 . S
C1213 C1229 1.372 . S
C1214 C1212 1.327 . S
C1214 C1233 1.429 . S
C1214 H1238 0.950 . S
C1215 C1232 1.574 . S
C1215 C1234 1.360 1_655 S
C1215 H1239 0.957 . S
H1216 C1220 0.949 . S
C1217 C1218 1.380 . S
C1217 C1219 1.327 . S
C1217 H1240 0.920 1_455 S
C1218 C1217 1.380 . S
C1218 C1230 1.349 . S
C1219 C1217 1.327 . S
C1219 C1235 1.444 . S
C1219 H1241 0.933 1_455 S
C1220 H1216 0.949 . S
C1220 C1228 1.574 . S
C1220 C1236 1.368 . S
H1221 C1229 0.928 1_655 S
H1222 C1227 0.939 1_655 S
H1223 C1228 0.949 . S
H1224 C1230 0.950 . S
H1225 C1231 0.950 . S
H1226 C1232 0.956 . S
C1227 H1222 0.939 1_455 S
C1227 C1229 1.327 . S
C1227 C1233 1.439 . S
C1228 C1220 1.574 . S
C1228 H1223 0.949 . S
C1228 C1234 1.368 . S
C1229 C1213 1.372 . S
C1229 H1221 0.928 1_455 S
C1229 C1227 1.327 . S
C1230 C1218 1.349 . S
C1230 H1224 0.950 . S
C1230 C1231 1.327 . S
C1231 H1225 0.950 . S
C1231 C1230 1.327 . S
C1231 C1235 1.429 . S
C1232 C1215 1.574 . S
C1232 H1226 0.956 . S
C1232 C1236 1.361 1_655 S
C1233 C1214 1.429 . S
C1233 C1227 1.439 . S
C1233 C1234 1.523 . S
C1234 C1215 1.360 1_455 S
C1234 C1228 1.368 . S
C1234 C1233 1.523 . S
C1235 C1219 1.444 . S
C1235 C1231 1.429 . S
C1235 C1236 1.523 . S
C1236 C1220 1.368 . S
C1236 C1232 1.361 1_455 S
C1236 C1235 1.523 . S
H1237 C1212 0.950 . S
H1238 C1214 0.950 . S
H1239 C1215 0.957 . S
H1240 C1217 0.920 1_655 S
H1241 C1219 0.933 1_655 S
C1242 C1243 1.349 1_565 S
C1242 C1244 1.327 . S
C1242 H1267 0.950 . S
C1243 C1242 1.349 1_545 S
C1243 C1259 1.349 . S
C1244 C1242 1.327 . S
C1244 C1263 1.393 1_565 S
C1244 H1268 0.950 . S
C1245 C1262 1.574 . S
C1245 C1264 1.405 . S
C1245 H1269 0.949 . S
H1246 C1250 0.949 . S
C1247 C1248 1.372 . S
C1247 C1249 1.327 . S
C1247 H1270 0.950 . S
C1248 C1247 1.372 . S
C1248 C1260 1.326 1_545 S
C1249 C1247 1.327 . S
C1249 C1265 1.456 . S
C1249 H1271 0.950 . S
C1250 H1246 0.949 . S
C1250 C1258 1.574 . S
C1250 C1266 1.337 1_565 S
H1251 C1259 0.950 . S
H1252 C1257 0.950 . S
H1253 C1258 0.949 . S
H1254 C1260 0.950 . S
H1255 C1261 0.950 . S
H1256 C1262 0.949 . S
C1257 H1252 0.950 . S
C1257 C1259 1.327 . S
C1257 C1263 1.465 . S
C1258 C1250 1.574 . S
C1258 H1253 0.949 . S
C1258 C1264 1.332 1_565 S
C1259 C1243 1.349 . S
C1259 H1251 0.950 . S
C1259 C1257 1.327 . S
C1260 C1248 1.326 1_565 S
C1260 H1254 0.950 . S
C1260 C1261 1.327 . S
C1261 H1255 0.950 . S
C1261 C1260 1.327 . S
C1261 C1265 1.402 1_565 S
C1262 C1245 1.574 . S
C1262 H1256 0.949 . S
C1262 C1266 1.401 . S
C1263 C1244 1.393 1_545 S
C1263 C1257 1.465 . S
C1263 C1264 1.523 . S
C1264 C1245 1.405 . S
C1264 C1258 1.332 1_545 S
C1264 C1263 1.523 . S
C1265 C1249 1.456 . S
C1265 C1261 1.402 1_545 S
C1265 C1266 1.523 . S
C1266 C1250 1.337 1_545 S
C1266 C1262 1.401 . S
C1266 C1265 1.523 . S
H1267 C1242 0.950 . S
H1268 C1244 0.950 . S
H1269 C1245 0.949 . S
H1270 C1247 0.950 . S
H1271 C1249 0.950 . S
C1272 C1273 1.349 . S
C1272 C1274 1.327 . S
C1272 H1297 0.950 . S
C1273 C1272 1.349 . S
C1273 C1289 1.349 . S
C1274 C1272 1.327 . S
C1274 C1293 1.429 . S
C1274 H1298 0.950 . S
C1275 C1292 1.574 . S
C1275 C1294 1.368 . S
C1275 H1299 0.949 . S
H1276 C1280 0.949 . S
C1277 C1278 1.349 . S
C1277 C1279 1.327 . S
C1277 H1300 0.950 . S
C1278 C1277 1.349 . S
C1278 C1290 1.349 . S
C1279 C1277 1.327 . S
C1279 C1295 1.429 . S
C1279 H1301 0.950 . S
C1280 H1276 0.949 . S
C1280 C1288 1.574 . S
C1280 C1296 1.368 . S
H1281 C1289 0.950 . S
H1282 C1287 0.950 . S
H1283 C1288 0.949 . S
H1284 C1290 0.950 . S
H1285 C1291 0.950 . S
H1286 C1292 0.949 . S
C1287 H1282 0.950 . S
C1287 C1289 1.327 . S
C1287 C1293 1.429 . S
C1288 C1280 1.574 . S
C1288 H1283 0.949 . S
C1288 C1294 1.368 . S
C1289 C1273 1.349 . S
C1289 H1281 0.950 . S
C1289 C1287 1.327 . S
C1290 C1278 1.349 . S
C1290 H1284 0.950 . S
C1290 C1291 1.327 . S
C1291 H1285 0.950 . S
C1291 C1290 1.327 . S
C1291 C1295 1.429 . S
C1292 C1275 1.574 . S
C1292 H1286 0.949 . S
C1292 C1296 1.368 . S
C1293 C1274 1.429 . S
C1293 C1287 1.429 . S
C1293 C1294 1.523 . S
C1294 C1275 1.368 . S
C1294 C1288 1.368 . S
C1294 C1293 1.523 . S
C1295 C1279 1.429 . S
C1295 C1291 1.429 . S
C1295 C1296 1.523 . S
C1296 C1280 1.368 . S
C1296 C1292 1.368 . S
C1296 C1295 1.523 . S
H1297 C1272 0.950 . S
H1298 C1274 0.950 . S
H1299 C1275 0.949 . S
H1300 C1277 0.950 . S
H1301 C1279 0.950 . S
C1302 C1303 1.349 1_565 S
C1302 C1304 1.327 . S
C1302 H1327 0.950 . S
C1303 C1302 1.349 1_545 S
C1303 C1319 1.349 . S
C1304 C1302 1.327 . S
C1304 C1323 1.393 1_565 S
C1304 H1328 0.950 . S
C1305 C1322 1.574 . S
C1305 C1324 1.405 . S
C1305 H1329 0.949 . S
H1306 C1310 0.949 . S
C1307 C1308 1.373 . S
C1307 C1309 1.327 . S
C1307 H1330 0.950 . S
C1308 C1307 1.373 . S
C1308 C1320 1.326 1_545 S
C1309 C1307 1.327 . S
C1309 C1325 1.456 . S
C1309 H1331 0.950 . S
C1310 H1306 0.949 . S
C1310 C1318 1.574 . S
C1310 C1326 1.336 1_565 S
H1311 C1319 0.950 . S
H1312 C1317 0.950 . S
H1313 C1318 0.949 . S
H1314 C1320 0.950 . S
H1315 C1321 0.950 . S
H1316 C1322 0.949 . S
C1317 H1312 0.950 . S
C1317 C1319 1.327 . S
C1317 C1323 1.465 . S
C1318 C1310 1.574 . S
C1318 H1313 0.949 . S
C1318 C1324 1.332 1_565 S
C1319 C1303 1.349 . S
C1319 H1311 0.950 . S
C1319 C1317 1.327 . S
C1320 C1308 1.326 1_565 S
C1320 H1314 0.950 . S
C1320 C1321 1.327 . S
C1321 H1315 0.950 . S
C1321 C1320 1.327 . S
C1321 C1325 1.402 1_565 S
C1322 C1305 1.574 . S
C1322 H1316 0.949 . S
C1322 C1326 1.401 . S
C1323 C1304 1.393 1_545 S
C1323 C1317 1.465 . S
C1323 C1324 1.523 . S
C1324 C1305 1.405 . S
C1324 C1318 1.332 1_545 S
C1324 C1323 1.523 . S
C1325 C1309 1.456 . S
C1325 C1321 1.402 1_545 S
C1325 C1326 1.523 . S
C1326 C1310 1.336 1_545 S
C1326 C1322 1.401 . S
C1326 C1325 1.523 . S
H1327 C1302 0.950 . S
H1328 C1304 0.950 . S
H1329 C1305 0.949 . S
H1330 C1307 0.950 . S
H1331 C1309 0.950 . S
C1332 C1333 1.349 . S
C1332 C1334 1.327 . S
C1332 H1357 0.950 . S
C1333 C1332 1.349 . S
C1333 C1349 1.349 . S
C1334 C1332 1.327 . S
C1334 C1353 1.429 . S
C1334 H1358 0.950 . S
C1335 C1352 1.574 . S
C1335 C1354 1.368 . S
C1335 H1359 0.949 1_455 S
H1336 C1340 0.949 . S
C1337 C1338 1.332 1_655 S
C1337 C1339 1.327 . S
C1337 H1360 0.970 . S
C1338 C1337 1.332 1_455 S
C1338 C1350 1.349 . S
C1339 C1337 1.327 . S
C1339 C1355 1.420 1_655 S
C1339 H1361 0.959 . S
C1340 H1336 0.949 . S
C1340 C1348 1.574 . S
C1340 C1356 1.368 . S
H1341 C1349 0.950 1_655 S
H1342 C1347 0.950 1_655 S
H1343 C1348 0.949 . S
H1344 C1350 0.950 . S
H1345 C1351 0.950 . S
H1346 C1352 0.943 1_655 S
C1347 H1342 0.950 1_455 S
C1347 C1349 1.327 . S
C1347 C1353 1.429 . S
C1348 C1340 1.574 . S
C1348 H1343 0.949 . S
C1348 C1354 1.368 . S
C1349 C1333 1.349 . S
C1349 H1341 0.950 1_455 S
C1349 C1347 1.327 . S
C1350 C1338 1.349 . S
C1350 H1344 0.950 . S
C1350 C1351 1.327 . S
C1351 H1345 0.950 . S
C1351 C1350 1.327 . S
C1351 C1355 1.429 . S
C1352 C1335 1.574 . S
C1352 H1346 0.943 1_455 S
C1352 C1356 1.375 . S
C1353 C1334 1.429 . S
C1353 C1347 1.429 . S
C1353 C1354 1.523 . S
C1354 C1335 1.368 . S
C1354 C1348 1.368 . S
C1354 C1353 1.523 . S
C1355 C1339 1.420 1_455 S
C1355 C1351 1.429 . S
C1355 C1356 1.523 . S
C1356 C1340 1.368 . S
C1356 C1352 1.375 . S
C1356 C1355 1.523 . S
H1357 C1332 0.950 . S
H1358 C1334 0.950 . S
H1359 C1335 0.949 1_655 S
H1360 C1337 0.970 . S
H1361 C1339 0.959 . S
C1362 C1363 1.349 . S
C1362 C1364 1.327 . S
C1362 H1387 0.950 . S
C1363 C1362 1.349 . S
C1363 C1379 1.349 1_545 S
C1364 C1362 1.327 . S
C1364 C1383 1.465 . S
C1364 H1388 0.950 . S
C1365 C1382 1.574 . S
C1365 C1384 1.332 1_565 S
C1365 H1389 0.949 . S
H1366 C1370 0.949 . S
C1367 C1368 1.326 1_565 S
C1367 C1369 1.327 . S
C1367 H1390 0.950 . S
C1368 C1367 1.326 1_545 S
C1368 C1380 1.373 . S
C1369 C1367 1.327 . S
C1369 C1385 1.402 1_565 S
C1369 H1391 0.950 . S
C1370 H1366 0.949 . S
C1370 C1378 1.574 . S
C1370 C1386 1.401 . S
H1371 C1379 0.950 . S
H1372 C1377 0.950 . S
H1373 C1378 0.949 . S
H1374 C1380 0.950 . S
H1375 C1381 0.950 . S
H1376 C1382 0.949 . S
C1377 H1372 0.950 . S
C1377 C1379 1.327 . S
C1377 C1383 1.394 1_565 S
C1378 C1370 1.574 . S
C1378 H1373 0.949 . S
C1378 C1384 1.405 . S
C1379 C1363 1.349 1_565 S
C1379 H1371 0.950 . S
C1379 C1377 1.327 . S
C1380 C1368 1.373 . S
C1380 H1374 0.950 . S
C1380 C1381 1.327 . S
C1381 H1375 0.950 . S
C1381 C1380 1.327 . S
C1381 C1385 1.456 . S
C1382 C1365 1.574 . S
C1382 H1376 0.949 . S
C1382 C1386 1.337 1_565 S
C1383 C1364 1.465 . S
C1383 C1377 1.394 1_545 S
C1383 C1384 1.523 . S
C1384 C1365 1.332 1_545 S
C1384 C1378 1.405 . S
C1384 C1383 1.523 . S
C1385 C1369 1.402 1_545 S
C1385 C1381 1.456 . S
C1385 C1386 1.523 . S
C1386 C1370 1.401 . S
C1386 C1382 1.337 1_545 S
C1386 C1385 1.523 . S
H1387 C1362 0.950 . S
H1388 C1364 0.950 . S
H1389 C1365 0.949 . S
H1390 C1367 0.950 . S
H1391 C1369 0.950 . S
C1392 C1393 1.349 . S
C1392 C1394 1.327 . S
C1392 H1417 0.962 . S
C1393 C1392 1.349 . S
C1393 C1409 1.349 . S
C1394 C1392 1.327 . S
C1394 C1413 1.429 . S
C1394 H1418 0.937 1_455 S
C1395 C1412 1.574 . S
C1395 C1414 1.368 . S
C1395 H1419 0.949 . S
H1396 C1400 0.949 1_655 S
C1397 C1398 1.349 . S
C1397 C1399 1.327 . S
C1397 H1420 0.950 . S
C1398 C1397 1.349 . S
C1398 C1410 1.364 . S
C1399 C1397 1.327 . S
C1399 C1415 1.429 . S
C1399 H1421 0.950 . S
C1400 H1396 0.949 1_455 S
C1400 C1408 1.574 . S
C1400 C1416 1.368 . S
H1401 C1409 0.950 . S
H1402 C1407 0.950 . S
H1403 C1408 0.949 1_655 S
H1404 C1410 0.935 1_655 S
H1405 C1411 0.950 1_655 S
H1406 C1412 0.949 . S
C1407 H1402 0.950 . S
C1407 C1409 1.327 . S
C1407 C1413 1.429 . S
C1408 C1400 1.574 . S
C1408 H1403 0.949 1_455 S
C1408 C1414 1.368 . S
C1409 C1393 1.349 . S
C1409 H1401 0.950 . S
C1409 C1407 1.327 . S
C1410 C1398 1.364 . S
C1410 H1404 0.935 1_455 S
C1410 C1411 1.329 . S
C1411 H1405 0.950 1_455 S
C1411 C1410 1.329 . S
C1411 C1415 1.429 . S
C1412 C1395 1.574 . S
C1412 H1406 0.949 . S
C1412 C1416 1.368 . S
C1413 C1394 1.429 . S
C1413 C1407 1.429 . S
C1413 C1414 1.523 . S
C1414 C1395 1.368 . S
C1414 C1408 1.368 . S
C1414 C1413 1.523 . S
C1415 C1399 1.429 . S
C1415 C1411 1.429 . S
C1415 C1416 1.523 . S
C1416 C1400 1.368 . S
C1416 C1412 1.368 . S
C1416 C1415 1.523 . S
H1417 C1392 0.962 . S
H1418 C1394 0.937 1_655 S
H1419 C1395 0.949 . S
H1420 C1397 0.950 . S
H1421 C1399 0.950 . S
C1422 C1423 1.349 1_565 S
C1422 C1424 1.327 . S
C1422 H1447 0.950 . S
C1423 C1422 1.349 1_545 S
C1423 C1439 1.349 . S
C1424 C1422 1.327 . S
C1424 C1443 1.393 1_565 S
C1424 H1448 0.950 . S
C1425 C1442 1.574 . S
C1425 C1444 1.406 . S
C1425 H1449 0.949 . S
H1426 C1430 0.949 . S
C1427 C1428 1.372 . S
C1427 C1429 1.327 . S
C1427 H1450 0.950 . S
C1428 C1427 1.372 . S
C1428 C1440 1.326 1_545 S
C1429 C1427 1.327 . S
C1429 C1445 1.456 . S
C1429 H1451 0.950 . S
C1430 H1426 0.949 . S
C1430 C1438 1.574 . S
C1430 C1446 1.336 1_565 S
H1431 C1439 0.950 . S
H1432 C1437 0.950 . S
H1433 C1438 0.949 . S
H1434 C1440 0.950 . S
H1435 C1441 0.950 . S
H1436 C1442 0.949 . S
C1437 H1432 0.950 . S
C1437 C1439 1.327 . S
C1437 C1443 1.465 . S
C1438 C1430 1.574 . S
C1438 H1433 0.949 . S
C1438 C1444 1.332 1_565 S
C1439 C1423 1.349 . S
C1439 H1431 0.950 . S
C1439 C1437 1.327 . S
C1440 C1428 1.326 1_565 S
C1440 H1434 0.950 . S
C1440 C1441 1.327 . S
C1441 H1435 0.950 . S
C1441 C1440 1.327 . S
C1441 C1445 1.402 1_565 S
C1442 C1425 1.574 . S
C1442 H1436 0.949 . S
C1442 C1446 1.401 . S
C1443 C1424 1.393 1_545 S
C1443 C1437 1.465 . S
C1443 C1444 1.523 . S
C1444 C1425 1.406 . S
C1444 C1438 1.332 1_545 S
C1444 C1443 1.523 . S
C1445 C1429 1.456 . S
C1445 C1441 1.402 1_545 S
C1445 C1446 1.523 . S
C1446 C1430 1.336 1_545 S
C1446 C1442 1.401 . S
C1446 C1445 1.523 . S
H1447 C1422 0.950 . S
H1448 C1424 0.950 . S
H1449 C1425 0.949 . S
H1450 C1427 0.950 . S
H1451 C1429 0.950 . S
C1452 C1453 1.349 . S
C1452 C1454 1.327 . S
C1452 H1477 0.950 . S
C1453 C1452 1.349 . S
C1453 C1469 1.349 . S
C1454 C1452 1.327 . S
C1454 C1473 1.429 . S
C1454 H1478 0.950 . S
C1455 C1472 1.574 . S
C1455 C1474 1.368 . S
C1455 H1479 0.938 1_455 S
H1456 C1460 0.949 . S
C1457 C1458 1.349 . S
C1457 C1459 1.327 . S
C1457 H1480 0.950 1_455 S
C1458 C1457 1.349 . S
C1458 C1470 1.349 . S
C1459 C1457 1.327 . S
C1459 C1475 1.429 . S
C1459 H1481 0.950 1_455 S
C1460 H1456 0.949 . S
C1460 C1468 1.574 . S
C1460 C1476 1.368 . S
H1461 C1469 0.950 . S
H1462 C1467 0.950 . S
H1463 C1468 0.949 . S
H1464 C1470 0.950 . S
H1465 C1471 0.950 . S
H1466 C1472 0.949 1_655 S
C1467 H1462 0.950 . S
C1467 C1469 1.327 . S
C1467 C1473 1.429 . S
C1468 C1460 1.574 . S
C1468 H1463 0.949 . S
C1468 C1474 1.368 . S
C1469 C1453 1.349 . S
C1469 H1461 0.950 . S
C1469 C1467 1.327 . S
C1470 C1458 1.349 . S
C1470 H1464 0.950 . S
C1470 C1471 1.327 . S
C1471 H1465 0.950 . S
C1471 C1470 1.327 . S
C1471 C1475 1.429 . S
C1472 C1455 1.574 . S
C1472 H1466 0.949 1_455 S
C1472 C1476 1.368 . S
C1473 C1454 1.429 . S
C1473 C1467 1.429 . S
C1473 C1474 1.523 . S
C1474 C1455 1.368 . S
C1474 C1468 1.368 . S
C1474 C1473 1.523 . S
C1475 C1459 1.429 . S
C1475 C1471 1.429 . S
C1475 C1476 1.523 . S
C1476 C1460 1.368 . S
C1476 C1472 1.368 . S
C1476 C1475 1.523 . S
H1477 C1452 0.950 . S
H1478 C1454 0.950 . S
H1479 C1455 0.938 1_655 S
H1480 C1457 0.950 1_655 S
H1481 C1459 0.950 1_655 S
C1482 C1483 1.352 1_565 S
C1482 C1484 1.327 . S
C1482 H1507 0.950 . S
C1483 C1482 1.352 1_545 S
C1483 C1499 1.345 . S
C1484 C1482 1.327 . S
C1484 C1503 1.428 1_565 S
C1484 H1508 0.950 . S
C1485 C1502 1.574 . S
C1485 C1504 1.372 . S
C1485 H1509 0.949 . S
H1486 C1490 0.949 . S
C1487 C1488 1.364 . S
C1487 C1489 1.327 . S
C1487 H1510 0.950 . S
C1488 C1487 1.364 . S
C1488 C1500 1.334 1_545 S
C1489 C1487 1.327 . S
C1489 C1505 1.439 . S
C1489 H1511 0.950 . S
C1490 H1486 0.949 . S
C1490 C1498 1.574 . S
C1490 C1506 1.360 1_565 S
H1491 C1499 0.950 . S
H1492 C1497 0.950 . S
H1493 C1498 0.949 . S
H1494 C1500 0.950 . S
H1495 C1501 0.950 . S
H1496 C1502 0.949 . S
C1497 H1492 0.950 . S
C1497 C1499 1.327 . S
C1497 C1503 1.430 . S
C1498 C1490 1.574 . S
C1498 H1493 0.949 . S
C1498 C1504 1.365 1_565 S
C1499 C1483 1.345 . S
C1499 H1491 0.950 . S
C1499 C1497 1.327 . S
C1500 C1488 1.334 1_565 S
C1500 H1494 0.950 . S
C1500 C1501 1.327 . S
C1501 H1495 0.950 . S
C1501 C1500 1.327 . S
C1501 C1505 1.419 1_565 S
C1502 C1485 1.574 . S
C1502 H1496 0.949 . S
C1502 C1506 1.377 . S
C1503 C1484 1.428 1_545 S
C1503 C1497 1.430 . S
C1503 C1504 1.523 . S
C1504 C1485 1.372 . S
C1504 C1498 1.365 1_545 S
C1504 C1503 1.523 . S
C1505 C1489 1.439 . S
C1505 C1501 1.419 1_545 S
C1505 C1506 1.523 . S
C1506 C1490 1.360 1_545 S
C1506 C1502 1.377 . S
C1506 C1505 1.523 . S
H1507 C1482 0.950 . S
H1508 C1484 0.950 . S
H1509 C1485 0.949 . S
H1510 C1487 0.950 . S
H1511 C1489 0.950 . S
C1512 C1513 1.349 1_655 S
C1512 C1514 1.327 . S
C1512 H1537 0.950 . S
C1513 C1512 1.349 1_455 S
C1513 C1529 1.349 . S
C1514 C1512 1.327 . S
C1514 C1533 1.429 1_655 S
C1514 H1538 0.950 . S
C1515 C1532 1.574 . S
C1515 C1534 1.368 . S
C1515 H1539 0.949 . S
H1516 C1520 0.949 . S
C1517 C1518 1.349 . S
C1517 C1519 1.327 . S
C1517 H1540 0.950 . S
C1518 C1517 1.349 . S
C1518 C1530 1.349 1_455 S
C1519 C1517 1.327 . S
C1519 C1535 1.429 . S
C1519 H1541 0.950 . S
C1520 H1516 0.949 . S
C1520 C1528 1.574 . S
C1520 C1536 1.368 1_655 S
H1521 C1529 0.950 . S
H1522 C1527 0.950 . S
H1523 C1528 0.949 . S
H1524 C1530 0.950 . S
H1525 C1531 0.950 . S
H1526 C1532 0.949 . S
C1527 H1522 0.950 . S
C1527 C1529 1.327 . S
C1527 C1533 1.429 . S
C1528 C1520 1.574 . S
C1528 H1523 0.949 . S
C1528 C1534 1.368 1_655 S
C1529 C1513 1.349 . S
C1529 H1521 0.950 . S
C1529 C1527 1.327 . S
C1530 C1518 1.349 1_655 S
C1530 H1524 0.950 . S
C1530 C1531 1.327 . S
C1531 H1525 0.950 . S
C1531 C1530 1.327 . S
C1531 C1535 1.429 1_655 S
C1532 C1515 1.574 . S
C1532 H1526 0.949 . S
C1532 C1536 1.368 . S
C1533 C1514 1.429 1_455 S
C1533 C1527 1.429 . S
C1533 C1534 1.523 . S
C1534 C1515 1.368 . S
C1534 C1528 1.368 1_455 S
C1534 C1533 1.523 . S
C1535 C1519 1.429 . S
C1535 C1531 1.429 1_455 S
C1535 C1536 1.523 . S
C1536 C1520 1.368 1_455 S
C1536 C1532 1.368 . S
C1536 C1535 1.523 . S
H1537 C1512 0.950 . S
H1538 C1514 0.950 . S
H1539 C1515 0.949 . S
H1540 C1517 0.950 . S
H1541 C1519 0.950 . S
C1542 C1543 1.346 . S
C1542 C1544 1.327 . S
C1542 H1567 0.950 . S
C1543 C1542 1.346 . S
C1543 C1559 1.352 1_545 S
C1544 C1542 1.327 . S
C1544 C1563 1.430 . S
C1544 H1568 0.950 . S
C1545 C1562 1.574 . S
C1545 C1564 1.365 1_565 S
C1545 H1569 0.949 . S
H1546 C1550 0.949 . S
C1547 C1548 1.335 1_565 S
C1547 C1549 1.327 . S
C1547 H1570 0.950 . S
C1548 C1547 1.335 1_545 S
C1548 C1560 1.363 . S
C1549 C1547 1.327 . S
C1549 C1565 1.419 1_565 S
C1549 H1571 0.950 . S
C1550 H1546 0.949 . S
C1550 C1558 1.574 . S
C1550 C1566 1.376 . S
H1551 C1559 0.950 . S
H1552 C1557 0.950 . S
H1553 C1558 0.949 . S
H1554 C1560 0.950 . S
H1555 C1561 0.950 . S
H1556 C1562 0.949 . S
C1557 H1552 0.950 . S
C1557 C1559 1.327 . S
C1557 C1563 1.427 1_565 S
C1558 C1550 1.574 . S
C1558 H1553 0.949 . S
C1558 C1564 1.372 . S
C1559 C1543 1.352 1_565 S
C1559 H1551 0.950 . S
C1559 C1557 1.327 . S
C1560 C1548 1.363 . S
C1560 H1554 0.950 . S
C1560 C1561 1.327 . S
C1561 H1555 0.950 . S
C1561 C1560 1.327 . S
C1561 C1565 1.438 . S
C1562 C1545 1.574 . S
C1562 H1556 0.949 . S
C1562 C1566 1.360 1_565 S
C1563 C1544 1.430 . S
C1563 C1557 1.427 1_545 S
C1563 C1564 1.523 . S
C1564 C1545 1.365 1_545 S
C1564 C1558 1.372 . S
C1564 C1563 1.523 . S
C1565 C1549 1.419 1_545 S
C1565 C1561 1.438 . S
C1565 C1566 1.523 . S
C1566 C1550 1.376 . S
C1566 C1562 1.360 1_545 S
C1566 C1565 1.523 . S
H1567 C1542 0.950 . S
H1568 C1544 0.950 . S
H1569 C1545 0.949 . S
H1570 C1547 0.950 . S
H1571 C1549 0.950 . S
C1572 C1573 1.349 . S
C1572 C1574 1.327 . S
C1572 H1597 0.950 . S
C1573 C1572 1.349 . S
C1573 C1589 1.349 1_545 S
C1574 C1572 1.327 . S
C1574 C1593 1.467 . S
C1574 H1598 0.950 . S
C1575 C1592 1.574 . S
C1575 C1594 1.329 1_565 S
C1575 H1599 0.949 . S
H1576 C1580 0.949 . S
C1577 C1578 1.319 1_565 S
C1577 C1579 1.327 . S
C1577 H1600 0.950 . S
C1578 C1577 1.319 1_545 S
C1578 C1590 1.379 . S
C1579 C1577 1.327 . S
C1579 C1595 1.397 1_565 S
C1579 H1601 0.950 . S
C1580 H1576 0.949 . S
C1580 C1588 1.574 . S
C1580 C1596 1.405 . S
H1581 C1589 0.950 . S
H1582 C1587 0.950 . S
H1583 C1588 0.949 . S
H1584 C1590 0.950 . S
H1585 C1591 0.950 . S
H1586 C1592 0.949 . S
C1587 H1582 0.950 . S
C1587 C1589 1.327 . S
C1587 C1593 1.392 1_565 S
C1588 C1580 1.574 . S
C1588 H1583 0.949 . S
C1588 C1594 1.408 . S
C1589 C1573 1.349 1_565 S
C1589 H1581 0.950 . S
C1589 C1587 1.327 . S
C1590 C1578 1.379 . S
C1590 H1584 0.950 . S
C1590 C1591 1.327 . S
C1591 H1585 0.950 . S
C1591 C1590 1.327 . S
C1591 C1595 1.461 . S
C1592 C1575 1.574 . S
C1592 H1586 0.949 . S
C1592 C1596 1.332 1_565 S
C1593 C1574 1.467 . S
C1593 C1587 1.392 1_545 S
C1593 C1594 1.523 . S
C1594 C1575 1.329 1_545 S
C1594 C1588 1.408 . S
C1594 C1593 1.523 . S
C1595 C1579 1.397 1_545 S
C1595 C1591 1.461 . S
C1595 C1596 1.523 . S
C1596 C1580 1.405 . S
C1596 C1592 1.332 1_545 S
C1596 C1595 1.523 . S
H1597 C1572 0.950 . S
H1598 C1574 0.950 . S
H1599 C1575 0.949 . S
H1600 C1577 0.950 . S
H1601 C1579 0.950 . S
C1602 C1603 1.350 1_655 S
C1602 C1604 1.327 1_655 S
C1602 H1627 0.948 . S
C1603 C1602 1.350 1_455 S
C1603 C1619 1.349 . S
C1604 C1602 1.327 1_455 S
C1604 C1623 1.430 . S
C1604 H1628 0.948 1_455 S
C1605 C1622 1.574 . S
C1605 C1624 1.368 . S
C1605 H1629 0.949 . S
H1606 C1610 0.949 1_655 S
C1607 C1608 1.349 . S
C1607 C1609 1.327 . S
C1607 H1630 0.950 . S
C1608 C1607 1.349 . S
C1608 C1620 1.349 . S
C1609 C1607 1.327 . S
C1609 C1625 1.429 . S
C1609 H1631 0.950 . S
C1610 H1606 0.949 1_455 S
C1610 C1618 1.575 . S
C1610 C1626 1.368 . S
H1611 C1619 0.950 . S
H1612 C1617 0.950 . S
H1613 C1618 0.929 1_655 S
H1614 C1620 0.950 1_655 S
H1615 C1621 0.950 1_655 S
H1616 C1622 0.949 . S
C1617 H1612 0.950 . S
C1617 C1619 1.327 . S
C1617 C1623 1.429 . S
C1618 C1610 1.575 . S
C1618 H1613 0.929 1_455 S
C1618 C1624 1.390 . S
C1619 C1603 1.349 . S
C1619 H1611 0.950 . S
C1619 C1617 1.327 . S
C1620 C1608 1.349 . S
C1620 H1614 0.950 1_455 S
C1620 C1621 1.327 . S
C1621 H1615 0.950 1_455 S
C1621 C1620 1.327 . S
C1621 C1625 1.429 . S
C1622 C1605 1.574 . S
C1622 H1616 0.949 . S
C1622 C1626 1.368 . S
C1623 C1604 1.430 . S
C1623 C1617 1.429 . S
C1623 C1624 1.523 . S
C1624 C1605 1.368 . S
C1624 C1618 1.390 . S
C1624 C1623 1.523 . S
C1625 C1609 1.429 . S
C1625 C1621 1.429 . S
C1625 C1626 1.523 . S
C1626 C1610 1.368 . S
C1626 C1622 1.368 . S
C1626 C1625 1.523 . S
H1627 C1602 0.948 . S
H1628 C1604 0.948 1_655 S
H1629 C1605 0.949 . S
H1630 C1607 0.950 . S
H1631 C1609 0.950 . S
C1632 C1633 1.349 . S
C1632 C1634 1.327 . S
C1632 H1657 0.950 . S
C1633 C1632 1.349 . S
C1633 C1649 1.349 1_545 S
C1634 C1632 1.327 . S
C1634 C1653 1.467 . S
C1634 H1658 0.950 . S
C1635 C1652 1.574 . S
C1635 C1654 1.329 1_565 S
C1635 H1659 0.949 . S
H1636 C1640 0.949 . S
C1637 C1638 1.320 1_565 S
C1637 C1639 1.327 . S
C1637 H1660 0.950 . S
C1638 C1637 1.320 1_545 S
C1638 C1650 1.379 . S
C1639 C1637 1.327 . S
C1639 C1655 1.397 1_565 S
C1639 H1661 0.950 . S
C1640 H1636 0.949 . S
C1640 C1648 1.574 . S
C1640 C1656 1.405 . S
H1641 C1649 0.950 . S
H1642 C1647 0.950 . S
H1643 C1648 0.949 . S
H1644 C1650 0.950 . S
H1645 C1651 0.950 . S
H1646 C1652 0.949 . S
C1647 H1642 0.950 . S
C1647 C1649 1.327 . S
C1647 C1653 1.392 1_565 S
C1648 C1640 1.574 . S
C1648 H1643 0.949 . S
C1648 C1654 1.408 . S
C1649 C1633 1.349 1_565 S
C1649 H1641 0.950 . S
C1649 C1647 1.327 . S
C1650 C1638 1.379 . S
C1650 H1644 0.950 . S
C1650 C1651 1.327 . S
C1651 H1645 0.950 . S
C1651 C1650 1.327 . S
C1651 C1655 1.460 . S
C1652 C1635 1.574 . S
C1652 H1646 0.949 . S
C1652 C1656 1.332 1_565 S
C1653 C1634 1.467 . S
C1653 C1647 1.392 1_545 S
C1653 C1654 1.523 . S
C1654 C1635 1.329 1_545 S
C1654 C1648 1.408 . S
C1654 C1653 1.523 . S
C1655 C1639 1.397 1_545 S
C1655 C1651 1.460 . S
C1655 C1656 1.523 . S
C1656 C1640 1.405 . S
C1656 C1652 1.332 1_545 S
C1656 C1655 1.523 . S
H1657 C1632 0.950 . S
H1658 C1634 0.950 . S
H1659 C1635 0.949 . S
H1660 C1637 0.950 . S
H1661 C1639 0.950 . S
C1662 C1663 1.349 . S
C1662 C1664 1.327 . S
C1662 H1687 0.950 . S
C1663 C1662 1.349 . S
C1663 C1679 1.349 1_455 S
C1664 C1662 1.327 . S
C1664 C1683 1.429 . S
C1664 H1688 0.950 . S
C1665 C1682 1.574 . S
C1665 C1684 1.368 1_655 S
C1665 H1689 0.949 . S
H1666 C1670 0.949 . S
C1667 C1668 1.349 . S
C1667 C1669 1.330 . S
C1667 H1690 0.950 1_455 S
C1668 C1667 1.349 . S
C1668 C1680 1.349 . S
C1669 C1667 1.330 . S
C1669 C1685 1.460 . S
C1669 H1691 0.916 1_455 S
C1670 H1666 0.949 . S
C1670 C1678 1.574 . S
C1670 C1686 1.368 . S
H1671 C1679 0.950 . S
H1672 C1677 0.950 . S
H1673 C1678 0.949 . S
H1674 C1680 0.950 . S
H1675 C1681 0.950 . S
H1676 C1682 0.949 . S
C1677 H1672 0.950 . S
C1677 C1679 1.327 . S
C1677 C1683 1.429 1_655 S
C1678 C1670 1.574 . S
C1678 H1673 0.949 . S
C1678 C1684 1.368 . S
C1679 C1663 1.349 1_655 S
C1679 H1671 0.950 . S
C1679 C1677 1.327 . S
C1680 C1668 1.349 . S
C1680 H1674 0.950 . S
C1680 C1681 1.327 . S
C1681 H1675 0.950 . S
C1681 C1680 1.327 . S
C1681 C1685 1.429 . S
C1682 C1665 1.574 . S
C1682 H1676 0.949 . S
C1682 C1686 1.368 1_655 S
C1683 C1664 1.429 . S
C1683 C1677 1.429 1_455 S
C1683 C1684 1.523 . S
C1684 C1665 1.368 1_455 S
C1684 C1678 1.368 . S
C1684 C1683 1.523 . S
C1685 C1669 1.460 . S
C1685 C1681 1.429 . S
C1685 C1686 1.523 . S
C1686 C1670 1.368 . S
C1686 C1682 1.368 1_455 S
C1686 C1685 1.523 . S
H1687 C1662 0.950 . S
H1688 C1664 0.950 . S
H1689 C1665 0.949 . S
H1690 C1667 0.950 1_655 S
H1691 C1669 0.916 1_655 S
C1692 C1693 1.350 . S
C1692 C1694 1.327 . S
C1692 H1717 0.950 . S
C1693 C1692 1.350 . S
C1693 C1709 1.348 1_545 S
C1694 C1692 1.327 . S
C1694 C1713 1.432 . S
C1694 H1718 0.950 . S
C1695 C1712 1.574 . S
C1695 C1714 1.363 1_565 S
C1695 H1719 0.949 . S
H1696 C1700 0.949 . S
C1697 C1698 1.337 1_565 S
C1697 C1699 1.327 . S
C1697 H1720 0.950 . S
C1698 C1697 1.337 1_545 S
C1698 C1710 1.361 . S
C1699 C1697 1.327 . S
C1699 C1715 1.420 1_565 S
C1699 H1721 0.950 . S
C1700 H1696 0.949 . S
C1700 C1708 1.574 . S
C1700 C1716 1.377 . S
H1701 C1709 0.950 . S
H1702 C1707 0.950 . S
H1703 C1708 0.949 . S
H1704 C1710 0.950 . S
H1705 C1711 0.950 . S
H1706 C1712 0.949 . S
C1707 H1702 0.950 . S
C1707 C1709 1.327 . S
C1707 C1713 1.425 1_565 S
C1708 C1700 1.574 . S
C1708 H1703 0.949 . S
C1708 C1714 1.374 . S
C1709 C1693 1.348 1_565 S
C1709 H1701 0.950 . S
C1709 C1707 1.327 . S
C1710 C1698 1.361 . S
C1710 H1704 0.950 . S
C1710 C1711 1.327 . S
C1711 H1705 0.950 . S
C1711 C1710 1.327 . S
C1711 C1715 1.438 . S
C1712 C1695 1.574 . S
C1712 H1706 0.949 . S
C1712 C1716 1.360 1_565 S
C1713 C1694 1.432 . S
C1713 C1707 1.425 1_545 S
C1713 C1714 1.523 . S
C1714 C1695 1.363 1_545 S
C1714 C1708 1.374 . S
C1714 C1713 1.523 . S
C1715 C1699 1.420 1_545 S
C1715 C1711 1.438 . S
C1715 C1716 1.523 . S
C1716 C1700 1.377 . S
C1716 C1712 1.360 1_545 S
C1716 C1715 1.523 . S
H1717 C1692 0.950 . S
H1718 C1694 0.950 . S
H1719 C1695 0.949 . S
H1720 C1697 0.950 . S
H1721 C1699 0.950 . S
C1722 C1723 1.349 . S
C1722 C1724 1.327 . S
C1722 H1747 0.950 1_455 S
C1723 C1722 1.349 . S
C1723 C1739 1.349 . S
C1724 C1722 1.327 . S
C1724 C1743 1.429 . S
C1724 H1748 0.950 1_455 S
C1725 C1742 1.574 . S
C1725 C1744 1.368 . S
C1725 H1749 0.949 . S
H1726 C1730 0.949 1_655 S
C1727 C1728 1.349 . S
C1727 C1729 1.327 . S
C1727 H1750 0.950 . S
C1728 C1727 1.349 . S
C1728 C1740 1.349 . S
C1729 C1727 1.327 . S
C1729 C1745 1.429 . S
C1729 H1751 0.950 . S
C1730 H1726 0.949 1_455 S
C1730 C1738 1.574 . S
C1730 C1746 1.368 . S
H1731 C1739 0.950 . S
H1732 C1737 0.950 . S
H1733 C1738 0.949 1_655 S
H1734 C1740 0.950 1_655 S
H1735 C1741 0.950 1_655 S
H1736 C1742 0.949 . S
C1737 H1732 0.950 . S
C1737 C1739 1.327 . S
C1737 C1743 1.429 . S
C1738 C1730 1.574 . S
C1738 H1733 0.949 1_455 S
C1738 C1744 1.368 . S
C1739 C1723 1.349 . S
C1739 H1731 0.950 . S
C1739 C1737 1.327 . S
C1740 C1728 1.349 . S
C1740 H1734 0.950 1_455 S
C1740 C1741 1.327 . S
C1741 H1735 0.950 1_455 S
C1741 C1740 1.327 . S
C1741 C1745 1.429 . S
C1742 C1725 1.574 . S
C1742 H1736 0.949 . S
C1742 C1746 1.368 . S
C1743 C1724 1.429 . S
C1743 C1737 1.429 . S
C1743 C1744 1.523 . S
C1744 C1725 1.368 . S
C1744 C1738 1.368 . S
C1744 C1743 1.523 . S
C1745 C1729 1.429 . S
C1745 C1741 1.429 . S
C1745 C1746 1.523 . S
C1746 C1730 1.368 . S
C1746 C1742 1.368 . S
C1746 C1745 1.523 . S
H1747 C1722 0.950 1_655 S
H1748 C1724 0.950 1_655 S
H1749 C1725 0.949 . S
H1750 C1727 0.950 . S
H1751 C1729 0.950 . S
C1752 C1753 1.345 . S
C1752 C1754 1.327 . S
C1752 H1777 0.950 . S
C1753 C1752 1.345 . S
C1753 C1769 1.353 1_545 S
C1754 C1752 1.327 . S
C1754 C1773 1.428 . S
C1754 H1778 0.950 . S
C1755 C1772 1.574 . S
C1755 C1774 1.367 1_565 S
C1755 H1779 0.949 . S
H1756 C1760 0.949 . S
C1757 C1758 1.341 1_565 S
C1757 C1759 1.327 . S
C1757 H1780 0.950 . S
C1758 C1757 1.341 1_545 S
C1758 C1770 1.357 . S
C1759 C1757 1.327 . S
C1759 C1775 1.423 1_565 S
C1759 H1781 0.950 . S
C1760 H1756 0.949 . S
C1760 C1768 1.574 . S
C1760 C1776 1.372 . S
H1761 C1769 0.950 . S
H1762 C1767 0.950 . S
H1763 C1768 0.949 . S
H1764 C1770 0.950 . S
H1765 C1771 0.950 . S
H1766 C1772 0.949 . S
C1767 H1762 0.950 . S
C1767 C1769 1.327 . S
C1767 C1773 1.429 1_565 S
C1768 C1760 1.574 . S
C1768 H1763 0.949 . S
C1768 C1774 1.369 . S
C1769 C1753 1.353 1_565 S
C1769 H1761 0.950 . S
C1769 C1767 1.327 . S
C1770 C1758 1.357 . S
C1770 H1764 0.950 . S
C1770 C1771 1.327 . S
C1771 H1765 0.950 . S
C1771 C1770 1.327 . S
C1771 C1775 1.434 . S
C1772 C1755 1.574 . S
C1772 H1766 0.949 . S
C1772 C1776 1.364 1_565 S
C1773 C1754 1.428 . S
C1773 C1767 1.429 1_545 S
C1773 C1774 1.523 . S
C1774 C1755 1.367 1_545 S
C1774 C1768 1.369 . S
C1774 C1773 1.523 . S
C1775 C1759 1.423 1_545 S
C1775 C1771 1.434 . S
C1775 C1776 1.523 . S
C1776 C1760 1.372 . S
C1776 C1772 1.364 1_545 S
C1776 C1775 1.523 . S
H1777 C1752 0.950 . S
H1778 C1754 0.950 . S
H1779 C1755 0.949 . S
H1780 C1757 0.950 . S
H1781 C1759 0.950 . S
C1782 C1783 1.349 . S
C1782 C1784 1.327 . S
C1782 H1807 0.950 . S
C1783 C1782 1.349 . S
C1783 C1799 1.349 . S
C1784 C1782 1.327 . S
C1784 C1803 1.429 . S
C1784 H1808 0.950 . S
C1785 C1802 1.574 . S
C1785 C1804 1.368 . S
C1785 H1809 0.949 . S
H1786 C1790 0.949 . S
C1787 C1788 1.349 . S
C1787 C1789 1.327 . S
C1787 H1810 0.950 . S
C1788 C1787 1.349 . S
C1788 C1800 1.349 . S
C1789 C1787 1.327 . S
C1789 C1805 1.429 . S
C1789 H1811 0.950 . S
C1790 H1786 0.949 . S
C1790 C1798 1.574 . S
C1790 C1806 1.368 . S
H1791 C1799 0.950 . S
H1792 C1797 0.950 . S
H1793 C1798 0.949 . S
H1794 C1800 0.950 . S
H1795 C1801 0.950 . S
H1796 C1802 0.949 . S
C1797 H1792 0.950 . S
C1797 C1799 1.327 . S
C1797 C1803 1.429 . S
C1798 C1790 1.574 . S
C1798 H1793 0.949 . S
C1798 C1804 1.368 . S
C1799 C1783 1.349 . S
C1799 H1791 0.950 . S
C1799 C1797 1.327 . S
C1800 C1788 1.349 . S
C1800 H1794 0.950 . S
C1800 C1801 1.327 . S
C1801 H1795 0.950 . S
C1801 C1800 1.327 . S
C1801 C1805 1.429 . S
C1802 C1785 1.574 . S
C1802 H1796 0.949 . S
C1802 C1806 1.368 . S
C1803 C1784 1.429 . S
C1803 C1797 1.429 . S
C1803 C1804 1.523 . S
C1804 C1785 1.368 . S
C1804 C1798 1.368 . S
C1804 C1803 1.523 . S
C1805 C1789 1.429 . S
C1805 C1801 1.429 . S
C1805 C1806 1.523 . S
C1806 C1790 1.368 . S
C1806 C1802 1.368 . S
C1806 C1805 1.523 . S
H1807 C1782 0.950 . S
H1808 C1784 0.950 . S
H1809 C1785 0.949 . S
H1810 C1787 0.950 . S
H1811 C1789 0.950 . S
C1812 C1813 1.346 . S
C1812 C1814 1.327 . S
C1812 H1837 0.950 . S
C1813 C1812 1.346 . S
C1813 C1829 1.352 1_554 S
C1814 C1812 1.327 . S
C1814 C1833 1.430 . S
C1814 H1838 0.950 . S
C1815 C1832 1.574 . S
C1815 C1834 1.365 1_556 S
C1815 H1839 0.949 . S
H1816 C1820 0.949 . S
C1817 C1818 1.335 1_556 S
C1817 C1819 1.327 . S
C1817 H1840 0.950 . S
C1818 C1817 1.335 1_554 S
C1818 C1830 1.363 . S
C1819 C1817 1.327 . S
C1819 C1835 1.419 1_556 S
C1819 H1841 0.950 . S
C1820 H1816 0.949 . S
C1820 C1828 1.574 . S
C1820 C1836 1.376 . S
H1821 C1829 0.950 . S
H1822 C1827 0.950 . S
H1823 C1828 0.949 . S
H1824 C1830 0.950 . S
H1825 C1831 0.950 . S
H1826 C1832 0.949 . S
C1827 H1822 0.950 . S
C1827 C1829 1.327 . S
C1827 C1833 1.428 1_556 S
C1828 C1820 1.574 . S
C1828 H1823 0.949 . S
C1828 C1834 1.372 . S
C1829 C1813 1.352 1_556 S
C1829 H1821 0.950 . S
C1829 C1827 1.327 . S
C1830 C1818 1.363 . S
C1830 H1824 0.950 . S
C1830 C1831 1.327 . S
C1831 H1825 0.950 . S
C1831 C1830 1.327 . S
C1831 C1835 1.438 . S
C1832 C1815 1.574 . S
C1832 H1826 0.949 . S
C1832 C1836 1.360 1_556 S
C1833 C1814 1.430 . S
C1833 C1827 1.428 1_554 S
C1833 C1834 1.523 . S
C1834 C1815 1.365 1_554 S
C1834 C1828 1.372 . S
C1834 C1833 1.523 . S
C1835 C1819 1.419 1_554 S
C1835 C1831 1.438 . S
C1835 C1836 1.523 . S
C1836 C1820 1.376 . S
C1836 C1832 1.360 1_554 S
C1836 C1835 1.523 . S
H1837 C1812 0.950 . S
H1838 C1814 0.950 . S
H1839 C1815 0.949 . S
H1840 C1817 0.950 . S
H1841 C1819 0.950 . S
C1842 C1843 1.349 . S
C1842 C1844 1.327 . S
C1842 H1867 0.950 . S
C1843 C1842 1.349 . S
C1843 C1859 1.349 1_554 S
C1844 C1842 1.327 . S
C1844 C1863 1.464 . S
C1844 H1868 0.950 . S
C1845 C1862 1.574 . S
C1845 C1864 1.333 1_556 S
C1845 H1869 0.949 . S
H1846 C1850 0.949 . S
C1847 C1848 1.326 1_556 S
C1847 C1849 1.327 . S
C1847 H1870 0.950 . S
C1848 C1847 1.326 1_554 S
C1848 C1860 1.372 . S
C1849 C1847 1.327 . S
C1849 C1865 1.402 1_556 S
C1849 H1871 0.950 . S
C1850 H1846 0.949 . S
C1850 C1858 1.574 . S
C1850 C1866 1.400 . S
H1851 C1859 0.950 . S
H1852 C1857 0.950 . S
H1853 C1858 0.949 . S
H1854 C1860 0.950 . S
H1855 C1861 0.950 . S
H1856 C1862 0.949 . S
C1857 H1852 0.950 . S
C1857 C1859 1.327 . S
C1857 C1863 1.394 1_556 S
C1858 C1850 1.574 . S
C1858 H1853 0.949 . S
C1858 C1864 1.405 . S
C1859 C1843 1.349 1_556 S
C1859 H1851 0.950 . S
C1859 C1857 1.327 . S
C1860 C1848 1.372 . S
C1860 H1854 0.950 . S
C1860 C1861 1.327 . S
C1861 H1855 0.950 . S
C1861 C1860 1.327 . S
C1861 C1865 1.455 . S
C1862 C1845 1.574 . S
C1862 H1856 0.949 . S
C1862 C1866 1.337 1_556 S
C1863 C1844 1.464 . S
C1863 C1857 1.394 1_554 S
C1863 C1864 1.523 . S
C1864 C1845 1.333 1_554 S
C1864 C1858 1.405 . S
C1864 C1863 1.523 . S
C1865 C1849 1.402 1_554 S
C1865 C1861 1.455 . S
C1865 C1866 1.523 . S
C1866 C1850 1.400 . S
C1866 C1862 1.337 1_554 S
C1866 C1865 1.523 . S
H1867 C1842 0.950 . S
H1868 C1844 0.950 . S
H1869 C1845 0.949 . S
H1870 C1847 0.950 . S
H1871 C1849 0.950 . S
C1872 C1873 1.345 . S
C1872 C1874 1.327 . S
C1872 H1897 0.950 . S
C1873 C1872 1.345 . S
C1873 C1889 1.352 1_554 S
C1874 C1872 1.327 . S
C1874 C1893 1.428 . S
C1874 H1898 0.950 . S
C1875 C1892 1.574 . S
C1875 C1894 1.368 1_556 S
C1875 H1899 0.949 . S
H1876 C1880 0.949 . S
C1877 C1878 1.341 1_556 S
C1877 C1879 1.327 . S
C1877 H1900 0.950 . S
C1878 C1877 1.341 1_554 S
C1878 C1890 1.357 . S
C1879 C1877 1.327 . S
C1879 C1895 1.424 1_556 S
C1879 H1901 0.950 . S
C1880 H1876 0.949 . S
C1880 C1888 1.574 . S
C1880 C1896 1.372 . S
H1881 C1889 0.950 . S
H1882 C1887 0.950 . S
H1883 C1888 0.949 . S
H1884 C1890 0.950 . S
H1885 C1891 0.950 . S
H1886 C1892 0.949 . S
C1887 H1882 0.950 . S
C1887 C1889 1.327 . S
C1887 C1893 1.429 1_556 S
C1888 C1880 1.574 . S
C1888 H1883 0.949 . S
C1888 C1894 1.369 . S
C1889 C1873 1.352 1_556 S
C1889 H1881 0.950 . S
C1889 C1887 1.327 . S
C1890 C1878 1.357 . S
C1890 H1884 0.950 . S
C1890 C1891 1.327 . S
C1891 H1885 0.950 . S
C1891 C1890 1.327 . S
C1891 C1895 1.433 . S
C1892 C1875 1.574 . S
C1892 H1886 0.949 . S
C1892 C1896 1.365 1_556 S
C1893 C1874 1.428 . S
C1893 C1887 1.429 1_554 S
C1893 C1894 1.523 . S
C1894 C1875 1.368 1_554 S
C1894 C1888 1.369 . S
C1894 C1893 1.523 . S
C1895 C1879 1.424 1_554 S
C1895 C1891 1.433 . S
C1895 C1896 1.523 . S
C1896 C1880 1.372 . S
C1896 C1892 1.365 1_554 S
C1896 C1895 1.523 . S
H1897 C1872 0.950 . S
H1898 C1874 0.950 . S
H1899 C1875 0.949 . S
H1900 C1877 0.950 . S
H1901 C1879 0.950 . S
C1902 C1903 1.346 . S
C1902 C1904 1.327 . S
C1902 H1927 0.950 . S
C1903 C1902 1.346 . S
C1903 C1919 1.352 1_554 S
C1904 C1902 1.327 . S
C1904 C1923 1.430 . S
C1904 H1928 0.950 . S
C1905 C1922 1.574 . S
C1905 C1924 1.365 1_556 S
C1905 H1929 0.949 . S
H1906 C1910 0.949 . S
C1907 C1908 1.335 1_556 S
C1907 C1909 1.327 . S
C1907 H1930 0.950 . S
C1908 C1907 1.335 1_554 S
C1908 C1920 1.362 . S
C1909 C1907 1.327 . S
C1909 C1925 1.419 1_556 S
C1909 H1931 0.950 . S
C1910 H1906 0.949 . S
C1910 C1918 1.574 . S
C1910 C1926 1.376 . S
H1911 C1919 0.950 . S
H1912 C1917 0.950 . S
H1913 C1918 0.949 . S
H1914 C1920 0.950 . S
H1915 C1921 0.950 . S
H1916 C1922 0.949 . S
C1917 H1912 0.950 . S
C1917 C1919 1.327 . S
C1917 C1923 1.427 1_556 S
C1918 C1910 1.574 . S
C1918 H1913 0.949 . S
C1918 C1924 1.372 . S
C1919 C1903 1.352 1_556 S
C1919 H1911 0.950 . S
C1919 C1917 1.327 . S
C1920 C1908 1.362 . S
C1920 H1914 0.950 . S
C1920 C1921 1.327 . S
C1921 H1915 0.950 . S
C1921 C1920 1.327 . S
C1921 C1925 1.438 . S
C1922 C1905 1.574 . S
C1922 H1916 0.949 . S
C1922 C1926 1.361 1_556 S
C1923 C1904 1.430 . S
C1923 C1917 1.427 1_554 S
C1923 C1924 1.523 . S
C1924 C1905 1.365 1_554 S
C1924 C1918 1.372 . S
C1924 C1923 1.523 . S
C1925 C1909 1.419 1_554 S
C1925 C1921 1.438 . S
C1925 C1926 1.523 . S
C1926 C1910 1.376 . S
C1926 C1922 1.361 1_554 S
C1926 C1925 1.523 . S
H1927 C1902 0.950 . S
H1928 C1904 0.950 . S
H1929 C1905 0.949 . S
H1930 C1907 0.950 . S
H1931 C1909 0.950 . S
C1932 C1933 1.349 . S
C1932 C1934 1.327 . S
C1932 H1957 0.950 . S
C1933 C1932 1.349 . S
C1933 C1949 1.349 1_554 S
C1934 C1932 1.327 . S
C1934 C1953 1.466 . S
C1934 H1958 0.950 . S
C1935 C1952 1.574 . S
C1935 C1954 1.330 1_556 S
C1935 H1959 0.949 . S
H1936 C1940 0.949 . S
C1937 C1938 1.320 1_556 S
C1937 C1939 1.327 . S
C1937 H1960 0.950 . S
C1938 C1937 1.320 1_554 S
C1938 C1950 1.378 . S
C1939 C1937 1.327 . S
C1939 C1955 1.398 1_556 S
C1939 H1961 0.950 . S
C1940 H1936 0.949 . S
C1940 C1948 1.574 . S
C1940 C1956 1.404 . S
H1941 C1949 0.950 . S
H1942 C1947 0.950 . S
H1943 C1948 0.949 . S
H1944 C1950 0.950 . S
H1945 C1951 0.950 . S
H1946 C1952 0.949 . S
C1947 H1942 0.950 . S
C1947 C1949 1.327 . S
C1947 C1953 1.393 1_556 S
C1948 C1940 1.574 . S
C1948 H1943 0.949 . S
C1948 C1954 1.407 . S
C1949 C1933 1.349 1_556 S
C1949 H1941 0.950 . S
C1949 C1947 1.327 . S
C1950 C1938 1.378 . S
C1950 H1944 0.950 . S
C1950 C1951 1.327 . S
C1951 H1945 0.950 . S
C1951 C1950 1.327 . S
C1951 C1955 1.460 . S
C1952 C1935 1.574 . S
C1952 H1946 0.949 . S
C1952 C1956 1.333 1_556 S
C1953 C1934 1.466 . S
C1953 C1947 1.393 1_554 S
C1953 C1954 1.523 . S
C1954 C1935 1.330 1_554 S
C1954 C1948 1.407 . S
C1954 C1953 1.523 . S
C1955 C1939 1.398 1_554 S
C1955 C1951 1.460 . S
C1955 C1956 1.523 . S
C1956 C1940 1.404 . S
C1956 C1952 1.333 1_554 S
C1956 C1955 1.523 . S
H1957 C1932 0.950 . S
H1958 C1934 0.950 . S
H1959 C1935 0.949 . S
H1960 C1937 0.950 . S
H1961 C1939 0.950 . S
C1962 C1963 1.349 . S
C1962 C1964 1.327 . S
C1962 H1987 0.950 . S
C1963 C1962 1.349 . S
C1963 C1979 1.349 1_554 S
C1964 C1962 1.327 . S
C1964 C1983 1.464 . S
C1964 H1988 0.950 . S
C1965 C1982 1.574 . S
C1965 C1984 1.333 1_556 S
C1965 H1989 0.949 . S
H1966 C1970 0.949 . S
C1967 C1968 1.326 1_556 S
C1967 C1969 1.327 . S
C1967 H1990 0.950 . S
C1968 C1967 1.326 1_554 S
C1968 C1980 1.372 . S
C1969 C1967 1.327 . S
C1969 C1985 1.402 1_556 S
C1969 H1991 0.950 . S
C1970 H1966 0.949 . S
C1970 C1978 1.574 . S
C1970 C1986 1.400 . S
H1971 C1979 0.950 . S
H1972 C1977 0.950 . S
H1973 C1978 0.949 . S
H1974 C1980 0.950 . S
H1975 C1981 0.950 . S
H1976 C1982 0.949 . S
C1977 H1972 0.950 . S
C1977 C1979 1.327 . S
C1977 C1983 1.395 1_556 S
C1978 C1970 1.574 . S
C1978 H1973 0.949 . S
C1978 C1984 1.404 . S
C1979 C1963 1.349 1_556 S
C1979 H1971 0.950 . S
C1979 C1977 1.327 . S
C1980 C1968 1.372 . S
C1980 H1974 0.950 . S
C1980 C1981 1.327 . S
C1981 H1975 0.950 . S
C1981 C1980 1.327 . S
C1981 C1985 1.455 . S
C1982 C1965 1.574 . S
C1982 H1976 0.949 . S
C1982 C1986 1.337 1_556 S
C1983 C1964 1.464 . S
C1983 C1977 1.395 1_554 S
C1983 C1984 1.523 . S
C1984 C1965 1.333 1_554 S
C1984 C1978 1.404 . S
C1984 C1983 1.523 . S
C1985 C1969 1.402 1_554 S
C1985 C1981 1.455 . S
C1985 C1986 1.523 . S
C1986 C1970 1.400 . S
C1986 C1982 1.337 1_554 S
C1986 C1985 1.523 . S
H1987 C1962 0.950 . S
H1988 C1964 0.950 . S
H1989 C1965 0.949 . S
H1990 C1967 0.950 . S
H1991 C1969 0.950 . S
C1992 C1993 1.349 . S
C1992 C1994 1.327 . S
C1992 H2017 0.950 . S
C1993 C1992 1.349 . S
C1993 C2009 1.349 1_554 S
C1994 C1992 1.327 . S
C1994 C2013 1.466 . S
C1994 H2018 0.950 . S
C1995 C2012 1.574 . S
C1995 C2014 1.330 1_556 S
C1995 H2019 0.949 . S
H1996 C2000 0.949 . S
C1997 C1998 1.320 1_556 S
C1997 C1999 1.327 . S
C1997 H2020 0.950 . S
C1998 C1997 1.320 1_554 S
C1998 C2010 1.378 . S
C1999 C1997 1.327 . S
C1999 C2015 1.398 1_556 S
C1999 H2021 0.950 . S
C2000 H1996 0.949 . S
C2000 C2008 1.574 . S
C2000 C2016 1.405 . S
H2001 C2009 0.950 . S
H2002 C2007 0.950 . S
H2003 C2008 0.949 . S
H2004 C2010 0.950 . S
H2005 C2011 0.950 . S
H2006 C2012 0.949 . S
C2007 H2002 0.950 . S
C2007 C2009 1.327 . S
C2007 C2013 1.392 1_556 S
C2008 C2000 1.574 . S
C2008 H2003 0.949 . S
C2008 C2014 1.407 . S
C2009 C1993 1.349 1_556 S
C2009 H2001 0.950 . S
C2009 C2007 1.327 . S
C2010 C1998 1.378 . S
C2010 H2004 0.950 . S
C2010 C2011 1.327 . S
C2011 H2005 0.950 . S
C2011 C2010 1.327 . S
C2011 C2015 1.460 . S
C2012 C1995 1.574 . S
C2012 H2006 0.949 . S
C2012 C2016 1.333 1_556 S
C2013 C1994 1.466 . S
C2013 C2007 1.392 1_554 S
C2013 C2014 1.523 . S
C2014 C1995 1.330 1_554 S
C2014 C2008 1.407 . S
C2014 C2013 1.523 . S
C2015 C1999 1.398 1_554 S
C2015 C2011 1.460 . S
C2015 C2016 1.523 . S
C2016 C2000 1.405 . S
C2016 C2012 1.333 1_554 S
C2016 C2015 1.523 . S
H2017 C1992 0.950 . S
H2018 C1994 0.950 . S
H2019 C1995 0.949 . S
H2020 C1997 0.950 . S
H2021 C1999 0.950 . S
C2022 C2023 1.345 . S
C2022 C2024 1.327 . S
C2022 H2047 0.950 . S
C2023 C2022 1.345 . S
C2023 C2039 1.352 1_554 S
C2024 C2022 1.327 . S
C2024 C2043 1.428 . S
C2024 H2048 0.950 . S
C2025 C2042 1.574 . S
C2025 C2044 1.368 1_556 S
C2025 H2049 0.949 . S
H2026 C2030 0.949 . S
C2027 C2028 1.341 1_556 S
C2027 C2029 1.327 . S
C2027 H2050 0.950 . S
C2028 C2027 1.341 1_554 S
C2028 C2040 1.357 . S
C2029 C2027 1.327 . S
C2029 C2045 1.424 1_556 S
C2029 H2051 0.950 . S
C2030 H2026 0.949 . S
C2030 C2038 1.574 . S
C2030 C2046 1.372 . S
H2031 C2039 0.950 . S
H2032 C2037 0.950 . S
H2033 C2038 0.949 . S
H2034 C2040 0.950 . S
H2035 C2041 0.950 . S
H2036 C2042 0.949 . S
C2037 H2032 0.950 . S
C2037 C2039 1.327 . S
C2037 C2043 1.429 1_556 S
C2038 C2030 1.574 . S
C2038 H2033 0.949 . S
C2038 C2044 1.369 . S
C2039 C2023 1.352 1_556 S
C2039 H2031 0.950 . S
C2039 C2037 1.327 . S
C2040 C2028 1.357 . S
C2040 H2034 0.950 . S
C2040 C2041 1.327 . S
C2041 H2035 0.950 . S
C2041 C2040 1.327 . S
C2041 C2045 1.433 . S
C2042 C2025 1.574 . S
C2042 H2036 0.949 . S
C2042 C2046 1.365 1_556 S
C2043 C2024 1.428 . S
C2043 C2037 1.429 1_554 S
C2043 C2044 1.523 . S
C2044 C2025 1.368 1_554 S
C2044 C2038 1.369 . S
C2044 C2043 1.523 . S
C2045 C2029 1.424 1_554 S
C2045 C2041 1.433 . S
C2045 C2046 1.523 . S
C2046 C2030 1.372 . S
C2046 C2042 1.365 1_554 S
C2046 C2045 1.523 . S
H2047 C2022 0.950 . S
H2048 C2024 0.950 . S
H2049 C2025 0.949 . S
H2050 C2027 0.950 . S
H2051 C2029 0.950 . S
C2052 C2053 1.349 . S
C2052 C2054 1.327 . S
C2052 H2077 0.950 . S
C2053 C2052 1.349 . S
C2053 C2069 1.349 . S
C2054 C2052 1.327 . S
C2054 C2073 1.429 . S
C2054 H2078 0.950 . S
C2055 C2072 1.574 . S
C2055 C2074 1.368 . S
C2055 H2079 0.949 . S
H2056 C2060 0.949 . S
C2057 C2058 1.349 . S
C2057 C2059 1.327 . S
C2057 H2080 0.950 . S
C2058 C2057 1.349 . S
C2058 C2070 1.349 . S
C2059 C2057 1.327 . S
C2059 C2075 1.429 . S
C2059 H2081 0.950 . S
C2060 H2056 0.949 . S
C2060 C2068 1.574 . S
C2060 C2076 1.368 . S
H2061 C2069 0.950 . S
H2062 C2067 0.950 . S
H2063 C2068 0.949 . S
H2064 C2070 0.950 . S
H2065 C2071 0.950 . S
H2066 C2072 0.949 . S
C2067 H2062 0.950 . S
C2067 C2069 1.327 . S
C2067 C2073 1.429 . S
C2068 C2060 1.574 . S
C2068 H2063 0.949 . S
C2068 C2074 1.368 . S
C2069 C2053 1.349 . S
C2069 H2061 0.950 . S
C2069 C2067 1.327 . S
C2070 C2058 1.349 . S
C2070 H2064 0.950 . S
C2070 C2071 1.327 . S
C2071 H2065 0.950 . S
C2071 C2070 1.327 . S
C2071 C2075 1.429 . S
C2072 C2055 1.574 . S
C2072 H2066 0.949 . S
C2072 C2076 1.368 . S
C2073 C2054 1.429 . S
C2073 C2067 1.429 . S
C2073 C2074 1.523 . S
C2074 C2055 1.368 . S
C2074 C2068 1.368 . S
C2074 C2073 1.523 . S
C2075 C2059 1.429 . S
C2075 C2071 1.429 . S
C2075 C2076 1.523 . S
C2076 C2060 1.368 . S
C2076 C2072 1.368 . S
C2076 C2075 1.523 . S
H2077 C2052 0.950 . S
H2078 C2054 0.950 . S
H2079 C2055 0.949 . S
H2080 C2057 0.950 . S
H2081 C2059 0.950 . S
C2082 C2083 1.349 . S
C2082 C2084 1.327 . S
C2082 H2107 0.950 . S
C2083 C2082 1.349 . S
C2083 C2099 1.349 . S
C2084 C2082 1.327 . S
C2084 C2103 1.429 . S
C2084 H2108 0.950 . S
C2085 C2102 1.574 . S
C2085 C2104 1.368 . S
C2085 H2109 0.949 . S
H2086 C2090 0.949 . S
C2087 C2088 1.349 . S
C2087 C2089 1.327 . S
C2087 H2110 0.950 . S
C2088 C2087 1.349 . S
C2088 C2100 1.349 . S
C2089 C2087 1.327 . S
C2089 C2105 1.429 . S
C2089 H2111 0.950 . S
C2090 H2086 0.949 . S
C2090 C2098 1.574 . S
C2090 C2106 1.368 . S
H2091 C2099 0.950 . S
H2092 C2097 0.950 . S
H2093 C2098 0.949 . S
H2094 C2100 0.950 . S
H2095 C2101 0.950 . S
H2096 C2102 0.949 . S
C2097 H2092 0.950 . S
C2097 C2099 1.327 . S
C2097 C2103 1.429 . S
C2098 C2090 1.574 . S
C2098 H2093 0.949 . S
C2098 C2104 1.368 . S
C2099 C2083 1.349 . S
C2099 H2091 0.950 . S
C2099 C2097 1.327 . S
C2100 C2088 1.349 . S
C2100 H2094 0.950 . S
C2100 C2101 1.327 . S
C2101 H2095 0.950 . S
C2101 C2100 1.327 . S
C2101 C2105 1.429 . S
C2102 C2085 1.574 . S
C2102 H2096 0.949 . S
C2102 C2106 1.368 . S
C2103 C2084 1.429 . S
C2103 C2097 1.429 . S
C2103 C2104 1.523 . S
C2104 C2085 1.368 . S
C2104 C2098 1.368 . S
C2104 C2103 1.523 . S
C2105 C2089 1.429 . S
C2105 C2101 1.429 . S
C2105 C2106 1.523 . S
C2106 C2090 1.368 . S
C2106 C2102 1.368 . S
C2106 C2105 1.523 . S
H2107 C2082 0.950 . S
H2108 C2084 0.950 . S
H2109 C2085 0.949 . S
H2110 C2087 0.950 . S
H2111 C2089 0.950 . S
C2112 C2113 1.349 . S
C2112 C2114 1.327 . S
C2112 H2137 0.950 . S
C2113 C2112 1.349 . S
C2113 C2129 1.349 . S
C2114 C2112 1.327 . S
C2114 C2133 1.429 . S
C2114 H2138 0.950 . S
C2115 C2132 1.574 . S
C2115 C2134 1.368 . S
C2115 H2139 0.949 . S
H2116 C2120 0.949 . S
C2117 C2118 1.349 . S
C2117 C2119 1.327 . S
C2117 H2140 0.950 . S
C2118 C2117 1.349 . S
C2118 C2130 1.349 . S
C2119 C2117 1.327 . S
C2119 C2135 1.429 . S
C2119 H2141 0.950 . S
C2120 H2116 0.949 . S
C2120 C2128 1.574 . S
C2120 C2136 1.368 . S
H2121 C2129 0.950 . S
H2122 C2127 0.950 . S
H2123 C2128 0.949 . S
H2124 C2130 0.950 . S
H2125 C2131 0.950 . S
H2126 C2132 0.949 . S
C2127 H2122 0.950 . S
C2127 C2129 1.327 . S
C2127 C2133 1.429 . S
C2128 C2120 1.574 . S
C2128 H2123 0.949 . S
C2128 C2134 1.368 . S
C2129 C2113 1.349 . S
C2129 H2121 0.950 . S
C2129 C2127 1.327 . S
C2130 C2118 1.349 . S
C2130 H2124 0.950 . S
C2130 C2131 1.327 . S
C2131 H2125 0.950 . S
C2131 C2130 1.327 . S
C2131 C2135 1.429 . S
C2132 C2115 1.574 . S
C2132 H2126 0.949 . S
C2132 C2136 1.368 . S
C2133 C2114 1.429 . S
C2133 C2127 1.429 . S
C2133 C2134 1.523 . S
C2134 C2115 1.368 . S
C2134 C2128 1.368 . S
C2134 C2133 1.523 . S
C2135 C2119 1.429 . S
C2135 C2131 1.429 . S
C2135 C2136 1.523 . S
C2136 C2120 1.368 . S
C2136 C2132 1.368 . S
C2136 C2135 1.523 . S
H2137 C2112 0.950 . S
H2138 C2114 0.950 . S
H2139 C2115 0.949 . S
H2140 C2117 0.950 . S
H2141 C2119 0.950 . S
C2142 C2143 1.349 . S
C2142 C2144 1.327 . S
C2142 H2167 0.950 . S
C2143 C2142 1.349 . S
C2143 C2159 1.349 . S
C2144 C2142 1.327 . S
C2144 C2163 1.429 . S
C2144 H2168 0.950 . S
C2145 C2162 1.574 . S
C2145 C2164 1.368 . S
C2145 H2169 0.949 . S
H2146 C2150 0.949 . S
C2147 C2148 1.349 . S
C2147 C2149 1.327 . S
C2147 H2170 0.950 . S
C2148 C2147 1.349 . S
C2148 C2160 1.349 . S
C2149 C2147 1.327 . S
C2149 C2165 1.429 . S
C2149 H2171 0.950 . S
C2150 H2146 0.949 . S
C2150 C2158 1.574 . S
C2150 C2166 1.368 . S
H2151 C2159 0.950 . S
H2152 C2157 0.950 . S
H2153 C2158 0.949 . S
H2154 C2160 0.950 . S
H2155 C2161 0.950 . S
H2156 C2162 0.949 . S
C2157 H2152 0.950 . S
C2157 C2159 1.327 . S
C2157 C2163 1.429 . S
C2158 C2150 1.574 . S
C2158 H2153 0.949 . S
C2158 C2164 1.368 . S
C2159 C2143 1.349 . S
C2159 H2151 0.950 . S
C2159 C2157 1.327 . S
C2160 C2148 1.349 . S
C2160 H2154 0.950 . S
C2160 C2161 1.327 . S
C2161 H2155 0.950 . S
C2161 C2160 1.327 . S
C2161 C2165 1.429 . S
C2162 C2145 1.574 . S
C2162 H2156 0.949 . S
C2162 C2166 1.368 . S
C2163 C2144 1.429 . S
C2163 C2157 1.429 . S
C2163 C2164 1.523 . S
C2164 C2145 1.368 . S
C2164 C2158 1.368 . S
C2164 C2163 1.523 . S
C2165 C2149 1.429 . S
C2165 C2161 1.429 . S
C2165 C2166 1.523 . S
C2166 C2150 1.368 . S
C2166 C2162 1.368 . S
C2166 C2165 1.523 . S
H2167 C2142 0.950 . S
H2168 C2144 0.950 . S
H2169 C2145 0.949 . S
H2170 C2147 0.950 . S
H2171 C2149 0.950 . S
C2172 C2173 1.349 . S
C2172 C2174 1.327 . S
C2172 H2197 0.950 . S
C2173 C2172 1.349 . S
C2173 C2189 1.349 . S
C2174 C2172 1.327 . S
C2174 C2193 1.429 . S
C2174 H2198 0.950 . S
C2175 C2192 1.574 . S
C2175 C2194 1.368 . S
C2175 H2199 0.949 . S
H2176 C2180 0.949 . S
C2177 C2178 1.349 . S
C2177 C2179 1.327 . S
C2177 H2200 0.950 . S
C2178 C2177 1.349 . S
C2178 C2190 1.349 . S
C2179 C2177 1.327 . S
C2179 C2195 1.429 . S
C2179 H2201 0.950 . S
C2180 H2176 0.949 . S
C2180 C2188 1.574 . S
C2180 C2196 1.368 . S
H2181 C2189 0.950 . S
H2182 C2187 0.950 . S
H2183 C2188 0.949 . S
H2184 C2190 0.950 . S
H2185 C2191 0.950 . S
H2186 C2192 0.949 . S
C2187 H2182 0.950 . S
C2187 C2189 1.327 . S
C2187 C2193 1.429 . S
C2188 C2180 1.574 . S
C2188 H2183 0.949 . S
C2188 C2194 1.368 . S
C2189 C2173 1.349 . S
C2189 H2181 0.950 . S
C2189 C2187 1.327 . S
C2190 C2178 1.349 . S
C2190 H2184 0.950 . S
C2190 C2191 1.327 . S
C2191 H2185 0.950 . S
C2191 C2190 1.327 . S
C2191 C2195 1.429 . S
C2192 C2175 1.574 . S
C2192 H2186 0.949 . S
C2192 C2196 1.368 . S
C2193 C2174 1.429 . S
C2193 C2187 1.429 . S
C2193 C2194 1.523 . S
C2194 C2175 1.368 . S
C2194 C2188 1.368 . S
C2194 C2193 1.523 . S
C2195 C2179 1.429 . S
C2195 C2191 1.429 . S
C2195 C2196 1.523 . S
C2196 C2180 1.368 . S
C2196 C2192 1.368 . S
C2196 C2195 1.523 . S
H2197 C2172 0.950 . S
H2198 C2174 0.950 . S
H2199 C2175 0.949 . S
H2200 C2177 0.950 . S
H2201 C2179 0.950 . S
C2202 C2203 1.349 . S
C2202 C2204 1.327 . S
C2202 H2227 0.950 . S
C2203 C2202 1.349 . S
C2203 C2219 1.349 . S
C2204 C2202 1.327 . S
C2204 C2223 1.429 . S
C2204 H2228 0.950 . S
C2205 C2222 1.574 . S
C2205 C2224 1.368 . S
C2205 H2229 0.949 . S
H2206 C2210 0.949 . S
C2207 C2208 1.349 . S
C2207 C2209 1.327 . S
C2207 H2230 0.950 . S
C2208 C2207 1.349 . S
C2208 C2220 1.349 . S
C2209 C2207 1.327 . S
C2209 C2225 1.429 . S
C2209 H2231 0.950 . S
C2210 H2206 0.949 . S
C2210 C2218 1.574 . S
C2210 C2226 1.368 . S
H2211 C2219 0.950 . S
H2212 C2217 0.950 . S
H2213 C2218 0.949 . S
H2214 C2220 0.950 . S
H2215 C2221 0.950 . S
H2216 C2222 0.949 . S
C2217 H2212 0.950 . S
C2217 C2219 1.327 . S
C2217 C2223 1.429 . S
C2218 C2210 1.574 . S
C2218 H2213 0.949 . S
C2218 C2224 1.368 . S
C2219 C2203 1.349 . S
C2219 H2211 0.950 . S
C2219 C2217 1.327 . S
C2220 C2208 1.349 . S
C2220 H2214 0.950 . S
C2220 C2221 1.327 . S
C2221 H2215 0.950 . S
C2221 C2220 1.327 . S
C2221 C2225 1.429 . S
C2222 C2205 1.574 . S
C2222 H2216 0.949 . S
C2222 C2226 1.368 . S
C2223 C2204 1.429 . S
C2223 C2217 1.429 . S
C2223 C2224 1.523 . S
C2224 C2205 1.368 . S
C2224 C2218 1.368 . S
C2224 C2223 1.523 . S
C2225 C2209 1.429 . S
C2225 C2221 1.429 . S
C2225 C2226 1.523 . S
C2226 C2210 1.368 . S
C2226 C2222 1.368 . S
C2226 C2225 1.523 . S
H2227 C2202 0.950 . S
H2228 C2204 0.950 . S
H2229 C2205 0.949 . S
H2230 C2207 0.950 . S
H2231 C2209 0.950 . S
C2232 C2233 1.349 . S
C2232 C2234 1.327 . S
C2232 H2257 0.950 . S
C2233 C2232 1.349 . S
C2233 C2249 1.349 . S
C2234 C2232 1.327 . S
C2234 C2253 1.429 . S
C2234 H2258 0.950 . S
C2235 C2252 1.574 . S
C2235 C2254 1.368 . S
C2235 H2259 0.949 . S
H2236 C2240 0.949 . S
C2237 C2238 1.349 . S
C2237 C2239 1.327 . S
C2237 H2260 0.950 . S
C2238 C2237 1.349 . S
C2238 C2250 1.349 . S
C2239 C2237 1.327 . S
C2239 C2255 1.429 . S
C2239 H2261 0.950 . S
C2240 H2236 0.949 . S
C2240 C2248 1.574 . S
C2240 C2256 1.368 . S
H2241 C2249 0.950 . S
H2242 C2247 0.950 . S
H2243 C2248 0.949 . S
H2244 C2250 0.950 . S
H2245 C2251 0.950 . S
H2246 C2252 0.949 . S
C2247 H2242 0.950 . S
C2247 C2249 1.327 . S
C2247 C2253 1.429 . S
C2248 C2240 1.574 . S
C2248 H2243 0.949 . S
C2248 C2254 1.368 . S
C2249 C2233 1.349 . S
C2249 H2241 0.950 . S
C2249 C2247 1.327 . S
C2250 C2238 1.349 . S
C2250 H2244 0.950 . S
C2250 C2251 1.327 . S
C2251 H2245 0.950 . S
C2251 C2250 1.327 . S
C2251 C2255 1.429 . S
C2252 C2235 1.574 . S
C2252 H2246 0.949 . S
C2252 C2256 1.368 . S
C2253 C2234 1.429 . S
C2253 C2247 1.429 . S
C2253 C2254 1.523 . S
C2254 C2235 1.368 . S
C2254 C2248 1.368 . S
C2254 C2253 1.523 . S
C2255 C2239 1.429 . S
C2255 C2251 1.429 . S
C2255 C2256 1.523 . S
C2256 C2240 1.368 . S
C2256 C2252 1.368 . S
C2256 C2255 1.523 . S
H2257 C2232 0.950 . S
H2258 C2234 0.950 . S
H2259 C2235 0.949 . S
H2260 C2237 0.950 . S
H2261 C2239 0.950 . S
C2262 C2263 1.349 . S
C2262 C2264 1.327 . S
C2262 H2287 0.950 . S
C2263 C2262 1.349 . S
C2263 C2279 1.349 . S
C2264 C2262 1.327 . S
C2264 C2283 1.429 . S
C2264 H2288 0.950 . S
C2265 C2282 1.574 . S
C2265 C2284 1.368 . S
C2265 H2289 0.949 . S
H2266 C2270 0.949 . S
C2267 C2268 1.349 . S
C2267 C2269 1.327 . S
C2267 H2290 0.950 . S
C2268 C2267 1.349 . S
C2268 C2280 1.349 . S
C2269 C2267 1.327 . S
C2269 C2285 1.429 . S
C2269 H2291 0.950 . S
C2270 H2266 0.949 . S
C2270 C2278 1.574 . S
C2270 C2286 1.368 . S
H2271 C2279 0.950 . S
H2272 C2277 0.950 . S
H2273 C2278 0.949 . S
H2274 C2280 0.950 . S
H2275 C2281 0.950 . S
H2276 C2282 0.949 . S
C2277 H2272 0.950 . S
C2277 C2279 1.327 . S
C2277 C2283 1.429 . S
C2278 C2270 1.574 . S
C2278 H2273 0.949 . S
C2278 C2284 1.368 . S
C2279 C2263 1.349 . S
C2279 H2271 0.950 . S
C2279 C2277 1.327 . S
C2280 C2268 1.349 . S
C2280 H2274 0.950 . S
C2280 C2281 1.327 . S
C2281 H2275 0.950 . S
C2281 C2280 1.327 . S
C2281 C2285 1.429 . S
C2282 C2265 1.574 . S
C2282 H2276 0.949 . S
C2282 C2286 1.368 . S
C2283 C2264 1.429 . S
C2283 C2277 1.429 . S
C2283 C2284 1.523 . S
C2284 C2265 1.368 . S
C2284 C2278 1.368 . S
C2284 C2283 1.523 . S
C2285 C2269 1.429 . S
C2285 C2281 1.429 . S
C2285 C2286 1.523 . S
C2286 C2270 1.368 . S
C2286 C2282 1.368 . S
C2286 C2285 1.523 . S
H2287 C2262 0.950 . S
H2288 C2264 0.950 . S
H2289 C2265 0.949 . S
H2290 C2267 0.950 . S
H2291 C2269 0.950 . S
C2292 C2293 1.349 . S
C2292 C2294 1.327 . S
C2292 H2317 0.950 . S
C2293 C2292 1.349 . S
C2293 C2309 1.349 . S
C2294 C2292 1.327 . S
C2294 C2313 1.429 . S
C2294 H2318 0.950 . S
C2295 C2312 1.574 . S
C2295 C2314 1.368 . S
C2295 H2319 0.949 . S
H2296 C2300 0.949 . S
C2297 C2298 1.349 . S
C2297 C2299 1.327 . S
C2297 H2320 0.950 . S
C2298 C2297 1.349 . S
C2298 C2310 1.349 . S
C2299 C2297 1.327 . S
C2299 C2315 1.429 . S
C2299 H2321 0.950 . S
C2300 H2296 0.949 . S
C2300 C2308 1.574 . S
C2300 C2316 1.368 . S
H2301 C2309 0.950 . S
H2302 C2307 0.950 . S
H2303 C2308 0.949 . S
H2304 C2310 0.950 . S
H2305 C2311 0.950 . S
H2306 C2312 0.949 . S
C2307 H2302 0.950 . S
C2307 C2309 1.327 . S
C2307 C2313 1.429 . S
C2308 C2300 1.574 . S
C2308 H2303 0.949 . S
C2308 C2314 1.368 . S
C2309 C2293 1.349 . S
C2309 H2301 0.950 . S
C2309 C2307 1.327 . S
C2310 C2298 1.349 . S
C2310 H2304 0.950 . S
C2310 C2311 1.327 . S
C2311 H2305 0.950 . S
C2311 C2310 1.327 . S
C2311 C2315 1.429 . S
C2312 C2295 1.574 . S
C2312 H2306 0.949 . S
C2312 C2316 1.368 . S
C2313 C2294 1.429 . S
C2313 C2307 1.429 . S
C2313 C2314 1.523 . S
C2314 C2295 1.368 . S
C2314 C2308 1.368 . S
C2314 C2313 1.523 . S
C2315 C2299 1.429 . S
C2315 C2311 1.429 . S
C2315 C2316 1.523 . S
C2316 C2300 1.368 . S
C2316 C2312 1.368 . S
C2316 C2315 1.523 . S
H2317 C2292 0.950 . S
H2318 C2294 0.950 . S
H2319 C2295 0.949 . S
H2320 C2297 0.950 . S
H2321 C2299 0.950 . S
C2322 C2323 1.349 . S
C2322 C2324 1.327 . S
C2322 H2347 0.950 . S
C2323 C2322 1.349 . S
C2323 C2339 1.349 . S
C2324 C2322 1.327 . S
C2324 C2343 1.429 . S
C2324 H2348 0.950 . S
C2325 C2342 1.574 . S
C2325 C2344 1.368 . S
C2325 H2349 0.949 . S
H2326 C2330 0.949 . S
C2327 C2328 1.349 . S
C2327 C2329 1.327 . S
C2327 H2350 0.950 . S
C2328 C2327 1.349 . S
C2328 C2340 1.349 . S
C2329 C2327 1.327 . S
C2329 C2345 1.429 . S
C2329 H2351 0.950 . S
C2330 H2326 0.949 . S
C2330 C2338 1.574 . S
C2330 C2346 1.368 . S
H2331 C2339 0.950 . S
H2332 C2337 0.950 . S
H2333 C2338 0.949 . S
H2334 C2340 0.950 . S
H2335 C2341 0.950 . S
H2336 C2342 0.949 . S
C2337 H2332 0.950 . S
C2337 C2339 1.327 . S
C2337 C2343 1.429 . S
C2338 C2330 1.574 . S
C2338 H2333 0.949 . S
C2338 C2344 1.368 . S
C2339 C2323 1.349 . S
C2339 H2331 0.950 . S
C2339 C2337 1.327 . S
C2340 C2328 1.349 . S
C2340 H2334 0.950 . S
C2340 C2341 1.327 . S
C2341 H2335 0.950 . S
C2341 C2340 1.327 . S
C2341 C2345 1.429 . S
C2342 C2325 1.574 . S
C2342 H2336 0.949 . S
C2342 C2346 1.368 . S
C2343 C2324 1.429 . S
C2343 C2337 1.429 . S
C2343 C2344 1.523 . S
C2344 C2325 1.368 . S
C2344 C2338 1.368 . S
C2344 C2343 1.523 . S
C2345 C2329 1.429 . S
C2345 C2341 1.429 . S
C2345 C2346 1.523 . S
C2346 C2330 1.368 . S
C2346 C2342 1.368 . S
C2346 C2345 1.523 . S
H2347 C2322 0.950 . S
H2348 C2324 0.950 . S
H2349 C2325 0.949 . S
H2350 C2327 0.950 . S
H2351 C2329 0.950 . S
C2352 C2353 1.349 . S
C2352 C2354 1.327 . S
C2352 H2377 0.950 . S
C2353 C2352 1.349 . S
C2353 C2369 1.349 . S
C2354 C2352 1.327 . S
C2354 C2373 1.429 . S
C2354 H2378 0.950 . S
C2355 C2372 1.574 . S
C2355 C2374 1.368 . S
C2355 H2379 0.949 . S
H2356 C2360 0.949 . S
C2357 C2358 1.349 . S
C2357 C2359 1.327 . S
C2357 H2380 0.950 . S
C2358 C2357 1.349 . S
C2358 C2370 1.349 . S
C2359 C2357 1.327 . S
C2359 C2375 1.429 . S
C2359 H2381 0.950 . S
C2360 H2356 0.949 . S
C2360 C2368 1.574 . S
C2360 C2376 1.368 . S
H2361 C2369 0.950 . S
H2362 C2367 0.950 . S
H2363 C2368 0.949 . S
H2364 C2370 0.950 . S
H2365 C2371 0.950 . S
H2366 C2372 0.949 . S
C2367 H2362 0.950 . S
C2367 C2369 1.327 . S
C2367 C2373 1.429 . S
C2368 C2360 1.574 . S
C2368 H2363 0.949 . S
C2368 C2374 1.368 . S
C2369 C2353 1.349 . S
C2369 H2361 0.950 . S
C2369 C2367 1.327 . S
C2370 C2358 1.349 . S
C2370 H2364 0.950 . S
C2370 C2371 1.327 . S
C2371 H2365 0.950 . S
C2371 C2370 1.327 . S
C2371 C2375 1.429 . S
C2372 C2355 1.574 . S
C2372 H2366 0.949 . S
C2372 C2376 1.368 . S
C2373 C2354 1.429 . S
C2373 C2367 1.429 . S
C2373 C2374 1.523 . S
C2374 C2355 1.368 . S
C2374 C2368 1.368 . S
C2374 C2373 1.523 . S
C2375 C2359 1.429 . S
C2375 C2371 1.429 . S
C2375 C2376 1.523 . S
C2376 C2360 1.368 . S
C2376 C2372 1.368 . S
C2376 C2375 1.523 . S
H2377 C2352 0.950 . S
H2378 C2354 0.950 . S
H2379 C2355 0.949 . S
H2380 C2357 0.950 . S
H2381 C2359 0.950 . S
C2382 C2383 1.349 . S
C2382 C2384 1.327 . S
C2382 H2407 0.950 . S
C2383 C2382 1.349 . S
C2383 C2399 1.349 . S
C2384 C2382 1.327 . S
C2384 C2403 1.429 . S
C2384 H2408 0.950 . S
C2385 C2402 1.574 . S
C2385 C2404 1.368 . S
C2385 H2409 0.949 . S
H2386 C2390 0.949 . S
C2387 C2388 1.349 . S
C2387 C2389 1.327 . S
C2387 H2410 0.950 . S
C2388 C2387 1.349 . S
C2388 C2400 1.349 . S
C2389 C2387 1.327 . S
C2389 C2405 1.429 . S
C2389 H2411 0.950 . S
C2390 H2386 0.949 . S
C2390 C2398 1.574 . S
C2390 C2406 1.368 . S
H2391 C2399 0.950 . S
H2392 C2397 0.950 . S
H2393 C2398 0.949 . S
H2394 C2400 0.950 . S
H2395 C2401 0.950 . S
H2396 C2402 0.949 . S
C2397 H2392 0.950 . S
C2397 C2399 1.327 . S
C2397 C2403 1.429 . S
C2398 C2390 1.574 . S
C2398 H2393 0.949 . S
C2398 C2404 1.368 . S
C2399 C2383 1.349 . S
C2399 H2391 0.950 . S
C2399 C2397 1.327 . S
C2400 C2388 1.349 . S
C2400 H2394 0.950 . S
C2400 C2401 1.327 . S
C2401 H2395 0.950 . S
C2401 C2400 1.327 . S
C2401 C2405 1.429 . S
C2402 C2385 1.574 . S
C2402 H2396 0.949 . S
C2402 C2406 1.368 . S
C2403 C2384 1.429 . S
C2403 C2397 1.429 . S
C2403 C2404 1.523 . S
C2404 C2385 1.368 . S
C2404 C2398 1.368 . S
C2404 C2403 1.523 . S
C2405 C2389 1.429 . S
C2405 C2401 1.429 . S
C2405 C2406 1.523 . S
C2406 C2390 1.368 . S
C2406 C2402 1.368 . S
C2406 C2405 1.523 . S
H2407 C2382 0.950 . S
H2408 C2384 0.950 . S
H2409 C2385 0.949 . S
H2410 C2387 0.950 . S
H2411 C2389 0.950 . S
C2412 C2413 1.349 . S
C2412 C2414 1.327 . S
C2412 H2437 0.950 . S
C2413 C2412 1.349 . S
C2413 C2429 1.349 . S
C2414 C2412 1.327 . S
C2414 C2433 1.429 . S
C2414 H2438 0.950 . S
C2415 C2432 1.574 . S
C2415 C2434 1.368 . S
C2415 H2439 0.949 . S
H2416 C2420 0.949 . S
C2417 C2418 1.349 . S
C2417 C2419 1.327 . S
C2417 H2440 0.950 . S
C2418 C2417 1.349 . S
C2418 C2430 1.349 . S
C2419 C2417 1.327 . S
C2419 C2435 1.429 . S
C2419 H2441 0.950 . S
C2420 H2416 0.949 . S
C2420 C2428 1.574 . S
C2420 C2436 1.368 . S
H2421 C2429 0.950 . S
H2422 C2427 0.950 . S
H2423 C2428 0.949 . S
H2424 C2430 0.950 . S
H2425 C2431 0.950 . S
H2426 C2432 0.949 . S
C2427 H2422 0.950 . S
C2427 C2429 1.327 . S
C2427 C2433 1.429 . S
C2428 C2420 1.574 . S
C2428 H2423 0.949 . S
C2428 C2434 1.368 . S
C2429 C2413 1.349 . S
C2429 H2421 0.950 . S
C2429 C2427 1.327 . S
C2430 C2418 1.349 . S
C2430 H2424 0.950 . S
C2430 C2431 1.327 . S
C2431 H2425 0.950 . S
C2431 C2430 1.327 . S
C2431 C2435 1.429 . S
C2432 C2415 1.574 . S
C2432 H2426 0.949 . S
C2432 C2436 1.368 . S
C2433 C2414 1.429 . S
C2433 C2427 1.429 . S
C2433 C2434 1.523 . S
C2434 C2415 1.368 . S
C2434 C2428 1.368 . S
C2434 C2433 1.523 . S
C2435 C2419 1.429 . S
C2435 C2431 1.429 . S
C2435 C2436 1.523 . S
C2436 C2420 1.368 . S
C2436 C2432 1.368 . S
C2436 C2435 1.523 . S
H2437 C2412 0.950 . S
H2438 C2414 0.950 . S
H2439 C2415 0.949 . S
H2440 C2417 0.950 . S
H2441 C2419 0.950 . S
C2442 C2443 1.349 . S
C2442 C2444 1.327 . S
C2442 H2467 0.950 . S
C2443 C2442 1.349 . S
C2443 C2459 1.349 . S
C2444 C2442 1.327 . S
C2444 C2463 1.429 . S
C2444 H2468 0.950 . S
C2445 C2462 1.574 . S
C2445 C2464 1.368 . S
C2445 H2469 0.949 . S
H2446 C2450 0.949 . S
C2447 C2448 1.349 . S
C2447 C2449 1.327 . S
C2447 H2470 0.950 . S
C2448 C2447 1.349 . S
C2448 C2460 1.349 . S
C2449 C2447 1.327 . S
C2449 C2465 1.429 . S
C2449 H2471 0.950 . S
C2450 H2446 0.949 . S
C2450 C2458 1.574 . S
C2450 C2466 1.368 . S
H2451 C2459 0.950 . S
H2452 C2457 0.950 . S
H2453 C2458 0.949 . S
H2454 C2460 0.950 . S
H2455 C2461 0.950 . S
H2456 C2462 0.949 . S
C2457 H2452 0.950 . S
C2457 C2459 1.327 . S
C2457 C2463 1.429 . S
C2458 C2450 1.574 . S
C2458 H2453 0.949 . S
C2458 C2464 1.368 . S
C2459 C2443 1.349 . S
C2459 H2451 0.950 . S
C2459 C2457 1.327 . S
C2460 C2448 1.349 . S
C2460 H2454 0.950 . S
C2460 C2461 1.327 . S
C2461 H2455 0.950 . S
C2461 C2460 1.327 . S
C2461 C2465 1.429 . S
C2462 C2445 1.574 . S
C2462 H2456 0.949 . S
C2462 C2466 1.368 . S
C2463 C2444 1.429 . S
C2463 C2457 1.429 . S
C2463 C2464 1.523 . S
C2464 C2445 1.368 . S
C2464 C2458 1.368 . S
C2464 C2463 1.523 . S
C2465 C2449 1.429 . S
C2465 C2461 1.429 . S
C2465 C2466 1.523 . S
C2466 C2450 1.368 . S
C2466 C2462 1.368 . S
C2466 C2465 1.523 . S
H2467 C2442 0.950 . S
H2468 C2444 0.950 . S
H2469 C2445 0.949 . S
H2470 C2447 0.950 . S
H2471 C2449 0.950 . S
C2472 C2473 1.349 . S
C2472 C2474 1.327 . S
C2472 H2497 0.950 . S
C2473 C2472 1.349 . S
C2473 C2489 1.349 . S
C2474 C2472 1.327 . S
C2474 C2493 1.429 . S
C2474 H2498 0.950 . S
C2475 C2492 1.574 . S
C2475 C2494 1.368 . S
C2475 H2499 0.949 . S
H2476 C2480 0.949 . S
C2477 C2478 1.349 . S
C2477 C2479 1.327 . S
C2477 H2500 0.950 . S
C2478 C2477 1.349 . S
C2478 C2490 1.349 . S
C2479 C2477 1.327 . S
C2479 C2495 1.429 . S
C2479 H2501 0.950 . S
C2480 H2476 0.949 . S
C2480 C2488 1.574 . S
C2480 C2496 1.368 . S
H2481 C2489 0.950 . S
H2482 C2487 0.950 . S
H2483 C2488 0.949 . S
H2484 C2490 0.950 . S
H2485 C2491 0.950 . S
H2486 C2492 0.949 . S
C2487 H2482 0.950 . S
C2487 C2489 1.327 . S
C2487 C2493 1.429 . S
C2488 C2480 1.574 . S
C2488 H2483 0.949 . S
C2488 C2494 1.368 . S
C2489 C2473 1.349 . S
C2489 H2481 0.950 . S
C2489 C2487 1.327 . S
C2490 C2478 1.349 . S
C2490 H2484 0.950 . S
C2490 C2491 1.327 . S
C2491 H2485 0.950 . S
C2491 C2490 1.327 . S
C2491 C2495 1.429 . S
C2492 C2475 1.574 . S
C2492 H2486 0.949 . S
C2492 C2496 1.368 . S
C2493 C2474 1.429 . S
C2493 C2487 1.429 . S
C2493 C2494 1.523 . S
C2494 C2475 1.368 . S
C2494 C2488 1.368 . S
C2494 C2493 1.523 . S
C2495 C2479 1.429 . S
C2495 C2491 1.429 . S
C2495 C2496 1.523 . S
C2496 C2480 1.368 . S
C2496 C2492 1.368 . S
C2496 C2495 1.523 . S
H2497 C2472 0.950 . S
H2498 C2474 0.950 . S
H2499 C2475 0.949 . S
H2500 C2477 0.950 . S
H2501 C2479 0.950 . S
C2502 C2503 1.349 . S
C2502 C2504 1.327 . S
C2502 H2527 0.950 . S
C2503 C2502 1.349 . S
C2503 C2519 1.349 . S
C2504 C2502 1.327 . S
C2504 C2523 1.429 . S
C2504 H2528 0.950 . S
C2505 C2522 1.574 . S
C2505 C2524 1.368 . S
C2505 H2529 0.949 . S
H2506 C2510 0.949 . S
C2507 C2508 1.349 . S
C2507 C2509 1.327 . S
C2507 H2530 0.950 . S
C2508 C2507 1.349 . S
C2508 C2520 1.349 . S
C2509 C2507 1.327 . S
C2509 C2525 1.429 . S
C2509 H2531 0.950 . S
C2510 H2506 0.949 . S
C2510 C2518 1.574 . S
C2510 C2526 1.368 . S
H2511 C2519 0.950 . S
H2512 C2517 0.950 . S
H2513 C2518 0.949 . S
H2514 C2520 0.950 . S
H2515 C2521 0.950 . S
H2516 C2522 0.949 . S
C2517 H2512 0.950 . S
C2517 C2519 1.327 . S
C2517 C2523 1.429 . S
C2518 C2510 1.574 . S
C2518 H2513 0.949 . S
C2518 C2524 1.368 . S
C2519 C2503 1.349 . S
C2519 H2511 0.950 . S
C2519 C2517 1.327 . S
C2520 C2508 1.349 . S
C2520 H2514 0.950 . S
C2520 C2521 1.327 . S
C2521 H2515 0.950 . S
C2521 C2520 1.327 . S
C2521 C2525 1.429 . S
C2522 C2505 1.574 . S
C2522 H2516 0.949 . S
C2522 C2526 1.368 . S
C2523 C2504 1.429 . S
C2523 C2517 1.429 . S
C2523 C2524 1.523 . S
C2524 C2505 1.368 . S
C2524 C2518 1.368 . S
C2524 C2523 1.523 . S
C2525 C2509 1.429 . S
C2525 C2521 1.429 . S
C2525 C2526 1.523 . S
C2526 C2510 1.368 . S
C2526 C2522 1.368 . S
C2526 C2525 1.523 . S
H2527 C2502 0.950 . S
H2528 C2504 0.950 . S
H2529 C2505 0.949 . S
H2530 C2507 0.950 . S
H2531 C2509 0.950 . S
C2532 C2533 1.349 . S
C2532 C2534 1.327 . S
C2532 H2557 0.950 . S
C2533 C2532 1.349 . S
C2533 C2549 1.349 . S
C2534 C2532 1.327 . S
C2534 C2553 1.429 . S
C2534 H2558 0.950 . S
C2535 C2552 1.574 . S
C2535 C2554 1.368 . S
C2535 H2559 0.949 . S
H2536 C2540 0.949 . S
C2537 C2538 1.349 . S
C2537 C2539 1.327 . S
C2537 H2560 0.950 . S
C2538 C2537 1.349 . S
C2538 C2550 1.349 . S
C2539 C2537 1.327 . S
C2539 C2555 1.429 . S
C2539 H2561 0.950 . S
C2540 H2536 0.949 . S
C2540 C2548 1.574 . S
C2540 C2556 1.368 . S
H2541 C2549 0.950 . S
H2542 C2547 0.950 . S
H2543 C2548 0.949 . S
H2544 C2550 0.950 . S
H2545 C2551 0.950 . S
H2546 C2552 0.949 . S
C2547 H2542 0.950 . S
C2547 C2549 1.327 . S
C2547 C2553 1.429 . S
C2548 C2540 1.574 . S
C2548 H2543 0.949 . S
C2548 C2554 1.368 . S
C2549 C2533 1.349 . S
C2549 H2541 0.950 . S
C2549 C2547 1.327 . S
C2550 C2538 1.349 . S
C2550 H2544 0.950 . S
C2550 C2551 1.327 . S
C2551 H2545 0.950 . S
C2551 C2550 1.327 . S
C2551 C2555 1.429 . S
C2552 C2535 1.574 . S
C2552 H2546 0.949 . S
C2552 C2556 1.368 . S
C2553 C2534 1.429 . S
C2553 C2547 1.429 . S
C2553 C2554 1.523 . S
C2554 C2535 1.368 . S
C2554 C2548 1.368 . S
C2554 C2553 1.523 . S
C2555 C2539 1.429 . S
C2555 C2551 1.429 . S
C2555 C2556 1.523 . S
C2556 C2540 1.368 . S
C2556 C2552 1.368 . S
C2556 C2555 1.523 . S
H2557 C2532 0.950 . S
H2558 C2534 0.950 . S
H2559 C2535 0.949 . S
H2560 C2537 0.950 . S
H2561 C2539 0.950 . S
C2562 C2563 1.349 . S
C2562 C2564 1.327 . S
C2562 H2587 0.950 . S
C2563 C2562 1.349 . S
C2563 C2579 1.349 . S
C2564 C2562 1.327 . S
C2564 C2583 1.429 . S
C2564 H2588 0.950 . S
C2565 C2582 1.574 . S
C2565 C2584 1.368 . S
C2565 H2589 0.949 . S
H2566 C2570 0.949 . S
C2567 C2568 1.349 . S
C2567 C2569 1.327 . S
C2567 H2590 0.950 . S
C2568 C2567 1.349 . S
C2568 C2580 1.349 . S
C2569 C2567 1.327 . S
C2569 C2585 1.429 . S
C2569 H2591 0.950 . S
C2570 H2566 0.949 . S
C2570 C2578 1.574 . S
C2570 C2586 1.368 . S
H2571 C2579 0.950 . S
H2572 C2577 0.950 . S
H2573 C2578 0.949 . S
H2574 C2580 0.950 . S
H2575 C2581 0.950 . S
H2576 C2582 0.949 . S
C2577 H2572 0.950 . S
C2577 C2579 1.327 . S
C2577 C2583 1.429 . S
C2578 C2570 1.574 . S
C2578 H2573 0.949 . S
C2578 C2584 1.368 . S
C2579 C2563 1.349 . S
C2579 H2571 0.950 . S
C2579 C2577 1.327 . S
C2580 C2568 1.349 . S
C2580 H2574 0.950 . S
C2580 C2581 1.327 . S
C2581 H2575 0.950 . S
C2581 C2580 1.327 . S
C2581 C2585 1.429 . S
C2582 C2565 1.574 . S
C2582 H2576 0.949 . S
C2582 C2586 1.368 . S
C2583 C2564 1.429 . S
C2583 C2577 1.429 . S
C2583 C2584 1.523 . S
C2584 C2565 1.368 . S
C2584 C2578 1.368 . S
C2584 C2583 1.523 . S
C2585 C2569 1.429 . S
C2585 C2581 1.429 . S
C2585 C2586 1.523 . S
C2586 C2570 1.368 . S
C2586 C2582 1.368 . S
C2586 C2585 1.523 . S
H2587 C2562 0.950 . S
H2588 C2564 0.950 . S
H2589 C2565 0.949 . S
H2590 C2567 0.950 . S
H2591 C2569 0.950 . S
C2592 C2593 1.349 . S
C2592 C2594 1.327 . S
C2592 H2617 0.950 . S
C2593 C2592 1.349 . S
C2593 C2609 1.349 . S
C2594 C2592 1.327 . S
C2594 C2613 1.429 . S
C2594 H2618 0.950 . S
C2595 C2612 1.574 . S
C2595 C2614 1.368 . S
C2595 H2619 0.949 . S
H2596 C2600 0.949 . S
C2597 C2598 1.349 . S
C2597 C2599 1.327 . S
C2597 H2620 0.950 . S
C2598 C2597 1.349 . S
C2598 C2610 1.349 . S
C2599 C2597 1.327 . S
C2599 C2615 1.429 . S
C2599 H2621 0.950 . S
C2600 H2596 0.949 . S
C2600 C2608 1.574 . S
C2600 C2616 1.368 . S
H2601 C2609 0.950 . S
H2602 C2607 0.950 . S
H2603 C2608 0.949 . S
H2604 C2610 0.950 . S
H2605 C2611 0.950 . S
H2606 C2612 0.949 . S
C2607 H2602 0.950 . S
C2607 C2609 1.327 . S
C2607 C2613 1.429 . S
C2608 C2600 1.574 . S
C2608 H2603 0.949 . S
C2608 C2614 1.368 . S
C2609 C2593 1.349 . S
C2609 H2601 0.950 . S
C2609 C2607 1.327 . S
C2610 C2598 1.349 . S
C2610 H2604 0.950 . S
C2610 C2611 1.327 . S
C2611 H2605 0.950 . S
C2611 C2610 1.327 . S
C2611 C2615 1.429 . S
C2612 C2595 1.574 . S
C2612 H2606 0.949 . S
C2612 C2616 1.368 . S
C2613 C2594 1.429 . S
C2613 C2607 1.429 . S
C2613 C2614 1.523 . S
C2614 C2595 1.368 . S
C2614 C2608 1.368 . S
C2614 C2613 1.523 . S
C2615 C2599 1.429 . S
C2615 C2611 1.429 . S
C2615 C2616 1.523 . S
C2616 C2600 1.368 . S
C2616 C2612 1.368 . S
C2616 C2615 1.523 . S
H2617 C2592 0.950 . S
H2618 C2594 0.950 . S
H2619 C2595 0.949 . S
H2620 C2597 0.950 . S
H2621 C2599 0.950 . S
C2622 C2623 1.349 . S
C2622 C2624 1.327 . S
C2622 H2647 0.950 . S
C2623 C2622 1.349 . S
C2623 C2639 1.349 . S
C2624 C2622 1.327 . S
C2624 C2643 1.429 . S
C2624 H2648 0.950 . S
C2625 C2642 1.574 . S
C2625 C2644 1.368 . S
C2625 H2649 0.949 . S
H2626 C2630 0.949 . S
C2627 C2628 1.349 . S
C2627 C2629 1.327 . S
C2627 H2650 0.950 . S
C2628 C2627 1.349 . S
C2628 C2640 1.349 . S
C2629 C2627 1.327 . S
C2629 C2645 1.429 . S
C2629 H2651 0.950 . S
C2630 H2626 0.949 . S
C2630 C2638 1.574 . S
C2630 C2646 1.368 . S
H2631 C2639 0.950 . S
H2632 C2637 0.950 . S
H2633 C2638 0.949 . S
H2634 C2640 0.950 . S
H2635 C2641 0.950 . S
H2636 C2642 0.949 . S
C2637 H2632 0.950 . S
C2637 C2639 1.327 . S
C2637 C2643 1.429 . S
C2638 C2630 1.574 . S
C2638 H2633 0.949 . S
C2638 C2644 1.368 . S
C2639 C2623 1.349 . S
C2639 H2631 0.950 . S
C2639 C2637 1.327 . S
C2640 C2628 1.349 . S
C2640 H2634 0.950 . S
C2640 C2641 1.327 . S
C2641 H2635 0.950 . S
C2641 C2640 1.327 . S
C2641 C2645 1.429 . S
C2642 C2625 1.574 . S
C2642 H2636 0.949 . S
C2642 C2646 1.368 . S
C2643 C2624 1.429 . S
C2643 C2637 1.429 . S
C2643 C2644 1.523 . S
C2644 C2625 1.368 . S
C2644 C2638 1.368 . S
C2644 C2643 1.523 . S
C2645 C2629 1.429 . S
C2645 C2641 1.429 . S
C2645 C2646 1.523 . S
C2646 C2630 1.368 . S
C2646 C2642 1.368 . S
C2646 C2645 1.523 . S
H2647 C2622 0.950 . S
H2648 C2624 0.950 . S
H2649 C2625 0.949 . S
H2650 C2627 0.950 . S
H2651 C2629 0.950 . S
C2652 C2653 1.349 . S
C2652 C2654 1.327 . S
C2652 H2677 0.950 . S
C2653 C2652 1.349 . S
C2653 C2669 1.349 . S
C2654 C2652 1.327 . S
C2654 C2673 1.429 . S
C2654 H2678 0.950 . S
C2655 C2672 1.574 . S
C2655 C2674 1.368 . S
C2655 H2679 0.949 . S
H2656 C2660 0.949 . S
C2657 C2658 1.349 . S
C2657 C2659 1.327 . S
C2657 H2680 0.950 . S
C2658 C2657 1.349 . S
C2658 C2670 1.349 . S
C2659 C2657 1.327 . S
C2659 C2675 1.429 . S
C2659 H2681 0.950 . S
C2660 H2656 0.949 . S
C2660 C2668 1.574 . S
C2660 C2676 1.368 . S
H2661 C2669 0.950 . S
H2662 C2667 0.950 . S
H2663 C2668 0.949 . S
H2664 C2670 0.950 . S
H2665 C2671 0.950 . S
H2666 C2672 0.949 . S
C2667 H2662 0.950 . S
C2667 C2669 1.327 . S
C2667 C2673 1.429 . S
C2668 C2660 1.574 . S
C2668 H2663 0.949 . S
C2668 C2674 1.368 . S
C2669 C2653 1.349 . S
C2669 H2661 0.950 . S
C2669 C2667 1.327 . S
C2670 C2658 1.349 . S
C2670 H2664 0.950 . S
C2670 C2671 1.327 . S
C2671 H2665 0.950 . S
C2671 C2670 1.327 . S
C2671 C2675 1.429 . S
C2672 C2655 1.574 . S
C2672 H2666 0.949 . S
C2672 C2676 1.368 . S
C2673 C2654 1.429 . S
C2673 C2667 1.429 . S
C2673 C2674 1.523 . S
C2674 C2655 1.368 . S
C2674 C2668 1.368 . S
C2674 C2673 1.523 . S
C2675 C2659 1.429 . S
C2675 C2671 1.429 . S
C2675 C2676 1.523 . S
C2676 C2660 1.368 . S
C2676 C2672 1.368 . S
C2676 C2675 1.523 . S
H2677 C2652 0.950 . S
H2678 C2654 0.950 . S
H2679 C2655 0.949 . S
H2680 C2657 0.950 . S
H2681 C2659 0.950 . S
C2682 C2683 1.349 . S
C2682 C2684 1.327 . S
C2682 H2707 0.950 . S
C2683 C2682 1.349 . S
C2683 C2699 1.349 . S
C2684 C2682 1.327 . S
C2684 C2703 1.429 . S
C2684 H2708 0.950 . S
C2685 C2702 1.574 . S
C2685 C2704 1.368 . S
C2685 H2709 0.949 . S
H2686 C2690 0.949 . S
C2687 C2688 1.349 . S
C2687 C2689 1.327 . S
C2687 H2710 0.950 . S
C2688 C2687 1.349 . S
C2688 C2700 1.349 . S
C2689 C2687 1.327 . S
C2689 C2705 1.429 . S
C2689 H2711 0.950 . S
C2690 H2686 0.949 . S
C2690 C2698 1.574 . S
C2690 C2706 1.368 . S
H2691 C2699 0.950 . S
H2692 C2697 0.950 . S
H2693 C2698 0.949 . S
H2694 C2700 0.950 . S
H2695 C2701 0.950 . S
H2696 C2702 0.949 . S
C2697 H2692 0.950 . S
C2697 C2699 1.327 . S
C2697 C2703 1.429 . S
C2698 C2690 1.574 . S
C2698 H2693 0.949 . S
C2698 C2704 1.368 . S
C2699 C2683 1.349 . S
C2699 H2691 0.950 . S
C2699 C2697 1.327 . S
C2700 C2688 1.349 . S
C2700 H2694 0.950 . S
C2700 C2701 1.327 . S
C2701 H2695 0.950 . S
C2701 C2700 1.327 . S
C2701 C2705 1.429 . S
C2702 C2685 1.574 . S
C2702 H2696 0.949 . S
C2702 C2706 1.368 . S
C2703 C2684 1.429 . S
C2703 C2697 1.429 . S
C2703 C2704 1.523 . S
C2704 C2685 1.368 . S
C2704 C2698 1.368 . S
C2704 C2703 1.523 . S
C2705 C2689 1.429 . S
C2705 C2701 1.429 . S
C2705 C2706 1.523 . S
C2706 C2690 1.368 . S
C2706 C2702 1.368 . S
C2706 C2705 1.523 . S
H2707 C2682 0.950 . S
H2708 C2684 0.950 . S
H2709 C2685 0.949 . S
H2710 C2687 0.950 . S
H2711 C2689 0.950 . S
C2712 C2713 1.349 . S
C2712 C2714 1.327 . S
C2712 H2737 0.950 . S
C2713 C2712 1.349 . S
C2713 C2729 1.349 . S
C2714 C2712 1.327 . S
C2714 C2733 1.429 . S
C2714 H2738 0.950 . S
C2715 C2732 1.574 . S
C2715 C2734 1.368 . S
C2715 H2739 0.949 . S
H2716 C2720 0.949 . S
C2717 C2718 1.349 . S
C2717 C2719 1.327 . S
C2717 H2740 0.950 . S
C2718 C2717 1.349 . S
C2718 C2730 1.349 . S
C2719 C2717 1.327 . S
C2719 C2735 1.429 . S
C2719 H2741 0.950 . S
C2720 H2716 0.949 . S
C2720 C2728 1.574 . S
C2720 C2736 1.368 . S
H2721 C2729 0.950 . S
H2722 C2727 0.950 . S
H2723 C2728 0.949 . S
H2724 C2730 0.950 . S
H2725 C2731 0.950 . S
H2726 C2732 0.949 . S
C2727 H2722 0.950 . S
C2727 C2729 1.327 . S
C2727 C2733 1.429 . S
C2728 C2720 1.574 . S
C2728 H2723 0.949 . S
C2728 C2734 1.368 . S
C2729 C2713 1.349 . S
C2729 H2721 0.950 . S
C2729 C2727 1.327 . S
C2730 C2718 1.349 . S
C2730 H2724 0.950 . S
C2730 C2731 1.327 . S
C2731 H2725 0.950 . S
C2731 C2730 1.327 . S
C2731 C2735 1.429 . S
C2732 C2715 1.574 . S
C2732 H2726 0.949 . S
C2732 C2736 1.368 . S
C2733 C2714 1.429 . S
C2733 C2727 1.429 . S
C2733 C2734 1.523 . S
C2734 C2715 1.368 . S
C2734 C2728 1.368 . S
C2734 C2733 1.523 . S
C2735 C2719 1.429 . S
C2735 C2731 1.429 . S
C2735 C2736 1.523 . S
C2736 C2720 1.368 . S
C2736 C2732 1.368 . S
C2736 C2735 1.523 . S
H2737 C2712 0.950 . S
H2738 C2714 0.950 . S
H2739 C2715 0.949 . S
H2740 C2717 0.950 . S
H2741 C2719 0.950 . S
C2742 C2743 1.349 . S
C2742 C2744 1.327 . S
C2742 H2767 0.950 . S
C2743 C2742 1.349 . S
C2743 C2759 1.349 . S
C2744 C2742 1.327 . S
C2744 C2763 1.429 . S
C2744 H2768 0.950 . S
C2745 C2762 1.574 . S
C2745 C2764 1.368 . S
C2745 H2769 0.949 . S
H2746 C2750 0.949 . S
C2747 C2748 1.349 . S
C2747 C2749 1.327 . S
C2747 H2770 0.950 . S
C2748 C2747 1.349 . S
C2748 C2760 1.349 . S
C2749 C2747 1.327 . S
C2749 C2765 1.429 . S
C2749 H2771 0.950 . S
C2750 H2746 0.949 . S
C2750 C2758 1.574 . S
C2750 C2766 1.368 . S
H2751 C2759 0.950 . S
H2752 C2757 0.950 . S
H2753 C2758 0.949 . S
H2754 C2760 0.950 . S
H2755 C2761 0.950 . S
H2756 C2762 0.949 . S
C2757 H2752 0.950 . S
C2757 C2759 1.327 . S
C2757 C2763 1.429 . S
C2758 C2750 1.574 . S
C2758 H2753 0.949 . S
C2758 C2764 1.368 . S
C2759 C2743 1.349 . S
C2759 H2751 0.950 . S
C2759 C2757 1.327 . S
C2760 C2748 1.349 . S
C2760 H2754 0.950 . S
C2760 C2761 1.327 . S
C2761 H2755 0.950 . S
C2761 C2760 1.327 . S
C2761 C2765 1.429 . S
C2762 C2745 1.574 . S
C2762 H2756 0.949 . S
C2762 C2766 1.368 . S
C2763 C2744 1.429 . S
C2763 C2757 1.429 . S
C2763 C2764 1.523 . S
C2764 C2745 1.368 . S
C2764 C2758 1.368 . S
C2764 C2763 1.523 . S
C2765 C2749 1.429 . S
C2765 C2761 1.429 . S
C2765 C2766 1.523 . S
C2766 C2750 1.368 . S
C2766 C2762 1.368 . S
C2766 C2765 1.523 . S
H2767 C2742 0.950 . S
H2768 C2744 0.950 . S
H2769 C2745 0.949 . S
H2770 C2747 0.950 . S
H2771 C2749 0.950 . S
C618 C318 1.530 . S
C613 C308 1.530 . S
C643 C282 1.301 . S
C648 C316 1.303 . S
C678 C317 1.303 . S
C673 C269 1.301 . S
C703 C295 1.530 . S
C708 C319 1.530 . S
C738 C363 1.468 . S
C733 C217 1.467 . S
C768 C423 1.475 . S
C763 C230 1.474 . S
C793 C243 1.473 . S
C798 C362 1.473 . S
C828 C422 1.258 . S
C823 C256 1.257 . S
C853 C165 1.467 . S
C858 C364 1.468 . S
C888 C420 1.258 . S
C883 C178 1.257 . S
C913 C191 1.473 . S
C918 C365 1.473 . S
C943 C204 1.474 . S
C948 C421 1.475 . S
C978 C471 1.531 . S
C973 C152 1.530 . S
C1003 C126 1.302 . S
C1008 C470 1.303 . S
C1033 C113 1.301 . S
C1038 C472 1.303 . S
C1068 C473 1.531 . S
C1063 C139 1.530 1_554 S
C1093 C61 1.467 . S
C1098 C514 1.468 . S
C1123 C74 1.474 1_545 S
C1128 C573 1.475 . S
C1153 C87 1.473 . S
C1158 C512 1.473 . S
C1183 C100 1.257 1_545 S
C1188 C572 1.258 . S
C1218 C513 1.468 . S
C1213 C9 1.467 . S
C1248 C570 1.258 . S
C1243 C22 1.257 . S
C1273 C35 1.473 . S
C1278 C515 1.473 . S
C1308 C571 1.475 . S
C1303 C48 1.474 . S
C1338 C315 1.455 . S
C1333 C4 1.268 . S
C1363 C21 1.400 . S
C1368 C321 1.441 . S
C1393 C34 1.776 . S
C1398 C313 1.811 . S
C1423 C43 1.126 . S
C1428 C320 1.288 . S
C1453 C56 1.268 . S
C1458 C312 1.455 . S
C1488 C322 1.288 . S
C1483 C69 1.125 1_545 S
C1513 C86 1.776 . S
C1518 C314 1.811 . S
C1548 C323 1.441 . S
C1543 C99 1.400 1_545 S
C1578 C369 1.667 . S
C1573 C47 1.632 . S
C1603 C8 1.703 . S
C1608 C412 1.742 . S
C1638 C367 1.204 . S
C1633 C17 1.055 . S
C1668 C414 1.396 . S
C1663 C30 1.211 . S
C1693 C73 1.632 1_545 S
C1698 C368 1.667 . S
C1728 C413 1.396 . S
C1723 C82 1.211 . S
C1758 C366 1.204 . S
C1753 C95 1.055 1_545 S
C1788 C415 1.742 . S
C1783 C60 1.703 . S
C1818 C419 1.470 . S
C1813 C112 1.428 . S
C1843 C125 1.429 . S
C1848 C418 1.470 . S
C1878 C370 1.389 . S
C1873 C108 1.214 . S
C1908 C417 1.720 . S
C1903 C138 1.684 1_554 S
C1933 C147 1.231 . S
C1938 C373 1.408 . S
C1963 C151 1.684 . S
C1968 C416 1.720 . S
C1998 C372 1.389 . S
C1993 C121 1.214 1_554 S
C2028 C371 1.408 . S
C2023 C134 1.231 1_554 S
C2058 C465 1.455 . S
C2053 C160 1.268 . S
C2088 C468 1.441 . S
C2083 C177 1.401 . S
C2113 C190 1.776 . S
C2118 C464 1.811 . S
C2148 C466 1.288 . S
C2143 C199 1.126 . S
C2178 C462 1.455 . S
C2173 C212 1.268 . S
C2203 C225 1.125 . S
C2208 C467 1.288 . S
C2233 C242 1.776 . S
C2238 C463 1.811 . S
C2268 C469 1.441 . S
C2263 C255 1.400 . S
C2298 C523 1.667 . S
C2293 C203 1.632 . S
C2323 C164 1.703 . S
C2328 C562 1.742 . S
C2358 C522 1.204 . S
C2353 C173 1.055 . S
C2388 C564 1.396 . S
C2383 C186 1.211 . S
C2418 C521 1.667 . S
C2413 C229 1.632 . S
C2443 C238 1.211 . S
C2448 C563 1.396 . S
C2478 C520 1.204 . S
C2473 C251 1.055 . S
C2508 C565 1.742 . S
C2503 C216 1.703 . S
C2538 C569 1.470 . S
C2533 C268 1.428 . S
C2563 C281 1.428 . S
C2568 C568 1.470 . S
C2598 C516 1.389 . S
C2593 C264 1.214 . S
C2623 C294 1.684 . S
C2628 C567 1.720 . S
C2658 C519 1.408 . S
C2653 C303 1.231 . S
C2688 C566 1.720 . S
C2683 C307 1.684 . S
C2718 C517 1.389 . S
C2713 C277 1.214 . S
C2743 C290 1.231 . S
C2748 C518 1.408 . S
