# Generated by pormake.
# Topology ssa, (4,4)-cn, num edge types: 1
# Building blocks:
#     Node 0, Type 0, BuildingBlock: KOZSID_clean_sbu_0, # of connection points: 4
#     Node 1, Type 0, BuildingBlock: KOZSID_clean_sbu_0, # of connection points: 4
#     Node 2, Type 0, BuildingBlock: KOZSID_clean_sbu_0, # of connection points: 4
#     Node 3, Type 0, BuildingBlock: KOZSID_clean_sbu_0, # of connection points: 4
#     Node 4, Type 0, BuildingBlock: KOZSID_clean_sbu_0, # of connection points: 4
#     Node 5, Type 0, BuildingBlock: KOZSID_clean_sbu_0, # of connection points: 4
#     Node 6, Type 1, BuildingBlock: AZAVOO_clean_linker_0, # of connection points: 4
#     Node 7, Type 1, BuildingBlock: AZAVOO_clean_linker_0, # of connection points: 4
#     Node 8, Type 1, BuildingBlock: AZAVOO_clean_linker_0, # of connection points: 4
#     Node 9, Type 1, BuildingBlock: AZAVOO_clean_linker_0, # of connection points: 4
#     Node 10, Type 1, BuildingBlock: AZAVOO_clean_linker_0, # of connection points: 4
#     Node 11, Type 1, BuildingBlock: AZAVOO_clean_linker_0, # of connection points: 4
#     Edge 12, Type (0, 1), BuildingBlock: UVAHIK_clean_linker_0, # of connection points: 2
#     Edge 13, Type (0, 1), BuildingBlock: UVAHIK_clean_linker_0, # of connection points: 2
#     Edge 14, Type (0, 1), BuildingBlock: UVAHIK_clean_linker_0, # of connection points: 2
#     Edge 15, Type (0, 1), BuildingBlock: UVAHIK_clean_linker_0, # of connection points: 2
#     Edge 16, Type (0, 1), BuildingBlock: UVAHIK_clean_linker_0, # of connection points: 2
#     Edge 17, Type (0, 1), BuildingBlock: UVAHIK_clean_linker_0, # of connection points: 2
#     Edge 18, Type (0, 1), BuildingBlock: UVAHIK_clean_linker_0, # of connection points: 2
#     Edge 19, Type (0, 1), BuildingBlock: UVAHIK_clean_linker_0, # of connection points: 2
#     Edge 20, Type (0, 1), BuildingBlock: UVAHIK_clean_linker_0, # of connection points: 2
#     Edge 21, Type (0, 1), BuildingBlock: UVAHIK_clean_linker_0, # of connection points: 2
#     Edge 22, Type (0, 1), BuildingBlock: UVAHIK_clean_linker_0, # of connection points: 2
#     Edge 23, Type (0, 1), BuildingBlock: UVAHIK_clean_linker_0, # of connection points: 2
#     Edge 24, Type (0, 1), BuildingBlock: UVAHIK_clean_linker_0, # of connection points: 2
#     Edge 25, Type (0, 1), BuildingBlock: UVAHIK_clean_linker_0, # of connection points: 2
#     Edge 26, Type (0, 1), BuildingBlock: UVAHIK_clean_linker_0, # of connection points: 2
#     Edge 27, Type (0, 1), BuildingBlock: UVAHIK_clean_linker_0, # of connection points: 2
#     Edge 28, Type (0, 1), BuildingBlock: UVAHIK_clean_linker_0, # of connection points: 2
#     Edge 29, Type (0, 1), BuildingBlock: UVAHIK_clean_linker_0, # of connection points: 2
#     Edge 30, Type (0, 1), BuildingBlock: UVAHIK_clean_linker_0, # of connection points: 2
#     Edge 31, Type (0, 1), BuildingBlock: UVAHIK_clean_linker_0, # of connection points: 2
#     Edge 32, Type (0, 1), BuildingBlock: UVAHIK_clean_linker_0, # of connection points: 2
#     Edge 33, Type (0, 1), BuildingBlock: UVAHIK_clean_linker_0, # of connection points: 2
#     Edge 34, Type (0, 1), BuildingBlock: UVAHIK_clean_linker_0, # of connection points: 2
#     Edge 35, Type (0, 1), BuildingBlock: UVAHIK_clean_linker_0, # of connection points: 2
# Relax obj value: 0.062
# Max RMSD: 0.231
# Mean RMSD: 0.119
data_MOF--net-ssa--node1-KOZSID_clean_sbu_0--node2-AZAVOO_clean_linker_0--edge1-UVAHIK_clean_linker_0
_symmetry_space_group_name_H-M    P1
_symmetry_Int_Tables_number       1
_symmetry_cell_setting            triclinic
loop_
_symmetry_equiv_pos_as_xyz
'x, y, z'
_cell_length_a     65.652814
_cell_length_b     67.253891
_cell_length_c     63.524744
_cell_angle_alpha  87.937033
_cell_angle_beta   92.342802
_cell_angle_gamma 121.9445
loop_
_atom_site_label
_atom_site_type_symbol
_atom_site_fract_x
_atom_site_fract_y
_atom_site_fract_z
_atom_type_partial_charge
C0 C 0.10471 0.56511 0.00417 0.0
C1 C 0.08241 0.55887 0.01156 0.0
C2 C 0.07874 0.54547 0.02926 0.0
C3 C 0.09883 0.54417 0.03162 0.0
N4 N 0.1152 0.55595 0.01649 0.0
Co5 Co 0.14658 0.55794 0.0135 0.0
N6 N 0.14108 0.53819 0.03961 0.0
C7 C 0.12233 0.52957 0.05267 0.0
C8 C 0.12393 0.5175 0.06981 0.0
C9 C 0.14488 0.51828 0.06757 0.0
C10 C 0.15479 0.53065 0.04895 0.0
N11 N 0.17775 0.55954 0.01036 0.0
C12 C 0.18757 0.54922 0.02202 0.0
C13 C 0.20903 0.55405 0.01377 0.0
C14 C 0.21304 0.56807 0.99642 0.0
C15 C 0.19381 0.57085 0.99495 0.0
N16 N 0.15218 0.57798 0.98756 0.0
C17 C 0.17159 0.58778 0.9752 0.0
C18 C 0.17049 0.60085 0.95865 0.0
C19 C 0.1491 0.59937 0.96053 0.0
C20 C 0.13834 0.58536 0.97816 0.0
N21 N 0.16315 0.5866 0.03087 0.0
C22 C 0.18617 0.62725 0.05549 0.0
C23 C 0.1971 0.62563 0.03778 0.0
C24 C 0.18531 0.60535 0.02573 0.0
C25 C 0.16361 0.60819 0.06068 0.0
C26 C 0.15258 0.58824 0.04833 0.0
N27 N 0.12999 0.5294 0.99611 0.0
C28 C 0.12679 0.50906 0.96431 0.0
C29 C 0.10492 0.48956 0.97052 0.0
C30 C 0.09614 0.49024 0.99 0.0
C31 C 0.10892 0.51003 0.00246 0.0
C32 C 0.1389 0.52863 0.97721 0.0
H33 H 0.10122 0.50935 0.01708 0.0
H34 H 0.15535 0.54298 0.97151 0.0
H35 H 0.19449 0.60529 0.01234 0.0
H36 H 0.13552 0.57438 0.05333 0.0
C37 C 0.10309 0.5325 0.04813 0.0
C38 C 0.11504 0.5797 0.98539 0.0
C39 C 0.17707 0.53445 0.04073 0.0
C40 C 0.19023 0.58381 0.9792 0.0
H41 H 0.07003 0.56353 0.00485 0.0
H42 H 0.06331 0.53766 0.03926 0.0
H43 H 0.11128 0.509 0.08237 0.0
H44 H 0.15197 0.51051 0.07842 0.0
H45 H 0.22054 0.54794 0.01958 0.0
H46 H 0.22807 0.5752 0.986 0.0
H47 H 0.18361 0.61024 0.94659 0.0
H48 H 0.14217 0.60765 0.95011 0.0
H49 H 0.21457 0.64004 0.0331 0.0
H50 H 0.1546 0.60844 0.07449 0.0
H51 H 0.13461 0.5093 0.94955 0.0
H52 H 0.07913 0.47578 0.9955 0.0
C53 C 0.60747 0.01412 0.58955 0.0
C54 C 0.60565 0.00142 0.60787 0.0
C55 C 0.58371 0.98115 0.60698 0.0
C56 C 0.57331 0.98262 0.58834 0.0
N57 N 0.58731 0.00262 0.57719 0.0
Co58 Co 0.57891 0.01209 0.54942 0.0
N59 N 0.54557 0.98349 0.54938 0.0
C60 C 0.5358 0.96669 0.56465 0.0
C61 C 0.51224 0.94979 0.56074 0.0
C62 C 0.50655 0.95611 0.54183 0.0
C63 C 0.52716 0.97647 0.53516 0.0
N64 N 0.57078 0.02121 0.52135 0.0
C65 C 0.55038 0.01005 0.50928 0.0
C66 C 0.5529 0.02177 0.49017 0.0
C67 C 0.57551 0.04115 0.49029 0.0
C68 C 0.58559 0.04007 0.50926 0.0
N69 N 0.6119 0.04113 0.54981 0.0
C70 C 0.62145 0.0583 0.53488 0.0
C71 C 0.64443 0.07609 0.5395 0.0
C72 C 0.64985 0.07015 0.55871 0.0
C73 C 0.62966 0.04904 0.56478 0.0
N74 N 0.59092 0.99476 0.53477 0.0
C75 C 0.60849 0.97019 0.51494 0.0
C76 C 0.61774 0.99384 0.51031 0.0
C77 C 0.60858 0.00564 0.52016 0.0
C78 C 0.59028 0.95898 0.52952 0.0
C79 C 0.58196 0.97151 0.53926 0.0
N80 N 0.567 0.02934 0.56414 0.0
C81 C 0.56448 0.06365 0.56796 0.0
C82 C 0.55227 0.05462 0.58679 0.0
C83 C 0.5469 0.03246 0.59367 0.0
C84 C 0.55432 0.02025 0.58222 0.0
C85 C 0.57168 0.0508 0.55696 0.0
H86 H 0.5498 0.00358 0.58848 0.0
H87 H 0.58129 0.05868 0.54286 0.0
H88 H 0.61609 0.02352 0.51563 0.0
H89 H 0.56833 0.96193 0.55042 0.0
C90 C 0.54954 0.9668 0.58206 0.0
C91 C 0.6282 0.03742 0.58501 0.0
C92 C 0.5284 0.98826 0.51506 0.0
C93 C 0.60865 0.05682 0.51634 0.0
H94 H 0.61853 0.00645 0.62084 0.0
H95 H 0.57589 0.96738 0.61889 0.0
H96 H 0.50064 0.93459 0.57041 0.0
H97 H 0.48919 0.94668 0.53382 0.0
H98 H 0.53983 0.01684 0.47736 0.0
H99 H 0.58366 0.05444 0.47801 0.0
H100 H 0.65592 0.09149 0.52999 0.0
H101 H 0.66677 0.08027 0.56729 0.0
H102 H 0.6317 0.00311 0.49887 0.0
H103 H 0.58271 0.94066 0.53366 0.0
H104 H 0.56906 0.0808 0.56203 0.0
H105 H 0.53703 0.02452 0.60794 0.0
C106 C 0.62684 0.53821 0.04607 0.0
C107 C 0.63016 0.55559 0.03161 0.0
C108 C 0.61031 0.55714 0.03225 0.0
C109 C 0.59612 0.5408 0.04709 0.0
N110 N 0.60578 0.52898 0.05608 0.0
Co111 Co 0.59148 0.50409 0.07872 0.0
N112 N 0.56143 0.50499 0.07828 0.0
C113 C 0.55569 0.51748 0.06487 0.0
C114 C 0.53357 0.51411 0.06814 0.0
C115 C 0.52479 0.49884 0.08486 0.0
C116 C 0.54228 0.49396 0.09097 0.0
N117 N 0.57753 0.47997 0.10205 0.0
C118 C 0.55757 0.47252 0.11339 0.0
C119 C 0.55569 0.45738 0.1297 0.0
C120 C 0.57515 0.45524 0.1287 0.0
C121 C 0.58789 0.46929 0.11204 0.0
N122 N 0.62117 0.50251 0.07847 0.0
C123 C 0.62576 0.48816 0.09035 0.0
C124 C 0.64699 0.49008 0.08592 0.0
C125 C 0.65641 0.50641 0.07002 0.0
C126 C 0.64034 0.51361 0.06575 0.0
N127 N 0.60631 0.52882 0.10032 0.0
C128 C 0.62427 0.56176 0.13277 0.0
C129 C 0.63032 0.54479 0.13223 0.0
C130 C 0.62107 0.5285 0.11606 0.0
C131 C 0.60972 0.56247 0.1165 0.0
C132 C 0.60124 0.54614 0.10042 0.0
N133 N 0.57659 0.47929 0.05711 0.0
C134 C 0.56615 0.44131 0.04473 0.0
C135 C 0.55765 0.44518 0.02547 0.0
C136 C 0.55828 0.46617 0.02253 0.0
C137 C 0.56771 0.4828 0.03839 0.0
C138 C 0.57544 0.45844 0.0602 0.0
H139 H 0.56778 0.49843 0.035 0.0
H140 H 0.58187 0.45451 0.07441 0.0
H141 H 0.6258 0.51559 0.11685 0.0
H142 H 0.59035 0.5477 0.08839 0.0
C143 C 0.57266 0.53438 0.05125 0.0
C144 C 0.6437 0.53042 0.04902 0.0
C145 C 0.54067 0.48026 0.10985 0.0
C146 C 0.61 0.47345 0.10585 0.0
H147 H 0.64515 0.5657 0.0213 0.0
H148 H 0.60632 0.56828 0.02254 0.0
H149 H 0.52529 0.52257 0.05997 0.0
H150 H 0.50783 0.49267 0.09224 0.0
H151 H 0.54202 0.44913 0.14146 0.0
H152 H 0.57982 0.44516 0.13924 0.0
H153 H 0.65463 0.48062 0.09327 0.0
H154 H 0.67309 0.51219 0.06229 0.0
H155 H 0.64153 0.54363 0.14459 0.0
H156 H 0.60492 0.57562 0.11617 0.0
H157 H 0.56621 0.42539 0.04772 0.0
H158 H 0.55149 0.46983 0.00803 0.0
C159 C 0.98298 0.4244 0.55345 0.0
C160 C 0.95931 0.40687 0.54925 0.0
C161 C 0.95202 0.41388 0.53164 0.0
C162 C 0.97152 0.43523 0.52616 0.0
N163 N 0.99098 0.44217 0.53903 0.0
Co164 Co 0.02275 0.4726 0.5375 0.0
N165 N 0.01094 0.48433 0.5134 0.0
C166 C 0.9888 0.4729 0.50412 0.0
C167 C 0.9857 0.48558 0.48837 0.0
C168 C 0.00717 0.50633 0.48742 0.0
C169 C 0.02228 0.50503 0.50261 0.0
N170 N 0.05461 0.50293 0.53593 0.0
C171 C 0.06208 0.52158 0.52258 0.0
C172 C 0.08615 0.53853 0.52621 0.0
C173 C 0.09406 0.53048 0.54257 0.0
C174 C 0.07459 0.50909 0.54789 0.0
N175 N 0.03446 0.46101 0.5618 0.0
C176 C 0.05671 0.47211 0.57088 0.0
C177 C 0.05914 0.46006 0.58765 0.0
C178 C 0.03699 0.44026 0.58969 0.0
C179 C 0.02229 0.44147 0.57402 0.0
N180 N 0.034 0.4588 0.51714 0.0
C181 C 0.05275 0.44456 0.48593 0.0
C182 C 0.06582 0.45475 0.50445 0.0
C183 C 0.05615 0.46152 0.51973 0.0
C184 C 0.02953 0.4403 0.48379 0.0
C185 C 0.02056 0.44749 0.4995 0.0
N186 N 0.01166 0.48647 0.55769 0.0
C187 C 0.01886 0.50918 0.5888 0.0
C188 C 0.99589 0.50563 0.58698 0.0
C189 C 0.98101 0.49251 0.57011 0.0
C190 C 0.98917 0.4831 0.55579 0.0
C191 C 0.02632 0.49958 0.5741 0.0
H192 H 0.97693 0.47302 0.54339 0.0
H193 H 0.04402 0.50295 0.57636 0.0
H194 H 0.06725 0.46935 0.53327 0.0
H195 H 0.00295 0.4442 0.49674 0.0
C196 C 0.97134 0.45019 0.51044 0.0
C197 C 0.99667 0.42414 0.57201 0.0
C198 C 0.04728 0.52382 0.50599 0.0
C199 C 0.07462 0.49433 0.5639 0.0
H200 H 0.94819 0.39098 0.5583 0.0
H201 H 0.93429 0.40495 0.52424 0.0
H202 H 0.96973 0.48034 0.4787 0.0
H203 H 0.01125 0.52077 0.47669 0.0
H204 H 0.09707 0.55493 0.51779 0.0
H205 H 0.11196 0.53909 0.54961 0.0
H206 H 0.07496 0.46534 0.59753 0.0
H207 H 0.03206 0.42669 0.60164 0.0
H208 H 0.08368 0.45783 0.50706 0.0
H209 H 0.01866 0.4323 0.46972 0.0
H210 H 0.03118 0.51953 0.60143 0.0
H211 H 0.96298 0.48911 0.56816 0.0
C212 C 0.53973 0.03996 0.12433 0.0
C213 C 0.54218 0.05381 0.14109 0.0
C214 C 0.56321 0.07473 0.13841 0.0
C215 C 0.57231 0.07249 0.12022 0.0
N216 N 0.55829 0.05144 0.11102 0.0
Co217 Co 0.56472 0.04069 0.0844 0.0
N218 N 0.59708 0.07033 0.0819 0.0
C219 C 0.60725 0.08862 0.09521 0.0
C220 C 0.62966 0.1064 0.08955 0.0
C221 C 0.63423 0.09901 0.07163 0.0
C222 C 0.61425 0.07699 0.06741 0.0
N223 N 0.57085 0.03013 0.05753 0.0
C224 C 0.59039 0.04065 0.04523 0.0
C225 C 0.58738 0.02692 0.02814 0.0
C226 C 0.56505 0.00726 0.02949 0.0
C227 C 0.55577 0.00995 0.04731 0.0
N228 N 0.53271 0.01073 0.08729 0.0
C229 C 0.52252 0.99238 0.07406 0.0
C230 C 0.50096 0.97384 0.08061 0.0
C231 C 0.49722 0.98057 0.09931 0.0
C232 C 0.51678 0.00299 0.10303 0.0
N233 N 0.54956 0.05533 0.06764 0.0
C234 C 0.53101 0.07714 0.04146 0.0
C235 C 0.52193 0.05321 0.04003 0.0
C236 C 0.53147 0.04277 0.05309 0.0
C237 C 0.54884 0.08981 0.05668 0.0
C238 C 0.55756 0.07861 0.06965 0.0
N239 N 0.58 0.02625 0.10093 0.0
C240 C 0.58797 0.99519 0.10629 0.0
C241 C 0.60375 0.00698 0.12316 0.0
C242 C 0.60709 0.02837 0.12894 0.0
C243 C 0.59514 0.0376 0.11771 0.0
C244 C 0.57629 0.00501 0.09554 0.0
H245 H 0.5986 0.05406 0.12278 0.0
H246 H 0.56442 0.99515 0.08286 0.0
H247 H 0.52417 0.02461 0.05081 0.0
H248 H 0.571 0.08931 0.08096 0.0
C249 C 0.59492 0.08891 0.1125 0.0
C250 C 0.51973 0.01587 0.12203 0.0
C251 C 0.61227 0.06333 0.04923 0.0
C252 C 0.53379 0.99302 0.05569 0.0
H253 H 0.53018 0.04909 0.15408 0.0
H254 H 0.57126 0.08956 0.14882 0.0
H255 H 0.64122 0.12288 0.09741 0.0
H256 H 0.65038 0.10885 0.06261 0.0
H257 H 0.60009 0.0305 0.01606 0.0
H258 H 0.5568 0.99249 0.01902 0.0
H259 H 0.4895 0.95728 0.07286 0.0
H260 H 0.48196 0.97002 0.10922 0.0
H261 H 0.50809 0.04272 0.0284 0.0
H262 H 0.5561 0.10836 0.05855 0.0
H263 H 0.58446 0.97833 0.10148 0.0
H264 H 0.61925 0.03824 0.14183 0.0
C265 C 0.57722 0.58911 0.56498 0.0
C266 C 0.57385 0.60757 0.56763 0.0
C267 C 0.55695 0.60049 0.58264 0.0
C268 C 0.55116 0.5783 0.58842 0.0
N269 N 0.56351 0.57085 0.57815 0.0
Co270 Co 0.56128 0.54007 0.58231 0.0
N271 N 0.53457 0.52869 0.60268 0.0
C272 C 0.5235 0.5399 0.608 0.0
C273 C 0.50587 0.52779 0.62243 0.0
C274 C 0.50579 0.50772 0.62673 0.0
C275 C 0.52349 0.50879 0.61463 0.0
N276 N 0.55992 0.50977 0.58733 0.0
C277 C 0.54719 0.49219 0.60141 0.0
C278 C 0.55254 0.47483 0.60064 0.0
C279 C 0.56961 0.48191 0.58582 0.0
C280 C 0.57368 0.50307 0.57844 0.0
N281 N 0.58715 0.55098 0.56112 0.0
C282 C 0.59647 0.53871 0.55418 0.0
C283 C 0.61239 0.54975 0.5383 0.0
C284 C 0.61306 0.57017 0.53458 0.0
C285 C 0.5976 0.57053 0.54865 0.0
N286 N 0.58551 0.55381 0.60568 0.0
C287 C 0.61848 0.57049 0.64004 0.0
C288 C 0.62284 0.56178 0.62228 0.0
C289 C 0.60622 0.55352 0.60546 0.0
C290 C 0.59765 0.57124 0.64013 0.0
C291 C 0.58163 0.56307 0.62285 0.0
N292 N 0.53703 0.52631 0.5589 0.0
C293 C 0.52061 0.50162 0.52833 0.0
C294 C 0.50518 0.50964 0.52376 0.0
C295 C 0.50536 0.52553 0.53741 0.0
C296 C 0.52111 0.53338 0.55487 0.0
C297 C 0.53635 0.51019 0.54578 0.0
H298 H 0.52025 0.54539 0.56472 0.0
H299 H 0.54803 0.50378 0.54807 0.0
H300 H 0.61035 0.54663 0.5926 0.0
H301 H 0.56612 0.5642 0.62387 0.0
C302 C 0.53234 0.56306 0.6015 0.0
C303 C 0.59265 0.5893 0.54898 0.0
C304 C 0.53031 0.4914 0.61613 0.0
C305 C 0.58997 0.51689 0.56295 0.0
H306 H 0.58225 0.62418 0.55915 0.0
H307 H 0.54915 0.61003 0.5881 0.0
H308 H 0.49515 0.5334 0.62973 0.0
H309 H 0.49457 0.49423 0.63804 0.0
H310 H 0.54503 0.45882 0.60999 0.0
H311 H 0.57818 0.47281 0.5811 0.0
H312 H 0.62207 0.54351 0.53015 0.0
H313 H 0.62346 0.58304 0.52256 0.0
H314 H 0.63869 0.56071 0.6216 0.0
H315 H 0.59372 0.57814 0.65348 0.0
H316 H 0.52109 0.48932 0.51812 0.0
H317 H 0.49337 0.53191 0.53463 0.0
H318 H 0.26953 0.43337 0.42802 0.0
H319 H 0.13075 0.38444 0.21922 0.0
H320 H 0.31669 0.46787 0.32064 0.0
H321 H 0.34987 0.47719 0.34519 0.0
H322 H 0.34349 0.41163 0.33116 0.0
H323 H 0.30951 0.40215 0.30686 0.0
H324 H 0.26917 0.45372 0.33774 0.0
H325 H 0.26938 0.45124 0.37626 0.0
H326 H 0.26714 0.38593 0.37362 0.0
H327 H 0.26663 0.3885 0.33509 0.0
H328 H 0.23554 0.45245 0.30054 0.0
H329 H 0.2047 0.45143 0.32152 0.0
H330 H 0.18384 0.38216 0.34482 0.0
H331 H 0.21443 0.38307 0.32308 0.0
H332 H 0.24255 0.45511 0.25651 0.0
H333 H 0.20765 0.44975 0.23606 0.0
H334 H 0.16989 0.37535 0.25004 0.0
H335 H 0.20507 0.38093 0.27022 0.0
H336 H 0.29201 0.46899 0.24677 0.0
H337 H 0.28647 0.47864 0.2106 0.0
H338 H 0.24209 0.40467 0.19697 0.0
H339 H 0.24662 0.39539 0.23379 0.0
H340 H 0.33425 0.46833 0.27794 0.0
H341 H 0.36907 0.47483 0.25923 0.0
H342 H 0.32497 0.4071 0.23026 0.0
H343 H 0.29085 0.40013 0.25031 0.0
O344 O 0.26929 0.43394 0.41276 0.0
O345 O 0.26822 0.40047 0.41054 0.0
O346 O 0.1651 0.4254 0.22031 0.0
O347 O 0.14481 0.38706 0.22721 0.0
C348 C 0.28856 0.42792 0.29953 0.0
C349 C 0.2678 0.42279 0.31026 0.0
C350 C 0.24749 0.41981 0.29882 0.0
C351 C 0.24778 0.4215 0.27663 0.0
C352 C 0.26845 0.42645 0.26586 0.0
C353 C 0.28878 0.42933 0.27726 0.0
C354 C 0.31072 0.43435 0.31204 0.0
C355 C 0.32269 0.45567 0.32265 0.0
C356 C 0.34177 0.46102 0.33658 0.0
C357 C 0.34943 0.44518 0.34014 0.0
C358 C 0.33789 0.4241 0.32891 0.0
C359 C 0.31865 0.41873 0.31491 0.0
C360 C 0.26768 0.42119 0.33366 0.0
C361 C 0.26852 0.4388 0.34552 0.0
C362 C 0.26874 0.43739 0.36752 0.0
C363 C 0.26825 0.41837 0.37803 0.0
C364 C 0.26749 0.40079 0.36603 0.0
C365 C 0.26721 0.40221 0.34404 0.0
C366 C 0.22715 0.4178 0.31022 0.0
C367 C 0.224 0.43686 0.30984 0.0
C368 C 0.20655 0.43634 0.32203 0.0
C369 C 0.192 0.41681 0.33502 0.0
C370 C 0.19466 0.39739 0.33488 0.0
C371 C 0.21215 0.3979 0.32256 0.0
C372 C 0.2264 0.41837 0.26464 0.0
C373 C 0.22678 0.43765 0.25502 0.0
C374 C 0.20679 0.43455 0.24341 0.0
C375 C 0.18599 0.41209 0.24136 0.0
C376 C 0.18562 0.39286 0.25126 0.0
C377 C 0.20566 0.39599 0.26281 0.0
C378 C 0.26962 0.43153 0.24288 0.0
C379 C 0.28158 0.45489 0.2358 0.0
C380 C 0.27841 0.46034 0.215 0.0
C381 C 0.26352 0.44247 0.20072 0.0
C382 C 0.25314 0.41895 0.20757 0.0
C383 C 0.25596 0.41355 0.22853 0.0
C384 C 0.31005 0.43362 0.26574 0.0
C385 C 0.33226 0.45474 0.26785 0.0
C386 C 0.35208 0.45854 0.25686 0.0
C387 C 0.34998 0.44149 0.24316 0.0
C388 C 0.32754 0.42046 0.24095 0.0
C389 C 0.30788 0.41652 0.25224 0.0
C390 C 0.26858 0.41697 0.4014 0.0
C391 C 0.16473 0.40869 0.22899 0.0
H392 H 0.8864 0.2605 0.95348 0.0
H393 H 0.73445 0.05824 0.80319 0.0
H394 H 0.87177 0.26613 0.84266 0.0
H395 H 0.9065 0.30194 0.85696 0.0
H396 H 0.95392 0.2824 0.83293 0.0
H397 H 0.91894 0.246 0.81921 0.0
H398 H 0.83838 0.22861 0.87113 0.0
H399 H 0.85284 0.24266 0.90689 0.0
H400 H 0.91236 0.23321 0.89931 0.0
H401 H 0.89748 0.21885 0.86367 0.0
H402 H 0.7963 0.19048 0.8467 0.0
H403 H 0.76877 0.16973 0.87528 0.0
H404 H 0.81388 0.14432 0.89868 0.0
H405 H 0.84187 0.16596 0.87009 0.0
H406 H 0.78621 0.17448 0.80409 0.0
H407 H 0.75085 0.13565 0.79712 0.0
H408 H 0.7914 0.10405 0.81698 0.0
H409 H 0.82669 0.14305 0.82367 0.0
H410 H 0.81635 0.21034 0.77636 0.0
H411 H 0.79519 0.19171 0.74364 0.0
H412 H 0.83112 0.15315 0.74411 0.0
H413 H 0.85098 0.17094 0.77768 0.0
H414 H 0.86244 0.26051 0.79367 0.0
H415 H 0.88037 0.28657 0.76317 0.0
H416 H 0.91108 0.24658 0.74546 0.0
H417 H 0.89254 0.22027 0.77587 0.0
O418 O 0.88081 0.25458 0.9394 0.0
O419 O 0.91118 0.24959 0.93463 0.0
O420 O 0.72814 0.09093 0.79565 0.0
O421 O 0.74816 0.07381 0.80579 0.0
C422 C 0.87176 0.22965 0.82582 0.0
C423 C 0.85855 0.21483 0.84289 0.0
C424 C 0.83748 0.19293 0.83897 0.0
C425 C 0.83057 0.18508 0.81813 0.0
C426 C 0.84389 0.19971 0.80109 0.0
C427 C 0.86419 0.22223 0.80489 0.0
C428 C 0.89286 0.25335 0.83019 0.0
C429 C 0.88966 0.26976 0.84014 0.0
C430 C 0.90941 0.29013 0.84826 0.0
C431 C 0.93267 0.29466 0.84606 0.0
C432 C 0.93606 0.27918 0.83467 0.0
C433 C 0.91619 0.25851 0.82684 0.0
C434 C 0.86674 0.22247 0.86491 0.0
C435 C 0.85434 0.22927 0.87734 0.0
C436 C 0.86274 0.23744 0.89771 0.0
C437 C 0.88376 0.23905 0.90597 0.0
C438 C 0.89609 0.23216 0.89345 0.0
C439 C 0.88763 0.22392 0.87311 0.0
C440 C 0.82093 0.17957 0.8563 0.0
C441 C 0.80015 0.18032 0.85794 0.0
C442 C 0.78439 0.16833 0.87423 0.0
C443 C 0.78895 0.15511 0.88918 0.0
C444 C 0.80992 0.15445 0.88752 0.0
C445 C 0.82583 0.16664 0.87118 0.0
C446 C 0.80902 0.16152 0.81416 0.0
C447 C 0.78744 0.15915 0.80679 0.0
C448 C 0.76726 0.13695 0.80289 0.0
C449 C 0.76832 0.11673 0.80644 0.0
C450 C 0.78998 0.11924 0.81403 0.0
C451 C 0.81015 0.14146 0.81788 0.0
C452 C 0.83508 0.1919 0.77932 0.0
C453 C 0.81995 0.1982 0.76913 0.0
C454 C 0.80795 0.18755 0.75034 0.0
C455 C 0.81121 0.17067 0.74119 0.0
C456 C 0.82767 0.1656 0.75089 0.0
C457 C 0.83931 0.17595 0.76992 0.0
C458 C 0.87629 0.2386 0.78698 0.0
C459 C 0.87321 0.25753 0.78327 0.0
C460 C 0.88354 0.27243 0.76587 0.0
C461 C 0.89722 0.26871 0.75185 0.0
C462 C 0.90041 0.24977 0.75577 0.0
C463 C 0.88999 0.23483 0.77318 0.0
C464 C 0.89281 0.24803 0.92751 0.0
C465 C 0.74695 0.0931 0.80228 0.0
H466 H 0.68289 0.79514 0.17235 0.0
H467 H 0.7219 0.96474 0.34073 0.0
H468 H 0.65388 0.76929 0.28204 0.0
H469 H 0.64849 0.73386 0.26734 0.0
H470 H 0.71613 0.7496 0.29623 0.0
H471 H 0.72179 0.78582 0.31026 0.0
H472 H 0.66167 0.80984 0.25689 0.0
H473 H 0.66404 0.80277 0.21982 0.0
H474 H 0.73416 0.81294 0.23247 0.0
H475 H 0.73166 0.82025 0.26946 0.0
H476 H 0.65781 0.84458 0.28634 0.0
H477 H 0.65461 0.87152 0.26167 0.0
H478 H 0.72629 0.89716 0.24069 0.0
H479 H 0.7296 0.87026 0.26597 0.0
H480 H 0.65993 0.84834 0.3321 0.0
H481 H 0.66187 0.88403 0.34236 0.0
H482 H 0.73552 0.92531 0.3226 0.0
H483 H 0.73345 0.88943 0.3127 0.0
H484 H 0.65386 0.80269 0.35551 0.0
H485 H 0.64621 0.81392 0.38888 0.0
H486 H 0.71808 0.87554 0.38937 0.0
H487 H 0.72621 0.86277 0.35711 0.0
H488 H 0.651 0.76331 0.32816 0.0
H489 H 0.64046 0.73405 0.35617 0.0
H490 H 0.70808 0.7806 0.38843 0.0
H491 H 0.71917 0.80908 0.35942 0.0
O492 O 0.68238 0.79812 0.18706 0.0
O493 O 0.71832 0.80341 0.19441 0.0
O494 O 0.68281 0.9283 0.34694 0.0
O495 O 0.72065 0.95034 0.33684 0.0
C496 C 0.69228 0.80291 0.30386 0.0
C497 C 0.6951 0.81981 0.28838 0.0
C498 C 0.69588 0.84021 0.29433 0.0
C499 C 0.69556 0.84456 0.31584 0.0
C500 C 0.69329 0.82797 0.33144 0.0
C501 C 0.69118 0.80686 0.32543 0.0
C502 C 0.68832 0.78022 0.29702 0.0
C503 C 0.66749 0.76503 0.28528 0.0
C504 C 0.66434 0.74464 0.27707 0.0
C505 C 0.68186 0.73881 0.28062 0.0
C506 C 0.70243 0.75371 0.29301 0.0
C507 C 0.70562 0.77428 0.30116 0.0
C508 C 0.69659 0.81577 0.2658 0.0
C509 C 0.67761 0.81074 0.25157 0.0
C510 C 0.67898 0.80661 0.23043 0.0
C511 C 0.69931 0.80733 0.22317 0.0
C512 C 0.71826 0.8123 0.23753 0.0
C513 C 0.71689 0.81648 0.25865 0.0
C514 C 0.69403 0.85569 0.27812 0.0
C515 C 0.67287 0.85605 0.27648 0.0
C516 C 0.67109 0.87145 0.26243 0.0
C517 C 0.69033 0.88659 0.2495 0.0
C518 C 0.71125 0.88566 0.25055 0.0
C519 C 0.71315 0.87037 0.26491 0.0
C520 C 0.69663 0.86629 0.32186 0.0
C521 C 0.67651 0.8651 0.33014 0.0
C522 C 0.67764 0.88551 0.33591 0.0
C523 C 0.69888 0.90753 0.33334 0.0
C524 C 0.71892 0.90865 0.32483 0.0
C525 C 0.71778 0.8882 0.31914 0.0
C526 C 0.69055 0.83199 0.35376 0.0
C527 C 0.66828 0.81805 0.36331 0.0
C528 C 0.6638 0.82481 0.38222 0.0
C529 C 0.68124 0.84608 0.39162 0.0
C530 C 0.70416 0.85902 0.3828 0.0
C531 C 0.70885 0.85184 0.36421 0.0
C532 C 0.68597 0.78829 0.34159 0.0
C533 C 0.66385 0.76692 0.34096 0.0
C534 C 0.65767 0.75036 0.35724 0.0
C535 C 0.67324 0.75501 0.3748 0.0
C536 C 0.6957 0.77624 0.37511 0.0
C537 C 0.70205 0.79263 0.35859 0.0
C538 C 0.70067 0.80285 0.20071 0.0
C539 C 0.7002 0.92928 0.33947 0.0
H540 H 0.81254 0.61814 0.6983 0.0
H541 H 0.00265 0.5938 0.85223 0.0
H542 H 0.85242 0.64526 0.81319 0.0
H543 H 0.81782 0.64629 0.7987 0.0
H544 H 0.77426 0.57074 0.80307 0.0
H545 H 0.80901 0.56991 0.81746 0.0
H546 H 0.87093 0.6409 0.77602 0.0
H547 H 0.8501 0.63848 0.74247 0.0
H548 H 0.81452 0.56294 0.74525 0.0
H549 H 0.83536 0.56565 0.77891 0.0
H550 H 0.90946 0.63211 0.76904 0.0
H551 H 0.92528 0.62308 0.73884 0.0
H552 H 0.9002 0.55411 0.76549 0.0
H553 H 0.88435 0.56318 0.79535 0.0
H554 H 0.94202 0.64255 0.81548 0.0
H555 H 0.9804 0.64543 0.82284 0.0
H556 H 0.94226 0.57276 0.84328 0.0
H557 H 0.90406 0.5701 0.83565 0.0
H558 H 0.92219 0.64753 0.85803 0.0
H559 H 0.95251 0.651 0.88386 0.0
H560 H 0.91045 0.57613 0.89495 0.0
H561 H 0.88019 0.57291 0.86925 0.0
H562 H 0.86057 0.64054 0.85767 0.0
H563 H 0.83608 0.63545 0.888 0.0
H564 H 0.81403 0.56246 0.89283 0.0
H565 H 0.83867 0.56785 0.86286 0.0
O566 O 0.82091 0.61871 0.71139 0.0
O567 O 0.80361 0.57999 0.71322 0.0
O568 O 0.00656 0.62963 0.83616 0.0
O569 O 0.98776 0.59284 0.84828 0.0
C570 C 0.85516 0.60668 0.81902 0.0
C571 C 0.86589 0.60494 0.80087 0.0
C572 C 0.88652 0.6035 0.80292 0.0
C573 C 0.89731 0.60538 0.82298 0.0
C574 C 0.88657 0.6071 0.84114 0.0
C575 C 0.86499 0.60688 0.83925 0.0
C576 C 0.83313 0.60752 0.81636 0.0
C577 C 0.83517 0.62902 0.81175 0.0
C578 C 0.81549 0.62956 0.80331 0.0
C579 C 0.79347 0.60858 0.79956 0.0
C580 C 0.79097 0.58717 0.80593 0.0
C581 C 0.81074 0.58665 0.81419 0.0
C582 C 0.85463 0.60346 0.7798 0.0
C583 C 0.85874 0.62387 0.76926 0.0
C584 C 0.84679 0.62243 0.75013 0.0
C585 C 0.83059 0.60051 0.7412 0.0
C586 C 0.82685 0.58009 0.7517 0.0
C587 C 0.83878 0.58157 0.77086 0.0
C588 C 0.89589 0.59833 0.7844 0.0
C589 C 0.9073 0.61504 0.76823 0.0
C590 C 0.91626 0.60984 0.75103 0.0
C591 C 0.91411 0.58795 0.74991 0.0
C592 C 0.90246 0.57125 0.76609 0.0
C593 C 0.89336 0.57637 0.78311 0.0
C594 C 0.92033 0.60615 0.82509 0.0
C595 C 0.94203 0.62719 0.82123 0.0
C596 C 0.9639 0.62881 0.82556 0.0
C597 C 0.96439 0.60936 0.8338 0.0
C598 C 0.94254 0.58809 0.83704 0.0
C599 C 0.9207 0.58649 0.83263 0.0
C600 C 0.899 0.60999 0.86181 0.0
C601 C 0.91896 0.63207 0.86683 0.0
C602 C 0.93643 0.63396 0.88133 0.0
C603 C 0.93409 0.61377 0.89108 0.0
C604 C 0.91273 0.59201 0.88778 0.0
C605 C 0.89529 0.59014 0.8732 0.0
C606 C 0.85154 0.60461 0.85825 0.0
C607 C 0.85061 0.62356 0.86548 0.0
C608 C 0.83652 0.62056 0.88269 0.0
C609 C 0.82315 0.59855 0.89291 0.0
C610 C 0.82443 0.57974 0.88564 0.0
C611 C 0.83845 0.58275 0.86848 0.0
C612 C 0.81754 0.59902 0.72109 0.0
C613 C 0.98755 0.61129 0.83939 0.0
H614 H 0.24709 0.82154 0.45214 0.0
H615 H 0.15454 0.65005 0.27358 0.0
H616 H 0.27985 0.85092 0.34657 0.0
H617 H 0.31232 0.88172 0.36826 0.0
H618 H 0.35906 0.858 0.35162 0.0
H619 H 0.32642 0.82682 0.33069 0.0
H620 H 0.23057 0.80474 0.36156 0.0
H621 H 0.23142 0.81206 0.39915 0.0
H622 H 0.29498 0.80832 0.40811 0.0
H623 H 0.29371 0.80066 0.37059 0.0
H624 H 0.1945 0.75808 0.33056 0.0
H625 H 0.16432 0.7264 0.35305 0.0
H626 H 0.2205 0.72275 0.38712 0.0
H627 H 0.2504 0.75338 0.36397 0.0
H628 H 0.20697 0.76581 0.28236 0.0
H629 H 0.17537 0.72886 0.26696 0.0
H630 H 0.204 0.69223 0.30193 0.0
H631 H 0.23567 0.72934 0.31702 0.0
H632 H 0.25062 0.80815 0.26237 0.0
H633 H 0.24928 0.79781 0.2254 0.0
H634 H 0.27114 0.74949 0.24507 0.0
H635 H 0.2725 0.75996 0.28179 0.0
H636 H 0.28878 0.85419 0.29346 0.0
H637 H 0.32078 0.88314 0.27071 0.0
H638 H 0.34685 0.83648 0.26545 0.0
H639 H 0.3147 0.80765 0.28795 0.0
O640 O 0.24701 0.81849 0.43736 0.0
O641 O 0.2798 0.81663 0.44107 0.0
O642 O 0.15299 0.6846 0.26163 0.0
O643 O 0.1669 0.66491 0.27938 0.0
C644 C 0.28008 0.81526 0.32745 0.0
C645 C 0.26168 0.79813 0.34044 0.0
C646 C 0.24307 0.7768 0.33176 0.0
C647 C 0.24276 0.77273 0.31003 0.0
C648 C 0.26113 0.78983 0.2971 0.0
C649 C 0.27975 0.8111 0.30575 0.0
C650 C 0.30074 0.83658 0.33709 0.0
C651 C 0.29724 0.85267 0.34732 0.0
C652 C 0.31572 0.87017 0.35969 0.0
C653 C 0.33811 0.87214 0.3616 0.0
C654 C 0.34204 0.857 0.35022 0.0
C655 C 0.32344 0.83925 0.33821 0.0
C656 C 0.26214 0.80231 0.36334 0.0
C657 C 0.2446 0.80543 0.3717 0.0
C658 C 0.24517 0.80965 0.39316 0.0
C659 C 0.26331 0.81084 0.40663 0.0
C660 C 0.28079 0.80757 0.39818 0.0
C661 C 0.28015 0.80326 0.37674 0.0
C662 C 0.2247 0.75816 0.34568 0.0
C663 C 0.20026 0.75034 0.34279 0.0
C664 C 0.1831 0.73236 0.3556 0.0
C665 C 0.19025 0.7224 0.3718 0.0
C666 C 0.21467 0.7304 0.37483 0.0
C667 C 0.23171 0.7479 0.3617 0.0
C668 C 0.22354 0.75022 0.30083 0.0
C669 C 0.20641 0.74978 0.28662 0.0
C670 C 0.18836 0.72866 0.27788 0.0
C671 C 0.18714 0.70757 0.28325 0.0
C672 C 0.2044 0.70812 0.29749 0.0
C673 C 0.22247 0.72927 0.30617 0.0
C674 C 0.26156 0.78471 0.27467 0.0
C675 C 0.25531 0.7955 0.25859 0.0
C676 C 0.25448 0.78953 0.23757 0.0
C677 C 0.26017 0.77289 0.23238 0.0
C678 C 0.26699 0.76259 0.24856 0.0
C679 C 0.26761 0.76841 0.26952 0.0
C680 C 0.29931 0.82876 0.29217 0.0
C681 C 0.30144 0.85029 0.28736 0.0
C682 C 0.31979 0.86682 0.27446 0.0
C683 C 0.33632 0.86208 0.26618 0.0
C684 C 0.33418 0.84052 0.27124 0.0
C685 C 0.31587 0.82405 0.28413 0.0
C686 C 0.26395 0.81548 0.42939 0.0
C687 C 0.16796 0.68507 0.27406 0.0
H688 H 0.4968 0.26602 0.65603 0.0
H689 H 0.4407 0.07638 0.82069 0.0
H690 H 0.51129 0.27968 0.76982 0.0
H691 H 0.51452 0.315 0.7544 0.0
H692 H 0.44082 0.2884 0.76993 0.0
H693 H 0.43769 0.25279 0.78509 0.0
H694 H 0.50862 0.24199 0.74321 0.0
H695 H 0.51052 0.25358 0.70603 0.0
H696 H 0.43769 0.23797 0.70797 0.0
H697 H 0.43596 0.22618 0.74508 0.0
H698 H 0.50907 0.20218 0.77181 0.0
H699 H 0.51641 0.18128 0.74553 0.0
H700 H 0.4469 0.15812 0.71636 0.0
H701 H 0.43967 0.17924 0.74294 0.0
H702 H 0.50204 0.19334 0.81824 0.0
H703 H 0.49936 0.15678 0.82912 0.0
H704 H 0.42889 0.1174 0.79921 0.0
H705 H 0.43166 0.1541 0.7887 0.0
H706 H 0.50411 0.2339 0.84239 0.0
H707 H 0.50557 0.21802 0.87734 0.0
H708 H 0.43311 0.15954 0.86736 0.0
H709 H 0.43143 0.1759 0.83268 0.0
H710 H 0.51098 0.27659 0.81475 0.0
H711 H 0.51827 0.30359 0.84281 0.0
H712 H 0.44578 0.25709 0.86383 0.0
H713 H 0.43862 0.23003 0.8355 0.0
O714 O 0.49563 0.26126 0.67071 0.0
O715 O 0.4582 0.25311 0.67257 0.0
O716 O 0.47846 0.11218 0.83182 0.0
O717 O 0.44226 0.09111 0.81653 0.0
C718 C 0.47155 0.24103 0.78498 0.0
C719 C 0.47101 0.22627 0.76937 0.0
C720 C 0.47014 0.20543 0.77532 0.0
C721 C 0.46829 0.19857 0.79676 0.0
C722 C 0.4684 0.21311 0.81242 0.0
C723 C 0.4707 0.23469 0.80654 0.0
C724 C 0.47425 0.2637 0.77848 0.0
C725 C 0.49597 0.28167 0.77019 0.0
C726 C 0.4978 0.30188 0.76148 0.0
C727 C 0.47789 0.30448 0.76089 0.0
C728 C 0.45638 0.28678 0.76997 0.0
C729 C 0.45461 0.26656 0.77877 0.0
C730 C 0.4721 0.23312 0.74676 0.0
C731 C 0.49306 0.24094 0.73552 0.0
C732 C 0.49411 0.24762 0.71431 0.0
C733 C 0.47425 0.24668 0.70402 0.0
C734 C 0.4533 0.23888 0.71541 0.0
C735 C 0.45225 0.23215 0.73659 0.0
C736 C 0.47378 0.19206 0.75938 0.0
C737 C 0.49532 0.1924 0.75988 0.0
C738 C 0.49945 0.18041 0.74488 0.0
C739 C 0.48215 0.1679 0.72897 0.0
C740 C 0.46059 0.1677 0.72838 0.0
C741 C 0.4564 0.17965 0.74355 0.0
C742 C 0.46696 0.17635 0.80284 0.0
C743 C 0.486 0.17679 0.81414 0.0
C744 C 0.48445 0.15589 0.82028 0.0
C745 C 0.46387 0.13415 0.81508 0.0
C746 C 0.44496 0.13382 0.80352 0.0
C747 C 0.44651 0.15474 0.79745 0.0
C748 C 0.46766 0.20607 0.83498 0.0
C749 C 0.48824 0.21813 0.84805 0.0
C750 C 0.48909 0.209 0.86795 0.0
C751 C 0.46951 0.18748 0.87491 0.0
C752 C 0.44848 0.17608 0.86226 0.0
C753 C 0.44748 0.18544 0.84254 0.0
C754 C 0.4742 0.25147 0.82295 0.0
C755 C 0.49653 0.27241 0.82518 0.0
C756 C 0.50066 0.28782 0.84123 0.0
C757 C 0.48256 0.28253 0.85549 0.0
C758 C 0.46011 0.26156 0.85317 0.0
C759 C 0.45595 0.24617 0.83697 0.0
C760 C 0.47545 0.25385 0.6815 0.0
C761 C 0.46207 0.11188 0.82168 0.0
C762 C 0.21105 0.5372 0.06272 0.0
C763 C 0.18907 0.52338 0.05185 0.0
C764 C 0.22081 0.52662 0.07533 0.0
C765 C 0.2013 0.47585 0.10869 0.0
H766 H 0.26701 0.49084 0.10865 0.0
C767 C 0.23368 0.43423 0.17097 0.0
C768 C 0.25698 0.44844 0.17966 0.0
C769 C 0.22645 0.44123 0.15268 0.0
C770 C 0.24868 0.48664 0.10908 0.0
H771 H 0.16041 0.48795 0.04484 0.0
H772 H 0.17713 0.46937 0.06741 0.0
H773 H 0.25298 0.50792 0.08156 0.0
H774 H 0.2914 0.4806 0.1748 0.0
H775 H 0.27834 0.49354 0.14391 0.0
H776 H 0.19707 0.45586 0.13675 0.0
C777 C 0.1869 0.48831 0.06602 0.0
C778 C 0.24065 0.49632 0.09345 0.0
C779 C 0.17739 0.49888 0.05314 0.0
C780 C 0.27314 0.46939 0.16895 0.0
C781 C 0.26572 0.47666 0.15091 0.0
C782 C 0.20941 0.46658 0.12453 0.0
C783 C 0.20848 0.5021 0.07751 0.0
C784 C 0.21691 0.49102 0.09318 0.0
C785 C 0.24207 0.46294 0.14278 0.0
C786 C 0.23325 0.47187 0.12504 0.0
H787 H 0.22022 0.55614 0.06204 0.0
H788 H 0.23737 0.5376 0.08418 0.0
H789 H 0.183 0.47181 0.10901 0.0
H790 H 0.22052 0.41809 0.17873 0.0
H791 H 0.20831 0.42979 0.14664 0.0
C792 C 0.65207 0.07096 0.60935 0.0
C793 C 0.64766 0.0499 0.60113 0.0
C794 C 0.67134 0.08367 0.62341 0.0
C795 C 0.70769 0.07892 0.66409 0.0
H796 H 0.757 0.14283 0.64954 0.0
C797 C 0.7878 0.13328 0.72086 0.0
C798 C 0.7961 0.15722 0.72264 0.0
C799 C 0.77175 0.12005 0.70463 0.0
C800 C 0.74325 0.12515 0.65404 0.0
H801 H 0.65959 0.02543 0.60107 0.0
H802 H 0.69283 0.04724 0.62665 0.0
H803 H 0.72395 0.1198 0.62461 0.0
H804 H 0.79475 0.18613 0.70788 0.0
H805 H 0.76568 0.16287 0.68057 0.0
H806 H 0.72586 0.08437 0.69391 0.0
C807 C 0.6815 0.05395 0.62194 0.0
C808 C 0.72446 0.11195 0.63967 0.0
C809 C 0.66254 0.0415 0.60746 0.0
C810 C 0.78843 0.16767 0.70734 0.0
C811 C 0.77199 0.15433 0.69137 0.0
C812 C 0.72617 0.09225 0.67868 0.0
C813 C 0.68617 0.07525 0.6298 0.0
C814 C 0.70652 0.08881 0.64464 0.0
C815 C 0.76313 0.13023 0.68996 0.0
C816 C 0.74417 0.11562 0.67392 0.0
H817 H 0.6408 0.07773 0.60458 0.0
H818 H 0.67459 0.10001 0.62942 0.0
H819 H 0.69388 0.06112 0.66826 0.0
H820 H 0.79299 0.12444 0.73242 0.0
H821 H 0.76584 0.1017 0.70384 0.0
C822 C 0.61597 0.58121 0.16104 0.0
C823 C 0.63252 0.57825 0.15045 0.0
C824 C 0.62358 0.59678 0.17769 0.0
C825 C 0.67477 0.65058 0.1974 0.0
H826 H 0.64021 0.63271 0.24962 0.0
C827 C 0.69865 0.71888 0.26117 0.0
C828 C 0.67902 0.71789 0.27039 0.0
C829 C 0.69531 0.70023 0.24926 0.0
C830 C 0.64996 0.63807 0.23508 0.0
H831 H 0.66994 0.58915 0.14886 0.0
H832 H 0.68342 0.61697 0.1778 0.0
H833 H 0.62954 0.60324 0.22299 0.0
H834 H 0.64075 0.69583 0.27547 0.0
H835 H 0.63473 0.66394 0.25407 0.0
H836 H 0.69431 0.68558 0.20878 0.0
C837 C 0.66454 0.60702 0.17329 0.0
C838 C 0.6439 0.62115 0.21991 0.0
C839 C 0.65684 0.59111 0.15684 0.0
C840 C 0.6562 0.69738 0.26826 0.0
C841 C 0.65281 0.67888 0.2562 0.0
C842 C 0.6806 0.66759 0.21243 0.0
C843 C 0.64795 0.60996 0.18387 0.0
C844 C 0.65597 0.62733 0.20079 0.0
C845 C 0.67222 0.68024 0.24615 0.0
C846 C 0.66796 0.66165 0.23132 0.0
H847 H 0.59708 0.57135 0.1565 0.0
H848 H 0.61047 0.5989 0.18546 0.0
H849 H 0.68422 0.65582 0.18269 0.0
H850 H 0.71646 0.73444 0.26239 0.0
H851 H 0.71076 0.70173 0.24209 0.0
C852 C 0.97472 0.52604 0.59647 0.0
C853 C 0.98758 0.51539 0.60276 0.0
C854 C 0.96745 0.53569 0.61141 0.0
C855 C 0.98071 0.55719 0.66618 0.0
H856 H 0.91725 0.54815 0.66214 0.0
C857 C 0.93717 0.57145 0.73602 0.0
C858 C 0.92416 0.58243 0.73212 0.0
C859 C 0.94589 0.56532 0.71937 0.0
C860 C 0.93515 0.5511 0.66331 0.0
H861 H 0.00219 0.50584 0.6297 0.0
H862 H 0.98939 0.52242 0.65571 0.0
H863 H 0.93023 0.53311 0.63463 0.0
H864 H 0.91025 0.59581 0.70773 0.0
H865 H 0.9256 0.5851 0.67849 0.0
H866 H 0.98544 0.57475 0.69506 0.0
C867 C 0.98541 0.52387 0.63922 0.0
C868 C 0.9426 0.54249 0.64756 0.0
C869 C 0.99272 0.51432 0.62431 0.0
C870 C 0.92034 0.58747 0.71119 0.0
C871 C 0.92893 0.58117 0.69448 0.0
C872 C 0.97324 0.5657 0.68194 0.0
C873 C 0.97284 0.53482 0.63296 0.0
C874 C 0.96534 0.54514 0.64897 0.0
C875 C 0.94173 0.56995 0.69841 0.0
C876 C 0.95026 0.56248 0.68083 0.0
H877 H 0.9707 0.52734 0.57995 0.0
H878 H 0.958 0.54419 0.60604 0.0
H879 H 0.99854 0.56 0.66753 0.0
H880 H 0.9406 0.56756 0.752 0.0
H881 H 0.95546 0.55649 0.72292 0.0
C882 C 0.50874 0.99415 0.15647 0.0
C883 C 0.50269 0.00392 0.13935 0.0
C884 C 0.49181 0.98075 0.17174 0.0
C885 C 0.43368 0.96644 0.19295 0.0
H886 H 0.42814 0.90771 0.20941 0.0
C887 C 0.36832 0.90351 0.25664 0.0
C888 C 0.35569 0.87945 0.25224 0.0
C889 C 0.38681 0.91973 0.24367 0.0
C890 C 0.42938 0.924 0.20491 0.0
H891 H 0.47492 0.00823 0.12476 0.0
H892 H 0.4451 0.9847 0.15143 0.0
H893 H 0.45963 0.93475 0.1857 0.0
H894 H 0.35216 0.85367 0.23041 0.0
H895 H 0.38441 0.88189 0.20789 0.0
H896 H 0.40299 0.95534 0.21181 0.0
C897 C 0.4629 0.98749 0.15326 0.0
C898 C 0.44763 0.93964 0.19153 0.0
C899 C 0.47984 0.00086 0.13798 0.0
C900 C 0.36183 0.87201 0.23448 0.0
C901 C 0.38031 0.88819 0.22157 0.0
C902 C 0.41545 0.9508 0.20642 0.0
C903 C 0.46856 0.97692 0.17011 0.0
C904 C 0.44989 0.96097 0.18526 0.0
C905 C 0.3931 0.91222 0.22606 0.0
C906 C 0.41296 0.9293 0.21239 0.0
H907 H 0.52634 0.99638 0.1577 0.0
H908 H 0.49683 0.97312 0.18467 0.0
H909 H 0.43506 0.98281 0.18854 0.0
H910 H 0.36424 0.90979 0.27034 0.0
H911 H 0.39649 0.93809 0.24767 0.0
C912 C 0.49808 0.4537 0.63223 0.0
C913 C 0.52132 0.47361 0.6334 0.0
C914 C 0.49039 0.43607 0.64775 0.0
C915 C 0.50478 0.42326 0.70179 0.0
H916 H 0.47237 0.35937 0.68222 0.0
C917 C 0.50005 0.34733 0.75125 0.0
C918 C 0.47928 0.32485 0.74953 0.0
C919 C 0.50247 0.36596 0.73875 0.0
C920 C 0.48101 0.37705 0.68804 0.0
H921 H 0.55474 0.4912 0.65143 0.0
H922 H 0.54151 0.46036 0.67857 0.0
H923 H 0.4815 0.3911 0.65719 0.0
H924 H 0.44443 0.30448 0.73382 0.0
H925 H 0.44846 0.3371 0.71229 0.0
H926 H 0.50475 0.40919 0.73259 0.0
C927 C 0.52901 0.45839 0.66595 0.0
C928 C 0.48626 0.39526 0.67367 0.0
C929 C 0.53666 0.47597 0.65042 0.0
C930 C 0.46058 0.32163 0.73565 0.0
C931 C 0.46301 0.34026 0.72313 0.0
C932 C 0.49953 0.40503 0.71618 0.0
C933 C 0.50588 0.43809 0.66467 0.0
C934 C 0.49852 0.41862 0.68031 0.0
C935 C 0.48418 0.36253 0.72424 0.0
C936 C 0.48789 0.38174 0.70942 0.0
H937 H 0.48607 0.45162 0.6191 0.0
H938 H 0.4724 0.42077 0.64642 0.0
H939 H 0.51392 0.44103 0.70747 0.0
H940 H 0.51467 0.35043 0.76196 0.0
H941 H 0.51909 0.38283 0.7399 0.0
C942 C 0.60138 0.93534 0.49553 0.0
C943 C 0.61755 0.95711 0.50458 0.0
C944 C 0.60975 0.92274 0.48596 0.0
C945 C 0.66451 0.92947 0.46357 0.0
H946 H 0.62582 0.86152 0.46499 0.0
C947 C 0.69191 0.87069 0.42414 0.0
C948 C 0.67472 0.85598 0.40891 0.0
C949 C 0.68631 0.88216 0.43865 0.0
C950 C 0.63685 0.88049 0.46461 0.0
H951 H 0.6551 0.98272 0.51104 0.0
H952 H 0.66984 0.96041 0.49489 0.0
H953 H 0.61382 0.88371 0.48512 0.0
H954 H 0.63793 0.84175 0.39747 0.0
H955 H 0.62805 0.86074 0.42337 0.0
H956 H 0.6876 0.92599 0.44311 0.0
C957 C 0.65069 0.95328 0.49466 0.0
C958 C 0.6299 0.89325 0.47595 0.0
C959 C 0.64229 0.96605 0.50396 0.0
C960 C 0.65154 0.85234 0.4092 0.0
C961 C 0.64585 0.86339 0.42396 0.0
C962 C 0.67167 0.91667 0.45251 0.0
C963 C 0.63452 0.93144 0.48552 0.0
C964 C 0.64328 0.91792 0.47514 0.0
C965 C 0.66328 0.87872 0.43853 0.0
C966 C 0.65759 0.8921 0.45256 0.0
H967 H 0.58222 0.92821 0.49558 0.0
H968 H 0.59675 0.90633 0.47862 0.0
H969 H 0.67514 0.94841 0.46234 0.0
H970 H 0.70981 0.87366 0.42469 0.0
H971 H 0.7 0.89384 0.44987 0.0
C972 C 0.68688 0.5559 0.03939 0.0
C973 C 0.66328 0.53839 0.0339 0.0
C974 C 0.70513 0.56384 0.0248 0.0
C975 C 0.71469 0.56581 0.96744 0.0
H976 H 0.7778 0.57905 0.98533 0.0
C977 C 0.79292 0.60469 0.90976 0.0
C978 C 0.8072 0.59481 0.91057 0.0
C979 C 0.77656 0.59965 0.92557 0.0
C980 C 0.76024 0.57533 0.98005 0.0
H981 H 0.63991 0.51526 0.00931 0.0
H982 H 0.67177 0.52873 0.9838 0.0
H983 H 0.74651 0.56573 0.0112 0.0
H984 H 0.81618 0.57267 0.92918 0.0
H985 H 0.7873 0.56344 0.95644 0.0
H986 H 0.72812 0.57463 0.9362 0.0
C987 C 0.67628 0.53668 0.99917 0.0
C988 C 0.74237 0.56794 0.99493 0.0
C989 C 0.65808 0.52881 0.01375 0.0
C990 C 0.80523 0.58032 0.9279 0.0
C991 C 0.78885 0.57525 0.94369 0.0
C992 C 0.73253 0.57315 0.95257 0.0
C993 C 0.70003 0.55438 0.00446 0.0
C994 C 0.71931 0.56291 0.98878 0.0
C995 C 0.77407 0.58459 0.94258 0.0
C996 C 0.75549 0.57787 0.95865 0.0
H997 H 0.69111 0.56355 0.05488 0.0
H998 H 0.72313 0.57766 0.02932 0.0
H999 H 0.69725 0.56242 0.96218 0.0
H1000 H 0.79383 0.61576 0.89656 0.0
H1001 H 0.7657 0.60741 0.92437 0.0
C1002 C 0.06665 0.5671 0.49981 0.0
C1003 C 0.05818 0.5448 0.49178 0.0
C1004 C 0.07871 0.58702 0.48683 0.0
C1005 C 0.08725 0.6086 0.43258 0.0
H1006 H 0.15206 0.65509 0.45098 0.0
C1007 C 0.15443 0.68208 0.37673 0.0
C1008 C 0.17235 0.70341 0.38543 0.0
C1009 C 0.13881 0.66338 0.38983 0.0
C1010 C 0.13384 0.64265 0.44572 0.0
H1011 H 0.05468 0.5255 0.46394 0.0
H1012 H 0.07514 0.56039 0.44093 0.0
H1013 H 0.1271 0.62145 0.47364 0.0
H1014 H 0.18754 0.72253 0.41429 0.0
H1015 H 0.15955 0.69045 0.4372 0.0
H1016 H 0.09358 0.62992 0.40489 0.0
C1017 C 0.07266 0.56245 0.45729 0.0
C1018 C 0.11961 0.62328 0.45871 0.0
C1019 C 0.06104 0.54258 0.47039 0.0
C1020 C 0.17392 0.7061 0.40731 0.0
C1021 C 0.158 0.68761 0.4204 0.0
C1022 C 0.1013 0.62825 0.41972 0.0
C1023 C 0.08199 0.58486 0.46551 0.0
C1024 C 0.09632 0.60598 0.45216 0.0
C1025 C 0.14053 0.66579 0.4119 0.0
C1026 C 0.12492 0.64544 0.426 0.0
H1027 H 0.06448 0.56912 0.51626 0.0
H1028 H 0.08566 0.60413 0.49346 0.0
H1029 H 0.06924 0.5955 0.42728 0.0
H1030 H 0.15308 0.67962 0.35986 0.0
H1031 H 0.12594 0.64683 0.38264 0.0
C1032 C 0.53947 0.1095 0.0158 0.0
C1033 C 0.52269 0.08904 0.02661 0.0
C1034 C 0.53185 0.12036 0.00114 0.0
C1035 C 0.47866 0.10882 0.96817 0.0
H1036 H 0.51748 0.17603 0.95883 0.0
C1037 C 0.46678 0.1528 0.89332 0.0
C1038 C 0.47195 0.17585 0.89422 0.0
C1039 C 0.47097 0.14227 0.9109 0.0
C1040 C 0.50613 0.15729 0.9614 0.0
H1041 H 0.48481 0.06416 0.03106 0.0
H1042 H 0.47134 0.08356 0.00605 0.0
H1043 H 0.5282 0.15813 0.98743 0.0
H1044 H 0.48481 0.20576 0.91427 0.0
H1045 H 0.49123 0.18708 0.94538 0.0
H1046 H 0.45605 0.10809 0.94266 0.0
C1047 C 0.49044 0.09091 0.00835 0.0
C1048 C 0.51256 0.14692 0.97764 0.0
C1049 C 0.4981 0.07983 0.02277 0.0
C1050 C 0.48079 0.18799 0.9132 0.0
C1051 C 0.48461 0.17731 0.93094 0.0
C1052 C 0.47201 0.11923 0.95215 0.0
C1053 C 0.50722 0.11123 0.99718 0.0
C1054 C 0.49921 0.12248 0.98099 0.0
C1055 C 0.48011 0.15441 0.92994 0.0
C1056 C 0.48592 0.14356 0.94825 0.0
H1057 H 0.55855 0.11677 0.01826 0.0
H1058 H 0.54536 0.1356 0.99257 0.0
H1059 H 0.468 0.08994 0.97007 0.0
H1060 H 0.46036 0.14322 0.87874 0.0
H1061 H 0.46776 0.12486 0.90927 0.0
C1062 C 0.47564 0.47834 0.49917 0.0
C1063 C 0.48957 0.5021 0.50451 0.0
C1064 C 0.46105 0.47139 0.4809 0.0
C1065 C 0.43331 0.49285 0.44133 0.0
H1066 H 0.42453 0.44129 0.40836 0.0
C1067 C 0.38783 0.47337 0.35937 0.0
C1068 C 0.36834 0.45029 0.35654 0.0
C1069 C 0.40367 0.47892 0.37661 0.0
C1070 C 0.42679 0.45565 0.41749 0.0
H1071 H 0.49976 0.53729 0.4947 0.0
H1072 H 0.47497 0.52539 0.46258 0.0
H1073 H 0.45 0.4527 0.44031 0.0
H1074 H 0.35105 0.41472 0.36909 0.0
H1075 H 0.37924 0.42442 0.39898 0.0
H1076 H 0.41054 0.49609 0.41823 0.0
C1077 C 0.47458 0.51193 0.47276 0.0
C1078 C 0.44125 0.46214 0.43585 0.0
C1079 C 0.48887 0.51881 0.49114 0.0
C1080 C 0.36597 0.43263 0.37067 0.0
C1081 C 0.38204 0.43817 0.38784 0.0
C1082 C 0.41918 0.48658 0.42287 0.0
C1083 C 0.46033 0.48812 0.46744 0.0
C1084 C 0.44475 0.48088 0.44799 0.0
C1085 C 0.40061 0.46149 0.39127 0.0
C1086 C 0.41582 0.46798 0.41074 0.0
H1087 H 0.47576 0.4651 0.50931 0.0
H1088 H 0.45008 0.45288 0.47754 0.0
H1089 H 0.43503 0.50695 0.45048 0.0
H1090 H 0.39051 0.48731 0.34852 0.0
H1091 H 0.41812 0.49698 0.37871 0.0
C1092 C 0.07731 0.44622 0.96542 0.0
C1093 C 0.09086 0.46896 0.95665 0.0
C1094 C 0.06219 0.42715 0.95269 0.0
C1095 C 0.04919 0.40489 0.89914 0.0
H1096 H 0.98321 0.36871 0.91705 0.0
C1097 C 0.97158 0.3334 0.84727 0.0
C1098 C 0.95283 0.31404 0.85776 0.0
C1099 C 0.98976 0.35226 0.85879 0.0
C1100 C 0.0016 0.37828 0.91196 0.0
H1101 H 0.09979 0.48917 0.92735 0.0
H1102 H 0.07381 0.45559 0.90508 0.0
H1103 H 0.01319 0.40119 0.93822 0.0
H1104 H 0.93865 0.2983 0.88818 0.0
H1105 H 0.97074 0.33053 0.90835 0.0
H1106 H 0.03775 0.38164 0.87311 0.0
C1107 C 0.0749 0.45273 0.92187 0.0
C1108 C 0.01875 0.39698 0.92407 0.0
C1109 C 0.08982 0.47192 0.93465 0.0
C1110 C 0.95286 0.3133 0.87982 0.0
C1111 C 0.97115 0.33186 0.89132 0.0
C1112 C 0.03206 0.38587 0.88713 0.0
C1113 C 0.06054 0.43029 0.93087 0.0
C1114 C 0.04268 0.41042 0.91783 0.0
C1115 C 0.9896 0.35183 0.88099 0.0
C1116 C 0.00804 0.37226 0.89345 0.0
H1117 H 0.0781 0.44315 0.9822 0.0
H1118 H 0.05152 0.40993 0.95994 0.0
H1119 H 0.06759 0.41502 0.89405 0.0
H1120 H 0.97178 0.3342 0.83021 0.0
H1121 H 0.00352 0.36739 0.85027 0.0
C1122 C 0.08794 0.57686 0.95536 0.0
C1123 C 0.10128 0.58837 0.97352 0.0
C1124 C 0.07233 0.58288 0.9458 0.0
C1125 C 0.03689 0.6083 0.95895 0.0
H1126 H 0.0262 0.60809 0.89846 0.0
C1127 C 0.95217 0.60162 0.92059 0.0
C1128 C 0.95501 0.61486 0.9021 0.0
C1129 C 0.97156 0.60088 0.92957 0.0
C1130 C 0.02914 0.60848 0.91538 0.0
H1131 H 0.10976 0.61553 0.99567 0.0
H1132 H 0.0827 0.62642 0.97881 0.0
H1133 H 0.05842 0.60329 0.91277 0.0
H1134 H 0.98045 0.63769 0.87855 0.0
H1135 H 0.0143 0.63672 0.89441 0.0
H1136 H 0.00764 0.61353 0.96157 0.0
C1137 C 0.08398 0.61257 0.97206 0.0
C1138 C 0.04744 0.60548 0.92358 0.0
C1139 C 0.09959 0.60655 0.9816 0.0
C1140 C 0.97776 0.62767 0.89302 0.0
C1141 C 0.99709 0.62685 0.90194 0.0
C1142 C 0.01856 0.61126 0.95076 0.0
C1143 C 0.06979 0.60047 0.95431 0.0
C1144 C 0.0514 0.60516 0.94546 0.0
C1145 C 0.99416 0.61322 0.92017 0.0
C1146 C 0.01434 0.61118 0.92889 0.0
H1147 H 0.08892 0.56264 0.94908 0.0
H1148 H 0.06149 0.57305 0.93229 0.0
H1149 H 0.03926 0.60786 0.9759 0.0
H1150 H 0.93485 0.59157 0.92791 0.0
H1151 H 0.96865 0.59002 0.94351 0.0
C1152 C 0.49521 0.98863 0.49443 0.0
C1153 C 0.50764 0.97739 0.49994 0.0
C1154 C 0.47614 0.97867 0.4797 0.0
C1155 C 0.43027 0.92293 0.45721 0.0
H1156 H 0.43001 0.95954 0.40867 0.0
C1157 C 0.35036 0.88755 0.39807 0.0
C1158 C 0.35654 0.88818 0.37704 0.0
C1159 C 0.36814 0.90024 0.41338 0.0
C1160 C 0.42986 0.94919 0.4222 0.0
H1161 H 0.51002 0.94706 0.4948 0.0
H1162 H 0.47612 0.92921 0.46942 0.0
H1163 H 0.46251 0.97781 0.43537 0.0
H1164 H 0.38584 0.90327 0.35528 0.0
H1165 H 0.41699 0.92592 0.38208 0.0
H1166 H 0.39772 0.89431 0.44409 0.0
C1167 C 0.48122 0.94575 0.47637 0.0
C1168 C 0.44831 0.95964 0.43748 0.0
C1169 C 0.50053 0.95591 0.4908 0.0
C1170 C 0.38067 0.90252 0.37141 0.0
C1171 C 0.39842 0.91551 0.38668 0.0
C1172 C 0.41163 0.91261 0.44214 0.0
C1173 C 0.46895 0.95712 0.47059 0.0
C1174 C 0.44881 0.9465 0.45497 0.0
C1175 C 0.39236 0.91404 0.40788 0.0
C1176 C 0.41139 0.92557 0.4244 0.0
H1177 H 0.50043 0.00519 0.50141 0.0
H1178 H 0.46684 0.98767 0.47559 0.0
H1179 H 0.43021 0.91248 0.47062 0.0
H1180 H 0.33191 0.8764 0.40285 0.0
H1181 H 0.36302 0.89892 0.42961 0.0
C1182 C 0.53449 0.40361 0.01279 0.0
C1183 C 0.54875 0.42779 0.00834 0.0
C1184 C 0.52637 0.38737 0.99658 0.0
C1185 C 0.53983 0.38137 0.94211 0.0
H1186 H 0.47466 0.32743 0.94077 0.0
C1187 C 0.5007 0.32303 0.86949 0.0
C1188 C 0.48754 0.29866 0.87302 0.0
C1189 C 0.50706 0.33834 0.88619 0.0
C1190 C 0.49298 0.34229 0.94104 0.0
H1191 H 0.56587 0.4538 0.98336 0.0
H1192 H 0.55135 0.42559 0.95513 0.0
H1193 H 0.48818 0.35493 0.96976 0.0
H1194 H 0.4703 0.27123 0.89684 0.0
H1195 H 0.48138 0.29802 0.92608 0.0
H1196 H 0.54469 0.36883 0.91345 0.0
C1197 C 0.5466 0.41913 0.97116 0.0
C1198 C 0.50073 0.35802 0.95765 0.0
C1199 C 0.55468 0.43533 0.98732 0.0
C1200 C 0.48024 0.28992 0.89357 0.0
C1201 C 0.48661 0.30526 0.91032 0.0
C1202 C 0.53209 0.36569 0.92554 0.0
C1203 C 0.53242 0.39496 0.97558 0.0
C1204 C 0.52421 0.37783 0.95829 0.0
C1205 C 0.50041 0.32965 0.90685 0.0
C1206 C 0.50854 0.34606 0.92472 0.0
H1207 H 0.52943 0.39723 0.0288 0.0
H1208 H 0.51565 0.36886 0.00054 0.0
H1209 H 0.55818 0.39617 0.94235 0.0
H1210 H 0.50622 0.3303 0.85377 0.0
H1211 H 0.51726 0.35703 0.88292 0.0
C1212 C 0.08754 0.45661 0.46296 0.0
C1213 C 0.06396 0.4397 0.46865 0.0
C1214 C 0.09849 0.45239 0.44686 0.0
C1215 C 0.09787 0.40574 0.41857 0.0
H1216 H 0.13627 0.45618 0.37897 0.0
C1217 C 0.15172 0.39781 0.35209 0.0
C1218 C 0.17501 0.41741 0.34935 0.0
C1219 C 0.1358 0.39891 0.36534 0.0
C1220 C 0.12574 0.44195 0.38998 0.0
H1221 H 0.03332 0.40509 0.46187 0.0
H1222 H 0.05266 0.39761 0.43355 0.0
H1223 H 0.1124 0.46102 0.40427 0.0
H1224 H 0.20019 0.45312 0.35909 0.0
H1225 H 0.17262 0.45502 0.38206 0.0
H1226 H 0.11177 0.38691 0.40456 0.0
C1227 C 0.06258 0.41413 0.44168 0.0
C1228 C 0.11203 0.44472 0.40443 0.0
C1229 C 0.05148 0.41846 0.45775 0.0
C1230 C 0.18218 0.43791 0.36043 0.0
C1231 C 0.16635 0.439 0.3736 0.0
C1232 C 0.11169 0.40299 0.40409 0.0
C1233 C 0.08619 0.43112 0.43605 0.0
C1234 C 0.09839 0.42688 0.4192 0.0
C1235 C 0.14291 0.41963 0.37608 0.0
C1236 C 0.12623 0.42131 0.38998 0.0
H1237 H 0.09751 0.47325 0.47089 0.0
H1238 H 0.11679 0.46572 0.44305 0.0
H1239 H 0.08761 0.39175 0.42985 0.0
H1240 H 0.14566 0.38181 0.34369 0.0
H1241 H 0.11783 0.38372 0.36687 0.0
C1242 C 0.62861 0.07873 0.01344 0.0
C1243 C 0.63213 0.07293 0.03413 0.0
C1244 C 0.64661 0.08625 0.99875 0.0
C1245 C 0.71076 0.11473 0.99249 0.0
H1246 H 0.69324 0.08267 0.93914 0.0
C1247 C 0.78008 0.14194 0.92712 0.0
C1248 C 0.77184 0.1424 0.90643 0.0
C1249 C 0.76385 0.13145 0.94352 0.0
C1250 C 0.69842 0.09201 0.95384 0.0
H1251 H 0.65717 0.07107 0.05607 0.0
H1252 H 0.68923 0.08505 0.03039 0.0
H1253 H 0.6634 0.06949 0.96633 0.0
H1254 H 0.73998 0.13116 0.88663 0.0
H1255 H 0.71199 0.11396 0.91512 0.0
H1256 H 0.74544 0.13796 0.97977 0.0
C1257 C 0.67242 0.08345 0.02554 0.0
C1258 C 0.68134 0.08436 0.96943 0.0
C1259 C 0.6542 0.0755 0.04015 0.0
C1260 C 0.74701 0.13152 0.90243 0.0
C1261 C 0.73087 0.12129 0.91879 0.0
C1262 C 0.7278 0.12266 0.97675 0.0
C1263 C 0.6686 0.08852 0.00463 0.0
C1264 C 0.68726 0.09583 0.98876 0.0
C1265 C 0.73905 0.1213 0.9396 0.0
C1266 C 0.72173 0.11161 0.95709 0.0
H1267 H 0.61174 0.07699 0.00857 0.0
H1268 H 0.64338 0.09033 0.98278 0.0
H1269 H 0.71569 0.12389 0.00729 0.0
H1270 H 0.7991 0.15026 0.93078 0.0
H1271 H 0.77079 0.1315 0.95929 0.0
C1272 C 0.62612 0.6238 0.52987 0.0
C1273 C 0.60149 0.60745 0.53192 0.0
C1274 C 0.63434 0.64014 0.5132 0.0
C1275 C 0.61465 0.6511 0.46055 0.0
H1276 H 0.67076 0.71359 0.46745 0.0
C1277 C 0.6415 0.72564 0.39916 0.0
C1278 C 0.66561 0.73819 0.39303 0.0
C1279 C 0.63418 0.70984 0.41619 0.0
C1280 C 0.65517 0.69612 0.46529 0.0
H1281 H 0.56601 0.59578 0.51899 0.0
H1282 H 0.5801 0.62491 0.49038 0.0
H1283 H 0.65666 0.6862 0.49742 0.0
H1284 H 0.7009 0.74384 0.40027 0.0
H1285 H 0.68811 0.71671 0.43047 0.0
H1286 H 0.61286 0.66139 0.42856 0.0
C1287 C 0.59327 0.62469 0.50106 0.0
C1288 C 0.64711 0.68037 0.48243 0.0
C1289 C 0.58512 0.60816 0.51753 0.0
C1290 C 0.68227 0.73475 0.40465 0.0
C1291 C 0.67496 0.71916 0.4219 0.0
C1292 C 0.62252 0.66695 0.44355 0.0
C1293 C 0.61802 0.64071 0.49846 0.0
C1294 C 0.6267 0.65763 0.48029 0.0
C1295 C 0.65081 0.70646 0.42773 0.0
C1296 C 0.64283 0.68961 0.44575 0.0
H1297 H 0.63901 0.62361 0.54096 0.0
H1298 H 0.65351 0.65197 0.51165 0.0
H1299 H 0.59924 0.63361 0.4581 0.0
H1300 H 0.62825 0.72822 0.39102 0.0
H1301 H 0.61551 0.70052 0.42055 0.0
C1302 C 0.53548 0.08039 0.59041 0.0
C1303 C 0.54573 0.06828 0.59969 0.0
C1304 C 0.52858 0.09244 0.60296 0.0
C1305 C 0.53933 0.11824 0.65567 0.0
H1306 H 0.47673 0.11054 0.64694 0.0
C1307 C 0.49774 0.14273 0.71928 0.0
C1308 C 0.48699 0.15542 0.71303 0.0
C1309 C 0.5043 0.13262 0.70431 0.0
C1310 C 0.49437 0.11307 0.64941 0.0
H1311 H 0.55745 0.05989 0.62926 0.0
H1312 H 0.54523 0.08057 0.65106 0.0
H1313 H 0.49028 0.09287 0.62243 0.0
H1314 H 0.47398 0.16681 0.68621 0.0
H1315 H 0.48543 0.14896 0.65991 0.0
H1316 H 0.54339 0.13814 0.68272 0.0
C1317 C 0.54257 0.08089 0.63414 0.0
C1318 C 0.50215 0.10301 0.63536 0.0
C1319 C 0.54933 0.06882 0.62166 0.0
C1320 C 0.4821 0.15701 0.69149 0.0
C1321 C 0.48868 0.14684 0.67645 0.0
C1322 C 0.53158 0.12824 0.66966 0.0
C1323 C 0.53206 0.09279 0.62497 0.0
C1324 C 0.52454 0.10515 0.63859 0.0
C1325 C 0.50028 0.13493 0.68271 0.0
C1326 C 0.50885 0.12542 0.66693 0.0
H1327 H 0.53238 0.08017 0.57352 0.0
H1328 H 0.52066 0.10159 0.59545 0.0
H1329 H 0.55688 0.12063 0.65833 0.0
H1330 H 0.50126 0.14077 0.73579 0.0
H1331 H 0.51267 0.12306 0.70966 0.0
C1332 C 0.5243 0.49478 0.13599 0.0
C1333 C 0.52283 0.47581 0.12593 0.0
C1334 C 0.50649 0.4911 0.14972 0.0
C1335 C 0.45947 0.44783 0.18397 0.0
H1336 H 0.42969 0.48403 0.17311 0.0
C1337 C 0.37403 0.42712 0.22656 0.0
C1338 C 0.37092 0.4457 0.23096 0.0
C1339 C 0.39312 0.43089 0.21446 0.0
C1340 C 0.43804 0.47405 0.17669 0.0
H1341 H 0.50188 0.4382 0.12223 0.0
H1342 H 0.47095 0.43157 0.14692 0.0
H1343 H 0.46241 0.49055 0.15133 0.0
H1344 H 0.38592 0.48301 0.22607 0.0
H1345 H 0.41982 0.4898 0.20612 0.0
H1346 H 0.43567 0.43172 0.20967 0.0
C1347 C 0.48589 0.44927 0.14415 0.0
C1348 C 0.45673 0.47773 0.16409 0.0
C1349 C 0.50353 0.45302 0.13012 0.0
C1350 C 0.38778 0.46827 0.22329 0.0
C1351 C 0.40709 0.47211 0.21147 0.0
C1352 C 0.44103 0.4444 0.19683 0.0
C1353 C 0.48704 0.46832 0.15383 0.0
C1354 C 0.46755 0.4646 0.16755 0.0
C1355 C 0.4099 0.45343 0.20667 0.0
C1356 C 0.42996 0.45739 0.19331 0.0
H1357 H 0.53902 0.51252 0.13287 0.0
H1358 H 0.50785 0.50605 0.15707 0.0
H1359 H 0.46768 0.43762 0.18706 0.0
H1360 H 0.36172 0.40956 0.23247 0.0
H1361 H 0.39442 0.41598 0.21094 0.0
C1362 C 0.97646 0.3835 0.58764 0.0
C1363 C 0.9845 0.40727 0.58962 0.0
C1364 C 0.96644 0.36805 0.60481 0.0
C1365 C 0.96653 0.36726 0.6627 0.0
H1366 H 0.909 0.30562 0.65658 0.0
C1367 C 0.91767 0.30863 0.73456 0.0
C1368 C 0.9078 0.28438 0.73311 0.0
C1369 C 0.92703 0.32331 0.71686 0.0
C1370 C 0.92527 0.32265 0.65851 0.0
H1371 H 0.98851 0.43374 0.61068 0.0
H1372 H 0.97097 0.40678 0.6408 0.0
H1373 H 0.92494 0.33171 0.62585 0.0
H1374 H 0.90004 0.25657 0.71181 0.0
H1375 H 0.91703 0.28228 0.68107 0.0
H1376 H 0.96711 0.35824 0.69524 0.0
C1377 C 0.97244 0.40003 0.62608 0.0
C1378 C 0.93435 0.33761 0.64091 0.0
C1379 C 0.9823 0.4154 0.60889 0.0
C1380 C 0.90774 0.2752 0.71355 0.0
C1381 C 0.91719 0.2899 0.69584 0.0
C1382 C 0.95755 0.35229 0.68025 0.0
C1383 C 0.96457 0.37621 0.62429 0.0
C1384 C 0.955 0.36013 0.64285 0.0
C1385 C 0.92689 0.31414 0.69727 0.0
C1386 C 0.93673 0.32984 0.67842 0.0
H1387 H 0.97832 0.37703 0.57293 0.0
H1388 H 0.96076 0.34985 0.60302 0.0
H1389 H 0.98273 0.38436 0.66462 0.0
H1390 H 0.91828 0.31635 0.74943 0.0
H1391 H 0.93409 0.34184 0.71851 0.0
C1392 C 0.61899 0.99805 0.15677 0.0
C1393 C 0.61659 0.99705 0.1347 0.0
C1394 C 0.63099 0.98867 0.16767 0.0
C1395 C 0.64899 0.94567 0.16265 0.0
H1396 H 0.68777 0.97597 0.21265 0.0
C1397 C 0.69311 0.9049 0.21376 0.0
C1398 C 0.68829 0.9034 0.23528 0.0
C1399 C 0.68853 0.91898 0.20009 0.0
C1400 C 0.67701 0.96732 0.19871 0.0
H1401 H 0.62535 0.98582 0.10671 0.0
H1402 H 0.64638 0.96943 0.12576 0.0
H1403 H 0.67144 0.99539 0.19117 0.0
H1404 H 0.67627 0.9163 0.25965 0.0
H1405 H 0.66832 0.94083 0.23591 0.0
H1406 H 0.65421 0.91741 0.17045 0.0
C1407 C 0.63867 0.9772 0.13466 0.0
C1408 C 0.66758 0.97839 0.18645 0.0
C1409 C 0.6266 0.98655 0.12375 0.0
C1410 C 0.67992 0.91701 0.24307 0.0
C1411 C 0.67559 0.9312 0.2295 0.0
C1412 C 0.6585 0.93464 0.17488 0.0
C1413 C 0.64096 0.97811 0.15676 0.0
C1414 C 0.65298 0.96745 0.16855 0.0
C1415 C 0.67939 0.932 0.2078 0.0
C1416 C 0.67215 0.94511 0.19331 0.0
H1417 H 0.61117 0.00571 0.16569 0.0
H1418 H 0.63199 0.98924 0.18472 0.0
H1419 H 0.63764 0.93665 0.14908 0.0
H1420 H 0.69951 0.89451 0.20739 0.0
H1421 H 0.69179 0.9194 0.18345 0.0
C1422 C 0.66013 0.59202 0.65592 0.0
C1423 C 0.63521 0.57799 0.65857 0.0
C1424 C 0.67595 0.59792 0.67326 0.0
C1425 C 0.68047 0.57596 0.72535 0.0
H1426 H 0.73708 0.63808 0.73233 0.0
C1427 C 0.75013 0.5949 0.79225 0.0
C1428 C 0.77429 0.60876 0.78661 0.0
C1429 C 0.73199 0.59336 0.77874 0.0
C1430 C 0.72145 0.62059 0.73054 0.0
H1431 H 0.60727 0.55936 0.68143 0.0
H1432 H 0.63498 0.56955 0.71178 0.0
H1433 H 0.70757 0.63129 0.70438 0.0
H1434 H 0.79846 0.63184 0.76248 0.0
H1435 H 0.76699 0.62887 0.73881 0.0
H1436 H 0.69469 0.56491 0.75082 0.0
C1437 C 0.64223 0.57602 0.69628 0.0
C1438 C 0.70453 0.61675 0.71457 0.0
C1439 C 0.62639 0.57034 0.67895 0.0
C1440 C 0.78001 0.62142 0.76745 0.0
C1441 C 0.76192 0.61971 0.75388 0.0
C1442 C 0.69749 0.57973 0.74119 0.0
C1443 C 0.66716 0.58969 0.69357 0.0
C1444 C 0.68405 0.59432 0.71162 0.0
C1445 C 0.73764 0.60542 0.7592 0.0
C1446 C 0.7184 0.60201 0.74377 0.0
H1447 H 0.6674 0.59829 0.64039 0.0
H1448 H 0.69509 0.60831 0.67068 0.0
H1449 H 0.66498 0.55842 0.72329 0.0
H1450 H 0.74527 0.58503 0.80698 0.0
H1451 H 0.71352 0.58248 0.7835 0.0
C1452 C 0.22261 0.65857 0.07493 0.0
C1453 C 0.19828 0.64826 0.06892 0.0
C1454 C 0.23326 0.67679 0.08938 0.0
C1455 C 0.22531 0.72041 0.11602 0.0
H1456 H 0.25945 0.71083 0.16255 0.0
C1457 C 0.237 0.75925 0.19818 0.0
C1458 C 0.25773 0.76516 0.21037 0.0
C1459 C 0.23329 0.74922 0.17842 0.0
C1460 C 0.25043 0.71414 0.14951 0.0
H1461 H 0.16647 0.64989 0.0723 0.0
H1462 H 0.18494 0.68144 0.09768 0.0
H1463 H 0.2468 0.68581 0.13205 0.0
H1464 H 0.29154 0.76667 0.2109 0.0
H1465 H 0.28525 0.74945 0.17625 0.0
H1466 H 0.22845 0.74842 0.13378 0.0
C1467 C 0.19583 0.67554 0.09122 0.0
C1468 C 0.24316 0.69975 0.13199 0.0
C1469 C 0.18517 0.65728 0.07687 0.0
C1470 C 0.27522 0.76193 0.20196 0.0
C1471 C 0.27158 0.75203 0.18215 0.0
C1472 C 0.23267 0.73489 0.13353 0.0
C1473 C 0.21984 0.68515 0.098 0.0
C1474 C 0.23008 0.70239 0.11525 0.0
C1475 C 0.25029 0.745 0.17038 0.0
C1476 C 0.24489 0.7316 0.15068 0.0
H1477 H 0.23314 0.65193 0.06913 0.0
H1478 H 0.25188 0.68401 0.09416 0.0
H1479 H 0.21553 0.72306 0.10321 0.0
H1480 H 0.2231 0.76132 0.20436 0.0
H1481 H 0.21654 0.74375 0.16993 0.0
loop_
_geom_bond_atom_site_label_1
_geom_bond_atom_site_label_2
_geom_bond_distance
_geom_bond_site_symmetry_2
_ccdc_geom_bond_type
C0 C1 1.443 . S
C0 N4 1.376 . S
C0 C38 1.389 . S
C1 C0 1.443 . S
C1 C2 1.340 1_556 S
C1 H41 0.951 . S
C2 C1 1.340 1_554 S
C2 C3 1.439 . S
C2 H42 0.950 . S
C3 C2 1.439 . S
C3 N4 1.374 1_554 S
C3 C37 1.395 . S
N4 C0 1.376 . S
N4 C3 1.374 1_556 S
N4 Co5 2.008 1_556 S
Co5 N4 2.008 1_554 S
Co5 N6 1.997 . S
Co5 N11 2.008 . S
Co5 N16 1.992 1_554 S
Co5 N21 2.284 . S
Co5 N27 2.281 1_554 S
N6 Co5 1.997 . S
N6 C7 1.376 . S
N6 C10 1.383 . S
C7 N6 1.376 . S
C7 C8 1.446 . S
C7 C37 1.391 . S
C8 C7 1.446 . S
C8 C9 1.339 . S
C8 H43 0.949 . S
C9 C8 1.339 . S
C9 C10 1.439 . S
C9 H44 0.950 . S
C10 N6 1.383 . S
C10 C9 1.439 . S
C10 C39 1.392 . S
N11 Co5 2.008 . S
N11 C12 1.376 . S
N11 C15 1.374 1_554 S
C12 N11 1.376 . S
C12 C13 1.443 . S
C12 C39 1.389 . S
C13 C12 1.443 . S
C13 C14 1.340 1_554 S
C13 H45 0.951 . S
C14 C13 1.340 1_556 S
C14 C15 1.439 . S
C14 H46 0.950 . S
C15 N11 1.374 1_556 S
C15 C14 1.439 . S
C15 C40 1.395 . S
N16 Co5 1.992 1_556 S
N16 C17 1.376 . S
N16 C20 1.383 . S
C17 N16 1.376 . S
C17 C18 1.446 . S
C17 C40 1.391 . S
C18 C17 1.446 . S
C18 C19 1.339 . S
C18 H47 0.949 . S
C19 C18 1.339 . S
C19 C20 1.439 . S
C19 H48 0.950 . S
C20 N16 1.383 . S
C20 C19 1.439 . S
C20 C38 1.392 . S
N21 Co5 2.284 . S
N21 C24 1.332 . S
N21 C26 1.332 . S
C22 C23 1.386 . S
C22 C25 1.388 . S
C23 C22 1.386 . S
C23 C24 1.382 . S
C23 H49 0.950 . S
C24 N21 1.332 . S
C24 C23 1.382 . S
C24 H35 0.952 . S
C25 C22 1.388 . S
C25 C26 1.382 . S
C25 H50 0.950 . S
C26 N21 1.332 . S
C26 C25 1.382 . S
C26 H36 0.948 . S
N27 Co5 2.281 1_556 S
N27 C31 1.332 . S
N27 C32 1.332 . S
C28 C29 1.388 . S
C28 C32 1.382 . S
C28 H51 0.950 . S
C29 C28 1.388 . S
C29 C30 1.386 . S
C30 C29 1.386 . S
C30 C31 1.382 . S
C30 H52 0.950 . S
C31 N27 1.332 . S
C31 C30 1.382 . S
C31 H33 0.952 . S
C32 N27 1.332 . S
C32 C28 1.382 . S
C32 H34 0.948 . S
H33 C31 0.952 . S
H34 C32 0.948 . S
H35 C24 0.952 . S
H36 C26 0.948 . S
C37 C3 1.395 . S
C37 C7 1.391 . S
C38 C0 1.389 . S
C38 C20 1.392 . S
C39 C10 1.392 . S
C39 C12 1.389 . S
C40 C15 1.395 . S
C40 C17 1.391 . S
H41 C1 0.951 . S
H42 C2 0.950 . S
H43 C8 0.949 . S
H44 C9 0.950 . S
H45 C13 0.951 . S
H46 C14 0.950 . S
H47 C18 0.949 . S
H48 C19 0.950 . S
H49 C23 0.950 . S
H50 C25 0.950 . S
H51 C28 0.950 . S
H52 C30 0.950 . S
C53 C54 1.443 . S
C53 N57 1.376 . S
C53 C91 1.389 . S
C54 C53 1.443 . S
C54 C55 1.340 1_545 S
C54 H94 0.951 . S
C55 C54 1.340 1_565 S
C55 C56 1.439 . S
C55 H95 0.950 . S
C56 C55 1.439 . S
C56 N57 1.374 1_565 S
C56 C90 1.395 . S
N57 C53 1.376 . S
N57 C56 1.374 1_545 S
N57 Co58 2.008 . S
Co58 N57 2.008 . S
Co58 N59 1.995 1_545 S
Co58 N64 2.008 . S
Co58 N69 1.995 . S
Co58 N74 2.282 1_545 S
Co58 N80 2.282 . S
N59 Co58 1.995 1_565 S
N59 C60 1.376 . S
N59 C63 1.383 . S
C60 N59 1.376 . S
C60 C61 1.446 . S
C60 C90 1.391 . S
C61 C60 1.446 . S
C61 C62 1.339 . S
C61 H96 0.949 . S
C62 C61 1.339 . S
C62 C63 1.439 . S
C62 H97 0.950 . S
C63 N59 1.383 . S
C63 C62 1.439 . S
C63 C92 1.392 . S
N64 Co58 2.008 . S
N64 C65 1.376 . S
N64 C68 1.374 . S
C65 N64 1.376 . S
C65 C66 1.443 . S
C65 C92 1.389 1_545 S
C66 C65 1.443 . S
C66 C67 1.340 . S
C66 H98 0.951 . S
C67 C66 1.340 . S
C67 C68 1.439 . S
C67 H99 0.950 . S
C68 N64 1.374 . S
C68 C67 1.439 . S
C68 C93 1.395 . S
N69 Co58 1.995 . S
N69 C70 1.376 . S
N69 C73 1.383 . S
C70 N69 1.376 . S
C70 C71 1.446 . S
C70 C93 1.391 . S
C71 C70 1.446 . S
C71 C72 1.339 . S
C71 H100 0.949 . S
C72 C71 1.339 . S
C72 C73 1.439 . S
C72 H101 0.950 . S
C73 N69 1.383 . S
C73 C72 1.439 . S
C73 C91 1.392 . S
N74 Co58 2.282 1_565 S
N74 C77 1.332 1_565 S
N74 C79 1.332 . S
C75 C76 1.386 . S
C75 C78 1.388 . S
C76 C75 1.386 . S
C76 C77 1.382 1_565 S
C76 H102 0.950 1_565 S
C77 N74 1.332 1_545 S
C77 C76 1.382 1_545 S
C77 H88 0.952 . S
C78 C75 1.388 . S
C78 C79 1.382 . S
C78 H103 0.950 . S
C79 N74 1.332 . S
C79 C78 1.382 . S
C79 H89 0.948 . S
N80 Co58 2.282 . S
N80 C84 1.332 . S
N80 C85 1.332 . S
C81 C82 1.388 . S
C81 C85 1.382 . S
C81 H104 0.950 . S
C82 C81 1.388 . S
C82 C83 1.386 . S
C83 C82 1.386 . S
C83 C84 1.382 . S
C83 H105 0.950 . S
C84 N80 1.332 . S
C84 C83 1.382 . S
C84 H86 0.930 1_545 S
C85 N80 1.332 . S
C85 C81 1.382 . S
C85 H87 0.948 . S
H86 C84 0.930 1_565 S
H87 C85 0.948 . S
H88 C77 0.952 . S
H89 C79 0.948 . S
C90 C56 1.395 . S
C90 C60 1.391 . S
C91 C53 1.389 . S
C91 C73 1.392 . S
C92 C63 1.392 . S
C92 C65 1.389 1_565 S
C93 C68 1.395 . S
C93 C70 1.391 . S
H94 C54 0.951 . S
H95 C55 0.950 . S
H96 C61 0.949 . S
H97 C62 0.950 . S
H98 C66 0.951 . S
H99 C67 0.950 . S
H100 C71 0.949 . S
H101 C72 0.950 . S
H102 C76 0.950 1_545 S
H103 C78 0.950 . S
H104 C81 0.950 . S
H105 C83 0.950 . S
C106 C107 1.443 . S
C106 N110 1.376 . S
C106 C144 1.389 . S
C107 C106 1.443 . S
C107 C108 1.340 . S
C107 H147 0.951 . S
C108 C107 1.340 . S
C108 C109 1.439 . S
C108 H148 0.950 . S
C109 C108 1.439 . S
C109 N110 1.374 . S
C109 C143 1.395 . S
N110 C106 1.376 . S
N110 C109 1.374 . S
N110 Co111 2.008 . S
Co111 N110 2.008 . S
Co111 N112 1.995 . S
Co111 N117 2.008 . S
Co111 N122 1.995 . S
Co111 N127 2.282 . S
Co111 N133 2.282 . S
N112 Co111 1.995 . S
N112 C113 1.376 . S
N112 C116 1.383 . S
C113 N112 1.376 . S
C113 C114 1.446 . S
C113 C143 1.391 . S
C114 C113 1.446 . S
C114 C115 1.339 . S
C114 H149 0.949 . S
C115 C114 1.339 . S
C115 C116 1.439 . S
C115 H150 0.950 . S
C116 N112 1.383 . S
C116 C115 1.439 . S
C116 C145 1.392 . S
N117 Co111 2.008 . S
N117 C118 1.376 . S
N117 C121 1.374 . S
C118 N117 1.376 . S
C118 C119 1.443 . S
C118 C145 1.389 . S
C119 C118 1.443 . S
C119 C120 1.340 . S
C119 H151 0.951 . S
C120 C119 1.340 . S
C120 C121 1.439 . S
C120 H152 0.950 . S
C121 N117 1.374 . S
C121 C120 1.439 . S
C121 C146 1.395 . S
N122 Co111 1.995 . S
N122 C123 1.376 . S
N122 C126 1.383 . S
C123 N122 1.376 . S
C123 C124 1.446 . S
C123 C146 1.391 . S
C124 C123 1.446 . S
C124 C125 1.339 . S
C124 H153 0.949 . S
C125 C124 1.339 . S
C125 C126 1.439 . S
C125 H154 0.950 . S
C126 N122 1.383 . S
C126 C125 1.439 . S
C126 C144 1.392 . S
N127 Co111 2.282 . S
N127 C130 1.332 . S
N127 C132 1.332 . S
C128 C129 1.386 . S
C128 C131 1.388 . S
C129 C128 1.386 . S
C129 C130 1.382 . S
C129 H155 0.950 . S
C130 N127 1.332 . S
C130 C129 1.382 . S
C130 H141 0.952 . S
C131 C128 1.388 . S
C131 C132 1.382 . S
C131 H156 0.950 . S
C132 N127 1.332 . S
C132 C131 1.382 . S
C132 H142 0.948 . S
N133 Co111 2.282 . S
N133 C137 1.332 . S
N133 C138 1.332 . S
C134 C135 1.388 . S
C134 C138 1.382 . S
C134 H157 0.950 . S
C135 C134 1.388 . S
C135 C136 1.386 . S
C136 C135 1.386 . S
C136 C137 1.382 . S
C136 H158 0.950 . S
C137 N133 1.332 . S
C137 C136 1.382 . S
C137 H139 0.952 . S
C138 N133 1.332 . S
C138 C134 1.382 . S
C138 H140 0.948 . S
H139 C137 0.952 . S
H140 C138 0.948 . S
H141 C130 0.952 . S
H142 C132 0.948 . S
C143 C109 1.395 . S
C143 C113 1.391 . S
C144 C106 1.389 . S
C144 C126 1.392 . S
C145 C116 1.392 . S
C145 C118 1.389 . S
C146 C121 1.395 . S
C146 C123 1.391 . S
H147 C107 0.951 . S
H148 C108 0.950 . S
H149 C114 0.949 . S
H150 C115 0.950 . S
H151 C119 0.951 . S
H152 C120 0.950 . S
H153 C124 0.949 . S
H154 C125 0.950 . S
H155 C129 0.950 . S
H156 C131 0.950 . S
H157 C134 0.950 . S
H158 C136 0.950 . S
C159 C160 1.443 . S
C159 N163 1.376 . S
C159 C197 1.389 . S
C160 C159 1.443 . S
C160 C161 1.340 . S
C160 H200 0.951 . S
C161 C160 1.340 . S
C161 C162 1.439 . S
C161 H201 0.950 . S
C162 C161 1.439 . S
C162 N163 1.374 . S
C162 C196 1.395 . S
N163 C159 1.376 . S
N163 C162 1.374 . S
N163 Co164 2.008 1_655 S
Co164 N163 2.008 1_455 S
Co164 N165 1.995 1_455 S
Co164 N170 2.008 . S
Co164 N175 1.995 . S
Co164 N180 2.282 . S
Co164 N186 2.282 1_455 S
N165 Co164 1.995 1_655 S
N165 C166 1.376 . S
N165 C169 1.383 1_655 S
C166 N165 1.376 . S
C166 C167 1.446 . S
C166 C196 1.391 . S
C167 C166 1.446 . S
C167 C168 1.339 . S
C167 H202 0.949 . S
C168 C167 1.339 . S
C168 C169 1.439 1_655 S
C168 H203 0.950 1_655 S
C169 N165 1.383 1_455 S
C169 C168 1.439 1_455 S
C169 C198 1.392 . S
N170 Co164 2.008 . S
N170 C171 1.376 . S
N170 C174 1.374 . S
C171 N170 1.376 . S
C171 C172 1.443 . S
C171 C198 1.389 . S
C172 C171 1.443 . S
C172 C173 1.340 . S
C172 H204 0.951 . S
C173 C172 1.340 . S
C173 C174 1.439 . S
C173 H205 0.950 . S
C174 N170 1.374 . S
C174 C173 1.439 . S
C174 C199 1.395 . S
N175 Co164 1.995 . S
N175 C176 1.376 . S
N175 C179 1.383 1_455 S
C176 N175 1.376 . S
C176 C177 1.446 . S
C176 C199 1.391 . S
C177 C176 1.446 . S
C177 C178 1.339 . S
C177 H206 0.949 . S
C178 C177 1.339 . S
C178 C179 1.439 1_455 S
C178 H207 0.950 . S
C179 N175 1.383 1_655 S
C179 C178 1.439 1_655 S
C179 C197 1.392 . S
N180 Co164 2.282 . S
N180 C183 1.332 . S
N180 C185 1.332 . S
C181 C182 1.386 . S
C181 C184 1.388 . S
C182 C181 1.386 . S
C182 C183 1.382 . S
C182 H208 0.950 . S
C183 N180 1.332 . S
C183 C182 1.382 . S
C183 H194 0.952 . S
C184 C181 1.388 . S
C184 C185 1.382 . S
C184 H209 0.950 . S
C185 N180 1.332 . S
C185 C184 1.382 . S
C185 H195 0.948 1_455 S
N186 Co164 2.282 1_655 S
N186 C190 1.332 . S
N186 C191 1.332 . S
C187 C188 1.388 . S
C187 C191 1.382 . S
C187 H210 0.950 . S
C188 C187 1.388 . S
C188 C189 1.386 . S
C189 C188 1.386 . S
C189 C190 1.382 . S
C189 H211 0.950 . S
C190 N186 1.332 . S
C190 C189 1.382 . S
C190 H192 0.952 . S
C191 N186 1.332 . S
C191 C187 1.382 . S
C191 H193 0.948 1_655 S
H192 C190 0.952 . S
H193 C191 0.948 1_455 S
H194 C183 0.952 . S
H195 C185 0.948 1_655 S
C196 C162 1.395 . S
C196 C166 1.391 . S
C197 C159 1.389 . S
C197 C179 1.392 . S
C198 C169 1.392 . S
C198 C171 1.389 . S
C199 C174 1.395 . S
C199 C176 1.391 . S
H200 C160 0.951 . S
H201 C161 0.950 . S
H202 C167 0.949 . S
H203 C168 0.950 1_455 S
H204 C172 0.951 . S
H205 C173 0.950 . S
H206 C177 0.949 . S
H207 C178 0.950 . S
H208 C182 0.950 . S
H209 C184 0.950 . S
H210 C187 0.950 . S
H211 C189 0.950 . S
C212 C213 1.443 . S
C212 N216 1.376 . S
C212 C250 1.389 . S
C213 C212 1.443 . S
C213 C214 1.340 . S
C213 H253 0.951 . S
C214 C213 1.340 . S
C214 C215 1.439 . S
C214 H254 0.950 . S
C215 C214 1.439 . S
C215 N216 1.374 . S
C215 C249 1.395 . S
N216 C212 1.376 . S
N216 C215 1.374 . S
N216 Co217 2.008 . S
Co217 N216 2.008 . S
Co217 N218 1.995 . S
Co217 N223 2.008 . S
Co217 N228 1.995 . S
Co217 N233 2.282 . S
Co217 N239 2.282 . S
N218 Co217 1.995 . S
N218 C219 1.376 . S
N218 C222 1.383 . S
C219 N218 1.376 . S
C219 C220 1.446 . S
C219 C249 1.391 . S
C220 C219 1.446 . S
C220 C221 1.339 . S
C220 H255 0.949 . S
C221 C220 1.339 . S
C221 C222 1.439 . S
C221 H256 0.950 . S
C222 N218 1.383 . S
C222 C221 1.439 . S
C222 C251 1.392 . S
N223 Co217 2.008 . S
N223 C224 1.376 . S
N223 C227 1.374 . S
C224 N223 1.376 . S
C224 C225 1.443 . S
C224 C251 1.389 . S
C225 C224 1.443 . S
C225 C226 1.340 . S
C225 H257 0.951 . S
C226 C225 1.340 . S
C226 C227 1.439 . S
C226 H258 0.950 . S
C227 N223 1.374 . S
C227 C226 1.439 . S
C227 C252 1.395 . S
N228 Co217 1.995 . S
N228 C229 1.376 . S
N228 C232 1.383 . S
C229 N228 1.376 . S
C229 C230 1.446 1_545 S
C229 C252 1.391 . S
C230 C229 1.446 1_565 S
C230 C231 1.339 . S
C230 H259 0.949 . S
C231 C230 1.339 . S
C231 C232 1.439 1_565 S
C231 H260 0.950 . S
C232 N228 1.383 . S
C232 C231 1.439 1_545 S
C232 C250 1.392 . S
N233 Co217 2.282 . S
N233 C236 1.332 . S
N233 C238 1.332 . S
C234 C235 1.386 . S
C234 C237 1.388 . S
C235 C234 1.386 . S
C235 C236 1.382 . S
C235 H261 0.950 . S
C236 N233 1.332 . S
C236 C235 1.382 . S
C236 H247 0.952 . S
C237 C234 1.388 . S
C237 C238 1.382 . S
C237 H262 0.950 . S
C238 N233 1.332 . S
C238 C237 1.382 . S
C238 H248 0.948 . S
N239 Co217 2.282 . S
N239 C243 1.332 . S
N239 C244 1.332 . S
C240 C241 1.388 1_565 S
C240 C244 1.382 1_565 S
C240 H263 0.950 . S
C241 C240 1.388 1_545 S
C241 C242 1.386 . S
C242 C241 1.386 . S
C242 C243 1.382 . S
C242 H264 0.950 . S
C243 N239 1.332 . S
C243 C242 1.382 . S
C243 H245 0.952 . S
C244 N239 1.332 . S
C244 C240 1.382 1_545 S
C244 H246 0.958 . S
H245 C243 0.952 . S
H246 C244 0.958 . S
H247 C236 0.952 . S
H248 C238 0.948 . S
C249 C215 1.395 . S
C249 C219 1.391 . S
C250 C212 1.389 . S
C250 C232 1.392 . S
C251 C222 1.392 . S
C251 C224 1.389 . S
C252 C227 1.395 . S
C252 C229 1.391 . S
H253 C213 0.951 . S
H254 C214 0.950 . S
H255 C220 0.949 . S
H256 C221 0.950 . S
H257 C225 0.951 . S
H258 C226 0.950 . S
H259 C230 0.949 . S
H260 C231 0.950 . S
H261 C235 0.950 . S
H262 C237 0.950 . S
H263 C240 0.950 . S
H264 C242 0.950 . S
C265 C266 1.443 . S
C265 N269 1.376 . S
C265 C303 1.389 . S
C266 C265 1.443 . S
C266 C267 1.340 . S
C266 H306 0.951 . S
C267 C266 1.340 . S
C267 C268 1.439 . S
C267 H307 0.950 . S
C268 C267 1.439 . S
C268 N269 1.374 . S
C268 C302 1.395 . S
N269 C265 1.376 . S
N269 C268 1.374 . S
N269 Co270 2.008 . S
Co270 N269 2.008 . S
Co270 N271 1.995 . S
Co270 N276 2.008 . S
Co270 N281 1.995 . S
Co270 N286 2.282 . S
Co270 N292 2.282 . S
N271 Co270 1.995 . S
N271 C272 1.376 . S
N271 C275 1.383 . S
C272 N271 1.376 . S
C272 C273 1.446 . S
C272 C302 1.391 . S
C273 C272 1.446 . S
C273 C274 1.339 . S
C273 H308 0.949 . S
C274 C273 1.339 . S
C274 C275 1.439 . S
C274 H309 0.950 . S
C275 N271 1.383 . S
C275 C274 1.439 . S
C275 C304 1.392 . S
N276 Co270 2.008 . S
N276 C277 1.376 . S
N276 C280 1.374 . S
C277 N276 1.376 . S
C277 C278 1.443 . S
C277 C304 1.389 . S
C278 C277 1.443 . S
C278 C279 1.340 . S
C278 H310 0.951 . S
C279 C278 1.340 . S
C279 C280 1.439 . S
C279 H311 0.950 . S
C280 N276 1.374 . S
C280 C279 1.439 . S
C280 C305 1.395 . S
N281 Co270 1.995 . S
N281 C282 1.376 . S
N281 C285 1.383 . S
C282 N281 1.376 . S
C282 C283 1.446 . S
C282 C305 1.391 . S
C283 C282 1.446 . S
C283 C284 1.339 . S
C283 H312 0.949 . S
C284 C283 1.339 . S
C284 C285 1.439 . S
C284 H313 0.950 . S
C285 N281 1.383 . S
C285 C284 1.439 . S
C285 C303 1.392 . S
N286 Co270 2.282 . S
N286 C289 1.332 . S
N286 C291 1.332 . S
C287 C288 1.386 . S
C287 C290 1.388 . S
C288 C287 1.386 . S
C288 C289 1.382 . S
C288 H314 0.950 . S
C289 N286 1.332 . S
C289 C288 1.382 . S
C289 H300 0.952 . S
C290 C287 1.388 . S
C290 C291 1.382 . S
C290 H315 0.950 . S
C291 N286 1.332 . S
C291 C290 1.382 . S
C291 H301 0.948 . S
N292 Co270 2.282 . S
N292 C296 1.332 . S
N292 C297 1.332 . S
C293 C294 1.388 . S
C293 C297 1.382 . S
C293 H316 0.950 . S
C294 C293 1.388 . S
C294 C295 1.386 . S
C295 C294 1.386 . S
C295 C296 1.382 . S
C295 H317 0.950 . S
C296 N292 1.332 . S
C296 C295 1.382 . S
C296 H298 0.952 . S
C297 N292 1.332 . S
C297 C293 1.382 . S
C297 H299 0.948 . S
H298 C296 0.952 . S
H299 C297 0.948 . S
H300 C289 0.952 . S
H301 C291 0.948 . S
C302 C268 1.395 . S
C302 C272 1.391 . S
C303 C265 1.389 . S
C303 C285 1.392 . S
C304 C275 1.392 . S
C304 C277 1.389 . S
C305 C280 1.395 . S
C305 C282 1.391 . S
H306 C266 0.951 . S
H307 C267 0.950 . S
H308 C273 0.949 . S
H309 C274 0.950 . S
H310 C278 0.951 . S
H311 C279 0.950 . S
H312 C283 0.949 . S
H313 C284 0.950 . S
H314 C288 0.950 . S
H315 C290 0.950 . S
H316 C293 0.950 . S
H317 C295 0.950 . S
H318 O344 0.856 . S
H319 O347 0.854 . S
H320 C355 0.930 . S
H321 C356 0.930 . S
H322 C358 0.930 . S
H323 C359 0.930 . S
H324 C361 0.931 . S
H325 C362 0.930 . S
H326 C364 0.930 . S
H327 C365 0.929 . S
H328 C367 0.930 . S
H329 C368 0.931 . S
H330 C370 0.930 . S
H331 C371 0.929 . S
H332 C373 0.931 . S
H333 C374 0.930 . S
H334 C376 0.930 . S
H335 C377 0.932 . S
H336 C379 0.930 . S
H337 C380 0.929 . S
H338 C382 0.931 . S
H339 C383 0.930 . S
H340 C385 0.929 . S
H341 C386 0.931 . S
H342 C388 0.930 . S
H343 C389 0.929 . S
O344 H318 0.856 . S
O344 C390 1.300 . S
O345 C390 1.209 . S
O346 C391 1.199 . S
O347 H319 0.854 . S
O347 C391 1.297 . S
C348 C349 1.404 . S
C348 C353 1.397 . S
C348 C354 1.492 . S
C349 C348 1.404 . S
C349 C350 1.396 . S
C349 C360 1.492 . S
C350 C349 1.396 . S
C350 C351 1.397 . S
C350 C366 1.509 . S
C351 C350 1.397 . S
C351 C352 1.412 . S
C351 C372 1.485 . S
C352 C351 1.412 . S
C352 C353 1.388 . S
C352 C378 1.490 . S
C353 C348 1.397 . S
C353 C352 1.388 . S
C353 C384 1.519 . S
C354 C348 1.492 . S
C354 C355 1.363 . S
C354 C359 1.390 . S
C355 H320 0.930 . S
C355 C354 1.363 . S
C355 C356 1.372 . S
C356 H321 0.930 . S
C356 C355 1.372 . S
C356 C357 1.383 . S
C357 C356 1.383 . S
C357 C358 1.395 . S
C358 H322 0.930 . S
C358 C357 1.395 . S
C358 C359 1.362 . S
C359 H323 0.930 . S
C359 C354 1.390 . S
C359 C358 1.362 . S
C360 C349 1.492 . S
C360 C361 1.377 . S
C360 C365 1.397 . S
C361 H324 0.931 . S
C361 C360 1.377 . S
C361 C362 1.376 . S
C362 H325 0.930 . S
C362 C361 1.376 . S
C362 C363 1.376 . S
C363 C362 1.376 . S
C363 C364 1.378 . S
C363 C390 1.486 . S
C364 H326 0.930 . S
C364 C363 1.378 . S
C364 C365 1.376 . S
C365 H327 0.929 . S
C365 C360 1.397 . S
C365 C364 1.376 . S
C366 C350 1.509 . S
C366 C367 1.391 . S
C366 C371 1.386 . S
C367 H328 0.930 . S
C367 C366 1.391 . S
C367 C368 1.375 . S
C368 H329 0.931 . S
C368 C367 1.375 . S
C368 C369 1.375 . S
C369 C368 1.375 . S
C369 C370 1.361 . S
C370 H330 0.930 . S
C370 C369 1.361 . S
C370 C371 1.399 . S
C371 H331 0.929 . S
C371 C366 1.386 . S
C371 C370 1.399 . S
C372 C351 1.485 . S
C372 C373 1.394 . S
C372 C377 1.360 . S
C373 H332 0.931 . S
C373 C372 1.394 . S
C373 C374 1.372 . S
C374 H333 0.930 . S
C374 C373 1.372 . S
C374 C375 1.397 . S
C375 C374 1.397 . S
C375 C376 1.390 . S
C375 C391 1.476 . S
C376 H334 0.930 . S
C376 C375 1.390 . S
C376 C377 1.366 . S
C377 H335 0.932 . S
C377 C372 1.360 . S
C377 C376 1.366 . S
C378 C352 1.490 . S
C378 C379 1.380 . S
C378 C383 1.386 . S
C379 H336 0.930 . S
C379 C378 1.380 . S
C379 C380 1.381 . S
C380 H337 0.929 . S
C380 C379 1.381 . S
C380 C381 1.371 . S
C381 C380 1.371 . S
C381 C382 1.380 . S
C382 H338 0.931 . S
C382 C381 1.380 . S
C382 C383 1.387 . S
C383 H339 0.930 . S
C383 C378 1.386 . S
C383 C382 1.387 . S
C384 C353 1.519 . S
C384 C385 1.377 . S
C384 C389 1.361 . S
C385 H340 0.929 . S
C385 C384 1.377 . S
C385 C386 1.386 . S
C386 H341 0.931 . S
C386 C385 1.386 . S
C386 C387 1.363 . S
C387 C386 1.363 . S
C387 C388 1.385 . S
C388 H342 0.930 . S
C388 C387 1.385 . S
C388 C389 1.396 . S
C389 H343 0.929 . S
C389 C384 1.361 . S
C389 C388 1.396 . S
C390 O344 1.300 . S
C390 O345 1.209 . S
C390 C363 1.486 . S
C391 O346 1.199 . S
C391 O347 1.297 . S
C391 C375 1.476 . S
H392 O418 0.856 . S
H393 O421 0.854 . S
H394 C429 0.930 . S
H395 C430 0.930 . S
H396 C432 0.930 . S
H397 C433 0.930 . S
H398 C435 0.931 . S
H399 C436 0.930 . S
H400 C438 0.930 . S
H401 C439 0.929 . S
H402 C441 0.930 . S
H403 C442 0.931 . S
H404 C444 0.930 . S
H405 C445 0.929 . S
H406 C447 0.931 . S
H407 C448 0.930 . S
H408 C450 0.930 . S
H409 C451 0.932 . S
H410 C453 0.930 . S
H411 C454 0.929 . S
H412 C456 0.931 . S
H413 C457 0.930 . S
H414 C459 0.929 . S
H415 C460 0.931 . S
H416 C462 0.930 . S
H417 C463 0.929 . S
O418 H392 0.856 . S
O418 C464 1.300 . S
O419 C464 1.209 . S
O420 C465 1.199 . S
O421 H393 0.854 . S
O421 C465 1.297 . S
C422 C423 1.404 . S
C422 C427 1.397 . S
C422 C428 1.492 . S
C423 C422 1.404 . S
C423 C424 1.396 . S
C423 C434 1.492 . S
C424 C423 1.396 . S
C424 C425 1.397 . S
C424 C440 1.509 . S
C425 C424 1.397 . S
C425 C426 1.412 . S
C425 C446 1.485 . S
C426 C425 1.412 . S
C426 C427 1.388 . S
C426 C452 1.490 . S
C427 C422 1.397 . S
C427 C426 1.388 . S
C427 C458 1.519 . S
C428 C422 1.492 . S
C428 C429 1.363 . S
C428 C433 1.390 . S
C429 H394 0.930 . S
C429 C428 1.363 . S
C429 C430 1.372 . S
C430 H395 0.930 . S
C430 C429 1.372 . S
C430 C431 1.383 . S
C431 C430 1.383 . S
C431 C432 1.395 . S
C432 H396 0.930 . S
C432 C431 1.395 . S
C432 C433 1.362 . S
C433 H397 0.930 . S
C433 C428 1.390 . S
C433 C432 1.362 . S
C434 C423 1.492 . S
C434 C435 1.377 . S
C434 C439 1.397 . S
C435 H398 0.931 . S
C435 C434 1.377 . S
C435 C436 1.376 . S
C436 H399 0.930 . S
C436 C435 1.376 . S
C436 C437 1.376 . S
C437 C436 1.376 . S
C437 C438 1.378 . S
C437 C464 1.486 . S
C438 H400 0.930 . S
C438 C437 1.378 . S
C438 C439 1.376 . S
C439 H401 0.929 . S
C439 C434 1.397 . S
C439 C438 1.376 . S
C440 C424 1.509 . S
C440 C441 1.391 . S
C440 C445 1.386 . S
C441 H402 0.930 . S
C441 C440 1.391 . S
C441 C442 1.375 . S
C442 H403 0.931 . S
C442 C441 1.375 . S
C442 C443 1.375 . S
C443 C442 1.375 . S
C443 C444 1.361 . S
C444 H404 0.930 . S
C444 C443 1.361 . S
C444 C445 1.399 . S
C445 H405 0.929 . S
C445 C440 1.386 . S
C445 C444 1.399 . S
C446 C425 1.485 . S
C446 C447 1.394 . S
C446 C451 1.360 . S
C447 H406 0.931 . S
C447 C446 1.394 . S
C447 C448 1.372 . S
C448 H407 0.930 . S
C448 C447 1.372 . S
C448 C449 1.397 . S
C449 C448 1.397 . S
C449 C450 1.390 . S
C449 C465 1.476 . S
C450 H408 0.930 . S
C450 C449 1.390 . S
C450 C451 1.366 . S
C451 H409 0.932 . S
C451 C446 1.360 . S
C451 C450 1.366 . S
C452 C426 1.490 . S
C452 C453 1.380 . S
C452 C457 1.386 . S
C453 H410 0.930 . S
C453 C452 1.380 . S
C453 C454 1.381 . S
C454 H411 0.929 . S
C454 C453 1.381 . S
C454 C455 1.371 . S
C455 C454 1.371 . S
C455 C456 1.380 . S
C456 H412 0.931 . S
C456 C455 1.380 . S
C456 C457 1.387 . S
C457 H413 0.930 . S
C457 C452 1.386 . S
C457 C456 1.387 . S
C458 C427 1.519 . S
C458 C459 1.377 . S
C458 C463 1.361 . S
C459 H414 0.929 . S
C459 C458 1.377 . S
C459 C460 1.386 . S
C460 H415 0.931 . S
C460 C459 1.386 . S
C460 C461 1.363 . S
C461 C460 1.363 . S
C461 C462 1.385 . S
C462 H416 0.930 . S
C462 C461 1.385 . S
C462 C463 1.396 . S
C463 H417 0.929 . S
C463 C458 1.361 . S
C463 C462 1.396 . S
C464 O418 1.300 . S
C464 O419 1.209 . S
C464 C437 1.486 . S
C465 O420 1.199 . S
C465 O421 1.297 . S
C465 C449 1.476 . S
H466 O492 0.856 . S
H467 O495 0.854 . S
H468 C503 0.930 . S
H469 C504 0.930 . S
H470 C506 0.930 . S
H471 C507 0.930 . S
H472 C509 0.931 . S
H473 C510 0.930 . S
H474 C512 0.930 . S
H475 C513 0.929 . S
H476 C515 0.930 . S
H477 C516 0.931 . S
H478 C518 0.930 . S
H479 C519 0.929 . S
H480 C521 0.931 . S
H481 C522 0.930 . S
H482 C524 0.930 . S
H483 C525 0.932 . S
H484 C527 0.930 . S
H485 C528 0.929 . S
H486 C530 0.931 . S
H487 C531 0.930 . S
H488 C533 0.929 . S
H489 C534 0.931 . S
H490 C536 0.930 . S
H491 C537 0.929 . S
O492 H466 0.856 . S
O492 C538 1.300 . S
O493 C538 1.209 . S
O494 C539 1.199 . S
O495 H467 0.854 . S
O495 C539 1.297 . S
C496 C497 1.404 . S
C496 C501 1.397 . S
C496 C502 1.492 . S
C497 C496 1.404 . S
C497 C498 1.396 . S
C497 C508 1.492 . S
C498 C497 1.396 . S
C498 C499 1.397 . S
C498 C514 1.509 . S
C499 C498 1.397 . S
C499 C500 1.412 . S
C499 C520 1.485 . S
C500 C499 1.412 . S
C500 C501 1.388 . S
C500 C526 1.490 . S
C501 C496 1.397 . S
C501 C500 1.388 . S
C501 C532 1.519 . S
C502 C496 1.492 . S
C502 C503 1.363 . S
C502 C507 1.390 . S
C503 H468 0.930 . S
C503 C502 1.363 . S
C503 C504 1.372 . S
C504 H469 0.930 . S
C504 C503 1.372 . S
C504 C505 1.383 . S
C505 C504 1.383 . S
C505 C506 1.395 . S
C506 H470 0.930 . S
C506 C505 1.395 . S
C506 C507 1.362 . S
C507 H471 0.930 . S
C507 C502 1.390 . S
C507 C506 1.362 . S
C508 C497 1.492 . S
C508 C509 1.377 . S
C508 C513 1.397 . S
C509 H472 0.931 . S
C509 C508 1.377 . S
C509 C510 1.376 . S
C510 H473 0.930 . S
C510 C509 1.376 . S
C510 C511 1.376 . S
C511 C510 1.376 . S
C511 C512 1.378 . S
C511 C538 1.486 . S
C512 H474 0.930 . S
C512 C511 1.378 . S
C512 C513 1.376 . S
C513 H475 0.929 . S
C513 C508 1.397 . S
C513 C512 1.376 . S
C514 C498 1.509 . S
C514 C515 1.391 . S
C514 C519 1.386 . S
C515 H476 0.930 . S
C515 C514 1.391 . S
C515 C516 1.375 . S
C516 H477 0.931 . S
C516 C515 1.375 . S
C516 C517 1.375 . S
C517 C516 1.375 . S
C517 C518 1.361 . S
C518 H478 0.930 . S
C518 C517 1.361 . S
C518 C519 1.399 . S
C519 H479 0.929 . S
C519 C514 1.386 . S
C519 C518 1.399 . S
C520 C499 1.485 . S
C520 C521 1.394 . S
C520 C525 1.360 . S
C521 H480 0.931 . S
C521 C520 1.394 . S
C521 C522 1.372 . S
C522 H481 0.930 . S
C522 C521 1.372 . S
C522 C523 1.397 . S
C523 C522 1.397 . S
C523 C524 1.390 . S
C523 C539 1.476 . S
C524 H482 0.930 . S
C524 C523 1.390 . S
C524 C525 1.366 . S
C525 H483 0.932 . S
C525 C520 1.360 . S
C525 C524 1.366 . S
C526 C500 1.490 . S
C526 C527 1.380 . S
C526 C531 1.386 . S
C527 H484 0.930 . S
C527 C526 1.380 . S
C527 C528 1.381 . S
C528 H485 0.929 . S
C528 C527 1.381 . S
C528 C529 1.371 . S
C529 C528 1.371 . S
C529 C530 1.380 . S
C530 H486 0.931 . S
C530 C529 1.380 . S
C530 C531 1.387 . S
C531 H487 0.930 . S
C531 C526 1.386 . S
C531 C530 1.387 . S
C532 C501 1.519 . S
C532 C533 1.377 . S
C532 C537 1.361 . S
C533 H488 0.929 . S
C533 C532 1.377 . S
C533 C534 1.386 . S
C534 H489 0.931 . S
C534 C533 1.386 . S
C534 C535 1.363 . S
C535 C534 1.363 . S
C535 C536 1.385 . S
C536 H490 0.930 . S
C536 C535 1.385 . S
C536 C537 1.396 . S
C537 H491 0.929 . S
C537 C532 1.361 . S
C537 C536 1.396 . S
C538 O492 1.300 . S
C538 O493 1.209 . S
C538 C511 1.486 . S
C539 O494 1.199 . S
C539 O495 1.297 . S
C539 C523 1.476 . S
H540 O566 0.856 . S
H541 O569 0.835 1_455 S
H542 C577 0.930 . S
H543 C578 0.930 . S
H544 C580 0.930 . S
H545 C581 0.930 . S
H546 C583 0.931 . S
H547 C584 0.930 . S
H548 C586 0.930 . S
H549 C587 0.929 . S
H550 C589 0.930 . S
H551 C590 0.931 . S
H552 C592 0.930 . S
H553 C593 0.929 . S
H554 C595 0.931 . S
H555 C596 0.930 . S
H556 C598 0.930 . S
H557 C599 0.932 . S
H558 C601 0.930 . S
H559 C602 0.929 . S
H560 C604 0.931 . S
H561 C605 0.930 . S
H562 C607 0.929 . S
H563 C608 0.931 . S
H564 C610 0.930 . S
H565 C611 0.929 . S
O566 H540 0.856 . S
O566 C612 1.300 . S
O567 C612 1.209 . S
O568 C613 1.199 . S
O569 H541 0.835 1_655 S
O569 C613 1.305 1_655 S
C570 C571 1.404 . S
C570 C575 1.397 . S
C570 C576 1.492 . S
C571 C570 1.404 . S
C571 C572 1.396 . S
C571 C582 1.492 . S
C572 C571 1.396 . S
C572 C573 1.397 . S
C572 C588 1.509 . S
C573 C572 1.397 . S
C573 C574 1.412 . S
C573 C594 1.485 . S
C574 C573 1.412 . S
C574 C575 1.388 . S
C574 C600 1.490 . S
C575 C570 1.397 . S
C575 C574 1.388 . S
C575 C606 1.519 . S
C576 C570 1.492 . S
C576 C577 1.363 . S
C576 C581 1.390 . S
C577 H542 0.930 . S
C577 C576 1.363 . S
C577 C578 1.372 . S
C578 H543 0.930 . S
C578 C577 1.372 . S
C578 C579 1.383 . S
C579 C578 1.383 . S
C579 C580 1.395 . S
C580 H544 0.930 . S
C580 C579 1.395 . S
C580 C581 1.362 . S
C581 H545 0.930 . S
C581 C576 1.390 . S
C581 C580 1.362 . S
C582 C571 1.492 . S
C582 C583 1.377 . S
C582 C587 1.397 . S
C583 H546 0.931 . S
C583 C582 1.377 . S
C583 C584 1.376 . S
C584 H547 0.930 . S
C584 C583 1.376 . S
C584 C585 1.376 . S
C585 C584 1.376 . S
C585 C586 1.378 . S
C585 C612 1.486 . S
C586 H548 0.930 . S
C586 C585 1.378 . S
C586 C587 1.376 . S
C587 H549 0.929 . S
C587 C582 1.397 . S
C587 C586 1.376 . S
C588 C572 1.509 . S
C588 C589 1.391 . S
C588 C593 1.386 . S
C589 H550 0.930 . S
C589 C588 1.391 . S
C589 C590 1.375 . S
C590 H551 0.931 . S
C590 C589 1.375 . S
C590 C591 1.375 . S
C591 C590 1.375 . S
C591 C592 1.361 . S
C592 H552 0.930 . S
C592 C591 1.361 . S
C592 C593 1.399 . S
C593 H553 0.929 . S
C593 C588 1.386 . S
C593 C592 1.399 . S
C594 C573 1.485 . S
C594 C595 1.394 . S
C594 C599 1.360 . S
C595 H554 0.931 . S
C595 C594 1.394 . S
C595 C596 1.372 . S
C596 H555 0.930 . S
C596 C595 1.372 . S
C596 C597 1.397 . S
C597 C596 1.397 . S
C597 C598 1.390 . S
C597 C613 1.476 1_655 S
C598 H556 0.930 . S
C598 C597 1.390 . S
C598 C599 1.366 . S
C599 H557 0.932 . S
C599 C594 1.360 . S
C599 C598 1.366 . S
C600 C574 1.490 . S
C600 C601 1.380 . S
C600 C605 1.386 . S
C601 H558 0.930 . S
C601 C600 1.380 . S
C601 C602 1.381 . S
C602 H559 0.929 . S
C602 C601 1.381 . S
C602 C603 1.371 . S
C603 C602 1.371 . S
C603 C604 1.380 . S
C604 H560 0.931 . S
C604 C603 1.380 . S
C604 C605 1.387 . S
C605 H561 0.930 . S
C605 C600 1.386 . S
C605 C604 1.387 . S
C606 C575 1.519 . S
C606 C607 1.377 . S
C606 C611 1.361 . S
C607 H562 0.929 . S
C607 C606 1.377 . S
C607 C608 1.386 . S
C608 H563 0.931 . S
C608 C607 1.386 . S
C608 C609 1.363 . S
C609 C608 1.363 . S
C609 C610 1.385 . S
C610 H564 0.930 . S
C610 C609 1.385 . S
C610 C611 1.396 . S
C611 H565 0.929 . S
C611 C606 1.361 . S
C611 C610 1.396 . S
C612 O566 1.300 . S
C612 O567 1.209 . S
C612 C585 1.486 . S
C613 O568 1.199 . S
C613 O569 1.305 1_455 S
C613 C597 1.476 1_455 S
H614 O640 0.856 . S
H615 O643 0.854 . S
H616 C651 0.930 . S
H617 C652 0.930 . S
H618 C654 0.930 . S
H619 C655 0.930 . S
H620 C657 0.931 . S
H621 C658 0.930 . S
H622 C660 0.930 . S
H623 C661 0.929 . S
H624 C663 0.930 . S
H625 C664 0.931 . S
H626 C666 0.930 . S
H627 C667 0.929 . S
H628 C669 0.931 . S
H629 C670 0.930 . S
H630 C672 0.930 . S
H631 C673 0.932 . S
H632 C675 0.930 . S
H633 C676 0.929 . S
H634 C678 0.931 . S
H635 C679 0.930 . S
H636 C681 0.929 . S
H637 C682 0.931 . S
H638 C684 0.930 . S
H639 C685 0.929 . S
O640 H614 0.856 . S
O640 C686 1.300 . S
O641 C686 1.209 . S
O642 C687 1.199 . S
O643 H615 0.854 . S
O643 C687 1.297 . S
C644 C645 1.404 . S
C644 C649 1.397 . S
C644 C650 1.492 . S
C645 C644 1.404 . S
C645 C646 1.396 . S
C645 C656 1.492 . S
C646 C645 1.396 . S
C646 C647 1.397 . S
C646 C662 1.509 . S
C647 C646 1.397 . S
C647 C648 1.412 . S
C647 C668 1.485 . S
C648 C647 1.412 . S
C648 C649 1.388 . S
C648 C674 1.490 . S
C649 C644 1.397 . S
C649 C648 1.388 . S
C649 C680 1.519 . S
C650 C644 1.492 . S
C650 C651 1.363 . S
C650 C655 1.390 . S
C651 H616 0.930 . S
C651 C650 1.363 . S
C651 C652 1.372 . S
C652 H617 0.930 . S
C652 C651 1.372 . S
C652 C653 1.383 . S
C653 C652 1.383 . S
C653 C654 1.395 . S
C654 H618 0.930 . S
C654 C653 1.395 . S
C654 C655 1.362 . S
C655 H619 0.930 . S
C655 C650 1.390 . S
C655 C654 1.362 . S
C656 C645 1.492 . S
C656 C657 1.377 . S
C656 C661 1.397 . S
C657 H620 0.931 . S
C657 C656 1.377 . S
C657 C658 1.376 . S
C658 H621 0.930 . S
C658 C657 1.376 . S
C658 C659 1.376 . S
C659 C658 1.376 . S
C659 C660 1.378 . S
C659 C686 1.486 . S
C660 H622 0.930 . S
C660 C659 1.378 . S
C660 C661 1.376 . S
C661 H623 0.929 . S
C661 C656 1.397 . S
C661 C660 1.376 . S
C662 C646 1.509 . S
C662 C663 1.391 . S
C662 C667 1.386 . S
C663 H624 0.930 . S
C663 C662 1.391 . S
C663 C664 1.375 . S
C664 H625 0.931 . S
C664 C663 1.375 . S
C664 C665 1.375 . S
C665 C664 1.375 . S
C665 C666 1.361 . S
C666 H626 0.930 . S
C666 C665 1.361 . S
C666 C667 1.399 . S
C667 H627 0.929 . S
C667 C662 1.386 . S
C667 C666 1.399 . S
C668 C647 1.485 . S
C668 C669 1.394 . S
C668 C673 1.360 . S
C669 H628 0.931 . S
C669 C668 1.394 . S
C669 C670 1.372 . S
C670 H629 0.930 . S
C670 C669 1.372 . S
C670 C671 1.397 . S
C671 C670 1.397 . S
C671 C672 1.390 . S
C671 C687 1.476 . S
C672 H630 0.930 . S
C672 C671 1.390 . S
C672 C673 1.366 . S
C673 H631 0.932 . S
C673 C668 1.360 . S
C673 C672 1.366 . S
C674 C648 1.490 . S
C674 C675 1.380 . S
C674 C679 1.386 . S
C675 H632 0.930 . S
C675 C674 1.380 . S
C675 C676 1.381 . S
C676 H633 0.929 . S
C676 C675 1.381 . S
C676 C677 1.371 . S
C677 C676 1.371 . S
C677 C678 1.380 . S
C678 H634 0.931 . S
C678 C677 1.380 . S
C678 C679 1.387 . S
C679 H635 0.930 . S
C679 C674 1.386 . S
C679 C678 1.387 . S
C680 C649 1.519 . S
C680 C681 1.377 . S
C680 C685 1.361 . S
C681 H636 0.929 . S
C681 C680 1.377 . S
C681 C682 1.386 . S
C682 H637 0.931 . S
C682 C681 1.386 . S
C682 C683 1.363 . S
C683 C682 1.363 . S
C683 C684 1.385 . S
C684 H638 0.930 . S
C684 C683 1.385 . S
C684 C685 1.396 . S
C685 H639 0.929 . S
C685 C680 1.361 . S
C685 C684 1.396 . S
C686 O640 1.300 . S
C686 O641 1.209 . S
C686 C659 1.486 . S
C687 O642 1.199 . S
C687 O643 1.297 . S
C687 C671 1.476 . S
H688 O714 0.856 . S
H689 O717 0.854 . S
H690 C725 0.930 . S
H691 C726 0.930 . S
H692 C728 0.930 . S
H693 C729 0.930 . S
H694 C731 0.931 . S
H695 C732 0.930 . S
H696 C734 0.930 . S
H697 C735 0.929 . S
H698 C737 0.930 . S
H699 C738 0.931 . S
H700 C740 0.930 . S
H701 C741 0.929 . S
H702 C743 0.931 . S
H703 C744 0.930 . S
H704 C746 0.930 . S
H705 C747 0.932 . S
H706 C749 0.930 . S
H707 C750 0.929 . S
H708 C752 0.931 . S
H709 C753 0.930 . S
H710 C755 0.929 . S
H711 C756 0.931 . S
H712 C758 0.930 . S
H713 C759 0.929 . S
O714 H688 0.856 . S
O714 C760 1.300 . S
O715 C760 1.209 . S
O716 C761 1.199 . S
O717 H689 0.854 . S
O717 C761 1.297 . S
C718 C719 1.404 . S
C718 C723 1.397 . S
C718 C724 1.492 . S
C719 C718 1.404 . S
C719 C720 1.396 . S
C719 C730 1.492 . S
C720 C719 1.396 . S
C720 C721 1.397 . S
C720 C736 1.509 . S
C721 C720 1.397 . S
C721 C722 1.412 . S
C721 C742 1.485 . S
C722 C721 1.412 . S
C722 C723 1.388 . S
C722 C748 1.490 . S
C723 C718 1.397 . S
C723 C722 1.388 . S
C723 C754 1.519 . S
C724 C718 1.492 . S
C724 C725 1.363 . S
C724 C729 1.390 . S
C725 H690 0.930 . S
C725 C724 1.363 . S
C725 C726 1.372 . S
C726 H691 0.930 . S
C726 C725 1.372 . S
C726 C727 1.383 . S
C727 C726 1.383 . S
C727 C728 1.395 . S
C728 H692 0.930 . S
C728 C727 1.395 . S
C728 C729 1.362 . S
C729 H693 0.930 . S
C729 C724 1.390 . S
C729 C728 1.362 . S
C730 C719 1.492 . S
C730 C731 1.377 . S
C730 C735 1.397 . S
C731 H694 0.931 . S
C731 C730 1.377 . S
C731 C732 1.376 . S
C732 H695 0.930 . S
C732 C731 1.376 . S
C732 C733 1.376 . S
C733 C732 1.376 . S
C733 C734 1.378 . S
C733 C760 1.486 . S
C734 H696 0.930 . S
C734 C733 1.378 . S
C734 C735 1.376 . S
C735 H697 0.929 . S
C735 C730 1.397 . S
C735 C734 1.376 . S
C736 C720 1.509 . S
C736 C737 1.391 . S
C736 C741 1.386 . S
C737 H698 0.930 . S
C737 C736 1.391 . S
C737 C738 1.375 . S
C738 H699 0.931 . S
C738 C737 1.375 . S
C738 C739 1.375 . S
C739 C738 1.375 . S
C739 C740 1.361 . S
C740 H700 0.930 . S
C740 C739 1.361 . S
C740 C741 1.399 . S
C741 H701 0.929 . S
C741 C736 1.386 . S
C741 C740 1.399 . S
C742 C721 1.485 . S
C742 C743 1.394 . S
C742 C747 1.360 . S
C743 H702 0.931 . S
C743 C742 1.394 . S
C743 C744 1.372 . S
C744 H703 0.930 . S
C744 C743 1.372 . S
C744 C745 1.397 . S
C745 C744 1.397 . S
C745 C746 1.390 . S
C745 C761 1.476 . S
C746 H704 0.930 . S
C746 C745 1.390 . S
C746 C747 1.366 . S
C747 H705 0.932 . S
C747 C742 1.360 . S
C747 C746 1.366 . S
C748 C722 1.490 . S
C748 C749 1.380 . S
C748 C753 1.386 . S
C749 H706 0.930 . S
C749 C748 1.380 . S
C749 C750 1.381 . S
C750 H707 0.929 . S
C750 C749 1.381 . S
C750 C751 1.371 . S
C751 C750 1.371 . S
C751 C752 1.380 . S
C752 H708 0.931 . S
C752 C751 1.380 . S
C752 C753 1.387 . S
C753 H709 0.930 . S
C753 C748 1.386 . S
C753 C752 1.387 . S
C754 C723 1.519 . S
C754 C755 1.377 . S
C754 C759 1.361 . S
C755 H710 0.929 . S
C755 C754 1.377 . S
C755 C756 1.386 . S
C756 H711 0.931 . S
C756 C755 1.386 . S
C756 C757 1.363 . S
C757 C756 1.363 . S
C757 C758 1.385 . S
C758 H712 0.930 . S
C758 C757 1.385 . S
C758 C759 1.396 . S
C759 H713 0.929 . S
C759 C754 1.361 . S
C759 C758 1.396 . S
C760 O714 1.300 . S
C760 O715 1.209 . S
C760 C733 1.486 . S
C761 O716 1.199 . S
C761 O717 1.297 . S
C761 C745 1.476 . S
C762 C763 1.349 . S
C762 C764 1.327 . S
C762 H787 0.950 . S
C763 C762 1.349 . S
C763 C779 1.349 . S
C764 C762 1.327 . S
C764 C783 1.429 . S
C764 H788 0.950 . S
C765 C782 1.574 . S
C765 C784 1.368 . S
C765 H789 0.949 . S
H766 C770 0.949 . S
C767 C768 1.349 . S
C767 C769 1.327 . S
C767 H790 0.950 . S
C768 C767 1.349 . S
C768 C780 1.349 . S
C769 C767 1.327 . S
C769 C785 1.429 . S
C769 H791 0.950 . S
C770 H766 0.949 . S
C770 C778 1.574 . S
C770 C786 1.368 . S
H771 C779 0.950 . S
H772 C777 0.950 . S
H773 C778 0.949 . S
H774 C780 0.950 . S
H775 C781 0.950 . S
H776 C782 0.949 . S
C777 H772 0.950 . S
C777 C779 1.327 . S
C777 C783 1.429 . S
C778 C770 1.574 . S
C778 H773 0.949 . S
C778 C784 1.368 . S
C779 C763 1.349 . S
C779 H771 0.950 . S
C779 C777 1.327 . S
C780 C768 1.349 . S
C780 H774 0.950 . S
C780 C781 1.327 . S
C781 H775 0.950 . S
C781 C780 1.327 . S
C781 C785 1.429 . S
C782 C765 1.574 . S
C782 H776 0.949 . S
C782 C786 1.368 . S
C783 C764 1.429 . S
C783 C777 1.429 . S
C783 C784 1.523 . S
C784 C765 1.368 . S
C784 C778 1.368 . S
C784 C783 1.523 . S
C785 C769 1.429 . S
C785 C781 1.429 . S
C785 C786 1.523 . S
C786 C770 1.368 . S
C786 C782 1.368 . S
C786 C785 1.523 . S
H787 C762 0.950 . S
H788 C764 0.950 . S
H789 C765 0.949 . S
H790 C767 0.950 . S
H791 C769 0.950 . S
C792 C793 1.349 . S
C792 C794 1.327 . S
C792 H817 0.950 . S
C793 C792 1.349 . S
C793 C809 1.349 . S
C794 C792 1.327 . S
C794 C813 1.429 . S
C794 H818 0.950 . S
C795 C812 1.574 . S
C795 C814 1.368 . S
C795 H819 0.949 . S
H796 C800 0.949 . S
C797 C798 1.349 . S
C797 C799 1.327 . S
C797 H820 0.950 . S
C798 C797 1.349 . S
C798 C810 1.349 . S
C799 C797 1.327 . S
C799 C815 1.429 . S
C799 H821 0.950 . S
C800 H796 0.949 . S
C800 C808 1.574 . S
C800 C816 1.368 . S
H801 C809 0.950 . S
H802 C807 0.950 . S
H803 C808 0.949 . S
H804 C810 0.950 . S
H805 C811 0.950 . S
H806 C812 0.949 . S
C807 H802 0.950 . S
C807 C809 1.327 . S
C807 C813 1.429 . S
C808 C800 1.574 . S
C808 H803 0.949 . S
C808 C814 1.368 . S
C809 C793 1.349 . S
C809 H801 0.950 . S
C809 C807 1.327 . S
C810 C798 1.349 . S
C810 H804 0.950 . S
C810 C811 1.327 . S
C811 H805 0.950 . S
C811 C810 1.327 . S
C811 C815 1.429 . S
C812 C795 1.574 . S
C812 H806 0.949 . S
C812 C816 1.368 . S
C813 C794 1.429 . S
C813 C807 1.429 . S
C813 C814 1.523 . S
C814 C795 1.368 . S
C814 C808 1.368 . S
C814 C813 1.523 . S
C815 C799 1.429 . S
C815 C811 1.429 . S
C815 C816 1.523 . S
C816 C800 1.368 . S
C816 C812 1.368 . S
C816 C815 1.523 . S
H817 C792 0.950 . S
H818 C794 0.950 . S
H819 C795 0.949 . S
H820 C797 0.950 . S
H821 C799 0.950 . S
C822 C823 1.349 . S
C822 C824 1.327 . S
C822 H847 0.950 . S
C823 C822 1.349 . S
C823 C839 1.349 . S
C824 C822 1.327 . S
C824 C843 1.429 . S
C824 H848 0.950 . S
C825 C842 1.574 . S
C825 C844 1.368 . S
C825 H849 0.949 . S
H826 C830 0.949 . S
C827 C828 1.349 . S
C827 C829 1.327 . S
C827 H850 0.950 . S
C828 C827 1.349 . S
C828 C840 1.349 . S
C829 C827 1.327 . S
C829 C845 1.429 . S
C829 H851 0.950 . S
C830 H826 0.949 . S
C830 C838 1.574 . S
C830 C846 1.368 . S
H831 C839 0.950 . S
H832 C837 0.950 . S
H833 C838 0.949 . S
H834 C840 0.950 . S
H835 C841 0.950 . S
H836 C842 0.949 . S
C837 H832 0.950 . S
C837 C839 1.327 . S
C837 C843 1.429 . S
C838 C830 1.574 . S
C838 H833 0.949 . S
C838 C844 1.368 . S
C839 C823 1.349 . S
C839 H831 0.950 . S
C839 C837 1.327 . S
C840 C828 1.349 . S
C840 H834 0.950 . S
C840 C841 1.327 . S
C841 H835 0.950 . S
C841 C840 1.327 . S
C841 C845 1.429 . S
C842 C825 1.574 . S
C842 H836 0.949 . S
C842 C846 1.368 . S
C843 C824 1.429 . S
C843 C837 1.429 . S
C843 C844 1.523 . S
C844 C825 1.368 . S
C844 C838 1.368 . S
C844 C843 1.523 . S
C845 C829 1.429 . S
C845 C841 1.429 . S
C845 C846 1.523 . S
C846 C830 1.368 . S
C846 C842 1.368 . S
C846 C845 1.523 . S
H847 C822 0.950 . S
H848 C824 0.950 . S
H849 C825 0.949 . S
H850 C827 0.950 . S
H851 C829 0.950 . S
C852 C853 1.349 . S
C852 C854 1.327 . S
C852 H877 0.950 . S
C853 C852 1.349 . S
C853 C869 1.349 . S
C854 C852 1.327 . S
C854 C873 1.429 . S
C854 H878 0.950 . S
C855 C872 1.574 . S
C855 C874 1.368 . S
C855 H879 0.949 . S
H856 C860 0.949 . S
C857 C858 1.349 . S
C857 C859 1.327 . S
C857 H880 0.950 . S
C858 C857 1.349 . S
C858 C870 1.349 . S
C859 C857 1.327 . S
C859 C875 1.429 . S
C859 H881 0.950 . S
C860 H856 0.949 . S
C860 C868 1.574 . S
C860 C876 1.368 . S
H861 C869 0.950 . S
H862 C867 0.950 . S
H863 C868 0.949 . S
H864 C870 0.950 . S
H865 C871 0.950 . S
H866 C872 0.949 . S
C867 H862 0.950 . S
C867 C869 1.327 . S
C867 C873 1.429 . S
C868 C860 1.574 . S
C868 H863 0.949 . S
C868 C874 1.368 . S
C869 C853 1.349 . S
C869 H861 0.950 . S
C869 C867 1.327 . S
C870 C858 1.349 . S
C870 H864 0.950 . S
C870 C871 1.327 . S
C871 H865 0.950 . S
C871 C870 1.327 . S
C871 C875 1.429 . S
C872 C855 1.574 . S
C872 H866 0.949 . S
C872 C876 1.368 . S
C873 C854 1.429 . S
C873 C867 1.429 . S
C873 C874 1.523 . S
C874 C855 1.368 . S
C874 C868 1.368 . S
C874 C873 1.523 . S
C875 C859 1.429 . S
C875 C871 1.429 . S
C875 C876 1.523 . S
C876 C860 1.368 . S
C876 C872 1.368 . S
C876 C875 1.523 . S
H877 C852 0.950 . S
H878 C854 0.950 . S
H879 C855 0.949 . S
H880 C857 0.950 . S
H881 C859 0.950 . S
C882 C883 1.349 1_565 S
C882 C884 1.327 . S
C882 H907 0.950 . S
C883 C882 1.349 1_545 S
C883 C899 1.349 . S
C884 C882 1.327 . S
C884 C903 1.429 . S
C884 H908 0.950 . S
C885 C902 1.574 . S
C885 C904 1.368 . S
C885 H909 0.949 . S
H886 C890 0.949 . S
C887 C888 1.349 . S
C887 C889 1.327 . S
C887 H910 0.950 . S
C888 C887 1.349 . S
C888 C900 1.349 . S
C889 C887 1.327 . S
C889 C905 1.429 . S
C889 H911 0.950 . S
C890 H886 0.949 . S
C890 C898 1.574 . S
C890 C906 1.368 . S
H891 C899 0.950 . S
H892 C897 0.950 1_545 S
H893 C898 0.949 . S
H894 C900 0.950 . S
H895 C901 0.950 . S
H896 C902 0.949 . S
C897 H892 0.950 1_565 S
C897 C899 1.327 1_565 S
C897 C903 1.429 . S
C898 C890 1.574 . S
C898 H893 0.949 . S
C898 C904 1.368 . S
C899 C883 1.349 . S
C899 H891 0.950 . S
C899 C897 1.327 1_545 S
C900 C888 1.349 . S
C900 H894 0.950 . S
C900 C901 1.327 . S
C901 H895 0.950 . S
C901 C900 1.327 . S
C901 C905 1.429 . S
C902 C885 1.574 . S
C902 H896 0.949 . S
C902 C906 1.368 . S
C903 C884 1.429 . S
C903 C897 1.429 . S
C903 C904 1.523 . S
C904 C885 1.368 . S
C904 C898 1.368 . S
C904 C903 1.523 . S
C905 C889 1.429 . S
C905 C901 1.429 . S
C905 C906 1.523 . S
C906 C890 1.368 . S
C906 C902 1.368 . S
C906 C905 1.523 . S
H907 C882 0.950 . S
H908 C884 0.950 . S
H909 C885 0.949 . S
H910 C887 0.950 . S
H911 C889 0.950 . S
C912 C913 1.349 . S
C912 C914 1.327 . S
C912 H937 0.950 . S
C913 C912 1.349 . S
C913 C929 1.349 . S
C914 C912 1.327 . S
C914 C933 1.429 . S
C914 H938 0.950 . S
C915 C932 1.574 . S
C915 C934 1.368 . S
C915 H939 0.949 . S
H916 C920 0.949 . S
C917 C918 1.349 . S
C917 C919 1.327 . S
C917 H940 0.950 . S
C918 C917 1.349 . S
C918 C930 1.349 . S
C919 C917 1.327 . S
C919 C935 1.429 . S
C919 H941 0.950 . S
C920 H916 0.949 . S
C920 C928 1.574 . S
C920 C936 1.368 . S
H921 C929 0.950 . S
H922 C927 0.950 . S
H923 C928 0.949 . S
H924 C930 0.950 . S
H925 C931 0.950 . S
H926 C932 0.949 . S
C927 H922 0.950 . S
C927 C929 1.327 . S
C927 C933 1.429 . S
C928 C920 1.574 . S
C928 H923 0.949 . S
C928 C934 1.368 . S
C929 C913 1.349 . S
C929 H921 0.950 . S
C929 C927 1.327 . S
C930 C918 1.349 . S
C930 H924 0.950 . S
C930 C931 1.327 . S
C931 H925 0.950 . S
C931 C930 1.327 . S
C931 C935 1.429 . S
C932 C915 1.574 . S
C932 H926 0.949 . S
C932 C936 1.368 . S
C933 C914 1.429 . S
C933 C927 1.429 . S
C933 C934 1.523 . S
C934 C915 1.368 . S
C934 C928 1.368 . S
C934 C933 1.523 . S
C935 C919 1.429 . S
C935 C931 1.429 . S
C935 C936 1.523 . S
C936 C920 1.368 . S
C936 C932 1.368 . S
C936 C935 1.523 . S
H937 C912 0.950 . S
H938 C914 0.950 . S
H939 C915 0.949 . S
H940 C917 0.950 . S
H941 C919 0.950 . S
C942 C943 1.349 . S
C942 C944 1.327 . S
C942 H967 0.950 . S
C943 C942 1.349 . S
C943 C959 1.349 . S
C944 C942 1.327 . S
C944 C963 1.429 . S
C944 H968 0.950 . S
C945 C962 1.574 . S
C945 C964 1.368 . S
C945 H969 0.949 . S
H946 C950 0.949 . S
C947 C948 1.349 . S
C947 C949 1.327 . S
C947 H970 0.950 . S
C948 C947 1.349 . S
C948 C960 1.349 . S
C949 C947 1.327 . S
C949 C965 1.429 . S
C949 H971 0.950 . S
C950 H946 0.949 . S
C950 C958 1.574 . S
C950 C966 1.368 . S
H951 C959 0.950 . S
H952 C957 0.950 . S
H953 C958 0.949 . S
H954 C960 0.950 . S
H955 C961 0.950 . S
H956 C962 0.949 . S
C957 H952 0.950 . S
C957 C959 1.327 . S
C957 C963 1.429 . S
C958 C950 1.574 . S
C958 H953 0.949 . S
C958 C964 1.368 . S
C959 C943 1.349 . S
C959 H951 0.950 . S
C959 C957 1.327 . S
C960 C948 1.349 . S
C960 H954 0.950 . S
C960 C961 1.327 . S
C961 H955 0.950 . S
C961 C960 1.327 . S
C961 C965 1.429 . S
C962 C945 1.574 . S
C962 H956 0.949 . S
C962 C966 1.368 . S
C963 C944 1.429 . S
C963 C957 1.429 . S
C963 C964 1.523 . S
C964 C945 1.368 . S
C964 C958 1.368 . S
C964 C963 1.523 . S
C965 C949 1.429 . S
C965 C961 1.429 . S
C965 C966 1.523 . S
C966 C950 1.368 . S
C966 C962 1.368 . S
C966 C965 1.523 . S
H967 C942 0.950 . S
H968 C944 0.950 . S
H969 C945 0.949 . S
H970 C947 0.950 . S
H971 C949 0.950 . S
C972 C973 1.349 . S
C972 C974 1.327 . S
C972 H997 0.950 . S
C973 C972 1.349 . S
C973 C989 1.349 . S
C974 C972 1.327 . S
C974 C993 1.429 . S
C974 H998 0.950 . S
C975 C992 1.574 . S
C975 C994 1.368 . S
C975 H999 0.949 . S
H976 C980 0.949 . S
C977 C978 1.349 . S
C977 C979 1.327 . S
C977 H1000 0.950 . S
C978 C977 1.349 . S
C978 C990 1.349 . S
C979 C977 1.327 . S
C979 C995 1.429 . S
C979 H1001 0.950 . S
C980 H976 0.949 . S
C980 C988 1.574 . S
C980 C996 1.368 . S
H981 C989 0.950 . S
H982 C987 0.987 . S
H983 C988 0.949 1_554 S
H984 C990 0.950 . S
H985 C991 0.950 . S
H986 C992 0.949 . S
C987 H982 0.987 . S
C987 C989 1.293 1_556 S
C987 C993 1.427 1_556 S
C988 C980 1.574 . S
C988 H983 0.949 1_556 S
C988 C994 1.368 . S
C989 C973 1.349 . S
C989 H981 0.950 . S
C989 C987 1.293 1_554 S
C990 C978 1.349 . S
C990 H984 0.950 . S
C990 C991 1.327 . S
C991 H985 0.950 . S
C991 C990 1.327 . S
C991 C995 1.429 . S
C992 C975 1.574 . S
C992 H986 0.949 . S
C992 C996 1.368 . S
C993 C974 1.429 . S
C993 C987 1.427 1_554 S
C993 C994 1.523 1_554 S
C994 C975 1.368 . S
C994 C988 1.368 . S
C994 C993 1.523 1_556 S
C995 C979 1.429 . S
C995 C991 1.429 . S
C995 C996 1.523 . S
C996 C980 1.368 . S
C996 C992 1.368 . S
C996 C995 1.523 . S
H997 C972 0.950 . S
H998 C974 0.950 . S
H999 C975 0.949 . S
H1000 C977 0.950 . S
H1001 C979 0.950 . S
C1002 C1003 1.349 . S
C1002 C1004 1.327 . S
C1002 H1027 0.950 . S
C1003 C1002 1.349 . S
C1003 C1019 1.349 . S
C1004 C1002 1.327 . S
C1004 C1023 1.429 . S
C1004 H1028 0.950 . S
C1005 C1022 1.574 . S
C1005 C1024 1.368 . S
C1005 H1029 0.949 . S
H1006 C1010 0.949 . S
C1007 C1008 1.349 . S
C1007 C1009 1.327 . S
C1007 H1030 0.950 . S
C1008 C1007 1.349 . S
C1008 C1020 1.349 . S
C1009 C1007 1.327 . S
C1009 C1025 1.429 . S
C1009 H1031 0.950 . S
C1010 H1006 0.949 . S
C1010 C1018 1.574 . S
C1010 C1026 1.368 . S
H1011 C1019 0.950 . S
H1012 C1017 0.950 . S
H1013 C1018 0.949 . S
H1014 C1020 0.950 . S
H1015 C1021 0.950 . S
H1016 C1022 0.949 . S
C1017 H1012 0.950 . S
C1017 C1019 1.327 . S
C1017 C1023 1.429 . S
C1018 C1010 1.574 . S
C1018 H1013 0.949 . S
C1018 C1024 1.368 . S
C1019 C1003 1.349 . S
C1019 H1011 0.950 . S
C1019 C1017 1.327 . S
C1020 C1008 1.349 . S
C1020 H1014 0.950 . S
C1020 C1021 1.327 . S
C1021 H1015 0.950 . S
C1021 C1020 1.327 . S
C1021 C1025 1.429 . S
C1022 C1005 1.574 . S
C1022 H1016 0.949 . S
C1022 C1026 1.368 . S
C1023 C1004 1.429 . S
C1023 C1017 1.429 . S
C1023 C1024 1.523 . S
C1024 C1005 1.368 . S
C1024 C1018 1.368 . S
C1024 C1023 1.523 . S
C1025 C1009 1.429 . S
C1025 C1021 1.429 . S
C1025 C1026 1.523 . S
C1026 C1010 1.368 . S
C1026 C1022 1.368 . S
C1026 C1025 1.523 . S
H1027 C1002 0.950 . S
H1028 C1004 0.950 . S
H1029 C1005 0.949 . S
H1030 C1007 0.950 . S
H1031 C1009 0.950 . S
C1032 C1033 1.349 . S
C1032 C1034 1.327 . S
C1032 H1057 0.950 . S
C1033 C1032 1.349 . S
C1033 C1049 1.349 . S
C1034 C1032 1.327 . S
C1034 C1053 1.429 1_554 S
C1034 H1058 0.950 1_554 S
C1035 C1052 1.574 . S
C1035 C1054 1.368 . S
C1035 H1059 0.949 . S
H1036 C1040 0.949 . S
C1037 C1038 1.349 . S
C1037 C1039 1.327 . S
C1037 H1060 0.950 . S
C1038 C1037 1.349 . S
C1038 C1050 1.349 . S
C1039 C1037 1.327 . S
C1039 C1055 1.429 . S
C1039 H1061 0.950 . S
C1040 H1036 0.949 . S
C1040 C1048 1.574 . S
C1040 C1056 1.368 . S
H1041 C1049 0.950 . S
H1042 C1047 0.950 . S
H1043 C1048 0.949 . S
H1044 C1050 0.950 . S
H1045 C1051 0.950 . S
H1046 C1052 0.949 . S
C1047 H1042 0.950 . S
C1047 C1049 1.327 1_556 S
C1047 C1053 1.429 . S
C1048 C1040 1.574 . S
C1048 H1043 0.949 . S
C1048 C1054 1.368 . S
C1049 C1033 1.349 . S
C1049 H1041 0.950 . S
C1049 C1047 1.327 1_554 S
C1050 C1038 1.349 . S
C1050 H1044 0.950 . S
C1050 C1051 1.327 . S
C1051 H1045 0.950 . S
C1051 C1050 1.327 . S
C1051 C1055 1.429 . S
C1052 C1035 1.574 . S
C1052 H1046 0.949 . S
C1052 C1056 1.368 . S
C1053 C1034 1.429 1_556 S
C1053 C1047 1.429 . S
C1053 C1054 1.523 . S
C1054 C1035 1.368 . S
C1054 C1048 1.368 . S
C1054 C1053 1.523 . S
C1055 C1039 1.429 . S
C1055 C1051 1.429 . S
C1055 C1056 1.523 . S
C1056 C1040 1.368 . S
C1056 C1052 1.368 . S
C1056 C1055 1.523 . S
H1057 C1032 0.950 . S
H1058 C1034 0.950 1_556 S
H1059 C1035 0.949 . S
H1060 C1037 0.950 . S
H1061 C1039 0.950 . S
C1062 C1063 1.349 . S
C1062 C1064 1.327 . S
C1062 H1087 0.950 . S
C1063 C1062 1.349 . S
C1063 C1079 1.349 . S
C1064 C1062 1.327 . S
C1064 C1083 1.429 . S
C1064 H1088 0.950 . S
C1065 C1082 1.574 . S
C1065 C1084 1.368 . S
C1065 H1089 0.949 . S
H1066 C1070 0.949 . S
C1067 C1068 1.349 . S
C1067 C1069 1.327 . S
C1067 H1090 0.950 . S
C1068 C1067 1.349 . S
C1068 C1080 1.349 . S
C1069 C1067 1.327 . S
C1069 C1085 1.429 . S
C1069 H1091 0.950 . S
C1070 H1066 0.949 . S
C1070 C1078 1.574 . S
C1070 C1086 1.368 . S
H1071 C1079 0.950 . S
H1072 C1077 0.950 . S
H1073 C1078 0.949 . S
H1074 C1080 0.950 . S
H1075 C1081 0.950 . S
H1076 C1082 0.949 . S
C1077 H1072 0.950 . S
C1077 C1079 1.327 . S
C1077 C1083 1.429 . S
C1078 C1070 1.574 . S
C1078 H1073 0.949 . S
C1078 C1084 1.368 . S
C1079 C1063 1.349 . S
C1079 H1071 0.950 . S
C1079 C1077 1.327 . S
C1080 C1068 1.349 . S
C1080 H1074 0.950 . S
C1080 C1081 1.327 . S
C1081 H1075 0.950 . S
C1081 C1080 1.327 . S
C1081 C1085 1.429 . S
C1082 C1065 1.574 . S
C1082 H1076 0.949 . S
C1082 C1086 1.368 . S
C1083 C1064 1.429 . S
C1083 C1077 1.429 . S
C1083 C1084 1.523 . S
C1084 C1065 1.368 . S
C1084 C1078 1.368 . S
C1084 C1083 1.523 . S
C1085 C1069 1.429 . S
C1085 C1081 1.429 . S
C1085 C1086 1.523 . S
C1086 C1070 1.368 . S
C1086 C1082 1.368 . S
C1086 C1085 1.523 . S
H1087 C1062 0.950 . S
H1088 C1064 0.950 . S
H1089 C1065 0.949 . S
H1090 C1067 0.950 . S
H1091 C1069 0.950 . S
C1092 C1093 1.349 . S
C1092 C1094 1.327 . S
C1092 H1117 0.950 . S
C1093 C1092 1.349 . S
C1093 C1109 1.349 . S
C1094 C1092 1.327 . S
C1094 C1113 1.429 . S
C1094 H1118 0.950 . S
C1095 C1112 1.574 . S
C1095 C1114 1.368 . S
C1095 H1119 0.949 . S
H1096 C1100 0.949 1_655 S
C1097 C1098 1.349 . S
C1097 C1099 1.327 . S
C1097 H1120 0.950 . S
C1098 C1097 1.349 . S
C1098 C1110 1.349 . S
C1099 C1097 1.327 . S
C1099 C1115 1.429 . S
C1099 H1121 0.950 1_655 S
C1100 H1096 0.949 1_455 S
C1100 C1108 1.574 . S
C1100 C1116 1.368 . S
H1101 C1109 0.950 . S
H1102 C1107 0.950 . S
H1103 C1108 0.949 . S
H1104 C1110 0.950 . S
H1105 C1111 0.950 . S
H1106 C1112 0.949 . S
C1107 H1102 0.950 . S
C1107 C1109 1.327 . S
C1107 C1113 1.429 . S
C1108 C1100 1.574 . S
C1108 H1103 0.949 . S
C1108 C1114 1.368 . S
C1109 C1093 1.349 . S
C1109 H1101 0.950 . S
C1109 C1107 1.327 . S
C1110 C1098 1.349 . S
C1110 H1104 0.950 . S
C1110 C1111 1.327 . S
C1111 H1105 0.950 . S
C1111 C1110 1.327 . S
C1111 C1115 1.429 . S
C1112 C1095 1.574 . S
C1112 H1106 0.949 . S
C1112 C1116 1.368 . S
C1113 C1094 1.429 . S
C1113 C1107 1.429 . S
C1113 C1114 1.523 . S
C1114 C1095 1.368 . S
C1114 C1108 1.368 . S
C1114 C1113 1.523 . S
C1115 C1099 1.429 . S
C1115 C1111 1.429 . S
C1115 C1116 1.523 1_655 S
C1116 C1100 1.368 . S
C1116 C1112 1.368 . S
C1116 C1115 1.523 1_455 S
H1117 C1092 0.950 . S
H1118 C1094 0.950 . S
H1119 C1095 0.949 . S
H1120 C1097 0.950 . S
H1121 C1099 0.950 1_455 S
C1122 C1123 1.349 . S
C1122 C1124 1.327 . S
C1122 H1147 0.950 . S
C1123 C1122 1.349 . S
C1123 C1139 1.349 . S
C1124 C1122 1.327 . S
C1124 C1143 1.429 . S
C1124 H1148 0.950 . S
C1125 C1142 1.574 . S
C1125 C1144 1.368 . S
C1125 H1149 0.949 . S
H1126 C1130 0.949 . S
C1127 C1128 1.349 . S
C1127 C1129 1.327 . S
C1127 H1150 0.950 . S
C1128 C1127 1.349 . S
C1128 C1140 1.349 . S
C1129 C1127 1.327 . S
C1129 C1145 1.432 . S
C1129 H1151 0.950 . S
C1130 H1126 0.949 . S
C1130 C1138 1.574 . S
C1130 C1146 1.368 . S
H1131 C1139 0.950 . S
H1132 C1137 0.950 . S
H1133 C1138 0.949 . S
H1134 C1140 0.950 . S
H1135 C1141 0.950 . S
H1136 C1142 0.949 . S
C1137 H1132 0.950 . S
C1137 C1139 1.327 . S
C1137 C1143 1.429 . S
C1138 C1130 1.574 . S
C1138 H1133 0.949 . S
C1138 C1144 1.368 . S
C1139 C1123 1.349 . S
C1139 H1131 0.950 . S
C1139 C1137 1.327 . S
C1140 C1128 1.349 . S
C1140 H1134 0.950 . S
C1140 C1141 1.327 . S
C1141 H1135 0.950 . S
C1141 C1140 1.327 . S
C1141 C1145 1.430 . S
C1142 C1125 1.574 . S
C1142 H1136 0.949 . S
C1142 C1146 1.368 . S
C1143 C1124 1.429 . S
C1143 C1137 1.429 . S
C1143 C1144 1.523 . S
C1144 C1125 1.368 . S
C1144 C1138 1.368 . S
C1144 C1143 1.523 . S
C1145 C1129 1.432 . S
C1145 C1141 1.430 . S
C1145 C1146 1.518 1_655 S
C1146 C1130 1.368 . S
C1146 C1142 1.368 . S
C1146 C1145 1.518 1_455 S
H1147 C1122 0.950 . S
H1148 C1124 0.950 . S
H1149 C1125 0.949 . S
H1150 C1127 0.950 . S
H1151 C1129 0.950 . S
C1152 C1153 1.349 . S
C1152 C1154 1.327 . S
C1152 H1177 0.950 . S
C1153 C1152 1.349 . S
C1153 C1169 1.349 . S
C1154 C1152 1.327 . S
C1154 C1173 1.429 . S
C1154 H1178 0.950 . S
C1155 C1172 1.574 . S
C1155 C1174 1.368 . S
C1155 H1179 0.949 . S
H1156 C1160 0.949 . S
C1157 C1158 1.349 . S
C1157 C1159 1.327 . S
C1157 H1180 0.950 . S
C1158 C1157 1.349 . S
C1158 C1170 1.349 . S
C1159 C1157 1.327 . S
C1159 C1175 1.429 . S
C1159 H1181 0.950 . S
C1160 H1156 0.949 . S
C1160 C1168 1.574 . S
C1160 C1176 1.368 . S
H1161 C1169 0.950 . S
H1162 C1167 0.950 . S
H1163 C1168 0.949 . S
H1164 C1170 0.950 . S
H1165 C1171 0.950 . S
H1166 C1172 0.949 . S
C1167 H1162 0.950 . S
C1167 C1169 1.327 . S
C1167 C1173 1.429 . S
C1168 C1160 1.574 . S
C1168 H1163 0.949 . S
C1168 C1174 1.368 . S
C1169 C1153 1.349 . S
C1169 H1161 0.950 . S
C1169 C1167 1.327 . S
C1170 C1158 1.349 . S
C1170 H1164 0.950 . S
C1170 C1171 1.327 . S
C1171 H1165 0.950 . S
C1171 C1170 1.327 . S
C1171 C1175 1.429 . S
C1172 C1155 1.574 . S
C1172 H1166 0.949 . S
C1172 C1176 1.368 . S
C1173 C1154 1.429 . S
C1173 C1167 1.429 . S
C1173 C1174 1.523 . S
C1174 C1155 1.368 . S
C1174 C1168 1.368 . S
C1174 C1173 1.523 . S
C1175 C1159 1.429 . S
C1175 C1171 1.429 . S
C1175 C1176 1.523 . S
C1176 C1160 1.368 . S
C1176 C1172 1.368 . S
C1176 C1175 1.523 . S
H1177 C1152 0.950 . S
H1178 C1154 0.950 . S
H1179 C1155 0.949 . S
H1180 C1157 0.950 . S
H1181 C1159 0.950 . S
C1182 C1183 1.349 . S
C1182 C1184 1.327 . S
C1182 H1207 0.950 . S
C1183 C1182 1.349 . S
C1183 C1199 1.349 1_554 S
C1184 C1182 1.327 . S
C1184 C1203 1.429 1_554 S
C1184 H1208 0.950 . S
C1185 C1202 1.574 . S
C1185 C1204 1.368 . S
C1185 H1209 0.949 . S
H1186 C1190 0.949 . S
C1187 C1188 1.349 . S
C1187 C1189 1.327 . S
C1187 H1210 0.950 . S
C1188 C1187 1.349 . S
C1188 C1200 1.349 . S
C1189 C1187 1.327 . S
C1189 C1205 1.429 . S
C1189 H1211 0.950 . S
C1190 H1186 0.949 . S
C1190 C1198 1.574 . S
C1190 C1206 1.368 . S
H1191 C1199 0.950 . S
H1192 C1197 0.950 . S
H1193 C1198 0.949 . S
H1194 C1200 0.950 . S
H1195 C1201 0.950 . S
H1196 C1202 0.949 . S
C1197 H1192 0.950 . S
C1197 C1199 1.327 . S
C1197 C1203 1.429 . S
C1198 C1190 1.574 . S
C1198 H1193 0.949 . S
C1198 C1204 1.368 . S
C1199 C1183 1.349 1_556 S
C1199 H1191 0.950 . S
C1199 C1197 1.327 . S
C1200 C1188 1.349 . S
C1200 H1194 0.950 . S
C1200 C1201 1.327 . S
C1201 H1195 0.950 . S
C1201 C1200 1.327 . S
C1201 C1205 1.429 . S
C1202 C1185 1.574 . S
C1202 H1196 0.949 . S
C1202 C1206 1.368 . S
C1203 C1184 1.429 1_556 S
C1203 C1197 1.429 . S
C1203 C1204 1.523 . S
C1204 C1185 1.368 . S
C1204 C1198 1.368 . S
C1204 C1203 1.523 . S
C1205 C1189 1.429 . S
C1205 C1201 1.429 . S
C1205 C1206 1.523 . S
C1206 C1190 1.368 . S
C1206 C1202 1.368 . S
C1206 C1205 1.523 . S
H1207 C1182 0.950 . S
H1208 C1184 0.950 . S
H1209 C1185 0.949 . S
H1210 C1187 0.950 . S
H1211 C1189 0.950 . S
C1212 C1213 1.349 . S
C1212 C1214 1.327 . S
C1212 H1237 0.950 . S
C1213 C1212 1.349 . S
C1213 C1229 1.349 . S
C1214 C1212 1.327 . S
C1214 C1233 1.429 . S
C1214 H1238 0.950 . S
C1215 C1232 1.574 . S
C1215 C1234 1.368 . S
C1215 H1239 0.949 . S
H1216 C1220 0.949 . S
C1217 C1218 1.349 . S
C1217 C1219 1.327 . S
C1217 H1240 0.950 . S
C1218 C1217 1.349 . S
C1218 C1230 1.349 . S
C1219 C1217 1.327 . S
C1219 C1235 1.429 . S
C1219 H1241 0.950 . S
C1220 H1216 0.949 . S
C1220 C1228 1.574 . S
C1220 C1236 1.368 . S
H1221 C1229 0.950 . S
H1222 C1227 0.950 . S
H1223 C1228 0.949 . S
H1224 C1230 0.950 . S
H1225 C1231 0.950 . S
H1226 C1232 0.949 . S
C1227 H1222 0.950 . S
C1227 C1229 1.327 . S
C1227 C1233 1.429 . S
C1228 C1220 1.574 . S
C1228 H1223 0.949 . S
C1228 C1234 1.368 . S
C1229 C1213 1.349 . S
C1229 H1221 0.950 . S
C1229 C1227 1.327 . S
C1230 C1218 1.349 . S
C1230 H1224 0.950 . S
C1230 C1231 1.327 . S
C1231 H1225 0.950 . S
C1231 C1230 1.327 . S
C1231 C1235 1.429 . S
C1232 C1215 1.574 . S
C1232 H1226 0.949 . S
C1232 C1236 1.368 . S
C1233 C1214 1.429 . S
C1233 C1227 1.429 . S
C1233 C1234 1.523 . S
C1234 C1215 1.368 . S
C1234 C1228 1.368 . S
C1234 C1233 1.523 . S
C1235 C1219 1.429 . S
C1235 C1231 1.429 . S
C1235 C1236 1.523 . S
C1236 C1220 1.368 . S
C1236 C1232 1.368 . S
C1236 C1235 1.523 . S
H1237 C1212 0.950 . S
H1238 C1214 0.950 . S
H1239 C1215 0.949 . S
H1240 C1217 0.950 . S
H1241 C1219 0.950 . S
C1242 C1243 1.349 . S
C1242 C1244 1.313 1_554 S
C1242 H1267 0.950 . S
C1243 C1242 1.349 . S
C1243 C1259 1.349 . S
C1244 C1242 1.313 1_556 S
C1244 C1263 1.427 1_556 S
C1244 H1268 0.966 . S
C1245 C1262 1.574 . S
C1245 C1264 1.368 . S
C1245 H1269 0.949 1_556 S
H1246 C1250 0.949 . S
C1247 C1248 1.349 . S
C1247 C1249 1.327 . S
C1247 H1270 0.950 . S
C1248 C1247 1.349 . S
C1248 C1260 1.349 . S
C1249 C1247 1.327 . S
C1249 C1265 1.429 . S
C1249 H1271 0.950 . S
C1250 H1246 0.949 . S
C1250 C1258 1.574 . S
C1250 C1266 1.368 . S
H1251 C1259 0.950 . S
H1252 C1257 0.950 . S
H1253 C1258 0.949 . S
H1254 C1260 0.950 . S
H1255 C1261 0.950 . S
H1256 C1262 0.949 . S
C1257 H1252 0.950 . S
C1257 C1259 1.327 . S
C1257 C1263 1.429 . S
C1258 C1250 1.574 . S
C1258 H1253 0.949 . S
C1258 C1264 1.368 . S
C1259 C1243 1.349 . S
C1259 H1251 0.950 . S
C1259 C1257 1.327 . S
C1260 C1248 1.349 . S
C1260 H1254 0.950 . S
C1260 C1261 1.327 . S
C1261 H1255 0.950 . S
C1261 C1260 1.327 . S
C1261 C1265 1.429 . S
C1262 C1245 1.574 . S
C1262 H1256 0.949 . S
C1262 C1266 1.368 . S
C1263 C1244 1.427 1_554 S
C1263 C1257 1.429 . S
C1263 C1264 1.523 1_554 S
C1264 C1245 1.368 . S
C1264 C1258 1.368 . S
C1264 C1263 1.523 1_556 S
C1265 C1249 1.429 . S
C1265 C1261 1.429 . S
C1265 C1266 1.523 . S
C1266 C1250 1.368 . S
C1266 C1262 1.368 . S
C1266 C1265 1.523 . S
H1267 C1242 0.950 . S
H1268 C1244 0.966 . S
H1269 C1245 0.949 1_554 S
H1270 C1247 0.950 . S
H1271 C1249 0.950 . S
C1272 C1273 1.349 . S
C1272 C1274 1.327 . S
C1272 H1297 0.950 . S
C1273 C1272 1.349 . S
C1273 C1289 1.349 . S
C1274 C1272 1.327 . S
C1274 C1293 1.429 . S
C1274 H1298 0.950 . S
C1275 C1292 1.574 . S
C1275 C1294 1.368 . S
C1275 H1299 0.949 . S
H1276 C1280 0.949 . S
C1277 C1278 1.349 . S
C1277 C1279 1.327 . S
C1277 H1300 0.950 . S
C1278 C1277 1.349 . S
C1278 C1290 1.349 . S
C1279 C1277 1.327 . S
C1279 C1295 1.429 . S
C1279 H1301 0.950 . S
C1280 H1276 0.949 . S
C1280 C1288 1.574 . S
C1280 C1296 1.368 . S
H1281 C1289 0.950 . S
H1282 C1287 0.950 . S
H1283 C1288 0.949 . S
H1284 C1290 0.950 . S
H1285 C1291 0.950 . S
H1286 C1292 0.949 . S
C1287 H1282 0.950 . S
C1287 C1289 1.327 . S
C1287 C1293 1.429 . S
C1288 C1280 1.574 . S
C1288 H1283 0.949 . S
C1288 C1294 1.368 . S
C1289 C1273 1.349 . S
C1289 H1281 0.950 . S
C1289 C1287 1.327 . S
C1290 C1278 1.349 . S
C1290 H1284 0.950 . S
C1290 C1291 1.327 . S
C1291 H1285 0.950 . S
C1291 C1290 1.327 . S
C1291 C1295 1.429 . S
C1292 C1275 1.574 . S
C1292 H1286 0.949 . S
C1292 C1296 1.368 . S
C1293 C1274 1.429 . S
C1293 C1287 1.429 . S
C1293 C1294 1.523 . S
C1294 C1275 1.368 . S
C1294 C1288 1.368 . S
C1294 C1293 1.523 . S
C1295 C1279 1.429 . S
C1295 C1291 1.429 . S
C1295 C1296 1.523 . S
C1296 C1280 1.368 . S
C1296 C1292 1.368 . S
C1296 C1295 1.523 . S
H1297 C1272 0.950 . S
H1298 C1274 0.950 . S
H1299 C1275 0.949 . S
H1300 C1277 0.950 . S
H1301 C1279 0.950 . S
C1302 C1303 1.349 . S
C1302 C1304 1.327 . S
C1302 H1327 0.950 . S
C1303 C1302 1.349 . S
C1303 C1319 1.349 . S
C1304 C1302 1.327 . S
C1304 C1323 1.429 . S
C1304 H1328 0.950 . S
C1305 C1322 1.574 . S
C1305 C1324 1.368 . S
C1305 H1329 0.949 . S
H1306 C1310 0.949 . S
C1307 C1308 1.349 . S
C1307 C1309 1.327 . S
C1307 H1330 0.950 . S
C1308 C1307 1.349 . S
C1308 C1320 1.349 . S
C1309 C1307 1.327 . S
C1309 C1325 1.429 . S
C1309 H1331 0.950 . S
C1310 H1306 0.949 . S
C1310 C1318 1.574 . S
C1310 C1326 1.368 . S
H1311 C1319 0.950 . S
H1312 C1317 0.950 . S
H1313 C1318 0.949 . S
H1314 C1320 0.950 . S
H1315 C1321 0.950 . S
H1316 C1322 0.949 . S
C1317 H1312 0.950 . S
C1317 C1319 1.327 . S
C1317 C1323 1.429 . S
C1318 C1310 1.574 . S
C1318 H1313 0.949 . S
C1318 C1324 1.368 . S
C1319 C1303 1.349 . S
C1319 H1311 0.950 . S
C1319 C1317 1.327 . S
C1320 C1308 1.349 . S
C1320 H1314 0.950 . S
C1320 C1321 1.327 . S
C1321 H1315 0.950 . S
C1321 C1320 1.327 . S
C1321 C1325 1.429 . S
C1322 C1305 1.574 . S
C1322 H1316 0.949 . S
C1322 C1326 1.368 . S
C1323 C1304 1.429 . S
C1323 C1317 1.429 . S
C1323 C1324 1.523 . S
C1324 C1305 1.368 . S
C1324 C1318 1.368 . S
C1324 C1323 1.523 . S
C1325 C1309 1.429 . S
C1325 C1321 1.429 . S
C1325 C1326 1.523 . S
C1326 C1310 1.368 . S
C1326 C1322 1.368 . S
C1326 C1325 1.523 . S
H1327 C1302 0.950 . S
H1328 C1304 0.950 . S
H1329 C1305 0.949 . S
H1330 C1307 0.950 . S
H1331 C1309 0.950 . S
C1332 C1333 1.349 . S
C1332 C1334 1.327 . S
C1332 H1357 0.950 . S
C1333 C1332 1.349 . S
C1333 C1349 1.349 . S
C1334 C1332 1.327 . S
C1334 C1353 1.429 . S
C1334 H1358 0.950 . S
C1335 C1352 1.574 . S
C1335 C1354 1.368 . S
C1335 H1359 0.949 . S
H1336 C1340 0.949 . S
C1337 C1338 1.349 . S
C1337 C1339 1.327 . S
C1337 H1360 0.950 . S
C1338 C1337 1.349 . S
C1338 C1350 1.349 . S
C1339 C1337 1.327 . S
C1339 C1355 1.429 . S
C1339 H1361 0.950 . S
C1340 H1336 0.949 . S
C1340 C1348 1.574 . S
C1340 C1356 1.368 . S
H1341 C1349 0.950 . S
H1342 C1347 0.950 . S
H1343 C1348 0.949 . S
H1344 C1350 0.950 . S
H1345 C1351 0.950 . S
H1346 C1352 0.949 . S
C1347 H1342 0.950 . S
C1347 C1349 1.327 . S
C1347 C1353 1.429 . S
C1348 C1340 1.574 . S
C1348 H1343 0.949 . S
C1348 C1354 1.368 . S
C1349 C1333 1.349 . S
C1349 H1341 0.950 . S
C1349 C1347 1.327 . S
C1350 C1338 1.349 . S
C1350 H1344 0.950 . S
C1350 C1351 1.327 . S
C1351 H1345 0.950 . S
C1351 C1350 1.327 . S
C1351 C1355 1.429 . S
C1352 C1335 1.574 . S
C1352 H1346 0.949 . S
C1352 C1356 1.368 . S
C1353 C1334 1.429 . S
C1353 C1347 1.429 . S
C1353 C1354 1.523 . S
C1354 C1335 1.368 . S
C1354 C1348 1.368 . S
C1354 C1353 1.523 . S
C1355 C1339 1.429 . S
C1355 C1351 1.429 . S
C1355 C1356 1.523 . S
C1356 C1340 1.368 . S
C1356 C1352 1.368 . S
C1356 C1355 1.523 . S
H1357 C1332 0.950 . S
H1358 C1334 0.950 . S
H1359 C1335 0.949 . S
H1360 C1337 0.950 . S
H1361 C1339 0.950 . S
C1362 C1363 1.349 . S
C1362 C1364 1.327 . S
C1362 H1387 0.950 . S
C1363 C1362 1.349 . S
C1363 C1379 1.349 . S
C1364 C1362 1.327 . S
C1364 C1383 1.429 . S
C1364 H1388 0.950 . S
C1365 C1382 1.574 . S
C1365 C1384 1.368 . S
C1365 H1389 0.949 . S
H1366 C1370 0.949 . S
C1367 C1368 1.349 . S
C1367 C1369 1.327 . S
C1367 H1390 0.950 . S
C1368 C1367 1.349 . S
C1368 C1380 1.349 . S
C1369 C1367 1.327 . S
C1369 C1385 1.429 . S
C1369 H1391 0.950 . S
C1370 H1366 0.949 . S
C1370 C1378 1.574 . S
C1370 C1386 1.368 . S
H1371 C1379 0.950 . S
H1372 C1377 0.950 . S
H1373 C1378 0.949 . S
H1374 C1380 0.950 . S
H1375 C1381 0.950 . S
H1376 C1382 0.949 . S
C1377 H1372 0.950 . S
C1377 C1379 1.327 . S
C1377 C1383 1.429 . S
C1378 C1370 1.574 . S
C1378 H1373 0.949 . S
C1378 C1384 1.368 . S
C1379 C1363 1.349 . S
C1379 H1371 0.950 . S
C1379 C1377 1.327 . S
C1380 C1368 1.349 . S
C1380 H1374 0.950 . S
C1380 C1381 1.327 . S
C1381 H1375 0.950 . S
C1381 C1380 1.327 . S
C1381 C1385 1.429 . S
C1382 C1365 1.574 . S
C1382 H1376 0.949 . S
C1382 C1386 1.368 . S
C1383 C1364 1.429 . S
C1383 C1377 1.429 . S
C1383 C1384 1.523 . S
C1384 C1365 1.368 . S
C1384 C1378 1.368 . S
C1384 C1383 1.523 . S
C1385 C1369 1.429 . S
C1385 C1381 1.429 . S
C1385 C1386 1.523 . S
C1386 C1370 1.368 . S
C1386 C1382 1.368 . S
C1386 C1385 1.523 . S
H1387 C1362 0.950 . S
H1388 C1364 0.950 . S
H1389 C1365 0.949 . S
H1390 C1367 0.950 . S
H1391 C1369 0.950 . S
C1392 C1393 1.346 1_545 S
C1392 C1394 1.327 . S
C1392 H1417 0.950 . S
C1393 C1392 1.346 1_565 S
C1393 C1409 1.364 . S
C1394 C1392 1.327 . S
C1394 C1413 1.429 1_545 S
C1394 H1418 0.950 . S
C1395 C1412 1.574 . S
C1395 C1414 1.368 . S
C1395 H1419 0.949 . S
H1396 C1400 0.949 . S
C1397 C1398 1.349 . S
C1397 C1399 1.327 . S
C1397 H1420 0.950 . S
C1398 C1397 1.349 . S
C1398 C1410 1.349 . S
C1399 C1397 1.327 . S
C1399 C1415 1.429 . S
C1399 H1421 0.950 . S
C1400 H1396 0.949 . S
C1400 C1408 1.574 . S
C1400 C1416 1.368 . S
H1401 C1409 0.950 . S
H1402 C1407 0.950 . S
H1403 C1408 0.949 . S
H1404 C1410 0.950 . S
H1405 C1411 0.950 . S
H1406 C1412 0.949 . S
C1407 H1402 0.950 . S
C1407 C1409 1.327 . S
C1407 C1413 1.429 . S
C1408 C1400 1.574 . S
C1408 H1403 0.949 . S
C1408 C1414 1.368 . S
C1409 C1393 1.364 . S
C1409 H1401 0.950 . S
C1409 C1407 1.327 . S
C1410 C1398 1.349 . S
C1410 H1404 0.950 . S
C1410 C1411 1.327 . S
C1411 H1405 0.950 . S
C1411 C1410 1.327 . S
C1411 C1415 1.429 . S
C1412 C1395 1.574 . S
C1412 H1406 0.949 . S
C1412 C1416 1.368 . S
C1413 C1394 1.429 1_565 S
C1413 C1407 1.429 . S
C1413 C1414 1.523 . S
C1414 C1395 1.368 . S
C1414 C1408 1.368 . S
C1414 C1413 1.523 . S
C1415 C1399 1.429 . S
C1415 C1411 1.429 . S
C1415 C1416 1.523 . S
C1416 C1400 1.368 . S
C1416 C1412 1.368 . S
C1416 C1415 1.523 . S
H1417 C1392 0.950 . S
H1418 C1394 0.950 . S
H1419 C1395 0.949 . S
H1420 C1397 0.950 . S
H1421 C1399 0.950 . S
C1422 C1423 1.349 . S
C1422 C1424 1.327 . S
C1422 H1447 0.950 . S
C1423 C1422 1.349 . S
C1423 C1439 1.349 . S
C1424 C1422 1.327 . S
C1424 C1443 1.429 . S
C1424 H1448 0.950 . S
C1425 C1442 1.574 . S
C1425 C1444 1.368 . S
C1425 H1449 0.949 . S
H1426 C1430 0.949 . S
C1427 C1428 1.349 . S
C1427 C1429 1.327 . S
C1427 H1450 0.950 . S
C1428 C1427 1.349 . S
C1428 C1440 1.349 . S
C1429 C1427 1.327 . S
C1429 C1445 1.429 . S
C1429 H1451 0.950 . S
C1430 H1426 0.949 . S
C1430 C1438 1.574 . S
C1430 C1446 1.368 . S
H1431 C1439 0.950 . S
H1432 C1437 0.950 . S
H1433 C1438 0.949 . S
H1434 C1440 0.950 . S
H1435 C1441 0.950 . S
H1436 C1442 0.949 . S
C1437 H1432 0.950 . S
C1437 C1439 1.327 . S
C1437 C1443 1.429 . S
C1438 C1430 1.574 . S
C1438 H1433 0.949 . S
C1438 C1444 1.368 . S
C1439 C1423 1.349 . S
C1439 H1431 0.950 . S
C1439 C1437 1.327 . S
C1440 C1428 1.349 . S
C1440 H1434 0.950 . S
C1440 C1441 1.327 . S
C1441 H1435 0.950 . S
C1441 C1440 1.327 . S
C1441 C1445 1.429 . S
C1442 C1425 1.574 . S
C1442 H1436 0.949 . S
C1442 C1446 1.368 . S
C1443 C1424 1.429 . S
C1443 C1437 1.429 . S
C1443 C1444 1.523 . S
C1444 C1425 1.368 . S
C1444 C1438 1.368 . S
C1444 C1443 1.523 . S
C1445 C1429 1.429 . S
C1445 C1441 1.429 . S
C1445 C1446 1.523 . S
C1446 C1430 1.368 . S
C1446 C1442 1.368 . S
C1446 C1445 1.523 . S
H1447 C1422 0.950 . S
H1448 C1424 0.950 . S
H1449 C1425 0.949 . S
H1450 C1427 0.950 . S
H1451 C1429 0.950 . S
C1452 C1453 1.349 . S
C1452 C1454 1.327 . S
C1452 H1477 0.950 . S
C1453 C1452 1.349 . S
C1453 C1469 1.349 . S
C1454 C1452 1.327 . S
C1454 C1473 1.429 . S
C1454 H1478 0.950 . S
C1455 C1472 1.574 . S
C1455 C1474 1.368 . S
C1455 H1479 0.949 . S
H1456 C1460 0.949 . S
C1457 C1458 1.349 . S
C1457 C1459 1.327 . S
C1457 H1480 0.950 . S
C1458 C1457 1.349 . S
C1458 C1470 1.349 . S
C1459 C1457 1.327 . S
C1459 C1475 1.429 . S
C1459 H1481 0.950 . S
C1460 H1456 0.949 . S
C1460 C1468 1.574 . S
C1460 C1476 1.368 . S
H1461 C1469 0.950 . S
H1462 C1467 0.950 . S
H1463 C1468 0.949 . S
H1464 C1470 0.950 . S
H1465 C1471 0.950 . S
H1466 C1472 0.949 . S
C1467 H1462 0.950 . S
C1467 C1469 1.327 . S
C1467 C1473 1.429 . S
C1468 C1460 1.574 . S
C1468 H1463 0.949 . S
C1468 C1474 1.368 . S
C1469 C1453 1.349 . S
C1469 H1461 0.950 . S
C1469 C1467 1.327 . S
C1470 C1458 1.349 . S
C1470 H1464 0.950 . S
C1470 C1471 1.327 . S
C1471 H1465 0.950 . S
C1471 C1470 1.327 . S
C1471 C1475 1.429 . S
C1472 C1455 1.574 . S
C1472 H1466 0.949 . S
C1472 C1476 1.368 . S
C1473 C1454 1.429 . S
C1473 C1467 1.429 . S
C1473 C1474 1.523 . S
C1474 C1455 1.368 . S
C1474 C1468 1.368 . S
C1474 C1473 1.523 . S
C1475 C1459 1.429 . S
C1475 C1471 1.429 . S
C1475 C1476 1.523 . S
C1476 C1460 1.368 . S
C1476 C1472 1.368 . S
C1476 C1475 1.523 . S
H1477 C1452 0.950 . S
H1478 C1454 0.950 . S
H1479 C1455 0.949 . S
H1480 C1457 0.950 . S
H1481 C1459 0.950 . S
C763 C39 2.243 . S
C768 C381 2.190 . S
C793 C91 1.378 . S
C798 C455 1.352 . S
C828 C505 1.721 . S
C823 C128 1.769 . S
C858 C591 1.025 . S
C853 C188 1.024 . S
C888 C683 1.965 . S
C883 C250 1.963 . S
C918 C727 1.930 . S
C913 C304 1.970 . S
C943 C75 1.041 . S
C948 C529 1.001 . S
C973 C144 2.617 . S
C978 C609 2.600 . S
C1008 C665 1.408 . S
C1003 C198 1.403 . S
C1038 C751 1.247 . S
C1033 C234 1.270 . S
C1063 C294 2.061 . S
C1068 C357 1.972 . S
C1098 C431 1.882 . S
C1093 C29 1.899 . S
C1128 C603 1.924 . S
C1123 C38 2.069 . S
C1153 C92 2.140 . S
C1158 C653 2.017 . S
C1188 C757 2.279 . S
C1183 C135 2.364 . S
C1213 C181 1.241 . S
C1218 C369 1.222 . S
C1243 C251 1.822 . S
C1248 C443 1.766 . S
C1273 C303 2.489 . S
C1278 C535 2.401 . S
C1303 C82 1.764 . S
C1308 C739 1.694 . S
C1338 C387 2.354 . S
C1333 C145 2.376 . S
C1363 C197 2.341 . S
C1368 C461 2.259 . S
C1393 C241 1.427 1_565 S
C1398 C517 1.369 . S
C1423 C287 1.501 . S
C1428 C579 1.391 . S
C1453 C22 1.877 . S
C1458 C677 1.797 . S
