# Generated by pormake.
# Topology pts, (4,4)-cn, num edge types: 1
# Building blocks:
#     Node 0, Type 0, BuildingBlock: MIFKUJ_clean_linker_1, # of connection points: 4
#     Node 1, Type 0, BuildingBlock: MIFKUJ_clean_linker_1, # of connection points: 4
#     Node 2, Type 1, BuildingBlock: QUQFOY_clean_sbu_1, # of connection points: 4
#     Node 3, Type 1, BuildingBlock: QUQFOY_clean_sbu_1, # of connection points: 4
#     Edge 4, Type (0, 1), BuildingBlock: XIVTED_clean_linker_0, # of connection points: 2
#     Edge 5, Type (0, 1), BuildingBlock: XIVTED_clean_linker_0, # of connection points: 2
#     Edge 6, Type (0, 1), BuildingBlock: XIVTED_clean_linker_0, # of connection points: 2
#     Edge 7, Type (0, 1), BuildingBlock: XIVTED_clean_linker_0, # of connection points: 2
#     Edge 8, Type (0, 1), BuildingBlock: XIVTED_clean_linker_0, # of connection points: 2
#     Edge 9, Type (0, 1), BuildingBlock: XIVTED_clean_linker_0, # of connection points: 2
#     Edge 10, Type (0, 1), BuildingBlock: XIVTED_clean_linker_0, # of connection points: 2
#     Edge 11, Type (0, 1), BuildingBlock: XIVTED_clean_linker_0, # of connection points: 2
# Relax obj value: 0.096
# Max RMSD: 0.259
# Mean RMSD: 0.154
data_MOF--net-pts--node1-QUQFOY_clean_sbu_1--node2-MIFKUJ_clean_linker_1--edge1-XIVTED_clean_linker_0
_symmetry_space_group_name_H-M    P1
_symmetry_Int_Tables_number       1
_symmetry_cell_setting            triclinic
loop_
_symmetry_equiv_pos_as_xyz
'x, y, z'
_cell_length_a     28.741062
_cell_length_b     31.592458
_cell_length_c     44.365301
_cell_angle_alpha  90.162212
_cell_angle_beta   89.97179
_cell_angle_gamma 90.067521
loop_
_atom_site_label
_atom_site_type_symbol
_atom_site_fract_x
_atom_site_fract_y
_atom_site_fract_z
_atom_type_partial_charge
H0 H 0.5642 0.95469 0.05271 0.0
H1 H 0.63074 0.95491 0.08665 0.0
H2 H 0.67571 0.07459 0.04955 0.0
H3 H 0.60766 0.075 0.01643 0.0
H4 H 0.49515 0.00733 0.05351 0.0
H5 H 0.60682 0.96479 0.98039 0.0
H6 H 0.67402 0.96369 0.94667 0.0
H7 H 0.6299 0.08267 0.90826 0.0
H8 H 0.56394 0.0844 0.94288 0.0
H9 H 0.41488 0.08646 0.95104 0.0
H10 H 0.34818 0.08395 0.91702 0.0
H11 H 0.32897 0.95137 0.93812 0.0
H12 H 0.39411 0.95511 0.97329 0.0
H13 H 0.49425 0.03103 0.94317 0.0
H14 H 0.37968 0.06944 0.01706 0.0
H15 H 0.31279 0.06644 0.05104 0.0
H16 H 0.36306 0.94784 0.08679 0.0
H17 H 0.42872 0.95025 0.05199 0.0
C18 C 0.58098 0.01475 0.03197 0.0
C19 C 0.58855 0.98087 0.05174 0.0
C20 C 0.62687 0.98089 0.07098 0.0
C21 C 0.6586 0.0148 0.07086 0.0
C22 C 0.65163 0.04824 0.05046 0.0
C23 C 0.61308 0.04826 0.03124 0.0
C24 C 0.53754 0.01639 0.01401 0.0
C25 C 0.49506 0.01181 0.02927 0.0
C26 C 0.53733 0.02357 0.98256 0.0
C27 C 0.58056 0.02488 0.96436 0.0
C28 C 0.61226 0.99114 0.96522 0.0
C29 C 0.65031 0.99026 0.94562 0.0
C30 C 0.65717 0.02295 0.92461 0.0
C31 C 0.62599 0.05722 0.92436 0.0
C32 C 0.58807 0.05813 0.94401 0.0
C33 C 0.40909 0.02106 0.96471 0.0
C34 C 0.39565 0.05713 0.94863 0.0
C35 C 0.35783 0.05543 0.92893 0.0
C36 C 0.33334 0.01729 0.92442 0.0
C37 C 0.3464 0.98145 0.94123 0.0
C38 C 0.38377 0.98342 0.96131 0.0
C39 C 0.45228 0.02155 0.9827 0.0
C40 C 0.4946 0.0266 0.96742 0.0
C41 C 0.45243 0.01399 0.01402 0.0
C42 C 0.40906 0.00993 0.03185 0.0
C43 C 0.37561 0.04226 0.03166 0.0
C44 C 0.33775 0.04079 0.0514 0.0
C45 C 0.33279 0.00707 0.07182 0.0
C46 C 0.36551 0.97404 0.07119 0.0
C47 C 0.40326 0.9755 0.05142 0.0
H48 H 0.03789 0.44365 0.43876 0.0
H49 H 0.04099 0.37755 0.41088 0.0
H50 H 0.92574 0.3295 0.46356 0.0
H51 H 0.92002 0.3975 0.48927 0.0
H52 H 0.98017 0.50326 0.44242 0.0
H53 H 0.04209 0.40641 0.51503 0.0
H54 H 0.04437 0.34232 0.54584 0.0
H55 H 0.91644 0.38009 0.5894 0.0
H56 H 0.91412 0.44391 0.55836 0.0
H57 H 0.90864 0.58276 0.5472 0.0
H58 H 0.91368 0.64981 0.57518 0.0
H59 H 0.0552 0.66603 0.54459 0.0
H60 H 0.04968 0.59942 0.51619 0.0
H61 H 0.97303 0.50949 0.55405 0.0
H62 H 0.91799 0.61086 0.48099 0.0
H63 H 0.92205 0.67469 0.45 0.0
H64 H 0.04788 0.62794 0.40834 0.0
H65 H 0.04388 0.5644 0.43954 0.0
C66 C 0.97913 0.42561 0.46648 0.0
C67 C 0.01288 0.41909 0.44409 0.0
C68 C 0.01511 0.38074 0.42846 0.0
C69 C 0.98413 0.34747 0.43515 0.0
C70 C 0.95003 0.35424 0.45747 0.0
C71 C 0.94713 0.39306 0.4726 0.0
C72 C 0.97779 0.46648 0.48329 0.0
C73 C 0.9791 0.50445 0.46685 0.0
C74 C 0.97569 0.46834 0.5152 0.0
C75 C 0.97764 0.42974 0.53416 0.0
C76 C 0.01432 0.40069 0.53103 0.0
C77 C 0.01554 0.36404 0.54859 0.0
C78 C 0.9805 0.3561 0.56996 0.0
C79 C 0.94415 0.38551 0.5733 0.0
C80 C 0.94276 0.42197 0.55559 0.0
C81 C 0.97876 0.58631 0.52968 0.0
C82 C 0.94061 0.60093 0.54643 0.0
C83 C 0.94341 0.63926 0.56217 0.0
C84 C 0.98479 0.663 0.56192 0.0
C85 C 0.02297 0.64822 0.54516 0.0
C86 C 0.01985 0.61032 0.52897 0.0
C87 C 0.97596 0.54569 0.51311 0.0
C88 C 0.97389 0.50796 0.52962 0.0
C89 C 0.97853 0.544 0.48134 0.0
C90 C 0.98085 0.58296 0.46276 0.0
C91 C 0.9468 0.61462 0.46547 0.0
C92 C 0.94915 0.6511 0.44777 0.0
C93 C 0.98529 0.65635 0.42673 0.0
C94 C 0.01932 0.6246 0.42409 0.0
C95 C 0.0171 0.58829 0.44192 0.0
O96 O 0.93401 0.97602 0.2308 0.0
Cd97 Cd -0.00601 0.96403 0.25465 0.0
Cd98 Cd -0.00288 0.05144 0.25529 0.0
O99 O 0.93715 0.04582 0.23008 0.0
O100 O -0.00867 0.90183 0.26109 0.0
O101 O -0.00756 0.94771 0.29871 0.0
C102 C -0.00875 0.90883 0.28967 0.0
C103 C -0.00203 0.10088 0.29438 0.0
C104 C 0.91733 0.01138 0.22257 0.0
C105 C 0.07616 0.00552 0.225 0.0
O106 O 0.05902 0.0408 0.23307 0.0
O107 O 0.05572 0.97114 0.23165 0.0
O108 O 0.00205 0.11218 0.26664 0.0
O109 O -0.00708 0.0611 0.30022 0.0
O110 O 0.93684 0.03822 0.76588 0.0
Cd111 Cd -0.00319 0.04737 0.74106 0.0
Cd112 Cd -0.00543 0.95881 0.74329 0.0
O113 O 0.9333 0.96844 0.76627 0.0
O114 O -0.00394 0.10982 0.73556 0.0
O115 O -0.00566 0.06519 0.69724 0.0
C116 C -0.00563 0.10378 0.7069 0.0
C117 C -0.00387 0.90685 0.70582 0.0
C118 C 0.91665 0.00418 0.77376 0.0
C119 C 0.07582 0.00336 0.77243 0.0
O120 O 0.05497 0.96862 0.76729 0.0
O121 O 0.05934 0.03805 0.76277 0.0
O122 O -0.00325 0.89724 0.73401 0.0
O123 O -0.00584 0.94641 0.69863 0.0
H124 H 0.30037 0.07447 0.10465 0.0
H125 H 0.11833 0.93648 0.19934 0.0
H126 H 0.28005 0.9402 0.09179 0.0
H127 H 0.12861 0.07263 0.20555 0.0
H128 H 0.18188 0.93655 0.16282 0.0
H129 H 0.24044 0.07392 0.14362 0.0
C130 C 0.283 0.04492 0.10979 0.0
C131 C 0.29517 0.00734 0.09478 0.0
C132 C 0.17038 0.96639 0.17229 0.0
C133 C 0.22708 0.00636 0.13988 0.0
C134 C 0.13422 0.96637 0.19327 0.0
C135 C 0.11788 0.00465 0.20545 0.0
C136 C 0.19045 0.00493 0.1634 0.0
C137 C 0.13989 0.04237 0.19669 0.0
C138 C 0.24905 0.04457 0.13226 0.0
C139 C 0.27215 0.96984 0.10294 0.0
N140 N 0.17489 0.04157 0.17611 0.0
N141 N 0.23923 0.97031 0.12492 0.0
H142 H 0.00146 0.27442 0.55338 0.0
H143 H 0.98511 0.18687 0.72202 0.0
H144 H 0.964 0.35067 0.63049 0.0
H145 H -0.00137 0.1043 0.64482 0.0
H146 H 0.98157 0.24745 0.68844 0.0
H147 H 0.00489 0.21204 0.58611 0.0
C148 C -0.00591 0.27804 0.5772 0.0
C149 C 0.98235 0.3178 0.58923 0.0
C150 C 0.98523 0.21614 0.67875 0.0
C151 C 0.98611 0.2467 0.62669 0.0
C152 C 0.98737 0.18143 0.69795 0.0
C153 C -0.00782 0.14037 0.68622 0.0
C154 C 0.98818 0.21001 0.64746 0.0
C155 C -0.00516 0.1354 0.65481 0.0
C156 C -0.0042 0.24242 0.5958 0.0
C157 C 0.97265 0.3206 0.62016 0.0
N158 N -0.00707 0.16988 0.63647 0.0
N159 N 0.9749 0.28562 0.63779 0.0
H160 H 0.69262 0.08295 0.10256 0.0
H161 H 0.87083 0.94371 0.19854 0.0
H162 H 0.7133 0.94879 0.08948 0.0
H163 H 0.87111 0.08043 0.19989 0.0
H164 H 0.80793 0.94506 0.16181 0.0
H165 H 0.75434 0.08286 0.14047 0.0
C166 C 0.71041 0.05355 0.1074 0.0
C167 C 0.69763 0.01578 0.09279 0.0
C168 C 0.82165 0.97479 0.17017 0.0
C169 C 0.76762 0.01537 0.13662 0.0
C170 C 0.85748 0.97407 0.1913 0.0
C171 C 0.8765 0.01205 0.20226 0.0
C172 C 0.80446 0.01374 0.15993 0.0
C173 C 0.85763 0.05038 0.192 0.0
C174 C 0.74539 0.05349 0.12923 0.0
C175 C 0.72139 0.97853 0.10046 0.0
N176 N 0.82269 0.05025 0.17134 0.0
N177 N 0.75508 0.97926 0.12188 0.0
H178 H 0.92631 0.73142 0.56311 0.0
H179 H 0.03334 0.82837 0.71172 0.0
H180 H 0.05214 0.6826 0.6028 0.0
H181 H 0.96268 0.90839 0.64782 0.0
H182 H 0.03349 0.77113 0.67457 0.0
H183 H 0.93186 0.79379 0.59626 0.0
C184 C 0.95515 0.73401 0.57872 0.0
C185 C 0.98882 0.70197 0.58034 0.0
C186 C 0.01821 0.80129 0.6686 0.0
C187 C -0.00504 0.77242 0.61833 0.0
C188 C 0.0179 0.83388 0.68981 0.0
C189 C -0.00211 0.87309 0.68279 0.0
C190 C -0.00261 0.80756 0.64039 0.0
C191 C 0.97858 0.87862 0.65402 0.0
C192 C 0.95842 0.76956 0.59744 0.0
C193 C 0.02564 0.70676 0.60079 0.0
N194 N 0.97825 0.84595 0.63391 0.0
N195 N 0.02742 0.74107 0.61927 0.0
H196 H 0.25272 0.97005 0.92638 0.0
H197 H 0.14135 0.06591 0.7782 0.0
H198 H 0.32775 0.05787 0.86973 0.0
H199 H 0.10404 0.94235 0.81189 0.0
H200 H 0.20554 0.06856 0.81449 0.0
H201 H 0.19278 0.9645 0.88761 0.0
C202 C 0.25687 0.98802 0.90582 0.0
C203 C 0.29561 0.01451 0.90148 0.0
C204 C 0.18348 0.04076 0.8137 0.0
C205 C 0.22637 0.00889 0.8573 0.0
C206 C 0.14688 0.03923 0.79306 0.0
C207 C 0.11733 0.00386 0.79204 0.0
C208 C 0.18991 0.00709 0.83384 0.0
C209 C 0.1261 0.97016 0.8118 0.0
C210 C 0.22249 0.9849 0.88374 0.0
C211 C 0.29823 0.0377 0.8745 0.0
N212 N 0.16128 0.97281 0.83214 0.0
N213 N 0.26398 0.03452 0.85353 0.0
H214 H 0.91299 0.29244 0.41959 0.0
H215 H 0.05171 0.17127 0.2962 0.0
H216 H 0.06212 0.30791 0.41241 0.0
H217 H 0.94699 0.10394 0.34662 0.0
H218 H 0.05054 0.22762 0.33421 0.0
H219 H 0.91881 0.22786 0.38934 0.0
C220 C 0.94703 0.28225 0.41211 0.0
C221 C 0.98707 0.30642 0.41843 0.0
C222 C 0.02813 0.20032 0.33707 0.0
C223 C -0.00665 0.23313 0.38297 0.0
C224 C 0.02863 0.16834 0.3154 0.0
C225 C -0.00058 0.13308 0.31841 0.0
C226 C -0.00286 0.19763 0.3614 0.0
C227 C 0.9702 0.13063 0.34369 0.0
C228 C 0.95015 0.2454 0.39472 0.0
C229 C 0.02999 0.29147 0.40744 0.0
N230 N 0.96915 0.16297 0.36406 0.0
N231 N 0.03186 0.25626 0.38987 0.0
H232 H 0.71316 0.08726 0.90421 0.0
H233 H 0.86333 0.93862 0.79511 0.0
H234 H 0.68819 0.95325 0.89357 0.0
H235 H 0.87615 0.0748 0.79812 0.0
H236 H 0.79936 0.94301 0.83129 0.0
H237 H 0.77387 0.08297 0.86585 0.0
C238 C 0.72033 0.05694 0.89376 0.0
C239 C 0.69549 0.02056 0.90219 0.0
C240 C 0.81603 0.97193 0.8239 0.0
C241 C 0.76531 0.01534 0.85835 0.0
C242 C 0.85252 0.96946 0.80319 0.0
C243 C 0.87532 0.00638 0.79361 0.0
C244 C 0.80239 0.01158 0.83526 0.0
C245 C 0.85971 0.04547 0.80486 0.0
C246 C 0.7551 0.05449 0.87189 0.0
C247 C 0.70687 0.98201 0.88816 0.0
N248 N 0.82443 0.047 0.8252 0.0
N249 N 0.74094 0.98042 0.86695 0.0
H250 H 0.00401 0.65881 0.36642 0.0
H251 H 0.98403 0.91083 0.35162 0.0
H252 H 0.9696 0.73968 0.44172 0.0
H253 H -0.0036 0.82487 0.27623 0.0
H254 H 0.98279 0.8498 0.3858 0.0
H255 H 0.00615 0.72068 0.33379 0.0
C256 C -0.00279 0.68968 0.37614 0.0
C257 C 0.98676 0.69407 0.40687 0.0
C258 C 0.98571 0.84443 0.36176 0.0
C259 C 0.98868 0.76528 0.36948 0.0
C260 C 0.98649 0.8792 0.34227 0.0
C261 C 0.99028 0.87294 0.31102 0.0
C262 C 0.98908 0.80324 0.34986 0.0
C263 C -0.00666 0.83129 0.30012 0.0
C264 C -0.00189 0.72502 0.35744 0.0
C265 C 0.97743 0.73484 0.4181 0.0
N266 N -0.00724 0.79815 0.31949 0.0
N267 N 0.97873 0.76893 0.39942 0.0
loop_
_geom_bond_atom_site_label_1
_geom_bond_atom_site_label_2
_geom_bond_distance
_geom_bond_site_symmetry_2
_ccdc_geom_bond_type
H0 C19 0.949 . S
H1 C20 0.950 . S
H2 C22 0.950 . S
H3 C23 0.950 . S
H4 C25 0.950 1_565 S
H5 C28 0.950 . S
H6 C29 0.950 . S
H7 C31 0.951 . S
H8 C32 0.949 . S
H9 C34 0.949 . S
H10 C35 0.950 . S
H11 C37 0.950 . S
H12 C38 0.950 . S
H13 C40 0.950 . S
H14 C43 0.950 . S
H15 C44 0.950 . S
H16 C46 0.951 . S
H17 C47 0.949 . S
C18 C19 1.376 1_545 S
C18 C23 1.386 . S
C18 C24 1.483 . S
C19 H0 0.949 . S
C19 C18 1.376 1_565 S
C19 C20 1.397 . S
C20 H1 0.950 . S
C20 C19 1.397 . S
C20 C21 1.391 1_565 S
C21 C20 1.391 1_545 S
C21 C22 1.405 . S
C22 H2 0.950 . S
C22 C21 1.405 . S
C22 C23 1.367 . S
C23 H3 0.950 . S
C23 C18 1.386 . S
C23 C22 1.367 . S
C24 C18 1.483 . S
C24 C25 1.382 . S
C24 C26 1.403 1_554 S
C25 H4 0.950 1_545 S
C25 C24 1.382 . S
C25 C41 1.411 . S
C26 C24 1.403 1_556 S
C26 C27 1.489 . S
C26 C40 1.411 . S
C27 C26 1.489 . S
C27 C28 1.383 1_545 S
C27 C32 1.382 . S
C28 H5 0.950 . S
C28 C27 1.383 1_565 S
C28 C29 1.395 . S
C29 H6 0.950 . S
C29 C28 1.395 . S
C29 C30 1.288 1_565 S
C30 C29 1.288 1_545 S
C30 C31 1.392 . S
C31 H7 0.951 . S
C31 C30 1.392 . S
C31 C32 1.392 . S
C32 H8 0.949 . S
C32 C27 1.382 . S
C32 C31 1.392 . S
C33 C34 1.376 . S
C33 C38 1.386 1_545 S
C33 C39 1.483 . S
C34 H9 0.949 . S
C34 C33 1.376 . S
C34 C35 1.397 . S
C35 H10 0.950 . S
C35 C34 1.397 . S
C35 C36 1.391 . S
C36 C35 1.391 . S
C36 C37 1.405 1_545 S
C37 H11 0.950 . S
C37 C36 1.405 1_565 S
C37 C38 1.367 . S
C38 H12 0.950 . S
C38 C33 1.386 1_565 S
C38 C37 1.367 . S
C39 C33 1.483 . S
C39 C40 1.382 . S
C39 C41 1.403 1_556 S
C40 H13 0.950 . S
C40 C26 1.411 . S
C40 C39 1.382 . S
C41 C25 1.411 . S
C41 C39 1.403 1_554 S
C41 C42 1.489 . S
C42 C41 1.489 . S
C42 C43 1.383 . S
C42 C47 1.382 1_545 S
C43 H14 0.950 . S
C43 C42 1.383 . S
C43 C44 1.395 . S
C44 H15 0.950 . S
C44 C43 1.395 . S
C44 C45 1.288 . S
C45 C44 1.288 . S
C45 C46 1.392 1_545 S
C46 H16 0.951 . S
C46 C45 1.392 1_565 S
C46 C47 1.392 . S
C47 H17 0.949 . S
C47 C42 1.382 1_565 S
C47 C46 1.392 . S
H48 C67 0.949 . S
H49 C68 0.950 . S
H50 C70 0.950 . S
H51 C71 0.950 . S
H52 C73 0.950 . S
H53 C76 0.950 . S
H54 C77 0.950 . S
H55 C79 0.951 . S
H56 C80 0.949 . S
H57 C82 0.949 . S
H58 C83 0.950 . S
H59 C85 0.950 . S
H60 C86 0.950 . S
H61 C88 0.950 . S
H62 C91 0.950 . S
H63 C92 0.950 . S
H64 C94 0.951 . S
H65 C95 0.949 . S
C66 C67 1.376 . S
C66 C71 1.386 1_455 S
C66 C72 1.483 . S
C67 H48 0.949 . S
C67 C66 1.376 . S
C67 C68 1.397 . S
C68 H49 0.950 . S
C68 C67 1.397 . S
C68 C69 1.391 . S
C69 C68 1.391 . S
C69 C70 1.405 1_455 S
C70 H50 0.950 . S
C70 C69 1.405 1_655 S
C70 C71 1.367 . S
C71 H51 0.950 . S
C71 C66 1.386 1_655 S
C71 C70 1.367 . S
C72 C66 1.483 . S
C72 C73 1.382 . S
C72 C74 1.403 1_455 S
C73 H52 0.950 . S
C73 C72 1.382 . S
C73 C89 1.411 . S
C74 C72 1.403 1_655 S
C74 C75 1.489 . S
C74 C88 1.411 . S
C75 C74 1.489 . S
C75 C76 1.383 1_655 S
C75 C80 1.382 . S
C76 H53 0.950 . S
C76 C75 1.383 1_455 S
C76 C77 1.395 . S
C77 H54 0.950 . S
C77 C76 1.395 . S
C77 C78 1.288 1_455 S
C78 C77 1.288 1_655 S
C78 C79 1.392 . S
C79 H55 0.951 . S
C79 C78 1.392 . S
C79 C80 1.392 . S
C80 H56 0.949 . S
C80 C75 1.382 . S
C80 C79 1.392 . S
C81 C82 1.376 . S
C81 C86 1.386 1_655 S
C81 C87 1.483 . S
C82 H57 0.949 . S
C82 C81 1.376 . S
C82 C83 1.397 . S
C83 H58 0.950 . S
C83 C82 1.397 . S
C83 C84 1.405 . S
C84 C83 1.405 . S
C84 C85 1.392 1_655 S
C85 H59 0.950 . S
C85 C84 1.392 1_455 S
C85 C86 1.367 . S
C86 H60 0.950 . S
C86 C81 1.386 1_455 S
C86 C85 1.367 . S
C87 C81 1.483 . S
C87 C88 1.382 . S
C87 C89 1.403 1_655 S
C88 H61 0.950 . S
C88 C74 1.411 . S
C88 C87 1.382 . S
C89 C73 1.411 . S
C89 C87 1.403 1_455 S
C89 C90 1.489 . S
C90 C89 1.489 . S
C90 C91 1.383 1_455 S
C90 C95 1.382 . S
C91 H62 0.950 . S
C91 C90 1.383 1_655 S
C91 C92 1.395 . S
C92 H63 0.950 . S
C92 C91 1.395 . S
C92 C93 1.288 1_655 S
C93 C92 1.288 1_455 S
C93 C94 1.392 . S
C94 H64 0.951 . S
C94 C93 1.392 . S
C94 C95 1.392 . S
C95 H65 0.949 . S
C95 C90 1.382 . S
C95 C94 1.392 . S
O96 Cd97 2.223 1_655 S
O96 C104 1.315 . S
Cd97 O96 2.223 1_455 S
Cd97 O100 2.297 1_455 S
Cd97 O101 2.439 1_455 S
Cd97 O107 2.240 1_565 S
Cd98 O99 2.240 . S
Cd98 O106 2.223 1_655 S
Cd98 O108 2.297 1_655 S
Cd98 O109 2.439 1_655 S
O99 Cd98 2.240 . S
O99 C104 1.279 1_545 S
O100 Cd97 2.297 1_655 S
O100 C102 1.247 . S
O101 Cd97 2.439 1_655 S
O101 C102 1.208 . S
C102 O100 1.247 . S
C102 O101 1.208 . S
C103 O108 1.247 . S
C103 O109 1.208 . S
C104 O96 1.315 . S
C104 O99 1.279 1_565 S
C105 O106 1.315 . S
C105 O107 1.279 . S
O106 Cd98 2.223 1_455 S
O106 C105 1.315 . S
O107 Cd97 2.240 1_545 S
O107 C105 1.279 . S
O108 Cd98 2.297 1_455 S
O108 C103 1.247 . S
O109 Cd98 2.439 1_455 S
O109 C103 1.208 . S
O110 Cd111 2.223 1_655 S
O110 C118 1.315 . S
Cd111 O110 2.223 1_455 S
Cd111 O114 2.297 1_455 S
Cd111 O115 2.439 1_455 S
Cd111 O121 2.240 . S
Cd112 O113 2.240 1_565 S
Cd112 O120 2.223 1_655 S
Cd112 O122 2.297 1_655 S
Cd112 O123 2.439 1_655 S
O113 Cd112 2.240 1_545 S
O113 C118 1.279 . S
O114 Cd111 2.297 1_655 S
O114 C116 1.247 . S
O115 Cd111 2.439 1_655 S
O115 C116 1.208 . S
C116 O114 1.247 . S
C116 O115 1.208 . S
C117 O122 1.247 . S
C117 O123 1.208 . S
C118 O110 1.315 . S
C118 O113 1.279 . S
C119 O120 1.315 . S
C119 O121 1.279 1_565 S
O120 Cd112 2.223 1_455 S
O120 C119 1.315 . S
O121 Cd111 2.240 . S
O121 C119 1.279 1_545 S
O122 Cd112 2.297 1_455 S
O122 C117 1.247 . S
O123 Cd112 2.439 1_455 S
O123 C117 1.208 . S
H124 C130 0.930 . S
H125 C134 0.930 . S
H126 C139 0.929 . S
H127 C137 0.929 . S
H128 C132 0.929 . S
H129 C138 0.929 . S
C130 H124 0.930 . S
C130 C131 1.367 . S
C130 C138 1.378 . S
C131 C130 1.367 . S
C131 C139 1.433 1_545 S
C132 H128 0.929 . S
C132 C134 1.378 . S
C132 C136 1.350 1_565 S
C133 C136 1.463 . S
C133 C138 1.350 . S
C133 N141 1.427 1_545 S
C134 H125 0.930 . S
C134 C132 1.378 . S
C134 C135 1.367 1_565 S
C135 C134 1.367 1_545 S
C135 C137 1.433 . S
C136 C132 1.350 1_545 S
C136 C133 1.463 . S
C136 N140 1.427 . S
C137 H127 0.929 . S
C137 C135 1.433 . S
C137 N140 1.384 . S
C138 H129 0.929 . S
C138 C130 1.378 . S
C138 C133 1.350 . S
C139 H126 0.929 . S
C139 C131 1.433 1_565 S
C139 N141 1.384 . S
N140 C136 1.427 . S
N140 C137 1.384 . S
N141 C133 1.427 1_565 S
N141 C139 1.384 . S
H142 C148 0.930 1_455 S
H143 C152 0.930 . S
H144 C157 0.929 . S
H145 C155 0.929 . S
H146 C150 0.929 . S
H147 C156 0.929 . S
C148 H142 0.930 1_655 S
C148 C149 1.367 . S
C148 C156 1.378 . S
C149 C148 1.367 . S
C149 C157 1.433 . S
C150 H146 0.929 . S
C150 C152 1.378 . S
C150 C154 1.350 . S
C151 C154 1.463 . S
C151 C156 1.350 . S
C151 N159 1.427 . S
C152 H143 0.930 . S
C152 C150 1.378 . S
C152 C153 1.367 . S
C153 C152 1.367 . S
C153 C155 1.433 . S
C154 C150 1.350 . S
C154 C151 1.463 . S
C154 N158 1.427 . S
C155 H145 0.929 . S
C155 C153 1.433 . S
C155 N158 1.384 . S
C156 H147 0.929 . S
C156 C148 1.378 . S
C156 C151 1.350 . S
C157 H144 0.929 . S
C157 C149 1.433 . S
C157 N159 1.384 . S
N158 C154 1.427 . S
N158 C155 1.384 . S
N159 C151 1.427 . S
N159 C157 1.384 . S
H160 C166 0.930 . S
H161 C170 0.930 . S
H162 C175 0.929 . S
H163 C173 0.927 1_545 S
H164 C168 0.929 . S
H165 C174 0.929 . S
C166 H160 0.930 . S
C166 C167 1.367 . S
C166 C174 1.378 . S
C167 C166 1.367 . S
C167 C175 1.433 1_545 S
C168 H164 0.929 . S
C168 C170 1.378 . S
C168 C172 1.350 . S
C169 C172 1.460 1_545 S
C169 C174 1.355 . S
C169 N177 1.424 1_545 S
C170 H161 0.930 . S
C170 C168 1.378 . S
C170 C171 1.367 . S
C171 C170 1.367 . S
C171 C173 1.437 . S
C172 C168 1.350 . S
C172 C169 1.460 1_565 S
C172 N176 1.427 1_565 S
C173 H163 0.927 1_565 S
C173 C171 1.437 . S
C173 N176 1.382 1_565 S
C174 H165 0.929 . S
C174 C166 1.378 . S
C174 C169 1.355 . S
C175 H162 0.929 . S
C175 C167 1.433 1_565 S
C175 N177 1.384 . S
N176 C172 1.427 1_545 S
N176 C173 1.382 1_545 S
N177 C169 1.424 1_565 S
N177 C175 1.384 . S
H178 C184 0.930 . S
H179 C188 0.930 . S
H180 C193 0.929 . S
H181 C191 0.929 . S
H182 C186 0.929 . S
H183 C192 0.929 . S
C184 H178 0.930 . S
C184 C185 1.367 1_655 S
C184 C192 1.378 . S
C185 C184 1.367 1_455 S
C185 C193 1.433 . S
C186 H182 0.929 . S
C186 C188 1.378 . S
C186 C190 1.350 . S
C187 C190 1.463 . S
C187 C192 1.350 1_455 S
C187 N195 1.427 . S
C188 H179 0.930 . S
C188 C186 1.378 . S
C188 C189 1.367 . S
C189 C188 1.367 . S
C189 C191 1.433 1_455 S
C190 C186 1.350 . S
C190 C187 1.463 . S
C190 N194 1.427 1_455 S
C191 H181 0.929 . S
C191 C189 1.433 1_655 S
C191 N194 1.384 . S
C192 H183 0.929 . S
C192 C184 1.378 . S
C192 C187 1.350 1_655 S
C193 H180 0.929 . S
C193 C185 1.433 . S
C193 N195 1.384 . S
N194 C190 1.427 1_655 S
N194 C191 1.384 . S
N195 C187 1.427 . S
N195 C193 1.384 . S
H196 C202 0.930 . S
H197 C206 0.930 . S
H198 C211 0.929 . S
H199 C209 0.929 . S
H200 C204 0.929 . S
H201 C210 0.929 . S
C202 H196 0.930 . S
C202 C203 1.367 1_565 S
C202 C210 1.378 . S
C203 C202 1.367 1_545 S
C203 C211 1.433 . S
C204 H200 0.929 . S
C204 C206 1.378 . S
C204 C208 1.350 1_545 S
C205 C208 1.462 . S
C205 C210 1.350 . S
C205 N213 1.427 1_565 S
C206 H197 0.930 . S
C206 C204 1.378 . S
C206 C207 1.367 1_545 S
C207 C206 1.367 1_565 S
C207 C209 1.433 . S
C208 C204 1.350 1_565 S
C208 C205 1.462 . S
C208 N212 1.427 . S
C209 H199 0.929 . S
C209 C207 1.433 . S
C209 N212 1.384 . S
C210 H201 0.929 . S
C210 C202 1.378 . S
C210 C205 1.350 . S
C211 H198 0.929 . S
C211 C203 1.433 . S
C211 N213 1.384 . S
N212 C208 1.427 . S
N212 C209 1.384 . S
N213 C205 1.427 1_545 S
N213 C211 1.384 . S
H214 C220 0.930 . S
H215 C224 0.930 . S
H216 C229 0.929 . S
H217 C227 0.929 . S
H218 C222 0.929 . S
H219 C228 0.929 . S
C220 H214 0.930 . S
C220 C221 1.367 1_655 S
C220 C228 1.378 . S
C221 C220 1.367 1_455 S
C221 C229 1.433 . S
C222 H218 0.929 . S
C222 C224 1.378 . S
C222 C226 1.350 . S
C223 C226 1.463 . S
C223 C228 1.350 1_455 S
C223 N231 1.427 . S
C224 H215 0.930 . S
C224 C222 1.378 . S
C224 C225 1.367 . S
C225 C224 1.367 . S
C225 C227 1.433 1_455 S
C226 C222 1.350 . S
C226 C223 1.463 . S
C226 N230 1.427 1_455 S
C227 H217 0.929 . S
C227 C225 1.433 1_655 S
C227 N230 1.384 . S
C228 H219 0.929 . S
C228 C220 1.378 . S
C228 C223 1.350 1_655 S
C229 H216 0.929 . S
C229 C221 1.433 . S
C229 N231 1.384 . S
N230 C226 1.427 1_655 S
N230 C227 1.384 . S
N231 C223 1.427 . S
N231 C229 1.384 . S
H232 C238 0.930 . S
H233 C242 0.930 . S
H234 C247 0.929 . S
H235 C245 0.929 . S
H236 C240 0.929 . S
H237 C246 0.929 . S
C238 H232 0.930 . S
C238 C239 1.367 . S
C238 C246 1.378 . S
C239 C238 1.367 . S
C239 C247 1.433 1_545 S
C240 H236 0.929 . S
C240 C242 1.378 . S
C240 C244 1.350 1_565 S
C241 C244 1.463 . S
C241 C246 1.350 . S
C241 N249 1.427 1_545 S
C242 H233 0.930 . S
C242 C240 1.378 . S
C242 C243 1.367 1_565 S
C243 C242 1.367 1_545 S
C243 C245 1.433 . S
C244 C240 1.350 1_545 S
C244 C241 1.463 . S
C244 N248 1.427 . S
C245 H235 0.929 . S
C245 C243 1.433 . S
C245 N248 1.384 . S
C246 H237 0.929 . S
C246 C238 1.378 . S
C246 C241 1.350 . S
C247 H234 0.929 . S
C247 C239 1.433 1_565 S
C247 N249 1.384 . S
N248 C244 1.427 . S
N248 C245 1.384 . S
N249 C241 1.427 1_565 S
N249 C247 1.384 . S
H250 C256 0.930 . S
H251 C260 0.930 1_455 S
H252 C265 0.929 . S
H253 C263 0.929 . S
H254 C258 0.929 1_455 S
H255 C264 0.929 . S
C256 H250 0.930 . S
C256 C257 1.367 . S
C256 C264 1.378 . S
C257 C256 1.367 . S
C257 C265 1.433 1_655 S
C258 H254 0.929 1_655 S
C258 C260 1.378 . S
C258 C262 1.350 . S
C259 C262 1.463 . S
C259 C264 1.350 . S
C259 N267 1.427 1_655 S
C260 H251 0.930 1_655 S
C260 C258 1.378 . S
C260 C261 1.367 . S
C261 C260 1.367 . S
C261 C263 1.433 . S
C262 C258 1.350 . S
C262 C259 1.463 . S
C262 N266 1.427 . S
C263 H253 0.929 . S
C263 C261 1.433 . S
C263 N266 1.384 . S
C264 H255 0.929 . S
C264 C256 1.378 . S
C264 C259 1.350 . S
C265 H252 0.929 . S
C265 C257 1.433 1_455 S
C265 N267 1.384 . S
N266 C262 1.427 . S
N266 C263 1.384 . S
N267 C259 1.427 1_455 S
N267 C265 1.384 . S
C135 C105 1.634 . S
C131 C45 1.632 . S
C153 C116 1.543 . S
C149 C78 1.607 . S
C171 C104 1.635 . S
C167 C21 1.631 . S
C189 C117 1.552 . S
C185 C84 1.620 1_455 S
C207 C119 1.633 . S
C203 C36 1.636 . S
C225 C103 1.551 . S
C221 C69 1.617 . S
C243 C118 1.634 . S
C239 C30 1.618 . S
C257 C93 1.620 1_655 S
C261 C102 1.548 . S
