# Generated by pormake.
# Topology pyr, (3,6)-cn, num edge types: 1
# Building blocks:
#     Node 0, Type 0, BuildingBlock: VETTIZ_charged_linker_0, # of connection points: 3
#     Node 1, Type 0, BuildingBlock: VETTIZ_charged_linker_0, # of connection points: 3
#     Node 2, Type 0, BuildingBlock: VETTIZ_charged_linker_0, # of connection points: 3
#     Node 3, Type 0, BuildingBlock: VETTIZ_charged_linker_0, # of connection points: 3
#     Node 4, Type 0, BuildingBlock: VETTIZ_charged_linker_0, # of connection points: 3
#     Node 5, Type 0, BuildingBlock: VETTIZ_charged_linker_0, # of connection points: 3
#     Node 6, Type 0, BuildingBlock: VETTIZ_charged_linker_0, # of connection points: 3
#     Node 7, Type 0, BuildingBlock: VETTIZ_charged_linker_0, # of connection points: 3
#     Node 8, Type 1, BuildingBlock: CIFDUS_clean_sbu_1, # of connection points: 6
#     Node 9, Type 1, BuildingBlock: CIFDUS_clean_sbu_1, # of connection points: 6
#     Node 10, Type 1, BuildingBlock: CIFDUS_clean_sbu_1, # of connection points: 6
#     Node 11, Type 1, BuildingBlock: CIFDUS_clean_sbu_1, # of connection points: 6
#     Edge 12, Type (0, 1), BuildingBlock: OJICUG_clean_linker_0, # of connection points: 2
#     Edge 13, Type (0, 1), BuildingBlock: OJICUG_clean_linker_0, # of connection points: 2
#     Edge 14, Type (0, 1), BuildingBlock: OJICUG_clean_linker_0, # of connection points: 2
#     Edge 15, Type (0, 1), BuildingBlock: OJICUG_clean_linker_0, # of connection points: 2
#     Edge 16, Type (0, 1), BuildingBlock: OJICUG_clean_linker_0, # of connection points: 2
#     Edge 17, Type (0, 1), BuildingBlock: OJICUG_clean_linker_0, # of connection points: 2
#     Edge 18, Type (0, 1), BuildingBlock: OJICUG_clean_linker_0, # of connection points: 2
#     Edge 19, Type (0, 1), BuildingBlock: OJICUG_clean_linker_0, # of connection points: 2
#     Edge 20, Type (0, 1), BuildingBlock: OJICUG_clean_linker_0, # of connection points: 2
#     Edge 21, Type (0, 1), BuildingBlock: OJICUG_clean_linker_0, # of connection points: 2
#     Edge 22, Type (0, 1), BuildingBlock: OJICUG_clean_linker_0, # of connection points: 2
#     Edge 23, Type (0, 1), BuildingBlock: OJICUG_clean_linker_0, # of connection points: 2
#     Edge 24, Type (0, 1), BuildingBlock: OJICUG_clean_linker_0, # of connection points: 2
#     Edge 25, Type (0, 1), BuildingBlock: OJICUG_clean_linker_0, # of connection points: 2
#     Edge 26, Type (0, 1), BuildingBlock: OJICUG_clean_linker_0, # of connection points: 2
#     Edge 27, Type (0, 1), BuildingBlock: OJICUG_clean_linker_0, # of connection points: 2
#     Edge 28, Type (0, 1), BuildingBlock: OJICUG_clean_linker_0, # of connection points: 2
#     Edge 29, Type (0, 1), BuildingBlock: OJICUG_clean_linker_0, # of connection points: 2
#     Edge 30, Type (0, 1), BuildingBlock: OJICUG_clean_linker_0, # of connection points: 2
#     Edge 31, Type (0, 1), BuildingBlock: OJICUG_clean_linker_0, # of connection points: 2
#     Edge 32, Type (0, 1), BuildingBlock: OJICUG_clean_linker_0, # of connection points: 2
#     Edge 33, Type (0, 1), BuildingBlock: OJICUG_clean_linker_0, # of connection points: 2
#     Edge 34, Type (0, 1), BuildingBlock: OJICUG_clean_linker_0, # of connection points: 2
#     Edge 35, Type (0, 1), BuildingBlock: OJICUG_clean_linker_0, # of connection points: 2
# Relax obj value: 0.036
# Max RMSD: 0.111
# Mean RMSD: 0.047
data_MOF--net-pry--node1-CIFDUS_clean_sbu_1--node2-VETTIZ_charged_linker_0--edge1-OJICUG_clean_linker_0
_symmetry_space_group_name_H-M    P1
_symmetry_Int_Tables_number       1
_symmetry_cell_setting            triclinic
loop_
_symmetry_equiv_pos_as_xyz
'x, y, z'
_cell_length_a     35.32033
_cell_length_b     34.087404
_cell_length_c     33.69421
_cell_angle_alpha  92.419732
_cell_angle_beta   91.010884
_cell_angle_gamma 92.367014
loop_
_atom_site_label
_atom_site_type_symbol
_atom_site_fract_x
_atom_site_fract_y
_atom_site_fract_z
_atom_type_partial_charge
C0 C 0.11238 0.08165 0.26318 0.0
C1 C 0.08299 0.0985 0.28517 0.0
C2 C 0.06487 0.13076 0.26932 0.0
C3 C 0.10469 0.1287 0.21144 0.0
C4 C 0.12284 0.09738 0.22672 0.0
C5 C 0.15433 0.08418 0.20028 0.0
H6 H 0.27311 0.11957 0.04919 0.0
C7 C 0.12338 0.1393 0.17405 0.0
C8 C 0.15294 0.1138 0.16763 0.0
H9 H 0.27151 0.02354 0.1293 0.0
H10 H 0.21445 0.04623 0.15809 0.0
H11 H 0.24684 0.188 0.11194 0.0
H12 H 0.17483 0.11322 0.03221 0.0
H13 H 0.16545 0.16354 0.02836 0.0
H14 H 0.21084 0.14632 0.014 0.0
H15 H 0.24943 0.19103 0.05889 0.0
H16 H 0.21355 0.21555 0.08663 0.0
C17 C 0.19183 0.08839 0.22495 0.0
C18 C 0.14388 0.04183 0.18394 0.0
C19 C 0.07364 0.25234 0.09834 0.0
C20 C 0.08781 0.27634 0.06828 0.0
C21 C 0.12186 0.26489 0.05003 0.0
C22 C 0.14111 0.23159 0.06202 0.0
C23 C 0.1271 0.20959 0.09347 0.0
C24 C 0.09411 0.2208 0.11127 0.0
C25 C 0.08542 0.19827 0.14758 0.0
C26 C 0.117 0.16956 0.14725 0.0
C27 C 0.14147 0.17567 0.11529 0.0
C28 C 0.08861 0.22751 0.18432 0.0
C29 C 0.04605 0.17697 0.14142 0.0
C30 C 0.26017 0.10319 0.0726 0.0
C31 C 0.2778 0.07007 0.08756 0.0
C32 C 0.25957 0.04968 0.11791 0.0
C33 C 0.22619 0.06288 0.13464 0.0
C34 C 0.21027 0.09706 0.12121 0.0
C35 C 0.22628 0.116 0.08972 0.0
C36 C 0.20371 0.15101 0.07868 0.0
C37 C 0.17231 0.15019 0.10929 0.0
C38 C 0.17704 0.11878 0.13461 0.0
C39 C 0.22963 0.18855 0.08401 0.0
C40 C 0.18788 0.14345 0.03594 0.0
H41 H 0.05961 0.16951 0.22239 0.0
H42 H 0.12675 0.05656 0.27377 0.0
H43 H 0.11261 0.03656 0.18131 0.0
H44 H 0.15411 0.03614 0.15346 0.0
H45 H 0.155 0.01957 0.20374 0.0
H46 H 0.19273 0.11586 0.24405 0.0
H47 H 0.19464 0.06333 0.24468 0.0
H48 H 0.21729 0.09076 0.20662 0.0
H49 H 0.04743 0.258 0.11302 0.0
H50 H 0.13461 0.28212 0.02722 0.0
H51 H 0.16686 0.22492 0.04718 0.0
H52 H 0.10624 0.25434 0.17829 0.0
H53 H 0.06031 0.23728 0.19343 0.0
H54 H 0.10307 0.21506 0.21005 0.0
H55 H 0.04303 0.16351 0.11081 0.0
H56 H 0.04142 0.15257 0.16155 0.0
H57 H 0.02295 0.19782 0.14563 0.0
H58 H 0.04274 0.14518 0.28542 0.0
C59 C 0.07514 0.14545 0.23267 0.0
C60 C 0.25545 0.9074 0.55932 0.0
C61 C 0.23387 0.93756 0.5754 0.0
C62 C 0.24935 0.96265 0.60635 0.0
C63 C 0.30593 0.92525 0.60759 0.0
C64 C 0.29137 0.90169 0.57601 0.0
C65 C 0.31725 0.86932 0.56469 0.0
H66 H 0.47697 0.77397 0.60188 0.0
C67 C 0.34236 0.9097 0.62026 0.0
C68 C 0.34939 0.87718 0.5949 0.0
H69 H 0.38921 0.74299 0.51336 0.0
H70 H 0.35722 0.80196 0.53156 0.0
H71 H 0.48227 0.86735 0.59478 0.0
H72 H 0.4169 0.79034 0.66775 0.0
H73 H 0.43145 0.83136 0.69816 0.0
H74 H 0.46665 0.80069 0.67633 0.0
H75 H 0.5029 0.84245 0.63523 0.0
H76 H 0.48224 0.88967 0.64276 0.0
C77 C 0.33037 0.8754 0.5217 0.0
C78 C 0.29575 0.82946 0.57064 0.0
C79 C 0.40976 0.96644 0.74601 0.0
C80 C 0.44196 0.95521 0.76694 0.0
C81 C 0.46373 0.92496 0.75093 0.0
C82 C 0.45319 0.90541 0.71479 0.0
C83 C 0.42025 0.916 0.69457 0.0
C84 C 0.39944 0.94643 0.70991 0.0
C85 C 0.36462 0.95261 0.68492 0.0
C86 C 0.36766 0.92054 0.65253 0.0
C87 C 0.40031 0.89929 0.65835 0.0
C88 C 0.36854 0.99414 0.66809 0.0
C89 C 0.32944 0.94573 0.71103 0.0
C90 C 0.45087 0.77965 0.58622 0.0
C91 C 0.43565 0.75323 0.55626 0.0
C92 C 0.40204 0.76278 0.53622 0.0
C93 C 0.38308 0.79682 0.54732 0.0
C94 C 0.39737 0.82119 0.57934 0.0
C95 C 0.43087 0.81245 0.59801 0.0
C96 C 0.44036 0.83938 0.63355 0.0
C97 C 0.40787 0.86693 0.63222 0.0
C98 C 0.38262 0.85598 0.60062 0.0
C99 C 0.47906 0.8608 0.62665 0.0
C100 C 0.43914 0.81443 0.67105 0.0
H101 H 0.29532 0.97656 0.64626 0.0
H102 H 0.24395 0.88769 0.53564 0.0
H103 H 0.27713 0.83142 0.59689 0.0
H104 H 0.31476 0.80551 0.57694 0.0
H105 H 0.27754 0.82053 0.54432 0.0
H106 H 0.33501 0.90722 0.51638 0.0
H107 H 0.30877 0.8632 0.49967 0.0
H108 H 0.35783 0.86236 0.51538 0.0
H109 H 0.3922 0.98907 0.7583 0.0
H110 H 0.48828 0.91557 0.76718 0.0
H111 H 0.47057 0.88211 0.70458 0.0
H112 H 0.39862 1.00191 0.66148 0.0
H113 H 0.35864 0.01684 0.68966 0.0
H114 H 0.35317 0.99631 0.63947 0.0
H115 H 0.33394 0.92153 0.73154 0.0
H116 H 0.30362 0.93628 0.69373 0.0
H117 H 0.32362 0.97253 0.72942 0.0
H118 H 0.23303 0.98626 0.61883 0.0
C119 C 0.28537 0.95686 0.62232 0.0
C120 C 0.61146 0.25357 0.92691 0.0
C121 C 0.58027 0.23103 0.90974 0.0
C122 C 0.55827 0.24894 0.8804 0.0
C123 C 0.59994 0.30731 0.88408 0.0
C124 C 0.61987 0.29157 0.91458 0.0
C125 C 0.65033 0.31972 0.93187 0.0
H126 H 0.75419 0.48879 0.92097 0.0
C127 C 0.61786 0.34614 0.87645 0.0
C128 C 0.64681 0.35398 0.90496 0.0
H129 H 0.76674 0.39502 1.00295 0.0
H130 H 0.71034 0.36278 0.97608 0.0
H131 H 0.66162 0.49156 0.91625 0.0
H132 H 0.7416 0.42629 0.84718 0.0
H133 H 0.70811 0.44511 0.8147 0.0
H134 H 0.7385 0.47857 0.8447 0.0
H135 H 0.69399 0.5149 0.88317 0.0
H136 H 0.64912 0.4931 0.86546 0.0
C137 C 0.63969 0.33112 0.97519 0.0
C138 C 0.68901 0.30015 0.9276 0.0
C139 C 0.58658 0.40987 0.74795 0.0
C140 C 0.59965 0.4443 0.72977 0.0
C141 C 0.62603 0.46973 0.75155 0.0
C142 C 0.63971 0.46037 0.78928 0.0
C143 C 0.62642 0.42565 0.8063 0.0
C144 C 0.59932 0.40187 0.78611 0.0
C145 C 0.58645 0.36733 0.80936 0.0
C146 C 0.61306 0.37206 0.84512 0.0
C147 C 0.63601 0.40669 0.84373 0.0
C148 C 0.5449 0.37341 0.82151 0.0
C149 C 0.59221 0.32917 0.78379 0.0
C150 C 0.74538 0.46119 0.93327 0.0
C151 C 0.76631 0.44466 0.96423 0.0
C152 C 0.75179 0.40936 0.97975 0.0
C153 C 0.71901 0.39002 0.96352 0.0
C154 C 0.70075 0.40521 0.93053 0.0
C155 C 0.71371 0.44043 0.91609 0.0
C156 C 0.69277 0.45018 0.87855 0.0
C157 C 0.66413 0.41565 0.87392 0.0
C158 C 0.66927 0.3894 0.90441 0.0
C159 C 0.67343 0.48963 0.88588 0.0
C160 C 0.72153 0.45038 0.84432 0.0
H161 H 0.55073 0.29771 0.84439 0.0
H162 H 0.62964 0.24276 0.9496 0.0
H163 H 0.68944 0.28109 0.89999 0.0
H164 H 0.71302 0.32155 0.92474 0.0
H165 H 0.69481 0.2815 0.95307 0.0
H166 H 0.60839 0.33157 0.97836 0.0
H167 H 0.65045 0.30984 0.9963 0.0
H168 H 0.65007 0.36113 0.98481 0.0
H169 H 0.56699 0.38872 0.73317 0.0
H170 H 0.63596 0.49735 0.74008 0.0
H171 H 0.65995 0.4807 0.80391 0.0
H172 H 0.54041 0.40493 0.82923 0.0
H173 H 0.52474 0.36408 0.79691 0.0
H174 H 0.53705 0.35784 0.84847 0.0
H175 H 0.61713 0.33264 0.76433 0.0
H176 H 0.59831 0.30366 0.80148 0.0
H177 H 0.56703 0.32153 0.76435 0.0
H178 H 0.53291 0.23472 0.86734 0.0
C179 C 0.56814 0.28645 0.86733 0.0
C180 C 0.95791 0.73405 0.44358 0.0
C181 C 0.94526 0.7602 0.47393 0.0
C182 C 0.91222 0.74811 0.49432 0.0
C183 C 0.90397 0.68876 0.45191 0.0
C184 C 0.93634 0.69977 0.43227 0.0
C185 C 0.94206 0.67394 0.39562 0.0
H186 H 0.86945 0.53747 0.26073 0.0
C187 C 0.88654 0.65323 0.43074 0.0
C188 C 0.90834 0.64487 0.39729 0.0
H189 H 0.96941 0.61437 0.25311 0.0
H190 H 0.96251 0.63681 0.32088 0.0
H191 H 0.89333 0.51233 0.3549 0.0
H192 H 0.81626 0.5951 0.30831 0.0
H193 H 0.79332 0.5664 0.34384 0.0
H194 H 0.80989 0.54286 0.29929 0.0
H195 H 0.84918 0.49642 0.331 0.0
H196 H 0.85197 0.51128 0.38312 0.0
C197 C 0.97992 0.65327 0.40068 0.0
C198 C 0.94011 0.69989 0.35879 0.0
C199 C 0.7653 0.58999 0.48216 0.0
C200 C 0.7423 0.55714 0.46926 0.0
C201 C 0.75413 0.53348 0.43671 0.0
C202 C 0.78729 0.54343 0.41633 0.0
C203 C 0.80887 0.57755 0.42837 0.0
C204 C 0.79839 0.59939 0.46161 0.0
C205 C 0.82529 0.63396 0.471 0.0
C206 C 0.85379 0.62924 0.43818 0.0
C207 C 0.8435 0.59678 0.41247 0.0
C208 C 0.84336 0.62878 0.51254 0.0
C209 C 0.8031 0.67201 0.46733 0.0
C210 C 0.88966 0.55933 0.27364 0.0
C211 C 0.91896 0.57553 0.25058 0.0
C212 C 0.9454 0.60289 0.26919 0.0
C213 C 0.94154 0.61581 0.30877 0.0
C214 C 0.91071 0.6017 0.33041 0.0
C215 C 0.88608 0.57288 0.31348 0.0
C216 C 0.85584 0.56063 0.34219 0.0
C217 C 0.8644 0.58962 0.37729 0.0
C218 C 0.89688 0.61329 0.37015 0.0
C219 C 0.86251 0.51783 0.35335 0.0
C220 C 0.81662 0.56628 0.32258 0.0
H221 H 0.86698 0.70595 0.50025 0.0
H222 H 0.98316 0.74024 0.42707 0.0
H223 H 0.92575 0.7278 0.36544 0.0
H224 H 0.92304 0.68568 0.33393 0.0
H225 H 0.96886 0.70789 0.3481 0.0
H226 H 0.98282 0.64244 0.43124 0.0
H227 H 0.00446 0.67384 0.39581 0.0
H228 H 0.98194 0.6271 0.38045 0.0
H229 H 0.75731 0.60851 0.5073 0.0
H230 H 0.73686 0.50814 0.42588 0.0
H231 H 0.7943 0.52479 0.39132 0.0
H232 H 0.85026 0.59758 0.51631 0.0
H233 H 0.82363 0.63728 0.53642 0.0
H234 H 0.87046 0.64571 0.51735 0.0
H235 H 0.77993 0.66793 0.44451 0.0
H236 H 0.82086 0.69693 0.45714 0.0
H237 H 0.79 0.68072 0.49593 0.0
H238 H 0.90036 0.76646 0.51739 0.0
C239 C 0.89207 0.71263 0.4839 0.0
C240 C 0.90706 0.76949 0.96877 0.0
C241 C 0.93891 0.74949 0.95509 0.0
C242 C 0.96099 0.7664 0.92527 0.0
C243 C 0.91679 0.81834 0.91862 0.0
C244 C 0.8967 0.80412 0.95024 0.0
C245 C 0.86314 0.82904 0.95945 0.0
H246 H 0.75612 0.983 0.90961 0.0
C247 C 0.89654 0.85158 0.90241 0.0
C248 C 0.86531 0.85872 0.92672 0.0
H249 H 0.74003 0.90805 0.00898 0.0
H250 H 0.79454 0.87181 0.98964 0.0
H251 H 0.76549 0.91502 0.85007 0.0
H252 H 0.84877 0.99095 0.91213 0.0
H253 H 0.86086 0.98722 0.86156 0.0
H254 H 0.81601 0.00651 0.87514 0.0
H255 H 0.78009 0.96148 0.83117 0.0
H256 H 0.80421 0.91709 0.81832 0.0
C257 C 0.82655 0.80259 0.95569 0.0
C258 C 0.86998 0.849 1.00113 0.0
C259 C 0.93568 0.90531 0.76917 0.0
C260 C 0.91966 0.93273 0.74426 0.0
C261 C 0.88753 0.95237 0.7573 0.0
C262 C 0.87167 0.94499 0.79429 0.0
C263 C 0.88771 0.91727 0.81864 0.0
C264 C 0.91914 0.89788 0.80592 0.0
C265 C 0.93157 0.8685 0.83524 0.0
C266 C 0.90187 0.87284 0.86722 0.0
C267 C 0.87668 0.90187 0.85751 0.0
C268 C 0.92902 0.82734 0.81381 0.0
C269 C 0.97173 0.88161 0.85122 0.0
C270 C 0.76404 0.9589 0.92748 0.0
C271 C 0.74342 0.94921 0.96136 0.0
C272 C 0.75558 0.91734 0.98339 0.0
C273 C 0.78724 0.89593 0.97193 0.0
C274 C 0.80714 0.90599 0.93778 0.0
C275 C 0.7951 0.9369 0.91615 0.0
C276 C 0.81765 0.9422 0.87928 0.0
C277 C 0.84646 0.91075 0.88318 0.0
C278 C 0.84048 0.88936 0.91753 0.0
C279 C 0.79067 0.93383 0.84269 0.0
C280 C 0.83678 0.98396 0.88177 0.0
H281 H 0.96777 0.81099 0.88386 0.0
H282 H 0.88953 0.75731 0.99165 0.0
H283 H 0.90016 0.8593 1.00526 0.0
H284 H 0.85347 0.87548 1.00593 0.0
H285 H 0.8633 0.82816 0.02475 0.0
H286 H 0.82721 0.78276 0.92865 0.0
H287 H 0.82342 0.784 0.98183 0.0
H288 H 0.8008 0.81949 0.95246 0.0
H289 H 0.96039 0.88968 0.76011 0.0
H290 H 0.87513 0.97425 0.73926 0.0
H291 H 0.84758 0.9614 0.80254 0.0
H292 H 0.90288 0.82378 0.79486 0.0
H293 H 0.95369 0.82311 0.79431 0.0
H294 H 0.92715 0.80299 0.83423 0.0
H295 H 0.97577 0.9142 0.85225 0.0
H296 H 0.97677 0.87333 0.8822 0.0
H297 H 0.99405 0.86942 0.83205 0.0
H298 H 0.98574 0.75186 0.91445 0.0
C299 C 0.95026 0.80056 0.90718 0.0
C300 C 0.76256 0.12325 0.47095 0.0
C301 C 0.7846 0.0929 0.45578 0.0
C302 C 0.7704 0.06821 0.42399 0.0
C303 C 0.71407 0.10578 0.42042 0.0
C304 C 0.72722 0.12914 0.45275 0.0
C305 C 0.70043 0.1612 0.46307 0.0
H306 H 0.53665 0.24922 0.4194 0.0
C307 C 0.67797 0.12088 0.40643 0.0
C308 C 0.66931 0.15308 0.43159 0.0
H309 H 0.6209 0.2876 0.50911 0.0
H310 H 0.65675 0.23016 0.49318 0.0
H311 H 0.53524 0.15811 0.42778 0.0
H312 H 0.59997 0.23638 0.35577 0.0
H313 H 0.58752 0.1948 0.3253 0.0
H314 H 0.55073 0.22398 0.34611 0.0
H315 H 0.51526 0.1796 0.38488 0.0
H316 H 0.53893 0.13366 0.38116 0.0
C317 C 0.68585 0.15493 0.50539 0.0
C318 C 0.7216 0.20133 0.45821 0.0
C319 C 0.61819 0.06522 0.27664 0.0
C320 C 0.58574 0.0748 0.2552 0.0
C321 C 0.56107 0.1021 0.27175 0.0
C322 C 0.56935 0.12092 0.30877 0.0
C323 C 0.60271 0.11231 0.32943 0.0
C324 C 0.6259 0.08406 0.31387 0.0
C325 C 0.65977 0.07843 0.34035 0.0
C326 C 0.65413 0.10944 0.37323 0.0
C327 C 0.62076 0.12912 0.3666 0.0
C328 C 0.65624 0.03629 0.35591 0.0
C329 C 0.69597 0.08729 0.31632 0.0
C330 C 0.56287 0.24573 0.43575 0.0
C331 C 0.5759 0.27363 0.46531 0.0
C332 C 0.60978 0.26665 0.48636 0.0
C333 C 0.63094 0.23354 0.47663 0.0
C334 C 0.61858 0.20761 0.44494 0.0
C335 C 0.585 0.21419 0.42521 0.0
C336 C 0.57762 0.18667 0.38981 0.0
C337 C 0.61134 0.16098 0.39243 0.0
C338 C 0.63548 0.17322 0.42466 0.0
C339 C 0.5397 0.16333 0.39579 0.0
C340 C 0.57867 0.21143 0.35213 0.0
H341 H 0.72643 0.05497 0.38177 0.0
H342 H 0.77314 0.14264 0.4953 0.0
H343 H 0.74058 0.20003 0.43221 0.0
H344 H 0.70237 0.22515 0.4522 0.0
H345 H 0.73938 0.2099 0.48495 0.0
H346 H 0.67815 0.12335 0.5092 0.0
H347 H 0.70798 0.16414 0.52812 0.0
H348 H 0.65995 0.17082 0.51186 0.0
H349 H 0.63764 0.04448 0.26416 0.0
H350 H 0.53617 0.11008 0.25517 0.0
H351 H 0.54996 0.14224 0.3193 0.0
H352 H 0.62601 0.02642 0.3588 0.0
H353 H 0.66962 0.0148 0.33544 0.0
H354 H 0.66853 0.03431 0.38614 0.0
H355 H 0.69164 0.11187 0.29623 0.0
H356 H 0.72073 0.09712 0.33511 0.0
H357 H 0.7035 0.06124 0.29765 0.0
H358 H 0.78711 0.04462 0.41213 0.0
C359 C 0.73523 0.07433 0.40639 0.0
C360 C 0.42235 0.62604 0.28296 0.0
C361 C 0.40317 0.59639 0.30405 0.0
C362 C 0.37066 0.5772 0.28583 0.0
C363 C 0.37736 0.61616 0.22782 0.0
C364 C 0.40851 0.63597 0.24555 0.0
C365 C 0.42251 0.66986 0.22155 0.0
H366 H 0.38241 0.78994 0.0726 0.0
C367 C 0.36861 0.63473 0.19023 0.0
C368 C 0.39433 0.66704 0.18679 0.0
H369 H 0.47891 0.80273 0.15357 0.0
H370 H 0.45945 0.74141 0.18336 0.0
H371 H 0.32069 0.75749 0.12691 0.0
H372 H 0.40068 0.7034 0.05027 0.0
H373 H 0.36118 0.67046 0.04811 0.0
H374 H 0.35655 0.71983 0.03153 0.0
H375 H 0.31675 0.75614 0.07368 0.0
H376 H 0.29595 0.71769 0.10227 0.0
C377 C 0.41953 0.7082 0.24738 0.0
C378 C 0.46313 0.66205 0.20785 0.0
C379 C 0.2556 0.58348 0.10385 0.0
C380 C 0.23833 0.59831 0.0699 0.0
C381 C 0.25577 0.63037 0.05153 0.0
C382 C 0.28908 0.64858 0.06754 0.0
C383 C 0.30491 0.63502 0.10273 0.0
C384 C 0.28881 0.60242 0.11986 0.0
C385 C 0.30877 0.59366 0.15826 0.0
C386 C 0.3398 0.62612 0.16076 0.0
C387 C 0.33685 0.6503 0.12845 0.0
C388 C 0.28015 0.59767 0.19256 0.0
C389 C 0.3254 0.55252 0.15331 0.0
C390 C 0.39964 0.77994 0.09676 0.0
C391 C 0.43211 0.80162 0.11079 0.0
C392 C 0.4532 0.78717 0.14268 0.0
C393 C 0.44206 0.75144 0.15968 0.0
C394 C 0.4096 0.73002 0.14453 0.0
C395 C 0.38988 0.74414 0.11283 0.0
C396 C 0.35886 0.71637 0.09703 0.0
C397 C 0.36111 0.68413 0.12616 0.0
C398 C 0.39041 0.69219 0.15446 0.0
C399 C 0.32099 0.7378 0.09973 0.0
C400 C 0.36947 0.70182 0.05446 0.0
H401 H 0.33392 0.56998 0.23565 0.0
H402 H 0.44767 0.64146 0.29486 0.0
H403 H 0.46512 0.63101 0.19676 0.0
H404 H 0.47179 0.68027 0.18298 0.0
H405 H 0.48397 0.66741 0.23277 0.0
H406 H 0.39306 0.70743 0.2648 0.0
H407 H 0.44385 0.71226 0.26872 0.0
H408 H 0.41806 0.73463 0.22985 0.0
H409 H 0.24233 0.55923 0.11896 0.0
H410 H 0.24293 0.64207 0.02534 0.0
H411 H 0.30021 0.67358 0.05269 0.0
H412 H 0.25599 0.61586 0.18442 0.0
H413 H 0.26812 0.56851 0.20062 0.0
H414 H 0.29291 0.61309 0.21944 0.0
H415 H 0.34019 0.54944 0.12453 0.0
H416 H 0.34669 0.54695 0.17656 0.0
H417 H 0.30258 0.5291 0.15356 0.0
H418 H 0.35403 0.55526 0.30083 0.0
C419 C 0.35835 0.58625 0.24777 0.0
C420 C 0.05161 0.2759 0.58617 0.0
C421 C 0.06028 0.25727 0.54926 0.0
C422 C 0.08583 0.27707 0.52444 0.0
C423 C 0.09794 0.32883 0.57524 0.0
C424 C 0.07039 0.31179 0.59824 0.0
C425 C 0.06568 0.33506 0.63689 0.0
H426 H 0.13194 0.48096 0.76713 0.0
C427 C 0.11537 0.36331 0.59787 0.0
C428 C 0.09624 0.3677 0.63387 0.0
H429 H 0.03761 0.39808 0.78132 0.0
H430 H 0.04604 0.37099 0.71503 0.0
H431 H 0.10936 0.49965 0.67186 0.0
H432 H 0.18603 0.42246 0.72765 0.0
H433 H 0.20921 0.44243 0.68711 0.0
H434 H 0.19539 0.47462 0.72756 0.0
H435 H 0.15063 0.51748 0.70006 0.0
H436 H 0.15336 0.50293 0.64812 0.0
C437 C 0.02546 0.35142 0.63663 0.0
C438 C 0.07365 0.30793 0.67156 0.0
C439 C 0.23841 0.42518 0.5493 0.0
C440 C 0.26266 0.4563 0.56401 0.0
C441 C 0.25154 0.47905 0.59748 0.0
C442 C 0.21767 0.46975 0.61699 0.0
C443 C 0.19459 0.43728 0.60299 0.0
C444 C 0.20456 0.41649 0.5689 0.0
C445 C 0.17575 0.38433 0.55692 0.0
C446 C 0.14773 0.38789 0.59045 0.0
C447 C 0.1592 0.41849 0.61784 0.0
C448 C 0.15784 0.39392 0.51625 0.0
C449 C 0.19581 0.34477 0.55692 0.0
C450 C 0.11299 0.45709 0.75593 0.0
C451 C 0.08465 0.44113 0.78013 0.0
C452 C 0.06053 0.41015 0.76403 0.0
C453 C 0.06521 0.39463 0.72527 0.0
C454 C 0.0945 0.40992 0.70205 0.0
C455 C 0.11741 0.44109 0.71723 0.0
C456 C 0.14743 0.45324 0.68848 0.0
C457 C 0.13927 0.42375 0.65392 0.0
C458 C 0.10798 0.39852 0.66191 0.0
C459 C 0.14022 0.49567 0.67652 0.0
C460 C 0.18668 0.44828 0.7085 0.0
H461 H 0.12483 0.32494 0.51749 0.0
H462 H 0.03218 0.26207 0.6063 0.0
H463 H 0.09703 0.28817 0.66414 0.0
H464 H 0.08325 0.32415 0.69915 0.0
H465 H 0.04818 0.28918 0.67792 0.0
H466 H 0.01777 0.36139 0.60662 0.0
H467 H 0.00389 0.32856 0.64455 0.0
H468 H 0.02308 0.37756 0.65677 0.0
H469 H 0.24586 0.40768 0.52323 0.0
H470 H 0.26977 0.50317 0.60948 0.0
H471 H 0.21116 0.48763 0.64275 0.0
H472 H 0.16218 0.42552 0.50976 0.0
H473 H 0.17034 0.37655 0.4915 0.0
H474 H 0.12664 0.38867 0.51544 0.0
H475 H 0.21315 0.34281 0.58462 0.0
H476 H 0.17602 0.31891 0.55586 0.0
H477 H 0.21501 0.34194 0.5313 0.0
H478 H 0.09221 0.26471 0.49533 0.0
C479 C 0.10472 0.3124 0.53726 0.0
O480 O 0.95513 0.03665 0.50747 0.0
Mn481 Mn 0.00697 0.00945 0.51513 0.0
O482 O 0.92655 0.00659 0.45417 0.0
Mn483 Mn 0.96674 0.97592 0.44325 0.0
O484 O 0.05922 0.98302 0.52391 0.0
O485 O 0.02585 0.06138 0.54353 0.0
Mn486 Mn 0.04839 0.04704 0.58749 0.0
O487 O 0.9858 0.9862 0.56871 0.0
O488 O 0.08908 0.01808 0.57405 0.0
O489 O 0.02885 0.03344 0.4622 0.0
O490 O 1.00236 0.99776 0.41128 0.0
O491 O 0.05382 0.09992 0.59099 0.0
O492 O 0.01413 0.02222 0.61895 0.0
C493 C 0.97516 0.9232 0.46852 0.0
C494 C 0.92721 0.03199 0.48267 0.0
C495 C 0.08797 0.99062 0.54737 0.0
C496 C 0.03584 0.09695 0.55706 0.0
C497 C 0.99098 0.99498 0.60617 0.0
C498 C 0.02562 0.0244 0.42471 0.0
O499 O 0.98749 0.95658 0.4866 0.0
O500 O 0.9567 0.92476 0.43502 0.0
O501 O 0.49325 0.01476 0.9515 0.0
Mn502 Mn 0.51061 0.01901 0.01175 0.0
O503 O 0.51707 0.9586 0.92868 0.0
Mn504 Mn 0.53471 0.94487 0.97747 0.0
O505 O 0.52774 0.02474 0.07229 0.0
O506 O 0.51593 0.07808 0.00892 0.0
Mn507 Mn 0.49369 0.10058 0.05002 0.0
O508 O 0.45221 0.02133 0.02635 0.0
O509 O 0.52885 0.08997 0.08852 0.0
O510 O 0.57007 0.01872 0.99793 0.0
O511 O 0.58392 0.95607 0.99051 0.0
O512 O 0.49614 0.13662 0.01104 0.0
O513 O 0.44558 0.08004 0.05757 0.0
C514 C 0.50056 0.91961 0.01778 0.0
C515 C 0.49843 0.98897 0.92345 0.0
C516 C 0.5375 0.05486 0.09545 0.0
C517 C 0.5107 0.10919 0.98931 0.0
C518 C 0.43206 0.04694 0.04456 0.0
C519 C 0.59444 0.99155 0.9953 0.0
O520 O 0.50363 0.95826 0.01644 0.0
O521 O 0.51889 0.89825 0.99245 0.0
O522 O 0.56082 0.52422 0.51647 0.0
Mn523 Mn 0.50163 0.51156 0.51323 0.0
O524 O 0.58205 0.5168 0.45401 0.0
Mn525 Mn 0.53723 0.49666 0.43184 0.0
O526 O 0.44177 0.498 0.51137 0.0
O527 O 0.50229 0.50171 0.5723 0.0
Mn528 Mn 0.46329 0.5266 0.59232 0.0
O529 O 0.49287 0.57166 0.52141 0.0
O530 O 0.42458 0.49251 0.57527 0.0
O531 O 0.51179 0.45117 0.50315 0.0
O532 O 0.52748 0.44431 0.43891 0.0
O533 O 0.49843 0.52559 0.63239 0.0
O534 O 0.45822 0.57675 0.57588 0.0
C535 C 0.49207 0.53249 0.41892 0.0
C536 C 0.58745 0.52525 0.49079 0.0
C537 C 0.41761 0.48785 0.53811 0.0
C538 C 0.51986 0.5099 0.60591 0.0
C539 C 0.4741 0.59178 0.5465 0.0
C540 C 0.52004 0.42983 0.4722 0.0
O541 O 0.50012 0.52143 0.45436 0.0
O542 O 0.51433 0.52063 0.39115 0.0
O543 O 0.94629 0.49559 0.01368 0.0
Mn544 Mn 0.00523 0.51269 0.01692 0.0
O545 O 0.93992 0.47141 0.95309 0.0
Mn546 Mn 0.97054 0.51347 0.9423 0.0
O547 O 0.06285 0.5317 0.02126 0.0
O548 O 0.99498 0.5201 0.07776 0.0
Mn549 Mn 0.03823 0.50175 0.09626 0.0
O550 O 0.01929 0.45256 0.02268 0.0
O551 O 0.07998 0.5322 0.08517 0.0
O552 O 0.99126 0.57227 0.00949 0.0
O553 O 0.95444 0.56303 0.95548 0.0
O554 O 0.01538 0.5145 0.14101 0.0
O555 O 0.04153 0.44912 0.0849 0.0
C556 C 0.01962 0.50283 0.91659 0.0
C557 C 0.92636 0.4761 0.98691 0.0
C558 C 0.08687 0.53979 0.04968 0.0
C559 C 0.98923 0.5245 0.11634 0.0
C560 C 0.03285 0.43296 0.05129 0.0
C561 C 0.96905 0.58565 0.98293 0.0
O562 O 0.01813 0.50484 0.95598 0.0
O563 O 0.99022 0.51022 0.895 0.0
C564 C 0.03143 0.08309 0.33345 0.0
C565 C 0.06996 0.08221 0.32362 0.0
H566 H 0.98813 0.06697 0.37389 0.0
C567 C 0.09507 0.06523 0.3505 0.0
H568 H 0.01078 0.09469 0.31347 0.0
C569 C 0.08162 0.04875 0.38556 0.0
C570 C 0.04294 0.04926 0.39442 0.0
H571 H 0.12497 0.06417 0.34427 0.0
H572 H 0.10105 0.03414 0.40468 0.0
C573 C 0.01827 0.06711 0.36828 0.0
C574 C 0.4381 0.94734 0.83916 0.0
C575 C 0.45009 0.97031 0.80794 0.0
H576 H 0.44359 0.93665 0.90093 0.0
C577 C 0.47354 0.00413 0.81616 0.0
H578 H 0.42036 0.92095 0.83331 0.0
C579 C 0.48687 0.01332 0.85516 0.0
C580 C 0.47667 0.98866 0.88589 0.0
H581 H 0.48326 0.02196 0.79219 0.0
H582 H 0.50711 0.03777 0.86071 0.0
C583 C 0.45122 0.95647 0.87776 0.0
C584 C 0.60218 0.48341 0.66683 0.0
C585 C 0.58403 0.45463 0.68981 0.0
H586 H 0.59588 0.52398 0.62018 0.0
C587 C 0.549 0.43779 0.67531 0.0
H588 H 0.62985 0.49614 0.67516 0.0
C589 C 0.5316 0.4513 0.64144 0.0
C590 C 0.54726 0.48371 0.62241 0.0
H591 H 0.53283 0.41632 0.69134 0.0
H592 H 0.5031 0.44012 0.63368 0.0
C593 C 0.58346 0.49856 0.63412 0.0
C594 C 0.93761 0.59075 0.18086 0.0
C595 C 0.92393 0.5633 0.20791 0.0
H596 H 0.96786 0.59953 0.12712 0.0
C597 C 0.92035 0.52354 0.19513 0.0
H598 H 0.93967 0.62181 0.18922 0.0
C599 C 0.9352 0.51108 0.15863 0.0
C600 C 0.95436 0.53798 0.13462 0.0
H601 H 0.90981 0.50154 0.21491 0.0
H602 H 0.93664 0.47978 0.15205 0.0
C603 C 0.95279 0.57818 0.14459 0.0
C604 C 0.32702 0.05896 0.03424 0.0
C605 C 0.31612 0.05786 0.07423 0.0
H606 H 0.37254 0.05413 0.99282 0.0
C607 C 0.3429 0.04607 0.10239 0.0
H608 H 0.30722 0.06766 0.01168 0.0
C609 C 0.37978 0.0375 0.09139 0.0
C610 C 0.39115 0.04015 0.05186 0.0
H611 H 0.33611 0.04563 0.13359 0.0
H612 H 0.40034 0.03164 0.11443 0.0
C613 C 0.36416 0.05024 0.02322 0.0
C614 C 0.16603 0.93709 0.59171 0.0
C615 C 0.19403 0.94137 0.56314 0.0
H616 H 0.10919 0.94822 0.60781 0.0
C617 C 0.18417 0.95412 0.52534 0.0
H618 H 0.1731 0.92716 0.62097 0.0
C619 C 0.14733 0.96624 0.51771 0.0
C620 C 0.12035 0.96516 0.54778 0.0
H621 H 0.20558 0.95761 0.50299 0.0
H622 H 0.141 0.97958 0.48988 0.0
C623 C 0.12948 0.94875 0.58404 0.0
C624 C 0.82705 0.48087 0.94799 0.0
C625 C 0.80557 0.46028 0.9757 0.0
H626 H 0.8811 0.50313 0.93111 0.0
C627 C 0.82393 0.45066 0.01159 0.0
H628 H 0.81528 0.48894 0.91983 0.0
C629 C 0.86328 0.45758 0.01729 0.0
C630 C 0.88454 0.47487 0.98751 0.0
H631 H 0.80843 0.43632 0.03468 0.0
H632 H 0.87716 0.44761 0.04372 0.0
C633 C 0.86557 0.48849 0.95413 0.0
C634 C 0.69065 0.51118 0.4928 0.0
C635 C 0.7044 0.54971 0.48679 0.0
H636 H 0.6417 0.47339 0.50119 0.0
C637 C 0.67985 0.58085 0.49285 0.0
H638 H 0.70894 0.48663 0.48887 0.0
C639 C 0.64145 0.57323 0.50044 0.0
C640 C 0.62712 0.53445 0.50256 0.0
H641 H 0.68944 0.61085 0.48815 0.0
H642 H 0.62234 0.5973 0.50053 0.0
C643 C 0.65234 0.50365 0.50064 0.0
C644 C 0.07669 0.33541 0.02441 0.0
C645 C 0.06875 0.31425 0.05891 0.0
H646 H 0.07123 0.38963 0.99409 0.0
C647 C 0.04357 0.33127 0.08621 0.0
H648 H 0.09506 0.32384 1.00185 0.0
C649 C 0.02864 0.36785 0.08046 0.0
C650 C 0.03883 0.38999 0.04791 0.0
H651 H 0.0366 0.31811 0.11381 0.0
H652 H 0.01107 0.38028 0.10346 0.0
C653 C 0.06222 0.37299 0.01919 0.0
C654 C 0.58521 0.17694 0.95939 0.0
C655 C 0.56924 0.19072 0.92408 0.0
H656 H 0.58074 0.13641 1.00576 0.0
C657 C 0.54051 0.16642 0.90456 0.0
H658 H 0.60736 0.19304 0.97628 0.0
C659 C 0.52417 0.13396 0.92309 0.0
C660 C 0.53764 0.12365 0.96032 0.0
H661 H 0.52856 0.17331 0.87614 0.0
H662 H 0.49885 0.11928 0.91004 0.0
C663 C 0.57027 0.14333 0.97651 0.0
C664 C 0.98773 0.81749 0.45237 0.0
C665 C 0.9632 0.80133 0.48069 0.0
H666 H 0.01306 0.86911 0.42862 0.0
C667 C 0.95286 0.82686 0.51272 0.0
H668 H 0.99738 0.80057 0.42707 0.0
C669 C 0.96164 0.86755 0.51276 0.0
C670 C 0.98231 0.88343 0.48172 0.0
H671 H 0.93593 0.8164 0.53676 0.0
H672 H 0.94924 0.88681 0.53491 0.0
C673 C 0.99743 0.8576 0.4533 0.0
C674 C 0.46627 0.69531 0.58369 0.0
C675 C 0.45167 0.71368 0.55047 0.0
H676 H 0.48616 0.64298 0.60748 0.0
C677 C 0.44955 0.6924 0.51355 0.0
H678 H 0.46752 0.70978 0.61292 0.0
C679 C 0.4598 0.65297 0.51072 0.0
C680 C 0.47229 0.63463 0.54478 0.0
H681 H 0.43878 0.7057 0.48724 0.0
H682 H 0.45574 0.63633 0.48276 0.0
C683 C 0.47673 0.6566 0.58074 0.0
C684 C 0.97715 0.95007 0.7053 0.0
C685 C 0.9378 0.94303 0.70618 0.0
H686 H 0.02443 0.97126 0.67266 0.0
C687 C 0.91612 0.94868 0.6714 0.0
H688 H 0.99469 0.94645 0.73149 0.0
C689 C 0.93338 0.96279 0.63712 0.0
C690 C 0.97248 0.97199 0.63741 0.0
H691 H 0.8857 0.94313 0.67108 0.0
H692 H 0.91596 0.96859 0.61142 0.0
C693 C 0.99417 0.96444 0.67151 0.0
C694 C 0.55071 0.03325 0.2026 0.0
C695 C 0.57986 0.06105 0.21354 0.0
H696 H 0.51517 0.00795 0.15495 0.0
C697 C 0.5994 0.08092 0.18411 0.0
H698 H 0.53514 0.01802 0.22515 0.0
C699 C 0.58781 0.07559 0.14444 0.0
C700 C 0.55689 0.04991 0.13364 0.0
H701 H 0.62163 0.10284 0.19214 0.0
H702 H 0.6012 0.0937 0.12255 0.0
C703 C 0.53953 0.02732 0.16263 0.0
C704 C 0.44338 0.60849 0.36713 0.0
C705 C 0.41804 0.5839 0.34345 0.0
H706 H 0.48699 0.6112 0.41243 0.0
C707 C 0.40992 0.54555 0.35615 0.0
H708 H 0.44936 0.63876 0.36015 0.0
C709 C 0.42957 0.53101 0.38823 0.0
C710 C 0.45883 0.55369 0.40743 0.0
H711 H 0.3911 0.52496 0.33948 0.0
H712 H 0.42562 0.50011 0.39418 0.0
C713 C 0.46408 0.59326 0.39835 0.0
C714 C 0.0803 0.49831 0.8295 0.0
C715 C 0.07884 0.45747 0.82133 0.0
H716 H 0.06417 0.54534 0.86897 0.0
C717 C 0.06806 0.43262 0.85193 0.0
H718 H 0.08835 0.51841 0.80676 0.0
C719 C 0.05491 0.44824 0.88804 0.0
C720 C 0.05209 0.48896 0.89413 0.0
H721 H 0.06739 0.40099 0.84699 0.0
H722 H 0.04266 0.42836 0.90905 0.0
C723 C 0.06704 0.51384 0.86553 0.0
C724 C 0.68447 0.98481 0.94223 0.0
C725 C 0.70815 0.97043 0.97204 0.0
H726 H 0.62993 0.00589 0.92712 0.0
C727 C 0.69619 0.97409 0.01168 0.0
H728 H 0.69189 0.98222 0.91124 0.0
C729 C 0.66022 0.98782 0.02062 0.0
C730 C 0.63551 0.99899 0.99033 0.0
H731 H 0.71371 0.9644 0.03575 0.0
H732 H 0.65034 0.98613 0.05079 0.0
C733 C 0.64884 0.99911 0.95134 0.0
C734 C 0.85336 0.09546 0.4439 0.0
C735 C 0.82369 0.08786 0.46993 0.0
H736 H 0.91047 0.08405 0.4286 0.0
C737 C 0.83089 0.06824 0.50493 0.0
H738 H 0.84816 0.11012 0.41651 0.0
C739 C 0.86676 0.05342 0.51199 0.0
C740 C 0.89539 0.05821 0.48404 0.0
H741 H 0.80808 0.06158 0.52497 0.0
H742 H 0.87102 0.03532 0.53723 0.0
C743 C 0.88891 0.0807 0.45087 0.0
C744 C 0.17074 0.6097 0.05314 0.0
C745 C 0.20022 0.58343 0.05634 0.0
H746 H 0.11071 0.616 0.04755 0.0
C747 C 0.19219 0.543 0.04992 0.0
H748 H 0.17622 0.641 0.05855 0.0
C749 C 0.15489 0.52892 0.04275 0.0
C750 C 0.12521 0.55504 0.04215 0.0
H751 H 0.2145 0.52228 0.05217 0.0
H752 H 0.14886 0.49746 0.04063 0.0
C753 C 0.1334 0.59555 0.04643 0.0
C754 C 0.32523 0.43196 0.5416 0.0
C755 C 0.30069 0.46321 0.54662 0.0
H756 H 0.38266 0.41533 0.53351 0.0
C757 C 0.31423 0.5014 0.53887 0.0
H758 H 0.31568 0.40225 0.54769 0.0
C759 C 0.35226 0.50858 0.52935 0.0
C760 C 0.3776 0.47785 0.52804 0.0
H761 H 0.29593 0.526 0.54233 0.0
H762 H 0.36272 0.53873 0.52709 0.0
C763 C 0.36347 0.4393 0.53288 0.0
C764 C 0.9453 0.67969 0.93399 0.0
C765 C 0.94584 0.70807 0.96526 0.0
H766 H 0.95264 0.6205 0.91507 0.0
C767 C 0.95464 0.69637 1.00397 0.0
H768 H 0.93865 0.68759 0.9039 0.0
C769 C 0.96319 0.65683 0.01075 0.0
C770 C 0.9623 0.62849 0.97895 0.0
H771 H 0.95551 0.71779 0.02866 0.0
H772 H 0.9699 0.64842 0.04061 0.0
C773 C 0.9533 0.64091 0.94064 0.0
C774 C 0.44061 0.8352 0.04713 0.0
C775 C 0.44536 0.83639 0.08868 0.0
H776 H 0.45181 0.86263 0.9929 0.0
C777 C 0.46346 0.87 0.10758 0.0
H778 H 0.4281 0.80956 0.03103 0.0
C779 C 0.47822 0.90068 0.08493 0.0
C780 C 0.47461 0.898 0.04334 0.0
H781 H 0.46728 0.87199 0.13956 0.0
H782 H 0.49464 0.92484 0.09955 0.0
C783 C 0.45426 0.86583 0.02503 0.0
C784 C 0.01212 0.20022 0.55318 0.0
C785 C 0.04659 0.21575 0.53882 0.0
H786 H 0.98005 0.14821 0.56794 0.0
C787 C 0.07044 0.18969 0.51862 0.0
H788 H 0.99237 0.21919 0.56786 0.0
C789 C 0.06235 0.14911 0.51719 0.0
C790 C 0.03065 0.13349 0.53644 0.0
H791 H 0.09742 0.19989 0.50732 0.0
H792 H 0.08365 0.1298 0.50586 0.0
C793 C 0.00437 0.15948 0.55216 0.0
C794 C 0.54028 0.32779 0.43631 0.0
C795 C 0.55652 0.31165 0.47002 0.0
H796 H 0.5139 0.37617 0.41146 0.0
C797 C 0.55566 0.33324 0.50664 0.0
H798 H 0.54119 0.31318 0.40722 0.0
C799 C 0.54063 0.37088 0.50879 0.0
C800 C 0.52612 0.38727 0.47437 0.0
H801 H 0.56754 0.32163 0.53333 0.0
H802 H 0.54244 0.38793 0.53668 0.0
C803 C 0.52476 0.36449 0.43864 0.0
loop_
_geom_bond_atom_site_label_1
_geom_bond_atom_site_label_2
_geom_bond_distance
_geom_bond_site_symmetry_2
_ccdc_geom_bond_type
C0 C1 1.391 . S
C0 C4 1.391 . S
C0 H42 0.948 . S
C1 C0 1.391 . S
C1 C2 1.391 . S
C2 C1 1.391 . S
C2 H58 0.947 . S
C2 C59 1.392 . S
C3 C4 1.391 . S
C3 C7 1.397 . S
C3 C59 1.419 . S
C4 C0 1.391 . S
C4 C3 1.391 . S
C4 C5 1.399 . S
C5 C4 1.399 . S
C5 C8 1.396 . S
C5 C17 1.453 . S
C5 C18 1.684 . S
H6 C30 0.948 . S
C7 C3 1.397 . S
C7 C8 1.394 . S
C7 C26 1.723 . S
C8 C5 1.396 . S
C8 C7 1.394 . S
C8 C38 1.723 . S
H9 C32 0.947 . S
H10 C33 0.948 . S
H11 C39 0.982 . S
H12 C40 0.979 . S
H13 C40 0.980 . S
H14 C40 0.983 . S
H15 C39 0.979 . S
H16 C39 0.977 . S
C17 C5 1.453 . S
C17 H46 0.982 . S
C17 H47 0.979 . S
C17 H48 0.977 . S
C18 C5 1.684 . S
C18 H43 0.979 . S
C18 H44 0.980 . S
C18 H45 0.983 . S
C19 C20 1.391 . S
C19 C24 1.391 . S
C19 H49 0.948 . S
C20 C19 1.391 . S
C20 C21 1.391 . S
C21 C20 1.391 . S
C21 C22 1.392 . S
C21 H50 0.947 . S
C22 C21 1.392 . S
C22 C23 1.419 . S
C22 H51 0.948 . S
C23 C22 1.419 . S
C23 C24 1.391 . S
C23 C27 1.397 . S
C24 C19 1.391 . S
C24 C23 1.391 . S
C24 C25 1.399 . S
C25 C24 1.399 . S
C25 C26 1.396 . S
C25 C28 1.453 . S
C25 C29 1.684 . S
C26 C7 1.723 . S
C26 C25 1.396 . S
C26 C27 1.394 . S
C27 C23 1.397 . S
C27 C26 1.394 . S
C27 C37 1.723 . S
C28 C25 1.453 . S
C28 H52 0.982 . S
C28 H53 0.979 . S
C28 H54 0.977 . S
C29 C25 1.684 . S
C29 H55 0.979 . S
C29 H56 0.980 . S
C29 H57 0.983 . S
C30 H6 0.948 . S
C30 C31 1.391 . S
C30 C35 1.391 . S
C31 C30 1.391 . S
C31 C32 1.391 . S
C32 H9 0.947 . S
C32 C31 1.391 . S
C32 C33 1.392 . S
C33 H10 0.948 . S
C33 C32 1.392 . S
C33 C34 1.419 . S
C34 C33 1.419 . S
C34 C35 1.391 . S
C34 C38 1.397 . S
C35 C30 1.391 . S
C35 C34 1.391 . S
C35 C36 1.399 . S
C36 C35 1.399 . S
C36 C37 1.396 . S
C36 C39 1.453 . S
C36 C40 1.684 . S
C37 C27 1.723 . S
C37 C36 1.396 . S
C37 C38 1.394 . S
C38 C8 1.723 . S
C38 C34 1.397 . S
C38 C37 1.394 . S
C39 H11 0.982 . S
C39 H15 0.979 . S
C39 H16 0.977 . S
C39 C36 1.453 . S
C40 H12 0.979 . S
C40 H13 0.980 . S
C40 H14 0.983 . S
C40 C36 1.684 . S
H41 C59 0.948 . S
H42 C0 0.948 . S
H43 C18 0.979 . S
H44 C18 0.980 . S
H45 C18 0.983 . S
H46 C17 0.982 . S
H47 C17 0.979 . S
H48 C17 0.977 . S
H49 C19 0.948 . S
H50 C21 0.947 . S
H51 C22 0.948 . S
H52 C28 0.982 . S
H53 C28 0.979 . S
H54 C28 0.977 . S
H55 C29 0.979 . S
H56 C29 0.980 . S
H57 C29 0.983 . S
H58 C2 0.947 . S
C59 C2 1.392 . S
C59 C3 1.419 . S
C59 H41 0.948 . S
C60 C61 1.391 . S
C60 C64 1.391 . S
C60 H102 0.948 . S
C61 C60 1.391 . S
C61 C62 1.391 . S
C62 C61 1.391 . S
C62 H118 0.947 . S
C62 C119 1.392 . S
C63 C64 1.391 . S
C63 C67 1.397 . S
C63 C119 1.419 . S
C64 C60 1.391 . S
C64 C63 1.391 . S
C64 C65 1.399 . S
C65 C64 1.399 . S
C65 C68 1.396 . S
C65 C77 1.453 . S
C65 C78 1.684 . S
H66 C90 0.948 . S
C67 C63 1.397 . S
C67 C68 1.394 . S
C67 C86 1.723 . S
C68 C65 1.396 . S
C68 C67 1.394 . S
C68 C98 1.723 . S
H69 C92 0.947 . S
H70 C93 0.948 . S
H71 C99 0.982 . S
H72 C100 0.979 . S
H73 C100 0.980 . S
H74 C100 0.983 . S
H75 C99 0.979 . S
H76 C99 0.977 . S
C77 C65 1.453 . S
C77 H106 0.982 . S
C77 H107 0.979 . S
C77 H108 0.977 . S
C78 C65 1.684 . S
C78 H103 0.979 . S
C78 H104 0.980 . S
C78 H105 0.983 . S
C79 C80 1.391 . S
C79 C84 1.391 . S
C79 H109 0.948 . S
C80 C79 1.391 . S
C80 C81 1.391 . S
C81 C80 1.391 . S
C81 C82 1.392 . S
C81 H110 0.947 . S
C82 C81 1.392 . S
C82 C83 1.419 . S
C82 H111 0.948 . S
C83 C82 1.419 . S
C83 C84 1.391 . S
C83 C87 1.397 . S
C84 C79 1.391 . S
C84 C83 1.391 . S
C84 C85 1.399 . S
C85 C84 1.399 . S
C85 C86 1.396 . S
C85 C88 1.453 . S
C85 C89 1.684 . S
C86 C67 1.723 . S
C86 C85 1.396 . S
C86 C87 1.394 . S
C87 C83 1.397 . S
C87 C86 1.394 . S
C87 C97 1.723 . S
C88 C85 1.453 . S
C88 H112 0.982 . S
C88 H113 0.986 . S
C88 H114 0.977 . S
C89 C85 1.684 . S
C89 H115 0.979 . S
C89 H116 0.980 . S
C89 H117 0.983 . S
C90 H66 0.948 . S
C90 C91 1.391 . S
C90 C95 1.391 . S
C91 C90 1.391 . S
C91 C92 1.391 . S
C92 H69 0.947 . S
C92 C91 1.391 . S
C92 C93 1.392 . S
C93 H70 0.948 . S
C93 C92 1.392 . S
C93 C94 1.419 . S
C94 C93 1.419 . S
C94 C95 1.391 . S
C94 C98 1.397 . S
C95 C90 1.391 . S
C95 C94 1.391 . S
C95 C96 1.399 . S
C96 C95 1.399 . S
C96 C97 1.396 . S
C96 C99 1.453 . S
C96 C100 1.684 . S
C97 C87 1.723 . S
C97 C96 1.396 . S
C97 C98 1.394 . S
C98 C68 1.723 . S
C98 C94 1.397 . S
C98 C97 1.394 . S
C99 H71 0.982 . S
C99 H75 0.979 . S
C99 H76 0.977 . S
C99 C96 1.453 . S
C100 H72 0.979 . S
C100 H73 0.980 . S
C100 H74 0.983 . S
C100 C96 1.684 . S
H101 C119 0.948 . S
H102 C60 0.948 . S
H103 C78 0.979 . S
H104 C78 0.980 . S
H105 C78 0.983 . S
H106 C77 0.982 . S
H107 C77 0.979 . S
H108 C77 0.977 . S
H109 C79 0.948 . S
H110 C81 0.947 . S
H111 C82 0.948 . S
H112 C88 0.982 . S
H113 C88 0.986 . S
H114 C88 0.977 . S
H115 C89 0.979 . S
H116 C89 0.980 . S
H117 C89 0.983 . S
H118 C62 0.947 . S
C119 C62 1.392 . S
C119 C63 1.419 . S
C119 H101 0.948 . S
C120 C121 1.391 . S
C120 C124 1.391 . S
C120 H162 0.948 . S
C121 C120 1.391 . S
C121 C122 1.391 . S
C122 C121 1.391 . S
C122 H178 0.947 . S
C122 C179 1.392 . S
C123 C124 1.391 . S
C123 C127 1.397 . S
C123 C179 1.419 . S
C124 C120 1.391 . S
C124 C123 1.391 . S
C124 C125 1.399 . S
C125 C124 1.399 . S
C125 C128 1.396 . S
C125 C137 1.453 . S
C125 C138 1.684 . S
H126 C150 0.948 . S
C127 C123 1.397 . S
C127 C128 1.394 . S
C127 C146 1.723 . S
C128 C125 1.396 . S
C128 C127 1.394 . S
C128 C158 1.723 . S
H129 C152 0.947 . S
H130 C153 0.948 . S
H131 C159 0.982 . S
H132 C160 0.979 . S
H133 C160 0.980 . S
H134 C160 0.983 . S
H135 C159 0.979 . S
H136 C159 0.977 . S
C137 C125 1.453 . S
C137 H166 0.982 . S
C137 H167 0.979 . S
C137 H168 0.977 . S
C138 C125 1.684 . S
C138 H163 0.979 . S
C138 H164 0.980 . S
C138 H165 0.983 . S
C139 C140 1.391 . S
C139 C144 1.391 . S
C139 H169 0.948 . S
C140 C139 1.391 . S
C140 C141 1.391 . S
C141 C140 1.391 . S
C141 C142 1.392 . S
C141 H170 0.947 . S
C142 C141 1.392 . S
C142 C143 1.419 . S
C142 H171 0.948 . S
C143 C142 1.419 . S
C143 C144 1.391 . S
C143 C147 1.397 . S
C144 C139 1.391 . S
C144 C143 1.391 . S
C144 C145 1.399 . S
C145 C144 1.399 . S
C145 C146 1.396 . S
C145 C148 1.453 . S
C145 C149 1.684 . S
C146 C127 1.723 . S
C146 C145 1.396 . S
C146 C147 1.394 . S
C147 C143 1.397 . S
C147 C146 1.394 . S
C147 C157 1.723 . S
C148 C145 1.453 . S
C148 H172 0.982 . S
C148 H173 0.979 . S
C148 H174 0.977 . S
C149 C145 1.684 . S
C149 H175 0.979 . S
C149 H176 0.980 . S
C149 H177 0.983 . S
C150 H126 0.948 . S
C150 C151 1.391 . S
C150 C155 1.391 . S
C151 C150 1.391 . S
C151 C152 1.391 . S
C152 H129 0.947 . S
C152 C151 1.391 . S
C152 C153 1.392 . S
C153 H130 0.948 . S
C153 C152 1.392 . S
C153 C154 1.419 . S
C154 C153 1.419 . S
C154 C155 1.391 . S
C154 C158 1.397 . S
C155 C150 1.391 . S
C155 C154 1.391 . S
C155 C156 1.399 . S
C156 C155 1.399 . S
C156 C157 1.396 . S
C156 C159 1.453 . S
C156 C160 1.684 . S
C157 C147 1.723 . S
C157 C156 1.396 . S
C157 C158 1.394 . S
C158 C128 1.723 . S
C158 C154 1.397 . S
C158 C157 1.394 . S
C159 H131 0.982 . S
C159 H135 0.979 . S
C159 H136 0.977 . S
C159 C156 1.453 . S
C160 H132 0.979 . S
C160 H133 0.980 . S
C160 H134 0.983 . S
C160 C156 1.684 . S
H161 C179 0.948 . S
H162 C120 0.948 . S
H163 C138 0.979 . S
H164 C138 0.980 . S
H165 C138 0.983 . S
H166 C137 0.982 . S
H167 C137 0.979 . S
H168 C137 0.977 . S
H169 C139 0.948 . S
H170 C141 0.947 . S
H171 C142 0.948 . S
H172 C148 0.982 . S
H173 C148 0.979 . S
H174 C148 0.977 . S
H175 C149 0.979 . S
H176 C149 0.980 . S
H177 C149 0.983 . S
H178 C122 0.947 . S
C179 C122 1.392 . S
C179 C123 1.419 . S
C179 H161 0.948 . S
C180 C181 1.391 . S
C180 C184 1.391 . S
C180 H222 0.948 . S
C181 C180 1.391 . S
C181 C182 1.391 . S
C182 C181 1.391 . S
C182 H238 0.947 . S
C182 C239 1.392 . S
C183 C184 1.391 . S
C183 C187 1.397 . S
C183 C239 1.419 . S
C184 C180 1.391 . S
C184 C183 1.391 . S
C184 C185 1.399 . S
C185 C184 1.399 . S
C185 C188 1.396 . S
C185 C197 1.453 . S
C185 C198 1.684 . S
H186 C210 0.948 . S
C187 C183 1.397 . S
C187 C188 1.394 . S
C187 C206 1.723 . S
C188 C185 1.396 . S
C188 C187 1.394 . S
C188 C218 1.723 . S
H189 C212 0.947 . S
H190 C213 0.948 . S
H191 C219 0.982 . S
H192 C220 0.979 . S
H193 C220 0.980 . S
H194 C220 0.983 . S
H195 C219 0.979 . S
H196 C219 0.977 . S
C197 C185 1.453 . S
C197 H226 0.982 . S
C197 H227 0.979 . S
C197 H228 0.977 . S
C198 C185 1.684 . S
C198 H223 0.979 . S
C198 H224 0.980 . S
C198 H225 0.983 . S
C199 C200 1.391 . S
C199 C204 1.391 . S
C199 H229 0.948 . S
C200 C199 1.391 . S
C200 C201 1.391 . S
C201 C200 1.391 . S
C201 C202 1.392 . S
C201 H230 0.947 . S
C202 C201 1.392 . S
C202 C203 1.419 . S
C202 H231 0.948 . S
C203 C202 1.419 . S
C203 C204 1.391 . S
C203 C207 1.397 . S
C204 C199 1.391 . S
C204 C203 1.391 . S
C204 C205 1.399 . S
C205 C204 1.399 . S
C205 C206 1.396 . S
C205 C208 1.453 . S
C205 C209 1.684 . S
C206 C187 1.723 . S
C206 C205 1.396 . S
C206 C207 1.394 . S
C207 C203 1.397 . S
C207 C206 1.394 . S
C207 C217 1.723 . S
C208 C205 1.453 . S
C208 H232 0.982 . S
C208 H233 0.979 . S
C208 H234 0.977 . S
C209 C205 1.684 . S
C209 H235 0.979 . S
C209 H236 0.980 . S
C209 H237 0.983 . S
C210 H186 0.948 . S
C210 C211 1.391 . S
C210 C215 1.391 . S
C211 C210 1.391 . S
C211 C212 1.391 . S
C212 H189 0.947 . S
C212 C211 1.391 . S
C212 C213 1.392 . S
C213 H190 0.948 . S
C213 C212 1.392 . S
C213 C214 1.419 . S
C214 C213 1.419 . S
C214 C215 1.391 . S
C214 C218 1.397 . S
C215 C210 1.391 . S
C215 C214 1.391 . S
C215 C216 1.399 . S
C216 C215 1.399 . S
C216 C217 1.396 . S
C216 C219 1.453 . S
C216 C220 1.684 . S
C217 C207 1.723 . S
C217 C216 1.396 . S
C217 C218 1.394 . S
C218 C188 1.723 . S
C218 C214 1.397 . S
C218 C217 1.394 . S
C219 H191 0.982 . S
C219 H195 0.979 . S
C219 H196 0.977 . S
C219 C216 1.453 . S
C220 H192 0.979 . S
C220 H193 0.980 . S
C220 H194 0.983 . S
C220 C216 1.684 . S
H221 C239 0.948 . S
H222 C180 0.948 . S
H223 C198 0.979 . S
H224 C198 0.980 . S
H225 C198 0.983 . S
H226 C197 0.982 . S
H227 C197 0.979 . S
H228 C197 0.977 . S
H229 C199 0.948 . S
H230 C201 0.947 . S
H231 C202 0.948 . S
H232 C208 0.982 . S
H233 C208 0.979 . S
H234 C208 0.977 . S
H235 C209 0.979 . S
H236 C209 0.980 . S
H237 C209 0.983 . S
H238 C182 0.947 . S
C239 C182 1.392 . S
C239 C183 1.419 . S
C239 H221 0.948 . S
C240 C241 1.391 . S
C240 C244 1.391 . S
C240 H282 0.948 . S
C241 C240 1.391 . S
C241 C242 1.391 . S
C242 C241 1.391 . S
C242 H298 0.947 . S
C242 C299 1.392 . S
C243 C244 1.391 . S
C243 C247 1.397 . S
C243 C299 1.419 . S
C244 C240 1.391 . S
C244 C243 1.391 . S
C244 C245 1.399 . S
C245 C244 1.399 . S
C245 C248 1.396 . S
C245 C257 1.453 . S
C245 C258 1.684 . S
H246 C270 0.948 . S
C247 C243 1.397 . S
C247 C248 1.394 . S
C247 C266 1.723 . S
C248 C245 1.396 . S
C248 C247 1.394 . S
C248 C278 1.723 . S
H249 C272 0.947 . S
H250 C273 0.948 . S
H251 C279 0.982 . S
H252 C280 0.979 1_545 S
H253 C280 0.980 . S
H254 C280 0.983 1_545 S
H255 C279 0.979 . S
H256 C279 0.977 . S
C257 C245 1.453 . S
C257 H286 0.982 . S
C257 H287 0.979 . S
C257 H288 0.977 . S
C258 C245 1.684 . S
C258 H283 0.979 1_556 S
C258 H284 0.980 . S
C258 H285 0.983 1_556 S
C259 C260 1.391 . S
C259 C264 1.391 . S
C259 H289 0.948 . S
C260 C259 1.391 . S
C260 C261 1.391 . S
C261 C260 1.391 . S
C261 C262 1.392 . S
C261 H290 0.947 . S
C262 C261 1.392 . S
C262 C263 1.419 . S
C262 H291 0.948 . S
C263 C262 1.419 . S
C263 C264 1.391 . S
C263 C267 1.397 . S
C264 C259 1.391 . S
C264 C263 1.391 . S
C264 C265 1.399 . S
C265 C264 1.399 . S
C265 C266 1.396 . S
C265 C268 1.453 . S
C265 C269 1.684 . S
C266 C247 1.723 . S
C266 C265 1.396 . S
C266 C267 1.394 . S
C267 C263 1.397 . S
C267 C266 1.394 . S
C267 C277 1.723 . S
C268 C265 1.453 . S
C268 H292 0.982 . S
C268 H293 0.979 . S
C268 H294 0.977 . S
C269 C265 1.684 . S
C269 H295 0.979 . S
C269 H296 0.980 . S
C269 H297 0.983 . S
C270 H246 0.948 . S
C270 C271 1.391 . S
C270 C275 1.391 . S
C271 C270 1.391 . S
C271 C272 1.391 . S
C272 H249 0.947 . S
C272 C271 1.391 . S
C272 C273 1.392 . S
C273 H250 0.948 . S
C273 C272 1.392 . S
C273 C274 1.419 . S
C274 C273 1.419 . S
C274 C275 1.391 . S
C274 C278 1.397 . S
C275 C270 1.391 . S
C275 C274 1.391 . S
C275 C276 1.399 . S
C276 C275 1.399 . S
C276 C277 1.396 . S
C276 C279 1.453 . S
C276 C280 1.684 . S
C277 C267 1.723 . S
C277 C276 1.396 . S
C277 C278 1.394 . S
C278 C248 1.723 . S
C278 C274 1.397 . S
C278 C277 1.394 . S
C279 H251 0.982 . S
C279 H255 0.979 . S
C279 H256 0.977 . S
C279 C276 1.453 . S
C280 H252 0.979 1_565 S
C280 H253 0.980 . S
C280 H254 0.983 1_565 S
C280 C276 1.684 . S
H281 C299 0.948 . S
H282 C240 0.948 . S
H283 C258 0.979 1_554 S
H284 C258 0.980 . S
H285 C258 0.983 1_554 S
H286 C257 0.982 . S
H287 C257 0.979 . S
H288 C257 0.977 . S
H289 C259 0.948 . S
H290 C261 0.947 . S
H291 C262 0.948 . S
H292 C268 0.982 . S
H293 C268 0.979 . S
H294 C268 0.977 . S
H295 C269 0.979 . S
H296 C269 0.980 . S
H297 C269 0.983 . S
H298 C242 0.947 . S
C299 C242 1.392 . S
C299 C243 1.419 . S
C299 H281 0.948 . S
C300 C301 1.391 . S
C300 C304 1.391 . S
C300 H342 0.948 . S
C301 C300 1.391 . S
C301 C302 1.391 . S
C302 C301 1.391 . S
C302 H358 0.947 . S
C302 C359 1.392 . S
C303 C304 1.391 . S
C303 C307 1.397 . S
C303 C359 1.419 . S
C304 C300 1.391 . S
C304 C303 1.391 . S
C304 C305 1.399 . S
C305 C304 1.399 . S
C305 C308 1.396 . S
C305 C317 1.453 . S
C305 C318 1.684 . S
H306 C330 0.948 . S
C307 C303 1.397 . S
C307 C308 1.394 . S
C307 C326 1.723 . S
C308 C305 1.396 . S
C308 C307 1.394 . S
C308 C338 1.723 . S
H309 C332 0.947 . S
H310 C333 0.948 . S
H311 C339 0.982 . S
H312 C340 0.979 . S
H313 C340 0.980 . S
H314 C340 0.983 . S
H315 C339 0.979 . S
H316 C339 0.977 . S
C317 C305 1.453 . S
C317 H346 0.982 . S
C317 H347 0.979 . S
C317 H348 0.977 . S
C318 C305 1.684 . S
C318 H343 0.979 . S
C318 H344 0.980 . S
C318 H345 0.983 . S
C319 C320 1.391 . S
C319 C324 1.391 . S
C319 H349 0.948 . S
C320 C319 1.391 . S
C320 C321 1.391 . S
C321 C320 1.391 . S
C321 C322 1.392 . S
C321 H350 0.947 . S
C322 C321 1.392 . S
C322 C323 1.419 . S
C322 H351 0.948 . S
C323 C322 1.419 . S
C323 C324 1.391 . S
C323 C327 1.397 . S
C324 C319 1.391 . S
C324 C323 1.391 . S
C324 C325 1.399 . S
C325 C324 1.399 . S
C325 C326 1.396 . S
C325 C328 1.453 . S
C325 C329 1.684 . S
C326 C307 1.723 . S
C326 C325 1.396 . S
C326 C327 1.394 . S
C327 C323 1.397 . S
C327 C326 1.394 . S
C327 C337 1.723 . S
C328 C325 1.453 . S
C328 H352 0.982 . S
C328 H353 0.979 . S
C328 H354 0.977 . S
C329 C325 1.684 . S
C329 H355 0.979 . S
C329 H356 0.980 . S
C329 H357 0.983 . S
C330 H306 0.948 . S
C330 C331 1.391 . S
C330 C335 1.391 . S
C331 C330 1.391 . S
C331 C332 1.391 . S
C332 H309 0.947 . S
C332 C331 1.391 . S
C332 C333 1.392 . S
C333 H310 0.948 . S
C333 C332 1.392 . S
C333 C334 1.419 . S
C334 C333 1.419 . S
C334 C335 1.391 . S
C334 C338 1.397 . S
C335 C330 1.391 . S
C335 C334 1.391 . S
C335 C336 1.399 . S
C336 C335 1.399 . S
C336 C337 1.396 . S
C336 C339 1.453 . S
C336 C340 1.684 . S
C337 C327 1.723 . S
C337 C336 1.396 . S
C337 C338 1.394 . S
C338 C308 1.723 . S
C338 C334 1.397 . S
C338 C337 1.394 . S
C339 H311 0.982 . S
C339 H315 0.979 . S
C339 H316 0.977 . S
C339 C336 1.453 . S
C340 H312 0.979 . S
C340 H313 0.980 . S
C340 H314 0.983 . S
C340 C336 1.684 . S
H341 C359 0.948 . S
H342 C300 0.948 . S
H343 C318 0.979 . S
H344 C318 0.980 . S
H345 C318 0.983 . S
H346 C317 0.982 . S
H347 C317 0.979 . S
H348 C317 0.977 . S
H349 C319 0.948 . S
H350 C321 0.947 . S
H351 C322 0.948 . S
H352 C328 0.982 . S
H353 C328 0.979 . S
H354 C328 0.977 . S
H355 C329 0.979 . S
H356 C329 0.980 . S
H357 C329 0.983 . S
H358 C302 0.947 . S
C359 C302 1.392 . S
C359 C303 1.419 . S
C359 H341 0.948 . S
C360 C361 1.391 . S
C360 C364 1.391 . S
C360 H402 0.948 . S
C361 C360 1.391 . S
C361 C362 1.391 . S
C362 C361 1.391 . S
C362 H418 0.947 . S
C362 C419 1.392 . S
C363 C364 1.391 . S
C363 C367 1.397 . S
C363 C419 1.419 . S
C364 C360 1.391 . S
C364 C363 1.391 . S
C364 C365 1.399 . S
C365 C364 1.399 . S
C365 C368 1.396 . S
C365 C377 1.453 . S
C365 C378 1.684 . S
H366 C390 0.948 . S
C367 C363 1.397 . S
C367 C368 1.394 . S
C367 C386 1.723 . S
C368 C365 1.396 . S
C368 C367 1.394 . S
C368 C398 1.723 . S
H369 C392 0.947 . S
H370 C393 0.948 . S
H371 C399 0.982 . S
H372 C400 0.979 . S
H373 C400 0.980 . S
H374 C400 0.983 . S
H375 C399 0.979 . S
H376 C399 0.977 . S
C377 C365 1.453 . S
C377 H406 0.982 . S
C377 H407 0.979 . S
C377 H408 0.977 . S
C378 C365 1.684 . S
C378 H403 0.979 . S
C378 H404 0.980 . S
C378 H405 0.983 . S
C379 C380 1.391 . S
C379 C384 1.391 . S
C379 H409 0.948 . S
C380 C379 1.391 . S
C380 C381 1.391 . S
C381 C380 1.391 . S
C381 C382 1.392 . S
C381 H410 0.947 . S
C382 C381 1.392 . S
C382 C383 1.419 . S
C382 H411 0.948 . S
C383 C382 1.419 . S
C383 C384 1.391 . S
C383 C387 1.397 . S
C384 C379 1.391 . S
C384 C383 1.391 . S
C384 C385 1.399 . S
C385 C384 1.399 . S
C385 C386 1.396 . S
C385 C388 1.453 . S
C385 C389 1.684 . S
C386 C367 1.723 . S
C386 C385 1.396 . S
C386 C387 1.394 . S
C387 C383 1.397 . S
C387 C386 1.394 . S
C387 C397 1.723 . S
C388 C385 1.453 . S
C388 H412 0.982 . S
C388 H413 0.979 . S
C388 H414 0.977 . S
C389 C385 1.684 . S
C389 H415 0.979 . S
C389 H416 0.980 . S
C389 H417 0.983 . S
C390 H366 0.948 . S
C390 C391 1.391 . S
C390 C395 1.391 . S
C391 C390 1.391 . S
C391 C392 1.391 . S
C392 H369 0.947 . S
C392 C391 1.391 . S
C392 C393 1.392 . S
C393 H370 0.948 . S
C393 C392 1.392 . S
C393 C394 1.419 . S
C394 C393 1.419 . S
C394 C395 1.391 . S
C394 C398 1.397 . S
C395 C390 1.391 . S
C395 C394 1.391 . S
C395 C396 1.399 . S
C396 C395 1.399 . S
C396 C397 1.396 . S
C396 C399 1.453 . S
C396 C400 1.684 . S
C397 C387 1.723 . S
C397 C396 1.396 . S
C397 C398 1.394 . S
C398 C368 1.723 . S
C398 C394 1.397 . S
C398 C397 1.394 . S
C399 H371 0.982 . S
C399 H375 0.979 . S
C399 H376 0.977 . S
C399 C396 1.453 . S
C400 H372 0.979 . S
C400 H373 0.980 . S
C400 H374 0.983 . S
C400 C396 1.684 . S
H401 C419 0.948 . S
H402 C360 0.948 . S
H403 C378 0.979 . S
H404 C378 0.980 . S
H405 C378 0.983 . S
H406 C377 0.982 . S
H407 C377 0.979 . S
H408 C377 0.977 . S
H409 C379 0.948 . S
H410 C381 0.947 . S
H411 C382 0.948 . S
H412 C388 0.982 . S
H413 C388 0.979 . S
H414 C388 0.977 . S
H415 C389 0.979 . S
H416 C389 0.980 . S
H417 C389 0.983 . S
H418 C362 0.947 . S
C419 C362 1.392 . S
C419 C363 1.419 . S
C419 H401 0.948 . S
C420 C421 1.391 . S
C420 C424 1.391 . S
C420 H462 0.948 . S
C421 C420 1.391 . S
C421 C422 1.391 . S
C422 C421 1.391 . S
C422 H478 0.947 . S
C422 C479 1.392 . S
C423 C424 1.391 . S
C423 C427 1.397 . S
C423 C479 1.419 . S
C424 C420 1.391 . S
C424 C423 1.391 . S
C424 C425 1.399 . S
C425 C424 1.399 . S
C425 C428 1.396 . S
C425 C437 1.453 . S
C425 C438 1.684 . S
H426 C450 0.948 . S
C427 C423 1.397 . S
C427 C428 1.394 . S
C427 C446 1.723 . S
C428 C425 1.396 . S
C428 C427 1.394 . S
C428 C458 1.723 . S
H429 C452 0.947 . S
H430 C453 0.948 . S
H431 C459 0.982 . S
H432 C460 0.979 . S
H433 C460 0.980 . S
H434 C460 0.983 . S
H435 C459 0.979 . S
H436 C459 0.977 . S
C437 C425 1.453 . S
C437 H466 0.982 . S
C437 H467 0.979 1_455 S
C437 H468 0.977 . S
C438 C425 1.684 . S
C438 H463 0.979 . S
C438 H464 0.980 . S
C438 H465 0.983 . S
C439 C440 1.391 . S
C439 C444 1.391 . S
C439 H469 0.948 . S
C440 C439 1.391 . S
C440 C441 1.391 . S
C441 C440 1.391 . S
C441 C442 1.392 . S
C441 H470 0.947 . S
C442 C441 1.392 . S
C442 C443 1.419 . S
C442 H471 0.948 . S
C443 C442 1.419 . S
C443 C444 1.391 . S
C443 C447 1.397 . S
C444 C439 1.391 . S
C444 C443 1.391 . S
C444 C445 1.399 . S
C445 C444 1.399 . S
C445 C446 1.396 . S
C445 C448 1.453 . S
C445 C449 1.684 . S
C446 C427 1.723 . S
C446 C445 1.396 . S
C446 C447 1.394 . S
C447 C443 1.397 . S
C447 C446 1.394 . S
C447 C457 1.723 . S
C448 C445 1.453 . S
C448 H472 0.982 . S
C448 H473 0.979 . S
C448 H474 0.977 . S
C449 C445 1.684 . S
C449 H475 0.979 . S
C449 H476 0.980 . S
C449 H477 0.983 . S
C450 H426 0.948 . S
C450 C451 1.391 . S
C450 C455 1.391 . S
C451 C450 1.391 . S
C451 C452 1.391 . S
C452 H429 0.947 . S
C452 C451 1.391 . S
C452 C453 1.392 . S
C453 H430 0.948 . S
C453 C452 1.392 . S
C453 C454 1.419 . S
C454 C453 1.419 . S
C454 C455 1.391 . S
C454 C458 1.397 . S
C455 C450 1.391 . S
C455 C454 1.391 . S
C455 C456 1.399 . S
C456 C455 1.399 . S
C456 C457 1.396 . S
C456 C459 1.453 . S
C456 C460 1.684 . S
C457 C447 1.723 . S
C457 C456 1.396 . S
C457 C458 1.394 . S
C458 C428 1.723 . S
C458 C454 1.397 . S
C458 C457 1.394 . S
C459 H431 0.982 . S
C459 H435 0.979 . S
C459 H436 0.977 . S
C459 C456 1.453 . S
C460 H432 0.979 . S
C460 H433 0.980 . S
C460 H434 0.983 . S
C460 C456 1.684 . S
H461 C479 0.948 . S
H462 C420 0.948 . S
H463 C438 0.979 . S
H464 C438 0.980 . S
H465 C438 0.983 . S
H466 C437 0.982 . S
H467 C437 0.979 1_655 S
H468 C437 0.977 . S
H469 C439 0.948 . S
H470 C441 0.947 . S
H471 C442 0.948 . S
H472 C448 0.982 . S
H473 C448 0.979 . S
H474 C448 0.977 . S
H475 C449 0.979 . S
H476 C449 0.980 . S
H477 C449 0.983 . S
H478 C422 0.947 . S
C479 C422 1.392 . S
C479 C423 1.419 . S
C479 H461 0.948 . S
O480 Mn481 2.163 1_655 S
O480 C494 1.244 . S
Mn481 O480 2.163 1_455 S
Mn481 O484 2.160 1_545 S
Mn481 O485 2.221 . S
Mn481 O487 2.163 1_445 S
Mn481 O489 2.160 . S
Mn481 O499 2.221 1_445 S
O482 Mn483 2.087 1_545 S
O482 C494 1.256 . S
Mn483 O482 2.087 1_565 S
Mn483 O490 2.089 1_565 S
Mn483 O499 2.290 . S
Mn483 O500 2.251 . S
O484 Mn481 2.160 1_565 S
O484 C495 1.239 . S
O485 Mn481 2.221 . S
O485 Mn486 2.290 . S
O485 C496 1.278 . S
Mn486 O485 2.290 . S
Mn486 O488 2.089 1_545 S
Mn486 O491 2.251 . S
Mn486 O492 2.087 . S
O487 Mn481 2.163 1_665 S
O487 C497 1.244 . S
O488 Mn486 2.089 1_565 S
O488 C495 1.256 . S
O489 Mn481 2.160 . S
O489 C498 1.239 . S
O490 Mn483 2.089 1_545 S
O490 C498 1.256 1_655 S
O491 Mn486 2.251 . S
O491 C496 1.241 . S
O492 Mn486 2.087 . S
O492 C497 1.256 1_445 S
C493 O499 1.278 . S
C493 O500 1.241 . S
C494 O480 1.244 . S
C494 O482 1.256 . S
C495 O484 1.239 . S
C495 O488 1.256 . S
C496 O485 1.278 . S
C496 O491 1.241 . S
C497 O487 1.244 . S
C497 O492 1.256 1_665 S
C498 O489 1.239 . S
C498 O490 1.256 1_455 S
O499 Mn481 2.221 1_665 S
O499 Mn483 2.290 . S
O499 C493 1.278 . S
O500 Mn483 2.251 . S
O500 C493 1.241 . S
O501 Mn502 2.163 1_556 S
O501 C515 1.244 1_545 S
Mn502 O501 2.163 1_554 S
Mn502 O505 2.160 . S
Mn502 O506 2.221 1_554 S
Mn502 O508 2.163 . S
Mn502 O510 2.163 1_554 S
Mn502 O520 2.221 1_545 S
O503 Mn504 2.087 . S
O503 C515 1.256 . S
Mn504 O503 2.087 . S
Mn504 O511 2.089 . S
Mn504 O520 2.290 1_556 S
Mn504 O521 2.251 1_556 S
O505 Mn502 2.160 . S
O505 C516 1.239 . S
O506 Mn502 2.221 1_556 S
O506 Mn507 2.290 1_556 S
O506 C517 1.278 . S
Mn507 O506 2.290 1_554 S
Mn507 O509 2.089 . S
Mn507 O512 2.251 1_554 S
Mn507 O513 2.087 . S
O508 Mn502 2.163 . S
O508 C518 1.244 . S
O509 Mn507 2.089 . S
O509 C516 1.256 . S
O510 Mn502 2.163 1_556 S
O510 C519 1.230 1_545 S
O511 Mn504 2.089 . S
O511 C519 1.256 . S
O512 Mn507 2.251 1_556 S
O512 C517 1.241 . S
O513 Mn507 2.087 . S
O513 C518 1.256 . S
C514 O520 1.278 . S
C514 O521 1.241 . S
C515 O501 1.244 1_565 S
C515 O503 1.256 . S
C516 O505 1.239 . S
C516 O509 1.256 . S
C517 O506 1.278 . S
C517 O512 1.241 . S
C518 O508 1.244 . S
C518 O513 1.256 . S
C519 O510 1.230 1_565 S
C519 O511 1.256 . S
O520 Mn502 2.221 1_565 S
O520 Mn504 2.290 1_554 S
O520 C514 1.278 . S
O521 Mn504 2.251 1_554 S
O521 C514 1.241 . S
O522 Mn523 2.163 . S
O522 C536 1.244 . S
Mn523 O522 2.163 . S
Mn523 O526 2.160 . S
Mn523 O527 2.221 . S
Mn523 O529 2.163 . S
Mn523 O531 2.160 . S
Mn523 O541 2.221 . S
O524 Mn525 2.087 . S
O524 C536 1.256 . S
Mn525 O524 2.087 . S
Mn525 O532 2.089 . S
Mn525 O541 2.290 . S
Mn525 O542 2.251 . S
O526 Mn523 2.160 . S
O526 C537 1.239 . S
O527 Mn523 2.221 . S
O527 Mn528 2.290 . S
O527 C538 1.278 . S
Mn528 O527 2.290 . S
Mn528 O530 2.089 . S
Mn528 O533 2.251 . S
Mn528 O534 2.087 . S
O529 Mn523 2.163 . S
O529 C539 1.244 . S
O530 Mn528 2.089 . S
O530 C537 1.256 . S
O531 Mn523 2.160 . S
O531 C540 1.239 . S
O532 Mn525 2.089 . S
O532 C540 1.256 . S
O533 Mn528 2.251 . S
O533 C538 1.241 . S
O534 Mn528 2.087 . S
O534 C539 1.256 . S
C535 O541 1.278 . S
C535 O542 1.241 . S
C536 O522 1.244 . S
C536 O524 1.256 . S
C537 O526 1.239 . S
C537 O530 1.256 . S
C538 O527 1.278 . S
C538 O533 1.241 . S
C539 O529 1.244 . S
C539 O534 1.256 . S
C540 O531 1.239 . S
C540 O532 1.256 . S
O541 Mn523 2.221 . S
O541 Mn525 2.290 . S
O541 C535 1.278 . S
O542 Mn525 2.251 . S
O542 C535 1.241 . S
O543 Mn544 2.163 1_655 S
O543 C557 1.244 1_554 S
Mn544 O543 2.163 1_455 S
Mn544 O547 2.160 . S
Mn544 O548 2.221 1_455 S
Mn544 O550 2.163 . S
Mn544 O552 2.160 1_454 S
Mn544 O562 2.221 1_554 S
O545 Mn546 2.087 . S
O545 C557 1.256 . S
Mn546 O545 2.087 . S
Mn546 O553 2.089 . S
Mn546 O562 2.290 1_655 S
Mn546 O563 2.251 . S
O547 Mn544 2.160 . S
O547 C558 1.239 . S
O548 Mn544 2.221 1_655 S
O548 Mn549 2.290 1_655 S
O548 C559 1.278 . S
Mn549 O548 2.290 1_455 S
Mn549 O551 2.089 . S
Mn549 O554 2.251 1_455 S
Mn549 O555 2.087 . S
O550 Mn544 2.163 . S
O550 C560 1.244 . S
O551 Mn549 2.089 . S
O551 C558 1.256 . S
O552 Mn544 2.160 1_656 S
O552 C561 1.239 . S
O553 Mn546 2.089 . S
O553 C561 1.256 . S
O554 Mn549 2.251 1_655 S
O554 C559 1.241 . S
O555 Mn549 2.087 . S
O555 C560 1.256 . S
C556 O562 1.278 . S
C556 O563 1.241 1_455 S
C557 O543 1.244 1_556 S
C557 O545 1.256 . S
C558 O547 1.239 . S
C558 O551 1.256 . S
C559 O548 1.278 . S
C559 O554 1.241 . S
C560 O550 1.244 . S
C560 O555 1.256 . S
C561 O552 1.239 . S
C561 O553 1.256 . S
O562 Mn544 2.221 1_556 S
O562 Mn546 2.290 1_455 S
O562 C556 1.278 . S
O563 Mn546 2.251 . S
O563 C556 1.241 1_655 S
C564 C565 1.387 . S
C564 H568 0.950 . S
C564 C573 1.390 . S
C565 C564 1.387 . S
C565 C567 1.387 . S
H566 C573 0.950 1_655 S
C567 C565 1.387 . S
C567 C569 1.390 . S
C567 H571 0.950 . S
H568 C564 0.950 . S
C569 C567 1.390 . S
C569 C570 1.387 . S
C569 H572 0.950 . S
C570 C569 1.387 . S
C570 C573 1.387 . S
H571 C567 0.950 . S
H572 C569 0.950 . S
C573 C564 1.390 . S
C573 H566 0.950 1_455 S
C573 C570 1.387 . S
C574 C575 1.387 . S
C574 H578 0.950 . S
C574 C583 1.390 . S
C575 C574 1.387 . S
C575 C577 1.387 1_565 S
H576 C583 0.950 . S
C577 C575 1.387 1_545 S
C577 C579 1.390 . S
C577 H581 0.950 . S
H578 C574 0.950 . S
C579 C577 1.390 . S
C579 C580 1.387 1_545 S
C579 H582 0.950 . S
C580 C579 1.387 1_565 S
C580 C583 1.387 . S
H581 C577 0.950 . S
H582 C579 0.950 . S
C583 C574 1.390 . S
C583 H576 0.950 . S
C583 C580 1.387 . S
C584 C585 1.387 . S
C584 H588 0.950 . S
C584 C593 1.390 . S
C585 C584 1.387 . S
C585 C587 1.387 . S
H586 C593 0.950 . S
C587 C585 1.387 . S
C587 C589 1.390 . S
C587 H591 0.950 . S
H588 C584 0.950 . S
C589 C587 1.390 . S
C589 C590 1.387 . S
C589 H592 0.950 . S
C590 C589 1.387 . S
C590 C593 1.387 . S
H591 C587 0.950 . S
H592 C589 0.950 . S
C593 C584 1.390 . S
C593 H586 0.950 . S
C593 C590 1.387 . S
C594 C595 1.387 . S
C594 H598 0.950 . S
C594 C603 1.390 . S
C595 C594 1.387 . S
C595 C597 1.387 . S
H596 C603 0.950 . S
C597 C595 1.387 . S
C597 C599 1.390 . S
C597 H601 0.950 . S
H598 C594 0.950 . S
C599 C597 1.390 . S
C599 C600 1.387 . S
C599 H602 0.950 . S
C600 C599 1.387 . S
C600 C603 1.387 . S
H601 C597 0.950 . S
H602 C599 0.950 . S
C603 C594 1.390 . S
C603 H596 0.950 . S
C603 C600 1.387 . S
C604 C605 1.387 . S
C604 H608 0.950 1_554 S
C604 C613 1.390 . S
C605 C604 1.387 . S
C605 C607 1.387 . S
H606 C613 0.950 1_556 S
C607 C605 1.387 . S
C607 C609 1.390 . S
C607 H611 0.950 . S
H608 C604 0.950 1_556 S
C609 C607 1.390 . S
C609 C610 1.387 . S
C609 H612 0.950 . S
C610 C609 1.387 . S
C610 C613 1.387 . S
H611 C607 0.950 . S
H612 C609 0.950 . S
C613 C604 1.390 . S
C613 H606 0.950 1_554 S
C613 C610 1.387 . S
C614 C615 1.387 . S
C614 H618 0.950 . S
C614 C623 1.390 . S
C615 C614 1.387 . S
C615 C617 1.387 . S
H616 C623 0.950 . S
C617 C615 1.387 . S
C617 C619 1.390 . S
C617 H621 0.950 . S
H618 C614 0.950 . S
C619 C617 1.390 . S
C619 C620 1.387 . S
C619 H622 0.950 . S
C620 C619 1.387 . S
C620 C623 1.387 . S
H621 C617 0.950 . S
H622 C619 0.950 . S
C623 C614 1.390 . S
C623 H616 0.950 . S
C623 C620 1.387 . S
C624 C625 1.387 . S
C624 H628 0.950 . S
C624 C633 1.390 . S
C625 C624 1.387 . S
C625 C627 1.387 . S
H626 C633 0.950 . S
C627 C625 1.387 . S
C627 C629 1.390 . S
C627 H631 0.950 . S
H628 C624 0.950 . S
C629 C627 1.390 . S
C629 C630 1.387 . S
C629 H632 0.950 1_556 S
C630 C629 1.387 . S
C630 C633 1.387 . S
H631 C627 0.950 . S
H632 C629 0.950 1_554 S
C633 C624 1.390 . S
C633 H626 0.950 . S
C633 C630 1.387 . S
C634 C635 1.387 . S
C634 H638 0.950 . S
C634 C643 1.390 . S
C635 C634 1.387 . S
C635 C637 1.387 . S
H636 C643 0.950 . S
C637 C635 1.387 . S
C637 C639 1.390 . S
C637 H641 0.950 . S
H638 C634 0.950 . S
C639 C637 1.390 . S
C639 C640 1.387 . S
C639 H642 0.950 . S
C640 C639 1.387 . S
C640 C643 1.387 . S
H641 C637 0.950 . S
H642 C639 0.950 . S
C643 C634 1.390 . S
C643 H636 0.950 . S
C643 C640 1.387 . S
C644 C645 1.387 . S
C644 H648 0.950 . S
C644 C653 1.390 . S
C645 C644 1.387 . S
C645 C647 1.387 . S
H646 C653 0.950 1_556 S
C647 C645 1.387 . S
C647 C649 1.390 . S
C647 H651 0.950 . S
H648 C644 0.950 . S
C649 C647 1.390 . S
C649 C650 1.387 . S
C649 H652 0.950 . S
C650 C649 1.387 . S
C650 C653 1.387 . S
H651 C647 0.950 . S
H652 C649 0.950 . S
C653 C644 1.390 . S
C653 H646 0.950 1_554 S
C653 C650 1.387 . S
C654 C655 1.387 . S
C654 H658 0.950 . S
C654 C663 1.390 . S
C655 C654 1.387 . S
C655 C657 1.387 . S
H656 C663 0.947 1_554 S
C657 C655 1.387 . S
C657 C659 1.390 . S
C657 H661 0.950 . S
H658 C654 0.950 . S
C659 C657 1.390 . S
C659 C660 1.387 . S
C659 H662 0.950 . S
C660 C659 1.387 . S
C660 C663 1.387 . S
H661 C657 0.950 . S
H662 C659 0.950 . S
C663 C654 1.390 . S
C663 H656 0.947 1_556 S
C663 C660 1.387 . S
C664 C665 1.387 . S
C664 H668 0.950 . S
C664 C673 1.390 . S
C665 C664 1.387 . S
C665 C667 1.387 . S
H666 C673 0.950 . S
C667 C665 1.387 . S
C667 C669 1.390 . S
C667 H671 0.950 . S
H668 C664 0.950 . S
C669 C667 1.390 . S
C669 C670 1.387 . S
C669 H672 0.950 . S
C670 C669 1.387 . S
C670 C673 1.387 . S
H671 C667 0.950 . S
H672 C669 0.950 . S
C673 C664 1.390 . S
C673 H666 0.950 . S
C673 C670 1.387 . S
C674 C675 1.387 . S
C674 H678 0.950 . S
C674 C683 1.390 . S
C675 C674 1.387 . S
C675 C677 1.387 . S
H676 C683 0.950 . S
C677 C675 1.387 . S
C677 C679 1.390 . S
C677 H681 0.950 . S
H678 C674 0.950 . S
C679 C677 1.390 . S
C679 C680 1.387 . S
C679 H682 0.950 . S
C680 C679 1.387 . S
C680 C683 1.387 . S
H681 C677 0.950 . S
H682 C679 0.950 . S
C683 C674 1.390 . S
C683 H676 0.950 . S
C683 C680 1.387 . S
C684 C685 1.387 . S
C684 H688 0.950 . S
C684 C693 1.390 . S
C685 C684 1.387 . S
C685 C687 1.387 . S
H686 C693 0.950 1_445 S
C687 C685 1.387 . S
C687 C689 1.390 . S
C687 H691 0.950 . S
H688 C684 0.950 . S
C689 C687 1.390 . S
C689 C690 1.387 . S
C689 H692 0.950 . S
C690 C689 1.387 . S
C690 C693 1.387 . S
H691 C687 0.950 . S
H692 C689 0.950 . S
C693 C684 1.390 . S
C693 H686 0.950 1_665 S
C693 C690 1.387 . S
C694 C695 1.387 . S
C694 H698 0.950 . S
C694 C703 1.390 . S
C695 C694 1.387 . S
C695 C697 1.387 . S
H696 C703 0.950 1_565 S
C697 C695 1.387 . S
C697 C699 1.390 . S
C697 H701 0.950 . S
H698 C694 0.950 . S
C699 C697 1.390 . S
C699 C700 1.387 . S
C699 H702 0.950 . S
C700 C699 1.387 . S
C700 C703 1.387 . S
H701 C697 0.950 . S
H702 C699 0.950 . S
C703 C694 1.390 . S
C703 H696 0.950 1_545 S
C703 C700 1.387 . S
C704 C705 1.387 . S
C704 H708 0.950 . S
C704 C713 1.390 . S
C705 C704 1.387 . S
C705 C707 1.387 . S
H706 C713 0.950 . S
C707 C705 1.387 . S
C707 C709 1.390 . S
C707 H711 0.950 . S
H708 C704 0.950 . S
C709 C707 1.390 . S
C709 C710 1.387 . S
C709 H712 0.950 . S
C710 C709 1.387 . S
C710 C713 1.387 . S
H711 C707 0.950 . S
H712 C709 0.950 . S
C713 C704 1.390 . S
C713 H706 0.950 . S
C713 C710 1.387 . S
C714 C715 1.387 . S
C714 H718 0.950 . S
C714 C723 1.390 . S
C715 C714 1.387 . S
C715 C717 1.387 . S
H716 C723 0.950 . S
C717 C715 1.387 . S
C717 C719 1.390 . S
C717 H721 0.950 . S
H718 C714 0.950 . S
C719 C717 1.390 . S
C719 C720 1.387 . S
C719 H722 0.950 . S
C720 C719 1.387 . S
C720 C723 1.387 . S
H721 C717 0.950 . S
H722 C719 0.950 . S
C723 C714 1.390 . S
C723 H716 0.950 . S
C723 C720 1.387 . S
C724 C725 1.387 . S
C724 H728 0.950 . S
C724 C733 1.390 . S
C725 C724 1.387 . S
C725 C727 1.387 . S
H726 C733 0.950 . S
C727 C725 1.387 . S
C727 C729 1.390 . S
C727 H731 0.950 1_556 S
H728 C724 0.950 . S
C729 C727 1.390 . S
C729 C730 1.387 . S
C729 H732 0.950 1_556 S
C730 C729 1.387 . S
C730 C733 1.387 . S
H731 C727 0.950 1_554 S
H732 C729 0.950 1_554 S
C733 C724 1.390 . S
C733 H726 0.950 . S
C733 C730 1.387 . S
C734 C735 1.387 . S
C734 H738 0.950 . S
C734 C743 1.390 . S
C735 C734 1.387 . S
C735 C737 1.387 . S
H736 C743 0.950 . S
C737 C735 1.387 . S
C737 C739 1.390 . S
C737 H741 0.950 . S
H738 C734 0.950 . S
C739 C737 1.390 . S
C739 C740 1.387 . S
C739 H742 0.950 . S
C740 C739 1.387 . S
C740 C743 1.387 . S
H741 C737 0.950 . S
H742 C739 0.950 . S
C743 C734 1.390 . S
C743 H736 0.950 . S
C743 C740 1.387 . S
C744 C745 1.387 . S
C744 H748 0.950 . S
C744 C753 1.390 . S
C745 C744 1.387 . S
C745 C747 1.387 . S
H746 C753 0.950 . S
C747 C745 1.387 . S
C747 C749 1.390 . S
C747 H751 0.950 . S
H748 C744 0.950 . S
C749 C747 1.390 . S
C749 C750 1.387 . S
C749 H752 0.950 . S
C750 C749 1.387 . S
C750 C753 1.387 . S
H751 C747 0.950 . S
H752 C749 0.950 . S
C753 C744 1.390 . S
C753 H746 0.950 . S
C753 C750 1.387 . S
C754 C755 1.387 . S
C754 H758 0.950 . S
C754 C763 1.390 . S
C755 C754 1.387 . S
C755 C757 1.387 . S
H756 C763 0.950 . S
C757 C755 1.387 . S
C757 C759 1.390 . S
C757 H761 0.950 . S
H758 C754 0.950 . S
C759 C757 1.390 . S
C759 C760 1.387 . S
C759 H762 0.950 . S
C760 C759 1.387 . S
C760 C763 1.387 . S
H761 C757 0.950 . S
H762 C759 0.950 . S
C763 C754 1.390 . S
C763 H756 0.950 . S
C763 C760 1.387 . S
C764 C765 1.387 . S
C764 H768 0.950 . S
C764 C773 1.390 . S
C765 C764 1.387 . S
C765 C767 1.387 . S
H766 C773 0.950 . S
C767 C765 1.387 . S
C767 C769 1.390 1_556 S
C767 H771 0.950 1_556 S
H768 C764 0.950 . S
C769 C767 1.390 1_554 S
C769 C770 1.387 1_554 S
C769 H772 0.950 . S
C770 C769 1.387 1_556 S
C770 C773 1.387 . S
H771 C767 0.950 1_554 S
H772 C769 0.950 . S
C773 C764 1.390 . S
C773 H766 0.950 . S
C773 C770 1.387 . S
C774 C775 1.387 . S
C774 H778 0.950 . S
C774 C783 1.390 . S
C775 C774 1.387 . S
C775 C777 1.387 . S
H776 C783 0.950 1_556 S
C777 C775 1.387 . S
C777 C779 1.390 . S
C777 H781 0.950 . S
H778 C774 0.950 . S
C779 C777 1.390 . S
C779 C780 1.387 . S
C779 H782 0.950 . S
C780 C779 1.387 . S
C780 C783 1.387 . S
H781 C777 0.950 . S
H782 C779 0.950 . S
C783 C774 1.390 . S
C783 H776 0.950 1_554 S
C783 C780 1.387 . S
C784 C785 1.378 1_655 S
C784 H788 0.958 . S
C784 C793 1.391 . S
C785 C784 1.378 1_455 S
C785 C787 1.387 . S
H786 C793 0.950 . S
C787 C785 1.387 . S
C787 C789 1.390 . S
C787 H791 0.950 . S
H788 C784 0.958 . S
C789 C787 1.390 . S
C789 C790 1.387 . S
C789 H792 0.950 . S
C790 C789 1.387 . S
C790 C793 1.387 1_455 S
H791 C787 0.950 . S
H792 C789 0.950 . S
C793 C784 1.391 . S
C793 H786 0.950 . S
C793 C790 1.387 1_655 S
C794 C795 1.387 . S
C794 H798 0.950 . S
C794 C803 1.390 . S
C795 C794 1.387 . S
C795 C797 1.387 . S
H796 C803 0.950 . S
C797 C795 1.387 . S
C797 C799 1.390 . S
C797 H801 0.950 . S
H798 C794 0.950 . S
C799 C797 1.390 . S
C799 C800 1.387 . S
C799 H802 0.950 . S
C800 C799 1.387 . S
C800 C803 1.387 . S
H801 C797 0.950 . S
H802 C799 0.950 . S
C803 C794 1.390 . S
C803 H796 0.950 . S
C803 C800 1.387 . S
C565 C1 1.578 . S
C570 C498 1.537 . S
C575 C80 1.475 . S
C580 C515 1.497 . S
C590 C538 1.201 . S
C585 C140 1.440 . S
C595 C211 1.759 . S
C600 C559 1.444 . S
C610 C518 1.735 . S
C605 C31 1.750 . S
C620 C495 1.675 . S
C615 C61 1.637 . S
C630 C557 1.375 . S
C625 C151 1.365 . S
C640 C536 1.540 . S
C635 C200 1.504 . S
C645 C20 1.716 . S
C650 C560 1.693 . S
C660 C517 1.295 . S
C655 C121 1.591 . S
C665 C181 1.639 . S
C670 C493 1.607 . S
C675 C91 1.518 . S
C680 C539 1.583 . S
C690 C497 1.554 . S
C685 C260 1.643 . S
C695 C320 1.322 . S
C700 C516 1.347 . S
C705 C361 1.535 . S
C710 C535 1.268 . S
C715 C451 1.694 . S
C720 C556 1.372 . S
C725 C271 1.730 . S
C730 C519 1.713 . S
C740 C494 1.728 . S
C735 C301 1.699 . S
C750 C558 1.266 . S
C745 C380 1.301 . S
C760 C537 1.594 . S
C755 C440 1.578 . S
C765 C241 1.565 . S
C770 C561 1.562 . S
C780 C514 1.248 . S
C775 C391 1.548 . S
C790 C496 1.446 . S
C785 C421 1.480 . S
C795 C331 1.487 . S
C800 C540 1.523 . S
