# Generated by pormake.
# Topology eea, (3,6)-cn, num edge types: 1
# Building blocks:
#     Node 0, Type 0, BuildingBlock: CUQRIR_clean_linker_1, # of connection points: 3
#     Node 1, Type 0, BuildingBlock: CUQRIR_clean_linker_1, # of connection points: 3
#     Node 2, Type 0, BuildingBlock: CUQRIR_clean_linker_1, # of connection points: 3
#     Node 3, Type 0, BuildingBlock: CUQRIR_clean_linker_1, # of connection points: 3
#     Node 4, Type 0, BuildingBlock: CUQRIR_clean_linker_1, # of connection points: 3
#     Node 5, Type 0, BuildingBlock: CUQRIR_clean_linker_1, # of connection points: 3
#     Node 6, Type 0, BuildingBlock: CUQRIR_clean_linker_1, # of connection points: 3
#     Node 7, Type 0, BuildingBlock: CUQRIR_clean_linker_1, # of connection points: 3
#     Node 8, Type 0, BuildingBlock: CUQRIR_clean_linker_1, # of connection points: 3
#     Node 9, Type 0, BuildingBlock: CUQRIR_clean_linker_1, # of connection points: 3
#     Node 10, Type 0, BuildingBlock: CUQRIR_clean_linker_1, # of connection points: 3
#     Node 11, Type 0, BuildingBlock: CUQRIR_clean_linker_1, # of connection points: 3
#     Node 12, Type 0, BuildingBlock: CUQRIR_clean_linker_1, # of connection points: 3
#     Node 13, Type 0, BuildingBlock: CUQRIR_clean_linker_1, # of connection points: 3
#     Node 14, Type 0, BuildingBlock: CUQRIR_clean_linker_1, # of connection points: 3
#     Node 15, Type 0, BuildingBlock: CUQRIR_clean_linker_1, # of connection points: 3
#     Node 16, Type 0, BuildingBlock: CUQRIR_clean_linker_1, # of connection points: 3
#     Node 17, Type 0, BuildingBlock: CUQRIR_clean_linker_1, # of connection points: 3
#     Node 18, Type 1, BuildingBlock: HISSIN_clean_sbu_0, # of connection points: 6
#     Node 19, Type 1, BuildingBlock: HISSIN_clean_sbu_0, # of connection points: 6
#     Node 20, Type 1, BuildingBlock: HISSIN_clean_sbu_0, # of connection points: 6
#     Node 21, Type 1, BuildingBlock: HISSIN_clean_sbu_0, # of connection points: 6
#     Node 22, Type 1, BuildingBlock: HISSIN_clean_sbu_0, # of connection points: 6
#     Node 23, Type 1, BuildingBlock: HISSIN_clean_sbu_0, # of connection points: 6
#     Node 24, Type 1, BuildingBlock: HISSIN_clean_sbu_0, # of connection points: 6
#     Node 25, Type 1, BuildingBlock: HISSIN_clean_sbu_0, # of connection points: 6
#     Node 26, Type 1, BuildingBlock: HISSIN_clean_sbu_0, # of connection points: 6
#     Edge 27, Type (0, 1), BuildingBlock: OJICUG_clean_linker_0, # of connection points: 2
#     Edge 28, Type (0, 1), BuildingBlock: OJICUG_clean_linker_0, # of connection points: 2
#     Edge 29, Type (0, 1), BuildingBlock: OJICUG_clean_linker_0, # of connection points: 2
#     Edge 30, Type (0, 1), BuildingBlock: OJICUG_clean_linker_0, # of connection points: 2
#     Edge 31, Type (0, 1), BuildingBlock: OJICUG_clean_linker_0, # of connection points: 2
#     Edge 32, Type (0, 1), BuildingBlock: OJICUG_clean_linker_0, # of connection points: 2
#     Edge 33, Type (0, 1), BuildingBlock: OJICUG_clean_linker_0, # of connection points: 2
#     Edge 34, Type (0, 1), BuildingBlock: OJICUG_clean_linker_0, # of connection points: 2
#     Edge 35, Type (0, 1), BuildingBlock: OJICUG_clean_linker_0, # of connection points: 2
#     Edge 36, Type (0, 1), BuildingBlock: OJICUG_clean_linker_0, # of connection points: 2
#     Edge 37, Type (0, 1), BuildingBlock: OJICUG_clean_linker_0, # of connection points: 2
#     Edge 38, Type (0, 1), BuildingBlock: OJICUG_clean_linker_0, # of connection points: 2
#     Edge 39, Type (0, 1), BuildingBlock: OJICUG_clean_linker_0, # of connection points: 2
#     Edge 40, Type (0, 1), BuildingBlock: OJICUG_clean_linker_0, # of connection points: 2
#     Edge 41, Type (0, 1), BuildingBlock: OJICUG_clean_linker_0, # of connection points: 2
#     Edge 42, Type (0, 1), BuildingBlock: OJICUG_clean_linker_0, # of connection points: 2
#     Edge 43, Type (0, 1), BuildingBlock: OJICUG_clean_linker_0, # of connection points: 2
#     Edge 44, Type (0, 1), BuildingBlock: OJICUG_clean_linker_0, # of connection points: 2
#     Edge 45, Type (0, 1), BuildingBlock: OJICUG_clean_linker_0, # of connection points: 2
#     Edge 46, Type (0, 1), BuildingBlock: OJICUG_clean_linker_0, # of connection points: 2
#     Edge 47, Type (0, 1), BuildingBlock: OJICUG_clean_linker_0, # of connection points: 2
#     Edge 48, Type (0, 1), BuildingBlock: OJICUG_clean_linker_0, # of connection points: 2
#     Edge 49, Type (0, 1), BuildingBlock: OJICUG_clean_linker_0, # of connection points: 2
#     Edge 50, Type (0, 1), BuildingBlock: OJICUG_clean_linker_0, # of connection points: 2
#     Edge 51, Type (0, 1), BuildingBlock: OJICUG_clean_linker_0, # of connection points: 2
#     Edge 52, Type (0, 1), BuildingBlock: OJICUG_clean_linker_0, # of connection points: 2
#     Edge 53, Type (0, 1), BuildingBlock: OJICUG_clean_linker_0, # of connection points: 2
#     Edge 54, Type (0, 1), BuildingBlock: OJICUG_clean_linker_0, # of connection points: 2
#     Edge 55, Type (0, 1), BuildingBlock: OJICUG_clean_linker_0, # of connection points: 2
#     Edge 56, Type (0, 1), BuildingBlock: OJICUG_clean_linker_0, # of connection points: 2
#     Edge 57, Type (0, 1), BuildingBlock: OJICUG_clean_linker_0, # of connection points: 2
#     Edge 58, Type (0, 1), BuildingBlock: OJICUG_clean_linker_0, # of connection points: 2
#     Edge 59, Type (0, 1), BuildingBlock: OJICUG_clean_linker_0, # of connection points: 2
#     Edge 60, Type (0, 1), BuildingBlock: OJICUG_clean_linker_0, # of connection points: 2
#     Edge 61, Type (0, 1), BuildingBlock: OJICUG_clean_linker_0, # of connection points: 2
#     Edge 62, Type (0, 1), BuildingBlock: OJICUG_clean_linker_0, # of connection points: 2
#     Edge 63, Type (0, 1), BuildingBlock: OJICUG_clean_linker_0, # of connection points: 2
#     Edge 64, Type (0, 1), BuildingBlock: OJICUG_clean_linker_0, # of connection points: 2
#     Edge 65, Type (0, 1), BuildingBlock: OJICUG_clean_linker_0, # of connection points: 2
#     Edge 66, Type (0, 1), BuildingBlock: OJICUG_clean_linker_0, # of connection points: 2
#     Edge 67, Type (0, 1), BuildingBlock: OJICUG_clean_linker_0, # of connection points: 2
#     Edge 68, Type (0, 1), BuildingBlock: OJICUG_clean_linker_0, # of connection points: 2
#     Edge 69, Type (0, 1), BuildingBlock: OJICUG_clean_linker_0, # of connection points: 2
#     Edge 70, Type (0, 1), BuildingBlock: OJICUG_clean_linker_0, # of connection points: 2
#     Edge 71, Type (0, 1), BuildingBlock: OJICUG_clean_linker_0, # of connection points: 2
#     Edge 72, Type (0, 1), BuildingBlock: OJICUG_clean_linker_0, # of connection points: 2
#     Edge 73, Type (0, 1), BuildingBlock: OJICUG_clean_linker_0, # of connection points: 2
#     Edge 74, Type (0, 1), BuildingBlock: OJICUG_clean_linker_0, # of connection points: 2
#     Edge 75, Type (0, 1), BuildingBlock: OJICUG_clean_linker_0, # of connection points: 2
#     Edge 76, Type (0, 1), BuildingBlock: OJICUG_clean_linker_0, # of connection points: 2
#     Edge 77, Type (0, 1), BuildingBlock: OJICUG_clean_linker_0, # of connection points: 2
#     Edge 78, Type (0, 1), BuildingBlock: OJICUG_clean_linker_0, # of connection points: 2
#     Edge 79, Type (0, 1), BuildingBlock: OJICUG_clean_linker_0, # of connection points: 2
#     Edge 80, Type (0, 1), BuildingBlock: OJICUG_clean_linker_0, # of connection points: 2
# Relax obj value: 0.109
# Max RMSD: 0.271
# Mean RMSD: 0.198
data_MOF--net-eea--node1-HISSIN_clean_sbu_0--node2-CUQRIR_clean_linker_1--edge1-OJICUG_clean_linker_0
_symmetry_space_group_name_H-M    P1
_symmetry_Int_Tables_number       1
_symmetry_cell_setting            triclinic
loop_
_symmetry_equiv_pos_as_xyz
'x, y, z'
_cell_length_a     34.267498
_cell_length_b     35.542448
_cell_length_c     50.59237
_cell_angle_alpha  86.454913
_cell_angle_beta   92.656293
_cell_angle_gamma 118.88684
loop_
_atom_site_label
_atom_site_type_symbol
_atom_site_fract_x
_atom_site_fract_y
_atom_site_fract_z
_atom_type_partial_charge
C0 C 0.20978 0.10422 0.40352 0.0
N1 N 0.22365 0.13693 0.42022 0.0
N2 N 0.21018 0.06961 0.4161 0.0
C3 C 0.19757 0.10673 0.37473 0.0
C4 C 0.22439 0.08235 0.44102 0.0
N5 N 0.23214 0.123 0.4436 0.0
C6 C 0.23187 0.05551 0.46274 0.0
H7 H 0.18002 0.12602 0.37182 0.0
H8 H 0.17625 0.07457 0.36683 0.0
H9 H 0.22851 0.12272 0.36306 0.0
H10 H 0.26731 0.06309 0.46283 0.0
H11 H 0.21051 0.02068 0.45962 0.0
H12 H 0.22485 0.06302 0.48236 0.0
C13 C 0.90994 0.12013 0.40923 0.0
N14 N 0.92971 0.15425 0.42503 0.0
N15 N 0.87275 0.08808 0.42045 0.0
C16 C 0.92914 0.11639 0.38393 0.0
C17 C 0.87069 0.1035 0.44383 0.0
N18 N 0.90548 0.14353 0.44685 0.0
C19 C 0.83381 0.07995 0.46341 0.0
H20 H 0.91774 0.13054 0.36716 0.0
H21 H 0.91794 0.08227 0.38002 0.0
H22 H 0.96611 0.13403 0.38483 0.0
H23 H 0.84363 0.06122 0.47796 0.0
H24 H 0.80232 0.0574 0.45334 0.0
H25 H 0.8278 0.10262 0.47444 0.0
C26 C 0.87948 0.74581 0.39805 0.0
N27 N 0.90274 0.73351 0.41563 0.0
N28 N 0.84483 0.74568 0.40988 0.0
C29 C 0.89224 0.76043 0.36963 0.0
C30 C 0.84759 0.73287 0.43527 0.0
N31 N 0.88299 0.72594 0.43889 0.0
C32 C 0.81688 0.72926 0.45683 0.0
H33 H 0.92466 0.79057 0.36908 0.0
H34 H 0.86672 0.7658 0.35837 0.0
H35 H 0.89629 0.73578 0.35953 0.0
H36 H 0.78569 0.69815 0.45547 0.0
H37 H 0.80803 0.75547 0.45428 0.0
H38 H 0.8319 0.73042 0.47684 0.0
C39 C 0.1252 0.26325 0.6658 0.0
N40 N 0.15808 0.27395 0.64832 0.0
N41 N 0.09627 0.27672 0.65647 0.0
C42 C 0.11945 0.23709 0.69136 0.0
C43 C 0.11324 0.29684 0.63285 0.0
N44 N 0.15123 0.29578 0.62802 0.0
C45 C 0.09014 0.31336 0.6132 0.0
H46 H 0.09636 0.2027 0.68783 0.0
H47 H 0.10478 0.24724 0.70664 0.0
H48 H 0.15177 0.24053 0.69911 0.0
H49 H 0.11358 0.34684 0.60646 0.0
H50 H 0.06066 0.31275 0.62185 0.0
H51 H 0.0795 0.29334 0.59558 0.0
C52 C 0.79632 0.89544 0.65532 0.0
N53 N 0.78153 0.86238 0.63885 0.0
N54 N 0.78926 0.92741 0.64437 0.0
C55 C 0.82199 0.89849 0.68083 0.0
C56 C 0.77007 0.91281 0.62048 0.0
N57 N 0.76588 0.87356 0.61695 0.0
C58 C 0.75322 0.93575 0.60104 0.0
H59 H 0.79827 0.88422 0.69737 0.0
H60 H 0.84569 0.93247 0.68499 0.0
H61 H 0.84091 0.88058 0.68004 0.0
H62 H 0.78004 0.95614 0.58696 0.0
H63 H 0.74346 0.95652 0.61133 0.0
H64 H 0.72413 0.91245 0.58946 0.0
C65 C 0.10919 0.9116 0.65343 0.0
N66 N 0.08988 0.87646 0.63837 0.0
N67 N 0.14886 0.94147 0.64333 0.0
C68 C 0.08888 0.91715 0.67768 0.0
C69 C 0.15332 0.92314 0.62184 0.0
N70 N 0.1178 0.88362 0.6189 0.0
C71 C 0.19203 0.94435 0.60332 0.0
H72 H 0.06586 0.92987 0.67143 0.0
H73 H 0.11435 0.94023 0.69118 0.0
H74 H 0.06962 0.88586 0.68869 0.0
H75 H 0.19938 0.9203 0.5951 0.0
H76 H 0.22237 0.96865 0.61351 0.0
H77 H 0.18329 0.9607 0.58655 0.0
C78 C 0.87738 0.43592 0.73957 0.0
N79 N 0.89459 0.47097 0.75458 0.0
N80 N 0.88986 0.40705 0.74954 0.0
C81 C 0.84837 0.42972 0.71517 0.0
C82 C 0.91575 0.42587 0.7709 0.0
N83 N 0.91912 0.46497 0.77378 0.0
C84 C 0.93717 0.40588 0.78929 0.0
H85 H 0.81314 0.41535 0.72118 0.0
H86 H 0.85072 0.40767 0.70158 0.0
H87 H 0.85778 0.46097 0.70437 0.0
H88 H 0.97369 0.42319 0.78629 0.0
H89 H 0.92462 0.37145 0.78573 0.0
H90 H 0.9313 0.40934 0.81018 0.0
C91 C 0.57606 0.4562 0.74102 0.0
N92 N 0.59728 0.48913 0.75768 0.0
N93 N 0.54151 0.4222 0.75319 0.0
C94 C 0.58857 0.45772 0.71263 0.0
C95 C 0.5427 0.43527 0.7779 0.0
N96 N 0.57675 0.47567 0.78087 0.0
C97 C 0.50965 0.4089 0.79906 0.0
H98 H 0.57714 0.47762 0.70037 0.0
H99 H 0.5731 0.42557 0.70424 0.0
H100 H 0.62531 0.47272 0.71102 0.0
H101 H 0.49358 0.37405 0.79542 0.0
H102 H 0.4835 0.41879 0.79912 0.0
H103 H 0.5261 0.41447 0.8189 0.0
C104 C 0.5451 0.09462 0.73466 0.0
N105 N 0.57122 0.08438 0.75113 0.0
N106 N 0.50543 0.08235 0.74579 0.0
C107 C 0.55915 0.11883 0.70825 0.0
C108 C 0.50795 0.06375 0.76945 0.0
N109 N 0.54766 0.06433 0.77262 0.0
C110 C 0.47295 0.048 0.79035 0.0
H111 H 0.57356 0.15376 0.71119 0.0
H112 H 0.53039 0.10919 0.69431 0.0
H113 H 0.58445 0.11307 0.69906 0.0
H114 H 0.46728 0.01648 0.79922 0.0
H115 H 0.44094 0.04467 0.78208 0.0
H116 H 0.48489 0.07119 0.80639 0.0
C117 C 0.79141 0.60321 0.9963 0.0
N118 N 0.82376 0.61146 0.9789 0.0
N119 N 0.75994 0.61176 0.98491 0.0
C120 C 0.78808 0.58268 0.02367 0.0
C121 C 0.77462 0.62613 0.96002 0.0
N122 N 0.81347 0.62616 0.95635 0.0
C123 C 0.74957 0.6378 0.93884 0.0
H124 H 0.76385 0.54785 0.02314 0.0
H125 H 0.77582 0.59707 0.03777 0.0
H126 H 0.82081 0.58676 0.03109 0.0
H127 H 0.7259 0.64619 0.94771 0.0
H128 H 0.73047 0.60991 0.92622 0.0
H129 H 0.77314 0.66523 0.92604 0.0
C130 C 0.46136 0.22755 0.99271 0.0
N131 N 0.44826 0.19634 0.97497 0.0
N132 N 0.4592 0.26211 0.98162 0.0
C133 C 0.47516 0.22381 1.02106 0.0
C134 C 0.44481 0.2511 0.95649 0.0
N135 N 0.4387 0.21138 0.95227 0.0
C136 C 0.43541 0.27867 0.93623 0.0
H137 H 0.44486 0.20465 0.03299 0.0
H138 H 0.49448 0.25551 0.02992 0.0
H139 H 0.49544 0.20707 0.0224 0.0
H140 H 0.45477 0.31319 0.94074 0.0
H141 H 0.39935 0.26881 0.93639 0.0
H142 H 0.44353 0.27426 0.91608 0.0
C143 C 0.77662 0.24795 0.9863 0.0
N144 N 0.75673 0.21262 0.97141 0.0
N145 N 0.81587 0.27774 0.97568 0.0
C146 C 0.75724 0.25372 1.01089 0.0
C147 C 0.81947 0.25917 0.95404 0.0
N148 N 0.78385 0.21957 0.95152 0.0
C149 C 0.85742 0.28019 0.935 0.0
H150 H 0.73389 0.26622 1.00503 0.0
H151 H 0.78316 0.27704 0.02407 0.0
H152 H 0.73852 0.22255 1.02211 0.0
H153 H 0.86442 0.25606 0.92657 0.0
H154 H 0.88815 0.30462 0.94481 0.0
H155 H 0.84805 0.29637 0.91842 0.0
C156 C 0.54759 0.7721 0.06995 0.0
N157 N 0.56547 0.80655 0.08551 0.0
N158 N 0.56016 0.74282 0.07887 0.0
C159 C 0.51737 0.76664 0.04624 0.0
C160 C 0.58676 0.76077 0.10016 0.0
N161 N 0.59048 0.79974 0.10401 0.0
C162 C 0.60765 0.73959 0.11796 0.0
H163 H 0.48242 0.75155 0.05291 0.0
H164 H 0.5194 0.74546 0.03183 0.0
H165 H 0.52596 0.7982 0.03612 0.0
H166 H 0.64436 0.76025 0.11842 0.0
H167 H 0.59994 0.70758 0.11127 0.0
H168 H 0.59581 0.73624 0.13847 0.0
C169 C 0.24173 0.79224 0.07436 0.0
N170 N 0.26377 0.82521 0.09091 0.0
N171 N 0.20668 0.75886 0.08661 0.0
C172 C 0.25397 0.79315 0.04598 0.0
C173 C 0.20841 0.77233 0.11127 0.0
N174 N 0.2432 0.81238 0.11412 0.0
C175 C 0.17534 0.74661 0.13255 0.0
H176 H 0.24361 0.81385 0.03368 0.0
H177 H 0.2374 0.76098 0.03758 0.0
H178 H 0.2906 0.80698 0.0444 0.0
H179 H 0.15902 0.71166 0.12921 0.0
H180 H 0.14937 0.75676 0.13239 0.0
H181 H 0.1918 0.75249 0.15239 0.0
C182 C 0.21231 0.43302 0.06936 0.0
N183 N 0.2353 0.41752 0.08469 0.0
N184 N 0.1747 0.4254 0.08143 0.0
C185 C 0.22937 0.46062 0.04426 0.0
C186 C 0.17574 0.40537 0.10481 0.0
N187 N 0.21268 0.40069 0.10695 0.0
C188 C 0.14131 0.39145 0.12595 0.0
H189 H 0.21635 0.48376 0.04146 0.0
H190 H 0.21817 0.43962 0.0271 0.0
H191 H 0.26632 0.47904 0.0445 0.0
H192 H 0.13543 0.36048 0.13584 0.0
H193 H 0.10926 0.38788 0.11758 0.0
H194 H 0.15381 0.41601 0.14119 0.0
C195 C 0.46278 0.92177 0.32839 0.0
N196 N 0.49714 0.93671 0.31147 0.0
N197 N 0.42942 0.92813 0.31767 0.0
C198 C 0.45918 0.8955 0.35367 0.0
C199 C 0.44448 0.94691 0.29348 0.0
N200 N 0.48541 0.95167 0.28956 0.0
C201 C 0.41959 0.96123 0.27371 0.0
H202 H 0.42404 0.87151 0.35779 0.0
H203 H 0.47259 0.91736 0.37039 0.0
H204 H 0.47855 0.87808 0.35271 0.0
H205 H 0.39531 0.96755 0.28368 0.0
H206 H 0.40135 0.93563 0.25942 0.0
H207 H 0.44319 0.99075 0.26238 0.0
C208 C 0.1211 0.55787 0.32515 0.0
N209 N 0.10612 0.52513 0.30838 0.0
N210 N 0.11672 0.59116 0.31388 0.0
C211 C 0.1442 0.55922 0.35143 0.0
C212 C 0.09898 0.57786 0.28958 0.0
N213 N 0.09292 0.53794 0.28608 0.0
C214 C 0.08666 0.60352 0.26941 0.0
H215 H 0.11879 0.54412 0.36706 0.0
H216 H 0.16756 0.59279 0.35663 0.0
H217 H 0.16306 0.54119 0.35111 0.0
H218 H 0.11506 0.62195 0.25593 0.0
H219 H 0.07927 0.62647 0.2791 0.0
H220 H 0.05729 0.58215 0.25725 0.0
C221 C 0.44564 0.5779 0.32079 0.0
N222 N 0.42307 0.54298 0.30581 0.0
N223 N 0.4824 0.60845 0.30821 0.0
C224 C 0.43441 0.58037 0.34884 0.0
C225 C 0.48161 0.59075 0.28511 0.0
N226 N 0.44591 0.55099 0.2837 0.0
C227 C 0.5148 0.61281 0.26334 0.0
H228 H 0.41283 0.59567 0.34868 0.0
H229 H 0.46507 0.60008 0.3606 0.0
H230 H 0.41633 0.54782 0.35859 0.0
H231 H 0.542 0.60439 0.26621 0.0
H232 H 0.5294 0.64826 0.26358 0.0
H233 H 0.49897 0.602 0.24365 0.0
Eu234 Eu 0.50378 0.98394 1.00294 0.0
Eu235 Eu 0.53069 0.03287 0.05936 0.0
C236 C 0.48674 0.06296 1.0102 0.0
C237 C 0.50889 0.96981 0.92966 0.0
C238 C 0.51357 0.00988 0.92047 0.0
C239 C 0.53865 0.96464 0.88799 0.0
C240 C 0.52977 0.02674 0.89512 0.0
C241 C 0.52209 0.94763 0.91332 0.0
C242 C 0.54225 1.00424 0.87836 0.0
C243 C 0.4914 0.95143 0.95637 0.0
O244 O 0.46822 0.97076 0.06809 0.0
O245 O 0.43872 0.95746 0.02576 0.0
C246 C 0.43407 0.95167 0.05179 0.0
O247 O 0.50673 0.93695 0.03356 0.0
O248 O 0.51479 0.05569 0.09428 0.0
O249 O 0.5819 0.06643 0.08939 0.0
O250 O 0.55934 0.98705 0.06025 0.0
C251 C 0.5372 0.94745 0.05242 0.0
O252 O 0.57821 0.03057 1.00324 0.0
O253 O 0.57729 0.08051 0.02899 0.0
O254 O 0.48742 0.0562 0.03611 0.0
O255 O 0.52035 0.95096 0.9739 0.0
O256 O 0.46444 0.96293 0.96636 0.0
O257 O 0.50153 0.04539 0.99415 0.0
C258 C 0.55404 0.0517 0.13281 0.0
C259 C 0.5489 0.01032 0.13807 0.0
C260 C 0.55337 0.05989 0.1801 0.0
C261 C 0.54551 0.99365 0.16418 0.0
C262 C 0.55689 0.07657 0.15398 0.0
C263 C 0.54688 0.01791 0.18554 0.0
C264 C 0.554 0.06814 0.10536 0.0
C265 C 0.5958 0.07039 1.01056 0.0
H266 H 0.50419 0.02803 0.93276 0.0
H267 H 0.54842 0.94657 0.87593 0.0
H268 H 0.53114 0.05687 0.88843 0.0
H269 H 0.5194 0.91697 0.92011 0.0
H270 H 0.54655 0.99057 0.12195 0.0
H271 H 0.55382 0.07927 0.19592 0.0
H272 H 0.54101 0.96142 0.16759 0.0
H273 H 0.56063 0.10849 0.15029 0.0
Eu274 Eu 0.0263 0.53609 0.99851 0.0
Eu275 Eu 0.98217 0.51147 0.05826 0.0
C276 C 0.94075 0.44584 1.01095 0.0
C277 C 0.03614 0.55013 0.92371 0.0
C278 C 0.99094 0.52065 0.91967 0.0
C279 C 0.04305 0.56847 0.8765 0.0
C280 C 0.97216 0.51438 0.89412 0.0
C281 C 0.06186 0.57454 0.90207 0.0
C282 C 0.99816 0.53769 0.87213 0.0
C283 C 0.05677 0.5548 0.95031 0.0
O284 O 0.04715 0.51093 0.06195 0.0
O285 O 0.04954 0.49275 1.01972 0.0
C286 C 0.06103 0.49403 0.04488 0.0
O287 O 0.07884 0.58315 0.02582 0.0
O288 O 0.95531 0.46384 0.09116 0.0
O289 O 0.9609 0.52665 0.09441 0.0
O290 O 0.03094 0.58269 0.05622 0.0
C291 C 0.07024 0.60098 0.04514 0.0
O292 O 0.98627 0.57013 1.00205 0.0
O293 O 0.93408 0.52291 0.0314 0.0
O294 O 0.95297 0.45017 0.03606 0.0
O295 O 0.05433 0.58242 0.965 0.0
O296 O 0.04815 0.51905 0.96357 0.0
O297 O 0.9579 0.47878 0.9938 0.0
C298 C 0.97423 0.49284 0.13342 0.0
C299 C 0.01579 0.52769 0.13985 0.0
C300 C 0.9734 0.45953 0.17715 0.0
C301 C 0.03572 0.52869 0.1648 0.0
C302 C 0.95337 0.45872 0.15223 0.0
C303 C 0.01485 0.49462 0.18387 0.0
C304 C 0.95326 0.49049 0.10687 0.0
C305 C 0.94665 0.55311 1.01234 0.0
H306 H 0.97043 0.50166 0.93619 0.0
H307 H 0.06388 0.58741 0.8601 0.0
H308 H 0.93773 0.48996 0.89157 0.0
H309 H 0.09671 0.59776 0.90489 0.0
H310 H 0.03289 0.55425 0.12561 0.0
H311 H 0.95648 0.43247 0.19106 0.0
H312 H 0.06716 0.55669 0.16927 0.0
H313 H 0.92157 0.43121 0.14757 0.0
Eu314 Eu 0.50822 0.48774 0.06657 0.0
Eu315 Eu 0.48283 0.50222 1.00295 0.0
C316 C 0.5052 0.57256 0.04654 0.0
C317 C 0.50233 0.47948 0.1415 0.0
C318 C 0.48768 0.50994 0.14332 0.0
C319 C 0.47899 0.45422 0.18685 0.0
C320 C 0.46985 0.51319 0.16689 0.0
C321 C 0.49716 0.45122 0.16331 0.0
C322 C 0.46576 0.48576 0.18917 0.0
C323 C 0.52254 0.47669 0.11695 0.0
O324 O 0.54946 0.50481 1.00507 0.0
O325 O 0.57259 0.53206 0.04606 0.0
C326 C 0.58135 0.52769 1.02181 0.0
O327 O 0.51116 0.43705 0.04315 0.0
O328 O 0.49637 0.54597 0.9679 0.0
O329 O 0.4521 0.47804 0.96438 0.0
O330 O 0.45835 0.43193 1.01198 0.0
C331 C 0.48141 0.4158 0.02478 0.0
O332 O 0.43391 0.45535 0.06344 0.0
O333 O 0.42043 0.48686 0.02509 0.0
O334 O 0.51216 0.56613 0.02231 0.0
O335 O 0.49702 0.44514 0.10186 0.0
O336 O 0.5457 0.51267 0.10325 0.0
O337 O 0.49157 0.54163 0.06501 0.0
C338 C 0.49789 0.5164 0.92723 0.0
C339 C 0.51202 0.48604 0.92333 0.0
C340 C 0.52676 0.54965 0.88369 0.0
C341 C 0.53264 0.48708 0.89971 0.0
C342 C 0.50598 0.54846 0.90726 0.0
C343 C 0.54 0.51866 0.87932 0.0
C344 C 0.47451 0.51512 0.95169 0.0
C345 C 0.40762 0.4643 0.04781 0.0
H346 H 0.49074 0.53181 0.12666 0.0
H347 H 0.47576 0.43205 0.20334 0.0
H348 H 0.46079 0.53833 0.16786 0.0
H349 H 0.50761 0.42705 0.16222 0.0
H350 H 0.50658 0.46106 0.9384 0.0
H351 H 0.53229 0.57489 0.86882 0.0
H352 H 0.54153 0.46217 0.89716 0.0
H353 H 0.49582 0.57251 0.9098 0.0
Eu354 Eu 0.16786 0.31669 0.33661 0.0
Eu355 Eu 0.19302 0.36503 0.39381 0.0
C356 C 0.14943 0.39476 0.34427 0.0
C357 C 0.17099 0.30168 0.26309 0.0
C358 C 0.17743 0.34247 0.25425 0.0
C359 C 0.19779 0.29481 0.2208 0.0
C360 C 0.19317 0.35896 0.2288 0.0
C361 C 0.18168 0.27819 0.24625 0.0
C362 C 0.20347 0.33535 0.2116 0.0
C363 C 0.15445 0.28395 0.29 0.0
O364 O 0.13277 0.30113 0.402 0.0
O365 O 0.10311 0.28861 0.35976 0.0
C366 C 0.09866 0.28203 0.38575 0.0
O367 O 0.17654 0.27128 0.36588 0.0
O368 O 0.17488 0.38763 0.42786 0.0
O369 O 0.2421 0.39738 0.42528 0.0
O370 O 0.22294 0.32049 0.39568 0.0
C371 C 0.20561 0.2825 0.38555 0.0
O372 O 0.24185 0.36411 0.33675 0.0
O373 O 0.24155 0.41279 0.36416 0.0
O374 O 0.14906 0.38703 0.37012 0.0
O375 O 0.18406 0.28406 0.30718 0.0
O376 O 0.12787 0.29568 0.30023 0.0
O377 O 0.16568 0.37838 0.32829 0.0
C378 C 0.21065 0.38166 0.46791 0.0
C379 C 0.17628 0.34086 0.47588 0.0
C380 C 0.2404 0.39128 0.51309 0.0
C381 C 0.17341 0.32583 0.50235 0.0
C382 C 0.24304 0.40641 0.48664 0.0
C383 C 0.20509 0.35108 0.52146 0.0
C384 C 0.21289 0.39876 0.44028 0.0
C385 C 0.25996 0.40325 0.3453 0.0
H386 H 0.16991 0.36153 0.26692 0.0
H387 H 0.20575 0.27583 0.20836 0.0
H388 H 0.19608 0.38983 0.22241 0.0
H389 H 0.17752 0.24687 0.25279 0.0
H390 H 0.15107 0.32089 0.46175 0.0
H391 H 0.26585 0.41136 0.52705 0.0
H392 H 0.14538 0.29504 0.50795 0.0
H393 H 0.27015 0.43774 0.48086 0.0
Eu394 Eu 0.70203 0.86444 0.32954 0.0
Eu395 Eu 0.65761 0.83924 0.38929 0.0
C396 C 0.61371 0.77435 0.34284 0.0
C397 C 0.71128 0.87801 0.25472 0.0
C398 C 0.66708 0.8458 0.25086 0.0
C399 C 0.71546 0.89808 0.20772 0.0
C400 C 0.6474 0.83932 0.22553 0.0
C401 C 0.73516 0.90439 0.23307 0.0
C402 C 0.67144 0.86516 0.20356 0.0
C403 C 0.7322 0.88508 0.28131 0.0
O404 O 0.69578 0.80341 0.3848 0.0
O405 O 0.74848 0.84988 0.35542 0.0
C406 C 0.73456 0.81838 0.37357 0.0
O407 O 0.7339 0.92471 0.3529 0.0
O408 O 0.62463 0.79222 0.42174 0.0
O409 O 0.64323 0.85898 0.42612 0.0
O410 O 0.72778 0.8927 0.39417 0.0
C411 C 0.74616 0.92668 0.37799 0.0
O412 O 0.63718 0.86496 0.32558 0.0
O413 O 0.63501 0.88347 0.36777 0.0
O414 O 0.60494 0.79202 0.36219 0.0
O415 O 0.72518 0.91038 0.29566 0.0
O416 O 0.72834 0.85105 0.29494 0.0
O417 O 0.65256 0.79336 0.33117 0.0
C418 C 0.64818 0.81979 0.46443 0.0
C419 C 0.68932 0.82012 0.46724 0.0
C420 C 0.64545 0.82056 0.51237 0.0
C421 C 0.70853 0.82097 0.49245 0.0
C422 C 0.62626 0.8196 0.48718 0.0
C423 C 0.68712 0.82172 0.5154 0.0
C424 C 0.62856 0.82106 0.43796 0.0
C425 C 0.62396 0.88267 0.34245 0.0
H426 H 0.64793 0.82536 0.26742 0.0
H427 H 0.73477 0.91893 0.19138 0.0
H428 H 0.61374 0.81325 0.22309 0.0
H429 H 0.76912 0.92981 0.23576 0.0
H430 H 0.70685 0.8203 0.44991 0.0
H431 H 0.62828 0.82198 0.52939 0.0
H432 H 0.74039 0.82145 0.49392 0.0
H433 H 0.5946 0.81956 0.48544 0.0
Eu434 Eu 0.17753 0.8196 0.39954 0.0
Eu435 Eu 0.15402 0.8381 0.3363 0.0
C436 C 0.17977 0.90847 0.37952 0.0
C437 C 0.16923 0.80937 0.47487 0.0
C438 C 0.16229 0.84482 0.47733 0.0
C439 C 0.14311 0.78477 0.51986 0.0
C440 C 0.14658 0.85057 0.50101 0.0
C441 C 0.15908 0.77921 0.49621 0.0
C442 C 0.13701 0.82076 0.52272 0.0
C443 C 0.18555 0.80263 0.45 0.0
O444 O 0.22841 0.87185 0.3416 0.0
O445 O 0.23969 0.83516 0.37793 0.0
C446 C 0.25389 0.86088 0.35665 0.0
O447 O 0.14973 0.75742 0.37822 0.0
O448 O 0.165 0.88224 0.30174 0.0
O449 O 0.12097 0.81401 0.29825 0.0
O450 O 0.17358 0.78648 0.33675 0.0
C451 C 0.15933 0.75388 0.35398 0.0
O452 O 0.11321 0.82109 0.39815 0.0
O453 O 0.08854 0.79461 0.35714 0.0
O454 O 0.1522 0.88926 0.35975 0.0
O455 O 0.15512 0.77536 0.43432 0.0
O456 O 0.21512 0.83677 0.437 0.0
O457 O 0.19992 0.89038 0.39368 0.0
C458 C 0.16569 0.85279 0.26084 0.0
C459 C 0.18038 0.82287 0.25682 0.0
C460 C 0.19382 0.88614 0.21719 0.0
C461 C 0.20084 0.82413 0.23309 0.0
C462 C 0.17312 0.88469 0.24087 0.0
C463 C 0.2076 0.85557 0.21271 0.0
C464 C 0.1428 0.8513 0.28557 0.0
C465 C 0.08059 0.79895 0.38171 0.0
H466 H 0.16938 0.8683 0.46102 0.0
H467 H 0.13557 0.76082 0.5359 0.0
H468 H 0.14309 0.87905 0.50248 0.0
H469 H 0.16357 0.75129 0.4946 0.0
H470 H 0.17552 0.79805 0.27189 0.0
H471 H 0.19887 0.91128 0.20235 0.0
H472 H 0.21013 0.79951 0.23048 0.0
H473 H 0.1626 0.90845 0.24352 0.0
Eu474 Eu 0.8348 0.64846 0.66912 0.0
Eu475 Eu 0.86297 0.69829 0.7252 0.0
C476 C 0.81954 0.72879 0.67576 0.0
C477 C 0.83788 0.63034 0.59629 0.0
C478 C 0.84844 0.67241 0.58757 0.0
C479 C 0.86101 0.62002 0.55373 0.0
C480 C 0.86432 0.68786 0.562 0.0
C481 C 0.84479 0.60449 0.57928 0.0
C482 C 0.87055 0.66181 0.54458 0.0
C483 C 0.82079 0.61363 0.62321 0.0
O484 O 0.80035 0.63662 0.73432 0.0
O485 O 0.77018 0.6231 0.69219 0.0
C486 C 0.76594 0.61755 0.71823 0.0
O487 O 0.83753 0.60183 0.70009 0.0
O488 O 0.84759 0.72258 0.7596 0.0
O489 O 0.91392 0.73074 0.75559 0.0
O490 O 0.89109 0.65207 0.72622 0.0
C491 C 0.86833 0.61232 0.71873 0.0
O492 O 0.90935 0.69488 0.66869 0.0
O493 O 0.90986 0.74526 0.69475 0.0
O494 O 0.82067 0.72251 0.7017 0.0
O495 O 0.84988 0.6135 0.64074 0.0
O496 O 0.79488 0.62673 0.6328 0.0
O497 O 0.83303 0.71006 0.65971 0.0
C498 C 0.88485 0.71722 0.79867 0.0
C499 C 0.87615 0.67471 0.8043 0.0
C500 C 0.88511 0.72692 0.84579 0.0
C501 C 0.87153 0.65828 0.83054 0.0
C502 C 0.88983 0.74331 0.81958 0.0
C503 C 0.87529 0.68398 0.85164 0.0
C504 C 0.88626 0.73376 0.77112 0.0
C505 C 0.92765 0.73471 0.67612 0.0
H506 H 0.84392 0.69323 0.60042 0.0
H507 H 0.86588 0.59917 0.54112 0.0
H508 H 0.8704 0.71987 0.55569 0.0
H509 H 0.83747 0.57214 0.58574 0.0
H510 H 0.87207 0.654 0.78837 0.0
H511 H 0.88739 0.74747 0.86138 0.0
H512 H 0.8644 0.62525 0.83426 0.0
H513 H 0.89624 0.77609 0.8156 0.0
Eu514 Eu 0.36078 0.19853 0.66541 0.0
Eu515 Eu 0.31825 0.17533 0.72552 0.0
C516 C 0.27429 0.10917 0.67866 0.0
C517 C 0.36522 0.20746 0.59077 0.0
C518 C 0.32183 0.17308 0.58806 0.0
C519 C 0.3637 0.22695 0.54397 0.0
C520 C 0.29986 0.1652 0.56345 0.0
C521 C 0.38583 0.23462 0.56865 0.0
C522 C 0.32055 0.19185 0.54099 0.0
C523 C 0.38865 0.21525 0.61666 0.0
O524 O 0.38273 0.1736 0.72838 0.0
O525 O 0.38223 0.15357 0.68627 0.0
C526 C 0.39462 0.15507 0.71126 0.0
O527 O 0.41435 0.24599 0.69213 0.0
O528 O 0.29285 0.12904 0.75918 0.0
O529 O 0.29813 0.19187 0.76159 0.0
O530 O 0.36705 0.24636 0.72263 0.0
C531 C 0.40614 0.26429 0.71137 0.0
O532 O 0.32178 0.23355 0.6693 0.0
O533 O 0.26988 0.18685 0.69893 0.0
O534 O 0.28674 0.11358 0.70374 0.0
O535 O 0.38587 0.24318 0.63087 0.0
O536 O 0.38308 0.18111 0.63079 0.0
O537 O 0.29179 0.14186 0.66136 0.0
C538 C 0.31297 0.15992 0.80086 0.0
C539 C 0.35638 0.19308 0.80577 0.0
C540 C 0.31169 0.1308 0.8459 0.0
C541 C 0.37705 0.19538 0.83063 0.0
C542 C 0.29097 0.12868 0.82107 0.0
C543 C 0.35499 0.16432 0.85113 0.0
C544 C 0.29105 0.15623 0.77453 0.0
C545 C 0.28234 0.21686 0.67976 0.0
H546 H 0.3051 0.15187 0.60494 0.0
H547 H 0.38046 0.24845 0.52723 0.0
H548 H 0.26708 0.13742 0.56194 0.0
H549 H 0.41912 0.26162 0.57043 0.0
H550 H 0.37429 0.21731 0.79039 0.0
H551 H 0.29379 0.10597 0.86095 0.0
H552 H 0.41003 0.22212 0.83391 0.0
H553 H 0.25772 0.10245 0.8176 0.0
Eu554 Eu 0.83724 0.15034 0.73167 0.0
Eu555 Eu 0.81923 0.17432 0.66835 0.0
C556 C 0.84128 0.23946 0.71462 0.0
C557 C 0.82811 0.14075 0.80701 0.0
C558 C 0.82048 0.17583 0.80934 0.0
C559 C 0.80374 0.11717 0.85239 0.0
C560 C 0.80546 0.18199 0.83314 0.0
C561 C 0.81902 0.11118 0.8286 0.0
C562 C 0.79734 0.15302 0.85516 0.0
C563 C 0.8457 0.13478 0.78234 0.0
O564 O 0.88478 0.17504 0.67049 0.0
O565 O 0.90462 0.19314 0.71361 0.0
C566 C 0.91521 0.19264 0.68904 0.0
O567 O 0.84206 0.10095 0.70811 0.0
O568 O 0.84167 0.22165 0.63501 0.0
O569 O 0.78437 0.15907 0.62983 0.0
O570 O 0.8028 0.10492 0.67048 0.0
C571 C 0.82062 0.08565 0.68569 0.0
O572 O 0.76428 0.11329 0.72207 0.0
O573 O 0.75842 0.16091 0.69175 0.0
O574 O 0.85122 0.23545 0.69058 0.0
O575 O 0.81685 0.10614 0.76667 0.0
O576 O 0.87378 0.16958 0.76925 0.0
O577 O 0.82341 0.2062 0.73145 0.0
C578 C 0.8329 0.19236 0.59299 0.0
C579 C 0.84045 0.15779 0.58853 0.0
C580 C 0.8648 0.22458 0.54983 0.0
C581 C 0.85951 0.1564 0.56485 0.0
C582 C 0.84554 0.22581 0.57346 0.0
C583 C 0.87197 0.18976 0.54503 0.0
C584 C 0.81357 0.19501 0.61811 0.0
C585 C 0.7413 0.13045 0.71065 0.0
H586 H 0.82688 0.19896 0.79289 0.0
H587 H 0.79726 0.09382 0.86869 0.0
H588 H 0.80169 0.21035 0.8345 0.0
H589 H 0.8242 0.08363 0.82715 0.0
H590 H 0.83146 0.1317 0.60331 0.0
H591 H 0.87433 0.25118 0.5354 0.0
H592 H 0.86356 0.12859 0.56191 0.0
H593 H 0.84062 0.25312 0.57653 0.0
C594 C 0.34463 0.87101 0.09854 0.0
C595 C 0.30523 0.86376 0.08486 0.0
H596 H 0.4162 0.90422 0.09873 0.0
C597 C 0.30856 0.88863 0.06143 0.0
H598 H 0.3431 0.85189 0.11637 0.0
C599 C 0.35022 0.91708 0.0506 0.0
C600 C 0.38966 0.92254 0.06349 0.0
H601 H 0.27867 0.88405 0.05065 0.0
H602 H 0.35152 0.93443 0.032 0.0
C603 C 0.38641 0.9004 0.08812 0.0
C604 C 0.13748 0.46789 0.0887 0.0
C605 C 0.14443 0.44086 0.0728 0.0
H606 H 0.10551 0.50605 0.09227 0.0
C607 C 0.12386 0.43118 0.04772 0.0
H608 H 0.15392 0.47631 0.10789 0.0
C609 C 0.09689 0.44872 0.03847 0.0
C610 C 0.08989 0.47588 0.05435 0.0
H611 H 0.12913 0.41038 0.03528 0.0
H612 H 0.0814 0.44083 1.01899 0.0
C613 C 0.11016 0.48507 0.07963 0.0
C614 C 0.51707 0.66441 0.08631 0.0
C615 C 0.54424 0.70017 0.06998 0.0
H616 H 0.48314 0.59583 0.09168 0.0
C617 C 0.55675 0.69394 0.04534 0.0
H618 H 0.50712 0.66887 0.10537 0.0
C619 C 0.54273 0.65235 0.03724 0.0
C620 C 0.51645 0.61635 0.05388 0.0
H621 H 0.57801 0.72135 0.03265 0.0
H622 H 0.55362 0.64848 1.01832 0.0
C623 C 0.50342 0.62283 0.07841 0.0
C624 C 0.85613 0.35675 0.9684 0.0
C625 C 0.84638 0.31997 0.9847 0.0
H626 H 0.89369 0.42553 0.96382 0.0
C627 C 0.86795 0.32472 1.00946 0.0
H628 H 0.83998 0.35364 0.94914 0.0
C629 C 0.89808 0.36563 1.01809 0.0
C630 C 0.90798 0.40264 1.00185 0.0
H631 H 0.86164 0.29665 1.02203 0.0
H632 H 0.91415 0.36813 0.03734 0.0
C633 C 0.8868 0.39773 0.97683 0.0
C634 C 0.70468 0.60567 1.01671 0.0
C635 C 0.71481 0.59301 0.99344 0.0
H636 H 0.65418 0.59429 0.04435 0.0
C637 C 0.68116 0.55897 0.97966 0.0
H638 H 0.73046 0.63197 0.02749 0.0
C639 C 0.63786 0.53765 0.98903 0.0
C640 C 0.62758 0.54969 1.01258 0.0
H641 H 0.68873 0.5483 0.96195 0.0
H642 H 0.61258 0.51137 0.97797 0.0
C643 C 0.66133 0.58397 0.02634 0.0
C644 C 0.47831 0.14838 0.96558 0.0
C645 C 0.44895 0.15631 0.97963 0.0
H646 H 0.51346 0.11242 0.96437 0.0
C647 C 0.42789 0.12975 1.00197 0.0
H648 H 0.49533 0.16885 0.94854 0.0
C649 C 0.43949 0.09875 1.01173 0.0
C650 C 0.47125 0.09281 0.99874 0.0
H651 H 0.40468 0.13507 1.01288 0.0
H652 H 0.42445 0.0802 0.02977 0.0
C653 C 0.4891 0.11658 0.97493 0.0
C654 C 0.71065 0.13393 0.98019 0.0
C655 C 0.71414 0.17495 0.97639 0.0
H656 H 0.66991 0.06804 0.99387 0.0
C657 C 0.6768 0.1798 0.98118 0.0
H658 H 0.73905 0.12944 0.97678 0.0
C659 C 0.63824 0.14549 0.99183 0.0
C660 C 0.63549 0.10505 0.99708 0.0
H661 H 0.67829 0.21082 0.9778 0.0
H662 H 0.61071 0.15079 0.99634 0.0
C663 C 0.67135 0.09903 0.99019 0.0
C664 C 0.90123 0.62538 0.98397 0.0
C665 C 0.85562 0.59622 0.9823 0.0
H666 H 0.96627 0.63428 0.99494 0.0
C667 C 0.84056 0.55239 0.98866 0.0
H668 H 0.91325 0.65932 0.9795 0.0
C669 C 0.87016 0.53836 0.99862 0.0
C670 C 0.91556 0.56777 1.00145 0.0
H671 H 0.80535 0.52949 0.98734 0.0
H672 H 0.85755 0.50462 1.00426 0.0
C673 C 0.93119 0.61112 0.99317 0.0
C674 C 0.42814 0.3069 0.99547 0.0
C675 C 0.46442 0.2992 0.99444 0.0
H676 H 0.40518 0.35003 1.00616 0.0
C677 C 0.5059 0.32869 1.0051 0.0
H678 H 0.39591 0.28428 0.98743 0.0
C679 C 0.51111 0.36581 1.01644 0.0
C680 C 0.47509 0.37422 1.01659 0.0
H681 H 0.53435 0.32339 1.00408 0.0
H682 H 0.54366 0.38878 0.02393 0.0
C683 C 0.43348 0.34426 1.00625 0.0
C684 C 0.18384 0.69038 0.06519 0.0
C685 C 0.17274 0.71968 0.07553 0.0
H686 H 0.16004 0.63012 0.0468 0.0
C687 C 0.12783 0.70975 0.07574 0.0
H688 H 0.21819 0.69702 0.06542 0.0
C689 C 0.09451 0.6711 0.06592 0.0
C690 C 0.10562 0.64208 0.05514 0.0
H691 H 0.11863 0.73194 0.08364 0.0
H692 H 0.06009 0.66412 0.0665 0.0
C693 C 0.15063 0.65221 0.05467 0.0
C694 C 0.3156 0.44557 0.09355 0.0
C695 C 0.27754 0.4216 0.078 0.0
H696 H 0.38701 0.47808 0.09581 0.0
C697 C 0.28252 0.40977 0.05283 0.0
H698 H 0.31281 0.45611 0.11261 0.0
C699 C 0.32484 0.42443 0.04253 0.0
C700 C 0.36277 0.44975 0.05772 0.0
H701 H 0.25343 0.39131 0.04052 0.0
H702 H 0.32792 0.41602 0.0228 0.0
C703 C 0.35792 0.45899 0.08363 0.0
C704 C 0.5953 0.88518 0.07931 0.0
C705 C 0.55882 0.84364 0.0824 0.0
H706 H 0.61705 0.95147 0.0675 0.0
C707 C 0.51549 0.83803 0.07907 0.0
H708 H 0.62899 0.89014 0.08181 0.0
C709 C 0.5087 0.87236 0.07016 0.0
C710 C 0.54513 0.91334 0.06528 0.0
H711 H 0.4869 0.80649 0.08207 0.0
H712 H 0.47491 0.86663 0.06642 0.0
C713 C 0.58848 0.92002 0.071 0.0
C714 C 0.00946 0.20398 0.43358 0.0
C715 C 0.97023 0.19344 0.41875 0.0
H716 H 0.08092 0.24006 0.43469 0.0
C717 C 0.97333 0.21511 0.39403 0.0
H718 H 0.00806 0.18716 0.45239 0.0
C719 C 0.01485 0.24394 0.38332 0.0
C720 C 0.05434 0.25272 0.39743 0.0
H721 H 0.94346 0.2073 0.38219 0.0
H722 H 0.016 0.25873 0.36379 0.0
C723 C 0.05111 0.23364 0.42313 0.0
C724 C 0.77062 0.73877 0.40112 0.0
C725 C 0.81704 0.7632 0.39954 0.0
H726 H 0.70789 0.73735 0.39416 0.0
C727 C 0.8363 0.80568 0.38902 0.0
H728 H 0.75535 0.70596 0.4092 0.0
C729 C 0.80942 0.8234 0.37989 0.0
C730 C 0.76294 0.79919 0.38186 0.0
H731 H 0.87219 0.82524 0.38823 0.0
H732 H 0.82503 0.85635 0.37201 0.0
C733 C 0.74371 0.75673 0.39254 0.0
C734 C 0.23729 0.01949 0.4064 0.0
C735 C 0.20305 0.03045 0.40503 0.0
H736 H 0.25655 0.97203 0.39946 0.0
C737 C 0.16142 1.00185 0.39408 0.0
H738 H 0.26965 0.04127 0.41469 0.0
C739 C 0.15415 0.9627 0.38467 0.0
C740 C 0.18809 0.95122 0.38685 0.0
H741 H 0.13436 0.00946 0.39337 0.0
H742 H 0.12157 0.94075 0.3767 0.0
C743 C 0.22977 0.98005 0.39766 0.0
C744 C 0.50208 0.67767 0.32778 0.0
C745 C 0.51524 0.64981 0.31744 0.0
H746 H 0.523 0.73892 0.34426 0.0
C747 C 0.56089 0.663 0.31595 0.0
H748 H 0.4671 0.66844 0.32883 0.0
C749 C 0.59279 0.70366 0.32395 0.0
C750 C 0.57968 0.73152 0.33431 0.0
H751 H 0.57188 0.64176 0.30864 0.0
H752 H 0.62777 0.71302 0.32241 0.0
C753 C 0.53401 0.71799 0.33644 0.0
C754 C 0.3791 0.91839 0.35389 0.0
C755 C 0.38533 0.91142 0.32773 0.0
H756 H 0.33176 0.90639 0.38405 0.0
C757 C 0.34814 0.88625 0.31182 0.0
H758 H 0.40749 0.93776 0.36641 0.0
C759 C 0.30535 0.86942 0.32157 0.0
C760 C 0.29917 0.8763 0.34766 0.0
H761 H 0.35221 0.87936 0.29191 0.0
H762 H 0.27698 0.85075 0.30877 0.0
C763 C 0.33615 0.9004 0.36395 0.0
C764 C 0.13536 0.47646 0.29861 0.0
C765 C 0.10797 0.48574 0.31363 0.0
H766 H 0.17013 0.44023 0.2966 0.0
C767 C 0.09031 0.46152 0.33727 0.0
H768 H 0.14996 0.49525 0.28059 0.0
C769 C 0.10294 0.43123 0.34698 0.0
C770 C 0.13269 0.42382 0.33287 0.0
H771 H 0.06909 0.46828 0.34912 0.0
H772 H 0.09038 0.41451 0.36588 0.0
C773 C 0.14736 0.44546 0.30805 0.0
C774 C 0.37322 0.46421 0.31255 0.0
C775 C 0.3801 0.50656 0.31183 0.0
H776 H 0.32928 0.39778 0.32365 0.0
C777 C 0.34582 0.51379 0.32014 0.0
H778 H 0.39925 0.45783 0.30647 0.0
C779 C 0.30688 0.48012 0.33077 0.0
C780 C 0.30058 0.43801 0.33263 0.0
H781 H 0.35 0.54604 0.31929 0.0
H782 H 0.28174 0.48714 0.33772 0.0
C783 C 0.33346 0.43005 0.32263 0.0
C784 C 0.54246 0.90401 0.29988 0.0
C785 C 0.53597 0.9315 0.31559 0.0
H786 H 0.5755 0.86671 0.29619 0.0
C787 C 0.56174 0.94624 0.33884 0.0
H788 H 0.5222 0.89161 0.2822 0.0
C789 C 0.59102 0.93099 0.34743 0.0
C790 C 0.59559 0.90136 0.33257 0.0
H791 H 0.55678 0.96729 0.35124 0.0
H792 H 0.60913 0.9415 0.36601 0.0
C793 C 0.57236 0.88928 0.3082 0.0
C794 C 0.11347 0.63387 0.34945 0.0
C795 C 0.12953 0.63196 0.32483 0.0
H796 H 0.11068 0.67419 0.37826 0.0
C797 C 0.15766 0.6702 0.31077 0.0
H798 H 0.09164 0.60455 0.36052 0.0
C799 C 0.1683 0.70985 0.32066 0.0
C800 C 0.15131 0.71196 0.34498 0.0
H801 H 0.171 0.66928 0.29198 0.0
H802 H 0.18943 0.73883 0.30906 0.0
C803 C 0.12441 0.6736 0.35953 0.0
C804 C 0.82962 0.00885 0.42438 0.0
C805 C 0.84188 0.04747 0.40958 0.0
H806 H 0.78973 0.94029 0.42603 0.0
C807 C 0.82353 0.04615 0.38405 0.0
H808 H 0.8439 0.00917 0.44396 0.0
C809 C 0.7931 0.00686 0.37354 0.0
C810 C 0.78011 0.96814 0.38851 0.0
H811 H 0.83233 0.07567 0.37242 0.0
H812 H 0.77914 0.00695 0.3539 0.0
C813 C 0.79883 0.96955 0.41402 0.0
C814 C 0.95691 0.72373 0.39065 0.0
C815 C 0.94768 0.74248 0.41148 0.0
H816 H 0.00608 0.72784 0.36404 0.0
C817 C 0.98279 0.77778 0.42347 0.0
H818 H 0.93011 0.69648 0.3811 0.0
C819 C 0.02596 0.79553 0.41394 0.0
C820 C 0.03476 0.77879 0.39184 0.0
H821 H 0.97626 0.79359 0.43893 0.0
H822 H 0.05211 0.82363 0.42319 0.0
C823 C 1.00004 0.74206 0.38064 0.0
C824 C 0.20123 0.19107 0.42908 0.0
C825 C 0.22611 0.17817 0.41438 0.0
H826 H 0.17571 0.23535 0.4314 0.0
C827 C 0.24893 0.20337 0.39203 0.0
H828 H 0.18291 0.17175 0.44613 0.0
C829 C 0.24395 0.23889 0.38326 0.0
C830 C 0.21718 0.25035 0.3972 0.0
H831 H 0.26889 0.19433 0.3807 0.0
H832 H 0.25971 0.25649 0.36511 0.0
C833 C 0.19693 0.22714 0.4206 0.0
C834 C 0.64071 0.55311 0.72836 0.0
C835 C 0.63809 0.52835 0.75172 0.0
H836 H 0.68289 0.5993 0.69883 0.0
C837 C 0.67777 0.53635 0.76531 0.0
H838 H 0.61054 0.54789 0.71767 0.0
C839 C 0.71923 0.5663 0.75478 0.0
C840 C 0.72184 0.58825 0.73017 0.0
H841 H 0.67676 0.51733 0.78308 0.0
H842 H 0.7493 0.57062 0.76527 0.0
C843 C 0.68207 0.58214 0.71743 0.0
C844 C 0.47271 0.12857 0.7531 0.0
C845 C 0.47501 0.098 0.73801 0.0
H846 H 0.44531 0.17077 0.75641 0.0
C847 C 0.44997 0.08529 0.71444 0.0
H848 H 0.49229 0.13889 0.77123 0.0
C849 C 0.42392 0.10408 0.70556 0.0
C850 C 0.42207 0.13524 0.72046 0.0
H851 H 0.45131 0.06144 0.70276 0.0
H852 H 0.40514 0.0941 0.68713 0.0
C853 C 0.44617 0.14687 0.74451 0.0
C854 C 0.89246 0.36051 0.71648 0.0
C855 C 0.8766 0.36502 0.74044 0.0
H856 H 0.89333 0.31717 0.68932 0.0
C857 C 0.84824 0.32825 0.75567 0.0
H858 H 0.91459 0.38873 0.70464 0.0
C859 C 0.83633 0.2873 0.74722 0.0
C860 C 0.8523 0.28258 0.72321 0.0
H861 H 0.83575 0.33141 0.77422 0.0
H862 H 0.81474 0.25943 0.7595 0.0
C863 C 0.88022 0.31964 0.70782 0.0
C864 C 0.18928 0.02043 0.63615 0.0
C865 C 0.17896 0.98363 0.65255 0.0
H866 H 0.22755 0.08911 0.63146 0.0
C867 C 0.19991 0.98828 0.6775 0.0
H868 H 0.17358 0.01737 0.61675 0.0
C869 C 0.23023 0.02911 0.68614 0.0
C870 C 0.24089 0.06612 0.66973 0.0
H871 H 0.19314 0.96016 0.69016 0.0
H872 H 0.24597 0.03154 0.70549 0.0
C873 C 0.2201 0.06132 0.6446 0.0
C874 C 0.03984 0.26689 0.68856 0.0
C875 C 0.05076 0.25782 0.66425 0.0
H876 H 0.98797 0.25261 0.71589 0.0
C877 C 0.01738 0.22692 0.64852 0.0
H878 H 0.06551 0.29059 0.70092 0.0
C879 C 0.97348 0.20535 0.65686 0.0
C880 C 0.96224 0.214 0.6813 0.0
H881 H 0.02561 0.21907 0.62995 0.0
H882 H 0.94841 0.18167 0.6442 0.0
C883 C 0.9958 0.24494 0.69713 0.0
C884 C 0.76539 0.79983 0.66875 0.0
C885 C 0.7827 0.82279 0.64471 0.0
H886 H 0.76424 0.75281 0.69776 0.0
C887 C 0.80833 0.81151 0.62953 0.0
H888 H 0.74542 0.80808 0.68068 0.0
C889 C 0.81886 0.77958 0.63915 0.0
C890 C 0.80444 0.75902 0.66427 0.0
H891 H 0.82252 0.82925 0.61115 0.0
H892 H 0.84025 0.77266 0.62756 0.0
C893 C 0.77655 0.76862 0.67861 0.0
C894 C 0.00956 0.8438 0.64689 0.0
C895 C 0.04703 0.83884 0.64276 0.0
H896 H 0.94297 0.81497 0.66126 0.0
C897 C 0.04329 0.79773 0.64674 0.0
H898 H 0.01126 0.8749 0.64337 0.0
C899 C 0.00359 0.76289 0.65637 0.0
C900 C 0.96757 0.76905 0.66267 0.0
H901 H 0.07179 0.79316 0.64382 0.0
H902 H 0.00197 0.73186 0.66029 0.0
C903 C 0.97058 0.80955 0.65716 0.0
C904 C 0.23599 0.28901 0.65255 0.0
C905 C 0.19057 0.25936 0.6503 0.0
H906 H 0.30116 0.29849 0.6639 0.0
C907 C 0.17631 0.21533 0.65519 0.0
H908 H 0.24742 0.32306 0.64895 0.0
C909 C 0.2062 0.2015 0.66491 0.0
C910 C 0.25118 0.23138 0.66879 0.0
H911 H 0.14136 0.19198 0.65316 0.0
H912 H 0.19409 0.16757 0.66965 0.0
C913 C 0.26631 0.27501 0.66147 0.0
C914 C 0.78814 0.96866 0.68165 0.0
C915 C 0.79991 0.96766 0.65554 0.0
H916 H 0.7868 0.0076 0.71208 0.0
C917 C 0.82146 0.00631 0.64029 0.0
H918 H 0.77103 0.93919 0.69366 0.0
C919 C 0.82908 0.04492 0.65046 0.0
C920 C 0.81672 0.04573 0.67638 0.0
H921 H 0.83182 0.0065 0.62038 0.0
H922 H 0.84441 0.07419 0.63804 0.0
C923 C 0.79706 0.00758 0.69215 0.0
C924 C 0.51947 0.35419 0.73139 0.0
C925 C 0.50797 0.38314 0.74182 0.0
H926 H 0.49619 0.29407 0.71286 0.0
C927 C 0.46303 0.37305 0.74181 0.0
H928 H 0.5539 0.36104 0.73174 0.0
C929 C 0.43003 0.33447 0.73179 0.0
C930 C 0.44147 0.30564 0.72106 0.0
H931 H 0.45355 0.39502 0.74974 0.0
H932 H 0.39554 0.32732 0.73228 0.0
C933 C 0.48655 0.31602 0.72069 0.0
C934 C 0.647 0.13958 0.73957 0.0
C935 C 0.61688 0.09639 0.7464 0.0
H936 H 0.70895 0.18388 0.72143 0.0
C937 C 0.62895 0.06469 0.74271 0.0
H938 H 0.63827 0.16451 0.74246 0.0
C939 C 0.66956 0.07578 0.73097 0.0
C940 C 0.69796 0.11854 0.72216 0.0
H941 H 0.60595 0.03122 0.74758 0.0
H942 H 0.67813 0.05076 0.72797 0.0
C943 C 0.68681 0.15049 0.72708 0.0
C944 C 0.84516 0.50268 0.74588 0.0
C945 C 0.88828 0.50814 0.75018 0.0
H946 H 0.8053 0.53149 0.7321 0.0
C947 C 0.92501 0.54957 0.74725 0.0
H948 H 0.81636 0.47124 0.74875 0.0
C949 C 0.9187 0.58449 0.73836 0.0
C950 C 0.87564 0.578 0.73186 0.0
H951 H 0.95855 0.55442 0.75048 0.0
H952 H 0.9475 0.61586 0.73511 0.0
C953 C 0.83891 0.53709 0.73642 0.0
C954 C 0.48881 0.93915 0.2429 0.0
C955 C 0.50821 0.9647 0.26477 0.0
H956 H 0.48547 0.93584 0.20082 0.0
C957 C 0.5442 0.00615 0.26092 0.0
H958 H 0.46053 0.90728 0.2456 0.0
C959 C 0.55868 0.02286 0.23523 0.0
C960 C 0.53727 0.99828 0.21302 0.0
H961 H 0.55909 0.02642 0.2776 0.0
H962 H 0.58545 0.05559 0.23269 0.0
C963 C 0.50318 0.95564 0.21731 0.0
C964 C 0.10132 0.52625 0.24002 0.0
C965 C 0.07455 0.51462 0.26239 0.0
H966 H 0.10378 0.52811 0.19775 0.0
C967 C 0.02813 0.49103 0.25909 0.0
H968 H 0.13717 0.54538 0.24214 0.0
C969 C 0.00866 0.48228 0.23366 0.0
C970 C 0.03536 0.49695 0.21097 0.0
H971 H 0.00693 0.48299 0.27605 0.0
H972 H 0.97269 0.46689 0.23182 0.0
C973 C 0.08202 0.51723 0.21461 0.0
C974 C 0.46655 0.50347 0.26251 0.0
C975 C 0.43859 0.52195 0.26314 0.0
H976 H 0.49764 0.47818 0.23885 0.0
C977 C 0.4142 0.52242 0.24023 0.0
H978 H 0.48652 0.50393 0.27985 0.0
C979 C 0.42045 0.50774 0.21648 0.0
C980 C 0.45165 0.49275 0.2152 0.0
H981 H 0.39321 0.53743 0.2402 0.0
H982 H 0.4026 0.5103 0.19884 0.0
C983 C 0.47305 0.48901 0.23888 0.0
C984 C 0.98628 0.50707 0.80065 0.0
C985 C 0.94072 0.49207 0.79564 0.0
H986 H 0.04012 0.53277 0.82879 0.0
C987 C 0.91532 0.4976 0.8144 0.0
H988 H 0.00631 0.50309 0.78628 0.0
C989 C 0.93456 0.51493 0.83877 0.0
C990 C 0.97953 0.5269 0.84474 0.0
H991 H 0.88002 0.48599 0.81083 0.0
H992 H 0.91376 0.51731 0.85334 0.0
C993 C 0.00555 0.52424 0.82496 0.0
C994 C 0.55345 0.51923 0.80465 0.0
C995 C 0.58143 0.50081 0.80334 0.0
H996 H 0.51768 0.53844 0.82926 0.0
C997 C 0.60097 0.49429 0.82696 0.0
H998 H 0.53683 0.52322 0.78682 0.0
C999 C 0.58983 0.5026 0.85154 0.0
C1000 C 0.55852 0.5174 0.85312 0.0
H1001 H 0.62169 0.47904 0.82656 0.0
H1002 H 0.6041 0.49534 0.86937 0.0
C1003 C 0.5421 0.52742 0.82916 0.0
C1004 C 0.58121 0.08001 0.8171 0.0
C1005 C 0.56224 0.05099 0.79677 0.0
H1006 H 0.59096 0.08825 0.8589 0.0
C1007 C 0.54408 0.00685 0.80316 0.0
H1008 H 0.59462 0.11416 0.81261 0.0
C1009 C 0.54047 0.99167 0.82962 0.0
C1010 C 0.55526 0.02049 0.85034 0.0
H1011 H 0.52828 0.98396 0.78779 0.0
H1012 H 0.52257 0.95726 0.83377 0.0
C1013 C 0.57802 0.06497 0.84362 0.0
C1014 C 0.16835 0.27965 0.58475 0.0
C1015 C 0.17475 0.3097 0.60346 0.0
H1016 H 0.17377 0.26905 0.54414 0.0
C1017 C 0.19625 0.35356 0.59587 0.0
H1018 H 0.15126 0.2456 0.59022 0.0
C1019 C 0.20829 0.36712 0.56956 0.0
C1020 C 0.19914 0.337 0.55017 0.0
H1021 H 0.20082 0.37707 0.61002 0.0
H1022 H 0.22203 0.40104 0.56418 0.0
C1023 C 0.18055 0.29315 0.55835 0.0
C1024 C 0.70456 0.81976 0.59043 0.0
C1025 C 0.74963 0.85049 0.59298 0.0
H1026 H 0.64935 0.78573 0.5639 0.0
C1027 C 0.77524 0.86706 0.57011 0.0
H1028 H 0.68407 0.80736 0.60783 0.0
C1029 C 0.75554 0.8556 0.54497 0.0
C1030 C 0.70952 0.82735 0.54212 0.0
H1031 H 0.80981 0.89165 0.57171 0.0
H1032 H 0.77583 0.87147 0.52781 0.0
C1033 C 0.68467 0.80816 0.56525 0.0
C1034 C 0.13432 0.83389 0.59657 0.0
C1035 C 0.11083 0.85697 0.59701 0.0
H1036 H 0.16171 0.80496 0.57286 0.0
C1037 C 0.09086 0.86308 0.57353 0.0
H1038 H 0.15091 0.82991 0.61442 0.0
C1039 C 0.09694 0.84895 0.54957 0.0
C1040 C 0.1236 0.82882 0.54863 0.0
H1041 H 0.07335 0.88156 0.57347 0.0
H1042 H 0.08243 0.85557 0.53162 0.0
C1043 C 0.14068 0.81993 0.57266 0.0
C1044 C 0.58624 0.82653 0.14684 0.0
C1045 C 0.61192 0.82524 0.12653 0.0
H1046 H 0.585 0.84089 0.18721 0.0
C1047 C 0.65797 0.84213 0.13053 0.0
H1048 H 0.55055 0.81327 0.14408 0.0
C1049 C 0.67771 0.85719 0.15516 0.0
C1050 C 0.65165 0.85573 0.17631 0.0
H1051 H 0.67814 0.84113 0.11501 0.0
H1052 H 0.71287 0.86743 0.15803 0.0
C1053 C 0.60592 0.84169 0.17155 0.0
C1054 C 0.22064 0.85641 0.13797 0.0
C1055 C 0.24855 0.83793 0.13649 0.0
H1056 H 0.185 0.87552 0.16275 0.0
C1057 C 0.26835 0.8315 0.16003 0.0
H1058 H 0.2038 0.86033 0.12022 0.0
C1059 C 0.25745 0.83985 0.18467 0.0
C1060 C 0.22607 0.85454 0.18643 0.0
H1061 H 0.28901 0.81621 0.15952 0.0
H1062 H 0.27192 0.83263 0.20243 0.0
C1063 C 0.20947 0.86456 0.16254 0.0
C1064 C 0.2458 0.41267 0.15148 0.0
C1065 C 0.2258 0.38484 0.13064 0.0
H1066 H 0.25606 0.41906 0.19333 0.0
C1067 C 0.20523 0.34034 0.13629 0.0
H1068 H 0.26068 0.44711 0.14765 0.0
C1069 C 0.20069 0.32397 0.16256 0.0
C1070 C 0.21696 0.35195 0.18373 0.0
H1071 H 0.1884 0.31838 0.12057 0.0
H1072 H 0.18107 0.28956 0.16624 0.0
C1073 C 0.24194 0.39646 0.1777 0.0
C1074 C 0.81492 0.60925 0.91024 0.0
C1075 C 0.83599 0.63565 0.93158 0.0
H1076 H 0.81044 0.60382 0.86825 0.0
C1077 C 0.87367 0.67571 0.92695 0.0
H1078 H 0.78528 0.57852 0.91349 0.0
C1079 C 0.88838 0.69043 0.90109 0.0
C1080 C 0.86529 0.66541 0.87935 0.0
H1081 H 0.88976 0.6968 0.94315 0.0
H1082 H 0.9166 0.72223 0.89803 0.0
C1083 C 0.8294 0.6239 0.88438 0.0
C1084 C 0.37116 0.16842 0.92613 0.0
C1085 C 0.41767 0.188 0.92892 0.0
H1086 H 0.31487 0.14626 0.89955 0.0
C1087 C 0.44315 0.19499 0.90644 0.0
H1088 H 0.35111 0.16402 0.94316 0.0
C1089 C 0.42267 0.18501 0.88132 0.0
C1090 C 0.3762 0.16831 0.87814 0.0
H1091 H 0.47918 0.21109 0.90813 0.0
H1092 H 0.4435 0.19213 0.86428 0.0
C1093 C 0.35058 0.15864 0.90105 0.0
C1094 C 0.75447 0.1974 0.90668 0.0
C1095 C 0.77608 0.19244 0.92976 0.0
H1096 H 0.74314 0.18791 0.86502 0.0
C1097 C 0.79968 0.16951 0.92894 0.0
H1098 H 0.7368 0.2157 0.90688 0.0
C1099 C 0.80439 0.15446 0.90501 0.0
C1100 C 0.78556 0.1621 0.8813 0.0
H1101 H 0.81745 0.16636 0.94646 0.0
H1102 H 0.8255 0.1396 0.90486 0.0
C1103 C 0.75893 0.18219 0.88269 0.0
C1104 C 0.30089 0.1692 0.46781 0.0
C1105 C 0.25431 0.14869 0.46587 0.0
H1106 H 0.35852 0.19852 0.49312 0.0
C1107 C 0.22973 0.14653 0.48779 0.0
H1108 H 0.32012 0.1702 0.45113 0.0
C1109 C 0.25142 0.16301 0.51181 0.0
C1110 C 0.2981 0.18115 0.51444 0.0
H1111 H 0.19366 0.13008 0.48665 0.0
H1112 H 0.23143 0.16 0.52858 0.0
C1113 C 0.32268 0.1853 0.49187 0.0
C1114 C 0.92734 0.15762 0.49348 0.0
C1115 C 0.9121 0.16871 0.46958 0.0
H1116 H 0.9277 0.15616 0.53588 0.0
C1117 C 0.8892 0.19234 0.47059 0.0
H1118 H 0.94404 0.13842 0.49325 0.0
C1119 C 0.87833 0.20137 0.49501 0.0
C1120 C 0.89023 0.187 0.51912 0.0
H1121 H 0.87578 0.19994 0.45249 0.0
H1122 H 0.85765 0.2167 0.49485 0.0
C1123 C 0.91682 0.16683 0.51792 0.0
C1124 C 0.86863 0.66483 0.46931 0.0
C1125 C 0.89338 0.70907 0.46315 0.0
H1126 H 0.84124 0.61513 0.49971 0.0
C1127 C 0.91648 0.73687 0.48359 0.0
H1128 H 0.84952 0.64309 0.45388 0.0
C1129 C 0.91198 0.72109 0.50998 0.0
C1130 C 0.88355 0.67722 0.5165 0.0
H1131 H 0.93463 0.77125 0.47941 0.0
H1132 H 0.92869 0.74374 0.52536 0.0
C1133 C 0.86367 0.64899 0.49567 0.0
loop_
_geom_bond_atom_site_label_1
_geom_bond_atom_site_label_2
_geom_bond_distance
_geom_bond_site_symmetry_2
_ccdc_geom_bond_type
C0 N1 1.317 . S
C0 N2 1.348 . S
C0 C3 1.485 . S
N1 C0 1.317 . S
N1 N5 1.370 . S
N2 C0 1.348 . S
N2 C4 1.346 . S
C3 C0 1.485 . S
C3 H7 0.960 . S
C3 H8 0.961 . S
C3 H9 0.960 . S
C4 N2 1.346 . S
C4 N5 1.307 . S
C4 C6 1.486 . S
N5 N1 1.370 . S
N5 C4 1.307 . S
C6 C4 1.486 . S
C6 H10 0.960 . S
C6 H11 0.960 . S
C6 H12 0.959 . S
H7 C3 0.960 . S
H8 C3 0.961 . S
H9 C3 0.960 . S
H10 C6 0.960 . S
H11 C6 0.960 . S
H12 C6 0.959 . S
C13 N14 1.317 . S
C13 N15 1.348 . S
C13 C16 1.485 . S
N14 C13 1.317 . S
N14 N18 1.370 . S
N15 C13 1.348 . S
N15 C17 1.346 . S
C16 C13 1.485 . S
C16 H20 0.960 . S
C16 H21 0.961 . S
C16 H22 0.960 . S
C17 N15 1.346 . S
C17 N18 1.307 . S
C17 C19 1.486 . S
N18 N14 1.370 . S
N18 C17 1.307 . S
C19 C17 1.486 . S
C19 H23 0.960 . S
C19 H24 0.960 . S
C19 H25 0.959 . S
H20 C16 0.960 . S
H21 C16 0.961 . S
H22 C16 0.960 . S
H23 C19 0.960 . S
H24 C19 0.960 . S
H25 C19 0.959 . S
C26 N27 1.317 . S
C26 N28 1.348 . S
C26 C29 1.485 . S
N27 C26 1.317 . S
N27 N31 1.370 . S
N28 C26 1.348 . S
N28 C30 1.346 . S
C29 C26 1.485 . S
C29 H33 0.960 . S
C29 H34 0.961 . S
C29 H35 0.960 . S
C30 N28 1.346 . S
C30 N31 1.307 . S
C30 C32 1.486 . S
N31 N27 1.370 . S
N31 C30 1.307 . S
C32 C30 1.486 . S
C32 H36 0.960 . S
C32 H37 0.960 . S
C32 H38 0.959 . S
H33 C29 0.960 . S
H34 C29 0.961 . S
H35 C29 0.960 . S
H36 C32 0.960 . S
H37 C32 0.960 . S
H38 C32 0.959 . S
C39 N40 1.317 . S
C39 N41 1.348 . S
C39 C42 1.485 . S
N40 C39 1.317 . S
N40 N44 1.370 . S
N41 C39 1.348 . S
N41 C43 1.346 . S
C42 C39 1.485 . S
C42 H46 0.960 . S
C42 H47 0.961 . S
C42 H48 0.960 . S
C43 N41 1.346 . S
C43 N44 1.307 . S
C43 C45 1.486 . S
N44 N40 1.370 . S
N44 C43 1.307 . S
C45 C43 1.486 . S
C45 H49 0.960 . S
C45 H50 0.960 1_455 S
C45 H51 0.959 . S
H46 C42 0.960 . S
H47 C42 0.961 . S
H48 C42 0.960 . S
H49 C45 0.960 . S
H50 C45 0.960 1_655 S
H51 C45 0.959 . S
C52 N53 1.317 . S
C52 N54 1.348 . S
C52 C55 1.485 . S
N53 C52 1.317 . S
N53 N57 1.370 . S
N54 C52 1.348 . S
N54 C56 1.346 . S
C55 C52 1.485 . S
C55 H59 0.960 . S
C55 H60 0.961 . S
C55 H61 0.960 . S
C56 N54 1.346 . S
C56 N57 1.307 . S
C56 C58 1.486 . S
N57 N53 1.370 . S
N57 C56 1.307 . S
C58 C56 1.486 . S
C58 H62 0.960 . S
C58 H63 0.960 . S
C58 H64 0.959 . S
H59 C55 0.960 . S
H60 C55 0.961 . S
H61 C55 0.960 . S
H62 C58 0.960 . S
H63 C58 0.960 . S
H64 C58 0.959 . S
C65 N66 1.317 . S
C65 N67 1.348 . S
C65 C68 1.485 . S
N66 C65 1.317 . S
N66 N70 1.370 . S
N67 C65 1.348 . S
N67 C69 1.346 . S
C68 C65 1.485 . S
C68 H72 0.960 . S
C68 H73 0.961 . S
C68 H74 0.960 . S
C69 N67 1.346 . S
C69 N70 1.307 . S
C69 C71 1.486 . S
N70 N66 1.370 . S
N70 C69 1.307 . S
C71 C69 1.486 . S
C71 H75 0.960 . S
C71 H76 0.960 . S
C71 H77 0.959 . S
H72 C68 0.960 . S
H73 C68 0.961 . S
H74 C68 0.960 . S
H75 C71 0.960 . S
H76 C71 0.960 . S
H77 C71 0.959 . S
C78 N79 1.317 . S
C78 N80 1.348 . S
C78 C81 1.485 . S
N79 C78 1.317 . S
N79 N83 1.370 . S
N80 C78 1.348 . S
N80 C82 1.346 . S
C81 C78 1.485 . S
C81 H85 0.960 . S
C81 H86 0.961 . S
C81 H87 0.960 . S
C82 N80 1.346 . S
C82 N83 1.307 . S
C82 C84 1.486 . S
N83 N79 1.370 . S
N83 C82 1.307 . S
C84 C82 1.486 . S
C84 H88 0.960 . S
C84 H89 0.960 . S
C84 H90 0.959 . S
H85 C81 0.960 . S
H86 C81 0.961 . S
H87 C81 0.960 . S
H88 C84 0.960 . S
H89 C84 0.960 . S
H90 C84 0.959 . S
C91 N92 1.317 . S
C91 N93 1.348 . S
C91 C94 1.485 . S
N92 C91 1.317 . S
N92 N96 1.370 . S
N93 C91 1.348 . S
N93 C95 1.346 . S
C94 C91 1.485 . S
C94 H98 0.960 . S
C94 H99 0.961 . S
C94 H100 0.960 . S
C95 N93 1.346 . S
C95 N96 1.307 . S
C95 C97 1.486 . S
N96 N92 1.370 . S
N96 C95 1.307 . S
C97 C95 1.486 . S
C97 H101 0.960 . S
C97 H102 0.960 . S
C97 H103 0.959 . S
H98 C94 0.960 . S
H99 C94 0.961 . S
H100 C94 0.960 . S
H101 C97 0.960 . S
H102 C97 0.960 . S
H103 C97 0.959 . S
C104 N105 1.317 . S
C104 N106 1.348 . S
C104 C107 1.485 . S
N105 C104 1.317 . S
N105 N109 1.370 . S
N106 C104 1.348 . S
N106 C108 1.346 . S
C107 C104 1.485 . S
C107 H111 0.960 . S
C107 H112 0.961 . S
C107 H113 0.960 . S
C108 N106 1.346 . S
C108 N109 1.307 . S
C108 C110 1.486 . S
N109 N105 1.370 . S
N109 C108 1.307 . S
C110 C108 1.486 . S
C110 H114 0.960 . S
C110 H115 0.960 . S
C110 H116 0.959 . S
H111 C107 0.960 . S
H112 C107 0.961 . S
H113 C107 0.960 . S
H114 C110 0.960 . S
H115 C110 0.960 . S
H116 C110 0.959 . S
C117 N118 1.317 . S
C117 N119 1.348 . S
C117 C120 1.485 . S
N118 C117 1.317 . S
N118 N122 1.370 . S
N119 C117 1.348 . S
N119 C121 1.346 . S
C120 C117 1.485 . S
C120 H124 0.960 . S
C120 H125 0.961 1_556 S
C120 H126 0.960 . S
C121 N119 1.346 . S
C121 N122 1.307 . S
C121 C123 1.486 . S
N122 N118 1.370 . S
N122 C121 1.307 . S
C123 C121 1.486 . S
C123 H127 0.960 . S
C123 H128 0.960 . S
C123 H129 0.959 . S
H124 C120 0.960 . S
H125 C120 0.961 1_554 S
H126 C120 0.960 . S
H127 C123 0.960 . S
H128 C123 0.960 . S
H129 C123 0.959 . S
C130 N131 1.317 . S
C130 N132 1.348 . S
C130 C133 1.485 1_556 S
N131 C130 1.317 . S
N131 N135 1.370 . S
N132 C130 1.348 . S
N132 C134 1.346 . S
C133 C130 1.485 1_554 S
C133 H137 0.960 . S
C133 H138 0.961 . S
C133 H139 0.960 . S
C134 N132 1.346 . S
C134 N135 1.307 . S
C134 C136 1.486 . S
N135 N131 1.370 . S
N135 C134 1.307 . S
C136 C134 1.486 . S
C136 H140 0.960 . S
C136 H141 0.960 . S
C136 H142 0.959 . S
H137 C133 0.960 . S
H138 C133 0.961 . S
H139 C133 0.960 . S
H140 C136 0.960 . S
H141 C136 0.960 . S
H142 C136 0.959 . S
C143 N144 1.317 . S
C143 N145 1.348 . S
C143 C146 1.485 1_556 S
N144 C143 1.317 . S
N144 N148 1.370 . S
N145 C143 1.348 . S
N145 C147 1.346 . S
C146 C143 1.485 1_554 S
C146 H150 0.960 . S
C146 H151 0.961 . S
C146 H152 0.960 . S
C147 N145 1.346 . S
C147 N148 1.307 . S
C147 C149 1.486 . S
N148 N144 1.370 . S
N148 C147 1.307 . S
C149 C147 1.486 . S
C149 H153 0.960 . S
C149 H154 0.960 . S
C149 H155 0.959 . S
H150 C146 0.960 . S
H151 C146 0.961 . S
H152 C146 0.960 . S
H153 C149 0.960 . S
H154 C149 0.960 . S
H155 C149 0.959 . S
C156 N157 1.317 . S
C156 N158 1.348 . S
C156 C159 1.485 1_554 S
N157 C156 1.317 . S
N157 N161 1.370 . S
N158 C156 1.348 . S
N158 C160 1.346 . S
C159 C156 1.485 1_556 S
C159 H163 0.960 . S
C159 H164 0.961 . S
C159 H165 0.960 . S
C160 N158 1.346 . S
C160 N161 1.307 . S
C160 C162 1.486 . S
N161 N157 1.370 . S
N161 C160 1.307 . S
C162 C160 1.486 . S
C162 H166 0.960 . S
C162 H167 0.960 . S
C162 H168 0.959 . S
H163 C159 0.960 . S
H164 C159 0.961 . S
H165 C159 0.960 . S
H166 C162 0.960 . S
H167 C162 0.960 . S
H168 C162 0.959 . S
C169 N170 1.317 . S
C169 N171 1.348 . S
C169 C172 1.485 . S
N170 C169 1.317 . S
N170 N174 1.370 . S
N171 C169 1.348 . S
N171 C173 1.346 . S
C172 C169 1.485 . S
C172 H176 0.960 1_554 S
C172 H177 0.961 . S
C172 H178 0.960 . S
C173 N171 1.346 . S
C173 N174 1.307 . S
C173 C175 1.486 . S
N174 N170 1.370 . S
N174 C173 1.307 . S
C175 C173 1.486 . S
C175 H179 0.960 . S
C175 H180 0.960 . S
C175 H181 0.959 . S
H176 C172 0.960 1_556 S
H177 C172 0.961 . S
H178 C172 0.960 . S
H179 C175 0.960 . S
H180 C175 0.960 . S
H181 C175 0.959 . S
C182 N183 1.317 . S
C182 N184 1.348 . S
C182 C185 1.485 . S
N183 C182 1.317 . S
N183 N187 1.370 . S
N184 C182 1.348 . S
N184 C186 1.346 . S
C185 C182 1.485 . S
C185 H189 0.960 . S
C185 H190 0.961 . S
C185 H191 0.960 . S
C186 N184 1.346 . S
C186 N187 1.307 . S
C186 C188 1.486 . S
N187 N183 1.370 . S
N187 C186 1.307 . S
C188 C186 1.486 . S
C188 H192 0.960 . S
C188 H193 0.960 . S
C188 H194 0.959 . S
H189 C185 0.960 . S
H190 C185 0.961 . S
H191 C185 0.960 . S
H192 C188 0.960 . S
H193 C188 0.960 . S
H194 C188 0.959 . S
C195 N196 1.317 . S
C195 N197 1.348 . S
C195 C198 1.485 . S
N196 C195 1.317 . S
N196 N200 1.370 . S
N197 C195 1.348 . S
N197 C199 1.346 . S
C198 C195 1.485 . S
C198 H202 0.960 . S
C198 H203 0.961 . S
C198 H204 0.960 . S
C199 N197 1.346 . S
C199 N200 1.307 . S
C199 C201 1.486 . S
N200 N196 1.370 . S
N200 C199 1.307 . S
C201 C199 1.486 . S
C201 H205 0.960 . S
C201 H206 0.960 . S
C201 H207 0.959 . S
H202 C198 0.960 . S
H203 C198 0.961 . S
H204 C198 0.960 . S
H205 C201 0.960 . S
H206 C201 0.960 . S
H207 C201 0.959 . S
C208 N209 1.317 . S
C208 N210 1.348 . S
C208 C211 1.485 . S
N209 C208 1.317 . S
N209 N213 1.370 . S
N210 C208 1.348 . S
N210 C212 1.346 . S
C211 C208 1.485 . S
C211 H215 0.960 . S
C211 H216 0.961 . S
C211 H217 0.960 . S
C212 N210 1.346 . S
C212 N213 1.307 . S
C212 C214 1.486 . S
N213 N209 1.370 . S
N213 C212 1.307 . S
C214 C212 1.486 . S
C214 H218 0.960 . S
C214 H219 0.960 . S
C214 H220 0.959 . S
H215 C211 0.960 . S
H216 C211 0.961 . S
H217 C211 0.960 . S
H218 C214 0.960 . S
H219 C214 0.960 . S
H220 C214 0.959 . S
C221 N222 1.317 . S
C221 N223 1.348 . S
C221 C224 1.485 . S
N222 C221 1.317 . S
N222 N226 1.370 . S
N223 C221 1.348 . S
N223 C225 1.346 . S
C224 C221 1.485 . S
C224 H228 0.960 . S
C224 H229 0.961 . S
C224 H230 0.960 . S
C225 N223 1.346 . S
C225 N226 1.307 . S
C225 C227 1.486 . S
N226 N222 1.370 . S
N226 C225 1.307 . S
C227 C225 1.486 . S
C227 H231 0.960 . S
C227 H232 0.960 . S
C227 H233 0.959 . S
H228 C224 0.960 . S
H229 C224 0.961 . S
H230 C224 0.960 . S
H231 C227 0.960 . S
H232 C227 0.960 . S
H233 C227 0.959 . S
Eu234 C243 2.828 1_565 S
Eu234 O245 2.392 1_556 S
Eu234 O247 2.418 . S
Eu234 O252 2.373 1_565 S
Eu234 O255 2.488 . S
Eu234 O256 2.471 1_565 S
Eu234 O257 2.349 1_565 S
Eu235 O244 2.373 1_545 S
Eu235 O248 2.488 . S
Eu235 O249 2.471 1_545 S
Eu235 O250 2.349 1_545 S
Eu235 O253 2.392 . S
Eu235 O254 2.418 . S
Eu235 C264 2.828 1_545 S
C236 O254 1.244 . S
C236 O257 1.265 1_554 S
C237 C238 1.379 . S
C237 C241 1.373 . S
C237 C243 1.505 . S
C238 C237 1.379 . S
C238 C240 1.369 . S
C238 H266 0.930 . S
C239 C241 1.383 . S
C239 C242 1.382 . S
C239 H267 0.930 . S
C240 C238 1.369 . S
C240 C242 1.392 . S
C240 H268 0.930 . S
C241 C237 1.373 . S
C241 C239 1.383 . S
C241 H269 0.931 1_545 S
C242 C239 1.382 . S
C242 C240 1.392 . S
C243 Eu234 2.828 1_545 S
C243 C237 1.505 . S
C243 O255 1.249 1_545 S
C243 O256 1.244 . S
O244 Eu235 2.373 1_565 S
O244 C246 1.258 . S
O245 Eu234 2.392 1_554 S
O245 C246 1.242 . S
C246 O244 1.258 . S
C246 O245 1.242 . S
O247 Eu234 2.418 . S
O247 C251 1.244 1_556 S
O248 Eu235 2.488 . S
O248 C264 1.249 1_545 S
O249 Eu235 2.471 1_565 S
O249 C264 1.244 . S
O250 Eu235 2.349 1_565 S
O250 C251 1.265 . S
C251 O247 1.244 1_554 S
C251 O250 1.265 . S
O252 Eu234 2.373 1_545 S
O252 C265 1.258 . S
O253 Eu235 2.392 . S
O253 C265 1.242 1_554 S
O254 Eu235 2.418 . S
O254 C236 1.244 . S
O255 Eu234 2.488 . S
O255 C243 1.249 1_565 S
O256 Eu234 2.471 1_545 S
O256 C243 1.244 . S
O257 Eu234 2.349 1_545 S
O257 C236 1.265 1_556 S
C258 C259 1.379 . S
C258 C262 1.373 . S
C258 C264 1.505 . S
C259 C258 1.379 . S
C259 C261 1.369 . S
C259 H270 0.930 . S
C260 C262 1.383 . S
C260 C263 1.382 . S
C260 H271 0.930 . S
C261 C259 1.369 . S
C261 C263 1.392 . S
C261 H272 0.930 . S
C262 C258 1.373 . S
C262 C260 1.383 . S
C262 H273 0.931 1_565 S
C263 C260 1.382 . S
C263 C261 1.392 . S
C264 Eu235 2.828 1_565 S
C264 O248 1.249 1_565 S
C264 O249 1.244 . S
C264 C258 1.505 . S
C265 O252 1.258 . S
C265 O253 1.242 1_556 S
H266 C238 0.930 . S
H267 C239 0.930 . S
H268 C240 0.930 . S
H269 C241 0.931 1_565 S
H270 C259 0.930 . S
H271 C260 0.930 . S
H272 C261 0.930 . S
H273 C262 0.931 1_545 S
Eu274 C283 2.828 . S
Eu274 O285 2.392 1_556 S
Eu274 O287 2.418 . S
Eu274 O292 2.373 1_455 S
Eu274 O295 2.488 . S
Eu274 O296 2.471 1_455 S
Eu274 O297 2.349 1_455 S
Eu275 O284 2.373 1_655 S
Eu275 O288 2.488 . S
Eu275 O289 2.471 1_655 S
Eu275 O290 2.349 1_655 S
Eu275 O293 2.404 . S
Eu275 O294 2.418 . S
Eu275 C304 2.828 1_655 S
C276 O294 1.266 . S
C276 O297 1.255 1_554 S
C277 C278 1.391 . S
C277 C281 1.368 1_655 S
C277 C283 1.499 1_655 S
C278 C277 1.391 . S
C278 C280 1.369 . S
C278 H306 0.930 . S
C279 C281 1.383 . S
C279 C282 1.382 1_455 S
C279 H307 0.930 . S
C280 C278 1.369 . S
C280 C282 1.392 . S
C280 H308 0.930 . S
C281 C277 1.368 1_455 S
C281 C279 1.383 . S
C281 H309 0.931 . S
C282 C279 1.382 1_655 S
C282 C280 1.392 . S
C283 Eu274 2.828 . S
C283 C277 1.499 1_455 S
C283 O295 1.249 . S
C283 O296 1.244 1_455 S
O284 Eu275 2.373 1_455 S
O284 C286 1.258 . S
O285 Eu274 2.392 1_554 S
O285 C286 1.242 . S
C286 O284 1.258 . S
C286 O285 1.242 . S
O287 Eu274 2.418 . S
O287 C291 1.244 1_556 S
O288 Eu275 2.488 . S
O288 C304 1.249 1_655 S
O289 Eu275 2.471 1_455 S
O289 C304 1.244 . S
O290 Eu275 2.349 1_455 S
O290 C291 1.265 . S
C291 O287 1.244 1_554 S
C291 O290 1.265 . S
O292 Eu274 2.373 1_655 S
O292 C305 1.258 . S
O293 Eu275 2.404 . S
O293 C305 1.227 1_554 S
O294 Eu275 2.418 . S
O294 C276 1.266 . S
O295 Eu274 2.488 . S
O295 C283 1.249 . S
O296 Eu274 2.471 1_655 S
O296 C283 1.244 1_655 S
O297 Eu274 2.349 1_655 S
O297 C276 1.255 1_556 S
C298 C299 1.379 . S
C298 C302 1.373 1_455 S
C298 C304 1.505 . S
C299 C298 1.379 . S
C299 C301 1.369 . S
C299 H310 0.930 . S
C300 C302 1.383 1_455 S
C300 C303 1.382 . S
C300 H311 0.930 1_455 S
C301 C299 1.369 . S
C301 C303 1.392 . S
C301 H312 0.930 . S
C302 C298 1.373 1_655 S
C302 C300 1.383 1_655 S
C302 H313 0.931 . S
C303 C300 1.382 . S
C303 C301 1.392 . S
C304 Eu275 2.828 1_455 S
C304 O288 1.249 1_455 S
C304 O289 1.244 . S
C304 C298 1.505 . S
C305 O292 1.258 . S
C305 O293 1.227 1_556 S
H306 C278 0.930 . S
H307 C279 0.930 . S
H308 C280 0.930 . S
H309 C281 0.931 . S
H310 C299 0.930 . S
H311 C300 0.930 1_655 S
H312 C301 0.930 . S
H313 C302 0.931 . S
Eu314 C323 2.828 . S
Eu314 O325 2.392 . S
Eu314 O327 2.418 . S
Eu314 O332 2.373 . S
Eu314 O335 2.488 . S
Eu314 O336 2.471 . S
Eu314 O337 2.349 . S
Eu315 O324 2.373 . S
Eu315 O328 2.488 . S
Eu315 O329 2.471 . S
Eu315 O330 2.349 1_556 S
Eu315 O333 2.392 1_556 S
Eu315 O334 2.418 . S
Eu315 C344 2.828 . S
C316 O334 1.244 1_554 S
C316 O337 1.265 . S
C317 C318 1.379 . S
C317 C321 1.373 . S
C317 C323 1.505 . S
C318 C317 1.379 . S
C318 C320 1.369 . S
C318 H346 0.930 . S
C319 C321 1.383 . S
C319 C322 1.382 . S
C319 H347 0.930 . S
C320 C318 1.369 . S
C320 C322 1.392 . S
C320 H348 0.930 . S
C321 C317 1.373 . S
C321 C319 1.383 . S
C321 H349 0.931 . S
C322 C319 1.382 . S
C322 C320 1.392 . S
C323 Eu314 2.828 . S
C323 C317 1.505 . S
C323 O335 1.249 . S
C323 O336 1.244 . S
O324 Eu315 2.373 . S
O324 C326 1.258 . S
O325 Eu314 2.392 . S
O325 C326 1.242 1_554 S
C326 O324 1.258 . S
C326 O325 1.242 1_556 S
O327 Eu314 2.418 . S
O327 C331 1.244 . S
O328 Eu315 2.488 . S
O328 C344 1.249 . S
O329 Eu315 2.471 . S
O329 C344 1.244 . S
O330 Eu315 2.349 1_554 S
O330 C331 1.265 . S
C331 O327 1.244 . S
C331 O330 1.265 . S
O332 Eu314 2.373 . S
O332 C345 1.258 . S
O333 Eu315 2.392 1_554 S
O333 C345 1.242 . S
O334 Eu315 2.418 . S
O334 C316 1.244 1_556 S
O335 Eu314 2.488 . S
O335 C323 1.249 . S
O336 Eu314 2.471 . S
O336 C323 1.244 . S
O337 Eu314 2.349 . S
O337 C316 1.265 . S
C338 C339 1.379 . S
C338 C342 1.373 . S
C338 C344 1.505 . S
C339 C338 1.379 . S
C339 C341 1.369 . S
C339 H350 0.930 . S
C340 C342 1.383 . S
C340 C343 1.382 . S
C340 H351 0.930 . S
C341 C339 1.369 . S
C341 C343 1.392 . S
C341 H352 0.930 . S
C342 C338 1.373 . S
C342 C340 1.383 . S
C342 H353 0.931 . S
C343 C340 1.382 . S
C343 C341 1.392 . S
C344 Eu315 2.828 . S
C344 O328 1.249 . S
C344 O329 1.244 . S
C344 C338 1.505 . S
C345 O332 1.258 . S
C345 O333 1.242 . S
H346 C318 0.930 . S
H347 C319 0.930 . S
H348 C320 0.930 . S
H349 C321 0.931 . S
H350 C339 0.930 . S
H351 C340 0.930 . S
H352 C341 0.930 . S
H353 C342 0.931 . S
Eu354 C363 2.828 . S
Eu354 O365 2.392 . S
Eu354 O367 2.418 . S
Eu354 O372 2.373 . S
Eu354 O375 2.488 . S
Eu354 O376 2.471 . S
Eu354 O377 2.349 . S
Eu355 O364 2.373 . S
Eu355 O368 2.488 . S
Eu355 O369 2.471 . S
Eu355 O370 2.349 . S
Eu355 O373 2.392 . S
Eu355 O374 2.418 . S
Eu355 C384 2.828 . S
C356 O374 1.244 . S
C356 O377 1.265 . S
C357 C358 1.379 . S
C357 C361 1.373 . S
C357 C363 1.505 . S
C358 C357 1.379 . S
C358 C360 1.369 . S
C358 H386 0.930 . S
C359 C361 1.383 . S
C359 C362 1.382 . S
C359 H387 0.930 . S
C360 C358 1.369 . S
C360 C362 1.392 . S
C360 H388 0.930 . S
C361 C357 1.373 . S
C361 C359 1.383 . S
C361 H389 0.931 . S
C362 C359 1.382 . S
C362 C360 1.392 . S
C363 Eu354 2.828 . S
C363 C357 1.505 . S
C363 O375 1.249 . S
C363 O376 1.244 . S
O364 Eu355 2.373 . S
O364 C366 1.258 . S
O365 Eu354 2.392 . S
O365 C366 1.242 . S
C366 O364 1.258 . S
C366 O365 1.242 . S
O367 Eu354 2.418 . S
O367 C371 1.244 . S
O368 Eu355 2.488 . S
O368 C384 1.249 . S
O369 Eu355 2.471 . S
O369 C384 1.244 . S
O370 Eu355 2.349 . S
O370 C371 1.265 . S
C371 O367 1.244 . S
C371 O370 1.265 . S
O372 Eu354 2.373 . S
O372 C385 1.258 . S
O373 Eu355 2.392 . S
O373 C385 1.242 . S
O374 Eu355 2.418 . S
O374 C356 1.244 . S
O375 Eu354 2.488 . S
O375 C363 1.249 . S
O376 Eu354 2.471 . S
O376 C363 1.244 . S
O377 Eu354 2.349 . S
O377 C356 1.265 . S
C378 C379 1.379 . S
C378 C382 1.373 . S
C378 C384 1.505 . S
C379 C378 1.379 . S
C379 C381 1.369 . S
C379 H390 0.930 . S
C380 C382 1.383 . S
C380 C383 1.382 . S
C380 H391 0.930 . S
C381 C379 1.369 . S
C381 C383 1.392 . S
C381 H392 0.930 . S
C382 C378 1.373 . S
C382 C380 1.383 . S
C382 H393 0.931 . S
C383 C380 1.382 . S
C383 C381 1.392 . S
C384 Eu355 2.828 . S
C384 O368 1.249 . S
C384 O369 1.244 . S
C384 C378 1.505 . S
C385 O372 1.258 . S
C385 O373 1.242 . S
H386 C358 0.930 . S
H387 C359 0.930 . S
H388 C360 0.930 . S
H389 C361 0.931 . S
H390 C379 0.930 . S
H391 C380 0.930 . S
H392 C381 0.930 . S
H393 C382 0.931 . S
Eu394 C403 2.828 . S
Eu394 O405 2.392 . S
Eu394 O407 2.418 . S
Eu394 O412 2.373 . S
Eu394 O415 2.488 . S
Eu394 O416 2.471 . S
Eu394 O417 2.349 . S
Eu395 O404 2.373 . S
Eu395 O408 2.488 . S
Eu395 O409 2.471 . S
Eu395 O410 2.349 . S
Eu395 O413 2.392 . S
Eu395 O414 2.418 . S
Eu395 C424 2.828 . S
C396 O414 1.244 . S
C396 O417 1.265 . S
C397 C398 1.379 . S
C397 C401 1.373 . S
C397 C403 1.505 . S
C398 C397 1.379 . S
C398 C400 1.369 . S
C398 H426 0.930 . S
C399 C401 1.383 . S
C399 C402 1.382 . S
C399 H427 0.930 . S
C400 C398 1.369 . S
C400 C402 1.392 . S
C400 H428 0.930 . S
C401 C397 1.373 . S
C401 C399 1.383 . S
C401 H429 0.931 . S
C402 C399 1.382 . S
C402 C400 1.392 . S
C403 Eu394 2.828 . S
C403 C397 1.505 . S
C403 O415 1.249 . S
C403 O416 1.244 . S
O404 Eu395 2.373 . S
O404 C406 1.258 . S
O405 Eu394 2.392 . S
O405 C406 1.242 . S
C406 O404 1.258 . S
C406 O405 1.242 . S
O407 Eu394 2.418 . S
O407 C411 1.244 . S
O408 Eu395 2.488 . S
O408 C424 1.249 . S
O409 Eu395 2.471 . S
O409 C424 1.244 . S
O410 Eu395 2.349 . S
O410 C411 1.265 . S
C411 O407 1.244 . S
C411 O410 1.265 . S
O412 Eu394 2.373 . S
O412 C425 1.258 . S
O413 Eu395 2.392 . S
O413 C425 1.242 . S
O414 Eu395 2.418 . S
O414 C396 1.244 . S
O415 Eu394 2.488 . S
O415 C403 1.249 . S
O416 Eu394 2.471 . S
O416 C403 1.244 . S
O417 Eu394 2.349 . S
O417 C396 1.265 . S
C418 C419 1.379 . S
C418 C422 1.373 . S
C418 C424 1.505 . S
C419 C418 1.379 . S
C419 C421 1.369 . S
C419 H430 0.930 . S
C420 C422 1.383 . S
C420 C423 1.382 . S
C420 H431 0.930 . S
C421 C419 1.369 . S
C421 C423 1.392 . S
C421 H432 0.930 . S
C422 C418 1.373 . S
C422 C420 1.383 . S
C422 H433 0.931 . S
C423 C420 1.382 . S
C423 C421 1.392 . S
C424 Eu395 2.828 . S
C424 O408 1.249 . S
C424 O409 1.244 . S
C424 C418 1.505 . S
C425 O412 1.258 . S
C425 O413 1.242 . S
H426 C398 0.930 . S
H427 C399 0.930 . S
H428 C400 0.930 . S
H429 C401 0.931 . S
H430 C419 0.930 . S
H431 C420 0.930 . S
H432 C421 0.930 . S
H433 C422 0.931 . S
Eu434 C443 2.828 . S
Eu434 O445 2.392 . S
Eu434 O447 2.418 . S
Eu434 O452 2.373 . S
Eu434 O455 2.488 . S
Eu434 O456 2.471 . S
Eu434 O457 2.349 . S
Eu435 O444 2.373 . S
Eu435 O448 2.488 . S
Eu435 O449 2.471 . S
Eu435 O450 2.349 . S
Eu435 O453 2.392 . S
Eu435 O454 2.418 . S
Eu435 C464 2.828 . S
C436 O454 1.244 . S
C436 O457 1.265 . S
C437 C438 1.379 . S
C437 C441 1.373 . S
C437 C443 1.505 . S
C438 C437 1.379 . S
C438 C440 1.369 . S
C438 H466 0.930 . S
C439 C441 1.383 . S
C439 C442 1.382 . S
C439 H467 0.930 . S
C440 C438 1.369 . S
C440 C442 1.392 . S
C440 H468 0.930 . S
C441 C437 1.373 . S
C441 C439 1.383 . S
C441 H469 0.931 . S
C442 C439 1.382 . S
C442 C440 1.392 . S
C443 Eu434 2.828 . S
C443 C437 1.505 . S
C443 O455 1.249 . S
C443 O456 1.244 . S
O444 Eu435 2.373 . S
O444 C446 1.258 . S
O445 Eu434 2.392 . S
O445 C446 1.242 . S
C446 O444 1.258 . S
C446 O445 1.242 . S
O447 Eu434 2.418 . S
O447 C451 1.244 . S
O448 Eu435 2.488 . S
O448 C464 1.249 . S
O449 Eu435 2.471 . S
O449 C464 1.244 . S
O450 Eu435 2.349 . S
O450 C451 1.265 . S
C451 O447 1.244 . S
C451 O450 1.265 . S
O452 Eu434 2.373 . S
O452 C465 1.258 . S
O453 Eu435 2.392 . S
O453 C465 1.242 . S
O454 Eu435 2.418 . S
O454 C436 1.244 . S
O455 Eu434 2.488 . S
O455 C443 1.249 . S
O456 Eu434 2.471 . S
O456 C443 1.244 . S
O457 Eu434 2.349 . S
O457 C436 1.265 . S
C458 C459 1.379 . S
C458 C462 1.373 . S
C458 C464 1.505 . S
C459 C458 1.379 . S
C459 C461 1.369 . S
C459 H470 0.930 . S
C460 C462 1.383 . S
C460 C463 1.382 . S
C460 H471 0.930 . S
C461 C459 1.369 . S
C461 C463 1.392 . S
C461 H472 0.930 . S
C462 C458 1.373 . S
C462 C460 1.383 . S
C462 H473 0.931 . S
C463 C460 1.382 . S
C463 C461 1.392 . S
C464 Eu435 2.828 . S
C464 O448 1.249 . S
C464 O449 1.244 . S
C464 C458 1.505 . S
C465 O452 1.258 . S
C465 O453 1.242 . S
H466 C438 0.930 . S
H467 C439 0.930 . S
H468 C440 0.930 . S
H469 C441 0.931 . S
H470 C459 0.930 . S
H471 C460 0.930 . S
H472 C461 0.930 . S
H473 C462 0.931 . S
Eu474 C483 2.828 . S
Eu474 O485 2.392 . S
Eu474 O487 2.418 . S
Eu474 O492 2.373 . S
Eu474 O495 2.488 . S
Eu474 O496 2.471 . S
Eu474 O497 2.349 . S
Eu475 O484 2.373 . S
Eu475 O488 2.488 . S
Eu475 O489 2.471 . S
Eu475 O490 2.349 . S
Eu475 O493 2.392 . S
Eu475 O494 2.418 . S
Eu475 C504 2.828 . S
C476 O494 1.244 . S
C476 O497 1.265 . S
C477 C478 1.379 . S
C477 C481 1.373 . S
C477 C483 1.505 . S
C478 C477 1.379 . S
C478 C480 1.369 . S
C478 H506 0.930 . S
C479 C481 1.383 . S
C479 C482 1.382 . S
C479 H507 0.930 . S
C480 C478 1.369 . S
C480 C482 1.392 . S
C480 H508 0.930 . S
C481 C477 1.373 . S
C481 C479 1.383 . S
C481 H509 0.931 . S
C482 C479 1.382 . S
C482 C480 1.392 . S
C483 Eu474 2.828 . S
C483 C477 1.505 . S
C483 O495 1.249 . S
C483 O496 1.244 . S
O484 Eu475 2.373 . S
O484 C486 1.258 . S
O485 Eu474 2.392 . S
O485 C486 1.242 . S
C486 O484 1.258 . S
C486 O485 1.242 . S
O487 Eu474 2.418 . S
O487 C491 1.244 . S
O488 Eu475 2.488 . S
O488 C504 1.249 . S
O489 Eu475 2.471 . S
O489 C504 1.244 . S
O490 Eu475 2.349 . S
O490 C491 1.265 . S
C491 O487 1.244 . S
C491 O490 1.265 . S
O492 Eu474 2.373 . S
O492 C505 1.258 . S
O493 Eu475 2.392 . S
O493 C505 1.242 . S
O494 Eu475 2.418 . S
O494 C476 1.244 . S
O495 Eu474 2.488 . S
O495 C483 1.249 . S
O496 Eu474 2.471 . S
O496 C483 1.244 . S
O497 Eu474 2.349 . S
O497 C476 1.265 . S
C498 C499 1.379 . S
C498 C502 1.373 . S
C498 C504 1.505 . S
C499 C498 1.379 . S
C499 C501 1.369 . S
C499 H510 0.930 . S
C500 C502 1.383 . S
C500 C503 1.382 . S
C500 H511 0.930 . S
C501 C499 1.369 . S
C501 C503 1.392 . S
C501 H512 0.930 . S
C502 C498 1.373 . S
C502 C500 1.383 . S
C502 H513 0.931 . S
C503 C500 1.382 . S
C503 C501 1.392 . S
C504 Eu475 2.828 . S
C504 O488 1.249 . S
C504 O489 1.244 . S
C504 C498 1.505 . S
C505 O492 1.258 . S
C505 O493 1.242 . S
H506 C478 0.930 . S
H507 C479 0.930 . S
H508 C480 0.930 . S
H509 C481 0.931 . S
H510 C499 0.930 . S
H511 C500 0.930 . S
H512 C501 0.930 . S
H513 C502 0.931 . S
Eu514 C523 2.828 . S
Eu514 O525 2.392 . S
Eu514 O527 2.418 . S
Eu514 O532 2.373 . S
Eu514 O535 2.488 . S
Eu514 O536 2.471 . S
Eu514 O537 2.349 . S
Eu515 O524 2.373 . S
Eu515 O528 2.488 . S
Eu515 O529 2.471 . S
Eu515 O530 2.349 . S
Eu515 O533 2.392 . S
Eu515 O534 2.418 . S
Eu515 C544 2.828 . S
C516 O534 1.244 . S
C516 O537 1.265 . S
C517 C518 1.379 . S
C517 C521 1.373 . S
C517 C523 1.505 . S
C518 C517 1.379 . S
C518 C520 1.369 . S
C518 H546 0.930 . S
C519 C521 1.383 . S
C519 C522 1.382 . S
C519 H547 0.930 . S
C520 C518 1.369 . S
C520 C522 1.392 . S
C520 H548 0.930 . S
C521 C517 1.373 . S
C521 C519 1.383 . S
C521 H549 0.931 . S
C522 C519 1.382 . S
C522 C520 1.392 . S
C523 Eu514 2.828 . S
C523 C517 1.505 . S
C523 O535 1.249 . S
C523 O536 1.244 . S
O524 Eu515 2.373 . S
O524 C526 1.258 . S
O525 Eu514 2.392 . S
O525 C526 1.242 . S
C526 O524 1.258 . S
C526 O525 1.242 . S
O527 Eu514 2.418 . S
O527 C531 1.244 . S
O528 Eu515 2.488 . S
O528 C544 1.249 . S
O529 Eu515 2.471 . S
O529 C544 1.244 . S
O530 Eu515 2.349 . S
O530 C531 1.265 . S
C531 O527 1.244 . S
C531 O530 1.265 . S
O532 Eu514 2.373 . S
O532 C545 1.258 . S
O533 Eu515 2.392 . S
O533 C545 1.242 . S
O534 Eu515 2.418 . S
O534 C516 1.244 . S
O535 Eu514 2.488 . S
O535 C523 1.249 . S
O536 Eu514 2.471 . S
O536 C523 1.244 . S
O537 Eu514 2.349 . S
O537 C516 1.265 . S
C538 C539 1.379 . S
C538 C542 1.373 . S
C538 C544 1.505 . S
C539 C538 1.379 . S
C539 C541 1.369 . S
C539 H550 0.930 . S
C540 C542 1.383 . S
C540 C543 1.382 . S
C540 H551 0.930 . S
C541 C539 1.369 . S
C541 C543 1.392 . S
C541 H552 0.930 . S
C542 C538 1.373 . S
C542 C540 1.383 . S
C542 H553 0.931 . S
C543 C540 1.382 . S
C543 C541 1.392 . S
C544 Eu515 2.828 . S
C544 O528 1.249 . S
C544 O529 1.244 . S
C544 C538 1.505 . S
C545 O532 1.258 . S
C545 O533 1.242 . S
H546 C518 0.930 . S
H547 C519 0.930 . S
H548 C520 0.930 . S
H549 C521 0.931 . S
H550 C539 0.930 . S
H551 C540 0.930 . S
H552 C541 0.930 . S
H553 C542 0.931 . S
Eu554 C563 2.828 . S
Eu554 O565 2.392 . S
Eu554 O567 2.418 . S
Eu554 O572 2.373 . S
Eu554 O575 2.488 . S
Eu554 O576 2.471 . S
Eu554 O577 2.349 . S
Eu555 O564 2.373 . S
Eu555 O568 2.488 . S
Eu555 O569 2.471 . S
Eu555 O570 2.349 . S
Eu555 O573 2.392 . S
Eu555 O574 2.418 . S
Eu555 C584 2.828 . S
C556 O574 1.244 . S
C556 O577 1.265 . S
C557 C558 1.379 . S
C557 C561 1.373 . S
C557 C563 1.505 . S
C558 C557 1.379 . S
C558 C560 1.369 . S
C558 H586 0.930 . S
C559 C561 1.383 . S
C559 C562 1.382 . S
C559 H587 0.930 . S
C560 C558 1.369 . S
C560 C562 1.392 . S
C560 H588 0.930 . S
C561 C557 1.373 . S
C561 C559 1.383 . S
C561 H589 0.931 . S
C562 C559 1.382 . S
C562 C560 1.392 . S
C563 Eu554 2.828 . S
C563 C557 1.505 . S
C563 O575 1.249 . S
C563 O576 1.244 . S
O564 Eu555 2.373 . S
O564 C566 1.258 . S
O565 Eu554 2.392 . S
O565 C566 1.242 . S
C566 O564 1.258 . S
C566 O565 1.242 . S
O567 Eu554 2.418 . S
O567 C571 1.244 . S
O568 Eu555 2.488 . S
O568 C584 1.249 . S
O569 Eu555 2.471 . S
O569 C584 1.244 . S
O570 Eu555 2.349 . S
O570 C571 1.265 . S
C571 O567 1.244 . S
C571 O570 1.265 . S
O572 Eu554 2.373 . S
O572 C585 1.258 . S
O573 Eu555 2.392 . S
O573 C585 1.242 . S
O574 Eu555 2.418 . S
O574 C556 1.244 . S
O575 Eu554 2.488 . S
O575 C563 1.249 . S
O576 Eu554 2.471 . S
O576 C563 1.244 . S
O577 Eu554 2.349 . S
O577 C556 1.265 . S
C578 C579 1.379 . S
C578 C582 1.373 . S
C578 C584 1.505 . S
C579 C578 1.379 . S
C579 C581 1.369 . S
C579 H590 0.930 . S
C580 C582 1.383 . S
C580 C583 1.382 . S
C580 H591 0.930 . S
C581 C579 1.369 . S
C581 C583 1.392 . S
C581 H592 0.930 . S
C582 C578 1.373 . S
C582 C580 1.383 . S
C582 H593 0.931 . S
C583 C580 1.382 . S
C583 C581 1.392 . S
C584 Eu555 2.828 . S
C584 O568 1.249 . S
C584 O569 1.244 . S
C584 C578 1.505 . S
C585 O572 1.258 . S
C585 O573 1.242 . S
H586 C558 0.930 . S
H587 C559 0.930 . S
H588 C560 0.930 . S
H589 C561 0.931 . S
H590 C579 0.930 . S
H591 C580 0.930 . S
H592 C581 0.930 . S
H593 C582 0.931 . S
C594 C595 1.387 . S
C594 H598 0.950 . S
C594 C603 1.390 . S
C595 C594 1.387 . S
C595 C597 1.387 . S
H596 C603 0.950 . S
C597 C595 1.387 . S
C597 C599 1.390 . S
C597 H601 0.950 . S
H598 C594 0.950 . S
C599 C597 1.390 . S
C599 C600 1.387 . S
C599 H602 0.950 1_554 S
C600 C599 1.387 . S
C600 C603 1.387 . S
H601 C597 0.950 . S
H602 C599 0.950 1_556 S
C603 C594 1.390 . S
C603 H596 0.950 . S
C603 C600 1.387 . S
C604 C605 1.387 . S
C604 H608 0.950 . S
C604 C613 1.390 . S
C605 C604 1.387 . S
C605 C607 1.387 . S
H606 C613 0.950 . S
C607 C605 1.387 . S
C607 C609 1.390 . S
C607 H611 0.950 . S
H608 C604 0.950 . S
C609 C607 1.390 . S
C609 C610 1.387 . S
C609 H612 0.950 . S
C610 C609 1.387 . S
C610 C613 1.387 . S
H611 C607 0.950 . S
H612 C609 0.950 . S
C613 C604 1.390 . S
C613 H606 0.950 . S
C613 C610 1.387 . S
C614 C615 1.387 . S
C614 H618 0.950 1_554 S
C614 C623 1.390 . S
C615 C614 1.387 . S
C615 C617 1.387 . S
H616 C623 0.950 1_556 S
C617 C615 1.387 . S
C617 C619 1.390 . S
C617 H621 0.950 . S
H618 C614 0.950 1_556 S
C619 C617 1.390 . S
C619 C620 1.387 . S
C619 H622 0.950 . S
C620 C619 1.387 . S
C620 C623 1.387 . S
H621 C617 0.950 . S
H622 C619 0.950 . S
C623 C614 1.390 . S
C623 H616 0.950 1_554 S
C623 C620 1.387 . S
C624 C625 1.387 . S
C624 H628 0.950 . S
C624 C633 1.390 . S
C625 C624 1.387 . S
C625 C627 1.387 . S
H626 C633 0.950 . S
C627 C625 1.387 . S
C627 C629 1.388 1_556 S
C627 H631 0.950 1_556 S
H628 C624 0.950 . S
C629 C627 1.388 1_554 S
C629 C630 1.383 1_554 S
C629 H632 0.957 . S
C630 C629 1.383 1_556 S
C630 C633 1.387 . S
H631 C627 0.950 1_554 S
H632 C629 0.957 . S
C633 C624 1.390 . S
C633 H626 0.950 . S
C633 C630 1.387 . S
C634 C635 1.387 . S
C634 H638 0.950 . S
C634 C643 1.390 . S
C635 C634 1.387 . S
C635 C637 1.387 . S
H636 C643 0.950 1_554 S
C637 C635 1.387 . S
C637 C639 1.390 . S
C637 H641 0.950 . S
H638 C634 0.950 . S
C639 C637 1.390 . S
C639 C640 1.387 . S
C639 H642 0.950 . S
C640 C639 1.387 . S
C640 C643 1.387 . S
H641 C637 0.950 . S
H642 C639 0.950 . S
C643 C634 1.390 . S
C643 H636 0.950 1_556 S
C643 C640 1.387 . S
C644 C645 1.387 1_554 S
C644 H648 0.950 . S
C644 C653 1.390 . S
C645 C644 1.387 1_556 S
C645 C647 1.387 . S
H646 C653 0.950 . S
C647 C645 1.387 . S
C647 C649 1.390 . S
C647 H651 0.950 . S
H648 C644 0.950 . S
C649 C647 1.390 . S
C649 C650 1.387 . S
C649 H652 0.950 . S
C650 C649 1.387 . S
C650 C653 1.387 1_556 S
H651 C647 0.950 . S
H652 C649 0.950 . S
C653 C644 1.390 . S
C653 H646 0.950 . S
C653 C650 1.387 1_554 S
C654 C655 1.387 . S
C654 H658 0.950 . S
C654 C663 1.390 . S
C655 C654 1.387 . S
C655 C657 1.387 . S
H656 C663 0.950 . S
C657 C655 1.387 . S
C657 C659 1.390 . S
C657 H661 0.950 . S
H658 C654 0.950 . S
C659 C657 1.390 . S
C659 C660 1.387 . S
C659 H662 0.950 . S
C660 C659 1.387 . S
C660 C663 1.387 . S
H661 C657 0.950 . S
H662 C659 0.950 . S
C663 C654 1.390 . S
C663 H656 0.950 . S
C663 C660 1.387 . S
C664 C665 1.387 . S
C664 H668 0.950 . S
C664 C673 1.390 . S
C665 C664 1.387 . S
C665 C667 1.387 . S
H666 C673 0.950 . S
C667 C665 1.387 . S
C667 C669 1.390 . S
C667 H671 0.950 . S
H668 C664 0.950 . S
C669 C667 1.390 . S
C669 C670 1.387 . S
C669 H672 0.950 . S
C670 C669 1.387 . S
C670 C673 1.387 . S
H671 C667 0.950 . S
H672 C669 0.950 . S
C673 C664 1.390 . S
C673 H666 0.950 . S
C673 C670 1.387 . S
C674 C675 1.387 . S
C674 H678 0.950 . S
C674 C683 1.390 . S
C675 C674 1.387 . S
C675 C677 1.387 1_556 S
H676 C683 0.950 . S
C677 C675 1.387 1_554 S
C677 C679 1.390 . S
C677 H681 0.950 . S
H678 C674 0.950 . S
C679 C677 1.390 . S
C679 C680 1.387 . S
C679 H682 0.950 . S
C680 C679 1.387 . S
C680 C683 1.387 1_554 S
H681 C677 0.950 . S
H682 C679 0.950 . S
C683 C674 1.390 . S
C683 H676 0.950 . S
C683 C680 1.387 1_556 S
C684 C685 1.387 . S
C684 H688 0.950 . S
C684 C693 1.390 . S
C685 C684 1.387 . S
C685 C687 1.387 . S
H686 C693 0.950 1_556 S
C687 C685 1.387 . S
C687 C689 1.390 . S
C687 H691 0.950 . S
H688 C684 0.950 . S
C689 C687 1.390 . S
C689 C690 1.387 . S
C689 H692 0.950 . S
C690 C689 1.387 . S
C690 C693 1.387 . S
H691 C687 0.950 . S
H692 C689 0.950 . S
C693 C684 1.390 . S
C693 H686 0.950 1_554 S
C693 C690 1.387 . S
C694 C695 1.387 . S
C694 H698 0.950 . S
C694 C703 1.390 . S
C695 C694 1.387 . S
C695 C697 1.387 . S
H696 C703 0.950 . S
C697 C695 1.387 . S
C697 C699 1.390 . S
C697 H701 0.950 . S
H698 C694 0.950 . S
C699 C697 1.390 . S
C699 C700 1.387 . S
C699 H702 0.950 . S
C700 C699 1.387 . S
C700 C703 1.387 . S
H701 C697 0.950 . S
H702 C699 0.950 . S
C703 C694 1.390 . S
C703 H696 0.950 . S
C703 C700 1.387 . S
C704 C705 1.387 . S
C704 H708 0.950 . S
C704 C713 1.390 . S
C705 C704 1.387 . S
C705 C707 1.387 . S
H706 C713 0.950 . S
C707 C705 1.387 . S
C707 C709 1.390 . S
C707 H711 0.950 1_554 S
H708 C704 0.950 . S
C709 C707 1.390 . S
C709 C710 1.387 . S
C709 H712 0.950 1_554 S
C710 C709 1.387 . S
C710 C713 1.387 . S
H711 C707 0.950 1_556 S
H712 C709 0.950 1_556 S
C713 C704 1.390 . S
C713 H706 0.950 . S
C713 C710 1.387 . S
C714 C715 1.387 . S
C714 H718 0.950 . S
C714 C723 1.390 1_655 S
C715 C714 1.387 . S
C715 C717 1.387 . S
H716 C723 0.950 . S
C717 C715 1.387 . S
C717 C719 1.390 1_655 S
C717 H721 0.950 . S
H718 C714 0.950 . S
C719 C717 1.390 1_455 S
C719 C720 1.387 . S
C719 H722 0.950 . S
C720 C719 1.387 . S
C720 C723 1.387 . S
H721 C717 0.950 . S
H722 C719 0.950 . S
C723 C714 1.390 1_455 S
C723 H716 0.950 . S
C723 C720 1.387 . S
C724 C725 1.387 . S
C724 H728 0.950 . S
C724 C733 1.390 . S
C725 C724 1.387 . S
C725 C727 1.387 . S
H726 C733 0.950 . S
C727 C725 1.387 . S
C727 C729 1.390 . S
C727 H731 0.950 . S
H728 C724 0.950 . S
C729 C727 1.390 . S
C729 C730 1.387 . S
C729 H732 0.950 . S
C730 C729 1.387 . S
C730 C733 1.387 . S
H731 C727 0.950 . S
H732 C729 0.950 . S
C733 C724 1.390 . S
C733 H726 0.950 . S
C733 C730 1.387 . S
C734 C735 1.387 . S
C734 H738 0.950 . S
C734 C743 1.390 1_545 S
C735 C734 1.387 . S
C735 C737 1.387 . S
H736 C743 0.950 . S
C737 C735 1.387 . S
C737 C739 1.390 1_545 S
C737 H741 0.950 . S
H738 C734 0.950 . S
C739 C737 1.390 1_565 S
C739 C740 1.387 . S
C739 H742 0.950 . S
C740 C739 1.387 . S
C740 C743 1.387 . S
H741 C737 0.950 . S
H742 C739 0.950 . S
C743 C734 1.390 1_565 S
C743 H736 0.950 . S
C743 C740 1.387 . S
C744 C745 1.387 . S
C744 H748 0.950 . S
C744 C753 1.390 . S
C745 C744 1.387 . S
C745 C747 1.387 . S
H746 C753 0.950 . S
C747 C745 1.387 . S
C747 C749 1.390 . S
C747 H751 0.950 . S
H748 C744 0.950 . S
C749 C747 1.390 . S
C749 C750 1.387 . S
C749 H752 0.950 . S
C750 C749 1.387 . S
C750 C753 1.387 . S
H751 C747 0.950 . S
H752 C749 0.950 . S
C753 C744 1.390 . S
C753 H746 0.950 . S
C753 C750 1.387 . S
C754 C755 1.387 . S
C754 H758 0.950 . S
C754 C763 1.390 . S
C755 C754 1.387 . S
C755 C757 1.387 . S
H756 C763 0.950 . S
C757 C755 1.387 . S
C757 C759 1.390 . S
C757 H761 0.950 . S
H758 C754 0.950 . S
C759 C757 1.390 . S
C759 C760 1.387 . S
C759 H762 0.950 . S
C760 C759 1.387 . S
C760 C763 1.387 . S
H761 C757 0.950 . S
H762 C759 0.950 . S
C763 C754 1.390 . S
C763 H756 0.950 . S
C763 C760 1.387 . S
C764 C765 1.387 . S
C764 H768 0.950 . S
C764 C773 1.390 . S
C765 C764 1.387 . S
C765 C767 1.387 . S
H766 C773 0.950 . S
C767 C765 1.387 . S
C767 C769 1.390 . S
C767 H771 0.950 . S
H768 C764 0.950 . S
C769 C767 1.390 . S
C769 C770 1.387 . S
C769 H772 0.950 . S
C770 C769 1.387 . S
C770 C773 1.387 . S
H771 C767 0.950 . S
H772 C769 0.950 . S
C773 C764 1.390 . S
C773 H766 0.950 . S
C773 C770 1.387 . S
C774 C775 1.387 . S
C774 H778 0.950 . S
C774 C783 1.390 . S
C775 C774 1.387 . S
C775 C777 1.387 . S
H776 C783 0.950 . S
C777 C775 1.387 . S
C777 C779 1.390 . S
C777 H781 0.950 . S
H778 C774 0.950 . S
C779 C777 1.390 . S
C779 C780 1.387 . S
C779 H782 0.950 . S
C780 C779 1.387 . S
C780 C783 1.387 . S
H781 C777 0.950 . S
H782 C779 0.950 . S
C783 C774 1.390 . S
C783 H776 0.950 . S
C783 C780 1.387 . S
C784 C785 1.387 . S
C784 H788 0.950 . S
C784 C793 1.390 . S
C785 C784 1.387 . S
C785 C787 1.387 . S
H786 C793 0.950 . S
C787 C785 1.387 . S
C787 C789 1.390 . S
C787 H791 0.950 . S
H788 C784 0.950 . S
C789 C787 1.390 . S
C789 C790 1.387 . S
C789 H792 0.950 . S
C790 C789 1.387 . S
C790 C793 1.387 . S
H791 C787 0.950 . S
H792 C789 0.950 . S
C793 C784 1.390 . S
C793 H786 0.950 . S
C793 C790 1.387 . S
C794 C795 1.387 . S
C794 H798 0.950 . S
C794 C803 1.390 . S
C795 C794 1.387 . S
C795 C797 1.387 . S
H796 C803 0.950 . S
C797 C795 1.387 . S
C797 C799 1.390 . S
C797 H801 0.950 . S
H798 C794 0.950 . S
C799 C797 1.390 . S
C799 C800 1.387 . S
C799 H802 0.950 . S
C800 C799 1.387 . S
C800 C803 1.387 . S
H801 C797 0.950 . S
H802 C799 0.950 . S
C803 C794 1.390 . S
C803 H796 0.950 . S
C803 C800 1.387 . S
C804 C805 1.387 . S
C804 H808 0.950 . S
C804 C813 1.390 1_545 S
C805 C804 1.387 . S
C805 C807 1.387 . S
H806 C813 0.950 . S
C807 C805 1.387 . S
C807 C809 1.390 . S
C807 H811 0.950 . S
H808 C804 0.950 . S
C809 C807 1.390 . S
C809 C810 1.387 1_545 S
C809 H812 0.950 . S
C810 C809 1.387 1_565 S
C810 C813 1.387 . S
H811 C807 0.950 . S
H812 C809 0.950 . S
C813 C804 1.390 1_565 S
C813 H806 0.950 . S
C813 C810 1.387 . S
C814 C815 1.387 . S
C814 H818 0.950 . S
C814 C823 1.390 1_655 S
C815 C814 1.387 . S
C815 C817 1.387 1_655 S
H816 C823 0.950 . S
C817 C815 1.387 1_455 S
C817 C819 1.390 . S
C817 H821 0.950 . S
H818 C814 0.950 . S
C819 C817 1.390 . S
C819 C820 1.387 . S
C819 H822 0.950 . S
C820 C819 1.387 . S
C820 C823 1.387 . S
H821 C817 0.950 . S
H822 C819 0.950 . S
C823 C814 1.390 1_455 S
C823 H816 0.950 . S
C823 C820 1.387 . S
C824 C825 1.387 . S
C824 H828 0.950 . S
C824 C833 1.390 . S
C825 C824 1.387 . S
C825 C827 1.387 . S
H826 C833 0.950 . S
C827 C825 1.387 . S
C827 C829 1.390 . S
C827 H831 0.950 . S
H828 C824 0.950 . S
C829 C827 1.390 . S
C829 C830 1.387 . S
C829 H832 0.950 . S
C830 C829 1.387 . S
C830 C833 1.387 . S
H831 C827 0.950 . S
H832 C829 0.950 . S
C833 C824 1.390 . S
C833 H826 0.950 . S
C833 C830 1.387 . S
C834 C835 1.387 . S
C834 H838 0.950 . S
C834 C843 1.390 . S
C835 C834 1.387 . S
C835 C837 1.387 . S
H836 C843 0.950 . S
C837 C835 1.387 . S
C837 C839 1.390 . S
C837 H841 0.950 . S
H838 C834 0.950 . S
C839 C837 1.390 . S
C839 C840 1.387 . S
C839 H842 0.950 . S
C840 C839 1.387 . S
C840 C843 1.387 . S
H841 C837 0.950 . S
H842 C839 0.950 . S
C843 C834 1.390 . S
C843 H836 0.950 . S
C843 C840 1.387 . S
C844 C845 1.387 . S
C844 H848 0.950 . S
C844 C853 1.390 . S
C845 C844 1.387 . S
C845 C847 1.387 . S
H846 C853 0.950 . S
C847 C845 1.387 . S
C847 C849 1.390 . S
C847 H851 0.950 . S
H848 C844 0.950 . S
C849 C847 1.390 . S
C849 C850 1.387 . S
C849 H852 0.950 . S
C850 C849 1.387 . S
C850 C853 1.387 . S
H851 C847 0.950 . S
H852 C849 0.950 . S
C853 C844 1.390 . S
C853 H846 0.950 . S
C853 C850 1.387 . S
C854 C855 1.387 . S
C854 H858 0.950 . S
C854 C863 1.390 . S
C855 C854 1.387 . S
C855 C857 1.387 . S
H856 C863 0.950 . S
C857 C855 1.387 . S
C857 C859 1.390 . S
C857 H861 0.950 . S
H858 C854 0.950 . S
C859 C857 1.390 . S
C859 C860 1.387 . S
C859 H862 0.950 . S
C860 C859 1.387 . S
C860 C863 1.387 . S
H861 C857 0.950 . S
H862 C859 0.950 . S
C863 C854 1.390 . S
C863 H856 0.950 . S
C863 C860 1.387 . S
C864 C865 1.387 . S
C864 H868 0.950 . S
C864 C873 1.390 1_565 S
C865 C864 1.387 . S
C865 C867 1.387 . S
H866 C873 0.950 . S
C867 C865 1.387 . S
C867 C869 1.390 1_565 S
C867 H871 0.950 . S
H868 C864 0.950 . S
C869 C867 1.390 1_545 S
C869 C870 1.387 . S
C869 H872 0.950 . S
C870 C869 1.387 . S
C870 C873 1.387 . S
H871 C867 0.950 . S
H872 C869 0.950 . S
C873 C864 1.390 1_545 S
C873 H866 0.950 . S
C873 C870 1.387 . S
C874 C875 1.387 . S
C874 H878 0.950 . S
C874 C883 1.390 1_455 S
C875 C874 1.387 . S
C875 C877 1.387 1_455 S
H876 C883 0.950 . S
C877 C875 1.387 1_655 S
C877 C879 1.390 . S
C877 H881 0.950 . S
H878 C874 0.950 . S
C879 C877 1.390 . S
C879 C880 1.387 . S
C879 H882 0.950 . S
C880 C879 1.387 . S
C880 C883 1.387 . S
H881 C877 0.950 . S
H882 C879 0.950 . S
C883 C874 1.390 1_655 S
C883 H876 0.950 . S
C883 C880 1.387 . S
C884 C885 1.387 . S
C884 H888 0.950 . S
C884 C893 1.390 . S
C885 C884 1.387 . S
C885 C887 1.387 . S
H886 C893 0.950 . S
C887 C885 1.387 . S
C887 C889 1.390 . S
C887 H891 0.950 . S
H888 C884 0.950 . S
C889 C887 1.390 . S
C889 C890 1.387 . S
C889 H892 0.950 . S
C890 C889 1.387 . S
C890 C893 1.387 . S
H891 C887 0.950 . S
H892 C889 0.950 . S
C893 C884 1.390 . S
C893 H886 0.950 . S
C893 C890 1.387 . S
C894 C895 1.387 . S
C894 H898 0.950 . S
C894 C903 1.390 . S
C895 C894 1.387 . S
C895 C897 1.387 . S
H896 C903 0.950 1_655 S
C897 C895 1.387 . S
C897 C899 1.390 . S
C897 H901 0.950 . S
H898 C894 0.950 . S
C899 C897 1.390 . S
C899 C900 1.387 1_455 S
C899 H902 0.950 . S
C900 C899 1.387 1_655 S
C900 C903 1.387 1_655 S
H901 C897 0.950 . S
H902 C899 0.950 . S
C903 C894 1.390 . S
C903 H896 0.950 1_455 S
C903 C900 1.387 1_455 S
C904 C905 1.387 . S
C904 H908 0.950 . S
C904 C913 1.390 . S
C905 C904 1.387 . S
C905 C907 1.387 . S
H906 C913 0.950 . S
C907 C905 1.387 . S
C907 C909 1.390 . S
C907 H911 0.950 . S
H908 C904 0.950 . S
C909 C907 1.390 . S
C909 C910 1.387 . S
C909 H912 0.950 . S
C910 C909 1.387 . S
C910 C913 1.387 . S
H911 C907 0.950 . S
H912 C909 0.950 . S
C913 C904 1.390 . S
C913 H906 0.950 . S
C913 C910 1.387 . S
C914 C915 1.387 . S
C914 H918 0.950 . S
C914 C923 1.390 . S
C915 C914 1.387 . S
C915 C917 1.387 . S
H916 C923 0.950 1_545 S
C917 C915 1.387 . S
C917 C919 1.390 1_565 S
C917 H921 0.950 . S
H918 C914 0.950 . S
C919 C917 1.390 1_545 S
C919 C920 1.387 . S
C919 H922 0.950 . S
C920 C919 1.387 . S
C920 C923 1.387 1_545 S
H921 C917 0.950 . S
H922 C919 0.950 . S
C923 C914 1.390 . S
C923 H916 0.950 1_565 S
C923 C920 1.387 1_565 S
C924 C925 1.387 . S
C924 H928 0.950 . S
C924 C933 1.390 . S
C925 C924 1.387 . S
C925 C927 1.387 . S
H926 C933 0.950 . S
C927 C925 1.387 . S
C927 C929 1.390 . S
C927 H931 0.950 . S
H928 C924 0.950 . S
C929 C927 1.390 . S
C929 C930 1.387 . S
C929 H932 0.950 . S
C930 C929 1.387 . S
C930 C933 1.387 . S
H931 C927 0.950 . S
H932 C929 0.950 . S
C933 C924 1.390 . S
C933 H926 0.950 . S
C933 C930 1.387 . S
C934 C935 1.387 . S
C934 H938 0.950 . S
C934 C943 1.390 . S
C935 C934 1.387 . S
C935 C937 1.387 . S
H936 C943 0.950 . S
C937 C935 1.387 . S
C937 C939 1.390 . S
C937 H941 0.950 . S
H938 C934 0.950 . S
C939 C937 1.390 . S
C939 C940 1.387 . S
C939 H942 0.950 . S
C940 C939 1.387 . S
C940 C943 1.387 . S
H941 C937 0.950 . S
H942 C939 0.950 . S
C943 C934 1.390 . S
C943 H936 0.950 . S
C943 C940 1.387 . S
C944 C945 1.387 . S
C944 H948 0.950 . S
C944 C953 1.390 . S
C945 C944 1.387 . S
C945 C947 1.387 . S
H946 C953 0.950 . S
C947 C945 1.387 . S
C947 C949 1.390 . S
C947 H951 0.950 . S
H948 C944 0.950 . S
C949 C947 1.390 . S
C949 C950 1.387 . S
C949 H952 0.950 . S
C950 C949 1.387 . S
C950 C953 1.387 . S
H951 C947 0.950 . S
H952 C949 0.950 . S
C953 C944 1.390 . S
C953 H946 0.950 . S
C953 C950 1.387 . S
C954 C955 1.387 . S
C954 H958 0.950 . S
C954 C963 1.390 . S
C955 C954 1.387 . S
C955 C957 1.387 . S
H956 C963 0.950 . S
C957 C955 1.387 . S
C957 C959 1.390 . S
C957 H961 0.950 . S
H958 C954 0.950 . S
C959 C957 1.390 . S
C959 C960 1.387 . S
C959 H962 0.950 . S
C960 C959 1.387 . S
C960 C963 1.387 . S
H961 C957 0.950 . S
H962 C959 0.950 . S
C963 C954 1.390 . S
C963 H956 0.950 . S
C963 C960 1.387 . S
C964 C965 1.387 . S
C964 H968 0.950 . S
C964 C973 1.390 . S
C965 C964 1.387 . S
C965 C967 1.387 . S
H966 C973 0.950 . S
C967 C965 1.387 . S
C967 C969 1.390 . S
C967 H971 0.950 1_455 S
H968 C964 0.950 . S
C969 C967 1.390 . S
C969 C970 1.387 . S
C969 H972 0.950 1_455 S
C970 C969 1.387 . S
C970 C973 1.387 . S
H971 C967 0.950 1_655 S
H972 C969 0.950 1_655 S
C973 C964 1.390 . S
C973 H966 0.950 . S
C973 C970 1.387 . S
C974 C975 1.387 . S
C974 H978 0.950 . S
C974 C983 1.390 . S
C975 C974 1.387 . S
C975 C977 1.387 . S
H976 C983 0.950 . S
C977 C975 1.387 . S
C977 C979 1.390 . S
C977 H981 0.950 . S
H978 C974 0.950 . S
C979 C977 1.390 . S
C979 C980 1.387 . S
C979 H982 0.950 . S
C980 C979 1.387 . S
C980 C983 1.387 . S
H981 C977 0.950 . S
H982 C979 0.950 . S
C983 C974 1.390 . S
C983 H976 0.950 . S
C983 C980 1.387 . S
C984 C985 1.387 . S
C984 H988 0.950 . S
C984 C993 1.390 . S
C985 C984 1.387 . S
C985 C987 1.387 . S
H986 C993 0.950 . S
C987 C985 1.387 . S
C987 C989 1.390 . S
C987 H991 0.950 . S
H988 C984 0.950 . S
C989 C987 1.390 . S
C989 C990 1.387 . S
C989 H992 0.950 . S
C990 C989 1.387 . S
C990 C993 1.387 . S
H991 C987 0.950 . S
H992 C989 0.950 . S
C993 C984 1.390 . S
C993 H986 0.950 . S
C993 C990 1.387 . S
C994 C995 1.387 . S
C994 H998 0.950 . S
C994 C1003 1.390 . S
C995 C994 1.387 . S
C995 C997 1.387 . S
H996 C1003 0.950 . S
C997 C995 1.387 . S
C997 C999 1.390 . S
C997 H1001 0.950 . S
H998 C994 0.950 . S
C999 C997 1.390 . S
C999 C1000 1.387 . S
C999 H1002 0.950 . S
C1000 C999 1.387 . S
C1000 C1003 1.387 . S
H1001 C997 0.950 . S
H1002 C999 0.950 . S
C1003 C994 1.390 . S
C1003 H996 0.950 . S
C1003 C1000 1.387 . S
C1004 C1005 1.387 . S
C1004 H1008 0.950 . S
C1004 C1013 1.390 . S
C1005 C1004 1.387 . S
C1005 C1007 1.387 . S
H1006 C1013 0.950 . S
C1007 C1005 1.387 . S
C1007 C1009 1.390 . S
C1007 H1011 0.950 . S
H1008 C1004 0.950 . S
C1009 C1007 1.390 . S
C1009 C1010 1.387 . S
C1009 H1012 0.950 . S
C1010 C1009 1.387 . S
C1010 C1013 1.387 . S
H1011 C1007 0.950 . S
H1012 C1009 0.950 . S
C1013 C1004 1.390 . S
C1013 H1006 0.950 . S
C1013 C1010 1.387 . S
C1014 C1015 1.387 . S
C1014 H1018 0.950 . S
C1014 C1023 1.390 . S
C1015 C1014 1.387 . S
C1015 C1017 1.387 . S
H1016 C1023 0.950 . S
C1017 C1015 1.387 . S
C1017 C1019 1.390 . S
C1017 H1021 0.950 . S
H1018 C1014 0.950 . S
C1019 C1017 1.390 . S
C1019 C1020 1.387 . S
C1019 H1022 0.950 . S
C1020 C1019 1.387 . S
C1020 C1023 1.387 . S
H1021 C1017 0.950 . S
H1022 C1019 0.950 . S
C1023 C1014 1.390 . S
C1023 H1016 0.950 . S
C1023 C1020 1.387 . S
C1024 C1025 1.387 . S
C1024 H1028 0.950 . S
C1024 C1033 1.390 . S
C1025 C1024 1.387 . S
C1025 C1027 1.387 . S
H1026 C1033 0.950 . S
C1027 C1025 1.387 . S
C1027 C1029 1.390 . S
C1027 H1031 0.950 . S
H1028 C1024 0.950 . S
C1029 C1027 1.390 . S
C1029 C1030 1.387 . S
C1029 H1032 0.950 . S
C1030 C1029 1.387 . S
C1030 C1033 1.387 . S
H1031 C1027 0.950 . S
H1032 C1029 0.950 . S
C1033 C1024 1.390 . S
C1033 H1026 0.950 . S
C1033 C1030 1.387 . S
C1034 C1035 1.387 . S
C1034 H1038 0.950 . S
C1034 C1043 1.390 . S
C1035 C1034 1.387 . S
C1035 C1037 1.387 . S
H1036 C1043 0.950 . S
C1037 C1035 1.387 . S
C1037 C1039 1.390 . S
C1037 H1041 0.950 . S
H1038 C1034 0.950 . S
C1039 C1037 1.390 . S
C1039 C1040 1.387 . S
C1039 H1042 0.950 . S
C1040 C1039 1.387 . S
C1040 C1043 1.387 . S
H1041 C1037 0.950 . S
H1042 C1039 0.950 . S
C1043 C1034 1.390 . S
C1043 H1036 0.950 . S
C1043 C1040 1.387 . S
C1044 C1045 1.387 . S
C1044 H1048 0.950 . S
C1044 C1053 1.390 . S
C1045 C1044 1.387 . S
C1045 C1047 1.387 . S
H1046 C1053 0.950 . S
C1047 C1045 1.387 . S
C1047 C1049 1.390 . S
C1047 H1051 0.950 . S
H1048 C1044 0.950 . S
C1049 C1047 1.390 . S
C1049 C1050 1.387 . S
C1049 H1052 0.950 . S
C1050 C1049 1.387 . S
C1050 C1053 1.387 . S
H1051 C1047 0.950 . S
H1052 C1049 0.950 . S
C1053 C1044 1.390 . S
C1053 H1046 0.950 . S
C1053 C1050 1.387 . S
C1054 C1055 1.387 . S
C1054 H1058 0.950 . S
C1054 C1063 1.390 . S
C1055 C1054 1.387 . S
C1055 C1057 1.387 . S
H1056 C1063 0.950 . S
C1057 C1055 1.387 . S
C1057 C1059 1.390 . S
C1057 H1061 0.950 . S
H1058 C1054 0.950 . S
C1059 C1057 1.390 . S
C1059 C1060 1.387 . S
C1059 H1062 0.950 . S
C1060 C1059 1.387 . S
C1060 C1063 1.387 . S
H1061 C1057 0.950 . S
H1062 C1059 0.950 . S
C1063 C1054 1.390 . S
C1063 H1056 0.950 . S
C1063 C1060 1.387 . S
C1064 C1065 1.387 . S
C1064 H1068 0.950 . S
C1064 C1073 1.390 . S
C1065 C1064 1.387 . S
C1065 C1067 1.387 . S
H1066 C1073 0.950 . S
C1067 C1065 1.387 . S
C1067 C1069 1.390 . S
C1067 H1071 0.950 . S
H1068 C1064 0.950 . S
C1069 C1067 1.390 . S
C1069 C1070 1.387 . S
C1069 H1072 0.950 . S
C1070 C1069 1.387 . S
C1070 C1073 1.387 . S
H1071 C1067 0.950 . S
H1072 C1069 0.950 . S
C1073 C1064 1.390 . S
C1073 H1066 0.950 . S
C1073 C1070 1.387 . S
C1074 C1075 1.387 . S
C1074 H1078 0.950 . S
C1074 C1083 1.390 . S
C1075 C1074 1.387 . S
C1075 C1077 1.387 . S
H1076 C1083 0.950 . S
C1077 C1075 1.387 . S
C1077 C1079 1.390 . S
C1077 H1081 0.950 . S
H1078 C1074 0.950 . S
C1079 C1077 1.390 . S
C1079 C1080 1.387 . S
C1079 H1082 0.950 . S
C1080 C1079 1.387 . S
C1080 C1083 1.387 . S
H1081 C1077 0.950 . S
H1082 C1079 0.950 . S
C1083 C1074 1.390 . S
C1083 H1076 0.950 . S
C1083 C1080 1.387 . S
C1084 C1085 1.387 . S
C1084 H1088 0.950 . S
C1084 C1093 1.390 . S
C1085 C1084 1.387 . S
C1085 C1087 1.387 . S
H1086 C1093 0.950 . S
C1087 C1085 1.387 . S
C1087 C1089 1.390 . S
C1087 H1091 0.950 . S
H1088 C1084 0.950 . S
C1089 C1087 1.390 . S
C1089 C1090 1.387 . S
C1089 H1092 0.950 . S
C1090 C1089 1.387 . S
C1090 C1093 1.387 . S
H1091 C1087 0.950 . S
H1092 C1089 0.950 . S
C1093 C1084 1.390 . S
C1093 H1086 0.950 . S
C1093 C1090 1.387 . S
C1094 C1095 1.387 . S
C1094 H1098 0.950 . S
C1094 C1103 1.390 . S
C1095 C1094 1.387 . S
C1095 C1097 1.387 . S
H1096 C1103 0.950 . S
C1097 C1095 1.387 . S
C1097 C1099 1.390 . S
C1097 H1101 0.950 . S
H1098 C1094 0.950 . S
C1099 C1097 1.390 . S
C1099 C1100 1.387 . S
C1099 H1102 0.950 . S
C1100 C1099 1.387 . S
C1100 C1103 1.387 . S
H1101 C1097 0.950 . S
H1102 C1099 0.950 . S
C1103 C1094 1.390 . S
C1103 H1096 0.950 . S
C1103 C1100 1.387 . S
C1104 C1105 1.387 . S
C1104 H1108 0.950 . S
C1104 C1113 1.390 . S
C1105 C1104 1.387 . S
C1105 C1107 1.387 . S
H1106 C1113 0.950 . S
C1107 C1105 1.387 . S
C1107 C1109 1.390 . S
C1107 H1111 0.950 . S
H1108 C1104 0.950 . S
C1109 C1107 1.390 . S
C1109 C1110 1.387 . S
C1109 H1112 0.950 . S
C1110 C1109 1.387 . S
C1110 C1113 1.387 . S
H1111 C1107 0.950 . S
H1112 C1109 0.950 . S
C1113 C1104 1.390 . S
C1113 H1106 0.950 . S
C1113 C1110 1.387 . S
C1114 C1115 1.387 . S
C1114 H1118 0.950 . S
C1114 C1123 1.390 . S
C1115 C1114 1.387 . S
C1115 C1117 1.387 . S
H1116 C1123 0.950 . S
C1117 C1115 1.387 . S
C1117 C1119 1.390 . S
C1117 H1121 0.950 . S
H1118 C1114 0.950 . S
C1119 C1117 1.390 . S
C1119 C1120 1.387 . S
C1119 H1122 0.950 . S
C1120 C1119 1.387 . S
C1120 C1123 1.387 . S
H1121 C1117 0.950 . S
H1122 C1119 0.950 . S
C1123 C1114 1.390 . S
C1123 H1116 0.950 . S
C1123 C1120 1.387 . S
C1124 C1125 1.387 . S
C1124 H1128 0.950 . S
C1124 C1133 1.390 . S
C1125 C1124 1.387 . S
C1125 C1127 1.387 . S
H1126 C1133 0.950 . S
C1127 C1125 1.387 . S
C1127 C1129 1.390 . S
C1127 H1131 0.950 . S
H1128 C1124 0.950 . S
C1129 C1127 1.390 . S
C1129 C1130 1.387 . S
C1129 H1132 0.950 . S
C1130 C1129 1.387 . S
C1130 C1133 1.387 . S
H1131 C1127 0.950 . S
H1132 C1129 0.950 . S
C1133 C1124 1.390 . S
C1133 H1126 0.950 . S
C1133 C1130 1.387 . S
C595 N170 1.976 . S
C600 C246 2.033 . S
C605 N184 1.228 . S
C610 C286 1.227 . S
C615 N158 1.653 . S
C620 C316 1.644 . S
C625 N145 1.559 . S
C630 C276 1.535 1_556 S
C640 C326 0.971 . S
C635 N119 0.971 . S
C645 N131 1.780 . S
C650 C236 1.831 1_556 S
C660 C265 1.742 . S
C655 N144 1.729 . S
C670 C305 1.641 . S
C665 N118 1.656 . S
C675 N132 1.555 . S
C680 C331 1.570 . S
C685 N171 1.491 . S
C690 C291 1.493 . S
C695 N183 1.368 . S
C700 C345 1.377 . S
C710 C251 1.482 . S
C705 N157 1.491 . S
C720 C366 2.034 . S
C715 N14 1.976 . S
C725 N28 1.230 . S
C730 C406 1.228 . S
C735 N2 1.655 . S
C740 C436 1.643 . S
C745 N223 1.558 . S
C750 C396 1.542 . S
C755 N197 0.971 . S
C760 C446 0.970 . S
C765 N209 1.783 . S
C770 C356 1.832 . S
C775 N222 1.728 . S
C780 C385 1.742 . S
C785 N196 1.655 . S
C790 C425 1.643 . S
C800 C451 1.569 . S
C795 N210 1.556 . S
C805 N15 1.490 . S
C810 C411 1.494 . S
C820 C465 1.376 . S
C815 N27 1.369 . S
C825 N1 1.491 . S
C830 C371 1.482 . S
C840 C486 2.032 . S
C835 N92 1.974 . S
C845 N106 1.228 . S
C850 C526 1.227 . S
C860 C556 1.644 . S
C855 N80 1.654 . S
C870 C516 1.542 . S
C865 N67 1.558 . S
C880 C566 0.971 . S
C875 N41 0.971 . S
C885 N53 1.780 . S
C890 C476 1.832 . S
C895 N66 1.729 . S
C900 C505 1.743 . S
C905 N40 1.656 . S
C910 C545 1.641 . S
C920 C571 1.570 . S
C915 N54 1.557 . S
C925 N93 1.491 . S
C930 C531 1.494 . S
C935 N105 1.367 . S
C940 C585 1.376 . S
C945 N79 1.491 . S
C950 C491 1.483 . S
C955 N200 1.171 . S
C960 C263 1.183 . S
C970 C303 1.880 . S
C965 N213 1.880 . S
C975 N226 1.604 . S
C980 C322 1.583 . S
C985 N83 1.810 . S
C990 C282 1.749 . S
C995 N96 1.724 . S
C1000 C343 1.754 . S
C1010 C242 1.319 . S
C1005 N109 1.375 . S
C1015 N44 1.171 . S
C1020 C383 1.184 . S
C1025 N57 1.879 . S
C1030 C423 1.878 . S
C1035 N70 1.603 . S
C1040 C442 1.583 . S
C1045 N161 1.812 . S
C1050 C402 1.751 . S
C1060 C463 1.754 . S
C1055 N174 1.724 . S
C1065 N187 1.375 . S
C1070 C362 1.318 . S
C1075 N122 1.171 . S
C1080 C503 1.183 . S
C1085 N135 1.880 . S
C1090 C543 1.878 . S
C1100 C562 1.582 . S
C1095 N148 1.605 . S
C1105 N5 1.811 . S
C1110 C522 1.752 . S
C1115 N18 1.724 . S
C1120 C583 1.755 . S
C1125 N31 1.374 . S
C1130 C482 1.322 . S
