# Generated by pormake.
# Topology pyr, (3,6)-cn, num edge types: 1
# Building blocks:
#     Node 0, Type 0, BuildingBlock: BETDIP_clean_linker_0, # of connection points: 3
#     Node 1, Type 0, BuildingBlock: BETDIP_clean_linker_0, # of connection points: 3
#     Node 2, Type 0, BuildingBlock: BETDIP_clean_linker_0, # of connection points: 3
#     Node 3, Type 0, BuildingBlock: BETDIP_clean_linker_0, # of connection points: 3
#     Node 4, Type 0, BuildingBlock: BETDIP_clean_linker_0, # of connection points: 3
#     Node 5, Type 0, BuildingBlock: BETDIP_clean_linker_0, # of connection points: 3
#     Node 6, Type 0, BuildingBlock: BETDIP_clean_linker_0, # of connection points: 3
#     Node 7, Type 0, BuildingBlock: BETDIP_clean_linker_0, # of connection points: 3
#     Node 8, Type 1, BuildingBlock: BETDEL_clean_sbu_0, # of connection points: 6
#     Node 9, Type 1, BuildingBlock: BETDEL_clean_sbu_0, # of connection points: 6
#     Node 10, Type 1, BuildingBlock: BETDEL_clean_sbu_0, # of connection points: 6
#     Node 11, Type 1, BuildingBlock: BETDEL_clean_sbu_0, # of connection points: 6
#     Edge 12, Type (0, 1), BuildingBlock: XUDNAN_clean_linker_2, # of connection points: 2
#     Edge 13, Type (0, 1), BuildingBlock: XUDNAN_clean_linker_2, # of connection points: 2
#     Edge 14, Type (0, 1), BuildingBlock: XUDNAN_clean_linker_2, # of connection points: 2
#     Edge 15, Type (0, 1), BuildingBlock: XUDNAN_clean_linker_2, # of connection points: 2
#     Edge 16, Type (0, 1), BuildingBlock: XUDNAN_clean_linker_2, # of connection points: 2
#     Edge 17, Type (0, 1), BuildingBlock: XUDNAN_clean_linker_2, # of connection points: 2
#     Edge 18, Type (0, 1), BuildingBlock: XUDNAN_clean_linker_2, # of connection points: 2
#     Edge 19, Type (0, 1), BuildingBlock: XUDNAN_clean_linker_2, # of connection points: 2
#     Edge 20, Type (0, 1), BuildingBlock: XUDNAN_clean_linker_2, # of connection points: 2
#     Edge 21, Type (0, 1), BuildingBlock: XUDNAN_clean_linker_2, # of connection points: 2
#     Edge 22, Type (0, 1), BuildingBlock: XUDNAN_clean_linker_2, # of connection points: 2
#     Edge 23, Type (0, 1), BuildingBlock: XUDNAN_clean_linker_2, # of connection points: 2
#     Edge 24, Type (0, 1), BuildingBlock: XUDNAN_clean_linker_2, # of connection points: 2
#     Edge 25, Type (0, 1), BuildingBlock: XUDNAN_clean_linker_2, # of connection points: 2
#     Edge 26, Type (0, 1), BuildingBlock: XUDNAN_clean_linker_2, # of connection points: 2
#     Edge 27, Type (0, 1), BuildingBlock: XUDNAN_clean_linker_2, # of connection points: 2
#     Edge 28, Type (0, 1), BuildingBlock: XUDNAN_clean_linker_2, # of connection points: 2
#     Edge 29, Type (0, 1), BuildingBlock: XUDNAN_clean_linker_2, # of connection points: 2
#     Edge 30, Type (0, 1), BuildingBlock: XUDNAN_clean_linker_2, # of connection points: 2
#     Edge 31, Type (0, 1), BuildingBlock: XUDNAN_clean_linker_2, # of connection points: 2
#     Edge 32, Type (0, 1), BuildingBlock: XUDNAN_clean_linker_2, # of connection points: 2
#     Edge 33, Type (0, 1), BuildingBlock: XUDNAN_clean_linker_2, # of connection points: 2
#     Edge 34, Type (0, 1), BuildingBlock: XUDNAN_clean_linker_2, # of connection points: 2
#     Edge 35, Type (0, 1), BuildingBlock: XUDNAN_clean_linker_2, # of connection points: 2
# Relax obj value: 0.065
# Max RMSD: 0.180
# Mean RMSD: 0.130
data_MOF--net-pyr--node1-BETDEL_clean_sbu_0--node2-BETDIP_clean_linker_0--edge1-XUDNAN_clean_linker_2
_symmetry_space_group_name_H-M    P1
_symmetry_Int_Tables_number       1
_symmetry_cell_setting            triclinic
loop_
_symmetry_equiv_pos_as_xyz
'x, y, z'
_cell_length_a     36.029824
_cell_length_b     37.069572
_cell_length_c     36.24396
_cell_angle_alpha  94.278942
_cell_angle_beta   85.817508
_cell_angle_gamma 101.38135
loop_
_atom_site_label
_atom_site_type_symbol
_atom_site_fract_x
_atom_site_fract_y
_atom_site_fract_z
_atom_type_partial_charge
H0 H 0.09786 0.12737 0.15657 0.0
H1 H 0.2004 0.16744 0.09204 0.0
H2 H 0.19265 0.07272 0.15603 0.0
H3 H 0.15998 0.19665 0.06187 0.0
C4 C 0.14164 0.20378 0.08528 0.0
C5 C 0.12609 0.1242 0.14612 0.0
C6 C 0.14242 0.09637 0.15858 0.0
C7 C 0.14644 0.14957 0.12194 0.0
C8 C 0.18391 0.14724 0.10986 0.0
C9 C 0.20059 0.11925 0.12184 0.0
C10 C 0.17959 0.09378 0.146 0.0
N11 N 0.12927 0.17897 0.11358 0.0
H12 H 0.25991 0.85926 0.72101 0.0
H13 H 0.27338 0.77066 0.64129 0.0
H14 H 0.35892 0.81097 0.71968 0.0
H15 H 0.2401 0.81188 0.60529 0.0
C16 C 0.2223 0.82283 0.62707 0.0
C17 C 0.27702 0.83986 0.70907 0.0
C18 C 0.31124 0.83814 0.72423 0.0
C19 C 0.26423 0.81701 0.67833 0.0
C20 C 0.28457 0.7898 0.66366 0.0
C21 C 0.31805 0.78612 0.67993 0.0
C22 C 0.33188 0.81176 0.70885 0.0
N23 N 0.22946 0.82123 0.66484 0.0
H24 H 0.70046 0.39733 0.82597 0.0
H25 H 0.61183 0.30309 0.84171 0.0
H26 H 0.71216 0.31695 0.90252 0.0
H27 H 0.67807 0.38364 0.76291 0.0
C28 C 0.64837 0.38246 0.77166 0.0
C29 C 0.69035 0.37146 0.83869 0.0
C30 C 0.71166 0.36011 0.86546 0.0
C31 C 0.65481 0.35055 0.82938 0.0
C32 C 0.63975 0.31845 0.84792 0.0
C33 C 0.66011 0.30647 0.87479 0.0
C34 C 0.69616 0.32712 0.88281 0.0
N35 N 0.63271 0.36246 0.80316 0.0
H36 H 0.84528 0.57775 0.36397 0.0
H37 H 0.92693 0.67818 0.37859 0.0
H38 H 0.82789 0.65832 0.45238 0.0
H39 H 0.93814 0.67123 0.31862 0.0
C40 C 0.92944 0.64257 0.30906 0.0
C41 C 0.85444 0.60374 0.37945 0.0
C42 C 0.83245 0.61442 0.41053 0.0
C43 C 0.88741 0.62722 0.36661 0.0
C44 C 0.90049 0.66056 0.38697 0.0
C45 C 0.87945 0.67141 0.41854 0.0
C46 C 0.84532 0.64848 0.42973 0.0
N47 N 0.90513 0.61732 0.332 0.0
H48 H 0.80586 0.86632 0.94651 0.0
H49 H 0.90551 0.89533 0.87393 0.0
H50 H 0.81012 0.9473 0.86641 0.0
H51 H 0.91577 0.84065 0.88544 0.0
C52 C 0.9049 0.83603 0.91376 0.0
C53 C 0.82093 0.8823 0.92427 0.0
C54 C 0.80392 0.90781 0.90827 0.0
C55 C 0.8573 0.87716 0.91181 0.0
C56 C 0.8769 0.89801 0.88314 0.0
C57 C 0.86001 0.92315 0.86643 0.0
C58 C 0.82366 0.92834 0.8795 0.0
N59 N 0.87344 0.8512 0.92901 0.0
H60 H 0.7579 0.17543 0.30409 0.0
H61 H 0.74224 0.23086 0.41106 0.0
H62 H 0.68272 0.25266 0.31904 0.0
H63 H 0.78844 0.20339 0.42778 0.0
C64 C 0.79393 0.18237 0.40677 0.0
C65 C 0.7455 0.19562 0.32144 0.0
C66 C 0.71959 0.21364 0.30697 0.0
C67 C 0.75424 0.2016 0.35866 0.0
C68 C 0.73671 0.22646 0.38199 0.0
C69 C 0.71123 0.2455 0.36754 0.0
C70 C 0.70312 0.23898 0.33003 0.0
N71 N 0.77924 0.18037 0.37116 0.0
H72 H 0.33606 0.62522 0.16798 0.0
H73 H 0.41284 0.72538 0.19745 0.0
H74 H 0.33717 0.72251 0.10968 0.0
H75 H 0.40881 0.69612 0.25482 0.0
C76 C 0.40712 0.66728 0.24578 0.0
C77 C 0.34737 0.65399 0.16348 0.0
C78 C 0.33304 0.67139 0.13596 0.0
C79 C 0.37548 0.67315 0.18616 0.0
C80 C 0.39026 0.71066 0.18079 0.0
C81 C 0.37689 0.72882 0.15283 0.0
C82 C 0.34801 0.70888 0.13082 0.0
N83 N 0.38903 0.6529 0.21263 0.0
H84 H 0.09982 0.31888 0.65078 0.0
H85 H 0.17046 0.42622 0.65983 0.0
H86 H 0.19867 0.34465 0.57694 0.0
H87 H 0.10557 0.33086 0.71743 0.0
C88 C 0.09914 0.35841 0.7201 0.0
C89 C 0.12474 0.33815 0.64129 0.0
C90 C 0.14744 0.32824 0.61054 0.0
C91 C 0.13362 0.37331 0.65934 0.0
C92 C 0.16459 0.39897 0.64597 0.0
C93 C 0.18879 0.38905 0.61634 0.0
C94 C 0.1798 0.35348 0.59889 0.0
N95 N 0.11269 0.38317 0.69189 0.0
Dy96 Dy 0.02402 1.00021 0.47178 0.0
C97 C 0.97999 0.99925 0.62677 0.0
C98 C 0.04013 0.00927 0.39807 0.0
Dy99 Dy 0.99793 1.00431 0.55262 0.0
O100 O 1.00624 1.00176 0.41382 0.0
O101 O 0.06523 0.01214 0.42258 0.0
O102 O 0.05611 0.9559 0.48044 0.0
O103 O 0.05093 0.99626 0.52351 0.0
C104 C 0.06206 0.9663 0.51485 0.0
C105 C 0.95855 0.03689 0.50917 0.0
O106 O 0.04764 0.05081 0.55139 0.0
O107 O 0.04372 0.0597 0.48965 0.0
O108 O 0.98026 0.0279 0.60838 0.0
O109 O 0.98979 0.97303 0.6047 0.0
O110 O 0.96426 0.04725 0.54347 0.0
O111 O 0.97052 0.00736 0.50093 0.0
O112 O 0.98221 0.94743 0.47213 0.0
O113 O 0.97231 0.94556 0.53605 0.0
C114 C 0.05539 0.0719 0.52288 0.0
C115 C 0.96822 0.92992 0.50209 0.0
Dy116 Dy 0.53393 0.04453 0.05429 0.0
C117 C 0.43343 0.97217 0.94102 0.0
C118 C 0.58336 0.09416 0.095 0.0
Dy119 Dy 0.48567 1.00511 0.99003 0.0
O120 O 0.59205 0.07868 0.063 0.0
O121 O 0.54776 0.08265 0.1045 0.0
O122 O 0.52018 1.00198 0.09645 0.0
O123 O 0.49574 0.991 0.04546 0.0
C124 C 0.49739 0.97807 0.07656 0.0
C125 C 0.53452 0.06849 0.97434 0.0
O126 O 0.44219 0.02419 0.02988 0.0
O127 O 0.48281 0.07078 0.06145 0.0
O128 O 0.43965 0.00674 0.95223 0.0
O129 O 0.45549 0.95507 0.95708 0.0
O130 O 0.52562 0.04108 0.95019 0.0
O131 O 0.51509 0.06144 0.00405 0.0
O132 O 0.57515 0.01808 0.01734 0.0
O133 O 0.5324 0.97356 0.98542 0.0
C134 C 0.44829 0.05426 0.05247 0.0
C135 C 0.5671 0.9875 0.9956 0.0
Dy136 Dy 0.51634 0.47751 0.49138 0.0
C137 C 0.46519 0.60224 0.57126 0.0
C138 C 0.54963 0.4198 0.46438 0.0
Dy139 Dy 0.50078 0.5495 0.53594 0.0
O140 O 0.52064 0.41766 0.48815 0.0
O141 O 0.5597 0.45342 0.45413 0.0
O142 O 0.45341 0.45721 0.48837 0.0
O143 O 0.47494 0.49155 0.53385 0.0
C144 C 0.44521 0.47639 0.51841 0.0
C145 C 0.57166 0.55176 0.50718 0.0
O146 O 0.50869 0.51441 0.58168 0.0
O147 O 0.54485 0.47875 0.5453 0.0
O148 O 0.49734 0.59518 0.57982 0.0
O149 O 0.45248 0.58063 0.54321 0.0
O150 O 0.564 0.5726 0.53611 0.0
O151 O 0.54149 0.5355 0.49358 0.0
O152 O 0.50107 0.50646 0.44396 0.0
O153 O 0.48077 0.55545 0.47901 0.0
C154 C 0.53269 0.49122 0.57837 0.0
C155 C 0.48535 0.53635 0.44681 0.0
Dy156 Dy 0.02026 0.4838 0.01973 0.0
C157 C 1.00283 0.629 0.9895 0.0
C158 C 0.03835 0.42145 0.04235 0.0
Dy159 Dy 0.01765 0.56026 0.99005 0.0
O160 O 0.03387 0.45007 0.06378 0.0
O161 O 0.03262 0.42656 0.00829 0.0
O162 O 0.97338 0.49274 0.06231 0.0
O163 O 0.01294 0.53741 0.04369 0.0
C164 C 0.98335 0.52843 0.06401 0.0
C165 C 0.03493 0.5101 0.93839 0.0
O166 O 0.07521 0.5747 0.01343 0.0
O167 O 0.07998 0.51513 0.02716 0.0
O168 O 0.02962 0.61718 0.96871 0.0
O169 O 0.98446 0.60335 0.0101 0.0
O170 O 0.01982 0.5376 0.93077 0.0
O171 O 0.04397 0.51382 0.97158 0.0
O172 O 0.97058 0.46759 0.9843 0.0
O173 O 0.95912 0.52692 0.98085 0.0
C174 C 0.09442 0.55098 0.02515 0.0
C175 C 0.94924 0.49053 0.97529 0.0
H176 H 0.16995 0.0809 0.22249 0.0
H177 H 0.06811 0.0609 0.16125 0.0
H178 H 0.03145 0.03071 0.21467 0.0
H179 H 0.14683 0.99455 0.27394 0.0
H180 H 0.16704 0.01821 0.31522 0.0
H181 H 0.18605 0.03298 0.27023 0.0
H182 H 0.17546 0.09903 0.2898 0.0
H183 H 0.15596 0.08445 0.33456 0.0
H184 H 0.12869 0.10589 0.30599 0.0
H185 H 1.00466 0.01048 0.27713 0.0
H186 H 0.99013 0.99912 0.34352 0.0
H187 H 0.10969 0.03173 0.3635 0.0
C188 C 0.14024 0.06893 0.21982 0.0
C189 C 0.12185 0.07291 0.18772 0.0
C190 C 0.08265 0.05805 0.18568 0.0
C191 C 0.06169 0.04077 0.21578 0.0
C192 C 0.08044 0.0384 0.24753 0.0
C193 C 0.11894 0.05169 0.2496 0.0
C194 C 0.13168 0.04863 0.28792 0.0
C195 C 0.15955 0.022 0.28675 0.0
C196 C 0.14895 0.08677 0.30559 0.0
C197 C 0.09414 0.03269 0.30742 0.0
C198 C 0.06497 0.02665 0.28358 0.0
C199 C 0.02734 0.01443 0.2959 0.0
C200 C 0.01934 0.00823 0.3336 0.0
C201 C 0.04886 0.01438 0.35834 0.0
C202 C 0.08668 0.02641 0.34499 0.0
H203 H 0.34928 0.82325 0.78316 0.0
H204 H 0.30494 0.91068 0.73836 0.0
H205 H 0.32653 0.95218 0.79201 0.0
H206 H 0.32932 0.84614 0.88034 0.0
H207 H 0.37308 0.83628 0.89436 0.0
H208 H 0.35151 0.81213 0.85394 0.0
H209 H 0.41362 0.83321 0.81407 0.0
H210 H 0.43547 0.85715 0.85439 0.0
H211 H 0.43413 0.88166 0.81353 0.0
H212 H 0.35416 0.98482 0.8492 0.0
H213 H 0.39064 0.00817 0.90388 0.0
H214 H 0.42077 0.90114 0.90991 0.0
C215 C 0.34425 0.85116 0.78436 0.0
C216 C 0.32495 0.86341 0.75647 0.0
C217 C 0.31877 0.90017 0.75963 0.0
C218 C 0.3311 0.92409 0.78996 0.0
C219 C 0.34991 0.91105 0.81684 0.0
C220 C 0.35684 0.8756 0.81419 0.0
C221 C 0.3797 0.86922 0.84578 0.0
C222 C 0.35704 0.83916 0.87004 0.0
C223 C 0.418 0.85976 0.83105 0.0
C224 C 0.38488 0.90681 0.86637 0.0
C225 C 0.36699 0.93031 0.84941 0.0
C226 C 0.36823 0.96669 0.86277 0.0
C227 C 0.38897 0.97966 0.89386 0.0
C228 C 0.40845 0.95643 0.91103 0.0
C229 C 0.40593 0.91939 0.89741 0.0
H230 H 0.6639 0.40019 0.69957 0.0
H231 H 0.57881 0.40117 0.79039 0.0
H232 H 0.54069 0.43022 0.75138 0.0
H233 H 0.65779 0.48617 0.66327 0.0
H234 H 0.66316 0.46999 0.61541 0.0
H235 H 0.68399 0.44994 0.65061 0.0
H236 H 0.64793 0.38501 0.62933 0.0
H237 H 0.62714 0.40485 0.59394 0.0
H238 H 0.5971 0.37691 0.62717 0.0
H239 H 0.51324 0.46201 0.70278 0.0
H240 H 0.49558 0.48798 0.64713 0.0
H241 H 0.59634 0.46227 0.58638 0.0
C242 C 0.63718 0.40649 0.71118 0.0
C243 C 0.62435 0.39851 0.74807 0.0
C244 C 0.58914 0.40689 0.76221 0.0
C245 C 0.56738 0.42355 0.74026 0.0
C246 C 0.58091 0.43119 0.70401 0.0
C247 C 0.61477 0.42243 0.68939 0.0
C248 C 0.62233 0.43233 0.64924 0.0
C249 C 0.65899 0.46133 0.64436 0.0
C250 C 0.6237 0.39771 0.6234 0.0
C251 C 0.58764 0.44834 0.64358 0.0
C252 C 0.56431 0.44784 0.67564 0.0
C253 C 0.53118 0.46223 0.67748 0.0
C254 C 0.52146 0.4771 0.64573 0.0
C255 C 0.54441 0.47705 0.61226 0.0
C256 C 0.57797 0.46245 0.6114 0.0
H257 H 0.90848 0.575 0.27087 0.0
H258 H 0.9718 0.68638 0.25909 0.0
H259 H 0.98766 0.67049 0.19317 0.0
H260 H 0.9718 0.52958 0.21386 0.0
H261 H 0.93506 0.49499 0.19393 0.0
H262 H 0.92714 0.51569 0.23961 0.0
H263 H 0.86688 0.53489 0.21882 0.0
H264 H 0.87482 0.5145 0.17292 0.0
H265 H 0.87039 0.56219 0.17913 0.0
H266 H 0.99984 0.64198 0.13045 0.0
H267 H 0.00958 0.60204 0.07478 0.0
H268 H 0.93629 0.50932 0.1256 0.0
C269 C 0.92555 0.59607 0.25438 0.0
C270 C 0.93899 0.63199 0.26995 0.0
C271 C 0.96132 0.65873 0.24756 0.0
C272 C 0.97028 0.65002 0.21013 0.0
C273 C 0.95648 0.61447 0.19553 0.0
C274 C 0.93466 0.58786 0.21688 0.0
C275 C 0.92471 0.55136 0.19459 0.0
C276 C 0.94064 0.52113 0.2115 0.0
C277 C 0.88164 0.54008 0.19117 0.0
C278 C 0.94503 0.56145 0.15759 0.0
C279 C 0.96289 0.5981 0.15877 0.0
C280 C 0.98543 0.61343 0.12892 0.0
C281 C 0.99053 0.59055 0.09725 0.0
C282 C 0.97293 0.55281 0.09549 0.0
C283 C 0.94936 0.53826 0.12586 0.0
H284 H 0.22918 0.05923 0.09402 0.0
H285 H 0.26213 0.17551 0.12648 0.0
H286 H 0.32969 0.1716 0.11322 0.0
H287 H 0.30532 0.02927 0.13231 0.0
H288 H 0.3108 0.99552 0.09489 0.0
H289 H 0.26519 0.00774 0.10627 0.0
H290 H 0.26214 0.02484 0.03862 0.0
H291 H 0.30759 0.01237 0.02696 0.0
H292 H 0.30043 0.05768 0.0183 0.0
H293 H 0.39371 0.15385 0.09942 0.0
H294 H 0.44909 0.12516 0.08041 0.0
H295 H 0.37344 0.02103 0.0552 0.0
C296 C 0.25067 0.08387 0.09815 0.0
C297 C 0.24066 0.11767 0.11122 0.0
C298 C 0.26937 0.14946 0.11611 0.0
C299 C 0.30772 0.14743 0.10891 0.0
C300 C 0.31669 0.11349 0.09653 0.0
C301 C 0.28894 0.08241 0.09073 0.0
C302 C 0.30597 0.0494 0.07681 0.0
C303 C 0.29624 0.01868 0.10421 0.0
C304 C 0.29328 0.03525 0.03785 0.0
C305 C 0.34767 0.06668 0.0759 0.0
C306 C 0.35335 0.10357 0.08767 0.0
C307 C 0.38961 0.12505 0.08991 0.0
C308 C 0.42086 0.10847 0.07925 0.0
C309 C 0.41553 0.07093 0.06619 0.0
C310 C 0.37842 0.04986 0.06479 0.0
H311 H 0.19739 0.82947 0.5585 0.0
H312 H 0.18476 0.86696 0.67428 0.0
H313 H 0.14222 0.90704 0.65825 0.0
H314 H 0.19804 0.9153 0.52017 0.0
H315 H 0.17055 0.89568 0.48141 0.0
H316 H 0.19945 0.86898 0.50186 0.0
H317 H 0.14069 0.81713 0.51266 0.0
H318 H 0.11166 0.84361 0.49203 0.0
H319 H 0.09899 0.82806 0.53803 0.0
H320 H 0.10409 0.9464 0.62932 0.0
H321 H 0.0692 0.97822 0.58967 0.0
H322 H 0.10328 0.91302 0.4934 0.0
C323 C 0.18535 0.84588 0.58045 0.0
C324 C 0.19448 0.84497 0.61759 0.0
C325 C 0.17821 0.86692 0.64559 0.0
C326 C 0.154 0.88996 0.63679 0.0
C327 C 0.14588 0.89054 0.5999 0.0
C328 C 0.16064 0.86875 0.57221 0.0
C329 C 0.14716 0.87451 0.53479 0.0
C330 C 0.18081 0.88951 0.50799 0.0
C331 C 0.1232 0.83869 0.51842 0.0
C332 C 0.12303 0.90327 0.54576 0.0
C333 C 0.12284 0.91231 0.58343 0.0
C334 C 0.10369 0.93925 0.59983 0.0
C335 C 0.08403 0.95723 0.57715 0.0
C336 C 0.08334 0.94789 0.53862 0.0
C337 C 0.10306 0.9205 0.52287 0.0
H338 H 0.74729 0.36504 0.93227 0.0
H339 H 0.76368 0.40703 0.82204 0.0
H340 H 0.82375 0.44622 0.83948 0.0
H341 H 0.78913 0.4463 0.98379 0.0
H342 H 0.81265 0.42278 0.01404 0.0
H343 H 0.76944 0.39926 0.99403 0.0
H344 H 0.80311 0.347 0.96612 0.0
H345 H 0.84637 0.37019 0.98629 0.0
H346 H 0.84612 0.35831 0.93716 0.0
H347 H 0.88126 0.48338 0.86968 0.0
H348 H 0.93555 0.50967 0.90782 0.0
H349 H 0.88701 0.43751 0.99487 0.0
C350 C 0.76345 0.38184 0.91128 0.0
C351 C 0.7495 0.38289 0.8757 0.0
C352 C 0.77226 0.40618 0.84989 0.0
C353 C 0.80692 0.42847 0.8594 0.0
C354 C 0.81938 0.42678 0.8946 0.0
C355 C 0.79873 0.4035 0.91988 0.0
C356 C 0.81955 0.40554 0.95523 0.0
C357 C 0.7963 0.41929 0.98875 0.0
C358 C 0.82937 0.36803 0.96156 0.0
C359 C 0.85498 0.43386 0.94596 0.0
C360 C 0.85395 0.4462 0.91103 0.0
C361 C 0.88254 0.47361 0.89687 0.0
C362 C 0.91314 0.48852 0.91877 0.0
C363 C 0.91541 0.47551 0.95409 0.0
C364 C 0.88601 0.44771 0.96779 0.0
H365 H 0.79551 0.60783 0.48001 0.0
H366 H 0.78148 0.57235 0.36387 0.0
H367 H 0.71542 0.5438 0.37916 0.0
H368 H 0.7254 0.53106 0.52178 0.0
H369 H 0.70855 0.56219 0.55671 0.0
H370 H 0.75731 0.57162 0.5389 0.0
H371 H 0.74929 0.63607 0.52146 0.0
H372 H 0.70055 0.62677 0.53882 0.0
H373 H 0.71229 0.6395 0.49173 0.0
H374 H 0.64923 0.52726 0.4042 0.0
H375 H 0.58675 0.5256 0.4371 0.0
H376 H 0.64114 0.57732 0.53577 0.0
C377 C 0.77885 0.59367 0.45773 0.0
C378 C 0.79427 0.59233 0.42068 0.0
C379 C 0.77117 0.5731 0.39265 0.0
C380 C 0.7333 0.55689 0.40101 0.0
C381 C 0.7187 0.56033 0.43743 0.0
C382 C 0.74069 0.57825 0.4654 0.0
C383 C 0.71683 0.58274 0.50105 0.0
C384 C 0.72767 0.56057 0.5314 0.0
C385 C 0.71993 0.6237 0.514 0.0
C386 C 0.67776 0.56609 0.4882 0.0
C387 C 0.6797 0.55239 0.4517 0.0
C388 C 0.64735 0.53736 0.43294 0.0
C389 C 0.61202 0.53659 0.45185 0.0
C390 C 0.60933 0.55123 0.48894 0.0
C391 C 0.64258 0.56586 0.50745 0.0
H392 H 0.13525 0.24419 0.02661 0.0
H393 H 0.11126 0.23876 0.14539 0.0
H394 H 0.08187 0.29346 0.14671 0.0
H395 H 0.15648 0.34396 0.02526 0.0
H396 H 0.1337 0.34474 0.98275 0.0
H397 H 0.15419 0.30575 0.99113 0.0
H398 H 0.08963 0.26219 0.98067 0.0
H399 H 0.0689 0.30108 0.9725 0.0
H400 H 0.04787 0.27042 0.00791 0.0
H401 H 0.05608 0.34862 0.13591 0.0
H402 H 0.03359 0.40109 0.11297 0.0
H403 H 0.07063 0.36967 1.00064 0.0
C404 C 0.12397 0.25477 0.05283 0.0
C405 C 0.12537 0.23732 0.08584 0.0
C406 C 0.11019 0.25159 0.11971 0.0
C407 C 0.09352 0.28269 0.12079 0.0
C408 C 0.09203 0.29899 0.08773 0.0
C409 C 0.10668 0.28559 0.05433 0.0
C410 C 0.10042 0.30797 0.02279 0.0
C411 C 0.13846 0.32672 0.00441 0.0
C412 C 0.0752 0.28397 0.99429 0.0
C413 C 0.08002 0.33596 0.04378 0.0
C414 C 0.07579 0.33035 0.08125 0.0
C415 C 0.05896 0.35322 0.10662 0.0
C416 C 0.0463 0.38287 0.09336 0.0
C417 C 0.05014 0.38902 0.05512 0.0
C418 C 0.06692 0.36512 0.02997 0.0
H419 H 0.62519 0.237 0.84789 0.0
H420 H 0.65692 0.3012 0.94969 0.0
H421 H 0.62946 0.2473 0.98571 0.0
H422 H 0.53626 0.18493 0.88425 0.0
H423 H 0.54135 0.14265 0.8582 0.0
H424 H 0.56319 0.18636 0.84029 0.0
H425 H 0.62842 0.16638 0.83495 0.0
H426 H 0.60677 0.12265 0.85295 0.0
H427 H 0.64617 0.15143 0.87529 0.0
H428 H 0.59593 0.1874 0.01116 0.0
H429 H 0.56165 0.12459 0.02392 0.0
H430 H 0.55503 0.097 0.9059 0.0
C431 C 0.62621 0.23968 0.87777 0.0
C432 C 0.64328 0.27341 0.89596 0.0
C433 C 0.64434 0.27564 0.9351 0.0
C434 C 0.62867 0.24518 0.95583 0.0
C435 C 0.61225 0.21235 0.93711 0.0
C436 C 0.61113 0.20925 0.89895 0.0
C437 C 0.59228 0.17049 0.88578 0.0
C438 C 0.55613 0.17116 0.86596 0.0
C439 C 0.62008 0.15163 0.86076 0.0
C440 C 0.58286 0.15241 0.92249 0.0
C441 C 0.59436 0.17722 0.95174 0.0
C442 C 0.58727 0.16762 0.98843 0.0
C443 C 0.56788 0.13181 0.99544 0.0
C444 C 0.55631 0.10567 0.96598 0.0
C445 C 0.56415 0.11617 0.92899 0.0
H446 H 0.90789 0.73769 0.3885 0.0
H447 H 0.8776 0.68744 0.49368 0.0
H448 H 0.89416 0.74869 0.52674 0.0
H449 H 0.9887 0.80396 0.41925 0.0
H450 H 0.97996 0.83939 0.39142 0.0
H451 H 0.96537 0.79158 0.37649 0.0
H452 H 0.8966 0.80169 0.3726 0.0
H453 H 0.9109 0.84944 0.38797 0.0
H454 H 0.87272 0.82035 0.41287 0.0
H455 H 0.91424 0.81561 0.54816 0.0
H456 H 0.93916 0.88254 0.55644 0.0
H457 H 0.9565 0.88813 0.43694 0.0
C458 C 0.90522 0.73944 0.41851 0.0
C459 C 0.89149 0.7078 0.43853 0.0
C460 C 0.88775 0.71141 0.47778 0.0
C461 C 0.89713 0.74603 0.49678 0.0
C462 C 0.91019 0.77671 0.47613 0.0
C463 C 0.91445 0.77369 0.43788 0.0
C464 C 0.92941 0.8108 0.42219 0.0
C465 C 0.96816 0.81146 0.40111 0.0
C466 C 0.90068 0.82117 0.39745 0.0
C467 C 0.93305 0.83518 0.4576 0.0
C468 C 0.9217 0.81508 0.48842 0.0
C469 C 0.92315 0.83166 0.52422 0.0
C470 C 0.93723 0.86972 0.52862 0.0
C471 C 0.94972 0.89068 0.49736 0.0
C472 C 0.94704 0.87306 0.46145 0.0
H473 H 0.3308 0.75203 0.60986 0.0
H474 H 0.34983 0.74791 0.72642 0.0
H475 H 0.3892 0.70154 0.71061 0.0
H476 H 0.32372 0.65149 0.58916 0.0
H477 H 0.34671 0.65702 0.54352 0.0
H478 H 0.31936 0.69017 0.56355 0.0
H479 H 0.37765 0.74262 0.55355 0.0
H480 H 0.40526 0.7096 0.53384 0.0
H481 H 0.42174 0.74011 0.57284 0.0
H482 H 0.4317 0.66094 0.68292 0.0
H483 H 0.46751 0.61988 0.64481 0.0
H484 H 0.41643 0.64279 0.54656 0.0
C485 C 0.34279 0.741 0.63207 0.0
C486 C 0.33807 0.75479 0.66934 0.0
C487 C 0.35412 0.73916 0.69751 0.0
C488 C 0.37636 0.71246 0.6889 0.0
C489 C 0.38166 0.70057 0.65201 0.0
C490 C 0.36468 0.71348 0.62403 0.0
C491 C 0.3747 0.69497 0.58675 0.0
C492 C 0.33899 0.67204 0.56975 0.0
C493 C 0.39611 0.72353 0.56018 0.0
C494 C 0.40044 0.67036 0.59832 0.0
C495 C 0.40431 0.67454 0.63611 0.0
C496 C 0.42841 0.65684 0.65337 0.0
C497 C 0.44879 0.63377 0.63152 0.0
C498 C 0.4444 0.62799 0.59298 0.0
C499 C 0.41981 0.64642 0.57613 0.0
H500 H 0.89646 0.89364 0.80642 0.0
H501 H 0.86756 0.99631 0.85361 0.0
H502 H 0.89947 0.02806 0.79885 0.0
H503 H 0.98946 0.93313 0.76435 0.0
H504 H 0.98401 0.90154 0.72394 0.0
H505 H 0.96098 0.88757 0.76782 0.0
H506 H 0.8961 0.87144 0.7379 0.0
H507 H 0.9189 0.88529 0.69397 0.0
H508 H 0.88024 0.90603 0.71396 0.0
H509 H 0.93197 0.04771 0.73807 0.0
H510 H 0.96049 0.05359 0.67423 0.0
H511 H 0.9683 0.93795 0.66696 0.0
C512 C 0.89743 0.92296 0.80553 0.0
C513 C 0.87985 0.94267 0.8343 0.0
C514 C 0.8808 0.98076 0.83174 0.0
C515 C 0.89905 0.99901 0.80094 0.0
C516 C 0.9161 0.97871 0.77305 0.0
C517 C 0.91537 0.94151 0.77502 0.0
C518 C 0.93402 0.92557 0.74048 0.0
C519 C 0.96921 0.91111 0.74971 0.0
C520 C 0.90561 0.89531 0.7204 0.0
C521 C 0.94492 0.95954 0.71846 0.0
C522 C 0.93463 0.98996 0.73789 0.0
C523 C 0.94042 0.02417 0.72271 0.0
C524 C 0.95661 0.02723 0.68649 0.0
C525 C 0.96664 0.99623 0.66592 0.0
C526 C 0.96122 0.96214 0.6823 0.0
H527 H 0.6469 0.1975 0.28556 0.0
H528 H 0.76358 0.20435 0.24308 0.0
H529 H 0.74137 0.18018 0.18133 0.0
H530 H 0.61132 0.11392 0.24068 0.0
H531 H 0.56646 0.12492 0.23147 0.0
H532 H 0.59163 0.14744 0.27049 0.0
H533 H 0.59064 0.21128 0.24626 0.0
H534 H 0.56521 0.18893 0.20716 0.0
H535 H 0.60913 0.22123 0.19978 0.0
H536 H 0.70589 0.14981 0.12593 0.0
H537 H 0.66023 0.11447 0.08233 0.0
H538 H 0.56729 0.12749 0.16198 0.0
C539 C 0.66783 0.19504 0.26298 0.0
C540 C 0.70696 0.20317 0.26893 0.0
C541 C 0.73345 0.19831 0.23902 0.0
C542 C 0.7211 0.18482 0.20386 0.0
C543 C 0.68221 0.17641 0.19913 0.0
C544 C 0.656 0.18147 0.22791 0.0
C545 C 0.61583 0.1674 0.21673 0.0
C546 C 0.59512 0.13659 0.24129 0.0
C547 C 0.59392 0.19911 0.21752 0.0
C548 C 0.62347 0.15262 0.17749 0.0
C549 C 0.66188 0.15852 0.16757 0.0
C550 C 0.67575 0.14547 0.13324 0.0
C551 C 0.64968 0.12544 0.10869 0.0
C552 C 0.61038 0.11845 0.11887 0.0
C553 C 0.59721 0.13274 0.15342 0.0
H554 H 0.42464 0.68112 0.31877 0.0
H555 H 0.41668 0.59595 0.22931 0.0
H556 H 0.4359 0.55378 0.27066 0.0
H557 H 0.50605 0.66009 0.3596 0.0
H558 H 0.48868 0.66882 0.40668 0.0
H559 H 0.47505 0.69268 0.36988 0.0
H560 H 0.40423 0.66895 0.38888 0.0
H561 H 0.41767 0.64499 0.42571 0.0
H562 H 0.38676 0.62011 0.39155 0.0
H563 H 0.45703 0.52082 0.32167 0.0
H564 H 0.47608 0.49897 0.37882 0.0
H565 H 0.46809 0.60434 0.4365 0.0
C566 C 0.42709 0.65362 0.30791 0.0
C567 C 0.41917 0.64193 0.27071 0.0
C568 C 0.42244 0.60562 0.25764 0.0
C569 C 0.43344 0.58142 0.28096 0.0
C570 C 0.44085 0.5937 0.3175 0.0
C571 C 0.43762 0.62889 0.33102 0.0
C572 C 0.44644 0.63485 0.37168 0.0
C573 C 0.48112 0.66596 0.37727 0.0
C574 C 0.4117 0.64268 0.39588 0.0
C575 C 0.45524 0.59762 0.37886 0.0
C576 C 0.45206 0.57437 0.34715 0.0
C577 C 0.45945 0.53878 0.34668 0.0
C578 C 0.47034 0.52661 0.37936 0.0
C579 C 0.47352 0.54973 0.41241 0.0
C580 C 0.46569 0.58574 0.41192 0.0
H581 H 0.0634 0.41687 0.73615 0.0
H582 H 0.10743 0.33281 0.78658 0.0
H583 H 0.09341 0.36103 0.84887 0.0
H584 H 0.09818 0.49144 0.79673 0.0
H585 H 0.05691 0.51234 0.79847 0.0
H586 H 0.06813 0.48425 0.75813 0.0
H587 H 1.00143 0.44263 0.76473 0.0
H588 H 0.98986 0.47081 0.80498 0.0
H589 H 0.98566 0.42185 0.80798 0.0
H590 H 0.08262 0.40336 0.90452 0.0
H591 H 0.06791 0.45208 0.95038 0.0
H592 H 0.02462 0.50456 0.86425 0.0
C593 C 0.06957 0.40418 0.76038 0.0
C594 C 0.08669 0.37292 0.75688 0.0
C595 C 0.09421 0.35678 0.78898 0.0
C596 C 0.08645 0.37265 0.82434 0.0
C597 C 0.07033 0.40404 0.82692 0.0
C598 C 0.06116 0.41914 0.79584 0.0
C599 C 0.04417 0.45301 0.80621 0.0
C600 C 0.0683 0.48727 0.78885 0.0
C601 C 1.00282 0.44668 0.79533 0.0
C602 C 0.04642 0.45534 0.84785 0.0
C603 C 0.06176 0.42695 0.85925 0.0
C604 C 0.0695 0.42506 0.89609 0.0
C605 C 0.06089 0.45269 0.92199 0.0
C606 C 0.04406 0.48127 0.91103 0.0
C607 C 0.03676 0.48253 0.8735 0.0
H608 H 0.78031 0.97158 0.93238 0.0
H609 H 0.74042 0.85401 0.91244 0.0
H610 H 0.67497 0.8615 0.93226 0.0
H611 H 0.7201 0.98146 0.01508 0.0
H612 H 0.71248 0.02624 0.005 0.0
H613 H 0.75583 0.01159 0.98843 0.0
H614 H 0.74348 0.02347 0.92122 0.0
H615 H 0.70009 0.03813 0.93759 0.0
H616 H 0.69933 1.00143 0.90194 0.0
H617 H 0.61374 0.88242 0.95187 0.0
H618 H 0.56165 0.91443 0.97455 0.0
H619 H 0.64243 0.01776 0.98525 0.0
C620 C 0.75768 0.94751 0.93217 0.0
C621 C 0.76508 0.91225 0.92084 0.0
C622 C 0.73509 0.8812 0.92122 0.0
C623 C 0.69794 0.88523 0.93227 0.0
C624 C 0.69151 0.92042 0.94327 0.0
C625 C 0.7206 0.95096 0.9437 0.0
C626 C 0.7063 0.98551 0.95776 0.0
C627 C 0.72478 1.00217 0.99371 0.0
C628 C 0.71268 0.0138 0.92784 0.0
C629 C 0.66458 0.9697 0.96493 0.0
C630 C 0.65655 0.93218 0.95605 0.0
C631 C 0.61972 0.91174 0.95921 0.0
C632 C 0.59035 0.93015 0.97197 0.0
C633 C 0.59813 0.96845 0.98187 0.0
C634 C 0.63575 0.98836 0.97834 0.0
H635 H 0.83129 0.18176 0.46965 0.0
H636 H 0.81176 0.12394 0.36216 0.0
H637 H 0.85227 0.0808 0.37602 0.0
H638 H 0.92955 0.17384 0.47154 0.0
H639 H 0.92653 0.16724 0.52051 0.0
H640 H 0.89604 0.19364 0.50202 0.0
H641 H 0.83707 0.15085 0.53089 0.0
H642 H 0.86739 0.12436 0.54949 0.0
H643 H 0.8303 0.1018 0.52017 0.0
H644 H 0.89469 0.04294 0.40227 0.0
H645 H 0.93538 0.01429 0.43898 0.0
H646 H 0.92783 0.0975 0.52841 0.0
C647 C 0.83561 0.16002 0.44905 0.0
C648 C 0.81837 0.15631 0.41487 0.0
C649 C 0.82468 0.1275 0.38856 0.0
C650 C 0.84768 0.10278 0.39617 0.0
C651 C 0.86432 0.10722 0.43015 0.0
C652 C 0.85861 0.13518 0.45614 0.0
C653 C 0.87968 0.13394 0.49055 0.0
C654 C 0.90973 0.16926 0.49649 0.0
C655 C 0.85195 0.12733 0.52479 0.0
C656 C 0.89794 0.10085 0.47995 0.0
C657 C 0.88881 0.08574 0.44502 0.0
C658 C 0.90212 0.05465 0.42962 0.0
C659 C 0.92526 0.03859 0.45057 0.0
C660 C 0.93483 0.05372 0.48641 0.0
C661 C 0.92103 0.08531 0.50104 0.0
H662 H 0.26735 0.69168 0.11651 0.0
H663 H 0.32926 0.60182 0.10388 0.0
H664 H 0.27633 0.56285 0.07169 0.0
H665 H 0.17675 0.6374 0.13496 0.0
H666 H 0.15131 0.66341 0.10921 0.0
H667 H 0.19509 0.68562 0.12894 0.0
H668 H 0.22292 0.70638 0.06431 0.0
H669 H 0.17909 0.6844 0.0444 0.0
H670 H 0.22323 0.67245 0.02603 0.0
H671 H 0.21514 0.53169 0.046 0.0
H672 H 0.15037 0.51112 0.02507 0.0
H673 H 0.12758 0.62113 0.05142 0.0
C674 C 0.27007 0.66408 0.10624 0.0
C675 C 0.3025 0.64978 0.11297 0.0
C676 C 0.30461 0.61328 0.09956 0.0
C677 C 0.27473 0.59095 0.08105 0.0
C678 C 0.24286 0.60548 0.07572 0.0
C679 C 0.24037 0.6413 0.08753 0.0
C680 C 0.20216 0.64946 0.0793 0.0
C681 C 0.18003 0.65956 0.11525 0.0
C682 C 0.20716 0.67998 0.05187 0.0
C683 C 0.18343 0.61245 0.06168 0.0
C684 C 0.20753 0.58756 0.05994 0.0
C685 C 0.19618 0.55106 0.04674 0.0
C686 C 0.15922 0.53959 0.03505 0.0
C687 C 0.13391 0.56451 0.0363 0.0
C688 C 0.14643 0.60157 0.04952 0.0
H689 H 0.22569 0.39558 0.5469 0.0
H690 H 0.23516 0.43884 0.6614 0.0
H691 H 0.2984 0.47446 0.64509 0.0
H692 H 0.31541 0.37665 0.53755 0.0
H693 H 0.32474 0.38737 0.48965 0.0
H694 H 0.27677 0.37241 0.50759 0.0
H695 H 0.25855 0.43151 0.4863 0.0
H696 H 0.3066 0.44664 0.46812 0.0
H697 H 0.28494 0.47608 0.50129 0.0
H698 H 0.36352 0.49873 0.61909 0.0
H699 H 0.42671 0.50675 0.58624 0.0
H700 H 0.37762 0.44278 0.49042 0.0
C701 C 0.2407 0.41282 0.5686 0.0
C702 C 0.22489 0.41437 0.60548 0.0
C703 C 0.24579 0.43771 0.63272 0.0
C704 C 0.28201 0.45802 0.62378 0.0
C705 C 0.2972 0.45461 0.58755 0.0
C706 C 0.27726 0.43252 0.56038 0.0
C707 C 0.30188 0.42947 0.52501 0.0
C708 C 0.30488 0.38909 0.51436 0.0
C709 C 0.28711 0.44698 0.49331 0.0
C710 C 0.33923 0.45201 0.53709 0.0
C711 C 0.33562 0.46713 0.57291 0.0
C712 C 0.36662 0.4874 0.5909 0.0
C713 C 0.4024 0.49168 0.57207 0.0
C714 C 0.40689 0.47518 0.53593 0.0
C715 C 0.37483 0.45577 0.51799 0.0
H716 H 0.95838 0.79651 0.88832 0.0
H717 H 0.88584 0.81683 0.98545 0.0
H718 H 0.90944 0.77052 0.01797 0.0
H719 H 0.94365 0.70116 0.89256 0.0
H720 H 0.99144 0.6968 0.87746 0.0
H721 H 0.97234 0.73459 0.86341 0.0
H722 H 0.02866 0.7809 0.89085 0.0
H723 H 0.04794 0.74315 0.90507 0.0
H724 H 0.03854 0.77911 0.93866 0.0
H725 H 0.93511 0.71788 0.03728 0.0
H726 H 0.96114 0.66173 0.04214 0.0
H727 H 0.01841 0.67601 0.93324 0.0
C728 C 0.94803 0.7916 0.91667 0.0
C729 C 0.9204 0.81016 0.93442 0.0
C730 C 0.90704 0.80288 0.97133 0.0
C731 C 0.92041 0.77677 0.9901 0.0
C732 C 0.94729 0.75851 0.97162 0.0
C733 C 0.96111 0.76565 0.93579 0.0
C734 C 0.98777 0.74025 0.9213 0.0
C735 C 0.97289 0.71682 0.88665 0.0
C736 C 0.02813 0.76217 0.91352 0.0
C737 C 0.98583 0.71692 0.95418 0.0
C738 C 0.96261 0.72821 0.98304 0.0
C739 C 0.95388 0.70917 0.0152 0.0
C740 C 0.96869 0.67732 0.01766 0.0
C741 C 0.99197 0.66499 0.9882 0.0
C742 C 1.00133 0.68545 0.95644 0.0
H743 H 0.39694 0.76342 0.08667 0.0
H744 H 0.39232 0.78482 0.20618 0.0
H745 H 0.41881 0.85047 0.19819 0.0
H746 H 0.48515 0.82532 0.06807 0.0
H747 H 0.47167 0.84076 0.02589 0.0
H748 H 0.4507 0.79541 0.04037 0.0
H749 H 0.38376 0.81039 0.03803 0.0
H750 H 0.40456 0.85584 0.0236 0.0
H751 H 0.37235 0.8505 0.06414 0.0
H752 H 0.44732 0.91253 0.17853 0.0
H753 H 0.47868 0.96856 0.14846 0.0
H754 H 0.46568 0.91021 0.04038 0.0
C755 C 0.40113 0.78203 0.11113 0.0
C756 C 0.39254 0.76872 0.1472 0.0
C757 C 0.39903 0.79402 0.17839 0.0
C758 C 0.41382 0.8315 0.1741 0.0
C759 C 0.4221 0.8436 0.13838 0.0
C760 C 0.41614 0.81979 0.10733 0.0
C761 C 0.42901 0.84027 0.0722 0.0
C762 C 0.46104 0.82449 0.05035 0.0
C763 C 0.39541 0.83918 0.04806 0.0
C764 C 0.44345 0.87921 0.08848 0.0
C765 C 0.43882 0.88017 0.12676 0.0
C766 C 0.4509 0.91217 0.1486 0.0
C767 C 0.46878 0.94392 0.13114 0.0
C768 C 0.47455 0.94398 0.09204 0.0
C769 C 0.46116 0.9112 0.07027 0.0
H770 H 0.12255 0.26091 0.64023 0.0
H771 H 0.15014 0.3128 0.53561 0.0
H772 H 0.13385 0.25203 0.50186 0.0
H773 H 0.15753 0.17693 0.61212 0.0
H774 H 0.11971 0.14792 0.63756 0.0
H775 H 0.13544 0.19528 0.65368 0.0
H776 H 0.06682 0.20678 0.65294 0.0
H777 H 0.05088 0.15945 0.63705 0.0
H778 H 0.04194 0.19604 0.61091 0.0
H779 H 0.11158 0.18647 0.47945 0.0
H780 H 0.08384 0.12036 0.46979 0.0
H781 H 0.07069 0.1111 0.58901 0.0
C782 C 0.1251 0.25949 0.61023 0.0
C783 C 0.13775 0.29156 0.59053 0.0
C784 C 0.14102 0.28851 0.55127 0.0
C785 C 0.13175 0.25416 0.53185 0.0
C786 C 0.11937 0.22312 0.55211 0.0
C787 C 0.11602 0.22542 0.5904 0.0
C788 C 0.10086 0.18797 0.60542 0.0
C789 C 0.13014 0.17635 0.62856 0.0
C790 C 0.06287 0.18755 0.62789 0.0
C791 C 0.09562 0.16439 0.56955 0.0
C792 C 0.10668 0.18518 0.53914 0.0
C793 C 0.1031 0.16981 0.50302 0.0
C794 C 0.08729 0.13224 0.49784 0.0
C795 C 0.07527 0.11053 0.52863 0.0
C796 C 0.08004 0.12683 0.56489 0.0
H797 H 0.70267 0.31536 0.35491 0.0
H798 H 0.67057 0.2299 0.43298 0.0
H799 H 0.62648 0.26592 0.46696 0.0
H800 H 0.69737 0.39412 0.42325 0.0
H801 H 0.67911 0.41945 0.3905 0.0
H802 H 0.71029 0.38832 0.37448 0.0
H803 H 0.65992 0.35401 0.33009 0.0
H804 H 0.62834 0.38461 0.34635 0.0
H805 H 0.61277 0.3355 0.34864 0.0
H806 H 0.5807 0.30775 0.48784 0.0
H807 H 0.54228 0.35619 0.49933 0.0
H808 H 0.60597 0.41615 0.40938 0.0
C809 C 0.68692 0.30465 0.37965 0.0
C810 C 0.69011 0.26992 0.39149 0.0
C811 C 0.66894 0.25666 0.4238 0.0
C812 C 0.64363 0.2768 0.44306 0.0
C813 C 0.64025 0.31039 0.42993 0.0
C814 C 0.66191 0.32462 0.39942 0.0
C815 C 0.65237 0.36102 0.39061 0.0
C816 C 0.68683 0.3926 0.39498 0.0
C817 C 0.63746 0.35862 0.35161 0.0
C818 C 0.6213 0.36465 0.42039 0.0
C819 C 0.61463 0.33503 0.44264 0.0
C820 C 0.58606 0.3313 0.47093 0.0
C821 C 0.5642 0.35882 0.47707 0.0
C822 C 0.57119 0.38989 0.45528 0.0
C823 C 0.60011 0.39275 0.42654 0.0
loop_
_geom_bond_atom_site_label_1
_geom_bond_atom_site_label_2
_geom_bond_distance
_geom_bond_site_symmetry_2
_ccdc_geom_bond_type
H0 C5 0.930 . S
H1 C8 0.930 . S
H2 C10 0.930 . S
H3 C4 1.016 . S
C4 H3 1.016 . S
C4 N11 1.286 . S
C5 H0 0.930 . S
C5 C6 1.397 . S
C5 C7 1.361 . S
C6 C5 1.397 . S
C6 C10 1.390 . S
C7 C5 1.361 . S
C7 C8 1.393 . S
C7 N11 1.413 . S
C8 H1 0.930 . S
C8 C7 1.393 . S
C8 C9 1.399 . S
C9 C8 1.399 . S
C9 C10 1.381 . S
C10 H2 0.930 . S
C10 C6 1.390 . S
C10 C9 1.381 . S
N11 C4 1.286 . S
N11 C7 1.413 . S
H12 C17 0.930 . S
H13 C20 0.930 . S
H14 C22 0.930 . S
H15 C16 1.016 . S
C16 H15 1.016 . S
C16 N23 1.286 . S
C17 H12 0.930 . S
C17 C18 1.397 . S
C17 C19 1.361 . S
C18 C17 1.397 . S
C18 C22 1.390 . S
C19 C17 1.361 . S
C19 C20 1.393 . S
C19 N23 1.413 . S
C20 H13 0.930 . S
C20 C19 1.393 . S
C20 C21 1.399 . S
C21 C20 1.399 . S
C21 C22 1.381 . S
C22 H14 0.930 . S
C22 C18 1.390 . S
C22 C21 1.381 . S
N23 C16 1.286 . S
N23 C19 1.413 . S
H24 C29 0.930 . S
H25 C32 0.930 . S
H26 C34 0.930 . S
H27 C28 1.016 . S
C28 H27 1.016 . S
C28 N35 1.286 . S
C29 H24 0.930 . S
C29 C30 1.397 . S
C29 C31 1.361 . S
C30 C29 1.397 . S
C30 C34 1.390 . S
C31 C29 1.361 . S
C31 C32 1.393 . S
C31 N35 1.413 . S
C32 H25 0.930 . S
C32 C31 1.393 . S
C32 C33 1.399 . S
C33 C32 1.399 . S
C33 C34 1.381 . S
C34 H26 0.930 . S
C34 C30 1.390 . S
C34 C33 1.381 . S
N35 C28 1.286 . S
N35 C31 1.413 . S
H36 C41 0.930 . S
H37 C44 0.930 . S
H38 C46 0.930 . S
H39 C40 1.016 . S
C40 H39 1.016 . S
C40 N47 1.286 . S
C41 H36 0.930 . S
C41 C42 1.397 . S
C41 C43 1.361 . S
C42 C41 1.397 . S
C42 C46 1.390 . S
C43 C41 1.361 . S
C43 C44 1.393 . S
C43 N47 1.413 . S
C44 H37 0.930 . S
C44 C43 1.393 . S
C44 C45 1.399 . S
C45 C44 1.399 . S
C45 C46 1.381 . S
C46 H38 0.930 . S
C46 C42 1.390 . S
C46 C45 1.381 . S
N47 C40 1.286 . S
N47 C43 1.413 . S
H48 C53 0.930 . S
H49 C56 0.930 . S
H50 C58 0.930 . S
H51 C52 1.016 . S
C52 H51 1.016 . S
C52 N59 1.286 . S
C53 H48 0.930 . S
C53 C54 1.397 . S
C53 C55 1.361 . S
C54 C53 1.397 . S
C54 C58 1.390 . S
C55 C53 1.361 . S
C55 C56 1.393 . S
C55 N59 1.413 . S
C56 H49 0.930 . S
C56 C55 1.393 . S
C56 C57 1.399 . S
C57 C56 1.399 . S
C57 C58 1.381 . S
C58 H50 0.930 . S
C58 C54 1.390 . S
C58 C57 1.381 . S
N59 C52 1.286 . S
N59 C55 1.413 . S
H60 C65 0.930 . S
H61 C68 0.930 . S
H62 C70 0.930 . S
H63 C64 1.016 . S
C64 H63 1.016 . S
C64 N71 1.286 . S
C65 H60 0.930 . S
C65 C66 1.397 . S
C65 C67 1.361 . S
C66 C65 1.397 . S
C66 C70 1.390 . S
C67 C65 1.361 . S
C67 C68 1.393 . S
C67 N71 1.413 . S
C68 H61 0.930 . S
C68 C67 1.393 . S
C68 C69 1.399 . S
C69 C68 1.399 . S
C69 C70 1.381 . S
C70 H62 0.930 . S
C70 C66 1.390 . S
C70 C69 1.381 . S
N71 C64 1.286 . S
N71 C67 1.413 . S
H72 C77 0.930 . S
H73 C80 0.930 . S
H74 C82 0.930 . S
H75 C76 1.016 . S
C76 H75 1.016 . S
C76 N83 1.286 . S
C77 H72 0.930 . S
C77 C78 1.397 . S
C77 C79 1.361 . S
C78 C77 1.397 . S
C78 C82 1.390 . S
C79 C77 1.361 . S
C79 C80 1.393 . S
C79 N83 1.413 . S
C80 H73 0.930 . S
C80 C79 1.393 . S
C80 C81 1.399 . S
C81 C80 1.399 . S
C81 C82 1.381 . S
C82 H74 0.930 . S
C82 C78 1.390 . S
C82 C81 1.381 . S
N83 C76 1.286 . S
N83 C79 1.413 . S
H84 C89 0.930 . S
H85 C92 0.930 . S
H86 C94 0.930 . S
H87 C88 1.016 . S
C88 H87 1.016 . S
C88 N95 1.286 . S
C89 H84 0.930 . S
C89 C90 1.397 . S
C89 C91 1.361 . S
C90 C89 1.397 . S
C90 C94 1.390 . S
C91 C89 1.361 . S
C91 C92 1.393 . S
C91 N95 1.413 . S
C92 H85 0.930 . S
C92 C91 1.393 . S
C92 C93 1.399 . S
C93 C92 1.399 . S
C93 C94 1.381 . S
C94 H86 0.930 . S
C94 C90 1.390 . S
C94 C93 1.381 . S
N95 C88 1.286 . S
N95 C91 1.413 . S
Dy96 O100 2.398 . S
Dy96 O101 2.491 . S
Dy96 O102 2.403 1_545 S
Dy96 O103 2.664 1_545 S
Dy96 O107 2.326 . S
Dy96 O111 2.310 1_455 S
Dy96 O112 2.351 1_445 S
C97 O108 1.185 . S
C97 O109 1.355 . S
C98 O100 1.185 . S
C98 O101 1.355 . S
Dy99 O103 2.310 1_655 S
Dy99 O106 2.351 1_665 S
Dy99 O108 2.398 . S
Dy99 O109 2.491 . S
Dy99 O110 2.403 1_565 S
Dy99 O111 2.664 1_565 S
Dy99 O113 2.326 . S
O100 Dy96 2.398 . S
O100 C98 1.185 . S
O101 Dy96 2.491 . S
O101 C98 1.355 . S
O102 Dy96 2.403 1_565 S
O102 C104 1.254 . S
O103 Dy96 2.664 1_565 S
O103 Dy99 2.310 1_455 S
O103 C104 1.268 . S
C104 O102 1.254 . S
C104 O103 1.268 . S
C105 O110 1.254 . S
C105 O111 1.268 . S
O106 Dy99 2.351 1_445 S
O106 C114 1.249 . S
O107 Dy96 2.326 . S
O107 C114 1.267 . S
O108 C97 1.185 . S
O108 Dy99 2.398 . S
O109 C97 1.355 . S
O109 Dy99 2.491 . S
O110 Dy99 2.403 1_545 S
O110 C105 1.254 . S
O111 Dy96 2.310 1_655 S
O111 Dy99 2.664 1_545 S
O111 C105 1.268 . S
O112 Dy96 2.351 1_665 S
O112 C115 1.249 . S
O113 Dy99 2.326 . S
O113 C115 1.267 . S
C114 O106 1.249 . S
C114 O107 1.267 . S
C115 O112 1.249 . S
C115 O113 1.267 . S
Dy116 O120 2.398 . S
Dy116 O121 2.491 . S
Dy116 O122 2.403 1_545 S
Dy116 O123 2.664 1_545 S
Dy116 O127 2.326 . S
Dy116 O131 2.310 . S
Dy116 O132 2.351 1_544 S
C117 O128 1.185 . S
C117 O129 1.355 . S
C118 O120 1.185 . S
C118 O121 1.355 . S
Dy119 O123 2.310 1_546 S
Dy119 O126 2.351 1_556 S
Dy119 O128 2.398 1_545 S
Dy119 O129 2.491 1_545 S
Dy119 O130 2.403 . S
Dy119 O131 2.664 1_556 S
Dy119 O133 2.326 1_545 S
O120 Dy116 2.398 . S
O120 C118 1.185 . S
O121 Dy116 2.491 . S
O121 C118 1.355 . S
O122 Dy116 2.403 1_565 S
O122 C124 1.254 . S
O123 Dy116 2.664 1_565 S
O123 Dy119 2.310 1_564 S
O123 C124 1.268 . S
C124 O122 1.254 . S
C124 O123 1.268 . S
C125 O130 1.254 . S
C125 O131 1.268 1_556 S
O126 Dy119 2.351 1_554 S
O126 C134 1.249 . S
O127 Dy116 2.326 . S
O127 C134 1.267 . S
O128 C117 1.185 . S
O128 Dy119 2.398 1_565 S
O129 C117 1.355 . S
O129 Dy119 2.491 1_565 S
O130 Dy119 2.403 . S
O130 C125 1.254 . S
O131 Dy116 2.310 . S
O131 Dy119 2.664 1_554 S
O131 C125 1.268 1_554 S
O132 Dy116 2.351 1_566 S
O132 C135 1.249 . S
O133 Dy119 2.326 1_565 S
O133 C135 1.267 . S
C134 O126 1.249 . S
C134 O127 1.267 . S
C135 O132 1.249 . S
C135 O133 1.267 . S
Dy136 O140 2.398 . S
Dy136 O141 2.491 . S
Dy136 O142 2.403 . S
Dy136 O143 2.664 . S
Dy136 O147 2.326 . S
Dy136 O151 2.310 . S
Dy136 O152 2.351 . S
C137 O148 1.185 . S
C137 O149 1.355 . S
C138 O140 1.185 . S
C138 O141 1.355 . S
Dy139 O143 2.310 . S
Dy139 O146 2.351 . S
Dy139 O148 2.398 . S
Dy139 O149 2.491 . S
Dy139 O150 2.403 . S
Dy139 O151 2.664 . S
Dy139 O153 2.326 . S
O140 Dy136 2.398 . S
O140 C138 1.185 . S
O141 Dy136 2.491 . S
O141 C138 1.355 . S
O142 Dy136 2.403 . S
O142 C144 1.254 . S
O143 Dy136 2.664 . S
O143 Dy139 2.310 . S
O143 C144 1.268 . S
C144 O142 1.254 . S
C144 O143 1.268 . S
C145 O150 1.254 . S
C145 O151 1.268 . S
O146 Dy139 2.351 . S
O146 C154 1.249 . S
O147 Dy136 2.326 . S
O147 C154 1.267 . S
O148 C137 1.185 . S
O148 Dy139 2.398 . S
O149 C137 1.355 . S
O149 Dy139 2.491 . S
O150 Dy139 2.403 . S
O150 C145 1.254 . S
O151 Dy136 2.310 . S
O151 Dy139 2.664 . S
O151 C145 1.268 . S
O152 Dy136 2.351 . S
O152 C155 1.249 . S
O153 Dy139 2.326 . S
O153 C155 1.267 . S
C154 O146 1.249 . S
C154 O147 1.267 . S
C155 O152 1.249 . S
C155 O153 1.267 . S
Dy156 O160 2.398 . S
Dy156 O161 2.491 . S
Dy156 O162 2.403 1_455 S
Dy156 O163 2.664 1_455 S
Dy156 O167 2.326 . S
Dy156 O171 2.310 1_554 S
Dy156 O172 2.338 1_454 S
C157 O168 1.185 . S
C157 O169 1.355 . S
C158 O160 1.185 . S
C158 O161 1.355 . S
Dy159 O163 2.310 1_456 S
Dy159 O166 2.351 1_556 S
Dy159 O168 2.398 1_455 S
Dy159 O169 2.491 1_455 S
Dy159 O170 2.403 . S
Dy159 O171 2.664 . S
Dy159 O173 2.326 1_455 S
O160 Dy156 2.398 . S
O160 C158 1.185 . S
O161 Dy156 2.491 . S
O161 C158 1.355 . S
O162 Dy156 2.403 1_655 S
O162 C164 1.254 . S
O163 Dy156 2.664 1_655 S
O163 Dy159 2.310 1_654 S
O163 C164 1.268 . S
C164 O162 1.254 . S
C164 O163 1.268 . S
C165 O170 1.254 . S
C165 O171 1.268 . S
O166 Dy159 2.351 1_554 S
O166 C174 1.249 . S
O167 Dy156 2.326 . S
O167 C174 1.267 . S
O168 C157 1.185 . S
O168 Dy159 2.398 1_655 S
O169 C157 1.355 . S
O169 Dy159 2.491 1_655 S
O170 Dy159 2.403 . S
O170 C165 1.254 . S
O171 Dy156 2.310 1_556 S
O171 Dy159 2.664 . S
O171 C165 1.268 . S
O172 Dy156 2.338 1_656 S
O172 C175 1.266 . S
O173 Dy159 2.326 1_655 S
O173 C175 1.267 . S
C174 O166 1.249 . S
C174 O167 1.267 . S
C175 O172 1.266 . S
C175 O173 1.267 . S
H176 C188 0.930 . S
H177 C190 0.930 . S
H178 C191 0.930 . S
H179 C195 0.959 . S
H180 C195 0.959 . S
H181 C195 0.961 . S
H182 C196 0.960 . S
H183 C196 0.961 . S
H184 C196 0.959 . S
H185 C199 0.929 . S
H186 C200 0.931 . S
H187 C202 0.930 . S
C188 H176 0.930 . S
C188 C189 1.399 . S
C188 C193 1.399 . S
C189 C188 1.399 . S
C189 C190 1.376 . S
C190 H177 0.930 . S
C190 C189 1.376 . S
C190 C191 1.388 . S
C191 H178 0.930 . S
C191 C190 1.388 . S
C191 C192 1.390 . S
C192 C191 1.390 . S
C192 C193 1.394 . S
C192 C198 1.465 . S
C193 C188 1.399 . S
C193 C192 1.394 . S
C193 C194 1.516 . S
C194 C193 1.516 . S
C194 C195 1.502 . S
C194 C196 1.561 . S
C194 C197 1.526 . S
C195 H179 0.959 . S
C195 H180 0.959 . S
C195 H181 0.961 . S
C195 C194 1.502 . S
C196 H182 0.960 . S
C196 H183 0.961 . S
C196 H184 0.959 . S
C196 C194 1.561 . S
C197 C194 1.526 . S
C197 C198 1.396 . S
C197 C202 1.390 . S
C198 C192 1.465 . S
C198 C197 1.396 . S
C198 C199 1.399 . S
C199 H185 0.929 . S
C199 C198 1.399 . S
C199 C200 1.385 . S
C200 H186 0.931 . S
C200 C199 1.385 . S
C200 C201 1.389 . S
C201 C200 1.389 . S
C201 C202 1.387 . S
C202 H187 0.930 . S
C202 C197 1.390 . S
C202 C201 1.387 . S
H203 C215 0.930 . S
H204 C217 0.930 . S
H205 C218 0.930 . S
H206 C222 0.959 . S
H207 C222 0.959 . S
H208 C222 0.961 . S
H209 C223 0.960 . S
H210 C223 0.961 . S
H211 C223 0.959 . S
H212 C226 0.929 . S
H213 C227 0.931 . S
H214 C229 0.930 . S
C215 H203 0.930 . S
C215 C216 1.399 . S
C215 C220 1.399 . S
C216 C215 1.399 . S
C216 C217 1.376 . S
C217 H204 0.930 . S
C217 C216 1.376 . S
C217 C218 1.388 . S
C218 H205 0.930 . S
C218 C217 1.388 . S
C218 C219 1.390 . S
C219 C218 1.390 . S
C219 C220 1.394 . S
C219 C225 1.465 . S
C220 C215 1.399 . S
C220 C219 1.394 . S
C220 C221 1.516 . S
C221 C220 1.516 . S
C221 C222 1.502 . S
C221 C223 1.561 . S
C221 C224 1.526 . S
C222 H206 0.959 . S
C222 H207 0.959 . S
C222 H208 0.961 . S
C222 C221 1.502 . S
C223 H209 0.960 . S
C223 H210 0.961 . S
C223 H211 0.959 . S
C223 C221 1.561 . S
C224 C221 1.526 . S
C224 C225 1.396 . S
C224 C229 1.390 . S
C225 C219 1.465 . S
C225 C224 1.396 . S
C225 C226 1.399 . S
C226 H212 0.929 . S
C226 C225 1.399 . S
C226 C227 1.385 . S
C227 H213 0.931 . S
C227 C226 1.385 . S
C227 C228 1.389 . S
C228 C227 1.389 . S
C228 C229 1.387 . S
C229 H214 0.930 . S
C229 C224 1.390 . S
C229 C228 1.387 . S
H230 C242 0.930 . S
H231 C244 0.930 . S
H232 C245 0.930 . S
H233 C249 0.959 . S
H234 C249 0.959 . S
H235 C249 0.961 . S
H236 C250 0.960 . S
H237 C250 0.961 . S
H238 C250 0.959 . S
H239 C253 0.929 . S
H240 C254 0.931 . S
H241 C256 0.930 . S
C242 H230 0.930 . S
C242 C243 1.399 . S
C242 C247 1.399 . S
C243 C242 1.399 . S
C243 C244 1.376 . S
C244 H231 0.930 . S
C244 C243 1.376 . S
C244 C245 1.388 . S
C245 H232 0.930 . S
C245 C244 1.388 . S
C245 C246 1.390 . S
C246 C245 1.390 . S
C246 C247 1.394 . S
C246 C252 1.465 . S
C247 C242 1.399 . S
C247 C246 1.394 . S
C247 C248 1.516 . S
C248 C247 1.516 . S
C248 C249 1.502 . S
C248 C250 1.561 . S
C248 C251 1.526 . S
C249 H233 0.959 . S
C249 H234 0.959 . S
C249 H235 0.961 . S
C249 C248 1.502 . S
C250 H236 0.960 . S
C250 H237 0.961 . S
C250 H238 0.959 . S
C250 C248 1.561 . S
C251 C248 1.526 . S
C251 C252 1.396 . S
C251 C256 1.390 . S
C252 C246 1.465 . S
C252 C251 1.396 . S
C252 C253 1.399 . S
C253 H239 0.929 . S
C253 C252 1.399 . S
C253 C254 1.385 . S
C254 H240 0.931 . S
C254 C253 1.385 . S
C254 C255 1.389 . S
C255 C254 1.389 . S
C255 C256 1.387 . S
C256 H241 0.930 . S
C256 C251 1.390 . S
C256 C255 1.387 . S
H257 C269 0.930 . S
H258 C271 0.930 . S
H259 C272 0.930 . S
H260 C276 0.959 . S
H261 C276 0.959 . S
H262 C276 0.961 . S
H263 C277 0.960 . S
H264 C277 0.961 . S
H265 C277 0.959 . S
H266 C280 0.929 . S
H267 C281 0.931 . S
H268 C283 0.930 . S
C269 H257 0.930 . S
C269 C270 1.399 . S
C269 C274 1.399 . S
C270 C269 1.399 . S
C270 C271 1.376 . S
C271 H258 0.930 . S
C271 C270 1.376 . S
C271 C272 1.388 . S
C272 H259 0.930 . S
C272 C271 1.388 . S
C272 C273 1.390 . S
C273 C272 1.390 . S
C273 C274 1.394 . S
C273 C279 1.465 . S
C274 C269 1.399 . S
C274 C273 1.394 . S
C274 C275 1.516 . S
C275 C274 1.516 . S
C275 C276 1.502 . S
C275 C277 1.561 . S
C275 C278 1.526 . S
C276 H260 0.959 . S
C276 H261 0.959 . S
C276 H262 0.961 . S
C276 C275 1.502 . S
C277 H263 0.960 . S
C277 H264 0.961 . S
C277 H265 0.959 . S
C277 C275 1.561 . S
C278 C275 1.526 . S
C278 C279 1.396 . S
C278 C283 1.390 . S
C279 C273 1.465 . S
C279 C278 1.396 . S
C279 C280 1.399 . S
C280 H266 0.929 . S
C280 C279 1.399 . S
C280 C281 1.385 . S
C281 H267 0.931 . S
C281 C280 1.385 . S
C281 C282 1.389 . S
C282 C281 1.389 . S
C282 C283 1.387 . S
C283 H268 0.930 . S
C283 C278 1.390 . S
C283 C282 1.387 . S
H284 C296 0.930 . S
H285 C298 0.930 . S
H286 C299 0.930 . S
H287 C303 0.959 . S
H288 C303 0.959 . S
H289 C303 0.961 . S
H290 C304 0.960 . S
H291 C304 0.961 . S
H292 C304 0.959 . S
H293 C307 0.929 . S
H294 C308 0.931 . S
H295 C310 0.930 . S
C296 H284 0.930 . S
C296 C297 1.399 . S
C296 C301 1.399 . S
C297 C296 1.399 . S
C297 C298 1.376 . S
C298 H285 0.930 . S
C298 C297 1.376 . S
C298 C299 1.388 . S
C299 H286 0.930 . S
C299 C298 1.388 . S
C299 C300 1.390 . S
C300 C299 1.390 . S
C300 C301 1.394 . S
C300 C306 1.465 . S
C301 C296 1.399 . S
C301 C300 1.394 . S
C301 C302 1.516 . S
C302 C301 1.516 . S
C302 C303 1.502 . S
C302 C304 1.561 . S
C302 C305 1.526 . S
C303 H287 0.959 . S
C303 H288 0.959 . S
C303 H289 0.961 . S
C303 C302 1.502 . S
C304 H290 0.960 . S
C304 H291 0.961 . S
C304 H292 0.959 . S
C304 C302 1.561 . S
C305 C302 1.526 . S
C305 C306 1.396 . S
C305 C310 1.390 . S
C306 C300 1.465 . S
C306 C305 1.396 . S
C306 C307 1.399 . S
C307 H293 0.929 . S
C307 C306 1.399 . S
C307 C308 1.385 . S
C308 H294 0.931 . S
C308 C307 1.385 . S
C308 C309 1.389 . S
C309 C308 1.389 . S
C309 C310 1.387 . S
C310 H295 0.930 . S
C310 C305 1.390 . S
C310 C309 1.387 . S
H311 C323 0.930 . S
H312 C325 0.930 . S
H313 C326 0.930 . S
H314 C330 0.959 . S
H315 C330 0.959 . S
H316 C330 0.961 . S
H317 C331 0.960 . S
H318 C331 0.961 . S
H319 C331 0.959 . S
H320 C334 0.929 1_545 S
H321 C335 0.931 1_545 S
H322 C337 0.930 . S
C323 H311 0.930 . S
C323 C324 1.399 . S
C323 C328 1.399 . S
C324 C323 1.399 . S
C324 C325 1.376 . S
C325 H312 0.930 . S
C325 C324 1.376 . S
C325 C326 1.388 . S
C326 H313 0.930 . S
C326 C325 1.388 . S
C326 C327 1.390 . S
C327 C326 1.390 . S
C327 C328 1.394 . S
C327 C333 1.465 . S
C328 C323 1.399 . S
C328 C327 1.394 . S
C328 C329 1.516 . S
C329 C328 1.516 . S
C329 C330 1.502 . S
C329 C331 1.561 . S
C329 C332 1.526 . S
C330 H314 0.959 . S
C330 H315 0.959 . S
C330 H316 0.961 . S
C330 C329 1.502 . S
C331 H317 0.960 . S
C331 H318 0.961 . S
C331 H319 0.959 . S
C331 C329 1.561 . S
C332 C329 1.526 . S
C332 C333 1.396 . S
C332 C337 1.390 . S
C333 C327 1.465 . S
C333 C332 1.396 . S
C333 C334 1.399 . S
C334 H320 0.929 1_565 S
C334 C333 1.399 . S
C334 C335 1.385 . S
C335 H321 0.931 1_565 S
C335 C334 1.385 . S
C335 C336 1.389 . S
C336 C335 1.389 . S
C336 C337 1.387 . S
C337 H322 0.930 . S
C337 C332 1.390 . S
C337 C336 1.387 . S
H338 C350 0.930 . S
H339 C352 0.930 . S
H340 C353 0.930 . S
H341 C357 0.959 . S
H342 C357 0.959 1_554 S
H343 C357 0.960 1_554 S
H344 C358 0.960 . S
H345 C358 0.961 . S
H346 C358 0.959 . S
H347 C361 0.929 . S
H348 C362 0.931 . S
H349 C364 0.930 1_554 S
C350 H338 0.930 . S
C350 C351 1.399 . S
C350 C355 1.399 . S
C351 C350 1.399 . S
C351 C352 1.376 . S
C352 H339 0.930 . S
C352 C351 1.376 . S
C352 C353 1.388 . S
C353 H340 0.930 . S
C353 C352 1.388 . S
C353 C354 1.390 . S
C354 C353 1.390 . S
C354 C355 1.394 . S
C354 C360 1.465 . S
C355 C350 1.399 . S
C355 C354 1.394 . S
C355 C356 1.516 . S
C356 C355 1.516 . S
C356 C357 1.502 . S
C356 C358 1.561 . S
C356 C359 1.526 . S
C357 H341 0.959 . S
C357 H342 0.959 1_556 S
C357 H343 0.960 1_556 S
C357 C356 1.502 . S
C358 H344 0.960 . S
C358 H345 0.961 . S
C358 H346 0.959 . S
C358 C356 1.561 . S
C359 C356 1.526 . S
C359 C360 1.396 . S
C359 C364 1.390 . S
C360 C354 1.465 . S
C360 C359 1.396 . S
C360 C361 1.399 . S
C361 H347 0.929 . S
C361 C360 1.399 . S
C361 C362 1.385 . S
C362 H348 0.931 . S
C362 C361 1.385 . S
C362 C363 1.389 . S
C363 C362 1.389 . S
C363 C364 1.387 . S
C364 H349 0.930 1_556 S
C364 C359 1.390 . S
C364 C363 1.387 . S
H365 C377 0.930 . S
H366 C379 0.930 . S
H367 C380 0.930 . S
H368 C384 0.959 . S
H369 C384 0.959 . S
H370 C384 0.961 . S
H371 C385 0.960 . S
H372 C385 0.961 . S
H373 C385 0.959 . S
H374 C388 0.929 . S
H375 C389 0.931 . S
H376 C391 0.930 . S
C377 H365 0.930 . S
C377 C378 1.399 . S
C377 C382 1.399 . S
C378 C377 1.399 . S
C378 C379 1.376 . S
C379 H366 0.930 . S
C379 C378 1.376 . S
C379 C380 1.388 . S
C380 H367 0.930 . S
C380 C379 1.388 . S
C380 C381 1.390 . S
C381 C380 1.390 . S
C381 C382 1.394 . S
C381 C387 1.465 . S
C382 C377 1.399 . S
C382 C381 1.394 . S
C382 C383 1.516 . S
C383 C382 1.516 . S
C383 C384 1.502 . S
C383 C385 1.561 . S
C383 C386 1.526 . S
C384 H368 0.959 . S
C384 H369 0.959 . S
C384 H370 0.961 . S
C384 C383 1.502 . S
C385 H371 0.960 . S
C385 H372 0.961 . S
C385 H373 0.959 . S
C385 C383 1.561 . S
C386 C383 1.526 . S
C386 C387 1.396 . S
C386 C391 1.390 . S
C387 C381 1.465 . S
C387 C386 1.396 . S
C387 C388 1.399 . S
C388 H374 0.929 . S
C388 C387 1.399 . S
C388 C389 1.385 . S
C389 H375 0.931 . S
C389 C388 1.385 . S
C389 C390 1.389 . S
C390 C389 1.389 . S
C390 C391 1.387 . S
C391 H376 0.930 . S
C391 C386 1.390 . S
C391 C390 1.387 . S
H392 C404 0.930 . S
H393 C406 0.930 . S
H394 C407 0.930 . S
H395 C411 0.959 . S
H396 C411 0.959 . S
H397 C411 0.961 . S
H398 C412 0.960 . S
H399 C412 0.961 . S
H400 C412 0.959 . S
H401 C415 0.929 . S
H402 C416 0.931 . S
H403 C418 0.930 . S
C404 H392 0.930 . S
C404 C405 1.399 . S
C404 C409 1.399 . S
C405 C404 1.399 . S
C405 C406 1.376 . S
C406 H393 0.930 . S
C406 C405 1.376 . S
C406 C407 1.388 . S
C407 H394 0.930 . S
C407 C406 1.388 . S
C407 C408 1.390 . S
C408 C407 1.390 . S
C408 C409 1.394 . S
C408 C414 1.465 . S
C409 C404 1.399 . S
C409 C408 1.394 . S
C409 C410 1.516 . S
C410 C409 1.516 . S
C410 C411 1.502 . S
C410 C412 1.561 . S
C410 C413 1.526 . S
C411 H395 0.959 . S
C411 H396 0.959 . S
C411 H397 0.961 . S
C411 C410 1.502 . S
C412 H398 0.960 . S
C412 H399 0.961 . S
C412 H400 0.959 . S
C412 C410 1.561 . S
C413 C410 1.526 . S
C413 C414 1.396 . S
C413 C418 1.390 . S
C414 C408 1.465 . S
C414 C413 1.396 . S
C414 C415 1.399 . S
C415 H401 0.929 . S
C415 C414 1.399 . S
C415 C416 1.385 . S
C416 H402 0.931 . S
C416 C415 1.385 . S
C416 C417 1.389 . S
C417 C416 1.389 . S
C417 C418 1.387 . S
C418 H403 0.930 . S
C418 C413 1.390 . S
C418 C417 1.387 . S
H419 C431 0.930 . S
H420 C433 0.930 . S
H421 C434 0.930 . S
H422 C438 0.959 . S
H423 C438 0.959 . S
H424 C438 0.961 . S
H425 C439 0.960 . S
H426 C439 0.961 . S
H427 C439 0.959 . S
H428 C442 0.929 1_554 S
H429 C443 0.931 1_554 S
H430 C445 0.930 . S
C431 H419 0.930 . S
C431 C432 1.399 . S
C431 C436 1.399 . S
C432 C431 1.399 . S
C432 C433 1.376 . S
C433 H420 0.930 . S
C433 C432 1.376 . S
C433 C434 1.388 . S
C434 H421 0.930 . S
C434 C433 1.388 . S
C434 C435 1.390 . S
C435 C434 1.390 . S
C435 C436 1.394 . S
C435 C441 1.465 . S
C436 C431 1.399 . S
C436 C435 1.394 . S
C436 C437 1.516 . S
C437 C436 1.516 . S
C437 C438 1.502 . S
C437 C439 1.561 . S
C437 C440 1.526 . S
C438 H422 0.959 . S
C438 H423 0.959 . S
C438 H424 0.961 . S
C438 C437 1.502 . S
C439 H425 0.960 . S
C439 H426 0.961 . S
C439 H427 0.959 . S
C439 C437 1.561 . S
C440 C437 1.526 . S
C440 C441 1.396 . S
C440 C445 1.390 . S
C441 C435 1.465 . S
C441 C440 1.396 . S
C441 C442 1.399 . S
C442 H428 0.929 1_556 S
C442 C441 1.399 . S
C442 C443 1.385 . S
C443 H429 0.931 1_556 S
C443 C442 1.385 . S
C443 C444 1.389 . S
C444 C443 1.389 . S
C444 C445 1.387 . S
C445 H430 0.930 . S
C445 C440 1.390 . S
C445 C444 1.387 . S
H446 C458 0.930 . S
H447 C460 0.930 . S
H448 C461 0.930 . S
H449 C465 0.959 . S
H450 C465 0.959 . S
H451 C465 0.961 . S
H452 C466 0.960 . S
H453 C466 0.961 . S
H454 C466 0.959 . S
H455 C469 0.929 . S
H456 C470 0.931 . S
H457 C472 0.930 . S
C458 H446 0.930 . S
C458 C459 1.399 . S
C458 C463 1.399 . S
C459 C458 1.399 . S
C459 C460 1.376 . S
C460 H447 0.930 . S
C460 C459 1.376 . S
C460 C461 1.388 . S
C461 H448 0.930 . S
C461 C460 1.388 . S
C461 C462 1.390 . S
C462 C461 1.390 . S
C462 C463 1.394 . S
C462 C468 1.465 . S
C463 C458 1.399 . S
C463 C462 1.394 . S
C463 C464 1.516 . S
C464 C463 1.516 . S
C464 C465 1.502 . S
C464 C466 1.561 . S
C464 C467 1.526 . S
C465 H449 0.959 . S
C465 H450 0.959 . S
C465 H451 0.961 . S
C465 C464 1.502 . S
C466 H452 0.960 . S
C466 H453 0.961 . S
C466 H454 0.959 . S
C466 C464 1.561 . S
C467 C464 1.526 . S
C467 C468 1.396 . S
C467 C472 1.390 . S
C468 C462 1.465 . S
C468 C467 1.396 . S
C468 C469 1.399 . S
C469 H455 0.929 . S
C469 C468 1.399 . S
C469 C470 1.385 . S
C470 H456 0.931 . S
C470 C469 1.385 . S
C470 C471 1.389 . S
C471 C470 1.389 . S
C471 C472 1.387 . S
C472 H457 0.930 . S
C472 C467 1.390 . S
C472 C471 1.387 . S
H473 C485 0.930 . S
H474 C487 0.930 . S
H475 C488 0.930 . S
H476 C492 0.959 . S
H477 C492 0.959 . S
H478 C492 0.961 . S
H479 C493 0.960 . S
H480 C493 0.961 . S
H481 C493 0.959 . S
H482 C496 0.929 . S
H483 C497 0.931 . S
H484 C499 0.930 . S
C485 H473 0.930 . S
C485 C486 1.399 . S
C485 C490 1.399 . S
C486 C485 1.399 . S
C486 C487 1.376 . S
C487 H474 0.930 . S
C487 C486 1.376 . S
C487 C488 1.388 . S
C488 H475 0.930 . S
C488 C487 1.388 . S
C488 C489 1.390 . S
C489 C488 1.390 . S
C489 C490 1.394 . S
C489 C495 1.465 . S
C490 C485 1.399 . S
C490 C489 1.394 . S
C490 C491 1.516 . S
C491 C490 1.516 . S
C491 C492 1.502 . S
C491 C493 1.561 . S
C491 C494 1.526 . S
C492 H476 0.959 . S
C492 H477 0.959 . S
C492 H478 0.961 . S
C492 C491 1.502 . S
C493 H479 0.960 . S
C493 H480 0.961 . S
C493 H481 0.959 . S
C493 C491 1.561 . S
C494 C491 1.526 . S
C494 C495 1.396 . S
C494 C499 1.390 . S
C495 C489 1.465 . S
C495 C494 1.396 . S
C495 C496 1.399 . S
C496 H482 0.929 . S
C496 C495 1.399 . S
C496 C497 1.385 . S
C497 H483 0.931 . S
C497 C496 1.385 . S
C497 C498 1.389 . S
C498 C497 1.389 . S
C498 C499 1.387 . S
C499 H484 0.930 . S
C499 C494 1.390 . S
C499 C498 1.387 . S
H500 C512 0.930 . S
H501 C514 0.930 . S
H502 C515 0.930 . S
H503 C519 0.959 . S
H504 C519 0.959 . S
H505 C519 0.961 . S
H506 C520 0.960 . S
H507 C520 0.961 . S
H508 C520 0.959 . S
H509 C523 0.929 . S
H510 C524 0.931 . S
H511 C526 0.930 . S
C512 H500 0.930 . S
C512 C513 1.399 . S
C512 C517 1.399 . S
C513 C512 1.399 . S
C513 C514 1.376 . S
C514 H501 0.930 . S
C514 C513 1.376 . S
C514 C515 1.388 . S
C515 H502 0.930 . S
C515 C514 1.388 . S
C515 C516 1.390 . S
C516 C515 1.390 . S
C516 C517 1.394 . S
C516 C522 1.465 . S
C517 C512 1.399 . S
C517 C516 1.394 . S
C517 C518 1.516 . S
C518 C517 1.516 . S
C518 C519 1.502 . S
C518 C520 1.561 . S
C518 C521 1.526 . S
C519 H503 0.959 . S
C519 H504 0.959 . S
C519 H505 0.961 . S
C519 C518 1.502 . S
C520 H506 0.960 . S
C520 H507 0.961 . S
C520 H508 0.959 . S
C520 C518 1.561 . S
C521 C518 1.526 . S
C521 C522 1.396 . S
C521 C526 1.390 . S
C522 C516 1.465 . S
C522 C521 1.396 . S
C522 C523 1.399 . S
C523 H509 0.929 . S
C523 C522 1.399 . S
C523 C524 1.385 . S
C524 H510 0.931 . S
C524 C523 1.385 . S
C524 C525 1.389 . S
C525 C524 1.389 . S
C525 C526 1.387 . S
C526 H511 0.930 . S
C526 C521 1.390 . S
C526 C525 1.387 . S
H527 C539 0.930 . S
H528 C541 0.930 . S
H529 C542 0.930 . S
H530 C546 0.959 . S
H531 C546 0.959 . S
H532 C546 0.961 . S
H533 C547 0.960 . S
H534 C547 0.961 . S
H535 C547 0.959 . S
H536 C550 0.929 . S
H537 C551 0.931 . S
H538 C553 0.930 . S
C539 H527 0.930 . S
C539 C540 1.399 . S
C539 C544 1.399 . S
C540 C539 1.399 . S
C540 C541 1.376 . S
C541 H528 0.930 . S
C541 C540 1.376 . S
C541 C542 1.388 . S
C542 H529 0.930 . S
C542 C541 1.388 . S
C542 C543 1.390 . S
C543 C542 1.390 . S
C543 C544 1.394 . S
C543 C549 1.465 . S
C544 C539 1.399 . S
C544 C543 1.394 . S
C544 C545 1.516 . S
C545 C544 1.516 . S
C545 C546 1.502 . S
C545 C547 1.561 . S
C545 C548 1.526 . S
C546 H530 0.959 . S
C546 H531 0.959 . S
C546 H532 0.961 . S
C546 C545 1.502 . S
C547 H533 0.960 . S
C547 H534 0.961 . S
C547 H535 0.959 . S
C547 C545 1.561 . S
C548 C545 1.526 . S
C548 C549 1.396 . S
C548 C553 1.390 . S
C549 C543 1.465 . S
C549 C548 1.396 . S
C549 C550 1.399 . S
C550 H536 0.929 . S
C550 C549 1.399 . S
C550 C551 1.385 . S
C551 H537 0.931 . S
C551 C550 1.385 . S
C551 C552 1.389 . S
C552 C551 1.389 . S
C552 C553 1.387 . S
C553 H538 0.930 . S
C553 C548 1.390 . S
C553 C552 1.387 . S
H554 C566 0.930 . S
H555 C568 0.930 . S
H556 C569 0.930 . S
H557 C573 0.959 . S
H558 C573 0.959 . S
H559 C573 0.961 . S
H560 C574 0.960 . S
H561 C574 0.961 . S
H562 C574 0.959 . S
H563 C577 0.929 . S
H564 C578 0.931 . S
H565 C580 0.930 . S
C566 H554 0.930 . S
C566 C567 1.399 . S
C566 C571 1.399 . S
C567 C566 1.399 . S
C567 C568 1.376 . S
C568 H555 0.930 . S
C568 C567 1.376 . S
C568 C569 1.388 . S
C569 H556 0.930 . S
C569 C568 1.388 . S
C569 C570 1.390 . S
C570 C569 1.390 . S
C570 C571 1.394 . S
C570 C576 1.465 . S
C571 C566 1.399 . S
C571 C570 1.394 . S
C571 C572 1.516 . S
C572 C571 1.516 . S
C572 C573 1.502 . S
C572 C574 1.561 . S
C572 C575 1.526 . S
C573 H557 0.959 . S
C573 H558 0.959 . S
C573 H559 0.961 . S
C573 C572 1.502 . S
C574 H560 0.960 . S
C574 H561 0.961 . S
C574 H562 0.959 . S
C574 C572 1.561 . S
C575 C572 1.526 . S
C575 C576 1.396 . S
C575 C580 1.390 . S
C576 C570 1.465 . S
C576 C575 1.396 . S
C576 C577 1.399 . S
C577 H563 0.929 . S
C577 C576 1.399 . S
C577 C578 1.385 . S
C578 H564 0.931 . S
C578 C577 1.385 . S
C578 C579 1.389 . S
C579 C578 1.389 . S
C579 C580 1.387 . S
C580 H565 0.930 . S
C580 C575 1.390 . S
C580 C579 1.387 . S
H581 C593 0.930 . S
H582 C595 0.930 . S
H583 C596 0.930 . S
H584 C600 0.959 . S
H585 C600 0.959 . S
H586 C600 0.961 . S
H587 C601 0.960 . S
H588 C601 0.961 . S
H589 C601 0.959 . S
H590 C604 0.929 . S
H591 C605 0.931 . S
H592 C607 0.930 . S
C593 H581 0.930 . S
C593 C594 1.399 . S
C593 C598 1.399 . S
C594 C593 1.399 . S
C594 C595 1.376 . S
C595 H582 0.930 . S
C595 C594 1.376 . S
C595 C596 1.388 . S
C596 H583 0.930 . S
C596 C595 1.388 . S
C596 C597 1.390 . S
C597 C596 1.390 . S
C597 C598 1.394 . S
C597 C603 1.465 . S
C598 C593 1.399 . S
C598 C597 1.394 . S
C598 C599 1.516 . S
C599 C598 1.516 . S
C599 C600 1.502 . S
C599 C601 1.561 . S
C599 C602 1.526 . S
C600 H584 0.959 . S
C600 H585 0.959 . S
C600 H586 0.961 . S
C600 C599 1.502 . S
C601 H587 0.960 . S
C601 H588 0.961 . S
C601 H589 0.959 . S
C601 C599 1.561 . S
C602 C599 1.526 . S
C602 C603 1.396 . S
C602 C607 1.390 . S
C603 C597 1.465 . S
C603 C602 1.396 . S
C603 C604 1.399 . S
C604 H590 0.929 . S
C604 C603 1.399 . S
C604 C605 1.385 . S
C605 H591 0.931 . S
C605 C604 1.385 . S
C605 C606 1.389 . S
C606 C605 1.389 . S
C606 C607 1.387 . S
C607 H592 0.930 . S
C607 C602 1.390 . S
C607 C606 1.387 . S
H608 C620 0.930 . S
H609 C622 0.930 . S
H610 C623 0.930 . S
H611 C627 0.959 . S
H612 C627 0.959 . S
H613 C627 0.961 . S
H614 C628 0.960 . S
H615 C628 0.961 . S
H616 C628 0.959 . S
H617 C631 0.929 . S
H618 C632 0.931 . S
H619 C634 0.930 . S
C620 H608 0.930 . S
C620 C621 1.399 . S
C620 C625 1.399 . S
C621 C620 1.399 . S
C621 C622 1.376 . S
C622 H609 0.930 . S
C622 C621 1.376 . S
C622 C623 1.388 . S
C623 H610 0.930 . S
C623 C622 1.388 . S
C623 C624 1.390 . S
C624 C623 1.390 . S
C624 C625 1.394 . S
C624 C630 1.465 . S
C625 C620 1.399 . S
C625 C624 1.394 . S
C625 C626 1.516 . S
C626 C625 1.516 . S
C626 C627 1.502 . S
C626 C628 1.561 . S
C626 C629 1.526 . S
C627 H611 0.959 . S
C627 H612 0.959 . S
C627 H613 0.961 . S
C627 C626 1.502 . S
C628 H614 0.960 . S
C628 H615 0.961 . S
C628 H616 0.959 . S
C628 C626 1.561 . S
C629 C626 1.526 . S
C629 C630 1.396 . S
C629 C634 1.390 . S
C630 C624 1.465 . S
C630 C629 1.396 . S
C630 C631 1.399 . S
C631 H617 0.929 . S
C631 C630 1.399 . S
C631 C632 1.385 . S
C632 H618 0.931 . S
C632 C631 1.385 . S
C632 C633 1.389 . S
C633 C632 1.389 . S
C633 C634 1.387 . S
C634 H619 0.930 . S
C634 C629 1.390 . S
C634 C633 1.387 . S
H635 C647 0.930 . S
H636 C649 0.930 . S
H637 C650 0.930 . S
H638 C654 0.959 . S
H639 C654 0.959 . S
H640 C654 0.961 . S
H641 C655 0.960 . S
H642 C655 0.961 . S
H643 C655 0.959 . S
H644 C658 0.915 1_565 S
H645 C659 0.931 1_565 S
H646 C661 0.930 . S
C647 H635 0.930 . S
C647 C648 1.399 . S
C647 C652 1.399 . S
C648 C647 1.399 . S
C648 C649 1.376 . S
C649 H636 0.930 . S
C649 C648 1.376 . S
C649 C650 1.388 . S
C650 H637 0.930 . S
C650 C649 1.388 . S
C650 C651 1.390 . S
C651 C650 1.390 . S
C651 C652 1.394 . S
C651 C657 1.465 . S
C652 C647 1.399 . S
C652 C651 1.394 . S
C652 C653 1.516 . S
C653 C652 1.516 . S
C653 C654 1.502 . S
C653 C655 1.561 . S
C653 C656 1.526 . S
C654 H638 0.959 . S
C654 H639 0.959 . S
C654 H640 0.961 . S
C654 C653 1.502 . S
C655 H641 0.960 . S
C655 H642 0.961 . S
C655 H643 0.959 . S
C655 C653 1.561 . S
C656 C653 1.526 . S
C656 C657 1.396 . S
C656 C661 1.390 . S
C657 C651 1.465 . S
C657 C656 1.396 . S
C657 C658 1.399 . S
C658 H644 0.915 1_545 S
C658 C657 1.399 . S
C658 C659 1.385 . S
C659 H645 0.931 1_545 S
C659 C658 1.385 . S
C659 C660 1.389 . S
C660 C659 1.389 . S
C660 C661 1.387 . S
C661 H646 0.930 . S
C661 C656 1.390 . S
C661 C660 1.387 . S
H662 C674 0.930 . S
H663 C676 0.930 . S
H664 C677 0.930 . S
H665 C681 0.959 . S
H666 C681 0.959 . S
H667 C681 0.961 . S
H668 C682 0.960 . S
H669 C682 0.961 . S
H670 C682 0.959 . S
H671 C685 0.929 . S
H672 C686 0.931 . S
H673 C688 0.930 . S
C674 H662 0.930 . S
C674 C675 1.399 . S
C674 C679 1.399 . S
C675 C674 1.399 . S
C675 C676 1.376 . S
C676 H663 0.930 . S
C676 C675 1.376 . S
C676 C677 1.388 . S
C677 H664 0.930 . S
C677 C676 1.388 . S
C677 C678 1.390 . S
C678 C677 1.390 . S
C678 C679 1.394 . S
C678 C684 1.465 . S
C679 C674 1.399 . S
C679 C678 1.394 . S
C679 C680 1.516 . S
C680 C679 1.516 . S
C680 C681 1.502 . S
C680 C682 1.561 . S
C680 C683 1.526 . S
C681 H665 0.959 . S
C681 H666 0.959 . S
C681 H667 0.961 . S
C681 C680 1.502 . S
C682 H668 0.960 . S
C682 H669 0.961 . S
C682 H670 0.959 . S
C682 C680 1.561 . S
C683 C680 1.526 . S
C683 C684 1.396 . S
C683 C688 1.390 . S
C684 C678 1.465 . S
C684 C683 1.396 . S
C684 C685 1.399 . S
C685 H671 0.929 . S
C685 C684 1.399 . S
C685 C686 1.385 . S
C686 H672 0.931 . S
C686 C685 1.385 . S
C686 C687 1.389 . S
C687 C686 1.389 . S
C687 C688 1.387 . S
C688 H673 0.930 . S
C688 C683 1.390 . S
C688 C687 1.387 . S
H689 C701 0.930 . S
H690 C703 0.930 . S
H691 C704 0.930 . S
H692 C708 0.959 . S
H693 C708 0.959 . S
H694 C708 0.961 . S
H695 C709 0.960 . S
H696 C709 0.961 . S
H697 C709 0.959 . S
H698 C712 0.929 . S
H699 C713 0.931 . S
H700 C715 0.930 . S
C701 H689 0.930 . S
C701 C702 1.399 . S
C701 C706 1.399 . S
C702 C701 1.399 . S
C702 C703 1.376 . S
C703 H690 0.930 . S
C703 C702 1.376 . S
C703 C704 1.388 . S
C704 H691 0.930 . S
C704 C703 1.388 . S
C704 C705 1.390 . S
C705 C704 1.390 . S
C705 C706 1.394 . S
C705 C711 1.465 . S
C706 C701 1.399 . S
C706 C705 1.394 . S
C706 C707 1.516 . S
C707 C706 1.516 . S
C707 C708 1.502 . S
C707 C709 1.561 . S
C707 C710 1.526 . S
C708 H692 0.959 . S
C708 H693 0.959 . S
C708 H694 0.961 . S
C708 C707 1.502 . S
C709 H695 0.960 . S
C709 H696 0.961 . S
C709 H697 0.959 . S
C709 C707 1.561 . S
C710 C707 1.526 . S
C710 C711 1.396 . S
C710 C715 1.390 . S
C711 C705 1.465 . S
C711 C710 1.396 . S
C711 C712 1.399 . S
C712 H698 0.929 . S
C712 C711 1.399 . S
C712 C713 1.385 . S
C713 H699 0.931 . S
C713 C712 1.385 . S
C713 C714 1.389 . S
C714 C713 1.389 . S
C714 C715 1.387 . S
C715 H700 0.930 . S
C715 C710 1.390 . S
C715 C714 1.387 . S
H716 C728 0.930 . S
H717 C730 0.930 . S
H718 C731 0.930 . S
H719 C735 0.959 . S
H720 C735 0.959 . S
H721 C735 0.961 . S
H722 C736 0.960 . S
H723 C736 0.961 . S
H724 C736 0.959 . S
H725 C739 0.929 . S
H726 C740 0.931 . S
H727 C742 0.930 . S
C728 H716 0.930 . S
C728 C729 1.399 . S
C728 C733 1.399 . S
C729 C728 1.399 . S
C729 C730 1.376 . S
C730 H717 0.930 . S
C730 C729 1.376 . S
C730 C731 1.388 . S
C731 H718 0.930 . S
C731 C730 1.388 . S
C731 C732 1.390 . S
C732 C731 1.390 . S
C732 C733 1.394 . S
C732 C738 1.465 . S
C733 C728 1.399 . S
C733 C732 1.394 . S
C733 C734 1.516 . S
C734 C733 1.516 . S
C734 C735 1.502 . S
C734 C736 1.561 . S
C734 C737 1.526 . S
C735 H719 0.959 . S
C735 H720 0.959 . S
C735 H721 0.961 . S
C735 C734 1.502 . S
C736 H722 0.960 . S
C736 H723 0.961 . S
C736 H724 0.959 . S
C736 C734 1.561 . S
C737 C734 1.526 . S
C737 C738 1.396 . S
C737 C742 1.390 . S
C738 C732 1.465 . S
C738 C737 1.396 . S
C738 C739 1.399 . S
C739 H725 0.929 . S
C739 C738 1.399 . S
C739 C740 1.385 . S
C740 H726 0.931 . S
C740 C739 1.385 . S
C740 C741 1.389 . S
C741 C740 1.389 . S
C741 C742 1.387 . S
C742 H727 0.930 . S
C742 C737 1.390 . S
C742 C741 1.387 . S
H743 C755 0.930 . S
H744 C757 0.930 . S
H745 C758 0.930 . S
H746 C762 0.959 . S
H747 C762 0.959 . S
H748 C762 0.961 . S
H749 C763 0.960 . S
H750 C763 0.961 . S
H751 C763 0.959 . S
H752 C766 0.929 . S
H753 C767 0.931 . S
H754 C769 0.930 . S
C755 H743 0.930 . S
C755 C756 1.399 . S
C755 C760 1.399 . S
C756 C755 1.399 . S
C756 C757 1.376 . S
C757 H744 0.930 . S
C757 C756 1.376 . S
C757 C758 1.388 . S
C758 H745 0.930 . S
C758 C757 1.388 . S
C758 C759 1.390 . S
C759 C758 1.390 . S
C759 C760 1.394 . S
C759 C765 1.465 . S
C760 C755 1.399 . S
C760 C759 1.394 . S
C760 C761 1.516 . S
C761 C760 1.516 . S
C761 C762 1.502 . S
C761 C763 1.561 . S
C761 C764 1.526 . S
C762 H746 0.959 . S
C762 H747 0.959 . S
C762 H748 0.961 . S
C762 C761 1.502 . S
C763 H749 0.960 . S
C763 H750 0.961 . S
C763 H751 0.959 . S
C763 C761 1.561 . S
C764 C761 1.526 . S
C764 C765 1.396 . S
C764 C769 1.390 . S
C765 C759 1.465 . S
C765 C764 1.396 . S
C765 C766 1.399 . S
C766 H752 0.929 . S
C766 C765 1.399 . S
C766 C767 1.385 . S
C767 H753 0.931 . S
C767 C766 1.385 . S
C767 C768 1.389 . S
C768 C767 1.389 . S
C768 C769 1.387 . S
C769 H754 0.930 . S
C769 C764 1.390 . S
C769 C768 1.387 . S
H770 C782 0.930 . S
H771 C784 0.930 . S
H772 C785 0.930 . S
H773 C789 0.959 . S
H774 C789 0.959 . S
H775 C789 0.961 . S
H776 C790 0.960 . S
H777 C790 0.961 . S
H778 C790 0.959 . S
H779 C793 0.929 . S
H780 C794 0.929 . S
H781 C796 0.930 . S
C782 H770 0.930 . S
C782 C783 1.399 . S
C782 C787 1.399 . S
C783 C782 1.399 . S
C783 C784 1.376 . S
C784 H771 0.930 . S
C784 C783 1.376 . S
C784 C785 1.388 . S
C785 H772 0.930 . S
C785 C784 1.388 . S
C785 C786 1.390 . S
C786 C785 1.390 . S
C786 C787 1.394 . S
C786 C792 1.465 . S
C787 C782 1.399 . S
C787 C786 1.394 . S
C787 C788 1.516 . S
C788 C787 1.516 . S
C788 C789 1.502 . S
C788 C790 1.561 . S
C788 C791 1.526 . S
C789 H773 0.959 . S
C789 H774 0.959 . S
C789 H775 0.961 . S
C789 C788 1.502 . S
C790 H776 0.960 . S
C790 H777 0.961 . S
C790 H778 0.959 . S
C790 C788 1.561 . S
C791 C788 1.526 . S
C791 C792 1.396 . S
C791 C796 1.390 . S
C792 C786 1.465 . S
C792 C791 1.396 . S
C792 C793 1.399 . S
C793 H779 0.929 . S
C793 C792 1.399 . S
C793 C794 1.385 . S
C794 H780 0.929 . S
C794 C793 1.385 . S
C794 C795 1.389 . S
C795 C794 1.389 . S
C795 C796 1.387 . S
C796 H781 0.930 . S
C796 C791 1.390 . S
C796 C795 1.387 . S
H797 C809 0.930 . S
H798 C811 0.930 . S
H799 C812 0.930 . S
H800 C816 0.959 . S
H801 C816 0.959 . S
H802 C816 0.961 . S
H803 C817 0.960 . S
H804 C817 0.961 . S
H805 C817 0.959 . S
H806 C820 0.929 . S
H807 C821 0.931 . S
H808 C823 0.930 . S
C809 H797 0.930 . S
C809 C810 1.399 . S
C809 C814 1.399 . S
C810 C809 1.399 . S
C810 C811 1.376 . S
C811 H798 0.930 . S
C811 C810 1.376 . S
C811 C812 1.388 . S
C812 H799 0.930 . S
C812 C811 1.388 . S
C812 C813 1.390 . S
C813 C812 1.390 . S
C813 C814 1.394 . S
C813 C819 1.465 . S
C814 C809 1.399 . S
C814 C813 1.394 . S
C814 C815 1.516 . S
C815 C814 1.516 . S
C815 C816 1.502 . S
C815 C817 1.561 . S
C815 C818 1.526 . S
C816 H800 0.959 . S
C816 H801 0.959 . S
C816 H802 0.961 . S
C816 C815 1.502 . S
C817 H803 0.960 . S
C817 H804 0.961 . S
C817 H805 0.959 . S
C817 C815 1.561 . S
C818 C815 1.526 . S
C818 C819 1.396 . S
C818 C823 1.390 . S
C819 C813 1.465 . S
C819 C818 1.396 . S
C819 C820 1.399 . S
C820 H806 0.929 . S
C820 C819 1.399 . S
C820 C821 1.385 . S
C821 H807 0.931 . S
C821 C820 1.385 . S
C821 C822 1.389 . S
C822 C821 1.389 . S
C822 C823 1.387 . S
C823 H808 0.930 . S
C823 C818 1.390 . S
C823 C822 1.387 . S
C189 C6 1.441 . S
C201 C98 1.458 . S
C216 C18 1.606 . S
C228 C117 1.556 . S
C255 C154 1.786 . S
C243 C28 1.823 . S
C270 C40 1.175 . S
C282 C164 1.207 . S
C309 C134 2.047 . S
C297 C9 2.017 . S
C336 C104 1.412 . S
C324 C16 1.484 . S
C363 C175 1.485 . S
C351 C30 1.524 . S
C390 C145 1.133 . S
C378 C42 1.123 . S
C405 C4 1.570 . S
C417 C158 1.591 . S
C444 C125 1.840 . S
C432 C33 1.861 . S
C459 C45 1.545 . S
C471 C115 1.545 . S
C486 C21 1.390 . S
C498 C137 1.385 . S
C525 C97 1.463 . S
C513 C57 1.484 . S
C540 C66 1.597 . S
C552 C118 1.520 . S
C567 C76 1.864 . S
C579 C155 1.835 . S
C594 C88 1.119 . S
C606 C165 1.077 . S
C621 C54 2.001 . S
C633 C135 2.022 . S
C660 C105 1.472 . S
C648 C64 1.551 . S
C687 C174 1.411 . S
C675 C78 1.431 . S
C714 C144 1.161 . S
C702 C93 1.157 . S
C729 C52 1.527 . S
C741 C157 1.575 . S
C768 C124 1.806 . S
C756 C81 1.857 . S
C795 C114 1.545 . S
C783 C90 1.530 . S
C810 C69 1.435 . S
C822 C138 1.446 . S
