# Generated by pormake.
# Topology zzz, (3,6)-cn, num edge types: 1
# Building blocks:
#     Node 0, Type 0, BuildingBlock: CUQRIR_clean_linker_1, # of connection points: 3
#     Node 1, Type 0, BuildingBlock: CUQRIR_clean_linker_1, # of connection points: 3
#     Node 2, Type 0, BuildingBlock: CUQRIR_clean_linker_1, # of connection points: 3
#     Node 3, Type 0, BuildingBlock: CUQRIR_clean_linker_1, # of connection points: 3
#     Node 4, Type 0, BuildingBlock: CUQRIR_clean_linker_1, # of connection points: 3
#     Node 5, Type 0, BuildingBlock: CUQRIR_clean_linker_1, # of connection points: 3
#     Node 6, Type 0, BuildingBlock: CUQRIR_clean_linker_1, # of connection points: 3
#     Node 7, Type 0, BuildingBlock: CUQRIR_clean_linker_1, # of connection points: 3
#     Node 8, Type 1, BuildingBlock: NUHQIS_clean_sbu_0, # of connection points: 6
#     Node 9, Type 1, BuildingBlock: NUHQIS_clean_sbu_0, # of connection points: 6
#     Node 10, Type 1, BuildingBlock: NUHQIS_clean_sbu_0, # of connection points: 6
#     Node 11, Type 1, BuildingBlock: NUHQIS_clean_sbu_0, # of connection points: 6
#     Edge 12, Type (0, 1), None
#     Edge 13, Type (0, 1), None
#     Edge 14, Type (0, 1), None
#     Edge 15, Type (0, 1), None
#     Edge 16, Type (0, 1), None
#     Edge 17, Type (0, 1), None
#     Edge 18, Type (0, 1), None
#     Edge 19, Type (0, 1), None
#     Edge 20, Type (0, 1), None
#     Edge 21, Type (0, 1), None
#     Edge 22, Type (0, 1), None
#     Edge 23, Type (0, 1), None
#     Edge 24, Type (0, 1), None
#     Edge 25, Type (0, 1), None
#     Edge 26, Type (0, 1), None
#     Edge 27, Type (0, 1), None
#     Edge 28, Type (0, 1), None
#     Edge 29, Type (0, 1), None
#     Edge 30, Type (0, 1), None
#     Edge 31, Type (0, 1), None
#     Edge 32, Type (0, 1), None
#     Edge 33, Type (0, 1), None
#     Edge 34, Type (0, 1), None
#     Edge 35, Type (0, 1), None
# Relax obj value: 0.896
# Max RMSD: 0.244
# Mean RMSD: 0.130
data_MOF--net-zzz--node1-NUHQIS_clean_sbu_0--node2-CUQRIR_clean_linker_1--edge1-none
_symmetry_space_group_name_H-M    P1
_symmetry_Int_Tables_number       1
_symmetry_cell_setting            triclinic
loop_
_symmetry_equiv_pos_as_xyz
'x, y, z'
_cell_length_a     19.557661
_cell_length_b     19.594987
_cell_length_c     6.2648967
_cell_angle_alpha  88.119677
_cell_angle_beta   89.04242
_cell_angle_gamma 89.176904
loop_
_atom_site_label
_atom_site_type_symbol
_atom_site_fract_x
_atom_site_fract_y
_atom_site_fract_z
_atom_type_partial_charge
C0 C 0.78476 0.61681 0.44381 0.0
N1 N 0.83819 0.5826 0.57054 0.0
N2 N 0.73793 0.57394 0.33248 0.0
C3 C 0.77654 0.69214 0.42611 0.0
C4 C 0.77482 0.51611 0.37377 0.0
N5 N 0.8198 0.51871 0.54106 0.0
C6 C 0.79417 0.47822 0.18304 0.0
H7 H 0.72368 0.70579 0.37963 0.0
H8 H 0.81051 0.71152 0.29539 0.0
H9 H 0.78876 0.71531 0.57966 0.0
H10 H 0.82464 0.51607 0.09166 0.0
H11 H 0.75184 0.46493 0.081 0.0
H12 H 0.82208 0.43105 0.21676 0.0
C13 C 0.98979 0.7815 0.46049 0.0
N14 N 1.0285 0.83429 0.56199 0.0
N15 N 1.02513 0.73877 0.30416 0.0
C16 C 0.91661 0.77283 0.50746 0.0
C17 C 0.08054 0.77837 0.30113 0.0
N18 N 0.08808 0.81879 0.4749 0.0
C19 C 0.10049 0.80592 0.09044 0.0
H20 H 0.90668 0.71811 0.51815 0.0
H21 H 0.88779 0.79451 0.37 0.0
H22 H 0.90139 0.79702 0.659 0.0
H23 H 0.0585 0.80056 0.97655 0.0
H24 H 0.14427 0.77859 1.02349 0.0
H25 H 0.11134 0.86001 0.10698 0.0
C26 C 0.81751 0.99181 0.46043 0.0
N27 N 0.75537 1.03144 0.4995 0.0
N28 N 0.85489 1.00764 0.26219 0.0
C29 C 0.83844 0.93278 0.59897 0.0
C30 C 0.8091 0.05393 0.19046 0.0
N31 N 0.76303 0.07556 0.33605 0.0
C32 C 0.79698 0.06681 0.96154 0.0
H33 H 0.88742 0.9437 0.67389 0.0
H34 H 0.84679 0.8896 0.49448 0.0
H35 H 0.79956 0.91985 0.72357 0.0
H36 H 0.7993 1.0177 0.88484 0.0
H37 H 0.83362 0.10122 0.88582 0.0
H38 H 0.74772 0.09267 0.94664 0.0
C39 C 0.63453 0.81789 0.47378 0.0
N40 N 0.60209 0.75162 0.5142 0.0
N41 N 0.61172 0.8592 0.28708 0.0
C42 C 0.69196 0.8402 0.60461 0.0
C43 C 0.57124 0.8094 0.22364 0.0
N44 N 0.55388 0.7617 0.37277 0.0
C45 C 0.54969 0.80153 1.00458 0.0
H46 H 0.67828 0.8896 0.67577 0.0
H47 H 0.73652 0.84763 0.49606 0.0
H48 H 0.70464 0.80159 0.73192 0.0
H49 H 0.59335 0.80677 0.8931 0.0
H50 H 0.50918 0.83706 0.96329 0.0
H51 H 0.52367 0.75284 1.00572 0.0
C52 C 0.30801 0.46313 0.30516 0.0
N53 N 0.25698 0.50191 0.18371 0.0
N54 N 0.35596 0.50093 0.43343 0.0
C55 C 0.31858 0.38956 0.2675 0.0
C56 C 0.32462 0.56135 0.38791 0.0
N57 N 0.28027 0.5631 0.21691 0.0
C58 C 0.30256 0.59539 0.57966 0.0
H59 H 0.29465 0.35962 0.40012 0.0
H60 H 0.37289 0.3775 0.26489 0.0
H61 H 0.29818 0.37608 0.1105 0.0
H62 H 0.34152 0.59489 0.70275 0.0
H63 H 0.26153 0.56274 0.64213 0.0
H64 H 0.28689 0.64826 0.54737 0.0
C65 C 0.10696 0.30911 0.28407 0.0
N66 N 0.06769 0.25487 0.19411 0.0
N67 N 0.07368 0.35277 0.44135 0.0
C68 C 0.17895 0.31718 0.22973 0.0
C69 C 1.01856 0.31258 0.45194 0.0
N70 N 1.0081 0.2714 0.28059 0.0
C71 C 1.00804 0.28466 0.66628 0.0
H72 H 0.20797 0.28971 0.35643 0.0
H73 H 0.18904 0.37184 0.23579 0.0
H74 H 0.19147 0.29724 0.06978 0.0
H75 H 0.97888 0.32051 0.76442 0.0
H76 H 0.05788 0.28298 0.74733 0.0
H77 H 0.98633 0.23405 0.65135 0.0
C78 C 0.28582 0.10899 0.30045 0.0
N79 N 0.34832 0.07017 0.2621 0.0
N80 N 0.24689 0.09064 0.49457 0.0
C81 C 0.26994 0.1723 0.17291 0.0
C82 C 0.29447 1.04665 0.56855 0.0
N83 N 0.34031 1.02444 0.42229 0.0
C84 C 0.30075 1.02625 0.79602 0.0
H85 H 0.29714 0.1739 1.01636 0.0
H86 H 0.28851 0.21584 0.26281 0.0
H87 H 0.21413 0.17714 0.15236 0.0
H88 H 0.26408 0.98723 0.8436 0.0
H89 H 0.2925 0.07073 0.89412 0.0
H90 H 0.35123 1.00327 0.81572 0.0
C91 C 0.47954 0.27811 0.29686 0.0
N92 N 0.49041 0.35147 0.29005 0.0
N93 N 0.4814 0.24445 0.50415 0.0
C94 C 0.46053 0.23928 0.11411 0.0
C95 C 0.47519 0.30254 0.60936 0.0
N96 N 0.50411 0.35453 0.49569 0.0
C97 C 0.40749 0.31711 0.71895 0.0
H98 H 0.4717 0.18517 0.14534 0.0
H99 H 0.49103 0.25814 0.9803 0.0
H100 H 0.40483 0.24516 0.09068 0.0
H101 H 0.37652 0.27026 0.74103 0.0
H102 H 0.378 0.35515 0.62661 0.0
H103 H 0.41478 0.34212 0.87186 0.0
Tb104 Tb 0.07767 1.02099 1.01341 0.0
Eu105 Eu 1.02105 0.07136 0.7294 0.0
C106 C 0.18057 0.09549 0.61364 0.0
C107 C 0.07913 0.1883 0.08458 0.0
C108 C 0.18617 0.92867 0.40153 0.0
C109 C 0.20857 0.81206 0.48021 0.0
C110 C 0.21708 0.86775 0.33685 0.0
C111 C 0.16451 0.93183 0.6147 0.0
C112 C 0.16073 0.87109 0.72945 0.0
C113 C 0.15022 0.81664 0.60029 0.0
C114 C 0.17001 0.98237 0.25634 0.0
O115 O 0.98099 0.98358 0.20548 0.0
O116 O 0.92593 1.02682 0.93883 0.0
O117 O 1.02159 0.96098 0.56434 0.0
O118 O 1.03692 0.91547 0.87164 0.0
C119 C 0.91924 0.99928 0.13546 0.0
O120 O 0.92635 0.12911 0.68541 0.0
O121 O 0.97831 0.0796 0.43063 0.0
O122 O 0.12066 0.11219 0.53502 0.0
O123 O 0.17077 0.06578 0.80942 0.0
O124 O 0.07149 0.12706 0.18029 0.0
O125 O 0.06481 0.17711 0.87989 0.0
C126 C 1.0178 0.90139 0.66955 0.0
O127 O 0.17008 0.96826 0.05637 0.0
O128 O 0.11504 1.01528 0.30982 0.0
C129 C 0.90651 0.16546 0.3375 0.0
C130 C 0.94656 0.27759 0.14702 0.0
C131 C 0.88445 0.28064 0.25341 0.0
C132 C 0.87501 0.22609 0.39965 0.0
C133 C 0.93021 0.16275 0.12492 0.0
C134 C 0.93624 0.22418 1.01388 0.0
C135 C 0.92454 0.11368 0.48688 0.0
H136 H 0.25145 0.78596 0.54921 0.0
H137 H 0.24909 0.86661 0.19546 0.0
H138 H 0.13548 0.97291 0.67241 0.0
H139 H 0.19801 0.86556 0.85475 0.0
H140 H 0.84258 0.31346 0.20061 0.0
H141 H 0.84195 0.22891 0.53911 0.0
H142 H 0.95917 0.12194 0.06633 0.0
H143 H 0.90069 0.23192 0.8839 0.0
Tb144 Tb 0.57956 0.07501 1.01144 0.0
Eu145 Eu 0.53281 1.03585 0.76113 0.0
C146 C 0.49807 0.17736 0.60479 0.0
C147 C 0.41324 0.07268 0.12747 0.0
C148 C 0.65451 0.23202 0.25822 0.0
C149 C 0.76094 0.19288 0.1698 0.0
C150 C 0.71287 0.24263 0.13532 0.0
C151 C 0.66578 0.21967 0.47608 0.0
C152 C 0.71906 0.17605 0.52589 0.0
C153 C 0.75291 0.1479 0.35135 0.0
C154 C 0.6069 0.18702 0.16313 0.0
O155 O 0.63045 0.98764 0.22243 0.0
O156 O 0.57201 0.93775 0.98915 0.0
O157 O 0.63473 0.06575 0.57133 0.0
O158 O 0.67584 1.01716 0.83762 0.0
C159 C 0.61013 0.92663 0.16561 0.0
O160 O 0.53021 0.98957 0.46633 0.0
O161 O 0.519 0.92883 0.7531 0.0
O162 O 0.48031 0.11834 0.5379 0.0
O163 O 0.53637 0.1675 0.78362 0.0
O164 O 0.47504 0.05363 0.19462 0.0
O165 O 0.42285 0.08095 0.91674 0.0
C166 C 0.69049 1.03319 0.63145 0.0
O167 O 0.61836 0.17208 0.96348 0.0
O168 O 0.58711 0.13363 0.27591 0.0
C169 C 0.45174 0.90896 0.47348 0.0
C170 C 0.33075 0.95308 0.37996 0.0
C171 C 0.33516 0.90726 0.55765 0.0
C172 C 0.39975 0.89289 0.62168 0.0
C173 C 0.43497 0.91946 0.25736 0.0
C174 C 0.3677 0.9288 0.21119 0.0
C175 C 0.51389 0.93087 0.5477 0.0
H176 H 0.79868 0.18815 0.04641 0.0
H177 H 0.71115 0.26478 0.97625 0.0
H178 H 0.62561 0.22451 0.59104 0.0
H179 H 0.7231 0.15623 0.68539 0.0
H180 H 0.29552 0.9002 0.675 0.0
H181 H 0.40843 0.87879 0.78694 0.0
H182 H 0.47034 0.92426 0.13169 0.0
H183 H 0.34868 0.92962 0.0537 0.0
Tb184 Tb 0.5243 0.58112 1.00871 0.0
Eu185 Eu 0.56834 0.52235 0.80572 0.0
C186 C 0.41672 0.487 0.58031 0.0
C187 C 0.50206 0.41364 0.14591 0.0
C188 C 0.41184 0.67206 0.43665 0.0
C189 C 0.43132 0.77781 0.3156 0.0
C190 C 0.38251 0.7324 0.36255 0.0
C191 C 0.44391 0.68085 0.63244 0.0
C192 C 0.4705 0.74433 0.65702 0.0
C193 C 0.48713 0.77438 0.45747 0.0
C194 C 0.4408 0.62767 0.27239 0.0
O195 O 0.62805 0.62137 0.15418 0.0
O196 O 0.64854 0.51788 0.10819 0.0
O197 O 0.58299 0.62571 0.57429 0.0
O198 O 0.58801 0.6768 0.85813 0.0
C199 C 0.67474 0.57334 0.19649 0.0
O200 O 0.67701 0.50938 0.76548 0.0
O201 O 0.6042 0.48505 0.51326 0.0
O202 O 0.44849 0.5307 0.70671 0.0
O203 O 0.44854 0.53572 0.71388 0.0
O204 O 0.51634 0.47648 0.21499 0.0
O205 O 0.51392 0.41712 0.93769 0.0
C206 C 0.60169 0.68569 0.64798 0.0
O207 O 0.44135 0.64674 0.07079 0.0
O208 O 0.48894 0.58417 0.3216 0.0
C209 C 0.69205 0.40748 0.59831 0.0
C210 C 0.57544 0.3529 0.53183 0.0
C211 C 0.60337 0.34165 0.73734 0.0
C212 C 0.66603 0.36985 0.7705 0.0
C213 C 0.68722 0.37732 0.40493 0.0
C214 C 0.62215 0.36152 0.35834 0.0
C215 C 0.66523 0.47571 0.59411 0.0
H216 H 0.4309 0.79572 0.15331 0.0
H217 H 0.34633 0.75385 0.47131 0.0
H218 H 0.4738 0.64375 0.70964 0.0
H219 H 0.4385 0.77216 0.76572 0.0
H220 H 0.57626 0.31797 0.8693 0.0
H221 H 0.68329 0.37835 0.92956 0.0
H222 H 0.72757 0.37417 0.28879 0.0
H223 H 0.6106 0.35332 0.19514 0.0
Tb224 Tb 1.02202 0.51469 1.02017 0.0
Eu225 Eu 0.07829 0.58054 0.71527 0.0
C226 C 0.08158 0.4138 0.58418 0.0
C227 C 0.18977 0.49316 0.07562 0.0
C228 C 0.93191 0.41888 0.49439 0.0
C229 C 0.82198 0.39743 0.64497 0.0
C230 C 0.87679 0.37497 0.52712 0.0
C231 C 0.94301 0.45624 0.67438 0.0
C232 C 0.88887 0.46086 0.81712 0.0
C233 C 0.82781 0.46408 0.70611 0.0
C234 C 0.9477 0.44599 0.2793 0.0
O235 O 1.02225 0.61252 0.23002 0.0
O236 O 1.0391 0.6783 0.94901 0.0
O237 O 0.96439 0.59807 0.55828 0.0
O238 O 0.92317 0.5774 0.87337 0.0
C239 C 1.01952 0.67819 0.16023 0.0
O240 O 0.11841 0.67899 0.589 0.0
O241 O 0.15548 0.58497 0.4701 0.0
O242 O 0.08178 0.478 0.50807 0.0
O243 O 0.06104 0.41729 0.79704 0.0
O244 O 0.12996 0.50029 0.17655 0.0
O245 O 0.17714 0.5131 0.87153 0.0
C246 C 0.90587 0.59729 0.66984 0.0
O247 O 0.99414 0.41903 0.15748 0.0
O248 O 0.94409 0.51115 0.24901 0.0
C249 C 0.18314 0.68021 0.25015 0.0
C250 C 0.27937 0.61574 0.04619 0.0
C251 C 0.29795 0.67895 0.09931 0.0
C252 C 0.24764 0.71265 0.21963 0.0
C253 C 0.16552 0.64516 0.06988 0.0
C254 C 0.21836 0.62875 0.93539 0.0
C255 C 0.16163 0.65026 0.45961 0.0
H256 H 0.80076 0.36049 0.7613 0.0
H257 H 0.88853 0.32719 0.6018 0.0
H258 H 0.98163 0.49248 0.68192 0.0
H259 H 0.89283 0.4224 0.94315 0.0
H260 H 0.32943 0.70856 0.98621 0.0
H261 H 0.2475 0.76244 0.14779 0.0
H262 H 0.12554 0.61051 0.07058 0.0
H263 H 0.21979 0.6668 0.80732 0.0
loop_
_geom_bond_atom_site_label_1
_geom_bond_atom_site_label_2
_geom_bond_distance
_geom_bond_site_symmetry_2
_ccdc_geom_bond_type
C0 N1 1.317 . S
C0 N2 1.348 . S
C0 C3 1.485 1_556 S
N1 C0 1.317 . S
N1 N5 1.370 . S
N2 C0 1.348 . S
N2 C4 1.346 . S
C3 C0 1.485 1_554 S
C3 H7 0.960 . S
C3 H8 0.961 1_554 S
C3 H9 0.960 . S
C4 N2 1.346 . S
C4 N5 1.307 . S
C4 C6 1.486 . S
N5 N1 1.370 . S
N5 C4 1.307 . S
C6 C4 1.486 . S
C6 H10 0.960 . S
C6 H11 0.960 . S
C6 H12 0.959 . S
H7 C3 0.960 . S
H8 C3 0.961 1_556 S
H9 C3 0.960 . S
H10 C6 0.960 . S
H11 C6 0.960 . S
H12 C6 0.959 . S
C13 N14 1.317 . S
C13 N15 1.348 . S
C13 C16 1.485 1_556 S
N14 C13 1.317 . S
N14 N18 1.371 . S
N15 C13 1.348 . S
N15 C17 1.346 1_655 S
C16 C13 1.485 1_554 S
C16 H20 0.960 1_655 S
C16 H21 0.961 1_554 S
C16 H22 0.960 . S
C17 N15 1.346 1_455 S
C17 N18 1.307 1_455 S
C17 C19 1.486 . S
N18 N14 1.371 . S
N18 C17 1.307 1_655 S
C19 C17 1.486 . S
C19 H23 0.960 1_455 S
C19 H24 0.960 . S
C19 H25 0.959 . S
H20 C16 0.960 1_455 S
H21 C16 0.961 1_556 S
H22 C16 0.960 . S
H23 C19 0.960 1_655 S
H24 C19 0.960 . S
H25 C19 0.959 . S
C26 N27 1.317 . S
C26 N28 1.348 . S
C26 C29 1.485 1_556 S
N27 C26 1.317 . S
N27 N31 1.371 . S
N28 C26 1.348 . S
N28 C30 1.346 1_565 S
C29 C26 1.485 1_554 S
C29 H33 0.960 1_565 S
C29 H34 0.961 1_554 S
C29 H35 0.960 . S
C30 N28 1.346 1_545 S
C30 N31 1.307 1_545 S
C30 C32 1.486 . S
N31 N27 1.371 . S
N31 C30 1.307 1_565 S
C32 C30 1.486 . S
C32 H36 0.960 1_545 S
C32 H37 0.960 . S
C32 H38 0.959 . S
H33 C29 0.960 1_545 S
H34 C29 0.961 1_556 S
H35 C29 0.960 . S
H36 C32 0.960 1_565 S
H37 C32 0.960 . S
H38 C32 0.959 . S
C39 N40 1.317 . S
C39 N41 1.348 . S
C39 C42 1.485 1_556 S
N40 C39 1.317 . S
N40 N44 1.370 . S
N41 C39 1.348 . S
N41 C43 1.346 . S
C42 C39 1.485 1_554 S
C42 H46 0.960 . S
C42 H47 0.961 1_554 S
C42 H48 0.960 . S
C43 N41 1.346 . S
C43 N44 1.307 . S
C43 C45 1.486 . S
N44 N40 1.370 . S
N44 C43 1.307 . S
C45 C43 1.486 . S
C45 H49 0.960 . S
C45 H50 0.960 . S
C45 H51 0.959 . S
H46 C42 0.960 . S
H47 C42 0.961 1_556 S
H48 C42 0.960 . S
H49 C45 0.960 . S
H50 C45 0.960 . S
H51 C45 0.959 . S
C52 N53 1.317 . S
C52 N54 1.348 1_556 S
C52 C55 1.485 . S
N53 C52 1.317 . S
N53 N57 1.370 1_556 S
N54 C52 1.348 1_554 S
N54 C56 1.346 . S
C55 C52 1.485 . S
C55 H59 0.960 . S
C55 H60 0.961 . S
C55 H61 0.960 . S
C56 N54 1.346 . S
C56 N57 1.307 . S
C56 C58 1.486 . S
N57 N53 1.370 1_554 S
N57 C56 1.307 . S
C58 C56 1.486 . S
C58 H62 0.960 . S
C58 H63 0.960 . S
C58 H64 0.959 . S
H59 C55 0.960 . S
H60 C55 0.961 . S
H61 C55 0.960 . S
H62 C58 0.960 . S
H63 C58 0.960 . S
H64 C58 0.959 . S
C65 N66 1.317 . S
C65 N67 1.348 1_556 S
C65 C68 1.485 . S
N66 C65 1.317 . S
N66 N70 1.371 1_556 S
N67 C65 1.348 1_554 S
N67 C69 1.346 1_655 S
C68 C65 1.485 . S
C68 H72 0.960 1_655 S
C68 H73 0.961 . S
C68 H74 0.960 . S
C69 N67 1.346 1_455 S
C69 N70 1.307 1_455 S
C69 C71 1.487 . S
N70 N66 1.371 1_554 S
N70 C69 1.307 1_655 S
C71 C69 1.487 . S
C71 H75 0.960 1_455 S
C71 H76 0.960 . S
C71 H77 0.959 . S
H72 C68 0.960 1_455 S
H73 C68 0.961 . S
H74 C68 0.960 . S
H75 C71 0.960 1_655 S
H76 C71 0.960 . S
H77 C71 0.959 . S
C78 N79 1.317 . S
C78 N80 1.348 1_556 S
C78 C81 1.485 . S
N79 C78 1.317 . S
N79 N83 1.371 1_556 S
N80 C78 1.348 1_554 S
N80 C82 1.346 1_565 S
C81 C78 1.485 . S
C81 H85 0.960 1_565 S
C81 H86 0.961 . S
C81 H87 0.960 . S
C82 N80 1.346 1_545 S
C82 N83 1.307 1_545 S
C82 C84 1.487 . S
N83 N79 1.371 1_554 S
N83 C82 1.307 1_565 S
C84 C82 1.487 . S
C84 H88 0.960 1_545 S
C84 H89 0.960 . S
C84 H90 0.959 . S
H85 C81 0.960 1_545 S
H86 C81 0.961 . S
H87 C81 0.960 . S
H88 C84 0.960 1_565 S
H89 C84 0.960 . S
H90 C84 0.959 . S
C91 N92 1.317 . S
C91 N93 1.348 1_556 S
C91 C94 1.485 . S
N92 C91 1.317 . S
N92 N96 1.370 1_556 S
N93 C91 1.348 1_554 S
N93 C95 1.346 . S
C94 C91 1.485 . S
C94 H98 0.960 . S
C94 H99 0.961 . S
C94 H100 0.960 . S
C95 N93 1.346 . S
C95 N96 1.307 . S
C95 C97 1.486 . S
N96 N92 1.370 1_554 S
N96 C95 1.307 . S
C97 C95 1.486 . S
C97 H101 0.960 . S
C97 H102 0.960 . S
C97 H103 0.959 . S
H98 C94 0.960 . S
H99 C94 0.961 . S
H100 C94 0.960 . S
H101 C97 0.960 . S
H102 C97 0.960 . S
H103 C97 0.959 . S
Tb104 C114 2.825 . S
Tb104 O115 2.347 1_455 S
Tb104 O118 2.366 1_554 S
Tb104 O123 2.418 1_554 S
Tb104 O124 2.384 1_565 S
Tb104 O127 2.479 . S
Tb104 O128 2.471 . S
Eu105 O116 2.418 . S
Eu105 O117 2.384 1_545 S
Eu105 O120 2.479 . S
Eu105 O121 2.471 . S
Eu105 O122 2.347 1_655 S
Eu105 O125 2.366 . S
Eu105 C135 2.825 . S
C106 O122 1.259 1_565 S
C106 O123 1.265 . S
C107 O124 1.255 1_556 S
C107 O125 1.265 1_455 S
C108 C110 1.380 . S
C108 C111 1.374 . S
C108 C114 1.507 . S
C109 C110 1.384 . S
C109 C113 1.387 . S
C109 H136 0.930 . S
C110 C108 1.380 . S
C110 C109 1.384 . S
C110 H137 0.931 . S
C111 C108 1.374 . S
C111 C112 1.390 . S
C111 H138 0.930 . S
C112 C111 1.390 . S
C112 C113 1.391 . S
C112 H139 0.930 . S
C113 C109 1.387 . S
C113 C112 1.391 . S
C114 Tb104 2.825 . S
C114 C108 1.507 . S
C114 O127 1.238 . S
C114 O128 1.247 . S
O115 Tb104 2.347 1_655 S
O115 C119 1.259 1_565 S
O116 Eu105 2.418 . S
O116 C119 1.265 1_556 S
O117 Eu105 2.384 1_565 S
O117 C126 1.255 . S
O118 Tb104 2.366 1_556 S
O118 C126 1.265 1_455 S
C119 O115 1.259 1_545 S
C119 O116 1.265 1_554 S
O120 Eu105 2.479 . S
O120 C135 1.238 . S
O121 Eu105 2.471 . S
O121 C135 1.247 . S
O122 Eu105 2.347 1_455 S
O122 C106 1.259 1_545 S
O123 Tb104 2.418 1_556 S
O123 C106 1.265 . S
O124 Tb104 2.384 1_545 S
O124 C107 1.255 1_554 S
O125 Eu105 2.366 . S
O125 C107 1.265 1_655 S
C126 O117 1.255 . S
C126 O118 1.265 1_655 S
O127 Tb104 2.479 . S
O127 C114 1.238 . S
O128 Tb104 2.471 . S
O128 C114 1.247 . S
C129 C132 1.380 . S
C129 C133 1.374 . S
C129 C135 1.507 . S
C130 C131 1.387 . S
C130 C134 1.391 . S
C131 C130 1.387 . S
C131 C132 1.384 . S
C131 H140 0.930 . S
C132 C129 1.380 . S
C132 C131 1.384 . S
C132 H141 0.931 . S
C133 C129 1.374 . S
C133 C134 1.390 . S
C133 H142 0.930 . S
C134 C130 1.391 . S
C134 C133 1.390 . S
C134 H143 0.930 . S
C135 Eu105 2.825 . S
C135 O120 1.238 . S
C135 O121 1.247 . S
C135 C129 1.507 . S
H136 C109 0.930 . S
H137 C110 0.931 . S
H138 C111 0.930 . S
H139 C112 0.930 . S
H140 C131 0.930 . S
H141 C132 0.931 . S
H142 C133 0.930 . S
H143 C134 0.930 . S
Tb144 C154 2.825 . S
Tb144 O155 2.347 1_545 S
Tb144 O158 2.366 1_554 S
Tb144 O163 2.418 1_554 S
Tb144 O164 2.384 . S
Tb144 O167 2.479 . S
Tb144 O168 2.471 . S
Eu145 O156 2.418 . S
Eu145 O157 2.384 . S
Eu145 O160 2.479 . S
Eu145 O161 2.471 . S
Eu145 O162 2.347 1_565 S
Eu145 O165 2.366 . S
Eu145 C175 2.825 . S
C146 O162 1.259 . S
C146 O163 1.265 . S
C147 O164 1.255 1_556 S
C147 O165 1.265 1_545 S
C148 C150 1.380 . S
C148 C151 1.374 . S
C148 C154 1.507 . S
C149 C150 1.384 . S
C149 C153 1.387 . S
C149 H176 0.930 . S
C150 C148 1.380 . S
C150 C149 1.384 . S
C150 H177 0.931 . S
C151 C148 1.374 . S
C151 C152 1.390 . S
C151 H178 0.930 . S
C152 C151 1.390 . S
C152 C153 1.391 . S
C152 H179 0.930 . S
C153 C149 1.387 . S
C153 C152 1.391 . S
C154 Tb144 2.825 . S
C154 C148 1.507 . S
C154 O167 1.238 . S
C154 O168 1.247 . S
O155 Tb144 2.347 1_565 S
O155 C159 1.259 . S
O156 Eu145 2.418 . S
O156 C159 1.265 1_556 S
O157 Eu145 2.384 . S
O157 C166 1.255 . S
O158 Tb144 2.366 1_556 S
O158 C166 1.265 1_545 S
C159 O155 1.259 . S
C159 O156 1.265 1_554 S
O160 Eu145 2.479 . S
O160 C175 1.238 . S
O161 Eu145 2.471 . S
O161 C175 1.247 . S
O162 Eu145 2.347 1_545 S
O162 C146 1.259 . S
O163 Tb144 2.418 1_556 S
O163 C146 1.265 . S
O164 Tb144 2.384 . S
O164 C147 1.255 1_554 S
O165 Eu145 2.366 . S
O165 C147 1.265 1_565 S
C166 O157 1.255 . S
C166 O158 1.265 1_565 S
O167 Tb144 2.479 . S
O167 C154 1.238 . S
O168 Tb144 2.471 . S
O168 C154 1.247 . S
C169 C172 1.380 . S
C169 C173 1.374 . S
C169 C175 1.507 . S
C170 C171 1.387 . S
C170 C174 1.391 . S
C171 C170 1.387 . S
C171 C172 1.384 . S
C171 H180 0.930 . S
C172 C169 1.380 . S
C172 C171 1.384 . S
C172 H181 0.931 . S
C173 C169 1.374 . S
C173 C174 1.390 . S
C173 H182 0.930 . S
C174 C170 1.391 . S
C174 C173 1.390 . S
C174 H183 0.930 . S
C175 Eu145 2.825 . S
C175 O160 1.238 . S
C175 O161 1.247 . S
C175 C169 1.507 . S
H176 C149 0.930 . S
H177 C150 0.931 . S
H178 C151 0.930 . S
H179 C152 0.930 . S
H180 C171 0.930 . S
H181 C172 0.931 . S
H182 C173 0.930 . S
H183 C174 0.930 . S
Tb184 C194 2.825 . S
Tb184 O195 2.347 . S
Tb184 O198 2.366 1_554 S
Tb184 O203 2.418 1_554 S
Tb184 O204 2.384 . S
Tb184 O207 2.479 . S
Tb184 O208 2.471 . S
Eu185 O196 2.418 . S
Eu185 O197 2.384 . S
Eu185 O200 2.479 . S
Eu185 O201 2.471 . S
Eu185 O202 2.347 . S
Eu185 O205 2.366 . S
Eu185 C215 2.825 . S
C186 O202 1.259 . S
C186 O203 1.265 . S
C187 O204 1.255 1_556 S
C187 O205 1.265 . S
C188 C190 1.380 . S
C188 C191 1.374 . S
C188 C194 1.507 . S
C189 C190 1.384 . S
C189 C193 1.387 . S
C189 H216 0.930 . S
C190 C188 1.380 . S
C190 C189 1.384 . S
C190 H217 0.931 . S
C191 C188 1.374 . S
C191 C192 1.390 . S
C191 H218 0.930 . S
C192 C191 1.390 . S
C192 C193 1.391 . S
C192 H219 0.930 . S
C193 C189 1.387 . S
C193 C192 1.391 . S
C194 Tb184 2.825 . S
C194 C188 1.507 . S
C194 O207 1.238 . S
C194 O208 1.247 . S
O195 Tb184 2.347 . S
O195 C199 1.259 . S
O196 Eu185 2.418 . S
O196 C199 1.265 1_556 S
O197 Eu185 2.384 . S
O197 C206 1.255 . S
O198 Tb184 2.366 1_556 S
O198 C206 1.265 . S
C199 O195 1.259 . S
C199 O196 1.265 1_554 S
O200 Eu185 2.479 . S
O200 C215 1.238 . S
O201 Eu185 2.471 . S
O201 C215 1.247 . S
O202 Eu185 2.347 . S
O202 C186 1.259 . S
O203 Tb184 2.418 1_556 S
O203 C186 1.265 . S
O204 Tb184 2.384 . S
O204 C187 1.255 1_554 S
O205 Eu185 2.366 . S
O205 C187 1.265 . S
C206 O197 1.255 . S
C206 O198 1.265 . S
O207 Tb184 2.479 . S
O207 C194 1.238 . S
O208 Tb184 2.471 . S
O208 C194 1.247 . S
C209 C212 1.380 . S
C209 C213 1.374 . S
C209 C215 1.507 . S
C210 C211 1.387 . S
C210 C214 1.391 . S
C211 C210 1.387 . S
C211 C212 1.384 . S
C211 H220 0.930 . S
C212 C209 1.380 . S
C212 C211 1.384 . S
C212 H221 0.931 . S
C213 C209 1.374 . S
C213 C214 1.390 . S
C213 H222 0.930 . S
C214 C210 1.391 . S
C214 C213 1.390 . S
C214 H223 0.930 . S
C215 Eu185 2.825 . S
C215 O200 1.238 . S
C215 O201 1.247 . S
C215 C209 1.507 . S
H216 C189 0.930 . S
H217 C190 0.931 . S
H218 C191 0.930 . S
H219 C192 0.930 . S
H220 C211 0.930 . S
H221 C212 0.931 . S
H222 C213 0.930 . S
H223 C214 0.930 . S
Tb224 C234 2.825 . S
Tb224 O235 2.347 . S
Tb224 O238 2.366 1_554 S
Tb224 O243 2.418 1_554 S
Tb224 O244 2.384 1_655 S
Tb224 O247 2.479 . S
Tb224 O248 2.471 . S
Eu225 O236 2.418 . S
Eu225 O237 2.384 1_455 S
Eu225 O240 2.479 . S
Eu225 O241 2.471 . S
Eu225 O242 2.347 . S
Eu225 O245 2.366 . S
Eu225 C255 2.825 . S
C226 O242 1.259 1_655 S
C226 O243 1.265 . S
C227 O244 1.255 1_556 S
C227 O245 1.265 . S
C228 C230 1.380 . S
C228 C231 1.374 . S
C228 C234 1.507 . S
C229 C230 1.384 . S
C229 C233 1.387 . S
C229 H256 0.930 . S
C230 C228 1.380 . S
C230 C229 1.384 . S
C230 H257 0.931 . S
C231 C228 1.374 . S
C231 C232 1.390 . S
C231 H258 0.930 . S
C232 C231 1.390 . S
C232 C233 1.391 . S
C232 H259 0.930 . S
C233 C229 1.387 . S
C233 C232 1.391 . S
C234 Tb224 2.825 . S
C234 C228 1.507 . S
C234 O247 1.238 . S
C234 O248 1.247 . S
O235 Tb224 2.347 . S
O235 C239 1.259 1_655 S
O236 Eu225 2.418 . S
O236 C239 1.265 1_556 S
O237 Eu225 2.384 1_655 S
O237 C246 1.255 . S
O238 Tb224 2.366 1_556 S
O238 C246 1.265 . S
C239 O235 1.259 1_455 S
C239 O236 1.265 1_554 S
O240 Eu225 2.479 . S
O240 C255 1.238 . S
O241 Eu225 2.471 . S
O241 C255 1.247 . S
O242 Eu225 2.347 . S
O242 C226 1.259 1_455 S
O243 Tb224 2.418 1_556 S
O243 C226 1.265 . S
O244 Tb224 2.384 1_455 S
O244 C227 1.255 1_554 S
O245 Eu225 2.366 . S
O245 C227 1.265 . S
C246 O237 1.255 . S
C246 O238 1.265 . S
O247 Tb224 2.479 . S
O247 C234 1.238 . S
O248 Tb224 2.471 . S
O248 C234 1.247 . S
C249 C252 1.380 . S
C249 C253 1.374 . S
C249 C255 1.507 . S
C250 C251 1.387 . S
C250 C254 1.391 . S
C251 C250 1.387 . S
C251 C252 1.384 . S
C251 H260 0.930 . S
C252 C249 1.380 . S
C252 C251 1.384 . S
C252 H261 0.931 . S
C253 C249 1.374 . S
C253 C254 1.390 . S
C253 H262 0.930 . S
C254 C250 1.391 . S
C254 C253 1.390 . S
C254 H263 0.930 . S
C255 Eu225 2.825 . S
C255 O240 1.238 . S
C255 O241 1.247 . S
C255 C249 1.507 . S
H256 C229 0.930 . S
H257 C230 0.931 . S
H258 C231 0.930 . S
H259 C232 0.930 . S
H260 C251 0.930 . S
H261 C252 0.931 . S
H262 C253 0.930 . S
H263 C254 0.930 . S
N80 C106 3.135 1_554 S
C146 N93 3.145 1_556 S
C186 N54 3.138 1_556 S
C226 N67 3.098 1_556 S
C119 N28 3.141 1_544 S
N41 C159 3.138 1_556 S
N2 C199 3.127 1_556 S
N15 C239 3.099 1_656 S
C130 N70 2.563 . S
C170 N83 2.396 . S
C210 N96 2.322 . S
N57 C250 2.454 . S
N18 C113 2.571 1_655 S
C153 N31 2.404 1_545 S
C193 N44 2.347 . S
N5 C233 2.479 . S
N66 C107 4.040 1_655 S
N79 C147 3.962 1_565 S
C187 N92 3.969 . S
C227 N53 4.042 . S
N14 C126 4.022 . S
C166 N27 3.937 . S
C206 N40 3.927 . S
N1 C246 4.008 . S
