# Generated by pormake.
# Topology ctn, (3,4)-cn, num edge types: 1
# Building blocks:
#     Node 0, Type 0, BuildingBlock: PAMTOO_clean_linker_0, # of connection points: 3
#     Node 1, Type 0, BuildingBlock: PAMTOO_clean_linker_0, # of connection points: 3
#     Node 2, Type 0, BuildingBlock: PAMTOO_clean_linker_0, # of connection points: 3
#     Node 3, Type 0, BuildingBlock: PAMTOO_clean_linker_0, # of connection points: 3
#     Node 4, Type 0, BuildingBlock: PAMTOO_clean_linker_0, # of connection points: 3
#     Node 5, Type 0, BuildingBlock: PAMTOO_clean_linker_0, # of connection points: 3
#     Node 6, Type 0, BuildingBlock: PAMTOO_clean_linker_0, # of connection points: 3
#     Node 7, Type 0, BuildingBlock: PAMTOO_clean_linker_0, # of connection points: 3
#     Node 8, Type 0, BuildingBlock: PAMTOO_clean_linker_0, # of connection points: 3
#     Node 9, Type 0, BuildingBlock: PAMTOO_clean_linker_0, # of connection points: 3
#     Node 10, Type 0, BuildingBlock: PAMTOO_clean_linker_0, # of connection points: 3
#     Node 11, Type 0, BuildingBlock: PAMTOO_clean_linker_0, # of connection points: 3
#     Node 12, Type 0, BuildingBlock: PAMTOO_clean_linker_0, # of connection points: 3
#     Node 13, Type 0, BuildingBlock: PAMTOO_clean_linker_0, # of connection points: 3
#     Node 14, Type 0, BuildingBlock: PAMTOO_clean_linker_0, # of connection points: 3
#     Node 15, Type 0, BuildingBlock: PAMTOO_clean_linker_0, # of connection points: 3
#     Node 16, Type 1, BuildingBlock: TATPOV_clean_sbu_0, # of connection points: 4
#     Node 17, Type 1, BuildingBlock: TATPOV_clean_sbu_0, # of connection points: 4
#     Node 18, Type 1, BuildingBlock: TATPOV_clean_sbu_0, # of connection points: 4
#     Node 19, Type 1, BuildingBlock: TATPOV_clean_sbu_0, # of connection points: 4
#     Node 20, Type 1, BuildingBlock: TATPOV_clean_sbu_0, # of connection points: 4
#     Node 21, Type 1, BuildingBlock: TATPOV_clean_sbu_0, # of connection points: 4
#     Node 22, Type 1, BuildingBlock: TATPOV_clean_sbu_0, # of connection points: 4
#     Node 23, Type 1, BuildingBlock: TATPOV_clean_sbu_0, # of connection points: 4
#     Node 24, Type 1, BuildingBlock: TATPOV_clean_sbu_0, # of connection points: 4
#     Node 25, Type 1, BuildingBlock: TATPOV_clean_sbu_0, # of connection points: 4
#     Node 26, Type 1, BuildingBlock: TATPOV_clean_sbu_0, # of connection points: 4
#     Node 27, Type 1, BuildingBlock: TATPOV_clean_sbu_0, # of connection points: 4
#     Edge 28, Type (0, 1), BuildingBlock: TEMPAE_clean_linker_10, # of connection points: 2
#     Edge 29, Type (0, 1), BuildingBlock: TEMPAE_clean_linker_10, # of connection points: 2
#     Edge 30, Type (0, 1), BuildingBlock: TEMPAE_clean_linker_10, # of connection points: 2
#     Edge 31, Type (0, 1), BuildingBlock: TEMPAE_clean_linker_10, # of connection points: 2
#     Edge 32, Type (0, 1), BuildingBlock: TEMPAE_clean_linker_10, # of connection points: 2
#     Edge 33, Type (0, 1), BuildingBlock: TEMPAE_clean_linker_10, # of connection points: 2
#     Edge 34, Type (0, 1), BuildingBlock: TEMPAE_clean_linker_10, # of connection points: 2
#     Edge 35, Type (0, 1), BuildingBlock: TEMPAE_clean_linker_10, # of connection points: 2
#     Edge 36, Type (0, 1), BuildingBlock: TEMPAE_clean_linker_10, # of connection points: 2
#     Edge 37, Type (0, 1), BuildingBlock: TEMPAE_clean_linker_10, # of connection points: 2
#     Edge 38, Type (0, 1), BuildingBlock: TEMPAE_clean_linker_10, # of connection points: 2
#     Edge 39, Type (0, 1), BuildingBlock: TEMPAE_clean_linker_10, # of connection points: 2
#     Edge 40, Type (0, 1), BuildingBlock: TEMPAE_clean_linker_10, # of connection points: 2
#     Edge 41, Type (0, 1), BuildingBlock: TEMPAE_clean_linker_10, # of connection points: 2
#     Edge 42, Type (0, 1), BuildingBlock: TEMPAE_clean_linker_10, # of connection points: 2
#     Edge 43, Type (0, 1), BuildingBlock: TEMPAE_clean_linker_10, # of connection points: 2
#     Edge 44, Type (0, 1), BuildingBlock: TEMPAE_clean_linker_10, # of connection points: 2
#     Edge 45, Type (0, 1), BuildingBlock: TEMPAE_clean_linker_10, # of connection points: 2
#     Edge 46, Type (0, 1), BuildingBlock: TEMPAE_clean_linker_10, # of connection points: 2
#     Edge 47, Type (0, 1), BuildingBlock: TEMPAE_clean_linker_10, # of connection points: 2
#     Edge 48, Type (0, 1), BuildingBlock: TEMPAE_clean_linker_10, # of connection points: 2
#     Edge 49, Type (0, 1), BuildingBlock: TEMPAE_clean_linker_10, # of connection points: 2
#     Edge 50, Type (0, 1), BuildingBlock: TEMPAE_clean_linker_10, # of connection points: 2
#     Edge 51, Type (0, 1), BuildingBlock: TEMPAE_clean_linker_10, # of connection points: 2
#     Edge 52, Type (0, 1), BuildingBlock: TEMPAE_clean_linker_10, # of connection points: 2
#     Edge 53, Type (0, 1), BuildingBlock: TEMPAE_clean_linker_10, # of connection points: 2
#     Edge 54, Type (0, 1), BuildingBlock: TEMPAE_clean_linker_10, # of connection points: 2
#     Edge 55, Type (0, 1), BuildingBlock: TEMPAE_clean_linker_10, # of connection points: 2
#     Edge 56, Type (0, 1), BuildingBlock: TEMPAE_clean_linker_10, # of connection points: 2
#     Edge 57, Type (0, 1), BuildingBlock: TEMPAE_clean_linker_10, # of connection points: 2
#     Edge 58, Type (0, 1), BuildingBlock: TEMPAE_clean_linker_10, # of connection points: 2
#     Edge 59, Type (0, 1), BuildingBlock: TEMPAE_clean_linker_10, # of connection points: 2
#     Edge 60, Type (0, 1), BuildingBlock: TEMPAE_clean_linker_10, # of connection points: 2
#     Edge 61, Type (0, 1), BuildingBlock: TEMPAE_clean_linker_10, # of connection points: 2
#     Edge 62, Type (0, 1), BuildingBlock: TEMPAE_clean_linker_10, # of connection points: 2
#     Edge 63, Type (0, 1), BuildingBlock: TEMPAE_clean_linker_10, # of connection points: 2
#     Edge 64, Type (0, 1), BuildingBlock: TEMPAE_clean_linker_10, # of connection points: 2
#     Edge 65, Type (0, 1), BuildingBlock: TEMPAE_clean_linker_10, # of connection points: 2
#     Edge 66, Type (0, 1), BuildingBlock: TEMPAE_clean_linker_10, # of connection points: 2
#     Edge 67, Type (0, 1), BuildingBlock: TEMPAE_clean_linker_10, # of connection points: 2
#     Edge 68, Type (0, 1), BuildingBlock: TEMPAE_clean_linker_10, # of connection points: 2
#     Edge 69, Type (0, 1), BuildingBlock: TEMPAE_clean_linker_10, # of connection points: 2
#     Edge 70, Type (0, 1), BuildingBlock: TEMPAE_clean_linker_10, # of connection points: 2
#     Edge 71, Type (0, 1), BuildingBlock: TEMPAE_clean_linker_10, # of connection points: 2
#     Edge 72, Type (0, 1), BuildingBlock: TEMPAE_clean_linker_10, # of connection points: 2
#     Edge 73, Type (0, 1), BuildingBlock: TEMPAE_clean_linker_10, # of connection points: 2
#     Edge 74, Type (0, 1), BuildingBlock: TEMPAE_clean_linker_10, # of connection points: 2
#     Edge 75, Type (0, 1), BuildingBlock: TEMPAE_clean_linker_10, # of connection points: 2
# Relax obj value: 0.069
# Max RMSD: 0.184
# Mean RMSD: 0.117
data_MOF--net-ctn--node1-TATPOV_clean_sbu_0--node2-PAMTOO_clean_linker_0--edge1-TEMPAE_clean_linker_10
_symmetry_space_group_name_H-M    P1
_symmetry_Int_Tables_number       1
_symmetry_cell_setting            triclinic
loop_
_symmetry_equiv_pos_as_xyz
'x, y, z'
_cell_length_a     54.03134
_cell_length_b     54.368426
_cell_length_c     55.266126
_cell_angle_alpha  86.10528
_cell_angle_beta   93.580655
_cell_angle_gamma 98.805104
loop_
_atom_site_label
_atom_site_type_symbol
_atom_site_fract_x
_atom_site_fract_y
_atom_site_fract_z
_atom_type_partial_charge
H0 H 0.99939 0.0743 0.04457 0.0
H1 H 0.03021 0.00965 0.07508 0.0
H2 H 0.0569 0.04635 0.00857 0.0
H3 H 0.04445 0.99097 0.01097 0.0
C4 C 0.05391 0.98714 0.02903 0.0
O5 O 0.06102 0.00922 0.04036 0.0
H6 H 0.0402 0.97457 0.04013 0.0
C7 C 0.01219 0.06089 0.04385 0.0
C8 C 0.02817 0.06295 0.0244 0.0
C9 C 0.0126 0.04178 0.06237 0.0
C10 C 0.02927 0.0244 0.06101 0.0
C11 C 0.04511 0.02607 0.04159 0.0
C12 C 0.04463 0.04536 0.0235 0.0
H13 H 0.29827 0.67937 0.28815 0.0
H14 H 0.24246 0.69469 0.23225 0.0
H15 H 0.31015 0.74648 0.24168 0.0
H16 H 0.26262 0.76879 0.23254 0.0
C17 C 0.25287 0.75534 0.21948 0.0
O18 O 0.26741 0.7371 0.21651 0.0
H19 H 0.2347 0.74675 0.227 0.0
C20 C 0.29181 0.69133 0.27335 0.0
C21 C 0.30704 0.71369 0.26646 0.0
C22 C 0.26849 0.68416 0.26111 0.0
C23 C 0.26025 0.69996 0.2421 0.0
C24 C 0.27519 0.72243 0.23528 0.0
C25 C 0.29863 0.72916 0.24726 0.0
H26 H 0.97999 0.47313 0.12551 0.0
H27 H 0.96658 0.44938 0.05258 0.0
H28 H 0.01958 0.41717 0.10059 0.0
H29 H 0.03473 0.42912 0.05225 0.0
C30 C 0.01654 0.42459 0.04171 0.0
O31 O 0.9977 0.41678 0.05746 0.0
H32 H 0.01262 0.44177 0.03099 0.0
C33 C 0.98405 0.46163 0.11144 0.0
C34 C 0.00152 0.44493 0.11629 0.0
C35 C 0.97152 0.46362 0.08851 0.0
C36 C 0.97584 0.44799 0.07048 0.0
C37 C 0.99299 0.43119 0.0751 0.0
C38 C 0.0058 0.42974 0.09781 0.0
H39 H 0.72327 0.81511 0.2582 0.0
H40 H 0.70889 0.73866 0.23856 0.0
H41 H 0.76688 0.78988 0.20485 0.0
H42 H 0.72608 0.75656 0.17462 0.0
C43 C 0.72922 0.73885 0.18492 0.0
O44 O 0.74304 0.74418 0.20631 0.0
H45 H 0.71067 0.72807 0.18919 0.0
C46 C 0.72758 0.80027 0.24776 0.0
C47 C 0.74691 0.80541 0.23143 0.0
C48 C 0.71368 0.77626 0.25061 0.0
C49 C 0.71934 0.7573 0.23674 0.0
C50 C 0.73836 0.76232 0.22019 0.0
C51 C 0.75225 0.78623 0.21772 0.0
H52 H 0.10578 0.97535 0.50074 0.0
H53 H 0.03683 0.96753 0.45683 0.0
H54 H 0.09495 0.02794 0.44022 0.0
H55 H 0.04637 0.04204 0.43173 0.0
C56 C 0.0348 0.02352 0.42926 0.0
O57 O 0.05045 0.00606 0.42714 0.0
H58 H 0.02336 0.01853 0.44544 0.0
C59 C 0.0943 0.98223 0.48579 0.0
C60 C 0.1038 0.00345 0.47123 0.0
C61 C 0.07014 0.96928 0.48091 0.0
C62 C 0.05554 0.97725 0.46084 0.0
C63 C 0.06471 0.99828 0.44624 0.0
C64 C 0.0886 0.01137 0.45147 0.0
H65 H 0.1778 0.77369 0.7895 0.0
H66 H 0.20182 0.72564 0.73962 0.0
H67 H 0.24327 0.73852 0.80751 0.0
H68 H 0.27413 0.73642 0.76387 0.0
C69 C 0.26112 0.72183 0.75438 0.0
O70 O 0.24 0.71465 0.76747 0.0
H71 H 0.25574 0.72996 0.73613 0.0
C72 C 0.19066 0.76147 0.78491 0.0
C73 C 0.21077 0.75746 0.80129 0.0
C74 C 0.18727 0.7503 0.76249 0.0
C75 C 0.20439 0.73488 0.75655 0.0
C76 C 0.22459 0.73076 0.77271 0.0
C77 C 0.22786 0.74217 0.79495 0.0
H78 H 0.91739 0.56833 0.51841 0.0
H79 H 0.95304 0.52541 0.47189 0.0
H80 H 0.99343 0.59308 0.49828 0.0
H81 H 0.00994 0.58638 0.45066 0.0
C82 C 0.99996 0.5671 0.44874 0.0
O83 O 0.9953 0.55589 0.47148 0.0
H84 H 0.98202 0.56838 0.43795 0.0
C85 C 0.93367 0.5656 0.50898 0.0
C86 C 0.95545 0.58347 0.51002 0.0
C87 C 0.93252 0.54456 0.49526 0.0
C88 C 0.9534 0.5416 0.48239 0.0
C89 C 0.97518 0.55913 0.48353 0.0
C90 C 0.97627 0.57985 0.49741 0.0
H91 H 0.82311 0.84258 0.8994 0.0
H92 H 0.87795 0.80839 0.86608 0.0
H93 H 0.8369 0.85822 0.82324 0.0
H94 H 0.84236 0.81417 0.80051 0.0
C95 C 0.8609 0.8105 0.80862 0.0
O96 O 0.87112 0.82959 0.82313 0.0
H97 H 0.85802 0.79264 0.81992 0.0
C98 C 0.83314 0.84042 0.88352 0.0
C99 C 0.82759 0.85309 0.86116 0.0
C100 C 0.85097 0.82398 0.88544 0.0
C101 C 0.86464 0.8215 0.86521 0.0
C102 C 0.85965 0.83414 0.84304 0.0
C103 C 0.84126 0.8498 0.84099 0.0
H104 H 0.3146 0.33024 0.38812 0.0
H105 H 0.36659 0.29715 0.34964 0.0
H106 H 0.32556 0.35044 0.31209 0.0
H107 H 0.33055 0.3101 0.28387 0.0
C108 C 0.34811 0.30429 0.29239 0.0
O109 O 0.35908 0.32164 0.30845 0.0
H110 H 0.34317 0.28585 0.30235 0.0
C111 C 0.32371 0.32876 0.37149 0.0
C112 C 0.3176 0.3429 0.3502 0.0
C113 C 0.341 0.3119 0.37143 0.0
C114 C 0.35362 0.31043 0.35028 0.0
C115 C 0.34821 0.32467 0.32918 0.0
C116 C 0.33028 0.34072 0.32909 0.0
H117 H 0.48283 0.97478 0.62639 0.0
H118 H 0.4615 0.94873 0.5551 0.0
H119 H 0.51324 0.9127 0.60136 0.0
H120 H 0.52759 0.92735 0.55204 0.0
C121 C 0.50921 0.9219 0.54206 0.0
O122 O 0.49083 0.91449 0.5584 0.0
H123 H 0.50467 0.93851 0.53075 0.0
C124 C 0.4839 0.96174 0.61264 0.0
C125 C 0.49975 0.94344 0.61686 0.0
C126 C 0.4697 0.96366 0.59058 0.0
C127 C 0.47164 0.94711 0.57254 0.0
C128 C 0.4876 0.92909 0.57644 0.0
C129 C 0.50122 0.92699 0.59862 0.0
H130 H 0.22466 0.3146 0.75917 0.0
H131 H 0.21078 0.2384 0.73871 0.0
H132 H 0.27059 0.28958 0.70774 0.0
H133 H 0.23666 0.25877 0.6742 0.0
C134 C 0.23506 0.24067 0.68511 0.0
O135 O 0.2464 0.24404 0.70797 0.0
H136 H 0.2148 0.23347 0.68694 0.0
C137 C 0.22938 0.29982 0.7489 0.0
C138 C 0.24939 0.30503 0.73335 0.0
C139 C 0.21533 0.27583 0.75119 0.0
C140 C 0.2214 0.257 0.73739 0.0
C141 C 0.24122 0.26205 0.72173 0.0
C142 C 0.25537 0.28589 0.71998 0.0
H143 H 0.79878 0.18297 0.78685 0.0
H144 H 0.74383 0.1978 0.72992 0.0
H145 H 0.81125 0.24982 0.74008 0.0
H146 H 0.76339 0.2718 0.72996 0.0
C147 C 0.75412 0.25829 0.71673 0.0
O148 O 0.76895 0.24018 0.71426 0.0
H149 H 0.73577 0.24958 0.72379 0.0
C150 C 0.79251 0.19484 0.77187 0.0
C151 C 0.80781 0.21718 0.76506 0.0
C152 C 0.76941 0.18753 0.7593 0.0
C153 C 0.76144 0.20319 0.74004 0.0
C154 C 0.77644 0.22566 0.73329 0.0
C155 C 0.79967 0.23252 0.74561 0.0
H156 H 0.4991 0.57331 0.54525 0.0
H157 H 0.53016 0.509 0.57631 0.0
H158 H 0.55674 0.54522 0.50957 0.0
H159 H 0.54389 0.48963 0.51277 0.0
C160 C 0.5539 0.48611 0.53061 0.0
O161 O 0.56097 0.50837 0.54164 0.0
H162 H 0.54076 0.47341 0.54217 0.0
C163 C 0.51195 0.55993 0.54466 0.0
C164 C 0.52794 0.56186 0.52523 0.0
C165 C 0.51242 0.54097 0.56332 0.0
C166 C 0.52917 0.52363 0.56213 0.0
C167 C 0.545 0.52518 0.54272 0.0
C168 C 0.54446 0.54432 0.52448 0.0
H169 H 0.61116 0.48 0.00101 0.0
H170 H 0.54389 0.46832 0.95458 0.0
H171 H 0.60319 0.5268 0.93561 0.0
H172 H 0.55527 0.54228 0.92625 0.0
C173 C 0.54303 0.52394 0.92492 0.0
O174 O 0.55794 0.50564 0.92363 0.0
H175 H 0.5319 0.52036 0.94141 0.0
C176 C 0.60039 0.48507 0.98473 0.0
C177 C 0.61031 0.50513 0.96903 0.0
C178 C 0.5766 0.47143 0.97955 0.0
C179 C 0.56249 0.47828 0.95863 0.0
C180 C 0.57202 0.49846 0.94313 0.0
C181 C 0.59594 0.51156 0.94811 0.0
H182 H 0.6778 0.27406 0.28782 0.0
H183 H 0.70172 0.22612 0.23774 0.0
H184 H 0.7435 0.23914 0.30542 0.0
H185 H 0.77429 0.2369 0.26199 0.0
C186 C 0.76117 0.22255 0.25229 0.0
O187 O 0.74007 0.21526 0.26538 0.0
H188 H 0.75581 0.23102 0.23418 0.0
C189 C 0.69066 0.26188 0.28314 0.0
C190 C 0.7109 0.25795 0.29939 0.0
C191 C 0.68721 0.25074 0.26071 0.0
C192 C 0.70434 0.23536 0.25468 0.0
C193 C 0.72463 0.2313 0.27073 0.0
C194 C 0.72799 0.24272 0.29295 0.0
H195 H 0.42122 0.06161 0.02193 0.0
H196 H 0.45269 0.01968 0.97148 0.0
H197 H 0.49262 0.08985 0.99159 0.0
H198 H 0.50423 0.08053 0.94313 0.0
C199 C 0.49596 0.0605 0.94335 0.0
O200 O 0.49386 0.05111 0.96707 0.0
H201 H 0.47708 0.05899 0.93373 0.0
C202 C 0.43612 0.05991 0.01021 0.0
C203 C 0.45714 0.07878 0.00872 0.0
C204 C 0.43403 0.03878 0.99646 0.0
C205 C 0.4536 0.03611 0.98175 0.0
C206 C 0.47473 0.05436 0.98052 0.0
C207 C 0.47638 0.07567 0.99364 0.0
Zn208 Zn 0.27641 0.84034 0.00477 0.0
Zn209 Zn 0.23973 0.86762 0.00533 0.0
O210 O 0.23779 0.84632 0.03835 0.0
O211 O 0.26829 0.8239 0.03719 0.0
O212 O 0.21223 0.88931 0.00678 0.0
O213 O 0.30202 0.87126 0.00248 0.0
O214 O 0.27171 0.89391 0.00347 0.0
C215 C 0.25049 0.82995 0.04819 0.0
C216 C 0.24138 0.83139 0.96455 0.0
O217 O 0.23112 0.84814 0.97361 0.0
O218 O 0.26087 0.8244 0.97491 0.0
C219 C 0.18962 0.88047 0.01105 0.0
O220 O 0.18334 0.85617 0.014 0.0
C221 C 0.29496 0.89241 0.00246 0.0
Zn222 Zn 0.11008 0.42845 0.32851 0.0
Zn223 Zn 0.13758 0.47195 0.31222 0.0
O224 O 0.11719 0.48209 0.33876 0.0
O225 O 0.0979 0.44695 0.35525 0.0
O226 O 0.1572 0.50455 0.30041 0.0
O227 O 0.14283 0.41387 0.33251 0.0
O228 O 0.16468 0.45074 0.32362 0.0
C229 C 0.10288 0.47053 0.35461 0.0
C230 C 0.09785 0.44317 0.27863 0.0
O231 O 0.11637 0.46033 0.28202 0.0
O232 O 0.09052 0.42777 0.2959 0.0
C233 C 0.16829 0.51968 0.31554 0.0
O234 O 0.16701 0.51353 0.33889 0.0
C235 C 0.16373 0.42775 0.33019 0.0
Zn236 Zn 0.83719 0.61192 0.98454 0.0
Zn237 Zn 0.82649 0.62834 0.02718 0.0
O238 O 0.85269 0.60524 0.03798 0.0
O239 O 0.86267 0.59337 0.00295 0.0
O240 O 0.81792 0.64289 0.05786 0.0
O241 O 0.84699 0.64711 0.97122 0.0
O242 O 0.83877 0.66031 0.00617 0.0
C243 C 0.86543 0.59291 0.0259 0.0
C244 C 0.78573 0.59712 0.99584 0.0
O245 O 0.79286 0.60915 0.01466 0.0
O246 O 0.8012 0.59543 0.97995 0.0
C247 C 0.79973 0.63316 0.07061 0.0
O248 O 0.78669 0.61178 0.06475 0.0
C249 C 0.84589 0.6649 0.98455 0.0
Zn250 Zn 0.84509 0.02007 0.28352 0.0
Zn251 Zn 0.87315 0.02744 0.24581 0.0
O252 O 0.85317 0.05792 0.24228 0.0
O253 O 0.82765 0.04896 0.27224 0.0
O254 O 0.89655 0.03206 0.21774 0.0
O255 O 0.8749 0.02496 0.307 0.0
O256 O 0.89862 0.02806 0.27569 0.0
C257 C 0.83528 0.0631 0.25424 0.0
C258 C 0.83682 0.97815 0.25448 0.0
O259 O 0.85201 0.99237 0.24095 0.0
O260 O 0.83112 0.98563 0.27429 0.0
C261 C 0.88931 0.03143 0.1954 0.0
O262 O 0.86515 0.02845 0.18947 0.0
C263 C 0.89645 0.02739 0.29861 0.0
Zn264 Zn 0.33178 0.10338 0.48532 0.0
Zn265 Zn 0.32256 0.1252 0.52526 0.0
O266 O 0.34954 0.10357 0.53831 0.0
O267 O 0.35966 0.08922 0.50448 0.0
O268 O 0.31428 0.14358 0.5535 0.0
O269 O 0.33857 0.13694 0.46709 0.0
O270 O 0.334 0.15446 0.50091 0.0
C271 C 0.3629 0.09096 0.52722 0.0
C272 C 0.2814 0.08906 0.49976 0.0
O273 O 0.28845 0.10506 0.51555 0.0
O274 O 0.29671 0.08397 0.48509 0.0
C275 C 0.31061 0.13453 0.57502 0.0
O276 O 0.31322 0.11116 0.58062 0.0
C277 C 0.33894 0.15638 0.47856 0.0
Zn278 Zn 0.34776 0.5199 0.78644 0.0
Zn279 Zn 0.37451 0.52747 0.74763 0.0
O280 O 0.35444 0.55787 0.74488 0.0
O281 O 0.3304 0.5491 0.776 0.0
O282 O 0.39723 0.53223 0.71906 0.0
O283 O 0.37837 0.52425 0.80902 0.0
O284 O 0.4008 0.52787 0.77676 0.0
C285 C 0.33721 0.56314 0.75766 0.0
C286 C 0.33838 0.47823 0.75686 0.0
O287 O 0.35327 0.49245 0.74307 0.0
O288 O 0.33324 0.48564 0.77691 0.0
C289 C 0.38975 0.53117 0.6968 0.0
O290 O 0.36554 0.52764 0.69112 0.0
C291 C 0.39953 0.52682 0.7998 0.0
Zn292 Zn 0.7787 0.34386 0.50132 0.0
Zn293 Zn 0.74116 0.37012 0.50215 0.0
O294 O 0.74032 0.34917 0.53537 0.0
O295 O 0.77159 0.32775 0.53412 0.0
O296 O 0.713 0.39098 0.50381 0.0
O297 O 0.80345 0.37539 0.49821 0.0
O298 O 0.77246 0.39716 0.49942 0.0
C299 C 0.75368 0.33338 0.54526 0.0
C300 C 0.743 0.33357 0.46177 0.0
O301 O 0.73248 0.35014 0.4708 0.0
O302 O 0.76287 0.32717 0.47189 0.0
C303 C 0.69152 0.382 0.51141 0.0
O304 O 0.68686 0.35808 0.51774 0.0
C305 C 0.79579 0.39628 0.49802 0.0
Zn306 Zn 0.61624 0.92811 0.82439 0.0
Zn307 Zn 0.64172 0.97357 0.80952 0.0
O308 O 0.62054 0.98212 0.83594 0.0
O309 O 0.6009 0.94597 0.84994 0.0
O310 O 0.66026 0.00685 0.79814 0.0
O311 O 0.64994 0.91585 0.83059 0.0
O312 O 0.66984 0.95346 0.82099 0.0
C313 C 0.60541 0.96954 0.85048 0.0
C314 C 0.60438 0.94326 0.7745 0.0
O315 O 0.62052 0.96218 0.77929 0.0
O316 O 0.59908 0.92589 0.79066 0.0
C317 C 0.67044 0.02234 0.81334 0.0
O318 O 0.66891 0.01623 0.83667 0.0
C319 C 0.67019 0.93078 0.82823 0.0
Zn320 Zn 0.02226 0.30274 0.85662 0.0
Zn321 Zn 0.02288 0.26041 0.88353 0.0
O322 O 0.05402 0.26216 0.86268 0.0
O323 O 0.0522 0.2965 0.83959 0.0
O324 O 0.02382 0.22939 0.90607 0.0
O325 O 0.02681 0.32311 0.88584 0.0
O326 O 0.02463 0.28792 0.90826 0.0
C327 C 0.0628 0.27766 0.84579 0.0
C328 C 0.97716 0.26804 0.84935 0.0
O329 O 0.98868 0.25386 0.86394 0.0
O330 O 0.98736 0.29006 0.84376 0.0
C331 C 0.02398 0.20761 0.89904 0.0
O332 O 0.02345 0.2044 0.87565 0.0
C333 C 0.02645 0.31166 0.90654 0.0
Zn334 Zn 0.52107 0.80155 0.35783 0.0
Zn335 Zn 0.52207 0.75903 0.38438 0.0
O336 O 0.55359 0.76159 0.36389 0.0
O337 O 0.55156 0.79613 0.34117 0.0
O338 O 0.52331 0.72796 0.40672 0.0
O339 O 0.52463 0.82153 0.38731 0.0
O340 O 0.52273 0.78611 0.40933 0.0
C341 C 0.56241 0.77743 0.34729 0.0
C342 C 0.47659 0.7661 0.34976 0.0
O343 O 0.48819 0.75204 0.36439 0.0
O344 O 0.48651 0.78829 0.34442 0.0
C345 C 0.52355 0.70621 0.39965 0.0
O346 O 0.52294 0.70303 0.37625 0.0
C347 C 0.52406 0.8098 0.40788 0.0
Zn348 Zn 0.94778 0.78996 0.60385 0.0
Zn349 Zn 0.99185 0.78254 0.62724 0.0
O350 O 0.00253 0.813 0.60403 0.0
O351 O 0.96659 0.82024 0.58601 0.0
O352 O 0.02395 0.77541 0.64512 0.0
O353 O 0.93357 0.79343 0.63615 0.0
O354 O 0.96991 0.78877 0.65478 0.0
C355 C 0.99017 0.82593 0.58899 0.0
C356 C 0.96165 0.74242 0.59575 0.0
O357 O 0.98036 0.75031 0.60979 0.0
O358 O 0.94478 0.75594 0.59015 0.0
C359 C 0.03925 0.79217 0.65537 0.0
O360 O 0.03429 0.81516 0.65404 0.0
C361 C 0.94725 0.79249 0.65556 0.0
Zn362 Zn 0.4521 0.28943 0.09442 0.0
Zn363 Zn 0.49393 0.28173 0.12135 0.0
O364 O 0.50599 0.3129 0.09921 0.0
O365 O 0.47107 0.32125 0.07986 0.0
O366 O 0.525 0.27473 0.1412 0.0
O367 O 0.43444 0.29001 0.12561 0.0
O368 O 0.46971 0.28712 0.14708 0.0
C369 C 0.49448 0.32673 0.08428 0.0
C370 C 0.46762 0.24273 0.08673 0.0
O371 O 0.4838 0.24938 0.10369 0.0
O372 O 0.45231 0.25705 0.0784 0.0
C373 C 0.53993 0.29159 0.15171 0.0
O374 O 0.53517 0.31465 0.14957 0.0
C375 C 0.44655 0.28948 0.14598 0.0
C376 C 0.23645 0.78194 0.83341 0.0
C377 C 0.21341 0.76892 0.82516 0.0
C378 C 0.23898 0.79311 0.85581 0.0
C379 C 0.21806 0.79082 0.87052 0.0
C380 C 0.19473 0.77773 0.86222 0.0
C381 C 0.19265 0.76709 0.83958 0.0
C382 C 0.26413 0.80714 0.86388 0.0
C383 C 0.17213 0.77441 0.87752 0.0
C384 C 0.23499 0.79578 0.93782 0.0
C385 C 0.23173 0.82034 0.94144 0.0
C386 C 0.22958 0.78567 0.9151 0.0
C387 C 0.22115 0.80064 0.89526 0.0
C388 C 0.21693 0.8252 0.89897 0.0
C389 C 0.22204 0.83471 0.92215 0.0
C390 C 0.23379 0.75922 0.91214 0.0
C391 C 0.2082 0.84182 0.87821 0.0
H392 H 0.25245 0.78362 0.82218 0.0
H393 H 0.17484 0.75685 0.83334 0.0
H394 H 0.26201 0.8262 0.86858 0.0
H395 H 0.27164 0.79755 0.88046 0.0
H396 H 0.27804 0.80862 0.84968 0.0
H397 H 0.15506 0.76471 0.86799 0.0
H398 H 0.17597 0.76342 0.89464 0.0
H399 H 0.16827 0.79279 0.8826 0.0
H400 H 0.24234 0.78455 0.95276 0.0
H401 H 0.21973 0.85378 0.92484 0.0
H402 H 0.24944 0.75929 0.90006 0.0
H403 H 0.21683 0.74845 0.90347 0.0
H404 H 0.2384 0.74942 0.92977 0.0
H405 H 0.2229 0.8459 0.86475 0.0
H406 H 0.20414 0.85975 0.88437 0.0
H407 H 0.19108 0.83224 0.86874 0.0
C408 C 0.04028 0.54996 0.4457 0.0
C409 C 0.01618 0.55251 0.43595 0.0
C410 C 0.05577 0.53652 0.434 0.0
C411 C 0.04694 0.5256 0.41195 0.0
C412 C 0.02257 0.52815 0.40205 0.0
C413 C 0.00744 0.54151 0.41424 0.0
C414 C 0.08155 0.53405 0.44518 0.0
C415 C 0.01256 0.51691 0.37848 0.0
C416 C 0.0927 0.51085 0.36761 0.0
C417 C 0.09058 0.48481 0.37103 0.0
C418 C 0.07911 0.52445 0.38128 0.0
C419 C 0.06319 0.51174 0.39895 0.0
C420 C 0.06177 0.4856 0.40322 0.0
C421 C 0.07541 0.47243 0.38914 0.0
C422 C 0.08104 0.5523 0.37614 0.0
C423 C 0.04523 0.47145 0.42213 0.0
H424 H 0.04695 0.55852 0.46252 0.0
H425 H 0.98878 0.54348 0.40671 0.0
H426 H 0.08352 0.51406 0.44841 0.0
H427 H 0.09604 0.54248 0.43248 0.0
H428 H 0.08538 0.54322 0.46267 0.0
H429 H 0.99322 0.52061 0.37324 0.0
H430 H 0.02496 0.5246 0.36366 0.0
H431 H 0.01246 0.49645 0.38007 0.0
H432 H 0.10438 0.52061 0.35369 0.0
H433 H 0.07377 0.45234 0.39202 0.0
H434 H 0.08589 0.56208 0.39315 0.0
H435 H 0.06263 0.557 0.36885 0.0
H436 H 0.09535 0.55956 0.36281 0.0
H437 H 0.04938 0.47998 0.43989 0.0
H438 H 0.04766 0.45149 0.4245 0.0
H439 H 0.02527 0.47254 0.41677 0.0
C440 C 0.87558 0.80076 0.91683 0.0
C441 C 0.85239 0.80628 0.90695 0.0
C442 C 0.87687 0.78037 0.93366 0.0
C443 C 0.85447 0.76495 0.94028 0.0
C444 C 0.83099 0.77161 0.93174 0.0
C445 C 0.83025 0.79228 0.91528 0.0
C446 C 0.90224 0.77429 0.94288 0.0
C447 C 0.80663 0.75558 0.93814 0.0
C448 C 0.85406 0.69531 0.94908 0.0
C449 C 0.85096 0.69091 0.9741 0.0
C450 C 0.85608 0.71944 0.9381 0.0
C451 C 0.8554 0.73986 0.9525 0.0
C452 C 0.85362 0.73579 0.97796 0.0
C453 C 0.85119 0.71128 0.98846 0.0
C454 C 0.85775 0.72291 0.91084 0.0
C455 C 0.85341 0.75717 0.99394 0.0
H456 H 0.89273 0.81172 0.9106 0.0
H457 H 0.81227 0.79631 0.90752 0.0
H458 H 0.90221 0.76846 0.96251 0.0
H459 H 0.90675 0.75851 0.9331 0.0
H460 H 0.91729 0.79041 0.94 0.0
H461 H 0.79009 0.76488 0.93247 0.0
H462 H 0.80474 0.73782 0.92893 0.0
H463 H 0.80644 0.75084 0.95796 0.0
H464 H 0.85398 0.67974 0.9378 0.0
H465 H 0.84899 0.70808 0.00783 0.0
H466 H 0.87448 0.73651 0.90618 0.0
H467 H 0.84101 0.73054 0.90268 0.0
H468 H 0.85887 0.70517 0.90238 0.0
H469 H 0.86866 0.77261 0.98943 0.0
H470 H 0.8556 0.75138 0.01353 0.0
H471 H 0.8354 0.7646 0.99071 0.0
C472 C 0.00163 0.00264 0.40028 0.0
C473 C 0.01723 0.02436 0.40707 0.0
C474 C 0.98371 0.00334 0.38084 0.0
C475 C 0.98115 0.0264 0.3681 0.0
C476 C 0.99733 0.04829 0.3745 0.0
C477 C 0.01518 0.04701 0.39395 0.0
C478 C 0.96686 0.97958 0.37456 0.0
C479 C 0.99508 0.07324 0.36148 0.0
C480 C 0.94225 0.02534 0.30814 0.0
C481 C 0.91876 0.02865 0.31578 0.0
C482 C 0.96291 0.02485 0.32489 0.0
C483 C 0.96 0.02797 0.34975 0.0
C484 C 0.93651 0.03198 0.35739 0.0
C485 C 0.91621 0.03219 0.34037 0.0
C486 C 0.98767 0.02044 0.31612 0.0
C487 C 0.93265 0.03563 0.38369 0.0
H488 H 0.00315 0.98518 0.41058 0.0
H489 H 0.02715 0.06385 0.39929 0.0
H490 H 0.94732 0.9808 0.37884 0.0
H491 H 0.96681 0.97697 0.35481 0.0
H492 H 0.97273 0.96291 0.38473 0.0
H493 H 0.01044 0.08804 0.36722 0.0
H494 H 0.99528 0.0719 0.34156 0.0
H495 H 0.9769 0.07894 0.36525 0.0
H496 H 0.94436 0.02253 0.28919 0.0
H497 H 0.8982 0.03496 0.34644 0.0
H498 H 0.99273 0.00273 0.32477 0.0
H499 H 0.00276 0.03559 0.32153 0.0
H500 H 0.98716 0.0194 0.29608 0.0
H501 H 0.93593 0.0187 0.39505 0.0
H502 H 0.91345 0.03944 0.3865 0.0
H503 H 0.94638 0.05139 0.39028 0.0
C504 C 0.23279 0.20446 0.65848 0.0
C505 C 0.24746 0.22289 0.67186 0.0
C506 C 0.24389 0.1893 0.64412 0.0
C507 C 0.27033 0.19273 0.64302 0.0
C508 C 0.28527 0.21103 0.65686 0.0
C509 C 0.27363 0.22607 0.67094 0.0
C510 C 0.22727 0.17019 0.62945 0.0
C511 C 0.3135 0.21521 0.65623 0.0
C512 C 0.29855 0.14075 0.61711 0.0
C513 C 0.30174 0.14987 0.59296 0.0
C514 C 0.28891 0.15474 0.63382 0.0
C515 C 0.28211 0.17829 0.62613 0.0
C516 C 0.28569 0.18776 0.6019 0.0
C517 C 0.29554 0.17351 0.58568 0.0
C518 C 0.28559 0.14414 0.65957 0.0
C519 C 0.27854 0.21272 0.59292 0.0
H520 H 0.21253 0.20227 0.65885 0.0
H521 H 0.28496 0.24064 0.68093 0.0
H522 H 0.22938 0.17506 0.60979 0.0
H523 H 0.23299 0.15152 0.63338 0.0
H524 H 0.20716 0.16897 0.63327 0.0
H525 H 0.32248 0.22877 0.66948 0.0
H526 H 0.32089 0.19733 0.66022 0.0
H527 H 0.31908 0.22234 0.63777 0.0
H528 H 0.30337 0.12256 0.62294 0.0
H529 H 0.2979 0.18076 0.56707 0.0
H530 H 0.26539 0.14102 0.66336 0.0
H531 H 0.29528 0.1576 0.67255 0.0
H532 H 0.29301 0.12619 0.66304 0.0
H533 H 0.2581 0.2124 0.5944 0.0
H534 H 0.28316 0.21773 0.57373 0.0
H535 H 0.28836 0.22758 0.60437 0.0
C536 C 0.4905 0.56112 0.59387 0.0
C537 C 0.49534 0.53937 0.58385 0.0
C538 C 0.47367 0.56005 0.61245 0.0
C539 C 0.46147 0.53663 0.62155 0.0
C540 C 0.46661 0.51457 0.61189 0.0
C541 C 0.48336 0.5162 0.59314 0.0
C542 C 0.46874 0.58404 0.62218 0.0
C543 C 0.45414 0.48922 0.62117 0.0
C544 C 0.43377 0.5329 0.68375 0.0
C545 C 0.40816 0.53296 0.67757 0.0
C546 C 0.45127 0.53393 0.66575 0.0
C547 C 0.44308 0.53529 0.64091 0.0
C548 C 0.4173 0.53554 0.63454 0.0
C549 C 0.40018 0.53427 0.65291 0.0
C550 C 0.47853 0.53342 0.67334 0.0
C551 C 0.4078 0.53721 0.60829 0.0
H552 H 0.49997 0.57911 0.58723 0.0
H553 H 0.48668 0.49928 0.58541 0.0
H554 H 0.44852 0.58565 0.61944 0.0
H555 H 0.47346 0.58398 0.64201 0.0
H556 H 0.47977 0.60074 0.61323 0.0
H557 H 0.46079 0.47382 0.6124 0.0
H558 H 0.45783 0.48677 0.64109 0.0
H559 H 0.43352 0.48768 0.61775 0.0
H560 H 0.44016 0.53178 0.70272 0.0
H561 H 0.38047 0.53438 0.6479 0.0
H562 H 0.49019 0.55051 0.6659 0.0
H563 H 0.48502 0.51727 0.66577 0.0
H564 H 0.48187 0.53212 0.69339 0.0
H565 H 0.41741 0.55442 0.59894 0.0
H566 H 0.38724 0.53737 0.60634 0.0
H567 H 0.41222 0.52117 0.59885 0.0
C568 C 0.73093 0.26144 0.6759 0.0
C569 C 0.75 0.27152 0.69232 0.0
C570 C 0.72835 0.27222 0.65222 0.0
C571 C 0.74547 0.29337 0.64475 0.0
C572 C 0.76436 0.30399 0.66153 0.0
C573 C 0.7665 0.29281 0.68508 0.0
C574 C 0.70807 0.26026 0.63487 0.0
C575 C 0.78306 0.32645 0.65428 0.0
C576 C 0.7622 0.30236 0.57888 0.0
C577 C 0.74942 0.32206 0.57014 0.0
C578 C 0.76049 0.29253 0.6029 0.0
C579 C 0.74563 0.3026 0.61875 0.0
C580 C 0.73199 0.32195 0.60993 0.0
C581 C 0.73401 0.33146 0.58566 0.0
C582 C 0.77523 0.27179 0.61147 0.0
C583 C 0.71589 0.33307 0.62632 0.0
H584 H 0.7184 0.24476 0.68146 0.0
H585 H 0.78145 0.30038 0.6977 0.0
H586 H 0.69755 0.27453 0.62564 0.0
H587 H 0.71672 0.25152 0.62059 0.0
H588 H 0.69463 0.2457 0.64419 0.0
H589 H 0.795 0.33385 0.67004 0.0
H590 H 0.7954 0.32131 0.64073 0.0
H591 H 0.77322 0.34151 0.6456 0.0
H592 H 0.77399 0.29478 0.56702 0.0
H593 H 0.72408 0.34667 0.57907 0.0
H594 H 0.76259 0.25565 0.6194 0.0
H595 H 0.7894 0.27829 0.62596 0.0
H596 H 0.78506 0.26533 0.59658 0.0
H597 H 0.70251 0.31816 0.63517 0.0
H598 H 0.70517 0.34679 0.61632 0.0
H599 H 0.7279 0.34256 0.64097 0.0
C600 C 0.54027 0.93749 0.63961 0.0
C601 C 0.51542 0.94211 0.63988 0.0
C602 C 0.55545 0.93667 0.66109 0.0
C603 C 0.5457 0.94098 0.68333 0.0
C604 C 0.52065 0.94559 0.68378 0.0
C605 C 0.50576 0.94592 0.66208 0.0
C606 C 0.58201 0.93148 0.65995 0.0
C607 C 0.50966 0.95043 0.70716 0.0
C608 C 0.57632 0.91993 0.74329 0.0
C609 C 0.59069 0.94223 0.75046 0.0
C610 C 0.56202 0.91911 0.72119 0.0
C611 C 0.56184 0.94118 0.7061 0.0
C612 C 0.57659 0.96366 0.71305 0.0
C613 C 0.59099 0.96387 0.73507 0.0
C614 C 0.54684 0.89471 0.71416 0.0
C615 C 0.57666 0.98763 0.69754 0.0
H616 H 0.54806 0.93495 0.62252 0.0
H617 H 0.48649 0.9491 0.66253 0.0
H618 H 0.59542 0.94782 0.66578 0.0
H619 H 0.58517 0.91541 0.67263 0.0
H620 H 0.58635 0.92735 0.64139 0.0
H621 H 0.48988 0.95377 0.70439 0.0
H622 H 0.51044 0.93432 0.72047 0.0
H623 H 0.52091 0.96695 0.7153 0.0
H624 H 0.57611 0.9031 0.75503 0.0
H625 H 0.60195 0.9812 0.74053 0.0
H626 H 0.55168 0.89023 0.69591 0.0
H627 H 0.52657 0.89632 0.71308 0.0
H628 H 0.54999 0.87899 0.72733 0.0
H629 H 0.5823 0.98516 0.679 0.0
H630 H 0.58958 0.0034 0.70528 0.0
H631 H 0.55745 0.99265 0.69569 0.0
C632 C 0.83429 0.22372 0.8035 0.0
C633 C 0.83247 0.22406 0.77807 0.0
C634 C 0.85756 0.22981 0.81612 0.0
C635 C 0.87955 0.23599 0.80298 0.0
C636 C 0.87783 0.23599 0.77729 0.0
C637 C 0.85425 0.23024 0.76512 0.0
C638 C 0.85854 0.23011 0.84347 0.0
C639 C 0.90088 0.24216 0.76264 0.0
C640 C 0.93613 0.2768 0.83042 0.0
C641 C 0.95175 0.25929 0.83875 0.0
C642 C 0.91239 0.26937 0.81929 0.0
C643 C 0.90419 0.24379 0.81596 0.0
C644 C 0.91973 0.22593 0.82454 0.0
C645 C 0.94327 0.23388 0.8361 0.0
C646 C 0.89621 0.28896 0.81087 0.0
C647 C 0.91173 0.19852 0.82099 0.0
H648 H 0.81741 0.21904 0.81351 0.0
H649 H 0.85287 0.23019 0.74547 0.0
H650 H 0.87151 0.21751 0.85166 0.0
H651 H 0.86596 0.24916 0.84908 0.0
H652 H 0.83981 0.22427 0.851 0.0
H653 H 0.8965 0.23999 0.74292 0.0
H654 H 0.90974 0.26167 0.76522 0.0
H655 H 0.91488 0.22991 0.76908 0.0
H656 H 0.94246 0.29646 0.83264 0.0
H657 H 0.95533 0.2203 0.84242 0.0
H658 H 0.87761 0.28441 0.81887 0.0
H659 H 0.89295 0.28923 0.79085 0.0
H660 H 0.90485 0.30792 0.81592 0.0
H661 H 0.89351 0.19198 0.82924 0.0
H662 H 0.92575 0.18697 0.82911 0.0
H663 H 0.90896 0.19543 0.8013 0.0
C664 C 0.49045 0.89322 0.50969 0.0
C665 C 0.5108 0.9013 0.5256 0.0
C666 C 0.49244 0.87594 0.49242 0.0
C667 C 0.51542 0.86671 0.49098 0.0
C668 C 0.53568 0.87401 0.50775 0.0
C669 C 0.53311 0.89124 0.5249 0.0
C670 C 0.47036 0.86852 0.47496 0.0
C671 C 0.56048 0.86465 0.50679 0.0
C672 C 0.51616 0.81165 0.45203 0.0
C673 C 0.52368 0.82384 0.42991 0.0
C674 C 0.51369 0.82528 0.47228 0.0
C675 C 0.51908 0.85165 0.47034 0.0
C676 C 0.52743 0.86395 0.44828 0.0
C677 C 0.52954 0.84993 0.42837 0.0
C678 C 0.50466 0.81155 0.49549 0.0
C679 C 0.53365 0.89203 0.44552 0.0
H680 H 0.47322 0.90105 0.51032 0.0
H681 H 0.54886 0.89745 0.53725 0.0
H682 H 0.47484 0.87632 0.4564 0.0
H683 H 0.46644 0.84794 0.47427 0.0
H684 H 0.45314 0.87533 0.48004 0.0
H685 H 0.57341 0.87003 0.52261 0.0
H686 H 0.55756 0.84405 0.5062 0.0
H687 H 0.56965 0.87246 0.48995 0.0
H688 H 0.51151 0.7915 0.45334 0.0
H689 H 0.53555 0.85952 0.41141 0.0
H690 H 0.48625 0.81663 0.4994 0.0
H691 H 0.51792 0.81713 0.51099 0.0
H692 H 0.50258 0.79099 0.4945 0.0
H693 H 0.51667 0.90056 0.44799 0.0
H694 H 0.54083 0.89864 0.42745 0.0
H695 H 0.54799 0.89887 0.45974 0.0
C696 C 0.19604 0.28083 0.79036 0.0
C697 C 0.19388 0.27096 0.76739 0.0
C698 C 0.17522 0.27891 0.80472 0.0
C699 C 0.15162 0.26681 0.79592 0.0
C700 C 0.14963 0.25556 0.77336 0.0
C701 C 0.17078 0.25778 0.75935 0.0
C702 C 0.1782 0.29109 0.8287 0.0
C703 C 0.12482 0.24248 0.76332 0.0
C704 C 0.09789 0.25356 0.83891 0.0
C705 C 0.08541 0.2742 0.83316 0.0
C706 C 0.11939 0.25068 0.82685 0.0
C707 C 0.12859 0.26887 0.80869 0.0
C708 C 0.11599 0.28962 0.80278 0.0
C709 C 0.09464 0.292 0.81503 0.0
C710 C 0.13234 0.22829 0.83358 0.0
C711 C 0.12515 0.3095 0.78358 0.0
H712 H 0.21396 0.2906 0.7969 0.0
H713 H 0.16891 0.2502 0.74157 0.0
H714 H 0.16835 0.30764 0.82725 0.0
H715 H 0.16955 0.27808 0.8432 0.0
H716 H 0.1982 0.2972 0.83423 0.0
H717 H 0.12702 0.23199 0.74721 0.0
H718 H 0.11548 0.22937 0.77738 0.0
H719 H 0.11223 0.25644 0.75789 0.0
H720 H 0.09089 0.23969 0.85285 0.0
H721 H 0.08521 0.30804 0.81036 0.0
H722 H 0.15191 0.23446 0.84038 0.0
H723 H 0.13331 0.2177 0.81729 0.0
H724 H 0.1226 0.21558 0.84775 0.0
H725 H 0.14451 0.31827 0.78869 0.0
H726 H 0.11304 0.32434 0.78095 0.0
H727 H 0.12575 0.30101 0.76597 0.0
C728 C 0.54986 0.59563 0.49733 0.0
C729 C 0.52744 0.58233 0.50589 0.0
C730 C 0.54966 0.61549 0.47967 0.0
C731 C 0.52648 0.62225 0.47028 0.0
C732 C 0.50378 0.60871 0.47861 0.0
C733 C 0.50454 0.58895 0.49628 0.0
C734 C 0.57428 0.62949 0.47134 0.0
C735 C 0.47867 0.61522 0.46899 0.0
C736 C 0.5253 0.68821 0.44268 0.0
C737 C 0.52445 0.68472 0.41768 0.0
C738 C 0.52607 0.66809 0.45994 0.0
C739 C 0.52596 0.64381 0.45209 0.0
C740 C 0.52516 0.64014 0.42691 0.0
C741 C 0.52443 0.66061 0.41002 0.0
C742 C 0.52692 0.67282 0.48662 0.0
C743 C 0.52501 0.61456 0.41779 0.0
H744 H 0.56764 0.59083 0.50483 0.0
H745 H 0.48712 0.57856 0.50251 0.0
H746 H 0.57485 0.62921 0.45133 0.0
H747 H 0.57608 0.6493 0.47578 0.0
H748 H 0.59065 0.62149 0.47992 0.0
H749 H 0.46274 0.60259 0.477 0.0
H750 H 0.47723 0.63465 0.47301 0.0
H751 H 0.47689 0.61423 0.44896 0.0
H752 H 0.52535 0.70673 0.44883 0.0
H753 H 0.52378 0.65768 0.39078 0.0
H754 H 0.54389 0.66665 0.49595 0.0
H755 H 0.5104 0.66177 0.49517 0.0
H756 H 0.52711 0.69281 0.48976 0.0
H757 H 0.54196 0.60682 0.42518 0.0
H758 H 0.52447 0.61483 0.39765 0.0
H759 H 0.50847 0.6017 0.4243 0.0
C760 C 0.88196 0.78507 0.78198 0.0
C761 C 0.87767 0.80853 0.78828 0.0
C762 C 0.89522 0.78257 0.76147 0.0
C763 C 0.9043 0.80408 0.74687 0.0
C764 C 0.90059 0.8279 0.75353 0.0
C765 C 0.88708 0.82982 0.77404 0.0
C766 C 0.89855 0.75682 0.75486 0.0
C767 C 0.91005 0.85127 0.73846 0.0
C768 C 0.95195 0.79832 0.70042 0.0
C769 C 0.93658 0.79558 0.67905 0.0
C770 C 0.94179 0.80136 0.72265 0.0
C771 C 0.91566 0.80142 0.72353 0.0
C772 C 0.90008 0.79859 0.70204 0.0
C773 C 0.91073 0.79582 0.68009 0.0
C774 C 0.95897 0.80451 0.74519 0.0
C775 C 0.87209 0.79831 0.70223 0.0
H776 H 0.87435 0.76855 0.79276 0.0
H777 H 0.88339 0.84793 0.77868 0.0
H778 H 0.88781 0.75236 0.73753 0.0
H779 H 0.91856 0.75611 0.75199 0.0
H780 H 0.89203 0.74222 0.76905 0.0
H781 H 0.90771 0.86845 0.74732 0.0
H782 H 0.93018 0.85188 0.73514 0.0
H783 H 0.89966 0.85122 0.7205 0.0
H784 H 0.97194 0.79825 0.69977 0.0
H785 H 0.89867 0.79362 0.66372 0.0
H786 H 0.95332 0.78926 0.75902 0.0
H787 H 0.95734 0.82231 0.75323 0.0
H788 H 0.97891 0.80446 0.7414 0.0
H789 H 0.86376 0.78292 0.71482 0.0
H790 H 0.86261 0.79589 0.68394 0.0
H791 H 0.8681 0.81599 0.70896 0.0
C792 C 0.04894 0.92528 0.4877 0.0
C793 C 0.05998 0.94784 0.49722 0.0
C794 C 0.03884 0.90505 0.50302 0.0
C795 C 0.03941 0.90767 0.52839 0.0
C796 C 0.05069 0.9304 0.53809 0.0
C797 C 0.06102 0.95016 0.52239 0.0
C798 C 0.02731 0.88098 0.49205 0.0
C799 C 0.05127 0.93408 0.56497 0.0
C800 C 0.9896 0.86542 0.56327 0.0
C801 C 0.0032 0.84735 0.57443 0.0
C802 C 0.00128 0.88536 0.54861 0.0
C803 C 0.02713 0.88706 0.54464 0.0
C804 C 0.04103 0.86898 0.55596 0.0
C805 C 0.02894 0.84944 0.57093 0.0
C806 C 0.9859 0.90452 0.53723 0.0
C807 C 0.06855 0.87001 0.55187 0.0
H808 H 0.04836 0.92342 0.46825 0.0
H809 H 0.06936 0.9677 0.52973 0.0
H810 H 0.03594 0.8652 0.50093 0.0
H811 H 0.00698 0.87716 0.49524 0.0
H812 H 0.02968 0.8815 0.47218 0.0
H813 H 0.0614 0.95264 0.56967 0.0
H814 H 0.03182 0.93222 0.57098 0.0
H815 H 0.06044 0.91945 0.57535 0.0
H816 H 0.96974 0.86403 0.56605 0.0
H817 H 0.03952 0.83545 0.5794 0.0
H818 H 0.98565 0.90445 0.51715 0.0
H819 H 0.99452 0.92345 0.54233 0.0
H820 H 0.96624 0.90103 0.54288 0.0
H821 H 0.07119 0.86886 0.53225 0.0
H822 H 0.07674 0.85464 0.56216 0.0
H823 H 0.07915 0.88805 0.5574 0.0
C824 C 0.16901 0.76025 0.72069 0.0
C825 C 0.16571 0.75475 0.74555 0.0
C826 C 0.149 0.76585 0.70483 0.0
C827 C 0.12513 0.76586 0.71406 0.0
C828 C 0.12157 0.75978 0.73904 0.0
C829 C 0.14188 0.7543 0.75446 0.0
C830 C 0.15352 0.77226 0.67831 0.0
C831 C 0.09637 0.7594 0.74957 0.0
C832 C 0.07871 0.80402 0.68093 0.0
C833 C 0.0619 0.78562 0.6694 0.0
C834 C 0.09967 0.79792 0.69507 0.0
C835 C 0.10392 0.77279 0.69781 0.0
C836 C 0.08731 0.75419 0.68585 0.0
C837 C 0.06652 0.76082 0.67179 0.0
C838 C 0.11698 0.8183 0.7075 0.0
C839 C 0.09121 0.7272 0.68833 0.0
H840 H 0.18743 0.76083 0.71374 0.0
H841 H 0.1391 0.74966 0.77358 0.0
H842 H 0.1401 0.75989 0.66685 0.0
H843 H 0.15025 0.79168 0.67344 0.0
H844 H 0.17291 0.77049 0.67383 0.0
H845 H 0.09658 0.75369 0.76926 0.0
H846 H 0.09066 0.77819 0.747 0.0
H847 H 0.08189 0.74635 0.7399 0.0
H848 H 0.07537 0.82323 0.67914 0.0
H849 H 0.05369 0.74646 0.66291 0.0
H850 H 0.13656 0.81841 0.70248 0.0
H851 H 0.11663 0.81471 0.72749 0.0
H852 H 0.11169 0.83705 0.70271 0.0
H853 H 0.11028 0.72542 0.68298 0.0
H854 H 0.07723 0.71517 0.67702 0.0
H855 H 0.08982 0.72014 0.70758 0.0
C856 C 0.94647 0.60451 0.54687 0.0
C857 C 0.95635 0.60611 0.52384 0.0
C858 C 0.94704 0.62589 0.55991 0.0
C859 C 0.95776 0.64938 0.54966 0.0
C860 C 0.96788 0.65109 0.52649 0.0
C861 C 0.967 0.62945 0.51385 0.0
C862 C 0.9361 0.62336 0.58459 0.0
C863 C 0.97941 0.67583 0.51492 0.0
C864 C 0.93916 0.70887 0.57012 0.0
C865 C 0.95999 0.71783 0.58521 0.0
C866 C 0.93792 0.6863 0.55893 0.0
C867 C 0.95801 0.67234 0.56287 0.0
C868 C 0.97883 0.68093 0.57851 0.0
C869 C 0.97957 0.70357 0.58953 0.0
C870 C 0.91536 0.67768 0.54242 0.0
C871 C 1.00061 0.66654 0.58312 0.0
H872 H 0.93849 0.58648 0.5548 0.0
H873 H 0.97433 0.63087 0.49591 0.0
H874 H 0.95061 0.63066 0.59847 0.0
H875 H 0.92066 0.63467 0.58452 0.0
H876 H 0.92869 0.60372 0.5901 0.0
H877 H 0.98695 0.67387 0.49702 0.0
H878 H 0.96517 0.6886 0.51236 0.0
H879 H 0.99486 0.68475 0.52703 0.0
H880 H 0.92388 0.71969 0.56675 0.0
H881 H 0.99571 0.71029 0.60117 0.0
H882 H 0.9069 0.65846 0.54826 0.0
H883 H 0.92124 0.67715 0.52361 0.0
H884 H 0.90078 0.69006 0.54221 0.0
H885 H 0.99383 0.64706 0.58961 0.0
H886 H 0.01477 0.67508 0.59674 0.0
H887 H 0.00993 0.66573 0.56592 0.0
C888 C 0.7878 0.83426 0.23101 0.0
C889 C 0.76152 0.83083 0.22905 0.0
C890 C 0.80171 0.85829 0.23186 0.0
C891 C 0.789 0.87933 0.23045 0.0
C892 C 0.76254 0.87597 0.22687 0.0
C893 C 0.74912 0.85177 0.22638 0.0
C894 C 0.82986 0.86101 0.23591 0.0
C895 C 0.74825 0.89788 0.22498 0.0
C896 C 0.81604 0.93525 0.26602 0.0
C897 C 0.82594 0.95261 0.24784 0.0
C898 C 0.80467 0.91123 0.26058 0.0
C899 C 0.80278 0.90431 0.23624 0.0
C900 C 0.8131 0.92152 0.21777 0.0
C901 C 0.82476 0.94549 0.22382 0.0
C902 C 0.79425 0.89339 0.28093 0.0
C903 C 0.81123 0.91485 0.1916 0.0
H904 H 0.79743 0.8181 0.23314 0.0
H905 H 0.7288 0.84916 0.22446 0.0
H906 H 0.83912 0.8759 0.22335 0.0
H907 H 0.83524 0.86653 0.2547 0.0
H908 H 0.83712 0.84337 0.23334 0.0
H909 H 0.72824 0.89244 0.21906 0.0
H910 H 0.74905 0.90601 0.24294 0.0
H911 H 0.75691 0.91267 0.21197 0.0
H912 H 0.81714 0.94046 0.28469 0.0
H913 H 0.83236 0.95882 0.2097 0.0
H914 H 0.80222 0.87574 0.28111 0.0
H915 H 0.77361 0.88869 0.27798 0.0
H916 H 0.79838 0.90126 0.29902 0.0
H917 H 0.81886 0.89726 0.18993 0.0
H918 H 0.82145 0.92974 0.17962 0.0
H919 H 0.79123 0.91163 0.18503 0.0
C920 C 0.76725 0.1855 0.22922 0.0
C921 C 0.77387 0.20016 0.2492 0.0
C922 C 0.77793 0.16381 0.22686 0.0
C923 C 0.79541 0.15646 0.24508 0.0
C924 C 0.80237 0.17145 0.26514 0.0
C925 C 0.79141 0.19304 0.26701 0.0
C926 C 0.76989 0.14833 0.20529 0.0
C927 C 0.82078 0.16424 0.28507 0.0
C928 C 0.80089 0.08808 0.25826 0.0
C929 C 0.82394 0.08621 0.24864 0.0
C930 C 0.79103 0.11056 0.25637 0.0
C931 C 0.80452 0.13192 0.2446 0.0
C932 C 0.82725 0.12996 0.23383 0.0
C933 C 0.83668 0.10707 0.23591 0.0
C934 C 0.76663 0.11167 0.26793 0.0
C935 C 0.84211 0.1523 0.22103 0.0
H936 H 0.75343 0.19086 0.2156 0.0
H937 H 0.79629 0.20422 0.2826 0.0
H938 H 0.78655 0.14429 0.19639 0.0
H939 H 0.75916 0.13018 0.21146 0.0
H940 H 0.75796 0.15774 0.19164 0.0
H941 H 0.82561 0.17879 0.29847 0.0
H942 H 0.81267 0.14661 0.2948 0.0
H943 H 0.83828 0.16087 0.27723 0.0
H944 H 0.79073 0.07201 0.26791 0.0
H945 H 0.85451 0.10581 0.22848 0.0
H946 H 0.75327 0.11948 0.25459 0.0
H947 H 0.7701 0.12421 0.28319 0.0
H948 H 0.75766 0.09304 0.27503 0.0
H949 H 0.82985 0.16136 0.20746 0.0
H950 H 0.85809 0.14724 0.2117 0.0
H951 H 0.84957 0.16625 0.23442 0.0
C952 C 0.40008 0.00962 0.97594 0.0
C953 C 0.41152 0.01937 0.99742 0.0
C954 C 0.37964 0.99032 0.97653 0.0
C955 C 0.3705 0.98044 0.99918 0.0
C956 C 0.38149 0.99071 0.0209 0.0
C957 C 0.40186 0.0101 0.01976 0.0
C958 C 0.36834 0.97997 0.95296 0.0
C959 C 0.37236 0.98057 0.04541 0.0
C960 C 0.30696 0.93904 0.00024 0.0
C961 C 0.31401 0.91517 0.00159 0.0
C962 C 0.32512 0.96054 0.99949 0.0
C963 C 0.35087 0.95806 0.00022 0.0
C964 C 0.35807 0.93404 0.00167 0.0
C965 C 0.33959 0.91294 0.00229 0.0
C966 C 0.31678 0.98589 0.99783 0.0
C967 C 0.38535 0.93059 0.00254 0.0
H968 H 0.40725 0.01701 0.95861 0.0
H969 H 0.41076 0.01747 0.03642 0.0
H970 H 0.37174 0.96043 0.95223 0.0
H971 H 0.34773 0.97973 0.95186 0.0
H972 H 0.37636 0.99095 0.93684 0.0
H973 H 0.38161 0.99182 0.0604 0.0
H974 H 0.35178 0.98008 0.04571 0.0
H975 H 0.37619 0.96113 0.04887 0.0
H976 H 0.28725 0.94095 0.99969 0.0
H977 H 0.34529 0.89461 0.00341 0.0
H978 H 0.32359 0.99659 0.98111 0.0
H979 H 0.32511 0.99662 0.01348 0.0
H980 H 0.29605 0.98465 0.99756 0.0
H981 H 0.39421 0.9395 0.98593 0.0
H982 H 0.38781 0.91061 0.004 0.0
H983 H 0.39558 0.93984 0.0183 0.0
C984 C 0.27593 0.35069 0.36383 0.0
C985 C 0.29664 0.3581 0.3494 0.0
C986 C 0.25537 0.36375 0.36218 0.0
C987 C 0.25479 0.38404 0.34485 0.0
C988 C 0.2756 0.3919 0.33042 0.0
C989 C 0.29647 0.37922 0.33326 0.0
C990 C 0.23389 0.35527 0.3785 0.0
C991 C 0.27538 0.41302 0.31122 0.0
C992 C 0.18947 0.39534 0.32239 0.0
C993 C 0.18707 0.41689 0.33397 0.0
C994 C 0.21176 0.38498 0.32517 0.0
C995 C 0.23168 0.39585 0.34075 0.0
C996 C 0.22916 0.41746 0.35277 0.0
C997 C 0.20701 0.42808 0.34879 0.0
C998 C 0.21403 0.36247 0.31133 0.0
C999 C 0.24954 0.42896 0.37029 0.0
H1000 H 0.27522 0.33416 0.37599 0.0
H1001 H 0.31246 0.38568 0.32242 0.0
H1002 H 0.22839 0.37145 0.38692 0.0
H1003 H 0.21732 0.34653 0.36762 0.0
H1004 H 0.23869 0.34151 0.39316 0.0
H1005 H 0.29328 0.41724 0.30185 0.0
H1006 H 0.25986 0.40811 0.29746 0.0
H1007 H 0.27189 0.43015 0.3194 0.0
H1008 H 0.17405 0.38693 0.31071 0.0
H1009 H 0.20498 0.44472 0.35778 0.0
H1010 H 0.21583 0.34621 0.3242 0.0
H1011 H 0.2312 0.36608 0.30083 0.0
H1012 H 0.19757 0.35746 0.29859 0.0
H1013 H 0.25309 0.41504 0.38523 0.0
H1014 H 0.24458 0.44566 0.37827 0.0
H1015 H 0.26733 0.43443 0.36098 0.0
C1016 C 0.1442 0.02853 0.45764 0.0
C1017 C 0.1295 0.01714 0.47658 0.0
C1018 C 0.16845 0.04123 0.46237 0.0
C1019 C 0.17873 0.04181 0.48653 0.0
C1020 C 0.16418 0.03034 0.50576 0.0
C1021 C 0.13961 0.01859 0.50061 0.0
C1022 C 0.18319 0.05377 0.44141 0.0
C1023 C 0.17473 0.03004 0.53172 0.0
C1024 C 0.2498 0.05163 0.49242 0.0
C1025 C 0.25519 0.07668 0.49804 0.0
C1026 C 0.22494 0.03979 0.48959 0.0
C1027 C 0.20506 0.05364 0.49151 0.0
C1028 C 0.21044 0.07896 0.4973 0.0
C1029 C 0.23551 0.09008 0.50093 0.0
C1030 C 0.21997 0.01254 0.48427 0.0
C1031 C 0.18978 0.09454 0.49873 0.0
H1032 H 0.13698 0.02723 0.43898 0.0
H1033 H 0.12837 0.0105 0.51551 0.0
H1034 H 0.19049 0.07344 0.44512 0.0
H1035 H 0.19959 0.04425 0.43923 0.0
H1036 H 0.17173 0.05349 0.424 0.0
H1037 H 0.16106 0.02004 0.54455 0.0
H1038 H 0.19179 0.02085 0.53324 0.0
H1039 H 0.18042 0.04936 0.53735 0.0
H1040 H 0.26508 0.04125 0.49039 0.0
H1041 H 0.23975 0.10953 0.50507 0.0
H1042 H 0.21091 0.01038 0.46582 0.0
H1043 H 0.20686 0.00206 0.49732 0.0
H1044 H 0.23744 0.00398 0.4853 0.0
H1045 H 0.17929 0.09557 0.48085 0.0
H1046 H 0.19709 0.11381 0.50388 0.0
H1047 H 0.17621 0.08575 0.51216 0.0
C1048 C 0.72807 0.16164 0.76819 0.0
C1049 C 0.75401 0.16332 0.76609 0.0
C1050 C 0.71354 0.13894 0.77535 0.0
C1051 C 0.72526 0.11744 0.78043 0.0
C1052 C 0.75137 0.11895 0.77796 0.0
C1053 C 0.76542 0.14186 0.77082 0.0
C1054 C 0.68574 0.13803 0.77783 0.0
C1055 C 0.76451 0.0964 0.78305 0.0
C1056 C 0.69468 0.0642 0.82166 0.0
C1057 C 0.68394 0.0469 0.80486 0.0
C1058 C 0.70785 0.08739 0.81392 0.0
C1059 C 0.71037 0.09341 0.78878 0.0
C1060 C 0.69936 0.07616 0.77171 0.0
C1061 C 0.68626 0.05311 0.77995 0.0
C1062 C 0.71932 0.10534 0.83266 0.0
C1063 C 0.7017 0.08192 0.74476 0.0
H1064 H 0.71922 0.17822 0.76473 0.0
H1065 H 0.7854 0.14297 0.76882 0.0
H1066 H 0.67506 0.12368 0.76631 0.0
H1067 H 0.68102 0.13259 0.7969 0.0
H1068 H 0.6794 0.15624 0.77257 0.0
H1069 H 0.78486 0.10062 0.77984 0.0
H1070 H 0.76228 0.08923 0.80219 0.0
H1071 H 0.75588 0.08125 0.77135 0.0
H1072 H 0.69292 0.0596 0.84092 0.0
H1073 H 0.67798 0.03988 0.76684 0.0
H1074 H 0.71235 0.12347 0.82908 0.0
H1075 H 0.73999 0.10895 0.83142 0.0
H1076 H 0.71501 0.09814 0.85146 0.0
H1077 H 0.69431 0.09951 0.73913 0.0
H1078 H 0.69144 0.06679 0.73383 0.0
H1079 H 0.72175 0.08473 0.74044 0.0
C1080 C 0.42958 0.97816 0.57492 0.0
C1081 C 0.45373 0.98359 0.58587 0.0
C1082 C 0.41499 0.9971 0.56861 0.0
C1083 C 0.42486 0.02211 0.57324 0.0
C1084 C 0.44881 0.02758 0.58522 0.0
C1085 C 0.46297 0.00823 0.5914 0.0
C1086 C 0.38945 0.99046 0.55602 0.0
C1087 C 0.46001 0.05399 0.5904 0.0
C1088 C 0.4 0.06887 0.52793 0.0
C1089 C 0.38111 0.0766 0.54059 0.0
C1090 C 0.41516 0.0521 0.53884 0.0
C1091 C 0.41127 0.04261 0.563 0.0
C1092 C 0.39316 0.05134 0.57637 0.0
C1093 C 0.37831 0.06838 0.56501 0.0
C1094 C 0.43449 0.04356 0.52402 0.0
C1095 C 0.38854 0.04168 0.60218 0.0
H1096 H 0.42221 0.95909 0.57096 0.0
H1097 H 0.48171 0.01258 0.59971 0.0
H1098 H 0.37516 0.9986 0.56516 0.0
H1099 H 0.38974 0.99844 0.537 0.0
H1100 H 0.38358 0.96998 0.55575 0.0
H1101 H 0.47733 0.05476 0.60244 0.0
H1102 H 0.46472 0.06473 0.57308 0.0
H1103 H 0.44628 0.06338 0.59901 0.0
H1104 H 0.40245 0.0754 0.50913 0.0
H1105 H 0.36369 0.07424 0.57485 0.0
H1106 H 0.42899 0.02352 0.52067 0.0
H1107 H 0.45302 0.04556 0.53411 0.0
H1108 H 0.43655 0.05423 0.50621 0.0
H1109 H 0.3796 0.02189 0.60234 0.0
H1110 H 0.3761 0.05248 0.611 0.0
H1111 H 0.40651 0.04235 0.61315 0.0
C1112 C 0.57996 0.46458 0.50461 0.0
C1113 C 0.57645 0.47347 0.5272 0.0
C1114 C 0.59941 0.45074 0.50163 0.0
C1115 C 0.61575 0.44556 0.52176 0.0
C1116 C 0.61257 0.45489 0.54452 0.0
C1117 C 0.59285 0.46859 0.547 0.0
C1118 C 0.602 0.44107 0.47709 0.0
C1119 C 0.6296 0.44988 0.56642 0.0
C1120 C 0.64809 0.38806 0.52087 0.0
C1121 C 0.67217 0.39837 0.5138 0.0
C1122 C 0.62965 0.4032 0.52356 0.0
C1123 C 0.63538 0.42938 0.51921 0.0
C1124 C 0.65966 0.43994 0.51213 0.0
C1125 C 0.67773 0.42433 0.50944 0.0
C1126 C 0.60397 0.39112 0.531 0.0
C1127 C 0.66657 0.46774 0.50742 0.0
H1128 H 0.56714 0.46803 0.48931 0.0
H1129 H 0.58995 0.47514 0.56455 0.0
H1130 H 0.62131 0.44708 0.47104 0.0
H1131 H 0.5988 0.42038 0.4784 0.0
H1132 H 0.58851 0.44764 0.46303 0.0
H1133 H 0.62559 0.45965 0.58242 0.0
H1134 H 0.62732 0.42956 0.57133 0.0
H1135 H 0.64949 0.45589 0.56215 0.0
H1136 H 0.64355 0.36806 0.52428 0.0
H1137 H 0.69628 0.43253 0.50406 0.0
H1138 H 0.58953 0.39557 0.51689 0.0
H1139 H 0.59954 0.39865 0.54811 0.0
H1140 H 0.6025 0.37053 0.53374 0.0
H1141 H 0.65407 0.4745 0.49256 0.0
H1142 H 0.68633 0.47309 0.50234 0.0
H1143 H 0.66382 0.47745 0.52385 0.0
C1144 C 0.73675 0.28285 0.33109 0.0
C1145 C 0.71373 0.26949 0.32322 0.0
C1146 C 0.73947 0.29415 0.35342 0.0
C1147 C 0.71879 0.29162 0.36846 0.0
C1148 C 0.69549 0.27815 0.36056 0.0
C1149 C 0.6932 0.26742 0.33796 0.0
C1150 C 0.76455 0.3086 0.36104 0.0
C1151 C 0.67317 0.27455 0.37623 0.0
C1152 C 0.73684 0.2976 0.43546 0.0
C1153 C 0.73318 0.32209 0.4389 0.0
C1154 C 0.73117 0.28715 0.41292 0.0
C1155 C 0.72211 0.30171 0.39308 0.0
C1156 C 0.71751 0.32618 0.39664 0.0
C1157 C 0.72286 0.33602 0.41965 0.0
C1158 C 0.73577 0.26079 0.41013 0.0
C1159 C 0.70813 0.34239 0.37587 0.0
H1160 H 0.75256 0.28471 0.3196 0.0
H1161 H 0.67541 0.25693 0.33198 0.0
H1162 H 0.76222 0.32764 0.36565 0.0
H1163 H 0.77248 0.29929 0.37759 0.0
H1164 H 0.77825 0.31018 0.34663 0.0
H1165 H 0.65611 0.26443 0.36705 0.0
H1166 H 0.67751 0.26386 0.39339 0.0
H1167 H 0.66901 0.29286 0.38121 0.0
H1168 H 0.74467 0.28671 0.45038 0.0
H1169 H 0.72025 0.35503 0.4222 0.0
H1170 H 0.75128 0.261 0.39784 0.0
H1171 H 0.71885 0.24968 0.40176 0.0
H1172 H 0.74079 0.25128 0.42778 0.0
H1173 H 0.72255 0.34655 0.36212 0.0
H1174 H 0.70388 0.36028 0.38193 0.0
H1175 H 0.69098 0.33244 0.36676 0.0
C1176 C 0.53666 0.04367 0.94125 0.0
C1177 C 0.51289 0.04649 0.93075 0.0
C1178 C 0.55277 0.03081 0.92971 0.0
C1179 C 0.54504 0.02094 0.90694 0.0
C1180 C 0.52115 0.024 0.89613 0.0
C1181 C 0.50534 0.03673 0.9082 0.0
C1182 C 0.57805 0.02783 0.94183 0.0
C1183 C 0.51237 0.01401 0.87171 0.0
C1184 C 0.59365 0.00881 0.86436 0.0
C1185 C 0.59169 0.98272 0.86668 0.0
C1186 C 0.57897 0.02153 0.87775 0.0
C1187 C 0.56208 0.00787 0.89407 0.0
C1188 C 0.56069 0.98164 0.89721 0.0
C1189 C 0.57543 0.96935 0.8834 0.0
C1190 C 0.58091 0.04951 0.8738 0.0
C1191 C 0.54311 0.96649 0.91469 0.0
H1192 H 0.54257 0.0515 0.95858 0.0
H1193 H 0.48707 0.03914 0.89994 0.0
H1194 H 0.57998 0.00777 0.94425 0.0
H1195 H 0.59318 0.03696 0.93014 0.0
H1196 H 0.58094 0.03602 0.95985 0.0
H1197 H 0.49324 0.01791 0.86585 0.0
H1198 H 0.52552 0.02248 0.85776 0.0
H1199 H 0.51232 0.99356 0.87243 0.0
H1200 H 0.60615 0.01934 0.8515 0.0
H1201 H 0.57387 0.94921 0.8854 0.0
H1202 H 0.5849 0.05844 0.89137 0.0
H1203 H 0.56275 0.05444 0.86603 0.0
H1204 H 0.59582 0.05749 0.86132 0.0
H1205 H 0.5463 0.97398 0.93299 0.0
H1206 H 0.54546 0.94649 0.91622 0.0
H1207 H 0.52341 0.9679 0.90853 0.0
C1208 C 0.36669 0.28711 0.40038 0.0
C1209 C 0.34325 0.29335 0.3921 0.0
C1210 C 0.3685 0.26684 0.41724 0.0
C1211 C 0.34631 0.25234 0.42565 0.0
C1212 C 0.3227 0.2594 0.41834 0.0
C1213 C 0.32147 0.27988 0.40173 0.0
C1214 C 0.39403 0.26016 0.42498 0.0
C1215 C 0.29857 0.24432 0.42671 0.0
C1216 C 0.34442 0.18304 0.4401 0.0
C1217 C 0.34346 0.18123 0.46548 0.0
C1218 C 0.34621 0.20619 0.42705 0.0
C1219 C 0.34738 0.22817 0.43967 0.0
C1220 C 0.34761 0.22665 0.46535 0.0
C1221 C 0.34548 0.20315 0.47797 0.0
C1222 C 0.34573 0.20698 0.39964 0.0
C1223 C 0.34925 0.24974 0.47942 0.0
H1224 H 0.38357 0.29764 0.39312 0.0
H1225 H 0.30328 0.28441 0.39516 0.0
H1226 H 0.39561 0.25619 0.44493 0.0
H1227 H 0.39668 0.243 0.41631 0.0
H1228 H 0.40938 0.27526 0.41975 0.0
H1229 H 0.28198 0.25357 0.42113 0.0
H1230 H 0.29587 0.22578 0.41887 0.0
H1231 H 0.29944 0.24113 0.44676 0.0
H1232 H 0.34292 0.16624 0.43027 0.0
H1233 H 0.34494 0.20195 0.49759 0.0
H1234 H 0.36213 0.21985 0.39288 0.0
H1235 H 0.32861 0.21423 0.39193 0.0
H1236 H 0.3459 0.18833 0.39266 0.0
H1237 H 0.3649 0.26399 0.47326 0.0
H1238 H 0.35206 0.24567 0.49929 0.0
H1239 H 0.33171 0.25798 0.47599 0.0
C1240 C 0.50963 0.5023 0.89655 0.0
C1241 C 0.525 0.52427 0.90303 0.0
C1242 C 0.49089 0.50271 0.87782 0.0
C1243 C 0.48721 0.52572 0.86557 0.0
C1244 C 0.50313 0.54788 0.87164 0.0
C1245 C 0.52181 0.54688 0.89035 0.0
C1246 C 0.47433 0.47868 0.87186 0.0
C1247 C 0.49968 0.57279 0.85917 0.0
C1248 C 0.44562 0.52502 0.80728 0.0
C1249 C 0.42248 0.5278 0.8161 0.0
C1250 C 0.46699 0.52446 0.8231 0.0
C1251 C 0.46515 0.52696 0.84825 0.0
C1252 C 0.44197 0.53033 0.85713 0.0
C1253 C 0.42095 0.53062 0.841 0.0
C1254 C 0.49139 0.52074 0.81303 0.0
C1255 C 0.43925 0.53331 0.88378 0.0
H1256 H 0.5119 0.48488 0.9066 0.0
H1257 H 0.5335 0.56394 0.89555 0.0
H1258 H 0.455 0.4792 0.87728 0.0
H1259 H 0.47328 0.47643 0.852 0.0
H1260 H 0.48118 0.46213 0.88133 0.0
H1261 H 0.515 0.58785 0.86441 0.0
H1262 H 0.49889 0.57171 0.83916 0.0
H1263 H 0.4816 0.57794 0.864 0.0
H1264 H 0.44694 0.52275 0.78809 0.0
H1265 H 0.4032 0.53294 0.84799 0.0
H1266 H 0.49727 0.50321 0.82123 0.0
H1267 H 0.5064 0.53619 0.81789 0.0
H1268 H 0.48991 0.5198 0.79296 0.0
H1269 H 0.44352 0.51638 0.8946 0.0
H1270 H 0.42008 0.53645 0.88764 0.0
H1271 H 0.45288 0.54928 0.89011 0.0
C1272 C 0.75577 0.70502 0.1799 0.0
C1273 C 0.74235 0.72356 0.16943 0.0
C1274 C 0.76664 0.6898 0.16533 0.0
C1275 C 0.76346 0.69279 0.13972 0.0
C1276 C 0.74968 0.7113 0.1291 0.0
C1277 C 0.73927 0.7264 0.14408 0.0
C1278 C 0.78126 0.67033 0.17732 0.0
C1279 C 0.74556 0.71488 0.10188 0.0
C1280 C 0.80642 0.66907 0.09767 0.0
C1281 C 0.79164 0.64712 0.09012 0.0
C1282 C 0.7979 0.68363 0.11454 0.0
C1283 C 0.77391 0.67623 0.12389 0.0
C1284 C 0.75923 0.65371 0.11691 0.0
C1285 C 0.76833 0.63937 0.10022 0.0
C1286 C 0.81423 0.70736 0.12177 0.0
C1287 C 0.73347 0.64525 0.12631 0.0
H1288 H 0.75764 0.70232 0.19951 0.0
H1289 H 0.7284 0.74031 0.13596 0.0
H1290 H 0.77192 0.65146 0.17277 0.0
H1291 H 0.80036 0.67288 0.17035 0.0
H1292 H 0.78296 0.67111 0.1974 0.0
H1293 H 0.73463 0.73029 0.09651 0.0
H1294 H 0.76386 0.71898 0.09327 0.0
H1295 H 0.73538 0.69745 0.09451 0.0
H1296 H 0.82452 0.67513 0.09007 0.0
H1297 H 0.75675 0.62247 0.09448 0.0
H1298 H 0.81639 0.7077 0.14185 0.0
H1299 H 0.80515 0.72367 0.11502 0.0
H1300 H 0.83314 0.7095 0.11438 0.0
H1301 H 0.7344 0.64448 0.14645 0.0
H1302 H 0.72504 0.62661 0.1202 0.0
H1303 H 0.72084 0.65889 0.11988 0.0
C1304 C 0.99079 0.06173 0.09316 0.0
C1305 C 0.99551 0.04006 0.08292 0.0
C1306 C 0.97394 0.06056 0.11174 0.0
C1307 C 0.96159 0.03711 0.1206 0.0
C1308 C 0.96662 0.01511 0.11072 0.0
C1309 C 0.98342 0.01685 0.09199 0.0
C1310 C 0.96914 0.08447 0.12172 0.0
C1311 C 0.95398 0.98973 0.11972 0.0
C1312 C 0.93342 0.03289 0.18264 0.0
C1313 C 0.90789 0.03323 0.1763 0.0
C1314 C 0.95106 0.03398 0.16475 0.0
C1315 C 0.94307 0.03567 0.13986 0.0
C1316 C 0.91736 0.03618 0.13335 0.0
C1317 C 0.90011 0.03486 0.1516 0.0
C1318 C 0.97824 0.03321 0.17249 0.0
C1319 C 0.90807 0.03817 0.10705 0.0
H1320 H 1.00036 0.07974 0.08669 0.0
H1321 H 0.98665 0.99999 0.08408 0.0
H1322 H 0.94897 0.08627 0.11886 0.0
H1323 H 0.97369 0.08414 0.14158 0.0
H1324 H 0.98037 0.1012 0.11301 0.0
H1325 H 0.96061 0.97438 0.11085 0.0
H1326 H 0.95752 0.98708 0.13965 0.0
H1327 H 0.93339 0.98833 0.11617 0.0
H1328 H 0.93966 0.03154 0.20164 0.0
H1329 H 0.88046 0.03517 0.14647 0.0
H1330 H 0.99006 0.05032 0.16529 0.0
H1331 H 0.98467 0.01711 0.16479 0.0
H1332 H 0.98141 0.03167 0.19255 0.0
H1333 H 0.91783 0.05543 0.09791 0.0
H1334 H 0.88753 0.03846 0.10498 0.0
H1335 H 0.91246 0.02221 0.09748 0.0
C1336 C 0.26555 0.78902 0.18717 0.0
C1337 C 0.24829 0.76868 0.19522 0.0
C1338 C 0.26297 0.80012 0.16365 0.0
C1339 C 0.24279 0.79042 0.14772 0.0
C1340 C 0.22489 0.77029 0.15604 0.0
C1341 C 0.22797 0.75954 0.17967 0.0
C1342 C 0.28254 0.82144 0.15546 0.0
C1343 C 0.2032 0.75935 0.13963 0.0
C1344 C 0.23179 0.82912 0.08893 0.0
C1345 C 0.24579 0.81855 0.07295 0.0
C1346 C 0.22994 0.81973 0.11326 0.0
C1347 C 0.24229 0.79932 0.12163 0.0
C1348 C 0.25552 0.78798 0.10526 0.0
C1349 C 0.2571 0.79772 0.08121 0.0
C1350 C 0.21557 0.8322 0.13019 0.0
C1351 C 0.26883 0.76608 0.11335 0.0
H1352 H 0.28145 0.79583 0.19911 0.0
H1353 H 0.21483 0.74357 0.18584 0.0
H1354 H 0.29362 0.81526 0.14139 0.0
H1355 H 0.27345 0.83716 0.14712 0.0
H1356 H 0.29562 0.82833 0.17067 0.0
H1357 H 0.18939 0.7458 0.14965 0.0
H1358 H 0.19344 0.77433 0.13066 0.0
H1359 H 0.21033 0.74964 0.1251 0.0
H1360 H 0.22302 0.84521 0.0827 0.0
H1361 H 0.26774 0.78923 0.06895 0.0
H1362 H 0.22875 0.84144 0.14417 0.0
H1363 H 0.20198 0.81813 0.13985 0.0
H1364 H 0.20525 0.8464 0.12045 0.0
H1365 H 0.284 0.77181 0.1272 0.0
H1366 H 0.27721 0.75862 0.09806 0.0
H1367 H 0.25559 0.75083 0.12192 0.0
C1368 C 0.02279 0.42137 0.15031 0.0
C1369 C 0.01575 0.44389 0.14028 0.0
C1370 C 0.03681 0.42036 0.17251 0.0
C1371 C 0.04317 0.44219 0.18549 0.0
C1372 C 0.03579 0.46486 0.17578 0.0
C1373 C 0.02263 0.46555 0.15313 0.0
C1374 C 0.04489 0.39596 0.18202 0.0
C1375 C 0.04172 0.48843 0.18937 0.0
C1376 C 0.05807 0.43477 0.25334 0.0
C1377 C 0.08413 0.44187 0.25475 0.0
C1378 C 0.04447 0.43484 0.23089 0.0
C1379 C 0.05741 0.44135 0.20933 0.0
C1380 C 0.08385 0.44776 0.21063 0.0
C1381 C 0.09687 0.44839 0.23341 0.0
C1382 C 0.01622 0.42869 0.2303 0.0
C1383 C 0.09835 0.45402 0.18798 0.0
H1384 H 0.01727 0.40439 0.14091 0.0
H1385 H 0.01796 0.48322 0.14544 0.0
H1386 H 0.06554 0.39849 0.18565 0.0
H1387 H 0.03623 0.3897 0.19949 0.0
H1388 H 0.03958 0.38102 0.1691 0.0
H1389 H 0.0335 0.50421 0.1799 0.0
H1390 H 0.03445 0.48511 0.20784 0.0
H1391 H 0.06232 0.49395 0.1916 0.0
H1392 H 0.0482 0.42996 0.26991 0.0
H1393 H 0.11707 0.45371 0.23454 0.0
H1394 H 0.00977 0.41265 0.21896 0.0
H1395 H 0.00775 0.44479 0.22189 0.0
H1396 H 0.00904 0.42409 0.24872 0.0
H1397 H 0.0936 0.4388 0.17532 0.0
H1398 H 0.11895 0.45695 0.19205 0.0
H1399 H 0.09306 0.47121 0.17842 0.0
C1400 C 0.33397 0.72025 0.30462 0.0
C1401 C 0.33185 0.72054 0.2792 0.0
C1402 C 0.35734 0.72654 0.31698 0.0
C1403 C 0.37915 0.73284 0.30358 0.0
C1404 C 0.37714 0.73273 0.2779 0.0
C1405 C 0.35345 0.7268 0.266 0.0
C1406 C 0.35863 0.72697 0.34432 0.0
C1407 C 0.39999 0.73901 0.26299 0.0
C1408 C 0.43551 0.77435 0.33053 0.0
C1409 C 0.45135 0.75706 0.33895 0.0
C1410 C 0.41181 0.76662 0.31947 0.0
C1411 C 0.40386 0.74097 0.31628 0.0
C1412 C 0.41966 0.72335 0.32487 0.0
C1413 C 0.44316 0.73159 0.33637 0.0
C1414 C 0.39534 0.78597 0.31104 0.0
C1415 C 0.41195 0.69588 0.32146 0.0
H1416 H 0.31721 0.71552 0.31482 0.0
H1417 H 0.35183 0.72671 0.24635 0.0
H1418 H 0.37186 0.7146 0.35242 0.0
H1419 H 0.36588 0.74611 0.34979 0.0
H1420 H 0.34004 0.72094 0.35207 0.0
H1421 H 0.39541 0.73662 0.24333 0.0
H1422 H 0.40867 0.75861 0.26533 0.0
H1423 H 0.41421 0.72698 0.26938 0.0
H1424 H 0.44161 0.79406 0.3327 0.0
H1425 H 0.45538 0.71819 0.34276 0.0
H1426 H 0.37686 0.78133 0.31926 0.0
H1427 H 0.39186 0.78602 0.29104 0.0
H1428 H 0.40387 0.80505 0.31585 0.0
H1429 H 0.39391 0.68914 0.32998 0.0
H1430 H 0.42623 0.68455 0.3294 0.0
H1431 H 0.40892 0.6927 0.3018 0.0
C1432 C 0.99722 0.39692 0.00874 0.0
C1433 C 0.01789 0.40463 0.02444 0.0
C1434 C 0.99867 0.37974 0.99122 0.0
C1435 C 0.02143 0.37025 0.98927 0.0
C1436 C 0.04212 0.37742 0.00561 0.0
C1437 C 0.04009 0.39454 0.02303 0.0
C1438 C 0.97616 0.3725 0.9742 0.0
C1439 C 0.06671 0.36781 0.00404 0.0
C1440 C 0.02 0.31437 0.95089 0.0
C1441 C 0.027 0.32611 0.92843 0.0
C1442 C 0.01846 0.32843 0.97106 0.0
C1443 C 0.02426 0.35476 0.9687 0.0
C1444 C 0.03211 0.3666 0.94629 0.0
C1445 C 0.0333 0.35216 0.92646 0.0
C1446 C 0.00995 0.31519 0.99467 0.0
C1447 C 0.03872 0.39461 0.94306 0.0
H1448 H 0.9801 0.4048 0.00987 0.0
H1449 H 0.05609 0.40051 0.03518 0.0
H1450 H 0.98041 0.3799 0.95547 0.0
H1451 H 0.97178 0.35191 0.97385 0.0
H1452 H 0.95928 0.37981 0.97946 0.0
H1453 H 0.08022 0.37346 0.01937 0.0
H1454 H 0.06358 0.34718 0.00391 0.0
H1455 H 0.0753 0.37514 0.98678 0.0
H1456 H 0.01503 0.29427 0.95255 0.0
H1457 H 0.03891 0.3614 0.90923 0.0
H1458 H 0.99187 0.3207 0.99904 0.0
H1459 H 0.02376 0.32078 0.00975 0.0
H1460 H 0.00743 0.29458 0.99395 0.0
H1461 H 0.02202 0.4035 0.94579 0.0
H1462 H 0.0455 0.40082 0.92475 0.0
H1463 H 0.05348 0.40148 0.95689 0.0
C1464 C 0.66941 0.75828 0.2598 0.0
C1465 C 0.69268 0.7715 0.26733 0.0
C1466 C 0.64861 0.75615 0.27425 0.0
C1467 C 0.65112 0.7675 0.29678 0.0
C1468 C 0.6749 0.77965 0.30507 0.0
C1469 C 0.69537 0.78152 0.29025 0.0
C1470 C 0.62359 0.74306 0.26471 0.0
C1471 C 0.67844 0.7919 0.32902 0.0
C1472 C 0.59431 0.7924 0.31672 0.0
C1473 C 0.58522 0.77441 0.33476 0.0
C1474 C 0.61563 0.79025 0.30434 0.0
C1475 C 0.6284 0.76957 0.31003 0.0
C1476 C 0.61945 0.75128 0.32821 0.0
C1477 C 0.59793 0.75391 0.34038 0.0
C1478 C 0.62451 0.81021 0.2851 0.0
C1479 C 0.6326 0.72899 0.33476 0.0
H1480 H 0.66713 0.75061 0.24206 0.0
H1481 H 0.71341 0.79136 0.29638 0.0
H1482 H 0.6146 0.72992 0.27894 0.0
H1483 H 0.61089 0.75702 0.25966 0.0
H1484 H 0.62537 0.73261 0.24847 0.0
H1485 H 0.69855 0.79795 0.33417 0.0
H1486 H 0.66867 0.8085 0.32777 0.0
H1487 H 0.67003 0.77895 0.3437 0.0
H1488 H 0.58472 0.80834 0.31217 0.0
H1489 H 0.59107 0.73991 0.35426 0.0
H1490 H 0.62477 0.80179 0.2674 0.0
H1491 H 0.64396 0.81894 0.28994 0.0
H1492 H 0.61241 0.82507 0.28279 0.0
H1493 H 0.63303 0.71819 0.3185 0.0
H1494 H 0.62333 0.71644 0.3493 0.0
H1495 H 0.65235 0.73527 0.34094 0.0
C1496 C 0.00478 0.09025 0.99566 0.0
C1497 C 0.02767 0.08354 0.00517 0.0
C1498 C 0.00403 0.11009 0.97806 0.0
C1499 C 0.02672 0.12361 0.96971 0.0
C1500 C 0.0499 0.11677 0.97903 0.0
C1501 C 0.05009 0.09683 0.99661 0.0
C1502 C 0.97892 0.11667 0.96851 0.0
C1503 C 0.07451 0.13075 0.97067 0.0
C1504 C 0.02467 0.16198 0.90945 0.0
C1505 C 0.02478 0.18611 0.9171 0.0
C1506 C 0.02536 0.14151 0.92634 0.0
C1507 C 0.02621 0.14518 0.95152 0.0
C1508 C 0.02639 0.16948 0.95937 0.0
C1509 C 0.02566 0.18961 0.94209 0.0
C1510 C 0.02512 0.11591 0.91722 0.0
C1511 C 0.02729 0.17422 0.98604 0.0
H1512 H 0.98736 0.07986 0.00188 0.0
H1513 H 0.06787 0.09197 0.00404 0.0
H1514 H 0.97755 0.13612 0.97254 0.0
H1515 H 0.97706 0.11566 0.94849 0.0
H1516 H 0.96299 0.10409 0.97658 0.0
H1517 H 0.09089 0.12275 0.97925 0.0
H1518 H 0.07507 0.13045 0.95066 0.0
H1519 H 0.07634 0.15056 0.9751 0.0
H1520 H 0.024 0.15904 0.89021 0.0
H1521 H 0.02577 0.20814 0.94824 0.0
H1522 H 0.00859 0.10308 0.92377 0.0
H1523 H 0.04207 0.10814 0.92456 0.0
H1524 H 0.02453 0.11616 0.89708 0.0
H1525 H 0.01078 0.1632 0.99462 0.0
H1526 H 0.02752 0.19422 0.98918 0.0
H1527 H 0.04427 0.16803 0.99534 0.0
C1528 C 0.3708 0.27908 0.26689 0.0
C1529 C 0.3656 0.3024 0.27266 0.0
C1530 C 0.38542 0.27686 0.24726 0.0
C1531 C 0.39501 0.2985 0.23309 0.0
C1532 C 0.39029 0.32217 0.23921 0.0
C1533 C 0.37546 0.32381 0.25885 0.0
C1534 C 0.38988 0.25128 0.2412 0.0
C1535 C 0.40025 0.34568 0.22459 0.0
C1536 C 0.44706 0.29453 0.19086 0.0
C1537 C 0.43357 0.29166 0.16843 0.0
C1538 C 0.43481 0.2969 0.21209 0.0
C1539 C 0.40846 0.29618 0.21087 0.0
C1540 C 0.39475 0.29314 0.18833 0.0
C1541 C 0.40746 0.29101 0.16741 0.0
C1542 C 0.45004 0.30026 0.2358 0.0
C1543 C 0.36659 0.29209 0.18631 0.0
H1544 H 0.36299 0.26248 0.27743 0.0
H1545 H 0.37119 0.3418 0.2632 0.0
H1546 H 0.38074 0.24678 0.22317 0.0
H1547 H 0.41024 0.25092 0.24002 0.0
H1548 H 0.3824 0.23652 0.25486 0.0
H1549 H 0.39647 0.36274 0.23279 0.0
H1550 H 0.42078 0.3469 0.223 0.0
H1551 H 0.39143 0.34523 0.20591 0.0
H1552 H 0.46724 0.29512 0.19181 0.0
H1553 H 0.39684 0.28871 0.15021 0.0
H1554 H 0.4435 0.28493 0.24925 0.0
H1555 H 0.44732 0.31797 0.24339 0.0
H1556 H 0.4704 0.30056 0.23367 0.0
H1557 H 0.35765 0.27652 0.19836 0.0
H1558 H 0.3587 0.28945 0.16746 0.0
H1559 H 0.36143 0.30957 0.1924 0.0
C1560 C 0.56683 0.45285 0.02119 0.0
C1561 C 0.56642 0.4502 0.9961 0.0
C1562 C 0.55658 0.4331 0.03697 0.0
C1563 C 0.54596 0.41009 0.02741 0.0
C1564 C 0.54606 0.40715 0.00215 0.0
C1565 C 0.55613 0.42731 0.98677 0.0
C1566 C 0.55648 0.43706 0.06373 0.0
C1567 C 0.53518 0.38282 0.9913 0.0
C1568 C 0.53424 0.35133 0.06913 0.0
C1569 C 0.50825 0.3489 0.07136 0.0
C1570 C 0.54692 0.37139 0.05516 0.0
C1571 C 0.53332 0.38956 0.04352 0.0
C1572 C 0.50726 0.38765 0.04647 0.0
C1573 C 0.49503 0.36727 0.06019 0.0
C1574 C 0.57469 0.37271 0.05223 0.0
C1575 C 0.49215 0.40686 0.03469 0.0
H1576 H 0.57462 0.47061 0.0284 0.0
H1577 H 0.55609 0.42516 0.96741 0.0
H1578 H 0.53685 0.4354 0.06922 0.0
H1579 H 0.56532 0.42248 0.07455 0.0
H1580 H 0.56656 0.45565 0.06842 0.0
H1581 H 0.53813 0.3831 0.97157 0.0
H1582 H 0.54379 0.36727 0.00069 0.0
H1583 H 0.51473 0.37882 0.99395 0.0
H1584 H 0.54454 0.33716 0.07767 0.0
H1585 H 0.47498 0.36565 0.06203 0.0
H1586 H 0.58482 0.39105 0.05748 0.0
H1587 H 0.57812 0.37097 0.03288 0.0
H1588 H 0.58275 0.35776 0.06335 0.0
H1589 H 0.50069 0.4258 0.0398 0.0
H1590 H 0.47235 0.40344 0.03995 0.0
H1591 H 0.4923 0.40666 0.01464 0.0
C1592 C 0.66889 0.26056 0.21891 0.0
C1593 C 0.66562 0.25519 0.2438 0.0
C1594 C 0.64886 0.26603 0.20302 0.0
C1595 C 0.62499 0.26606 0.21225 0.0
C1596 C 0.62147 0.26018 0.23726 0.0
C1597 C 0.6418 0.25482 0.25271 0.0
C1598 C 0.65335 0.27223 0.17647 0.0
C1599 C 0.59627 0.25984 0.24778 0.0
C1600 C 0.57869 0.30373 0.17816 0.0
C1601 C 0.56214 0.28517 0.16657 0.0
C1602 C 0.59943 0.29782 0.19277 0.0
C1603 C 0.60374 0.27272 0.19589 0.0
C1604 C 0.58731 0.25394 0.18401 0.0
C1605 C 0.56673 0.26038 0.16949 0.0
C1606 C 0.61655 0.31838 0.20512 0.0
C1607 C 0.59127 0.22697 0.18691 0.0
H1608 H 0.6873 0.2611 0.21195 0.0
H1609 H 0.63905 0.25029 0.27185 0.0
H1610 H 0.64004 0.25964 0.16512 0.0
H1611 H 0.64987 0.29155 0.1714 0.0
H1612 H 0.67278 0.2706 0.17203 0.0
H1613 H 0.59653 0.25437 0.26752 0.0
H1614 H 0.59046 0.27858 0.24498 0.0
H1615 H 0.58183 0.24661 0.23827 0.0
H1616 H 0.57536 0.32294 0.17599 0.0
H1617 H 0.55409 0.24589 0.16059 0.0
H1618 H 0.63616 0.31866 0.20011 0.0
H1619 H 0.61622 0.31488 0.22512 0.0
H1620 H 0.61107 0.33704 0.20024 0.0
H1621 H 0.6103 0.22513 0.18149 0.0
H1622 H 0.57723 0.21472 0.17587 0.0
H1623 H 0.59005 0.22024 0.20626 0.0
C1624 C 0.48223 0.11445 0.03053 0.0
C1625 C 0.45882 0.10188 0.02235 0.0
C1626 C 0.48425 0.13717 0.04164 0.0
C1627 C 0.46226 0.14709 0.04574 0.0
C1628 C 0.43851 0.13401 0.03865 0.0
C1629 C 0.4371 0.1119 0.02659 0.0
C1630 C 0.50996 0.15093 0.04834 0.0
C1631 C 0.41457 0.1436 0.04339 0.0
C1632 C 0.46752 0.19684 0.09169 0.0
C1633 C 0.4668 0.21837 0.07643 0.0
C1634 C 0.46566 0.17337 0.08198 0.0
C1635 C 0.46411 0.1717 0.05644 0.0
C1636 C 0.46411 0.19359 0.041 0.0
C1637 C 0.46491 0.21663 0.05122 0.0
C1638 C 0.46473 0.15036 0.099 0.0
C1639 C 0.46344 0.19271 0.01371 0.0
H1640 H 0.49916 0.10672 0.0281 0.0
H1641 H 0.41889 0.10284 0.02006 0.0
H1642 H 0.51253 0.16965 0.03868 0.0
H1643 H 0.51184 0.1538 0.06807 0.0
H1644 H 0.52524 0.14081 0.04368 0.0
H1645 H 0.39763 0.1299 0.03919 0.0
H1646 H 0.41462 0.14811 0.06268 0.0
H1647 H 0.41319 0.16104 0.03209 0.0
H1648 H 0.46877 0.19829 0.11121 0.0
H1649 H 0.46456 0.23341 0.03949 0.0
H1650 H 0.48054 0.14028 0.09607 0.0
H1651 H 0.44714 0.13745 0.09513 0.0
H1652 H 0.46561 0.15483 0.11838 0.0
H1653 H 0.47897 0.18335 0.00838 0.0
H1654 H 0.4651 0.2116 0.00437 0.0
H1655 H 0.44562 0.18164 0.00715 0.0
C1656 C 0.25135 0.35133 0.72804 0.0
C1657 C 0.2639 0.33051 0.73132 0.0
C1658 C 0.26456 0.37562 0.72867 0.0
C1659 C 0.29094 0.37917 0.733 0.0
C1660 C 0.30383 0.35824 0.73507 0.0
C1661 C 0.29014 0.33413 0.73407 0.0
C1662 C 0.25009 0.3974 0.72608 0.0
C1663 C 0.3319 0.36119 0.73991 0.0
C1664 C 0.32663 0.44536 0.72636 0.0
C1665 C 0.32727 0.45272 0.75027 0.0
C1666 C 0.31512 0.42133 0.72036 0.0
C1667 C 0.30437 0.4043 0.73876 0.0
C1668 C 0.30558 0.4115 0.76298 0.0
C1669 C 0.31685 0.43558 0.76837 0.0
C1670 C 0.31397 0.41435 0.69431 0.0
C1671 C 0.29464 0.39387 0.78324 0.0
H1672 H 0.23107 0.34858 0.7255 0.0
H1673 H 0.29988 0.31806 0.73666 0.0
H1674 H 0.25033 0.40572 0.7439 0.0
H1675 H 0.259 0.41211 0.71313 0.0
H1676 H 0.23025 0.39177 0.71971 0.0
H1677 H 0.33942 0.34357 0.73792 0.0
H1678 H 0.34143 0.37594 0.72738 0.0
H1679 H 0.33669 0.36705 0.75869 0.0
H1680 H 0.33464 0.4585 0.71229 0.0
H1681 H 0.31749 0.44095 0.78696 0.0
H1682 H 0.29412 0.4107 0.68736 0.0
H1683 H 0.32202 0.39692 0.69311 0.0
H1684 H 0.32422 0.42924 0.68236 0.0
H1685 H 0.27409 0.389 0.77973 0.0
H1686 H 0.29814 0.402 0.80127 0.0
H1687 H 0.30278 0.37628 0.78399 0.0
C1688 C 0.26645 0.68371 0.73262 0.0
C1689 C 0.27396 0.69945 0.75164 0.0
C1690 C 0.27733 0.66207 0.73059 0.0
C1691 C 0.29597 0.65591 0.74818 0.0
C1692 C 0.30382 0.67199 0.76725 0.0
C1693 C 0.29261 0.69347 0.76882 0.0
C1694 C 0.26829 0.6454 0.7101 0.0
C1695 C 0.32349 0.66607 0.78648 0.0
C1696 C 0.30323 0.5882 0.76335 0.0
C1697 C 0.32555 0.58613 0.75242 0.0
C1698 C 0.29306 0.61051 0.76138 0.0
C1699 C 0.30547 0.63151 0.74817 0.0
C1700 C 0.32747 0.62936 0.73621 0.0
C1701 C 0.33724 0.60664 0.73841 0.0
C1702 C 0.26946 0.61182 0.77425 0.0
C1703 C 0.34118 0.65132 0.72189 0.0
H1704 H 0.2518 0.68819 0.7195 0.0
H1705 H 0.2982 0.70548 0.7837 0.0
H1706 H 0.28445 0.64125 0.70047 0.0
H1707 H 0.25834 0.62737 0.71754 0.0
H1708 H 0.25535 0.65389 0.69675 0.0
H1709 H 0.32886 0.68136 0.79901 0.0
H1710 H 0.31628 0.64881 0.79731 0.0
H1711 H 0.34054 0.66257 0.77789 0.0
H1712 H 0.29387 0.57241 0.77401 0.0
H1713 H 0.35449 0.60524 0.72995 0.0
H1714 H 0.25514 0.61871 0.76136 0.0
H1715 H 0.27367 0.62521 0.78876 0.0
H1716 H 0.2613 0.59343 0.78259 0.0
H1717 H 0.32804 0.65945 0.70854 0.0
H1718 H 0.35677 0.64614 0.71207 0.0
H1719 H 0.34902 0.66607 0.73435 0.0
C1720 C 0.89873 0.5162 0.51658 0.0
C1721 C 0.90986 0.52531 0.49487 0.0
C1722 C 0.87856 0.49658 0.5168 0.0
C1723 C 0.8692 0.48596 0.49473 0.0
C1724 C 0.8797 0.49579 0.47262 0.0
C1725 C 0.89999 0.51528 0.47297 0.0
C1726 C 0.86804 0.48648 0.54077 0.0
C1727 C 0.87008 0.48513 0.4487 0.0
C1728 C 0.84003 0.41793 0.49829 0.0
C1729 C 0.81427 0.41945 0.4967 0.0
C1730 C 0.85799 0.43943 0.4976 0.0
C1731 C 0.85009 0.46315 0.49508 0.0
C1732 C 0.82414 0.46491 0.4932 0.0
C1733 C 0.80651 0.44301 0.49414 0.0
C1734 C 0.88548 0.43674 0.49981 0.0
C1735 C 0.81506 0.48991 0.49029 0.0
H1736 H 0.90644 0.52377 0.53357 0.0
H1737 H 0.90834 0.52253 0.45611 0.0
H1738 H 0.84735 0.48551 0.5398 0.0
H1739 H 0.87221 0.46723 0.54486 0.0
H1740 H 0.87603 0.49805 0.55601 0.0
H1741 H 0.87866 0.49635 0.43297 0.0
H1742 H 0.87433 0.46583 0.44838 0.0
H1743 H 0.84941 0.48415 0.44651 0.0
H1744 H 0.84626 0.39984 0.50034 0.0
H1745 H 0.78666 0.44437 0.49283 0.0
H1746 H 0.89466 0.44631 0.51586 0.0
H1747 H 0.89499 0.44578 0.48358 0.0
H1748 H 0.8885 0.41693 0.5017 0.0
H1749 H 0.82187 0.50097 0.50616 0.0
H1750 H 0.79428 0.48809 0.48855 0.0
H1751 H 0.82285 0.5006 0.47395 0.0
C1752 C 0.78479 0.86065 0.87193 0.0
C1753 C 0.8061 0.86768 0.85823 0.0
C1754 C 0.76376 0.87297 0.86822 0.0
C1755 C 0.76338 0.89206 0.84956 0.0
C1756 C 0.78479 0.89957 0.83586 0.0
C1757 C 0.80606 0.8877 0.84073 0.0
C1758 C 0.74159 0.86492 0.88377 0.0
C1759 C 0.78486 0.91937 0.81532 0.0
C1760 C 0.69823 0.89954 0.82325 0.0
C1761 C 0.69431 0.92152 0.8332 0.0
C1762 C 0.72104 0.89032 0.8277 0.0
C1763 C 0.73992 0.90283 0.84334 0.0
C1764 C 0.73592 0.925 0.85359 0.0
C1765 C 0.71328 0.9344 0.84796 0.0
C1766 C 0.7249 0.86714 0.81571 0.0
C1767 C 0.75515 0.9383 0.87111 0.0
H1768 H 0.784 0.84494 0.88512 0.0
H1769 H 0.82248 0.89388 0.83039 0.0
H1770 H 0.73506 0.88142 0.89061 0.0
H1771 H 0.72579 0.85501 0.87274 0.0
H1772 H 0.74613 0.8523 0.89954 0.0
H1773 H 0.80326 0.92362 0.80684 0.0
H1774 H 0.77025 0.91304 0.80114 0.0
H1775 H 0.78016 0.93682 0.82191 0.0
H1776 H 0.68355 0.88979 0.81163 0.0
H1777 H 0.71006 0.95134 0.85572 0.0
H1778 H 0.72652 0.85175 0.82967 0.0
H1779 H 0.74266 0.87062 0.8061 0.0
H1780 H 0.70924 0.8609 0.80247 0.0
H1781 H 0.75823 0.92564 0.88727 0.0
H1782 H 0.74929 0.95547 0.87725 0.0
H1783 H 0.7734 0.94341 0.86256 0.0
C1784 C 0.6555 0.50676 0.98325 0.0
C1785 C 0.63563 0.51928 0.97439 0.0
C1786 C 0.67963 0.51981 0.98783 0.0
C1787 C 0.68407 0.546 0.9832 0.0
C1788 C 0.66407 0.55881 0.97455 0.0
C1789 C 0.64007 0.54531 0.97037 0.0
C1790 C 0.70049 0.50552 0.99716 0.0
C1791 C 0.66812 0.58672 0.96932 0.0
C1792 C 0.74317 0.58237 0.01164 0.0
C1793 C 0.75945 0.58475 0.99254 0.0
C1794 C 0.7185 0.5699 0.00886 0.0
C1795 C 0.70989 0.5598 0.98638 0.0
C1796 C 0.72609 0.56251 0.96692 0.0
C1797 C 0.7507 0.57485 0.97026 0.0
C1798 C 0.70178 0.56719 0.03008 0.0
C1799 C 0.71749 0.55223 0.94258 0.0
H1800 H 0.65234 0.48663 0.98612 0.0
H1801 H 0.62473 0.55518 0.96394 0.0
H1802 H 0.71495 0.50724 0.9835 0.0
H1803 H 0.70976 0.51347 0.01396 0.0
H1804 H 0.69364 0.4854 0.00112 0.0
H1805 H 0.65045 0.59395 0.96327 0.0
H1806 H 0.67623 0.59621 0.98577 0.0
H1807 H 0.68175 0.5918 0.95494 0.0
H1808 H 0.7498 0.58992 0.02893 0.0
H1809 H 0.76309 0.57672 0.95535 0.0
H1810 H 0.69606 0.54714 0.03525 0.0
H1811 H 0.68441 0.57524 0.02487 0.0
H1812 H 0.71118 0.57651 0.0462 0.0
H1813 H 0.71219 0.53169 0.94474 0.0
H1814 H 0.7322 0.55652 0.9291 0.0
H1815 H 0.70058 0.56006 0.93522 0.0
C1816 C 0.22722 0.65843 0.27052 0.0
C1817 C 0.25308 0.65997 0.268 0.0
C1818 C 0.21267 0.63575 0.27772 0.0
C1819 C 0.22428 0.61414 0.28241 0.0
C1820 C 0.25031 0.61552 0.27952 0.0
C1821 C 0.26439 0.63841 0.27236 0.0
C1822 C 0.18497 0.63499 0.28067 0.0
C1823 C 0.26334 0.59284 0.28419 0.0
C1824 C 0.1937 0.56102 0.32377 0.0
C1825 C 0.18233 0.54396 0.307 0.0
C1826 C 0.20716 0.58405 0.31599 0.0
C1827 C 0.20937 0.59015 0.29083 0.0
C1828 C 0.19783 0.5731 0.27379 0.0
C1829 C 0.18443 0.55021 0.28207 0.0
C1830 C 0.21919 0.60178 0.3347 0.0
C1831 C 0.19984 0.57894 0.24681 0.0
H1832 H 0.21845 0.67509 0.26736 0.0
H1833 H 0.2843 0.63943 0.27004 0.0
H1834 H 0.174 0.62079 0.26918 0.0
H1835 H 0.18054 0.62945 0.29979 0.0
H1836 H 0.17869 0.65329 0.27568 0.0
H1837 H 0.28361 0.59697 0.28065 0.0
H1838 H 0.2614 0.58558 0.30334 0.0
H1839 H 0.25439 0.57781 0.27251 0.0
H1840 H 0.19212 0.55639 0.34305 0.0
H1841 H 0.17569 0.53716 0.26898 0.0
H1842 H 0.21231 0.61999 0.33147 0.0
H1843 H 0.23981 0.60528 0.33305 0.0
H1844 H 0.21524 0.59447 0.35355 0.0
H1845 H 0.19244 0.59657 0.24138 0.0
H1846 H 0.18939 0.56388 0.23593 0.0
H1847 H 0.21981 0.58174 0.24223 0.0
C1848 C 0.96332 0.50762 0.08909 0.0
C1849 C 0.95504 0.48298 0.08298 0.0
C1850 C 0.94891 0.52661 0.08235 0.0
C1851 C 0.92557 0.52076 0.06934 0.0
C1852 C 0.91667 0.49573 0.06397 0.0
C1853 C 0.9316 0.47715 0.07072 0.0
C1854 C 0.95918 0.55309 0.08817 0.0
C1855 C 0.89174 0.4887 0.05037 0.0
C1856 C 0.87893 0.56699 0.06222 0.0
C1857 C 0.8825 0.57667 0.03831 0.0
C1858 C 0.89316 0.54907 0.07286 0.0
C1859 C 0.91155 0.54103 0.05934 0.0
C1860 C 0.91597 0.55163 0.03562 0.0
C1861 C 0.9013 0.56917 0.02536 0.0
C1862 C 0.88783 0.53805 0.09814 0.0
C1863 C 0.9357 0.5439 0.02074 0.0
H1864 H 0.98156 0.51223 0.09837 0.0
H1865 H 0.92504 0.45807 0.06623 0.0
H1866 H 0.96359 0.56441 0.07108 0.0
H1867 H 0.94499 0.56162 0.09703 0.0
H1868 H 0.9765 0.5542 0.10024 0.0
H1869 H 0.88653 0.46819 0.04953 0.0
H1870 H 0.87673 0.49611 0.05914 0.0
H1871 H 0.89256 0.49717 0.03154 0.0
H1872 H 0.86433 0.57261 0.07226 0.0
H1873 H 0.90429 0.57676 0.00694 0.0
H1874 H 0.90541 0.53934 0.10977 0.0
H1875 H 0.88015 0.51797 0.09734 0.0
H1876 H 0.87417 0.5475 0.10685 0.0
H1877 H 0.9541 0.54594 0.03109 0.0
H1878 H 0.93786 0.55507 0.00321 0.0
H1879 H 0.93062 0.52395 0.01686 0.0
C1880 C 0.08272 0.96879 0.00313 0.0
C1881 C 0.07634 0.97416 0.02621 0.0
C1882 C 0.10202 0.9547 0.00037 0.0
C1883 C 0.11534 0.94575 0.02121 0.0
C1884 C 0.10943 0.95173 0.04454 0.0
C1885 C 0.08994 0.96579 0.04676 0.0
C1886 C 0.10763 0.94874 0.97518 0.0
C1887 C 0.12323 0.94272 0.06721 0.0
C1888 C 0.14543 0.88738 0.01636 0.0
C1889 C 0.17068 0.89731 0.01336 0.0
C1890 C 0.12732 0.90292 0.01891 0.0
C1891 C 0.13455 0.92911 0.01862 0.0
C1892 C 0.16001 0.93928 0.01563 0.0
C1893 C 0.17773 0.9233 0.01297 0.0
C1894 C 0.10038 0.89127 0.02189 0.0
C1895 C 0.16854 0.96707 0.01533 0.0
H1896 H 0.07219 0.97515 0.98719 0.0
H1897 H 0.08494 0.96983 0.06461 0.0
H1898 H 0.12783 0.95453 0.97209 0.0
H1899 H 0.10348 0.9283 0.97334 0.0
H1900 H 0.09644 0.95809 0.9608 0.0
H1901 H 0.11746 0.95022 0.08385 0.0
H1902 H 0.11958 0.92205 0.06917 0.0
H1903 H 0.14375 0.94825 0.06583 0.0
H1904 H 0.13973 0.86737 0.01667 0.0
H1905 H 0.19718 0.93119 0.01075 0.0
H1906 H 0.08818 0.89856 0.00707 0.0
H1907 H 0.09391 0.89638 0.03928 0.0
H1908 H 0.09777 0.87062 0.02169 0.0
H1909 H 0.15837 0.97659 0.0003 0.0
H1910 H 0.18901 0.97204 0.01304 0.0
H1911 H 0.16399 0.97439 0.03251 0.0
loop_
_geom_bond_atom_site_label_1
_geom_bond_atom_site_label_2
_geom_bond_distance
_geom_bond_site_symmetry_2
_ccdc_geom_bond_type
H0 C7 0.929 1_655 S
H1 C10 0.930 . S
H2 C12 0.929 . S
H3 C4 0.969 . S
C4 H3 0.969 . S
C4 O5 1.550 1_565 S
C4 H6 0.973 . S
O5 C4 1.550 1_545 S
O5 C11 1.412 . S
H6 C4 0.973 . S
C7 H0 0.929 1_455 S
C7 C8 1.400 . S
C7 C9 1.364 . S
C8 C7 1.400 . S
C8 C12 1.377 . S
C9 C7 1.364 . S
C9 C10 1.374 . S
C10 H1 0.930 . S
C10 C9 1.374 . S
C10 C11 1.383 . S
C11 O5 1.412 . S
C11 C10 1.383 . S
C11 C12 1.394 . S
C12 H2 0.929 . S
C12 C8 1.377 . S
C12 C11 1.394 . S
H13 C20 0.929 . S
H14 C23 0.930 . S
H15 C25 0.929 . S
H16 C17 0.969 . S
C17 H16 0.969 . S
C17 O18 1.550 . S
C17 H19 0.973 . S
O18 C17 1.550 . S
O18 C24 1.412 . S
H19 C17 0.973 . S
C20 H13 0.929 . S
C20 C21 1.400 . S
C20 C22 1.364 . S
C21 C20 1.400 . S
C21 C25 1.377 . S
C22 C20 1.364 . S
C22 C23 1.374 . S
C23 H14 0.930 . S
C23 C22 1.374 . S
C23 C24 1.383 . S
C24 O18 1.412 . S
C24 C23 1.383 . S
C24 C25 1.394 . S
C25 H15 0.929 . S
C25 C21 1.377 . S
C25 C24 1.394 . S
H26 C33 0.929 . S
H27 C36 0.930 . S
H28 C38 0.929 . S
H29 C30 0.969 . S
C30 H29 0.969 . S
C30 O31 1.550 . S
C30 H32 0.973 . S
O31 C30 1.550 . S
O31 C37 1.412 . S
H32 C30 0.973 . S
C33 H26 0.929 . S
C33 C34 1.400 . S
C33 C35 1.364 . S
C34 C33 1.400 . S
C34 C38 1.377 . S
C35 C33 1.364 . S
C35 C36 1.374 . S
C36 H27 0.930 . S
C36 C35 1.374 . S
C36 C37 1.383 . S
C37 O31 1.412 . S
C37 C36 1.383 . S
C37 C38 1.394 . S
C38 H28 0.929 . S
C38 C34 1.377 . S
C38 C37 1.394 . S
H39 C46 0.929 . S
H40 C49 0.930 . S
H41 C51 0.929 . S
H42 C43 0.969 . S
C43 H42 0.969 . S
C43 O44 1.550 . S
C43 H45 0.973 . S
O44 C43 1.550 . S
O44 C50 1.412 . S
H45 C43 0.973 . S
C46 H39 0.929 . S
C46 C47 1.400 . S
C46 C48 1.364 . S
C47 C46 1.400 . S
C47 C51 1.377 . S
C48 C46 1.364 . S
C48 C49 1.374 . S
C49 H40 0.930 . S
C49 C48 1.374 . S
C49 C50 1.383 . S
C50 O44 1.412 . S
C50 C49 1.383 . S
C50 C51 1.394 . S
C51 H41 0.929 . S
C51 C47 1.377 . S
C51 C50 1.394 . S
H52 C59 0.929 . S
H53 C62 0.930 . S
H54 C64 0.929 . S
H55 C56 0.969 . S
C56 H55 0.969 . S
C56 O57 1.550 . S
C56 H58 0.973 . S
O57 C56 1.550 . S
O57 C63 1.412 . S
H58 C56 0.973 . S
C59 H52 0.929 . S
C59 C60 1.400 . S
C59 C61 1.364 . S
C60 C59 1.400 . S
C60 C64 1.377 . S
C61 C59 1.364 . S
C61 C62 1.374 . S
C62 H53 0.930 . S
C62 C61 1.374 . S
C62 C63 1.383 . S
C63 O57 1.412 . S
C63 C62 1.383 . S
C63 C64 1.394 . S
C64 H54 0.929 . S
C64 C60 1.377 . S
C64 C63 1.394 . S
H65 C72 0.929 . S
H66 C75 0.930 . S
H67 C77 0.929 . S
H68 C69 0.969 . S
C69 H68 0.969 . S
C69 O70 1.550 . S
C69 H71 0.973 . S
O70 C69 1.550 . S
O70 C76 1.412 . S
H71 C69 0.973 . S
C72 H65 0.929 . S
C72 C73 1.400 . S
C72 C74 1.364 . S
C73 C72 1.400 . S
C73 C77 1.377 . S
C74 C72 1.364 . S
C74 C75 1.374 . S
C75 H66 0.930 . S
C75 C74 1.374 . S
C75 C76 1.383 . S
C76 O70 1.412 . S
C76 C75 1.383 . S
C76 C77 1.394 . S
C77 H67 0.929 . S
C77 C73 1.377 . S
C77 C76 1.394 . S
H78 C85 0.929 . S
H79 C88 0.930 . S
H80 C90 0.929 1_455 S
H81 C82 0.969 1_655 S
C82 H81 0.969 1_455 S
C82 O83 1.550 . S
C82 H84 0.973 1_455 S
O83 C82 1.550 . S
O83 C89 1.412 1_455 S
H84 C82 0.973 1_655 S
C85 H78 0.929 . S
C85 C86 1.400 . S
C85 C87 1.364 . S
C86 C85 1.400 . S
C86 C90 1.377 . S
C87 C85 1.364 . S
C87 C88 1.374 . S
C88 H79 0.930 . S
C88 C87 1.374 . S
C88 C89 1.383 . S
C89 O83 1.412 1_655 S
C89 C88 1.383 . S
C89 C90 1.394 . S
C90 H80 0.929 1_655 S
C90 C86 1.377 . S
C90 C89 1.394 . S
H91 C98 0.929 . S
H92 C101 0.930 . S
H93 C103 0.929 . S
H94 C95 0.969 . S
C95 H94 0.969 . S
C95 O96 1.550 . S
C95 H97 0.973 . S
O96 C95 1.550 . S
O96 C102 1.412 . S
H97 C95 0.973 . S
C98 H91 0.929 . S
C98 C99 1.400 . S
C98 C100 1.364 . S
C99 C98 1.400 . S
C99 C103 1.377 . S
C100 C98 1.364 . S
C100 C101 1.374 . S
C101 H92 0.930 . S
C101 C100 1.374 . S
C101 C102 1.383 . S
C102 O96 1.412 . S
C102 C101 1.383 . S
C102 C103 1.394 . S
C103 H93 0.929 . S
C103 C99 1.377 . S
C103 C102 1.394 . S
H104 C111 0.929 . S
H105 C114 0.930 . S
H106 C116 0.929 . S
H107 C108 0.969 . S
C108 H107 0.969 . S
C108 O109 1.550 . S
C108 H110 0.973 . S
O109 C108 1.550 . S
O109 C115 1.412 . S
H110 C108 0.973 . S
C111 H104 0.929 . S
C111 C112 1.400 . S
C111 C113 1.364 . S
C112 C111 1.400 . S
C112 C116 1.377 . S
C113 C111 1.364 . S
C113 C114 1.374 . S
C114 H105 0.930 . S
C114 C113 1.374 . S
C114 C115 1.383 . S
C115 O109 1.412 . S
C115 C114 1.383 . S
C115 C116 1.394 . S
C116 H106 0.929 . S
C116 C112 1.377 . S
C116 C115 1.394 . S
H117 C124 0.929 . S
H118 C127 0.930 . S
H119 C129 0.929 . S
H120 C121 0.969 . S
C121 H120 0.969 . S
C121 O122 1.550 . S
C121 H123 0.973 . S
O122 C121 1.550 . S
O122 C128 1.412 . S
H123 C121 0.973 . S
C124 H117 0.929 . S
C124 C125 1.400 . S
C124 C126 1.364 . S
C125 C124 1.400 . S
C125 C129 1.377 . S
C126 C124 1.364 . S
C126 C127 1.374 . S
C127 H118 0.930 . S
C127 C126 1.374 . S
C127 C128 1.383 . S
C128 O122 1.412 . S
C128 C127 1.383 . S
C128 C129 1.394 . S
C129 H119 0.929 . S
C129 C125 1.377 . S
C129 C128 1.394 . S
H130 C137 0.929 . S
H131 C140 0.930 . S
H132 C142 0.929 . S
H133 C134 0.969 . S
C134 H133 0.969 . S
C134 O135 1.550 . S
C134 H136 0.973 . S
O135 C134 1.550 . S
O135 C141 1.412 . S
H136 C134 0.973 . S
C137 H130 0.929 . S
C137 C138 1.400 . S
C137 C139 1.364 . S
C138 C137 1.400 . S
C138 C142 1.377 . S
C139 C137 1.364 . S
C139 C140 1.374 . S
C140 H131 0.930 . S
C140 C139 1.374 . S
C140 C141 1.383 . S
C141 O135 1.412 . S
C141 C140 1.383 . S
C141 C142 1.394 . S
C142 H132 0.929 . S
C142 C138 1.377 . S
C142 C141 1.394 . S
H143 C150 0.929 . S
H144 C153 0.930 . S
H145 C155 0.929 . S
H146 C147 0.969 . S
C147 H146 0.969 . S
C147 O148 1.550 . S
C147 H149 0.973 . S
O148 C147 1.550 . S
O148 C154 1.412 . S
H149 C147 0.973 . S
C150 H143 0.929 . S
C150 C151 1.400 . S
C150 C152 1.364 . S
C151 C150 1.400 . S
C151 C155 1.377 . S
C152 C150 1.364 . S
C152 C153 1.374 . S
C153 H144 0.930 . S
C153 C152 1.374 . S
C153 C154 1.383 . S
C154 O148 1.412 . S
C154 C153 1.383 . S
C154 C155 1.394 . S
C155 H145 0.929 . S
C155 C151 1.377 . S
C155 C154 1.394 . S
H156 C163 0.929 . S
H157 C166 0.930 . S
H158 C168 0.929 . S
H159 C160 0.969 . S
C160 H159 0.969 . S
C160 O161 1.550 . S
C160 H162 0.973 . S
O161 C160 1.550 . S
O161 C167 1.412 . S
H162 C160 0.973 . S
C163 H156 0.929 . S
C163 C164 1.400 . S
C163 C165 1.364 . S
C164 C163 1.400 . S
C164 C168 1.377 . S
C165 C163 1.364 . S
C165 C166 1.374 . S
C166 H157 0.930 . S
C166 C165 1.374 . S
C166 C167 1.383 . S
C167 O161 1.412 . S
C167 C166 1.383 . S
C167 C168 1.394 . S
C168 H158 0.929 . S
C168 C164 1.377 . S
C168 C167 1.394 . S
H169 C176 0.929 1_554 S
H170 C179 0.930 . S
H171 C181 0.929 . S
H172 C173 0.969 . S
C173 H172 0.969 . S
C173 O174 1.550 . S
C173 H175 0.973 . S
O174 C173 1.550 . S
O174 C180 1.412 . S
H175 C173 0.973 . S
C176 H169 0.929 1_556 S
C176 C177 1.400 . S
C176 C178 1.364 . S
C177 C176 1.400 . S
C177 C181 1.377 . S
C178 C176 1.364 . S
C178 C179 1.374 . S
C179 H170 0.930 . S
C179 C178 1.374 . S
C179 C180 1.383 . S
C180 O174 1.412 . S
C180 C179 1.383 . S
C180 C181 1.394 . S
C181 H171 0.929 . S
C181 C177 1.377 . S
C181 C180 1.394 . S
H182 C189 0.929 . S
H183 C192 0.930 . S
H184 C194 0.929 . S
H185 C186 0.969 . S
C186 H185 0.969 . S
C186 O187 1.550 . S
C186 H188 0.973 . S
O187 C186 1.550 . S
O187 C193 1.412 . S
H188 C186 0.973 . S
C189 H182 0.929 . S
C189 C190 1.400 . S
C189 C191 1.364 . S
C190 C189 1.400 . S
C190 C194 1.377 . S
C191 C189 1.364 . S
C191 C192 1.374 . S
C192 H183 0.930 . S
C192 C191 1.374 . S
C192 C193 1.383 . S
C193 O187 1.412 . S
C193 C192 1.383 . S
C193 C194 1.394 . S
C194 H184 0.929 . S
C194 C190 1.377 . S
C194 C193 1.394 . S
H195 C202 0.929 1_554 S
H196 C205 0.930 . S
H197 C207 0.929 . S
H198 C199 0.969 . S
C199 H198 0.969 . S
C199 O200 1.550 . S
C199 H201 0.973 . S
O200 C199 1.550 . S
O200 C206 1.412 . S
H201 C199 0.973 . S
C202 H195 0.929 1_556 S
C202 C203 1.400 . S
C202 C204 1.364 . S
C203 C202 1.400 . S
C203 C207 1.377 . S
C204 C202 1.364 . S
C204 C205 1.374 . S
C205 H196 0.930 . S
C205 C204 1.374 . S
C205 C206 1.383 . S
C206 O200 1.412 . S
C206 C205 1.383 . S
C206 C207 1.394 . S
C207 H197 0.929 . S
C207 C203 1.377 . S
C207 C206 1.394 . S
Zn208 O211 2.045 . S
Zn208 O213 2.040 1_554 S
Zn208 O218 2.045 1_554 S
Zn209 O210 1.962 . S
Zn209 O212 1.986 . S
Zn209 O214 1.996 . S
Zn209 O217 1.943 1_554 S
O210 Zn209 1.962 . S
O210 C215 1.254 . S
O211 Zn208 2.045 . S
O211 C215 1.269 . S
O212 Zn209 1.986 . S
O212 C219 1.262 . S
O213 Zn208 2.040 1_556 S
O213 C221 1.260 . S
O214 Zn209 1.996 . S
O214 C221 1.257 1_554 S
C215 O210 1.254 . S
C215 O211 1.269 . S
C216 O217 1.249 . S
C216 O218 1.270 . S
O217 Zn209 1.943 1_556 S
O217 C216 1.249 . S
O218 Zn208 2.045 1_556 S
O218 C216 1.270 . S
C219 O212 1.262 . S
C219 O220 1.232 . S
O220 C219 1.232 . S
C221 O213 1.260 . S
C221 O214 1.257 1_556 S
Zn222 O225 2.031 . S
Zn222 O227 2.049 . S
Zn222 O232 2.067 . S
Zn223 O224 1.962 . S
Zn223 O226 1.986 . S
Zn223 O228 1.996 . S
Zn223 O231 1.943 . S
O224 Zn223 1.962 . S
O224 C229 1.254 . S
O225 Zn222 2.031 . S
O225 C229 1.269 . S
O226 Zn223 1.986 . S
O226 C233 1.262 . S
O227 Zn222 2.049 . S
O227 C235 1.260 . S
O228 Zn223 1.996 . S
O228 C235 1.257 . S
C229 O224 1.254 . S
C229 O225 1.269 . S
C230 O231 1.249 . S
C230 O232 1.270 . S
O231 Zn223 1.943 . S
O231 C230 1.249 . S
O232 Zn222 2.067 . S
O232 C230 1.270 . S
C233 O226 1.262 . S
C233 O234 1.232 . S
O234 C233 1.232 . S
C235 O227 1.260 . S
C235 O228 1.257 . S
Zn236 O239 2.048 . S
Zn236 O241 2.039 1_554 S
Zn236 O246 2.071 . S
Zn237 O238 1.962 . S
Zn237 O240 1.986 . S
Zn237 O242 1.996 . S
Zn237 O245 1.943 . S
O238 Zn237 1.962 . S
O238 C243 1.254 . S
O239 Zn236 2.048 . S
O239 C243 1.269 . S
O240 Zn237 1.986 . S
O240 C247 1.262 . S
O241 Zn236 2.039 1_556 S
O241 C249 1.260 . S
O242 Zn237 1.996 . S
O242 C249 1.257 1_554 S
C243 O238 1.254 . S
C243 O239 1.269 . S
C244 O245 1.249 . S
C244 O246 1.270 . S
O245 Zn237 1.943 . S
O245 C244 1.249 . S
O246 Zn236 2.071 . S
O246 C244 1.270 . S
C247 O240 1.262 . S
C247 O248 1.232 . S
O248 C247 1.232 . S
C249 O241 1.260 . S
C249 O242 1.257 1_556 S
Zn250 O253 2.031 . S
Zn250 O255 2.032 1_545 S
Zn250 O260 2.067 1_545 S
Zn251 O252 1.962 . S
Zn251 O254 1.986 . S
Zn251 O256 1.996 . S
Zn251 O259 1.943 1_545 S
O252 Zn251 1.962 . S
O252 C257 1.254 . S
O253 Zn250 2.031 . S
O253 C257 1.269 . S
O254 Zn251 1.986 . S
O254 C261 1.262 . S
O255 Zn250 2.032 1_565 S
O255 C263 1.254 1_565 S
O256 Zn251 1.996 . S
O256 C263 1.257 . S
C257 O252 1.254 . S
C257 O253 1.269 . S
C258 O259 1.249 . S
C258 O260 1.270 . S
O259 Zn251 1.943 1_565 S
O259 C258 1.249 . S
O260 Zn250 2.067 1_565 S
O260 C258 1.270 . S
C261 O254 1.262 . S
C261 O262 1.232 . S
O262 C261 1.232 . S
C263 O255 1.254 1_545 S
C263 O256 1.257 . S
Zn264 O267 2.031 . S
Zn264 O269 2.049 . S
Zn264 O274 2.067 . S
Zn265 O266 1.962 . S
Zn265 O268 1.986 . S
Zn265 O270 1.996 . S
Zn265 O273 1.943 . S
O266 Zn265 1.962 . S
O266 C271 1.254 . S
O267 Zn264 2.031 . S
O267 C271 1.269 . S
O268 Zn265 1.986 . S
O268 C275 1.262 . S
O269 Zn264 2.049 . S
O269 C277 1.260 . S
O270 Zn265 1.996 . S
O270 C277 1.257 . S
C271 O266 1.254 . S
C271 O267 1.269 . S
C272 O273 1.249 . S
C272 O274 1.270 . S
O273 Zn265 1.943 . S
O273 C272 1.249 . S
O274 Zn264 2.067 . S
O274 C272 1.270 . S
C275 O268 1.262 . S
C275 O276 1.232 . S
O276 C275 1.232 . S
C277 O269 1.260 . S
C277 O270 1.257 . S
Zn278 O281 2.031 . S
Zn278 O283 2.049 . S
Zn278 O288 2.067 . S
Zn279 O280 1.962 . S
Zn279 O282 1.986 . S
Zn279 O284 1.996 . S
Zn279 O287 1.943 . S
O280 Zn279 1.962 . S
O280 C285 1.254 . S
O281 Zn278 2.031 . S
O281 C285 1.269 . S
O282 Zn279 1.986 . S
O282 C289 1.262 . S
O283 Zn278 2.049 . S
O283 C291 1.260 . S
O284 Zn279 1.996 . S
O284 C291 1.257 . S
C285 O280 1.254 . S
C285 O281 1.269 . S
C286 O287 1.249 . S
C286 O288 1.270 . S
O287 Zn279 1.943 . S
O287 C286 1.249 . S
O288 Zn278 2.067 . S
O288 C286 1.270 . S
C289 O282 1.262 . S
C289 O290 1.232 . S
O290 C289 1.232 . S
C291 O283 1.260 . S
C291 O284 1.257 . S
Zn292 O295 2.031 . S
Zn292 O297 2.049 . S
Zn292 O302 2.067 . S
Zn293 O294 1.962 . S
Zn293 O296 1.986 . S
Zn293 O298 1.996 . S
Zn293 O301 1.943 . S
O294 Zn293 1.962 . S
O294 C299 1.254 . S
O295 Zn292 2.031 . S
O295 C299 1.269 . S
O296 Zn293 1.986 . S
O296 C303 1.262 . S
O297 Zn292 2.049 . S
O297 C305 1.260 . S
O298 Zn293 1.996 . S
O298 C305 1.257 . S
C299 O294 1.254 . S
C299 O295 1.269 . S
C300 O301 1.249 . S
C300 O302 1.270 . S
O301 Zn293 1.943 . S
O301 C300 1.249 . S
O302 Zn292 2.067 . S
O302 C300 1.270 . S
C303 O296 1.262 . S
C303 O304 1.232 . S
O304 C303 1.232 . S
C305 O297 1.260 . S
C305 O298 1.257 . S
Zn306 O309 2.031 . S
Zn306 O311 2.049 . S
Zn306 O316 2.067 . S
Zn307 O308 1.962 . S
Zn307 O310 1.986 . S
Zn307 O312 1.996 1_545 S
Zn307 O315 1.943 . S
O308 Zn307 1.962 . S
O308 C313 1.254 . S
O309 Zn306 2.031 . S
O309 C313 1.269 1_565 S
O310 Zn307 1.986 . S
O310 C317 1.262 . S
O311 Zn306 2.049 . S
O311 C319 1.260 . S
O312 Zn307 1.996 1_565 S
O312 C319 1.257 . S
C313 O308 1.254 . S
C313 O309 1.269 1_545 S
C314 O315 1.249 1_565 S
C314 O316 1.270 . S
O315 Zn307 1.943 . S
O315 C314 1.249 1_545 S
O316 Zn306 2.067 . S
O316 C314 1.270 . S
C317 O310 1.262 . S
C317 O318 1.232 . S
O318 C317 1.232 . S
C319 O311 1.260 . S
C319 O312 1.257 . S
Zn320 O323 2.031 . S
Zn320 O325 2.049 1_455 S
Zn320 O330 2.067 1_455 S
Zn321 O322 1.962 . S
Zn321 O324 1.986 . S
Zn321 O326 1.996 . S
Zn321 O329 1.943 1_455 S
O322 Zn321 1.962 . S
O322 C327 1.254 . S
O323 Zn320 2.031 . S
O323 C327 1.269 . S
O324 Zn321 1.986 . S
O324 C331 1.262 . S
O325 Zn320 2.049 1_655 S
O325 C333 1.260 . S
O326 Zn321 1.996 . S
O326 C333 1.257 1_455 S
C327 O322 1.254 . S
C327 O323 1.269 . S
C328 O329 1.249 . S
C328 O330 1.270 . S
O329 Zn321 1.943 1_655 S
O329 C328 1.249 . S
O330 Zn320 2.067 1_655 S
O330 C328 1.270 . S
C331 O324 1.262 . S
C331 O332 1.232 . S
O332 C331 1.232 . S
C333 O325 1.260 . S
C333 O326 1.257 1_655 S
Zn334 O337 2.031 . S
Zn334 O339 2.049 . S
Zn334 O344 2.067 . S
Zn335 O336 1.962 . S
Zn335 O338 1.986 . S
Zn335 O340 1.996 . S
Zn335 O343 1.943 . S
O336 Zn335 1.962 . S
O336 C341 1.254 . S
O337 Zn334 2.031 . S
O337 C341 1.269 . S
O338 Zn335 1.986 . S
O338 C345 1.262 . S
O339 Zn334 2.049 . S
O339 C347 1.260 . S
O340 Zn335 1.996 . S
O340 C347 1.257 . S
C341 O336 1.254 . S
C341 O337 1.269 . S
C342 O343 1.249 . S
C342 O344 1.270 . S
O343 Zn335 1.943 . S
O343 C342 1.249 . S
O344 Zn334 2.067 . S
O344 C342 1.270 . S
C345 O338 1.262 . S
C345 O346 1.232 . S
O346 C345 1.232 . S
C347 O339 1.260 . S
C347 O340 1.257 . S
Zn348 O351 2.031 1_655 S
Zn348 O353 2.049 . S
Zn348 O358 2.067 . S
Zn349 O350 1.962 . S
Zn349 O352 1.986 . S
Zn349 O354 1.996 1_455 S
Zn349 O357 1.943 . S
O350 Zn349 1.962 . S
O350 C355 1.254 . S
O351 Zn348 2.031 1_455 S
O351 C355 1.269 . S
O352 Zn349 1.986 . S
O352 C359 1.262 . S
O353 Zn348 2.049 . S
O353 C361 1.260 . S
O354 Zn349 1.996 1_655 S
O354 C361 1.257 . S
C355 O350 1.254 . S
C355 O351 1.269 . S
C356 O357 1.249 . S
C356 O358 1.270 1_455 S
O357 Zn349 1.943 . S
O357 C356 1.249 . S
O358 Zn348 2.067 . S
O358 C356 1.270 1_655 S
C359 O352 1.262 . S
C359 O360 1.232 . S
O360 C359 1.232 . S
C361 O353 1.260 . S
C361 O354 1.257 . S
Zn362 O365 2.031 . S
Zn362 O367 2.049 . S
Zn362 O372 2.067 . S
Zn363 O364 1.962 . S
Zn363 O366 1.986 . S
Zn363 O368 1.996 . S
Zn363 O371 1.943 . S
O364 Zn363 1.962 . S
O364 C369 1.254 . S
O365 Zn362 2.031 . S
O365 C369 1.269 . S
O366 Zn363 1.986 . S
O366 C373 1.262 . S
O367 Zn362 2.049 . S
O367 C375 1.260 . S
O368 Zn363 1.996 . S
O368 C375 1.257 . S
C369 O364 1.254 . S
C369 O365 1.269 . S
C370 O371 1.249 . S
C370 O372 1.270 . S
O371 Zn363 1.943 . S
O371 C370 1.249 . S
O372 Zn362 2.067 . S
O372 C370 1.270 . S
C373 O366 1.262 . S
C373 O374 1.232 . S
O374 C373 1.232 . S
C375 O367 1.260 . S
C375 O368 1.257 . S
C376 C377 1.391 . S
C376 C378 1.394 . S
C376 H392 0.931 . S
C377 C376 1.391 . S
C377 C381 1.376 . S
C378 C376 1.394 . S
C378 C379 1.369 . S
C378 C382 1.531 . S
C379 C378 1.369 . S
C379 C380 1.410 . S
C379 C387 1.503 . S
C380 C379 1.410 . S
C380 C381 1.392 . S
C380 C383 1.511 . S
C381 C377 1.376 . S
C381 C380 1.392 . S
C381 H393 0.929 . S
C382 C378 1.531 . S
C382 H394 0.960 . S
C382 H395 0.962 . S
C382 H396 0.960 . S
C383 C380 1.511 . S
C383 H397 0.961 . S
C383 H398 0.961 . S
C383 H399 0.961 . S
C384 C385 1.370 . S
C384 C386 1.363 . S
C384 H400 0.931 . S
C385 C384 1.370 . S
C385 C389 1.408 . S
C386 C384 1.363 . S
C386 C387 1.370 . S
C386 C390 1.524 . S
C387 C379 1.503 . S
C387 C386 1.370 . S
C387 C388 1.403 . S
C388 C387 1.403 . S
C388 C389 1.404 . S
C388 C391 1.539 . S
C389 C385 1.408 . S
C389 C388 1.404 . S
C389 H401 0.930 . S
C390 C386 1.524 . S
C390 H402 0.956 . S
C390 H403 0.961 . S
C390 H404 0.961 . S
C391 C388 1.539 . S
C391 H405 0.958 . S
C391 H406 0.961 . S
C391 H407 0.960 . S
H392 C376 0.931 . S
H393 C381 0.929 . S
H394 C382 0.960 . S
H395 C382 0.962 . S
H396 C382 0.960 . S
H397 C383 0.961 . S
H398 C383 0.961 . S
H399 C383 0.961 . S
H400 C384 0.931 . S
H401 C389 0.930 . S
H402 C390 0.956 . S
H403 C390 0.961 . S
H404 C390 0.961 . S
H405 C391 0.958 . S
H406 C391 0.961 . S
H407 C391 0.960 . S
C408 C409 1.391 . S
C408 C410 1.394 . S
C408 H424 0.931 . S
C409 C408 1.391 . S
C409 C413 1.376 . S
C410 C408 1.394 . S
C410 C411 1.369 . S
C410 C414 1.531 . S
C411 C410 1.369 . S
C411 C412 1.410 . S
C411 C419 1.503 . S
C412 C411 1.410 . S
C412 C413 1.392 . S
C412 C415 1.511 . S
C413 C409 1.376 . S
C413 C412 1.392 . S
C413 H425 0.934 . S
C414 C410 1.531 . S
C414 H426 0.960 . S
C414 H427 0.962 . S
C414 H428 0.960 . S
C415 C412 1.511 . S
C415 H429 0.961 . S
C415 H430 0.961 . S
C415 H431 0.961 . S
C416 C417 1.370 . S
C416 C418 1.363 . S
C416 H432 0.931 . S
C417 C416 1.370 . S
C417 C421 1.408 . S
C418 C416 1.363 . S
C418 C419 1.370 . S
C418 C422 1.524 . S
C419 C411 1.503 . S
C419 C418 1.370 . S
C419 C420 1.403 . S
C420 C419 1.403 . S
C420 C421 1.404 . S
C420 C423 1.539 . S
C421 C417 1.408 . S
C421 C420 1.404 . S
C421 H433 0.930 . S
C422 C418 1.524 . S
C422 H434 0.956 . S
C422 H435 0.961 . S
C422 H436 0.961 . S
C423 C420 1.539 . S
C423 H437 0.958 . S
C423 H438 0.961 . S
C423 H439 0.960 . S
H424 C408 0.931 . S
H425 C413 0.934 . S
H426 C414 0.960 . S
H427 C414 0.962 . S
H428 C414 0.960 . S
H429 C415 0.961 . S
H430 C415 0.961 . S
H431 C415 0.961 . S
H432 C416 0.931 . S
H433 C421 0.930 . S
H434 C422 0.956 . S
H435 C422 0.961 . S
H436 C422 0.961 . S
H437 C423 0.958 . S
H438 C423 0.961 . S
H439 C423 0.960 . S
C440 C441 1.391 . S
C440 C442 1.394 . S
C440 H456 0.931 . S
C441 C440 1.391 . S
C441 C445 1.376 . S
C442 C440 1.394 . S
C442 C443 1.369 . S
C442 C446 1.531 . S
C443 C442 1.369 . S
C443 C444 1.410 . S
C443 C451 1.503 . S
C444 C443 1.410 . S
C444 C445 1.392 . S
C444 C447 1.511 . S
C445 C441 1.376 . S
C445 C444 1.392 . S
C445 H457 0.929 . S
C446 C442 1.531 . S
C446 H458 0.960 . S
C446 H459 0.962 . S
C446 H460 0.960 . S
C447 C444 1.511 . S
C447 H461 0.961 . S
C447 H462 0.961 . S
C447 H463 0.961 . S
C448 C449 1.370 . S
C448 C450 1.363 . S
C448 H464 0.931 . S
C449 C448 1.370 . S
C449 C453 1.408 . S
C450 C448 1.363 . S
C450 C451 1.370 . S
C450 C454 1.524 . S
C451 C443 1.503 . S
C451 C450 1.370 . S
C451 C452 1.403 . S
C452 C451 1.403 . S
C452 C453 1.404 . S
C452 C455 1.539 . S
C453 C449 1.408 . S
C453 C452 1.404 . S
C453 H465 0.930 . S
C454 C450 1.524 . S
C454 H466 0.956 . S
C454 H467 0.961 . S
C454 H468 0.961 . S
C455 C452 1.539 . S
C455 H469 0.958 . S
C455 H470 0.961 . S
C455 H471 0.960 . S
H456 C440 0.931 . S
H457 C445 0.929 . S
H458 C446 0.960 . S
H459 C446 0.962 . S
H460 C446 0.960 . S
H461 C447 0.961 . S
H462 C447 0.961 . S
H463 C447 0.961 . S
H464 C448 0.931 . S
H465 C453 0.930 . S
H466 C454 0.956 . S
H467 C454 0.961 . S
H468 C454 0.961 . S
H469 C455 0.958 . S
H470 C455 0.961 . S
H471 C455 0.960 . S
C472 C473 1.391 1_655 S
C472 C474 1.394 . S
C472 H488 0.931 . S
C473 C472 1.391 1_455 S
C473 C477 1.376 . S
C474 C472 1.394 . S
C474 C475 1.369 . S
C474 C478 1.531 . S
C475 C474 1.369 . S
C475 C476 1.410 1_655 S
C475 C483 1.503 . S
C476 C475 1.410 1_455 S
C476 C477 1.392 . S
C476 C479 1.511 1_565 S
C477 C473 1.376 . S
C477 C476 1.392 . S
C477 H489 0.929 . S
C478 C474 1.531 . S
C478 H490 0.960 . S
C478 H491 0.962 . S
C478 H492 0.960 . S
C479 C476 1.511 1_545 S
C479 H493 0.976 . S
C479 H494 0.961 . S
C479 H495 0.961 . S
C480 C481 1.370 1_565 S
C480 C482 1.363 . S
C480 H496 0.931 . S
C481 C480 1.370 1_545 S
C481 C485 1.408 . S
C482 C480 1.363 . S
C482 C483 1.370 . S
C482 C486 1.524 . S
C483 C475 1.503 . S
C483 C482 1.370 . S
C483 C484 1.403 1_565 S
C484 C483 1.403 1_545 S
C484 C485 1.404 . S
C484 C487 1.539 . S
C485 C481 1.408 . S
C485 C484 1.404 . S
C485 H497 0.930 . S
C486 C482 1.524 . S
C486 H498 0.956 . S
C486 H499 0.961 . S
C486 H500 0.961 . S
C487 C484 1.539 . S
C487 H501 0.958 . S
C487 H502 0.961 . S
C487 H503 0.960 . S
H488 C472 0.931 . S
H489 C477 0.929 . S
H490 C478 0.960 . S
H491 C478 0.962 . S
H492 C478 0.960 . S
H493 C479 0.976 . S
H494 C479 0.961 . S
H495 C479 0.961 . S
H496 C480 0.931 . S
H497 C485 0.930 . S
H498 C486 0.956 . S
H499 C486 0.961 . S
H500 C486 0.961 . S
H501 C487 0.958 . S
H502 C487 0.961 . S
H503 C487 0.960 . S
C504 C505 1.391 . S
C504 C506 1.394 . S
C504 H520 0.931 . S
C505 C504 1.391 . S
C505 C509 1.376 . S
C506 C504 1.394 . S
C506 C507 1.369 . S
C506 C510 1.531 . S
C507 C506 1.369 . S
C507 C508 1.410 . S
C507 C515 1.503 . S
C508 C507 1.410 . S
C508 C509 1.392 . S
C508 C511 1.511 . S
C509 C505 1.376 . S
C509 C508 1.392 . S
C509 H521 0.929 . S
C510 C506 1.531 . S
C510 H522 0.960 . S
C510 H523 0.962 . S
C510 H524 0.960 . S
C511 C508 1.511 . S
C511 H525 0.961 . S
C511 H526 0.961 . S
C511 H527 0.961 . S
C512 C513 1.370 . S
C512 C514 1.363 . S
C512 H528 0.931 . S
C513 C512 1.370 . S
C513 C517 1.408 . S
C514 C512 1.363 . S
C514 C515 1.370 . S
C514 C518 1.524 . S
C515 C507 1.503 . S
C515 C514 1.370 . S
C515 C516 1.403 . S
C516 C515 1.403 . S
C516 C517 1.404 . S
C516 C519 1.539 . S
C517 C513 1.408 . S
C517 C516 1.404 . S
C517 H529 0.930 . S
C518 C514 1.524 . S
C518 H530 0.956 . S
C518 H531 0.961 . S
C518 H532 0.961 . S
C519 C516 1.539 . S
C519 H533 0.958 . S
C519 H534 0.961 . S
C519 H535 0.960 . S
H520 C504 0.931 . S
H521 C509 0.929 . S
H522 C510 0.960 . S
H523 C510 0.962 . S
H524 C510 0.960 . S
H525 C511 0.961 . S
H526 C511 0.961 . S
H527 C511 0.961 . S
H528 C512 0.931 . S
H529 C517 0.930 . S
H530 C518 0.956 . S
H531 C518 0.961 . S
H532 C518 0.961 . S
H533 C519 0.958 . S
H534 C519 0.961 . S
H535 C519 0.960 . S
C536 C537 1.391 . S
C536 C538 1.394 . S
C536 H552 0.931 . S
C537 C536 1.391 . S
C537 C541 1.376 . S
C538 C536 1.394 . S
C538 C539 1.369 . S
C538 C542 1.531 . S
C539 C538 1.369 . S
C539 C540 1.410 . S
C539 C547 1.503 . S
C540 C539 1.410 . S
C540 C541 1.392 . S
C540 C543 1.511 . S
C541 C537 1.376 . S
C541 C540 1.392 . S
C541 H553 0.929 . S
C542 C538 1.531 . S
C542 H554 0.960 . S
C542 H555 0.962 . S
C542 H556 0.960 . S
C543 C540 1.511 . S
C543 H557 0.961 . S
C543 H558 0.961 . S
C543 H559 0.961 . S
C544 C545 1.370 . S
C544 C546 1.363 . S
C544 H560 0.931 . S
C545 C544 1.370 . S
C545 C549 1.408 . S
C546 C544 1.363 . S
C546 C547 1.370 . S
C546 C550 1.524 . S
C547 C539 1.503 . S
C547 C546 1.370 . S
C547 C548 1.403 . S
C548 C547 1.403 . S
C548 C549 1.404 . S
C548 C551 1.539 . S
C549 C545 1.408 . S
C549 C548 1.404 . S
C549 H561 0.930 . S
C550 C546 1.524 . S
C550 H562 0.956 . S
C550 H563 0.961 . S
C550 H564 0.961 . S
C551 C548 1.539 . S
C551 H565 0.958 . S
C551 H566 0.961 . S
C551 H567 0.960 . S
H552 C536 0.931 . S
H553 C541 0.929 . S
H554 C542 0.960 . S
H555 C542 0.962 . S
H556 C542 0.960 . S
H557 C543 0.961 . S
H558 C543 0.961 . S
H559 C543 0.961 . S
H560 C544 0.931 . S
H561 C549 0.930 . S
H562 C550 0.956 . S
H563 C550 0.961 . S
H564 C550 0.961 . S
H565 C551 0.958 . S
H566 C551 0.961 . S
H567 C551 0.960 . S
C568 C569 1.391 . S
C568 C570 1.394 . S
C568 H584 0.931 . S
C569 C568 1.391 . S
C569 C573 1.376 . S
C570 C568 1.394 . S
C570 C571 1.369 . S
C570 C574 1.531 . S
C571 C570 1.369 . S
C571 C572 1.410 . S
C571 C579 1.503 . S
C572 C571 1.410 . S
C572 C573 1.392 . S
C572 C575 1.511 . S
C573 C569 1.376 . S
C573 C572 1.392 . S
C573 H585 0.929 . S
C574 C570 1.531 . S
C574 H586 0.960 . S
C574 H587 0.962 . S
C574 H588 0.960 . S
C575 C572 1.511 . S
C575 H589 0.961 . S
C575 H590 0.961 . S
C575 H591 0.961 . S
C576 C577 1.370 . S
C576 C578 1.363 . S
C576 H592 0.931 . S
C577 C576 1.370 . S
C577 C581 1.408 . S
C578 C576 1.363 . S
C578 C579 1.370 . S
C578 C582 1.524 . S
C579 C571 1.503 . S
C579 C578 1.370 . S
C579 C580 1.403 . S
C580 C579 1.403 . S
C580 C581 1.404 . S
C580 C583 1.539 . S
C581 C577 1.408 . S
C581 C580 1.404 . S
C581 H593 0.930 . S
C582 C578 1.524 . S
C582 H594 0.956 . S
C582 H595 0.961 . S
C582 H596 0.961 . S
C583 C580 1.539 . S
C583 H597 0.958 . S
C583 H598 0.961 . S
C583 H599 0.960 . S
H584 C568 0.931 . S
H585 C573 0.929 . S
H586 C574 0.960 . S
H587 C574 0.962 . S
H588 C574 0.960 . S
H589 C575 0.961 . S
H590 C575 0.961 . S
H591 C575 0.961 . S
H592 C576 0.931 . S
H593 C581 0.930 . S
H594 C582 0.956 . S
H595 C582 0.961 . S
H596 C582 0.961 . S
H597 C583 0.958 . S
H598 C583 0.961 . S
H599 C583 0.960 . S
C600 C601 1.391 . S
C600 C602 1.394 . S
C600 H616 0.931 . S
C601 C600 1.391 . S
C601 C605 1.376 . S
C602 C600 1.394 . S
C602 C603 1.369 . S
C602 C606 1.531 . S
C603 C602 1.369 . S
C603 C604 1.410 . S
C603 C611 1.503 . S
C604 C603 1.410 . S
C604 C605 1.392 . S
C604 C607 1.511 . S
C605 C601 1.376 . S
C605 C604 1.392 . S
C605 H617 0.929 . S
C606 C602 1.531 . S
C606 H618 0.960 . S
C606 H619 0.962 . S
C606 H620 0.960 . S
C607 C604 1.511 . S
C607 H621 0.961 . S
C607 H622 0.961 . S
C607 H623 0.961 . S
C608 C609 1.370 . S
C608 C610 1.363 . S
C608 H624 0.931 . S
C609 C608 1.370 . S
C609 C613 1.408 1_565 S
C610 C608 1.363 . S
C610 C611 1.370 . S
C610 C614 1.524 . S
C611 C603 1.503 . S
C611 C610 1.370 . S
C611 C612 1.403 1_565 S
C612 C611 1.403 1_545 S
C612 C613 1.404 . S
C612 C615 1.539 . S
C613 C609 1.408 1_545 S
C613 C612 1.404 . S
C613 H625 0.930 . S
C614 C610 1.524 . S
C614 H626 0.956 . S
C614 H627 0.961 . S
C614 H628 0.961 . S
C615 C612 1.539 . S
C615 H629 0.958 . S
C615 H630 0.961 . S
C615 H631 0.960 . S
H616 C600 0.931 . S
H617 C605 0.929 . S
H618 C606 0.960 . S
H619 C606 0.962 . S
H620 C606 0.960 . S
H621 C607 0.961 . S
H622 C607 0.961 . S
H623 C607 0.961 . S
H624 C608 0.931 . S
H625 C613 0.930 . S
H626 C614 0.956 . S
H627 C614 0.961 . S
H628 C614 0.961 . S
H629 C615 0.958 . S
H630 C615 0.961 . S
H631 C615 0.960 . S
C632 C633 1.391 . S
C632 C634 1.394 . S
C632 H648 0.931 . S
C633 C632 1.391 . S
C633 C637 1.376 . S
C634 C632 1.394 . S
C634 C635 1.369 . S
C634 C638 1.531 . S
C635 C634 1.369 . S
C635 C636 1.410 . S
C635 C643 1.503 . S
C636 C635 1.410 . S
C636 C637 1.392 . S
C636 C639 1.511 . S
C637 C633 1.376 . S
C637 C636 1.392 . S
C637 H649 0.929 . S
C638 C634 1.531 . S
C638 H650 0.960 . S
C638 H651 0.962 . S
C638 H652 0.960 . S
C639 C636 1.511 . S
C639 H653 0.961 . S
C639 H654 0.961 . S
C639 H655 0.961 . S
C640 C641 1.370 . S
C640 C642 1.363 . S
C640 H656 0.931 . S
C641 C640 1.370 . S
C641 C645 1.408 . S
C642 C640 1.363 . S
C642 C643 1.370 . S
C642 C646 1.524 . S
C643 C635 1.503 . S
C643 C642 1.370 . S
C643 C644 1.403 . S
C644 C643 1.403 . S
C644 C645 1.404 . S
C644 C647 1.539 . S
C645 C641 1.408 . S
C645 C644 1.404 . S
C645 H657 0.930 . S
C646 C642 1.524 . S
C646 H658 0.956 . S
C646 H659 0.961 . S
C646 H660 0.961 . S
C647 C644 1.539 . S
C647 H661 0.958 . S
C647 H662 0.961 . S
C647 H663 0.960 . S
H648 C632 0.931 . S
H649 C637 0.929 . S
H650 C638 0.960 . S
H651 C638 0.962 . S
H652 C638 0.960 . S
H653 C639 0.961 . S
H654 C639 0.961 . S
H655 C639 0.961 . S
H656 C640 0.931 . S
H657 C645 0.930 . S
H658 C646 0.956 . S
H659 C646 0.961 . S
H660 C646 0.961 . S
H661 C647 0.958 . S
H662 C647 0.961 . S
H663 C647 0.960 . S
C664 C665 1.391 . S
C664 C666 1.394 . S
C664 H680 0.931 . S
C665 C664 1.391 . S
C665 C669 1.376 . S
C666 C664 1.394 . S
C666 C667 1.369 . S
C666 C670 1.531 . S
C667 C666 1.369 . S
C667 C668 1.410 . S
C667 C675 1.503 . S
C668 C667 1.410 . S
C668 C669 1.392 . S
C668 C671 1.511 . S
C669 C665 1.376 . S
C669 C668 1.392 . S
C669 H681 0.929 . S
C670 C666 1.531 . S
C670 H682 0.960 . S
C670 H683 0.962 . S
C670 H684 0.960 . S
C671 C668 1.511 . S
C671 H685 0.961 . S
C671 H686 0.961 . S
C671 H687 0.961 . S
C672 C673 1.370 . S
C672 C674 1.363 . S
C672 H688 0.931 . S
C673 C672 1.370 . S
C673 C677 1.408 . S
C674 C672 1.363 . S
C674 C675 1.370 . S
C674 C678 1.524 . S
C675 C667 1.503 . S
C675 C674 1.370 . S
C675 C676 1.403 . S
C676 C675 1.403 . S
C676 C677 1.404 . S
C676 C679 1.539 . S
C677 C673 1.408 . S
C677 C676 1.404 . S
C677 H689 0.930 . S
C678 C674 1.524 . S
C678 H690 0.956 . S
C678 H691 0.961 . S
C678 H692 0.961 . S
C679 C676 1.539 . S
C679 H693 0.958 . S
C679 H694 0.961 . S
C679 H695 0.960 . S
H680 C664 0.931 . S
H681 C669 0.929 . S
H682 C670 0.960 . S
H683 C670 0.962 . S
H684 C670 0.960 . S
H685 C671 0.961 . S
H686 C671 0.961 . S
H687 C671 0.961 . S
H688 C672 0.931 . S
H689 C677 0.930 . S
H690 C678 0.956 . S
H691 C678 0.961 . S
H692 C678 0.961 . S
H693 C679 0.958 . S
H694 C679 0.961 . S
H695 C679 0.960 . S
C696 C697 1.391 . S
C696 C698 1.394 . S
C696 H712 0.931 . S
C697 C696 1.391 . S
C697 C701 1.376 . S
C698 C696 1.394 . S
C698 C699 1.369 . S
C698 C702 1.531 . S
C699 C698 1.369 . S
C699 C700 1.410 . S
C699 C707 1.503 . S
C700 C699 1.410 . S
C700 C701 1.392 . S
C700 C703 1.511 . S
C701 C697 1.376 . S
C701 C700 1.392 . S
C701 H713 0.929 . S
C702 C698 1.531 . S
C702 H714 0.960 . S
C702 H715 0.962 . S
C702 H716 0.960 . S
C703 C700 1.511 . S
C703 H717 0.961 . S
C703 H718 0.961 . S
C703 H719 0.961 . S
C704 C705 1.370 . S
C704 C706 1.363 . S
C704 H720 0.931 . S
C705 C704 1.370 . S
C705 C709 1.408 . S
C706 C704 1.363 . S
C706 C707 1.370 . S
C706 C710 1.524 . S
C707 C699 1.503 . S
C707 C706 1.370 . S
C707 C708 1.403 . S
C708 C707 1.403 . S
C708 C709 1.404 . S
C708 C711 1.539 . S
C709 C705 1.408 . S
C709 C708 1.404 . S
C709 H721 0.930 . S
C710 C706 1.524 . S
C710 H722 0.956 . S
C710 H723 0.961 . S
C710 H724 0.961 . S
C711 C708 1.539 . S
C711 H725 0.958 . S
C711 H726 0.961 . S
C711 H727 0.960 . S
H712 C696 0.931 . S
H713 C701 0.929 . S
H714 C702 0.960 . S
H715 C702 0.962 . S
H716 C702 0.960 . S
H717 C703 0.961 . S
H718 C703 0.961 . S
H719 C703 0.961 . S
H720 C704 0.931 . S
H721 C709 0.930 . S
H722 C710 0.956 . S
H723 C710 0.961 . S
H724 C710 0.961 . S
H725 C711 0.958 . S
H726 C711 0.961 . S
H727 C711 0.960 . S
C728 C729 1.391 . S
C728 C730 1.394 . S
C728 H744 0.931 . S
C729 C728 1.391 . S
C729 C733 1.376 . S
C730 C728 1.394 . S
C730 C731 1.369 . S
C730 C734 1.531 . S
C731 C730 1.369 . S
C731 C732 1.410 . S
C731 C739 1.503 . S
C732 C731 1.410 . S
C732 C733 1.392 . S
C732 C735 1.511 . S
C733 C729 1.376 . S
C733 C732 1.392 . S
C733 H745 0.929 . S
C734 C730 1.531 . S
C734 H746 0.960 . S
C734 H747 0.962 . S
C734 H748 0.960 . S
C735 C732 1.511 . S
C735 H749 0.961 . S
C735 H750 0.961 . S
C735 H751 0.961 . S
C736 C737 1.370 . S
C736 C738 1.363 . S
C736 H752 0.931 . S
C737 C736 1.370 . S
C737 C741 1.408 . S
C738 C736 1.363 . S
C738 C739 1.370 . S
C738 C742 1.524 . S
C739 C731 1.503 . S
C739 C738 1.370 . S
C739 C740 1.403 . S
C740 C739 1.403 . S
C740 C741 1.404 . S
C740 C743 1.539 . S
C741 C737 1.408 . S
C741 C740 1.404 . S
C741 H753 0.930 . S
C742 C738 1.524 . S
C742 H754 0.956 . S
C742 H755 0.961 . S
C742 H756 0.961 . S
C743 C740 1.539 . S
C743 H757 0.958 . S
C743 H758 0.961 . S
C743 H759 0.960 . S
H744 C728 0.931 . S
H745 C733 0.929 . S
H746 C734 0.960 . S
H747 C734 0.962 . S
H748 C734 0.960 . S
H749 C735 0.961 . S
H750 C735 0.961 . S
H751 C735 0.961 . S
H752 C736 0.931 . S
H753 C741 0.930 . S
H754 C742 0.956 . S
H755 C742 0.961 . S
H756 C742 0.961 . S
H757 C743 0.958 . S
H758 C743 0.961 . S
H759 C743 0.960 . S
C760 C761 1.391 . S
C760 C762 1.394 . S
C760 H776 0.931 . S
C761 C760 1.391 . S
C761 C765 1.376 . S
C762 C760 1.394 . S
C762 C763 1.369 . S
C762 C766 1.531 . S
C763 C762 1.369 . S
C763 C764 1.410 . S
C763 C771 1.503 . S
C764 C763 1.410 . S
C764 C765 1.392 . S
C764 C767 1.511 . S
C765 C761 1.376 . S
C765 C764 1.392 . S
C765 H777 0.929 . S
C766 C762 1.531 . S
C766 H778 0.960 . S
C766 H779 0.962 . S
C766 H780 0.960 . S
C767 C764 1.511 . S
C767 H781 0.961 . S
C767 H782 0.961 . S
C767 H783 0.961 . S
C768 C769 1.370 . S
C768 C770 1.363 . S
C768 H784 0.931 . S
C769 C768 1.370 . S
C769 C773 1.408 . S
C770 C768 1.363 . S
C770 C771 1.370 . S
C770 C774 1.524 . S
C771 C763 1.503 . S
C771 C770 1.370 . S
C771 C772 1.403 . S
C772 C771 1.403 . S
C772 C773 1.404 . S
C772 C775 1.539 . S
C773 C769 1.408 . S
C773 C772 1.404 . S
C773 H785 0.930 . S
C774 C770 1.524 . S
C774 H786 0.956 . S
C774 H787 0.961 . S
C774 H788 0.961 . S
C775 C772 1.539 . S
C775 H789 0.958 . S
C775 H790 0.961 . S
C775 H791 0.960 . S
H776 C760 0.931 . S
H777 C765 0.929 . S
H778 C766 0.960 . S
H779 C766 0.962 . S
H780 C766 0.960 . S
H781 C767 0.961 . S
H782 C767 0.961 . S
H783 C767 0.961 . S
H784 C768 0.931 . S
H785 C773 0.930 . S
H786 C774 0.956 . S
H787 C774 0.961 . S
H788 C774 0.961 . S
H789 C775 0.958 . S
H790 C775 0.961 . S
H791 C775 0.960 . S
C792 C793 1.391 . S
C792 C794 1.394 . S
C792 H808 0.931 . S
C793 C792 1.391 . S
C793 C797 1.376 . S
C794 C792 1.394 . S
C794 C795 1.369 . S
C794 C798 1.531 . S
C795 C794 1.369 . S
C795 C796 1.410 . S
C795 C803 1.503 . S
C796 C795 1.410 . S
C796 C797 1.392 . S
C796 C799 1.511 . S
C797 C793 1.376 . S
C797 C796 1.392 . S
C797 H809 0.929 . S
C798 C794 1.531 . S
C798 H810 0.960 . S
C798 H811 0.962 . S
C798 H812 0.960 . S
C799 C796 1.511 . S
C799 H813 0.961 . S
C799 H814 0.961 . S
C799 H815 0.961 . S
C800 C801 1.370 . S
C800 C802 1.363 . S
C800 H816 0.931 . S
C801 C800 1.370 . S
C801 C805 1.408 . S
C802 C800 1.363 . S
C802 C803 1.370 . S
C802 C806 1.524 . S
C803 C795 1.503 . S
C803 C802 1.370 . S
C803 C804 1.403 . S
C804 C803 1.403 . S
C804 C805 1.404 . S
C804 C807 1.539 . S
C805 C801 1.408 . S
C805 C804 1.404 . S
C805 H817 0.930 . S
C806 C802 1.524 . S
C806 H818 0.956 . S
C806 H819 0.961 . S
C806 H820 0.961 . S
C807 C804 1.539 . S
C807 H821 0.958 . S
C807 H822 0.961 . S
C807 H823 0.960 . S
H808 C792 0.931 . S
H809 C797 0.929 . S
H810 C798 0.960 . S
H811 C798 0.962 . S
H812 C798 0.960 . S
H813 C799 0.961 . S
H814 C799 0.961 . S
H815 C799 0.961 . S
H816 C800 0.931 . S
H817 C805 0.930 . S
H818 C806 0.956 . S
H819 C806 0.961 . S
H820 C806 0.961 . S
H821 C807 0.958 . S
H822 C807 0.961 . S
H823 C807 0.960 . S
C824 C825 1.391 . S
C824 C826 1.394 . S
C824 H840 0.931 . S
C825 C824 1.391 . S
C825 C829 1.376 . S
C826 C824 1.394 . S
C826 C827 1.369 . S
C826 C830 1.531 . S
C827 C826 1.369 . S
C827 C828 1.410 . S
C827 C835 1.503 . S
C828 C827 1.410 . S
C828 C829 1.392 . S
C828 C831 1.511 . S
C829 C825 1.376 . S
C829 C828 1.392 . S
C829 H841 0.929 . S
C830 C826 1.531 . S
C830 H842 0.960 . S
C830 H843 0.962 . S
C830 H844 0.960 . S
C831 C828 1.511 . S
C831 H845 0.961 . S
C831 H846 0.961 . S
C831 H847 0.961 . S
C832 C833 1.370 . S
C832 C834 1.363 . S
C832 H848 0.931 . S
C833 C832 1.370 . S
C833 C837 1.408 . S
C834 C832 1.363 . S
C834 C835 1.370 . S
C834 C838 1.524 . S
C835 C827 1.503 . S
C835 C834 1.370 . S
C835 C836 1.403 . S
C836 C835 1.403 . S
C836 C837 1.404 . S
C836 C839 1.539 . S
C837 C833 1.408 . S
C837 C836 1.404 . S
C837 H849 0.930 . S
C838 C834 1.524 . S
C838 H850 0.956 . S
C838 H851 0.961 . S
C838 H852 0.961 . S
C839 C836 1.539 . S
C839 H853 0.958 . S
C839 H854 0.961 . S
C839 H855 0.960 . S
H840 C824 0.931 . S
H841 C829 0.929 . S
H842 C830 0.960 . S
H843 C830 0.962 . S
H844 C830 0.960 . S
H845 C831 0.961 . S
H846 C831 0.961 . S
H847 C831 0.961 . S
H848 C832 0.931 . S
H849 C837 0.930 . S
H850 C838 0.956 . S
H851 C838 0.961 . S
H852 C838 0.961 . S
H853 C839 0.958 . S
H854 C839 0.961 . S
H855 C839 0.960 . S
C856 C857 1.391 . S
C856 C858 1.394 . S
C856 H872 0.931 . S
C857 C856 1.391 . S
C857 C861 1.376 1_655 S
C858 C856 1.394 . S
C858 C859 1.369 . S
C858 C862 1.531 . S
C859 C858 1.369 . S
C859 C860 1.410 1_655 S
C859 C867 1.503 . S
C860 C859 1.410 1_455 S
C860 C861 1.392 . S
C860 C863 1.511 . S
C861 C857 1.376 1_455 S
C861 C860 1.392 . S
C861 H873 0.929 . S
C862 C858 1.531 . S
C862 H874 0.960 . S
C862 H875 0.962 . S
C862 H876 0.960 . S
C863 C860 1.511 . S
C863 H877 0.961 . S
C863 H878 0.961 . S
C863 H879 0.961 . S
C864 C865 1.370 1_655 S
C864 C866 1.363 . S
C864 H880 0.931 . S
C865 C864 1.370 1_455 S
C865 C869 1.408 . S
C866 C864 1.363 . S
C866 C867 1.370 . S
C866 C870 1.524 . S
C867 C859 1.503 . S
C867 C866 1.370 . S
C867 C868 1.403 1_655 S
C868 C867 1.403 1_455 S
C868 C869 1.404 . S
C868 C871 1.539 . S
C869 C865 1.408 . S
C869 C868 1.404 . S
C869 H881 0.930 . S
C870 C866 1.524 . S
C870 H882 0.956 . S
C870 H883 0.961 . S
C870 H884 0.961 . S
C871 C868 1.539 . S
C871 H885 0.958 . S
C871 H886 0.961 . S
C871 H887 0.960 . S
H872 C856 0.931 . S
H873 C861 0.929 . S
H874 C862 0.960 . S
H875 C862 0.962 . S
H876 C862 0.960 . S
H877 C863 0.961 . S
H878 C863 0.961 . S
H879 C863 0.961 . S
H880 C864 0.931 . S
H881 C869 0.930 . S
H882 C870 0.956 . S
H883 C870 0.961 . S
H884 C870 0.961 . S
H885 C871 0.958 . S
H886 C871 0.961 . S
H887 C871 0.960 . S
C888 C889 1.391 . S
C888 C890 1.394 . S
C888 H904 0.931 . S
C889 C888 1.391 . S
C889 C893 1.376 . S
C890 C888 1.394 . S
C890 C891 1.369 . S
C890 C894 1.531 . S
C891 C890 1.369 . S
C891 C892 1.410 . S
C891 C899 1.503 . S
C892 C891 1.410 . S
C892 C893 1.392 . S
C892 C895 1.511 . S
C893 C889 1.376 . S
C893 C892 1.392 . S
C893 H905 0.929 . S
C894 C890 1.531 . S
C894 H906 0.960 . S
C894 H907 0.962 . S
C894 H908 0.960 . S
C895 C892 1.511 . S
C895 H909 0.961 . S
C895 H910 0.961 . S
C895 H911 0.961 . S
C896 C897 1.370 . S
C896 C898 1.363 . S
C896 H912 0.931 . S
C897 C896 1.370 . S
C897 C901 1.408 . S
C898 C896 1.363 . S
C898 C899 1.370 . S
C898 C902 1.524 . S
C899 C891 1.503 . S
C899 C898 1.370 . S
C899 C900 1.403 . S
C900 C899 1.403 . S
C900 C901 1.404 . S
C900 C903 1.539 . S
C901 C897 1.408 . S
C901 C900 1.404 . S
C901 H913 0.930 . S
C902 C898 1.524 . S
C902 H914 0.956 . S
C902 H915 0.961 . S
C902 H916 0.961 . S
C903 C900 1.539 . S
C903 H917 0.958 . S
C903 H918 0.961 . S
C903 H919 0.960 . S
H904 C888 0.931 . S
H905 C893 0.929 . S
H906 C894 0.960 . S
H907 C894 0.962 . S
H908 C894 0.960 . S
H909 C895 0.961 . S
H910 C895 0.961 . S
H911 C895 0.961 . S
H912 C896 0.931 . S
H913 C901 0.930 . S
H914 C902 0.956 . S
H915 C902 0.961 . S
H916 C902 0.961 . S
H917 C903 0.958 . S
H918 C903 0.961 . S
H919 C903 0.960 . S
C920 C921 1.391 . S
C920 C922 1.394 . S
C920 H936 0.931 . S
C921 C920 1.391 . S
C921 C925 1.376 . S
C922 C920 1.394 . S
C922 C923 1.369 . S
C922 C926 1.531 . S
C923 C922 1.369 . S
C923 C924 1.410 . S
C923 C931 1.503 . S
C924 C923 1.410 . S
C924 C925 1.392 . S
C924 C927 1.511 . S
C925 C921 1.376 . S
C925 C924 1.392 . S
C925 H937 0.929 . S
C926 C922 1.531 . S
C926 H938 0.960 . S
C926 H939 0.962 . S
C926 H940 0.960 . S
C927 C924 1.511 . S
C927 H941 0.961 . S
C927 H942 0.961 . S
C927 H943 0.961 . S
C928 C929 1.370 . S
C928 C930 1.363 . S
C928 H944 0.931 . S
C929 C928 1.370 . S
C929 C933 1.408 . S
C930 C928 1.363 . S
C930 C931 1.370 . S
C930 C934 1.524 . S
C931 C923 1.503 . S
C931 C930 1.370 . S
C931 C932 1.403 . S
C932 C931 1.403 . S
C932 C933 1.404 . S
C932 C935 1.539 . S
C933 C929 1.408 . S
C933 C932 1.404 . S
C933 H945 0.930 . S
C934 C930 1.524 . S
C934 H946 0.956 . S
C934 H947 0.961 . S
C934 H948 0.961 . S
C935 C932 1.539 . S
C935 H949 0.958 . S
C935 H950 0.961 . S
C935 H951 0.960 . S
H936 C920 0.931 . S
H937 C925 0.929 . S
H938 C926 0.960 . S
H939 C926 0.962 . S
H940 C926 0.960 . S
H941 C927 0.961 . S
H942 C927 0.961 . S
H943 C927 0.961 . S
H944 C928 0.931 . S
H945 C933 0.930 . S
H946 C934 0.956 . S
H947 C934 0.961 . S
H948 C934 0.961 . S
H949 C935 0.958 . S
H950 C935 0.961 . S
H951 C935 0.960 . S
C952 C953 1.391 . S
C952 C954 1.394 . S
C952 H968 0.931 . S
C953 C952 1.391 . S
C953 C957 1.376 . S
C954 C952 1.394 . S
C954 C955 1.369 . S
C954 C958 1.531 . S
C955 C954 1.369 . S
C955 C956 1.410 1_545 S
C955 C963 1.503 1_545 S
C956 C955 1.410 1_565 S
C956 C957 1.392 1_565 S
C956 C959 1.511 . S
C957 C953 1.376 . S
C957 C956 1.392 1_545 S
C957 H969 0.929 . S
C958 C954 1.531 . S
C958 H970 0.960 . S
C958 H971 0.962 . S
C958 H972 0.960 . S
C959 C956 1.511 . S
C959 H973 0.961 1_556 S
C959 H974 0.961 1_556 S
C959 H975 0.961 . S
C960 C961 1.370 1_554 S
C960 C962 1.370 . S
C960 H976 0.931 . S
C961 C960 1.370 1_556 S
C961 C965 1.408 . S
C962 C960 1.370 . S
C962 C963 1.330 1_554 S
C962 C966 1.559 1_565 S
C963 C955 1.503 1_565 S
C963 C962 1.330 1_556 S
C963 C964 1.403 . S
C964 C963 1.403 . S
C964 C965 1.404 . S
C964 C967 1.539 . S
C965 C961 1.408 . S
C965 C964 1.404 . S
C965 H977 0.930 . S
C966 C962 1.559 1_545 S
C966 H978 0.956 . S
C966 H979 0.957 1_545 S
C966 H980 0.961 1_545 S
C967 C964 1.539 . S
C967 H981 0.958 . S
C967 H982 0.961 . S
C967 H983 0.960 . S
H968 C952 0.931 . S
H969 C957 0.929 . S
H970 C958 0.960 . S
H971 C958 0.962 . S
H972 C958 0.960 . S
H973 C959 0.961 1_554 S
H974 C959 0.961 1_554 S
H975 C959 0.961 . S
H976 C960 0.931 . S
H977 C965 0.930 . S
H978 C966 0.956 . S
H979 C966 0.957 1_565 S
H980 C966 0.961 1_565 S
H981 C967 0.958 . S
H982 C967 0.961 . S
H983 C967 0.960 . S
C984 C985 1.391 . S
C984 C986 1.394 . S
C984 H1000 0.931 . S
C985 C984 1.391 . S
C985 C989 1.376 . S
C986 C984 1.394 . S
C986 C987 1.369 . S
C986 C990 1.531 . S
C987 C986 1.369 . S
C987 C988 1.410 . S
C987 C995 1.503 . S
C988 C987 1.410 . S
C988 C989 1.392 . S
C988 C991 1.511 . S
C989 C985 1.376 . S
C989 C988 1.392 . S
C989 H1001 0.929 . S
C990 C986 1.531 . S
C990 H1002 0.960 . S
C990 H1003 0.962 . S
C990 H1004 0.960 . S
C991 C988 1.511 . S
C991 H1005 0.961 . S
C991 H1006 0.961 . S
C991 H1007 0.961 . S
C992 C993 1.370 . S
C992 C994 1.363 . S
C992 H1008 0.931 . S
C993 C992 1.370 . S
C993 C997 1.408 . S
C994 C992 1.363 . S
C994 C995 1.370 . S
C994 C998 1.524 . S
C995 C987 1.503 . S
C995 C994 1.370 . S
C995 C996 1.403 . S
C996 C995 1.403 . S
C996 C997 1.404 . S
C996 C999 1.539 . S
C997 C993 1.408 . S
C997 C996 1.404 . S
C997 H1009 0.930 . S
C998 C994 1.524 . S
C998 H1010 0.956 . S
C998 H1011 0.961 . S
C998 H1012 0.961 . S
C999 C996 1.539 . S
C999 H1013 0.958 . S
C999 H1014 0.961 . S
C999 H1015 0.960 . S
H1000 C984 0.931 . S
H1001 C989 0.929 . S
H1002 C990 0.960 . S
H1003 C990 0.962 . S
H1004 C990 0.960 . S
H1005 C991 0.961 . S
H1006 C991 0.961 . S
H1007 C991 0.961 . S
H1008 C992 0.931 . S
H1009 C997 0.930 . S
H1010 C998 0.956 . S
H1011 C998 0.961 . S
H1012 C998 0.961 . S
H1013 C999 0.958 . S
H1014 C999 0.961 . S
H1015 C999 0.960 . S
C1016 C1017 1.391 . S
C1016 C1018 1.394 1_565 S
C1016 H1032 0.931 . S
C1017 C1016 1.391 . S
C1017 C1021 1.376 1_565 S
C1018 C1016 1.394 1_545 S
C1018 C1019 1.369 . S
C1018 C1022 1.531 . S
C1019 C1018 1.369 . S
C1019 C1020 1.410 . S
C1019 C1027 1.503 . S
C1020 C1019 1.410 . S
C1020 C1021 1.392 . S
C1020 C1023 1.511 . S
C1021 C1017 1.376 1_545 S
C1021 C1020 1.392 . S
C1021 H1033 0.929 1_545 S
C1022 C1018 1.531 . S
C1022 H1034 0.960 . S
C1022 H1035 0.962 . S
C1022 H1036 0.960 . S
C1023 C1020 1.511 . S
C1023 H1037 0.961 . S
C1023 H1038 0.961 . S
C1023 H1039 0.961 . S
C1024 C1025 1.370 . S
C1024 C1026 1.363 . S
C1024 H1040 0.931 . S
C1025 C1024 1.370 . S
C1025 C1029 1.408 . S
C1026 C1024 1.363 . S
C1026 C1027 1.370 . S
C1026 C1030 1.524 . S
C1027 C1019 1.503 . S
C1027 C1026 1.370 . S
C1027 C1028 1.403 . S
C1028 C1027 1.403 . S
C1028 C1029 1.404 . S
C1028 C1031 1.539 . S
C1029 C1025 1.408 . S
C1029 C1028 1.404 . S
C1029 H1041 0.930 . S
C1030 C1026 1.524 . S
C1030 H1042 0.956 1_545 S
C1030 H1043 0.961 . S
C1030 H1044 0.961 . S
C1031 C1028 1.539 . S
C1031 H1045 0.958 . S
C1031 H1046 0.961 . S
C1031 H1047 0.960 . S
H1032 C1016 0.931 . S
H1033 C1021 0.929 1_565 S
H1034 C1022 0.960 . S
H1035 C1022 0.962 . S
H1036 C1022 0.960 . S
H1037 C1023 0.961 . S
H1038 C1023 0.961 . S
H1039 C1023 0.961 . S
H1040 C1024 0.931 . S
H1041 C1029 0.930 . S
H1042 C1030 0.956 1_565 S
H1043 C1030 0.961 . S
H1044 C1030 0.961 . S
H1045 C1031 0.958 . S
H1046 C1031 0.961 . S
H1047 C1031 0.960 . S
C1048 C1049 1.391 . S
C1048 C1050 1.394 . S
C1048 H1064 0.931 . S
C1049 C1048 1.391 . S
C1049 C1053 1.376 . S
C1050 C1048 1.394 . S
C1050 C1051 1.369 . S
C1050 C1054 1.531 . S
C1051 C1050 1.369 . S
C1051 C1052 1.410 . S
C1051 C1059 1.503 . S
C1052 C1051 1.410 . S
C1052 C1053 1.392 . S
C1052 C1055 1.511 . S
C1053 C1049 1.376 . S
C1053 C1052 1.392 . S
C1053 H1065 0.929 . S
C1054 C1050 1.531 . S
C1054 H1066 0.960 . S
C1054 H1067 0.962 . S
C1054 H1068 0.960 . S
C1055 C1052 1.511 . S
C1055 H1069 0.961 . S
C1055 H1070 0.961 . S
C1055 H1071 0.961 . S
C1056 C1057 1.370 . S
C1056 C1058 1.363 . S
C1056 H1072 0.931 . S
C1057 C1056 1.370 . S
C1057 C1061 1.408 . S
C1058 C1056 1.363 . S
C1058 C1059 1.370 . S
C1058 C1062 1.524 . S
C1059 C1051 1.503 . S
C1059 C1058 1.370 . S
C1059 C1060 1.403 . S
C1060 C1059 1.403 . S
C1060 C1061 1.404 . S
C1060 C1063 1.539 . S
C1061 C1057 1.408 . S
C1061 C1060 1.404 . S
C1061 H1073 0.930 . S
C1062 C1058 1.524 . S
C1062 H1074 0.956 . S
C1062 H1075 0.961 . S
C1062 H1076 0.961 . S
C1063 C1060 1.539 . S
C1063 H1077 0.958 . S
C1063 H1078 0.961 . S
C1063 H1079 0.960 . S
H1064 C1048 0.931 . S
H1065 C1053 0.929 . S
H1066 C1054 0.960 . S
H1067 C1054 0.962 . S
H1068 C1054 0.960 . S
H1069 C1055 0.961 . S
H1070 C1055 0.961 . S
H1071 C1055 0.961 . S
H1072 C1056 0.931 . S
H1073 C1061 0.930 . S
H1074 C1062 0.956 . S
H1075 C1062 0.961 . S
H1076 C1062 0.961 . S
H1077 C1063 0.958 . S
H1078 C1063 0.961 . S
H1079 C1063 0.960 . S
C1080 C1081 1.391 . S
C1080 C1082 1.394 . S
C1080 H1096 0.931 . S
C1081 C1080 1.391 . S
C1081 C1085 1.376 1_565 S
C1082 C1080 1.394 . S
C1082 C1083 1.369 1_565 S
C1082 C1086 1.531 . S
C1083 C1082 1.369 1_545 S
C1083 C1084 1.410 . S
C1083 C1091 1.503 . S
C1084 C1083 1.410 . S
C1084 C1085 1.392 . S
C1084 C1087 1.511 . S
C1085 C1081 1.376 1_545 S
C1085 C1084 1.392 . S
C1085 H1097 0.929 . S
C1086 C1082 1.531 . S
C1086 H1098 0.960 . S
C1086 H1099 0.962 . S
C1086 H1100 0.960 . S
C1087 C1084 1.511 . S
C1087 H1101 0.961 . S
C1087 H1102 0.961 . S
C1087 H1103 0.961 . S
C1088 C1089 1.370 . S
C1088 C1090 1.363 . S
C1088 H1104 0.931 . S
C1089 C1088 1.370 . S
C1089 C1093 1.408 . S
C1090 C1088 1.363 . S
C1090 C1091 1.370 . S
C1090 C1094 1.524 . S
C1091 C1083 1.503 . S
C1091 C1090 1.370 . S
C1091 C1092 1.403 . S
C1092 C1091 1.403 . S
C1092 C1093 1.404 . S
C1092 C1095 1.539 . S
C1093 C1089 1.408 . S
C1093 C1092 1.404 . S
C1093 H1105 0.930 . S
C1094 C1090 1.524 . S
C1094 H1106 0.956 . S
C1094 H1107 0.961 . S
C1094 H1108 0.961 . S
C1095 C1092 1.539 . S
C1095 H1109 0.958 . S
C1095 H1110 0.961 . S
C1095 H1111 0.960 . S
H1096 C1080 0.931 . S
H1097 C1085 0.929 . S
H1098 C1086 0.960 . S
H1099 C1086 0.962 . S
H1100 C1086 0.960 . S
H1101 C1087 0.961 . S
H1102 C1087 0.961 . S
H1103 C1087 0.961 . S
H1104 C1088 0.931 . S
H1105 C1093 0.930 . S
H1106 C1094 0.956 . S
H1107 C1094 0.961 . S
H1108 C1094 0.961 . S
H1109 C1095 0.958 . S
H1110 C1095 0.961 . S
H1111 C1095 0.960 . S
C1112 C1113 1.391 . S
C1112 C1114 1.394 . S
C1112 H1128 0.931 . S
C1113 C1112 1.391 . S
C1113 C1117 1.376 . S
C1114 C1112 1.394 . S
C1114 C1115 1.369 . S
C1114 C1118 1.531 . S
C1115 C1114 1.369 . S
C1115 C1116 1.410 . S
C1115 C1123 1.503 . S
C1116 C1115 1.410 . S
C1116 C1117 1.392 . S
C1116 C1119 1.511 . S
C1117 C1113 1.376 . S
C1117 C1116 1.392 . S
C1117 H1129 0.929 . S
C1118 C1114 1.531 . S
C1118 H1130 0.960 . S
C1118 H1131 0.962 . S
C1118 H1132 0.960 . S
C1119 C1116 1.511 . S
C1119 H1133 0.961 . S
C1119 H1134 0.961 . S
C1119 H1135 0.961 . S
C1120 C1121 1.370 . S
C1120 C1122 1.363 . S
C1120 H1136 0.931 . S
C1121 C1120 1.370 . S
C1121 C1125 1.408 . S
C1122 C1120 1.363 . S
C1122 C1123 1.370 . S
C1122 C1126 1.524 . S
C1123 C1115 1.503 . S
C1123 C1122 1.370 . S
C1123 C1124 1.403 . S
C1124 C1123 1.403 . S
C1124 C1125 1.404 . S
C1124 C1127 1.539 . S
C1125 C1121 1.408 . S
C1125 C1124 1.404 . S
C1125 H1137 0.930 . S
C1126 C1122 1.524 . S
C1126 H1138 0.956 . S
C1126 H1139 0.961 . S
C1126 H1140 0.961 . S
C1127 C1124 1.539 . S
C1127 H1141 0.958 . S
C1127 H1142 0.961 . S
C1127 H1143 0.960 . S
H1128 C1112 0.931 . S
H1129 C1117 0.929 . S
H1130 C1118 0.960 . S
H1131 C1118 0.962 . S
H1132 C1118 0.960 . S
H1133 C1119 0.961 . S
H1134 C1119 0.961 . S
H1135 C1119 0.961 . S
H1136 C1120 0.931 . S
H1137 C1125 0.930 . S
H1138 C1126 0.956 . S
H1139 C1126 0.961 . S
H1140 C1126 0.961 . S
H1141 C1127 0.958 . S
H1142 C1127 0.961 . S
H1143 C1127 0.960 . S
C1144 C1145 1.391 . S
C1144 C1146 1.394 . S
C1144 H1160 0.931 . S
C1145 C1144 1.391 . S
C1145 C1149 1.376 . S
C1146 C1144 1.394 . S
C1146 C1147 1.369 . S
C1146 C1150 1.531 . S
C1147 C1146 1.369 . S
C1147 C1148 1.410 . S
C1147 C1155 1.503 . S
C1148 C1147 1.410 . S
C1148 C1149 1.392 . S
C1148 C1151 1.511 . S
C1149 C1145 1.376 . S
C1149 C1148 1.392 . S
C1149 H1161 0.929 . S
C1150 C1146 1.531 . S
C1150 H1162 0.960 . S
C1150 H1163 0.962 . S
C1150 H1164 0.960 . S
C1151 C1148 1.511 . S
C1151 H1165 0.961 . S
C1151 H1166 0.961 . S
C1151 H1167 0.961 . S
C1152 C1153 1.370 . S
C1152 C1154 1.363 . S
C1152 H1168 0.931 . S
C1153 C1152 1.370 . S
C1153 C1157 1.408 . S
C1154 C1152 1.363 . S
C1154 C1155 1.370 . S
C1154 C1158 1.524 . S
C1155 C1147 1.503 . S
C1155 C1154 1.370 . S
C1155 C1156 1.403 . S
C1156 C1155 1.403 . S
C1156 C1157 1.404 . S
C1156 C1159 1.539 . S
C1157 C1153 1.408 . S
C1157 C1156 1.404 . S
C1157 H1169 0.930 . S
C1158 C1154 1.524 . S
C1158 H1170 0.956 . S
C1158 H1171 0.961 . S
C1158 H1172 0.961 . S
C1159 C1156 1.539 . S
C1159 H1173 0.958 . S
C1159 H1174 0.961 . S
C1159 H1175 0.960 . S
H1160 C1144 0.931 . S
H1161 C1149 0.929 . S
H1162 C1150 0.960 . S
H1163 C1150 0.962 . S
H1164 C1150 0.960 . S
H1165 C1151 0.961 . S
H1166 C1151 0.961 . S
H1167 C1151 0.961 . S
H1168 C1152 0.931 . S
H1169 C1157 0.930 . S
H1170 C1158 0.956 . S
H1171 C1158 0.961 . S
H1172 C1158 0.961 . S
H1173 C1159 0.958 . S
H1174 C1159 0.961 . S
H1175 C1159 0.960 . S
C1176 C1177 1.391 . S
C1176 C1178 1.394 . S
C1176 H1192 0.931 . S
C1177 C1176 1.391 . S
C1177 C1181 1.376 . S
C1178 C1176 1.394 . S
C1178 C1179 1.369 . S
C1178 C1182 1.531 1_545 S
C1179 C1178 1.369 . S
C1179 C1180 1.410 . S
C1179 C1187 1.503 . S
C1180 C1179 1.410 . S
C1180 C1181 1.392 . S
C1180 C1183 1.511 . S
C1181 C1177 1.376 . S
C1181 C1180 1.392 . S
C1181 H1193 0.929 . S
C1182 C1178 1.531 1_565 S
C1182 H1194 0.960 . S
C1182 H1195 0.962 . S
C1182 H1196 0.960 . S
C1183 C1180 1.511 . S
C1183 H1197 0.961 . S
C1183 H1198 0.961 . S
C1183 H1199 0.961 . S
C1184 C1185 1.370 . S
C1184 C1186 1.363 . S
C1184 H1200 0.931 . S
C1185 C1184 1.370 . S
C1185 C1189 1.408 . S
C1186 C1184 1.363 . S
C1186 C1187 1.370 . S
C1186 C1190 1.524 . S
C1187 C1179 1.503 . S
C1187 C1186 1.370 . S
C1187 C1188 1.403 . S
C1188 C1187 1.403 . S
C1188 C1189 1.404 . S
C1188 C1191 1.539 . S
C1189 C1185 1.408 . S
C1189 C1188 1.404 . S
C1189 H1201 0.924 1_545 S
C1190 C1186 1.524 . S
C1190 H1202 0.956 . S
C1190 H1203 0.961 . S
C1190 H1204 0.961 . S
C1191 C1188 1.539 . S
C1191 H1205 0.958 1_545 S
C1191 H1206 0.961 . S
C1191 H1207 0.960 . S
H1192 C1176 0.931 . S
H1193 C1181 0.929 . S
H1194 C1182 0.960 . S
H1195 C1182 0.962 . S
H1196 C1182 0.960 . S
H1197 C1183 0.961 . S
H1198 C1183 0.961 . S
H1199 C1183 0.961 . S
H1200 C1184 0.931 . S
H1201 C1189 0.924 1_565 S
H1202 C1190 0.956 . S
H1203 C1190 0.961 . S
H1204 C1190 0.961 . S
H1205 C1191 0.958 1_565 S
H1206 C1191 0.961 . S
H1207 C1191 0.960 . S
C1208 C1209 1.391 . S
C1208 C1210 1.394 . S
C1208 H1224 0.931 . S
C1209 C1208 1.391 . S
C1209 C1213 1.376 . S
C1210 C1208 1.394 . S
C1210 C1211 1.369 . S
C1210 C1214 1.531 . S
C1211 C1210 1.369 . S
C1211 C1212 1.410 . S
C1211 C1219 1.503 . S
C1212 C1211 1.410 . S
C1212 C1213 1.392 . S
C1212 C1215 1.511 . S
C1213 C1209 1.376 . S
C1213 C1212 1.392 . S
C1213 H1225 0.929 . S
C1214 C1210 1.531 . S
C1214 H1226 0.960 . S
C1214 H1227 0.962 . S
C1214 H1228 0.960 . S
C1215 C1212 1.511 . S
C1215 H1229 0.961 . S
C1215 H1230 0.961 . S
C1215 H1231 0.961 . S
C1216 C1217 1.370 . S
C1216 C1218 1.363 . S
C1216 H1232 0.931 . S
C1217 C1216 1.370 . S
C1217 C1221 1.408 . S
C1218 C1216 1.363 . S
C1218 C1219 1.370 . S
C1218 C1222 1.524 . S
C1219 C1211 1.503 . S
C1219 C1218 1.370 . S
C1219 C1220 1.403 . S
C1220 C1219 1.403 . S
C1220 C1221 1.404 . S
C1220 C1223 1.539 . S
C1221 C1217 1.408 . S
C1221 C1220 1.404 . S
C1221 H1233 0.930 . S
C1222 C1218 1.524 . S
C1222 H1234 0.956 . S
C1222 H1235 0.961 . S
C1222 H1236 0.961 . S
C1223 C1220 1.539 . S
C1223 H1237 0.958 . S
C1223 H1238 0.961 . S
C1223 H1239 0.960 . S
H1224 C1208 0.931 . S
H1225 C1213 0.929 . S
H1226 C1214 0.960 . S
H1227 C1214 0.962 . S
H1228 C1214 0.960 . S
H1229 C1215 0.961 . S
H1230 C1215 0.961 . S
H1231 C1215 0.961 . S
H1232 C1216 0.931 . S
H1233 C1221 0.930 . S
H1234 C1222 0.956 . S
H1235 C1222 0.961 . S
H1236 C1222 0.961 . S
H1237 C1223 0.958 . S
H1238 C1223 0.961 . S
H1239 C1223 0.960 . S
C1240 C1241 1.391 . S
C1240 C1242 1.394 . S
C1240 H1256 0.931 . S
C1241 C1240 1.391 . S
C1241 C1245 1.376 . S
C1242 C1240 1.394 . S
C1242 C1243 1.369 . S
C1242 C1246 1.531 . S
C1243 C1242 1.369 . S
C1243 C1244 1.410 . S
C1243 C1251 1.503 . S
C1244 C1243 1.410 . S
C1244 C1245 1.392 . S
C1244 C1247 1.511 . S
C1245 C1241 1.376 . S
C1245 C1244 1.392 . S
C1245 H1257 0.929 . S
C1246 C1242 1.531 . S
C1246 H1258 0.960 . S
C1246 H1259 0.962 . S
C1246 H1260 0.960 . S
C1247 C1244 1.511 . S
C1247 H1261 0.961 . S
C1247 H1262 0.961 . S
C1247 H1263 0.961 . S
C1248 C1249 1.370 . S
C1248 C1250 1.363 . S
C1248 H1264 0.931 . S
C1249 C1248 1.370 . S
C1249 C1253 1.408 . S
C1250 C1248 1.363 . S
C1250 C1251 1.370 . S
C1250 C1254 1.524 . S
C1251 C1243 1.503 . S
C1251 C1250 1.370 . S
C1251 C1252 1.403 . S
C1252 C1251 1.403 . S
C1252 C1253 1.404 . S
C1252 C1255 1.539 . S
C1253 C1249 1.408 . S
C1253 C1252 1.404 . S
C1253 H1265 0.930 . S
C1254 C1250 1.524 . S
C1254 H1266 0.956 . S
C1254 H1267 0.961 . S
C1254 H1268 0.961 . S
C1255 C1252 1.539 . S
C1255 H1269 0.958 . S
C1255 H1270 0.961 . S
C1255 H1271 0.960 . S
H1256 C1240 0.931 . S
H1257 C1245 0.929 . S
H1258 C1246 0.960 . S
H1259 C1246 0.962 . S
H1260 C1246 0.960 . S
H1261 C1247 0.961 . S
H1262 C1247 0.961 . S
H1263 C1247 0.961 . S
H1264 C1248 0.931 . S
H1265 C1253 0.930 . S
H1266 C1254 0.956 . S
H1267 C1254 0.961 . S
H1268 C1254 0.961 . S
H1269 C1255 0.958 . S
H1270 C1255 0.961 . S
H1271 C1255 0.960 . S
C1272 C1273 1.391 . S
C1272 C1274 1.394 . S
C1272 H1288 0.931 . S
C1273 C1272 1.391 . S
C1273 C1277 1.376 . S
C1274 C1272 1.394 . S
C1274 C1275 1.369 . S
C1274 C1278 1.531 . S
C1275 C1274 1.369 . S
C1275 C1276 1.410 . S
C1275 C1283 1.503 . S
C1276 C1275 1.410 . S
C1276 C1277 1.392 . S
C1276 C1279 1.511 . S
C1277 C1273 1.376 . S
C1277 C1276 1.392 . S
C1277 H1289 0.929 . S
C1278 C1274 1.531 . S
C1278 H1290 0.960 . S
C1278 H1291 0.962 . S
C1278 H1292 0.960 . S
C1279 C1276 1.511 . S
C1279 H1293 0.961 . S
C1279 H1294 0.961 . S
C1279 H1295 0.961 . S
C1280 C1281 1.370 . S
C1280 C1282 1.363 . S
C1280 H1296 0.931 . S
C1281 C1280 1.370 . S
C1281 C1285 1.408 . S
C1282 C1280 1.363 . S
C1282 C1283 1.370 . S
C1282 C1286 1.524 . S
C1283 C1275 1.503 . S
C1283 C1282 1.370 . S
C1283 C1284 1.403 . S
C1284 C1283 1.403 . S
C1284 C1285 1.404 . S
C1284 C1287 1.539 . S
C1285 C1281 1.408 . S
C1285 C1284 1.404 . S
C1285 H1297 0.930 . S
C1286 C1282 1.524 . S
C1286 H1298 0.956 . S
C1286 H1299 0.961 . S
C1286 H1300 0.961 . S
C1287 C1284 1.539 . S
C1287 H1301 0.958 . S
C1287 H1302 0.961 . S
C1287 H1303 0.960 . S
H1288 C1272 0.931 . S
H1289 C1277 0.929 . S
H1290 C1278 0.960 . S
H1291 C1278 0.962 . S
H1292 C1278 0.960 . S
H1293 C1279 0.961 . S
H1294 C1279 0.961 . S
H1295 C1279 0.961 . S
H1296 C1280 0.931 . S
H1297 C1285 0.930 . S
H1298 C1286 0.956 . S
H1299 C1286 0.961 . S
H1300 C1286 0.961 . S
H1301 C1287 0.958 . S
H1302 C1287 0.961 . S
H1303 C1287 0.960 . S
C1304 C1305 1.391 1_455 S
C1304 C1306 1.394 1_455 S
C1304 H1320 0.931 . S
C1305 C1304 1.391 1_655 S
C1305 C1309 1.376 . S
C1306 C1304 1.394 1_655 S
C1306 C1307 1.369 . S
C1306 C1310 1.531 . S
C1307 C1306 1.369 . S
C1307 C1308 1.410 . S
C1307 C1315 1.503 . S
C1308 C1307 1.410 . S
C1308 C1309 1.392 . S
C1308 C1311 1.511 1_545 S
C1309 C1305 1.376 . S
C1309 C1308 1.392 . S
C1309 H1321 0.960 . S
C1310 C1306 1.531 . S
C1310 H1322 0.960 . S
C1310 H1323 0.962 1_655 S
C1310 H1324 0.950 1_655 S
C1311 C1308 1.511 1_565 S
C1311 H1325 0.961 . S
C1311 H1326 0.961 . S
C1311 H1327 0.961 . S
C1312 C1313 1.370 . S
C1312 C1314 1.363 . S
C1312 H1328 0.931 . S
C1313 C1312 1.370 . S
C1313 C1317 1.408 . S
C1314 C1312 1.363 . S
C1314 C1315 1.370 . S
C1314 C1318 1.524 . S
C1315 C1307 1.503 . S
C1315 C1314 1.370 . S
C1315 C1316 1.403 . S
C1316 C1315 1.403 . S
C1316 C1317 1.404 . S
C1316 C1319 1.539 . S
C1317 C1313 1.408 . S
C1317 C1316 1.404 . S
C1317 H1329 0.930 . S
C1318 C1314 1.524 . S
C1318 H1330 0.959 . S
C1318 H1331 0.961 1_545 S
C1318 H1332 0.961 1_545 S
C1319 C1316 1.539 . S
C1319 H1333 0.958 . S
C1319 H1334 0.961 . S
C1319 H1335 0.960 . S
H1320 C1304 0.931 . S
H1321 C1309 0.960 . S
H1322 C1310 0.960 . S
H1323 C1310 0.962 1_455 S
H1324 C1310 0.950 1_455 S
H1325 C1311 0.961 . S
H1326 C1311 0.961 . S
H1327 C1311 0.961 . S
H1328 C1312 0.931 . S
H1329 C1317 0.930 . S
H1330 C1318 0.959 . S
H1331 C1318 0.961 1_565 S
H1332 C1318 0.961 1_565 S
H1333 C1319 0.958 . S
H1334 C1319 0.961 . S
H1335 C1319 0.960 . S
C1336 C1337 1.391 . S
C1336 C1338 1.394 . S
C1336 H1352 0.931 . S
C1337 C1336 1.391 . S
C1337 C1341 1.376 . S
C1338 C1336 1.394 . S
C1338 C1339 1.369 . S
C1338 C1342 1.531 . S
C1339 C1338 1.369 . S
C1339 C1340 1.410 . S
C1339 C1347 1.503 . S
C1340 C1339 1.410 . S
C1340 C1341 1.392 . S
C1340 C1343 1.511 . S
C1341 C1337 1.376 . S
C1341 C1340 1.392 . S
C1341 H1353 0.929 . S
C1342 C1338 1.531 . S
C1342 H1354 0.960 . S
C1342 H1355 0.962 . S
C1342 H1356 0.960 . S
C1343 C1340 1.511 . S
C1343 H1357 0.961 . S
C1343 H1358 0.961 . S
C1343 H1359 0.961 . S
C1344 C1345 1.370 . S
C1344 C1346 1.363 . S
C1344 H1360 0.931 . S
C1345 C1344 1.370 . S
C1345 C1349 1.408 . S
C1346 C1344 1.363 . S
C1346 C1347 1.370 . S
C1346 C1350 1.524 . S
C1347 C1339 1.503 . S
C1347 C1346 1.370 . S
C1347 C1348 1.403 . S
C1348 C1347 1.403 . S
C1348 C1349 1.404 . S
C1348 C1351 1.539 . S
C1349 C1345 1.408 . S
C1349 C1348 1.404 . S
C1349 H1361 0.930 . S
C1350 C1346 1.524 . S
C1350 H1362 0.956 . S
C1350 H1363 0.961 . S
C1350 H1364 0.961 . S
C1351 C1348 1.539 . S
C1351 H1365 0.958 . S
C1351 H1366 0.961 . S
C1351 H1367 0.960 . S
H1352 C1336 0.931 . S
H1353 C1341 0.929 . S
H1354 C1342 0.960 . S
H1355 C1342 0.962 . S
H1356 C1342 0.960 . S
H1357 C1343 0.961 . S
H1358 C1343 0.961 . S
H1359 C1343 0.961 . S
H1360 C1344 0.931 . S
H1361 C1349 0.930 . S
H1362 C1350 0.956 . S
H1363 C1350 0.961 . S
H1364 C1350 0.961 . S
H1365 C1351 0.958 . S
H1366 C1351 0.961 . S
H1367 C1351 0.960 . S
C1368 C1369 1.391 . S
C1368 C1370 1.394 . S
C1368 H1384 0.931 . S
C1369 C1368 1.391 . S
C1369 C1373 1.376 . S
C1370 C1368 1.394 . S
C1370 C1371 1.369 . S
C1370 C1374 1.531 . S
C1371 C1370 1.369 . S
C1371 C1372 1.410 . S
C1371 C1379 1.503 . S
C1372 C1371 1.410 . S
C1372 C1373 1.392 . S
C1372 C1375 1.511 . S
C1373 C1369 1.376 . S
C1373 C1372 1.392 . S
C1373 H1385 0.929 . S
C1374 C1370 1.531 . S
C1374 H1386 0.960 . S
C1374 H1387 0.962 . S
C1374 H1388 0.960 . S
C1375 C1372 1.511 . S
C1375 H1389 0.961 . S
C1375 H1390 0.961 . S
C1375 H1391 0.961 . S
C1376 C1377 1.370 . S
C1376 C1378 1.363 . S
C1376 H1392 0.931 . S
C1377 C1376 1.370 . S
C1377 C1381 1.408 . S
C1378 C1376 1.363 . S
C1378 C1379 1.370 . S
C1378 C1382 1.524 . S
C1379 C1371 1.503 . S
C1379 C1378 1.370 . S
C1379 C1380 1.403 . S
C1380 C1379 1.403 . S
C1380 C1381 1.404 . S
C1380 C1383 1.539 . S
C1381 C1377 1.408 . S
C1381 C1380 1.404 . S
C1381 H1393 0.930 . S
C1382 C1378 1.524 . S
C1382 H1394 0.956 . S
C1382 H1395 0.961 . S
C1382 H1396 0.961 . S
C1383 C1380 1.539 . S
C1383 H1397 0.958 . S
C1383 H1398 0.961 . S
C1383 H1399 0.960 . S
H1384 C1368 0.931 . S
H1385 C1373 0.929 . S
H1386 C1374 0.960 . S
H1387 C1374 0.962 . S
H1388 C1374 0.960 . S
H1389 C1375 0.961 . S
H1390 C1375 0.961 . S
H1391 C1375 0.961 . S
H1392 C1376 0.931 . S
H1393 C1381 0.930 . S
H1394 C1382 0.956 . S
H1395 C1382 0.961 . S
H1396 C1382 0.961 . S
H1397 C1383 0.958 . S
H1398 C1383 0.961 . S
H1399 C1383 0.960 . S
C1400 C1401 1.391 . S
C1400 C1402 1.394 . S
C1400 H1416 0.931 . S
C1401 C1400 1.391 . S
C1401 C1405 1.376 . S
C1402 C1400 1.394 . S
C1402 C1403 1.369 . S
C1402 C1406 1.531 . S
C1403 C1402 1.369 . S
C1403 C1404 1.410 . S
C1403 C1411 1.503 . S
C1404 C1403 1.410 . S
C1404 C1405 1.392 . S
C1404 C1407 1.511 . S
C1405 C1401 1.376 . S
C1405 C1404 1.392 . S
C1405 H1417 0.929 . S
C1406 C1402 1.531 . S
C1406 H1418 0.960 . S
C1406 H1419 0.962 . S
C1406 H1420 0.960 . S
C1407 C1404 1.511 . S
C1407 H1421 0.961 . S
C1407 H1422 0.961 . S
C1407 H1423 0.961 . S
C1408 C1409 1.370 . S
C1408 C1410 1.363 . S
C1408 H1424 0.931 . S
C1409 C1408 1.370 . S
C1409 C1413 1.408 . S
C1410 C1408 1.363 . S
C1410 C1411 1.370 . S
C1410 C1414 1.524 . S
C1411 C1403 1.503 . S
C1411 C1410 1.370 . S
C1411 C1412 1.403 . S
C1412 C1411 1.403 . S
C1412 C1413 1.404 . S
C1412 C1415 1.539 . S
C1413 C1409 1.408 . S
C1413 C1412 1.404 . S
C1413 H1425 0.930 . S
C1414 C1410 1.524 . S
C1414 H1426 0.956 . S
C1414 H1427 0.961 . S
C1414 H1428 0.961 . S
C1415 C1412 1.539 . S
C1415 H1429 0.958 . S
C1415 H1430 0.961 . S
C1415 H1431 0.960 . S
H1416 C1400 0.931 . S
H1417 C1405 0.929 . S
H1418 C1406 0.960 . S
H1419 C1406 0.962 . S
H1420 C1406 0.960 . S
H1421 C1407 0.961 . S
H1422 C1407 0.961 . S
H1423 C1407 0.961 . S
H1424 C1408 0.931 . S
H1425 C1413 0.930 . S
H1426 C1414 0.956 . S
H1427 C1414 0.961 . S
H1428 C1414 0.961 . S
H1429 C1415 0.958 . S
H1430 C1415 0.961 . S
H1431 C1415 0.960 . S
C1432 C1433 1.391 . S
C1432 C1434 1.394 1_554 S
C1432 H1448 0.931 . S
C1433 C1432 1.391 . S
C1433 C1437 1.376 . S
C1434 C1432 1.394 1_556 S
C1434 C1435 1.369 . S
C1434 C1438 1.531 . S
C1435 C1434 1.369 . S
C1435 C1436 1.410 1_556 S
C1435 C1443 1.503 . S
C1436 C1435 1.410 1_554 S
C1436 C1437 1.392 . S
C1436 C1439 1.511 1_655 S
C1437 C1433 1.376 . S
C1437 C1436 1.392 . S
C1437 H1449 0.929 . S
C1438 C1434 1.531 . S
C1438 H1450 0.960 . S
C1438 H1451 0.962 . S
C1438 H1452 0.960 . S
C1439 C1436 1.511 1_455 S
C1439 H1453 0.961 . S
C1439 H1454 0.961 . S
C1439 H1455 0.961 . S
C1440 C1441 1.370 . S
C1440 C1442 1.363 . S
C1440 H1456 0.931 . S
C1441 C1440 1.370 . S
C1441 C1445 1.408 1_655 S
C1442 C1440 1.363 . S
C1442 C1443 1.370 . S
C1442 C1446 1.524 . S
C1443 C1435 1.503 . S
C1443 C1442 1.370 . S
C1443 C1444 1.403 1_655 S
C1444 C1443 1.403 1_455 S
C1444 C1445 1.404 . S
C1444 C1447 1.539 . S
C1445 C1441 1.408 1_455 S
C1445 C1444 1.404 . S
C1445 H1457 0.930 . S
C1446 C1442 1.524 . S
C1446 H1458 0.956 . S
C1446 H1459 0.961 1_556 S
C1446 H1460 0.961 . S
C1447 C1444 1.539 . S
C1447 H1461 0.958 . S
C1447 H1462 0.961 . S
C1447 H1463 0.960 . S
H1448 C1432 0.931 . S
H1449 C1437 0.929 . S
H1450 C1438 0.960 . S
H1451 C1438 0.962 . S
H1452 C1438 0.960 . S
H1453 C1439 0.961 . S
H1454 C1439 0.961 . S
H1455 C1439 0.961 . S
H1456 C1440 0.931 . S
H1457 C1445 0.930 . S
H1458 C1446 0.956 . S
H1459 C1446 0.961 1_554 S
H1460 C1446 0.961 . S
H1461 C1447 0.958 . S
H1462 C1447 0.961 . S
H1463 C1447 0.960 . S
C1464 C1465 1.391 . S
C1464 C1466 1.394 . S
C1464 H1480 0.931 . S
C1465 C1464 1.391 . S
C1465 C1469 1.376 . S
C1466 C1464 1.394 . S
C1466 C1467 1.369 . S
C1466 C1470 1.531 . S
C1467 C1466 1.369 . S
C1467 C1468 1.410 . S
C1467 C1475 1.503 . S
C1468 C1467 1.410 . S
C1468 C1469 1.392 . S
C1468 C1471 1.511 . S
C1469 C1465 1.376 . S
C1469 C1468 1.392 . S
C1469 H1481 0.929 . S
C1470 C1466 1.531 . S
C1470 H1482 0.960 . S
C1470 H1483 0.962 . S
C1470 H1484 0.960 . S
C1471 C1468 1.511 . S
C1471 H1485 0.961 . S
C1471 H1486 0.961 . S
C1471 H1487 0.961 . S
C1472 C1473 1.370 . S
C1472 C1474 1.363 . S
C1472 H1488 0.931 . S
C1473 C1472 1.370 . S
C1473 C1477 1.408 . S
C1474 C1472 1.363 . S
C1474 C1475 1.370 . S
C1474 C1478 1.524 . S
C1475 C1467 1.503 . S
C1475 C1474 1.370 . S
C1475 C1476 1.403 . S
C1476 C1475 1.403 . S
C1476 C1477 1.404 . S
C1476 C1479 1.539 . S
C1477 C1473 1.408 . S
C1477 C1476 1.404 . S
C1477 H1489 0.930 . S
C1478 C1474 1.524 . S
C1478 H1490 0.956 . S
C1478 H1491 0.961 . S
C1478 H1492 0.961 . S
C1479 C1476 1.539 . S
C1479 H1493 0.958 . S
C1479 H1494 0.961 . S
C1479 H1495 0.960 . S
H1480 C1464 0.931 . S
H1481 C1469 0.929 . S
H1482 C1470 0.960 . S
H1483 C1470 0.962 . S
H1484 C1470 0.960 . S
H1485 C1471 0.961 . S
H1486 C1471 0.961 . S
H1487 C1471 0.961 . S
H1488 C1472 0.931 . S
H1489 C1477 0.930 . S
H1490 C1478 0.956 . S
H1491 C1478 0.961 . S
H1492 C1478 0.961 . S
H1493 C1479 0.958 . S
H1494 C1479 0.961 . S
H1495 C1479 0.960 . S
C1496 C1497 1.391 1_655 S
C1496 C1498 1.394 1_554 S
C1496 H1512 0.931 . S
C1497 C1496 1.391 1_455 S
C1497 C1501 1.376 . S
C1498 C1496 1.394 1_556 S
C1498 C1499 1.369 1_655 S
C1498 C1502 1.531 . S
C1499 C1498 1.369 1_455 S
C1499 C1500 1.410 . S
C1499 C1507 1.503 . S
C1500 C1499 1.410 . S
C1500 C1501 1.392 1_556 S
C1500 C1503 1.511 . S
C1501 C1497 1.376 . S
C1501 C1500 1.392 1_554 S
C1501 H1513 0.929 . S
C1502 C1498 1.531 . S
C1502 H1514 0.960 . S
C1502 H1515 0.962 . S
C1502 H1516 0.960 . S
C1503 C1500 1.511 . S
C1503 H1517 0.961 . S
C1503 H1518 0.961 . S
C1503 H1519 0.961 1_556 S
C1504 C1505 1.370 . S
C1504 C1506 1.363 . S
C1504 H1520 0.931 . S
C1505 C1504 1.370 . S
C1505 C1509 1.408 . S
C1506 C1504 1.363 . S
C1506 C1507 1.370 . S
C1506 C1510 1.524 . S
C1507 C1499 1.503 . S
C1507 C1506 1.370 . S
C1507 C1508 1.403 . S
C1508 C1507 1.403 . S
C1508 C1509 1.404 . S
C1508 C1511 1.539 1_556 S
C1509 C1505 1.408 . S
C1509 C1508 1.404 . S
C1509 H1521 0.930 . S
C1510 C1506 1.524 . S
C1510 H1522 0.956 . S
C1510 H1523 0.961 . S
C1510 H1524 0.961 . S
C1511 C1508 1.539 1_554 S
C1511 H1525 0.958 1_455 S
C1511 H1526 0.961 . S
C1511 H1527 0.960 . S
H1512 C1496 0.931 . S
H1513 C1501 0.929 . S
H1514 C1502 0.960 . S
H1515 C1502 0.962 . S
H1516 C1502 0.960 . S
H1517 C1503 0.961 . S
H1518 C1503 0.961 . S
H1519 C1503 0.961 1_554 S
H1520 C1504 0.931 . S
H1521 C1509 0.930 . S
H1522 C1510 0.956 . S
H1523 C1510 0.961 . S
H1524 C1510 0.961 . S
H1525 C1511 0.958 1_655 S
H1526 C1511 0.961 . S
H1527 C1511 0.960 . S
C1528 C1529 1.391 . S
C1528 C1530 1.394 . S
C1528 H1544 0.931 . S
C1529 C1528 1.391 . S
C1529 C1533 1.376 . S
C1530 C1528 1.394 . S
C1530 C1531 1.369 . S
C1530 C1534 1.531 . S
C1531 C1530 1.369 . S
C1531 C1532 1.410 . S
C1531 C1539 1.503 . S
C1532 C1531 1.410 . S
C1532 C1533 1.392 . S
C1532 C1535 1.511 . S
C1533 C1529 1.376 . S
C1533 C1532 1.392 . S
C1533 H1545 0.929 . S
C1534 C1530 1.531 . S
C1534 H1546 0.960 . S
C1534 H1547 0.962 . S
C1534 H1548 0.960 . S
C1535 C1532 1.511 . S
C1535 H1549 0.961 . S
C1535 H1550 0.961 . S
C1535 H1551 0.961 . S
C1536 C1537 1.370 . S
C1536 C1538 1.363 . S
C1536 H1552 0.931 . S
C1537 C1536 1.370 . S
C1537 C1541 1.408 . S
C1538 C1536 1.363 . S
C1538 C1539 1.370 . S
C1538 C1542 1.524 . S
C1539 C1531 1.503 . S
C1539 C1538 1.370 . S
C1539 C1540 1.403 . S
C1540 C1539 1.403 . S
C1540 C1541 1.404 . S
C1540 C1543 1.539 . S
C1541 C1537 1.408 . S
C1541 C1540 1.404 . S
C1541 H1553 0.930 . S
C1542 C1538 1.524 . S
C1542 H1554 0.956 . S
C1542 H1555 0.961 . S
C1542 H1556 0.961 . S
C1543 C1540 1.539 . S
C1543 H1557 0.958 . S
C1543 H1558 0.961 . S
C1543 H1559 0.960 . S
H1544 C1528 0.931 . S
H1545 C1533 0.929 . S
H1546 C1534 0.960 . S
H1547 C1534 0.962 . S
H1548 C1534 0.960 . S
H1549 C1535 0.961 . S
H1550 C1535 0.961 . S
H1551 C1535 0.961 . S
H1552 C1536 0.931 . S
H1553 C1541 0.930 . S
H1554 C1542 0.956 . S
H1555 C1542 0.961 . S
H1556 C1542 0.961 . S
H1557 C1543 0.958 . S
H1558 C1543 0.961 . S
H1559 C1543 0.960 . S
C1560 C1561 1.391 . S
C1560 C1562 1.394 . S
C1560 H1576 0.931 . S
C1561 C1560 1.391 . S
C1561 C1565 1.377 . S
C1562 C1560 1.394 . S
C1562 C1563 1.369 . S
C1562 C1566 1.531 . S
C1563 C1562 1.369 . S
C1563 C1564 1.410 . S
C1563 C1571 1.503 . S
C1564 C1563 1.410 . S
C1564 C1565 1.399 . S
C1564 C1567 1.511 . S
C1565 C1561 1.377 . S
C1565 C1564 1.399 . S
C1565 H1577 0.921 1_554 S
C1566 C1562 1.531 . S
C1566 H1578 0.960 . S
C1566 H1579 0.962 . S
C1566 H1580 0.960 . S
C1567 C1564 1.511 . S
C1567 H1581 0.961 1_554 S
C1567 H1582 0.961 . S
C1567 H1583 0.961 . S
C1568 C1569 1.370 . S
C1568 C1570 1.363 . S
C1568 H1584 0.931 . S
C1569 C1568 1.370 . S
C1569 C1573 1.408 . S
C1570 C1568 1.363 . S
C1570 C1571 1.370 . S
C1570 C1574 1.524 . S
C1571 C1563 1.503 . S
C1571 C1570 1.370 . S
C1571 C1572 1.403 . S
C1572 C1571 1.403 . S
C1572 C1573 1.404 . S
C1572 C1575 1.539 . S
C1573 C1569 1.408 . S
C1573 C1572 1.404 . S
C1573 H1585 0.930 . S
C1574 C1570 1.524 . S
C1574 H1586 0.956 . S
C1574 H1587 0.961 . S
C1574 H1588 0.961 . S
C1575 C1572 1.539 . S
C1575 H1589 0.958 . S
C1575 H1590 0.961 . S
C1575 H1591 0.960 . S
H1576 C1560 0.931 . S
H1577 C1565 0.921 1_556 S
H1578 C1566 0.960 . S
H1579 C1566 0.962 . S
H1580 C1566 0.960 . S
H1581 C1567 0.961 1_556 S
H1582 C1567 0.961 . S
H1583 C1567 0.961 . S
H1584 C1568 0.931 . S
H1585 C1573 0.930 . S
H1586 C1574 0.956 . S
H1587 C1574 0.961 . S
H1588 C1574 0.961 . S
H1589 C1575 0.958 . S
H1590 C1575 0.961 . S
H1591 C1575 0.960 . S
C1592 C1593 1.391 . S
C1592 C1594 1.394 . S
C1592 H1608 0.931 . S
C1593 C1592 1.391 . S
C1593 C1597 1.376 . S
C1594 C1592 1.394 . S
C1594 C1595 1.369 . S
C1594 C1598 1.531 . S
C1595 C1594 1.369 . S
C1595 C1596 1.410 . S
C1595 C1603 1.503 . S
C1596 C1595 1.410 . S
C1596 C1597 1.392 . S
C1596 C1599 1.511 . S
C1597 C1593 1.376 . S
C1597 C1596 1.392 . S
C1597 H1609 0.929 . S
C1598 C1594 1.531 . S
C1598 H1610 0.960 . S
C1598 H1611 0.962 . S
C1598 H1612 0.960 . S
C1599 C1596 1.511 . S
C1599 H1613 0.961 . S
C1599 H1614 0.961 . S
C1599 H1615 0.961 . S
C1600 C1601 1.370 . S
C1600 C1602 1.363 . S
C1600 H1616 0.931 . S
C1601 C1600 1.370 . S
C1601 C1605 1.408 . S
C1602 C1600 1.363 . S
C1602 C1603 1.370 . S
C1602 C1606 1.524 . S
C1603 C1595 1.503 . S
C1603 C1602 1.370 . S
C1603 C1604 1.403 . S
C1604 C1603 1.403 . S
C1604 C1605 1.404 . S
C1604 C1607 1.539 . S
C1605 C1601 1.408 . S
C1605 C1604 1.404 . S
C1605 H1617 0.930 . S
C1606 C1602 1.524 . S
C1606 H1618 0.956 . S
C1606 H1619 0.961 . S
C1606 H1620 0.961 . S
C1607 C1604 1.539 . S
C1607 H1621 0.958 . S
C1607 H1622 0.961 . S
C1607 H1623 0.960 . S
H1608 C1592 0.931 . S
H1609 C1597 0.929 . S
H1610 C1598 0.960 . S
H1611 C1598 0.962 . S
H1612 C1598 0.960 . S
H1613 C1599 0.961 . S
H1614 C1599 0.961 . S
H1615 C1599 0.961 . S
H1616 C1600 0.931 . S
H1617 C1605 0.930 . S
H1618 C1606 0.956 . S
H1619 C1606 0.961 . S
H1620 C1606 0.961 . S
H1621 C1607 0.958 . S
H1622 C1607 0.961 . S
H1623 C1607 0.960 . S
C1624 C1625 1.391 . S
C1624 C1626 1.394 . S
C1624 H1640 0.931 . S
C1625 C1624 1.391 . S
C1625 C1629 1.376 . S
C1626 C1624 1.394 . S
C1626 C1627 1.369 . S
C1626 C1630 1.531 . S
C1627 C1626 1.369 . S
C1627 C1628 1.410 . S
C1627 C1635 1.503 . S
C1628 C1627 1.410 . S
C1628 C1629 1.392 . S
C1628 C1631 1.511 . S
C1629 C1625 1.376 . S
C1629 C1628 1.392 . S
C1629 H1641 0.929 . S
C1630 C1626 1.531 . S
C1630 H1642 0.960 . S
C1630 H1643 0.962 . S
C1630 H1644 0.960 . S
C1631 C1628 1.511 . S
C1631 H1645 0.961 . S
C1631 H1646 0.961 . S
C1631 H1647 0.961 . S
C1632 C1633 1.370 . S
C1632 C1634 1.363 . S
C1632 H1648 0.931 . S
C1633 C1632 1.370 . S
C1633 C1637 1.408 . S
C1634 C1632 1.363 . S
C1634 C1635 1.370 . S
C1634 C1638 1.524 . S
C1635 C1627 1.503 . S
C1635 C1634 1.370 . S
C1635 C1636 1.403 . S
C1636 C1635 1.403 . S
C1636 C1637 1.404 . S
C1636 C1639 1.539 . S
C1637 C1633 1.408 . S
C1637 C1636 1.404 . S
C1637 H1649 0.930 . S
C1638 C1634 1.524 . S
C1638 H1650 0.956 . S
C1638 H1651 0.961 . S
C1638 H1652 0.961 . S
C1639 C1636 1.539 . S
C1639 H1653 0.958 . S
C1639 H1654 0.961 . S
C1639 H1655 0.960 . S
H1640 C1624 0.931 . S
H1641 C1629 0.929 . S
H1642 C1630 0.960 . S
H1643 C1630 0.962 . S
H1644 C1630 0.960 . S
H1645 C1631 0.961 . S
H1646 C1631 0.961 . S
H1647 C1631 0.961 . S
H1648 C1632 0.931 . S
H1649 C1637 0.930 . S
H1650 C1638 0.956 . S
H1651 C1638 0.961 . S
H1652 C1638 0.961 . S
H1653 C1639 0.958 . S
H1654 C1639 0.961 . S
H1655 C1639 0.960 . S
C1656 C1657 1.391 . S
C1656 C1658 1.394 . S
C1656 H1672 0.931 . S
C1657 C1656 1.391 . S
C1657 C1661 1.376 . S
C1658 C1656 1.394 . S
C1658 C1659 1.369 . S
C1658 C1662 1.531 . S
C1659 C1658 1.369 . S
C1659 C1660 1.410 . S
C1659 C1667 1.503 . S
C1660 C1659 1.410 . S
C1660 C1661 1.392 . S
C1660 C1663 1.511 . S
C1661 C1657 1.376 . S
C1661 C1660 1.392 . S
C1661 H1673 0.929 . S
C1662 C1658 1.531 . S
C1662 H1674 0.960 . S
C1662 H1675 0.962 . S
C1662 H1676 0.960 . S
C1663 C1660 1.511 . S
C1663 H1677 0.961 . S
C1663 H1678 0.961 . S
C1663 H1679 0.961 . S
C1664 C1665 1.370 . S
C1664 C1666 1.363 . S
C1664 H1680 0.931 . S
C1665 C1664 1.370 . S
C1665 C1669 1.408 . S
C1666 C1664 1.363 . S
C1666 C1667 1.370 . S
C1666 C1670 1.524 . S
C1667 C1659 1.503 . S
C1667 C1666 1.370 . S
C1667 C1668 1.403 . S
C1668 C1667 1.403 . S
C1668 C1669 1.404 . S
C1668 C1671 1.539 . S
C1669 C1665 1.408 . S
C1669 C1668 1.404 . S
C1669 H1681 0.930 . S
C1670 C1666 1.524 . S
C1670 H1682 0.956 . S
C1670 H1683 0.961 . S
C1670 H1684 0.961 . S
C1671 C1668 1.539 . S
C1671 H1685 0.958 . S
C1671 H1686 0.961 . S
C1671 H1687 0.960 . S
H1672 C1656 0.931 . S
H1673 C1661 0.929 . S
H1674 C1662 0.960 . S
H1675 C1662 0.962 . S
H1676 C1662 0.960 . S
H1677 C1663 0.961 . S
H1678 C1663 0.961 . S
H1679 C1663 0.961 . S
H1680 C1664 0.931 . S
H1681 C1669 0.930 . S
H1682 C1670 0.956 . S
H1683 C1670 0.961 . S
H1684 C1670 0.961 . S
H1685 C1671 0.958 . S
H1686 C1671 0.961 . S
H1687 C1671 0.960 . S
C1688 C1689 1.391 . S
C1688 C1690 1.394 . S
C1688 H1704 0.931 . S
C1689 C1688 1.391 . S
C1689 C1693 1.376 . S
C1690 C1688 1.394 . S
C1690 C1691 1.369 . S
C1690 C1694 1.531 . S
C1691 C1690 1.369 . S
C1691 C1692 1.410 . S
C1691 C1699 1.503 . S
C1692 C1691 1.410 . S
C1692 C1693 1.392 . S
C1692 C1695 1.511 . S
C1693 C1689 1.376 . S
C1693 C1692 1.392 . S
C1693 H1705 0.929 . S
C1694 C1690 1.531 . S
C1694 H1706 0.960 . S
C1694 H1707 0.962 . S
C1694 H1708 0.960 . S
C1695 C1692 1.511 . S
C1695 H1709 0.961 . S
C1695 H1710 0.961 . S
C1695 H1711 0.961 . S
C1696 C1697 1.370 . S
C1696 C1698 1.363 . S
C1696 H1712 0.931 . S
C1697 C1696 1.370 . S
C1697 C1701 1.408 . S
C1698 C1696 1.363 . S
C1698 C1699 1.370 . S
C1698 C1702 1.524 . S
C1699 C1691 1.503 . S
C1699 C1698 1.370 . S
C1699 C1700 1.403 . S
C1700 C1699 1.403 . S
C1700 C1701 1.404 . S
C1700 C1703 1.539 . S
C1701 C1697 1.408 . S
C1701 C1700 1.404 . S
C1701 H1713 0.930 . S
C1702 C1698 1.524 . S
C1702 H1714 0.956 . S
C1702 H1715 0.961 . S
C1702 H1716 0.961 . S
C1703 C1700 1.539 . S
C1703 H1717 0.958 . S
C1703 H1718 0.961 . S
C1703 H1719 0.960 . S
H1704 C1688 0.931 . S
H1705 C1693 0.929 . S
H1706 C1694 0.960 . S
H1707 C1694 0.962 . S
H1708 C1694 0.960 . S
H1709 C1695 0.961 . S
H1710 C1695 0.961 . S
H1711 C1695 0.961 . S
H1712 C1696 0.931 . S
H1713 C1701 0.930 . S
H1714 C1702 0.956 . S
H1715 C1702 0.961 . S
H1716 C1702 0.961 . S
H1717 C1703 0.958 . S
H1718 C1703 0.961 . S
H1719 C1703 0.960 . S
C1720 C1721 1.391 . S
C1720 C1722 1.394 . S
C1720 H1736 0.931 . S
C1721 C1720 1.391 . S
C1721 C1725 1.376 . S
C1722 C1720 1.394 . S
C1722 C1723 1.369 . S
C1722 C1726 1.531 . S
C1723 C1722 1.369 . S
C1723 C1724 1.410 . S
C1723 C1731 1.503 . S
C1724 C1723 1.410 . S
C1724 C1725 1.392 . S
C1724 C1727 1.511 . S
C1725 C1721 1.376 . S
C1725 C1724 1.392 . S
C1725 H1737 0.929 . S
C1726 C1722 1.531 . S
C1726 H1738 0.960 . S
C1726 H1739 0.962 . S
C1726 H1740 0.960 . S
C1727 C1724 1.511 . S
C1727 H1741 0.961 . S
C1727 H1742 0.961 . S
C1727 H1743 0.961 . S
C1728 C1729 1.370 . S
C1728 C1730 1.363 . S
C1728 H1744 0.931 . S
C1729 C1728 1.370 . S
C1729 C1733 1.408 . S
C1730 C1728 1.363 . S
C1730 C1731 1.370 . S
C1730 C1734 1.524 . S
C1731 C1723 1.503 . S
C1731 C1730 1.370 . S
C1731 C1732 1.403 . S
C1732 C1731 1.403 . S
C1732 C1733 1.404 . S
C1732 C1735 1.539 . S
C1733 C1729 1.408 . S
C1733 C1732 1.404 . S
C1733 H1745 0.930 . S
C1734 C1730 1.524 . S
C1734 H1746 0.956 . S
C1734 H1747 0.961 . S
C1734 H1748 0.961 . S
C1735 C1732 1.539 . S
C1735 H1749 0.958 . S
C1735 H1750 0.961 . S
C1735 H1751 0.960 . S
H1736 C1720 0.931 . S
H1737 C1725 0.929 . S
H1738 C1726 0.960 . S
H1739 C1726 0.962 . S
H1740 C1726 0.960 . S
H1741 C1727 0.961 . S
H1742 C1727 0.961 . S
H1743 C1727 0.961 . S
H1744 C1728 0.931 . S
H1745 C1733 0.930 . S
H1746 C1734 0.956 . S
H1747 C1734 0.961 . S
H1748 C1734 0.961 . S
H1749 C1735 0.958 . S
H1750 C1735 0.961 . S
H1751 C1735 0.960 . S
C1752 C1753 1.391 . S
C1752 C1754 1.394 . S
C1752 H1768 0.931 . S
C1753 C1752 1.391 . S
C1753 C1757 1.376 . S
C1754 C1752 1.394 . S
C1754 C1755 1.369 . S
C1754 C1758 1.531 . S
C1755 C1754 1.369 . S
C1755 C1756 1.410 . S
C1755 C1763 1.503 . S
C1756 C1755 1.410 . S
C1756 C1757 1.392 . S
C1756 C1759 1.511 . S
C1757 C1753 1.376 . S
C1757 C1756 1.392 . S
C1757 H1769 0.929 . S
C1758 C1754 1.531 . S
C1758 H1770 0.960 . S
C1758 H1771 0.962 . S
C1758 H1772 0.960 . S
C1759 C1756 1.511 . S
C1759 H1773 0.961 . S
C1759 H1774 0.961 . S
C1759 H1775 0.961 . S
C1760 C1761 1.370 . S
C1760 C1762 1.363 . S
C1760 H1776 0.931 . S
C1761 C1760 1.370 . S
C1761 C1765 1.408 . S
C1762 C1760 1.363 . S
C1762 C1763 1.370 . S
C1762 C1766 1.524 . S
C1763 C1755 1.503 . S
C1763 C1762 1.370 . S
C1763 C1764 1.403 . S
C1764 C1763 1.403 . S
C1764 C1765 1.404 . S
C1764 C1767 1.539 . S
C1765 C1761 1.408 . S
C1765 C1764 1.404 . S
C1765 H1777 0.930 . S
C1766 C1762 1.524 . S
C1766 H1778 0.956 . S
C1766 H1779 0.961 . S
C1766 H1780 0.961 . S
C1767 C1764 1.539 . S
C1767 H1781 0.958 . S
C1767 H1782 0.961 . S
C1767 H1783 0.960 . S
H1768 C1752 0.931 . S
H1769 C1757 0.929 . S
H1770 C1758 0.960 . S
H1771 C1758 0.962 . S
H1772 C1758 0.960 . S
H1773 C1759 0.961 . S
H1774 C1759 0.961 . S
H1775 C1759 0.961 . S
H1776 C1760 0.931 . S
H1777 C1765 0.930 . S
H1778 C1766 0.956 . S
H1779 C1766 0.961 . S
H1780 C1766 0.961 . S
H1781 C1767 0.958 . S
H1782 C1767 0.961 . S
H1783 C1767 0.960 . S
C1784 C1785 1.391 . S
C1784 C1786 1.394 . S
C1784 H1800 0.931 . S
C1785 C1784 1.391 . S
C1785 C1789 1.376 . S
C1786 C1784 1.394 . S
C1786 C1787 1.369 . S
C1786 C1790 1.531 . S
C1787 C1786 1.369 . S
C1787 C1788 1.410 . S
C1787 C1795 1.503 1_556 S
C1788 C1787 1.410 . S
C1788 C1789 1.392 . S
C1788 C1791 1.511 1_556 S
C1789 C1785 1.376 . S
C1789 C1788 1.392 . S
C1789 H1801 0.929 . S
C1790 C1786 1.531 . S
C1790 H1802 0.960 . S
C1790 H1803 0.962 . S
C1790 H1804 0.960 . S
C1791 C1788 1.511 1_554 S
C1791 H1805 0.961 . S
C1791 H1806 0.961 . S
C1791 H1807 0.961 1_554 S
C1792 C1793 1.370 . S
C1792 C1794 1.363 . S
C1792 H1808 0.931 . S
C1793 C1792 1.370 . S
C1793 C1797 1.396 1_554 S
C1794 C1792 1.363 . S
C1794 C1795 1.370 . S
C1794 C1798 1.524 . S
C1795 C1787 1.503 1_554 S
C1795 C1794 1.370 . S
C1795 C1796 1.403 1_554 S
C1796 C1795 1.403 1_556 S
C1796 C1797 1.408 . S
C1796 C1799 1.539 . S
C1797 C1793 1.396 1_556 S
C1797 C1796 1.408 . S
C1797 H1809 0.937 . S
C1798 C1794 1.524 . S
C1798 H1810 0.956 . S
C1798 H1811 0.961 . S
C1798 H1812 0.961 . S
C1799 C1796 1.539 . S
C1799 H1813 0.958 . S
C1799 H1814 0.961 . S
C1799 H1815 0.960 . S
H1800 C1784 0.931 . S
H1801 C1789 0.929 . S
H1802 C1790 0.960 . S
H1803 C1790 0.962 . S
H1804 C1790 0.960 . S
H1805 C1791 0.961 . S
H1806 C1791 0.961 . S
H1807 C1791 0.961 1_556 S
H1808 C1792 0.931 . S
H1809 C1797 0.937 . S
H1810 C1798 0.956 . S
H1811 C1798 0.961 . S
H1812 C1798 0.961 . S
H1813 C1799 0.958 . S
H1814 C1799 0.961 . S
H1815 C1799 0.960 . S
C1816 C1817 1.391 . S
C1816 C1818 1.394 . S
C1816 H1832 0.931 . S
C1817 C1816 1.391 . S
C1817 C1821 1.376 . S
C1818 C1816 1.394 . S
C1818 C1819 1.369 . S
C1818 C1822 1.531 . S
C1819 C1818 1.369 . S
C1819 C1820 1.410 . S
C1819 C1827 1.503 . S
C1820 C1819 1.410 . S
C1820 C1821 1.392 . S
C1820 C1823 1.511 . S
C1821 C1817 1.376 . S
C1821 C1820 1.392 . S
C1821 H1833 0.929 . S
C1822 C1818 1.531 . S
C1822 H1834 0.960 . S
C1822 H1835 0.962 . S
C1822 H1836 0.960 . S
C1823 C1820 1.511 . S
C1823 H1837 0.961 . S
C1823 H1838 0.961 . S
C1823 H1839 0.961 . S
C1824 C1825 1.370 . S
C1824 C1826 1.363 . S
C1824 H1840 0.931 . S
C1825 C1824 1.370 . S
C1825 C1829 1.408 . S
C1826 C1824 1.363 . S
C1826 C1827 1.370 . S
C1826 C1830 1.524 . S
C1827 C1819 1.503 . S
C1827 C1826 1.370 . S
C1827 C1828 1.403 . S
C1828 C1827 1.403 . S
C1828 C1829 1.404 . S
C1828 C1831 1.539 . S
C1829 C1825 1.408 . S
C1829 C1828 1.404 . S
C1829 H1841 0.930 . S
C1830 C1826 1.524 . S
C1830 H1842 0.956 . S
C1830 H1843 0.961 . S
C1830 H1844 0.961 . S
C1831 C1828 1.539 . S
C1831 H1845 0.958 . S
C1831 H1846 0.961 . S
C1831 H1847 0.960 . S
H1832 C1816 0.931 . S
H1833 C1821 0.929 . S
H1834 C1822 0.960 . S
H1835 C1822 0.962 . S
H1836 C1822 0.960 . S
H1837 C1823 0.961 . S
H1838 C1823 0.961 . S
H1839 C1823 0.961 . S
H1840 C1824 0.931 . S
H1841 C1829 0.930 . S
H1842 C1830 0.956 . S
H1843 C1830 0.961 . S
H1844 C1830 0.961 . S
H1845 C1831 0.958 . S
H1846 C1831 0.961 . S
H1847 C1831 0.960 . S
C1848 C1849 1.391 . S
C1848 C1850 1.394 . S
C1848 H1864 0.931 . S
C1849 C1848 1.391 . S
C1849 C1853 1.376 . S
C1850 C1848 1.394 . S
C1850 C1851 1.369 . S
C1850 C1854 1.531 . S
C1851 C1850 1.369 . S
C1851 C1852 1.410 . S
C1851 C1859 1.503 . S
C1852 C1851 1.410 . S
C1852 C1853 1.392 . S
C1852 C1855 1.511 . S
C1853 C1849 1.376 . S
C1853 C1852 1.392 . S
C1853 H1865 0.929 . S
C1854 C1850 1.531 . S
C1854 H1866 0.960 . S
C1854 H1867 0.962 . S
C1854 H1868 0.960 . S
C1855 C1852 1.511 . S
C1855 H1869 0.961 . S
C1855 H1870 0.961 . S
C1855 H1871 0.961 . S
C1856 C1857 1.370 . S
C1856 C1858 1.363 . S
C1856 H1872 0.931 . S
C1857 C1856 1.370 . S
C1857 C1861 1.408 . S
C1858 C1856 1.363 . S
C1858 C1859 1.370 . S
C1858 C1862 1.524 . S
C1859 C1851 1.503 . S
C1859 C1858 1.370 . S
C1859 C1860 1.403 . S
C1860 C1859 1.403 . S
C1860 C1861 1.404 . S
C1860 C1863 1.539 . S
C1861 C1857 1.408 . S
C1861 C1860 1.404 . S
C1861 H1873 0.930 . S
C1862 C1858 1.524 . S
C1862 H1874 0.956 . S
C1862 H1875 0.961 . S
C1862 H1876 0.961 . S
C1863 C1860 1.539 . S
C1863 H1877 0.958 . S
C1863 H1878 0.961 . S
C1863 H1879 0.960 . S
H1864 C1848 0.931 . S
H1865 C1853 0.929 . S
H1866 C1854 0.960 . S
H1867 C1854 0.962 . S
H1868 C1854 0.960 . S
H1869 C1855 0.961 . S
H1870 C1855 0.961 . S
H1871 C1855 0.961 . S
H1872 C1856 0.931 . S
H1873 C1861 0.930 . S
H1874 C1862 0.956 . S
H1875 C1862 0.961 . S
H1876 C1862 0.961 . S
H1877 C1863 0.958 . S
H1878 C1863 0.961 . S
H1879 C1863 0.960 . S
C1880 C1881 1.391 . S
C1880 C1882 1.394 . S
C1880 H1896 0.931 1_564 S
C1881 C1880 1.391 . S
C1881 C1885 1.376 . S
C1882 C1880 1.394 . S
C1882 C1883 1.369 . S
C1882 C1886 1.531 1_554 S
C1883 C1882 1.369 . S
C1883 C1884 1.410 . S
C1883 C1891 1.503 . S
C1884 C1883 1.410 . S
C1884 C1885 1.392 . S
C1884 C1887 1.511 . S
C1885 C1881 1.376 . S
C1885 C1884 1.392 . S
C1885 H1897 0.929 . S
C1886 C1882 1.531 1_556 S
C1886 H1898 0.960 . S
C1886 H1899 0.962 . S
C1886 H1900 0.960 1_565 S
C1887 C1884 1.511 . S
C1887 H1901 0.961 . S
C1887 H1902 0.961 . S
C1887 H1903 0.961 . S
C1888 C1889 1.370 . S
C1888 C1890 1.363 . S
C1888 H1904 0.931 . S
C1889 C1888 1.370 . S
C1889 C1893 1.408 . S
C1890 C1888 1.363 . S
C1890 C1891 1.370 . S
C1890 C1894 1.524 . S
C1891 C1883 1.503 . S
C1891 C1890 1.370 . S
C1891 C1892 1.403 . S
C1892 C1891 1.403 . S
C1892 C1893 1.404 . S
C1892 C1895 1.539 . S
C1893 C1889 1.408 . S
C1893 C1892 1.404 . S
C1893 H1905 0.930 . S
C1894 C1890 1.524 . S
C1894 H1906 0.956 1_554 S
C1894 H1907 0.961 . S
C1894 H1908 0.961 . S
C1895 C1892 1.539 . S
C1895 H1909 0.958 1_565 S
C1895 H1910 0.961 . S
C1895 H1911 0.948 1_565 S
H1896 C1880 0.931 1_546 S
H1897 C1885 0.929 . S
H1898 C1886 0.960 . S
H1899 C1886 0.962 . S
H1900 C1886 0.960 1_545 S
H1901 C1887 0.961 . S
H1902 C1887 0.961 . S
H1903 C1887 0.961 . S
H1904 C1888 0.931 . S
H1905 C1893 0.930 . S
H1906 C1894 0.956 1_556 S
H1907 C1894 0.961 . S
H1908 C1894 0.961 . S
H1909 C1895 0.958 1_545 S
H1910 C1895 0.961 . S
H1911 C1895 0.948 1_545 S
C385 C216 1.696 . S
C377 C73 1.735 . S
C417 C229 1.282 . S
C409 C82 1.211 . S
C441 C100 1.924 . S
C449 C249 1.813 . S
C481 C263 1.246 . S
C473 C56 1.257 . S
C513 C275 1.423 . S
C505 C134 1.398 . S
C545 C289 1.669 . S
C537 C165 1.645 . S
C569 C147 1.146 . S
C577 C299 1.210 . S
C609 C314 1.848 . S
C601 C125 1.856 . S
C633 C151 1.390 . S
C641 C328 1.383 . S
C673 C347 1.362 . S
C665 C121 1.350 . S
C697 C139 1.742 . S
C705 C327 1.759 . S
C737 C345 1.258 . S
C729 C164 1.262 . S
C761 C95 1.406 . S
C769 C361 1.368 . S
C793 C61 1.468 . S
C801 C355 1.474 . S
C825 C74 1.465 . S
C833 C359 1.466 . S
C857 C86 1.782 . S
C865 C356 1.768 . S
C889 C47 1.417 . S
C897 C258 1.404 . S
C921 C186 1.237 . S
C929 C257 1.315 . S
C961 C221 1.316 . S
C953 C204 1.431 . S
C993 C235 1.832 . S
C985 C112 1.924 . S
C1017 C60 1.392 . S
C1025 C272 1.358 . S
C1057 C317 1.464 . S
C1049 C152 1.459 . S
C1089 C271 1.873 . S
C1081 C126 1.876 . S
C1121 C303 1.247 . S
C1113 C160 1.253 . S
C1153 C300 1.696 . S
C1145 C190 1.735 . S
C1177 C199 1.199 . S
C1185 C313 1.281 . S
C1209 C113 1.923 . S
C1217 C277 1.817 . S
C1249 C291 1.232 . S
C1241 C173 1.227 . S
C1273 C43 1.375 . S
C1281 C247 1.419 . S
C1313 C261 1.669 . S
C1305 C9 1.642 1_655 S
C1345 C215 1.209 . S
C1337 C17 1.155 . S
C1377 C230 1.842 . S
C1369 C34 1.846 1_455 S
C1401 C21 1.389 . S
C1409 C342 1.383 . S
C1433 C30 1.363 . S
C1441 C333 1.367 . S
C1465 C48 1.759 . S
C1473 C341 1.762 . S
C1497 C8 1.261 . S
C1505 C331 1.266 . S
C1537 C375 1.380 . S
C1529 C108 1.393 . S
C1569 C369 1.466 . S
C1561 C178 1.459 1_554 S
C1601 C373 1.465 . S
C1593 C191 1.466 . S
C1625 C203 1.785 1_554 S
C1633 C370 1.762 . S
C1657 C138 1.432 . S
C1665 C286 1.383 . S
C1697 C285 1.318 . S
C1689 C69 1.225 . S
C1729 C305 1.334 . S
C1721 C87 1.425 . S
C1761 C319 1.834 . S
C1753 C99 1.924 . S
C1785 C177 1.399 . S
C1793 C244 1.350 . S
C1825 C233 1.465 . S
C1817 C22 1.459 . S
C1849 C35 1.883 . S
C1857 C243 1.862 . S
C1889 C219 1.241 . S
C1881 C4 1.247 . S
