# Generated by pormake.
# Topology pyr, (3,6)-cn, num edge types: 1
# Building blocks:
#     Node 0, Type 0, BuildingBlock: ESEHIV_clean_linker_0, # of connection points: 3
#     Node 1, Type 0, BuildingBlock: ESEHIV_clean_linker_0, # of connection points: 3
#     Node 2, Type 0, BuildingBlock: ESEHIV_clean_linker_0, # of connection points: 3
#     Node 3, Type 0, BuildingBlock: ESEHIV_clean_linker_0, # of connection points: 3
#     Node 4, Type 0, BuildingBlock: ESEHIV_clean_linker_0, # of connection points: 3
#     Node 5, Type 0, BuildingBlock: ESEHIV_clean_linker_0, # of connection points: 3
#     Node 6, Type 0, BuildingBlock: ESEHIV_clean_linker_0, # of connection points: 3
#     Node 7, Type 0, BuildingBlock: ESEHIV_clean_linker_0, # of connection points: 3
#     Node 8, Type 1, BuildingBlock: INOVEN_clean_sbu_0, # of connection points: 6
#     Node 9, Type 1, BuildingBlock: INOVEN_clean_sbu_0, # of connection points: 6
#     Node 10, Type 1, BuildingBlock: INOVEN_clean_sbu_0, # of connection points: 6
#     Node 11, Type 1, BuildingBlock: INOVEN_clean_sbu_0, # of connection points: 6
#     Edge 12, Type (0, 1), BuildingBlock: ZUJKAS_clean_linker_0, # of connection points: 2
#     Edge 13, Type (0, 1), BuildingBlock: ZUJKAS_clean_linker_0, # of connection points: 2
#     Edge 14, Type (0, 1), BuildingBlock: ZUJKAS_clean_linker_0, # of connection points: 2
#     Edge 15, Type (0, 1), BuildingBlock: ZUJKAS_clean_linker_0, # of connection points: 2
#     Edge 16, Type (0, 1), BuildingBlock: ZUJKAS_clean_linker_0, # of connection points: 2
#     Edge 17, Type (0, 1), BuildingBlock: ZUJKAS_clean_linker_0, # of connection points: 2
#     Edge 18, Type (0, 1), BuildingBlock: ZUJKAS_clean_linker_0, # of connection points: 2
#     Edge 19, Type (0, 1), BuildingBlock: ZUJKAS_clean_linker_0, # of connection points: 2
#     Edge 20, Type (0, 1), BuildingBlock: ZUJKAS_clean_linker_0, # of connection points: 2
#     Edge 21, Type (0, 1), BuildingBlock: ZUJKAS_clean_linker_0, # of connection points: 2
#     Edge 22, Type (0, 1), BuildingBlock: ZUJKAS_clean_linker_0, # of connection points: 2
#     Edge 23, Type (0, 1), BuildingBlock: ZUJKAS_clean_linker_0, # of connection points: 2
#     Edge 24, Type (0, 1), BuildingBlock: ZUJKAS_clean_linker_0, # of connection points: 2
#     Edge 25, Type (0, 1), BuildingBlock: ZUJKAS_clean_linker_0, # of connection points: 2
#     Edge 26, Type (0, 1), BuildingBlock: ZUJKAS_clean_linker_0, # of connection points: 2
#     Edge 27, Type (0, 1), BuildingBlock: ZUJKAS_clean_linker_0, # of connection points: 2
#     Edge 28, Type (0, 1), BuildingBlock: ZUJKAS_clean_linker_0, # of connection points: 2
#     Edge 29, Type (0, 1), BuildingBlock: ZUJKAS_clean_linker_0, # of connection points: 2
#     Edge 30, Type (0, 1), BuildingBlock: ZUJKAS_clean_linker_0, # of connection points: 2
#     Edge 31, Type (0, 1), BuildingBlock: ZUJKAS_clean_linker_0, # of connection points: 2
#     Edge 32, Type (0, 1), BuildingBlock: ZUJKAS_clean_linker_0, # of connection points: 2
#     Edge 33, Type (0, 1), BuildingBlock: ZUJKAS_clean_linker_0, # of connection points: 2
#     Edge 34, Type (0, 1), BuildingBlock: ZUJKAS_clean_linker_0, # of connection points: 2
#     Edge 35, Type (0, 1), BuildingBlock: ZUJKAS_clean_linker_0, # of connection points: 2
# Relax obj value: 0.091
# Max RMSD: 0.126
# Mean RMSD: 0.058
data_MOF--net-pyr--node1-INOVEN_clean_sbu_0--node2-ESEHIV_clean_linker_0--edge1-ZUJKAS_clean_linker_0
_symmetry_space_group_name_H-M    P1
_symmetry_Int_Tables_number       1
_symmetry_cell_setting            triclinic
loop_
_symmetry_equiv_pos_as_xyz
'x, y, z'
_cell_length_a     47.341547
_cell_length_b     49.489369
_cell_length_c     43.991624
_cell_angle_alpha  90.712352
_cell_angle_beta   88.790836
_cell_angle_gamma 101.56978
loop_
_atom_site_label
_atom_site_type_symbol
_atom_site_fract_x
_atom_site_fract_y
_atom_site_fract_z
_atom_type_partial_charge
H0 H 0.29219 0.30906 0.25993 0.0
H1 H 0.34172 0.24604 0.269 0.0
H2 H 0.3458 0.29136 0.18536 0.0
C3 C 0.30838 0.29823 0.25097 0.0
C4 C 0.31913 0.30359 0.22123 0.0
C5 C 0.31596 0.27717 0.26808 0.0
C6 C 0.33563 0.26213 0.25563 0.0
C7 C 0.34673 0.2671 0.22583 0.0
C8 C 0.33831 0.28794 0.20871 0.0
H9 H 0.22135 0.85654 0.68873 0.0
H10 H 0.28504 0.80671 0.67493 0.0
H11 H 0.23488 0.82376 0.59977 0.0
C12 C 0.23165 0.84352 0.674 0.0
C13 C 0.22529 0.84139 0.64292 0.0
C14 C 0.25315 0.83098 0.68567 0.0
C15 C 0.26782 0.81567 0.66611 0.0
C16 C 0.26145 0.81306 0.63504 0.0
C17 C 0.23991 0.82569 0.62372 0.0
H18 H 0.68589 0.34155 0.90791 0.0
H19 H 0.689 0.4074 0.84442 0.0
H20 H 0.6193 0.33649 0.84182 0.0
C21 C 0.67662 0.35041 0.88907 0.0
C22 C 0.65081 0.33585 0.87648 0.0
C23 C 0.69069 0.37618 0.87769 0.0
C24 C 0.67839 0.38752 0.85321 0.0
C25 C 0.65262 0.37345 0.8399 0.0
C26 C 0.63905 0.34757 0.85179 0.0
H27 H 0.83105 0.71434 0.40468 0.0
H28 H 0.90004 0.71736 0.33896 0.0
H29 H 0.82833 0.64819 0.34001 0.0
C30 C 0.84037 0.70535 0.3853 0.0
C31 C 0.82641 0.67949 0.374 0.0
C32 C 0.8667 0.71946 0.37262 0.0
C33 C 0.87958 0.70684 0.34852 0.0
C34 C 0.86618 0.68081 0.33672 0.0
C35 C 0.83944 0.66759 0.34955 0.0
H36 H 0.68239 0.8182 0.82228 0.0
H37 H 0.73038 0.75383 0.8295 0.0
H38 H 0.67588 0.76997 0.90407 0.0
C39 C 0.68788 0.80148 0.83512 0.0
C40 C 0.67614 0.79569 0.86454 0.0
C41 C 0.70748 0.78654 0.8224 0.0
C42 C 0.71428 0.76466 0.8387 0.0
C43 C 0.70291 0.75846 0.86808 0.0
C44 C 0.68384 0.77406 0.88097 0.0
H45 H 0.73543 0.25714 0.39254 0.0
H46 H 0.80563 0.21534 0.37703 0.0
H47 H 0.77629 0.22792 0.46837 0.0
C48 C 0.75169 0.24696 0.40148 0.0
C49 C 0.75382 0.24412 0.43303 0.0
C50 C 0.76995 0.23627 0.38115 0.0
C51 C 0.79161 0.22384 0.39264 0.0
C52 C 0.79432 0.22111 0.42416 0.0
C53 C 0.77529 0.23126 0.44415 0.0
H54 H 0.33864 0.72271 0.17999 0.0
H55 H 0.33753 0.65508 0.24068 0.0
H56 H 0.40358 0.7285 0.24811 0.0
C57 C 0.34795 0.71375 0.19871 0.0
C58 C 0.37271 0.72903 0.21269 0.0
C59 C 0.33494 0.68711 0.20859 0.0
C60 C 0.34731 0.67558 0.23291 0.0
C61 C 0.37214 0.69026 0.24738 0.0
C62 C 0.38459 0.71702 0.23709 0.0
H63 H 0.12368 0.35107 0.74334 0.0
H64 H 0.19467 0.35297 0.68022 0.0
H65 H 0.19697 0.41887 0.74504 0.0
C66 C 0.14478 0.36109 0.73484 0.0
C67 C 0.15851 0.3867 0.74741 0.0
C68 C 0.15758 0.3488 0.71045 0.0
C69 C 0.18463 0.36227 0.6989 0.0
C70 C 0.19887 0.38765 0.71105 0.0
C71 C 0.18564 0.39965 0.73523 0.0
Gd72 Gd 0.01346 0.04839 0.50915 0.0
Gd73 Gd 1.0069 1.02177 0.57204 0.0
C74 C 0.03569 0.0856 0.56998 0.0
C75 C 0.01347 0.0801 0.46302 0.0
C76 C 0.03296 0.10537 0.45225 0.0
C77 C 0.04557 0.10549 0.42314 0.0
C78 C 0.04138 0.12828 0.47156 0.0
C79 C 0.07684 0.14983 0.43379 0.0
C80 C 0.06316 0.1503 0.46242 0.0
C81 C 0.06732 0.12745 0.41399 0.0
C82 C 0.0579 1.02585 0.52609 0.0
C83 C 0.98586 0.98434 0.51124 0.0
C84 C 1.0061 0.99023 0.61847 0.0
C85 C 0.98639 0.96526 0.62954 0.0
C86 C 0.97539 0.96498 0.65935 0.0
C87 C 0.97639 0.94278 0.61011 0.0
C88 C 0.94303 0.92102 0.64965 0.0
C89 C 0.95498 0.9208 0.62012 0.0
C90 C 0.95387 0.94318 0.6693 0.0
C91 C 0.96235 0.04412 0.55457 0.0
O92 O 0.02672 0.08509 0.54152 0.0
O93 O 0.03447 0.06251 0.58527 0.0
O94 O 0.02446 0.05786 0.462 0.0
O95 O 0.99839 0.08208 0.48799 0.0
O96 O 0.0497 1.0261 0.4982 0.0
O97 O 0.04379 0.03922 0.54286 0.0
O98 O 0.99523 0.98506 0.53954 0.0
O99 O 0.98612 1.00739 0.49615 0.0
O100 O 0.9954 1.01264 0.61916 0.0
O101 O 0.02114 0.98783 0.59359 0.0
O102 O 0.97058 0.04429 0.58246 0.0
O103 O 0.97661 1.03065 0.53819 0.0
H104 H 0.03945 0.08801 0.40791 0.0
H105 H 0.03179 0.12884 0.49404 0.0
H106 H 0.06969 0.16742 0.47801 0.0
H107 H 0.07759 0.12621 0.39193 0.0
H108 H 0.98268 0.9822 0.67464 0.0
H109 H 0.98451 0.94249 0.58697 0.0
H110 H 0.94745 0.9039 0.60454 0.0
H111 H 0.9449 0.94435 0.69201 0.0
Gd112 Gd 0.54044 0.03832 0.06133 0.0
Gd113 Gd 0.48611 1.02685 1.02939 0.0
C114 C 0.49394 0.07019 0.08612 0.0
C115 C 0.59424 0.05081 0.07577 0.0
C116 C 0.61501 0.07327 0.08955 0.0
C117 C 0.64172 0.06817 0.09816 0.0
C118 C 0.60822 0.09919 0.09538 0.0
C119 C 0.65427 0.11418 0.12018 0.0
C120 C 0.62783 0.11961 0.11053 0.0
C121 C 0.66121 0.08844 0.11335 0.0
C122 C 0.50145 0.99616 0.08631 0.0
C123 C 0.53226 0.99434 1.00459 0.0
C124 C 0.43276 1.01464 1.01324 0.0
C125 C 0.41439 0.99472 0.99349 0.0
C126 C 0.39197 1.00311 0.9783 0.0
C127 C 0.41957 0.96803 0.98854 0.0
C128 C 0.3806 0.95876 0.95233 0.0
C129 C 0.40262 0.95008 0.96821 0.0
C130 C 0.37524 0.98532 0.95784 0.0
C131 C 0.52567 0.06873 1.00456 0.0
O132 O 0.52203 0.0723 0.08298 0.0
O133 O 0.47606 0.05119 0.07081 0.0
O134 O 0.57393 0.03782 0.0939 0.0
O135 O 0.58487 0.05543 0.04896 0.0
O136 O 0.51846 1.01486 0.10184 0.0
O137 O 0.50632 1.00027 0.05826 0.0
O138 O 0.5043 0.99356 1.00612 0.0
O139 O 0.55019 1.01214 1.02128 0.0
O140 O 0.45232 1.03291 0.99934 0.0
O141 O 0.44225 1.00503 1.03775 0.0
O142 O 0.50928 0.04961 0.98893 0.0
O143 O 0.52021 0.06489 1.03255 0.0
H144 H 0.64726 0.04827 0.09369 0.0
H145 H 0.58758 0.10337 0.08886 0.0
H146 H 0.62185 0.13918 0.11575 0.0
H147 H 0.68155 0.08382 0.12024 0.0
H148 H 0.38772 1.02364 0.98187 0.0
H149 H 0.43697 0.96127 0.99994 0.0
H150 H 0.40733 0.92979 0.96413 0.0
H151 H 0.35823 0.99241 0.9461 0.0
Gd152 Gd 0.51742 0.50848 0.521 0.0
Gd153 Gd 0.51149 0.55662 0.5657 0.0
C154 C 0.53529 0.50608 0.59231 0.0
C155 C 0.54014 0.47611 0.48657 0.0
C156 C 0.5452 0.44846 0.49236 0.0
C157 C 0.53866 0.43673 0.52119 0.0
C158 C 0.55862 0.43463 0.47021 0.0
C159 C 0.56125 0.39856 0.50655 0.0
C160 C 0.56649 0.40973 0.4772 0.0
C161 C 0.54678 0.41202 0.52831 0.0
C162 C 0.46823 0.49372 0.55554 0.0
C163 C 0.48907 0.55767 0.49521 0.0
C164 C 0.49438 0.59468 0.59733 0.0
C165 C 0.48517 0.62014 0.58943 0.0
C166 C 0.49219 0.63223 0.56084 0.0
C167 C 0.46766 0.63148 0.60983 0.0
C168 C 0.4631 0.66633 0.57269 0.0
C169 C 0.4567 0.65439 0.60156 0.0
C170 C 0.48121 0.65518 0.5525 0.0
C171 C 0.56296 0.56113 0.53611 0.0
O172 O 0.53987 0.49898 0.5637 0.0
O173 O 0.52089 0.52575 0.59911 0.0
O174 O 0.51301 0.47809 0.48471 0.0
O175 O 0.55545 0.49556 0.50334 0.0
O176 O 0.47617 0.47822 0.53437 0.0
O177 O 0.48678 0.51577 0.5564 0.0
O178 O 0.49108 0.56895 0.52287 0.0
O179 O 0.49889 0.53497 0.4886 0.0
O180 O 0.5216 0.59435 0.59204 0.0
O181 O 0.47704 0.57193 0.58887 0.0
O182 O 0.56005 0.56883 0.56412 0.0
O183 O 0.53844 0.55235 0.52495 0.0
H184 H 0.52815 0.44718 0.53851 0.0
H185 H 0.5639 0.44353 0.44792 0.0
H186 H 0.57799 0.39995 0.46014 0.0
H187 H 0.54242 0.4038 0.55102 0.0
H188 H 0.5057 0.6236 0.54478 0.0
H189 H 0.46186 0.62219 0.63185 0.0
H190 H 0.4423 0.66209 0.61741 0.0
H191 H 0.4866 0.66398 0.53019 0.0
Gd192 Gd 0.0142 0.50563 0.0559 0.0
Gd193 Gd 1.01067 0.56023 1.02957 0.0
C194 C 0.06796 0.55805 0.06488 0.0
C195 C 0.02925 0.46002 0.07033 0.0
C196 C 0.0552 0.45086 0.08041 0.0
C197 C 0.07567 0.46769 0.09867 0.0
C198 C 0.05978 0.42492 0.07102 0.0
C199 C 0.10478 0.43226 0.09861 0.0
C200 C 0.08431 0.41569 0.08 0.0
C201 C 0.10027 0.45847 0.1077 0.0
C202 C 0.98575 0.53664 0.09188 0.0
C203 C 0.95697 0.50774 1.02054 0.0
C204 C 0.99542 0.60565 1.01472 0.0
C205 C 0.96928 0.61415 1.00416 0.0
C206 C 0.94835 0.59602 0.98768 0.0
C207 C 0.9649 0.64066 1.01138 0.0
C208 C 0.91901 0.63115 0.98535 0.0
C209 C 0.94003 0.64911 1.00206 0.0
C210 C 0.92339 0.60444 0.97837 0.0
C211 C 0.03916 0.52914 0.99368 0.0
O212 O 0.05926 0.53088 0.0639 0.0
O213 O 0.05132 0.57458 0.05543 0.0
O214 O 0.01709 0.47476 0.08955 0.0
O215 O 0.03029 0.46915 0.04251 0.0
O216 O 0.97813 0.51004 0.0889 0.0
O217 O 1.00858 0.54533 0.07659 0.0
O218 O 0.96557 0.53491 1.02168 0.0
O219 O 0.97368 0.49127 1.02991 0.0
O220 O 1.00802 0.59104 0.99577 0.0
O221 O 0.99418 0.59659 0.04259 0.0
O222 O 0.04682 0.55574 0.99668 0.0
O223 O 0.01625 0.52056 1.00887 0.0
H224 H 0.07255 0.48785 0.10609 0.0
H225 H 0.04435 0.41176 0.05667 0.0
H226 H 0.08734 0.39561 0.07216 0.0
H227 H 0.11546 0.47165 0.12225 0.0
H228 H 0.95134 0.57544 0.98192 0.0
H229 H 0.98072 0.65482 1.02433 0.0
H230 H 0.93714 0.66965 1.00823 0.0
H231 H 0.90778 0.5902 0.96529 0.0
H232 H 0.30279 0.30968 0.31515 0.0
H233 H 0.26824 0.29546 0.35706 0.0
H234 H 0.25695 0.21094 0.3262 0.0
H235 H 0.29152 0.22489 0.28487 0.0
H236 H 0.21344 0.27452 0.34903 0.0
H237 H 0.25754 0.19984 0.41581 0.0
H238 H 0.27956 0.22291 0.38924 0.0
H239 H 0.25823 0.19057 0.37636 0.0
C240 C 0.29347 0.28798 0.31788 0.0
C241 C 0.29989 0.26839 0.29677 0.0
C242 C 0.27379 0.27989 0.34181 0.0
C243 C 0.26024 0.25208 0.34505 0.0
C244 C 0.26772 0.23238 0.32481 0.0
H245 H 0.09008 0.17394 0.37827 0.0
H246 H 0.13522 0.20382 0.36239 0.0
C247 C 0.28749 0.24041 0.30107 0.0
C248 C 0.23543 0.24395 0.36645 0.0
H249 H 0.20481 0.19244 0.41466 0.0
C250 C 0.21183 0.257 0.36399 0.0
C251 C 0.2334 0.22151 0.38652 0.0
C252 C 0.25873 0.20816 0.39237 0.0
C253 C 0.18552 0.24675 0.37904 0.0
C254 C 0.18255 0.22241 0.39633 0.0
C255 C 0.20686 0.21079 0.40091 0.0
C256 C 0.15401 0.20703 0.4071 0.0
C257 C 0.16099 0.26171 0.37555 0.0
C258 C 0.14957 0.19861 0.43746 0.0
C259 C 0.12391 0.18101 0.44649 0.0
C260 C 0.10229 0.1714 0.42524 0.0
C261 C 0.1064 0.18074 0.39512 0.0
C262 C 0.13206 0.19818 0.38611 0.0
H263 H 0.16921 0.28417 0.37235 0.0
H264 H 0.14866 0.25375 0.35504 0.0
H265 H 0.1461 0.25874 0.39561 0.0
H266 H 0.16631 0.20499 0.45398 0.0
H267 H 0.12162 0.17392 0.46977 0.0
H268 H 0.21971 0.82741 0.73761 0.0
H269 H 0.23575 0.84096 0.78933 0.0
H270 H 0.32379 0.86206 0.75617 0.0
H271 H 0.30803 0.84796 0.70495 0.0
H272 H 0.32019 0.83666 0.81058 0.0
H273 H 0.25814 0.92105 0.814 0.0
H274 H 0.23702 0.88693 0.80898 0.0
H275 H 0.26234 0.90175 0.77977 0.0
C276 C 0.24249 0.83471 0.74156 0.0
C277 C 0.26264 0.8367 0.71735 0.0
C278 C 0.25161 0.84252 0.771 0.0
C279 C 0.28091 0.85296 0.77648 0.0
C280 C 0.30108 0.85401 0.75248 0.0
H281 H 0.36997 0.97313 0.89503 0.0
H282 H 0.34321 0.94417 0.85574 0.0
C283 C 0.29206 0.84592 0.72323 0.0
C284 C 0.29082 0.86441 0.80657 0.0
H285 H 0.28745 0.91777 0.85547 0.0
C286 C 0.31283 0.8542 0.82066 0.0
C287 C 0.28124 0.88741 0.81948 0.0
C288 C 0.25857 0.90014 0.80473 0.0
C289 C 0.32652 0.86715 0.84651 0.0
C290 C 0.31734 0.8905 0.85901 0.0
C291 C 0.29435 0.89983 0.84582 0.0
C292 C 0.33329 0.90751 0.88347 0.0
C293 C 0.35173 0.85672 0.85907 0.0
C294 C 0.33656 0.89652 0.91217 0.0
C295 C 0.35216 0.91305 0.93463 0.0
C296 C 0.36421 0.94089 0.92884 0.0
C297 C 0.36061 0.95183 0.90021 0.0
C298 C 0.34537 0.9353 0.87776 0.0
H299 H 0.35974 0.84229 0.84305 0.0
H300 H 0.36982 0.87412 0.86417 0.0
H301 H 0.34493 0.84554 0.88054 0.0
H302 H 0.32693 0.87528 0.91725 0.0
H303 H 0.35443 0.90423 0.95664 0.0
H304 H 0.6811 0.40198 0.79121 0.0
H305 H 0.66081 0.42369 0.74956 0.0
H306 H 0.57526 0.39479 0.78664 0.0
H307 H 0.5954 0.37322 0.82869 0.0
H308 H 0.57828 0.3872 0.72378 0.0
H309 H 0.62913 0.49455 0.75506 0.0
H310 H 0.65426 0.47199 0.75031 0.0
H311 H 0.62766 0.46599 0.78055 0.0
C312 C 0.65797 0.40044 0.79081 0.0
C313 C 0.64001 0.38595 0.8137 0.0
C314 C 0.64637 0.4129 0.76685 0.0
C315 C 0.61649 0.41137 0.7651 0.0
C316 C 0.5984 0.39641 0.78746 0.0
H317 H 0.53167 0.51546 0.65386 0.0
H318 H 0.55053 0.49184 0.69502 0.0
C319 C 0.60998 0.38393 0.81148 0.0
C320 C 0.60415 0.42526 0.73994 0.0
H321 H 0.60593 0.48812 0.70746 0.0
C322 C 0.5843 0.40928 0.72026 0.0
C323 C 0.61162 0.45415 0.73544 0.0
C324 C 0.63162 0.47276 0.7566 0.0
C325 C 0.57219 0.42125 0.69604 0.0
C326 C 0.58035 0.45003 0.691 0.0
C327 C 0.59982 0.46605 0.71101 0.0
C328 C 0.56854 0.46405 0.66555 0.0
C329 C 0.55031 0.40299 0.67645 0.0
C330 C 0.57251 0.4566 0.63503 0.0
C331 C 0.56169 0.47011 0.61132 0.0
C332 C 0.54675 0.49156 0.6175 0.0
C333 C 0.54298 0.49906 0.64809 0.0
C334 C 0.55382 0.48556 0.67175 0.0
H335 H 0.54071 0.38334 0.68799 0.0
H336 H 0.53268 0.4136 0.67036 0.0
H337 H 0.56106 0.39782 0.65512 0.0
H338 H 0.58429 0.44052 0.62946 0.0
H339 H 0.56517 0.46376 0.58812 0.0
H340 H 0.8976 0.70517 0.28694 0.0
H341 H 0.9187 0.6826 0.24474 0.0
H342 H 0.88611 0.6033 0.28493 0.0
H343 H 0.86594 0.62553 0.32776 0.0
H344 H 0.95946 0.64073 0.24983 0.0
H345 H 0.85509 0.60091 0.19345 0.0
H346 H 0.86034 0.63046 0.21878 0.0
H347 H 0.8562 0.59639 0.23394 0.0
C348 C 0.89521 0.68296 0.28716 0.0
C349 C 0.87977 0.6673 0.31096 0.0
C350 C 0.90717 0.67007 0.26282 0.0
C351 C 0.90373 0.64123 0.26148 0.0
C352 C 0.88872 0.62555 0.28525 0.0
H353 H 0.94207 0.51842 0.13278 0.0
H354 H 0.92326 0.54471 0.17322 0.0
C355 C 0.87701 0.63838 0.3097 0.0
C356 C 0.91577 0.62736 0.23532 0.0
H357 H 0.89608 0.58627 0.17314 0.0
C358 C 0.94568 0.62897 0.23291 0.0
C359 C 0.89776 0.61184 0.21342 0.0
C360 C 0.86554 0.60979 0.21471 0.0
C361 C 0.95798 0.61488 0.20965 0.0
C362 C 0.93996 0.59937 0.18753 0.0
C363 C 0.91002 0.59809 0.18989 0.0
C364 C 0.95149 0.58364 0.16238 0.0
C365 C 0.99005 0.61593 0.20983 0.0
C366 C 0.97338 0.59664 0.14221 0.0
C367 C 0.98443 0.5815 0.11922 0.0
C368 C 0.97347 0.55308 0.11546 0.0
C369 C 0.95105 0.54026 0.13506 0.0
C370 C 0.94023 0.55532 0.15822 0.0
H371 H 0.99912 0.62146 0.23269 0.0
H372 H 0.9952 0.59582 0.20278 0.0
H373 H 1.00095 0.63192 0.1937 0.0
H374 H 0.98195 0.61856 0.14419 0.0
H375 H 1.00165 0.59204 0.10448 0.0
H376 H 0.39482 0.28193 0.18888 0.0
H377 H 0.42478 0.25158 0.1661 0.0
H378 H 0.3707 0.18138 0.20903 0.0
H379 H 0.34047 0.21123 0.23131 0.0
H380 H 0.43225 0.18486 0.21496 0.0
H381 H 0.39852 0.19517 0.09582 0.0
H382 H 0.4116 0.22662 0.11653 0.0
H383 H 0.37837 0.20459 0.12819 0.0
C384 C 0.38923 0.26 0.19329 0.0
C385 C 0.36532 0.24906 0.21205 0.0
C386 C 0.4064 0.24273 0.18035 0.0
C387 C 0.39988 0.21426 0.18586 0.0
C388 C 0.3762 0.20333 0.20468 0.0
H389 H 0.4373 0.07207 0.09599 0.0
H390 H 0.41742 0.10839 0.12133 0.0
C391 C 0.35902 0.22049 0.21751 0.0
C392 C 0.41721 0.19547 0.17172 0.0
H393 H 0.43111 0.16595 0.10394 0.0
C394 C 0.43232 0.1809 0.19065 0.0
C395 C 0.41696 0.19025 0.14005 0.0
C396 C 0.40038 0.20478 0.11884 0.0
C397 C 0.44682 0.16085 0.17877 0.0
C398 C 0.44623 0.15538 0.14716 0.0
C399 C 0.43159 0.17033 0.12817 0.0
C400 C 0.45884 0.13287 0.1335 0.0
C401 C 0.46172 0.1449 0.20014 0.0
C402 C 0.48878 0.13448 0.13226 0.0
C403 C 0.50032 0.11366 0.11772 0.0
C404 C 0.48205 0.09096 0.10416 0.0
C405 C 0.45204 0.08922 0.10615 0.0
C406 C 0.44059 0.11 0.12056 0.0
H407 H 0.4565 0.14871 0.22436 0.0
H408 H 0.45551 0.12243 0.19531 0.0
H409 H 0.48541 0.1511 0.19664 0.0
H410 H 0.50323 0.15213 0.14188 0.0
H411 H 0.52353 0.11571 0.11646 0.0
H412 H 0.23394 0.87175 0.59113 0.0
H413 H 0.20399 0.90211 0.57153 0.0
H414 H 0.14357 0.88031 0.64623 0.0
H415 H 0.17313 0.84913 0.6657 0.0
H416 H 0.11828 0.88189 0.58703 0.0
H417 H 0.19926 0.97639 0.61425 0.0
H418 H 0.21315 0.95105 0.59209 0.0
H419 H 0.20016 0.94317 0.63028 0.0
C420 C 0.214 0.87296 0.6031 0.0
C421 C 0.20584 0.85804 0.62996 0.0
C422 C 0.19711 0.89054 0.59205 0.0
C423 C 0.17191 0.89368 0.60775 0.0
C424 C 0.16312 0.87821 0.63399 0.0
H425 H 0.07807 1.02492 0.58326 0.0
H426 H 0.10534 0.99229 0.60363 0.0
C427 C 0.18004 0.86056 0.64511 0.0
C428 C 0.1552 0.91368 0.59702 0.0
H429 H 0.15991 0.98225 0.5841 0.0
C430 C 0.12725 0.90385 0.58648 0.0
C431 C 0.16698 0.94228 0.59678 0.0
C432 C 0.19644 0.95396 0.6092 0.0
C433 C 0.11093 0.92197 0.57492 0.0
C434 C 0.12316 0.95045 0.57361 0.0
C435 C 0.15083 0.96032 0.58485 0.0
C436 C 0.10742 0.97044 0.56099 0.0
C437 C 0.08068 0.91059 0.56446 0.0
C438 C 0.10028 0.96923 0.53015 0.0
C439 C 0.0848 0.98784 0.51848 0.0
C440 C 0.07634 1.00786 0.53754 0.0
C441 C 0.08427 1.00955 0.56818 0.0
C442 C 0.09977 0.99098 0.57981 0.0
H443 H 0.07221 0.88956 0.5734 0.0
H444 H 0.06582 0.92429 0.57176 0.0
H445 H 0.0807 0.90936 0.53925 0.0
H446 H 0.10653 0.95379 0.51521 0.0
H447 H 0.07896 0.9862 0.49476 0.0
H448 H 0.70792 0.43177 0.88993 0.0
H449 H 0.75292 0.45568 0.91286 0.0
H450 H 0.78045 0.37821 0.92084 0.0
H451 H 0.73619 0.35436 0.89695 0.0
H452 H 0.77477 0.4497 0.96917 0.0
H453 H 0.85039 0.42519 0.88016 0.0
H454 H 0.81205 0.42008 0.87444 0.0
H455 H 0.82684 0.39503 0.8949 0.0
C456 C 0.72373 0.41985 0.8961 0.0
C457 C 0.7183 0.39106 0.89141 0.0
C458 C 0.74941 0.43355 0.90945 0.0
C459 C 0.7704 0.41888 0.91823 0.0
C460 C 0.76496 0.39016 0.91375 0.0
H461 H 0.93448 0.45314 1.00922 0.0
H462 H 0.88895 0.43302 0.98511 0.0
C463 C 0.73937 0.37646 0.9004 0.0
C464 C 0.79762 0.43338 0.93275 0.0
H465 H 0.87116 0.44315 0.92696 0.0
C466 C 0.79584 0.44847 0.95978 0.0
C467 C 0.82522 0.43189 0.92056 0.0
C468 C 0.82883 0.41741 0.89076 0.0
C469 C 0.82076 0.46128 0.97539 0.0
C470 C 0.84832 0.45931 0.96348 0.0
C471 C 0.85009 0.44456 0.93624 0.0
C472 C 0.87559 0.47189 0.97913 0.0
C473 C 0.81734 0.47609 1.005 0.0
C474 C 0.88344 0.50055 0.98384 0.0
C475 C 0.90957 0.51219 0.99772 0.0
C476 C 0.92853 0.49545 1.00709 0.0
C477 C 0.92048 0.46674 1.00246 0.0
C478 C 0.89442 0.45516 0.98855 0.0
H479 H 0.79512 0.47012 1.01468 0.0
H480 H 0.8328 0.47173 1.02202 0.0
H481 H 0.82183 0.49865 1.00101 0.0
H482 H 0.86959 0.51401 0.97632 0.0
H483 H 0.91497 0.53434 1.00085 0.0
H484 H 0.8076 0.62382 0.38397 0.0
H485 H 0.76213 0.60042 0.40747 0.0
H486 H 0.73682 0.67872 0.4211 0.0
H487 H 0.78133 0.70208 0.39611 0.0
H488 H 0.74146 0.60358 0.46322 0.0
H489 H 0.66487 0.63555 0.38479 0.0
H490 H 0.703 0.64068 0.37623 0.0
H491 H 0.68899 0.66478 0.40039 0.0
C492 C 0.79213 0.63607 0.39134 0.0
C493 C 0.79832 0.66495 0.38792 0.0
C494 C 0.76616 0.62263 0.40507 0.0
C495 C 0.74565 0.63765 0.4157 0.0
C496 C 0.75182 0.66647 0.41247 0.0
H497 H 0.61476 0.58954 0.55573 0.0
H498 H 0.65869 0.60592 0.52573 0.0
C499 C 0.77764 0.6799 0.39855 0.0
C500 C 0.71846 0.62341 0.43137 0.0
H501 H 0.6452 0.61768 0.43287 0.0
C502 C 0.72041 0.60649 0.45635 0.0
C503 C 0.69079 0.62662 0.42222 0.0
C504 C 0.68672 0.64265 0.39424 0.0
C505 C 0.69575 0.59356 0.47297 0.0
C506 C 0.66827 0.59822 0.465 0.0
C507 C 0.6662 0.61433 0.43936 0.0
C508 C 0.64158 0.58731 0.48342 0.0
C509 C 0.69947 0.57478 0.49871 0.0
C510 C 0.6168 0.57192 0.46968 0.0
C511 C 0.59136 0.56285 0.48682 0.0
C512 C 0.59019 0.56902 0.51805 0.0
C513 C 0.61502 0.5842 0.53179 0.0
C514 C 0.6403 0.59344 0.51465 0.0
H515 H 0.71917 0.56603 0.49524 0.0
H516 H 0.70189 0.58681 0.52028 0.0
H517 H 0.68059 0.5575 0.50113 0.0
H518 H 0.61708 0.56703 0.44562 0.0
H519 H 0.57253 0.55132 0.47555 0.0
H520 H 0.31424 0.35618 0.23587 0.0
H521 H 0.28365 0.38356 0.21121 0.0
H522 H 0.26427 0.32152 0.14088 0.0
H523 H 0.29514 0.29421 0.16527 0.0
H524 H 0.26912 0.37696 0.11991 0.0
H525 H 0.19626 0.35333 0.22102 0.0
H526 H 0.23243 0.3706 0.22927 0.0
H527 H 0.22599 0.33626 0.21356 0.0
C528 C 0.30405 0.34878 0.2147 0.0
C529 C 0.30684 0.323 0.20258 0.0
C530 C 0.28651 0.36435 0.20073 0.0
C531 C 0.27121 0.35424 0.17463 0.0
C532 C 0.27582 0.32961 0.16109 0.0
H533 H 0.10665 0.38033 0.11768 0.0
H534 H 0.14843 0.36295 0.13441 0.0
C535 C 0.29356 0.31409 0.17495 0.0
C536 C 0.24812 0.36763 0.16346 0.0
H537 H 0.18238 0.38141 0.18361 0.0
C538 C 0.2502 0.37811 0.13382 0.0
C539 C 0.22327 0.36864 0.18157 0.0
C540 C 0.21909 0.35641 0.21302 0.0
C541 C 0.22803 0.38966 0.12181 0.0
C542 C 0.20338 0.39098 0.1401 0.0
C543 C 0.20141 0.38056 0.16974 0.0
C544 C 0.17858 0.40171 0.12859 0.0
C545 C 0.23074 0.39959 0.0894 0.0
C546 C 0.18162 0.42936 0.11992 0.0
C547 C 0.15773 0.43936 0.11011 0.0
C548 C 0.13036 0.42187 0.10891 0.0
C549 C 0.12747 0.39423 0.1178 0.0
C550 C 0.1513 0.3843 0.12756 0.0
H551 H 0.24779 0.39163 0.07643 0.0
H552 H 0.20998 0.39315 0.0775 0.0
H553 H 0.23646 0.42245 0.08934 0.0
H554 H 0.20238 0.44328 0.12107 0.0
H555 H 0.16073 0.4607 0.10326 0.0
H556 H 0.64395 0.32041 0.93641 0.0
H557 H 0.62362 0.27492 0.95715 0.0
H558 H 0.60382 0.24347 0.86663 0.0
H559 H 0.62509 0.28877 0.84556 0.0
H560 H 0.56944 0.24297 0.95454 0.0
H561 H 0.64776 0.18768 0.89882 0.0
H562 H 0.65326 0.22483 0.89998 0.0
H563 H 0.62922 0.2054 0.87284 0.0
C564 C 0.63557 0.30379 0.9208 0.0
C565 C 0.63656 0.30835 0.88919 0.0
C566 C 0.62374 0.27775 0.93276 0.0
C567 C 0.61264 0.25547 0.91351 0.0
C568 C 0.61282 0.26008 0.882 0.0
H569 H 0.53168 0.08313 0.94462 0.0
H570 H 0.55297 0.12826 0.92312 0.0
C571 C 0.62467 0.28617 0.86998 0.0
C572 C 0.60069 0.22761 0.92656 0.0
H573 H 0.60821 0.1602 0.92517 0.0
C574 C 0.57802 0.22491 0.94818 0.0
C575 C 0.61181 0.20393 0.91838 0.0
C576 C 0.63702 0.20553 0.89646 0.0
C577 C 0.56589 0.19927 0.96135 0.0
C578 C 0.57701 0.17559 0.95317 0.0
C579 C 0.59964 0.17827 0.93151 0.0
C580 C 0.56515 0.14783 0.96645 0.0
C581 C 0.54075 0.19767 0.98337 0.0
C582 C 0.5655 0.14342 0.99797 0.0
C583 C 0.55334 0.11757 1.01033 0.0
C584 C 0.54065 0.0955 0.99143 0.0
C585 C 0.54117 0.0997 0.95983 0.0
C586 C 0.55334 0.12553 0.94749 0.0
H587 H 0.53008 0.21559 0.98117 0.0
H588 H 0.52445 0.17843 0.97979 0.0
H589 H 0.54861 0.19764 1.00695 0.0
H590 H 0.57508 0.16003 1.01307 0.0
H591 H 0.55349 0.11497 1.03474 0.0
H592 H 0.9242 0.74025 0.3838 0.0
H593 H 0.94565 0.78495 0.40669 0.0
H594 H 0.86186 0.80647 0.41209 0.0
H595 H 0.84035 0.76209 0.38922 0.0
H596 H 0.94698 0.83909 0.38921 0.0
H597 H 0.88859 0.81809 0.49957 0.0
H598 H 0.89008 0.79139 0.47161 0.0
H599 H 0.86515 0.81412 0.46759 0.0
C600 C 0.91036 0.75458 0.3896 0.0
C601 C 0.88043 0.74729 0.38494 0.0
C602 C 0.92265 0.78013 0.40283 0.0
C603 C 0.90532 0.79894 0.41179 0.0
C604 C 0.87563 0.79209 0.40622 0.0
H605 H 0.95949 0.97419 0.45599 0.0
H606 H 0.94094 0.92952 0.43185 0.0
C607 C 0.86335 0.76662 0.39307 0.0
C608 C 0.91812 0.8257 0.42695 0.0
H609 H 0.91342 0.86425 0.49132 0.0
C610 C 0.93972 0.84453 0.41158 0.0
C611 C 0.90903 0.83277 0.45638 0.0
C612 C 0.88715 0.81294 0.47492 0.0
C613 C 0.9519 0.87038 0.42447 0.0
C614 C 0.94196 0.87788 0.45339 0.0
C615 C 0.92086 0.85876 0.46903 0.0
C616 C 0.95334 0.90526 0.46801 0.0
C617 C 0.97566 0.88922 0.40716 0.0
C618 C 0.96588 0.90673 0.49682 0.0
C619 C 0.97633 0.93231 0.51082 0.0
C620 C 0.97434 0.95713 0.49648 0.0
C621 C 0.96156 0.9556 0.46772 0.0
C622 C 0.95108 0.92999 0.45374 0.0
H623 H 0.98621 0.87768 0.38998 0.0
H624 H 0.96639 0.90481 0.39499 0.0
H625 H 0.99234 0.90023 0.42277 0.0
H626 H 0.96782 0.88803 0.50842 0.0
H627 H 0.98621 0.93256 0.5328 0.0
H628 H 0.27953 0.76493 0.64433 0.0
H629 H 0.31404 0.74551 0.61344 0.0
H630 H 0.31704 0.80958 0.54712 0.0
H631 H 0.28344 0.82997 0.57872 0.0
H632 H 0.31437 0.72641 0.55402 0.0
H633 H 0.40101 0.81943 0.57194 0.0
H634 H 0.36741 0.81423 0.5932 0.0
H635 H 0.36856 0.82399 0.55395 0.0
C636 C 0.28748 0.77487 0.62316 0.0
C637 C 0.27908 0.79916 0.61418 0.0
C638 C 0.30699 0.76364 0.60538 0.0
C639 C 0.31838 0.77637 0.57823 0.0
C640 C 0.30883 0.79973 0.56824 0.0
H641 H 0.43949 0.67324 0.51758 0.0
H642 H 0.40808 0.70538 0.5062 0.0
C643 C 0.2894 0.81114 0.58617 0.0
C644 C 0.34177 0.7659 0.56215 0.0
H645 H 0.41505 0.77942 0.55425 0.0
C646 C 0.33636 0.73809 0.55323 0.0
C647 C 0.37031 0.78144 0.56101 0.0
C648 C 0.3774 0.81139 0.57062 0.0
C649 C 0.35902 0.72451 0.54641 0.0
C650 C 0.38779 0.73953 0.54772 0.0
C651 C 0.39296 0.76805 0.55334 0.0
C652 C 0.41215 0.72516 0.55049 0.0
C653 C 0.35197 0.69371 0.54095 0.0
C654 C 0.42665 0.72722 0.57818 0.0
C655 C 0.44504 0.70942 0.58447 0.0
C656 C 0.44905 0.689 0.56331 0.0
C657 C 0.43669 0.68866 0.53445 0.0
C658 C 0.4185 0.70681 0.528 0.0
H659 H 0.32865 0.68486 0.54444 0.0
H660 H 0.35797 0.68913 0.51721 0.0
H661 H 0.36436 0.68313 0.55646 0.0
H662 H 0.42228 0.74142 0.5958 0.0
H663 H 0.45491 0.71069 0.60657 0.0
H664 H 0.72011 0.75601 0.77325 0.0
H665 H 0.75496 0.77172 0.7319 0.0
H666 H 0.76892 0.85447 0.76871 0.0
H667 H 0.73383 0.83911 0.8093 0.0
H668 H 0.76958 0.85479 0.70766 0.0
H669 H 0.83997 0.78595 0.7491 0.0
H670 H 0.80485 0.769 0.73688 0.0
H671 H 0.80825 0.79105 0.76994 0.0
C672 C 0.73029 0.77763 0.77209 0.0
C673 C 0.72437 0.79633 0.79452 0.0
C674 C 0.75029 0.78654 0.74862 0.0
C675 C 0.76504 0.81413 0.74766 0.0
C676 C 0.75784 0.83306 0.76902 0.0
H677 H 0.93232 0.89748 0.70584 0.0
H678 H 0.88795 0.86778 0.72404 0.0
C679 C 0.73767 0.82428 0.79217 0.0
C680 C 0.78952 0.82336 0.72616 0.0
H681 H 0.85887 0.81698 0.71067 0.0
C682 C 0.78899 0.8463 0.70791 0.0
C683 C 0.81487 0.81229 0.72676 0.0
C684 C 0.81727 0.78836 0.74685 0.0
C685 C 0.81361 0.85954 0.69166 0.0
C686 C 0.8392 0.84891 0.69292 0.0
C687 C 0.83919 0.82498 0.7097 0.0
C688 C 0.86707 0.86429 0.68044 0.0
C689 C 0.81248 0.88583 0.67509 0.0
C690 C 0.87052 0.87145 0.64963 0.0
C691 C 0.89569 0.88904 0.63928 0.0
C692 C 0.91806 0.89939 0.65949 0.0
C693 C 0.91527 0.89052 0.68984 0.0
C694 C 0.89 0.87328 0.70021 0.0
H695 H 0.79312 0.89419 0.68173 0.0
H696 H 0.83195 0.90191 0.67967 0.0
H697 H 0.81169 0.88165 0.65026 0.0
H698 H 0.8534 0.86418 0.6338 0.0
H699 H 0.89701 0.89546 0.61577 0.0
H700 H 0.80862 0.24841 0.33332 0.0
H701 H 0.79834 0.242 0.2789 0.0
H702 H 0.70805 0.21365 0.30092 0.0
H703 H 0.71804 0.22055 0.35464 0.0
H704 H 0.77936 0.19602 0.25084 0.0
H705 H 0.70057 0.26098 0.2308 0.0
H706 H 0.72235 0.2651 0.2644 0.0
H707 H 0.68853 0.24053 0.2636 0.0
C708 C 0.78654 0.24133 0.32635 0.0
C709 C 0.76409 0.23522 0.34816 0.0
C710 C 0.78068 0.23779 0.29532 0.0
C711 C 0.7523 0.22802 0.2857 0.0
C712 C 0.72993 0.2223 0.30755 0.0
H713 H 0.67933 0.10368 0.17237 0.0
H714 H 0.70913 0.13634 0.206 0.0
C715 C 0.7357 0.22607 0.33837 0.0
C716 C 0.74608 0.22008 0.25354 0.0
H717 H 0.69286 0.21681 0.20183 0.0
C718 C 0.76099 0.20125 0.23968 0.0
C719 C 0.72276 0.22747 0.23825 0.0
C720 C 0.70795 0.24992 0.24998 0.0
C721 C 0.75113 0.18731 0.21281 0.0
C722 C 0.72518 0.19166 0.20016 0.0
C723 C 0.71228 0.21282 0.21198 0.0
C724 C 0.70897 0.172 0.17795 0.0
C725 C 0.76798 0.1672 0.19907 0.0
C726 C 0.69798 0.18123 0.15143 0.0
C727 C 0.68039 0.16249 0.1323 0.0
C728 C 0.67364 0.13428 0.13942 0.0
C729 C 0.68474 0.12518 0.16591 0.0
C730 C 0.70198 0.14385 0.18506 0.0
H731 H 0.79146 0.17449 0.20256 0.0
H732 H 0.76151 0.14701 0.21059 0.0
H733 H 0.76415 0.16415 0.17433 0.0
H734 H 0.70274 0.20292 0.14573 0.0
H735 H 0.67206 0.17001 0.112 0.0
H736 H 0.38085 0.63721 0.25201 0.0
H737 H 0.40064 0.61612 0.29467 0.0
H738 H 0.41257 0.69323 0.34396 0.0
H739 H 0.39251 0.71444 0.30148 0.0
H740 H 0.45659 0.63327 0.32229 0.0
H741 H 0.36647 0.63599 0.40456 0.0
H742 H 0.36281 0.63955 0.3641 0.0
H743 H 0.38169 0.66801 0.38617 0.0
C744 C 0.38747 0.64968 0.272 0.0
C745 C 0.38489 0.67755 0.27325 0.0
C746 C 0.39893 0.63759 0.29636 0.0
C747 C 0.4078 0.65292 0.32278 0.0
C748 C 0.40553 0.68081 0.32405 0.0
H749 H 0.47356 0.60849 0.49652 0.0
H750 H 0.45489 0.63193 0.45502 0.0
C751 C 0.39428 0.693 0.29958 0.0
C752 C 0.41978 0.63977 0.34872 0.0
H753 H 0.40674 0.62023 0.42291 0.0
C754 C 0.44567 0.63038 0.34428 0.0
C755 C 0.40571 0.63616 0.37754 0.0
C756 C 0.37751 0.64524 0.38351 0.0
C757 C 0.45799 0.61779 0.36783 0.0
C758 C 0.44362 0.6136 0.39654 0.0
C759 C 0.41782 0.62326 0.40102 0.0
C760 C 0.45482 0.59908 0.42205 0.0
C761 C 0.48674 0.60979 0.36182 0.0
C762 C 0.46057 0.57246 0.41786 0.0
C763 C 0.47152 0.55907 0.44153 0.0
C764 C 0.47661 0.57172 0.4703 0.0
C765 C 0.47007 0.59806 0.47474 0.0
C766 C 0.45933 0.61154 0.45094 0.0
H767 H 0.49894 0.62209 0.34308 0.0
H768 H 0.50021 0.61266 0.38242 0.0
H769 H 0.48313 0.58776 0.35487 0.0
H770 H 0.45647 0.56188 0.39622 0.0
H771 H 0.47591 0.53871 0.43722 0.0
H772 H 0.12544 0.36212 0.79598 0.0
H773 H 0.10314 0.38439 0.83743 0.0
H774 H 0.13934 0.4641 0.79976 0.0
H775 H 0.16013 0.4421 0.75741 0.0
H776 H 0.12547 0.41891 0.88143 0.0
H777 H 0.05798 0.47244 0.81206 0.0
H778 H 0.076 0.44653 0.79619 0.0
H779 H 0.09524 0.4816 0.80082 0.0
C780 C 0.12823 0.38437 0.79609 0.0
C781 C 0.14464 0.40015 0.77299 0.0
C782 C 0.11563 0.39713 0.82008 0.0
C783 C 0.119 0.42601 0.82164 0.0
C784 C 0.13566 0.4418 0.79886 0.0
H785 H 0.08295 0.54741 0.95296 0.0
H786 H 0.10166 0.52118 0.91227 0.0
C787 C 0.14803 0.42909 0.77477 0.0
C788 C 0.10586 0.4397 0.8474 0.0
H789 H 0.06456 0.48769 0.86378 0.0
C790 C 0.1119 0.43371 0.8775 0.0
C791 C 0.08794 0.459 0.84255 0.0
C792 C 0.07865 0.46505 0.81117 0.0
C793 C 0.10135 0.44703 0.90257 0.0
C794 C 0.08429 0.46691 0.89756 0.0
C795 C 0.07786 0.47262 0.86761 0.0
C796 C 0.07333 0.48239 0.92307 0.0
C797 C 0.10908 0.44033 0.9343 0.0
C798 C 0.05108 0.46936 0.94273 0.0
C799 C 0.04012 0.48439 0.9659 0.0
C800 C 0.05135 0.51274 0.97 0.0
C801 C 0.07385 0.52562 0.9505 0.0
C802 C 0.08457 0.51066 0.92718 0.0
H803 H 0.12555 0.42719 0.93426 0.0
H804 H 0.11737 0.45961 0.94723 0.0
H805 H 0.08945 0.42923 0.94642 0.0
H806 H 0.04186 0.44763 0.93983 0.0
H807 H 0.02264 0.4739 0.98035 0.0
H808 H 0.62715 0.78049 0.90013 0.0
H809 H 0.59677 0.81069 0.92248 0.0
H810 H 0.65307 0.88147 0.88312 0.0
H811 H 0.68368 0.85178 0.86136 0.0
H812 H 0.61349 0.85621 0.96309 0.0
H813 H 0.57206 0.88883 0.85548 0.0
H814 H 0.5882 0.85881 0.85792 0.0
H815 H 0.6106 0.89269 0.85552 0.0
C816 C 0.63308 0.80249 0.89635 0.0
C817 C 0.65763 0.81365 0.87859 0.0
C818 C 0.61563 0.81968 0.90896 0.0
C819 C 0.62233 0.84822 0.90383 0.0
C820 C 0.64706 0.85942 0.88662 0.0
H821 H 0.58835 0.98891 0.99875 0.0
H822 H 0.60696 0.95153 0.97404 0.0
C823 C 0.66452 0.84236 0.87416 0.0
C824 C 0.60443 0.86674 0.91748 0.0
H825 H 0.56725 0.91667 0.89959 0.0
C826 C 0.60301 0.86914 0.94924 0.0
C827 C 0.59051 0.88338 0.89936 0.0
C828 C 0.59012 0.88067 0.86517 0.0
C829 C 0.5893 0.88876 0.96333 0.0
C830 C 0.57695 0.90656 0.94514 0.0
C831 C 0.57703 0.90319 0.91345 0.0
C832 C 0.56541 0.92977 0.95865 0.0
C833 C 0.58853 0.89065 0.99759 0.0
C834 C 0.53597 0.93041 0.95721 0.0
C835 C 0.52516 0.95187 0.97132 0.0
C836 C 0.54372 0.97311 0.98687 0.0
C837 C 0.57338 0.97285 0.98715 0.0
C838 C 0.58408 0.95141 0.97319 0.0
H839 H 0.59206 0.87136 1.00818 0.0
H840 H 0.6059 0.90781 1.00513 0.0
H841 H 0.56759 0.89495 1.00603 0.0
H842 H 0.52128 0.91398 0.94582 0.0
H843 H 0.50222 0.95145 0.97064 0.0
H844 H 0.80737 0.17306 0.40219 0.0
H845 H 0.8385 0.14533 0.42511 0.0
H846 H 0.85856 0.20539 0.49727 0.0
H847 H 0.82811 0.23379 0.47408 0.0
H848 H 0.90301 0.166 0.44679 0.0
H849 H 0.81876 0.12473 0.53411 0.0
H850 H 0.80973 0.13731 0.49792 0.0
H851 H 0.82623 0.16119 0.5264 0.0
C852 C 0.81894 0.18074 0.42251 0.0
C853 C 0.81526 0.20561 0.43636 0.0
C854 C 0.83652 0.16479 0.43564 0.0
C855 C 0.8505 0.17335 0.46287 0.0
C856 C 0.84769 0.19849 0.4763 0.0
H857 H 0.94264 0.08548 0.58429 0.0
H858 H 0.91588 0.11793 0.56243 0.0
C859 C 0.83024 0.21456 0.46311 0.0
C860 C 0.86696 0.15528 0.47793 0.0
H861 H 0.8623 0.10879 0.53527 0.0
C862 C 0.89426 0.15352 0.46619 0.0
C863 C 0.85533 0.13928 0.50327 0.0
C864 C 0.82585 0.14047 0.51627 0.0
C865 C 0.91039 0.13595 0.47923 0.0
C866 C 0.89842 0.11934 0.5041 0.0
C867 C 0.87128 0.1215 0.51613 0.0
C868 C 0.91353 0.0992 0.51759 0.0
C869 C 0.94018 0.13556 0.46652 0.0
C870 C 0.92019 0.07753 0.49979 0.0
C871 C 0.9354 0.05908 0.51218 0.0
C872 C 0.94395 0.06193 0.54259 0.0
C873 C 0.93627 0.08292 0.56076 0.0
C874 C 0.92112 0.10146 0.5483 0.0
H875 H 0.9492 0.15466 0.4537 0.0
H876 H 0.95524 0.13327 0.4849 0.0
H877 H 0.93901 0.1178 0.45063 0.0
H878 H 0.91384 0.07504 0.47625 0.0
H879 H 0.94089 0.04287 0.49782 0.0
H880 H 0.32217 0.68421 0.14774 0.0
H881 H 0.27742 0.66148 0.12378 0.0
H882 H 0.24271 0.63103 0.211 0.0
H883 H 0.28694 0.65469 0.23538 0.0
H884 H 0.25009 0.60781 0.11995 0.0
H885 H 0.17957 0.66795 0.18149 0.0
H886 H 0.21839 0.6774 0.18216 0.0
H887 H 0.1994 0.65028 0.20617 0.0
C888 C 0.30493 0.67296 0.16196 0.0
C889 C 0.30821 0.67166 0.19365 0.0
C890 C 0.27938 0.65974 0.14813 0.0
C891 C 0.25634 0.6449 0.16556 0.0
C892 C 0.25983 0.64283 0.19706 0.0
H893 H 0.10712 0.53113 0.09026 0.0
H894 H 0.15265 0.55141 0.11432 0.0
C895 C 0.28537 0.65612 0.21095 0.0
C896 C 0.22878 0.63175 0.1507 0.0
H897 H 0.15623 0.63046 0.15119 0.0
C898 C 0.22957 0.61278 0.12679 0.0
C899 C 0.20197 0.63847 0.15922 0.0
C900 C 0.1997 0.65983 0.18345 0.0
C901 C 0.20442 0.60022 0.11144 0.0
C902 C 0.17748 0.60636 0.12055 0.0
C903 C 0.17675 0.6255 0.14429 0.0
C904 C 0.14989 0.59372 0.1054 0.0
C905 C 0.20711 0.58105 0.08508 0.0
C906 C 0.13263 0.6106 0.09284 0.0
C907 C 0.10633 0.59904 0.07935 0.0
C908 C 0.09654 0.57025 0.07812 0.0
C909 C 0.11393 0.55335 0.0906 0.0
C910 C 0.14017 0.56496 0.10424 0.0
H911 H 0.22948 0.58463 0.07559 0.0
H912 H 0.20148 0.55941 0.09301 0.0
H913 H 0.19227 0.58358 0.06659 0.0
H914 H 0.13951 0.63284 0.09347 0.0
H915 H 0.0936 0.61277 0.07007 0.0
H916 H 0.24567 0.36474 0.69684 0.0
H917 H 0.29187 0.38721 0.67379 0.0
H918 H 0.26315 0.4645 0.67283 0.0
H919 H 0.21679 0.44213 0.69589 0.0
H920 H 0.28753 0.44761 0.61538 0.0
H921 H 0.35866 0.44487 0.7136 0.0
H922 H 0.33439 0.41292 0.70504 0.0
H923 H 0.32014 0.44217 0.71785 0.0
C924 C 0.2492 0.38654 0.6918 0.0
C925 C 0.2275 0.40163 0.69823 0.0
C926 C 0.27571 0.39941 0.67884 0.0
C927 C 0.28112 0.42761 0.67185 0.0
C928 C 0.25955 0.44277 0.67823 0.0
H929 H 0.44979 0.52107 0.60492 0.0
H930 H 0.40408 0.50771 0.63394 0.0
C931 C 0.23312 0.42997 0.69153 0.0
C932 C 0.30874 0.44085 0.65656 0.0
H933 H 0.38185 0.45632 0.6656 0.0
C934 C 0.30812 0.44975 0.62645 0.0
C935 C 0.33561 0.44392 0.67109 0.0
C936 C 0.33742 0.43571 0.70377 0.0
C937 C 0.33368 0.46064 0.61014 0.0
C938 C 0.36066 0.46259 0.62422 0.0
C939 C 0.36123 0.45471 0.65473 0.0
C940 C 0.38843 0.47109 0.60696 0.0
C941 C 0.33161 0.46977 0.57781 0.0
C942 C 0.39503 0.45481 0.58253 0.0
C943 C 0.42095 0.46238 0.56609 0.0
C944 C 0.44098 0.48645 0.57362 0.0
C945 C 0.43462 0.50266 0.59833 0.0
C946 C 0.40859 0.49495 0.61498 0.0
H947 H 0.30994 0.47403 0.57319 0.0
H948 H 0.34813 0.48858 0.57277 0.0
H949 H 0.3354 0.45312 0.56205 0.0
H950 H 0.38015 0.43606 0.57625 0.0
H951 H 0.42528 0.44931 0.54734 0.0
H952 H 0.70659 0.70596 0.85178 0.0
H953 H 0.73598 0.677 0.87565 0.0
H954 H 0.7568 0.73736 0.94755 0.0
H955 H 0.72695 0.76604 0.92406 0.0
H956 H 0.79263 0.69416 0.88027 0.0
H957 H 0.74666 0.66676 0.99506 0.0
H958 H 0.72657 0.67949 0.96587 0.0
H959 H 0.75202 0.70311 0.98823 0.0
C960 C 0.71668 0.71254 0.87324 0.0
C961 C 0.7145 0.73819 0.88613 0.0
C962 C 0.7335 0.69604 0.88681 0.0
C963 C 0.74853 0.7049 0.91348 0.0
C964 C 0.74493 0.72974 0.92739 0.0
H965 H 0.91587 0.68135 0.96195 0.0
H966 H 0.87313 0.69699 0.94494 0.0
C967 C 0.72787 0.74616 0.91394 0.0
C968 C 0.77102 0.69037 0.92411 0.0
H969 H 0.79647 0.6637 0.98683 0.0
C970 C 0.79319 0.68714 0.90348 0.0
C971 C 0.77173 0.68102 0.9543 0.0
C972 C 0.7478 0.6825 0.97704 0.0
C973 C 0.81652 0.67578 0.91245 0.0
C974 C 0.81808 0.66793 0.94306 0.0
C975 C 0.79539 0.67008 0.96345 0.0
C976 C 0.84368 0.65846 0.95441 0.0
C977 C 0.8394 0.67246 0.88908 0.0
C978 C 0.84117 0.63182 0.96611 0.0
C979 C 0.8656 0.62286 0.97614 0.0
C980 C 0.8929 0.64051 0.97488 0.0
C981 C 0.89516 0.66731 0.96351 0.0
C982 C 0.8708 0.67621 0.95349 0.0
H983 H 0.83111 0.67191 0.86559 0.0
H984 H 0.85777 0.69025 0.89081 0.0
H985 H 0.84759 0.65329 0.89293 0.0
H986 H 0.82038 0.61788 0.96717 0.0
H987 H 0.86306 0.60223 0.98515 0.0
H988 H 0.43038 0.75307 0.20619 0.0
H989 H 0.45161 0.79882 0.18631 0.0
H990 H 0.36655 0.8145 0.17215 0.0
H991 H 0.34521 0.76956 0.19331 0.0
H992 H 0.44841 0.82056 0.13107 0.0
H993 H 0.40268 0.88388 0.21617 0.0
H994 H 0.40127 0.84752 0.22127 0.0
H995 H 0.37538 0.85906 0.19781 0.0
C996 C 0.41614 0.76643 0.19942 0.0
C997 C 0.38598 0.75741 0.2015 0.0
C998 C 0.42835 0.79257 0.18776 0.0
C999 C 0.41078 0.81046 0.17803 0.0
C1000 C 0.3807 0.80149 0.18004 0.0
H1001 H 0.46908 0.95168 0.05679 0.0
H1002 H 0.44654 0.90685 0.07841 0.0
C1003 C 0.36849 0.77548 0.19181 0.0
C1004 C 0.42381 0.83809 0.16497 0.0
H1005 H 0.42399 0.90712 0.17168 0.0
C1006 C 0.44314 0.83948 0.14006 0.0
C1007 C 0.41733 0.86298 0.17681 0.0
C1008 C 0.39827 0.86339 0.20467 0.0
C1009 C 0.45577 0.86482 0.12648 0.0
C1010 C 0.44842 0.88959 0.13759 0.0
C1011 C 0.42941 0.88822 0.16278 0.0
C1012 C 0.46102 0.91722 0.12426 0.0
C1013 C 0.47743 0.86479 0.10083 0.0
C1014 C 0.47567 0.93858 0.14288 0.0
C1015 C 0.48816 0.96433 0.13064 0.0
C1016 C 0.48636 0.96943 0.09942 0.0
C1017 C 0.47106 0.94835 0.08087 0.0
C1018 C 0.45839 0.92259 0.0932 0.0
H1019 H 0.48672 0.84587 0.10089 0.0
H1020 H 0.46658 0.8654 0.07882 0.0
H1021 H 0.49534 0.88305 0.10225 0.0
H1022 H 0.47791 0.93517 0.16691 0.0
H1023 H 0.49969 0.98012 0.1456 0.0
H1024 H 0.1306 0.30128 0.73935 0.0
H1025 H 0.10965 0.25655 0.71615 0.0
H1026 H 0.12968 0.29126 0.62699 0.0
H1027 H 0.15109 0.33565 0.65 0.0
H1028 H 0.06569 0.23921 0.67842 0.0
H1029 H 0.16647 0.22531 0.61984 0.0
H1030 H 0.16585 0.25205 0.64791 0.0
H1031 H 0.15607 0.25674 0.60926 0.0
C1032 C 0.13041 0.29938 0.7148 0.0
C1033 C 0.1429 0.32199 0.69657 0.0
C1034 C 0.1185 0.27376 0.70153 0.0
C1035 C 0.11871 0.27016 0.66974 0.0
C1036 C 0.1301 0.29307 0.65154 0.0
H1037 H 0.05239 0.13643 0.54337 0.0
H1038 H 0.07185 0.1807 0.56804 0.0
C1039 C 0.14223 0.31855 0.66476 0.0
C1040 C 0.10691 0.24263 0.65557 0.0
H1041 H 0.12343 0.19432 0.60541 0.0
C1042 C 0.07843 0.22934 0.66265 0.0
C1043 C 0.12345 0.2295 0.63497 0.0
C1044 C 0.15474 0.24148 0.62778 0.0
C1045 C 0.06593 0.20383 0.64923 0.0
C1046 C 0.08231 0.19106 0.62827 0.0
C1047 C 0.11079 0.20419 0.6213 0.0
C1048 C 0.07033 0.16402 0.61339 0.0
C1049 C 0.03503 0.19097 0.65708 0.0
C1050 C 0.06332 0.13975 0.63053 0.0
C1051 C 0.05234 0.11433 0.61642 0.0
C1052 C 0.04797 0.11258 0.58482 0.0
C1053 C 0.0552 0.13694 0.56771 0.0
C1054 C 0.06642 0.16231 0.5818 0.0
H1055 H 0.02358 0.20586 0.66864 0.0
H1056 H 0.02315 0.18294 0.63629 0.0
H1057 H 0.03458 0.17335 0.67255 0.0
H1058 H 0.06653 0.14043 0.65485 0.0
H1059 H 0.04706 0.09607 0.63038 0.0
H1060 H 0.69607 0.24008 0.42484 0.0
H1061 H 0.66247 0.25974 0.45648 0.0
H1062 H 0.72892 0.28633 0.5222 0.0
H1063 H 0.76349 0.2685 0.48941 0.0
H1064 H 0.64088 0.25313 0.51389 0.0
H1065 H 0.70883 0.35841 0.50004 0.0
H1066 H 0.71627 0.32914 0.47894 0.0
H1067 H 0.72528 0.3335 0.51844 0.0
C1068 C 0.70374 0.25041 0.44582 0.0
C1069 C 0.73274 0.25348 0.45409 0.0
C1070 C 0.68433 0.26122 0.46418 0.0
C1071 C 0.69334 0.27498 0.49141 0.0
C1072 C 0.72171 0.27635 0.50091 0.0
H1073 H 0.59236 0.39343 0.55676 0.0
H1074 H 0.62152 0.35868 0.56517 0.0
C1075 C 0.74136 0.26593 0.48225 0.0
C1076 C 0.67351 0.28999 0.50775 0.0
H1077 H 0.66259 0.35527 0.52012 0.0
C1078 C 0.6458 0.27544 0.51593 0.0
C1079 C 0.68004 0.3191 0.5106 0.0
C1080 C 0.7091 0.33606 0.5014 0.0
C1081 C 0.62383 0.28939 0.52454 0.0
C1082 C 0.62985 0.31848 0.52501 0.0
C1083 C 0.65814 0.3329 0.5197 0.0
C1084 C 0.60678 0.3346 0.52512 0.0
C1085 C 0.59404 0.27298 0.53154 0.0
C1086 C 0.58827 0.33205 0.50028 0.0
C1087 C 0.57181 0.35194 0.49528 0.0
C1088 C 0.57361 0.37464 0.51509 0.0
C1089 C 0.59041 0.376 0.54126 0.0
C1090 C 0.60706 0.35619 0.54612 0.0
H1091 H 0.59497 0.25225 0.54038 0.0
H1092 H 0.58247 0.28387 0.54843 0.0
H1093 H 0.58145 0.27003 0.51034 0.0
H1094 H 0.5882 0.31587 0.48345 0.0
H1095 H 0.55887 0.35036 0.47508 0.0
loop_
_geom_bond_atom_site_label_1
_geom_bond_atom_site_label_2
_geom_bond_distance
_geom_bond_site_symmetry_2
_ccdc_geom_bond_type
H0 C3 0.931 . S
H1 C6 0.928 . S
H2 C8 0.930 . S
C3 H0 0.931 . S
C3 C4 1.413 . S
C3 C5 1.360 . S
C4 C3 1.413 . S
C4 C8 1.429 . S
C5 C3 1.360 . S
C5 C6 1.372 . S
C6 H1 0.928 . S
C6 C5 1.372 . S
C6 C7 1.404 . S
C7 C6 1.404 . S
C7 C8 1.391 . S
C8 H2 0.930 . S
C8 C4 1.429 . S
C8 C7 1.391 . S
H9 C12 0.931 . S
H10 C15 0.928 . S
H11 C17 0.930 . S
C12 H9 0.931 . S
C12 C13 1.413 . S
C12 C14 1.360 . S
C13 C12 1.413 . S
C13 C17 1.429 . S
C14 C12 1.360 . S
C14 C15 1.372 . S
C15 H10 0.928 . S
C15 C14 1.372 . S
C15 C16 1.404 . S
C16 C15 1.404 . S
C16 C17 1.391 . S
C17 H11 0.930 . S
C17 C13 1.429 . S
C17 C16 1.391 . S
H18 C21 0.931 . S
H19 C24 0.928 . S
H20 C26 0.930 . S
C21 H18 0.931 . S
C21 C22 1.413 . S
C21 C23 1.360 . S
C22 C21 1.413 . S
C22 C26 1.429 . S
C23 C21 1.360 . S
C23 C24 1.372 . S
C24 H19 0.928 . S
C24 C23 1.372 . S
C24 C25 1.404 . S
C25 C24 1.404 . S
C25 C26 1.391 . S
C26 H20 0.930 . S
C26 C22 1.429 . S
C26 C25 1.391 . S
H27 C30 0.931 . S
H28 C33 0.928 . S
H29 C35 0.930 . S
C30 H27 0.931 . S
C30 C31 1.413 . S
C30 C32 1.360 . S
C31 C30 1.413 . S
C31 C35 1.429 . S
C32 C30 1.360 . S
C32 C33 1.372 . S
C33 H28 0.928 . S
C33 C32 1.372 . S
C33 C34 1.404 . S
C34 C33 1.404 . S
C34 C35 1.391 . S
C35 H29 0.930 . S
C35 C31 1.429 . S
C35 C34 1.391 . S
H36 C39 0.931 . S
H37 C42 0.928 . S
H38 C44 0.930 . S
C39 H36 0.931 . S
C39 C40 1.413 . S
C39 C41 1.360 . S
C40 C39 1.413 . S
C40 C44 1.429 . S
C41 C39 1.360 . S
C41 C42 1.372 . S
C42 H37 0.928 . S
C42 C41 1.372 . S
C42 C43 1.404 . S
C43 C42 1.404 . S
C43 C44 1.391 . S
C44 H38 0.930 . S
C44 C40 1.429 . S
C44 C43 1.391 . S
H45 C48 0.931 . S
H46 C51 0.928 . S
H47 C53 0.930 . S
C48 H45 0.931 . S
C48 C49 1.413 . S
C48 C50 1.360 . S
C49 C48 1.413 . S
C49 C53 1.429 . S
C50 C48 1.360 . S
C50 C51 1.372 . S
C51 H46 0.928 . S
C51 C50 1.372 . S
C51 C52 1.404 . S
C52 C51 1.404 . S
C52 C53 1.391 . S
C53 H47 0.930 . S
C53 C49 1.429 . S
C53 C52 1.391 . S
H54 C57 0.931 . S
H55 C60 0.928 . S
H56 C62 0.930 . S
C57 H54 0.931 . S
C57 C58 1.413 . S
C57 C59 1.360 . S
C58 C57 1.413 . S
C58 C62 1.429 . S
C59 C57 1.360 . S
C59 C60 1.372 . S
C60 H55 0.928 . S
C60 C59 1.372 . S
C60 C61 1.404 . S
C61 C60 1.404 . S
C61 C62 1.391 . S
C62 H56 0.930 . S
C62 C58 1.429 . S
C62 C61 1.391 . S
H63 C66 0.931 . S
H64 C69 0.928 . S
H65 C71 0.930 . S
C66 H63 0.931 . S
C66 C67 1.413 . S
C66 C68 1.360 . S
C67 C66 1.413 . S
C67 C71 1.429 . S
C68 C66 1.360 . S
C68 C69 1.372 . S
C69 H64 0.928 . S
C69 C68 1.372 . S
C69 C70 1.404 . S
C70 C69 1.404 . S
C70 C71 1.391 . S
C71 H65 0.930 . S
C71 C67 1.429 . S
C71 C70 1.391 . S
Gd72 C75 2.818 . S
Gd72 O92 2.377 . S
Gd72 O94 2.448 . S
Gd72 O95 2.506 . S
Gd72 O96 2.435 1_545 S
Gd72 O97 2.717 1_545 S
Gd72 O99 2.395 1_445 S
Gd72 O103 2.327 1_455 S
Gd73 C84 2.818 . S
Gd73 O93 2.395 1_665 S
Gd73 O97 2.327 1_655 S
Gd73 O98 2.377 . S
Gd73 O100 2.448 . S
Gd73 O101 2.506 . S
Gd73 O102 2.435 1_565 S
Gd73 O103 2.717 1_565 S
C74 O92 1.240 . S
C74 O93 1.240 . S
C75 Gd72 2.818 . S
C75 C76 1.510 . S
C75 O94 1.249 . S
C75 O95 1.252 . S
C76 C75 1.510 . S
C76 C77 1.404 . S
C76 C78 1.352 . S
C77 C76 1.404 . S
C77 C81 1.389 . S
C77 H104 0.930 . S
C78 C76 1.352 . S
C78 C80 1.374 . S
C78 H105 0.931 . S
C79 C80 1.359 . S
C79 C81 1.364 . S
C80 C78 1.374 . S
C80 C79 1.359 . S
C80 H106 0.931 . S
C81 C77 1.389 . S
C81 C79 1.364 . S
C81 H107 0.931 . S
C82 O96 1.256 . S
C82 O97 1.257 . S
C83 O98 1.240 . S
C83 O99 1.240 . S
C84 Gd73 2.818 . S
C84 C85 1.510 . S
C84 O100 1.249 . S
C84 O101 1.252 . S
C85 C84 1.510 . S
C85 C86 1.404 . S
C85 C87 1.352 . S
C86 C85 1.404 . S
C86 C90 1.389 . S
C86 H108 0.930 . S
C87 C85 1.352 . S
C87 C89 1.374 . S
C87 H109 0.931 . S
C88 C89 1.359 . S
C88 C90 1.364 . S
C89 C87 1.374 . S
C89 C88 1.359 . S
C89 H110 0.931 . S
C90 C86 1.389 . S
C90 C88 1.364 . S
C90 H111 0.931 . S
C91 O102 1.256 . S
C91 O103 1.257 . S
O92 Gd72 2.377 . S
O92 C74 1.240 . S
O93 Gd73 2.395 1_445 S
O93 C74 1.240 . S
O94 Gd72 2.448 . S
O94 C75 1.249 . S
O95 Gd72 2.506 . S
O95 C75 1.252 . S
O96 Gd72 2.435 1_565 S
O96 C82 1.256 . S
O97 Gd72 2.717 1_565 S
O97 Gd73 2.327 1_455 S
O97 C82 1.257 . S
O98 Gd73 2.377 . S
O98 C83 1.240 . S
O99 Gd72 2.395 1_665 S
O99 C83 1.240 . S
O100 Gd73 2.448 . S
O100 C84 1.249 . S
O101 Gd73 2.506 . S
O101 C84 1.252 . S
O102 Gd73 2.435 1_545 S
O102 C91 1.256 . S
O103 Gd72 2.327 1_655 S
O103 Gd73 2.717 1_545 S
O103 C91 1.257 . S
H104 C77 0.930 . S
H105 C78 0.931 . S
H106 C80 0.931 . S
H107 C81 0.931 . S
H108 C86 0.930 . S
H109 C87 0.931 . S
H110 C89 0.931 . S
H111 C90 0.931 . S
Gd112 C115 2.811 1_565 S
Gd112 O132 2.369 1_565 S
Gd112 O134 2.447 1_565 S
Gd112 O135 2.494 1_565 S
Gd112 O136 2.445 . S
Gd112 O137 2.722 . S
Gd112 O139 2.404 1_554 S
Gd112 O143 2.318 1_564 S
Gd113 C124 2.818 1_545 S
Gd113 O133 2.395 1_556 S
Gd113 O137 2.327 1_546 S
Gd113 O138 2.377 1_545 S
Gd113 O140 2.448 1_545 S
Gd113 O141 2.506 1_545 S
Gd113 O142 2.435 . S
Gd113 O143 2.717 . S
C114 O132 1.240 . S
C114 O133 1.240 . S
C115 Gd112 2.811 1_545 S
C115 C116 1.510 . S
C115 O134 1.249 . S
C115 O135 1.252 . S
C116 C115 1.510 . S
C116 C117 1.404 . S
C116 C118 1.352 . S
C117 C116 1.404 . S
C117 C121 1.389 . S
C117 H144 0.930 . S
C118 C116 1.352 . S
C118 C120 1.374 . S
C118 H145 0.931 . S
C119 C120 1.359 . S
C119 C121 1.364 . S
C120 C118 1.374 . S
C120 C119 1.359 . S
C120 H146 0.931 . S
C121 C117 1.389 . S
C121 C119 1.364 . S
C121 H147 0.931 . S
C122 O136 1.256 . S
C122 O137 1.257 . S
C123 O138 1.240 . S
C123 O139 1.240 . S
C124 Gd113 2.818 1_565 S
C124 C125 1.510 . S
C124 O140 1.249 . S
C124 O141 1.252 . S
C125 C124 1.510 . S
C125 C126 1.404 . S
C125 C127 1.352 . S
C126 C125 1.404 . S
C126 C130 1.389 . S
C126 H148 0.930 . S
C127 C125 1.352 . S
C127 C129 1.374 . S
C127 H149 0.931 . S
C128 C129 1.359 . S
C128 C130 1.364 . S
C129 C127 1.374 . S
C129 C128 1.359 . S
C129 H150 0.931 . S
C130 C126 1.389 . S
C130 C128 1.364 . S
C130 H151 0.931 . S
C131 O142 1.256 . S
C131 O143 1.257 . S
O132 Gd112 2.369 1_545 S
O132 C114 1.240 . S
O133 Gd113 2.395 1_554 S
O133 C114 1.240 . S
O134 Gd112 2.447 1_545 S
O134 C115 1.249 . S
O135 Gd112 2.494 1_545 S
O135 C115 1.252 . S
O136 Gd112 2.445 . S
O136 C122 1.256 . S
O137 Gd112 2.722 . S
O137 Gd113 2.327 1_564 S
O137 C122 1.257 . S
O138 Gd113 2.377 1_565 S
O138 C123 1.240 . S
O139 Gd112 2.404 1_556 S
O139 C123 1.240 . S
O140 Gd113 2.448 1_565 S
O140 C124 1.249 . S
O141 Gd113 2.506 1_565 S
O141 C124 1.252 . S
O142 Gd113 2.435 . S
O142 C131 1.256 . S
O143 Gd112 2.318 1_546 S
O143 Gd113 2.717 . S
O143 C131 1.257 . S
H144 C117 0.930 . S
H145 C118 0.931 . S
H146 C120 0.931 . S
H147 C121 0.931 . S
H148 C126 0.930 . S
H149 C127 0.931 . S
H150 C129 0.931 . S
H151 C130 0.931 . S
Gd152 C155 2.818 . S
Gd152 O172 2.377 . S
Gd152 O174 2.448 . S
Gd152 O175 2.506 . S
Gd152 O176 2.435 . S
Gd152 O177 2.717 . S
Gd152 O179 2.395 . S
Gd152 O183 2.327 . S
Gd153 C164 2.818 . S
Gd153 O173 2.395 . S
Gd153 O177 2.327 . S
Gd153 O178 2.377 . S
Gd153 O180 2.448 . S
Gd153 O181 2.506 . S
Gd153 O182 2.435 . S
Gd153 O183 2.717 . S
C154 O172 1.240 . S
C154 O173 1.240 . S
C155 Gd152 2.818 . S
C155 C156 1.510 . S
C155 O174 1.249 . S
C155 O175 1.252 . S
C156 C155 1.510 . S
C156 C157 1.404 . S
C156 C158 1.352 . S
C157 C156 1.404 . S
C157 C161 1.389 . S
C157 H184 0.930 . S
C158 C156 1.352 . S
C158 C160 1.374 . S
C158 H185 0.931 . S
C159 C160 1.359 . S
C159 C161 1.364 . S
C160 C158 1.374 . S
C160 C159 1.359 . S
C160 H186 0.931 . S
C161 C157 1.389 . S
C161 C159 1.364 . S
C161 H187 0.931 . S
C162 O176 1.256 . S
C162 O177 1.257 . S
C163 O178 1.240 . S
C163 O179 1.240 . S
C164 Gd153 2.818 . S
C164 C165 1.510 . S
C164 O180 1.249 . S
C164 O181 1.252 . S
C165 C164 1.510 . S
C165 C166 1.404 . S
C165 C167 1.352 . S
C166 C165 1.404 . S
C166 C170 1.389 . S
C166 H188 0.930 . S
C167 C165 1.352 . S
C167 C169 1.374 . S
C167 H189 0.931 . S
C168 C169 1.359 . S
C168 C170 1.364 . S
C169 C167 1.374 . S
C169 C168 1.359 . S
C169 H190 0.931 . S
C170 C166 1.389 . S
C170 C168 1.364 . S
C170 H191 0.931 . S
C171 O182 1.256 . S
C171 O183 1.257 . S
O172 Gd152 2.377 . S
O172 C154 1.240 . S
O173 Gd153 2.395 . S
O173 C154 1.240 . S
O174 Gd152 2.448 . S
O174 C155 1.249 . S
O175 Gd152 2.506 . S
O175 C155 1.252 . S
O176 Gd152 2.435 . S
O176 C162 1.256 . S
O177 Gd152 2.717 . S
O177 Gd153 2.327 . S
O177 C162 1.257 . S
O178 Gd153 2.377 . S
O178 C163 1.240 . S
O179 Gd152 2.395 . S
O179 C163 1.240 . S
O180 Gd153 2.448 . S
O180 C164 1.249 . S
O181 Gd153 2.506 . S
O181 C164 1.252 . S
O182 Gd153 2.435 . S
O182 C171 1.256 . S
O183 Gd152 2.327 . S
O183 Gd153 2.717 . S
O183 C171 1.257 . S
H184 C157 0.930 . S
H185 C158 0.931 . S
H186 C160 0.931 . S
H187 C161 0.931 . S
H188 C166 0.930 . S
H189 C167 0.931 . S
H190 C169 0.931 . S
H191 C170 0.931 . S
Gd192 C195 2.818 . S
Gd192 O212 2.377 . S
Gd192 O214 2.448 . S
Gd192 O215 2.506 . S
Gd192 O216 2.435 1_455 S
Gd192 O217 2.717 1_455 S
Gd192 O219 2.395 1_454 S
Gd192 O223 2.327 1_554 S
Gd193 C204 2.818 . S
Gd193 O213 2.395 1_656 S
Gd193 O217 2.327 1_556 S
Gd193 O218 2.377 . S
Gd193 O220 2.448 . S
Gd193 O221 2.506 . S
Gd193 O222 2.435 1_655 S
Gd193 O223 2.717 1_655 S
C194 O212 1.240 . S
C194 O213 1.240 . S
C195 Gd192 2.818 . S
C195 C196 1.510 . S
C195 O214 1.249 . S
C195 O215 1.252 . S
C196 C195 1.510 . S
C196 C197 1.404 . S
C196 C198 1.352 . S
C197 C196 1.404 . S
C197 C201 1.389 . S
C197 H224 0.930 . S
C198 C196 1.352 . S
C198 C200 1.374 . S
C198 H225 0.931 . S
C199 C200 1.359 . S
C199 C201 1.364 . S
C200 C198 1.374 . S
C200 C199 1.359 . S
C200 H226 0.931 . S
C201 C197 1.389 . S
C201 C199 1.364 . S
C201 H227 0.931 . S
C202 O216 1.256 . S
C202 O217 1.257 . S
C203 O218 1.240 . S
C203 O219 1.240 . S
C204 Gd193 2.818 . S
C204 C205 1.510 . S
C204 O220 1.249 . S
C204 O221 1.252 . S
C205 C204 1.510 . S
C205 C206 1.404 . S
C205 C207 1.352 . S
C206 C205 1.404 . S
C206 C210 1.389 . S
C206 H228 0.930 . S
C207 C205 1.352 . S
C207 C209 1.374 . S
C207 H229 0.931 . S
C208 C209 1.359 . S
C208 C210 1.364 . S
C209 C207 1.374 . S
C209 C208 1.359 . S
C209 H230 0.931 . S
C210 C206 1.389 . S
C210 C208 1.364 . S
C210 H231 0.931 . S
C211 O222 1.256 . S
C211 O223 1.257 . S
O212 Gd192 2.377 . S
O212 C194 1.240 . S
O213 Gd193 2.395 1_454 S
O213 C194 1.240 . S
O214 Gd192 2.448 . S
O214 C195 1.249 . S
O215 Gd192 2.506 . S
O215 C195 1.252 . S
O216 Gd192 2.435 1_655 S
O216 C202 1.256 . S
O217 Gd192 2.717 1_655 S
O217 Gd193 2.327 1_554 S
O217 C202 1.257 . S
O218 Gd193 2.377 . S
O218 C203 1.240 . S
O219 Gd192 2.395 1_656 S
O219 C203 1.240 . S
O220 Gd193 2.448 . S
O220 C204 1.249 . S
O221 Gd193 2.506 . S
O221 C204 1.252 . S
O222 Gd193 2.435 1_455 S
O222 C211 1.256 . S
O223 Gd192 2.327 1_556 S
O223 Gd193 2.717 1_455 S
O223 C211 1.257 . S
H224 C197 0.930 . S
H225 C198 0.931 . S
H226 C200 0.931 . S
H227 C201 0.931 . S
H228 C206 0.930 . S
H229 C207 0.931 . S
H230 C209 0.931 . S
H231 C210 0.931 . S
H232 C240 0.929 . S
H233 C242 0.930 . S
H234 C244 0.930 . S
H235 C247 0.929 . S
H236 C250 0.930 . S
H237 C252 0.960 . S
H238 C252 0.960 . S
H239 C252 0.960 . S
C240 H232 0.929 . S
C240 C241 1.377 . S
C240 C242 1.384 . S
C241 C240 1.377 . S
C241 C247 1.390 . S
C242 H233 0.930 . S
C242 C240 1.384 . S
C242 C243 1.372 . S
C243 C242 1.372 . S
C243 C244 1.400 . S
C243 C248 1.490 . S
C244 H234 0.930 . S
C244 C243 1.400 . S
C244 C247 1.386 . S
H245 C261 0.930 . S
H246 C262 0.931 . S
C247 H235 0.929 . S
C247 C241 1.390 . S
C247 C244 1.386 . S
C248 C243 1.490 . S
C248 C250 1.395 . S
C248 C251 1.403 . S
H249 C255 0.930 . S
C250 H236 0.930 . S
C250 C248 1.395 . S
C250 C253 1.403 . S
C251 C248 1.403 . S
C251 C252 1.524 . S
C251 C255 1.400 . S
C252 H237 0.960 . S
C252 H238 0.960 . S
C252 H239 0.960 . S
C252 C251 1.524 . S
C253 C250 1.403 . S
C253 C254 1.392 . S
C253 C257 1.495 . S
C254 C253 1.392 . S
C254 C255 1.385 . S
C254 C256 1.478 . S
C255 H249 0.930 . S
C255 C251 1.400 . S
C255 C254 1.385 . S
C256 C254 1.478 . S
C256 C258 1.381 . S
C256 C262 1.383 . S
C257 C253 1.495 . S
C257 H263 0.959 . S
C257 H264 0.961 . S
C257 H265 0.960 . S
C258 C256 1.381 . S
C258 C259 1.394 . S
C258 H266 0.930 . S
C259 C258 1.394 . S
C259 C260 1.383 . S
C259 H267 0.929 . S
C260 C259 1.383 . S
C260 C261 1.377 . S
C261 H245 0.930 . S
C261 C260 1.377 . S
C261 C262 1.379 . S
C262 H246 0.931 . S
C262 C256 1.383 . S
C262 C261 1.379 . S
H263 C257 0.959 . S
H264 C257 0.961 . S
H265 C257 0.960 . S
H266 C258 0.930 . S
H267 C259 0.929 . S
H268 C276 0.929 . S
H269 C278 0.930 . S
H270 C280 0.930 . S
H271 C283 0.929 . S
H272 C286 0.930 . S
H273 C288 0.960 . S
H274 C288 0.960 . S
H275 C288 0.960 . S
C276 H268 0.929 . S
C276 C277 1.377 . S
C276 C278 1.384 . S
C277 C276 1.377 . S
C277 C283 1.390 . S
C278 H269 0.930 . S
C278 C276 1.384 . S
C278 C279 1.372 . S
C279 C278 1.372 . S
C279 C280 1.400 . S
C279 C284 1.490 . S
C280 H270 0.930 . S
C280 C279 1.400 . S
C280 C283 1.386 . S
H281 C297 0.930 . S
H282 C298 0.931 . S
C283 H271 0.929 . S
C283 C277 1.390 . S
C283 C280 1.386 . S
C284 C279 1.490 . S
C284 C286 1.395 . S
C284 C287 1.403 . S
H285 C291 0.930 . S
C286 H272 0.930 . S
C286 C284 1.395 . S
C286 C289 1.403 . S
C287 C284 1.403 . S
C287 C288 1.524 . S
C287 C291 1.400 . S
C288 H273 0.960 . S
C288 H274 0.960 . S
C288 H275 0.960 . S
C288 C287 1.524 . S
C289 C286 1.403 . S
C289 C290 1.392 . S
C289 C293 1.495 . S
C290 C289 1.392 . S
C290 C291 1.385 . S
C290 C292 1.478 . S
C291 H285 0.930 . S
C291 C287 1.400 . S
C291 C290 1.385 . S
C292 C290 1.478 . S
C292 C294 1.381 . S
C292 C298 1.383 . S
C293 C289 1.495 . S
C293 H299 0.959 . S
C293 H300 0.961 . S
C293 H301 0.960 . S
C294 C292 1.381 . S
C294 C295 1.394 . S
C294 H302 0.930 . S
C295 C294 1.394 . S
C295 C296 1.383 . S
C295 H303 0.929 . S
C296 C295 1.383 . S
C296 C297 1.377 . S
C297 H281 0.930 . S
C297 C296 1.377 . S
C297 C298 1.379 . S
C298 H282 0.931 . S
C298 C292 1.383 . S
C298 C297 1.379 . S
H299 C293 0.959 . S
H300 C293 0.961 . S
H301 C293 0.960 . S
H302 C294 0.930 . S
H303 C295 0.929 . S
H304 C312 0.929 . S
H305 C314 0.930 . S
H306 C316 0.930 . S
H307 C319 0.929 . S
H308 C322 0.930 . S
H309 C324 0.960 . S
H310 C324 0.960 . S
H311 C324 0.960 . S
C312 H304 0.929 . S
C312 C313 1.377 . S
C312 C314 1.384 . S
C313 C312 1.377 . S
C313 C319 1.390 . S
C314 H305 0.930 . S
C314 C312 1.384 . S
C314 C315 1.372 . S
C315 C314 1.372 . S
C315 C316 1.400 . S
C315 C320 1.490 . S
C316 H306 0.930 . S
C316 C315 1.400 . S
C316 C319 1.386 . S
H317 C333 0.930 . S
H318 C334 0.931 . S
C319 H307 0.929 . S
C319 C313 1.390 . S
C319 C316 1.386 . S
C320 C315 1.490 . S
C320 C322 1.395 . S
C320 C323 1.403 . S
H321 C327 0.930 . S
C322 H308 0.930 . S
C322 C320 1.395 . S
C322 C325 1.403 . S
C323 C320 1.403 . S
C323 C324 1.524 . S
C323 C327 1.400 . S
C324 H309 0.960 . S
C324 H310 0.960 . S
C324 H311 0.960 . S
C324 C323 1.524 . S
C325 C322 1.403 . S
C325 C326 1.392 . S
C325 C329 1.495 . S
C326 C325 1.392 . S
C326 C327 1.385 . S
C326 C328 1.478 . S
C327 H321 0.930 . S
C327 C323 1.400 . S
C327 C326 1.385 . S
C328 C326 1.478 . S
C328 C330 1.381 . S
C328 C334 1.383 . S
C329 C325 1.495 . S
C329 H335 0.959 . S
C329 H336 0.961 . S
C329 H337 0.960 . S
C330 C328 1.381 . S
C330 C331 1.394 . S
C330 H338 0.930 . S
C331 C330 1.394 . S
C331 C332 1.383 . S
C331 H339 0.929 . S
C332 C331 1.383 . S
C332 C333 1.377 . S
C333 H317 0.930 . S
C333 C332 1.377 . S
C333 C334 1.379 . S
C334 H318 0.931 . S
C334 C328 1.383 . S
C334 C333 1.379 . S
H335 C329 0.959 . S
H336 C329 0.961 . S
H337 C329 0.960 . S
H338 C330 0.930 . S
H339 C331 0.929 . S
H340 C348 0.929 . S
H341 C350 0.930 . S
H342 C352 0.930 . S
H343 C355 0.929 . S
H344 C358 0.930 . S
H345 C360 0.960 . S
H346 C360 0.960 . S
H347 C360 0.960 . S
C348 H340 0.929 . S
C348 C349 1.377 . S
C348 C350 1.384 . S
C349 C348 1.377 . S
C349 C355 1.390 . S
C350 H341 0.930 . S
C350 C348 1.384 . S
C350 C351 1.372 . S
C351 C350 1.372 . S
C351 C352 1.400 . S
C351 C356 1.490 . S
C352 H342 0.930 . S
C352 C351 1.400 . S
C352 C355 1.386 . S
H353 C369 0.930 . S
H354 C370 0.931 . S
C355 H343 0.929 . S
C355 C349 1.390 . S
C355 C352 1.386 . S
C356 C351 1.490 . S
C356 C358 1.395 . S
C356 C359 1.403 . S
H357 C363 0.930 . S
C358 H344 0.930 . S
C358 C356 1.395 . S
C358 C361 1.403 . S
C359 C356 1.403 . S
C359 C360 1.524 . S
C359 C363 1.400 . S
C360 H345 0.960 . S
C360 H346 0.960 . S
C360 H347 0.960 . S
C360 C359 1.524 . S
C361 C358 1.403 . S
C361 C362 1.392 . S
C361 C365 1.495 . S
C362 C361 1.392 . S
C362 C363 1.385 . S
C362 C364 1.478 . S
C363 H357 0.930 . S
C363 C359 1.400 . S
C363 C362 1.385 . S
C364 C362 1.478 . S
C364 C366 1.381 . S
C364 C370 1.383 . S
C365 C361 1.495 . S
C365 H371 0.959 . S
C365 H372 0.961 . S
C365 H373 0.960 . S
C366 C364 1.381 . S
C366 C367 1.394 . S
C366 H374 0.930 . S
C367 C366 1.394 . S
C367 C368 1.383 . S
C367 H375 0.929 . S
C368 C367 1.383 . S
C368 C369 1.377 . S
C369 H353 0.930 . S
C369 C368 1.377 . S
C369 C370 1.379 . S
C370 H354 0.931 . S
C370 C364 1.383 . S
C370 C369 1.379 . S
H371 C365 0.959 . S
H372 C365 0.961 . S
H373 C365 0.960 . S
H374 C366 0.930 . S
H375 C367 0.929 . S
H376 C384 0.929 . S
H377 C386 0.930 . S
H378 C388 0.930 . S
H379 C391 0.929 . S
H380 C394 0.930 . S
H381 C396 0.960 . S
H382 C396 0.960 . S
H383 C396 0.960 . S
C384 H376 0.929 . S
C384 C385 1.377 . S
C384 C386 1.384 . S
C385 C384 1.377 . S
C385 C391 1.390 . S
C386 H377 0.930 . S
C386 C384 1.384 . S
C386 C387 1.372 . S
C387 C386 1.372 . S
C387 C388 1.400 . S
C387 C392 1.490 . S
C388 H378 0.930 . S
C388 C387 1.400 . S
C388 C391 1.386 . S
H389 C405 0.930 . S
H390 C406 0.931 . S
C391 H379 0.929 . S
C391 C385 1.390 . S
C391 C388 1.386 . S
C392 C387 1.490 . S
C392 C394 1.395 . S
C392 C395 1.403 . S
H393 C399 0.930 . S
C394 H380 0.930 . S
C394 C392 1.395 . S
C394 C397 1.403 . S
C395 C392 1.403 . S
C395 C396 1.524 . S
C395 C399 1.400 . S
C396 H381 0.960 . S
C396 H382 0.960 . S
C396 H383 0.960 . S
C396 C395 1.524 . S
C397 C394 1.403 . S
C397 C398 1.392 . S
C397 C401 1.495 . S
C398 C397 1.392 . S
C398 C399 1.385 . S
C398 C400 1.478 . S
C399 H393 0.930 . S
C399 C395 1.400 . S
C399 C398 1.385 . S
C400 C398 1.478 . S
C400 C402 1.381 . S
C400 C406 1.383 . S
C401 C397 1.495 . S
C401 H407 0.959 . S
C401 H408 0.961 . S
C401 H409 0.960 . S
C402 C400 1.381 . S
C402 C403 1.394 . S
C402 H410 0.930 . S
C403 C402 1.394 . S
C403 C404 1.383 . S
C403 H411 0.929 . S
C404 C403 1.383 . S
C404 C405 1.377 . S
C405 H389 0.930 . S
C405 C404 1.377 . S
C405 C406 1.379 . S
C406 H390 0.931 . S
C406 C400 1.383 . S
C406 C405 1.379 . S
H407 C401 0.959 . S
H408 C401 0.961 . S
H409 C401 0.960 . S
H410 C402 0.930 . S
H411 C403 0.929 . S
H412 C420 0.929 . S
H413 C422 0.930 . S
H414 C424 0.930 . S
H415 C427 0.929 . S
H416 C430 0.930 . S
H417 C432 0.960 . S
H418 C432 0.960 . S
H419 C432 0.960 . S
C420 H412 0.929 . S
C420 C421 1.377 . S
C420 C422 1.384 . S
C421 C420 1.377 . S
C421 C427 1.390 . S
C422 H413 0.930 . S
C422 C420 1.384 . S
C422 C423 1.372 . S
C423 C422 1.372 . S
C423 C424 1.400 . S
C423 C428 1.490 . S
C424 H414 0.930 . S
C424 C423 1.400 . S
C424 C427 1.386 . S
H425 C441 0.930 . S
H426 C442 0.931 . S
C427 H415 0.929 . S
C427 C421 1.390 . S
C427 C424 1.386 . S
C428 C423 1.490 . S
C428 C430 1.395 . S
C428 C431 1.403 . S
H429 C435 0.930 . S
C430 H416 0.930 . S
C430 C428 1.395 . S
C430 C433 1.403 . S
C431 C428 1.403 . S
C431 C432 1.524 . S
C431 C435 1.400 . S
C432 H417 0.960 . S
C432 H418 0.960 . S
C432 H419 0.960 . S
C432 C431 1.524 . S
C433 C430 1.403 . S
C433 C434 1.392 . S
C433 C437 1.495 . S
C434 C433 1.392 . S
C434 C435 1.385 . S
C434 C436 1.478 . S
C435 H429 0.930 . S
C435 C431 1.400 . S
C435 C434 1.385 . S
C436 C434 1.478 . S
C436 C438 1.381 . S
C436 C442 1.383 . S
C437 C433 1.495 . S
C437 H443 0.959 . S
C437 H444 0.961 . S
C437 H445 0.960 . S
C438 C436 1.381 . S
C438 C439 1.394 . S
C438 H446 0.930 . S
C439 C438 1.394 . S
C439 C440 1.383 . S
C439 H447 0.929 . S
C440 C439 1.383 . S
C440 C441 1.377 . S
C441 H425 0.930 . S
C441 C440 1.377 . S
C441 C442 1.379 . S
C442 H426 0.931 . S
C442 C436 1.383 . S
C442 C441 1.379 . S
H443 C437 0.959 . S
H444 C437 0.961 . S
H445 C437 0.960 . S
H446 C438 0.930 . S
H447 C439 0.929 . S
H448 C456 0.929 . S
H449 C458 0.930 . S
H450 C460 0.930 . S
H451 C463 0.929 . S
H452 C466 0.930 . S
H453 C468 0.960 . S
H454 C468 0.960 . S
H455 C468 0.960 . S
C456 H448 0.929 . S
C456 C457 1.377 . S
C456 C458 1.384 . S
C457 C456 1.377 . S
C457 C463 1.390 . S
C458 H449 0.930 . S
C458 C456 1.384 . S
C458 C459 1.372 . S
C459 C458 1.372 . S
C459 C460 1.400 . S
C459 C464 1.490 . S
C460 H450 0.930 . S
C460 C459 1.400 . S
C460 C463 1.386 . S
H461 C477 0.930 . S
H462 C478 0.931 . S
C463 H451 0.929 . S
C463 C457 1.390 . S
C463 C460 1.386 . S
C464 C459 1.490 . S
C464 C466 1.395 . S
C464 C467 1.403 . S
H465 C471 0.930 . S
C466 H452 0.930 . S
C466 C464 1.395 . S
C466 C469 1.403 . S
C467 C464 1.403 . S
C467 C468 1.524 . S
C467 C471 1.400 . S
C468 H453 0.960 . S
C468 H454 0.960 . S
C468 H455 0.960 . S
C468 C467 1.524 . S
C469 C466 1.403 . S
C469 C470 1.392 . S
C469 C473 1.495 . S
C470 C469 1.392 . S
C470 C471 1.385 . S
C470 C472 1.478 . S
C471 H465 0.930 . S
C471 C467 1.400 . S
C471 C470 1.385 . S
C472 C470 1.478 . S
C472 C474 1.381 . S
C472 C478 1.383 . S
C473 C469 1.495 . S
C473 H479 0.959 . S
C473 H480 0.961 . S
C473 H481 0.960 . S
C474 C472 1.381 . S
C474 C475 1.394 . S
C474 H482 0.930 . S
C475 C474 1.394 . S
C475 C476 1.383 . S
C475 H483 0.929 . S
C476 C475 1.383 . S
C476 C477 1.377 . S
C477 H461 0.930 . S
C477 C476 1.377 . S
C477 C478 1.379 . S
C478 H462 0.931 . S
C478 C472 1.383 . S
C478 C477 1.379 . S
H479 C473 0.959 . S
H480 C473 0.961 . S
H481 C473 0.960 . S
H482 C474 0.930 . S
H483 C475 0.929 . S
H484 C492 0.929 . S
H485 C494 0.930 . S
H486 C496 0.930 . S
H487 C499 0.929 . S
H488 C502 0.930 . S
H489 C504 0.960 . S
H490 C504 0.960 . S
H491 C504 0.960 . S
C492 H484 0.929 . S
C492 C493 1.377 . S
C492 C494 1.384 . S
C493 C492 1.377 . S
C493 C499 1.390 . S
C494 H485 0.930 . S
C494 C492 1.384 . S
C494 C495 1.372 . S
C495 C494 1.372 . S
C495 C496 1.400 . S
C495 C500 1.490 . S
C496 H486 0.930 . S
C496 C495 1.400 . S
C496 C499 1.386 . S
H497 C513 0.930 . S
H498 C514 0.931 . S
C499 H487 0.929 . S
C499 C493 1.390 . S
C499 C496 1.386 . S
C500 C495 1.490 . S
C500 C502 1.395 . S
C500 C503 1.403 . S
H501 C507 0.930 . S
C502 H488 0.930 . S
C502 C500 1.395 . S
C502 C505 1.403 . S
C503 C500 1.403 . S
C503 C504 1.524 . S
C503 C507 1.400 . S
C504 H489 0.960 . S
C504 H490 0.960 . S
C504 H491 0.960 . S
C504 C503 1.524 . S
C505 C502 1.403 . S
C505 C506 1.392 . S
C505 C509 1.495 . S
C506 C505 1.392 . S
C506 C507 1.385 . S
C506 C508 1.478 . S
C507 H501 0.930 . S
C507 C503 1.400 . S
C507 C506 1.385 . S
C508 C506 1.478 . S
C508 C510 1.381 . S
C508 C514 1.383 . S
C509 C505 1.495 . S
C509 H515 0.959 . S
C509 H516 0.961 . S
C509 H517 0.960 . S
C510 C508 1.381 . S
C510 C511 1.394 . S
C510 H518 0.930 . S
C511 C510 1.394 . S
C511 C512 1.383 . S
C511 H519 0.929 . S
C512 C511 1.383 . S
C512 C513 1.377 . S
C513 H497 0.930 . S
C513 C512 1.377 . S
C513 C514 1.379 . S
C514 H498 0.931 . S
C514 C508 1.383 . S
C514 C513 1.379 . S
H515 C509 0.959 . S
H516 C509 0.961 . S
H517 C509 0.960 . S
H518 C510 0.930 . S
H519 C511 0.929 . S
H520 C528 0.929 . S
H521 C530 0.930 . S
H522 C532 0.930 . S
H523 C535 0.929 . S
H524 C538 0.930 . S
H525 C540 0.960 . S
H526 C540 0.960 . S
H527 C540 0.960 . S
C528 H520 0.929 . S
C528 C529 1.377 . S
C528 C530 1.384 . S
C529 C528 1.377 . S
C529 C535 1.390 . S
C530 H521 0.930 . S
C530 C528 1.384 . S
C530 C531 1.372 . S
C531 C530 1.372 . S
C531 C532 1.400 . S
C531 C536 1.490 . S
C532 H522 0.930 . S
C532 C531 1.400 . S
C532 C535 1.386 . S
H533 C549 0.930 . S
H534 C550 0.931 . S
C535 H523 0.929 . S
C535 C529 1.390 . S
C535 C532 1.386 . S
C536 C531 1.490 . S
C536 C538 1.395 . S
C536 C539 1.403 . S
H537 C543 0.930 . S
C538 H524 0.930 . S
C538 C536 1.395 . S
C538 C541 1.403 . S
C539 C536 1.403 . S
C539 C540 1.524 . S
C539 C543 1.400 . S
C540 H525 0.960 . S
C540 H526 0.960 . S
C540 H527 0.960 . S
C540 C539 1.524 . S
C541 C538 1.403 . S
C541 C542 1.392 . S
C541 C545 1.495 . S
C542 C541 1.392 . S
C542 C543 1.385 . S
C542 C544 1.478 . S
C543 H537 0.930 . S
C543 C539 1.400 . S
C543 C542 1.385 . S
C544 C542 1.478 . S
C544 C546 1.381 . S
C544 C550 1.383 . S
C545 C541 1.495 . S
C545 H551 0.959 . S
C545 H552 0.961 . S
C545 H553 0.960 . S
C546 C544 1.381 . S
C546 C547 1.394 . S
C546 H554 0.930 . S
C547 C546 1.394 . S
C547 C548 1.383 . S
C547 H555 0.929 . S
C548 C547 1.383 . S
C548 C549 1.377 . S
C549 H533 0.930 . S
C549 C548 1.377 . S
C549 C550 1.379 . S
C550 H534 0.931 . S
C550 C544 1.383 . S
C550 C549 1.379 . S
H551 C545 0.959 . S
H552 C545 0.961 . S
H553 C545 0.960 . S
H554 C546 0.930 . S
H555 C547 0.929 . S
H556 C564 0.929 . S
H557 C566 0.930 . S
H558 C568 0.930 . S
H559 C571 0.929 . S
H560 C574 0.930 . S
H561 C576 0.960 . S
H562 C576 0.960 . S
H563 C576 0.960 . S
C564 H556 0.929 . S
C564 C565 1.377 . S
C564 C566 1.384 . S
C565 C564 1.377 . S
C565 C571 1.390 . S
C566 H557 0.930 . S
C566 C564 1.384 . S
C566 C567 1.372 . S
C567 C566 1.372 . S
C567 C568 1.400 . S
C567 C572 1.490 . S
C568 H558 0.930 . S
C568 C567 1.400 . S
C568 C571 1.386 . S
H569 C585 0.930 . S
H570 C586 0.931 . S
C571 H559 0.929 . S
C571 C565 1.390 . S
C571 C568 1.386 . S
C572 C567 1.490 . S
C572 C574 1.395 . S
C572 C575 1.403 . S
H573 C579 0.930 . S
C574 H560 0.930 . S
C574 C572 1.395 . S
C574 C577 1.403 . S
C575 C572 1.403 . S
C575 C576 1.524 . S
C575 C579 1.400 . S
C576 H561 0.960 . S
C576 H562 0.960 . S
C576 H563 0.960 . S
C576 C575 1.524 . S
C577 C574 1.403 . S
C577 C578 1.392 . S
C577 C581 1.495 . S
C578 C577 1.392 . S
C578 C579 1.385 . S
C578 C580 1.478 . S
C579 H573 0.930 . S
C579 C575 1.400 . S
C579 C578 1.385 . S
C580 C578 1.478 . S
C580 C582 1.381 . S
C580 C586 1.383 . S
C581 C577 1.495 . S
C581 H587 0.959 . S
C581 H588 0.961 . S
C581 H589 0.960 . S
C582 C580 1.381 . S
C582 C583 1.394 . S
C582 H590 0.930 . S
C583 C582 1.394 . S
C583 C584 1.383 . S
C583 H591 0.929 . S
C584 C583 1.383 . S
C584 C585 1.377 . S
C585 H569 0.930 . S
C585 C584 1.377 . S
C585 C586 1.379 . S
C586 H570 0.931 . S
C586 C580 1.383 . S
C586 C585 1.379 . S
H587 C581 0.959 . S
H588 C581 0.961 . S
H589 C581 0.960 . S
H590 C582 0.930 . S
H591 C583 0.929 . S
H592 C600 0.929 . S
H593 C602 0.930 . S
H594 C604 0.930 . S
H595 C607 0.929 . S
H596 C610 0.930 . S
H597 C612 0.960 . S
H598 C612 0.960 . S
H599 C612 0.960 . S
C600 H592 0.929 . S
C600 C601 1.377 . S
C600 C602 1.384 . S
C601 C600 1.377 . S
C601 C607 1.390 . S
C602 H593 0.930 . S
C602 C600 1.384 . S
C602 C603 1.372 . S
C603 C602 1.372 . S
C603 C604 1.400 . S
C603 C608 1.490 . S
C604 H594 0.930 . S
C604 C603 1.400 . S
C604 C607 1.386 . S
H605 C621 0.930 . S
H606 C622 0.931 . S
C607 H595 0.929 . S
C607 C601 1.390 . S
C607 C604 1.386 . S
C608 C603 1.490 . S
C608 C610 1.395 . S
C608 C611 1.403 . S
H609 C615 0.930 . S
C610 H596 0.930 . S
C610 C608 1.395 . S
C610 C613 1.403 . S
C611 C608 1.403 . S
C611 C612 1.524 . S
C611 C615 1.400 . S
C612 H597 0.960 . S
C612 H598 0.960 . S
C612 H599 0.960 . S
C612 C611 1.524 . S
C613 C610 1.403 . S
C613 C614 1.392 . S
C613 C617 1.495 . S
C614 C613 1.392 . S
C614 C615 1.385 . S
C614 C616 1.478 . S
C615 H609 0.930 . S
C615 C611 1.400 . S
C615 C614 1.385 . S
C616 C614 1.478 . S
C616 C618 1.381 . S
C616 C622 1.383 . S
C617 C613 1.495 . S
C617 H623 0.959 . S
C617 H624 0.961 . S
C617 H625 0.960 . S
C618 C616 1.381 . S
C618 C619 1.394 . S
C618 H626 0.930 . S
C619 C618 1.394 . S
C619 C620 1.383 . S
C619 H627 0.929 . S
C620 C619 1.383 . S
C620 C621 1.377 . S
C621 H605 0.930 . S
C621 C620 1.377 . S
C621 C622 1.379 . S
C622 H606 0.931 . S
C622 C616 1.383 . S
C622 C621 1.379 . S
H623 C617 0.959 . S
H624 C617 0.961 . S
H625 C617 0.960 . S
H626 C618 0.930 . S
H627 C619 0.929 . S
H628 C636 0.929 . S
H629 C638 0.930 . S
H630 C640 0.930 . S
H631 C643 0.929 . S
H632 C646 0.930 . S
H633 C648 0.960 . S
H634 C648 0.960 . S
H635 C648 0.960 . S
C636 H628 0.929 . S
C636 C637 1.377 . S
C636 C638 1.384 . S
C637 C636 1.377 . S
C637 C643 1.390 . S
C638 H629 0.930 . S
C638 C636 1.384 . S
C638 C639 1.372 . S
C639 C638 1.372 . S
C639 C640 1.400 . S
C639 C644 1.490 . S
C640 H630 0.930 . S
C640 C639 1.400 . S
C640 C643 1.386 . S
H641 C657 0.930 . S
H642 C658 0.931 . S
C643 H631 0.929 . S
C643 C637 1.390 . S
C643 C640 1.386 . S
C644 C639 1.490 . S
C644 C646 1.395 . S
C644 C647 1.403 . S
H645 C651 0.930 . S
C646 H632 0.930 . S
C646 C644 1.395 . S
C646 C649 1.403 . S
C647 C644 1.403 . S
C647 C648 1.524 . S
C647 C651 1.400 . S
C648 H633 0.960 . S
C648 H634 0.960 . S
C648 H635 0.960 . S
C648 C647 1.524 . S
C649 C646 1.403 . S
C649 C650 1.392 . S
C649 C653 1.495 . S
C650 C649 1.392 . S
C650 C651 1.385 . S
C650 C652 1.478 . S
C651 H645 0.930 . S
C651 C647 1.400 . S
C651 C650 1.385 . S
C652 C650 1.478 . S
C652 C654 1.381 . S
C652 C658 1.383 . S
C653 C649 1.495 . S
C653 H659 0.959 . S
C653 H660 0.961 . S
C653 H661 0.960 . S
C654 C652 1.381 . S
C654 C655 1.394 . S
C654 H662 0.930 . S
C655 C654 1.394 . S
C655 C656 1.383 . S
C655 H663 0.929 . S
C656 C655 1.383 . S
C656 C657 1.377 . S
C657 H641 0.930 . S
C657 C656 1.377 . S
C657 C658 1.379 . S
C658 H642 0.931 . S
C658 C652 1.383 . S
C658 C657 1.379 . S
H659 C653 0.959 . S
H660 C653 0.961 . S
H661 C653 0.960 . S
H662 C654 0.930 . S
H663 C655 0.929 . S
H664 C672 0.929 . S
H665 C674 0.930 . S
H666 C676 0.930 . S
H667 C679 0.929 . S
H668 C682 0.930 . S
H669 C684 0.960 . S
H670 C684 0.960 . S
H671 C684 0.960 . S
C672 H664 0.929 . S
C672 C673 1.377 . S
C672 C674 1.384 . S
C673 C672 1.377 . S
C673 C679 1.390 . S
C674 H665 0.930 . S
C674 C672 1.384 . S
C674 C675 1.372 . S
C675 C674 1.372 . S
C675 C676 1.400 . S
C675 C680 1.490 . S
C676 H666 0.930 . S
C676 C675 1.400 . S
C676 C679 1.386 . S
H677 C693 0.930 . S
H678 C694 0.931 . S
C679 H667 0.929 . S
C679 C673 1.390 . S
C679 C676 1.386 . S
C680 C675 1.490 . S
C680 C682 1.395 . S
C680 C683 1.403 . S
H681 C687 0.930 . S
C682 H668 0.930 . S
C682 C680 1.395 . S
C682 C685 1.403 . S
C683 C680 1.403 . S
C683 C684 1.524 . S
C683 C687 1.400 . S
C684 H669 0.960 . S
C684 H670 0.960 . S
C684 H671 0.960 . S
C684 C683 1.524 . S
C685 C682 1.403 . S
C685 C686 1.392 . S
C685 C689 1.495 . S
C686 C685 1.392 . S
C686 C687 1.385 . S
C686 C688 1.478 . S
C687 H681 0.930 . S
C687 C683 1.400 . S
C687 C686 1.385 . S
C688 C686 1.478 . S
C688 C690 1.381 . S
C688 C694 1.383 . S
C689 C685 1.495 . S
C689 H695 0.959 . S
C689 H696 0.961 . S
C689 H697 0.960 . S
C690 C688 1.381 . S
C690 C691 1.394 . S
C690 H698 0.930 . S
C691 C690 1.394 . S
C691 C692 1.383 . S
C691 H699 0.929 . S
C692 C691 1.383 . S
C692 C693 1.377 . S
C693 H677 0.930 . S
C693 C692 1.377 . S
C693 C694 1.379 . S
C694 H678 0.931 . S
C694 C688 1.383 . S
C694 C693 1.379 . S
H695 C689 0.959 . S
H696 C689 0.961 . S
H697 C689 0.960 . S
H698 C690 0.930 . S
H699 C691 0.929 . S
H700 C708 0.929 . S
H701 C710 0.930 . S
H702 C712 0.930 . S
H703 C715 0.929 . S
H704 C718 0.930 . S
H705 C720 0.960 . S
H706 C720 0.960 . S
H707 C720 0.960 . S
C708 H700 0.929 . S
C708 C709 1.377 . S
C708 C710 1.384 . S
C709 C708 1.377 . S
C709 C715 1.390 . S
C710 H701 0.930 . S
C710 C708 1.384 . S
C710 C711 1.372 . S
C711 C710 1.372 . S
C711 C712 1.400 . S
C711 C716 1.490 . S
C712 H702 0.930 . S
C712 C711 1.400 . S
C712 C715 1.386 . S
H713 C729 0.930 . S
H714 C730 0.931 . S
C715 H703 0.929 . S
C715 C709 1.390 . S
C715 C712 1.386 . S
C716 C711 1.490 . S
C716 C718 1.395 . S
C716 C719 1.403 . S
H717 C723 0.930 . S
C718 H704 0.930 . S
C718 C716 1.395 . S
C718 C721 1.403 . S
C719 C716 1.403 . S
C719 C720 1.524 . S
C719 C723 1.400 . S
C720 H705 0.960 . S
C720 H706 0.960 . S
C720 H707 0.960 . S
C720 C719 1.524 . S
C721 C718 1.403 . S
C721 C722 1.392 . S
C721 C725 1.495 . S
C722 C721 1.392 . S
C722 C723 1.385 . S
C722 C724 1.478 . S
C723 H717 0.930 . S
C723 C719 1.400 . S
C723 C722 1.385 . S
C724 C722 1.478 . S
C724 C726 1.381 . S
C724 C730 1.383 . S
C725 C721 1.495 . S
C725 H731 0.959 . S
C725 H732 0.961 . S
C725 H733 0.960 . S
C726 C724 1.381 . S
C726 C727 1.394 . S
C726 H734 0.930 . S
C727 C726 1.394 . S
C727 C728 1.383 . S
C727 H735 0.929 . S
C728 C727 1.383 . S
C728 C729 1.377 . S
C729 H713 0.930 . S
C729 C728 1.377 . S
C729 C730 1.379 . S
C730 H714 0.931 . S
C730 C724 1.383 . S
C730 C729 1.379 . S
H731 C725 0.959 . S
H732 C725 0.961 . S
H733 C725 0.960 . S
H734 C726 0.930 . S
H735 C727 0.929 . S
H736 C744 0.929 . S
H737 C746 0.930 . S
H738 C748 0.930 . S
H739 C751 0.929 . S
H740 C754 0.930 . S
H741 C756 0.960 . S
H742 C756 0.960 . S
H743 C756 0.960 . S
C744 H736 0.929 . S
C744 C745 1.377 . S
C744 C746 1.384 . S
C745 C744 1.377 . S
C745 C751 1.390 . S
C746 H737 0.930 . S
C746 C744 1.384 . S
C746 C747 1.372 . S
C747 C746 1.372 . S
C747 C748 1.400 . S
C747 C752 1.490 . S
C748 H738 0.930 . S
C748 C747 1.400 . S
C748 C751 1.386 . S
H749 C765 0.930 . S
H750 C766 0.931 . S
C751 H739 0.929 . S
C751 C745 1.390 . S
C751 C748 1.386 . S
C752 C747 1.490 . S
C752 C754 1.395 . S
C752 C755 1.403 . S
H753 C759 0.930 . S
C754 H740 0.930 . S
C754 C752 1.395 . S
C754 C757 1.403 . S
C755 C752 1.403 . S
C755 C756 1.524 . S
C755 C759 1.400 . S
C756 H741 0.960 . S
C756 H742 0.960 . S
C756 H743 0.960 . S
C756 C755 1.524 . S
C757 C754 1.403 . S
C757 C758 1.392 . S
C757 C761 1.495 . S
C758 C757 1.392 . S
C758 C759 1.385 . S
C758 C760 1.478 . S
C759 H753 0.930 . S
C759 C755 1.400 . S
C759 C758 1.385 . S
C760 C758 1.478 . S
C760 C762 1.381 . S
C760 C766 1.383 . S
C761 C757 1.495 . S
C761 H767 0.959 . S
C761 H768 0.961 . S
C761 H769 0.960 . S
C762 C760 1.381 . S
C762 C763 1.394 . S
C762 H770 0.930 . S
C763 C762 1.394 . S
C763 C764 1.383 . S
C763 H771 0.929 . S
C764 C763 1.383 . S
C764 C765 1.377 . S
C765 H749 0.930 . S
C765 C764 1.377 . S
C765 C766 1.379 . S
C766 H750 0.931 . S
C766 C760 1.383 . S
C766 C765 1.379 . S
H767 C761 0.959 . S
H768 C761 0.961 . S
H769 C761 0.960 . S
H770 C762 0.930 . S
H771 C763 0.929 . S
H772 C780 0.929 . S
H773 C782 0.930 . S
H774 C784 0.930 . S
H775 C787 0.929 . S
H776 C790 0.930 . S
H777 C792 0.960 . S
H778 C792 0.960 . S
H779 C792 0.960 . S
C780 H772 0.929 . S
C780 C781 1.377 . S
C780 C782 1.384 . S
C781 C780 1.377 . S
C781 C787 1.390 . S
C782 H773 0.930 . S
C782 C780 1.384 . S
C782 C783 1.372 . S
C783 C782 1.372 . S
C783 C784 1.400 . S
C783 C788 1.490 . S
C784 H774 0.930 . S
C784 C783 1.400 . S
C784 C787 1.386 . S
H785 C801 0.930 . S
H786 C802 0.931 . S
C787 H775 0.929 . S
C787 C781 1.390 . S
C787 C784 1.386 . S
C788 C783 1.490 . S
C788 C790 1.395 . S
C788 C791 1.403 . S
H789 C795 0.930 . S
C790 H776 0.930 . S
C790 C788 1.395 . S
C790 C793 1.403 . S
C791 C788 1.403 . S
C791 C792 1.524 . S
C791 C795 1.400 . S
C792 H777 0.960 . S
C792 H778 0.960 . S
C792 H779 0.960 . S
C792 C791 1.524 . S
C793 C790 1.403 . S
C793 C794 1.392 . S
C793 C797 1.495 . S
C794 C793 1.392 . S
C794 C795 1.385 . S
C794 C796 1.478 . S
C795 H789 0.930 . S
C795 C791 1.400 . S
C795 C794 1.385 . S
C796 C794 1.478 . S
C796 C798 1.381 . S
C796 C802 1.383 . S
C797 C793 1.495 . S
C797 H803 0.959 . S
C797 H804 0.961 . S
C797 H805 0.960 . S
C798 C796 1.381 . S
C798 C799 1.394 . S
C798 H806 0.930 . S
C799 C798 1.394 . S
C799 C800 1.383 . S
C799 H807 0.929 . S
C800 C799 1.383 . S
C800 C801 1.377 . S
C801 H785 0.930 . S
C801 C800 1.377 . S
C801 C802 1.379 . S
C802 H786 0.931 . S
C802 C796 1.383 . S
C802 C801 1.379 . S
H803 C797 0.959 . S
H804 C797 0.961 . S
H805 C797 0.960 . S
H806 C798 0.930 . S
H807 C799 0.929 . S
H808 C816 0.929 . S
H809 C818 0.930 . S
H810 C820 0.930 . S
H811 C823 0.929 . S
H812 C826 0.930 . S
H813 C828 0.960 . S
H814 C828 0.960 . S
H815 C828 0.960 . S
C816 H808 0.929 . S
C816 C817 1.377 . S
C816 C818 1.384 . S
C817 C816 1.377 . S
C817 C823 1.390 . S
C818 H809 0.930 . S
C818 C816 1.384 . S
C818 C819 1.372 . S
C819 C818 1.372 . S
C819 C820 1.400 . S
C819 C824 1.490 . S
C820 H810 0.930 . S
C820 C819 1.400 . S
C820 C823 1.386 . S
H821 C837 0.930 . S
H822 C838 0.931 . S
C823 H811 0.929 . S
C823 C817 1.390 . S
C823 C820 1.386 . S
C824 C819 1.490 . S
C824 C826 1.395 . S
C824 C827 1.403 . S
H825 C831 0.930 . S
C826 H812 0.930 . S
C826 C824 1.395 . S
C826 C829 1.403 . S
C827 C824 1.403 . S
C827 C828 1.524 . S
C827 C831 1.400 . S
C828 H813 0.960 . S
C828 H814 0.960 . S
C828 H815 0.960 . S
C828 C827 1.524 . S
C829 C826 1.403 . S
C829 C830 1.392 . S
C829 C833 1.495 . S
C830 C829 1.392 . S
C830 C831 1.385 . S
C830 C832 1.478 . S
C831 H825 0.930 . S
C831 C827 1.400 . S
C831 C830 1.385 . S
C832 C830 1.478 . S
C832 C834 1.381 . S
C832 C838 1.383 . S
C833 C829 1.495 . S
C833 H839 0.959 . S
C833 H840 0.961 . S
C833 H841 0.960 . S
C834 C832 1.381 . S
C834 C835 1.394 . S
C834 H842 0.930 . S
C835 C834 1.394 . S
C835 C836 1.383 . S
C835 H843 0.929 . S
C836 C835 1.383 . S
C836 C837 1.377 . S
C837 H821 0.930 . S
C837 C836 1.377 . S
C837 C838 1.379 . S
C838 H822 0.931 . S
C838 C832 1.383 . S
C838 C837 1.379 . S
H839 C833 0.959 . S
H840 C833 0.961 . S
H841 C833 0.960 . S
H842 C834 0.930 . S
H843 C835 0.929 . S
H844 C852 0.929 . S
H845 C854 0.930 . S
H846 C856 0.930 . S
H847 C859 0.929 . S
H848 C862 0.930 . S
H849 C864 0.960 . S
H850 C864 0.960 . S
H851 C864 0.960 . S
C852 H844 0.929 . S
C852 C853 1.377 . S
C852 C854 1.384 . S
C853 C852 1.377 . S
C853 C859 1.390 . S
C854 H845 0.930 . S
C854 C852 1.384 . S
C854 C855 1.372 . S
C855 C854 1.372 . S
C855 C856 1.400 . S
C855 C860 1.490 . S
C856 H846 0.930 . S
C856 C855 1.400 . S
C856 C859 1.386 . S
H857 C873 0.930 . S
H858 C874 0.931 . S
C859 H847 0.929 . S
C859 C853 1.390 . S
C859 C856 1.386 . S
C860 C855 1.490 . S
C860 C862 1.395 . S
C860 C863 1.403 . S
H861 C867 0.930 . S
C862 H848 0.930 . S
C862 C860 1.395 . S
C862 C865 1.403 . S
C863 C860 1.403 . S
C863 C864 1.524 . S
C863 C867 1.400 . S
C864 H849 0.960 . S
C864 H850 0.960 . S
C864 H851 0.960 . S
C864 C863 1.524 . S
C865 C862 1.403 . S
C865 C866 1.392 . S
C865 C869 1.495 . S
C866 C865 1.392 . S
C866 C867 1.385 . S
C866 C868 1.478 . S
C867 H861 0.930 . S
C867 C863 1.400 . S
C867 C866 1.385 . S
C868 C866 1.478 . S
C868 C870 1.381 . S
C868 C874 1.383 . S
C869 C865 1.495 . S
C869 H875 0.959 . S
C869 H876 0.961 . S
C869 H877 0.960 . S
C870 C868 1.381 . S
C870 C871 1.394 . S
C870 H878 0.930 . S
C871 C870 1.394 . S
C871 C872 1.383 . S
C871 H879 0.929 . S
C872 C871 1.383 . S
C872 C873 1.377 . S
C873 H857 0.930 . S
C873 C872 1.377 . S
C873 C874 1.379 . S
C874 H858 0.931 . S
C874 C868 1.383 . S
C874 C873 1.379 . S
H875 C869 0.959 . S
H876 C869 0.961 . S
H877 C869 0.960 . S
H878 C870 0.930 . S
H879 C871 0.929 . S
H880 C888 0.929 . S
H881 C890 0.930 . S
H882 C892 0.930 . S
H883 C895 0.929 . S
H884 C898 0.930 . S
H885 C900 0.960 . S
H886 C900 0.960 . S
H887 C900 0.960 . S
C888 H880 0.929 . S
C888 C889 1.377 . S
C888 C890 1.384 . S
C889 C888 1.377 . S
C889 C895 1.390 . S
C890 H881 0.930 . S
C890 C888 1.384 . S
C890 C891 1.372 . S
C891 C890 1.372 . S
C891 C892 1.400 . S
C891 C896 1.490 . S
C892 H882 0.930 . S
C892 C891 1.400 . S
C892 C895 1.386 . S
H893 C909 0.930 . S
H894 C910 0.931 . S
C895 H883 0.929 . S
C895 C889 1.390 . S
C895 C892 1.386 . S
C896 C891 1.490 . S
C896 C898 1.395 . S
C896 C899 1.403 . S
H897 C903 0.930 . S
C898 H884 0.930 . S
C898 C896 1.395 . S
C898 C901 1.403 . S
C899 C896 1.403 . S
C899 C900 1.524 . S
C899 C903 1.400 . S
C900 H885 0.960 . S
C900 H886 0.960 . S
C900 H887 0.960 . S
C900 C899 1.524 . S
C901 C898 1.403 . S
C901 C902 1.392 . S
C901 C905 1.495 . S
C902 C901 1.392 . S
C902 C903 1.385 . S
C902 C904 1.478 . S
C903 H897 0.930 . S
C903 C899 1.400 . S
C903 C902 1.385 . S
C904 C902 1.478 . S
C904 C906 1.381 . S
C904 C910 1.383 . S
C905 C901 1.495 . S
C905 H911 0.959 . S
C905 H912 0.961 . S
C905 H913 0.960 . S
C906 C904 1.381 . S
C906 C907 1.394 . S
C906 H914 0.930 . S
C907 C906 1.394 . S
C907 C908 1.383 . S
C907 H915 0.929 . S
C908 C907 1.383 . S
C908 C909 1.377 . S
C909 H893 0.930 . S
C909 C908 1.377 . S
C909 C910 1.379 . S
C910 H894 0.931 . S
C910 C904 1.383 . S
C910 C909 1.379 . S
H911 C905 0.959 . S
H912 C905 0.961 . S
H913 C905 0.960 . S
H914 C906 0.930 . S
H915 C907 0.929 . S
H916 C924 0.929 . S
H917 C926 0.930 . S
H918 C928 0.930 . S
H919 C931 0.929 . S
H920 C934 0.930 . S
H921 C936 0.960 . S
H922 C936 0.960 . S
H923 C936 0.960 . S
C924 H916 0.929 . S
C924 C925 1.377 . S
C924 C926 1.384 . S
C925 C924 1.377 . S
C925 C931 1.390 . S
C926 H917 0.930 . S
C926 C924 1.384 . S
C926 C927 1.372 . S
C927 C926 1.372 . S
C927 C928 1.400 . S
C927 C932 1.490 . S
C928 H918 0.930 . S
C928 C927 1.400 . S
C928 C931 1.386 . S
H929 C945 0.930 . S
H930 C946 0.931 . S
C931 H919 0.929 . S
C931 C925 1.390 . S
C931 C928 1.386 . S
C932 C927 1.490 . S
C932 C934 1.395 . S
C932 C935 1.403 . S
H933 C939 0.930 . S
C934 H920 0.930 . S
C934 C932 1.395 . S
C934 C937 1.403 . S
C935 C932 1.403 . S
C935 C936 1.524 . S
C935 C939 1.400 . S
C936 H921 0.960 . S
C936 H922 0.960 . S
C936 H923 0.960 . S
C936 C935 1.524 . S
C937 C934 1.403 . S
C937 C938 1.392 . S
C937 C941 1.495 . S
C938 C937 1.392 . S
C938 C939 1.385 . S
C938 C940 1.478 . S
C939 H933 0.930 . S
C939 C935 1.400 . S
C939 C938 1.385 . S
C940 C938 1.478 . S
C940 C942 1.381 . S
C940 C946 1.383 . S
C941 C937 1.495 . S
C941 H947 0.959 . S
C941 H948 0.961 . S
C941 H949 0.960 . S
C942 C940 1.381 . S
C942 C943 1.394 . S
C942 H950 0.930 . S
C943 C942 1.394 . S
C943 C944 1.383 . S
C943 H951 0.929 . S
C944 C943 1.383 . S
C944 C945 1.377 . S
C945 H929 0.930 . S
C945 C944 1.377 . S
C945 C946 1.379 . S
C946 H930 0.931 . S
C946 C940 1.383 . S
C946 C945 1.379 . S
H947 C941 0.959 . S
H948 C941 0.961 . S
H949 C941 0.960 . S
H950 C942 0.930 . S
H951 C943 0.929 . S
H952 C960 0.929 . S
H953 C962 0.930 . S
H954 C964 0.930 . S
H955 C967 0.929 . S
H956 C970 0.930 . S
H957 C972 0.960 . S
H958 C972 0.960 . S
H959 C972 0.960 . S
C960 H952 0.929 . S
C960 C961 1.377 . S
C960 C962 1.384 . S
C961 C960 1.377 . S
C961 C967 1.390 . S
C962 H953 0.930 . S
C962 C960 1.384 . S
C962 C963 1.372 . S
C963 C962 1.372 . S
C963 C964 1.400 . S
C963 C968 1.490 . S
C964 H954 0.930 . S
C964 C963 1.400 . S
C964 C967 1.386 . S
H965 C981 0.930 . S
H966 C982 0.931 . S
C967 H955 0.929 . S
C967 C961 1.390 . S
C967 C964 1.386 . S
C968 C963 1.490 . S
C968 C970 1.395 . S
C968 C971 1.403 . S
H969 C975 0.930 . S
C970 H956 0.930 . S
C970 C968 1.395 . S
C970 C973 1.403 . S
C971 C968 1.403 . S
C971 C972 1.524 . S
C971 C975 1.400 . S
C972 H957 0.960 . S
C972 H958 0.960 . S
C972 H959 0.960 . S
C972 C971 1.524 . S
C973 C970 1.403 . S
C973 C974 1.392 . S
C973 C977 1.495 . S
C974 C973 1.392 . S
C974 C975 1.385 . S
C974 C976 1.478 . S
C975 H969 0.930 . S
C975 C971 1.400 . S
C975 C974 1.385 . S
C976 C974 1.478 . S
C976 C978 1.381 . S
C976 C982 1.383 . S
C977 C973 1.495 . S
C977 H983 0.959 . S
C977 H984 0.961 . S
C977 H985 0.960 . S
C978 C976 1.381 . S
C978 C979 1.394 . S
C978 H986 0.930 . S
C979 C978 1.394 . S
C979 C980 1.383 . S
C979 H987 0.929 . S
C980 C979 1.383 . S
C980 C981 1.377 . S
C981 H965 0.930 . S
C981 C980 1.377 . S
C981 C982 1.379 . S
C982 H966 0.931 . S
C982 C976 1.383 . S
C982 C981 1.379 . S
H983 C977 0.959 . S
H984 C977 0.961 . S
H985 C977 0.960 . S
H986 C978 0.930 . S
H987 C979 0.929 . S
H988 C996 0.929 . S
H989 C998 0.930 . S
H990 C1000 0.930 . S
H991 C1003 0.929 . S
H992 C1006 0.930 . S
H993 C1008 0.960 . S
H994 C1008 0.960 . S
H995 C1008 0.960 . S
C996 H988 0.929 . S
C996 C997 1.377 . S
C996 C998 1.384 . S
C997 C996 1.377 . S
C997 C1003 1.390 . S
C998 H989 0.930 . S
C998 C996 1.384 . S
C998 C999 1.372 . S
C999 C998 1.372 . S
C999 C1000 1.400 . S
C999 C1004 1.490 . S
C1000 H990 0.930 . S
C1000 C999 1.400 . S
C1000 C1003 1.386 . S
H1001 C1017 0.930 . S
H1002 C1018 0.931 . S
C1003 H991 0.929 . S
C1003 C997 1.390 . S
C1003 C1000 1.386 . S
C1004 C999 1.490 . S
C1004 C1006 1.395 . S
C1004 C1007 1.403 . S
H1005 C1011 0.930 . S
C1006 H992 0.930 . S
C1006 C1004 1.395 . S
C1006 C1009 1.403 . S
C1007 C1004 1.403 . S
C1007 C1008 1.524 . S
C1007 C1011 1.400 . S
C1008 H993 0.960 . S
C1008 H994 0.960 . S
C1008 H995 0.960 . S
C1008 C1007 1.524 . S
C1009 C1006 1.403 . S
C1009 C1010 1.392 . S
C1009 C1013 1.495 . S
C1010 C1009 1.392 . S
C1010 C1011 1.385 . S
C1010 C1012 1.478 . S
C1011 H1005 0.930 . S
C1011 C1007 1.400 . S
C1011 C1010 1.385 . S
C1012 C1010 1.478 . S
C1012 C1014 1.381 . S
C1012 C1018 1.383 . S
C1013 C1009 1.495 . S
C1013 H1019 0.959 . S
C1013 H1020 0.961 . S
C1013 H1021 0.960 . S
C1014 C1012 1.381 . S
C1014 C1015 1.394 . S
C1014 H1022 0.930 . S
C1015 C1014 1.394 . S
C1015 C1016 1.383 . S
C1015 H1023 0.929 . S
C1016 C1015 1.383 . S
C1016 C1017 1.377 . S
C1017 H1001 0.930 . S
C1017 C1016 1.377 . S
C1017 C1018 1.379 . S
C1018 H1002 0.931 . S
C1018 C1012 1.383 . S
C1018 C1017 1.379 . S
H1019 C1013 0.959 . S
H1020 C1013 0.961 . S
H1021 C1013 0.960 . S
H1022 C1014 0.930 . S
H1023 C1015 0.929 . S
H1024 C1032 0.929 . S
H1025 C1034 0.930 . S
H1026 C1036 0.930 . S
H1027 C1039 0.929 . S
H1028 C1042 0.930 . S
H1029 C1044 0.960 . S
H1030 C1044 0.960 . S
H1031 C1044 0.960 . S
C1032 H1024 0.929 . S
C1032 C1033 1.377 . S
C1032 C1034 1.384 . S
C1033 C1032 1.377 . S
C1033 C1039 1.390 . S
C1034 H1025 0.930 . S
C1034 C1032 1.384 . S
C1034 C1035 1.372 . S
C1035 C1034 1.372 . S
C1035 C1036 1.400 . S
C1035 C1040 1.490 . S
C1036 H1026 0.930 . S
C1036 C1035 1.400 . S
C1036 C1039 1.386 . S
H1037 C1053 0.930 . S
H1038 C1054 0.931 . S
C1039 H1027 0.929 . S
C1039 C1033 1.390 . S
C1039 C1036 1.386 . S
C1040 C1035 1.490 . S
C1040 C1042 1.395 . S
C1040 C1043 1.403 . S
H1041 C1047 0.930 . S
C1042 H1028 0.930 . S
C1042 C1040 1.395 . S
C1042 C1045 1.403 . S
C1043 C1040 1.403 . S
C1043 C1044 1.524 . S
C1043 C1047 1.400 . S
C1044 H1029 0.960 . S
C1044 H1030 0.960 . S
C1044 H1031 0.960 . S
C1044 C1043 1.524 . S
C1045 C1042 1.403 . S
C1045 C1046 1.392 . S
C1045 C1049 1.495 . S
C1046 C1045 1.392 . S
C1046 C1047 1.385 . S
C1046 C1048 1.478 . S
C1047 H1041 0.930 . S
C1047 C1043 1.400 . S
C1047 C1046 1.385 . S
C1048 C1046 1.478 . S
C1048 C1050 1.381 . S
C1048 C1054 1.383 . S
C1049 C1045 1.495 . S
C1049 H1055 0.959 . S
C1049 H1056 0.961 . S
C1049 H1057 0.960 . S
C1050 C1048 1.381 . S
C1050 C1051 1.394 . S
C1050 H1058 0.930 . S
C1051 C1050 1.394 . S
C1051 C1052 1.383 . S
C1051 H1059 0.929 . S
C1052 C1051 1.383 . S
C1052 C1053 1.377 . S
C1053 H1037 0.930 . S
C1053 C1052 1.377 . S
C1053 C1054 1.379 . S
C1054 H1038 0.931 . S
C1054 C1048 1.383 . S
C1054 C1053 1.379 . S
H1055 C1049 0.959 . S
H1056 C1049 0.961 . S
H1057 C1049 0.960 . S
H1058 C1050 0.930 . S
H1059 C1051 0.929 . S
H1060 C1068 0.929 . S
H1061 C1070 0.930 . S
H1062 C1072 0.930 . S
H1063 C1075 0.929 . S
H1064 C1078 0.930 . S
H1065 C1080 0.960 . S
H1066 C1080 0.960 . S
H1067 C1080 0.960 . S
C1068 H1060 0.929 . S
C1068 C1069 1.377 . S
C1068 C1070 1.384 . S
C1069 C1068 1.377 . S
C1069 C1075 1.390 . S
C1070 H1061 0.930 . S
C1070 C1068 1.384 . S
C1070 C1071 1.372 . S
C1071 C1070 1.372 . S
C1071 C1072 1.400 . S
C1071 C1076 1.490 . S
C1072 H1062 0.930 . S
C1072 C1071 1.400 . S
C1072 C1075 1.386 . S
H1073 C1089 0.930 . S
H1074 C1090 0.931 . S
C1075 H1063 0.929 . S
C1075 C1069 1.390 . S
C1075 C1072 1.386 . S
C1076 C1071 1.490 . S
C1076 C1078 1.395 . S
C1076 C1079 1.403 . S
H1077 C1083 0.930 . S
C1078 H1064 0.930 . S
C1078 C1076 1.395 . S
C1078 C1081 1.403 . S
C1079 C1076 1.403 . S
C1079 C1080 1.524 . S
C1079 C1083 1.400 . S
C1080 H1065 0.960 . S
C1080 H1066 0.960 . S
C1080 H1067 0.960 . S
C1080 C1079 1.524 . S
C1081 C1078 1.403 . S
C1081 C1082 1.392 . S
C1081 C1085 1.495 . S
C1082 C1081 1.392 . S
C1082 C1083 1.385 . S
C1082 C1084 1.478 . S
C1083 H1077 0.930 . S
C1083 C1079 1.400 . S
C1083 C1082 1.385 . S
C1084 C1082 1.478 . S
C1084 C1086 1.381 . S
C1084 C1090 1.383 . S
C1085 C1081 1.495 . S
C1085 H1091 0.959 . S
C1085 H1092 0.961 . S
C1085 H1093 0.960 . S
C1086 C1084 1.381 . S
C1086 C1087 1.394 . S
C1086 H1094 0.930 . S
C1087 C1086 1.394 . S
C1087 C1088 1.383 . S
C1087 H1095 0.929 . S
C1088 C1087 1.383 . S
C1088 C1089 1.377 . S
C1089 H1073 0.930 . S
C1089 C1088 1.377 . S
C1089 C1090 1.379 . S
C1090 H1074 0.931 . S
C1090 C1084 1.383 . S
C1090 C1089 1.379 . S
H1091 C1085 0.959 . S
H1092 C1085 0.961 . S
H1093 C1085 0.960 . S
H1094 C1086 0.930 . S
H1095 C1087 0.929 . S
C241 C5 1.044 . S
C260 C79 1.062 . S
C277 C14 0.922 . S
C296 C128 0.920 . S
C332 C154 2.435 . S
C313 C25 2.464 . S
C349 C34 2.365 . S
C368 C202 2.300 . S
C404 C114 2.125 . S
C385 C7 2.072 . S
C440 C82 0.866 . S
C421 C13 0.857 . S
C476 C203 1.888 . S
C457 C23 1.906 . S
C512 C171 1.543 . S
C493 C31 1.584 . S
C529 C4 1.496 . S
C548 C199 1.516 . S
C584 C131 2.290 . S
C565 C22 2.373 . S
C601 C32 2.339 . S
C620 C83 2.323 . S
C637 C16 0.738 . S
C656 C168 0.719 . S
C692 C88 1.028 . S
C673 C41 1.025 . S
C709 C50 0.928 . S
C728 C119 0.907 . S
C745 C61 2.457 . S
C764 C163 2.422 . S
C781 C67 2.378 . S
C800 C211 2.333 . S
C817 C40 2.097 . S
C836 C123 2.139 . S
C872 C91 0.858 . S
C853 C52 0.822 . S
C908 C194 1.899 . S
C889 C59 1.918 . S
C944 C162 1.532 . S
C925 C70 1.579 . S
C961 C43 1.494 . S
C980 C208 1.516 . S
C1016 C122 2.312 . S
C997 C58 2.388 . S
C1052 C74 2.305 . S
C1033 C68 2.314 . S
C1069 C49 0.750 . S
C1088 C159 0.773 . S
