# Generated by pormake.
# Topology pyr, (3,6)-cn, num edge types: 1
# Building blocks:
#     Node 0, Type 0, BuildingBlock: VETTIZ_charged_linker_0, # of connection points: 3
#     Node 1, Type 0, BuildingBlock: VETTIZ_charged_linker_0, # of connection points: 3
#     Node 2, Type 0, BuildingBlock: VETTIZ_charged_linker_0, # of connection points: 3
#     Node 3, Type 0, BuildingBlock: VETTIZ_charged_linker_0, # of connection points: 3
#     Node 4, Type 0, BuildingBlock: VETTIZ_charged_linker_0, # of connection points: 3
#     Node 5, Type 0, BuildingBlock: VETTIZ_charged_linker_0, # of connection points: 3
#     Node 6, Type 0, BuildingBlock: VETTIZ_charged_linker_0, # of connection points: 3
#     Node 7, Type 0, BuildingBlock: VETTIZ_charged_linker_0, # of connection points: 3
#     Node 8, Type 1, BuildingBlock: BETFAJ_clean_sbu_0, # of connection points: 6
#     Node 9, Type 1, BuildingBlock: BETFAJ_clean_sbu_0, # of connection points: 6
#     Node 10, Type 1, BuildingBlock: BETFAJ_clean_sbu_0, # of connection points: 6
#     Node 11, Type 1, BuildingBlock: BETFAJ_clean_sbu_0, # of connection points: 6
#     Edge 12, Type (0, 1), BuildingBlock: UVAHIK_clean_linker_0, # of connection points: 2
#     Edge 13, Type (0, 1), BuildingBlock: UVAHIK_clean_linker_0, # of connection points: 2
#     Edge 14, Type (0, 1), BuildingBlock: UVAHIK_clean_linker_0, # of connection points: 2
#     Edge 15, Type (0, 1), BuildingBlock: UVAHIK_clean_linker_0, # of connection points: 2
#     Edge 16, Type (0, 1), BuildingBlock: UVAHIK_clean_linker_0, # of connection points: 2
#     Edge 17, Type (0, 1), BuildingBlock: UVAHIK_clean_linker_0, # of connection points: 2
#     Edge 18, Type (0, 1), BuildingBlock: UVAHIK_clean_linker_0, # of connection points: 2
#     Edge 19, Type (0, 1), BuildingBlock: UVAHIK_clean_linker_0, # of connection points: 2
#     Edge 20, Type (0, 1), BuildingBlock: UVAHIK_clean_linker_0, # of connection points: 2
#     Edge 21, Type (0, 1), BuildingBlock: UVAHIK_clean_linker_0, # of connection points: 2
#     Edge 22, Type (0, 1), BuildingBlock: UVAHIK_clean_linker_0, # of connection points: 2
#     Edge 23, Type (0, 1), BuildingBlock: UVAHIK_clean_linker_0, # of connection points: 2
#     Edge 24, Type (0, 1), BuildingBlock: UVAHIK_clean_linker_0, # of connection points: 2
#     Edge 25, Type (0, 1), BuildingBlock: UVAHIK_clean_linker_0, # of connection points: 2
#     Edge 26, Type (0, 1), BuildingBlock: UVAHIK_clean_linker_0, # of connection points: 2
#     Edge 27, Type (0, 1), BuildingBlock: UVAHIK_clean_linker_0, # of connection points: 2
#     Edge 28, Type (0, 1), BuildingBlock: UVAHIK_clean_linker_0, # of connection points: 2
#     Edge 29, Type (0, 1), BuildingBlock: UVAHIK_clean_linker_0, # of connection points: 2
#     Edge 30, Type (0, 1), BuildingBlock: UVAHIK_clean_linker_0, # of connection points: 2
#     Edge 31, Type (0, 1), BuildingBlock: UVAHIK_clean_linker_0, # of connection points: 2
#     Edge 32, Type (0, 1), BuildingBlock: UVAHIK_clean_linker_0, # of connection points: 2
#     Edge 33, Type (0, 1), BuildingBlock: UVAHIK_clean_linker_0, # of connection points: 2
#     Edge 34, Type (0, 1), BuildingBlock: UVAHIK_clean_linker_0, # of connection points: 2
#     Edge 35, Type (0, 1), BuildingBlock: UVAHIK_clean_linker_0, # of connection points: 2
# Relax obj value: 0.074
# Max RMSD: 0.116
# Mean RMSD: 0.055
data_MOF--net-pyr--node1-BETFAJ_clean_sbu_0--node2-VETTIZ_charged_linker_0--edge1-UVAHIK_clean_linker_0
_symmetry_space_group_name_H-M    P1
_symmetry_Int_Tables_number       1
_symmetry_cell_setting            triclinic
loop_
_symmetry_equiv_pos_as_xyz
'x, y, z'
_cell_length_a     56.886888
_cell_length_b     60.743801
_cell_length_c     55.954612
_cell_angle_alpha  91.247196
_cell_angle_beta   88.911949
_cell_angle_gamma 98.377175
loop_
_atom_site_label
_atom_site_type_symbol
_atom_site_fract_x
_atom_site_fract_y
_atom_site_fract_z
_atom_type_partial_charge
C0 C 0.28477 0.23095 0.29567 0.0
C1 C 0.26511 0.23946 0.30593 0.0
C2 C 0.2582 0.25877 0.29633 0.0
C3 C 0.28692 0.25774 0.26395 0.0
C4 C 0.29516 0.24009 0.27455 0.0
C5 C 0.31358 0.23076 0.2593 0.0
H6 H 0.35967 0.21676 0.14956 0.0
C7 C 0.29812 0.26052 0.23996 0.0
C8 C 0.31384 0.24485 0.23713 0.0
H9 H 0.37651 0.18727 0.21572 0.0
H10 H 0.3529 0.21073 0.23781 0.0
H11 H 0.36704 0.26798 0.17279 0.0
H12 H 0.3052 0.2192 0.1604 0.0
H13 H 0.29886 0.24526 0.15149 0.0
H14 H 0.32235 0.23322 0.13649 0.0
H15 H 0.35571 0.26143 0.14336 0.0
H16 H 0.34439 0.28197 0.16241 0.0
C17 C 0.33763 0.23496 0.27245 0.0
C18 C 0.30442 0.20586 0.25396 0.0
C19 C 0.26666 0.31176 0.18203 0.0
C20 C 0.2695 0.31465 0.15727 0.0
C21 C 0.28573 0.30317 0.14452 0.0
C22 C 0.29865 0.28874 0.15628 0.0
C23 C 0.295 0.28546 0.18096 0.0
C24 C 0.27934 0.29704 0.1934 0.0
C25 C 0.27632 0.29045 0.21911 0.0
C26 C 0.29326 0.27342 0.22029 0.0
C27 C 0.30416 0.2705 0.19792 0.0
C28 C 0.28471 0.3112 0.23497 0.0
C29 C 0.24997 0.28006 0.22343 0.0
C30 C 0.3585 0.21546 0.16882 0.0
C31 C 0.36945 0.19953 0.18075 0.0
C32 C 0.36759 0.19872 0.20591 0.0
C33 C 0.35397 0.21245 0.21878 0.0
C34 C 0.3419 0.22714 0.20648 0.0
C35 C 0.34505 0.2292 0.18206 0.0
C36 C 0.33202 0.24692 0.17241 0.0
C37 C 0.32007 0.2546 0.19501 0.0
C38 C 0.32547 0.24246 0.21475 0.0
C39 C 0.3506 0.26557 0.16199 0.0
C40 C 0.3137 0.23577 0.1541 0.0
H41 H 0.26241 0.28213 0.26847 0.0
H42 H 0.29082 0.21643 0.30297 0.0
H43 H 0.28549 0.20368 0.24854 0.0
H44 H 0.31407 0.19864 0.23923 0.0
H45 H 0.30562 0.19567 0.27002 0.0
H46 H 0.33812 0.24876 0.28592 0.0
H47 H 0.34101 0.21992 0.28201 0.0
H48 H 0.35276 0.24026 0.26011 0.0
H49 H 0.25388 0.31991 0.19219 0.0
H50 H 0.28819 0.30519 0.12541 0.0
H51 H 0.31054 0.28028 0.14559 0.0
H52 H 0.30135 0.32068 0.22753 0.0
H53 H 0.27107 0.32257 0.23594 0.0
H54 H 0.28901 0.30691 0.25331 0.0
H55 H 0.24091 0.27444 0.20645 0.0
H56 H 0.24821 0.26484 0.23422 0.0
H57 H 0.2396 0.29218 0.23225 0.0
H58 H 0.24316 0.26575 0.30384 0.0
C59 C 0.26915 0.26805 0.27551 0.0
C60 C 0.23279 0.86601 0.57756 0.0
C61 C 0.22114 0.87804 0.59479 0.0
C62 C 0.23216 0.88345 0.61696 0.0
C63 C 0.26685 0.86775 0.60327 0.0
C64 C 0.25542 0.86087 0.58228 0.0
C65 C 0.27026 0.84814 0.56604 0.0
H66 H 0.37587 0.81274 0.54262 0.0
C67 C 0.29091 0.8615 0.60183 0.0
C68 C 0.29294 0.84968 0.58025 0.0
H69 H 0.31108 0.79713 0.50279 0.0
H70 H 0.29106 0.81968 0.53059 0.0
H71 H 0.37075 0.86608 0.5557 0.0
H72 H 0.35281 0.80356 0.59122 0.0
H73 H 0.36167 0.82355 0.61361 0.0
H74 H 0.38267 0.81797 0.59045 0.0
H75 H 0.39249 0.85004 0.56615 0.0
H76 H 0.38018 0.86966 0.58549 0.0
C77 C 0.27441 0.8605 0.54208 0.0
C78 C 0.25755 0.82383 0.56354 0.0
C79 C 0.35115 0.89146 0.66449 0.0
C80 C 0.37504 0.8891 0.66772 0.0
C81 C 0.38622 0.87568 0.65162 0.0
C82 C 0.37385 0.86517 0.63207 0.0
C83 C 0.34999 0.86797 0.62882 0.0
C84 C 0.33895 0.88064 0.64514 0.0
C85 C 0.31327 0.88095 0.63957 0.0
C86 C 0.31085 0.86682 0.61681 0.0
C87 C 0.33245 0.8595 0.61048 0.0
C88 C 0.30998 0.90539 0.63514 0.0
C89 C 0.29774 0.86985 0.66037 0.0
C90 C 0.35754 0.81469 0.53954 0.0
C91 C 0.34509 0.80363 0.5203 0.0
C92 C 0.321 0.80576 0.51739 0.0
C93 C 0.30944 0.81869 0.53362 0.0
C94 C 0.32203 0.82925 0.55311 0.0
C95 C 0.34568 0.8271 0.5558 0.0
C96 C 0.35587 0.83808 0.57838 0.0
C97 C 0.33442 0.84713 0.58892 0.0
C98 C 0.31475 0.84217 0.57393 0.0
C99 C 0.376 0.85691 0.57127 0.0
C100 C 0.36388 0.82002 0.59429 0.0
H101 H 0.26255 0.88354 0.6382 0.0
H102 H 0.22497 0.86139 0.56036 0.0
H103 H 0.24583 0.81901 0.57929 0.0
H104 H 0.27017 0.81158 0.56286 0.0
H105 H 0.24628 0.82156 0.54742 0.0
H106 H 0.27929 0.8787 0.54539 0.0
H107 H 0.2581 0.85791 0.53117 0.0
H108 H 0.28912 0.85531 0.53125 0.0
H109 H 0.34204 0.90128 0.67702 0.0
H110 H 0.40462 0.87358 0.65402 0.0
H111 H 0.38334 0.85533 0.62025 0.0
H112 H 0.32448 0.91356 0.62332 0.0
H113 H 0.31044 0.91509 0.65223 0.0
H114 H 0.29331 0.90699 0.62608 0.0
H115 H 0.30731 0.85842 0.6705 0.0
H116 H 0.28155 0.85918 0.65393 0.0
H117 H 0.29253 0.88249 0.67328 0.0
H118 H 0.22337 0.89194 0.63097 0.0
C119 C 0.25493 0.87847 0.62123 0.0
C120 C 0.63577 0.27471 0.87527 0.0
C121 C 0.61522 0.26088 0.86709 0.0
C122 C 0.60379 0.26815 0.84702 0.0
C123 C 0.63294 0.302 0.84414 0.0
C124 C 0.64424 0.29484 0.86364 0.0
C125 C 0.66606 0.31085 0.87019 0.0
H126 H 0.74304 0.40567 0.85145 0.0
C127 C 0.64659 0.32386 0.83626 0.0
C128 C 0.66611 0.32887 0.85167 0.0
H129 H 0.74524 0.35628 0.90562 0.0
H130 H 0.70941 0.33524 0.89061 0.0
H131 H 0.68545 0.40632 0.85638 0.0
H132 H 0.72696 0.37066 0.80804 0.0
H133 H 0.70496 0.38073 0.79149 0.0
H134 H 0.72714 0.40017 0.80646 0.0
H135 H 0.70395 0.41994 0.83315 0.0
H136 H 0.67386 0.40715 0.82757 0.0
C137 C 0.66228 0.31988 0.89588 0.0
C138 C 0.68792 0.29844 0.86706 0.0
C139 C 0.61966 0.36695 0.76522 0.0
C140 C 0.62928 0.38719 0.75406 0.0
C141 C 0.65029 0.39909 0.76379 0.0
C142 C 0.66149 0.39128 0.78349 0.0
C143 C 0.65192 0.3711 0.79417 0.0
C144 C 0.63129 0.35922 0.78506 0.0
C145 C 0.62402 0.33788 0.79876 0.0
C146 C 0.64343 0.33908 0.81759 0.0
C147 C 0.65983 0.35874 0.81474 0.0
C148 C 0.59932 0.33876 0.81034 0.0
C149 C 0.62468 0.31796 0.78126 0.0
C150 C 0.73576 0.3904 0.86021 0.0
C151 C 0.74764 0.38271 0.87976 0.0
C152 C 0.7372 0.36259 0.89029 0.0
C153 C 0.71608 0.35033 0.88159 0.0
C154 C 0.70471 0.358 0.86195 0.0
C155 C 0.71449 0.3778 0.85163 0.0
C156 C 0.69972 0.38327 0.83089 0.0
C157 C 0.67966 0.36351 0.83043 0.0
C158 C 0.68272 0.34873 0.84875 0.0
C159 C 0.6903 0.4054 0.83706 0.0
C160 C 0.71541 0.38394 0.80794 0.0
H161 H 0.6027 0.2929 0.82067 0.0
H162 H 0.64544 0.26983 0.89028 0.0
H163 H 0.68558 0.2864 0.85172 0.0
H164 H 0.70448 0.30965 0.86279 0.0
H165 H 0.69064 0.28896 0.88328 0.0
H166 H 0.64338 0.32204 0.89908 0.0
H167 H 0.66699 0.30826 0.90947 0.0
H168 H 0.67243 0.33655 0.89925 0.0
H169 H 0.6037 0.35713 0.75841 0.0
H170 H 0.65808 0.41482 0.7563 0.0
H171 H 0.67734 0.40136 0.7897 0.0
H172 H 0.59861 0.35534 0.81892 0.0
H173 H 0.58518 0.33589 0.79672 0.0
H174 H 0.595 0.32652 0.82461 0.0
H175 H 0.64084 0.32072 0.76957 0.0
H176 H 0.62558 0.30226 0.79048 0.0
H177 H 0.60891 0.31568 0.76957 0.0
H178 H 0.58785 0.25826 0.84023 0.0
C179 C 0.61241 0.28846 0.83566 0.0
C180 C 0.90116 0.74822 0.35862 0.0
C181 C 0.89303 0.75909 0.37921 0.0
C182 C 0.8722 0.74882 0.39088 0.0
C183 C 0.86824 0.71769 0.36238 0.0
C184 C 0.88862 0.7275 0.35068 0.0
C185 C 0.89498 0.71309 0.32972 0.0
H186 H 0.87032 0.61682 0.26282 0.0
C187 C 0.85936 0.6962 0.34997 0.0
C188 C 0.87504 0.69326 0.33075 0.0
H189 H 0.92875 0.67014 0.25296 0.0
H190 H 0.91463 0.69026 0.28664 0.0
H191 H 0.87145 0.61656 0.32093 0.0
H192 H 0.83048 0.6496 0.27258 0.0
H193 H 0.81163 0.63884 0.2961 0.0
H194 H 0.82505 0.62003 0.27654 0.0
H195 H 0.84879 0.60163 0.30242 0.0
H196 H 0.84169 0.61322 0.33111 0.0
C197 C 0.91952 0.70611 0.33445 0.0
C198 C 0.89416 0.72639 0.30659 0.0
C199 C 0.78319 0.64941 0.38088 0.0
C200 C 0.76997 0.62891 0.3736 0.0
C201 C 0.77857 0.61771 0.35354 0.0
C202 C 0.79958 0.62656 0.34121 0.0
C203 C 0.81248 0.64701 0.34875 0.0
C204 C 0.80413 0.65806 0.36829 0.0
C205 C 0.81998 0.67962 0.37384 0.0
C206 C 0.83915 0.67983 0.3544 0.0
C207 C 0.83478 0.66063 0.33969 0.0
C208 C 0.8302 0.67801 0.39913 0.0
C209 C 0.80518 0.69888 0.37105 0.0
C210 C 0.88008 0.63289 0.26765 0.0
C211 C 0.901 0.64153 0.25486 0.0
C212 C 0.91297 0.66256 0.26243 0.0
C213 C 0.90461 0.67443 0.28204 0.0
C214 C 0.88387 0.66545 0.29462 0.0
C215 C 0.87192 0.64502 0.28722 0.0
C216 C 0.84998 0.63809 0.30244 0.0
C217 C 0.8508 0.65749 0.3203 0.0
C218 C 0.87079 0.67365 0.31574 0.0
C219 C 0.85288 0.61614 0.31484 0.0
C220 C 0.82803 0.63635 0.2862 0.0
H221 H 0.8442 0.7218 0.39254 0.0
H222 H 0.91715 0.75543 0.34921 0.0
H223 H 0.87851 0.73546 0.30698 0.0
H224 H 0.89215 0.71566 0.29039 0.0
H225 H 0.91037 0.73887 0.30454 0.0
H226 H 0.92089 0.70171 0.35352 0.0
H227 H 0.93408 0.71987 0.33046 0.0
H228 H 0.92268 0.69115 0.32407 0.0
H229 H 0.77759 0.65852 0.3963 0.0
H230 H 0.76886 0.60215 0.34705 0.0
H231 H 0.80496 0.61711 0.32617 0.0
H232 H 0.83297 0.66065 0.40284 0.0
H233 H 0.81794 0.68313 0.4132 0.0
H234 H 0.84792 0.68797 0.40126 0.0
H235 H 0.79273 0.6954 0.35588 0.0
H236 H 0.81616 0.71486 0.36674 0.0
H237 H 0.79441 0.70116 0.38745 0.0
H238 H 0.86517 0.75674 0.40644 0.0
C239 C 0.85987 0.72844 0.38266 0.0
C240 C 0.74578 0.72844 0.85864 0.0
C241 C 0.76226 0.71561 0.8485 0.0
C242 C 0.76706 0.71659 0.82373 0.0
C243 C 0.74053 0.74395 0.81981 0.0
C244 C 0.73489 0.74225 0.84388 0.0
C245 C 0.71675 0.75694 0.85138 0.0
H246 H 0.65038 0.83615 0.82199 0.0
C247 C 0.72714 0.76043 0.80962 0.0
C248 C 0.71264 0.76774 0.82782 0.0
H249 H 0.65694 0.80788 0.89146 0.0
H250 H 0.68185 0.78263 0.87423 0.0
H251 H 0.64645 0.79178 0.79047 0.0
H252 H 0.70655 0.84001 0.81007 0.0
H253 H 0.70859 0.83438 0.77926 0.0
H254 H 0.68346 0.84611 0.7909 0.0
H255 H 0.65265 0.81826 0.77628 0.0
H256 H 0.66585 0.79451 0.76554 0.0
C257 C 0.69415 0.74191 0.86044 0.0
C258 C 0.72825 0.77413 0.87014 0.0
C259 C 0.75076 0.79152 0.72801 0.0
C260 C 0.74279 0.80815 0.71442 0.0
C261 C 0.72133 0.81577 0.72141 0.0
C262 C 0.70949 0.80868 0.7427 0.0
C263 C 0.71914 0.79379 0.75721 0.0
C264 C 0.73862 0.78451 0.74911 0.0
C265 C 0.74546 0.76778 0.76612 0.0
C266 C 0.72806 0.77001 0.78667 0.0
C267 C 0.71299 0.78556 0.78152 0.0
C268 C 0.741 0.74442 0.75381 0.0
C269 C 0.77155 0.77528 0.77355 0.0
C270 C 0.65722 0.82462 0.8336 0.0
C271 C 0.65167 0.82424 0.85821 0.0
C272 C 0.66062 0.8085 0.87241 0.0
C273 C 0.67534 0.79395 0.86241 0.0
C274 C 0.68151 0.79529 0.83799 0.0
C275 C 0.67229 0.81034 0.82401 0.0
C276 C 0.68175 0.81045 0.79875 0.0
C277 C 0.69791 0.79271 0.79972 0.0
C278 C 0.69777 0.7839 0.82277 0.0
C279 C 0.66068 0.80356 0.78171 0.0
C280 C 0.69574 0.83391 0.79425 0.0
H281 H 0.76107 0.73101 0.79077 0.0
H282 H 0.74154 0.72778 0.87759 0.0
H283 H 0.74729 0.77967 0.86558 0.0
H284 H 0.72011 0.78955 0.87094 0.0
H285 H 0.7274 0.76686 0.88824 0.0
H286 H 0.69085 0.72623 0.84958 0.0
H287 H 0.69599 0.73731 0.87934 0.0
H288 H 0.67788 0.74965 0.85878 0.0
H289 H 0.76696 0.78498 0.72327 0.0
H290 H 0.71407 0.82783 0.71087 0.0
H291 H 0.69375 0.81568 0.74749 0.0
H292 H 0.72885 0.74398 0.7384 0.0
H293 H 0.75783 0.73923 0.74692 0.0
H294 H 0.73208 0.73154 0.76601 0.0
H295 H 0.77445 0.79335 0.77828 0.0
H296 H 0.77665 0.76672 0.78938 0.0
H297 H 0.78408 0.77242 0.75873 0.0
H298 H 0.77981 0.70699 0.81556 0.0
C299 C 0.75627 0.73065 0.80937 0.0
C300 C 0.78961 0.16977 0.44957 0.0
C301 C 0.8005 0.15487 0.43496 0.0
C302 C 0.78875 0.14578 0.41424 0.0
C303 C 0.75523 0.16485 0.42399 0.0
C304 C 0.76695 0.17428 0.44393 0.0
C305 C 0.75199 0.18807 0.45873 0.0
H306 H 0.64544 0.22274 0.47862 0.0
C307 C 0.73132 0.17151 0.42418 0.0
C308 C 0.72923 0.18503 0.44454 0.0
H309 H 0.70929 0.23961 0.51968 0.0
H310 H 0.73033 0.21739 0.49251 0.0
H311 H 0.65062 0.16982 0.46654 0.0
H312 H 0.67028 0.23162 0.43011 0.0
H313 H 0.6627 0.21126 0.40777 0.0
H314 H 0.64047 0.21713 0.42954 0.0
H315 H 0.62954 0.18612 0.45516 0.0
H316 H 0.64185 0.16601 0.43652 0.0
C317 C 0.74824 0.17773 0.48384 0.0
C318 C 0.76438 0.21254 0.45882 0.0
C319 C 0.67389 0.14309 0.3585 0.0
C320 C 0.65052 0.14635 0.3537 0.0
C321 C 0.63887 0.15981 0.36939 0.0
C322 C 0.6503 0.16968 0.38978 0.0
C323 C 0.67368 0.16617 0.39438 0.0
C324 C 0.68512 0.15321 0.37873 0.0
C325 C 0.71008 0.15171 0.38606 0.0
C326 C 0.71184 0.16605 0.40865 0.0
C327 C 0.69044 0.17427 0.41356 0.0
C328 C 0.71175 0.12699 0.39123 0.0
C329 C 0.72727 0.16202 0.36612 0.0
C330 C 0.66379 0.22114 0.48208 0.0
C331 C 0.67566 0.23237 0.50156 0.0
C332 C 0.69981 0.23078 0.50493 0.0
C333 C 0.71193 0.21796 0.48911 0.0
C334 C 0.69981 0.20688 0.46961 0.0
C335 C 0.67619 0.20876 0.46627 0.0
C336 C 0.66657 0.19729 0.4437 0.0
C337 C 0.68813 0.18765 0.43432 0.0
C338 C 0.70748 0.19315 0.44963 0.0
C339 C 0.64594 0.17888 0.45064 0.0
C340 C 0.65943 0.21508 0.42685 0.0
H341 H 0.75816 0.14297 0.39287 0.0
H342 H 0.7982 0.17731 0.46545 0.0
H343 H 0.77383 0.21661 0.44152 0.0
H344 H 0.75169 0.22464 0.46075 0.0
H345 H 0.77769 0.21566 0.47322 0.0
H346 H 0.74542 0.15923 0.48243 0.0
H347 H 0.76398 0.18284 0.49519 0.0
H348 H 0.73232 0.18201 0.49336 0.0
H349 H 0.68344 0.13314 0.34651 0.0
H350 H 0.62083 0.16251 0.36601 0.0
H351 H 0.64048 0.17962 0.40115 0.0
H352 H 0.69447 0.11816 0.39802 0.0
H353 H 0.71662 0.11797 0.3748 0.0
H354 H 0.72449 0.12503 0.40542 0.0
H355 H 0.72075 0.17669 0.35839 0.0
H356 H 0.74519 0.16845 0.37269 0.0
H357 H 0.72885 0.1498 0.35133 0.0
H358 H 0.79641 0.13398 0.40281 0.0
C359 C 0.7663 0.15078 0.40862 0.0
C360 C 0.401 0.66556 0.25796 0.0
C361 C 0.3912 0.64556 0.26948 0.0
C362 C 0.37002 0.63374 0.26002 0.0
C363 C 0.3686 0.66133 0.22917 0.0
C364 C 0.38938 0.67314 0.23803 0.0
C365 C 0.39686 0.6942 0.22392 0.0
H366 H 0.37424 0.76262 0.13331 0.0
C367 C 0.36079 0.67346 0.20839 0.0
C368 C 0.37736 0.69294 0.20518 0.0
H369 H 0.43377 0.77269 0.18126 0.0
H370 H 0.41889 0.73826 0.20083 0.0
H371 H 0.33404 0.74404 0.17254 0.0
H372 H 0.37719 0.71163 0.12297 0.0
H373 H 0.34924 0.69507 0.12397 0.0
H374 H 0.35174 0.72326 0.11351 0.0
H375 H 0.33047 0.74408 0.14072 0.0
H376 H 0.31565 0.7218 0.15867 0.0
C377 C 0.39661 0.71442 0.24108 0.0
C378 C 0.42143 0.69281 0.21225 0.0
C379 C 0.28514 0.64118 0.16295 0.0
C380 C 0.27409 0.64796 0.14241 0.0
C381 C 0.2845 0.66788 0.13153 0.0
C382 C 0.30514 0.68069 0.14063 0.0
C383 C 0.31606 0.67366 0.16093 0.0
C384 C 0.30613 0.65412 0.17169 0.0
C385 C 0.32075 0.64896 0.19265 0.0
C386 C 0.34092 0.66862 0.19276 0.0
C387 C 0.33794 0.68317 0.17418 0.0
C388 C 0.30499 0.64885 0.21551 0.0
C389 C 0.33004 0.62664 0.18708 0.0
C390 C 0.38438 0.75753 0.14784 0.0
C391 C 0.40537 0.77109 0.1555 0.0
C392 C 0.41737 0.7633 0.17493 0.0
C393 C 0.40876 0.74302 0.18631 0.0
C394 C 0.38778 0.72986 0.17841 0.0
C395 C 0.3761 0.73726 0.15932 0.0
C396 C 0.35436 0.72113 0.15275 0.0
C397 C 0.35456 0.70299 0.1711 0.0
C398 C 0.3742 0.70801 0.18635 0.0
C399 C 0.33237 0.73328 0.15613 0.0
C400 C 0.35806 0.71234 0.12692 0.0
H401 H 0.34284 0.6314 0.23425 0.0
H402 H 0.41711 0.67531 0.26454 0.0
H403 H 0.422 0.6759 0.20439 0.0
H404 H 0.42559 0.70441 0.19737 0.0
H405 H 0.43574 0.69617 0.22565 0.0
H406 H 0.38035 0.71218 0.25265 0.0
H407 H 0.41229 0.71649 0.25289 0.0
H408 H 0.39625 0.73009 0.2316 0.0
H409 H 0.27791 0.62591 0.17174 0.0
H410 H 0.27646 0.6738 0.11597 0.0
H411 H 0.31183 0.69566 0.1314 0.0
H412 H 0.29369 0.66232 0.21507 0.0
H413 H 0.29301 0.63278 0.21719 0.0
H414 H 0.3154 0.65215 0.23198 0.0
H415 H 0.33462 0.62515 0.16774 0.0
H416 H 0.34661 0.62512 0.19644 0.0
H417 H 0.31641 0.61225 0.19158 0.0
H418 H 0.36208 0.61818 0.26779 0.0
C419 C 0.35883 0.64141 0.24023 0.0
C420 C 0.11997 0.28294 0.66459 0.0
C421 C 0.12842 0.27201 0.64419 0.0
C422 C 0.14938 0.28229 0.63275 0.0
C423 C 0.15288 0.31351 0.66113 0.0
C424 C 0.13236 0.30371 0.67259 0.0
C425 C 0.12563 0.31823 0.6933 0.0
H426 H 0.15097 0.41341 0.76206 0.0
C427 C 0.16161 0.33502 0.67359 0.0
C428 C 0.14568 0.338 0.69257 0.0
H429 H 0.09019 0.36208 0.76867 0.0
H430 H 0.10474 0.34174 0.73523 0.0
H431 H 0.15024 0.41511 0.70426 0.0
H432 H 0.19033 0.37976 0.75124 0.0
H433 H 0.20947 0.3916 0.7284 0.0
H434 H 0.19576 0.40951 0.74879 0.0
H435 H 0.17361 0.42915 0.72255 0.0
H436 H 0.17974 0.41766 0.69351 0.0
C437 C 0.10127 0.32532 0.68795 0.0
C438 C 0.12586 0.30502 0.71656 0.0
C439 C 0.23801 0.38189 0.64333 0.0
C440 C 0.25128 0.40226 0.65091 0.0
C441 C 0.24278 0.41323 0.67117 0.0
C442 C 0.22177 0.40428 0.68342 0.0
C443 C 0.20876 0.38398 0.67556 0.0
C444 C 0.21707 0.37314 0.65584 0.0
C445 C 0.20123 0.35162 0.65011 0.0
C446 C 0.18196 0.35132 0.66945 0.0
C447 C 0.18635 0.37037 0.68439 0.0
C448 C 0.19115 0.3534 0.62479 0.0
C449 C 0.21599 0.33231 0.65284 0.0
C450 C 0.14084 0.39771 0.75649 0.0
C451 C 0.11925 0.38953 0.76833 0.0
C452 C 0.10666 0.36908 0.75994 0.0
C453 C 0.11521 0.35717 0.74048 0.0
C454 C 0.13665 0.36567 0.72877 0.0
C455 C 0.14903 0.3857 0.73683 0.0
C456 C 0.1712 0.39256 0.72192 0.0
C457 C 0.17018 0.37346 0.70366 0.0
C458 C 0.1499 0.35751 0.70775 0.0
C459 C 0.16883 0.41487 0.70997 0.0
C460 C 0.19295 0.39361 0.73833 0.0
H461 H 0.17734 0.30936 0.63134 0.0
H462 H 0.10385 0.27573 0.67378 0.0
H463 H 0.14185 0.29644 0.71691 0.0
H464 H 0.12676 0.31574 0.73277 0.0
H465 H 0.10991 0.29215 0.71794 0.0
H466 H 0.10002 0.329 0.66866 0.0
H467 H 0.0865 0.31189 0.69242 0.0
H468 H 0.09833 0.34076 0.69754 0.0
H469 H 0.24395 0.3727 0.62814 0.0
H470 H 0.25221 0.42902 0.67741 0.0
H471 H 0.21639 0.4136 0.69857 0.0
H472 H 0.18793 0.3707 0.62142 0.0
H473 H 0.20372 0.34884 0.61073 0.0
H474 H 0.17367 0.34308 0.62233 0.0
H475 H 0.22876 0.3359 0.66773 0.0
H476 H 0.20502 0.31644 0.65756 0.0
H477 H 0.22642 0.32977 0.63628 0.0
H478 H 0.15663 0.27435 0.61733 0.0
C479 C 0.16155 0.30272 0.64104 0.0
Sm480 Sm 0.01639 0.02511 0.48723 0.0
Sm481 Sm 1.00643 1.00528 0.53639 0.0
C482 C 0.0208 0.05026 0.44892 0.0
C483 C 0.03785 0.06894 0.44031 0.0
C484 C 0.03914 0.07354 0.41588 0.0
C485 C 0.05688 0.08977 0.40703 0.0
C486 C 0.07359 0.10166 0.4225 0.0
C487 C 0.07172 0.09753 0.44713 0.0
C488 C 0.05404 0.08116 0.45596 0.0
C489 C 0.05115 1.00274 0.50376 0.0
C490 C 0.03281 0.05623 0.53603 0.0
C491 C 1.00056 0.97905 0.5737 0.0
C492 C 0.98067 0.96193 0.58009 0.0
C493 C 0.98202 0.94811 0.59958 0.0
C494 C 0.96216 0.93301 0.60643 0.0
C495 C 0.94074 0.9318 0.59398 0.0
C496 C 0.9398 0.94519 0.57399 0.0
C497 C 0.95964 0.96006 0.56703 0.0
C498 C 0.97117 0.02698 0.51967 0.0
C499 C 0.9902 0.97416 0.48758 0.0
O500 O 1.00783 0.05426 0.46765 0.0
O501 O 0.02897 0.03129 0.44992 0.0
O502 O 0.04026 1.01574 0.51601 0.0
O503 O 0.04504 1.00227 0.48155 0.0
O504 O 0.02694 0.05567 0.51314 0.0
O505 O 0.03 0.03773 0.54853 0.0
O506 O 0.0129 0.97463 0.55468 0.0
O507 O 0.99547 0.99937 0.57416 0.0
O508 O 0.9826 1.01438 0.50752 0.0
O509 O 0.97672 0.02707 0.54202 0.0
O510 O 0.99624 0.97471 0.5104 0.0
O511 O 0.9928 0.99268 0.47516 0.0
H512 H 0.02681 0.06418 0.40358 0.0
H513 H 0.05777 0.09279 0.388 0.0
H514 H 0.08448 0.10629 0.45942 0.0
H515 H 0.05344 0.07761 0.47486 0.0
H516 H 0.99817 0.94936 0.60977 0.0
H517 H 0.96325 0.92291 0.62199 0.0
H518 H 0.92358 0.9444 0.56397 0.0
H519 H 0.95839 0.97052 0.55179 0.0
Sm520 Sm 0.5308 0.02005 0.02397 0.0
Sm521 Sm 0.4892 1.01237 0.99861 0.0
C522 C 0.56843 0.03639 0.04951 0.0
C523 C 0.57293 0.04528 0.07388 0.0
C524 C 0.55786 0.05886 0.08502 0.0
C525 C 0.56178 0.06641 0.10855 0.0
C526 C 0.58091 0.06052 0.12133 0.0
C527 C 0.59612 0.0471 0.10997 0.0
C528 C 0.59213 0.03952 0.08645 0.0
C529 C 0.50462 0.9792 0.03662 0.0
C530 C 0.48423 0.03962 0.04614 0.0
C531 C 0.45201 0.99641 0.97238 0.0
C532 C 0.44822 0.99029 0.94714 0.0
C533 C 0.42891 0.97441 0.94074 0.0
C534 C 0.42546 0.96796 0.91683 0.0
C535 C 0.44124 0.97739 0.89889 0.0
C536 C 0.46066 0.99331 0.90548 0.0
C537 C 0.46419 0.99962 0.92944 0.0
C538 C 0.51578 0.05303 0.98596 0.0
C539 C 0.5353 0.99167 0.97698 0.0
O540 O 0.55777 0.04832 0.03522 0.0
O541 O 0.56048 1.01519 0.04771 0.0
O542 O 0.49597 0.99719 0.0343 0.0
O543 O 0.52717 0.98255 0.03169 0.0
O544 O 0.50757 0.04275 0.04445 0.0
O545 O 0.47186 0.0248 0.03224 0.0
O546 O 0.46425 0.98382 0.98419 0.0
O547 O 0.45808 0.01755 0.97726 0.0
O548 O 0.52408 0.03486 0.98807 0.0
O549 O 0.4933 0.05001 0.99116 0.0
O550 O 0.51197 0.98926 0.97828 0.0
O551 O 0.54793 1.00623 0.99095 0.0
H552 H 0.54298 0.06353 0.07559 0.0
H553 H 0.54961 0.07653 0.11685 0.0
H554 H 0.61123 0.04256 0.1192 0.0
H555 H 0.60396 0.02907 0.07811 0.0
H556 H 0.41661 0.96687 0.95427 0.0
H557 H 0.4106 0.95535 0.91245 0.0
H558 H 0.47301 1.00107 0.89213 0.0
H559 H 0.47936 1.01178 0.93415 0.0
Sm560 Sm 0.51106 0.49804 0.49716 0.0
Sm561 Sm 0.50921 0.53568 0.52708 0.0
C562 C 0.52396 0.463 0.47447 0.0
C563 C 0.53295 0.44303 0.48285 0.0
C564 C 0.55185 0.44487 0.49893 0.0
C565 C 0.55944 0.42585 0.50776 0.0
C566 C 0.54826 0.40459 0.50078 0.0
C567 C 0.52932 0.40279 0.48469 0.0
C568 C 0.52176 0.42185 0.47579 0.0
C569 C 0.46766 0.49529 0.52119 0.0
C570 C 0.53065 0.49634 0.55309 0.0
C571 C 0.49624 0.57072 0.54974 0.0
C572 C 0.48657 0.59039 0.54149 0.0
C573 C 0.4675 0.58811 0.52558 0.0
C574 C 0.45917 0.60687 0.51697 0.0
C575 C 0.46977 0.62832 0.52401 0.0
C576 C 0.4889 0.63056 0.53991 0.0
C577 C 0.49719 0.61175 0.54858 0.0
C578 C 0.5526 0.53825 0.50309 0.0
C579 C 0.48967 0.53735 0.47114 0.0
O580 O 0.53804 0.48189 0.47709 0.0
O581 O 0.50186 0.46454 0.48008 0.0
O582 O 0.48779 0.50137 0.53045 0.0
O583 O 0.4701 0.49112 0.4985 0.0
O584 O 0.53136 0.48842 0.53087 0.0
O585 O 0.52059 0.5143 0.55739 0.0
O586 O 0.48241 0.55163 0.54767 0.0
O587 O 0.51825 0.56949 0.54353 0.0
O588 O 0.53246 0.53233 0.49382 0.0
O589 O 0.55019 0.54242 0.52579 0.0
O590 O 0.48878 0.54518 0.49339 0.0
O591 O 0.49989 0.51949 0.46684 0.0
H592 H 0.56076 0.461 0.50481 0.0
H593 H 0.57432 0.42784 0.51981 0.0
H594 H 0.52018 0.38664 0.47915 0.0
H595 H 0.50701 0.42007 0.46359 0.0
H596 H 0.45903 0.57183 0.51966 0.0
H597 H 0.44419 0.60453 0.50505 0.0
H598 H 0.49764 0.64685 0.54546 0.0
H599 H 0.51206 0.61388 0.56065 0.0
Sm600 Sm 0.01606 0.49099 0.02154 0.0
Sm601 Sm 1.00552 0.53986 1.00237 0.0
C602 C 0.03327 0.45293 0.0227 0.0
C603 C 0.04948 0.44113 0.03592 0.0
C604 C 0.06161 0.42597 0.02335 0.0
C605 C 0.07868 0.41575 0.03464 0.0
C606 C 0.08391 0.4204 0.05886 0.0
C607 C 0.07138 0.43542 0.07156 0.0
C608 C 0.05434 0.44579 0.06014 0.0
C609 C 0.99623 0.51588 0.05744 0.0
C610 C 0.05531 0.53658 0.0324 0.0
C611 C 0.98822 0.57786 1.0015 0.0
C612 C 0.97174 0.58919 0.98809 0.0
C613 C 0.95916 0.6042 1.00035 0.0
C614 C 0.94207 0.61411 0.98867 0.0
C615 C 0.93727 0.60925 0.9644 0.0
C616 C 0.9502 0.59433 0.95205 0.0
C617 C 0.96724 0.5843 0.96384 0.0
C618 C 0.02491 0.51499 0.96615 0.0
C619 C 0.96631 0.49427 0.99136 0.0
O620 O 0.04343 0.47024 1.01088 0.0
O621 O 0.01296 0.45583 0.03296 0.0
O622 O 1.00178 0.52084 0.0361 0.0
O623 O 1.00112 0.49583 0.06056 0.0
O624 O 0.05075 0.51444 0.03163 0.0
O625 O 0.04039 0.5494 0.0239 0.0
O626 O 0.97836 0.56065 0.01369 0.0
O627 O 1.00848 0.575 0.99106 0.0
O628 O 0.01993 0.50999 0.98764 0.0
O629 O 0.01974 0.53497 0.96317 0.0
O630 O 0.97088 0.51642 0.99211 0.0
O631 O 0.98122 0.48146 0.99994 0.0
H632 H 0.05829 0.42243 1.00454 0.0
H633 H 0.08826 0.40469 0.02412 0.0
H634 H 0.07478 0.43923 0.09028 0.0
H635 H 0.04527 0.45765 0.07006 0.0
H636 H 0.96223 0.60793 0.01916 0.0
H637 H 0.93219 0.62513 0.99889 0.0
H638 H 0.94715 0.59038 0.9333 0.0
H639 H 0.97666 0.57255 0.95415 0.0
C640 C 0.24366 0.20305 0.31956 0.0
C641 C 0.24936 0.22615 0.32342 0.0
C642 C 0.22572 0.19071 0.33295 0.0
C643 C 0.18859 0.18835 0.38691 0.0
H644 H 0.14234 0.15312 0.34626 0.0
C645 C 0.10067 0.13828 0.42341 0.0
C646 C 0.09373 0.11725 0.41271 0.0
C647 C 0.11976 0.15279 0.41389 0.0
C648 C 0.15519 0.16263 0.35792 0.0
H649 H 0.24169 0.25412 0.34548 0.0
H650 H 0.21011 0.23228 0.36909 0.0
H651 H 0.17657 0.17578 0.3283 0.0
H652 H 0.10185 0.09454 0.38435 0.0
H653 H 0.13521 0.11954 0.36801 0.0
H654 H 0.16739 0.1747 0.41662 0.0
C655 C 0.21964 0.22391 0.35556 0.0
C656 C 0.17476 0.17566 0.34761 0.0
C657 C 0.23759 0.23638 0.34199 0.0
C658 C 0.10645 0.11085 0.39263 0.0
C659 C 0.12556 0.12521 0.38326 0.0
C660 C 0.16903 0.17506 0.39732 0.0
C661 C 0.21306 0.20111 0.35055 0.0
C662 C 0.19183 0.18836 0.36198 0.0
C663 C 0.13232 0.14645 0.39359 0.0
C664 C 0.15231 0.16177 0.3829 0.0
H665 H 0.25205 0.19463 0.30521 0.0
H666 H 0.22115 0.17308 0.32894 0.0
H667 H 0.20154 0.19805 0.39834 0.0
H668 H 0.0911 0.14363 0.43888 0.0
H669 H 0.1244 0.16909 0.42215 0.0
C670 C 0.38838 0.92338 0.69187 0.0
C671 C 0.38789 0.90042 0.6882 0.0
C672 C 0.39818 0.93383 0.71258 0.0
C673 C 0.43339 0.92528 0.7664 0.0
H674 H 0.39693 0.96867 0.79466 0.0
C675 C 0.45667 0.96792 0.8581 0.0
C676 C 0.43738 0.97063 0.87344 0.0
C677 C 0.45288 0.96123 0.83426 0.0
C678 C 0.40723 0.95648 0.78712 0.0
H679 H 0.39776 0.87036 0.70261 0.0
H680 H 0.41411 0.88834 0.73933 0.0
H681 H 0.38693 0.95314 0.75529 0.0
H682 H 0.39903 0.96887 0.87555 0.0
H683 H 0.39236 0.95634 0.83445 0.0
H684 H 0.45273 0.9277 0.79899 0.0
C685 C 0.40757 0.89851 0.72603 0.0
C686 C 0.40176 0.94782 0.76429 0.0
C687 C 0.39812 0.88815 0.70508 0.0
C688 C 0.41427 0.96664 0.86435 0.0
C689 C 0.41048 0.95979 0.84062 0.0
C690 C 0.4387 0.93378 0.7894 0.0
C691 C 0.40724 0.92141 0.73027 0.0
C692 C 0.41456 0.9319 0.75374 0.0
C693 C 0.42972 0.95699 0.82527 0.0
C694 C 0.42542 0.94922 0.80017 0.0
H695 H 0.38078 0.93318 0.67889 0.0
H696 H 0.39816 0.95156 0.71493 0.0
H697 H 0.44385 0.9133 0.7587 0.0
H698 H 0.4747 0.97063 0.86458 0.0
H699 H 0.46812 0.95945 0.82287 0.0
C700 C 0.63244 0.40731 0.71422 0.0
C701 C 0.61809 0.39623 0.73245 0.0
C702 C 0.62253 0.41701 0.69483 0.0
C703 C 0.56668 0.43765 0.67487 0.0
H704 H 0.59815 0.43938 0.61277 0.0
C705 C 0.53915 0.49218 0.59734 0.0
C706 C 0.5406 0.48454 0.57343 0.0
C707 C 0.54801 0.48097 0.61636 0.0
C708 C 0.58888 0.43901 0.62986 0.0
H709 H 0.58142 0.38673 0.74364 0.0
H710 H 0.56413 0.40341 0.70984 0.0
H711 H 0.61373 0.42031 0.6455 0.0
H712 H 0.55274 0.45857 0.55135 0.0
H713 H 0.56798 0.43913 0.58412 0.0
H714 H 0.54166 0.45615 0.65911 0.0
C715 C 0.58328 0.40482 0.71071 0.0
C716 C 0.59809 0.42818 0.64894 0.0
C717 C 0.59325 0.39494 0.73012 0.0
C718 C 0.55131 0.46522 0.56933 0.0
C719 C 0.56024 0.45404 0.58832 0.0
C720 C 0.55754 0.4486 0.6558 0.0
C721 C 0.59773 0.41618 0.69267 0.0
C722 C 0.58728 0.42731 0.67193 0.0
C723 C 0.55878 0.46163 0.61231 0.0
C724 C 0.56846 0.4496 0.63285 0.0
H725 H 0.6516 0.40854 0.71487 0.0
H726 H 0.63453 0.42565 0.68173 0.0
H727 H 0.55775 0.4377 0.69212 0.0
H728 H 0.5311 0.50693 0.60148 0.0
H729 H 0.54667 0.48776 0.63429 0.0
C730 C 0.93496 0.63044 0.22879 0.0
C731 C 0.91035 0.62888 0.23384 0.0
C732 C 0.94369 0.61891 0.20918 0.0
C733 C 0.92685 0.571 0.16629 0.0
H734 H 0.98231 0.59782 0.13047 0.0
C735 C 0.97594 0.51959 0.09742 0.0
C736 C 0.98556 0.52964 0.07627 0.0
C737 C 0.96635 0.53202 0.11571 0.0
C738 C 0.96669 0.59005 0.14008 0.0
H739 H 0.87582 0.61364 0.22121 0.0
H740 H 0.89095 0.59351 0.18747 0.0
H741 H 0.96652 0.61857 0.16348 0.0
H742 H 0.99307 0.5611 0.05828 0.0
H743 H 0.97616 0.58287 0.09004 0.0
H744 H 0.9269 0.54257 0.14285 0.0
C745 C 0.90361 0.60354 0.1989 0.0
C746 C 0.95773 0.60193 0.15933 0.0
C747 C 0.89486 0.61516 0.21846 0.0
C748 C 0.98545 0.55268 0.07406 0.0
C749 C 0.97597 0.56522 0.0925 0.0
C750 C 0.9359 0.55909 0.14716 0.0
C751 C 0.92821 0.60521 0.19383 0.0
C752 C 0.93766 0.59262 0.17288 0.0
C753 C 0.96617 0.55509 0.11369 0.0
C754 C 0.95606 0.56831 0.13372 0.0
H755 H 0.9477 0.64032 0.24025 0.0
H756 H 0.96273 0.62044 0.20635 0.0
H757 H 0.91155 0.56301 0.17621 0.0
H758 H 0.97585 0.50195 0.09994 0.0
H759 H 0.95947 0.5235 0.13173 0.0
C760 C 0.39542 0.18929 0.1464 0.0
C761 C 0.38195 0.18319 0.16719 0.0
C762 C 0.40675 0.17364 0.13365 0.0
C763 C 0.42984 0.12073 0.14025 0.0
H764 H 0.42358 0.11506 0.07141 0.0
C765 C 0.48438 0.06725 0.08006 0.0
C766 C 0.47192 0.05413 0.06211 0.0
C767 C 0.4733 0.08249 0.09365 0.0
C768 C 0.42538 0.11641 0.09064 0.0
H769 H 0.36944 0.15558 0.19043 0.0
H770 H 0.38967 0.12863 0.16857 0.0
H771 H 0.40486 0.1433 0.0934 0.0
H772 H 0.43787 0.04632 0.04471 0.0
H773 H 0.41859 0.07303 0.06839 0.0
H774 H 0.45035 0.09383 0.13749 0.0
C775 C 0.39164 0.14556 0.1623 0.0
C776 C 0.41489 0.1327 0.10318 0.0
C777 C 0.38013 0.16108 0.17488 0.0
C778 C 0.44796 0.05615 0.05844 0.0
C779 C 0.43697 0.07157 0.07184 0.0
C780 C 0.44056 0.10461 0.12768 0.0
C781 C 0.40503 0.15165 0.14155 0.0
C782 C 0.41689 0.13493 0.12812 0.0
C783 C 0.44961 0.08507 0.08939 0.0
C784 C 0.43831 0.1022 0.10277 0.0
H785 H 0.39745 0.2062 0.14009 0.0
H786 H 0.41714 0.17882 0.11779 0.0
H787 H 0.43179 0.12219 0.15946 0.0
H788 H 0.50277 0.06597 0.08343 0.0
H789 H 0.4835 0.09272 0.10702 0.0
C790 C 0.18206 0.8744 0.57342 0.0
C791 C 0.19863 0.88641 0.58901 0.0
C792 C 0.16255 0.88374 0.5657 0.0
C793 C 0.12449 0.92606 0.5786 0.0
H794 H 0.1249 0.93462 0.51013 0.0
C795 C 0.07517 0.99158 0.53696 0.0
C796 C 0.06594 0.98753 0.51398 0.0
C797 C 0.08894 0.97692 0.54678 0.0
C798 C 0.12405 0.93199 0.52921 0.0
H799 H 0.20692 0.91748 0.60925 0.0
H800 H 0.17238 0.9331 0.59662 0.0
H801 H 0.15181 0.91167 0.52704 0.0
H802 H 0.06301 0.96481 0.48346 0.0
H803 H 0.0862 0.93872 0.50087 0.0
H804 H 0.09664 0.94614 0.58094 0.0
C805 C 0.17467 0.91653 0.59035 0.0
C806 C 0.13955 0.91887 0.53886 0.0
C807 C 0.19441 0.90745 0.59767 0.0
C808 C 0.07028 0.96845 0.5011 0.0
C809 C 0.08364 0.95355 0.51108 0.0
C810 C 0.10864 0.93885 0.56892 0.0
C811 C 0.15893 0.905 0.57387 0.0
C812 C 0.14022 0.9162 0.56365 0.0
C813 C 0.09334 0.95768 0.53398 0.0
C814 C 0.10861 0.94242 0.54414 0.0
H815 H 0.18438 0.85798 0.56677 0.0
H816 H 0.15049 0.87454 0.55305 0.0
H817 H 0.1247 0.92411 0.59779 0.0
H818 H 0.072 1.00622 0.54722 0.0
H819 H 0.09646 0.98095 0.56423 0.0
C820 C 0.77518 0.41859 0.89082 0.0
C821 C 0.77072 0.39513 0.88939 0.0
C822 C 0.79624 0.42982 0.90106 0.0
C823 C 0.8579 0.42121 0.91937 0.0
H824 H 0.85599 0.47504 0.9573 0.0
C825 C 0.93832 0.45994 0.97757 0.0
C826 C 0.94365 0.4833 0.97984 0.0
C827 C 0.91744 0.44971 0.96632 0.0
C828 C 0.85706 0.46017 0.94656 0.0
H829 H 0.78605 0.36543 0.89712 0.0
H830 H 0.82194 0.38469 0.91516 0.0
H831 H 0.82005 0.45683 0.93791 0.0
H832 H 0.93048 0.51402 0.97174 0.0
H833 H 0.89442 0.49632 0.95216 0.0
H834 H 0.89484 0.42447 0.92805 0.0
C835 C 0.80933 0.3946 0.90829 0.0
C836 C 0.83626 0.44965 0.93532 0.0
C837 C 0.78836 0.38343 0.89813 0.0
C838 C 0.92718 0.49602 0.97053 0.0
C839 C 0.90626 0.48578 0.95933 0.0
C840 C 0.87865 0.4317 0.93061 0.0
C841 C 0.81371 0.41803 0.91012 0.0
C842 C 0.83621 0.42986 0.92159 0.0
C843 C 0.901 0.46241 0.95689 0.0
C844 C 0.87866 0.45134 0.94456 0.0
H845 H 0.76216 0.42834 0.88449 0.0
H846 H 0.79884 0.44783 0.90174 0.0
H847 H 0.85903 0.40635 0.90863 0.0
H848 H 0.95035 0.44943 0.98445 0.0
H849 H 0.9141 0.43172 0.96528 0.0
C850 C 0.73188 0.6331 0.39691 0.0
C851 C 0.74742 0.61926 0.3867 0.0
C852 C 0.71087 0.6241 0.40904 0.0
C853 C 0.66821 0.57135 0.41659 0.0
H854 H 0.64803 0.60162 0.47335 0.0
C855 C 0.576 0.54447 0.46413 0.0
C856 C 0.57502 0.54596 0.48926 0.0
C857 C 0.59687 0.55288 0.45134 0.0
C858 C 0.65339 0.59279 0.45763 0.0
H859 H 0.7526 0.58472 0.38199 0.0
H860 H 0.71615 0.56918 0.40282 0.0
H861 H 0.68432 0.61702 0.45216 0.0
H862 H 0.59559 0.55716 0.52055 0.0
H863 H 0.63174 0.57159 0.4985 0.0
H864 H 0.6374 0.54694 0.4223 0.0
C865 C 0.72003 0.58707 0.40115 0.0
C866 C 0.67419 0.60183 0.44523 0.0
C867 C 0.74108 0.59606 0.38909 0.0
C868 C 0.59558 0.55578 0.50122 0.0
C869 C 0.61636 0.56425 0.48849 0.0
C870 C 0.64731 0.56236 0.42893 0.0
C871 C 0.70454 0.60091 0.41138 0.0
C872 C 0.68205 0.59126 0.42452 0.0
C873 C 0.61736 0.56314 0.4633 0.0
C874 C 0.63957 0.57286 0.44976 0.0
H875 H 0.73568 0.65099 0.3952 0.0
H876 H 0.69936 0.6354 0.41625 0.0
H877 H 0.67338 0.56276 0.40062 0.0
H878 H 0.56052 0.53706 0.45429 0.0
H879 H 0.59673 0.5518 0.432 0.0
C880 C 0.24119 0.31939 0.12476 0.0
C881 C 0.25407 0.3282 0.14478 0.0
C882 C 0.22423 0.33084 0.11486 0.0
C883 C 0.18639 0.37391 0.13105 0.0
H884 H 0.17263 0.37021 0.06337 0.0
C885 C 0.11873 0.42252 0.08641 0.0
C886 C 0.10297 0.41014 0.07034 0.0
C887 C 0.13766 0.41331 0.09579 0.0
C888 C 0.17622 0.37127 0.08234 0.0
H889 H 0.2603 0.35635 0.16942 0.0
H890 H 0.23128 0.37675 0.1517 0.0
H891 H 0.20606 0.35375 0.0781 0.0
H892 H 0.09426 0.37796 0.05248 0.0
H893 H 0.12756 0.36219 0.06844 0.0
H894 H 0.15664 0.39173 0.13509 0.0
C895 C 0.23367 0.36069 0.14404 0.0
C896 C 0.19534 0.3618 0.09081 0.0
C897 C 0.25043 0.34911 0.15409 0.0
C898 C 0.10632 0.38817 0.06436 0.0
C899 C 0.12537 0.3791 0.07352 0.0
C900 C 0.16745 0.38361 0.12251 0.0
C901 C 0.21995 0.35147 0.12463 0.0
C902 C 0.20053 0.36276 0.11533 0.0
C903 C 0.14137 0.39164 0.08912 0.0
C904 C 0.16201 0.38215 0.09812 0.0
H905 H 0.2434 0.30315 0.11744 0.0
H906 H 0.21381 0.32303 0.10017 0.0
H907 H 0.18953 0.37466 0.1501 0.0
H908 H 0.11691 0.43956 0.09118 0.0
H909 H 0.14981 0.42338 0.10771 0.0
C910 C 0.5958 0.22004 0.86636 0.0
C911 C 0.60583 0.23918 0.87941 0.0
C912 C 0.58727 0.19987 0.87787 0.0
C913 C 0.56667 0.17667 0.93782 0.0
H914 H 0.57426 0.11975 0.90832 0.0
C915 C 0.51662 0.09315 0.97462 0.0
C916 C 0.528 0.07402 0.97445 0.0
C917 C 0.52697 0.11286 0.96346 0.0
C918 C 0.57207 0.13545 0.91699 0.0
H919 H 0.61417 0.25148 0.91539 0.0
H920 H 0.59949 0.21667 0.93523 0.0
H921 H 0.59031 0.1543 0.88831 0.0
H922 H 0.55963 0.06103 0.96206 0.0
H923 H 0.57773 0.09541 0.94237 0.0
H924 H 0.54848 0.15793 0.96648 0.0
C925 C 0.59814 0.21719 0.91599 0.0
C926 C 0.5811 0.15541 0.9053 0.0
C927 C 0.60687 0.23728 0.90447 0.0
C928 C 0.55028 0.07535 0.96267 0.0
C929 C 0.5606 0.09512 0.9512 0.0
C930 C 0.55744 0.15675 0.94936 0.0
C931 C 0.58817 0.19803 0.90295 0.0
C932 C 0.57858 0.17647 0.91547 0.0
C933 C 0.54913 0.11431 0.95142 0.0
C934 C 0.55986 0.13569 0.93919 0.0
H935 H 0.59478 0.2205 0.84709 0.0
H936 H 0.57961 0.18575 0.86703 0.0
H937 H 0.56403 0.19232 0.94633 0.0
H938 H 0.49945 0.09291 0.9834 0.0
H939 H 0.51724 0.12691 0.96391 0.0
C940 C 0.90844 0.78428 0.41392 0.0
C941 C 0.90581 0.78087 0.38904 0.0
C942 C 0.9186 0.80496 0.4236 0.0
C943 C 0.93102 0.86557 0.41027 0.0
H944 H 0.97119 0.86814 0.4657 0.0
C945 C 0.97674 0.95047 0.45097 0.0
C946 C 0.98039 0.95229 0.47582 0.0
C947 C 0.96823 0.92983 0.43991 0.0
C948 C 0.95973 0.8679 0.45046 0.0
H949 H 0.91241 0.79696 0.35493 0.0
H950 H 0.9302 0.83309 0.37179 0.0
H951 H 0.95612 0.83229 0.44737 0.0
H952 H 0.97738 0.9334 0.50843 0.0
H953 H 0.96214 0.89784 0.48947 0.0
H954 H 0.93428 0.90114 0.41356 0.0
C955 C 0.92419 0.81967 0.38387 0.0
C956 C 0.95109 0.84715 0.4398 0.0
C957 C 0.9142 0.79882 0.37413 0.0
C958 C 0.975 0.93279 0.48926 0.0
C959 C 0.96636 0.9122 0.47824 0.0
C960 C 0.93954 0.88634 0.42103 0.0
C961 C 0.92644 0.82315 0.40882 0.0
C962 C 0.93647 0.84556 0.41958 0.0
C963 C 0.96293 0.91024 0.4533 0.0
C964 C 0.95399 0.88795 0.44144 0.0
H965 H 0.90246 0.77091 0.42606 0.0
H966 H 0.91974 0.80681 0.44285 0.0
H967 H 0.9196 0.86518 0.39496 0.0
H968 H 0.98077 0.96498 0.4399 0.0
H969 H 0.96627 0.92926 0.4207 0.0
C970 C 0.34681 0.76538 0.50417 0.0
C971 C 0.35679 0.78788 0.50543 0.0
C972 C 0.36054 0.74934 0.49612 0.0
C973 C 0.42315 0.7428 0.49762 0.0
H974 H 0.39924 0.68326 0.47457 0.0
C975 C 0.45821 0.66615 0.53111 0.0
C976 C 0.46038 0.64821 0.51537 0.0
C977 C 0.44825 0.68439 0.52351 0.0
C978 C 0.40638 0.69991 0.48062 0.0
H979 H 0.38774 0.81171 0.49676 0.0
H980 H 0.41153 0.78379 0.4819 0.0
H981 H 0.37577 0.71335 0.46918 0.0
H982 H 0.45446 0.6357 0.47902 0.0
H983 H 0.43669 0.66759 0.46583 0.0
H984 H 0.45345 0.72932 0.50956 0.0
C985 C 0.39342 0.77838 0.48782 0.0
C986 C 0.39284 0.7171 0.47772 0.0
C987 C 0.37979 0.79437 0.49616 0.0
C988 C 0.45272 0.64912 0.49169 0.0
C989 C 0.44262 0.66738 0.4841 0.0
C990 C 0.43666 0.72568 0.50044 0.0
C991 C 0.38441 0.7556 0.48902 0.0
C992 C 0.40067 0.73856 0.48702 0.0
C993 C 0.44017 0.68514 0.5 0.0
C994 C 0.42799 0.70389 0.49285 0.0
H995 H 0.32916 0.75997 0.51138 0.0
H996 H 0.35301 0.73198 0.49746 0.0
H997 H 0.42973 0.75902 0.50524 0.0
H998 H 0.46351 0.66582 0.54957 0.0
H999 H 0.44614 0.69759 0.53635 0.0
C1000 C 0.75952 0.84238 0.69191 0.0
C1001 C 0.75829 0.81933 0.69512 0.0
C1002 C 0.77698 0.8538 0.67712 0.0
C1003 C 0.8258 0.8467 0.63302 0.0
H1004 H 0.85276 0.90416 0.65961 0.0
C1005 C 0.91895 0.89541 0.60832 0.0
C1006 C 0.91892 0.91784 0.6027 0.0
C1007 C 0.89826 0.88261 0.6171 0.0
C1008 C 0.84529 0.88821 0.65189 0.0
H1009 H 0.77333 0.79 0.68323 0.0
H1010 H 0.80468 0.8101 0.65877 0.0
H1011 H 0.81802 0.88335 0.67864 0.0
H1012 H 0.89748 0.94453 0.60193 0.0
H1013 H 0.86153 0.9223 0.61771 0.0
H1014 H 0.85414 0.85149 0.60688 0.0
C1015 C 0.79192 0.81936 0.66742 0.0
C1016 C 0.82522 0.87631 0.66264 0.0
C1017 C 0.77408 0.80783 0.68182 0.0
C1018 C 0.8979 0.92722 0.60593 0.0
C1019 C 0.87741 0.91457 0.61505 0.0
C1020 C 0.84621 0.85852 0.62249 0.0
C1021 C 0.79409 0.84262 0.66556 0.0
C1022 C 0.81507 0.85544 0.65331 0.0
C1023 C 0.87743 0.89221 0.62081 0.0
C1024 C 0.85602 0.87941 0.63181 0.0
H1025 H 0.7479 0.85201 0.70183 0.0
H1026 H 0.77756 0.8716 0.67552 0.0
H1027 H 0.81839 0.83082 0.62517 0.0
H1028 H 0.93494 0.88782 0.60589 0.0
H1029 H 0.89869 0.86542 0.6216 0.0
C1030 C 0.62732 0.14874 0.3165 0.0
C1031 C 0.63873 0.13604 0.33205 0.0
C1032 C 0.61834 0.13951 0.29485 0.0
C1033 C 0.6273 0.09468 0.25176 0.0
H1034 H 0.56979 0.10893 0.22346 0.0
C1035 C 0.5918 0.05391 0.16349 0.0
C1036 C 0.58498 0.06828 0.14642 0.0
C1037 C 0.59635 0.06136 0.18694 0.0
C1038 C 0.58596 0.10492 0.23112 0.0
H1039 H 0.64845 0.10343 0.338 0.0
H1040 H 0.6324 0.08715 0.30047 0.0
H1041 H 0.5808 0.12316 0.26352 0.0
H1042 H 0.57735 0.10172 0.14065 0.0
H1043 H 0.58522 0.11471 0.1817 0.0
H1044 H 0.63254 0.07656 0.2194 0.0
C1045 C 0.63096 0.1044 0.3046 0.0
C1046 C 0.59227 0.11308 0.25403 0.0
C1047 C 0.64007 0.11368 0.32611 0.0
C1048 C 0.58232 0.09016 0.15345 0.0
C1049 C 0.58681 0.0976 0.17694 0.0
C1050 C 0.62094 0.08648 0.22897 0.0
C1051 C 0.62048 0.11735 0.28846 0.0
C1052 C 0.61307 0.1081 0.26456 0.0
C1053 C 0.59411 0.08334 0.19385 0.0
C1054 C 0.60027 0.09157 0.21837 0.0
H1055 H 0.62623 0.16608 0.3206 0.0
H1056 H 0.61059 0.14999 0.28272 0.0
H1057 H 0.64371 0.09093 0.2591 0.0
H1058 H 0.59353 0.03682 0.15876 0.0
H1059 H 0.60159 0.0499 0.19969 0.0
C1060 C 0.38805 0.62591 0.30958 0.0
C1061 C 0.4024 0.63667 0.29116 0.0
C1062 C 0.39796 0.61632 0.32905 0.0
C1063 C 0.4537 0.59549 0.34906 0.0
H1064 H 0.42238 0.59436 0.41121 0.0
C1065 C 0.48116 0.54137 0.4269 0.0
C1066 C 0.47972 0.54911 0.45078 0.0
C1067 C 0.47232 0.55252 0.40784 0.0
C1068 C 0.43161 0.59456 0.39411 0.0
H1069 H 0.43906 0.64576 0.27973 0.0
H1070 H 0.45634 0.62932 0.31368 0.0
H1071 H 0.40685 0.6133 0.37836 0.0
H1072 H 0.46763 0.57516 0.47276 0.0
H1073 H 0.45243 0.59452 0.43988 0.0
H1074 H 0.47865 0.577 0.36494 0.0
C1075 C 0.4372 0.62805 0.31289 0.0
C1076 C 0.42243 0.60531 0.37496 0.0
C1077 C 0.42724 0.6378 0.29339 0.0
C1078 C 0.46904 0.56845 0.4548 0.0
C1079 C 0.46014 0.57958 0.43575 0.0
C1080 C 0.46283 0.58465 0.36821 0.0
C1081 C 0.42275 0.61697 0.33111 0.0
C1082 C 0.43318 0.60596 0.35194 0.0
C1083 C 0.4616 0.5719 0.41179 0.0
C1084 C 0.45195 0.58386 0.39118 0.0
H1085 H 0.36891 0.62482 0.30903 0.0
H1086 H 0.38596 0.60791 0.34229 0.0
H1087 H 0.46258 0.59527 0.3318 0.0
H1088 H 0.48918 0.5266 0.42283 0.0
H1089 H 0.47363 0.54565 0.38994 0.0
C1090 C 0.12479 0.4128 0.80693 0.0
C1091 C 0.10969 0.40218 0.7891 0.0
C1092 C 0.11571 0.42426 0.82645 0.0
C1093 C 0.06377 0.45203 0.84573 0.0
H1094 H 0.0871 0.44734 0.9098 0.0
C1095 C 0.04027 0.51031 0.92407 0.0
C1096 C 0.03483 0.50119 0.94679 0.0
C1097 C 0.04921 0.49787 0.90538 0.0
C1098 C 0.08026 0.4488 0.89207 0.0
H1099 H 0.07296 0.39595 0.77808 0.0
H1100 H 0.05729 0.41595 0.81172 0.0
H1101 H 0.10298 0.42673 0.87655 0.0
H1102 H 0.03415 0.47125 0.96713 0.0
H1103 H 0.05045 0.44966 0.93483 0.0
H1104 H 0.04117 0.47415 0.86113 0.0
C1105 C 0.07621 0.41536 0.81072 0.0
C1106 C 0.08956 0.43709 0.87287 0.0
C1107 C 0.08523 0.40365 0.79142 0.0
C1108 C 0.03864 0.47908 0.95019 0.0
C1109 C 0.04793 0.46665 0.93152 0.0
C1110 C 0.05472 0.46395 0.86483 0.0
C1111 C 0.09125 0.42584 0.82866 0.0
C1112 C 0.08145 0.43845 0.84933 0.0
C1113 C 0.05326 0.47581 0.90871 0.0
C1114 C 0.06278 0.46258 0.88838 0.0
H1115 H 0.14367 0.41199 0.80601 0.0
H1116 H 0.12797 0.43219 0.83966 0.0
H1117 H 0.0571 0.45375 0.82797 0.0
H1118 H 0.03756 0.52723 0.92062 0.0
H1119 H 0.05325 0.50572 0.88831 0.0
C1120 C 0.64074 0.86289 0.86062 0.0
C1121 C 0.63776 0.84099 0.86913 0.0
C1122 C 0.62824 0.87885 0.87107 0.0
C1123 C 0.60119 0.89387 0.92722 0.0
H1124 H 0.56929 0.93262 0.88881 0.0
C1125 C 0.57104 0.97403 0.96555 0.0
C1126 C 0.5472 0.97638 0.96163 0.0
C1127 C 0.58152 0.95765 0.9532 0.0
C1128 C 0.57807 0.92186 0.89972 0.0
H1129 H 0.61887 0.81879 0.89526 0.0
H1130 H 0.59763 0.847 0.91401 0.0
H1131 H 0.5879 0.90281 0.86938 0.0
H1132 H 0.516 0.96408 0.94091 0.0
H1133 H 0.53461 0.93572 0.91891 0.0
H1134 H 0.59175 0.91311 0.9575 0.0
C1135 C 0.60964 0.85163 0.89911 0.0
C1136 C 0.58878 0.90491 0.88863 0.0
C1137 C 0.62191 0.83553 0.88843 0.0
C1138 C 0.53439 0.96264 0.94434 0.0
C1139 C 0.54502 0.94645 0.93173 0.0
C1140 C 0.59082 0.91101 0.93825 0.0
C1141 C 0.61272 0.87344 0.89053 0.0
C1142 C 0.60048 0.89079 0.90229 0.0
C1143 C 0.56852 0.9435 0.93644 0.0
C1144 C 0.57924 0.92522 0.9246 0.0
H1145 H 0.65319 0.86795 0.84621 0.0
H1146 H 0.63122 0.89564 0.86434 0.0
H1147 H 0.61025 0.88333 0.93813 0.0
H1148 H 0.58138 0.9843 0.97878 0.0
H1149 H 0.59976 0.95589 0.95694 0.0
C1150 C 0.82656 0.14334 0.46663 0.0
C1151 C 0.82283 0.14714 0.44237 0.0
C1152 C 0.84599 0.1335 0.47347 0.0
C1153 C 0.88221 0.09337 0.45174 0.0
H1154 H 0.92156 0.11262 0.50629 0.0
C1155 C 0.95274 0.04227 0.48476 0.0
C1156 C 0.95533 0.04132 0.50959 0.0
C1157 C 0.93879 0.0569 0.47518 0.0
C1158 C 0.91055 0.10689 0.49116 0.0
H1159 H 0.83754 0.14477 0.40646 0.0
H1160 H 0.87106 0.12677 0.41847 0.0
H1161 H 0.89392 0.13637 0.49196 0.0
H1162 H 0.94498 0.0543 0.54395 0.0
H1163 H 0.91979 0.07912 0.52739 0.0
H1164 H 0.89778 0.06343 0.45155 0.0
C1165 C 0.85882 0.13149 0.43207 0.0
C1166 C 0.89491 0.12059 0.48288 0.0
C1167 C 0.83958 0.14167 0.42523 0.0
C1168 C 0.94336 0.05482 0.52472 0.0
C1169 C 0.92915 0.06922 0.51519 0.0
C1170 C 0.89761 0.07953 0.4602 0.0
C1171 C 0.86192 0.12697 0.4562 0.0
C1172 C 0.8804 0.1138 0.46331 0.0
C1173 C 0.92686 0.0706 0.49029 0.0
C1174 C 0.91171 0.08597 0.48025 0.0
H1175 H 0.81388 0.14692 0.48032 0.0
H1176 H 0.84785 0.12994 0.49217 0.0
H1177 H 0.87094 0.08765 0.43679 0.0
H1178 H 0.96179 0.03197 0.47272 0.0
H1179 H 0.93763 0.05767 0.45594 0.0
C1180 C 0.24989 0.63127 0.10702 0.0
C1181 C 0.252 0.63461 0.13196 0.0
C1182 C 0.22897 0.61988 0.09692 0.0
C1183 C 0.164 0.60449 0.10845 0.0
H1184 H 0.1673 0.563 0.05527 0.0
C1185 C 0.08126 0.5703 0.05047 0.0
C1186 C 0.07801 0.54753 0.04381 0.0
C1187 C 0.10223 0.58039 0.06168 0.0
C1188 C 0.16595 0.57446 0.07016 0.0
H1189 H 0.23325 0.62823 0.1657 0.0
H1190 H 0.19663 0.60861 0.1481 0.0
H1191 H 0.20387 0.58086 0.07404 0.0
H1192 H 0.09493 0.51777 0.04383 0.0
H1193 H 0.13145 0.5354 0.06286 0.0
H1194 H 0.12607 0.59826 0.10438 0.0
C1195 C 0.21131 0.61483 0.13631 0.0
C1196 C 0.18704 0.58489 0.08086 0.0
C1197 C 0.23245 0.62593 0.14647 0.0
C1198 C 0.0966 0.5353 0.04859 0.0
C1199 C 0.11771 0.54549 0.05946 0.0
C1200 C 0.14291 0.59432 0.09749 0.0
C1201 C 0.20918 0.61164 0.11132 0.0
C1202 C 0.18647 0.60009 0.10022 0.0
C1203 C 0.12088 0.5682 0.06633 0.0
C1204 C 0.14349 0.57909 0.07815 0.0
H1205 H 0.26452 0.63749 0.09518 0.0
H1206 H 0.22813 0.61797 0.07765 0.0
H1207 H 0.16269 0.61618 0.12313 0.0
H1208 H 0.06746 0.58036 0.04726 0.0
H1209 H 0.10394 0.59792 0.06643 0.0
C1210 C 0.27572 0.41044 0.61272 0.0
C1211 C 0.27373 0.41206 0.63782 0.0
C1212 C 0.29656 0.41974 0.60052 0.0
C1213 C 0.3525 0.46076 0.60791 0.0
H1214 H 0.37281 0.43111 0.5508 0.0
C1215 C 0.44439 0.48873 0.56019 0.0
C1216 C 0.44532 0.48738 0.53505 0.0
C1217 C 0.4236 0.48009 0.57299 0.0
C1218 C 0.36734 0.43984 0.56655 0.0
H1219 H 0.29289 0.42464 0.66959 0.0
H1220 H 0.32905 0.44059 0.6485 0.0
H1221 H 0.33698 0.41505 0.57223 0.0
H1222 H 0.42474 0.47619 0.50376 0.0
H1223 H 0.38874 0.46138 0.52583 0.0
H1224 H 0.38306 0.48547 0.60225 0.0
C1225 C 0.31429 0.43252 0.63808 0.0
C1226 C 0.34661 0.43057 0.57893 0.0
C1227 C 0.29341 0.42328 0.65027 0.0
C1228 C 0.42479 0.47747 0.52309 0.0
C1229 C 0.4041 0.46878 0.53584 0.0
C1230 C 0.3733 0.47 0.59556 0.0
C1231 C 0.31628 0.43096 0.61295 0.0
C1232 C 0.33871 0.44088 0.59981 0.0
C1233 C 0.40315 0.46974 0.56103 0.0
C1234 C 0.38105 0.45976 0.57458 0.0
H1235 H 0.26095 0.40231 0.60234 0.0
H1236 H 0.29699 0.41843 0.58119 0.0
H1237 H 0.34702 0.46952 0.62363 0.0
H1238 H 0.45985 0.4962 0.57003 0.0
H1239 H 0.42379 0.48107 0.59233 0.0
C1240 C 0.77849 0.68037 0.8564 0.0
C1241 C 0.77563 0.70214 0.86355 0.0
C1242 C 0.79375 0.66872 0.86869 0.0
C1243 C 0.8289 0.66936 0.92434 0.0
H1244 H 0.86845 0.6361 0.88448 0.0
C1245 C 0.91501 0.64137 0.95773 0.0
C1246 C 0.91841 0.6193 0.95236 0.0
C1247 C 0.89653 0.65048 0.94743 0.0
C1248 C 0.85737 0.64513 0.89587 0.0
H1249 H 0.78583 0.72856 0.88955 0.0
H1250 H 0.81287 0.70846 0.91079 0.0
H1251 H 0.83731 0.65339 0.86633 0.0
H1252 H 0.90496 0.58959 0.93176 0.0
H1253 H 0.87305 0.60575 0.91333 0.0
H1254 H 0.8496 0.66155 0.95376 0.0
C1255 C 0.80302 0.70014 0.89599 0.0
C1256 C 0.83942 0.65497 0.88551 0.0
C1257 C 0.78754 0.7117 0.88383 0.0
C1258 C 0.90312 0.60673 0.93603 0.0
C1259 C 0.88476 0.61594 0.92556 0.0
C1260 C 0.84701 0.65967 0.93466 0.0
C1261 C 0.80672 0.67869 0.88824 0.0
C1262 C 0.82501 0.6673 0.89959 0.0
C1263 C 0.88116 0.63784 0.93132 0.0
C1264 C 0.8615 0.64756 0.9205 0.0
H1265 H 0.76928 0.67253 0.84097 0.0
H1266 H 0.79569 0.65204 0.86258 0.0
H1267 H 0.81793 0.67842 0.93579 0.0
H1268 H 0.9267 0.6517 0.96985 0.0
H1269 H 0.89443 0.66754 0.95187 0.0
C1270 C 0.42785 0.81098 0.15604 0.0
C1271 C 0.41468 0.79303 0.14338 0.0
C1272 C 0.43662 0.8312 0.14481 0.0
C1273 C 0.42921 0.86564 0.09089 0.0
H1274 H 0.4916 0.89595 0.10754 0.0
C1275 C 0.46837 0.95473 0.05487 0.0
C1276 C 0.49276 0.95835 0.04867 0.0
C1277 C 0.45804 0.93496 0.06634 0.0
C1278 C 0.47416 0.88778 0.10249 0.0
H1279 H 0.40099 0.78321 0.10815 0.0
H1280 H 0.41575 0.81827 0.08898 0.0
H1281 H 0.47565 0.86131 0.12702 0.0
H1282 H 0.52511 0.94348 0.04975 0.0
H1283 H 0.50743 0.90966 0.0696 0.0
H1284 H 0.42787 0.89215 0.06621 0.0
C1285 C 0.41914 0.81673 0.1078 0.0
C1286 C 0.46483 0.86785 0.11396 0.0
C1287 C 0.41055 0.79642 0.11897 0.0
C1288 C 0.50633 0.94154 0.05427 0.0
C1289 C 0.49614 0.92202 0.06588 0.0
C1290 C 0.43845 0.88576 0.07959 0.0
C1291 C 0.43247 0.83453 0.12044 0.0
C1292 C 0.44222 0.85625 0.10832 0.0
C1293 C 0.47181 0.91828 0.07226 0.0
C1294 C 0.46123 0.89715 0.08501 0.0
H1295 H 0.43118 0.80965 0.17489 0.0
H1296 H 0.4464 0.84443 0.15546 0.0
H1297 H 0.41167 0.85754 0.08606 0.0
H1298 H 0.45727 0.96717 0.05087 0.0
H1299 H 0.43929 0.93294 0.07096 0.0
C1300 C 0.10765 0.23211 0.64907 0.0
C1301 C 0.11588 0.25018 0.63427 0.0
C1302 C 0.09817 0.21114 0.63921 0.0
C1303 C 0.09606 0.17819 0.58087 0.0
H1304 H 0.04749 0.13793 0.6136 0.0
C1305 C 0.04793 0.09762 0.53428 0.0
C1306 C 0.04266 0.07812 0.54776 0.0
C1307 C 0.05673 0.1182 0.54521 0.0
C1308 C 0.06123 0.14884 0.60425 0.0
H1309 H 0.11911 0.26034 0.59733 0.0
H1310 H 0.1022 0.22451 0.58034 0.0
H1311 H 0.06216 0.17413 0.63179 0.0
H1312 H 0.04258 0.06548 0.5837 0.0
H1313 H 0.05779 0.10126 0.6027 0.0
H1314 H 0.09491 0.15303 0.55322 0.0
C1315 C 0.10381 0.22602 0.59957 0.0
C1316 C 0.06974 0.16974 0.61477 0.0
C1317 C 0.11344 0.2468 0.60938 0.0
C1318 C 0.04643 0.07999 0.57261 0.0
C1319 C 0.05503 0.10065 0.58359 0.0
C1320 C 0.08742 0.15741 0.57031 0.0
C1321 C 0.09638 0.20759 0.61419 0.0
C1322 C 0.08728 0.18492 0.60323 0.0
C1323 C 0.0604 0.12015 0.57009 0.0
C1324 C 0.0698 0.14234 0.58173 0.0
H1325 H 0.10935 0.23393 0.66828 0.0
H1326 H 0.0929 0.19755 0.65127 0.0
H1327 H 0.10995 0.18886 0.57148 0.0
H1328 H 0.04522 0.09705 0.51517 0.0
H1329 H 0.06029 0.13273 0.53412 0.0
C1330 C 0.64031 0.24002 0.52565 0.0
C1331 C 0.66318 0.24743 0.51653 0.0
C1332 C 0.6261 0.25529 0.5346 0.0
C1333 C 0.62478 0.31604 0.54675 0.0
H1334 H 0.56414 0.30307 0.51509 0.0
C1335 C 0.56437 0.3834 0.53334 0.0
C1336 C 0.55697 0.38443 0.50958 0.0
C1337 C 0.57422 0.36503 0.541 0.0
C1338 C 0.58092 0.3069 0.52419 0.0
H1339 H 0.68996 0.27616 0.51135 0.0
H1340 H 0.66505 0.30294 0.52625 0.0
H1341 H 0.58875 0.27395 0.51852 0.0
H1342 H 0.55384 0.36685 0.47537 0.0
H1343 H 0.57083 0.33491 0.48867 0.0
H1344 H 0.61755 0.34956 0.55065 0.0
C1345 C 0.65809 0.2854 0.52706 0.0
C1346 C 0.59495 0.29011 0.5265 0.0
C1347 C 0.67241 0.27008 0.51842 0.0
C1348 C 0.55897 0.36643 0.49388 0.0
C1349 C 0.5687 0.34809 0.50153 0.0
C1350 C 0.61074 0.33292 0.54433 0.0
C1351 C 0.63437 0.27826 0.53415 0.0
C1352 C 0.61749 0.29468 0.53694 0.0
C1353 C 0.5767 0.34729 0.52508 0.0
C1354 C 0.58914 0.32869 0.53211 0.0
H1355 H 0.63296 0.22255 0.52459 0.0
H1356 H 0.60813 0.2492 0.54049 0.0
H1357 H 0.64186 0.32002 0.55525 0.0
H1358 H 0.56272 0.39688 0.54598 0.0
H1359 H 0.58006 0.36478 0.55929 0.0
loop_
_geom_bond_atom_site_label_1
_geom_bond_atom_site_label_2
_geom_bond_distance
_geom_bond_site_symmetry_2
_ccdc_geom_bond_type
C0 C1 1.391 . S
C0 C4 1.391 . S
C0 H42 0.948 . S
C1 C0 1.391 . S
C1 C2 1.391 . S
C2 C1 1.391 . S
C2 H58 0.947 . S
C2 C59 1.392 . S
C3 C4 1.391 . S
C3 C7 1.397 . S
C3 C59 1.419 . S
C4 C0 1.391 . S
C4 C3 1.391 . S
C4 C5 1.399 . S
C5 C4 1.399 . S
C5 C8 1.396 . S
C5 C17 1.453 . S
C5 C18 1.684 . S
H6 C30 0.948 . S
C7 C3 1.397 . S
C7 C8 1.394 . S
C7 C26 1.723 . S
C8 C5 1.396 . S
C8 C7 1.394 . S
C8 C38 1.723 . S
H9 C32 0.947 . S
H10 C33 0.948 . S
H11 C39 0.982 . S
H12 C40 0.979 . S
H13 C40 0.980 . S
H14 C40 0.983 . S
H15 C39 0.979 . S
H16 C39 0.977 . S
C17 C5 1.453 . S
C17 H46 0.982 . S
C17 H47 0.979 . S
C17 H48 0.977 . S
C18 C5 1.684 . S
C18 H43 0.979 . S
C18 H44 0.980 . S
C18 H45 0.983 . S
C19 C20 1.391 . S
C19 C24 1.391 . S
C19 H49 0.948 . S
C20 C19 1.391 . S
C20 C21 1.391 . S
C21 C20 1.391 . S
C21 C22 1.392 . S
C21 H50 0.947 . S
C22 C21 1.392 . S
C22 C23 1.419 . S
C22 H51 0.948 . S
C23 C22 1.419 . S
C23 C24 1.391 . S
C23 C27 1.397 . S
C24 C19 1.391 . S
C24 C23 1.391 . S
C24 C25 1.399 . S
C25 C24 1.399 . S
C25 C26 1.396 . S
C25 C28 1.453 . S
C25 C29 1.684 . S
C26 C7 1.723 . S
C26 C25 1.396 . S
C26 C27 1.394 . S
C27 C23 1.397 . S
C27 C26 1.394 . S
C27 C37 1.723 . S
C28 C25 1.453 . S
C28 H52 0.982 . S
C28 H53 0.979 . S
C28 H54 0.977 . S
C29 C25 1.684 . S
C29 H55 0.979 . S
C29 H56 0.980 . S
C29 H57 0.983 . S
C30 H6 0.948 . S
C30 C31 1.391 . S
C30 C35 1.391 . S
C31 C30 1.391 . S
C31 C32 1.391 . S
C32 H9 0.947 . S
C32 C31 1.391 . S
C32 C33 1.392 . S
C33 H10 0.948 . S
C33 C32 1.392 . S
C33 C34 1.419 . S
C34 C33 1.419 . S
C34 C35 1.391 . S
C34 C38 1.397 . S
C35 C30 1.391 . S
C35 C34 1.391 . S
C35 C36 1.399 . S
C36 C35 1.399 . S
C36 C37 1.396 . S
C36 C39 1.453 . S
C36 C40 1.684 . S
C37 C27 1.723 . S
C37 C36 1.396 . S
C37 C38 1.394 . S
C38 C8 1.723 . S
C38 C34 1.397 . S
C38 C37 1.394 . S
C39 H11 0.982 . S
C39 H15 0.979 . S
C39 H16 0.977 . S
C39 C36 1.453 . S
C40 H12 0.979 . S
C40 H13 0.980 . S
C40 H14 0.983 . S
C40 C36 1.684 . S
H41 C59 0.948 . S
H42 C0 0.948 . S
H43 C18 0.979 . S
H44 C18 0.980 . S
H45 C18 0.983 . S
H46 C17 0.982 . S
H47 C17 0.979 . S
H48 C17 0.977 . S
H49 C19 0.948 . S
H50 C21 0.947 . S
H51 C22 0.948 . S
H52 C28 0.982 . S
H53 C28 0.979 . S
H54 C28 0.977 . S
H55 C29 0.979 . S
H56 C29 0.980 . S
H57 C29 0.983 . S
H58 C2 0.947 . S
C59 C2 1.392 . S
C59 C3 1.419 . S
C59 H41 0.948 . S
C60 C61 1.391 . S
C60 C64 1.391 . S
C60 H102 0.948 . S
C61 C60 1.391 . S
C61 C62 1.391 . S
C62 C61 1.391 . S
C62 H118 0.947 . S
C62 C119 1.392 . S
C63 C64 1.391 . S
C63 C67 1.397 . S
C63 C119 1.419 . S
C64 C60 1.391 . S
C64 C63 1.391 . S
C64 C65 1.399 . S
C65 C64 1.399 . S
C65 C68 1.396 . S
C65 C77 1.453 . S
C65 C78 1.684 . S
H66 C90 0.948 . S
C67 C63 1.397 . S
C67 C68 1.394 . S
C67 C86 1.723 . S
C68 C65 1.396 . S
C68 C67 1.394 . S
C68 C98 1.723 . S
H69 C92 0.947 . S
H70 C93 0.948 . S
H71 C99 0.982 . S
H72 C100 0.979 . S
H73 C100 0.980 . S
H74 C100 0.983 . S
H75 C99 0.979 . S
H76 C99 0.977 . S
C77 C65 1.453 . S
C77 H106 0.982 . S
C77 H107 0.979 . S
C77 H108 0.977 . S
C78 C65 1.684 . S
C78 H103 0.979 . S
C78 H104 0.980 . S
C78 H105 0.983 . S
C79 C80 1.391 . S
C79 C84 1.391 . S
C79 H109 0.948 . S
C80 C79 1.391 . S
C80 C81 1.391 . S
C81 C80 1.391 . S
C81 C82 1.392 . S
C81 H110 0.947 . S
C82 C81 1.392 . S
C82 C83 1.419 . S
C82 H111 0.948 . S
C83 C82 1.419 . S
C83 C84 1.391 . S
C83 C87 1.397 . S
C84 C79 1.391 . S
C84 C83 1.391 . S
C84 C85 1.399 . S
C85 C84 1.399 . S
C85 C86 1.396 . S
C85 C88 1.453 . S
C85 C89 1.684 . S
C86 C67 1.723 . S
C86 C85 1.396 . S
C86 C87 1.394 . S
C87 C83 1.397 . S
C87 C86 1.394 . S
C87 C97 1.723 . S
C88 C85 1.453 . S
C88 H112 0.982 . S
C88 H113 0.979 . S
C88 H114 0.977 . S
C89 C85 1.684 . S
C89 H115 0.979 . S
C89 H116 0.980 . S
C89 H117 0.983 . S
C90 H66 0.948 . S
C90 C91 1.391 . S
C90 C95 1.391 . S
C91 C90 1.391 . S
C91 C92 1.391 . S
C92 H69 0.947 . S
C92 C91 1.391 . S
C92 C93 1.392 . S
C93 H70 0.948 . S
C93 C92 1.392 . S
C93 C94 1.419 . S
C94 C93 1.419 . S
C94 C95 1.391 . S
C94 C98 1.397 . S
C95 C90 1.391 . S
C95 C94 1.391 . S
C95 C96 1.399 . S
C96 C95 1.399 . S
C96 C97 1.396 . S
C96 C99 1.453 . S
C96 C100 1.684 . S
C97 C87 1.723 . S
C97 C96 1.396 . S
C97 C98 1.394 . S
C98 C68 1.723 . S
C98 C94 1.397 . S
C98 C97 1.394 . S
C99 H71 0.982 . S
C99 H75 0.979 . S
C99 H76 0.977 . S
C99 C96 1.453 . S
C100 H72 0.979 . S
C100 H73 0.980 . S
C100 H74 0.983 . S
C100 C96 1.684 . S
H101 C119 0.948 . S
H102 C60 0.948 . S
H103 C78 0.979 . S
H104 C78 0.980 . S
H105 C78 0.983 . S
H106 C77 0.982 . S
H107 C77 0.979 . S
H108 C77 0.977 . S
H109 C79 0.948 . S
H110 C81 0.947 . S
H111 C82 0.948 . S
H112 C88 0.982 . S
H113 C88 0.979 . S
H114 C88 0.977 . S
H115 C89 0.979 . S
H116 C89 0.980 . S
H117 C89 0.983 . S
H118 C62 0.947 . S
C119 C62 1.392 . S
C119 C63 1.419 . S
C119 H101 0.948 . S
C120 C121 1.391 . S
C120 C124 1.391 . S
C120 H162 0.948 . S
C121 C120 1.391 . S
C121 C122 1.391 . S
C122 C121 1.391 . S
C122 H178 0.947 . S
C122 C179 1.392 . S
C123 C124 1.391 . S
C123 C127 1.397 . S
C123 C179 1.419 . S
C124 C120 1.391 . S
C124 C123 1.391 . S
C124 C125 1.399 . S
C125 C124 1.399 . S
C125 C128 1.396 . S
C125 C137 1.453 . S
C125 C138 1.684 . S
H126 C150 0.948 . S
C127 C123 1.397 . S
C127 C128 1.394 . S
C127 C146 1.723 . S
C128 C125 1.396 . S
C128 C127 1.394 . S
C128 C158 1.723 . S
H129 C152 0.947 . S
H130 C153 0.948 . S
H131 C159 0.982 . S
H132 C160 0.979 . S
H133 C160 0.980 . S
H134 C160 0.983 . S
H135 C159 0.979 . S
H136 C159 0.977 . S
C137 C125 1.453 . S
C137 H166 0.982 . S
C137 H167 0.979 . S
C137 H168 0.977 . S
C138 C125 1.684 . S
C138 H163 0.979 . S
C138 H164 0.980 . S
C138 H165 0.983 . S
C139 C140 1.391 . S
C139 C144 1.391 . S
C139 H169 0.948 . S
C140 C139 1.391 . S
C140 C141 1.391 . S
C141 C140 1.391 . S
C141 C142 1.392 . S
C141 H170 0.947 . S
C142 C141 1.392 . S
C142 C143 1.419 . S
C142 H171 0.948 . S
C143 C142 1.419 . S
C143 C144 1.391 . S
C143 C147 1.397 . S
C144 C139 1.391 . S
C144 C143 1.391 . S
C144 C145 1.399 . S
C145 C144 1.399 . S
C145 C146 1.396 . S
C145 C148 1.453 . S
C145 C149 1.684 . S
C146 C127 1.723 . S
C146 C145 1.396 . S
C146 C147 1.394 . S
C147 C143 1.397 . S
C147 C146 1.394 . S
C147 C157 1.723 . S
C148 C145 1.453 . S
C148 H172 0.982 . S
C148 H173 0.979 . S
C148 H174 0.977 . S
C149 C145 1.684 . S
C149 H175 0.979 . S
C149 H176 0.980 . S
C149 H177 0.983 . S
C150 H126 0.948 . S
C150 C151 1.391 . S
C150 C155 1.391 . S
C151 C150 1.391 . S
C151 C152 1.391 . S
C152 H129 0.947 . S
C152 C151 1.391 . S
C152 C153 1.392 . S
C153 H130 0.948 . S
C153 C152 1.392 . S
C153 C154 1.419 . S
C154 C153 1.419 . S
C154 C155 1.391 . S
C154 C158 1.397 . S
C155 C150 1.391 . S
C155 C154 1.391 . S
C155 C156 1.399 . S
C156 C155 1.399 . S
C156 C157 1.396 . S
C156 C159 1.453 . S
C156 C160 1.684 . S
C157 C147 1.723 . S
C157 C156 1.396 . S
C157 C158 1.394 . S
C158 C128 1.723 . S
C158 C154 1.397 . S
C158 C157 1.394 . S
C159 H131 0.982 . S
C159 H135 0.979 . S
C159 H136 0.977 . S
C159 C156 1.453 . S
C160 H132 0.979 . S
C160 H133 0.980 . S
C160 H134 0.983 . S
C160 C156 1.684 . S
H161 C179 0.948 . S
H162 C120 0.948 . S
H163 C138 0.979 . S
H164 C138 0.980 . S
H165 C138 0.983 . S
H166 C137 0.982 . S
H167 C137 0.979 . S
H168 C137 0.977 . S
H169 C139 0.948 . S
H170 C141 0.947 . S
H171 C142 0.948 . S
H172 C148 0.982 . S
H173 C148 0.979 . S
H174 C148 0.977 . S
H175 C149 0.979 . S
H176 C149 0.980 . S
H177 C149 0.983 . S
H178 C122 0.947 . S
C179 C122 1.392 . S
C179 C123 1.419 . S
C179 H161 0.948 . S
C180 C181 1.391 . S
C180 C184 1.391 . S
C180 H222 0.948 . S
C181 C180 1.391 . S
C181 C182 1.391 . S
C182 C181 1.391 . S
C182 H238 0.947 . S
C182 C239 1.392 . S
C183 C184 1.391 . S
C183 C187 1.397 . S
C183 C239 1.419 . S
C184 C180 1.391 . S
C184 C183 1.391 . S
C184 C185 1.399 . S
C185 C184 1.399 . S
C185 C188 1.396 . S
C185 C197 1.453 . S
C185 C198 1.684 . S
H186 C210 0.948 . S
C187 C183 1.397 . S
C187 C188 1.394 . S
C187 C206 1.723 . S
C188 C185 1.396 . S
C188 C187 1.394 . S
C188 C218 1.723 . S
H189 C212 0.947 . S
H190 C213 0.948 . S
H191 C219 0.982 . S
H192 C220 0.979 . S
H193 C220 0.980 . S
H194 C220 0.983 . S
H195 C219 0.979 . S
H196 C219 0.977 . S
C197 C185 1.453 . S
C197 H226 0.982 . S
C197 H227 0.979 . S
C197 H228 0.977 . S
C198 C185 1.684 . S
C198 H223 0.979 . S
C198 H224 0.980 . S
C198 H225 0.983 . S
C199 C200 1.391 . S
C199 C204 1.391 . S
C199 H229 0.948 . S
C200 C199 1.391 . S
C200 C201 1.391 . S
C201 C200 1.391 . S
C201 C202 1.392 . S
C201 H230 0.947 . S
C202 C201 1.392 . S
C202 C203 1.419 . S
C202 H231 0.948 . S
C203 C202 1.419 . S
C203 C204 1.391 . S
C203 C207 1.397 . S
C204 C199 1.391 . S
C204 C203 1.391 . S
C204 C205 1.399 . S
C205 C204 1.399 . S
C205 C206 1.396 . S
C205 C208 1.453 . S
C205 C209 1.684 . S
C206 C187 1.723 . S
C206 C205 1.396 . S
C206 C207 1.394 . S
C207 C203 1.397 . S
C207 C206 1.394 . S
C207 C217 1.723 . S
C208 C205 1.453 . S
C208 H232 0.982 . S
C208 H233 0.979 . S
C208 H234 0.977 . S
C209 C205 1.684 . S
C209 H235 0.979 . S
C209 H236 0.980 . S
C209 H237 0.983 . S
C210 H186 0.948 . S
C210 C211 1.391 . S
C210 C215 1.391 . S
C211 C210 1.391 . S
C211 C212 1.391 . S
C212 H189 0.947 . S
C212 C211 1.391 . S
C212 C213 1.392 . S
C213 H190 0.948 . S
C213 C212 1.392 . S
C213 C214 1.419 . S
C214 C213 1.419 . S
C214 C215 1.391 . S
C214 C218 1.397 . S
C215 C210 1.391 . S
C215 C214 1.391 . S
C215 C216 1.399 . S
C216 C215 1.399 . S
C216 C217 1.396 . S
C216 C219 1.453 . S
C216 C220 1.684 . S
C217 C207 1.723 . S
C217 C216 1.396 . S
C217 C218 1.394 . S
C218 C188 1.723 . S
C218 C214 1.397 . S
C218 C217 1.394 . S
C219 H191 0.982 . S
C219 H195 0.979 . S
C219 H196 0.977 . S
C219 C216 1.453 . S
C220 H192 0.979 . S
C220 H193 0.980 . S
C220 H194 0.983 . S
C220 C216 1.684 . S
H221 C239 0.948 . S
H222 C180 0.948 . S
H223 C198 0.979 . S
H224 C198 0.980 . S
H225 C198 0.983 . S
H226 C197 0.982 . S
H227 C197 0.979 . S
H228 C197 0.977 . S
H229 C199 0.948 . S
H230 C201 0.947 . S
H231 C202 0.948 . S
H232 C208 0.982 . S
H233 C208 0.979 . S
H234 C208 0.977 . S
H235 C209 0.979 . S
H236 C209 0.980 . S
H237 C209 0.983 . S
H238 C182 0.947 . S
C239 C182 1.392 . S
C239 C183 1.419 . S
C239 H221 0.948 . S
C240 C241 1.391 . S
C240 C244 1.391 . S
C240 H282 0.948 . S
C241 C240 1.391 . S
C241 C242 1.391 . S
C242 C241 1.391 . S
C242 H298 0.947 . S
C242 C299 1.392 . S
C243 C244 1.391 . S
C243 C247 1.397 . S
C243 C299 1.419 . S
C244 C240 1.391 . S
C244 C243 1.391 . S
C244 C245 1.399 . S
C245 C244 1.399 . S
C245 C248 1.396 . S
C245 C257 1.453 . S
C245 C258 1.684 . S
H246 C270 0.948 . S
C247 C243 1.397 . S
C247 C248 1.394 . S
C247 C266 1.723 . S
C248 C245 1.396 . S
C248 C247 1.394 . S
C248 C278 1.723 . S
H249 C272 0.947 . S
H250 C273 0.948 . S
H251 C279 0.982 . S
H252 C280 0.979 . S
H253 C280 0.980 . S
H254 C280 0.983 . S
H255 C279 0.979 . S
H256 C279 0.977 . S
C257 C245 1.453 . S
C257 H286 0.982 . S
C257 H287 0.979 . S
C257 H288 0.977 . S
C258 C245 1.684 . S
C258 H283 0.979 . S
C258 H284 0.980 . S
C258 H285 0.983 . S
C259 C260 1.391 . S
C259 C264 1.391 . S
C259 H289 0.948 . S
C260 C259 1.391 . S
C260 C261 1.391 . S
C261 C260 1.391 . S
C261 C262 1.392 . S
C261 H290 0.947 . S
C262 C261 1.392 . S
C262 C263 1.419 . S
C262 H291 0.948 . S
C263 C262 1.419 . S
C263 C264 1.391 . S
C263 C267 1.397 . S
C264 C259 1.391 . S
C264 C263 1.391 . S
C264 C265 1.399 . S
C265 C264 1.399 . S
C265 C266 1.396 . S
C265 C268 1.453 . S
C265 C269 1.684 . S
C266 C247 1.723 . S
C266 C265 1.396 . S
C266 C267 1.394 . S
C267 C263 1.397 . S
C267 C266 1.394 . S
C267 C277 1.723 . S
C268 C265 1.453 . S
C268 H292 0.982 . S
C268 H293 0.979 . S
C268 H294 0.977 . S
C269 C265 1.684 . S
C269 H295 0.979 . S
C269 H296 0.980 . S
C269 H297 0.983 . S
C270 H246 0.948 . S
C270 C271 1.391 . S
C270 C275 1.391 . S
C271 C270 1.391 . S
C271 C272 1.391 . S
C272 H249 0.947 . S
C272 C271 1.391 . S
C272 C273 1.392 . S
C273 H250 0.948 . S
C273 C272 1.392 . S
C273 C274 1.419 . S
C274 C273 1.419 . S
C274 C275 1.391 . S
C274 C278 1.397 . S
C275 C270 1.391 . S
C275 C274 1.391 . S
C275 C276 1.399 . S
C276 C275 1.399 . S
C276 C277 1.396 . S
C276 C279 1.453 . S
C276 C280 1.684 . S
C277 C267 1.723 . S
C277 C276 1.396 . S
C277 C278 1.394 . S
C278 C248 1.723 . S
C278 C274 1.397 . S
C278 C277 1.394 . S
C279 H251 0.982 . S
C279 H255 0.979 . S
C279 H256 0.977 . S
C279 C276 1.453 . S
C280 H252 0.979 . S
C280 H253 0.980 . S
C280 H254 0.983 . S
C280 C276 1.684 . S
H281 C299 0.948 . S
H282 C240 0.948 . S
H283 C258 0.979 . S
H284 C258 0.980 . S
H285 C258 0.983 . S
H286 C257 0.982 . S
H287 C257 0.979 . S
H288 C257 0.977 . S
H289 C259 0.948 . S
H290 C261 0.947 . S
H291 C262 0.948 . S
H292 C268 0.982 . S
H293 C268 0.979 . S
H294 C268 0.977 . S
H295 C269 0.979 . S
H296 C269 0.980 . S
H297 C269 0.983 . S
H298 C242 0.947 . S
C299 C242 1.392 . S
C299 C243 1.419 . S
C299 H281 0.948 . S
C300 C301 1.391 . S
C300 C304 1.391 . S
C300 H342 0.948 . S
C301 C300 1.391 . S
C301 C302 1.391 . S
C302 C301 1.391 . S
C302 H358 0.947 . S
C302 C359 1.392 . S
C303 C304 1.391 . S
C303 C307 1.397 . S
C303 C359 1.419 . S
C304 C300 1.391 . S
C304 C303 1.391 . S
C304 C305 1.399 . S
C305 C304 1.399 . S
C305 C308 1.396 . S
C305 C317 1.453 . S
C305 C318 1.684 . S
H306 C330 0.948 . S
C307 C303 1.397 . S
C307 C308 1.394 . S
C307 C326 1.723 . S
C308 C305 1.396 . S
C308 C307 1.394 . S
C308 C338 1.723 . S
H309 C332 0.947 . S
H310 C333 0.948 . S
H311 C339 0.982 . S
H312 C340 0.979 . S
H313 C340 0.980 . S
H314 C340 0.983 . S
H315 C339 0.979 . S
H316 C339 0.977 . S
C317 C305 1.453 . S
C317 H346 0.982 . S
C317 H347 0.979 . S
C317 H348 0.977 . S
C318 C305 1.684 . S
C318 H343 0.979 . S
C318 H344 0.980 . S
C318 H345 0.983 . S
C319 C320 1.391 . S
C319 C324 1.391 . S
C319 H349 0.948 . S
C320 C319 1.391 . S
C320 C321 1.391 . S
C321 C320 1.391 . S
C321 C322 1.392 . S
C321 H350 0.947 . S
C322 C321 1.392 . S
C322 C323 1.419 . S
C322 H351 0.948 . S
C323 C322 1.419 . S
C323 C324 1.391 . S
C323 C327 1.397 . S
C324 C319 1.391 . S
C324 C323 1.391 . S
C324 C325 1.399 . S
C325 C324 1.399 . S
C325 C326 1.396 . S
C325 C328 1.453 . S
C325 C329 1.684 . S
C326 C307 1.723 . S
C326 C325 1.396 . S
C326 C327 1.394 . S
C327 C323 1.397 . S
C327 C326 1.394 . S
C327 C337 1.723 . S
C328 C325 1.453 . S
C328 H352 0.982 . S
C328 H353 0.979 . S
C328 H354 0.977 . S
C329 C325 1.684 . S
C329 H355 0.979 . S
C329 H356 0.980 . S
C329 H357 0.983 . S
C330 H306 0.948 . S
C330 C331 1.391 . S
C330 C335 1.391 . S
C331 C330 1.391 . S
C331 C332 1.391 . S
C332 H309 0.947 . S
C332 C331 1.391 . S
C332 C333 1.392 . S
C333 H310 0.948 . S
C333 C332 1.392 . S
C333 C334 1.419 . S
C334 C333 1.419 . S
C334 C335 1.391 . S
C334 C338 1.397 . S
C335 C330 1.391 . S
C335 C334 1.391 . S
C335 C336 1.399 . S
C336 C335 1.399 . S
C336 C337 1.396 . S
C336 C339 1.453 . S
C336 C340 1.684 . S
C337 C327 1.723 . S
C337 C336 1.396 . S
C337 C338 1.394 . S
C338 C308 1.723 . S
C338 C334 1.397 . S
C338 C337 1.394 . S
C339 H311 0.982 . S
C339 H315 0.979 . S
C339 H316 0.977 . S
C339 C336 1.453 . S
C340 H312 0.979 . S
C340 H313 0.980 . S
C340 H314 0.983 . S
C340 C336 1.684 . S
H341 C359 0.948 . S
H342 C300 0.948 . S
H343 C318 0.979 . S
H344 C318 0.980 . S
H345 C318 0.983 . S
H346 C317 0.982 . S
H347 C317 0.979 . S
H348 C317 0.977 . S
H349 C319 0.948 . S
H350 C321 0.947 . S
H351 C322 0.948 . S
H352 C328 0.982 . S
H353 C328 0.979 . S
H354 C328 0.977 . S
H355 C329 0.979 . S
H356 C329 0.980 . S
H357 C329 0.983 . S
H358 C302 0.947 . S
C359 C302 1.392 . S
C359 C303 1.419 . S
C359 H341 0.948 . S
C360 C361 1.391 . S
C360 C364 1.391 . S
C360 H402 0.948 . S
C361 C360 1.391 . S
C361 C362 1.391 . S
C362 C361 1.391 . S
C362 H418 0.947 . S
C362 C419 1.392 . S
C363 C364 1.391 . S
C363 C367 1.397 . S
C363 C419 1.419 . S
C364 C360 1.391 . S
C364 C363 1.391 . S
C364 C365 1.399 . S
C365 C364 1.399 . S
C365 C368 1.396 . S
C365 C377 1.453 . S
C365 C378 1.684 . S
H366 C390 0.948 . S
C367 C363 1.397 . S
C367 C368 1.394 . S
C367 C386 1.723 . S
C368 C365 1.396 . S
C368 C367 1.394 . S
C368 C398 1.723 . S
H369 C392 0.947 . S
H370 C393 0.948 . S
H371 C399 0.982 . S
H372 C400 0.979 . S
H373 C400 0.980 . S
H374 C400 0.983 . S
H375 C399 0.979 . S
H376 C399 0.977 . S
C377 C365 1.453 . S
C377 H406 0.982 . S
C377 H407 0.979 . S
C377 H408 0.977 . S
C378 C365 1.684 . S
C378 H403 0.979 . S
C378 H404 0.980 . S
C378 H405 0.983 . S
C379 C380 1.391 . S
C379 C384 1.391 . S
C379 H409 0.948 . S
C380 C379 1.391 . S
C380 C381 1.391 . S
C381 C380 1.391 . S
C381 C382 1.392 . S
C381 H410 0.947 . S
C382 C381 1.392 . S
C382 C383 1.419 . S
C382 H411 0.948 . S
C383 C382 1.419 . S
C383 C384 1.391 . S
C383 C387 1.397 . S
C384 C379 1.391 . S
C384 C383 1.391 . S
C384 C385 1.399 . S
C385 C384 1.399 . S
C385 C386 1.396 . S
C385 C388 1.453 . S
C385 C389 1.684 . S
C386 C367 1.723 . S
C386 C385 1.396 . S
C386 C387 1.394 . S
C387 C383 1.397 . S
C387 C386 1.394 . S
C387 C397 1.723 . S
C388 C385 1.453 . S
C388 H412 0.982 . S
C388 H413 0.979 . S
C388 H414 0.977 . S
C389 C385 1.684 . S
C389 H415 0.979 . S
C389 H416 0.980 . S
C389 H417 0.983 . S
C390 H366 0.948 . S
C390 C391 1.391 . S
C390 C395 1.391 . S
C391 C390 1.391 . S
C391 C392 1.391 . S
C392 H369 0.947 . S
C392 C391 1.391 . S
C392 C393 1.392 . S
C393 H370 0.948 . S
C393 C392 1.392 . S
C393 C394 1.419 . S
C394 C393 1.419 . S
C394 C395 1.391 . S
C394 C398 1.397 . S
C395 C390 1.391 . S
C395 C394 1.391 . S
C395 C396 1.399 . S
C396 C395 1.399 . S
C396 C397 1.396 . S
C396 C399 1.453 . S
C396 C400 1.684 . S
C397 C387 1.723 . S
C397 C396 1.396 . S
C397 C398 1.394 . S
C398 C368 1.723 . S
C398 C394 1.397 . S
C398 C397 1.394 . S
C399 H371 0.982 . S
C399 H375 0.979 . S
C399 H376 0.977 . S
C399 C396 1.453 . S
C400 H372 0.979 . S
C400 H373 0.980 . S
C400 H374 0.983 . S
C400 C396 1.684 . S
H401 C419 0.948 . S
H402 C360 0.948 . S
H403 C378 0.979 . S
H404 C378 0.980 . S
H405 C378 0.983 . S
H406 C377 0.982 . S
H407 C377 0.979 . S
H408 C377 0.977 . S
H409 C379 0.948 . S
H410 C381 0.947 . S
H411 C382 0.948 . S
H412 C388 0.982 . S
H413 C388 0.979 . S
H414 C388 0.977 . S
H415 C389 0.979 . S
H416 C389 0.980 . S
H417 C389 0.983 . S
H418 C362 0.947 . S
C419 C362 1.392 . S
C419 C363 1.419 . S
C419 H401 0.948 . S
C420 C421 1.391 . S
C420 C424 1.391 . S
C420 H462 0.948 . S
C421 C420 1.391 . S
C421 C422 1.391 . S
C422 C421 1.391 . S
C422 H478 0.947 . S
C422 C479 1.392 . S
C423 C424 1.391 . S
C423 C427 1.397 . S
C423 C479 1.419 . S
C424 C420 1.391 . S
C424 C423 1.391 . S
C424 C425 1.399 . S
C425 C424 1.399 . S
C425 C428 1.396 . S
C425 C437 1.453 . S
C425 C438 1.684 . S
H426 C450 0.948 . S
C427 C423 1.397 . S
C427 C428 1.394 . S
C427 C446 1.723 . S
C428 C425 1.396 . S
C428 C427 1.394 . S
C428 C458 1.723 . S
H429 C452 0.947 . S
H430 C453 0.948 . S
H431 C459 0.982 . S
H432 C460 0.979 . S
H433 C460 0.980 . S
H434 C460 0.983 . S
H435 C459 0.979 . S
H436 C459 0.977 . S
C437 C425 1.453 . S
C437 H466 0.982 . S
C437 H467 0.979 . S
C437 H468 0.977 . S
C438 C425 1.684 . S
C438 H463 0.979 . S
C438 H464 0.980 . S
C438 H465 0.983 . S
C439 C440 1.391 . S
C439 C444 1.391 . S
C439 H469 0.948 . S
C440 C439 1.391 . S
C440 C441 1.391 . S
C441 C440 1.391 . S
C441 C442 1.392 . S
C441 H470 0.947 . S
C442 C441 1.392 . S
C442 C443 1.419 . S
C442 H471 0.948 . S
C443 C442 1.419 . S
C443 C444 1.391 . S
C443 C447 1.397 . S
C444 C439 1.391 . S
C444 C443 1.391 . S
C444 C445 1.399 . S
C445 C444 1.399 . S
C445 C446 1.396 . S
C445 C448 1.453 . S
C445 C449 1.684 . S
C446 C427 1.723 . S
C446 C445 1.396 . S
C446 C447 1.394 . S
C447 C443 1.397 . S
C447 C446 1.394 . S
C447 C457 1.723 . S
C448 C445 1.453 . S
C448 H472 0.982 . S
C448 H473 0.979 . S
C448 H474 0.977 . S
C449 C445 1.684 . S
C449 H475 0.979 . S
C449 H476 0.980 . S
C449 H477 0.983 . S
C450 H426 0.948 . S
C450 C451 1.391 . S
C450 C455 1.391 . S
C451 C450 1.391 . S
C451 C452 1.391 . S
C452 H429 0.947 . S
C452 C451 1.391 . S
C452 C453 1.392 . S
C453 H430 0.948 . S
C453 C452 1.392 . S
C453 C454 1.419 . S
C454 C453 1.419 . S
C454 C455 1.391 . S
C454 C458 1.397 . S
C455 C450 1.391 . S
C455 C454 1.391 . S
C455 C456 1.399 . S
C456 C455 1.399 . S
C456 C457 1.396 . S
C456 C459 1.453 . S
C456 C460 1.684 . S
C457 C447 1.723 . S
C457 C456 1.396 . S
C457 C458 1.394 . S
C458 C428 1.723 . S
C458 C454 1.397 . S
C458 C457 1.394 . S
C459 H431 0.982 . S
C459 H435 0.979 . S
C459 H436 0.977 . S
C459 C456 1.453 . S
C460 H432 0.979 . S
C460 H433 0.980 . S
C460 H434 0.983 . S
C460 C456 1.684 . S
H461 C479 0.948 . S
H462 C420 0.948 . S
H463 C438 0.979 . S
H464 C438 0.980 . S
H465 C438 0.983 . S
H466 C437 0.982 . S
H467 C437 0.979 . S
H468 C437 0.977 . S
H469 C439 0.948 . S
H470 C441 0.947 . S
H471 C442 0.948 . S
H472 C448 0.982 . S
H473 C448 0.979 . S
H474 C448 0.977 . S
H475 C449 0.979 . S
H476 C449 0.980 . S
H477 C449 0.983 . S
H478 C422 0.947 . S
C479 C422 1.392 . S
C479 C423 1.419 . S
C479 H461 0.948 . S
Sm480 C482 2.846 . S
Sm480 O500 2.543 . S
Sm480 O501 2.450 . S
Sm480 O502 2.681 1_545 S
Sm480 O503 2.464 1_545 S
Sm480 O504 2.396 . S
Sm480 O508 2.386 1_455 S
Sm480 O511 2.408 1_445 S
Sm481 C491 2.846 . S
Sm481 O502 2.386 1_655 S
Sm481 O505 2.408 1_665 S
Sm481 O506 2.543 . S
Sm481 O507 2.450 . S
Sm481 O508 2.681 1_565 S
Sm481 O509 2.464 1_565 S
Sm481 O510 2.396 . S
C482 Sm480 2.846 . S
C482 C483 1.506 . S
C482 O500 1.261 . S
C482 O501 1.242 . S
C483 C482 1.506 . S
C483 C484 1.358 . S
C483 C488 1.382 . S
C484 C483 1.358 . S
C484 C485 1.385 . S
C484 H512 0.930 . S
C485 C484 1.385 . S
C485 C486 1.395 . S
C485 H513 0.929 . S
C486 C485 1.395 . S
C486 C487 1.335 . S
C487 C486 1.335 . S
C487 C488 1.398 . S
C487 H514 0.930 . S
C488 C483 1.382 . S
C488 C487 1.398 . S
C488 H515 0.929 . S
C489 O502 1.271 . S
C489 O503 1.251 . S
C490 O504 1.252 . S
C490 O505 1.272 . S
C491 Sm481 2.846 . S
C491 C492 1.506 . S
C491 O506 1.261 . S
C491 O507 1.242 . S
C492 C491 1.506 . S
C492 C493 1.358 . S
C492 C497 1.382 . S
C493 C492 1.358 . S
C493 C494 1.385 . S
C493 H516 0.930 . S
C494 C493 1.385 . S
C494 C495 1.395 . S
C494 H517 0.929 . S
C495 C494 1.395 . S
C495 C496 1.335 . S
C496 C495 1.335 . S
C496 C497 1.398 . S
C496 H518 0.930 . S
C497 C492 1.382 . S
C497 C496 1.398 . S
C497 H519 0.929 . S
C498 O508 1.271 . S
C498 O509 1.251 . S
C499 O510 1.252 . S
C499 O511 1.272 . S
O500 Sm480 2.543 . S
O500 C482 1.261 . S
O501 Sm480 2.450 . S
O501 C482 1.242 . S
O502 Sm480 2.681 1_565 S
O502 Sm481 2.386 1_455 S
O502 C489 1.271 . S
O503 Sm480 2.464 1_565 S
O503 C489 1.251 . S
O504 Sm480 2.396 . S
O504 C490 1.252 . S
O505 Sm481 2.408 1_445 S
O505 C490 1.272 . S
O506 Sm481 2.543 . S
O506 C491 1.261 . S
O507 Sm481 2.450 . S
O507 C491 1.242 . S
O508 Sm480 2.386 1_655 S
O508 Sm481 2.681 1_545 S
O508 C498 1.271 . S
O509 Sm481 2.464 1_545 S
O509 C498 1.251 . S
O510 Sm481 2.396 . S
O510 C499 1.252 . S
O511 Sm480 2.408 1_665 S
O511 C499 1.272 . S
H512 C484 0.930 . S
H513 C485 0.929 . S
H514 C487 0.930 . S
H515 C488 0.929 . S
H516 C493 0.930 . S
H517 C494 0.929 . S
H518 C496 0.930 . S
H519 C497 0.929 . S
Sm520 C522 2.828 1_565 S
Sm520 O540 2.513 1_565 S
Sm520 O541 2.448 1_565 S
Sm520 O542 2.696 . S
Sm520 O543 2.490 . S
Sm520 O544 2.378 1_565 S
Sm520 O548 2.362 1_564 S
Sm520 O551 2.428 1_554 S
Sm521 C531 2.846 1_545 S
Sm521 O542 2.386 1_546 S
Sm521 O545 2.408 1_556 S
Sm521 O546 2.543 1_545 S
Sm521 O547 2.450 1_545 S
Sm521 O548 2.681 . S
Sm521 O549 2.464 . S
Sm521 O550 2.396 1_545 S
C522 Sm520 2.828 1_545 S
C522 C523 1.506 . S
C522 O540 1.261 . S
C522 O541 1.242 . S
C523 C522 1.506 . S
C523 C524 1.358 . S
C523 C528 1.382 . S
C524 C523 1.358 . S
C524 C525 1.385 . S
C524 H552 0.930 . S
C525 C524 1.385 . S
C525 C526 1.395 . S
C525 H553 0.929 . S
C526 C525 1.395 . S
C526 C527 1.335 . S
C527 C526 1.335 . S
C527 C528 1.398 . S
C527 H554 0.930 . S
C528 C523 1.382 . S
C528 C527 1.398 . S
C528 H555 0.929 . S
C529 O542 1.271 . S
C529 O543 1.251 . S
C530 O544 1.252 . S
C530 O545 1.272 . S
C531 Sm521 2.846 1_565 S
C531 C532 1.506 . S
C531 O546 1.261 . S
C531 O547 1.242 . S
C532 C531 1.506 . S
C532 C533 1.358 . S
C532 C537 1.382 . S
C533 C532 1.358 . S
C533 C534 1.385 . S
C533 H556 0.930 . S
C534 C533 1.385 . S
C534 C535 1.395 . S
C534 H557 0.929 . S
C535 C534 1.395 . S
C535 C536 1.335 . S
C536 C535 1.335 . S
C536 C537 1.398 . S
C536 H558 0.930 . S
C537 C532 1.382 . S
C537 C536 1.398 . S
C537 H559 0.929 . S
C538 O548 1.271 . S
C538 O549 1.251 . S
C539 O550 1.252 . S
C539 O551 1.272 . S
O540 Sm520 2.513 1_545 S
O540 C522 1.261 . S
O541 Sm520 2.448 1_545 S
O541 C522 1.242 . S
O542 Sm520 2.696 . S
O542 Sm521 2.386 1_564 S
O542 C529 1.271 . S
O543 Sm520 2.490 . S
O543 C529 1.251 . S
O544 Sm520 2.378 1_545 S
O544 C530 1.252 . S
O545 Sm521 2.408 1_554 S
O545 C530 1.272 . S
O546 Sm521 2.543 1_565 S
O546 C531 1.261 . S
O547 Sm521 2.450 1_565 S
O547 C531 1.242 . S
O548 Sm520 2.362 1_546 S
O548 Sm521 2.681 . S
O548 C538 1.271 . S
O549 Sm521 2.464 . S
O549 C538 1.251 . S
O550 Sm521 2.396 1_565 S
O550 C539 1.252 . S
O551 Sm520 2.428 1_556 S
O551 C539 1.272 . S
H552 C524 0.930 . S
H553 C525 0.929 . S
H554 C527 0.930 . S
H555 C528 0.929 . S
H556 C533 0.930 . S
H557 C534 0.929 . S
H558 C536 0.930 . S
H559 C537 0.929 . S
Sm560 C562 2.846 . S
Sm560 O580 2.543 . S
Sm560 O581 2.450 . S
Sm560 O582 2.681 . S
Sm560 O583 2.464 . S
Sm560 O584 2.396 . S
Sm560 O588 2.386 . S
Sm560 O591 2.408 . S
Sm561 C571 2.846 . S
Sm561 O582 2.386 . S
Sm561 O585 2.408 . S
Sm561 O586 2.543 . S
Sm561 O587 2.450 . S
Sm561 O588 2.681 . S
Sm561 O589 2.464 . S
Sm561 O590 2.396 . S
C562 Sm560 2.846 . S
C562 C563 1.506 . S
C562 O580 1.261 . S
C562 O581 1.242 . S
C563 C562 1.506 . S
C563 C564 1.358 . S
C563 C568 1.382 . S
C564 C563 1.358 . S
C564 C565 1.385 . S
C564 H592 0.930 . S
C565 C564 1.385 . S
C565 C566 1.395 . S
C565 H593 0.929 . S
C566 C565 1.395 . S
C566 C567 1.335 . S
C567 C566 1.335 . S
C567 C568 1.398 . S
C567 H594 0.930 . S
C568 C563 1.382 . S
C568 C567 1.398 . S
C568 H595 0.929 . S
C569 O582 1.271 . S
C569 O583 1.251 . S
C570 O584 1.252 . S
C570 O585 1.272 . S
C571 Sm561 2.846 . S
C571 C572 1.506 . S
C571 O586 1.261 . S
C571 O587 1.242 . S
C572 C571 1.506 . S
C572 C573 1.358 . S
C572 C577 1.382 . S
C573 C572 1.358 . S
C573 C574 1.385 . S
C573 H596 0.930 . S
C574 C573 1.385 . S
C574 C575 1.395 . S
C574 H597 0.929 . S
C575 C574 1.395 . S
C575 C576 1.335 . S
C576 C575 1.335 . S
C576 C577 1.398 . S
C576 H598 0.930 . S
C577 C572 1.382 . S
C577 C576 1.398 . S
C577 H599 0.929 . S
C578 O588 1.271 . S
C578 O589 1.251 . S
C579 O590 1.252 . S
C579 O591 1.272 . S
O580 Sm560 2.543 . S
O580 C562 1.261 . S
O581 Sm560 2.450 . S
O581 C562 1.242 . S
O582 Sm560 2.681 . S
O582 Sm561 2.386 . S
O582 C569 1.271 . S
O583 Sm560 2.464 . S
O583 C569 1.251 . S
O584 Sm560 2.396 . S
O584 C570 1.252 . S
O585 Sm561 2.408 . S
O585 C570 1.272 . S
O586 Sm561 2.543 . S
O586 C571 1.261 . S
O587 Sm561 2.450 . S
O587 C571 1.242 . S
O588 Sm560 2.386 . S
O588 Sm561 2.681 . S
O588 C578 1.271 . S
O589 Sm561 2.464 . S
O589 C578 1.251 . S
O590 Sm561 2.396 . S
O590 C579 1.252 . S
O591 Sm560 2.408 . S
O591 C579 1.272 . S
H592 C564 0.930 . S
H593 C565 0.929 . S
H594 C567 0.930 . S
H595 C568 0.929 . S
H596 C573 0.930 . S
H597 C574 0.929 . S
H598 C576 0.930 . S
H599 C577 0.929 . S
Sm600 C602 2.846 . S
Sm600 O620 2.543 . S
Sm600 O621 2.450 . S
Sm600 O622 2.681 1_455 S
Sm600 O623 2.464 1_455 S
Sm600 O624 2.396 . S
Sm600 O628 2.386 1_554 S
Sm600 O631 2.408 1_454 S
Sm601 C611 2.846 . S
Sm601 O622 2.386 1_556 S
Sm601 O625 2.408 1_656 S
Sm601 O626 2.543 . S
Sm601 O627 2.450 . S
Sm601 O628 2.681 1_655 S
Sm601 O629 2.464 1_655 S
Sm601 O630 2.396 . S
C602 Sm600 2.846 . S
C602 C603 1.506 . S
C602 O620 1.261 . S
C602 O621 1.242 . S
C603 C602 1.506 . S
C603 C604 1.358 . S
C603 C608 1.382 . S
C604 C603 1.358 . S
C604 C605 1.385 . S
C604 H632 0.930 . S
C605 C604 1.385 . S
C605 C606 1.395 . S
C605 H633 0.929 . S
C606 C605 1.395 . S
C606 C607 1.335 . S
C607 C606 1.335 . S
C607 C608 1.398 . S
C607 H634 0.930 . S
C608 C603 1.382 . S
C608 C607 1.398 . S
C608 H635 0.929 . S
C609 O622 1.271 . S
C609 O623 1.251 . S
C610 O624 1.252 . S
C610 O625 1.272 . S
C611 Sm601 2.846 . S
C611 C612 1.506 . S
C611 O626 1.261 . S
C611 O627 1.242 . S
C612 C611 1.506 . S
C612 C613 1.358 . S
C612 C617 1.382 . S
C613 C612 1.358 . S
C613 C614 1.385 . S
C613 H636 0.930 . S
C614 C613 1.385 . S
C614 C615 1.395 . S
C614 H637 0.929 . S
C615 C614 1.395 . S
C615 C616 1.335 . S
C616 C615 1.335 . S
C616 C617 1.398 . S
C616 H638 0.930 . S
C617 C612 1.382 . S
C617 C616 1.398 . S
C617 H639 0.929 . S
C618 O628 1.271 . S
C618 O629 1.251 . S
C619 O630 1.252 . S
C619 O631 1.272 . S
O620 Sm600 2.543 . S
O620 C602 1.261 . S
O621 Sm600 2.450 . S
O621 C602 1.242 . S
O622 Sm600 2.681 1_655 S
O622 Sm601 2.386 1_554 S
O622 C609 1.271 . S
O623 Sm600 2.464 1_655 S
O623 C609 1.251 . S
O624 Sm600 2.396 . S
O624 C610 1.252 . S
O625 Sm601 2.408 1_454 S
O625 C610 1.272 . S
O626 Sm601 2.543 . S
O626 C611 1.261 . S
O627 Sm601 2.450 . S
O627 C611 1.242 . S
O628 Sm600 2.386 1_556 S
O628 Sm601 2.681 1_455 S
O628 C618 1.271 . S
O629 Sm601 2.464 1_455 S
O629 C618 1.251 . S
O630 Sm601 2.396 . S
O630 C619 1.252 . S
O631 Sm600 2.408 1_656 S
O631 C619 1.272 . S
H632 C604 0.930 . S
H633 C605 0.929 . S
H634 C607 0.930 . S
H635 C608 0.929 . S
H636 C613 0.930 . S
H637 C614 0.929 . S
H638 C616 0.930 . S
H639 C617 0.929 . S
C640 C641 1.349 . S
C640 C642 1.327 . S
C640 H665 0.950 . S
C641 C640 1.349 . S
C641 C657 1.349 . S
C642 C640 1.327 . S
C642 C661 1.429 . S
C642 H666 0.950 . S
C643 C660 1.574 . S
C643 C662 1.368 . S
C643 H667 0.949 . S
H644 C648 0.949 . S
C645 C646 1.349 . S
C645 C647 1.327 . S
C645 H668 0.950 . S
C646 C645 1.349 . S
C646 C658 1.349 . S
C647 C645 1.327 . S
C647 C663 1.429 . S
C647 H669 0.950 . S
C648 H644 0.949 . S
C648 C656 1.574 . S
C648 C664 1.368 . S
H649 C657 0.950 . S
H650 C655 0.950 . S
H651 C656 0.949 . S
H652 C658 0.950 . S
H653 C659 0.950 . S
H654 C660 0.949 . S
C655 H650 0.950 . S
C655 C657 1.327 . S
C655 C661 1.429 . S
C656 C648 1.574 . S
C656 H651 0.949 . S
C656 C662 1.368 . S
C657 C641 1.349 . S
C657 H649 0.950 . S
C657 C655 1.327 . S
C658 C646 1.349 . S
C658 H652 0.950 . S
C658 C659 1.327 . S
C659 H653 0.950 . S
C659 C658 1.327 . S
C659 C663 1.429 . S
C660 C643 1.574 . S
C660 H654 0.949 . S
C660 C664 1.368 . S
C661 C642 1.429 . S
C661 C655 1.429 . S
C661 C662 1.523 . S
C662 C643 1.368 . S
C662 C656 1.368 . S
C662 C661 1.523 . S
C663 C647 1.429 . S
C663 C659 1.429 . S
C663 C664 1.523 . S
C664 C648 1.368 . S
C664 C660 1.368 . S
C664 C663 1.523 . S
H665 C640 0.950 . S
H666 C642 0.950 . S
H667 C643 0.949 . S
H668 C645 0.950 . S
H669 C647 0.950 . S
C670 C671 1.349 . S
C670 C672 1.327 . S
C670 H695 0.950 . S
C671 C670 1.349 . S
C671 C687 1.349 . S
C672 C670 1.327 . S
C672 C691 1.429 . S
C672 H696 0.950 . S
C673 C690 1.574 . S
C673 C692 1.368 . S
C673 H697 0.949 . S
H674 C678 0.949 . S
C675 C676 1.349 . S
C675 C677 1.327 . S
C675 H698 0.950 . S
C676 C675 1.349 . S
C676 C688 1.349 . S
C677 C675 1.327 . S
C677 C693 1.429 . S
C677 H699 0.950 . S
C678 H674 0.949 . S
C678 C686 1.574 . S
C678 C694 1.368 . S
H679 C687 0.950 . S
H680 C685 0.950 . S
H681 C686 0.949 . S
H682 C688 0.950 . S
H683 C689 0.950 . S
H684 C690 0.949 . S
C685 H680 0.950 . S
C685 C687 1.327 . S
C685 C691 1.429 . S
C686 C678 1.574 . S
C686 H681 0.949 . S
C686 C692 1.368 . S
C687 C671 1.349 . S
C687 H679 0.950 . S
C687 C685 1.327 . S
C688 C676 1.349 . S
C688 H682 0.950 . S
C688 C689 1.327 . S
C689 H683 0.950 . S
C689 C688 1.327 . S
C689 C693 1.429 . S
C690 C673 1.574 . S
C690 H684 0.949 . S
C690 C694 1.368 . S
C691 C672 1.429 . S
C691 C685 1.429 . S
C691 C692 1.523 . S
C692 C673 1.368 . S
C692 C686 1.368 . S
C692 C691 1.523 . S
C693 C677 1.429 . S
C693 C689 1.429 . S
C693 C694 1.523 . S
C694 C678 1.368 . S
C694 C690 1.368 . S
C694 C693 1.523 . S
H695 C670 0.950 . S
H696 C672 0.950 . S
H697 C673 0.949 . S
H698 C675 0.950 . S
H699 C677 0.950 . S
C700 C701 1.349 . S
C700 C702 1.327 . S
C700 H725 0.950 . S
C701 C700 1.349 . S
C701 C717 1.349 . S
C702 C700 1.327 . S
C702 C721 1.429 . S
C702 H726 0.950 . S
C703 C720 1.574 . S
C703 C722 1.368 . S
C703 H727 0.949 . S
H704 C708 0.949 . S
C705 C706 1.349 . S
C705 C707 1.327 . S
C705 H728 0.950 . S
C706 C705 1.349 . S
C706 C718 1.349 . S
C707 C705 1.327 . S
C707 C723 1.429 . S
C707 H729 0.950 . S
C708 H704 0.949 . S
C708 C716 1.574 . S
C708 C724 1.368 . S
H709 C717 0.950 . S
H710 C715 0.950 . S
H711 C716 0.949 . S
H712 C718 0.950 . S
H713 C719 0.950 . S
H714 C720 0.949 . S
C715 H710 0.950 . S
C715 C717 1.327 . S
C715 C721 1.429 . S
C716 C708 1.574 . S
C716 H711 0.949 . S
C716 C722 1.368 . S
C717 C701 1.349 . S
C717 H709 0.950 . S
C717 C715 1.327 . S
C718 C706 1.349 . S
C718 H712 0.950 . S
C718 C719 1.327 . S
C719 H713 0.950 . S
C719 C718 1.327 . S
C719 C723 1.429 . S
C720 C703 1.574 . S
C720 H714 0.949 . S
C720 C724 1.368 . S
C721 C702 1.429 . S
C721 C715 1.429 . S
C721 C722 1.523 . S
C722 C703 1.368 . S
C722 C716 1.368 . S
C722 C721 1.523 . S
C723 C707 1.429 . S
C723 C719 1.429 . S
C723 C724 1.523 . S
C724 C708 1.368 . S
C724 C720 1.368 . S
C724 C723 1.523 . S
H725 C700 0.950 . S
H726 C702 0.950 . S
H727 C703 0.949 . S
H728 C705 0.950 . S
H729 C707 0.950 . S
C730 C731 1.349 . S
C730 C732 1.327 . S
C730 H755 0.950 . S
C731 C730 1.349 . S
C731 C747 1.349 . S
C732 C730 1.327 . S
C732 C751 1.429 . S
C732 H756 0.950 . S
C733 C750 1.574 . S
C733 C752 1.368 . S
C733 H757 0.949 . S
H734 C738 0.949 . S
C735 C736 1.349 . S
C735 C737 1.327 . S
C735 H758 0.950 . S
C736 C735 1.349 . S
C736 C748 1.349 . S
C737 C735 1.327 . S
C737 C753 1.429 . S
C737 H759 0.950 . S
C738 H734 0.949 . S
C738 C746 1.574 . S
C738 C754 1.368 . S
H739 C747 0.950 . S
H740 C745 0.950 . S
H741 C746 0.949 . S
H742 C748 0.950 . S
H743 C749 0.950 . S
H744 C750 0.949 . S
C745 H740 0.950 . S
C745 C747 1.327 . S
C745 C751 1.429 . S
C746 C738 1.574 . S
C746 H741 0.949 . S
C746 C752 1.368 . S
C747 C731 1.349 . S
C747 H739 0.950 . S
C747 C745 1.327 . S
C748 C736 1.349 . S
C748 H742 0.950 . S
C748 C749 1.327 . S
C749 H743 0.950 . S
C749 C748 1.327 . S
C749 C753 1.429 . S
C750 C733 1.574 . S
C750 H744 0.949 . S
C750 C754 1.368 . S
C751 C732 1.429 . S
C751 C745 1.429 . S
C751 C752 1.523 . S
C752 C733 1.368 . S
C752 C746 1.368 . S
C752 C751 1.523 . S
C753 C737 1.429 . S
C753 C749 1.429 . S
C753 C754 1.523 . S
C754 C738 1.368 . S
C754 C750 1.368 . S
C754 C753 1.523 . S
H755 C730 0.950 . S
H756 C732 0.950 . S
H757 C733 0.949 . S
H758 C735 0.950 . S
H759 C737 0.950 . S
C760 C761 1.349 . S
C760 C762 1.327 . S
C760 H785 0.950 . S
C761 C760 1.349 . S
C761 C777 1.349 . S
C762 C760 1.327 . S
C762 C781 1.429 . S
C762 H786 0.950 . S
C763 C780 1.574 . S
C763 C782 1.368 . S
C763 H787 0.949 . S
H764 C768 0.949 . S
C765 C766 1.349 . S
C765 C767 1.327 . S
C765 H788 0.950 . S
C766 C765 1.349 . S
C766 C778 1.349 . S
C767 C765 1.327 . S
C767 C783 1.429 . S
C767 H789 0.950 . S
C768 H764 0.949 . S
C768 C776 1.574 . S
C768 C784 1.368 . S
H769 C777 0.950 . S
H770 C775 0.950 . S
H771 C776 0.949 . S
H772 C778 0.950 . S
H773 C779 0.950 . S
H774 C780 0.949 . S
C775 H770 0.950 . S
C775 C777 1.327 . S
C775 C781 1.429 . S
C776 C768 1.574 . S
C776 H771 0.949 . S
C776 C782 1.368 . S
C777 C761 1.349 . S
C777 H769 0.950 . S
C777 C775 1.327 . S
C778 C766 1.349 . S
C778 H772 0.950 . S
C778 C779 1.327 . S
C779 H773 0.950 . S
C779 C778 1.327 . S
C779 C783 1.429 . S
C780 C763 1.574 . S
C780 H774 0.949 . S
C780 C784 1.368 . S
C781 C762 1.429 . S
C781 C775 1.429 . S
C781 C782 1.523 . S
C782 C763 1.368 . S
C782 C776 1.368 . S
C782 C781 1.523 . S
C783 C767 1.429 . S
C783 C779 1.429 . S
C783 C784 1.523 . S
C784 C768 1.368 . S
C784 C780 1.368 . S
C784 C783 1.523 . S
H785 C760 0.950 . S
H786 C762 0.950 . S
H787 C763 0.949 . S
H788 C765 0.950 . S
H789 C767 0.950 . S
C790 C791 1.349 . S
C790 C792 1.327 . S
C790 H815 0.950 . S
C791 C790 1.349 . S
C791 C807 1.349 . S
C792 C790 1.327 . S
C792 C811 1.429 . S
C792 H816 0.950 . S
C793 C810 1.574 . S
C793 C812 1.368 . S
C793 H817 0.949 . S
H794 C798 0.949 . S
C795 C796 1.349 . S
C795 C797 1.327 . S
C795 H818 0.950 . S
C796 C795 1.349 . S
C796 C808 1.349 . S
C797 C795 1.327 . S
C797 C813 1.429 . S
C797 H819 0.950 . S
C798 H794 0.949 . S
C798 C806 1.574 . S
C798 C814 1.368 . S
H799 C807 0.950 . S
H800 C805 0.950 . S
H801 C806 0.949 . S
H802 C808 0.950 . S
H803 C809 0.950 . S
H804 C810 0.949 . S
C805 H800 0.950 . S
C805 C807 1.327 . S
C805 C811 1.429 . S
C806 C798 1.574 . S
C806 H801 0.949 . S
C806 C812 1.368 . S
C807 C791 1.349 . S
C807 H799 0.950 . S
C807 C805 1.327 . S
C808 C796 1.349 . S
C808 H802 0.950 . S
C808 C809 1.327 . S
C809 H803 0.950 . S
C809 C808 1.327 . S
C809 C813 1.429 . S
C810 C793 1.574 . S
C810 H804 0.949 . S
C810 C814 1.368 . S
C811 C792 1.429 . S
C811 C805 1.429 . S
C811 C812 1.523 . S
C812 C793 1.368 . S
C812 C806 1.368 . S
C812 C811 1.523 . S
C813 C797 1.429 . S
C813 C809 1.429 . S
C813 C814 1.523 . S
C814 C798 1.368 . S
C814 C810 1.368 . S
C814 C813 1.523 . S
H815 C790 0.950 . S
H816 C792 0.950 . S
H817 C793 0.949 . S
H818 C795 0.950 . S
H819 C797 0.950 . S
C820 C821 1.349 . S
C820 C822 1.327 . S
C820 H845 0.950 . S
C821 C820 1.349 . S
C821 C837 1.349 . S
C822 C820 1.327 . S
C822 C841 1.429 . S
C822 H846 0.950 . S
C823 C840 1.574 . S
C823 C842 1.368 . S
C823 H847 0.949 . S
H824 C828 0.949 . S
C825 C826 1.349 . S
C825 C827 1.327 . S
C825 H848 0.950 . S
C826 C825 1.349 . S
C826 C838 1.349 . S
C827 C825 1.327 . S
C827 C843 1.429 . S
C827 H849 0.950 . S
C828 H824 0.949 . S
C828 C836 1.574 . S
C828 C844 1.368 . S
H829 C837 0.950 . S
H830 C835 0.950 . S
H831 C836 0.949 . S
H832 C838 0.950 . S
H833 C839 0.950 . S
H834 C840 0.949 . S
C835 H830 0.950 . S
C835 C837 1.327 . S
C835 C841 1.429 . S
C836 C828 1.574 . S
C836 H831 0.949 . S
C836 C842 1.368 . S
C837 C821 1.349 . S
C837 H829 0.950 . S
C837 C835 1.327 . S
C838 C826 1.349 . S
C838 H832 0.950 . S
C838 C839 1.327 . S
C839 H833 0.950 . S
C839 C838 1.327 . S
C839 C843 1.429 . S
C840 C823 1.574 . S
C840 H834 0.949 . S
C840 C844 1.368 . S
C841 C822 1.429 . S
C841 C835 1.429 . S
C841 C842 1.523 . S
C842 C823 1.368 . S
C842 C836 1.368 . S
C842 C841 1.523 . S
C843 C827 1.429 . S
C843 C839 1.429 . S
C843 C844 1.523 . S
C844 C828 1.368 . S
C844 C840 1.368 . S
C844 C843 1.523 . S
H845 C820 0.950 . S
H846 C822 0.950 . S
H847 C823 0.949 . S
H848 C825 0.950 . S
H849 C827 0.950 . S
C850 C851 1.349 . S
C850 C852 1.327 . S
C850 H875 0.950 . S
C851 C850 1.349 . S
C851 C867 1.349 . S
C852 C850 1.327 . S
C852 C871 1.429 . S
C852 H876 0.950 . S
C853 C870 1.574 . S
C853 C872 1.368 . S
C853 H877 0.949 . S
H854 C858 0.949 . S
C855 C856 1.349 . S
C855 C857 1.327 . S
C855 H878 0.950 . S
C856 C855 1.349 . S
C856 C868 1.349 . S
C857 C855 1.327 . S
C857 C873 1.429 . S
C857 H879 0.950 . S
C858 H854 0.949 . S
C858 C866 1.574 . S
C858 C874 1.368 . S
H859 C867 0.950 . S
H860 C865 0.950 . S
H861 C866 0.949 . S
H862 C868 0.950 . S
H863 C869 0.950 . S
H864 C870 0.949 . S
C865 H860 0.950 . S
C865 C867 1.327 . S
C865 C871 1.429 . S
C866 C858 1.574 . S
C866 H861 0.949 . S
C866 C872 1.368 . S
C867 C851 1.349 . S
C867 H859 0.950 . S
C867 C865 1.327 . S
C868 C856 1.349 . S
C868 H862 0.950 . S
C868 C869 1.327 . S
C869 H863 0.950 . S
C869 C868 1.327 . S
C869 C873 1.429 . S
C870 C853 1.574 . S
C870 H864 0.949 . S
C870 C874 1.368 . S
C871 C852 1.429 . S
C871 C865 1.429 . S
C871 C872 1.523 . S
C872 C853 1.368 . S
C872 C866 1.368 . S
C872 C871 1.523 . S
C873 C857 1.429 . S
C873 C869 1.429 . S
C873 C874 1.523 . S
C874 C858 1.368 . S
C874 C870 1.368 . S
C874 C873 1.523 . S
H875 C850 0.950 . S
H876 C852 0.950 . S
H877 C853 0.949 . S
H878 C855 0.950 . S
H879 C857 0.950 . S
C880 C881 1.349 . S
C880 C882 1.327 . S
C880 H905 0.950 . S
C881 C880 1.349 . S
C881 C897 1.349 . S
C882 C880 1.327 . S
C882 C901 1.429 . S
C882 H906 0.950 . S
C883 C900 1.574 . S
C883 C902 1.368 . S
C883 H907 0.949 . S
H884 C888 0.949 . S
C885 C886 1.349 . S
C885 C887 1.327 . S
C885 H908 0.950 . S
C886 C885 1.349 . S
C886 C898 1.349 . S
C887 C885 1.327 . S
C887 C903 1.429 . S
C887 H909 0.950 . S
C888 H884 0.949 . S
C888 C896 1.574 . S
C888 C904 1.368 . S
H889 C897 0.950 . S
H890 C895 0.950 . S
H891 C896 0.949 . S
H892 C898 0.950 . S
H893 C899 0.950 . S
H894 C900 0.949 . S
C895 H890 0.950 . S
C895 C897 1.327 . S
C895 C901 1.429 . S
C896 C888 1.574 . S
C896 H891 0.949 . S
C896 C902 1.368 . S
C897 C881 1.349 . S
C897 H889 0.950 . S
C897 C895 1.327 . S
C898 C886 1.349 . S
C898 H892 0.950 . S
C898 C899 1.327 . S
C899 H893 0.950 . S
C899 C898 1.327 . S
C899 C903 1.429 . S
C900 C883 1.574 . S
C900 H894 0.949 . S
C900 C904 1.368 . S
C901 C882 1.429 . S
C901 C895 1.429 . S
C901 C902 1.523 . S
C902 C883 1.368 . S
C902 C896 1.368 . S
C902 C901 1.523 . S
C903 C887 1.429 . S
C903 C899 1.429 . S
C903 C904 1.523 . S
C904 C888 1.368 . S
C904 C900 1.368 . S
C904 C903 1.523 . S
H905 C880 0.950 . S
H906 C882 0.950 . S
H907 C883 0.949 . S
H908 C885 0.950 . S
H909 C887 0.950 . S
C910 C911 1.349 . S
C910 C912 1.327 . S
C910 H935 0.950 . S
C911 C910 1.349 . S
C911 C927 1.349 . S
C912 C910 1.327 . S
C912 C931 1.429 . S
C912 H936 0.950 . S
C913 C930 1.574 . S
C913 C932 1.368 . S
C913 H937 0.949 . S
H914 C918 0.949 . S
C915 C916 1.349 . S
C915 C917 1.327 . S
C915 H938 0.950 . S
C916 C915 1.349 . S
C916 C928 1.349 . S
C917 C915 1.327 . S
C917 C933 1.429 . S
C917 H939 0.950 . S
C918 H914 0.949 . S
C918 C926 1.574 . S
C918 C934 1.368 . S
H919 C927 0.950 . S
H920 C925 0.950 . S
H921 C926 0.949 . S
H922 C928 0.950 . S
H923 C929 0.950 . S
H924 C930 0.949 . S
C925 H920 0.950 . S
C925 C927 1.327 . S
C925 C931 1.429 . S
C926 C918 1.574 . S
C926 H921 0.949 . S
C926 C932 1.368 . S
C927 C911 1.349 . S
C927 H919 0.950 . S
C927 C925 1.327 . S
C928 C916 1.349 . S
C928 H922 0.950 . S
C928 C929 1.327 . S
C929 H923 0.950 . S
C929 C928 1.327 . S
C929 C933 1.429 . S
C930 C913 1.574 . S
C930 H924 0.949 . S
C930 C934 1.368 . S
C931 C912 1.429 . S
C931 C925 1.429 . S
C931 C932 1.523 . S
C932 C913 1.368 . S
C932 C926 1.368 . S
C932 C931 1.523 . S
C933 C917 1.429 . S
C933 C929 1.429 . S
C933 C934 1.523 . S
C934 C918 1.368 . S
C934 C930 1.368 . S
C934 C933 1.523 . S
H935 C910 0.950 . S
H936 C912 0.950 . S
H937 C913 0.949 . S
H938 C915 0.950 . S
H939 C917 0.950 . S
C940 C941 1.349 . S
C940 C942 1.327 . S
C940 H965 0.950 . S
C941 C940 1.349 . S
C941 C957 1.349 . S
C942 C940 1.327 . S
C942 C961 1.429 . S
C942 H966 0.950 . S
C943 C960 1.574 . S
C943 C962 1.368 . S
C943 H967 0.949 . S
H944 C948 0.949 . S
C945 C946 1.349 . S
C945 C947 1.327 . S
C945 H968 0.950 . S
C946 C945 1.349 . S
C946 C958 1.349 . S
C947 C945 1.327 . S
C947 C963 1.429 . S
C947 H969 0.950 . S
C948 H944 0.949 . S
C948 C956 1.574 . S
C948 C964 1.368 . S
H949 C957 0.950 . S
H950 C955 0.950 . S
H951 C956 0.949 . S
H952 C958 0.950 . S
H953 C959 0.950 . S
H954 C960 0.949 . S
C955 H950 0.950 . S
C955 C957 1.327 . S
C955 C961 1.429 . S
C956 C948 1.574 . S
C956 H951 0.949 . S
C956 C962 1.368 . S
C957 C941 1.349 . S
C957 H949 0.950 . S
C957 C955 1.327 . S
C958 C946 1.349 . S
C958 H952 0.950 . S
C958 C959 1.327 . S
C959 H953 0.950 . S
C959 C958 1.327 . S
C959 C963 1.429 . S
C960 C943 1.574 . S
C960 H954 0.949 . S
C960 C964 1.368 . S
C961 C942 1.429 . S
C961 C955 1.429 . S
C961 C962 1.523 . S
C962 C943 1.368 . S
C962 C956 1.368 . S
C962 C961 1.523 . S
C963 C947 1.429 . S
C963 C959 1.429 . S
C963 C964 1.523 . S
C964 C948 1.368 . S
C964 C960 1.368 . S
C964 C963 1.523 . S
H965 C940 0.950 . S
H966 C942 0.950 . S
H967 C943 0.949 . S
H968 C945 0.950 . S
H969 C947 0.950 . S
C970 C971 1.349 . S
C970 C972 1.327 . S
C970 H995 0.950 . S
C971 C970 1.349 . S
C971 C987 1.349 . S
C972 C970 1.327 . S
C972 C991 1.429 . S
C972 H996 0.950 . S
C973 C990 1.574 . S
C973 C992 1.368 . S
C973 H997 0.949 . S
H974 C978 0.949 . S
C975 C976 1.349 . S
C975 C977 1.327 . S
C975 H998 0.950 . S
C976 C975 1.349 . S
C976 C988 1.349 . S
C977 C975 1.327 . S
C977 C993 1.429 . S
C977 H999 0.950 . S
C978 H974 0.949 . S
C978 C986 1.574 . S
C978 C994 1.368 . S
H979 C987 0.950 . S
H980 C985 0.950 . S
H981 C986 0.949 . S
H982 C988 0.950 . S
H983 C989 0.950 . S
H984 C990 0.949 . S
C985 H980 0.950 . S
C985 C987 1.327 . S
C985 C991 1.429 . S
C986 C978 1.574 . S
C986 H981 0.949 . S
C986 C992 1.368 . S
C987 C971 1.349 . S
C987 H979 0.950 . S
C987 C985 1.327 . S
C988 C976 1.349 . S
C988 H982 0.950 . S
C988 C989 1.327 . S
C989 H983 0.950 . S
C989 C988 1.327 . S
C989 C993 1.429 . S
C990 C973 1.574 . S
C990 H984 0.949 . S
C990 C994 1.368 . S
C991 C972 1.429 . S
C991 C985 1.429 . S
C991 C992 1.523 . S
C992 C973 1.368 . S
C992 C986 1.368 . S
C992 C991 1.523 . S
C993 C977 1.429 . S
C993 C989 1.429 . S
C993 C994 1.523 . S
C994 C978 1.368 . S
C994 C990 1.368 . S
C994 C993 1.523 . S
H995 C970 0.950 . S
H996 C972 0.950 . S
H997 C973 0.949 . S
H998 C975 0.950 . S
H999 C977 0.950 . S
C1000 C1001 1.349 . S
C1000 C1002 1.327 . S
C1000 H1025 0.950 . S
C1001 C1000 1.349 . S
C1001 C1017 1.349 . S
C1002 C1000 1.327 . S
C1002 C1021 1.429 . S
C1002 H1026 0.950 . S
C1003 C1020 1.574 . S
C1003 C1022 1.368 . S
C1003 H1027 0.949 . S
H1004 C1008 0.949 . S
C1005 C1006 1.349 . S
C1005 C1007 1.327 . S
C1005 H1028 0.950 . S
C1006 C1005 1.349 . S
C1006 C1018 1.349 . S
C1007 C1005 1.327 . S
C1007 C1023 1.429 . S
C1007 H1029 0.950 . S
C1008 H1004 0.949 . S
C1008 C1016 1.574 . S
C1008 C1024 1.368 . S
H1009 C1017 0.950 . S
H1010 C1015 0.950 . S
H1011 C1016 0.949 . S
H1012 C1018 0.950 . S
H1013 C1019 0.950 . S
H1014 C1020 0.949 . S
C1015 H1010 0.950 . S
C1015 C1017 1.327 . S
C1015 C1021 1.429 . S
C1016 C1008 1.574 . S
C1016 H1011 0.949 . S
C1016 C1022 1.368 . S
C1017 C1001 1.349 . S
C1017 H1009 0.950 . S
C1017 C1015 1.327 . S
C1018 C1006 1.349 . S
C1018 H1012 0.950 . S
C1018 C1019 1.327 . S
C1019 H1013 0.950 . S
C1019 C1018 1.327 . S
C1019 C1023 1.429 . S
C1020 C1003 1.574 . S
C1020 H1014 0.949 . S
C1020 C1024 1.368 . S
C1021 C1002 1.429 . S
C1021 C1015 1.429 . S
C1021 C1022 1.523 . S
C1022 C1003 1.368 . S
C1022 C1016 1.368 . S
C1022 C1021 1.523 . S
C1023 C1007 1.429 . S
C1023 C1019 1.429 . S
C1023 C1024 1.523 . S
C1024 C1008 1.368 . S
C1024 C1020 1.368 . S
C1024 C1023 1.523 . S
H1025 C1000 0.950 . S
H1026 C1002 0.950 . S
H1027 C1003 0.949 . S
H1028 C1005 0.950 . S
H1029 C1007 0.950 . S
C1030 C1031 1.349 . S
C1030 C1032 1.327 . S
C1030 H1055 0.950 . S
C1031 C1030 1.349 . S
C1031 C1047 1.349 . S
C1032 C1030 1.327 . S
C1032 C1051 1.429 . S
C1032 H1056 0.950 . S
C1033 C1050 1.574 . S
C1033 C1052 1.368 . S
C1033 H1057 0.949 . S
H1034 C1038 0.949 . S
C1035 C1036 1.349 . S
C1035 C1037 1.327 . S
C1035 H1058 0.950 . S
C1036 C1035 1.349 . S
C1036 C1048 1.349 . S
C1037 C1035 1.327 . S
C1037 C1053 1.429 . S
C1037 H1059 0.950 . S
C1038 H1034 0.949 . S
C1038 C1046 1.574 . S
C1038 C1054 1.368 . S
H1039 C1047 0.950 . S
H1040 C1045 0.950 . S
H1041 C1046 0.949 . S
H1042 C1048 0.950 . S
H1043 C1049 0.950 . S
H1044 C1050 0.949 . S
C1045 H1040 0.950 . S
C1045 C1047 1.327 . S
C1045 C1051 1.429 . S
C1046 C1038 1.574 . S
C1046 H1041 0.949 . S
C1046 C1052 1.368 . S
C1047 C1031 1.349 . S
C1047 H1039 0.950 . S
C1047 C1045 1.327 . S
C1048 C1036 1.349 . S
C1048 H1042 0.950 . S
C1048 C1049 1.327 . S
C1049 H1043 0.950 . S
C1049 C1048 1.327 . S
C1049 C1053 1.429 . S
C1050 C1033 1.574 . S
C1050 H1044 0.949 . S
C1050 C1054 1.368 . S
C1051 C1032 1.429 . S
C1051 C1045 1.429 . S
C1051 C1052 1.523 . S
C1052 C1033 1.368 . S
C1052 C1046 1.368 . S
C1052 C1051 1.523 . S
C1053 C1037 1.429 . S
C1053 C1049 1.429 . S
C1053 C1054 1.523 . S
C1054 C1038 1.368 . S
C1054 C1050 1.368 . S
C1054 C1053 1.523 . S
H1055 C1030 0.950 . S
H1056 C1032 0.950 . S
H1057 C1033 0.949 . S
H1058 C1035 0.950 . S
H1059 C1037 0.950 . S
C1060 C1061 1.349 . S
C1060 C1062 1.327 . S
C1060 H1085 0.950 . S
C1061 C1060 1.349 . S
C1061 C1077 1.349 . S
C1062 C1060 1.327 . S
C1062 C1081 1.429 . S
C1062 H1086 0.950 . S
C1063 C1080 1.574 . S
C1063 C1082 1.368 . S
C1063 H1087 0.949 . S
H1064 C1068 0.949 . S
C1065 C1066 1.349 . S
C1065 C1067 1.327 . S
C1065 H1088 0.950 . S
C1066 C1065 1.349 . S
C1066 C1078 1.349 . S
C1067 C1065 1.327 . S
C1067 C1083 1.429 . S
C1067 H1089 0.950 . S
C1068 H1064 0.949 . S
C1068 C1076 1.574 . S
C1068 C1084 1.368 . S
H1069 C1077 0.950 . S
H1070 C1075 0.950 . S
H1071 C1076 0.949 . S
H1072 C1078 0.950 . S
H1073 C1079 0.950 . S
H1074 C1080 0.949 . S
C1075 H1070 0.950 . S
C1075 C1077 1.327 . S
C1075 C1081 1.429 . S
C1076 C1068 1.574 . S
C1076 H1071 0.949 . S
C1076 C1082 1.368 . S
C1077 C1061 1.349 . S
C1077 H1069 0.950 . S
C1077 C1075 1.327 . S
C1078 C1066 1.349 . S
C1078 H1072 0.950 . S
C1078 C1079 1.327 . S
C1079 H1073 0.950 . S
C1079 C1078 1.327 . S
C1079 C1083 1.429 . S
C1080 C1063 1.574 . S
C1080 H1074 0.949 . S
C1080 C1084 1.368 . S
C1081 C1062 1.429 . S
C1081 C1075 1.429 . S
C1081 C1082 1.523 . S
C1082 C1063 1.368 . S
C1082 C1076 1.368 . S
C1082 C1081 1.523 . S
C1083 C1067 1.429 . S
C1083 C1079 1.429 . S
C1083 C1084 1.523 . S
C1084 C1068 1.368 . S
C1084 C1080 1.368 . S
C1084 C1083 1.523 . S
H1085 C1060 0.950 . S
H1086 C1062 0.950 . S
H1087 C1063 0.949 . S
H1088 C1065 0.950 . S
H1089 C1067 0.950 . S
C1090 C1091 1.349 . S
C1090 C1092 1.327 . S
C1090 H1115 0.950 . S
C1091 C1090 1.349 . S
C1091 C1107 1.349 . S
C1092 C1090 1.327 . S
C1092 C1111 1.429 . S
C1092 H1116 0.950 . S
C1093 C1110 1.574 . S
C1093 C1112 1.368 . S
C1093 H1117 0.949 . S
H1094 C1098 0.949 . S
C1095 C1096 1.349 . S
C1095 C1097 1.327 . S
C1095 H1118 0.950 . S
C1096 C1095 1.349 . S
C1096 C1108 1.349 . S
C1097 C1095 1.327 . S
C1097 C1113 1.429 . S
C1097 H1119 0.950 . S
C1098 H1094 0.949 . S
C1098 C1106 1.574 . S
C1098 C1114 1.368 . S
H1099 C1107 0.950 . S
H1100 C1105 0.950 . S
H1101 C1106 0.949 . S
H1102 C1108 0.950 . S
H1103 C1109 0.950 . S
H1104 C1110 0.949 . S
C1105 H1100 0.950 . S
C1105 C1107 1.327 . S
C1105 C1111 1.429 . S
C1106 C1098 1.574 . S
C1106 H1101 0.949 . S
C1106 C1112 1.368 . S
C1107 C1091 1.349 . S
C1107 H1099 0.950 . S
C1107 C1105 1.327 . S
C1108 C1096 1.349 . S
C1108 H1102 0.950 . S
C1108 C1109 1.327 . S
C1109 H1103 0.950 . S
C1109 C1108 1.327 . S
C1109 C1113 1.429 . S
C1110 C1093 1.574 . S
C1110 H1104 0.949 . S
C1110 C1114 1.368 . S
C1111 C1092 1.429 . S
C1111 C1105 1.429 . S
C1111 C1112 1.523 . S
C1112 C1093 1.368 . S
C1112 C1106 1.368 . S
C1112 C1111 1.523 . S
C1113 C1097 1.429 . S
C1113 C1109 1.429 . S
C1113 C1114 1.523 . S
C1114 C1098 1.368 . S
C1114 C1110 1.368 . S
C1114 C1113 1.523 . S
H1115 C1090 0.950 . S
H1116 C1092 0.950 . S
H1117 C1093 0.949 . S
H1118 C1095 0.950 . S
H1119 C1097 0.950 . S
C1120 C1121 1.349 . S
C1120 C1122 1.327 . S
C1120 H1145 0.950 . S
C1121 C1120 1.349 . S
C1121 C1137 1.349 . S
C1122 C1120 1.327 . S
C1122 C1141 1.429 . S
C1122 H1146 0.950 . S
C1123 C1140 1.574 . S
C1123 C1142 1.368 . S
C1123 H1147 0.949 . S
H1124 C1128 0.949 . S
C1125 C1126 1.349 . S
C1125 C1127 1.327 . S
C1125 H1148 0.950 . S
C1126 C1125 1.349 . S
C1126 C1138 1.349 . S
C1127 C1125 1.327 . S
C1127 C1143 1.429 . S
C1127 H1149 0.950 . S
C1128 H1124 0.949 . S
C1128 C1136 1.574 . S
C1128 C1144 1.368 . S
H1129 C1137 0.950 . S
H1130 C1135 0.950 . S
H1131 C1136 0.949 . S
H1132 C1138 0.950 . S
H1133 C1139 0.950 . S
H1134 C1140 0.949 . S
C1135 H1130 0.950 . S
C1135 C1137 1.327 . S
C1135 C1141 1.429 . S
C1136 C1128 1.574 . S
C1136 H1131 0.949 . S
C1136 C1142 1.368 . S
C1137 C1121 1.349 . S
C1137 H1129 0.950 . S
C1137 C1135 1.327 . S
C1138 C1126 1.349 . S
C1138 H1132 0.950 . S
C1138 C1139 1.327 . S
C1139 H1133 0.950 . S
C1139 C1138 1.327 . S
C1139 C1143 1.429 . S
C1140 C1123 1.574 . S
C1140 H1134 0.949 . S
C1140 C1144 1.368 . S
C1141 C1122 1.429 . S
C1141 C1135 1.429 . S
C1141 C1142 1.523 . S
C1142 C1123 1.368 . S
C1142 C1136 1.368 . S
C1142 C1141 1.523 . S
C1143 C1127 1.429 . S
C1143 C1139 1.429 . S
C1143 C1144 1.523 . S
C1144 C1128 1.368 . S
C1144 C1140 1.368 . S
C1144 C1143 1.523 . S
H1145 C1120 0.950 . S
H1146 C1122 0.950 . S
H1147 C1123 0.949 . S
H1148 C1125 0.950 . S
H1149 C1127 0.950 . S
C1150 C1151 1.349 . S
C1150 C1152 1.327 . S
C1150 H1175 0.950 . S
C1151 C1150 1.349 . S
C1151 C1167 1.349 . S
C1152 C1150 1.327 . S
C1152 C1171 1.429 . S
C1152 H1176 0.950 . S
C1153 C1170 1.574 . S
C1153 C1172 1.368 . S
C1153 H1177 0.949 . S
H1154 C1158 0.949 . S
C1155 C1156 1.349 . S
C1155 C1157 1.327 . S
C1155 H1178 0.950 . S
C1156 C1155 1.349 . S
C1156 C1168 1.349 . S
C1157 C1155 1.327 . S
C1157 C1173 1.429 . S
C1157 H1179 0.950 . S
C1158 H1154 0.949 . S
C1158 C1166 1.574 . S
C1158 C1174 1.368 . S
H1159 C1167 0.950 . S
H1160 C1165 0.950 . S
H1161 C1166 0.949 . S
H1162 C1168 0.950 . S
H1163 C1169 0.950 . S
H1164 C1170 0.949 . S
C1165 H1160 0.950 . S
C1165 C1167 1.327 . S
C1165 C1171 1.429 . S
C1166 C1158 1.574 . S
C1166 H1161 0.949 . S
C1166 C1172 1.368 . S
C1167 C1151 1.349 . S
C1167 H1159 0.950 . S
C1167 C1165 1.327 . S
C1168 C1156 1.349 . S
C1168 H1162 0.950 . S
C1168 C1169 1.327 . S
C1169 H1163 0.950 . S
C1169 C1168 1.327 . S
C1169 C1173 1.429 . S
C1170 C1153 1.574 . S
C1170 H1164 0.949 . S
C1170 C1174 1.368 . S
C1171 C1152 1.429 . S
C1171 C1165 1.429 . S
C1171 C1172 1.523 . S
C1172 C1153 1.368 . S
C1172 C1166 1.368 . S
C1172 C1171 1.523 . S
C1173 C1157 1.429 . S
C1173 C1169 1.429 . S
C1173 C1174 1.523 . S
C1174 C1158 1.368 . S
C1174 C1170 1.368 . S
C1174 C1173 1.523 . S
H1175 C1150 0.950 . S
H1176 C1152 0.950 . S
H1177 C1153 0.949 . S
H1178 C1155 0.950 . S
H1179 C1157 0.950 . S
C1180 C1181 1.349 . S
C1180 C1182 1.327 . S
C1180 H1205 0.950 . S
C1181 C1180 1.349 . S
C1181 C1197 1.349 . S
C1182 C1180 1.327 . S
C1182 C1201 1.429 . S
C1182 H1206 0.950 . S
C1183 C1200 1.574 . S
C1183 C1202 1.368 . S
C1183 H1207 0.949 . S
H1184 C1188 0.949 . S
C1185 C1186 1.349 . S
C1185 C1187 1.327 . S
C1185 H1208 0.950 . S
C1186 C1185 1.349 . S
C1186 C1198 1.349 . S
C1187 C1185 1.327 . S
C1187 C1203 1.429 . S
C1187 H1209 0.950 . S
C1188 H1184 0.949 . S
C1188 C1196 1.574 . S
C1188 C1204 1.368 . S
H1189 C1197 0.950 . S
H1190 C1195 0.950 . S
H1191 C1196 0.949 . S
H1192 C1198 0.950 . S
H1193 C1199 0.950 . S
H1194 C1200 0.949 . S
C1195 H1190 0.950 . S
C1195 C1197 1.327 . S
C1195 C1201 1.429 . S
C1196 C1188 1.574 . S
C1196 H1191 0.949 . S
C1196 C1202 1.368 . S
C1197 C1181 1.349 . S
C1197 H1189 0.950 . S
C1197 C1195 1.327 . S
C1198 C1186 1.349 . S
C1198 H1192 0.950 . S
C1198 C1199 1.327 . S
C1199 H1193 0.950 . S
C1199 C1198 1.327 . S
C1199 C1203 1.429 . S
C1200 C1183 1.574 . S
C1200 H1194 0.949 . S
C1200 C1204 1.368 . S
C1201 C1182 1.429 . S
C1201 C1195 1.429 . S
C1201 C1202 1.523 . S
C1202 C1183 1.368 . S
C1202 C1196 1.368 . S
C1202 C1201 1.523 . S
C1203 C1187 1.429 . S
C1203 C1199 1.429 . S
C1203 C1204 1.523 . S
C1204 C1188 1.368 . S
C1204 C1200 1.368 . S
C1204 C1203 1.523 . S
H1205 C1180 0.950 . S
H1206 C1182 0.950 . S
H1207 C1183 0.949 . S
H1208 C1185 0.950 . S
H1209 C1187 0.950 . S
C1210 C1211 1.349 . S
C1210 C1212 1.327 . S
C1210 H1235 0.950 . S
C1211 C1210 1.349 . S
C1211 C1227 1.349 . S
C1212 C1210 1.327 . S
C1212 C1231 1.429 . S
C1212 H1236 0.950 . S
C1213 C1230 1.574 . S
C1213 C1232 1.368 . S
C1213 H1237 0.949 . S
H1214 C1218 0.949 . S
C1215 C1216 1.349 . S
C1215 C1217 1.327 . S
C1215 H1238 0.950 . S
C1216 C1215 1.349 . S
C1216 C1228 1.349 . S
C1217 C1215 1.327 . S
C1217 C1233 1.429 . S
C1217 H1239 0.950 . S
C1218 H1214 0.949 . S
C1218 C1226 1.574 . S
C1218 C1234 1.368 . S
H1219 C1227 0.950 . S
H1220 C1225 0.950 . S
H1221 C1226 0.949 . S
H1222 C1228 0.950 . S
H1223 C1229 0.950 . S
H1224 C1230 0.949 . S
C1225 H1220 0.950 . S
C1225 C1227 1.327 . S
C1225 C1231 1.429 . S
C1226 C1218 1.574 . S
C1226 H1221 0.949 . S
C1226 C1232 1.368 . S
C1227 C1211 1.349 . S
C1227 H1219 0.950 . S
C1227 C1225 1.327 . S
C1228 C1216 1.349 . S
C1228 H1222 0.950 . S
C1228 C1229 1.327 . S
C1229 H1223 0.950 . S
C1229 C1228 1.327 . S
C1229 C1233 1.429 . S
C1230 C1213 1.574 . S
C1230 H1224 0.949 . S
C1230 C1234 1.368 . S
C1231 C1212 1.429 . S
C1231 C1225 1.429 . S
C1231 C1232 1.523 . S
C1232 C1213 1.368 . S
C1232 C1226 1.368 . S
C1232 C1231 1.523 . S
C1233 C1217 1.429 . S
C1233 C1229 1.429 . S
C1233 C1234 1.523 . S
C1234 C1218 1.368 . S
C1234 C1230 1.368 . S
C1234 C1233 1.523 . S
H1235 C1210 0.950 . S
H1236 C1212 0.950 . S
H1237 C1213 0.949 . S
H1238 C1215 0.950 . S
H1239 C1217 0.950 . S
C1240 C1241 1.349 . S
C1240 C1242 1.327 . S
C1240 H1265 0.950 . S
C1241 C1240 1.349 . S
C1241 C1257 1.349 . S
C1242 C1240 1.327 . S
C1242 C1261 1.429 . S
C1242 H1266 0.950 . S
C1243 C1260 1.574 . S
C1243 C1262 1.368 . S
C1243 H1267 0.949 . S
H1244 C1248 0.949 . S
C1245 C1246 1.349 . S
C1245 C1247 1.327 . S
C1245 H1268 0.950 . S
C1246 C1245 1.349 . S
C1246 C1258 1.349 . S
C1247 C1245 1.327 . S
C1247 C1263 1.429 . S
C1247 H1269 0.950 . S
C1248 H1244 0.949 . S
C1248 C1256 1.574 . S
C1248 C1264 1.368 . S
H1249 C1257 0.950 . S
H1250 C1255 0.950 . S
H1251 C1256 0.949 . S
H1252 C1258 0.950 . S
H1253 C1259 0.950 . S
H1254 C1260 0.949 . S
C1255 H1250 0.950 . S
C1255 C1257 1.327 . S
C1255 C1261 1.429 . S
C1256 C1248 1.574 . S
C1256 H1251 0.949 . S
C1256 C1262 1.368 . S
C1257 C1241 1.349 . S
C1257 H1249 0.950 . S
C1257 C1255 1.327 . S
C1258 C1246 1.349 . S
C1258 H1252 0.950 . S
C1258 C1259 1.327 . S
C1259 H1253 0.950 . S
C1259 C1258 1.327 . S
C1259 C1263 1.429 . S
C1260 C1243 1.574 . S
C1260 H1254 0.949 . S
C1260 C1264 1.368 . S
C1261 C1242 1.429 . S
C1261 C1255 1.429 . S
C1261 C1262 1.523 . S
C1262 C1243 1.368 . S
C1262 C1256 1.368 . S
C1262 C1261 1.523 . S
C1263 C1247 1.429 . S
C1263 C1259 1.429 . S
C1263 C1264 1.523 . S
C1264 C1248 1.368 . S
C1264 C1260 1.368 . S
C1264 C1263 1.523 . S
H1265 C1240 0.950 . S
H1266 C1242 0.950 . S
H1267 C1243 0.949 . S
H1268 C1245 0.950 . S
H1269 C1247 0.950 . S
C1270 C1271 1.349 . S
C1270 C1272 1.327 . S
C1270 H1295 0.950 . S
C1271 C1270 1.349 . S
C1271 C1287 1.349 . S
C1272 C1270 1.327 . S
C1272 C1291 1.429 . S
C1272 H1296 0.950 . S
C1273 C1290 1.574 . S
C1273 C1292 1.368 . S
C1273 H1297 0.949 . S
H1274 C1278 0.949 . S
C1275 C1276 1.349 . S
C1275 C1277 1.327 . S
C1275 H1298 0.950 . S
C1276 C1275 1.349 . S
C1276 C1288 1.349 . S
C1277 C1275 1.327 . S
C1277 C1293 1.429 . S
C1277 H1299 0.950 . S
C1278 H1274 0.949 . S
C1278 C1286 1.574 . S
C1278 C1294 1.368 . S
H1279 C1287 0.950 . S
H1280 C1285 0.950 . S
H1281 C1286 0.949 . S
H1282 C1288 0.950 . S
H1283 C1289 0.950 . S
H1284 C1290 0.949 . S
C1285 H1280 0.950 . S
C1285 C1287 1.327 . S
C1285 C1291 1.429 . S
C1286 C1278 1.574 . S
C1286 H1281 0.949 . S
C1286 C1292 1.368 . S
C1287 C1271 1.349 . S
C1287 H1279 0.950 . S
C1287 C1285 1.327 . S
C1288 C1276 1.349 . S
C1288 H1282 0.950 . S
C1288 C1289 1.327 . S
C1289 H1283 0.950 . S
C1289 C1288 1.327 . S
C1289 C1293 1.429 . S
C1290 C1273 1.574 . S
C1290 H1284 0.949 . S
C1290 C1294 1.368 . S
C1291 C1272 1.429 . S
C1291 C1285 1.429 . S
C1291 C1292 1.523 . S
C1292 C1273 1.368 . S
C1292 C1286 1.368 . S
C1292 C1291 1.523 . S
C1293 C1277 1.429 . S
C1293 C1289 1.429 . S
C1293 C1294 1.523 . S
C1294 C1278 1.368 . S
C1294 C1290 1.368 . S
C1294 C1293 1.523 . S
H1295 C1270 0.950 . S
H1296 C1272 0.950 . S
H1297 C1273 0.949 . S
H1298 C1275 0.950 . S
H1299 C1277 0.950 . S
C1300 C1301 1.349 . S
C1300 C1302 1.327 . S
C1300 H1325 0.950 . S
C1301 C1300 1.349 . S
C1301 C1317 1.349 . S
C1302 C1300 1.327 . S
C1302 C1321 1.429 . S
C1302 H1326 0.950 . S
C1303 C1320 1.574 . S
C1303 C1322 1.368 . S
C1303 H1327 0.949 . S
H1304 C1308 0.949 . S
C1305 C1306 1.349 . S
C1305 C1307 1.327 . S
C1305 H1328 0.950 . S
C1306 C1305 1.349 . S
C1306 C1318 1.349 . S
C1307 C1305 1.327 . S
C1307 C1323 1.429 . S
C1307 H1329 0.950 . S
C1308 H1304 0.949 . S
C1308 C1316 1.574 . S
C1308 C1324 1.368 . S
H1309 C1317 0.950 . S
H1310 C1315 0.950 . S
H1311 C1316 0.949 . S
H1312 C1318 0.950 . S
H1313 C1319 0.950 . S
H1314 C1320 0.949 . S
C1315 H1310 0.950 . S
C1315 C1317 1.327 . S
C1315 C1321 1.429 . S
C1316 C1308 1.574 . S
C1316 H1311 0.949 . S
C1316 C1322 1.368 . S
C1317 C1301 1.349 . S
C1317 H1309 0.950 . S
C1317 C1315 1.327 . S
C1318 C1306 1.349 . S
C1318 H1312 0.950 . S
C1318 C1319 1.327 . S
C1319 H1313 0.950 . S
C1319 C1318 1.327 . S
C1319 C1323 1.429 . S
C1320 C1303 1.574 . S
C1320 H1314 0.949 . S
C1320 C1324 1.368 . S
C1321 C1302 1.429 . S
C1321 C1315 1.429 . S
C1321 C1322 1.523 . S
C1322 C1303 1.368 . S
C1322 C1316 1.368 . S
C1322 C1321 1.523 . S
C1323 C1307 1.429 . S
C1323 C1319 1.429 . S
C1323 C1324 1.523 . S
C1324 C1308 1.368 . S
C1324 C1320 1.368 . S
C1324 C1323 1.523 . S
H1325 C1300 0.950 . S
H1326 C1302 0.950 . S
H1327 C1303 0.949 . S
H1328 C1305 0.950 . S
H1329 C1307 0.950 . S
C1330 C1331 1.349 . S
C1330 C1332 1.327 . S
C1330 H1355 0.950 . S
C1331 C1330 1.349 . S
C1331 C1347 1.349 . S
C1332 C1330 1.327 . S
C1332 C1351 1.429 . S
C1332 H1356 0.950 . S
C1333 C1350 1.574 . S
C1333 C1352 1.368 . S
C1333 H1357 0.949 . S
H1334 C1338 0.949 . S
C1335 C1336 1.349 . S
C1335 C1337 1.327 . S
C1335 H1358 0.950 . S
C1336 C1335 1.349 . S
C1336 C1348 1.349 . S
C1337 C1335 1.327 . S
C1337 C1353 1.429 . S
C1337 H1359 0.950 . S
C1338 H1334 0.949 . S
C1338 C1346 1.574 . S
C1338 C1354 1.368 . S
H1339 C1347 0.950 . S
H1340 C1345 0.950 . S
H1341 C1346 0.949 . S
H1342 C1348 0.950 . S
H1343 C1349 0.950 . S
H1344 C1350 0.949 . S
C1345 H1340 0.950 . S
C1345 C1347 1.327 . S
C1345 C1351 1.429 . S
C1346 C1338 1.574 . S
C1346 H1341 0.949 . S
C1346 C1352 1.368 . S
C1347 C1331 1.349 . S
C1347 H1339 0.950 . S
C1347 C1345 1.327 . S
C1348 C1336 1.349 . S
C1348 H1342 0.950 . S
C1348 C1349 1.327 . S
C1349 H1343 0.950 . S
C1349 C1348 1.327 . S
C1349 C1353 1.429 . S
C1350 C1333 1.574 . S
C1350 H1344 0.949 . S
C1350 C1354 1.368 . S
C1351 C1332 1.429 . S
C1351 C1345 1.429 . S
C1351 C1352 1.523 . S
C1352 C1333 1.368 . S
C1352 C1346 1.368 . S
C1352 C1351 1.523 . S
C1353 C1337 1.429 . S
C1353 C1349 1.429 . S
C1353 C1354 1.523 . S
C1354 C1338 1.368 . S
C1354 C1350 1.368 . S
C1354 C1353 1.523 . S
H1355 C1330 0.950 . S
H1356 C1332 0.950 . S
H1357 C1333 0.949 . S
H1358 C1335 0.950 . S
H1359 C1337 0.950 . S
C641 C1 1.156 . S
C646 C486 1.244 . S
C671 C80 0.912 . S
C676 C535 0.934 . S
C706 C570 2.449 . S
C701 C140 2.444 . S
C731 C211 2.298 . S
C736 C609 2.273 . S
C766 C530 2.490 . S
C761 C31 2.290 . S
C796 C489 0.883 . S
C791 C61 0.886 . S
C826 C619 1.873 . S
C821 C151 1.888 . S
C856 C578 1.525 . S
C851 C200 1.531 . S
C881 C20 1.672 . S
C886 C606 1.756 . S
C916 C538 2.314 . S
C911 C121 2.377 . S
C941 C181 2.298 . S
C946 C499 2.331 . S
C971 C91 0.719 . S
C976 C575 0.719 . S
C1006 C495 1.244 . S
C1001 C260 1.181 . S
C1031 C320 0.912 . S
C1036 C526 0.930 . S
C1061 C361 2.443 . S
C1066 C579 2.449 . S
C1091 C451 2.298 . S
C1096 C618 2.277 . S
C1121 C271 2.349 . S
C1126 C539 2.491 . S
C1156 C498 0.883 . S
C1151 C301 0.886 . S
C1186 C610 1.873 . S
C1181 C380 1.874 . S
C1216 C569 1.525 . S
C1211 C440 1.531 . S
C1241 C241 1.619 . S
C1246 C615 1.759 . S
C1276 C529 2.314 . S
C1271 C391 2.370 . S
C1306 C490 2.331 . S
C1301 C421 2.298 . S
C1331 C331 0.719 . S
C1336 C566 0.719 . S
