# Generated by pormake.
# Topology nom, (4,4)-cn, num edge types: 1
# Building blocks:
#     Node 0, Type 0, BuildingBlock: NAWXER_clean_linker_0, # of connection points: 4
#     Node 1, Type 0, BuildingBlock: NAWXER_clean_linker_0, # of connection points: 4
#     Node 2, Type 0, BuildingBlock: NAWXER_clean_linker_0, # of connection points: 4
#     Node 3, Type 0, BuildingBlock: NAWXER_clean_linker_0, # of connection points: 4
#     Node 4, Type 0, BuildingBlock: NAWXER_clean_linker_0, # of connection points: 4
#     Node 5, Type 0, BuildingBlock: NAWXER_clean_linker_0, # of connection points: 4
#     Node 6, Type 1, BuildingBlock: QUQFOY_clean_sbu_1, # of connection points: 4
#     Node 7, Type 1, BuildingBlock: QUQFOY_clean_sbu_1, # of connection points: 4
#     Node 8, Type 1, BuildingBlock: QUQFOY_clean_sbu_1, # of connection points: 4
#     Node 9, Type 1, BuildingBlock: QUQFOY_clean_sbu_1, # of connection points: 4
#     Node 10, Type 1, BuildingBlock: QUQFOY_clean_sbu_1, # of connection points: 4
#     Node 11, Type 1, BuildingBlock: QUQFOY_clean_sbu_1, # of connection points: 4
#     Edge 12, Type (0, 1), BuildingBlock: AJUNOK_clean_linker_0, # of connection points: 2
#     Edge 13, Type (0, 1), BuildingBlock: AJUNOK_clean_linker_0, # of connection points: 2
#     Edge 14, Type (0, 1), BuildingBlock: AJUNOK_clean_linker_0, # of connection points: 2
#     Edge 15, Type (0, 1), BuildingBlock: AJUNOK_clean_linker_0, # of connection points: 2
#     Edge 16, Type (0, 1), BuildingBlock: AJUNOK_clean_linker_0, # of connection points: 2
#     Edge 17, Type (0, 1), BuildingBlock: AJUNOK_clean_linker_0, # of connection points: 2
#     Edge 18, Type (0, 1), BuildingBlock: AJUNOK_clean_linker_0, # of connection points: 2
#     Edge 19, Type (0, 1), BuildingBlock: AJUNOK_clean_linker_0, # of connection points: 2
#     Edge 20, Type (0, 1), BuildingBlock: AJUNOK_clean_linker_0, # of connection points: 2
#     Edge 21, Type (0, 1), BuildingBlock: AJUNOK_clean_linker_0, # of connection points: 2
#     Edge 22, Type (0, 1), BuildingBlock: AJUNOK_clean_linker_0, # of connection points: 2
#     Edge 23, Type (0, 1), BuildingBlock: AJUNOK_clean_linker_0, # of connection points: 2
#     Edge 24, Type (0, 1), BuildingBlock: AJUNOK_clean_linker_0, # of connection points: 2
#     Edge 25, Type (0, 1), BuildingBlock: AJUNOK_clean_linker_0, # of connection points: 2
#     Edge 26, Type (0, 1), BuildingBlock: AJUNOK_clean_linker_0, # of connection points: 2
#     Edge 27, Type (0, 1), BuildingBlock: AJUNOK_clean_linker_0, # of connection points: 2
#     Edge 28, Type (0, 1), BuildingBlock: AJUNOK_clean_linker_0, # of connection points: 2
#     Edge 29, Type (0, 1), BuildingBlock: AJUNOK_clean_linker_0, # of connection points: 2
#     Edge 30, Type (0, 1), BuildingBlock: AJUNOK_clean_linker_0, # of connection points: 2
#     Edge 31, Type (0, 1), BuildingBlock: AJUNOK_clean_linker_0, # of connection points: 2
#     Edge 32, Type (0, 1), BuildingBlock: AJUNOK_clean_linker_0, # of connection points: 2
#     Edge 33, Type (0, 1), BuildingBlock: AJUNOK_clean_linker_0, # of connection points: 2
#     Edge 34, Type (0, 1), BuildingBlock: AJUNOK_clean_linker_0, # of connection points: 2
#     Edge 35, Type (0, 1), BuildingBlock: AJUNOK_clean_linker_0, # of connection points: 2
# Relax obj value: 0.026
# Max RMSD: 0.136
# Mean RMSD: 0.125
data_MOF--net-nom--node1-QUQFOY_clean_sbu_1--node2-NAWXER_clean_linker_0--edge1-AJUNOK_clean_linker_0
_symmetry_space_group_name_H-M    P1
_symmetry_Int_Tables_number       1
_symmetry_cell_setting            triclinic
loop_
_symmetry_equiv_pos_as_xyz
'x, y, z'
_cell_length_a     42.957975
_cell_length_b     42.917717
_cell_length_c     42.911638
_cell_angle_alpha  89.890848
_cell_angle_beta   90.069436
_cell_angle_gamma 120.0225
loop_
_atom_site_label
_atom_site_type_symbol
_atom_site_fract_x
_atom_site_fract_y
_atom_site_fract_z
_atom_type_partial_charge
C0 C 0.89366 0.49746 0.35044 0.0
C1 C 0.87772 0.47015 0.37295 0.0
C2 C 0.92756 0.50744 0.3385 0.0
C3 C 0.94615 0.49013 0.34865 0.0
C4 C 0.89621 0.45272 0.38316 0.0
C5 C 0.93046 0.46299 0.37136 0.0
C6 C 0.98238 0.5015 0.33607 0.0
C7 C 0.9035 0.44194 0.26035 0.0
C8 C 0.90621 0.46273 0.23408 0.0
C9 C 0.93057 0.45531 0.28292 0.0
C10 C 0.96071 0.48995 0.27987 0.0
C11 C 0.9368 0.497 0.23066 0.0
C12 C 0.96378 0.51046 0.25333 0.0
C13 C 0.98953 0.50455 0.30376 0.0
C14 C 0.15328 0.57604 0.30048 0.0
C15 C 0.15959 0.60243 0.27794 0.0
C16 C 0.1184 0.55293 0.31147 0.0
C17 C 0.08938 0.55659 0.30089 0.0
C18 C 0.1301 0.60426 0.2659 0.0
C19 C 0.09549 0.58168 0.27725 0.0
C20 C 0.05262 0.53536 0.3142 0.0
C21 C 0.12572 0.59396 0.39571 0.0
C22 C 0.12636 0.5702 0.41798 0.0
C23 C 0.09946 0.58122 0.37237 0.0
C24 C 0.0736 0.54447 0.37078 0.0
C25 C 0.09995 0.53359 0.41667 0.0
C26 C 0.07376 0.52089 0.39335 0.0
C27 C 0.04531 0.53049 0.34659 0.0
H28 H 0.87979 0.51106 0.34198 0.0
H29 H 0.93938 0.52891 0.32143 0.0
H30 H 0.8844 0.43161 0.40055 0.0
H31 H 0.94451 0.44952 0.37967 0.0
H32 H 0.88039 0.41531 0.26346 0.0
H33 H 0.92804 0.43841 0.30264 0.0
H34 H 0.94015 0.51321 0.2102 0.0
H35 H 0.98698 0.53702 0.2502 0.0
H36 H 0.17537 0.57407 0.3105 0.0
H37 H 0.11435 0.53288 0.3288 0.0
H38 H 0.13393 0.62386 0.24816 0.0
H39 H 0.07359 0.58473 0.26824 0.0
H40 H 0.14557 0.62236 0.39635 0.0
H41 H 0.09928 0.60005 0.35563 0.0
H42 H 0.09916 0.51486 0.43404 0.0
H43 H 0.05365 0.49256 0.39286 0.0
N44 N 0.01047 0.51392 0.35625 0.0
N45 N 0.02433 0.5219 0.29413 0.0
C46 C 0.39633 0.88932 0.51814 0.0
C47 C 0.40859 0.87471 0.54115 0.0
C48 C 0.41888 0.92382 0.50648 0.0
C49 C 0.45434 0.94443 0.51737 0.0
C50 C 0.44384 0.89557 0.55258 0.0
C51 C 0.46646 0.9303 0.54092 0.0
C52 C 0.47809 0.98098 0.50463 0.0
C53 C 0.46351 0.90383 0.42887 0.0
C54 C 0.44493 0.90533 0.40248 0.0
C55 C 0.47548 0.9307 0.45152 0.0
C56 C 0.46873 0.95941 0.44845 0.0
C57 C 0.43879 0.93442 0.39911 0.0
C58 C 0.45065 0.96124 0.42187 0.0
C59 C 0.4817 0.98821 0.47228 0.0
C60 C 0.57461 0.15134 0.46676 0.0
C61 C 0.55355 0.15822 0.4458 0.0
C62 C 0.56235 0.11656 0.47823 0.0
C63 C 0.52826 0.08815 0.46982 0.0
C64 C 0.52013 0.12939 0.43638 0.0
C65 C 0.50767 0.09481 0.44826 0.0
C66 C 0.51358 0.05128 0.4827 0.0
C67 C 0.52345 0.11421 0.57356 0.0
C68 C 0.55802 0.12535 0.58554 0.0
C69 C 0.50886 0.08823 0.55005 0.0
C70 C 0.52817 0.07234 0.53868 0.0
C71 C 0.57722 0.10927 0.57378 0.0
C72 C 0.56214 0.08256 0.55099 0.0
C73 C 0.5124 0.04388 0.51493 0.0
H74 H 0.36929 0.87388 0.50894 0.0
H75 H 0.40852 0.93445 0.48894 0.0
H76 H 0.45373 0.88518 0.57072 0.0
H77 H 0.49355 0.94595 0.54997 0.0
H78 H 0.46886 0.88188 0.43194 0.0
H79 H 0.49038 0.9292 0.47129 0.0
H80 H 0.42541 0.9368 0.3786 0.0
H81 H 0.44559 0.98338 0.41875 0.0
H82 H 0.60027 0.17292 0.47485 0.0
H83 H 0.57968 0.11203 0.49354 0.0
H84 H 0.50342 0.13363 0.41997 0.0
H85 H 0.48151 0.07331 0.44097 0.0
H86 H 0.50723 0.12484 0.58282 0.0
H87 H 0.48224 0.08004 0.54115 0.0
H88 H 0.60393 0.11723 0.58224 0.0
H89 H 0.57724 0.07025 0.54258 0.0
N90 N 0.49423 0.00909 0.52476 0.0
N91 N 0.49847 0.02306 0.46259 0.0
C92 C 0.59016 0.48498 0.5806 0.0
C93 C 0.56573 0.45871 0.55986 0.0
C94 C 0.57781 0.49765 0.60489 0.0
C95 C 0.5409 0.48473 0.60851 0.0
C96 C 0.52865 0.44476 0.56458 0.0
C97 C 0.51642 0.45822 0.58825 0.0
C98 C 0.5278 0.4996 0.63278 0.0
C99 C 0.53873 0.41331 0.6805 0.0
C100 C 0.56626 0.42524 0.70278 0.0
C101 C 0.52887 0.43701 0.66778 0.0
C102 C 0.54657 0.47332 0.67679 0.0
C103 C 0.58443 0.46165 0.7116 0.0
C104 C 0.57432 0.48547 0.69895 0.0
C105 C 0.53367 0.49726 0.66479 0.0
C106 C 0.4392 0.54376 0.72705 0.0
C107 C 0.46273 0.5683 0.74927 0.0
C108 C 0.45227 0.53095 0.7035 0.0
C109 C 0.48924 0.54319 0.70123 0.0
C110 C 0.49966 0.58018 0.74715 0.0
C111 C 0.51275 0.56756 0.72344 0.0
C112 C 0.50344 0.52972 0.67653 0.0
C113 C 0.45118 0.58703 0.63269 0.0
C114 C 0.42291 0.56475 0.61252 0.0
C115 C 0.47631 0.57717 0.64216 0.0
C116 C 0.47306 0.54448 0.63209 0.0
C117 C 0.42167 0.53375 0.60044 0.0
C118 C 0.44634 0.52365 0.61023 0.0
C119 C 0.49625 0.53072 0.6444 0.0
H120 H 0.61886 0.49638 0.57763 0.0
H121 H 0.59709 0.51824 0.62032 0.0
H122 H 0.50897 0.42348 0.54994 0.0
H123 H 0.48779 0.44764 0.591 0.0
H124 H 0.52451 0.38543 0.67315 0.0
H125 H 0.50665 0.42664 0.65148 0.0
H126 H 0.60572 0.47138 0.7288 0.0
H127 H 0.58798 0.51326 0.70653 0.0
H128 H 0.41068 0.5345 0.72783 0.0
H129 H 0.43349 0.5115 0.68704 0.0
H130 H 0.51834 0.59881 0.76414 0.0
H131 H 0.5413 0.57697 0.72233 0.0
H132 H 0.4531 0.61136 0.64203 0.0
H133 H 0.49755 0.59454 0.65803 0.0
H134 H 0.40096 0.51671 0.584 0.0
H135 H 0.44365 0.49874 0.60152 0.0
N136 N 0.50895 0.51572 0.62381 0.0
N137 N 0.52177 0.51291 0.68549 0.0
C138 C 0.88646 0.39413 0.8039 0.0
C139 C 0.87138 0.40745 0.78233 0.0
C140 C 0.92074 0.41645 0.81593 0.0
C141 C 0.94058 0.45277 0.80701 0.0
C142 C 0.89105 0.44383 0.77342 0.0
C143 C 0.92564 0.46626 0.78543 0.0
C144 C 0.97757 0.47561 0.81905 0.0
C145 C 0.90931 0.46604 0.90215 0.0
C146 C 0.90396 0.43739 0.9217 0.0
C147 C 0.93542 0.47845 0.87879 0.0
C148 C 0.95744 0.46326 0.87513 0.0
C149 C 0.926 0.42204 0.91763 0.0
C150 C 0.95286 0.43524 0.89485 0.0
C151 C 0.98566 0.47725 0.85103 0.0
C152 C 0.1488 0.5706 0.85273 0.0
C153 C 0.15636 0.54912 0.87259 0.0
C154 C 0.11356 0.55866 0.84275 0.0
C155 C 0.08541 0.52466 0.8519 0.0
C156 C 0.1277 0.51648 0.88363 0.0
C157 C 0.09268 0.50433 0.87328 0.0
C158 C 0.04833 0.50948 0.83953 0.0
C159 C 0.12086 0.5316 0.75649 0.0
C160 C 0.12068 0.55708 0.73596 0.0
C161 C 0.0946 0.5157 0.77965 0.0
C162 C 0.068 0.52537 0.78291 0.0
C163 C 0.09335 0.56583 0.73871 0.0
C164 C 0.06723 0.55007 0.76193 0.0
C165 C 0.04023 0.50928 0.80746 0.0
H166 H 0.87171 0.3663 0.81142 0.0
H167 H 0.932 0.40507 0.83183 0.0
H168 H 0.87994 0.45466 0.75679 0.0
H169 H 0.94066 0.49409 0.77797 0.0
H170 H 0.89399 0.47956 0.90531 0.0
H171 H 0.93902 0.50051 0.86401 0.0
H172 H 0.92256 0.39984 0.93211 0.0
H173 H 0.96969 0.42323 0.89229 0.0
H174 H 0.17027 0.59611 0.84416 0.0
H175 H 0.1085 0.57565 0.82734 0.0
H176 H 0.13246 0.49995 0.89986 0.0
H177 H 0.07138 0.47842 0.88132 0.0
H178 H 0.14141 0.5241 0.75471 0.0
H179 H 0.09514 0.49595 0.79505 0.0
H180 H 0.09186 0.58452 0.72262 0.0
H181 H 0.04655 0.5574 0.76369 0.0
N182 N 0.00513 0.4922 0.79845 0.0
N183 N 0.0206 0.49358 0.86009 0.0
C184 C 0.49444 0.88928 0.96531 0.0
C185 C 0.46618 0.87372 0.94369 0.0
C186 C 0.50454 0.92267 0.97844 0.0
C187 C 0.48639 0.94118 0.97052 0.0
C188 C 0.44765 0.89191 0.93588 0.0
C189 C 0.45802 0.9257 0.94894 0.0
C190 C 0.49917 0.97763 0.98334 0.0
C191 C 0.44422 0.90742 0.06757 0.0
C192 C 0.46876 0.90575 0.0883 0.0
C193 C 0.45643 0.93234 0.0431 0.0
C194 C 0.49332 0.95636 0.03925 0.0
C195 C 0.50582 0.92873 0.08323 0.0
C196 C 0.51793 0.9543 0.05936 0.0
C197 C 0.50614 0.98497 0.01541 0.0
C198 C 0.57102 0.14541 0.02691 0.0
C199 C 0.60368 0.15414 0.0417 0.0
C200 C 0.54883 0.11085 0.01482 0.0
C201 C 0.55888 0.08447 0.01753 0.0
C202 C 0.61362 0.12756 0.04393 0.0
C203 C 0.59118 0.09299 0.03247 0.0
C204 C 0.53636 0.04785 0.0049 0.0
C205 C 0.58813 0.12271 0.92393 0.0
C206 C 0.5636 0.12294 0.90236 0.0
C207 C 0.5766 0.0961 0.94688 0.0
C208 C 0.54017 0.06949 0.9491 0.0
C209 C 0.52724 0.09592 0.90427 0.0
C210 C 0.51567 0.06941 0.9274 0.0
C211 C 0.5278 0.04068 0.97292 0.0
H212 H 0.50894 0.87565 0.97191 0.0
H213 H 0.52718 0.93441 0.99431 0.0
H214 H 0.42578 0.88037 0.91922 0.0
H215 H 0.44395 0.93973 0.94222 0.0
H216 H 0.41553 0.89022 0.07077 0.0
H217 H 0.43703 0.9337 0.02785 0.0
H218 H 0.52557 0.92723 0.09787 0.0
H219 H 0.54654 0.97242 0.0565 0.0
H220 H 0.5626 0.16525 0.02475 0.0
H221 H 0.52385 0.10467 0.00348 0.0
H222 H 0.63918 0.1336 0.05395 0.0
H223 H 0.59956 0.07308 0.03449 0.0
H224 H 0.61635 0.14299 0.92288 0.0
H225 H 0.59634 0.09605 0.96255 0.0
H226 H 0.50788 0.09475 0.88743 0.0
H227 H 0.48757 0.04876 0.92831 0.0
N228 N 0.50971 0.00576 0.96328 0.0
N229 N 0.52499 0.01972 0.02494 0.0
C230 C 0.50725 0.63342 0.18101 0.0
C231 C 0.4807 0.6206 0.20427 0.0
C232 C 0.51936 0.61129 0.1688 0.0
C233 C 0.505 0.57573 0.1794 0.0
C234 C 0.46666 0.58519 0.21526 0.0
C235 C 0.47894 0.563 0.20306 0.0
C236 C 0.51842 0.55262 0.16656 0.0
C237 C 0.45633 0.56792 0.09014 0.0
C238 C 0.47699 0.58706 0.06418 0.0
C239 C 0.47075 0.55548 0.11295 0.0
C240 C 0.50621 0.5622 0.11034 0.0
C241 C 0.51221 0.59317 0.06131 0.0
C242 C 0.52663 0.58078 0.08413 0.0
C243 C 0.52173 0.5489 0.13422 0.0
C244 C 0.59229 0.45613 0.13066 0.0
C245 C 0.61965 0.47652 0.10905 0.0
C246 C 0.56956 0.46841 0.14138 0.0
C247 C 0.57437 0.50172 0.13122 0.0
C248 C 0.62236 0.50826 0.09702 0.0
C249 C 0.60008 0.52079 0.1081 0.0
C250 C 0.55353 0.51758 0.14455 0.0
C251 C 0.61222 0.50121 0.22458 0.0
C252 C 0.58882 0.47755 0.24741 0.0
C253 C 0.5995 0.51545 0.2018 0.0
C254 C 0.563 0.50562 0.20105 0.0
C255 C 0.55249 0.46836 0.2469 0.0
C256 C 0.53977 0.48241 0.22405 0.0
C257 C 0.54877 0.51991 0.17695 0.0
H258 H 0.51859 0.66062 0.17216 0.0
H259 H 0.54021 0.6221 0.15117 0.0
H260 H 0.44662 0.57488 0.23357 0.0
H261 H 0.4679 0.53584 0.2119 0.0
H262 H 0.42902 0.56257 0.0928 0.0
H263 H 0.45402 0.54028 0.13245 0.0
H264 H 0.52841 0.60699 0.04112 0.0
H265 H 0.55386 0.58587 0.08138 0.0
H266 H 0.58924 0.43131 0.14007 0.0
H267 H 0.54891 0.45234 0.15823 0.0
H268 H 0.64228 0.52389 0.0795 0.0
H269 H 0.60379 0.54611 0.09928 0.0
H270 H 0.64026 0.5085 0.22419 0.0
H271 H 0.61811 0.53395 0.18469 0.0
H272 H 0.53395 0.45055 0.26441 0.0
H273 H 0.51163 0.47484 0.22413 0.0
N274 N 0.53147 0.53742 0.18668 0.0
N275 N 0.53967 0.53208 0.12451 0.0
O276 O 0.59667 0.38702 0.43791 0.0
Cd277 Cd 0.60903 0.36425 0.40129 0.0
Cd278 Cd 0.67333 0.42298 0.40842 0.0
O279 O 0.65234 0.42719 0.45056 0.0
O280 O 0.57094 0.31264 0.40228 0.0
O281 O 0.62858 0.33111 0.40967 0.0
C282 C 0.59569 0.30495 0.40864 0.0
C283 C 0.7326 0.43427 0.40633 0.0
C284 C 0.61881 0.41135 0.45609 0.0
C285 C 0.63003 0.41732 0.35062 0.0
O286 O 0.65601 0.43727 0.36858 0.0
O287 O 0.60884 0.38464 0.35791 0.0
O288 O 0.72534 0.45965 0.41057 0.0
O289 O 0.70586 0.4018 0.40409 0.0
O290 O 0.22833 0.59571 0.61698 0.0
Cd291 Cd 0.26073 0.60726 0.57826 0.0
Cd292 Cd 0.25705 0.66807 0.57969 0.0
O293 O 0.23147 0.64823 0.62185 0.0
O294 O 0.27561 0.5703 0.58051 0.0
O295 O 0.31432 0.62852 0.58385 0.0
C296 C 0.30821 0.59583 0.58465 0.0
C297 C 0.304 0.72755 0.57552 0.0
C298 C 0.22063 0.61655 0.63183 0.0
C299 C 0.22331 0.61897 0.52464 0.0
O300 O 0.22727 0.64623 0.53965 0.0
O301 O 0.23665 0.6005 0.53519 0.0
O302 O 0.27102 0.7198 0.57842 0.0
O303 O 0.31054 0.70125 0.57597 0.0
O304 O 0.64243 0.22906 0.78413 0.0
Cd305 Cd 0.66458 0.25829 0.74417 0.0
Cd306 Cd 0.60426 0.26329 0.74415 0.0
O307 O 0.5947 0.23544 0.78594 0.0
O308 O 0.71569 0.27036 0.74524 0.0
O309 O 0.69942 0.31167 0.747 0.0
C310 C 0.72479 0.3038 0.74734 0.0
C311 C 0.5958 0.31301 0.74106 0.0
C312 C 0.61359 0.22306 0.79752 0.0
C313 C 0.61445 0.22404 0.69055 0.0
O314 O 0.59443 0.23432 0.70329 0.0
O315 O 0.64424 0.2313 0.70283 0.0
O316 O 0.56914 0.28062 0.74321 0.0
O317 O 0.62785 0.31744 0.74148 0.0
O318 O 0.43875 0.65541 0.94363 0.0
Cd319 Cd 0.42639 0.67324 0.90325 0.0
Cd320 Cd 0.3656 0.60935 0.90824 0.0
O321 O 0.38615 0.60668 0.95099 0.0
O322 O 0.46148 0.72575 0.90216 0.0
O323 O 0.40296 0.7038 0.9068 0.0
C324 C 0.43497 0.73149 0.90561 0.0
C325 C 0.30512 0.59268 0.90262 0.0
C326 C 0.41809 0.62808 0.96003 0.0
C327 C 0.41406 0.62002 0.85354 0.0
O328 O 0.38712 0.59845 0.8698 0.0
O329 O 0.43279 0.65281 0.86162 0.0
O330 O 0.31496 0.56928 0.90769 0.0
O331 O 0.32976 0.62624 0.90226 0.0
O332 O 0.80114 0.37143 0.04462 0.0
Cd333 Cd 0.76646 0.35319 0.08198 0.0
Cd334 Cd 0.76779 0.41503 0.07473 0.0
O335 O 0.79002 0.41479 0.03197 0.0
O336 O 0.74477 0.30007 0.08407 0.0
O337 O 0.71346 0.32696 0.07282 0.0
C338 C 0.71453 0.29763 0.07664 0.0
C339 C 0.7241 0.43207 0.0789 0.0
C340 C 0.80464 0.39602 0.02599 0.0
C341 C 0.80364 0.40609 0.13183 0.0
O342 O 0.80028 0.42768 0.11373 0.0
O343 O 0.78896 0.37297 0.12487 0.0
O344 O 0.75724 0.45514 0.07308 0.0
O345 O 0.71519 0.39857 0.08075 0.0
O346 O 0.43893 0.80541 0.21196 0.0
Cd347 Cd 0.42709 0.77129 0.24942 0.0
Cd348 Cd 0.36308 0.76546 0.24298 0.0
O349 O 0.38306 0.79025 0.20034 0.0
O350 O 0.46425 0.75661 0.24925 0.0
O351 O 0.4064 0.71831 0.24199 0.0
C352 C 0.43898 0.72423 0.24339 0.0
C353 C 0.30508 0.71581 0.24723 0.0
C354 C 0.41646 0.80752 0.1941 0.0
C355 C 0.40705 0.80417 0.29988 0.0
O356 O 0.38058 0.7976 0.28236 0.0
O357 O 0.42843 0.7931 0.29231 0.0
O358 O 0.31056 0.74783 0.24247 0.0
O359 O 0.33282 0.71161 0.24829 0.0
C360 C 0.20594 0.66647 0.26747 0.0
C361 C 0.1968 0.6301 0.26876 0.0
C362 C 0.24071 0.69358 0.25979 0.0
C363 C 0.26813 0.6857 0.25331 0.0
H364 H 0.1862 0.67426 0.27311 0.0
H365 H 0.24622 0.72113 0.25966 0.0
S366 S 0.25795 0.59457 0.25165 0.0
N367 N 0.21765 0.58735 0.26131 0.0
N368 N 0.28348 0.63859 0.24756 0.0
C369 C 0.25941 0.64941 0.25411 0.0
C370 C 0.22371 0.6216 0.26173 0.0
C371 C 0.54033 0.20772 0.43467 0.0
C372 C 0.56522 0.1955 0.43495 0.0
C373 C 0.55039 0.24283 0.42546 0.0
C374 C 0.5859 0.26744 0.41644 0.0
H375 H 0.51289 0.19025 0.44225 0.0
H376 H 0.53022 0.25092 0.42617 0.0
S377 S 0.66093 0.24833 0.41081 0.0
N378 N 0.62656 0.21024 0.42341 0.0
N379 N 0.64575 0.2767 0.40701 0.0
C380 C 0.61105 0.25556 0.41617 0.0
C381 C 0.60067 0.21954 0.42523 0.0
C382 C 0.40134 0.60713 0.59603 0.0
C383 C 0.39357 0.5725 0.60535 0.0
C384 C 0.37367 0.61453 0.58918 0.0
C385 C 0.33724 0.58755 0.59134 0.0
H386 H 0.42899 0.62855 0.59373 0.0
H387 H 0.3809 0.64154 0.582 0.0
S388 S 0.30276 0.49329 0.61753 0.0
N389 N 0.34689 0.51172 0.61849 0.0
N390 N 0.29508 0.52523 0.60511 0.0
C391 C 0.32922 0.55294 0.60106 0.0
C392 C 0.3573 0.54554 0.60821 0.0
C393 C 0.80744 0.39113 0.77216 0.0
C394 C 0.83515 0.38291 0.76937 0.0
C395 C 0.77194 0.36598 0.76369 0.0
C396 C 0.76299 0.33177 0.75214 0.0
H397 H 0.81294 0.41653 0.78219 0.0
H398 H 0.75119 0.37289 0.76742 0.0
S399 S 0.82717 0.29956 0.73608 0.0
N400 N 0.85222 0.34004 0.75113 0.0
N401 N 0.7858 0.29276 0.73529 0.0
C402 C 0.791 0.32419 0.74759 0.0
C403 C 0.82699 0.34974 0.75619 0.0
C404 C 0.4222 0.8087 0.93284 0.0
C405 C 0.45685 0.83867 0.9294 0.0
C406 C 0.41471 0.7742 0.92362 0.0
C407 C 0.44164 0.76859 0.91062 0.0
H408 H 0.40126 0.81164 0.9441 0.0
H409 H 0.3881 0.75161 0.92802 0.0
S410 S 0.53521 0.83965 0.89231 0.0
N411 N 0.51708 0.86143 0.90898 0.0
N412 N 0.50327 0.79695 0.89159 0.0
C413 C 0.47575 0.79889 0.90526 0.0
C414 C 0.48329 0.83383 0.91467 0.0
C415 C 0.63539 0.42987 0.09232 0.0
C416 C 0.64645 0.46575 0.10026 0.0
C417 C 0.66056 0.41922 0.08494 0.0
C418 C 0.69773 0.44409 0.08508 0.0
H419 H 0.60706 0.40987 0.09179 0.0
H420 H 0.6508 0.39127 0.07916 0.0
S421 S 0.74069 0.5408 0.10634 0.0
N422 N 0.69716 0.52568 0.10944 0.0
N423 N 0.74429 0.50605 0.0949 0.0
C424 C 0.70909 0.48006 0.09299 0.0
C425 C 0.68353 0.49078 0.10075 0.0
C426 C 0.34897 0.8283 0.56221 0.0
C427 C 0.38404 0.83783 0.55307 0.0
C428 C 0.32388 0.79289 0.57056 0.0
C429 C 0.33271 0.7654 0.57 0.0
H430 H 0.34063 0.84831 0.5624 0.0
H431 H 0.29702 0.78695 0.57676 0.0
S432 S 0.42164 0.77675 0.54887 0.0
N433 N 0.42688 0.81738 0.54482 0.0
N434 N 0.37979 0.75068 0.56068 0.0
C435 C 0.36816 0.77484 0.56195 0.0
C436 C 0.39379 0.81107 0.55347 0.0
C437 C 0.60971 0.40371 0.71433 0.0
C438 C 0.57499 0.39899 0.71695 0.0
C439 C 0.6168 0.37643 0.72362 0.0
C440 C 0.58939 0.34357 0.73586 0.0
H441 H 0.63107 0.4279 0.7037 0.0
H442 H 0.64353 0.38052 0.7199 0.0
S443 S 0.49532 0.32072 0.75191 0.0
N444 N 0.51408 0.36105 0.73581 0.0
N445 N 0.52715 0.30988 0.75331 0.0
C446 C 0.55514 0.33966 0.74037 0.0
C447 C 0.54801 0.36733 0.7309 0.0
C448 C 0.21854 0.59515 0.8904 0.0
C449 C 0.19408 0.55982 0.88073 0.0
C450 C 0.25434 0.6056 0.89774 0.0
C451 C 0.26694 0.58103 0.89585 0.0
H452 H 0.20989 0.61483 0.89247 0.0
H453 H 0.27222 0.63308 0.90504 0.0
S454 S 0.21437 0.48609 0.86924 0.0
N455 N 0.18566 0.50097 0.86773 0.0
N456 N 0.25236 0.52015 0.88218 0.0
C457 C 0.24276 0.54568 0.88598 0.0
C458 C 0.20652 0.5352 0.87826 0.0
C459 C 0.63545 0.22138 0.03509 0.0
C460 C 0.62838 0.19122 0.05339 0.0
C461 C 0.66203 0.25625 0.04376 0.0
C462 C 0.68281 0.26204 0.07072 0.0
H463 H 0.62157 0.21793 0.01318 0.0
H464 H 0.66767 0.27851 0.02837 0.0
S465 S 0.67118 0.19353 0.12929 0.0
N466 N 0.64105 0.17056 0.10216 0.0
N467 N 0.69225 0.23579 0.11734 0.0
C468 C 0.67484 0.23259 0.09003 0.0
C469 C 0.6473 0.19726 0.08165 0.0
C470 C 0.49432 0.6796 0.22699 0.0
C471 C 0.4686 0.64486 0.21715 0.0
C472 C 0.48421 0.70443 0.23655 0.0
C473 C 0.44792 0.69568 0.2365 0.0
H474 H 0.52264 0.68787 0.22683 0.0
H475 H 0.50526 0.73106 0.24325 0.0
S476 S 0.36993 0.60746 0.21406 0.0
N477 N 0.40519 0.60232 0.20891 0.0
N478 N 0.38596 0.64895 0.22697 0.0
C479 C 0.42174 0.66053 0.22771 0.0
C480 C 0.43213 0.63513 0.21805 0.0
C481 C 0.81289 0.42483 0.3827 0.0
C482 C 0.84177 0.46024 0.38547 0.0
C483 C 0.77775 0.41622 0.39074 0.0
C484 C 0.77036 0.44271 0.40191 0.0
H485 H 0.81723 0.40402 0.37302 0.0
H486 H 0.75611 0.3889 0.38706 0.0
S487 S 0.83798 0.53842 0.41743 0.0
N488 N 0.86155 0.52106 0.40296 0.0
N489 N 0.79589 0.50517 0.41822 0.0
C490 C 0.79954 0.47779 0.40642 0.0
C491 C 0.83513 0.48648 0.39814 0.0
C492 C 0.15875 0.61346 0.4613 0.0
C493 C 0.15341 0.58377 0.44344 0.0
C494 C 0.18211 0.62516 0.48693 0.0
C495 C 0.20114 0.60766 0.49576 0.0
H496 H 0.14392 0.62712 0.45602 0.0
H497 H 0.18451 0.64761 0.50035 0.0
S498 S 0.19935 0.53083 0.45429 0.0
N499 N 0.17105 0.53885 0.43461 0.0
N500 N 0.2148 0.56051 0.48288 0.0
C501 C 0.19699 0.57869 0.47729 0.0
C502 C 0.17316 0.56681 0.45117 0.0
C503 C 0.59217 0.14673 0.63579 0.0
C504 C 0.57344 0.15215 0.61132 0.0
C505 C 0.6063 0.17081 0.66077 0.0
C506 C 0.60158 0.20084 0.6627 0.0
H507 H 0.59533 0.12323 0.63609 0.0
H508 H 0.62001 0.16519 0.67925 0.0
S509 S 0.55756 0.22939 0.60397 0.0
N510 N 0.55375 0.19195 0.58962 0.0
N511 N 0.57857 0.23598 0.63766 0.0
C512 C 0.58336 0.207 0.63844 0.0
C513 C 0.5697 0.18296 0.61253 0.0
C514 C 0.46562 0.61787 0.78225 0.0
C515 C 0.44884 0.581 0.77507 0.0
C516 C 0.45375 0.63032 0.80719 0.0
C517 C 0.42464 0.60637 0.82602 0.0
H518 H 0.48816 0.63729 0.76847 0.0
H519 H 0.46779 0.65895 0.81189 0.0
S520 S 0.37206 0.50685 0.81717 0.0
N521 N 0.40216 0.52054 0.78897 0.0
N522 N 0.37936 0.54368 0.83548 0.0
C523 C 0.4074 0.56936 0.8188 0.0
C524 C 0.4196 0.55675 0.79344 0.0
C525 C 0.88571 0.41681 0.97682 0.0
C526 C 0.87696 0.42485 0.94735 0.0
C527 C 0.86165 0.40652 0.00183 0.0
C528 C 0.82824 0.40467 0.99861 0.0
H529 H 0.91175 0.4193 0.98091 0.0
H530 H 0.86977 0.4011 0.02418 0.0
S531 S 0.79042 0.41933 0.92613 0.0
N532 N 0.83063 0.42674 0.91592 0.0
N533 N 0.78642 0.4095 0.96367 0.0
C534 C 0.81872 0.412 0.96937 0.0
C535 C 0.84282 0.42159 0.94359 0.0
C536 C 0.42641 0.84551 0.11242 0.0
C537 C 0.45569 0.88084 0.11558 0.0
C538 C 0.41345 0.82185 0.13796 0.0
C539 C 0.42981 0.83244 0.16735 0.0
H540 H 0.41357 0.83592 0.08999 0.0
H541 H 0.39093 0.79493 0.13458 0.0
S542 S 0.50462 0.92261 0.18908 0.0
N543 N 0.49832 0.92591 0.15154 0.0
N544 N 0.4752 0.88078 0.19885 0.0
C545 C 0.45876 0.86758 0.17098 0.0
C546 C 0.47142 0.89193 0.14528 0.0
C547 C 0.58252 0.42553 0.27892 0.0
C548 C 0.60194 0.46253 0.27203 0.0
C549 C 0.59263 0.411 0.30357 0.0
C550 C 0.62255 0.43289 0.32248 0.0
H551 H 0.55898 0.40768 0.26534 0.0
H552 H 0.57624 0.38245 0.30823 0.0
S553 S 0.68311 0.53158 0.31342 0.0
N554 N 0.6529 0.52075 0.28556 0.0
N555 N 0.67236 0.4936 0.33163 0.0
C556 C 0.64292 0.46986 0.31517 0.0
C557 C 0.63253 0.48463 0.29003 0.0
C558 C 0.4582 0.86787 0.36623 0.0
C559 C 0.43358 0.87752 0.37781 0.0
C560 C 0.44895 0.84324 0.34175 0.0
C561 C 0.41471 0.82732 0.32778 0.0
H562 H 0.48524 0.88025 0.37556 0.0
H563 H 0.46926 0.83751 0.33314 0.0
S564 S 0.33914 0.84058 0.35204 0.0
N565 N 0.37258 0.86706 0.37539 0.0
N566 N 0.35514 0.82105 0.3291 0.0
C567 C 0.38938 0.83579 0.33993 0.0
C568 C 0.39883 0.86084 0.36495 0.0
C569 C 0.60797 0.44021 0.53695 0.0
C570 C 0.57893 0.44646 0.53309 0.0
C571 C 0.62107 0.42909 0.51191 0.0
C572 C 0.60506 0.42305 0.48234 0.0
H573 H 0.62054 0.44365 0.55955 0.0
H574 H 0.64346 0.42461 0.51582 0.0
S575 S 0.53087 0.43858 0.45886 0.0
N576 N 0.53684 0.44867 0.49629 0.0
N577 N 0.56019 0.42584 0.44992 0.0
C578 C 0.57629 0.42936 0.47801 0.0
C579 C 0.56352 0.4415 0.50321 0.0
C580 C 0.1553 0.5513 0.69169 0.0
C581 C 0.14803 0.5734 0.71088 0.0
C582 C 0.1794 0.56568 0.66672 0.0
C583 C 0.19722 0.60279 0.65984 0.0
H584 H 0.14153 0.52248 0.69548 0.0
H585 H 0.18339 0.5473 0.65228 0.0
S586 S 0.19015 0.67265 0.70516 0.0
N587 N 0.16252 0.63451 0.72296 0.0
N588 N 0.20753 0.66164 0.67579 0.0
C589 C 0.19099 0.62536 0.6795 0.0
C590 C 0.16647 0.61065 0.70502 0.0
C591 C 0.60693 0.15664 0.85946 0.0
C592 C 0.57648 0.15001 0.87681 0.0
C593 C 0.61904 0.18086 0.83446 0.0
C594 C 0.60118 0.19951 0.8256 0.0
H595 H 0.62111 0.14233 0.86477 0.0
H596 H 0.64225 0.18434 0.82159 0.0
S597 S 0.52167 0.19388 0.86524 0.0
N598 N 0.52996 0.16564 0.88479 0.0
N599 N 0.55235 0.21093 0.83747 0.0
C600 C 0.57111 0.19376 0.84325 0.0
C601 C 0.55883 0.16906 0.86886 0.0
C602 C 0.42752 0.57492 0.02665 0.0
C603 C 0.46129 0.5992 0.0394 0.0
C604 C 0.41324 0.5849 0.00172 0.0
C605 C 0.43219 0.61958 0.9885 0.0
H606 H 0.41249 0.54758 0.03535 0.0
H607 H 0.38762 0.56483 0.99215 0.0
S608 S 0.51984 0.69452 0.0161 0.0
N609 N 0.51187 0.66034 0.03898 0.0
N610 N 0.48534 0.67919 0.99195 0.0
C611 C 0.46539 0.64459 0.00193 0.0
C612 C 0.47986 0.63438 0.02737 0.0
C613 C 0.86559 0.41314 0.19797 0.0
C614 C 0.87798 0.44802 0.2096 0.0
C615 C 0.84062 0.39938 0.17355 0.0
C616 C 0.82715 0.42002 0.15969 0.0
H617 H 0.87607 0.39669 0.20718 0.0
H618 H 0.83273 0.37275 0.16486 0.0
S619 S 0.8479 0.5114 0.18419 0.0
N620 N 0.87255 0.50169 0.20741 0.0
N621 N 0.82602 0.47616 0.16118 0.0
C622 C 0.83835 0.45448 0.17189 0.0
C623 C 0.86368 0.4684 0.19688 0.0
loop_
_geom_bond_atom_site_label_1
_geom_bond_atom_site_label_2
_geom_bond_distance
_geom_bond_site_symmetry_2
_ccdc_geom_bond_type
C0 C1 1.384 . S
C0 C2 1.384 . S
C0 H28 0.931 . S
C1 C0 1.384 . S
C1 C4 1.382 . S
C2 C0 1.384 . S
C2 C3 1.381 . S
C2 H29 0.930 . S
C3 C2 1.381 . S
C3 C5 1.381 . S
C3 C6 1.487 . S
C4 C1 1.382 . S
C4 C5 1.387 . S
C4 H30 0.930 . S
C5 C3 1.381 . S
C5 C4 1.387 . S
C5 H31 0.931 . S
C6 C3 1.487 . S
C6 C13 1.399 . S
C6 N44 1.360 . S
C7 C8 1.384 . S
C7 C9 1.384 . S
C7 H32 0.931 . S
C8 C7 1.384 . S
C8 C11 1.382 . S
C9 C7 1.384 . S
C9 C10 1.381 . S
C9 H33 0.930 . S
C10 C9 1.381 . S
C10 C12 1.381 . S
C10 C13 1.487 . S
C11 C8 1.382 . S
C11 C12 1.387 . S
C11 H34 0.930 . S
C12 C10 1.381 . S
C12 C11 1.387 . S
C12 H35 0.931 . S
C13 C6 1.399 . S
C13 C10 1.487 . S
C13 N45 1.343 1_655 S
C14 C15 1.384 . S
C14 C16 1.384 . S
C14 H36 0.931 . S
C15 C14 1.384 . S
C15 C18 1.382 . S
C16 C14 1.384 . S
C16 C17 1.381 . S
C16 H37 0.930 . S
C17 C16 1.381 . S
C17 C19 1.381 . S
C17 C20 1.487 . S
C18 C15 1.382 . S
C18 C19 1.387 . S
C18 H38 0.930 . S
C19 C17 1.381 . S
C19 C18 1.387 . S
C19 H39 0.931 . S
C20 C17 1.487 . S
C20 C27 1.399 . S
C20 N45 1.343 . S
C21 C22 1.384 . S
C21 C23 1.384 . S
C21 H40 0.931 . S
C22 C21 1.384 . S
C22 C25 1.382 . S
C23 C21 1.384 . S
C23 C24 1.381 . S
C23 H41 0.930 . S
C24 C23 1.381 . S
C24 C26 1.381 . S
C24 C27 1.487 . S
C25 C22 1.382 . S
C25 C26 1.387 . S
C25 H42 0.930 . S
C26 C24 1.381 . S
C26 C25 1.387 . S
C26 H43 0.931 . S
C27 C20 1.399 . S
C27 C24 1.487 . S
C27 N44 1.321 1_455 S
H28 C0 0.931 . S
H29 C2 0.930 . S
H30 C4 0.930 . S
H31 C5 0.931 . S
H32 C7 0.931 . S
H33 C9 0.930 . S
H34 C11 0.930 . S
H35 C12 0.931 . S
H36 C14 0.931 . S
H37 C16 0.930 . S
H38 C18 0.930 . S
H39 C19 0.931 . S
H40 C21 0.931 . S
H41 C23 0.930 . S
H42 C25 0.930 . S
H43 C26 0.931 . S
N44 C6 1.360 . S
N44 C27 1.321 1_655 S
N45 C13 1.343 1_455 S
N45 C20 1.343 . S
C46 C47 1.384 . S
C46 C48 1.384 . S
C46 H74 0.931 . S
C47 C46 1.384 . S
C47 C50 1.382 . S
C48 C46 1.384 . S
C48 C49 1.381 . S
C48 H75 0.930 . S
C49 C48 1.381 . S
C49 C51 1.381 . S
C49 C52 1.487 . S
C50 C47 1.382 . S
C50 C51 1.387 . S
C50 H76 0.930 . S
C51 C49 1.381 . S
C51 C50 1.387 . S
C51 H77 0.931 . S
C52 C49 1.487 . S
C52 C59 1.399 . S
C52 N90 1.342 . S
C53 C54 1.384 . S
C53 C55 1.384 . S
C53 H78 0.931 . S
C54 C53 1.384 . S
C54 C57 1.382 . S
C55 C53 1.384 . S
C55 C56 1.381 . S
C55 H79 0.930 . S
C56 C55 1.381 . S
C56 C58 1.381 . S
C56 C59 1.487 . S
C57 C54 1.382 . S
C57 C58 1.387 . S
C57 H80 0.930 . S
C58 C56 1.381 . S
C58 C57 1.387 . S
C58 H81 0.931 . S
C59 C52 1.399 . S
C59 C56 1.487 . S
C59 N91 1.343 1_565 S
C60 C61 1.384 . S
C60 C62 1.384 . S
C60 H82 0.931 . S
C61 C60 1.384 . S
C61 C64 1.382 . S
C62 C60 1.384 . S
C62 C63 1.381 . S
C62 H83 0.930 . S
C63 C62 1.381 . S
C63 C65 1.381 . S
C63 C66 1.487 . S
C64 C61 1.382 . S
C64 C65 1.387 . S
C64 H84 0.930 . S
C65 C63 1.381 . S
C65 C64 1.387 . S
C65 H85 0.931 . S
C66 C63 1.487 . S
C66 C73 1.399 . S
C66 N91 1.343 . S
C67 C68 1.384 . S
C67 C69 1.384 . S
C67 H86 0.931 . S
C68 C67 1.384 . S
C68 C71 1.382 . S
C69 C67 1.384 . S
C69 C70 1.381 . S
C69 H87 0.930 . S
C70 C69 1.381 . S
C70 C72 1.381 . S
C70 C73 1.487 . S
C71 C68 1.382 . S
C71 C72 1.387 . S
C71 H88 0.930 . S
C72 C70 1.381 . S
C72 C71 1.387 . S
C72 H89 0.931 . S
C73 C66 1.399 . S
C73 C70 1.487 . S
C73 N90 1.345 1_545 S
H74 C46 0.931 . S
H75 C48 0.930 . S
H76 C50 0.930 . S
H77 C51 0.931 . S
H78 C53 0.931 . S
H79 C55 0.930 . S
H80 C57 0.930 . S
H81 C58 0.931 . S
H82 C60 0.931 . S
H83 C62 0.930 . S
H84 C64 0.930 . S
H85 C65 0.931 . S
H86 C67 0.931 . S
H87 C69 0.930 . S
H88 C71 0.930 . S
H89 C72 0.931 . S
N90 C52 1.342 . S
N90 C73 1.345 1_565 S
N91 C59 1.343 1_545 S
N91 C66 1.343 . S
C92 C93 1.384 . S
C92 C94 1.384 . S
C92 H120 0.931 . S
C93 C92 1.384 . S
C93 C96 1.382 . S
C94 C92 1.384 . S
C94 C95 1.381 . S
C94 H121 0.930 . S
C95 C94 1.381 . S
C95 C97 1.381 . S
C95 C98 1.487 . S
C96 C93 1.382 . S
C96 C97 1.387 . S
C96 H122 0.930 . S
C97 C95 1.381 . S
C97 C96 1.387 . S
C97 H123 0.931 . S
C98 C95 1.487 . S
C98 C105 1.399 . S
C98 N136 1.343 . S
C99 C100 1.384 . S
C99 C101 1.384 . S
C99 H124 0.931 . S
C100 C99 1.384 . S
C100 C103 1.382 . S
C101 C99 1.384 . S
C101 C102 1.381 . S
C101 H125 0.930 . S
C102 C101 1.381 . S
C102 C104 1.381 . S
C102 C105 1.487 . S
C103 C100 1.382 . S
C103 C104 1.387 . S
C103 H126 0.930 . S
C104 C102 1.381 . S
C104 C103 1.387 . S
C104 H127 0.931 . S
C105 C98 1.399 . S
C105 C102 1.487 . S
C105 N137 1.343 . S
C106 C107 1.384 . S
C106 C108 1.384 . S
C106 H128 0.931 . S
C107 C106 1.384 . S
C107 C110 1.382 . S
C108 C106 1.384 . S
C108 C109 1.381 . S
C108 H129 0.930 . S
C109 C108 1.381 . S
C109 C111 1.381 . S
C109 C112 1.487 . S
C110 C107 1.382 . S
C110 C111 1.387 . S
C110 H130 0.930 . S
C111 C109 1.381 . S
C111 C110 1.387 . S
C111 H131 0.931 . S
C112 C109 1.487 . S
C112 C119 1.399 . S
C112 N137 1.343 . S
C113 C114 1.384 . S
C113 C115 1.384 . S
C113 H132 0.931 . S
C114 C113 1.384 . S
C114 C117 1.382 . S
C115 C113 1.384 . S
C115 C116 1.381 . S
C115 H133 0.930 . S
C116 C115 1.381 . S
C116 C118 1.381 . S
C116 C119 1.487 . S
C117 C114 1.382 . S
C117 C118 1.387 . S
C117 H134 0.930 . S
C118 C116 1.381 . S
C118 C117 1.387 . S
C118 H135 0.931 . S
C119 C112 1.399 . S
C119 C116 1.487 . S
C119 N136 1.343 . S
H120 C92 0.931 . S
H121 C94 0.930 . S
H122 C96 0.930 . S
H123 C97 0.931 . S
H124 C99 0.931 . S
H125 C101 0.930 . S
H126 C103 0.930 . S
H127 C104 0.931 . S
H128 C106 0.931 . S
H129 C108 0.930 . S
H130 C110 0.930 . S
H131 C111 0.931 . S
H132 C113 0.931 . S
H133 C115 0.930 . S
H134 C117 0.930 . S
H135 C118 0.931 . S
N136 C98 1.343 . S
N136 C119 1.343 . S
N137 C105 1.343 . S
N137 C112 1.343 . S
C138 C139 1.384 . S
C138 C140 1.384 . S
C138 H166 0.931 . S
C139 C138 1.384 . S
C139 C142 1.382 . S
C140 C138 1.384 . S
C140 C141 1.381 . S
C140 H167 0.930 . S
C141 C140 1.381 . S
C141 C143 1.381 . S
C141 C144 1.487 . S
C142 C139 1.382 . S
C142 C143 1.387 . S
C142 H168 0.930 . S
C143 C141 1.381 . S
C143 C142 1.387 . S
C143 H169 0.931 . S
C144 C141 1.487 . S
C144 C151 1.399 . S
C144 N182 1.351 . S
C145 C146 1.384 . S
C145 C147 1.384 . S
C145 H170 0.931 . S
C146 C145 1.384 . S
C146 C149 1.382 . S
C147 C145 1.384 . S
C147 C148 1.381 . S
C147 H171 0.930 . S
C148 C147 1.381 . S
C148 C150 1.381 . S
C148 C151 1.487 . S
C149 C146 1.382 . S
C149 C150 1.387 . S
C149 H172 0.930 . S
C150 C148 1.381 . S
C150 C149 1.387 . S
C150 H173 0.931 . S
C151 C144 1.399 . S
C151 C148 1.487 . S
C151 N183 1.343 1_655 S
C152 C153 1.384 . S
C152 C154 1.384 . S
C152 H174 0.931 . S
C153 C152 1.384 . S
C153 C156 1.382 . S
C154 C152 1.384 . S
C154 C155 1.381 . S
C154 H175 0.930 . S
C155 C154 1.381 . S
C155 C157 1.381 . S
C155 C158 1.487 . S
C156 C153 1.382 . S
C156 C157 1.387 . S
C156 H176 0.930 . S
C157 C155 1.381 . S
C157 C156 1.387 . S
C157 H177 0.931 . S
C158 C155 1.487 . S
C158 C165 1.399 . S
C158 N183 1.343 . S
C159 C160 1.384 . S
C159 C161 1.384 . S
C159 H178 0.931 . S
C160 C159 1.384 . S
C160 C163 1.382 . S
C161 C159 1.384 . S
C161 C162 1.381 . S
C161 H179 0.930 . S
C162 C161 1.381 . S
C162 C164 1.381 . S
C162 C165 1.487 . S
C163 C160 1.382 . S
C163 C164 1.387 . S
C163 H180 0.930 . S
C164 C162 1.381 . S
C164 C163 1.387 . S
C164 H181 0.931 . S
C165 C158 1.399 . S
C165 C162 1.487 . S
C165 N182 1.330 1_455 S
H166 C138 0.931 . S
H167 C140 0.930 . S
H168 C142 0.930 . S
H169 C143 0.931 . S
H170 C145 0.931 . S
H171 C147 0.930 . S
H172 C149 0.930 . S
H173 C150 0.931 . S
H174 C152 0.931 . S
H175 C154 0.930 . S
H176 C156 0.930 . S
H177 C157 0.931 . S
H178 C159 0.931 . S
H179 C161 0.930 . S
H180 C163 0.930 . S
H181 C164 0.931 . S
N182 C144 1.351 . S
N182 C165 1.330 1_655 S
N183 C151 1.343 1_455 S
N183 C158 1.343 . S
C184 C185 1.384 . S
C184 C186 1.384 . S
C184 H212 0.931 . S
C185 C184 1.384 . S
C185 C188 1.382 . S
C186 C184 1.384 . S
C186 C187 1.381 . S
C186 H213 0.930 1_556 S
C187 C186 1.381 . S
C187 C189 1.381 . S
C187 C190 1.487 . S
C188 C185 1.382 . S
C188 C189 1.387 . S
C188 H214 0.930 . S
C189 C187 1.381 . S
C189 C188 1.387 . S
C189 H215 0.931 . S
C190 C187 1.487 . S
C190 C197 1.399 1_556 S
C190 N228 1.350 . S
C191 C192 1.384 . S
C191 C193 1.384 . S
C191 H216 0.931 . S
C192 C191 1.384 . S
C192 C195 1.382 . S
C193 C191 1.384 . S
C193 C194 1.381 . S
C193 H217 0.930 . S
C194 C193 1.381 . S
C194 C196 1.381 . S
C194 C197 1.487 . S
C195 C192 1.382 . S
C195 C196 1.387 . S
C195 H218 0.930 . S
C196 C194 1.381 . S
C196 C195 1.387 . S
C196 H219 0.931 . S
C197 C190 1.399 1_554 S
C197 C194 1.487 . S
C197 N229 1.343 1_565 S
C198 C199 1.384 . S
C198 C200 1.384 1_554 S
C198 H220 0.931 . S
C199 C198 1.384 . S
C199 C202 1.382 . S
C200 C198 1.384 1_556 S
C200 C201 1.381 1_556 S
C200 H221 0.930 . S
C201 C200 1.381 1_554 S
C201 C203 1.381 . S
C201 C204 1.487 1_554 S
C202 C199 1.382 . S
C202 C203 1.387 . S
C202 H222 0.930 . S
C203 C201 1.381 . S
C203 C202 1.387 . S
C203 H223 0.931 . S
C204 C201 1.487 1_556 S
C204 C211 1.401 . S
C204 N229 1.342 1_556 S
C205 C206 1.384 . S
C205 C207 1.384 . S
C205 H224 0.931 . S
C206 C205 1.384 . S
C206 C209 1.382 . S
C207 C205 1.384 . S
C207 C208 1.381 . S
C207 H225 0.930 . S
C208 C207 1.381 . S
C208 C210 1.381 . S
C208 C211 1.487 . S
C209 C206 1.382 . S
C209 C210 1.387 . S
C209 H226 0.930 . S
C210 C208 1.381 . S
C210 C209 1.387 . S
C210 H227 0.931 . S
C211 C204 1.401 . S
C211 C208 1.487 . S
C211 N228 1.334 1_545 S
H212 C184 0.931 . S
H213 C186 0.930 1_554 S
H214 C188 0.930 . S
H215 C189 0.931 . S
H216 C191 0.931 . S
H217 C193 0.930 . S
H218 C195 0.930 . S
H219 C196 0.931 . S
H220 C198 0.931 . S
H221 C200 0.930 . S
H222 C202 0.930 . S
H223 C203 0.931 . S
H224 C205 0.931 . S
H225 C207 0.930 . S
H226 C209 0.930 . S
H227 C210 0.931 . S
N228 C190 1.350 . S
N228 C211 1.334 1_565 S
N229 C197 1.343 1_545 S
N229 C204 1.342 1_554 S
C230 C231 1.384 . S
C230 C232 1.384 . S
C230 H258 0.931 . S
C231 C230 1.384 . S
C231 C234 1.382 . S
C232 C230 1.384 . S
C232 C233 1.381 . S
C232 H259 0.930 . S
C233 C232 1.381 . S
C233 C235 1.381 . S
C233 C236 1.487 . S
C234 C231 1.382 . S
C234 C235 1.387 . S
C234 H260 0.930 . S
C235 C233 1.381 . S
C235 C234 1.387 . S
C235 H261 0.931 . S
C236 C233 1.487 . S
C236 C243 1.399 . S
C236 N274 1.343 . S
C237 C238 1.384 . S
C237 C239 1.384 . S
C237 H262 0.931 . S
C238 C237 1.384 . S
C238 C241 1.382 . S
C239 C237 1.384 . S
C239 C240 1.381 . S
C239 H263 0.930 . S
C240 C239 1.381 . S
C240 C242 1.381 . S
C240 C243 1.487 . S
C241 C238 1.382 . S
C241 C242 1.387 . S
C241 H264 0.930 . S
C242 C240 1.381 . S
C242 C241 1.387 . S
C242 H265 0.931 . S
C243 C236 1.399 . S
C243 C240 1.487 . S
C243 N275 1.343 . S
C244 C245 1.384 . S
C244 C246 1.384 . S
C244 H266 0.931 . S
C245 C244 1.384 . S
C245 C248 1.382 . S
C246 C244 1.384 . S
C246 C247 1.381 . S
C246 H267 0.930 . S
C247 C246 1.381 . S
C247 C249 1.381 . S
C247 C250 1.487 . S
C248 C245 1.382 . S
C248 C249 1.387 . S
C248 H268 0.930 . S
C249 C247 1.381 . S
C249 C248 1.387 . S
C249 H269 0.931 . S
C250 C247 1.487 . S
C250 C257 1.399 . S
C250 N275 1.343 . S
C251 C252 1.384 . S
C251 C253 1.384 . S
C251 H270 0.931 . S
C252 C251 1.384 . S
C252 C255 1.382 . S
C253 C251 1.384 . S
C253 C254 1.381 . S
C253 H271 0.930 . S
C254 C253 1.381 . S
C254 C256 1.381 . S
C254 C257 1.487 . S
C255 C252 1.382 . S
C255 C256 1.387 . S
C255 H272 0.930 . S
C256 C254 1.381 . S
C256 C255 1.387 . S
C256 H273 0.931 . S
C257 C250 1.399 . S
C257 C254 1.487 . S
C257 N274 1.343 . S
H258 C230 0.931 . S
H259 C232 0.930 . S
H260 C234 0.930 . S
H261 C235 0.931 . S
H262 C237 0.931 . S
H263 C239 0.930 . S
H264 C241 0.930 . S
H265 C242 0.931 . S
H266 C244 0.931 . S
H267 C246 0.930 . S
H268 C248 0.930 . S
H269 C249 0.931 . S
H270 C251 0.931 . S
H271 C253 0.930 . S
H272 C255 0.930 . S
H273 C256 0.931 . S
N274 C236 1.343 . S
N274 C257 1.343 . S
N275 C243 1.343 . S
N275 C250 1.343 . S
O276 Cd277 2.223 . S
O276 C284 1.315 . S
Cd277 O276 2.223 . S
Cd277 O280 2.297 . S
Cd277 O281 2.439 . S
Cd277 O287 2.240 . S
Cd278 O279 2.240 . S
Cd278 O286 2.223 . S
Cd278 O288 2.297 . S
Cd278 O289 2.439 . S
O279 Cd278 2.240 . S
O279 C284 1.279 . S
O280 Cd277 2.297 . S
O280 C282 1.247 . S
O281 Cd277 2.439 . S
O281 C282 1.208 . S
C282 O280 1.247 . S
C282 O281 1.208 . S
C283 O288 1.247 . S
C283 O289 1.208 . S
C284 O276 1.315 . S
C284 O279 1.279 . S
C285 O286 1.315 . S
C285 O287 1.279 . S
O286 Cd278 2.223 . S
O286 C285 1.315 . S
O287 Cd277 2.240 . S
O287 C285 1.279 . S
O288 Cd278 2.297 . S
O288 C283 1.247 . S
O289 Cd278 2.439 . S
O289 C283 1.208 . S
O290 Cd291 2.223 . S
O290 C298 1.315 . S
Cd291 O290 2.223 . S
Cd291 O294 2.297 . S
Cd291 O295 2.439 . S
Cd291 O301 2.240 . S
Cd292 O293 2.240 . S
Cd292 O300 2.223 . S
Cd292 O302 2.297 . S
Cd292 O303 2.439 . S
O293 Cd292 2.240 . S
O293 C298 1.279 . S
O294 Cd291 2.297 . S
O294 C296 1.247 . S
O295 Cd291 2.439 . S
O295 C296 1.208 . S
C296 O294 1.247 . S
C296 O295 1.208 . S
C297 O302 1.247 . S
C297 O303 1.208 . S
C298 O290 1.315 . S
C298 O293 1.279 . S
C299 O300 1.315 . S
C299 O301 1.279 . S
O300 Cd292 2.223 . S
O300 C299 1.315 . S
O301 Cd291 2.240 . S
O301 C299 1.279 . S
O302 Cd292 2.297 . S
O302 C297 1.247 . S
O303 Cd292 2.439 . S
O303 C297 1.208 . S
O304 Cd305 2.223 . S
O304 C312 1.315 . S
Cd305 O304 2.223 . S
Cd305 O308 2.297 . S
Cd305 O309 2.439 . S
Cd305 O315 2.240 . S
Cd306 O307 2.240 . S
Cd306 O314 2.223 . S
Cd306 O316 2.297 . S
Cd306 O317 2.439 . S
O307 Cd306 2.240 . S
O307 C312 1.279 . S
O308 Cd305 2.297 . S
O308 C310 1.247 . S
O309 Cd305 2.439 . S
O309 C310 1.208 . S
C310 O308 1.247 . S
C310 O309 1.208 . S
C311 O316 1.247 . S
C311 O317 1.208 . S
C312 O304 1.315 . S
C312 O307 1.279 . S
C313 O314 1.315 . S
C313 O315 1.279 . S
O314 Cd306 2.223 . S
O314 C313 1.315 . S
O315 Cd305 2.240 . S
O315 C313 1.279 . S
O316 Cd306 2.297 . S
O316 C311 1.247 . S
O317 Cd306 2.439 . S
O317 C311 1.208 . S
O318 Cd319 2.223 . S
O318 C326 1.315 . S
Cd319 O318 2.223 . S
Cd319 O322 2.297 . S
Cd319 O323 2.439 . S
Cd319 O329 2.240 . S
Cd320 O321 2.240 . S
Cd320 O328 2.223 . S
Cd320 O330 2.297 . S
Cd320 O331 2.439 . S
O321 Cd320 2.240 . S
O321 C326 1.279 . S
O322 Cd319 2.297 . S
O322 C324 1.247 . S
O323 Cd319 2.439 . S
O323 C324 1.208 . S
C324 O322 1.247 . S
C324 O323 1.208 . S
C325 O330 1.247 . S
C325 O331 1.208 . S
C326 O318 1.315 . S
C326 O321 1.279 . S
C327 O328 1.315 . S
C327 O329 1.279 . S
O328 Cd320 2.223 . S
O328 C327 1.315 . S
O329 Cd319 2.240 . S
O329 C327 1.279 . S
O330 Cd320 2.297 . S
O330 C325 1.247 . S
O331 Cd320 2.439 . S
O331 C325 1.208 . S
O332 Cd333 2.223 . S
O332 C340 1.315 . S
Cd333 O332 2.223 . S
Cd333 O336 2.297 . S
Cd333 O337 2.439 . S
Cd333 O343 2.240 . S
Cd334 O335 2.240 . S
Cd334 O342 2.223 . S
Cd334 O344 2.297 . S
Cd334 O345 2.439 . S
O335 Cd334 2.240 . S
O335 C340 1.279 . S
O336 Cd333 2.297 . S
O336 C338 1.247 . S
O337 Cd333 2.439 . S
O337 C338 1.208 . S
C338 O336 1.247 . S
C338 O337 1.208 . S
C339 O344 1.247 . S
C339 O345 1.208 . S
C340 O332 1.315 . S
C340 O335 1.279 . S
C341 O342 1.315 . S
C341 O343 1.279 . S
O342 Cd334 2.223 . S
O342 C341 1.315 . S
O343 Cd333 2.240 . S
O343 C341 1.279 . S
O344 Cd334 2.297 . S
O344 C339 1.247 . S
O345 Cd334 2.439 . S
O345 C339 1.208 . S
O346 Cd347 2.223 . S
O346 C354 1.315 . S
Cd347 O346 2.223 . S
Cd347 O350 2.297 . S
Cd347 O351 2.439 . S
Cd347 O357 2.240 . S
Cd348 O349 2.240 . S
Cd348 O356 2.223 . S
Cd348 O358 2.297 . S
Cd348 O359 2.439 . S
O349 Cd348 2.240 . S
O349 C354 1.279 . S
O350 Cd347 2.297 . S
O350 C352 1.247 . S
O351 Cd347 2.439 . S
O351 C352 1.208 . S
C352 O350 1.247 . S
C352 O351 1.208 . S
C353 O358 1.247 . S
C353 O359 1.208 . S
C354 O346 1.315 . S
C354 O349 1.279 . S
C355 O356 1.315 . S
C355 O357 1.279 . S
O356 Cd348 2.223 . S
O356 C355 1.315 . S
O357 Cd347 2.240 . S
O357 C355 1.279 . S
O358 Cd348 2.297 . S
O358 C353 1.247 . S
O359 Cd348 2.439 . S
O359 C353 1.208 . S
C360 C361 1.369 . S
C360 C362 1.419 . S
C360 H364 0.930 . S
C361 C360 1.369 . S
C361 C370 1.429 . S
C362 C360 1.419 . S
C362 C363 1.363 . S
C362 H365 0.929 . S
C363 C362 1.363 . S
C363 C369 1.428 . S
H364 C360 0.930 . S
H365 C362 0.929 . S
S366 N367 1.613 . S
S366 N368 1.610 . S
N367 S366 1.613 . S
N367 C370 1.350 . S
N368 S366 1.610 . S
N368 C369 1.351 . S
C369 C363 1.428 . S
C369 N368 1.351 . S
C369 C370 1.434 . S
C370 C361 1.429 . S
C370 N367 1.350 . S
C370 C369 1.434 . S
C371 C372 1.369 . S
C371 C373 1.419 . S
C371 H375 0.930 . S
C372 C371 1.369 . S
C372 C381 1.429 . S
C373 C371 1.419 . S
C373 C374 1.363 . S
C373 H376 0.929 . S
C374 C373 1.363 . S
C374 C380 1.428 . S
H375 C371 0.930 . S
H376 C373 0.929 . S
S377 N378 1.613 . S
S377 N379 1.610 . S
N378 S377 1.613 . S
N378 C381 1.350 . S
N379 S377 1.610 . S
N379 C380 1.351 . S
C380 C374 1.428 . S
C380 N379 1.351 . S
C380 C381 1.434 . S
C381 C372 1.429 . S
C381 N378 1.350 . S
C381 C380 1.434 . S
C382 C383 1.369 . S
C382 C384 1.419 . S
C382 H386 0.930 . S
C383 C382 1.369 . S
C383 C392 1.429 . S
C384 C382 1.419 . S
C384 C385 1.363 . S
C384 H387 0.929 . S
C385 C384 1.363 . S
C385 C391 1.428 . S
H386 C382 0.930 . S
H387 C384 0.929 . S
S388 N389 1.613 . S
S388 N390 1.610 . S
N389 S388 1.613 . S
N389 C392 1.350 . S
N390 S388 1.610 . S
N390 C391 1.351 . S
C391 C385 1.428 . S
C391 N390 1.351 . S
C391 C392 1.434 . S
C392 C383 1.429 . S
C392 N389 1.350 . S
C392 C391 1.434 . S
C393 C394 1.369 . S
C393 C395 1.419 . S
C393 H397 0.930 . S
C394 C393 1.369 . S
C394 C403 1.429 . S
C395 C393 1.419 . S
C395 C396 1.363 . S
C395 H398 0.929 . S
C396 C395 1.363 . S
C396 C402 1.428 . S
H397 C393 0.930 . S
H398 C395 0.929 . S
S399 N400 1.613 . S
S399 N401 1.610 . S
N400 S399 1.613 . S
N400 C403 1.350 . S
N401 S399 1.610 . S
N401 C402 1.351 . S
C402 C396 1.428 . S
C402 N401 1.351 . S
C402 C403 1.434 . S
C403 C394 1.429 . S
C403 N400 1.350 . S
C403 C402 1.434 . S
C404 C405 1.369 . S
C404 C406 1.419 . S
C404 H408 0.930 . S
C405 C404 1.369 . S
C405 C414 1.429 . S
C406 C404 1.419 . S
C406 C407 1.363 . S
C406 H409 0.929 . S
C407 C406 1.363 . S
C407 C413 1.428 . S
H408 C404 0.930 . S
H409 C406 0.929 . S
S410 N411 1.613 . S
S410 N412 1.610 . S
N411 S410 1.613 . S
N411 C414 1.350 . S
N412 S410 1.610 . S
N412 C413 1.351 . S
C413 C407 1.428 . S
C413 N412 1.351 . S
C413 C414 1.434 . S
C414 C405 1.429 . S
C414 N411 1.350 . S
C414 C413 1.434 . S
C415 C416 1.369 . S
C415 C417 1.419 . S
C415 H419 0.930 . S
C416 C415 1.369 . S
C416 C425 1.429 . S
C417 C415 1.419 . S
C417 C418 1.363 . S
C417 H420 0.929 . S
C418 C417 1.363 . S
C418 C424 1.428 . S
H419 C415 0.930 . S
H420 C417 0.929 . S
S421 N422 1.613 . S
S421 N423 1.610 . S
N422 S421 1.613 . S
N422 C425 1.350 . S
N423 S421 1.610 . S
N423 C424 1.351 . S
C424 C418 1.428 . S
C424 N423 1.351 . S
C424 C425 1.434 . S
C425 C416 1.429 . S
C425 N422 1.350 . S
C425 C424 1.434 . S
C426 C427 1.369 . S
C426 C428 1.419 . S
C426 H430 0.930 . S
C427 C426 1.369 . S
C427 C436 1.429 . S
C428 C426 1.419 . S
C428 C429 1.363 . S
C428 H431 0.929 . S
C429 C428 1.363 . S
C429 C435 1.428 . S
H430 C426 0.930 . S
H431 C428 0.929 . S
S432 N433 1.613 . S
S432 N434 1.610 . S
N433 S432 1.613 . S
N433 C436 1.350 . S
N434 S432 1.610 . S
N434 C435 1.351 . S
C435 C429 1.428 . S
C435 N434 1.351 . S
C435 C436 1.434 . S
C436 C427 1.429 . S
C436 N433 1.350 . S
C436 C435 1.434 . S
C437 C438 1.369 . S
C437 C439 1.419 . S
C437 H441 0.930 . S
C438 C437 1.369 . S
C438 C447 1.429 . S
C439 C437 1.419 . S
C439 C440 1.363 . S
C439 H442 0.929 . S
C440 C439 1.363 . S
C440 C446 1.428 . S
H441 C437 0.930 . S
H442 C439 0.929 . S
S443 N444 1.613 . S
S443 N445 1.610 . S
N444 S443 1.613 . S
N444 C447 1.350 . S
N445 S443 1.610 . S
N445 C446 1.351 . S
C446 C440 1.428 . S
C446 N445 1.351 . S
C446 C447 1.434 . S
C447 C438 1.429 . S
C447 N444 1.350 . S
C447 C446 1.434 . S
C448 C449 1.369 . S
C448 C450 1.419 . S
C448 H452 0.930 . S
C449 C448 1.369 . S
C449 C458 1.429 . S
C450 C448 1.419 . S
C450 C451 1.363 . S
C450 H453 0.929 . S
C451 C450 1.363 . S
C451 C457 1.428 . S
H452 C448 0.930 . S
H453 C450 0.929 . S
S454 N455 1.613 . S
S454 N456 1.610 . S
N455 S454 1.613 . S
N455 C458 1.350 . S
N456 S454 1.610 . S
N456 C457 1.351 . S
C457 C451 1.428 . S
C457 N456 1.351 . S
C457 C458 1.434 . S
C458 C449 1.429 . S
C458 N455 1.350 . S
C458 C457 1.434 . S
C459 C460 1.369 . S
C459 C461 1.419 . S
C459 H463 0.930 1_554 S
C460 C459 1.369 . S
C460 C469 1.429 . S
C461 C459 1.419 . S
C461 C462 1.363 . S
C461 H464 0.929 1_554 S
C462 C461 1.363 . S
C462 C468 1.428 . S
H463 C459 0.930 1_556 S
H464 C461 0.929 1_556 S
S465 N466 1.613 . S
S465 N467 1.610 . S
N466 S465 1.613 . S
N466 C469 1.350 . S
N467 S465 1.610 . S
N467 C468 1.351 . S
C468 C462 1.428 . S
C468 N467 1.351 . S
C468 C469 1.434 . S
C469 C460 1.429 . S
C469 N466 1.350 . S
C469 C468 1.434 . S
C470 C471 1.369 . S
C470 C472 1.419 . S
C470 H474 0.930 . S
C471 C470 1.369 . S
C471 C480 1.429 . S
C472 C470 1.419 . S
C472 C473 1.363 . S
C472 H475 0.929 . S
C473 C472 1.363 . S
C473 C479 1.428 . S
H474 C470 0.930 . S
H475 C472 0.929 . S
S476 N477 1.613 . S
S476 N478 1.610 . S
N477 S476 1.613 . S
N477 C480 1.350 . S
N478 S476 1.610 . S
N478 C479 1.351 . S
C479 C473 1.428 . S
C479 N478 1.351 . S
C479 C480 1.434 . S
C480 C471 1.429 . S
C480 N477 1.350 . S
C480 C479 1.434 . S
C481 C482 1.369 . S
C481 C483 1.419 . S
C481 H485 0.930 . S
C482 C481 1.369 . S
C482 C491 1.429 . S
C483 C481 1.419 . S
C483 C484 1.363 . S
C483 H486 0.929 . S
C484 C483 1.363 . S
C484 C490 1.428 . S
H485 C481 0.930 . S
H486 C483 0.929 . S
S487 N488 1.613 . S
S487 N489 1.610 . S
N488 S487 1.613 . S
N488 C491 1.350 . S
N489 S487 1.610 . S
N489 C490 1.351 . S
C490 C484 1.428 . S
C490 N489 1.351 . S
C490 C491 1.434 . S
C491 C482 1.429 . S
C491 N488 1.350 . S
C491 C490 1.434 . S
C492 C493 1.369 . S
C492 C494 1.419 . S
C492 H496 0.930 . S
C493 C492 1.369 . S
C493 C502 1.429 . S
C494 C492 1.419 . S
C494 C495 1.363 . S
C494 H497 0.929 . S
C495 C494 1.363 . S
C495 C501 1.428 . S
H496 C492 0.930 . S
H497 C494 0.929 . S
S498 N499 1.613 . S
S498 N500 1.610 . S
N499 S498 1.613 . S
N499 C502 1.350 . S
N500 S498 1.610 . S
N500 C501 1.351 . S
C501 C495 1.428 . S
C501 N500 1.351 . S
C501 C502 1.434 . S
C502 C493 1.429 . S
C502 N499 1.350 . S
C502 C501 1.434 . S
C503 C504 1.369 . S
C503 C505 1.419 . S
C503 H507 0.930 . S
C504 C503 1.369 . S
C504 C513 1.429 . S
C505 C503 1.419 . S
C505 C506 1.363 . S
C505 H508 0.929 . S
C506 C505 1.363 . S
C506 C512 1.428 . S
H507 C503 0.930 . S
H508 C505 0.929 . S
S509 N510 1.613 . S
S509 N511 1.610 . S
N510 S509 1.613 . S
N510 C513 1.350 . S
N511 S509 1.610 . S
N511 C512 1.351 . S
C512 C506 1.428 . S
C512 N511 1.351 . S
C512 C513 1.434 . S
C513 C504 1.429 . S
C513 N510 1.350 . S
C513 C512 1.434 . S
C514 C515 1.369 . S
C514 C516 1.419 . S
C514 H518 0.930 . S
C515 C514 1.369 . S
C515 C524 1.429 . S
C516 C514 1.419 . S
C516 C517 1.363 . S
C516 H519 0.929 . S
C517 C516 1.363 . S
C517 C523 1.428 . S
H518 C514 0.930 . S
H519 C516 0.929 . S
S520 N521 1.613 . S
S520 N522 1.610 . S
N521 S520 1.613 . S
N521 C524 1.350 . S
N522 S520 1.610 . S
N522 C523 1.351 . S
C523 C517 1.428 . S
C523 N522 1.351 . S
C523 C524 1.434 . S
C524 C515 1.429 . S
C524 N521 1.350 . S
C524 C523 1.434 . S
C525 C526 1.369 . S
C525 C527 1.419 1_556 S
C525 H529 0.930 . S
C526 C525 1.369 . S
C526 C535 1.429 . S
C527 C525 1.419 1_554 S
C527 C528 1.363 . S
C527 H530 0.929 . S
C528 C527 1.363 . S
C528 C534 1.428 1_554 S
H529 C525 0.930 . S
H530 C527 0.929 . S
S531 N532 1.613 . S
S531 N533 1.610 . S
N532 S531 1.613 . S
N532 C535 1.350 . S
N533 S531 1.610 . S
N533 C534 1.351 . S
C534 C528 1.428 1_556 S
C534 N533 1.351 . S
C534 C535 1.434 . S
C535 C526 1.429 . S
C535 N532 1.350 . S
C535 C534 1.434 . S
C536 C537 1.369 . S
C536 C538 1.419 . S
C536 H540 0.930 . S
C537 C536 1.369 . S
C537 C546 1.429 . S
C538 C536 1.419 . S
C538 C539 1.363 . S
C538 H541 0.929 . S
C539 C538 1.363 . S
C539 C545 1.428 . S
H540 C536 0.930 . S
H541 C538 0.929 . S
S542 N543 1.613 . S
S542 N544 1.610 . S
N543 S542 1.613 . S
N543 C546 1.350 . S
N544 S542 1.610 . S
N544 C545 1.351 . S
C545 C539 1.428 . S
C545 N544 1.351 . S
C545 C546 1.434 . S
C546 C537 1.429 . S
C546 N543 1.350 . S
C546 C545 1.434 . S
C547 C548 1.369 . S
C547 C549 1.419 . S
C547 H551 0.930 . S
C548 C547 1.369 . S
C548 C557 1.429 . S
C549 C547 1.419 . S
C549 C550 1.363 . S
C549 H552 0.929 . S
C550 C549 1.363 . S
C550 C556 1.428 . S
H551 C547 0.930 . S
H552 C549 0.929 . S
S553 N554 1.613 . S
S553 N555 1.610 . S
N554 S553 1.613 . S
N554 C557 1.350 . S
N555 S553 1.610 . S
N555 C556 1.351 . S
C556 C550 1.428 . S
C556 N555 1.351 . S
C556 C557 1.434 . S
C557 C548 1.429 . S
C557 N554 1.350 . S
C557 C556 1.434 . S
C558 C559 1.369 . S
C558 C560 1.419 . S
C558 H562 0.930 . S
C559 C558 1.369 . S
C559 C568 1.429 . S
C560 C558 1.419 . S
C560 C561 1.363 . S
C560 H563 0.929 . S
C561 C560 1.363 . S
C561 C567 1.428 . S
H562 C558 0.930 . S
H563 C560 0.929 . S
S564 N565 1.613 . S
S564 N566 1.610 . S
N565 S564 1.613 . S
N565 C568 1.350 . S
N566 S564 1.610 . S
N566 C567 1.351 . S
C567 C561 1.428 . S
C567 N566 1.351 . S
C567 C568 1.434 . S
C568 C559 1.429 . S
C568 N565 1.350 . S
C568 C567 1.434 . S
C569 C570 1.369 . S
C569 C571 1.419 . S
C569 H573 0.930 . S
C570 C569 1.369 . S
C570 C579 1.429 . S
C571 C569 1.419 . S
C571 C572 1.363 . S
C571 H574 0.929 . S
C572 C571 1.363 . S
C572 C578 1.428 . S
H573 C569 0.930 . S
H574 C571 0.929 . S
S575 N576 1.613 . S
S575 N577 1.610 . S
N576 S575 1.613 . S
N576 C579 1.350 . S
N577 S575 1.610 . S
N577 C578 1.351 . S
C578 C572 1.428 . S
C578 N577 1.351 . S
C578 C579 1.434 . S
C579 C570 1.429 . S
C579 N576 1.350 . S
C579 C578 1.434 . S
C580 C581 1.369 . S
C580 C582 1.419 . S
C580 H584 0.930 . S
C581 C580 1.369 . S
C581 C590 1.429 . S
C582 C580 1.419 . S
C582 C583 1.363 . S
C582 H585 0.929 . S
C583 C582 1.363 . S
C583 C589 1.428 . S
H584 C580 0.930 . S
H585 C582 0.929 . S
S586 N587 1.613 . S
S586 N588 1.610 . S
N587 S586 1.613 . S
N587 C590 1.350 . S
N588 S586 1.610 . S
N588 C589 1.351 . S
C589 C583 1.428 . S
C589 N588 1.351 . S
C589 C590 1.434 . S
C590 C581 1.429 . S
C590 N587 1.350 . S
C590 C589 1.434 . S
C591 C592 1.369 . S
C591 C593 1.419 . S
C591 H595 0.930 . S
C592 C591 1.369 . S
C592 C601 1.429 . S
C593 C591 1.419 . S
C593 C594 1.363 . S
C593 H596 0.929 . S
C594 C593 1.363 . S
C594 C600 1.428 . S
H595 C591 0.930 . S
H596 C593 0.929 . S
S597 N598 1.613 . S
S597 N599 1.610 . S
N598 S597 1.613 . S
N598 C601 1.350 . S
N599 S597 1.610 . S
N599 C600 1.351 . S
C600 C594 1.428 . S
C600 N599 1.351 . S
C600 C601 1.434 . S
C601 C592 1.429 . S
C601 N598 1.350 . S
C601 C600 1.434 . S
C602 C603 1.369 . S
C602 C604 1.419 1_554 S
C602 H606 0.930 . S
C603 C602 1.369 . S
C603 C612 1.429 . S
C604 C602 1.419 1_556 S
C604 C605 1.363 . S
C604 H607 0.929 . S
C605 C604 1.363 . S
C605 C611 1.428 . S
H606 C602 0.930 . S
H607 C604 0.929 . S
S608 N609 1.613 1_556 S
S608 N610 1.610 . S
N609 S608 1.613 1_554 S
N609 C612 1.350 . S
N610 S608 1.610 . S
N610 C611 1.351 . S
C611 C605 1.428 . S
C611 N610 1.351 . S
C611 C612 1.434 1_556 S
C612 C603 1.429 . S
C612 N609 1.350 . S
C612 C611 1.434 1_554 S
C613 C614 1.369 . S
C613 C615 1.419 . S
C613 H617 0.930 . S
C614 C613 1.369 . S
C614 C623 1.429 . S
C615 C613 1.419 . S
C615 C616 1.363 . S
C615 H618 0.929 . S
C616 C615 1.363 . S
C616 C622 1.428 . S
H617 C613 0.930 . S
H618 C615 0.929 . S
S619 N620 1.613 . S
S619 N621 1.610 . S
N620 S619 1.613 . S
N620 C623 1.350 . S
N621 S619 1.610 . S
N621 C622 1.351 . S
C622 C616 1.428 . S
C622 N621 1.351 . S
C622 C623 1.434 . S
C623 C614 1.429 . S
C623 N620 1.350 . S
C623 C622 1.434 . S
C363 C353 1.624 . S
C361 C15 1.595 . S
C372 C61 1.475 . S
C374 C282 1.452 . S
C383 C114 1.589 . S
C385 C296 1.623 . S
C394 C139 1.478 . S
C396 C310 1.446 . S
C407 C324 1.622 . S
C405 C185 1.608 . S
C416 C245 1.475 . S
C418 C339 1.447 . S
C427 C47 1.474 . S
C429 C297 1.452 . S
C438 C100 1.613 . S
C440 C311 1.623 . S
C449 C153 1.474 . S
C451 C325 1.449 . S
C462 C338 1.622 . S
C460 C199 1.595 . S
C473 C352 1.452 . S
C471 C231 1.474 . S
C484 C283 1.623 . S
C482 C1 1.606 . S
C493 C22 1.488 . S
C495 C299 1.473 . S
C504 C68 1.676 . S
C506 C313 1.661 . S
C517 C327 1.472 . S
C515 C107 1.489 . S
C526 C146 1.695 . S
C528 C340 1.663 . S
C539 C354 1.472 . S
C537 C192 1.491 . S
C550 C285 1.662 . S
C548 C252 1.680 . S
C561 C355 1.662 . S
C559 C54 1.695 . S
C570 C93 1.491 . S
C572 C284 1.469 . S
C583 C298 1.663 . S
C581 C160 1.675 . S
C592 C206 1.487 . S
C594 C312 1.473 . S
C603 C238 1.699 . S
C605 C326 1.659 . S
C614 C8 1.490 . S
C616 C341 1.469 . S
