# Generated by pormake.
# Topology anh, (6,3)-cn, num edge types: 1
# Building blocks:
#     Node 0, Type 0, BuildingBlock: BETFEN_clean_sbu_0, # of connection points: 6
#     Node 1, Type 0, BuildingBlock: BETFEN_clean_sbu_0, # of connection points: 6
#     Node 2, Type 0, BuildingBlock: BETFEN_clean_sbu_0, # of connection points: 6
#     Node 3, Type 1, BuildingBlock: KAKCAD_clean_linker_0, # of connection points: 3
#     Node 4, Type 1, BuildingBlock: KAKCAD_clean_linker_0, # of connection points: 3
#     Node 5, Type 1, BuildingBlock: KAKCAD_clean_linker_0, # of connection points: 3
#     Node 6, Type 1, BuildingBlock: KAKCAD_clean_linker_0, # of connection points: 3
#     Node 7, Type 1, BuildingBlock: KAKCAD_clean_linker_0, # of connection points: 3
#     Node 8, Type 1, BuildingBlock: KAKCAD_clean_linker_0, # of connection points: 3
#     Edge 9, Type (0, 1), BuildingBlock: XUDNAN_clean_linker_2, # of connection points: 2
#     Edge 10, Type (0, 1), BuildingBlock: XUDNAN_clean_linker_2, # of connection points: 2
#     Edge 11, Type (0, 1), BuildingBlock: XUDNAN_clean_linker_2, # of connection points: 2
#     Edge 12, Type (0, 1), BuildingBlock: XUDNAN_clean_linker_2, # of connection points: 2
#     Edge 13, Type (0, 1), BuildingBlock: XUDNAN_clean_linker_2, # of connection points: 2
#     Edge 14, Type (0, 1), BuildingBlock: XUDNAN_clean_linker_2, # of connection points: 2
#     Edge 15, Type (0, 1), BuildingBlock: XUDNAN_clean_linker_2, # of connection points: 2
#     Edge 16, Type (0, 1), BuildingBlock: XUDNAN_clean_linker_2, # of connection points: 2
#     Edge 17, Type (0, 1), BuildingBlock: XUDNAN_clean_linker_2, # of connection points: 2
#     Edge 18, Type (0, 1), BuildingBlock: XUDNAN_clean_linker_2, # of connection points: 2
#     Edge 19, Type (0, 1), BuildingBlock: XUDNAN_clean_linker_2, # of connection points: 2
#     Edge 20, Type (0, 1), BuildingBlock: XUDNAN_clean_linker_2, # of connection points: 2
#     Edge 21, Type (0, 1), BuildingBlock: XUDNAN_clean_linker_2, # of connection points: 2
#     Edge 22, Type (0, 1), BuildingBlock: XUDNAN_clean_linker_2, # of connection points: 2
#     Edge 23, Type (0, 1), BuildingBlock: XUDNAN_clean_linker_2, # of connection points: 2
#     Edge 24, Type (0, 1), BuildingBlock: XUDNAN_clean_linker_2, # of connection points: 2
#     Edge 25, Type (0, 1), BuildingBlock: XUDNAN_clean_linker_2, # of connection points: 2
#     Edge 26, Type (0, 1), BuildingBlock: XUDNAN_clean_linker_2, # of connection points: 2
# Relax obj value: 0.182
# Max RMSD: 0.207
# Mean RMSD: 0.156
data_MOF--net-anh--node1-BETFEN_clean_sbu_0--node2-KAKCAD_clean_linker_0--edge1-XUDNAN_clean_linker_2
_symmetry_space_group_name_H-M    P1
_symmetry_Int_Tables_number       1
_symmetry_cell_setting            triclinic
loop_
_symmetry_equiv_pos_as_xyz
'x, y, z'
_cell_length_a     35.725252
_cell_length_b     37.256947
_cell_length_c     66.906627
_cell_angle_alpha  90.621008
_cell_angle_beta   91.774203
_cell_angle_gamma 105.90797
loop_
_atom_site_label
_atom_site_type_symbol
_atom_site_fract_x
_atom_site_fract_y
_atom_site_fract_z
_atom_type_partial_charge
Pr0 Pr 1.02363 0.519 0.14598 0.0
Pr1 Pr 0.0592 0.60841 0.14597 0.0
C2 C 0.98811 0.44619 0.15114 0.0
C3 C 0.95058 0.418 0.15374 0.0
C4 C 0.93733 0.38999 0.13896 0.0
C5 C 0.90428 0.36052 0.14179 0.0
C6 C 0.88385 0.35822 0.15955 0.0
C7 C 0.89617 0.38706 0.17404 0.0
C8 C 0.92936 0.41669 0.17119 0.0
C9 C 0.04635 0.55066 0.10921 0.0
C10 C 0.96275 0.5734 0.14455 0.0
C11 C 0.09312 0.67953 0.13666 0.0
C12 C 0.12345 0.71018 0.14664 0.0
C13 C 0.11881 0.72226 0.16615 0.0
C14 C 0.14929 0.74825 0.1763 0.0
C15 C 0.18524 0.76254 0.16728 0.0
C16 C 0.18935 0.75157 0.14747 0.0
C17 C 0.15869 0.72565 0.13725 0.0
C18 C 0.05372 0.58302 0.18556 0.0
C19 C 0.11851 0.55312 0.14828 0.0
O20 O 1.00322 0.46932 0.16601 0.0
O21 O 0.9941 0.46128 0.13355 0.0
O22 O 1.02895 0.56437 0.12215 0.0
O23 O 0.05128 0.51892 0.11478 0.0
O24 O 0.9926 0.60283 0.14163 0.0
O25 O 0.96703 0.53965 0.1477 0.0
O26 O 0.1049 0.65151 0.1298 0.0
O27 O 0.05938 0.669 0.14519 0.0
O28 O 0.04456 0.56411 0.16967 0.0
O29 O 0.06772 0.6179 0.18126 0.0
O30 O 0.08938 0.52549 0.15428 0.0
O31 O 0.11305 0.58463 0.14154 0.0
H32 H 0.95321 0.39031 0.1254 0.0
H33 H 0.89516 0.33906 0.13021 0.0
H34 H 0.88115 0.38592 0.18794 0.0
H35 H 0.93895 0.43788 0.18287 0.0
H36 H 0.09202 0.71095 0.17385 0.0
H37 H 0.14488 0.75667 0.1914 0.0
H38 H 0.21672 0.76185 0.14013 0.0
H39 H 0.16297 0.71675 0.12222 0.0
Pr40 Pr 0.58558 0.08113 0.52308 0.0
Pr41 Pr 0.49733 0.05695 0.51832 0.0
C42 C 0.66201 0.11412 0.51814 0.0
C43 C 0.68932 0.15148 0.5154 0.0
C44 C 0.72522 0.16126 0.52606 0.0
C45 C 0.75227 0.19577 0.52319 0.0
C46 C 0.74413 0.22128 0.50949 0.0
C47 C 0.70799 0.21153 0.49891 0.0
C48 C 0.68078 0.17706 0.50189 0.0
C49 C 0.54704 0.06643 0.55877 0.0
C50 C 0.53613 0.14825 0.52295 0.0
C51 C 0.42068 1.02145 0.51997 0.0
C52 C 0.39594 0.98535 0.51204 0.0
C53 C 0.41193 0.96267 0.5 0.0
C54 C 0.38829 0.92932 0.49158 0.0
C55 C 0.34806 0.91793 0.49495 0.0
C56 C 0.33235 0.94024 0.50752 0.0
C57 C 0.35612 0.97374 0.51595 0.0
C58 C 0.53532 0.07051 0.48237 0.0
C59 C 0.54564 0.9891 0.52197 0.0
O60 O 0.63722 0.10023 0.50335 0.0
O61 O 0.64707 0.10686 0.53574 0.0
O62 O 0.53752 0.08416 0.54444 0.0
O63 O 0.57891 0.0571 0.55548 0.0
O64 O 0.50422 0.12066 0.52562 0.0
O65 O 0.56967 0.14027 0.5197 0.0
O66 O 0.44617 1.01976 0.53415 0.0
O67 O 0.43505 0.04634 0.5066 0.0
O68 O 0.54519 0.0531 0.49676 0.0
O69 O 0.50391 0.08017 0.48598 0.0
O70 O 0.57935 1.01529 0.5209 0.0
O71 O 0.51263 0.99893 0.52233 0.0
H72 H 0.73255 0.14196 0.53648 0.0
H73 H 0.77996 0.20215 0.53142 0.0
H74 H 0.7006 0.2307 0.48843 0.0
H75 H 0.6532 0.17035 0.49354 0.0
H76 H 0.44266 0.97107 0.49688 0.0
H77 H 0.40151 0.91255 0.48227 0.0
H78 H 0.3015 0.93245 0.51032 0.0
H79 H 0.34327 0.99088 0.52523 0.0
Pr80 Pr 0.55821 0.56038 0.82271 0.0
Pr81 Pr 0.58422 0.65066 0.82907 0.0
C82 C 0.54403 0.49082 0.80769 0.0
C83 C 0.55153 0.4556 0.8143 0.0
C84 C 0.52651 0.43224 0.8275 0.0
C85 C 0.53363 0.39905 0.83374 0.0
C86 C 0.56583 0.38835 0.82687 0.0
C87 C 0.59102 0.41178 0.81376 0.0
C88 C 0.5839 0.44504 0.80751 0.0
C89 C 0.5669 0.57922 0.86364 0.0
C90 C 0.65373 0.60867 0.82768 0.0
C91 C 0.58847 0.71897 0.84346 0.0
C92 C 0.5598 0.73054 0.85536 0.0
C93 C 0.55535 0.7665 0.85353 0.0
C94 C 0.52261 0.77487 0.86106 0.0
C95 C 0.49369 0.74724 0.8704 0.0
C96 C 0.49973 0.712 0.87344 0.0
C97 C 0.53253 0.70373 0.86599 0.0
C98 C 0.58238 0.62402 0.78984 0.0
C99 C 0.48913 0.60367 0.82649 0.0
O100 O 0.57441 0.51784 0.80291 0.0
O101 O 0.51828 0.5025 0.81755 0.0
O102 O 0.57243 0.60064 0.84904 0.0
O103 O 0.55642 0.54484 0.8571 0.0
O104 O 0.64443 0.63908 0.83344 0.0
O105 O 0.62729 0.57762 0.8215 0.0
O106 O 0.60632 0.69677 0.8523 0.0
O107 O 0.5766 0.70843 0.82505 0.0
O108 O 0.55843 0.61025 0.80302 0.0
O109 O 0.60704 0.65501 0.79623 0.0
O110 O 0.49709 0.57299 0.81991 0.0
O111 O 0.51665 0.63367 0.83263 0.0
H112 H 0.50112 0.43933 0.83292 0.0
H113 H 0.51316 0.3812 0.84347 0.0
H114 H 0.6161 0.40428 0.80824 0.0
H115 H 0.60365 0.46239 0.79728 0.0
H116 H 0.57583 0.78735 0.84518 0.0
H117 H 0.51854 0.80212 0.85815 0.0
H118 H 0.47805 0.69024 0.88059 0.0
H119 H 0.53529 0.67564 0.86746 0.0
C120 C 0.53456 0.06479 0.3296 0.0
C121 C 0.57217 0.07217 0.33846 0.0
C122 C 0.52907 0.06306 0.30885 0.0
C123 C 0.56101 0.06847 0.2964 0.0
C124 C 0.59869 0.07596 0.30521 0.0
C125 C 0.60421 0.07774 0.32603 0.0
C126 C 0.55472 0.06593 0.27432 0.0
C127 C 0.57905 0.09171 0.26193 0.0
C128 C 0.57253 0.08999 0.24102 0.0
C129 C 0.54103 0.0618 0.2326 0.0
C130 C 0.51719 1.0352 0.2448 0.0
C131 C 0.52413 1.03759 0.26558 0.0
C132 C 0.4852 1.00429 0.23609 0.0
C133 C 0.45703 1.01134 0.22275 0.0
C134 C 0.48153 0.96755 0.2421 0.0
C135 C 0.44951 0.93862 0.2356 0.0
C136 C 0.42015 0.94577 0.22308 0.0
C137 C 0.59988 0.11653 0.2281 0.0
C138 C 0.61716 0.15362 0.23456 0.0
C139 C 0.61088 0.10438 0.20978 0.0
C140 C 0.63959 0.12816 0.19867 0.0
C141 C 0.65855 0.16451 0.20575 0.0
C142 C 0.64633 0.17719 0.22363 0.0
C143 C 0.42468 0.98233 0.21634 0.0
H144 H 0.50917 0.0598 0.33871 0.0
H145 H 0.49971 0.05765 0.30254 0.0
H146 H 0.62388 0.07991 0.29602 0.0
H147 H 0.63356 0.08373 0.33239 0.0
H148 H 0.60327 0.11302 0.26864 0.0
H149 H 0.50562 1.01712 0.27499 0.0
H150 H 0.53534 0.06008 0.21657 0.0
H151 H 0.45919 1.03949 0.21795 0.0
H152 H 0.50325 0.96128 0.25209 0.0
H153 H 0.44749 0.91065 0.24065 0.0
H154 H 0.60881 0.16431 0.24834 0.0
H155 H 0.59847 0.07601 0.20432 0.0
H156 H 0.40251 0.98882 0.20677 0.0
H157 H 0.66029 0.20485 0.22969 0.0
H158 H 0.6475 0.11765 0.18474 0.0
C159 C 0.55451 0.60173 0.63395 0.0
C160 C 0.5727 0.57853 0.64454 0.0
C161 C 0.55322 0.60114 0.61302 0.0
C162 C 0.57096 0.57794 0.60217 0.0
C163 C 0.58992 0.55531 0.61299 0.0
C164 C 0.59033 0.55527 0.63391 0.0
C165 C 0.5692 0.577 0.57975 0.0
C166 C 0.56999 0.6094 0.56906 0.0
C167 C 0.56684 0.60945 0.54804 0.0
C168 C 0.56321 0.57466 0.53743 0.0
C169 C 0.56419 0.54145 0.54807 0.0
C170 C 0.56637 0.54362 0.5691 0.0
C171 C 0.56306 0.5034 0.53877 0.0
C172 C 0.53107 0.48234 0.52696 0.0
C173 C 0.59055 0.48452 0.54533 0.0
C174 C 0.58538 0.44603 0.54122 0.0
C175 C 0.55223 0.42423 0.53042 0.0
C176 C 0.5671 0.64689 0.53867 0.0
C177 C 0.53631 0.65129 0.52614 0.0
C178 C 0.59463 0.68019 0.54561 0.0
C179 C 0.59032 0.71605 0.54136 0.0
C180 C 0.5582 0.72063 0.52987 0.0
C181 C 0.53204 0.68729 0.52179 0.0
C182 C 0.52582 0.44368 0.52285 0.0
H183 H 0.54034 0.61959 0.64188 0.0
H184 H 0.53756 0.61837 0.6054 0.0
H185 H 0.60469 0.53767 0.60534 0.0
H186 H 0.60469 0.53726 0.64183 0.0
H187 H 0.57285 0.63525 0.57731 0.0
H188 H 0.56493 0.51841 0.57733 0.0
H189 H 0.56089 0.57375 0.52126 0.0
H190 H 0.50886 0.49518 0.5218 0.0
H191 H 0.61547 0.4993 0.55464 0.0
H192 H 0.60658 0.43302 0.54751 0.0
H193 H 0.51421 0.62685 0.52055 0.0
H194 H 0.61888 0.67849 0.55533 0.0
H195 H 0.50023 0.42884 0.51406 0.0
H196 H 0.50737 0.68871 0.51236 0.0
H197 H 0.61137 0.74013 0.54804 0.0
C198 C 0.09417 0.60966 0.95336 0.0
C199 C 0.06731 0.58365 0.96457 0.0
C200 C 0.09385 0.60591 0.93253 0.0
C201 C 0.06618 0.5765 0.92253 0.0
C202 C 0.03921 0.55061 0.93373 0.0
C203 C 0.04 0.55396 0.95458 0.0
C204 C 0.06489 0.57333 0.90042 0.0
C205 C 0.09859 0.57392 0.89015 0.0
C206 C 0.09806 0.57207 0.86912 0.0
C207 C 0.06295 0.57062 0.85834 0.0
C208 C 1.0286 0.56971 0.86854 0.0
C209 C 0.0301 0.57083 0.88958 0.0
C210 C 0.99133 0.56986 0.85778 0.0
C211 C 0.99098 0.59428 0.84196 0.0
C212 C 0.9554 0.54875 0.86488 0.0
C213 C 0.92024 0.55398 0.85746 0.0
C214 C 0.91997 0.58036 0.84262 0.0
C215 C 0.13494 0.57296 0.85894 0.0
C216 C 0.14745 0.59675 0.84286 0.0
C217 C 0.15982 0.5525 0.86657 0.0
C218 C 0.19709 0.55738 0.85921 0.0
C219 C 0.2106 0.58282 0.84393 0.0
C220 C 0.18483 0.60165 0.83547 0.0
C221 C 0.95574 0.59945 0.83447 0.0
H222 H 0.11561 0.63269 0.96074 0.0
H223 H 0.11477 0.62637 0.92419 0.0
H224 H 1.01766 0.52767 0.92635 0.0
H225 H 1.01882 0.53368 0.96289 0.0
H226 H 0.12551 0.5762 0.89865 0.0
H227 H 1.00443 0.57147 0.89766 0.0
H228 H 0.06221 0.56961 0.84214 0.0
H229 H 1.01803 0.61098 0.83611 0.0
H230 H 0.95452 0.5292 0.87684 0.0
H231 H 0.89348 0.53879 0.86418 0.0
H232 H 0.1291 0.61294 0.83663 0.0
H233 H 0.15091 0.53348 0.87876 0.0
H234 H 0.95668 0.61941 0.82272 0.0
H235 H 0.1939 0.62097 0.82344 0.0
H236 H 0.21596 0.54249 0.86621 0.0
C237 C 0.99996 0.5332 0.34107 0.0
C238 C 0.03429 0.54297 0.33027 0.0
C239 C 1.00154 0.53606 0.36199 0.0
C240 C 0.03755 0.54838 0.37261 0.0
C241 C 0.07189 0.55737 0.36172 0.0
C242 C 0.07025 0.55496 0.34082 0.0
C243 C 0.0394 0.55255 0.39489 0.0
C244 C 1.01332 0.52703 0.40675 0.0
C245 C 1.015 0.53092 0.42777 0.0
C246 C 0.04366 0.56092 0.43696 0.0
C247 C 0.07032 0.58642 0.42533 0.0
C248 C 0.06759 0.58218 0.4044 0.0
C249 C 0.10177 0.61756 0.43454 0.0
C250 C 0.09348 0.64366 0.44782 0.0
C251 C 0.14019 0.6232 0.42847 0.0
C252 C 0.16926 0.65514 0.43459 0.0
C253 C 0.16068 0.68264 0.4468 0.0
C254 C 0.98735 0.50279 0.43989 0.0
C255 C 0.94798 0.48891 0.43362 0.0
C256 C 1.00034 0.48834 0.45729 0.0
C257 C 0.97482 0.46023 0.4679 0.0
C258 C 0.93556 0.44591 0.46145 0.0
C259 C 0.92246 0.46089 0.44425 0.0
C260 C 0.12268 0.67599 0.45386 0.0
H261 H 0.97179 0.52419 0.33332 0.0
H262 H 0.97445 0.52938 0.36979 0.0
H263 H 0.10022 0.56611 0.36931 0.0
H264 H 0.09722 0.56214 0.33291 0.0
H265 H 0.99234 0.50334 0.39964 0.0
H266 H 0.08732 0.60261 0.39548 0.0
H267 H 0.0455 0.56428 0.4531 0.0
H268 H 0.06406 0.64002 0.45268 0.0
H269 H 0.14755 0.60326 0.41849 0.0
H270 H 0.19838 0.65873 0.4293 0.0
H271 H 0.93681 0.49978 0.42047 0.0
H272 H 0.03056 0.49797 0.4624 0.0
H273 H 0.11503 0.69656 0.46326 0.0
H274 H 0.89232 0.45116 0.43902 0.0
H275 H 0.98617 0.44909 0.48091 0.0
C276 C 0.40479 0.98952 0.69876 0.0
C277 C 0.44255 1.00218 0.6914 0.0
C278 C 0.39919 0.98642 0.71935 0.0
C279 C 0.43124 0.99593 0.73298 0.0
C280 C 0.46898 1.007 0.72556 0.0
C281 C 0.47457 1.01024 0.70506 0.0
C282 C 0.42571 0.99639 0.75488 0.0
C283 C 0.39818 0.96747 0.76408 0.0
C284 C 0.39437 0.96773 0.78498 0.0
C285 C 0.41824 0.9976 0.79651 0.0
C286 C 0.44538 1.02684 0.78751 0.0
C287 C 0.44872 1.02611 0.76672 0.0
C288 C 0.47005 0.05851 0.79972 0.0
C289 C 0.45374 0.07514 0.81488 0.0
C290 C 0.5095 0.0737 0.79551 0.0
C291 C 0.53149 0.1062 0.80539 0.0
C292 C 0.51449 0.1241 0.81969 0.0
C293 C 0.36893 0.9353 0.79526 0.0
C294 C 0.36769 0.89873 0.78922 0.0
C295 C 0.35061 0.94065 0.81295 0.0
C296 C 0.33607 0.91082 0.82559 0.0
C297 C 0.33894 0.87503 0.82056 0.0
C298 C 0.35262 0.86885 0.80172 0.0
C299 C 0.47575 0.10762 0.82477 0.0
H300 H 0.37951 0.98256 0.68863 0.0
H301 H 0.36975 0.97784 0.72461 0.0
H302 H 0.49434 1.01388 0.73566 0.0
H303 H 0.50404 1.02044 0.7 0.0
H304 H 0.38041 0.94439 0.75504 0.0
H305 H 0.46892 0.04921 0.75964 0.0
H306 H 0.41692 0.99746 0.81267 0.0
H307 H 0.42337 0.06421 0.81838 0.0
H308 H 0.52311 0.06099 0.78422 0.0
H309 H 0.56143 0.11806 0.80135 0.0
H310 H 0.38158 0.89348 0.77576 0.0
H311 H 0.35004 0.96835 0.81775 0.0
H312 H 0.46164 0.12104 0.83551 0.0
H313 H 0.35562 0.84161 0.79754 0.0
H314 H 0.32551 0.91624 0.84001 0.0
C315 C 0.51568 0.57594 0.01681 0.0
C316 C 0.54879 0.60118 0.00923 0.0
C317 C 0.51277 0.56987 0.03737 0.0
C318 C 0.54302 0.58873 0.05077 0.0
C319 C 0.57573 0.61453 0.04322 0.0
C320 C 0.57856 0.62074 0.0227 0.0
C321 C 0.54127 0.58045 0.07245 0.0
C322 C 0.57395 0.57493 0.08276 0.0
C323 C 0.57305 0.56669 0.10322 0.0
C324 C 0.53844 0.56385 0.11347 0.0
C325 C 0.50534 0.56938 0.10328 0.0
C326 C 0.50711 0.57769 0.08284 0.0
C327 C 0.46835 0.56626 0.11355 0.0
C328 C 0.44777 0.53238 0.12177 0.0
C329 C 0.45151 0.59617 0.11338 0.0
C330 C 0.41447 0.59211 0.12089 0.0
C331 C 0.39281 0.5577 0.12837 0.0
C332 C 0.60931 0.5629 0.11354 0.0
C333 C 0.63192 0.54219 0.10443 0.0
C334 C 0.62417 0.58369 0.13106 0.0
C335 C 0.6619 0.58582 0.13847 0.0
C336 C 0.6855 0.56701 0.12859 0.0
C337 C 0.66948 0.54417 0.11186 0.0
C338 C 0.41032 0.52803 0.12894 0.0
H339 H 0.49208 0.56073 0.00683 0.0
H340 H 0.4873 0.54967 0.04273 0.0
H341 H 0.59933 0.62978 0.0532 0.0
H342 H 0.60457 0.64014 0.01734 0.0
H343 H 0.60045 0.57726 0.0748 0.0
H344 H 0.48173 0.58201 0.07499 0.0
H345 H 0.53729 0.55756 0.12925 0.0
H346 H 0.45992 0.50875 0.12182 0.0
H347 H 0.46689 0.62264 0.10715 0.0
H348 H 0.40279 0.61601 0.12063 0.0
H349 H 0.62112 0.52563 0.091 0.0
H350 H 0.60754 0.60004 0.13838 0.0
H351 H 0.39467 0.50089 0.13425 0.0
H352 H 0.68674 0.52943 0.10379 0.0
H353 H 0.67308 0.6032 0.15158 0.0
H354 H 0.17967 0.58987 0.12579 0.0
H355 H 0.14784 0.50578 0.17123 0.0
H356 H 0.2148 0.49874 0.1718 0.0
H357 H 0.2395 0.54422 0.09866 0.0
H358 H 0.27436 0.5872 0.09232 0.0
H359 H 0.22447 0.58642 0.09614 0.0
H360 H 0.24732 0.63919 0.123 0.0
H361 H 0.29728 0.64002 0.11933 0.0
H362 H 0.27776 0.633 0.14395 0.0
H363 H 0.28633 0.50235 0.16787 0.0
H364 H 0.35447 0.51278 0.15828 0.0
H365 H 0.33745 0.59084 0.11338 0.0
C366 C 0.18681 0.57012 0.13596 0.0
C367 C 0.15855 0.54856 0.1486 0.0
C368 C 0.16897 0.52259 0.16143 0.0
C369 C 0.20698 0.5185 0.1619 0.0
C370 C 0.23414 0.54024 0.14925 0.0
C371 C 0.22436 0.56525 0.13637 0.0
C372 C 0.25841 0.5842 0.12374 0.0
C373 C 0.24859 0.57494 0.10139 0.0
C374 C 0.27093 0.62662 0.12775 0.0
C375 C 0.28901 0.56614 0.13159 0.0
C376 C 0.27459 0.54113 0.14641 0.0
C377 C 0.29775 0.52159 0.15612 0.0
C378 C 0.3365 0.52754 0.15041 0.0
C379 C 0.35185 0.55251 0.13491 0.0
C380 C 0.32736 0.57198 0.12548 0.0
H381 H 0.7661 0.25575 0.47377 0.0
H382 H 0.78883 0.26912 0.53789 0.0
H383 H 0.83923 0.32827 0.53266 0.0
H384 H 0.86499 0.29057 0.45982 0.0
H385 H 0.8537 0.31402 0.43796 0.0
H386 H 0.81847 0.27339 0.44675 0.0
H387 H 0.76752 0.31103 0.4489 0.0
H388 H 0.8026 0.35179 0.44008 0.0
H389 H 0.77922 0.354 0.46338 0.0
H390 H 0.88798 0.38566 0.52043 0.0
H391 H 0.93156 0.43676 0.50214 0.0
H392 H 0.8781 0.38558 0.44588 0.0
C393 C 0.78132 0.27136 0.48673 0.0
C394 C 0.77344 0.25771 0.50626 0.0
C395 C 0.79456 0.27875 0.52278 0.0
C396 C 0.82313 0.3125 0.51997 0.0
C397 C 0.8304 0.32496 0.50053 0.0
C398 C 0.81011 0.30506 0.48418 0.0
C399 C 0.82429 0.32417 0.46483 0.0
C400 C 0.84138 0.29904 0.45156 0.0
C401 C 0.79145 0.33595 0.45364 0.0
C402 C 0.85575 0.35787 0.47285 0.0
C403 C 0.85873 0.35784 0.49348 0.0
C404 C 0.88593 0.38592 0.50427 0.0
C405 C 0.91079 0.41474 0.49371 0.0
C406 C 0.90852 0.41536 0.47252 0.0
C407 C 0.8804 0.38639 0.46206 0.0
H408 H 0.47799 0.80935 0.88601 0.0
H409 H 0.42258 0.69979 0.86043 0.0
H410 H 0.36201 0.71762 0.8546 0.0
H411 H 0.38012 0.82876 0.90456 0.0
H412 H 0.39922 0.87698 0.89802 0.0
H413 H 0.43144 0.85138 0.90806 0.0
H414 H 0.47451 0.86869 0.87729 0.0
H415 H 0.4427 0.89396 0.86724 0.0
H416 H 0.45269 0.85698 0.85255 0.0
H417 H 0.32034 0.75262 0.83956 0.0
H418 H 0.30104 0.80009 0.8194 0.0
H419 H 0.37905 0.88747 0.85566 0.0
C420 C 0.45234 0.78867 0.88014 0.0
C421 C 0.455 0.75344 0.87352 0.0
C422 C 0.42117 0.7269 0.86577 0.0
C423 C 0.38648 0.73683 0.86241 0.0
C424 C 0.38578 0.77312 0.86731 0.0
C425 C 0.41754 0.79836 0.87667 0.0
C426 C 0.41246 0.83739 0.87686 0.0
C427 C 0.40537 0.84932 0.89814 0.0
C428 C 0.44762 0.86584 0.86792 0.0
C429 C 0.37589 0.83112 0.86369 0.0
C430 C 0.35992 0.7936 0.85902 0.0
C431 C 0.33131 0.78184 0.8438 0.0
C432 C 0.32048 0.80894 0.83236 0.0
C433 C 0.33811 0.84729 0.83629 0.0
C434 C 0.3641 0.85828 0.85293 0.0
H435 H 0.89178 0.5203 0.13896 0.0
H436 H 0.94376 0.63906 0.14934 0.0
H437 H 0.87846 0.64926 0.14855 0.0
H438 H 0.81776 0.53022 0.10405 0.0
H439 H 0.78099 0.49031 0.1125 0.0
H440 H 0.83167 0.4917 0.11517 0.0
H441 H 0.82415 0.48095 0.15319 0.0
H442 H 0.77341 0.4796 0.15064 0.0
H443 H 0.80514 0.5121 0.16808 0.0
H444 H 0.80797 0.64726 0.14591 0.0
H445 H 0.73718 0.63376 0.13942 0.0
H446 H 0.72982 0.51647 0.13007 0.0
C447 C 0.88939 0.5484 0.14125 0.0
C448 C 0.92304 0.57887 0.14429 0.0
C449 C 0.91857 0.61525 0.14694 0.0
C450 C 0.88152 0.62135 0.14661 0.0
C451 C 0.84903 0.59083 0.1435 0.0
C452 C 0.85251 0.55508 0.14073 0.0
C453 C 0.81286 0.52754 0.13663 0.0
C454 C 0.81071 0.50885 0.11585 0.0
C455 C 0.80334 0.49832 0.15312 0.0
C456 C 0.78669 0.55347 0.13736 0.0
C457 C 0.80819 0.58977 0.14158 0.0
C458 C 0.79078 0.61889 0.14272 0.0
C459 C 0.7504 0.61086 0.13916 0.0
C460 C 0.72766 0.574 0.13437 0.0
C461 C 0.74626 0.54495 0.13366 0.0
H462 H 0.28721 0.8628 0.51005 0.0
H463 H 0.35087 0.89646 0.45602 0.0
H464 H 0.30975 0.84062 0.43825 0.0
H465 H 0.27457 0.76396 0.5035 0.0
H466 H 0.22609 0.75051 0.51294 0.0
H467 H 0.26024 0.79339 0.52161 0.0
H468 H 0.21128 0.83017 0.51091 0.0
H469 H 0.17698 0.7874 0.50219 0.0
H470 H 0.19213 0.82592 0.48548 0.0
H471 H 0.26224 0.78197 0.42612 0.0
H472 H 0.21141 0.72289 0.42029 0.0
H473 H 0.17769 0.72529 0.482 0.0
C474 C 0.29231 0.85851 0.49445 0.0
C475 C 0.32257 0.884 0.48449 0.0
C476 C 0.32843 0.87712 0.4641 0.0
C477 C 0.30502 0.84558 0.45382 0.0
C478 C 0.2757 0.82098 0.46406 0.0
C479 C 0.26919 0.82692 0.48391 0.0
C480 C 0.23586 0.79561 0.49134 0.0
C481 C 0.25005 0.77463 0.50835 0.0
C482 C 0.20206 0.81069 0.49786 0.0
C483 C 0.22475 0.77126 0.47254 0.0
C484 C 0.24818 0.7866 0.45703 0.0
C485 C 0.24385 0.76954 0.43818 0.0
C486 C 0.21501 0.73575 0.43507 0.0
C487 C 0.19075 0.71897 0.45073 0.0
C488 C 0.19561 0.73732 0.4697 0.0
H489 H 0.58398 0.33804 0.80177 0.0
H490 H 0.55703 0.35447 0.86335 0.0
H491 H 0.55359 0.28863 0.8701 0.0
H492 H 0.51914 0.25583 0.79399 0.0
H493 H 0.54799 0.23482 0.77843 0.0
H494 H 0.55766 0.28463 0.77971 0.0
H495 H 0.6295 0.29096 0.79058 0.0
H496 H 0.62006 0.24087 0.78924 0.0
H497 H 0.64018 0.26606 0.812 0.0
H498 H 0.54 0.2193 0.86828 0.0
H499 H 0.51776 0.15268 0.85799 0.0
H500 H 0.55467 0.18204 0.79779 0.0
C501 C 0.57914 0.32827 0.8169 0.0
C502 C 0.57093 0.35135 0.83205 0.0
C503 C 0.56324 0.33715 0.8515 0.0
C504 C 0.5616 0.29991 0.85552 0.0
C505 C 0.56826 0.27741 0.84 0.0
C506 C 0.57741 0.29124 0.82112 0.0
C507 C 0.57799 0.26042 0.80634 0.0
C508 C 0.54896 0.25884 0.7886 0.0
C509 C 0.6194 0.26485 0.79912 0.0
C510 C 0.56516 0.22683 0.81949 0.0
C511 C 0.56061 0.23718 0.83898 0.0
C512 C 0.54446 0.21085 0.85321 0.0
C513 C 0.53168 0.17313 0.84722 0.0
C514 C 0.53491 0.16223 0.82716 0.0
C515 C 0.55301 0.18939 0.81338 0.0
H516 H 0.6046 0.95006 0.52524 0.0
H517 H 0.4792 0.93142 0.5198 0.0
H518 H 0.47011 0.86393 0.52068 0.0
H519 H 0.60801 0.8684 0.49464 0.0
H520 H 0.64518 0.85681 0.51002 0.0
H521 H 0.64311 0.90455 0.50874 0.0
H522 H 0.63944 0.90752 0.54721 0.0
H523 H 0.6415 0.8598 0.5486 0.0
H524 H 0.60182 0.87343 0.55949 0.0
H525 H 0.47281 0.79718 0.52252 0.0
H526 H 0.48731 0.73682 0.52554 0.0
H527 H 0.61106 0.79381 0.52955 0.0
C528 C 0.57523 0.93183 0.52417 0.0
C529 C 0.54268 0.94725 0.52241 0.0
C530 C 0.50493 0.92151 0.52118 0.0
C531 C 0.49929 0.88258 0.52165 0.0
C532 C 0.53154 0.86844 0.52344 0.0
C533 C 0.56888 0.89213 0.52472 0.0
C534 C 0.59815 0.86873 0.52678 0.0
C535 C 0.62523 0.87501 0.50899 0.0
C536 C 0.62163 0.87793 0.54671 0.0
C537 C 0.57139 0.82856 0.52648 0.0
C538 C 0.53309 0.82937 0.52447 0.0
C539 C 0.50282 0.79634 0.52392 0.0
C540 C 0.51155 0.7617 0.52546 0.0
C541 C 0.55051 0.75916 0.52751 0.0
C542 C 0.58081 0.79376 0.52805 0.0
H543 H 0.6884 0.55053 0.82981 0.0
H544 H 0.71457 0.67107 0.82579 0.0
H545 H 0.78466 0.6759 0.82683 0.0
H546 H 0.76581 0.55089 0.86488 0.0
H547 H 0.77666 0.5103 0.85434 0.0
H548 H 0.72813 0.51555 0.85172 0.0
H549 H 0.7302 0.50863 0.81326 0.0
H550 H 0.77879 0.50337 0.81575 0.0
H551 H 0.76931 0.53917 0.80008 0.0
H552 H 0.85169 0.6687 0.82958 0.0
H553 H 0.91195 0.65013 0.83558 0.0
H554 H 0.84429 0.53409 0.83823 0.0
C555 C 0.70892 0.57786 0.82891 0.0
C556 C 0.69584 0.61043 0.82767 0.0
C557 C 0.7237 0.64571 0.82683 0.0
C558 C 0.76369 0.64877 0.8273 0.0
C559 C 0.77565 0.61633 0.82873 0.0
C560 C 0.74923 0.58151 0.82962 0.0
C561 C 0.77028 0.5514 0.83225 0.0
C562 C 0.75958 0.53083 0.85197 0.0
C563 C 0.76163 0.52402 0.81426 0.0
C564 C 0.8125 0.57487 0.83292 0.0
C565 C 0.81478 0.61218 0.83063 0.0
C566 C 0.85034 0.6395 0.8312 0.0
C567 C 0.88455 0.62857 0.83445 0.0
C568 C 0.88325 0.59056 0.8372 0.0
C569 C 0.84651 0.56339 0.83623 0.0
H570 H 0.24063 0.82478 0.15467 0.0
H571 H 0.20635 0.75515 0.20629 0.0
H572 H 0.26188 0.79497 0.22599 0.0
H573 H 0.34411 0.84038 0.16302 0.0
H574 H 0.35623 0.88801 0.15486 0.0
H575 H 0.31309 0.85461 0.14478 0.0
H576 H 0.27116 0.89759 0.15585 0.0
H577 H 0.31416 0.9311 0.166 0.0
H578 H 0.27344 0.91266 0.18166 0.0
H579 H 0.32057 0.8416 0.24015 0.0
H580 H 0.37986 0.89237 0.248 0.0
H581 H 0.37842 0.93097 0.18702 0.0
C582 C 0.2449 0.81783 0.17009 0.0
C583 C 0.21881 0.78702 0.17898 0.0
C584 C 0.22536 0.77904 0.19925 0.0
C585 C 0.257 0.80133 0.21054 0.0
C586 C 0.282 0.83148 0.20137 0.0
C587 C 0.27647 0.8398 0.18162 0.0
C588 C 0.30805 0.87372 0.17541 0.0
C589 C 0.33177 0.86356 0.15852 0.0
C590 C 0.29065 0.90565 0.16938 0.0
C591 C 0.33217 0.88302 0.19478 0.0
C592 C 0.3165 0.85827 0.20952 0.0
C593 C 0.33331 0.86104 0.22871 0.0
C594 C 0.36719 0.88985 0.23296 0.0
C595 C 0.38414 0.91548 0.21808 0.0
C596 C 0.36614 0.91198 0.19875 0.0
H597 H 0.59512 0.21792 0.52331 0.0
H598 H 0.46973 0.17108 0.52424 0.0
H599 H 0.46128 0.23426 0.52558 0.0
H600 H 0.5994 0.29593 0.55782 0.0
H601 H 0.63702 0.32911 0.54504 0.0
H602 H 0.6342 0.28009 0.54369 0.0
H603 H 0.63081 0.28177 0.50511 0.0
H604 H 0.6336 0.3308 0.50633 0.0
H605 H 0.59367 0.29877 0.49274 0.0
H606 H 0.46499 0.30303 0.52694 0.0
H607 H 0.48073 0.37139 0.52917 0.0
H608 H 0.60395 0.37808 0.52769 0.0
C609 C 0.56586 0.2209 0.52375 0.0
C610 C 0.53308 0.18847 0.52363 0.0
C611 C 0.49553 0.19455 0.52433 0.0
C612 C 0.49031 0.23073 0.52507 0.0
C613 C 0.52282 0.26176 0.52522 0.0
C614 C 0.55999 0.25741 0.52465 0.0
C615 C 0.58976 0.29607 0.52533 0.0
C616 C 0.6167 0.30056 0.54408 0.0
C617 C 0.61336 0.30221 0.50624 0.0
C618 C 0.5635 0.32254 0.52636 0.0
C619 C 0.52498 0.30184 0.52617 0.0
C620 C 0.49513 0.3194 0.52698 0.0
C621 C 0.50451 0.35877 0.52806 0.0
C622 C 0.5437 0.38147 0.52838 0.0
C623 C 0.57357 0.36241 0.52755 0.0
H624 H 0.42055 0.54678 0.82965 0.0
H625 H 0.46539 0.66677 0.82383 0.0
H626 H 0.39888 0.67338 0.82512 0.0
H627 H 0.32843 0.53602 0.80092 0.0
H628 H 0.30046 0.50166 0.81739 0.0
H629 H 0.35132 0.50545 0.81426 0.0
H630 H 0.364 0.51437 0.85256 0.0
H631 H 0.31324 0.51064 0.85579 0.0
H632 H 0.34989 0.55115 0.8654 0.0
H633 H 0.3285 0.66815 0.82857 0.0
H634 H 0.25869 0.65156 0.83555 0.0
H635 H 0.25764 0.53502 0.83986 0.0
C636 C 0.41622 0.57432 0.82838 0.0
C637 C 0.44829 0.60621 0.82649 0.0
C638 C 0.44143 0.64188 0.82527 0.0
C639 C 0.40368 0.64597 0.82594 0.0
C640 C 0.37281 0.61422 0.82808 0.0
C641 C 0.37851 0.57906 0.82938 0.0
C642 C 0.34023 0.54995 0.83284 0.0
C643 C 0.32948 0.52159 0.81531 0.0
C644 C 0.34196 0.53038 0.85284 0.0
C645 C 0.31242 0.57436 0.8335 0.0
C646 C 0.33188 0.61127 0.83048 0.0
C647 C 0.31286 0.63929 0.83084 0.0
C648 C 0.27298 0.62948 0.83464 0.0
C649 C 0.25224 0.59191 0.83812 0.0
C650 C 0.27246 0.56402 0.83734 0.0
H651 H 0.81305 0.35446 0.17602 0.0
H652 H 0.88235 0.28569 0.15226 0.0
H653 H 0.83032 0.22908 0.15946 0.0
H654 H 0.77562 0.29608 0.21648 0.0
H655 H 0.72789 0.30361 0.21486 0.0
H656 H 0.76947 0.33907 0.20668 0.0
H657 H 0.73549 0.33851 0.17185 0.0
H658 H 0.69376 0.30303 0.17993 0.0
H659 H 0.71831 0.29516 0.15786 0.0
H660 H 0.7736 0.18011 0.17128 0.0
H661 H 0.71504 0.14141 0.18671 0.0
H662 H 0.68046 0.24129 0.20176 0.0
C663 C 0.81715 0.32747 0.17227 0.0
C664 C 0.85163 0.32451 0.16341 0.0
C665 C 0.8559 0.28869 0.1587 0.0
C666 C 0.82659 0.25634 0.16281 0.0
C667 C 0.79307 0.26021 0.17157 0.0
C668 C 0.78803 0.2948 0.17619 0.0
C669 C 0.74956 0.29094 0.18609 0.0
C670 C 0.75604 0.30846 0.20728 0.0
C671 C 0.72269 0.30791 0.17315 0.0
C672 C 0.73424 0.24879 0.18666 0.0
C673 C 0.75976 0.23169 0.17813 0.0
C674 C 0.75301 0.1931 0.17771 0.0
C675 C 0.71937 0.17131 0.18639 0.0
C676 C 0.69262 0.18807 0.19531 0.0
C677 C 0.7002 0.22744 0.19518 0.0
H678 H 0.05862 0.51208 0.07647 0.0
H679 H 0.04792 0.62022 0.09575 0.0
H680 H 0.05597 0.64206 0.06085 0.0
H681 H 0.12914 0.5441 0.0379 0.0
H682 H 0.10657 0.50536 0.02123 0.0
H683 H 0.10348 0.49974 0.04789 0.0
H684 H 1.02818 0.4773 0.04411 0.0
H685 H 0.031 0.48295 0.01747 0.0
H686 H 1.00235 0.50647 0.03164 0.0
H687 H 0.0638 0.65117 0.02348 0.0
H688 H 0.0666 0.64567 0.98664 0.0
H689 H 0.06818 0.53026 0.99209 0.0
C690 C 0.05855 0.54055 0.0734 0.0
C691 C 0.05305 0.56467 0.08875 0.0
C692 C 0.05232 0.60145 0.08414 0.0
C693 C 0.05693 0.61406 0.06441 0.0
C694 C 0.06184 0.58935 0.04953 0.0
C695 C 0.06242 0.55329 0.05381 0.0
C696 C 0.06548 0.53139 0.03504 0.0
C697 C 0.10343 0.51946 0.03555 0.0
C698 C 1.02962 0.49754 0.03188 0.0
C699 C 0.06624 0.56063 0.01945 0.0
C700 C 0.06468 0.59405 0.02808 0.0
C701 C 0.06506 0.62514 0.01658 0.0
C702 C 0.06675 0.62181 0.99572 0.0
C703 C 0.06745 0.58753 0.98662 0.0
C704 C 0.06736 0.55669 -0.00131 0.0
H705 H 0.5123 0.10187 0.44939 0.0
H706 H 0.5944 1.04241 0.47012 0.0
H707 H 0.61728 1.04095 0.43561 0.0
H708 H 0.48392 0.05156 0.4048 0.0
H709 H 0.47937 0.09077 0.39033 0.0
H710 H 0.47276 0.0907 0.41687 0.0
H711 H 0.52635 0.15358 0.4209 0.0
H712 H 0.53301 0.15397 0.39431 0.0
H713 H 0.57396 0.15758 0.41139 0.0
H714 H 0.62656 1.04112 0.39819 0.0
H715 H 0.62165 0.04302 0.36129 0.0
H716 H 0.53417 0.10352 0.36568 0.0
C717 C 0.53555 0.08908 0.44673 0.0
C718 C 0.55165 0.07226 0.46233 0.0
C719 C 0.5818 0.05553 0.4583 0.0
C720 C 0.59498 0.05463 0.43879 0.0
C721 C 0.57787 0.07085 0.42362 0.0
C722 C 0.54898 0.08798 0.42743 0.0
C723 C 0.53365 0.10141 0.40844 0.0
C724 C 0.48984 0.08246 0.40491 0.0
C725 C 0.54227 0.14417 0.40879 0.0
C726 C 0.55763 0.08828 0.39323 0.0
C727 C 0.58326 0.07104 0.40223 0.0
C728 C 0.607 0.05505 0.39102 0.0
C729 C 0.60413 0.0564 0.37007 0.0
C730 C 0.57754 0.07343 0.36058 0.0
C731 C 0.55456 0.09004 0.37244 0.0
H732 H 0.61287 0.6616 0.7564 0.0
H733 H 0.54228 0.55463 0.77615 0.0
H734 H 0.53498 0.53036 0.74131 0.0
H735 H 0.55443 0.66269 0.71209 0.0
H736 H 0.59492 0.68563 0.69717 0.0
H737 H 0.59756 0.69358 0.72384 0.0
H738 H 0.66109 0.67286 0.72638 0.0
H739 H 0.65866 0.66487 0.69971 0.0
H740 H 0.66142 0.62786 0.71633 0.0
H741 H 0.53592 0.51758 0.70432 0.0
H742 H 0.53968 0.51906 0.6674 0.0
H743 H 0.60414 0.63595 0.67125 0.0
C744 C 0.59632 0.63293 0.75338 0.0
C745 C 0.57885 0.60965 0.76899 0.0
C746 C 0.5565 0.57264 0.76444 0.0
C747 C 0.55214 0.55866 0.7447 0.0
C748 C 0.56965 0.58231 0.72961 0.0
C749 C 0.59084 0.61882 0.73367 0.0
C750 C 0.60431 0.63917 0.71456 0.0
C751 C 0.58675 0.67221 0.71176 0.0
C752 C 0.64903 0.65193 0.71423 0.0
C753 C 0.5875 0.60838 0.69914 0.0
C754 C 0.56811 0.57564 0.70818 0.0
C755 C 0.55084 0.5431 0.69708 0.0
C756 C 0.55318 0.54413 0.67618 0.0
C757 C 0.57201 0.5776 0.66663 0.0
C758 C 0.58937 0.61009 0.67827 0.0
H759 H 0.56352 1.02971 0.59174 0.0
H760 H 0.47901 0.08252 0.56658 0.0
H761 H 0.44049 0.06773 0.5969 0.0
H762 H 0.49403 0.95463 0.6167 0.0
H763 H 0.52613 0.95596 0.63819 0.0
H764 H 0.54607 0.96896 0.61406 0.0
H765 H 0.58638 1.03295 0.62887 0.0
H766 H 0.56665 1.02013 0.65302 0.0
H767 H 0.56187 0.06236 0.64165 0.0
H768 H 0.41298 0.05012 0.63048 0.0
H769 H 0.39924 1.03246 0.66545 0.0
H770 H 0.50065 0.98951 0.66853 0.0
C771 C 0.53679 1.03794 0.5926 0.0
C772 C 0.52418 0.05724 0.57688 0.0
C773 C 0.48917 0.06773 0.57851 0.0
C774 C 0.46703 0.05934 0.59562 0.0
C775 C 0.48028 1.04038 0.61091 0.0
C776 C 0.51433 1.0298 0.60959 0.0
C777 C 0.5228 1.01095 0.62848 0.0
C778 C 0.5222 0.9702 0.62409 0.0
C779 C 0.56172 1.03292 0.6386 0.0
C780 C 0.48855 1.01319 0.64073 0.0
C781 C 0.46422 1.02999 0.63027 0.0
C782 C 0.43153 1.03651 0.63876 0.0
C783 C 0.4238 1.0261 0.6586 0.0
C784 C 0.4487 1.00938 0.66977 0.0
C785 C 0.48113 1.00239 0.66049 0.0
H786 H 0.54387 0.53405 0.89527 0.0
H787 H 0.5919 0.64984 0.8799 0.0
H788 H 0.5912 0.66872 0.91543 0.0
H789 H 0.47968 0.5499 0.93258 0.0
H790 H 0.48726 0.51392 0.94873 0.0
H791 H 0.49169 0.50982 0.92212 0.0
H792 H 0.56151 0.50294 0.92765 0.0
H793 H 0.55722 0.50681 0.95428 0.0
H794 H 0.59714 0.53818 0.94204 0.0
H795 H 0.58562 0.67439 0.95289 0.0
H796 H 0.57595 0.66665 0.9892 0.0
H797 H 0.5317 0.54683 0.97979 0.0
C798 C 0.55436 0.56338 0.8994 0.0
C799 C 0.56784 0.59065 0.88487 0.0
C800 C 0.58123 0.62868 0.8908 0.0
C801 C 0.58097 0.63957 0.91094 0.0
C802 C 0.56721 0.61197 0.92491 0.0
C803 C 0.5542 0.57465 0.91939 0.0
C804 C 0.5409 0.55044 0.93725 0.0
C805 C 0.4973 0.52981 0.93503 0.0
C806 C 0.56568 0.52298 0.94049 0.0
C807 C 0.54864 0.57992 0.95374 0.0
C808 C 0.5638 0.61525 0.94635 0.0
C809 C 0.57376 0.64686 0.95884 0.0
C810 C 0.56832 0.64217 0.97943 0.0
C811 C 0.55299 0.60616 0.98733 0.0
C812 C 0.5429 0.57477 0.9742 0.0
H813 H 0.08431 0.61941 0.2204 0.0
H814 H 1.00876 0.51483 0.1969 0.0
H815 H 0.99606 0.4924 0.2314 0.0
H816 H 0.12653 0.57988 0.26193 0.0
H817 H 0.12846 0.61872 0.27861 0.0
H818 H 0.13207 0.62582 0.25207 0.0
H819 H 0.0738 0.65465 0.25233 0.0
H820 H 0.06991 0.64752 0.27884 0.0
H821 H 1.02832 0.62831 0.26225 0.0
H822 H 0.98915 0.48305 0.26875 0.0
H823 H 0.9916 0.48594 0.30578 0.0
H824 H 0.07309 0.59615 0.30462 0.0
C825 C 0.06532 0.59167 0.22254 0.0
C826 C 0.04765 0.56866 0.20603 0.0
C827 C 1.02294 0.53262 0.20936 0.0
C828 C 1.01542 0.51978 0.2289 0.0
C829 C 0.03313 0.54328 0.2449 0.0
C830 C 0.05785 0.57835 0.2419 0.0
C831 C 0.07317 0.59822 0.26158 0.0
C832 C 0.1177 0.60611 0.26367 0.0
C833 C 0.06053 0.6343 0.26388 0.0
C834 C 0.05294 0.56904 0.27616 0.0
C835 C 1.02982 0.5376 0.26627 0.0
C836 C 1.00738 0.50742 0.27664 0.0
C837 C 1.00879 0.50937 0.29764 0.0
C838 C 0.03269 0.54115 0.30805 0.0
C839 C 0.055 0.57126 0.29708 0.0
loop_
_geom_bond_atom_site_label_1
_geom_bond_atom_site_label_2
_geom_bond_distance
_geom_bond_site_symmetry_2
_ccdc_geom_bond_type
Pr0 C2 2.880 . S
Pr0 O20 2.562 . S
Pr0 O21 2.490 . S
Pr0 O22 2.695 1_655 S
Pr0 O23 2.512 . S
Pr0 O25 2.437 . S
Pr0 O28 2.432 . S
Pr0 O30 2.438 1_655 S
Pr1 C11 2.880 . S
Pr1 O22 2.436 . S
Pr1 O24 2.438 1_455 S
Pr1 O26 2.562 . S
Pr1 O27 2.490 . S
Pr1 O28 2.693 1_455 S
Pr1 O29 2.512 . S
Pr1 O31 2.437 . S
C2 Pr0 2.880 . S
C2 C3 1.491 . S
C2 O20 1.254 . S
C2 O21 1.225 . S
C3 C2 1.491 . S
C3 C4 1.392 . S
C3 C8 1.356 . S
C4 C3 1.392 . S
C4 C5 1.368 . S
C4 H32 0.929 . S
C5 C4 1.368 . S
C5 C6 1.386 . S
C5 H33 0.929 . S
C6 C5 1.386 . S
C6 C7 1.373 . S
C7 C6 1.373 . S
C7 C8 1.409 . S
C7 H34 0.931 . S
C8 C3 1.356 . S
C8 C7 1.409 . S
C8 H35 0.930 . S
C9 O22 1.270 . S
C9 O23 1.248 1_455 S
C10 O24 1.267 . S
C10 O25 1.278 . S
C11 Pr1 2.880 . S
C11 C12 1.491 . S
C11 O26 1.254 . S
C11 O27 1.225 . S
C12 C11 1.491 . S
C12 C13 1.392 . S
C12 C17 1.356 . S
C13 C12 1.392 . S
C13 C14 1.368 . S
C13 H36 0.929 . S
C14 C13 1.368 . S
C14 C15 1.386 . S
C14 H37 0.929 . S
C15 C14 1.386 . S
C15 C16 1.373 . S
C16 C15 1.373 . S
C16 C17 1.409 . S
C16 H38 0.931 . S
C17 C12 1.356 . S
C17 C16 1.409 . S
C17 H39 0.930 . S
C18 O28 1.268 1_455 S
C18 O29 1.248 . S
C19 O30 1.267 . S
C19 O31 1.278 . S
O20 Pr0 2.562 . S
O20 C2 1.254 . S
O21 Pr0 2.490 . S
O21 C2 1.225 . S
O22 Pr0 2.695 1_455 S
O22 Pr1 2.436 . S
O22 C9 1.270 . S
O23 Pr0 2.512 . S
O23 C9 1.248 1_655 S
O24 Pr1 2.438 1_655 S
O24 C10 1.267 . S
O25 Pr0 2.437 . S
O25 C10 1.278 . S
O26 Pr1 2.562 . S
O26 C11 1.254 . S
O27 Pr1 2.490 . S
O27 C11 1.225 . S
O28 Pr0 2.432 . S
O28 Pr1 2.693 1_655 S
O28 C18 1.268 1_655 S
O29 Pr1 2.512 . S
O29 C18 1.248 . S
O30 Pr0 2.438 1_455 S
O30 C19 1.267 . S
O31 Pr1 2.437 . S
O31 C19 1.278 . S
H32 C4 0.929 . S
H33 C5 0.929 . S
H34 C7 0.931 . S
H35 C8 0.930 . S
H36 C13 0.929 . S
H37 C14 0.929 . S
H38 C16 0.931 . S
H39 C17 0.930 . S
Pr40 C42 2.880 . S
Pr40 O60 2.562 . S
Pr40 O61 2.490 . S
Pr40 O62 2.695 . S
Pr40 O63 2.512 . S
Pr40 O65 2.437 . S
Pr40 O68 2.436 . S
Pr40 O70 2.438 1_545 S
Pr41 C51 2.880 . S
Pr41 O62 2.436 1_565 S
Pr41 O64 2.438 1_565 S
Pr41 O66 2.562 . S
Pr41 O67 2.490 . S
Pr41 O68 2.695 1_565 S
Pr41 O69 2.512 . S
Pr41 O71 2.437 . S
C42 Pr40 2.880 . S
C42 C43 1.491 . S
C42 O60 1.254 . S
C42 O61 1.225 . S
C43 C42 1.491 . S
C43 C44 1.392 . S
C43 C48 1.356 . S
C44 C43 1.392 . S
C44 C45 1.368 . S
C44 H72 0.929 . S
C45 C44 1.368 . S
C45 C46 1.386 . S
C45 H73 0.929 . S
C46 C45 1.386 . S
C46 C47 1.373 . S
C47 C46 1.373 . S
C47 C48 1.409 . S
C47 H74 0.931 . S
C48 C43 1.356 . S
C48 C47 1.409 . S
C48 H75 0.930 . S
C49 O62 1.270 . S
C49 O63 1.248 . S
C50 O64 1.267 . S
C50 O65 1.278 . S
C51 Pr41 2.880 . S
C51 C52 1.491 . S
C51 O66 1.254 . S
C51 O67 1.225 . S
C52 C51 1.491 . S
C52 C53 1.392 . S
C52 C57 1.356 . S
C53 C52 1.392 . S
C53 C54 1.368 . S
C53 H76 0.929 . S
C54 C53 1.368 . S
C54 C55 1.386 . S
C54 H77 0.929 . S
C55 C54 1.386 . S
C55 C56 1.373 . S
C56 C55 1.373 . S
C56 C57 1.409 . S
C56 H78 0.931 . S
C57 C52 1.356 . S
C57 C56 1.409 . S
C57 H79 0.930 . S
C58 O68 1.270 . S
C58 O69 1.248 1_545 S
C59 O70 1.267 . S
C59 O71 1.278 . S
O60 Pr40 2.562 . S
O60 C42 1.254 . S
O61 Pr40 2.490 . S
O61 C42 1.225 . S
O62 Pr40 2.695 . S
O62 Pr41 2.436 1_545 S
O62 C49 1.270 . S
O63 Pr40 2.512 . S
O63 C49 1.248 . S
O64 Pr41 2.438 1_545 S
O64 C50 1.267 . S
O65 Pr40 2.437 . S
O65 C50 1.278 . S
O66 Pr41 2.562 . S
O66 C51 1.254 . S
O67 Pr41 2.490 . S
O67 C51 1.225 . S
O68 Pr40 2.436 . S
O68 Pr41 2.695 1_545 S
O68 C58 1.270 . S
O69 Pr41 2.512 . S
O69 C58 1.248 1_565 S
O70 Pr40 2.438 1_565 S
O70 C59 1.267 . S
O71 Pr41 2.437 . S
O71 C59 1.278 . S
H72 C44 0.929 . S
H73 C45 0.929 . S
H74 C47 0.931 . S
H75 C48 0.930 . S
H76 C53 0.929 . S
H77 C54 0.929 . S
H78 C56 0.931 . S
H79 C57 0.930 . S
Pr80 C82 2.880 . S
Pr80 O100 2.562 . S
Pr80 O101 2.490 . S
Pr80 O102 2.695 . S
Pr80 O103 2.512 . S
Pr80 O105 2.437 . S
Pr80 O108 2.436 . S
Pr80 O110 2.438 . S
Pr81 C91 2.880 . S
Pr81 O102 2.436 . S
Pr81 O104 2.438 . S
Pr81 O106 2.562 . S
Pr81 O107 2.490 . S
Pr81 O108 2.695 . S
Pr81 O109 2.512 . S
Pr81 O111 2.437 . S
C82 Pr80 2.880 . S
C82 C83 1.491 . S
C82 O100 1.254 . S
C82 O101 1.225 . S
C83 C82 1.491 . S
C83 C84 1.392 . S
C83 C88 1.356 . S
C84 C83 1.392 . S
C84 C85 1.368 . S
C84 H112 0.929 . S
C85 C84 1.368 . S
C85 C86 1.386 . S
C85 H113 0.929 . S
C86 C85 1.386 . S
C86 C87 1.373 . S
C87 C86 1.373 . S
C87 C88 1.409 . S
C87 H114 0.931 . S
C88 C83 1.356 . S
C88 C87 1.409 . S
C88 H115 0.930 . S
C89 O102 1.270 . S
C89 O103 1.248 . S
C90 O104 1.267 . S
C90 O105 1.278 . S
C91 Pr81 2.880 . S
C91 C92 1.491 . S
C91 O106 1.254 . S
C91 O107 1.225 . S
C92 C91 1.491 . S
C92 C93 1.392 . S
C92 C97 1.356 . S
C93 C92 1.392 . S
C93 C94 1.368 . S
C93 H116 0.929 . S
C94 C93 1.368 . S
C94 C95 1.386 . S
C94 H117 0.929 . S
C95 C94 1.386 . S
C95 C96 1.373 . S
C96 C95 1.373 . S
C96 C97 1.409 . S
C96 H118 0.931 . S
C97 C92 1.356 . S
C97 C96 1.409 . S
C97 H119 0.930 . S
C98 O108 1.270 . S
C98 O109 1.248 . S
C99 O110 1.267 . S
C99 O111 1.278 . S
O100 Pr80 2.562 . S
O100 C82 1.254 . S
O101 Pr80 2.490 . S
O101 C82 1.225 . S
O102 Pr80 2.695 . S
O102 Pr81 2.436 . S
O102 C89 1.270 . S
O103 Pr80 2.512 . S
O103 C89 1.248 . S
O104 Pr81 2.438 . S
O104 C90 1.267 . S
O105 Pr80 2.437 . S
O105 C90 1.278 . S
O106 Pr81 2.562 . S
O106 C91 1.254 . S
O107 Pr81 2.490 . S
O107 C91 1.225 . S
O108 Pr80 2.436 . S
O108 Pr81 2.695 . S
O108 C98 1.270 . S
O109 Pr81 2.512 . S
O109 C98 1.248 . S
O110 Pr80 2.438 . S
O110 C99 1.267 . S
O111 Pr81 2.437 . S
O111 C99 1.278 . S
H112 C84 0.929 . S
H113 C85 0.929 . S
H114 C87 0.931 . S
H115 C88 0.930 . S
H116 C93 0.929 . S
H117 C94 0.929 . S
H118 C96 0.931 . S
H119 C97 0.930 . S
C120 C121 1.386 . S
C120 C122 1.397 . S
C120 H144 0.931 . S
C121 C120 1.386 . S
C121 C125 1.393 1_545 S
C122 C120 1.397 . S
C122 C123 1.384 . S
C122 H145 0.930 . S
C123 C122 1.384 . S
C123 C124 1.403 . S
C123 C126 1.481 . S
C124 C123 1.403 . S
C124 C125 1.388 1_545 S
C124 H146 0.904 1_545 S
C125 C121 1.393 1_565 S
C125 C124 1.388 1_565 S
C125 H147 0.935 . S
C126 C123 1.481 . S
C126 C127 1.387 . S
C126 C131 1.390 . S
C127 C126 1.387 . S
C127 C128 1.401 . S
C127 H148 0.930 . S
C128 C127 1.401 . S
C128 C129 1.376 . S
C128 C137 1.511 . S
C129 C128 1.376 . S
C129 C130 1.392 . S
C129 H150 0.931 . S
C130 C129 1.392 . S
C130 C131 1.361 . S
C130 C132 1.500 1_545 S
C131 C126 1.390 . S
C131 C130 1.361 . S
C131 H149 0.931 1_545 S
C132 C130 1.500 1_565 S
C132 C133 1.371 . S
C132 C134 1.365 . S
C133 C132 1.371 . S
C133 C143 1.386 . S
C133 H151 0.931 1_565 S
C134 C132 1.365 . S
C134 C135 1.409 . S
C134 H152 0.929 . S
C135 C134 1.409 . S
C135 C136 1.380 . S
C135 H153 0.930 . S
C136 C135 1.380 . S
C136 C143 1.357 . S
C137 C128 1.511 . S
C137 C138 1.341 . S
C137 C139 1.371 . S
C138 C137 1.341 . S
C138 C142 1.394 . S
C138 H154 0.930 . S
C139 C137 1.371 . S
C139 C140 1.392 . S
C139 H155 0.931 . S
C140 C139 1.392 . S
C140 C141 1.331 . S
C140 H158 0.932 . S
C141 C140 1.331 . S
C141 C142 1.336 . S
C142 C138 1.394 . S
C142 C141 1.336 . S
C142 H157 0.929 . S
C143 C133 1.386 . S
C143 C136 1.357 . S
C143 H156 0.928 . S
H144 C120 0.931 . S
H145 C122 0.930 . S
H146 C124 0.904 1_565 S
H147 C125 0.935 . S
H148 C127 0.930 . S
H149 C131 0.931 1_565 S
H150 C129 0.931 . S
H151 C133 0.931 1_545 S
H152 C134 0.929 . S
H153 C135 0.930 . S
H154 C138 0.930 . S
H155 C139 0.931 . S
H156 C143 0.928 . S
H157 C142 0.929 . S
H158 C140 0.932 . S
C159 C160 1.386 . S
C159 C161 1.397 . S
C159 H183 0.931 . S
C160 C159 1.386 . S
C160 C164 1.397 . S
C161 C159 1.397 . S
C161 C162 1.384 . S
C161 H184 0.930 . S
C162 C161 1.384 . S
C162 C163 1.377 . S
C162 C165 1.481 . S
C163 C162 1.377 . S
C163 C164 1.389 . S
C163 H185 0.929 . S
C164 C160 1.397 . S
C164 C163 1.389 . S
C164 H186 0.931 . S
C165 C162 1.481 . S
C165 C166 1.387 . S
C165 C170 1.390 . S
C166 C165 1.387 . S
C166 C167 1.401 . S
C166 H187 0.930 . S
C167 C166 1.401 . S
C167 C168 1.376 . S
C167 C176 1.511 . S
C168 C167 1.376 . S
C168 C169 1.392 . S
C168 H189 0.931 . S
C169 C168 1.392 . S
C169 C170 1.361 . S
C169 C171 1.500 . S
C170 C165 1.390 . S
C170 C169 1.361 . S
C170 H188 0.931 . S
C171 C169 1.500 . S
C171 C172 1.371 . S
C171 C173 1.365 . S
C172 C171 1.371 . S
C172 C182 1.386 . S
C172 H190 0.931 . S
C173 C171 1.365 . S
C173 C174 1.409 . S
C173 H191 0.929 . S
C174 C173 1.409 . S
C174 C175 1.380 . S
C174 H192 0.930 . S
C175 C174 1.380 . S
C175 C182 1.357 . S
C176 C167 1.511 . S
C176 C177 1.341 . S
C176 C178 1.371 . S
C177 C176 1.341 . S
C177 C181 1.394 . S
C177 H193 0.930 . S
C178 C176 1.371 . S
C178 C179 1.392 . S
C178 H194 0.931 . S
C179 C178 1.392 . S
C179 C180 1.331 . S
C179 H197 0.932 . S
C180 C179 1.331 . S
C180 C181 1.336 . S
C181 C177 1.394 . S
C181 C180 1.336 . S
C181 H196 0.929 . S
C182 C172 1.386 . S
C182 C175 1.357 . S
C182 H195 0.928 . S
H183 C159 0.931 . S
H184 C161 0.930 . S
H185 C163 0.929 . S
H186 C164 0.931 . S
H187 C166 0.930 . S
H188 C170 0.931 . S
H189 C168 0.931 . S
H190 C172 0.931 . S
H191 C173 0.929 . S
H192 C174 0.930 . S
H193 C177 0.930 . S
H194 C178 0.931 . S
H195 C182 0.928 . S
H196 C181 0.929 . S
H197 C179 0.932 . S
C198 C199 1.386 . S
C198 C200 1.397 . S
C198 H222 0.931 . S
C199 C198 1.386 . S
C199 C203 1.397 1_455 S
C200 C198 1.397 . S
C200 C201 1.384 . S
C200 H223 0.930 . S
C201 C200 1.384 . S
C201 C202 1.377 1_455 S
C201 C204 1.481 . S
C202 C201 1.377 1_655 S
C202 C203 1.389 . S
C202 H224 0.929 . S
C203 C199 1.397 1_655 S
C203 C202 1.389 . S
C203 H225 0.931 . S
C204 C201 1.481 . S
C204 C205 1.387 . S
C204 C209 1.390 1_455 S
C205 C204 1.387 . S
C205 C206 1.401 . S
C205 H226 0.930 . S
C206 C205 1.401 . S
C206 C207 1.376 . S
C206 C215 1.511 . S
C207 C206 1.376 . S
C207 C208 1.392 1_455 S
C207 H228 0.931 . S
C208 C207 1.392 1_655 S
C208 C209 1.361 . S
C208 C210 1.500 . S
C209 C204 1.390 1_655 S
C209 C208 1.361 . S
C209 H227 0.931 . S
C210 C208 1.500 . S
C210 C211 1.371 . S
C210 C212 1.365 . S
C211 C210 1.371 . S
C211 C221 1.386 . S
C211 H229 0.931 . S
C212 C210 1.365 . S
C212 C213 1.409 . S
C212 H230 0.929 . S
C213 C212 1.409 . S
C213 C214 1.380 . S
C213 H231 0.930 . S
C214 C213 1.380 . S
C214 C221 1.357 . S
C215 C206 1.511 . S
C215 C216 1.341 . S
C215 C217 1.371 . S
C216 C215 1.341 . S
C216 C220 1.394 . S
C216 H232 0.930 . S
C217 C215 1.371 . S
C217 C218 1.392 . S
C217 H233 0.931 . S
C218 C217 1.392 . S
C218 C219 1.331 . S
C218 H236 0.932 . S
C219 C218 1.331 . S
C219 C220 1.336 . S
C220 C216 1.394 . S
C220 C219 1.336 . S
C220 H235 0.929 . S
C221 C211 1.386 . S
C221 C214 1.357 . S
C221 H234 0.928 . S
H222 C198 0.931 . S
H223 C200 0.930 . S
H224 C202 0.929 . S
H225 C203 0.931 . S
H226 C205 0.930 . S
H227 C209 0.931 . S
H228 C207 0.931 . S
H229 C211 0.931 . S
H230 C212 0.929 . S
H231 C213 0.930 . S
H232 C216 0.930 . S
H233 C217 0.931 . S
H234 C221 0.928 . S
H235 C220 0.929 . S
H236 C218 0.932 . S
C237 C238 1.386 . S
C237 C239 1.397 . S
C237 H261 0.931 . S
C238 C237 1.386 . S
C238 C242 1.397 1_655 S
C239 C237 1.397 . S
C239 C240 1.384 . S
C239 H262 0.930 . S
C240 C239 1.384 . S
C240 C241 1.377 1_655 S
C240 C243 1.480 . S
C241 C240 1.377 1_455 S
C241 C242 1.389 . S
C241 H263 0.929 . S
C242 C238 1.397 1_455 S
C242 C241 1.389 . S
C242 H264 0.931 . S
C243 C240 1.480 . S
C243 C244 1.397 . S
C243 C248 1.381 1_655 S
C244 C243 1.397 . S
C244 C245 1.401 . S
C244 H265 0.930 . S
C245 C244 1.401 . S
C245 C246 1.376 1_655 S
C245 C254 1.511 . S
C246 C245 1.376 1_455 S
C246 C247 1.392 . S
C246 H267 0.931 . S
C247 C246 1.392 . S
C247 C248 1.361 . S
C247 C249 1.500 . S
C248 C243 1.381 1_455 S
C248 C247 1.361 . S
C248 H266 0.931 . S
C249 C247 1.500 . S
C249 C250 1.371 . S
C249 C251 1.365 . S
C250 C249 1.371 . S
C250 C260 1.386 . S
C250 H268 0.931 . S
C251 C249 1.365 . S
C251 C252 1.409 . S
C251 H269 0.929 . S
C252 C251 1.409 . S
C252 C253 1.380 . S
C252 H270 0.930 . S
C253 C252 1.380 . S
C253 C260 1.357 . S
C254 C245 1.511 . S
C254 C255 1.341 . S
C254 C256 1.371 . S
C255 C254 1.341 . S
C255 C259 1.394 . S
C255 H271 0.930 . S
C256 C254 1.371 . S
C256 C257 1.392 . S
C256 H272 0.931 . S
C257 C256 1.392 . S
C257 C258 1.331 . S
C257 H275 0.932 . S
C258 C257 1.331 . S
C258 C259 1.336 . S
C259 C255 1.394 . S
C259 C258 1.336 . S
C259 H274 0.929 . S
C260 C250 1.386 . S
C260 C253 1.357 . S
C260 H273 0.928 . S
H261 C237 0.931 . S
H262 C239 0.930 . S
H263 C241 0.929 . S
H264 C242 0.931 . S
H265 C244 0.930 . S
H266 C248 0.931 . S
H267 C246 0.931 . S
H268 C250 0.931 . S
H269 C251 0.929 . S
H270 C252 0.930 . S
H271 C255 0.930 . S
H272 C256 0.931 . S
H273 C260 0.928 . S
H274 C259 0.929 . S
H275 C257 0.932 . S
C276 C277 1.386 1_565 S
C276 C278 1.397 . S
C276 H300 0.931 . S
C277 C276 1.386 1_545 S
C277 C281 1.397 . S
C278 C276 1.397 . S
C278 C279 1.384 1_565 S
C278 H301 0.930 . S
C279 C278 1.384 1_545 S
C279 C280 1.377 . S
C279 C282 1.481 . S
C280 C279 1.377 . S
C280 C281 1.389 . S
C280 H302 0.929 . S
C281 C277 1.397 . S
C281 C280 1.389 . S
C281 H303 0.931 . S
C282 C279 1.481 . S
C282 C283 1.387 1_545 S
C282 C287 1.390 . S
C283 C282 1.387 1_565 S
C283 C284 1.401 . S
C283 H304 0.930 . S
C284 C283 1.401 . S
C284 C285 1.376 1_565 S
C284 C293 1.511 . S
C285 C284 1.376 1_545 S
C285 C286 1.392 . S
C285 H306 0.931 . S
C286 C285 1.392 . S
C286 C287 1.361 . S
C286 C288 1.500 . S
C287 C282 1.390 . S
C287 C286 1.361 . S
C287 H305 0.931 . S
C288 C286 1.500 . S
C288 C289 1.371 . S
C288 C290 1.365 . S
C289 C288 1.371 . S
C289 C299 1.386 . S
C289 H307 0.931 . S
C290 C288 1.365 . S
C290 C291 1.409 . S
C290 H308 0.929 . S
C291 C290 1.409 . S
C291 C292 1.380 . S
C291 H309 0.930 . S
C292 C291 1.380 . S
C292 C299 1.357 . S
C293 C284 1.511 . S
C293 C294 1.341 . S
C293 C295 1.371 . S
C294 C293 1.341 . S
C294 C298 1.394 . S
C294 H310 0.930 . S
C295 C293 1.371 . S
C295 C296 1.392 . S
C295 H311 0.931 . S
C296 C295 1.392 . S
C296 C297 1.331 . S
C296 H314 0.932 . S
C297 C296 1.331 . S
C297 C298 1.336 . S
C298 C294 1.394 . S
C298 C297 1.336 . S
C298 H313 0.929 . S
C299 C289 1.386 . S
C299 C292 1.357 . S
C299 H312 0.928 . S
H300 C276 0.931 . S
H301 C278 0.930 . S
H302 C280 0.929 . S
H303 C281 0.931 . S
H304 C283 0.930 . S
H305 C287 0.931 . S
H306 C285 0.931 . S
H307 C289 0.931 . S
H308 C290 0.929 . S
H309 C291 0.930 . S
H310 C294 0.930 . S
H311 C295 0.931 . S
H312 C299 0.928 . S
H313 C298 0.929 . S
H314 C296 0.932 . S
C315 C316 1.386 . S
C315 C317 1.397 . S
C315 H339 0.931 . S
C316 C315 1.386 . S
C316 C320 1.397 . S
C317 C315 1.397 . S
C317 C318 1.384 . S
C317 H340 0.930 . S
C318 C317 1.384 . S
C318 C319 1.377 . S
C318 C321 1.481 . S
C319 C318 1.377 . S
C319 C320 1.389 . S
C319 H341 0.929 . S
C320 C316 1.397 . S
C320 C319 1.389 . S
C320 H342 0.931 . S
C321 C318 1.481 . S
C321 C322 1.387 . S
C321 C326 1.390 . S
C322 C321 1.387 . S
C322 C323 1.401 . S
C322 H343 0.930 . S
C323 C322 1.401 . S
C323 C324 1.376 . S
C323 C332 1.511 . S
C324 C323 1.376 . S
C324 C325 1.392 . S
C324 H345 0.931 . S
C325 C324 1.392 . S
C325 C326 1.361 . S
C325 C327 1.500 . S
C326 C321 1.390 . S
C326 C325 1.361 . S
C326 H344 0.931 . S
C327 C325 1.500 . S
C327 C328 1.371 . S
C327 C329 1.365 . S
C328 C327 1.371 . S
C328 C338 1.386 . S
C328 H346 0.931 . S
C329 C327 1.365 . S
C329 C330 1.409 . S
C329 H347 0.929 . S
C330 C329 1.409 . S
C330 C331 1.380 . S
C330 H348 0.930 . S
C331 C330 1.380 . S
C331 C338 1.357 . S
C332 C323 1.511 . S
C332 C333 1.341 . S
C332 C334 1.371 . S
C333 C332 1.341 . S
C333 C337 1.394 . S
C333 H349 0.930 . S
C334 C332 1.371 . S
C334 C335 1.392 . S
C334 H350 0.931 . S
C335 C334 1.392 . S
C335 C336 1.331 . S
C335 H353 0.932 . S
C336 C335 1.331 . S
C336 C337 1.336 . S
C337 C333 1.394 . S
C337 C336 1.336 . S
C337 H352 0.929 . S
C338 C328 1.386 . S
C338 C331 1.357 . S
C338 H351 0.928 . S
H339 C315 0.931 . S
H340 C317 0.930 . S
H341 C319 0.929 . S
H342 C320 0.931 . S
H343 C322 0.930 . S
H344 C326 0.931 . S
H345 C324 0.931 . S
H346 C328 0.931 . S
H347 C329 0.929 . S
H348 C330 0.930 . S
H349 C333 0.930 . S
H350 C334 0.931 . S
H351 C338 0.928 . S
H352 C337 0.929 . S
H353 C335 0.932 . S
H354 C366 0.930 . S
H355 C368 0.930 . S
H356 C369 0.930 . S
H357 C373 0.959 . S
H358 C373 0.959 . S
H359 C373 0.961 . S
H360 C374 0.960 . S
H361 C374 0.961 . S
H362 C374 0.959 . S
H363 C377 0.929 . S
H364 C378 0.931 . S
H365 C380 0.930 . S
C366 H354 0.930 . S
C366 C367 1.399 . S
C366 C371 1.399 . S
C367 C366 1.399 . S
C367 C368 1.376 . S
C368 H355 0.930 . S
C368 C367 1.376 . S
C368 C369 1.388 . S
C369 H356 0.930 . S
C369 C368 1.388 . S
C369 C370 1.390 . S
C370 C369 1.390 . S
C370 C371 1.394 . S
C370 C376 1.465 . S
C371 C366 1.399 . S
C371 C370 1.394 . S
C371 C372 1.516 . S
C372 C371 1.516 . S
C372 C373 1.502 . S
C372 C374 1.561 . S
C372 C375 1.526 . S
C373 H357 0.959 . S
C373 H358 0.959 . S
C373 H359 0.961 . S
C373 C372 1.502 . S
C374 H360 0.960 . S
C374 H361 0.961 . S
C374 H362 0.959 . S
C374 C372 1.561 . S
C375 C372 1.526 . S
C375 C376 1.396 . S
C375 C380 1.390 . S
C376 C370 1.465 . S
C376 C375 1.396 . S
C376 C377 1.399 . S
C377 H363 0.929 . S
C377 C376 1.399 . S
C377 C378 1.385 . S
C378 H364 0.931 . S
C378 C377 1.385 . S
C378 C379 1.389 . S
C379 C378 1.389 . S
C379 C380 1.387 . S
C380 H365 0.930 . S
C380 C375 1.390 . S
C380 C379 1.387 . S
H381 C393 0.930 . S
H382 C395 0.930 . S
H383 C396 0.930 . S
H384 C400 0.959 . S
H385 C400 0.959 . S
H386 C400 0.961 . S
H387 C401 0.960 . S
H388 C401 0.961 . S
H389 C401 0.959 . S
H390 C404 0.929 . S
H391 C405 0.931 . S
H392 C407 0.930 . S
C393 H381 0.930 . S
C393 C394 1.399 . S
C393 C398 1.399 . S
C394 C393 1.399 . S
C394 C395 1.376 . S
C395 H382 0.930 . S
C395 C394 1.376 . S
C395 C396 1.388 . S
C396 H383 0.930 . S
C396 C395 1.388 . S
C396 C397 1.390 . S
C397 C396 1.390 . S
C397 C398 1.394 . S
C397 C403 1.465 . S
C398 C393 1.399 . S
C398 C397 1.394 . S
C398 C399 1.516 . S
C399 C398 1.516 . S
C399 C400 1.502 . S
C399 C401 1.561 . S
C399 C402 1.526 . S
C400 H384 0.959 . S
C400 H385 0.959 . S
C400 H386 0.961 . S
C400 C399 1.502 . S
C401 H387 0.960 . S
C401 H388 0.961 . S
C401 H389 0.959 . S
C401 C399 1.561 . S
C402 C399 1.526 . S
C402 C403 1.396 . S
C402 C407 1.390 . S
C403 C397 1.465 . S
C403 C402 1.396 . S
C403 C404 1.399 . S
C404 H390 0.929 . S
C404 C403 1.399 . S
C404 C405 1.385 . S
C405 H391 0.931 . S
C405 C404 1.385 . S
C405 C406 1.389 . S
C406 C405 1.389 . S
C406 C407 1.387 . S
C407 H392 0.930 . S
C407 C402 1.390 . S
C407 C406 1.387 . S
H408 C420 0.930 . S
H409 C422 0.930 . S
H410 C423 0.930 . S
H411 C427 0.959 . S
H412 C427 0.959 . S
H413 C427 0.961 . S
H414 C428 0.960 . S
H415 C428 0.961 . S
H416 C428 0.959 . S
H417 C431 0.929 . S
H418 C432 0.931 . S
H419 C434 0.930 . S
C420 H408 0.930 . S
C420 C421 1.399 . S
C420 C425 1.399 . S
C421 C420 1.399 . S
C421 C422 1.376 . S
C422 H409 0.930 . S
C422 C421 1.376 . S
C422 C423 1.388 . S
C423 H410 0.930 . S
C423 C422 1.388 . S
C423 C424 1.390 . S
C424 C423 1.390 . S
C424 C425 1.394 . S
C424 C430 1.465 . S
C425 C420 1.399 . S
C425 C424 1.394 . S
C425 C426 1.516 . S
C426 C425 1.516 . S
C426 C427 1.502 . S
C426 C428 1.561 . S
C426 C429 1.526 . S
C427 H411 0.959 . S
C427 H412 0.959 . S
C427 H413 0.961 . S
C427 C426 1.502 . S
C428 H414 0.960 . S
C428 H415 0.961 . S
C428 H416 0.959 . S
C428 C426 1.561 . S
C429 C426 1.526 . S
C429 C430 1.396 . S
C429 C434 1.390 . S
C430 C424 1.465 . S
C430 C429 1.396 . S
C430 C431 1.399 . S
C431 H417 0.929 . S
C431 C430 1.399 . S
C431 C432 1.385 . S
C432 H418 0.931 . S
C432 C431 1.385 . S
C432 C433 1.389 . S
C433 C432 1.389 . S
C433 C434 1.387 . S
C434 H419 0.930 . S
C434 C429 1.390 . S
C434 C433 1.387 . S
H435 C447 0.930 . S
H436 C449 0.930 . S
H437 C450 0.930 . S
H438 C454 0.959 . S
H439 C454 0.959 . S
H440 C454 0.961 . S
H441 C455 0.960 . S
H442 C455 0.961 . S
H443 C455 0.959 . S
H444 C458 0.929 . S
H445 C459 0.931 . S
H446 C461 0.930 . S
C447 H435 0.930 . S
C447 C448 1.399 . S
C447 C452 1.399 . S
C448 C447 1.399 . S
C448 C449 1.376 . S
C449 H436 0.930 . S
C449 C448 1.376 . S
C449 C450 1.388 . S
C450 H437 0.930 . S
C450 C449 1.388 . S
C450 C451 1.390 . S
C451 C450 1.390 . S
C451 C452 1.394 . S
C451 C457 1.465 . S
C452 C447 1.399 . S
C452 C451 1.394 . S
C452 C453 1.516 . S
C453 C452 1.516 . S
C453 C454 1.502 . S
C453 C455 1.561 . S
C453 C456 1.526 . S
C454 H438 0.959 . S
C454 H439 0.959 . S
C454 H440 0.961 . S
C454 C453 1.502 . S
C455 H441 0.960 . S
C455 H442 0.961 . S
C455 H443 0.959 . S
C455 C453 1.561 . S
C456 C453 1.526 . S
C456 C457 1.396 . S
C456 C461 1.390 . S
C457 C451 1.465 . S
C457 C456 1.396 . S
C457 C458 1.399 . S
C458 H444 0.929 . S
C458 C457 1.399 . S
C458 C459 1.385 . S
C459 H445 0.931 . S
C459 C458 1.385 . S
C459 C460 1.389 . S
C460 C459 1.389 . S
C460 C461 1.387 . S
C461 H446 0.930 . S
C461 C456 1.390 . S
C461 C460 1.387 . S
H462 C474 0.930 . S
H463 C476 0.930 . S
H464 C477 0.930 . S
H465 C481 0.959 . S
H466 C481 0.959 . S
H467 C481 0.961 . S
H468 C482 0.960 . S
H469 C482 0.961 . S
H470 C482 0.959 . S
H471 C485 0.929 . S
H472 C486 0.931 . S
H473 C488 0.930 . S
C474 H462 0.930 . S
C474 C475 1.399 . S
C474 C479 1.399 . S
C475 C474 1.399 . S
C475 C476 1.376 . S
C476 H463 0.930 . S
C476 C475 1.376 . S
C476 C477 1.388 . S
C477 H464 0.930 . S
C477 C476 1.388 . S
C477 C478 1.390 . S
C478 C477 1.390 . S
C478 C479 1.394 . S
C478 C484 1.465 . S
C479 C474 1.399 . S
C479 C478 1.394 . S
C479 C480 1.516 . S
C480 C479 1.516 . S
C480 C481 1.502 . S
C480 C482 1.561 . S
C480 C483 1.526 . S
C481 H465 0.959 . S
C481 H466 0.959 . S
C481 H467 0.961 . S
C481 C480 1.502 . S
C482 H468 0.960 . S
C482 H469 0.961 . S
C482 H470 0.959 . S
C482 C480 1.561 . S
C483 C480 1.526 . S
C483 C484 1.396 . S
C483 C488 1.390 . S
C484 C478 1.465 . S
C484 C483 1.396 . S
C484 C485 1.399 . S
C485 H471 0.929 . S
C485 C484 1.399 . S
C485 C486 1.385 . S
C486 H472 0.931 . S
C486 C485 1.385 . S
C486 C487 1.389 . S
C487 C486 1.389 . S
C487 C488 1.387 . S
C488 H473 0.930 . S
C488 C483 1.390 . S
C488 C487 1.387 . S
H489 C501 0.930 . S
H490 C503 0.930 . S
H491 C504 0.930 . S
H492 C508 0.959 . S
H493 C508 0.959 . S
H494 C508 0.961 . S
H495 C509 0.960 . S
H496 C509 0.961 . S
H497 C509 0.959 . S
H498 C512 0.929 . S
H499 C513 0.931 . S
H500 C515 0.930 . S
C501 H489 0.930 . S
C501 C502 1.399 . S
C501 C506 1.399 . S
C502 C501 1.399 . S
C502 C503 1.376 . S
C503 H490 0.930 . S
C503 C502 1.376 . S
C503 C504 1.388 . S
C504 H491 0.930 . S
C504 C503 1.388 . S
C504 C505 1.390 . S
C505 C504 1.390 . S
C505 C506 1.394 . S
C505 C511 1.465 . S
C506 C501 1.399 . S
C506 C505 1.394 . S
C506 C507 1.516 . S
C507 C506 1.516 . S
C507 C508 1.502 . S
C507 C509 1.561 . S
C507 C510 1.526 . S
C508 H492 0.959 . S
C508 H493 0.959 . S
C508 H494 0.961 . S
C508 C507 1.502 . S
C509 H495 0.960 . S
C509 H496 0.961 . S
C509 H497 0.959 . S
C509 C507 1.561 . S
C510 C507 1.526 . S
C510 C511 1.396 . S
C510 C515 1.390 . S
C511 C505 1.465 . S
C511 C510 1.396 . S
C511 C512 1.399 . S
C512 H498 0.929 . S
C512 C511 1.399 . S
C512 C513 1.385 . S
C513 H499 0.931 . S
C513 C512 1.385 . S
C513 C514 1.389 . S
C514 C513 1.389 . S
C514 C515 1.387 . S
C515 H500 0.930 . S
C515 C510 1.390 . S
C515 C514 1.387 . S
H516 C528 0.930 . S
H517 C530 0.930 . S
H518 C531 0.930 . S
H519 C535 0.959 . S
H520 C535 0.959 . S
H521 C535 0.961 . S
H522 C536 0.960 . S
H523 C536 0.961 . S
H524 C536 0.959 . S
H525 C539 0.929 . S
H526 C540 0.931 . S
H527 C542 0.930 . S
C528 H516 0.930 . S
C528 C529 1.399 . S
C528 C533 1.399 . S
C529 C528 1.399 . S
C529 C530 1.376 . S
C530 H517 0.930 . S
C530 C529 1.376 . S
C530 C531 1.388 . S
C531 H518 0.930 . S
C531 C530 1.388 . S
C531 C532 1.390 . S
C532 C531 1.390 . S
C532 C533 1.394 . S
C532 C538 1.465 . S
C533 C528 1.399 . S
C533 C532 1.394 . S
C533 C534 1.516 . S
C534 C533 1.516 . S
C534 C535 1.502 . S
C534 C536 1.561 . S
C534 C537 1.526 . S
C535 H519 0.959 . S
C535 H520 0.959 . S
C535 H521 0.961 . S
C535 C534 1.502 . S
C536 H522 0.960 . S
C536 H523 0.961 . S
C536 H524 0.959 . S
C536 C534 1.561 . S
C537 C534 1.526 . S
C537 C538 1.396 . S
C537 C542 1.390 . S
C538 C532 1.465 . S
C538 C537 1.396 . S
C538 C539 1.399 . S
C539 H525 0.929 . S
C539 C538 1.399 . S
C539 C540 1.385 . S
C540 H526 0.931 . S
C540 C539 1.385 . S
C540 C541 1.389 . S
C541 C540 1.389 . S
C541 C542 1.387 . S
C542 H527 0.930 . S
C542 C537 1.390 . S
C542 C541 1.387 . S
H543 C555 0.930 . S
H544 C557 0.930 . S
H545 C558 0.930 . S
H546 C562 0.959 . S
H547 C562 0.959 . S
H548 C562 0.961 . S
H549 C563 0.960 . S
H550 C563 0.961 . S
H551 C563 0.959 . S
H552 C566 0.929 . S
H553 C567 0.931 . S
H554 C569 0.930 . S
C555 H543 0.930 . S
C555 C556 1.399 . S
C555 C560 1.399 . S
C556 C555 1.399 . S
C556 C557 1.376 . S
C557 H544 0.930 . S
C557 C556 1.376 . S
C557 C558 1.388 . S
C558 H545 0.930 . S
C558 C557 1.388 . S
C558 C559 1.390 . S
C559 C558 1.390 . S
C559 C560 1.394 . S
C559 C565 1.465 . S
C560 C555 1.399 . S
C560 C559 1.394 . S
C560 C561 1.516 . S
C561 C560 1.516 . S
C561 C562 1.502 . S
C561 C563 1.561 . S
C561 C564 1.526 . S
C562 H546 0.959 . S
C562 H547 0.959 . S
C562 H548 0.961 . S
C562 C561 1.502 . S
C563 H549 0.960 . S
C563 H550 0.961 . S
C563 H551 0.959 . S
C563 C561 1.561 . S
C564 C561 1.526 . S
C564 C565 1.396 . S
C564 C569 1.390 . S
C565 C559 1.465 . S
C565 C564 1.396 . S
C565 C566 1.399 . S
C566 H552 0.929 . S
C566 C565 1.399 . S
C566 C567 1.385 . S
C567 H553 0.931 . S
C567 C566 1.385 . S
C567 C568 1.389 . S
C568 C567 1.389 . S
C568 C569 1.387 . S
C569 H554 0.930 . S
C569 C564 1.390 . S
C569 C568 1.387 . S
H570 C582 0.930 . S
H571 C584 0.930 . S
H572 C585 0.930 . S
H573 C589 0.959 . S
H574 C589 0.959 . S
H575 C589 0.961 . S
H576 C590 0.960 . S
H577 C590 0.961 . S
H578 C590 0.959 . S
H579 C593 0.929 . S
H580 C594 0.931 . S
H581 C596 0.930 . S
C582 H570 0.930 . S
C582 C583 1.399 . S
C582 C587 1.399 . S
C583 C582 1.399 . S
C583 C584 1.376 . S
C584 H571 0.930 . S
C584 C583 1.376 . S
C584 C585 1.388 . S
C585 H572 0.930 . S
C585 C584 1.388 . S
C585 C586 1.390 . S
C586 C585 1.390 . S
C586 C587 1.394 . S
C586 C592 1.465 . S
C587 C582 1.399 . S
C587 C586 1.394 . S
C587 C588 1.516 . S
C588 C587 1.516 . S
C588 C589 1.502 . S
C588 C590 1.561 . S
C588 C591 1.526 . S
C589 H573 0.959 . S
C589 H574 0.959 . S
C589 H575 0.961 . S
C589 C588 1.502 . S
C590 H576 0.960 . S
C590 H577 0.961 . S
C590 H578 0.959 . S
C590 C588 1.561 . S
C591 C588 1.526 . S
C591 C592 1.396 . S
C591 C596 1.390 . S
C592 C586 1.465 . S
C592 C591 1.396 . S
C592 C593 1.399 . S
C593 H579 0.929 . S
C593 C592 1.399 . S
C593 C594 1.385 . S
C594 H580 0.931 . S
C594 C593 1.385 . S
C594 C595 1.389 . S
C595 C594 1.389 . S
C595 C596 1.387 . S
C596 H581 0.930 . S
C596 C591 1.390 . S
C596 C595 1.387 . S
H597 C609 0.930 . S
H598 C611 0.930 . S
H599 C612 0.930 . S
H600 C616 0.959 . S
H601 C616 0.959 . S
H602 C616 0.961 . S
H603 C617 0.960 . S
H604 C617 0.961 . S
H605 C617 0.959 . S
H606 C620 0.929 . S
H607 C621 0.931 . S
H608 C623 0.930 . S
C609 H597 0.930 . S
C609 C610 1.399 . S
C609 C614 1.399 . S
C610 C609 1.399 . S
C610 C611 1.376 . S
C611 H598 0.930 . S
C611 C610 1.376 . S
C611 C612 1.388 . S
C612 H599 0.930 . S
C612 C611 1.388 . S
C612 C613 1.390 . S
C613 C612 1.390 . S
C613 C614 1.394 . S
C613 C619 1.465 . S
C614 C609 1.399 . S
C614 C613 1.394 . S
C614 C615 1.516 . S
C615 C614 1.516 . S
C615 C616 1.502 . S
C615 C617 1.561 . S
C615 C618 1.526 . S
C616 H600 0.959 . S
C616 H601 0.959 . S
C616 H602 0.961 . S
C616 C615 1.502 . S
C617 H603 0.960 . S
C617 H604 0.961 . S
C617 H605 0.959 . S
C617 C615 1.561 . S
C618 C615 1.526 . S
C618 C619 1.396 . S
C618 C623 1.390 . S
C619 C613 1.465 . S
C619 C618 1.396 . S
C619 C620 1.399 . S
C620 H606 0.929 . S
C620 C619 1.399 . S
C620 C621 1.385 . S
C621 H607 0.931 . S
C621 C620 1.385 . S
C621 C622 1.389 . S
C622 C621 1.389 . S
C622 C623 1.387 . S
C623 H608 0.930 . S
C623 C618 1.390 . S
C623 C622 1.387 . S
H624 C636 0.930 . S
H625 C638 0.930 . S
H626 C639 0.930 . S
H627 C643 0.959 . S
H628 C643 0.959 . S
H629 C643 0.961 . S
H630 C644 0.960 . S
H631 C644 0.961 . S
H632 C644 0.959 . S
H633 C647 0.929 . S
H634 C648 0.931 . S
H635 C650 0.930 . S
C636 H624 0.930 . S
C636 C637 1.399 . S
C636 C641 1.399 . S
C637 C636 1.399 . S
C637 C638 1.376 . S
C638 H625 0.930 . S
C638 C637 1.376 . S
C638 C639 1.388 . S
C639 H626 0.930 . S
C639 C638 1.388 . S
C639 C640 1.390 . S
C640 C639 1.390 . S
C640 C641 1.394 . S
C640 C646 1.465 . S
C641 C636 1.399 . S
C641 C640 1.394 . S
C641 C642 1.516 . S
C642 C641 1.516 . S
C642 C643 1.502 . S
C642 C644 1.561 . S
C642 C645 1.526 . S
C643 H627 0.959 . S
C643 H628 0.959 . S
C643 H629 0.961 . S
C643 C642 1.502 . S
C644 H630 0.960 . S
C644 H631 0.961 . S
C644 H632 0.959 . S
C644 C642 1.561 . S
C645 C642 1.526 . S
C645 C646 1.396 . S
C645 C650 1.390 . S
C646 C640 1.465 . S
C646 C645 1.396 . S
C646 C647 1.399 . S
C647 H633 0.929 . S
C647 C646 1.399 . S
C647 C648 1.385 . S
C648 H634 0.931 . S
C648 C647 1.385 . S
C648 C649 1.389 . S
C649 C648 1.389 . S
C649 C650 1.387 . S
C650 H635 0.930 . S
C650 C645 1.390 . S
C650 C649 1.387 . S
H651 C663 0.930 . S
H652 C665 0.930 . S
H653 C666 0.930 . S
H654 C670 0.959 . S
H655 C670 0.959 . S
H656 C670 0.961 . S
H657 C671 0.960 . S
H658 C671 0.961 . S
H659 C671 0.959 . S
H660 C674 0.929 . S
H661 C675 0.931 . S
H662 C677 0.930 . S
C663 H651 0.930 . S
C663 C664 1.399 . S
C663 C668 1.399 . S
C664 C663 1.399 . S
C664 C665 1.376 . S
C665 H652 0.930 . S
C665 C664 1.376 . S
C665 C666 1.388 . S
C666 H653 0.930 . S
C666 C665 1.388 . S
C666 C667 1.390 . S
C667 C666 1.390 . S
C667 C668 1.394 . S
C667 C673 1.465 . S
C668 C663 1.399 . S
C668 C667 1.394 . S
C668 C669 1.516 . S
C669 C668 1.516 . S
C669 C670 1.502 . S
C669 C671 1.561 . S
C669 C672 1.526 . S
C670 H654 0.959 . S
C670 H655 0.959 . S
C670 H656 0.961 . S
C670 C669 1.502 . S
C671 H657 0.960 . S
C671 H658 0.961 . S
C671 H659 0.959 . S
C671 C669 1.561 . S
C672 C669 1.526 . S
C672 C673 1.396 . S
C672 C677 1.390 . S
C673 C667 1.465 . S
C673 C672 1.396 . S
C673 C674 1.399 . S
C674 H660 0.929 . S
C674 C673 1.399 . S
C674 C675 1.385 . S
C675 H661 0.931 . S
C675 C674 1.385 . S
C675 C676 1.389 . S
C676 C675 1.389 . S
C676 C677 1.387 . S
C677 H662 0.930 . S
C677 C672 1.390 . S
C677 C676 1.387 . S
H678 C690 0.930 . S
H679 C692 0.930 . S
H680 C693 0.930 . S
H681 C697 0.959 . S
H682 C697 0.959 . S
H683 C697 0.961 . S
H684 C698 0.960 . S
H685 C698 0.961 . S
H686 C698 0.959 . S
H687 C701 0.929 . S
H688 C702 0.931 1_556 S
H689 C704 0.930 . S
C690 H678 0.930 . S
C690 C691 1.399 . S
C690 C695 1.399 . S
C691 C690 1.399 . S
C691 C692 1.376 . S
C692 H679 0.930 . S
C692 C691 1.376 . S
C692 C693 1.388 . S
C693 H680 0.930 . S
C693 C692 1.388 . S
C693 C694 1.390 . S
C694 C693 1.390 . S
C694 C695 1.394 . S
C694 C700 1.465 . S
C695 C690 1.399 . S
C695 C694 1.394 . S
C695 C696 1.516 . S
C696 C695 1.516 . S
C696 C697 1.502 . S
C696 C698 1.561 1_455 S
C696 C699 1.526 . S
C697 H681 0.959 . S
C697 H682 0.959 . S
C697 H683 0.961 . S
C697 C696 1.502 . S
C698 H684 0.960 . S
C698 H685 0.961 . S
C698 H686 0.959 . S
C698 C696 1.561 1_655 S
C699 C696 1.526 . S
C699 C700 1.396 . S
C699 C704 1.390 . S
C700 C694 1.465 . S
C700 C699 1.396 . S
C700 C701 1.399 . S
C701 H687 0.929 . S
C701 C700 1.399 . S
C701 C702 1.385 . S
C702 H688 0.931 1_554 S
C702 C701 1.385 . S
C702 C703 1.389 1_554 S
C703 C702 1.389 1_556 S
C703 C704 1.387 1_556 S
C704 H689 0.930 . S
C704 C699 1.390 . S
C704 C703 1.387 1_554 S
H705 C717 0.930 . S
H706 C719 0.930 . S
H707 C720 0.930 . S
H708 C724 0.959 . S
H709 C724 0.959 . S
H710 C724 0.961 . S
H711 C725 0.960 . S
H712 C725 0.961 . S
H713 C725 0.959 . S
H714 C728 0.929 . S
H715 C729 0.931 . S
H716 C731 0.930 . S
C717 H705 0.930 . S
C717 C718 1.399 . S
C717 C722 1.399 . S
C718 C717 1.399 . S
C718 C719 1.376 1_545 S
C719 H706 0.930 . S
C719 C718 1.376 1_565 S
C719 C720 1.388 . S
C720 H707 0.930 . S
C720 C719 1.388 . S
C720 C721 1.390 1_565 S
C721 C720 1.390 1_545 S
C721 C722 1.394 . S
C721 C727 1.465 . S
C722 C717 1.399 . S
C722 C721 1.394 . S
C722 C723 1.516 . S
C723 C722 1.516 . S
C723 C724 1.502 . S
C723 C725 1.561 . S
C723 C726 1.526 . S
C724 H708 0.959 . S
C724 H709 0.959 . S
C724 H710 0.961 . S
C724 C723 1.502 . S
C725 H711 0.960 . S
C725 H712 0.961 . S
C725 H713 0.959 . S
C725 C723 1.561 . S
C726 C723 1.526 . S
C726 C727 1.396 . S
C726 C731 1.390 . S
C727 C721 1.465 . S
C727 C726 1.396 . S
C727 C728 1.399 1_545 S
C728 H714 0.929 . S
C728 C727 1.399 1_565 S
C728 C729 1.385 . S
C729 H715 0.931 . S
C729 C728 1.385 . S
C729 C730 1.389 1_565 S
C730 C729 1.389 1_545 S
C730 C731 1.387 . S
C731 H716 0.930 . S
C731 C726 1.390 . S
C731 C730 1.387 . S
H732 C744 0.930 . S
H733 C746 0.930 . S
H734 C747 0.930 . S
H735 C751 0.959 . S
H736 C751 0.959 . S
H737 C751 0.961 . S
H738 C752 0.960 . S
H739 C752 0.961 . S
H740 C752 0.959 . S
H741 C755 0.929 . S
H742 C756 0.931 . S
H743 C758 0.930 . S
C744 H732 0.930 . S
C744 C745 1.399 . S
C744 C749 1.399 . S
C745 C744 1.399 . S
C745 C746 1.376 . S
C746 H733 0.930 . S
C746 C745 1.376 . S
C746 C747 1.388 . S
C747 H734 0.930 . S
C747 C746 1.388 . S
C747 C748 1.390 . S
C748 C747 1.390 . S
C748 C749 1.394 . S
C748 C754 1.465 . S
C749 C744 1.399 . S
C749 C748 1.394 . S
C749 C750 1.516 . S
C750 C749 1.516 . S
C750 C751 1.502 . S
C750 C752 1.561 . S
C750 C753 1.526 . S
C751 H735 0.959 . S
C751 H736 0.959 . S
C751 H737 0.961 . S
C751 C750 1.502 . S
C752 H738 0.960 . S
C752 H739 0.961 . S
C752 H740 0.959 . S
C752 C750 1.561 . S
C753 C750 1.526 . S
C753 C754 1.396 . S
C753 C758 1.390 . S
C754 C748 1.465 . S
C754 C753 1.396 . S
C754 C755 1.399 . S
C755 H741 0.929 . S
C755 C754 1.399 . S
C755 C756 1.385 . S
C756 H742 0.931 . S
C756 C755 1.385 . S
C756 C757 1.389 . S
C757 C756 1.389 . S
C757 C758 1.387 . S
C758 H743 0.930 . S
C758 C753 1.390 . S
C758 C757 1.387 . S
H759 C771 0.930 . S
H760 C773 0.930 . S
H761 C774 0.930 . S
H762 C778 0.959 . S
H763 C778 0.959 . S
H764 C778 0.961 . S
H765 C779 0.960 . S
H766 C779 0.961 . S
H767 C779 0.959 . S
H768 C782 0.929 . S
H769 C783 0.931 . S
H770 C785 0.930 . S
C771 H759 0.930 . S
C771 C772 1.399 . S
C771 C776 1.399 . S
C772 C771 1.399 . S
C772 C773 1.376 1_545 S
C773 H760 0.930 . S
C773 C772 1.376 1_565 S
C773 C774 1.388 . S
C774 H761 0.930 . S
C774 C773 1.388 . S
C774 C775 1.390 . S
C775 C774 1.390 . S
C775 C776 1.394 1_565 S
C775 C781 1.465 . S
C776 C771 1.399 . S
C776 C775 1.394 1_545 S
C776 C777 1.516 . S
C777 C776 1.516 . S
C777 C778 1.502 . S
C777 C779 1.561 . S
C777 C780 1.526 . S
C778 H762 0.959 . S
C778 H763 0.959 . S
C778 H764 0.961 . S
C778 C777 1.502 . S
C779 H765 0.960 . S
C779 H766 0.961 . S
C779 H767 0.959 . S
C779 C777 1.561 . S
C780 C777 1.526 . S
C780 C781 1.396 1_545 S
C780 C785 1.390 . S
C781 C775 1.465 . S
C781 C780 1.396 1_565 S
C781 C782 1.399 . S
C782 H768 0.929 . S
C782 C781 1.399 . S
C782 C783 1.385 . S
C783 H769 0.931 . S
C783 C782 1.385 . S
C783 C784 1.389 1_565 S
C784 C783 1.389 1_545 S
C784 C785 1.387 . S
C785 H770 0.930 . S
C785 C780 1.390 . S
C785 C784 1.387 . S
H786 C798 0.930 . S
H787 C800 0.930 . S
H788 C801 0.930 . S
H789 C805 0.959 . S
H790 C805 0.959 . S
H791 C805 0.961 . S
H792 C806 0.960 . S
H793 C806 0.961 . S
H794 C806 0.959 . S
H795 C809 0.929 . S
H796 C810 0.931 1_554 S
H797 C812 0.930 . S
C798 H786 0.930 . S
C798 C799 1.399 . S
C798 C803 1.399 . S
C799 C798 1.399 . S
C799 C800 1.376 . S
C800 H787 0.930 . S
C800 C799 1.376 . S
C800 C801 1.388 . S
C801 H788 0.930 . S
C801 C800 1.388 . S
C801 C802 1.390 . S
C802 C801 1.390 . S
C802 C803 1.394 . S
C802 C808 1.465 . S
C803 C798 1.399 . S
C803 C802 1.394 . S
C803 C804 1.516 . S
C804 C803 1.516 . S
C804 C805 1.502 . S
C804 C806 1.561 . S
C804 C807 1.526 . S
C805 H789 0.959 . S
C805 H790 0.959 . S
C805 H791 0.961 . S
C805 C804 1.502 . S
C806 H792 0.960 . S
C806 H793 0.961 . S
C806 H794 0.959 . S
C806 C804 1.561 . S
C807 C804 1.526 . S
C807 C808 1.396 . S
C807 C812 1.390 . S
C808 C802 1.465 . S
C808 C807 1.396 . S
C808 C809 1.399 . S
C809 H795 0.929 . S
C809 C808 1.399 . S
C809 C810 1.385 . S
C810 H796 0.931 1_556 S
C810 C809 1.385 . S
C810 C811 1.389 1_556 S
C811 C810 1.389 1_554 S
C811 C812 1.387 1_554 S
C812 H797 0.930 . S
C812 C807 1.390 . S
C812 C811 1.387 1_556 S
H813 C825 0.930 . S
H814 C827 0.930 . S
H815 C828 0.930 . S
H816 C832 0.959 . S
H817 C832 0.959 . S
H818 C832 0.961 . S
H819 C833 0.960 . S
H820 C833 0.961 . S
H821 C833 0.959 1_655 S
H822 C836 0.929 . S
H823 C837 0.931 . S
H824 C839 0.930 . S
C825 H813 0.930 . S
C825 C826 1.399 . S
C825 C830 1.399 . S
C826 C825 1.399 . S
C826 C827 1.376 1_455 S
C827 H814 0.930 . S
C827 C826 1.376 1_655 S
C827 C828 1.388 . S
C828 H815 0.930 . S
C828 C827 1.388 . S
C828 C829 1.390 . S
C829 C828 1.390 . S
C829 C830 1.394 1_655 S
C829 C835 1.465 . S
C830 C825 1.399 . S
C830 C829 1.394 1_455 S
C830 C831 1.516 . S
C831 C830 1.516 . S
C831 C832 1.502 . S
C831 C833 1.561 . S
C831 C834 1.526 . S
C832 H816 0.959 . S
C832 H817 0.959 . S
C832 H818 0.961 . S
C832 C831 1.502 . S
C833 H819 0.960 . S
C833 H820 0.961 . S
C833 H821 0.959 1_455 S
C833 C831 1.561 . S
C834 C831 1.526 . S
C834 C835 1.396 1_455 S
C834 C839 1.390 . S
C835 C829 1.465 . S
C835 C834 1.396 1_655 S
C835 C836 1.399 . S
C836 H822 0.929 . S
C836 C835 1.399 . S
C836 C837 1.385 . S
C837 H823 0.931 . S
C837 C836 1.385 . S
C837 C838 1.389 . S
C838 C837 1.389 . S
C838 C839 1.387 1_655 S
C839 H824 0.930 . S
C839 C834 1.390 . S
C839 C838 1.387 1_455 S
C367 C19 1.933 . S
C379 C331 1.910 . S
C394 C46 1.243 . S
C406 C258 1.250 . S
C421 C95 0.324 . S
C433 C297 0.304 . S
C448 C10 2.030 . S
C460 C336 2.000 . S
C487 C253 1.282 . S
C475 C55 1.269 . S
C514 C292 0.586 . S
C502 C86 0.662 . S
C529 C59 3.112 . S
C541 C180 3.046 . S
C556 C90 2.042 . S
C568 C214 2.024 . S
C583 C15 1.246 . S
C595 C136 1.273 . S
C622 C175 2.953 . S
C610 C50 2.994 . S
C649 C219 1.858 . S
C637 C99 1.921 . S
C664 C6 1.231 . S
C676 C141 1.236 . S
C703 C199 1.372 . S
C691 C9 1.358 . S
C718 C58 1.439 . S
C730 C121 1.500 . S
C745 C98 1.718 . S
C757 C160 1.769 . S
C784 C277 1.093 . S
C772 C49 1.109 . S
C811 C316 1.370 . S
C799 C89 1.355 . S
C826 C18 1.456 . S
C838 C238 1.484 . S
