# Generated by pormake.
# Topology rtl, (3,6)-cn, num edge types: 1
# Building blocks:
#     Node 0, Type 0, BuildingBlock: BETDIP_clean_linker_0, # of connection points: 3
#     Node 1, Type 0, BuildingBlock: BETDIP_clean_linker_0, # of connection points: 3
#     Node 2, Type 0, BuildingBlock: BETDIP_clean_linker_0, # of connection points: 3
#     Node 3, Type 0, BuildingBlock: BETDIP_clean_linker_0, # of connection points: 3
#     Node 4, Type 1, BuildingBlock: VOLQOD_clean_sbu_1, # of connection points: 6
#     Node 5, Type 1, BuildingBlock: VOLQOD_clean_sbu_1, # of connection points: 6
#     Edge 6, Type (0, 1), BuildingBlock: CIFDUS_clean_linker_0, # of connection points: 2
#     Edge 7, Type (0, 1), BuildingBlock: CIFDUS_clean_linker_0, # of connection points: 2
#     Edge 8, Type (0, 1), BuildingBlock: CIFDUS_clean_linker_0, # of connection points: 2
#     Edge 9, Type (0, 1), BuildingBlock: CIFDUS_clean_linker_0, # of connection points: 2
#     Edge 10, Type (0, 1), BuildingBlock: CIFDUS_clean_linker_0, # of connection points: 2
#     Edge 11, Type (0, 1), BuildingBlock: CIFDUS_clean_linker_0, # of connection points: 2
#     Edge 12, Type (0, 1), BuildingBlock: CIFDUS_clean_linker_0, # of connection points: 2
#     Edge 13, Type (0, 1), BuildingBlock: CIFDUS_clean_linker_0, # of connection points: 2
#     Edge 14, Type (0, 1), BuildingBlock: CIFDUS_clean_linker_0, # of connection points: 2
#     Edge 15, Type (0, 1), BuildingBlock: CIFDUS_clean_linker_0, # of connection points: 2
#     Edge 16, Type (0, 1), BuildingBlock: CIFDUS_clean_linker_0, # of connection points: 2
#     Edge 17, Type (0, 1), BuildingBlock: CIFDUS_clean_linker_0, # of connection points: 2
# Relax obj value: 0.041
# Max RMSD: 0.143
# Mean RMSD: 0.094
data_MOF--net-rtl--node1-VOLQOD_clean_sbu_1--node2-BETDIP_clean_linker_0--edge1-CIFDUS_clean_linker_0
_symmetry_space_group_name_H-M    P1
_symmetry_Int_Tables_number       1
_symmetry_cell_setting            triclinic
loop_
_symmetry_equiv_pos_as_xyz
'x, y, z'
_cell_length_a     33.305603
_cell_length_b     33.616072
_cell_length_c     19.46822
_cell_angle_alpha  91.591962
_cell_angle_beta   92.130367
_cell_angle_gamma 89.196566
loop_
_atom_site_label
_atom_site_type_symbol
_atom_site_fract_x
_atom_site_fract_y
_atom_site_fract_z
_atom_type_partial_charge
H0 H 0.23972 0.8248 0.91204 0.0
H1 H 0.23879 0.84504 0.13181 0.0
H2 H 0.1656 0.91755 -0.00156 0.0
H3 H 0.27265 0.78896 0.13867 0.0
C4 C 0.2841 0.77977 0.08922 0.0
C5 C 0.22902 0.8414 0.95642 0.0
C6 C 0.20171 0.87306 0.94732 0.0
C7 C 0.24267 0.83081 0.02251 0.0
C8 C 0.22863 0.85235 0.08031 0.0
C9 C 0.2012 0.88414 0.07157 0.0
C10 C 0.18806 0.89417 0.00511 0.0
N11 N 0.27036 0.79838 0.02786 0.0
H12 H 0.73917 0.68081 0.63314 0.0
H13 H 0.74133 0.68143 0.41215 0.0
H14 H 0.66614 0.59931 0.51146 0.0
H15 H 0.80734 0.7067 0.44134 0.0
C16 C 0.79855 0.72782 0.48149 0.0
C17 C 0.72975 0.66808 0.58346 0.0
C18 C 0.70119 0.63785 0.57938 0.0
C19 C 0.74503 0.68338 0.52366 0.0
C20 C 0.73135 0.66835 0.45867 0.0
C21 C 0.70221 0.63842 0.45402 0.0
C22 C 0.68823 0.62276 0.51466 0.0
N23 N 0.77093 0.7165 0.53088 0.0
H24 H 0.75975 0.17749 0.8955 0.0
H25 H 0.76704 0.18969 0.11665 0.0
H26 H 0.84838 0.11089 0.01251 0.0
H27 H 0.6955 0.20191 0.09285 0.0
C28 C 0.69944 0.2232 0.05271 0.0
C29 C 0.77305 0.16868 0.9445 0.0
C30 C 0.80556 0.14169 0.94645 0.0
C31 C 0.75834 0.18549 0.00557 0.0
C32 C 0.77677 0.17552 0.06936 0.0
C33 C 0.80964 0.14898 0.07137 0.0
C34 C 0.82315 0.13165 0.01025 0.0
N35 N 0.72731 0.21477 0.00071 0.0
H36 H 0.27776 0.32967 0.35837 0.0
H37 H 0.28055 0.31361 0.57756 0.0
H38 H 0.35292 0.40306 0.49179 0.0
H39 H 0.21579 0.29499 0.55205 0.0
C40 C 0.21793 0.27766 0.50436 0.0
C41 C 0.28908 0.33805 0.40959 0.0
C42 C 0.31646 0.3692 0.41874 0.0
C43 C 0.27501 0.31857 0.46654 0.0
C44 C 0.29013 0.32916 0.5332 0.0
C45 C 0.31787 0.36009 0.54261 0.0
C46 C 0.33071 0.37983 0.48509 0.0
N47 N 0.2458 0.28851 0.45494 0.0
O48 O 0.92501 0.94774 0.5109 0.0
Zn49 Zn 0.94353 0.00516 0.51536 0.0
O50 O 0.0024 0.00802 0.5098 0.0
Zn51 Zn 0.0235 0.03776 0.58877 0.0
Zn52 Zn 0.0254 0.95431 0.51269 0.0
Zn53 Zn 0.01856 0.03493 0.42662 0.0
O54 O 0.05031 0.08713 0.56329 0.0
O55 O 0.05162 0.08462 0.44957 0.0
O56 O 0.9232 0.03259 0.60259 0.0
O57 O 0.98041 0.0541 0.65102 0.0
O58 O 0.06396 0.00649 0.64286 0.0
O59 O 0.06223 0.94567 0.59613 0.0
O60 O 0.05844 0.94378 0.4311 0.0
O61 O 0.91754 0.03279 0.43438 0.0
O62 O 0.05309 0.9978 0.36799 0.0
O63 O 0.96832 0.05262 0.37284 0.0
C64 C 0.94412 0.91466 0.50691 0.0
C65 C 0.06042 0.10182 0.50724 0.0
C66 C 0.07589 0.97043 0.64154 0.0
C67 C 0.94249 0.05086 0.6514 0.0
C68 C 0.06679 0.96268 0.37794 0.0
C69 C 0.93071 0.0501 0.38247 0.0
O70 O 0.98234 0.91324 0.50744 0.0
O71 O 0.58754 0.45936 -0.00098 0.0
Zn72 Zn 0.5612 0.51422 0.00132 0.0
O73 O 0.50213 0.50907 -0.00232 0.0
Zn74 Zn 0.47911 0.53847 0.92131 0.0
Zn75 Zn 0.48704 0.45296 0.98568 0.0
Zn76 Zn 0.47945 0.53136 0.08134 0.0
O77 O 0.44533 0.58523 0.95126 0.0
O78 O 0.44314 0.57883 0.06388 0.0
O79 O 0.58008 0.54393 0.9188 0.0
O80 O 0.52231 0.55863 0.86415 0.0
O81 O 0.44409 0.50379 0.86052 0.0
O82 O 0.4536 0.44253 0.89784 0.0
O83 O 0.45299 0.43627 0.06238 0.0
O84 O 0.58045 0.54309 0.09012 0.0
O85 O 0.44721 0.49077 0.12841 0.0
O86 O 0.52361 0.55051 0.14559 0.0
C87 C 0.57383 0.4241 -0.00571 0.0
C88 C 0.433 0.59713 0.00946 0.0
C89 C 0.43736 0.46666 0.85541 0.0
C90 C 0.5605 0.55931 0.86836 0.0
C91 C 0.43931 0.45436 0.11495 0.0
C92 C 0.56147 0.55467 0.143 0.0
O93 O 0.53625 0.41756 -0.01144 0.0
H94 H 0.16027 0.25486 0.58638 0.0
H95 H 0.21186 0.22711 0.39067 0.0
H96 H 0.16534 0.17183 0.37145 0.0
H97 H 0.11187 0.12928 0.41341 0.0
H98 H 0.06225 0.15713 0.61108 0.0
H99 H 0.10566 0.21456 0.62591 0.0
C100 C 0.16116 0.23677 0.53941 0.0
C101 C 0.18944 0.24486 0.49031 0.0
C102 C 0.13459 0.20503 0.52896 0.0
C103 C 0.19037 0.22137 0.42948 0.0
C104 C 0.16376 0.18977 0.41842 0.0
C105 C 0.11025 0.14827 0.45921 0.0
C106 C 0.08401 0.1388 0.51115 0.0
C107 C 0.13594 0.18106 0.46815 0.0
C108 C 0.08242 0.16353 0.57051 0.0
C109 C 0.10726 0.19641 0.57917 0.0
H110 H 0.31892 0.74726 0.97567 0.0
H111 H 0.31304 0.73577 0.19522 0.0
H112 H 0.35908 0.67836 0.19066 0.0
H113 H 0.40014 0.63106 0.12377 0.0
H114 H 0.40531 0.6431 0.9039 0.0
H115 H 0.36034 0.70076 0.90933 0.0
C116 C 0.32768 0.73228 0.02262 0.0
C117 C 0.31255 0.74563 0.08579 0.0
C118 C 0.35399 0.69938 0.01954 0.0
C119 C 0.32433 0.72592 0.14603 0.0
C120 C 0.3506 0.69314 0.14341 0.0
C121 C 0.39151 0.64629 0.07701 0.0
C122 C 0.40613 0.63259 0.01352 0.0
C123 C 0.3655 0.67951 0.08037 0.0
C124 C 0.39457 0.65284 0.95351 0.0
C125 C 0.3688 0.68588 0.95649 0.0
H126 H 0.8722 0.74469 0.43811 0.0
H127 H 0.77269 0.79585 0.54674 0.0
H128 H 0.80846 0.85866 0.56305 0.0
H129 H 0.86849 0.89899 0.54695 0.0
H130 H 0.96988 0.84583 0.44555 0.0
H131 H 0.9332 0.78398 0.42628 0.0
C132 C 0.85846 0.7697 0.4652 0.0
C133 C 0.82001 0.76583 0.49106 0.0
C134 C 0.87962 0.80532 0.47594 0.0
C135 C 0.80244 0.79816 0.52666 0.0
C136 C 0.82283 0.83408 0.5359 0.0
C137 C 0.88248 0.87384 0.52066 0.0
C138 C 0.92178 0.87705 0.49762 0.0
C139 C 0.86151 0.83799 0.51092 0.0
C140 C 0.93972 0.84408 0.46419 0.0
C141 C 0.91873 0.80872 0.45287 0.0
H142 H 0.71172 0.29311 -0.01005 0.0
H143 H 0.62508 0.23026 0.1035 0.0
H144 H 0.57765 0.28629 0.09282 0.0
H145 H 0.56108 0.35321 0.05154 0.0
H146 H 0.64989 0.41858 0.94705 0.0
H147 H 0.69636 0.36154 0.95365 0.0
C148 C 0.68237 0.29171 0.01205 0.0
C149 C 0.67152 0.25756 0.04673 0.0
C150 C 0.65579 0.32445 0.00731 0.0
C151 C 0.63385 0.2563 0.07639 0.0
C152 C 0.60678 0.28825 0.07021 0.0
C153 C 0.59055 0.35483 0.02992 0.0
C154 C 0.60197 0.3898 -0.00179 0.0
C155 C 0.61742 0.32244 0.03573 0.0
C156 C 0.64048 0.3919 0.97162 0.0
C157 C 0.66699 0.35932 0.97532 0.0
H158 H 0.16923 0.85181 0.18279 0.0
H159 H 0.19201 0.96434 0.09163 0.0
H160 H 0.15245 0.999 0.17865 0.0
H161 H 0.10777 0.99672 0.27634 0.0
H162 H 0.08544 0.88374 0.36712 0.0
H163 H 0.12837 0.85003 0.28478 0.0
C164 C 0.16628 0.884 0.18301 0.0
C165 C 0.18335 0.90548 0.13092 0.0
C166 C 0.14304 0.90363 0.23251 0.0
C167 C 0.17885 0.94716 0.13113 0.0
C168 C 0.15614 0.96696 0.18065 0.0
C169 C 0.11228 0.96474 0.27801 0.0
C170 C 0.09311 0.94284 0.32746 0.0
C171 C 0.13731 0.9454 0.23067 0.0
C172 C 0.09973 0.90142 0.32952 0.0
C173 C 0.12434 0.88202 0.28248 0.0
H174 H 0.62193 0.63256 0.59795 0.0
H175 H 0.73718 0.61354 0.70053 0.0
H176 H 0.70399 0.58833 0.80087 0.0
H177 H 0.6417 0.56941 0.85702 0.0
H178 H 0.52707 0.58975 0.75135 0.0
H179 H 0.56061 0.61649 0.65467 0.0
C180 C 0.63979 0.62271 0.64221 0.0
C181 C 0.68184 0.62431 0.64172 0.0
C182 C 0.62061 0.6084 0.69908 0.0
C183 C 0.70468 0.61244 0.6999 0.0
C184 C 0.68572 0.59793 0.75702 0.0
C185 C 0.62409 0.57984 0.81297 0.0
C186 C 0.58187 0.57726 0.81163 0.0
C187 C 0.64363 0.59542 0.7569 0.0
C188 C 0.55956 0.59116 0.75411 0.0
C189 C 0.57869 0.6065 0.6985 0.0
H190 H 0.78966 0.10228 0.17615 0.0
H191 H 0.88326 0.17656 0.106 0.0
H192 H 0.92917 0.15339 0.19784 0.0
H193 H 0.94437 0.10771 0.29142 0.0
H194 H 0.85112 0.0328 0.36224 0.0
H195 H 0.80346 0.0603 0.27708 0.0
C196 C 0.81977 0.11405 0.18249 0.0
C197 C 0.83318 0.14127 0.13534 0.0
C198 C 0.84626 0.0999 0.23457 0.0
C199 C 0.87242 0.15589 0.14261 0.0
C200 C 0.89871 0.14239 0.19457 0.0
C201 C 0.91361 0.09744 0.28832 0.0
C202 C 0.90151 0.06787 0.3325 0.0
C203 C 0.88629 0.11359 0.23966 0.0
C204 C 0.86131 0.0554 0.32859 0.0
C205 C 0.83399 0.07113 0.27993 0.0
H206 H 0.32375 0.43483 0.59487 0.0
H207 H 0.34995 0.31276 0.64395 0.0
H208 H 0.38774 0.33478 0.74849 0.0
H209 H 0.41863 0.38936 0.81947 0.0
H210 H 0.3937 0.51119 0.76441 0.0
H211 H 0.3507 0.48856 0.66825 0.0
C212 C 0.3375 0.41303 0.62879 0.0
C213 C 0.33454 0.37233 0.61151 0.0
C214 C 0.35998 0.42589 0.68713 0.0
C215 C 0.35177 0.34431 0.65641 0.0
C216 C 0.37369 0.35691 0.71571 0.0
C217 C 0.40363 0.41093 0.78664 0.0
C218 C 0.40993 0.45193 0.79891 0.0
C219 C 0.37892 0.39771 0.73057 0.0
C220 C 0.38993 0.47945 0.75601 0.0
C221 C 0.36513 0.46659 0.70096 0.0
H222 H 0.62301 0.6328 0.42444 0.0
H223 H 0.73821 0.61574 0.33361 0.0
H224 H 0.705 0.58921 0.2274 0.0
H225 H 0.6427 0.56757 0.16324 0.0
H226 H 0.52848 0.58464 0.25929 0.0
H227 H 0.56197 0.6139 0.36067 0.0
C228 C 0.64093 0.62314 0.38146 0.0
C229 C 0.68298 0.62559 0.38712 0.0
C230 C 0.62178 0.60761 0.32163 0.0
C231 C 0.70574 0.61403 0.33042 0.0
C232 C 0.68676 0.59867 0.26997 0.0
C233 C 0.62518 0.57779 0.20627 0.0
C234 C 0.58305 0.57349 0.20339 0.0
C235 C 0.64473 0.59476 0.26536 0.0
C236 C 0.56088 0.58717 0.25973 0.0
C237 C 0.57997 0.60406 0.318 0.0
H238 H 0.88411 0.13839 0.91979 0.0
H239 H 0.76747 0.10977 0.83007 0.0
H240 H 0.79923 0.07906 0.72936 0.0
H241 H 0.86105 0.0581 0.6695 0.0
H242 H 0.9768 0.08638 0.76525 0.0
H243 H 0.94437 0.11861 0.86143 0.0
C244 C 0.86557 0.12518 0.87843 0.0
C245 C 0.82361 0.12578 0.88269 0.0
C246 C 0.88391 0.10716 0.822 0.0
C247 C 0.79992 0.10963 0.82783 0.0
C248 C 0.81808 0.09186 0.77059 0.0
C249 C 0.87909 0.07123 0.7115 0.0
C250 C 0.92136 0.0696 0.70986 0.0
C251 C 0.86018 0.09 0.76752 0.0
C252 C 0.94427 0.08703 0.76471 0.0
C253 C 0.92579 0.10562 0.81998 0.0
H254 H 0.34876 0.33766 0.30306 0.0
H255 H 0.31815 0.44914 0.40421 0.0
H256 H 0.3521 0.48559 0.31696 0.0
H257 H 0.39484 0.48547 0.21776 0.0
H258 H 0.42664 0.37413 0.1166 0.0
H259 H 0.3877 0.33794 0.19777 0.0
C260 C 0.34889 0.36994 0.30495 0.0
C261 C 0.33132 0.39077 0.3599 0.0
C262 C 0.36908 0.39067 0.25527 0.0
C263 C 0.33187 0.43258 0.36247 0.0
C264 C 0.35132 0.45339 0.31281 0.0
C265 C 0.3932 0.4533 0.21324 0.0
C266 C 0.41404 0.43255 0.16172 0.0
C267 C 0.37087 0.43269 0.26003 0.0
C268 C 0.41107 0.39087 0.15606 0.0
C269 C 0.3888 0.37011 0.20244 0.0
H270 H 0.19428 0.94648 0.89594 0.0
H271 H 0.17158 0.82301 0.84524 0.0
H272 H 0.13309 0.84206 0.74126 0.0
H273 H 0.09941 0.89451 0.67276 0.0
H274 H 0.12009 0.01794 0.72949 0.0
H275 H 0.16542 0.99818 0.82344 0.0
C276 C 0.18121 0.92374 0.86168 0.0
C277 C 0.18524 0.88353 0.87844 0.0
C278 C 0.15819 0.93494 0.80372 0.0
C279 C 0.16892 0.85422 0.83316 0.0
C280 C 0.14659 0.86513 0.77418 0.0
C281 C 0.11416 0.91704 0.70527 0.0
C282 C 0.10582 0.95761 0.69467 0.0
C283 C 0.13996 0.9055 0.76015 0.0
C284 C 0.1254 0.98646 0.73704 0.0
C285 C 0.15149 0.97525 0.79074 0.0
loop_
_geom_bond_atom_site_label_1
_geom_bond_atom_site_label_2
_geom_bond_distance
_geom_bond_site_symmetry_2
_ccdc_geom_bond_type
H0 C5 0.930 . S
H1 C8 0.930 . S
H2 C10 0.930 . S
H3 C4 1.016 . S
C4 H3 1.016 . S
C4 N11 1.286 1_554 S
C5 H0 0.930 . S
C5 C6 1.397 . S
C5 C7 1.361 1_556 S
C6 C5 1.397 . S
C6 C10 1.390 1_556 S
C7 C5 1.361 1_554 S
C7 C8 1.393 . S
C7 N11 1.413 1_554 S
C8 H1 0.930 . S
C8 C7 1.393 . S
C8 C9 1.399 . S
C9 C8 1.399 . S
C9 C10 1.381 . S
C10 H2 0.930 . S
C10 C6 1.390 1_554 S
C10 C9 1.381 . S
N11 C4 1.286 1_556 S
N11 C7 1.413 1_556 S
H12 C17 0.930 . S
H13 C20 0.930 . S
H14 C22 0.930 . S
H15 C16 1.016 . S
C16 H15 1.016 . S
C16 N23 1.286 . S
C17 H12 0.930 . S
C17 C18 1.397 . S
C17 C19 1.361 . S
C18 C17 1.397 . S
C18 C22 1.390 . S
C19 C17 1.361 . S
C19 C20 1.393 . S
C19 N23 1.413 . S
C20 H13 0.930 . S
C20 C19 1.393 . S
C20 C21 1.399 . S
C21 C20 1.399 . S
C21 C22 1.381 . S
C22 H14 0.930 . S
C22 C18 1.390 . S
C22 C21 1.381 . S
N23 C16 1.286 . S
N23 C19 1.413 . S
H24 C29 0.930 . S
H25 C32 0.930 . S
H26 C34 0.930 . S
H27 C28 1.016 . S
C28 H27 1.016 . S
C28 N35 1.286 1_554 S
C29 H24 0.930 . S
C29 C30 1.397 . S
C29 C31 1.361 1_556 S
C30 C29 1.397 . S
C30 C34 1.390 1_556 S
C31 C29 1.361 1_554 S
C31 C32 1.393 . S
C31 N35 1.413 1_554 S
C32 H25 0.930 . S
C32 C31 1.393 . S
C32 C33 1.399 . S
C33 C32 1.399 . S
C33 C34 1.381 . S
C34 H26 0.930 . S
C34 C30 1.390 1_554 S
C34 C33 1.381 . S
N35 C28 1.286 1_556 S
N35 C31 1.413 1_556 S
H36 C41 0.930 . S
H37 C44 0.930 . S
H38 C46 0.930 . S
H39 C40 1.016 . S
C40 H39 1.016 . S
C40 N47 1.286 . S
C41 H36 0.930 . S
C41 C42 1.397 . S
C41 C43 1.361 . S
C42 C41 1.397 . S
C42 C46 1.390 . S
C43 C41 1.361 . S
C43 C44 1.393 . S
C43 N47 1.413 . S
C44 H37 0.930 . S
C44 C43 1.393 . S
C44 C45 1.399 . S
C45 C44 1.399 . S
C45 C46 1.381 . S
C46 H38 0.930 . S
C46 C42 1.390 . S
C46 C45 1.381 . S
N47 C40 1.286 . S
N47 C43 1.413 . S
O48 Zn49 1.953 1_565 S
O48 C64 1.225 . S
Zn49 O48 1.953 1_545 S
Zn49 O50 1.949 1_655 S
Zn49 O56 1.919 . S
Zn49 O61 1.924 . S
O50 Zn49 1.949 1_455 S
O50 Zn51 1.923 . S
O50 Zn52 1.950 1_545 S
O50 Zn53 1.945 . S
Zn51 O50 1.923 . S
Zn51 O54 1.933 . S
Zn51 O57 1.960 . S
Zn51 O58 1.965 1_545 S
Zn52 O50 1.950 1_565 S
Zn52 O59 1.938 . S
Zn52 O60 1.906 . S
Zn52 O70 1.953 1_455 S
Zn53 O50 1.945 . S
Zn53 O55 1.932 . S
Zn53 O62 1.976 . S
Zn53 O63 1.910 1_455 S
O54 Zn51 1.933 . S
O54 C65 1.226 . S
O55 Zn53 1.932 . S
O55 C65 1.307 . S
O56 Zn49 1.919 . S
O56 C67 1.253 . S
O57 Zn51 1.960 . S
O57 C67 1.256 1_455 S
O58 Zn51 1.965 1_565 S
O58 C66 1.303 . S
O59 Zn52 1.938 . S
O59 C66 1.247 . S
O60 Zn52 1.906 . S
O60 C68 1.304 . S
O61 Zn49 1.924 . S
O61 C69 1.311 . S
O62 Zn53 1.976 . S
O62 C68 1.273 1_545 S
O63 Zn53 1.910 1_655 S
O63 C69 1.231 . S
C64 O48 1.225 . S
C64 O70 1.298 . S
C65 O54 1.226 . S
C65 O55 1.307 . S
C66 O58 1.303 . S
C66 O59 1.247 . S
C67 O56 1.253 . S
C67 O57 1.256 1_655 S
C68 O60 1.304 . S
C68 O62 1.273 1_565 S
C69 O61 1.311 . S
C69 O63 1.231 . S
O70 Zn52 1.953 1_655 S
O70 C64 1.298 . S
O71 Zn72 1.953 . S
O71 C87 1.225 . S
Zn72 O71 1.953 . S
Zn72 O73 1.949 . S
Zn72 O79 1.919 1_554 S
Zn72 O84 1.924 . S
O73 Zn72 1.949 . S
O73 Zn74 1.923 1_554 S
O73 Zn75 1.950 . S
O73 Zn76 1.945 . S
Zn74 O73 1.923 1_556 S
Zn74 O77 1.933 . S
Zn74 O80 1.941 . S
Zn74 O81 1.965 . S
Zn75 O73 1.950 . S
Zn75 O82 1.938 1_554 S
Zn75 O83 1.906 . S
Zn75 O93 1.953 . S
Zn76 O73 1.945 . S
Zn76 O78 1.932 . S
Zn76 O85 1.977 . S
Zn76 O86 1.910 . S
O77 Zn74 1.933 . S
O77 C88 1.226 1_556 S
O78 Zn76 1.932 . S
O78 C88 1.307 . S
O79 Zn72 1.919 1_556 S
O79 C90 1.253 . S
O80 Zn74 1.941 . S
O80 C90 1.283 . S
O81 Zn74 1.965 . S
O81 C89 1.303 . S
O82 Zn75 1.938 1_556 S
O82 C89 1.247 . S
O83 Zn75 1.906 . S
O83 C91 1.304 . S
O84 Zn72 1.924 . S
O84 C92 1.311 . S
O85 Zn76 1.977 . S
O85 C91 1.272 . S
O86 Zn76 1.910 . S
O86 C92 1.231 . S
C87 O71 1.225 . S
C87 O93 1.298 . S
C88 O77 1.226 1_554 S
C88 O78 1.307 . S
C89 O81 1.303 . S
C89 O82 1.247 . S
C90 O79 1.253 . S
C90 O80 1.283 . S
C91 O83 1.304 . S
C91 O85 1.272 . S
C92 O84 1.311 . S
C92 O86 1.231 . S
O93 Zn75 1.953 . S
O93 C87 1.298 . S
H94 C100 0.930 . S
H95 C103 0.930 . S
H96 C104 0.930 . S
H97 C105 0.930 . S
H98 C108 0.930 . S
H99 C109 0.930 . S
C100 H94 0.930 . S
C100 C101 1.355 . S
C100 C102 1.415 . S
C101 C100 1.355 . S
C101 C103 1.419 . S
C102 C100 1.415 . S
C102 C107 1.425 . S
C102 C109 1.409 . S
C103 H95 0.930 . S
C103 C101 1.419 . S
C103 C104 1.362 . S
C104 H96 0.930 . S
C104 C103 1.362 . S
C104 C107 1.409 . S
C105 H97 0.930 . S
C105 C106 1.355 . S
C105 C107 1.415 . S
C106 C105 1.355 . S
C106 C108 1.419 . S
C107 C102 1.425 . S
C107 C104 1.409 . S
C107 C105 1.415 . S
C108 H98 0.930 . S
C108 C106 1.419 . S
C108 C109 1.362 . S
C109 H99 0.930 . S
C109 C102 1.409 . S
C109 C108 1.362 . S
H110 C116 0.930 . S
H111 C119 0.930 . S
H112 C120 0.930 . S
H113 C121 0.930 . S
H114 C124 0.930 . S
H115 C125 0.930 . S
C116 H110 0.930 . S
C116 C117 1.355 . S
C116 C118 1.415 . S
C117 C116 1.355 . S
C117 C119 1.419 . S
C118 C116 1.415 . S
C118 C123 1.425 . S
C118 C125 1.409 . S
C119 H111 0.930 . S
C119 C117 1.419 . S
C119 C120 1.362 . S
C120 H112 0.930 . S
C120 C119 1.362 . S
C120 C123 1.409 . S
C121 H113 0.930 . S
C121 C122 1.355 . S
C121 C123 1.415 . S
C122 C121 1.355 . S
C122 C124 1.419 . S
C123 C118 1.425 . S
C123 C120 1.409 . S
C123 C121 1.415 . S
C124 H114 0.930 . S
C124 C122 1.419 . S
C124 C125 1.362 . S
C125 H115 0.930 . S
C125 C118 1.409 . S
C125 C124 1.362 . S
H126 C132 0.930 . S
H127 C135 0.930 . S
H128 C136 0.930 . S
H129 C137 0.930 . S
H130 C140 0.930 . S
H131 C141 0.930 . S
C132 H126 0.930 . S
C132 C133 1.355 . S
C132 C134 1.415 . S
C133 C132 1.355 . S
C133 C135 1.419 . S
C134 C132 1.415 . S
C134 C139 1.425 . S
C134 C141 1.409 . S
C135 H127 0.930 . S
C135 C133 1.419 . S
C135 C136 1.362 . S
C136 H128 0.930 . S
C136 C135 1.362 . S
C136 C139 1.409 . S
C137 H129 0.930 . S
C137 C138 1.355 . S
C137 C139 1.415 . S
C138 C137 1.355 . S
C138 C140 1.419 . S
C139 C134 1.425 . S
C139 C136 1.409 . S
C139 C137 1.415 . S
C140 H130 0.930 . S
C140 C138 1.419 . S
C140 C141 1.362 . S
C141 H131 0.930 . S
C141 C134 1.409 . S
C141 C140 1.362 . S
H142 C148 0.930 . S
H143 C151 0.930 . S
H144 C152 0.930 . S
H145 C153 0.930 . S
H146 C156 0.930 . S
H147 C157 0.930 . S
C148 H142 0.930 . S
C148 C149 1.355 1_556 S
C148 C150 1.415 . S
C149 C148 1.355 1_554 S
C149 C151 1.419 . S
C150 C148 1.415 . S
C150 C155 1.425 1_556 S
C150 C157 1.409 . S
C151 H143 0.930 . S
C151 C149 1.419 . S
C151 C152 1.362 . S
C152 H144 0.930 . S
C152 C151 1.362 . S
C152 C155 1.409 . S
C153 H145 0.930 . S
C153 C154 1.355 . S
C153 C155 1.415 . S
C154 C153 1.355 . S
C154 C156 1.419 1_554 S
C155 C150 1.425 1_554 S
C155 C152 1.409 . S
C155 C153 1.415 . S
C156 H146 0.930 . S
C156 C154 1.419 1_556 S
C156 C157 1.362 . S
C157 H147 0.930 . S
C157 C150 1.409 . S
C157 C156 1.362 . S
H158 C164 0.930 . S
H159 C167 0.930 . S
H160 C168 0.930 . S
H161 C169 0.930 . S
H162 C172 0.930 . S
H163 C173 0.930 . S
C164 H158 0.930 . S
C164 C165 1.355 . S
C164 C166 1.415 . S
C165 C164 1.355 . S
C165 C167 1.419 . S
C166 C164 1.415 . S
C166 C171 1.425 . S
C166 C173 1.409 . S
C167 H159 0.930 . S
C167 C165 1.419 . S
C167 C168 1.362 . S
C168 H160 0.930 . S
C168 C167 1.362 . S
C168 C171 1.409 . S
C169 H161 0.930 . S
C169 C170 1.355 . S
C169 C171 1.415 . S
C170 C169 1.355 . S
C170 C172 1.419 . S
C171 C166 1.425 . S
C171 C168 1.409 . S
C171 C169 1.415 . S
C172 H162 0.930 . S
C172 C170 1.419 . S
C172 C173 1.362 . S
C173 H163 0.930 . S
C173 C166 1.409 . S
C173 C172 1.362 . S
H174 C180 0.930 . S
H175 C183 0.930 . S
H176 C184 0.930 . S
H177 C185 0.930 . S
H178 C188 0.930 . S
H179 C189 0.930 . S
C180 H174 0.930 . S
C180 C181 1.355 . S
C180 C182 1.415 . S
C181 C180 1.355 . S
C181 C183 1.419 . S
C182 C180 1.415 . S
C182 C187 1.425 . S
C182 C189 1.409 . S
C183 H175 0.930 . S
C183 C181 1.419 . S
C183 C184 1.362 . S
C184 H176 0.930 . S
C184 C183 1.362 . S
C184 C187 1.409 . S
C185 H177 0.930 . S
C185 C186 1.355 . S
C185 C187 1.415 . S
C186 C185 1.355 . S
C186 C188 1.419 . S
C187 C182 1.425 . S
C187 C184 1.409 . S
C187 C185 1.415 . S
C188 H178 0.930 . S
C188 C186 1.419 . S
C188 C189 1.362 . S
C189 H179 0.930 . S
C189 C182 1.409 . S
C189 C188 1.362 . S
H190 C196 0.930 . S
H191 C199 0.930 . S
H192 C200 0.930 . S
H193 C201 0.930 . S
H194 C204 0.930 . S
H195 C205 0.930 . S
C196 H190 0.930 . S
C196 C197 1.355 . S
C196 C198 1.415 . S
C197 C196 1.355 . S
C197 C199 1.419 . S
C198 C196 1.415 . S
C198 C203 1.425 . S
C198 C205 1.409 . S
C199 H191 0.930 . S
C199 C197 1.419 . S
C199 C200 1.362 . S
C200 H192 0.930 . S
C200 C199 1.362 . S
C200 C203 1.409 . S
C201 H193 0.930 . S
C201 C202 1.355 . S
C201 C203 1.415 . S
C202 C201 1.355 . S
C202 C204 1.419 . S
C203 C198 1.425 . S
C203 C200 1.409 . S
C203 C201 1.415 . S
C204 H194 0.930 . S
C204 C202 1.419 . S
C204 C205 1.362 . S
C205 H195 0.930 . S
C205 C198 1.409 . S
C205 C204 1.362 . S
H206 C212 0.930 . S
H207 C215 0.930 . S
H208 C216 0.930 . S
H209 C217 0.930 . S
H210 C220 0.930 . S
H211 C221 0.930 . S
C212 H206 0.930 . S
C212 C213 1.355 . S
C212 C214 1.415 . S
C213 C212 1.355 . S
C213 C215 1.419 . S
C214 C212 1.415 . S
C214 C219 1.425 . S
C214 C221 1.409 . S
C215 H207 0.930 . S
C215 C213 1.419 . S
C215 C216 1.362 . S
C216 H208 0.930 . S
C216 C215 1.362 . S
C216 C219 1.409 . S
C217 H209 0.930 . S
C217 C218 1.355 . S
C217 C219 1.415 . S
C218 C217 1.355 . S
C218 C220 1.419 . S
C219 C214 1.425 . S
C219 C216 1.409 . S
C219 C217 1.415 . S
C220 H210 0.930 . S
C220 C218 1.419 . S
C220 C221 1.362 . S
C221 H211 0.930 . S
C221 C214 1.409 . S
C221 C220 1.362 . S
H222 C228 0.930 . S
H223 C231 0.930 . S
H224 C232 0.930 . S
H225 C233 0.930 . S
H226 C236 0.930 . S
H227 C237 0.930 . S
C228 H222 0.930 . S
C228 C229 1.355 . S
C228 C230 1.415 . S
C229 C228 1.355 . S
C229 C231 1.419 . S
C230 C228 1.415 . S
C230 C235 1.425 . S
C230 C237 1.409 . S
C231 H223 0.930 . S
C231 C229 1.419 . S
C231 C232 1.362 . S
C232 H224 0.930 . S
C232 C231 1.362 . S
C232 C235 1.409 . S
C233 H225 0.930 . S
C233 C234 1.355 . S
C233 C235 1.415 . S
C234 C233 1.355 . S
C234 C236 1.419 . S
C235 C230 1.425 . S
C235 C232 1.409 . S
C235 C233 1.415 . S
C236 H226 0.930 . S
C236 C234 1.419 . S
C236 C237 1.362 . S
C237 H227 0.930 . S
C237 C230 1.409 . S
C237 C236 1.362 . S
H238 C244 0.930 . S
H239 C247 0.930 . S
H240 C248 0.930 . S
H241 C249 0.930 . S
H242 C252 0.930 1_455 S
H243 C253 0.930 . S
C244 H238 0.930 . S
C244 C245 1.355 . S
C244 C246 1.415 . S
C245 C244 1.355 . S
C245 C247 1.419 . S
C246 C244 1.415 . S
C246 C251 1.425 . S
C246 C253 1.409 . S
C247 H239 0.930 . S
C247 C245 1.419 . S
C247 C248 1.362 . S
C248 H240 0.930 . S
C248 C247 1.362 . S
C248 C251 1.409 . S
C249 H241 0.930 . S
C249 C250 1.355 . S
C249 C251 1.415 . S
C250 C249 1.355 . S
C250 C252 1.419 . S
C251 C246 1.425 . S
C251 C248 1.409 . S
C251 C249 1.415 . S
C252 H242 0.930 1_655 S
C252 C250 1.419 . S
C252 C253 1.362 . S
C253 H243 0.930 . S
C253 C246 1.409 . S
C253 C252 1.362 . S
H254 C260 0.930 . S
H255 C263 0.930 . S
H256 C264 0.930 . S
H257 C265 0.930 . S
H258 C268 0.930 . S
H259 C269 0.930 . S
C260 H254 0.930 . S
C260 C261 1.355 . S
C260 C262 1.415 . S
C261 C260 1.355 . S
C261 C263 1.419 . S
C262 C260 1.415 . S
C262 C267 1.425 . S
C262 C269 1.409 . S
C263 H255 0.930 . S
C263 C261 1.419 . S
C263 C264 1.362 . S
C264 H256 0.930 . S
C264 C263 1.362 . S
C264 C267 1.409 . S
C265 H257 0.930 . S
C265 C266 1.355 . S
C265 C267 1.415 . S
C266 C265 1.355 . S
C266 C268 1.419 . S
C267 C262 1.425 . S
C267 C264 1.409 . S
C267 C265 1.415 . S
C268 H258 0.930 . S
C268 C266 1.419 . S
C268 C269 1.362 . S
C269 H259 0.930 . S
C269 C262 1.409 . S
C269 C268 1.362 . S
H270 C276 0.930 . S
H271 C279 0.930 . S
H272 C280 0.930 . S
H273 C281 0.930 . S
H274 C284 0.930 . S
H275 C285 0.930 . S
C276 H270 0.930 . S
C276 C277 1.355 . S
C276 C278 1.415 . S
C277 C276 1.355 . S
C277 C279 1.419 . S
C278 C276 1.415 . S
C278 C283 1.425 . S
C278 C285 1.409 . S
C279 H271 0.930 . S
C279 C277 1.419 . S
C279 C280 1.362 . S
C280 H272 0.930 . S
C280 C279 1.362 . S
C280 C283 1.409 . S
C281 H273 0.930 . S
C281 C282 1.355 . S
C281 C283 1.415 . S
C282 C281 1.355 . S
C282 C284 1.419 . S
C283 C278 1.425 . S
C283 C280 1.409 . S
C283 C281 1.415 . S
C284 H274 0.930 . S
C284 C282 1.419 . S
C284 C285 1.362 . S
C285 H275 0.930 . S
C285 C278 1.409 . S
C285 C284 1.362 . S
C106 C65 1.487 . S
C101 C40 1.479 . S
C117 C4 1.475 . S
C122 C88 1.479 . S
C133 C16 1.510 . S
C138 C64 1.515 . S
C149 C28 1.496 . S
C154 C87 1.511 . S
C170 C68 1.457 . S
C165 C9 1.482 . S
C186 C90 1.484 . S
C181 C18 1.552 . S
C197 C33 1.520 . S
C202 C69 1.512 . S
C213 C45 1.533 . S
C218 C89 1.466 . S
C234 C92 1.381 . S
C229 C21 1.435 . S
C250 C67 1.438 . S
C245 C30 1.499 . S
C266 C91 1.436 . S
C261 C42 1.445 . S
C277 C6 1.464 . S
C282 C66 1.410 . S
