# Generated by pormake.
# Topology ptr, (4,4)-cn, num edge types: 1
# Building blocks:
#     Node 0, Type 0, BuildingBlock: AZAVOO_clean_sbu_0, # of connection points: 4
#     Node 1, Type 0, BuildingBlock: AZAVOO_clean_sbu_0, # of connection points: 4
#     Node 2, Type 0, BuildingBlock: AZAVOO_clean_sbu_0, # of connection points: 4
#     Node 3, Type 0, BuildingBlock: AZAVOO_clean_sbu_0, # of connection points: 4
#     Node 4, Type 0, BuildingBlock: AZAVOO_clean_sbu_0, # of connection points: 4
#     Node 5, Type 0, BuildingBlock: AZAVOO_clean_sbu_0, # of connection points: 4
#     Node 6, Type 0, BuildingBlock: AZAVOO_clean_sbu_0, # of connection points: 4
#     Node 7, Type 0, BuildingBlock: AZAVOO_clean_sbu_0, # of connection points: 4
#     Node 8, Type 0, BuildingBlock: AZAVOO_clean_sbu_0, # of connection points: 4
#     Node 9, Type 0, BuildingBlock: AZAVOO_clean_sbu_0, # of connection points: 4
#     Node 10, Type 0, BuildingBlock: AZAVOO_clean_sbu_0, # of connection points: 4
#     Node 11, Type 0, BuildingBlock: AZAVOO_clean_sbu_0, # of connection points: 4
#     Node 12, Type 0, BuildingBlock: AZAVOO_clean_sbu_0, # of connection points: 4
#     Node 13, Type 0, BuildingBlock: AZAVOO_clean_sbu_0, # of connection points: 4
#     Node 14, Type 0, BuildingBlock: AZAVOO_clean_sbu_0, # of connection points: 4
#     Node 15, Type 0, BuildingBlock: AZAVOO_clean_sbu_0, # of connection points: 4
#     Node 16, Type 0, BuildingBlock: AZAVOO_clean_sbu_0, # of connection points: 4
#     Node 17, Type 0, BuildingBlock: AZAVOO_clean_sbu_0, # of connection points: 4
#     Node 18, Type 1, BuildingBlock: MIFKUJ_clean_linker_1, # of connection points: 4
#     Node 19, Type 1, BuildingBlock: MIFKUJ_clean_linker_1, # of connection points: 4
#     Node 20, Type 1, BuildingBlock: MIFKUJ_clean_linker_1, # of connection points: 4
#     Node 21, Type 1, BuildingBlock: MIFKUJ_clean_linker_1, # of connection points: 4
#     Node 22, Type 1, BuildingBlock: MIFKUJ_clean_linker_1, # of connection points: 4
#     Node 23, Type 1, BuildingBlock: MIFKUJ_clean_linker_1, # of connection points: 4
#     Node 24, Type 1, BuildingBlock: MIFKUJ_clean_linker_1, # of connection points: 4
#     Node 25, Type 1, BuildingBlock: MIFKUJ_clean_linker_1, # of connection points: 4
#     Node 26, Type 1, BuildingBlock: MIFKUJ_clean_linker_1, # of connection points: 4
#     Node 27, Type 1, BuildingBlock: MIFKUJ_clean_linker_1, # of connection points: 4
#     Node 28, Type 1, BuildingBlock: MIFKUJ_clean_linker_1, # of connection points: 4
#     Node 29, Type 1, BuildingBlock: MIFKUJ_clean_linker_1, # of connection points: 4
#     Node 30, Type 1, BuildingBlock: MIFKUJ_clean_linker_1, # of connection points: 4
#     Node 31, Type 1, BuildingBlock: MIFKUJ_clean_linker_1, # of connection points: 4
#     Node 32, Type 1, BuildingBlock: MIFKUJ_clean_linker_1, # of connection points: 4
#     Node 33, Type 1, BuildingBlock: MIFKUJ_clean_linker_1, # of connection points: 4
#     Node 34, Type 1, BuildingBlock: MIFKUJ_clean_linker_1, # of connection points: 4
#     Node 35, Type 1, BuildingBlock: MIFKUJ_clean_linker_1, # of connection points: 4
#     Edge 36, Type (0, 1), BuildingBlock: XUDNAN_clean_linker_2, # of connection points: 2
#     Edge 37, Type (0, 1), BuildingBlock: XUDNAN_clean_linker_2, # of connection points: 2
#     Edge 38, Type (0, 1), BuildingBlock: XUDNAN_clean_linker_2, # of connection points: 2
#     Edge 39, Type (0, 1), BuildingBlock: XUDNAN_clean_linker_2, # of connection points: 2
#     Edge 40, Type (0, 1), BuildingBlock: XUDNAN_clean_linker_2, # of connection points: 2
#     Edge 41, Type (0, 1), BuildingBlock: XUDNAN_clean_linker_2, # of connection points: 2
#     Edge 42, Type (0, 1), BuildingBlock: XUDNAN_clean_linker_2, # of connection points: 2
#     Edge 43, Type (0, 1), BuildingBlock: XUDNAN_clean_linker_2, # of connection points: 2
#     Edge 44, Type (0, 1), BuildingBlock: XUDNAN_clean_linker_2, # of connection points: 2
#     Edge 45, Type (0, 1), BuildingBlock: XUDNAN_clean_linker_2, # of connection points: 2
#     Edge 46, Type (0, 1), BuildingBlock: XUDNAN_clean_linker_2, # of connection points: 2
#     Edge 47, Type (0, 1), BuildingBlock: XUDNAN_clean_linker_2, # of connection points: 2
#     Edge 48, Type (0, 1), BuildingBlock: XUDNAN_clean_linker_2, # of connection points: 2
#     Edge 49, Type (0, 1), BuildingBlock: XUDNAN_clean_linker_2, # of connection points: 2
#     Edge 50, Type (0, 1), BuildingBlock: XUDNAN_clean_linker_2, # of connection points: 2
#     Edge 51, Type (0, 1), BuildingBlock: XUDNAN_clean_linker_2, # of connection points: 2
#     Edge 52, Type (0, 1), BuildingBlock: XUDNAN_clean_linker_2, # of connection points: 2
#     Edge 53, Type (0, 1), BuildingBlock: XUDNAN_clean_linker_2, # of connection points: 2
#     Edge 54, Type (0, 1), BuildingBlock: XUDNAN_clean_linker_2, # of connection points: 2
#     Edge 55, Type (0, 1), BuildingBlock: XUDNAN_clean_linker_2, # of connection points: 2
#     Edge 56, Type (0, 1), BuildingBlock: XUDNAN_clean_linker_2, # of connection points: 2
#     Edge 57, Type (0, 1), BuildingBlock: XUDNAN_clean_linker_2, # of connection points: 2
#     Edge 58, Type (0, 1), BuildingBlock: XUDNAN_clean_linker_2, # of connection points: 2
#     Edge 59, Type (0, 1), BuildingBlock: XUDNAN_clean_linker_2, # of connection points: 2
#     Edge 60, Type (0, 1), BuildingBlock: XUDNAN_clean_linker_2, # of connection points: 2
#     Edge 61, Type (0, 1), BuildingBlock: XUDNAN_clean_linker_2, # of connection points: 2
#     Edge 62, Type (0, 1), BuildingBlock: XUDNAN_clean_linker_2, # of connection points: 2
#     Edge 63, Type (0, 1), BuildingBlock: XUDNAN_clean_linker_2, # of connection points: 2
#     Edge 64, Type (0, 1), BuildingBlock: XUDNAN_clean_linker_2, # of connection points: 2
#     Edge 65, Type (0, 1), BuildingBlock: XUDNAN_clean_linker_2, # of connection points: 2
#     Edge 66, Type (0, 1), BuildingBlock: XUDNAN_clean_linker_2, # of connection points: 2
#     Edge 67, Type (0, 1), BuildingBlock: XUDNAN_clean_linker_2, # of connection points: 2
#     Edge 68, Type (0, 1), BuildingBlock: XUDNAN_clean_linker_2, # of connection points: 2
#     Edge 69, Type (0, 1), BuildingBlock: XUDNAN_clean_linker_2, # of connection points: 2
#     Edge 70, Type (0, 1), BuildingBlock: XUDNAN_clean_linker_2, # of connection points: 2
#     Edge 71, Type (0, 1), BuildingBlock: XUDNAN_clean_linker_2, # of connection points: 2
#     Edge 72, Type (0, 1), BuildingBlock: XUDNAN_clean_linker_2, # of connection points: 2
#     Edge 73, Type (0, 1), BuildingBlock: XUDNAN_clean_linker_2, # of connection points: 2
#     Edge 74, Type (0, 1), BuildingBlock: XUDNAN_clean_linker_2, # of connection points: 2
#     Edge 75, Type (0, 1), BuildingBlock: XUDNAN_clean_linker_2, # of connection points: 2
#     Edge 76, Type (0, 1), BuildingBlock: XUDNAN_clean_linker_2, # of connection points: 2
#     Edge 77, Type (0, 1), BuildingBlock: XUDNAN_clean_linker_2, # of connection points: 2
#     Edge 78, Type (0, 1), BuildingBlock: XUDNAN_clean_linker_2, # of connection points: 2
#     Edge 79, Type (0, 1), BuildingBlock: XUDNAN_clean_linker_2, # of connection points: 2
#     Edge 80, Type (0, 1), BuildingBlock: XUDNAN_clean_linker_2, # of connection points: 2
#     Edge 81, Type (0, 1), BuildingBlock: XUDNAN_clean_linker_2, # of connection points: 2
#     Edge 82, Type (0, 1), BuildingBlock: XUDNAN_clean_linker_2, # of connection points: 2
#     Edge 83, Type (0, 1), BuildingBlock: XUDNAN_clean_linker_2, # of connection points: 2
#     Edge 84, Type (0, 1), BuildingBlock: XUDNAN_clean_linker_2, # of connection points: 2
#     Edge 85, Type (0, 1), BuildingBlock: XUDNAN_clean_linker_2, # of connection points: 2
#     Edge 86, Type (0, 1), BuildingBlock: XUDNAN_clean_linker_2, # of connection points: 2
#     Edge 87, Type (0, 1), BuildingBlock: XUDNAN_clean_linker_2, # of connection points: 2
#     Edge 88, Type (0, 1), BuildingBlock: XUDNAN_clean_linker_2, # of connection points: 2
#     Edge 89, Type (0, 1), BuildingBlock: XUDNAN_clean_linker_2, # of connection points: 2
#     Edge 90, Type (0, 1), BuildingBlock: XUDNAN_clean_linker_2, # of connection points: 2
#     Edge 91, Type (0, 1), BuildingBlock: XUDNAN_clean_linker_2, # of connection points: 2
#     Edge 92, Type (0, 1), BuildingBlock: XUDNAN_clean_linker_2, # of connection points: 2
#     Edge 93, Type (0, 1), BuildingBlock: XUDNAN_clean_linker_2, # of connection points: 2
#     Edge 94, Type (0, 1), BuildingBlock: XUDNAN_clean_linker_2, # of connection points: 2
#     Edge 95, Type (0, 1), BuildingBlock: XUDNAN_clean_linker_2, # of connection points: 2
#     Edge 96, Type (0, 1), BuildingBlock: XUDNAN_clean_linker_2, # of connection points: 2
#     Edge 97, Type (0, 1), BuildingBlock: XUDNAN_clean_linker_2, # of connection points: 2
#     Edge 98, Type (0, 1), BuildingBlock: XUDNAN_clean_linker_2, # of connection points: 2
#     Edge 99, Type (0, 1), BuildingBlock: XUDNAN_clean_linker_2, # of connection points: 2
#     Edge 100, Type (0, 1), BuildingBlock: XUDNAN_clean_linker_2, # of connection points: 2
#     Edge 101, Type (0, 1), BuildingBlock: XUDNAN_clean_linker_2, # of connection points: 2
#     Edge 102, Type (0, 1), BuildingBlock: XUDNAN_clean_linker_2, # of connection points: 2
#     Edge 103, Type (0, 1), BuildingBlock: XUDNAN_clean_linker_2, # of connection points: 2
#     Edge 104, Type (0, 1), BuildingBlock: XUDNAN_clean_linker_2, # of connection points: 2
#     Edge 105, Type (0, 1), BuildingBlock: XUDNAN_clean_linker_2, # of connection points: 2
#     Edge 106, Type (0, 1), BuildingBlock: XUDNAN_clean_linker_2, # of connection points: 2
#     Edge 107, Type (0, 1), BuildingBlock: XUDNAN_clean_linker_2, # of connection points: 2
# Relax obj value: 0.079
# Max RMSD: 0.278
# Mean RMSD: 0.120
data_MOF--net-ptr--node1-AZAVOO_clean_sbu_0--node2-MIFKUJ_clean_linker_1--edge1-XUDNAN_clean_linker_2
_symmetry_space_group_name_H-M    P1
_symmetry_Int_Tables_number       1
_symmetry_cell_setting            triclinic
loop_
_symmetry_equiv_pos_as_xyz
'x, y, z'
_cell_length_a     90.752802
_cell_length_b     89.296987
_cell_length_c     59.359641
_cell_angle_alpha  91.130593
_cell_angle_beta   90.924602
_cell_angle_gamma 120.07339
loop_
_atom_site_label
_atom_site_type_symbol
_atom_site_fract_x
_atom_site_fract_y
_atom_site_fract_z
_atom_type_partial_charge
Mg0 Mg 0.0177 0.33745 0.99818 0.0
O1 O 0.00376 0.34685 0.02189 0.0
O2 O 0.9878 0.35354 0.99979 0.0
Mg3 Mg 0.99024 0.3473 0.96311 0.0
C4 C 0.9935 0.35263 0.01922 0.0
C5 C 0.03825 0.32423 0.02422 0.0
O6 O 0.04349 0.32514 0.00352 0.0
O7 O 0.99351 0.31112 0.99218 0.0
O8 O 0.97814 0.31823 0.96973 0.0
O9 O 0.03858 0.36473 0.99521 0.0
O10 O 0.01591 0.35221 0.97231 0.0
C11 C 0.98015 0.30694 0.98007 0.0
C12 C 0.02971 0.36606 0.9789 0.0
O13 O 0.02665 0.32791 0.02801 0.0
Mg14 Mg 0.66766 0.65354 0.04822 0.0
O15 O 0.64795 0.64064 0.01922 0.0
O16 O 0.62179 0.62845 0.03296 0.0
Mg17 Mg 0.62493 0.63288 0.07133 0.0
C18 C 0.63178 0.63212 0.01649 0.0
C19 C 0.7015 0.66688 0.02342 0.0
O20 O 0.70357 0.65837 0.03981 0.0
O21 O 0.66201 0.67578 0.05185 0.0
O22 O 0.63632 0.66198 0.06711 0.0
O23 O 0.66698 0.62831 0.05282 0.0
O24 O 0.65067 0.63624 0.07066 0.0
C25 C 0.64907 0.67575 0.06014 0.0
C26 C 0.65475 0.62463 0.06654 0.0
O27 O 0.68794 0.66772 0.02237 0.0
Mg28 Mg 0.36184 0.01147 0.99904 0.0
O29 O 0.38049 0.02626 0.02847 0.0
O30 O 0.40035 0.05207 0.01683 0.0
Mg31 Mg 0.39513 0.05315 0.97921 0.0
C32 C 0.3938 0.041 0.03221 0.0
C33 C 0.32733 0.98416 0.01936 0.0
O34 O 0.32169 0.98469 0.99904 0.0
O35 O 0.34999 0.02868 0.00079 0.0
O36 O 0.37023 0.05293 0.98593 0.0
O37 O 0.37767 -0.00012 0.98881 0.0
O38 O 0.3811 0.02453 0.97627 0.0
C39 C 0.35535 0.04391 0.99372 0.0
C40 C 0.38611 0.01336 0.97672 0.0
O41 O 0.34315 0.99336 0.02418 0.0
Mg42 Mg 0.98337 0.65846 0.03681 0.0
O43 O 0.99744 0.64865 0.01402 0.0
O44 O 0.01523 0.64495 0.03684 0.0
Mg45 Mg 0.0114 0.65028 0.07337 0.0
C46 C 0.00899 0.64464 0.01729 0.0
C47 C 0.96489 0.65516 0.9915 0.0
O48 O 0.96338 0.63983 0.99357 0.0
O49 O 0.00759 0.68504 0.04166 0.0
O50 O 0.023 0.67911 0.06576 0.0
O51 O 0.96261 0.63136 0.04099 0.0
O52 O 0.98554 0.64438 0.06334 0.0
C53 C 0.02088 0.68985 0.05424 0.0
C54 C 0.97164 0.63039 0.05737 0.0
O55 O 0.97371 0.66693 0.00633 0.0
Mg56 Mg 0.34673 0.3444 0.9783 0.0
O57 O 0.36529 0.35202 0.00878 0.0
O58 O 0.38812 0.35091 0.99762 0.0
Mg59 Mg 0.38407 0.34231 0.96036 0.0
C60 C 0.38 0.35388 0.01276 0.0
C61 C 0.31056 0.33303 0.99216 0.0
O62 O 0.30885 0.32827 0.97074 0.0
O63 O 0.33877 0.31596 0.98071 0.0
O64 O 0.36135 0.31536 0.96737 0.0
O65 O 0.3598 0.37201 0.96756 0.0
O66 O 0.36673 0.3527 0.95633 0.0
C67 C 0.34619 0.30766 0.97463 0.0
C68 C 0.36969 0.36837 0.95608 0.0
O69 O 0.3254 0.34076 0.0013 0.0
Mg70 Mg 0.64255 0.99316 0.02213 0.0
O71 O 0.62223 0.97999 0.99364 0.0
O72 O 0.6009 0.95543 0.0063 0.0
Mg73 Mg 0.60701 0.95331 0.0431 0.0
C74 C 0.60783 0.96616 0.99065 0.0
C75 C 0.67616 0.02218 0.0015 0.0
O76 O 0.68056 0.026 0.02294 0.0
O77 O 0.65118 0.97328 0.01842 0.0
O78 O 0.62923 0.94975 0.03255 0.0
O79 O 0.62956 0.00731 0.03501 0.0
O80 O 0.62414 0.98167 0.04625 0.0
C81 C 0.64393 0.95748 0.02394 0.0
C82 C 0.62081 0.99406 0.04737 0.0
O83 O 0.66136 0.00984 0.99605 0.0
Mg84 Mg 0.68615 0.67894 0.32126 0.0
O85 O 0.67553 0.68906 0.34853 0.0
O86 O 0.65603 0.69429 0.33303 0.0
Mg87 Mg 0.65473 0.68792 0.29509 0.0
C88 C 0.66475 0.69421 0.35007 0.0
C89 C 0.71165 0.67049 0.3459 0.0
O90 O 0.71904 0.67546 0.32645 0.0
O91 O 0.66183 0.65254 0.3186 0.0
O92 O 0.6439 0.65874 0.30044 0.0
O93 O 0.70595 0.70623 0.31595 0.0
O94 O 0.68116 0.69282 0.29723 0.0
C95 C 0.64738 0.64782 0.30901 0.0
C96 C 0.69526 0.70695 0.30192 0.0
O97 O 0.69761 0.67006 0.34889 0.0
Mg98 Mg 0.32018 0.98666 0.37936 0.0
O99 O 0.30384 0.98128 0.34652 0.0
O100 O 0.28087 0.98264 0.35692 0.0
Mg101 Mg 0.28098 0.98606 0.39509 0.0
C102 C 0.28974 0.98072 0.34186 0.0
C103 C 0.34776 0.99486 0.34013 0.0
O104 O 0.3356 0.99176 0.32528 0.0
O105 O 0.32723 0.015 0.38075 0.0
O106 O 0.30359 0.01382 0.39323 0.0
O107 O 0.30772 0.9583 0.38548 0.0
O108 O 0.29796 0.97528 0.39715 0.0
C109 C 0.31912 0.02242 0.3875 0.0
C110 C 0.29593 0.95999 0.39516 0.0
O111 O 0.34462 0.9935 0.36102 0.0
Mg112 Mg 0.01928 0.32712 0.32672 0.0
O113 O 0.04046 0.34589 0.35143 0.0
O114 O 0.06223 0.36509 0.33155 0.0
Mg115 Mg 0.05538 0.35755 0.29416 0.0
C116 C 0.0553 0.35915 0.35032 0.0
C117 C 0.98469 0.30852 0.34969 0.0
O118 O 0.98036 0.30258 0.32878 0.0
O119 O 0.01294 0.34767 0.31696 0.0
O120 O 0.03452 0.36506 0.29546 0.0
O121 O 0.03005 0.30958 0.3274 0.0
O122 O 0.03737 0.33054 0.30324 0.0
C123 C 0.02024 0.36066 0.30436 0.0
C124 C 0.03961 0.31846 0.31116 0.0
O125 O 0.00027 0.31891 0.35478 0.0
Mg126 Mg 0.66292 0.98985 0.36674 0.0
O127 O 0.67551 0.97911 0.34242 0.0
O128 O 0.69158 0.97239 0.36433 0.0
Mg129 Mg 0.68871 0.97736 0.40128 0.0
C130 C 0.68597 0.97355 0.34496 0.0
C131 C 0.64341 0.0048 0.34231 0.0
O132 O 0.63936 0.00471 0.36348 0.0
O133 O 0.68849 0.01538 0.37214 0.0
O134 O 0.7025 0.00617 0.39394 0.0
O135 O 0.64066 0.96324 0.37056 0.0
O136 O 0.66389 0.9745 0.39231 0.0
C137 C 0.7017 0.01819 0.38368 0.0
C138 C 0.64928 0.96133 0.38667 0.0
O139 O 0.65415 0.00012 0.33747 0.0
Mg140 Mg 0.0087 0.6813 0.30417 0.0
O141 O 0.03158 0.68896 0.32832 0.0
O142 O 0.05156 0.687 0.30917 0.0
Mg143 Mg 0.04182 0.6787 0.27271 0.0
C144 C 0.04621 0.69025 0.32735 0.0
C145 C 0.9968 0.69311 0.34609 0.0
O146 O 0.01085 0.70746 0.34157 0.0
O147 O 0.00078 0.65255 0.30531 0.0
O148 O 0.02108 0.6524 0.28458 0.0
O149 O 0.02056 0.70885 0.29315 0.0
O150 O 0.02428 0.6887 0.27657 0.0
C151 C 0.00753 0.64454 0.29586 0.0
C152 C 0.02773 0.7045 0.27768 0.0
O153 O 0.99247 0.67955 0.33401 0.0
Mg154 Mg 0.33178 0.35787 0.37834 0.0
O155 O 0.31153 0.3404 0.35174 0.0
O156 O 0.28827 0.32212 0.37009 0.0
Mg157 Mg 0.29256 0.33023 0.40769 0.0
C158 C 0.29631 0.32766 0.35186 0.0
C159 C 0.35459 0.3737 0.33617 0.0
O160 O 0.34422 0.37971 0.33258 0.0
O161 O 0.3351 0.33565 0.39091 0.0
O162 O 0.31261 0.3222 0.41291 0.0
O163 O 0.32374 0.37789 0.3755 0.0
O164 O 0.3128 0.35625 0.39885 0.0
C165 C 0.3267 0.32448 0.40557 0.0
C166 C 0.31274 0.36944 0.39066 0.0
O167 O 0.35258 0.36454 0.3532 0.0
Mg168 Mg 0.33355 0.00292 0.65157 0.0
O169 O 0.32185 0.01044 0.681 0.0
O170 O 0.29853 0.00984 0.66693 0.0
Mg171 Mg 0.29407 0.00034 0.63022 0.0
C172 C 0.3091 0.01273 0.68317 0.0
C173 C 0.36803 0.01262 0.67333 0.0
O174 O 0.37154 0.02369 0.65723 0.0
O175 O 0.31367 0.97407 0.65377 0.0
O176 O 0.29069 0.97399 0.63945 0.0
O177 O 0.34711 0.03058 0.641 0.0
O178 O 0.32161 0.01095 0.62797 0.0
C179 C 0.29796 0.96606 0.64744 0.0
C180 C 0.33377 0.0268 0.62863 0.0
O181 O 0.35254 0.00119 0.67608 0.0
Mg182 Mg 0.9877 0.31731 0.70556 0.0
O183 O 0.96612 0.31129 0.67975 0.0
O184 O 0.94383 0.308 0.69929 0.0
Mg185 Mg 0.95017 0.3089 0.737 0.0
C186 C 0.95093 0.30862 0.68067 0.0
C187 C 0.01545 0.32159 0.6714 0.0
O188 O 0.01151 0.30634 0.67897 0.0
O189 O 0.99139 0.34386 0.71426 0.0
O190 O 0.96948 0.33813 0.7361 0.0
O191 O 0.97976 0.28933 0.70633 0.0
O192 O 0.9698 0.30206 0.72873 0.0
C193 C 0.98339 0.34886 0.72702 0.0
C194 C 0.96949 0.28809 0.72204 0.0
O195 O 0.00753 0.32901 0.67855 0.0
Mg196 Mg 0.68057 0.65235 0.64545 0.0
O197 O 0.70101 0.66476 0.67377 0.0
O198 O 0.72655 0.67926 0.65848 0.0
Mg199 Mg 0.7223 0.67672 0.62009 0.0
C200 C 0.7172 0.67407 0.67568 0.0
C201 C 0.65688 0.63608 0.68656 0.0
O202 O 0.66573 0.62815 0.68823 0.0
O203 O 0.68292 0.67837 0.63809 0.0
O204 O 0.70834 0.69216 0.62209 0.0
O205 O 0.68449 0.62934 0.64408 0.0
O206 O 0.69804 0.65245 0.62341 0.0
C207 C 0.69474 0.6916 0.6287 0.0
C208 C 0.69582 0.63771 0.62923 0.0
O209 O 0.66009 0.64672 0.67096 0.0
Mg210 Mg 0.32035 0.3275 0.71285 0.0
O211 O 0.32898 0.31702 0.68331 0.0
O212 O 0.35218 0.31618 0.69427 0.0
Mg213 Mg 0.35837 0.3259 0.73102 0.0
C214 C 0.34079 0.3136 0.67937 0.0
C215 C 0.30208 0.34448 0.68428 0.0
O216 O 0.31316 0.35908 0.69465 0.0
O217 O 0.34231 0.35529 0.70865 0.0
O218 O 0.3644 0.35316 0.7217 0.0
O219 O 0.30473 0.30042 0.72482 0.0
O220 O 0.33144 0.31821 0.73573 0.0
C221 C 0.35814 0.3621 0.71399 0.0
C222 C 0.31819 0.303 0.73608 0.0
O223 O 0.30236 0.33068 0.68835 0.0
Mg224 Mg 0.67366 0.01358 0.63754 0.0
O225 O 0.68992 0.02323 0.67015 0.0
O226 O 0.71402 0.02281 0.66498 0.0
Mg227 Mg 0.71348 0.01381 0.62828 0.0
C228 C 0.70437 0.02584 0.67736 0.0
C229 C 0.63618 0.00171 0.64587 0.0
O230 O 0.63582 0.99756 0.62442 0.0
O231 O 0.66682 0.98565 0.64264 0.0
O232 O 0.69104 0.98646 0.63387 0.0
O233 O 0.68643 0.04085 0.62561 0.0
O234 O 0.69532 0.02233 0.61869 0.0
C235 C 0.67536 0.97807 0.63903 0.0
C236 C 0.69756 0.03763 0.61677 0.0
O237 O 0.6504 0.0092 0.65665 0.0
Mg238 Mg 0.99218 0.6692 0.70874 0.0
O239 O 0.97341 0.65819 0.67819 0.0
O240 O 0.94724 0.64189 0.69143 0.0
Mg241 Mg 0.94892 0.64411 0.72978 0.0
C242 C 0.9574 0.64808 0.67516 0.0
C243 C 0.01598 0.68187 0.66677 0.0
O244 O 0.00347 0.6836 0.6583 0.0
O245 O 0.98882 0.64258 0.71525 0.0
O246 O 0.96277 0.62866 0.72946 0.0
O247 O 0.98966 0.69285 0.71032 0.0
O248 O 0.97317 0.66881 0.72808 0.0
C249 C 0.97652 0.62921 0.72373 0.0
C250 C 0.97677 0.68422 0.72302 0.0
O251 O 0.01481 0.67611 0.68647 0.0
H252 H 0.16686 0.33803 0.2095 0.0
H253 H 0.14525 0.33604 0.23558 0.0
H254 H 0.11093 0.28373 0.21111 0.0
H255 H 0.13241 0.2859 0.1847 0.0
H256 H 0.18092 0.3154 0.20709 0.0
H257 H 0.1505 0.33496 0.16329 0.0
H258 H 0.1259 0.33489 0.14593 0.0
H259 H 0.11472 0.28935 0.10582 0.0
H260 H 0.13913 0.28913 0.12376 0.0
H261 H 0.18269 0.28694 0.1205 0.0
H262 H 0.20183 0.28771 0.09156 0.0
H263 H 0.24105 0.33773 0.11799 0.0
H264 H 0.22189 0.33663 0.14731 0.0
H265 H 0.17173 0.31028 0.12408 0.0
H266 H 0.20005 0.28887 0.1731 0.0
H267 H 0.22085 0.28662 0.19754 0.0
H268 H 0.23557 0.33663 0.22821 0.0
H269 H 0.21498 0.33887 0.20364 0.0
C270 C 0.15114 0.31215 0.19515 0.0
C271 C 0.15466 0.32618 0.20974 0.0
C272 C 0.14234 0.32505 0.22452 0.0
C273 C 0.12652 0.30972 0.2253 0.0
C274 C 0.12309 0.29563 0.21086 0.0
C275 C 0.13528 0.29689 0.19576 0.0
C276 C 0.16419 0.31326 0.17961 0.0
C277 C 0.1791 0.31458 0.1889 0.0
C278 C 0.1615 0.31187 0.15596 0.0
C279 C 0.14653 0.31184 0.14521 0.0
C280 C 0.14259 0.32473 0.15111 0.0
C281 C 0.12854 0.32472 0.14112 0.0
C282 C 0.11832 0.31204 0.12464 0.0
C283 C 0.12242 0.29932 0.11842 0.0
C284 C 0.13636 0.29919 0.12866 0.0
C285 C 0.20085 0.31173 0.13602 0.0
C286 C 0.1955 0.29795 0.12024 0.0
C287 C 0.20643 0.29848 0.10362 0.0
C288 C 0.2229 0.31291 0.10222 0.0
C289 C 0.2285 0.32637 0.11867 0.0
C290 C 0.21756 0.32577 0.13543 0.0
C291 C 0.18843 0.31208 0.15158 0.0
C292 C 0.17361 0.31114 0.14226 0.0
C293 C 0.19126 0.31397 0.17521 0.0
C294 C 0.20599 0.31405 0.18653 0.0
C295 C 0.20813 0.29957 0.18461 0.0
C296 C 0.21991 0.29823 0.19872 0.0
C297 C 0.22978 0.31139 0.21492 0.0
C298 C 0.22832 0.32635 0.21578 0.0
C299 C 0.21649 0.32761 0.20181 0.0
H300 H 0.72377 0.90216 0.18129 0.0
H301 H 0.72609 0.9259 0.2054 0.0
H302 H 0.67457 0.8927 0.22676 0.0
H303 H 0.67226 0.86937 0.20208 0.0
H304 H 0.70258 0.85967 0.20783 0.0
H305 H 0.71564 0.89705 0.13894 0.0
H306 H 0.71083 0.91292 0.10904 0.0
H307 H 0.65707 0.87519 0.10783 0.0
H308 H 0.66195 0.85953 0.13755 0.0
H309 H 0.66063 0.81771 0.13344 0.0
H310 H 0.65083 0.79029 0.11354 0.0
H311 H 0.69593 0.78972 0.13705 0.0
H312 H 0.70648 0.81821 0.15528 0.0
H313 H 0.68527 0.84722 0.12695 0.0
H314 H 0.66996 0.80983 0.19329 0.0
H315 H 0.67237 0.78941 0.21782 0.0
H316 H 0.72696 0.82371 0.22313 0.0
H317 H 0.72424 0.84428 0.19943 0.0
C318 C 0.69783 0.88411 0.18988 0.0
C319 C 0.71288 0.9002 0.19079 0.0
C320 C 0.71421 0.91368 0.20473 0.0
C321 C 0.70054 0.91121 0.21816 0.0
C322 C 0.68526 0.8952 0.21646 0.0
C323 C 0.68394 0.88179 0.20247 0.0
C324 C 0.69693 0.8691 0.17765 0.0
C325 C 0.69902 0.85701 0.19004 0.0
C326 C 0.6922 0.86559 0.15462 0.0
C327 C 0.68912 0.87723 0.14051 0.0
C328 C 0.70278 0.89256 0.13269 0.0
C329 C 0.70004 0.9015 0.11552 0.0
C330 C 0.68364 0.89505 0.10583 0.0
C331 C 0.6699 0.88023 0.11464 0.0
C332 C 0.67263 0.8714 0.13178 0.0
C333 C 0.68425 0.82005 0.14612 0.0
C334 C 0.66854 0.81181 0.13418 0.0
C335 C 0.66281 0.79591 0.12301 0.0
C336 C 0.67242 0.78754 0.12387 0.0
C337 C 0.68821 0.7958 0.13582 0.0
C338 C 0.69414 0.81199 0.14663 0.0
C339 C 0.69012 0.83729 0.15723 0.0
C340 C 0.68908 0.84988 0.14467 0.0
C341 C 0.69555 0.84109 0.18016 0.0
C342 C 0.69694 0.8285 0.19456 0.0
C343 C 0.68242 0.81288 0.1998 0.0
C344 C 0.68386 0.80119 0.21371 0.0
C345 C 0.69987 0.80487 0.22255 0.0
C346 C 0.71438 0.82055 0.21706 0.0
C347 C 0.71289 0.83229 0.20338 0.0
H348 H 0.1297 0.84398 0.18877 0.0
H349 H 0.1059 0.818 0.20441 0.0
H350 H 0.12728 0.78746 0.17903 0.0
H351 H 0.15054 0.81322 0.16308 0.0
H352 H 0.16699 0.85889 0.19528 0.0
H353 H 0.12427 0.83945 0.1353 0.0
H354 H 0.10046 0.81549 0.11414 0.0
H355 H 0.13411 0.79764 0.09119 0.0
H356 H 0.15795 0.82175 0.11234 0.0
H357 H 0.21631 0.87687 0.15301 0.0
H358 H 0.243 0.89708 0.13572 0.0
H359 H 0.21598 0.9148 0.09327 0.0
H360 H 0.18921 0.89415 0.11035 0.0
H361 H 0.17274 0.85872 0.11219 0.0
H362 H 0.19822 0.86957 0.20597 0.0
H363 H 0.21872 0.89288 0.23134 0.0
H364 H 0.21806 0.93057 0.18737 0.0
H365 H 0.19687 0.90721 0.16282 0.0
C366 C 0.14171 0.83041 0.17461 0.0
C367 C 0.12922 0.83166 0.18675 0.0
C368 C 0.11568 0.81683 0.19568 0.0
C369 C 0.11456 0.8006 0.1927 0.0
C370 C 0.12748 0.79963 0.18114 0.0
C371 C 0.14087 0.81437 0.17216 0.0
C372 C 0.15547 0.84559 0.16369 0.0
C373 C 0.16829 0.85902 0.17714 0.0
C374 C 0.15676 0.84585 0.14 0.0
C375 C 0.14286 0.83236 0.12535 0.0
C376 C 0.12656 0.83051 0.12545 0.0
C377 C 0.11299 0.81686 0.11331 0.0
C378 C 0.11544 0.8047 0.10105 0.0
C379 C 0.13186 0.80678 0.1006 0.0
C380 C 0.14549 0.82059 0.11251 0.0
C381 C 0.20083 0.88415 0.1331 0.0
C382 C 0.21616 0.88515 0.14002 0.0
C383 C 0.23142 0.89678 0.13019 0.0
C384 C 0.23167 0.90767 0.11321 0.0
C385 C 0.21623 0.90648 0.10612 0.0
C386 C 0.20093 0.89474 0.1159 0.0
C387 C 0.18474 0.87191 0.14384 0.0
C388 C 0.17146 0.85891 0.13032 0.0
C389 C 0.18292 0.87234 0.16749 0.0
C390 C 0.196 0.88658 0.18239 0.0
C391 C 0.20246 0.88286 0.20183 0.0
C392 C 0.21437 0.89623 0.21619 0.0
C393 C 0.22011 0.91366 0.21142 0.0
C394 C 0.2138 0.91733 0.19174 0.0
C395 C 0.2018 0.90396 0.17751 0.0
H396 H 0.2717 0.16527 0.83607 0.0
H397 H 0.2786 0.1925 0.81815 0.0
H398 H 0.32441 0.19595 0.79247 0.0
H399 H 0.31757 0.16891 0.8104 0.0
H400 H 0.29212 0.13606 0.80832 0.0
H401 H 0.26973 0.15076 0.894 0.0
H402 H 0.27502 0.17506 0.91911 0.0
H403 H 0.32144 0.20793 0.88447 0.0
H404 H 0.31673 0.18334 0.86075 0.0
H405 H 0.31584 0.1156 0.86272 0.0
H406 H 0.3213 0.09868 0.88987 0.0
H407 H 0.27422 0.08555 0.92233 0.0
H408 H 0.2685 0.10203 0.89449 0.0
H409 H 0.28873 0.13619 0.89155 0.0
H410 H 0.31318 0.12669 0.80538 0.0
H411 H 0.31559 0.10451 0.78365 0.0
H412 H 0.27499 0.06464 0.82093 0.0
H413 H 0.27175 0.08676 0.84188 0.0
C414 C 0.29419 0.16513 0.82472 0.0
C415 C 0.2831 0.17178 0.8263 0.0
C416 C 0.287 0.18727 0.81601 0.0
C417 C 0.30212 0.19638 0.80413 0.0
C418 C 0.31278 0.18928 0.80175 0.0
C419 C 0.3088 0.17377 0.81183 0.0
C420 C 0.29149 0.15003 0.83786 0.0
C421 C 0.29137 0.136 0.82654 0.0
C422 C 0.29035 0.15 0.86161 0.0
C423 C 0.29265 0.16525 0.87516 0.0
C424 C 0.28101 0.16324 0.89179 0.0
C425 C 0.28401 0.1772 0.90606 0.0
C426 C 0.29871 0.19351 0.90395 0.0
C427 C 0.31015 0.19553 0.88695 0.0
C428 C 0.30728 0.18151 0.87297 0.0
C429 C 0.29167 0.10993 0.87642 0.0
C430 C 0.30645 0.10869 0.87526 0.0
C431 C 0.30968 0.09923 0.89103 0.0
C432 C 0.29831 0.09101 0.90847 0.0
C433 C 0.28318 0.09168 0.90906 0.0
C434 C 0.27992 0.10111 0.89321 0.0
C435 C 0.28969 0.12227 0.86213 0.0
C436 C 0.28893 0.13587 0.87327 0.0
C437 C 0.29086 0.12223 0.83834 0.0
C438 C 0.29231 0.10852 0.82545 0.0
C439 C 0.3046 0.1132 0.80879 0.0
C440 C 0.30608 0.10056 0.79646 0.0
C441 C 0.29553 0.08299 0.8008 0.0
C442 C 0.28334 0.07818 0.8175 0.0
C443 C 0.28157 0.09083 0.82952 0.0
H444 H 0.81968 0.11099 0.81446 0.0
H445 H 0.79637 0.09273 0.78839 0.0
H446 H 0.7621 0.10161 0.82905 0.0
H447 H 0.78598 0.1217 0.85318 0.0
H448 H 0.83463 0.14255 0.82218 0.0
H449 H 0.8032 0.09499 0.87091 0.0
H450 H 0.77717 0.07393 0.88914 0.0
H451 H 0.77557 0.11566 0.92492 0.0
H452 H 0.80137 0.13667 0.90637 0.0
H453 H 0.84688 0.17859 0.90644 0.0
H454 H 0.8704 0.20146 0.9292 0.0
H455 H 0.90458 0.18564 0.90214 0.0
H456 H 0.8809 0.1626 0.87955 0.0
H457 H 0.83277 0.14342 0.90556 0.0
H458 H 0.86488 0.19065 0.85649 0.0
H459 H 0.88855 0.21132 0.83455 0.0
H460 H 0.88784 0.16887 0.79709 0.0
H461 H 0.86528 0.1484 0.82049 0.0
C462 C 0.80471 0.11768 0.83609 0.0
C463 C 0.80716 0.10913 0.81766 0.0
C464 C 0.79362 0.09836 0.80287 0.0
C465 C 0.77706 0.09541 0.8064 0.0
C466 C 0.77459 0.10368 0.82525 0.0
C467 C 0.78828 0.11497 0.83954 0.0
C468 C 0.81953 0.13007 0.85083 0.0
C469 C 0.83434 0.14243 0.84044 0.0
C470 C 0.81905 0.13034 0.87471 0.0
C471 C 0.8041 0.11743 0.88702 0.0
C472 C 0.79723 0.0996 0.88266 0.0
C473 C 0.78238 0.0876 0.89305 0.0
C474 C 0.77432 0.09319 0.90832 0.0
C475 C 0.78158 0.11098 0.91334 0.0
C476 C 0.79632 0.12299 0.90275 0.0
C477 C 0.86216 0.16898 0.89117 0.0
C478 C 0.85941 0.17996 0.90554 0.0
C479 C 0.87288 0.19309 0.91841 0.0
C480 C 0.88936 0.19541 0.91738 0.0
C481 C 0.89201 0.18411 0.90341 0.0
C482 C 0.87853 0.17102 0.89039 0.0
C483 C 0.84786 0.15562 0.8768 0.0
C484 C 0.83314 0.14321 0.8873 0.0
C485 C 0.84852 0.15513 0.853 0.0
C486 C 0.86344 0.16792 0.84046 0.0
C487 C 0.87016 0.1858 0.84402 0.0
C488 C 0.88353 0.19763 0.83109 0.0
C489 C 0.89016 0.19185 0.81387 0.0
C490 C 0.88338 0.17391 0.81042 0.0
C491 C 0.87029 0.16213 0.82366 0.0
H492 H 0.80058 0.68076 0.85068 0.0
H493 H 0.77697 0.67714 0.8265 0.0
H494 H 0.80955 0.72716 0.79857 0.0
H495 H 0.83318 0.73083 0.82306 0.0
H496 H 0.84766 0.71234 0.82058 0.0
H497 H 0.81351 0.67687 0.90101 0.0
H498 H 0.79018 0.67368 0.92419 0.0
H499 H 0.79927 0.72376 0.90378 0.0
H500 H 0.82242 0.72672 0.88033 0.0
H501 H 0.87778 0.71339 0.91095 0.0
H502 H 0.89551 0.70303 0.92815 0.0
H503 H 0.8875 0.67088 0.86852 0.0
H504 H 0.86848 0.6798 0.85272 0.0
H505 H 0.84614 0.69819 0.90118 0.0
H506 H 0.89502 0.72933 0.85328 0.0
H507 H 0.91747 0.73113 0.82889 0.0
H508 H 0.87909 0.69165 0.78413 0.0
H509 H 0.8568 0.6899 0.80835 0.0
C510 C 0.81867 0.70616 0.8389 0.0
C511 C 0.80254 0.69122 0.83991 0.0
C512 C 0.78903 0.68912 0.82598 0.0
C513 C 0.79141 0.70183 0.81054 0.0
C514 C 0.80738 0.71706 0.81011 0.0
C515 C 0.82087 0.7192 0.82417 0.0
C516 C 0.83359 0.70708 0.85105 0.0
C517 C 0.84746 0.70956 0.83833 0.0
C518 C 0.83347 0.70363 0.87424 0.0
C519 C 0.81966 0.70199 0.88886 0.0
C520 C 0.81055 0.68722 0.90166 0.0
C521 C 0.79724 0.68544 0.91496 0.0
C522 C 0.79284 0.69847 0.91585 0.0
C523 C 0.80214 0.71336 0.9032 0.0
C524 C 0.81542 0.7151 0.88986 0.0
C525 C 0.87195 0.69768 0.88027 0.0
C526 C 0.87982 0.70406 0.90163 0.0
C527 C 0.89016 0.69825 0.91136 0.0
C528 C 0.89302 0.68601 0.89986 0.0
C529 C 0.88541 0.68 0.87825 0.0
C530 C 0.87477 0.68545 0.86884 0.0
C531 C 0.85996 0.70285 0.87045 0.0
C532 C 0.84663 0.70151 0.88362 0.0
C533 C 0.86061 0.70753 0.84765 0.0
C534 C 0.87428 0.70941 0.83266 0.0
C535 C 0.89148 0.72117 0.83813 0.0
C536 C 0.90425 0.72227 0.82416 0.0
C537 C 0.89993 0.71149 0.80473 0.0
C538 C 0.88271 0.70002 0.7991 0.0
C539 C 0.87 0.69907 0.81285 0.0
H540 H 0.82618 0.65604 0.54855 0.0
H541 H 0.80155 0.64729 0.57218 0.0
H542 H 0.76839 0.61345 0.51835 0.0
H543 H 0.7932 0.62132 0.49501 0.0
H544 H 0.84002 0.64014 0.53315 0.0
H545 H 0.81257 0.66805 0.4974 0.0
H546 H 0.78962 0.67012 0.47819 0.0
H547 H 0.78936 0.63731 0.42354 0.0
H548 H 0.81215 0.6351 0.44294 0.0
H549 H 0.8606 0.64356 0.44022 0.0
H550 H 0.88674 0.65402 0.41924 0.0
H551 H 0.91523 0.68986 0.47451 0.0
H552 H 0.88896 0.68014 0.49462 0.0
H553 H 0.84378 0.65883 0.45436 0.0
H554 H 0.86983 0.6294 0.49347 0.0
H555 H 0.8912 0.62631 0.51564 0.0
H556 H 0.89432 0.66449 0.56431 0.0
H557 H 0.87303 0.66745 0.54222 0.0
C558 C 0.81161 0.63951 0.51982 0.0
C559 C 0.81367 0.64654 0.54184 0.0
C560 C 0.79963 0.64155 0.55536 0.0
C561 C 0.78322 0.62967 0.54702 0.0
C562 C 0.78101 0.62263 0.52505 0.0
C563 C 0.79514 0.62728 0.51168 0.0
C564 C 0.82686 0.64469 0.50597 0.0
C565 C 0.84084 0.64443 0.51601 0.0
C566 C 0.82788 0.64986 0.48332 0.0
C567 C 0.81396 0.65123 0.47177 0.0
C568 C 0.80745 0.66114 0.48141 0.0
C569 C 0.79433 0.66231 0.47042 0.0
C570 C 0.78765 0.65384 0.44938 0.0
C571 C 0.79434 0.64411 0.43963 0.0
C572 C 0.80734 0.64282 0.45072 0.0
C573 C 0.87282 0.66085 0.46916 0.0
C574 C 0.87248 0.65374 0.44773 0.0
C575 C 0.88749 0.65962 0.43586 0.0
C576 C 0.90317 0.67273 0.44521 0.0
C577 C 0.90341 0.67989 0.46663 0.0
C578 C 0.88839 0.67414 0.47835 0.0
C579 C 0.8569 0.65455 0.48183 0.0
C580 C 0.84283 0.65451 0.47151 0.0
C581 C 0.85579 0.64934 0.50434 0.0
C582 C 0.86986 0.64863 0.51628 0.0
C583 C 0.87534 0.63728 0.50874 0.0
C584 C 0.88749 0.6355 0.52141 0.0
C585 C 0.89444 0.6452 0.54165 0.0
C586 C 0.88937 0.65703 0.54864 0.0
C587 C 0.87711 0.65863 0.53615 0.0
H588 H 0.37303 0.21968 0.56417 0.0
H589 H 0.36727 0.23916 0.58664 0.0
H590 H 0.33493 0.2393 0.53232 0.0
H591 H 0.33929 0.21837 0.51116 0.0
H592 H 0.3536 0.18828 0.55091 0.0
H593 H 0.38712 0.2409 0.51011 0.0
H594 H 0.38789 0.26637 0.49423 0.0
H595 H 0.34801 0.23328 0.4459 0.0
H596 H 0.34733 0.20794 0.46178 0.0
H597 H 0.33435 0.14505 0.49426 0.0
H598 H 0.33212 0.12116 0.47137 0.0
H599 H 0.38152 0.15531 0.44421 0.0
H600 H 0.38427 0.17887 0.46883 0.0
H601 H 0.36731 0.195 0.46986 0.0
H602 H 0.32898 0.15558 0.54398 0.0
H603 H 0.32178 0.12845 0.562 0.0
H604 H 0.37034 0.1346 0.54366 0.0
H605 H 0.37756 0.16188 0.52571 0.0
C606 C 0.35686 0.21772 0.53573 0.0
C607 C 0.36462 0.22385 0.55716 0.0
C608 C 0.36148 0.23524 0.5699 0.0
C609 C 0.35067 0.24104 0.56138 0.0
C610 C 0.34309 0.23501 0.53975 0.0
C611 C 0.34587 0.22324 0.52733 0.0
C612 C 0.35965 0.20497 0.52266 0.0
C613 C 0.35685 0.18989 0.53328 0.0
C614 C 0.36399 0.20701 0.49963 0.0
C615 C 0.36694 0.22253 0.4874 0.0
C616 C 0.37881 0.2392 0.49579 0.0
C617 C 0.37922 0.25371 0.48673 0.0
C618 C 0.36786 0.25178 0.46902 0.0
C619 C 0.35701 0.2352 0.45942 0.0
C620 C 0.35657 0.22069 0.46852 0.0
C621 C 0.35968 0.1637 0.48378 0.0
C622 C 0.3449 0.14733 0.48381 0.0
C623 C 0.3435 0.13371 0.47026 0.0
C624 C 0.3566 0.13623 0.45572 0.0
C625 C 0.37128 0.15275 0.45541 0.0
C626 C 0.37282 0.16631 0.46935 0.0
C627 C 0.36101 0.17822 0.49806 0.0
C628 C 0.3646 0.19363 0.48767 0.0
C629 C 0.35748 0.17652 0.52133 0.0
C630 C 0.35376 0.16068 0.5334 0.0
C631 C 0.33816 0.15119 0.54405 0.0
C632 C 0.33401 0.13564 0.55418 0.0
C633 C 0.34546 0.12939 0.55409 0.0
C634 C 0.36132 0.13918 0.54406 0.0
C635 C 0.36541 0.15469 0.53372 0.0
H636 H 0.78469 0.17427 0.51809 0.0
H637 H 0.76578 0.14727 0.53665 0.0
H638 H 0.80263 0.13056 0.52722 0.0
H639 H 0.82063 0.15691 0.50729 0.0
H640 H 0.825 0.19803 0.53007 0.0
H641 H 0.78169 0.16214 0.4735 0.0
H642 H 0.76489 0.13447 0.45309 0.0
H643 H 0.81062 0.14136 0.42214 0.0
H644 H 0.82745 0.16795 0.44435 0.0
H645 H 0.86273 0.20718 0.45155 0.0
H646 H 0.88773 0.22876 0.43257 0.0
H647 H 0.88017 0.26929 0.46069 0.0
H648 H 0.85462 0.24743 0.47938 0.0
H649 H 0.83107 0.19736 0.44729 0.0
H650 H 0.87436 0.22591 0.50593 0.0
H651 H 0.89442 0.24848 0.53236 0.0
H652 H 0.85282 0.25224 0.56106 0.0
H653 H 0.83317 0.23075 0.53338 0.0
C654 C 0.80385 0.16735 0.5111 0.0
C655 C 0.78855 0.16467 0.52002 0.0
C656 C 0.77784 0.14928 0.53078 0.0
C657 C 0.78253 0.13654 0.53336 0.0
C658 C 0.79826 0.13972 0.52502 0.0
C659 C 0.8087 0.15487 0.51381 0.0
C660 C 0.81505 0.18322 0.49903 0.0
C661 C 0.82615 0.19815 0.51189 0.0
C662 C 0.81666 0.18289 0.47541 0.0
C663 C 0.80597 0.16696 0.46112 0.0
C664 C 0.78815 0.15751 0.46267 0.0
C665 C 0.77847 0.1418 0.45056 0.0
C666 C 0.78635 0.1354 0.43611 0.0
C667 C 0.80408 0.14548 0.43358 0.0
C668 C 0.81376 0.16092 0.44608 0.0
C669 C 0.85674 0.22564 0.46689 0.0
C670 C 0.86625 0.22067 0.45344 0.0
C671 C 0.88056 0.23301 0.4426 0.0
C672 C 0.8858 0.25066 0.44506 0.0
C673 C 0.87639 0.25575 0.4586 0.0
C674 C 0.86184 0.24329 0.46928 0.0
C675 C 0.84169 0.21207 0.47841 0.0
C676 C 0.82974 0.19754 0.46541 0.0
C677 C 0.83975 0.21249 0.50203 0.0
C678 C 0.85226 0.22685 0.51728 0.0
C679 C 0.86965 0.23198 0.51746 0.0
C680 C 0.88109 0.24472 0.53292 0.0
C681 C 0.87534 0.2523 0.54899 0.0
C682 C 0.85789 0.24709 0.5487 0.0
C683 C 0.84654 0.23461 0.53299 0.0
H684 H 0.93848 0.49546 0.16863 0.0
H685 H 0.93587 0.51788 0.14882 0.0
H686 H 0.98305 0.5327 0.11568 0.0
H687 H 0.9856 0.51024 0.13555 0.0
H688 H 0.96407 0.47442 0.13594 0.0
H689 H 0.94481 0.4865 0.22472 0.0
H690 H 0.94744 0.51012 0.24932 0.0
H691 H 0.98964 0.54684 0.21065 0.0
H692 H 0.98743 0.52321 0.18687 0.0
H693 H 0.99266 0.45426 0.18419 0.0
H694 H 0.99748 0.43432 0.2062 0.0
H695 H 0.9555 0.42538 0.24829 0.0
H696 H 0.94981 0.44407 0.22488 0.0
H697 H 0.96791 0.47661 0.21948 0.0
H698 H 0.98713 0.46632 0.13013 0.0
H699 H 0.98968 0.44409 0.10872 0.0
H700 H 0.95088 0.40454 0.14866 0.0
H701 H 0.94783 0.42674 0.16952 0.0
C702 C 0.96225 0.50123 0.15357 0.0
C703 C 0.94823 0.50352 0.15705 0.0
C704 C 0.94672 0.51627 0.14568 0.0
C705 C 0.95929 0.52705 0.13077 0.0
C706 C 0.97328 0.52468 0.12725 0.0
C707 C 0.97467 0.51178 0.13841 0.0
C708 C 0.96419 0.48815 0.16622 0.0
C709 C 0.965 0.47488 0.15421 0.0
C710 C 0.9651 0.48866 0.19005 0.0
C711 C 0.9658 0.50309 0.20379 0.0
C712 C 0.95458 0.49967 0.22153 0.0
C713 C 0.95604 0.51318 0.2355 0.0
C714 C 0.96882 0.53035 0.23206 0.0
C715 C 0.97983 0.53374 0.21402 0.0
C716 C 0.97842 0.52025 0.20016 0.0
C717 C 0.97065 0.45042 0.20255 0.0
C718 C 0.98424 0.44768 0.19782 0.0
C719 C 0.98717 0.43648 0.21075 0.0
C720 C 0.97691 0.42818 0.22917 0.0
C721 C 0.96347 0.43119 0.23402 0.0
C722 C 0.96031 0.44207 0.22077 0.0
C723 C 0.96766 0.46265 0.18931 0.0
C724 C 0.96666 0.47584 0.20122 0.0
C725 C 0.96667 0.46203 0.16539 0.0
C726 C 0.96745 0.44829 0.1517 0.0
C727 C 0.97897 0.45286 0.1341 0.0
C728 C 0.98045 0.44016 0.12189 0.0
C729 C 0.97056 0.42263 0.12716 0.0
C730 C 0.95881 0.41799 0.14446 0.0
C731 C 0.95709 0.43068 0.1564 0.0
H732 H 0.49879 0.43526 0.15399 0.0
H733 H 0.47507 0.41339 0.13034 0.0
H734 H 0.44435 0.4357 0.1501 0.0
H735 H 0.46794 0.45721 0.17391 0.0
H736 H 0.51618 0.47056 0.15213 0.0
H737 H 0.48302 0.42865 0.20545 0.0
H738 H 0.45777 0.40876 0.22583 0.0
H739 H 0.45273 0.45192 0.24999 0.0
H740 H 0.47753 0.47163 0.22876 0.0
H741 H 0.52211 0.51414 0.22784 0.0
H742 H 0.54358 0.5389 0.2505 0.0
H743 H 0.58097 0.52416 0.23454 0.0
H744 H 0.5593 0.49915 0.21235 0.0
H745 H 0.50931 0.48 0.23303 0.0
H746 H 0.5363 0.51937 0.17194 0.0
H747 H 0.56015 0.5399 0.15013 0.0
H748 H 0.57723 0.50271 0.14283 0.0
H749 H 0.55264 0.48189 0.16375 0.0
C750 C 0.48507 0.44773 0.16592 0.0
C751 C 0.48691 0.43537 0.15323 0.0
C752 C 0.47335 0.42292 0.13967 0.0
C753 C 0.45773 0.42269 0.13839 0.0
C754 C 0.45603 0.43521 0.15104 0.0
C755 C 0.46954 0.44758 0.16461 0.0
C756 C 0.49944 0.46111 0.18017 0.0
C757 C 0.51479 0.47237 0.16994 0.0
C758 C 0.49755 0.46374 0.20329 0.0
C759 C 0.4821 0.45162 0.21544 0.0
C760 C 0.47632 0.43379 0.21486 0.0
C761 C 0.46198 0.42245 0.2267 0.0
C762 C 0.45323 0.42875 0.23954 0.0
C763 C 0.45901 0.44661 0.24 0.0
C764 C 0.4733 0.45792 0.22808 0.0
C765 C 0.5391 0.50484 0.21825 0.0
C766 C 0.53493 0.51622 0.22926 0.0
C767 C 0.54725 0.53045 0.24208 0.0
C768 C 0.564 0.53353 0.24432 0.0
C769 C 0.56814 0.52206 0.23335 0.0
C770 C 0.55581 0.50786 0.22045 0.0
C771 C 0.52584 0.48965 0.20486 0.0
C772 C 0.51074 0.47801 0.21529 0.0
C773 C 0.52791 0.48667 0.18195 0.0
C774 C 0.54284 0.49922 0.16952 0.0
C775 C 0.54524 0.5157 0.16568 0.0
C776 C 0.55899 0.52747 0.15333 0.0
C777 C 0.57079 0.52307 0.14482 0.0
C778 C 0.56832 0.50649 0.14884 0.0
C779 C 0.55437 0.49461 0.16092 0.0
H780 H 0.55216 0.04178 0.19079 0.0
H781 H 0.56902 0.03418 0.16583 0.0
H782 H 0.52295 0.98814 0.14255 0.0
H783 H 0.5063 0.9957 0.16733 0.0
H784 H 0.50367 0.02548 0.16823 0.0
H785 H 0.54371 0.0453 0.25079 0.0
H786 H 0.56707 0.04258 0.26766 0.0
H787 H 0.54888 0.99388 0.23118 0.0
H788 H 0.52535 0.99642 0.21486 0.0
H789 H 0.46038 0.00295 0.21961 0.0
H790 H 0.43766 0.00023 0.24355 0.0
H791 H 0.47434 0.04463 0.28394 0.0
H792 H 0.49714 0.04713 0.25995 0.0
H793 H 0.50864 0.02493 0.25151 0.0
H794 H 0.4711 0.00751 0.16534 0.0
H795 H 0.45236 0.01389 0.14282 0.0
H796 H 0.46648 0.05917 0.18544 0.0
H797 H 0.48578 0.05304 0.20746 0.0
C798 C 0.52803 0.01922 0.18096 0.0
C799 C 0.54576 0.0301 0.18023 0.0
C800 C 0.55532 0.02582 0.16594 0.0
C801 C 0.54724 0.01054 0.15242 0.0
C802 C 0.52949 -0.00011 0.15298 0.0
C803 C 0.51997 0.00423 0.16702 0.0
C804 C 0.51756 0.02308 0.19622 0.0
C805 C 0.50466 0.02528 0.18646 0.0
C806 C 0.51942 0.02349 0.21999 0.0
C807 C 0.53296 0.02126 0.23118 0.0
C808 C 0.54466 0.03397 0.24659 0.0
C809 C 0.55801 0.0324 0.2562 0.0
C810 C 0.55993 0.01813 0.2505 0.0
C811 C 0.54793 0.0052 0.23554 0.0
C812 C 0.53448 0.00665 0.22618 0.0
C813 C 0.48044 0.02537 0.23784 0.0
C814 C 0.46352 0.01224 0.23346 0.0
C815 C 0.45051 0.01073 0.24714 0.0
C816 C 0.45414 0.02227 0.26561 0.0
C817 C 0.47112 0.03543 0.26998 0.0
C818 C 0.48417 0.03691 0.25627 0.0
C819 C 0.49416 0.02656 0.2234 0.0
C820 C 0.50773 0.02538 0.23332 0.0
C821 C 0.49297 0.0271 0.19967 0.0
C822 C 0.47992 0.02982 0.18804 0.0
C823 C 0.47005 0.01873 0.16998 0.0
C824 C 0.45919 0.02231 0.15724 0.0
C825 C 0.45793 0.03708 0.16228 0.0
C826 C 0.4673 0.0478 0.18096 0.0
C827 C 0.47821 0.04422 0.1937 0.0
H828 H 0.50197 0.0155 0.85346 0.0
H829 H 0.48686 0.0237 0.88014 0.0
H830 H 0.43902 0.97997 0.85644 0.0
H831 H 0.45432 0.97164 0.82987 0.0
H832 H 0.50345 0.98618 0.85147 0.0
H833 H 0.48466 0.01635 0.80451 0.0
H834 H 0.46535 0.0237 0.78513 0.0
H835 H 0.44025 0.97344 0.75107 0.0
H836 H 0.45932 0.9659 0.77122 0.0
H837 H 0.50182 0.95618 0.76264 0.0
H838 H 0.52107 0.95594 0.73446 0.0
H839 H 0.56242 0.00286 0.76533 0.0
H840 H 0.54323 0.00263 0.79376 0.0
H841 H 0.49401 0.9819 0.76856 0.0
H842 H 0.51729 0.95442 0.81374 0.0
H843 H 0.53609 0.94801 0.83636 0.0
H844 H 0.554 0.99608 0.87449 0.0
H845 H 0.53589 0.00276 0.85117 0.0
C846 C 0.47925 0.99301 0.83965 0.0
C847 C 0.48823 0.00767 0.85401 0.0
C848 C 0.47958 0.0124 0.86914 0.0
C849 C 0.46177 0.00249 0.87031 0.0
C850 C 0.45277 0.98775 0.85598 0.0
C851 C 0.46145 0.98307 0.8407 0.0
C852 C 0.48876 0.98806 0.82407 0.0
C853 C 0.50155 0.9854 0.83329 0.0
C854 C 0.48573 0.98645 0.80047 0.0
C855 C 0.47334 0.99049 0.78953 0.0
C856 C 0.47479 0.00676 0.79324 0.0
C857 C 0.46384 0.01102 0.78194 0.0
C858 C 0.4513 0.99919 0.76645 0.0
C859 C 0.44964 0.98277 0.76306 0.0
C860 C 0.46062 0.9785 0.77443 0.0
C861 C 0.52112 0.97934 0.78036 0.0
C862 C 0.5151 0.96624 0.76348 0.0
C863 C 0.5261 0.96622 0.7473 0.0
C864 C 0.5433 0.97946 0.74749 0.0
C865 C 0.54936 0.99231 0.76482 0.0
C866 C 0.53838 0.99222 0.7811 0.0
C867 C 0.50917 0.98056 0.79596 0.0
C868 C 0.49583 0.98244 0.78673 0.0
C869 C 0.51191 0.98181 0.8196 0.0
C870 C 0.5251 0.97905 0.83078 0.0
C871 C 0.52565 0.96382 0.82651 0.0
C872 C 0.53627 0.96007 0.83966 0.0
C873 C 0.54645 0.97142 0.85746 0.0
C874 C 0.54652 0.9871 0.86083 0.0
C875 C 0.53601 0.99087 0.84762 0.0
H876 H 0.04553 0.56435 0.86479 0.0
H877 H 0.04577 0.58829 0.88593 0.0
H878 H 0.0058 0.55165 0.92748 0.0
H879 H 0.00551 0.52772 0.90613 0.0
H880 H 0.0305 0.51962 0.90144 0.0
H881 H 0.03934 0.54712 0.81153 0.0
H882 H 0.02896 0.56144 0.7863 0.0
H883 H 0.98538 0.546 0.82805 0.0
H884 H 0.99565 0.53148 0.85294 0.0
H885 H 0.00759 0.46803 0.85592 0.0
H886 H 0.00486 0.44385 0.83295 0.0
H887 H 0.04096 0.47984 0.7866 0.0
H888 H 0.04465 0.50394 0.8107 0.0
H889 H 0.02207 0.51262 0.81832 0.0
H890 H 0.01018 0.48342 0.90481 0.0
H891 H 0.01478 0.46247 0.92533 0.0
H892 H 0.06121 0.47839 0.88975 0.0
H893 H 0.05644 0.49918 0.86901 0.0
C894 C 0.02547 0.54425 0.88386 0.0
C895 C 0.03671 0.56147 0.87832 0.0
C896 C 0.03689 0.57513 0.89047 0.0
C897 C 0.02579 0.57184 0.90834 0.0
C898 C 0.01437 0.55458 0.91364 0.0
C899 C 0.0143 0.54091 0.9016 0.0
C900 C 0.02562 0.52977 0.87133 0.0
C901 C 0.02858 0.51805 0.88327 0.0
C902 C 0.02338 0.5278 0.84763 0.0
C903 C 0.01832 0.53835 0.83416 0.0
C904 C 0.02767 0.54704 0.81537 0.0
C905 C 0.02176 0.55523 0.80103 0.0
C906 C 0.00629 0.55467 0.80512 0.0
C907 C 0.99722 0.54641 0.82433 0.0
C908 C 0.00318 0.53831 0.83871 0.0
C909 C 0.02656 0.48787 0.83531 0.0
C910 C 0.01535 0.47074 0.84123 0.0
C911 C 0.01353 0.45687 0.82775 0.0
C912 C 0.02257 0.45981 0.80772 0.0
C913 C 0.03397 0.477 0.80202 0.0
C914 C 0.03599 0.49084 0.81572 0.0
C915 C 0.02727 0.50265 0.84826 0.0
C916 C 0.0244 0.51442 0.83643 0.0
C917 C 0.0295 0.50456 0.87201 0.0
C918 C 0.03294 0.49276 0.88535 0.0
C919 C 0.02141 0.48248 0.90157 0.0
C920 C 0.02399 0.47048 0.91315 0.0
C921 C 0.03831 0.46882 0.90903 0.0
C922 C 0.05011 0.47949 0.89328 0.0
C923 C 0.04738 0.4913 0.88141 0.0
H924 H 0.45313 0.49908 0.84108 0.0
H925 H 0.43357 0.47233 0.86009 0.0
H926 H 0.47607 0.46582 0.8794 0.0
H927 H 0.49538 0.49221 0.86028 0.0
H928 H 0.50286 0.5249 0.86727 0.0
H929 H 0.46442 0.51797 0.78459 0.0
H930 H 0.44143 0.49541 0.76085 0.0
H931 H 0.45301 0.45762 0.78754 0.0
H932 H 0.47661 0.48038 0.80984 0.0
H933 H 0.52992 0.53634 0.78135 0.0
H934 H 0.55447 0.5576 0.76125 0.0
H935 H 0.554 0.5989 0.79981 0.0
H936 H 0.52898 0.57739 0.81973 0.0
H937 H 0.49812 0.5301 0.78487 0.0
H938 H 0.549 0.55287 0.83195 0.0
H939 H 0.57297 0.57218 0.85637 0.0
H940 H 0.53807 0.5729 0.90481 0.0
H941 H 0.51457 0.5559 0.87863 0.0
C942 C 0.47567 0.49755 0.84917 0.0
C943 C 0.45818 0.49187 0.84946 0.0
C944 C 0.44707 0.47669 0.8604 0.0
C945 C 0.45332 0.46697 0.87105 0.0
C946 C 0.47087 0.47292 0.87106 0.0
C947 C 0.48192 0.48806 0.8603 0.0
C948 C 0.4877 0.51318 0.83707 0.0
C949 C 0.50176 0.5263 0.8493 0.0
C950 C 0.48617 0.51467 0.81357 0.0
C951 C 0.47206 0.50085 0.79938 0.0
C952 C 0.46204 0.50482 0.78519 0.0
C953 C 0.44879 0.49186 0.77175 0.0
C954 C 0.44524 0.4746 0.77225 0.0
C955 C 0.45545 0.47075 0.78636 0.0
C956 C 0.46881 0.48374 0.79951 0.0
C957 C 0.52767 0.55527 0.80212 0.0
C958 C 0.53494 0.54998 0.78533 0.0
C959 C 0.54911 0.56213 0.77403 0.0
C960 C 0.55632 0.5799 0.7792 0.0
C961 C 0.54871 0.58528 0.7955 0.0
C962 C 0.53447 0.57304 0.80691 0.0
C963 C 0.51353 0.5419 0.81508 0.0
C964 C 0.49902 0.52915 0.80298 0.0
C965 C 0.51483 0.54062 0.83873 0.0
C966 C 0.52986 0.55318 0.85301 0.0
C967 C 0.54655 0.55784 0.84734 0.0
C968 C 0.56035 0.56858 0.86184 0.0
C969 C 0.55778 0.5742 0.88305 0.0
C970 C 0.54097 0.56943 0.88861 0.0
C971 C 0.5273 0.55935 0.87367 0.0
H972 H 0.60804 0.81562 0.47684 0.0
H973 H 0.60711 0.8377 0.45437 0.0
H974 H 0.6496 0.87752 0.49416 0.0
H975 H 0.6513 0.8553 0.5152 0.0
H976 H 0.63272 0.80806 0.48017 0.0
H977 H 0.60869 0.83271 0.53475 0.0
H978 H 0.61134 0.85716 0.55768 0.0
H979 H 0.65637 0.86225 0.59113 0.0
H980 H 0.65435 0.83888 0.56739 0.0
H981 H 0.66169 0.80823 0.56448 0.0
H982 H 0.67345 0.79294 0.58439 0.0
H983 H 0.63632 0.74497 0.55071 0.0
H984 H 0.62388 0.76036 0.53145 0.0
H985 H 0.63311 0.80712 0.56355 0.0
H986 H 0.66389 0.79155 0.51357 0.0
H987 H 0.67044 0.77275 0.49179 0.0
H988 H 0.62705 0.7595 0.44708 0.0
H989 H 0.61902 0.77606 0.4716 0.0
C990 C 0.62952 0.83376 0.49803 0.0
C991 C 0.61716 0.82912 0.48068 0.0
C992 C 0.61655 0.84182 0.46798 0.0
C993 C 0.62821 0.8595 0.47245 0.0
C994 C 0.64053 0.86408 0.48994 0.0
C995 C 0.64134 0.85136 0.50233 0.0
C996 C 0.63056 0.82012 0.51072 0.0
C997 C 0.63251 0.80761 0.49842 0.0
C998 C 0.63097 0.82004 0.53459 0.0
C999 C 0.63143 0.83405 0.5491 0.0
C1000 C 0.61917 0.8392 0.54694 0.0
C1001 C 0.6206 0.85305 0.56024 0.0
C1002 C 0.63419 0.86181 0.57611 0.0
C1003 C 0.64598 0.85611 0.57875 0.0
C1004 C 0.6447 0.84255 0.56532 0.0
C1005 C 0.64198 0.78548 0.54628 0.0
C1006 C 0.6558 0.79435 0.56165 0.0
C1007 C 0.66267 0.78562 0.57285 0.0
C1008 C 0.65603 0.76782 0.56881 0.0
C1009 C 0.64169 0.75871 0.55418 0.0
C1010 C 0.63465 0.76748 0.54306 0.0
C1011 C 0.63619 0.79565 0.53313 0.0
C1012 C 0.63296 0.80728 0.54526 0.0
C1013 C 0.63595 0.79574 0.50921 0.0
C1014 C 0.6405 0.78474 0.49499 0.0
C1015 C 0.65534 0.78401 0.49966 0.0
C1016 C 0.6594 0.77353 0.4865 0.0
C1017 C 0.64944 0.76436 0.46715 0.0
C1018 C 0.63493 0.76573 0.46201 0.0
C1019 C 0.6304 0.77554 0.47591 0.0
H1020 H 0.14368 0.75418 0.50633 0.0
H1021 H 0.12433 0.73259 0.47824 0.0
H1022 H 0.11104 0.76947 0.45292 0.0
H1023 H 0.12993 0.79077 0.48158 0.0
H1024 H 0.16279 0.80509 0.48352 0.0
H1025 H 0.15517 0.76027 0.5563 0.0
H1026 H 0.13303 0.73723 0.57806 0.0
H1027 H 0.099 0.7566 0.56208 0.0
H1028 H 0.1208 0.7787 0.53931 0.0
H1029 H 0.18579 0.84736 0.54535 0.0
H1030 H 0.20845 0.87 0.56884 0.0
H1031 H 0.2246 0.83403 0.58904 0.0
H1032 H 0.20259 0.81175 0.56385 0.0
H1033 H 0.16795 0.79712 0.56515 0.0
H1034 H 0.1731 0.84381 0.50565 0.0
H1035 H 0.19129 0.86899 0.48379 0.0
H1036 H 0.22507 0.84861 0.47257 0.0
H1037 H 0.20738 0.82419 0.49615 0.0
C1038 C 0.13825 0.77411 0.49615 0.0
C1039 C 0.13624 0.75746 0.49517 0.0
C1040 C 0.12532 0.74519 0.4789 0.0
C1041 C 0.11625 0.74934 0.46318 0.0
C1042 C 0.1177 0.76576 0.46487 0.0
C1043 C 0.12861 0.77802 0.48116 0.0
C1044 C 0.15169 0.78793 0.51109 0.0
C1045 C 0.16376 0.80335 0.50142 0.0
C1046 C 0.15318 0.78576 0.53436 0.0
C1047 C 0.13954 0.77107 0.54617 0.0
C1048 C 0.1428 0.75929 0.55727 0.0
C1049 C 0.13016 0.74623 0.56985 0.0
C1050 C 0.11415 0.74501 0.57204 0.0
C1051 C 0.11094 0.75677 0.5605 0.0
C1052 C 0.12346 0.76956 0.54757 0.0
C1053 C 0.1928 0.82799 0.55218 0.0
C1054 C 0.1945 0.84446 0.55427 0.0
C1055 C 0.20728 0.85732 0.56825 0.0
C1056 C 0.21843 0.85392 0.58104 0.0
C1057 C 0.21648 0.83726 0.57923 0.0
C1058 C 0.20381 0.82445 0.56494 0.0
C1059 C 0.17903 0.81424 0.53753 0.0
C1060 C 0.16701 0.79875 0.54721 0.0
C1061 C 0.17722 0.81654 0.51435 0.0
C1062 C 0.18913 0.83241 0.50281 0.0
C1063 C 0.18466 0.84505 0.49887 0.0
C1064 C 0.19497 0.8593 0.48601 0.0
C1065 C 0.20964 0.86086 0.47604 0.0
C1066 C 0.21409 0.84811 0.4802 0.0
C1067 C 0.20397 0.83407 0.49361 0.0
H1068 H 0.14405 0.35401 0.49299 0.0
H1069 H 0.1233 0.3557 0.46804 0.0
H1070 H 0.13364 0.40328 0.50229 0.0
H1071 H 0.15443 0.40141 0.52746 0.0
H1072 H 0.17927 0.38127 0.49567 0.0
H1073 H 0.13184 0.34734 0.54286 0.0
H1074 H 0.10622 0.34188 0.56256 0.0
H1075 H 0.13582 0.38934 0.60206 0.0
H1076 H 0.16146 0.39477 0.58212 0.0
H1077 H 0.20868 0.38986 0.58783 0.0
H1078 H 0.22667 0.3817 0.60936 0.0
H1079 H 0.21861 0.3437 0.55712 0.0
H1080 H 0.19994 0.35116 0.5365 0.0
H1081 H 0.17604 0.37148 0.57783 0.0
H1082 H 0.22593 0.40086 0.53041 0.0
H1083 H 0.24872 0.40409 0.50564 0.0
H1084 H 0.21149 0.36176 0.46294 0.0
H1085 H 0.18898 0.35843 0.48777 0.0
C1086 C 0.15074 0.37759 0.51199 0.0
C1087 C 0.14164 0.36465 0.49535 0.0
C1088 C 0.12972 0.36558 0.48122 0.0
C1089 C 0.12685 0.37962 0.48326 0.0
C1090 C 0.13566 0.39236 0.50034 0.0
C1091 C 0.14745 0.39128 0.51474 0.0
C1092 C 0.16456 0.37732 0.52519 0.0
C1093 C 0.17862 0.37911 0.51365 0.0
C1094 C 0.16377 0.37485 0.54861 0.0
C1095 C 0.14847 0.3715 0.561 0.0
C1096 C 0.13279 0.35657 0.55575 0.0
C1097 C 0.11821 0.35342 0.56708 0.0
C1098 C 0.11904 0.36521 0.5838 0.0
C1099 C 0.1348 0.38014 0.58908 0.0
C1100 C 0.14944 0.3832 0.57786 0.0
C1101 C 0.20309 0.37132 0.56034 0.0
C1102 C 0.21087 0.37982 0.58099 0.0
C1103 C 0.22127 0.37523 0.5932 0.0
C1104 C 0.22408 0.36198 0.58505 0.0
C1105 C 0.21656 0.35378 0.56413 0.0
C1106 C 0.20607 0.35826 0.55207 0.0
C1107 C 0.19089 0.37511 0.54822 0.0
C1108 C 0.17705 0.37406 0.55997 0.0
C1109 C 0.19173 0.37793 0.52475 0.0
C1110 C 0.2058 0.37936 0.51096 0.0
C1111 C 0.22277 0.39218 0.51585 0.0
C1112 C 0.23571 0.39412 0.50159 0.0
C1113 C 0.23185 0.38319 0.48236 0.0
C1114 C 0.21487 0.37026 0.47774 0.0
C1115 C 0.202 0.36839 0.49186 0.0
H1116 H 0.98348 0.37676 0.01898 0.0
H1117 H 0.99407 0.34538 0.064 0.0
H1118 H 0.9878 0.35876 0.09671 0.0
H1119 H 0.00366 0.4149 0.05337 0.0
H1120 H 0.98863 0.42175 0.04611 0.0
H1121 H 0.99249 0.40863 0.02639 0.0
H1122 H 0.96026 0.38594 0.02442 0.0
H1123 H 0.95626 0.39901 0.04412 0.0
H1124 H 0.94936 0.37677 0.05006 0.0
H1125 H 0.98067 0.37613 0.12451 0.0
H1126 H 0.97533 0.3973 0.14506 0.0
H1127 H 0.97101 0.4181 0.08151 0.0
C1128 C 0.98421 0.37245 0.03568 0.0
C1129 C 0.98903 0.35984 0.03894 0.0
C1130 C 0.99029 0.35494 0.06112 0.0
C1131 C 0.98671 0.36244 0.07976 0.0
C1132 C 0.9821 0.37494 0.07592 0.0
C1133 C 0.98098 0.37999 0.0544 0.0
C1134 C 0.97687 0.39445 0.05475 0.0
C1135 C 0.99127 0.4109 0.04456 0.0
C1136 C 0.95966 0.38869 0.04262 0.0
C1137 C 0.9759 0.39686 0.07986 0.0
C1138 C 0.97873 0.38536 0.09182 0.0
C1139 C 0.97843 0.38518 0.1153 0.0
C1140 C 0.97533 0.39718 0.12681 0.0
C1141 C 0.9728 0.40932 0.11485 0.0
C1142 C 0.97301 0.40904 0.09108 0.0
H1143 H 0.63698 0.6171 0.10484 0.0
H1144 H 0.65002 0.59344 0.05004 0.0
H1145 H 0.63116 0.56446 0.06543 0.0
H1146 H 0.63497 0.58751 0.14829 0.0
H1147 H 0.61753 0.58786 0.16188 0.0
H1148 H 0.63287 0.60652 0.14718 0.0
H1149 H 0.60845 0.60563 0.12282 0.0
H1150 H 0.59307 0.58694 0.13732 0.0
H1151 H 0.59399 0.58606 0.10704 0.0
H1152 H 0.60842 0.53798 0.08509 0.0
H1153 H 0.58526 0.5166 0.10806 0.0
H1154 H 0.58932 0.55839 0.15133 0.0
C1155 C 0.63601 0.60583 0.09619 0.0
C1156 C 0.64484 0.60741 0.07624 0.0
C1157 C 0.64337 0.59244 0.06543 0.0
C1158 C 0.6327 0.57597 0.07403 0.0
C1159 C 0.62392 0.57486 0.09361 0.0
C1160 C 0.62571 0.58946 0.1047 0.0
C1161 C 0.6147 0.58493 0.12509 0.0
C1162 C 0.62568 0.59213 0.1469 0.0
C1163 C 0.60179 0.59126 0.12292 0.0
C1164 C 0.60599 0.56543 0.12345 0.0
C1165 C 0.61144 0.5598 0.10525 0.0
C1166 C 0.60431 0.54225 0.09964 0.0
C1167 C 0.5912 0.53019 0.11289 0.0
C1168 C 0.5854 0.53573 0.13161 0.0
C1169 C 0.59321 0.55362 0.13704 0.0
H1170 H 0.3895 0.01795 0.06479 0.0
H1171 H 0.41889 0.07243 0.04957 0.0
H1172 H 0.43617 0.07799 0.08456 0.0
H1173 H 0.39117 0.0236 0.12749 0.0
H1174 H 0.39338 0.00485 0.13145 0.0
H1175 H 0.38154 0.00568 0.1073 0.0
H1176 H 0.40072 -0.00012 0.08088 0.0
H1177 H 0.41266 0.99914 0.10486 0.0
H1178 H 0.4235 0.01403 0.08281 0.0
H1179 H 0.45244 0.077 0.11844 0.0
H1180 H 0.46689 0.06944 0.14783 0.0
H1181 H 0.42687 0.0156 0.14112 0.0
C1182 C 0.39923 0.03115 0.06912 0.0
C1183 C 0.40274 0.04478 0.05449 0.0
C1184 C 0.41591 0.06179 0.06053 0.0
C1185 C 0.42575 0.06508 0.08044 0.0
C1186 C 0.42224 0.05126 0.09415 0.0
C1187 C 0.40925 0.03463 0.0888 0.0
C1188 C 0.40922 0.02176 0.10507 0.0
C1189 C 0.39286 0.01349 0.11863 0.0
C1190 C 0.41168 0.0079 0.09266 0.0
C1191 C 0.42461 0.03365 0.11992 0.0
C1192 C 0.43176 0.05065 0.11361 0.0
C1193 C 0.44676 0.06378 0.12382 0.0
C1194 C 0.45484 0.05936 0.14061 0.0
C1195 C 0.44799 0.04193 0.14692 0.0
C1196 C 0.43245 0.02904 0.1367 0.0
H1197 H 0.39314 0.98832 0.96246 0.0
H1198 H 0.4113 0.04336 0.95952 0.0
H1199 H 0.4334 0.04664 0.93346 0.0
H1200 H 0.43506 0.99126 0.9581 0.0
H1201 H 0.4266 0.9719 0.94043 0.0
H1202 H 0.41332 0.97417 0.96087 0.0
H1203 H 0.39099 0.96857 0.92921 0.0
H1204 H 0.40427 0.96649 0.90864 0.0
H1205 H 0.39739 0.98207 0.90498 0.0
H1206 H 0.45221 0.0438 0.90584 0.0
H1207 H 0.46686 0.03494 0.87854 0.0
H1208 H 0.43631 0.98165 0.89848 0.0
C1209 C 0.40202 0.00112 0.95674 0.0
C1210 C 0.40054 0.01562 0.96318 0.0
C1211 C 0.41215 0.03208 0.95491 0.0
C1212 C 0.4248 0.03409 0.94009 0.0
C1213 C 0.42564 0.01949 0.93361 0.0
C1214 C 0.41463 0.00332 0.94169 0.0
C1215 C 0.41761 0.98958 0.93088 0.0
C1216 C 0.4235 0.98124 0.94863 0.0
C1217 C 0.40161 0.97588 0.91764 0.0
C1218 C 0.43181 0.00055 0.91523 0.0
C1219 C 0.43634 0.01778 0.91725 0.0
C1220 C 0.44891 0.03037 0.90424 0.0
C1221 C 0.45716 0.02523 0.88883 0.0
C1222 C 0.45274 0.00764 0.88647 0.0
C1223 C 0.43986 0.99517 0.89983 0.0
H1224 H 0.01067 0.37455 0.951 0.0
H1225 H 0.05992 0.39639 0.98567 0.0
H1226 H 0.06792 0.42509 0.9709 0.0
H1227 H 0.02426 0.39997 0.90163 0.0
H1228 H 0.00568 0.40233 0.89974 0.0
H1229 H 0.00427 0.38343 0.91215 0.0
H1230 H 0.99264 0.38967 0.94859 0.0
H1231 H 0.99401 0.40859 0.93632 0.0
H1232 H 0.00468 0.41047 0.96299 0.0
H1233 H 0.0705 0.45144 0.95187 0.0
H1234 H 0.0668 0.47354 0.93198 0.0
H1235 H 0.01516 0.43446 0.91213 0.0
C1236 C 0.02312 0.38527 0.95557 0.0
C1237 C 0.03463 0.38315 0.96956 0.0
C1238 C 0.05086 0.39768 0.97499 0.0
C1239 C 0.05553 0.41403 0.96666 0.0
C1240 C 0.04375 0.41567 0.95312 0.0
C1241 C 0.02784 0.40169 0.94777 0.0
C1242 C 0.01722 0.40695 0.93371 0.0
C1243 C 0.0126 0.39762 0.91043 0.0
C1244 C 0.0012 0.40373 0.94615 0.0
C1245 C 0.02968 0.4261 0.93188 0.0
C1246 C 0.04498 0.43087 0.94299 0.0
C1247 C 0.05855 0.44786 0.94321 0.0
C1248 C 0.05637 0.46029 0.93185 0.0
C1249 C 0.04067 0.45567 0.92074 0.0
C1250 C 0.02721 0.43835 0.92078 0.0
H1251 H 0.60215 0.62805 0.99764 0.0
H1252 H 0.64472 0.62026 0.98426 0.0
H1253 H 0.63128 0.60604 0.94751 0.0
H1254 H 0.56955 0.58896 0.97391 0.0
H1255 H 0.55755 0.59791 0.96137 0.0
H1256 H 0.57087 0.60827 0.98609 0.0
H1257 H 0.58696 0.6371 0.96519 0.0
H1258 H 0.57358 0.62686 0.94043 0.0
H1259 H 0.59642 0.63746 0.93858 0.0
H1260 H 0.61137 0.58926 0.91499 0.0
H1261 H 0.58824 0.57406 0.88682 0.0
H1262 H 0.56052 0.59666 0.91829 0.0
C1263 C 0.6087 0.62352 0.98681 0.0
C1264 C 0.62441 0.62516 0.99374 0.0
C1265 C 0.63271 0.6192 0.97915 0.0
C1266 C 0.62516 0.61107 0.9583 0.0
C1267 C 0.60953 0.60943 0.95207 0.0
C1268 C 0.60158 0.61583 0.96564 0.0
C1269 C 0.58487 0.6124 0.9549 0.0
C1270 C 0.56983 0.60122 0.96997 0.0
C1271 C 0.5855 0.62947 0.94945 0.0
C1272 C 0.58439 0.60252 0.9336 0.0
C1273 C 0.59867 0.60085 0.93237 0.0
C1274 C 0.60035 0.59092 0.91536 0.0
C1275 C 0.58708 0.58242 0.89919 0.0
C1276 C 0.57233 0.58414 0.89971 0.0
C1277 C 0.5713 0.59468 0.91713 0.0
H1278 H 0.98953 0.61981 0.98521 0.0
H1279 H 0.04172 0.65484 0.00761 0.0
H1280 H 0.05185 0.64188 0.97897 0.0
H1281 H 0.99432 0.58372 0.97979 0.0
H1282 H 0.98029 0.5741 0.95541 0.0
H1283 H 0.97719 0.58804 0.97463 0.0
H1284 H 0.97923 0.60764 0.94182 0.0
H1285 H 0.98218 0.59365 0.92241 0.0
H1286 H 0.99758 0.61647 0.92429 0.0
H1287 H 0.05616 0.62362 0.95052 0.0
H1288 H 0.0544 0.60037 0.92543 0.0
H1289 H 0.99928 0.57586 0.92286 0.0
C1290 C 0.0031 0.62509 0.98347 0.0
C1291 C 0.01493 0.63854 0.99816 0.0
C1292 C 0.03255 0.6447 0.99621 0.0
C1293 C 0.03839 0.63744 0.98 0.0
C1294 C 0.02641 0.62387 0.9661 0.0
C1295 C 0.00912 0.61769 0.9677 0.0
C1296 C 0.99888 0.6017 0.95259 0.0
C1297 C 0.98698 0.58596 0.96644 0.0
C1298 C 0.98888 0.60507 0.93418 0.0
C1299 C 0.01308 0.59965 0.94266 0.0
C1300 C 0.02886 0.61278 0.95036 0.0
C1301 C 0.04389 0.61338 0.94417 0.0
C1302 C 0.04277 0.60015 0.92987 0.0
C1303 C 0.02672 0.58636 0.92214 0.0
C1304 C 0.01172 0.58623 0.92854 0.0
H1305 H 0.37919 0.40267 0.95108 0.0
H1306 H 0.39174 0.36353 0.93048 0.0
H1307 H 0.4143 0.38453 0.90688 0.0
H1308 H 0.38505 0.42187 0.89719 0.0
H1309 H 0.39426 0.44375 0.90834 0.0
H1310 H 0.37944 0.42593 0.92472 0.0
H1311 H 0.40167 0.4361 0.9578 0.0
H1312 H 0.41651 0.45403 0.94159 0.0
H1313 H 0.42254 0.43919 0.95281 0.0
H1314 H 0.43496 0.40913 0.88487 0.0
H1315 H 0.45316 0.43653 0.86607 0.0
H1316 H 0.42734 0.46004 0.89993 0.0
C1317 C 0.3868 0.39859 0.94178 0.0
C1318 C 0.3838 0.38148 0.94292 0.0
C1319 C 0.39391 0.37659 0.93025 0.0
C1320 C 0.40674 0.38841 0.91664 0.0
C1321 C 0.40927 0.40508 0.91574 0.0
C1322 C 0.39965 0.41024 0.92795 0.0
C1323 C 0.40489 0.4289 0.92349 0.0
C1324 C 0.39002 0.43018 0.9128 0.0
C1325 C 0.41182 0.44022 0.94522 0.0
C1326 C 0.41889 0.43334 0.90684 0.0
C1327 C 0.42118 0.41937 0.90269 0.0
C1328 C 0.43336 0.4202 0.88804 0.0
C1329 C 0.44366 0.43582 0.8775 0.0
C1330 C 0.4417 0.45039 0.88164 0.0
C1331 C 0.42902 0.44905 0.89635 0.0
H1332 H 0.61325 0.9892 0.95736 0.0
H1333 H 0.58095 0.93548 0.97463 0.0
H1334 H 0.56382 0.93023 0.93963 0.0
H1335 H 0.58058 0.9954 0.93741 0.0
H1336 H 0.59229 0.0093 0.91487 0.0
H1337 H 0.60349 0.00835 0.93957 0.0
H1338 H 0.62173 0.00017 0.91461 0.0
H1339 H 0.61058 0.00114 0.88976 0.0
H1340 H 0.61132 0.98175 0.89526 0.0
H1341 H 0.54848 0.93144 0.9051 0.0
H1342 H 0.53542 0.93925 0.87423 0.0
H1343 H 0.57778 0.99211 0.87877 0.0
C1344 C 0.60282 0.97623 0.95353 0.0
C1345 C 0.59851 0.96273 0.96871 0.0
C1346 C 0.58452 0.94604 0.96328 0.0
C1347 C 0.57476 0.94289 0.94337 0.0
C1348 C 0.57914 0.95656 0.929 0.0
C1349 C 0.59285 0.9729 0.93379 0.0
C1350 C 0.59393 0.98567 0.91653 0.0
C1351 C 0.59248 0.00055 0.92777 0.0
C1352 C 0.61037 0.99259 0.90325 0.0
C1353 C 0.57837 0.97408 0.90173 0.0
C1354 C 0.57019 0.95728 0.90902 0.0
C1355 C 0.55494 0.94448 0.89896 0.0
C1356 C 0.54767 0.94903 0.88128 0.0
C1357 C 0.55559 0.96629 0.87386 0.0
C1358 C 0.57136 0.97882 0.884 0.0
H1359 H 0.61356 0.01976 0.05865 0.0
H1360 H 0.59893 0.96646 0.07179 0.0
H1361 H 0.57849 0.96505 0.09928 0.0
H1362 H 0.6123 0.03182 0.11588 0.0
H1363 H 0.60388 0.04581 0.10956 0.0
H1364 H 0.61667 0.04253 0.08935 0.0
H1365 H 0.59242 0.03245 0.05903 0.0
H1366 H 0.57961 0.03585 0.0791 0.0
H1367 H 0.57142 0.01502 0.06496 0.0
H1368 H 0.5603 0.96926 0.12604 0.0
H1369 H 0.54499 0.97906 0.15076 0.0
H1370 H 0.5717 0.02997 0.12208 0.0
C1371 C 0.60585 0.00772 0.06706 0.0
C1372 C 0.60769 0.99312 0.06268 0.0
C1373 C 0.59762 0.97773 0.07441 0.0
C1374 C 0.58598 0.9768 0.09023 0.0
C1375 C 0.58463 0.99143 0.09435 0.0
C1376 C 0.59425 0.00662 0.08318 0.0
C1377 C 0.59069 0.02062 0.09159 0.0
C1378 C 0.60685 0.03611 0.10223 0.0
C1379 C 0.58308 0.02631 0.07253 0.0
C1380 C 0.57764 0.01088 0.10925 0.0
C1381 C 0.57432 0.99403 0.11042 0.0
C1382 C 0.56272 0.9824 0.12527 0.0
C1383 C 0.55408 0.98806 0.13919 0.0
C1384 C 0.55717 0.00522 0.13824 0.0
C1385 C 0.56923 0.01682 0.12322 0.0
H1386 H 0.9909 0.62155 0.08461 0.0
H1387 H 0.94071 0.60092 0.05299 0.0
H1388 H 0.93193 0.57245 0.06892 0.0
H1389 H 0.99424 0.58376 0.0742 0.0
H1390 H 0.00535 0.58578 0.10054 0.0
H1391 H 0.0075 0.6048 0.08755 0.0
H1392 H 0.99757 0.61301 0.12408 0.0
H1393 H 0.99541 0.59403 0.1372 0.0
H1394 H 0.97754 0.59757 0.13575 0.0
H1395 H 0.92853 0.54623 0.08825 0.0
H1396 H 0.93119 0.5237 0.10843 0.0
H1397 H 0.98388 0.56105 0.12624 0.0
C1398 C 0.97806 0.61113 0.0811 0.0
C1399 C 0.9665 0.61353 0.06756 0.0
C1400 C 0.94981 0.59941 0.06329 0.0
C1401 C 0.94468 0.58318 0.0723 0.0
C1402 C 0.95642 0.58122 0.08541 0.0
C1403 C 0.97279 0.59476 0.08972 0.0
C1404 C 0.98309 0.58903 0.10371 0.0
C1405 C 0.99845 0.59096 0.09072 0.0
C1406 C 0.98873 0.599 0.12654 0.0
C1407 C 0.96995 0.57016 0.10658 0.0
C1408 C 0.95461 0.56596 0.09604 0.0
C1409 C 0.94048 0.54935 0.09655 0.0
C1410 C 0.94208 0.53667 0.10811 0.0
C1411 C 0.95773 0.54064 0.11882 0.0
C1412 C 0.97182 0.55762 0.11799 0.0
H1413 H 0.41413 0.36984 0.02344 0.0
H1414 H 0.36514 0.35464 0.05234 0.0
H1415 H 0.37965 0.36875 0.08868 0.0
H1416 H 0.43521 0.36555 0.07428 0.0
H1417 H 0.45529 0.38444 0.06845 0.0
H1418 H 0.44093 0.37155 0.04556 0.0
H1419 H 0.4413 0.39878 0.03051 0.0
H1420 H 0.4556 0.41173 0.05335 0.0
H1421 H 0.43571 0.41134 0.04894 0.0
H1422 H 0.39965 0.38596 0.12118 0.0
H1423 H 0.42352 0.40563 0.14695 0.0
H1424 H 0.4594 0.41071 0.09597 0.0
C1425 C 0.4064 0.36913 0.03753 0.0
C1426 C 0.38847 0.36097 0.0351 0.0
C1427 C 0.37888 0.36074 0.05383 0.0
C1428 C 0.38701 0.36868 0.07455 0.0
C1429 C 0.40473 0.37686 0.07624 0.0
C1430 C 0.41431 0.37716 0.05821 0.0
C1431 C 0.43321 0.38791 0.06387 0.0
C1432 C 0.44165 0.37669 0.06299 0.0
C1433 C 0.44196 0.40335 0.04824 0.0
C1434 C 0.43278 0.39383 0.0878 0.0
C1435 C 0.41625 0.38716 0.09472 0.0
C1436 C 0.41265 0.39122 0.11596 0.0
C1437 C 0.42631 0.40252 0.13041 0.0
C1438 C 0.44339 0.40981 0.12351 0.0
C1439 C 0.44656 0.40519 0.10196 0.0
H1440 H 0.63811 0.697 0.36728 0.0
H1441 H 0.69091 0.71166 0.38052 0.0
H1442 H 0.69233 0.73014 0.4128 0.0
H1443 H 0.64153 0.73686 0.37986 0.0
H1444 H 0.62167 0.7286 0.39412 0.0
H1445 H 0.62414 0.71538 0.37294 0.0
H1446 H 0.61602 0.69106 0.40148 0.0
H1447 H 0.61326 0.7041 0.42267 0.0
H1448 H 0.62754 0.69598 0.42814 0.0
H1449 H 0.6895 0.75056 0.43908 0.0
H1450 H 0.68151 0.76801 0.46233 0.0
H1451 H 0.62908 0.7369 0.4368 0.0
C1452 C 0.64983 0.70381 0.3773 0.0
C1453 C 0.66439 0.70288 0.37139 0.0
C1454 C 0.67954 0.71203 0.38485 0.0
C1455 C 0.68051 0.72265 0.40315 0.0
C1456 C 0.6661 0.72365 0.40818 0.0
C1457 C 0.65089 0.71412 0.39611 0.0
C1458 C 0.63735 0.71766 0.40519 0.0
C1459 C 0.6308 0.72507 0.38694 0.0
C1460 C 0.62267 0.70122 0.41496 0.0
C1461 C 0.64755 0.73114 0.42364 0.0
C1462 C 0.66412 0.73449 0.42487 0.0
C1463 C 0.67638 0.74759 0.43893 0.0
C1464 C 0.67156 0.75739 0.45238 0.0
C1465 C 0.65441 0.75381 0.45234 0.0
C1466 C 0.64231 0.74032 0.43762 0.0
H1467 H 0.29431 0.93407 0.42018 0.0
H1468 H 0.26314 0.95251 0.38892 0.0
H1469 H 0.23734 0.92807 0.40452 0.0
H1470 H 0.26392 0.88762 0.41455 0.0
H1471 H 0.26944 0.88321 0.44195 0.0
H1472 H 0.28515 0.90104 0.42639 0.0
H1473 H 0.29008 0.92203 0.46019 0.0
H1474 H 0.27439 0.90428 0.47582 0.0
H1475 H 0.27221 0.923 0.47138 0.0
H1476 H 0.21517 0.90183 0.42367 0.0
H1477 H 0.1982 0.87702 0.4474 0.0
H1478 H 0.24441 0.87773 0.46983 0.0
C1479 C 0.28198 0.93271 0.41633 0.0
C1480 C 0.28054 0.94493 0.40321 0.0
C1481 C 0.26437 0.94318 0.39895 0.0
C1482 C 0.2497 0.92933 0.40764 0.0
C1483 C 0.25154 0.91759 0.42082 0.0
C1484 C 0.26728 0.91923 0.42536 0.0
C1485 C 0.26592 0.90573 0.44156 0.0
C1486 C 0.27143 0.89369 0.43044 0.0
C1487 C 0.27626 0.91428 0.46354 0.0
C1488 C 0.24696 0.89627 0.44546 0.0
C1489 C 0.23888 0.90314 0.43306 0.0
C1490 C 0.22138 0.89645 0.43366 0.0
C1491 C 0.21187 0.88244 0.44746 0.0
C1492 C 0.2199 0.87545 0.46093 0.0
C1493 C 0.23773 0.88253 0.45971 0.0
H1494 H 0.053 0.34304 0.38972 0.0
H1495 H 0.08103 0.39259 0.35797 0.0
H1496 H 0.10004 0.4046 0.39185 0.0
H1497 H 0.058 0.35963 0.44925 0.0
H1498 H 0.06088 0.34241 0.45966 0.0
H1499 H 0.04761 0.33872 0.43486 0.0
H1500 H 0.06562 0.32877 0.41239 0.0
H1501 H 0.07893 0.33246 0.43701 0.0
H1502 H 0.08833 0.34299 0.41123 0.0
H1503 H 0.11775 0.41024 0.42728 0.0
H1504 H 0.13401 0.40843 0.45989 0.0
H1505 H 0.09512 0.3548 0.46765 0.0
C1506 C 0.06279 0.35658 0.3902 0.0
C1507 C 0.06541 0.36698 0.3714 0.0
C1508 C 0.07875 0.38445 0.3723 0.0
C1509 C 0.08954 0.3914 0.3915 0.0
C1510 C 0.08686 0.38066 0.40957 0.0
C1511 C 0.07384 0.36359 0.40904 0.0
C1512 C 0.07499 0.35415 0.4293 0.0
C1513 C 0.05945 0.34839 0.44415 0.0
C1514 C 0.0771 0.33869 0.42204 0.0
C1515 C 0.09101 0.3684 0.44095 0.0
C1516 C 0.09744 0.38371 0.42962 0.0
C1517 C 0.1127 0.3984 0.43648 0.0
C1518 C 0.12181 0.39728 0.45507 0.0
C1519 C 0.11576 0.3815 0.46631 0.0
C1520 C 0.09998 0.36704 0.45941 0.0
H1521 H 0.06276 0.33624 0.27885 0.0
H1522 H 0.04592 0.2926 0.32268 0.0
H1523 H 0.06679 0.28585 0.30601 0.0
H1524 H 0.06895 0.31656 0.23052 0.0
H1525 H 0.0877 0.33588 0.222 0.0
H1526 H 0.07182 0.33756 0.23785 0.0
H1527 H 0.09476 0.35701 0.26816 0.0
H1528 H 0.11075 0.35547 0.25234 0.0
H1529 H 0.10769 0.34937 0.28139 0.0
H1530 H 0.08825 0.28284 0.28275 0.0
H1531 H 0.1101 0.28502 0.25638 0.0
H1532 H 0.11368 0.33143 0.22936 0.0
C1533 C 0.06357 0.3254 0.28521 0.0
C1534 C 0.05274 0.31499 0.30215 0.0
C1535 C 0.05413 0.3008 0.30976 0.0
C1536 C 0.06592 0.29685 0.30038 0.0
C1537 C 0.07631 0.30732 0.28357 0.0
C1538 C 0.07536 0.3214 0.27623 0.0
C1539 C 0.08786 0.33054 0.25785 0.0
C1540 C 0.07852 0.3301 0.23575 0.0
C1541 C 0.10105 0.3492 0.2654 0.0
C1542 C 0.0959 0.31931 0.25585 0.0
C1543 C 0.089 0.3059 0.27071 0.0
C1544 C 0.09388 0.29339 0.27121 0.0
C1545 C 0.10621 0.29467 0.25617 0.0
C1546 C 0.11358 0.30846 0.24109 0.0
C1547 C 0.10838 0.32093 0.24101 0.0
H1548 H 0.67873 0.71221 0.26658 0.0
H1549 H 0.71913 0.73941 0.31731 0.0
H1550 H 0.72435 0.76738 0.30295 0.0
H1551 H 0.69987 0.74164 0.22212 0.0
H1552 H 0.68059 0.73988 0.21044 0.0
H1553 H 0.67976 0.72202 0.22508 0.0
H1554 H 0.65756 0.72205 0.25199 0.0
H1555 H 0.65836 0.73995 0.23746 0.0
H1556 H 0.66252 0.74167 0.26747 0.0
H1557 H 0.72479 0.79232 0.2836 0.0
H1558 H 0.72145 0.8126 0.25945 0.0
H1559 H 0.68185 0.76914 0.21986 0.0
C1560 C 0.68863 0.72405 0.27471 0.0
C1561 C 0.69849 0.72366 0.29312 0.0
C1562 C 0.71145 0.73942 0.30316 0.0
C1563 C 0.71448 0.75537 0.29517 0.0
C1564 C 0.70452 0.75531 0.27702 0.0
C1565 C 0.69195 0.74008 0.26679 0.0
C1566 C 0.68337 0.74363 0.24717 0.0
C1567 C 0.68607 0.73636 0.22489 0.0
C1568 C 0.66433 0.73639 0.25128 0.0
C1569 C 0.69307 0.76324 0.24801 0.0
C1570 C 0.70513 0.7697 0.26543 0.0
C1571 C 0.7155 0.78741 0.26976 0.0
C1572 C 0.71358 0.79884 0.2558 0.0
C1573 C 0.70149 0.79255 0.23754 0.0
C1574 C 0.6911 0.77445 0.23375 0.0
H1575 H 0.2894 0.95667 0.31216 0.0
H1576 H 0.2724 0.99393 0.32029 0.0
H1577 H 0.25538 0.98293 0.28477 0.0
H1578 H 0.28947 0.9556 0.2485 0.0
H1579 H 0.28135 0.93258 0.24727 0.0
H1580 H 0.29484 0.94558 0.27078 0.0
H1581 H 0.27162 0.92582 0.29825 0.0
H1582 H 0.25798 0.91292 0.27489 0.0
H1583 H 0.25045 0.92269 0.2951 0.0
H1584 H 0.23721 0.9655 0.25192 0.0
H1585 H 0.21914 0.94291 0.22357 0.0
H1586 H 0.24738 0.91635 0.23636 0.0
C1587 C 0.28263 0.96294 0.30591 0.0
C1588 C 0.28241 0.97633 0.31868 0.0
C1589 C 0.27286 0.98378 0.31056 0.0
C1590 C 0.26318 0.97763 0.29041 0.0
C1591 C 0.26311 0.96396 0.27861 0.0
C1592 C 0.27266 0.95674 0.28593 0.0
C1593 C 0.26874 0.94088 0.27152 0.0
C1594 C 0.28454 0.94384 0.25875 0.0
C1595 C 0.26178 0.92462 0.28579 0.0
C1596 C 0.25511 0.93999 0.25552 0.0
C1597 C 0.25228 0.9536 0.25969 0.0
C1598 C 0.23956 0.95499 0.24814 0.0
C1599 C 0.22938 0.94208 0.23197 0.0
C1600 C 0.23188 0.92787 0.22749 0.0
C1601 C 0.24509 0.927 0.23934 0.0
H1602 H 0.66845 0.95745 0.30525 0.0
H1603 H 0.71732 0.97737 0.34032 0.0
H1604 H 0.72736 0.96642 0.30922 0.0
H1605 H 0.66514 0.91848 0.28702 0.0
H1606 H 0.65516 0.91708 0.25995 0.0
H1607 H 0.65251 0.92871 0.28315 0.0
H1608 H 0.66416 0.95615 0.25931 0.0
H1609 H 0.66679 0.94456 0.23596 0.0
H1610 H 0.68466 0.96459 0.24671 0.0
H1611 H 0.73132 0.95114 0.27669 0.0
H1612 H 0.72858 0.93141 0.24532 0.0
H1613 H 0.67708 0.92071 0.23082 0.0
C1614 C 0.6814 0.95987 0.30602 0.0
C1615 C 0.69218 0.96838 0.32506 0.0
C1616 C 0.70888 0.97091 0.32585 0.0
C1617 C 0.71473 0.96481 0.30822 0.0
C1618 C 0.70371 0.95613 0.28992 0.0
C1619 C 0.68739 0.95362 0.28863 0.0
C1620 C 0.67765 0.94238 0.26809 0.0
C1621 C 0.66168 0.92568 0.27497 0.0
C1622 C 0.67305 0.95253 0.25154 0.0
C1623 C 0.69089 0.93861 0.25847 0.0
C1624 C 0.70591 0.94693 0.27114 0.0
C1625 C 0.71972 0.94477 0.26638 0.0
C1626 C 0.71807 0.93359 0.24839 0.0
C1627 C 0.70267 0.92457 0.23539 0.0
C1628 C 0.68902 0.92739 0.24039 0.0
H1629 H 0.04716 0.74007 0.28279 0.0
H1630 H 0.03499 0.69694 0.23643 0.0
H1631 H 0.0545 0.71713 0.20894 0.0
H1632 H 0.05196 0.77132 0.24073 0.0
H1633 H 0.06992 0.78925 0.25528 0.0
H1634 H 0.05411 0.7716 0.27101 0.0
H1635 H 0.07763 0.76693 0.28908 0.0
H1636 H 0.09349 0.7846 0.27351 0.0
H1637 H 0.09162 0.76355 0.27114 0.0
H1638 H 0.07504 0.74149 0.18653 0.0
H1639 H 0.09763 0.7687 0.17151 0.0
H1640 H 0.09835 0.79626 0.23305 0.0
C1641 C 0.04853 0.73496 0.26676 0.0
C1642 C 0.03952 0.71698 0.26164 0.0
C1643 C 0.04181 0.71068 0.24068 0.0
C1644 C 0.05278 0.72204 0.2249 0.0
C1645 C 0.06151 0.73966 0.23042 0.0
C1646 C 0.05971 0.74614 0.25088 0.0
C1647 C 0.07148 0.76559 0.25297 0.0
C1648 C 0.06125 0.77499 0.25512 0.0
C1649 C 0.08432 0.77045 0.27285 0.0
C1650 C 0.08019 0.76893 0.23053 0.0
C1651 C 0.07404 0.75379 0.21772 0.0
C1652 C 0.08007 0.75344 0.19644 0.0
C1653 C 0.093 0.76895 0.18814 0.0
C1654 C 0.09997 0.7846 0.20122 0.0
C1655 C 0.09324 0.78457 0.22258 0.0
H1656 H 0.301 0.34426 0.31224 0.0
H1657 H 0.26993 0.29476 0.34293 0.0
H1658 H 0.25194 0.28374 0.30808 0.0
H1659 H 0.26749 0.34654 0.28855 0.0
H1660 H 0.27794 0.35693 0.26317 0.0
H1661 H 0.29038 0.3598 0.28845 0.0
H1662 H 0.30786 0.34859 0.26722 0.0
H1663 H 0.2955 0.34576 0.24176 0.0
H1664 H 0.29696 0.32781 0.25256 0.0
H1665 H 0.23545 0.27927 0.27195 0.0
H1666 H 0.22063 0.28223 0.23863 0.0
H1667 H 0.26176 0.33506 0.23191 0.0
C1668 C 0.29077 0.33091 0.31132 0.0
C1669 C 0.287 0.32025 0.33012 0.0
C1670 C 0.27311 0.30307 0.32862 0.0
C1671 C 0.26288 0.29668 0.30887 0.0
C1672 C 0.26665 0.30768 0.29083 0.0
C1673 C 0.28025 0.32446 0.29189 0.0
C1674 C 0.28026 0.33435 0.27143 0.0
C1675 C 0.27893 0.35034 0.27832 0.0
C1676 C 0.29609 0.33942 0.25741 0.0
C1677 C 0.26421 0.32072 0.25907 0.0
C1678 C 0.25678 0.30531 0.27026 0.0
C1679 C 0.2413 0.29117 0.26283 0.0
C1680 C 0.23301 0.29295 0.2438 0.0
C1681 C 0.24009 0.30884 0.23254 0.0
C1682 C 0.25608 0.32274 0.24008 0.0
H1683 H 0.28176 0.34918 0.40876 0.0
H1684 H 0.31742 0.40225 0.39247 0.0
H1685 H 0.29987 0.41189 0.41296 0.0
H1686 H 0.24292 0.35232 0.40529 0.0
H1687 H 0.23367 0.33811 0.42849 0.0
H1688 H 0.24805 0.33558 0.41034 0.0
H1689 H 0.26697 0.33842 0.4452 0.0
H1690 H 0.25282 0.3412 0.46341 0.0
H1691 H 0.27513 0.35733 0.46369 0.0
H1692 H 0.27992 0.41572 0.43928 0.0
H1693 H 0.25798 0.41312 0.4658 0.0
H1694 H 0.23618 0.35738 0.46448 0.0
C1695 C 0.28583 0.3628 0.40923 0.0
C1696 C 0.30101 0.37498 0.39923 0.0
C1697 C 0.30573 0.39269 0.39993 0.0
C1698 C 0.2959 0.39828 0.41162 0.0
C1699 C 0.28133 0.38592 0.42214 0.0
C1700 C 0.27618 0.3685 0.42066 0.0
C1701 C 0.26051 0.35779 0.43414 0.0
C1702 C 0.2454 0.34521 0.41864 0.0
C1703 C 0.26408 0.34813 0.45271 0.0
C1704 C 0.25784 0.37192 0.44399 0.0
C1705 C 0.26989 0.38807 0.43689 0.0
C1706 C 0.2703 0.40312 0.4447 0.0
C1707 C 0.25792 0.40154 0.4599 0.0
C1708 C 0.24535 0.38504 0.46704 0.0
C1709 C 0.24544 0.37013 0.459 0.0
H1710 H 0.66741 0.9497 0.41104 0.0
H1711 H 0.61631 0.93481 0.38718 0.0
H1712 H 0.60512 0.9071 0.40664 0.0
H1713 H 0.66267 0.90728 0.40418 0.0
H1714 H 0.6757 0.90995 0.42886 0.0
H1715 H 0.67947 0.92856 0.41321 0.0
H1716 H 0.67607 0.94296 0.44958 0.0
H1717 H 0.67218 0.92435 0.46532 0.0
H1718 H 0.65688 0.9316 0.46529 0.0
H1719 H 0.59952 0.88159 0.43036 0.0
H1720 H 0.60009 0.85947 0.454 0.0
H1721 H 0.6553 0.89048 0.45956 0.0
C1722 C 0.65389 0.94071 0.40986 0.0
C1723 C 0.64274 0.94452 0.39768 0.0
C1724 C 0.6251 0.93216 0.3964 0.0
C1725 C 0.61863 0.91642 0.40745 0.0
C1726 C 0.63 0.91315 0.41945 0.0
C1727 C 0.64728 0.92487 0.42047 0.0
C1728 C 0.65688 0.91812 0.43398 0.0
C1729 C 0.66942 0.91584 0.41917 0.0
C1730 C 0.66604 0.92996 0.45477 0.0
C1731 C 0.64227 0.90083 0.44068 0.0
C1732 C 0.62686 0.89823 0.43227 0.0
C1733 C 0.61155 0.88339 0.43679 0.0
C1734 C 0.61203 0.87082 0.45013 0.0
C1735 C 0.62774 0.87306 0.45864 0.0
C1736 C 0.64302 0.88834 0.4537 0.0
H1737 H 0.04442 0.70759 0.36506 0.0
H1738 H 0.07388 0.68644 0.33558 0.0
H1739 H 0.09364 0.69731 0.36868 0.0
H1740 H 0.0797 0.74637 0.3864 0.0
H1741 H 0.06966 0.74754 0.41181 0.0
H1742 H 0.05686 0.73669 0.38687 0.0
H1743 H 0.03925 0.70886 0.40922 0.0
H1744 H 0.05199 0.71963 0.43428 0.0
H1745 H 0.05002 0.69953 0.42413 0.0
H1746 H 0.11102 0.71171 0.40379 0.0
H1747 H 0.12565 0.72981 0.43774 0.0
H1748 H 0.08518 0.74197 0.44451 0.0
C1749 C 0.05487 0.705 0.36573 0.0
C1750 C 0.05754 0.69607 0.34776 0.0
C1751 C 0.07157 0.69325 0.34911 0.0
C1752 C 0.08282 0.6993 0.3679 0.0
C1753 C 0.07993 0.70822 0.38518 0.0
C1754 C 0.06634 0.71111 0.38427 0.0
C1755 C 0.06678 0.72205 0.40442 0.0
C1756 C 0.06835 0.73918 0.39692 0.0
C1757 C 0.05108 0.71191 0.41887 0.0
C1758 C 0.08289 0.72507 0.4166 0.0
C1759 C 0.09015 0.71679 0.40535 0.0
C1760 C 0.10537 0.7181 0.4129 0.0
C1761 C 0.11353 0.72833 0.43231 0.0
C1762 C 0.10653 0.73723 0.44394 0.0
C1763 C 0.09088 0.73537 0.43601 0.0
H1764 H 0.29524 0.03339 0.68807 0.0
H1765 H 0.31929 0.01003 0.72613 0.0
H1766 H 0.31679 0.02406 0.76124 0.0
H1767 H 0.31688 0.07398 0.71724 0.0
H1768 H 0.2991 0.07766 0.71574 0.0
H1769 H 0.30138 0.0645 0.69429 0.0
H1770 H 0.2711 0.03923 0.70198 0.0
H1771 H 0.26871 0.05232 0.72348 0.0
H1772 H 0.26588 0.03145 0.73018 0.0
H1773 H 0.31162 0.04106 0.79223 0.0
H1774 H 0.30677 0.06155 0.8155 0.0
H1775 H 0.28823 0.07512 0.75611 0.0
C1776 C 0.29972 0.03096 0.70384 0.0
C1777 C 0.3072 0.02039 0.70448 0.0
C1778 C 0.31339 0.01798 0.72534 0.0
C1779 C 0.31198 0.02585 0.74533 0.0
C1780 C 0.30458 0.03627 0.74405 0.0
C1781 C 0.29874 0.03897 0.72375 0.0
C1782 C 0.2925 0.05174 0.72645 0.0
C1783 C 0.3031 0.06793 0.71261 0.0
C1784 C 0.27341 0.04317 0.72015 0.0
C1785 C 0.29573 0.05588 0.75147 0.0
C1786 C 0.30246 0.04665 0.76146 0.0
C1787 C 0.30639 0.04835 0.78454 0.0
C1788 C 0.30356 0.05993 0.79762 0.0
C1789 C 0.29717 0.0698 0.78746 0.0
C1790 C 0.29314 0.06767 0.76417 0.0
H1791 H 0.94072 0.27887 0.74602 0.0
H1792 H 0.9733 0.25968 0.72205 0.0
H1793 H 0.95647 0.23279 0.74274 0.0
H1794 H 0.93508 0.26277 0.80075 0.0
H1795 H 0.91299 0.25685 0.80206 0.0
H1796 H 0.92713 0.27428 0.78466 0.0
H1797 H 0.90718 0.25908 0.74976 0.0
H1798 H 0.89285 0.24169 0.76711 0.0
H1799 H 0.9012 0.23705 0.74226 0.0
H1800 H 0.93769 0.20927 0.76882 0.0
H1801 H 0.91639 0.1893 0.79491 0.0
H1802 H 0.89467 0.22296 0.79914 0.0
C1803 C 0.94425 0.26898 0.74495 0.0
C1804 C 0.95836 0.27139 0.73252 0.0
C1805 C 0.96247 0.25805 0.7314 0.0
C1806 C 0.95305 0.24278 0.74318 0.0
C1807 C 0.93941 0.24097 0.75565 0.0
C1808 C 0.93482 0.25357 0.75627 0.0
C1809 C 0.91954 0.2484 0.77078 0.0
C1810 C 0.92396 0.26135 0.79074 0.0
C1811 C 0.90429 0.24643 0.75663 0.0
C1812 C 0.91648 0.23107 0.77863 0.0
C1813 C 0.92813 0.22707 0.76984 0.0
C1814 C 0.92828 0.21209 0.77547 0.0
C1815 C 0.91604 0.20077 0.79024 0.0
C1816 C 0.90362 0.20435 0.79902 0.0
C1817 C 0.90399 0.2198 0.79305 0.0
H1818 H 0.75145 0.6915 0.68684 0.0
H1819 H 0.70152 0.66649 0.71644 0.0
H1820 H 0.71513 0.67267 0.75441 0.0
H1821 H 0.77031 0.67535 0.72423 0.0
H1822 H 0.79088 0.6948 0.72545 0.0
H1823 H 0.77724 0.68956 0.70073 0.0
H1824 H 0.77894 0.71935 0.70451 0.0
H1825 H 0.79258 0.72468 0.7293 0.0
H1826 H 0.77317 0.72551 0.73057 0.0
H1827 H 0.73418 0.68002 0.78914 0.0
H1828 H 0.75723 0.68785 0.81775 0.0
H1829 H 0.79451 0.70785 0.76533 0.0
C1830 C 0.74334 0.68749 0.70128 0.0
C1831 C 0.72538 0.67854 0.69857 0.0
C1832 C 0.7153 0.67339 0.718 0.0
C1833 C 0.72291 0.67688 0.73967 0.0
C1834 C 0.74063 0.68557 0.7417 0.0
C1835 C 0.75071 0.69084 0.72302 0.0
C1836 C 0.76942 0.69925 0.72971 0.0
C1837 C 0.77743 0.68913 0.71942 0.0
C1838 C 0.77909 0.71833 0.72313 0.0
C1839 C 0.76828 0.69765 0.75505 0.0
C1840 C 0.75158 0.68982 0.76166 0.0
C1841 C 0.74732 0.68629 0.78416 0.0
C1842 C 0.76047 0.69071 0.80028 0.0
C1843 C 0.77767 0.69856 0.79381 0.0
C1844 C 0.78155 0.70222 0.77089 0.0
H1845 H 0.7083 0.64328 0.58741 0.0
H1846 H 0.70777 0.61818 0.64937 0.0
H1847 H 0.72857 0.61072 0.6336 0.0
H1848 H 0.71225 0.6123 0.5491 0.0
H1849 H 0.72571 0.62918 0.53048 0.0
H1850 H 0.70974 0.63096 0.54607 0.0
H1851 H 0.73295 0.66075 0.56292 0.0
H1852 H 0.74895 0.65904 0.54749 0.0
H1853 H 0.75124 0.6624 0.57768 0.0
H1854 H 0.75249 0.60996 0.6127 0.0
H1855 H 0.77559 0.61379 0.58745 0.0
H1856 H 0.75847 0.63745 0.53842 0.0
C1857 C 0.71235 0.63595 0.59752 0.0
C1858 C 0.70656 0.63132 0.61958 0.0
C1859 C 0.71204 0.62172 0.63235 0.0
C1860 C 0.72383 0.61747 0.62354 0.0
C1861 C 0.72958 0.62258 0.60179 0.0
C1862 C 0.72374 0.63133 0.58883 0.0
C1863 C 0.73224 0.63596 0.56632 0.0
C1864 C 0.71921 0.62653 0.54685 0.0
C1865 C 0.74192 0.6557 0.56346 0.0
C1866 C 0.7443 0.62905 0.56887 0.0
C1867 C 0.74262 0.62135 0.58942 0.0
C1868 C 0.7536 0.61554 0.59636 0.0
C1869 C 0.76666 0.61777 0.582 0.0
C1870 C 0.76843 0.62555 0.56093 0.0
C1871 C 0.75698 0.631 0.55419 0.0
H1872 H 0.35727 0.06152 0.62697 0.0
H1873 H 0.30698 0.02239 0.60182 0.0
H1874 H 0.30434 0.04451 0.581 0.0
H1875 H 0.34847 0.09667 0.63325 0.0
H1876 H 0.36902 0.11281 0.62372 0.0
H1877 H 0.36673 0.09402 0.63757 0.0
H1878 H 0.37968 0.08681 0.60331 0.0
H1879 H 0.38198 0.10555 0.58933 0.0
H1880 H 0.37023 0.08446 0.57558 0.0
H1881 H 0.30707 0.07064 0.56271 0.0
H1882 H 0.31549 0.09915 0.54702 0.0
H1883 H 0.36439 0.1213 0.58271 0.0
C1884 C 0.34565 0.05762 0.61721 0.0
C1885 C 0.3322 0.04023 0.61637 0.0
C1886 C 0.31732 0.03564 0.60314 0.0
C1887 C 0.31572 0.04812 0.59114 0.0
C1888 C 0.32918 0.06512 0.59234 0.0
C1889 C 0.3439 0.0699 0.60493 0.0
C1890 C 0.35667 0.08898 0.60274 0.0
C1891 C 0.36044 0.09869 0.62569 0.0
C1892 C 0.37311 0.0916 0.5921 0.0
C1893 C 0.34682 0.09413 0.58691 0.0
C1894 C 0.33095 0.08017 0.58127 0.0
C1895 C 0.31945 0.08169 0.56701 0.0
C1896 C 0.32431 0.09792 0.55828 0.0
C1897 C 0.34055 0.11239 0.5637 0.0
C1898 C 0.35194 0.11041 0.57817 0.0
H1899 H 0.94832 0.28719 0.64561 0.0
H1900 H 0.92974 0.32077 0.66915 0.0
H1901 H 0.91046 0.31231 0.63546 0.0
H1902 H 0.94488 0.29201 0.58426 0.0
H1903 H 0.93731 0.26943 0.57805 0.0
H1904 H 0.9515 0.28016 0.60201 0.0
H1905 H 0.92971 0.25702 0.62816 0.0
H1906 H 0.91549 0.24625 0.60432 0.0
H1907 H 0.9082 0.25312 0.62834 0.0
H1908 H 0.89227 0.29908 0.60025 0.0
H1909 H 0.87465 0.28031 0.56826 0.0
H1910 H 0.90302 0.25298 0.57016 0.0
C1911 C 0.94053 0.29311 0.64327 0.0
C1912 C 0.9407 0.3049 0.65961 0.0
C1913 C 0.92987 0.31188 0.65659 0.0
C1914 C 0.91896 0.3072 0.63751 0.0
C1915 C 0.91885 0.2953 0.62184 0.0
C1916 C 0.92924 0.28821 0.62463 0.0
C1917 C 0.92525 0.27422 0.60679 0.0
C1918 C 0.94065 0.27926 0.5919 0.0
C1919 C 0.9193 0.25662 0.61755 0.0
C1920 C 0.91085 0.27436 0.59373 0.0
C1921 C 0.90759 0.28685 0.60239 0.0
C1922 C 0.89467 0.28922 0.59338 0.0
C1923 C 0.8846 0.27833 0.5753 0.0
C1924 C 0.88722 0.26493 0.56666 0.0
C1925 C 0.90074 0.26319 0.57595 0.0
H1926 H 0.36579 0.30831 0.66203 0.0
H1927 H 0.31454 0.29852 0.64793 0.0
H1928 H 0.31228 0.28056 0.6145 0.0
H1929 H 0.37774 0.30982 0.60213 0.0
H1930 H 0.38997 0.2994 0.60786 0.0
H1931 H 0.38817 0.31291 0.62933 0.0
H1932 H 0.37671 0.28747 0.6567 0.0
H1933 H 0.37828 0.27383 0.63529 0.0
H1934 H 0.35821 0.26708 0.64839 0.0
H1935 H 0.31413 0.26058 0.58585 0.0
H1936 H 0.32075 0.24197 0.56217 0.0
H1937 H 0.37169 0.26652 0.59288 0.0
C1938 C 0.3542 0.30268 0.65168 0.0
C1939 C 0.34034 0.30484 0.65766 0.0
C1940 C 0.32539 0.29716 0.64367 0.0
C1941 C 0.32396 0.28689 0.62465 0.0
C1942 C 0.33768 0.28465 0.61961 0.0
C1943 C 0.35263 0.29257 0.63248 0.0
C1944 C 0.36524 0.28751 0.62391 0.0
C1945 C 0.38122 0.30335 0.61529 0.0
C1946 C 0.36987 0.27843 0.64216 0.0
C1947 C 0.3548 0.27505 0.60471 0.0
C1948 C 0.33897 0.27361 0.60248 0.0
C1949 C 0.32666 0.26193 0.58704 0.0
C1950 C 0.33062 0.25146 0.5735 0.0
C1951 C 0.34687 0.25278 0.57526 0.0
C1952 C 0.35911 0.26496 0.59102 0.0
H1953 H 0.71034 0.0729 0.61638 0.0
H1954 H 0.71734 0.03168 0.58834 0.0
H1955 H 0.74005 0.05258 0.56463 0.0
H1956 H 0.71673 0.09606 0.56635 0.0
H1957 H 0.72853 0.11727 0.57976 0.0
H1958 H 0.71315 0.09929 0.59539 0.0
H1959 H 0.7363 0.10505 0.62591 0.0
H1960 H 0.75172 0.12318 0.61048 0.0
H1961 H 0.7558 0.10605 0.6177 0.0
H1962 H 0.75987 0.07702 0.54152 0.0
H1963 H 0.77806 0.10436 0.52298 0.0
H1964 H 0.76047 0.13067 0.56821 0.0
C1965 C 0.71678 0.06834 0.6054 0.0
C1966 C 0.71206 0.05067 0.60417 0.0
C1967 C 0.7208 0.04517 0.58965 0.0
C1968 C 0.73368 0.05693 0.57604 0.0
C1969 C 0.73786 0.07419 0.57738 0.0
C1970 C 0.72992 0.07999 0.59192 0.0
C1971 C 0.737 0.0993 0.59003 0.0
C1972 C 0.72302 0.1032 0.58243 0.0
C1973 C 0.74573 0.10896 0.61235 0.0
C1974 C 0.74987 0.1033 0.57181 0.0
C1975 C 0.75005 0.08858 0.56471 0.0
C1976 C 0.76017 0.08874 0.54727 0.0
C1977 C 0.77059 0.10443 0.53695 0.0
C1978 C 0.77107 0.1199 0.54431 0.0
C1979 C 0.76047 0.11919 0.56201 0.0
H1980 H 0.96185 0.67061 0.64222 0.0
H1981 H 0.9355 0.61614 0.65718 0.0
H1982 H 0.92002 0.60912 0.62031 0.0
H1983 H 0.92643 0.67036 0.62127 0.0
H1984 H 0.93683 0.6859 0.59972 0.0
H1985 H 0.94873 0.68635 0.62446 0.0
H1986 H 0.97049 0.68364 0.59947 0.0
H1987 H 0.95864 0.68324 0.57456 0.0
H1988 H 0.96308 0.66596 0.57903 0.0
H1989 H 0.90496 0.60832 0.58457 0.0
H1990 H 0.8894 0.61387 0.55446 0.0
H1991 H 0.92409 0.66909 0.56367 0.0
C1992 C 0.95329 0.65718 0.63724 0.0
C1993 C 0.95006 0.64383 0.65211 0.0
C1994 C 0.93824 0.62645 0.64572 0.0
C1995 C 0.92949 0.62237 0.62482 0.0
C1996 C 0.93258 0.63586 0.61068 0.0
C1997 C 0.94412 0.65295 0.61666 0.0
C1998 C 0.94312 0.66517 0.60017 0.0
C1999 C 0.93849 0.67767 0.61212 0.0
C2000 C 0.95983 0.67509 0.58756 0.0
C2001 C 0.92875 0.65234 0.58454 0.0
C2002 C 0.92322 0.63548 0.5905 0.0
C2003 C 0.90936 0.62143 0.57949 0.0
C2004 C 0.90064 0.6247 0.56235 0.0
C2005 C 0.90562 0.64189 0.55669 0.0
C2006 C 0.9201 0.65582 0.56759 0.0
H2007 H 0.94656 0.66756 0.74459 0.0
H2008 H 0.98439 0.71808 0.7219 0.0
H2009 H 0.96864 0.73094 0.73981 0.0
H2010 H 0.9099 0.67324 0.73583 0.0
H2011 H 0.89951 0.66115 0.76029 0.0
H2012 H 0.91351 0.65615 0.74484 0.0
H2013 H 0.93129 0.66055 0.78155 0.0
H2014 H 0.91747 0.66573 0.79708 0.0
H2015 H 0.94007 0.68078 0.79743 0.0
H2016 H 0.9496 0.73837 0.76313 0.0
H2017 H 0.92766 0.73919 0.78675 0.0
H2018 H 0.90227 0.68344 0.79209 0.0
C2019 C 0.95147 0.68126 0.74299 0.0
C2020 C 0.96669 0.69178 0.73177 0.0
C2021 C 0.97268 0.70974 0.73032 0.0
C2022 C 0.96385 0.71716 0.74049 0.0
C2023 C 0.94899 0.70638 0.75174 0.0
C2024 C 0.94275 0.68877 0.75272 0.0
C2025 C 0.92664 0.67992 0.76592 0.0
C2026 C 0.9115 0.66685 0.75081 0.0
C2027 C 0.92902 0.67124 0.78672 0.0
C2028 C 0.92488 0.69533 0.77259 0.0
C2029 C 0.9379 0.71052 0.7644 0.0
C2030 C 0.93924 0.72651 0.76937 0.0
C2031 C 0.92683 0.72689 0.78285 0.0
C2032 C 0.91326 0.71136 0.79093 0.0
C2033 C 0.91237 0.69545 0.78574 0.0
H2034 H 0.29277 0.26888 0.73841 0.0
H2035 H 0.34477 0.30512 0.76104 0.0
H2036 H 0.34622 0.28174 0.78025 0.0
H2037 H 0.28041 0.24514 0.78985 0.0
H2038 H 0.2671 0.22444 0.7757 0.0
H2039 H 0.27015 0.24394 0.76308 0.0
H2040 H 0.28071 0.23614 0.72682 0.0
H2041 H 0.27769 0.21662 0.73933 0.0
H2042 H 0.29819 0.232 0.7288 0.0
H2043 H 0.34243 0.25464 0.79652 0.0
H2044 H 0.33309 0.22543 0.81036 0.0
H2045 H 0.28317 0.20661 0.7788 0.0
C2046 C 0.30447 0.27188 0.74737 0.0
C2047 C 0.31877 0.28882 0.74786 0.0
C2048 C 0.33376 0.29223 0.75999 0.0
C2049 C 0.3347 0.27903 0.77109 0.0
C2050 C 0.32046 0.2625 0.77014 0.0
C2051 C 0.30558 0.25886 0.75876 0.0
C2052 C 0.29204 0.23999 0.76082 0.0
C2053 C 0.27651 0.23829 0.7731 0.0
C2054 C 0.28686 0.23064 0.73756 0.0
C2055 C 0.3017 0.23362 0.77507 0.0
C2056 C 0.3181 0.24684 0.78012 0.0
C2057 C 0.32961 0.24418 0.79272 0.0
C2058 C 0.32422 0.22754 0.80039 0.0
C2059 C 0.30745 0.2138 0.79557 0.0
C2060 C 0.29603 0.21693 0.78283 0.0
H2061 H 0.73112 0.02808 0.7028 0.0
H2062 H 0.69279 0.04361 0.70245 0.0
H2063 H 0.70599 0.06143 0.73706 0.0
H2064 H 0.73423 0.0265 0.76542 0.0
H2065 H 0.75683 0.03456 0.76519 0.0
H2066 H 0.74339 0.0217 0.74158 0.0
H2067 H 0.76223 0.04619 0.71478 0.0
H2068 H 0.77559 0.05919 0.73829 0.0
H2069 H 0.76564 0.06767 0.72003 0.0
H2070 H 0.72574 0.08087 0.768 0.0
H2071 H 0.74878 0.09822 0.79563 0.0
H2072 H 0.77266 0.06775 0.77896 0.0
C2073 C 0.7253 0.03495 0.71026 0.0
C2074 C 0.71091 0.03444 0.69985 0.0
C2075 C 0.70372 0.04367 0.71014 0.0
C2076 C 0.71116 0.05389 0.72979 0.0
C2077 C 0.72559 0.05448 0.73926 0.0
C2078 C 0.73238 0.04498 0.73014 0.0
C2079 C 0.74826 0.04833 0.74331 0.0
C2080 C 0.74551 0.03179 0.75455 0.0
C2081 C 0.76384 0.05579 0.7282 0.0
C2082 C 0.74968 0.0617 0.76069 0.0
C2083 C 0.73649 0.06506 0.75802 0.0
C2084 C 0.73587 0.07798 0.77074 0.0
C2085 C 0.74905 0.08772 0.78662 0.0
C2086 C 0.76266 0.08438 0.79006 0.0
C2087 C 0.76269 0.07094 0.77694 0.0
H2088 H 0.06326 0.3157 0.02115 0.0
H2089 H 0.03305 0.32477 0.06964 0.0
H2090 H 0.04923 0.32103 0.10077 0.0
H2091 H 0.06737 0.28315 0.05301 0.0
H2092 H 0.08894 0.29097 0.04451 0.0
H2093 H 0.07414 0.29313 0.02616 0.0
H2094 H 0.09504 0.32618 0.02491 0.0
H2095 H 0.10985 0.32414 0.0433 0.0
H2096 H 0.10244 0.33883 0.05094 0.0
H2097 H 0.0703 0.31858 0.12658 0.0
H2098 H 0.09386 0.31654 0.14498 0.0
H2099 H 0.10995 0.30873 0.07951 0.0
C2100 C 0.05985 0.31667 0.0383 0.0
C2101 C 0.04685 0.32052 0.04294 0.0
C2102 C 0.0429 0.32177 0.06565 0.0
C2103 C 0.05203 0.31967 0.08345 0.0
C2104 C 0.06498 0.3162 0.07826 0.0
C2105 C 0.06878 0.31456 0.05622 0.0
C2106 C 0.08368 0.31141 0.05513 0.0
C2107 C 0.0782 0.2936 0.04405 0.0
C2108 C 0.09863 0.32601 0.04285 0.0
C2109 C 0.08789 0.31183 0.08 0.0
C2110 C 0.07694 0.31457 0.09308 0.0
C2111 C 0.07883 0.31626 0.1165 0.0
C2112 C 0.09229 0.31517 0.12679 0.0
C2113 C 0.10366 0.31238 0.11368 0.0
C2114 C 0.10128 0.31056 0.08999 0.0
H2115 H 0.6768 0.70882 0.06382 0.0
H2116 H 0.62162 0.67973 0.06673 0.0
H2117 H 0.62171 0.70583 0.08089 0.0
H2118 H 0.68422 0.73215 0.11367 0.0
H2119 H 0.70156 0.75234 0.10447 0.0
H2120 H 0.69742 0.73226 0.09121 0.0
H2121 H 0.69469 0.74315 0.0521 0.0
H2122 H 0.69917 0.76344 0.06518 0.0
H2123 H 0.68006 0.75102 0.04798 0.0
H2124 H 0.62774 0.73305 0.10026 0.0
H2125 H 0.63915 0.76129 0.11986 0.0
H2126 H 0.69049 0.77405 0.10272 0.0
C2127 C 0.66472 0.70811 0.0667 0.0
C2128 C 0.6492 0.69222 0.06416 0.0
C2129 C 0.63367 0.69173 0.06859 0.0
C2130 C 0.63357 0.7065 0.07663 0.0
C2131 C 0.64909 0.72173 0.07996 0.0
C2132 C 0.66438 0.72281 0.07476 0.0
C2133 C 0.67928 0.74056 0.08134 0.0
C2134 C 0.69132 0.73923 0.0987 0.0
C2135 C 0.68886 0.75011 0.0604 0.0
C2136 C 0.66996 0.74898 0.09175 0.0
C2137 C 0.65256 0.73787 0.09067 0.0
C2138 C 0.64131 0.7421 0.10062 0.0
C2139 C 0.64796 0.75828 0.11165 0.0
C2140 C 0.66575 0.77021 0.1125 0.0
C2141 C 0.67684 0.76536 0.10241 0.0
H2142 H 0.29306 0.96103 0.01412 0.0
H2143 H 0.33462 0.98337 0.06408 0.0
H2144 H 0.31466 0.96637 0.09347 0.0
H2145 H 0.26114 0.96035 0.04946 0.0
H2146 H 0.24428 0.93992 0.03804 0.0
H2147 H 0.26184 0.95374 0.02079 0.0
H2148 H 0.26798 0.92873 0.01315 0.0
H2149 H 0.25039 0.9148 0.03029 0.0
H2150 H 0.27135 0.91816 0.03661 0.0
H2151 H 0.29014 0.94758 0.11759 0.0
H2152 H 0.26286 0.92737 0.13461 0.0
H2153 H 0.23746 0.91644 0.06871 0.0
C2154 C 0.29798 0.96233 0.03123 0.0
C2155 C 0.31541 0.97355 0.03679 0.0
C2156 C 0.32133 0.97484 0.05939 0.0
C2157 C 0.31009 0.96526 0.07622 0.0
C2158 C 0.29298 0.9544 0.07018 0.0
C2159 C 0.28695 0.95279 0.04823 0.0
C2160 C 0.26799 0.9401 0.04622 0.0
C2161 C 0.25824 0.94907 0.03815 0.0
C2162 C 0.26421 0.92453 0.03065 0.0
C2163 C 0.26431 0.93489 0.0705 0.0
C2164 C 0.27888 0.94333 0.08405 0.0
C2165 C 0.27865 0.94077 0.10713 0.0
C2166 C 0.26311 0.92918 0.1166 0.0
C2167 C 0.248 0.9202 0.103 0.0
C2168 C 0.2487 0.9232 0.07964 0.0
H2169 H 0.36267 0.07623 0.9819 0.0
H2170 H 0.32048 0.02552 0.99673 0.0
H2171 H 0.30034 0.03383 0.98107 0.0
H2172 H 0.33926 0.10125 0.99015 0.0
H2173 H 0.35024 0.11481 0.96699 0.0
H2174 H 0.36073 0.10644 0.98446 0.0
H2175 H 0.36657 0.09326 0.94878 0.0
H2176 H 0.35578 0.10116 0.93128 0.0
H2177 H 0.34893 0.0784 0.93056 0.0
H2178 H 0.28554 0.04537 0.95663 0.0
H2179 H 0.27737 0.05994 0.92809 0.0
H2180 H 0.32932 0.10297 0.92951 0.0
C2181 C 0.34916 0.06709 0.98272 0.0
C2182 C 0.34318 0.05022 0.99052 0.0
C2183 C 0.32539 0.03858 0.99102 0.0
C2184 C 0.31383 0.04318 0.98209 0.0
C2185 C 0.32026 0.05954 0.97312 0.0
C2186 C 0.33752 0.07146 0.97384 0.0
C2187 C 0.34147 0.08733 0.96072 0.0
C2188 C 0.34832 0.10341 0.97653 0.0
C2189 C 0.35391 0.09018 0.94172 0.0
C2190 C 0.3239 0.08206 0.95138 0.0
C2191 C 0.31175 0.06616 0.959 0.0
C2192 C 0.29487 0.05803 0.951 0.0
C2193 C 0.29035 0.06637 0.93477 0.0
C2194 C 0.30273 0.08256 0.92653 0.0
C2195 C 0.3196 0.09054 0.93533 0.0
H2196 H 0.94894 0.29359 0.95866 0.0
H2197 H 0.98208 0.27827 0.9919 0.0
H2198 H 0.96177 0.24768 0.98106 0.0
H2199 H 0.90844 0.25561 0.97314 0.0
H2200 H 0.89849 0.25498 0.94633 0.0
H2201 H 0.91495 0.27535 0.95844 0.0
H2202 H 0.93206 0.281 0.92198 0.0
H2203 H 0.91575 0.26062 0.90983 0.0
H2204 H 0.93748 0.26523 0.91193 0.0
H2205 H 0.93891 0.21897 0.96334 0.0
H2206 H 0.91466 0.19455 0.94242 0.0
H2207 H 0.89679 0.22907 0.92125 0.0
C2208 C 0.95186 0.28382 0.96402 0.0
C2209 C 0.96715 0.28839 0.97616 0.0
C2210 C 0.97043 0.27512 0.98272 0.0
C2211 C 0.95898 0.2577 0.97658 0.0
C2212 C 0.94425 0.25375 0.96409 0.0
C2213 C 0.94059 0.26644 0.95813 0.0
C2214 C 0.92427 0.25898 0.944 0.0
C2215 C 0.91073 0.26137 0.95621 0.0
C2216 C 0.9276 0.26693 0.92055 0.0
C2217 C 0.91944 0.24014 0.94252 0.0
C2218 C 0.93108 0.23732 0.95422 0.0
C2219 C 0.92963 0.22101 0.95436 0.0
C2220 C 0.91589 0.20726 0.94231 0.0
C2221 C 0.90377 0.20989 0.93036 0.0
C2222 C 0.90564 0.22657 0.93059 0.0
H2223 H 0.73137 0.66644 0.02033 0.0
H2224 H 0.70047 0.68419 0.98628 0.0
H2225 H 0.72111 0.69532 0.95571 0.0
H2226 H 0.77267 0.70243 0.00547 0.0
H2227 H 0.78191 0.68881 0.00178 0.0
H2228 H 0.76518 0.68314 0.02152 0.0
H2229 H 0.74745 0.65305 0.00134 0.0
H2230 H 0.76408 0.65866 0.98149 0.0
H2231 H 0.74269 0.65179 0.97152 0.0
H2232 H 0.74437 0.7031 0.92785 0.0
H2233 H 0.7686 0.7072 0.90512 0.0
H2234 H 0.78446 0.68489 0.95795 0.0
C2235 C 0.729 0.67282 0.00658 0.0
C2236 C 0.7143 0.67446 0.00572 0.0
C2237 C 0.71166 0.68282 0.98734 0.0
C2238 C 0.72331 0.68919 0.96989 0.0
C2239 C 0.73756 0.68716 0.97114 0.0
C2240 C 0.74048 0.67926 0.98907 0.0
C2241 C 0.75649 0.67824 0.98609 0.0
C2242 C 0.76985 0.68879 0.00483 0.0
C2243 C 0.75243 0.65931 0.98504 0.0
C2244 C 0.76199 0.68657 0.96351 0.0
C2245 C 0.75096 0.69171 0.9552 0.0
C2246 C 0.7532 0.6993 0.93431 0.0
C2247 C 0.76705 0.70165 0.92157 0.0
C2248 C 0.77849 0.69642 0.92975 0.0
C2249 C 0.77589 0.68889 0.95109 0.0
H2250 H 0.96286 0.68454 0.98349 0.0
H2251 H 0.94338 0.63139 0.95982 0.0
H2252 H 0.92387 0.63403 0.93313 0.0
H2253 H 0.92372 0.68385 0.98168 0.0
H2254 H 0.93209 0.70546 0.97162 0.0
H2255 H 0.94559 0.70008 0.98795 0.0
H2256 H 0.96735 0.7103 0.95602 0.0
H2257 H 0.95399 0.71588 0.93967 0.0
H2258 H 0.96032 0.70128 0.92784 0.0
H2259 H 0.90448 0.64112 0.91201 0.0
H2260 H 0.88789 0.65302 0.89505 0.0
H2261 H 0.92092 0.70249 0.9298 0.0
C2262 C 0.95469 0.67356 0.97242 0.0
C2263 C 0.95467 0.65773 0.97383 0.0
C2264 C 0.94369 0.64365 0.95913 0.0
C2265 C 0.93251 0.645 0.94388 0.0
C2266 C 0.93255 0.66059 0.94329 0.0
C2267 C 0.94349 0.67472 0.95689 0.0
C2268 C 0.94058 0.68983 0.95308 0.0
C2269 C 0.93517 0.69511 0.97488 0.0
C2270 C 0.95651 0.70524 0.94358 0.0
C2271 C 0.92605 0.6818 0.93562 0.0
C2272 C 0.92165 0.66492 0.9303 0.0
C2273 C 0.90806 0.65446 0.9156 0.0
C2274 C 0.89877 0.66146 0.90588 0.0
C2275 C 0.90319 0.6789 0.91055 0.0
C2276 C 0.91708 0.68914 0.92574 0.0
H2277 H 0.35769 0.28544 0.96353 0.0
H2278 H 0.31173 0.28663 0.97929 0.0
H2279 H 0.29438 0.25597 0.9669 0.0
H2280 H 0.34325 0.26265 0.91427 0.0
H2281 H 0.3534 0.24983 0.91713 0.0
H2282 H 0.36246 0.27063 0.9314 0.0
H2283 H 0.36121 0.25674 0.96976 0.0
H2284 H 0.35244 0.23586 0.95554 0.0
H2285 H 0.34132 0.23887 0.97851 0.0
H2286 H 0.28203 0.22719 0.94613 0.0
H2287 H 0.27579 0.20187 0.92179 0.0
H2288 H 0.32981 0.21899 0.92118 0.0
C2289 C 0.34401 0.27912 0.96513 0.0
C2290 C 0.33611 0.2885 0.97238 0.0
C2291 C 0.31813 0.27974 0.97395 0.0
C2292 C 0.30814 0.2623 0.96689 0.0
C2293 C 0.31632 0.25372 0.9587 0.0
C2294 C 0.33388 0.26174 0.95826 0.0
C2295 C 0.33953 0.25021 0.94686 0.0
C2296 C 0.35028 0.25885 0.9262 0.0
C2297 C 0.34919 0.24512 0.96368 0.0
C2298 C 0.32242 0.23482 0.93994 0.0
C2299 C 0.30917 0.23698 0.94711 0.0
C2300 C 0.29228 0.22514 0.94096 0.0
C2301 C 0.28886 0.21075 0.92713 0.0
C2302 C 0.30227 0.20831 0.91954 0.0
C2303 C 0.31922 0.22045 0.92644 0.0
H2304 H 0.70829 0.05051 0.00684 0.0
H2305 H 0.67226 0.01436 0.9562 0.0
H2306 H 0.69348 0.02855 0.92694 0.0
H2307 H 0.72647 0.08797 0.9716 0.0
H2308 H 0.74772 0.09648 0.98333 0.0
H2309 H 0.72959 0.08361 1.00028 0.0
H2310 H 0.74099 0.0627 0.00796 0.0
H2311 H 0.75911 0.07546 0.99095 0.0
H2312 H 0.74554 0.05266 0.98452 0.0
H2313 H 0.71892 0.04591 0.9034 0.0
H2314 H 0.74638 0.06647 0.88683 0.0
H2315 H 0.76562 0.09158 0.9526 0.0
C2316 C 0.70482 0.04562 0.98959 0.0
C2317 C 0.68862 0.0313 0.98384 0.0
C2318 C 0.68458 0.02533 0.96103 0.0
C2319 C 0.69656 0.03327 0.94428 0.0
C2320 C 0.71247 0.04723 0.95056 0.0
C2321 C 0.71658 0.05346 0.97262 0.0
C2322 C 0.73457 0.0687 0.97486 0.0
C2323 C 0.73458 0.08516 0.98299 0.0
C2324 C 0.7457 0.06463 0.99049 0.0
C2325 C 0.73995 0.06998 0.95064 0.0
C2326 C 0.72705 0.05743 0.93692 0.0
C2327 C 0.72911 0.05583 0.91395 0.0
C2328 C 0.74476 0.06747 0.90473 0.0
C2329 C 0.75808 0.08058 0.91844 0.0
C2330 C 0.75559 0.08178 0.94169 0.0
H2331 H 0.67287 0.96748 0.04808 0.0
H2332 H 0.63543 0.92649 0.00388 0.0
H2333 H 0.64681 0.90761 0.01484 0.0
H2334 H 0.70798 0.95488 0.04565 0.0
H2335 H 0.71269 0.96006 0.07534 0.0
H2336 H 0.70593 0.97221 0.0584 0.0
H2337 H 0.68157 0.96511 0.08586 0.0
H2338 H 0.68794 0.95269 0.10258 0.0
H2339 H 0.66644 0.94279 0.0912 0.0
H2340 H 0.65706 0.89135 0.03656 0.0
H2341 H 0.66531 0.87871 0.0674 0.0
H2342 H 0.69498 0.92951 0.0999 0.0
C2343 C 0.66788 0.95491 0.0397 0.0
C2344 C 0.65374 0.94853 0.02458 0.0
C2345 C 0.64662 0.93167 0.01495 0.0
C2346 C 0.65301 0.9209 0.02112 0.0
C2347 C 0.66636 0.92716 0.03715 0.0
C2348 C 0.67383 0.94386 0.04623 0.0
C2349 C 0.68547 0.9463 0.0663 0.0
C2350 C 0.70413 0.95912 0.0611 0.0
C2351 C 0.68001 0.95205 0.08773 0.0
C2352 C 0.68247 0.92809 0.06804 0.0
C2353 C 0.67183 0.91741 0.05064 0.0
C2354 C 0.66571 0.89966 0.04995 0.0
C2355 C 0.6703 0.89257 0.06767 0.0
C2356 C 0.68073 0.90316 0.08601 0.0
C2357 C 0.68726 0.9212 0.08585 0.0
H2358 H 0.05193 0.70416 0.0764 0.0
H2359 H 0.01971 0.71781 0.0374 0.0
H2360 H 0.04106 0.74884 0.04357 0.0
H2361 H 0.06568 0.73763 0.11789 0.0
H2362 H 0.08701 0.74118 0.12055 0.0
H2363 H 0.0697 0.72014 0.11192 0.0
H2364 H 0.08561 0.72065 0.0758 0.0
H2365 H 0.10302 0.74169 0.08436 0.0
H2366 H 0.09255 0.73852 0.05717 0.0
H2367 H 0.0652 0.77853 0.05648 0.0
H2368 H 0.09054 0.80421 0.07369 0.0
H2369 H 0.10686 0.77075 0.10344 0.0
C2370 C 0.04937 0.71361 0.06892 0.0
C2371 C 0.03408 0.70848 0.0564 0.0
C2372 C 0.03132 0.72137 0.04699 0.0
C2373 C 0.04337 0.73904 0.05043 0.0
C2374 C 0.05817 0.7436 0.06315 0.0
C2375 C 0.06124 0.73123 0.0721 0.0
C2376 C 0.07788 0.73943 0.08564 0.0
C2377 C 0.07488 0.73429 0.11047 0.0
C2378 C 0.09051 0.7348 0.07511 0.0
C2379 C 0.08365 0.75839 0.08318 0.0
C2380 C 0.07212 0.76058 0.07017 0.0
C2381 C 0.07438 0.77696 0.06647 0.0
C2382 C 0.08876 0.79145 0.07637 0.0
C2383 C 0.10072 0.78946 0.08968 0.0
C2384 C 0.09812 0.77269 0.09294 0.0
H2385 H 0.30892 0.33817 0.03781 0.0
H2386 H 0.27775 0.31873 0.97623 0.0
H2387 H 0.25217 0.31146 0.99778 0.0
H2388 H 0.27871 0.30574 0.07386 0.0
H2389 H 0.28367 0.32047 0.09771 0.0
H2390 H 0.29972 0.32443 0.07748 0.0
H2391 H 0.30403 0.35498 0.07111 0.0
H2392 H 0.28801 0.35111 0.09134 0.0
H2393 H 0.28596 0.35718 0.06317 0.0
H2394 H 0.23004 0.30637 0.02558 0.0
H2395 H 0.21253 0.30375 0.05812 0.0
H2396 H 0.25768 0.32574 0.10218 0.0
C2397 C 0.29673 0.33244 0.02885 0.0
C2398 C 0.29536 0.32904 0.0053 0.0
C2399 C 0.27914 0.32146 0.99424 0.0
C2400 C 0.26452 0.31728 0.00633 0.0
C2401 C 0.26629 0.32072 0.02949 0.0
C2402 C 0.28195 0.32812 0.04069 0.0
C2403 C 0.28022 0.33032 0.06574 0.0
C2404 C 0.28592 0.31959 0.07951 0.0
C2405 C 0.29014 0.34954 0.07328 0.0
C2406 C 0.26115 0.32303 0.06681 0.0
C2407 C 0.2534 0.31758 0.04568 0.0
C2408 C 0.23593 0.31048 0.04225 0.0
C2409 C 0.22607 0.30892 0.0609 0.0
C2410 C 0.23366 0.31435 0.08281 0.0
C2411 C 0.25148 0.32153 0.08569 0.0
H2412 H 0.74109 0.669 0.34438 0.0
H2413 H 0.70138 0.66289 0.38948 0.0
H2414 H 0.7162 0.65748 0.42079 0.0
H2415 H 0.74785 0.63568 0.36807 0.0
H2416 H 0.77054 0.64768 0.36437 0.0
H2417 H 0.75652 0.65059 0.34544 0.0
H2418 H 0.77323 0.6836 0.35467 0.0
H2419 H 0.78726 0.68079 0.37367 0.0
H2420 H 0.77589 0.69126 0.38361 0.0
H2421 H 0.73608 0.65391 0.44759 0.0
H2422 H 0.7589 0.65137 0.46737 0.0
H2423 H 0.78537 0.65963 0.40458 0.0
C2424 C 0.73543 0.66642 0.36079 0.0
C2425 C 0.72006 0.66638 0.36445 0.0
C2426 C 0.71311 0.66295 0.38623 0.0
C2427 C 0.72145 0.65988 0.40413 0.0
C2428 C 0.73667 0.66018 0.39998 0.0
C2429 C 0.74353 0.66326 0.37881 0.0
C2430 C 0.76012 0.66307 0.37882 0.0
C2431 C 0.75866 0.64838 0.36325 0.0
C2432 C 0.775 0.68073 0.37231 0.0
C2433 C 0.76161 0.65955 0.40335 0.0
C2434 C 0.74798 0.65795 0.4153 0.0
C2435 C 0.74678 0.65506 0.43837 0.0
C2436 C 0.75983 0.65374 0.44948 0.0
C2437 C 0.77388 0.65525 0.43751 0.0
C2438 C 0.77468 0.65817 0.41413 0.0
H2439 H 0.30551 0.04324 0.39561 0.0
H2440 H 0.35372 0.04456 0.38895 0.0
H2441 H 0.369 0.07523 0.40195 0.0
H2442 H 0.32125 0.089 0.37889 0.0
H2443 H 0.30794 0.09159 0.39897 0.0
H2444 H 0.30108 0.07066 0.38585 0.0
H2445 H 0.29741 0.05755 0.42533 0.0
H2446 H 0.30448 0.07842 0.43856 0.0
H2447 H 0.31525 0.06665 0.44517 0.0
H2448 H 0.37858 0.104 0.42169 0.0
H2449 H 0.38181 0.12921 0.44373 0.0
H2450 H 0.32749 0.10973 0.43513 0.0
C2451 C 0.31931 0.05009 0.39629 0.0
C2452 C 0.3284 0.04147 0.39127 0.0
C2453 C 0.34645 0.05089 0.39255 0.0
C2454 C 0.35526 0.06832 0.39996 0.0
C2455 C 0.34585 0.07622 0.40562 0.0
C2456 C 0.32828 0.06749 0.40343 0.0
C2457 C 0.32107 0.0785 0.41205 0.0
C2458 C 0.31232 0.08269 0.39279 0.0
C2459 C 0.30884 0.06975 0.43142 0.0
C2460 C 0.33726 0.09448 0.42038 0.0
C2461 C 0.35144 0.093 0.41639 0.0
C2462 C 0.36762 0.10551 0.42437 0.0
C2463 C 0.36933 0.11986 0.43683 0.0
C2464 C 0.35494 0.12162 0.44118 0.0
C2465 C 0.33878 0.10882 0.43238 0.0
H2466 H 0.95141 0.28268 0.346 0.0
H2467 H 0.98832 0.32256 0.39238 0.0
H2468 H 0.96623 0.31369 0.42107 0.0
H2469 H 0.91453 0.28571 0.36252 0.0
H2470 H 0.90026 0.26266 0.35974 0.0
H2471 H 0.91866 0.27297 0.3424 0.0
H2472 H 0.92872 0.25219 0.35664 0.0
H2473 H 0.91033 0.24178 0.37391 0.0
H2474 H 0.93138 0.25068 0.38653 0.0
H2475 H 0.94013 0.29969 0.44514 0.0
H2476 H 0.91288 0.28034 0.46334 0.0
H2477 H 0.89363 0.24958 0.40116 0.0
C2478 C 0.95483 0.28967 0.3621 0.0
C2479 C 0.97156 0.30336 0.36692 0.0
C2480 C 0.97557 0.31202 0.38832 0.0
C2481 C 0.96309 0.30714 0.40467 0.0
C2482 C 0.94672 0.29356 0.39936 0.0
C2483 C 0.94262 0.2849 0.37862 0.0
C2484 C 0.92441 0.2701 0.37751 0.0
C2485 C 0.91384 0.27304 0.35947 0.0
C2486 C 0.92368 0.25266 0.37341 0.0
C2487 C 0.91896 0.2716 0.40098 0.0
C2488 C 0.93189 0.28535 0.41327 0.0
C2489 C 0.92988 0.28895 0.43562 0.0
C2490 C 0.91437 0.27798 0.44578 0.0
C2491 C 0.90123 0.26351 0.43362 0.0
C2492 C 0.90351 0.26054 0.41085 0.0
H2493 H 0.03321 0.39195 0.28401 0.0
H2494 H 0.98656 0.35006 0.31004 0.0
H2495 H 0.97059 0.36357 0.29524 0.0
H2496 H 0.02279 0.42645 0.29538 0.0
H2497 H 0.03264 0.43748 0.27005 0.0
H2498 H 0.04059 0.42525 0.28443 0.0
H2499 H 0.03657 0.40747 0.24749 0.0
H2500 H 0.0284 0.41945 0.23309 0.0
H2501 H 0.01589 0.39617 0.23347 0.0
H2502 H 0.9592 0.37961 0.27362 0.0
H2503 H 0.95356 0.39858 0.2499 0.0
H2504 H 0.00794 0.43121 0.24043 0.0
C2505 C 0.01969 0.38576 0.28696 0.0
C2506 C 0.01114 0.36993 0.29815 0.0
C2507 C 0.99342 0.36224 0.30162 0.0
C2508 C 0.98421 0.36978 0.29322 0.0
C2509 C 0.99295 0.38513 0.28172 0.0
C2510 C 0.01034 0.39321 0.27893 0.0
C2511 C 0.01658 0.40937 0.26539 0.0
C2512 C 0.02888 0.4256 0.27967 0.0
C2513 C 0.02484 0.40802 0.24357 0.0
C2514 C -9e-05 0.40882 0.26042 0.0
C2515 C 0.98644 0.39474 0.26997 0.0
C2516 C 0.96969 0.39092 0.2665 0.0
C2517 C 0.96663 0.40187 0.25306 0.0
C2518 C 0.98028 0.4166 0.24338 0.0
C2519 C 0.99714 0.42005 0.24732 0.0
H2520 H 0.61717 0.63285 0.28456 0.0
H2521 H 0.64983 0.62022 0.32434 0.0
H2522 H 0.63111 0.58928 0.31381 0.0
H2523 H 0.57648 0.59367 0.29618 0.0
H2524 H 0.56819 0.59222 0.26793 0.0
H2525 H 0.58314 0.61305 0.28059 0.0
H2526 H 0.60289 0.61923 0.24676 0.0
H2527 H 0.58811 0.5984 0.23411 0.0
H2528 H 0.60997 0.60421 0.23947 0.0
H2529 H 0.6102 0.55999 0.29608 0.0
H2530 H 0.58812 0.53465 0.27395 0.0
H2531 H 0.56961 0.56675 0.24545 0.0
C2532 C 0.62023 0.62359 0.29152 0.0
C2533 C 0.63499 0.62904 0.30539 0.0
C2534 C 0.63858 0.61642 0.31378 0.0
C2535 C 0.62803 0.59879 0.30787 0.0
C2536 C 0.61388 0.59397 0.29363 0.0
C2537 C 0.60989 0.606 0.28574 0.0
C2538 C 0.59454 0.59764 0.26967 0.0
C2539 C 0.57971 0.59924 0.27917 0.0
C2540 C 0.59916 0.60533 0.24612 0.0
C2541 C 0.59068 0.57907 0.26941 0.0
C2542 C 0.60191 0.57717 0.28341 0.0
C2543 C 0.60125 0.56131 0.28522 0.0
C2544 C 0.58875 0.54702 0.27245 0.0
C2545 C 0.57709 0.54868 0.258 0.0
C2546 C 0.57812 0.56496 0.25662 0.0
H2547 H 0.35915 0.99715 0.29683 0.0
H2548 H 0.37597 0.00462 0.36718 0.0
H2549 H 0.40507 0.0134 0.35568 0.0
H2550 H 0.38456 0.97926 0.27811 0.0
H2551 H 0.38925 0.98976 0.25143 0.0
H2552 H 0.36974 0.98456 0.26507 0.0
H2553 H 0.37748 0.01667 0.2637 0.0
H2554 H 0.39702 0.02197 0.25006 0.0
H2555 H 0.39758 0.03332 0.27579 0.0
H2556 H 0.4322 0.02076 0.33684 0.0
H2557 H 0.45547 0.02559 0.31172 0.0
H2558 H 0.42135 0.0138 0.25355 0.0
C2559 C 0.36896 0.00069 0.30981 0.0
C2560 C 0.36523 0.00019 0.33292 0.0
C2561 C 0.37846 0.00486 0.34936 0.0
C2562 C 0.39507 0.00992 0.34302 0.0
C2563 C 0.3983 0.01025 0.32015 0.0
C2564 C 0.38565 0.00575 0.30378 0.0
C2565 C 0.39251 0.00686 0.28038 0.0
C2566 C 0.38348 0.98905 0.26803 0.0
C2567 C 0.39106 0.02052 0.26668 0.0
C2568 C 0.41094 0.01255 0.28622 0.0
C2569 C 0.41402 0.01451 0.30925 0.0
C2570 C 0.42999 0.01939 0.31875 0.0
C2571 C 0.44317 0.02222 0.30433 0.0
C2572 C 0.4403 0.02015 0.28064 0.0
C2573 C 0.42395 0.01536 0.27157 0.0
H2574 H 0.62062 0.01611 0.34773 0.0
H2575 H 0.64471 0.00111 0.29641 0.0
H2576 H 0.62685 0.00418 0.26703 0.0
H2577 H 0.57917 0.9935 0.32416 0.0
H2578 H 0.57376 0.00978 0.33165 0.0
H2579 H 0.58934 0.00777 0.3484 0.0
H2580 H 0.61142 0.04004 0.34253 0.0
H2581 H 0.59585 0.0422 0.32587 0.0
H2582 H 0.61619 0.0479 0.31432 0.0
H2583 H 0.60459 0.00653 0.24364 0.0
H2584 H 0.58083 0.00953 0.22788 0.0
H2585 H 0.57169 0.0234 0.29451 0.0
C2586 C 0.62236 0.01372 0.33029 0.0
C2587 C 0.6341 0.00838 0.32439 0.0
C2588 C 0.63587 0.00529 0.30135 0.0
C2589 C 0.62576 0.00697 0.28455 0.0
C2590 C 0.61405 0.0119 0.29103 0.0
C2591 C 0.61244 0.01541 0.31333 0.0
C2592 C 0.59854 0.01995 0.31597 0.0
C2593 C 0.58437 0.00697 0.33092 0.0
C2594 C 0.60595 0.03863 0.32522 0.0
C2595 C 0.59232 0.01813 0.2917 0.0
C2596 C 0.60143 0.01349 0.27756 0.0
C2597 C 0.59749 0.01032 0.25454 0.0
C2598 C 0.58392 0.01194 0.24577 0.0
C2599 C 0.57446 0.01675 0.25996 0.0
C2600 C 0.57885 0.01997 0.2832 0.0
H2601 H 0.02141 0.62427 0.28735 0.0
H2602 H 0.97349 0.62168 0.30168 0.0
H2603 H 0.95813 0.59036 0.29157 0.0
H2604 H 0.00828 0.59986 0.23962 0.0
H2605 H 0.02022 0.5889 0.24353 0.0
H2606 H 0.0277 0.60987 0.25663 0.0
H2607 H 0.028 0.59781 0.29588 0.0
H2608 H 0.02081 0.57678 0.28285 0.0
H2609 H 0.00902 0.57919 0.3054 0.0
H2610 H 0.94789 0.56083 0.27296 0.0
H2611 H 0.94388 0.53561 0.24989 0.0
H2612 H 0.9987 0.55781 0.24852 0.0
C2613 C 0.00772 0.61701 0.28913 0.0
C2614 C 0.99864 0.6254 0.29531 0.0
C2615 C 0.98073 0.61548 0.29722 0.0
C2616 C 0.9719 0.59769 0.29144 0.0
C2617 C 0.98122 0.59002 0.28419 0.0
C2618 C 0.9988 0.59934 0.28349 0.0
C2619 C 0.00581 0.58873 0.27296 0.0
C2620 C 0.01609 0.59736 0.25195 0.0
C2621 C 0.01654 0.58543 0.29031 0.0
C2622 C 0.98942 0.57227 0.26672 0.0
C2623 C 0.97535 0.57309 0.27361 0.0
C2624 C 0.95883 0.5599 0.26798 0.0
C2625 C 0.95667 0.54562 0.25487 0.0
C2626 C 0.97097 0.54473 0.24736 0.0
C2627 C 0.9875 0.55813 0.25383 0.0
H2628 H 0.36593 0.39708 0.3023 0.0
H2629 H 0.37606 0.36053 0.33665 0.0
H2630 H 0.40124 0.36917 0.31354 0.0
H2631 H 0.38006 0.39168 0.24642 0.0
H2632 H 0.38945 0.41434 0.24057 0.0
H2633 H 0.37129 0.40415 0.25836 0.0
H2634 H 0.38822 0.42717 0.29008 0.0
H2635 H 0.40642 0.43736 0.27246 0.0
H2636 H 0.40849 0.4303 0.29997 0.0
H2637 H 0.4264 0.38318 0.2889 0.0
H2638 H 0.45 0.40184 0.26451 0.0
H2639 H 0.42342 0.42905 0.24576 0.0
C2640 C 0.37328 0.3907 0.30472 0.0
C2641 C 0.369 0.37811 0.32125 0.0
C2642 C 0.37909 0.37022 0.32409 0.0
C2643 C 0.39339 0.37499 0.311 0.0
C2644 C 0.39741 0.38763 0.2951 0.0
C2645 C 0.38764 0.39534 0.29184 0.0
C2646 C 0.39531 0.40928 0.27453 0.0
C2647 C 0.38331 0.40457 0.25374 0.0
C2648 C 0.39988 0.42708 0.28489 0.0
C2649 C 0.41112 0.40845 0.269 0.0
C2650 C 0.41199 0.39576 0.28087 0.0
C2651 C 0.42575 0.39301 0.27927 0.0
C2652 C 0.43906 0.40363 0.26528 0.0
C2653 C 0.43854 0.41687 0.25312 0.0
C2654 C 0.42425 0.41912 0.2549 0.0
H2655 H 0.33895 0.30387 0.38874 0.0
H2656 H 0.33261 0.32684 0.45019 0.0
H2657 H 0.34589 0.31345 0.4724 0.0
H2658 H 0.32724 0.26347 0.41237 0.0
H2659 H 0.342 0.25965 0.39682 0.0
H2660 H 0.3341 0.27283 0.3852 0.0
H2661 H 0.36508 0.29794 0.38112 0.0
H2662 H 0.37307 0.28482 0.39285 0.0
H2663 H 0.37937 0.30578 0.40547 0.0
H2664 H 0.35813 0.29673 0.48823 0.0
H2665 H 0.36604 0.27492 0.49757 0.0
H2666 H 0.36352 0.26118 0.42646 0.0
C2667 C 0.34065 0.30622 0.40682 0.0
C2668 C 0.33494 0.31642 0.41788 0.0
C2669 C 0.33695 0.31901 0.44156 0.0
C2670 C 0.34458 0.3116 0.45426 0.0
C2671 C 0.34997 0.30146 0.44302 0.0
C2672 C 0.34795 0.29854 0.4199 0.0
C2673 C 0.35328 0.28563 0.41252 0.0
C2674 C 0.33826 0.26944 0.40106 0.0
C2675 C 0.36862 0.29405 0.39708 0.0
C2676 C 0.35824 0.28155 0.43515 0.0
C2677 C 0.35657 0.29115 0.4524 0.0
C2678 C 0.35971 0.28927 0.47488 0.0
C2679 C 0.36432 0.27692 0.48 0.0
C2680 C 0.36559 0.26649 0.46273 0.0
C2681 C 0.36275 0.26906 0.43998 0.0
H2682 H 0.70298 0.04972 0.38775 0.0
H2683 H 0.73454 0.02594 0.38547 0.0
H2684 H 0.75992 0.05409 0.39513 0.0
H2685 H 0.73578 0.09298 0.36627 0.0
H2686 H 0.72938 0.10461 0.38512 0.0
H2687 H 0.71394 0.08319 0.37459 0.0
H2688 H 0.70631 0.07329 0.41557 0.0
H2689 H 0.72184 0.09457 0.42623 0.0
H2690 H 0.7229 0.07595 0.43517 0.0
H2691 H 0.78091 0.08306 0.41008 0.0
H2692 H 0.79704 0.1121 0.42768 0.0
H2693 H 0.75282 0.11852 0.4195 0.0
C2694 C 0.71533 0.05063 0.38856 0.0
C2695 C 0.71685 0.0357 0.38571 0.0
C2696 C 0.73313 0.03724 0.38755 0.0
C2697 C 0.74763 0.05318 0.39298 0.0
C2698 C 0.7457 0.06753 0.39652 0.0
C2699 C 0.73004 0.06654 0.39418 0.0
C2700 C 0.73146 0.08375 0.40082 0.0
C2701 C 0.7274 0.0916 0.38048 0.0
C2702 C 0.71994 0.08176 0.42062 0.0
C2703 C 0.75018 0.09427 0.40789 0.0
C2704 C 0.75811 0.08464 0.40505 0.0
C2705 C 0.775 0.09094 0.41182 0.0
C2706 C 0.78411 0.10759 0.42172 0.0
C2707 C 0.77643 0.11794 0.42468 0.0
C2708 C 0.75919 0.11109 0.41751 0.0
H2709 H 0.96711 0.66554 0.36048 0.0
H2710 H 0.00079 0.72089 0.37144 0.0
H2711 H 0.98093 0.72153 0.3988 0.0
H2712 H 0.92837 0.6657 0.36251 0.0
H2713 H 0.91709 0.64576 0.37726 0.0
H2714 H 0.93438 0.64935 0.35948 0.0
H2715 H 0.94962 0.64391 0.39293 0.0
H2716 H 0.9323 0.64014 0.41079 0.0
H2717 H 0.95381 0.65634 0.41893 0.0
H2718 H 0.9565 0.71657 0.42283 0.0
H2719 H 0.92991 0.7061 0.44341 0.0
H2720 H 0.91271 0.65373 0.41818 0.0
C2721 C 0.97041 0.67777 0.3688 0.0
C2722 C 0.9855 0.69318 0.36376 0.0
C2723 C 0.98932 0.70891 0.37502 0.0
C2724 C 0.97811 0.70942 0.39059 0.0
C2725 C 0.96321 0.69406 0.39486 0.0
C2726 C 0.95942 0.6785 0.38449 0.0
C2727 C 0.94241 0.66391 0.39179 0.0
C2728 C 0.92982 0.6557 0.37155 0.0
C2729 C 0.94468 0.65027 0.40436 0.0
C2730 C 0.9371 0.67378 0.40755 0.0
C2731 C 0.94928 0.69114 0.40911 0.0
C2732 C 0.94698 0.70295 0.42202 0.0
C2733 C 0.93184 0.69684 0.43377 0.0
C2734 C 0.91919 0.67904 0.43264 0.0
C2735 C 0.92199 0.66743 0.41932 0.0
H2736 H 0.36787 0.98797 0.70117 0.0
H2737 H 0.40017 0.04003 0.67776 0.0
H2738 H 0.42435 0.04238 0.70002 0.0
H2739 H 0.38678 0.99579 0.7582 0.0
H2740 H 0.38536 0.97494 0.75925 0.0
H2741 H 0.37009 0.9775 0.74245 0.0
H2742 H 0.37765 0.96533 0.70729 0.0
H2743 H 0.39297 0.96279 0.72396 0.0
H2744 H 0.3995 0.97537 0.69892 0.0
H2745 H 0.44528 0.03911 0.72344 0.0
H2746 H 0.46209 0.03014 0.74658 0.0
H2747 H 0.41688 0.98005 0.75515 0.0
C2748 C 0.37999 -9e-05 0.70096 0.0
C2749 C 0.3821 0.01384 0.68774 0.0
C2750 C 0.39822 0.02917 0.68768 0.0
C2751 C 0.41206 0.03067 0.70033 0.0
C2752 C 0.40965 0.0167 0.71294 0.0
C2753 C 0.39407 0.00159 0.7134 0.0
C2754 C 0.39527 0.98834 0.72778 0.0
C2755 C 0.38369 0.98388 0.74813 0.0
C2756 C 0.3911 0.97199 0.71364 0.0
C2757 C 0.41396 0.99835 0.73511 0.0
C2758 C 0.42193 0.01473 0.72644 0.0
C2759 C 0.43918 0.02638 0.73051 0.0
C2760 C 0.4486 0.02118 0.74379 0.0
C2761 C 0.44081 0.00445 0.75289 0.0
C2762 C 0.42322 0.9929 0.74841 0.0
H2763 H 0.9695 0.365 0.7513 0.0
H2764 H 0.01566 0.37481 0.71802 0.0
H2765 H 0.03036 0.4048 0.73353 0.0
H2766 H 0.97526 0.40873 0.74394 0.0
H2767 H 0.96666 0.40877 0.77109 0.0
H2768 H 0.95936 0.38866 0.75545 0.0
H2769 H 0.96732 0.37632 0.78974 0.0
H2770 H 0.97489 0.39645 0.80534 0.0
H2771 H 0.98882 0.38774 0.80129 0.0
H2772 H 0.04099 0.43249 0.7564 0.0
H2773 H 0.04603 0.45671 0.78214 0.0
H2774 H 0.99251 0.42933 0.79872 0.0
C2775 C 0.9826 0.37353 0.74687 0.0
C2776 C 0.99141 0.36749 0.73345 0.0
C2777 C 0.00858 0.37911 0.72818 0.0
C2778 C 0.01708 0.39617 0.73696 0.0
C2779 C 0.00817 0.40151 0.75073 0.0
C2780 C 0.99123 0.39063 0.75534 0.0
C2781 C 0.98476 0.39933 0.77128 0.0
C2782 C 0.97068 0.40151 0.75974 0.0
C2783 C 0.97859 0.38936 0.7932 0.0
C2784 C 0.00084 0.41662 0.77544 0.0
C2785 C 0.0142 0.41764 0.76342 0.0
C2786 C 0.03054 0.43199 0.76553 0.0
C2787 C 0.03325 0.44573 0.78017 0.0
C2788 C 0.01967 0.44508 0.79245 0.0
C2789 C 0.00326 0.43027 0.78986 0.0
H2790 H 0.64312 0.61011 0.71685 0.0
H2791 H 0.63827 0.65246 0.69037 0.0
H2792 H 0.61334 0.64429 0.71398 0.0
H2793 H 0.59961 0.57996 0.71636 0.0
H2794 H 0.60031 0.56982 0.74199 0.0
H2795 H 0.61885 0.58016 0.72499 0.0
H2796 H 0.63668 0.59946 0.75941 0.0
H2797 H 0.61818 0.58912 0.77656 0.0
H2798 H 0.62959 0.61234 0.7744 0.0
H2799 H 0.58762 0.63013 0.73848 0.0
H2800 H 0.56282 0.61056 0.76088 0.0
H2801 H 0.58467 0.57762 0.77097 0.0
C2802 C 0.63702 0.61787 0.71629 0.0
C2803 C 0.64269 0.63196 0.70182 0.0
C2804 C 0.63416 0.64161 0.70135 0.0
C2805 C 0.62003 0.63711 0.71476 0.0
C2806 C 0.6146 0.62296 0.72857 0.0
C2807 C 0.62286 0.61351 0.72944 0.0
C2808 C 0.61384 0.59818 0.74448 0.0
C2809 C 0.60779 0.58102 0.73115 0.0
C2810 C 0.62525 0.59989 0.76493 0.0
C2811 C 0.59898 0.60023 0.75147 0.0
C2812 C 0.59973 0.61472 0.7424 0.0
C2813 C 0.58699 0.61885 0.74587 0.0
C2814 C 0.57299 0.60771 0.75865 0.0
C2815 C 0.57181 0.59257 0.76757 0.0
C2816 C 0.58516 0.58903 0.7642 0.0
H2817 H 0.6645 0.69152 0.62449 0.0
H2818 H 0.71927 0.72463 0.62018 0.0
H2819 H 0.71514 0.74814 0.6064 0.0
H2820 H 0.65388 0.70411 0.57444 0.0
H2821 H 0.63498 0.7036 0.58439 0.0
H2822 H 0.64204 0.68992 0.59668 0.0
H2823 H 0.64297 0.70298 0.63639 0.0
H2824 H 0.63568 0.71656 0.62427 0.0
H2825 H 0.65512 0.72613 0.64119 0.0
H2826 H 0.70529 0.76686 0.58972 0.0
H2827 H 0.69027 0.78049 0.57252 0.0
H2828 H 0.64168 0.73558 0.58753 0.0
C2829 C 0.67563 0.70387 0.62122 0.0
C2830 C 0.69222 0.70628 0.62351 0.0
C2831 C 0.70645 0.7225 0.61856 0.0
C2832 C 0.70424 0.73594 0.61075 0.0
C2833 C 0.68772 0.73297 0.608 0.0
C2834 C 0.67364 0.71742 0.61323 0.0
C2835 C 0.65726 0.7173 0.6073 0.0
C2836 C 0.64641 0.70288 0.58965 0.0
C2837 C 0.64716 0.71565 0.62856 0.0
C2838 C 0.66437 0.73506 0.59748 0.0
C2839 C 0.68197 0.74389 0.59823 0.0
C2840 C 0.69151 0.76023 0.5894 0.0
C2841 C 0.68285 0.76788 0.57972 0.0
C2842 C 0.66479 0.75922 0.57897 0.0
C2843 C 0.65547 0.74253 0.58789 0.0
H2844 H 0.26346 0.94507 0.6454 0.0
H2845 H 0.31063 0.94389 0.64421 0.0
H2846 H 0.29456 0.91308 0.63168 0.0
H2847 H 0.23525 0.89858 0.66248 0.0
H2848 H 0.21797 0.89647 0.64473 0.0
H2849 H 0.23273 0.9171 0.65808 0.0
H2850 H 0.23889 0.93113 0.61903 0.0
H2851 H 0.22447 0.91058 0.6055 0.0
H2852 H 0.24626 0.9226 0.59691 0.0
H2853 H 0.27415 0.88454 0.6118 0.0
H2854 H 0.25104 0.86017 0.58967 0.0
H2855 H 0.21696 0.87953 0.60579 0.0
C2856 C 0.27035 0.93816 0.64333 0.0
C2857 C 0.28829 0.94688 0.64584 0.0
C2858 C 0.29686 0.93744 0.64269 0.0
C2859 C 0.28783 0.91994 0.63546 0.0
C2860 C 0.27022 0.912 0.63194 0.0
C2861 C 0.26153 0.92072 0.63632 0.0
C2862 C 0.24289 0.9099 0.62925 0.0
C2863 C 0.23154 0.90523 0.64987 0.0
C2864 C 0.23785 0.91911 0.61163 0.0
C2865 C 0.24262 0.89411 0.61905 0.0
C2866 C 0.25843 0.89542 0.62097 0.0
C2867 C 0.2616 0.88315 0.6108 0.0
C2868 C 0.24834 0.86929 0.59827 0.0
C2869 C 0.23206 0.86778 0.59593 0.0
C2870 C 0.22921 0.88025 0.60698 0.0
H2871 H 0.03467 0.30919 0.65216 0.0
H2872 H 0.02917 0.35473 0.65674 0.0
H2873 H 0.05467 0.37068 0.63394 0.0
H2874 H 0.07953 0.33107 0.65732 0.0
H2875 H 0.08204 0.31704 0.63746 0.0
H2876 H 0.0628 0.30887 0.65305 0.0
H2877 H 0.04483 0.29945 0.61569 0.0
H2878 H 0.06402 0.30751 0.59997 0.0
H2879 H 0.04938 0.31517 0.59435 0.0
H2880 H 0.08187 0.38224 0.61273 0.0
H2881 H 0.10786 0.38799 0.59284 0.0
H2882 H 0.09526 0.33481 0.60179 0.0
C2883 C 0.0387 0.32245 0.64818 0.0
C2884 C 0.02992 0.33071 0.65627 0.0
C2885 C 0.03566 0.34811 0.6507 0.0
C2886 C 0.05015 0.35729 0.63778 0.0
C2887 C 0.05867 0.34885 0.6304 0.0
C2888 C 0.05307 0.33178 0.63522 0.0
C2889 C 0.06471 0.32581 0.62565 0.0
C2890 C 0.07274 0.32039 0.6445 0.0
C2891 C 0.05516 0.31112 0.60786 0.0
C2892 C 0.07786 0.34228 0.615 0.0
C2893 C 0.07417 0.35543 0.61792 0.0
C2894 C 0.08482 0.37201 0.61018 0.0
C2895 C 0.09959 0.37518 0.59906 0.0
C2896 C 0.1035 0.36183 0.59573 0.0
C2897 C 0.09245 0.34519 0.60381 0.0
H2898 H 0.29854 0.37166 0.66952 0.0
H2899 H 0.27601 0.31583 0.66277 0.0
H2900 H 0.25393 0.31442 0.63668 0.0
H2901 H 0.25931 0.37232 0.66853 0.0
H2902 H 0.2674 0.39155 0.65224 0.0
H2903 H 0.28166 0.38834 0.67029 0.0
H2904 H 0.30061 0.39186 0.63634 0.0
H2905 H 0.28643 0.39513 0.6182 0.0
H2906 H 0.29121 0.3783 0.61133 0.0
H2907 H 0.23388 0.31879 0.61219 0.0
H2908 H 0.21744 0.32873 0.59003 0.0
H2909 H 0.25332 0.3819 0.61134 0.0
C2910 C 0.28898 0.35913 0.66254 0.0
C2911 C 0.28903 0.34384 0.66827 0.0
C2912 C 0.27629 0.32773 0.65868 0.0
C2913 C 0.26366 0.32678 0.64384 0.0
C2914 C 0.26394 0.34205 0.63862 0.0
C2915 C 0.27629 0.35794 0.64757 0.0
C2916 C 0.27365 0.37238 0.6391 0.0
C2917 C 0.2703 0.38169 0.65871 0.0
C2918 C 0.28888 0.38517 0.62543 0.0
C2919 C 0.25783 0.36208 0.62411 0.0
C2920 C 0.25247 0.34462 0.62412 0.0
C2921 C 0.23804 0.33245 0.61186 0.0
C2922 C 0.22885 0.33827 0.59917 0.0
C2923 C 0.23413 0.35614 0.59865 0.0
C2924 C 0.24884 0.36815 0.61141 0.0
H2925 H 0.6886 0.95776 0.62634 0.0
H2926 H 0.64141 0.95502 0.64578 0.0
H2927 H 0.62562 0.92393 0.63461 0.0
H2928 H 0.6727 0.93343 0.5776 0.0
H2929 H 0.68505 0.92275 0.57939 0.0
H2930 H 0.69298 0.94376 0.59266 0.0
H2931 H 0.69574 0.93195 0.6311 0.0
H2932 H 0.68806 0.9109 0.61786 0.0
H2933 H 0.67752 0.91327 0.64201 0.0
H2934 H 0.61464 0.89391 0.61653 0.0
H2935 H 0.60985 0.86763 0.59523 0.0
H2936 H 0.66432 0.89139 0.5863 0.0
C2937 C 0.67502 0.95058 0.62897 0.0
C2938 C 0.66629 0.95889 0.63704 0.0
C2939 C 0.64843 0.94895 0.63979 0.0
C2940 C 0.63934 0.93127 0.63343 0.0
C2941 C 0.64829 0.92372 0.62449 0.0
C2942 C 0.66578 0.93306 0.62255 0.0
C2943 C 0.67232 0.92254 0.61057 0.0
C2944 C 0.68128 0.93114 0.58877 0.0
C2945 C 0.6841 0.91948 0.62633 0.0
C2946 C 0.65575 0.90597 0.60552 0.0
C2947 C 0.64201 0.90673 0.61385 0.0
C2948 C 0.62535 0.89312 0.61019 0.0
C2949 C 0.62273 0.87831 0.59788 0.0
C2950 C 0.63671 0.87733 0.58924 0.0
C2951 C 0.65337 0.89145 0.59315 0.0
H2952 H 0.02197 0.69258 0.62318 0.0
H2953 H 0.04606 0.68519 0.68238 0.0
H2954 H 0.07335 0.69793 0.66295 0.0
H2955 H 0.04675 0.68366 0.58108 0.0
H2956 H 0.04775 0.69988 0.56257 0.0
H2957 H 0.02969 0.68847 0.58025 0.0
H2958 H 0.03479 0.71772 0.59714 0.0
H2959 H 0.05289 0.72921 0.57967 0.0
H2960 H 0.05532 0.73284 0.60981 0.0
H2961 H 0.09863 0.71482 0.63916 0.0
H2962 H 0.11984 0.73358 0.61222 0.0
H2963 H 0.07905 0.72812 0.5672 0.0
C2964 C 0.03291 0.69335 0.63192 0.0
C2965 C 0.03188 0.68791 0.65432 0.0
C2966 C 0.04651 0.68922 0.6652 0.0
C2967 C 0.06208 0.69642 0.65429 0.0
C2968 C 0.06274 0.702 0.63239 0.0
C2969 C 0.0485 0.70034 0.6212 0.0
C2970 C 0.05285 0.70818 0.59817 0.0
C2971 C 0.04372 0.69421 0.57941 0.0
C2972 C 0.04872 0.72286 0.5961 0.0
C2973 C 0.07188 0.7151 0.59854 0.0
C2974 C 0.07731 0.71129 0.61835 0.0
C2975 C 0.09449 0.71753 0.62332 0.0
C2976 C 0.10647 0.72812 0.60777 0.0
C2977 C 0.10124 0.73233 0.58734 0.0
C2978 C 0.08361 0.72534 0.58262 0.0
H2979 H 0.00599 0.62958 0.73539 0.0
H2980 H 0.95148 0.59552 0.72571 0.0
H2981 H 0.95393 0.57152 0.74158 0.0
H2982 H 0.01874 0.59573 0.72563 0.0
H2983 H 0.0351 0.60529 0.74754 0.0
H2984 H 0.02965 0.61878 0.73132 0.0
H2985 H 0.024 0.63076 0.76827 0.0
H2986 H 0.02918 0.61717 0.78457 0.0
H2987 H 0.00885 0.61589 0.7876 0.0
H2988 H 0.96136 0.55275 0.76337 0.0
H2989 H 0.97355 0.53993 0.78876 0.0
H2990 H 0.02318 0.58625 0.7854 0.0
C2991 C 0.99471 0.61689 0.7358 0.0
C2992 C 0.97858 0.61431 0.72914 0.0
C2993 C 0.96397 0.5977 0.73063 0.0
C2994 C 0.96524 0.58399 0.73956 0.0
C2995 C 0.98122 0.58712 0.74688 0.0
C2996 C 0.99574 0.6031 0.74494 0.0
C2997 C 0.011 0.60356 0.75644 0.0
C2998 C 0.02441 0.60598 0.7392 0.0
C2999 C 0.01869 0.61768 0.77534 0.0
C3000 C 0.00263 0.5856 0.76589 0.0
C3001 C 0.9855 0.57626 0.75989 0.0
C3002 C 0.97481 0.55981 0.7679 0.0
C3003 C 0.9818 0.55272 0.78248 0.0
C3004 C 0.99928 0.56212 0.78902 0.0
C3005 C 0.00984 0.57868 0.78037 0.0
H3006 H 0.39289 0.38042 0.7164 0.0
H3007 H 0.34859 0.38687 0.71443 0.0
H3008 H 0.36699 0.41794 0.72462 0.0
H3009 H 0.41149 0.4047 0.76362 0.0
H3010 H 0.43325 0.41434 0.75503 0.0
H3011 H 0.41744 0.39368 0.7431 0.0
H3012 H 0.42469 0.40544 0.70281 0.0
H3013 H 0.44082 0.42613 0.71459 0.0
H3014 H 0.4243 0.42482 0.69597 0.0
H3015 H 0.38931 0.44669 0.74216 0.0
H3016 H 0.41379 0.47102 0.76246 0.0
H3017 H 0.44373 0.44605 0.75127 0.0
C3018 C 0.38711 0.38847 0.71733 0.0
C3019 C 0.36929 0.38119 0.71459 0.0
C3020 C 0.36222 0.39216 0.71621 0.0
C3021 C 0.37258 0.40983 0.72208 0.0
C3022 C 0.39 0.41638 0.72584 0.0
C3023 C 0.39725 0.40608 0.72304 0.0
C3024 C 0.41596 0.41573 0.73001 0.0
C3025 C 0.41974 0.40656 0.74907 0.0
C3026 C 0.4271 0.41818 0.70962 0.0
C3027 C 0.41793 0.43279 0.73827 0.0
C3028 C 0.4029 0.43302 0.73552 0.0
C3029 C 0.40127 0.44682 0.74382 0.0
C3030 C 0.41531 0.46064 0.75531 0.0
C3031 C 0.43082 0.4606 0.75847 0.0
C3032 C 0.4321 0.44655 0.74936 0.0
H3033 H 0.63176 0.0041 0.69122 0.0
H3034 H 0.60441 0.98887 0.62652 0.0
H3035 H 0.57759 0.98077 0.64559 0.0
H3036 H 0.59886 0.96975 0.72265 0.0
H3037 H 0.60278 0.98318 0.74763 0.0
H3038 H 0.61989 0.98781 0.72892 0.0
H3039 H 0.62551 0.01908 0.72489 0.0
H3040 H 0.60845 0.01456 0.74362 0.0
H3041 H 0.60831 0.0224 0.71591 0.0
H3042 H 0.55391 0.97498 0.67149 0.0
H3043 H 0.53494 0.97195 0.70244 0.0
H3044 H 0.57746 0.98973 0.7505 0.0
C3045 C 0.62014 0.9991 0.68104 0.0
C3046 C 0.62019 0.99716 0.65735 0.0
C3047 C 0.60469 0.99047 0.64468 0.0
C3048 C 0.58939 0.98582 0.65535 0.0
C3049 C 0.58977 0.98783 0.67872 0.0
C3050 C 0.60473 0.99428 0.69143 0.0
C3051 C 0.60163 0.99514 0.7163 0.0
C3052 C 0.60605 0.98326 0.72966 0.0
C3053 C 0.61156 0.01391 0.72572 0.0
C3054 C 0.58262 0.98834 0.71554 0.0
C3055 C 0.57604 0.98418 0.69371 0.0
C3056 C 0.55888 0.97803 0.68869 0.0
C3057 C 0.54817 0.97622 0.70645 0.0
C3058 C 0.55462 0.98047 0.72901 0.0
C3059 C 0.5721 0.98648 0.73349 0.0
loop_
_geom_bond_atom_site_label_1
_geom_bond_atom_site_label_2
_geom_bond_distance
_geom_bond_site_symmetry_2
_ccdc_geom_bond_type
Mg0 O1 2.028 1_556 S
Mg0 O7 1.986 1_455 S
Mg0 O9 2.114 . S
Mg0 O10 2.251 1_455 S
Mg0 O13 2.010 1_556 S
O1 Mg0 2.028 1_554 S
O1 C4 1.250 1_455 S
O2 Mg3 2.028 1_554 S
O2 C4 1.248 . S
Mg3 O2 2.028 1_556 S
Mg3 O8 2.032 . S
Mg3 O10 2.079 . S
C4 O1 1.250 1_655 S
C4 O2 1.248 . S
C5 O6 1.264 . S
C5 O13 1.249 . S
O6 C5 1.264 . S
O7 Mg0 1.986 1_655 S
O7 C11 1.246 . S
O8 Mg3 2.032 . S
O8 C11 1.259 . S
O9 Mg0 2.114 . S
O9 C12 1.252 . S
O10 Mg0 2.251 1_655 S
O10 Mg3 2.079 . S
O10 C12 1.273 1_655 S
C11 O7 1.246 . S
C11 O8 1.259 . S
C12 O9 1.252 . S
C12 O10 1.273 1_455 S
O13 Mg0 2.010 1_554 S
O13 C5 1.249 . S
Mg14 O15 2.028 1_554 S
Mg14 O21 1.986 . S
Mg14 O23 2.114 . S
Mg14 O24 2.251 . S
Mg14 O27 2.010 . S
O15 Mg14 2.028 1_556 S
O15 C18 1.250 . S
O16 Mg17 2.042 . S
O16 C18 1.239 1_554 S
Mg17 O16 2.042 . S
Mg17 O22 2.032 . S
Mg17 O24 2.079 . S
C18 O15 1.250 . S
C18 O16 1.239 1_556 S
C19 O20 1.269 . S
C19 O27 1.254 . S
O20 C19 1.269 . S
O21 Mg14 1.986 . S
O21 C25 1.246 . S
O22 Mg17 2.032 . S
O22 C25 1.259 . S
O23 Mg14 2.114 . S
O23 C26 1.252 . S
O24 Mg14 2.251 . S
O24 Mg17 2.079 . S
O24 C26 1.273 . S
C25 O21 1.246 . S
C25 O22 1.259 . S
C26 O23 1.252 . S
C26 O24 1.273 . S
O27 Mg14 2.010 . S
O27 C19 1.254 . S
Mg28 O29 2.033 1_566 S
Mg28 O35 1.987 1_565 S
Mg28 O37 2.114 . S
Mg28 O38 2.251 1_565 S
Mg28 O41 2.010 1_556 S
O29 Mg28 2.033 1_544 S
O29 C32 1.258 . S
O30 Mg31 2.028 1_554 S
O30 C32 1.248 . S
Mg31 O30 2.028 1_556 S
Mg31 O36 2.032 . S
Mg31 O38 2.079 . S
C32 O29 1.258 . S
C32 O30 1.248 . S
C33 O34 1.264 . S
C33 O41 1.249 . S
O34 C33 1.264 . S
O35 Mg28 1.987 1_545 S
O35 C39 1.251 . S
O36 Mg31 2.032 . S
O36 C39 1.259 . S
O37 Mg28 2.114 . S
O37 C40 1.252 . S
O38 Mg28 2.251 1_545 S
O38 Mg31 2.079 . S
O38 C40 1.273 1_545 S
C39 O35 1.251 . S
C39 O36 1.259 . S
C40 O37 1.252 . S
C40 O38 1.273 1_565 S
O41 Mg28 2.010 1_554 S
O41 C33 1.249 . S
Mg42 O43 2.028 1_654 S
Mg42 O49 1.986 1_655 S
Mg42 O51 2.114 . S
Mg42 O52 2.251 1_655 S
Mg42 O55 2.010 . S
O43 Mg42 2.028 1_456 S
O43 C46 1.251 . S
O44 Mg45 2.028 1_556 S
O44 C46 1.248 . S
Mg45 O44 2.028 1_554 S
Mg45 O50 2.032 . S
Mg45 O52 2.079 . S
C46 O43 1.251 . S
C46 O44 1.248 . S
C47 O48 1.264 . S
C47 O55 1.249 . S
O48 C47 1.264 . S
O49 Mg42 1.986 1_455 S
O49 C53 1.246 . S
O50 Mg45 2.032 . S
O50 C53 1.259 . S
O51 Mg42 2.114 . S
O51 C54 1.252 . S
O52 Mg42 2.251 1_455 S
O52 Mg45 2.079 . S
O52 C54 1.273 1_455 S
C53 O49 1.246 . S
C53 O50 1.259 . S
C54 O51 1.252 . S
C54 O52 1.273 1_655 S
O55 Mg42 2.010 . S
O55 C47 1.249 . S
Mg56 O57 2.014 1_556 S
Mg56 O63 1.986 . S
Mg56 O65 2.119 . S
Mg56 O66 2.261 . S
Mg56 O69 2.003 1_556 S
O57 Mg56 2.014 1_554 S
O57 C60 1.250 . S
O58 Mg59 2.028 1_554 S
O58 C60 1.248 . S
Mg59 O58 2.028 1_556 S
Mg59 O64 2.032 . S
Mg59 O66 2.079 . S
C60 O57 1.250 . S
C60 O58 1.248 . S
C61 O62 1.264 . S
C61 O69 1.249 . S
O62 C61 1.264 . S
O63 Mg56 1.986 . S
O63 C67 1.246 . S
O64 Mg59 2.032 . S
O64 C67 1.259 . S
O65 Mg56 2.119 . S
O65 C68 1.252 . S
O66 Mg56 2.261 . S
O66 Mg59 2.079 . S
O66 C68 1.273 . S
C67 O63 1.246 . S
C67 O64 1.259 . S
C68 O65 1.252 . S
C68 O66 1.273 . S
O69 Mg56 2.003 1_554 S
O69 C61 1.249 . S
Mg70 O71 2.028 1_554 S
Mg70 O77 1.986 1_545 S
Mg70 O79 2.114 . S
Mg70 O80 2.251 1_545 S
Mg70 O83 2.010 . S
O71 Mg70 2.028 1_556 S
O71 C74 1.250 1_545 S
O72 Mg73 2.032 1_556 S
O72 C74 1.245 . S
Mg73 O72 2.032 1_554 S
Mg73 O78 2.032 . S
Mg73 O80 2.079 . S
C74 O71 1.250 1_565 S
C74 O72 1.245 . S
C75 O76 1.264 . S
C75 O83 1.249 . S
O76 C75 1.264 . S
O77 Mg70 1.986 1_565 S
O77 C81 1.246 . S
O78 Mg73 2.032 . S
O78 C81 1.259 . S
O79 Mg70 2.114 . S
O79 C82 1.252 . S
O80 Mg70 2.251 1_565 S
O80 Mg73 2.079 . S
O80 C82 1.273 1_565 S
C81 O77 1.246 . S
C81 O78 1.259 . S
C82 O79 1.252 . S
C82 O80 1.273 1_545 S
O83 Mg70 2.010 . S
O83 C75 1.249 . S
Mg84 O85 2.028 . S
Mg84 O91 1.986 . S
Mg84 O93 2.114 . S
Mg84 O94 2.251 . S
Mg84 O97 2.010 . S
O85 Mg84 2.028 . S
O85 C88 1.250 . S
O86 Mg87 2.028 . S
O86 C88 1.248 . S
Mg87 O86 2.028 . S
Mg87 O92 2.032 . S
Mg87 O94 2.079 . S
C88 O85 1.250 . S
C88 O86 1.248 . S
C89 O90 1.264 . S
C89 O97 1.249 . S
O90 C89 1.264 . S
O91 Mg84 1.986 . S
O91 C95 1.246 . S
O92 Mg87 2.032 . S
O92 C95 1.259 . S
O93 Mg84 2.114 . S
O93 C96 1.252 . S
O94 Mg84 2.251 . S
O94 Mg87 2.079 . S
O94 C96 1.273 . S
C95 O91 1.246 . S
C95 O92 1.259 . S
C96 O93 1.252 . S
C96 O94 1.273 . S
O97 Mg84 2.010 . S
O97 C89 1.249 . S
Mg98 O99 2.028 . S
Mg98 O105 1.986 1_565 S
Mg98 O107 2.114 . S
Mg98 O108 2.251 . S
Mg98 O111 2.010 . S
O99 Mg98 2.028 . S
O99 C102 1.250 . S
O100 Mg101 2.028 . S
O100 C102 1.248 . S
Mg101 O100 2.028 . S
Mg101 O106 2.032 1_565 S
Mg101 O108 2.079 . S
C102 O99 1.250 . S
C102 O100 1.248 . S
C103 O104 1.264 . S
C103 O111 1.249 . S
O104 C103 1.264 . S
O105 Mg98 1.986 1_545 S
O105 C109 1.246 . S
O106 Mg101 2.032 1_545 S
O106 C109 1.259 . S
O107 Mg98 2.114 . S
O107 C110 1.252 . S
O108 Mg98 2.251 . S
O108 Mg101 2.079 . S
O108 C110 1.273 . S
C109 O105 1.246 . S
C109 O106 1.259 . S
C110 O107 1.252 . S
C110 O108 1.273 . S
O111 Mg98 2.010 . S
O111 C103 1.249 . S
Mg112 O113 2.028 . S
Mg112 O119 1.986 . S
Mg112 O121 2.114 . S
Mg112 O122 2.251 . S
Mg112 O125 2.010 1_455 S
O113 Mg112 2.028 . S
O113 C116 1.250 . S
O114 Mg115 2.028 . S
O114 C116 1.248 . S
Mg115 O114 2.028 . S
Mg115 O120 2.032 . S
Mg115 O122 2.079 . S
C116 O113 1.250 . S
C116 O114 1.248 . S
C117 O118 1.264 . S
C117 O125 1.249 . S
O118 C117 1.264 . S
O119 Mg112 1.986 . S
O119 C123 1.246 . S
O120 Mg115 2.032 . S
O120 C123 1.259 . S
O121 Mg112 2.114 . S
O121 C124 1.252 . S
O122 Mg112 2.251 . S
O122 Mg115 2.079 . S
O122 C124 1.273 . S
C123 O119 1.246 . S
C123 O120 1.259 . S
C124 O121 1.252 . S
C124 O122 1.273 . S
O125 Mg112 2.010 1_655 S
O125 C117 1.249 . S
Mg126 O127 2.028 . S
Mg126 O133 1.986 1_565 S
Mg126 O135 2.114 . S
Mg126 O136 2.251 . S
Mg126 O139 2.010 . S
O127 Mg126 2.028 . S
O127 C130 1.250 . S
O128 Mg129 2.028 . S
O128 C130 1.248 . S
Mg129 O128 2.028 . S
Mg129 O134 2.032 1_565 S
Mg129 O136 2.079 . S
C130 O127 1.250 . S
C130 O128 1.248 . S
C131 O132 1.264 . S
C131 O139 1.249 . S
O132 C131 1.264 . S
O133 Mg126 1.986 1_545 S
O133 C137 1.246 . S
O134 Mg129 2.032 1_545 S
O134 C137 1.259 . S
O135 Mg126 2.114 . S
O135 C138 1.252 . S
O136 Mg126 2.251 . S
O136 Mg129 2.079 . S
O136 C138 1.273 . S
C137 O133 1.246 . S
C137 O134 1.259 . S
C138 O135 1.252 . S
C138 O136 1.273 . S
O139 Mg126 2.010 . S
O139 C131 1.249 . S
Mg140 O141 2.028 . S
Mg140 O147 1.986 . S
Mg140 O149 2.114 . S
Mg140 O150 2.251 . S
Mg140 O153 2.010 1_455 S
O141 Mg140 2.028 . S
O141 C144 1.250 . S
O142 Mg143 2.028 . S
O142 C144 1.248 . S
Mg143 O142 2.028 . S
Mg143 O148 2.032 . S
Mg143 O150 2.079 . S
C144 O141 1.250 . S
C144 O142 1.248 . S
C145 O146 1.264 . S
C145 O153 1.249 . S
O146 C145 1.264 . S
O147 Mg140 1.986 . S
O147 C151 1.246 . S
O148 Mg143 2.032 . S
O148 C151 1.259 . S
O149 Mg140 2.114 . S
O149 C152 1.252 . S
O150 Mg140 2.251 . S
O150 Mg143 2.079 . S
O150 C152 1.273 . S
C151 O147 1.246 . S
C151 O148 1.259 . S
C152 O149 1.252 . S
C152 O150 1.273 . S
O153 Mg140 2.010 1_655 S
O153 C145 1.249 . S
Mg154 O155 2.028 . S
Mg154 O161 1.986 . S
Mg154 O163 2.114 . S
Mg154 O164 2.251 . S
Mg154 O167 2.010 . S
O155 Mg154 2.028 . S
O155 C158 1.250 . S
O156 Mg157 2.028 . S
O156 C158 1.248 . S
Mg157 O156 2.028 . S
Mg157 O162 2.032 . S
Mg157 O164 2.079 . S
C158 O155 1.250 . S
C158 O156 1.248 . S
C159 O160 1.264 . S
C159 O167 1.249 . S
O160 C159 1.264 . S
O161 Mg154 1.986 . S
O161 C165 1.246 . S
O162 Mg157 2.032 . S
O162 C165 1.259 . S
O163 Mg154 2.114 . S
O163 C166 1.252 . S
O164 Mg154 2.251 . S
O164 Mg157 2.079 . S
O164 C166 1.273 . S
C165 O161 1.246 . S
C165 O162 1.259 . S
C166 O163 1.252 . S
C166 O164 1.273 . S
O167 Mg154 2.010 . S
O167 C159 1.249 . S
Mg168 O169 2.028 . S
Mg168 O175 1.986 1_545 S
Mg168 O177 2.114 . S
Mg168 O178 2.251 . S
Mg168 O181 2.010 . S
O169 Mg168 2.028 . S
O169 C172 1.250 . S
O170 Mg171 2.028 . S
O170 C172 1.248 . S
Mg171 O170 2.028 . S
Mg171 O176 2.032 1_545 S
Mg171 O178 2.079 . S
C172 O169 1.250 . S
C172 O170 1.248 . S
C173 O174 1.264 . S
C173 O181 1.249 . S
O174 C173 1.264 . S
O175 Mg168 1.986 1_565 S
O175 C179 1.246 . S
O176 Mg171 2.032 1_565 S
O176 C179 1.259 . S
O177 Mg168 2.114 . S
O177 C180 1.252 . S
O178 Mg168 2.251 . S
O178 Mg171 2.079 . S
O178 C180 1.273 . S
C179 O175 1.246 . S
C179 O176 1.259 . S
C180 O177 1.252 . S
C180 O178 1.273 . S
O181 Mg168 2.010 . S
O181 C173 1.249 . S
Mg182 O183 2.028 . S
Mg182 O189 1.986 . S
Mg182 O191 2.114 . S
Mg182 O192 2.251 . S
Mg182 O195 2.010 1_655 S
O183 Mg182 2.028 . S
O183 C186 1.250 . S
O184 Mg185 2.028 . S
O184 C186 1.248 . S
Mg185 O184 2.028 . S
Mg185 O190 2.032 . S
Mg185 O192 2.079 . S
C186 O183 1.250 . S
C186 O184 1.248 . S
C187 O188 1.264 . S
C187 O195 1.249 . S
O188 C187 1.264 . S
O189 Mg182 1.986 . S
O189 C193 1.246 . S
O190 Mg185 2.032 . S
O190 C193 1.259 . S
O191 Mg182 2.114 . S
O191 C194 1.252 . S
O192 Mg182 2.251 . S
O192 Mg185 2.079 . S
O192 C194 1.273 . S
C193 O189 1.246 . S
C193 O190 1.259 . S
C194 O191 1.252 . S
C194 O192 1.273 . S
O195 Mg182 2.010 1_455 S
O195 C187 1.249 . S
Mg196 O197 2.028 . S
Mg196 O203 1.986 . S
Mg196 O205 2.114 . S
Mg196 O206 2.251 . S
Mg196 O209 2.010 . S
O197 Mg196 2.028 . S
O197 C200 1.250 . S
O198 Mg199 2.028 . S
O198 C200 1.248 . S
Mg199 O198 2.028 . S
Mg199 O204 2.032 . S
Mg199 O206 2.079 . S
C200 O197 1.250 . S
C200 O198 1.248 . S
C201 O202 1.264 . S
C201 O209 1.249 . S
O202 C201 1.264 . S
O203 Mg196 1.986 . S
O203 C207 1.246 . S
O204 Mg199 2.032 . S
O204 C207 1.259 . S
O205 Mg196 2.114 . S
O205 C208 1.252 . S
O206 Mg196 2.251 . S
O206 Mg199 2.079 . S
O206 C208 1.273 . S
C207 O203 1.246 . S
C207 O204 1.259 . S
C208 O205 1.252 . S
C208 O206 1.273 . S
O209 Mg196 2.010 . S
O209 C201 1.249 . S
Mg210 O211 2.028 . S
Mg210 O217 1.986 . S
Mg210 O219 2.114 . S
Mg210 O220 2.251 . S
Mg210 O223 2.010 . S
O211 Mg210 2.028 . S
O211 C214 1.250 . S
O212 Mg213 2.028 . S
O212 C214 1.248 . S
Mg213 O212 2.028 . S
Mg213 O218 2.032 . S
Mg213 O220 2.079 . S
C214 O211 1.250 . S
C214 O212 1.248 . S
C215 O216 1.264 . S
C215 O223 1.249 . S
O216 C215 1.264 . S
O217 Mg210 1.986 . S
O217 C221 1.246 . S
O218 Mg213 2.032 . S
O218 C221 1.259 . S
O219 Mg210 2.114 . S
O219 C222 1.252 . S
O220 Mg210 2.251 . S
O220 Mg213 2.079 . S
O220 C222 1.273 . S
C221 O217 1.246 . S
C221 O218 1.259 . S
C222 O219 1.252 . S
C222 O220 1.273 . S
O223 Mg210 2.010 . S
O223 C215 1.249 . S
Mg224 O225 2.028 . S
Mg224 O231 1.986 1_545 S
Mg224 O233 2.114 . S
Mg224 O234 2.251 . S
Mg224 O237 2.010 . S
O225 Mg224 2.028 . S
O225 C228 1.250 . S
O226 Mg227 2.028 . S
O226 C228 1.248 . S
Mg227 O226 2.028 . S
Mg227 O232 2.032 1_545 S
Mg227 O234 2.079 . S
C228 O225 1.250 . S
C228 O226 1.248 . S
C229 O230 1.264 . S
C229 O237 1.249 . S
O230 C229 1.264 . S
O231 Mg224 1.986 1_565 S
O231 C235 1.246 . S
O232 Mg227 2.032 1_565 S
O232 C235 1.259 . S
O233 Mg224 2.114 . S
O233 C236 1.252 . S
O234 Mg224 2.251 . S
O234 Mg227 2.079 . S
O234 C236 1.273 . S
C235 O231 1.246 . S
C235 O232 1.259 . S
C236 O233 1.252 . S
C236 O234 1.273 . S
O237 Mg224 2.010 . S
O237 C229 1.249 . S
Mg238 O239 2.028 . S
Mg238 O245 1.986 . S
Mg238 O247 2.114 . S
Mg238 O248 2.251 . S
Mg238 O251 2.010 1_655 S
O239 Mg238 2.028 . S
O239 C242 1.250 . S
O240 Mg241 2.028 . S
O240 C242 1.248 . S
Mg241 O240 2.028 . S
Mg241 O246 2.032 . S
Mg241 O248 2.079 . S
C242 O239 1.250 . S
C242 O240 1.248 . S
C243 O244 1.264 . S
C243 O251 1.249 . S
O244 C243 1.264 . S
O245 Mg238 1.986 . S
O245 C249 1.246 . S
O246 Mg241 2.032 . S
O246 C249 1.259 . S
O247 Mg238 2.114 . S
O247 C250 1.252 . S
O248 Mg238 2.251 . S
O248 Mg241 2.079 . S
O248 C250 1.273 . S
C249 O245 1.246 . S
C249 O246 1.259 . S
C250 O247 1.252 . S
C250 O248 1.273 . S
O251 Mg238 2.010 1_455 S
O251 C243 1.249 . S
H252 C271 0.949 . S
H253 C272 0.950 . S
H254 C274 0.950 . S
H255 C275 0.950 . S
H256 C277 0.950 . S
H257 C280 0.950 . S
H258 C281 0.950 . S
H259 C283 0.951 . S
H260 C284 0.949 . S
H261 C286 0.949 . S
H262 C287 0.950 . S
H263 C289 0.950 . S
H264 C290 0.950 . S
H265 C292 0.950 . S
H266 C295 0.950 . S
H267 C296 0.950 . S
H268 C298 0.951 . S
H269 C299 0.949 . S
C270 C271 1.376 . S
C270 C275 1.386 . S
C270 C276 1.483 . S
C271 H252 0.949 . S
C271 C270 1.376 . S
C271 C272 1.397 . S
C272 H253 0.950 . S
C272 C271 1.397 . S
C272 C273 1.391 . S
C273 C272 1.391 . S
C273 C274 1.405 . S
C274 H254 0.950 . S
C274 C273 1.405 . S
C274 C275 1.367 . S
C275 H255 0.950 . S
C275 C270 1.386 . S
C275 C274 1.367 . S
C276 C270 1.483 . S
C276 C277 1.382 . S
C276 C278 1.403 . S
C277 H256 0.950 . S
C277 C276 1.382 . S
C277 C293 1.411 . S
C278 C276 1.403 . S
C278 C279 1.489 . S
C278 C292 1.411 . S
C279 C278 1.489 . S
C279 C280 1.383 . S
C279 C284 1.382 . S
C280 H257 0.950 . S
C280 C279 1.383 . S
C280 C281 1.395 . S
C281 H258 0.950 . S
C281 C280 1.395 . S
C281 C282 1.288 . S
C282 C281 1.288 . S
C282 C283 1.392 . S
C283 H259 0.951 . S
C283 C282 1.392 . S
C283 C284 1.392 . S
C284 H260 0.949 . S
C284 C279 1.382 . S
C284 C283 1.392 . S
C285 C286 1.376 . S
C285 C290 1.386 . S
C285 C291 1.483 . S
C286 H261 0.949 . S
C286 C285 1.376 . S
C286 C287 1.397 . S
C287 H262 0.950 . S
C287 C286 1.397 . S
C287 C288 1.391 . S
C288 C287 1.391 . S
C288 C289 1.405 . S
C289 H263 0.950 . S
C289 C288 1.405 . S
C289 C290 1.367 . S
C290 H264 0.950 . S
C290 C285 1.386 . S
C290 C289 1.367 . S
C291 C285 1.483 . S
C291 C292 1.382 . S
C291 C293 1.403 . S
C292 H265 0.950 . S
C292 C278 1.411 . S
C292 C291 1.382 . S
C293 C277 1.411 . S
C293 C291 1.403 . S
C293 C294 1.489 . S
C294 C293 1.489 . S
C294 C295 1.383 . S
C294 C299 1.382 . S
C295 H266 0.950 . S
C295 C294 1.383 . S
C295 C296 1.395 . S
C296 H267 0.950 . S
C296 C295 1.395 . S
C296 C297 1.288 . S
C297 C296 1.288 . S
C297 C298 1.392 . S
C298 H268 0.951 . S
C298 C297 1.392 . S
C298 C299 1.392 . S
C299 H269 0.949 . S
C299 C294 1.382 . S
C299 C298 1.392 . S
H300 C319 0.949 . S
H301 C320 0.950 . S
H302 C322 0.950 . S
H303 C323 0.950 . S
H304 C325 0.950 . S
H305 C328 0.950 . S
H306 C329 0.950 . S
H307 C331 0.951 . S
H308 C332 0.949 . S
H309 C334 0.949 . S
H310 C335 0.950 . S
H311 C337 0.950 . S
H312 C338 0.950 . S
H313 C340 0.950 . S
H314 C343 0.950 . S
H315 C344 0.950 . S
H316 C346 0.951 . S
H317 C347 0.949 . S
C318 C319 1.376 . S
C318 C323 1.386 . S
C318 C324 1.483 . S
C319 H300 0.949 . S
C319 C318 1.376 . S
C319 C320 1.397 . S
C320 H301 0.950 . S
C320 C319 1.397 . S
C320 C321 1.391 . S
C321 C320 1.391 . S
C321 C322 1.405 . S
C322 H302 0.950 . S
C322 C321 1.405 . S
C322 C323 1.367 . S
C323 H303 0.950 . S
C323 C318 1.386 . S
C323 C322 1.367 . S
C324 C318 1.483 . S
C324 C325 1.382 . S
C324 C326 1.403 . S
C325 H304 0.950 . S
C325 C324 1.382 . S
C325 C341 1.411 . S
C326 C324 1.403 . S
C326 C327 1.489 . S
C326 C340 1.411 . S
C327 C326 1.489 . S
C327 C328 1.383 . S
C327 C332 1.382 . S
C328 H305 0.950 . S
C328 C327 1.383 . S
C328 C329 1.395 . S
C329 H306 0.950 . S
C329 C328 1.395 . S
C329 C330 1.288 . S
C330 C329 1.288 . S
C330 C331 1.392 . S
C331 H307 0.951 . S
C331 C330 1.392 . S
C331 C332 1.392 . S
C332 H308 0.949 . S
C332 C327 1.382 . S
C332 C331 1.392 . S
C333 C334 1.376 . S
C333 C338 1.386 . S
C333 C339 1.483 . S
C334 H309 0.949 . S
C334 C333 1.376 . S
C334 C335 1.397 . S
C335 H310 0.950 . S
C335 C334 1.397 . S
C335 C336 1.391 . S
C336 C335 1.391 . S
C336 C337 1.405 . S
C337 H311 0.950 . S
C337 C336 1.405 . S
C337 C338 1.367 . S
C338 H312 0.950 . S
C338 C333 1.386 . S
C338 C337 1.367 . S
C339 C333 1.483 . S
C339 C340 1.382 . S
C339 C341 1.403 . S
C340 H313 0.950 . S
C340 C326 1.411 . S
C340 C339 1.382 . S
C341 C325 1.411 . S
C341 C339 1.403 . S
C341 C342 1.489 . S
C342 C341 1.489 . S
C342 C343 1.383 . S
C342 C347 1.382 . S
C343 H314 0.950 . S
C343 C342 1.383 . S
C343 C344 1.395 . S
C344 H315 0.950 . S
C344 C343 1.395 . S
C344 C345 1.288 . S
C345 C344 1.288 . S
C345 C346 1.392 . S
C346 H316 0.951 . S
C346 C345 1.392 . S
C346 C347 1.392 . S
C347 H317 0.949 . S
C347 C342 1.382 . S
C347 C346 1.392 . S
H348 C367 0.949 . S
H349 C368 0.950 . S
H350 C370 0.950 . S
H351 C371 0.950 . S
H352 C373 0.950 . S
H353 C376 0.950 . S
H354 C377 0.950 . S
H355 C379 0.951 . S
H356 C380 0.949 . S
H357 C382 0.949 . S
H358 C383 0.950 . S
H359 C385 0.950 . S
H360 C386 0.950 . S
H361 C388 0.950 . S
H362 C391 0.950 . S
H363 C392 0.950 . S
H364 C394 0.951 . S
H365 C395 0.949 . S
C366 C367 1.376 . S
C366 C371 1.386 . S
C366 C372 1.483 . S
C367 H348 0.949 . S
C367 C366 1.376 . S
C367 C368 1.397 . S
C368 H349 0.950 . S
C368 C367 1.397 . S
C368 C369 1.391 . S
C369 C368 1.391 . S
C369 C370 1.405 . S
C370 H350 0.950 . S
C370 C369 1.405 . S
C370 C371 1.367 . S
C371 H351 0.950 . S
C371 C366 1.386 . S
C371 C370 1.367 . S
C372 C366 1.483 . S
C372 C373 1.382 . S
C372 C374 1.403 . S
C373 H352 0.950 . S
C373 C372 1.382 . S
C373 C389 1.411 . S
C374 C372 1.403 . S
C374 C375 1.489 . S
C374 C388 1.411 . S
C375 C374 1.489 . S
C375 C376 1.383 . S
C375 C380 1.382 . S
C376 H353 0.950 . S
C376 C375 1.383 . S
C376 C377 1.395 . S
C377 H354 0.950 . S
C377 C376 1.395 . S
C377 C378 1.288 . S
C378 C377 1.288 . S
C378 C379 1.392 . S
C379 H355 0.951 . S
C379 C378 1.392 . S
C379 C380 1.392 . S
C380 H356 0.949 . S
C380 C375 1.382 . S
C380 C379 1.392 . S
C381 C382 1.376 . S
C381 C386 1.386 . S
C381 C387 1.483 . S
C382 H357 0.949 . S
C382 C381 1.376 . S
C382 C383 1.397 . S
C383 H358 0.950 . S
C383 C382 1.397 . S
C383 C384 1.391 . S
C384 C383 1.391 . S
C384 C385 1.405 . S
C385 H359 0.950 . S
C385 C384 1.405 . S
C385 C386 1.367 . S
C386 H360 0.950 . S
C386 C381 1.386 . S
C386 C385 1.367 . S
C387 C381 1.483 . S
C387 C388 1.382 . S
C387 C389 1.403 . S
C388 H361 0.950 . S
C388 C374 1.411 . S
C388 C387 1.382 . S
C389 C373 1.411 . S
C389 C387 1.403 . S
C389 C390 1.489 . S
C390 C389 1.489 . S
C390 C391 1.383 . S
C390 C395 1.382 . S
C391 H362 0.950 . S
C391 C390 1.383 . S
C391 C392 1.395 . S
C392 H363 0.950 . S
C392 C391 1.395 . S
C392 C393 1.288 . S
C393 C392 1.288 . S
C393 C394 1.392 . S
C394 H364 0.951 . S
C394 C393 1.392 . S
C394 C395 1.392 . S
C395 H365 0.949 . S
C395 C390 1.382 . S
C395 C394 1.392 . S
H396 C415 0.949 . S
H397 C416 0.950 . S
H398 C418 0.950 . S
H399 C419 0.950 . S
H400 C421 0.950 . S
H401 C424 0.950 . S
H402 C425 0.950 . S
H403 C427 0.951 . S
H404 C428 0.949 . S
H405 C430 0.949 . S
H406 C431 0.950 . S
H407 C433 0.950 . S
H408 C434 0.950 . S
H409 C436 0.950 . S
H410 C439 0.950 . S
H411 C440 0.950 . S
H412 C442 0.951 . S
H413 C443 0.949 . S
C414 C415 1.376 . S
C414 C419 1.386 . S
C414 C420 1.483 . S
C415 H396 0.949 . S
C415 C414 1.376 . S
C415 C416 1.397 . S
C416 H397 0.950 . S
C416 C415 1.397 . S
C416 C417 1.391 . S
C417 C416 1.391 . S
C417 C418 1.405 . S
C418 H398 0.950 . S
C418 C417 1.405 . S
C418 C419 1.367 . S
C419 H399 0.950 . S
C419 C414 1.386 . S
C419 C418 1.367 . S
C420 C414 1.483 . S
C420 C421 1.382 . S
C420 C422 1.403 . S
C421 H400 0.950 . S
C421 C420 1.382 . S
C421 C437 1.411 . S
C422 C420 1.403 . S
C422 C423 1.489 . S
C422 C436 1.411 . S
C423 C422 1.489 . S
C423 C424 1.383 . S
C423 C428 1.382 . S
C424 H401 0.950 . S
C424 C423 1.383 . S
C424 C425 1.395 . S
C425 H402 0.950 . S
C425 C424 1.395 . S
C425 C426 1.288 . S
C426 C425 1.288 . S
C426 C427 1.392 . S
C427 H403 0.951 . S
C427 C426 1.392 . S
C427 C428 1.392 . S
C428 H404 0.949 . S
C428 C423 1.382 . S
C428 C427 1.392 . S
C429 C430 1.376 . S
C429 C434 1.386 . S
C429 C435 1.483 . S
C430 H405 0.949 . S
C430 C429 1.376 . S
C430 C431 1.397 . S
C431 H406 0.950 . S
C431 C430 1.397 . S
C431 C432 1.391 . S
C432 C431 1.391 . S
C432 C433 1.405 . S
C433 H407 0.950 . S
C433 C432 1.405 . S
C433 C434 1.367 . S
C434 H408 0.950 . S
C434 C429 1.386 . S
C434 C433 1.367 . S
C435 C429 1.483 . S
C435 C436 1.382 . S
C435 C437 1.403 . S
C436 H409 0.950 . S
C436 C422 1.411 . S
C436 C435 1.382 . S
C437 C421 1.411 . S
C437 C435 1.403 . S
C437 C438 1.489 . S
C438 C437 1.489 . S
C438 C439 1.383 . S
C438 C443 1.382 . S
C439 H410 0.950 . S
C439 C438 1.383 . S
C439 C440 1.395 . S
C440 H411 0.950 . S
C440 C439 1.395 . S
C440 C441 1.288 . S
C441 C440 1.288 . S
C441 C442 1.392 . S
C442 H412 0.951 . S
C442 C441 1.392 . S
C442 C443 1.392 . S
C443 H413 0.949 . S
C443 C438 1.382 . S
C443 C442 1.392 . S
H444 C463 0.949 . S
H445 C464 0.950 . S
H446 C466 0.950 . S
H447 C467 0.950 . S
H448 C469 0.950 . S
H449 C472 0.950 . S
H450 C473 0.950 . S
H451 C475 0.951 . S
H452 C476 0.949 . S
H453 C478 0.949 . S
H454 C479 0.950 . S
H455 C481 0.950 . S
H456 C482 0.950 . S
H457 C484 0.950 . S
H458 C487 0.950 . S
H459 C488 0.950 . S
H460 C490 0.951 . S
H461 C491 0.949 . S
C462 C463 1.376 . S
C462 C467 1.386 . S
C462 C468 1.483 . S
C463 H444 0.949 . S
C463 C462 1.376 . S
C463 C464 1.397 . S
C464 H445 0.950 . S
C464 C463 1.397 . S
C464 C465 1.391 . S
C465 C464 1.391 . S
C465 C466 1.405 . S
C466 H446 0.950 . S
C466 C465 1.405 . S
C466 C467 1.367 . S
C467 H447 0.950 . S
C467 C462 1.386 . S
C467 C466 1.367 . S
C468 C462 1.483 . S
C468 C469 1.382 . S
C468 C470 1.403 . S
C469 H448 0.950 . S
C469 C468 1.382 . S
C469 C485 1.411 . S
C470 C468 1.403 . S
C470 C471 1.489 . S
C470 C484 1.411 . S
C471 C470 1.489 . S
C471 C472 1.383 . S
C471 C476 1.382 . S
C472 H449 0.950 . S
C472 C471 1.383 . S
C472 C473 1.395 . S
C473 H450 0.950 . S
C473 C472 1.395 . S
C473 C474 1.288 . S
C474 C473 1.288 . S
C474 C475 1.392 . S
C475 H451 0.951 . S
C475 C474 1.392 . S
C475 C476 1.392 . S
C476 H452 0.949 . S
C476 C471 1.382 . S
C476 C475 1.392 . S
C477 C478 1.376 . S
C477 C482 1.386 . S
C477 C483 1.483 . S
C478 H453 0.949 . S
C478 C477 1.376 . S
C478 C479 1.397 . S
C479 H454 0.950 . S
C479 C478 1.397 . S
C479 C480 1.391 . S
C480 C479 1.391 . S
C480 C481 1.405 . S
C481 H455 0.950 . S
C481 C480 1.405 . S
C481 C482 1.367 . S
C482 H456 0.950 . S
C482 C477 1.386 . S
C482 C481 1.367 . S
C483 C477 1.483 . S
C483 C484 1.382 . S
C483 C485 1.403 . S
C484 H457 0.950 . S
C484 C470 1.411 . S
C484 C483 1.382 . S
C485 C469 1.411 . S
C485 C483 1.403 . S
C485 C486 1.489 . S
C486 C485 1.489 . S
C486 C487 1.383 . S
C486 C491 1.382 . S
C487 H458 0.950 . S
C487 C486 1.383 . S
C487 C488 1.395 . S
C488 H459 0.950 . S
C488 C487 1.395 . S
C488 C489 1.288 . S
C489 C488 1.288 . S
C489 C490 1.392 . S
C490 H460 0.951 . S
C490 C489 1.392 . S
C490 C491 1.392 . S
C491 H461 0.949 . S
C491 C486 1.382 . S
C491 C490 1.392 . S
H492 C511 0.949 . S
H493 C512 0.950 . S
H494 C514 0.950 . S
H495 C515 0.950 . S
H496 C517 0.950 . S
H497 C520 0.950 . S
H498 C521 0.950 . S
H499 C523 0.951 . S
H500 C524 0.949 . S
H501 C526 0.949 . S
H502 C527 0.950 . S
H503 C529 0.950 . S
H504 C530 0.950 . S
H505 C532 0.950 . S
H506 C535 0.950 . S
H507 C536 0.950 . S
H508 C538 0.951 . S
H509 C539 0.949 . S
C510 C511 1.376 . S
C510 C515 1.386 . S
C510 C516 1.483 . S
C511 H492 0.949 . S
C511 C510 1.376 . S
C511 C512 1.397 . S
C512 H493 0.950 . S
C512 C511 1.397 . S
C512 C513 1.391 . S
C513 C512 1.391 . S
C513 C514 1.405 . S
C514 H494 0.950 . S
C514 C513 1.405 . S
C514 C515 1.367 . S
C515 H495 0.950 . S
C515 C510 1.386 . S
C515 C514 1.367 . S
C516 C510 1.483 . S
C516 C517 1.382 . S
C516 C518 1.403 . S
C517 H496 0.950 . S
C517 C516 1.382 . S
C517 C533 1.411 . S
C518 C516 1.403 . S
C518 C519 1.489 . S
C518 C532 1.411 . S
C519 C518 1.489 . S
C519 C520 1.383 . S
C519 C524 1.382 . S
C520 H497 0.950 . S
C520 C519 1.383 . S
C520 C521 1.395 . S
C521 H498 0.950 . S
C521 C520 1.395 . S
C521 C522 1.288 . S
C522 C521 1.288 . S
C522 C523 1.392 . S
C523 H499 0.951 . S
C523 C522 1.392 . S
C523 C524 1.392 . S
C524 H500 0.949 . S
C524 C519 1.382 . S
C524 C523 1.392 . S
C525 C526 1.376 . S
C525 C530 1.386 . S
C525 C531 1.483 . S
C526 H501 0.949 . S
C526 C525 1.376 . S
C526 C527 1.397 . S
C527 H502 0.950 . S
C527 C526 1.397 . S
C527 C528 1.391 . S
C528 C527 1.391 . S
C528 C529 1.405 . S
C529 H503 0.950 . S
C529 C528 1.405 . S
C529 C530 1.367 . S
C530 H504 0.950 . S
C530 C525 1.386 . S
C530 C529 1.367 . S
C531 C525 1.483 . S
C531 C532 1.382 . S
C531 C533 1.403 . S
C532 H505 0.950 . S
C532 C518 1.411 . S
C532 C531 1.382 . S
C533 C517 1.411 . S
C533 C531 1.403 . S
C533 C534 1.489 . S
C534 C533 1.489 . S
C534 C535 1.383 . S
C534 C539 1.382 . S
C535 H506 0.950 . S
C535 C534 1.383 . S
C535 C536 1.395 . S
C536 H507 0.950 . S
C536 C535 1.395 . S
C536 C537 1.288 . S
C537 C536 1.288 . S
C537 C538 1.392 . S
C538 H508 0.951 . S
C538 C537 1.392 . S
C538 C539 1.392 . S
C539 H509 0.949 . S
C539 C534 1.382 . S
C539 C538 1.392 . S
H540 C559 0.949 . S
H541 C560 0.950 . S
H542 C562 0.950 . S
H543 C563 0.950 . S
H544 C565 0.950 . S
H545 C568 0.950 . S
H546 C569 0.950 . S
H547 C571 0.951 . S
H548 C572 0.949 . S
H549 C574 0.949 . S
H550 C575 0.950 . S
H551 C577 0.950 . S
H552 C578 0.950 . S
H553 C580 0.950 . S
H554 C583 0.950 . S
H555 C584 0.950 . S
H556 C586 0.951 . S
H557 C587 0.949 . S
C558 C559 1.376 . S
C558 C563 1.386 . S
C558 C564 1.483 . S
C559 H540 0.949 . S
C559 C558 1.376 . S
C559 C560 1.397 . S
C560 H541 0.950 . S
C560 C559 1.397 . S
C560 C561 1.391 . S
C561 C560 1.391 . S
C561 C562 1.405 . S
C562 H542 0.950 . S
C562 C561 1.405 . S
C562 C563 1.367 . S
C563 H543 0.950 . S
C563 C558 1.386 . S
C563 C562 1.367 . S
C564 C558 1.483 . S
C564 C565 1.382 . S
C564 C566 1.403 . S
C565 H544 0.950 . S
C565 C564 1.382 . S
C565 C581 1.411 . S
C566 C564 1.403 . S
C566 C567 1.489 . S
C566 C580 1.411 . S
C567 C566 1.489 . S
C567 C568 1.383 . S
C567 C572 1.382 . S
C568 H545 0.950 . S
C568 C567 1.383 . S
C568 C569 1.395 . S
C569 H546 0.950 . S
C569 C568 1.395 . S
C569 C570 1.288 . S
C570 C569 1.288 . S
C570 C571 1.392 . S
C571 H547 0.951 . S
C571 C570 1.392 . S
C571 C572 1.392 . S
C572 H548 0.949 . S
C572 C567 1.382 . S
C572 C571 1.392 . S
C573 C574 1.376 . S
C573 C578 1.386 . S
C573 C579 1.483 . S
C574 H549 0.949 . S
C574 C573 1.376 . S
C574 C575 1.397 . S
C575 H550 0.950 . S
C575 C574 1.397 . S
C575 C576 1.391 . S
C576 C575 1.391 . S
C576 C577 1.405 . S
C577 H551 0.950 . S
C577 C576 1.405 . S
C577 C578 1.367 . S
C578 H552 0.950 . S
C578 C573 1.386 . S
C578 C577 1.367 . S
C579 C573 1.483 . S
C579 C580 1.382 . S
C579 C581 1.403 . S
C580 H553 0.950 . S
C580 C566 1.411 . S
C580 C579 1.382 . S
C581 C565 1.411 . S
C581 C579 1.403 . S
C581 C582 1.489 . S
C582 C581 1.489 . S
C582 C583 1.383 . S
C582 C587 1.382 . S
C583 H554 0.950 . S
C583 C582 1.383 . S
C583 C584 1.395 . S
C584 H555 0.950 . S
C584 C583 1.395 . S
C584 C585 1.288 . S
C585 C584 1.288 . S
C585 C586 1.392 . S
C586 H556 0.951 . S
C586 C585 1.392 . S
C586 C587 1.392 . S
C587 H557 0.949 . S
C587 C582 1.382 . S
C587 C586 1.392 . S
H588 C607 0.949 . S
H589 C608 0.950 . S
H590 C610 0.950 . S
H591 C611 0.950 . S
H592 C613 0.950 . S
H593 C616 0.950 . S
H594 C617 0.950 . S
H595 C619 0.951 . S
H596 C620 0.949 . S
H597 C622 0.949 . S
H598 C623 0.950 . S
H599 C625 0.950 . S
H600 C626 0.950 . S
H601 C628 0.950 . S
H602 C631 0.950 . S
H603 C632 0.950 . S
H604 C634 0.951 . S
H605 C635 0.949 . S
C606 C607 1.376 . S
C606 C611 1.386 . S
C606 C612 1.483 . S
C607 H588 0.949 . S
C607 C606 1.376 . S
C607 C608 1.397 . S
C608 H589 0.950 . S
C608 C607 1.397 . S
C608 C609 1.391 . S
C609 C608 1.391 . S
C609 C610 1.405 . S
C610 H590 0.950 . S
C610 C609 1.405 . S
C610 C611 1.367 . S
C611 H591 0.950 . S
C611 C606 1.386 . S
C611 C610 1.367 . S
C612 C606 1.483 . S
C612 C613 1.382 . S
C612 C614 1.403 . S
C613 H592 0.950 . S
C613 C612 1.382 . S
C613 C629 1.411 . S
C614 C612 1.403 . S
C614 C615 1.489 . S
C614 C628 1.411 . S
C615 C614 1.489 . S
C615 C616 1.383 . S
C615 C620 1.382 . S
C616 H593 0.950 . S
C616 C615 1.383 . S
C616 C617 1.395 . S
C617 H594 0.950 . S
C617 C616 1.395 . S
C617 C618 1.288 . S
C618 C617 1.288 . S
C618 C619 1.392 . S
C619 H595 0.951 . S
C619 C618 1.392 . S
C619 C620 1.392 . S
C620 H596 0.949 . S
C620 C615 1.382 . S
C620 C619 1.392 . S
C621 C622 1.376 . S
C621 C626 1.386 . S
C621 C627 1.483 . S
C622 H597 0.949 . S
C622 C621 1.376 . S
C622 C623 1.397 . S
C623 H598 0.950 . S
C623 C622 1.397 . S
C623 C624 1.391 . S
C624 C623 1.391 . S
C624 C625 1.405 . S
C625 H599 0.950 . S
C625 C624 1.405 . S
C625 C626 1.367 . S
C626 H600 0.950 . S
C626 C621 1.386 . S
C626 C625 1.367 . S
C627 C621 1.483 . S
C627 C628 1.382 . S
C627 C629 1.403 . S
C628 H601 0.950 . S
C628 C614 1.411 . S
C628 C627 1.382 . S
C629 C613 1.411 . S
C629 C627 1.403 . S
C629 C630 1.489 . S
C630 C629 1.489 . S
C630 C631 1.383 . S
C630 C635 1.382 . S
C631 H602 0.950 . S
C631 C630 1.383 . S
C631 C632 1.395 . S
C632 H603 0.950 . S
C632 C631 1.395 . S
C632 C633 1.288 . S
C633 C632 1.288 . S
C633 C634 1.392 . S
C634 H604 0.951 . S
C634 C633 1.392 . S
C634 C635 1.392 . S
C635 H605 0.949 . S
C635 C630 1.382 . S
C635 C634 1.392 . S
H636 C655 0.949 . S
H637 C656 0.950 . S
H638 C658 0.950 . S
H639 C659 0.950 . S
H640 C661 0.950 . S
H641 C664 0.950 . S
H642 C665 0.950 . S
H643 C667 0.951 . S
H644 C668 0.949 . S
H645 C670 0.949 . S
H646 C671 0.950 . S
H647 C673 0.950 . S
H648 C674 0.950 . S
H649 C676 0.950 . S
H650 C679 0.950 . S
H651 C680 0.950 . S
H652 C682 0.951 . S
H653 C683 0.949 . S
C654 C655 1.376 . S
C654 C659 1.386 . S
C654 C660 1.483 . S
C655 H636 0.949 . S
C655 C654 1.376 . S
C655 C656 1.397 . S
C656 H637 0.950 . S
C656 C655 1.397 . S
C656 C657 1.391 . S
C657 C656 1.391 . S
C657 C658 1.405 . S
C658 H638 0.950 . S
C658 C657 1.405 . S
C658 C659 1.367 . S
C659 H639 0.950 . S
C659 C654 1.386 . S
C659 C658 1.367 . S
C660 C654 1.483 . S
C660 C661 1.382 . S
C660 C662 1.403 . S
C661 H640 0.950 . S
C661 C660 1.382 . S
C661 C677 1.411 . S
C662 C660 1.403 . S
C662 C663 1.489 . S
C662 C676 1.411 . S
C663 C662 1.489 . S
C663 C664 1.383 . S
C663 C668 1.382 . S
C664 H641 0.950 . S
C664 C663 1.383 . S
C664 C665 1.395 . S
C665 H642 0.950 . S
C665 C664 1.395 . S
C665 C666 1.288 . S
C666 C665 1.288 . S
C666 C667 1.392 . S
C667 H643 0.951 . S
C667 C666 1.392 . S
C667 C668 1.392 . S
C668 H644 0.949 . S
C668 C663 1.382 . S
C668 C667 1.392 . S
C669 C670 1.376 . S
C669 C674 1.386 . S
C669 C675 1.483 . S
C670 H645 0.949 . S
C670 C669 1.376 . S
C670 C671 1.397 . S
C671 H646 0.950 . S
C671 C670 1.397 . S
C671 C672 1.391 . S
C672 C671 1.391 . S
C672 C673 1.405 . S
C673 H647 0.950 . S
C673 C672 1.405 . S
C673 C674 1.367 . S
C674 H648 0.950 . S
C674 C669 1.386 . S
C674 C673 1.367 . S
C675 C669 1.483 . S
C675 C676 1.382 . S
C675 C677 1.403 . S
C676 H649 0.950 . S
C676 C662 1.411 . S
C676 C675 1.382 . S
C677 C661 1.411 . S
C677 C675 1.403 . S
C677 C678 1.489 . S
C678 C677 1.489 . S
C678 C679 1.383 . S
C678 C683 1.382 . S
C679 H650 0.950 . S
C679 C678 1.383 . S
C679 C680 1.395 . S
C680 H651 0.950 . S
C680 C679 1.395 . S
C680 C681 1.288 . S
C681 C680 1.288 . S
C681 C682 1.392 . S
C682 H652 0.951 . S
C682 C681 1.392 . S
C682 C683 1.392 . S
C683 H653 0.949 . S
C683 C678 1.382 . S
C683 C682 1.392 . S
H684 C703 0.949 . S
H685 C704 0.950 . S
H686 C706 0.950 . S
H687 C707 0.950 . S
H688 C709 0.950 . S
H689 C712 0.950 . S
H690 C713 0.950 . S
H691 C715 0.951 . S
H692 C716 0.949 . S
H693 C718 0.949 . S
H694 C719 0.950 . S
H695 C721 0.950 . S
H696 C722 0.950 . S
H697 C724 0.950 . S
H698 C727 0.950 . S
H699 C728 0.950 . S
H700 C730 0.951 . S
H701 C731 0.949 . S
C702 C703 1.376 . S
C702 C707 1.386 1_655 S
C702 C708 1.483 . S
C703 H684 0.949 . S
C703 C702 1.376 . S
C703 C704 1.397 . S
C704 H685 0.950 . S
C704 C703 1.397 . S
C704 C705 1.391 . S
C705 C704 1.391 . S
C705 C706 1.405 1_655 S
C706 H686 0.950 . S
C706 C705 1.405 1_455 S
C706 C707 1.367 . S
C707 H687 0.950 . S
C707 C702 1.386 1_455 S
C707 C706 1.367 . S
C708 C702 1.483 . S
C708 C709 1.382 . S
C708 C710 1.403 1_655 S
C709 H688 0.950 . S
C709 C708 1.382 . S
C709 C725 1.411 . S
C710 C708 1.403 1_455 S
C710 C711 1.489 . S
C710 C724 1.411 . S
C711 C710 1.489 . S
C711 C712 1.383 1_455 S
C711 C716 1.382 . S
C712 H689 0.950 . S
C712 C711 1.383 1_655 S
C712 C713 1.395 . S
C713 H690 0.950 . S
C713 C712 1.395 . S
C713 C714 1.288 1_655 S
C714 C713 1.288 1_455 S
C714 C715 1.392 . S
C715 H691 0.951 . S
C715 C714 1.392 . S
C715 C716 1.392 . S
C716 H692 0.949 . S
C716 C711 1.382 . S
C716 C715 1.392 . S
C717 C718 1.376 . S
C717 C722 1.386 1_455 S
C717 C723 1.483 . S
C718 H693 0.949 . S
C718 C717 1.376 . S
C718 C719 1.397 . S
C719 H694 0.950 . S
C719 C718 1.397 . S
C719 C720 1.391 . S
C720 C719 1.391 . S
C720 C721 1.405 1_455 S
C721 H695 0.950 . S
C721 C720 1.405 1_655 S
C721 C722 1.367 . S
C722 H696 0.950 . S
C722 C717 1.386 1_655 S
C722 C721 1.367 . S
C723 C717 1.483 . S
C723 C724 1.382 . S
C723 C725 1.403 1_455 S
C724 H697 0.950 . S
C724 C710 1.411 . S
C724 C723 1.382 . S
C725 C709 1.411 . S
C725 C723 1.403 1_655 S
C725 C726 1.489 . S
C726 C725 1.489 . S
C726 C727 1.383 1_655 S
C726 C731 1.382 . S
C727 H698 0.950 . S
C727 C726 1.383 1_455 S
C727 C728 1.395 . S
C728 H699 0.950 . S
C728 C727 1.395 . S
C728 C729 1.288 1_455 S
C729 C728 1.288 1_655 S
C729 C730 1.392 . S
C730 H700 0.951 . S
C730 C729 1.392 . S
C730 C731 1.392 . S
C731 H701 0.949 . S
C731 C726 1.382 . S
C731 C730 1.392 . S
H732 C751 0.949 . S
H733 C752 0.950 . S
H734 C754 0.950 . S
H735 C755 0.950 . S
H736 C757 0.950 . S
H737 C760 0.950 . S
H738 C761 0.950 . S
H739 C763 0.951 . S
H740 C764 0.949 . S
H741 C766 0.949 . S
H742 C767 0.950 . S
H743 C769 0.950 . S
H744 C770 0.950 . S
H745 C772 0.950 . S
H746 C775 0.950 . S
H747 C776 0.950 . S
H748 C778 0.951 . S
H749 C779 0.949 . S
C750 C751 1.376 . S
C750 C755 1.386 . S
C750 C756 1.483 . S
C751 H732 0.949 . S
C751 C750 1.376 . S
C751 C752 1.397 . S
C752 H733 0.950 . S
C752 C751 1.397 . S
C752 C753 1.391 . S
C753 C752 1.391 . S
C753 C754 1.405 . S
C754 H734 0.950 . S
C754 C753 1.405 . S
C754 C755 1.367 . S
C755 H735 0.950 . S
C755 C750 1.386 . S
C755 C754 1.367 . S
C756 C750 1.483 . S
C756 C757 1.382 . S
C756 C758 1.403 . S
C757 H736 0.950 . S
C757 C756 1.382 . S
C757 C773 1.411 . S
C758 C756 1.403 . S
C758 C759 1.489 . S
C758 C772 1.411 . S
C759 C758 1.489 . S
C759 C760 1.383 . S
C759 C764 1.382 . S
C760 H737 0.950 . S
C760 C759 1.383 . S
C760 C761 1.395 . S
C761 H738 0.950 . S
C761 C760 1.395 . S
C761 C762 1.288 . S
C762 C761 1.288 . S
C762 C763 1.392 . S
C763 H739 0.951 . S
C763 C762 1.392 . S
C763 C764 1.392 . S
C764 H740 0.949 . S
C764 C759 1.382 . S
C764 C763 1.392 . S
C765 C766 1.376 . S
C765 C770 1.386 . S
C765 C771 1.483 . S
C766 H741 0.949 . S
C766 C765 1.376 . S
C766 C767 1.397 . S
C767 H742 0.950 . S
C767 C766 1.397 . S
C767 C768 1.391 . S
C768 C767 1.391 . S
C768 C769 1.405 . S
C769 H743 0.950 . S
C769 C768 1.405 . S
C769 C770 1.367 . S
C770 H744 0.950 . S
C770 C765 1.386 . S
C770 C769 1.367 . S
C771 C765 1.483 . S
C771 C772 1.382 . S
C771 C773 1.403 . S
C772 H745 0.950 . S
C772 C758 1.411 . S
C772 C771 1.382 . S
C773 C757 1.411 . S
C773 C771 1.403 . S
C773 C774 1.489 . S
C774 C773 1.489 . S
C774 C775 1.383 . S
C774 C779 1.382 . S
C775 H746 0.950 . S
C775 C774 1.383 . S
C775 C776 1.395 . S
C776 H747 0.950 . S
C776 C775 1.395 . S
C776 C777 1.288 . S
C777 C776 1.288 . S
C777 C778 1.392 . S
C778 H748 0.951 . S
C778 C777 1.392 . S
C778 C779 1.392 . S
C779 H749 0.949 . S
C779 C774 1.382 . S
C779 C778 1.392 . S
H780 C799 0.949 . S
H781 C800 0.950 . S
H782 C802 0.950 . S
H783 C803 0.950 . S
H784 C805 0.950 . S
H785 C808 0.950 . S
H786 C809 0.950 . S
H787 C811 0.951 . S
H788 C812 0.949 . S
H789 C814 0.949 . S
H790 C815 0.950 . S
H791 C817 0.950 . S
H792 C818 0.950 . S
H793 C820 0.950 . S
H794 C823 0.950 . S
H795 C824 0.950 . S
H796 C826 0.951 . S
H797 C827 0.949 . S
C798 C799 1.376 . S
C798 C803 1.386 1_545 S
C798 C804 1.483 . S
C799 H780 0.949 . S
C799 C798 1.376 . S
C799 C800 1.397 . S
C800 H781 0.950 . S
C800 C799 1.397 . S
C800 C801 1.391 . S
C801 C800 1.391 . S
C801 C802 1.405 1_545 S
C802 H782 0.950 . S
C802 C801 1.405 1_565 S
C802 C803 1.367 . S
C803 H783 0.950 . S
C803 C798 1.386 1_565 S
C803 C802 1.367 . S
C804 C798 1.483 . S
C804 C805 1.382 . S
C804 C806 1.403 1_545 S
C805 H784 0.950 . S
C805 C804 1.382 . S
C805 C821 1.411 . S
C806 C804 1.403 1_565 S
C806 C807 1.489 . S
C806 C820 1.411 . S
C807 C806 1.489 . S
C807 C808 1.383 1_565 S
C807 C812 1.382 . S
C808 H785 0.950 . S
C808 C807 1.383 1_545 S
C808 C809 1.395 . S
C809 H786 0.950 . S
C809 C808 1.395 . S
C809 C810 1.288 1_545 S
C810 C809 1.288 1_565 S
C810 C811 1.392 . S
C811 H787 0.951 . S
C811 C810 1.392 . S
C811 C812 1.392 . S
C812 H788 0.949 . S
C812 C807 1.382 . S
C812 C811 1.392 . S
C813 C814 1.376 . S
C813 C818 1.386 1_565 S
C813 C819 1.483 . S
C814 H789 0.949 . S
C814 C813 1.376 . S
C814 C815 1.397 . S
C815 H790 0.950 . S
C815 C814 1.397 . S
C815 C816 1.391 . S
C816 C815 1.391 . S
C816 C817 1.405 1_565 S
C817 H791 0.950 . S
C817 C816 1.405 1_545 S
C817 C818 1.367 . S
C818 H792 0.950 . S
C818 C813 1.386 1_545 S
C818 C817 1.367 . S
C819 C813 1.483 . S
C819 C820 1.382 . S
C819 C821 1.403 1_565 S
C820 H793 0.950 . S
C820 C806 1.411 . S
C820 C819 1.382 . S
C821 C805 1.411 . S
C821 C819 1.403 1_545 S
C821 C822 1.489 . S
C822 C821 1.489 . S
C822 C823 1.383 1_545 S
C822 C827 1.382 . S
C823 H794 0.950 . S
C823 C822 1.383 1_565 S
C823 C824 1.395 . S
C824 H795 0.950 . S
C824 C823 1.395 . S
C824 C825 1.288 1_565 S
C825 C824 1.288 1_545 S
C825 C826 1.392 . S
C826 H796 0.951 . S
C826 C825 1.392 . S
C826 C827 1.392 . S
C827 H797 0.949 . S
C827 C822 1.382 . S
C827 C826 1.392 . S
H828 C847 0.949 . S
H829 C848 0.950 . S
H830 C850 0.950 . S
H831 C851 0.950 . S
H832 C853 0.950 . S
H833 C856 0.950 . S
H834 C857 0.950 . S
H835 C859 0.951 . S
H836 C860 0.949 . S
H837 C862 0.949 . S
H838 C863 0.950 . S
H839 C865 0.950 . S
H840 C866 0.950 . S
H841 C868 0.950 . S
H842 C871 0.950 . S
H843 C872 0.950 . S
H844 C874 0.951 . S
H845 C875 0.949 . S
C846 C847 1.376 . S
C846 C851 1.386 1_545 S
C846 C852 1.506 . S
C847 H828 0.949 . S
C847 C846 1.376 . S
C847 C848 1.397 . S
C848 H829 0.950 . S
C848 C847 1.397 . S
C848 C849 1.391 1_545 S
C849 C848 1.391 1_565 S
C849 C850 1.405 . S
C850 H830 0.950 . S
C850 C849 1.405 . S
C850 C851 1.367 . S
C851 H831 0.950 . S
C851 C846 1.386 1_565 S
C851 C850 1.367 . S
C852 C846 1.506 . S
C852 C853 1.360 . S
C852 C854 1.400 1_545 S
C853 H832 0.950 . S
C853 C852 1.360 . S
C853 C869 1.446 . S
C854 C852 1.400 1_565 S
C854 C855 1.485 . S
C854 C868 1.437 . S
C855 C854 1.485 . S
C855 C856 1.342 1_565 S
C855 C860 1.404 . S
C856 H833 0.950 . S
C856 C855 1.342 1_545 S
C856 C857 1.395 . S
C857 H834 0.950 . S
C857 C856 1.395 . S
C857 C858 1.288 . S
C858 C857 1.288 . S
C858 C859 1.392 1_545 S
C859 H835 0.951 . S
C859 C858 1.392 1_565 S
C859 C860 1.392 . S
C860 H836 0.949 . S
C860 C855 1.404 . S
C860 C859 1.392 . S
C861 C862 1.376 1_545 S
C861 C866 1.386 . S
C861 C867 1.499 1_545 S
C862 H837 0.949 . S
C862 C861 1.376 1_565 S
C862 C863 1.397 . S
C863 H838 0.950 . S
C863 C862 1.397 . S
C863 C864 1.391 1_565 S
C864 C863 1.391 1_545 S
C864 C865 1.405 . S
C865 H839 0.950 . S
C865 C864 1.405 . S
C865 C866 1.367 . S
C866 H840 0.950 . S
C866 C861 1.386 . S
C866 C865 1.367 . S
C867 C861 1.499 1_565 S
C867 C868 1.366 . S
C867 C869 1.400 1_565 S
C868 H841 0.950 . S
C868 C854 1.437 . S
C868 C867 1.366 . S
C869 C853 1.446 . S
C869 C867 1.400 1_545 S
C869 C870 1.485 . S
C870 C869 1.485 . S
C870 C871 1.325 1_545 S
C870 C875 1.413 . S
C871 H842 0.950 . S
C871 C870 1.325 1_565 S
C871 C872 1.395 . S
C872 H843 0.950 . S
C872 C871 1.395 . S
C872 C873 1.324 . S
C873 C872 1.324 . S
C873 C874 1.321 1_565 S
C874 H844 0.951 . S
C874 C873 1.321 1_545 S
C874 C875 1.392 . S
C875 H845 0.949 . S
C875 C870 1.413 . S
C875 C874 1.392 . S
H876 C895 0.949 . S
H877 C896 0.950 . S
H878 C898 0.950 . S
H879 C899 0.950 . S
H880 C901 0.950 . S
H881 C904 0.950 . S
H882 C905 0.950 . S
H883 C907 0.951 . S
H884 C908 0.949 . S
H885 C910 0.949 . S
H886 C911 0.950 . S
H887 C913 0.950 . S
H888 C914 0.950 . S
H889 C916 0.950 . S
H890 C919 0.950 . S
H891 C920 0.950 . S
H892 C922 0.951 . S
H893 C923 0.949 . S
C894 C895 1.376 . S
C894 C899 1.386 1_455 S
C894 C900 1.483 . S
C895 H876 0.949 . S
C895 C894 1.376 . S
C895 C896 1.397 . S
C896 H877 0.950 . S
C896 C895 1.397 . S
C896 C897 1.391 . S
C897 C896 1.391 . S
C897 C898 1.405 1_455 S
C898 H878 0.950 . S
C898 C897 1.405 1_655 S
C898 C899 1.367 . S
C899 H879 0.950 . S
C899 C894 1.386 1_655 S
C899 C898 1.367 . S
C900 C894 1.483 . S
C900 C901 1.382 . S
C900 C902 1.403 1_455 S
C901 H880 0.950 . S
C901 C900 1.382 . S
C901 C917 1.411 . S
C902 C900 1.403 1_655 S
C902 C903 1.489 . S
C902 C916 1.411 . S
C903 C902 1.489 . S
C903 C904 1.383 1_655 S
C903 C908 1.382 . S
C904 H881 0.950 . S
C904 C903 1.383 1_455 S
C904 C905 1.395 . S
C905 H882 0.950 . S
C905 C904 1.395 . S
C905 C906 1.288 1_455 S
C906 C905 1.288 1_655 S
C906 C907 1.392 . S
C907 H883 0.951 . S
C907 C906 1.392 . S
C907 C908 1.392 . S
C908 H884 0.949 . S
C908 C903 1.382 . S
C908 C907 1.392 . S
C909 C910 1.376 . S
C909 C914 1.386 1_655 S
C909 C915 1.483 . S
C910 H885 0.949 . S
C910 C909 1.376 . S
C910 C911 1.397 . S
C911 H886 0.950 . S
C911 C910 1.397 . S
C911 C912 1.391 . S
C912 C911 1.391 . S
C912 C913 1.405 1_655 S
C913 H887 0.950 . S
C913 C912 1.405 1_455 S
C913 C914 1.367 . S
C914 H888 0.950 . S
C914 C909 1.386 1_455 S
C914 C913 1.367 . S
C915 C909 1.483 . S
C915 C916 1.382 . S
C915 C917 1.403 1_655 S
C916 H889 0.950 . S
C916 C902 1.411 . S
C916 C915 1.382 . S
C917 C901 1.411 . S
C917 C915 1.403 1_455 S
C917 C918 1.489 . S
C918 C917 1.489 . S
C918 C919 1.383 1_455 S
C918 C923 1.382 . S
C919 H890 0.950 . S
C919 C918 1.383 1_655 S
C919 C920 1.395 . S
C920 H891 0.950 . S
C920 C919 1.395 . S
C920 C921 1.288 1_655 S
C921 C920 1.288 1_455 S
C921 C922 1.392 . S
C922 H892 0.951 . S
C922 C921 1.392 . S
C922 C923 1.392 . S
C923 H893 0.949 . S
C923 C918 1.382 . S
C923 C922 1.392 . S
H924 C943 0.949 . S
H925 C944 0.950 . S
H926 C946 0.950 . S
H927 C947 0.950 . S
H928 C949 0.950 . S
H929 C952 0.950 . S
H930 C953 0.950 . S
H931 C955 0.951 . S
H932 C956 0.949 . S
H933 C958 0.949 . S
H934 C959 0.950 . S
H935 C961 0.950 . S
H936 C962 0.950 . S
H937 C964 0.950 . S
H938 C967 0.950 . S
H939 C968 0.950 . S
H940 C970 0.951 . S
H941 C971 0.949 . S
C942 C943 1.376 . S
C942 C947 1.386 . S
C942 C948 1.483 . S
C943 H924 0.949 . S
C943 C942 1.376 . S
C943 C944 1.397 . S
C944 H925 0.950 . S
C944 C943 1.397 . S
C944 C945 1.391 . S
C945 C944 1.391 . S
C945 C946 1.405 . S
C946 H926 0.950 . S
C946 C945 1.405 . S
C946 C947 1.367 . S
C947 H927 0.950 . S
C947 C942 1.386 . S
C947 C946 1.367 . S
C948 C942 1.483 . S
C948 C949 1.382 . S
C948 C950 1.403 . S
C949 H928 0.950 . S
C949 C948 1.382 . S
C949 C965 1.411 . S
C950 C948 1.403 . S
C950 C951 1.489 . S
C950 C964 1.411 . S
C951 C950 1.489 . S
C951 C952 1.383 . S
C951 C956 1.382 . S
C952 H929 0.950 . S
C952 C951 1.383 . S
C952 C953 1.395 . S
C953 H930 0.950 . S
C953 C952 1.395 . S
C953 C954 1.288 . S
C954 C953 1.288 . S
C954 C955 1.392 . S
C955 H931 0.951 . S
C955 C954 1.392 . S
C955 C956 1.392 . S
C956 H932 0.949 . S
C956 C951 1.382 . S
C956 C955 1.392 . S
C957 C958 1.376 . S
C957 C962 1.386 . S
C957 C963 1.483 . S
C958 H933 0.949 . S
C958 C957 1.376 . S
C958 C959 1.397 . S
C959 H934 0.950 . S
C959 C958 1.397 . S
C959 C960 1.391 . S
C960 C959 1.391 . S
C960 C961 1.405 . S
C961 H935 0.950 . S
C961 C960 1.405 . S
C961 C962 1.367 . S
C962 H936 0.950 . S
C962 C957 1.386 . S
C962 C961 1.367 . S
C963 C957 1.483 . S
C963 C964 1.382 . S
C963 C965 1.403 . S
C964 H937 0.950 . S
C964 C950 1.411 . S
C964 C963 1.382 . S
C965 C949 1.411 . S
C965 C963 1.403 . S
C965 C966 1.489 . S
C966 C965 1.489 . S
C966 C967 1.383 . S
C966 C971 1.382 . S
C967 H938 0.950 . S
C967 C966 1.383 . S
C967 C968 1.395 . S
C968 H939 0.950 . S
C968 C967 1.395 . S
C968 C969 1.288 . S
C969 C968 1.288 . S
C969 C970 1.392 . S
C970 H940 0.951 . S
C970 C969 1.392 . S
C970 C971 1.392 . S
C971 H941 0.949 . S
C971 C966 1.382 . S
C971 C970 1.392 . S
H972 C991 0.949 . S
H973 C992 0.950 . S
H974 C994 0.950 . S
H975 C995 0.950 . S
H976 C997 0.950 . S
H977 C1000 0.950 . S
H978 C1001 0.950 . S
H979 C1003 0.951 . S
H980 C1004 0.949 . S
H981 C1006 0.949 . S
H982 C1007 0.950 . S
H983 C1009 0.950 . S
H984 C1010 0.950 . S
H985 C1012 0.950 . S
H986 C1015 0.950 . S
H987 C1016 0.950 . S
H988 C1018 0.951 . S
H989 C1019 0.949 . S
C990 C991 1.376 . S
C990 C995 1.386 . S
C990 C996 1.483 . S
C991 H972 0.949 . S
C991 C990 1.376 . S
C991 C992 1.397 . S
C992 H973 0.950 . S
C992 C991 1.397 . S
C992 C993 1.391 . S
C993 C992 1.391 . S
C993 C994 1.405 . S
C994 H974 0.950 . S
C994 C993 1.405 . S
C994 C995 1.367 . S
C995 H975 0.950 . S
C995 C990 1.386 . S
C995 C994 1.367 . S
C996 C990 1.483 . S
C996 C997 1.382 . S
C996 C998 1.403 . S
C997 H976 0.950 . S
C997 C996 1.382 . S
C997 C1013 1.411 . S
C998 C996 1.403 . S
C998 C999 1.489 . S
C998 C1012 1.411 . S
C999 C998 1.489 . S
C999 C1000 1.383 . S
C999 C1004 1.382 . S
C1000 H977 0.950 . S
C1000 C999 1.383 . S
C1000 C1001 1.395 . S
C1001 H978 0.950 . S
C1001 C1000 1.395 . S
C1001 C1002 1.288 . S
C1002 C1001 1.288 . S
C1002 C1003 1.392 . S
C1003 H979 0.951 . S
C1003 C1002 1.392 . S
C1003 C1004 1.392 . S
C1004 H980 0.949 . S
C1004 C999 1.382 . S
C1004 C1003 1.392 . S
C1005 C1006 1.376 . S
C1005 C1010 1.386 . S
C1005 C1011 1.483 . S
C1006 H981 0.949 . S
C1006 C1005 1.376 . S
C1006 C1007 1.397 . S
C1007 H982 0.950 . S
C1007 C1006 1.397 . S
C1007 C1008 1.391 . S
C1008 C1007 1.391 . S
C1008 C1009 1.405 . S
C1009 H983 0.950 . S
C1009 C1008 1.405 . S
C1009 C1010 1.367 . S
C1010 H984 0.950 . S
C1010 C1005 1.386 . S
C1010 C1009 1.367 . S
C1011 C1005 1.483 . S
C1011 C1012 1.382 . S
C1011 C1013 1.403 . S
C1012 H985 0.950 . S
C1012 C998 1.411 . S
C1012 C1011 1.382 . S
C1013 C997 1.411 . S
C1013 C1011 1.403 . S
C1013 C1014 1.489 . S
C1014 C1013 1.489 . S
C1014 C1015 1.383 . S
C1014 C1019 1.382 . S
C1015 H986 0.950 . S
C1015 C1014 1.383 . S
C1015 C1016 1.395 . S
C1016 H987 0.950 . S
C1016 C1015 1.395 . S
C1016 C1017 1.288 . S
C1017 C1016 1.288 . S
C1017 C1018 1.392 . S
C1018 H988 0.951 . S
C1018 C1017 1.392 . S
C1018 C1019 1.392 . S
C1019 H989 0.949 . S
C1019 C1014 1.382 . S
C1019 C1018 1.392 . S
H1020 C1039 0.949 . S
H1021 C1040 0.950 . S
H1022 C1042 0.950 . S
H1023 C1043 0.950 . S
H1024 C1045 0.950 . S
H1025 C1048 0.950 . S
H1026 C1049 0.950 . S
H1027 C1051 0.951 . S
H1028 C1052 0.949 . S
H1029 C1054 0.949 . S
H1030 C1055 0.950 . S
H1031 C1057 0.950 . S
H1032 C1058 0.950 . S
H1033 C1060 0.950 . S
H1034 C1063 0.950 . S
H1035 C1064 0.950 . S
H1036 C1066 0.951 . S
H1037 C1067 0.949 . S
C1038 C1039 1.376 . S
C1038 C1043 1.386 . S
C1038 C1044 1.483 . S
C1039 H1020 0.949 . S
C1039 C1038 1.376 . S
C1039 C1040 1.397 . S
C1040 H1021 0.950 . S
C1040 C1039 1.397 . S
C1040 C1041 1.391 . S
C1041 C1040 1.391 . S
C1041 C1042 1.405 . S
C1042 H1022 0.950 . S
C1042 C1041 1.405 . S
C1042 C1043 1.367 . S
C1043 H1023 0.950 . S
C1043 C1038 1.386 . S
C1043 C1042 1.367 . S
C1044 C1038 1.483 . S
C1044 C1045 1.382 . S
C1044 C1046 1.403 . S
C1045 H1024 0.950 . S
C1045 C1044 1.382 . S
C1045 C1061 1.411 . S
C1046 C1044 1.403 . S
C1046 C1047 1.489 . S
C1046 C1060 1.411 . S
C1047 C1046 1.489 . S
C1047 C1048 1.383 . S
C1047 C1052 1.382 . S
C1048 H1025 0.950 . S
C1048 C1047 1.383 . S
C1048 C1049 1.395 . S
C1049 H1026 0.950 . S
C1049 C1048 1.395 . S
C1049 C1050 1.288 . S
C1050 C1049 1.288 . S
C1050 C1051 1.392 . S
C1051 H1027 0.951 . S
C1051 C1050 1.392 . S
C1051 C1052 1.392 . S
C1052 H1028 0.949 . S
C1052 C1047 1.382 . S
C1052 C1051 1.392 . S
C1053 C1054 1.376 . S
C1053 C1058 1.386 . S
C1053 C1059 1.483 . S
C1054 H1029 0.949 . S
C1054 C1053 1.376 . S
C1054 C1055 1.397 . S
C1055 H1030 0.950 . S
C1055 C1054 1.397 . S
C1055 C1056 1.391 . S
C1056 C1055 1.391 . S
C1056 C1057 1.405 . S
C1057 H1031 0.950 . S
C1057 C1056 1.405 . S
C1057 C1058 1.367 . S
C1058 H1032 0.950 . S
C1058 C1053 1.386 . S
C1058 C1057 1.367 . S
C1059 C1053 1.483 . S
C1059 C1060 1.382 . S
C1059 C1061 1.403 . S
C1060 H1033 0.950 . S
C1060 C1046 1.411 . S
C1060 C1059 1.382 . S
C1061 C1045 1.411 . S
C1061 C1059 1.403 . S
C1061 C1062 1.489 . S
C1062 C1061 1.489 . S
C1062 C1063 1.383 . S
C1062 C1067 1.382 . S
C1063 H1034 0.950 . S
C1063 C1062 1.383 . S
C1063 C1064 1.395 . S
C1064 H1035 0.950 . S
C1064 C1063 1.395 . S
C1064 C1065 1.288 . S
C1065 C1064 1.288 . S
C1065 C1066 1.392 . S
C1066 H1036 0.951 . S
C1066 C1065 1.392 . S
C1066 C1067 1.392 . S
C1067 H1037 0.949 . S
C1067 C1062 1.382 . S
C1067 C1066 1.392 . S
H1068 C1087 0.949 . S
H1069 C1088 0.950 . S
H1070 C1090 0.950 . S
H1071 C1091 0.950 . S
H1072 C1093 0.950 . S
H1073 C1096 0.950 . S
H1074 C1097 0.950 . S
H1075 C1099 0.951 . S
H1076 C1100 0.949 . S
H1077 C1102 0.949 . S
H1078 C1103 0.950 . S
H1079 C1105 0.950 . S
H1080 C1106 0.950 . S
H1081 C1108 0.950 . S
H1082 C1111 0.950 . S
H1083 C1112 0.950 . S
H1084 C1114 0.951 . S
H1085 C1115 0.949 . S
C1086 C1087 1.376 . S
C1086 C1091 1.386 . S
C1086 C1092 1.483 . S
C1087 H1068 0.949 . S
C1087 C1086 1.376 . S
C1087 C1088 1.397 . S
C1088 H1069 0.950 . S
C1088 C1087 1.397 . S
C1088 C1089 1.391 . S
C1089 C1088 1.391 . S
C1089 C1090 1.405 . S
C1090 H1070 0.950 . S
C1090 C1089 1.405 . S
C1090 C1091 1.367 . S
C1091 H1071 0.950 . S
C1091 C1086 1.386 . S
C1091 C1090 1.367 . S
C1092 C1086 1.483 . S
C1092 C1093 1.382 . S
C1092 C1094 1.403 . S
C1093 H1072 0.950 . S
C1093 C1092 1.382 . S
C1093 C1109 1.411 . S
C1094 C1092 1.403 . S
C1094 C1095 1.489 . S
C1094 C1108 1.411 . S
C1095 C1094 1.489 . S
C1095 C1096 1.383 . S
C1095 C1100 1.382 . S
C1096 H1073 0.950 . S
C1096 C1095 1.383 . S
C1096 C1097 1.395 . S
C1097 H1074 0.950 . S
C1097 C1096 1.395 . S
C1097 C1098 1.288 . S
C1098 C1097 1.288 . S
C1098 C1099 1.392 . S
C1099 H1075 0.951 . S
C1099 C1098 1.392 . S
C1099 C1100 1.392 . S
C1100 H1076 0.949 . S
C1100 C1095 1.382 . S
C1100 C1099 1.392 . S
C1101 C1102 1.376 . S
C1101 C1106 1.386 . S
C1101 C1107 1.483 . S
C1102 H1077 0.949 . S
C1102 C1101 1.376 . S
C1102 C1103 1.397 . S
C1103 H1078 0.950 . S
C1103 C1102 1.397 . S
C1103 C1104 1.391 . S
C1104 C1103 1.391 . S
C1104 C1105 1.405 . S
C1105 H1079 0.950 . S
C1105 C1104 1.405 . S
C1105 C1106 1.367 . S
C1106 H1080 0.950 . S
C1106 C1101 1.386 . S
C1106 C1105 1.367 . S
C1107 C1101 1.483 . S
C1107 C1108 1.382 . S
C1107 C1109 1.403 . S
C1108 H1081 0.950 . S
C1108 C1094 1.411 . S
C1108 C1107 1.382 . S
C1109 C1093 1.411 . S
C1109 C1107 1.403 . S
C1109 C1110 1.489 . S
C1110 C1109 1.489 . S
C1110 C1111 1.383 . S
C1110 C1115 1.382 . S
C1111 H1082 0.950 . S
C1111 C1110 1.383 . S
C1111 C1112 1.395 . S
C1112 H1083 0.950 . S
C1112 C1111 1.395 . S
C1112 C1113 1.288 . S
C1113 C1112 1.288 . S
C1113 C1114 1.392 . S
C1114 H1084 0.951 . S
C1114 C1113 1.392 . S
C1114 C1115 1.392 . S
C1115 H1085 0.949 . S
C1115 C1110 1.382 . S
C1115 C1114 1.392 . S
H1116 C1128 0.930 . S
H1117 C1130 0.930 . S
H1118 C1131 0.930 . S
H1119 C1135 0.959 . S
H1120 C1135 0.959 . S
H1121 C1135 0.961 . S
H1122 C1136 0.976 . S
H1123 C1136 0.956 . S
H1124 C1136 0.924 1_655 S
H1125 C1139 0.929 . S
H1126 C1140 0.931 . S
H1127 C1142 0.930 . S
C1128 H1116 0.930 . S
C1128 C1129 1.399 1_455 S
C1128 C1133 1.438 . S
C1129 C1128 1.399 1_655 S
C1129 C1130 1.376 . S
C1130 H1117 0.930 . S
C1130 C1129 1.376 . S
C1130 C1131 1.388 . S
C1131 H1118 0.930 . S
C1131 C1130 1.388 . S
C1131 C1132 1.390 . S
C1132 C1131 1.390 . S
C1132 C1133 1.361 1_655 S
C1132 C1138 1.465 . S
C1133 C1128 1.438 . S
C1133 C1132 1.361 1_455 S
C1133 C1134 1.508 . S
C1134 C1133 1.508 . S
C1134 C1135 1.502 . S
C1134 C1136 1.587 . S
C1134 C1137 1.526 . S
C1135 H1119 0.959 . S
C1135 H1120 0.959 . S
C1135 H1121 0.961 . S
C1135 C1134 1.502 . S
C1136 H1122 0.976 . S
C1136 H1123 0.956 . S
C1136 H1124 0.924 1_455 S
C1136 C1134 1.587 . S
C1137 C1134 1.526 . S
C1137 C1138 1.396 1_455 S
C1137 C1142 1.390 . S
C1138 C1132 1.465 . S
C1138 C1137 1.396 1_655 S
C1138 C1139 1.399 . S
C1139 H1125 0.929 . S
C1139 C1138 1.399 . S
C1139 C1140 1.385 . S
C1140 H1126 0.931 . S
C1140 C1139 1.385 . S
C1140 C1141 1.389 . S
C1141 C1140 1.389 . S
C1141 C1142 1.387 1_655 S
C1142 H1127 0.930 . S
C1142 C1137 1.390 . S
C1142 C1141 1.387 1_455 S
H1143 C1155 0.930 . S
H1144 C1157 0.930 . S
H1145 C1158 0.930 . S
H1146 C1162 0.959 . S
H1147 C1162 0.959 . S
H1148 C1162 0.961 . S
H1149 C1163 0.960 . S
H1150 C1163 0.961 . S
H1151 C1163 0.959 . S
H1152 C1166 0.929 . S
H1153 C1167 0.931 . S
H1154 C1169 0.930 . S
C1155 H1143 0.930 . S
C1155 C1156 1.399 . S
C1155 C1160 1.399 . S
C1156 C1155 1.399 . S
C1156 C1157 1.376 . S
C1157 H1144 0.930 . S
C1157 C1156 1.376 . S
C1157 C1158 1.388 . S
C1158 H1145 0.930 . S
C1158 C1157 1.388 . S
C1158 C1159 1.390 . S
C1159 C1158 1.390 . S
C1159 C1160 1.394 . S
C1159 C1165 1.465 . S
C1160 C1155 1.399 . S
C1160 C1159 1.394 . S
C1160 C1161 1.516 . S
C1161 C1160 1.516 . S
C1161 C1162 1.502 . S
C1161 C1163 1.561 . S
C1161 C1164 1.526 . S
C1162 H1146 0.959 . S
C1162 H1147 0.959 . S
C1162 H1148 0.961 . S
C1162 C1161 1.502 . S
C1163 H1149 0.960 . S
C1163 H1150 0.961 . S
C1163 H1151 0.959 . S
C1163 C1161 1.561 . S
C1164 C1161 1.526 . S
C1164 C1165 1.396 . S
C1164 C1169 1.390 . S
C1165 C1159 1.465 . S
C1165 C1164 1.396 . S
C1165 C1166 1.399 . S
C1166 H1152 0.929 . S
C1166 C1165 1.399 . S
C1166 C1167 1.385 . S
C1167 H1153 0.931 . S
C1167 C1166 1.385 . S
C1167 C1168 1.389 . S
C1168 C1167 1.389 . S
C1168 C1169 1.387 . S
C1169 H1154 0.930 . S
C1169 C1164 1.390 . S
C1169 C1168 1.387 . S
H1170 C1182 0.930 1_565 S
H1171 C1184 0.930 . S
H1172 C1185 0.930 . S
H1173 C1189 0.959 . S
H1174 C1189 0.959 1_565 S
H1175 C1189 0.961 1_565 S
H1176 C1190 0.960 . S
H1177 C1190 0.961 . S
H1178 C1190 0.959 . S
H1179 C1193 0.929 . S
H1180 C1194 0.931 . S
H1181 C1196 0.930 . S
C1182 H1170 0.930 1_545 S
C1182 C1183 1.399 . S
C1182 C1187 1.399 . S
C1183 C1182 1.399 . S
C1183 C1184 1.376 . S
C1184 H1171 0.930 . S
C1184 C1183 1.376 . S
C1184 C1185 1.388 . S
C1185 H1172 0.930 . S
C1185 C1184 1.388 . S
C1185 C1186 1.390 . S
C1186 C1185 1.390 . S
C1186 C1187 1.394 . S
C1186 C1192 1.465 . S
C1187 C1182 1.399 . S
C1187 C1186 1.394 . S
C1187 C1188 1.516 1_545 S
C1188 C1187 1.516 1_565 S
C1188 C1189 1.502 1_565 S
C1188 C1190 1.561 . S
C1188 C1191 1.539 1_565 S
C1189 H1173 0.959 . S
C1189 H1174 0.959 1_545 S
C1189 H1175 0.961 1_545 S
C1189 C1188 1.502 1_545 S
C1190 H1176 0.960 . S
C1190 H1177 0.961 . S
C1190 H1178 0.959 . S
C1190 C1188 1.561 . S
C1191 C1188 1.539 1_545 S
C1191 C1192 1.409 . S
C1191 C1196 1.368 1_545 S
C1192 C1186 1.465 . S
C1192 C1191 1.409 . S
C1192 C1193 1.399 . S
C1193 H1179 0.929 . S
C1193 C1192 1.399 . S
C1193 C1194 1.385 . S
C1194 H1180 0.931 . S
C1194 C1193 1.385 . S
C1194 C1195 1.389 . S
C1195 C1194 1.389 . S
C1195 C1196 1.387 1_545 S
C1196 H1181 0.930 . S
C1196 C1191 1.368 1_565 S
C1196 C1195 1.387 1_565 S
H1197 C1209 0.930 . S
H1198 C1211 0.930 . S
H1199 C1212 0.930 . S
H1200 C1216 0.959 . S
H1201 C1216 0.959 . S
H1202 C1216 0.961 . S
H1203 C1217 0.960 . S
H1204 C1217 0.961 . S
H1205 C1217 0.959 . S
H1206 C1220 0.929 . S
H1207 C1221 0.931 . S
H1208 C1223 0.930 . S
C1209 H1197 0.930 . S
C1209 C1210 1.399 . S
C1209 C1214 1.399 . S
C1210 C1209 1.399 . S
C1210 C1211 1.376 1_565 S
C1211 H1198 0.930 . S
C1211 C1210 1.376 1_545 S
C1211 C1212 1.388 . S
C1212 H1199 0.930 . S
C1212 C1211 1.388 . S
C1212 C1213 1.390 . S
C1213 C1212 1.390 . S
C1213 C1214 1.394 1_545 S
C1213 C1219 1.465 . S
C1214 C1209 1.399 . S
C1214 C1213 1.394 1_565 S
C1214 C1215 1.516 . S
C1215 C1214 1.516 . S
C1215 C1216 1.502 . S
C1215 C1217 1.561 . S
C1215 C1218 1.526 . S
C1216 H1200 0.959 . S
C1216 H1201 0.959 . S
C1216 H1202 0.961 . S
C1216 C1215 1.502 . S
C1217 H1203 0.960 . S
C1217 H1204 0.961 . S
C1217 H1205 0.959 . S
C1217 C1215 1.561 . S
C1218 C1215 1.526 . S
C1218 C1219 1.396 1_565 S
C1218 C1223 1.390 . S
C1219 C1213 1.465 . S
C1219 C1218 1.396 1_545 S
C1219 C1220 1.399 . S
C1220 H1206 0.929 . S
C1220 C1219 1.399 . S
C1220 C1221 1.385 . S
C1221 H1207 0.931 . S
C1221 C1220 1.385 . S
C1221 C1222 1.389 1_545 S
C1222 C1221 1.389 1_565 S
C1222 C1223 1.387 . S
C1223 H1208 0.930 . S
C1223 C1218 1.390 . S
C1223 C1222 1.387 . S
H1224 C1236 0.930 . S
H1225 C1238 0.930 . S
H1226 C1239 0.930 . S
H1227 C1243 0.959 . S
H1228 C1243 0.959 . S
H1229 C1243 0.961 . S
H1230 C1244 0.960 . S
H1231 C1244 0.961 . S
H1232 C1244 0.959 . S
H1233 C1247 0.929 . S
H1234 C1248 0.931 . S
H1235 C1250 0.930 . S
C1236 H1224 0.930 . S
C1236 C1237 1.399 . S
C1236 C1241 1.399 . S
C1237 C1236 1.399 . S
C1237 C1238 1.376 1_455 S
C1238 H1225 0.930 . S
C1238 C1237 1.376 1_655 S
C1238 C1239 1.388 . S
C1239 H1226 0.930 . S
C1239 C1238 1.388 . S
C1239 C1240 1.390 1_655 S
C1240 C1239 1.390 1_455 S
C1240 C1241 1.394 . S
C1240 C1246 1.465 . S
C1241 C1236 1.399 . S
C1241 C1240 1.394 . S
C1241 C1242 1.516 . S
C1242 C1241 1.516 . S
C1242 C1243 1.502 . S
C1242 C1244 1.561 . S
C1242 C1245 1.526 . S
C1243 H1227 0.959 . S
C1243 H1228 0.959 . S
C1243 H1229 0.961 . S
C1243 C1242 1.502 . S
C1244 H1230 0.960 . S
C1244 H1231 0.961 . S
C1244 H1232 0.959 . S
C1244 C1242 1.561 . S
C1245 C1242 1.526 . S
C1245 C1246 1.395 . S
C1245 C1250 1.390 . S
C1246 C1240 1.465 . S
C1246 C1245 1.395 . S
C1246 C1247 1.400 1_455 S
C1247 H1233 0.929 . S
C1247 C1246 1.400 1_655 S
C1247 C1248 1.385 . S
C1248 H1234 0.931 . S
C1248 C1247 1.385 . S
C1248 C1249 1.389 1_655 S
C1249 C1248 1.389 1_455 S
C1249 C1250 1.387 . S
C1250 H1235 0.930 . S
C1250 C1245 1.390 . S
C1250 C1249 1.387 . S
H1251 C1263 0.930 . S
H1252 C1265 0.930 . S
H1253 C1266 0.930 . S
H1254 C1270 0.959 . S
H1255 C1270 0.959 . S
H1256 C1270 0.961 . S
H1257 C1271 0.960 . S
H1258 C1271 0.961 . S
H1259 C1271 0.959 . S
H1260 C1274 0.929 . S
H1261 C1275 0.931 . S
H1262 C1277 0.930 . S
C1263 H1251 0.930 . S
C1263 C1264 1.399 . S
C1263 C1268 1.399 . S
C1264 C1263 1.399 . S
C1264 C1265 1.376 . S
C1265 H1252 0.930 . S
C1265 C1264 1.376 . S
C1265 C1266 1.388 . S
C1266 H1253 0.930 . S
C1266 C1265 1.388 . S
C1266 C1267 1.390 . S
C1267 C1266 1.390 . S
C1267 C1268 1.394 . S
C1267 C1273 1.465 . S
C1268 C1263 1.399 . S
C1268 C1267 1.394 . S
C1268 C1269 1.516 . S
C1269 C1268 1.516 . S
C1269 C1270 1.502 . S
C1269 C1271 1.561 . S
C1269 C1272 1.526 . S
C1270 H1254 0.959 . S
C1270 H1255 0.959 . S
C1270 H1256 0.961 . S
C1270 C1269 1.502 . S
C1271 H1257 0.960 . S
C1271 H1258 0.961 . S
C1271 H1259 0.959 . S
C1271 C1269 1.561 . S
C1272 C1269 1.526 . S
C1272 C1273 1.396 . S
C1272 C1277 1.390 . S
C1273 C1267 1.465 . S
C1273 C1272 1.396 . S
C1273 C1274 1.399 . S
C1274 H1260 0.929 . S
C1274 C1273 1.399 . S
C1274 C1275 1.385 . S
C1275 H1261 0.931 . S
C1275 C1274 1.385 . S
C1275 C1276 1.389 . S
C1276 C1275 1.389 . S
C1276 C1277 1.387 . S
C1277 H1262 0.930 . S
C1277 C1272 1.390 . S
C1277 C1276 1.387 . S
H1278 C1290 0.898 1_655 S
H1279 C1292 0.930 . S
H1280 C1293 0.930 . S
H1281 C1297 0.959 . S
H1282 C1297 0.959 . S
H1283 C1297 0.961 . S
H1284 C1298 0.932 1_655 S
H1285 C1298 0.951 1_655 S
H1286 C1298 0.998 . S
H1287 C1301 0.929 . S
H1288 C1302 0.931 . S
H1289 C1304 0.930 . S
C1290 H1278 0.898 1_455 S
C1290 C1291 1.414 . S
C1290 C1295 1.417 . S
C1291 C1290 1.414 . S
C1291 C1292 1.376 . S
C1292 H1279 0.930 . S
C1292 C1291 1.376 . S
C1292 C1293 1.388 . S
C1293 H1280 0.930 . S
C1293 C1292 1.388 . S
C1293 C1294 1.390 . S
C1294 C1293 1.390 . S
C1294 C1295 1.394 . S
C1294 C1300 1.465 . S
C1295 C1290 1.417 . S
C1295 C1294 1.394 . S
C1295 C1296 1.516 1_455 S
C1296 C1295 1.516 1_655 S
C1296 C1297 1.502 . S
C1296 C1298 1.562 1_655 S
C1296 C1299 1.479 1_655 S
C1297 H1281 0.959 . S
C1297 H1282 0.959 . S
C1297 H1283 0.961 . S
C1297 C1296 1.502 . S
C1298 H1284 0.932 1_455 S
C1298 H1285 0.951 1_455 S
C1298 H1286 0.998 . S
C1298 C1296 1.562 1_455 S
C1299 C1296 1.479 1_455 S
C1299 C1300 1.439 . S
C1299 C1304 1.400 1_455 S
C1300 C1294 1.465 . S
C1300 C1299 1.439 . S
C1300 C1301 1.399 . S
C1301 H1287 0.929 . S
C1301 C1300 1.399 . S
C1301 C1302 1.385 . S
C1302 H1288 0.931 . S
C1302 C1301 1.385 . S
C1302 C1303 1.389 . S
C1303 C1302 1.389 . S
C1303 C1304 1.387 1_455 S
C1304 H1289 0.930 . S
C1304 C1299 1.400 1_655 S
C1304 C1303 1.387 1_655 S
H1305 C1317 0.930 . S
H1306 C1319 0.930 . S
H1307 C1320 0.930 . S
H1308 C1324 0.959 . S
H1309 C1324 0.959 . S
H1310 C1324 0.961 . S
H1311 C1325 0.960 . S
H1312 C1325 0.961 . S
H1313 C1325 0.959 . S
H1314 C1328 0.929 . S
H1315 C1329 0.931 . S
H1316 C1331 0.930 . S
C1317 H1305 0.930 . S
C1317 C1318 1.399 . S
C1317 C1322 1.399 . S
C1318 C1317 1.399 . S
C1318 C1319 1.376 . S
C1319 H1306 0.930 . S
C1319 C1318 1.376 . S
C1319 C1320 1.388 . S
C1320 H1307 0.930 . S
C1320 C1319 1.388 . S
C1320 C1321 1.390 . S
C1321 C1320 1.390 . S
C1321 C1322 1.394 . S
C1321 C1327 1.465 . S
C1322 C1317 1.399 . S
C1322 C1321 1.394 . S
C1322 C1323 1.516 . S
C1323 C1322 1.516 . S
C1323 C1324 1.502 . S
C1323 C1325 1.561 . S
C1323 C1326 1.526 . S
C1324 H1308 0.959 . S
C1324 H1309 0.959 . S
C1324 H1310 0.961 . S
C1324 C1323 1.502 . S
C1325 H1311 0.960 . S
C1325 H1312 0.961 . S
C1325 H1313 0.959 . S
C1325 C1323 1.561 . S
C1326 C1323 1.526 . S
C1326 C1327 1.396 . S
C1326 C1331 1.390 . S
C1327 C1321 1.465 . S
C1327 C1326 1.396 . S
C1327 C1328 1.399 . S
C1328 H1314 0.929 . S
C1328 C1327 1.399 . S
C1328 C1329 1.385 . S
C1329 H1315 0.931 . S
C1329 C1328 1.385 . S
C1329 C1330 1.389 . S
C1330 C1329 1.389 . S
C1330 C1331 1.387 . S
C1331 H1316 0.930 . S
C1331 C1326 1.390 . S
C1331 C1330 1.387 . S
H1332 C1344 0.930 . S
H1333 C1346 0.930 . S
H1334 C1347 0.930 . S
H1335 C1351 0.959 . S
H1336 C1351 0.959 . S
H1337 C1351 0.961 . S
H1338 C1352 0.960 . S
H1339 C1352 0.961 . S
H1340 C1352 0.959 . S
H1341 C1355 0.929 . S
H1342 C1356 0.931 . S
H1343 C1358 0.930 . S
C1344 H1332 0.930 . S
C1344 C1345 1.399 1_545 S
C1344 C1349 1.399 . S
C1345 C1344 1.399 1_565 S
C1345 C1346 1.376 . S
C1346 H1333 0.930 . S
C1346 C1345 1.376 . S
C1346 C1347 1.388 . S
C1347 H1334 0.930 . S
C1347 C1346 1.388 . S
C1347 C1348 1.390 . S
C1348 C1347 1.390 . S
C1348 C1349 1.394 1_565 S
C1348 C1354 1.465 . S
C1349 C1344 1.399 . S
C1349 C1348 1.394 1_545 S
C1349 C1350 1.516 . S
C1350 C1349 1.516 . S
C1350 C1351 1.502 . S
C1350 C1352 1.561 . S
C1350 C1353 1.526 . S
C1351 H1335 0.959 . S
C1351 H1336 0.959 . S
C1351 H1337 0.961 . S
C1351 C1350 1.502 . S
C1352 H1338 0.960 . S
C1352 H1339 0.961 . S
C1352 H1340 0.959 . S
C1352 C1350 1.561 . S
C1353 C1350 1.526 . S
C1353 C1354 1.396 1_545 S
C1353 C1358 1.390 . S
C1354 C1348 1.465 . S
C1354 C1353 1.396 1_565 S
C1354 C1355 1.399 . S
C1355 H1341 0.929 . S
C1355 C1354 1.399 . S
C1355 C1356 1.385 . S
C1356 H1342 0.931 . S
C1356 C1355 1.385 . S
C1356 C1357 1.389 . S
C1357 C1356 1.389 . S
C1357 C1358 1.387 1_565 S
C1358 H1343 0.930 . S
C1358 C1353 1.390 . S
C1358 C1357 1.387 1_545 S
H1359 C1371 0.930 . S
H1360 C1373 0.930 . S
H1361 C1374 0.930 1_565 S
H1362 C1378 0.959 . S
H1363 C1378 0.959 . S
H1364 C1378 0.961 . S
H1365 C1379 0.960 . S
H1366 C1379 0.961 . S
H1367 C1379 0.959 1_565 S
H1368 C1382 0.929 . S
H1369 C1383 0.931 . S
H1370 C1385 0.930 . S
C1371 H1359 0.930 . S
C1371 C1372 1.399 . S
C1371 C1376 1.399 . S
C1372 C1371 1.399 . S
C1372 C1373 1.376 . S
C1373 H1360 0.930 . S
C1373 C1372 1.376 . S
C1373 C1374 1.388 . S
C1374 H1361 0.930 1_545 S
C1374 C1373 1.388 . S
C1374 C1375 1.390 . S
C1375 C1374 1.390 . S
C1375 C1376 1.394 . S
C1375 C1381 1.465 . S
C1376 C1371 1.399 . S
C1376 C1375 1.394 . S
C1376 C1377 1.516 . S
C1377 C1376 1.516 . S
C1377 C1378 1.502 . S
C1377 C1379 1.561 . S
C1377 C1380 1.526 . S
C1378 H1362 0.959 . S
C1378 H1363 0.959 . S
C1378 H1364 0.961 . S
C1378 C1377 1.502 . S
C1379 H1365 0.960 . S
C1379 H1366 0.961 . S
C1379 H1367 0.959 1_545 S
C1379 C1377 1.561 . S
C1380 C1377 1.526 . S
C1380 C1381 1.396 . S
C1380 C1385 1.390 . S
C1381 C1375 1.465 . S
C1381 C1380 1.396 . S
C1381 C1382 1.399 1_545 S
C1382 H1368 0.929 . S
C1382 C1381 1.399 1_565 S
C1382 C1383 1.385 . S
C1383 H1369 0.931 . S
C1383 C1382 1.385 . S
C1383 C1384 1.389 1_565 S
C1384 C1383 1.389 1_545 S
C1384 C1385 1.387 . S
C1385 H1370 0.930 . S
C1385 C1380 1.390 . S
C1385 C1384 1.387 . S
H1386 C1398 0.930 . S
H1387 C1400 0.930 . S
H1388 C1401 0.930 . S
H1389 C1405 0.959 . S
H1390 C1405 0.959 . S
H1391 C1405 0.961 . S
H1392 C1406 0.960 . S
H1393 C1406 0.961 . S
H1394 C1406 0.959 1_655 S
H1395 C1409 0.929 . S
H1396 C1410 0.931 . S
H1397 C1412 0.930 . S
C1398 H1386 0.930 . S
C1398 C1399 1.399 1_455 S
C1398 C1403 1.399 1_455 S
C1399 C1398 1.399 1_655 S
C1399 C1400 1.376 . S
C1400 H1387 0.930 . S
C1400 C1399 1.376 . S
C1400 C1401 1.388 . S
C1401 H1388 0.930 . S
C1401 C1400 1.388 . S
C1401 C1402 1.390 . S
C1402 C1401 1.390 . S
C1402 C1403 1.394 . S
C1402 C1408 1.465 . S
C1403 C1398 1.399 1_655 S
C1403 C1402 1.394 . S
C1403 C1404 1.516 1_655 S
C1404 C1403 1.516 1_455 S
C1404 C1405 1.502 . S
C1404 C1406 1.561 . S
C1404 C1407 1.525 . S
C1405 H1389 0.959 . S
C1405 H1390 0.959 . S
C1405 H1391 0.961 . S
C1405 C1404 1.502 . S
C1406 H1392 0.960 . S
C1406 H1393 0.961 . S
C1406 H1394 0.959 1_455 S
C1406 C1404 1.561 . S
C1407 C1404 1.525 . S
C1407 C1408 1.366 1_455 S
C1407 C1412 1.416 . S
C1408 C1402 1.465 . S
C1408 C1407 1.366 1_655 S
C1408 C1409 1.399 . S
C1409 H1395 0.929 . S
C1409 C1408 1.399 . S
C1409 C1410 1.385 . S
C1410 H1396 0.931 . S
C1410 C1409 1.385 . S
C1410 C1411 1.389 . S
C1411 C1410 1.389 . S
C1411 C1412 1.387 1_655 S
C1412 H1397 0.930 . S
C1412 C1407 1.416 . S
C1412 C1411 1.387 1_455 S
H1413 C1425 0.930 . S
H1414 C1427 0.930 . S
H1415 C1428 0.930 . S
H1416 C1432 0.959 . S
H1417 C1432 0.959 . S
H1418 C1432 0.961 . S
H1419 C1433 0.960 . S
H1420 C1433 0.961 . S
H1421 C1433 0.959 . S
H1422 C1436 0.929 . S
H1423 C1437 0.931 . S
H1424 C1439 0.930 . S
C1425 H1413 0.930 . S
C1425 C1426 1.399 . S
C1425 C1430 1.399 . S
C1426 C1425 1.399 . S
C1426 C1427 1.376 . S
C1427 H1414 0.930 . S
C1427 C1426 1.376 . S
C1427 C1428 1.388 . S
C1428 H1415 0.930 . S
C1428 C1427 1.388 . S
C1428 C1429 1.390 . S
C1429 C1428 1.390 . S
C1429 C1430 1.394 . S
C1429 C1435 1.465 . S
C1430 C1425 1.399 . S
C1430 C1429 1.394 . S
C1430 C1431 1.516 . S
C1431 C1430 1.516 . S
C1431 C1432 1.502 . S
C1431 C1433 1.561 . S
C1431 C1434 1.526 . S
C1432 H1416 0.959 . S
C1432 H1417 0.959 . S
C1432 H1418 0.961 . S
C1432 C1431 1.502 . S
C1433 H1419 0.960 . S
C1433 H1420 0.961 . S
C1433 H1421 0.959 . S
C1433 C1431 1.561 . S
C1434 C1431 1.526 . S
C1434 C1435 1.396 . S
C1434 C1439 1.390 . S
C1435 C1429 1.465 . S
C1435 C1434 1.396 . S
C1435 C1436 1.399 . S
C1436 H1422 0.929 . S
C1436 C1435 1.399 . S
C1436 C1437 1.385 . S
C1437 H1423 0.931 . S
C1437 C1436 1.385 . S
C1437 C1438 1.389 . S
C1438 C1437 1.389 . S
C1438 C1439 1.387 . S
C1439 H1424 0.930 . S
C1439 C1434 1.390 . S
C1439 C1438 1.387 . S
H1440 C1452 0.930 . S
H1441 C1454 0.930 . S
H1442 C1455 0.930 . S
H1443 C1459 0.959 . S
H1444 C1459 0.959 . S
H1445 C1459 0.961 . S
H1446 C1460 0.960 . S
H1447 C1460 0.961 . S
H1448 C1460 0.959 . S
H1449 C1463 0.929 . S
H1450 C1464 0.931 . S
H1451 C1466 0.930 . S
C1452 H1440 0.930 . S
C1452 C1453 1.399 . S
C1452 C1457 1.399 . S
C1453 C1452 1.399 . S
C1453 C1454 1.376 . S
C1454 H1441 0.930 . S
C1454 C1453 1.376 . S
C1454 C1455 1.388 . S
C1455 H1442 0.930 . S
C1455 C1454 1.388 . S
C1455 C1456 1.390 . S
C1456 C1455 1.390 . S
C1456 C1457 1.394 . S
C1456 C1462 1.465 . S
C1457 C1452 1.399 . S
C1457 C1456 1.394 . S
C1457 C1458 1.516 . S
C1458 C1457 1.516 . S
C1458 C1459 1.502 . S
C1458 C1460 1.561 . S
C1458 C1461 1.526 . S
C1459 H1443 0.959 . S
C1459 H1444 0.959 . S
C1459 H1445 0.961 . S
C1459 C1458 1.502 . S
C1460 H1446 0.960 . S
C1460 H1447 0.961 . S
C1460 H1448 0.959 . S
C1460 C1458 1.561 . S
C1461 C1458 1.526 . S
C1461 C1462 1.396 . S
C1461 C1466 1.390 . S
C1462 C1456 1.465 . S
C1462 C1461 1.396 . S
C1462 C1463 1.399 . S
C1463 H1449 0.929 . S
C1463 C1462 1.399 . S
C1463 C1464 1.385 . S
C1464 H1450 0.931 . S
C1464 C1463 1.385 . S
C1464 C1465 1.389 . S
C1465 C1464 1.389 . S
C1465 C1466 1.387 . S
C1466 H1451 0.930 . S
C1466 C1461 1.390 . S
C1466 C1465 1.387 . S
H1467 C1479 0.930 . S
H1468 C1481 0.930 . S
H1469 C1482 0.930 . S
H1470 C1486 0.959 . S
H1471 C1486 0.959 . S
H1472 C1486 0.961 . S
H1473 C1487 0.960 . S
H1474 C1487 0.961 . S
H1475 C1487 0.959 . S
H1476 C1490 0.929 . S
H1477 C1491 0.931 . S
H1478 C1493 0.930 . S
C1479 H1467 0.930 . S
C1479 C1480 1.399 . S
C1479 C1484 1.399 . S
C1480 C1479 1.399 . S
C1480 C1481 1.376 . S
C1481 H1468 0.930 . S
C1481 C1480 1.376 . S
C1481 C1482 1.388 . S
C1482 H1469 0.930 . S
C1482 C1481 1.388 . S
C1482 C1483 1.390 . S
C1483 C1482 1.390 . S
C1483 C1484 1.394 . S
C1483 C1489 1.465 . S
C1484 C1479 1.399 . S
C1484 C1483 1.394 . S
C1484 C1485 1.516 . S
C1485 C1484 1.516 . S
C1485 C1486 1.502 . S
C1485 C1487 1.561 . S
C1485 C1488 1.526 . S
C1486 H1470 0.959 . S
C1486 H1471 0.959 . S
C1486 H1472 0.961 . S
C1486 C1485 1.502 . S
C1487 H1473 0.960 . S
C1487 H1474 0.961 . S
C1487 H1475 0.959 . S
C1487 C1485 1.561 . S
C1488 C1485 1.526 . S
C1488 C1489 1.396 . S
C1488 C1493 1.390 . S
C1489 C1483 1.465 . S
C1489 C1488 1.396 . S
C1489 C1490 1.399 . S
C1490 H1476 0.929 . S
C1490 C1489 1.399 . S
C1490 C1491 1.385 . S
C1491 H1477 0.931 . S
C1491 C1490 1.385 . S
C1491 C1492 1.389 . S
C1492 C1491 1.389 . S
C1492 C1493 1.387 . S
C1493 H1478 0.930 . S
C1493 C1488 1.390 . S
C1493 C1492 1.387 . S
H1494 C1506 0.930 . S
H1495 C1508 0.930 . S
H1496 C1509 0.930 . S
H1497 C1513 0.959 . S
H1498 C1513 0.959 . S
H1499 C1513 0.961 . S
H1500 C1514 0.960 . S
H1501 C1514 0.961 . S
H1502 C1514 0.959 . S
H1503 C1517 0.929 . S
H1504 C1518 0.931 . S
H1505 C1520 0.930 . S
C1506 H1494 0.930 . S
C1506 C1507 1.399 . S
C1506 C1511 1.399 . S
C1507 C1506 1.399 . S
C1507 C1508 1.376 . S
C1508 H1495 0.930 . S
C1508 C1507 1.376 . S
C1508 C1509 1.388 . S
C1509 H1496 0.930 . S
C1509 C1508 1.388 . S
C1509 C1510 1.390 . S
C1510 C1509 1.390 . S
C1510 C1511 1.394 . S
C1510 C1516 1.465 . S
C1511 C1506 1.399 . S
C1511 C1510 1.394 . S
C1511 C1512 1.516 . S
C1512 C1511 1.516 . S
C1512 C1513 1.502 . S
C1512 C1514 1.561 . S
C1512 C1515 1.526 . S
C1513 H1497 0.959 . S
C1513 H1498 0.959 . S
C1513 H1499 0.961 . S
C1513 C1512 1.502 . S
C1514 H1500 0.960 . S
C1514 H1501 0.961 . S
C1514 H1502 0.959 . S
C1514 C1512 1.561 . S
C1515 C1512 1.526 . S
C1515 C1516 1.396 . S
C1515 C1520 1.390 . S
C1516 C1510 1.465 . S
C1516 C1515 1.396 . S
C1516 C1517 1.399 . S
C1517 H1503 0.929 . S
C1517 C1516 1.399 . S
C1517 C1518 1.385 . S
C1518 H1504 0.931 . S
C1518 C1517 1.385 . S
C1518 C1519 1.389 . S
C1519 C1518 1.389 . S
C1519 C1520 1.387 . S
C1520 H1505 0.930 . S
C1520 C1515 1.390 . S
C1520 C1519 1.387 . S
H1521 C1533 0.930 . S
H1522 C1535 0.930 . S
H1523 C1536 0.930 . S
H1524 C1540 0.959 . S
H1525 C1540 0.959 . S
H1526 C1540 0.961 . S
H1527 C1541 0.960 . S
H1528 C1541 0.961 . S
H1529 C1541 0.959 . S
H1530 C1544 0.929 . S
H1531 C1545 0.931 . S
H1532 C1547 0.930 . S
C1533 H1521 0.930 . S
C1533 C1534 1.399 . S
C1533 C1538 1.399 . S
C1534 C1533 1.399 . S
C1534 C1535 1.376 . S
C1535 H1522 0.930 . S
C1535 C1534 1.376 . S
C1535 C1536 1.388 . S
C1536 H1523 0.930 . S
C1536 C1535 1.388 . S
C1536 C1537 1.390 . S
C1537 C1536 1.390 . S
C1537 C1538 1.394 . S
C1537 C1543 1.465 . S
C1538 C1533 1.399 . S
C1538 C1537 1.394 . S
C1538 C1539 1.516 . S
C1539 C1538 1.516 . S
C1539 C1540 1.502 . S
C1539 C1541 1.561 . S
C1539 C1542 1.526 . S
C1540 H1524 0.959 . S
C1540 H1525 0.959 . S
C1540 H1526 0.961 . S
C1540 C1539 1.502 . S
C1541 H1527 0.960 . S
C1541 H1528 0.961 . S
C1541 H1529 0.959 . S
C1541 C1539 1.561 . S
C1542 C1539 1.526 . S
C1542 C1543 1.396 . S
C1542 C1547 1.390 . S
C1543 C1537 1.465 . S
C1543 C1542 1.396 . S
C1543 C1544 1.399 . S
C1544 H1530 0.929 . S
C1544 C1543 1.399 . S
C1544 C1545 1.385 . S
C1545 H1531 0.931 . S
C1545 C1544 1.385 . S
C1545 C1546 1.389 . S
C1546 C1545 1.389 . S
C1546 C1547 1.387 . S
C1547 H1532 0.930 . S
C1547 C1542 1.390 . S
C1547 C1546 1.387 . S
H1548 C1560 0.930 . S
H1549 C1562 0.930 . S
H1550 C1563 0.930 . S
H1551 C1567 0.959 . S
H1552 C1567 0.959 . S
H1553 C1567 0.961 . S
H1554 C1568 0.960 . S
H1555 C1568 0.961 . S
H1556 C1568 0.959 . S
H1557 C1571 0.929 . S
H1558 C1572 0.931 . S
H1559 C1574 0.930 . S
C1560 H1548 0.930 . S
C1560 C1561 1.399 . S
C1560 C1565 1.399 . S
C1561 C1560 1.399 . S
C1561 C1562 1.376 . S
C1562 H1549 0.930 . S
C1562 C1561 1.376 . S
C1562 C1563 1.388 . S
C1563 H1550 0.930 . S
C1563 C1562 1.388 . S
C1563 C1564 1.390 . S
C1564 C1563 1.390 . S
C1564 C1565 1.394 . S
C1564 C1570 1.465 . S
C1565 C1560 1.399 . S
C1565 C1564 1.394 . S
C1565 C1566 1.516 . S
C1566 C1565 1.516 . S
C1566 C1567 1.502 . S
C1566 C1568 1.561 . S
C1566 C1569 1.526 . S
C1567 H1551 0.959 . S
C1567 H1552 0.959 . S
C1567 H1553 0.961 . S
C1567 C1566 1.502 . S
C1568 H1554 0.960 . S
C1568 H1555 0.961 . S
C1568 H1556 0.959 . S
C1568 C1566 1.561 . S
C1569 C1566 1.526 . S
C1569 C1570 1.396 . S
C1569 C1574 1.390 . S
C1570 C1564 1.465 . S
C1570 C1569 1.396 . S
C1570 C1571 1.399 . S
C1571 H1557 0.929 . S
C1571 C1570 1.399 . S
C1571 C1572 1.385 . S
C1572 H1558 0.931 . S
C1572 C1571 1.385 . S
C1572 C1573 1.389 . S
C1573 C1572 1.389 . S
C1573 C1574 1.387 . S
C1574 H1559 0.930 . S
C1574 C1569 1.390 . S
C1574 C1573 1.387 . S
H1575 C1587 0.930 . S
H1576 C1589 0.930 . S
H1577 C1590 0.930 . S
H1578 C1594 0.959 . S
H1579 C1594 0.959 . S
H1580 C1594 0.961 . S
H1581 C1595 0.960 . S
H1582 C1595 0.961 . S
H1583 C1595 0.959 . S
H1584 C1598 0.929 . S
H1585 C1599 0.931 . S
H1586 C1601 0.930 . S
C1587 H1575 0.930 . S
C1587 C1588 1.399 . S
C1587 C1592 1.399 . S
C1588 C1587 1.399 . S
C1588 C1589 1.376 . S
C1589 H1576 0.930 . S
C1589 C1588 1.376 . S
C1589 C1590 1.388 . S
C1590 H1577 0.930 . S
C1590 C1589 1.388 . S
C1590 C1591 1.390 . S
C1591 C1590 1.390 . S
C1591 C1592 1.394 . S
C1591 C1597 1.465 . S
C1592 C1587 1.399 . S
C1592 C1591 1.394 . S
C1592 C1593 1.516 . S
C1593 C1592 1.516 . S
C1593 C1594 1.502 . S
C1593 C1595 1.561 . S
C1593 C1596 1.526 . S
C1594 H1578 0.959 . S
C1594 H1579 0.959 . S
C1594 H1580 0.961 . S
C1594 C1593 1.502 . S
C1595 H1581 0.960 . S
C1595 H1582 0.961 . S
C1595 H1583 0.959 . S
C1595 C1593 1.561 . S
C1596 C1593 1.526 . S
C1596 C1597 1.396 . S
C1596 C1601 1.390 . S
C1597 C1591 1.465 . S
C1597 C1596 1.396 . S
C1597 C1598 1.399 . S
C1598 H1584 0.929 . S
C1598 C1597 1.399 . S
C1598 C1599 1.385 . S
C1599 H1585 0.931 . S
C1599 C1598 1.385 . S
C1599 C1600 1.389 . S
C1600 C1599 1.389 . S
C1600 C1601 1.387 . S
C1601 H1586 0.930 . S
C1601 C1596 1.390 . S
C1601 C1600 1.387 . S
H1602 C1614 0.930 . S
H1603 C1616 0.930 . S
H1604 C1617 0.930 . S
H1605 C1621 0.959 . S
H1606 C1621 0.959 . S
H1607 C1621 0.961 . S
H1608 C1622 0.960 . S
H1609 C1622 0.961 . S
H1610 C1622 0.959 . S
H1611 C1625 0.929 . S
H1612 C1626 0.931 . S
H1613 C1628 0.930 . S
C1614 H1602 0.930 . S
C1614 C1615 1.399 . S
C1614 C1619 1.399 . S
C1615 C1614 1.399 . S
C1615 C1616 1.376 . S
C1616 H1603 0.930 . S
C1616 C1615 1.376 . S
C1616 C1617 1.388 . S
C1617 H1604 0.930 . S
C1617 C1616 1.388 . S
C1617 C1618 1.390 . S
C1618 C1617 1.390 . S
C1618 C1619 1.394 . S
C1618 C1624 1.465 . S
C1619 C1614 1.399 . S
C1619 C1618 1.394 . S
C1619 C1620 1.516 . S
C1620 C1619 1.516 . S
C1620 C1621 1.502 . S
C1620 C1622 1.561 . S
C1620 C1623 1.526 . S
C1621 H1605 0.959 . S
C1621 H1606 0.959 . S
C1621 H1607 0.961 . S
C1621 C1620 1.502 . S
C1622 H1608 0.960 . S
C1622 H1609 0.961 . S
C1622 H1610 0.959 . S
C1622 C1620 1.561 . S
C1623 C1620 1.526 . S
C1623 C1624 1.396 . S
C1623 C1628 1.390 . S
C1624 C1618 1.465 . S
C1624 C1623 1.396 . S
C1624 C1625 1.399 . S
C1625 H1611 0.929 . S
C1625 C1624 1.399 . S
C1625 C1626 1.385 . S
C1626 H1612 0.931 . S
C1626 C1625 1.385 . S
C1626 C1627 1.389 . S
C1627 C1626 1.389 . S
C1627 C1628 1.387 . S
C1628 H1613 0.930 . S
C1628 C1623 1.390 . S
C1628 C1627 1.387 . S
H1629 C1641 0.930 . S
H1630 C1643 0.930 . S
H1631 C1644 0.930 . S
H1632 C1648 0.959 . S
H1633 C1648 0.959 . S
H1634 C1648 0.961 . S
H1635 C1649 0.960 . S
H1636 C1649 0.961 . S
H1637 C1649 0.959 . S
H1638 C1652 0.929 . S
H1639 C1653 0.931 . S
H1640 C1655 0.930 . S
C1641 H1629 0.930 . S
C1641 C1642 1.399 . S
C1641 C1646 1.399 . S
C1642 C1641 1.399 . S
C1642 C1643 1.376 . S
C1643 H1630 0.930 . S
C1643 C1642 1.376 . S
C1643 C1644 1.388 . S
C1644 H1631 0.930 . S
C1644 C1643 1.388 . S
C1644 C1645 1.390 . S
C1645 C1644 1.390 . S
C1645 C1646 1.394 . S
C1645 C1651 1.465 . S
C1646 C1641 1.399 . S
C1646 C1645 1.394 . S
C1646 C1647 1.516 . S
C1647 C1646 1.516 . S
C1647 C1648 1.502 . S
C1647 C1649 1.561 . S
C1647 C1650 1.526 . S
C1648 H1632 0.959 . S
C1648 H1633 0.959 . S
C1648 H1634 0.961 . S
C1648 C1647 1.502 . S
C1649 H1635 0.960 . S
C1649 H1636 0.961 . S
C1649 H1637 0.959 . S
C1649 C1647 1.561 . S
C1650 C1647 1.526 . S
C1650 C1651 1.396 . S
C1650 C1655 1.390 . S
C1651 C1645 1.465 . S
C1651 C1650 1.396 . S
C1651 C1652 1.399 . S
C1652 H1638 0.929 . S
C1652 C1651 1.399 . S
C1652 C1653 1.385 . S
C1653 H1639 0.931 . S
C1653 C1652 1.385 . S
C1653 C1654 1.389 . S
C1654 C1653 1.389 . S
C1654 C1655 1.387 . S
C1655 H1640 0.930 . S
C1655 C1650 1.390 . S
C1655 C1654 1.387 . S
H1656 C1668 0.930 . S
H1657 C1670 0.930 . S
H1658 C1671 0.930 . S
H1659 C1675 0.959 . S
H1660 C1675 0.959 . S
H1661 C1675 0.961 . S
H1662 C1676 0.960 . S
H1663 C1676 0.961 . S
H1664 C1676 0.959 . S
H1665 C1679 0.929 . S
H1666 C1680 0.931 . S
H1667 C1682 0.930 . S
C1668 H1656 0.930 . S
C1668 C1669 1.399 . S
C1668 C1673 1.399 . S
C1669 C1668 1.399 . S
C1669 C1670 1.376 . S
C1670 H1657 0.930 . S
C1670 C1669 1.376 . S
C1670 C1671 1.388 . S
C1671 H1658 0.930 . S
C1671 C1670 1.388 . S
C1671 C1672 1.390 . S
C1672 C1671 1.390 . S
C1672 C1673 1.394 . S
C1672 C1678 1.465 . S
C1673 C1668 1.399 . S
C1673 C1672 1.394 . S
C1673 C1674 1.516 . S
C1674 C1673 1.516 . S
C1674 C1675 1.502 . S
C1674 C1676 1.561 . S
C1674 C1677 1.526 . S
C1675 H1659 0.959 . S
C1675 H1660 0.959 . S
C1675 H1661 0.961 . S
C1675 C1674 1.502 . S
C1676 H1662 0.960 . S
C1676 H1663 0.961 . S
C1676 H1664 0.959 . S
C1676 C1674 1.561 . S
C1677 C1674 1.526 . S
C1677 C1678 1.396 . S
C1677 C1682 1.390 . S
C1678 C1672 1.465 . S
C1678 C1677 1.396 . S
C1678 C1679 1.399 . S
C1679 H1665 0.929 . S
C1679 C1678 1.399 . S
C1679 C1680 1.385 . S
C1680 H1666 0.931 . S
C1680 C1679 1.385 . S
C1680 C1681 1.389 . S
C1681 C1680 1.389 . S
C1681 C1682 1.387 . S
C1682 H1667 0.930 . S
C1682 C1677 1.390 . S
C1682 C1681 1.387 . S
H1683 C1695 0.930 . S
H1684 C1697 0.930 . S
H1685 C1698 0.930 . S
H1686 C1702 0.959 . S
H1687 C1702 0.959 . S
H1688 C1702 0.961 . S
H1689 C1703 0.960 . S
H1690 C1703 0.961 . S
H1691 C1703 0.959 . S
H1692 C1706 0.929 . S
H1693 C1707 0.931 . S
H1694 C1709 0.930 . S
C1695 H1683 0.930 . S
C1695 C1696 1.399 . S
C1695 C1700 1.399 . S
C1696 C1695 1.399 . S
C1696 C1697 1.376 . S
C1697 H1684 0.930 . S
C1697 C1696 1.376 . S
C1697 C1698 1.388 . S
C1698 H1685 0.930 . S
C1698 C1697 1.388 . S
C1698 C1699 1.390 . S
C1699 C1698 1.390 . S
C1699 C1700 1.394 . S
C1699 C1705 1.465 . S
C1700 C1695 1.399 . S
C1700 C1699 1.394 . S
C1700 C1701 1.516 . S
C1701 C1700 1.516 . S
C1701 C1702 1.502 . S
C1701 C1703 1.561 . S
C1701 C1704 1.526 . S
C1702 H1686 0.959 . S
C1702 H1687 0.959 . S
C1702 H1688 0.961 . S
C1702 C1701 1.502 . S
C1703 H1689 0.960 . S
C1703 H1690 0.961 . S
C1703 H1691 0.959 . S
C1703 C1701 1.561 . S
C1704 C1701 1.526 . S
C1704 C1705 1.396 . S
C1704 C1709 1.390 . S
C1705 C1699 1.465 . S
C1705 C1704 1.396 . S
C1705 C1706 1.399 . S
C1706 H1692 0.929 . S
C1706 C1705 1.399 . S
C1706 C1707 1.385 . S
C1707 H1693 0.931 . S
C1707 C1706 1.385 . S
C1707 C1708 1.389 . S
C1708 C1707 1.389 . S
C1708 C1709 1.387 . S
C1709 H1694 0.930 . S
C1709 C1704 1.390 . S
C1709 C1708 1.387 . S
H1710 C1722 0.930 . S
H1711 C1724 0.930 . S
H1712 C1725 0.930 . S
H1713 C1729 0.959 . S
H1714 C1729 0.959 . S
H1715 C1729 0.961 . S
H1716 C1730 0.960 . S
H1717 C1730 0.961 . S
H1718 C1730 0.959 . S
H1719 C1733 0.929 . S
H1720 C1734 0.931 . S
H1721 C1736 0.930 . S
C1722 H1710 0.930 . S
C1722 C1723 1.399 . S
C1722 C1727 1.399 . S
C1723 C1722 1.399 . S
C1723 C1724 1.376 . S
C1724 H1711 0.930 . S
C1724 C1723 1.376 . S
C1724 C1725 1.388 . S
C1725 H1712 0.930 . S
C1725 C1724 1.388 . S
C1725 C1726 1.390 . S
C1726 C1725 1.390 . S
C1726 C1727 1.394 . S
C1726 C1732 1.465 . S
C1727 C1722 1.399 . S
C1727 C1726 1.394 . S
C1727 C1728 1.516 . S
C1728 C1727 1.516 . S
C1728 C1729 1.502 . S
C1728 C1730 1.561 . S
C1728 C1731 1.526 . S
C1729 H1713 0.959 . S
C1729 H1714 0.959 . S
C1729 H1715 0.961 . S
C1729 C1728 1.502 . S
C1730 H1716 0.960 . S
C1730 H1717 0.961 . S
C1730 H1718 0.959 . S
C1730 C1728 1.561 . S
C1731 C1728 1.526 . S
C1731 C1732 1.396 . S
C1731 C1736 1.390 . S
C1732 C1726 1.465 . S
C1732 C1731 1.396 . S
C1732 C1733 1.399 . S
C1733 H1719 0.929 . S
C1733 C1732 1.399 . S
C1733 C1734 1.385 . S
C1734 H1720 0.931 . S
C1734 C1733 1.385 . S
C1734 C1735 1.389 . S
C1735 C1734 1.389 . S
C1735 C1736 1.387 . S
C1736 H1721 0.930 . S
C1736 C1731 1.390 . S
C1736 C1735 1.387 . S
H1737 C1749 0.930 . S
H1738 C1751 0.930 . S
H1739 C1752 0.930 . S
H1740 C1756 0.959 . S
H1741 C1756 0.959 . S
H1742 C1756 0.961 . S
H1743 C1757 0.960 . S
H1744 C1757 0.961 . S
H1745 C1757 0.959 . S
H1746 C1760 0.929 . S
H1747 C1761 0.931 . S
H1748 C1763 0.930 . S
C1749 H1737 0.930 . S
C1749 C1750 1.399 . S
C1749 C1754 1.399 . S
C1750 C1749 1.399 . S
C1750 C1751 1.376 . S
C1751 H1738 0.930 . S
C1751 C1750 1.376 . S
C1751 C1752 1.388 . S
C1752 H1739 0.930 . S
C1752 C1751 1.388 . S
C1752 C1753 1.390 . S
C1753 C1752 1.390 . S
C1753 C1754 1.394 . S
C1753 C1759 1.465 . S
C1754 C1749 1.399 . S
C1754 C1753 1.394 . S
C1754 C1755 1.516 . S
C1755 C1754 1.516 . S
C1755 C1756 1.502 . S
C1755 C1757 1.561 . S
C1755 C1758 1.526 . S
C1756 H1740 0.959 . S
C1756 H1741 0.959 . S
C1756 H1742 0.961 . S
C1756 C1755 1.502 . S
C1757 H1743 0.960 . S
C1757 H1744 0.961 . S
C1757 H1745 0.959 . S
C1757 C1755 1.561 . S
C1758 C1755 1.526 . S
C1758 C1759 1.396 . S
C1758 C1763 1.390 . S
C1759 C1753 1.465 . S
C1759 C1758 1.396 . S
C1759 C1760 1.399 . S
C1760 H1746 0.929 . S
C1760 C1759 1.399 . S
C1760 C1761 1.385 . S
C1761 H1747 0.931 . S
C1761 C1760 1.385 . S
C1761 C1762 1.389 . S
C1762 C1761 1.389 . S
C1762 C1763 1.387 . S
C1763 H1748 0.930 . S
C1763 C1758 1.390 . S
C1763 C1762 1.387 . S
H1764 C1776 0.930 . S
H1765 C1778 0.930 . S
H1766 C1779 0.930 . S
H1767 C1783 0.959 . S
H1768 C1783 0.959 . S
H1769 C1783 0.961 . S
H1770 C1784 0.960 . S
H1771 C1784 0.961 . S
H1772 C1784 0.959 . S
H1773 C1787 0.929 . S
H1774 C1788 0.931 . S
H1775 C1790 0.930 . S
C1776 H1764 0.930 . S
C1776 C1777 1.399 . S
C1776 C1781 1.399 . S
C1777 C1776 1.399 . S
C1777 C1778 1.376 . S
C1778 H1765 0.930 . S
C1778 C1777 1.376 . S
C1778 C1779 1.388 . S
C1779 H1766 0.930 . S
C1779 C1778 1.388 . S
C1779 C1780 1.390 . S
C1780 C1779 1.390 . S
C1780 C1781 1.394 . S
C1780 C1786 1.465 . S
C1781 C1776 1.399 . S
C1781 C1780 1.394 . S
C1781 C1782 1.516 . S
C1782 C1781 1.516 . S
C1782 C1783 1.502 . S
C1782 C1784 1.561 . S
C1782 C1785 1.526 . S
C1783 H1767 0.959 . S
C1783 H1768 0.959 . S
C1783 H1769 0.961 . S
C1783 C1782 1.502 . S
C1784 H1770 0.960 . S
C1784 H1771 0.961 . S
C1784 H1772 0.959 . S
C1784 C1782 1.561 . S
C1785 C1782 1.526 . S
C1785 C1786 1.396 . S
C1785 C1790 1.390 . S
C1786 C1780 1.465 . S
C1786 C1785 1.396 . S
C1786 C1787 1.399 . S
C1787 H1773 0.929 . S
C1787 C1786 1.399 . S
C1787 C1788 1.385 . S
C1788 H1774 0.931 . S
C1788 C1787 1.385 . S
C1788 C1789 1.389 . S
C1789 C1788 1.389 . S
C1789 C1790 1.387 . S
C1790 H1775 0.930 . S
C1790 C1785 1.390 . S
C1790 C1789 1.387 . S
H1791 C1803 0.930 . S
H1792 C1805 0.930 . S
H1793 C1806 0.930 . S
H1794 C1810 0.959 . S
H1795 C1810 0.959 . S
H1796 C1810 0.961 . S
H1797 C1811 0.960 . S
H1798 C1811 0.961 . S
H1799 C1811 0.959 . S
H1800 C1814 0.929 . S
H1801 C1815 0.931 . S
H1802 C1817 0.930 . S
C1803 H1791 0.930 . S
C1803 C1804 1.399 . S
C1803 C1808 1.399 . S
C1804 C1803 1.399 . S
C1804 C1805 1.376 . S
C1805 H1792 0.930 . S
C1805 C1804 1.376 . S
C1805 C1806 1.388 . S
C1806 H1793 0.930 . S
C1806 C1805 1.388 . S
C1806 C1807 1.390 . S
C1807 C1806 1.390 . S
C1807 C1808 1.394 . S
C1807 C1813 1.465 . S
C1808 C1803 1.399 . S
C1808 C1807 1.394 . S
C1808 C1809 1.516 . S
C1809 C1808 1.516 . S
C1809 C1810 1.502 . S
C1809 C1811 1.561 . S
C1809 C1812 1.526 . S
C1810 H1794 0.959 . S
C1810 H1795 0.959 . S
C1810 H1796 0.961 . S
C1810 C1809 1.502 . S
C1811 H1797 0.960 . S
C1811 H1798 0.961 . S
C1811 H1799 0.959 . S
C1811 C1809 1.561 . S
C1812 C1809 1.526 . S
C1812 C1813 1.396 . S
C1812 C1817 1.390 . S
C1813 C1807 1.465 . S
C1813 C1812 1.396 . S
C1813 C1814 1.399 . S
C1814 H1800 0.929 . S
C1814 C1813 1.399 . S
C1814 C1815 1.385 . S
C1815 H1801 0.931 . S
C1815 C1814 1.385 . S
C1815 C1816 1.389 . S
C1816 C1815 1.389 . S
C1816 C1817 1.387 . S
C1817 H1802 0.930 . S
C1817 C1812 1.390 . S
C1817 C1816 1.387 . S
H1818 C1830 0.930 . S
H1819 C1832 0.930 . S
H1820 C1833 0.930 . S
H1821 C1837 0.959 . S
H1822 C1837 0.959 . S
H1823 C1837 0.961 . S
H1824 C1838 0.960 . S
H1825 C1838 0.961 . S
H1826 C1838 0.959 . S
H1827 C1841 0.929 . S
H1828 C1842 0.931 . S
H1829 C1844 0.930 . S
C1830 H1818 0.930 . S
C1830 C1831 1.399 . S
C1830 C1835 1.399 . S
C1831 C1830 1.399 . S
C1831 C1832 1.376 . S
C1832 H1819 0.930 . S
C1832 C1831 1.376 . S
C1832 C1833 1.388 . S
C1833 H1820 0.930 . S
C1833 C1832 1.388 . S
C1833 C1834 1.390 . S
C1834 C1833 1.390 . S
C1834 C1835 1.394 . S
C1834 C1840 1.465 . S
C1835 C1830 1.399 . S
C1835 C1834 1.394 . S
C1835 C1836 1.516 . S
C1836 C1835 1.516 . S
C1836 C1837 1.502 . S
C1836 C1838 1.561 . S
C1836 C1839 1.526 . S
C1837 H1821 0.959 . S
C1837 H1822 0.959 . S
C1837 H1823 0.961 . S
C1837 C1836 1.502 . S
C1838 H1824 0.960 . S
C1838 H1825 0.961 . S
C1838 H1826 0.959 . S
C1838 C1836 1.561 . S
C1839 C1836 1.526 . S
C1839 C1840 1.396 . S
C1839 C1844 1.390 . S
C1840 C1834 1.465 . S
C1840 C1839 1.396 . S
C1840 C1841 1.399 . S
C1841 H1827 0.929 . S
C1841 C1840 1.399 . S
C1841 C1842 1.385 . S
C1842 H1828 0.931 . S
C1842 C1841 1.385 . S
C1842 C1843 1.389 . S
C1843 C1842 1.389 . S
C1843 C1844 1.387 . S
C1844 H1829 0.930 . S
C1844 C1839 1.390 . S
C1844 C1843 1.387 . S
H1845 C1857 0.930 . S
H1846 C1859 0.930 . S
H1847 C1860 0.930 . S
H1848 C1864 0.959 . S
H1849 C1864 0.959 . S
H1850 C1864 0.961 . S
H1851 C1865 0.960 . S
H1852 C1865 0.961 . S
H1853 C1865 0.959 . S
H1854 C1868 0.929 . S
H1855 C1869 0.931 . S
H1856 C1871 0.930 . S
C1857 H1845 0.930 . S
C1857 C1858 1.399 . S
C1857 C1862 1.399 . S
C1858 C1857 1.399 . S
C1858 C1859 1.376 . S
C1859 H1846 0.930 . S
C1859 C1858 1.376 . S
C1859 C1860 1.388 . S
C1860 H1847 0.930 . S
C1860 C1859 1.388 . S
C1860 C1861 1.390 . S
C1861 C1860 1.390 . S
C1861 C1862 1.394 . S
C1861 C1867 1.465 . S
C1862 C1857 1.399 . S
C1862 C1861 1.394 . S
C1862 C1863 1.516 . S
C1863 C1862 1.516 . S
C1863 C1864 1.502 . S
C1863 C1865 1.561 . S
C1863 C1866 1.526 . S
C1864 H1848 0.959 . S
C1864 H1849 0.959 . S
C1864 H1850 0.961 . S
C1864 C1863 1.502 . S
C1865 H1851 0.960 . S
C1865 H1852 0.961 . S
C1865 H1853 0.959 . S
C1865 C1863 1.561 . S
C1866 C1863 1.526 . S
C1866 C1867 1.396 . S
C1866 C1871 1.390 . S
C1867 C1861 1.465 . S
C1867 C1866 1.396 . S
C1867 C1868 1.399 . S
C1868 H1854 0.929 . S
C1868 C1867 1.399 . S
C1868 C1869 1.385 . S
C1869 H1855 0.931 . S
C1869 C1868 1.385 . S
C1869 C1870 1.389 . S
C1870 C1869 1.389 . S
C1870 C1871 1.387 . S
C1871 H1856 0.930 . S
C1871 C1866 1.390 . S
C1871 C1870 1.387 . S
H1872 C1884 0.930 . S
H1873 C1886 0.930 . S
H1874 C1887 0.930 . S
H1875 C1891 0.959 . S
H1876 C1891 0.959 . S
H1877 C1891 0.961 . S
H1878 C1892 0.960 . S
H1879 C1892 0.961 . S
H1880 C1892 0.959 . S
H1881 C1895 0.929 . S
H1882 C1896 0.931 . S
H1883 C1898 0.930 . S
C1884 H1872 0.930 . S
C1884 C1885 1.399 . S
C1884 C1889 1.399 . S
C1885 C1884 1.399 . S
C1885 C1886 1.376 . S
C1886 H1873 0.930 . S
C1886 C1885 1.376 . S
C1886 C1887 1.388 . S
C1887 H1874 0.930 . S
C1887 C1886 1.388 . S
C1887 C1888 1.390 . S
C1888 C1887 1.390 . S
C1888 C1889 1.394 . S
C1888 C1894 1.465 . S
C1889 C1884 1.399 . S
C1889 C1888 1.394 . S
C1889 C1890 1.516 . S
C1890 C1889 1.516 . S
C1890 C1891 1.502 . S
C1890 C1892 1.561 . S
C1890 C1893 1.526 . S
C1891 H1875 0.959 . S
C1891 H1876 0.959 . S
C1891 H1877 0.961 . S
C1891 C1890 1.502 . S
C1892 H1878 0.960 . S
C1892 H1879 0.961 . S
C1892 H1880 0.959 . S
C1892 C1890 1.561 . S
C1893 C1890 1.526 . S
C1893 C1894 1.396 . S
C1893 C1898 1.390 . S
C1894 C1888 1.465 . S
C1894 C1893 1.396 . S
C1894 C1895 1.399 . S
C1895 H1881 0.929 . S
C1895 C1894 1.399 . S
C1895 C1896 1.385 . S
C1896 H1882 0.931 . S
C1896 C1895 1.385 . S
C1896 C1897 1.389 . S
C1897 C1896 1.389 . S
C1897 C1898 1.387 . S
C1898 H1883 0.930 . S
C1898 C1893 1.390 . S
C1898 C1897 1.387 . S
H1899 C1911 0.930 . S
H1900 C1913 0.930 . S
H1901 C1914 0.930 . S
H1902 C1918 0.959 . S
H1903 C1918 0.959 . S
H1904 C1918 0.961 . S
H1905 C1919 0.960 . S
H1906 C1919 0.961 . S
H1907 C1919 0.959 . S
H1908 C1922 0.929 . S
H1909 C1923 0.931 . S
H1910 C1925 0.930 . S
C1911 H1899 0.930 . S
C1911 C1912 1.399 . S
C1911 C1916 1.399 . S
C1912 C1911 1.399 . S
C1912 C1913 1.376 . S
C1913 H1900 0.930 . S
C1913 C1912 1.376 . S
C1913 C1914 1.388 . S
C1914 H1901 0.930 . S
C1914 C1913 1.388 . S
C1914 C1915 1.390 . S
C1915 C1914 1.390 . S
C1915 C1916 1.394 . S
C1915 C1921 1.465 . S
C1916 C1911 1.399 . S
C1916 C1915 1.394 . S
C1916 C1917 1.516 . S
C1917 C1916 1.516 . S
C1917 C1918 1.502 . S
C1917 C1919 1.561 . S
C1917 C1920 1.526 . S
C1918 H1902 0.959 . S
C1918 H1903 0.959 . S
C1918 H1904 0.961 . S
C1918 C1917 1.502 . S
C1919 H1905 0.960 . S
C1919 H1906 0.961 . S
C1919 H1907 0.959 . S
C1919 C1917 1.561 . S
C1920 C1917 1.526 . S
C1920 C1921 1.396 . S
C1920 C1925 1.390 . S
C1921 C1915 1.465 . S
C1921 C1920 1.396 . S
C1921 C1922 1.399 . S
C1922 H1908 0.929 . S
C1922 C1921 1.399 . S
C1922 C1923 1.385 . S
C1923 H1909 0.931 . S
C1923 C1922 1.385 . S
C1923 C1924 1.389 . S
C1924 C1923 1.389 . S
C1924 C1925 1.387 . S
C1925 H1910 0.930 . S
C1925 C1920 1.390 . S
C1925 C1924 1.387 . S
H1926 C1938 0.930 . S
H1927 C1940 0.930 . S
H1928 C1941 0.930 . S
H1929 C1945 0.959 . S
H1930 C1945 0.959 . S
H1931 C1945 0.961 . S
H1932 C1946 0.960 . S
H1933 C1946 0.961 . S
H1934 C1946 0.959 . S
H1935 C1949 0.929 . S
H1936 C1950 0.931 . S
H1937 C1952 0.930 . S
C1938 H1926 0.930 . S
C1938 C1939 1.399 . S
C1938 C1943 1.399 . S
C1939 C1938 1.399 . S
C1939 C1940 1.376 . S
C1940 H1927 0.930 . S
C1940 C1939 1.376 . S
C1940 C1941 1.388 . S
C1941 H1928 0.930 . S
C1941 C1940 1.388 . S
C1941 C1942 1.390 . S
C1942 C1941 1.390 . S
C1942 C1943 1.394 . S
C1942 C1948 1.465 . S
C1943 C1938 1.399 . S
C1943 C1942 1.394 . S
C1943 C1944 1.516 . S
C1944 C1943 1.516 . S
C1944 C1945 1.502 . S
C1944 C1946 1.561 . S
C1944 C1947 1.526 . S
C1945 H1929 0.959 . S
C1945 H1930 0.959 . S
C1945 H1931 0.961 . S
C1945 C1944 1.502 . S
C1946 H1932 0.960 . S
C1946 H1933 0.961 . S
C1946 H1934 0.959 . S
C1946 C1944 1.561 . S
C1947 C1944 1.526 . S
C1947 C1948 1.396 . S
C1947 C1952 1.390 . S
C1948 C1942 1.465 . S
C1948 C1947 1.396 . S
C1948 C1949 1.399 . S
C1949 H1935 0.929 . S
C1949 C1948 1.399 . S
C1949 C1950 1.385 . S
C1950 H1936 0.931 . S
C1950 C1949 1.385 . S
C1950 C1951 1.389 . S
C1951 C1950 1.389 . S
C1951 C1952 1.387 . S
C1952 H1937 0.930 . S
C1952 C1947 1.390 . S
C1952 C1951 1.387 . S
H1953 C1965 0.930 . S
H1954 C1967 0.930 . S
H1955 C1968 0.930 . S
H1956 C1972 0.959 . S
H1957 C1972 0.959 . S
H1958 C1972 0.961 . S
H1959 C1973 0.960 . S
H1960 C1973 0.961 . S
H1961 C1973 0.959 . S
H1962 C1976 0.929 . S
H1963 C1977 0.931 . S
H1964 C1979 0.930 . S
C1965 H1953 0.930 . S
C1965 C1966 1.399 . S
C1965 C1970 1.399 . S
C1966 C1965 1.399 . S
C1966 C1967 1.376 . S
C1967 H1954 0.930 . S
C1967 C1966 1.376 . S
C1967 C1968 1.388 . S
C1968 H1955 0.930 . S
C1968 C1967 1.388 . S
C1968 C1969 1.390 . S
C1969 C1968 1.390 . S
C1969 C1970 1.394 . S
C1969 C1975 1.465 . S
C1970 C1965 1.399 . S
C1970 C1969 1.394 . S
C1970 C1971 1.516 . S
C1971 C1970 1.516 . S
C1971 C1972 1.502 . S
C1971 C1973 1.561 . S
C1971 C1974 1.526 . S
C1972 H1956 0.959 . S
C1972 H1957 0.959 . S
C1972 H1958 0.961 . S
C1972 C1971 1.502 . S
C1973 H1959 0.960 . S
C1973 H1960 0.961 . S
C1973 H1961 0.959 . S
C1973 C1971 1.561 . S
C1974 C1971 1.526 . S
C1974 C1975 1.396 . S
C1974 C1979 1.390 . S
C1975 C1969 1.465 . S
C1975 C1974 1.396 . S
C1975 C1976 1.399 . S
C1976 H1962 0.929 . S
C1976 C1975 1.399 . S
C1976 C1977 1.385 . S
C1977 H1963 0.931 . S
C1977 C1976 1.385 . S
C1977 C1978 1.389 . S
C1978 C1977 1.389 . S
C1978 C1979 1.387 . S
C1979 H1964 0.930 . S
C1979 C1974 1.390 . S
C1979 C1978 1.387 . S
H1980 C1992 0.930 . S
H1981 C1994 0.930 . S
H1982 C1995 0.930 . S
H1983 C1999 0.959 . S
H1984 C1999 0.959 . S
H1985 C1999 0.961 . S
H1986 C2000 0.960 . S
H1987 C2000 0.961 . S
H1988 C2000 0.959 . S
H1989 C2003 0.929 . S
H1990 C2004 0.931 . S
H1991 C2006 0.930 . S
C1992 H1980 0.930 . S
C1992 C1993 1.399 . S
C1992 C1997 1.399 . S
C1993 C1992 1.399 . S
C1993 C1994 1.376 . S
C1994 H1981 0.930 . S
C1994 C1993 1.376 . S
C1994 C1995 1.388 . S
C1995 H1982 0.930 . S
C1995 C1994 1.388 . S
C1995 C1996 1.390 . S
C1996 C1995 1.390 . S
C1996 C1997 1.394 . S
C1996 C2002 1.465 . S
C1997 C1992 1.399 . S
C1997 C1996 1.394 . S
C1997 C1998 1.516 . S
C1998 C1997 1.516 . S
C1998 C1999 1.502 . S
C1998 C2000 1.561 . S
C1998 C2001 1.526 . S
C1999 H1983 0.959 . S
C1999 H1984 0.959 . S
C1999 H1985 0.961 . S
C1999 C1998 1.502 . S
C2000 H1986 0.960 . S
C2000 H1987 0.961 . S
C2000 H1988 0.959 . S
C2000 C1998 1.561 . S
C2001 C1998 1.526 . S
C2001 C2002 1.396 . S
C2001 C2006 1.390 . S
C2002 C1996 1.465 . S
C2002 C2001 1.396 . S
C2002 C2003 1.399 . S
C2003 H1989 0.929 . S
C2003 C2002 1.399 . S
C2003 C2004 1.385 . S
C2004 H1990 0.931 . S
C2004 C2003 1.385 . S
C2004 C2005 1.389 . S
C2005 C2004 1.389 . S
C2005 C2006 1.387 . S
C2006 H1991 0.930 . S
C2006 C2001 1.390 . S
C2006 C2005 1.387 . S
H2007 C2019 0.930 . S
H2008 C2021 0.930 . S
H2009 C2022 0.930 . S
H2010 C2026 0.959 . S
H2011 C2026 0.959 . S
H2012 C2026 0.961 . S
H2013 C2027 0.960 . S
H2014 C2027 0.961 . S
H2015 C2027 0.959 . S
H2016 C2030 0.929 . S
H2017 C2031 0.931 . S
H2018 C2033 0.930 . S
C2019 H2007 0.930 . S
C2019 C2020 1.399 . S
C2019 C2024 1.399 . S
C2020 C2019 1.399 . S
C2020 C2021 1.376 . S
C2021 H2008 0.930 . S
C2021 C2020 1.376 . S
C2021 C2022 1.388 . S
C2022 H2009 0.930 . S
C2022 C2021 1.388 . S
C2022 C2023 1.390 . S
C2023 C2022 1.390 . S
C2023 C2024 1.394 . S
C2023 C2029 1.465 . S
C2024 C2019 1.399 . S
C2024 C2023 1.394 . S
C2024 C2025 1.516 . S
C2025 C2024 1.516 . S
C2025 C2026 1.502 . S
C2025 C2027 1.561 . S
C2025 C2028 1.526 . S
C2026 H2010 0.959 . S
C2026 H2011 0.959 . S
C2026 H2012 0.961 . S
C2026 C2025 1.502 . S
C2027 H2013 0.960 . S
C2027 H2014 0.961 . S
C2027 H2015 0.959 . S
C2027 C2025 1.561 . S
C2028 C2025 1.526 . S
C2028 C2029 1.396 . S
C2028 C2033 1.390 . S
C2029 C2023 1.465 . S
C2029 C2028 1.396 . S
C2029 C2030 1.399 . S
C2030 H2016 0.929 . S
C2030 C2029 1.399 . S
C2030 C2031 1.385 . S
C2031 H2017 0.931 . S
C2031 C2030 1.385 . S
C2031 C2032 1.389 . S
C2032 C2031 1.389 . S
C2032 C2033 1.387 . S
C2033 H2018 0.930 . S
C2033 C2028 1.390 . S
C2033 C2032 1.387 . S
H2034 C2046 0.930 . S
H2035 C2048 0.930 . S
H2036 C2049 0.930 . S
H2037 C2053 0.959 . S
H2038 C2053 0.959 . S
H2039 C2053 0.961 . S
H2040 C2054 0.960 . S
H2041 C2054 0.961 . S
H2042 C2054 0.959 . S
H2043 C2057 0.929 . S
H2044 C2058 0.931 . S
H2045 C2060 0.930 . S
C2046 H2034 0.930 . S
C2046 C2047 1.399 . S
C2046 C2051 1.399 . S
C2047 C2046 1.399 . S
C2047 C2048 1.376 . S
C2048 H2035 0.930 . S
C2048 C2047 1.376 . S
C2048 C2049 1.388 . S
C2049 H2036 0.930 . S
C2049 C2048 1.388 . S
C2049 C2050 1.390 . S
C2050 C2049 1.390 . S
C2050 C2051 1.394 . S
C2050 C2056 1.465 . S
C2051 C2046 1.399 . S
C2051 C2050 1.394 . S
C2051 C2052 1.516 . S
C2052 C2051 1.516 . S
C2052 C2053 1.502 . S
C2052 C2054 1.561 . S
C2052 C2055 1.526 . S
C2053 H2037 0.959 . S
C2053 H2038 0.959 . S
C2053 H2039 0.961 . S
C2053 C2052 1.502 . S
C2054 H2040 0.960 . S
C2054 H2041 0.961 . S
C2054 H2042 0.959 . S
C2054 C2052 1.561 . S
C2055 C2052 1.526 . S
C2055 C2056 1.396 . S
C2055 C2060 1.390 . S
C2056 C2050 1.465 . S
C2056 C2055 1.396 . S
C2056 C2057 1.399 . S
C2057 H2043 0.929 . S
C2057 C2056 1.399 . S
C2057 C2058 1.385 . S
C2058 H2044 0.931 . S
C2058 C2057 1.385 . S
C2058 C2059 1.389 . S
C2059 C2058 1.389 . S
C2059 C2060 1.387 . S
C2060 H2045 0.930 . S
C2060 C2055 1.390 . S
C2060 C2059 1.387 . S
H2061 C2073 0.930 . S
H2062 C2075 0.930 . S
H2063 C2076 0.930 . S
H2064 C2080 0.959 . S
H2065 C2080 0.959 . S
H2066 C2080 0.961 . S
H2067 C2081 0.960 . S
H2068 C2081 0.961 . S
H2069 C2081 0.959 . S
H2070 C2084 0.929 . S
H2071 C2085 0.931 . S
H2072 C2087 0.930 . S
C2073 H2061 0.930 . S
C2073 C2074 1.399 . S
C2073 C2078 1.399 . S
C2074 C2073 1.399 . S
C2074 C2075 1.376 . S
C2075 H2062 0.930 . S
C2075 C2074 1.376 . S
C2075 C2076 1.388 . S
C2076 H2063 0.930 . S
C2076 C2075 1.388 . S
C2076 C2077 1.390 . S
C2077 C2076 1.390 . S
C2077 C2078 1.394 . S
C2077 C2083 1.465 . S
C2078 C2073 1.399 . S
C2078 C2077 1.394 . S
C2078 C2079 1.516 . S
C2079 C2078 1.516 . S
C2079 C2080 1.502 . S
C2079 C2081 1.561 . S
C2079 C2082 1.526 . S
C2080 H2064 0.959 . S
C2080 H2065 0.959 . S
C2080 H2066 0.961 . S
C2080 C2079 1.502 . S
C2081 H2067 0.960 . S
C2081 H2068 0.961 . S
C2081 H2069 0.959 . S
C2081 C2079 1.561 . S
C2082 C2079 1.526 . S
C2082 C2083 1.396 . S
C2082 C2087 1.390 . S
C2083 C2077 1.465 . S
C2083 C2082 1.396 . S
C2083 C2084 1.399 . S
C2084 H2070 0.929 . S
C2084 C2083 1.399 . S
C2084 C2085 1.385 . S
C2085 H2071 0.931 . S
C2085 C2084 1.385 . S
C2085 C2086 1.389 . S
C2086 C2085 1.389 . S
C2086 C2087 1.387 . S
C2087 H2072 0.930 . S
C2087 C2082 1.390 . S
C2087 C2086 1.387 . S
H2088 C2100 0.930 . S
H2089 C2102 0.930 . S
H2090 C2103 0.930 . S
H2091 C2107 0.959 . S
H2092 C2107 0.959 . S
H2093 C2107 0.961 . S
H2094 C2108 0.960 . S
H2095 C2108 0.961 . S
H2096 C2108 0.959 . S
H2097 C2111 0.929 . S
H2098 C2112 0.931 . S
H2099 C2114 0.930 . S
C2100 H2088 0.930 . S
C2100 C2101 1.399 . S
C2100 C2105 1.399 . S
C2101 C2100 1.399 . S
C2101 C2102 1.376 . S
C2102 H2089 0.930 . S
C2102 C2101 1.376 . S
C2102 C2103 1.388 . S
C2103 H2090 0.930 . S
C2103 C2102 1.388 . S
C2103 C2104 1.390 . S
C2104 C2103 1.390 . S
C2104 C2105 1.394 . S
C2104 C2110 1.465 . S
C2105 C2100 1.399 . S
C2105 C2104 1.394 . S
C2105 C2106 1.516 . S
C2106 C2105 1.516 . S
C2106 C2107 1.502 . S
C2106 C2108 1.561 . S
C2106 C2109 1.526 . S
C2107 H2091 0.959 . S
C2107 H2092 0.959 . S
C2107 H2093 0.961 . S
C2107 C2106 1.502 . S
C2108 H2094 0.960 . S
C2108 H2095 0.961 . S
C2108 H2096 0.959 . S
C2108 C2106 1.561 . S
C2109 C2106 1.526 . S
C2109 C2110 1.396 . S
C2109 C2114 1.390 . S
C2110 C2104 1.465 . S
C2110 C2109 1.396 . S
C2110 C2111 1.399 . S
C2111 H2097 0.929 . S
C2111 C2110 1.399 . S
C2111 C2112 1.385 . S
C2112 H2098 0.931 . S
C2112 C2111 1.385 . S
C2112 C2113 1.389 . S
C2113 C2112 1.389 . S
C2113 C2114 1.387 . S
C2114 H2099 0.930 . S
C2114 C2109 1.390 . S
C2114 C2113 1.387 . S
H2115 C2127 0.930 . S
H2116 C2129 0.930 . S
H2117 C2130 0.930 . S
H2118 C2134 0.959 . S
H2119 C2134 0.959 . S
H2120 C2134 0.961 . S
H2121 C2135 0.960 . S
H2122 C2135 0.961 . S
H2123 C2135 0.959 . S
H2124 C2138 0.929 . S
H2125 C2139 0.931 . S
H2126 C2141 0.930 . S
C2127 H2115 0.930 . S
C2127 C2128 1.399 . S
C2127 C2132 1.399 . S
C2128 C2127 1.399 . S
C2128 C2129 1.376 . S
C2129 H2116 0.930 . S
C2129 C2128 1.376 . S
C2129 C2130 1.388 . S
C2130 H2117 0.930 . S
C2130 C2129 1.388 . S
C2130 C2131 1.390 . S
C2131 C2130 1.390 . S
C2131 C2132 1.394 . S
C2131 C2137 1.465 . S
C2132 C2127 1.399 . S
C2132 C2131 1.394 . S
C2132 C2133 1.516 . S
C2133 C2132 1.516 . S
C2133 C2134 1.502 . S
C2133 C2135 1.561 . S
C2133 C2136 1.526 . S
C2134 H2118 0.959 . S
C2134 H2119 0.959 . S
C2134 H2120 0.961 . S
C2134 C2133 1.502 . S
C2135 H2121 0.960 . S
C2135 H2122 0.961 . S
C2135 H2123 0.959 . S
C2135 C2133 1.561 . S
C2136 C2133 1.526 . S
C2136 C2137 1.396 . S
C2136 C2141 1.390 . S
C2137 C2131 1.465 . S
C2137 C2136 1.396 . S
C2137 C2138 1.399 . S
C2138 H2124 0.929 . S
C2138 C2137 1.399 . S
C2138 C2139 1.385 . S
C2139 H2125 0.931 . S
C2139 C2138 1.385 . S
C2139 C2140 1.389 . S
C2140 C2139 1.389 . S
C2140 C2141 1.387 . S
C2141 H2126 0.930 . S
C2141 C2136 1.390 . S
C2141 C2140 1.387 . S
H2142 C2154 0.930 . S
H2143 C2156 0.930 . S
H2144 C2157 0.930 . S
H2145 C2161 0.959 . S
H2146 C2161 0.959 . S
H2147 C2161 0.961 . S
H2148 C2162 0.960 . S
H2149 C2162 0.961 . S
H2150 C2162 0.959 . S
H2151 C2165 0.929 . S
H2152 C2166 0.931 . S
H2153 C2168 0.930 . S
C2154 H2142 0.930 . S
C2154 C2155 1.399 . S
C2154 C2159 1.399 . S
C2155 C2154 1.399 . S
C2155 C2156 1.376 . S
C2156 H2143 0.930 . S
C2156 C2155 1.376 . S
C2156 C2157 1.388 . S
C2157 H2144 0.930 . S
C2157 C2156 1.388 . S
C2157 C2158 1.390 . S
C2158 C2157 1.390 . S
C2158 C2159 1.394 . S
C2158 C2164 1.465 . S
C2159 C2154 1.399 . S
C2159 C2158 1.394 . S
C2159 C2160 1.516 . S
C2160 C2159 1.516 . S
C2160 C2161 1.502 . S
C2160 C2162 1.561 . S
C2160 C2163 1.526 . S
C2161 H2145 0.959 . S
C2161 H2146 0.959 . S
C2161 H2147 0.961 . S
C2161 C2160 1.502 . S
C2162 H2148 0.960 . S
C2162 H2149 0.961 . S
C2162 H2150 0.959 . S
C2162 C2160 1.561 . S
C2163 C2160 1.526 . S
C2163 C2164 1.396 . S
C2163 C2168 1.390 . S
C2164 C2158 1.465 . S
C2164 C2163 1.396 . S
C2164 C2165 1.399 . S
C2165 H2151 0.929 . S
C2165 C2164 1.399 . S
C2165 C2166 1.385 . S
C2166 H2152 0.931 . S
C2166 C2165 1.385 . S
C2166 C2167 1.389 . S
C2167 C2166 1.389 . S
C2167 C2168 1.387 . S
C2168 H2153 0.930 . S
C2168 C2163 1.390 . S
C2168 C2167 1.387 . S
H2169 C2181 0.930 1_554 S
H2170 C2183 0.930 . S
H2171 C2184 0.930 . S
H2172 C2188 0.959 . S
H2173 C2188 0.959 . S
H2174 C2188 0.961 . S
H2175 C2189 0.960 . S
H2176 C2189 0.961 . S
H2177 C2189 0.959 . S
H2178 C2192 0.929 . S
H2179 C2193 0.931 . S
H2180 C2195 0.930 . S
C2181 H2169 0.930 1_556 S
C2181 C2182 1.399 . S
C2181 C2186 1.399 . S
C2182 C2181 1.399 . S
C2182 C2183 1.376 . S
C2183 H2170 0.930 . S
C2183 C2182 1.376 . S
C2183 C2184 1.388 . S
C2184 H2171 0.930 . S
C2184 C2183 1.388 . S
C2184 C2185 1.390 . S
C2185 C2184 1.390 . S
C2185 C2186 1.394 . S
C2185 C2191 1.465 . S
C2186 C2181 1.399 . S
C2186 C2185 1.394 . S
C2186 C2187 1.516 . S
C2187 C2186 1.516 . S
C2187 C2188 1.502 1_556 S
C2187 C2189 1.561 . S
C2187 C2190 1.526 . S
C2188 H2172 0.959 . S
C2188 H2173 0.959 . S
C2188 H2174 0.961 . S
C2188 C2187 1.502 1_554 S
C2189 H2175 0.960 . S
C2189 H2176 0.961 . S
C2189 H2177 0.959 . S
C2189 C2187 1.561 . S
C2190 C2187 1.526 . S
C2190 C2191 1.396 . S
C2190 C2195 1.390 . S
C2191 C2185 1.465 . S
C2191 C2190 1.396 . S
C2191 C2192 1.399 . S
C2192 H2178 0.929 . S
C2192 C2191 1.399 . S
C2192 C2193 1.385 . S
C2193 H2179 0.931 . S
C2193 C2192 1.385 . S
C2193 C2194 1.389 . S
C2194 C2193 1.389 . S
C2194 C2195 1.387 . S
C2195 H2180 0.930 . S
C2195 C2190 1.390 . S
C2195 C2194 1.387 . S
H2196 C2208 0.930 . S
H2197 C2210 0.972 . S
H2198 C2211 0.930 1_554 S
H2199 C2215 0.959 . S
H2200 C2215 0.959 . S
H2201 C2215 0.961 . S
H2202 C2216 0.960 . S
H2203 C2216 0.961 . S
H2204 C2216 0.959 . S
H2205 C2219 0.929 . S
H2206 C2220 0.931 . S
H2207 C2222 0.930 . S
C2208 H2196 0.930 . S
C2208 C2209 1.399 . S
C2208 C2213 1.399 . S
C2209 C2208 1.399 . S
C2209 C2210 1.347 1_556 S
C2210 H2197 0.972 . S
C2210 C2209 1.347 1_554 S
C2210 C2211 1.379 1_554 S
C2211 H2198 0.930 1_556 S
C2211 C2210 1.379 1_556 S
C2211 C2212 1.390 . S
C2212 C2211 1.390 . S
C2212 C2213 1.394 . S
C2212 C2218 1.465 . S
C2213 C2208 1.399 . S
C2213 C2212 1.394 . S
C2213 C2214 1.516 . S
C2214 C2213 1.516 . S
C2214 C2215 1.502 . S
C2214 C2216 1.561 . S
C2214 C2217 1.526 . S
C2215 H2199 0.959 . S
C2215 H2200 0.959 . S
C2215 H2201 0.961 . S
C2215 C2214 1.502 . S
C2216 H2202 0.960 . S
C2216 H2203 0.961 . S
C2216 H2204 0.959 . S
C2216 C2214 1.561 . S
C2217 C2214 1.526 . S
C2217 C2218 1.396 . S
C2217 C2222 1.390 . S
C2218 C2212 1.465 . S
C2218 C2217 1.396 . S
C2218 C2219 1.399 . S
C2219 H2205 0.929 . S
C2219 C2218 1.399 . S
C2219 C2220 1.385 . S
C2220 H2206 0.931 . S
C2220 C2219 1.385 . S
C2220 C2221 1.389 . S
C2221 C2220 1.389 . S
C2221 C2222 1.387 . S
C2222 H2207 0.930 . S
C2222 C2217 1.390 . S
C2222 C2221 1.387 . S
H2223 C2235 0.930 1_554 S
H2224 C2237 0.930 . S
H2225 C2238 0.930 . S
H2226 C2242 0.980 . S
H2227 C2242 0.951 1_554 S
H2228 C2242 0.924 1_554 S
H2229 C2243 0.960 1_554 S
H2230 C2243 0.961 . S
H2231 C2243 0.959 . S
H2232 C2246 0.929 . S
H2233 C2247 0.931 . S
H2234 C2249 0.930 . S
C2235 H2223 0.930 1_556 S
C2235 C2236 1.399 . S
C2235 C2240 1.399 . S
C2236 C2235 1.399 . S
C2236 C2237 1.376 . S
C2237 H2224 0.930 . S
C2237 C2236 1.376 . S
C2237 C2238 1.388 . S
C2238 H2225 0.930 . S
C2238 C2237 1.388 . S
C2238 C2239 1.390 . S
C2239 C2238 1.390 . S
C2239 C2240 1.394 . S
C2239 C2245 1.465 . S
C2240 C2235 1.399 . S
C2240 C2239 1.394 . S
C2240 C2241 1.516 . S
C2241 C2240 1.516 . S
C2241 C2242 1.530 . S
C2241 C2243 1.561 . S
C2241 C2244 1.526 . S
C2242 H2226 0.980 . S
C2242 H2227 0.951 1_556 S
C2242 H2228 0.924 1_556 S
C2242 C2241 1.530 . S
C2243 H2229 0.960 1_556 S
C2243 H2230 0.961 . S
C2243 H2231 0.959 . S
C2243 C2241 1.561 . S
C2244 C2241 1.526 . S
C2244 C2245 1.396 . S
C2244 C2249 1.390 . S
C2245 C2239 1.465 . S
C2245 C2244 1.396 . S
C2245 C2246 1.399 . S
C2246 H2232 0.929 . S
C2246 C2245 1.399 . S
C2246 C2247 1.385 . S
C2247 H2233 0.931 . S
C2247 C2246 1.385 . S
C2247 C2248 1.389 . S
C2248 C2247 1.389 . S
C2248 C2249 1.387 . S
C2249 H2234 0.930 . S
C2249 C2244 1.390 . S
C2249 C2248 1.387 . S
H2250 C2262 0.930 . S
H2251 C2264 0.930 . S
H2252 C2265 0.930 . S
H2253 C2269 0.959 . S
H2254 C2269 0.959 . S
H2255 C2269 0.961 . S
H2256 C2270 0.960 . S
H2257 C2270 0.961 . S
H2258 C2270 0.959 . S
H2259 C2273 0.929 . S
H2260 C2274 0.931 . S
H2261 C2276 0.930 . S
C2262 H2250 0.930 . S
C2262 C2263 1.399 . S
C2262 C2267 1.399 . S
C2263 C2262 1.399 . S
C2263 C2264 1.376 . S
C2264 H2251 0.930 . S
C2264 C2263 1.376 . S
C2264 C2265 1.388 . S
C2265 H2252 0.930 . S
C2265 C2264 1.388 . S
C2265 C2266 1.390 . S
C2266 C2265 1.390 . S
C2266 C2267 1.394 . S
C2266 C2272 1.465 . S
C2267 C2262 1.399 . S
C2267 C2266 1.394 . S
C2267 C2268 1.516 . S
C2268 C2267 1.516 . S
C2268 C2269 1.502 . S
C2268 C2270 1.561 . S
C2268 C2271 1.526 . S
C2269 H2253 0.959 . S
C2269 H2254 0.959 . S
C2269 H2255 0.961 . S
C2269 C2268 1.502 . S
C2270 H2256 0.960 . S
C2270 H2257 0.961 . S
C2270 H2258 0.959 . S
C2270 C2268 1.561 . S
C2271 C2268 1.526 . S
C2271 C2272 1.396 . S
C2271 C2276 1.390 . S
C2272 C2266 1.465 . S
C2272 C2271 1.396 . S
C2272 C2273 1.399 . S
C2273 H2259 0.929 . S
C2273 C2272 1.399 . S
C2273 C2274 1.385 . S
C2274 H2260 0.931 . S
C2274 C2273 1.385 . S
C2274 C2275 1.389 . S
C2275 C2274 1.389 . S
C2275 C2276 1.387 . S
C2276 H2261 0.930 . S
C2276 C2271 1.390 . S
C2276 C2275 1.387 . S
H2277 C2289 0.930 1_554 S
H2278 C2291 0.930 . S
H2279 C2292 0.930 . S
H2280 C2296 0.959 . S
H2281 C2296 0.959 . S
H2282 C2296 0.961 . S
H2283 C2297 0.960 . S
H2284 C2297 0.961 . S
H2285 C2297 0.964 . S
H2286 C2300 0.929 . S
H2287 C2301 0.931 . S
H2288 C2303 0.930 . S
C2289 H2277 0.930 1_556 S
C2289 C2290 1.399 . S
C2289 C2294 1.399 . S
C2290 C2289 1.399 . S
C2290 C2291 1.376 . S
C2291 H2278 0.930 . S
C2291 C2290 1.376 . S
C2291 C2292 1.388 . S
C2292 H2279 0.930 . S
C2292 C2291 1.388 . S
C2292 C2293 1.390 . S
C2293 C2292 1.390 . S
C2293 C2294 1.394 . S
C2293 C2299 1.465 . S
C2294 C2289 1.399 . S
C2294 C2293 1.394 . S
C2294 C2295 1.516 . S
C2295 C2294 1.516 . S
C2295 C2296 1.502 . S
C2295 C2297 1.561 1_556 S
C2295 C2298 1.526 . S
C2296 H2280 0.959 . S
C2296 H2281 0.959 . S
C2296 H2282 0.961 . S
C2296 C2295 1.502 . S
C2297 H2283 0.960 . S
C2297 H2284 0.961 . S
C2297 H2285 0.964 . S
C2297 C2295 1.561 1_554 S
C2298 C2295 1.526 . S
C2298 C2299 1.396 . S
C2298 C2303 1.390 . S
C2299 C2293 1.465 . S
C2299 C2298 1.396 . S
C2299 C2300 1.399 . S
C2300 H2286 0.929 . S
C2300 C2299 1.399 . S
C2300 C2301 1.385 . S
C2301 H2287 0.931 . S
C2301 C2300 1.385 . S
C2301 C2302 1.389 . S
C2302 C2301 1.389 . S
C2302 C2303 1.387 . S
C2303 H2288 0.930 . S
C2303 C2298 1.390 . S
C2303 C2302 1.387 . S
H2304 C2316 0.920 1_554 S
H2305 C2318 0.930 . S
H2306 C2319 0.930 . S
H2307 C2323 0.959 . S
H2308 C2323 0.959 . S
H2309 C2323 0.961 . S
H2310 C2324 0.960 . S
H2311 C2324 0.961 . S
H2312 C2324 0.959 . S
H2313 C2327 0.929 . S
H2314 C2328 0.931 . S
H2315 C2330 0.930 . S
C2316 H2304 0.920 1_556 S
C2316 C2317 1.399 . S
C2316 C2321 1.399 . S
C2317 C2316 1.399 . S
C2317 C2318 1.376 . S
C2318 H2305 0.930 . S
C2318 C2317 1.376 . S
C2318 C2319 1.388 . S
C2319 H2306 0.930 . S
C2319 C2318 1.388 . S
C2319 C2320 1.390 . S
C2320 C2319 1.390 . S
C2320 C2321 1.394 . S
C2320 C2326 1.465 . S
C2321 C2316 1.399 . S
C2321 C2320 1.394 . S
C2321 C2322 1.516 . S
C2322 C2321 1.516 . S
C2322 C2323 1.502 . S
C2322 C2324 1.561 1_556 S
C2322 C2325 1.526 . S
C2323 H2307 0.959 . S
C2323 H2308 0.959 . S
C2323 H2309 0.961 . S
C2323 C2322 1.502 . S
C2324 H2310 0.960 . S
C2324 H2311 0.961 . S
C2324 H2312 0.959 . S
C2324 C2322 1.561 1_554 S
C2325 C2322 1.526 . S
C2325 C2326 1.396 . S
C2325 C2330 1.390 . S
C2326 C2320 1.465 . S
C2326 C2325 1.396 . S
C2326 C2327 1.399 . S
C2327 H2313 0.929 . S
C2327 C2326 1.399 . S
C2327 C2328 1.385 . S
C2328 H2314 0.931 . S
C2328 C2327 1.385 . S
C2328 C2329 1.389 . S
C2329 C2328 1.389 . S
C2329 C2330 1.387 . S
C2330 H2315 0.930 . S
C2330 C2325 1.390 . S
C2330 C2329 1.387 . S
H2331 C2343 0.930 . S
H2332 C2345 0.930 . S
H2333 C2346 0.930 . S
H2334 C2350 0.959 . S
H2335 C2350 0.959 . S
H2336 C2350 0.961 . S
H2337 C2351 0.960 . S
H2338 C2351 0.961 . S
H2339 C2351 0.959 . S
H2340 C2354 0.929 . S
H2341 C2355 0.931 . S
H2342 C2357 0.930 . S
C2343 H2331 0.930 . S
C2343 C2344 1.399 . S
C2343 C2348 1.399 . S
C2344 C2343 1.399 . S
C2344 C2345 1.376 . S
C2345 H2332 0.930 . S
C2345 C2344 1.376 . S
C2345 C2346 1.388 . S
C2346 H2333 0.930 . S
C2346 C2345 1.388 . S
C2346 C2347 1.390 . S
C2347 C2346 1.390 . S
C2347 C2348 1.394 . S
C2347 C2353 1.465 . S
C2348 C2343 1.399 . S
C2348 C2347 1.394 . S
C2348 C2349 1.516 . S
C2349 C2348 1.516 . S
C2349 C2350 1.502 . S
C2349 C2351 1.561 . S
C2349 C2352 1.526 . S
C2350 H2334 0.959 . S
C2350 H2335 0.959 . S
C2350 H2336 0.961 . S
C2350 C2349 1.502 . S
C2351 H2337 0.960 . S
C2351 H2338 0.961 . S
C2351 H2339 0.959 . S
C2351 C2349 1.561 . S
C2352 C2349 1.526 . S
C2352 C2353 1.396 . S
C2352 C2357 1.390 . S
C2353 C2347 1.465 . S
C2353 C2352 1.396 . S
C2353 C2354 1.399 . S
C2354 H2340 0.929 . S
C2354 C2353 1.399 . S
C2354 C2355 1.385 . S
C2355 H2341 0.931 . S
C2355 C2354 1.385 . S
C2355 C2356 1.389 . S
C2356 C2355 1.389 . S
C2356 C2357 1.387 . S
C2357 H2342 0.930 . S
C2357 C2352 1.390 . S
C2357 C2356 1.387 . S
H2358 C2370 0.930 . S
H2359 C2372 0.930 . S
H2360 C2373 0.930 . S
H2361 C2377 0.959 . S
H2362 C2377 0.959 . S
H2363 C2377 0.961 . S
H2364 C2378 0.960 . S
H2365 C2378 0.961 . S
H2366 C2378 0.959 . S
H2367 C2381 0.929 . S
H2368 C2382 0.931 . S
H2369 C2384 0.930 . S
C2370 H2358 0.930 . S
C2370 C2371 1.399 . S
C2370 C2375 1.399 . S
C2371 C2370 1.399 . S
C2371 C2372 1.376 . S
C2372 H2359 0.930 . S
C2372 C2371 1.376 . S
C2372 C2373 1.388 . S
C2373 H2360 0.930 . S
C2373 C2372 1.388 . S
C2373 C2374 1.390 . S
C2374 C2373 1.390 . S
C2374 C2375 1.394 . S
C2374 C2380 1.465 . S
C2375 C2370 1.399 . S
C2375 C2374 1.394 . S
C2375 C2376 1.516 . S
C2376 C2375 1.516 . S
C2376 C2377 1.502 . S
C2376 C2378 1.561 . S
C2376 C2379 1.526 . S
C2377 H2361 0.959 . S
C2377 H2362 0.959 . S
C2377 H2363 0.961 . S
C2377 C2376 1.502 . S
C2378 H2364 0.960 . S
C2378 H2365 0.961 . S
C2378 H2366 0.959 . S
C2378 C2376 1.561 . S
C2379 C2376 1.526 . S
C2379 C2380 1.396 . S
C2379 C2384 1.390 . S
C2380 C2374 1.465 . S
C2380 C2379 1.396 . S
C2380 C2381 1.399 . S
C2381 H2367 0.929 . S
C2381 C2380 1.399 . S
C2381 C2382 1.385 . S
C2382 H2368 0.931 . S
C2382 C2381 1.385 . S
C2382 C2383 1.389 . S
C2383 C2382 1.389 . S
C2383 C2384 1.387 . S
C2384 H2369 0.930 . S
C2384 C2379 1.390 . S
C2384 C2383 1.387 . S
H2385 C2397 0.930 . S
H2386 C2399 0.930 . S
H2387 C2400 0.930 . S
H2388 C2404 0.959 . S
H2389 C2404 0.959 . S
H2390 C2404 0.961 . S
H2391 C2405 0.960 . S
H2392 C2405 0.961 . S
H2393 C2405 0.959 . S
H2394 C2408 0.929 . S
H2395 C2409 0.931 . S
H2396 C2411 0.930 . S
C2397 H2385 0.930 . S
C2397 C2398 1.399 . S
C2397 C2402 1.399 . S
C2398 C2397 1.399 . S
C2398 C2399 1.376 . S
C2399 H2386 0.930 . S
C2399 C2398 1.376 . S
C2399 C2400 1.388 . S
C2400 H2387 0.930 . S
C2400 C2399 1.388 . S
C2400 C2401 1.390 . S
C2401 C2400 1.390 . S
C2401 C2402 1.394 . S
C2401 C2407 1.465 . S
C2402 C2397 1.399 . S
C2402 C2401 1.394 . S
C2402 C2403 1.516 . S
C2403 C2402 1.516 . S
C2403 C2404 1.502 . S
C2403 C2405 1.561 . S
C2403 C2406 1.526 . S
C2404 H2388 0.959 . S
C2404 H2389 0.959 . S
C2404 H2390 0.961 . S
C2404 C2403 1.502 . S
C2405 H2391 0.960 . S
C2405 H2392 0.961 . S
C2405 H2393 0.959 . S
C2405 C2403 1.561 . S
C2406 C2403 1.526 . S
C2406 C2407 1.396 . S
C2406 C2411 1.390 . S
C2407 C2401 1.465 . S
C2407 C2406 1.396 . S
C2407 C2408 1.399 . S
C2408 H2394 0.929 . S
C2408 C2407 1.399 . S
C2408 C2409 1.385 . S
C2409 H2395 0.931 . S
C2409 C2408 1.385 . S
C2409 C2410 1.389 . S
C2410 C2409 1.389 . S
C2410 C2411 1.387 . S
C2411 H2396 0.930 . S
C2411 C2406 1.390 . S
C2411 C2410 1.387 . S
H2412 C2424 0.930 . S
H2413 C2426 0.930 . S
H2414 C2427 0.930 . S
H2415 C2431 0.959 . S
H2416 C2431 0.959 . S
H2417 C2431 0.961 . S
H2418 C2432 0.960 . S
H2419 C2432 0.961 . S
H2420 C2432 0.959 . S
H2421 C2435 0.929 . S
H2422 C2436 0.931 . S
H2423 C2438 0.930 . S
C2424 H2412 0.930 . S
C2424 C2425 1.399 . S
C2424 C2429 1.399 . S
C2425 C2424 1.399 . S
C2425 C2426 1.376 . S
C2426 H2413 0.930 . S
C2426 C2425 1.376 . S
C2426 C2427 1.388 . S
C2427 H2414 0.930 . S
C2427 C2426 1.388 . S
C2427 C2428 1.390 . S
C2428 C2427 1.390 . S
C2428 C2429 1.394 . S
C2428 C2434 1.465 . S
C2429 C2424 1.399 . S
C2429 C2428 1.394 . S
C2429 C2430 1.516 . S
C2430 C2429 1.516 . S
C2430 C2431 1.502 . S
C2430 C2432 1.561 . S
C2430 C2433 1.526 . S
C2431 H2415 0.959 . S
C2431 H2416 0.959 . S
C2431 H2417 0.961 . S
C2431 C2430 1.502 . S
C2432 H2418 0.960 . S
C2432 H2419 0.961 . S
C2432 H2420 0.959 . S
C2432 C2430 1.561 . S
C2433 C2430 1.526 . S
C2433 C2434 1.396 . S
C2433 C2438 1.390 . S
C2434 C2428 1.465 . S
C2434 C2433 1.396 . S
C2434 C2435 1.399 . S
C2435 H2421 0.929 . S
C2435 C2434 1.399 . S
C2435 C2436 1.385 . S
C2436 H2422 0.931 . S
C2436 C2435 1.385 . S
C2436 C2437 1.389 . S
C2437 C2436 1.389 . S
C2437 C2438 1.387 . S
C2438 H2423 0.930 . S
C2438 C2433 1.390 . S
C2438 C2437 1.387 . S
H2439 C2451 0.930 . S
H2440 C2453 0.930 . S
H2441 C2454 0.930 . S
H2442 C2458 0.959 . S
H2443 C2458 0.959 . S
H2444 C2458 0.961 . S
H2445 C2459 0.960 . S
H2446 C2459 0.961 . S
H2447 C2459 0.959 . S
H2448 C2462 0.929 . S
H2449 C2463 0.931 . S
H2450 C2465 0.930 . S
C2451 H2439 0.930 . S
C2451 C2452 1.399 . S
C2451 C2456 1.399 . S
C2452 C2451 1.399 . S
C2452 C2453 1.376 . S
C2453 H2440 0.930 . S
C2453 C2452 1.376 . S
C2453 C2454 1.388 . S
C2454 H2441 0.930 . S
C2454 C2453 1.388 . S
C2454 C2455 1.390 . S
C2455 C2454 1.390 . S
C2455 C2456 1.394 . S
C2455 C2461 1.465 . S
C2456 C2451 1.399 . S
C2456 C2455 1.394 . S
C2456 C2457 1.516 . S
C2457 C2456 1.516 . S
C2457 C2458 1.502 . S
C2457 C2459 1.561 . S
C2457 C2460 1.526 . S
C2458 H2442 0.959 . S
C2458 H2443 0.959 . S
C2458 H2444 0.961 . S
C2458 C2457 1.502 . S
C2459 H2445 0.960 . S
C2459 H2446 0.961 . S
C2459 H2447 0.959 . S
C2459 C2457 1.561 . S
C2460 C2457 1.526 . S
C2460 C2461 1.396 . S
C2460 C2465 1.390 . S
C2461 C2455 1.465 . S
C2461 C2460 1.396 . S
C2461 C2462 1.399 . S
C2462 H2448 0.929 . S
C2462 C2461 1.399 . S
C2462 C2463 1.385 . S
C2463 H2449 0.931 . S
C2463 C2462 1.385 . S
C2463 C2464 1.389 . S
C2464 C2463 1.389 . S
C2464 C2465 1.387 . S
C2465 H2450 0.930 . S
C2465 C2460 1.390 . S
C2465 C2464 1.387 . S
H2466 C2478 0.930 . S
H2467 C2480 0.930 . S
H2468 C2481 0.930 . S
H2469 C2485 0.959 . S
H2470 C2485 0.959 . S
H2471 C2485 0.961 . S
H2472 C2486 0.960 . S
H2473 C2486 0.961 . S
H2474 C2486 0.959 . S
H2475 C2489 0.929 . S
H2476 C2490 0.931 . S
H2477 C2492 0.930 . S
C2478 H2466 0.930 . S
C2478 C2479 1.399 . S
C2478 C2483 1.399 . S
C2479 C2478 1.399 . S
C2479 C2480 1.376 . S
C2480 H2467 0.930 . S
C2480 C2479 1.376 . S
C2480 C2481 1.388 . S
C2481 H2468 0.930 . S
C2481 C2480 1.388 . S
C2481 C2482 1.390 . S
C2482 C2481 1.390 . S
C2482 C2483 1.394 . S
C2482 C2488 1.465 . S
C2483 C2478 1.399 . S
C2483 C2482 1.394 . S
C2483 C2484 1.516 . S
C2484 C2483 1.516 . S
C2484 C2485 1.502 . S
C2484 C2486 1.561 . S
C2484 C2487 1.526 . S
C2485 H2469 0.959 . S
C2485 H2470 0.959 . S
C2485 H2471 0.961 . S
C2485 C2484 1.502 . S
C2486 H2472 0.960 . S
C2486 H2473 0.961 . S
C2486 H2474 0.959 . S
C2486 C2484 1.561 . S
C2487 C2484 1.526 . S
C2487 C2488 1.396 . S
C2487 C2492 1.390 . S
C2488 C2482 1.465 . S
C2488 C2487 1.396 . S
C2488 C2489 1.399 . S
C2489 H2475 0.929 . S
C2489 C2488 1.399 . S
C2489 C2490 1.385 . S
C2490 H2476 0.931 . S
C2490 C2489 1.385 . S
C2490 C2491 1.389 . S
C2491 C2490 1.389 . S
C2491 C2492 1.387 . S
C2492 H2477 0.930 . S
C2492 C2487 1.390 . S
C2492 C2491 1.387 . S
H2493 C2505 0.930 . S
H2494 C2507 0.930 . S
H2495 C2508 0.930 . S
H2496 C2512 0.928 1_655 S
H2497 C2512 0.938 . S
H2498 C2512 0.980 . S
H2499 C2513 0.960 . S
H2500 C2513 0.961 . S
H2501 C2513 0.959 . S
H2502 C2516 0.929 . S
H2503 C2517 0.931 . S
H2504 C2519 0.930 . S
C2505 H2493 0.930 . S
C2505 C2506 1.399 . S
C2505 C2510 1.399 . S
C2506 C2505 1.399 . S
C2506 C2507 1.376 . S
C2507 H2494 0.930 . S
C2507 C2506 1.376 . S
C2507 C2508 1.388 . S
C2508 H2495 0.930 . S
C2508 C2507 1.388 . S
C2508 C2509 1.390 . S
C2509 C2508 1.390 . S
C2509 C2510 1.394 . S
C2509 C2515 1.465 . S
C2510 C2505 1.399 . S
C2510 C2509 1.394 . S
C2510 C2511 1.516 . S
C2511 C2510 1.516 . S
C2511 C2512 1.538 . S
C2511 C2513 1.561 . S
C2511 C2514 1.526 . S
C2512 H2496 0.928 1_455 S
C2512 H2497 0.938 . S
C2512 H2498 0.980 . S
C2512 C2511 1.538 . S
C2513 H2499 0.960 . S
C2513 H2500 0.961 . S
C2513 H2501 0.959 . S
C2513 C2511 1.561 . S
C2514 C2511 1.526 . S
C2514 C2515 1.396 . S
C2514 C2519 1.390 . S
C2515 C2509 1.465 . S
C2515 C2514 1.396 . S
C2515 C2516 1.399 . S
C2516 H2502 0.929 . S
C2516 C2515 1.399 . S
C2516 C2517 1.385 . S
C2517 H2503 0.931 . S
C2517 C2516 1.385 . S
C2517 C2518 1.389 . S
C2518 C2517 1.389 . S
C2518 C2519 1.387 . S
C2519 H2504 0.930 . S
C2519 C2514 1.390 . S
C2519 C2518 1.387 . S
H2520 C2532 0.930 . S
H2521 C2534 0.930 . S
H2522 C2535 0.930 . S
H2523 C2539 0.959 . S
H2524 C2539 0.959 . S
H2525 C2539 0.961 . S
H2526 C2540 0.960 . S
H2527 C2540 0.961 . S
H2528 C2540 0.959 . S
H2529 C2543 0.929 . S
H2530 C2544 0.931 . S
H2531 C2546 0.930 . S
C2532 H2520 0.930 . S
C2532 C2533 1.399 . S
C2532 C2537 1.399 . S
C2533 C2532 1.399 . S
C2533 C2534 1.376 . S
C2534 H2521 0.930 . S
C2534 C2533 1.376 . S
C2534 C2535 1.388 . S
C2535 H2522 0.930 . S
C2535 C2534 1.388 . S
C2535 C2536 1.390 . S
C2536 C2535 1.390 . S
C2536 C2537 1.394 . S
C2536 C2542 1.465 . S
C2537 C2532 1.399 . S
C2537 C2536 1.394 . S
C2537 C2538 1.516 . S
C2538 C2537 1.516 . S
C2538 C2539 1.502 . S
C2538 C2540 1.561 . S
C2538 C2541 1.526 . S
C2539 H2523 0.959 . S
C2539 H2524 0.959 . S
C2539 H2525 0.961 . S
C2539 C2538 1.502 . S
C2540 H2526 0.960 . S
C2540 H2527 0.961 . S
C2540 H2528 0.959 . S
C2540 C2538 1.561 . S
C2541 C2538 1.526 . S
C2541 C2542 1.396 . S
C2541 C2546 1.390 . S
C2542 C2536 1.465 . S
C2542 C2541 1.396 . S
C2542 C2543 1.399 . S
C2543 H2529 0.929 . S
C2543 C2542 1.399 . S
C2543 C2544 1.385 . S
C2544 H2530 0.931 . S
C2544 C2543 1.385 . S
C2544 C2545 1.389 . S
C2545 C2544 1.389 . S
C2545 C2546 1.387 . S
C2546 H2531 0.930 . S
C2546 C2541 1.390 . S
C2546 C2545 1.387 . S
H2547 C2559 0.930 . S
H2548 C2561 0.930 . S
H2549 C2562 0.930 . S
H2550 C2566 0.959 . S
H2551 C2566 0.959 . S
H2552 C2566 0.961 . S
H2553 C2567 0.960 . S
H2554 C2567 0.961 . S
H2555 C2567 0.959 . S
H2556 C2570 0.929 . S
H2557 C2571 0.931 . S
H2558 C2573 0.930 . S
C2559 H2547 0.930 . S
C2559 C2560 1.399 . S
C2559 C2564 1.399 . S
C2560 C2559 1.399 . S
C2560 C2561 1.376 1_565 S
C2561 H2548 0.930 . S
C2561 C2560 1.376 1_545 S
C2561 C2562 1.388 . S
C2562 H2549 0.930 . S
C2562 C2561 1.388 . S
C2562 C2563 1.390 1_545 S
C2563 C2562 1.390 1_565 S
C2563 C2564 1.394 . S
C2563 C2569 1.491 1_565 S
C2564 C2559 1.399 . S
C2564 C2563 1.394 . S
C2564 C2565 1.516 . S
C2565 C2564 1.516 . S
C2565 C2566 1.502 . S
C2565 C2567 1.561 . S
C2565 C2568 1.526 . S
C2566 H2550 0.959 . S
C2566 H2551 0.959 . S
C2566 H2552 0.961 . S
C2566 C2565 1.502 . S
C2567 H2553 0.960 . S
C2567 H2554 0.961 . S
C2567 H2555 0.959 . S
C2567 C2565 1.561 . S
C2568 C2565 1.526 . S
C2568 C2569 1.325 1_565 S
C2568 C2573 1.390 . S
C2569 C2563 1.491 1_545 S
C2569 C2568 1.325 1_545 S
C2569 C2570 1.435 . S
C2570 H2556 0.929 . S
C2570 C2569 1.435 . S
C2570 C2571 1.385 . S
C2571 H2557 0.931 . S
C2571 C2570 1.385 . S
C2571 C2572 1.389 1_545 S
C2572 C2571 1.389 1_565 S
C2572 C2573 1.387 . S
C2573 H2558 0.930 . S
C2573 C2568 1.390 . S
C2573 C2572 1.387 . S
H2574 C2586 0.930 1_545 S
H2575 C2588 0.930 . S
H2576 C2589 0.930 . S
H2577 C2593 0.959 . S
H2578 C2593 0.959 . S
H2579 C2593 0.961 . S
H2580 C2594 0.960 . S
H2581 C2594 0.961 . S
H2582 C2594 0.959 . S
H2583 C2597 0.929 . S
H2584 C2598 0.931 . S
H2585 C2600 0.930 . S
C2586 H2574 0.930 1_565 S
C2586 C2587 1.399 . S
C2586 C2591 1.399 . S
C2587 C2586 1.399 . S
C2587 C2588 1.376 . S
C2588 H2575 0.930 . S
C2588 C2587 1.376 . S
C2588 C2589 1.388 . S
C2589 H2576 0.930 . S
C2589 C2588 1.388 . S
C2589 C2590 1.390 . S
C2590 C2589 1.390 . S
C2590 C2591 1.394 . S
C2590 C2596 1.465 . S
C2591 C2586 1.399 . S
C2591 C2590 1.394 . S
C2591 C2592 1.516 1_565 S
C2592 C2591 1.516 1_545 S
C2592 C2593 1.502 . S
C2592 C2594 1.561 . S
C2592 C2595 1.525 . S
C2593 H2577 0.959 . S
C2593 H2578 0.959 . S
C2593 H2579 0.961 . S
C2593 C2592 1.502 . S
C2594 H2580 0.960 . S
C2594 H2581 0.961 . S
C2594 H2582 0.959 . S
C2594 C2592 1.561 . S
C2595 C2592 1.525 . S
C2595 C2596 1.402 1_545 S
C2595 C2600 1.385 . S
C2596 C2590 1.465 . S
C2596 C2595 1.402 1_565 S
C2596 C2597 1.399 . S
C2597 H2583 0.929 . S
C2597 C2596 1.399 . S
C2597 C2598 1.385 . S
C2598 H2584 0.931 . S
C2598 C2597 1.385 . S
C2598 C2599 1.389 . S
C2599 C2598 1.389 . S
C2599 C2600 1.387 1_565 S
C2600 H2585 0.930 . S
C2600 C2595 1.385 . S
C2600 C2599 1.387 1_545 S
H2601 C2613 0.930 . S
H2602 C2615 0.984 . S
H2603 C2616 0.938 . S
H2604 C2620 0.959 . S
H2605 C2620 0.959 . S
H2606 C2620 0.961 . S
H2607 C2621 0.960 . S
H2608 C2621 0.961 . S
H2609 C2621 0.959 1_655 S
H2610 C2624 0.929 . S
H2611 C2625 0.931 . S
H2612 C2627 0.930 . S
C2613 H2601 0.930 . S
C2613 C2614 1.399 . S
C2613 C2618 1.399 . S
C2614 C2613 1.399 . S
C2614 C2615 1.376 . S
C2615 H2602 0.984 . S
C2615 C2614 1.376 . S
C2615 C2616 1.390 1_455 S
C2616 H2603 0.938 . S
C2616 C2615 1.390 1_655 S
C2616 C2617 1.380 1_655 S
C2617 C2616 1.380 1_455 S
C2617 C2618 1.394 . S
C2617 C2623 1.465 . S
C2618 C2613 1.399 . S
C2618 C2617 1.394 . S
C2618 C2619 1.516 . S
C2619 C2618 1.516 . S
C2619 C2620 1.502 . S
C2619 C2621 1.561 . S
C2619 C2622 1.526 . S
C2620 H2604 0.959 . S
C2620 H2605 0.959 . S
C2620 H2606 0.961 . S
C2620 C2619 1.502 . S
C2621 H2607 0.960 . S
C2621 H2608 0.961 . S
C2621 H2609 0.959 1_455 S
C2621 C2619 1.561 . S
C2622 C2619 1.526 . S
C2622 C2623 1.396 . S
C2622 C2627 1.390 . S
C2623 C2617 1.465 . S
C2623 C2622 1.396 . S
C2623 C2624 1.399 1_455 S
C2624 H2610 0.929 . S
C2624 C2623 1.399 1_655 S
C2624 C2625 1.385 . S
C2625 H2611 0.931 . S
C2625 C2624 1.385 . S
C2625 C2626 1.389 1_655 S
C2626 C2625 1.389 1_455 S
C2626 C2627 1.387 . S
C2627 H2612 0.930 . S
C2627 C2622 1.390 . S
C2627 C2626 1.387 . S
H2628 C2640 0.930 . S
H2629 C2642 0.930 . S
H2630 C2643 0.930 . S
H2631 C2647 0.959 . S
H2632 C2647 0.959 . S
H2633 C2647 0.961 . S
H2634 C2648 0.960 . S
H2635 C2648 0.961 . S
H2636 C2648 0.959 . S
H2637 C2651 0.929 . S
H2638 C2652 0.931 . S
H2639 C2654 0.930 . S
C2640 H2628 0.930 . S
C2640 C2641 1.399 . S
C2640 C2645 1.399 . S
C2641 C2640 1.399 . S
C2641 C2642 1.376 . S
C2642 H2629 0.930 . S
C2642 C2641 1.376 . S
C2642 C2643 1.388 . S
C2643 H2630 0.930 . S
C2643 C2642 1.388 . S
C2643 C2644 1.390 . S
C2644 C2643 1.390 . S
C2644 C2645 1.394 . S
C2644 C2650 1.465 . S
C2645 C2640 1.399 . S
C2645 C2644 1.394 . S
C2645 C2646 1.516 . S
C2646 C2645 1.516 . S
C2646 C2647 1.502 . S
C2646 C2648 1.561 . S
C2646 C2649 1.526 . S
C2647 H2631 0.959 . S
C2647 H2632 0.959 . S
C2647 H2633 0.961 . S
C2647 C2646 1.502 . S
C2648 H2634 0.960 . S
C2648 H2635 0.961 . S
C2648 H2636 0.959 . S
C2648 C2646 1.561 . S
C2649 C2646 1.526 . S
C2649 C2650 1.396 . S
C2649 C2654 1.390 . S
C2650 C2644 1.465 . S
C2650 C2649 1.396 . S
C2650 C2651 1.399 . S
C2651 H2637 0.929 . S
C2651 C2650 1.399 . S
C2651 C2652 1.385 . S
C2652 H2638 0.931 . S
C2652 C2651 1.385 . S
C2652 C2653 1.389 . S
C2653 C2652 1.389 . S
C2653 C2654 1.387 . S
C2654 H2639 0.930 . S
C2654 C2649 1.390 . S
C2654 C2653 1.387 . S
H2655 C2667 0.930 . S
H2656 C2669 0.930 . S
H2657 C2670 0.930 . S
H2658 C2674 0.959 . S
H2659 C2674 0.959 . S
H2660 C2674 0.961 . S
H2661 C2675 0.960 . S
H2662 C2675 0.961 . S
H2663 C2675 0.959 . S
H2664 C2678 0.929 . S
H2665 C2679 0.931 . S
H2666 C2681 0.930 . S
C2667 H2655 0.930 . S
C2667 C2668 1.399 . S
C2667 C2672 1.399 . S
C2668 C2667 1.399 . S
C2668 C2669 1.376 . S
C2669 H2656 0.930 . S
C2669 C2668 1.376 . S
C2669 C2670 1.388 . S
C2670 H2657 0.930 . S
C2670 C2669 1.388 . S
C2670 C2671 1.390 . S
C2671 C2670 1.390 . S
C2671 C2672 1.394 . S
C2671 C2677 1.465 . S
C2672 C2667 1.399 . S
C2672 C2671 1.394 . S
C2672 C2673 1.516 . S
C2673 C2672 1.516 . S
C2673 C2674 1.502 . S
C2673 C2675 1.561 . S
C2673 C2676 1.526 . S
C2674 H2658 0.959 . S
C2674 H2659 0.959 . S
C2674 H2660 0.961 . S
C2674 C2673 1.502 . S
C2675 H2661 0.960 . S
C2675 H2662 0.961 . S
C2675 H2663 0.959 . S
C2675 C2673 1.561 . S
C2676 C2673 1.526 . S
C2676 C2677 1.396 . S
C2676 C2681 1.390 . S
C2677 C2671 1.465 . S
C2677 C2676 1.396 . S
C2677 C2678 1.399 . S
C2678 H2664 0.929 . S
C2678 C2677 1.399 . S
C2678 C2679 1.385 . S
C2679 H2665 0.931 . S
C2679 C2678 1.385 . S
C2679 C2680 1.389 . S
C2680 C2679 1.389 . S
C2680 C2681 1.387 . S
C2681 H2666 0.930 . S
C2681 C2676 1.390 . S
C2681 C2680 1.387 . S
H2682 C2694 0.930 . S
H2683 C2696 0.930 . S
H2684 C2697 0.930 . S
H2685 C2701 0.959 . S
H2686 C2701 0.959 . S
H2687 C2701 0.961 . S
H2688 C2702 0.960 . S
H2689 C2702 0.961 . S
H2690 C2702 0.959 . S
H2691 C2705 0.929 . S
H2692 C2706 0.931 . S
H2693 C2708 0.930 . S
C2694 H2682 0.930 . S
C2694 C2695 1.399 . S
C2694 C2699 1.399 . S
C2695 C2694 1.399 . S
C2695 C2696 1.376 . S
C2696 H2683 0.930 . S
C2696 C2695 1.376 . S
C2696 C2697 1.388 . S
C2697 H2684 0.930 . S
C2697 C2696 1.388 . S
C2697 C2698 1.390 . S
C2698 C2697 1.390 . S
C2698 C2699 1.394 . S
C2698 C2704 1.465 . S
C2699 C2694 1.399 . S
C2699 C2698 1.394 . S
C2699 C2700 1.516 . S
C2700 C2699 1.516 . S
C2700 C2701 1.502 . S
C2700 C2702 1.561 . S
C2700 C2703 1.526 . S
C2701 H2685 0.959 . S
C2701 H2686 0.959 . S
C2701 H2687 0.961 . S
C2701 C2700 1.502 . S
C2702 H2688 0.960 . S
C2702 H2689 0.961 . S
C2702 H2690 0.959 . S
C2702 C2700 1.561 . S
C2703 C2700 1.526 . S
C2703 C2704 1.396 . S
C2703 C2708 1.390 . S
C2704 C2698 1.465 . S
C2704 C2703 1.396 . S
C2704 C2705 1.399 . S
C2705 H2691 0.929 . S
C2705 C2704 1.399 . S
C2705 C2706 1.385 . S
C2706 H2692 0.931 . S
C2706 C2705 1.385 . S
C2706 C2707 1.389 . S
C2707 C2706 1.389 . S
C2707 C2708 1.387 . S
C2708 H2693 0.930 . S
C2708 C2703 1.390 . S
C2708 C2707 1.387 . S
H2709 C2721 0.930 . S
H2710 C2723 0.930 . S
H2711 C2724 0.930 . S
H2712 C2728 0.959 . S
H2713 C2728 0.959 . S
H2714 C2728 0.961 . S
H2715 C2729 0.960 . S
H2716 C2729 0.961 . S
H2717 C2729 0.959 . S
H2718 C2732 0.929 . S
H2719 C2733 0.931 . S
H2720 C2735 0.930 . S
C2721 H2709 0.930 . S
C2721 C2722 1.399 . S
C2721 C2726 1.399 . S
C2722 C2721 1.399 . S
C2722 C2723 1.376 . S
C2723 H2710 0.930 . S
C2723 C2722 1.376 . S
C2723 C2724 1.388 . S
C2724 H2711 0.930 . S
C2724 C2723 1.388 . S
C2724 C2725 1.390 . S
C2725 C2724 1.390 . S
C2725 C2726 1.394 . S
C2725 C2731 1.465 . S
C2726 C2721 1.399 . S
C2726 C2725 1.394 . S
C2726 C2727 1.516 . S
C2727 C2726 1.516 . S
C2727 C2728 1.502 . S
C2727 C2729 1.561 . S
C2727 C2730 1.526 . S
C2728 H2712 0.959 . S
C2728 H2713 0.959 . S
C2728 H2714 0.961 . S
C2728 C2727 1.502 . S
C2729 H2715 0.960 . S
C2729 H2716 0.961 . S
C2729 H2717 0.959 . S
C2729 C2727 1.561 . S
C2730 C2727 1.526 . S
C2730 C2731 1.396 . S
C2730 C2735 1.390 . S
C2731 C2725 1.465 . S
C2731 C2730 1.396 . S
C2731 C2732 1.399 . S
C2732 H2718 0.929 . S
C2732 C2731 1.399 . S
C2732 C2733 1.385 . S
C2733 H2719 0.931 . S
C2733 C2732 1.385 . S
C2733 C2734 1.389 . S
C2734 C2733 1.389 . S
C2734 C2735 1.387 . S
C2735 H2720 0.930 . S
C2735 C2730 1.390 . S
C2735 C2734 1.387 . S
H2736 C2748 0.930 . S
H2737 C2750 0.930 . S
H2738 C2751 0.930 . S
H2739 C2755 0.959 . S
H2740 C2755 0.959 1_565 S
H2741 C2755 0.956 . S
H2742 C2756 0.960 . S
H2743 C2756 0.961 . S
H2744 C2756 0.959 . S
H2745 C2759 0.929 . S
H2746 C2760 0.931 . S
H2747 C2762 0.930 . S
C2748 H2736 0.930 . S
C2748 C2749 1.399 . S
C2748 C2753 1.399 . S
C2749 C2748 1.399 . S
C2749 C2750 1.376 . S
C2750 H2737 0.930 . S
C2750 C2749 1.376 . S
C2750 C2751 1.388 . S
C2751 H2738 0.930 . S
C2751 C2750 1.388 . S
C2751 C2752 1.390 . S
C2752 C2751 1.390 . S
C2752 C2753 1.394 . S
C2752 C2758 1.465 . S
C2753 C2748 1.399 . S
C2753 C2752 1.394 . S
C2753 C2754 1.516 1_545 S
C2754 C2753 1.516 1_565 S
C2754 C2755 1.502 1_565 S
C2754 C2756 1.561 . S
C2754 C2757 1.526 1_565 S
C2755 H2739 0.959 . S
C2755 H2740 0.959 1_545 S
C2755 H2741 0.956 . S
C2755 C2754 1.502 1_545 S
C2756 H2742 0.960 . S
C2756 H2743 0.961 . S
C2756 H2744 0.959 . S
C2756 C2754 1.561 . S
C2757 C2754 1.526 1_545 S
C2757 C2758 1.396 . S
C2757 C2762 1.390 1_545 S
C2758 C2752 1.465 . S
C2758 C2757 1.396 . S
C2758 C2759 1.399 . S
C2759 H2745 0.929 . S
C2759 C2758 1.399 . S
C2759 C2760 1.385 . S
C2760 H2746 0.931 . S
C2760 C2759 1.385 . S
C2760 C2761 1.389 . S
C2761 C2760 1.389 . S
C2761 C2762 1.387 1_545 S
C2762 H2747 0.930 . S
C2762 C2757 1.390 1_565 S
C2762 C2761 1.387 1_565 S
H2763 C2775 0.930 . S
H2764 C2777 0.930 . S
H2765 C2778 0.930 . S
H2766 C2782 0.959 1_455 S
H2767 C2782 0.959 . S
H2768 C2782 0.961 . S
H2769 C2783 0.960 . S
H2770 C2783 0.961 . S
H2771 C2783 0.959 . S
H2772 C2786 0.929 . S
H2773 C2787 0.933 . S
H2774 C2789 0.930 . S
C2775 H2763 0.930 . S
C2775 C2776 1.399 . S
C2775 C2780 1.399 . S
C2776 C2775 1.399 . S
C2776 C2777 1.376 . S
C2777 H2764 0.930 . S
C2777 C2776 1.376 . S
C2777 C2778 1.388 . S
C2778 H2765 0.930 . S
C2778 C2777 1.388 . S
C2778 C2779 1.390 . S
C2779 C2778 1.390 . S
C2779 C2780 1.394 . S
C2779 C2785 1.465 . S
C2780 C2775 1.399 . S
C2780 C2779 1.394 . S
C2780 C2781 1.516 . S
C2781 C2780 1.516 . S
C2781 C2782 1.502 . S
C2781 C2783 1.561 . S
C2781 C2784 1.526 . S
C2782 H2766 0.959 1_655 S
C2782 H2767 0.959 . S
C2782 H2768 0.961 . S
C2782 C2781 1.502 . S
C2783 H2769 0.960 . S
C2783 H2770 0.961 . S
C2783 H2771 0.959 . S
C2783 C2781 1.561 . S
C2784 C2781 1.526 . S
C2784 C2785 1.396 . S
C2784 C2789 1.390 . S
C2785 C2779 1.465 . S
C2785 C2784 1.396 . S
C2785 C2786 1.399 . S
C2786 H2772 0.929 . S
C2786 C2785 1.399 . S
C2786 C2787 1.385 . S
C2787 H2773 0.933 . S
C2787 C2786 1.385 . S
C2787 C2788 1.389 . S
C2788 C2787 1.389 . S
C2788 C2789 1.387 . S
C2789 H2774 0.930 . S
C2789 C2784 1.390 . S
C2789 C2788 1.387 . S
H2790 C2802 0.930 . S
H2791 C2804 0.930 . S
H2792 C2805 0.930 . S
H2793 C2809 0.959 . S
H2794 C2809 0.959 . S
H2795 C2809 0.961 . S
H2796 C2810 0.960 . S
H2797 C2810 0.961 . S
H2798 C2810 0.959 . S
H2799 C2813 0.929 . S
H2800 C2814 0.931 . S
H2801 C2816 0.930 . S
C2802 H2790 0.930 . S
C2802 C2803 1.399 . S
C2802 C2807 1.399 . S
C2803 C2802 1.399 . S
C2803 C2804 1.376 . S
C2804 H2791 0.930 . S
C2804 C2803 1.376 . S
C2804 C2805 1.388 . S
C2805 H2792 0.930 . S
C2805 C2804 1.388 . S
C2805 C2806 1.390 . S
C2806 C2805 1.390 . S
C2806 C2807 1.394 . S
C2806 C2812 1.465 . S
C2807 C2802 1.399 . S
C2807 C2806 1.394 . S
C2807 C2808 1.516 . S
C2808 C2807 1.516 . S
C2808 C2809 1.502 . S
C2808 C2810 1.561 . S
C2808 C2811 1.526 . S
C2809 H2793 0.959 . S
C2809 H2794 0.959 . S
C2809 H2795 0.961 . S
C2809 C2808 1.502 . S
C2810 H2796 0.960 . S
C2810 H2797 0.961 . S
C2810 H2798 0.959 . S
C2810 C2808 1.561 . S
C2811 C2808 1.526 . S
C2811 C2812 1.396 . S
C2811 C2816 1.390 . S
C2812 C2806 1.465 . S
C2812 C2811 1.396 . S
C2812 C2813 1.399 . S
C2813 H2799 0.929 . S
C2813 C2812 1.399 . S
C2813 C2814 1.385 . S
C2814 H2800 0.931 . S
C2814 C2813 1.385 . S
C2814 C2815 1.389 . S
C2815 C2814 1.389 . S
C2815 C2816 1.387 . S
C2816 H2801 0.930 . S
C2816 C2811 1.390 . S
C2816 C2815 1.387 . S
H2817 C2829 0.930 . S
H2818 C2831 0.930 . S
H2819 C2832 0.930 . S
H2820 C2836 0.959 . S
H2821 C2836 0.959 . S
H2822 C2836 0.961 . S
H2823 C2837 0.960 . S
H2824 C2837 0.961 . S
H2825 C2837 0.959 . S
H2826 C2840 0.929 . S
H2827 C2841 0.931 . S
H2828 C2843 0.930 . S
C2829 H2817 0.930 . S
C2829 C2830 1.399 . S
C2829 C2834 1.399 . S
C2830 C2829 1.399 . S
C2830 C2831 1.376 . S
C2831 H2818 0.930 . S
C2831 C2830 1.376 . S
C2831 C2832 1.388 . S
C2832 H2819 0.930 . S
C2832 C2831 1.388 . S
C2832 C2833 1.390 . S
C2833 C2832 1.390 . S
C2833 C2834 1.394 . S
C2833 C2839 1.465 . S
C2834 C2829 1.399 . S
C2834 C2833 1.394 . S
C2834 C2835 1.516 . S
C2835 C2834 1.516 . S
C2835 C2836 1.502 . S
C2835 C2837 1.561 . S
C2835 C2838 1.526 . S
C2836 H2820 0.959 . S
C2836 H2821 0.959 . S
C2836 H2822 0.961 . S
C2836 C2835 1.502 . S
C2837 H2823 0.960 . S
C2837 H2824 0.961 . S
C2837 H2825 0.959 . S
C2837 C2835 1.561 . S
C2838 C2835 1.526 . S
C2838 C2839 1.396 . S
C2838 C2843 1.390 . S
C2839 C2833 1.465 . S
C2839 C2838 1.396 . S
C2839 C2840 1.399 . S
C2840 H2826 0.929 . S
C2840 C2839 1.399 . S
C2840 C2841 1.385 . S
C2841 H2827 0.931 . S
C2841 C2840 1.385 . S
C2841 C2842 1.389 . S
C2842 C2841 1.389 . S
C2842 C2843 1.387 . S
C2843 H2828 0.930 . S
C2843 C2838 1.390 . S
C2843 C2842 1.387 . S
H2844 C2856 0.930 . S
H2845 C2858 0.930 . S
H2846 C2859 0.930 . S
H2847 C2863 0.959 . S
H2848 C2863 0.959 . S
H2849 C2863 0.961 . S
H2850 C2864 0.960 . S
H2851 C2864 0.961 . S
H2852 C2864 0.959 . S
H2853 C2867 0.929 . S
H2854 C2868 0.931 . S
H2855 C2870 0.930 . S
C2856 H2844 0.930 . S
C2856 C2857 1.399 . S
C2856 C2861 1.399 . S
C2857 C2856 1.399 . S
C2857 C2858 1.376 . S
C2858 H2845 0.930 . S
C2858 C2857 1.376 . S
C2858 C2859 1.388 . S
C2859 H2846 0.930 . S
C2859 C2858 1.388 . S
C2859 C2860 1.390 . S
C2860 C2859 1.390 . S
C2860 C2861 1.394 . S
C2860 C2866 1.465 . S
C2861 C2856 1.399 . S
C2861 C2860 1.394 . S
C2861 C2862 1.516 . S
C2862 C2861 1.516 . S
C2862 C2863 1.502 . S
C2862 C2864 1.561 . S
C2862 C2865 1.526 . S
C2863 H2847 0.959 . S
C2863 H2848 0.959 . S
C2863 H2849 0.961 . S
C2863 C2862 1.502 . S
C2864 H2850 0.960 . S
C2864 H2851 0.961 . S
C2864 H2852 0.959 . S
C2864 C2862 1.561 . S
C2865 C2862 1.526 . S
C2865 C2866 1.396 . S
C2865 C2870 1.390 . S
C2866 C2860 1.465 . S
C2866 C2865 1.396 . S
C2866 C2867 1.399 . S
C2867 H2853 0.929 . S
C2867 C2866 1.399 . S
C2867 C2868 1.385 . S
C2868 H2854 0.931 . S
C2868 C2867 1.385 . S
C2868 C2869 1.389 . S
C2869 C2868 1.389 . S
C2869 C2870 1.387 . S
C2870 H2855 0.930 . S
C2870 C2865 1.390 . S
C2870 C2869 1.387 . S
H2871 C2883 0.930 . S
H2872 C2885 0.930 . S
H2873 C2886 0.930 . S
H2874 C2890 0.959 . S
H2875 C2890 0.959 . S
H2876 C2890 0.961 . S
H2877 C2891 0.960 . S
H2878 C2891 0.961 . S
H2879 C2891 0.959 . S
H2880 C2894 0.929 . S
H2881 C2895 0.931 . S
H2882 C2897 0.930 . S
C2883 H2871 0.930 . S
C2883 C2884 1.399 . S
C2883 C2888 1.399 . S
C2884 C2883 1.399 . S
C2884 C2885 1.376 . S
C2885 H2872 0.930 . S
C2885 C2884 1.376 . S
C2885 C2886 1.388 . S
C2886 H2873 0.930 . S
C2886 C2885 1.388 . S
C2886 C2887 1.390 . S
C2887 C2886 1.390 . S
C2887 C2888 1.394 . S
C2887 C2893 1.465 . S
C2888 C2883 1.399 . S
C2888 C2887 1.394 . S
C2888 C2889 1.516 . S
C2889 C2888 1.516 . S
C2889 C2890 1.502 . S
C2889 C2891 1.561 . S
C2889 C2892 1.526 . S
C2890 H2874 0.959 . S
C2890 H2875 0.959 . S
C2890 H2876 0.961 . S
C2890 C2889 1.502 . S
C2891 H2877 0.960 . S
C2891 H2878 0.961 . S
C2891 H2879 0.959 . S
C2891 C2889 1.561 . S
C2892 C2889 1.526 . S
C2892 C2893 1.396 . S
C2892 C2897 1.390 . S
C2893 C2887 1.465 . S
C2893 C2892 1.396 . S
C2893 C2894 1.399 . S
C2894 H2880 0.929 . S
C2894 C2893 1.399 . S
C2894 C2895 1.385 . S
C2895 H2881 0.931 . S
C2895 C2894 1.385 . S
C2895 C2896 1.389 . S
C2896 C2895 1.389 . S
C2896 C2897 1.387 . S
C2897 H2882 0.930 . S
C2897 C2892 1.390 . S
C2897 C2896 1.387 . S
H2898 C2910 0.930 . S
H2899 C2912 0.930 . S
H2900 C2913 0.930 . S
H2901 C2917 0.959 . S
H2902 C2917 0.959 . S
H2903 C2917 0.961 . S
H2904 C2918 0.960 . S
H2905 C2918 0.961 . S
H2906 C2918 0.959 . S
H2907 C2921 0.929 . S
H2908 C2922 0.931 . S
H2909 C2924 0.930 . S
C2910 H2898 0.930 . S
C2910 C2911 1.399 . S
C2910 C2915 1.399 . S
C2911 C2910 1.399 . S
C2911 C2912 1.376 . S
C2912 H2899 0.930 . S
C2912 C2911 1.376 . S
C2912 C2913 1.388 . S
C2913 H2900 0.930 . S
C2913 C2912 1.388 . S
C2913 C2914 1.390 . S
C2914 C2913 1.390 . S
C2914 C2915 1.394 . S
C2914 C2920 1.465 . S
C2915 C2910 1.399 . S
C2915 C2914 1.394 . S
C2915 C2916 1.516 . S
C2916 C2915 1.516 . S
C2916 C2917 1.502 . S
C2916 C2918 1.561 . S
C2916 C2919 1.526 . S
C2917 H2901 0.959 . S
C2917 H2902 0.959 . S
C2917 H2903 0.961 . S
C2917 C2916 1.502 . S
C2918 H2904 0.960 . S
C2918 H2905 0.961 . S
C2918 H2906 0.959 . S
C2918 C2916 1.561 . S
C2919 C2916 1.526 . S
C2919 C2920 1.396 . S
C2919 C2924 1.390 . S
C2920 C2914 1.465 . S
C2920 C2919 1.396 . S
C2920 C2921 1.399 . S
C2921 H2907 0.929 . S
C2921 C2920 1.399 . S
C2921 C2922 1.385 . S
C2922 H2908 0.931 . S
C2922 C2921 1.385 . S
C2922 C2923 1.389 . S
C2923 C2922 1.389 . S
C2923 C2924 1.387 . S
C2924 H2909 0.930 . S
C2924 C2919 1.390 . S
C2924 C2923 1.387 . S
H2925 C2937 0.930 . S
H2926 C2939 0.930 . S
H2927 C2940 0.930 . S
H2928 C2944 0.959 . S
H2929 C2944 0.959 . S
H2930 C2944 0.961 . S
H2931 C2945 0.960 . S
H2932 C2945 0.961 . S
H2933 C2945 0.959 . S
H2934 C2948 0.929 . S
H2935 C2949 0.931 . S
H2936 C2951 0.930 . S
C2937 H2925 0.930 . S
C2937 C2938 1.399 . S
C2937 C2942 1.399 . S
C2938 C2937 1.399 . S
C2938 C2939 1.376 . S
C2939 H2926 0.930 . S
C2939 C2938 1.376 . S
C2939 C2940 1.388 . S
C2940 H2927 0.930 . S
C2940 C2939 1.388 . S
C2940 C2941 1.390 . S
C2941 C2940 1.390 . S
C2941 C2942 1.394 . S
C2941 C2947 1.465 . S
C2942 C2937 1.399 . S
C2942 C2941 1.394 . S
C2942 C2943 1.516 . S
C2943 C2942 1.516 . S
C2943 C2944 1.502 . S
C2943 C2945 1.561 . S
C2943 C2946 1.526 . S
C2944 H2928 0.959 . S
C2944 H2929 0.959 . S
C2944 H2930 0.961 . S
C2944 C2943 1.502 . S
C2945 H2931 0.960 . S
C2945 H2932 0.961 . S
C2945 H2933 0.959 . S
C2945 C2943 1.561 . S
C2946 C2943 1.526 . S
C2946 C2947 1.396 . S
C2946 C2951 1.390 . S
C2947 C2941 1.465 . S
C2947 C2946 1.396 . S
C2947 C2948 1.399 . S
C2948 H2934 0.929 . S
C2948 C2947 1.399 . S
C2948 C2949 1.385 . S
C2949 H2935 0.931 . S
C2949 C2948 1.385 . S
C2949 C2950 1.389 . S
C2950 C2949 1.389 . S
C2950 C2951 1.387 . S
C2951 H2936 0.930 . S
C2951 C2946 1.390 . S
C2951 C2950 1.387 . S
H2952 C2964 0.930 . S
H2953 C2966 0.930 . S
H2954 C2967 0.930 . S
H2955 C2971 0.959 . S
H2956 C2971 0.959 . S
H2957 C2971 0.961 . S
H2958 C2972 0.960 . S
H2959 C2972 0.961 . S
H2960 C2972 0.959 . S
H2961 C2975 0.929 . S
H2962 C2976 0.931 . S
H2963 C2978 0.930 . S
C2964 H2952 0.930 . S
C2964 C2965 1.399 . S
C2964 C2969 1.399 . S
C2965 C2964 1.399 . S
C2965 C2966 1.376 . S
C2966 H2953 0.930 . S
C2966 C2965 1.376 . S
C2966 C2967 1.388 . S
C2967 H2954 0.930 . S
C2967 C2966 1.388 . S
C2967 C2968 1.390 . S
C2968 C2967 1.390 . S
C2968 C2969 1.394 . S
C2968 C2974 1.465 . S
C2969 C2964 1.399 . S
C2969 C2968 1.394 . S
C2969 C2970 1.516 . S
C2970 C2969 1.516 . S
C2970 C2971 1.502 . S
C2970 C2972 1.561 . S
C2970 C2973 1.526 . S
C2971 H2955 0.959 . S
C2971 H2956 0.959 . S
C2971 H2957 0.961 . S
C2971 C2970 1.502 . S
C2972 H2958 0.960 . S
C2972 H2959 0.961 . S
C2972 H2960 0.959 . S
C2972 C2970 1.561 . S
C2973 C2970 1.526 . S
C2973 C2974 1.396 . S
C2973 C2978 1.390 . S
C2974 C2968 1.465 . S
C2974 C2973 1.396 . S
C2974 C2975 1.399 . S
C2975 H2961 0.929 . S
C2975 C2974 1.399 . S
C2975 C2976 1.385 . S
C2976 H2962 0.931 . S
C2976 C2975 1.385 . S
C2976 C2977 1.389 . S
C2977 C2976 1.389 . S
C2977 C2978 1.387 . S
C2978 H2963 0.930 . S
C2978 C2973 1.390 . S
C2978 C2977 1.387 . S
H2979 C2991 0.930 1_455 S
H2980 C2993 0.930 . S
H2981 C2994 0.930 . S
H2982 C2998 0.959 . S
H2983 C2998 0.959 . S
H2984 C2998 0.961 . S
H2985 C2999 0.960 . S
H2986 C2999 0.961 . S
H2987 C2999 0.959 . S
H2988 C3002 0.929 . S
H2989 C3003 0.931 . S
H2990 C3005 0.953 . S
C2991 H2979 0.930 1_655 S
C2991 C2992 1.399 . S
C2991 C2996 1.399 . S
C2992 C2991 1.399 . S
C2992 C2993 1.376 . S
C2993 H2980 0.930 . S
C2993 C2992 1.376 . S
C2993 C2994 1.388 . S
C2994 H2981 0.930 . S
C2994 C2993 1.388 . S
C2994 C2995 1.390 . S
C2995 C2994 1.390 . S
C2995 C2996 1.394 . S
C2995 C3001 1.465 . S
C2996 C2991 1.399 . S
C2996 C2995 1.394 . S
C2996 C2997 1.516 1_655 S
C2997 C2996 1.516 1_455 S
C2997 C2998 1.502 . S
C2997 C2999 1.561 1_455 S
C2997 C3000 1.526 1_455 S
C2998 H2982 0.959 . S
C2998 H2983 0.959 . S
C2998 H2984 0.961 . S
C2998 C2997 1.502 . S
C2999 H2985 0.960 . S
C2999 H2986 0.961 . S
C2999 H2987 0.959 . S
C2999 C2997 1.561 1_655 S
C3000 C2997 1.526 1_655 S
C3000 C3001 1.396 . S
C3000 C3005 1.360 1_655 S
C3001 C2995 1.465 . S
C3001 C3000 1.396 . S
C3001 C3002 1.399 . S
C3002 H2988 0.929 . S
C3002 C3001 1.399 . S
C3002 C3003 1.385 . S
C3003 H2989 0.931 . S
C3003 C3002 1.385 . S
C3003 C3004 1.389 . S
C3004 C3003 1.389 . S
C3004 C3005 1.395 1_655 S
C3005 H2990 0.953 . S
C3005 C3000 1.360 1_455 S
C3005 C3004 1.395 1_455 S
H3006 C3018 0.930 . S
H3007 C3020 0.930 . S
H3008 C3021 0.930 . S
H3009 C3025 0.959 . S
H3010 C3025 0.959 . S
H3011 C3025 0.961 . S
H3012 C3026 0.960 . S
H3013 C3026 0.961 . S
H3014 C3026 0.959 . S
H3015 C3029 0.929 . S
H3016 C3030 0.931 . S
H3017 C3032 0.930 . S
C3018 H3006 0.930 . S
C3018 C3019 1.399 . S
C3018 C3023 1.399 . S
C3019 C3018 1.399 . S
C3019 C3020 1.376 . S
C3020 H3007 0.930 . S
C3020 C3019 1.376 . S
C3020 C3021 1.388 . S
C3021 H3008 0.930 . S
C3021 C3020 1.388 . S
C3021 C3022 1.390 . S
C3022 C3021 1.390 . S
C3022 C3023 1.394 . S
C3022 C3028 1.465 . S
C3023 C3018 1.399 . S
C3023 C3022 1.394 . S
C3023 C3024 1.516 . S
C3024 C3023 1.516 . S
C3024 C3025 1.502 . S
C3024 C3026 1.561 . S
C3024 C3027 1.526 . S
C3025 H3009 0.959 . S
C3025 H3010 0.959 . S
C3025 H3011 0.961 . S
C3025 C3024 1.502 . S
C3026 H3012 0.960 . S
C3026 H3013 0.961 . S
C3026 H3014 0.959 . S
C3026 C3024 1.561 . S
C3027 C3024 1.526 . S
C3027 C3028 1.396 . S
C3027 C3032 1.390 . S
C3028 C3022 1.465 . S
C3028 C3027 1.396 . S
C3028 C3029 1.399 . S
C3029 H3015 0.929 . S
C3029 C3028 1.399 . S
C3029 C3030 1.385 . S
C3030 H3016 0.931 . S
C3030 C3029 1.385 . S
C3030 C3031 1.389 . S
C3031 C3030 1.389 . S
C3031 C3032 1.387 . S
C3032 H3017 0.930 . S
C3032 C3027 1.390 . S
C3032 C3031 1.387 . S
H3033 C3045 0.930 . S
H3034 C3047 0.889 1_565 S
H3035 C3048 0.930 . S
H3036 C3052 0.959 . S
H3037 C3052 0.959 . S
H3038 C3052 0.961 . S
H3039 C3053 0.960 . S
H3040 C3053 0.961 . S
H3041 C3053 0.959 . S
H3042 C3056 0.929 . S
H3043 C3057 0.931 . S
H3044 C3059 0.930 . S
C3045 H3033 0.930 . S
C3045 C3046 1.399 . S
C3045 C3050 1.399 . S
C3046 C3045 1.399 . S
C3046 C3047 1.405 . S
C3047 H3034 0.889 1_545 S
C3047 C3046 1.405 . S
C3047 C3048 1.406 1_545 S
C3048 H3035 0.930 . S
C3048 C3047 1.406 1_565 S
C3048 C3049 1.390 1_565 S
C3049 C3048 1.390 1_545 S
C3049 C3050 1.394 . S
C3049 C3055 1.465 . S
C3050 C3045 1.399 . S
C3050 C3049 1.394 . S
C3050 C3051 1.516 . S
C3051 C3050 1.516 . S
C3051 C3052 1.502 . S
C3051 C3053 1.561 . S
C3051 C3054 1.526 . S
C3052 H3036 0.959 . S
C3052 H3037 0.959 . S
C3052 H3038 0.961 . S
C3052 C3051 1.502 . S
C3053 H3039 0.960 . S
C3053 H3040 0.961 . S
C3053 H3041 0.959 . S
C3053 C3051 1.561 . S
C3054 C3051 1.526 . S
C3054 C3055 1.396 . S
C3054 C3059 1.390 . S
C3055 C3049 1.465 . S
C3055 C3054 1.396 . S
C3055 C3056 1.399 1_545 S
C3056 H3042 0.929 . S
C3056 C3055 1.399 1_565 S
C3056 C3057 1.385 . S
C3057 H3043 0.931 . S
C3057 C3056 1.385 . S
C3057 C3058 1.389 1_565 S
C3058 C3057 1.389 1_545 S
C3058 C3059 1.387 . S
C3059 H3044 0.930 . S
C3059 C3054 1.390 . S
C3059 C3058 1.387 . S
C1129 C4 1.469 . S
C1141 C729 1.495 . S
C1156 C26 1.531 . S
C1168 C777 1.539 . S
C1195 C825 1.432 . S
C1183 C32 1.370 . S
C1210 C40 1.402 . S
C1222 C849 1.443 . S
C1237 C12 1.461 . S
C1249 C921 1.502 . S
C1264 C18 1.504 . S
C1276 C969 1.524 . S
C1291 C46 1.431 . S
C1303 C897 1.483 . S
C1330 C945 1.541 . S
C1318 C68 1.542 . S
C1357 C873 1.518 . S
C1345 C74 1.440 . S
C1372 C82 1.406 . S
C1384 C801 1.437 . S
C1411 C705 1.499 . S
C1399 C54 1.504 . S
C1426 C60 1.512 . S
C1438 C753 1.528 . S
C1453 C88 1.612 . S
C1465 C1017 1.631 . S
C1480 C110 1.607 . S
C1492 C1065 1.600 . S
C1519 C1089 1.590 . S
C1507 C116 1.513 . S
C1534 C124 1.471 . S
C1546 C273 1.472 . S
C1561 C96 1.534 . S
C1573 C345 1.536 . S
C1588 C102 1.490 . S
C1600 C393 1.542 . S
C1615 C130 1.492 . S
C1627 C321 1.558 . S
C1642 C152 1.606 . S
C1654 C369 1.601 . S
C1681 C297 1.566 . S
C1669 C158 1.515 . S
C1708 C1113 1.545 . S
C1696 C166 1.555 . S
C1735 C993 1.542 . S
C1723 C138 1.544 . S
C1762 C1041 1.584 . S
C1750 C144 1.515 . S
C1777 C172 1.498 . S
C1789 C441 1.570 . S
C1804 C194 1.600 . S
C1816 C489 1.600 . S
C1831 C200 1.585 . S
C1843 C513 1.571 . S
C1858 C208 1.529 . S
C1870 C561 1.512 . S
C1897 C633 1.551 . S
C1885 C180 1.551 . S
C1924 C681 1.589 . S
C1912 C186 1.524 . S
C1951 C609 1.634 . S
C1939 C214 1.564 . S
C1978 C657 1.605 . S
C1966 C236 1.613 . S
C1993 C242 1.550 . S
C2005 C585 1.577 . S
C2032 C537 1.480 . S
C2020 C250 1.488 . S
C2047 C222 1.550 . S
C2059 C417 1.553 . S
C2086 C465 1.555 . S
C2074 C228 1.495 . S
C2113 C282 1.487 . S
C2101 C5 1.346 . S
C2128 C25 1.408 . S
C2140 C336 1.348 . S
C2167 C384 1.459 . S
C2155 C33 1.362 . S
C2194 C432 1.374 . S
C2182 C39 1.363 . S
C2221 C480 1.435 . S
C2209 C11 1.474 . S
C2248 C522 1.404 . S
C2236 C19 1.260 1_556 S
C2263 C47 1.344 1_556 S
C2275 C528 1.496 . S
C2290 C67 1.410 . S
C2302 C426 1.384 . S
C2317 C75 1.288 1_556 S
C2329 C474 1.494 . S
C2344 C81 1.405 . S
C2356 C330 1.353 . S
C2383 C378 1.372 . S
C2371 C53 1.440 . S
C2398 C61 1.105 . S
C2410 C288 1.415 . S
C2437 C570 1.444 . S
C2425 C89 1.292 . S
C2452 C109 1.479 . S
C2464 C624 1.437 . S
C2479 C117 1.279 . S
C2491 C672 1.456 . S
C2518 C720 1.223 . S
C2506 C123 1.203 . S
C2533 C95 1.411 . S
C2545 C768 1.402 . S
C2560 C103 1.115 . S
C2572 C816 1.264 . S
C2587 C131 1.175 . S
C2599 C810 1.230 . S
C2614 C151 1.268 . S
C2626 C714 1.270 . S
C2653 C762 1.422 . S
C2641 C159 1.122 . S
C2668 C165 1.370 . S
C2680 C618 1.341 . S
C2695 C137 1.466 . S
C2707 C666 1.410 . S
C2734 C576 1.461 . S
C2722 C145 1.285 . S
C2761 C858 1.290 . S
C2749 C173 1.024 . S
C2776 C193 1.214 . S
C2788 C912 1.227 . S
C2803 C201 1.134 . S
C2815 C960 1.429 . S
C2842 C1008 1.320 . S
C2830 C207 1.360 . S
C2869 C1056 1.445 . S
C2857 C179 1.480 . S
C2884 C187 1.243 . S
C2896 C1098 1.497 . S
C2911 C215 1.311 . S
C2923 C1104 1.439 . S
C2938 C235 1.507 . S
C2950 C1002 1.488 . S
C2977 C1050 1.488 . S
C2965 C243 1.185 . S
C3004 C906 1.210 . S
C2992 C249 1.188 . S
C3031 C954 1.375 . S
C3019 C221 1.399 . S
C3046 C229 1.009 . S
C3058 C864 1.279 . S
