# Generated by pormake.
# Topology nom, (4,4)-cn, num edge types: 1
# Building blocks:
#     Node 0, Type 0, BuildingBlock: NAHDIM_clean_linker_0, # of connection points: 4
#     Node 1, Type 0, BuildingBlock: NAHDIM_clean_linker_0, # of connection points: 4
#     Node 2, Type 0, BuildingBlock: NAHDIM_clean_linker_0, # of connection points: 4
#     Node 3, Type 0, BuildingBlock: NAHDIM_clean_linker_0, # of connection points: 4
#     Node 4, Type 0, BuildingBlock: NAHDIM_clean_linker_0, # of connection points: 4
#     Node 5, Type 0, BuildingBlock: NAHDIM_clean_linker_0, # of connection points: 4
#     Node 6, Type 1, BuildingBlock: QUQFOY_clean_sbu_1, # of connection points: 4
#     Node 7, Type 1, BuildingBlock: QUQFOY_clean_sbu_1, # of connection points: 4
#     Node 8, Type 1, BuildingBlock: QUQFOY_clean_sbu_1, # of connection points: 4
#     Node 9, Type 1, BuildingBlock: QUQFOY_clean_sbu_1, # of connection points: 4
#     Node 10, Type 1, BuildingBlock: QUQFOY_clean_sbu_1, # of connection points: 4
#     Node 11, Type 1, BuildingBlock: QUQFOY_clean_sbu_1, # of connection points: 4
#     Edge 12, Type (0, 1), BuildingBlock: OJICUG_clean_linker_0, # of connection points: 2
#     Edge 13, Type (0, 1), BuildingBlock: OJICUG_clean_linker_0, # of connection points: 2
#     Edge 14, Type (0, 1), BuildingBlock: OJICUG_clean_linker_0, # of connection points: 2
#     Edge 15, Type (0, 1), BuildingBlock: OJICUG_clean_linker_0, # of connection points: 2
#     Edge 16, Type (0, 1), BuildingBlock: OJICUG_clean_linker_0, # of connection points: 2
#     Edge 17, Type (0, 1), BuildingBlock: OJICUG_clean_linker_0, # of connection points: 2
#     Edge 18, Type (0, 1), BuildingBlock: OJICUG_clean_linker_0, # of connection points: 2
#     Edge 19, Type (0, 1), BuildingBlock: OJICUG_clean_linker_0, # of connection points: 2
#     Edge 20, Type (0, 1), BuildingBlock: OJICUG_clean_linker_0, # of connection points: 2
#     Edge 21, Type (0, 1), BuildingBlock: OJICUG_clean_linker_0, # of connection points: 2
#     Edge 22, Type (0, 1), BuildingBlock: OJICUG_clean_linker_0, # of connection points: 2
#     Edge 23, Type (0, 1), BuildingBlock: OJICUG_clean_linker_0, # of connection points: 2
#     Edge 24, Type (0, 1), BuildingBlock: OJICUG_clean_linker_0, # of connection points: 2
#     Edge 25, Type (0, 1), BuildingBlock: OJICUG_clean_linker_0, # of connection points: 2
#     Edge 26, Type (0, 1), BuildingBlock: OJICUG_clean_linker_0, # of connection points: 2
#     Edge 27, Type (0, 1), BuildingBlock: OJICUG_clean_linker_0, # of connection points: 2
#     Edge 28, Type (0, 1), BuildingBlock: OJICUG_clean_linker_0, # of connection points: 2
#     Edge 29, Type (0, 1), BuildingBlock: OJICUG_clean_linker_0, # of connection points: 2
#     Edge 30, Type (0, 1), BuildingBlock: OJICUG_clean_linker_0, # of connection points: 2
#     Edge 31, Type (0, 1), BuildingBlock: OJICUG_clean_linker_0, # of connection points: 2
#     Edge 32, Type (0, 1), BuildingBlock: OJICUG_clean_linker_0, # of connection points: 2
#     Edge 33, Type (0, 1), BuildingBlock: OJICUG_clean_linker_0, # of connection points: 2
#     Edge 34, Type (0, 1), BuildingBlock: OJICUG_clean_linker_0, # of connection points: 2
#     Edge 35, Type (0, 1), BuildingBlock: OJICUG_clean_linker_0, # of connection points: 2
# Relax obj value: 0.086
# Max RMSD: 0.161
# Mean RMSD: 0.149
data_MOF--net-nom--node1-QUQFOY_clean_sbu_1--node2-NAHDIM_clean_linker_0--edge1-OJICUG_clean_linker_0
_symmetry_space_group_name_H-M    P1
_symmetry_Int_Tables_number       1
_symmetry_cell_setting            triclinic
loop_
_symmetry_equiv_pos_as_xyz
'x, y, z'
_cell_length_a     48.510029
_cell_length_b     48.73213
_cell_length_c     53.961056
_cell_angle_alpha  90.146226
_cell_angle_beta   90.163326
_cell_angle_gamma 120.02894
loop_
_atom_site_label
_atom_site_type_symbol
_atom_site_fract_x
_atom_site_fract_y
_atom_site_fract_z
_atom_type_partial_charge
C0 C 0.19988 0.58021 0.2177 0.0
C1 C 0.20328 0.59853 0.2417 0.0
C2 C 0.14777 0.57913 0.25497 0.0
C3 C 0.1411 0.54891 0.26283 0.0
C4 C 0.11105 0.52716 0.27242 0.0
C5 C 0.08723 0.53574 0.27411 0.0
C6 C 0.09386 0.56606 0.26616 0.0
C7 C 0.12409 0.58735 0.25676 0.0
C8 C 0.10469 0.49499 0.28076 0.0
C9 C 0.06898 0.57595 0.26756 0.0
C10 C 0.93306 0.37821 0.15933 0.0
C11 C 0.9249 0.39936 0.17507 0.0
C12 C 0.93827 0.40845 0.21864 0.0
C13 C 0.9437 0.43942 0.22102 0.0
C14 C 0.96351 0.45955 0.23986 0.0
C15 C 0.9784 0.44848 0.25645 0.0
C16 C 0.97226 0.41692 0.25445 0.0
C17 C 0.95171 0.39708 0.23577 0.0
C18 C 0.969 0.49283 0.24175 0.0
C19 C 0.98807 0.40444 0.27158 0.0
C20 C 0.87345 0.40648 0.4019 0.0
C21 C 0.87911 0.4327 0.38759 0.0
C22 C 0.91008 0.45458 0.37973 0.0
C23 C 0.93556 0.44919 0.38542 0.0
C24 C 0.9297 0.42268 0.40003 0.0
C25 C 0.89877 0.40209 0.40856 0.0
C26 C 0.9154 0.48334 0.36535 0.0
C27 C 0.95595 0.41582 0.40648 0.0
C28 C 0.17546 0.62339 0.42423 0.0
C29 C 0.15767 0.59541 0.44185 0.0
C30 C 0.10076 0.57025 0.4334 0.0
C31 C 0.08022 0.58067 0.42521 0.0
C32 C 0.05372 0.56123 0.41027 0.0
C33 C 0.04747 0.53047 0.40386 0.0
C34 C 0.06689 0.51899 0.41365 0.0
C35 C 0.09336 0.53903 0.42836 0.0
C36 C 0.03323 0.57398 0.40042 0.0
C37 C 0.0603 0.48593 0.40784 0.0
C38 C 0.05524 0.51295 0.28399 0.0
C39 C 0.03229 0.49163 0.26742 0.0
C40 C 0.00135 0.4703 0.27523 0.0
C41 C 0.99282 0.47021 0.30028 0.0
C42 C 0.96182 0.44936 0.30869 0.0
C43 C 0.95377 0.44925 0.33343 0.0
C44 C 0.97622 0.47042 0.35067 0.0
C45 C 0.96816 0.47083 0.37584 0.0
C46 C 0.9916 0.49131 0.39262 0.0
C47 C 0.0229 0.51148 0.38494 0.0
C48 C 0.03103 0.51227 0.35971 0.0
C49 C 0.06206 0.53313 0.35126 0.0
C50 C 0.07001 0.53349 0.32648 0.0
C51 C 0.04733 0.51284 0.30921 0.0
C52 C 0.01594 0.49152 0.31733 0.0
C53 C 0.00768 0.4915 0.34257 0.0
C54 C 0.80251 0.33404 0.40022 0.0
C55 C 0.81718 0.36954 0.39505 0.0
O56 O 0.17634 0.60105 0.24542 0.0
O57 O 0.12741 0.59073 0.44615 0.0
O58 O 0.84387 0.38558 0.41009 0.0
O59 O 0.92104 0.38949 0.19949 0.0
H60 H 0.20668 0.58602 0.25759 0.0
H61 H 0.17913 0.55584 0.21881 0.0
H62 H 0.19635 0.5923 0.20159 0.0
H63 H 0.22154 0.57837 0.2146 0.0
H64 H 0.15903 0.542 0.2615 0.0
H65 H 0.12939 0.61065 0.25063 0.0
H66 H 0.08494 0.47626 0.26958 0.0
H67 H 0.12594 0.49217 0.27891 0.0
H68 H 0.09702 0.49122 0.30043 0.0
H69 H 0.07767 0.60013 0.26011 0.0
H70 H 0.04745 0.55892 0.25696 0.0
H71 H 0.06173 0.57542 0.28713 0.0
H72 H 0.94572 0.4238 0.17326 0.0
H73 H 0.93541 0.38522 0.13953 0.0
H74 H 0.9561 0.3809 0.16567 0.0
H75 H 0.91449 0.35286 0.16104 0.0
H76 H 0.93259 0.44788 0.20802 0.0
H77 H 0.94715 0.37302 0.23377 0.0
H78 H 0.99391 0.50994 0.23643 0.0
H79 H 0.95271 0.4965 0.22947 0.0
H80 H 0.96568 0.49821 0.26116 0.0
H81 H 0.98272 0.3802 0.26632 0.0
H82 H 0.01428 0.42051 0.27143 0.0
H83 H 0.9798 0.4038 0.29083 0.0
H84 H 0.8241 0.3734 0.37513 0.0
H85 H 0.85941 0.43633 0.383 0.0
H86 H 0.89404 0.38188 0.4199 0.0
H87 H 0.91784 0.47959 0.34538 0.0
H88 H 0.8952 0.48782 0.36743 0.0
H89 H 0.93764 0.50477 0.37152 0.0
H90 H 0.94654 0.39172 0.41435 0.0
H91 H 0.97032 0.41801 0.38983 0.0
H92 H 0.97206 0.43337 0.42041 0.0
H93 H 0.15642 0.57432 0.43272 0.0
H94 H 0.19986 0.62763 0.42074 0.0
H95 H 0.1626 0.61808 0.40623 0.0
H96 H 0.17714 0.64527 0.43211 0.0
H97 H 0.08579 0.6046 0.4297 0.0
H98 H 0.10829 0.53033 0.43579 0.0
H99 H 0.03501 0.57554 0.37991 0.0
H100 H 0.0079 0.55749 0.40508 0.0
H101 H 0.04033 0.59783 0.40804 0.0
H102 H 0.07546 0.47941 0.41896 0.0
H103 H 0.0349 0.46844 0.4114 0.0
H104 H 0.06484 0.48427 0.38789 0.0
H105 H 0.03855 0.49177 0.24811 0.0
H106 H 0.94344 0.43276 0.29625 0.0
H107 H 0.92966 0.43233 0.33884 0.0
H108 H 0.98557 0.49111 0.41199 0.0
H109 H 0.08059 0.54956 0.36368 0.0
H110 H 0.09424 0.55007 0.32107 0.0
H111 H 0.79335 0.32856 0.41949 0.0
H112 H 0.78279 0.31963 0.38708 0.0
H113 H 0.82087 0.32698 0.39792 0.0
C114 C 0.39598 0.85337 0.61641 0.0
C115 C 0.38408 0.84268 0.58989 0.0
C116 C 0.38744 0.88974 0.56978 0.0
C117 C 0.42056 0.90611 0.56591 0.0
C118 C 0.4357 0.93575 0.55417 0.0
C119 C 0.41758 0.94979 0.54673 0.0
C120 C 0.38444 0.93391 0.55138 0.0
C121 C 0.36979 0.9039 0.56252 0.0
C122 C 0.47112 0.95203 0.54967 0.0
C123 C 0.36443 0.94854 0.54455 0.0
C124 C 0.54864 0.17958 0.63487 0.0
C125 C 0.52755 0.16179 0.61352 0.0
C126 C 0.52069 0.12016 0.58444 0.0
C127 C 0.48855 0.10979 0.57901 0.0
C128 C 0.47048 0.08288 0.56417 0.0
C129 C 0.48491 0.06626 0.55427 0.0
C130 C 0.51732 0.07681 0.55946 0.0
C131 C 0.53478 0.10367 0.5745 0.0
C132 C 0.43598 0.07227 0.55893 0.0
C133 C 0.53348 0.05974 0.54904 0.0
C134 C 0.50138 0.14688 0.40881 0.0
C135 C 0.46827 0.12944 0.41261 0.0
C136 C 0.45325 0.09747 0.4196 0.0
C137 C 0.47153 0.08239 0.42228 0.0
C138 C 0.50431 0.09907 0.41634 0.0
C139 C 0.51883 0.13118 0.40971 0.0
C140 C 0.41808 0.08021 0.42523 0.0
C141 C 0.52433 0.08344 0.41829 0.0
C142 C 0.3138 0.82405 0.39207 0.0
C143 C 0.34582 0.85114 0.38319 0.0
C144 C 0.36446 0.90729 0.39036 0.0
C145 C 0.3527 0.92696 0.39769 0.0
C146 C 0.37235 0.95584 0.40985 0.0
C147 C 0.40473 0.96548 0.41421 0.0
C148 C 0.41732 0.94673 0.40518 0.0
C149 C 0.39701 0.91773 0.39338 0.0
C150 C 0.35822 0.97547 0.41885 0.0
C151 C 0.45196 0.9568 0.40884 0.0
C152 C 0.43334 0.98105 0.53407 0.0
C153 C 0.45076 0.00829 0.54857 0.0
C154 C 0.4664 0.03839 0.53786 0.0
C155 C 0.46439 0.04165 0.512 0.0
C156 C 0.47942 0.07162 0.50073 0.0
C157 C 0.47708 0.07466 0.47532 0.0
C158 C 0.45989 0.04783 0.46008 0.0
C159 C 0.45725 0.05075 0.43419 0.0
C160 C 0.43967 0.0236 0.41962 0.0
C161 C 0.42447 0.99341 0.43028 0.0
C162 C 0.42704 0.99005 0.45611 0.0
C163 C 0.41215 0.96004 0.46742 0.0
C164 C 0.41453 0.95699 0.49285 0.0
C165 C 0.43142 0.98383 0.50809 0.0
C166 C 0.44685 0.01428 0.49706 0.0
C167 C 0.44471 0.01737 0.47104 0.0
C168 C 0.5014 0.20017 0.43901 0.0
C169 C 0.50666 0.19967 0.41094 0.0
O170 O 0.37147 0.86052 0.58038 0.0
O171 O 0.34368 0.87834 0.38078 0.0
O172 O 0.51744 0.17884 0.40522 0.0
O173 O 0.53867 0.1455 0.59943 0.0
H174 H 0.40422 0.84562 0.57822 0.0
H175 H 0.41495 0.87869 0.61662 0.0
H176 H 0.37619 0.85059 0.62845 0.0
H177 H 0.40608 0.83915 0.62414 0.0
H178 H 0.43492 0.89608 0.57183 0.0
H179 H 0.34434 0.89134 0.56577 0.0
H180 H 0.48335 0.97332 0.56176 0.0
H181 H 0.48109 0.93636 0.55367 0.0
H182 H 0.4765 0.96008 0.53014 0.0
H183 H 0.3402 0.93542 0.55267 0.0
H184 H 0.37615 0.97358 0.55095 0.0
H185 H 0.36201 0.94847 0.5241 0.0
H186 H 0.5192 0.17518 0.60199 0.0
H187 H 0.55716 0.20525 0.63081 0.0
H188 H 0.52084 0.15629 0.66598 0.0
H189 H 0.57241 0.18152 0.63119 0.0
H190 H 0.4774 0.12257 0.58628 0.0
H191 H 0.55956 0.11183 0.57874 0.0
H192 H 0.42074 0.04715 0.56452 0.0
H193 H 0.42787 0.08696 0.56883 0.0
H194 H 0.43251 0.07363 0.53871 0.0
H195 H 0.55893 0.07111 0.55463 0.0
H196 H 0.52102 0.0348 0.55552 0.0
H197 H 0.53196 0.05923 0.52849 0.0
H198 H 0.48384 0.19213 0.40097 0.0
H199 H 0.45411 0.14083 0.41101 0.0
H200 H 0.54421 0.14455 0.40625 0.0
H201 H 0.41414 0.07197 0.44475 0.0
H202 H 0.40719 0.09532 0.42235 0.0
H203 H 0.40565 0.05895 0.41315 0.0
H204 H 0.54813 0.09797 0.40973 0.0
H205 H 0.52771 0.07983 0.43813 0.0
H206 H 0.512 0.05977 0.4092 0.0
H207 H 0.36348 0.85437 0.39781 0.0
H208 H 0.31487 0.80189 0.39394 0.0
H209 H 0.30807 0.83011 0.41049 0.0
H210 H 0.29436 0.81982 0.37894 0.0
H211 H 0.32768 0.91895 0.39481 0.0
H212 H 0.40654 0.90317 0.38675 0.0
H213 H 0.36106 0.97853 0.43927 0.0
H214 H 0.37119 0.9994 0.41045 0.0
H215 H 0.33254 0.96456 0.41413 0.0
H216 H 0.4589 0.94163 0.39825 0.0
H217 H 0.46725 0.98183 0.40303 0.0
H218 H 0.45663 0.95539 0.42882 0.0
H219 H 0.45225 0.00603 0.56846 0.0
H220 H 0.49305 0.09315 0.51144 0.0
H221 H 0.48896 0.09841 0.46782 0.0
H222 H 0.43736 0.02601 0.39986 0.0
H223 H 0.39848 0.9385 0.45676 0.0
H224 H 0.40274 0.93328 0.50042 0.0
H225 H 0.49428 0.21801 0.44356 0.0
H226 H 0.48215 0.17687 0.44555 0.0
H227 H 0.52354 0.20614 0.44938 0.0
C228 C 0.63648 0.44688 0.77266 0.0
C229 C 0.62364 0.42979 0.74783 0.0
C230 C 0.58782 0.44893 0.7331 0.0
C231 C 0.61144 0.48009 0.72735 0.0
C232 C 0.60307 0.50192 0.71813 0.0
C233 C 0.57056 0.49232 0.7145 0.0
C234 C 0.54686 0.46087 0.71998 0.0
C235 C 0.55586 0.43966 0.72925 0.0
C236 C 0.62886 0.53529 0.71235 0.0
C237 C 0.51196 0.44972 0.71621 0.0
C238 C 0.55012 0.61089 0.83591 0.0
C239 C 0.51898 0.5995 0.82157 0.0
C240 C 0.52836 0.59941 0.77753 0.0
C241 C 0.50455 0.56891 0.77049 0.0
C242 C 0.50862 0.5538 0.74983 0.0
C243 C 0.53716 0.56957 0.73605 0.0
C244 C 0.56061 0.6009 0.74253 0.0
C245 C 0.55567 0.61562 0.76308 0.0
C246 C 0.48279 0.52069 0.74311 0.0
C247 C 0.59128 0.6184 0.72824 0.0
C248 C 0.47051 0.61206 0.59347 0.0
C249 C 0.45312 0.58206 0.60427 0.0
C250 C 0.46785 0.56448 0.61039 0.0
C251 C 0.50093 0.57765 0.60624 0.0
C252 C 0.51832 0.60761 0.59468 0.0
C253 C 0.50268 0.62423 0.58806 0.0
C254 C 0.44808 0.53199 0.62159 0.0
C255 C 0.55353 0.62241 0.58984 0.0
C256 C 0.60203 0.43856 0.56547 0.0
C257 C 0.60802 0.4615 0.54412 0.0
C258 C 0.571 0.48034 0.55325 0.0
C259 C 0.5387 0.46642 0.55903 0.0
C260 C 0.52762 0.48185 0.57467 0.0
C261 C 0.54941 0.51222 0.58422 0.0
C262 C 0.5817 0.5274 0.5769 0.0
C263 C 0.59221 0.51124 0.56154 0.0
C264 C 0.49296 0.46521 0.58186 0.0
C265 C 0.60532 0.56031 0.58596 0.0
C266 C 0.56106 0.51516 0.70544 0.0
C267 C 0.55507 0.53256 0.72303 0.0
C268 C 0.54339 0.55246 0.71606 0.0
C269 C 0.53727 0.55506 0.69079 0.0
C270 C 0.52465 0.57413 0.68317 0.0
C271 C 0.51833 0.57615 0.65825 0.0
C272 C 0.52434 0.55914 0.64 0.0
C273 C 0.51735 0.56044 0.61466 0.0
C274 C 0.52531 0.54459 0.5969 0.0
C275 C 0.53941 0.52679 0.60384 0.0
C276 C 0.54484 0.52373 0.62918 0.0
C277 C 0.55728 0.50449 0.63685 0.0
C278 C 0.56254 0.50158 0.6618 0.0
C279 C 0.55599 0.51814 0.68002 0.0
C280 C 0.54377 0.53794 0.6727 0.0
C281 C 0.53767 0.5403 0.64727 0.0
C282 C 0.46582 0.67157 0.61576 0.0
C283 C 0.44176 0.63845 0.60594 0.0
O284 O 0.59434 0.42699 0.74261 0.0
O285 O 0.58082 0.46339 0.53961 0.0
O286 O 0.45669 0.62968 0.58831 0.0
O287 O 0.52566 0.61347 0.79836 0.0
H288 H 0.64081 0.44323 0.73283 0.0
H289 H 0.64003 0.47119 0.77193 0.0
H290 H 0.61951 0.43382 0.78784 0.0
H291 H 0.65979 0.4488 0.77698 0.0
H292 H 0.63632 0.48764 0.73014 0.0
H293 H 0.53784 0.41557 0.73369 0.0
H294 H 0.62558 0.55233 0.7239 0.0
H295 H 0.65309 0.53901 0.71578 0.0
H296 H 0.627 0.5407 0.69264 0.0
H297 H 0.49649 0.42434 0.72104 0.0
H298 H 0.50509 0.46414 0.72783 0.0
H299 H 0.50749 0.45311 0.69657 0.0
H300 H 0.50739 0.57324 0.81991 0.0
H301 H 0.54523 0.6 0.85462 0.0
H302 H 0.56557 0.60382 0.82585 0.0
H303 H 0.56317 0.63711 0.83793 0.0
H304 H 0.4829 0.55688 0.78126 0.0
H305 H 0.57368 0.63936 0.76856 0.0
H306 H 0.49115 0.50377 0.74733 0.0
H307 H 0.46047 0.51338 0.75354 0.0
H308 H 0.4775 0.519 0.72294 0.0
H309 H 0.60726 0.64253 0.7358 0.0
H310 H 0.60403 0.60479 0.72871 0.0
H311 H 0.586 0.62049 0.70853 0.0
H312 H 0.43452 0.6223 0.62221 0.0
H313 H 0.42799 0.57239 0.60788 0.0
H314 H 0.51575 0.64731 0.57944 0.0
H315 H 0.45339 0.53318 0.64171 0.0
H316 H 0.42215 0.52288 0.6193 0.0
H317 H 0.45402 0.51487 0.61299 0.0
H318 H 0.56418 0.64712 0.58301 0.0
H319 H 0.56615 0.62242 0.60705 0.0
H320 H 0.55753 0.60814 0.57575 0.0
H321 H 0.62825 0.48507 0.54945 0.0
H322 H 0.58156 0.41469 0.56114 0.0
H323 H 0.62352 0.43652 0.56896 0.0
H324 H 0.59661 0.44749 0.58267 0.0
H325 H 0.52241 0.44282 0.55207 0.0
H326 H 0.61693 0.52289 0.55606 0.0
H327 H 0.4908 0.46139 0.6022 0.0
H328 H 0.48255 0.48031 0.57718 0.0
H329 H 0.4789 0.44193 0.57238 0.0
H330 H 0.62839 0.57045 0.57603 0.0
H331 H 0.59545 0.57637 0.58357 0.0
H332 H 0.60986 0.55948 0.60604 0.0
H333 H 0.55903 0.53014 0.74252 0.0
H334 H 0.5194 0.58759 0.69641 0.0
H335 H 0.50869 0.59125 0.65349 0.0
H336 H 0.52052 0.54617 0.57746 0.0
H337 H 0.56283 0.49117 0.62369 0.0
H338 H 0.57197 0.4863 0.66661 0.0
H339 H 0.47434 0.6892 0.60053 0.0
H340 H 0.45504 0.6789 0.63065 0.0
H341 H 0.48674 0.67122 0.62381 0.0
C342 C 0.22132 0.49648 0.86222 0.0
C343 C 0.21524 0.50497 0.8883 0.0
C344 C 0.16366 0.50233 0.88194 0.0
C345 C 0.149 0.52043 0.87824 0.0
C346 C 0.11656 0.50612 0.87202 0.0
C347 C 0.09837 0.47279 0.86944 0.0
C348 C 0.11281 0.4542 0.87366 0.0
C349 C 0.14524 0.46909 0.87995 0.0
C350 C 0.10178 0.5266 0.86791 0.0
C351 C 0.09398 0.41854 0.87125 0.0
C352 C 0.95251 0.41315 0.996 0.0
C353 C 0.93241 0.41925 0.97727 0.0
C354 C 0.94501 0.40731 0.93657 0.0
C355 C 0.95265 0.38518 0.92729 0.0
C356 C 0.97344 0.39262 0.90716 0.0
C357 C 0.98626 0.42272 0.89589 0.0
C358 C 0.9776 0.44473 0.90464 0.0
C359 C 0.95688 0.43671 0.92482 0.0
C360 C 0.98201 0.36854 0.89809 0.0
C361 C 0.9904 0.47681 0.89272 0.0
C362 C 0.8686 0.35087 0.76025 0.0
C363 C 0.88781 0.33707 0.76369 0.0
C364 C 0.92079 0.35595 0.76733 0.0
C365 C 0.93496 0.38932 0.76762 0.0
C366 C 0.91602 0.40336 0.76306 0.0
C367 C 0.88306 0.38389 0.7593 0.0
C368 C 0.94039 0.34018 0.77165 0.0
C369 C 0.93047 0.43889 0.76305 0.0
C370 C 0.17634 0.51747 0.71902 0.0
C371 C 0.15492 0.52543 0.70336 0.0
C372 C 0.10057 0.48294 0.70953 0.0
C373 C 0.0867 0.4505 0.71408 0.0
C374 C 0.06048 0.43505 0.72998 0.0
C375 C 0.04772 0.45255 0.74114 0.0
C376 C 0.06007 0.4848 0.73492 0.0
C377 C 0.0864 0.49967 0.71913 0.0
C378 C 0.04749 0.40051 0.7359 0.0
C379 C 0.04634 0.50389 0.74585 0.0
C380 C 0.06431 0.45727 0.86204 0.0
C381 C 0.04147 0.44688 0.88076 0.0
C382 C 0.00898 0.43145 0.87509 0.0
C383 C 0.99875 0.42571 0.85011 0.0
C384 C 0.96623 0.40959 0.84381 0.0
C385 C 0.95642 0.40403 0.81915 0.0
C386 C 0.97877 0.41478 0.79981 0.0
C387 C 0.96904 0.40922 0.77465 0.0
C388 C 0.99188 0.42147 0.75587 0.0
C389 C 0.02439 0.43855 0.76158 0.0
C390 C 0.03457 0.44299 0.78662 0.0
C391 C 0.06713 0.45881 0.79296 0.0
C392 C 0.07693 0.46327 0.81761 0.0
C393 C 0.05459 0.45249 0.83691 0.0
C394 C 0.02168 0.43651 0.83094 0.0
C395 C 0.01166 0.43142 0.80577 0.0
C396 C 0.81708 0.29736 0.79273 0.0
C397 C 0.81712 0.30169 0.76454 0.0
O398 O 0.19547 0.51789 0.88708 0.0
O399 O 0.12782 0.49763 0.69616 0.0
O400 O 0.83623 0.3334 0.75836 0.0
O401 O 0.92608 0.39968 0.95681 0.0
H402 H 0.20392 0.48325 0.89991 0.0
H403 H 0.19879 0.47833 0.85342 0.0
H404 H 0.23217 0.5178 0.85021 0.0
H405 H 0.23759 0.48664 0.86322 0.0
H406 H 0.16323 0.54599 0.87995 0.0
H407 H 0.15589 0.45451 0.88306 0.0
H408 H 0.08099 0.51889 0.88032 0.0
H409 H 0.11889 0.5521 0.87138 0.0
H410 H 0.09295 0.52369 0.84853 0.0
H411 H 0.10873 0.4074 0.87491 0.0
H412 H 0.07382 0.40878 0.88449 0.0
H413 H 0.08375 0.41183 0.85229 0.0
H414 H 0.94646 0.44463 0.97196 0.0
H415 H 0.97565 0.41895 0.98755 0.0
H416 H 0.95739 0.42832 0.0127 0.0
H417 H 0.94009 0.38787 0.0017 0.0
H418 H 0.94294 0.36236 0.9363 0.0
H419 H 0.94981 0.45334 0.93124 0.0
H420 H 0.97535 0.36309 0.87824 0.0
H421 H 0.00817 0.37855 0.89952 0.0
H422 H 0.96993 0.34614 0.9088 0.0
H423 H 0.98096 0.49107 0.90147 0.0
H424 H 0.01678 0.49019 0.89415 0.0
H425 H 0.98411 0.47382 0.87271 0.0
H426 H 0.82629 0.28745 0.75531 0.0
H427 H 0.87736 0.31161 0.764 0.0
H428 H 0.86824 0.39443 0.75637 0.0
H429 H 0.94932 0.34454 0.79105 0.0
H430 H 0.92648 0.31417 0.76843 0.0
H431 H 0.96142 0.35055 0.75926 0.0
H432 H 0.91268 0.44618 0.75863 0.0
H433 H 0.94105 0.4486 0.78153 0.0
H434 H 0.94997 0.44955 0.74926 0.0
H435 H 0.14862 0.54022 0.71517 0.0
H436 H 0.19848 0.53951 0.72445 0.0
H437 H 0.16367 0.50506 0.73617 0.0
H438 H 0.18277 0.50176 0.70864 0.0
H439 H 0.09745 0.43767 0.70609 0.0
H440 H 0.09616 0.52445 0.71457 0.0
H441 H 0.0516 0.39802 0.75582 0.0
H442 H 0.02137 0.38709 0.7326 0.0
H443 H 0.05879 0.38976 0.72461 0.0
H444 H 0.05597 0.52741 0.73689 0.0
H445 H 0.02 0.49075 0.74391 0.0
H446 H 0.05205 0.50763 0.76595 0.0
H447 H 0.0491 0.45101 0.9 0.0
H448 H 0.94796 0.40092 0.8579 0.0
H449 H 0.93106 0.39141 0.81547 0.0
H450 H 0.98429 0.4176 0.73663 0.0
H451 H 0.08549 0.4678 0.77895 0.0
H452 H 0.10228 0.47549 0.82133 0.0
H453 H 0.8088 0.31208 0.80238 0.0
H454 H 0.80116 0.27209 0.79767 0.0
H455 H 0.84133 0.30443 0.79958 0.0
C456 C 0.38564 0.82876 0.88545 0.0
C457 C 0.40086 0.82552 0.90934 0.0
C458 C 0.43706 0.88058 0.92349 0.0
C459 C 0.41357 0.88743 0.93149 0.0
C460 C 0.42213 0.91731 0.94157 0.0
C461 C 0.45469 0.94069 0.94359 0.0
C462 C 0.47831 0.93372 0.93572 0.0
C463 C 0.46912 0.90372 0.92583 0.0
C464 C 0.39644 0.92406 0.94987 0.0
C465 C 0.51327 0.95809 0.93749 0.0
C466 C 0.45458 0.08693 0.82273 0.0
C467 C 0.48405 0.09593 0.83869 0.0
C468 C 0.47998 0.08605 0.8829 0.0
C469 C 0.50485 0.07954 0.88596 0.0
C470 C 0.50494 0.06123 0.90593 0.0
C471 C 0.47944 0.04898 0.92299 0.0
C472 C 0.45494 0.05654 0.92042 0.0
C473 C 0.45585 0.0755 0.90054 0.0
C474 C 0.53185 0.0543 0.90841 0.0
C475 C 0.4273 0.04372 0.93816 0.0
C476 C 0.56879 0.16554 0.05815 0.0
C477 C 0.58434 0.15259 0.04476 0.0
C478 C 0.56941 0.11994 0.04005 0.0
C479 C 0.53784 0.09992 0.04829 0.0
C480 C 0.5225 0.11276 0.06256 0.0
C481 C 0.53847 0.14544 0.06767 0.0
C482 C 0.58729 0.10702 0.02587 0.0
C483 C 0.489 0.09212 0.07186 0.0
C484 C 0.47541 0.8636 0.10285 0.0
C485 C 0.46316 0.88385 0.11495 0.0
C486 C 0.49215 0.93946 0.10353 0.0
C487 C 0.52202 0.95956 0.09332 0.0
C488 C 0.52655 0.98388 0.07704 0.0
C489 C 0.50064 0.9885 0.07146 0.0
C490 C 0.47094 0.96961 0.08317 0.0
C491 C 0.46697 0.94514 0.09904 0.0
C492 C 0.55864 0.00386 0.06513 0.0
C493 C 0.44317 0.97471 0.07839 0.0
C494 C 0.46424 0.97295 0.9529 0.0
C495 C 0.46598 0.99518 0.93576 0.0
C496 C 0.47748 0.02677 0.94258 0.0
C497 C 0.48763 0.03666 0.96722 0.0
C498 C 0.50015 0.06842 0.97454 0.0
C499 C 0.51053 0.07799 -0.00125 0.0
C500 C 0.50902 0.0562 0.01654 0.0
C501 C 0.52063 0.06593 0.04097 0.0
C502 C 0.51753 0.04343 0.05845 0.0
C503 C 0.50382 0.0114 0.05203 0.0
C504 C 0.4935 0.00148 0.02739 0.0
C505 C 0.48111 0.96971 0.01998 0.0
C506 C 0.47139 0.96027 0.99564 0.0
C507 C 0.47347 0.98217 0.97779 0.0
C508 C 0.48547 0.01421 0.98491 0.0
C509 C 0.49587 0.02395 0.00966 0.0
C510 C 0.57516 0.23248 0.03645 0.0
C511 C 0.59753 0.22031 0.0443 0.0
O512 O 0.43028 0.85242 0.91315 0.0
O513 O 0.48821 0.91469 0.11752 0.0
O514 O 0.58254 0.19723 0.06226 0.0
O515 O 0.47828 0.10171 0.86274 0.0
H516 H 0.38495 0.82201 0.92529 0.0
H517 H 0.38178 0.84933 0.8868 0.0
H518 H 0.40126 0.83238 0.8693 0.0
H519 H 0.36217 0.80711 0.88226 0.0
H520 H 0.38862 0.86984 0.92975 0.0
H521 H 0.48703 0.89821 0.91961 0.0
H522 H 0.39718 0.94326 0.93833 0.0
H523 H 0.37228 0.90286 0.94841 0.0
H524 H 0.4008 0.93252 0.96939 0.0
H525 H 0.52865 0.94909 0.93015 0.0
H526 H 0.51818 0.97962 0.92698 0.0
H527 H 0.51989 0.96527 0.95713 0.0
H528 H 0.48768 0.07507 0.83804 0.0
H529 H 0.4588 0.08249 0.80327 0.0
H530 H 0.43397 0.06492 0.82999 0.0
H531 H 0.4484 0.10602 0.82299 0.0
H532 H 0.52403 0.08856 0.87261 0.0
H533 H 0.43695 0.08098 0.89807 0.0
H534 H 0.52294 0.02901 0.90382 0.0
H535 H 0.55196 0.06916 0.89586 0.0
H536 H 0.54082 0.05835 0.9278 0.0
H537 H 0.40945 0.05065 0.93293 0.0
H538 H 0.41536 0.01745 0.9387 0.0
H539 H 0.43613 0.05267 0.95714 0.0
H540 H 0.60172 0.21017 0.02715 0.0
H541 H 0.60818 0.16786 0.03798 0.0
H542 H 0.52688 0.15563 0.07834 0.0
H543 H 0.57819 0.10161 0.00655 0.0
H544 H 0.61325 0.12425 0.02523 0.0
H545 H 0.58359 0.08469 0.03435 0.0
H546 H 0.47955 0.10613 0.08105 0.0
H547 H 0.47296 0.07852 0.05622 0.0
H548 H 0.48855 0.07475 0.08535 0.0
H549 H 0.44437 0.88286 0.10245 0.0
H550 H 0.49461 0.86377 0.11426 0.0
H551 H 0.45571 0.83875 0.10057 0.0
H552 H 0.48516 0.87315 0.08424 0.0
H553 H 0.54145 0.95527 0.09734 0.0
H554 H 0.44418 0.93034 0.10783 0.0
H555 H 0.55612 0.0016 0.04465 0.0
H556 H 0.56804 0.02919 0.0699 0.0
H557 H 0.57622 0.99693 0.07115 0.0
H558 H 0.4231 0.96088 0.09127 0.0
H559 H 0.4508 1.00025 0.08028 0.0
H560 H 0.43448 0.96739 0.05911 0.0
H561 H 0.45891 0.98792 0.91667 0.0
H562 H 0.5022 0.08629 0.9616 0.0
H563 H 0.51987 0.10274 0.00332 0.0
H564 H 0.52624 0.05097 0.0772 0.0
H565 H 0.47905 0.95179 0.03286 0.0
H566 H 0.46219 0.93556 0.99098 0.0
H567 H 0.5676 0.24099 0.05277 0.0
H568 H 0.58692 0.25187 0.0227 0.0
H569 H 0.55344 0.21289 0.02767 0.0
C570 C 0.66712 0.48429 0.04377 0.0
C571 C 0.67355 0.48255 0.07138 0.0
C572 C 0.66712 0.52535 0.08987 0.0
C573 C 0.63363 0.50923 0.08902 0.0
C574 C 0.61668 0.52388 0.09721 0.0
C575 C 0.63347 0.55558 0.10587 0.0
C576 C 0.66717 0.57209 0.10631 0.0
C577 C 0.6835 0.55658 0.09857 0.0
C578 C 0.58075 0.50544 0.09636 0.0
C579 C 0.68596 0.60612 0.1149 0.0
C580 C 0.50541 0.6566 0.00381 0.0
C581 C 0.52901 0.65845 0.02232 0.0
C582 C 0.53955 0.62243 0.04696 0.0
C583 C 0.56866 0.64574 0.05722 0.0
C584 C 0.58441 0.63773 0.07521 0.0
C585 C 0.57029 0.60605 0.08358 0.0
C586 C 0.5409 0.58266 0.07335 0.0
C587 C 0.5262 0.59114 0.05491 0.0
C588 C 0.61603 0.66312 0.08538 0.0
C589 C 0.52488 0.54869 0.08194 0.0
C590 C 0.52394 0.66675 0.22678 0.0
C591 C 0.5573 0.68117 0.22511 0.0
C592 C 0.57177 0.66347 0.21855 0.0
C593 C 0.55263 0.63062 0.21386 0.0
C594 C 0.51921 0.61575 0.21649 0.0
C595 C 0.50531 0.63407 0.22292 0.0
C596 C 0.60755 0.68 0.21616 0.0
C597 C 0.49818 0.58066 0.21197 0.0
C598 C 0.65264 0.56142 0.32663 0.0
C599 C 0.65559 0.53926 0.3079 0.0
C600 C 0.62251 0.54068 0.27361 0.0
C601 C 0.64367 0.57176 0.26571 0.0
C602 C 0.63472 0.58591 0.24711 0.0
C603 C 0.60422 0.56855 0.23605 0.0
C604 C 0.58307 0.53717 0.24375 0.0
C605 C 0.59257 0.52366 0.26241 0.0
C606 C 0.65782 0.6194 0.23919 0.0
C607 C 0.55041 0.51794 0.23226 0.0
C608 C 0.61577 0.57138 0.11451 0.0
C609 C 0.60318 0.58286 0.09665 0.0
C610 C 0.58562 0.59729 0.10348 0.0
C611 C 0.5812 0.60131 0.12884 0.0
C612 C 0.56434 0.61642 0.13637 0.0
C613 C 0.56022 0.62038 0.16136 0.0
C614 C 0.57202 0.6086 0.17981 0.0
C615 C 0.56767 0.61222 0.20528 0.0
C616 C 0.57869 0.59921 0.22311 0.0
C617 C 0.59442 0.58295 0.21621 0.0
C618 C 0.5999 0.57995 0.19089 0.0
C619 C 0.61625 0.56433 0.18337 0.0
C620 C 0.62154 0.56154 0.1584 0.0
C621 C 0.61056 0.57414 0.13996 0.0
C622 C 0.59358 0.58954 0.14713 0.0
C623 C 0.58853 0.59273 0.17263 0.0
C624 C 0.53122 0.72939 0.20541 0.0
C625 C 0.52233 0.71612 0.23181 0.0
O626 O 0.68459 0.51196 0.08248 0.0
O627 O 0.62964 0.52612 0.29193 0.0
O628 O 0.50882 0.6834 0.23158 0.0
O629 O 0.52365 0.62883 0.02927 0.0
H630 H 0.65123 0.46464 0.08049 0.0
H631 H 0.64867 0.49119 0.04133 0.0
H632 H 0.68919 0.5021 0.03431 0.0
H633 H 0.65835 0.46081 0.03478 0.0
H634 H 0.62035 0.48522 0.08206 0.0
H635 H 0.70929 0.56893 0.09907 0.0
H636 H 0.57246 0.51407 0.08061 0.0
H637 H 0.57132 0.47963 0.09372 0.0
H638 H 0.57057 0.50907 0.11363 0.0
H639 H 0.71188 0.61666 0.11149 0.0
H640 H 0.67742 0.62061 0.10528 0.0
H641 H 0.6823 0.60741 0.13507 0.0
H642 H 0.55429 0.67549 0.01757 0.0
H643 H 0.51973 0.66803 0.98665 0.0
H644 H 0.4934 0.6319 0.99575 0.0
H645 H 0.48039 0.67487 0.02276 0.0
H646 H 0.57936 0.67008 0.05117 0.0
H647 H 0.50379 0.57336 0.04682 0.0
H648 H 0.63377 0.65508 0.08446 0.0
H649 H 0.62543 0.68579 0.07514 0.0
H650 H 0.61332 0.66755 0.10516 0.0
H651 H 0.5005 0.53424 0.07412 0.0
H652 H 0.53929 0.53795 0.07608 0.0
H653 H 0.52341 0.54763 0.10248 0.0
H654 H 0.54407 0.7268 0.24366 0.0
H655 H 0.5723 0.70628 0.22852 0.0
H656 H 0.47967 0.62302 0.22447 0.0
H657 H 0.61397 0.67719 0.19696 0.0
H658 H 0.61916 0.7057 0.22059 0.0
H659 H 0.61721 0.66889 0.22881 0.0
H660 H 0.47277 0.57236 0.21602 0.0
H661 H 0.50023 0.5751 0.19233 0.0
H662 H 0.50622 0.56727 0.2237 0.0
H663 H 0.67792 0.55266 0.29709 0.0
H664 H 0.6732 0.57155 0.33966 0.0
H665 H 0.65241 0.58142 0.31708 0.0
H666 H 0.63027 0.54831 0.3374 0.0
H667 H 0.66711 0.58514 0.27394 0.0
H668 H 0.57649 0.49968 0.26854 0.0
H669 H 0.66305 0.61971 0.21914 0.0
H670 H 0.64692 0.63451 0.24189 0.0
H671 H 0.68058 0.62989 0.24974 0.0
H672 H 0.53674 0.49385 0.24036 0.0
H673 H 0.53671 0.53039 0.23493 0.0
H674 H 0.55267 0.51562 0.212 0.0
H675 H 0.60658 0.57998 0.07715 0.0
H676 H 0.55434 0.62562 0.12304 0.0
H677 H 0.54735 0.63251 0.16602 0.0
H678 H 0.57498 0.60179 0.2426 0.0
H679 H 0.62525 0.55416 0.19672 0.0
H680 H 0.63426 0.54926 0.15375 0.0
H681 H 0.50993 0.7184 0.1931 0.0
H682 H 0.54126 0.75549 0.20561 0.0
H683 H 0.54944 0.72462 0.19742 0.0
O684 O 0.62087 0.40313 0.43872 0.0
Cd685 Cd 0.62569 0.3881 0.40414 0.0
Cd686 Cd 0.68793 0.42815 0.41351 0.0
O687 O 0.67184 0.43289 0.44777 0.0
O688 O 0.58242 0.35163 0.39705 0.0
O689 O 0.62483 0.34635 0.40115 0.0
C690 C 0.59448 0.33335 0.39775 0.0
C691 C 0.72419 0.41043 0.40983 0.0
C692 C 0.64277 0.42114 0.45373 0.0
C693 C 0.65968 0.44546 0.37142 0.0
O694 O 0.68423 0.45411 0.38492 0.0
O695 O 0.63447 0.41912 0.3753 0.0
O696 O 0.7332 0.43895 0.41717 0.0
O697 O 0.69435 0.39178 0.40491 0.0
O698 O 0.23679 0.58692 0.60243 0.0
Cd699 Cd 0.26583 0.60897 0.57254 0.0
Cd700 Cd 0.25101 0.65477 0.58365 0.0
O701 O 0.23019 0.62663 0.61434 0.0
O702 O 0.29545 0.59168 0.56915 0.0
O703 O 0.3112 0.64139 0.57936 0.0
C704 C 0.31819 0.61942 0.57558 0.0
C705 C 0.289 0.70839 0.58795 0.0
C706 C 0.22569 0.59884 0.61766 0.0
C707 C 0.22863 0.62126 0.53433 0.0
O708 O 0.2275 0.64017 0.55006 0.0
O709 O 0.24428 0.60732 0.53907 0.0
O710 O 0.25906 0.69867 0.59054 0.0
O711 O 0.29724 0.68749 0.58342 0.0
O712 O 0.60163 0.19487 0.77049 0.0
Cd713 Cd 0.627 0.22056 0.74019 0.0
Cd714 Cd 0.59302 0.24959 0.74544 0.0
O715 O 0.57611 0.2211 0.77641 0.0
O716 O 0.6658 0.21658 0.73839 0.0
O717 O 0.6675 0.26233 0.7446 0.0
C718 C 0.68245 0.24671 0.74236 0.0
C719 C 0.60466 0.30218 0.74889 0.0
C720 C 0.58167 0.19918 0.7826 0.0
C721 C 0.58105 0.20969 0.69963 0.0
O722 O 0.57374 0.22724 0.71209 0.0
O723 O 0.60299 0.20461 0.70697 0.0
O724 O 0.57589 0.27881 0.74972 0.0
O725 O 0.62732 0.29579 0.7463 0.0
O726 O 0.4567 0.68189 0.94973 0.0
Cd727 Cd 0.4372 0.68052 0.91548 0.0
Cd728 Cd 0.39913 0.61991 0.9272 0.0
O729 O 0.42044 0.6339 0.96164 0.0
O730 O 0.45241 0.72547 0.90688 0.0
O731 O 0.40167 0.69042 0.91348 0.0
C732 C 0.42332 0.7192 0.90856 0.0
C733 C 0.344 0.59011 0.92241 0.0
C734 C 0.44523 0.66039 0.96609 0.0
C735 C 0.44425 0.63354 0.88493 0.0
O736 O 0.42498 0.61306 0.9001 0.0
O737 O 0.45093 0.66223 0.88661 0.0
O738 O 0.36006 0.57784 0.93136 0.0
O739 O 0.35921 0.61995 0.9171 0.0
O740 O 0.80775 0.37012 0.04606 0.0
Cd741 Cd 0.77875 0.35808 0.07676 0.0
Cd742 Cd 0.80131 0.42076 0.0785 0.0
O743 O 0.82476 0.4214 0.0466 0.0
O744 O 0.74835 0.31146 0.07376 0.0
O745 O 0.73319 0.34733 0.07389 0.0
C746 C 0.72571 0.318 0.07227 0.0
C747 C 0.76535 0.4392 0.07824 0.0
C748 C 0.8249 0.39762 0.037 0.0
C749 C 0.82036 0.39309 0.12015 0.0
O750 O 0.82292 0.41813 0.11063 0.0
O751 O 0.80225 0.36616 0.11025 0.0
O752 O 0.79566 0.45877 0.0791 0.0
O753 O 0.75571 0.40925 0.07782 0.0
O754 O 0.42655 0.82437 0.22623 0.0
Cd755 Cd 0.41447 0.79529 0.25679 0.0
Cd756 Cd 0.3552 0.77779 0.24121 0.0
O757 O 0.37848 0.80274 0.20988 0.0
O758 O 0.45438 0.79532 0.26536 0.0
O759 O 0.41113 0.75286 0.25133 0.0
C760 C 0.44064 0.76618 0.25812 0.0
C761 C 0.31353 0.72566 0.23803 0.0
C762 C 0.40825 0.82187 0.2084 0.0
C763 C 0.37498 0.81026 0.29051 0.0
O764 O 0.35533 0.80214 0.27259 0.0
O765 O 0.39943 0.80719 0.28875 0.0
O766 O 0.3097 0.74919 0.23217 0.0
O767 O 0.34152 0.73175 0.24511 0.0
C768 C 0.26171 0.63752 0.24983 0.0
C769 C 0.23222 0.63144 0.24015 0.0
H770 H 0.31063 0.67205 0.2567 0.0
C771 C 0.23036 0.65612 0.22828 0.0
H772 H 0.26398 0.61876 0.25858 0.0
C773 C 0.25693 0.68655 0.22726 0.0
C774 C 0.28615 0.69289 0.23766 0.0
H775 H 0.2082 0.65198 0.22005 0.0
H776 H 0.25446 0.70516 0.21846 0.0
C777 C 0.28841 0.66795 0.24862 0.0
C778 C 0.5198 0.25313 0.39429 0.0
C779 C 0.53065 0.23297 0.40283 0.0
H780 H 0.53153 0.30049 0.38559 0.0
C781 C 0.56343 0.2457 0.40728 0.0
H782 H 0.49465 0.24409 0.39106 0.0
C783 C 0.58468 0.27815 0.40415 0.0
C784 C 0.57346 0.29851 0.39688 0.0
H785 H 0.57238 0.23082 0.4143 0.0
H786 H 0.60957 0.2875 0.40872 0.0
C787 C 0.54095 0.28548 0.39129 0.0
C788 C 0.40517 0.66081 0.59425 0.0
C789 C 0.41126 0.63537 0.59516 0.0
H790 H 0.37119 0.67568 0.58724 0.0
C791 C 0.38706 0.60525 0.58738 0.0
H792 H 0.4229 0.68457 0.59975 0.0
C793 C 0.35725 0.60029 0.57998 0.0
C794 C 0.35082 0.62536 0.58028 0.0
H795 H 0.3909 0.58521 0.58774 0.0
H796 H 0.33891 0.57654 0.57487 0.0
C797 C 0.37531 0.65579 0.58696 0.0
C798 C 0.76537 0.25811 0.74689 0.0
C799 C 0.78324 0.2894 0.75568 0.0
H800 H 0.71983 0.22033 0.73552 0.0
C801 C 0.76799 0.30729 0.75881 0.0
H802 H 0.77633 0.24359 0.74469 0.0
C803 C 0.73543 0.29391 0.7536 0.0
C804 C 0.71745 0.26228 0.74546 0.0
H805 H 0.78105 0.33126 0.76601 0.0
H806 H 0.72417 0.30798 0.75675 0.0
C807 C 0.73294 0.24475 0.74176 0.0
C808 C 0.43267 0.79962 0.8961 0.0
C809 C 0.40544 0.79702 0.90751 0.0
H810 H 0.45969 0.7771 0.88767 0.0
C811 C 0.38245 0.7675 0.91701 0.0
H812 H 0.45035 0.82177 0.88794 0.0
C813 C 0.38752 0.74163 0.91642 0.0
C814 C 0.41572 0.74491 0.9064 0.0
H815 H 0.36093 0.76468 0.92539 0.0
H816 H 0.36993 0.71946 0.92462 0.0
C817 C 0.43793 0.77398 0.89583 0.0
C818 C 0.73068 0.49358 0.07323 0.0
C819 C 0.6978 0.47188 0.07443 0.0
H820 H 0.77784 0.50034 0.07385 0.0
C821 C 0.68745 0.43944 0.07681 0.0
H822 H 0.73935 0.51865 0.07082 0.0
C823 C 0.70941 0.42892 0.0783 0.0
C824 C 0.74226 0.4506 0.07734 0.0
H825 H 0.66226 0.42215 0.07728 0.0
H826 H 0.70057 0.40373 0.08005 0.0
C827 C 0.75269 0.48307 0.07488 0.0
C828 C 0.32698 0.79759 0.5949 0.0
C829 C 0.35905 0.80781 0.58954 0.0
H830 H 0.27963 0.75816 0.59844 0.0
C831 C 0.36802 0.78498 0.58487 0.0
H832 H 0.3195 0.8146 0.59916 0.0
C833 C 0.34533 0.75272 0.58469 0.0
C834 C 0.31313 0.74252 0.58932 0.0
H835 H 0.39266 0.79215 0.58123 0.0
H836 H 0.35305 0.73582 0.58069 0.0
C837 C 0.30422 0.76527 0.59462 0.0
C838 C 0.59157 0.37153 0.75886 0.0
C839 C 0.61955 0.39688 0.74905 0.0
H840 H 0.56494 0.32186 0.76622 0.0
C841 C 0.64384 0.39126 0.74096 0.0
H842 H 0.5728 0.37523 0.76594 0.0
C843 C 0.63956 0.36062 0.74156 0.0
C844 C 0.61086 0.33509 0.75017 0.0
H845 H 0.66591 0.41051 0.73384 0.0
H846 H 0.65832 0.35679 0.73466 0.0
C847 C 0.58713 0.34097 0.75912 0.0
C848 C 0.2624 0.56072 0.8939 0.0
C849 C 0.24679 0.52837 0.90014 0.0
H850 H 0.30526 0.60582 0.89643 0.0
C851 C 0.26264 0.51723 0.91531 0.0
H852 H 0.25096 0.56985 0.88188 0.0
C853 C 0.29369 0.5377 0.92351 0.0
C854 C 0.30972 0.56978 0.9166 0.0
H855 H 0.25139 0.49237 0.92011 0.0
H856 H 0.30549 0.52807 0.93457 0.0
C857 C 0.29349 0.58127 0.9022 0.0
C858 C 0.65464 0.23866 0.05531 0.0
C859 C 0.63 0.24584 0.05371 0.0
H860 H 0.70393 0.2555 0.06251 0.0
C861 C 0.63677 0.27661 0.06043 0.0
H862 H 0.65031 0.21523 0.05069 0.0
C863 C 0.66772 0.29987 0.06702 0.0
C864 C 0.69247 0.29283 0.0675 0.0
H865 H 0.61861 0.28328 0.0601 0.0
H866 H 0.67233 0.32353 0.07132 0.0
C867 C 0.68544 0.26179 0.06213 0.0
C868 C 0.46698 0.70938 0.2353 0.0
C869 C 0.49922 0.72531 0.2425 0.0
H870 H 0.42284 0.7095 0.23502 0.0
C871 C 0.51087 0.75284 0.2571 0.0
H872 H 0.45749 0.68838 0.22372 0.0
C873 C 0.49116 0.76497 0.26348 0.0
C874 C 0.45938 0.74998 0.25525 0.0
H875 H 0.53568 0.76582 0.26266 0.0
H876 H 0.50131 0.78693 0.27392 0.0
C877 C 0.44718 0.72151 0.24175 0.0
C878 C 0.76469 0.36673 0.38557 0.0
C879 C 0.79312 0.38039 0.3995 0.0
H880 H 0.72029 0.36483 0.37842 0.0
C881 C 0.79863 0.40427 0.41685 0.0
H882 H 0.75998 0.34885 0.37165 0.0
C883 C 0.77624 0.41406 0.42017 0.0
C884 C 0.74761 0.39979 0.40661 0.0
H885 H 0.82026 0.41566 0.42782 0.0
H886 H 0.78122 0.43263 0.43353 0.0
C887 C 0.74196 0.37591 0.38939 0.0
C888 C 0.19402 0.5874 0.47097 0.0
C889 C 0.17563 0.60172 0.46608 0.0
H890 H 0.22512 0.58224 0.49632 0.0
C891 C 0.17541 0.62307 0.48351 0.0
H892 H 0.19498 0.57121 0.45769 0.0
C893 C 0.19276 0.62954 0.50557 0.0
C894 C 0.21088 0.61492 0.51064 0.0
H895 H 0.16183 0.6348 0.48002 0.0
H896 H 0.1919 0.64597 0.51866 0.0
C897 C 0.21137 0.59384 0.49305 0.0
C898 C 0.50041 0.17453 0.64651 0.0
C899 C 0.50705 0.14339 0.63257 0.0
H900 H 0.53015 0.22065 0.67553 0.0
C901 C 0.53129 0.1283 0.64795 0.0
H902 H 0.4839 0.18091 0.63856 0.0
C903 C 0.56044 0.15556 0.66963 0.0
C904 C 0.56052 0.19123 0.67891 0.0
H905 H 0.53221 0.10793 0.64102 0.0
H906 H 0.57744 0.14995 0.67773 0.0
C907 C 0.53054 0.20014 0.66829 0.0
C908 C 0.50297 0.63907 0.83623 0.0
C909 C 0.4972 0.60779 0.83564 0.0
H910 H 0.49048 0.67171 0.85198 0.0
C911 C 0.47258 0.58472 0.85018 0.0
H912 H 0.52208 0.65738 0.82542 0.0
C913 C 0.45452 0.59285 0.8654 0.0
C914 C 0.46087 0.62432 0.86659 0.0
H915 H 0.46784 0.56051 0.85027 0.0
H916 H 0.43622 0.5746 0.8768 0.0
C917 C 0.4849 0.64723 0.85147 0.0
C918 C 0.87746 0.38215 0.99442 0.0
C919 C 0.90162 0.41318 0.98903 0.0
H920 H 0.83378 0.35279 0.01343 0.0
C921 C 0.89816 0.43876 0.99695 0.0
H922 H 0.87961 0.36202 0.98858 0.0
C923 C 0.8719 0.43355 0.01104 0.0
C924 C 0.8487 0.40263 0.01778 0.0
H925 H 0.91646 0.46292 0.99309 0.0
H926 H 0.87074 0.45391 0.01776 0.0
C927 C 0.85123 0.37692 0.00862 0.0
C928 C 0.4157 0.85103 0.14235 0.0
C929 C 0.44882 0.87042 0.13996 0.0
H930 H 0.37683 0.82079 0.16585 0.0
C931 C 0.4684 0.87483 0.16058 0.0
H932 H 0.4001 0.84692 0.12666 0.0
C933 C 0.45514 0.85985 0.18302 0.0
C934 C 0.42202 0.83992 0.18529 0.0
H935 H 0.49404 0.8893 0.15914 0.0
H936 H 0.47097 0.86331 0.1984 0.0
C937 C 0.40241 0.83604 0.16479 0.0
C938 C 0.68626 0.51792 0.33107 0.0
C939 C 0.65701 0.51303 0.32183 0.0
H940 H 0.71019 0.50026 0.3538 0.0
C941 C 0.62897 0.48485 0.32789 0.0
H942 H 0.70814 0.53964 0.32701 0.0
C943 C 0.63014 0.46219 0.34292 0.0
C944 C 0.65926 0.46749 0.35279 0.0
H945 H 0.60596 0.48061 0.32155 0.0
H946 H 0.60798 0.44112 0.34765 0.0
C947 C 0.68739 0.49541 0.34642 0.0
C948 C 0.37971 0.83587 0.35754 0.0
C949 C 0.35485 0.84273 0.3587 0.0
H950 H 0.40577 0.8205 0.33508 0.0
C951 C 0.33745 0.83998 0.33706 0.0
H952 H 0.39342 0.8377 0.37397 0.0
C953 C 0.34427 0.82985 0.31485 0.0
C954 C 0.36881 0.82248 0.31375 0.0
H955 H 0.31816 0.84511 0.33748 0.0
H956 H 0.33009 0.82754 0.2986 0.0
C957 C 0.38674 0.82601 0.33527 0.0
C958 C 0.6492 0.46345 0.51437 0.0
C959 C 0.61704 0.45032 0.52096 0.0
H960 H 0.68263 0.46452 0.48804 0.0
C961 C 0.59361 0.42598 0.5062 0.0
H962 H 0.66778 0.48177 0.52572 0.0
C963 C 0.60205 0.41604 0.48467 0.0
C964 C 0.63416 0.42993 0.47759 0.0
H965 H 0.5687 0.41491 0.51117 0.0
H966 H 0.58332 0.39769 0.47344 0.0
C967 C 0.65768 0.45342 0.49288 0.0
C968 C 0.18077 0.53006 0.66165 0.0
C969 C 0.17245 0.54421 0.68071 0.0
H970 H 0.20418 0.53618 0.62689 0.0
C971 C 0.18161 0.57642 0.67883 0.0
H972 H 0.17405 0.50528 0.66268 0.0
C973 C 0.1987 0.59413 0.65829 0.0
C974 C 0.20727 0.58006 0.63932 0.0
H975 H 0.17567 0.58799 0.69332 0.0
H976 H 0.20545 0.61892 0.65744 0.0
C977 C 0.19808 0.5478 0.64122 0.0
C978 C 0.51459 0.15437 0.8279 0.0
C979 C 0.51289 0.12473 0.82825 0.0
H980 H 0.53804 0.2015 0.8134 0.0
C981 C 0.53689 0.12144 0.81651 0.0
H982 H 0.4965 0.15758 0.83698 0.0
C983 C 0.56088 0.14661 0.80327 0.0
C984 C 0.56114 0.17551 0.80123 0.0
H985 H 0.53627 0.09891 0.81661 0.0
H986 H 0.57804 0.14271 0.7934 0.0
C987 C 0.53842 0.1795 0.81445 0.0
C988 C 0.52488 0.707 0.02018 0.0
C989 C 0.51356 0.66995 0.0376 0.0
H990 H 0.50689 0.72101 0.98086 0.0
C991 C 0.47224 0.63543 0.03775 0.0
H992 H 0.54833 0.72772 0.02185 0.0
C993 C 0.44862 0.63282 0.01111 0.0
C994 C 0.46274 0.6651 0.9893 0.0
H995 H 0.46537 0.61524 0.04968 0.0
H996 H 0.42622 0.61132 0.00781 0.0
C997 C 0.49949 0.70203 0.99413 0.0
C998 C 0.86606 0.36999 0.1639 0.0
C999 C 0.89517 0.39864 0.16553 0.0
H1000 H 0.81908 0.34571 0.14831 0.0
C1001 C 0.89702 0.42638 0.1562 0.0
H1002 H 0.86375 0.34839 0.17147 0.0
C1003 C 0.87127 0.42505 0.14348 0.0
C1004 C 0.84329 0.39583 0.13952 0.0
H1005 H 0.91898 0.4489 0.15759 0.0
H1006 H 0.87428 0.44658 0.13517 0.0
C1007 C 0.84043 0.36854 0.1508 0.0
loop_
_geom_bond_atom_site_label_1
_geom_bond_atom_site_label_2
_geom_bond_distance
_geom_bond_site_symmetry_2
_ccdc_geom_bond_type
C0 C1 1.560 . S
C0 H61 0.959 . S
C0 H62 0.959 . S
C0 H63 0.960 . S
C1 C0 1.560 . S
C1 O56 1.426 . S
C1 H60 0.980 . S
C2 C3 1.407 . S
C2 C7 1.418 . S
C2 O56 1.334 . S
C3 C2 1.407 . S
C3 C4 1.360 . S
C3 H64 0.929 . S
C4 C3 1.360 . S
C4 C5 1.401 . S
C4 C8 1.527 . S
C5 C4 1.401 . S
C5 C6 1.405 . S
C5 C38 1.587 . S
C6 C5 1.405 . S
C6 C7 1.332 . S
C6 C9 1.496 . S
C7 C2 1.418 . S
C7 C6 1.332 . S
C7 H65 0.929 . S
C8 C4 1.527 . S
C8 H66 0.959 . S
C8 H67 0.961 . S
C8 H68 0.961 . S
C9 C6 1.496 . S
C9 H69 0.960 . S
C9 H70 0.960 . S
C9 H71 0.961 . S
C10 C11 1.517 . S
C10 H73 0.961 . S
C10 H74 0.960 . S
C10 H75 0.959 . S
C11 C10 1.517 . S
C11 O59 1.468 . S
C11 H72 0.980 . S
C12 C13 1.349 . S
C12 C17 1.367 . S
C12 O59 1.408 . S
C13 C12 1.349 . S
C13 C14 1.407 . S
C13 H76 0.930 . S
C14 C13 1.407 . S
C14 C15 1.449 . S
C14 C18 1.535 . S
C15 C14 1.449 . S
C15 C16 1.384 . S
C15 C40 1.553 1_655 S
C16 C15 1.384 . S
C16 C17 1.364 . S
C16 C19 1.450 . S
C17 C12 1.367 . S
C17 C16 1.364 . S
C17 H77 0.931 . S
C18 C14 1.535 . S
C18 H78 0.959 1_655 S
C18 H79 0.961 1_655 S
C18 H80 0.959 . S
C19 C16 1.450 . S
C19 H81 0.960 . S
C19 H82 0.960 1_655 S
C19 H83 0.960 . S
C20 C21 1.309 . S
C20 C25 1.304 . S
C20 O58 1.435 . S
C21 C20 1.309 . S
C21 C22 1.476 . S
C21 H85 0.930 . S
C22 C21 1.476 . S
C22 C23 1.400 . S
C22 C26 1.567 . S
C23 C22 1.400 . S
C23 C24 1.373 . S
C23 C45 1.432 . S
C24 C23 1.373 . S
C24 C25 1.339 . S
C24 C27 1.530 . S
C25 C20 1.304 . S
C25 C24 1.339 . S
C25 H86 0.930 . S
C26 C22 1.567 . S
C26 H87 0.961 . S
C26 H88 0.960 . S
C26 H89 0.958 . S
C27 C24 1.530 . S
C27 H90 0.961 . S
C27 H91 0.960 . S
C27 H92 0.960 . S
C28 C29 1.530 . S
C28 H94 0.961 . S
C28 H95 0.961 . S
C28 H96 0.959 . S
C29 C28 1.530 . S
C29 O57 1.412 . S
C29 H93 0.980 . S
C30 C31 1.288 . S
C30 C35 1.377 . S
C30 O57 1.393 . S
C31 C30 1.288 . S
C31 C32 1.369 . S
C31 H97 0.932 . S
C32 C31 1.369 . S
C32 C33 1.398 . S
C32 C36 1.527 . S
C33 C32 1.398 . S
C33 C34 1.380 . S
C33 C47 1.497 . S
C34 C33 1.380 . S
C34 C35 1.383 . S
C34 C37 1.603 . S
C35 C30 1.377 . S
C35 C34 1.383 . S
C35 H98 0.929 . S
C36 C32 1.527 . S
C36 H99 0.961 . S
C36 H100 0.959 . S
C36 H101 0.959 . S
C37 C34 1.603 . S
C37 H102 0.960 . S
C37 H103 0.962 . S
C37 H104 0.961 . S
C38 C5 1.587 . S
C38 C39 1.360 . S
C38 C51 1.412 . S
C39 C38 1.360 . S
C39 C40 1.365 . S
C39 H105 0.929 . S
C40 C15 1.553 1_455 S
C40 C39 1.365 . S
C40 C41 1.404 . S
C41 C40 1.404 . S
C41 C42 1.395 1_455 S
C41 C52 1.451 . S
C42 C41 1.395 1_655 S
C42 C43 1.322 . S
C42 H106 0.930 . S
C43 C42 1.322 . S
C43 C44 1.459 . S
C43 H107 0.929 . S
C44 C43 1.459 . S
C44 C45 1.445 . S
C44 C53 1.395 1_655 S
C45 C23 1.432 . S
C45 C44 1.445 . S
C45 C46 1.370 . S
C46 C45 1.370 . S
C46 C47 1.438 1_655 S
C46 H108 0.930 . S
C47 C33 1.497 . S
C47 C46 1.438 1_455 S
C47 C48 1.360 . S
C48 C47 1.360 . S
C48 C49 1.401 . S
C48 C53 1.446 . S
C49 C48 1.401 . S
C49 C50 1.347 . S
C49 H109 0.929 . S
C50 C49 1.347 . S
C50 C51 1.455 . S
C50 H110 0.930 . S
C51 C38 1.412 . S
C51 C50 1.455 . S
C51 C52 1.331 . S
C52 C41 1.451 . S
C52 C51 1.331 . S
C52 C53 1.497 . S
C53 C44 1.395 1_455 S
C53 C48 1.446 . S
C53 C52 1.497 . S
C54 C55 1.582 . S
C54 H111 0.962 . S
C54 H112 0.959 . S
C54 H113 0.958 . S
C55 C54 1.582 . S
C55 O58 1.458 . S
C55 H84 0.980 . S
O56 C1 1.426 . S
O56 C2 1.334 . S
O57 C29 1.412 . S
O57 C30 1.393 . S
O58 C20 1.435 . S
O58 C55 1.458 . S
O59 C11 1.468 . S
O59 C12 1.408 . S
H60 C1 0.980 . S
H61 C0 0.959 . S
H62 C0 0.959 . S
H63 C0 0.960 . S
H64 C3 0.929 . S
H65 C7 0.929 . S
H66 C8 0.959 . S
H67 C8 0.961 . S
H68 C8 0.961 . S
H69 C9 0.960 . S
H70 C9 0.960 . S
H71 C9 0.961 . S
H72 C11 0.980 . S
H73 C10 0.961 . S
H74 C10 0.960 . S
H75 C10 0.959 . S
H76 C13 0.930 . S
H77 C17 0.931 . S
H78 C18 0.959 1_455 S
H79 C18 0.961 1_455 S
H80 C18 0.959 . S
H81 C19 0.960 . S
H82 C19 0.960 1_455 S
H83 C19 0.960 . S
H84 C55 0.980 . S
H85 C21 0.930 . S
H86 C25 0.930 . S
H87 C26 0.961 . S
H88 C26 0.960 . S
H89 C26 0.958 . S
H90 C27 0.961 . S
H91 C27 0.960 . S
H92 C27 0.960 . S
H93 C29 0.980 . S
H94 C28 0.961 . S
H95 C28 0.961 . S
H96 C28 0.959 . S
H97 C31 0.932 . S
H98 C35 0.929 . S
H99 C36 0.961 . S
H100 C36 0.959 . S
H101 C36 0.959 . S
H102 C37 0.960 . S
H103 C37 0.962 . S
H104 C37 0.961 . S
H105 C39 0.929 . S
H106 C42 0.930 . S
H107 C43 0.929 . S
H108 C46 0.930 . S
H109 C49 0.929 . S
H110 C50 0.930 . S
H111 C54 0.962 . S
H112 C54 0.959 . S
H113 C54 0.958 . S
C114 C115 1.560 . S
C114 H175 0.959 . S
C114 H176 0.959 . S
C114 H177 0.960 . S
C115 C114 1.560 . S
C115 O170 1.426 . S
C115 H174 0.980 . S
C116 C117 1.407 . S
C116 C121 1.418 . S
C116 O170 1.334 . S
C117 C116 1.407 . S
C117 C118 1.360 . S
C117 H178 0.929 . S
C118 C117 1.360 . S
C118 C119 1.401 . S
C118 C122 1.527 . S
C119 C118 1.401 . S
C119 C120 1.405 . S
C119 C152 1.587 . S
C120 C119 1.405 . S
C120 C121 1.332 . S
C120 C123 1.496 . S
C121 C116 1.418 . S
C121 C120 1.332 . S
C121 H179 0.929 . S
C122 C118 1.527 . S
C122 H180 0.959 . S
C122 H181 0.961 . S
C122 H182 0.961 . S
C123 C120 1.496 . S
C123 H183 0.960 . S
C123 H184 0.960 . S
C123 H185 0.961 . S
C124 C125 1.517 . S
C124 H187 0.961 . S
C124 H188 0.960 . S
C124 H189 0.959 . S
C125 C124 1.517 . S
C125 O173 1.468 . S
C125 H186 0.980 . S
C126 C127 1.349 . S
C126 C131 1.367 . S
C126 O173 1.408 . S
C127 C126 1.349 . S
C127 C128 1.407 . S
C127 H190 0.930 . S
C128 C127 1.407 . S
C128 C129 1.449 . S
C128 C132 1.535 . S
C129 C128 1.449 . S
C129 C130 1.384 . S
C129 C154 1.553 . S
C130 C129 1.384 . S
C130 C131 1.364 . S
C130 C133 1.450 . S
C131 C126 1.367 . S
C131 C130 1.364 . S
C131 H191 0.931 . S
C132 C128 1.535 . S
C132 H192 0.959 . S
C132 H193 0.961 . S
C132 H194 0.959 . S
C133 C130 1.450 . S
C133 H195 0.960 . S
C133 H196 0.960 . S
C133 H197 0.960 . S
C134 C135 1.309 . S
C134 C139 1.304 . S
C134 O172 1.435 . S
C135 C134 1.309 . S
C135 C136 1.476 . S
C135 H199 0.930 . S
C136 C135 1.476 . S
C136 C137 1.400 . S
C136 C140 1.567 . S
C137 C136 1.400 . S
C137 C138 1.373 . S
C137 C159 1.432 . S
C138 C137 1.373 . S
C138 C139 1.339 . S
C138 C141 1.530 . S
C139 C134 1.304 . S
C139 C138 1.339 . S
C139 H200 0.930 . S
C140 C136 1.567 . S
C140 H201 0.961 . S
C140 H202 0.960 . S
C140 H203 0.958 . S
C141 C138 1.530 . S
C141 H204 0.961 . S
C141 H205 0.960 . S
C141 H206 0.960 . S
C142 C143 1.530 . S
C142 H208 0.961 . S
C142 H209 0.961 . S
C142 H210 0.959 . S
C143 C142 1.530 . S
C143 O171 1.412 . S
C143 H207 0.980 . S
C144 C145 1.288 . S
C144 C149 1.377 . S
C144 O171 1.393 . S
C145 C144 1.288 . S
C145 C146 1.369 . S
C145 H211 0.932 . S
C146 C145 1.369 . S
C146 C147 1.398 . S
C146 C150 1.527 1_565 S
C147 C146 1.398 . S
C147 C148 1.380 . S
C147 C161 1.497 1_565 S
C148 C147 1.380 . S
C148 C149 1.383 . S
C148 C151 1.603 . S
C149 C144 1.377 . S
C149 C148 1.383 . S
C149 H212 0.929 . S
C150 C146 1.527 1_545 S
C150 H213 0.961 . S
C150 H214 0.959 . S
C150 H215 0.959 1_545 S
C151 C148 1.603 . S
C151 H216 0.960 . S
C151 H217 0.962 . S
C151 H218 0.961 . S
C152 C119 1.587 . S
C152 C153 1.360 . S
C152 C165 1.412 . S
C153 C152 1.360 . S
C153 C154 1.365 1_565 S
C153 H219 0.929 . S
C154 C129 1.553 . S
C154 C153 1.365 1_545 S
C154 C155 1.404 . S
C155 C154 1.404 . S
C155 C156 1.395 . S
C155 C166 1.451 . S
C156 C155 1.395 . S
C156 C157 1.322 . S
C156 H220 0.930 . S
C157 C156 1.322 . S
C157 C158 1.459 . S
C157 H221 0.929 . S
C158 C157 1.459 . S
C158 C159 1.445 . S
C158 C167 1.395 . S
C159 C137 1.432 . S
C159 C158 1.445 . S
C159 C160 1.370 . S
C160 C159 1.370 . S
C160 C161 1.438 . S
C160 H222 0.930 . S
C161 C147 1.497 1_545 S
C161 C160 1.438 . S
C161 C162 1.360 1_545 S
C162 C161 1.360 1_565 S
C162 C163 1.401 . S
C162 C167 1.446 1_565 S
C163 C162 1.401 . S
C163 C164 1.347 . S
C163 H223 0.929 . S
C164 C163 1.347 . S
C164 C165 1.455 . S
C164 H224 0.930 . S
C165 C152 1.412 . S
C165 C164 1.455 . S
C165 C166 1.331 1_565 S
C166 C155 1.451 . S
C166 C165 1.331 1_545 S
C166 C167 1.497 . S
C167 C158 1.395 . S
C167 C162 1.446 1_545 S
C167 C166 1.497 . S
C168 C169 1.582 . S
C168 H225 0.962 . S
C168 H226 0.959 . S
C168 H227 0.958 . S
C169 C168 1.582 . S
C169 O172 1.458 . S
C169 H198 0.980 . S
O170 C115 1.426 . S
O170 C116 1.334 . S
O171 C143 1.412 . S
O171 C144 1.393 . S
O172 C134 1.435 . S
O172 C169 1.458 . S
O173 C125 1.468 . S
O173 C126 1.408 . S
H174 C115 0.980 . S
H175 C114 0.959 . S
H176 C114 0.959 . S
H177 C114 0.960 . S
H178 C117 0.929 . S
H179 C121 0.929 . S
H180 C122 0.959 . S
H181 C122 0.961 . S
H182 C122 0.961 . S
H183 C123 0.960 . S
H184 C123 0.960 . S
H185 C123 0.961 . S
H186 C125 0.980 . S
H187 C124 0.961 . S
H188 C124 0.960 . S
H189 C124 0.959 . S
H190 C127 0.930 . S
H191 C131 0.931 . S
H192 C132 0.959 . S
H193 C132 0.961 . S
H194 C132 0.959 . S
H195 C133 0.960 . S
H196 C133 0.960 . S
H197 C133 0.960 . S
H198 C169 0.980 . S
H199 C135 0.930 . S
H200 C139 0.930 . S
H201 C140 0.961 . S
H202 C140 0.960 . S
H203 C140 0.958 . S
H204 C141 0.961 . S
H205 C141 0.960 . S
H206 C141 0.960 . S
H207 C143 0.980 . S
H208 C142 0.961 . S
H209 C142 0.961 . S
H210 C142 0.959 . S
H211 C145 0.932 . S
H212 C149 0.929 . S
H213 C150 0.961 . S
H214 C150 0.959 . S
H215 C150 0.959 1_565 S
H216 C151 0.960 . S
H217 C151 0.962 . S
H218 C151 0.961 . S
H219 C153 0.929 . S
H220 C156 0.930 . S
H221 C157 0.929 . S
H222 C160 0.930 . S
H223 C163 0.929 . S
H224 C164 0.930 . S
H225 C168 0.962 . S
H226 C168 0.959 . S
H227 C168 0.958 . S
C228 C229 1.560 . S
C228 H289 0.959 . S
C228 H290 0.959 . S
C228 H291 0.960 . S
C229 C228 1.560 . S
C229 O284 1.426 . S
C229 H288 0.980 . S
C230 C231 1.407 . S
C230 C235 1.418 . S
C230 O284 1.334 . S
C231 C230 1.407 . S
C231 C232 1.360 . S
C231 H292 0.929 . S
C232 C231 1.360 . S
C232 C233 1.401 . S
C232 C236 1.527 . S
C233 C232 1.401 . S
C233 C234 1.405 . S
C233 C266 1.587 . S
C234 C233 1.405 . S
C234 C235 1.332 . S
C234 C237 1.496 . S
C235 C230 1.418 . S
C235 C234 1.332 . S
C235 H293 0.929 . S
C236 C232 1.527 . S
C236 H294 0.959 . S
C236 H295 0.961 . S
C236 H296 0.961 . S
C237 C234 1.496 . S
C237 H297 0.960 . S
C237 H298 0.960 . S
C237 H299 0.961 . S
C238 C239 1.517 . S
C238 H301 0.961 . S
C238 H302 0.960 . S
C238 H303 0.959 . S
C239 C238 1.517 . S
C239 O287 1.468 . S
C239 H300 0.980 . S
C240 C241 1.349 . S
C240 C245 1.367 . S
C240 O287 1.408 . S
C241 C240 1.349 . S
C241 C242 1.407 . S
C241 H304 0.930 . S
C242 C241 1.407 . S
C242 C243 1.449 . S
C242 C246 1.535 . S
C243 C242 1.449 . S
C243 C244 1.384 . S
C243 C268 1.553 . S
C244 C243 1.384 . S
C244 C245 1.364 . S
C244 C247 1.450 . S
C245 C240 1.367 . S
C245 C244 1.364 . S
C245 H305 0.931 . S
C246 C242 1.535 . S
C246 H306 0.959 . S
C246 H307 0.961 . S
C246 H308 0.959 . S
C247 C244 1.450 . S
C247 H309 0.960 . S
C247 H310 0.960 . S
C247 H311 0.960 . S
C248 C249 1.309 . S
C248 C253 1.304 . S
C248 O286 1.435 . S
C249 C248 1.309 . S
C249 C250 1.476 . S
C249 H313 0.930 . S
C250 C249 1.476 . S
C250 C251 1.400 . S
C250 C254 1.567 . S
C251 C250 1.400 . S
C251 C252 1.373 . S
C251 C273 1.432 . S
C252 C251 1.373 . S
C252 C253 1.339 . S
C252 C255 1.530 . S
C253 C248 1.304 . S
C253 C252 1.339 . S
C253 H314 0.930 . S
C254 C250 1.567 . S
C254 H315 0.961 . S
C254 H316 0.960 . S
C254 H317 0.958 . S
C255 C252 1.530 . S
C255 H318 0.961 . S
C255 H319 0.960 . S
C255 H320 0.960 . S
C256 C257 1.530 . S
C256 H322 0.961 . S
C256 H323 0.961 . S
C256 H324 0.959 . S
C257 C256 1.530 . S
C257 O285 1.412 . S
C257 H321 0.980 . S
C258 C259 1.288 . S
C258 C263 1.377 . S
C258 O285 1.393 . S
C259 C258 1.288 . S
C259 C260 1.369 . S
C259 H325 0.932 . S
C260 C259 1.369 . S
C260 C261 1.398 . S
C260 C264 1.527 . S
C261 C260 1.398 . S
C261 C262 1.380 . S
C261 C275 1.497 . S
C262 C261 1.380 . S
C262 C263 1.383 . S
C262 C265 1.603 . S
C263 C258 1.377 . S
C263 C262 1.383 . S
C263 H326 0.929 . S
C264 C260 1.527 . S
C264 H327 0.961 . S
C264 H328 0.959 . S
C264 H329 0.959 . S
C265 C262 1.603 . S
C265 H330 0.960 . S
C265 H331 0.962 . S
C265 H332 0.961 . S
C266 C233 1.587 . S
C266 C267 1.360 . S
C266 C279 1.412 . S
C267 C266 1.360 . S
C267 C268 1.365 . S
C267 H333 0.929 . S
C268 C243 1.553 . S
C268 C267 1.365 . S
C268 C269 1.404 . S
C269 C268 1.404 . S
C269 C270 1.395 . S
C269 C280 1.451 . S
C270 C269 1.395 . S
C270 C271 1.322 . S
C270 H334 0.930 . S
C271 C270 1.322 . S
C271 C272 1.459 . S
C271 H335 0.929 . S
C272 C271 1.459 . S
C272 C273 1.445 . S
C272 C281 1.395 . S
C273 C251 1.432 . S
C273 C272 1.445 . S
C273 C274 1.370 . S
C274 C273 1.370 . S
C274 C275 1.438 . S
C274 H336 0.930 . S
C275 C261 1.497 . S
C275 C274 1.438 . S
C275 C276 1.360 . S
C276 C275 1.360 . S
C276 C277 1.401 . S
C276 C281 1.446 . S
C277 C276 1.401 . S
C277 C278 1.347 . S
C277 H337 0.929 . S
C278 C277 1.347 . S
C278 C279 1.455 . S
C278 H338 0.930 . S
C279 C266 1.412 . S
C279 C278 1.455 . S
C279 C280 1.331 . S
C280 C269 1.451 . S
C280 C279 1.331 . S
C280 C281 1.497 . S
C281 C272 1.395 . S
C281 C276 1.446 . S
C281 C280 1.497 . S
C282 C283 1.582 . S
C282 H339 0.962 . S
C282 H340 0.959 . S
C282 H341 0.958 . S
C283 C282 1.582 . S
C283 O286 1.458 . S
C283 H312 0.980 . S
O284 C229 1.426 . S
O284 C230 1.334 . S
O285 C257 1.412 . S
O285 C258 1.393 . S
O286 C248 1.435 . S
O286 C283 1.458 . S
O287 C239 1.468 . S
O287 C240 1.408 . S
H288 C229 0.980 . S
H289 C228 0.959 . S
H290 C228 0.959 . S
H291 C228 0.960 . S
H292 C231 0.929 . S
H293 C235 0.929 . S
H294 C236 0.959 . S
H295 C236 0.961 . S
H296 C236 0.961 . S
H297 C237 0.960 . S
H298 C237 0.960 . S
H299 C237 0.961 . S
H300 C239 0.980 . S
H301 C238 0.961 . S
H302 C238 0.960 . S
H303 C238 0.959 . S
H304 C241 0.930 . S
H305 C245 0.931 . S
H306 C246 0.959 . S
H307 C246 0.961 . S
H308 C246 0.959 . S
H309 C247 0.960 . S
H310 C247 0.960 . S
H311 C247 0.960 . S
H312 C283 0.980 . S
H313 C249 0.930 . S
H314 C253 0.930 . S
H315 C254 0.961 . S
H316 C254 0.960 . S
H317 C254 0.958 . S
H318 C255 0.961 . S
H319 C255 0.960 . S
H320 C255 0.960 . S
H321 C257 0.980 . S
H322 C256 0.961 . S
H323 C256 0.961 . S
H324 C256 0.959 . S
H325 C259 0.932 . S
H326 C263 0.929 . S
H327 C264 0.961 . S
H328 C264 0.959 . S
H329 C264 0.959 . S
H330 C265 0.960 . S
H331 C265 0.962 . S
H332 C265 0.961 . S
H333 C267 0.929 . S
H334 C270 0.930 . S
H335 C271 0.929 . S
H336 C274 0.930 . S
H337 C277 0.929 . S
H338 C278 0.930 . S
H339 C282 0.962 . S
H340 C282 0.959 . S
H341 C282 0.958 . S
C342 C343 1.560 . S
C342 H403 0.959 . S
C342 H404 0.959 . S
C342 H405 0.960 . S
C343 C342 1.560 . S
C343 O398 1.426 . S
C343 H402 0.980 . S
C344 C345 1.407 . S
C344 C349 1.418 . S
C344 O398 1.334 . S
C345 C344 1.407 . S
C345 C346 1.360 . S
C345 H406 0.929 . S
C346 C345 1.360 . S
C346 C347 1.401 . S
C346 C350 1.527 . S
C347 C346 1.401 . S
C347 C348 1.405 . S
C347 C380 1.587 . S
C348 C347 1.405 . S
C348 C349 1.332 . S
C348 C351 1.496 . S
C349 C344 1.418 . S
C349 C348 1.332 . S
C349 H407 0.929 . S
C350 C346 1.527 . S
C350 H408 0.959 . S
C350 H409 0.961 . S
C350 H410 0.961 . S
C351 C348 1.496 . S
C351 H411 0.960 . S
C351 H412 0.960 . S
C351 H413 0.961 . S
C352 C353 1.485 1_554 S
C352 H415 0.990 . S
C352 H416 0.981 . S
C352 H417 0.944 1_554 S
C353 C352 1.485 1_556 S
C353 O401 1.468 . S
C353 H414 0.980 . S
C354 C355 1.349 . S
C354 C359 1.367 . S
C354 O401 1.408 . S
C355 C354 1.349 . S
C355 C356 1.407 . S
C355 H418 0.930 . S
C356 C355 1.407 . S
C356 C357 1.449 . S
C356 C360 1.535 . S
C357 C356 1.449 . S
C357 C358 1.384 . S
C357 C382 1.553 1_655 S
C358 C357 1.384 . S
C358 C359 1.364 . S
C358 C361 1.450 . S
C359 C354 1.367 . S
C359 C358 1.364 . S
C359 H419 0.931 . S
C360 C356 1.535 . S
C360 H420 0.959 1_655 S
C360 H421 0.961 1_655 S
C360 H422 0.959 . S
C361 C358 1.450 . S
C361 H423 0.960 . S
C361 H424 0.960 1_655 S
C361 H425 0.960 . S
C362 C363 1.309 . S
C362 C367 1.304 . S
C362 O400 1.435 . S
C363 C362 1.309 . S
C363 C364 1.476 . S
C363 H427 0.930 . S
C364 C363 1.476 . S
C364 C365 1.400 . S
C364 C368 1.567 . S
C365 C364 1.400 . S
C365 C366 1.373 . S
C365 C387 1.432 . S
C366 C365 1.373 . S
C366 C367 1.339 . S
C366 C369 1.530 . S
C367 C362 1.304 . S
C367 C366 1.339 . S
C367 H428 0.930 . S
C368 C364 1.567 . S
C368 H429 0.961 . S
C368 H430 0.960 . S
C368 H431 0.958 . S
C369 C366 1.530 . S
C369 H432 0.961 . S
C369 H433 0.960 . S
C369 H434 0.960 . S
C370 C371 1.530 . S
C370 H436 0.961 . S
C370 H437 0.961 . S
C370 H438 0.959 . S
C371 C370 1.530 . S
C371 O399 1.412 . S
C371 H435 0.980 . S
C372 C373 1.288 . S
C372 C377 1.377 . S
C372 O399 1.393 . S
C373 C372 1.288 . S
C373 C374 1.369 . S
C373 H439 0.932 . S
C374 C373 1.369 . S
C374 C375 1.398 . S
C374 C378 1.527 . S
C375 C374 1.398 . S
C375 C376 1.380 . S
C375 C389 1.497 . S
C376 C375 1.380 . S
C376 C377 1.383 . S
C376 C379 1.603 . S
C377 C372 1.377 . S
C377 C376 1.383 . S
C377 H440 0.929 . S
C378 C374 1.527 . S
C378 H441 0.961 . S
C378 H442 0.959 . S
C378 H443 0.959 . S
C379 C376 1.603 . S
C379 H444 0.960 . S
C379 H445 0.962 . S
C379 H446 0.961 . S
C380 C347 1.587 . S
C380 C381 1.360 . S
C380 C393 1.412 . S
C381 C380 1.360 . S
C381 C382 1.365 . S
C381 H447 0.929 . S
C382 C357 1.553 1_455 S
C382 C381 1.365 . S
C382 C383 1.404 . S
C383 C382 1.404 . S
C383 C384 1.395 1_455 S
C383 C394 1.451 . S
C384 C383 1.395 1_655 S
C384 C385 1.322 . S
C384 H448 0.930 . S
C385 C384 1.322 . S
C385 C386 1.459 . S
C385 H449 0.929 . S
C386 C385 1.459 . S
C386 C387 1.445 . S
C386 C395 1.395 1_655 S
C387 C365 1.432 . S
C387 C386 1.445 . S
C387 C388 1.370 . S
C388 C387 1.370 . S
C388 C389 1.438 1_655 S
C388 H450 0.930 . S
C389 C375 1.497 . S
C389 C388 1.438 1_455 S
C389 C390 1.360 . S
C390 C389 1.360 . S
C390 C391 1.401 . S
C390 C395 1.446 . S
C391 C390 1.401 . S
C391 C392 1.347 . S
C391 H451 0.929 . S
C392 C391 1.347 . S
C392 C393 1.455 . S
C392 H452 0.930 . S
C393 C380 1.412 . S
C393 C392 1.455 . S
C393 C394 1.331 . S
C394 C383 1.451 . S
C394 C393 1.331 . S
C394 C395 1.497 . S
C395 C386 1.395 1_455 S
C395 C390 1.446 . S
C395 C394 1.497 . S
C396 C397 1.582 . S
C396 H453 0.962 . S
C396 H454 0.959 . S
C396 H455 0.958 . S
C397 C396 1.582 . S
C397 O400 1.458 . S
C397 H426 0.980 . S
O398 C343 1.426 . S
O398 C344 1.334 . S
O399 C371 1.412 . S
O399 C372 1.393 . S
O400 C362 1.435 . S
O400 C397 1.458 . S
O401 C353 1.468 . S
O401 C354 1.408 . S
H402 C343 0.980 . S
H403 C342 0.959 . S
H404 C342 0.959 . S
H405 C342 0.960 . S
H406 C345 0.929 . S
H407 C349 0.929 . S
H408 C350 0.959 . S
H409 C350 0.961 . S
H410 C350 0.961 . S
H411 C351 0.960 . S
H412 C351 0.960 . S
H413 C351 0.961 . S
H414 C353 0.980 . S
H415 C352 0.990 . S
H416 C352 0.981 . S
H417 C352 0.944 1_556 S
H418 C355 0.930 . S
H419 C359 0.931 . S
H420 C360 0.959 1_455 S
H421 C360 0.961 1_455 S
H422 C360 0.959 . S
H423 C361 0.960 . S
H424 C361 0.960 1_455 S
H425 C361 0.960 . S
H426 C397 0.980 . S
H427 C363 0.930 . S
H428 C367 0.930 . S
H429 C368 0.961 . S
H430 C368 0.960 . S
H431 C368 0.958 . S
H432 C369 0.961 . S
H433 C369 0.960 . S
H434 C369 0.960 . S
H435 C371 0.980 . S
H436 C370 0.961 . S
H437 C370 0.961 . S
H438 C370 0.959 . S
H439 C373 0.932 . S
H440 C377 0.929 . S
H441 C378 0.961 . S
H442 C378 0.959 . S
H443 C378 0.959 . S
H444 C379 0.960 . S
H445 C379 0.962 . S
H446 C379 0.961 . S
H447 C381 0.929 . S
H448 C384 0.930 . S
H449 C385 0.929 . S
H450 C388 0.930 . S
H451 C391 0.929 . S
H452 C392 0.930 . S
H453 C396 0.962 . S
H454 C396 0.959 . S
H455 C396 0.958 . S
C456 C457 1.560 . S
C456 H517 0.959 . S
C456 H518 0.959 . S
C456 H519 0.960 . S
C457 C456 1.560 . S
C457 O512 1.426 . S
C457 H516 0.980 . S
C458 C459 1.407 . S
C458 C463 1.418 . S
C458 O512 1.334 . S
C459 C458 1.407 . S
C459 C460 1.360 . S
C459 H520 0.929 . S
C460 C459 1.360 . S
C460 C461 1.401 . S
C460 C464 1.527 . S
C461 C460 1.401 . S
C461 C462 1.405 . S
C461 C494 1.587 . S
C462 C461 1.405 . S
C462 C463 1.332 . S
C462 C465 1.496 . S
C463 C458 1.418 . S
C463 C462 1.332 . S
C463 H521 0.929 . S
C464 C460 1.527 . S
C464 H522 0.959 . S
C464 H523 0.961 . S
C464 H524 0.961 . S
C465 C462 1.496 . S
C465 H525 0.960 . S
C465 H526 0.960 . S
C465 H527 0.961 . S
C466 C467 1.517 . S
C466 H529 0.961 . S
C466 H530 0.960 . S
C466 H531 0.959 . S
C467 C466 1.517 . S
C467 O515 1.468 . S
C467 H528 0.980 . S
C468 C469 1.349 . S
C468 C473 1.367 . S
C468 O515 1.408 . S
C469 C468 1.349 . S
C469 C470 1.407 . S
C469 H532 0.930 . S
C470 C469 1.407 . S
C470 C471 1.449 . S
C470 C474 1.535 . S
C471 C470 1.449 . S
C471 C472 1.384 . S
C471 C496 1.553 . S
C472 C471 1.384 . S
C472 C473 1.364 . S
C472 C475 1.450 . S
C473 C468 1.367 . S
C473 C472 1.364 . S
C473 H533 0.931 . S
C474 C470 1.535 . S
C474 H534 0.959 . S
C474 H535 0.961 . S
C474 H536 0.959 . S
C475 C472 1.450 . S
C475 H537 0.960 . S
C475 H538 0.960 . S
C475 H539 0.960 . S
C476 C477 1.309 . S
C476 C481 1.304 . S
C476 O514 1.435 . S
C477 C476 1.309 . S
C477 C478 1.476 . S
C477 H541 0.930 . S
C478 C477 1.476 . S
C478 C479 1.400 . S
C478 C482 1.567 . S
C479 C478 1.400 . S
C479 C480 1.373 . S
C479 C501 1.432 . S
C480 C479 1.373 . S
C480 C481 1.339 . S
C480 C483 1.530 . S
C481 C476 1.304 . S
C481 C480 1.339 . S
C481 H542 0.930 . S
C482 C478 1.567 . S
C482 H543 0.961 . S
C482 H544 0.960 . S
C482 H545 0.958 . S
C483 C480 1.530 . S
C483 H546 0.961 . S
C483 H547 0.960 . S
C483 H548 0.960 . S
C484 C485 1.530 . S
C484 H550 0.961 . S
C484 H551 0.961 . S
C484 H552 0.959 . S
C485 C484 1.530 . S
C485 O513 1.412 . S
C485 H549 0.980 . S
C486 C487 1.288 . S
C486 C491 1.377 . S
C486 O513 1.393 . S
C487 C486 1.288 . S
C487 C488 1.369 . S
C487 H553 0.932 . S
C488 C487 1.369 . S
C488 C489 1.398 . S
C488 C492 1.527 1_565 S
C489 C488 1.398 . S
C489 C490 1.380 . S
C489 C503 1.497 1_565 S
C490 C489 1.380 . S
C490 C491 1.383 . S
C490 C493 1.603 . S
C491 C486 1.377 . S
C491 C490 1.383 . S
C491 H554 0.929 . S
C492 C488 1.527 1_545 S
C492 H555 0.961 . S
C492 H556 0.959 . S
C492 H557 0.933 1_545 S
C493 C490 1.603 . S
C493 H558 0.960 . S
C493 H559 0.962 . S
C493 H560 0.961 . S
C494 C461 1.587 . S
C494 C495 1.360 . S
C494 C507 1.412 . S
C495 C494 1.360 . S
C495 C496 1.365 1_565 S
C495 H561 0.929 . S
C496 C471 1.553 . S
C496 C495 1.365 1_545 S
C496 C497 1.404 . S
C497 C496 1.404 . S
C497 C498 1.395 . S
C497 C508 1.451 . S
C498 C497 1.395 . S
C498 C499 1.322 . S
C498 H562 0.930 . S
C499 C498 1.322 . S
C499 C500 1.459 1_556 S
C499 H563 0.929 . S
C500 C499 1.459 1_554 S
C500 C501 1.445 . S
C500 C509 1.395 . S
C501 C479 1.432 . S
C501 C500 1.445 . S
C501 C502 1.370 . S
C502 C501 1.370 . S
C502 C503 1.438 . S
C502 H564 0.930 . S
C503 C489 1.497 1_545 S
C503 C502 1.438 . S
C503 C504 1.360 1_545 S
C504 C503 1.360 1_565 S
C504 C505 1.401 . S
C504 C509 1.446 1_565 S
C505 C504 1.401 . S
C505 C506 1.347 1_554 S
C505 H565 0.929 . S
C506 C505 1.347 1_556 S
C506 C507 1.455 . S
C506 H566 0.930 . S
C507 C494 1.412 . S
C507 C506 1.455 . S
C507 C508 1.331 1_565 S
C508 C497 1.451 . S
C508 C507 1.331 1_545 S
C508 C509 1.497 1_556 S
C509 C500 1.395 . S
C509 C504 1.446 1_545 S
C509 C508 1.497 1_554 S
C510 C511 1.582 . S
C510 H567 0.962 . S
C510 H568 0.959 . S
C510 H569 0.958 . S
C511 C510 1.582 . S
C511 O514 1.458 . S
C511 H540 0.980 . S
O512 C457 1.426 . S
O512 C458 1.334 . S
O513 C485 1.412 . S
O513 C486 1.393 . S
O514 C476 1.435 . S
O514 C511 1.458 . S
O515 C467 1.468 . S
O515 C468 1.408 . S
H516 C457 0.980 . S
H517 C456 0.959 . S
H518 C456 0.959 . S
H519 C456 0.960 . S
H520 C459 0.929 . S
H521 C463 0.929 . S
H522 C464 0.959 . S
H523 C464 0.961 . S
H524 C464 0.961 . S
H525 C465 0.960 . S
H526 C465 0.960 . S
H527 C465 0.961 . S
H528 C467 0.980 . S
H529 C466 0.961 . S
H530 C466 0.960 . S
H531 C466 0.959 . S
H532 C469 0.930 . S
H533 C473 0.931 . S
H534 C474 0.959 . S
H535 C474 0.961 . S
H536 C474 0.959 . S
H537 C475 0.960 . S
H538 C475 0.960 . S
H539 C475 0.960 . S
H540 C511 0.980 . S
H541 C477 0.930 . S
H542 C481 0.930 . S
H543 C482 0.961 . S
H544 C482 0.960 . S
H545 C482 0.958 . S
H546 C483 0.961 . S
H547 C483 0.960 . S
H548 C483 0.960 . S
H549 C485 0.980 . S
H550 C484 0.961 . S
H551 C484 0.961 . S
H552 C484 0.959 . S
H553 C487 0.932 . S
H554 C491 0.929 . S
H555 C492 0.961 . S
H556 C492 0.959 . S
H557 C492 0.933 1_565 S
H558 C493 0.960 . S
H559 C493 0.962 . S
H560 C493 0.961 . S
H561 C495 0.929 . S
H562 C498 0.930 . S
H563 C499 0.929 . S
H564 C502 0.930 . S
H565 C505 0.929 . S
H566 C506 0.930 . S
H567 C510 0.962 . S
H568 C510 0.959 . S
H569 C510 0.958 . S
C570 C571 1.560 . S
C570 H631 0.959 . S
C570 H632 0.959 . S
C570 H633 0.960 . S
C571 C570 1.560 . S
C571 O626 1.426 . S
C571 H630 0.980 . S
C572 C573 1.407 . S
C572 C577 1.418 . S
C572 O626 1.334 . S
C573 C572 1.407 . S
C573 C574 1.360 . S
C573 H634 0.929 . S
C574 C573 1.360 . S
C574 C575 1.401 . S
C574 C578 1.527 . S
C575 C574 1.401 . S
C575 C576 1.405 . S
C575 C608 1.587 . S
C576 C575 1.405 . S
C576 C577 1.332 . S
C576 C579 1.496 . S
C577 C572 1.418 . S
C577 C576 1.332 . S
C577 H635 0.929 . S
C578 C574 1.527 . S
C578 H636 0.959 . S
C578 H637 0.961 . S
C578 H638 0.961 . S
C579 C576 1.496 . S
C579 H639 0.960 . S
C579 H640 0.960 . S
C579 H641 0.961 . S
C580 C581 1.517 1_556 S
C580 H643 0.961 . S
C580 H644 0.960 . S
C580 H645 0.959 . S
C581 C580 1.517 1_554 S
C581 O629 1.468 . S
C581 H642 0.980 . S
C582 C583 1.349 . S
C582 C587 1.367 . S
C582 O629 1.408 . S
C583 C582 1.349 . S
C583 C584 1.407 . S
C583 H646 0.930 . S
C584 C583 1.407 . S
C584 C585 1.449 . S
C584 C588 1.535 . S
C585 C584 1.449 . S
C585 C586 1.384 . S
C585 C610 1.553 . S
C586 C585 1.384 . S
C586 C587 1.364 . S
C586 C589 1.450 . S
C587 C582 1.367 . S
C587 C586 1.364 . S
C587 H647 0.931 . S
C588 C584 1.535 . S
C588 H648 0.959 . S
C588 H649 0.961 . S
C588 H650 0.959 . S
C589 C586 1.450 . S
C589 H651 0.960 . S
C589 H652 0.960 . S
C589 H653 0.960 . S
C590 C591 1.309 . S
C590 C595 1.304 . S
C590 O628 1.435 . S
C591 C590 1.309 . S
C591 C592 1.476 . S
C591 H655 0.930 . S
C592 C591 1.476 . S
C592 C593 1.400 . S
C592 C596 1.567 . S
C593 C592 1.400 . S
C593 C594 1.373 . S
C593 C615 1.432 . S
C594 C593 1.373 . S
C594 C595 1.339 . S
C594 C597 1.530 . S
C595 C590 1.304 . S
C595 C594 1.339 . S
C595 H656 0.930 . S
C596 C592 1.567 . S
C596 H657 0.961 . S
C596 H658 0.960 . S
C596 H659 0.958 . S
C597 C594 1.530 . S
C597 H660 0.961 . S
C597 H661 0.960 . S
C597 H662 0.960 . S
C598 C599 1.530 . S
C598 H664 0.961 . S
C598 H665 0.961 . S
C598 H666 0.959 . S
C599 C598 1.530 . S
C599 O627 1.412 . S
C599 H663 0.980 . S
C600 C601 1.288 . S
C600 C605 1.377 . S
C600 O627 1.393 . S
C601 C600 1.288 . S
C601 C602 1.369 . S
C601 H667 0.932 . S
C602 C601 1.369 . S
C602 C603 1.398 . S
C602 C606 1.527 . S
C603 C602 1.398 . S
C603 C604 1.380 . S
C603 C617 1.497 . S
C604 C603 1.380 . S
C604 C605 1.383 . S
C604 C607 1.603 . S
C605 C600 1.377 . S
C605 C604 1.383 . S
C605 H668 0.929 . S
C606 C602 1.527 . S
C606 H669 0.961 . S
C606 H670 0.959 . S
C606 H671 0.959 . S
C607 C604 1.603 . S
C607 H672 0.960 . S
C607 H673 0.962 . S
C607 H674 0.961 . S
C608 C575 1.587 . S
C608 C609 1.360 . S
C608 C621 1.412 . S
C609 C608 1.360 . S
C609 C610 1.365 . S
C609 H675 0.929 . S
C610 C585 1.553 . S
C610 C609 1.365 . S
C610 C611 1.404 . S
C611 C610 1.404 . S
C611 C612 1.395 . S
C611 C622 1.451 . S
C612 C611 1.395 . S
C612 C613 1.322 . S
C612 H676 0.930 . S
C613 C612 1.322 . S
C613 C614 1.459 . S
C613 H677 0.929 . S
C614 C613 1.459 . S
C614 C615 1.445 . S
C614 C623 1.395 . S
C615 C593 1.432 . S
C615 C614 1.445 . S
C615 C616 1.370 . S
C616 C615 1.370 . S
C616 C617 1.438 . S
C616 H678 0.930 . S
C617 C603 1.497 . S
C617 C616 1.438 . S
C617 C618 1.360 . S
C618 C617 1.360 . S
C618 C619 1.401 . S
C618 C623 1.446 . S
C619 C618 1.401 . S
C619 C620 1.347 . S
C619 H679 0.929 . S
C620 C619 1.347 . S
C620 C621 1.455 . S
C620 H680 0.930 . S
C621 C608 1.412 . S
C621 C620 1.455 . S
C621 C622 1.331 . S
C622 C611 1.451 . S
C622 C621 1.331 . S
C622 C623 1.497 . S
C623 C614 1.395 . S
C623 C618 1.446 . S
C623 C622 1.497 . S
C624 C625 1.582 . S
C624 H681 0.962 . S
C624 H682 0.959 . S
C624 H683 0.958 . S
C625 C624 1.582 . S
C625 O628 1.458 . S
C625 H654 0.980 . S
O626 C571 1.426 . S
O626 C572 1.334 . S
O627 C599 1.412 . S
O627 C600 1.393 . S
O628 C590 1.435 . S
O628 C625 1.458 . S
O629 C581 1.468 . S
O629 C582 1.408 . S
H630 C571 0.980 . S
H631 C570 0.959 . S
H632 C570 0.959 . S
H633 C570 0.960 . S
H634 C573 0.929 . S
H635 C577 0.929 . S
H636 C578 0.959 . S
H637 C578 0.961 . S
H638 C578 0.961 . S
H639 C579 0.960 . S
H640 C579 0.960 . S
H641 C579 0.961 . S
H642 C581 0.980 . S
H643 C580 0.961 . S
H644 C580 0.960 . S
H645 C580 0.959 . S
H646 C583 0.930 . S
H647 C587 0.931 . S
H648 C588 0.959 . S
H649 C588 0.961 . S
H650 C588 0.959 . S
H651 C589 0.960 . S
H652 C589 0.960 . S
H653 C589 0.960 . S
H654 C625 0.980 . S
H655 C591 0.930 . S
H656 C595 0.930 . S
H657 C596 0.961 . S
H658 C596 0.960 . S
H659 C596 0.958 . S
H660 C597 0.961 . S
H661 C597 0.960 . S
H662 C597 0.960 . S
H663 C599 0.980 . S
H664 C598 0.961 . S
H665 C598 0.961 . S
H666 C598 0.959 . S
H667 C601 0.932 . S
H668 C605 0.929 . S
H669 C606 0.961 . S
H670 C606 0.959 . S
H671 C606 0.959 . S
H672 C607 0.960 . S
H673 C607 0.962 . S
H674 C607 0.961 . S
H675 C609 0.929 . S
H676 C612 0.930 . S
H677 C613 0.929 . S
H678 C616 0.930 . S
H679 C619 0.929 . S
H680 C620 0.930 . S
H681 C624 0.962 . S
H682 C624 0.959 . S
H683 C624 0.958 . S
O684 Cd685 2.223 . S
O684 C692 1.315 . S
Cd685 O684 2.223 . S
Cd685 O688 2.297 . S
Cd685 O689 2.439 . S
Cd685 O695 2.240 . S
Cd686 O687 2.240 . S
Cd686 O694 2.223 . S
Cd686 O696 2.297 . S
Cd686 O697 2.439 . S
O687 Cd686 2.240 . S
O687 C692 1.279 . S
O688 Cd685 2.297 . S
O688 C690 1.247 . S
O689 Cd685 2.439 . S
O689 C690 1.208 . S
C690 O688 1.247 . S
C690 O689 1.208 . S
C691 O696 1.247 . S
C691 O697 1.208 . S
C692 O684 1.315 . S
C692 O687 1.279 . S
C693 O694 1.315 . S
C693 O695 1.279 . S
O694 Cd686 2.223 . S
O694 C693 1.315 . S
O695 Cd685 2.240 . S
O695 C693 1.279 . S
O696 Cd686 2.297 . S
O696 C691 1.247 . S
O697 Cd686 2.439 . S
O697 C691 1.208 . S
O698 Cd699 2.223 . S
O698 C706 1.315 . S
Cd699 O698 2.223 . S
Cd699 O702 2.297 . S
Cd699 O703 2.439 . S
Cd699 O709 2.240 . S
Cd700 O701 2.240 . S
Cd700 O708 2.223 . S
Cd700 O710 2.297 . S
Cd700 O711 2.439 . S
O701 Cd700 2.240 . S
O701 C706 1.279 . S
O702 Cd699 2.297 . S
O702 C704 1.247 . S
O703 Cd699 2.439 . S
O703 C704 1.208 . S
C704 O702 1.247 . S
C704 O703 1.208 . S
C705 O710 1.247 . S
C705 O711 1.208 . S
C706 O698 1.315 . S
C706 O701 1.279 . S
C707 O708 1.315 . S
C707 O709 1.279 . S
O708 Cd700 2.223 . S
O708 C707 1.315 . S
O709 Cd699 2.240 . S
O709 C707 1.279 . S
O710 Cd700 2.297 . S
O710 C705 1.247 . S
O711 Cd700 2.439 . S
O711 C705 1.208 . S
O712 Cd713 2.223 . S
O712 C720 1.315 . S
Cd713 O712 2.223 . S
Cd713 O716 2.297 . S
Cd713 O717 2.439 . S
Cd713 O723 2.240 . S
Cd714 O715 2.240 . S
Cd714 O722 2.223 . S
Cd714 O724 2.297 . S
Cd714 O725 2.439 . S
O715 Cd714 2.240 . S
O715 C720 1.279 . S
O716 Cd713 2.297 . S
O716 C718 1.247 . S
O717 Cd713 2.439 . S
O717 C718 1.208 . S
C718 O716 1.247 . S
C718 O717 1.208 . S
C719 O724 1.247 . S
C719 O725 1.208 . S
C720 O712 1.315 . S
C720 O715 1.279 . S
C721 O722 1.315 . S
C721 O723 1.279 . S
O722 Cd714 2.223 . S
O722 C721 1.315 . S
O723 Cd713 2.240 . S
O723 C721 1.279 . S
O724 Cd714 2.297 . S
O724 C719 1.247 . S
O725 Cd714 2.439 . S
O725 C719 1.208 . S
O726 Cd727 2.223 . S
O726 C734 1.315 . S
Cd727 O726 2.223 . S
Cd727 O730 2.297 . S
Cd727 O731 2.439 . S
Cd727 O737 2.240 . S
Cd728 O729 2.240 . S
Cd728 O736 2.223 . S
Cd728 O738 2.297 . S
Cd728 O739 2.439 . S
O729 Cd728 2.240 . S
O729 C734 1.279 . S
O730 Cd727 2.297 . S
O730 C732 1.247 . S
O731 Cd727 2.439 . S
O731 C732 1.208 . S
C732 O730 1.247 . S
C732 O731 1.208 . S
C733 O738 1.247 . S
C733 O739 1.208 . S
C734 O726 1.315 . S
C734 O729 1.279 . S
C735 O736 1.315 . S
C735 O737 1.279 . S
O736 Cd728 2.223 . S
O736 C735 1.315 . S
O737 Cd727 2.240 . S
O737 C735 1.279 . S
O738 Cd728 2.297 . S
O738 C733 1.247 . S
O739 Cd728 2.439 . S
O739 C733 1.208 . S
O740 Cd741 2.223 . S
O740 C748 1.315 . S
Cd741 O740 2.223 . S
Cd741 O744 2.297 . S
Cd741 O745 2.439 . S
Cd741 O751 2.240 . S
Cd742 O743 2.240 . S
Cd742 O750 2.223 . S
Cd742 O752 2.297 . S
Cd742 O753 2.439 . S
O743 Cd742 2.240 . S
O743 C748 1.279 . S
O744 Cd741 2.297 . S
O744 C746 1.247 . S
O745 Cd741 2.439 . S
O745 C746 1.208 . S
C746 O744 1.247 . S
C746 O745 1.208 . S
C747 O752 1.247 . S
C747 O753 1.208 . S
C748 O740 1.315 . S
C748 O743 1.279 . S
C749 O750 1.315 . S
C749 O751 1.279 . S
O750 Cd742 2.223 . S
O750 C749 1.315 . S
O751 Cd741 2.240 . S
O751 C749 1.279 . S
O752 Cd742 2.297 . S
O752 C747 1.247 . S
O753 Cd742 2.439 . S
O753 C747 1.208 . S
O754 Cd755 2.223 . S
O754 C762 1.315 . S
Cd755 O754 2.223 . S
Cd755 O758 2.297 . S
Cd755 O759 2.439 . S
Cd755 O765 2.240 . S
Cd756 O757 2.240 . S
Cd756 O764 2.223 . S
Cd756 O766 2.297 . S
Cd756 O767 2.439 . S
O757 Cd756 2.240 . S
O757 C762 1.279 . S
O758 Cd755 2.297 . S
O758 C760 1.247 . S
O759 Cd755 2.439 . S
O759 C760 1.208 . S
C760 O758 1.247 . S
C760 O759 1.208 . S
C761 O766 1.247 . S
C761 O767 1.208 . S
C762 O754 1.315 . S
C762 O757 1.279 . S
C763 O764 1.315 . S
C763 O765 1.279 . S
O764 Cd756 2.223 . S
O764 C763 1.315 . S
O765 Cd755 2.240 . S
O765 C763 1.279 . S
O766 Cd756 2.297 . S
O766 C761 1.247 . S
O767 Cd756 2.439 . S
O767 C761 1.208 . S
C768 C769 1.387 . S
C768 H772 0.950 . S
C768 C777 1.390 . S
C769 C768 1.387 . S
C769 C771 1.387 . S
H770 C777 0.950 . S
C771 C769 1.387 . S
C771 C773 1.390 . S
C771 H775 0.950 . S
H772 C768 0.950 . S
C773 C771 1.390 . S
C773 C774 1.387 . S
C773 H776 0.950 . S
C774 C773 1.387 . S
C774 C777 1.387 . S
H775 C771 0.950 . S
H776 C773 0.950 . S
C777 C768 1.390 . S
C777 H770 0.950 . S
C777 C774 1.387 . S
C778 C779 1.387 . S
C778 H782 0.950 . S
C778 C787 1.390 . S
C779 C778 1.387 . S
C779 C781 1.387 . S
H780 C787 0.950 . S
C781 C779 1.387 . S
C781 C783 1.390 . S
C781 H785 0.950 . S
H782 C778 0.950 . S
C783 C781 1.390 . S
C783 C784 1.387 . S
C783 H786 0.950 . S
C784 C783 1.387 . S
C784 C787 1.387 . S
H785 C781 0.950 . S
H786 C783 0.950 . S
C787 C778 1.390 . S
C787 H780 0.950 . S
C787 C784 1.387 . S
C788 C789 1.387 . S
C788 H792 0.950 . S
C788 C797 1.390 . S
C789 C788 1.387 . S
C789 C791 1.387 . S
H790 C797 0.950 . S
C791 C789 1.387 . S
C791 C793 1.390 . S
C791 H795 0.950 . S
H792 C788 0.950 . S
C793 C791 1.390 . S
C793 C794 1.387 . S
C793 H796 0.950 . S
C794 C793 1.387 . S
C794 C797 1.387 . S
H795 C791 0.950 . S
H796 C793 0.950 . S
C797 C788 1.390 . S
C797 H790 0.950 . S
C797 C794 1.387 . S
C798 C799 1.387 . S
C798 H802 0.950 . S
C798 C807 1.390 . S
C799 C798 1.387 . S
C799 C801 1.387 . S
H800 C807 0.950 . S
C801 C799 1.387 . S
C801 C803 1.390 . S
C801 H805 0.950 . S
H802 C798 0.950 . S
C803 C801 1.390 . S
C803 C804 1.387 . S
C803 H806 0.950 . S
C804 C803 1.387 . S
C804 C807 1.387 . S
H805 C801 0.950 . S
H806 C803 0.950 . S
C807 C798 1.390 . S
C807 H800 0.950 . S
C807 C804 1.387 . S
C808 C809 1.387 . S
C808 H812 0.950 . S
C808 C817 1.390 . S
C809 C808 1.387 . S
C809 C811 1.387 . S
H810 C817 0.950 . S
C811 C809 1.387 . S
C811 C813 1.390 . S
C811 H815 0.950 . S
H812 C808 0.950 . S
C813 C811 1.390 . S
C813 C814 1.387 . S
C813 H816 0.950 . S
C814 C813 1.387 . S
C814 C817 1.387 . S
H815 C811 0.950 . S
H816 C813 0.950 . S
C817 C808 1.390 . S
C817 H810 0.950 . S
C817 C814 1.387 . S
C818 C819 1.387 . S
C818 H822 0.950 . S
C818 C827 1.390 . S
C819 C818 1.387 . S
C819 C821 1.387 . S
H820 C827 0.950 . S
C821 C819 1.387 . S
C821 C823 1.390 . S
C821 H825 0.950 . S
H822 C818 0.950 . S
C823 C821 1.390 . S
C823 C824 1.387 . S
C823 H826 0.950 . S
C824 C823 1.387 . S
C824 C827 1.387 . S
H825 C821 0.950 . S
H826 C823 0.950 . S
C827 C818 1.390 . S
C827 H820 0.950 . S
C827 C824 1.387 . S
C828 C829 1.387 . S
C828 H832 0.950 . S
C828 C837 1.390 . S
C829 C828 1.387 . S
C829 C831 1.387 . S
H830 C837 0.950 . S
C831 C829 1.387 . S
C831 C833 1.390 . S
C831 H835 0.950 . S
H832 C828 0.950 . S
C833 C831 1.390 . S
C833 C834 1.387 . S
C833 H836 0.950 . S
C834 C833 1.387 . S
C834 C837 1.387 . S
H835 C831 0.950 . S
H836 C833 0.950 . S
C837 C828 1.390 . S
C837 H830 0.950 . S
C837 C834 1.387 . S
C838 C839 1.387 . S
C838 H842 0.950 . S
C838 C847 1.390 . S
C839 C838 1.387 . S
C839 C841 1.387 . S
H840 C847 0.950 . S
C841 C839 1.387 . S
C841 C843 1.390 . S
C841 H845 0.950 . S
H842 C838 0.950 . S
C843 C841 1.390 . S
C843 C844 1.387 . S
C843 H846 0.950 . S
C844 C843 1.387 . S
C844 C847 1.387 . S
H845 C841 0.950 . S
H846 C843 0.950 . S
C847 C838 1.390 . S
C847 H840 0.950 . S
C847 C844 1.387 . S
C848 C849 1.387 . S
C848 H852 0.950 . S
C848 C857 1.390 . S
C849 C848 1.387 . S
C849 C851 1.387 . S
H850 C857 0.950 . S
C851 C849 1.387 . S
C851 C853 1.390 . S
C851 H855 0.950 . S
H852 C848 0.950 . S
C853 C851 1.390 . S
C853 C854 1.387 . S
C853 H856 0.950 . S
C854 C853 1.387 . S
C854 C857 1.387 . S
H855 C851 0.950 . S
H856 C853 0.950 . S
C857 C848 1.390 . S
C857 H850 0.950 . S
C857 C854 1.387 . S
C858 C859 1.387 . S
C858 H862 0.950 . S
C858 C867 1.390 . S
C859 C858 1.387 . S
C859 C861 1.387 . S
H860 C867 0.950 . S
C861 C859 1.387 . S
C861 C863 1.390 . S
C861 H865 0.950 . S
H862 C858 0.950 . S
C863 C861 1.390 . S
C863 C864 1.387 . S
C863 H866 0.950 . S
C864 C863 1.387 . S
C864 C867 1.387 . S
H865 C861 0.950 . S
H866 C863 0.950 . S
C867 C858 1.390 . S
C867 H860 0.950 . S
C867 C864 1.387 . S
C868 C869 1.387 . S
C868 H872 0.950 . S
C868 C877 1.390 . S
C869 C868 1.387 . S
C869 C871 1.387 . S
H870 C877 0.950 . S
C871 C869 1.387 . S
C871 C873 1.390 . S
C871 H875 0.950 . S
H872 C868 0.950 . S
C873 C871 1.390 . S
C873 C874 1.387 . S
C873 H876 0.950 . S
C874 C873 1.387 . S
C874 C877 1.387 . S
H875 C871 0.950 . S
H876 C873 0.950 . S
C877 C868 1.390 . S
C877 H870 0.950 . S
C877 C874 1.387 . S
C878 C879 1.387 . S
C878 H882 0.950 . S
C878 C887 1.390 . S
C879 C878 1.387 . S
C879 C881 1.387 . S
H880 C887 0.950 . S
C881 C879 1.387 . S
C881 C883 1.390 . S
C881 H885 0.950 . S
H882 C878 0.950 . S
C883 C881 1.390 . S
C883 C884 1.387 . S
C883 H886 0.950 . S
C884 C883 1.387 . S
C884 C887 1.387 . S
H885 C881 0.950 . S
H886 C883 0.950 . S
C887 C878 1.390 . S
C887 H880 0.950 . S
C887 C884 1.387 . S
C888 C889 1.387 . S
C888 H892 0.950 . S
C888 C897 1.390 . S
C889 C888 1.387 . S
C889 C891 1.387 . S
H890 C897 0.950 . S
C891 C889 1.387 . S
C891 C893 1.390 . S
C891 H895 0.950 . S
H892 C888 0.950 . S
C893 C891 1.390 . S
C893 C894 1.387 . S
C893 H896 0.950 . S
C894 C893 1.387 . S
C894 C897 1.387 . S
H895 C891 0.950 . S
H896 C893 0.950 . S
C897 C888 1.390 . S
C897 H890 0.950 . S
C897 C894 1.387 . S
C898 C899 1.387 . S
C898 H902 0.950 . S
C898 C907 1.390 . S
C899 C898 1.387 . S
C899 C901 1.387 . S
H900 C907 0.950 . S
C901 C899 1.387 . S
C901 C903 1.390 . S
C901 H905 0.950 . S
H902 C898 0.950 . S
C903 C901 1.390 . S
C903 C904 1.387 . S
C903 H906 0.950 . S
C904 C903 1.387 . S
C904 C907 1.387 . S
H905 C901 0.950 . S
H906 C903 0.950 . S
C907 C898 1.390 . S
C907 H900 0.950 . S
C907 C904 1.387 . S
C908 C909 1.387 . S
C908 H912 0.950 . S
C908 C917 1.390 . S
C909 C908 1.387 . S
C909 C911 1.387 . S
H910 C917 0.950 . S
C911 C909 1.387 . S
C911 C913 1.390 . S
C911 H915 0.950 . S
H912 C908 0.950 . S
C913 C911 1.390 . S
C913 C914 1.387 . S
C913 H916 0.950 . S
C914 C913 1.387 . S
C914 C917 1.387 . S
H915 C911 0.950 . S
H916 C913 0.950 . S
C917 C908 1.390 . S
C917 H910 0.950 . S
C917 C914 1.387 . S
C918 C919 1.387 . S
C918 H922 0.950 . S
C918 C927 1.407 . S
C919 C918 1.387 . S
C919 C921 1.387 1_556 S
H920 C927 0.953 . S
C921 C919 1.387 1_554 S
C921 C923 1.390 . S
C921 H925 0.950 . S
H922 C918 0.950 . S
C923 C921 1.390 . S
C923 C924 1.387 . S
C923 H926 0.950 . S
C924 C923 1.387 . S
C924 C927 1.368 1_554 S
H925 C921 0.950 . S
H926 C923 0.950 . S
C927 C918 1.407 . S
C927 H920 0.953 . S
C927 C924 1.368 1_556 S
C928 C929 1.387 . S
C928 H932 0.950 . S
C928 C937 1.390 . S
C929 C928 1.387 . S
C929 C931 1.387 . S
H930 C937 0.950 . S
C931 C929 1.387 . S
C931 C933 1.390 . S
C931 H935 0.950 . S
H932 C928 0.950 . S
C933 C931 1.390 . S
C933 C934 1.387 . S
C933 H936 0.950 . S
C934 C933 1.387 . S
C934 C937 1.387 . S
H935 C931 0.950 . S
H936 C933 0.950 . S
C937 C928 1.390 . S
C937 H930 0.950 . S
C937 C934 1.387 . S
C938 C939 1.387 . S
C938 H942 0.950 . S
C938 C947 1.390 . S
C939 C938 1.387 . S
C939 C941 1.387 . S
H940 C947 0.950 . S
C941 C939 1.387 . S
C941 C943 1.390 . S
C941 H945 0.950 . S
H942 C938 0.950 . S
C943 C941 1.390 . S
C943 C944 1.387 . S
C943 H946 0.950 . S
C944 C943 1.387 . S
C944 C947 1.387 . S
H945 C941 0.950 . S
H946 C943 0.950 . S
C947 C938 1.390 . S
C947 H940 0.950 . S
C947 C944 1.387 . S
C948 C949 1.387 . S
C948 H952 0.950 . S
C948 C957 1.390 . S
C949 C948 1.387 . S
C949 C951 1.387 . S
H950 C957 0.950 . S
C951 C949 1.387 . S
C951 C953 1.390 . S
C951 H955 0.950 . S
H952 C948 0.950 . S
C953 C951 1.390 . S
C953 C954 1.387 . S
C953 H956 0.950 . S
C954 C953 1.387 . S
C954 C957 1.387 . S
H955 C951 0.950 . S
H956 C953 0.950 . S
C957 C948 1.390 . S
C957 H950 0.950 . S
C957 C954 1.387 . S
C958 C959 1.387 . S
C958 H962 0.950 . S
C958 C967 1.390 . S
C959 C958 1.387 . S
C959 C961 1.387 . S
H960 C967 0.950 . S
C961 C959 1.387 . S
C961 C963 1.390 . S
C961 H965 0.950 . S
H962 C958 0.950 . S
C963 C961 1.390 . S
C963 C964 1.387 . S
C963 H966 0.950 . S
C964 C963 1.387 . S
C964 C967 1.387 . S
H965 C961 0.950 . S
H966 C963 0.950 . S
C967 C958 1.390 . S
C967 H960 0.950 . S
C967 C964 1.387 . S
C968 C969 1.387 . S
C968 H972 0.950 . S
C968 C977 1.390 . S
C969 C968 1.387 . S
C969 C971 1.387 . S
H970 C977 0.950 . S
C971 C969 1.387 . S
C971 C973 1.390 . S
C971 H975 0.950 . S
H972 C968 0.950 . S
C973 C971 1.390 . S
C973 C974 1.387 . S
C973 H976 0.950 . S
C974 C973 1.387 . S
C974 C977 1.387 . S
H975 C971 0.950 . S
H976 C973 0.950 . S
C977 C968 1.390 . S
C977 H970 0.950 . S
C977 C974 1.387 . S
C978 C979 1.387 . S
C978 H982 0.950 . S
C978 C987 1.390 . S
C979 C978 1.387 . S
C979 C981 1.387 . S
H980 C987 0.950 . S
C981 C979 1.387 . S
C981 C983 1.390 . S
C981 H985 0.950 . S
H982 C978 0.950 . S
C983 C981 1.390 . S
C983 C984 1.387 . S
C983 H986 0.950 . S
C984 C983 1.387 . S
C984 C987 1.387 . S
H985 C981 0.950 . S
H986 C983 0.950 . S
C987 C978 1.390 . S
C987 H980 0.950 . S
C987 C984 1.387 . S
C988 C989 1.387 1_556 S
C988 H992 0.950 . S
C988 C997 1.390 . S
C989 C988 1.387 1_554 S
C989 C991 1.387 1_554 S
H990 C997 0.950 . S
C991 C989 1.387 1_556 S
C991 C993 1.390 . S
C991 H995 0.950 1_556 S
H992 C988 0.950 . S
C993 C991 1.390 . S
C993 C994 1.387 . S
C993 H996 0.950 . S
C994 C993 1.387 . S
C994 C997 1.387 . S
H995 C991 0.950 1_554 S
H996 C993 0.950 . S
C997 C988 1.390 . S
C997 H990 0.950 . S
C997 C994 1.387 . S
C998 C999 1.387 . S
C998 H1002 0.950 . S
C998 C1007 1.390 . S
C999 C998 1.387 . S
C999 C1001 1.387 . S
H1000 C1007 0.950 . S
C1001 C999 1.387 . S
C1001 C1003 1.390 . S
C1001 H1005 0.950 . S
H1002 C998 0.950 . S
C1003 C1001 1.390 . S
C1003 C1004 1.387 . S
C1003 H1006 0.950 . S
C1004 C1003 1.387 . S
C1004 C1007 1.387 . S
H1005 C1001 0.950 . S
H1006 C1003 0.950 . S
C1007 C998 1.390 . S
C1007 H1000 0.950 . S
C1007 C1004 1.387 . S
C774 C761 2.096 . S
C769 C1 1.624 . S
C779 C169 1.034 . S
C784 C690 1.526 . S
C789 C283 1.932 . S
C794 C704 2.166 . S
C799 C397 0.917 . S
C804 C718 1.424 . S
C814 C732 1.981 . S
C809 C457 1.542 . S
C819 C571 1.287 . S
C824 C747 1.371 . S
C829 C115 1.342 . S
C834 C705 1.459 . S
C839 C229 1.526 . S
C844 C719 1.984 . S
C849 C343 1.317 . S
C854 C733 1.373 . S
C864 C746 2.050 . S
C859 C511 1.817 . S
C874 C760 1.514 . S
C869 C625 0.996 . S
C884 C691 2.176 . S
C879 C55 1.943 . S
C889 C29 1.115 . S
C894 C707 1.516 . S
C899 C125 1.150 . S
C904 C721 1.957 . S
C914 C735 1.504 . S
C909 C239 1.006 . S
C919 C353 1.128 . S
C924 C748 1.917 . S
C934 C762 1.483 . S
C929 C485 1.059 . S
C944 C693 1.930 . S
C939 C599 1.842 . S
C954 C763 1.910 . S
C949 C143 1.833 . S
C959 C257 1.104 . S
C964 C692 1.528 . S
C974 C706 1.883 . S
C969 C371 1.801 . S
C979 C467 1.028 . S
C984 C720 1.507 . S
C989 C581 1.101 . S
C994 C734 1.908 . S
C999 C11 1.033 . S
C1004 C749 1.551 . S
