# Generated by pormake.
# Topology llk, (3,12)-cn, num edge types: 1
# Building blocks:
#     Node 0, Type 0, BuildingBlock: ESEHIV_clean_linker_0, # of connection points: 3
#     Node 1, Type 0, BuildingBlock: ESEHIV_clean_linker_0, # of connection points: 3
#     Node 2, Type 0, BuildingBlock: ESEHIV_clean_linker_0, # of connection points: 3
#     Node 3, Type 0, BuildingBlock: ESEHIV_clean_linker_0, # of connection points: 3
#     Node 4, Type 0, BuildingBlock: ESEHIV_clean_linker_0, # of connection points: 3
#     Node 5, Type 0, BuildingBlock: ESEHIV_clean_linker_0, # of connection points: 3
#     Node 6, Type 0, BuildingBlock: ESEHIV_clean_linker_0, # of connection points: 3
#     Node 7, Type 0, BuildingBlock: ESEHIV_clean_linker_0, # of connection points: 3
#     Node 8, Type 0, BuildingBlock: ESEHIV_clean_linker_0, # of connection points: 3
#     Node 9, Type 0, BuildingBlock: ESEHIV_clean_linker_0, # of connection points: 3
#     Node 10, Type 0, BuildingBlock: ESEHIV_clean_linker_0, # of connection points: 3
#     Node 11, Type 0, BuildingBlock: ESEHIV_clean_linker_0, # of connection points: 3
#     Node 12, Type 0, BuildingBlock: ESEHIV_clean_linker_0, # of connection points: 3
#     Node 13, Type 0, BuildingBlock: ESEHIV_clean_linker_0, # of connection points: 3
#     Node 14, Type 0, BuildingBlock: ESEHIV_clean_linker_0, # of connection points: 3
#     Node 15, Type 0, BuildingBlock: ESEHIV_clean_linker_0, # of connection points: 3
#     Node 16, Type 0, BuildingBlock: ESEHIV_clean_linker_0, # of connection points: 3
#     Node 17, Type 0, BuildingBlock: ESEHIV_clean_linker_0, # of connection points: 3
#     Node 18, Type 0, BuildingBlock: ESEHIV_clean_linker_0, # of connection points: 3
#     Node 19, Type 0, BuildingBlock: ESEHIV_clean_linker_0, # of connection points: 3
#     Node 20, Type 0, BuildingBlock: ESEHIV_clean_linker_0, # of connection points: 3
#     Node 21, Type 0, BuildingBlock: ESEHIV_clean_linker_0, # of connection points: 3
#     Node 22, Type 0, BuildingBlock: ESEHIV_clean_linker_0, # of connection points: 3
#     Node 23, Type 0, BuildingBlock: ESEHIV_clean_linker_0, # of connection points: 3
#     Node 24, Type 1, BuildingBlock: EZIPEK_clean_sbu_0, # of connection points: 12
#     Node 25, Type 1, BuildingBlock: EZIPEK_clean_sbu_0, # of connection points: 12
#     Node 26, Type 1, BuildingBlock: EZIPEK_clean_sbu_0, # of connection points: 12
#     Node 27, Type 1, BuildingBlock: EZIPEK_clean_sbu_0, # of connection points: 12
#     Node 28, Type 1, BuildingBlock: EZIPEK_clean_sbu_0, # of connection points: 12
#     Node 29, Type 1, BuildingBlock: EZIPEK_clean_sbu_0, # of connection points: 12
#     Edge 30, Type (0, 1), BuildingBlock: UVAHIK_clean_linker_0, # of connection points: 2
#     Edge 31, Type (0, 1), BuildingBlock: UVAHIK_clean_linker_0, # of connection points: 2
#     Edge 32, Type (0, 1), BuildingBlock: UVAHIK_clean_linker_0, # of connection points: 2
#     Edge 33, Type (0, 1), BuildingBlock: UVAHIK_clean_linker_0, # of connection points: 2
#     Edge 34, Type (0, 1), BuildingBlock: UVAHIK_clean_linker_0, # of connection points: 2
#     Edge 35, Type (0, 1), BuildingBlock: UVAHIK_clean_linker_0, # of connection points: 2
#     Edge 36, Type (0, 1), BuildingBlock: UVAHIK_clean_linker_0, # of connection points: 2
#     Edge 37, Type (0, 1), BuildingBlock: UVAHIK_clean_linker_0, # of connection points: 2
#     Edge 38, Type (0, 1), BuildingBlock: UVAHIK_clean_linker_0, # of connection points: 2
#     Edge 39, Type (0, 1), BuildingBlock: UVAHIK_clean_linker_0, # of connection points: 2
#     Edge 40, Type (0, 1), BuildingBlock: UVAHIK_clean_linker_0, # of connection points: 2
#     Edge 41, Type (0, 1), BuildingBlock: UVAHIK_clean_linker_0, # of connection points: 2
#     Edge 42, Type (0, 1), BuildingBlock: UVAHIK_clean_linker_0, # of connection points: 2
#     Edge 43, Type (0, 1), BuildingBlock: UVAHIK_clean_linker_0, # of connection points: 2
#     Edge 44, Type (0, 1), BuildingBlock: UVAHIK_clean_linker_0, # of connection points: 2
#     Edge 45, Type (0, 1), BuildingBlock: UVAHIK_clean_linker_0, # of connection points: 2
#     Edge 46, Type (0, 1), BuildingBlock: UVAHIK_clean_linker_0, # of connection points: 2
#     Edge 47, Type (0, 1), BuildingBlock: UVAHIK_clean_linker_0, # of connection points: 2
#     Edge 48, Type (0, 1), BuildingBlock: UVAHIK_clean_linker_0, # of connection points: 2
#     Edge 49, Type (0, 1), BuildingBlock: UVAHIK_clean_linker_0, # of connection points: 2
#     Edge 50, Type (0, 1), BuildingBlock: UVAHIK_clean_linker_0, # of connection points: 2
#     Edge 51, Type (0, 1), BuildingBlock: UVAHIK_clean_linker_0, # of connection points: 2
#     Edge 52, Type (0, 1), BuildingBlock: UVAHIK_clean_linker_0, # of connection points: 2
#     Edge 53, Type (0, 1), BuildingBlock: UVAHIK_clean_linker_0, # of connection points: 2
#     Edge 54, Type (0, 1), BuildingBlock: UVAHIK_clean_linker_0, # of connection points: 2
#     Edge 55, Type (0, 1), BuildingBlock: UVAHIK_clean_linker_0, # of connection points: 2
#     Edge 56, Type (0, 1), BuildingBlock: UVAHIK_clean_linker_0, # of connection points: 2
#     Edge 57, Type (0, 1), BuildingBlock: UVAHIK_clean_linker_0, # of connection points: 2
#     Edge 58, Type (0, 1), BuildingBlock: UVAHIK_clean_linker_0, # of connection points: 2
#     Edge 59, Type (0, 1), BuildingBlock: UVAHIK_clean_linker_0, # of connection points: 2
#     Edge 60, Type (0, 1), BuildingBlock: UVAHIK_clean_linker_0, # of connection points: 2
#     Edge 61, Type (0, 1), BuildingBlock: UVAHIK_clean_linker_0, # of connection points: 2
#     Edge 62, Type (0, 1), BuildingBlock: UVAHIK_clean_linker_0, # of connection points: 2
#     Edge 63, Type (0, 1), BuildingBlock: UVAHIK_clean_linker_0, # of connection points: 2
#     Edge 64, Type (0, 1), BuildingBlock: UVAHIK_clean_linker_0, # of connection points: 2
#     Edge 65, Type (0, 1), BuildingBlock: UVAHIK_clean_linker_0, # of connection points: 2
#     Edge 66, Type (0, 1), BuildingBlock: UVAHIK_clean_linker_0, # of connection points: 2
#     Edge 67, Type (0, 1), BuildingBlock: UVAHIK_clean_linker_0, # of connection points: 2
#     Edge 68, Type (0, 1), BuildingBlock: UVAHIK_clean_linker_0, # of connection points: 2
#     Edge 69, Type (0, 1), BuildingBlock: UVAHIK_clean_linker_0, # of connection points: 2
#     Edge 70, Type (0, 1), BuildingBlock: UVAHIK_clean_linker_0, # of connection points: 2
#     Edge 71, Type (0, 1), BuildingBlock: UVAHIK_clean_linker_0, # of connection points: 2
#     Edge 72, Type (0, 1), BuildingBlock: UVAHIK_clean_linker_0, # of connection points: 2
#     Edge 73, Type (0, 1), BuildingBlock: UVAHIK_clean_linker_0, # of connection points: 2
#     Edge 74, Type (0, 1), BuildingBlock: UVAHIK_clean_linker_0, # of connection points: 2
#     Edge 75, Type (0, 1), BuildingBlock: UVAHIK_clean_linker_0, # of connection points: 2
#     Edge 76, Type (0, 1), BuildingBlock: UVAHIK_clean_linker_0, # of connection points: 2
#     Edge 77, Type (0, 1), BuildingBlock: UVAHIK_clean_linker_0, # of connection points: 2
#     Edge 78, Type (0, 1), BuildingBlock: UVAHIK_clean_linker_0, # of connection points: 2
#     Edge 79, Type (0, 1), BuildingBlock: UVAHIK_clean_linker_0, # of connection points: 2
#     Edge 80, Type (0, 1), BuildingBlock: UVAHIK_clean_linker_0, # of connection points: 2
#     Edge 81, Type (0, 1), BuildingBlock: UVAHIK_clean_linker_0, # of connection points: 2
#     Edge 82, Type (0, 1), BuildingBlock: UVAHIK_clean_linker_0, # of connection points: 2
#     Edge 83, Type (0, 1), BuildingBlock: UVAHIK_clean_linker_0, # of connection points: 2
#     Edge 84, Type (0, 1), BuildingBlock: UVAHIK_clean_linker_0, # of connection points: 2
#     Edge 85, Type (0, 1), BuildingBlock: UVAHIK_clean_linker_0, # of connection points: 2
#     Edge 86, Type (0, 1), BuildingBlock: UVAHIK_clean_linker_0, # of connection points: 2
#     Edge 87, Type (0, 1), BuildingBlock: UVAHIK_clean_linker_0, # of connection points: 2
#     Edge 88, Type (0, 1), BuildingBlock: UVAHIK_clean_linker_0, # of connection points: 2
#     Edge 89, Type (0, 1), BuildingBlock: UVAHIK_clean_linker_0, # of connection points: 2
#     Edge 90, Type (0, 1), BuildingBlock: UVAHIK_clean_linker_0, # of connection points: 2
#     Edge 91, Type (0, 1), BuildingBlock: UVAHIK_clean_linker_0, # of connection points: 2
#     Edge 92, Type (0, 1), BuildingBlock: UVAHIK_clean_linker_0, # of connection points: 2
#     Edge 93, Type (0, 1), BuildingBlock: UVAHIK_clean_linker_0, # of connection points: 2
#     Edge 94, Type (0, 1), BuildingBlock: UVAHIK_clean_linker_0, # of connection points: 2
#     Edge 95, Type (0, 1), BuildingBlock: UVAHIK_clean_linker_0, # of connection points: 2
#     Edge 96, Type (0, 1), BuildingBlock: UVAHIK_clean_linker_0, # of connection points: 2
#     Edge 97, Type (0, 1), BuildingBlock: UVAHIK_clean_linker_0, # of connection points: 2
#     Edge 98, Type (0, 1), BuildingBlock: UVAHIK_clean_linker_0, # of connection points: 2
#     Edge 99, Type (0, 1), BuildingBlock: UVAHIK_clean_linker_0, # of connection points: 2
#     Edge 100, Type (0, 1), BuildingBlock: UVAHIK_clean_linker_0, # of connection points: 2
#     Edge 101, Type (0, 1), BuildingBlock: UVAHIK_clean_linker_0, # of connection points: 2
# Relax obj value: 0.107
# Max RMSD: 0.160
# Mean RMSD: 0.134
data_MOF--net-llk--node1-EZIPEK_clean_sbu_0--node2-ESEHIV_clean_linker_0--edge1-UVAHIK_clean_linker_0
_symmetry_space_group_name_H-M    P1
_symmetry_Int_Tables_number       1
_symmetry_cell_setting            triclinic
loop_
_symmetry_equiv_pos_as_xyz
'x, y, z'
_cell_length_a     56.756909
_cell_length_b     56.673479
_cell_length_c     56.687272
_cell_angle_alpha  90.000594
_cell_angle_beta   90.004892
_cell_angle_gamma 89.996434
loop_
_atom_site_label
_atom_site_type_symbol
_atom_site_fract_x
_atom_site_fract_y
_atom_site_fract_z
_atom_type_partial_charge
H0 H 0.00392 0.23857 0.29237 0.0
H1 H 0.00719 0.29133 0.23824 0.0
H2 H 1.00104 0.21795 0.21923 0.0
C3 C 0.00425 0.24331 0.27383 0.0
C4 C 0.00277 0.22548 0.25678 0.0
C5 C 0.00573 0.26703 0.26733 0.0
C6 C 0.00572 0.27296 0.24344 0.0
C7 C 0.00386 0.25559 0.22598 0.0
C8 C 0.00241 0.23156 0.23257 0.0
H9 H 0.71389 1.00242 0.23799 0.0
H10 H 0.76691 0.0062 0.29173 0.0
H11 H 0.78733 1.00233 0.21858 0.0
C12 C 0.73232 0.00314 0.24304 0.0
C13 C 0.74966 0.00261 0.2255 0.0
C14 C 0.73835 0.0044 0.26687 0.0
C15 C 0.7621 0.00493 0.27324 0.0
C16 C 0.77988 0.00399 0.25616 0.0
C17 C 0.77374 0.00291 0.23198 0.0
H18 H 0.01955 0.76957 0.2936 0.0
H19 H 0.01402 0.71151 0.24532 0.0
H20 H 0.98582 0.77942 0.22624 0.0
C21 C 0.01435 0.76258 0.27655 0.0
C22 C 0.00244 0.77729 0.26068 0.0
C23 C 0.01823 0.73877 0.27145 0.0
C24 C 0.01155 0.73006 0.24935 0.0
C25 C 1.0003 0.74454 0.23274 0.0
C26 C 0.99544 0.76834 0.23848 0.0
H27 H 0.23792 1.00169 0.29244 0.0
H28 H 0.291 0.00596 0.23881 0.0
H29 H 0.21782 1.00069 0.21909 0.0
C30 C 0.24277 1.0024 0.27393 0.0
C31 C 0.22508 1.00146 0.25675 0.0
C32 C 0.26649 0.00394 0.26765 0.0
C33 C 0.2726 0.00447 0.24381 0.0
C34 C 0.25539 0.00311 0.22618 0.0
C35 C 0.23132 1.00166 0.23256 0.0
H36 H 0.99874 0.76764 0.71428 0.0
H37 H 0.00256 0.71337 0.76687 0.0
H38 H 0.00513 0.7865 0.78764 0.0
C39 C 1.00036 0.7624 0.73262 0.0
C40 C 1.00222 0.77982 0.75002 0.0
C41 C 1.00048 0.73848 0.73848 0.0
C42 C 1.00216 0.73193 0.76217 0.0
C43 C 0.00364 0.74895 0.78002 0.0
C44 C 0.0038 0.77317 0.77401 0.0
H45 H 0.23969 0.00528 0.71344 0.0
H46 H 0.29258 1.00037 0.76723 0.0
H47 H 0.21922 0.00365 0.78666 0.0
C48 C 0.24447 0.00416 0.73195 0.0
C49 C 0.22668 0.00428 0.74905 0.0
C50 C 0.26819 0.00278 0.73831 0.0
C51 C 0.27419 1.00172 0.76217 0.0
C52 C 0.25687 1.00223 0.77973 0.0
C53 C 0.23281 0.00341 0.77325 0.0
H54 H 0.0055 0.29332 0.76591 0.0
H55 H 0.0091 0.2392 0.71319 0.0
H56 H 0.0026 0.22016 0.78653 0.0
C57 C 0.00595 0.27477 0.76119 0.0
C58 C 0.00444 0.25773 0.77901 0.0
C59 C 0.00748 0.26827 0.73749 0.0
C60 C 0.00762 0.24437 0.73156 0.0
C61 C 0.00571 0.2269 0.74891 0.0
C62 C 0.0041 0.2335 0.77294 0.0
H63 H 0.71247 0.00514 0.76665 0.0
H64 H 0.76632 1.00072 0.71381 0.0
H65 H 0.78558 0.0041 0.7873 0.0
C66 C 0.73097 0.00417 0.76191 0.0
C67 C 0.74802 0.00442 0.77976 0.0
C68 C 0.73739 0.00289 0.73818 0.0
C69 C 0.76123 1.00201 0.73222 0.0
C70 C 0.77873 0.00263 0.7496 0.0
C71 C 0.77221 0.00375 0.77368 0.0
H72 H 0.23896 0.29221 0.00641 0.0
H73 H 0.29157 0.23807 1.00223 0.0
H74 H 0.21801 0.21915 0.00331 0.0
C75 C 0.24363 0.27368 0.00518 0.0
C76 C 0.22573 0.25669 0.00461 0.0
C77 C 0.26733 0.26715 0.00438 0.0
C78 C 0.27318 0.24326 0.00316 0.0
C79 C 0.25572 0.22583 0.00297 0.0
C80 C 0.23169 0.23247 0.00359 0.0
H81 H 0.29204 0.76618 0.00488 0.0
H82 H 0.23817 0.71331 1.00089 0.0
H83 H 0.21891 0.7868 0.00474 0.0
C84 C 0.27353 0.76143 0.0041 0.0
C85 C 0.25647 0.77927 0.0046 0.0
C86 C 0.26711 0.7377 0.00281 0.0
C87 C 0.24327 0.73172 1.00219 0.0
C88 C 0.22576 0.74909 0.00306 0.0
C89 C 0.23228 0.77318 0.0042 0.0
H90 H 0.71367 0.23894 0.00612 0.0
H91 H 0.76729 0.29202 1.00158 0.0
H92 H 0.78669 0.21847 1.00169 0.0
C93 C 0.73212 0.24375 0.0047 0.0
C94 C 0.74918 0.22594 0.0037 0.0
C95 C 0.73846 0.26753 0.00394 0.0
C96 C 0.76225 0.27357 1.00247 0.0
C97 C 0.77977 0.2562 1.00188 0.0
C98 C 0.77331 0.23208 1.00236 0.0
H99 H 0.71289 0.76789 1.00118 0.0
H100 H 0.76575 0.71408 0.00629 0.0
H101 H 0.78629 0.78727 0.00377 0.0
C102 C 0.73128 0.76282 1.0025 0.0
C103 C 0.74863 0.78037 1.00271 0.0
C104 C 0.73727 0.73896 0.00373 0.0
C105 C 0.76098 0.73258 0.00504 0.0
C106 C 0.77879 0.74967 0.00487 0.0
C107 C 0.77269 0.77387 0.00379 0.0
H108 H 0.49704 0.73875 0.79225 0.0
H109 H 0.50185 0.79285 0.73955 0.0
H110 H 0.50328 0.71967 0.71891 0.0
C111 C 0.49875 0.74392 0.7739 0.0
C112 C 0.50036 0.72643 0.75652 0.0
C113 C 0.49928 0.76784 0.76798 0.0
C114 C 0.50111 0.77431 0.74428 0.0
C115 C 0.50235 0.75725 0.72645 0.0
C116 C 0.50212 0.73303 0.73252 0.0
H117 H 0.21239 0.50121 0.7393 0.0
H118 H 0.26592 0.50466 0.79256 0.0
H119 H 0.28563 0.50234 0.71915 0.0
C120 C 0.23086 0.50205 0.74418 0.0
C121 C 0.24802 0.50204 0.72645 0.0
C122 C 0.23713 0.50295 0.76797 0.0
C123 C 0.26093 0.50366 0.7741 0.0
C124 C 0.27855 0.50323 0.75683 0.0
C125 C 0.27217 0.50252 0.7327 0.0
H126 H 0.48159 0.20989 0.73806 0.0
H127 H 0.48721 0.25704 0.79706 0.0
H128 H 0.51967 0.27522 0.73091 0.0
C129 C 0.48734 0.22654 0.74553 0.0
C130 C 0.50085 0.24189 0.73166 0.0
C131 C 0.48272 0.23152 0.76925 0.0
C132 C 0.49025 0.25311 0.77859 0.0
C133 C 0.5031 0.26921 0.7649 0.0
C134 C 0.50876 0.26348 0.7413 0.0
H135 H 0.73929 0.50129 0.79194 0.0
H136 H 0.79246 0.50613 0.73844 0.0
H137 H 0.71924 0.50197 0.7186 0.0
C138 C 0.74417 0.50228 0.77346 0.0
C139 C 0.72648 0.50183 0.75625 0.0
C140 C 0.76791 0.50379 0.76723 0.0
C141 C 0.77405 0.50467 0.7434 0.0
C142 C 0.75683 0.50383 0.72573 0.0
C143 C 0.73274 0.50249 0.73209 0.0
H144 H 0.48543 0.26982 0.2145 0.0
H145 H 0.49575 0.21306 0.2634 0.0
H146 H 0.51138 0.28443 0.28446 0.0
C147 C 0.49036 0.26366 0.23194 0.0
C148 C 0.49828 0.27998 0.24873 0.0
C149 C 0.48964 0.23955 0.23694 0.0
C150 C 0.49595 0.23179 0.25946 0.0
C151 C 0.50354 0.24769 0.27683 0.0
C152 C 0.50494 0.27203 0.27143 0.0
H153 H 0.73798 0.50398 0.21408 0.0
H154 H 0.7909 0.49947 0.26785 0.0
H155 H 0.71769 0.50494 0.28737 0.0
C156 C 0.74278 0.50322 0.2326 0.0
C157 C 0.72506 0.5042 0.24974 0.0
C158 C 0.76648 0.5016 0.23895 0.0
C159 C 0.77252 0.50101 0.2628 0.0
C160 C 0.75527 0.5024 0.28038 0.0
C161 C 0.73122 0.50394 0.27393 0.0
H162 H 0.51726 0.79639 0.25748 0.0
H163 H 0.52278 0.73742 0.21028 0.0
H164 H 0.48511 0.7301 0.27583 0.0
C165 C 0.51424 0.7779 0.25356 0.0
C166 C 0.50154 0.76416 0.26975 0.0
C167 C 0.52164 0.76859 0.23192 0.0
C168 C 0.51708 0.74486 0.22697 0.0
C169 C 0.5037 0.73093 0.24237 0.0
C170 C 0.4959 0.74054 0.26402 0.0
H171 H 0.21395 0.50391 0.26732 0.0
H172 H 0.26703 0.49973 0.21367 0.0
H173 H 0.28734 0.50296 0.28689 0.0
C174 C 0.23238 0.50298 0.2623 0.0
C175 C 0.24969 0.5032 0.27989 0.0
C176 C 0.23845 0.50176 0.23847 0.0
C177 C 0.2622 0.50095 0.23216 0.0
C178 C 0.27995 0.50158 0.24929 0.0
C179 C 0.27378 0.50262 0.27346 0.0
H180 H 0.73765 0.79188 0.50585 0.0
H181 H 0.79119 0.73867 0.50183 0.0
H182 H 0.71793 0.71859 0.5009 0.0
C183 C 0.74264 0.77345 0.50445 0.0
C184 C 0.72503 0.75621 0.50317 0.0
C185 C 0.76645 0.76731 0.50396 0.0
C186 C 0.77271 0.74355 0.50252 0.0
C187 C 0.75553 0.72585 0.50164 0.0
C188 C 0.73139 0.7321 0.50181 0.0
H189 H 0.79205 0.26746 0.5045 0.0
H190 H 0.73865 0.21414 0.5001 0.0
H191 H 0.7188 0.28753 0.50251 0.0
C192 C 0.77359 0.26256 0.50341 0.0
C193 C 0.75641 0.28028 0.5033 0.0
C194 C 0.76737 0.23876 0.50229 0.0
C195 C 0.74359 0.2326 0.50126 0.0
C196 C 0.72594 0.24985 0.50154 0.0
C197 C 0.73228 0.274 0.50246 0.0
H198 H 0.21368 0.73892 0.50483 0.0
H199 H 0.26685 0.79245 0.50019 0.0
H200 H 0.28695 0.71912 0.502 0.0
C201 C 0.2321 0.7439 0.50359 0.0
C202 C 0.24935 0.72625 0.50321 0.0
C203 C 0.23822 0.76773 0.50252 0.0
C204 C 0.26197 0.77397 0.5013 0.0
C205 C 0.27967 0.75676 0.50132 0.0
C206 C 0.27343 0.7326 0.50216 0.0
H207 H 0.2127 0.26732 0.49979 0.0
H208 H 0.26567 0.21358 0.50439 0.0
H209 H 0.28598 0.28688 0.50418 0.0
C210 C 0.23109 0.26228 0.50122 0.0
C211 C 0.24837 0.27988 0.50219 0.0
C212 C 0.23714 0.23843 0.50199 0.0
C213 C 0.26086 0.23209 0.50348 0.0
C214 C 0.2786 0.24924 0.50406 0.0
C215 C 0.27243 0.27344 0.50354 0.0
C216 C 1.00186 0.94674 0.56228 0.0
C217 C 0.00237 0.94489 0.44672 0.0
C218 C 1.00118 0.05999 0.56069 0.0
C219 C 1.00111 0.05837 0.44487 0.0
C220 C 0.94503 0.05969 0.50246 0.0
C221 C 0.94496 0.94543 0.50465 0.0
C222 C 0.05918 0.05969 0.50275 0.0
C223 C 0.05907 0.94537 0.50404 0.0
C224 C 0.05875 1.0025 0.44557 0.0
C225 C 0.94559 1.00097 0.44549 0.0
C226 C 0.05873 0.00287 0.56144 0.0
C227 C 0.94549 0.00379 0.5614 0.0
Eu228 Eu 1.002 0.95743 0.50427 0.0
O229 O 0.98092 0.98106 0.48323 0.0
O230 O 0.02323 0.9817 0.5244 0.0
Eu231 Eu 0.95694 1.00254 0.50346 0.0
Eu232 Eu 0.04723 1.00254 0.50351 0.0
O233 O 0.98084 0.98171 0.52445 0.0
O234 O 0.02325 0.98103 0.48331 0.0
Eu235 Eu 1.00209 0.00318 0.54715 0.0
Eu236 Eu 1.00216 1.00181 0.45983 0.0
O237 O 0.98098 0.02399 0.52369 0.0
O238 O 0.98105 0.02335 0.48268 0.0
O239 O 0.02323 0.02343 0.48265 0.0
O240 O 0.02332 0.02409 0.52384 0.0
Eu241 Eu 1.00211 0.04774 0.50291 0.0
O242 O 0.00229 0.93839 0.54013 0.0
O243 O 1.00094 0.93735 0.46909 0.0
O244 O 1.00143 0.06776 0.53832 0.0
O245 O 1.00195 0.06669 0.46702 0.0
O246 O 0.93768 0.03735 0.50322 0.0
O247 O 0.93763 0.96778 0.50366 0.0
O248 O 0.06652 0.03732 0.50266 0.0
O249 O 0.06644 0.96772 0.50424 0.0
O250 O 0.0361 0.0026 0.4395 0.0
O251 O 0.96825 1.00049 0.43947 0.0
O252 O 0.03607 0.00305 0.56753 0.0
O253 O 0.96814 0.00386 0.56748 0.0
O254 O 0.03686 0.06705 0.50307 0.0
O255 O 0.96737 0.06703 0.50203 0.0
O256 O 0.03673 0.93804 0.50375 0.0
O257 O 0.96729 0.9381 0.50533 0.0
O258 O 0.00356 0.96738 0.44 0.0
O259 O 1.00096 0.03561 0.43903 0.0
O260 O 1.00164 0.9695 0.56804 0.0
O261 O 1.00165 0.03741 0.56708 0.0
O262 O 0.93745 0.0031 0.53913 0.0
O263 O 0.93752 1.00208 0.46774 0.0
O264 O 0.06674 0.0029 0.53916 0.0
O265 O 0.06677 1.00214 0.46785 0.0
C266 C 0.50816 0.94626 0.06087 0.0
C267 C 0.49965 0.0604 0.0615 0.0
C268 C 0.50189 0.9466 0.9465 0.0
C269 C 0.49673 0.06101 0.94716 0.0
C270 C 0.55962 0.00379 0.94671 0.0
C271 C 0.56059 0.00535 0.05995 0.0
C272 C 0.44392 0.00368 0.94787 0.0
C273 C 0.44498 1.00073 0.06113 0.0
C274 C 0.44373 0.0593 0.00554 0.0
C275 C 0.5594 0.061 1.00225 0.0
C276 C 0.44512 0.946 0.00365 0.0
C277 C 0.56086 0.94773 0.00359 0.0
Eu278 Eu 0.50266 0.00332 0.04918 0.0
O279 O 0.52274 0.02509 0.02519 0.0
O280 O 0.48206 0.98158 0.02556 0.0
Eu281 Eu 0.54566 0.00424 0.00344 0.0
Eu282 Eu 0.45884 0.00279 0.00444 0.0
O283 O 0.52294 0.9828 0.02453 0.0
O284 O 0.48182 0.02429 0.02531 0.0
Eu285 Eu 0.50283 0.9582 0.0038 0.0
Eu286 Eu 0.50173 0.04886 0.00418 0.0
O287 O 0.52273 0.98269 0.98245 0.0
O288 O 0.52243 0.02546 0.98233 0.0
O289 O 0.48159 0.02428 0.98335 0.0
O290 O 0.48196 0.98214 0.98283 0.0
Eu291 Eu 0.50188 0.00381 0.95866 0.0
O292 O 0.50708 0.9686 0.06825 0.0
O293 O 0.49992 0.03796 0.06865 0.0
O294 O 0.50134 0.96901 0.93927 0.0
O295 O 0.49879 0.03876 0.93962 0.0
O296 O 0.56579 0.00357 0.96935 0.0
O297 O 0.56639 0.00499 0.0372 0.0
O298 O 0.43808 0.00366 0.97062 0.0
O299 O 0.43875 1.0015 0.03852 0.0
O300 O 0.46583 0.06771 0.00507 0.0
O301 O 0.53709 0.06888 0.00296 0.0
O302 O 0.46745 0.93817 0.00431 0.0
O303 O 0.53875 0.93934 0.00304 0.0
O304 O 0.46607 0.00337 0.9396 0.0
O305 O 0.53733 0.0043 0.93879 0.0
O306 O 0.46727 1.00109 0.06904 0.0
O307 O 0.53844 0.00506 0.06827 0.0
O308 O 0.50095 0.06792 0.0392 0.0
O309 O 0.49772 0.06822 0.96956 0.0
O310 O 0.50607 0.93886 0.03859 0.0
O311 O 0.50275 0.93913 0.96882 0.0
O312 O 0.56657 0.97052 0.00401 0.0
O313 O 0.56564 0.03837 1.00241 0.0
O314 O 0.43888 0.96863 0.00339 0.0
O315 O 0.438 0.03652 0.00546 0.0
C316 C 0.00258 0.44384 0.0594 0.0
C317 C 1.00123 0.44607 0.94624 0.0
C318 C 1.0015 0.5594 0.06204 0.0
C319 C 1.00223 0.56189 0.94844 0.0
C320 C 0.94556 0.56097 0.00419 0.0
C321 C 0.94566 0.44499 0.00336 0.0
C322 C 0.0588 0.56094 0.00547 0.0
C323 C 0.05879 0.44511 1.00266 0.0
C324 C 0.05947 0.50399 0.94703 0.0
C325 C 0.94534 0.50409 0.94654 0.0
C326 C 0.05891 0.50227 0.06132 0.0
C327 C 0.94476 0.50166 0.06076 0.0
Eu328 Eu 1.0022 0.4594 0.00308 0.0
O329 O 0.98107 0.48285 0.98227 0.0
O330 O 0.02327 0.482 0.02481 0.0
Eu331 Eu 0.957 0.50297 0.00373 0.0
Eu332 Eu 0.04728 0.503 0.00411 0.0
O333 O 0.98083 0.48194 0.02461 0.0
O334 O 0.0235 0.4828 0.98237 0.0
Eu335 Eu 1.00187 0.50192 0.04908 0.0
Eu336 Eu 0.00236 0.50379 0.95879 0.0
O337 O 0.98087 0.52313 0.02546 0.0
O338 O 0.98124 0.5239 0.98322 0.0
O339 O 0.02335 0.524 0.98331 0.0
O340 O 0.02315 0.52304 0.02566 0.0
Eu341 Eu 1.00218 0.54671 0.00496 0.0
O342 O 0.00286 0.43823 0.03661 0.0
O343 O 1.00115 0.43959 0.9688 0.0
O344 O 0.00232 0.56635 0.0396 0.0
O345 O 0.00233 0.56764 0.97122 0.0
O346 O 0.93753 0.53868 0.00403 0.0
O347 O 0.93756 0.46726 0.00311 0.0
O348 O 0.06681 0.53866 0.00465 0.0
O349 O 0.06681 0.46736 0.00376 0.0
O350 O 0.03716 0.50449 0.93961 0.0
O351 O 0.96771 0.50392 0.93931 0.0
O352 O 0.03654 0.50165 0.06857 0.0
O353 O 0.96705 0.50161 0.06822 0.0
O354 O 0.03616 0.56704 0.00569 0.0
O355 O 0.96821 0.56706 0.00472 0.0
O356 O 0.03615 0.43904 1.00207 0.0
O357 O 0.96832 0.43899 0.00347 0.0
O358 O 1.00208 0.46847 0.93858 0.0
O359 O 0.00224 0.53976 0.94003 0.0
O360 O 1.00195 0.46594 0.06788 0.0
O361 O 1.00087 0.53693 0.06938 0.0
O362 O 0.93751 0.50202 0.03838 0.0
O363 O 0.93788 0.50395 0.96886 0.0
O364 O 0.06634 0.50295 0.03901 0.0
O365 O 0.06673 0.50321 0.96941 0.0
C366 C 0.50475 0.44794 0.0623 0.0
C367 C 0.50171 0.56135 0.05814 0.0
C368 C 0.50392 0.44363 0.94692 0.0
C369 C 0.50268 0.55727 0.94267 0.0
C370 C 0.55928 0.50218 0.94437 0.0
C371 C 0.55955 0.5044 0.06031 0.0
C372 C 0.44596 0.49994 0.94473 0.0
C373 C 0.44637 0.5038 0.06058 0.0
C374 C 0.44479 0.55872 1.00026 0.0
C375 C 0.55883 0.56066 1.00109 0.0
C376 C 0.44669 0.44456 0.00425 0.0
C377 C 0.56076 0.44642 0.00394 0.0
Eu378 Eu 0.50296 0.50417 0.0462 0.0
O379 O 0.52372 0.52487 0.02226 0.0
O380 O 0.48201 0.48183 0.02396 0.0
Eu381 Eu 0.54794 0.50332 1.00237 0.0
Eu382 Eu 0.45769 0.50186 1.00262 0.0
O383 O 0.52434 0.48258 0.02372 0.0
O384 O 0.48135 0.5241 0.02238 0.0
Eu385 Eu 0.50355 0.45757 0.00415 0.0
Eu386 Eu 0.502 0.5476 1.00085 0.0
O387 O 0.52423 0.48108 0.98257 0.0
O388 O 0.52343 0.52318 0.98112 0.0
O389 O 0.48125 0.52259 0.98111 0.0
O390 O 0.48195 0.48035 0.9827 0.0
Eu391 Eu 0.50266 0.50093 0.95865 0.0
O392 O 0.50409 0.47078 0.06781 0.0
O393 O 0.50338 0.53904 0.06534 0.0
O394 O 0.50294 0.46595 0.9396 0.0
O395 O 0.50257 0.53441 0.93716 0.0
O396 O 0.56733 0.50289 0.96664 0.0
O397 O 0.56756 0.50414 0.03801 0.0
O398 O 0.43805 0.50084 0.96704 0.0
O399 O 0.4383 0.50249 0.03834 0.0
O400 O 0.467 0.56633 0.9992 0.0
O401 O 0.53637 0.56761 1.00123 0.0
O402 O 0.46914 0.43759 0.00503 0.0
O403 O 0.53854 0.43878 0.00423 0.0
O404 O 0.46858 0.49981 0.93851 0.0
O405 O 0.53664 0.50114 0.9383 0.0
O406 O 0.46902 0.50462 0.0666 0.0
O407 O 0.53693 0.50469 0.06642 0.0
O408 O 0.50028 0.56837 0.0356 0.0
O409 O 0.50246 0.56591 0.9647 0.0
O410 O 0.50447 0.43928 0.04028 0.0
O411 O 0.50453 0.4367 0.96952 0.0
O412 O 0.56782 0.46886 0.00342 0.0
O413 O 0.56657 0.53843 1.00121 0.0
O414 O 0.43902 0.46678 0.00314 0.0
O415 O 0.43779 0.53631 1.00195 0.0
C416 C 0.00274 0.44702 0.55942 0.0
C417 C 0.00328 0.4462 0.4451 0.0
C418 C 1.00116 0.56135 0.55866 0.0
C419 C 0.00677 0.56054 0.44425 0.0
C420 C 0.94486 0.56048 0.50179 0.0
C421 C 0.94471 0.44723 0.50102 0.0
C422 C 0.06063 0.56029 0.5013 0.0
C423 C 0.06038 0.44701 0.50362 0.0
C424 C 0.0608 0.5021 0.44565 0.0
C425 C 0.94508 0.50515 0.44495 0.0
C426 C 0.06021 0.50515 0.5589 0.0
C427 C 0.94454 0.50295 0.55818 0.0
Eu428 Eu 0.00258 0.45857 0.50217 0.0
O429 O 0.98223 0.48243 0.4806 0.0
O430 O 0.023 0.48266 0.52339 0.0
Eu431 Eu 0.95924 0.50385 0.50159 0.0
Eu432 Eu 0.04612 0.50367 0.50221 0.0
O433 O 0.98205 0.48278 0.52311 0.0
O434 O 0.02318 0.48246 0.48094 0.0
Eu435 Eu 0.00244 0.5041 0.54709 0.0
Eu436 Eu 0.00287 0.5035 0.4566 0.0
O437 O 0.98222 0.52513 0.52271 0.0
O438 O 0.98223 0.5251 0.48023 0.0
O439 O 0.0231 0.52463 0.48085 0.0
O440 O 0.0231 0.52524 0.52311 0.0
Eu441 Eu 0.00274 0.54913 0.50152 0.0
O442 O 1.00196 0.43951 0.53712 0.0
O443 O 0.00377 0.43904 0.46752 0.0
O444 O 0.00223 0.56863 0.53628 0.0
O445 O 0.00499 0.56813 0.46649 0.0
O446 O 0.9389 0.53779 0.50234 0.0
O447 O 0.93874 0.46994 0.5008 0.0
O448 O 0.06657 0.53757 0.50114 0.0
O449 O 0.06647 0.46968 0.50346 0.0
O450 O 0.03863 0.50233 0.4374 0.0
O451 O 0.96733 0.50471 0.43691 0.0
O452 O 0.03792 0.50492 0.56685 0.0
O453 O 0.96673 0.50336 0.56636 0.0
O454 O 0.03844 0.56847 0.50188 0.0
O455 O 0.96707 0.56862 0.50098 0.0
O456 O 0.03814 0.43897 0.50303 0.0
O457 O 0.96693 0.43911 0.50167 0.0
O458 O 0.00239 0.4685 0.43757 0.0
O459 O 0.00614 0.5381 0.43711 0.0
O460 O 0.00333 0.46943 0.56661 0.0
O461 O 1.00089 0.53902 0.56609 0.0
O462 O 0.93861 0.50311 0.53546 0.0
O463 O 0.93899 0.50475 0.46761 0.0
O464 O 0.06637 0.50474 0.53626 0.0
O465 O 0.06669 0.50258 0.46837 0.0
C466 C 0.503 0.94378 0.55709 0.0
C467 C 0.50165 0.94695 0.44357 0.0
C468 C 0.50355 0.05931 0.56022 0.0
C469 C 0.50264 0.06226 0.44656 0.0
C470 C 0.44584 0.06101 0.50313 0.0
C471 C 0.44633 0.94509 0.50181 0.0
C472 C 0.55917 0.06135 0.50308 0.0
C473 C 0.55955 0.94541 0.49973 0.0
C474 C 0.55925 0.00431 0.44433 0.0
C475 C 0.4452 0.00477 0.44545 0.0
C476 C 0.56042 1.00144 0.55848 0.0
C477 C 0.44638 1.00206 0.55968 0.0
Eu478 Eu 0.50292 0.9594 0.5007 0.0
O479 O 0.4814 0.98305 0.48048 0.0
O480 O 0.52426 0.98199 0.52231 0.0
Eu481 Eu 0.45764 0.00308 0.50241 0.0
Eu482 Eu 0.54789 0.00331 0.50154 0.0
O483 O 0.48197 0.98201 0.52264 0.0
O484 O 0.52386 0.98315 0.48002 0.0
Eu485 Eu 0.50329 1.00192 0.54694 0.0
Eu486 Eu 0.50235 0.00431 0.45698 0.0
O487 O 0.48176 0.02322 0.52387 0.0
O488 O 0.48135 0.02429 0.48157 0.0
O489 O 0.52357 0.02442 0.48127 0.0
O490 O 0.52397 0.02333 0.52331 0.0
Eu491 Eu 0.50252 0.04708 0.50307 0.0
O492 O 0.50321 0.93814 0.53428 0.0
O493 O 0.5026 0.93987 0.46597 0.0
O494 O 0.50198 0.06641 0.53787 0.0
O495 O 0.50199 0.06828 0.46929 0.0
O496 O 0.43794 0.03867 0.50312 0.0
O497 O 0.43825 0.96735 0.50211 0.0
O498 O 0.56724 0.03909 0.50205 0.0
O499 O 0.56751 0.9677 0.50066 0.0
O500 O 0.53685 0.00462 0.43722 0.0
O501 O 0.46747 0.005 0.43794 0.0
O502 O 0.53815 1.00052 0.56594 0.0
O503 O 0.4688 1.00232 0.56675 0.0
O504 O 0.53651 0.06741 0.50363 0.0
O505 O 0.46845 0.06721 0.50322 0.0
O506 O 0.53693 0.93923 0.49961 0.0
O507 O 0.46898 0.93903 0.50109 0.0
O508 O 0.50113 0.96948 0.43642 0.0
O509 O 0.5032 0.04013 0.43829 0.0
O510 O 0.50294 0.96589 0.56557 0.0
O511 O 0.50489 0.03682 0.56739 0.0
O512 O 0.43878 1.00204 0.53741 0.0
O513 O 0.43801 0.00412 0.46784 0.0
O514 O 0.56757 0.00287 0.53611 0.0
O515 O 0.56682 0.00374 0.4666 0.0
C516 C 0.2219 0.19941 0.48817 0.0
C517 C 0.21866 0.2201 0.50144 0.0
C518 C 0.20462 0.18197 0.48798 0.0
C519 C 0.14205 0.1725 0.49588 0.0
H520 H 0.15939 0.10792 0.5105 0.0
C521 C 0.07267 0.10059 0.51132 0.0
C522 C 0.07746 0.078 0.5024 0.0
C523 C 0.09002 0.11794 0.51104 0.0
C524 C 0.15433 0.1258 0.50604 0.0
H525 H 0.19491 0.2387 0.52503 0.0
H526 H 0.16441 0.2084 0.52411 0.0
H527 H 0.18967 0.13845 0.50972 0.0
H528 H 0.10389 0.05583 0.48585 0.0
H529 H 0.13401 0.08635 0.48474 0.0
H530 H 0.10683 0.15994 0.49169 0.0
C531 C 0.18033 0.20581 0.51389 0.0
C532 C 0.17162 0.14322 0.50568 0.0
C533 C 0.19772 0.22312 0.51432 0.0
C534 C 0.09982 0.07305 0.49308 0.0
C535 C 0.11709 0.0905 0.49253 0.0
C536 C 0.12478 0.15505 0.49595 0.0
C537 C 0.18373 0.1851 0.50081 0.0
C538 C 0.16556 0.16667 0.50072 0.0
C539 C 0.11238 0.11309 0.50156 0.0
C540 C 0.13073 0.13155 0.50115 0.0
H541 H 0.23768 0.19677 0.47776 0.0
H542 H 0.20742 0.16617 0.47759 0.0
H543 H 0.1371 0.1905 0.49177 0.0
H544 H 0.05563 0.10478 0.51885 0.0
H545 H 0.08601 0.13506 0.51853 0.0
C546 C 0.78265 0.19948 0.51524 0.0
C547 C 0.78574 0.22031 0.50217 0.0
C548 C 0.79988 0.18199 0.51496 0.0
C549 C 0.86232 0.17269 0.50637 0.0
H550 H 0.84492 0.10798 0.49246 0.0
C551 C 0.93167 0.10036 0.49265 0.0
C552 C 0.92677 0.07801 0.50211 0.0
C553 C 0.91433 0.11773 0.49229 0.0
C554 C 0.85 0.1259 0.49669 0.0
H555 H 0.80913 0.2391 0.47838 0.0
H556 H 0.83957 0.20869 0.47847 0.0
H557 H 0.81466 0.13853 0.49297 0.0
H558 H 0.90012 0.0563 0.51892 0.0
H559 H 0.87003 0.08687 0.51891 0.0
H560 H 0.89752 0.16015 0.51068 0.0
C561 C 0.82379 0.20603 0.4889 0.0
C562 C 0.83272 0.14333 0.49688 0.0
C563 C 0.80645 0.2234 0.48894 0.0
C564 C 0.90429 0.07333 0.51129 0.0
C565 C 0.88704 0.09079 0.5112 0.0
C566 C 0.87957 0.15523 0.50646 0.0
C567 C 0.82056 0.1852 0.50184 0.0
C568 C 0.83879 0.16682 0.50168 0.0
C569 C 0.89188 0.11315 0.50166 0.0
C570 C 0.87359 0.13167 0.50157 0.0
H571 H 0.76705 0.19679 0.52592 0.0
H572 H 0.79722 0.16612 0.52527 0.0
H573 H 0.86728 0.19072 0.51036 0.0
H574 H 0.9488 0.10435 0.48521 0.0
H575 H 0.91846 0.13466 0.48444 0.0
C576 C 0.78198 0.8067 0.49172 0.0
C577 C 0.78479 0.78576 0.50469 0.0
C578 C 0.79931 0.82407 0.49232 0.0
C579 C 0.86171 0.83276 0.50137 0.0
H580 H 0.84479 0.89768 0.51488 0.0
C581 C 0.93151 0.90483 0.51461 0.0
C582 C 0.92668 0.92714 0.50501 0.0
C583 C 0.91411 0.88752 0.51505 0.0
C584 C 0.84974 0.87969 0.51077 0.0
H585 H 0.80776 0.76669 0.52867 0.0
H586 H 0.83839 0.79692 0.52914 0.0
H587 H 0.81429 0.86736 0.51449 0.0
H588 H 0.90014 0.94881 0.48797 0.0
H589 H 0.86995 0.91835 0.48814 0.0
H590 H 0.89701 0.84501 0.49702 0.0
C591 C 0.82275 0.79975 0.51856 0.0
C592 C 0.83232 0.8624 0.51065 0.0
C593 C 0.8053 0.78249 0.5182 0.0
C594 C 0.90424 0.93182 0.49572 0.0
C595 C 0.88694 0.91442 0.49591 0.0
C596 C 0.8791 0.85008 0.50121 0.0
C597 C 0.81982 0.82065 0.50566 0.0
C598 C 0.83822 0.83884 0.50597 0.0
C599 C 0.89168 0.89213 0.50565 0.0
C600 C 0.87328 0.87372 0.50592 0.0
H601 H 0.76656 0.80953 0.48082 0.0
H602 H 0.79688 0.84 0.48203 0.0
H603 H 0.86653 0.81467 0.49747 0.0
H604 H 0.94861 0.90084 0.52211 0.0
H605 H 0.91816 0.87063 0.52303 0.0
C606 C 0.1989 0.78292 0.48969 0.0
C607 C 0.21976 0.78609 0.50266 0.0
C608 C 0.1814 0.80013 0.49001 0.0
C609 C 0.17194 0.86265 0.49846 0.0
H610 H 0.10753 0.84509 0.51313 0.0
C611 C 0.09983 0.93199 0.51316 0.0
C612 C 0.07735 0.92706 0.50409 0.0
C613 C 0.11719 0.91464 0.51321 0.0
C614 C 0.12536 0.85021 0.50867 0.0
H615 H 0.23859 0.80966 0.52626 0.0
H616 H 0.20815 0.84007 0.52622 0.0
H617 H 0.13811 0.81486 0.51233 0.0
H618 H 0.0554 0.90036 0.48769 0.0
H619 H 0.08595 0.87024 0.48714 0.0
H620 H 0.15928 0.89786 0.49422 0.0
C621 C 0.20548 0.82423 0.51586 0.0
C622 C 0.14281 0.83295 0.50832 0.0
C623 C 0.22287 0.80689 0.51579 0.0
C624 C 0.07253 0.90454 0.49501 0.0
C625 C 0.08999 0.88728 0.49478 0.0
C626 C 0.15446 0.87988 0.49853 0.0
C627 C 0.18462 0.82089 0.50305 0.0
C628 C 0.1662 0.83909 0.50328 0.0
C629 C 0.11248 0.89215 0.50392 0.0
C630 C 0.131 0.87385 0.50371 0.0
H631 H 0.19619 0.76726 0.47908 0.0
H632 H 0.16549 0.79738 0.4798 0.0
H633 H 0.18989 0.86766 0.49429 0.0
H634 H 0.10393 0.94914 0.52052 0.0
H635 H 0.13422 0.91879 0.52077 0.0
C636 C 0.47153 0.20166 0.22287 0.0
C637 C 0.48446 0.22227 0.21805 0.0
C638 C 0.46912 0.18419 0.2057 0.0
C639 C 0.4741 0.17232 0.14226 0.0
H640 H 0.49535 0.11026 0.16174 0.0
C641 C 0.50263 0.10213 0.07529 0.0
C642 C 0.49664 0.07854 0.07984 0.0
C643 C 0.49875 0.11944 0.09231 0.0
C644 C 0.48896 0.12735 0.15607 0.0
H645 H 0.50446 0.24092 0.19122 0.0
H646 H 0.49971 0.21072 0.16119 0.0
H647 H 0.49075 0.14132 0.19108 0.0
H648 H 0.48167 0.05456 0.1057 0.0
H649 H 0.47453 0.08485 0.13523 0.0
H650 H 0.47241 0.15847 0.10724 0.0
C651 C 0.49137 0.20817 0.17819 0.0
C652 C 0.48632 0.1451 0.17288 0.0
C653 C 0.49401 0.22549 0.1954 0.0
C654 C 0.48677 0.07256 0.10177 0.0
C655 C 0.48268 0.08991 0.11871 0.0
C656 C 0.47652 0.15451 0.12547 0.0
C657 C 0.47935 0.18718 0.18336 0.0
C658 C 0.47927 0.16782 0.16603 0.0
C659 C 0.48857 0.11354 0.11413 0.0
C660 C 0.48441 0.13197 0.13214 0.0
H661 H 0.46367 0.19884 0.24005 0.0
H662 H 0.4596 0.16818 0.20997 0.0
H663 H 0.46845 0.18969 0.13663 0.0
H664 H 0.51042 0.10724 0.05861 0.0
H665 H 0.50394 0.13742 0.08844 0.0
C666 C 0.78169 0.48745 0.20004 0.0
C667 C 0.78496 0.50083 0.22065 0.0
C668 C 0.79898 0.4871 0.18262 0.0
C669 C 0.86156 0.49472 0.17319 0.0
H670 H 0.84442 0.50941 0.10859 0.0
C671 C 0.93115 0.51018 0.10158 0.0
C672 C 0.92643 0.50127 0.07898 0.0
C673 C 0.91373 0.50989 0.11885 0.0
C674 C 0.84942 0.50492 0.12648 0.0
H675 H 0.80877 0.52448 0.23911 0.0
H676 H 0.83928 0.52327 0.20885 0.0
H677 H 0.81407 0.50871 0.13904 0.0
H678 H 0.9001 0.48475 0.05668 0.0
H679 H 0.86985 0.48361 0.08708 0.0
H680 H 0.89679 0.49044 0.16073 0.0
C681 C 0.82333 0.51308 0.20632 0.0
C682 C 0.83209 0.50461 0.14384 0.0
C683 C 0.80594 0.51367 0.22361 0.0
C684 C 0.90409 0.49195 0.07393 0.0
C685 C 0.88677 0.49139 0.0913 0.0
C686 C 0.87887 0.49474 0.1558 0.0
C687 C 0.8199 0.49988 0.1857 0.0
C688 C 0.83809 0.49964 0.16731 0.0
C689 C 0.8914 0.50041 0.11391 0.0
C690 C 0.87299 0.49998 0.13229 0.0
H691 H 0.76587 0.47708 0.19746 0.0
H692 H 0.79615 0.47663 0.16688 0.0
H693 H 0.86646 0.49061 0.19121 0.0
H694 H 0.94817 0.51771 0.10583 0.0
H695 H 0.91768 0.51737 0.13598 0.0
C696 C 0.54511 0.80396 0.21889 0.0
C697 C 0.5308 0.78449 0.21324 0.0
C698 C 0.54981 0.82128 0.20199 0.0
C699 C 0.54622 0.83548 0.13852 0.0
H700 H 0.5231 0.89623 0.15986 0.0
C701 C 0.5095 0.90426 0.07428 0.0
C702 C 0.51367 0.92825 0.07881 0.0
C703 C 0.51609 0.88717 0.0907 0.0
C704 C 0.5301 0.87958 0.15365 0.0
H705 H 0.51138 0.7674 0.18491 0.0
H706 H 0.52021 0.79707 0.15555 0.0
H707 H 0.52968 0.86485 0.18837 0.0
H708 H 0.52833 0.95314 0.10399 0.0
H709 H 0.54008 0.9233 0.13245 0.0
H710 H 0.54614 0.85 0.10372 0.0
C711 C 0.52782 0.79894 0.17299 0.0
C712 C 0.53393 0.86162 0.17002 0.0
C713 C 0.52283 0.78185 0.18988 0.0
C714 C 0.52452 0.93482 0.10012 0.0
C715 C 0.53131 0.91771 0.11643 0.0
C716 C 0.54259 0.8535 0.12216 0.0
C717 C 0.54061 0.8192 0.1791 0.0
C718 C 0.54135 0.83923 0.1625 0.0
C719 C 0.52722 0.8937 0.11189 0.0
C720 C 0.5338 0.87551 0.12947 0.0
H721 H 0.55188 0.80631 0.2366 0.0
H722 H 0.55989 0.83672 0.20703 0.0
H723 H 0.55211 0.81837 0.13236 0.0
H724 H 0.5011 0.89865 0.05806 0.0
H725 H 0.51221 0.86885 0.0869 0.0
C726 C 0.22273 0.5145 0.1993 0.0
C727 C 0.21994 0.50142 0.22017 0.0
C728 C 0.20526 0.5142 0.18206 0.0
C729 C 0.14268 0.50569 0.17373 0.0
H730 H 0.15908 0.49222 0.10868 0.0
C731 C 0.07237 0.49271 0.10203 0.0
C732 C 0.07715 0.50218 0.07966 0.0
C733 C 0.08983 0.49232 0.11929 0.0
C734 C 0.15427 0.49634 0.12671 0.0
H735 H 0.19686 0.47754 0.23924 0.0
H736 H 0.16601 0.47759 0.20925 0.0
H737 H 0.18978 0.49239 0.13877 0.0
H738 H 0.10363 0.51913 0.05787 0.0
H739 H 0.1339 0.51908 0.08822 0.0
H740 H 0.10731 0.51024 0.16173 0.0
C741 C 0.18173 0.48805 0.20638 0.0
C742 C 0.17181 0.49633 0.14387 0.0
C743 C 0.19931 0.48811 0.22351 0.0
C744 C 0.09957 0.51147 0.0749 0.0
C745 C 0.11692 0.51134 0.09224 0.0
C746 C 0.12517 0.50598 0.15653 0.0
C747 C 0.18463 0.50105 0.18555 0.0
C748 C 0.16611 0.50098 0.16747 0.0
C749 C 0.11227 0.50166 0.11457 0.0
C750 C 0.1308 0.50129 0.13284 0.0
H751 H 0.23825 0.52524 0.19642 0.0
H752 H 0.20768 0.52455 0.16618 0.0
H753 H 0.138 0.50957 0.19185 0.0
H754 H 0.05528 0.48521 0.10609 0.0
H755 H 0.08583 0.4844 0.13621 0.0
C756 C 0.48502 0.80675 0.78327 0.0
C757 C 0.49829 0.78607 0.78661 0.0
C758 C 0.48459 0.82417 0.80062 0.0
C759 C 0.49262 0.83385 0.86346 0.0
H760 H 0.50719 0.89834 0.84578 0.0
C761 C 0.50998 0.90565 0.93266 0.0
C762 C 0.50121 0.92835 0.92809 0.0
C763 C 0.50916 0.88832 0.91526 0.0
C764 C 0.50273 0.8805 0.85095 0.0
H765 H 0.52158 0.76749 0.81066 0.0
H766 H 0.52028 0.79774 0.84121 0.0
H767 H 0.50581 0.86778 0.81553 0.0
H768 H 0.48437 0.95069 0.90196 0.0
H769 H 0.48238 0.92024 0.87179 0.0
H770 H 0.48912 0.84647 0.89878 0.0
C771 C 0.51021 0.80033 0.82519 0.0
C772 C 0.50202 0.86305 0.83366 0.0
C773 C 0.51087 0.78304 0.80775 0.0
C774 C 0.49152 0.9334 0.90587 0.0
C775 C 0.49045 0.91598 0.88857 0.0
C776 C 0.49306 0.85133 0.88072 0.0
C777 C 0.49719 0.82106 0.82167 0.0
C778 C 0.49712 0.8396 0.83983 0.0
C779 C 0.49929 0.89327 0.89307 0.0
C780 C 0.49829 0.87481 0.87467 0.0
H781 H 0.47483 0.80941 0.76734 0.0
H782 H 0.47425 0.83997 0.79769 0.0
H783 H 0.48856 0.81587 0.86852 0.0
H784 H 0.51776 0.90134 0.94958 0.0
H785 H 0.51653 0.87111 0.91913 0.0
C786 C 0.19819 0.51658 0.78346 0.0
C787 C 0.21879 0.50315 0.78645 0.0
C788 C 0.18087 0.51668 0.80085 0.0
C789 C 0.17194 0.5085 0.86349 0.0
H790 H 0.107 0.49536 0.84669 0.0
C791 C 0.10019 0.49486 0.9335 0.0
C792 C 0.07779 0.50423 0.92877 0.0
C793 C 0.11746 0.49477 0.91606 0.0
C794 C 0.12499 0.49941 0.85161 0.0
H795 H 0.23729 0.4791 0.80982 0.0
H796 H 0.20718 0.47985 0.84053 0.0
H797 H 0.13722 0.49547 0.81611 0.0
H798 H 0.05595 0.52131 0.9024 0.0
H799 H 0.08633 0.52178 0.87214 0.0
H800 H 0.1598 0.51298 0.89886 0.0
C801 C 0.20458 0.49027 0.82471 0.0
C802 C 0.14223 0.49936 0.83414 0.0
C803 C 0.22179 0.48993 0.80721 0.0
C804 C 0.07301 0.51372 0.90642 0.0
C805 C 0.09037 0.51391 0.88907 0.0
C806 C 0.15467 0.50883 0.88093 0.0
C807 C 0.18401 0.5036 0.8216 0.0
C808 C 0.16581 0.50383 0.84 0.0
C809 C 0.11273 0.50433 0.89368 0.0
C810 C 0.13103 0.50421 0.87517 0.0
H811 H 0.19558 0.52726 0.76783 0.0
H812 H 0.16518 0.52727 0.79826 0.0
H813 H 0.19004 0.51224 0.86829 0.0
H814 H 0.10426 0.48721 0.95053 0.0
H815 H 0.13439 0.4869 0.92001 0.0
C816 C 0.45913 0.21867 0.80459 0.0
C817 C 0.4734 0.2129 0.78513 0.0
C818 C 0.45441 0.20186 0.82199 0.0
C819 C 0.458 0.13844 0.83656 0.0
H820 H 0.48148 0.16014 0.89704 0.0
C821 C 0.49539 0.07454 0.90522 0.0
C822 C 0.49131 0.07906 0.92922 0.0
C823 C 0.48869 0.09095 0.88816 0.0
C824 C 0.47439 0.15383 0.88046 0.0
H825 H 0.49264 0.18441 0.76811 0.0
H826 H 0.48377 0.1552 0.7979 0.0
H827 H 0.47465 0.18848 0.86554 0.0
H828 H 0.47677 0.10424 0.95418 0.0
H829 H 0.46485 0.13271 0.92439 0.0
H830 H 0.45825 0.10371 0.85126 0.0
C831 C 0.47623 0.17267 0.79972 0.0
C832 C 0.47041 0.1701 0.86245 0.0
C833 C 0.48124 0.18949 0.78255 0.0
C834 C 0.48051 0.10037 0.93584 0.0
C835 C 0.47361 0.11669 0.91876 0.0
C836 C 0.46178 0.12218 0.85464 0.0
C837 C 0.46354 0.17893 0.81999 0.0
C838 C 0.46288 0.16245 0.84013 0.0
C839 C 0.47754 0.11212 0.89473 0.0
C840 C 0.47073 0.12962 0.87654 0.0
H841 H 0.45244 0.23642 0.80689 0.0
H842 H 0.44439 0.20701 0.83743 0.0
H843 H 0.45202 0.13217 0.81952 0.0
H844 H 0.50377 0.05832 0.89956 0.0
H845 H 0.49247 0.08714 0.86983 0.0
C846 C 0.78296 0.51757 0.80633 0.0
C847 C 0.78632 0.50435 0.78563 0.0
C848 C 0.80018 0.51783 0.82382 0.0
C849 C 0.86278 0.51037 0.83342 0.0
H850 H 0.84542 0.49572 0.89796 0.0
C851 C 0.93212 0.49564 0.90554 0.0
C852 C 0.92717 0.50446 0.92813 0.0
C853 C 0.91482 0.49581 0.88812 0.0
C854 C 0.85049 0.5002 0.88009 0.0
H855 H 0.81025 0.48091 0.76708 0.0
H856 H 0.84066 0.48195 0.79747 0.0
H857 H 0.81521 0.49618 0.86737 0.0
H858 H 0.90052 0.52075 0.95022 0.0
H859 H 0.8705 0.52169 0.91959 0.0
H860 H 0.89792 0.51492 0.84605 0.0
C861 C 0.82467 0.49208 0.80002 0.0
C862 C 0.83323 0.50036 0.86264 0.0
C863 C 0.80733 0.49157 0.78266 0.0
C864 C 0.90471 0.5136 0.933 0.0
C865 C 0.88751 0.51405 0.91549 0.0
C866 C 0.88 0.51051 0.85091 0.0
C867 C 0.82115 0.50512 0.82074 0.0
C868 C 0.8393 0.50534 0.83919 0.0
C869 C 0.89237 0.50508 0.89291 0.0
C870 C 0.87404 0.50531 0.87441 0.0
H871 H 0.76712 0.52791 0.80893 0.0
H872 H 0.79728 0.52819 0.83961 0.0
H873 H 0.86773 0.5145 0.81542 0.0
H874 H 0.94923 0.48825 0.9014 0.0
H875 H 0.91897 0.48838 0.87102 0.0
C876 C 0.72183 0.69985 0.99045 0.0
C877 C 0.71873 0.72068 0.00352 0.0
C878 C 0.7044 0.68257 0.99032 0.0
C879 C 0.64171 0.67387 0.99753 0.0
H880 H 0.65826 0.60899 0.01172 0.0
C881 C 0.57168 0.60174 0.00992 0.0
C882 C 0.57683 0.57924 1.00094 0.0
C883 C 0.58896 0.61918 0.01027 0.0
C884 C 0.65342 0.62696 0.00738 0.0
H885 H 0.69507 0.73967 0.02689 0.0
H886 H 0.66428 0.70962 0.02608 0.0
H887 H 0.68876 0.63928 0.01199 0.0
H888 H 0.60376 0.55742 0.98475 0.0
H889 H 0.63373 0.58808 0.98471 0.0
H890 H 0.60651 0.66161 0.99234 0.0
C891 C 0.68024 0.7068 0.01597 0.0
C892 C 0.67084 0.64424 0.00765 0.0
C893 C 0.69779 0.72397 0.01634 0.0
C894 C 0.59941 0.57455 0.99203 0.0
C895 C 0.61659 0.59207 0.99211 0.0
C896 C 0.62432 0.65654 0.99697 0.0
C897 C 0.68349 0.68598 0.00302 0.0
C898 C 0.66508 0.66779 1.00276 0.0
C899 C 0.6116 0.61451 1.00139 0.0
C900 C 0.63 0.63291 1.00192 0.0
H901 H 0.7376 0.69701 0.98006 0.0
H902 H 0.7071 0.6667 0.98001 0.0
H903 H 0.637 0.69195 0.99348 0.0
H904 H 0.55445 0.60574 0.01711 0.0
H905 H 0.58469 0.63618 0.01788 0.0
C906 C 0.30578 0.72219 0.98852 0.0
C907 C 0.28533 0.71913 1.00215 0.0
C908 C 0.32303 0.70473 0.98803 0.0
C909 C 0.33196 0.64194 0.9958 0.0
H910 H 0.39706 0.65872 0.00814 0.0
C911 C 0.40397 0.57209 0.00925 0.0
C912 C 0.42628 0.57679 0.99967 0.0
C913 C 0.38662 0.58946 0.00923 0.0
C914 C 0.37902 0.65381 0.00431 0.0
H915 H 0.26698 0.69555 0.02611 0.0
H916 H 0.29699 0.66475 0.02472 0.0
H917 H 0.36686 0.68932 0.00842 0.0
H918 H 0.44784 0.60302 0.982 0.0
H919 H 0.41732 0.63314 0.98137 0.0
H920 H 0.34404 0.60655 0.99122 0.0
C921 C 0.29952 0.68066 0.01443 0.0
C922 C 0.36179 0.67129 0.00457 0.0
C923 C 0.28238 0.69822 0.01514 0.0
C924 C 0.43086 0.59902 0.98976 0.0
C925 C 0.41343 0.61629 0.98949 0.0
C926 C 0.34922 0.62449 0.99527 0.0
C927 C 0.31997 0.68385 1.00093 0.0
C928 C 0.33816 0.66544 1.0004 0.0
C929 C 0.39119 0.61173 0.99937 0.0
C930 C 0.37291 0.63025 0.9996 0.0
H931 H 0.30834 0.73795 0.97802 0.0
H932 H 0.33862 0.70739 0.97732 0.0
H933 H 0.31381 0.63715 0.9923 0.0
H934 H 0.40005 0.55516 0.01721 0.0
H935 H 0.36978 0.58555 0.01731 0.0
C936 C 0.30656 0.28175 0.01818 0.0
C937 C 0.28601 0.28528 0.0048 0.0
C938 C 0.32424 0.29878 0.01844 0.0
C939 C 0.3343 0.36138 0.01064 0.0
H940 H 0.39894 0.34364 0.9972 0.0
C941 C 0.40616 0.43054 0.99521 0.0
C942 C 0.42862 0.42604 0.00455 0.0
C943 C 0.38894 0.41307 0.99551 0.0
C944 C 0.38103 0.34881 1.00134 0.0
H945 H 0.26797 0.30927 0.98101 0.0
H946 H 0.2987 0.33934 0.98203 0.0
H947 H 0.36828 0.31345 0.99762 0.0
H948 H 0.4507 0.39994 0.02174 0.0
H949 H 0.42035 0.36956 0.02284 0.0
H950 H 0.34692 0.3966 0.01483 0.0
C951 C 0.30098 0.32338 0.9923 0.0
C952 C 0.36354 0.33157 1.00148 0.0
C953 C 0.28342 0.30623 0.9918 0.0
C954 C 0.43357 0.40379 0.01423 0.0
C955 C 0.41623 0.38639 0.01478 0.0
C956 C 0.3518 0.37857 0.01077 0.0
C957 C 0.32151 0.31972 0.00557 0.0
C958 C 0.34006 0.33779 0.00597 0.0
C959 C 0.39375 0.39088 0.00542 0.0
C960 C 0.37532 0.37249 0.00593 0.0
H961 H 0.30887 0.26595 0.02868 0.0
H962 H 0.33988 0.29578 0.02899 0.0
H963 H 0.31628 0.36646 0.01443 0.0
H964 H 0.40195 0.44746 0.98737 0.0
H965 H 0.37193 0.4169 0.98773 0.0
C966 C 0.69924 0.28328 0.99158 0.0
C967 C 0.72021 0.28608 0.00447 0.0
C968 C 0.68201 0.30075 0.99207 0.0
C969 C 0.67357 0.36332 1.0005 0.0
H970 H 0.60888 0.34668 0.01498 0.0
C971 C 0.60161 0.43344 0.01328 0.0
C972 C 0.57921 0.42831 0.00415 0.0
C973 C 0.61899 0.4161 0.01376 0.0
C974 C 0.6268 0.35155 0.01059 0.0
H975 H 0.73949 0.3092 0.02814 0.0
H976 H 0.7095 0.34009 0.0284 0.0
H977 H 0.6391 0.3161 0.01471 0.0
H978 H 0.55745 0.40138 0.98785 0.0
H979 H 0.588 0.37131 0.98803 0.0
H980 H 0.66133 0.39863 0.99572 0.0
C981 C 0.70655 0.32433 0.01798 0.0
C982 C 0.64404 0.33409 0.01055 0.0
C983 C 0.72367 0.30674 0.01774 0.0
C984 C 0.57451 0.40569 0.99527 0.0
C985 C 0.59197 0.38846 0.99546 0.0
C986 C 0.65629 0.38076 1.00025 0.0
C987 C 0.68561 0.32139 0.00521 0.0
C988 C 0.66751 0.33988 0.0055 0.0
C989 C 0.61434 0.39345 0.00483 0.0
C990 C 0.63273 0.37504 0.00528 0.0
H991 H 0.69627 0.26775 0.98086 0.0
H992 H 0.66604 0.29832 0.98189 0.0
H993 H 0.6916 0.36806 0.99633 0.0
H994 H 0.60559 0.45072 0.02043 0.0
H995 H 0.63594 0.42036 0.02142 0.0
C996 C 0.01173 0.72328 0.69865 0.0
C997 C 0.99914 0.72035 0.71979 0.0
C998 C 0.01055 0.70622 0.68103 0.0
C999 C 1.0009 0.64393 0.67185 0.0
H1000 H 0.98799 0.66158 0.607 0.0
C1001 C 0.98987 0.57457 0.59897 0.0
C1002 C 0.99992 0.57968 0.57693 0.0
C1003 C 0.9886 0.59191 0.61632 0.0
C1004 C 0.9919 0.65642 0.62497 0.0
H1005 H 0.97522 0.6974 0.73895 0.0
H1006 H 0.97374 0.66719 0.70826 0.0
H1007 H 0.98805 0.69179 0.63768 0.0
H1008 H 0.0167 0.60675 0.55572 0.0
H1009 H 0.01513 0.63686 0.5863 0.0
H1010 H 0.00549 0.60874 0.65923 0.0
C1011 C 0.98446 0.68276 0.70546 0.0
C1012 C 0.99182 0.67367 0.64248 0.0
C1013 C 0.9854 0.69997 0.72299 0.0
C1014 C 0.00868 0.6024 0.57251 0.0
C1015 C 0.00767 0.61967 0.58998 0.0
C1016 C 1.00125 0.62671 0.65432 0.0
C1017 C 0.997 0.68581 0.68437 0.0
C1018 C 0.99637 0.66753 0.666 0.0
C1019 C 0.99761 0.61459 0.61206 0.0
C1020 C 0.99681 0.6328 0.63069 0.0
H1021 H 0.02281 0.73859 0.69584 0.0
H1022 H 0.02061 0.70873 0.66498 0.0
H1023 H 0.00472 0.63889 0.68989 0.0
H1024 H 0.98268 0.55726 0.60274 0.0
H1025 H 0.98035 0.58758 0.633 0.0
C1026 C 0.28357 0.98937 0.69921 0.0
C1027 C 0.28672 1.00247 0.72002 0.0
C1028 C 0.30094 0.98927 0.68187 0.0
C1029 C 0.3636 0.99688 0.67283 0.0
H1030 H 0.34665 0.01133 0.60813 0.0
C1031 C 0.43332 0.0107 0.60073 0.0
C1032 C 0.42829 1.00181 0.57818 0.0
C1033 C 0.41602 0.01075 0.61815 0.0
C1034 C 0.35161 0.00692 0.62605 0.0
H1035 H 0.31042 0.02589 0.7389 0.0
H1036 H 0.34109 0.02512 0.70875 0.0
H1037 H 0.31626 0.01105 0.63854 0.0
H1038 H 0.40152 0.98552 0.55622 0.0
H1039 H 0.37153 0.98497 0.58685 0.0
H1040 H 0.39881 0.99219 0.66041 0.0
C1041 C 0.32515 0.01496 0.706 0.0
C1042 C 0.33425 0.00686 0.6434 0.0
C1043 C 0.30767 0.01531 0.72323 0.0
C1044 C 0.40578 0.99274 0.5734 0.0
C1045 C 0.38858 0.99252 0.59091 0.0
C1046 C 0.38093 0.99665 0.65544 0.0
C1047 C 0.32185 1.00202 0.68519 0.0
C1048 C 0.34016 1.0019 0.66689 0.0
C1049 C 0.39349 1.00163 0.61342 0.0
C1050 C 0.37511 1.00173 0.63188 0.0
H1051 H 0.2678 0.97898 0.69642 0.0
H1052 H 0.2982 0.97896 0.666 0.0
H1053 H 0.36844 0.99278 0.69086 0.0
H1054 H 0.45048 0.018 0.6048 0.0
H1055 H 0.42022 0.01825 0.63521 0.0
C1056 C 0.99511 0.28353 0.69805 0.0
C1057 C 0.00824 0.28647 0.71886 0.0
C1058 C 0.9954 0.30085 0.68066 0.0
C1059 C 0.00335 0.36345 0.67215 0.0
H1060 H 0.01532 0.34705 0.6068 0.0
C1061 C 0.01321 0.43383 0.59997 0.0
C1062 C 0.00331 0.42883 0.57783 0.0
C1063 C 0.01428 0.41642 0.61725 0.0
C1064 C 0.01163 0.35185 0.62492 0.0
H1065 H 0.03225 0.30964 0.73763 0.0
H1066 H 0.0322 0.34028 0.70734 0.0
H1067 H 0.01644 0.31639 0.63697 0.0
H1068 H 0.9863 0.40199 0.5565 0.0
H1069 H 0.98754 0.37176 0.58695 0.0
H1070 H 0.99787 0.39875 0.66018 0.0
C1071 C 0.02174 0.32452 0.70464 0.0
C1072 C 0.0124 0.33435 0.64213 0.0
C1073 C 0.02168 0.30706 0.72193 0.0
C1074 C 0.99426 0.40623 0.57335 0.0
C1075 C 0.99507 0.3889 0.59074 0.0
C1076 C 0.0023 0.38092 0.65491 0.0
C1077 C 0.00859 0.3215 0.68391 0.0
C1078 C 0.00826 0.34005 0.66583 0.0
C1079 C 0.00523 0.39378 0.61281 0.0
C1080 C 0.00642 0.37529 0.63112 0.0
H1081 H 0.98423 0.26805 0.69538 0.0
H1082 H 0.98491 0.29835 0.66488 0.0
H1083 H 0.99983 0.36812 0.69034 0.0
H1084 H 0.02055 0.45106 0.6038 0.0
H1085 H 0.02256 0.42059 0.63396 0.0
C1086 C 0.72232 0.0155 0.69872 0.0
C1087 C 0.71919 1.00249 0.71959 0.0
C1088 C 0.70522 0.01499 0.68111 0.0
C1089 C 0.6429 0.00574 0.67148 0.0
H1090 H 0.6608 0.99214 0.60684 0.0
C1091 C 0.57403 0.99122 0.59895 0.0
C1092 C 0.57879 1.00095 0.57669 0.0
C1093 C 0.59137 0.99095 0.61631 0.0
C1094 C 0.65558 0.99628 0.62475 0.0
H1095 H 0.69586 0.97859 0.73831 0.0
H1096 H 0.66566 0.97826 0.70767 0.0
H1097 H 0.6909 0.99299 0.63756 0.0
H1098 H 0.60524 0.01822 0.5551 0.0
H1099 H 0.63535 0.01833 0.58566 0.0
H1100 H 0.60771 0.0096 0.65876 0.0
C1101 C 0.68136 0.98882 0.70508 0.0
C1102 C 0.67277 0.99667 0.64227 0.0
C1103 C 0.69857 0.98909 0.72258 0.0
C1104 C 0.60118 0.0104 0.57205 0.0
C1105 C 0.61843 0.01038 0.58952 0.0
C1106 C 0.62574 0.00562 0.65393 0.0
C1107 C 0.68463 1.00171 0.68422 0.0
C1108 C 0.66651 1.00135 0.66573 0.0
C1109 C 0.61369 1.00066 0.61181 0.0
C1110 C 0.6319 1.00082 0.6304 0.0
H1111 H 0.73784 0.0263 0.6961 0.0
H1112 H 0.70792 0.02528 0.66522 0.0
H1113 H 0.63778 0.00966 0.68948 0.0
H1114 H 0.55698 0.98356 0.6029 0.0
H1115 H 0.58733 0.98295 0.63318 0.0
C1116 C 0.02056 0.28251 0.30594 0.0
C1117 C 0.00686 0.28566 0.28552 0.0
C1118 C 0.02114 0.29991 0.32329 0.0
C1119 C 0.01284 0.36267 0.33286 0.0
H1120 H 0.99885 0.34525 0.39753 0.0
C1121 C 0.99519 0.43211 0.40428 0.0
C1122 C 0.0041 0.42774 0.42696 0.0
C1123 C 0.99614 0.41463 0.38705 0.0
C1124 C 0.00316 0.35035 0.37963 0.0
H1125 H 0.98292 0.30941 0.26735 0.0
H1126 H 0.98452 0.34007 0.29746 0.0
H1127 H 1.00022 0.31483 0.36714 0.0
H1128 H 0.02135 0.40194 0.44937 0.0
H1129 H 0.02357 0.37162 0.41908 0.0
H1130 H 0.01619 0.39809 0.34524 0.0
C1131 C 0.99481 0.32415 0.29989 0.0
C1132 C 0.00387 0.33296 0.36229 0.0
C1133 C 0.99398 0.30666 0.28268 0.0
C1134 C 0.01408 0.40567 0.43209 0.0
C1135 C 0.01529 0.38829 0.41477 0.0
C1136 C 0.01242 0.38003 0.35023 0.0
C1137 C 0.00828 0.32083 0.32035 0.0
C1138 C 0.00853 0.33905 0.33878 0.0
C1139 C 0.00629 0.39258 0.39209 0.0
C1140 C 0.00738 0.37408 0.37376 0.0
H1141 H 0.03095 0.26668 0.30843 0.0
H1142 H 0.03181 0.29714 0.33889 0.0
H1143 H 0.01671 0.36766 0.31482 0.0
H1144 H 0.9872 0.44891 0.39993 0.0
H1145 H 0.98865 0.41831 0.36986 0.0
C1146 C 0.69937 0.01862 0.28171 0.0
C1147 C 0.71982 0.00506 0.28513 0.0
C1148 C 0.68177 0.01899 0.29882 0.0
C1149 C 0.67175 0.01109 0.36137 0.0
H1150 H 0.60715 0.99747 0.34364 0.0
C1151 C 0.59985 0.9954 0.43047 0.0
C1152 C 0.57738 0.00465 0.4259 0.0
C1153 C 0.61712 0.99577 0.41305 0.0
C1154 C 0.62504 1.00166 0.34881 0.0
H1155 H 0.7378 0.98112 0.30902 0.0
H1156 H 0.70723 0.98235 0.33923 0.0
H1157 H 0.63778 0.99804 0.31345 0.0
H1158 H 0.55531 0.02183 0.39978 0.0
H1159 H 0.58572 0.02307 0.3695 0.0
H1160 H 0.65912 0.01519 0.3966 0.0
C1161 C 0.70495 0.99266 0.32329 0.0
C1162 C 0.64251 1.00189 0.33157 0.0
C1163 C 0.72242 0.99204 0.30607 0.0
C1164 C 0.57245 0.01435 0.40366 0.0
C1165 C 0.58982 0.01499 0.38632 0.0
C1166 C 0.65426 0.01114 0.37857 0.0
C1167 C 0.6845 0.00607 0.31972 0.0
C1168 C 0.66598 0.00645 0.33779 0.0
C1169 C 0.61232 0.00568 0.39085 0.0
C1170 C 0.63075 0.00625 0.37249 0.0
H1171 H 0.69706 0.02913 0.26592 0.0
H1172 H 0.66618 0.02963 0.29588 0.0
H1173 H 0.68976 0.01492 0.36644 0.0
H1174 H 0.60403 0.98757 0.4474 0.0
H1175 H 0.63414 0.98805 0.41691 0.0
C1176 C 0.04032 0.70269 0.28489 0.0
C1177 C 0.02614 0.72234 0.29023 0.0
C1178 C 0.04435 0.68528 0.30185 0.0
C1179 C 0.04015 0.67166 0.36524 0.0
H1180 H 0.01809 0.61031 0.34446 0.0
C1181 C 0.00621 0.60238 0.4304 0.0
C1182 C 0.01123 0.57852 0.42602 0.0
C1183 C 0.01181 0.61952 0.41368 0.0
C1184 C 0.02477 0.62716 0.3505 0.0
H1185 H 0.00597 0.7395 0.31797 0.0
H1186 H 0.01367 0.70964 0.34751 0.0
H1187 H 0.02397 0.64163 0.31566 0.0
H1188 H 0.02625 0.55392 0.40079 0.0
H1189 H 0.03632 0.58389 0.37181 0.0
H1190 H 0.04057 0.65739 0.40013 0.0
C1191 C 0.0217 0.70774 0.33027 0.0
C1192 C 0.02818 0.64507 0.33398 0.0
C1193 C 0.01738 0.72492 0.31329 0.0
C1194 C 0.02184 0.57213 0.40455 0.0
C1195 C 0.02765 0.5893 0.38794 0.0
C1196 C 0.03695 0.6537 0.38174 0.0
C1197 C 0.0346 0.68745 0.3245 0.0
C1198 C 0.03529 0.66762 0.34131 0.0
C1199 C 0.02278 0.6132 0.39236 0.0
C1200 C 0.02859 0.63146 0.37462 0.0
H1201 H 0.04764 0.70038 0.2674 0.0
H1202 H 0.0545 0.6698 0.2971 0.0
H1203 H 0.0458 0.68891 0.37124 0.0
H1204 H 0.99792 0.60783 0.44673 0.0
H1205 H 0.00734 0.63772 0.4174 0.0
C1206 C 0.30593 0.99191 0.2831 0.0
C1207 C 0.28493 0.00473 0.28599 0.0
C1208 C 0.32332 0.99261 0.30038 0.0
C1209 C 0.33223 1.00143 0.36278 0.0
H1210 H 0.39679 0.01593 0.34562 0.0
C1211 C 0.40447 0.01444 0.43243 0.0
C1212 C 0.42683 0.00522 0.42728 0.0
C1213 C 0.38707 0.01498 0.41513 0.0
C1214 C 0.3789 0.01154 0.35064 0.0
H1215 H 0.26579 0.02853 0.3091 0.0
H1216 H 0.29608 0.02917 0.33967 0.0
H1217 H 0.36635 0.01547 0.31525 0.0
H1218 H 0.44853 0.98891 0.40032 0.0
H1219 H 0.41792 0.98918 0.37028 0.0
H1220 H 0.34472 0.99682 0.398 0.0
C1221 C 0.29892 0.01863 0.32398 0.0
C1222 C 0.36154 0.01139 0.3333 0.0
C1223 C 0.28163 0.01818 0.30656 0.0
C1224 C 0.43149 0.99639 0.40464 0.0
C1225 C 0.414 0.99663 0.38744 0.0
C1226 C 0.34963 1.00128 0.38009 0.0
C1227 C 0.31988 0.0059 0.32094 0.0
C1228 C 0.33812 0.00634 0.33928 0.0
C1229 C 0.39165 0.00601 0.39248 0.0
C1230 C 0.37315 0.00634 0.37418 0.0
H1231 H 0.30878 0.98104 0.26764 0.0
H1232 H 0.33931 0.98245 0.29788 0.0
H1233 H 0.31425 0.99724 0.36766 0.0
H1234 H 0.40052 0.02159 0.44971 0.0
H1235 H 0.37014 0.02267 0.41942 0.0
C1236 C 0.0227 0.19019 0.2732 0.0
C1237 C 1.0017 0.20102 0.26584 0.0
C1238 C 0.02234 0.17245 0.29042 0.0
C1239 C 0.98331 0.1323 0.32507 0.0
H1240 H 0.03032 0.14153 0.37392 0.0
C1241 C 0.99518 0.06657 0.40181 0.0
C1242 C 1.00017 0.07519 0.4246 0.0
C1243 C 0.99485 0.08158 0.38229 0.0
C1244 C 0.01694 0.13883 0.36057 0.0
H1245 H 0.96384 0.20108 0.26981 0.0
H1246 H 0.96301 0.16974 0.29939 0.0
H1247 H 0.03104 0.16616 0.33863 0.0
H1248 H 0.00847 0.10677 0.4445 0.0
H1249 H 0.00781 0.13319 0.41018 0.0
H1250 H 0.96892 0.10531 0.34723 0.0
C1251 C 0.9798 0.1747 0.29181 0.0
C1252 C 0.01757 0.15271 0.3401 0.0
C1253 C 0.9802 0.19249 0.27463 0.0
C1254 C 0.00458 0.09947 0.42728 0.0
C1255 C 0.00435 0.11458 0.40757 0.0
C1256 C 0.98273 0.11838 0.3455 0.0
C1257 C 1.00095 0.16523 0.30073 0.0
C1258 C 1.0008 0.14961 0.32203 0.0
C1259 C 0.99949 0.10577 0.38479 0.0
C1260 C 0.99957 0.1214 0.36352 0.0
H1261 H 0.03954 0.1969 0.26718 0.0
H1262 H 0.03893 0.16525 0.29651 0.0
H1263 H 0.97013 0.12937 0.31158 0.0
H1264 H 0.99157 0.04804 0.39883 0.0
H1265 H 0.99138 0.07404 0.36508 0.0
C1266 C 0.81392 0.98231 0.27293 0.0
C1267 C 0.80434 0.00381 0.26523 0.0
C1268 C 0.83138 0.98188 0.29043 0.0
C1269 C 0.85096 0.01836 0.34099 0.0
H1270 H 0.8998 0.97097 0.34671 0.0
C1271 C 0.90436 0.00415 0.42805 0.0
C1272 C 0.92869 1.00024 0.42527 0.0
C1273 C 0.88927 0.00418 0.40831 0.0
C1274 C 0.88633 0.98444 0.3454 0.0
H1275 H 0.80638 0.04172 0.26879 0.0
H1276 H 0.83758 0.04115 0.29854 0.0
H1277 H 0.87625 0.9729 0.31085 0.0
H1278 H 0.95592 0.99293 0.39919 0.0
H1279 H 0.93004 0.99329 0.36551 0.0
H1280 H 0.86136 0.03012 0.37543 0.0
C1281 C 0.83137 0.02454 0.29144 0.0
C1282 C 0.87267 0.98542 0.32483 0.0
C1283 C 0.81391 0.02493 0.27396 0.0
C1284 C 0.93736 0.99608 0.40232 0.0
C1285 C 0.9224 0.99606 0.3828 0.0
C1286 C 0.86463 0.01736 0.36159 0.0
C1287 C 0.83955 0.00298 0.30072 0.0
C1288 C 0.85484 1.00245 0.32226 0.0
C1289 C 0.89815 1.00013 0.3854 0.0
C1290 C 0.8826 1.00046 0.36405 0.0
H1291 H 0.80631 0.96578 0.26708 0.0
H1292 H 0.83708 0.96493 0.29715 0.0
H1293 H 0.83709 0.03143 0.33993 0.0
H1294 H 0.89702 0.00743 0.44537 0.0
H1295 H 0.87063 0.00721 0.41101 0.0
C1296 C 0.01201 0.81926 0.26944 0.0
C1297 C 0.99559 0.80077 0.26983 0.0
C1298 C 0.01065 0.83762 0.286 0.0
C1299 C 0.97417 0.86155 0.33649 0.0
H1300 H 0.03555 0.87968 0.36041 0.0
C1301 C 0.98872 0.90685 0.42799 0.0
C1302 C 0.00258 0.92738 0.42723 0.0
C1303 C 0.98712 0.89204 0.40814 0.0
C1304 C 0.01827 0.87486 0.35388 0.0
H1305 H 0.96425 0.78754 0.28694 0.0
H1306 H 0.96186 0.81907 0.31586 0.0
H1307 H 0.03288 0.85501 0.32543 0.0
H1308 H 0.02629 0.94801 0.40544 0.0
H1309 H 0.02408 0.92192 0.37132 0.0
H1310 H 0.95979 0.88083 0.3658 0.0
C1311 C 0.97555 0.82005 0.3026 0.0
C1312 C 0.01666 0.86088 0.33358 0.0
C1313 C 0.97674 0.80196 0.28583 0.0
C1314 C 0.01542 0.93233 0.40658 0.0
C1315 C 0.01421 0.91736 0.38702 0.0
C1316 C 0.97583 0.87524 0.35706 0.0
C1317 C 0.99314 0.83757 0.3037 0.0
C1318 C 0.99459 0.85396 0.32449 0.0
C1319 C 0.99978 0.89724 0.38739 0.0
C1320 C 0.9979 0.88205 0.36599 0.0
H1321 H 0.02701 0.81849 0.25765 0.0
H1322 H 0.02414 0.8511 0.28571 0.0
H1323 H 0.95682 0.85698 0.33002 0.0
H1324 H 0.97848 0.9027 0.44357 0.0
H1325 H 0.97599 0.87655 0.40898 0.0
C1326 C 0.18983 0.02171 0.27274 0.0
C1327 C 0.20061 1.00054 0.26572 0.0
C1328 C 0.17233 0.02171 0.2902 0.0
C1329 C 0.15462 0.98582 0.34187 0.0
H1330 H 0.10325 0.03062 0.34596 0.0
C1331 C 0.10015 1.00029 0.42832 0.0
C1332 C 0.07566 0.00284 0.42533 0.0
C1333 C 0.11531 1.00021 0.40863 0.0
C1334 C 0.11744 0.01788 0.34511 0.0
H1335 H 0.20066 0.9627 0.27046 0.0
H1336 H 0.16941 0.96247 0.30015 0.0
H1337 H 0.127 0.02883 0.31023 0.0
H1338 H 0.0482 0.0075 0.39887 0.0
H1339 H 0.07421 0.00709 0.36532 0.0
H1340 H 0.14476 0.97462 0.37666 0.0
C1341 C 0.1747 0.97917 0.29254 0.0
C1342 C 0.1312 0.01698 0.32461 0.0
C1343 C 0.1922 0.9792 0.27509 0.0
C1344 C 0.06689 0.00548 0.40219 0.0
C1345 C 0.0819 0.00546 0.38273 0.0
C1346 C 0.14084 0.98673 0.3624 0.0
C1347 C 0.16532 1.00052 0.30114 0.0
C1348 C 0.14995 1.00088 0.32262 0.0
C1349 C 0.10633 0.00286 0.38555 0.0
C1350 C 0.12196 0.00268 0.36427 0.0
H1351 H 0.19653 0.03844 0.26638 0.0
H1352 H 0.16569 0.03852 0.29637 0.0
H1353 H 0.16918 0.9735 0.34125 0.0
H1354 H 0.10758 0.99821 0.44579 0.0
H1355 H 0.13407 0.99832 0.4115 0.0
C1356 C 0.98162 0.81486 0.73393 0.0
C1357 C 0.00277 0.80447 0.74149 0.0
C1358 C 0.98178 0.8327 0.71682 0.0
C1359 C 0.01858 0.8516 0.66654 0.0
H1360 H 0.97319 0.90242 0.66173 0.0
C1361 C 0.00433 0.90551 0.57984 0.0
C1362 C 1.00154 0.93002 0.58265 0.0
C1363 C 0.0044 0.89048 0.59961 0.0
C1364 C 0.9861 0.88838 0.6628 0.0
H1365 H 0.04069 0.80545 0.73815 0.0
H1366 H 0.04115 0.83725 0.70897 0.0
H1367 H 0.97462 0.8785 0.69742 0.0
H1368 H 0.99643 0.95768 0.60884 0.0
H1369 H 0.9968 0.93184 0.64261 0.0
H1370 H 0.03023 0.8617 0.63198 0.0
C1371 C 0.02437 0.83142 0.71595 0.0
C1372 C 0.9868 0.87455 0.68326 0.0
C1373 C 0.02417 0.8136 0.73309 0.0
C1374 C 0.99865 0.93897 0.60569 0.0
C1375 C 0.99866 0.92406 0.62525 0.0
C1376 C 0.01785 0.86542 0.64603 0.0
C1377 C 0.00313 0.84041 0.70677 0.0
C1378 C 0.00309 0.85599 0.68547 0.0
C1379 C 1.00151 0.89961 0.62259 0.0
C1380 C 1.00165 0.88407 0.64391 0.0
H1381 H 0.96487 0.80761 0.73956 0.0
H1382 H 0.96506 0.83905 0.71015 0.0
H1383 H 0.03107 0.83718 0.66736 0.0
H1384 H 0.0066 0.89796 0.56243 0.0
H1385 H 0.00648 0.87168 0.59689 0.0
C1386 C 0.19351 0.02622 0.73082 0.0
C1387 C 0.20221 0.00492 0.74002 0.0
C1388 C 0.17583 0.02617 0.71356 0.0
C1389 C 0.13225 0.9882 0.68182 0.0
H1390 H 0.14493 0.03089 0.62983 0.0
C1391 C 0.0671 0.99964 0.60477 0.0
C1392 C 0.07572 1.0025 0.5816 0.0
C1393 C 0.08225 0.99962 0.62415 0.0
C1394 C 0.14125 0.0187 0.64407 0.0
H1395 H 0.19852 0.96699 0.7392 0.0
H1396 H 0.16737 0.96676 0.7095 0.0
H1397 H 0.16977 0.03199 0.66494 0.0
H1398 H 0.10749 0.00742 0.56098 0.0
H1399 H 0.13418 0.00727 0.59509 0.0
H1400 H 0.10411 0.97451 0.66074 0.0
C1401 C 0.17392 0.9836 0.71569 0.0
C1402 C 0.15527 0.01958 0.66444 0.0
C1403 C 0.1916 0.98368 0.73298 0.0
C1404 C 0.10017 0.00519 0.57848 0.0
C1405 C 0.11545 0.00524 0.59807 0.0
C1406 C 0.11823 0.98733 0.66148 0.0
C1407 C 0.16656 0.00478 0.70496 0.0
C1408 C 0.15093 0.0044 0.68366 0.0
C1409 C 0.10664 1.00241 0.62118 0.0
C1410 C 0.12245 0.00264 0.64234 0.0
H1411 H 0.20183 0.04279 0.73548 0.0
H1412 H 0.17029 0.04286 0.70609 0.0
H1413 H 0.12831 0.97625 0.69619 0.0
H1414 H 0.04844 0.99745 0.60816 0.0
H1415 H 0.07468 0.99782 0.64159 0.0
C1416 C 0.9831 0.19346 0.73214 0.0
C1417 C 0.00477 0.2023 0.74019 0.0
C1418 C 0.98234 0.17589 0.71474 0.0
C1419 C 0.01908 0.15455 0.66506 0.0
H1420 H 0.96974 0.10785 0.65828 0.0
C1421 C 0.00519 0.10129 0.57789 0.0
C1422 C 1.00015 0.07714 0.58068 0.0
C1423 C 0.00518 0.11652 0.59754 0.0
C1424 C 0.98376 0.12071 0.65989 0.0
H1425 H 0.04258 0.19874 0.73742 0.0
H1426 H 0.04139 0.16731 0.70791 0.0
H1427 H 0.97187 0.13142 0.69412 0.0
H1428 H 0.99046 0.05044 0.60652 0.0
H1429 H 0.99079 0.07653 0.6401 0.0
H1430 H 0.03122 0.14348 0.63098 0.0
C1431 C 0.02491 0.17422 0.71462 0.0
C1432 C 0.98486 0.13439 0.68045 0.0
C1433 C 0.02564 0.19181 0.73198 0.0
C1434 C 0.99463 0.06884 0.60347 0.0
C1435 C 0.99457 0.08393 0.6229 0.0
C1436 C 0.01799 0.14084 0.64449 0.0
C1437 C 0.00328 0.16683 0.70492 0.0
C1438 C 0.00259 0.15147 0.68341 0.0
C1439 C 0.99991 0.10798 0.62034 0.0
C1440 C 1.00038 0.12362 0.64164 0.0
H1441 H 0.96679 0.20177 0.73758 0.0
H1442 H 0.96534 0.17082 0.7077 0.0
H1443 H 0.03272 0.16784 0.66641 0.0
H1444 H 0.00952 0.10833 0.56067 0.0
H1445 H 0.00918 0.13501 0.59485 0.0
C1446 C 0.81271 0.98121 0.73232 0.0
C1447 C 0.80333 1.00247 0.74092 0.0
C1448 C 0.83035 0.98135 0.71502 0.0
C1449 C 0.87237 0.01992 0.68185 0.0
H1450 H 0.86085 0.97528 0.63125 0.0
C1451 C 0.93721 0.00875 0.60455 0.0
C1452 C 0.92857 0.00459 0.58159 0.0
C1453 C 0.92221 0.00888 0.62404 0.0
C1454 C 0.86419 0.98802 0.64509 0.0
H1455 H 0.80584 0.04047 0.73905 0.0
H1456 H 0.8369 0.04087 0.7093 0.0
H1457 H 0.8364 0.97427 0.66662 0.0
H1458 H 0.8969 0.99757 0.56142 0.0
H1459 H 0.87044 0.99799 0.59571 0.0
H1460 H 0.89973 0.03409 0.66008 0.0
C1461 C 0.83092 0.024 0.71598 0.0
C1462 C 0.85041 0.98719 0.66561 0.0
C1463 C 0.81329 0.02383 0.73331 0.0
C1464 C 0.90422 1.00082 0.57876 0.0
C1465 C 0.88909 1.00091 0.59846 0.0
C1466 C 0.88613 0.02075 0.66134 0.0
C1467 C 0.83889 0.00278 0.70578 0.0
C1468 C 0.85434 0.00308 0.68435 0.0
C1469 C 0.89794 0.00494 0.62139 0.0
C1470 C 0.88233 0.00475 0.64269 0.0
H1471 H 0.8049 0.96453 0.73742 0.0
H1472 H 0.8364 0.96464 0.70799 0.0
H1473 H 0.876 0.03242 0.69583 0.0
H1474 H 0.95578 0.01183 0.6077 0.0
H1475 H 0.92983 0.01164 0.64133 0.0
C1476 C 0.27274 0.02373 0.19171 0.0
C1477 C 0.26429 0.00266 0.20163 0.0
C1478 C 0.29027 0.02328 0.1743 0.0
C1479 C 0.32457 0.98373 0.13403 0.0
H1480 H 0.37412 0.02972 0.14445 0.0
C1481 C 0.40219 0.99401 0.06952 0.0
C1482 C 0.42489 0.99936 0.07811 0.0
C1483 C 0.38265 0.99383 0.08442 0.0
C1484 C 0.3606 0.01659 0.14144 0.0
H1485 H 0.26663 0.96463 0.20028 0.0
H1486 H 0.2968 0.96366 0.16965 0.0
H1487 H 0.33849 0.031 0.16845 0.0
H1488 H 0.4446 0.00838 0.10958 0.0
H1489 H 0.4102 0.00778 0.13592 0.0
H1490 H 0.34693 0.96889 0.10752 0.0
C1491 C 0.28984 0.98062 0.17501 0.0
C1492 C 0.3399 0.01756 0.15495 0.0
C1493 C 0.27227 0.98111 0.19239 0.0
C1494 C 0.42745 0.00414 0.10233 0.0
C1495 C 0.40768 0.00399 0.11737 0.0
C1496 C 0.34526 0.98273 0.12058 0.0
C1497 C 0.29989 1.00172 0.16654 0.0
C1498 C 0.32153 1.0012 0.15138 0.0
C1499 C 0.38497 0.99889 0.10854 0.0
C1500 C 0.36354 0.99922 0.12397 0.0
H1501 H 0.26735 0.04057 0.19897 0.0
H1502 H 0.29715 0.03988 0.16783 0.0
H1503 H 0.31088 0.97085 0.13069 0.0
H1504 H 0.3993 0.99009 0.05104 0.0
H1505 H 0.36553 0.99022 0.07679 0.0
C1506 C 0.98162 0.27258 0.1924 0.0
C1507 C 0.00311 0.26421 0.20136 0.0
C1508 C 0.98123 0.28976 0.17461 0.0
C1509 C 0.01839 0.32261 0.13122 0.0
H1510 H 0.97482 0.37372 0.14432 0.0
C1511 C 0.00603 0.40038 0.06699 0.0
C1512 C 0.00304 0.42338 0.07603 0.0
C1513 C 0.00615 0.38075 0.08184 0.0
C1514 C 0.98723 0.35972 0.14052 0.0
H1515 H 0.04098 0.26628 0.19795 0.0
H1516 H 0.04046 0.29574 0.16656 0.0
H1517 H 0.97427 0.33833 0.16884 0.0
H1518 H 0.99794 0.44344 0.10818 0.0
H1519 H 0.99828 0.40889 0.13431 0.0
H1520 H 0.03174 0.34421 0.10328 0.0
C1521 C 0.02381 0.28902 0.17302 0.0
C1522 C 0.98667 0.3392 0.15435 0.0
C1523 C 0.02416 0.27187 0.19083 0.0
C1524 C 1.00028 0.42608 0.10055 0.0
C1525 C 1.00033 0.40624 0.11551 0.0
C1526 C 0.01892 0.34309 0.11738 0.0
C1527 C 0.00238 0.29901 0.16547 0.0
C1528 C 1.00223 0.32033 0.14988 0.0
C1529 C 0.00333 0.3833 0.10629 0.0
C1530 C 0.00331 0.36192 0.12179 0.0
H1531 H 0.96518 0.26745 0.20066 0.0
H1532 H 0.96439 0.29669 0.16892 0.0
H1533 H 0.03061 0.3085 0.1272 0.0
H1534 H 0.00822 0.39732 0.04827 0.0
H1535 H 0.00808 0.36343 0.07399 0.0
C1536 C 0.73195 0.98092 0.19187 0.0
C1537 C 0.74094 1.00217 0.20089 0.0
C1538 C 0.71462 0.98109 0.17425 0.0
C1539 C 0.6819 0.01978 0.13187 0.0
H1540 H 0.63077 0.97601 0.14402 0.0
C1541 C 0.6038 0.00998 0.06778 0.0
C1542 C 0.58093 0.00604 0.07667 0.0
C1543 C 0.62344 0.00978 0.08258 0.0
C1544 C 0.64476 0.98851 0.1405 0.0
H1545 H 0.73976 0.04015 0.19777 0.0
H1546 H 0.70994 0.0406 0.1668 0.0
H1547 H 0.66624 0.97458 0.16826 0.0
H1548 H 0.56107 0.99901 0.10855 0.0
H1549 H 0.5956 0.99895 0.13467 0.0
H1550 H 0.66017 0.0342 0.1046 0.0
C1551 C 0.71633 0.0237 0.17301 0.0
C1552 C 0.66535 0.98744 0.15416 0.0
C1553 C 0.7337 0.0235 0.19059 0.0
C1554 C 0.57833 1.00216 0.10105 0.0
C1555 C 0.59818 1.00194 0.11598 0.0
C1556 C 0.66132 0.02088 0.11826 0.0
C1557 C 0.70574 1.00254 0.16539 0.0
C1558 C 0.68427 0.00302 0.15001 0.0
C1559 C 0.62102 0.00574 0.10688 0.0
C1560 C 0.64247 0.0052 0.12229 0.0
H1561 H 0.73676 0.96428 0.19995 0.0
H1562 H 0.7073 0.96442 0.16848 0.0
H1563 H 0.69603 0.03204 0.12805 0.0
H1564 H 0.60676 0.01309 0.04917 0.0
H1565 H 0.64065 0.01235 0.07476 0.0
C1566 C 0.97534 0.71546 0.2116 0.0
C1567 C 0.99271 0.73308 0.21049 0.0
C1568 C 0.97356 0.69838 0.19387 0.0
C1569 C 0.99165 0.68115 0.13361 0.0
H1570 H 0.9934 0.61797 0.15985 0.0
C1571 C 0.01178 0.60039 0.07477 0.0
C1572 C 1.00094 0.57866 0.07983 0.0
C1573 C 0.00991 0.61945 0.09034 0.0
C1574 C 0.99248 0.63538 0.15206 0.0
H1575 H 0.02097 0.74747 0.18937 0.0
H1576 H 0.0174 0.71802 0.1578 0.0
H1577 H 0.98964 0.65181 0.18598 0.0
H1578 H 0.97969 0.55989 0.10537 0.0
H1579 H 0.97569 0.59334 0.1323 0.0
H1580 H 0.99403 0.66486 0.09967 0.0
C1581 C 0.00513 0.71742 0.17242 0.0
C1582 C 0.99038 0.65486 0.16713 0.0
C1583 C 0.00704 0.73444 0.19034 0.0
C1584 C 0.98846 0.57632 0.10109 0.0
C1585 C 0.98622 0.59558 0.11655 0.0
C1586 C 0.99339 0.66164 0.11847 0.0
C1587 C 0.98908 0.69857 0.17455 0.0
C1588 C 0.99008 0.678 0.15813 0.0
C1589 C 0.99675 0.61755 0.11131 0.0
C1590 C 0.99408 0.63841 0.12746 0.0
H1591 H 0.96439 0.71376 0.22718 0.0
H1592 H 0.9608 0.68431 0.19587 0.0
H1593 H 0.99132 0.69873 0.12611 0.0
H1594 H 0.02178 0.60272 0.05865 0.0
H1595 H 0.0189 0.63568 0.08585 0.0
C1596 C 0.27427 0.98056 0.81354 0.0
C1597 C 0.26554 1.00186 0.80436 0.0
C1598 C 0.29137 0.98063 0.83138 0.0
C1599 C 0.32351 0.01877 0.87453 0.0
H1600 H 0.37486 0.97521 0.8625 0.0
C1601 C 0.40062 0.00741 0.93976 0.0
C1602 C 0.42366 0.00413 0.93103 0.0
C1603 C 0.38117 0.00744 0.9247 0.0
C1604 C 0.3608 0.98763 0.866 0.0
H1605 H 0.26698 0.03983 0.80741 0.0
H1606 H 0.29637 0.0401 0.83887 0.0
H1607 H 0.3398 0.97419 0.83764 0.0
H1608 H 0.444 0.99844 0.89917 0.0
H1609 H 0.40979 0.99863 0.87266 0.0
H1610 H 0.34475 0.0326 0.90252 0.0
C1611 C 0.28994 0.02326 0.83255 0.0
C1612 C 0.34046 0.98681 0.85198 0.0
C1613 C 0.27283 0.02316 0.81469 0.0
C1614 C 0.42659 1.00102 0.90657 0.0
C1615 C 0.40695 1.00098 0.89139 0.0
C1616 C 0.34383 0.01957 0.88857 0.0
C1617 C 0.30026 1.00203 0.84035 0.0
C1618 C 0.32148 1.00232 0.85607 0.0
C1619 C 0.38395 0.00422 0.90031 0.0
C1620 C 0.36275 0.00397 0.88457 0.0
H1621 H 0.26942 0.96393 0.80545 0.0
H1622 H 0.2985 0.96392 0.83727 0.0
H1623 H 0.30932 0.03098 0.87827 0.0
H1624 H 0.3974 0.00991 0.95842 0.0
H1625 H 0.36381 0.00959 0.93234 0.0
C1626 C 0.02394 0.27454 0.81437 0.0
C1627 C 0.00309 0.26689 0.80343 0.0
C1628 C 0.02331 0.292 0.83187 0.0
C1629 C 0.9835 0.32704 0.87103 0.0
H1630 H 0.03096 0.3756 0.8627 0.0
C1631 C 0.99443 0.40335 0.93716 0.0
C1632 C 1.00013 0.42616 0.92899 0.0
C1633 C 0.99416 0.38402 0.92195 0.0
C1634 C 0.01744 0.36235 0.86512 0.0
H1635 H 0.96521 0.27066 0.80298 0.0
H1636 H 0.96391 0.30067 0.83385 0.0
H1637 H 0.03204 0.3402 0.83821 0.0
H1638 H 0.00969 0.44626 0.89792 0.0
H1639 H 0.00909 0.41221 0.87106 0.0
H1640 H 0.96858 0.34939 0.89755 0.0
C1641 C 0.9808 0.29313 0.82918 0.0
C1642 C 0.01827 0.3418 0.85134 0.0
C1643 C 0.98147 0.27567 0.81166 0.0
C1644 C 0.00523 0.42903 0.90487 0.0
C1645 C 0.00504 0.40946 0.88952 0.0
C1646 C 0.98268 0.34755 0.88481 0.0
C1647 C 1.0018 0.30232 0.83874 0.0
C1648 C 1.00136 0.32379 0.85415 0.0
C1649 C 0.99953 0.38667 0.89793 0.0
C1650 C 0.99971 0.36546 0.88216 0.0
H1651 H 0.04087 0.26854 0.8079 0.0
H1652 H 0.0398 0.29826 0.83916 0.0
H1653 H 0.97019 0.31362 0.87376 0.0
H1654 H 0.99023 0.40022 0.95554 0.0
H1655 H 0.9902 0.3668 0.92923 0.0
C1656 C 0.73156 0.98378 0.81462 0.0
C1657 C 0.73893 0.00502 0.80422 0.0
C1658 C 0.71412 0.98374 0.83213 0.0
C1659 C 0.66316 0.02019 0.85067 0.0
H1660 H 0.65842 0.97452 0.90127 0.0
C1661 C 0.57674 0.00639 0.90523 0.0
C1662 C 0.57975 0.00331 0.92968 0.0
C1663 C 0.59636 0.00635 0.88999 0.0
C1664 C 0.65946 0.98751 0.8873 0.0
H1665 H 0.73481 0.04293 0.80486 0.0
H1666 H 0.70516 0.04308 0.83616 0.0
H1667 H 0.69406 0.97611 0.87741 0.0
H1668 H 0.60616 0.99755 0.95698 0.0
H1669 H 0.63959 0.99778 0.93084 0.0
H1670 H 0.62866 0.03184 0.86086 0.0
C1671 C 0.71249 0.02635 0.83055 0.0
C1672 C 0.6799 0.98829 0.87347 0.0
C1673 C 0.7299 0.02635 0.81302 0.0
C1674 C 0.60283 1.00002 0.93833 0.0
C1675 C 0.62222 0.99992 0.92323 0.0
C1676 C 0.64268 0.0194 0.86451 0.0
C1677 C 0.70355 0.00499 0.83956 0.0
C1678 C 0.68213 0.0047 0.855 0.0
C1679 C 0.61938 0.00306 0.89884 0.0
C1680 C 0.64059 0.00314 0.88312 0.0
H1681 H 0.73764 0.96707 0.80761 0.0
H1682 H 0.70768 0.96692 0.83848 0.0
H1683 H 0.66396 0.03277 0.83631 0.0
H1684 H 0.55931 0.00898 0.89789 0.0
H1685 H 0.59347 0.00867 0.87125 0.0
C1686 C 0.02612 0.73066 0.81281 0.0
C1687 C 0.00474 0.73991 0.80447 0.0
C1688 C 0.02631 0.71366 0.83077 0.0
C1689 C 0.98895 0.6828 0.87551 0.0
H1690 H 0.03072 0.63021 0.86244 0.0
C1691 C 0.99961 0.60536 0.9405 0.0
C1692 C 1.00208 0.58222 0.93167 0.0
C1693 C 0.99986 0.62485 0.92546 0.0
C1694 C 0.0188 0.64463 0.86624 0.0
H1695 H 0.96694 0.73947 0.80896 0.0
H1696 H 0.96713 0.71018 0.84052 0.0
H1697 H 0.03188 0.66514 0.83736 0.0
H1698 H 0.00663 0.56174 0.89969 0.0
H1699 H 0.00685 0.596 0.87323 0.0
H1700 H 0.9754 0.66203 0.90397 0.0
C1701 C 0.98386 0.71616 0.83354 0.0
C1702 C 0.01972 0.66489 0.85208 0.0
C1703 C 0.9837 0.73318 0.8156 0.0
C1704 C 0.00468 0.57923 0.90717 0.0
C1705 C 0.00496 0.5989 0.89201 0.0
C1706 C 0.98803 0.66255 0.88965 0.0
C1707 C 0.00508 0.70538 0.84062 0.0
C1708 C 0.00484 0.6843 0.85652 0.0
C1709 C 0.00252 0.62199 0.90101 0.0
C1710 C 0.00298 0.64318 0.88527 0.0
H1711 H 0.04252 0.7351 0.80408 0.0
H1712 H 0.04303 0.70614 0.83608 0.0
H1713 H 0.97726 0.69734 0.87954 0.0
H1714 H 0.99754 0.60862 0.9592 0.0
H1715 H 0.99835 0.64227 0.93315 0.0
C1716 C 0.19212 0.27472 0.02601 0.0
C1717 C 0.20132 0.26587 0.00478 0.0
C1718 C 0.17454 0.29209 0.02581 0.0
C1719 C 0.13216 0.32474 0.98729 0.0
H1720 H 0.14406 0.37592 0.03118 0.0
C1721 C 0.06713 0.40186 0.99854 0.0
C1722 C 0.07575 0.42493 1.00209 0.0
C1723 C 0.08221 0.38243 0.9985 0.0
C1724 C 0.14061 0.36191 0.01865 0.0
H1725 H 0.19862 0.26737 0.96679 0.0
H1726 H 0.16764 0.29725 0.96629 0.0
H1727 H 0.16866 0.34063 0.0323 0.0
H1728 H 0.10746 0.44535 0.0082 0.0
H1729 H 0.13405 0.41115 0.00795 0.0
H1730 H 0.10451 0.34624 0.97325 0.0
C1731 C 0.17372 0.29072 0.98317 0.0
C1732 C 0.15448 0.34145 0.01954 0.0
C1733 C 0.1913 0.27334 0.98341 0.0
C1734 C 0.10014 0.42792 0.00542 0.0
C1735 C 0.11536 0.40828 0.00542 0.0
C1736 C 0.11831 0.34518 0.98641 0.0
C1737 C 0.16588 0.30112 0.00434 0.0
C1738 C 0.15041 0.32251 0.00393 0.0
C1739 C 0.10653 0.38525 1.00193 0.0
C1740 C 0.12224 0.36403 1.00215 0.0
H1741 H 0.19999 0.26972 0.04269 0.0
H1742 H 0.1686 0.29929 0.04247 0.0
H1743 H 0.12844 0.3106 0.97501 0.0
H1744 H 0.04853 0.39856 0.99589 0.0
H1745 H 0.07463 0.36504 0.99618 0.0
C1746 C 0.19143 0.73273 0.02457 0.0
C1747 C 0.20117 0.74038 0.00313 0.0
C1748 C 0.1738 0.71539 0.0249 0.0
C1749 C 0.15385 0.66511 0.98819 0.0
H1750 H 0.10504 0.65954 0.0356 0.0
C1751 C 0.10006 0.57826 1.00215 0.0
C1752 C 0.07576 0.58111 0.00621 0.0
C1753 C 0.11522 0.59795 1.00213 0.0
C1754 C 0.11849 0.66081 0.02212 0.0
H1755 H 0.1992 0.73695 0.96521 0.0
H1756 H 0.1677 0.70752 0.9656 0.0
H1757 H 0.1288 0.69526 0.03376 0.0
H1758 H 0.04868 0.60722 0.0139 0.0
H1759 H 0.07467 0.64084 0.01353 0.0
H1760 H 0.14323 0.63078 0.97632 0.0
C1761 C 0.17392 0.71452 0.98225 0.0
C1762 C 0.13227 0.6813 0.02119 0.0
C1763 C 0.19156 0.73182 0.98196 0.0
C1764 C 0.0672 0.60406 0.01058 0.0
C1765 C 0.08223 0.62354 0.01061 0.0
C1766 C 0.14005 0.64459 0.98912 0.0
C1767 C 0.1656 0.70524 0.00374 0.0
C1768 C 0.15012 0.68381 0.00417 0.0
C1769 C 0.10645 0.62088 0.00636 0.0
C1770 C 0.12208 0.64218 0.00603 0.0
H1771 H 0.19905 0.73844 0.04114 0.0
H1772 H 0.16799 0.70868 0.0418 0.0
H1773 H 0.16772 0.66612 0.97512 0.0
H1774 H 0.10732 0.56093 0.99873 0.0
H1775 H 0.13383 0.59519 0.99898 0.0
C1776 C 0.27298 0.19197 0.98131 0.0
C1777 C 0.26422 0.20115 1.00258 0.0
C1778 C 0.29013 0.17417 0.98144 0.0
C1779 C 0.32265 0.13155 0.01997 0.0
H1780 H 0.37379 0.14353 0.97617 0.0
C1781 C 0.40047 0.06712 0.00984 0.0
C1782 C 0.42338 0.076 0.0061 0.0
C1783 C 0.38087 0.08197 0.00966 0.0
C1784 C 0.3598 0.14006 0.98868 0.0
H1785 H 0.26558 0.19814 0.04055 0.0
H1786 H 0.29508 0.16684 0.04093 0.0
H1787 H 0.33847 0.16798 0.97485 0.0
H1788 H 0.44334 0.10791 0.99939 0.0
H1789 H 0.40888 0.13409 0.99933 0.0
H1790 H 0.34424 0.10409 0.03426 0.0
C1791 C 0.28865 0.17307 0.02406 0.0
C1792 C 0.3393 0.15383 0.98767 0.0
C1793 C 0.27147 0.19084 0.0239 0.0
C1794 C 0.42604 0.10041 1.00238 0.0
C1795 C 0.40625 0.11538 1.00217 0.0
C1796 C 0.34314 0.1178 0.02099 0.0
C1797 C 0.29904 0.16529 0.00287 0.0
C1798 C 0.32038 0.14975 0.00327 0.0
C1799 C 0.38337 0.1063 0.00581 0.0
C1800 C 0.36199 0.12178 0.00531 0.0
H1801 H 0.26816 0.20004 0.96467 0.0
H1802 H 0.29731 0.16827 0.96475 0.0
H1803 H 0.30852 0.1278 0.03224 0.0
H1804 H 0.39746 0.04849 0.01281 0.0
H1805 H 0.36362 0.07418 0.01211 0.0
C1806 C 0.815 0.27196 0.02229 0.0
C1807 C 0.80433 0.26491 1.00109 0.0
C1808 C 0.83254 0.28938 0.02233 0.0
C1809 C 0.85031 0.34094 0.98642 0.0
H1810 H 0.90148 0.3453 0.03141 0.0
C1811 C 0.90434 0.42762 1.00106 0.0
C1812 C 0.92883 0.42471 0.00362 0.0
C1813 C 0.88925 0.40787 1.00095 0.0
C1814 C 0.88733 0.34437 0.01862 0.0
H1815 H 0.80455 0.26946 0.96324 0.0
H1816 H 0.83589 0.29907 0.96308 0.0
H1817 H 0.87787 0.30946 0.02958 0.0
H1818 H 0.95638 0.39834 0.00827 0.0
H1819 H 0.93051 0.36469 0.00781 0.0
H1820 H 0.86006 0.37576 0.97522 0.0
C1821 C 0.83048 0.29152 0.97977 0.0
C1822 C 0.87367 0.32381 0.01769 0.0
C1823 C 0.81293 0.27413 0.97977 0.0
C1824 C 0.93769 0.4016 0.00624 0.0
C1825 C 0.92275 0.38208 0.00619 0.0
C1826 C 0.86398 0.36153 0.98735 0.0
C1827 C 0.8397 0.30021 1.00114 0.0
C1828 C 0.855 0.32173 1.00152 0.0
C1829 C 0.89833 0.38482 0.00359 0.0
C1830 C 0.88279 0.36349 0.00338 0.0
H1831 H 0.80816 0.26572 0.03901 0.0
H1832 H 0.83908 0.29563 0.03915 0.0
H1833 H 0.83579 0.34024 0.97404 0.0
H1834 H 0.89684 0.44507 0.99901 0.0
H1835 H 0.87048 0.41066 0.99905 0.0
C1836 C 0.73268 0.81555 0.02328 0.0
C1837 C 0.73995 0.80501 1.00208 0.0
C1838 C 0.7155 0.83333 0.02324 0.0
C1839 C 0.66477 0.85215 0.98677 0.0
H1840 H 0.66042 0.90319 0.032 0.0
C1841 C 0.5784 0.90649 1.00095 0.0
C1842 C 0.58123 0.93099 0.00384 0.0
C1843 C 0.59813 0.89141 1.00087 0.0
C1844 C 0.66136 0.88909 0.01913 0.0
H1845 H 0.73595 0.80567 0.96417 0.0
H1846 H 0.70674 0.83738 0.9639 0.0
H1847 H 0.69596 0.87908 0.0305 0.0
H1848 H 0.60742 0.95857 0.00908 0.0
H1849 H 0.64113 0.93266 0.00869 0.0
H1850 H 0.63026 0.86237 0.9752 0.0
C1851 C 0.71395 0.8317 0.98064 0.0
C1852 C 0.68173 0.87514 0.0184 0.0
C1853 C 0.73113 0.81393 0.98072 0.0
C1854 C 0.60426 0.93988 0.00679 0.0
C1855 C 0.62379 0.92491 0.00678 0.0
C1856 C 0.64436 0.86608 0.98752 0.0
C1857 C 0.70508 0.84086 1.00197 0.0
C1858 C 0.68379 0.85649 1.00216 0.0
C1859 C 0.62111 0.90047 0.00384 0.0
C1860 C 0.64239 0.88483 0.00365 0.0
H1861 H 0.7386 0.80846 0.04002 0.0
H1862 H 0.70909 0.83981 0.04003 0.0
H1863 H 0.66545 0.83767 0.97431 0.0
H1864 H 0.56101 0.89896 0.99863 0.0
H1865 H 0.59536 0.87263 0.99873 0.0
C1866 C 0.81212 0.73154 0.02666 0.0
C1867 C 0.80325 0.74058 0.00536 0.0
C1868 C 0.82967 0.71413 0.0266 0.0
C1869 C 0.87251 0.68157 0.98846 0.0
H1870 H 0.86004 0.63024 0.032 0.0
C1871 C 0.93731 0.60424 1.0001 0.0
C1872 C 0.92863 0.58118 0.00355 0.0
C1873 C 0.92226 0.6237 0.99994 0.0
C1874 C 0.86365 0.64428 0.01957 0.0
H1875 H 0.80653 0.73932 0.96741 0.0
H1876 H 0.83744 0.70937 0.96717 0.0
H1877 H 0.83549 0.66556 0.03297 0.0
H1878 H 0.89684 0.5608 0.00929 0.0
H1879 H 0.8703 0.59505 0.00886 0.0
H1880 H 0.90029 0.66008 0.97466 0.0
C1881 C 0.83113 0.7158 0.984 0.0
C1882 C 0.84981 0.66478 0.02038 0.0
C1883 C 0.81359 0.73323 0.9841 0.0
C1884 C 0.9042 0.57822 0.00661 0.0
C1885 C 0.88901 0.5979 0.00651 0.0
C1886 C 0.88636 0.6611 0.98766 0.0
C1887 C 0.83863 0.70522 0.00521 0.0
C1888 C 0.85408 0.68377 0.00489 0.0
C1889 C 0.8979 0.62093 0.00315 0.0
C1890 C 0.88222 0.64219 0.00327 0.0
H1891 H 0.80401 0.73643 0.04326 0.0
H1892 H 0.83533 0.7068 0.04331 0.0
H1893 H 0.87641 0.69576 0.97628 0.0
H1894 H 0.95594 0.60749 0.99756 0.0
H1895 H 0.92989 0.64107 0.9977 0.0
C1896 C 0.27296 0.81407 0.9839 0.0
C1897 C 0.26558 0.80374 0.00516 0.0
C1898 C 0.29047 0.83153 0.98381 0.0
C1899 C 0.34149 0.85008 0.02021 0.0
H1900 H 0.34644 0.90035 0.9742 0.0
C1901 C 0.42804 0.9045 0.00637 0.0
C1902 C 0.42503 0.92893 0.00309 0.0
C1903 C 0.40842 0.88924 0.00634 0.0
C1904 C 0.34535 0.88647 0.98729 0.0
H1905 H 0.26974 0.80444 0.04305 0.0
H1906 H 0.29948 0.83567 0.04311 0.0
H1907 H 0.31073 0.87662 0.97591 0.0
H1908 H 0.39865 0.95617 0.99693 0.0
H1909 H 0.36523 0.93004 0.9972 0.0
H1910 H 0.37599 0.86027 0.03185 0.0
C1911 C 0.29213 0.83004 0.02641 0.0
C1912 C 0.32486 0.87271 0.98814 0.0
C1913 C 0.27465 0.81256 0.02646 0.0
C1914 C 0.40197 0.93754 0.99957 0.0
C1915 C 0.38259 0.92243 0.99949 0.0
C1916 C 0.36201 0.86386 0.01936 0.0
C1917 C 0.30108 0.83897 0.00502 0.0
C1918 C 0.32256 0.85435 0.00467 0.0
C1919 C 0.38541 0.89807 0.00285 0.0
C1920 C 0.36419 0.88236 0.00298 0.0
H1921 H 0.26685 0.80704 0.96721 0.0
H1922 H 0.29691 0.83781 0.96696 0.0
H1923 H 0.34064 0.8358 0.03288 0.0
H1924 H 0.44545 0.89719 0.00915 0.0
H1925 H 0.41129 0.87052 0.00884 0.0
C1926 C 0.73151 0.19188 0.02469 0.0
C1927 C 0.7401 0.20147 0.00353 0.0
C1928 C 0.71392 0.17452 0.02438 0.0
C1929 C 0.67977 0.13378 0.98525 0.0
H1930 H 0.62995 0.145 0.03075 0.0
C1931 C 0.6023 0.06936 0.99626 0.0
C1932 C 0.5795 0.07799 1.00112 0.0
C1933 C 0.6218 0.0843 0.99603 0.0
C1934 C 0.64355 0.14177 0.01776 0.0
H1935 H 0.73795 0.19962 0.96552 0.0
H1936 H 0.70767 0.16909 0.96481 0.0
H1937 H 0.6656 0.169 0.03185 0.0
H1938 H 0.5596 0.1096 0.00922 0.0
H1939 H 0.59396 0.13602 0.00857 0.0
H1940 H 0.65749 0.10702 0.97074 0.0
C1941 C 0.71457 0.17466 0.98172 0.0
C1942 C 0.66425 0.15527 0.01864 0.0
C1943 C 0.73219 0.19198 0.98207 0.0
C1944 C 0.57682 0.1023 0.00541 0.0
C1945 C 0.59656 0.11739 0.0052 0.0
C1946 C 0.65909 0.12033 0.98436 0.0
C1947 C 0.70439 0.16651 0.00288 0.0
C1948 C 0.68273 0.1514 1.00246 0.0
C1949 C 0.61934 0.10852 1.00053 0.0
C1950 C 0.64072 0.124 1.00069 0.0
H1951 H 0.73685 0.19933 0.04146 0.0
H1952 H 0.70693 0.1683 0.04103 0.0
H1953 H 0.69354 0.1302 0.97252 0.0
H1954 H 0.60533 0.05082 0.99274 0.0
H1955 H 0.63898 0.07665 0.99278 0.0
C1956 C 0.52195 0.69196 0.77273 0.0
C1957 C 0.50055 0.70175 0.76506 0.0
C1958 C 0.52219 0.67378 0.78951 0.0
C1959 C 0.48522 0.65251 0.8388 0.0
H1960 H 0.53221 0.60316 0.84355 0.0
C1961 C 0.49939 0.5983 0.92501 0.0
C1962 C 0.50318 0.57392 0.92225 0.0
C1963 C 0.49932 0.61338 0.90529 0.0
C1964 C 0.51885 0.61676 0.84248 0.0
H1965 H 0.46265 0.69941 0.76792 0.0
H1966 H 0.46291 0.66705 0.79645 0.0
H1967 H 0.53068 0.62779 0.80829 0.0
H1968 H 0.51028 0.54654 0.89629 0.0
H1969 H 0.50992 0.57253 0.86245 0.0
H1970 H 0.47323 0.64133 0.87288 0.0
C1971 C 0.47958 0.6736 0.78985 0.0
C1972 C 0.51809 0.63102 0.82228 0.0
C1973 C 0.47938 0.69177 0.77308 0.0
C1974 C 0.50718 0.56515 0.89931 0.0
C1975 C 0.5072 0.58015 0.87976 0.0
C1976 C 0.48601 0.63829 0.85903 0.0
C1977 C 0.50099 0.66512 0.79912 0.0
C1978 C 0.50123 0.64908 0.82011 0.0
C1979 C 0.5032 0.60446 0.88238 0.0
C1980 C 0.50281 0.62018 0.86115 0.0
H1981 H 0.53851 0.69985 0.76741 0.0
H1982 H 0.53902 0.66785 0.79627 0.0
H1983 H 0.47226 0.66651 0.83804 0.0
H1984 H 0.49625 0.60572 0.94233 0.0
H1985 H 0.4964 0.63206 0.90803 0.0
C1986 C 0.31285 0.48165 0.77319 0.0
C1987 C 0.3031 0.50314 0.76567 0.0
C1988 C 0.33048 0.48122 0.79052 0.0
C1989 C 0.35064 0.51768 0.84095 0.0
H1990 H 0.39918 0.46995 0.84624 0.0
C1991 C 0.40465 0.50338 0.92756 0.0
C1992 C 0.4289 0.49908 0.92465 0.0
C1993 C 0.38942 0.50346 0.90793 0.0
C1994 C 0.38582 0.48353 0.84505 0.0
H1995 H 0.30502 0.54105 0.76937 0.0
H1996 H 0.33654 0.54049 0.79877 0.0
H1997 H 0.37536 0.47207 0.81059 0.0
H1998 H 0.45582 0.49101 0.8985 0.0
H1999 H 0.42973 0.49153 0.86497 0.0
H2000 H 0.36144 0.52941 0.87527 0.0
C2001 C 0.33032 0.52387 0.79168 0.0
C2002 C 0.37199 0.48461 0.8246 0.0
C2003 C 0.31267 0.52426 0.77439 0.0
C2004 C 0.43733 0.49452 0.9017 0.0
C2005 C 0.42224 0.49457 0.88227 0.0
C2006 C 0.3645 0.51661 0.86142 0.0
C2007 C 0.33868 0.50232 0.80081 0.0
C2008 C 0.35422 0.50175 0.82218 0.0
C2009 C 0.39808 0.4991 0.88499 0.0
C2010 C 0.38238 0.49958 0.86373 0.0
H2011 H 0.30525 0.46511 0.76735 0.0
H2012 H 0.33629 0.46426 0.79711 0.0
H2013 H 0.33684 0.53084 0.84003 0.0
H2014 H 0.39749 0.50696 0.9449 0.0
H2015 H 0.37086 0.50681 0.91075 0.0
C2016 C 0.49908 0.31216 0.77431 0.0
C2017 C 0.51146 0.29088 0.77694 0.0
C2018 C 0.50141 0.3302 0.79115 0.0
C2019 C 0.51322 0.33575 0.8545 0.0
H2020 H 0.51475 0.40304 0.84277 0.0
C2021 C 0.51608 0.4037 0.93134 0.0
C2022 C 0.50469 0.42545 0.928 0.0
C2023 C 0.51835 0.38767 0.91257 0.0
C2024 C 0.51396 0.38432 0.84644 0.0
H2025 H 0.53688 0.2722 0.79838 0.0
H2026 H 0.54129 0.30369 0.8275 0.0
H2027 H 0.51724 0.37558 0.8097 0.0
H2028 H 0.48585 0.44694 0.90256 0.0
H2029 H 0.48889 0.41886 0.8704 0.0
H2030 H 0.50909 0.34423 0.89102 0.0
C2031 C 0.52966 0.30649 0.81261 0.0
C2032 C 0.51555 0.36858 0.8274 0.0
C2033 C 0.52743 0.2886 0.79575 0.0
C2034 C 0.49502 0.43047 0.90571 0.0
C2035 C 0.49696 0.41437 0.88711 0.0
C2036 C 0.51133 0.35145 0.87349 0.0
C2037 C 0.51596 0.3271 0.81106 0.0
C2038 C 0.51521 0.34409 0.83119 0.0
C2039 C 0.50897 0.39284 0.89008 0.0
C2040 C 0.51158 0.37601 0.8698 0.0
H2041 H 0.48624 0.3141 0.7603 0.0
H2042 H 0.49055 0.34582 0.78947 0.0
H2043 H 0.51246 0.31698 0.85803 0.0
H2044 H 0.52393 0.3994 0.94822 0.0
H2045 H 0.52796 0.37146 0.91561 0.0
C2046 C 0.69129 0.52222 0.77229 0.0
C2047 C 0.70198 0.50103 0.76518 0.0
C2048 C 0.67366 0.52221 0.78962 0.0
C2049 C 0.65532 0.48604 0.84087 0.0
H2050 H 0.6042 0.53112 0.84497 0.0
C2051 C 0.60067 0.50008 0.92717 0.0
C2052 C 0.5762 0.50278 0.92416 0.0
C2053 C 0.61585 0.50014 0.9075 0.0
C2054 C 0.61832 0.5183 0.84412 0.0
H2055 H 0.70174 0.46316 0.76965 0.0
H2056 H 0.67027 0.46292 0.7991 0.0
H2057 H 0.62819 0.52946 0.80938 0.0
H2058 H 0.54881 0.5081 0.89778 0.0
H2059 H 0.57488 0.50789 0.86422 0.0
H2060 H 0.64518 0.47464 0.8755 0.0
C2061 C 0.67573 0.47964 0.79166 0.0
C2062 C 0.63222 0.51748 0.8237 0.0
C2063 C 0.69337 0.47969 0.77434 0.0
C2064 C 0.56748 0.50583 0.90106 0.0
C2065 C 0.58253 0.50596 0.88161 0.0
C2066 C 0.64142 0.48688 0.86132 0.0
C2067 C 0.66642 0.50098 0.80034 0.0
C2068 C 0.65088 0.50128 0.82171 0.0
C2069 C 0.60693 0.50311 0.88444 0.0
C2070 C 0.62263 0.50294 0.8632 0.0
H2071 H 0.69815 0.53896 0.7661 0.0
H2072 H 0.66708 0.53902 0.79587 0.0
H2073 H 0.66982 0.47364 0.84026 0.0
H2074 H 0.60806 0.49772 0.94462 0.0
H2075 H 0.6346 0.49808 0.91038 0.0
C2076 C 0.48067 0.31716 0.23375 0.0
C2077 C 0.50096 0.30462 0.2404 0.0
C2078 C 0.48198 0.33528 0.21702 0.0
C2079 C 0.52261 0.37339 0.18201 0.0
H2080 H 0.47432 0.36684 0.134 0.0
C2081 C 0.51189 0.43989 0.10524 0.0
C2082 C 0.50595 0.43131 0.08267 0.0
C2083 C 0.51228 0.42495 0.12485 0.0
C2084 C 0.48805 0.3688 0.14712 0.0
H2085 H 0.5387 0.30219 0.23592 0.0
H2086 H 0.5412 0.33419 0.20708 0.0
H2087 H 0.47301 0.34207 0.16911 0.0
H2088 H 0.4961 0.39992 0.06319 0.0
H2089 H 0.49679 0.37369 0.09758 0.0
H2090 H 0.53786 0.39988 0.15975 0.0
C2091 C 0.52423 0.33017 0.21483 0.0
C2092 C 0.48711 0.35484 0.16749 0.0
C2093 C 0.52289 0.31199 0.23161 0.0
C2094 C 0.50075 0.40716 0.08025 0.0
C2095 C 0.50098 0.39217 0.10001 0.0
C2096 C 0.52349 0.38747 0.16167 0.0
C2097 C 0.50363 0.34121 0.20645 0.0
C2098 C 0.50433 0.35696 0.18526 0.0
C2099 C 0.50667 0.40092 0.1226 0.0
C2100 C 0.50621 0.38537 0.14393 0.0
H2101 H 0.4635 0.3115 0.23989 0.0
H2102 H 0.46583 0.34374 0.21139 0.0
H2103 H 0.53618 0.37551 0.19528 0.0
H2104 H 0.51619 0.45832 0.10791 0.0
H2105 H 0.51648 0.43241 0.14192 0.0
C2106 C 0.68983 0.4841 0.23354 0.0
C2107 C 0.70061 0.50521 0.24071 0.0
C2108 C 0.67244 0.48422 0.21598 0.0
C2109 C 0.65512 0.5204 0.16439 0.0
H2110 H 0.60371 0.47572 0.15976 0.0
C2111 C 0.60094 0.50652 0.07762 0.0
C2112 C 0.57644 0.50407 0.08056 0.0
C2113 C 0.61606 0.50646 0.09735 0.0
C2114 C 0.61792 0.48843 0.16076 0.0
H2115 H 0.70075 0.54308 0.23618 0.0
H2116 H 0.66965 0.54352 0.20633 0.0
H2117 H 0.62724 0.47728 0.19564 0.0
H2118 H 0.54892 0.49938 0.10695 0.0
H2119 H 0.57483 0.49957 0.14054 0.0
H2120 H 0.64548 0.53181 0.12961 0.0
C2121 C 0.67488 0.52677 0.21388 0.0
C2122 C 0.63155 0.48919 0.18134 0.0
C2123 C 0.69228 0.52662 0.23143 0.0
C2124 C 0.56761 0.50138 0.10366 0.0
C2125 C 0.58257 0.50125 0.12316 0.0
C2126 C 0.64147 0.51963 0.14377 0.0
C2127 C 0.66553 0.50549 0.20511 0.0
C2128 C 0.6503 0.50526 0.18353 0.0
C2129 C 0.60701 0.50374 0.12039 0.0
C2130 C 0.62257 0.50373 0.14172 0.0
H2131 H 0.69648 0.46732 0.23983 0.0
H2132 H 0.66581 0.46746 0.20967 0.0
H2133 H 0.66971 0.53269 0.16517 0.0
H2134 H 0.60842 0.50861 0.06017 0.0
H2135 H 0.63484 0.50827 0.09454 0.0
C2136 C 0.51212 0.68904 0.23206 0.0
C2137 C 0.49595 0.70779 0.23305 0.0
C2138 C 0.50941 0.67097 0.21536 0.0
C2139 C 0.48803 0.66475 0.15528 0.0
H2140 H 0.49869 0.59781 0.16376 0.0
C2141 C 0.48684 0.59938 0.07589 0.0
C2142 C 0.50123 0.57928 0.07725 0.0
C2143 C 0.48453 0.61453 0.09541 0.0
C2144 C 0.49607 0.6165 0.16091 0.0
H2145 H 0.46381 0.72182 0.21815 0.0
H2146 H 0.45897 0.69026 0.18906 0.0
H2147 H 0.49662 0.62357 0.19815 0.0
H2148 H 0.52541 0.55995 0.09964 0.0
H2149 H 0.52249 0.58673 0.13289 0.0
H2150 H 0.4886 0.65816 0.11814 0.0
C2151 C 0.47363 0.6894 0.20126 0.0
C2152 C 0.49465 0.63122 0.18075 0.0
C2153 C 0.47615 0.70723 0.21819 0.0
C2154 C 0.51395 0.57517 0.09812 0.0
C2155 C 0.51203 0.59046 0.11737 0.0
C2156 C 0.48986 0.65013 0.13541 0.0
C2157 C 0.49075 0.67162 0.199 0.0
C2158 C 0.49069 0.65553 0.17817 0.0
C2159 C 0.49689 0.61014 0.1166 0.0
C2160 C 0.49409 0.62576 0.13786 0.0
H2161 H 0.52791 0.68946 0.24278 0.0
H2162 H 0.52296 0.65758 0.21399 0.0
H2163 H 0.48535 0.68349 0.15267 0.0
H2164 H 0.47662 0.60286 0.06013 0.0
H2165 H 0.47249 0.62928 0.09403 0.0
C2166 C 0.3138 0.4803 0.23156 0.0
C2167 C 0.30443 0.50151 0.24029 0.0
C2168 C 0.33135 0.48053 0.21418 0.0
C2169 C 0.37323 0.51928 0.18107 0.0
H2170 H 0.36173 0.47477 0.13035 0.0
C2171 C 0.43808 0.5084 0.10378 0.0
C2172 C 0.42945 0.50438 0.08079 0.0
C2173 C 0.42307 0.50842 0.12326 0.0
C2174 C 0.36506 0.48748 0.14422 0.0
H2175 H 0.30684 0.53952 0.23854 0.0
H2176 H 0.33775 0.54008 0.20862 0.0
H2177 H 0.3373 0.47363 0.16572 0.0
H2178 H 0.3978 0.49741 0.06058 0.0
H2179 H 0.37132 0.49762 0.09486 0.0
H2180 H 0.40057 0.53354 0.15934 0.0
C2181 C 0.33183 0.52318 0.21527 0.0
C2182 C 0.35129 0.48658 0.16475 0.0
C2183 C 0.31429 0.52292 0.23268 0.0
C2184 C 0.40512 0.50056 0.07793 0.0
C2185 C 0.38997 0.50054 0.09763 0.0
C2186 C 0.38698 0.52018 0.16056 0.0
C2187 C 0.33982 0.50201 0.20498 0.0
C2188 C 0.35522 0.50242 0.18353 0.0
C2189 C 0.39881 0.50448 0.12058 0.0
C2190 C 0.38319 0.50422 0.14187 0.0
H2191 H 0.30606 0.46358 0.23666 0.0
H2192 H 0.33741 0.46386 0.20707 0.0
H2193 H 0.37685 0.53174 0.19509 0.0
H2194 H 0.45665 0.51146 0.10697 0.0
H2195 H 0.43068 0.51109 0.14057 0.0
C2196 C 0.77329 0.48265 0.69116 0.0
C2197 C 0.76567 0.504 0.70116 0.0
C2198 C 0.79052 0.48252 0.67343 0.0
C2199 C 0.84069 0.51936 0.65371 0.0
H2200 H 0.84585 0.4728 0.60396 0.0
C2201 C 0.92718 0.50579 0.59947 0.0
C2202 C 0.92432 0.5022 0.57507 0.0
C2203 C 0.90752 0.50569 0.61464 0.0
C2204 C 0.84469 0.48605 0.61768 0.0
H2205 H 0.76912 0.54195 0.69961 0.0
H2206 H 0.79842 0.54189 0.66798 0.0
H2207 H 0.81031 0.47432 0.62802 0.0
H2208 H 0.89821 0.49534 0.54778 0.0
H2209 H 0.86461 0.49546 0.57383 0.0
H2210 H 0.87496 0.5313 0.64311 0.0
C2211 C 0.79144 0.52517 0.67404 0.0
C2212 C 0.82431 0.48678 0.63162 0.0
C2213 C 0.77422 0.52527 0.69177 0.0
C2214 C 0.90137 0.49825 0.5664 0.0
C2215 C 0.88191 0.4981 0.58145 0.0
C2216 C 0.8611 0.5186 0.63977 0.0
C2217 C 0.80064 0.50376 0.66541 0.0
C2218 C 0.82195 0.50351 0.6498 0.0
C2219 C 0.8846 0.50183 0.60578 0.0
C2220 C 0.86336 0.502 0.62147 0.0
H2221 H 0.76757 0.466 0.69861 0.0
H2222 H 0.79719 0.46567 0.66738 0.0
H2223 H 0.83979 0.5322 0.66783 0.0
H2224 H 0.94452 0.5089 0.60682 0.0
H2225 H 0.91031 0.50846 0.63333 0.0
C2226 C 0.48276 0.77307 0.69064 0.0
C2227 C 0.50368 0.76627 0.70198 0.0
C2228 C 0.48314 0.79 0.67261 0.0
C2229 C 0.51942 0.84097 0.65396 0.0
H2230 H 0.47566 0.84366 0.60159 0.0
C2231 C 0.50518 0.92643 0.59837 0.0
C2232 C 0.50276 0.92342 0.57385 0.0
C2233 C 0.5053 0.90679 0.61356 0.0
C2234 C 0.48814 0.84318 0.61604 0.0
H2235 H 0.54147 0.77092 0.70264 0.0
H2236 H 0.54237 0.79971 0.67051 0.0
H2237 H 0.47706 0.80853 0.62634 0.0
H2238 H 0.49835 0.89701 0.54632 0.0
H2239 H 0.49884 0.86336 0.57245 0.0
H2240 H 0.5307 0.87551 0.64346 0.0
C2241 C 0.52558 0.79231 0.67572 0.0
C2242 C 0.4888 0.82304 0.63037 0.0
C2243 C 0.52516 0.7754 0.69376 0.0
C2244 C 0.50029 0.90028 0.56503 0.0
C2245 C 0.50037 0.8808 0.58012 0.0
C2246 C 0.51874 0.86113 0.63964 0.0
C2247 C 0.50447 0.80063 0.66563 0.0
C2248 C 0.50447 0.8216 0.64954 0.0
C2249 C 0.50286 0.88368 0.6046 0.0
C2250 C 0.50312 0.86252 0.62043 0.0
H2251 H 0.46591 0.76689 0.69718 0.0
H2252 H 0.4665 0.796 0.66544 0.0
H2253 H 0.53143 0.84077 0.66881 0.0
H2254 H 0.50711 0.94392 0.60584 0.0
H2255 H 0.50705 0.90972 0.63235 0.0
C2256 C 0.23175 0.52331 0.69188 0.0
C2257 C 0.23908 0.50189 0.70191 0.0
C2258 C 0.21443 0.52367 0.67424 0.0
C2259 C 0.16369 0.48746 0.65459 0.0
H2260 H 0.15896 0.53442 0.60517 0.0
C2261 C 0.07734 0.50206 0.6003 0.0
C2262 C 0.0803 0.50587 0.57595 0.0
C2263 C 0.09696 0.50192 0.61553 0.0
C2264 C 0.15999 0.52106 0.61879 0.0
H2265 H 0.23503 0.464 0.70051 0.0
H2266 H 0.20562 0.46441 0.66898 0.0
H2267 H 0.19453 0.53231 0.6291 0.0
H2268 H 0.10654 0.51293 0.54883 0.0
H2269 H 0.14004 0.51236 0.57495 0.0
H2270 H 0.12928 0.47596 0.64396 0.0
C2271 C 0.21286 0.48104 0.67497 0.0
C2272 C 0.1804 0.51999 0.63267 0.0
C2273 C 0.23015 0.48072 0.69263 0.0
C2274 C 0.1033 0.50984 0.5674 0.0
C2275 C 0.1227 0.50974 0.5825 0.0
C2276 C 0.14327 0.48854 0.64068 0.0
C2277 C 0.20395 0.50256 0.66631 0.0
C2278 C 0.18261 0.50313 0.65075 0.0
C2279 C 0.11993 0.50575 0.60678 0.0
C2280 C 0.14115 0.50529 0.6225 0.0
H2281 H 0.23775 0.5399 0.69925 0.0
H2282 H 0.20801 0.54061 0.66819 0.0
H2283 H 0.16447 0.47453 0.66862 0.0
H2284 H 0.05997 0.49891 0.60754 0.0
H2285 H 0.09411 0.49897 0.63419 0.0
C2286 C 0.49271 0.232 0.68961 0.0
C2287 C 0.50866 0.23259 0.70854 0.0
C2288 C 0.4955 0.21553 0.67134 0.0
C2289 C 0.5162 0.15537 0.66463 0.0
H2290 H 0.50738 0.16487 0.59757 0.0
C2291 C 0.51795 0.07674 0.59855 0.0
C2292 C 0.50408 0.07846 0.57811 0.0
C2293 C 0.52019 0.09611 0.61388 0.0
C2294 C 0.50947 0.16174 0.61629 0.0
H2295 H 0.5405 0.21721 0.72277 0.0
H2296 H 0.54546 0.18849 0.6909 0.0
H2297 H 0.50925 0.1989 0.62384 0.0
H2298 H 0.4808 0.1014 0.5583 0.0
H2299 H 0.48359 0.13442 0.58538 0.0
H2300 H 0.51525 0.11833 0.65756 0.0
C2301 C 0.53092 0.20085 0.69003 0.0
C2302 C 0.51078 0.18137 0.63129 0.0
C2303 C 0.52833 0.21756 0.70805 0.0
C2304 C 0.49185 0.09959 0.57379 0.0
C2305 C 0.4937 0.1187 0.58926 0.0
C2306 C 0.51445 0.13573 0.64972 0.0
C2307 C 0.51401 0.19901 0.672 0.0
C2308 C 0.51411 0.17841 0.65565 0.0
C2309 C 0.50827 0.11752 0.60934 0.0
C2310 C 0.51091 0.13855 0.62529 0.0
H2311 H 0.47702 0.24289 0.68998 0.0
H2312 H 0.48212 0.21447 0.65776 0.0
H2313 H 0.51838 0.15249 0.6834 0.0
H2314 H 0.52779 0.06078 0.60221 0.0
H2315 H 0.53181 0.09442 0.62892 0.0
C2316 C 0.77198 0.52433 0.31427 0.0
C2317 C 0.76408 0.50278 0.30495 0.0
C2318 C 0.78954 0.5248 0.33165 0.0
C2319 C 0.8398 0.48801 0.35135 0.0
H2320 H 0.84667 0.5363 0.39919 0.0
C2321 C 0.92742 0.50175 0.40379 0.0
C2322 C 0.92488 0.50621 0.42808 0.0
C2323 C 0.9076 0.50183 0.38882 0.0
C2324 C 0.84504 0.52257 0.38601 0.0
H2325 H 0.76725 0.46486 0.30749 0.0
H2326 H 0.79706 0.46554 0.33861 0.0
H2327 H 0.81056 0.53433 0.3761 0.0
H2328 H 0.89923 0.5148 0.45532 0.0
H2329 H 0.8654 0.51455 0.42968 0.0
H2330 H 0.87414 0.47598 0.36162 0.0
C2331 C 0.79011 0.48214 0.33221 0.0
C2332 C 0.82432 0.52157 0.3726 0.0
C2333 C 0.77258 0.4817 0.3148 0.0
C2334 C 0.90213 0.51113 0.4368 0.0
C2335 C 0.88254 0.51124 0.42197 0.0
C2336 C 0.86053 0.48899 0.36479 0.0
C2337 C 0.79967 0.5037 0.34003 0.0
C2338 C 0.82133 0.50422 0.35512 0.0
C2339 C 0.88487 0.50654 0.39778 0.0
C2340 C 0.86341 0.50622 0.38241 0.0
H2341 H 0.76629 0.54081 0.30644 0.0
H2342 H 0.79645 0.54176 0.33708 0.0
H2343 H 0.83842 0.47468 0.33773 0.0
H2344 H 0.9446 0.49787 0.39643 0.0
H2345 H 0.9101 0.49831 0.37021 0.0
C2346 C 0.50597 0.77362 0.31265 0.0
C2347 C 0.49335 0.77619 0.2915 0.0
C2348 C 0.5038 0.7905 0.33069 0.0
C2349 C 0.49202 0.85386 0.33624 0.0
H2350 H 0.49085 0.84234 0.40356 0.0
C2351 C 0.48942 0.93106 0.40379 0.0
C2352 C 0.50078 0.92785 0.42557 0.0
C2353 C 0.48712 0.91218 0.38788 0.0
C2354 C 0.49155 0.84596 0.38482 0.0
H2355 H 0.4677 0.79757 0.27307 0.0
H2356 H 0.4636 0.82675 0.30455 0.0
H2357 H 0.48828 0.80918 0.37622 0.0
H2358 H 0.51947 0.90248 0.44727 0.0
H2359 H 0.5164 0.87013 0.41939 0.0
H2360 H 0.49616 0.89042 0.34457 0.0
C2361 C 0.47528 0.81188 0.30725 0.0
C2362 C 0.48991 0.82686 0.36915 0.0
C2363 C 0.47733 0.79498 0.28938 0.0
C2364 C 0.51035 0.90554 0.43076 0.0
C2365 C 0.50838 0.88684 0.41478 0.0
C2366 C 0.49398 0.87291 0.35187 0.0
C2367 C 0.48919 0.81039 0.32772 0.0
C2368 C 0.49009 0.83057 0.34465 0.0
C2369 C 0.49644 0.88969 0.3932 0.0
C2370 C 0.49384 0.86931 0.37644 0.0
H2371 H 0.51886 0.75964 0.31448 0.0
H2372 H 0.51483 0.78887 0.3462 0.0
H2373 H 0.49266 0.85735 0.31746 0.0
H2374 H 0.48164 0.94794 0.39934 0.0
H2375 H 0.47753 0.91515 0.37164 0.0
C2376 C 0.2335 0.48237 0.31471 0.0
C2377 C 0.24094 0.50366 0.30447 0.0
C2378 C 0.21613 0.48227 0.33229 0.0
C2379 C 0.16543 0.5189 0.35114 0.0
H2380 H 0.15996 0.47231 0.40082 0.0
C2381 C 0.07842 0.50496 0.40447 0.0
C2382 C 0.08109 0.50126 0.42887 0.0
C2383 C 0.09822 0.50495 0.38947 0.0
C2384 C 0.1612 0.48557 0.38712 0.0
H2385 H 0.23709 0.54158 0.30551 0.0
H2386 H 0.20759 0.54163 0.33695 0.0
H2387 H 0.19581 0.47412 0.37731 0.0
H2388 H 0.10698 0.49428 0.45635 0.0
H2389 H 0.14078 0.49463 0.43064 0.0
H2390 H 0.13095 0.53061 0.36128 0.0
C2391 C 0.21478 0.52491 0.33115 0.0
C2392 C 0.18177 0.48648 0.37348 0.0
C2393 C 0.23213 0.52496 0.31354 0.0
C2394 C 0.10397 0.49727 0.43772 0.0
C2395 C 0.12355 0.49724 0.42286 0.0
C2396 C 0.14485 0.51801 0.36481 0.0
C2397 C 0.20571 0.50351 0.33994 0.0
C2398 C 0.18424 0.50319 0.35531 0.0
C2399 C 0.12107 0.5011 0.39853 0.0
C2400 C 0.14247 0.50139 0.38307 0.0
H2401 H 0.23942 0.46568 0.3075 0.0
H2402 H 0.20958 0.46542 0.33846 0.0
H2403 H 0.16641 0.53172 0.33701 0.0
H2404 H 0.06114 0.50812 0.397 0.0
H2405 H 0.0956 0.50781 0.37077 0.0
C2406 C 0.49453 0.23807 0.31895 0.0
C2407 C 0.51035 0.23737 0.2999 0.0
C2408 C 0.49616 0.22138 0.33722 0.0
C2409 C 0.51287 0.15986 0.34354 0.0
H2410 H 0.50722 0.16914 0.41096 0.0
C2411 C 0.51566 0.08051 0.4082 0.0
C2412 C 0.50309 0.08213 0.42946 0.0
C2413 C 0.51757 0.10014 0.3932 0.0
C2414 C 0.50839 0.16609 0.39216 0.0
H2415 H 0.54112 0.21982 0.28578 0.0
H2416 H 0.54409 0.1909 0.31761 0.0
H2417 H 0.50949 0.20332 0.38484 0.0
H2418 H 0.48188 0.1053 0.45122 0.0
H2419 H 0.48405 0.1389 0.42471 0.0
H2420 H 0.51068 0.12287 0.35034 0.0
C2421 C 0.53041 0.20421 0.31848 0.0
C2422 C 0.50989 0.1858 0.37722 0.0
C2423 C 0.52893 0.22098 0.30045 0.0
C2424 C 0.49191 0.10355 0.43506 0.0
C2425 C 0.49339 0.12297 0.41988 0.0
C2426 C 0.51091 0.1402 0.35835 0.0
C2427 C 0.51344 0.20356 0.33651 0.0
C2428 C 0.51229 0.18289 0.35275 0.0
C2429 C 0.50654 0.12177 0.39883 0.0
C2430 C 0.5087 0.14292 0.38296 0.0
H2431 H 0.47973 0.25013 0.31866 0.0
H2432 H 0.48282 0.22129 0.35088 0.0
H2433 H 0.51426 0.15704 0.32468 0.0
H2434 H 0.52471 0.06434 0.40354 0.0
H2435 H 0.52821 0.09841 0.37745 0.0
C2436 C 0.69121 0.7729 0.48117 0.0
C2437 C 0.70052 0.76506 0.50274 0.0
C2438 C 0.67375 0.79039 0.48064 0.0
C2439 C 0.65365 0.84063 0.51732 0.0
H2440 H 0.60595 0.84709 0.46889 0.0
C2441 C 0.60073 0.92797 0.50333 0.0
C2442 C 0.57651 0.92527 0.49877 0.0
C2443 C 0.61581 0.90822 0.50332 0.0
C2444 C 0.61909 0.84557 0.48266 0.0
H2445 H 0.69792 0.76829 0.54064 0.0
H2446 H 0.66668 0.79797 0.53987 0.0
H2447 H 0.62927 0.8111 0.47098 0.0
H2448 H 0.54949 0.8994 0.49007 0.0
H2449 H 0.57531 0.86569 0.49045 0.0
H2450 H 0.64311 0.87495 0.52927 0.0
C2451 C 0.67313 0.79102 0.52329 0.0
C2452 C 0.63262 0.82492 0.48373 0.0
C2453 C 0.69062 0.77357 0.52379 0.0
C2454 C 0.56796 0.90243 0.49381 0.0
C2455 C 0.5829 0.88291 0.49378 0.0
C2456 C 0.64008 0.86128 0.51627 0.0
C2457 C 0.66529 0.8005 0.50171 0.0
C2458 C 0.65006 0.82209 0.50112 0.0
C2459 C 0.60702 0.8854 0.49858 0.0
C2460 C 0.62251 0.86401 0.49899 0.0
H2461 H 0.69907 0.76721 0.46471 0.0
H2462 H 0.66832 0.79725 0.46366 0.0
H2463 H 0.66723 0.83937 0.53068 0.0
H2464 H 0.60796 0.94522 0.50721 0.0
H2465 H 0.63436 0.91085 0.5069 0.0
C2466 C 0.69229 0.23212 0.47996 0.0
C2467 C 0.70141 0.24097 0.50122 0.0
C2468 C 0.67471 0.21474 0.48009 0.0
C2469 C 0.6323 0.18192 0.51853 0.0
H2470 H 0.64425 0.13089 0.47449 0.0
C2471 C 0.56747 0.1046 0.50741 0.0
C2472 C 0.57611 0.08156 0.50366 0.0
C2473 C 0.5825 0.12407 0.50745 0.0
C2474 C 0.64079 0.14485 0.48706 0.0
H2475 H 0.69853 0.23946 0.5392 0.0
H2476 H 0.66756 0.20959 0.53957 0.0
H2477 H 0.66875 0.16623 0.47342 0.0
H2478 H 0.60782 0.06127 0.49719 0.0
H2479 H 0.63433 0.09554 0.49744 0.0
H2480 H 0.60476 0.16031 0.53258 0.0
C2481 C 0.6737 0.21613 0.52271 0.0
C2482 C 0.6546 0.16536 0.4862 0.0
C2483 C 0.69127 0.23352 0.52255 0.0
C2484 C 0.60048 0.07866 0.50013 0.0
C2485 C 0.61565 0.09835 0.50013 0.0
C2486 C 0.61851 0.16143 0.51938 0.0
C2487 C 0.66596 0.20569 0.50151 0.0
C2488 C 0.65052 0.18425 0.50187 0.0
C2489 C 0.6068 0.12134 0.50381 0.0
C2490 C 0.62245 0.14263 0.5036 0.0
H2491 H 0.70024 0.23708 0.46331 0.0
H2492 H 0.66885 0.20754 0.46339 0.0
H2493 H 0.62855 0.19603 0.53085 0.0
H2494 H 0.54887 0.10783 0.51025 0.0
H2495 H 0.57488 0.14142 0.50992 0.0
C2496 C 0.77181 0.69078 0.52197 0.0
C2497 C 0.76445 0.70134 0.50082 0.0
C2498 C 0.78929 0.67331 0.52189 0.0
C2499 C 0.84039 0.65548 0.48538 0.0
H2500 H 0.8456 0.60473 0.53084 0.0
C2501 C 0.92735 0.6018 0.49922 0.0
C2502 C 0.92457 0.57731 0.50219 0.0
C2503 C 0.90758 0.61685 0.49925 0.0
C2504 C 0.84444 0.61875 0.5179 0.0
H2505 H 0.76855 0.70099 0.46292 0.0
H2506 H 0.79827 0.66975 0.46254 0.0
H2507 H 0.80969 0.62818 0.52925 0.0
H2508 H 0.89841 0.54971 0.5077 0.0
H2509 H 0.86473 0.5755 0.50743 0.0
H2510 H 0.87503 0.64573 0.47378 0.0
C2511 C 0.79092 0.67522 0.4793 0.0
C2512 C 0.82384 0.63234 0.51713 0.0
C2513 C 0.77346 0.6927 0.47942 0.0
C2514 C 0.90157 0.5684 0.50534 0.0
C2515 C 0.88203 0.5833 0.50541 0.0
C2516 C 0.86102 0.64187 0.48616 0.0
C2517 C 0.7999 0.66611 0.5006 0.0
C2518 C 0.82145 0.65086 0.5008 0.0
C2519 C 0.88465 0.60773 0.50241 0.0
C2520 C 0.86329 0.62322 0.50235 0.0
H2521 H 0.76572 0.69766 0.53874 0.0
H2522 H 0.79576 0.66688 0.53867 0.0
H2523 H 0.83946 0.6699 0.47288 0.0
H2524 H 0.94472 0.60933 0.49674 0.0
H2525 H 0.91028 0.63563 0.49703 0.0
C2526 C 0.31451 0.77301 0.52208 0.0
C2527 C 0.30417 0.76566 0.50082 0.0
C2528 C 0.33213 0.79035 0.52215 0.0
C2529 C 0.35085 0.84119 0.4857 0.0
H2530 H 0.40126 0.846 0.5315 0.0
C2531 C 0.40501 0.9278 0.4995 0.0
C2532 C 0.42944 0.92487 0.50252 0.0
C2533 C 0.38986 0.9081 0.49963 0.0
C2534 C 0.38735 0.84494 0.51847 0.0
H2535 H 0.30503 0.76962 0.46291 0.0
H2536 H 0.33651 0.79908 0.46282 0.0
H2537 H 0.37745 0.81028 0.52986 0.0
H2538 H 0.45682 0.89861 0.50848 0.0
H2539 H 0.43084 0.86499 0.50838 0.0
H2540 H 0.36103 0.87573 0.47407 0.0
C2541 C 0.33077 0.79184 0.47953 0.0
C2542 C 0.37355 0.82445 0.51766 0.0
C2543 C 0.31314 0.77453 0.4795 0.0
C2544 C 0.43818 0.90183 0.50597 0.0
C2545 C 0.42317 0.88235 0.50615 0.0
C2546 C 0.36465 0.8617 0.48652 0.0
C2547 C 0.3397 0.8008 0.50091 0.0
C2548 C 0.35515 0.82222 0.5012 0.0
C2549 C 0.39881 0.8851 0.50297 0.0
C2550 C 0.38318 0.86382 0.50284 0.0
H2551 H 0.30737 0.76704 0.53878 0.0
H2552 H 0.33842 0.79682 0.53898 0.0
H2553 H 0.33654 0.84038 0.47309 0.0
H2554 H 0.39761 0.94521 0.49683 0.0
H2555 H 0.37114 0.91092 0.49731 0.0
C2556 C 0.23109 0.31406 0.48103 0.0
C2557 C 0.23959 0.30448 0.50223 0.0
C2558 C 0.2138 0.33172 0.48125 0.0
C2559 C 0.18052 0.37349 0.52003 0.0
H2560 H 0.13019 0.36238 0.47506 0.0
C2561 C 0.10343 0.43864 0.50891 0.0
C2562 C 0.08052 0.43003 0.50455 0.0
C2563 C 0.12288 0.42359 0.50907 0.0
C2564 C 0.14395 0.36561 0.48789 0.0
H2565 H 0.23757 0.30664 0.54023 0.0
H2566 H 0.20783 0.33774 0.54079 0.0
H2567 H 0.16549 0.33785 0.47403 0.0
H2568 H 0.06039 0.39839 0.49716 0.0
H2569 H 0.0946 0.37185 0.49765 0.0
H2570 H 0.15875 0.40082 0.5343 0.0
C2571 C 0.21457 0.3319 0.52391 0.0
C2572 C 0.16444 0.35178 0.48706 0.0
C2573 C 0.23189 0.31426 0.52365 0.0
C2574 C 0.07769 0.40568 0.50061 0.0
C2575 C 0.09735 0.3905 0.50072 0.0
C2576 C 0.16006 0.3873 0.52086 0.0
C2577 C 0.20448 0.34008 0.50271 0.0
C2578 C 0.18308 0.35557 0.50306 0.0
C2579 C 0.12024 0.39931 0.50495 0.0
C2580 C 0.1415 0.38365 0.50474 0.0
H2581 H 0.23626 0.3064 0.4643 0.0
H2582 H 0.20685 0.33793 0.46458 0.0
H2583 H 0.19443 0.377 0.53262 0.0
H2584 H 0.10656 0.45721 0.51211 0.0
H2585 H 0.14015 0.43117 0.51199 0.0
C2586 C 0.31375 0.23312 0.48369 0.0
C2587 C 0.30307 0.24022 0.50487 0.0
C2588 C 0.3313 0.2157 0.48368 0.0
C2589 C 0.34945 0.16427 0.51973 0.0
H2590 H 0.40063 0.16022 0.47473 0.0
C2591 C 0.40436 0.07803 0.50551 0.0
C2592 C 0.42881 0.08115 0.50283 0.0
C2593 C 0.38908 0.09764 0.50555 0.0
C2594 C 0.38649 0.16106 0.48753 0.0
H2595 H 0.30322 0.23564 0.54272 0.0
H2596 H 0.33456 0.20603 0.54293 0.0
H2597 H 0.37668 0.19584 0.47643 0.0
H2598 H 0.45609 0.10773 0.49782 0.0
H2599 H 0.4299 0.14115 0.49819 0.0
H2600 H 0.35956 0.1296 0.53107 0.0
C2601 C 0.32916 0.21355 0.52623 0.0
C2602 C 0.37262 0.18149 0.48837 0.0
C2603 C 0.3116 0.23095 0.5262 0.0
C2604 C 0.43744 0.10432 0.5 0.0
C2605 C 0.42231 0.12371 0.49998 0.0
C2606 C 0.36334 0.14381 0.51887 0.0
C2607 C 0.33846 0.20488 0.50488 0.0
C2608 C 0.35394 0.18347 0.50454 0.0
C2609 C 0.39792 0.12076 0.50271 0.0
C2610 C 0.38216 0.14196 0.50285 0.0
H2611 H 0.30695 0.23939 0.46696 0.0
H2612 H 0.33787 0.20947 0.46687 0.0
H2613 H 0.33494 0.16488 0.53211 0.0
H2614 H 0.39703 0.06053 0.50771 0.0
H2615 H 0.37034 0.09468 0.50755 0.0
C2616 C 0.77429 0.31389 0.52489 0.0
C2617 C 0.76533 0.30483 0.50365 0.0
C2618 C 0.79162 0.33152 0.52473 0.0
C2619 C 0.82412 0.37415 0.48623 0.0
H2620 H 0.87534 0.36213 0.52995 0.0
C2621 C 0.90149 0.43903 0.49691 0.0
C2622 C 0.92449 0.43032 0.5005 0.0
C2623 C 0.88201 0.42401 0.49699 0.0
C2624 C 0.86133 0.36561 0.51747 0.0
H2625 H 0.76661 0.30785 0.46568 0.0
H2626 H 0.79641 0.33888 0.46524 0.0
H2627 H 0.84007 0.33756 0.53117 0.0
H2628 H 0.94474 0.39852 0.50688 0.0
H2629 H 0.91047 0.37205 0.50682 0.0
H2630 H 0.8456 0.40178 0.47211 0.0
C2631 C 0.79 0.33267 0.48212 0.0
C2632 C 0.84086 0.35176 0.51842 0.0
C2633 C 0.77265 0.31506 0.48232 0.0
C2634 C 0.92736 0.4059 0.50402 0.0
C2635 C 0.90768 0.39075 0.50415 0.0
C2636 C 0.84457 0.38799 0.48529 0.0
C2637 C 0.80052 0.34036 0.50329 0.0
C2638 C 0.82191 0.35587 0.50286 0.0
C2639 C 0.88471 0.39966 0.50061 0.0
C2640 C 0.86344 0.38401 0.50095 0.0
H2641 H 0.76943 0.30586 0.54154 0.0
H2642 H 0.79891 0.33733 0.5414 0.0
H2643 H 0.80997 0.37792 0.47399 0.0
H2644 H 0.89829 0.45765 0.4941 0.0
H2645 H 0.86469 0.43167 0.49463 0.0
C2646 C 0.23173 0.6925 0.52473 0.0
C2647 C 0.24054 0.70168 0.50348 0.0
C2648 C 0.21437 0.67492 0.52458 0.0
C2649 C 0.18143 0.63269 0.48608 0.0
H2650 H 0.13045 0.64503 0.52998 0.0
C2651 C 0.10386 0.56829 0.49718 0.0
C2652 C 0.0809 0.57712 0.50076 0.0
C2653 C 0.12338 0.58322 0.49717 0.0
C2654 C 0.1444 0.64146 0.51745 0.0
H2655 H 0.23905 0.69886 0.4655 0.0
H2656 H 0.20919 0.66789 0.46507 0.0
H2657 H 0.16591 0.66932 0.53114 0.0
H2658 H 0.06077 0.60902 0.50698 0.0
H2659 H 0.09516 0.63535 0.50678 0.0
H2660 H 0.1597 0.60525 0.47198 0.0
C2661 C 0.21573 0.67399 0.48194 0.0
C2662 C 0.16497 0.65514 0.51837 0.0
C2663 C 0.23311 0.69156 0.48214 0.0
C2664 C 0.07811 0.60155 0.50416 0.0
C2665 C 0.09786 0.61662 0.50419 0.0
C2666 C 0.16088 0.61902 0.48517 0.0
C2667 C 0.20531 0.66624 0.50313 0.0
C2668 C 0.18383 0.65091 0.50275 0.0
C2669 C 0.12077 0.60759 0.50066 0.0
C2670 C 0.1421 0.62312 0.50091 0.0
H2671 H 0.2367 0.70044 0.54139 0.0
H2672 H 0.20717 0.66903 0.54126 0.0
H2673 H 0.19552 0.62883 0.47379 0.0
H2674 H 0.10699 0.54964 0.49445 0.0
H2675 H 0.14067 0.57548 0.49482 0.0
loop_
_geom_bond_atom_site_label_1
_geom_bond_atom_site_label_2
_geom_bond_distance
_geom_bond_site_symmetry_2
_ccdc_geom_bond_type
H0 C3 0.931 . S
H1 C6 0.933 . S
H2 C8 0.930 . S
C3 H0 0.931 . S
C3 C4 1.413 1_655 S
C3 C5 1.360 . S
C4 C3 1.413 1_455 S
C4 C8 1.429 . S
C5 C3 1.360 . S
C5 C6 1.371 . S
C6 H1 0.933 . S
C6 C5 1.371 . S
C6 C7 1.403 . S
C7 C6 1.403 . S
C7 C8 1.390 1_655 S
C8 H2 0.930 . S
C8 C4 1.429 . S
C8 C7 1.390 1_455 S
H9 C12 0.931 . S
H10 C15 0.928 . S
H11 C17 0.930 1_565 S
C12 H9 0.931 . S
C12 C13 1.413 . S
C12 C14 1.360 . S
C13 C12 1.413 . S
C13 C17 1.429 . S
C14 C12 1.360 . S
C14 C15 1.373 . S
C15 H10 0.928 . S
C15 C14 1.373 . S
C15 C16 1.405 . S
C16 C15 1.405 . S
C16 C17 1.390 . S
C17 H11 0.930 1_545 S
C17 C13 1.429 . S
C17 C16 1.390 . S
H18 C21 0.931 . S
H19 C24 0.928 . S
H20 C26 0.930 1_655 S
C21 H18 0.931 . S
C21 C22 1.413 . S
C21 C23 1.360 . S
C22 C21 1.413 . S
C22 C26 1.429 . S
C23 C21 1.360 . S
C23 C24 1.373 . S
C24 H19 0.928 . S
C24 C23 1.373 . S
C24 C25 1.405 . S
C25 C24 1.405 . S
C25 C26 1.390 . S
C26 H20 0.930 1_455 S
C26 C22 1.429 . S
C26 C25 1.390 . S
H27 C30 0.931 . S
H28 C33 0.928 . S
H29 C35 0.930 1_565 S
C30 H27 0.931 . S
C30 C31 1.413 . S
C30 C32 1.360 . S
C31 C30 1.413 . S
C31 C35 1.429 . S
C32 C30 1.360 . S
C32 C33 1.373 . S
C33 H28 0.928 . S
C33 C32 1.373 . S
C33 C34 1.405 . S
C34 C33 1.405 . S
C34 C35 1.390 . S
C35 H29 0.930 1_545 S
C35 C31 1.429 . S
C35 C34 1.390 . S
H36 C39 0.931 . S
H37 C42 0.933 . S
H38 C44 0.930 . S
C39 H36 0.931 . S
C39 C40 1.413 1_655 S
C39 C41 1.360 . S
C40 C39 1.413 1_455 S
C40 C44 1.429 . S
C41 C39 1.360 . S
C41 C42 1.371 . S
C42 H37 0.933 . S
C42 C41 1.371 . S
C42 C43 1.403 . S
C43 C42 1.403 . S
C43 C44 1.390 1_655 S
C44 H38 0.930 . S
C44 C40 1.429 . S
C44 C43 1.390 1_455 S
H45 C48 0.931 . S
H46 C51 0.933 . S
H47 C53 0.930 . S
C48 H45 0.931 . S
C48 C49 1.413 1_565 S
C48 C50 1.360 . S
C49 C48 1.413 1_545 S
C49 C53 1.429 . S
C50 C48 1.360 . S
C50 C51 1.371 . S
C51 H46 0.933 . S
C51 C50 1.371 . S
C51 C52 1.403 1_565 S
C52 C51 1.403 1_545 S
C52 C53 1.390 . S
C53 H47 0.930 . S
C53 C49 1.429 . S
C53 C52 1.390 . S
H54 C57 0.931 . S
H55 C60 0.933 . S
H56 C62 0.930 . S
C57 H54 0.931 . S
C57 C58 1.413 1_655 S
C57 C59 1.360 . S
C58 C57 1.413 1_455 S
C58 C62 1.429 . S
C59 C57 1.360 . S
C59 C60 1.371 . S
C60 H55 0.933 . S
C60 C59 1.371 . S
C60 C61 1.403 . S
C61 C60 1.403 . S
C61 C62 1.390 1_655 S
C62 H56 0.930 . S
C62 C58 1.429 . S
C62 C61 1.390 1_455 S
H63 C66 0.931 . S
H64 C69 0.933 . S
H65 C71 0.930 . S
C66 H63 0.931 . S
C66 C67 1.413 1_565 S
C66 C68 1.360 . S
C67 C66 1.413 1_545 S
C67 C71 1.429 . S
C68 C66 1.360 . S
C68 C69 1.371 . S
C69 H64 0.933 . S
C69 C68 1.371 . S
C69 C70 1.403 1_565 S
C70 C69 1.403 1_545 S
C70 C71 1.390 . S
C71 H65 0.930 . S
C71 C67 1.429 . S
C71 C70 1.390 . S
H72 C75 0.931 . S
H73 C78 0.928 . S
H74 C80 0.930 . S
C75 H72 0.931 . S
C75 C76 1.413 . S
C75 C77 1.360 . S
C76 C75 1.413 . S
C76 C80 1.429 1_556 S
C77 C75 1.360 . S
C77 C78 1.372 . S
C78 H73 0.928 . S
C78 C77 1.372 . S
C78 C79 1.404 . S
C79 C78 1.404 . S
C79 C80 1.390 1_556 S
C80 H74 0.930 . S
C80 C76 1.429 1_554 S
C80 C79 1.390 1_554 S
H81 C84 0.931 . S
H82 C87 0.928 . S
H83 C89 0.930 . S
C84 H81 0.931 . S
C84 C85 1.413 . S
C84 C86 1.360 . S
C85 C84 1.413 . S
C85 C89 1.429 1_556 S
C86 C84 1.360 . S
C86 C87 1.372 . S
C87 H82 0.928 . S
C87 C86 1.372 . S
C87 C88 1.404 . S
C88 C87 1.404 . S
C88 C89 1.390 1_556 S
C89 H83 0.930 . S
C89 C85 1.429 1_554 S
C89 C88 1.390 1_554 S
H90 C93 0.931 . S
H91 C96 0.928 . S
H92 C98 0.930 . S
C93 H90 0.931 . S
C93 C94 1.413 . S
C93 C95 1.360 . S
C94 C93 1.413 . S
C94 C98 1.429 1_556 S
C95 C93 1.360 . S
C95 C96 1.372 . S
C96 H91 0.928 . S
C96 C95 1.372 . S
C96 C97 1.404 . S
C97 C96 1.404 . S
C97 C98 1.390 1_556 S
C98 H92 0.930 . S
C98 C94 1.429 1_554 S
C98 C97 1.390 1_554 S
H99 C102 0.931 . S
H100 C105 0.928 . S
H101 C107 0.930 1_556 S
C102 H99 0.931 . S
C102 C103 1.413 . S
C102 C104 1.360 . S
C103 C102 1.413 . S
C103 C107 1.429 . S
C104 C102 1.360 . S
C104 C105 1.373 . S
C105 H100 0.928 . S
C105 C104 1.373 . S
C105 C106 1.404 . S
C106 C105 1.404 . S
C106 C107 1.390 . S
C107 H101 0.930 1_554 S
C107 C103 1.429 . S
C107 C106 1.390 . S
H108 C111 0.931 . S
H109 C114 0.928 . S
H110 C116 0.930 . S
C111 H108 0.931 . S
C111 C112 1.413 . S
C111 C113 1.360 . S
C112 C111 1.413 . S
C112 C116 1.429 . S
C113 C111 1.360 . S
C113 C114 1.372 . S
C114 H109 0.928 . S
C114 C113 1.372 . S
C114 C115 1.404 . S
C115 C114 1.404 . S
C115 C116 1.391 . S
C116 H110 0.930 . S
C116 C112 1.429 . S
C116 C115 1.391 . S
H117 C120 0.931 . S
H118 C123 0.928 . S
H119 C125 0.930 . S
C120 H117 0.931 . S
C120 C121 1.413 . S
C120 C122 1.360 . S
C121 C120 1.413 . S
C121 C125 1.429 . S
C122 C120 1.360 . S
C122 C123 1.372 . S
C123 H118 0.928 . S
C123 C122 1.372 . S
C123 C124 1.404 . S
C124 C123 1.404 . S
C124 C125 1.391 . S
C125 H119 0.930 . S
C125 C121 1.429 . S
C125 C124 1.391 . S
H126 C129 0.931 . S
H127 C132 0.928 . S
H128 C134 0.930 . S
C129 H126 0.931 . S
C129 C130 1.413 . S
C129 C131 1.360 . S
C130 C129 1.413 . S
C130 C134 1.429 . S
C131 C129 1.360 . S
C131 C132 1.372 . S
C132 H127 0.928 . S
C132 C131 1.372 . S
C132 C133 1.404 . S
C133 C132 1.404 . S
C133 C134 1.391 . S
C134 H128 0.930 . S
C134 C130 1.429 . S
C134 C133 1.391 . S
H135 C138 0.931 . S
H136 C141 0.928 . S
H137 C143 0.930 . S
C138 H135 0.931 . S
C138 C139 1.413 . S
C138 C140 1.360 . S
C139 C138 1.413 . S
C139 C143 1.429 . S
C140 C138 1.360 . S
C140 C141 1.372 . S
C141 H136 0.928 . S
C141 C140 1.372 . S
C141 C142 1.404 . S
C142 C141 1.404 . S
C142 C143 1.391 . S
C143 H137 0.930 . S
C143 C139 1.429 . S
C143 C142 1.391 . S
H144 C147 0.931 . S
H145 C150 0.928 . S
H146 C152 0.930 . S
C147 H144 0.931 . S
C147 C148 1.413 . S
C147 C149 1.360 . S
C148 C147 1.413 . S
C148 C152 1.429 . S
C149 C147 1.360 . S
C149 C150 1.372 . S
C150 H145 0.928 . S
C150 C149 1.372 . S
C150 C151 1.404 . S
C151 C150 1.404 . S
C151 C152 1.391 . S
C152 H146 0.930 . S
C152 C148 1.429 . S
C152 C151 1.391 . S
H153 C156 0.931 . S
H154 C159 0.928 . S
H155 C161 0.930 . S
C156 H153 0.931 . S
C156 C157 1.413 . S
C156 C158 1.360 . S
C157 C156 1.413 . S
C157 C161 1.429 . S
C158 C156 1.360 . S
C158 C159 1.372 . S
C159 H154 0.928 . S
C159 C158 1.372 . S
C159 C160 1.404 . S
C160 C159 1.404 . S
C160 C161 1.391 . S
C161 H155 0.930 . S
C161 C157 1.429 . S
C161 C160 1.391 . S
H162 C165 0.931 . S
H163 C168 0.928 . S
H164 C170 0.930 . S
C165 H162 0.931 . S
C165 C166 1.413 . S
C165 C167 1.360 . S
C166 C165 1.413 . S
C166 C170 1.429 . S
C167 C165 1.360 . S
C167 C168 1.372 . S
C168 H163 0.928 . S
C168 C167 1.372 . S
C168 C169 1.404 . S
C169 C168 1.404 . S
C169 C170 1.391 . S
C170 H164 0.930 . S
C170 C166 1.429 . S
C170 C169 1.391 . S
H171 C174 0.931 . S
H172 C177 0.928 . S
H173 C179 0.930 . S
C174 H171 0.931 . S
C174 C175 1.413 . S
C174 C176 1.360 . S
C175 C174 1.413 . S
C175 C179 1.429 . S
C176 C174 1.360 . S
C176 C177 1.372 . S
C177 H172 0.928 . S
C177 C176 1.372 . S
C177 C178 1.404 . S
C178 C177 1.404 . S
C178 C179 1.391 . S
C179 H173 0.930 . S
C179 C175 1.429 . S
C179 C178 1.391 . S
H180 C183 0.931 . S
H181 C186 0.928 . S
H182 C188 0.930 . S
C183 H180 0.931 . S
C183 C184 1.413 . S
C183 C185 1.360 . S
C184 C183 1.413 . S
C184 C188 1.429 . S
C185 C183 1.360 . S
C185 C186 1.372 . S
C186 H181 0.928 . S
C186 C185 1.372 . S
C186 C187 1.404 . S
C187 C186 1.404 . S
C187 C188 1.391 . S
C188 H182 0.930 . S
C188 C184 1.429 . S
C188 C187 1.391 . S
H189 C192 0.931 . S
H190 C195 0.928 . S
H191 C197 0.930 . S
C192 H189 0.931 . S
C192 C193 1.413 . S
C192 C194 1.360 . S
C193 C192 1.413 . S
C193 C197 1.429 . S
C194 C192 1.360 . S
C194 C195 1.372 . S
C195 H190 0.928 . S
C195 C194 1.372 . S
C195 C196 1.404 . S
C196 C195 1.404 . S
C196 C197 1.391 . S
C197 H191 0.930 . S
C197 C193 1.429 . S
C197 C196 1.391 . S
H198 C201 0.931 . S
H199 C204 0.928 . S
H200 C206 0.930 . S
C201 H198 0.931 . S
C201 C202 1.413 . S
C201 C203 1.360 . S
C202 C201 1.413 . S
C202 C206 1.429 . S
C203 C201 1.360 . S
C203 C204 1.372 . S
C204 H199 0.928 . S
C204 C203 1.372 . S
C204 C205 1.404 . S
C205 C204 1.404 . S
C205 C206 1.391 . S
C206 H200 0.930 . S
C206 C202 1.429 . S
C206 C205 1.391 . S
H207 C210 0.931 . S
H208 C213 0.928 . S
H209 C215 0.930 . S
C210 H207 0.931 . S
C210 C211 1.413 . S
C210 C212 1.360 . S
C211 C210 1.413 . S
C211 C215 1.429 . S
C212 C210 1.360 . S
C212 C213 1.372 . S
C213 H208 0.928 . S
C213 C212 1.372 . S
C213 C214 1.404 . S
C214 C213 1.404 . S
C214 C215 1.391 . S
C215 H209 0.930 . S
C215 C211 1.429 . S
C215 C214 1.391 . S
C216 O242 1.283 . S
C216 O260 1.283 . S
C217 O243 1.283 . S
C217 O258 1.283 . S
C218 O244 1.283 . S
C218 O261 1.283 . S
C219 O245 1.283 . S
C219 O259 1.283 . S
C220 O246 1.283 . S
C220 O255 1.283 . S
C221 O247 1.283 . S
C221 O257 1.283 . S
C222 O248 1.283 . S
C222 O254 1.283 . S
C223 O249 1.283 . S
C223 O256 1.283 . S
C224 O250 1.283 . S
C224 O265 1.283 . S
C225 O251 1.283 . S
C225 O263 1.283 . S
C226 O252 1.283 . S
C226 O264 1.283 . S
C227 O253 1.283 . S
C227 O262 1.283 . S
Eu228 O229 2.362 1_455 S
Eu228 O230 2.378 . S
Eu228 O233 2.362 1_455 S
Eu228 O234 2.378 . S
Eu228 O242 2.363 . S
Eu228 O243 2.363 . S
Eu228 O256 2.377 . S
Eu228 O257 2.349 1_455 S
O229 Eu228 2.362 1_655 S
O229 Eu231 2.363 1_565 S
O229 Eu236 2.355 1_665 S
O230 Eu228 2.378 . S
O230 Eu232 2.363 1_565 S
O230 Eu235 2.371 1_565 S
Eu231 O229 2.363 1_545 S
Eu231 O233 2.363 1_545 S
Eu231 O237 2.377 . S
Eu231 O238 2.377 . S
Eu231 O246 2.375 . S
Eu231 O247 2.351 1_545 S
Eu231 O262 2.363 . S
Eu231 O263 2.363 . S
Eu232 O230 2.363 1_545 S
Eu232 O234 2.363 1_545 S
Eu232 O239 2.377 . S
Eu232 O240 2.377 . S
Eu232 O248 2.375 . S
Eu232 O249 2.351 1_545 S
Eu232 O264 2.363 . S
Eu232 O265 2.363 . S
O233 Eu228 2.362 1_655 S
O233 Eu231 2.363 1_565 S
O233 Eu235 2.355 1_665 S
O234 Eu228 2.378 . S
O234 Eu232 2.363 1_565 S
O234 Eu236 2.371 1_565 S
Eu235 O230 2.371 1_545 S
Eu235 O233 2.355 1_445 S
Eu235 O237 2.369 1_455 S
Eu235 O240 2.385 . S
Eu235 O252 2.377 . S
Eu235 O253 2.349 1_455 S
Eu235 O260 2.351 1_545 S
Eu235 O261 2.375 . S
Eu236 O229 2.355 1_445 S
Eu236 O234 2.371 1_545 S
Eu236 O238 2.369 1_455 S
Eu236 O239 2.385 . S
Eu236 O250 2.377 . S
Eu236 O251 2.349 1_455 S
Eu236 O258 2.351 1_545 S
Eu236 O259 2.375 . S
O237 Eu231 2.377 . S
O237 Eu235 2.369 1_655 S
O237 Eu241 2.362 1_655 S
O238 Eu231 2.377 . S
O238 Eu236 2.369 1_655 S
O238 Eu241 2.362 1_655 S
O239 Eu232 2.377 . S
O239 Eu236 2.385 . S
O239 Eu241 2.378 . S
O240 Eu232 2.377 . S
O240 Eu235 2.385 . S
O240 Eu241 2.378 . S
Eu241 O237 2.362 1_455 S
Eu241 O238 2.362 1_455 S
Eu241 O239 2.378 . S
Eu241 O240 2.378 . S
Eu241 O244 2.363 . S
Eu241 O245 2.363 . S
Eu241 O254 2.376 . S
Eu241 O255 2.350 1_455 S
O242 C216 1.283 . S
O242 Eu228 2.363 . S
O243 C217 1.283 . S
O243 Eu228 2.363 . S
O244 C218 1.283 . S
O244 Eu241 2.363 . S
O245 C219 1.283 . S
O245 Eu241 2.363 . S
O246 C220 1.283 . S
O246 Eu231 2.375 . S
O247 C221 1.283 . S
O247 Eu231 2.351 1_565 S
O248 C222 1.283 . S
O248 Eu232 2.375 . S
O249 C223 1.283 . S
O249 Eu232 2.351 1_565 S
O250 C224 1.283 . S
O250 Eu236 2.377 . S
O251 C225 1.283 . S
O251 Eu236 2.349 1_655 S
O252 C226 1.283 . S
O252 Eu235 2.377 . S
O253 C227 1.283 . S
O253 Eu235 2.349 1_655 S
O254 C222 1.283 . S
O254 Eu241 2.376 . S
O255 C220 1.283 . S
O255 Eu241 2.350 1_655 S
O256 C223 1.283 . S
O256 Eu228 2.377 . S
O257 C221 1.283 . S
O257 Eu228 2.349 1_655 S
O258 C217 1.283 . S
O258 Eu236 2.351 1_565 S
O259 C219 1.283 . S
O259 Eu236 2.375 . S
O260 C216 1.283 . S
O260 Eu235 2.351 1_565 S
O261 C218 1.283 . S
O261 Eu235 2.375 . S
O262 C227 1.283 . S
O262 Eu231 2.363 . S
O263 C225 1.283 . S
O263 Eu231 2.363 . S
O264 C226 1.283 . S
O264 Eu232 2.363 . S
O265 C224 1.283 . S
O265 Eu232 2.363 . S
C266 O292 1.283 . S
C266 O310 1.283 . S
C267 O293 1.283 . S
C267 O308 1.283 . S
C268 O294 1.283 . S
C268 O311 1.283 . S
C269 O295 1.283 . S
C269 O309 1.283 . S
C270 O296 1.283 . S
C270 O305 1.283 . S
C271 O297 1.283 . S
C271 O307 1.283 . S
C272 O298 1.283 . S
C272 O304 1.283 . S
C273 O299 1.283 . S
C273 O306 1.283 . S
C274 O300 1.283 . S
C274 O315 1.283 . S
C275 O301 1.283 . S
C275 O313 1.283 . S
C276 O302 1.283 . S
C276 O314 1.283 . S
C277 O303 1.283 . S
C277 O312 1.283 . S
Eu278 O279 2.373 . S
Eu278 O280 2.367 1_545 S
Eu278 O283 2.367 1_545 S
Eu278 O284 2.373 . S
Eu278 O292 2.357 1_545 S
Eu278 O293 2.368 . S
Eu278 O306 2.363 . S
Eu278 O307 2.363 . S
O279 Eu278 2.373 . S
O279 Eu281 2.376 . S
O279 Eu286 2.373 . S
O280 Eu278 2.367 1_565 S
O280 Eu282 2.369 1_565 S
O280 Eu285 2.373 . S
Eu281 O279 2.376 . S
Eu281 O283 2.369 1_545 S
Eu281 O287 2.364 1_544 S
Eu281 O288 2.371 1_554 S
Eu281 O296 2.358 1_554 S
Eu281 O297 2.367 . S
Eu281 O312 2.357 1_545 S
Eu281 O313 2.369 . S
Eu282 O280 2.369 1_545 S
Eu282 O284 2.376 . S
Eu282 O289 2.371 1_554 S
Eu282 O290 2.364 1_544 S
Eu282 O298 2.358 1_554 S
Eu282 O299 2.367 . S
Eu282 O314 2.357 1_545 S
Eu282 O315 2.369 . S
O283 Eu278 2.367 1_565 S
O283 Eu281 2.369 1_565 S
O283 Eu285 2.373 . S
O284 Eu278 2.373 . S
O284 Eu282 2.376 . S
O284 Eu286 2.373 . S
Eu285 O280 2.373 . S
Eu285 O283 2.373 . S
Eu285 O287 2.368 1_554 S
Eu285 O290 2.368 1_554 S
Eu285 O302 2.363 . S
Eu285 O303 2.363 . S
Eu285 O310 2.367 . S
Eu285 O311 2.359 1_554 S
Eu286 O279 2.373 . S
Eu286 O284 2.373 . S
Eu286 O288 2.367 1_554 S
Eu286 O289 2.367 1_554 S
Eu286 O300 2.363 . S
Eu286 O301 2.363 . S
Eu286 O308 2.368 . S
Eu286 O309 2.358 1_554 S
O287 Eu281 2.364 1_566 S
O287 Eu285 2.368 1_556 S
O287 Eu291 2.367 1_565 S
O288 Eu281 2.371 1_556 S
O288 Eu286 2.367 1_556 S
O288 Eu291 2.374 . S
O289 Eu282 2.371 1_556 S
O289 Eu286 2.367 1_556 S
O289 Eu291 2.374 . S
O290 Eu282 2.364 1_566 S
O290 Eu285 2.368 1_556 S
O290 Eu291 2.367 1_565 S
Eu291 O287 2.367 1_545 S
Eu291 O288 2.374 . S
Eu291 O289 2.374 . S
Eu291 O290 2.367 1_545 S
Eu291 O294 2.357 1_545 S
Eu291 O295 2.369 . S
Eu291 O304 2.363 . S
Eu291 O305 2.363 . S
O292 C266 1.283 . S
O292 Eu278 2.357 1_565 S
O293 C267 1.283 . S
O293 Eu278 2.368 . S
O294 C268 1.283 . S
O294 Eu291 2.357 1_565 S
O295 C269 1.283 . S
O295 Eu291 2.369 . S
O296 C270 1.283 . S
O296 Eu281 2.358 1_556 S
O297 C271 1.283 . S
O297 Eu281 2.367 . S
O298 C272 1.283 . S
O298 Eu282 2.358 1_556 S
O299 C273 1.283 . S
O299 Eu282 2.367 . S
O300 C274 1.283 . S
O300 Eu286 2.363 . S
O301 C275 1.283 . S
O301 Eu286 2.363 . S
O302 C276 1.283 . S
O302 Eu285 2.363 . S
O303 C277 1.283 . S
O303 Eu285 2.363 . S
O304 C272 1.283 . S
O304 Eu291 2.363 . S
O305 C270 1.283 . S
O305 Eu291 2.363 . S
O306 C273 1.283 . S
O306 Eu278 2.363 . S
O307 C271 1.283 . S
O307 Eu278 2.363 . S
O308 C267 1.283 . S
O308 Eu286 2.368 . S
O309 C269 1.283 . S
O309 Eu286 2.358 1_556 S
O310 C266 1.283 . S
O310 Eu285 2.367 . S
O311 C268 1.283 . S
O311 Eu285 2.359 1_556 S
O312 C277 1.283 . S
O312 Eu281 2.357 1_565 S
O313 C275 1.283 . S
O313 Eu281 2.369 . S
O314 C276 1.283 . S
O314 Eu282 2.357 1_565 S
O315 C274 1.283 . S
O315 Eu282 2.369 . S
C316 O342 1.283 . S
C316 O360 1.283 . S
C317 O343 1.283 . S
C317 O358 1.283 . S
C318 O344 1.283 . S
C318 O361 1.283 . S
C319 O345 1.283 . S
C319 O359 1.283 . S
C320 O346 1.283 . S
C320 O355 1.283 . S
C321 O347 1.283 . S
C321 O357 1.283 . S
C322 O348 1.283 . S
C322 O354 1.283 . S
C323 O349 1.283 . S
C323 O356 1.283 . S
C324 O350 1.283 . S
C324 O365 1.283 . S
C325 O351 1.283 . S
C325 O363 1.283 . S
C326 O352 1.283 . S
C326 O364 1.283 . S
C327 O353 1.283 . S
C327 O362 1.283 . S
Eu328 O329 2.369 1_454 S
Eu328 O330 2.371 . S
Eu328 O333 2.369 1_455 S
Eu328 O334 2.371 1_554 S
Eu328 O342 2.363 . S
Eu328 O343 2.363 1_554 S
Eu328 O356 2.364 . S
Eu328 O357 2.362 1_455 S
O329 Eu328 2.369 1_656 S
O329 Eu331 2.370 1_556 S
O329 Eu336 2.369 1_655 S
O330 Eu328 2.371 . S
O330 Eu332 2.370 . S
O330 Eu335 2.371 . S
Eu331 O329 2.370 1_554 S
Eu331 O333 2.370 . S
Eu331 O337 2.370 . S
Eu331 O338 2.370 1_554 S
Eu331 O346 2.363 . S
Eu331 O347 2.363 . S
Eu331 O362 2.363 . S
Eu331 O363 2.363 1_554 S
Eu332 O330 2.370 . S
Eu332 O334 2.370 1_554 S
Eu332 O339 2.370 1_554 S
Eu332 O340 2.370 . S
Eu332 O348 2.363 . S
Eu332 O349 2.363 . S
Eu332 O364 2.363 . S
Eu332 O365 2.363 1_554 S
O333 Eu328 2.369 1_655 S
O333 Eu331 2.370 . S
O333 Eu335 2.369 1_655 S
O334 Eu328 2.371 1_556 S
O334 Eu332 2.370 1_556 S
O334 Eu336 2.371 . S
Eu335 O330 2.371 . S
Eu335 O333 2.369 1_455 S
Eu335 O337 2.369 1_455 S
Eu335 O340 2.371 . S
Eu335 O352 2.364 . S
Eu335 O353 2.362 1_455 S
Eu335 O360 2.363 . S
Eu335 O361 2.363 . S
Eu336 O329 2.369 1_455 S
Eu336 O334 2.371 . S
Eu336 O338 2.369 1_455 S
Eu336 O339 2.371 . S
Eu336 O350 2.364 . S
Eu336 O351 2.362 1_455 S
Eu336 O358 2.363 . S
Eu336 O359 2.363 . S
O337 Eu331 2.370 . S
O337 Eu335 2.369 1_655 S
O337 Eu341 2.369 1_655 S
O338 Eu331 2.370 1_556 S
O338 Eu336 2.369 1_655 S
O338 Eu341 2.369 1_656 S
O339 Eu332 2.370 1_556 S
O339 Eu336 2.371 . S
O339 Eu341 2.371 1_556 S
O340 Eu332 2.370 . S
O340 Eu335 2.371 . S
O340 Eu341 2.371 . S
Eu341 O337 2.369 1_455 S
Eu341 O338 2.369 1_454 S
Eu341 O339 2.371 1_554 S
Eu341 O340 2.371 . S
Eu341 O344 2.363 . S
Eu341 O345 2.363 1_554 S
Eu341 O354 2.364 . S
Eu341 O355 2.362 1_455 S
O342 C316 1.283 . S
O342 Eu328 2.363 . S
O343 C317 1.283 . S
O343 Eu328 2.363 1_556 S
O344 C318 1.283 . S
O344 Eu341 2.363 . S
O345 C319 1.283 . S
O345 Eu341 2.363 1_556 S
O346 C320 1.283 . S
O346 Eu331 2.363 . S
O347 C321 1.283 . S
O347 Eu331 2.363 . S
O348 C322 1.283 . S
O348 Eu332 2.363 . S
O349 C323 1.283 . S
O349 Eu332 2.363 . S
O350 C324 1.283 . S
O350 Eu336 2.364 . S
O351 C325 1.283 . S
O351 Eu336 2.362 1_655 S
O352 C326 1.283 . S
O352 Eu335 2.364 . S
O353 C327 1.283 . S
O353 Eu335 2.362 1_655 S
O354 C322 1.283 . S
O354 Eu341 2.364 . S
O355 C320 1.283 . S
O355 Eu341 2.362 1_655 S
O356 C323 1.283 . S
O356 Eu328 2.364 . S
O357 C321 1.283 . S
O357 Eu328 2.362 1_655 S
O358 C317 1.283 . S
O358 Eu336 2.363 . S
O359 C319 1.283 . S
O359 Eu336 2.363 . S
O360 C316 1.283 . S
O360 Eu335 2.363 . S
O361 C318 1.283 . S
O361 Eu335 2.363 . S
O362 C327 1.283 . S
O362 Eu331 2.363 . S
O363 C325 1.283 . S
O363 Eu331 2.363 1_556 S
O364 C326 1.283 . S
O364 Eu332 2.363 . S
O365 C324 1.283 . S
O365 Eu332 2.363 1_556 S
C366 O392 1.283 . S
C366 O410 1.283 . S
C367 O393 1.283 . S
C367 O408 1.283 . S
C368 O394 1.283 . S
C368 O411 1.283 . S
C369 O395 1.283 . S
C369 O409 1.283 . S
C370 O396 1.283 . S
C370 O405 1.283 . S
C371 O397 1.283 . S
C371 O407 1.283 . S
C372 O398 1.283 . S
C372 O404 1.283 . S
C373 O399 1.283 . S
C373 O406 1.283 . S
C374 O400 1.283 . S
C374 O415 1.283 . S
C375 O401 1.283 . S
C375 O413 1.283 . S
C376 O402 1.283 . S
C376 O414 1.283 . S
C377 O403 1.283 . S
C377 O412 1.283 . S
Eu378 O379 2.370 . S
Eu378 O380 2.370 . S
Eu378 O383 2.370 . S
Eu378 O384 2.370 . S
Eu378 O392 2.363 . S
Eu378 O393 2.363 . S
Eu378 O406 2.363 . S
Eu378 O407 2.363 . S
O379 Eu378 2.370 . S
O379 Eu381 2.374 . S
O379 Eu386 2.374 . S
O380 Eu378 2.370 . S
O380 Eu382 2.374 . S
O380 Eu385 2.374 . S
Eu381 O379 2.374 . S
Eu381 O383 2.374 . S
Eu381 O387 2.367 1_554 S
Eu381 O388 2.367 1_554 S
Eu381 O396 2.357 1_554 S
Eu381 O397 2.369 . S
Eu381 O412 2.363 . S
Eu381 O413 2.363 . S
Eu382 O380 2.374 . S
Eu382 O384 2.374 . S
Eu382 O389 2.367 1_554 S
Eu382 O390 2.367 1_554 S
Eu382 O398 2.357 1_554 S
Eu382 O399 2.369 . S
Eu382 O414 2.363 . S
Eu382 O415 2.363 . S
O383 Eu378 2.370 . S
O383 Eu381 2.374 . S
O383 Eu385 2.374 . S
O384 Eu378 2.370 . S
O384 Eu382 2.374 . S
O384 Eu386 2.374 . S
Eu385 O380 2.374 . S
Eu385 O383 2.374 . S
Eu385 O387 2.367 1_554 S
Eu385 O390 2.367 1_554 S
Eu385 O402 2.363 . S
Eu385 O403 2.363 . S
Eu385 O410 2.369 . S
Eu385 O411 2.357 1_554 S
Eu386 O379 2.374 . S
Eu386 O384 2.374 . S
Eu386 O388 2.367 1_554 S
Eu386 O389 2.367 1_554 S
Eu386 O400 2.363 . S
Eu386 O401 2.363 . S
Eu386 O408 2.369 . S
Eu386 O409 2.357 1_554 S
O387 Eu381 2.367 1_556 S
O387 Eu385 2.367 1_556 S
O387 Eu391 2.370 . S
O388 Eu381 2.367 1_556 S
O388 Eu386 2.367 1_556 S
O388 Eu391 2.370 . S
O389 Eu382 2.367 1_556 S
O389 Eu386 2.367 1_556 S
O389 Eu391 2.370 . S
O390 Eu382 2.367 1_556 S
O390 Eu385 2.367 1_556 S
O390 Eu391 2.370 . S
Eu391 O387 2.370 . S
Eu391 O388 2.370 . S
Eu391 O389 2.370 . S
Eu391 O390 2.370 . S
Eu391 O394 2.363 . S
Eu391 O395 2.363 . S
Eu391 O404 2.363 . S
Eu391 O405 2.363 . S
O392 C366 1.283 . S
O392 Eu378 2.363 . S
O393 C367 1.283 . S
O393 Eu378 2.363 . S
O394 C368 1.283 . S
O394 Eu391 2.363 . S
O395 C369 1.283 . S
O395 Eu391 2.363 . S
O396 C370 1.283 . S
O396 Eu381 2.357 1_556 S
O397 C371 1.283 . S
O397 Eu381 2.369 . S
O398 C372 1.283 . S
O398 Eu382 2.357 1_556 S
O399 C373 1.283 . S
O399 Eu382 2.369 . S
O400 C374 1.283 . S
O400 Eu386 2.363 . S
O401 C375 1.283 . S
O401 Eu386 2.363 . S
O402 C376 1.283 . S
O402 Eu385 2.363 . S
O403 C377 1.283 . S
O403 Eu385 2.363 . S
O404 C372 1.283 . S
O404 Eu391 2.363 . S
O405 C370 1.283 . S
O405 Eu391 2.363 . S
O406 C373 1.283 . S
O406 Eu378 2.363 . S
O407 C371 1.283 . S
O407 Eu378 2.363 . S
O408 C367 1.283 . S
O408 Eu386 2.369 . S
O409 C369 1.283 . S
O409 Eu386 2.357 1_556 S
O410 C366 1.283 . S
O410 Eu385 2.369 . S
O411 C368 1.283 . S
O411 Eu385 2.357 1_556 S
O412 C377 1.283 . S
O412 Eu381 2.363 . S
O413 C375 1.283 . S
O413 Eu381 2.363 . S
O414 C376 1.283 . S
O414 Eu382 2.363 . S
O415 C374 1.283 . S
O415 Eu382 2.363 . S
C416 O442 1.283 . S
C416 O460 1.283 . S
C417 O443 1.283 . S
C417 O458 1.283 . S
C418 O444 1.283 . S
C418 O461 1.283 . S
C419 O445 1.283 . S
C419 O459 1.283 . S
C420 O446 1.283 . S
C420 O455 1.283 . S
C421 O447 1.283 . S
C421 O457 1.283 . S
C422 O448 1.283 . S
C422 O454 1.283 . S
C423 O449 1.283 . S
C423 O456 1.283 . S
C424 O450 1.283 . S
C424 O465 1.283 . S
C425 O451 1.283 . S
C425 O463 1.283 . S
C426 O452 1.283 . S
C426 O464 1.283 . S
C427 O453 1.283 . S
C427 O462 1.283 . S
Eu428 O429 2.366 1_455 S
Eu428 O430 2.374 . S
Eu428 O433 2.366 1_455 S
Eu428 O434 2.374 . S
Eu428 O442 2.363 . S
Eu428 O443 2.363 . S
Eu428 O456 2.369 . S
Eu428 O457 2.357 1_455 S
O429 Eu428 2.366 1_655 S
O429 Eu431 2.370 . S
O429 Eu436 2.366 1_655 S
O430 Eu428 2.374 . S
O430 Eu432 2.370 . S
O430 Eu435 2.374 . S
Eu431 O429 2.370 . S
Eu431 O433 2.370 . S
Eu431 O437 2.370 . S
Eu431 O438 2.370 . S
Eu431 O446 2.363 . S
Eu431 O447 2.363 . S
Eu431 O462 2.363 . S
Eu431 O463 2.363 . S
Eu432 O430 2.370 . S
Eu432 O434 2.370 . S
Eu432 O439 2.370 . S
Eu432 O440 2.370 . S
Eu432 O448 2.363 . S
Eu432 O449 2.363 . S
Eu432 O464 2.363 . S
Eu432 O465 2.363 . S
O433 Eu428 2.366 1_655 S
O433 Eu431 2.370 . S
O433 Eu435 2.366 1_655 S
O434 Eu428 2.374 . S
O434 Eu432 2.370 . S
O434 Eu436 2.374 . S
Eu435 O430 2.374 . S
Eu435 O433 2.366 1_455 S
Eu435 O437 2.366 1_455 S
Eu435 O440 2.374 . S
Eu435 O452 2.369 . S
Eu435 O453 2.357 1_455 S
Eu435 O460 2.363 . S
Eu435 O461 2.363 . S
Eu436 O429 2.366 1_455 S
Eu436 O434 2.374 . S
Eu436 O438 2.366 1_455 S
Eu436 O439 2.374 . S
Eu436 O450 2.369 . S
Eu436 O451 2.357 1_455 S
Eu436 O458 2.363 . S
Eu436 O459 2.363 . S
O437 Eu431 2.370 . S
O437 Eu435 2.366 1_655 S
O437 Eu441 2.366 1_655 S
O438 Eu431 2.370 . S
O438 Eu436 2.366 1_655 S
O438 Eu441 2.366 1_655 S
O439 Eu432 2.370 . S
O439 Eu436 2.374 . S
O439 Eu441 2.374 . S
O440 Eu432 2.370 . S
O440 Eu435 2.374 . S
O440 Eu441 2.374 . S
Eu441 O437 2.366 1_455 S
Eu441 O438 2.366 1_455 S
Eu441 O439 2.374 . S
Eu441 O440 2.374 . S
Eu441 O444 2.363 . S
Eu441 O445 2.363 . S
Eu441 O454 2.369 . S
Eu441 O455 2.357 1_455 S
O442 C416 1.283 . S
O442 Eu428 2.363 . S
O443 C417 1.283 . S
O443 Eu428 2.363 . S
O444 C418 1.283 . S
O444 Eu441 2.363 . S
O445 C419 1.283 . S
O445 Eu441 2.363 . S
O446 C420 1.283 . S
O446 Eu431 2.363 . S
O447 C421 1.283 . S
O447 Eu431 2.363 . S
O448 C422 1.283 . S
O448 Eu432 2.363 . S
O449 C423 1.283 . S
O449 Eu432 2.363 . S
O450 C424 1.283 . S
O450 Eu436 2.369 . S
O451 C425 1.283 . S
O451 Eu436 2.357 1_655 S
O452 C426 1.283 . S
O452 Eu435 2.369 . S
O453 C427 1.283 . S
O453 Eu435 2.357 1_655 S
O454 C422 1.283 . S
O454 Eu441 2.369 . S
O455 C420 1.283 . S
O455 Eu441 2.357 1_655 S
O456 C423 1.283 . S
O456 Eu428 2.369 . S
O457 C421 1.283 . S
O457 Eu428 2.357 1_655 S
O458 C417 1.283 . S
O458 Eu436 2.363 . S
O459 C419 1.283 . S
O459 Eu436 2.363 . S
O460 C416 1.283 . S
O460 Eu435 2.363 . S
O461 C418 1.283 . S
O461 Eu435 2.363 . S
O462 C427 1.283 . S
O462 Eu431 2.363 . S
O463 C425 1.283 . S
O463 Eu431 2.363 . S
O464 C426 1.283 . S
O464 Eu432 2.363 . S
O465 C424 1.283 . S
O465 Eu432 2.363 . S
C466 O492 1.283 . S
C466 O510 1.283 . S
C467 O493 1.283 . S
C467 O508 1.283 . S
C468 O494 1.283 . S
C468 O511 1.283 . S
C469 O495 1.283 . S
C469 O509 1.283 . S
C470 O496 1.283 . S
C470 O505 1.283 . S
C471 O497 1.283 . S
C471 O507 1.283 . S
C472 O498 1.283 . S
C472 O504 1.283 . S
C473 O499 1.283 . S
C473 O506 1.283 . S
C474 O500 1.283 . S
C474 O515 1.283 . S
C475 O501 1.283 . S
C475 O513 1.283 . S
C476 O502 1.283 . S
C476 O514 1.283 . S
C477 O503 1.283 . S
C477 O512 1.283 . S
Eu478 O479 2.370 . S
Eu478 O480 2.370 . S
Eu478 O483 2.370 . S
Eu478 O484 2.370 . S
Eu478 O492 2.363 . S
Eu478 O493 2.363 . S
Eu478 O506 2.363 . S
Eu478 O507 2.363 . S
O479 Eu478 2.370 . S
O479 Eu481 2.362 1_565 S
O479 Eu486 2.362 1_565 S
O480 Eu478 2.370 . S
O480 Eu482 2.362 1_565 S
O480 Eu485 2.362 1_565 S
Eu481 O479 2.362 1_545 S
Eu481 O483 2.362 1_545 S
Eu481 O487 2.378 . S
Eu481 O488 2.378 . S
Eu481 O496 2.377 . S
Eu481 O497 2.349 1_545 S
Eu481 O512 2.363 . S
Eu481 O513 2.363 . S
Eu482 O480 2.362 1_545 S
Eu482 O484 2.362 1_545 S
Eu482 O489 2.378 . S
Eu482 O490 2.378 . S
Eu482 O498 2.377 . S
Eu482 O499 2.349 1_545 S
Eu482 O514 2.363 . S
Eu482 O515 2.363 . S
O483 Eu478 2.370 . S
O483 Eu481 2.362 1_565 S
O483 Eu485 2.362 1_565 S
O484 Eu478 2.370 . S
O484 Eu482 2.362 1_565 S
O484 Eu486 2.362 1_565 S
Eu485 O480 2.362 1_545 S
Eu485 O483 2.362 1_545 S
Eu485 O487 2.378 . S
Eu485 O490 2.378 . S
Eu485 O502 2.363 . S
Eu485 O503 2.363 . S
Eu485 O510 2.349 1_545 S
Eu485 O511 2.377 . S
Eu486 O479 2.362 1_545 S
Eu486 O484 2.362 1_545 S
Eu486 O488 2.378 . S
Eu486 O489 2.378 . S
Eu486 O500 2.363 . S
Eu486 O501 2.363 . S
Eu486 O508 2.349 1_545 S
Eu486 O509 2.376 . S
O487 Eu481 2.378 . S
O487 Eu485 2.378 . S
O487 Eu491 2.370 . S
O488 Eu481 2.378 . S
O488 Eu486 2.378 . S
O488 Eu491 2.370 . S
O489 Eu482 2.378 . S
O489 Eu486 2.378 . S
O489 Eu491 2.370 . S
O490 Eu482 2.378 . S
O490 Eu485 2.378 . S
O490 Eu491 2.370 . S
Eu491 O487 2.370 . S
Eu491 O488 2.370 . S
Eu491 O489 2.370 . S
Eu491 O490 2.370 . S
Eu491 O494 2.363 . S
Eu491 O495 2.363 . S
Eu491 O504 2.363 . S
Eu491 O505 2.363 . S
O492 C466 1.283 . S
O492 Eu478 2.363 . S
O493 C467 1.283 . S
O493 Eu478 2.363 . S
O494 C468 1.283 . S
O494 Eu491 2.363 . S
O495 C469 1.283 . S
O495 Eu491 2.363 . S
O496 C470 1.283 . S
O496 Eu481 2.377 . S
O497 C471 1.283 . S
O497 Eu481 2.349 1_565 S
O498 C472 1.283 . S
O498 Eu482 2.377 . S
O499 C473 1.283 . S
O499 Eu482 2.349 1_565 S
O500 C474 1.283 . S
O500 Eu486 2.363 . S
O501 C475 1.283 . S
O501 Eu486 2.363 . S
O502 C476 1.283 . S
O502 Eu485 2.363 . S
O503 C477 1.283 . S
O503 Eu485 2.363 . S
O504 C472 1.283 . S
O504 Eu491 2.363 . S
O505 C470 1.283 . S
O505 Eu491 2.363 . S
O506 C473 1.283 . S
O506 Eu478 2.363 . S
O507 C471 1.283 . S
O507 Eu478 2.363 . S
O508 C467 1.283 . S
O508 Eu486 2.349 1_565 S
O509 C469 1.283 . S
O509 Eu486 2.376 . S
O510 C466 1.283 . S
O510 Eu485 2.349 1_565 S
O511 C468 1.283 . S
O511 Eu485 2.377 . S
O512 C477 1.283 . S
O512 Eu481 2.363 . S
O513 C475 1.283 . S
O513 Eu481 2.363 . S
O514 C476 1.283 . S
O514 Eu482 2.363 . S
O515 C474 1.283 . S
O515 Eu482 2.363 . S
C516 C517 1.349 . S
C516 C518 1.327 . S
C516 H541 0.950 . S
C517 C516 1.349 . S
C517 C533 1.349 . S
C518 C516 1.327 . S
C518 C537 1.429 . S
C518 H542 0.950 . S
C519 C536 1.574 . S
C519 C538 1.368 . S
C519 H543 0.949 . S
H520 C524 0.949 . S
C521 C522 1.349 . S
C521 C523 1.327 . S
C521 H544 0.950 . S
C522 C521 1.349 . S
C522 C534 1.349 . S
C523 C521 1.327 . S
C523 C539 1.429 . S
C523 H545 0.950 . S
C524 H520 0.949 . S
C524 C532 1.574 . S
C524 C540 1.368 . S
H525 C533 0.950 . S
H526 C531 0.950 . S
H527 C532 0.949 . S
H528 C534 0.950 . S
H529 C535 0.950 . S
H530 C536 0.949 . S
C531 H526 0.950 . S
C531 C533 1.327 . S
C531 C537 1.429 . S
C532 C524 1.574 . S
C532 H527 0.949 . S
C532 C538 1.368 . S
C533 C517 1.349 . S
C533 H525 0.950 . S
C533 C531 1.327 . S
C534 C522 1.349 . S
C534 H528 0.950 . S
C534 C535 1.327 . S
C535 H529 0.950 . S
C535 C534 1.327 . S
C535 C539 1.429 . S
C536 C519 1.574 . S
C536 H530 0.949 . S
C536 C540 1.368 . S
C537 C518 1.429 . S
C537 C531 1.429 . S
C537 C538 1.523 . S
C538 C519 1.368 . S
C538 C532 1.368 . S
C538 C537 1.523 . S
C539 C523 1.429 . S
C539 C535 1.429 . S
C539 C540 1.523 . S
C540 C524 1.368 . S
C540 C536 1.368 . S
C540 C539 1.523 . S
H541 C516 0.950 . S
H542 C518 0.950 . S
H543 C519 0.949 . S
H544 C521 0.950 . S
H545 C523 0.950 . S
C546 C547 1.349 . S
C546 C548 1.327 . S
C546 H571 0.950 . S
C547 C546 1.349 . S
C547 C563 1.349 . S
C548 C546 1.327 . S
C548 C567 1.429 . S
C548 H572 0.950 . S
C549 C566 1.574 . S
C549 C568 1.368 . S
C549 H573 0.949 . S
H550 C554 0.949 . S
C551 C552 1.349 . S
C551 C553 1.327 . S
C551 H574 0.950 . S
C552 C551 1.349 . S
C552 C564 1.349 . S
C553 C551 1.327 . S
C553 C569 1.429 . S
C553 H575 0.950 . S
C554 H550 0.949 . S
C554 C562 1.574 . S
C554 C570 1.368 . S
H555 C563 0.950 . S
H556 C561 0.950 . S
H557 C562 0.949 . S
H558 C564 0.950 . S
H559 C565 0.950 . S
H560 C566 0.949 . S
C561 H556 0.950 . S
C561 C563 1.327 . S
C561 C567 1.429 . S
C562 C554 1.574 . S
C562 H557 0.949 . S
C562 C568 1.368 . S
C563 C547 1.349 . S
C563 H555 0.950 . S
C563 C561 1.327 . S
C564 C552 1.349 . S
C564 H558 0.950 . S
C564 C565 1.327 . S
C565 H559 0.950 . S
C565 C564 1.327 . S
C565 C569 1.429 . S
C566 C549 1.574 . S
C566 H560 0.949 . S
C566 C570 1.368 . S
C567 C548 1.429 . S
C567 C561 1.429 . S
C567 C568 1.523 . S
C568 C549 1.368 . S
C568 C562 1.368 . S
C568 C567 1.523 . S
C569 C553 1.429 . S
C569 C565 1.429 . S
C569 C570 1.523 . S
C570 C554 1.368 . S
C570 C566 1.368 . S
C570 C569 1.523 . S
H571 C546 0.950 . S
H572 C548 0.950 . S
H573 C549 0.949 . S
H574 C551 0.950 . S
H575 C553 0.950 . S
C576 C577 1.349 . S
C576 C578 1.327 . S
C576 H601 0.950 . S
C577 C576 1.349 . S
C577 C593 1.349 . S
C578 C576 1.327 . S
C578 C597 1.429 . S
C578 H602 0.950 . S
C579 C596 1.574 . S
C579 C598 1.368 . S
C579 H603 0.949 . S
H580 C584 0.949 . S
C581 C582 1.349 . S
C581 C583 1.327 . S
C581 H604 0.950 . S
C582 C581 1.349 . S
C582 C594 1.349 . S
C583 C581 1.327 . S
C583 C599 1.429 . S
C583 H605 0.950 . S
C584 H580 0.949 . S
C584 C592 1.574 . S
C584 C600 1.368 . S
H585 C593 0.950 . S
H586 C591 0.950 . S
H587 C592 0.949 . S
H588 C594 0.950 . S
H589 C595 0.950 . S
H590 C596 0.949 . S
C591 H586 0.950 . S
C591 C593 1.327 . S
C591 C597 1.429 . S
C592 C584 1.574 . S
C592 H587 0.949 . S
C592 C598 1.368 . S
C593 C577 1.349 . S
C593 H585 0.950 . S
C593 C591 1.327 . S
C594 C582 1.349 . S
C594 H588 0.950 . S
C594 C595 1.327 . S
C595 H589 0.950 . S
C595 C594 1.327 . S
C595 C599 1.429 . S
C596 C579 1.574 . S
C596 H590 0.949 . S
C596 C600 1.368 . S
C597 C578 1.429 . S
C597 C591 1.429 . S
C597 C598 1.523 . S
C598 C579 1.368 . S
C598 C592 1.368 . S
C598 C597 1.523 . S
C599 C583 1.429 . S
C599 C595 1.429 . S
C599 C600 1.523 . S
C600 C584 1.368 . S
C600 C596 1.368 . S
C600 C599 1.523 . S
H601 C576 0.950 . S
H602 C578 0.950 . S
H603 C579 0.949 . S
H604 C581 0.950 . S
H605 C583 0.950 . S
C606 C607 1.349 . S
C606 C608 1.327 . S
C606 H631 0.950 . S
C607 C606 1.349 . S
C607 C623 1.349 . S
C608 C606 1.327 . S
C608 C627 1.429 . S
C608 H632 0.950 . S
C609 C626 1.574 . S
C609 C628 1.368 . S
C609 H633 0.949 . S
H610 C614 0.949 . S
C611 C612 1.349 . S
C611 C613 1.327 . S
C611 H634 0.950 . S
C612 C611 1.349 . S
C612 C624 1.349 . S
C613 C611 1.327 . S
C613 C629 1.429 . S
C613 H635 0.950 . S
C614 H610 0.949 . S
C614 C622 1.574 . S
C614 C630 1.368 . S
H615 C623 0.950 . S
H616 C621 0.950 . S
H617 C622 0.949 . S
H618 C624 0.950 . S
H619 C625 0.950 . S
H620 C626 0.949 . S
C621 H616 0.950 . S
C621 C623 1.327 . S
C621 C627 1.429 . S
C622 C614 1.574 . S
C622 H617 0.949 . S
C622 C628 1.368 . S
C623 C607 1.349 . S
C623 H615 0.950 . S
C623 C621 1.327 . S
C624 C612 1.349 . S
C624 H618 0.950 . S
C624 C625 1.327 . S
C625 H619 0.950 . S
C625 C624 1.327 . S
C625 C629 1.429 . S
C626 C609 1.574 . S
C626 H620 0.949 . S
C626 C630 1.368 . S
C627 C608 1.429 . S
C627 C621 1.429 . S
C627 C628 1.523 . S
C628 C609 1.368 . S
C628 C622 1.368 . S
C628 C627 1.523 . S
C629 C613 1.429 . S
C629 C625 1.429 . S
C629 C630 1.523 . S
C630 C614 1.368 . S
C630 C626 1.368 . S
C630 C629 1.523 . S
H631 C606 0.950 . S
H632 C608 0.950 . S
H633 C609 0.949 . S
H634 C611 0.950 . S
H635 C613 0.950 . S
C636 C637 1.349 . S
C636 C638 1.327 . S
C636 H661 0.950 . S
C637 C636 1.349 . S
C637 C653 1.349 . S
C638 C636 1.327 . S
C638 C657 1.429 . S
C638 H662 0.950 . S
C639 C656 1.574 . S
C639 C658 1.368 . S
C639 H663 0.949 . S
H640 C644 0.949 . S
C641 C642 1.349 . S
C641 C643 1.327 . S
C641 H664 0.950 . S
C642 C641 1.349 . S
C642 C654 1.349 . S
C643 C641 1.327 . S
C643 C659 1.429 . S
C643 H665 0.950 . S
C644 H640 0.949 . S
C644 C652 1.574 . S
C644 C660 1.368 . S
H645 C653 0.950 . S
H646 C651 0.950 . S
H647 C652 0.949 . S
H648 C654 0.950 . S
H649 C655 0.950 . S
H650 C656 0.949 . S
C651 H646 0.950 . S
C651 C653 1.327 . S
C651 C657 1.429 . S
C652 C644 1.574 . S
C652 H647 0.949 . S
C652 C658 1.368 . S
C653 C637 1.349 . S
C653 H645 0.950 . S
C653 C651 1.327 . S
C654 C642 1.349 . S
C654 H648 0.950 . S
C654 C655 1.327 . S
C655 H649 0.950 . S
C655 C654 1.327 . S
C655 C659 1.429 . S
C656 C639 1.574 . S
C656 H650 0.949 . S
C656 C660 1.368 . S
C657 C638 1.429 . S
C657 C651 1.429 . S
C657 C658 1.523 . S
C658 C639 1.368 . S
C658 C652 1.368 . S
C658 C657 1.523 . S
C659 C643 1.429 . S
C659 C655 1.429 . S
C659 C660 1.523 . S
C660 C644 1.368 . S
C660 C656 1.368 . S
C660 C659 1.523 . S
H661 C636 0.950 . S
H662 C638 0.950 . S
H663 C639 0.949 . S
H664 C641 0.950 . S
H665 C643 0.950 . S
C666 C667 1.349 . S
C666 C668 1.327 . S
C666 H691 0.950 . S
C667 C666 1.349 . S
C667 C683 1.349 . S
C668 C666 1.327 . S
C668 C687 1.429 . S
C668 H692 0.950 . S
C669 C686 1.574 . S
C669 C688 1.368 . S
C669 H693 0.949 . S
H670 C674 0.949 . S
C671 C672 1.349 . S
C671 C673 1.327 . S
C671 H694 0.950 . S
C672 C671 1.349 . S
C672 C684 1.349 . S
C673 C671 1.327 . S
C673 C689 1.429 . S
C673 H695 0.950 . S
C674 H670 0.949 . S
C674 C682 1.574 . S
C674 C690 1.368 . S
H675 C683 0.950 . S
H676 C681 0.950 . S
H677 C682 0.949 . S
H678 C684 0.950 . S
H679 C685 0.950 . S
H680 C686 0.949 . S
C681 H676 0.950 . S
C681 C683 1.327 . S
C681 C687 1.429 . S
C682 C674 1.574 . S
C682 H677 0.949 . S
C682 C688 1.368 . S
C683 C667 1.349 . S
C683 H675 0.950 . S
C683 C681 1.327 . S
C684 C672 1.349 . S
C684 H678 0.950 . S
C684 C685 1.327 . S
C685 H679 0.950 . S
C685 C684 1.327 . S
C685 C689 1.429 . S
C686 C669 1.574 . S
C686 H680 0.949 . S
C686 C690 1.368 . S
C687 C668 1.429 . S
C687 C681 1.429 . S
C687 C688 1.523 . S
C688 C669 1.368 . S
C688 C682 1.368 . S
C688 C687 1.523 . S
C689 C673 1.429 . S
C689 C685 1.429 . S
C689 C690 1.523 . S
C690 C674 1.368 . S
C690 C686 1.368 . S
C690 C689 1.523 . S
H691 C666 0.950 . S
H692 C668 0.950 . S
H693 C669 0.949 . S
H694 C671 0.950 . S
H695 C673 0.950 . S
C696 C697 1.349 . S
C696 C698 1.327 . S
C696 H721 0.950 . S
C697 C696 1.349 . S
C697 C713 1.349 . S
C698 C696 1.327 . S
C698 C717 1.429 . S
C698 H722 0.950 . S
C699 C716 1.574 . S
C699 C718 1.368 . S
C699 H723 0.949 . S
H700 C704 0.949 . S
C701 C702 1.349 . S
C701 C703 1.327 . S
C701 H724 0.950 . S
C702 C701 1.349 . S
C702 C714 1.349 . S
C703 C701 1.327 . S
C703 C719 1.429 . S
C703 H725 0.950 . S
C704 H700 0.949 . S
C704 C712 1.574 . S
C704 C720 1.368 . S
H705 C713 0.950 . S
H706 C711 0.950 . S
H707 C712 0.949 . S
H708 C714 0.950 . S
H709 C715 0.950 . S
H710 C716 0.949 . S
C711 H706 0.950 . S
C711 C713 1.327 . S
C711 C717 1.429 . S
C712 C704 1.574 . S
C712 H707 0.949 . S
C712 C718 1.368 . S
C713 C697 1.349 . S
C713 H705 0.950 . S
C713 C711 1.327 . S
C714 C702 1.349 . S
C714 H708 0.950 . S
C714 C715 1.327 . S
C715 H709 0.950 . S
C715 C714 1.327 . S
C715 C719 1.429 . S
C716 C699 1.574 . S
C716 H710 0.949 . S
C716 C720 1.368 . S
C717 C698 1.429 . S
C717 C711 1.429 . S
C717 C718 1.523 . S
C718 C699 1.368 . S
C718 C712 1.368 . S
C718 C717 1.523 . S
C719 C703 1.429 . S
C719 C715 1.429 . S
C719 C720 1.523 . S
C720 C704 1.368 . S
C720 C716 1.368 . S
C720 C719 1.523 . S
H721 C696 0.950 . S
H722 C698 0.950 . S
H723 C699 0.949 . S
H724 C701 0.950 . S
H725 C703 0.950 . S
C726 C727 1.349 . S
C726 C728 1.327 . S
C726 H751 0.950 . S
C727 C726 1.349 . S
C727 C743 1.349 . S
C728 C726 1.327 . S
C728 C747 1.429 . S
C728 H752 0.950 . S
C729 C746 1.574 . S
C729 C748 1.368 . S
C729 H753 0.949 . S
H730 C734 0.949 . S
C731 C732 1.349 . S
C731 C733 1.327 . S
C731 H754 0.950 . S
C732 C731 1.349 . S
C732 C744 1.349 . S
C733 C731 1.327 . S
C733 C749 1.429 . S
C733 H755 0.950 . S
C734 H730 0.949 . S
C734 C742 1.574 . S
C734 C750 1.368 . S
H735 C743 0.950 . S
H736 C741 0.950 . S
H737 C742 0.949 . S
H738 C744 0.950 . S
H739 C745 0.950 . S
H740 C746 0.949 . S
C741 H736 0.950 . S
C741 C743 1.327 . S
C741 C747 1.429 . S
C742 C734 1.574 . S
C742 H737 0.949 . S
C742 C748 1.368 . S
C743 C727 1.349 . S
C743 H735 0.950 . S
C743 C741 1.327 . S
C744 C732 1.349 . S
C744 H738 0.950 . S
C744 C745 1.327 . S
C745 H739 0.950 . S
C745 C744 1.327 . S
C745 C749 1.429 . S
C746 C729 1.574 . S
C746 H740 0.949 . S
C746 C750 1.368 . S
C747 C728 1.429 . S
C747 C741 1.429 . S
C747 C748 1.523 . S
C748 C729 1.368 . S
C748 C742 1.368 . S
C748 C747 1.523 . S
C749 C733 1.429 . S
C749 C745 1.429 . S
C749 C750 1.523 . S
C750 C734 1.368 . S
C750 C746 1.368 . S
C750 C749 1.523 . S
H751 C726 0.950 . S
H752 C728 0.950 . S
H753 C729 0.949 . S
H754 C731 0.950 . S
H755 C733 0.950 . S
C756 C757 1.349 . S
C756 C758 1.327 . S
C756 H781 0.950 . S
C757 C756 1.349 . S
C757 C773 1.349 . S
C758 C756 1.327 . S
C758 C777 1.429 . S
C758 H782 0.950 . S
C759 C776 1.574 . S
C759 C778 1.368 . S
C759 H783 0.949 . S
H760 C764 0.949 . S
C761 C762 1.349 . S
C761 C763 1.327 . S
C761 H784 0.950 . S
C762 C761 1.349 . S
C762 C774 1.349 . S
C763 C761 1.327 . S
C763 C779 1.429 . S
C763 H785 0.950 . S
C764 H760 0.949 . S
C764 C772 1.574 . S
C764 C780 1.368 . S
H765 C773 0.950 . S
H766 C771 0.950 . S
H767 C772 0.949 . S
H768 C774 0.950 . S
H769 C775 0.950 . S
H770 C776 0.949 . S
C771 H766 0.950 . S
C771 C773 1.327 . S
C771 C777 1.429 . S
C772 C764 1.574 . S
C772 H767 0.949 . S
C772 C778 1.368 . S
C773 C757 1.349 . S
C773 H765 0.950 . S
C773 C771 1.327 . S
C774 C762 1.349 . S
C774 H768 0.950 . S
C774 C775 1.327 . S
C775 H769 0.950 . S
C775 C774 1.327 . S
C775 C779 1.429 . S
C776 C759 1.574 . S
C776 H770 0.949 . S
C776 C780 1.368 . S
C777 C758 1.429 . S
C777 C771 1.429 . S
C777 C778 1.523 . S
C778 C759 1.368 . S
C778 C772 1.368 . S
C778 C777 1.523 . S
C779 C763 1.429 . S
C779 C775 1.429 . S
C779 C780 1.523 . S
C780 C764 1.368 . S
C780 C776 1.368 . S
C780 C779 1.523 . S
H781 C756 0.950 . S
H782 C758 0.950 . S
H783 C759 0.949 . S
H784 C761 0.950 . S
H785 C763 0.950 . S
C786 C787 1.349 . S
C786 C788 1.327 . S
C786 H811 0.950 . S
C787 C786 1.349 . S
C787 C803 1.349 . S
C788 C786 1.327 . S
C788 C807 1.429 . S
C788 H812 0.950 . S
C789 C806 1.574 . S
C789 C808 1.368 . S
C789 H813 0.949 . S
H790 C794 0.949 . S
C791 C792 1.349 . S
C791 C793 1.327 . S
C791 H814 0.950 . S
C792 C791 1.349 . S
C792 C804 1.349 . S
C793 C791 1.327 . S
C793 C809 1.429 . S
C793 H815 0.950 . S
C794 H790 0.949 . S
C794 C802 1.574 . S
C794 C810 1.368 . S
H795 C803 0.950 . S
H796 C801 0.950 . S
H797 C802 0.949 . S
H798 C804 0.950 . S
H799 C805 0.950 . S
H800 C806 0.949 . S
C801 H796 0.950 . S
C801 C803 1.327 . S
C801 C807 1.429 . S
C802 C794 1.574 . S
C802 H797 0.949 . S
C802 C808 1.368 . S
C803 C787 1.349 . S
C803 H795 0.950 . S
C803 C801 1.327 . S
C804 C792 1.349 . S
C804 H798 0.950 . S
C804 C805 1.327 . S
C805 H799 0.950 . S
C805 C804 1.327 . S
C805 C809 1.429 . S
C806 C789 1.574 . S
C806 H800 0.949 . S
C806 C810 1.368 . S
C807 C788 1.429 . S
C807 C801 1.429 . S
C807 C808 1.523 . S
C808 C789 1.368 . S
C808 C802 1.368 . S
C808 C807 1.523 . S
C809 C793 1.429 . S
C809 C805 1.429 . S
C809 C810 1.523 . S
C810 C794 1.368 . S
C810 C806 1.368 . S
C810 C809 1.523 . S
H811 C786 0.950 . S
H812 C788 0.950 . S
H813 C789 0.949 . S
H814 C791 0.950 . S
H815 C793 0.950 . S
C816 C817 1.349 . S
C816 C818 1.327 . S
C816 H841 0.950 . S
C817 C816 1.349 . S
C817 C833 1.349 . S
C818 C816 1.327 . S
C818 C837 1.429 . S
C818 H842 0.950 . S
C819 C836 1.574 . S
C819 C838 1.368 . S
C819 H843 0.949 . S
H820 C824 0.949 . S
C821 C822 1.349 . S
C821 C823 1.327 . S
C821 H844 0.950 . S
C822 C821 1.349 . S
C822 C834 1.349 . S
C823 C821 1.327 . S
C823 C839 1.429 . S
C823 H845 0.950 . S
C824 H820 0.949 . S
C824 C832 1.574 . S
C824 C840 1.368 . S
H825 C833 0.950 . S
H826 C831 0.950 . S
H827 C832 0.949 . S
H828 C834 0.950 . S
H829 C835 0.950 . S
H830 C836 0.949 . S
C831 H826 0.950 . S
C831 C833 1.327 . S
C831 C837 1.429 . S
C832 C824 1.574 . S
C832 H827 0.949 . S
C832 C838 1.368 . S
C833 C817 1.349 . S
C833 H825 0.950 . S
C833 C831 1.327 . S
C834 C822 1.349 . S
C834 H828 0.950 . S
C834 C835 1.327 . S
C835 H829 0.950 . S
C835 C834 1.327 . S
C835 C839 1.429 . S
C836 C819 1.574 . S
C836 H830 0.949 . S
C836 C840 1.368 . S
C837 C818 1.429 . S
C837 C831 1.429 . S
C837 C838 1.523 . S
C838 C819 1.368 . S
C838 C832 1.368 . S
C838 C837 1.523 . S
C839 C823 1.429 . S
C839 C835 1.429 . S
C839 C840 1.523 . S
C840 C824 1.368 . S
C840 C836 1.368 . S
C840 C839 1.523 . S
H841 C816 0.950 . S
H842 C818 0.950 . S
H843 C819 0.949 . S
H844 C821 0.950 . S
H845 C823 0.950 . S
C846 C847 1.349 . S
C846 C848 1.327 . S
C846 H871 0.950 . S
C847 C846 1.349 . S
C847 C863 1.349 . S
C848 C846 1.327 . S
C848 C867 1.429 . S
C848 H872 0.950 . S
C849 C866 1.574 . S
C849 C868 1.368 . S
C849 H873 0.949 . S
H850 C854 0.949 . S
C851 C852 1.349 . S
C851 C853 1.327 . S
C851 H874 0.950 . S
C852 C851 1.349 . S
C852 C864 1.349 . S
C853 C851 1.327 . S
C853 C869 1.429 . S
C853 H875 0.950 . S
C854 H850 0.949 . S
C854 C862 1.574 . S
C854 C870 1.368 . S
H855 C863 0.950 . S
H856 C861 0.950 . S
H857 C862 0.949 . S
H858 C864 0.950 . S
H859 C865 0.950 . S
H860 C866 0.949 . S
C861 H856 0.950 . S
C861 C863 1.327 . S
C861 C867 1.429 . S
C862 C854 1.574 . S
C862 H857 0.949 . S
C862 C868 1.368 . S
C863 C847 1.349 . S
C863 H855 0.950 . S
C863 C861 1.327 . S
C864 C852 1.349 . S
C864 H858 0.950 . S
C864 C865 1.327 . S
C865 H859 0.950 . S
C865 C864 1.327 . S
C865 C869 1.429 . S
C866 C849 1.574 . S
C866 H860 0.949 . S
C866 C870 1.368 . S
C867 C848 1.429 . S
C867 C861 1.429 . S
C867 C868 1.523 . S
C868 C849 1.368 . S
C868 C862 1.368 . S
C868 C867 1.523 . S
C869 C853 1.429 . S
C869 C865 1.429 . S
C869 C870 1.523 . S
C870 C854 1.368 . S
C870 C866 1.368 . S
C870 C869 1.523 . S
H871 C846 0.950 . S
H872 C848 0.950 . S
H873 C849 0.949 . S
H874 C851 0.950 . S
H875 C853 0.950 . S
C876 C877 1.346 1_556 S
C876 C878 1.327 . S
C876 H901 0.950 . S
C877 C876 1.346 1_554 S
C877 C893 1.352 . S
C878 C876 1.327 . S
C878 C897 1.425 1_556 S
C878 H902 0.950 . S
C879 C896 1.574 . S
C879 C898 1.372 . S
C879 H903 0.949 . S
H880 C884 0.949 . S
C881 C882 1.353 . S
C881 C883 1.327 . S
C881 H904 0.950 . S
C882 C881 1.353 . S
C882 C894 1.344 1_554 S
C883 C881 1.327 . S
C883 C899 1.432 . S
C883 H905 0.950 . S
C884 H880 0.949 . S
C884 C892 1.574 . S
C884 C900 1.364 1_556 S
H885 C893 0.950 . S
H886 C891 0.950 . S
H887 C892 0.949 . S
H888 C894 0.950 . S
H889 C895 0.950 . S
H890 C896 0.949 . S
C891 H886 0.950 . S
C891 C893 1.327 . S
C891 C897 1.432 . S
C892 C884 1.574 . S
C892 H887 0.949 . S
C892 C898 1.365 1_556 S
C893 C877 1.352 . S
C893 H885 0.950 . S
C893 C891 1.327 . S
C894 C882 1.344 1_556 S
C894 H888 0.950 . S
C894 C895 1.327 . S
C895 H889 0.950 . S
C895 C894 1.327 . S
C895 C899 1.425 1_556 S
C896 C879 1.574 . S
C896 H890 0.949 . S
C896 C900 1.372 . S
C897 C878 1.425 1_554 S
C897 C891 1.432 . S
C897 C898 1.523 . S
C898 C879 1.372 . S
C898 C892 1.365 1_554 S
C898 C897 1.523 . S
C899 C883 1.432 . S
C899 C895 1.425 1_554 S
C899 C900 1.523 . S
C900 C884 1.364 1_554 S
C900 C896 1.372 . S
C900 C899 1.523 . S
H901 C876 0.950 . S
H902 C878 0.950 . S
H903 C879 0.949 . S
H904 C881 0.950 . S
H905 C883 0.950 . S
C906 C907 1.346 1_556 S
C906 C908 1.327 . S
C906 H931 0.950 . S
C907 C906 1.346 1_554 S
C907 C923 1.352 . S
C908 C906 1.327 . S
C908 C927 1.425 1_556 S
C908 H932 0.950 . S
C909 C926 1.574 . S
C909 C928 1.372 . S
C909 H933 0.949 . S
H910 C914 0.949 . S
C911 C912 1.353 . S
C911 C913 1.327 . S
C911 H934 0.950 . S
C912 C911 1.353 . S
C912 C924 1.344 1_554 S
C913 C911 1.327 . S
C913 C929 1.432 . S
C913 H935 0.950 . S
C914 H910 0.949 . S
C914 C922 1.574 . S
C914 C930 1.364 1_556 S
H915 C923 0.950 . S
H916 C921 0.950 . S
H917 C922 0.949 . S
H918 C924 0.950 . S
H919 C925 0.950 . S
H920 C926 0.949 . S
C921 H916 0.950 . S
C921 C923 1.327 . S
C921 C927 1.432 . S
C922 C914 1.574 . S
C922 H917 0.949 . S
C922 C928 1.365 1_556 S
C923 C907 1.352 . S
C923 H915 0.950 . S
C923 C921 1.327 . S
C924 C912 1.344 1_556 S
C924 H918 0.950 . S
C924 C925 1.327 . S
C925 H919 0.950 . S
C925 C924 1.327 . S
C925 C929 1.425 1_556 S
C926 C909 1.574 . S
C926 H920 0.949 . S
C926 C930 1.372 . S
C927 C908 1.425 1_554 S
C927 C921 1.432 . S
C927 C928 1.523 . S
C928 C909 1.372 . S
C928 C922 1.365 1_554 S
C928 C927 1.523 . S
C929 C913 1.432 . S
C929 C925 1.425 1_554 S
C929 C930 1.523 . S
C930 C914 1.364 1_554 S
C930 C926 1.372 . S
C930 C929 1.523 . S
H931 C906 0.950 . S
H932 C908 0.950 . S
H933 C909 0.949 . S
H934 C911 0.950 . S
H935 C913 0.950 . S
C936 C937 1.352 . S
C936 C938 1.327 . S
C936 H961 0.950 . S
C937 C936 1.352 . S
C937 C953 1.346 1_554 S
C938 C936 1.327 . S
C938 C957 1.432 . S
C938 H962 0.950 . S
C939 C956 1.574 . S
C939 C958 1.365 1_556 S
C939 H963 0.949 . S
H940 C944 0.949 . S
C941 C942 1.344 1_556 S
C941 C943 1.327 . S
C941 H964 0.950 . S
C942 C941 1.344 1_554 S
C942 C954 1.353 . S
C943 C941 1.327 . S
C943 C959 1.425 1_556 S
C943 H965 0.950 . S
C944 H940 0.949 . S
C944 C952 1.574 . S
C944 C960 1.372 . S
H945 C953 0.950 . S
H946 C951 0.950 . S
H947 C952 0.949 . S
H948 C954 0.950 . S
H949 C955 0.950 . S
H950 C956 0.949 . S
C951 H946 0.950 . S
C951 C953 1.327 . S
C951 C957 1.426 1_556 S
C952 C944 1.574 . S
C952 H947 0.949 . S
C952 C958 1.372 . S
C953 C937 1.346 1_556 S
C953 H945 0.950 . S
C953 C951 1.327 . S
C954 C942 1.353 . S
C954 H948 0.950 . S
C954 C955 1.327 . S
C955 H949 0.950 . S
C955 C954 1.327 . S
C955 C959 1.433 . S
C956 C939 1.574 . S
C956 H950 0.949 . S
C956 C960 1.364 1_556 S
C957 C938 1.432 . S
C957 C951 1.426 1_554 S
C957 C958 1.523 . S
C958 C939 1.365 1_554 S
C958 C952 1.372 . S
C958 C957 1.523 . S
C959 C943 1.425 1_554 S
C959 C955 1.433 . S
C959 C960 1.523 . S
C960 C944 1.372 . S
C960 C956 1.364 1_554 S
C960 C959 1.523 . S
H961 C936 0.950 . S
H962 C938 0.950 . S
H963 C939 0.949 . S
H964 C941 0.950 . S
H965 C943 0.950 . S
C966 C967 1.346 1_556 S
C966 C968 1.327 . S
C966 H991 0.950 . S
C967 C966 1.346 1_554 S
C967 C983 1.351 . S
C968 C966 1.327 . S
C968 C987 1.426 1_556 S
C968 H992 0.950 . S
C969 C986 1.574 . S
C969 C988 1.372 . S
C969 H993 0.949 . S
H970 C974 0.949 . S
C971 C972 1.353 . S
C971 C973 1.327 . S
C971 H994 0.950 . S
C972 C971 1.353 . S
C972 C984 1.344 1_554 S
C973 C971 1.327 . S
C973 C989 1.433 . S
C973 H995 0.950 . S
C974 H970 0.949 . S
C974 C982 1.574 . S
C974 C990 1.364 1_556 S
H975 C983 0.950 . S
H976 C981 0.950 . S
H977 C982 0.949 . S
H978 C984 0.950 . S
H979 C985 0.950 . S
H980 C986 0.949 . S
C981 H976 0.950 . S
C981 C983 1.327 . S
C981 C987 1.432 . S
C982 C974 1.574 . S
C982 H977 0.949 . S
C982 C988 1.365 1_556 S
C983 C967 1.351 . S
C983 H975 0.950 . S
C983 C981 1.327 . S
C984 C972 1.344 1_556 S
C984 H978 0.950 . S
C984 C985 1.327 . S
C985 H979 0.950 . S
C985 C984 1.327 . S
C985 C989 1.425 1_556 S
C986 C969 1.574 . S
C986 H980 0.949 . S
C986 C990 1.372 . S
C987 C968 1.426 1_554 S
C987 C981 1.432 . S
C987 C988 1.523 . S
C988 C969 1.372 . S
C988 C982 1.365 1_554 S
C988 C987 1.523 . S
C989 C973 1.433 . S
C989 C985 1.425 1_554 S
C989 C990 1.523 . S
C990 C974 1.364 1_554 S
C990 C986 1.372 . S
C990 C989 1.523 . S
H991 C966 0.950 . S
H992 C968 0.950 . S
H993 C969 0.949 . S
H994 C971 0.950 . S
H995 C973 0.950 . S
C996 C997 1.354 . S
C996 C998 1.327 . S
C996 H1021 0.950 . S
C997 C996 1.354 . S
C997 C1013 1.344 1_455 S
C998 C996 1.327 . S
C998 C1017 1.433 . S
C998 H1022 0.950 . S
C999 C1016 1.574 . S
C999 C1018 1.364 1_655 S
C999 H1023 0.949 . S
H1000 C1004 0.949 . S
C1001 C1002 1.345 1_655 S
C1001 C1003 1.327 . S
C1001 H1024 0.950 . S
C1002 C1001 1.345 1_455 S
C1002 C1014 1.353 . S
C1003 C1001 1.327 . S
C1003 C1019 1.424 1_655 S
C1003 H1025 0.950 . S
C1004 H1000 0.949 . S
C1004 C1012 1.574 . S
C1004 C1020 1.373 . S
H1005 C1013 0.950 . S
H1006 C1011 0.950 . S
H1007 C1012 0.949 . S
H1008 C1014 0.950 . S
H1009 C1015 0.950 . S
H1010 C1016 0.949 . S
C1011 H1006 0.950 . S
C1011 C1013 1.327 . S
C1011 C1017 1.424 1_655 S
C1012 C1004 1.574 . S
C1012 H1007 0.949 . S
C1012 C1018 1.373 . S
C1013 C997 1.344 1_655 S
C1013 H1005 0.950 . S
C1013 C1011 1.327 . S
C1014 C1002 1.353 . S
C1014 H1008 0.950 . S
C1014 C1015 1.327 . S
C1015 H1009 0.950 . S
C1015 C1014 1.327 . S
C1015 C1019 1.433 . S
C1016 C999 1.574 . S
C1016 H1010 0.949 . S
C1016 C1020 1.364 1_655 S
C1017 C998 1.433 . S
C1017 C1011 1.424 1_455 S
C1017 C1018 1.523 . S
C1018 C999 1.364 1_455 S
C1018 C1012 1.373 . S
C1018 C1017 1.523 . S
C1019 C1003 1.424 1_455 S
C1019 C1015 1.433 . S
C1019 C1020 1.523 . S
C1020 C1004 1.373 . S
C1020 C1016 1.364 1_455 S
C1020 C1019 1.523 . S
H1021 C996 0.950 . S
H1022 C998 0.950 . S
H1023 C999 0.949 . S
H1024 C1001 0.950 . S
H1025 C1003 0.950 . S
C1026 C1027 1.340 1_565 S
C1026 C1028 1.327 . S
C1026 H1051 0.950 . S
C1027 C1026 1.340 1_545 S
C1027 C1043 1.358 . S
C1028 C1026 1.327 . S
C1028 C1047 1.419 1_565 S
C1028 H1052 0.950 . S
C1029 C1046 1.574 . S
C1029 C1048 1.379 . S
C1029 H1053 0.949 . S
H1030 C1034 0.949 . S
C1031 C1032 1.360 . S
C1031 C1033 1.327 . S
C1031 H1054 0.950 . S
C1032 C1031 1.360 . S
C1032 C1044 1.338 1_545 S
C1033 C1031 1.327 . S
C1033 C1049 1.439 . S
C1033 H1055 0.950 . S
C1034 H1030 0.949 . S
C1034 C1042 1.574 . S
C1034 C1050 1.358 1_565 S
H1035 C1043 0.950 . S
H1036 C1041 0.950 . S
H1037 C1042 0.949 . S
H1038 C1044 0.950 . S
H1039 C1045 0.950 . S
H1040 C1046 0.949 . S
C1041 H1036 0.950 . S
C1041 C1043 1.327 . S
C1041 C1047 1.438 . S
C1042 C1034 1.574 . S
C1042 H1037 0.949 . S
C1042 C1048 1.358 1_565 S
C1043 C1027 1.358 . S
C1043 H1035 0.950 . S
C1043 C1041 1.327 . S
C1044 C1032 1.338 1_565 S
C1044 H1038 0.950 . S
C1044 C1045 1.327 . S
C1045 H1039 0.950 . S
C1045 C1044 1.327 . S
C1045 C1049 1.419 1_565 S
C1046 C1029 1.574 . S
C1046 H1040 0.949 . S
C1046 C1050 1.379 . S
C1047 C1028 1.419 1_545 S
C1047 C1041 1.438 . S
C1047 C1048 1.523 . S
C1048 C1029 1.379 . S
C1048 C1042 1.358 1_545 S
C1048 C1047 1.523 . S
C1049 C1033 1.439 . S
C1049 C1045 1.419 1_545 S
C1049 C1050 1.523 . S
C1050 C1034 1.358 1_545 S
C1050 C1046 1.379 . S
C1050 C1049 1.523 . S
H1051 C1026 0.950 . S
H1052 C1028 0.950 . S
H1053 C1029 0.949 . S
H1054 C1031 0.950 . S
H1055 C1033 0.950 . S
C1056 C1057 1.345 1_655 S
C1056 C1058 1.327 . S
C1056 H1081 0.950 . S
C1057 C1056 1.345 1_455 S
C1057 C1073 1.353 . S
C1058 C1056 1.327 . S
C1058 C1077 1.425 1_655 S
C1058 H1082 0.950 . S
C1059 C1076 1.574 . S
C1059 C1078 1.372 . S
C1059 H1083 0.949 . S
H1060 C1064 0.949 . S
C1061 C1062 1.353 . S
C1061 C1063 1.327 . S
C1061 H1084 0.950 . S
C1062 C1061 1.353 . S
C1062 C1074 1.345 1_455 S
C1063 C1061 1.327 . S
C1063 C1079 1.432 . S
C1063 H1085 0.950 . S
C1064 H1060 0.949 . S
C1064 C1072 1.574 . S
C1064 C1080 1.364 1_655 S
H1065 C1073 0.950 . S
H1066 C1071 0.950 . S
H1067 C1072 0.949 . S
H1068 C1074 0.950 . S
H1069 C1075 0.950 . S
H1070 C1076 0.949 . S
C1071 H1066 0.950 . S
C1071 C1073 1.327 . S
C1071 C1077 1.432 . S
C1072 C1064 1.574 . S
C1072 H1067 0.949 . S
C1072 C1078 1.364 1_655 S
C1073 C1057 1.353 . S
C1073 H1065 0.950 . S
C1073 C1071 1.327 . S
C1074 C1062 1.345 1_655 S
C1074 H1068 0.950 . S
C1074 C1075 1.327 . S
C1075 H1069 0.950 . S
C1075 C1074 1.327 . S
C1075 C1079 1.425 1_655 S
C1076 C1059 1.574 . S
C1076 H1070 0.949 . S
C1076 C1080 1.372 . S
C1077 C1058 1.425 1_455 S
C1077 C1071 1.432 . S
C1077 C1078 1.523 . S
C1078 C1059 1.372 . S
C1078 C1072 1.364 1_455 S
C1078 C1077 1.523 . S
C1079 C1063 1.432 . S
C1079 C1075 1.425 1_455 S
C1079 C1080 1.523 . S
C1080 C1064 1.364 1_455 S
C1080 C1076 1.372 . S
C1080 C1079 1.523 . S
H1081 C1056 0.950 . S
H1082 C1058 0.950 . S
H1083 C1059 0.949 . S
H1084 C1061 0.950 . S
H1085 C1063 0.950 . S
C1086 C1087 1.357 . S
C1086 C1088 1.327 . S
C1086 H1111 0.950 . S
C1087 C1086 1.357 . S
C1087 C1103 1.341 1_545 S
C1088 C1086 1.327 . S
C1088 C1107 1.437 . S
C1088 H1112 0.950 . S
C1089 C1106 1.574 . S
C1089 C1108 1.359 1_565 S
C1089 H1113 0.949 . S
H1090 C1094 0.949 . S
C1091 C1092 1.338 1_565 S
C1091 C1093 1.327 . S
C1091 H1114 0.950 . S
C1092 C1091 1.338 1_545 S
C1092 C1104 1.359 . S
C1093 C1091 1.327 . S
C1093 C1109 1.419 1_565 S
C1093 H1115 0.950 . S
C1094 H1090 0.949 . S
C1094 C1102 1.574 . S
C1094 C1110 1.379 . S
H1095 C1103 0.950 . S
H1096 C1101 0.950 . S
H1097 C1102 0.949 . S
H1098 C1104 0.950 . S
H1099 C1105 0.950 . S
H1100 C1106 0.949 . S
C1101 H1096 0.950 . S
C1101 C1103 1.327 . S
C1101 C1107 1.420 1_565 S
C1102 C1094 1.574 . S
C1102 H1097 0.949 . S
C1102 C1108 1.378 . S
C1103 C1087 1.341 1_565 S
C1103 H1095 0.950 . S
C1103 C1101 1.327 . S
C1104 C1092 1.359 . S
C1104 H1098 0.950 . S
C1104 C1105 1.327 . S
C1105 H1099 0.950 . S
C1105 C1104 1.327 . S
C1105 C1109 1.438 . S
C1106 C1089 1.574 . S
C1106 H1100 0.949 . S
C1106 C1110 1.358 1_565 S
C1107 C1088 1.437 . S
C1107 C1101 1.420 1_545 S
C1107 C1108 1.523 . S
C1108 C1089 1.359 1_545 S
C1108 C1102 1.378 . S
C1108 C1107 1.523 . S
C1109 C1093 1.419 1_545 S
C1109 C1105 1.438 . S
C1109 C1110 1.523 . S
C1110 C1094 1.379 . S
C1110 C1106 1.358 1_545 S
C1110 C1109 1.523 . S
H1111 C1086 0.950 . S
H1112 C1088 0.950 . S
H1113 C1089 0.949 . S
H1114 C1091 0.950 . S
H1115 C1093 0.950 . S
C1116 C1117 1.351 . S
C1116 C1118 1.327 . S
C1116 H1141 0.950 . S
C1117 C1116 1.351 . S
C1117 C1133 1.347 1_455 S
C1118 C1116 1.327 . S
C1118 C1137 1.430 . S
C1118 H1142 0.950 . S
C1119 C1136 1.574 . S
C1119 C1138 1.366 1_655 S
C1119 H1143 0.949 . S
H1120 C1124 0.949 . S
C1121 C1122 1.347 1_655 S
C1121 C1123 1.327 . S
C1121 H1144 0.950 . S
C1122 C1121 1.347 1_455 S
C1122 C1134 1.351 . S
C1123 C1121 1.327 . S
C1123 C1139 1.427 1_655 S
C1123 H1145 0.950 . S
C1124 H1120 0.949 . S
C1124 C1132 1.574 . S
C1124 C1140 1.370 . S
H1125 C1133 0.950 . S
H1126 C1131 0.950 . S
H1127 C1132 0.949 . S
H1128 C1134 0.950 . S
H1129 C1135 0.950 . S
H1130 C1136 0.949 . S
C1131 H1126 0.950 . S
C1131 C1133 1.327 . S
C1131 C1137 1.427 1_655 S
C1132 C1124 1.574 . S
C1132 H1127 0.949 . S
C1132 C1138 1.370 . S
C1133 C1117 1.347 1_655 S
C1133 H1125 0.950 . S
C1133 C1131 1.327 . S
C1134 C1122 1.351 . S
C1134 H1128 0.950 . S
C1134 C1135 1.327 . S
C1135 H1129 0.950 . S
C1135 C1134 1.327 . S
C1135 C1139 1.430 . S
C1136 C1119 1.574 . S
C1136 H1130 0.949 . S
C1136 C1140 1.366 1_655 S
C1137 C1118 1.430 . S
C1137 C1131 1.427 1_455 S
C1137 C1138 1.523 . S
C1138 C1119 1.366 1_455 S
C1138 C1132 1.370 . S
C1138 C1137 1.523 . S
C1139 C1123 1.427 1_455 S
C1139 C1135 1.430 . S
C1139 C1140 1.523 . S
C1140 C1124 1.370 . S
C1140 C1136 1.366 1_455 S
C1140 C1139 1.523 . S
H1141 C1116 0.950 . S
H1142 C1118 0.950 . S
H1143 C1119 0.949 . S
H1144 C1121 0.950 . S
H1145 C1123 0.950 . S
C1146 C1147 1.357 . S
C1146 C1148 1.327 . S
C1146 H1171 0.950 . S
C1147 C1146 1.357 . S
C1147 C1163 1.341 1_545 S
C1148 C1146 1.327 . S
C1148 C1167 1.437 . S
C1148 H1172 0.950 . S
C1149 C1166 1.574 . S
C1149 C1168 1.359 1_565 S
C1149 H1173 0.949 . S
H1150 C1154 0.949 . S
C1151 C1152 1.339 1_565 S
C1151 C1153 1.327 . S
C1151 H1174 0.950 . S
C1152 C1151 1.339 1_545 S
C1152 C1164 1.359 . S
C1153 C1151 1.327 . S
C1153 C1169 1.419 1_565 S
C1153 H1175 0.950 . S
C1154 H1150 0.949 . S
C1154 C1162 1.574 . S
C1154 C1170 1.379 . S
H1155 C1163 0.950 . S
H1156 C1161 0.950 . S
H1157 C1162 0.949 . S
H1158 C1164 0.950 . S
H1159 C1165 0.950 . S
H1160 C1166 0.949 . S
C1161 H1156 0.950 . S
C1161 C1163 1.327 . S
C1161 C1167 1.420 1_565 S
C1162 C1154 1.574 . S
C1162 H1157 0.949 . S
C1162 C1168 1.378 . S
C1163 C1147 1.341 1_565 S
C1163 H1155 0.950 . S
C1163 C1161 1.327 . S
C1164 C1152 1.359 . S
C1164 H1158 0.950 . S
C1164 C1165 1.327 . S
C1165 H1159 0.950 . S
C1165 C1164 1.327 . S
C1165 C1169 1.438 . S
C1166 C1149 1.574 . S
C1166 H1160 0.949 . S
C1166 C1170 1.358 1_565 S
C1167 C1148 1.437 . S
C1167 C1161 1.420 1_545 S
C1167 C1168 1.523 . S
C1168 C1149 1.359 1_545 S
C1168 C1162 1.378 . S
C1168 C1167 1.523 . S
C1169 C1153 1.419 1_545 S
C1169 C1165 1.438 . S
C1169 C1170 1.523 . S
C1170 C1154 1.379 . S
C1170 C1166 1.358 1_545 S
C1170 C1169 1.523 . S
H1171 C1146 0.950 . S
H1172 C1148 0.950 . S
H1173 C1149 0.949 . S
H1174 C1151 0.950 . S
H1175 C1153 0.950 . S
C1176 C1177 1.352 . S
C1176 C1178 1.327 . S
C1176 H1201 0.950 . S
C1177 C1176 1.352 . S
C1177 C1193 1.346 1_455 S
C1178 C1176 1.327 . S
C1178 C1197 1.431 . S
C1178 H1202 0.950 . S
C1179 C1196 1.574 . S
C1179 C1198 1.366 1_655 S
C1179 H1203 0.949 . S
H1180 C1184 0.949 . S
C1181 C1182 1.346 1_655 S
C1181 C1183 1.327 . S
C1181 H1204 0.950 . S
C1182 C1181 1.346 1_455 S
C1182 C1194 1.351 . S
C1183 C1181 1.327 . S
C1183 C1199 1.426 1_655 S
C1183 H1205 0.950 . S
C1184 H1180 0.949 . S
C1184 C1192 1.574 . S
C1184 C1200 1.371 . S
H1185 C1193 0.950 . S
H1186 C1191 0.950 . S
H1187 C1192 0.949 . S
H1188 C1194 0.950 . S
H1189 C1195 0.950 . S
H1190 C1196 0.949 . S
C1191 H1186 0.950 . S
C1191 C1193 1.327 . S
C1191 C1197 1.426 1_655 S
C1192 C1184 1.574 . S
C1192 H1187 0.949 . S
C1192 C1198 1.371 . S
C1193 C1177 1.346 1_655 S
C1193 H1185 0.950 . S
C1193 C1191 1.327 . S
C1194 C1182 1.351 . S
C1194 H1188 0.950 . S
C1194 C1195 1.327 . S
C1195 H1189 0.950 . S
C1195 C1194 1.327 . S
C1195 C1199 1.431 . S
C1196 C1179 1.574 . S
C1196 H1190 0.949 . S
C1196 C1200 1.366 1_655 S
C1197 C1178 1.431 . S
C1197 C1191 1.426 1_455 S
C1197 C1198 1.523 . S
C1198 C1179 1.366 1_455 S
C1198 C1192 1.371 . S
C1198 C1197 1.523 . S
C1199 C1183 1.426 1_455 S
C1199 C1195 1.431 . S
C1199 C1200 1.523 . S
C1200 C1184 1.371 . S
C1200 C1196 1.366 1_455 S
C1200 C1199 1.523 . S
H1201 C1176 0.950 . S
H1202 C1178 0.950 . S
H1203 C1179 0.949 . S
H1204 C1181 0.950 . S
H1205 C1183 0.950 . S
C1206 C1207 1.340 1_565 S
C1206 C1208 1.327 . S
C1206 H1231 0.950 . S
C1207 C1206 1.340 1_545 S
C1207 C1223 1.358 . S
C1208 C1206 1.327 . S
C1208 C1227 1.420 1_565 S
C1208 H1232 0.950 . S
C1209 C1226 1.574 . S
C1209 C1228 1.379 . S
C1209 H1233 0.949 . S
H1210 C1214 0.949 . S
C1211 C1212 1.359 . S
C1211 C1213 1.327 . S
C1211 H1234 0.950 . S
C1212 C1211 1.359 . S
C1212 C1224 1.338 1_545 S
C1213 C1211 1.327 . S
C1213 C1229 1.438 . S
C1213 H1235 0.950 . S
C1214 H1210 0.949 . S
C1214 C1222 1.574 . S
C1214 C1230 1.358 1_565 S
H1215 C1223 0.950 . S
H1216 C1221 0.950 . S
H1217 C1222 0.949 . S
H1218 C1224 0.950 . S
H1219 C1225 0.950 . S
H1220 C1226 0.949 . S
C1221 H1216 0.950 . S
C1221 C1223 1.327 . S
C1221 C1227 1.438 . S
C1222 C1214 1.574 . S
C1222 H1217 0.949 . S
C1222 C1228 1.358 1_565 S
C1223 C1207 1.358 . S
C1223 H1215 0.950 . S
C1223 C1221 1.327 . S
C1224 C1212 1.338 1_565 S
C1224 H1218 0.950 . S
C1224 C1225 1.327 . S
C1225 H1219 0.950 . S
C1225 C1224 1.327 . S
C1225 C1229 1.419 1_565 S
C1226 C1209 1.574 . S
C1226 H1220 0.949 . S
C1226 C1230 1.379 . S
C1227 C1208 1.420 1_545 S
C1227 C1221 1.438 . S
C1227 C1228 1.523 . S
C1228 C1209 1.379 . S
C1228 C1222 1.358 1_545 S
C1228 C1227 1.523 . S
C1229 C1213 1.438 . S
C1229 C1225 1.419 1_545 S
C1229 C1230 1.523 . S
C1230 C1214 1.358 1_545 S
C1230 C1226 1.379 . S
C1230 C1229 1.523 . S
H1231 C1206 0.950 . S
H1232 C1208 0.950 . S
H1233 C1209 0.949 . S
H1234 C1211 0.950 . S
H1235 C1213 0.950 . S
C1236 C1237 1.356 . S
C1236 C1238 1.327 . S
C1236 H1261 0.950 . S
C1237 C1236 1.356 . S
C1237 C1253 1.342 1_455 S
C1238 C1236 1.327 . S
C1238 C1257 1.436 . S
C1238 H1262 0.950 . S
C1239 C1256 1.574 . S
C1239 C1258 1.359 1_655 S
C1239 H1263 0.949 . S
H1240 C1244 0.949 . S
C1241 C1242 1.338 1_655 S
C1241 C1243 1.327 . S
C1241 H1264 0.950 . S
C1242 C1241 1.338 1_455 S
C1242 C1254 1.360 . S
C1243 C1241 1.327 . S
C1243 C1259 1.419 1_655 S
C1243 H1265 0.950 . S
C1244 H1240 0.949 . S
C1244 C1252 1.574 . S
C1244 C1260 1.378 . S
H1245 C1253 0.950 . S
H1246 C1251 0.950 . S
H1247 C1252 0.949 . S
H1248 C1254 0.950 . S
H1249 C1255 0.950 . S
H1250 C1256 0.949 . S
C1251 H1246 0.950 . S
C1251 C1253 1.327 . S
C1251 C1257 1.421 1_655 S
C1252 C1244 1.574 . S
C1252 H1247 0.949 . S
C1252 C1258 1.377 . S
C1253 C1237 1.342 1_655 S
C1253 H1245 0.950 . S
C1253 C1251 1.327 . S
C1254 C1242 1.360 . S
C1254 H1248 0.950 . S
C1254 C1255 1.327 . S
C1255 H1249 0.950 . S
C1255 C1254 1.327 . S
C1255 C1259 1.438 . S
C1256 C1239 1.574 . S
C1256 H1250 0.949 . S
C1256 C1260 1.358 1_655 S
C1257 C1238 1.436 . S
C1257 C1251 1.421 1_455 S
C1257 C1258 1.523 . S
C1258 C1239 1.359 1_455 S
C1258 C1252 1.377 . S
C1258 C1257 1.523 . S
C1259 C1243 1.419 1_455 S
C1259 C1255 1.438 . S
C1259 C1260 1.523 . S
C1260 C1244 1.378 . S
C1260 C1256 1.358 1_455 S
C1260 C1259 1.523 . S
H1261 C1236 0.950 . S
H1262 C1238 0.950 . S
H1263 C1239 0.949 . S
H1264 C1241 0.950 . S
H1265 C1243 0.950 . S
C1266 C1267 1.341 1_565 S
C1266 C1268 1.327 . S
C1266 H1291 0.950 . S
C1267 C1266 1.341 1_545 S
C1267 C1283 1.357 . S
C1268 C1266 1.327 . S
C1268 C1287 1.421 1_565 S
C1268 H1292 0.950 . S
C1269 C1286 1.574 . S
C1269 C1288 1.377 . S
C1269 H1293 0.949 . S
H1270 C1274 0.949 . S
C1271 C1272 1.358 . S
C1271 C1273 1.327 . S
C1271 H1294 0.950 . S
C1272 C1271 1.358 . S
C1272 C1284 1.340 1_545 S
C1273 C1271 1.327 . S
C1273 C1289 1.437 . S
C1273 H1295 0.950 . S
C1274 H1270 0.949 . S
C1274 C1282 1.574 . S
C1274 C1290 1.359 1_565 S
H1275 C1283 0.950 . S
H1276 C1281 0.950 . S
H1277 C1282 0.949 . S
H1278 C1284 0.950 . S
H1279 C1285 0.950 . S
H1280 C1286 0.949 . S
C1281 H1276 0.950 . S
C1281 C1283 1.327 . S
C1281 C1287 1.436 . S
C1282 C1274 1.574 . S
C1282 H1277 0.949 . S
C1282 C1288 1.360 1_565 S
C1283 C1267 1.357 . S
C1283 H1275 0.950 . S
C1283 C1281 1.327 . S
C1284 C1272 1.340 1_565 S
C1284 H1278 0.950 . S
C1284 C1285 1.327 . S
C1285 H1279 0.950 . S
C1285 C1284 1.327 . S
C1285 C1289 1.420 1_565 S
C1286 C1269 1.574 . S
C1286 H1280 0.949 . S
C1286 C1290 1.377 . S
C1287 C1268 1.421 1_545 S
C1287 C1281 1.436 . S
C1287 C1288 1.523 . S
C1288 C1269 1.377 . S
C1288 C1282 1.360 1_545 S
C1288 C1287 1.523 . S
C1289 C1273 1.437 . S
C1289 C1285 1.420 1_545 S
C1289 C1290 1.523 . S
C1290 C1274 1.359 1_545 S
C1290 C1286 1.377 . S
C1290 C1289 1.523 . S
H1291 C1266 0.950 . S
H1292 C1268 0.950 . S
H1293 C1269 0.949 . S
H1294 C1271 0.950 . S
H1295 C1273 0.950 . S
C1296 C1297 1.357 . S
C1296 C1298 1.327 . S
C1296 H1321 0.950 . S
C1297 C1296 1.357 . S
C1297 C1313 1.341 1_455 S
C1298 C1296 1.327 . S
C1298 C1317 1.437 . S
C1298 H1322 0.950 . S
C1299 C1316 1.574 . S
C1299 C1318 1.358 1_655 S
C1299 H1323 0.949 . S
H1300 C1304 0.949 . S
C1301 C1302 1.336 1_655 S
C1301 C1303 1.327 . S
C1301 H1324 0.950 . S
C1302 C1301 1.336 1_455 S
C1302 C1314 1.362 . S
C1303 C1301 1.327 . S
C1303 C1319 1.417 1_655 S
C1303 H1325 0.950 . S
C1304 H1300 0.949 . S
C1304 C1312 1.574 . S
C1304 C1320 1.380 . S
H1305 C1313 0.950 . S
H1306 C1311 0.950 . S
H1307 C1312 0.949 . S
H1308 C1314 0.950 . S
H1309 C1315 0.950 . S
H1310 C1316 0.949 . S
C1311 H1306 0.950 . S
C1311 C1313 1.327 . S
C1311 C1317 1.420 1_655 S
C1312 C1304 1.574 . S
C1312 H1307 0.949 . S
C1312 C1318 1.379 . S
C1313 C1297 1.341 1_655 S
C1313 H1305 0.950 . S
C1313 C1311 1.327 . S
C1314 C1302 1.362 . S
C1314 H1308 0.950 . S
C1314 C1315 1.327 . S
C1315 H1309 0.950 . S
C1315 C1314 1.327 . S
C1315 C1319 1.440 . S
C1316 C1299 1.574 . S
C1316 H1310 0.949 . S
C1316 C1320 1.357 1_655 S
C1317 C1298 1.437 . S
C1317 C1311 1.420 1_455 S
C1317 C1318 1.523 . S
C1318 C1299 1.358 1_455 S
C1318 C1312 1.379 . S
C1318 C1317 1.523 . S
C1319 C1303 1.417 1_455 S
C1319 C1315 1.440 . S
C1319 C1320 1.523 . S
C1320 C1304 1.380 . S
C1320 C1316 1.357 1_455 S
C1320 C1319 1.523 . S
H1321 C1296 0.950 . S
H1322 C1298 0.950 . S
H1323 C1299 0.949 . S
H1324 C1301 0.950 . S
H1325 C1303 0.950 . S
C1326 C1327 1.357 . S
C1326 C1328 1.327 . S
C1326 H1351 0.950 . S
C1327 C1326 1.357 . S
C1327 C1343 1.340 1_545 S
C1328 C1326 1.327 . S
C1328 C1347 1.437 . S
C1328 H1352 0.950 . S
C1329 C1346 1.574 . S
C1329 C1348 1.359 1_565 S
C1329 H1353 0.949 . S
H1330 C1334 0.949 . S
C1331 C1332 1.340 1_565 S
C1331 C1333 1.327 . S
C1331 H1354 0.950 . S
C1332 C1331 1.340 1_545 S
C1332 C1344 1.358 . S
C1333 C1331 1.327 . S
C1333 C1349 1.420 1_565 S
C1333 H1355 0.950 . S
C1334 H1330 0.949 . S
C1334 C1342 1.574 . S
C1334 C1350 1.378 . S
H1335 C1343 0.950 . S
H1336 C1341 0.950 . S
H1337 C1342 0.949 . S
H1338 C1344 0.950 . S
H1339 C1345 0.950 . S
H1340 C1346 0.949 . S
C1341 H1336 0.950 . S
C1341 C1343 1.327 . S
C1341 C1347 1.420 1_565 S
C1342 C1334 1.574 . S
C1342 H1337 0.949 . S
C1342 C1348 1.378 . S
C1343 C1327 1.340 1_565 S
C1343 H1335 0.950 . S
C1343 C1341 1.327 . S
C1344 C1332 1.358 . S
C1344 H1338 0.950 . S
C1344 C1345 1.327 . S
C1345 H1339 0.950 . S
C1345 C1344 1.327 . S
C1345 C1349 1.437 . S
C1346 C1329 1.574 . S
C1346 H1340 0.949 . S
C1346 C1350 1.359 1_565 S
C1347 C1328 1.437 . S
C1347 C1341 1.420 1_545 S
C1347 C1348 1.523 . S
C1348 C1329 1.359 1_545 S
C1348 C1342 1.378 . S
C1348 C1347 1.523 . S
C1349 C1333 1.420 1_545 S
C1349 C1345 1.437 . S
C1349 C1350 1.523 . S
C1350 C1334 1.378 . S
C1350 C1346 1.359 1_545 S
C1350 C1349 1.523 . S
H1351 C1326 0.950 . S
H1352 C1328 0.950 . S
H1353 C1329 0.949 . S
H1354 C1331 0.950 . S
H1355 C1333 0.950 . S
C1356 C1357 1.342 1_655 S
C1356 C1358 1.327 . S
C1356 H1381 0.950 . S
C1357 C1356 1.342 1_455 S
C1357 C1373 1.356 . S
C1358 C1356 1.327 . S
C1358 C1377 1.421 1_655 S
C1358 H1382 0.950 . S
C1359 C1376 1.574 . S
C1359 C1378 1.377 . S
C1359 H1383 0.949 . S
H1360 C1364 0.949 . S
C1361 C1362 1.360 . S
C1361 C1363 1.327 . S
C1361 H1384 0.950 . S
C1362 C1361 1.360 . S
C1362 C1374 1.338 1_455 S
C1363 C1361 1.327 . S
C1363 C1379 1.438 . S
C1363 H1385 0.950 . S
C1364 H1360 0.949 . S
C1364 C1372 1.574 . S
C1364 C1380 1.358 1_655 S
H1365 C1373 0.950 . S
H1366 C1371 0.950 . S
H1367 C1372 0.949 . S
H1368 C1374 0.950 . S
H1369 C1375 0.950 . S
H1370 C1376 0.949 . S
C1371 H1366 0.950 . S
C1371 C1373 1.327 . S
C1371 C1377 1.436 . S
C1372 C1364 1.574 . S
C1372 H1367 0.949 . S
C1372 C1378 1.359 1_655 S
C1373 C1357 1.356 . S
C1373 H1365 0.950 . S
C1373 C1371 1.327 . S
C1374 C1362 1.338 1_655 S
C1374 H1368 0.950 . S
C1374 C1375 1.327 . S
C1375 H1369 0.950 . S
C1375 C1374 1.327 . S
C1375 C1379 1.419 1_655 S
C1376 C1359 1.574 . S
C1376 H1370 0.949 . S
C1376 C1380 1.378 . S
C1377 C1358 1.421 1_455 S
C1377 C1371 1.436 . S
C1377 C1378 1.523 . S
C1378 C1359 1.377 . S
C1378 C1372 1.359 1_455 S
C1378 C1377 1.523 . S
C1379 C1363 1.438 . S
C1379 C1375 1.419 1_455 S
C1379 C1380 1.523 . S
C1380 C1364 1.358 1_455 S
C1380 C1376 1.378 . S
C1380 C1379 1.523 . S
H1381 C1356 0.950 . S
H1382 C1358 0.950 . S
H1383 C1359 0.949 . S
H1384 C1361 0.950 . S
H1385 C1363 0.950 . S
C1386 C1387 1.358 . S
C1386 C1388 1.327 . S
C1386 H1411 0.950 . S
C1387 C1386 1.358 . S
C1387 C1403 1.340 1_545 S
C1388 C1386 1.327 . S
C1388 C1407 1.437 . S
C1388 H1412 0.950 . S
C1389 C1406 1.574 . S
C1389 C1408 1.359 1_565 S
C1389 H1413 0.949 . S
H1390 C1394 0.949 . S
C1391 C1392 1.340 1_565 S
C1391 C1393 1.327 . S
C1391 H1414 0.950 . S
C1392 C1391 1.340 1_545 S
C1392 C1404 1.358 . S
C1393 C1391 1.327 . S
C1393 C1409 1.420 1_565 S
C1393 H1415 0.950 . S
C1394 H1390 0.949 . S
C1394 C1402 1.574 . S
C1394 C1410 1.378 . S
H1395 C1403 0.950 . S
H1396 C1401 0.950 . S
H1397 C1402 0.949 . S
H1398 C1404 0.950 . S
H1399 C1405 0.950 . S
H1400 C1406 0.949 . S
C1401 H1396 0.950 . S
C1401 C1403 1.327 . S
C1401 C1407 1.420 1_565 S
C1402 C1394 1.574 . S
C1402 H1397 0.949 . S
C1402 C1408 1.378 . S
C1403 C1387 1.340 1_565 S
C1403 H1395 0.950 . S
C1403 C1401 1.327 . S
C1404 C1392 1.358 . S
C1404 H1398 0.950 . S
C1404 C1405 1.327 . S
C1405 H1399 0.950 . S
C1405 C1404 1.327 . S
C1405 C1409 1.437 . S
C1406 C1389 1.574 . S
C1406 H1400 0.949 . S
C1406 C1410 1.359 1_565 S
C1407 C1388 1.437 . S
C1407 C1401 1.420 1_545 S
C1407 C1408 1.523 . S
C1408 C1389 1.359 1_545 S
C1408 C1402 1.378 . S
C1408 C1407 1.523 . S
C1409 C1393 1.420 1_545 S
C1409 C1405 1.437 . S
C1409 C1410 1.523 . S
C1410 C1394 1.378 . S
C1410 C1406 1.359 1_545 S
C1410 C1409 1.523 . S
H1411 C1386 0.950 . S
H1412 C1388 0.950 . S
H1413 C1389 0.949 . S
H1414 C1391 0.950 . S
H1415 C1393 0.950 . S
C1416 C1417 1.342 1_655 S
C1416 C1418 1.327 . S
C1416 H1441 0.950 . S
C1417 C1416 1.342 1_455 S
C1417 C1433 1.356 . S
C1418 C1416 1.327 . S
C1418 C1437 1.421 1_655 S
C1418 H1442 0.950 . S
C1419 C1436 1.574 . S
C1419 C1438 1.378 . S
C1419 H1443 0.949 . S
H1420 C1424 0.949 . S
C1421 C1422 1.361 . S
C1421 C1423 1.327 . S
C1421 H1444 0.950 . S
C1422 C1421 1.361 . S
C1422 C1434 1.337 1_455 S
C1423 C1421 1.327 . S
C1423 C1439 1.439 . S
C1423 H1445 0.950 . S
C1424 H1420 0.949 . S
C1424 C1432 1.574 . S
C1424 C1440 1.358 1_655 S
H1425 C1433 0.950 . S
H1426 C1431 0.950 . S
H1427 C1432 0.949 . S
H1428 C1434 0.950 . S
H1429 C1435 0.950 . S
H1430 C1436 0.949 . S
C1431 H1426 0.950 . S
C1431 C1433 1.327 . S
C1431 C1437 1.436 . S
C1432 C1424 1.574 . S
C1432 H1427 0.949 . S
C1432 C1438 1.359 1_655 S
C1433 C1417 1.356 . S
C1433 H1425 0.950 . S
C1433 C1431 1.327 . S
C1434 C1422 1.337 1_655 S
C1434 H1428 0.950 . S
C1434 C1435 1.327 . S
C1435 H1429 0.950 . S
C1435 C1434 1.327 . S
C1435 C1439 1.418 1_655 S
C1436 C1419 1.574 . S
C1436 H1430 0.949 . S
C1436 C1440 1.379 . S
C1437 C1418 1.421 1_455 S
C1437 C1431 1.436 . S
C1437 C1438 1.523 . S
C1438 C1419 1.378 . S
C1438 C1432 1.359 1_455 S
C1438 C1437 1.523 . S
C1439 C1423 1.439 . S
C1439 C1435 1.418 1_455 S
C1439 C1440 1.523 . S
C1440 C1424 1.358 1_455 S
C1440 C1436 1.379 . S
C1440 C1439 1.523 . S
H1441 C1416 0.950 . S
H1442 C1418 0.950 . S
H1443 C1419 0.949 . S
H1444 C1421 0.950 . S
H1445 C1423 0.950 . S
C1446 C1447 1.341 1_565 S
C1446 C1448 1.327 . S
C1446 H1471 0.950 . S
C1447 C1446 1.341 1_545 S
C1447 C1463 1.357 . S
C1448 C1446 1.327 . S
C1448 C1467 1.421 1_565 S
C1448 H1472 0.950 . S
C1449 C1466 1.574 . S
C1449 C1468 1.377 . S
C1449 H1473 0.949 . S
H1450 C1454 0.949 . S
C1451 C1452 1.358 . S
C1451 C1453 1.327 . S
C1451 H1474 0.950 . S
C1452 C1451 1.358 . S
C1452 C1464 1.340 1_545 S
C1453 C1451 1.327 . S
C1453 C1469 1.437 . S
C1453 H1475 0.950 . S
C1454 H1450 0.949 . S
C1454 C1462 1.574 . S
C1454 C1470 1.359 1_565 S
H1455 C1463 0.950 . S
H1456 C1461 0.950 . S
H1457 C1462 0.949 . S
H1458 C1464 0.950 . S
H1459 C1465 0.950 . S
H1460 C1466 0.949 . S
C1461 H1456 0.950 . S
C1461 C1463 1.327 . S
C1461 C1467 1.437 . S
C1462 C1454 1.574 . S
C1462 H1457 0.949 . S
C1462 C1468 1.359 1_565 S
C1463 C1447 1.357 . S
C1463 H1455 0.950 . S
C1463 C1461 1.327 . S
C1464 C1452 1.340 1_565 S
C1464 H1458 0.950 . S
C1464 C1465 1.327 . S
C1465 H1459 0.950 . S
C1465 C1464 1.327 . S
C1465 C1469 1.420 1_565 S
C1466 C1449 1.574 . S
C1466 H1460 0.949 . S
C1466 C1470 1.378 . S
C1467 C1448 1.421 1_545 S
C1467 C1461 1.437 . S
C1467 C1468 1.523 . S
C1468 C1449 1.377 . S
C1468 C1462 1.359 1_545 S
C1468 C1467 1.523 . S
C1469 C1453 1.437 . S
C1469 C1465 1.420 1_545 S
C1469 C1470 1.523 . S
C1470 C1454 1.359 1_545 S
C1470 C1466 1.378 . S
C1470 C1469 1.523 . S
H1471 C1446 0.950 . S
H1472 C1448 0.950 . S
H1473 C1449 0.949 . S
H1474 C1451 0.950 . S
H1475 C1453 0.950 . S
C1476 C1477 1.357 . S
C1476 C1478 1.327 . S
C1476 H1501 0.950 . S
C1477 C1476 1.357 . S
C1477 C1493 1.341 1_545 S
C1478 C1476 1.327 . S
C1478 C1497 1.435 . S
C1478 H1502 0.950 . S
C1479 C1496 1.574 . S
C1479 C1498 1.361 1_565 S
C1479 H1503 0.949 . S
H1480 C1484 0.949 . S
C1481 C1482 1.344 1_565 S
C1481 C1483 1.327 . S
C1481 H1504 0.950 . S
C1482 C1481 1.344 1_545 S
C1482 C1494 1.353 . S
C1483 C1481 1.327 . S
C1483 C1499 1.423 1_565 S
C1483 H1505 0.950 . S
C1484 H1480 0.949 . S
C1484 C1492 1.574 . S
C1484 C1500 1.374 . S
H1485 C1493 0.950 . S
H1486 C1491 0.950 . S
H1487 C1492 0.949 . S
H1488 C1494 0.950 . S
H1489 C1495 0.950 . S
H1490 C1496 0.949 . S
C1491 H1486 0.950 . S
C1491 C1493 1.327 . S
C1491 C1497 1.422 1_565 S
C1492 C1484 1.574 . S
C1492 H1487 0.949 . S
C1492 C1498 1.375 . S
C1493 C1477 1.341 1_565 S
C1493 H1485 0.950 . S
C1493 C1491 1.327 . S
C1494 C1482 1.353 . S
C1494 H1488 0.950 . S
C1494 C1495 1.327 . S
C1495 H1489 0.950 . S
C1495 C1494 1.327 . S
C1495 C1499 1.434 . S
C1496 C1479 1.574 . S
C1496 H1490 0.949 . S
C1496 C1500 1.362 1_565 S
C1497 C1478 1.435 . S
C1497 C1491 1.422 1_545 S
C1497 C1498 1.523 . S
C1498 C1479 1.361 1_545 S
C1498 C1492 1.375 . S
C1498 C1497 1.523 . S
C1499 C1483 1.423 1_545 S
C1499 C1495 1.434 . S
C1499 C1500 1.523 . S
C1500 C1484 1.374 . S
C1500 C1496 1.362 1_545 S
C1500 C1499 1.523 . S
H1501 C1476 0.950 . S
H1502 C1478 0.950 . S
H1503 C1479 0.949 . S
H1504 C1481 0.950 . S
H1505 C1483 0.950 . S
C1506 C1507 1.345 1_655 S
C1506 C1508 1.327 . S
C1506 H1531 0.950 . S
C1507 C1506 1.345 1_455 S
C1507 C1523 1.353 . S
C1508 C1506 1.327 . S
C1508 C1527 1.426 1_655 S
C1508 H1532 0.950 . S
C1509 C1526 1.574 . S
C1509 C1528 1.371 . S
C1509 H1533 0.949 . S
H1510 C1514 0.949 . S
C1511 C1512 1.350 . S
C1511 C1513 1.327 . S
C1511 H1534 0.950 . S
C1512 C1511 1.350 . S
C1512 C1524 1.348 1_455 S
C1513 C1511 1.327 . S
C1513 C1529 1.430 . S
C1513 H1535 0.950 . S
C1514 H1510 0.949 . S
C1514 C1522 1.574 . S
C1514 C1530 1.366 1_655 S
H1515 C1523 0.950 . S
H1516 C1521 0.950 . S
H1517 C1522 0.949 . S
H1518 C1524 0.950 . S
H1519 C1525 0.950 . S
H1520 C1526 0.949 . S
C1521 H1516 0.950 . S
C1521 C1523 1.327 . S
C1521 C1527 1.432 . S
C1522 C1514 1.574 . S
C1522 H1517 0.949 . S
C1522 C1528 1.365 1_655 S
C1523 C1507 1.353 . S
C1523 H1515 0.950 . S
C1523 C1521 1.327 . S
C1524 C1512 1.348 1_655 S
C1524 H1518 0.950 . S
C1524 C1525 1.327 . S
C1525 H1519 0.950 . S
C1525 C1524 1.327 . S
C1525 C1529 1.427 1_655 S
C1526 C1509 1.574 . S
C1526 H1520 0.949 . S
C1526 C1530 1.370 . S
C1527 C1508 1.426 1_455 S
C1527 C1521 1.432 . S
C1527 C1528 1.523 . S
C1528 C1509 1.371 . S
C1528 C1522 1.365 1_455 S
C1528 C1527 1.523 . S
C1529 C1513 1.430 . S
C1529 C1525 1.427 1_455 S
C1529 C1530 1.523 . S
C1530 C1514 1.366 1_455 S
C1530 C1526 1.370 . S
C1530 C1529 1.523 . S
H1531 C1506 0.950 . S
H1532 C1508 0.950 . S
H1533 C1509 0.949 . S
H1534 C1511 0.950 . S
H1535 C1513 0.950 . S
C1536 C1537 1.342 1_565 S
C1536 C1538 1.327 . S
C1536 H1561 0.950 . S
C1537 C1536 1.342 1_545 S
C1537 C1553 1.356 . S
C1538 C1536 1.327 . S
C1538 C1557 1.422 1_565 S
C1538 H1562 0.950 . S
C1539 C1556 1.574 . S
C1539 C1558 1.375 . S
C1539 H1563 0.949 . S
H1540 C1544 0.949 . S
C1541 C1542 1.353 . S
C1541 C1543 1.327 . S
C1541 H1564 0.950 . S
C1542 C1541 1.353 . S
C1542 C1554 1.345 1_545 S
C1543 C1541 1.327 . S
C1543 C1559 1.433 . S
C1543 H1565 0.950 . S
C1544 H1540 0.949 . S
C1544 C1552 1.574 . S
C1544 C1560 1.363 1_565 S
H1545 C1553 0.950 . S
H1546 C1551 0.950 . S
H1547 C1552 0.949 . S
H1548 C1554 0.950 . S
H1549 C1555 0.950 . S
H1550 C1556 0.949 . S
C1551 H1546 0.950 . S
C1551 C1553 1.327 . S
C1551 C1557 1.435 . S
C1552 C1544 1.574 . S
C1552 H1547 0.949 . S
C1552 C1558 1.362 1_565 S
C1553 C1537 1.356 . S
C1553 H1545 0.950 . S
C1553 C1551 1.327 . S
C1554 C1542 1.345 1_565 S
C1554 H1548 0.950 . S
C1554 C1555 1.327 . S
C1555 H1549 0.950 . S
C1555 C1554 1.327 . S
C1555 C1559 1.424 1_565 S
C1556 C1539 1.574 . S
C1556 H1550 0.949 . S
C1556 C1560 1.374 . S
C1557 C1538 1.422 1_545 S
C1557 C1551 1.435 . S
C1557 C1558 1.523 . S
C1558 C1539 1.375 . S
C1558 C1552 1.362 1_545 S
C1558 C1557 1.523 . S
C1559 C1543 1.433 . S
C1559 C1555 1.424 1_545 S
C1559 C1560 1.523 . S
C1560 C1544 1.363 1_545 S
C1560 C1556 1.374 . S
C1560 C1559 1.523 . S
H1561 C1536 0.950 . S
H1562 C1538 0.950 . S
H1563 C1539 0.949 . S
H1564 C1541 0.950 . S
H1565 C1543 0.950 . S
C1566 C1567 1.345 1_655 S
C1566 C1568 1.327 . S
C1566 H1591 0.950 . S
C1567 C1566 1.345 1_455 S
C1567 C1583 1.353 . S
C1568 C1566 1.327 . S
C1568 C1587 1.425 1_655 S
C1568 H1592 0.950 . S
C1569 C1586 1.574 . S
C1569 C1588 1.371 . S
C1569 H1593 0.949 . S
H1570 C1574 0.949 . S
C1571 C1572 1.350 . S
C1571 C1573 1.327 . S
C1571 H1594 0.950 . S
C1572 C1571 1.350 . S
C1572 C1584 1.348 1_455 S
C1573 C1571 1.327 . S
C1573 C1589 1.430 . S
C1573 H1595 0.950 . S
C1574 H1570 0.949 . S
C1574 C1582 1.574 . S
C1574 C1590 1.366 1_655 S
H1575 C1583 0.950 . S
H1576 C1581 0.950 . S
H1577 C1582 0.949 . S
H1578 C1584 0.950 . S
H1579 C1585 0.950 . S
H1580 C1586 0.949 . S
C1581 H1576 0.950 . S
C1581 C1583 1.327 . S
C1581 C1587 1.432 . S
C1582 C1574 1.574 . S
C1582 H1577 0.949 . S
C1582 C1588 1.365 1_655 S
C1583 C1567 1.353 . S
C1583 H1575 0.950 . S
C1583 C1581 1.327 . S
C1584 C1572 1.348 1_655 S
C1584 H1578 0.950 . S
C1584 C1585 1.327 . S
C1585 H1579 0.950 . S
C1585 C1584 1.327 . S
C1585 C1589 1.427 1_655 S
C1586 C1569 1.574 . S
C1586 H1580 0.949 . S
C1586 C1590 1.370 . S
C1587 C1568 1.425 1_455 S
C1587 C1581 1.432 . S
C1587 C1588 1.523 . S
C1588 C1569 1.371 . S
C1588 C1582 1.365 1_455 S
C1588 C1587 1.523 . S
C1589 C1573 1.430 . S
C1589 C1585 1.427 1_455 S
C1589 C1590 1.523 . S
C1590 C1574 1.366 1_455 S
C1590 C1586 1.370 . S
C1590 C1589 1.523 . S
H1591 C1566 0.950 . S
H1592 C1568 0.950 . S
H1593 C1569 0.949 . S
H1594 C1571 0.950 . S
H1595 C1573 0.950 . S
C1596 C1597 1.341 1_565 S
C1596 C1598 1.327 . S
C1596 H1621 0.950 . S
C1597 C1596 1.341 1_545 S
C1597 C1613 1.357 . S
C1598 C1596 1.327 . S
C1598 C1617 1.422 1_565 S
C1598 H1622 0.950 . S
C1599 C1616 1.574 . S
C1599 C1618 1.375 . S
C1599 H1623 0.949 . S
H1600 C1604 0.949 . S
C1601 C1602 1.354 . S
C1601 C1603 1.327 . S
C1601 H1624 0.950 . S
C1602 C1601 1.354 . S
C1602 C1614 1.344 1_545 S
C1603 C1601 1.327 . S
C1603 C1619 1.434 . S
C1603 H1625 0.950 . S
C1604 H1600 0.949 . S
C1604 C1612 1.574 . S
C1604 C1620 1.362 1_565 S
H1605 C1613 0.950 . S
H1606 C1611 0.950 . S
H1607 C1612 0.949 . S
H1608 C1614 0.950 . S
H1609 C1615 0.950 . S
H1610 C1616 0.949 . S
C1611 H1606 0.950 . S
C1611 C1613 1.327 . S
C1611 C1617 1.436 . S
C1612 C1604 1.574 . S
C1612 H1607 0.949 . S
C1612 C1618 1.361 1_565 S
C1613 C1597 1.357 . S
C1613 H1605 0.950 . S
C1613 C1611 1.327 . S
C1614 C1602 1.344 1_565 S
C1614 H1608 0.950 . S
C1614 C1615 1.327 . S
C1615 H1609 0.950 . S
C1615 C1614 1.327 . S
C1615 C1619 1.423 1_565 S
C1616 C1599 1.574 . S
C1616 H1610 0.949 . S
C1616 C1620 1.375 . S
C1617 C1598 1.422 1_545 S
C1617 C1611 1.436 . S
C1617 C1618 1.523 . S
C1618 C1599 1.375 . S
C1618 C1612 1.361 1_545 S
C1618 C1617 1.523 . S
C1619 C1603 1.434 . S
C1619 C1615 1.423 1_545 S
C1619 C1620 1.523 . S
C1620 C1604 1.362 1_545 S
C1620 C1616 1.375 . S
C1620 C1619 1.523 . S
H1621 C1596 0.950 . S
H1622 C1598 0.950 . S
H1623 C1599 0.949 . S
H1624 C1601 0.950 . S
H1625 C1603 0.950 . S
C1626 C1627 1.354 . S
C1626 C1628 1.327 . S
C1626 H1651 0.950 . S
C1627 C1626 1.354 . S
C1627 C1643 1.344 1_455 S
C1628 C1626 1.327 . S
C1628 C1647 1.432 . S
C1628 H1652 0.950 . S
C1629 C1646 1.574 . S
C1629 C1648 1.365 1_655 S
C1629 H1653 0.949 . S
H1630 C1634 0.949 . S
C1631 C1632 1.348 1_655 S
C1631 C1633 1.327 . S
C1631 H1654 0.950 . S
C1632 C1631 1.348 1_455 S
C1632 C1644 1.350 . S
C1633 C1631 1.327 . S
C1633 C1649 1.427 1_655 S
C1633 H1655 0.950 . S
C1634 H1630 0.949 . S
C1634 C1642 1.574 . S
C1634 C1650 1.371 . S
H1635 C1643 0.950 . S
H1636 C1641 0.950 . S
H1637 C1642 0.949 . S
H1638 C1644 0.950 . S
H1639 C1645 0.950 . S
H1640 C1646 0.949 . S
C1641 H1636 0.950 . S
C1641 C1643 1.327 . S
C1641 C1647 1.425 1_655 S
C1642 C1634 1.574 . S
C1642 H1637 0.949 . S
C1642 C1648 1.372 . S
C1643 C1627 1.344 1_655 S
C1643 H1635 0.950 . S
C1643 C1641 1.327 . S
C1644 C1632 1.350 . S
C1644 H1638 0.950 . S
C1644 C1645 1.327 . S
C1645 H1639 0.950 . S
C1645 C1644 1.327 . S
C1645 C1649 1.431 . S
C1646 C1629 1.574 . S
C1646 H1640 0.949 . S
C1646 C1650 1.366 1_655 S
C1647 C1628 1.432 . S
C1647 C1641 1.425 1_455 S
C1647 C1648 1.523 . S
C1648 C1629 1.365 1_455 S
C1648 C1642 1.372 . S
C1648 C1647 1.523 . S
C1649 C1633 1.427 1_455 S
C1649 C1645 1.431 . S
C1649 C1650 1.523 . S
C1650 C1634 1.371 . S
C1650 C1646 1.366 1_455 S
C1650 C1649 1.523 . S
H1651 C1626 0.950 . S
H1652 C1628 0.950 . S
H1653 C1629 0.949 . S
H1654 C1631 0.950 . S
H1655 C1633 0.950 . S
C1656 C1657 1.342 1_565 S
C1656 C1658 1.327 . S
C1656 H1681 0.950 . S
C1657 C1656 1.342 1_545 S
C1657 C1673 1.356 . S
C1658 C1656 1.327 . S
C1658 C1677 1.422 1_565 S
C1658 H1682 0.950 . S
C1659 C1676 1.574 . S
C1659 C1678 1.375 . S
C1659 H1683 0.949 . S
H1660 C1664 0.949 . S
C1661 C1662 1.354 . S
C1661 C1663 1.327 . S
C1661 H1684 0.950 . S
C1662 C1661 1.354 . S
C1662 C1674 1.344 1_545 S
C1663 C1661 1.327 . S
C1663 C1679 1.434 . S
C1663 H1685 0.950 . S
C1664 H1660 0.949 . S
C1664 C1672 1.574 . S
C1664 C1680 1.362 1_565 S
H1665 C1673 0.950 . S
H1666 C1671 0.950 . S
H1667 C1672 0.949 . S
H1668 C1674 0.950 . S
H1669 C1675 0.950 . S
H1670 C1676 0.949 . S
C1671 H1666 0.950 . S
C1671 C1673 1.327 . S
C1671 C1677 1.435 . S
C1672 C1664 1.574 . S
C1672 H1667 0.949 . S
C1672 C1678 1.362 1_565 S
C1673 C1657 1.356 . S
C1673 H1665 0.950 . S
C1673 C1671 1.327 . S
C1674 C1662 1.344 1_565 S
C1674 H1668 0.950 . S
C1674 C1675 1.327 . S
C1675 H1669 0.950 . S
C1675 C1674 1.327 . S
C1675 C1679 1.423 1_565 S
C1676 C1659 1.574 . S
C1676 H1670 0.949 . S
C1676 C1680 1.374 . S
C1677 C1658 1.422 1_545 S
C1677 C1671 1.435 . S
C1677 C1678 1.523 . S
C1678 C1659 1.375 . S
C1678 C1672 1.362 1_545 S
C1678 C1677 1.523 . S
C1679 C1663 1.434 . S
C1679 C1675 1.423 1_545 S
C1679 C1680 1.523 . S
C1680 C1664 1.362 1_545 S
C1680 C1676 1.374 . S
C1680 C1679 1.523 . S
H1681 C1656 0.950 . S
H1682 C1658 0.950 . S
H1683 C1659 0.949 . S
H1684 C1661 0.950 . S
H1685 C1663 0.950 . S
C1686 C1687 1.353 . S
C1686 C1688 1.327 . S
C1686 H1711 0.950 . S
C1687 C1686 1.353 . S
C1687 C1703 1.344 1_455 S
C1688 C1686 1.327 . S
C1688 C1707 1.432 . S
C1688 H1712 0.950 . S
C1689 C1706 1.574 . S
C1689 C1708 1.365 1_655 S
C1689 H1713 0.949 . S
H1690 C1694 0.949 . S
C1691 C1692 1.348 1_655 S
C1691 C1693 1.327 . S
C1691 H1714 0.950 . S
C1692 C1691 1.348 1_455 S
C1692 C1704 1.350 . S
C1693 C1691 1.327 . S
C1693 C1709 1.427 1_655 S
C1693 H1715 0.950 . S
C1694 H1690 0.949 . S
C1694 C1702 1.574 . S
C1694 C1710 1.371 . S
H1695 C1703 0.950 . S
H1696 C1701 0.950 . S
H1697 C1702 0.949 . S
H1698 C1704 0.950 . S
H1699 C1705 0.950 . S
H1700 C1706 0.949 . S
C1701 H1696 0.950 . S
C1701 C1703 1.327 . S
C1701 C1707 1.425 1_655 S
C1702 C1694 1.574 . S
C1702 H1697 0.949 . S
C1702 C1708 1.372 . S
C1703 C1687 1.344 1_655 S
C1703 H1695 0.950 . S
C1703 C1701 1.327 . S
C1704 C1692 1.350 . S
C1704 H1698 0.950 . S
C1704 C1705 1.327 . S
C1705 H1699 0.950 . S
C1705 C1704 1.327 . S
C1705 C1709 1.430 . S
C1706 C1689 1.574 . S
C1706 H1700 0.949 . S
C1706 C1710 1.366 1_655 S
C1707 C1688 1.432 . S
C1707 C1701 1.425 1_455 S
C1707 C1708 1.523 . S
C1708 C1689 1.365 1_455 S
C1708 C1702 1.372 . S
C1708 C1707 1.523 . S
C1709 C1693 1.427 1_455 S
C1709 C1705 1.430 . S
C1709 C1710 1.523 . S
C1710 C1694 1.371 . S
C1710 C1706 1.366 1_455 S
C1710 C1709 1.523 . S
H1711 C1686 0.950 . S
H1712 C1688 0.950 . S
H1713 C1689 0.949 . S
H1714 C1691 0.950 . S
H1715 C1693 0.950 . S
C1716 C1717 1.352 . S
C1716 C1718 1.327 . S
C1716 H1741 0.950 . S
C1717 C1716 1.352 . S
C1717 C1733 1.346 1_554 S
C1718 C1716 1.327 . S
C1718 C1737 1.431 . S
C1718 H1742 0.950 . S
C1719 C1736 1.574 . S
C1719 C1738 1.366 1_556 S
C1719 H1743 0.949 . S
H1720 C1724 0.949 . S
C1721 C1722 1.349 1_556 S
C1721 C1723 1.327 . S
C1721 H1744 0.950 . S
C1722 C1721 1.349 1_554 S
C1722 C1734 1.349 . S
C1723 C1721 1.327 . S
C1723 C1739 1.428 1_556 S
C1723 H1745 0.950 . S
C1724 H1720 0.949 . S
C1724 C1732 1.574 . S
C1724 C1740 1.370 . S
H1725 C1733 0.950 . S
H1726 C1731 0.950 . S
H1727 C1732 0.949 . S
H1728 C1734 0.950 . S
H1729 C1735 0.950 . S
H1730 C1736 0.949 . S
C1731 H1726 0.950 . S
C1731 C1733 1.327 . S
C1731 C1737 1.426 1_556 S
C1732 C1724 1.574 . S
C1732 H1727 0.949 . S
C1732 C1738 1.370 . S
C1733 C1717 1.346 1_556 S
C1733 H1725 0.950 . S
C1733 C1731 1.327 . S
C1734 C1722 1.349 . S
C1734 H1728 0.950 . S
C1734 C1735 1.327 . S
C1735 H1729 0.950 . S
C1735 C1734 1.327 . S
C1735 C1739 1.429 . S
C1736 C1719 1.574 . S
C1736 H1730 0.949 . S
C1736 C1740 1.367 1_556 S
C1737 C1718 1.431 . S
C1737 C1731 1.426 1_554 S
C1737 C1738 1.523 . S
C1738 C1719 1.366 1_554 S
C1738 C1732 1.370 . S
C1738 C1737 1.523 . S
C1739 C1723 1.428 1_554 S
C1739 C1735 1.429 . S
C1739 C1740 1.523 . S
C1740 C1724 1.370 . S
C1740 C1736 1.367 1_554 S
C1740 C1739 1.523 . S
H1741 C1716 0.950 . S
H1742 C1718 0.950 . S
H1743 C1719 0.949 . S
H1744 C1721 0.950 . S
H1745 C1723 0.950 . S
C1746 C1747 1.351 . S
C1746 C1748 1.327 . S
C1746 H1771 0.950 . S
C1747 C1746 1.351 . S
C1747 C1763 1.347 1_554 S
C1748 C1746 1.327 . S
C1748 C1767 1.430 . S
C1748 H1772 0.950 . S
C1749 C1766 1.574 . S
C1749 C1768 1.368 1_556 S
C1749 H1773 0.949 . S
H1750 C1754 0.949 . S
C1751 C1752 1.350 1_556 S
C1751 C1753 1.327 . S
C1751 H1774 0.950 . S
C1752 C1751 1.350 1_554 S
C1752 C1764 1.348 . S
C1753 C1751 1.327 . S
C1753 C1769 1.429 1_556 S
C1753 H1775 0.950 . S
C1754 H1750 0.949 . S
C1754 C1762 1.574 . S
C1754 C1770 1.368 . S
H1755 C1763 0.950 . S
H1756 C1761 0.950 . S
H1757 C1762 0.949 . S
H1758 C1764 0.950 . S
H1759 C1765 0.950 . S
H1760 C1766 0.949 . S
C1761 H1756 0.950 . S
C1761 C1763 1.327 . S
C1761 C1767 1.428 1_556 S
C1762 C1754 1.574 . S
C1762 H1757 0.949 . S
C1762 C1768 1.369 . S
C1763 C1747 1.347 1_556 S
C1763 H1755 0.950 . S
C1763 C1761 1.327 . S
C1764 C1752 1.348 . S
C1764 H1758 0.950 . S
C1764 C1765 1.327 . S
C1765 H1759 0.950 . S
C1765 C1764 1.327 . S
C1765 C1769 1.428 . S
C1766 C1749 1.574 . S
C1766 H1760 0.949 . S
C1766 C1770 1.368 1_556 S
C1767 C1748 1.430 . S
C1767 C1761 1.428 1_554 S
C1767 C1768 1.523 . S
C1768 C1749 1.368 1_554 S
C1768 C1762 1.369 . S
C1768 C1767 1.523 . S
C1769 C1753 1.429 1_554 S
C1769 C1765 1.428 . S
C1769 C1770 1.523 . S
C1770 C1754 1.368 . S
C1770 C1766 1.368 1_554 S
C1770 C1769 1.523 . S
H1771 C1746 0.950 . S
H1772 C1748 0.950 . S
H1773 C1749 0.949 . S
H1774 C1751 0.950 . S
H1775 C1753 0.950 . S
C1776 C1777 1.347 1_556 S
C1776 C1778 1.327 . S
C1776 H1801 0.950 . S
C1777 C1776 1.347 1_554 S
C1777 C1793 1.351 . S
C1778 C1776 1.327 . S
C1778 C1797 1.426 1_556 S
C1778 H1802 0.950 . S
C1779 C1796 1.574 . S
C1779 C1798 1.371 . S
C1779 H1803 0.949 . S
H1780 C1784 0.949 . S
C1781 C1782 1.353 . S
C1781 C1783 1.327 . S
C1781 H1804 0.950 . S
C1782 C1781 1.353 . S
C1782 C1794 1.345 1_554 S
C1783 C1781 1.327 . S
C1783 C1799 1.432 . S
C1783 H1805 0.950 . S
C1784 H1780 0.949 . S
C1784 C1792 1.574 . S
C1784 C1800 1.365 1_556 S
H1785 C1793 0.950 . S
H1786 C1791 0.950 . S
H1787 C1792 0.949 . S
H1788 C1794 0.950 . S
H1789 C1795 0.950 . S
H1790 C1796 0.949 . S
C1791 H1786 0.950 . S
C1791 C1793 1.327 . S
C1791 C1797 1.431 . S
C1792 C1784 1.574 . S
C1792 H1787 0.949 . S
C1792 C1798 1.365 1_556 S
C1793 C1777 1.351 . S
C1793 H1785 0.950 . S
C1793 C1791 1.327 . S
C1794 C1782 1.345 1_556 S
C1794 H1788 0.950 . S
C1794 C1795 1.327 . S
C1795 H1789 0.950 . S
C1795 C1794 1.327 . S
C1795 C1799 1.425 1_556 S
C1796 C1779 1.574 . S
C1796 H1790 0.949 . S
C1796 C1800 1.372 . S
C1797 C1778 1.426 1_554 S
C1797 C1791 1.431 . S
C1797 C1798 1.523 . S
C1798 C1779 1.371 . S
C1798 C1792 1.365 1_554 S
C1798 C1797 1.523 . S
C1799 C1783 1.432 . S
C1799 C1795 1.425 1_554 S
C1799 C1800 1.523 . S
C1800 C1784 1.365 1_554 S
C1800 C1796 1.372 . S
C1800 C1799 1.523 . S
H1801 C1776 0.950 . S
H1802 C1778 0.950 . S
H1803 C1779 0.949 . S
H1804 C1781 0.950 . S
H1805 C1783 0.950 . S
C1806 C1807 1.352 . S
C1806 C1808 1.327 . S
C1806 H1831 0.950 . S
C1807 C1806 1.352 . S
C1807 C1823 1.346 1_554 S
C1808 C1806 1.327 . S
C1808 C1827 1.431 . S
C1808 H1832 0.950 . S
C1809 C1826 1.574 . S
C1809 C1828 1.366 1_556 S
C1809 H1833 0.949 . S
H1810 C1814 0.949 . S
C1811 C1812 1.349 1_556 S
C1811 C1813 1.327 . S
C1811 H1834 0.950 . S
C1812 C1811 1.349 1_554 S
C1812 C1824 1.349 . S
C1813 C1811 1.327 . S
C1813 C1829 1.428 1_556 S
C1813 H1835 0.950 . S
C1814 H1810 0.949 . S
C1814 C1822 1.574 . S
C1814 C1830 1.370 . S
H1815 C1823 0.950 . S
H1816 C1821 0.950 . S
H1817 C1822 0.949 . S
H1818 C1824 0.950 . S
H1819 C1825 0.950 . S
H1820 C1826 0.949 . S
C1821 H1816 0.950 . S
C1821 C1823 1.327 . S
C1821 C1827 1.426 1_556 S
C1822 C1814 1.574 . S
C1822 H1817 0.949 . S
C1822 C1828 1.370 . S
C1823 C1807 1.346 1_556 S
C1823 H1815 0.950 . S
C1823 C1821 1.327 . S
C1824 C1812 1.349 . S
C1824 H1818 0.950 . S
C1824 C1825 1.327 . S
C1825 H1819 0.950 . S
C1825 C1824 1.327 . S
C1825 C1829 1.429 . S
C1826 C1809 1.574 . S
C1826 H1820 0.949 . S
C1826 C1830 1.367 1_556 S
C1827 C1808 1.431 . S
C1827 C1821 1.426 1_554 S
C1827 C1828 1.523 . S
C1828 C1809 1.366 1_554 S
C1828 C1822 1.370 . S
C1828 C1827 1.523 . S
C1829 C1813 1.428 1_554 S
C1829 C1825 1.429 . S
C1829 C1830 1.523 . S
C1830 C1814 1.370 . S
C1830 C1826 1.367 1_554 S
C1830 C1829 1.523 . S
H1831 C1806 0.950 . S
H1832 C1808 0.950 . S
H1833 C1809 0.949 . S
H1834 C1811 0.950 . S
H1835 C1813 0.950 . S
C1836 C1837 1.351 . S
C1836 C1838 1.327 . S
C1836 H1861 0.950 . S
C1837 C1836 1.351 . S
C1837 C1853 1.346 1_554 S
C1838 C1836 1.327 . S
C1838 C1857 1.431 . S
C1838 H1862 0.950 . S
C1839 C1856 1.574 . S
C1839 C1858 1.365 1_556 S
C1839 H1863 0.949 . S
H1840 C1844 0.949 . S
C1841 C1842 1.346 1_556 S
C1841 C1843 1.327 . S
C1841 H1864 0.950 . S
C1842 C1841 1.346 1_554 S
C1842 C1854 1.352 . S
C1843 C1841 1.327 . S
C1843 C1859 1.426 1_556 S
C1843 H1865 0.950 . S
C1844 H1840 0.949 . S
C1844 C1852 1.574 . S
C1844 C1860 1.371 . S
H1845 C1853 0.950 . S
H1846 C1851 0.950 . S
H1847 C1852 0.949 . S
H1848 C1854 0.950 . S
H1849 C1855 0.950 . S
H1850 C1856 0.949 . S
C1851 H1846 0.950 . S
C1851 C1853 1.327 . S
C1851 C1857 1.426 1_556 S
C1852 C1844 1.574 . S
C1852 H1847 0.949 . S
C1852 C1858 1.371 . S
C1853 C1837 1.346 1_556 S
C1853 H1845 0.950 . S
C1853 C1851 1.327 . S
C1854 C1842 1.352 . S
C1854 H1848 0.950 . S
C1854 C1855 1.327 . S
C1855 H1849 0.950 . S
C1855 C1854 1.327 . S
C1855 C1859 1.432 . S
C1856 C1839 1.574 . S
C1856 H1850 0.949 . S
C1856 C1860 1.365 1_556 S
C1857 C1838 1.431 . S
C1857 C1851 1.426 1_554 S
C1857 C1858 1.523 . S
C1858 C1839 1.365 1_554 S
C1858 C1852 1.371 . S
C1858 C1857 1.523 . S
C1859 C1843 1.426 1_554 S
C1859 C1855 1.432 . S
C1859 C1860 1.523 . S
C1860 C1844 1.371 . S
C1860 C1856 1.365 1_554 S
C1860 C1859 1.523 . S
H1861 C1836 0.950 . S
H1862 C1838 0.950 . S
H1863 C1839 0.949 . S
H1864 C1841 0.950 . S
H1865 C1843 0.950 . S
C1866 C1867 1.351 . S
C1866 C1868 1.327 . S
C1866 H1891 0.950 . S
C1867 C1866 1.351 . S
C1867 C1883 1.347 1_554 S
C1868 C1866 1.327 . S
C1868 C1887 1.429 . S
C1868 H1892 0.950 . S
C1869 C1886 1.574 . S
C1869 C1888 1.368 1_556 S
C1869 H1893 0.949 . S
H1870 C1874 0.949 . S
C1871 C1872 1.350 1_556 S
C1871 C1873 1.327 . S
C1871 H1894 0.950 . S
C1872 C1871 1.350 1_554 S
C1872 C1884 1.348 . S
C1873 C1871 1.327 . S
C1873 C1889 1.429 1_556 S
C1873 H1895 0.950 . S
C1874 H1870 0.949 . S
C1874 C1882 1.574 . S
C1874 C1890 1.368 . S
H1875 C1883 0.950 . S
H1876 C1881 0.950 . S
H1877 C1882 0.949 . S
H1878 C1884 0.950 . S
H1879 C1885 0.950 . S
H1880 C1886 0.949 . S
C1881 H1876 0.950 . S
C1881 C1883 1.327 . S
C1881 C1887 1.428 1_556 S
C1882 C1874 1.574 . S
C1882 H1877 0.949 . S
C1882 C1888 1.369 . S
C1883 C1867 1.347 1_556 S
C1883 H1875 0.950 . S
C1883 C1881 1.327 . S
C1884 C1872 1.348 . S
C1884 H1878 0.950 . S
C1884 C1885 1.327 . S
C1885 H1879 0.950 . S
C1885 C1884 1.327 . S
C1885 C1889 1.428 . S
C1886 C1869 1.574 . S
C1886 H1880 0.949 . S
C1886 C1890 1.368 1_556 S
C1887 C1868 1.429 . S
C1887 C1881 1.428 1_554 S
C1887 C1888 1.523 . S
C1888 C1869 1.368 1_554 S
C1888 C1882 1.369 . S
C1888 C1887 1.523 . S
C1889 C1873 1.429 1_554 S
C1889 C1885 1.428 . S
C1889 C1890 1.523 . S
C1890 C1874 1.368 . S
C1890 C1886 1.368 1_554 S
C1890 C1889 1.523 . S
H1891 C1866 0.950 . S
H1892 C1868 0.950 . S
H1893 C1869 0.949 . S
H1894 C1871 0.950 . S
H1895 C1873 0.950 . S
C1896 C1897 1.346 1_556 S
C1896 C1898 1.327 . S
C1896 H1921 0.950 . S
C1897 C1896 1.346 1_554 S
C1897 C1913 1.351 . S
C1898 C1896 1.327 . S
C1898 C1917 1.426 1_556 S
C1898 H1922 0.950 . S
C1899 C1916 1.574 . S
C1899 C1918 1.371 . S
C1899 H1923 0.949 . S
H1900 C1904 0.949 . S
C1901 C1902 1.352 . S
C1901 C1903 1.327 . S
C1901 H1924 0.950 . S
C1902 C1901 1.352 . S
C1902 C1914 1.346 1_554 S
C1903 C1901 1.327 . S
C1903 C1919 1.432 . S
C1903 H1925 0.950 . S
C1904 H1900 0.949 . S
C1904 C1912 1.574 . S
C1904 C1920 1.365 1_556 S
H1905 C1913 0.950 . S
H1906 C1911 0.950 . S
H1907 C1912 0.949 . S
H1908 C1914 0.950 . S
H1909 C1915 0.950 . S
H1910 C1916 0.949 . S
C1911 H1906 0.950 . S
C1911 C1913 1.327 . S
C1911 C1917 1.431 . S
C1912 C1904 1.574 . S
C1912 H1907 0.949 . S
C1912 C1918 1.365 1_556 S
C1913 C1897 1.351 . S
C1913 H1905 0.950 . S
C1913 C1911 1.327 . S
C1914 C1902 1.346 1_556 S
C1914 H1908 0.950 . S
C1914 C1915 1.327 . S
C1915 H1909 0.950 . S
C1915 C1914 1.327 . S
C1915 C1919 1.426 1_556 S
C1916 C1899 1.574 . S
C1916 H1910 0.949 . S
C1916 C1920 1.371 . S
C1917 C1898 1.426 1_554 S
C1917 C1911 1.431 . S
C1917 C1918 1.523 . S
C1918 C1899 1.371 . S
C1918 C1912 1.365 1_554 S
C1918 C1917 1.523 . S
C1919 C1903 1.432 . S
C1919 C1915 1.426 1_554 S
C1919 C1920 1.523 . S
C1920 C1904 1.365 1_554 S
C1920 C1916 1.371 . S
C1920 C1919 1.523 . S
H1921 C1896 0.950 . S
H1922 C1898 0.950 . S
H1923 C1899 0.949 . S
H1924 C1901 0.950 . S
H1925 C1903 0.950 . S
C1926 C1927 1.351 . S
C1926 C1928 1.327 . S
C1926 H1951 0.950 . S
C1927 C1926 1.351 . S
C1927 C1943 1.347 1_554 S
C1928 C1926 1.327 . S
C1928 C1947 1.431 . S
C1928 H1952 0.950 . S
C1929 C1946 1.574 . S
C1929 C1948 1.365 1_556 S
C1929 H1953 0.949 . S
H1930 C1934 0.949 . S
C1931 C1932 1.345 1_556 S
C1931 C1933 1.327 . S
C1931 H1954 0.950 . S
C1932 C1931 1.345 1_554 S
C1932 C1944 1.353 . S
C1933 C1931 1.327 . S
C1933 C1949 1.425 1_556 S
C1933 H1955 0.950 . S
C1934 H1930 0.949 . S
C1934 C1942 1.574 . S
C1934 C1950 1.372 . S
H1935 C1943 0.950 . S
H1936 C1941 0.950 . S
H1937 C1942 0.949 . S
H1938 C1944 0.950 . S
H1939 C1945 0.950 . S
H1940 C1946 0.949 . S
C1941 H1936 0.950 . S
C1941 C1943 1.327 . S
C1941 C1947 1.426 1_556 S
C1942 C1934 1.574 . S
C1942 H1937 0.949 . S
C1942 C1948 1.371 . S
C1943 C1927 1.347 1_556 S
C1943 H1935 0.950 . S
C1943 C1941 1.327 . S
C1944 C1932 1.353 . S
C1944 H1938 0.950 . S
C1944 C1945 1.327 . S
C1945 H1939 0.950 . S
C1945 C1944 1.327 . S
C1945 C1949 1.432 . S
C1946 C1929 1.574 . S
C1946 H1940 0.949 . S
C1946 C1950 1.365 1_556 S
C1947 C1928 1.431 . S
C1947 C1941 1.426 1_554 S
C1947 C1948 1.523 . S
C1948 C1929 1.365 1_554 S
C1948 C1942 1.371 . S
C1948 C1947 1.523 . S
C1949 C1933 1.425 1_554 S
C1949 C1945 1.432 . S
C1949 C1950 1.523 . S
C1950 C1934 1.372 . S
C1950 C1946 1.365 1_554 S
C1950 C1949 1.523 . S
H1951 C1926 0.950 . S
H1952 C1928 0.950 . S
H1953 C1929 0.949 . S
H1954 C1931 0.950 . S
H1955 C1933 0.950 . S
C1956 C1957 1.349 . S
C1956 C1958 1.327 . S
C1956 H1981 0.950 . S
C1957 C1956 1.349 . S
C1957 C1973 1.349 . S
C1958 C1956 1.327 . S
C1958 C1977 1.429 . S
C1958 H1982 0.950 . S
C1959 C1976 1.574 . S
C1959 C1978 1.368 . S
C1959 H1983 0.949 . S
H1960 C1964 0.949 . S
C1961 C1962 1.349 . S
C1961 C1963 1.327 . S
C1961 H1984 0.950 . S
C1962 C1961 1.349 . S
C1962 C1974 1.349 . S
C1963 C1961 1.327 . S
C1963 C1979 1.429 . S
C1963 H1985 0.950 . S
C1964 H1960 0.949 . S
C1964 C1972 1.574 . S
C1964 C1980 1.368 . S
H1965 C1973 0.950 . S
H1966 C1971 0.950 . S
H1967 C1972 0.949 . S
H1968 C1974 0.950 . S
H1969 C1975 0.950 . S
H1970 C1976 0.949 . S
C1971 H1966 0.950 . S
C1971 C1973 1.327 . S
C1971 C1977 1.429 . S
C1972 C1964 1.574 . S
C1972 H1967 0.949 . S
C1972 C1978 1.368 . S
C1973 C1957 1.349 . S
C1973 H1965 0.950 . S
C1973 C1971 1.327 . S
C1974 C1962 1.349 . S
C1974 H1968 0.950 . S
C1974 C1975 1.327 . S
C1975 H1969 0.950 . S
C1975 C1974 1.327 . S
C1975 C1979 1.429 . S
C1976 C1959 1.574 . S
C1976 H1970 0.949 . S
C1976 C1980 1.368 . S
C1977 C1958 1.429 . S
C1977 C1971 1.429 . S
C1977 C1978 1.523 . S
C1978 C1959 1.368 . S
C1978 C1972 1.368 . S
C1978 C1977 1.523 . S
C1979 C1963 1.429 . S
C1979 C1975 1.429 . S
C1979 C1980 1.523 . S
C1980 C1964 1.368 . S
C1980 C1976 1.368 . S
C1980 C1979 1.523 . S
H1981 C1956 0.950 . S
H1982 C1958 0.950 . S
H1983 C1959 0.949 . S
H1984 C1961 0.950 . S
H1985 C1963 0.950 . S
C1986 C1987 1.349 . S
C1986 C1988 1.327 . S
C1986 H2011 0.950 . S
C1987 C1986 1.349 . S
C1987 C2003 1.349 . S
C1988 C1986 1.327 . S
C1988 C2007 1.429 . S
C1988 H2012 0.950 . S
C1989 C2006 1.574 . S
C1989 C2008 1.368 . S
C1989 H2013 0.949 . S
H1990 C1994 0.949 . S
C1991 C1992 1.349 . S
C1991 C1993 1.327 . S
C1991 H2014 0.950 . S
C1992 C1991 1.349 . S
C1992 C2004 1.349 . S
C1993 C1991 1.327 . S
C1993 C2009 1.429 . S
C1993 H2015 0.950 . S
C1994 H1990 0.949 . S
C1994 C2002 1.574 . S
C1994 C2010 1.368 . S
H1995 C2003 0.950 . S
H1996 C2001 0.950 . S
H1997 C2002 0.949 . S
H1998 C2004 0.950 . S
H1999 C2005 0.950 . S
H2000 C2006 0.949 . S
C2001 H1996 0.950 . S
C2001 C2003 1.327 . S
C2001 C2007 1.429 . S
C2002 C1994 1.574 . S
C2002 H1997 0.949 . S
C2002 C2008 1.368 . S
C2003 C1987 1.349 . S
C2003 H1995 0.950 . S
C2003 C2001 1.327 . S
C2004 C1992 1.349 . S
C2004 H1998 0.950 . S
C2004 C2005 1.327 . S
C2005 H1999 0.950 . S
C2005 C2004 1.327 . S
C2005 C2009 1.429 . S
C2006 C1989 1.574 . S
C2006 H2000 0.949 . S
C2006 C2010 1.368 . S
C2007 C1988 1.429 . S
C2007 C2001 1.429 . S
C2007 C2008 1.523 . S
C2008 C1989 1.368 . S
C2008 C2002 1.368 . S
C2008 C2007 1.523 . S
C2009 C1993 1.429 . S
C2009 C2005 1.429 . S
C2009 C2010 1.523 . S
C2010 C1994 1.368 . S
C2010 C2006 1.368 . S
C2010 C2009 1.523 . S
H2011 C1986 0.950 . S
H2012 C1988 0.950 . S
H2013 C1989 0.949 . S
H2014 C1991 0.950 . S
H2015 C1993 0.950 . S
C2016 C2017 1.349 . S
C2016 C2018 1.327 . S
C2016 H2041 0.950 . S
C2017 C2016 1.349 . S
C2017 C2033 1.349 . S
C2018 C2016 1.327 . S
C2018 C2037 1.429 . S
C2018 H2042 0.950 . S
C2019 C2036 1.574 . S
C2019 C2038 1.368 . S
C2019 H2043 0.949 . S
H2020 C2024 0.949 . S
C2021 C2022 1.349 . S
C2021 C2023 1.327 . S
C2021 H2044 0.950 . S
C2022 C2021 1.349 . S
C2022 C2034 1.349 . S
C2023 C2021 1.327 . S
C2023 C2039 1.429 . S
C2023 H2045 0.950 . S
C2024 H2020 0.949 . S
C2024 C2032 1.574 . S
C2024 C2040 1.368 . S
H2025 C2033 0.950 . S
H2026 C2031 0.950 . S
H2027 C2032 0.949 . S
H2028 C2034 0.950 . S
H2029 C2035 0.950 . S
H2030 C2036 0.949 . S
C2031 H2026 0.950 . S
C2031 C2033 1.327 . S
C2031 C2037 1.429 . S
C2032 C2024 1.574 . S
C2032 H2027 0.949 . S
C2032 C2038 1.368 . S
C2033 C2017 1.349 . S
C2033 H2025 0.950 . S
C2033 C2031 1.327 . S
C2034 C2022 1.349 . S
C2034 H2028 0.950 . S
C2034 C2035 1.327 . S
C2035 H2029 0.950 . S
C2035 C2034 1.327 . S
C2035 C2039 1.429 . S
C2036 C2019 1.574 . S
C2036 H2030 0.949 . S
C2036 C2040 1.368 . S
C2037 C2018 1.429 . S
C2037 C2031 1.429 . S
C2037 C2038 1.523 . S
C2038 C2019 1.368 . S
C2038 C2032 1.368 . S
C2038 C2037 1.523 . S
C2039 C2023 1.429 . S
C2039 C2035 1.429 . S
C2039 C2040 1.523 . S
C2040 C2024 1.368 . S
C2040 C2036 1.368 . S
C2040 C2039 1.523 . S
H2041 C2016 0.950 . S
H2042 C2018 0.950 . S
H2043 C2019 0.949 . S
H2044 C2021 0.950 . S
H2045 C2023 0.950 . S
C2046 C2047 1.349 . S
C2046 C2048 1.327 . S
C2046 H2071 0.950 . S
C2047 C2046 1.349 . S
C2047 C2063 1.349 . S
C2048 C2046 1.327 . S
C2048 C2067 1.429 . S
C2048 H2072 0.950 . S
C2049 C2066 1.574 . S
C2049 C2068 1.368 . S
C2049 H2073 0.949 . S
H2050 C2054 0.949 . S
C2051 C2052 1.349 . S
C2051 C2053 1.327 . S
C2051 H2074 0.950 . S
C2052 C2051 1.349 . S
C2052 C2064 1.349 . S
C2053 C2051 1.327 . S
C2053 C2069 1.429 . S
C2053 H2075 0.950 . S
C2054 H2050 0.949 . S
C2054 C2062 1.574 . S
C2054 C2070 1.368 . S
H2055 C2063 0.950 . S
H2056 C2061 0.950 . S
H2057 C2062 0.949 . S
H2058 C2064 0.950 . S
H2059 C2065 0.950 . S
H2060 C2066 0.949 . S
C2061 H2056 0.950 . S
C2061 C2063 1.327 . S
C2061 C2067 1.429 . S
C2062 C2054 1.574 . S
C2062 H2057 0.949 . S
C2062 C2068 1.368 . S
C2063 C2047 1.349 . S
C2063 H2055 0.950 . S
C2063 C2061 1.327 . S
C2064 C2052 1.349 . S
C2064 H2058 0.950 . S
C2064 C2065 1.327 . S
C2065 H2059 0.950 . S
C2065 C2064 1.327 . S
C2065 C2069 1.429 . S
C2066 C2049 1.574 . S
C2066 H2060 0.949 . S
C2066 C2070 1.368 . S
C2067 C2048 1.429 . S
C2067 C2061 1.429 . S
C2067 C2068 1.523 . S
C2068 C2049 1.368 . S
C2068 C2062 1.368 . S
C2068 C2067 1.523 . S
C2069 C2053 1.429 . S
C2069 C2065 1.429 . S
C2069 C2070 1.523 . S
C2070 C2054 1.368 . S
C2070 C2066 1.368 . S
C2070 C2069 1.523 . S
H2071 C2046 0.950 . S
H2072 C2048 0.950 . S
H2073 C2049 0.949 . S
H2074 C2051 0.950 . S
H2075 C2053 0.950 . S
C2076 C2077 1.349 . S
C2076 C2078 1.327 . S
C2076 H2101 0.950 . S
C2077 C2076 1.349 . S
C2077 C2093 1.349 . S
C2078 C2076 1.327 . S
C2078 C2097 1.429 . S
C2078 H2102 0.950 . S
C2079 C2096 1.574 . S
C2079 C2098 1.368 . S
C2079 H2103 0.949 . S
H2080 C2084 0.949 . S
C2081 C2082 1.349 . S
C2081 C2083 1.327 . S
C2081 H2104 0.950 . S
C2082 C2081 1.349 . S
C2082 C2094 1.349 . S
C2083 C2081 1.327 . S
C2083 C2099 1.429 . S
C2083 H2105 0.950 . S
C2084 H2080 0.949 . S
C2084 C2092 1.574 . S
C2084 C2100 1.368 . S
H2085 C2093 0.950 . S
H2086 C2091 0.950 . S
H2087 C2092 0.949 . S
H2088 C2094 0.950 . S
H2089 C2095 0.950 . S
H2090 C2096 0.949 . S
C2091 H2086 0.950 . S
C2091 C2093 1.327 . S
C2091 C2097 1.429 . S
C2092 C2084 1.574 . S
C2092 H2087 0.949 . S
C2092 C2098 1.368 . S
C2093 C2077 1.349 . S
C2093 H2085 0.950 . S
C2093 C2091 1.327 . S
C2094 C2082 1.349 . S
C2094 H2088 0.950 . S
C2094 C2095 1.327 . S
C2095 H2089 0.950 . S
C2095 C2094 1.327 . S
C2095 C2099 1.429 . S
C2096 C2079 1.574 . S
C2096 H2090 0.949 . S
C2096 C2100 1.368 . S
C2097 C2078 1.429 . S
C2097 C2091 1.429 . S
C2097 C2098 1.523 . S
C2098 C2079 1.368 . S
C2098 C2092 1.368 . S
C2098 C2097 1.523 . S
C2099 C2083 1.429 . S
C2099 C2095 1.429 . S
C2099 C2100 1.523 . S
C2100 C2084 1.368 . S
C2100 C2096 1.368 . S
C2100 C2099 1.523 . S
H2101 C2076 0.950 . S
H2102 C2078 0.950 . S
H2103 C2079 0.949 . S
H2104 C2081 0.950 . S
H2105 C2083 0.950 . S
C2106 C2107 1.349 . S
C2106 C2108 1.327 . S
C2106 H2131 0.950 . S
C2107 C2106 1.349 . S
C2107 C2123 1.349 . S
C2108 C2106 1.327 . S
C2108 C2127 1.429 . S
C2108 H2132 0.950 . S
C2109 C2126 1.574 . S
C2109 C2128 1.368 . S
C2109 H2133 0.949 . S
H2110 C2114 0.949 . S
C2111 C2112 1.349 . S
C2111 C2113 1.327 . S
C2111 H2134 0.950 . S
C2112 C2111 1.349 . S
C2112 C2124 1.349 . S
C2113 C2111 1.327 . S
C2113 C2129 1.429 . S
C2113 H2135 0.950 . S
C2114 H2110 0.949 . S
C2114 C2122 1.574 . S
C2114 C2130 1.368 . S
H2115 C2123 0.950 . S
H2116 C2121 0.950 . S
H2117 C2122 0.949 . S
H2118 C2124 0.950 . S
H2119 C2125 0.950 . S
H2120 C2126 0.949 . S
C2121 H2116 0.950 . S
C2121 C2123 1.327 . S
C2121 C2127 1.429 . S
C2122 C2114 1.574 . S
C2122 H2117 0.949 . S
C2122 C2128 1.368 . S
C2123 C2107 1.349 . S
C2123 H2115 0.950 . S
C2123 C2121 1.327 . S
C2124 C2112 1.349 . S
C2124 H2118 0.950 . S
C2124 C2125 1.327 . S
C2125 H2119 0.950 . S
C2125 C2124 1.327 . S
C2125 C2129 1.429 . S
C2126 C2109 1.574 . S
C2126 H2120 0.949 . S
C2126 C2130 1.368 . S
C2127 C2108 1.429 . S
C2127 C2121 1.429 . S
C2127 C2128 1.523 . S
C2128 C2109 1.368 . S
C2128 C2122 1.368 . S
C2128 C2127 1.523 . S
C2129 C2113 1.429 . S
C2129 C2125 1.429 . S
C2129 C2130 1.523 . S
C2130 C2114 1.368 . S
C2130 C2126 1.368 . S
C2130 C2129 1.523 . S
H2131 C2106 0.950 . S
H2132 C2108 0.950 . S
H2133 C2109 0.949 . S
H2134 C2111 0.950 . S
H2135 C2113 0.950 . S
C2136 C2137 1.349 . S
C2136 C2138 1.327 . S
C2136 H2161 0.950 . S
C2137 C2136 1.349 . S
C2137 C2153 1.349 . S
C2138 C2136 1.327 . S
C2138 C2157 1.429 . S
C2138 H2162 0.950 . S
C2139 C2156 1.574 . S
C2139 C2158 1.368 . S
C2139 H2163 0.949 . S
H2140 C2144 0.949 . S
C2141 C2142 1.349 . S
C2141 C2143 1.327 . S
C2141 H2164 0.950 . S
C2142 C2141 1.349 . S
C2142 C2154 1.349 . S
C2143 C2141 1.327 . S
C2143 C2159 1.429 . S
C2143 H2165 0.950 . S
C2144 H2140 0.949 . S
C2144 C2152 1.574 . S
C2144 C2160 1.368 . S
H2145 C2153 0.950 . S
H2146 C2151 0.950 . S
H2147 C2152 0.949 . S
H2148 C2154 0.950 . S
H2149 C2155 0.950 . S
H2150 C2156 0.949 . S
C2151 H2146 0.950 . S
C2151 C2153 1.327 . S
C2151 C2157 1.429 . S
C2152 C2144 1.574 . S
C2152 H2147 0.949 . S
C2152 C2158 1.368 . S
C2153 C2137 1.349 . S
C2153 H2145 0.950 . S
C2153 C2151 1.327 . S
C2154 C2142 1.349 . S
C2154 H2148 0.950 . S
C2154 C2155 1.327 . S
C2155 H2149 0.950 . S
C2155 C2154 1.327 . S
C2155 C2159 1.429 . S
C2156 C2139 1.574 . S
C2156 H2150 0.949 . S
C2156 C2160 1.368 . S
C2157 C2138 1.429 . S
C2157 C2151 1.429 . S
C2157 C2158 1.523 . S
C2158 C2139 1.368 . S
C2158 C2152 1.368 . S
C2158 C2157 1.523 . S
C2159 C2143 1.429 . S
C2159 C2155 1.429 . S
C2159 C2160 1.523 . S
C2160 C2144 1.368 . S
C2160 C2156 1.368 . S
C2160 C2159 1.523 . S
H2161 C2136 0.950 . S
H2162 C2138 0.950 . S
H2163 C2139 0.949 . S
H2164 C2141 0.950 . S
H2165 C2143 0.950 . S
C2166 C2167 1.349 . S
C2166 C2168 1.327 . S
C2166 H2191 0.950 . S
C2167 C2166 1.349 . S
C2167 C2183 1.349 . S
C2168 C2166 1.327 . S
C2168 C2187 1.429 . S
C2168 H2192 0.950 . S
C2169 C2186 1.574 . S
C2169 C2188 1.368 . S
C2169 H2193 0.949 . S
H2170 C2174 0.949 . S
C2171 C2172 1.349 . S
C2171 C2173 1.327 . S
C2171 H2194 0.950 . S
C2172 C2171 1.349 . S
C2172 C2184 1.349 . S
C2173 C2171 1.327 . S
C2173 C2189 1.429 . S
C2173 H2195 0.950 . S
C2174 H2170 0.949 . S
C2174 C2182 1.574 . S
C2174 C2190 1.368 . S
H2175 C2183 0.950 . S
H2176 C2181 0.950 . S
H2177 C2182 0.949 . S
H2178 C2184 0.950 . S
H2179 C2185 0.950 . S
H2180 C2186 0.949 . S
C2181 H2176 0.950 . S
C2181 C2183 1.327 . S
C2181 C2187 1.429 . S
C2182 C2174 1.574 . S
C2182 H2177 0.949 . S
C2182 C2188 1.368 . S
C2183 C2167 1.349 . S
C2183 H2175 0.950 . S
C2183 C2181 1.327 . S
C2184 C2172 1.349 . S
C2184 H2178 0.950 . S
C2184 C2185 1.327 . S
C2185 H2179 0.950 . S
C2185 C2184 1.327 . S
C2185 C2189 1.429 . S
C2186 C2169 1.574 . S
C2186 H2180 0.949 . S
C2186 C2190 1.368 . S
C2187 C2168 1.429 . S
C2187 C2181 1.429 . S
C2187 C2188 1.523 . S
C2188 C2169 1.368 . S
C2188 C2182 1.368 . S
C2188 C2187 1.523 . S
C2189 C2173 1.429 . S
C2189 C2185 1.429 . S
C2189 C2190 1.523 . S
C2190 C2174 1.368 . S
C2190 C2186 1.368 . S
C2190 C2189 1.523 . S
H2191 C2166 0.950 . S
H2192 C2168 0.950 . S
H2193 C2169 0.949 . S
H2194 C2171 0.950 . S
H2195 C2173 0.950 . S
C2196 C2197 1.349 . S
C2196 C2198 1.327 . S
C2196 H2221 0.950 . S
C2197 C2196 1.349 . S
C2197 C2213 1.349 . S
C2198 C2196 1.327 . S
C2198 C2217 1.429 . S
C2198 H2222 0.950 . S
C2199 C2216 1.574 . S
C2199 C2218 1.368 . S
C2199 H2223 0.949 . S
H2200 C2204 0.949 . S
C2201 C2202 1.349 . S
C2201 C2203 1.327 . S
C2201 H2224 0.950 . S
C2202 C2201 1.349 . S
C2202 C2214 1.349 . S
C2203 C2201 1.327 . S
C2203 C2219 1.429 . S
C2203 H2225 0.950 . S
C2204 H2200 0.949 . S
C2204 C2212 1.574 . S
C2204 C2220 1.368 . S
H2205 C2213 0.950 . S
H2206 C2211 0.950 . S
H2207 C2212 0.949 . S
H2208 C2214 0.950 . S
H2209 C2215 0.950 . S
H2210 C2216 0.949 . S
C2211 H2206 0.950 . S
C2211 C2213 1.327 . S
C2211 C2217 1.429 . S
C2212 C2204 1.574 . S
C2212 H2207 0.949 . S
C2212 C2218 1.368 . S
C2213 C2197 1.349 . S
C2213 H2205 0.950 . S
C2213 C2211 1.327 . S
C2214 C2202 1.349 . S
C2214 H2208 0.950 . S
C2214 C2215 1.327 . S
C2215 H2209 0.950 . S
C2215 C2214 1.327 . S
C2215 C2219 1.429 . S
C2216 C2199 1.574 . S
C2216 H2210 0.949 . S
C2216 C2220 1.368 . S
C2217 C2198 1.429 . S
C2217 C2211 1.429 . S
C2217 C2218 1.523 . S
C2218 C2199 1.368 . S
C2218 C2212 1.368 . S
C2218 C2217 1.523 . S
C2219 C2203 1.429 . S
C2219 C2215 1.429 . S
C2219 C2220 1.523 . S
C2220 C2204 1.368 . S
C2220 C2216 1.368 . S
C2220 C2219 1.523 . S
H2221 C2196 0.950 . S
H2222 C2198 0.950 . S
H2223 C2199 0.949 . S
H2224 C2201 0.950 . S
H2225 C2203 0.950 . S
C2226 C2227 1.349 . S
C2226 C2228 1.327 . S
C2226 H2251 0.950 . S
C2227 C2226 1.349 . S
C2227 C2243 1.349 . S
C2228 C2226 1.327 . S
C2228 C2247 1.429 . S
C2228 H2252 0.950 . S
C2229 C2246 1.574 . S
C2229 C2248 1.368 . S
C2229 H2253 0.949 . S
H2230 C2234 0.949 . S
C2231 C2232 1.349 . S
C2231 C2233 1.327 . S
C2231 H2254 0.950 . S
C2232 C2231 1.349 . S
C2232 C2244 1.349 . S
C2233 C2231 1.327 . S
C2233 C2249 1.429 . S
C2233 H2255 0.950 . S
C2234 H2230 0.949 . S
C2234 C2242 1.574 . S
C2234 C2250 1.368 . S
H2235 C2243 0.950 . S
H2236 C2241 0.950 . S
H2237 C2242 0.949 . S
H2238 C2244 0.950 . S
H2239 C2245 0.950 . S
H2240 C2246 0.949 . S
C2241 H2236 0.950 . S
C2241 C2243 1.327 . S
C2241 C2247 1.429 . S
C2242 C2234 1.574 . S
C2242 H2237 0.949 . S
C2242 C2248 1.368 . S
C2243 C2227 1.349 . S
C2243 H2235 0.950 . S
C2243 C2241 1.327 . S
C2244 C2232 1.349 . S
C2244 H2238 0.950 . S
C2244 C2245 1.327 . S
C2245 H2239 0.950 . S
C2245 C2244 1.327 . S
C2245 C2249 1.429 . S
C2246 C2229 1.574 . S
C2246 H2240 0.949 . S
C2246 C2250 1.368 . S
C2247 C2228 1.429 . S
C2247 C2241 1.429 . S
C2247 C2248 1.523 . S
C2248 C2229 1.368 . S
C2248 C2242 1.368 . S
C2248 C2247 1.523 . S
C2249 C2233 1.429 . S
C2249 C2245 1.429 . S
C2249 C2250 1.523 . S
C2250 C2234 1.368 . S
C2250 C2246 1.368 . S
C2250 C2249 1.523 . S
H2251 C2226 0.950 . S
H2252 C2228 0.950 . S
H2253 C2229 0.949 . S
H2254 C2231 0.950 . S
H2255 C2233 0.950 . S
C2256 C2257 1.349 . S
C2256 C2258 1.327 . S
C2256 H2281 0.950 . S
C2257 C2256 1.349 . S
C2257 C2273 1.349 . S
C2258 C2256 1.327 . S
C2258 C2277 1.429 . S
C2258 H2282 0.950 . S
C2259 C2276 1.574 . S
C2259 C2278 1.368 . S
C2259 H2283 0.949 . S
H2260 C2264 0.949 . S
C2261 C2262 1.349 . S
C2261 C2263 1.327 . S
C2261 H2284 0.950 . S
C2262 C2261 1.349 . S
C2262 C2274 1.349 . S
C2263 C2261 1.327 . S
C2263 C2279 1.429 . S
C2263 H2285 0.950 . S
C2264 H2260 0.949 . S
C2264 C2272 1.574 . S
C2264 C2280 1.368 . S
H2265 C2273 0.950 . S
H2266 C2271 0.950 . S
H2267 C2272 0.949 . S
H2268 C2274 0.950 . S
H2269 C2275 0.950 . S
H2270 C2276 0.949 . S
C2271 H2266 0.950 . S
C2271 C2273 1.327 . S
C2271 C2277 1.429 . S
C2272 C2264 1.574 . S
C2272 H2267 0.949 . S
C2272 C2278 1.368 . S
C2273 C2257 1.349 . S
C2273 H2265 0.950 . S
C2273 C2271 1.327 . S
C2274 C2262 1.349 . S
C2274 H2268 0.950 . S
C2274 C2275 1.327 . S
C2275 H2269 0.950 . S
C2275 C2274 1.327 . S
C2275 C2279 1.429 . S
C2276 C2259 1.574 . S
C2276 H2270 0.949 . S
C2276 C2280 1.368 . S
C2277 C2258 1.429 . S
C2277 C2271 1.429 . S
C2277 C2278 1.523 . S
C2278 C2259 1.368 . S
C2278 C2272 1.368 . S
C2278 C2277 1.523 . S
C2279 C2263 1.429 . S
C2279 C2275 1.429 . S
C2279 C2280 1.523 . S
C2280 C2264 1.368 . S
C2280 C2276 1.368 . S
C2280 C2279 1.523 . S
H2281 C2256 0.950 . S
H2282 C2258 0.950 . S
H2283 C2259 0.949 . S
H2284 C2261 0.950 . S
H2285 C2263 0.950 . S
C2286 C2287 1.349 . S
C2286 C2288 1.327 . S
C2286 H2311 0.950 . S
C2287 C2286 1.349 . S
C2287 C2303 1.349 . S
C2288 C2286 1.327 . S
C2288 C2307 1.429 . S
C2288 H2312 0.950 . S
C2289 C2306 1.574 . S
C2289 C2308 1.368 . S
C2289 H2313 0.949 . S
H2290 C2294 0.949 . S
C2291 C2292 1.349 . S
C2291 C2293 1.327 . S
C2291 H2314 0.950 . S
C2292 C2291 1.349 . S
C2292 C2304 1.349 . S
C2293 C2291 1.327 . S
C2293 C2309 1.429 . S
C2293 H2315 0.950 . S
C2294 H2290 0.949 . S
C2294 C2302 1.574 . S
C2294 C2310 1.368 . S
H2295 C2303 0.950 . S
H2296 C2301 0.950 . S
H2297 C2302 0.949 . S
H2298 C2304 0.950 . S
H2299 C2305 0.950 . S
H2300 C2306 0.949 . S
C2301 H2296 0.950 . S
C2301 C2303 1.327 . S
C2301 C2307 1.429 . S
C2302 C2294 1.574 . S
C2302 H2297 0.949 . S
C2302 C2308 1.368 . S
C2303 C2287 1.349 . S
C2303 H2295 0.950 . S
C2303 C2301 1.327 . S
C2304 C2292 1.349 . S
C2304 H2298 0.950 . S
C2304 C2305 1.327 . S
C2305 H2299 0.950 . S
C2305 C2304 1.327 . S
C2305 C2309 1.429 . S
C2306 C2289 1.574 . S
C2306 H2300 0.949 . S
C2306 C2310 1.368 . S
C2307 C2288 1.429 . S
C2307 C2301 1.429 . S
C2307 C2308 1.523 . S
C2308 C2289 1.368 . S
C2308 C2302 1.368 . S
C2308 C2307 1.523 . S
C2309 C2293 1.429 . S
C2309 C2305 1.429 . S
C2309 C2310 1.523 . S
C2310 C2294 1.368 . S
C2310 C2306 1.368 . S
C2310 C2309 1.523 . S
H2311 C2286 0.950 . S
H2312 C2288 0.950 . S
H2313 C2289 0.949 . S
H2314 C2291 0.950 . S
H2315 C2293 0.950 . S
C2316 C2317 1.349 . S
C2316 C2318 1.327 . S
C2316 H2341 0.950 . S
C2317 C2316 1.349 . S
C2317 C2333 1.349 . S
C2318 C2316 1.327 . S
C2318 C2337 1.429 . S
C2318 H2342 0.950 . S
C2319 C2336 1.574 . S
C2319 C2338 1.368 . S
C2319 H2343 0.949 . S
H2320 C2324 0.949 . S
C2321 C2322 1.349 . S
C2321 C2323 1.327 . S
C2321 H2344 0.950 . S
C2322 C2321 1.349 . S
C2322 C2334 1.349 . S
C2323 C2321 1.327 . S
C2323 C2339 1.429 . S
C2323 H2345 0.950 . S
C2324 H2320 0.949 . S
C2324 C2332 1.574 . S
C2324 C2340 1.368 . S
H2325 C2333 0.950 . S
H2326 C2331 0.950 . S
H2327 C2332 0.949 . S
H2328 C2334 0.950 . S
H2329 C2335 0.950 . S
H2330 C2336 0.949 . S
C2331 H2326 0.950 . S
C2331 C2333 1.327 . S
C2331 C2337 1.429 . S
C2332 C2324 1.574 . S
C2332 H2327 0.949 . S
C2332 C2338 1.368 . S
C2333 C2317 1.349 . S
C2333 H2325 0.950 . S
C2333 C2331 1.327 . S
C2334 C2322 1.349 . S
C2334 H2328 0.950 . S
C2334 C2335 1.327 . S
C2335 H2329 0.950 . S
C2335 C2334 1.327 . S
C2335 C2339 1.429 . S
C2336 C2319 1.574 . S
C2336 H2330 0.949 . S
C2336 C2340 1.368 . S
C2337 C2318 1.429 . S
C2337 C2331 1.429 . S
C2337 C2338 1.523 . S
C2338 C2319 1.368 . S
C2338 C2332 1.368 . S
C2338 C2337 1.523 . S
C2339 C2323 1.429 . S
C2339 C2335 1.429 . S
C2339 C2340 1.523 . S
C2340 C2324 1.368 . S
C2340 C2336 1.368 . S
C2340 C2339 1.523 . S
H2341 C2316 0.950 . S
H2342 C2318 0.950 . S
H2343 C2319 0.949 . S
H2344 C2321 0.950 . S
H2345 C2323 0.950 . S
C2346 C2347 1.349 . S
C2346 C2348 1.327 . S
C2346 H2371 0.950 . S
C2347 C2346 1.349 . S
C2347 C2363 1.349 . S
C2348 C2346 1.327 . S
C2348 C2367 1.429 . S
C2348 H2372 0.950 . S
C2349 C2366 1.574 . S
C2349 C2368 1.368 . S
C2349 H2373 0.949 . S
H2350 C2354 0.949 . S
C2351 C2352 1.349 . S
C2351 C2353 1.327 . S
C2351 H2374 0.950 . S
C2352 C2351 1.349 . S
C2352 C2364 1.349 . S
C2353 C2351 1.327 . S
C2353 C2369 1.429 . S
C2353 H2375 0.950 . S
C2354 H2350 0.949 . S
C2354 C2362 1.574 . S
C2354 C2370 1.368 . S
H2355 C2363 0.950 . S
H2356 C2361 0.950 . S
H2357 C2362 0.949 . S
H2358 C2364 0.950 . S
H2359 C2365 0.950 . S
H2360 C2366 0.949 . S
C2361 H2356 0.950 . S
C2361 C2363 1.327 . S
C2361 C2367 1.429 . S
C2362 C2354 1.574 . S
C2362 H2357 0.949 . S
C2362 C2368 1.368 . S
C2363 C2347 1.349 . S
C2363 H2355 0.950 . S
C2363 C2361 1.327 . S
C2364 C2352 1.349 . S
C2364 H2358 0.950 . S
C2364 C2365 1.327 . S
C2365 H2359 0.950 . S
C2365 C2364 1.327 . S
C2365 C2369 1.429 . S
C2366 C2349 1.574 . S
C2366 H2360 0.949 . S
C2366 C2370 1.368 . S
C2367 C2348 1.429 . S
C2367 C2361 1.429 . S
C2367 C2368 1.523 . S
C2368 C2349 1.368 . S
C2368 C2362 1.368 . S
C2368 C2367 1.523 . S
C2369 C2353 1.429 . S
C2369 C2365 1.429 . S
C2369 C2370 1.523 . S
C2370 C2354 1.368 . S
C2370 C2366 1.368 . S
C2370 C2369 1.523 . S
H2371 C2346 0.950 . S
H2372 C2348 0.950 . S
H2373 C2349 0.949 . S
H2374 C2351 0.950 . S
H2375 C2353 0.950 . S
C2376 C2377 1.349 . S
C2376 C2378 1.327 . S
C2376 H2401 0.950 . S
C2377 C2376 1.349 . S
C2377 C2393 1.349 . S
C2378 C2376 1.327 . S
C2378 C2397 1.429 . S
C2378 H2402 0.950 . S
C2379 C2396 1.574 . S
C2379 C2398 1.368 . S
C2379 H2403 0.949 . S
H2380 C2384 0.949 . S
C2381 C2382 1.349 . S
C2381 C2383 1.327 . S
C2381 H2404 0.950 . S
C2382 C2381 1.349 . S
C2382 C2394 1.349 . S
C2383 C2381 1.327 . S
C2383 C2399 1.429 . S
C2383 H2405 0.950 . S
C2384 H2380 0.949 . S
C2384 C2392 1.574 . S
C2384 C2400 1.368 . S
H2385 C2393 0.950 . S
H2386 C2391 0.950 . S
H2387 C2392 0.949 . S
H2388 C2394 0.950 . S
H2389 C2395 0.950 . S
H2390 C2396 0.949 . S
C2391 H2386 0.950 . S
C2391 C2393 1.327 . S
C2391 C2397 1.429 . S
C2392 C2384 1.574 . S
C2392 H2387 0.949 . S
C2392 C2398 1.368 . S
C2393 C2377 1.349 . S
C2393 H2385 0.950 . S
C2393 C2391 1.327 . S
C2394 C2382 1.349 . S
C2394 H2388 0.950 . S
C2394 C2395 1.327 . S
C2395 H2389 0.950 . S
C2395 C2394 1.327 . S
C2395 C2399 1.429 . S
C2396 C2379 1.574 . S
C2396 H2390 0.949 . S
C2396 C2400 1.368 . S
C2397 C2378 1.429 . S
C2397 C2391 1.429 . S
C2397 C2398 1.523 . S
C2398 C2379 1.368 . S
C2398 C2392 1.368 . S
C2398 C2397 1.523 . S
C2399 C2383 1.429 . S
C2399 C2395 1.429 . S
C2399 C2400 1.523 . S
C2400 C2384 1.368 . S
C2400 C2396 1.368 . S
C2400 C2399 1.523 . S
H2401 C2376 0.950 . S
H2402 C2378 0.950 . S
H2403 C2379 0.949 . S
H2404 C2381 0.950 . S
H2405 C2383 0.950 . S
C2406 C2407 1.349 . S
C2406 C2408 1.327 . S
C2406 H2431 0.950 . S
C2407 C2406 1.349 . S
C2407 C2423 1.349 . S
C2408 C2406 1.327 . S
C2408 C2427 1.429 . S
C2408 H2432 0.950 . S
C2409 C2426 1.574 . S
C2409 C2428 1.368 . S
C2409 H2433 0.949 . S
H2410 C2414 0.949 . S
C2411 C2412 1.349 . S
C2411 C2413 1.327 . S
C2411 H2434 0.950 . S
C2412 C2411 1.349 . S
C2412 C2424 1.349 . S
C2413 C2411 1.327 . S
C2413 C2429 1.429 . S
C2413 H2435 0.950 . S
C2414 H2410 0.949 . S
C2414 C2422 1.574 . S
C2414 C2430 1.368 . S
H2415 C2423 0.950 . S
H2416 C2421 0.950 . S
H2417 C2422 0.949 . S
H2418 C2424 0.950 . S
H2419 C2425 0.950 . S
H2420 C2426 0.949 . S
C2421 H2416 0.950 . S
C2421 C2423 1.327 . S
C2421 C2427 1.429 . S
C2422 C2414 1.574 . S
C2422 H2417 0.949 . S
C2422 C2428 1.368 . S
C2423 C2407 1.349 . S
C2423 H2415 0.950 . S
C2423 C2421 1.327 . S
C2424 C2412 1.349 . S
C2424 H2418 0.950 . S
C2424 C2425 1.327 . S
C2425 H2419 0.950 . S
C2425 C2424 1.327 . S
C2425 C2429 1.429 . S
C2426 C2409 1.574 . S
C2426 H2420 0.949 . S
C2426 C2430 1.368 . S
C2427 C2408 1.429 . S
C2427 C2421 1.429 . S
C2427 C2428 1.523 . S
C2428 C2409 1.368 . S
C2428 C2422 1.368 . S
C2428 C2427 1.523 . S
C2429 C2413 1.429 . S
C2429 C2425 1.429 . S
C2429 C2430 1.523 . S
C2430 C2414 1.368 . S
C2430 C2426 1.368 . S
C2430 C2429 1.523 . S
H2431 C2406 0.950 . S
H2432 C2408 0.950 . S
H2433 C2409 0.949 . S
H2434 C2411 0.950 . S
H2435 C2413 0.950 . S
C2436 C2437 1.349 . S
C2436 C2438 1.327 . S
C2436 H2461 0.950 . S
C2437 C2436 1.349 . S
C2437 C2453 1.349 . S
C2438 C2436 1.327 . S
C2438 C2457 1.429 . S
C2438 H2462 0.950 . S
C2439 C2456 1.574 . S
C2439 C2458 1.368 . S
C2439 H2463 0.949 . S
H2440 C2444 0.949 . S
C2441 C2442 1.349 . S
C2441 C2443 1.327 . S
C2441 H2464 0.950 . S
C2442 C2441 1.349 . S
C2442 C2454 1.349 . S
C2443 C2441 1.327 . S
C2443 C2459 1.429 . S
C2443 H2465 0.950 . S
C2444 H2440 0.949 . S
C2444 C2452 1.574 . S
C2444 C2460 1.368 . S
H2445 C2453 0.950 . S
H2446 C2451 0.950 . S
H2447 C2452 0.949 . S
H2448 C2454 0.950 . S
H2449 C2455 0.950 . S
H2450 C2456 0.949 . S
C2451 H2446 0.950 . S
C2451 C2453 1.327 . S
C2451 C2457 1.429 . S
C2452 C2444 1.574 . S
C2452 H2447 0.949 . S
C2452 C2458 1.368 . S
C2453 C2437 1.349 . S
C2453 H2445 0.950 . S
C2453 C2451 1.327 . S
C2454 C2442 1.349 . S
C2454 H2448 0.950 . S
C2454 C2455 1.327 . S
C2455 H2449 0.950 . S
C2455 C2454 1.327 . S
C2455 C2459 1.429 . S
C2456 C2439 1.574 . S
C2456 H2450 0.949 . S
C2456 C2460 1.368 . S
C2457 C2438 1.429 . S
C2457 C2451 1.429 . S
C2457 C2458 1.523 . S
C2458 C2439 1.368 . S
C2458 C2452 1.368 . S
C2458 C2457 1.523 . S
C2459 C2443 1.429 . S
C2459 C2455 1.429 . S
C2459 C2460 1.523 . S
C2460 C2444 1.368 . S
C2460 C2456 1.368 . S
C2460 C2459 1.523 . S
H2461 C2436 0.950 . S
H2462 C2438 0.950 . S
H2463 C2439 0.949 . S
H2464 C2441 0.950 . S
H2465 C2443 0.950 . S
C2466 C2467 1.349 . S
C2466 C2468 1.327 . S
C2466 H2491 0.950 . S
C2467 C2466 1.349 . S
C2467 C2483 1.349 . S
C2468 C2466 1.327 . S
C2468 C2487 1.429 . S
C2468 H2492 0.950 . S
C2469 C2486 1.574 . S
C2469 C2488 1.368 . S
C2469 H2493 0.949 . S
H2470 C2474 0.949 . S
C2471 C2472 1.349 . S
C2471 C2473 1.327 . S
C2471 H2494 0.950 . S
C2472 C2471 1.349 . S
C2472 C2484 1.349 . S
C2473 C2471 1.327 . S
C2473 C2489 1.429 . S
C2473 H2495 0.950 . S
C2474 H2470 0.949 . S
C2474 C2482 1.574 . S
C2474 C2490 1.368 . S
H2475 C2483 0.950 . S
H2476 C2481 0.950 . S
H2477 C2482 0.949 . S
H2478 C2484 0.950 . S
H2479 C2485 0.950 . S
H2480 C2486 0.949 . S
C2481 H2476 0.950 . S
C2481 C2483 1.327 . S
C2481 C2487 1.429 . S
C2482 C2474 1.574 . S
C2482 H2477 0.949 . S
C2482 C2488 1.368 . S
C2483 C2467 1.349 . S
C2483 H2475 0.950 . S
C2483 C2481 1.327 . S
C2484 C2472 1.349 . S
C2484 H2478 0.950 . S
C2484 C2485 1.327 . S
C2485 H2479 0.950 . S
C2485 C2484 1.327 . S
C2485 C2489 1.429 . S
C2486 C2469 1.574 . S
C2486 H2480 0.949 . S
C2486 C2490 1.368 . S
C2487 C2468 1.429 . S
C2487 C2481 1.429 . S
C2487 C2488 1.523 . S
C2488 C2469 1.368 . S
C2488 C2482 1.368 . S
C2488 C2487 1.523 . S
C2489 C2473 1.429 . S
C2489 C2485 1.429 . S
C2489 C2490 1.523 . S
C2490 C2474 1.368 . S
C2490 C2486 1.368 . S
C2490 C2489 1.523 . S
H2491 C2466 0.950 . S
H2492 C2468 0.950 . S
H2493 C2469 0.949 . S
H2494 C2471 0.950 . S
H2495 C2473 0.950 . S
C2496 C2497 1.349 . S
C2496 C2498 1.327 . S
C2496 H2521 0.950 . S
C2497 C2496 1.349 . S
C2497 C2513 1.349 . S
C2498 C2496 1.327 . S
C2498 C2517 1.429 . S
C2498 H2522 0.950 . S
C2499 C2516 1.574 . S
C2499 C2518 1.368 . S
C2499 H2523 0.949 . S
H2500 C2504 0.949 . S
C2501 C2502 1.349 . S
C2501 C2503 1.327 . S
C2501 H2524 0.950 . S
C2502 C2501 1.349 . S
C2502 C2514 1.349 . S
C2503 C2501 1.327 . S
C2503 C2519 1.429 . S
C2503 H2525 0.950 . S
C2504 H2500 0.949 . S
C2504 C2512 1.574 . S
C2504 C2520 1.368 . S
H2505 C2513 0.950 . S
H2506 C2511 0.950 . S
H2507 C2512 0.949 . S
H2508 C2514 0.950 . S
H2509 C2515 0.950 . S
H2510 C2516 0.949 . S
C2511 H2506 0.950 . S
C2511 C2513 1.327 . S
C2511 C2517 1.429 . S
C2512 C2504 1.574 . S
C2512 H2507 0.949 . S
C2512 C2518 1.368 . S
C2513 C2497 1.349 . S
C2513 H2505 0.950 . S
C2513 C2511 1.327 . S
C2514 C2502 1.349 . S
C2514 H2508 0.950 . S
C2514 C2515 1.327 . S
C2515 H2509 0.950 . S
C2515 C2514 1.327 . S
C2515 C2519 1.429 . S
C2516 C2499 1.574 . S
C2516 H2510 0.949 . S
C2516 C2520 1.368 . S
C2517 C2498 1.429 . S
C2517 C2511 1.429 . S
C2517 C2518 1.523 . S
C2518 C2499 1.368 . S
C2518 C2512 1.368 . S
C2518 C2517 1.523 . S
C2519 C2503 1.429 . S
C2519 C2515 1.429 . S
C2519 C2520 1.523 . S
C2520 C2504 1.368 . S
C2520 C2516 1.368 . S
C2520 C2519 1.523 . S
H2521 C2496 0.950 . S
H2522 C2498 0.950 . S
H2523 C2499 0.949 . S
H2524 C2501 0.950 . S
H2525 C2503 0.950 . S
C2526 C2527 1.349 . S
C2526 C2528 1.327 . S
C2526 H2551 0.950 . S
C2527 C2526 1.349 . S
C2527 C2543 1.349 . S
C2528 C2526 1.327 . S
C2528 C2547 1.429 . S
C2528 H2552 0.950 . S
C2529 C2546 1.574 . S
C2529 C2548 1.368 . S
C2529 H2553 0.949 . S
H2530 C2534 0.949 . S
C2531 C2532 1.349 . S
C2531 C2533 1.327 . S
C2531 H2554 0.950 . S
C2532 C2531 1.349 . S
C2532 C2544 1.349 . S
C2533 C2531 1.327 . S
C2533 C2549 1.429 . S
C2533 H2555 0.950 . S
C2534 H2530 0.949 . S
C2534 C2542 1.574 . S
C2534 C2550 1.368 . S
H2535 C2543 0.950 . S
H2536 C2541 0.950 . S
H2537 C2542 0.949 . S
H2538 C2544 0.950 . S
H2539 C2545 0.950 . S
H2540 C2546 0.949 . S
C2541 H2536 0.950 . S
C2541 C2543 1.327 . S
C2541 C2547 1.429 . S
C2542 C2534 1.574 . S
C2542 H2537 0.949 . S
C2542 C2548 1.368 . S
C2543 C2527 1.349 . S
C2543 H2535 0.950 . S
C2543 C2541 1.327 . S
C2544 C2532 1.349 . S
C2544 H2538 0.950 . S
C2544 C2545 1.327 . S
C2545 H2539 0.950 . S
C2545 C2544 1.327 . S
C2545 C2549 1.429 . S
C2546 C2529 1.574 . S
C2546 H2540 0.949 . S
C2546 C2550 1.368 . S
C2547 C2528 1.429 . S
C2547 C2541 1.429 . S
C2547 C2548 1.523 . S
C2548 C2529 1.368 . S
C2548 C2542 1.368 . S
C2548 C2547 1.523 . S
C2549 C2533 1.429 . S
C2549 C2545 1.429 . S
C2549 C2550 1.523 . S
C2550 C2534 1.368 . S
C2550 C2546 1.368 . S
C2550 C2549 1.523 . S
H2551 C2526 0.950 . S
H2552 C2528 0.950 . S
H2553 C2529 0.949 . S
H2554 C2531 0.950 . S
H2555 C2533 0.950 . S
C2556 C2557 1.349 . S
C2556 C2558 1.327 . S
C2556 H2581 0.950 . S
C2557 C2556 1.349 . S
C2557 C2573 1.349 . S
C2558 C2556 1.327 . S
C2558 C2577 1.429 . S
C2558 H2582 0.950 . S
C2559 C2576 1.574 . S
C2559 C2578 1.368 . S
C2559 H2583 0.949 . S
H2560 C2564 0.949 . S
C2561 C2562 1.349 . S
C2561 C2563 1.327 . S
C2561 H2584 0.950 . S
C2562 C2561 1.349 . S
C2562 C2574 1.349 . S
C2563 C2561 1.327 . S
C2563 C2579 1.429 . S
C2563 H2585 0.950 . S
C2564 H2560 0.949 . S
C2564 C2572 1.574 . S
C2564 C2580 1.368 . S
H2565 C2573 0.950 . S
H2566 C2571 0.950 . S
H2567 C2572 0.949 . S
H2568 C2574 0.950 . S
H2569 C2575 0.950 . S
H2570 C2576 0.949 . S
C2571 H2566 0.950 . S
C2571 C2573 1.327 . S
C2571 C2577 1.429 . S
C2572 C2564 1.574 . S
C2572 H2567 0.949 . S
C2572 C2578 1.368 . S
C2573 C2557 1.349 . S
C2573 H2565 0.950 . S
C2573 C2571 1.327 . S
C2574 C2562 1.349 . S
C2574 H2568 0.950 . S
C2574 C2575 1.327 . S
C2575 H2569 0.950 . S
C2575 C2574 1.327 . S
C2575 C2579 1.429 . S
C2576 C2559 1.574 . S
C2576 H2570 0.949 . S
C2576 C2580 1.368 . S
C2577 C2558 1.429 . S
C2577 C2571 1.429 . S
C2577 C2578 1.523 . S
C2578 C2559 1.368 . S
C2578 C2572 1.368 . S
C2578 C2577 1.523 . S
C2579 C2563 1.429 . S
C2579 C2575 1.429 . S
C2579 C2580 1.523 . S
C2580 C2564 1.368 . S
C2580 C2576 1.368 . S
C2580 C2579 1.523 . S
H2581 C2556 0.950 . S
H2582 C2558 0.950 . S
H2583 C2559 0.949 . S
H2584 C2561 0.950 . S
H2585 C2563 0.950 . S
C2586 C2587 1.349 . S
C2586 C2588 1.327 . S
C2586 H2611 0.950 . S
C2587 C2586 1.349 . S
C2587 C2603 1.349 . S
C2588 C2586 1.327 . S
C2588 C2607 1.429 . S
C2588 H2612 0.950 . S
C2589 C2606 1.574 . S
C2589 C2608 1.368 . S
C2589 H2613 0.949 . S
H2590 C2594 0.949 . S
C2591 C2592 1.349 . S
C2591 C2593 1.327 . S
C2591 H2614 0.950 . S
C2592 C2591 1.349 . S
C2592 C2604 1.349 . S
C2593 C2591 1.327 . S
C2593 C2609 1.429 . S
C2593 H2615 0.950 . S
C2594 H2590 0.949 . S
C2594 C2602 1.574 . S
C2594 C2610 1.368 . S
H2595 C2603 0.950 . S
H2596 C2601 0.950 . S
H2597 C2602 0.949 . S
H2598 C2604 0.950 . S
H2599 C2605 0.950 . S
H2600 C2606 0.949 . S
C2601 H2596 0.950 . S
C2601 C2603 1.327 . S
C2601 C2607 1.429 . S
C2602 C2594 1.574 . S
C2602 H2597 0.949 . S
C2602 C2608 1.368 . S
C2603 C2587 1.349 . S
C2603 H2595 0.950 . S
C2603 C2601 1.327 . S
C2604 C2592 1.349 . S
C2604 H2598 0.950 . S
C2604 C2605 1.327 . S
C2605 H2599 0.950 . S
C2605 C2604 1.327 . S
C2605 C2609 1.429 . S
C2606 C2589 1.574 . S
C2606 H2600 0.949 . S
C2606 C2610 1.368 . S
C2607 C2588 1.429 . S
C2607 C2601 1.429 . S
C2607 C2608 1.523 . S
C2608 C2589 1.368 . S
C2608 C2602 1.368 . S
C2608 C2607 1.523 . S
C2609 C2593 1.429 . S
C2609 C2605 1.429 . S
C2609 C2610 1.523 . S
C2610 C2594 1.368 . S
C2610 C2606 1.368 . S
C2610 C2609 1.523 . S
H2611 C2586 0.950 . S
H2612 C2588 0.950 . S
H2613 C2589 0.949 . S
H2614 C2591 0.950 . S
H2615 C2593 0.950 . S
C2616 C2617 1.349 . S
C2616 C2618 1.327 . S
C2616 H2641 0.950 . S
C2617 C2616 1.349 . S
C2617 C2633 1.349 . S
C2618 C2616 1.327 . S
C2618 C2637 1.429 . S
C2618 H2642 0.950 . S
C2619 C2636 1.574 . S
C2619 C2638 1.368 . S
C2619 H2643 0.949 . S
H2620 C2624 0.949 . S
C2621 C2622 1.349 . S
C2621 C2623 1.327 . S
C2621 H2644 0.950 . S
C2622 C2621 1.349 . S
C2622 C2634 1.349 . S
C2623 C2621 1.327 . S
C2623 C2639 1.429 . S
C2623 H2645 0.950 . S
C2624 H2620 0.949 . S
C2624 C2632 1.574 . S
C2624 C2640 1.368 . S
H2625 C2633 0.950 . S
H2626 C2631 0.950 . S
H2627 C2632 0.949 . S
H2628 C2634 0.950 . S
H2629 C2635 0.950 . S
H2630 C2636 0.949 . S
C2631 H2626 0.950 . S
C2631 C2633 1.327 . S
C2631 C2637 1.429 . S
C2632 C2624 1.574 . S
C2632 H2627 0.949 . S
C2632 C2638 1.368 . S
C2633 C2617 1.349 . S
C2633 H2625 0.950 . S
C2633 C2631 1.327 . S
C2634 C2622 1.349 . S
C2634 H2628 0.950 . S
C2634 C2635 1.327 . S
C2635 H2629 0.950 . S
C2635 C2634 1.327 . S
C2635 C2639 1.429 . S
C2636 C2619 1.574 . S
C2636 H2630 0.949 . S
C2636 C2640 1.368 . S
C2637 C2618 1.429 . S
C2637 C2631 1.429 . S
C2637 C2638 1.523 . S
C2638 C2619 1.368 . S
C2638 C2632 1.368 . S
C2638 C2637 1.523 . S
C2639 C2623 1.429 . S
C2639 C2635 1.429 . S
C2639 C2640 1.523 . S
C2640 C2624 1.368 . S
C2640 C2636 1.368 . S
C2640 C2639 1.523 . S
H2641 C2616 0.950 . S
H2642 C2618 0.950 . S
H2643 C2619 0.949 . S
H2644 C2621 0.950 . S
H2645 C2623 0.950 . S
C2646 C2647 1.349 . S
C2646 C2648 1.327 . S
C2646 H2671 0.950 . S
C2647 C2646 1.349 . S
C2647 C2663 1.349 . S
C2648 C2646 1.327 . S
C2648 C2667 1.429 . S
C2648 H2672 0.950 . S
C2649 C2666 1.574 . S
C2649 C2668 1.368 . S
C2649 H2673 0.949 . S
H2650 C2654 0.949 . S
C2651 C2652 1.349 . S
C2651 C2653 1.327 . S
C2651 H2674 0.950 . S
C2652 C2651 1.349 . S
C2652 C2664 1.349 . S
C2653 C2651 1.327 . S
C2653 C2669 1.429 . S
C2653 H2675 0.950 . S
C2654 H2650 0.949 . S
C2654 C2662 1.574 . S
C2654 C2670 1.368 . S
H2655 C2663 0.950 . S
H2656 C2661 0.950 . S
H2657 C2662 0.949 . S
H2658 C2664 0.950 . S
H2659 C2665 0.950 . S
H2660 C2666 0.949 . S
C2661 H2656 0.950 . S
C2661 C2663 1.327 . S
C2661 C2667 1.429 . S
C2662 C2654 1.574 . S
C2662 H2657 0.949 . S
C2662 C2668 1.368 . S
C2663 C2647 1.349 . S
C2663 H2655 0.950 . S
C2663 C2661 1.327 . S
C2664 C2652 1.349 . S
C2664 H2658 0.950 . S
C2664 C2665 1.327 . S
C2665 H2659 0.950 . S
C2665 C2664 1.327 . S
C2665 C2669 1.429 . S
C2666 C2649 1.574 . S
C2666 H2660 0.949 . S
C2666 C2670 1.368 . S
C2667 C2648 1.429 . S
C2667 C2661 1.429 . S
C2667 C2668 1.523 . S
C2668 C2649 1.368 . S
C2668 C2662 1.368 . S
C2668 C2667 1.523 . S
C2669 C2653 1.429 . S
C2669 C2665 1.429 . S
C2669 C2670 1.523 . S
C2670 C2654 1.368 . S
C2670 C2666 1.368 . S
C2670 C2669 1.523 . S
H2671 C2646 0.950 . S
H2672 C2648 0.950 . S
H2673 C2649 0.949 . S
H2674 C2651 0.950 . S
H2675 C2653 0.950 . S
C522 C222 1.029 . S
C517 C212 1.029 . S
C547 C194 1.033 . S
C552 C220 1.033 . S
C582 C221 1.032 . S
C577 C185 1.032 . S
C607 C203 1.028 . S
C612 C223 1.028 . S
C642 C267 1.033 . S
C637 C149 1.033 . S
C672 C327 1.033 . S
C667 C158 1.031 . S
C697 C167 1.028 . S
C702 C266 1.029 . S
C732 C326 1.036 . S
C727 C176 1.035 . S
C757 C113 1.028 . S
C762 C268 1.028 . S
C792 C324 1.032 . S
C787 C122 1.034 . S
C817 C131 1.032 . S
C822 C269 1.032 . S
C847 C140 1.029 . S
C852 C325 1.030 . S
C882 C375 1.027 . S
C877 C104 1.027 . S
C907 C86 1.030 1_554 S
C912 C374 1.031 . S
C937 C77 1.035 1_554 S
C942 C376 1.035 . S
C972 C377 1.031 . S
C967 C95 1.031 1_554 S
C997 C41 1.028 1_455 S
C1002 C418 1.028 . S
C1027 C50 1.030 1_545 S
C1032 C477 1.030 . S
C1057 C59 1.028 1_455 S
C1062 C416 1.028 . S
C1087 C68 1.033 1_545 S
C1092 C476 1.034 . S
C1122 C417 1.033 . S
C1117 C5 1.032 1_455 S
C1152 C474 1.034 . S
C1147 C14 1.034 . S
C1177 C23 1.032 . S
C1182 C419 1.032 . S
C1212 C475 1.031 . S
C1207 C32 1.030 . S
C1242 C219 1.531 . S
C1237 C4 1.478 . S
C1267 C16 1.466 . S
C1272 C225 1.527 . S
C1297 C22 1.479 . S
C1302 C217 1.532 . S
C1327 C31 1.482 . S
C1332 C224 1.535 . S
C1357 C40 1.477 . S
C1362 C216 1.530 . S
C1392 C226 1.535 . S
C1387 C49 1.482 . S
C1417 C61 1.458 1_455 S
C1422 C218 1.519 . S
C1452 C227 1.527 . S
C1447 C70 1.466 . S
C1482 C273 1.524 . S
C1477 C34 1.463 . S
C1507 C7 1.464 1_455 S
C1512 C316 1.524 . S
C1542 C271 1.538 . S
C1537 C13 1.485 . S
C1572 C318 1.524 . S
C1567 C25 1.461 . S
C1597 C52 1.463 . S
C1602 C272 1.524 . S
C1632 C317 1.532 . S
C1627 C58 1.481 . S
C1662 C270 1.537 . S
C1657 C67 1.484 . S
C1692 C319 1.520 . S
C1687 C43 1.461 1_455 S
C1722 C323 1.538 . S
C1717 C76 1.485 1_554 S
C1747 C88 1.465 1_554 S
C1752 C322 1.526 . S
C1782 C274 1.522 . S
C1777 C79 1.461 1_554 S
C1812 C321 1.522 . S
C1807 C97 1.461 1_554 S
C1837 C103 1.477 . S
C1842 C277 1.530 . S
C1867 C106 1.460 . S
C1872 C320 1.521 . S
C1902 C276 1.529 . S
C1897 C85 1.476 1_554 S
C1932 C275 1.533 . S
C1927 C94 1.480 1_554 S
C1962 C369 1.529 . S
C1957 C112 1.476 . S
C1992 C372 1.527 . S
C1987 C124 1.466 . S
C2017 C133 1.462 . S
C2022 C368 1.522 . S
C2052 C370 1.535 . S
C2047 C139 1.482 . S
C2082 C366 1.533 . S
C2077 C148 1.480 . S
C2107 C157 1.482 . S
C2112 C371 1.535 . S
C2137 C169 1.457 . S
C2142 C367 1.518 . S
C2172 C373 1.527 . S
C2167 C178 1.466 . S
C2202 C427 1.521 . S
C2197 C142 1.460 . S
C2227 C115 1.462 . S
C2232 C466 1.522 . S
C2262 C426 1.535 . S
C2257 C121 1.482 . S
C2292 C468 1.533 . S
C2287 C130 1.480 . S
C2322 C425 1.526 . S
C2317 C160 1.465 . S
C2347 C166 1.480 . S
C2352 C467 1.533 . S
C2382 C424 1.539 . S
C2377 C175 1.486 . S
C2412 C469 1.523 . S
C2407 C151 1.462 . S
C2442 C473 1.537 . S
C2437 C184 1.484 . S
C2467 C196 1.464 . S
C2472 C472 1.525 . S
C2502 C420 1.520 . S
C2497 C187 1.459 . S
C2527 C205 1.461 . S
C2532 C471 1.522 . S
C2562 C423 1.532 . S
C2557 C211 1.479 . S
C2592 C470 1.520 . S
C2587 C214 1.459 . S
C2622 C421 1.531 . S
C2617 C193 1.478 . S
C2647 C202 1.478 . S
C2652 C422 1.531 . S
