# Generated by pormake.
# Topology pyr, (3,6)-cn, num edge types: 1
# Building blocks:
#     Node 0, Type 0, BuildingBlock: VETTIZ_charged_linker_0, # of connection points: 3
#     Node 1, Type 0, BuildingBlock: VETTIZ_charged_linker_0, # of connection points: 3
#     Node 2, Type 0, BuildingBlock: VETTIZ_charged_linker_0, # of connection points: 3
#     Node 3, Type 0, BuildingBlock: VETTIZ_charged_linker_0, # of connection points: 3
#     Node 4, Type 0, BuildingBlock: VETTIZ_charged_linker_0, # of connection points: 3
#     Node 5, Type 0, BuildingBlock: VETTIZ_charged_linker_0, # of connection points: 3
#     Node 6, Type 0, BuildingBlock: VETTIZ_charged_linker_0, # of connection points: 3
#     Node 7, Type 0, BuildingBlock: VETTIZ_charged_linker_0, # of connection points: 3
#     Node 8, Type 1, BuildingBlock: BETFAJ_clean_sbu_0, # of connection points: 6
#     Node 9, Type 1, BuildingBlock: BETFAJ_clean_sbu_0, # of connection points: 6
#     Node 10, Type 1, BuildingBlock: BETFAJ_clean_sbu_0, # of connection points: 6
#     Node 11, Type 1, BuildingBlock: BETFAJ_clean_sbu_0, # of connection points: 6
#     Edge 12, Type (0, 1), BuildingBlock: KIFKEQ_clean_linker_1, # of connection points: 2
#     Edge 13, Type (0, 1), BuildingBlock: KIFKEQ_clean_linker_1, # of connection points: 2
#     Edge 14, Type (0, 1), BuildingBlock: KIFKEQ_clean_linker_1, # of connection points: 2
#     Edge 15, Type (0, 1), BuildingBlock: KIFKEQ_clean_linker_1, # of connection points: 2
#     Edge 16, Type (0, 1), BuildingBlock: KIFKEQ_clean_linker_1, # of connection points: 2
#     Edge 17, Type (0, 1), BuildingBlock: KIFKEQ_clean_linker_1, # of connection points: 2
#     Edge 18, Type (0, 1), BuildingBlock: KIFKEQ_clean_linker_1, # of connection points: 2
#     Edge 19, Type (0, 1), BuildingBlock: KIFKEQ_clean_linker_1, # of connection points: 2
#     Edge 20, Type (0, 1), BuildingBlock: KIFKEQ_clean_linker_1, # of connection points: 2
#     Edge 21, Type (0, 1), BuildingBlock: KIFKEQ_clean_linker_1, # of connection points: 2
#     Edge 22, Type (0, 1), BuildingBlock: KIFKEQ_clean_linker_1, # of connection points: 2
#     Edge 23, Type (0, 1), BuildingBlock: KIFKEQ_clean_linker_1, # of connection points: 2
#     Edge 24, Type (0, 1), BuildingBlock: KIFKEQ_clean_linker_1, # of connection points: 2
#     Edge 25, Type (0, 1), BuildingBlock: KIFKEQ_clean_linker_1, # of connection points: 2
#     Edge 26, Type (0, 1), BuildingBlock: KIFKEQ_clean_linker_1, # of connection points: 2
#     Edge 27, Type (0, 1), BuildingBlock: KIFKEQ_clean_linker_1, # of connection points: 2
#     Edge 28, Type (0, 1), BuildingBlock: KIFKEQ_clean_linker_1, # of connection points: 2
#     Edge 29, Type (0, 1), BuildingBlock: KIFKEQ_clean_linker_1, # of connection points: 2
#     Edge 30, Type (0, 1), BuildingBlock: KIFKEQ_clean_linker_1, # of connection points: 2
#     Edge 31, Type (0, 1), BuildingBlock: KIFKEQ_clean_linker_1, # of connection points: 2
#     Edge 32, Type (0, 1), BuildingBlock: KIFKEQ_clean_linker_1, # of connection points: 2
#     Edge 33, Type (0, 1), BuildingBlock: KIFKEQ_clean_linker_1, # of connection points: 2
#     Edge 34, Type (0, 1), BuildingBlock: KIFKEQ_clean_linker_1, # of connection points: 2
#     Edge 35, Type (0, 1), BuildingBlock: KIFKEQ_clean_linker_1, # of connection points: 2
# Relax obj value: 0.094
# Max RMSD: 0.121
# Mean RMSD: 0.058
data_MOF--net-pyr--node1-BETFAJ_clean_sbu_0--node2-VETTIZ_charged_linker_0--edge1-KIFKEQ_clean_linker_1
_symmetry_space_group_name_H-M    P1
_symmetry_Int_Tables_number       1
_symmetry_cell_setting            triclinic
loop_
_symmetry_equiv_pos_as_xyz
'x, y, z'
_cell_length_a     47.083589
_cell_length_b     48.589612
_cell_length_c     44.090496
_cell_angle_alpha  90.491859
_cell_angle_beta   88.844524
_cell_angle_gamma 100.3752
loop_
_atom_site_label
_atom_site_type_symbol
_atom_site_fract_x
_atom_site_fract_y
_atom_site_fract_z
_atom_type_partial_charge
C0 C 0.29079 0.26389 0.3345 0.0
C1 C 0.26634 0.27457 0.3446 0.0
C2 C 0.25918 0.29779 0.32948 0.0
C3 C 0.2959 0.2947 0.29102 0.0
C4 C 0.30487 0.27385 0.30742 0.0
C5 C 0.32748 0.26115 0.29049 0.0
H6 H 0.39028 0.23714 0.15662 0.0
C7 C 0.31054 0.29617 0.26099 0.0
C8 C 0.32919 0.27667 0.26053 0.0
H9 H 0.40274 0.20259 0.24441 0.0
H10 H 0.37382 0.23322 0.26819 0.0
H11 H 0.39688 0.30367 0.18147 0.0
H12 H 0.32458 0.23747 0.16476 0.0
H13 H 0.31537 0.26878 0.15209 0.0
H14 H 0.34543 0.25611 0.13443 0.0
H15 H 0.38696 0.29123 0.144 0.0
H16 H 0.3704 0.31783 0.16234 0.0
C17 C 0.35611 0.26819 0.30801 0.0
C18 C 0.31582 0.22937 0.28662 0.0
C19 C 0.27516 0.35277 0.17842 0.0
C20 C 0.27922 0.35364 0.1468 0.0
C21 C 0.29944 0.33893 0.1333 0.0
C22 C 0.31498 0.32315 0.1511 0.0
C23 C 0.30978 0.32158 0.18264 0.0
C24 C 0.29028 0.33648 0.19575 0.0
C25 C 0.28556 0.33074 0.22905 0.0
C26 C 0.30584 0.3103 0.23401 0.0
C27 C 0.32005 0.30501 0.20683 0.0
C28 C 0.2954 0.35846 0.24654 0.0
C29 C 0.25329 0.31727 0.23455 0.0
C30 C 0.38711 0.23649 0.18102 0.0
C31 C 0.39844 0.21712 0.19863 0.0
C32 C 0.39374 0.21689 0.2303 0.0
C33 C 0.37701 0.23473 0.24407 0.0
C34 C 0.36437 0.25272 0.22599 0.0
C35 C 0.37021 0.25406 0.19515 0.0
C36 C 0.35513 0.2748 0.17973 0.0
C37 C 0.33919 0.28547 0.20641 0.0
C38 C 0.34429 0.272 0.23331 0.0
C39 C 0.37839 0.29812 0.16589 0.0
C40 C 0.33412 0.25871 0.15633 0.0
H41 H 0.26668 0.32488 0.29171 0.0
H42 H 0.29736 0.24655 0.34604 0.0
H43 H 0.29258 0.22563 0.28066 0.0
H44 H 0.32659 0.21952 0.26819 0.0
H45 H 0.31783 0.21792 0.30794 0.0
H46 H 0.35738 0.28799 0.3212 0.0
H47 H 0.35823 0.25137 0.32426 0.0
H48 H 0.3753 0.27188 0.29266 0.0
H49 H 0.25921 0.36325 0.18936 0.0
H50 H 0.30287 0.33934 0.10893 0.0
H51 H 0.32985 0.31215 0.13952 0.0
H52 H 0.31597 0.37014 0.23667 0.0
H53 H 0.27897 0.37219 0.24535 0.0
H54 H 0.29992 0.35514 0.2706 0.0
H55 H 0.24271 0.30866 0.2133 0.0
H56 H 0.25059 0.29906 0.24991 0.0
H57 H 0.24066 0.33275 0.24385 0.0
H58 H 0.24058 0.30663 0.33662 0.0
C59 C 0.27404 0.30807 0.30295 0.0
C60 C 0.21345 0.89811 0.58377 0.0
C61 C 0.20195 0.91513 0.60497 0.0
C62 C 0.21262 0.91741 0.63469 0.0
C63 C 0.24726 0.88799 0.62104 0.0
C64 C 0.23605 0.88482 0.59224 0.0
C65 C 0.2515 0.8668 0.57223 0.0
H66 H 0.36274 0.79733 0.55293 0.0
C67 C 0.27207 0.87339 0.62187 0.0
C68 C 0.27479 0.86102 0.59333 0.0
H69 H 0.2925 0.79902 0.49187 0.0
H70 H 0.27226 0.82975 0.52668 0.0
H71 H 0.37243 0.86315 0.57525 0.0
H72 H 0.32352 0.7859 0.6096 0.0
H73 H 0.33853 0.80521 0.64102 0.0
H74 H 0.36209 0.7945 0.61226 0.0
H75 H 0.38912 0.83685 0.59236 0.0
H76 H 0.3764 0.86357 0.6148 0.0
C77 C 0.2644 0.88422 0.54437 0.0
C78 C 0.22996 0.83978 0.5642 0.0
C79 C 0.33158 0.87859 0.71699 0.0
C80 C 0.35758 0.86985 0.7237 0.0
C81 C 0.37145 0.85598 0.70124 0.0
C82 C 0.35937 0.85067 0.6725 0.0
C83 C 0.33331 0.85959 0.66611 0.0
C84 C 0.32001 0.87346 0.68815 0.0
C85 C 0.29345 0.88291 0.67689 0.0
C86 C 0.29249 0.87168 0.64467 0.0
C87 C 0.31576 0.85797 0.63853 0.0
C88 C 0.29873 0.91539 0.67795 0.0
C89 C 0.26723 0.86846 0.69625 0.0
C90 C 0.34348 0.80505 0.5466 0.0
C91 C 0.32953 0.79651 0.51936 0.0
C92 C 0.30377 0.80581 0.51256 0.0
C93 C 0.29202 0.82339 0.53288 0.0
C94 C 0.30595 0.83117 0.56044 0.0
C95 C 0.33119 0.82187 0.56688 0.0
C96 C 0.34169 0.82982 0.59824 0.0
C97 C 0.31857 0.84547 0.60972 0.0
C98 C 0.29797 0.84662 0.58737 0.0
C99 C 0.37156 0.84922 0.59528 0.0
C100 C 0.34173 0.8026 0.61637 0.0
H101 H 0.2426 0.90682 0.66567 0.0
H102 H 0.20579 0.89598 0.56072 0.0
H103 H 0.21274 0.83467 0.58197 0.0
H104 H 0.24038 0.82111 0.56301 0.0
H105 H 0.2192 0.842 0.54239 0.0
H106 H 0.27503 0.90554 0.55155 0.0
H107 H 0.24728 0.88655 0.52811 0.0
H108 H 0.2812 0.87515 0.53213 0.0
H109 H 0.32087 0.88997 0.7336 0.0
H110 H 0.39161 0.84921 0.70599 0.0
H111 H 0.37088 0.83998 0.65633 0.0
H112 H 0.3221 0.92442 0.6753 0.0
H113 H 0.29108 0.92312 0.69987 0.0
H114 H 0.28844 0.92456 0.65914 0.0
H115 H 0.26908 0.84645 0.70123 0.0
H116 H 0.24649 0.86701 0.68457 0.0
H117 H 0.26591 0.87947 0.71827 0.0
H118 H 0.20371 0.92992 0.65162 0.0
C119 C 0.23517 0.90393 0.64283 0.0
C120 C 0.63222 0.2825 0.91303 0.0
C121 C 0.60689 0.26612 0.9015 0.0
C122 C 0.59403 0.27656 0.87631 0.0
C123 C 0.631 0.31867 0.87529 0.0
C124 C 0.64383 0.30835 0.89963 0.0
C125 C 0.67076 0.32783 0.9092 0.0
H126 H 0.76393 0.45084 0.8949 0.0
C127 C 0.64848 0.34643 0.86704 0.0
C128 C 0.67189 0.35171 0.88691 0.0
H129 H 0.76774 0.38245 0.95615 0.0
H130 H 0.72447 0.35634 0.93522 0.0
H131 H 0.69433 0.44784 0.89934 0.0
H132 H 0.74797 0.41097 0.83634 0.0
H133 H 0.7209 0.42226 0.81544 0.0
H134 H 0.7464 0.44759 0.83585 0.0
H135 H 0.71829 0.46817 0.8724 0.0
H136 H 0.68218 0.45191 0.86246 0.0
C137 C 0.66599 0.33728 0.94229 0.0
C138 C 0.6967 0.31245 0.90461 0.0
C139 C 0.61742 0.40464 0.7814 0.0
C140 C 0.62903 0.43127 0.76934 0.0
C141 C 0.65478 0.44609 0.78184 0.0
C142 C 0.66839 0.43505 0.80579 0.0
C143 C 0.6564 0.40869 0.81773 0.0
C144 C 0.63137 0.39385 0.80547 0.0
C145 C 0.62188 0.36605 0.8211 0.0
C146 C 0.64525 0.36672 0.84469 0.0
C147 C 0.66546 0.39187 0.84261 0.0
C148 C 0.59184 0.36594 0.83602 0.0
C149 C 0.62251 0.34248 0.79741 0.0
C150 C 0.75562 0.43017 0.90372 0.0
C151 C 0.76944 0.41915 0.92782 0.0
C152 C 0.75745 0.39208 0.93837 0.0
C153 C 0.73229 0.37667 0.9259 0.0
C154 C 0.71864 0.38806 0.90223 0.0
C155 C 0.73045 0.41428 0.89129 0.0
C156 C 0.71324 0.42256 0.8654 0.0
C157 C 0.68916 0.39709 0.86284 0.0
C158 C 0.6924 0.37704 0.88467 0.0
C159 C 0.70144 0.44912 0.87509 0.0
C160 C 0.73302 0.42629 0.83667 0.0
H161 H 0.59493 0.3092 0.84425 0.0
H162 H 0.64272 0.27564 0.93247 0.0
H163 H 0.69293 0.29702 0.88566 0.0
H164 H 0.71687 0.32672 0.89801 0.0
H165 H 0.70046 0.30087 0.92533 0.0
H166 H 0.64354 0.34106 0.94582 0.0
H167 H 0.66945 0.32102 0.95869 0.0
H168 H 0.67996 0.35725 0.9483 0.0
H169 H 0.59764 0.3926 0.77268 0.0
H170 H 0.66475 0.46627 0.77286 0.0
H171 H 0.68783 0.44755 0.8141 0.0
H172 H 0.59085 0.3866 0.84667 0.0
H173 H 0.57455 0.36169 0.81893 0.0
H174 H 0.58674 0.35061 0.85451 0.0
H175 H 0.64137 0.34793 0.7816 0.0
H176 H 0.62505 0.32248 0.80774 0.0
H177 H 0.60267 0.33905 0.78364 0.0
H178 H 0.57489 0.26446 0.86633 0.0
C179 C 0.60584 0.30259 0.86328 0.0
C180 C 0.90976 0.79427 0.39096 0.0
C181 C 0.89887 0.80858 0.41547 0.0
C182 C 0.87158 0.79704 0.42806 0.0
C183 C 0.86737 0.7572 0.3939 0.0
C184 C 0.89364 0.76861 0.3806 0.0
C185 C 0.90174 0.75006 0.35523 0.0
H186 H 0.86741 0.62935 0.27245 0.0
C187 C 0.85639 0.73 0.37903 0.0
C188 C 0.87632 0.72555 0.35613 0.0
H189 H 0.94327 0.69388 0.26197 0.0
H190 H 0.9262 0.72023 0.30301 0.0
H191 H 0.87008 0.62748 0.3438 0.0
H192 H 0.82047 0.67069 0.28548 0.0
H193 H 0.79755 0.65359 0.31432 0.0
H194 H 0.81521 0.63323 0.28818 0.0
H195 H 0.83844 0.60953 0.32524 0.0
H196 H 0.83625 0.62653 0.36159 0.0
C197 C 0.9304 0.74086 0.36334 0.0
C198 C 0.90317 0.76649 0.32521 0.0
C199 C 0.7626 0.67135 0.41871 0.0
C200 C 0.74748 0.64426 0.41203 0.0
C201 C 0.75861 0.62904 0.38848 0.0
C202 C 0.78396 0.64046 0.37219 0.0
C203 C 0.79885 0.66739 0.37951 0.0
C204 C 0.78812 0.68222 0.40259 0.0
C205 C 0.80726 0.70998 0.40833 0.0
C206 C 0.83126 0.7095 0.38486 0.0
C207 C 0.82617 0.68465 0.36777 0.0
C208 C 0.81837 0.70986 0.44123 0.0
C209 C 0.78974 0.73335 0.40178 0.0
C210 C 0.88062 0.64902 0.27895 0.0
C211 C 0.90686 0.6593 0.26341 0.0
C212 C 0.92277 0.68541 0.27283 0.0
C213 C 0.91292 0.7007 0.29695 0.0
C214 C 0.8868 0.68994 0.31225 0.0
C215 C 0.87121 0.66442 0.30313 0.0
C216 C 0.84437 0.65561 0.32239 0.0
C217 C 0.84598 0.68025 0.34413 0.0
C218 C 0.87093 0.70049 0.33822 0.0
C219 C 0.84711 0.62827 0.33906 0.0
C220 C 0.81787 0.65292 0.30166 0.0
H221 H 0.83549 0.76423 0.42846 0.0
H222 H 0.93055 0.8025 0.38058 0.0
H223 H 0.8851 0.77837 0.32423 0.0
H224 H 0.90086 0.75279 0.30501 0.0
H225 H 0.92374 0.78175 0.32311 0.0
H226 H 0.93042 0.73541 0.3878 0.0
H227 H 0.94911 0.75791 0.35886 0.0
H228 H 0.93391 0.72191 0.35093 0.0
H229 H 0.75483 0.68411 0.43614 0.0
H230 H 0.74807 0.60799 0.3829 0.0
H231 H 0.79115 0.62773 0.35464 0.0
H232 H 0.82113 0.68849 0.44796 0.0
H233 H 0.80298 0.71686 0.45774 0.0
H234 H 0.83995 0.72285 0.44407 0.0
H235 H 0.77449 0.72717 0.38293 0.0
H236 H 0.80346 0.75303 0.39407 0.0
H237 H 0.77681 0.73775 0.42201 0.0
H238 H 0.86213 0.80776 0.44624 0.0
C239 C 0.85594 0.77167 0.41753 0.0
C240 C 0.72309 0.72365 0.93232 0.0
C241 C 0.74247 0.70566 0.92427 0.0
C242 C 0.7495 0.70254 0.89332 0.0
C243 C 0.72221 0.73806 0.87984 0.0
C244 C 0.71308 0.73949 0.90967 0.0
C245 C 0.69341 0.76059 0.91393 0.0
H246 H 0.64025 0.86977 0.85719 0.0
C247 C 0.7116 0.75984 0.86257 0.0
C248 C 0.69405 0.77275 0.88213 0.0
H249 H 0.62342 0.83187 0.9457 0.0
H250 H 0.65124 0.79645 0.93159 0.0
H251 H 0.63446 0.81027 0.81732 0.0
H252 H 0.70335 0.86947 0.85543 0.0
H253 H 0.71913 0.85515 0.82414 0.0
H254 H 0.69022 0.87432 0.81837 0.0
H255 H 0.64557 0.84567 0.80459 0.0
H256 H 0.66257 0.81783 0.78987 0.0
C257 C 0.66294 0.74477 0.92318 0.0
C258 C 0.70708 0.7827 0.9374 0.0
C259 C 0.76062 0.79031 0.7622 0.0
C260 C 0.76186 0.81484 0.74518 0.0
C261 C 0.74063 0.83151 0.75056 0.0
C262 C 0.72031 0.82524 0.77435 0.0
C263 C 0.72159 0.80241 0.79333 0.0
C264 C 0.74092 0.78489 0.78651 0.0
C265 C 0.74107 0.76308 0.81043 0.0
C266 C 0.71917 0.77088 0.83321 0.0
C267 C 0.70784 0.7939 0.82306 0.0
C268 C 0.73059 0.73387 0.79606 0.0
C269 C 0.772 0.76734 0.82341 0.0
C270 C 0.64249 0.85385 0.87357 0.0
C271 C 0.62962 0.85376 0.90264 0.0
C272 C 0.63282 0.83234 0.92304 0.0
C273 C 0.64917 0.81188 0.91491 0.0
C274 C 0.66272 0.81291 0.88616 0.0
C275 C 0.65886 0.83339 0.86588 0.0
C276 C 0.67536 0.83169 0.8366 0.0
C277 C 0.68913 0.80633 0.84232 0.0
C278 C 0.68198 0.79561 0.87155 0.0
C279 C 0.6535 0.82624 0.81053 0.0
C280 C 0.69811 0.85901 0.83316 0.0
H281 H 0.74614 0.71566 0.84817 0.0
H282 H 0.71664 0.72599 0.95578 0.0
H283 H 0.73057 0.78936 0.93245 0.0
H284 H 0.69786 0.80199 0.93715 0.0
H285 H 0.7046 0.77405 0.96074 0.0
H286 H 0.65898 0.72303 0.91402 0.0
H287 H 0.66024 0.7434 0.94824 0.0
H288 H 0.64551 0.75447 0.91379 0.0
H289 H 0.77622 0.77673 0.75824 0.0
H290 H 0.74093 0.85054 0.73786 0.0
H291 H 0.70547 0.83933 0.77811 0.0
H292 H 0.71641 0.73513 0.77642 0.0
H293 H 0.74907 0.72435 0.78776 0.0
H294 H 0.71713 0.7193 0.81201 0.0
H295 H 0.78088 0.79002 0.82634 0.0
H296 H 0.7731 0.75826 0.84601 0.0
H297 H 0.78691 0.75843 0.80788 0.0
H298 H 0.76439 0.68904 0.88625 0.0
C299 C 0.73921 0.71835 0.87113 0.0
C300 C 0.80214 0.17895 0.50828 0.0
C301 C 0.81689 0.16465 0.48703 0.0
C302 C 0.8086 0.16353 0.45646 0.0
C303 C 0.76999 0.1886 0.46905 0.0
C304 C 0.77876 0.19069 0.49883 0.0
C305 C 0.75997 0.20579 0.51853 0.0
H306 H 0.64217 0.26709 0.53105 0.0
C307 C 0.74382 0.20106 0.46701 0.0
C308 C 0.73769 0.21108 0.4959 0.0
H309 H 0.70689 0.26457 0.59857 0.0
H310 H 0.73169 0.23689 0.56448 0.0
H311 H 0.63813 0.20206 0.50487 0.0
H312 H 0.68513 0.28316 0.47917 0.0
H313 H 0.67418 0.26518 0.44553 0.0
H314 H 0.64724 0.27268 0.47244 0.0
H315 H 0.62112 0.22827 0.48805 0.0
H316 H 0.63743 0.20415 0.46512 0.0
C317 C 0.7463 0.18583 0.54415 0.0
C318 C 0.77863 0.23339 0.52991 0.0
C319 C 0.69264 0.19801 0.36677 0.0
C320 C 0.66663 0.20563 0.35801 0.0
C321 C 0.64978 0.21716 0.37979 0.0
C322 C 0.65891 0.22122 0.40986 0.0
C323 C 0.68506 0.21349 0.41823 0.0
C324 C 0.70132 0.20198 0.39681 0.0
C325 C 0.72779 0.19382 0.40986 0.0
C326 C 0.72511 0.20286 0.44262 0.0
C327 C 0.70018 0.21443 0.44738 0.0
C328 C 0.72512 0.16161 0.4066 0.0
C329 C 0.75463 0.21109 0.39367 0.0
C330 C 0.66112 0.25975 0.53897 0.0
C331 C 0.6723 0.26745 0.56774 0.0
C332 C 0.69776 0.25858 0.57662 0.0
C333 C 0.71219 0.24277 0.55671 0.0
C334 C 0.70126 0.23624 0.52752 0.0
C335 C 0.67602 0.24464 0.51921 0.0
C336 C 0.66875 0.23814 0.48661 0.0
C337 C 0.69393 0.22465 0.47652 0.0
C338 C 0.7127 0.22322 0.50061 0.0
C339 C 0.63976 0.21721 0.48585 0.0
C340 C 0.66856 0.26608 0.46989 0.0
H341 H 0.77984 0.17351 0.42386 0.0
H342 H 0.80798 0.18012 0.53195 0.0
H343 H 0.79652 0.24124 0.51357 0.0
H344 H 0.76627 0.25065 0.53201 0.0
H345 H 0.78848 0.23039 0.55204 0.0
H346 H 0.73841 0.1645 0.53492 0.0
H347 H 0.76234 0.18406 0.56184 0.0
H348 H 0.72734 0.19237 0.55516 0.0
H349 H 0.70567 0.1884 0.35074 0.0
H350 H 0.62962 0.22313 0.3735 0.0
H351 H 0.64522 0.23013 0.42542 0.0
H352 H 0.70212 0.15095 0.40692 0.0
H353 H 0.73507 0.15591 0.38493 0.0
H354 H 0.73477 0.15211 0.42564 0.0
H355 H 0.75121 0.23274 0.38913 0.0
H356 H 0.77425 0.21378 0.40749 0.0
H357 H 0.75909 0.20145 0.37155 0.0
H358 H 0.82002 0.15315 0.43956 0.0
C359 C 0.78528 0.17543 0.44737 0.0
C360 C 0.41037 0.68178 0.30435 0.0
C361 C 0.39749 0.65646 0.31845 0.0
C362 C 0.37103 0.64205 0.30723 0.0
C363 C 0.37066 0.6777 0.26893 0.0
C364 C 0.3965 0.69209 0.2799 0.0
C365 C 0.40646 0.71919 0.26302 0.0
H366 H 0.38481 0.80748 0.1497 0.0
C367 C 0.36171 0.69394 0.2435 0.0
C368 C 0.38259 0.71846 0.23998 0.0
H369 H 0.45426 0.81912 0.21398 0.0
H370 H 0.43421 0.77498 0.23736 0.0
H371 H 0.33549 0.78777 0.1982 0.0
H372 H 0.38268 0.74164 0.1379 0.0
H373 H 0.34616 0.72553 0.13694 0.0
H374 H 0.35651 0.7614 0.12508 0.0
H375 H 0.32756 0.78377 0.15862 0.0
H376 H 0.31078 0.75844 0.18628 0.0
C377 C 0.40728 0.7437 0.28582 0.0
C378 C 0.4359 0.71784 0.24745 0.0
C379 C 0.26932 0.65594 0.18603 0.0
C380 C 0.2551 0.6668 0.16225 0.0
C381 C 0.26769 0.69294 0.14987 0.0
C382 C 0.29374 0.70799 0.16083 0.0
C383 C 0.30758 0.69705 0.18471 0.0
C384 C 0.29531 0.67149 0.19702 0.0
C385 C 0.31271 0.66371 0.22297 0.0
C386 C 0.33752 0.68865 0.22394 0.0
C387 C 0.33442 0.70803 0.20133 0.0
C388 C 0.29359 0.6617 0.25218 0.0
C389 C 0.32338 0.63632 0.21427 0.0
C390 C 0.39567 0.80088 0.16901 0.0
C391 C 0.42143 0.81722 0.17965 0.0
C392 C 0.43476 0.80706 0.20468 0.0
C393 C 0.42293 0.78138 0.21851 0.0
C394 C 0.39724 0.76542 0.2075 0.0
C395 C 0.38403 0.77542 0.18322 0.0
C396 C 0.35658 0.75615 0.17477 0.0
C397 C 0.35547 0.73285 0.19778 0.0
C398 C 0.37941 0.73818 0.21696 0.0
C399 C 0.33117 0.77222 0.17942 0.0
C400 C 0.36037 0.74565 0.14191 0.0
H401 H 0.33768 0.64025 0.27529 0.0
H402 H 0.43051 0.69359 0.31254 0.0
H403 H 0.43567 0.69688 0.23699 0.0
H404 H 0.44127 0.73293 0.22877 0.0
H405 H 0.45359 0.72152 0.26412 0.0
H406 H 0.38902 0.73923 0.30251 0.0
H407 H 0.42767 0.74724 0.29869 0.0
H408 H 0.40474 0.76342 0.27486 0.0
H409 H 0.2601 0.63608 0.1963 0.0
H410 H 0.25745 0.70169 0.13138 0.0
H411 H 0.30206 0.72766 0.15025 0.0
H412 H 0.27836 0.67673 0.2516 0.0
H413 H 0.28053 0.64039 0.25489 0.0
H414 H 0.30622 0.66739 0.27288 0.0
H415 H 0.33056 0.63674 0.19005 0.0
H416 H 0.3423 0.63308 0.22722 0.0
H417 H 0.30587 0.61787 0.2174 0.0
H418 H 0.36073 0.62243 0.3173 0.0
C419 C 0.35769 0.6524 0.28265 0.0
C420 C 0.11498 0.29536 0.69967 0.0
C421 C 0.12297 0.28275 0.67263 0.0
C422 C 0.14671 0.29658 0.65543 0.0
C423 C 0.15465 0.33463 0.69209 0.0
C424 C 0.13092 0.32149 0.70877 0.0
C425 C 0.12481 0.33898 0.73587 0.0
H426 H 0.16256 0.45765 0.8207 0.0
C427 C 0.16689 0.36118 0.70764 0.0
C428 C 0.14945 0.36406 0.73333 0.0
H429 H 0.08718 0.39279 0.8324 0.0
H430 H 0.10318 0.367 0.7903 0.0
H431 H 0.1599 0.46002 0.74679 0.0
H432 H 0.20744 0.4165 0.80713 0.0
H433 H 0.23026 0.42803 0.77605 0.0
H434 H 0.21753 0.4534 0.80055 0.0
H435 H 0.1877 0.4777 0.77101 0.0
H436 H 0.19622 0.46473 0.73424 0.0
C437 C 0.09499 0.34747 0.73158 0.0
C438 C 0.12681 0.32194 0.76495 0.0
C439 C 0.25888 0.42063 0.66474 0.0
C440 C 0.27707 0.44505 0.67486 0.0
C441 C 0.26967 0.4577 0.70212 0.0
C442 C 0.24446 0.44646 0.71875 0.0
C443 C 0.22645 0.42205 0.70827 0.0
C444 C 0.23406 0.40942 0.68184 0.0
C445 C 0.21335 0.38288 0.67484 0.0
C446 C 0.19183 0.38171 0.70118 0.0
C447 C 0.19933 0.40487 0.72058 0.0
C448 C 0.1992 0.38666 0.64405 0.0
C449 C 0.2303 0.35833 0.6756 0.0
C450 C 0.14922 0.43806 0.81413 0.0
C451 C 0.12335 0.42755 0.83022 0.0
C452 C 0.10731 0.40147 0.82095 0.0
C453 C 0.11648 0.38657 0.79616 0.0
C454 C 0.14198 0.39773 0.78002 0.0
C455 C 0.15796 0.42303 0.78925 0.0
C456 C 0.18445 0.43187 0.76943 0.0
C457 C 0.18138 0.40818 0.74629 0.0
C458 C 0.15651 0.38801 0.75264 0.0
C459 C 0.18225 0.46015 0.75461 0.0
C460 C 0.21146 0.43276 0.78916 0.0
H461 H 0.18052 0.33146 0.65087 0.0
H462 H 0.09651 0.28538 0.71306 0.0
H463 H 0.14605 0.3116 0.76366 0.0
H464 H 0.12942 0.33506 0.7856 0.0
H465 H 0.10738 0.30537 0.76794 0.0
H466 H 0.09124 0.35105 0.7072 0.0
H467 H 0.07723 0.33085 0.73985 0.0
H468 H 0.09315 0.36742 0.74295 0.0
H469 H 0.26418 0.41009 0.64421 0.0
H470 H 0.28325 0.47655 0.7104 0.0
H471 H 0.23996 0.45722 0.73916 0.0
H472 H 0.19657 0.40876 0.64089 0.0
H473 H 0.21261 0.38105 0.62474 0.0
H474 H 0.17711 0.3744 0.6424 0.0
H475 H 0.24705 0.36186 0.69336 0.0
H476 H 0.21661 0.33813 0.68162 0.0
H477 H 0.24143 0.35604 0.65351 0.0
H478 H 0.15315 0.28729 0.63454 0.0
C479 C 0.1626 0.32224 0.66502 0.0
Sm480 Sm 0.01839 0.05877 0.51415 0.0
Sm481 Sm 1.00961 1.03035 0.57574 0.0
C482 C 0.02224 0.09398 0.46833 0.0
C483 C 0.04438 0.11812 0.46016 0.0
C484 C 0.04339 0.1316 0.4324 0.0
C485 C 0.06636 0.15243 0.42317 0.0
C486 C 0.09068 0.15994 0.44158 0.0
C487 C 0.0909 0.14716 0.47003 0.0
C488 C 0.06796 0.12636 0.47918 0.0
C489 C 0.06297 1.03349 0.53163 0.0
C490 C 0.03924 0.09526 0.57695 0.0
C491 C 1.00578 0.99492 0.62137 0.0
C492 C 0.98361 0.97081 0.62954 0.0
C493 C 0.98773 0.95351 0.65364 0.0
C494 C 0.96552 0.93186 0.66274 0.0
C495 C 0.93879 0.92738 0.64798 0.0
C496 C 0.93527 0.94426 0.62308 0.0
C497 C 0.95752 0.96573 0.6139 0.0
C498 C 0.96497 0.05559 0.55837 0.0
C499 C 0.98903 0.99393 0.51289 0.0
O500 O 1.0072 0.0967 0.49312 0.0
O501 O 0.03081 0.06986 0.46649 0.0
O502 O 0.04927 0.04763 0.54855 0.0
O503 O 0.05482 1.03388 0.50377 0.0
O504 O 0.03077 0.09554 0.54848 0.0
O505 O 0.03749 0.07148 0.59179 0.0
O506 O 0.02066 0.99219 0.5965 0.0
O507 O 0.99742 1.01913 0.6234 0.0
O508 O 0.97869 0.04149 0.54141 0.0
O509 O 0.97291 0.05485 0.58626 0.0
O510 O 0.9983 0.99366 0.54106 0.0
O511 O 0.9898 1.01782 0.49853 0.0
H512 H 0.02531 0.12544 0.41748 0.0
H513 H 0.06543 0.16216 0.40129 0.0
H514 H 0.10941 0.15219 0.48456 0.0
H515 H 0.06915 0.11591 0.50061 0.0
H516 H 1.00786 0.95708 0.66577 0.0
H517 H 0.96913 0.91892 0.68166 0.0
H518 H 0.91493 0.94167 0.61141 0.0
H519 H 0.95408 0.97893 0.59512 0.0
Sm520 Sm 0.54226 0.04908 0.05079 0.0
Sm521 Sm 0.48467 1.03299 1.02649 0.0
C522 C 0.59117 0.07591 0.07367 0.0
C523 C 0.59829 0.09306 0.10085 0.0
C524 C 0.62557 0.10989 0.10333 0.0
C525 C 0.63243 0.12622 0.12929 0.0
C526 C 0.61204 0.12592 0.15314 0.0
C527 C 0.58451 0.10928 0.15025 0.0
C528 C 0.57769 0.09301 0.12429 0.0
C529 C 0.51298 0.99893 0.07395 0.0
C530 C 0.48812 0.074 0.08278 0.0
C531 C 0.43617 1.00694 1.00221 0.0
C532 C 0.42929 0.98861 0.97558 0.0
C533 C 0.44051 0.9638 0.97194 0.0
C534 C 0.4355 0.94788 0.9454 0.0
C535 C 0.41955 0.95671 0.92198 0.0
C536 C 0.40798 0.98124 0.92585 0.0
C537 C 0.41268 0.99696 0.95249 0.0
C538 C 0.51417 0.08321 1.00388 0.0
C539 C 0.5386 1.00739 0.99524 0.0
O540 O 0.57678 0.08671 0.05326 0.0
O541 O 0.58117 0.04941 0.0784 0.0
O542 O 0.50219 1.02076 0.07068 0.0
O543 O 0.5399 1.00331 0.06535 0.0
O544 O 0.51612 0.0781 0.07681 0.0
O545 O 0.47043 0.05386 0.06917 0.0
O546 O 0.44841 0.99685 1.02492 0.0
O547 O 0.44749 1.03293 0.99629 0.0
O548 O 0.52475 0.0612 1.00666 0.0
O549 O 0.4874 0.07907 1.01298 0.0
O550 O 0.51064 1.00316 1.0015 0.0
O551 O 0.55616 1.0281 1.00808 0.0
H552 H 0.64158 0.11032 0.08525 0.0
H553 H 0.65368 0.13912 0.13067 0.0
H554 H 0.56846 0.1083 0.16833 0.0
H555 H 0.55643 0.08017 0.12263 0.0
H556 H 0.4536 0.95693 0.98928 0.0
H557 H 0.44474 0.9291 0.94284 0.0
H558 H 0.39529 0.98827 0.90823 0.0
H559 H 0.40383 1.01598 0.95481 0.0
Sm560 Sm 0.51466 0.51818 0.52396 0.0
Sm561 Sm 0.50994 0.56687 0.56191 0.0
C562 C 0.53464 0.47594 0.49896 0.0
C563 C 0.55148 0.45673 0.51306 0.0
C564 C 0.57912 0.46684 0.52453 0.0
C565 C 0.59339 0.44945 0.54127 0.0
C566 C 0.58031 0.42165 0.54707 0.0
C567 C 0.55295 0.41137 0.53515 0.0
C568 C 0.53871 0.42873 0.51822 0.0
C569 C 0.46158 0.51346 0.55281 0.0
C570 C 0.53871 0.52102 0.59511 0.0
C571 C 0.49013 0.60942 0.58624 0.0
C572 C 0.46928 0.62514 0.57308 0.0
C573 C 0.44083 0.61179 0.56707 0.0
C574 C 0.42258 0.62536 0.55046 0.0
C575 C 0.43243 0.65243 0.53931 0.0
C576 C 0.46061 0.66601 0.54589 0.0
C577 C 0.47881 0.65253 0.56271 0.0
C578 C 0.56266 0.57115 0.53247 0.0
C579 C 0.48532 0.56386 0.49146 0.0
O580 O 0.54764 0.50194 0.49587 0.0
O581 O 0.5079 0.47379 0.50866 0.0
O582 O 0.48565 0.52261 0.56479 0.0
O583 O 0.46506 0.50585 0.52484 0.0
O584 O 0.54003 0.51077 0.5673 0.0
O585 O 0.52548 0.54233 0.60047 0.0
O586 O 0.48007 0.58348 0.59386 0.0
O587 O 0.51523 0.61233 0.57225 0.0
O588 O 0.53838 0.56259 0.52076 0.0
O589 O 0.55973 0.57796 0.56079 0.0
O590 O 0.48248 0.5726 0.51968 0.0
O591 O 0.50026 0.54389 0.48559 0.0
H592 H 0.58951 0.48841 0.52132 0.0
H593 H 0.61443 0.45795 0.55025 0.0
H594 H 0.54262 0.38983 0.53872 0.0
H595 H 0.51742 0.42044 0.50975 0.0
H596 H 0.43284 0.59053 0.57438 0.0
H597 H 0.40097 0.61441 0.54573 0.0
H598 H 0.46854 0.68715 0.53817 0.0
H599 H 0.50064 0.66324 0.56689 0.0
Sm600 Sm 0.01651 0.51179 0.06003 0.0
Sm601 Sm 1.00806 0.57286 1.03079 0.0
C602 C 0.03367 0.46344 0.06673 0.0
C603 C 0.06168 0.45394 0.06632 0.0
C604 C 0.06399 0.42783 0.05375 0.0
C605 C 0.09004 0.41787 0.05503 0.0
C606 C 0.11424 0.43379 0.06913 0.0
C607 C 0.11199 0.46038 0.08082 0.0
C608 C 0.08606 0.47041 0.07926 0.0
C609 C 0.98635 0.54202 0.09945 0.0
C610 C 0.0671 0.56893 0.06889 0.0
C611 C 0.99102 0.62109 1.02242 0.0
C612 C 0.96318 0.63065 1.02414 0.0
C613 C 0.93871 0.61359 1.03688 0.0
C614 C 0.91165 0.62153 1.0356 0.0
C615 C 0.90843 0.64635 1.02085 0.0
C616 C 0.93327 0.66356 1.0086 0.0
C617 C 0.96036 0.65581 1.01037 0.0
C618 C 0.03918 0.54294 0.99203 0.0
C619 C 0.95714 0.51589 1.02253 0.0
O620 O 0.02477 0.47137 1.04077 0.0
O621 O 0.02897 0.47962 0.08954 0.0
O622 O 0.99551 0.54802 0.07281 0.0
O623 O 0.99239 0.51765 0.10587 0.0
O624 O 0.05993 0.54117 0.06981 0.0
O625 O 0.05038 0.58527 0.0571 0.0
O626 O 1.00161 0.61443 0.0481 0.0
O627 O 0.99345 0.60333 1.00043 0.0
O628 O 0.02929 0.53682 1.01833 0.0
O629 O 0.03309 0.56722 0.98538 0.0
O630 O 0.96447 0.54361 1.02162 0.0
O631 O 0.97382 0.49947 1.03424 0.0
H632 H 0.0455 0.41495 1.04337 0.0
H633 H 0.0911 0.39755 0.04526 0.0
H634 H 0.12992 0.47314 0.09219 0.0
H635 H 0.08491 0.49078 0.08889 0.0
H636 H 0.94035 0.59374 0.04702 0.0
H637 H 0.89321 0.60788 0.04564 0.0
H638 H 0.93173 0.68249 0.99646 0.0
H639 H 0.97897 0.669 0.99999 0.0
H640 H 0.23232 0.29442 0.38847 0.0
H641 H 0.25176 0.21784 0.3493 0.0
H642 H 0.19026 0.26742 0.41481 0.0
H643 H 0.21096 0.19121 0.37656 0.0
H644 H 0.11472 0.16036 0.38498 0.0
H645 H 0.15932 0.18874 0.36638 0.0
H646 H 0.17165 0.22992 0.45356 0.0
H647 H 0.12616 0.20183 0.47213 0.0
C648 C 0.22808 0.27187 0.386 0.0
C649 C 0.24532 0.25843 0.36642 0.0
C650 C 0.20412 0.25642 0.40125 0.0
C651 C 0.19702 0.2273 0.39715 0.0
C652 C 0.21557 0.21371 0.37961 0.0
C653 C 0.23933 0.22905 0.36435 0.0
C654 C 0.1266 0.17578 0.40009 0.0
C655 C 0.11684 0.1789 0.43 0.0
C656 C 0.15242 0.19174 0.38957 0.0
C657 C 0.1692 0.21122 0.40869 0.0
C658 C 0.15916 0.21499 0.43838 0.0
C659 C 0.13325 0.19885 0.44901 0.0
H660 H 0.41284 0.89501 0.73532 0.0
H661 H 0.33155 0.86063 0.77923 0.0
H662 H 0.43222 0.91265 0.7843 0.0
H663 H 0.35084 0.87826 0.82809 0.0
H664 H 0.40046 0.90061 0.91484 0.0
H665 H 0.38945 0.87501 0.86709 0.0
H666 H 0.41776 0.95142 0.81713 0.0
H667 H 0.42873 0.97687 0.86467 0.0
C668 C 0.3994 0.89069 0.75556 0.0
C669 C 0.37068 0.87667 0.7536 0.0
C670 C 0.41039 0.9009 0.78348 0.0
C671 C 0.39296 0.89691 0.80988 0.0
C672 C 0.36481 0.88143 0.80813 0.0
C673 C 0.35372 0.87154 0.7802 0.0
C674 C 0.40469 0.91175 0.89358 0.0
C675 C 0.41515 0.9407 0.89331 0.0
C676 C 0.39833 0.89717 0.86637 0.0
C677 C 0.40279 0.91127 0.8385 0.0
C678 C 0.41441 0.93999 0.83827 0.0
C679 C 0.42038 0.95459 0.86543 0.0
H680 H 0.60105 0.40506 0.71946 0.0
H681 H 0.62414 0.48635 0.76159 0.0
H682 H 0.57873 0.42609 0.67812 0.0
H683 H 0.60319 0.50747 0.71978 0.0
H684 H 0.53918 0.535 0.65571 0.0
H685 H 0.55945 0.51277 0.69742 0.0
H686 H 0.58876 0.4549 0.63428 0.0
H687 H 0.56771 0.47668 0.59274 0.0
C688 C 0.60135 0.42739 0.72004 0.0
C689 C 0.61463 0.44388 0.74406 0.0
C690 C 0.58882 0.43958 0.69602 0.0
C691 C 0.58908 0.46865 0.69528 0.0
C692 C 0.60213 0.48503 0.71947 0.0
C693 C 0.6146 0.47287 0.74342 0.0
C694 C 0.54999 0.51757 0.65065 0.0
C695 C 0.55185 0.50783 0.62065 0.0
C696 C 0.56182 0.50483 0.67466 0.0
C697 C 0.57599 0.48194 0.66951 0.0
C698 C 0.57777 0.47218 0.63945 0.0
C699 C 0.56588 0.4849 0.61544 0.0
H700 H 0.93841 0.67834 0.21153 0.0
H701 H 0.90034 0.60195 0.2574 0.0
H702 H 0.95735 0.65103 0.17183 0.0
H703 H 0.91734 0.57484 0.21685 0.0
H704 H 0.97717 0.5323 0.1595 0.0
H705 H 0.95853 0.56083 0.19774 0.0
H706 H 0.94804 0.62101 0.1291 0.0
H707 H 0.96809 0.59248 0.09093 0.0
C708 C 0.93396 0.65576 0.21327 0.0
C709 C 0.91778 0.6426 0.23812 0.0
C710 C 0.94452 0.63999 0.19008 0.0
C711 C 0.93917 0.6105 0.19086 0.0
C712 C 0.92256 0.59742 0.21544 0.0
C713 C 0.91227 0.61313 0.23868 0.0
C714 C 0.97087 0.55161 0.15246 0.0
C715 C 0.97413 0.56007 0.12198 0.0
C716 C 0.95988 0.568 0.1745 0.0
C717 C 0.95132 0.59335 0.16683 0.0
C718 C 0.9546 0.60186 0.13619 0.0
C719 C 0.96596 0.58545 0.11411 0.0
H720 H 0.39081 0.1613 0.21047 0.0
H721 H 0.4399 0.22539 0.1535 0.0
H722 H 0.414 0.12609 0.18516 0.0
H723 H 0.46281 0.19 0.1278 0.0
H724 H 0.43239 0.07043 0.10333 0.0
H725 H 0.4122 0.10497 0.13323 0.0
H726 H 0.49676 0.15674 0.1382 0.0
H727 H 0.51708 0.12225 0.10823 0.0
C728 C 0.4068 0.1679 0.19275 0.0
C729 C 0.4136 0.19612 0.18399 0.0
C730 C 0.41986 0.1477 0.17809 0.0
C731 C 0.44016 0.15529 0.15449 0.0
C732 C 0.44741 0.18358 0.14611 0.0
C733 C 0.43414 0.20378 0.1606 0.0
C734 C 0.44675 0.08904 0.11102 0.0
C735 C 0.47631 0.09363 0.10326 0.0
C736 C 0.43519 0.10877 0.12825 0.0
C737 C 0.45289 0.13362 0.13789 0.0
C738 C 0.48256 0.13793 0.13075 0.0
C739 C 0.49419 0.11808 0.11375 0.0
H740 H 0.1997 0.96929 0.61977 0.0
H741 H 0.15522 0.89864 0.56882 0.0
H742 H 0.16547 0.99756 0.60261 0.0
H743 H 0.12105 0.92714 0.55139 0.0
H744 H 0.08979 0.99758 0.49892 0.0
H745 H 0.12251 0.96813 0.51764 0.0
H746 H 0.11382 1.00085 0.60813 0.0
H747 H 0.08142 1.03054 0.58932 0.0
C748 C 0.18234 0.95967 0.60528 0.0
C749 C 0.18012 0.93171 0.5957 0.0
C750 C 0.16279 0.9759 0.5954 0.0
C751 C 0.14067 0.96456 0.57563 0.0
C752 C 0.13817 0.93652 0.5663 0.0
C753 C 0.1577 0.92022 0.57628 0.0
C754 C 0.09501 0.99852 0.52276 0.0
C755 C 0.08328 1.01636 0.54268 0.0
C756 C 0.1135 0.98152 0.53351 0.0
C757 C 0.12063 0.98218 0.56434 0.0
C758 C 0.10891 1.00013 0.58421 0.0
C759 C 0.09035 1.01705 0.57347 0.0
H760 H 0.81453 0.4556 0.90057 0.0
H761 H 0.78544 0.41973 0.98761 0.0
H762 H 0.85895 0.47986 0.92367 0.0
H763 H 0.83015 0.44312 1.01015 0.0
H764 H 0.92822 0.46182 1.02925 0.0
H765 H 0.88278 0.43984 1.00655 0.0
H766 H 0.87675 0.51752 0.96258 0.0
H767 H 0.92213 0.53966 0.98541 0.0
C768 C 0.81735 0.453 0.92462 0.0
C769 C 0.79623 0.43529 0.94198 0.0
C770 C 0.84295 0.46687 0.93785 0.0
C771 C 0.8483 0.46322 0.96873 0.0
C772 C 0.82703 0.44599 0.98619 0.0
C773 C 0.80135 0.43244 0.97312 0.0
C774 C 0.91723 0.4743 1.01483 0.0
C775 C 0.92897 0.50259 1.00928 0.0
C776 C 0.89106 0.4617 1.00189 0.0
C777 C 0.87607 0.47689 0.98269 0.0
C778 C 0.88782 0.50514 0.97704 0.0
C779 C 0.91379 0.51787 0.99033 0.0
H780 H 0.69958 0.60713 0.39257 0.0
H781 H 0.73385 0.65308 0.47211 0.0
H782 H 0.65657 0.587 0.42144 0.0
H783 H 0.68978 0.63518 0.50003 0.0
H784 H 0.61762 0.58296 0.55357 0.0
H785 H 0.66231 0.59816 0.52473 0.0
H786 H 0.61353 0.59465 0.44221 0.0
H787 H 0.56928 0.57773 0.47106 0.0
C788 C 0.69809 0.61305 0.41618 0.0
C789 C 0.72058 0.63195 0.42972 0.0
C790 C 0.67297 0.6018 0.43274 0.0
C791 C 0.66921 0.60937 0.46331 0.0
C792 C 0.69172 0.62828 0.4768 0.0
C793 C 0.71701 0.63912 0.46042 0.0
C794 C 0.61658 0.58523 0.52921 0.0
C795 C 0.58994 0.57921 0.51462 0.0
C796 C 0.64223 0.59425 0.51258 0.0
C797 C 0.64191 0.59809 0.4809 0.0
C798 C 0.61508 0.59164 0.46637 0.0
C799 C 0.58952 0.58208 0.48296 0.0
H800 H 0.24762 0.33244 0.09806 0.0
H801 H 0.26732 0.40616 0.1545 0.0
H802 H 0.21 0.35245 0.07325 0.0
H803 H 0.22974 0.42614 0.12983 0.0
H804 H 0.17062 0.46152 0.06665 0.0
H805 H 0.21383 0.44343 0.08003 0.0
H806 H 0.16211 0.36159 0.09422 0.0
H807 H 0.11885 0.37966 0.08188 0.0
C808 C 0.2444 0.35322 0.10458 0.0
C809 C 0.26029 0.36775 0.12822 0.0
C810 C 0.22273 0.36454 0.09059 0.0
C811 C 0.21684 0.39076 0.09974 0.0
C812 C 0.23393 0.40599 0.12214 0.0
C813 C 0.25532 0.39452 0.13636 0.0
C814 C 0.16841 0.43966 0.0726 0.0
C815 C 0.14109 0.42215 0.07343 0.0
C816 C 0.19321 0.4293 0.0801 0.0
C817 C 0.19133 0.40113 0.0882 0.0
C818 C 0.1643 0.38332 0.08766 0.0
C819 C 0.13947 0.39372 0.0805 0.0
H820 H 0.54931 0.24233 0.90797 0.0
H821 H 0.63455 0.22698 0.9279 0.0
H822 H 0.52811 0.19812 0.93123 0.0
H823 H 0.61319 0.1836 0.9531 0.0
H824 H 0.56653 0.09367 0.97308 0.0
H825 H 0.58906 0.13697 0.94762 0.0
H826 H 0.51795 0.17617 0.97787 0.0
H827 H 0.4952 0.13275 1.002 0.0
C828 C 0.56365 0.22959 0.91722 0.0
C829 C 0.59381 0.2386 0.91586 0.0
C830 C 0.55138 0.20425 0.93113 0.0
C831 C 0.56876 0.18706 0.94451 0.0
C832 C 0.59894 0.19593 0.94294 0.0
C833 C 0.61124 0.22121 0.92879 0.0
C834 C 0.55578 0.11159 0.9742 0.0
C835 C 0.52895 0.10966 0.98936 0.0
C836 C 0.56876 0.13656 0.95973 0.0
C837 C 0.55536 0.16034 0.96029 0.0
C838 C 0.52876 0.15834 0.9761 0.0
C839 C 0.51573 0.13339 0.99024 0.0
H840 H 0.93087 0.85429 0.38589 0.0
H841 H 0.90425 0.82324 0.47536 0.0
H842 H 0.95439 0.89874 0.4083 0.0
H843 H 0.9263 0.86759 0.49745 0.0
H844 H 0.98857 0.94094 0.53378 0.0
H845 H 0.97009 0.89655 0.50924 0.0
H846 H 0.9441 0.94046 0.43272 0.0
H847 H 0.96356 0.9851 0.45701 0.0
C848 C 0.93016 0.85683 0.4103 0.0
C849 C 0.91537 0.83514 0.4287 0.0
C850 C 0.94335 0.88249 0.42318 0.0
C851 C 0.94225 0.88706 0.45481 0.0
C852 C 0.92804 0.86502 0.47311 0.0
C853 C 0.91498 0.83953 0.46031 0.0
C854 C 0.97896 0.94124 0.5117 0.0
C855 C 0.97748 0.96678 0.49754 0.0
C856 C 0.96817 0.91563 0.49759 0.0
C857 C 0.95529 0.91463 0.46893 0.0
C858 C 0.95411 0.94021 0.45458 0.0
C859 C 0.96509 0.96591 0.46866 0.0
H860 H 0.38387 0.79797 0.49689 0.0
H861 H 0.29959 0.7457 0.5024 0.0
H862 H 0.40567 0.75707 0.48752 0.0
H863 H 0.32124 0.70446 0.49207 0.0
H864 H 0.37632 0.65492 0.55275 0.0
H865 H 0.3474 0.68601 0.53112 0.0
H866 H 0.41542 0.71439 0.46524 0.0
H867 H 0.44466 0.68319 0.48741 0.0
C868 C 0.3699 0.77779 0.49448 0.0
C869 C 0.34024 0.7748 0.50108 0.0
C870 C 0.38234 0.75425 0.48897 0.0
C871 C 0.36526 0.72734 0.49002 0.0
C872 C 0.33502 0.72487 0.49191 0.0
C873 C 0.32257 0.7485 0.49749 0.0
C874 C 0.38476 0.66713 0.53306 0.0
C875 C 0.41299 0.66718 0.52224 0.0
C876 C 0.36806 0.68487 0.52041 0.0
C877 C 0.37921 0.70302 0.49661 0.0
C878 C 0.40641 0.70104 0.48389 0.0
C879 C 0.4232 0.68335 0.49668 0.0
H880 H 0.81777 0.81168 0.75693 0.0
H881 H 0.76506 0.84281 0.69065 0.0
H882 H 0.86101 0.83452 0.73037 0.0
H883 H 0.80888 0.86686 0.66466 0.0
H884 H 0.89738 0.89246 0.61572 0.0
H885 H 0.85457 0.86138 0.63591 0.0
H886 H 0.88141 0.88473 0.72707 0.0
H887 H 0.92358 0.91596 0.70716 0.0
C888 C 0.8153 0.82282 0.73626 0.0
C889 C 0.7878 0.82538 0.72596 0.0
C890 C 0.84021 0.83626 0.72128 0.0
C891 C 0.83833 0.85281 0.69574 0.0
C892 C 0.81096 0.85418 0.6843 0.0
C893 C 0.78589 0.84062 0.69933 0.0
C894 C 0.89412 0.89093 0.64007 0.0
C895 C 0.91401 0.90666 0.65983 0.0
C896 C 0.86964 0.87312 0.65158 0.0
C897 C 0.86475 0.87052 0.68303 0.0
C898 C 0.88488 0.88586 0.70271 0.0
C899 C 0.90915 0.90372 0.69127 0.0
H900 H 0.69835 0.2172 0.30588 0.0
H901 H 0.61293 0.18142 0.33923 0.0
H902 H 0.68448 0.20199 0.25457 0.0
H903 H 0.59905 0.16597 0.2879 0.0
H904 H 0.57887 0.1561 0.18711 0.0
H905 H 0.59099 0.17996 0.23542 0.0
H906 H 0.67475 0.15544 0.23138 0.0
H907 H 0.66266 0.13155 0.18347 0.0
C908 C 0.67652 0.2063 0.30213 0.0
C909 C 0.6568 0.20018 0.32652 0.0
C910 C 0.6686 0.19756 0.27282 0.0
C911 C 0.64082 0.18246 0.2673 0.0
C912 C 0.62056 0.17775 0.29141 0.0
C913 C 0.62848 0.18657 0.32079 0.0
C914 C 0.59987 0.15584 0.19658 0.0
C915 C 0.61982 0.14194 0.18146 0.0
C916 C 0.6068 0.16953 0.22418 0.0
C917 C 0.63385 0.16967 0.23711 0.0
C918 C 0.65394 0.1562 0.2217 0.0
C919 C 0.64701 0.14249 0.19422 0.0
H920 H 0.45429 0.65112 0.32489 0.0
H921 H 0.37159 0.63506 0.37153 0.0
H922 H 0.47568 0.62932 0.36663 0.0
H923 H 0.39285 0.6133 0.4131 0.0
H924 H 0.44794 0.60113 0.49576 0.0
H925 H 0.42771 0.62464 0.45486 0.0
H926 H 0.47307 0.58167 0.38891 0.0
H927 H 0.49334 0.55809 0.42987 0.0
C928 C 0.44073 0.64318 0.34416 0.0
C929 C 0.41117 0.64479 0.34472 0.0
C930 C 0.45293 0.63043 0.36798 0.0
C931 C 0.43601 0.61937 0.39328 0.0
C932 C 0.40662 0.62166 0.39415 0.0
C933 C 0.39437 0.634 0.37016 0.0
C934 C 0.45355 0.59655 0.47256 0.0
C935 C 0.47222 0.5775 0.46626 0.0
C936 C 0.44185 0.61003 0.44904 0.0
C937 C 0.44872 0.60514 0.41845 0.0
C938 C 0.46751 0.5862 0.41214 0.0
C939 C 0.47896 0.57246 0.43568 0.0
H940 H 0.09409 0.4082 0.88321 0.0
H941 H 0.12812 0.4847 0.83551 0.0
H942 H 0.07456 0.43518 0.92294 0.0
H943 H 0.11009 0.51157 0.87583 0.0
H944 H 0.04553 0.55021 0.93146 0.0
H945 H 0.06615 0.52219 0.8941 0.0
H946 H 0.08449 0.46753 0.96509 0.0
H947 H 0.06321 0.49585 1.0027 0.0
C948 C 0.09754 0.43075 0.88113 0.0
C949 C 0.11267 0.44407 0.85576 0.0
C950 C 0.08661 0.44631 0.90425 0.0
C951 C 0.09043 0.4757 0.90274 0.0
C952 C 0.10613 0.489 0.87773 0.0
C953 C 0.11694 0.47349 0.85464 0.0
C954 C 0.05398 0.53223 0.93921 0.0
C955 C 0.05239 0.52513 0.97011 0.0
C956 C 0.06605 0.51617 0.91769 0.0
C957 C 0.07731 0.49251 0.92631 0.0
C958 C 0.07576 0.48534 0.95738 0.0
C959 C 0.06349 0.50151 0.97902 0.0
H960 H 0.64488 0.90959 0.8902 0.0
H961 H 0.57976 0.84998 0.93688 0.0
H962 H 0.62118 0.94755 0.90762 0.0
H963 H 0.5568 0.88817 0.95552 0.0
H964 H 0.50934 0.96059 0.96707 0.0
H965 H 0.52984 0.92405 0.94093 0.0
H966 H 0.6157 0.97081 0.95526 0.0
H967 H 0.59529 1.00751 0.98072 0.0
C968 C 0.62533 0.90452 0.90393 0.0
C969 C 0.61425 0.8767 0.91218 0.0
C970 C 0.61194 0.92636 0.91422 0.0
C971 C 0.58718 0.92095 0.9331 0.0
C972 C 0.57567 0.89307 0.94075 0.0
C973 C 0.58905 0.87119 0.93041 0.0
C974 C 0.53258 0.96326 0.96425 0.0
C975 C 0.55069 0.98692 0.97616 0.0
C976 C 0.54433 0.94221 0.94946 0.0
C977 C 0.57442 0.94437 0.94622 0.0
C978 C 0.59243 0.96857 0.95706 0.0
C979 C 0.5807 0.9896 0.97182 0.0
H980 H 0.82444 0.11249 0.46989 0.0
H981 H 0.86058 0.18256 0.52658 0.0
H982 H 0.86096 0.08677 0.48677 0.0
H983 H 0.89729 0.15671 0.54355 0.0
H984 H 0.93491 0.08798 0.5922 0.0
H985 H 0.89986 0.11533 0.57444 0.0
H986 H 0.91296 0.08774 0.48258 0.0
H987 H 0.94754 0.05998 0.50048 0.0
C988 C 0.84047 0.12255 0.48564 0.0
C989 C 0.83975 0.14959 0.49682 0.0
C990 C 0.86137 0.10781 0.49532 0.0
C991 C 0.88201 0.11976 0.51642 0.0
C992 C 0.88142 0.14686 0.52753 0.0
C993 C 0.86046 0.16164 0.51783 0.0
C994 C 0.93019 0.08775 0.56824 0.0
C995 C 0.9437 0.0718 0.5477 0.0
C996 C 0.91034 0.10356 0.55805 0.0
C997 C 0.90369 0.10367 0.52713 0.0
C998 C 0.91739 0.08778 0.50659 0.0
C999 C 0.93722 0.07197 0.5168 0.0
H1000 H 0.20632 0.68769 0.15062 0.0
H1001 H 0.24061 0.61119 0.14667 0.0
H1002 H 0.16145 0.66371 0.1289 0.0
H1003 H 0.19603 0.58714 0.12374 0.0
H1004 H 0.10227 0.54572 0.10641 0.0
H1005 H 0.14681 0.56852 0.12999 0.0
H1006 H 0.14074 0.64543 0.08406 0.0
H1007 H 0.09566 0.62295 0.06165 0.0
C1008 C 0.20432 0.66571 0.14487 0.0
C1009 C 0.22715 0.65142 0.15027 0.0
C1010 C 0.17857 0.65191 0.13216 0.0
C1011 C 0.17491 0.62339 0.12402 0.0
C1012 C 0.19767 0.60897 0.12992 0.0
C1013 C 0.22336 0.62276 0.14304 0.0
C1014 C 0.11046 0.5675 0.10129 0.0
C1015 C 0.09515 0.58247 0.08218 0.0
C1016 C 0.13621 0.58061 0.11475 0.0
C1017 C 0.14762 0.60904 0.10926 0.0
C1018 C 0.13251 0.62377 0.0896 0.0
C1019 C 0.10662 0.61076 0.07646 0.0
H1020 H 0.28253 0.45515 0.61391 0.0
H1021 H 0.33192 0.46186 0.69577 0.0
H1022 H 0.32606 0.47378 0.58463 0.0
H1023 H 0.37591 0.47918 0.6665 0.0
H1024 H 0.44867 0.52952 0.61042 0.0
H1025 H 0.40388 0.51527 0.63957 0.0
H1026 H 0.36827 0.46345 0.56434 0.0
H1027 H 0.41234 0.4791 0.53491 0.0
C1028 C 0.30283 0.46042 0.6256 0.0
C1029 C 0.30375 0.45699 0.65716 0.0
C1030 C 0.32795 0.47097 0.60878 0.0
C1031 C 0.35493 0.47795 0.62291 0.0
C1032 C 0.35569 0.47463 0.65463 0.0
C1033 C 0.33043 0.46452 0.67152 0.0
C1034 C 0.4311 0.5153 0.6001 0.0
C1035 C 0.43406 0.5055 0.57034 0.0
C1036 C 0.40541 0.50685 0.61692 0.0
C1037 C 0.3821 0.48798 0.60461 0.0
C1038 C 0.38524 0.47837 0.57466 0.0
C1039 C 0.41071 0.48719 0.55772 0.0
H1040 H 0.75701 0.65353 0.92328 0.0
H1041 H 0.76412 0.7286 0.97789 0.0
H1042 H 0.79334 0.63782 0.95345 0.0
H1043 H 0.79896 0.71186 1.00977 0.0
H1044 H 0.89293 0.69827 1.0199 0.0
H1045 H 0.84775 0.70976 1.00339 0.0
H1046 H 0.81134 0.62165 0.99699 0.0
H1047 H 0.85739 0.61019 1.01079 0.0
C1048 C 0.7658 0.66636 0.94227 0.0
C1049 C 0.75818 0.69268 0.94761 0.0
C1050 C 0.78646 0.65716 0.95995 0.0
C1051 C 0.79971 0.67381 0.98383 0.0
C1052 C 0.7899 0.69883 0.99105 0.0
C1053 C 0.76948 0.70824 0.97305 0.0
C1054 C 0.87536 0.68129 1.01487 0.0
C1055 C 0.87923 0.65329 1.01608 0.0
C1056 C 0.84911 0.6879 1.00592 0.0
C1057 C 0.82576 0.66666 0.99842 0.0
C1058 C 0.82896 0.63862 1.00186 0.0
C1059 C 0.85539 0.63202 1.01029 0.0
H1060 H 0.47898 0.84075 0.17179 0.0
H1061 H 0.39348 0.85608 0.15308 0.0
H1062 H 0.4999 0.88461 0.14768 0.0
H1063 H 0.41451 0.89904 0.12697 0.0
H1064 H 0.4608 0.98863 0.1051 0.0
H1065 H 0.43859 0.9456 0.13124 0.0
H1066 H 0.50964 0.90629 0.10102 0.0
H1067 H 0.53211 0.94949 0.07628 0.0
C1068 C 0.46452 0.8534 0.16262 0.0
C1069 C 0.43437 0.84448 0.1646 0.0
C1070 C 0.47663 0.87855 0.1482 0.0
C1071 C 0.45908 0.89562 0.1349 0.0
C1072 C 0.42891 0.88682 0.13705 0.0
C1073 C 0.41678 0.86176 0.15173 0.0
C1074 C 0.4716 0.97074 0.10414 0.0
C1075 C 0.49835 0.97259 0.08882 0.0
C1076 C 0.4588 0.94592 0.11899 0.0
C1077 C 0.47228 0.92218 0.11866 0.0
C1078 C 0.49878 0.92409 0.10265 0.0
C1079 C 0.51164 0.94891 0.08816 0.0
H1080 H 0.11929 0.23114 0.69828 0.0
H1081 H 0.09169 0.27276 0.62131 0.0
H1082 H 0.09923 0.1857 0.67598 0.0
H1083 H 0.06995 0.22777 0.59965 0.0
H1084 H 0.06187 0.1452 0.55026 0.0
H1085 H 0.08072 0.18959 0.57447 0.0
H1086 H 0.06061 0.15171 0.66255 0.0
H1087 H 0.04333 0.10679 0.63799 0.0
C1088 C 0.10821 0.23049 0.67692 0.0
C1089 C 0.10695 0.25541 0.66155 0.0
C1090 C 0.0966 0.20442 0.66404 0.0
C1091 C 0.08306 0.20262 0.6356 0.0
C1092 C 0.08084 0.22788 0.62103 0.0
C1093 C 0.09293 0.25383 0.63364 0.0
C1094 C 0.06156 0.1463 0.57481 0.0
C1095 C 0.05109 0.12233 0.59213 0.0
C1096 C 0.07215 0.17199 0.58884 0.0
C1097 C 0.07207 0.17478 0.62073 0.0
C1098 C 0.06156 0.15065 0.63803 0.0
C1099 C 0.05146 0.12477 0.62393 0.0
H1100 H 0.70049 0.31609 0.59248 0.0
H1101 H 0.61552 0.26655 0.58166 0.0
H1102 H 0.67904 0.3574 0.60258 0.0
H1103 H 0.59409 0.30779 0.59037 0.0
H1104 H 0.55872 0.38457 0.59189 0.0
H1105 H 0.58237 0.34882 0.61403 0.0
H1106 H 0.66011 0.38094 0.5623 0.0
H1107 H 0.63671 0.41653 0.5408 0.0
C1108 C 0.67717 0.31376 0.5936 0.0
C1109 C 0.65963 0.28836 0.58547 0.0
C1110 C 0.66488 0.3375 0.59902 0.0
C1111 C 0.63495 0.33614 0.59613 0.0
C1112 C 0.61723 0.30977 0.59259 0.0
C1113 C 0.6295 0.28606 0.5874 0.0
C1114 C 0.58103 0.38415 0.58573 0.0
C1115 C 0.59572 0.40294 0.56418 0.0
C1116 C 0.5946 0.36382 0.59851 0.0
C1117 C 0.62305 0.36178 0.58978 0.0
C1118 C 0.63835 0.38203 0.57 0.0
C1119 C 0.62485 0.40239 0.5574 0.0
loop_
_geom_bond_atom_site_label_1
_geom_bond_atom_site_label_2
_geom_bond_distance
_geom_bond_site_symmetry_2
_ccdc_geom_bond_type
C0 C1 1.391 . S
C0 C4 1.391 . S
C0 H42 0.948 . S
C1 C0 1.391 . S
C1 C2 1.391 . S
C2 C1 1.391 . S
C2 H58 0.947 . S
C2 C59 1.392 . S
C3 C4 1.391 . S
C3 C7 1.397 . S
C3 C59 1.419 . S
C4 C0 1.391 . S
C4 C3 1.391 . S
C4 C5 1.399 . S
C5 C4 1.399 . S
C5 C8 1.396 . S
C5 C17 1.453 . S
C5 C18 1.684 . S
H6 C30 0.948 . S
C7 C3 1.397 . S
C7 C8 1.394 . S
C7 C26 1.723 . S
C8 C5 1.396 . S
C8 C7 1.394 . S
C8 C38 1.723 . S
H9 C32 0.947 . S
H10 C33 0.948 . S
H11 C39 0.982 . S
H12 C40 0.979 . S
H13 C40 0.980 . S
H14 C40 0.983 . S
H15 C39 0.979 . S
H16 C39 0.977 . S
C17 C5 1.453 . S
C17 H46 0.982 . S
C17 H47 0.979 . S
C17 H48 0.977 . S
C18 C5 1.684 . S
C18 H43 0.979 . S
C18 H44 0.980 . S
C18 H45 0.983 . S
C19 C20 1.391 . S
C19 C24 1.391 . S
C19 H49 0.948 . S
C20 C19 1.391 . S
C20 C21 1.391 . S
C21 C20 1.391 . S
C21 C22 1.392 . S
C21 H50 0.947 . S
C22 C21 1.392 . S
C22 C23 1.419 . S
C22 H51 0.948 . S
C23 C22 1.419 . S
C23 C24 1.391 . S
C23 C27 1.397 . S
C24 C19 1.391 . S
C24 C23 1.391 . S
C24 C25 1.399 . S
C25 C24 1.399 . S
C25 C26 1.396 . S
C25 C28 1.453 . S
C25 C29 1.684 . S
C26 C7 1.723 . S
C26 C25 1.396 . S
C26 C27 1.394 . S
C27 C23 1.397 . S
C27 C26 1.394 . S
C27 C37 1.723 . S
C28 C25 1.453 . S
C28 H52 0.982 . S
C28 H53 0.979 . S
C28 H54 0.977 . S
C29 C25 1.684 . S
C29 H55 0.979 . S
C29 H56 0.980 . S
C29 H57 0.983 . S
C30 H6 0.948 . S
C30 C31 1.391 . S
C30 C35 1.391 . S
C31 C30 1.391 . S
C31 C32 1.391 . S
C32 H9 0.947 . S
C32 C31 1.391 . S
C32 C33 1.392 . S
C33 H10 0.948 . S
C33 C32 1.392 . S
C33 C34 1.419 . S
C34 C33 1.419 . S
C34 C35 1.391 . S
C34 C38 1.397 . S
C35 C30 1.391 . S
C35 C34 1.391 . S
C35 C36 1.399 . S
C36 C35 1.399 . S
C36 C37 1.396 . S
C36 C39 1.453 . S
C36 C40 1.684 . S
C37 C27 1.723 . S
C37 C36 1.396 . S
C37 C38 1.394 . S
C38 C8 1.723 . S
C38 C34 1.397 . S
C38 C37 1.394 . S
C39 H11 0.982 . S
C39 H15 0.979 . S
C39 H16 0.977 . S
C39 C36 1.453 . S
C40 H12 0.979 . S
C40 H13 0.980 . S
C40 H14 0.983 . S
C40 C36 1.684 . S
H41 C59 0.948 . S
H42 C0 0.948 . S
H43 C18 0.979 . S
H44 C18 0.980 . S
H45 C18 0.983 . S
H46 C17 0.982 . S
H47 C17 0.979 . S
H48 C17 0.977 . S
H49 C19 0.948 . S
H50 C21 0.947 . S
H51 C22 0.948 . S
H52 C28 0.982 . S
H53 C28 0.979 . S
H54 C28 0.977 . S
H55 C29 0.979 . S
H56 C29 0.980 . S
H57 C29 0.983 . S
H58 C2 0.947 . S
C59 C2 1.392 . S
C59 C3 1.419 . S
C59 H41 0.948 . S
C60 C61 1.391 . S
C60 C64 1.391 . S
C60 H102 0.948 . S
C61 C60 1.391 . S
C61 C62 1.391 . S
C62 C61 1.391 . S
C62 H118 0.947 . S
C62 C119 1.392 . S
C63 C64 1.391 . S
C63 C67 1.397 . S
C63 C119 1.419 . S
C64 C60 1.391 . S
C64 C63 1.391 . S
C64 C65 1.399 . S
C65 C64 1.399 . S
C65 C68 1.396 . S
C65 C77 1.453 . S
C65 C78 1.684 . S
H66 C90 0.948 . S
C67 C63 1.397 . S
C67 C68 1.394 . S
C67 C86 1.723 . S
C68 C65 1.396 . S
C68 C67 1.394 . S
C68 C98 1.723 . S
H69 C92 0.947 . S
H70 C93 0.948 . S
H71 C99 0.982 . S
H72 C100 0.979 . S
H73 C100 0.980 . S
H74 C100 0.983 . S
H75 C99 0.979 . S
H76 C99 0.977 . S
C77 C65 1.453 . S
C77 H106 0.982 . S
C77 H107 0.979 . S
C77 H108 0.977 . S
C78 C65 1.684 . S
C78 H103 0.979 . S
C78 H104 0.980 . S
C78 H105 0.983 . S
C79 C80 1.391 . S
C79 C84 1.391 . S
C79 H109 0.948 . S
C80 C79 1.391 . S
C80 C81 1.391 . S
C81 C80 1.391 . S
C81 C82 1.392 . S
C81 H110 0.947 . S
C82 C81 1.392 . S
C82 C83 1.419 . S
C82 H111 0.948 . S
C83 C82 1.419 . S
C83 C84 1.391 . S
C83 C87 1.397 . S
C84 C79 1.391 . S
C84 C83 1.391 . S
C84 C85 1.399 . S
C85 C84 1.399 . S
C85 C86 1.396 . S
C85 C88 1.453 . S
C85 C89 1.684 . S
C86 C67 1.723 . S
C86 C85 1.396 . S
C86 C87 1.394 . S
C87 C83 1.397 . S
C87 C86 1.394 . S
C87 C97 1.723 . S
C88 C85 1.453 . S
C88 H112 0.982 . S
C88 H113 0.979 . S
C88 H114 0.977 . S
C89 C85 1.684 . S
C89 H115 0.979 . S
C89 H116 0.980 . S
C89 H117 0.983 . S
C90 H66 0.948 . S
C90 C91 1.391 . S
C90 C95 1.391 . S
C91 C90 1.391 . S
C91 C92 1.391 . S
C92 H69 0.947 . S
C92 C91 1.391 . S
C92 C93 1.392 . S
C93 H70 0.948 . S
C93 C92 1.392 . S
C93 C94 1.419 . S
C94 C93 1.419 . S
C94 C95 1.391 . S
C94 C98 1.397 . S
C95 C90 1.391 . S
C95 C94 1.391 . S
C95 C96 1.399 . S
C96 C95 1.399 . S
C96 C97 1.396 . S
C96 C99 1.453 . S
C96 C100 1.684 . S
C97 C87 1.723 . S
C97 C96 1.396 . S
C97 C98 1.394 . S
C98 C68 1.723 . S
C98 C94 1.397 . S
C98 C97 1.394 . S
C99 H71 0.982 . S
C99 H75 0.979 . S
C99 H76 0.977 . S
C99 C96 1.453 . S
C100 H72 0.979 . S
C100 H73 0.980 . S
C100 H74 0.983 . S
C100 C96 1.684 . S
H101 C119 0.948 . S
H102 C60 0.948 . S
H103 C78 0.979 . S
H104 C78 0.980 . S
H105 C78 0.983 . S
H106 C77 0.982 . S
H107 C77 0.979 . S
H108 C77 0.977 . S
H109 C79 0.948 . S
H110 C81 0.947 . S
H111 C82 0.948 . S
H112 C88 0.982 . S
H113 C88 0.979 . S
H114 C88 0.977 . S
H115 C89 0.979 . S
H116 C89 0.980 . S
H117 C89 0.983 . S
H118 C62 0.947 . S
C119 C62 1.392 . S
C119 C63 1.419 . S
C119 H101 0.948 . S
C120 C121 1.391 . S
C120 C124 1.391 . S
C120 H162 0.948 . S
C121 C120 1.391 . S
C121 C122 1.391 . S
C122 C121 1.391 . S
C122 H178 0.947 . S
C122 C179 1.392 . S
C123 C124 1.391 . S
C123 C127 1.397 . S
C123 C179 1.419 . S
C124 C120 1.391 . S
C124 C123 1.391 . S
C124 C125 1.399 . S
C125 C124 1.399 . S
C125 C128 1.396 . S
C125 C137 1.453 . S
C125 C138 1.684 . S
H126 C150 0.948 . S
C127 C123 1.397 . S
C127 C128 1.394 . S
C127 C146 1.723 . S
C128 C125 1.396 . S
C128 C127 1.394 . S
C128 C158 1.723 . S
H129 C152 0.947 . S
H130 C153 0.948 . S
H131 C159 0.982 . S
H132 C160 0.979 . S
H133 C160 0.980 . S
H134 C160 0.983 . S
H135 C159 0.979 . S
H136 C159 0.977 . S
C137 C125 1.453 . S
C137 H166 0.982 . S
C137 H167 0.979 . S
C137 H168 0.977 . S
C138 C125 1.684 . S
C138 H163 0.979 . S
C138 H164 0.980 . S
C138 H165 0.983 . S
C139 C140 1.391 . S
C139 C144 1.391 . S
C139 H169 0.948 . S
C140 C139 1.391 . S
C140 C141 1.391 . S
C141 C140 1.391 . S
C141 C142 1.392 . S
C141 H170 0.947 . S
C142 C141 1.392 . S
C142 C143 1.419 . S
C142 H171 0.948 . S
C143 C142 1.419 . S
C143 C144 1.391 . S
C143 C147 1.397 . S
C144 C139 1.391 . S
C144 C143 1.391 . S
C144 C145 1.399 . S
C145 C144 1.399 . S
C145 C146 1.396 . S
C145 C148 1.453 . S
C145 C149 1.684 . S
C146 C127 1.723 . S
C146 C145 1.396 . S
C146 C147 1.394 . S
C147 C143 1.397 . S
C147 C146 1.394 . S
C147 C157 1.723 . S
C148 C145 1.453 . S
C148 H172 0.982 . S
C148 H173 0.979 . S
C148 H174 0.977 . S
C149 C145 1.684 . S
C149 H175 0.979 . S
C149 H176 0.980 . S
C149 H177 0.983 . S
C150 H126 0.948 . S
C150 C151 1.391 . S
C150 C155 1.391 . S
C151 C150 1.391 . S
C151 C152 1.391 . S
C152 H129 0.947 . S
C152 C151 1.391 . S
C152 C153 1.392 . S
C153 H130 0.948 . S
C153 C152 1.392 . S
C153 C154 1.419 . S
C154 C153 1.419 . S
C154 C155 1.391 . S
C154 C158 1.397 . S
C155 C150 1.391 . S
C155 C154 1.391 . S
C155 C156 1.399 . S
C156 C155 1.399 . S
C156 C157 1.396 . S
C156 C159 1.453 . S
C156 C160 1.684 . S
C157 C147 1.723 . S
C157 C156 1.396 . S
C157 C158 1.394 . S
C158 C128 1.723 . S
C158 C154 1.397 . S
C158 C157 1.394 . S
C159 H131 0.982 . S
C159 H135 0.979 . S
C159 H136 0.977 . S
C159 C156 1.453 . S
C160 H132 0.979 . S
C160 H133 0.980 . S
C160 H134 0.983 . S
C160 C156 1.684 . S
H161 C179 0.948 . S
H162 C120 0.948 . S
H163 C138 0.979 . S
H164 C138 0.980 . S
H165 C138 0.983 . S
H166 C137 0.982 . S
H167 C137 0.979 . S
H168 C137 0.977 . S
H169 C139 0.948 . S
H170 C141 0.947 . S
H171 C142 0.948 . S
H172 C148 0.982 . S
H173 C148 0.979 . S
H174 C148 0.977 . S
H175 C149 0.979 . S
H176 C149 0.980 . S
H177 C149 0.983 . S
H178 C122 0.947 . S
C179 C122 1.392 . S
C179 C123 1.419 . S
C179 H161 0.948 . S
C180 C181 1.391 . S
C180 C184 1.391 . S
C180 H222 0.948 . S
C181 C180 1.391 . S
C181 C182 1.391 . S
C182 C181 1.391 . S
C182 H238 0.947 . S
C182 C239 1.392 . S
C183 C184 1.391 . S
C183 C187 1.397 . S
C183 C239 1.419 . S
C184 C180 1.391 . S
C184 C183 1.391 . S
C184 C185 1.399 . S
C185 C184 1.399 . S
C185 C188 1.396 . S
C185 C197 1.453 . S
C185 C198 1.684 . S
H186 C210 0.948 . S
C187 C183 1.397 . S
C187 C188 1.394 . S
C187 C206 1.723 . S
C188 C185 1.396 . S
C188 C187 1.394 . S
C188 C218 1.723 . S
H189 C212 0.947 . S
H190 C213 0.948 . S
H191 C219 0.982 . S
H192 C220 0.979 . S
H193 C220 0.980 . S
H194 C220 0.983 . S
H195 C219 0.979 . S
H196 C219 0.977 . S
C197 C185 1.453 . S
C197 H226 0.982 . S
C197 H227 0.979 . S
C197 H228 0.977 . S
C198 C185 1.684 . S
C198 H223 0.979 . S
C198 H224 0.980 . S
C198 H225 0.983 . S
C199 C200 1.391 . S
C199 C204 1.391 . S
C199 H229 0.948 . S
C200 C199 1.391 . S
C200 C201 1.391 . S
C201 C200 1.391 . S
C201 C202 1.392 . S
C201 H230 0.947 . S
C202 C201 1.392 . S
C202 C203 1.419 . S
C202 H231 0.948 . S
C203 C202 1.419 . S
C203 C204 1.391 . S
C203 C207 1.397 . S
C204 C199 1.391 . S
C204 C203 1.391 . S
C204 C205 1.399 . S
C205 C204 1.399 . S
C205 C206 1.396 . S
C205 C208 1.453 . S
C205 C209 1.684 . S
C206 C187 1.723 . S
C206 C205 1.396 . S
C206 C207 1.394 . S
C207 C203 1.397 . S
C207 C206 1.394 . S
C207 C217 1.723 . S
C208 C205 1.453 . S
C208 H232 0.982 . S
C208 H233 0.979 . S
C208 H234 0.977 . S
C209 C205 1.684 . S
C209 H235 0.979 . S
C209 H236 0.980 . S
C209 H237 0.983 . S
C210 H186 0.948 . S
C210 C211 1.391 . S
C210 C215 1.391 . S
C211 C210 1.391 . S
C211 C212 1.391 . S
C212 H189 0.947 . S
C212 C211 1.391 . S
C212 C213 1.392 . S
C213 H190 0.948 . S
C213 C212 1.392 . S
C213 C214 1.419 . S
C214 C213 1.419 . S
C214 C215 1.391 . S
C214 C218 1.397 . S
C215 C210 1.391 . S
C215 C214 1.391 . S
C215 C216 1.399 . S
C216 C215 1.399 . S
C216 C217 1.396 . S
C216 C219 1.453 . S
C216 C220 1.684 . S
C217 C207 1.723 . S
C217 C216 1.396 . S
C217 C218 1.394 . S
C218 C188 1.723 . S
C218 C214 1.397 . S
C218 C217 1.394 . S
C219 H191 0.982 . S
C219 H195 0.979 . S
C219 H196 0.977 . S
C219 C216 1.453 . S
C220 H192 0.979 . S
C220 H193 0.980 . S
C220 H194 0.983 . S
C220 C216 1.684 . S
H221 C239 0.948 . S
H222 C180 0.948 . S
H223 C198 0.979 . S
H224 C198 0.980 . S
H225 C198 0.983 . S
H226 C197 0.982 . S
H227 C197 0.979 . S
H228 C197 0.977 . S
H229 C199 0.948 . S
H230 C201 0.947 . S
H231 C202 0.948 . S
H232 C208 0.982 . S
H233 C208 0.979 . S
H234 C208 0.977 . S
H235 C209 0.979 . S
H236 C209 0.980 . S
H237 C209 0.983 . S
H238 C182 0.947 . S
C239 C182 1.392 . S
C239 C183 1.419 . S
C239 H221 0.948 . S
C240 C241 1.391 . S
C240 C244 1.391 . S
C240 H282 0.948 . S
C241 C240 1.391 . S
C241 C242 1.391 . S
C242 C241 1.391 . S
C242 H298 0.947 . S
C242 C299 1.392 . S
C243 C244 1.391 . S
C243 C247 1.397 . S
C243 C299 1.419 . S
C244 C240 1.391 . S
C244 C243 1.391 . S
C244 C245 1.399 . S
C245 C244 1.399 . S
C245 C248 1.396 . S
C245 C257 1.453 . S
C245 C258 1.684 . S
H246 C270 0.948 . S
C247 C243 1.397 . S
C247 C248 1.394 . S
C247 C266 1.723 . S
C248 C245 1.396 . S
C248 C247 1.394 . S
C248 C278 1.723 . S
H249 C272 0.947 . S
H250 C273 0.948 . S
H251 C279 0.982 . S
H252 C280 0.979 . S
H253 C280 0.980 . S
H254 C280 0.983 . S
H255 C279 0.979 . S
H256 C279 0.977 . S
C257 C245 1.453 . S
C257 H286 0.982 . S
C257 H287 0.979 . S
C257 H288 0.977 . S
C258 C245 1.684 . S
C258 H283 0.979 . S
C258 H284 0.980 . S
C258 H285 0.983 . S
C259 C260 1.391 . S
C259 C264 1.391 . S
C259 H289 0.948 . S
C260 C259 1.391 . S
C260 C261 1.391 . S
C261 C260 1.391 . S
C261 C262 1.392 . S
C261 H290 0.947 . S
C262 C261 1.392 . S
C262 C263 1.419 . S
C262 H291 0.948 . S
C263 C262 1.419 . S
C263 C264 1.391 . S
C263 C267 1.397 . S
C264 C259 1.391 . S
C264 C263 1.391 . S
C264 C265 1.399 . S
C265 C264 1.399 . S
C265 C266 1.396 . S
C265 C268 1.453 . S
C265 C269 1.684 . S
C266 C247 1.723 . S
C266 C265 1.396 . S
C266 C267 1.394 . S
C267 C263 1.397 . S
C267 C266 1.394 . S
C267 C277 1.723 . S
C268 C265 1.453 . S
C268 H292 0.982 . S
C268 H293 0.979 . S
C268 H294 0.977 . S
C269 C265 1.684 . S
C269 H295 0.979 . S
C269 H296 0.980 . S
C269 H297 0.983 . S
C270 H246 0.948 . S
C270 C271 1.391 . S
C270 C275 1.391 . S
C271 C270 1.391 . S
C271 C272 1.391 . S
C272 H249 0.947 . S
C272 C271 1.391 . S
C272 C273 1.392 . S
C273 H250 0.948 . S
C273 C272 1.392 . S
C273 C274 1.419 . S
C274 C273 1.419 . S
C274 C275 1.391 . S
C274 C278 1.397 . S
C275 C270 1.391 . S
C275 C274 1.391 . S
C275 C276 1.399 . S
C276 C275 1.399 . S
C276 C277 1.396 . S
C276 C279 1.453 . S
C276 C280 1.684 . S
C277 C267 1.723 . S
C277 C276 1.396 . S
C277 C278 1.394 . S
C278 C248 1.723 . S
C278 C274 1.397 . S
C278 C277 1.394 . S
C279 H251 0.982 . S
C279 H255 0.979 . S
C279 H256 0.977 . S
C279 C276 1.453 . S
C280 H252 0.979 . S
C280 H253 0.980 . S
C280 H254 0.983 . S
C280 C276 1.684 . S
H281 C299 0.948 . S
H282 C240 0.948 . S
H283 C258 0.979 . S
H284 C258 0.980 . S
H285 C258 0.983 . S
H286 C257 0.982 . S
H287 C257 0.979 . S
H288 C257 0.977 . S
H289 C259 0.948 . S
H290 C261 0.947 . S
H291 C262 0.948 . S
H292 C268 0.982 . S
H293 C268 0.979 . S
H294 C268 0.977 . S
H295 C269 0.979 . S
H296 C269 0.980 . S
H297 C269 0.983 . S
H298 C242 0.947 . S
C299 C242 1.392 . S
C299 C243 1.419 . S
C299 H281 0.948 . S
C300 C301 1.391 . S
C300 C304 1.391 . S
C300 H342 0.948 . S
C301 C300 1.391 . S
C301 C302 1.391 . S
C302 C301 1.391 . S
C302 H358 0.947 . S
C302 C359 1.392 . S
C303 C304 1.391 . S
C303 C307 1.397 . S
C303 C359 1.419 . S
C304 C300 1.391 . S
C304 C303 1.391 . S
C304 C305 1.399 . S
C305 C304 1.399 . S
C305 C308 1.396 . S
C305 C317 1.453 . S
C305 C318 1.684 . S
H306 C330 0.948 . S
C307 C303 1.397 . S
C307 C308 1.394 . S
C307 C326 1.723 . S
C308 C305 1.396 . S
C308 C307 1.394 . S
C308 C338 1.723 . S
H309 C332 0.947 . S
H310 C333 0.948 . S
H311 C339 0.982 . S
H312 C340 0.979 . S
H313 C340 0.980 . S
H314 C340 0.983 . S
H315 C339 0.979 . S
H316 C339 0.977 . S
C317 C305 1.453 . S
C317 H346 0.982 . S
C317 H347 0.979 . S
C317 H348 0.977 . S
C318 C305 1.684 . S
C318 H343 0.979 . S
C318 H344 0.980 . S
C318 H345 0.983 . S
C319 C320 1.391 . S
C319 C324 1.391 . S
C319 H349 0.948 . S
C320 C319 1.391 . S
C320 C321 1.391 . S
C321 C320 1.391 . S
C321 C322 1.392 . S
C321 H350 0.947 . S
C322 C321 1.392 . S
C322 C323 1.419 . S
C322 H351 0.948 . S
C323 C322 1.419 . S
C323 C324 1.391 . S
C323 C327 1.397 . S
C324 C319 1.391 . S
C324 C323 1.391 . S
C324 C325 1.399 . S
C325 C324 1.399 . S
C325 C326 1.396 . S
C325 C328 1.453 . S
C325 C329 1.684 . S
C326 C307 1.723 . S
C326 C325 1.396 . S
C326 C327 1.394 . S
C327 C323 1.397 . S
C327 C326 1.394 . S
C327 C337 1.723 . S
C328 C325 1.453 . S
C328 H352 0.982 . S
C328 H353 0.979 . S
C328 H354 0.977 . S
C329 C325 1.684 . S
C329 H355 0.979 . S
C329 H356 0.980 . S
C329 H357 0.983 . S
C330 H306 0.948 . S
C330 C331 1.391 . S
C330 C335 1.391 . S
C331 C330 1.391 . S
C331 C332 1.391 . S
C332 H309 0.947 . S
C332 C331 1.391 . S
C332 C333 1.392 . S
C333 H310 0.948 . S
C333 C332 1.392 . S
C333 C334 1.419 . S
C334 C333 1.419 . S
C334 C335 1.391 . S
C334 C338 1.397 . S
C335 C330 1.391 . S
C335 C334 1.391 . S
C335 C336 1.399 . S
C336 C335 1.399 . S
C336 C337 1.396 . S
C336 C339 1.453 . S
C336 C340 1.684 . S
C337 C327 1.723 . S
C337 C336 1.396 . S
C337 C338 1.394 . S
C338 C308 1.723 . S
C338 C334 1.397 . S
C338 C337 1.394 . S
C339 H311 0.982 . S
C339 H315 0.979 . S
C339 H316 0.977 . S
C339 C336 1.453 . S
C340 H312 0.979 . S
C340 H313 0.980 . S
C340 H314 0.983 . S
C340 C336 1.684 . S
H341 C359 0.948 . S
H342 C300 0.948 . S
H343 C318 0.979 . S
H344 C318 0.980 . S
H345 C318 0.983 . S
H346 C317 0.982 . S
H347 C317 0.979 . S
H348 C317 0.977 . S
H349 C319 0.948 . S
H350 C321 0.947 . S
H351 C322 0.948 . S
H352 C328 0.982 . S
H353 C328 0.979 . S
H354 C328 0.977 . S
H355 C329 0.979 . S
H356 C329 0.980 . S
H357 C329 0.983 . S
H358 C302 0.947 . S
C359 C302 1.392 . S
C359 C303 1.419 . S
C359 H341 0.948 . S
C360 C361 1.391 . S
C360 C364 1.391 . S
C360 H402 0.948 . S
C361 C360 1.391 . S
C361 C362 1.391 . S
C362 C361 1.391 . S
C362 H418 0.947 . S
C362 C419 1.392 . S
C363 C364 1.391 . S
C363 C367 1.397 . S
C363 C419 1.419 . S
C364 C360 1.391 . S
C364 C363 1.391 . S
C364 C365 1.399 . S
C365 C364 1.399 . S
C365 C368 1.396 . S
C365 C377 1.453 . S
C365 C378 1.684 . S
H366 C390 0.948 . S
C367 C363 1.397 . S
C367 C368 1.394 . S
C367 C386 1.723 . S
C368 C365 1.396 . S
C368 C367 1.394 . S
C368 C398 1.723 . S
H369 C392 0.947 . S
H370 C393 0.948 . S
H371 C399 0.982 . S
H372 C400 0.979 . S
H373 C400 0.980 . S
H374 C400 0.983 . S
H375 C399 0.979 . S
H376 C399 0.977 . S
C377 C365 1.453 . S
C377 H406 0.982 . S
C377 H407 0.979 . S
C377 H408 0.977 . S
C378 C365 1.684 . S
C378 H403 0.979 . S
C378 H404 0.980 . S
C378 H405 0.983 . S
C379 C380 1.391 . S
C379 C384 1.391 . S
C379 H409 0.948 . S
C380 C379 1.391 . S
C380 C381 1.391 . S
C381 C380 1.391 . S
C381 C382 1.392 . S
C381 H410 0.947 . S
C382 C381 1.392 . S
C382 C383 1.419 . S
C382 H411 0.948 . S
C383 C382 1.419 . S
C383 C384 1.391 . S
C383 C387 1.397 . S
C384 C379 1.391 . S
C384 C383 1.391 . S
C384 C385 1.399 . S
C385 C384 1.399 . S
C385 C386 1.396 . S
C385 C388 1.453 . S
C385 C389 1.684 . S
C386 C367 1.723 . S
C386 C385 1.396 . S
C386 C387 1.394 . S
C387 C383 1.397 . S
C387 C386 1.394 . S
C387 C397 1.723 . S
C388 C385 1.453 . S
C388 H412 0.982 . S
C388 H413 0.979 . S
C388 H414 0.977 . S
C389 C385 1.684 . S
C389 H415 0.979 . S
C389 H416 0.980 . S
C389 H417 0.983 . S
C390 H366 0.948 . S
C390 C391 1.391 . S
C390 C395 1.391 . S
C391 C390 1.391 . S
C391 C392 1.391 . S
C392 H369 0.947 . S
C392 C391 1.391 . S
C392 C393 1.392 . S
C393 H370 0.948 . S
C393 C392 1.392 . S
C393 C394 1.419 . S
C394 C393 1.419 . S
C394 C395 1.391 . S
C394 C398 1.397 . S
C395 C390 1.391 . S
C395 C394 1.391 . S
C395 C396 1.399 . S
C396 C395 1.399 . S
C396 C397 1.396 . S
C396 C399 1.453 . S
C396 C400 1.684 . S
C397 C387 1.723 . S
C397 C396 1.396 . S
C397 C398 1.394 . S
C398 C368 1.723 . S
C398 C394 1.397 . S
C398 C397 1.394 . S
C399 H371 0.982 . S
C399 H375 0.979 . S
C399 H376 0.977 . S
C399 C396 1.453 . S
C400 H372 0.979 . S
C400 H373 0.980 . S
C400 H374 0.983 . S
C400 C396 1.684 . S
H401 C419 0.948 . S
H402 C360 0.948 . S
H403 C378 0.979 . S
H404 C378 0.980 . S
H405 C378 0.983 . S
H406 C377 0.982 . S
H407 C377 0.979 . S
H408 C377 0.977 . S
H409 C379 0.948 . S
H410 C381 0.947 . S
H411 C382 0.948 . S
H412 C388 0.982 . S
H413 C388 0.979 . S
H414 C388 0.977 . S
H415 C389 0.979 . S
H416 C389 0.980 . S
H417 C389 0.983 . S
H418 C362 0.947 . S
C419 C362 1.392 . S
C419 C363 1.419 . S
C419 H401 0.948 . S
C420 C421 1.391 . S
C420 C424 1.391 . S
C420 H462 0.948 . S
C421 C420 1.391 . S
C421 C422 1.391 . S
C422 C421 1.391 . S
C422 H478 0.947 . S
C422 C479 1.392 . S
C423 C424 1.391 . S
C423 C427 1.397 . S
C423 C479 1.419 . S
C424 C420 1.391 . S
C424 C423 1.391 . S
C424 C425 1.399 . S
C425 C424 1.399 . S
C425 C428 1.396 . S
C425 C437 1.453 . S
C425 C438 1.684 . S
H426 C450 0.948 . S
C427 C423 1.397 . S
C427 C428 1.394 . S
C427 C446 1.723 . S
C428 C425 1.396 . S
C428 C427 1.394 . S
C428 C458 1.723 . S
H429 C452 0.947 . S
H430 C453 0.948 . S
H431 C459 0.982 . S
H432 C460 0.979 . S
H433 C460 0.980 . S
H434 C460 0.983 . S
H435 C459 0.979 . S
H436 C459 0.977 . S
C437 C425 1.453 . S
C437 H466 0.982 . S
C437 H467 0.979 . S
C437 H468 0.977 . S
C438 C425 1.684 . S
C438 H463 0.979 . S
C438 H464 0.980 . S
C438 H465 0.983 . S
C439 C440 1.391 . S
C439 C444 1.391 . S
C439 H469 0.948 . S
C440 C439 1.391 . S
C440 C441 1.391 . S
C441 C440 1.391 . S
C441 C442 1.392 . S
C441 H470 0.947 . S
C442 C441 1.392 . S
C442 C443 1.419 . S
C442 H471 0.948 . S
C443 C442 1.419 . S
C443 C444 1.391 . S
C443 C447 1.397 . S
C444 C439 1.391 . S
C444 C443 1.391 . S
C444 C445 1.399 . S
C445 C444 1.399 . S
C445 C446 1.396 . S
C445 C448 1.453 . S
C445 C449 1.684 . S
C446 C427 1.723 . S
C446 C445 1.396 . S
C446 C447 1.394 . S
C447 C443 1.397 . S
C447 C446 1.394 . S
C447 C457 1.723 . S
C448 C445 1.453 . S
C448 H472 0.982 . S
C448 H473 0.979 . S
C448 H474 0.977 . S
C449 C445 1.684 . S
C449 H475 0.979 . S
C449 H476 0.980 . S
C449 H477 0.983 . S
C450 H426 0.948 . S
C450 C451 1.391 . S
C450 C455 1.391 . S
C451 C450 1.391 . S
C451 C452 1.391 . S
C452 H429 0.947 . S
C452 C451 1.391 . S
C452 C453 1.392 . S
C453 H430 0.948 . S
C453 C452 1.392 . S
C453 C454 1.419 . S
C454 C453 1.419 . S
C454 C455 1.391 . S
C454 C458 1.397 . S
C455 C450 1.391 . S
C455 C454 1.391 . S
C455 C456 1.399 . S
C456 C455 1.399 . S
C456 C457 1.396 . S
C456 C459 1.453 . S
C456 C460 1.684 . S
C457 C447 1.723 . S
C457 C456 1.396 . S
C457 C458 1.394 . S
C458 C428 1.723 . S
C458 C454 1.397 . S
C458 C457 1.394 . S
C459 H431 0.982 . S
C459 H435 0.979 . S
C459 H436 0.977 . S
C459 C456 1.453 . S
C460 H432 0.979 . S
C460 H433 0.980 . S
C460 H434 0.983 . S
C460 C456 1.684 . S
H461 C479 0.948 . S
H462 C420 0.948 . S
H463 C438 0.979 . S
H464 C438 0.980 . S
H465 C438 0.983 . S
H466 C437 0.982 . S
H467 C437 0.979 . S
H468 C437 0.977 . S
H469 C439 0.948 . S
H470 C441 0.947 . S
H471 C442 0.948 . S
H472 C448 0.982 . S
H473 C448 0.979 . S
H474 C448 0.977 . S
H475 C449 0.979 . S
H476 C449 0.980 . S
H477 C449 0.983 . S
H478 C422 0.947 . S
C479 C422 1.392 . S
C479 C423 1.419 . S
C479 H461 0.948 . S
Sm480 C482 2.846 . S
Sm480 O500 2.543 . S
Sm480 O501 2.450 . S
Sm480 O502 2.681 1_545 S
Sm480 O503 2.464 1_545 S
Sm480 O504 2.396 . S
Sm480 O508 2.386 1_455 S
Sm480 O511 2.408 1_445 S
Sm481 C491 2.846 . S
Sm481 O502 2.386 1_655 S
Sm481 O505 2.408 1_665 S
Sm481 O506 2.543 . S
Sm481 O507 2.450 . S
Sm481 O508 2.681 1_565 S
Sm481 O509 2.464 1_565 S
Sm481 O510 2.396 . S
C482 Sm480 2.846 . S
C482 C483 1.506 . S
C482 O500 1.261 . S
C482 O501 1.242 . S
C483 C482 1.506 . S
C483 C484 1.358 . S
C483 C488 1.382 . S
C484 C483 1.358 . S
C484 C485 1.385 . S
C484 H512 0.930 . S
C485 C484 1.385 . S
C485 C486 1.395 . S
C485 H513 0.929 . S
C486 C485 1.395 . S
C486 C487 1.335 . S
C487 C486 1.335 . S
C487 C488 1.398 . S
C487 H514 0.930 . S
C488 C483 1.382 . S
C488 C487 1.398 . S
C488 H515 0.929 . S
C489 O502 1.271 . S
C489 O503 1.251 . S
C490 O504 1.252 . S
C490 O505 1.272 . S
C491 Sm481 2.846 . S
C491 C492 1.506 . S
C491 O506 1.261 . S
C491 O507 1.242 . S
C492 C491 1.506 . S
C492 C493 1.358 . S
C492 C497 1.382 . S
C493 C492 1.358 . S
C493 C494 1.385 . S
C493 H516 0.930 . S
C494 C493 1.385 . S
C494 C495 1.395 . S
C494 H517 0.929 . S
C495 C494 1.395 . S
C495 C496 1.335 . S
C496 C495 1.335 . S
C496 C497 1.398 . S
C496 H518 0.930 . S
C497 C492 1.382 . S
C497 C496 1.398 . S
C497 H519 0.929 . S
C498 O508 1.271 . S
C498 O509 1.251 . S
C499 O510 1.252 . S
C499 O511 1.272 . S
O500 Sm480 2.543 . S
O500 C482 1.261 . S
O501 Sm480 2.450 . S
O501 C482 1.242 . S
O502 Sm480 2.681 1_565 S
O502 Sm481 2.386 1_455 S
O502 C489 1.271 . S
O503 Sm480 2.464 1_565 S
O503 C489 1.251 . S
O504 Sm480 2.396 . S
O504 C490 1.252 . S
O505 Sm481 2.408 1_445 S
O505 C490 1.272 . S
O506 Sm481 2.543 . S
O506 C491 1.261 . S
O507 Sm481 2.450 . S
O507 C491 1.242 . S
O508 Sm480 2.386 1_655 S
O508 Sm481 2.681 1_545 S
O508 C498 1.271 . S
O509 Sm481 2.464 1_545 S
O509 C498 1.251 . S
O510 Sm481 2.396 . S
O510 C499 1.252 . S
O511 Sm480 2.408 1_665 S
O511 C499 1.272 . S
H512 C484 0.930 . S
H513 C485 0.929 . S
H514 C487 0.930 . S
H515 C488 0.929 . S
H516 C493 0.930 . S
H517 C494 0.929 . S
H518 C496 0.930 . S
H519 C497 0.929 . S
Sm520 C522 2.846 1_565 S
Sm520 O540 2.543 1_565 S
Sm520 O541 2.450 1_565 S
Sm520 O542 2.681 . S
Sm520 O543 2.464 . S
Sm520 O544 2.396 1_565 S
Sm520 O548 2.386 1_564 S
Sm520 O551 2.408 1_554 S
Sm521 C531 2.846 1_545 S
Sm521 O542 2.386 1_546 S
Sm521 O545 2.408 1_556 S
Sm521 O546 2.543 1_545 S
Sm521 O547 2.450 1_545 S
Sm521 O548 2.681 . S
Sm521 O549 2.464 . S
Sm521 O550 2.396 1_545 S
C522 Sm520 2.846 1_545 S
C522 C523 1.506 . S
C522 O540 1.261 . S
C522 O541 1.242 . S
C523 C522 1.506 . S
C523 C524 1.358 . S
C523 C528 1.382 . S
C524 C523 1.358 . S
C524 C525 1.385 . S
C524 H552 0.930 . S
C525 C524 1.385 . S
C525 C526 1.395 . S
C525 H553 0.929 . S
C526 C525 1.395 . S
C526 C527 1.335 . S
C527 C526 1.335 . S
C527 C528 1.398 . S
C527 H554 0.930 . S
C528 C523 1.382 . S
C528 C527 1.398 . S
C528 H555 0.929 . S
C529 O542 1.271 . S
C529 O543 1.251 . S
C530 O544 1.252 . S
C530 O545 1.272 . S
C531 Sm521 2.846 1_565 S
C531 C532 1.506 . S
C531 O546 1.261 . S
C531 O547 1.242 . S
C532 C531 1.506 . S
C532 C533 1.358 . S
C532 C537 1.382 . S
C533 C532 1.358 . S
C533 C534 1.385 . S
C533 H556 0.930 . S
C534 C533 1.385 . S
C534 C535 1.395 . S
C534 H557 0.929 . S
C535 C534 1.395 . S
C535 C536 1.335 . S
C536 C535 1.335 . S
C536 C537 1.398 . S
C536 H558 0.930 . S
C537 C532 1.382 . S
C537 C536 1.398 . S
C537 H559 0.929 . S
C538 O548 1.271 . S
C538 O549 1.251 . S
C539 O550 1.252 . S
C539 O551 1.272 . S
O540 Sm520 2.543 1_545 S
O540 C522 1.261 . S
O541 Sm520 2.450 1_545 S
O541 C522 1.242 . S
O542 Sm520 2.681 . S
O542 Sm521 2.386 1_564 S
O542 C529 1.271 . S
O543 Sm520 2.464 . S
O543 C529 1.251 . S
O544 Sm520 2.396 1_545 S
O544 C530 1.252 . S
O545 Sm521 2.408 1_554 S
O545 C530 1.272 . S
O546 Sm521 2.543 1_565 S
O546 C531 1.261 . S
O547 Sm521 2.450 1_565 S
O547 C531 1.242 . S
O548 Sm520 2.386 1_546 S
O548 Sm521 2.681 . S
O548 C538 1.271 . S
O549 Sm521 2.464 . S
O549 C538 1.251 . S
O550 Sm521 2.396 1_565 S
O550 C539 1.252 . S
O551 Sm520 2.408 1_556 S
O551 C539 1.272 . S
H552 C524 0.930 . S
H553 C525 0.929 . S
H554 C527 0.930 . S
H555 C528 0.929 . S
H556 C533 0.930 . S
H557 C534 0.929 . S
H558 C536 0.930 . S
H559 C537 0.929 . S
Sm560 C562 2.846 . S
Sm560 O580 2.543 . S
Sm560 O581 2.450 . S
Sm560 O582 2.681 . S
Sm560 O583 2.464 . S
Sm560 O584 2.396 . S
Sm560 O588 2.386 . S
Sm560 O591 2.408 . S
Sm561 C571 2.846 . S
Sm561 O582 2.386 . S
Sm561 O585 2.408 . S
Sm561 O586 2.543 . S
Sm561 O587 2.450 . S
Sm561 O588 2.681 . S
Sm561 O589 2.464 . S
Sm561 O590 2.396 . S
C562 Sm560 2.846 . S
C562 C563 1.506 . S
C562 O580 1.261 . S
C562 O581 1.242 . S
C563 C562 1.506 . S
C563 C564 1.358 . S
C563 C568 1.382 . S
C564 C563 1.358 . S
C564 C565 1.385 . S
C564 H592 0.930 . S
C565 C564 1.385 . S
C565 C566 1.395 . S
C565 H593 0.929 . S
C566 C565 1.395 . S
C566 C567 1.335 . S
C567 C566 1.335 . S
C567 C568 1.398 . S
C567 H594 0.930 . S
C568 C563 1.382 . S
C568 C567 1.398 . S
C568 H595 0.929 . S
C569 O582 1.271 . S
C569 O583 1.251 . S
C570 O584 1.252 . S
C570 O585 1.272 . S
C571 Sm561 2.846 . S
C571 C572 1.506 . S
C571 O586 1.261 . S
C571 O587 1.242 . S
C572 C571 1.506 . S
C572 C573 1.358 . S
C572 C577 1.382 . S
C573 C572 1.358 . S
C573 C574 1.385 . S
C573 H596 0.930 . S
C574 C573 1.385 . S
C574 C575 1.395 . S
C574 H597 0.929 . S
C575 C574 1.395 . S
C575 C576 1.335 . S
C576 C575 1.335 . S
C576 C577 1.398 . S
C576 H598 0.930 . S
C577 C572 1.382 . S
C577 C576 1.398 . S
C577 H599 0.929 . S
C578 O588 1.271 . S
C578 O589 1.251 . S
C579 O590 1.252 . S
C579 O591 1.272 . S
O580 Sm560 2.543 . S
O580 C562 1.261 . S
O581 Sm560 2.450 . S
O581 C562 1.242 . S
O582 Sm560 2.681 . S
O582 Sm561 2.386 . S
O582 C569 1.271 . S
O583 Sm560 2.464 . S
O583 C569 1.251 . S
O584 Sm560 2.396 . S
O584 C570 1.252 . S
O585 Sm561 2.408 . S
O585 C570 1.272 . S
O586 Sm561 2.543 . S
O586 C571 1.261 . S
O587 Sm561 2.450 . S
O587 C571 1.242 . S
O588 Sm560 2.386 . S
O588 Sm561 2.681 . S
O588 C578 1.271 . S
O589 Sm561 2.464 . S
O589 C578 1.251 . S
O590 Sm561 2.396 . S
O590 C579 1.252 . S
O591 Sm560 2.408 . S
O591 C579 1.272 . S
H592 C564 0.930 . S
H593 C565 0.929 . S
H594 C567 0.930 . S
H595 C568 0.929 . S
H596 C573 0.930 . S
H597 C574 0.929 . S
H598 C576 0.930 . S
H599 C577 0.929 . S
Sm600 C602 2.846 . S
Sm600 O620 2.543 . S
Sm600 O621 2.450 . S
Sm600 O622 2.681 1_455 S
Sm600 O623 2.464 1_455 S
Sm600 O624 2.396 . S
Sm600 O628 2.386 1_554 S
Sm600 O631 2.408 1_454 S
Sm601 C611 2.846 . S
Sm601 O622 2.386 1_556 S
Sm601 O625 2.408 1_656 S
Sm601 O626 2.543 . S
Sm601 O627 2.450 . S
Sm601 O628 2.681 1_655 S
Sm601 O629 2.464 1_655 S
Sm601 O630 2.396 . S
C602 Sm600 2.846 . S
C602 C603 1.506 . S
C602 O620 1.261 . S
C602 O621 1.242 . S
C603 C602 1.506 . S
C603 C604 1.358 . S
C603 C608 1.382 . S
C604 C603 1.358 . S
C604 C605 1.385 . S
C604 H632 0.930 . S
C605 C604 1.385 . S
C605 C606 1.395 . S
C605 H633 0.929 . S
C606 C605 1.395 . S
C606 C607 1.335 . S
C607 C606 1.335 . S
C607 C608 1.398 . S
C607 H634 0.930 . S
C608 C603 1.382 . S
C608 C607 1.398 . S
C608 H635 0.929 . S
C609 O622 1.271 . S
C609 O623 1.251 . S
C610 O624 1.252 . S
C610 O625 1.272 . S
C611 Sm601 2.846 . S
C611 C612 1.506 . S
C611 O626 1.261 . S
C611 O627 1.242 . S
C612 C611 1.506 . S
C612 C613 1.358 . S
C612 C617 1.382 . S
C613 C612 1.358 . S
C613 C614 1.385 . S
C613 H636 0.930 . S
C614 C613 1.385 . S
C614 C615 1.395 . S
C614 H637 0.929 . S
C615 C614 1.395 . S
C615 C616 1.335 . S
C616 C615 1.335 . S
C616 C617 1.398 . S
C616 H638 0.930 . S
C617 C612 1.382 . S
C617 C616 1.398 . S
C617 H639 0.929 . S
C618 O628 1.271 . S
C618 O629 1.251 . S
C619 O630 1.252 . S
C619 O631 1.272 . S
O620 Sm600 2.543 . S
O620 C602 1.261 . S
O621 Sm600 2.450 . S
O621 C602 1.242 . S
O622 Sm600 2.681 1_655 S
O622 Sm601 2.386 1_554 S
O622 C609 1.271 . S
O623 Sm600 2.464 1_655 S
O623 C609 1.251 . S
O624 Sm600 2.396 . S
O624 C610 1.252 . S
O625 Sm601 2.408 1_454 S
O625 C610 1.272 . S
O626 Sm601 2.543 . S
O626 C611 1.261 . S
O627 Sm601 2.450 . S
O627 C611 1.242 . S
O628 Sm600 2.386 1_556 S
O628 Sm601 2.681 1_455 S
O628 C618 1.271 . S
O629 Sm601 2.464 1_455 S
O629 C618 1.251 . S
O630 Sm601 2.396 . S
O630 C619 1.252 . S
O631 Sm600 2.408 1_656 S
O631 C619 1.272 . S
H632 C604 0.930 . S
H633 C605 0.929 . S
H634 C607 0.930 . S
H635 C608 0.929 . S
H636 C613 0.930 . S
H637 C614 0.929 . S
H638 C616 0.930 . S
H639 C617 0.929 . S
H640 C648 0.950 . S
H641 C653 0.950 . S
H642 C650 0.950 . S
H643 C652 0.950 . S
H644 C654 0.950 . S
H645 C656 0.950 . S
H646 C658 0.950 . S
H647 C659 0.950 . S
C648 H640 0.950 . S
C648 C649 1.386 . S
C648 C650 1.391 . S
C649 C648 1.386 . S
C649 C653 1.393 . S
C650 H642 0.950 . S
C650 C648 1.391 . S
C650 C651 1.400 . S
C651 C650 1.400 . S
C651 C652 1.398 . S
C651 C657 1.491 . S
C652 H643 0.950 . S
C652 C651 1.398 . S
C652 C653 1.391 . S
C653 H641 0.950 . S
C653 C649 1.393 . S
C653 C652 1.391 . S
C654 H644 0.950 . S
C654 C655 1.386 . S
C654 C656 1.391 . S
C655 C654 1.386 . S
C655 C659 1.393 . S
C656 H645 0.950 . S
C656 C654 1.391 . S
C656 C657 1.400 . S
C657 C651 1.491 . S
C657 C656 1.400 . S
C657 C658 1.398 . S
C658 H646 0.950 . S
C658 C657 1.398 . S
C658 C659 1.391 . S
C659 H647 0.950 . S
C659 C655 1.393 . S
C659 C658 1.391 . S
H660 C668 0.950 . S
H661 C673 0.950 . S
H662 C670 0.950 . S
H663 C672 0.950 . S
H664 C674 0.950 . S
H665 C676 0.950 . S
H666 C678 0.950 . S
H667 C679 0.950 . S
C668 H660 0.950 . S
C668 C669 1.386 . S
C668 C670 1.391 . S
C669 C668 1.386 . S
C669 C673 1.393 . S
C670 H662 0.950 . S
C670 C668 1.391 . S
C670 C671 1.400 . S
C671 C670 1.400 . S
C671 C672 1.398 . S
C671 C677 1.491 . S
C672 H663 0.950 . S
C672 C671 1.398 . S
C672 C673 1.391 . S
C673 H661 0.950 . S
C673 C669 1.393 . S
C673 C672 1.391 . S
C674 H664 0.950 . S
C674 C675 1.386 . S
C674 C676 1.391 . S
C675 C674 1.386 . S
C675 C679 1.393 . S
C676 H665 0.950 . S
C676 C674 1.391 . S
C676 C677 1.400 . S
C677 C671 1.491 . S
C677 C676 1.400 . S
C677 C678 1.398 . S
C678 H666 0.950 . S
C678 C677 1.398 . S
C678 C679 1.391 . S
C679 H667 0.950 . S
C679 C675 1.393 . S
C679 C678 1.391 . S
H680 C688 0.950 . S
H681 C693 0.950 . S
H682 C690 0.950 . S
H683 C692 0.950 . S
H684 C694 0.950 . S
H685 C696 0.950 . S
H686 C698 0.950 . S
H687 C699 0.950 . S
C688 H680 0.950 . S
C688 C689 1.386 . S
C688 C690 1.391 . S
C689 C688 1.386 . S
C689 C693 1.393 . S
C690 H682 0.950 . S
C690 C688 1.391 . S
C690 C691 1.400 . S
C691 C690 1.400 . S
C691 C692 1.398 . S
C691 C697 1.491 . S
C692 H683 0.950 . S
C692 C691 1.398 . S
C692 C693 1.391 . S
C693 H681 0.950 . S
C693 C689 1.393 . S
C693 C692 1.391 . S
C694 H684 0.950 . S
C694 C695 1.386 . S
C694 C696 1.391 . S
C695 C694 1.386 . S
C695 C699 1.393 . S
C696 H685 0.950 . S
C696 C694 1.391 . S
C696 C697 1.400 . S
C697 C691 1.491 . S
C697 C696 1.400 . S
C697 C698 1.398 . S
C698 H686 0.950 . S
C698 C697 1.398 . S
C698 C699 1.391 . S
C699 H687 0.950 . S
C699 C695 1.393 . S
C699 C698 1.391 . S
H700 C708 0.950 . S
H701 C713 0.950 . S
H702 C710 0.950 . S
H703 C712 0.950 . S
H704 C714 0.950 . S
H705 C716 0.950 . S
H706 C718 0.950 . S
H707 C719 0.950 . S
C708 H700 0.950 . S
C708 C709 1.386 . S
C708 C710 1.391 . S
C709 C708 1.386 . S
C709 C713 1.393 . S
C710 H702 0.950 . S
C710 C708 1.391 . S
C710 C711 1.400 . S
C711 C710 1.400 . S
C711 C712 1.398 . S
C711 C717 1.491 . S
C712 H703 0.950 . S
C712 C711 1.398 . S
C712 C713 1.391 . S
C713 H701 0.950 . S
C713 C709 1.393 . S
C713 C712 1.391 . S
C714 H704 0.950 . S
C714 C715 1.386 . S
C714 C716 1.391 . S
C715 C714 1.386 . S
C715 C719 1.393 . S
C716 H705 0.950 . S
C716 C714 1.391 . S
C716 C717 1.400 . S
C717 C711 1.491 . S
C717 C716 1.400 . S
C717 C718 1.398 . S
C718 H706 0.950 . S
C718 C717 1.398 . S
C718 C719 1.391 . S
C719 H707 0.950 . S
C719 C715 1.393 . S
C719 C718 1.391 . S
H720 C728 0.950 . S
H721 C733 0.950 . S
H722 C730 0.950 . S
H723 C732 0.950 . S
H724 C734 0.950 . S
H725 C736 0.950 . S
H726 C738 0.950 . S
H727 C739 0.950 . S
C728 H720 0.950 . S
C728 C729 1.386 . S
C728 C730 1.391 . S
C729 C728 1.386 . S
C729 C733 1.393 . S
C730 H722 0.950 . S
C730 C728 1.391 . S
C730 C731 1.400 . S
C731 C730 1.400 . S
C731 C732 1.398 . S
C731 C737 1.491 . S
C732 H723 0.950 . S
C732 C731 1.398 . S
C732 C733 1.391 . S
C733 H721 0.950 . S
C733 C729 1.393 . S
C733 C732 1.391 . S
C734 H724 0.950 . S
C734 C735 1.386 . S
C734 C736 1.391 . S
C735 C734 1.386 . S
C735 C739 1.393 . S
C736 H725 0.950 . S
C736 C734 1.391 . S
C736 C737 1.400 . S
C737 C731 1.491 . S
C737 C736 1.400 . S
C737 C738 1.398 . S
C738 H726 0.950 . S
C738 C737 1.398 . S
C738 C739 1.391 . S
C739 H727 0.950 . S
C739 C735 1.393 . S
C739 C738 1.391 . S
H740 C748 0.950 . S
H741 C753 0.950 . S
H742 C750 0.950 . S
H743 C752 0.950 . S
H744 C754 0.950 . S
H745 C756 0.950 . S
H746 C758 0.950 . S
H747 C759 0.950 . S
C748 H740 0.950 . S
C748 C749 1.386 . S
C748 C750 1.391 . S
C749 C748 1.386 . S
C749 C753 1.393 . S
C750 H742 0.950 . S
C750 C748 1.391 . S
C750 C751 1.400 . S
C751 C750 1.400 . S
C751 C752 1.398 . S
C751 C757 1.491 . S
C752 H743 0.950 . S
C752 C751 1.398 . S
C752 C753 1.391 . S
C753 H741 0.950 . S
C753 C749 1.393 . S
C753 C752 1.391 . S
C754 H744 0.950 . S
C754 C755 1.386 . S
C754 C756 1.391 . S
C755 C754 1.386 . S
C755 C759 1.393 . S
C756 H745 0.950 . S
C756 C754 1.391 . S
C756 C757 1.400 . S
C757 C751 1.491 . S
C757 C756 1.400 . S
C757 C758 1.398 . S
C758 H746 0.950 . S
C758 C757 1.398 . S
C758 C759 1.391 . S
C759 H747 0.950 . S
C759 C755 1.393 . S
C759 C758 1.391 . S
H760 C768 0.950 . S
H761 C773 0.950 . S
H762 C770 0.950 . S
H763 C772 0.950 . S
H764 C774 0.950 . S
H765 C776 0.950 . S
H766 C778 0.950 . S
H767 C779 0.950 . S
C768 H760 0.950 . S
C768 C769 1.386 . S
C768 C770 1.391 . S
C769 C768 1.386 . S
C769 C773 1.393 . S
C770 H762 0.950 . S
C770 C768 1.391 . S
C770 C771 1.400 . S
C771 C770 1.400 . S
C771 C772 1.398 . S
C771 C777 1.491 . S
C772 H763 0.950 . S
C772 C771 1.398 . S
C772 C773 1.391 . S
C773 H761 0.950 . S
C773 C769 1.393 . S
C773 C772 1.391 . S
C774 H764 0.950 . S
C774 C775 1.386 . S
C774 C776 1.391 . S
C775 C774 1.386 . S
C775 C779 1.393 . S
C776 H765 0.950 . S
C776 C774 1.391 . S
C776 C777 1.400 . S
C777 C771 1.491 . S
C777 C776 1.400 . S
C777 C778 1.398 . S
C778 H766 0.950 . S
C778 C777 1.398 . S
C778 C779 1.391 . S
C779 H767 0.950 . S
C779 C775 1.393 . S
C779 C778 1.391 . S
H780 C788 0.950 . S
H781 C793 0.950 . S
H782 C790 0.950 . S
H783 C792 0.950 . S
H784 C794 0.950 . S
H785 C796 0.950 . S
H786 C798 0.950 . S
H787 C799 0.950 . S
C788 H780 0.950 . S
C788 C789 1.386 . S
C788 C790 1.391 . S
C789 C788 1.386 . S
C789 C793 1.393 . S
C790 H782 0.950 . S
C790 C788 1.391 . S
C790 C791 1.400 . S
C791 C790 1.400 . S
C791 C792 1.398 . S
C791 C797 1.491 . S
C792 H783 0.950 . S
C792 C791 1.398 . S
C792 C793 1.391 . S
C793 H781 0.950 . S
C793 C789 1.393 . S
C793 C792 1.391 . S
C794 H784 0.950 . S
C794 C795 1.386 . S
C794 C796 1.391 . S
C795 C794 1.386 . S
C795 C799 1.393 . S
C796 H785 0.950 . S
C796 C794 1.391 . S
C796 C797 1.400 . S
C797 C791 1.491 . S
C797 C796 1.400 . S
C797 C798 1.398 . S
C798 H786 0.950 . S
C798 C797 1.398 . S
C798 C799 1.391 . S
C799 H787 0.950 . S
C799 C795 1.393 . S
C799 C798 1.391 . S
H800 C808 0.950 . S
H801 C813 0.950 . S
H802 C810 0.950 . S
H803 C812 0.950 . S
H804 C814 0.950 . S
H805 C816 0.950 . S
H806 C818 0.950 . S
H807 C819 0.950 . S
C808 H800 0.950 . S
C808 C809 1.386 . S
C808 C810 1.391 . S
C809 C808 1.386 . S
C809 C813 1.393 . S
C810 H802 0.950 . S
C810 C808 1.391 . S
C810 C811 1.400 . S
C811 C810 1.400 . S
C811 C812 1.398 . S
C811 C817 1.491 . S
C812 H803 0.950 . S
C812 C811 1.398 . S
C812 C813 1.391 . S
C813 H801 0.950 . S
C813 C809 1.393 . S
C813 C812 1.391 . S
C814 H804 0.950 . S
C814 C815 1.386 . S
C814 C816 1.391 . S
C815 C814 1.386 . S
C815 C819 1.393 . S
C816 H805 0.950 . S
C816 C814 1.391 . S
C816 C817 1.400 . S
C817 C811 1.491 . S
C817 C816 1.400 . S
C817 C818 1.398 . S
C818 H806 0.950 . S
C818 C817 1.398 . S
C818 C819 1.391 . S
C819 H807 0.950 . S
C819 C815 1.393 . S
C819 C818 1.391 . S
H820 C828 0.950 . S
H821 C833 0.950 . S
H822 C830 0.950 . S
H823 C832 0.950 . S
H824 C834 0.950 . S
H825 C836 0.950 . S
H826 C838 0.950 . S
H827 C839 0.950 . S
C828 H820 0.950 . S
C828 C829 1.386 . S
C828 C830 1.391 . S
C829 C828 1.386 . S
C829 C833 1.393 . S
C830 H822 0.950 . S
C830 C828 1.391 . S
C830 C831 1.400 . S
C831 C830 1.400 . S
C831 C832 1.398 . S
C831 C837 1.491 . S
C832 H823 0.950 . S
C832 C831 1.398 . S
C832 C833 1.391 . S
C833 H821 0.950 . S
C833 C829 1.393 . S
C833 C832 1.391 . S
C834 H824 0.950 . S
C834 C835 1.386 . S
C834 C836 1.391 . S
C835 C834 1.386 . S
C835 C839 1.393 . S
C836 H825 0.950 . S
C836 C834 1.391 . S
C836 C837 1.400 . S
C837 C831 1.491 . S
C837 C836 1.400 . S
C837 C838 1.398 . S
C838 H826 0.950 . S
C838 C837 1.398 . S
C838 C839 1.391 . S
C839 H827 0.950 . S
C839 C835 1.393 . S
C839 C838 1.391 . S
H840 C848 0.950 . S
H841 C853 0.950 . S
H842 C850 0.950 . S
H843 C852 0.950 . S
H844 C854 0.950 . S
H845 C856 0.950 . S
H846 C858 0.950 . S
H847 C859 0.950 . S
C848 H840 0.950 . S
C848 C849 1.386 . S
C848 C850 1.391 . S
C849 C848 1.386 . S
C849 C853 1.393 . S
C850 H842 0.950 . S
C850 C848 1.391 . S
C850 C851 1.400 . S
C851 C850 1.400 . S
C851 C852 1.398 . S
C851 C857 1.491 . S
C852 H843 0.950 . S
C852 C851 1.398 . S
C852 C853 1.391 . S
C853 H841 0.950 . S
C853 C849 1.393 . S
C853 C852 1.391 . S
C854 H844 0.950 . S
C854 C855 1.386 . S
C854 C856 1.391 . S
C855 C854 1.386 . S
C855 C859 1.393 . S
C856 H845 0.950 . S
C856 C854 1.391 . S
C856 C857 1.400 . S
C857 C851 1.491 . S
C857 C856 1.400 . S
C857 C858 1.398 . S
C858 H846 0.950 . S
C858 C857 1.398 . S
C858 C859 1.391 . S
C859 H847 0.950 . S
C859 C855 1.393 . S
C859 C858 1.391 . S
H860 C868 0.950 . S
H861 C873 0.950 . S
H862 C870 0.950 . S
H863 C872 0.950 . S
H864 C874 0.950 . S
H865 C876 0.950 . S
H866 C878 0.950 . S
H867 C879 0.950 . S
C868 H860 0.950 . S
C868 C869 1.386 . S
C868 C870 1.391 . S
C869 C868 1.386 . S
C869 C873 1.393 . S
C870 H862 0.950 . S
C870 C868 1.391 . S
C870 C871 1.400 . S
C871 C870 1.400 . S
C871 C872 1.398 . S
C871 C877 1.491 . S
C872 H863 0.950 . S
C872 C871 1.398 . S
C872 C873 1.391 . S
C873 H861 0.950 . S
C873 C869 1.393 . S
C873 C872 1.391 . S
C874 H864 0.950 . S
C874 C875 1.386 . S
C874 C876 1.391 . S
C875 C874 1.386 . S
C875 C879 1.393 . S
C876 H865 0.950 . S
C876 C874 1.391 . S
C876 C877 1.400 . S
C877 C871 1.491 . S
C877 C876 1.400 . S
C877 C878 1.398 . S
C878 H866 0.950 . S
C878 C877 1.398 . S
C878 C879 1.391 . S
C879 H867 0.950 . S
C879 C875 1.393 . S
C879 C878 1.391 . S
H880 C888 0.950 . S
H881 C893 0.950 . S
H882 C890 0.950 . S
H883 C892 0.950 . S
H884 C894 0.950 . S
H885 C896 0.950 . S
H886 C898 0.950 . S
H887 C899 0.950 . S
C888 H880 0.950 . S
C888 C889 1.386 . S
C888 C890 1.391 . S
C889 C888 1.386 . S
C889 C893 1.393 . S
C890 H882 0.950 . S
C890 C888 1.391 . S
C890 C891 1.400 . S
C891 C890 1.400 . S
C891 C892 1.398 . S
C891 C897 1.491 . S
C892 H883 0.950 . S
C892 C891 1.398 . S
C892 C893 1.391 . S
C893 H881 0.950 . S
C893 C889 1.393 . S
C893 C892 1.391 . S
C894 H884 0.950 . S
C894 C895 1.386 . S
C894 C896 1.391 . S
C895 C894 1.386 . S
C895 C899 1.393 . S
C896 H885 0.950 . S
C896 C894 1.391 . S
C896 C897 1.400 . S
C897 C891 1.491 . S
C897 C896 1.400 . S
C897 C898 1.398 . S
C898 H886 0.950 . S
C898 C897 1.398 . S
C898 C899 1.391 . S
C899 H887 0.950 . S
C899 C895 1.393 . S
C899 C898 1.391 . S
H900 C908 0.950 . S
H901 C913 0.950 . S
H902 C910 0.950 . S
H903 C912 0.950 . S
H904 C914 0.950 . S
H905 C916 0.950 . S
H906 C918 0.950 . S
H907 C919 0.950 . S
C908 H900 0.950 . S
C908 C909 1.386 . S
C908 C910 1.391 . S
C909 C908 1.386 . S
C909 C913 1.393 . S
C910 H902 0.950 . S
C910 C908 1.391 . S
C910 C911 1.400 . S
C911 C910 1.400 . S
C911 C912 1.398 . S
C911 C917 1.491 . S
C912 H903 0.950 . S
C912 C911 1.398 . S
C912 C913 1.391 . S
C913 H901 0.950 . S
C913 C909 1.393 . S
C913 C912 1.391 . S
C914 H904 0.950 . S
C914 C915 1.386 . S
C914 C916 1.391 . S
C915 C914 1.386 . S
C915 C919 1.393 . S
C916 H905 0.950 . S
C916 C914 1.391 . S
C916 C917 1.400 . S
C917 C911 1.491 . S
C917 C916 1.400 . S
C917 C918 1.398 . S
C918 H906 0.950 . S
C918 C917 1.398 . S
C918 C919 1.391 . S
C919 H907 0.950 . S
C919 C915 1.393 . S
C919 C918 1.391 . S
H920 C928 0.950 . S
H921 C933 0.950 . S
H922 C930 0.950 . S
H923 C932 0.950 . S
H924 C934 0.950 . S
H925 C936 0.950 . S
H926 C938 0.950 . S
H927 C939 0.950 . S
C928 H920 0.950 . S
C928 C929 1.386 . S
C928 C930 1.391 . S
C929 C928 1.386 . S
C929 C933 1.393 . S
C930 H922 0.950 . S
C930 C928 1.391 . S
C930 C931 1.400 . S
C931 C930 1.400 . S
C931 C932 1.398 . S
C931 C937 1.491 . S
C932 H923 0.950 . S
C932 C931 1.398 . S
C932 C933 1.391 . S
C933 H921 0.950 . S
C933 C929 1.393 . S
C933 C932 1.391 . S
C934 H924 0.950 . S
C934 C935 1.386 . S
C934 C936 1.391 . S
C935 C934 1.386 . S
C935 C939 1.393 . S
C936 H925 0.950 . S
C936 C934 1.391 . S
C936 C937 1.400 . S
C937 C931 1.491 . S
C937 C936 1.400 . S
C937 C938 1.398 . S
C938 H926 0.950 . S
C938 C937 1.398 . S
C938 C939 1.391 . S
C939 H927 0.950 . S
C939 C935 1.393 . S
C939 C938 1.391 . S
H940 C948 0.950 . S
H941 C953 0.950 . S
H942 C950 0.950 . S
H943 C952 0.950 . S
H944 C954 0.950 . S
H945 C956 0.950 . S
H946 C958 0.950 . S
H947 C959 0.950 . S
C948 H940 0.950 . S
C948 C949 1.386 . S
C948 C950 1.391 . S
C949 C948 1.386 . S
C949 C953 1.393 . S
C950 H942 0.950 . S
C950 C948 1.391 . S
C950 C951 1.400 . S
C951 C950 1.400 . S
C951 C952 1.398 . S
C951 C957 1.491 . S
C952 H943 0.950 . S
C952 C951 1.398 . S
C952 C953 1.391 . S
C953 H941 0.950 . S
C953 C949 1.393 . S
C953 C952 1.391 . S
C954 H944 0.950 . S
C954 C955 1.386 . S
C954 C956 1.391 . S
C955 C954 1.386 . S
C955 C959 1.393 . S
C956 H945 0.950 . S
C956 C954 1.391 . S
C956 C957 1.400 . S
C957 C951 1.491 . S
C957 C956 1.400 . S
C957 C958 1.398 . S
C958 H946 0.950 . S
C958 C957 1.398 . S
C958 C959 1.391 . S
C959 H947 0.950 . S
C959 C955 1.393 . S
C959 C958 1.391 . S
H960 C968 0.950 . S
H961 C973 0.950 . S
H962 C970 0.950 . S
H963 C972 0.950 . S
H964 C974 0.950 . S
H965 C976 0.950 . S
H966 C978 0.950 . S
H967 C979 0.950 . S
C968 H960 0.950 . S
C968 C969 1.386 . S
C968 C970 1.391 . S
C969 C968 1.386 . S
C969 C973 1.393 . S
C970 H962 0.950 . S
C970 C968 1.391 . S
C970 C971 1.400 . S
C971 C970 1.400 . S
C971 C972 1.398 . S
C971 C977 1.491 . S
C972 H963 0.950 . S
C972 C971 1.398 . S
C972 C973 1.391 . S
C973 H961 0.950 . S
C973 C969 1.393 . S
C973 C972 1.391 . S
C974 H964 0.950 . S
C974 C975 1.386 . S
C974 C976 1.391 . S
C975 C974 1.386 . S
C975 C979 1.393 . S
C976 H965 0.950 . S
C976 C974 1.391 . S
C976 C977 1.400 . S
C977 C971 1.491 . S
C977 C976 1.400 . S
C977 C978 1.398 . S
C978 H966 0.950 . S
C978 C977 1.398 . S
C978 C979 1.391 . S
C979 H967 0.950 . S
C979 C975 1.393 . S
C979 C978 1.391 . S
H980 C988 0.950 . S
H981 C993 0.950 . S
H982 C990 0.950 . S
H983 C992 0.950 . S
H984 C994 0.950 . S
H985 C996 0.950 . S
H986 C998 0.950 . S
H987 C999 0.950 . S
C988 H980 0.950 . S
C988 C989 1.386 . S
C988 C990 1.391 . S
C989 C988 1.386 . S
C989 C993 1.393 . S
C990 H982 0.950 . S
C990 C988 1.391 . S
C990 C991 1.400 . S
C991 C990 1.400 . S
C991 C992 1.398 . S
C991 C997 1.491 . S
C992 H983 0.950 . S
C992 C991 1.398 . S
C992 C993 1.391 . S
C993 H981 0.950 . S
C993 C989 1.393 . S
C993 C992 1.391 . S
C994 H984 0.950 . S
C994 C995 1.386 . S
C994 C996 1.391 . S
C995 C994 1.386 . S
C995 C999 1.393 . S
C996 H985 0.950 . S
C996 C994 1.391 . S
C996 C997 1.400 . S
C997 C991 1.491 . S
C997 C996 1.400 . S
C997 C998 1.398 . S
C998 H986 0.950 . S
C998 C997 1.398 . S
C998 C999 1.391 . S
C999 H987 0.950 . S
C999 C995 1.393 . S
C999 C998 1.391 . S
H1000 C1008 0.950 . S
H1001 C1013 0.950 . S
H1002 C1010 0.950 . S
H1003 C1012 0.950 . S
H1004 C1014 0.950 . S
H1005 C1016 0.950 . S
H1006 C1018 0.950 . S
H1007 C1019 0.950 . S
C1008 H1000 0.950 . S
C1008 C1009 1.386 . S
C1008 C1010 1.391 . S
C1009 C1008 1.386 . S
C1009 C1013 1.393 . S
C1010 H1002 0.950 . S
C1010 C1008 1.391 . S
C1010 C1011 1.400 . S
C1011 C1010 1.400 . S
C1011 C1012 1.398 . S
C1011 C1017 1.491 . S
C1012 H1003 0.950 . S
C1012 C1011 1.398 . S
C1012 C1013 1.391 . S
C1013 H1001 0.950 . S
C1013 C1009 1.393 . S
C1013 C1012 1.391 . S
C1014 H1004 0.950 . S
C1014 C1015 1.386 . S
C1014 C1016 1.391 . S
C1015 C1014 1.386 . S
C1015 C1019 1.393 . S
C1016 H1005 0.950 . S
C1016 C1014 1.391 . S
C1016 C1017 1.400 . S
C1017 C1011 1.491 . S
C1017 C1016 1.400 . S
C1017 C1018 1.398 . S
C1018 H1006 0.950 . S
C1018 C1017 1.398 . S
C1018 C1019 1.391 . S
C1019 H1007 0.950 . S
C1019 C1015 1.393 . S
C1019 C1018 1.391 . S
H1020 C1028 0.950 . S
H1021 C1033 0.950 . S
H1022 C1030 0.950 . S
H1023 C1032 0.950 . S
H1024 C1034 0.950 . S
H1025 C1036 0.950 . S
H1026 C1038 0.950 . S
H1027 C1039 0.950 . S
C1028 H1020 0.950 . S
C1028 C1029 1.386 . S
C1028 C1030 1.391 . S
C1029 C1028 1.386 . S
C1029 C1033 1.393 . S
C1030 H1022 0.950 . S
C1030 C1028 1.391 . S
C1030 C1031 1.400 . S
C1031 C1030 1.400 . S
C1031 C1032 1.398 . S
C1031 C1037 1.491 . S
C1032 H1023 0.950 . S
C1032 C1031 1.398 . S
C1032 C1033 1.391 . S
C1033 H1021 0.950 . S
C1033 C1029 1.393 . S
C1033 C1032 1.391 . S
C1034 H1024 0.950 . S
C1034 C1035 1.386 . S
C1034 C1036 1.391 . S
C1035 C1034 1.386 . S
C1035 C1039 1.393 . S
C1036 H1025 0.950 . S
C1036 C1034 1.391 . S
C1036 C1037 1.400 . S
C1037 C1031 1.491 . S
C1037 C1036 1.400 . S
C1037 C1038 1.398 . S
C1038 H1026 0.950 . S
C1038 C1037 1.398 . S
C1038 C1039 1.391 . S
C1039 H1027 0.950 . S
C1039 C1035 1.393 . S
C1039 C1038 1.391 . S
H1040 C1048 0.950 . S
H1041 C1053 0.950 . S
H1042 C1050 0.950 . S
H1043 C1052 0.950 . S
H1044 C1054 0.950 . S
H1045 C1056 0.950 . S
H1046 C1058 0.950 . S
H1047 C1059 0.950 . S
C1048 H1040 0.950 . S
C1048 C1049 1.386 . S
C1048 C1050 1.391 . S
C1049 C1048 1.386 . S
C1049 C1053 1.393 . S
C1050 H1042 0.950 . S
C1050 C1048 1.391 . S
C1050 C1051 1.400 . S
C1051 C1050 1.400 . S
C1051 C1052 1.398 . S
C1051 C1057 1.491 . S
C1052 H1043 0.950 . S
C1052 C1051 1.398 . S
C1052 C1053 1.391 . S
C1053 H1041 0.950 . S
C1053 C1049 1.393 . S
C1053 C1052 1.391 . S
C1054 H1044 0.950 . S
C1054 C1055 1.386 . S
C1054 C1056 1.391 . S
C1055 C1054 1.386 . S
C1055 C1059 1.393 . S
C1056 H1045 0.950 . S
C1056 C1054 1.391 . S
C1056 C1057 1.400 . S
C1057 C1051 1.491 . S
C1057 C1056 1.400 . S
C1057 C1058 1.398 . S
C1058 H1046 0.950 . S
C1058 C1057 1.398 . S
C1058 C1059 1.391 . S
C1059 H1047 0.950 . S
C1059 C1055 1.393 . S
C1059 C1058 1.391 . S
H1060 C1068 0.950 . S
H1061 C1073 0.950 . S
H1062 C1070 0.950 . S
H1063 C1072 0.950 . S
H1064 C1074 0.950 . S
H1065 C1076 0.950 . S
H1066 C1078 0.950 . S
H1067 C1079 0.950 . S
C1068 H1060 0.950 . S
C1068 C1069 1.386 . S
C1068 C1070 1.391 . S
C1069 C1068 1.386 . S
C1069 C1073 1.393 . S
C1070 H1062 0.950 . S
C1070 C1068 1.391 . S
C1070 C1071 1.400 . S
C1071 C1070 1.400 . S
C1071 C1072 1.398 . S
C1071 C1077 1.491 . S
C1072 H1063 0.950 . S
C1072 C1071 1.398 . S
C1072 C1073 1.391 . S
C1073 H1061 0.950 . S
C1073 C1069 1.393 . S
C1073 C1072 1.391 . S
C1074 H1064 0.950 . S
C1074 C1075 1.386 . S
C1074 C1076 1.391 . S
C1075 C1074 1.386 . S
C1075 C1079 1.393 . S
C1076 H1065 0.950 . S
C1076 C1074 1.391 . S
C1076 C1077 1.400 . S
C1077 C1071 1.491 . S
C1077 C1076 1.400 . S
C1077 C1078 1.398 . S
C1078 H1066 0.950 . S
C1078 C1077 1.398 . S
C1078 C1079 1.391 . S
C1079 H1067 0.950 . S
C1079 C1075 1.393 . S
C1079 C1078 1.391 . S
H1080 C1088 0.950 . S
H1081 C1093 0.950 . S
H1082 C1090 0.950 . S
H1083 C1092 0.950 . S
H1084 C1094 0.950 . S
H1085 C1096 0.950 . S
H1086 C1098 0.950 . S
H1087 C1099 0.950 . S
C1088 H1080 0.950 . S
C1088 C1089 1.386 . S
C1088 C1090 1.391 . S
C1089 C1088 1.386 . S
C1089 C1093 1.393 . S
C1090 H1082 0.950 . S
C1090 C1088 1.391 . S
C1090 C1091 1.400 . S
C1091 C1090 1.400 . S
C1091 C1092 1.398 . S
C1091 C1097 1.491 . S
C1092 H1083 0.950 . S
C1092 C1091 1.398 . S
C1092 C1093 1.391 . S
C1093 H1081 0.950 . S
C1093 C1089 1.393 . S
C1093 C1092 1.391 . S
C1094 H1084 0.950 . S
C1094 C1095 1.386 . S
C1094 C1096 1.391 . S
C1095 C1094 1.386 . S
C1095 C1099 1.393 . S
C1096 H1085 0.950 . S
C1096 C1094 1.391 . S
C1096 C1097 1.400 . S
C1097 C1091 1.491 . S
C1097 C1096 1.400 . S
C1097 C1098 1.398 . S
C1098 H1086 0.950 . S
C1098 C1097 1.398 . S
C1098 C1099 1.391 . S
C1099 H1087 0.950 . S
C1099 C1095 1.393 . S
C1099 C1098 1.391 . S
H1100 C1108 0.950 . S
H1101 C1113 0.950 . S
H1102 C1110 0.950 . S
H1103 C1112 0.950 . S
H1104 C1114 0.950 . S
H1105 C1116 0.950 . S
H1106 C1118 0.950 . S
H1107 C1119 0.950 . S
C1108 H1100 0.950 . S
C1108 C1109 1.386 . S
C1108 C1110 1.391 . S
C1109 C1108 1.386 . S
C1109 C1113 1.393 . S
C1110 H1102 0.950 . S
C1110 C1108 1.391 . S
C1110 C1111 1.400 . S
C1111 C1110 1.400 . S
C1111 C1112 1.398 . S
C1111 C1117 1.491 . S
C1112 H1103 0.950 . S
C1112 C1111 1.398 . S
C1112 C1113 1.391 . S
C1113 H1101 0.950 . S
C1113 C1109 1.393 . S
C1113 C1112 1.391 . S
C1114 H1104 0.950 . S
C1114 C1115 1.386 . S
C1114 C1116 1.391 . S
C1115 C1114 1.386 . S
C1115 C1119 1.393 . S
C1116 H1105 0.950 . S
C1116 C1114 1.391 . S
C1116 C1117 1.400 . S
C1117 C1111 1.491 . S
C1117 C1116 1.400 . S
C1117 C1118 1.398 . S
C1118 H1106 0.950 . S
C1118 C1117 1.398 . S
C1118 C1119 1.391 . S
C1119 H1107 0.950 . S
C1119 C1115 1.393 . S
C1119 C1118 1.391 . S
C649 C1 1.155 . S
C655 C486 1.267 . S
C669 C80 0.959 . S
C675 C535 0.977 . S
C695 C570 2.477 . S
C689 C140 2.470 . S
C709 C211 2.364 . S
C715 C609 2.342 . S
C735 C530 2.486 . S
C729 C31 2.222 . S
C755 C489 0.871 . S
C749 C61 0.870 . S
C775 C619 1.893 . S
C769 C151 1.924 . S
C795 C578 1.603 . S
C789 C200 1.615 . S
C809 C20 1.631 . S
C815 C606 1.734 . S
C835 C538 2.319 . S
C829 C121 2.394 . S
C849 C181 2.294 . S
C855 C499 2.340 . S
C869 C91 0.838 . S
C875 C575 0.830 . S
C895 C495 1.274 . S
C889 C260 1.219 . S
C909 C320 0.948 . S
C915 C526 0.967 . S
C929 C361 2.475 . S
C935 C579 2.477 . S
C949 C451 2.363 . S
C955 C618 2.336 . S
C969 C271 2.314 . S
C975 C539 2.488 . S
C995 C498 0.823 . S
C989 C301 0.835 . S
C1015 C610 1.890 . S
C1009 C380 1.895 . S
C1035 C569 1.603 . S
C1029 C440 1.616 . S
C1049 C241 1.558 . S
C1055 C615 1.736 . S
C1075 C529 2.317 . S
C1069 C391 2.393 . S
C1095 C490 2.338 . S
C1089 C421 2.307 . S
C1109 C331 0.834 . S
C1115 C566 0.838 . S
