# Generated by pormake.
# Topology pth, (4,4)-cn, num edge types: 1
# Building blocks:
#     Node 0, Type 0, BuildingBlock: QUQFOY_clean_sbu_1, # of connection points: 4
#     Node 1, Type 0, BuildingBlock: QUQFOY_clean_sbu_1, # of connection points: 4
#     Node 2, Type 0, BuildingBlock: QUQFOY_clean_sbu_1, # of connection points: 4
#     Node 3, Type 1, BuildingBlock: MUDLON_clean_linker_0, # of connection points: 4
#     Node 4, Type 1, BuildingBlock: MUDLON_clean_linker_0, # of connection points: 4
#     Node 5, Type 1, BuildingBlock: MUDLON_clean_linker_0, # of connection points: 4
#     Edge 6, Type (0, 1), BuildingBlock: EZIPEK_clean_linker_0, # of connection points: 2
#     Edge 7, Type (0, 1), BuildingBlock: EZIPEK_clean_linker_0, # of connection points: 2
#     Edge 8, Type (0, 1), BuildingBlock: EZIPEK_clean_linker_0, # of connection points: 2
#     Edge 9, Type (0, 1), BuildingBlock: EZIPEK_clean_linker_0, # of connection points: 2
#     Edge 10, Type (0, 1), BuildingBlock: EZIPEK_clean_linker_0, # of connection points: 2
#     Edge 11, Type (0, 1), BuildingBlock: EZIPEK_clean_linker_0, # of connection points: 2
#     Edge 12, Type (0, 1), BuildingBlock: EZIPEK_clean_linker_0, # of connection points: 2
#     Edge 13, Type (0, 1), BuildingBlock: EZIPEK_clean_linker_0, # of connection points: 2
#     Edge 14, Type (0, 1), BuildingBlock: EZIPEK_clean_linker_0, # of connection points: 2
#     Edge 15, Type (0, 1), BuildingBlock: EZIPEK_clean_linker_0, # of connection points: 2
#     Edge 16, Type (0, 1), BuildingBlock: EZIPEK_clean_linker_0, # of connection points: 2
#     Edge 17, Type (0, 1), BuildingBlock: EZIPEK_clean_linker_0, # of connection points: 2
# Relax obj value: 0.054
# Max RMSD: 0.153
# Mean RMSD: 0.116
data_MOF--net-pth--node1-QUQFOY_clean_sbu_1--node2-MUDLON_clean_linker_0--edge1-EZIPEK_clean_linker_0
_symmetry_space_group_name_H-M    P1
_symmetry_Int_Tables_number       1
_symmetry_cell_setting            triclinic
loop_
_symmetry_equiv_pos_as_xyz
'x, y, z'
_cell_length_a     26.050497
_cell_length_b     28.003189
_cell_length_c     56.188967
_cell_angle_alpha  89.849723
_cell_angle_beta   90.115528
_cell_angle_gamma 120.00908
loop_
_atom_site_label
_atom_site_type_symbol
_atom_site_fract_x
_atom_site_fract_y
_atom_site_fract_z
_atom_type_partial_charge
O0 O 0.05192 0.08262 0.01376 0.0
Cd1 Cd 0.98736 0.02921 0.03717 0.0
Cd2 Cd 0.04609 0.97696 0.03003 0.0
O3 O 0.11404 0.05121 0.01789 0.0
O4 O 0.9532 0.07411 0.04952 0.0
O5 O 1.00245 0.04569 0.07218 0.0
C6 C 0.9758 0.07388 0.06991 0.0
C7 C 0.05164 0.92496 0.06117 0.0
C8 C 0.10208 0.08696 0.00983 0.0
C9 C 0.92696 0.92855 0.00802 0.0
O10 O 0.97839 0.9344 0.00607 0.0
O11 O 0.91778 0.95722 0.02313 0.0
O12 O 0.07634 0.92763 0.04091 0.0
O13 O 0.02719 0.95491 0.0642 0.0
O14 O 0.93918 0.01653 0.39163 0.0
Cd15 Cd 0.01454 0.0484 0.37181 0.0
Cd16 Cd 0.98365 0.94211 0.36527 0.0
O17 O 0.91364 0.92884 0.38761 0.0
O18 O 0.03358 0.1243 0.36245 0.0
O19 O 0.00917 0.05661 0.33655 0.0
C20 C 0.0217 0.10666 0.34082 0.0
C21 C 0.96647 0.88775 0.33145 0.0
C22 C 0.905 0.96604 0.3965 0.0
C23 C 0.09722 0.01397 0.39192 0.0
O24 O 0.06527 0.96877 0.38113 0.0
O25 O 0.0849 0.05244 0.39032 0.0
O26 O 0.96408 0.86846 0.35251 0.0
O27 O 0.97616 0.93758 0.32952 0.0
O28 O 0.92897 0.97115 0.67611 0.0
Cd29 Cd 0.98065 0.9517 0.69649 0.0
Cd30 Cd 0.04115 0.05933 0.70636 0.0
O31 O 0.97401 0.05936 0.68603 0.0
O32 O 0.93179 0.87445 0.70829 0.0
O33 O 0.9675 0.94822 0.73157 0.0
C34 C 0.9345 0.89544 0.72904 0.0
C35 C 0.07989 0.11362 0.74047 0.0
C36 C 0.93423 0.01858 0.67439 0.0
C37 C 0.10102 0.01247 0.67583 0.0
O38 O 0.10458 0.05359 0.68681 0.0
O39 O 0.05555 0.96493 0.67839 0.0
O40 O 0.08764 0.13551 0.71966 0.0
O41 O 0.04719 0.06076 0.74224 0.0
H42 H 0.86529 0.67063 0.20712 0.0
N43 N 0.95287 0.6544 0.19346 0.0
H44 H 0.86584 0.72751 0.24049 0.0
H45 H 0.03945 0.70283 0.22721 0.0
H46 H 0.0393 0.75807 0.26104 0.0
H47 H 0.06754 0.73001 0.18286 0.0
H48 H 0.10069 0.79723 0.14992 0.0
H49 H 0.8874 0.65772 0.15805 0.0
H50 H 0.92001 0.72526 0.12547 0.0
H51 H 0.86233 0.55274 0.18922 0.0
H52 H 0.05094 0.64401 0.20064 0.0
H53 H 0.86337 0.46621 0.19182 0.0
H54 H 0.05246 0.55759 0.2045 0.0
H55 H 0.87396 0.2037 0.22887 0.0
H56 H 0.89931 0.16404 0.26283 0.0
H57 H 0.07822 0.30153 0.26171 0.0
H58 H 0.0526 0.34108 0.22747 0.0
H59 H 0.04942 0.3074 0.18572 0.0
H60 H 0.05837 0.25542 0.15238 0.0
H61 H 0.86934 0.17391 0.14144 0.0
H62 H 0.86042 0.2258 0.17493 0.0
H63 H 0.8682 0.31939 0.22105 0.0
H64 H 0.87284 0.40857 0.21951 0.0
H65 H 0.04265 0.47885 0.18411 0.0
N66 N 0.94601 0.29337 0.20432 0.0
H67 H 0.03859 0.38973 0.1869 0.0
C68 C 0.95176 0.68179 0.21491 0.0
C69 C 0.90296 0.68892 0.21907 0.0
C70 C 0.9034 0.72144 0.23797 0.0
C71 C 0.95254 0.74685 0.25324 0.0
C72 C 1.00089 0.73861 0.24948 0.0
C73 C 1.00079 0.70674 0.2303 0.0
C74 C 0.97501 0.68856 0.17262 0.0
C75 C 0.03542 0.72788 0.17005 0.0
C76 C 0.05419 0.76644 0.15144 0.0
C77 C 0.01263 0.7665 0.13546 0.0
C78 C 0.95267 0.72603 0.13767 0.0
C79 C 0.93414 0.68738 0.15607 0.0
C80 C 0.95616 0.60465 0.195 0.0
C81 C 0.90392 0.55391 0.19252 0.0
C82 C 0.90468 0.50448 0.19424 0.0
C83 C 0.95792 0.50449 0.19875 0.0
C84 C 0.01066 0.55573 0.2009 0.0
C85 C 0.00983 0.60536 0.19894 0.0
C86 C 0.96115 0.27527 0.22584 0.0
C87 C 0.91837 0.22561 0.23617 0.0
C88 C 0.93293 0.20293 0.25537 0.0
C89 C 0.99071 0.22964 0.26459 0.0
C90 C 0.03349 0.28022 0.25469 0.0
C91 C 0.01885 0.30287 0.23533 0.0
C92 C 0.95409 0.27058 0.18266 0.0
C93 C 0.01008 0.27927 0.17586 0.0
C94 C 0.01517 0.24943 0.15697 0.0
C95 C 0.96444 0.21066 0.14462 0.0
C96 C 0.9089 0.20358 0.15081 0.0
C97 C 0.90386 0.23332 0.16972 0.0
C98 C 0.95242 0.34759 0.20385 0.0
C99 C 0.90656 0.35423 0.21311 0.0
C100 C 0.90915 0.40524 0.21198 0.0
C101 C 0.95766 0.45109 0.20126 0.0
C102 C 1.00467 0.44474 0.19257 0.0
C103 C 1.00224 0.39355 0.19397 0.0
H104 H 0.8366 0.1296 0.54791 0.0
N105 N 0.73119 0.0572 0.53062 0.0
H106 H 0.88272 0.12247 0.58496 0.0
H107 H 0.68014 0.9741 0.56335 0.0
H108 H 0.72653 0.96651 0.60039 0.0
H109 H 0.69657 0.94836 0.52366 0.0
H110 H 0.72511 0.9103 0.4901 0.0
H111 H 0.79331 0.11053 0.49245 0.0
H112 H 0.82258 0.07273 0.45908 0.0
H113 H 0.7113 0.12976 0.5528 0.0
H114 H 0.62288 0.97982 0.51167 0.0
H115 H 0.61929 0.1319 0.55512 0.0
H116 H 0.53219 0.98411 0.51223 0.0
H117 H 0.26457 0.09178 0.53995 0.0
H118 H 0.20457 0.06995 0.57577 0.0
H119 H 0.32282 0.02864 0.61229 0.0
H120 H 0.38001 0.04518 0.57612 0.0
H121 H 0.24976 0.99121 0.5229 0.0
H122 H 0.19255 0.97698 0.48657 0.0
H123 H 0.3462 0.1102 0.45262 0.0
H124 H 0.40022 0.13063 0.49039 0.0
H125 H 0.47212 0.16113 0.53217 0.0
H126 H 0.5609 0.15297 0.53167 0.0
H127 H 0.45115 0.97506 0.53363 0.0
N128 N 0.36025 0.08068 0.53235 0.0
H129 H 0.36244 0.98441 0.53243 0.0
C130 C 0.75552 0.05227 0.55289 0.0
C131 C 0.81223 0.0942 0.55942 0.0
C132 C 0.83821 0.09029 0.58051 0.0
C133 C 0.80774 0.04418 0.59537 0.0
C134 C 0.75035 1.00257 0.58917 0.0
C135 C 0.72423 1.00662 0.56803 0.0
C136 C 0.74314 0.03248 0.51048 0.0
C137 C 0.72358 0.97566 0.50954 0.0
C138 C 0.73961 0.95392 0.49041 0.0
C139 C 0.77619 0.98886 0.47227 0.0
C140 C 0.79437 0.04521 0.47295 0.0
C141 C 0.77783 0.06674 0.4919 0.0
C142 C 0.67479 0.05521 0.53196 0.0
C143 C 0.67211 0.09749 0.54413 0.0
C144 C 0.61947 0.09892 0.54518 0.0
C145 C 0.5682 0.05875 0.53346 0.0
C146 C 0.57046 0.01555 0.52165 0.0
C147 C 0.62296 0.0134 0.52111 0.0
C148 C 0.3252 0.06694 0.55417 0.0
C149 C 0.27663 0.07587 0.55525 0.0
C150 C 0.24253 0.0639 0.57583 0.0
C151 C 0.2584 0.04645 0.59662 0.0
C152 C 0.30871 0.04047 0.59627 0.0
C153 C 0.34144 0.05005 0.57531 0.0
C154 C 0.32853 0.06418 0.5099 0.0
C155 C 0.27095 0.01836 0.50791 0.0
C156 C 0.23843 0.00971 0.48696 0.0
C157 C 0.26438 0.04356 0.46689 0.0
C158 C 0.32439 0.08472 0.46801 0.0
C159 C 0.35537 0.0961 0.4895 0.0
C160 C 0.41129 0.07358 0.53257 0.0
C161 C 0.46757 0.12052 0.53246 0.0
C162 C 0.51818 0.11557 0.53242 0.0
C163 C 0.51358 0.06328 0.533 0.0
C164 C 0.45665 0.01599 0.53296 0.0
C165 C 0.40587 0.02109 0.53245 0.0
H166 H 0.7448 0.82828 0.87739 0.0
N167 N 0.66985 0.72154 0.86941 0.0
H168 H 0.80295 0.87111 0.91312 0.0
H169 H 0.67234 0.66788 0.91041 0.0
H170 H 0.72608 0.71175 0.94714 0.0
H171 H 0.75547 0.69693 0.85761 0.0
H172 H 0.82155 0.7321 0.82269 0.0
H173 H 0.66365 0.78015 0.83344 0.0
H174 H 0.7305 0.8168 0.79907 0.0
H175 H 0.57221 0.69849 0.89338 0.0
H176 H 0.64662 0.62313 0.84893 0.0
H177 H 0.48109 0.61038 0.89707 0.0
H178 H 0.55397 0.53638 0.85042 0.0
H179 H 0.18438 0.32404 0.90281 0.0
H180 H 0.14878 0.26012 0.93678 0.0
H181 H 0.3162 0.26406 0.93966 0.0
H182 H 0.3511 0.32624 0.90537 0.0
H183 H 0.30669 0.28066 0.86332 0.0
H184 H 0.25707 0.21892 0.82946 0.0
H185 H 0.16302 0.30589 0.81442 0.0
H186 H 0.21214 0.36713 0.84849 0.0
H187 H 0.30307 0.46247 0.88278 0.0
H188 H 0.39595 0.5493 0.87928 0.0
H189 H 0.48931 0.45886 0.8701 0.0
N190 N 0.28567 0.3612 0.87955 0.0
H191 H 0.39502 0.37279 0.87101 0.0
C192 C 0.70409 0.74481 0.89093 0.0
C193 C 0.74121 0.80224 0.89232 0.0
C194 C 0.77415 0.82675 0.91278 0.0
C195 C 0.76891 0.79472 0.93286 0.0
C196 C 0.73115 0.73725 0.9318 0.0
C197 C 0.70015 0.71229 0.91082 0.0
C198 C 0.70434 0.7356 0.84782 0.0
C199 C 0.74908 0.72203 0.84457 0.0
C200 C 0.7869 0.74239 0.82484 0.0
C201 C 0.78128 0.77756 0.80846 0.0
C202 C 0.73571 0.78994 0.81153 0.0
C203 C 0.69744 0.76886 0.83097 0.0
C204 C 0.6164 0.66811 0.87079 0.0
C205 C 0.5685 0.66302 0.88411 0.0
C206 C 0.51594 0.61243 0.88593 0.0
C207 C 0.50889 0.56554 0.87376 0.0
C208 C 0.55727 0.57078 0.86041 0.0
C209 C 0.61063 0.62111 0.85925 0.0
C210 C 0.27039 0.33045 0.90154 0.0
C211 C 0.21376 0.3119 0.91104 0.0
C212 C 0.19349 0.27548 0.9303 0.0
C213 C 0.22989 0.25741 0.94058 0.0
C214 C 0.28764 0.27778 0.93192 0.0
C215 C 0.30757 0.31352 0.91233 0.0
C216 C 0.26299 0.32854 0.85831 0.0
C217 C 0.27604 0.2869 0.85257 0.0
C218 C 0.24756 0.25157 0.83337 0.0
C219 C 0.20616 0.25774 0.8196 0.0
C220 C 0.19464 0.30041 0.82491 0.0
C221 C 0.22279 0.33541 0.84416 0.0
C222 C 0.34216 0.41125 0.87781 0.0
C223 C 0.34378 0.46171 0.87996 0.0
C224 C 0.39735 0.51141 0.87822 0.0
C225 C 0.4513 0.51197 0.87486 0.0
C226 C 0.44924 0.46086 0.87248 0.0
C227 C 0.39518 0.41114 0.87349 0.0
C228 C 0.94773 0.08478 0.11161 0.0
C229 C 0.97493 0.10878 0.08956 0.0
C230 C 0.99244 0.19898 0.10315 0.0
C231 C 0.96905 0.17584 0.12576 0.0
N232 N 0.93482 0.0995 0.15317 0.0
N233 N 0.03541 0.19076 0.0663 0.0
C234 C 0.94975 0.11949 0.13049 0.0
C235 C 1.00072 0.1665 0.08586 0.0
N236 N 0.9178 0.02872 0.11422 0.0
N237 N 1.00515 0.25149 0.09793 0.0
H238 H 0.04417 0.16877 0.05355 0.0
H239 H 0.06037 0.2333 0.06393 0.0
H240 H 1.00003 0.27673 0.11018 0.0
H241 H 0.01596 0.26837 0.08089 0.0
H242 H 0.89157 1.00852 0.12894 0.0
H243 H 0.915 1.00193 0.10076 0.0
H244 H 0.92655 0.06049 0.15824 0.0
H245 H 0.93572 0.12363 0.16746 0.0
C246 C 0.81143 0.9616 0.41014 0.0
C247 C 0.85946 0.95279 0.41499 0.0
C248 C 0.84557 0.95719 0.45785 0.0
C249 C 0.79874 0.96793 0.45302 0.0
N250 N 0.72692 0.96627 0.42553 0.0
N251 N 0.91182 0.92691 0.44284 0.0
C252 C 0.77819 0.96527 0.4294 0.0
C253 C 0.8725 0.94483 0.43868 0.0
N254 N 0.79932 0.96857 0.38713 0.0
N255 N 0.86728 0.96281 0.48049 0.0
H256 H 0.93342 0.91872 0.42922 0.0
H257 H 0.9189 0.91519 0.45957 0.0
H258 H 0.84907 0.97187 0.49509 0.0
H259 H 0.90604 0.96244 0.48465 0.0
H260 H 0.76981 0.98179 0.38238 0.0
H261 H 0.8209 0.96294 0.37269 0.0
H262 H 0.7067 0.96 0.40894 0.0
H263 H 0.70175 0.9687 0.43941 0.0
C264 C 0.92176 0.86674 0.77216 0.0
C265 C 0.897 0.86057 0.74906 0.0
C266 C 0.80069 0.7895 0.76456 0.0
C267 C 0.82304 0.80244 0.78809 0.0
N268 N 0.90366 0.86001 0.8146 0.0
N269 N 0.8086 0.82381 0.72455 0.0
C270 C 0.88342 0.84266 0.79203 0.0
C271 C 0.83537 0.82364 0.74549 0.0
N272 N 0.98189 0.89435 0.77508 0.0
N273 N 0.74631 0.7444 0.76041 0.0
H274 H 0.83076 0.8507 0.71054 0.0
H275 H 0.76281 0.80156 0.72213 0.0
H276 H 0.72001 0.71802 0.77398 0.0
H277 H 0.73031 0.7301 0.74335 0.0
H278 H 1.00234 0.89566 0.79121 0.0
H279 H 0.01136 0.91087 0.76085 0.0
H280 H 0.9455 0.89347 0.81821 0.0
H281 H 0.87698 0.84432 0.82966 0.0
C282 C 0.02679 0.82948 0.07434 0.0
C283 C 0.04804 0.88586 0.08 0.0
C284 C 0.04774 0.86451 0.12243 0.0
C285 C 0.0307 0.80924 0.11651 0.0
N286 N 0.01885 0.74304 0.08659 0.0
N287 N 0.09259 0.95921 0.10887 0.0
C288 C 0.02521 0.79311 0.09235 0.0
C289 C 0.06273 0.90407 0.1039 0.0
N290 N 1.00412 0.80941 0.05228 0.0
N291 N 0.04704 0.87881 0.14561 0.0
H292 H 0.10608 0.98944 0.0957 0.0
H293 H 0.1094 0.97497 0.12568 0.0
H294 H 0.03602 0.85115 0.15973 0.0
H295 H 0.05254 0.91687 0.15064 0.0
H296 H 0.98228 0.76753 0.04819 0.0
H297 H 1.00121 0.83337 0.03874 0.0
H298 H 0.02058 0.73138 0.06914 0.0
H299 H 0.01793 0.71551 0.09937 0.0
C300 C 0.19336 0.074 0.41352 0.0
C301 C 0.14563 0.02038 0.40835 0.0
C302 C 0.19034 0.98333 0.43583 0.0
C303 C 0.2278 0.03671 0.44521 0.0
N304 N 0.25287 0.13276 0.44547 0.0
N305 N 0.09223 0.92383 0.42096 0.0
C306 C 0.22645 0.08234 0.43469 0.0
C307 C 0.14233 0.97457 0.421 0.0
N308 N 0.20797 0.11688 0.39824 0.0
N309 N 0.20008 0.9409 0.44107 0.0
H310 H 0.05208 0.91576 0.41357 0.0
H311 H 0.08817 0.89137 0.43148 0.0
H312 H 0.23654 0.94647 0.45102 0.0
H313 H 0.17584 0.90216 0.43317 0.0
H314 H 0.24498 0.1558 0.40089 0.0
H315 H 0.18815 0.11158 0.38157 0.0
H316 H 0.24854 0.1655 0.43897 0.0
H317 H 0.27246 0.13998 0.46223 0.0
C318 C 0.08047 0.1484 0.78192 0.0
C319 C 0.1119 0.14828 0.76134 0.0
C320 C 0.20456 0.22186 0.77848 0.0
C321 C 0.17402 0.21906 0.79975 0.0
N322 N 0.08548 0.17228 0.82365 0.0
N323 N 0.20589 0.17503 0.74257 0.0
C324 C 0.11265 0.18007 0.80205 0.0
C325 C 0.17457 0.18225 0.76032 0.0
N326 N 0.01988 0.12031 0.78189 0.0
N327 N 0.26168 0.26341 0.77525 0.0
H328 H 0.18601 0.14506 0.7294 0.0
H329 H 0.25201 0.1947 0.74234 0.0
H330 H 0.28527 0.29334 0.7881 0.0
H331 H 0.28386 0.27108 0.75905 0.0
H332 H 0.99457 0.12375 0.79538 0.0
H333 H 0.9947 0.09728 0.76739 0.0
H334 H 0.04252 0.14051 0.82705 0.0
H335 H 0.10768 0.19449 0.83882 0.0
C336 C 0.85686 0.04005 0.65912 0.0
C337 C 0.90281 0.02814 0.65466 0.0
C338 C 0.88187 0.0214 0.61191 0.0
C339 C 0.83882 0.03724 0.61607 0.0
N340 N 0.78996 0.06879 0.64288 0.0
N341 N 0.9681 0.01961 0.62668 0.0
C342 C 0.82753 0.0486 0.6395 0.0
C343 C 0.9179 0.02228 0.631 0.0
N344 N 0.84021 0.04154 0.68203 0.0
N345 N 0.88715 1.0039 0.58982 0.0
H346 H 0.99642 0.02087 0.64013 0.0
H347 H 0.9849 0.02157 0.60968 0.0
H348 H 0.86156 1.0026 0.57526 0.0
H349 H 0.91303 0.98594 0.58639 0.0
H350 H 0.80296 0.0442 0.6865 0.0
H351 H 0.86167 0.03644 0.69669 0.0
H352 H 0.78445 0.08329 0.65916 0.0
H353 H 0.76713 0.07459 0.62893 0.0
C354 C 0.84001 0.90434 0.98035 0.0
C355 C 0.87891 0.88955 0.99178 0.0
C356 C 0.84409 0.81013 0.96509 0.0
C357 C 0.80226 0.82269 0.95495 0.0
N358 N 0.74741 0.87067 0.95916 0.0
N359 N 0.90132 0.81726 1.00018 0.0
C360 C 0.79579 0.86604 0.96474 0.0
C361 C 0.87557 0.83878 0.98582 0.0
N362 N 0.84752 0.95602 0.98269 0.0
N363 N 0.85663 0.77344 0.95437 0.0
H364 H 0.92139 0.83537 0.01632 0.0
H365 H 0.89616 0.77826 0.99751 0.0
H366 H 0.83703 0.75342 0.93849 0.0
H367 H 0.89103 0.76727 0.96002 0.0
H368 H 0.82329 0.96947 0.97276 0.0
H369 H 0.88205 0.98762 0.99221 0.0
H370 H 0.73839 0.89897 0.96742 0.0
H371 H 0.71315 0.84219 0.94836 0.0
C372 C 1.00378 0.87431 0.292 0.0
C373 C 0.96013 0.85357 0.31023 0.0
C374 C 0.9138 0.76182 0.29195 0.0
C375 C 0.95421 0.78373 0.27266 0.0
N376 N 0.02812 0.86384 0.2515 0.0
N377 N 0.8652 0.78102 0.32414 0.0
C378 C 0.99627 0.84096 0.2718 0.0
C379 C 0.91259 0.79828 0.30919 0.0
N380 N 0.05422 0.92438 0.29446 0.0
N381 N 0.8781 0.70606 0.29435 0.0
H382 H 0.86157 0.80715 0.33636 0.0
H383 H 0.82678 0.74273 0.32262 0.0
H384 H 0.87841 0.67783 0.28236 0.0
H385 H 0.85232 0.68768 0.3094 0.0
H386 H 0.09003 0.93849 0.28283 0.0
H387 H 0.0632 0.94948 0.30934 0.0
H388 H 0.05492 0.90625 0.24911 0.0
H389 H 0.02319 0.84101 0.23617 0.0
C390 C 0.16918 0.07057 0.64272 0.0
C391 C 0.14586 0.02219 0.65713 0.0
C392 C 0.19571 0.98742 0.63127 0.0
C393 C 0.22428 0.03873 0.61898 0.0
N394 N 0.25293 0.13514 0.61935 0.0
N395 N 0.15075 0.94113 0.66833 0.0
C396 C 0.21614 0.08237 0.62693 0.0
C397 C 0.1634 0.98252 0.65244 0.0
N398 N 0.1437 0.10301 0.64226 0.0
N399 N 0.19669 0.94263 0.62227 0.0
H400 H 0.13011 0.93797 0.68461 0.0
H401 H 0.16687 0.91394 0.66654 0.0
H402 H 0.21778 0.94373 0.60637 0.0
H403 H 0.17162 0.90317 0.62944 0.0
H404 H 0.15743 0.1361 0.63052 0.0
H405 H 0.104 0.09275 0.65075 0.0
H406 H 0.25088 0.16873 0.62621 0.0
H407 H 0.28943 0.14578 0.60841 0.0
C408 C 0.172 0.18632 1.00051 0.0
C409 C 0.14331 0.13035 0.99329 0.0
C410 C 0.18248 0.1582 0.95284 0.0
C411 C 0.20539 0.21421 0.95935 0.0
N412 N 0.22208 0.28287 0.98881 0.0
N413 N 0.11627 0.06197 0.96248 0.0
C414 C 0.20057 0.22868 0.98311 0.0
C415 C 0.14798 0.11591 0.96952 0.0
N416 N 0.17251 0.19863 0.02408 0.0
N417 N 0.19332 0.14541 0.93062 0.0
H418 H 0.09105 0.02952 0.97413 0.0
H419 H 0.11144 0.04933 0.94482 0.0
H420 H 0.21539 0.1748 0.91738 0.0
H421 H 0.1842 0.10611 0.92571 0.0
H422 H 0.19678 0.23821 0.03106 0.0
H423 H 0.15191 0.16831 0.03713 0.0
H424 H 0.21424 0.29615 0.00496 0.0
H425 H 0.24595 0.315 0.97682 0.0
C426 C 0.98092 0.16504 0.32496 0.0
C427 C 0.01793 0.14167 0.32174 0.0
C428 C 0.03869 0.17714 0.28078 0.0
C429 C 1.00528 0.20382 0.28473 0.0
N430 N 0.95649 0.234 0.31221 0.0
N431 N 0.09183 0.13524 0.29838 0.0
C432 C 0.98035 0.20131 0.30739 0.0
C433 C 0.04975 0.15058 0.30015 0.0
N434 N 0.94322 0.14988 0.34397 0.0
N435 N 0.05784 0.1752 0.25836 0.0
H436 H 0.10195 0.11673 0.31235 0.0
H437 H 0.12056 0.1456 0.28396 0.0
H438 H 0.05104 0.19443 0.24375 0.0
H439 H 0.07641 0.15102 0.25389 0.0
H440 H 0.91096 0.16123 0.34576 0.0
H441 H 0.93951 0.1212 0.35671 0.0
H442 H 0.94312 0.23807 0.32918 0.0
H443 H 0.95556 0.26126 0.29975 0.0
loop_
_geom_bond_atom_site_label_1
_geom_bond_atom_site_label_2
_geom_bond_distance
_geom_bond_site_symmetry_2
_ccdc_geom_bond_type
O0 Cd1 2.223 1_456 S
O0 C8 1.312 1_556 S
Cd1 O0 2.223 1_654 S
Cd1 O4 2.297 . S
Cd1 O5 2.439 . S
Cd1 O11 2.240 1_545 S
Cd2 O3 2.240 1_565 S
Cd2 O10 2.223 1_454 S
Cd2 O12 2.297 . S
Cd2 O13 2.439 . S
O3 Cd2 2.240 1_545 S
O3 C8 1.294 . S
O4 Cd1 2.297 . S
O4 C6 1.247 . S
O5 Cd1 2.439 . S
O5 C6 1.208 . S
C6 O4 1.247 . S
C6 O5 1.208 . S
C7 O12 1.247 . S
C7 O13 1.208 . S
C8 O0 1.312 1_554 S
C8 O3 1.294 . S
C9 O10 1.312 1_554 S
C9 O11 1.294 . S
O10 Cd2 2.223 1_656 S
O10 C9 1.312 1_556 S
O11 Cd1 2.240 1_565 S
O11 C9 1.294 . S
O12 Cd2 2.297 . S
O12 C7 1.247 . S
O13 Cd2 2.439 . S
O13 C7 1.208 . S
O14 Cd15 2.223 1_655 S
O14 C22 1.315 . S
Cd15 O14 2.223 1_455 S
Cd15 O18 2.297 . S
Cd15 O19 2.439 . S
Cd15 O25 2.240 . S
Cd16 O17 2.240 . S
Cd16 O24 2.223 1_655 S
Cd16 O26 2.297 . S
Cd16 O27 2.439 . S
O17 Cd16 2.240 . S
O17 C22 1.279 1_565 S
O18 Cd15 2.297 . S
O18 C20 1.247 . S
O19 Cd15 2.439 . S
O19 C20 1.208 . S
C20 O18 1.247 . S
C20 O19 1.208 . S
C21 O26 1.247 . S
C21 O27 1.208 . S
C22 O14 1.315 . S
C22 O17 1.279 1_545 S
C23 O24 1.315 . S
C23 O25 1.279 1_565 S
O24 Cd16 2.223 1_455 S
O24 C23 1.315 . S
O25 Cd15 2.240 . S
O25 C23 1.279 1_545 S
O26 Cd16 2.297 . S
O26 C21 1.247 . S
O27 Cd16 2.439 . S
O27 C21 1.208 . S
O28 Cd29 2.223 . S
O28 C36 1.315 . S
Cd29 O28 2.223 . S
Cd29 O32 2.297 . S
Cd29 O33 2.439 . S
Cd29 O39 2.240 1_655 S
Cd30 O31 2.240 1_455 S
Cd30 O38 2.223 . S
Cd30 O40 2.297 . S
Cd30 O41 2.439 . S
O31 Cd30 2.240 1_655 S
O31 C36 1.279 1_545 S
O32 Cd29 2.297 . S
O32 C34 1.247 . S
O33 Cd29 2.439 . S
O33 C34 1.208 . S
C34 O32 1.247 . S
C34 O33 1.208 . S
C35 O40 1.247 . S
C35 O41 1.208 . S
C36 O28 1.315 . S
C36 O31 1.279 1_565 S
C37 O38 1.315 . S
C37 O39 1.279 1_545 S
O38 Cd30 2.223 . S
O38 C37 1.315 . S
O39 Cd29 2.240 1_455 S
O39 C37 1.279 1_565 S
O40 Cd30 2.297 . S
O40 C35 1.247 . S
O41 Cd30 2.439 . S
O41 C35 1.208 . S
H42 C69 0.929 . S
N43 C68 1.433 . S
N43 C74 1.435 . S
N43 C80 1.423 . S
H44 C70 0.930 . S
H45 C73 0.931 . S
H46 C72 0.929 . S
H47 C75 0.930 . S
H48 C76 0.932 . S
H49 C79 0.929 . S
H50 C78 0.931 . S
H51 C81 0.929 . S
H52 C85 0.932 1_455 S
H53 C82 0.931 . S
H54 C84 0.929 1_455 S
H55 C87 0.929 . S
H56 C88 0.930 . S
H57 C90 0.929 . S
H58 C91 0.931 . S
H59 C93 0.930 . S
H60 C94 0.932 . S
H61 C96 0.931 . S
H62 C97 0.929 . S
H63 C99 0.929 . S
H64 C100 0.931 . S
H65 C102 0.929 1_455 S
N66 C86 1.433 . S
N66 C92 1.435 . S
N66 C98 1.423 . S
H67 C103 0.932 1_455 S
C68 N43 1.433 . S
C68 C69 1.363 . S
C68 C73 1.370 1_655 S
C69 H42 0.929 . S
C69 C68 1.363 . S
C69 C70 1.385 . S
C70 H44 0.930 . S
C70 C69 1.385 . S
C70 C71 1.357 . S
C71 C70 1.357 . S
C71 C72 1.406 1_655 S
C72 H46 0.929 . S
C72 C71 1.406 1_455 S
C72 C73 1.391 . S
C73 H45 0.931 . S
C73 C68 1.370 1_455 S
C73 C72 1.391 . S
C74 N43 1.435 . S
C74 C75 1.358 1_655 S
C74 C79 1.371 . S
C75 H47 0.930 . S
C75 C74 1.358 1_455 S
C75 C76 1.405 . S
C76 H48 0.932 . S
C76 C75 1.405 . S
C76 C77 1.383 1_455 S
C77 C76 1.383 1_655 S
C77 C78 1.393 . S
C78 H50 0.931 . S
C78 C77 1.393 . S
C78 C79 1.382 . S
C79 H49 0.929 . S
C79 C74 1.371 . S
C79 C78 1.382 . S
C80 N43 1.423 . S
C80 C81 1.362 . S
C80 C85 1.388 . S
C81 H51 0.929 . S
C81 C80 1.362 . S
C81 C82 1.376 . S
C82 H53 0.931 . S
C82 C81 1.376 . S
C82 C83 1.396 . S
C83 C82 1.396 . S
C83 C84 1.348 . S
C83 C101 1.472 . S
C84 H54 0.929 1_655 S
C84 C83 1.348 . S
C84 C85 1.443 . S
C85 H52 0.932 1_655 S
C85 C80 1.388 . S
C85 C84 1.443 . S
C86 N66 1.433 . S
C86 C87 1.363 . S
C86 C91 1.370 1_655 S
C87 H55 0.929 . S
C87 C86 1.363 . S
C87 C88 1.385 . S
C88 H56 0.930 . S
C88 C87 1.385 . S
C88 C89 1.357 . S
C89 C88 1.357 . S
C89 C90 1.406 1_655 S
C90 H57 0.929 . S
C90 C89 1.406 1_455 S
C90 C91 1.391 . S
C91 H58 0.931 . S
C91 C86 1.370 1_455 S
C91 C90 1.391 . S
C92 N66 1.435 . S
C92 C93 1.358 1_655 S
C92 C97 1.371 . S
C93 H59 0.930 . S
C93 C92 1.358 1_455 S
C93 C94 1.405 . S
C94 H60 0.932 . S
C94 C93 1.405 . S
C94 C95 1.383 1_455 S
C95 C94 1.383 1_655 S
C95 C96 1.393 . S
C96 H61 0.931 . S
C96 C95 1.393 . S
C96 C97 1.382 . S
C97 H62 0.929 . S
C97 C92 1.371 . S
C97 C96 1.382 . S
C98 N66 1.423 . S
C98 C99 1.362 . S
C98 C103 1.388 . S
C99 H63 0.929 . S
C99 C98 1.362 . S
C99 C100 1.376 . S
C100 H64 0.931 . S
C100 C99 1.376 . S
C100 C101 1.396 . S
C101 C83 1.472 . S
C101 C100 1.396 . S
C101 C102 1.348 . S
C102 H65 0.929 1_655 S
C102 C101 1.348 . S
C102 C103 1.443 . S
C103 H67 0.932 1_655 S
C103 C98 1.388 . S
C103 C102 1.443 . S
H104 C131 0.929 . S
N105 C130 1.433 . S
N105 C136 1.435 . S
N105 C142 1.423 . S
H106 C132 0.930 . S
H107 C135 0.931 . S
H108 C134 0.929 . S
H109 C137 0.930 . S
H110 C138 0.932 . S
H111 C141 0.929 . S
H112 C140 0.931 . S
H113 C143 0.929 . S
H114 C147 0.932 1_565 S
H115 C144 0.931 . S
H116 C146 0.929 1_565 S
H117 C149 0.929 . S
H118 C150 0.930 . S
H119 C152 0.929 . S
H120 C153 0.931 . S
H121 C155 0.930 . S
H122 C156 0.932 . S
H123 C158 0.931 . S
H124 C159 0.929 . S
H125 C161 0.929 . S
H126 C162 0.931 . S
H127 C164 0.929 1_565 S
N128 C148 1.433 . S
N128 C154 1.435 . S
N128 C160 1.423 . S
H129 C165 0.932 1_565 S
C130 N105 1.433 . S
C130 C131 1.363 . S
C130 C135 1.370 1_545 S
C131 H104 0.929 . S
C131 C130 1.363 . S
C131 C132 1.385 . S
C132 H106 0.930 . S
C132 C131 1.385 . S
C132 C133 1.357 . S
C133 C132 1.357 . S
C133 C134 1.406 1_545 S
C134 H108 0.929 . S
C134 C133 1.406 1_565 S
C134 C135 1.391 . S
C135 H107 0.931 . S
C135 C130 1.370 1_565 S
C135 C134 1.391 . S
C136 N105 1.435 . S
C136 C137 1.358 1_545 S
C136 C141 1.371 . S
C137 H109 0.930 . S
C137 C136 1.358 1_565 S
C137 C138 1.405 . S
C138 H110 0.932 . S
C138 C137 1.405 . S
C138 C139 1.383 1_565 S
C139 C138 1.383 1_545 S
C139 C140 1.393 . S
C140 H112 0.931 . S
C140 C139 1.393 . S
C140 C141 1.382 . S
C141 H111 0.929 . S
C141 C136 1.371 . S
C141 C140 1.382 . S
C142 N105 1.423 . S
C142 C143 1.362 . S
C142 C147 1.388 . S
C143 H113 0.929 . S
C143 C142 1.362 . S
C143 C144 1.376 . S
C144 H115 0.931 . S
C144 C143 1.376 . S
C144 C145 1.396 . S
C145 C144 1.396 . S
C145 C146 1.348 . S
C145 C163 1.472 . S
C146 H116 0.929 1_545 S
C146 C145 1.348 . S
C146 C147 1.443 . S
C147 H114 0.932 1_545 S
C147 C142 1.388 . S
C147 C146 1.443 . S
C148 N128 1.433 . S
C148 C149 1.363 . S
C148 C153 1.370 1_545 S
C149 H117 0.929 . S
C149 C148 1.363 . S
C149 C150 1.385 . S
C150 H118 0.930 . S
C150 C149 1.385 . S
C150 C151 1.357 . S
C151 C150 1.357 . S
C151 C152 1.406 1_545 S
C152 H119 0.929 . S
C152 C151 1.406 1_565 S
C152 C153 1.391 . S
C153 H120 0.931 . S
C153 C148 1.370 1_565 S
C153 C152 1.391 . S
C154 N128 1.435 . S
C154 C155 1.358 1_545 S
C154 C159 1.371 . S
C155 H121 0.930 . S
C155 C154 1.358 1_565 S
C155 C156 1.405 . S
C156 H122 0.932 . S
C156 C155 1.405 . S
C156 C157 1.383 1_565 S
C157 C156 1.383 1_545 S
C157 C158 1.393 . S
C158 H123 0.931 . S
C158 C157 1.393 . S
C158 C159 1.382 . S
C159 H124 0.929 . S
C159 C154 1.371 . S
C159 C158 1.382 . S
C160 N128 1.423 . S
C160 C161 1.362 . S
C160 C165 1.388 . S
C161 H125 0.929 . S
C161 C160 1.362 . S
C161 C162 1.376 . S
C162 H126 0.931 . S
C162 C161 1.376 . S
C162 C163 1.396 . S
C163 C145 1.472 . S
C163 C162 1.396 . S
C163 C164 1.348 . S
C164 H127 0.929 1_545 S
C164 C163 1.348 . S
C164 C165 1.443 . S
C165 H129 0.932 1_545 S
C165 C160 1.388 . S
C165 C164 1.443 . S
H166 C193 0.929 . S
N167 C192 1.433 . S
N167 C198 1.435 . S
N167 C204 1.423 . S
H168 C194 0.930 . S
H169 C197 0.931 . S
H170 C196 0.929 . S
H171 C199 0.930 . S
H172 C200 0.932 . S
H173 C203 0.929 . S
H174 C202 0.931 . S
H175 C205 0.929 . S
H176 C209 0.932 . S
H177 C206 0.931 . S
H178 C208 0.929 . S
H179 C211 0.929 . S
H180 C212 0.930 . S
H181 C214 0.929 . S
H182 C215 0.931 . S
H183 C217 0.930 . S
H184 C218 0.932 . S
H185 C220 0.931 . S
H186 C221 0.929 . S
H187 C223 0.929 . S
H188 C224 0.931 . S
H189 C226 0.929 . S
N190 C210 1.433 . S
N190 C216 1.435 . S
N190 C222 1.423 . S
H191 C227 0.932 . S
C192 N167 1.433 . S
C192 C193 1.363 . S
C192 C197 1.370 . S
C193 H166 0.929 . S
C193 C192 1.363 . S
C193 C194 1.385 . S
C194 H168 0.930 . S
C194 C193 1.385 . S
C194 C195 1.357 . S
C195 C194 1.357 . S
C195 C196 1.406 . S
C196 H170 0.929 . S
C196 C195 1.406 . S
C196 C197 1.391 . S
C197 H169 0.931 . S
C197 C192 1.370 . S
C197 C196 1.391 . S
C198 N167 1.435 . S
C198 C199 1.358 . S
C198 C203 1.371 . S
C199 H171 0.930 . S
C199 C198 1.358 . S
C199 C200 1.405 . S
C200 H172 0.932 . S
C200 C199 1.405 . S
C200 C201 1.383 . S
C201 C200 1.383 . S
C201 C202 1.393 . S
C202 H174 0.931 . S
C202 C201 1.393 . S
C202 C203 1.382 . S
C203 H173 0.929 . S
C203 C198 1.371 . S
C203 C202 1.382 . S
C204 N167 1.423 . S
C204 C205 1.362 . S
C204 C209 1.388 . S
C205 H175 0.929 . S
C205 C204 1.362 . S
C205 C206 1.376 . S
C206 H177 0.931 . S
C206 C205 1.376 . S
C206 C207 1.396 . S
C207 C206 1.396 . S
C207 C208 1.348 . S
C207 C225 1.472 . S
C208 H178 0.929 . S
C208 C207 1.348 . S
C208 C209 1.443 . S
C209 H176 0.932 . S
C209 C204 1.388 . S
C209 C208 1.443 . S
C210 N190 1.433 . S
C210 C211 1.363 . S
C210 C215 1.370 . S
C211 H179 0.929 . S
C211 C210 1.363 . S
C211 C212 1.385 . S
C212 H180 0.930 . S
C212 C211 1.385 . S
C212 C213 1.357 . S
C213 C212 1.357 . S
C213 C214 1.406 . S
C214 H181 0.929 . S
C214 C213 1.406 . S
C214 C215 1.391 . S
C215 H182 0.931 . S
C215 C210 1.370 . S
C215 C214 1.391 . S
C216 N190 1.435 . S
C216 C217 1.358 . S
C216 C221 1.371 . S
C217 H183 0.930 . S
C217 C216 1.358 . S
C217 C218 1.405 . S
C218 H184 0.932 . S
C218 C217 1.405 . S
C218 C219 1.383 . S
C219 C218 1.383 . S
C219 C220 1.393 . S
C220 H185 0.931 . S
C220 C219 1.393 . S
C220 C221 1.382 . S
C221 H186 0.929 . S
C221 C216 1.371 . S
C221 C220 1.382 . S
C222 N190 1.423 . S
C222 C223 1.362 . S
C222 C227 1.388 . S
C223 H187 0.929 . S
C223 C222 1.362 . S
C223 C224 1.376 . S
C224 H188 0.931 . S
C224 C223 1.376 . S
C224 C225 1.396 . S
C225 C207 1.472 . S
C225 C224 1.396 . S
C225 C226 1.348 . S
C226 H189 0.929 . S
C226 C225 1.348 . S
C226 C227 1.443 . S
C227 H191 0.932 . S
C227 C222 1.388 . S
C227 C226 1.443 . S
C228 C229 1.360 1_655 S
C228 C234 1.379 . S
C228 N236 1.356 . S
C229 C228 1.360 1_455 S
C229 C235 1.362 . S
C230 C231 1.364 . S
C230 C235 1.379 . S
C230 N237 1.356 . S
C231 C230 1.364 . S
C231 C234 1.363 1_455 S
N232 C234 1.356 . S
N232 H244 0.984 . S
N232 H245 0.985 . S
N233 C235 1.356 . S
N233 H238 0.984 . S
N233 H239 0.985 . S
C234 C228 1.379 . S
C234 C231 1.363 1_655 S
C234 N232 1.356 . S
C235 C229 1.362 . S
C235 C230 1.379 . S
C235 N233 1.356 . S
N236 C228 1.356 . S
N236 H242 0.984 . S
N236 H243 0.984 . S
N237 C230 1.356 . S
N237 H240 0.984 . S
N237 H241 0.985 . S
H238 N233 0.984 . S
H239 N233 0.985 . S
H240 N237 0.984 . S
H241 N237 0.985 . S
H242 N236 0.984 . S
H243 N236 0.984 . S
H244 N232 0.984 . S
H245 N232 0.985 . S
C246 C247 1.363 1_565 S
C246 C252 1.379 . S
C246 N254 1.356 . S
C247 C246 1.363 1_545 S
C247 C253 1.363 . S
C248 C249 1.369 . S
C248 C253 1.379 . S
C248 N255 1.356 . S
C249 C248 1.369 . S
C249 C252 1.351 1_545 S
N250 C252 1.356 . S
N250 H262 0.984 . S
N250 H263 0.985 . S
N251 C253 1.356 . S
N251 H256 0.984 . S
N251 H257 0.985 1_655 S
C252 C246 1.379 . S
C252 C249 1.351 1_565 S
C252 N250 1.356 . S
C253 C247 1.363 . S
C253 C248 1.379 . S
C253 N251 1.356 . S
N254 C246 1.356 . S
N254 H260 0.984 . S
N254 H261 0.984 . S
N255 C248 1.356 . S
N255 H258 0.984 . S
N255 H259 0.985 . S
H256 N251 0.984 . S
H257 N251 0.985 1_455 S
H258 N255 0.984 . S
H259 N255 0.985 . S
H260 N254 0.984 . S
H261 N254 0.984 . S
H262 N250 0.984 . S
H263 N250 0.985 . S
C264 C265 1.363 . S
C264 C270 1.379 . S
C264 N272 1.356 . S
C265 C264 1.363 . S
C265 C271 1.363 . S
C266 C267 1.363 . S
C266 C271 1.379 . S
C266 N273 1.356 . S
C267 C266 1.363 . S
C267 C270 1.363 . S
N268 C270 1.356 . S
N268 H280 0.984 . S
N268 H281 0.985 . S
N269 C271 1.356 . S
N269 H274 0.984 . S
N269 H275 0.985 . S
C270 C264 1.379 . S
C270 C267 1.363 . S
C270 N268 1.356 . S
C271 C265 1.363 . S
C271 C266 1.379 . S
C271 N269 1.356 . S
N272 C264 1.356 . S
N272 H278 0.984 . S
N272 H279 0.984 . S
N273 C266 1.356 . S
N273 H276 0.984 . S
N273 H277 0.985 . S
H274 N269 0.984 . S
H275 N269 0.985 . S
H276 N273 0.984 . S
H277 N273 0.985 . S
H278 N272 0.984 . S
H279 N272 0.984 . S
H280 N268 0.984 . S
H281 N268 0.985 . S
C282 C283 1.358 1_455 S
C282 C288 1.379 . S
C282 N290 1.356 . S
C283 C282 1.358 1_655 S
C283 C289 1.366 . S
C284 C285 1.365 1_655 S
C284 C289 1.379 . S
C284 N291 1.356 . S
C285 C284 1.365 1_455 S
C285 C288 1.362 . S
N286 C288 1.356 . S
N286 H298 0.984 . S
N286 H299 0.985 . S
N287 C289 1.356 . S
N287 H292 0.984 . S
N287 H293 0.985 . S
C288 C282 1.379 . S
C288 C285 1.362 . S
C288 N286 1.356 . S
C289 C283 1.366 . S
C289 C284 1.379 . S
C289 N287 1.356 . S
N290 C282 1.356 . S
N290 H296 0.984 . S
N290 H297 0.984 . S
N291 C284 1.356 . S
N291 H294 0.984 . S
N291 H295 0.985 . S
H292 N287 0.984 . S
H293 N287 0.985 . S
H294 N291 0.984 . S
H295 N291 0.985 . S
H296 N290 0.984 . S
H297 N290 0.984 . S
H298 N286 0.984 . S
H299 N286 0.985 . S
C300 C301 1.363 1_545 S
C300 C306 1.379 . S
C300 N308 1.356 . S
C301 C300 1.363 1_565 S
C301 C307 1.363 . S
C302 C303 1.367 . S
C302 C307 1.379 . S
C302 N309 1.356 . S
C303 C302 1.367 . S
C303 C306 1.353 1_565 S
N304 C306 1.356 . S
N304 H316 0.984 . S
N304 H317 0.985 . S
N305 C307 1.356 . S
N305 H310 0.984 . S
N305 H311 0.985 1_455 S
C306 C300 1.379 . S
C306 C303 1.353 1_545 S
C306 N304 1.356 . S
C307 C301 1.363 . S
C307 C302 1.379 . S
C307 N305 1.356 . S
N308 C300 1.356 . S
N308 H314 0.984 . S
N308 H315 0.984 . S
N309 C302 1.356 . S
N309 H312 0.984 . S
N309 H313 0.985 . S
H310 N305 0.984 . S
H311 N305 0.985 1_655 S
H312 N309 0.984 . S
H313 N309 0.985 . S
H314 N308 0.984 . S
H315 N308 0.984 . S
H316 N304 0.984 . S
H317 N304 0.985 . S
C318 C319 1.363 . S
C318 C324 1.379 . S
C318 N326 1.356 . S
C319 C318 1.363 . S
C319 C325 1.363 . S
C320 C321 1.363 . S
C320 C325 1.379 . S
C320 N327 1.356 . S
C321 C320 1.363 . S
C321 C324 1.363 . S
N322 C324 1.356 . S
N322 H334 0.984 . S
N322 H335 0.985 . S
N323 C325 1.356 . S
N323 H328 0.984 . S
N323 H329 0.985 . S
C324 C318 1.379 . S
C324 C321 1.363 . S
C324 N322 1.356 . S
C325 C319 1.363 . S
C325 C320 1.379 . S
C325 N323 1.356 . S
N326 C318 1.356 . S
N326 H332 0.984 . S
N326 H333 0.984 . S
N327 C320 1.356 . S
N327 H330 0.984 . S
N327 H331 0.985 . S
H328 N323 0.984 . S
H329 N323 0.985 . S
H330 N327 0.984 . S
H331 N327 0.985 . S
H332 N326 0.984 . S
H333 N326 0.984 . S
H334 N322 0.984 . S
H335 N322 0.985 . S
C336 C337 1.363 1_545 S
C336 C342 1.379 . S
C336 N344 1.356 . S
C337 C336 1.363 1_565 S
C337 C343 1.363 . S
C338 C339 1.363 . S
C338 C343 1.379 . S
C338 N345 1.356 . S
C339 C338 1.363 . S
C339 C342 1.363 1_565 S
N340 C342 1.356 . S
N340 H352 0.984 . S
N340 H353 0.985 . S
N341 C343 1.356 . S
N341 H346 0.984 . S
N341 H347 0.985 . S
C342 C336 1.379 . S
C342 C339 1.363 1_545 S
C342 N340 1.356 . S
C343 C337 1.363 . S
C343 C338 1.379 . S
C343 N341 1.356 . S
N344 C336 1.356 . S
N344 H350 0.984 . S
N344 H351 0.984 . S
N345 C338 1.356 . S
N345 H348 0.984 . S
N345 H349 0.985 . S
H346 N341 0.984 . S
H347 N341 0.985 . S
H348 N345 0.984 . S
H349 N345 0.985 . S
H350 N344 0.984 . S
H351 N344 0.984 . S
H352 N340 0.984 . S
H353 N340 0.985 . S
C354 C355 1.363 . S
C354 C360 1.379 . S
C354 N362 1.356 . S
C355 C354 1.363 . S
C355 C361 1.363 . S
C356 C357 1.363 . S
C356 C361 1.379 . S
C356 N363 1.356 . S
C357 C356 1.363 . S
C357 C360 1.363 . S
N358 C360 1.356 . S
N358 H370 0.984 . S
N358 H371 0.985 . S
N359 C361 1.356 . S
N359 H364 0.984 . S
N359 H365 0.985 . S
C360 C354 1.379 . S
C360 C357 1.363 . S
C360 N358 1.356 . S
C361 C355 1.363 . S
C361 C356 1.379 . S
C361 N359 1.356 . S
N362 C354 1.356 . S
N362 H368 0.984 . S
N362 H369 0.984 . S
N363 C356 1.356 . S
N363 H366 0.984 . S
N363 H367 0.985 . S
H364 N359 0.984 . S
H365 N359 0.985 . S
H366 N363 0.984 . S
H367 N363 0.985 . S
H368 N362 0.984 . S
H369 N362 0.984 . S
H370 N358 0.984 . S
H371 N358 0.985 . S
C372 C373 1.363 . S
C372 C378 1.379 . S
C372 N380 1.356 . S
C373 C372 1.363 . S
C373 C379 1.363 1_455 S
C374 C375 1.363 1_655 S
C374 C379 1.379 . S
C374 N381 1.356 . S
C375 C374 1.363 1_455 S
C375 C378 1.363 . S
N376 C378 1.356 . S
N376 H388 0.984 . S
N376 H389 0.985 . S
N377 C379 1.356 . S
N377 H382 0.984 . S
N377 H383 0.985 . S
C378 C372 1.379 . S
C378 C375 1.363 . S
C378 N376 1.356 . S
C379 C373 1.363 1_655 S
C379 C374 1.379 . S
C379 N377 1.356 . S
N380 C372 1.356 . S
N380 H386 0.984 . S
N380 H387 0.984 . S
N381 C374 1.356 . S
N381 H384 0.984 . S
N381 H385 0.985 . S
H382 N377 0.984 . S
H383 N377 0.985 . S
H384 N381 0.984 . S
H385 N381 0.985 . S
H386 N380 0.984 . S
H387 N380 0.984 . S
H388 N376 0.984 . S
H389 N376 0.985 . S
C390 C391 1.363 . S
C390 C396 1.379 . S
C390 N398 1.356 . S
C391 C390 1.363 . S
C391 C397 1.363 1_545 S
C392 C393 1.363 1_565 S
C392 C397 1.379 . S
C392 N399 1.356 . S
C393 C392 1.363 1_545 S
C393 C396 1.363 . S
N394 C396 1.356 . S
N394 H406 0.984 . S
N394 H407 0.985 . S
N395 C397 1.356 . S
N395 H400 0.984 . S
N395 H401 0.985 . S
C396 C390 1.379 . S
C396 C393 1.363 . S
C396 N394 1.356 . S
C397 C391 1.363 1_565 S
C397 C392 1.379 . S
C397 N395 1.356 . S
N398 C390 1.356 . S
N398 H404 0.984 . S
N398 H405 0.984 . S
N399 C392 1.356 . S
N399 H402 0.984 . S
N399 H403 0.985 . S
H400 N395 0.984 . S
H401 N395 0.985 . S
H402 N399 0.984 . S
H403 N399 0.985 . S
H404 N398 0.984 . S
H405 N398 0.984 . S
H406 N394 0.984 . S
H407 N394 0.985 . S
C408 C409 1.363 . S
C408 C414 1.379 . S
C408 N416 1.356 . S
C409 C408 1.363 . S
C409 C415 1.363 . S
C410 C411 1.363 . S
C410 C415 1.379 . S
C410 N417 1.356 . S
C411 C410 1.363 . S
C411 C414 1.363 . S
N412 C414 1.356 . S
N412 H424 0.984 . S
N412 H425 0.985 . S
N413 C415 1.356 . S
N413 H418 0.984 . S
N413 H419 0.985 . S
C414 C408 1.379 . S
C414 C411 1.363 . S
C414 N412 1.356 . S
C415 C409 1.363 . S
C415 C410 1.379 . S
C415 N413 1.356 . S
N416 C408 1.356 . S
N416 H422 0.984 . S
N416 H423 0.984 1_556 S
N417 C410 1.356 . S
N417 H420 0.984 . S
N417 H421 0.985 . S
H418 N413 0.984 . S
H419 N413 0.985 . S
H420 N417 0.984 . S
H421 N417 0.985 . S
H422 N416 0.984 . S
H423 N416 0.984 1_554 S
H424 N412 0.984 . S
H425 N412 0.985 . S
C426 C427 1.363 . S
C426 C432 1.379 . S
C426 N434 1.356 . S
C427 C426 1.363 . S
C427 C433 1.363 1_655 S
C428 C429 1.363 1_455 S
C428 C433 1.379 . S
C428 N435 1.356 . S
C429 C428 1.363 1_655 S
C429 C432 1.363 . S
N430 C432 1.356 . S
N430 H442 0.984 . S
N430 H443 0.985 . S
N431 C433 1.356 . S
N431 H436 0.984 . S
N431 H437 0.985 . S
C432 C426 1.379 . S
C432 C429 1.363 . S
C432 N430 1.356 . S
C433 C427 1.363 1_455 S
C433 C428 1.379 . S
C433 N431 1.356 . S
N434 C426 1.356 . S
N434 H440 0.984 . S
N434 H441 0.984 . S
N435 C428 1.356 . S
N435 H438 0.984 . S
N435 H439 0.985 . S
H436 N431 0.984 . S
H437 N431 0.985 . S
H438 N435 0.984 . S
H439 N435 0.985 . S
H440 N434 0.984 . S
H441 N434 0.984 . S
H442 N430 0.984 . S
H443 N430 0.985 . S
C231 C95 1.401 1_455 S
C229 C6 1.396 1_455 S
C247 C22 1.572 . S
C249 C139 1.598 . S
C265 C34 1.260 . S
C267 C201 1.276 . S
C283 C7 1.396 1_655 S
C285 C77 1.402 1_455 S
C303 C157 1.595 1_565 S
C301 C23 1.571 . S
C319 C35 1.260 . S
C321 C219 1.276 . S
C339 C133 1.698 1_565 S
C337 C36 1.783 . S
C355 C9 1.992 1_556 S
C357 C195 1.910 . S
C375 C71 1.579 1_455 S
C373 C21 1.654 1_455 S
C393 C151 1.692 . S
C391 C37 1.779 . S
C411 C213 1.908 . S
C409 C8 1.989 1_556 S
C427 C20 1.652 1_655 S
C429 C89 1.573 . S
