# Generated by pormake.
# Topology zzz, (3,6)-cn, num edge types: 1
# Building blocks:
#     Node 0, Type 0, BuildingBlock: BETDAH_clean_linker_0, # of connection points: 3
#     Node 1, Type 0, BuildingBlock: BETDAH_clean_linker_0, # of connection points: 3
#     Node 2, Type 0, BuildingBlock: BETDAH_clean_linker_0, # of connection points: 3
#     Node 3, Type 0, BuildingBlock: BETDAH_clean_linker_0, # of connection points: 3
#     Node 4, Type 0, BuildingBlock: BETDAH_clean_linker_0, # of connection points: 3
#     Node 5, Type 0, BuildingBlock: BETDAH_clean_linker_0, # of connection points: 3
#     Node 6, Type 0, BuildingBlock: BETDAH_clean_linker_0, # of connection points: 3
#     Node 7, Type 0, BuildingBlock: BETDAH_clean_linker_0, # of connection points: 3
#     Node 8, Type 1, BuildingBlock: BETFAJ_clean_sbu_0, # of connection points: 6
#     Node 9, Type 1, BuildingBlock: BETFAJ_clean_sbu_0, # of connection points: 6
#     Node 10, Type 1, BuildingBlock: BETFAJ_clean_sbu_0, # of connection points: 6
#     Node 11, Type 1, BuildingBlock: BETFAJ_clean_sbu_0, # of connection points: 6
#     Edge 12, Type (0, 1), BuildingBlock: KIFKEQ_clean_linker_1, # of connection points: 2
#     Edge 13, Type (0, 1), BuildingBlock: KIFKEQ_clean_linker_1, # of connection points: 2
#     Edge 14, Type (0, 1), BuildingBlock: KIFKEQ_clean_linker_1, # of connection points: 2
#     Edge 15, Type (0, 1), BuildingBlock: KIFKEQ_clean_linker_1, # of connection points: 2
#     Edge 16, Type (0, 1), BuildingBlock: KIFKEQ_clean_linker_1, # of connection points: 2
#     Edge 17, Type (0, 1), BuildingBlock: KIFKEQ_clean_linker_1, # of connection points: 2
#     Edge 18, Type (0, 1), BuildingBlock: KIFKEQ_clean_linker_1, # of connection points: 2
#     Edge 19, Type (0, 1), BuildingBlock: KIFKEQ_clean_linker_1, # of connection points: 2
#     Edge 20, Type (0, 1), BuildingBlock: KIFKEQ_clean_linker_1, # of connection points: 2
#     Edge 21, Type (0, 1), BuildingBlock: KIFKEQ_clean_linker_1, # of connection points: 2
#     Edge 22, Type (0, 1), BuildingBlock: KIFKEQ_clean_linker_1, # of connection points: 2
#     Edge 23, Type (0, 1), BuildingBlock: KIFKEQ_clean_linker_1, # of connection points: 2
#     Edge 24, Type (0, 1), BuildingBlock: KIFKEQ_clean_linker_1, # of connection points: 2
#     Edge 25, Type (0, 1), BuildingBlock: KIFKEQ_clean_linker_1, # of connection points: 2
#     Edge 26, Type (0, 1), BuildingBlock: KIFKEQ_clean_linker_1, # of connection points: 2
#     Edge 27, Type (0, 1), BuildingBlock: KIFKEQ_clean_linker_1, # of connection points: 2
#     Edge 28, Type (0, 1), BuildingBlock: KIFKEQ_clean_linker_1, # of connection points: 2
#     Edge 29, Type (0, 1), BuildingBlock: KIFKEQ_clean_linker_1, # of connection points: 2
#     Edge 30, Type (0, 1), BuildingBlock: KIFKEQ_clean_linker_1, # of connection points: 2
#     Edge 31, Type (0, 1), BuildingBlock: KIFKEQ_clean_linker_1, # of connection points: 2
#     Edge 32, Type (0, 1), BuildingBlock: KIFKEQ_clean_linker_1, # of connection points: 2
#     Edge 33, Type (0, 1), BuildingBlock: KIFKEQ_clean_linker_1, # of connection points: 2
#     Edge 34, Type (0, 1), BuildingBlock: KIFKEQ_clean_linker_1, # of connection points: 2
#     Edge 35, Type (0, 1), BuildingBlock: KIFKEQ_clean_linker_1, # of connection points: 2
# Relax obj value: 0.274
# Max RMSD: 0.190
# Mean RMSD: 0.163
data_MOF--net-zzz--node1-BETFAJ_clean_sbu_0--node2-BETDAH_clean_linker_0--edge1-KIFKEQ_clean_linker_1
_symmetry_space_group_name_H-M    P1
_symmetry_Int_Tables_number       1
_symmetry_cell_setting            triclinic
loop_
_symmetry_equiv_pos_as_xyz
'x, y, z'
_cell_length_a     53.595891
_cell_length_b     53.54471
_cell_length_c     13.683939
_cell_angle_alpha  89.959108
_cell_angle_beta   90.041449
_cell_angle_gamma 90.108057
loop_
_atom_site_label
_atom_site_type_symbol
_atom_site_fract_x
_atom_site_fract_y
_atom_site_fract_z
_atom_type_partial_charge
H0 H 0.80314 0.47255 0.39167 0.0
H1 H 0.73346 0.48555 0.24605 0.0
H2 H 0.76252 0.53986 0.45038 0.0
C3 C 0.78641 0.48373 0.38277 0.0
C4 C 0.78495 0.5067 0.43072 0.0
C5 C 0.76813 0.47613 0.31571 0.0
C6 C 0.7472 0.49127 0.29957 0.0
C7 C 0.74461 0.51407 0.35013 0.0
C8 C 0.7639 0.52194 0.41411 0.0
N9 N 0.72337 0.52977 0.33603 0.0
C10 C 0.70313 0.52445 0.27456 0.0
H11 H 0.05491 0.80719 0.38652 0.0
H12 H 0.03981 0.73741 0.2448 0.0
H13 H 0.98838 0.76651 0.45947 0.0
C14 C 0.04354 0.79047 0.38015 0.0
C15 C 0.02126 0.789 0.43272 0.0
C16 C 0.05016 0.77214 0.31193 0.0
C17 C 0.03481 0.75118 0.29918 0.0
C18 C 1.01275 0.74857 0.35439 0.0
C19 C 1.00578 0.7679 0.41957 0.0
N20 N 0.99689 0.72727 0.34383 0.0
C21 C 1.00151 0.707 0.28182 0.0
H22 H 0.72211 0.05611 0.34692 0.0
H23 H 0.79883 0.04744 0.26511 0.0
H24 H 0.7629 0.99237 0.4486 0.0
C25 C 0.73963 0.04611 0.35305 0.0
C26 C 0.73987 0.02355 0.40443 0.0
C27 C 0.76071 0.05488 0.30266 0.0
C28 C 0.78285 0.041 0.30626 0.0
C29 C 0.784 0.01853 0.3599 0.0
C30 C 0.76241 1.01 0.40976 0.0
N31 N 0.80613 1.00369 0.36119 0.0
C32 C 0.82716 1.008 0.30264 0.0
H33 H 0.47313 0.72248 0.3726 0.0
H34 H 0.48468 0.7923 0.22507 0.0
H35 H 0.54095 0.76329 0.42091 0.0
C36 C 0.48422 0.73925 0.36174 0.0
C37 C 0.50763 0.7408 0.40614 0.0
C38 C 0.47594 0.75753 0.29597 0.0
C39 C 0.49094 0.77851 0.27744 0.0
C40 C 0.51424 0.78113 0.32458 0.0
C41 C 0.5227 0.76187 0.3873 0.0
N42 N 0.52984 0.80236 0.30848 0.0
C43 C 0.52403 0.82261 0.24794 0.0
H44 H 0.22292 0.56032 0.12931 0.0
H45 H 0.2972 0.54724 0.23556 0.0
H46 H 0.26359 0.49667 0.02739 0.0
C47 C 0.24024 0.54991 0.1265 0.0
C48 C 0.24098 0.52834 0.06913 0.0
C49 C 0.26022 0.55676 0.1875 0.0
C50 C 0.28194 0.54215 0.18759 0.0
C51 C 0.28352 0.52056 0.12898 0.0
C52 C 0.26278 0.51358 0.07066 0.0
N53 N 0.3053 0.50522 0.12973 0.0
C54 C 0.32564 0.5085 0.19283 0.0
H55 H 0.972 0.22236 0.12847 0.0
H56 H 0.98316 0.29223 0.27589 0.0
H57 H 0.03915 0.26403 0.0774 0.0
C58 C 0.98292 0.23925 0.13894 0.0
C59 C 1.00616 0.24112 0.09351 0.0
C60 C 0.97463 0.25739 0.20516 0.0
C61 C 0.98943 0.27855 0.22318 0.0
C62 C 1.01253 0.28148 0.175 0.0
C63 C 0.02102 0.26236 0.1118 0.0
N64 N 0.02792 0.30291 0.19044 0.0
C65 C 0.02208 0.32309 0.25121 0.0
H66 H 0.30461 0.97445 0.1082 0.0
H67 H 0.23475 0.98743 0.25213 0.0
H68 H 0.26584 0.04337 0.05929 0.0
C69 C 0.28814 0.98594 0.11836 0.0
C70 C 0.28739 1.00948 0.07445 0.0
C71 C 0.26943 0.978 0.18292 0.0
C72 C 0.24883 0.99346 0.2006 0.0
C73 C 0.24698 0.0169 0.15402 0.0
C74 C 0.26666 0.02502 0.09252 0.0
N75 N 0.22609 0.03294 0.1697 0.0
C76 C 0.20563 0.02747 0.22974 0.0
H77 H 0.55251 0.30726 0.10458 0.0
H78 H 0.53963 0.23681 0.24592 0.0
H79 H 0.48524 0.26662 0.04372 0.0
C80 C 0.54131 0.29047 0.11285 0.0
C81 C 0.51833 0.2891 0.06508 0.0
C82 C 0.549 0.27189 0.17844 0.0
C83 C 0.53384 0.25084 0.19362 0.0
C84 C 0.51103 0.24841 0.14285 0.0
C85 C 0.50315 0.26792 0.08014 0.0
N86 N 0.49535 0.22705 0.15497 0.0
C87 C 0.50024 0.20699 0.21767 0.0
Sm88 Sm 0.02921 1.00616 0.86534 0.0
Sm89 Sm 1.0027 0.02472 0.66179 0.0
C90 C 0.03949 0.98648 0.03687 0.0
C91 C 0.05605 0.96564 0.06216 0.0
C92 C 0.05177 0.95164 0.14684 0.0
C93 C 0.06497 0.92953 0.16295 0.0
C94 C 0.08263 0.92103 0.09429 0.0
C95 C 0.08765 0.93579 0.01175 0.0
C96 C 0.07442 0.95785 0.99572 0.0
C97 C 0.06418 1.01007 0.71477 0.0
C98 C 1.01159 0.96438 0.6984 0.0
C99 C 0.99151 0.04477 0.49206 0.0
C100 C 0.97623 0.06702 0.47174 0.0
C101 C 0.9765 0.08709 0.53756 0.0
C102 C 0.9621 0.10825 0.52027 0.0
C103 C 0.94662 0.10975 0.43743 0.0
C104 C 0.94564 0.08914 0.37332 0.0
C105 C 0.96039 0.06797 0.39029 0.0
C106 C 0.96799 0.02161 0.81372 0.0
C107 C 0.02027 0.06637 0.82887 0.0
O108 O 0.01976 0.98013 0.98578 0.0
O109 O 0.0505 1.00675 0.00431 0.0
O110 O 0.04107 1.01426 0.71081 0.0
O111 O 0.06957 1.00369 0.80362 0.0
O112 O 0.01767 0.9691 0.79066 0.0
O113 O 1.0074 0.98236 0.63346 0.0
O114 O 1.01279 0.04899 0.53685 0.0
O115 O 0.97933 0.02554 0.52751 0.0
O116 O 0.991 0.01693 0.81663 0.0
O117 O 0.96255 0.02829 0.72525 0.0
O118 O 0.0149 0.06167 0.73593 0.0
O119 O 0.02374 0.04835 0.89422 0.0
H120 H 0.03746 0.95722 0.19826 0.0
H121 H 0.06029 0.9184 0.2265 0.0
H122 H 0.10123 0.92989 0.95796 0.0
H123 H 0.07787 0.96827 0.92937 0.0
H124 H 0.98813 0.08661 0.60213 0.0
H125 H 0.9639 0.12377 0.57044 0.0
H126 H 0.93371 0.08944 0.30947 0.0
H127 H 0.9595 0.05242 0.33976 0.0
Sm128 Sm 0.52301 0.02612 0.83502 0.0
Sm129 Sm 0.50204 1.00268 0.62711 0.0
C130 C 0.54783 0.03141 0.99903 0.0
C131 C 0.57366 0.0406 0.01037 0.0
C132 C 0.59244 0.03152 0.94844 0.0
C133 C 0.61616 0.04205 0.94906 0.0
C134 C 0.62209 0.06156 0.01363 0.0
C135 C 0.60337 0.07054 0.07677 0.0
C136 C 0.57929 0.06023 0.07462 0.0
C137 C 0.51866 0.06282 0.69136 0.0
C138 C 0.56265 1.01101 0.65488 0.0
C139 C 0.47968 0.99442 0.45947 0.0
C140 C 0.45691 0.97973 0.43986 0.0
C141 C 0.43615 0.98205 0.50161 0.0
C142 C 0.41503 0.96732 0.48745 0.0
C143 C 0.41417 0.94961 0.41173 0.0
C144 C 0.4352 0.94694 0.35082 0.0
C145 C 0.4564 0.9619 0.36485 0.0
C146 C 0.50625 0.96608 0.77152 0.0
C147 C 0.46234 0.01994 0.80479 0.0
O148 O 0.54543 1.00978 0.95487 0.0
O149 O 0.53157 0.04804 0.96918 0.0
O150 O 0.51419 0.03977 0.68399 0.0
O151 O 0.52559 0.06724 0.78063 0.0
O152 O 0.55889 0.0165 0.7483 0.0
O153 O 0.5441 1.0069 0.59245 0.0
O154 O 0.47658 0.01515 0.50935 0.0
O155 O 0.49906 0.98142 0.48818 0.0
O156 O 0.51092 0.98907 0.77767 0.0
O157 O 0.49896 0.96161 0.6829 0.0
O158 O 0.46622 0.01436 0.71121 0.0
O159 O 0.48082 0.0232 0.86849 0.0
H160 H 0.5888 0.01644 0.89782 0.0
H161 H 0.62984 0.03489 0.89813 0.0
H162 H 0.60736 0.08526 0.12869 0.0
H163 H 0.56504 0.06772 0.1224 0.0
H164 H 0.43615 0.99533 0.56107 0.0
H165 H 0.39908 0.97043 0.53442 0.0
H166 H 0.43525 0.93339 0.29215 0.0
H167 H 0.47241 0.95945 0.31756 0.0
Sm168 Sm 0.50092 0.52501 0.83822 0.0
Sm169 Sm 0.52695 0.5054 0.63536 0.0
C170 C 0.49021 0.5454 0.00759 0.0
C171 C 0.47518 0.5678 0.02802 0.0
C172 C 0.47587 0.58807 0.96304 0.0
C173 C 0.46162 0.60931 0.98042 0.0
C174 C 0.4459 0.61072 0.0625 0.0
C175 C 0.44452 0.58994 0.12574 0.0
C176 C 0.45909 0.56867 0.10868 0.0
C177 C 0.46606 0.52244 0.68645 0.0
C178 C 0.51995 0.56593 0.67059 0.0
C179 C 0.53751 0.4847 0.46644 0.0
C180 C 0.55192 0.46181 0.44712 0.0
C181 C 0.54978 0.44136 0.51073 0.0
C182 C 0.56359 0.41975 0.49516 0.0
C183 C 0.58031 0.41811 0.41629 0.0
C184 C 0.58306 0.43898 0.35419 0.0
C185 C 0.56893 0.46064 0.36948 0.0
C186 C 0.5618 0.50805 0.78716 0.0
C187 C 0.50794 0.46448 0.80308 0.0
O188 O 0.51145 0.54938 0.96223 0.0
O189 O 0.47777 0.52625 0.97286 0.0
O190 O 0.48899 0.51733 0.68339 0.0
O191 O 0.46084 0.5293 0.77484 0.0
O192 O 0.51415 0.56148 0.76332 0.0
O193 O 0.5232 0.54778 0.6057 0.0
O194 O 0.51601 0.48143 0.51071 0.0
O195 O 0.5504 0.5035 0.50157 0.0
O196 O 0.53887 0.51313 0.79014 0.0
O197 O 0.56705 0.50115 0.69882 0.0
O198 O 0.51371 0.46894 0.71035 0.0
O199 O 0.50476 0.48264 0.86796 0.0
H200 H 0.4877 0.58766 0.89905 0.0
H201 H 0.46371 0.62497 0.93099 0.0
H202 H 0.4324 0.59019 0.18899 0.0
H203 H 0.45787 0.55298 0.15849 0.0
H204 H 0.5372 0.44194 0.57235 0.0
H205 H 0.56043 0.40403 0.54343 0.0
H206 H 0.59594 0.43851 0.29332 0.0
H207 H 0.57126 0.47643 0.32075 0.0
Sm208 Sm 1.00215 0.50372 0.87 0.0
Sm209 Sm 0.02037 0.52732 0.6577 0.0
C210 C 0.98081 0.49606 0.03995 0.0
C211 C 0.95756 0.48224 0.06134 0.0
C212 C 0.93557 0.48798 0.01023 0.0
C213 C 0.91425 0.47338 0.02145 0.0
C214 C 0.91427 0.45268 0.08451 0.0
C215 C 0.93614 0.44708 0.13712 0.0
C216 C 0.95767 0.46169 0.12517 0.0
C217 C 1.00609 0.46699 0.7263 0.0
C218 C 0.96026 0.51943 0.6962 0.0
C219 C 0.04328 0.53252 0.48948 0.0
C220 C 0.06935 0.54047 0.47358 0.0
C221 C 0.08865 0.52876 0.52563 0.0
C222 C 0.11278 0.53827 0.52337 0.0
C223 C 0.11857 0.55945 0.46707 0.0
C224 C 0.09937 0.57091 0.41284 0.0
C225 C 0.07492 0.56156 0.41656 0.0
C226 C 0.01649 0.56398 0.80171 0.0
C227 C 0.06225 0.51329 0.83223 0.0
O228 O 0.97828 0.51704 0.99109 0.0
O229 O 0.9995 0.48239 0.00906 0.0
O230 O 1.00981 0.49014 0.71865 0.0
O231 O 1.00009 0.46242 0.81636 0.0
O232 O 0.96513 0.51362 0.78904 0.0
O233 O 0.97804 0.52365 0.6305 0.0
O234 O 0.04033 0.51075 0.53211 0.0
O235 O 0.02831 0.54972 0.52411 0.0
O236 O 1.01276 0.54083 0.80942 0.0
O237 O 0.02234 0.56862 0.7114 0.0
O238 O 0.05725 0.51818 0.73898 0.0
O239 O 0.0445 0.50914 0.89818 0.0
H240 H 0.93482 0.50369 0.96069 0.0
H241 H 0.89754 0.47868 0.98203 0.0
H242 H 0.93665 0.43133 0.18679 0.0
H243 H 0.97448 0.45674 0.16464 0.0
H244 H 0.08506 0.51257 0.57096 0.0
H245 H 0.12682 0.52913 0.56758 0.0
H246 H 0.10321 0.58697 0.36715 0.0
H247 H 0.06031 0.57104 0.37636 0.0
H248 H 0.16485 0.057 0.24177 0.0
H249 H 0.19729 0.9896 0.35729 0.0
H250 H 0.12909 0.0522 0.35219 0.0
H251 H 0.16151 0.98434 0.4662 0.0
H252 H 0.11331 1.00052 0.73179 0.0
H253 H 0.14594 1.00396 0.61026 0.0
H254 H 0.0917 0.02776 0.39611 0.0
H255 H 0.0586 0.02455 0.52045 0.0
C256 C 0.16415 0.04101 0.29028 0.0
C257 C 0.18383 0.02373 0.2916 0.0
C258 C 0.14359 0.03815 0.3531 0.0
C259 C 0.14233 0.01796 0.41901 0.0
C260 C 0.16192 1.00036 0.41792 0.0
C261 C 0.18242 1.00325 0.35514 0.0
C262 C 0.10818 1.00645 0.65879 0.0
C263 C 0.08327 1.0123 0.63607 0.0
C264 C 0.12699 1.00824 0.5885 0.0
C265 C 0.12162 0.01591 0.49255 0.0
C266 C 0.09662 0.0219 0.46937 0.0
C267 C 0.07761 0.02001 0.54037 0.0
H268 H 0.48825 0.20507 0.40855 0.0
H269 H 0.51819 0.16098 0.17317 0.0
H270 H 0.49161 0.16928 0.51869 0.0
H271 H 0.52218 0.125 0.28369 0.0
H272 H 0.504 0.05904 0.49691 0.0
H273 H 0.49918 0.09349 0.37903 0.0
H274 H 0.52301 0.14585 0.60037 0.0
H275 H 0.52716 0.11199 0.71659 0.0
C276 C 0.49576 0.18769 0.38082 0.0
C277 C 0.50319 0.18577 0.28302 0.0
C278 C 0.49778 0.16714 0.44384 0.0
C279 C 0.50735 0.14412 0.41064 0.0
C280 C 0.51454 0.14226 0.31186 0.0
C281 C 0.51249 0.16291 0.24874 0.0
C282 C 0.50803 0.07795 0.51997 0.0
C283 C 0.51571 0.08276 0.6164 0.0
C284 C 0.50546 0.0977 0.45241 0.0
C285 C 0.51044 0.12264 0.48017 0.0
C286 C 0.51843 0.12713 0.57643 0.0
C287 C 0.52098 0.10756 0.64322 0.0
H288 H 0.32564 0.49732 0.38466 0.0
H289 H 0.37297 0.52377 0.15216 0.0
H290 H 0.36061 0.49982 0.49893 0.0
H291 H 0.40818 0.5269 0.26688 0.0
H292 H 0.47123 0.50702 0.49303 0.0
H293 H 0.43787 0.50332 0.36978 0.0
H294 H 0.38462 0.53091 0.58024 0.0
H295 H 0.41735 0.53403 0.70162 0.0
C296 C 0.34358 0.50382 0.35834 0.0
C297 C 0.34662 0.51051 0.26011 0.0
C298 C 0.36367 0.50537 0.42378 0.0
C299 C 0.38736 0.51375 0.39277 0.0
C300 C 0.39037 0.52017 0.29351 0.0
C301 C 0.37018 0.51858 0.22793 0.0
C302 C 0.45237 0.5122 0.51248 0.0
C303 C 0.44696 0.52056 0.60751 0.0
C304 C 0.43324 0.51023 0.44184 0.0
C305 C 0.40832 0.51648 0.46507 0.0
C306 C 0.4033 0.5253 0.55974 0.0
C307 C 0.42224 0.52726 0.62953 0.0
H308 H 0.99054 0.32728 0.40497 0.0
H309 H 0.04528 0.3678 0.2373 0.0
H310 H 0.98571 0.36321 0.51383 0.0
H311 H 0.041 0.40373 0.34708 0.0
H312 H 1.01126 0.47158 0.52503 0.0
H313 H 0.01411 0.43756 0.40492 0.0
H314 H 1.00908 0.3836 0.63895 0.0
H315 H 1.00611 0.41724 0.7569 0.0
C316 C 1.00147 0.34397 0.39141 0.0
C317 C 0.01828 0.34483 0.31314 0.0
C318 C 0.99887 0.36455 0.45405 0.0
C319 C 1.01312 0.38648 0.44014 0.0
C320 C 0.02955 0.38738 0.35987 0.0
C321 C 0.03212 0.36676 0.29725 0.0
C322 C 1.01109 0.45246 0.55043 0.0
C323 C 1.0087 0.44718 0.65062 0.0
C324 C 1.01263 0.4329 0.48171 0.0
C325 C 1.01164 0.40767 0.51178 0.0
C326 C 1.0094 0.40265 0.61226 0.0
C327 C 1.0079 0.42205 0.68029 0.0
H328 H 0.86548 0.97556 0.28097 0.0
H329 H 0.83848 0.04731 0.18557 0.0
H330 H 0.90136 0.97948 0.17037 0.0
H331 H 0.87429 0.05154 0.07636 0.0
H332 H 0.91966 0.03501 0.80237 0.0
H333 H 0.88738 0.03242 0.92577 0.0
H334 H 0.94066 1.00239 0.13128 0.0
H335 H 0.97343 1.00486 0.0052 0.0
C336 C 0.86739 0.99227 0.2369 0.0
C337 C 0.84915 1.01105 0.24116 0.0
C338 C 0.88802 0.99461 0.17402 0.0
C339 C 0.89075 0.01575 0.11357 0.0
C340 C 0.87268 0.0348 0.1204 0.0
C341 C 0.85215 0.03246 0.18331 0.0
C342 C 0.92466 0.02792 0.87391 0.0
C343 C 0.9492 0.02012 0.89372 0.0
C344 C 0.90607 0.0266 0.94524 0.0
C345 C 0.91129 0.01738 0.03922 0.0
C346 C 0.9359 1.00949 0.05955 0.0
C347 C 0.95472 1.01097 0.98761 0.0
H348 H 0.48969 0.82811 0.10413 0.0
H349 H 0.54978 0.86602 0.25201 0.0
H350 H 0.48443 0.86402 0.99542 0.0
H351 H 0.54507 0.90191 0.14208 0.0
H352 H 0.51552 0.97085 0.97041 0.0
H353 H 0.51885 0.93698 0.09121 0.0
H354 H 0.50611 0.88288 0.86241 0.0
H355 H 0.50261 0.91637 0.74391 0.0
C356 C 0.50172 0.84422 0.11337 0.0
C357 C 0.52014 0.84435 0.18603 0.0
C358 C 0.49886 0.86478 0.05076 0.0
C359 C 0.51446 0.88596 0.05906 0.0
C360 C 0.53256 0.88616 0.13378 0.0
C361 C 0.53538 0.86555 0.19641 0.0
C362 C 0.51368 0.95171 0.94628 0.0
C363 C 0.50898 0.94635 0.84745 0.0
C364 C 0.51553 0.93225 0.01538 0.0
C365 C 0.51257 0.90705 0.98706 0.0
C366 C 0.50799 0.90193 0.88789 0.0
C367 C 0.50618 0.92123 0.81948 0.0
H368 H 0.66327 0.55504 0.25713 0.0
H369 H 0.694 0.48594 0.15074 0.0
H370 H 0.62757 0.55042 0.14618 0.0
H371 H 0.65826 0.48088 0.04122 0.0
H372 H 0.61055 0.49642 0.77267 0.0
H373 H 0.64319 0.49964 0.8945 0.0
H374 H 0.58961 0.52681 0.10453 0.0
H375 H 0.55654 0.52385 0.97987 0.0
C376 C 0.66222 0.53874 0.21044 0.0
C377 C 0.68141 0.52092 0.21187 0.0
C378 C 0.64168 0.53598 0.14734 0.0
C379 C 0.63994 0.51534 0.08385 0.0
C380 C 0.65905 0.49724 0.08757 0.0
C381 C 0.67953 0.50003 0.15067 0.0
C382 C 0.60557 0.50303 0.84487 0.0
C383 C 0.58086 0.50991 0.86628 0.0
C384 C 0.62438 0.50469 0.91535 0.0
C385 C 0.61921 0.5133 0.0102 0.0
C386 C 0.5944 0.52024 0.03212 0.0
C387 C 0.57539 0.51848 0.96095 0.0
H388 H 0.97442 0.66433 0.28351 0.0
H389 H 0.03559 0.70093 0.13752 0.0
H390 H 0.97824 0.62856 0.17248 0.0
H391 H 0.03994 0.66518 0.02787 0.0
H392 H 0.02105 0.6137 0.775 0.0
H393 H 0.01793 0.64708 0.89395 0.0
H394 H 1.00376 0.59291 0.1214 0.0
H395 H 1.00664 0.55913 1.00008 0.0
C396 C 0.98884 0.66456 0.22804 0.0
C397 C 1.00465 0.68537 0.21862 0.0
C398 C 0.99115 0.64402 0.16479 0.0
C399 C 1.00931 0.64389 0.09038 0.0
C400 C 0.02544 0.66468 0.08291 0.0
C401 C 0.0231 0.68517 0.14612 0.0
C402 C 0.01725 0.60879 0.85036 0.0
C403 C 0.01401 0.58368 0.87784 0.0
C404 C 0.01565 0.62803 0.91905 0.0
C405 C 1.01082 0.62286 0.01801 0.0
C406 C 1.00734 0.59767 0.04579 0.0
C407 C 1.009 0.57827 0.97644 0.0
H408 H 0.9744 0.25097 0.40119 0.0
H409 H 0.92713 0.24654 0.1469 0.0
H410 H 0.95138 0.21699 0.47621 0.0
H411 H 0.90382 0.21243 0.22203 0.0
H412 H 0.92541 0.14388 0.56359 0.0
H413 H 0.91685 0.18772 0.5277 0.0
H414 H 0.93001 0.17366 0.22137 0.0
H415 H 0.93958 0.13062 0.25691 0.0
C416 C 0.95791 0.24398 0.36433 0.0
C417 C 0.95306 0.25065 0.26704 0.0
C418 C 0.94469 0.22431 0.40719 0.0
C419 C 0.92652 0.21132 0.35288 0.0
C420 C 0.91819 0.22171 0.26437 0.0
C421 C 0.9314 0.2414 0.22167 0.0
C422 C 0.92604 0.15006 0.48827 0.0
C423 C 0.93404 0.13381 0.41357 0.0
C424 C 0.92081 0.17512 0.46782 0.0
C425 C 0.92298 0.18425 0.37203 0.0
C426 C 0.92787 0.16726 0.29601 0.0
C427 C 0.93347 0.14238 0.31655 0.0
H428 H 0.27879 0.93016 0.12438 0.0
H429 H 0.27473 0.97717 0.3793 0.0
H430 H 0.31152 0.90556 0.20178 0.0
H431 H 0.30755 0.95316 0.45601 0.0
H432 H 0.38032 0.93023 0.543 0.0
H433 H 0.33661 0.92056 0.50921 0.0
H434 H 0.35082 0.92883 0.20004 0.0
H435 H 0.39383 0.93896 0.23354 0.0
C436 C 0.28372 0.93417 0.19957 0.0
C437 C 0.27507 0.95608 0.24463 0.0
C438 C 0.30265 0.92024 0.24363 0.0
C439 C 0.31306 0.92827 0.33259 0.0
C440 C 0.30037 0.9467 0.38647 0.0
C441 C 0.28135 0.96053 0.34256 0.0
C442 C 0.37418 0.92938 0.46765 0.0
C443 C 0.39039 0.93623 0.39111 0.0
C444 C 0.34919 0.92359 0.4484 0.0
C445 C 0.34005 0.92435 0.35222 0.0
C446 C 0.35712 0.92788 0.27517 0.0
C447 C 0.38197 0.93385 0.29442 0.0
H448 H 0.54829 0.278 0.37445 0.0
H449 H 0.59706 0.28154 0.1246 0.0
H450 H 0.57196 0.31102 0.45272 0.0
H451 H 0.62114 0.31457 0.20324 0.0
H452 H 0.58896 0.39758 0.23659 0.0
H453 H 0.59735 0.35429 0.20118 0.0
H454 H 0.60633 0.33901 0.50916 0.0
H455 H 0.59879 0.38303 0.54503 0.0
C456 C 0.5652 0.28455 0.33934 0.0
C457 C 0.57039 0.27794 0.24234 0.0
C458 C 0.57881 0.30367 0.38407 0.0
C459 C 0.59772 0.31618 0.33195 0.0
C460 C 0.60619 0.30572 0.24384 0.0
C461 C 0.59255 0.28663 0.19915 0.0
C462 C 0.5939 0.38543 0.29681 0.0
C463 C 0.59241 0.39374 0.39393 0.0
C464 C 0.59883 0.36041 0.2764 0.0
C465 C 0.60214 0.34305 0.35262 0.0
C466 C 0.60353 0.35188 0.44905 0.0
C467 C 0.59892 0.37705 0.46945 0.0
H468 H 0.23802 0.60278 0.16903 0.0
H469 H 0.27082 0.5535 0.38275 0.0
H470 H 0.2066 0.61508 0.28649 0.0
H471 H 0.24063 0.56735 0.50275 0.0
H472 H 0.16088 0.53135 0.46931 0.0
H473 H 0.20322 0.54466 0.45067 0.0
H474 H 0.17933 0.62154 0.4292 0.0
H475 H 0.136 0.60803 0.45263 0.0
C476 C 0.23963 0.59592 0.24329 0.0
C477 C 0.25542 0.57566 0.26458 0.0
C478 C 0.2216 0.60312 0.31125 0.0
C479 C 0.22005 0.59056 0.40125 0.0
C480 C 0.24065 0.57624 0.43158 0.0
C481 C 0.25816 0.56839 0.36264 0.0
C482 C 0.16444 0.55123 0.46475 0.0
C483 C 0.14481 0.56855 0.46239 0.0
C484 C 0.18902 0.55898 0.45459 0.0
C485 C 0.19489 0.58431 0.43975 0.0
C486 C 0.17544 0.60191 0.44114 0.0
C487 C 0.15062 0.59411 0.45297 0.0
H488 H 0.04518 0.78036 0.11862 0.0
H489 H 0.09946 0.78039 0.35095 0.0
H490 H 0.06759 0.81358 0.03738 0.0
H491 H 0.12288 0.81315 0.26762 0.0
H492 H 0.09982 0.89808 0.25958 0.0
H493 H 0.10594 0.85373 0.28261 0.0
H494 H 0.09704 0.8418 0.97191 0.0
H495 H 0.08953 0.88626 0.94997 0.0
C496 C 0.06297 0.78623 0.14865 0.0
C497 C 0.07018 0.77855 0.24239 0.0
C498 C 0.07592 0.80551 0.10218 0.0
C499 C 0.09636 0.81703 0.14886 0.0
C500 C 0.10658 0.80538 0.23191 0.0
C501 C 0.0934 0.78634 0.27906 0.0
C502 C 0.09966 0.88606 0.19592 0.0
C503 C 0.09338 0.89559 0.10366 0.0
C504 C 0.10363 0.86053 0.20865 0.0
C505 C 0.10148 0.84393 0.12917 0.0
C506 C 0.09832 0.85395 0.03496 0.0
C507 C 0.09417 0.87952 0.02236 0.0
H508 H 0.77362 0.05532 0.10954 0.0
H509 H 0.73848 0.10041 0.33084 0.0
H510 H 0.74453 0.07124 0.98884 0.0
H511 H 0.70819 0.11477 0.21259 0.0
H512 H 0.63859 0.10984 0.04627 0.0
H513 H 0.68165 0.12343 0.0749 0.0
H514 H 0.70698 0.04812 0.01918 0.0
H515 H 0.6649 0.03475 0.9938 0.0
C516 C 0.76068 0.06978 0.1315 0.0
C517 C 0.75698 0.07527 0.23074 0.0
C518 C 0.74374 0.07875 0.06227 0.0
C519 C 0.72275 0.0924 0.0933 0.0
C520 C 0.72344 0.10333 0.18669 0.0
C521 C 0.74088 0.09501 0.25511 0.0
C522 C 0.6535 0.09634 0.03919 0.0
C523 C 0.64816 0.07111 0.01878 0.0
C524 C 0.67818 0.10421 0.05428 0.0
C525 C 0.69796 0.08701 0.04889 0.0
C526 C 0.69256 0.06224 0.0216 0.0
C527 C 0.66811 0.05441 0.00756 0.0
H528 H 0.47509 0.75145 0.09985 0.0
H529 H 0.42849 0.74706 0.3558 0.0
H530 H 0.45146 0.71792 0.02482 0.0
H531 H 0.40452 0.71344 0.28055 0.0
H532 H 0.43886 0.63126 0.24332 0.0
H533 H 0.42976 0.67434 0.27973 0.0
H534 H 0.41691 0.6891 0.97349 0.0
H535 H 0.42511 0.64524 0.93674 0.0
C536 C 0.45862 0.74458 0.13716 0.0
C537 C 0.45413 0.7511 0.2348 0.0
C538 C 0.44504 0.72517 0.09427 0.0
C539 C 0.42687 0.71228 0.1489 0.0
C540 C 0.41891 0.7226 0.23797 0.0
C541 C 0.43249 0.74202 0.28075 0.0
C542 C 0.43293 0.64321 0.18388 0.0
C543 C 0.4335 0.63482 0.08667 0.0
C544 C 0.42758 0.6681 0.2049 0.0
C545 C 0.42294 0.68529 0.12918 0.0
C546 C 0.42071 0.67635 0.03316 0.0
C547 C 0.42571 0.65128 0.01221 0.0
H548 H 0.77888 0.42788 0.36537 0.0
H549 H 0.7739 0.47803 0.11977 0.0
H550 H 0.81224 0.40507 0.284 0.0
H551 H 0.80738 0.45594 0.03942 0.0
H552 H 0.89464 0.43762 0.25843 0.0
H553 H 0.85155 0.42694 0.28964 0.0
H554 H 0.83678 0.42585 0.97898 0.0
H555 H 0.88032 0.43676 0.94796 0.0
C556 C 0.78382 0.43301 0.29124 0.0
C557 C 0.77461 0.45522 0.25015 0.0
C558 C 0.80315 0.42014 0.24502 0.0
C559 C 0.81343 0.42954 0.15787 0.0
C560 C 0.80035 0.44839 0.10749 0.0
C561 C 0.78092 0.46112 0.15347 0.0
C562 C 0.88253 0.43405 0.19659 0.0
C563 C 0.89066 0.43879 0.10099 0.0
C564 C 0.85767 0.42774 0.21431 0.0
C565 C 0.84043 0.42606 0.13669 0.0
C566 C 0.84943 0.42752 0.04041 0.0
C567 C 0.87433 0.43389 0.02272 0.0
H568 H 0.0456 0.21001 0.12957 0.0
H569 H 0.98427 0.22172 0.93122 0.0
H570 H 0.05218 0.16826 0.06023 0.0
H571 H 0.9905 0.1802 0.86241 0.0
H572 H 0.01556 0.10876 0.71689 0.0
H573 H 0.01654 0.15217 0.76954 0.0
H574 H 0.02979 0.12837 0.06654 0.0
H575 H 0.02903 0.08484 0.01377 0.0
C576 C 0.03412 0.20399 0.0688 0.0
C577 C 0.01467 0.21928 0.03481 0.0
C578 C 0.03756 0.1799 0.03013 0.0
C579 C 0.02173 0.17062 0.95613 0.0
C580 C 1.00325 0.18663 0.91845 0.0
C581 C 0.99971 0.21054 0.95759 0.0
C582 C 0.01874 0.11267 0.79348 0.0
C583 C 0.02198 0.09305 0.86097 0.0
C584 C 0.01927 0.13769 0.82377 0.0
C585 C 0.02319 0.14396 0.9225 0.0
C586 C 0.02705 0.12439 0.9897 0.0
C587 C 0.02642 0.09931 0.95944 0.0
H588 H 0.30613 0.98786 0.91068 0.0
H589 H 0.32031 0.04729 0.11545 0.0
H590 H 0.34783 0.99307 0.84237 0.0
H591 H 0.3623 0.0528 0.04676 0.0
H592 H 0.44492 0.02771 0.9923 0.0
H593 H 0.40164 0.02923 0.04809 0.0
H594 H 0.37628 0.01919 0.75122 0.0
H595 H 0.41932 0.01756 0.69569 0.0
C596 C 0.31793 1.00267 0.93873 0.0
C597 C 0.30975 0.01744 0.01732 0.0
C598 C 0.34195 1.00562 0.89989 0.0
C599 C 0.35869 0.02326 0.93925 0.0
C600 C 0.35009 0.03883 0.0152 0.0
C601 C 0.32587 0.03601 0.05353 0.0
C602 C 0.43015 0.02598 0.93868 0.0
C603 C 0.43587 0.0222 0.8393 0.0
C604 C 0.40523 0.02702 0.97072 0.0
C605 C 0.38527 0.02425 0.9044 0.0
C606 C 0.39103 0.02104 0.80486 0.0
C607 C 0.41588 0.0201 0.77288 0.0
H608 H 0.54076 0.30846 0.90394 0.0
H609 H 0.47971 0.32102 0.10239 0.0
H610 H 0.53536 0.35027 0.8362 0.0
H611 H 0.47405 0.36309 0.03444 0.0
H612 H 0.49934 0.44618 0.98857 0.0
H613 H 0.49771 0.40261 0.04131 0.0
H614 H 0.50915 0.37867 0.74358 0.0
H615 H 0.51085 0.42204 0.69091 0.0
C616 C 0.52557 0.31992 0.93056 0.0
C617 C 0.51039 0.31131 0.0073 0.0
C618 C 0.52251 0.34398 0.89211 0.0
C619 C 0.50438 0.36028 0.93019 0.0
C620 C 0.48839 0.3512 0.00399 0.0
C621 C 0.49131 0.32695 0.04186 0.0
C622 C 0.50134 0.43167 0.93409 0.0
C623 C 0.50553 0.43786 0.83539 0.0
C624 C 0.50023 0.40659 0.96435 0.0
C625 C 0.50336 0.38697 0.89688 0.0
C626 C 0.50698 0.39319 0.79796 0.0
C627 C 0.50797 0.4182 0.76769 0.0
H628 H 0.21151 0.48661 0.09167 0.0
H629 H 0.21682 0.5557 0.93155 0.0
H630 H 0.16865 0.48081 0.03159 0.0
H631 H 0.17427 0.55039 0.87305 0.0
H632 H 0.10278 0.52849 0.72682 0.0
H633 H 0.14651 0.52811 0.77175 0.0
H634 H 0.12718 0.49842 0.05533 0.0
H635 H 0.08308 0.49779 0.00776 0.0
C636 C 0.20378 0.50015 0.04123 0.0
C637 C 0.21773 0.5214 0.01501 0.0
C638 C 0.17904 0.4971 0.00816 0.0
C639 C 0.16769 0.51519 0.94763 0.0
C640 C 0.18221 0.53583 0.91825 0.0
C641 C 0.20675 0.5389 0.95157 0.0
C642 C 0.10774 0.52144 0.79809 0.0
C643 C 0.08916 0.51294 0.86278 0.0
C644 C 0.13299 0.52151 0.82462 0.0
C645 C 0.14069 0.51331 0.91761 0.0
C646 C 0.12216 0.50458 0.98256 0.0
C647 C 0.09675 0.50444 0.9556 0.0
H648 H 0.04714 0.80915 0.58441 0.0
H649 H 0.98091 0.81991 0.41094 0.0
H650 H 0.04241 0.8508 0.65373 0.0
H651 H 0.97583 0.86178 0.48108 0.0
H652 H 0.99851 0.94559 0.51775 0.0
H653 H 0.99721 0.90198 0.46574 0.0
H654 H 0.01891 0.87873 0.7557 0.0
H655 H 0.02062 0.92221 0.80731 0.0
C656 C 0.03103 0.82016 0.56374 0.0
C657 C 0.01422 0.81109 0.49317 0.0
C658 C 0.02833 0.84415 0.60321 0.0
C659 C 1.00884 0.85994 0.57262 0.0
C660 C 0.99126 0.85035 0.50554 0.0
C661 C 0.99388 0.82617 0.46654 0.0
C662 C 1.00291 0.93121 0.57069 0.0
C663 C 1.0098 0.93765 0.6668 0.0
C664 C 1.00195 0.90609 0.54097 0.0
C665 C 1.00794 0.88664 0.60633 0.0
C666 C 0.01444 0.8931 0.70281 0.0
C667 C 0.01533 0.91816 0.73258 0.0
H668 H 0.72661 1.01267 0.59477 0.0
H669 H 0.69758 0.01488 0.30122 0.0
H670 H 0.68416 1.0064 0.65786 0.0
H671 H 0.65542 1.00957 0.3629 0.0
H672 H 0.581 0.98743 0.49109 0.0
H673 H 0.62421 0.98521 0.43529 0.0
H674 H 0.64729 0.03015 0.68158 0.0
H675 H 0.60428 0.03192 0.73746 0.0
C676 C 0.71124 1.01119 0.54368 0.0
C677 C 0.71548 1.01417 0.44307 0.0
C678 C 0.6868 1.00802 0.57969 0.0
C679 C 0.66601 1.00775 0.51589 0.0
C680 C 0.67066 1.00936 0.41484 0.0
C681 C 0.69495 1.01247 0.37919 0.0
C682 C 0.59531 0.99679 0.53342 0.0
C683 C 0.58904 1.00968 0.61946 0.0
C684 C 0.62021 0.99557 0.50133 0.0
C685 C 0.63961 1.00742 0.55376 0.0
C686 C 0.63322 0.02025 0.64001 0.0
C687 C 0.60838 0.02134 0.6722 0.0
H688 H 0.5466 0.70928 0.36826 0.0
H689 H 0.48604 0.72158 0.56925 0.0
H690 H 0.55295 0.66743 0.43735 0.0
H691 H 0.49203 0.67997 0.63777 0.0
H692 H 0.51643 0.60837 0.78244 0.0
H693 H 0.51802 0.65174 0.72957 0.0
H694 H 0.53017 0.62775 0.43228 0.0
H695 H 0.52884 0.58421 0.48534 0.0
C696 C 0.53525 0.70335 0.42952 0.0
C697 C 0.51607 0.71884 0.46436 0.0
C698 C 0.53856 0.67922 0.46805 0.0
C699 C 0.52286 0.67009 0.54275 0.0
C700 C 0.50467 0.68629 0.58119 0.0
C701 C 0.50126 0.71024 0.54222 0.0
C702 C 0.51952 0.61222 0.70574 0.0
C703 C 0.52227 0.59256 0.63825 0.0
C704 C 0.5204 0.63722 0.67532 0.0
C705 C 0.52414 0.64343 0.57643 0.0
C706 C 0.52757 0.6238 0.50922 0.0
C707 C 0.52662 0.59873 0.53965 0.0
H708 H 0.8049 0.48277 0.58754 0.0
H709 H 0.81601 0.54681 0.40182 0.0
H710 H 0.84649 0.4883 0.65629 0.0
H711 H 0.85782 0.55277 0.47155 0.0
H712 H 0.94145 0.53104 0.51399 0.0
H713 H 0.89794 0.53177 0.46138 0.0
H714 H 0.8746 0.51246 0.75377 0.0
H715 H 0.91797 0.51124 0.80568 0.0
C716 C 0.81597 0.49861 0.56398 0.0
C717 C 0.807 0.51454 0.49016 0.0
C718 C 0.83994 0.50177 0.60316 0.0
C719 C 0.85583 0.52088 0.56918 0.0
C720 C 0.84633 0.53764 0.49873 0.0
C721 C 0.82218 0.53454 0.45991 0.0
C722 C 0.92708 0.52704 0.56738 0.0
C723 C 0.9335 0.52094 0.66438 0.0
C724 C 0.90199 0.52768 0.53724 0.0
C725 C 0.88252 0.52217 0.60306 0.0
C726 C 0.88895 0.51651 0.70039 0.0
C727 C 0.91399 0.51591 0.73046 0.0
loop_
_geom_bond_atom_site_label_1
_geom_bond_atom_site_label_2
_geom_bond_distance
_geom_bond_site_symmetry_2
_ccdc_geom_bond_type
H0 C3 0.929 . S
H1 C6 0.929 . S
H2 C8 0.930 . S
C3 H0 0.929 . S
C3 C4 1.398 . S
C3 C5 1.396 . S
C4 C3 1.398 . S
C4 C8 1.407 . S
C5 C3 1.396 . S
C5 C6 1.394 . S
C6 H1 0.929 . S
C6 C5 1.394 . S
C6 C7 1.382 . S
C7 C6 1.382 . S
C7 C8 1.392 . S
C7 N9 1.420 . S
C8 H2 0.930 . S
C8 C4 1.407 . S
C8 C7 1.392 . S
N9 C7 1.420 . S
N9 C10 1.244 . S
C10 N9 1.244 . S
H11 C14 0.929 . S
H12 C17 0.929 . S
H13 C19 0.930 . S
C14 H11 0.929 . S
C14 C15 1.395 1_655 S
C14 C16 1.395 1_655 S
C15 C14 1.395 1_455 S
C15 C19 1.413 . S
C16 C14 1.395 1_455 S
C16 C17 1.397 . S
C17 H12 0.929 . S
C17 C16 1.397 . S
C17 C18 1.382 . S
C18 C17 1.382 . S
C18 C19 1.392 . S
C18 N20 1.420 . S
C19 H13 0.930 . S
C19 C15 1.413 . S
C19 C18 1.392 . S
N20 C18 1.420 . S
N20 C21 1.232 1_455 S
C21 N20 1.232 1_655 S
H22 C25 0.929 . S
H23 C28 0.929 . S
H24 C30 0.930 . S
C25 H22 0.929 . S
C25 C26 1.395 1_565 S
C25 C27 1.395 1_565 S
C26 C25 1.395 1_545 S
C26 C30 1.413 . S
C27 C25 1.395 1_545 S
C27 C28 1.397 . S
C28 H23 0.929 . S
C28 C27 1.397 . S
C28 C29 1.382 . S
C29 C28 1.382 . S
C29 C30 1.392 . S
C29 N31 1.420 . S
C30 H24 0.930 . S
C30 C26 1.413 . S
C30 C29 1.392 . S
N31 C29 1.420 . S
N31 C32 1.232 1_545 S
C32 N31 1.232 1_565 S
H33 C36 0.929 . S
H34 C39 0.929 . S
H35 C41 0.930 . S
C36 H33 0.929 . S
C36 C37 1.398 . S
C36 C38 1.396 . S
C37 C36 1.398 . S
C37 C41 1.407 . S
C38 C36 1.396 . S
C38 C39 1.394 . S
C39 H34 0.929 . S
C39 C38 1.394 . S
C39 C40 1.382 . S
C40 C39 1.382 . S
C40 C41 1.392 . S
C40 N42 1.420 . S
C41 H35 0.930 . S
C41 C37 1.407 . S
C41 C40 1.392 . S
N42 C40 1.420 . S
N42 C43 1.244 . S
C43 N42 1.244 . S
H44 C47 0.929 . S
H45 C50 0.929 . S
H46 C52 0.930 . S
C47 H44 0.929 . S
C47 C48 1.398 1_554 S
C47 C49 1.396 . S
C48 C47 1.398 1_556 S
C48 C52 1.407 . S
C49 C47 1.396 . S
C49 C50 1.394 . S
C50 H45 0.929 . S
C50 C49 1.394 . S
C50 C51 1.382 . S
C51 C50 1.382 . S
C51 C52 1.392 1_554 S
C51 N53 1.420 . S
C52 H46 0.930 . S
C52 C48 1.407 . S
C52 C51 1.392 1_556 S
N53 C51 1.420 . S
N53 C54 1.244 . S
C54 N53 1.244 . S
H55 C58 0.929 . S
H56 C61 0.929 . S
H57 C63 0.930 . S
C58 H55 0.929 . S
C58 C59 1.395 1_654 S
C58 C60 1.394 1_655 S
C59 C58 1.395 1_456 S
C59 C63 1.416 . S
C60 C58 1.394 1_455 S
C60 C61 1.398 . S
C61 H56 0.929 . S
C61 C60 1.398 . S
C61 C62 1.382 . S
C62 C61 1.382 . S
C62 C63 1.392 1_554 S
C62 N64 1.420 . S
C63 H57 0.930 . S
C63 C59 1.416 . S
C63 C62 1.392 1_556 S
N64 C62 1.420 . S
N64 C65 1.237 1_455 S
C65 N64 1.237 1_655 S
H66 C69 0.929 . S
H67 C72 0.929 . S
H68 C74 0.930 . S
C69 H66 0.929 . S
C69 C70 1.395 1_564 S
C69 C71 1.394 1_565 S
C70 C69 1.395 1_546 S
C70 C74 1.416 . S
C71 C69 1.394 1_545 S
C71 C72 1.398 . S
C72 H67 0.929 . S
C72 C71 1.398 . S
C72 C73 1.382 . S
C73 C72 1.382 . S
C73 C74 1.392 1_554 S
C73 N75 1.420 . S
C74 H68 0.930 . S
C74 C70 1.416 . S
C74 C73 1.392 1_556 S
N75 C73 1.420 . S
N75 C76 1.237 1_545 S
C76 N75 1.237 1_565 S
H77 C80 0.929 . S
H78 C83 0.929 . S
H79 C85 0.930 . S
C80 H77 0.929 . S
C80 C81 1.398 1_554 S
C80 C82 1.396 . S
C81 C80 1.398 1_556 S
C81 C85 1.407 . S
C82 C80 1.396 . S
C82 C83 1.394 . S
C83 H78 0.929 . S
C83 C82 1.394 . S
C83 C84 1.382 . S
C84 C83 1.382 . S
C84 C85 1.392 1_554 S
C84 N86 1.420 . S
C85 H79 0.930 . S
C85 C81 1.407 . S
C85 C84 1.392 1_556 S
N86 C84 1.420 . S
N86 C87 1.244 . S
C87 N86 1.244 . S
Sm88 C90 2.846 . S
Sm88 O108 2.543 . S
Sm88 O109 2.450 . S
Sm88 O110 2.681 1_565 S
Sm88 O111 2.464 . S
Sm88 O112 2.396 . S
Sm88 O116 2.386 1_455 S
Sm88 O119 2.408 1_565 S
Sm89 C99 2.846 . S
Sm89 O110 2.386 1_655 S
Sm89 O113 2.408 1_545 S
Sm89 O114 2.543 . S
Sm89 O115 2.450 . S
Sm89 O116 2.681 1_545 S
Sm89 O117 2.464 . S
Sm89 O118 2.396 . S
C90 Sm88 2.846 . S
C90 C91 1.506 1_556 S
C90 O108 1.261 . S
C90 O109 1.242 . S
C91 C90 1.506 1_554 S
C91 C92 1.358 . S
C91 C96 1.382 . S
C92 C91 1.358 . S
C92 C93 1.385 . S
C92 H120 0.930 1_455 S
C93 C92 1.385 . S
C93 C94 1.395 . S
C93 H121 0.929 1_455 S
C94 C93 1.395 . S
C94 C95 1.335 . S
C95 C94 1.335 . S
C95 C96 1.398 . S
C95 H122 0.930 . S
C96 C91 1.382 . S
C96 C95 1.398 . S
C96 H123 0.929 1_554 S
C97 O110 1.271 1_565 S
C97 O111 1.251 . S
C98 O112 1.252 1_655 S
C98 O113 1.272 . S
C99 Sm89 2.846 . S
C99 C100 1.506 . S
C99 O114 1.261 . S
C99 O115 1.242 . S
C100 C99 1.506 . S
C100 C101 1.358 . S
C100 C105 1.382 . S
C101 C100 1.358 . S
C101 C102 1.385 . S
C101 H124 0.930 1_655 S
C102 C101 1.385 . S
C102 C103 1.395 . S
C102 H125 0.929 1_655 S
C103 C102 1.395 . S
C103 C104 1.335 . S
C104 C103 1.335 . S
C104 C105 1.398 . S
C104 H126 0.930 . S
C105 C100 1.382 . S
C105 C104 1.398 . S
C105 H127 0.929 . S
C106 O116 1.271 1_545 S
C106 O117 1.251 . S
C107 O118 1.252 1_455 S
C107 O119 1.272 . S
O108 Sm88 2.543 . S
O108 C90 1.261 . S
O109 Sm88 2.450 . S
O109 C90 1.242 . S
O110 Sm88 2.681 1_545 S
O110 Sm89 2.386 1_455 S
O110 C97 1.271 1_545 S
O111 Sm88 2.464 . S
O111 C97 1.251 . S
O112 Sm88 2.396 . S
O112 C98 1.252 1_455 S
O113 Sm89 2.408 1_565 S
O113 C98 1.272 . S
O114 Sm89 2.543 . S
O114 C99 1.261 . S
O115 Sm89 2.450 . S
O115 C99 1.242 . S
O116 Sm88 2.386 1_655 S
O116 Sm89 2.681 1_565 S
O116 C106 1.271 1_565 S
O117 Sm89 2.464 . S
O117 C106 1.251 . S
O118 Sm89 2.396 . S
O118 C107 1.252 1_655 S
O119 Sm88 2.408 1_545 S
O119 C107 1.272 . S
H120 C92 0.930 1_655 S
H121 C93 0.929 1_655 S
H122 C95 0.930 . S
H123 C96 0.929 1_556 S
H124 C101 0.930 1_455 S
H125 C102 0.929 1_455 S
H126 C104 0.930 . S
H127 C105 0.929 . S
Sm128 C130 2.846 . S
Sm128 O148 2.543 . S
Sm128 O149 2.450 . S
Sm128 O150 2.681 . S
Sm128 O151 2.464 . S
Sm128 O152 2.396 . S
Sm128 O156 2.386 1_545 S
Sm128 O159 2.408 . S
Sm129 C139 2.846 . S
Sm129 O150 2.386 1_565 S
Sm129 O153 2.408 . S
Sm129 O154 2.543 . S
Sm129 O155 2.450 . S
Sm129 O156 2.681 . S
Sm129 O157 2.464 . S
Sm129 O158 2.396 . S
C130 Sm128 2.846 . S
C130 C131 1.506 1_556 S
C130 O148 1.261 . S
C130 O149 1.242 . S
C131 C130 1.506 1_554 S
C131 C132 1.358 . S
C131 C136 1.382 . S
C132 C131 1.358 . S
C132 C133 1.385 . S
C132 H160 0.930 1_545 S
C133 C132 1.385 . S
C133 C134 1.395 . S
C133 H161 0.929 1_545 S
C134 C133 1.395 . S
C134 C135 1.335 . S
C135 C134 1.335 . S
C135 C136 1.398 . S
C135 H162 0.930 . S
C136 C131 1.382 . S
C136 C135 1.398 . S
C136 H163 0.929 1_554 S
C137 O150 1.271 . S
C137 O151 1.251 . S
C138 O152 1.252 1_565 S
C138 O153 1.272 . S
C139 Sm129 2.846 . S
C139 C140 1.506 . S
C139 O154 1.261 . S
C139 O155 1.242 . S
C140 C139 1.506 . S
C140 C141 1.358 . S
C140 C145 1.382 . S
C141 C140 1.358 . S
C141 C142 1.385 . S
C141 H164 0.930 1_565 S
C142 C141 1.385 . S
C142 C143 1.395 . S
C142 H165 0.929 1_565 S
C143 C142 1.395 . S
C143 C144 1.335 . S
C144 C143 1.335 . S
C144 C145 1.398 . S
C144 H166 0.930 . S
C145 C140 1.382 . S
C145 C144 1.398 . S
C145 H167 0.929 . S
C146 O156 1.271 . S
C146 O157 1.251 . S
C147 O158 1.252 1_545 S
C147 O159 1.272 . S
O148 Sm128 2.543 . S
O148 C130 1.261 . S
O149 Sm128 2.450 . S
O149 C130 1.242 . S
O150 Sm128 2.681 . S
O150 Sm129 2.386 1_545 S
O150 C137 1.271 . S
O151 Sm128 2.464 . S
O151 C137 1.251 . S
O152 Sm128 2.396 . S
O152 C138 1.252 1_545 S
O153 Sm129 2.408 . S
O153 C138 1.272 . S
O154 Sm129 2.543 . S
O154 C139 1.261 . S
O155 Sm129 2.450 . S
O155 C139 1.242 . S
O156 Sm128 2.386 1_565 S
O156 Sm129 2.681 . S
O156 C146 1.271 . S
O157 Sm129 2.464 . S
O157 C146 1.251 . S
O158 Sm129 2.396 . S
O158 C147 1.252 1_565 S
O159 Sm128 2.408 . S
O159 C147 1.272 . S
H160 C132 0.930 1_565 S
H161 C133 0.929 1_565 S
H162 C135 0.930 . S
H163 C136 0.929 1_556 S
H164 C141 0.930 1_545 S
H165 C142 0.929 1_545 S
H166 C144 0.930 . S
H167 C145 0.929 . S
Sm168 C170 2.846 . S
Sm168 O188 2.543 . S
Sm168 O189 2.450 . S
Sm168 O190 2.681 . S
Sm168 O191 2.464 . S
Sm168 O192 2.396 . S
Sm168 O196 2.386 . S
Sm168 O199 2.408 . S
Sm169 C179 2.846 . S
Sm169 O190 2.386 . S
Sm169 O193 2.408 . S
Sm169 O194 2.543 . S
Sm169 O195 2.450 . S
Sm169 O196 2.681 . S
Sm169 O197 2.464 . S
Sm169 O198 2.396 . S
C170 Sm168 2.846 . S
C170 C171 1.506 1_556 S
C170 O188 1.261 . S
C170 O189 1.242 . S
C171 C170 1.506 1_554 S
C171 C172 1.358 . S
C171 C176 1.382 . S
C172 C171 1.358 . S
C172 C173 1.385 . S
C172 H200 0.930 . S
C173 C172 1.385 . S
C173 C174 1.395 . S
C173 H201 0.929 . S
C174 C173 1.395 . S
C174 C175 1.335 . S
C175 C174 1.335 . S
C175 C176 1.398 . S
C175 H202 0.930 . S
C176 C171 1.382 . S
C176 C175 1.398 . S
C176 H203 0.929 1_554 S
C177 O190 1.271 . S
C177 O191 1.251 . S
C178 O192 1.252 . S
C178 O193 1.272 . S
C179 Sm169 2.846 . S
C179 C180 1.506 . S
C179 O194 1.261 . S
C179 O195 1.242 . S
C180 C179 1.506 . S
C180 C181 1.358 . S
C180 C185 1.382 . S
C181 C180 1.358 . S
C181 C182 1.385 . S
C181 H204 0.930 . S
C182 C181 1.385 . S
C182 C183 1.395 . S
C182 H205 0.929 . S
C183 C182 1.395 . S
C183 C184 1.335 . S
C184 C183 1.335 . S
C184 C185 1.398 . S
C184 H206 0.930 . S
C185 C180 1.382 . S
C185 C184 1.398 . S
C185 H207 0.929 . S
C186 O196 1.271 . S
C186 O197 1.251 . S
C187 O198 1.252 . S
C187 O199 1.272 . S
O188 Sm168 2.543 . S
O188 C170 1.261 . S
O189 Sm168 2.450 . S
O189 C170 1.242 . S
O190 Sm168 2.681 . S
O190 Sm169 2.386 . S
O190 C177 1.271 . S
O191 Sm168 2.464 . S
O191 C177 1.251 . S
O192 Sm168 2.396 . S
O192 C178 1.252 . S
O193 Sm169 2.408 . S
O193 C178 1.272 . S
O194 Sm169 2.543 . S
O194 C179 1.261 . S
O195 Sm169 2.450 . S
O195 C179 1.242 . S
O196 Sm168 2.386 . S
O196 Sm169 2.681 . S
O196 C186 1.271 . S
O197 Sm169 2.464 . S
O197 C186 1.251 . S
O198 Sm169 2.396 . S
O198 C187 1.252 . S
O199 Sm168 2.408 . S
O199 C187 1.272 . S
H200 C172 0.930 . S
H201 C173 0.929 . S
H202 C175 0.930 . S
H203 C176 0.929 1_556 S
H204 C181 0.930 . S
H205 C182 0.929 . S
H206 C184 0.930 . S
H207 C185 0.929 . S
Sm208 C210 2.846 . S
Sm208 O228 2.543 . S
Sm208 O229 2.450 . S
Sm208 O230 2.681 1_655 S
Sm208 O231 2.464 . S
Sm208 O232 2.396 . S
Sm208 O236 2.386 . S
Sm208 O239 2.408 1_655 S
Sm209 C219 2.846 . S
Sm209 O230 2.386 . S
Sm209 O233 2.408 1_455 S
Sm209 O234 2.543 . S
Sm209 O235 2.450 . S
Sm209 O236 2.681 1_455 S
Sm209 O237 2.464 . S
Sm209 O238 2.396 . S
C210 Sm208 2.846 . S
C210 C211 1.506 1_556 S
C210 O228 1.261 . S
C210 O229 1.242 . S
C211 C210 1.506 1_554 S
C211 C212 1.358 . S
C211 C216 1.382 . S
C212 C211 1.358 . S
C212 C213 1.385 . S
C212 H240 0.930 . S
C213 C212 1.385 . S
C213 C214 1.395 . S
C213 H241 0.929 . S
C214 C213 1.395 . S
C214 C215 1.335 . S
C215 C214 1.335 . S
C215 C216 1.398 . S
C215 H242 0.930 . S
C216 C211 1.382 . S
C216 C215 1.398 . S
C216 H243 0.929 1_554 S
C217 O230 1.260 1_655 S
C217 O231 1.270 . S
C218 O232 1.252 . S
C218 O233 1.272 . S
C219 Sm209 2.846 . S
C219 C220 1.506 . S
C219 O234 1.261 . S
C219 O235 1.242 . S
C220 C219 1.506 . S
C220 C221 1.358 . S
C220 C225 1.382 . S
C221 C220 1.358 . S
C221 C222 1.385 . S
C221 H244 0.930 . S
C222 C221 1.385 . S
C222 C223 1.395 . S
C222 H245 0.929 . S
C223 C222 1.395 . S
C223 C224 1.335 . S
C224 C223 1.335 . S
C224 C225 1.398 . S
C224 H246 0.930 . S
C225 C220 1.382 . S
C225 C224 1.398 . S
C225 H247 0.929 . S
C226 O236 1.271 1_455 S
C226 O237 1.251 . S
C227 O238 1.252 . S
C227 O239 1.272 . S
O228 Sm208 2.543 . S
O228 C210 1.261 . S
O229 Sm208 2.450 . S
O229 C210 1.242 . S
O230 Sm208 2.681 1_455 S
O230 Sm209 2.386 . S
O230 C217 1.260 1_455 S
O231 Sm208 2.464 . S
O231 C217 1.270 . S
O232 Sm208 2.396 . S
O232 C218 1.252 . S
O233 Sm209 2.408 1_655 S
O233 C218 1.272 . S
O234 Sm209 2.543 . S
O234 C219 1.261 . S
O235 Sm209 2.450 . S
O235 C219 1.242 . S
O236 Sm208 2.386 . S
O236 Sm209 2.681 1_655 S
O236 C226 1.271 1_655 S
O237 Sm209 2.464 . S
O237 C226 1.251 . S
O238 Sm209 2.396 . S
O238 C227 1.252 . S
O239 Sm208 2.408 1_455 S
O239 C227 1.272 . S
H240 C212 0.930 . S
H241 C213 0.929 . S
H242 C215 0.930 . S
H243 C216 0.929 1_556 S
H244 C221 0.930 . S
H245 C222 0.929 . S
H246 C224 0.930 . S
H247 C225 0.929 . S
H248 C256 0.950 . S
H249 C261 0.950 . S
H250 C258 0.950 . S
H251 C260 0.950 . S
H252 C262 0.950 . S
H253 C264 0.950 . S
H254 C266 0.950 . S
H255 C267 0.950 . S
C256 H248 0.950 . S
C256 C257 1.373 1_545 S
C256 C258 1.391 . S
C257 C256 1.373 1_565 S
C257 C261 1.405 . S
C258 H250 0.950 . S
C258 C256 1.391 . S
C258 C259 1.403 . S
C259 C258 1.403 . S
C259 C260 1.395 1_545 S
C259 C265 1.491 . S
C260 H251 0.950 . S
C260 C259 1.395 1_565 S
C260 C261 1.391 . S
C261 H249 0.950 . S
C261 C257 1.405 . S
C261 C260 1.391 . S
C262 H252 0.950 . S
C262 C263 1.386 1_565 S
C262 C264 1.391 . S
C263 C262 1.386 1_545 S
C263 C267 1.393 . S
C264 H253 0.950 . S
C264 C262 1.391 . S
C264 C265 1.400 1_565 S
C265 C259 1.491 . S
C265 C264 1.400 1_545 S
C265 C266 1.398 . S
C266 H254 0.950 . S
C266 C265 1.398 . S
C266 C267 1.391 . S
C267 H255 0.950 . S
C267 C263 1.393 . S
C267 C266 1.391 . S
H268 C276 0.950 . S
H269 C281 0.950 . S
H270 C278 0.950 . S
H271 C280 0.950 . S
H272 C282 0.950 . S
H273 C284 0.950 . S
H274 C286 0.950 . S
H275 C287 0.950 . S
C276 H268 0.950 . S
C276 C277 1.386 . S
C276 C278 1.391 . S
C277 C276 1.386 . S
C277 C281 1.393 . S
C278 H270 0.950 . S
C278 C276 1.391 . S
C278 C279 1.400 . S
C279 C278 1.400 . S
C279 C280 1.398 . S
C279 C285 1.491 . S
C280 H271 0.950 . S
C280 C279 1.398 . S
C280 C281 1.391 . S
C281 H269 0.950 . S
C281 C277 1.393 . S
C281 C280 1.391 . S
C282 H272 0.950 . S
C282 C283 1.386 . S
C282 C284 1.391 . S
C283 C282 1.386 . S
C283 C287 1.393 . S
C284 H273 0.950 . S
C284 C282 1.391 . S
C284 C285 1.400 . S
C285 C279 1.491 . S
C285 C284 1.400 . S
C285 C286 1.398 . S
C286 H274 0.950 . S
C286 C285 1.398 . S
C286 C287 1.391 . S
C287 H275 0.950 . S
C287 C283 1.393 . S
C287 C286 1.391 . S
H288 C296 0.950 . S
H289 C301 0.950 . S
H290 C298 0.950 . S
H291 C300 0.950 . S
H292 C302 0.950 . S
H293 C304 0.950 . S
H294 C306 0.950 . S
H295 C307 0.950 . S
C296 H288 0.950 . S
C296 C297 1.386 . S
C296 C298 1.391 . S
C297 C296 1.386 . S
C297 C301 1.393 . S
C298 H290 0.950 . S
C298 C296 1.391 . S
C298 C299 1.400 . S
C299 C298 1.400 . S
C299 C300 1.398 . S
C299 C305 1.491 . S
C300 H291 0.950 . S
C300 C299 1.398 . S
C300 C301 1.391 . S
C301 H289 0.950 . S
C301 C297 1.393 . S
C301 C300 1.391 . S
C302 H292 0.950 . S
C302 C303 1.386 . S
C302 C304 1.391 . S
C303 C302 1.386 . S
C303 C307 1.393 . S
C304 H293 0.950 . S
C304 C302 1.391 . S
C304 C305 1.400 . S
C305 C299 1.491 . S
C305 C304 1.400 . S
C305 C306 1.398 . S
C306 H294 0.950 . S
C306 C305 1.398 . S
C306 C307 1.391 . S
C307 H295 0.950 . S
C307 C303 1.393 . S
C307 C306 1.391 . S
H308 C316 0.950 . S
H309 C321 0.950 . S
H310 C318 0.950 . S
H311 C320 0.950 . S
H312 C322 0.950 . S
H313 C324 0.950 . S
H314 C326 0.950 . S
H315 C327 0.950 . S
C316 H308 0.950 . S
C316 C317 1.374 1_655 S
C316 C318 1.391 . S
C317 C316 1.374 1_455 S
C317 C321 1.405 . S
C318 H310 0.950 . S
C318 C316 1.391 . S
C318 C319 1.367 1_655 S
C319 C318 1.367 1_455 S
C319 C320 1.431 . S
C319 C325 1.491 . S
C320 H311 0.950 . S
C320 C319 1.431 . S
C320 C321 1.391 . S
C321 H309 0.950 . S
C321 C317 1.405 . S
C321 C320 1.391 . S
C322 H312 0.950 . S
C322 C323 1.386 . S
C322 C324 1.391 . S
C323 C322 1.386 . S
C323 C327 1.393 1_455 S
C324 H313 0.950 . S
C324 C322 1.391 . S
C324 C325 1.400 . S
C325 C319 1.491 . S
C325 C324 1.400 . S
C325 C326 1.398 1_455 S
C326 H314 0.950 . S
C326 C325 1.398 1_655 S
C326 C327 1.391 . S
C327 H315 0.950 . S
C327 C323 1.393 1_655 S
C327 C326 1.391 . S
H328 C336 0.950 . S
H329 C341 0.950 . S
H330 C338 0.950 . S
H331 C340 0.950 . S
H332 C342 0.950 . S
H333 C344 0.950 . S
H334 C346 0.950 . S
H335 C347 0.950 . S
C336 H328 0.950 . S
C336 C337 1.398 . S
C336 C338 1.391 . S
C337 C336 1.398 . S
C337 C341 1.380 1_565 S
C338 H330 0.950 . S
C338 C336 1.391 . S
C338 C339 1.420 . S
C339 C338 1.420 . S
C339 C340 1.379 1_565 S
C339 C345 1.491 . S
C340 H331 0.950 . S
C340 C339 1.379 1_545 S
C340 C341 1.391 . S
C341 H329 0.950 . S
C341 C337 1.380 1_545 S
C341 C340 1.391 . S
C342 H332 0.950 . S
C342 C343 1.368 1_545 S
C342 C344 1.391 1_556 S
C343 C342 1.368 1_565 S
C343 C347 1.411 . S
C344 H333 0.950 . S
C344 C342 1.391 1_554 S
C344 C345 1.390 1_545 S
C345 C339 1.491 . S
C345 C344 1.390 1_565 S
C345 C346 1.409 . S
C346 H334 0.950 . S
C346 C345 1.409 . S
C346 C347 1.391 1_554 S
C347 H335 0.950 . S
C347 C343 1.411 . S
C347 C346 1.391 1_556 S
H348 C356 0.950 . S
H349 C361 0.950 . S
H350 C358 0.950 . S
H351 C360 0.950 . S
H352 C362 0.950 . S
H353 C364 0.950 . S
H354 C366 0.950 . S
H355 C367 0.950 . S
C356 H348 0.950 . S
C356 C357 1.386 . S
C356 C358 1.391 . S
C357 C356 1.386 . S
C357 C361 1.393 . S
C358 H350 0.950 . S
C358 C356 1.391 . S
C358 C359 1.400 . S
C359 C358 1.400 . S
C359 C360 1.398 . S
C359 C365 1.491 . S
C360 H351 0.950 . S
C360 C359 1.398 . S
C360 C361 1.391 . S
C361 H349 0.950 . S
C361 C357 1.393 . S
C361 C360 1.391 . S
C362 H352 0.950 . S
C362 C363 1.386 . S
C362 C364 1.391 1_556 S
C363 C362 1.386 . S
C363 C367 1.393 . S
C364 H353 0.950 . S
C364 C362 1.391 1_554 S
C364 C365 1.400 . S
C365 C359 1.491 . S
C365 C364 1.400 . S
C365 C366 1.398 . S
C366 H354 0.950 . S
C366 C365 1.398 . S
C366 C367 1.391 1_554 S
C367 H355 0.950 . S
C367 C363 1.393 . S
C367 C366 1.391 1_556 S
H368 C376 0.950 . S
H369 C381 0.950 . S
H370 C378 0.950 . S
H371 C380 0.950 . S
H372 C382 0.950 . S
H373 C384 0.950 . S
H374 C386 0.950 . S
H375 C387 0.950 . S
C376 H368 0.950 . S
C376 C377 1.386 . S
C376 C378 1.391 . S
C377 C376 1.386 . S
C377 C381 1.393 . S
C378 H370 0.950 . S
C378 C376 1.391 . S
C378 C379 1.400 . S
C379 C378 1.400 . S
C379 C380 1.398 . S
C379 C385 1.491 . S
C380 H371 0.950 . S
C380 C379 1.398 . S
C380 C381 1.391 . S
C381 H369 0.950 . S
C381 C377 1.393 . S
C381 C380 1.391 . S
C382 H372 0.950 . S
C382 C383 1.386 . S
C382 C384 1.391 . S
C383 C382 1.386 . S
C383 C387 1.393 1_556 S
C384 H373 0.950 . S
C384 C382 1.391 . S
C384 C385 1.400 1_556 S
C385 C379 1.491 . S
C385 C384 1.400 1_554 S
C385 C386 1.398 . S
C386 H374 0.950 . S
C386 C385 1.398 . S
C386 C387 1.391 . S
C387 H375 0.950 . S
C387 C383 1.393 1_554 S
C387 C386 1.391 . S
H388 C396 0.950 . S
H389 C401 0.950 . S
H390 C398 0.950 . S
H391 C400 0.950 . S
H392 C402 0.950 . S
H393 C404 0.950 . S
H394 C406 0.950 . S
H395 C407 0.950 . S
C396 H388 0.950 . S
C396 C397 1.397 . S
C396 C398 1.391 . S
C397 C396 1.397 . S
C397 C401 1.382 1_655 S
C398 H390 0.950 . S
C398 C396 1.391 . S
C398 C399 1.433 . S
C399 C398 1.433 . S
C399 C400 1.365 1_655 S
C399 C405 1.491 . S
C400 H391 0.950 . S
C400 C399 1.365 1_455 S
C400 C401 1.391 . S
C401 H389 0.950 . S
C401 C397 1.382 1_455 S
C401 C400 1.391 . S
C402 H392 0.950 . S
C402 C403 1.386 1_455 S
C402 C404 1.391 1_556 S
C403 C402 1.386 1_655 S
C403 C407 1.393 . S
C404 H393 0.950 . S
C404 C402 1.391 1_554 S
C404 C405 1.400 1_455 S
C405 C399 1.491 . S
C405 C404 1.400 1_655 S
C405 C406 1.398 . S
C406 H394 0.950 . S
C406 C405 1.398 . S
C406 C407 1.391 1_554 S
C407 H395 0.950 . S
C407 C403 1.393 . S
C407 C406 1.391 1_556 S
H408 C416 0.950 . S
H409 C421 0.950 . S
H410 C418 0.950 . S
H411 C420 0.950 . S
H412 C422 0.950 . S
H413 C424 0.950 . S
H414 C426 0.950 . S
H415 C427 0.950 . S
C416 H408 0.950 . S
C416 C417 1.386 . S
C416 C418 1.391 1_455 S
C417 C416 1.386 . S
C417 C421 1.393 1_455 S
C418 H410 0.950 . S
C418 C416 1.391 1_655 S
C418 C419 1.400 . S
C419 C418 1.400 . S
C419 C420 1.398 . S
C419 C425 1.491 . S
C420 H411 0.950 . S
C420 C419 1.398 . S
C420 C421 1.391 . S
C421 H409 0.950 . S
C421 C417 1.393 1_655 S
C421 C420 1.391 . S
C422 H412 0.950 . S
C422 C423 1.386 . S
C422 C424 1.391 . S
C423 C422 1.386 . S
C423 C427 1.393 . S
C424 H413 0.950 . S
C424 C422 1.391 . S
C424 C425 1.400 . S
C425 C419 1.491 . S
C425 C424 1.400 . S
C425 C426 1.398 . S
C426 H414 0.950 . S
C426 C425 1.398 . S
C426 C427 1.391 . S
C427 H415 0.950 . S
C427 C423 1.393 . S
C427 C426 1.391 . S
H428 C436 0.950 . S
H429 C441 0.950 . S
H430 C438 0.950 . S
H431 C440 0.950 . S
H432 C442 0.950 . S
H433 C444 0.950 1_545 S
H434 C446 0.950 . S
H435 C447 0.950 . S
C436 H428 0.950 . S
C436 C437 1.386 1_565 S
C436 C438 1.391 . S
C437 C436 1.386 1_545 S
C437 C441 1.393 . S
C438 H430 0.950 . S
C438 C436 1.391 . S
C438 C439 1.400 . S
C439 C438 1.400 . S
C439 C440 1.398 1_565 S
C439 C445 1.491 . S
C440 H431 0.950 . S
C440 C439 1.398 1_545 S
C440 C441 1.391 . S
C441 H429 0.950 . S
C441 C437 1.393 . S
C441 C440 1.391 . S
C442 H432 0.950 . S
C442 C443 1.386 . S
C442 C444 1.391 . S
C443 C442 1.386 . S
C443 C447 1.393 . S
C444 H433 0.950 1_565 S
C444 C442 1.391 . S
C444 C445 1.400 . S
C445 C439 1.491 . S
C445 C444 1.400 . S
C445 C446 1.398 . S
C446 H434 0.950 . S
C446 C445 1.398 . S
C446 C447 1.391 . S
C447 H435 0.950 . S
C447 C443 1.393 . S
C447 C446 1.391 . S
H448 C456 0.950 . S
H449 C461 0.950 . S
H450 C458 0.950 . S
H451 C460 0.950 . S
H452 C462 0.950 . S
H453 C464 0.950 . S
H454 C466 0.950 . S
H455 C467 0.950 . S
C456 H448 0.950 . S
C456 C457 1.386 . S
C456 C458 1.391 . S
C457 C456 1.386 . S
C457 C461 1.393 . S
C458 H450 0.950 . S
C458 C456 1.391 . S
C458 C459 1.400 . S
C459 C458 1.400 . S
C459 C460 1.398 . S
C459 C465 1.491 . S
C460 H451 0.950 . S
C460 C459 1.398 . S
C460 C461 1.391 . S
C461 H449 0.950 . S
C461 C457 1.393 . S
C461 C460 1.391 . S
C462 H452 0.950 . S
C462 C463 1.386 . S
C462 C464 1.391 . S
C463 C462 1.386 . S
C463 C467 1.393 . S
C464 H453 0.950 . S
C464 C462 1.391 . S
C464 C465 1.400 . S
C465 C459 1.491 . S
C465 C464 1.400 . S
C465 C466 1.398 . S
C466 H454 0.950 . S
C466 C465 1.398 . S
C466 C467 1.391 . S
C467 H455 0.950 . S
C467 C463 1.393 . S
C467 C466 1.391 . S
H468 C476 0.950 . S
H469 C481 0.950 . S
H470 C478 0.950 . S
H471 C480 0.950 . S
H472 C482 0.950 . S
H473 C484 0.950 . S
H474 C486 0.950 . S
H475 C487 0.950 . S
C476 H468 0.950 . S
C476 C477 1.386 . S
C476 C478 1.391 . S
C477 C476 1.386 . S
C477 C481 1.393 . S
C478 H470 0.950 . S
C478 C476 1.391 . S
C478 C479 1.400 . S
C479 C478 1.400 . S
C479 C480 1.398 . S
C479 C485 1.491 . S
C480 H471 0.950 . S
C480 C479 1.398 . S
C480 C481 1.391 . S
C481 H469 0.950 . S
C481 C477 1.393 . S
C481 C480 1.391 . S
C482 H472 0.950 . S
C482 C483 1.386 . S
C482 C484 1.391 . S
C483 C482 1.386 . S
C483 C487 1.393 . S
C484 H473 0.950 . S
C484 C482 1.391 . S
C484 C485 1.400 . S
C485 C479 1.491 . S
C485 C484 1.400 . S
C485 C486 1.398 . S
C486 H474 0.950 . S
C486 C485 1.398 . S
C486 C487 1.391 . S
C487 H475 0.950 . S
C487 C483 1.393 . S
C487 C486 1.391 . S
H488 C496 0.950 . S
H489 C501 0.950 . S
H490 C498 0.950 . S
H491 C500 0.950 . S
H492 C502 0.950 . S
H493 C504 0.950 . S
H494 C506 0.950 1_655 S
H495 C507 0.940 1_655 S
C496 H488 0.950 . S
C496 C497 1.386 . S
C496 C498 1.391 . S
C497 C496 1.386 . S
C497 C501 1.393 1_655 S
C498 H490 0.950 . S
C498 C496 1.391 . S
C498 C499 1.400 1_655 S
C499 C498 1.400 1_455 S
C499 C500 1.398 . S
C499 C505 1.491 . S
C500 H491 0.950 . S
C500 C499 1.398 . S
C500 C501 1.391 . S
C501 H489 0.950 . S
C501 C497 1.393 1_455 S
C501 C500 1.391 . S
C502 H492 0.950 . S
C502 C503 1.386 . S
C502 C504 1.391 . S
C503 C502 1.386 . S
C503 C507 1.393 . S
C504 H493 0.950 . S
C504 C502 1.391 . S
C504 C505 1.400 . S
C505 C499 1.491 . S
C505 C504 1.400 . S
C505 C506 1.398 . S
C506 H494 0.950 1_455 S
C506 C505 1.398 . S
C506 C507 1.391 . S
C507 H495 0.940 1_455 S
C507 C503 1.393 . S
C507 C506 1.391 . S
H508 C516 0.950 . S
H509 C521 0.950 . S
H510 C518 0.950 . S
H511 C520 0.950 . S
H512 C522 0.950 . S
H513 C524 0.950 . S
H514 C526 0.950 1_565 S
H515 C527 0.950 . S
C516 H508 0.950 . S
C516 C517 1.404 . S
C516 C518 1.391 . S
C517 C516 1.404 . S
C517 C521 1.363 1_565 S
C518 H510 0.950 . S
C518 C516 1.391 . S
C518 C519 1.400 1_565 S
C519 C518 1.400 1_545 S
C519 C520 1.398 . S
C519 C525 1.491 . S
C520 H511 0.950 . S
C520 C519 1.398 . S
C520 C521 1.391 . S
C521 H509 0.950 . S
C521 C517 1.363 1_545 S
C521 C520 1.391 . S
C522 H512 0.950 . S
C522 C523 1.386 . S
C522 C524 1.391 . S
C523 C522 1.386 . S
C523 C527 1.393 . S
C524 H513 0.950 . S
C524 C522 1.391 . S
C524 C525 1.400 . S
C525 C519 1.491 . S
C525 C524 1.400 . S
C525 C526 1.398 . S
C526 H514 0.950 1_545 S
C526 C525 1.398 . S
C526 C527 1.391 . S
C527 H515 0.950 . S
C527 C523 1.393 . S
C527 C526 1.391 . S
H528 C536 0.950 . S
H529 C541 0.950 . S
H530 C538 0.950 . S
H531 C540 0.950 . S
H532 C542 0.950 . S
H533 C544 0.950 . S
H534 C546 0.950 . S
H535 C547 0.950 . S
C536 H528 0.950 . S
C536 C537 1.386 . S
C536 C538 1.391 . S
C537 C536 1.386 . S
C537 C541 1.393 . S
C538 H530 0.950 . S
C538 C536 1.391 . S
C538 C539 1.400 . S
C539 C538 1.400 . S
C539 C540 1.398 . S
C539 C545 1.491 . S
C540 H531 0.950 . S
C540 C539 1.398 . S
C540 C541 1.391 . S
C541 H529 0.950 . S
C541 C537 1.393 . S
C541 C540 1.391 . S
C542 H532 0.950 . S
C542 C543 1.386 . S
C542 C544 1.391 . S
C543 C542 1.386 . S
C543 C547 1.393 . S
C544 H533 0.950 . S
C544 C542 1.391 . S
C544 C545 1.400 . S
C545 C539 1.491 . S
C545 C544 1.400 . S
C545 C546 1.398 . S
C546 H534 0.950 . S
C546 C545 1.398 . S
C546 C547 1.391 . S
C547 H535 0.950 . S
C547 C543 1.393 . S
C547 C546 1.391 . S
H548 C556 0.950 . S
H549 C561 0.950 . S
H550 C558 0.950 . S
H551 C560 0.950 . S
H552 C562 0.950 . S
H553 C564 0.950 . S
H554 C566 0.950 . S
H555 C567 0.950 1_556 S
C556 H548 0.950 . S
C556 C557 1.386 . S
C556 C558 1.391 . S
C557 C556 1.386 . S
C557 C561 1.393 . S
C558 H550 0.950 . S
C558 C556 1.391 . S
C558 C559 1.400 . S
C559 C558 1.400 . S
C559 C560 1.398 . S
C559 C565 1.491 . S
C560 H551 0.950 . S
C560 C559 1.398 . S
C560 C561 1.391 . S
C561 H549 0.950 . S
C561 C557 1.393 . S
C561 C560 1.391 . S
C562 H552 0.950 . S
C562 C563 1.386 . S
C562 C564 1.391 . S
C563 C562 1.386 . S
C563 C567 1.393 . S
C564 H553 0.950 . S
C564 C562 1.391 . S
C564 C565 1.400 . S
C565 C559 1.491 . S
C565 C564 1.400 . S
C565 C566 1.398 . S
C566 H554 0.950 . S
C566 C565 1.398 . S
C566 C567 1.391 . S
C567 H555 0.950 1_554 S
C567 C563 1.393 . S
C567 C566 1.391 . S
H568 C576 0.950 . S
H569 C581 0.950 . S
H570 C578 0.950 . S
H571 C580 0.950 . S
H572 C582 0.950 . S
H573 C584 0.950 . S
H574 C586 0.950 . S
H575 C587 0.950 . S
C576 H568 0.950 . S
C576 C577 1.386 . S
C576 C578 1.391 . S
C577 C576 1.386 . S
C577 C581 1.393 1_455 S
C578 H570 0.950 . S
C578 C576 1.391 . S
C578 C579 1.400 . S
C579 C578 1.400 . S
C579 C580 1.398 1_455 S
C579 C585 1.491 . S
C580 H571 0.950 . S
C580 C579 1.398 1_655 S
C580 C581 1.391 . S
C581 H569 0.950 . S
C581 C577 1.393 1_655 S
C581 C580 1.391 . S
C582 H572 0.950 . S
C582 C583 1.386 1_655 S
C582 C584 1.391 . S
C583 C582 1.386 1_455 S
C583 C587 1.393 . S
C584 H573 0.950 . S
C584 C582 1.391 . S
C584 C585 1.400 1_655 S
C585 C579 1.491 . S
C585 C584 1.400 1_455 S
C585 C586 1.398 . S
C586 H574 0.950 . S
C586 C585 1.398 . S
C586 C587 1.391 . S
C587 H575 0.950 . S
C587 C583 1.393 . S
C587 C586 1.391 . S
H588 C596 0.950 . S
H589 C601 0.950 . S
H590 C598 0.950 . S
H591 C600 0.950 . S
H592 C602 0.950 . S
H593 C604 0.950 . S
H594 C606 0.950 . S
H595 C607 0.950 . S
C596 H588 0.950 . S
C596 C597 1.386 1_565 S
C596 C598 1.391 . S
C597 C596 1.386 1_545 S
C597 C601 1.393 . S
C598 H590 0.950 . S
C598 C596 1.391 . S
C598 C599 1.400 1_565 S
C599 C598 1.400 1_545 S
C599 C600 1.398 . S
C599 C605 1.491 . S
C600 H591 0.950 . S
C600 C599 1.398 . S
C600 C601 1.391 . S
C601 H589 0.950 . S
C601 C597 1.393 . S
C601 C600 1.391 . S
C602 H592 0.950 . S
C602 C603 1.386 . S
C602 C604 1.391 . S
C603 C602 1.386 . S
C603 C607 1.393 1_545 S
C604 H593 0.950 . S
C604 C602 1.391 . S
C604 C605 1.400 . S
C605 C599 1.491 . S
C605 C604 1.400 . S
C605 C606 1.398 1_545 S
C606 H594 0.950 . S
C606 C605 1.398 1_565 S
C606 C607 1.391 . S
C607 H595 0.950 . S
C607 C603 1.393 1_565 S
C607 C606 1.391 . S
H608 C616 0.950 . S
H609 C621 0.950 . S
H610 C618 0.950 . S
H611 C620 0.950 . S
H612 C622 0.950 . S
H613 C624 0.950 . S
H614 C626 0.950 . S
H615 C627 0.950 . S
C616 H608 0.950 . S
C616 C617 1.386 . S
C616 C618 1.391 . S
C617 C616 1.386 . S
C617 C621 1.393 . S
C618 H610 0.950 . S
C618 C616 1.391 . S
C618 C619 1.400 . S
C619 C618 1.400 . S
C619 C620 1.398 . S
C619 C625 1.491 . S
C620 H611 0.950 . S
C620 C619 1.398 . S
C620 C621 1.391 . S
C621 H609 0.950 . S
C621 C617 1.393 . S
C621 C620 1.391 . S
C622 H612 0.950 . S
C622 C623 1.386 . S
C622 C624 1.391 . S
C623 C622 1.386 . S
C623 C627 1.393 . S
C624 H613 0.950 . S
C624 C622 1.391 . S
C624 C625 1.400 . S
C625 C619 1.491 . S
C625 C624 1.400 . S
C625 C626 1.398 . S
C626 H614 0.950 . S
C626 C625 1.398 . S
C626 C627 1.391 . S
C627 H615 0.950 . S
C627 C623 1.393 . S
C627 C626 1.391 . S
H628 C636 0.950 1_554 S
H629 C641 0.950 . S
H630 C638 0.950 . S
H631 C640 0.950 . S
H632 C642 0.950 . S
H633 C644 0.950 . S
H634 C646 0.950 . S
H635 C647 0.950 . S
C636 H628 0.950 1_556 S
C636 C637 1.386 . S
C636 C638 1.391 . S
C637 C636 1.386 . S
C637 C641 1.393 . S
C638 H630 0.950 . S
C638 C636 1.391 . S
C638 C639 1.400 . S
C639 C638 1.400 . S
C639 C640 1.398 . S
C639 C645 1.491 . S
C640 H631 0.950 . S
C640 C639 1.398 . S
C640 C641 1.391 . S
C641 H629 0.950 . S
C641 C637 1.393 . S
C641 C640 1.391 . S
C642 H632 0.950 . S
C642 C643 1.386 . S
C642 C644 1.391 . S
C643 C642 1.386 . S
C643 C647 1.393 . S
C644 H633 0.950 . S
C644 C642 1.391 . S
C644 C645 1.400 . S
C645 C639 1.491 . S
C645 C644 1.400 . S
C645 C646 1.398 . S
C646 H634 0.950 . S
C646 C645 1.398 . S
C646 C647 1.391 . S
C647 H635 0.950 . S
C647 C643 1.393 . S
C647 C646 1.391 . S
H648 C656 0.950 . S
H649 C661 0.950 . S
H650 C658 0.950 . S
H651 C660 0.950 . S
H652 C662 0.950 . S
H653 C664 0.950 . S
H654 C666 0.950 . S
H655 C667 0.950 . S
C656 H648 0.950 . S
C656 C657 1.386 1_455 S
C656 C658 1.391 . S
C657 C656 1.386 1_655 S
C657 C661 1.393 . S
C658 H650 0.950 . S
C658 C656 1.391 . S
C658 C659 1.400 1_455 S
C659 C658 1.400 1_655 S
C659 C660 1.398 . S
C659 C665 1.491 . S
C660 H651 0.950 . S
C660 C659 1.398 . S
C660 C661 1.391 . S
C661 H649 0.950 . S
C661 C657 1.393 . S
C661 C660 1.391 . S
C662 H652 0.950 . S
C662 C663 1.386 . S
C662 C664 1.391 . S
C663 C662 1.386 . S
C663 C667 1.393 1_655 S
C664 H653 0.950 . S
C664 C662 1.391 . S
C664 C665 1.400 . S
C665 C659 1.491 . S
C665 C664 1.400 . S
C665 C666 1.398 1_655 S
C666 H654 0.950 . S
C666 C665 1.398 1_455 S
C666 C667 1.391 . S
C667 H655 0.950 . S
C667 C663 1.393 1_455 S
C667 C666 1.391 . S
H668 C676 0.950 . S
H669 C681 0.950 . S
H670 C678 0.950 . S
H671 C680 0.950 . S
H672 C682 0.950 . S
H673 C684 0.950 . S
H674 C686 0.950 . S
H675 C687 0.950 . S
C676 H668 0.950 . S
C676 C677 1.386 1_545 S
C676 C678 1.391 . S
C677 C676 1.386 1_565 S
C677 C681 1.393 . S
C678 H670 0.950 . S
C678 C676 1.391 . S
C678 C679 1.400 1_545 S
C679 C678 1.400 1_565 S
C679 C680 1.398 . S
C679 C685 1.491 . S
C680 H671 0.950 . S
C680 C679 1.398 . S
C680 C681 1.391 . S
C681 H669 0.950 . S
C681 C677 1.393 . S
C681 C680 1.391 . S
C682 H672 0.950 . S
C682 C683 1.386 . S
C682 C684 1.391 . S
C683 C682 1.386 . S
C683 C687 1.393 1_565 S
C684 H673 0.950 . S
C684 C682 1.391 . S
C684 C685 1.400 . S
C685 C679 1.491 . S
C685 C684 1.400 . S
C685 C686 1.398 1_565 S
C686 H674 0.950 . S
C686 C685 1.398 1_545 S
C686 C687 1.391 . S
C687 H675 0.950 . S
C687 C683 1.393 1_545 S
C687 C686 1.391 . S
H688 C696 0.950 . S
H689 C701 0.950 . S
H690 C698 0.950 . S
H691 C700 0.950 . S
H692 C702 0.950 . S
H693 C704 0.950 . S
H694 C706 0.950 . S
H695 C707 0.950 . S
C696 H688 0.950 . S
C696 C697 1.386 . S
C696 C698 1.391 . S
C697 C696 1.386 . S
C697 C701 1.393 . S
C698 H690 0.950 . S
C698 C696 1.391 . S
C698 C699 1.400 . S
C699 C698 1.400 . S
C699 C700 1.398 . S
C699 C705 1.491 . S
C700 H691 0.950 . S
C700 C699 1.398 . S
C700 C701 1.391 . S
C701 H689 0.950 . S
C701 C697 1.393 . S
C701 C700 1.391 . S
C702 H692 0.950 . S
C702 C703 1.386 . S
C702 C704 1.391 . S
C703 C702 1.386 . S
C703 C707 1.393 . S
C704 H693 0.950 . S
C704 C702 1.391 . S
C704 C705 1.400 . S
C705 C699 1.491 . S
C705 C704 1.400 . S
C705 C706 1.398 . S
C706 H694 0.950 . S
C706 C705 1.398 . S
C706 C707 1.391 . S
C707 H695 0.950 . S
C707 C703 1.393 . S
C707 C706 1.391 . S
H708 C716 0.950 . S
H709 C721 0.950 . S
H710 C718 0.950 . S
H711 C720 0.950 . S
H712 C722 0.950 . S
H713 C724 0.950 . S
H714 C726 0.950 . S
H715 C727 0.950 . S
C716 H708 0.950 . S
C716 C717 1.386 . S
C716 C718 1.391 . S
C717 C716 1.386 . S
C717 C721 1.393 . S
C718 H710 0.950 . S
C718 C716 1.391 . S
C718 C719 1.400 . S
C719 C718 1.400 . S
C719 C720 1.398 . S
C719 C725 1.491 . S
C720 H711 0.950 . S
C720 C719 1.398 . S
C720 C721 1.391 . S
C721 H709 0.950 . S
C721 C717 1.393 . S
C721 C720 1.391 . S
C722 H712 0.950 . S
C722 C723 1.386 . S
C722 C724 1.391 . S
C723 C722 1.386 . S
C723 C727 1.393 . S
C724 H713 0.950 . S
C724 C722 1.391 . S
C724 C725 1.400 . S
C725 C719 1.491 . S
C725 C724 1.400 . S
C725 C726 1.398 . S
C726 H714 0.950 . S
C726 C725 1.398 . S
C726 C727 1.391 . S
C727 H715 0.950 . S
C727 C723 1.393 . S
C727 C726 1.391 . S
C257 C76 1.821 . S
C263 C97 1.941 1_545 S
C283 C137 1.947 . S
C277 C87 1.827 . S
C303 C177 1.951 . S
C297 C54 1.837 . S
C323 C217 1.947 1_455 S
C317 C65 1.805 1_455 S
C343 C106 1.943 1_565 S
C337 C32 1.805 . S
C357 C43 1.834 . S
C363 C146 1.950 . S
C377 C10 1.817 . S
C383 C186 1.953 . S
C397 C21 1.806 . S
C403 C226 1.951 1_655 S
C423 C103 0.528 . S
C417 C60 0.539 . S
C443 C143 0.517 . S
C437 C71 0.505 . S
C463 C183 0.493 . S
C457 C82 0.539 . S
C477 C49 0.482 . S
C483 C223 0.470 . S
C497 C16 0.484 1_655 S
C503 C94 0.493 . S
C523 C134 0.478 . S
C517 C27 0.484 1_565 S
C543 C174 0.516 . S
C537 C38 0.507 . S
C557 C5 0.539 . S
C563 C214 0.534 . S
C577 C59 2.016 . S
C583 C107 2.265 . S
C597 C70 2.025 . S
C603 C147 2.249 . S
C623 C187 2.233 . S
C617 C81 2.007 . S
C643 C227 2.264 . S
C637 C48 2.010 . S
C657 C15 2.014 1_655 S
C663 C98 2.276 . S
C683 C138 2.243 . S
C677 C26 1.996 1_565 S
C703 C178 2.233 . S
C697 C37 2.016 . S
C717 C4 2.008 . S
C723 C218 2.266 . S
