# Generated by pormake.
# Topology bwt, (3,3)-cn, num edge types: 1
# Building blocks:
#     Node 0, Type 0, BuildingBlock: WUSLED_clean_sbu_0, # of connection points: 3
#     Node 1, Type 0, BuildingBlock: WUSLED_clean_sbu_0, # of connection points: 3
#     Node 2, Type 0, BuildingBlock: WUSLED_clean_sbu_0, # of connection points: 3
#     Node 3, Type 0, BuildingBlock: WUSLED_clean_sbu_0, # of connection points: 3
#     Node 4, Type 0, BuildingBlock: WUSLED_clean_sbu_0, # of connection points: 3
#     Node 5, Type 0, BuildingBlock: WUSLED_clean_sbu_0, # of connection points: 3
#     Node 6, Type 0, BuildingBlock: WUSLED_clean_sbu_0, # of connection points: 3
#     Node 7, Type 0, BuildingBlock: WUSLED_clean_sbu_0, # of connection points: 3
#     Node 8, Type 0, BuildingBlock: WUSLED_clean_sbu_0, # of connection points: 3
#     Node 9, Type 0, BuildingBlock: WUSLED_clean_sbu_0, # of connection points: 3
#     Node 10, Type 0, BuildingBlock: WUSLED_clean_sbu_0, # of connection points: 3
#     Node 11, Type 0, BuildingBlock: WUSLED_clean_sbu_0, # of connection points: 3
#     Node 12, Type 0, BuildingBlock: WUSLED_clean_sbu_0, # of connection points: 3
#     Node 13, Type 0, BuildingBlock: WUSLED_clean_sbu_0, # of connection points: 3
#     Node 14, Type 0, BuildingBlock: WUSLED_clean_sbu_0, # of connection points: 3
#     Node 15, Type 0, BuildingBlock: WUSLED_clean_sbu_0, # of connection points: 3
#     Node 16, Type 0, BuildingBlock: WUSLED_clean_sbu_0, # of connection points: 3
#     Node 17, Type 0, BuildingBlock: WUSLED_clean_sbu_0, # of connection points: 3
#     Node 18, Type 0, BuildingBlock: WUSLED_clean_sbu_0, # of connection points: 3
#     Node 19, Type 0, BuildingBlock: WUSLED_clean_sbu_0, # of connection points: 3
#     Node 20, Type 0, BuildingBlock: WUSLED_clean_sbu_0, # of connection points: 3
#     Node 21, Type 0, BuildingBlock: WUSLED_clean_sbu_0, # of connection points: 3
#     Node 22, Type 0, BuildingBlock: WUSLED_clean_sbu_0, # of connection points: 3
#     Node 23, Type 0, BuildingBlock: WUSLED_clean_sbu_0, # of connection points: 3
#     Node 24, Type 1, BuildingBlock: PAMTOO_clean_linker_0, # of connection points: 3
#     Node 25, Type 1, BuildingBlock: PAMTOO_clean_linker_0, # of connection points: 3
#     Node 26, Type 1, BuildingBlock: PAMTOO_clean_linker_0, # of connection points: 3
#     Node 27, Type 1, BuildingBlock: PAMTOO_clean_linker_0, # of connection points: 3
#     Node 28, Type 1, BuildingBlock: PAMTOO_clean_linker_0, # of connection points: 3
#     Node 29, Type 1, BuildingBlock: PAMTOO_clean_linker_0, # of connection points: 3
#     Node 30, Type 1, BuildingBlock: PAMTOO_clean_linker_0, # of connection points: 3
#     Node 31, Type 1, BuildingBlock: PAMTOO_clean_linker_0, # of connection points: 3
#     Node 32, Type 1, BuildingBlock: PAMTOO_clean_linker_0, # of connection points: 3
#     Node 33, Type 1, BuildingBlock: PAMTOO_clean_linker_0, # of connection points: 3
#     Node 34, Type 1, BuildingBlock: PAMTOO_clean_linker_0, # of connection points: 3
#     Node 35, Type 1, BuildingBlock: PAMTOO_clean_linker_0, # of connection points: 3
#     Node 36, Type 1, BuildingBlock: PAMTOO_clean_linker_0, # of connection points: 3
#     Node 37, Type 1, BuildingBlock: PAMTOO_clean_linker_0, # of connection points: 3
#     Node 38, Type 1, BuildingBlock: PAMTOO_clean_linker_0, # of connection points: 3
#     Node 39, Type 1, BuildingBlock: PAMTOO_clean_linker_0, # of connection points: 3
#     Node 40, Type 1, BuildingBlock: PAMTOO_clean_linker_0, # of connection points: 3
#     Node 41, Type 1, BuildingBlock: PAMTOO_clean_linker_0, # of connection points: 3
#     Node 42, Type 1, BuildingBlock: PAMTOO_clean_linker_0, # of connection points: 3
#     Node 43, Type 1, BuildingBlock: PAMTOO_clean_linker_0, # of connection points: 3
#     Node 44, Type 1, BuildingBlock: PAMTOO_clean_linker_0, # of connection points: 3
#     Node 45, Type 1, BuildingBlock: PAMTOO_clean_linker_0, # of connection points: 3
#     Node 46, Type 1, BuildingBlock: PAMTOO_clean_linker_0, # of connection points: 3
#     Node 47, Type 1, BuildingBlock: PAMTOO_clean_linker_0, # of connection points: 3
#     Edge 48, Type (0, 1), BuildingBlock: OJICUG_clean_linker_0, # of connection points: 2
#     Edge 49, Type (0, 1), BuildingBlock: OJICUG_clean_linker_0, # of connection points: 2
#     Edge 50, Type (0, 1), BuildingBlock: OJICUG_clean_linker_0, # of connection points: 2
#     Edge 51, Type (0, 1), BuildingBlock: OJICUG_clean_linker_0, # of connection points: 2
#     Edge 52, Type (0, 1), BuildingBlock: OJICUG_clean_linker_0, # of connection points: 2
#     Edge 53, Type (0, 1), BuildingBlock: OJICUG_clean_linker_0, # of connection points: 2
#     Edge 54, Type (0, 1), BuildingBlock: OJICUG_clean_linker_0, # of connection points: 2
#     Edge 55, Type (0, 1), BuildingBlock: OJICUG_clean_linker_0, # of connection points: 2
#     Edge 56, Type (0, 1), BuildingBlock: OJICUG_clean_linker_0, # of connection points: 2
#     Edge 57, Type (0, 1), BuildingBlock: OJICUG_clean_linker_0, # of connection points: 2
#     Edge 58, Type (0, 1), BuildingBlock: OJICUG_clean_linker_0, # of connection points: 2
#     Edge 59, Type (0, 1), BuildingBlock: OJICUG_clean_linker_0, # of connection points: 2
#     Edge 60, Type (0, 1), BuildingBlock: OJICUG_clean_linker_0, # of connection points: 2
#     Edge 61, Type (0, 1), BuildingBlock: OJICUG_clean_linker_0, # of connection points: 2
#     Edge 62, Type (0, 1), BuildingBlock: OJICUG_clean_linker_0, # of connection points: 2
#     Edge 63, Type (0, 1), BuildingBlock: OJICUG_clean_linker_0, # of connection points: 2
#     Edge 64, Type (0, 1), BuildingBlock: OJICUG_clean_linker_0, # of connection points: 2
#     Edge 65, Type (0, 1), BuildingBlock: OJICUG_clean_linker_0, # of connection points: 2
#     Edge 66, Type (0, 1), BuildingBlock: OJICUG_clean_linker_0, # of connection points: 2
#     Edge 67, Type (0, 1), BuildingBlock: OJICUG_clean_linker_0, # of connection points: 2
#     Edge 68, Type (0, 1), BuildingBlock: OJICUG_clean_linker_0, # of connection points: 2
#     Edge 69, Type (0, 1), BuildingBlock: OJICUG_clean_linker_0, # of connection points: 2
#     Edge 70, Type (0, 1), BuildingBlock: OJICUG_clean_linker_0, # of connection points: 2
#     Edge 71, Type (0, 1), BuildingBlock: OJICUG_clean_linker_0, # of connection points: 2
#     Edge 72, Type (0, 1), BuildingBlock: OJICUG_clean_linker_0, # of connection points: 2
#     Edge 73, Type (0, 1), BuildingBlock: OJICUG_clean_linker_0, # of connection points: 2
#     Edge 74, Type (0, 1), BuildingBlock: OJICUG_clean_linker_0, # of connection points: 2
#     Edge 75, Type (0, 1), BuildingBlock: OJICUG_clean_linker_0, # of connection points: 2
#     Edge 76, Type (0, 1), BuildingBlock: OJICUG_clean_linker_0, # of connection points: 2
#     Edge 77, Type (0, 1), BuildingBlock: OJICUG_clean_linker_0, # of connection points: 2
#     Edge 78, Type (0, 1), BuildingBlock: OJICUG_clean_linker_0, # of connection points: 2
#     Edge 79, Type (0, 1), BuildingBlock: OJICUG_clean_linker_0, # of connection points: 2
#     Edge 80, Type (0, 1), BuildingBlock: OJICUG_clean_linker_0, # of connection points: 2
#     Edge 81, Type (0, 1), BuildingBlock: OJICUG_clean_linker_0, # of connection points: 2
#     Edge 82, Type (0, 1), BuildingBlock: OJICUG_clean_linker_0, # of connection points: 2
#     Edge 83, Type (0, 1), BuildingBlock: OJICUG_clean_linker_0, # of connection points: 2
#     Edge 84, Type (0, 1), BuildingBlock: OJICUG_clean_linker_0, # of connection points: 2
#     Edge 85, Type (0, 1), BuildingBlock: OJICUG_clean_linker_0, # of connection points: 2
#     Edge 86, Type (0, 1), BuildingBlock: OJICUG_clean_linker_0, # of connection points: 2
#     Edge 87, Type (0, 1), BuildingBlock: OJICUG_clean_linker_0, # of connection points: 2
#     Edge 88, Type (0, 1), BuildingBlock: OJICUG_clean_linker_0, # of connection points: 2
#     Edge 89, Type (0, 1), BuildingBlock: OJICUG_clean_linker_0, # of connection points: 2
#     Edge 90, Type (0, 1), BuildingBlock: OJICUG_clean_linker_0, # of connection points: 2
#     Edge 91, Type (0, 1), BuildingBlock: OJICUG_clean_linker_0, # of connection points: 2
#     Edge 92, Type (0, 1), BuildingBlock: OJICUG_clean_linker_0, # of connection points: 2
#     Edge 93, Type (0, 1), BuildingBlock: OJICUG_clean_linker_0, # of connection points: 2
#     Edge 94, Type (0, 1), BuildingBlock: OJICUG_clean_linker_0, # of connection points: 2
#     Edge 95, Type (0, 1), BuildingBlock: OJICUG_clean_linker_0, # of connection points: 2
#     Edge 96, Type (0, 1), BuildingBlock: OJICUG_clean_linker_0, # of connection points: 2
#     Edge 97, Type (0, 1), BuildingBlock: OJICUG_clean_linker_0, # of connection points: 2
#     Edge 98, Type (0, 1), BuildingBlock: OJICUG_clean_linker_0, # of connection points: 2
#     Edge 99, Type (0, 1), BuildingBlock: OJICUG_clean_linker_0, # of connection points: 2
#     Edge 100, Type (0, 1), BuildingBlock: OJICUG_clean_linker_0, # of connection points: 2
#     Edge 101, Type (0, 1), BuildingBlock: OJICUG_clean_linker_0, # of connection points: 2
#     Edge 102, Type (0, 1), BuildingBlock: OJICUG_clean_linker_0, # of connection points: 2
#     Edge 103, Type (0, 1), BuildingBlock: OJICUG_clean_linker_0, # of connection points: 2
#     Edge 104, Type (0, 1), BuildingBlock: OJICUG_clean_linker_0, # of connection points: 2
#     Edge 105, Type (0, 1), BuildingBlock: OJICUG_clean_linker_0, # of connection points: 2
#     Edge 106, Type (0, 1), BuildingBlock: OJICUG_clean_linker_0, # of connection points: 2
#     Edge 107, Type (0, 1), BuildingBlock: OJICUG_clean_linker_0, # of connection points: 2
#     Edge 108, Type (0, 1), BuildingBlock: OJICUG_clean_linker_0, # of connection points: 2
#     Edge 109, Type (0, 1), BuildingBlock: OJICUG_clean_linker_0, # of connection points: 2
#     Edge 110, Type (0, 1), BuildingBlock: OJICUG_clean_linker_0, # of connection points: 2
#     Edge 111, Type (0, 1), BuildingBlock: OJICUG_clean_linker_0, # of connection points: 2
#     Edge 112, Type (0, 1), BuildingBlock: OJICUG_clean_linker_0, # of connection points: 2
#     Edge 113, Type (0, 1), BuildingBlock: OJICUG_clean_linker_0, # of connection points: 2
#     Edge 114, Type (0, 1), BuildingBlock: OJICUG_clean_linker_0, # of connection points: 2
#     Edge 115, Type (0, 1), BuildingBlock: OJICUG_clean_linker_0, # of connection points: 2
#     Edge 116, Type (0, 1), BuildingBlock: OJICUG_clean_linker_0, # of connection points: 2
#     Edge 117, Type (0, 1), BuildingBlock: OJICUG_clean_linker_0, # of connection points: 2
#     Edge 118, Type (0, 1), BuildingBlock: OJICUG_clean_linker_0, # of connection points: 2
#     Edge 119, Type (0, 1), BuildingBlock: OJICUG_clean_linker_0, # of connection points: 2
# Relax obj value: 0.114
# Max RMSD: 0.174
# Mean RMSD: 0.086
data_MOF--net-bwt--node1-WUSLED_clean_sbu_0--node2-PAMTOO_clean_linker_0--edge1-OJICUG_clean_linker_0
_symmetry_space_group_name_H-M    P1
_symmetry_Int_Tables_number       1
_symmetry_cell_setting            triclinic
loop_
_symmetry_equiv_pos_as_xyz
'x, y, z'
_cell_length_a     53.925098
_cell_length_b     53.967895
_cell_length_c     53.921354
_cell_angle_alpha  95.01153
_cell_angle_beta   94.960768
_cell_angle_gamma 94.968611
loop_
_atom_site_label
_atom_site_type_symbol
_atom_site_fract_x
_atom_site_fract_y
_atom_site_fract_z
_atom_type_partial_charge
C0 C 0.39337 0.63313 0.33637 0.0
C1 C 0.41124 0.63224 0.35671 0.0
C2 C 0.44497 0.64006 0.33033 0.0
C3 C 0.43671 0.63572 0.35373 0.0
C4 C 0.42693 0.6403 0.30979 0.0
C5 C 0.40133 0.63686 0.31281 0.0
U6 U 0.34501 0.61761 0.37925 0.0
O7 O 0.31508 0.63866 0.3933 0.0
O8 O 0.30613 0.60064 0.37457 0.0
C9 C 0.29757 0.62055 0.38542 0.0
C10 C 0.36666 0.63144 0.34042 0.0
C11 C 0.27372 0.62792 0.37444 0.0
C12 C 0.24377 0.63196 0.33902 0.0
C13 C 0.26782 0.62743 0.34854 0.0
C14 C 0.23178 0.63834 0.38122 0.0
C15 C 0.22527 0.63694 0.35527 0.0
C16 C 0.25574 0.63392 0.39064 0.0
C17 C 0.36636 0.59393 0.44019 0.0
C18 C 0.33559 0.58695 0.4697 0.0
C19 C 0.37933 0.58291 0.48167 0.0
C20 C 0.38523 0.58878 0.45798 0.0
C21 C 0.35445 0.58215 0.48784 0.0
C22 C 0.3415 0.59281 0.44609 0.0
C23 C 0.37256 0.60162 0.41591 0.0
O24 O 0.35597 0.60871 0.34122 0.0
O25 O 0.36118 0.64728 0.35858 0.0
O26 O 0.37082 0.62539 0.41339 0.0
O27 O 0.36215 0.5869 0.39641 0.0
H28 H 0.40547 0.62946 0.3751 0.0
H29 H 0.44994 0.63567 0.36995 0.0
H30 H 0.43257 0.64325 0.2914 0.0
H31 H 0.38778 0.63764 0.29691 0.0
H32 H 0.23951 0.63106 0.31895 0.0
H33 H 0.28154 0.62293 0.33573 0.0
H34 H 0.21806 0.64166 0.39434 0.0
H35 H 0.25996 0.63429 0.4107 0.0
H36 H 0.31635 0.58708 0.47401 0.0
H37 H 0.39425 0.57922 0.49523 0.0
H38 H 0.40453 0.58969 0.45368 0.0
H39 H 0.32674 0.59701 0.43259 0.0
C40 C 0.10747 0.36029 0.73033 0.0
C41 C 0.09128 0.35636 0.74896 0.0
C42 C 0.05495 0.35439 0.71828 0.0
C43 C 0.06539 0.35331 0.74299 0.0
C44 C 0.07129 0.35871 0.69974 0.0
C45 C 0.09724 0.36155 0.70571 0.0
U46 U 0.16418 0.38846 0.77325 0.0
O47 O 0.20117 0.40505 0.76592 0.0
O48 O 0.19823 0.37233 0.78748 0.0
C49 C 0.21309 0.38845 0.77746 0.0
C50 C 0.1349 0.36354 0.73641 0.0
C51 C 0.23465 0.37886 0.76594 0.0
C52 C 0.26002 0.37411 0.73095 0.0
C53 C 0.23739 0.37938 0.74031 0.0
C54 C 0.2769 0.36661 0.77242 0.0
C55 C 0.28028 0.3684 0.74707 0.0
C56 C 0.25433 0.37179 0.78173 0.0
C57 C 0.15587 0.43074 0.83077 0.0
C58 C 0.19165 0.45588 0.85339 0.0
C59 C 0.15376 0.44781 0.87365 0.0
C60 C 0.14252 0.43393 0.85181 0.0
C61 C 0.1785 0.45883 0.87469 0.0
C62 C 0.1805 0.44185 0.83169 0.0
C63 C 0.14458 0.41492 0.80835 0.0
O64 O 0.14562 0.38612 0.73492 0.0
O65 O 0.14349 0.35333 0.75632 0.0
O66 O 0.14692 0.39093 0.80886 0.0
O67 O 0.14937 0.42326 0.78691 0.0
H68 H 0.09861 0.35548 0.76818 0.0
H69 H 0.05365 0.34959 0.75778 0.0
H70 H 0.06409 0.3601 0.68059 0.0
H71 H 0.10936 0.3648 0.69108 0.0
H72 H 0.26208 0.37586 0.71136 0.0
H73 H 0.2225 0.38484 0.72774 0.0
H74 H 0.29202 0.36198 0.78525 0.0
H75 H 0.25263 0.37132 0.80157 0.0
H76 H 0.21087 0.46374 0.85375 0.0
H77 H 0.14317 0.44984 0.88977 0.0
H78 H 0.12354 0.42538 0.85146 0.0
H79 H 0.19127 0.43932 0.81575 0.0
C80 C 0.75252 0.99645 0.66757 0.0
C81 C 0.76614 0.98454 0.64977 0.0
C82 C 0.80524 1.00179 0.67327 0.0
C83 C 0.79221 0.98708 0.65264 0.0
C84 C 0.79154 0.01351 0.69125 0.0
C85 C 0.76534 0.01083 0.68841 0.0
U86 U 0.69705 0.98648 0.62063 0.0
O87 O 0.66013 0.96546 0.61948 0.0
O88 O 0.6629 0.00572 0.61526 0.0
C89 C 0.64821 0.98565 0.61821 0.0
C90 C 0.72514 0.99536 0.66307 0.0
C91 C 0.62926 0.98931 0.63603 0.0
C92 C 0.61175 0.98202 0.67515 0.0
C93 C 0.62987 0.97798 0.65854 0.0
C94 C 0.59231 0.00889 0.64708 0.0
C95 C 0.5928 0.99765 0.66969 0.0
C96 C 0.61029 0.00467 0.63042 0.0
C97 C 0.7143 0.97321 0.55322 0.0
C98 C 0.68439 0.96355 0.51662 0.0
C99 C 0.72884 0.96423 0.51239 0.0
C100 C 0.7339 0.9706 0.53807 0.0
C101 C 0.70404 0.96034 0.50141 0.0
C102 C 0.6895 0.9699 0.5424 0.0
C103 C 0.7203 0.97879 0.58025 0.0
O104 O 0.71702 0.01324 0.6504 0.0
O105 O 0.71393 0.97314 0.655 0.0
O106 O 0.71339 0.96092 0.59397 0.0
O107 O 0.71583 1.00109 0.58958 0.0
H108 H 0.75661 0.9737 0.63329 0.0
H109 H 0.80215 0.97819 0.63823 0.0
H110 H 0.80108 0.02486 0.7074 0.0
H111 H 0.75512 0.02034 0.70221 0.0
H112 H 0.61257 0.97283 0.69222 0.0
H113 H 0.64436 0.96606 0.66337 0.0
H114 H 0.57836 0.02144 0.64242 0.0
H115 H 0.60953 0.01367 0.6132 0.0
H116 H 0.66509 0.96045 0.50872 0.0
H117 H 0.74437 0.96225 0.50113 0.0
H118 H 0.75316 0.97322 0.54618 0.0
H119 H 0.67416 0.97186 0.55393 0.0
C120 C 0.73493 0.01272 0.2839 0.0
C121 C 0.7219 0.03407 0.28576 0.0
C122 C 0.68391 0.01027 0.26552 0.0
C123 C 0.69668 0.03289 0.27673 0.0
C124 C 0.69749 0.98925 0.26237 0.0
C125 C 0.72267 0.99041 0.27155 0.0
U126 U 0.80509 1.00232 0.28746 0.0
O127 O 0.82691 0.98694 0.31781 0.0
O128 O 0.83713 0.02514 0.30881 0.0
C129 C 0.8438 0.00632 0.32095 0.0
C130 C 0.76028 0.01357 0.29701 0.0
C131 C 0.86995 1.00064 0.3194 0.0
C132 C 0.91454 0.0127 0.32874 0.0
C133 C 0.88967 0.0175 0.33099 0.0
C134 C 0.90024 0.97391 0.30356 0.0
C135 C 0.92015 0.99086 0.31491 0.0
C136 C 0.87547 0.97883 0.3056 0.0
C137 C 0.79847 0.98189 0.21666 0.0
C138 C 0.80005 0.97652 0.17175 0.0
C139 C 0.76034 0.98062 0.18892 0.0
C140 C 0.77248 0.98276 0.21316 0.0
C141 C 0.77411 0.97789 0.16799 0.0
C142 C 0.81208 0.97848 0.19588 0.0
C143 C 0.81221 0.98609 0.24155 0.0
O144 O 0.76869 0.99192 0.30076 0.0
O145 O 0.77741 0.03003 0.29054 0.0
O146 O 0.81661 0.00962 0.25054 0.0
O147 O 0.80532 0.97117 0.25824 0.0
H148 H 0.73095 0.05148 0.29515 0.0
H149 H 0.68695 0.04945 0.27981 0.0
H150 H 0.68856 0.97167 0.25324 0.0
H151 H 0.73229 0.97365 0.26954 0.0
H152 H 0.92934 0.02632 0.33748 0.0
H153 H 0.88583 0.03453 0.34154 0.0
H154 H 0.90373 0.95667 0.29318 0.0
H155 H 0.86065 0.96556 0.29628 0.0
H156 H 0.81107 0.97411 0.156 0.0
H157 H 0.74035 0.98189 0.18653 0.0
H158 H 0.76174 0.98559 0.22908 0.0
H159 H 0.83217 0.97783 0.19831 0.0
C160 C 0.33947 0.38111 0.63687 0.0
C161 C 0.35502 0.398 0.6255 0.0
C162 C 0.33293 0.43269 0.64143 0.0
C163 C 0.35169 0.42343 0.6276 0.0
C164 C 0.31709 0.41554 0.65249 0.0
C165 C 0.32033 0.38996 0.65019 0.0
U166 U 0.38308 0.33327 0.62095 0.0
O167 O 0.398 0.30373 0.64206 0.0
O168 O 0.37844 0.29427 0.60447 0.0
C169 C 0.38986 0.28599 0.62422 0.0
C170 C 0.34461 0.35472 0.63619 0.0
C171 C 0.37923 0.26211 0.63187 0.0
C172 C 0.34399 0.23246 0.63737 0.0
C173 C 0.3535 0.25664 0.63323 0.0
C174 C 0.38592 0.21944 0.63973 0.0
C175 C 0.36005 0.21335 0.64003 0.0
C176 C 0.39535 0.24353 0.63575 0.0
C177 C 0.44229 0.35564 0.59396 0.0
C178 C 0.47362 0.32665 0.58772 0.0
C179 C 0.48287 0.37044 0.58198 0.0
C180 C 0.45881 0.37509 0.58774 0.0
C181 C 0.49072 0.34626 0.58247 0.0
C182 C 0.44961 0.33132 0.59345 0.0
C183 C 0.41819 0.36099 0.60275 0.0
O184 O 0.3444 0.34298 0.61372 0.0
O185 O 0.36399 0.35071 0.65129 0.0
O186 O 0.41695 0.35958 0.62682 0.0
O187 O 0.39839 0.34984 0.58898 0.0
H188 H 0.37015 0.39157 0.61542 0.0
H189 H 0.36447 0.4359 0.61904 0.0
H190 H 0.30216 0.42181 0.66292 0.0
H191 H 0.30816 0.37719 0.65913 0.0
H192 H 0.32401 0.2286 0.63785 0.0
H193 H 0.34075 0.2708 0.63035 0.0
H194 H 0.3989 0.2053 0.64125 0.0
H195 H 0.41527 0.24738 0.63464 0.0
H196 H 0.47918 0.30792 0.5887 0.0
H197 H 0.49556 0.38588 0.57782 0.0
H198 H 0.45338 0.39397 0.58806 0.0
H199 H 0.43705 0.31613 0.59838 0.0
C200 C 0.29325 0.73259 0.02312 0.0
C201 C 0.2911 0.72115 0.04531 0.0
C202 C 0.27539 0.68153 0.0216 0.0
C203 C 0.28227 0.69594 0.04459 0.0
C204 C 0.27654 0.69335 0.99939 0.0
C205 C 0.28543 0.71857 1.00013 0.0
U206 U 0.29667 0.8019 0.00943 0.0
O207 O 0.32894 0.8248 0.99855 0.0
O208 O 0.31339 0.83508 0.0339 0.0
C209 C 0.3287 0.84184 0.0175 0.0
C210 C 0.30566 0.75828 0.02441 0.0
C211 C 0.32806 0.86782 0.0111 0.0
C212 C 0.33832 0.9124 0.02241 0.0
C213 C 0.33906 0.88765 0.02818 0.0
C214 C 0.31563 0.89776 0.98234 0.0
C215 C 0.32674 0.91769 0.99934 0.0
C216 C 0.31613 0.87309 0.98821 0.0
C217 C 0.22943 0.79022 0.97823 0.0
C218 C 0.18481 0.7877 0.96647 0.0
C219 C 0.20456 0.75012 0.97437 0.0
C220 C 0.22774 0.76429 0.97948 0.0
C221 C 0.18273 0.76173 0.96814 0.0
C222 C 0.20793 0.80175 0.97143 0.0
C223 C 0.25292 0.80594 0.98557 0.0
O224 O 0.31254 0.766 1.00335 0.0
O225 O 0.29622 0.77555 0.0385 0.0
O226 O 0.25799 0.81156 0.00977 0.0
O227 O 0.27245 0.79996 0.97414 0.0
H228 H 0.29698 0.73155 0.06327 0.0
H229 H 0.28122 0.68767 0.0621 0.0
H230 H 0.27174 0.68285 0.98132 0.0
H231 H 0.28691 0.72681 0.98265 0.0
H232 H 0.34711 0.92737 0.03583 0.0
H233 H 0.34822 0.88398 0.04599 0.0
H234 H 0.30624 0.90128 0.96458 0.0
H235 H 0.30716 0.85815 0.97485 0.0
H236 H 0.16842 0.79739 0.96225 0.0
H237 H 0.20371 0.73014 0.97557 0.0
H238 H 0.24421 0.75512 0.98484 0.0
H239 H 0.20892 0.82181 0.97062 0.0
C240 C 0.72071 0.11525 0.3581 0.0
C241 C 0.73902 0.09937 0.3519 0.0
C242 C 0.70857 0.06286 0.34961 0.0
C243 C 0.733 0.07355 0.34758 0.0
C244 C 0.69035 0.07884 0.35609 0.0
C245 C 0.69635 0.10474 0.3602 0.0
U246 U 0.76337 0.17057 0.38983 0.0
O247 O 0.77852 0.20544 0.37586 0.0
O248 O 0.75596 0.20691 0.40797 0.0
C249 C 0.76827 0.21961 0.39242 0.0
C250 C 0.72687 0.14261 0.36289 0.0
C251 C 0.75772 0.24211 0.38396 0.0
C252 C 0.72395 0.26913 0.3806 0.0
C253 C 0.73226 0.24571 0.38441 0.0
C254 C 0.76617 0.28513 0.37466 0.0
C255 C 0.74101 0.2893 0.37652 0.0
C256 C 0.7744 0.26178 0.37832 0.0
C257 C 0.82002 0.15967 0.43206 0.0
C258 C 0.84314 0.19444 0.45827 0.0
C259 C 0.86261 0.15626 0.44922 0.0
C260 C 0.84069 0.14577 0.43497 0.0
C261 C 0.86412 0.18079 0.46086 0.0
C262 C 0.82135 0.18404 0.4439 0.0
C263 C 0.79769 0.14931 0.4156 0.0
O264 O 0.72489 0.15217 0.38584 0.0
O265 O 0.74707 0.15182 0.35355 0.0
O266 O 0.79865 0.1528 0.39188 0.0
O267 O 0.77618 0.15396 0.42389 0.0
H268 H 0.75805 0.10687 0.35028 0.0
H269 H 0.7475 0.06206 0.3422 0.0
H270 H 0.67145 0.07138 0.35825 0.0
H271 H 0.68197 0.11659 0.36516 0.0
H272 H 0.70448 0.27185 0.38232 0.0
H273 H 0.71902 0.23083 0.38879 0.0
H274 H 0.77969 0.30023 0.37131 0.0
H275 H 0.79413 0.25945 0.37795 0.0
H276 H 0.84387 0.21352 0.46662 0.0
H277 H 0.87846 0.14529 0.45095 0.0
H278 H 0.84002 0.12699 0.42586 0.0
H279 H 0.80571 0.19522 0.4416 0.0
C280 C 0.67433 0.75853 0.9981 0.0
C281 C 0.65518 0.77138 0.98743 0.0
C282 C 0.67834 0.81122 1.00266 0.0
C283 C 0.65719 0.79741 0.98961 0.0
C284 C 0.69756 0.79831 0.01338 0.0
C285 C 0.69557 0.7721 0.01106 0.0
U286 U 0.62963 0.70185 0.98546 0.0
O287 O 0.63043 0.66579 0.96315 0.0
O288 O 0.62421 0.66677 1.00295 0.0
C289 C 0.62816 0.65295 0.98259 0.0
C290 C 0.67111 0.73109 0.9965 0.0
C291 C 0.64619 0.6343 0.98601 0.0
C292 C 0.68536 0.62211 0.00468 0.0
C293 C 0.66894 0.64039 1.00083 0.0
C294 C 0.65678 0.59164 0.97834 0.0
C295 C 0.6794 0.59743 0.99364 0.0
C296 C 0.64033 0.60992 0.97462 0.0
C297 C 0.56201 0.71777 0.97031 0.0
C298 C 0.52598 0.68735 0.95971 0.0
C299 C 0.52119 0.73162 0.95978 0.0
C300 C 0.54668 0.73707 0.96695 0.0
C301 C 0.51058 0.7067 0.95583 0.0
C302 C 0.55158 0.69285 0.96686 0.0
C303 C 0.58882 0.72421 0.97699 0.0
O304 O 0.65804 0.72193 0.01365 0.0
O305 O 0.66421 0.72017 0.9739 0.0
O306 O 0.60341 0.71827 0.95953 0.0
O307 O 0.59744 0.71918 0.99936 0.0
H308 H 0.63845 0.76124 0.97765 0.0
H309 H 0.64185 0.80673 0.98157 0.0
H310 H 0.71413 0.80845 0.02346 0.0
H311 H 0.71044 0.76247 0.01957 0.0
H312 H 0.70243 0.62719 0.01684 0.0
H313 H 0.67383 0.65917 0.00973 0.0
H314 H 0.65175 0.57297 0.96924 0.0
H315 H 0.62289 0.60494 0.96298 0.0
H316 H 0.51837 0.66797 0.95659 0.0
H317 H 0.50976 0.74693 0.95728 0.0
H318 H 0.55449 0.75641 0.96967 0.0
H319 H 0.56326 0.67774 0.9694 0.0
C320 C 0.64025 0.3518 0.40385 0.0
C321 C 0.63007 0.36764 0.42144 0.0
C322 C 0.64803 0.34586 0.45548 0.0
C323 C 0.63385 0.36468 0.44691 0.0
C324 C 0.65788 0.32974 0.43757 0.0
C325 C 0.65407 0.33276 0.412 0.0
U326 U 0.61516 0.39018 0.3543 0.0
O327 O 0.63303 0.40683 0.32364 0.0
O328 O 0.59862 0.38132 0.31547 0.0
C329 C 0.61624 0.3953 0.30641 0.0
C330 C 0.63738 0.3561 0.37724 0.0
C331 C 0.62528 0.38578 0.28273 0.0
C332 C 0.63318 0.35197 0.25242 0.0
C333 C 0.62752 0.36032 0.27649 0.0
C334 C 0.63519 0.3945 0.2411 0.0
C335 C 0.63656 0.36893 0.23422 0.0
C336 C 0.62968 0.40277 0.26505 0.0
C337 C 0.58013 0.44507 0.37237 0.0
C338 C 0.55951 0.46618 0.33952 0.0
C339 C 0.57795 0.48994 0.37787 0.0
C340 C 0.58494 0.46793 0.38719 0.0
C341 C 0.566 0.48941 0.35353 0.0
C342 C 0.56668 0.44424 0.34876 0.0
C343 C 0.59234 0.42322 0.38002 0.0
O344 O 0.61443 0.35212 0.3663 0.0
O345 O 0.64911 0.3771 0.37205 0.0
O346 O 0.61664 0.42516 0.3788 0.0
O347 O 0.58136 0.40121 0.37084 0.0
H348 H 0.61956 0.38266 0.41549 0.0
H349 H 0.62615 0.37771 0.45985 0.0
H350 H 0.66843 0.31467 0.44318 0.0
H351 H 0.66213 0.32038 0.39865 0.0
H352 H 0.63441 0.33219 0.24792 0.0
H353 H 0.62424 0.34689 0.28992 0.0
H354 H 0.63716 0.40812 0.22763 0.0
H355 H 0.62787 0.42248 0.26947 0.0
H356 H 0.55003 0.46511 0.32086 0.0
H357 H 0.58351 0.50752 0.38905 0.0
H358 H 0.59548 0.46898 0.40536 0.0
H359 H 0.56286 0.42685 0.33686 0.0
C360 C 0.02055 0.2896 0.73423 0.0
C361 C 0.04219 0.28903 0.72161 0.0
C362 C 0.01732 0.27272 0.68279 0.0
C363 C 0.04063 0.28066 0.6962 0.0
C364 C 0.99577 0.27213 0.69581 0.0
C365 C 0.99736 0.28053 0.72125 0.0
U366 U 0.00781 0.29308 0.80387 0.0
O367 O 0.99769 0.32551 0.82711 0.0
O368 O 0.03286 0.30943 0.83679 0.0
C369 C 0.01671 0.32483 0.84398 0.0
C370 C 0.02244 0.30184 0.76003 0.0
C371 C 0.01034 0.32355 0.8699 0.0
C372 C 0.02139 0.33295 0.91464 0.0
C373 C 0.02693 0.33493 0.88993 0.0
C374 C 0.98246 0.30839 0.89948 0.0
C375 C 0.99909 0.31958 0.91973 0.0
C376 C 0.9881 0.31018 0.87488 0.0
C377 C 0.97568 0.22622 0.7927 0.0
C378 C 0.96282 0.18188 0.79064 0.0
C379 C 0.97347 0.20053 0.75318 0.0
C380 C 0.97831 0.2239 0.76698 0.0
C381 C 0.96615 0.17912 0.76498 0.0
C382 C 0.96752 0.20522 0.80432 0.0
C383 C 0.98336 0.24973 0.80824 0.0
O384 O 1.00168 0.30914 0.76811 0.0
O385 O 0.03647 0.29199 0.77703 0.0
O386 O 0.00762 0.25447 0.81364 0.0
O387 O 0.97222 0.26938 0.8022 0.0
H388 H 0.06028 0.2959 0.73122 0.0
H389 H 0.05768 0.28092 0.68694 0.0
H390 H 0.97748 0.2664 0.6861 0.0
H391 H 0.9803 0.28076 0.73047 0.0
H392 H 0.03479 0.34154 0.92971 0.0
H393 H 0.04431 0.34511 0.88647 0.0
H394 H 0.96489 0.29835 0.90257 0.0
H395 H 0.97507 0.30105 0.85973 0.0
H396 H 0.95767 0.16583 0.80047 0.0
H397 H 0.97592 0.19914 0.7334 0.0
H398 H 0.98473 0.24 0.75777 0.0
H399 H 0.96563 0.2067 0.82423 0.0
C400 C 0.36042 0.71673 0.10938 0.0
C401 C 0.3568 0.7359 0.0938 0.0
C402 C 0.35422 0.70614 0.05665 0.0
C403 C 0.35361 0.73066 0.06782 0.0
C404 C 0.35814 0.68703 0.0724 0.0
C405 C 0.36113 0.69229 0.09846 0.0
U406 U 0.38882 0.75932 0.166 0.0
O407 O 0.37366 0.77212 0.20117 0.0
O408 O 0.40756 0.75218 0.20212 0.0
C409 C 0.39105 0.76271 0.21509 0.0
C410 C 0.36424 0.72217 0.13688 0.0
C411 C 0.38334 0.75046 0.237 0.0
C412 C 0.38143 0.71467 0.26145 0.0
C413 C 0.38439 0.72475 0.23868 0.0
C414 C 0.37494 0.75555 0.28069 0.0
C415 C 0.3775 0.73012 0.28296 0.0
C416 C 0.37786 0.76557 0.25795 0.0
C417 C 0.42869 0.81812 0.15627 0.0
C418 C 0.45397 0.84182 0.19132 0.0
C419 C 0.44644 0.86034 0.15233 0.0
C420 C 0.43225 0.83836 0.14195 0.0
C421 C 0.45738 0.86232 0.17716 0.0
C422 C 0.43965 0.81997 0.18101 0.0
C423 C 0.41302 0.7954 0.14565 0.0
O424 O 0.38725 0.72131 0.14686 0.0
O425 O 0.35356 0.74145 0.14626 0.0
O426 O 0.38922 0.79517 0.1493 0.0
O427 O 0.42236 0.7743 0.14986 0.0
H428 H 0.35637 0.755 0.1017 0.0
H429 H 0.3502 0.74588 0.05657 0.0
H430 H 0.35922 0.66801 0.06468 0.0
H431 H 0.36418 0.67725 0.1101 0.0
H432 H 0.38308 0.69491 0.26243 0.0
H433 H 0.38851 0.71267 0.22275 0.0
H434 H 0.37217 0.76806 0.29683 0.0
H435 H 0.37712 0.78549 0.2571 0.0
H436 H 0.46177 0.84292 0.21063 0.0
H437 H 0.44883 0.87581 0.14096 0.0
H438 H 0.42386 0.83725 0.12284 0.0
H439 H 0.43688 0.80461 0.19246 0.0
C440 C 0.01162 0.67096 0.74866 0.0
C441 C 0.02389 0.65329 0.76153 0.0
C442 C 0.01841 0.6759 0.80141 0.0
C443 C 0.02738 0.65582 0.7876 0.0
C444 C 0.00663 0.6939 0.7885 0.0
C445 C 1.00331 0.69146 0.76232 0.0
U446 U 0.99036 0.62451 0.694 0.0
O447 O 0.9626 0.62505 0.66159 0.0
O448 O 1.00139 0.61838 0.65587 0.0
C449 C 0.97933 0.62242 0.64544 0.0
C450 C 1.00496 0.66646 0.72144 0.0
C451 C 0.97978 0.64036 0.62646 0.0
C452 C 0.99554 0.67985 0.6127 0.0
C453 C 0.99364 0.66372 0.6315 0.0
C454 C 0.96892 0.64983 0.58388 0.0
C455 C 0.98347 0.67298 0.58853 0.0
C456 C 0.96715 0.63365 0.60269 0.0
C457 C 0.97973 0.5571 0.71055 0.0
C458 C 0.96576 0.52208 0.67975 0.0
C459 C 0.97091 0.51573 0.7238 0.0
C460 C 0.9786 0.5411 0.72957 0.0
C461 C 0.96421 0.50595 0.69884 0.0
C462 C 0.97345 0.5475 0.68558 0.0
C463 C 0.98689 0.58379 0.71723 0.0
O464 O 0.02028 0.65367 0.70887 0.0
O465 O 0.98128 0.65891 0.71494 0.0
O466 O 0.96866 0.59829 0.71467 0.0
O467 O 0.00766 0.59276 0.70882 0.0
H468 H 0.03004 0.63701 0.75149 0.0
H469 H 0.03616 0.64143 0.79698 0.0
H470 H 0.99964 0.70964 0.79865 0.0
H471 H 0.99357 0.70515 0.75276 0.0
H472 H 0.00725 0.69731 0.61691 0.0
H473 H 1.00352 0.66921 0.64978 0.0
H474 H 0.95913 0.64408 0.56562 0.0
H475 H 0.95627 0.61569 0.59854 0.0
H476 H 0.96097 0.51507 0.66034 0.0
H477 H 0.96954 0.50394 0.73897 0.0
H478 H 0.98332 0.5483 0.74896 0.0
H479 H 0.97429 0.55969 0.67068 0.0
C480 C 0.60886 0.38287 0.68096 0.0
C481 C 0.58953 0.38728 0.6632 0.0
C482 C 0.5585 0.37653 0.69175 0.0
C483 C 0.56457 0.38418 0.66855 0.0
C484 C 0.57803 0.37254 0.70962 0.0
C485 C 0.60299 0.37577 0.70428 0.0
U486 U 0.65522 0.3925 0.63332 0.0
O487 O 0.69443 0.40847 0.63606 0.0
O488 O 0.68438 0.36928 0.6212 0.0
C489 C 0.70232 0.38744 0.62697 0.0
C490 C 0.6348 0.38344 0.67438 0.0
C491 C 0.72639 0.38057 0.63795 0.0
C492 C 0.7579 0.37933 0.67281 0.0
C493 C 0.73367 0.38386 0.66373 0.0
C494 C 0.7673 0.36757 0.6305 0.0
C495 C 0.7752 0.37156 0.65622 0.0
C496 C 0.7432 0.37195 0.62155 0.0
C497 C 0.6361 0.41027 0.57001 0.0
C498 C 0.66983 0.41788 0.54385 0.0
C499 C 0.62696 0.41115 0.52522 0.0
C500 C 0.61874 0.40855 0.5489 0.0
C501 C 0.65268 0.41539 0.52241 0.0
C502 C 0.66165 0.41516 0.56733 0.0
C503 C 0.62822 0.40523 0.5946 0.0
O504 O 0.63858 0.36592 0.65701 0.0
O505 O 0.64557 0.40552 0.6709 0.0
O506 O 0.63815 0.42143 0.6132 0.0
O507 O 0.62911 0.38192 0.59962 0.0
H508 H 0.59375 0.39262 0.64501 0.0
H509 H 0.55 0.38719 0.65431 0.0
H510 H 0.57402 0.36692 0.72777 0.0
H511 H 0.61766 0.3721 0.71813 0.0
H512 H 0.76319 0.3823 0.69275 0.0
H513 H 0.72089 0.39044 0.67671 0.0
H514 H 0.78007 0.36211 0.61703 0.0
H515 H 0.73793 0.36941 0.60156 0.0
H516 H 0.6897 0.42156 0.54246 0.0
H517 H 0.61331 0.40877 0.50904 0.0
H518 H 0.59897 0.40446 0.55062 0.0
H519 H 0.67537 0.41638 0.58341 0.0
C520 C 0.88966 0.6417 0.30312 0.0
C521 C 0.90175 0.62868 0.32136 0.0
C522 C 0.94183 0.65144 0.31638 0.0
C523 C 0.92754 0.63342 0.32786 0.0
C524 C 0.92954 0.66488 0.2986 0.0
C525 C 0.90383 0.6601 0.29205 0.0
U526 U 0.83727 0.61258 0.25498 0.0
O527 O 0.80252 0.58915 0.25842 0.0
O528 O 0.80091 0.62505 0.2423 0.0
C529 C 0.7882 0.60546 0.24949 0.0
C530 C 0.86257 0.63555 0.29541 0.0
C531 C 0.76529 0.60952 0.26198 0.0
C532 C 0.72784 0.59118 0.27801 0.0
C533 C 0.75131 0.58882 0.26955 0.0
C534 C 0.73176 0.63521 0.27194 0.0
C535 C 0.7176 0.61432 0.27906 0.0
C536 C 0.75537 0.63284 0.26344 0.0
C537 C 0.85167 0.5809 0.19394 0.0
C538 C 0.81812 0.55556 0.16808 0.0
C539 C 0.8565 0.56834 0.15039 0.0
C540 C 0.8661 0.58085 0.17353 0.0
C541 C 0.83237 0.5556 0.14744 0.0
C542 C 0.82763 0.56817 0.19105 0.0
C543 C 0.86108 0.59495 0.21795 0.0
O544 O 0.85296 0.64742 0.2771 0.0
O545 O 0.8546 0.61165 0.29336 0.0
O546 O 0.85748 0.58297 0.23773 0.0
O547 O 0.85532 0.61815 0.2205 0.0
H548 H 0.89132 0.61449 0.33033 0.0
H549 H 0.93634 0.62253 0.34147 0.0
H550 H 0.93977 0.67917 0.28968 0.0
H551 H 0.89518 0.67072 0.2781 0.0
H552 H 0.71731 0.57456 0.28285 0.0
H553 H 0.75815 0.5705 0.26808 0.0
H554 H 0.72451 0.65333 0.27272 0.0
H555 H 0.7655 0.64911 0.25742 0.0
H556 H 0.7993 0.54636 0.16628 0.0
H557 H 0.86789 0.56864 0.13481 0.0
H558 H 0.88465 0.5907 0.17543 0.0
H559 H 0.81606 0.56828 0.20651 0.0
C560 C 0.25751 0.0089 0.32064 0.0
C561 C 0.24269 0.01259 0.34054 0.0
C562 C 0.20501 0.00636 0.31166 0.0
C563 C 0.21673 0.01135 0.33611 0.0
C564 C 0.2199 1.00228 0.29174 0.0
C565 C 0.24601 1.00362 0.29621 0.0
U566 U 0.31159 0.02068 0.36901 0.0
O567 O 0.34698 1.00389 0.37549 0.0
O568 O 0.34747 0.044 0.37111 0.0
C569 C 0.36068 0.0248 0.37319 0.0
C570 C 0.28486 0.01117 0.3258 0.0
C571 C 0.38048 0.02273 0.3562 0.0
C572 C 0.39507 0.00632 0.31725 0.0
C573 C 0.37572 0.00917 0.33263 0.0
C574 C 0.42401 0.03123 0.34851 0.0
C575 C 0.41954 0.01714 0.32507 0.0
C576 C 0.40465 0.03396 0.36392 0.0
C577 C 0.29177 0.03162 0.43572 0.0
C578 C 0.32026 0.03818 0.47357 0.0
C579 C 0.27592 0.04148 0.47576 0.0
C580 C 0.27176 0.03591 0.44991 0.0
C581 C 0.30022 0.04284 0.48788 0.0
C582 C 0.31606 0.03266 0.44762 0.0
C583 C 0.28675 0.02628 0.40857 0.0
O584 O 0.29468 0.03372 0.3345 0.0
O585 O 0.29367 0.99357 0.33845 0.0
O586 O 0.29266 0.00452 0.39918 0.0
O587 O 0.29311 0.04472 0.39531 0.0
H588 H 0.25127 0.01659 0.35956 0.0
H589 H 0.20582 0.01415 0.3519 0.0
H590 H 0.21141 0.99856 0.27268 0.0
H591 H 0.2572 1.00077 0.28064 0.0
H592 H 0.39096 0.99502 0.29953 0.0
H593 H 0.35714 1.00041 0.32631 0.0
H594 H 0.44249 0.04011 0.355 0.0
H595 H 0.40861 0.04462 0.38203 0.0
H596 H 0.33921 0.03936 0.48237 0.0
H597 H 0.26008 0.04465 0.4863 0.0
H598 H 0.25288 0.03505 0.44095 0.0
H599 H 0.33172 0.02942 0.43684 0.0
C600 C 0.28381 0.03439 0.71815 0.0
C601 C 0.29908 0.0535 0.70943 0.0
C602 C 0.33585 0.04013 0.732 0.0
C603 C 0.32476 0.05647 0.71639 0.0
C604 C 0.3204 0.0217 0.74171 0.0
C605 C 0.29458 0.01886 0.73486 0.0
U606 U 0.21232 0.02946 0.72266 0.0
O607 O 0.18267 1.00346 0.70121 0.0
O608 O 0.18461 0.04356 0.69657 0.0
C609 C 0.17139 0.02174 0.69199 0.0
C610 C 0.25737 0.02996 0.70777 0.0
C611 C 0.14467 0.02185 0.69571 0.0
C612 C 0.10136 0.00585 0.68376 0.0
C613 C 0.12684 0.00534 0.68069 0.0
C614 C 0.11136 0.03929 0.71704 0.0
C615 C 0.09326 0.02304 0.70182 0.0
C616 C 0.13675 0.03855 0.71417 0.0
C617 C 0.22404 0.04232 0.79414 0.0
C618 C 0.22775 0.04903 0.83938 0.0
C619 C 0.2647 0.04357 0.81763 0.0
C620 C 0.24996 0.04108 0.7947 0.0
C621 C 0.2537 0.04733 0.84026 0.0
C622 C 0.2131 0.04656 0.81653 0.0
C623 C 0.20781 0.03785 0.77065 0.0
O624 O 0.2445 0.00945 0.71283 0.0
O625 O 0.24457 0.04962 0.70859 0.0
O626 O 0.20894 0.0557 0.75557 0.0
O627 O 0.20732 0.01535 0.75902 0.0
H628 H 0.29129 0.06559 0.69637 0.0
H629 H 0.3361 0.07061 0.70825 0.0
H630 H 0.32838 0.00895 0.7539 0.0
H631 H 0.28326 1.00401 0.742 0.0
H632 H 0.08804 0.99279 0.67196 0.0
H633 H 0.13262 0.99215 0.6665 0.0
H634 H 0.10596 0.05312 0.73082 0.0
H635 H 0.15018 0.05136 0.72616 0.0
H636 H 0.21858 0.05147 0.8564 0.0
H637 H 0.28465 0.04241 0.81765 0.0
H638 H 0.25866 0.03777 0.77749 0.0
H639 H 0.19308 0.04738 0.81637 0.0
C640 C 0.67626 0.61768 0.37455 0.0
C641 C 0.65907 0.59857 0.38054 0.0
C642 C 0.6894 0.56819 0.37459 0.0
C643 C 0.66558 0.57405 0.38057 0.0
C644 C 0.70676 0.58755 0.3692 0.0
C645 C 0.70023 0.61211 0.36921 0.0
U646 U 0.62654 0.66185 0.38044 0.0
O647 O 0.62727 0.70126 0.39485 0.0
O648 O 0.61294 0.68933 0.35582 0.0
C649 C 0.6179 0.70799 0.37341 0.0
C650 C 0.66862 0.64298 0.3725 0.0
C651 C 0.62841 0.73198 0.36598 0.0
C652 C 0.66335 0.7624 0.36163 0.0
C653 C 0.65421 0.73816 0.36595 0.0
C654 C 0.62095 0.77404 0.35664 0.0
C655 C 0.64682 0.78084 0.35744 0.0
C656 C 0.61191 0.7499 0.36079 0.0
C657 C 0.56511 0.64048 0.40212 0.0
C658 C 0.53307 0.66926 0.40012 0.0
C659 C 0.5273 0.63263 0.42273 0.0
C660 C 0.55053 0.62558 0.4164 0.0
C661 C 0.5183 0.65463 0.4147 0.0
C662 C 0.55633 0.66245 0.39423 0.0
C663 C 0.59001 0.63411 0.39633 0.0
O664 O 0.65075 0.64446 0.35464 0.0
O665 O 0.66503 0.65545 0.39375 0.0
O666 O 0.60847 0.6461 0.41138 0.0
O667 O 0.59397 0.6339 0.37259 0.0
H668 H 0.6404 0.60254 0.38458 0.0
H669 H 0.65173 0.55957 0.38461 0.0
H670 H 0.72535 0.58368 0.36481 0.0
H671 H 0.7137 0.62662 0.36449 0.0
H672 H 0.68337 0.76682 0.36206 0.0
H673 H 0.66724 0.72451 0.36991 0.0
H674 H 0.60759 0.78766 0.354 0.0
H675 H 0.59192 0.74548 0.36089 0.0
H676 H 0.52659 0.68589 0.39288 0.0
H677 H 0.51658 0.621 0.43413 0.0
H678 H 0.55722 0.60869 0.42288 0.0
H679 H 0.56748 0.67437 0.38343 0.0
C680 C 0.72063 0.2828 0.98631 0.0
C681 C 0.72759 0.29294 0.01108 0.0
C682 C 0.73288 0.33485 0.99751 0.0
C683 C 0.73345 0.31866 0.01663 0.0
C684 C 0.72749 0.32437 0.97257 0.0
C685 C 0.72122 0.29864 0.96707 0.0
U686 U 0.72142 0.21243 0.9924 0.0
O687 O 0.70859 0.18007 0.9651 0.0
O688 O 0.68981 0.18626 0.9993 0.0
C689 C 0.69277 0.1707 0.97985 0.0
C690 C 0.71016 0.25649 0.98059 0.0
C691 C 0.69606 0.14497 0.98558 0.0
C692 C 0.68638 0.10012 0.97629 0.0
C693 C 0.68311 0.12456 0.97064 0.0
C694 C 0.71558 0.11641 0.01184 0.0
C695 C 0.70262 0.09575 0.99703 0.0
C696 C 0.71247 0.14071 0.00606 0.0
C697 C 0.78655 0.2262 0.02843 0.0
C698 C 0.83048 0.22995 0.04357 0.0
C699 C 0.81083 0.2666 0.03217 0.0
C700 C 0.78804 0.25194 0.02608 0.0
C701 C 0.83249 0.25565 0.04044 0.0
C702 C 0.80772 0.21542 0.03766 0.0
C703 C 0.76412 0.20971 0.01886 0.0
O704 O 0.72257 0.24189 0.96636 0.0
O705 O 0.70155 0.24564 0.99942 0.0
O706 O 0.74335 0.21371 0.02904 0.0
O707 O 0.76094 0.20548 0.99439 0.0
H708 H 0.72735 0.28119 0.02637 0.0
H709 H 0.73714 0.32589 0.03608 0.0
H710 H 0.72744 0.33609 0.95727 0.0
H711 H 0.71593 0.29125 0.94782 0.0
H712 H 0.67634 0.08469 0.9643 0.0
H713 H 0.67052 0.12752 0.95463 0.0
H714 H 0.72786 0.1139 0.02822 0.0
H715 H 0.72276 0.15624 0.01777 0.0
H716 H 0.84675 0.22072 0.04941 0.0
H717 H 0.81161 0.28637 0.02984 0.0
H718 H 0.77183 0.2605 0.0188 0.0
H719 H 0.80691 0.1955 0.03931 0.0
C720 C 0.30037 0.87584 0.63971 0.0
C721 C 0.29285 0.89127 0.62131 0.0
C722 C 0.31707 0.92725 0.6449 0.0
C723 C 0.30127 0.91672 0.62381 0.0
C724 C 0.32461 0.91169 0.66321 0.0
C725 C 0.31637 0.88621 0.66059 0.0
U726 U 0.24868 0.8243 0.61851 0.0
O727 O 0.24901 0.78595 0.60142 0.0
O728 O 0.23381 0.79245 0.63767 0.0
C729 C 0.2393 0.77588 0.62014 0.0
C730 C 0.29073 0.84928 0.63797 0.0
C731 C 0.25065 0.75377 0.62828 0.0
C732 C 0.28705 0.7313 0.63702 0.0
C733 C 0.27658 0.75374 0.63341 0.0
C734 C 0.24567 0.70906 0.63171 0.0
C735 C 0.27175 0.70854 0.63538 0.0
C736 C 0.23526 0.73146 0.62819 0.0
C737 C 0.18897 0.83777 0.58313 0.0
C738 C 0.15144 0.80903 0.58065 0.0
C739 C 0.15883 0.83409 0.5464 0.0
C740 C 0.18118 0.84508 0.55957 0.0
C741 C 0.14393 0.81559 0.55664 0.0
C742 C 0.17378 0.81982 0.59364 0.0
C743 C 0.2138 0.84725 0.59565 0.0
O744 O 0.27172 0.84435 0.65102 0.0
O745 O 0.28796 0.83738 0.61539 0.0
O746 O 0.23274 0.83925 0.58453 0.0
O747 O 0.21652 0.8466 0.62007 0.0
H748 H 0.28023 0.88373 0.60518 0.0
H749 H 0.2949 0.92827 0.60955 0.0
H750 H 0.33695 0.91921 0.67955 0.0
H751 H 0.32227 0.87464 0.67503 0.0
H752 H 0.30719 0.73165 0.64021 0.0
H753 H 0.28876 0.77082 0.6336 0.0
H754 H 0.23331 0.69196 0.63002 0.0
H755 H 0.21519 0.73114 0.62415 0.0
H756 H 0.14017 0.79527 0.58935 0.0
H757 H 0.15367 0.83946 0.52791 0.0
H758 H 0.19275 0.85875 0.55105 0.0
H759 H 0.17938 0.81366 0.61171 0.0
C760 C 0.33316 0.25677 0.01405 0.0
C761 C 0.35113 0.24175 0.00518 0.0
C762 C 0.32486 0.20418 0.01123 0.0
C763 C 0.34695 0.21573 1.00363 0.0
C764 C 0.30684 0.21927 0.02004 0.0
C765 C 0.31096 0.24536 0.02138 0.0
U766 U 0.38081 0.31223 0.02707 0.0
O767 O 0.38584 0.34815 0.01105 0.0
O768 O 0.38147 0.34754 0.05111 0.0
C769 C 0.38309 0.36124 0.03221 0.0
C770 C 0.33838 0.28417 0.01735 0.0
C771 C 0.36547 0.38051 0.03049 0.0
C772 C 0.32618 0.39435 0.014 0.0
C773 C 0.34198 0.37535 0.01683 0.0
C774 C 0.35684 0.42373 0.03915 0.0
C775 C 0.33352 0.41888 0.0249 0.0
C776 C 0.37266 0.40472 0.04187 0.0
C777 C 0.44866 0.29599 0.03751 0.0
C778 C 0.48433 0.32687 0.04811 0.0
C779 C 0.49007 0.2827 0.04626 0.0
C780 C 0.46449 0.27691 0.03964 0.0
C781 C 0.50024 0.30774 0.05088 0.0
C782 C 0.45868 0.32103 0.04153 0.0
C783 C 0.4217 0.28929 0.03193 0.0
O784 O 0.34718 0.29331 0.04011 0.0
O785 O 0.35048 0.29409 0.9999 0.0
O786 O 0.41185 0.29522 0.01035 0.0
O787 O 0.40808 0.2943 0.05047 0.0
H788 H 0.36863 0.25015 0.99985 0.0
H789 H 0.36134 0.20466 0.99712 0.0
H790 H 0.28957 0.2109 0.02586 0.0
H791 H 0.29698 0.25663 0.0285 0.0
H792 H 0.30855 0.38996 1.0026 0.0
H793 H 0.33608 0.35674 0.00791 0.0
H794 H 0.36296 0.44225 0.04812 0.0
H795 H 0.3907 0.40901 0.05258 0.0
H796 H 0.49158 0.34632 0.05179 0.0
H797 H 0.50188 0.26757 0.04792 0.0
H798 H 0.45701 0.25748 0.03651 0.0
H799 H 0.44662 0.33598 0.03999 0.0
C800 C 0.38101 0.66903 0.60794 0.0
C801 C 0.38942 0.65278 0.58938 0.0
C802 C 0.37442 0.67826 0.5571 0.0
C803 C 0.38622 0.65739 0.56422 0.0
C804 C 0.36661 0.69484 0.5759 0.0
C805 C 0.36993 0.69027 0.60108 0.0
U806 U 0.38796 0.62071 0.6538 0.0
O807 O 0.40512 0.62198 0.69252 0.0
O808 O 0.36499 0.61029 0.68374 0.0
C809 C 0.38394 0.61434 0.70107 0.0
C810 C 0.38164 0.66264 0.63398 0.0
C811 C 0.37881 0.62559 0.72569 0.0
C812 C 0.37397 0.661 0.75541 0.0
C813 C 0.37787 0.65136 0.73115 0.0
C814 C 0.37153 0.61913 0.76855 0.0
C815 C 0.37095 0.64496 0.77449 0.0
C816 C 0.37535 0.60961 0.74445 0.0
C817 C 0.39975 0.55572 0.63291 0.0
C818 C 0.40586 0.52847 0.66592 0.0
C819 C 0.39719 0.51076 0.62284 0.0
C820 C 0.3961 0.53484 0.61517 0.0
C821 C 0.40164 0.50735 0.64838 0.0
C822 C 0.40481 0.55236 0.65827 0.0
C823 C 0.39657 0.58092 0.62566 0.0
O824 O 0.36307 0.64669 0.6383 0.0
O825 O 0.40342 0.65744 0.64416 0.0
O826 O 0.41436 0.59816 0.63527 0.0
O827 O 0.37404 0.5879 0.62763 0.0
H828 H 0.39801 0.63625 0.59432 0.0
H829 H 0.3929 0.64457 0.5503 0.0
H830 H 0.3572 0.71094 0.5711 0.0
H831 H 0.36308 0.70287 0.61512 0.0
H832 H 0.37345 0.68097 0.75926 0.0
H833 H 0.38042 0.66397 0.71681 0.0
H834 H 0.36987 0.60621 0.78272 0.0
H835 H 0.37609 0.58965 0.74057 0.0
H836 H 0.40974 0.52655 0.68567 0.0
H837 H 0.39355 0.49482 0.60894 0.0
H838 H 0.39183 0.53711 0.59554 0.0
H839 H 0.40747 0.56826 0.67229 0.0
C840 C 0.99551 0.7197 0.27316 0.0
C841 C 0.01968 0.72441 0.28561 0.0
C842 C 1.00229 0.73118 0.32563 0.0
C843 C 0.02302 0.73002 0.31153 0.0
C844 C 0.97816 0.7283 0.31283 0.0
C845 C 0.97485 0.72262 0.28687 0.0
U846 U 0.00523 0.71888 0.20307 0.0
O847 O 0.97965 0.70445 0.16981 0.0
O848 O 0.01394 0.68661 0.17882 0.0
C849 C 0.9951 0.68849 0.16213 0.0
C850 C 0.99149 0.70876 0.24685 0.0
C851 C 1.00175 0.69002 0.13635 0.0
C852 C 0.9915 0.6806 0.09152 0.0
C853 C 0.98507 0.67939 0.11603 0.0
C854 C 0.03133 0.70311 0.10744 0.0
C855 C 0.01483 0.69222 0.08705 0.0
C856 C 0.02478 0.70219 0.13184 0.0
C857 C 0.03921 0.78465 0.21681 0.0
C858 C 0.05144 0.8292 0.22071 0.0
C859 C 0.04154 0.80864 0.25732 0.0
C860 C 0.03687 0.78576 0.24257 0.0
C861 C 0.04835 0.83076 0.24644 0.0
C862 C 0.04695 0.80636 0.20609 0.0
C863 C 0.03109 0.76184 0.20028 0.0
O864 O 0.97764 0.72035 0.23112 0.0
O865 O 0.01114 0.70038 0.23732 0.0
O866 O 0.04155 0.74152 0.2054 0.0
O867 O 0.0068 0.75796 0.19471 0.0
H868 H 0.03606 0.72249 0.27557 0.0
H869 H 0.04189 0.73188 0.32058 0.0
H870 H 0.96176 0.72964 0.32293 0.0
H871 H 0.95605 0.71943 0.27763 0.0
H872 H 0.97847 0.67205 0.0761 0.0
H873 H 0.96715 0.67007 0.11915 0.0
H874 H 0.04925 0.71254 0.1045 0.0
H875 H 0.03781 0.71089 0.14719 0.0
H876 H 0.05618 0.8458 0.21153 0.0
H877 H 0.03929 0.80908 0.27711 0.0
H878 H 0.03071 0.76913 0.2511 0.0
H879 H 0.04855 0.80583 0.18615 0.0
C880 C 0.64958 0.29987 0.90109 0.0
C881 C 0.63762 0.28468 0.91717 0.0
C882 C 0.65671 0.31203 0.95344 0.0
C883 C 0.64108 0.29072 0.94306 0.0
C884 C 0.66858 0.32719 0.9371 0.0
C885 C 0.66506 0.32114 0.9112 0.0
U886 U 0.62422 0.254 0.84611 0.0
O887 O 0.60196 0.25859 0.81107 0.0
O888 O 0.63852 0.24367 0.80988 0.0
C889 C 0.61896 0.25075 0.79698 0.0
C890 C 0.64581 0.29361 0.87385 0.0
C891 C 0.62298 0.26412 0.7746 0.0
C892 C 0.6043 0.28112 0.73789 0.0
C893 C 0.60212 0.27179 0.76096 0.0
C894 C 0.64851 0.27571 0.74141 0.0
C895 C 0.62746 0.28308 0.72768 0.0
C896 C 0.64629 0.26626 0.76465 0.0
C897 C 0.59048 0.19267 0.85579 0.0
C898 C 0.56559 0.16972 0.82012 0.0
C899 C 0.57518 0.14926 0.85759 0.0
C900 C 0.58852 0.17139 0.8689 0.0
C901 C 0.56352 0.14828 0.8331 0.0
C902 C 0.57903 0.19165 0.8313 0.0
C903 C 0.60481 0.21586 0.86714 0.0
O904 O 0.65827 0.27538 0.86511 0.0
O905 O 0.62238 0.29177 0.86427 0.0
O906 O 0.59345 0.23616 0.86435 0.0
O907 O 0.62836 0.21834 0.8624 0.0
H908 H 0.62552 0.26817 0.90965 0.0
H909 H 0.63129 0.27879 0.9549 0.0
H910 H 0.68099 0.34353 0.94427 0.0
H911 H 0.6745 0.33304 0.89907 0.0
H912 H 0.58753 0.286 0.72764 0.0
H913 H 0.58377 0.26973 0.76772 0.0
H914 H 0.66663 0.27708 0.73414 0.0
H915 H 0.66267 0.26009 0.77448 0.0
H916 H 0.55724 0.1694 0.80106 0.0
H917 H 0.57387 0.13299 0.86799 0.0
H918 H 0.59737 0.17185 0.88778 0.0
H919 H 0.58062 0.20781 0.82075 0.0
C920 C 0.00516 0.32991 0.25747 0.0
C921 C 0.00872 0.34976 0.24259 0.0
C922 C 1.00363 0.32068 0.20503 0.0
C923 C 0.00798 0.3452 0.21666 0.0
C924 C 0.99963 0.30082 0.21998 0.0
C925 C 1.00047 0.30542 0.24605 0.0
U926 U 0.01686 0.37819 0.31182 0.0
O927 O 1.00007 0.38448 0.34726 0.0
O928 O 0.04018 0.37998 0.34768 0.0
C929 C 0.02099 0.38205 0.36093 0.0
C930 C 0.0072 0.33513 0.28482 0.0
C931 C 0.01891 0.365 0.38067 0.0
C932 C 1.00257 0.32601 0.39516 0.0
C933 C 0.00527 0.34149 0.37588 0.0
C934 C 0.02773 0.35708 0.4241 0.0
C935 C 0.01361 0.33367 0.41959 0.0
C936 C 0.03031 0.37258 0.40481 0.0
C937 C 0.02882 0.44487 0.29188 0.0
C938 C 0.03764 0.48288 0.31999 0.0
C939 C 0.03992 0.48429 0.27542 0.0
C940 C 0.0331 0.45863 0.27158 0.0
C941 C 0.04258 0.49665 0.29968 0.0
C942 C 0.03088 0.45708 0.31612 0.0
C943 C 0.02294 0.41777 0.28714 0.0
O944 O 0.02975 0.34364 0.29483 0.0
O945 O 0.98962 0.34792 0.29352 0.0
O946 O 1.0011 0.40878 0.29324 0.0
O947 O 0.04118 0.40422 0.2934 0.0
H948 H 0.01231 0.36882 0.25111 0.0
H949 H 0.01073 0.36093 0.20569 0.0
H950 H 0.99642 0.28171 0.21158 0.0
H951 H 0.99776 0.28989 0.25728 0.0
H952 H 0.99126 0.30831 0.39103 0.0
H953 H 0.99636 0.33527 0.35732 0.0
H954 H 0.03679 0.36345 0.44253 0.0
H955 H 0.04104 0.39063 0.4088 0.0
H956 H 0.03975 0.49188 0.33891 0.0
H957 H 0.04329 0.49445 0.25939 0.0
H958 H 0.03149 0.44945 0.25274 0.0
H959 H 0.02765 0.44663 0.33199 0.0
H960 H 0.31777 0.62 0.58173 0.0
H961 H 0.32383 0.54389 0.59513 0.0
H962 H 0.29944 0.59423 0.65226 0.0
H963 H 0.32571 0.54695 0.67514 0.0
C964 C 0.32819 0.54064 0.65541 0.0
O965 O 0.30874 0.54789 0.64009 0.0
H966 H 0.34657 0.54959 0.65124 0.0
C967 C 0.31647 0.60567 0.59455 0.0
C968 C 0.30773 0.6107 0.61816 0.0
C969 C 0.32279 0.5819 0.58652 0.0
C970 C 0.3196 0.56241 0.60168 0.0
C971 C 0.31148 0.56695 0.62549 0.0
C972 C 0.30564 0.59104 0.63378 0.0
H973 H 0.2497 0.46689 0.96953 0.0
H974 H 0.23147 0.54224 0.96283 0.0
H975 H 0.28848 0.52769 0.01889 0.0
H976 H 0.255 0.5669 0.0354 0.0
C977 C 0.25043 0.57385 0.01687 0.0
O978 O 0.26397 0.56238 0.99935 0.0
H979 H 0.23003 0.56917 0.01157 0.0
C980 C 0.25213 0.48656 0.97627 0.0
C981 C 0.27053 0.49503 0.99594 0.0
C982 C 0.238 0.50335 0.96408 0.0
C983 C 0.24213 0.52897 0.97204 0.0
C984 C 0.26003 0.53764 0.99202 0.0
C985 C 0.27436 0.52074 1.00378 0.0
H986 H 0.68117 0.88592 0.4057 0.0
H987 H 0.6797 0.95995 0.38227 0.0
H988 H 0.66476 0.89641 0.32782 0.0
H989 H 0.67988 0.95364 0.30205 0.0
C990 C 0.68621 0.95588 0.32234 0.0
O991 O 0.66752 0.94524 0.3351 0.0
H992 H 0.70348 0.94602 0.32455 0.0
C993 C 0.67929 0.89808 0.39081 0.0
C994 C 0.67312 0.88764 0.36598 0.0
C995 C 0.68185 0.92406 0.39694 0.0
C996 C 0.6779 0.93985 0.37794 0.0
C997 C 0.67186 0.92982 0.35312 0.0
C998 C 0.66951 0.90383 0.34713 0.0
H999 H 0.73142 0.01607 0.06686 0.0
H1000 H 0.72091 0.93566 0.06086 0.0
H1001 H 0.69635 0.97507 0.99892 0.0
H1002 H 0.66357 0.9252 1.00084 0.0
C1003 C 0.67651 0.91895 0.01573 0.0
O1004 O 0.70003 0.93098 0.01507 0.0
H1005 H 0.66897 0.92371 0.03398 0.0
C1006 C 0.72505 0.99843 0.05605 0.0
C1007 C 0.71376 0.99838 0.03156 0.0
C1008 C 0.72748 0.97595 0.06698 0.0
C1009 C 0.7188 0.95324 0.05297 0.0
C1010 C 0.70764 0.953 0.02853 0.0
C1011 C 0.70492 0.9755 0.0179 0.0
H1012 H 0.58198 0.31627 0.6291 0.0
H1013 H 0.60576 0.32362 0.5564 0.0
H1014 H 0.65866 0.30713 0.6157 0.0
H1015 H 0.68603 0.33556 0.56834 0.0
C1016 C 0.66591 0.3368 0.56262 0.0
O1017 O 0.65233 0.31533 0.56815 0.0
H1018 H 0.66051 0.35375 0.57338 0.0
C1019 C 0.597 0.31629 0.61698 0.0
C1020 C 0.62098 0.31082 0.62595 0.0
C1021 C 0.59172 0.32162 0.59231 0.0
C1022 C 0.61013 0.3203 0.5757 0.0
C1023 C 0.63437 0.31548 0.58422 0.0
C1024 C 0.63983 0.31072 0.60931 0.0
H1025 H 0.08458 0.71575 0.00417 0.0
H1026 H 0.07242 0.71054 0.92381 0.0
H1027 H 0.01236 0.68854 0.96658 0.0
H1028 H 1.00311 0.66198 0.91284 0.0
C1029 C 0.02134 0.67117 0.9087 0.0
O1030 O 0.02527 0.69452 0.92177 0.0
H1031 H 0.03599 0.65895 0.91464 0.0
C1032 C 0.07254 0.71042 0.98706 0.0
C1033 C 0.04755 0.70111 0.98842 0.0
C1034 C 0.08191 0.71387 0.96393 0.0
C1035 C 0.06573 0.70822 0.94191 0.0
C1036 C 0.04073 0.69937 0.94304 0.0
C1037 C 0.03167 0.69579 0.96616 0.0
H1038 H 0.95924 0.25057 0.46868 0.0
H1039 H 0.95391 0.23174 0.54408 0.0
H1040 H 0.00982 0.28863 0.52892 0.0
H1041 H 0.0271 0.25478 0.56717 0.0
C1042 C 0.00881 0.25004 0.57453 0.0
O1043 O 0.99101 0.26377 0.56382 0.0
H1044 H 1.00345 0.22971 0.56954 0.0
C1045 C 0.96633 0.25283 0.48827 0.0
C1046 C 0.9862 0.27105 0.49652 0.0
C1047 C 0.95442 0.23862 0.50519 0.0
C1048 C 0.96288 0.24249 0.53072 0.0
C1049 C 0.98308 0.26021 0.53917 0.0
C1050 C 0.99453 0.27466 0.52215 0.0
H1051 H 0.41627 0.68219 0.87966 0.0
H1052 H 0.39156 0.68137 0.95332 0.0
H1053 H 0.33823 0.66498 0.88898 0.0
H1054 H 0.31144 0.68128 0.94519 0.0
C1055 C 0.33179 0.6872 0.94852 0.0
O1056 O 0.34469 0.66855 0.938 0.0
H1057 H 0.33494 0.70481 0.93937 0.0
C1058 C 0.40116 0.68031 0.89159 0.0
C1059 C 0.37653 0.67369 0.8808 0.0
C1060 C 0.40684 0.68322 0.91765 0.0
C1061 C 0.38757 0.67929 0.93316 0.0
C1062 C 0.36293 0.67288 0.92279 0.0
C1063 C 0.35739 0.67011 0.8967 0.0
H1064 H 0.61597 0.57248 0.31002 0.0
H1065 H 0.54426 0.60013 0.31488 0.0
H1066 H 0.60598 0.64877 0.29648 0.0
H1067 H 0.55619 0.68003 0.31765 0.0
C1068 C 0.55161 0.66037 0.32159 0.0
O1069 O 0.55798 0.64462 0.30204 0.0
H1070 H 0.56274 0.65789 0.33942 0.0
C1071 C 0.60439 0.58785 0.30897 0.0
C1072 C 0.61459 0.61118 0.30296 0.0
C1073 C 0.57932 0.58388 0.31378 0.0
C1074 C 0.5638 0.6032 0.31171 0.0
C1075 C 0.57341 0.62645 0.30518 0.0
C1076 C 0.59878 0.63056 0.3011 0.0
H1077 H 0.00589 0.08031 0.72549 0.0
H1078 H 0.92548 0.06782 0.71378 0.0
H1079 H 0.97047 0.0084 0.69494 0.0
H1080 H 0.92027 1.00272 0.6621 0.0
C1081 C 0.913 0.01844 0.67312 0.0
O1082 O 0.92472 0.02094 0.69708 0.0
H1083 H 0.91701 0.03562 0.66352 0.0
C1084 C 0.98898 0.06823 0.71927 0.0
C1085 C 0.99096 0.04345 0.70997 0.0
C1086 C 0.9655 0.07749 0.72051 0.0
C1087 C 0.94384 0.06124 0.71299 0.0
C1088 C 0.94569 0.03642 0.70389 0.0
C1089 C 0.96921 0.0276 0.70211 0.0
H1090 H 0.46752 0.9601 0.24369 0.0
H1091 H 0.54273 0.9506 0.22637 0.0
H1092 H 0.52904 0.0098 0.28056 0.0
H1093 H 0.569 0.02269 0.24489 0.0
C1094 C 0.57565 1.00377 0.24223 0.0
O1095 O 0.56343 0.98823 0.25726 0.0
H1096 H 0.57141 0.99643 0.22224 0.0
C1097 C 0.48729 0.96647 0.24591 0.0
C1098 C 0.49607 0.98677 0.26346 0.0
C1099 C 0.50387 0.9532 0.23248 0.0
C1100 C 0.52961 0.96069 0.23645 0.0
C1101 C 0.53858 0.98137 0.2534 0.0
C1102 C 0.52187 0.99423 0.26705 0.0
H1103 H 0.88366 0.41523 0.68177 0.0
H1104 H 0.9551 0.38544 0.6814 0.0
H1105 H 0.88813 0.33557 0.67567 0.0
H1106 H 0.94546 0.30792 0.6933 0.0
C1107 C 0.94763 0.32859 0.69713 0.0
O1108 O 0.93698 0.33881 0.67663 0.0
H1109 H 0.93765 0.33303 0.71399 0.0
C1110 C 0.89459 0.39931 0.68107 0.0
C1111 C 0.88238 0.37497 0.67865 0.0
C1112 C 0.92078 0.40339 0.68226 0.0
C1113 C 0.93491 0.38276 0.68094 0.0
C1114 C 0.9231 0.35846 0.67862 0.0
C1115 C 0.89695 0.35453 0.67751 0.0
H1116 H 0.69725 0.37348 0.42589 0.0
H1117 H 0.68023 0.44852 0.41488 0.0
H1118 H 0.7125 0.40485 0.35769 0.0
H1119 H 0.72811 0.46167 0.35615 0.0
C1120 C 0.71711 0.46613 0.37219 0.0
O1121 O 0.69661 0.4486 0.37078 0.0
H1122 H 0.72966 0.4654 0.38961 0.0
C1123 C 0.69698 0.38911 0.41457 0.0
C1124 C 0.7059 0.38658 0.39095 0.0
C1125 C 0.6876 0.41132 0.42355 0.0
C1126 C 0.68703 0.43109 0.40826 0.0
C1127 C 0.69613 0.42886 0.38466 0.0
C1128 C 0.70533 0.40647 0.37585 0.0
H1129 H 0.76513 0.551 0.05007 0.0
H1130 H 0.78493 0.47576 0.05408 0.0
H1131 H 0.72724 0.49095 0.99918 0.0
H1132 H 0.71564 0.44617 0.02464 0.0
C1133 C 0.73488 0.44079 0.02906 0.0
O1134 O 0.75175 0.45606 0.0181 0.0
H1135 H 0.73899 0.44318 0.04978 0.0
C1136 C 0.76319 0.53154 0.04264 0.0
C1137 C 0.74489 0.52331 0.02279 0.0
C1138 C 0.77768 0.51461 0.05422 0.0
C1139 C 0.77409 0.48918 0.04533 0.0
C1140 C 0.75594 0.48075 0.02556 0.0
C1141 C 0.74142 0.49776 0.01428 0.0
H1142 H 0.32386 0.11168 0.58755 0.0
H1143 H 0.31668 0.03585 0.60651 0.0
H1144 H 0.337 0.0958 0.66432 0.0
H1145 H 0.35788 0.0391 0.67772 0.0
C1146 C 0.34916 0.03375 0.65836 0.0
O1147 O 0.32862 0.04701 0.6542 0.0
H1148 H 0.36378 0.0384 0.64565 0.0
C1149 C 0.32414 0.09847 0.60158 0.0
C1150 C 0.33028 0.1072 0.6269 0.0
C1151 C 0.31936 0.07285 0.59395 0.0
C1152 C 0.32067 0.0557 0.61198 0.0
C1153 C 0.3273 0.06395 0.6372 0.0
C1154 C 0.33218 0.08964 0.6447 0.0
H1155 H 0.30257 0.00417 0.9341 0.0
H1156 H 0.31077 0.08421 0.94916 0.0
H1157 H 0.33382 0.03867 0.00649 0.0
H1158 H 0.31341 0.08993 0.0284 0.0
C1159 C 0.31151 0.09575 0.0091 0.0
O1160 O 0.32878 0.08443 0.99553 0.0
H1161 H 0.29204 0.0898 1.0008 0.0
C1162 C 0.3089 0.02076 0.94659 0.0
C1163 C 0.31922 0.01826 0.97104 0.0
C1164 C 0.3057 0.04441 0.93839 0.0
C1165 C 0.31287 0.06578 0.95507 0.0
C1166 C 0.32256 0.06361 0.97961 0.0
C1167 C 0.32584 0.03996 0.98756 0.0
H1168 H 0.43032 0.6984 0.38177 0.0
H1169 H 0.40297 0.67073 0.44745 0.0
H1170 H 0.35161 0.69579 0.39181 0.0
H1171 H 0.32784 0.69402 0.45145 0.0
C1172 C 0.34859 0.69563 0.45331 0.0
O1173 O 0.35641 0.67851 0.43575 0.0
H1174 H 0.35485 0.71509 0.44961 0.0
C1175 C 0.41473 0.69431 0.39263 0.0
C1176 C 0.39033 0.69816 0.38331 0.0
C1177 C 0.41935 0.68409 0.41539 0.0
C1178 C 0.39964 0.67892 0.42995 0.0
C1179 C 0.37542 0.68399 0.42176 0.0
C1180 C 0.37069 0.6933 0.3984 0.0
H1181 H 0.93147 0.29836 1.00382 0.0
H1182 H 0.94287 0.30751 0.08437 0.0
H1183 H 1.00392 0.3249 0.04098 0.0
H1184 H 0.02282 0.30546 0.09149 0.0
C1185 C 1.00339 0.3039 0.097 0.0
O1186 O 0.99038 0.32183 0.08627 0.0
H1187 H 0.99488 0.28467 0.0902 0.0
C1188 C 0.94346 0.3038 0.02096 0.0
C1189 C 0.96866 0.31215 0.01952 0.0
C1190 C 0.93372 0.30213 0.0442 0.0
C1191 C 0.94978 0.30865 0.06619 0.0
C1192 C 0.97501 0.3166 0.06495 0.0
C1193 C 0.98435 0.31875 0.0417 0.0
H1194 H 0.044 0.75139 0.54337 0.0
H1195 H 0.05481 0.77273 0.46977 0.0
H1196 H 0.99136 0.72235 0.48088 0.0
H1197 H 0.01516 0.70804 0.43682 0.0
C1198 C 0.02353 0.72653 0.43236 0.0
O1199 O 0.01523 0.74525 0.44772 0.0
H1200 H 0.04422 0.72668 0.43571 0.0
C1201 C 0.03751 0.75078 0.52369 0.0
C1202 C 0.01562 0.73579 0.51428 0.0
C1203 C 0.05186 0.76404 0.50785 0.0
C1204 C 0.04371 0.76292 0.48232 0.0
C1205 C 0.02194 0.74782 0.47263 0.0
C1206 C 0.00791 0.7343 0.48859 0.0
H1207 H 0.59344 0.33314 0.12758 0.0
H1208 H 0.61921 0.33782 0.05472 0.0
H1209 H 0.67106 0.35498 0.1201 0.0
H1210 H 0.67936 0.31846 0.07102 0.0
C1211 C 0.68007 0.33563 0.06091 0.0
O1212 O 0.66545 0.35288 0.07123 0.0
H1213 H 0.69984 0.34382 0.06324 0.0
C1214 C 0.60868 0.33624 0.11603 0.0
C1215 C 0.63294 0.34387 0.12737 0.0
C1216 C 0.60347 0.33387 0.0899 0.0
C1217 C 0.62285 0.33939 0.07491 0.0
C1218 C 0.64712 0.34684 0.08585 0.0
C1219 C 0.65218 0.34905 0.11196 0.0
H1220 H 0.35946 0.41044 0.6943 0.0
H1221 H 0.43503 0.40177 0.67736 0.0
H1222 H 0.3955 0.34665 0.71589 0.0
H1223 H 0.45346 0.34849 0.73013 0.0
C1224 C 0.45599 0.36416 0.71823 0.0
O1225 O 0.43818 0.36007 0.69787 0.0
H1226 H 0.45354 0.38163 0.73003 0.0
C1227 C 0.37572 0.39994 0.69471 0.0
C1228 C 0.37485 0.37752 0.706 0.0
C1229 C 0.39736 0.40911 0.68444 0.0
C1230 C 0.41805 0.39498 0.68491 0.0
C1231 C 0.41747 0.37257 0.69627 0.0
C1232 C 0.39579 0.36376 0.70676 0.0
H1233 H 0.0068 0.92674 0.29131 0.0
H1234 H 0.0871 0.94185 0.29933 0.0
H1235 H 0.04107 1.00012 0.31863 0.0
H1236 H 0.09037 0.02175 0.29849 0.0
C1237 C 0.09669 1.00267 0.29647 0.0
O1238 O 0.08696 0.98894 0.31443 0.0
H1239 H 0.08978 0.99425 0.27723 0.0
C1240 C 0.02349 0.93938 0.29671 0.0
C1241 C 0.02102 0.96422 0.30562 0.0
C1242 C 0.04721 0.93087 0.29442 0.0
C1243 C 0.06858 0.9478 0.30091 0.0
C1244 C 0.06628 0.97268 0.30936 0.0
C1245 C 0.0426 0.98079 0.31211 0.0
H1246 H 0.55234 0.05379 0.76031 0.0
H1247 H 0.4781 0.06303 0.78072 0.0
H1248 H 0.48896 0.00769 0.72176 0.0
H1249 H 0.44436 0.03217 0.70944 0.0
C1250 C 0.44286 0.04183 0.72825 0.0
O1251 O 0.45589 0.02986 0.7461 0.0
H1252 H 0.45113 0.0615 0.72828 0.0
C1253 C 0.53255 0.04762 0.75836 0.0
C1254 C 0.52293 0.0287 0.7395 0.0
C1255 C 0.51664 0.06008 0.77344 0.0
C1256 C 0.49077 0.05334 0.76965 0.0
C1257 C 0.48094 0.0346 0.75098 0.0
C1258 C 0.49696 0.02205 0.73623 0.0
H1259 H 0.11923 0.5902 0.3229 0.0
H1260 H 0.04651 0.61693 0.31326 0.0
H1261 H 0.11155 0.66926 0.33079 0.0
H1262 H 0.05306 0.69306 0.34421 0.0
C1263 C 0.04949 0.67242 0.34083 0.0
O1264 O 0.0628 0.6642 0.32141 0.0
H1265 H 0.05589 0.66456 0.35847 0.0
C1266 C 0.10767 0.60563 0.32228 0.0
C1267 C 0.11885 0.6303 0.32703 0.0
C1268 C 0.08166 0.60054 0.31738 0.0
C1269 C 0.06659 0.62046 0.31742 0.0
C1270 C 0.07741 0.64513 0.32247 0.0
C1271 C 0.10343 0.65005 0.32738 0.0
C1272 C 0.18777 0.62183 0.32515 0.0
C1273 C 0.19873 0.63831 0.34554 0.0
H1274 H 0.15419 0.60685 0.30296 0.0
C1275 C 0.18345 0.65421 0.35803 0.0
H1276 H 0.19881 0.60918 0.31514 0.0
C1277 C 0.15764 0.65249 0.35134 0.0
C1278 C 0.14654 0.63488 0.33194 0.0
H1279 H 0.19131 0.66749 0.37352 0.0
H1280 H 0.14627 0.66411 0.36214 0.0
C1281 C 0.16206 0.62022 0.31838 0.0
C1282 C 0.32663 0.37976 0.75216 0.0
C1283 C 0.30547 0.36691 0.73806 0.0
H1284 H 0.36543 0.39287 0.7529 0.0
C1285 C 0.30841 0.35457 0.71457 0.0
H1286 H 0.32499 0.38974 0.77017 0.0
C1287 C 0.33172 0.35613 0.70491 0.0
C1288 C 0.35238 0.37022 0.71844 0.0
H1289 H 0.29253 0.34435 0.70337 0.0
H1290 H 0.33324 0.34735 0.68639 0.0
C1291 C 0.34981 0.38151 0.74237 0.0
C1292 C 0.54929 0.00619 0.67935 0.0
C1293 C 0.57414 1.00304 0.68781 0.0
H1294 H 0.51381 0.01694 0.68881 0.0
C1295 C 0.58131 0.0063 0.71368 0.0
H1296 H 0.54294 1.00337 0.65962 0.0
C1297 C 0.56437 0.01348 0.73054 0.0
C1298 C 0.53988 0.01782 0.72196 0.0
H1299 H 0.6003 0.00422 0.72094 0.0
H1300 H 0.57067 0.01618 0.75029 0.0
C1301 C 0.53242 0.01359 0.69618 0.0
C1302 C 0.9653 0.99159 0.33215 0.0
C1303 C 0.94652 0.98558 0.31218 0.0
H1304 H 1.00365 0.98962 0.34569 0.0
C1305 C 0.953 0.97378 0.28964 0.0
H1306 H 0.961 1.00046 0.34986 0.0
C1307 C 0.97726 0.96727 0.28744 0.0
C1308 C 0.99578 0.9727 0.3076 0.0
H1309 H 0.93928 0.96945 0.27361 0.0
H1310 H 0.98156 0.95792 0.26994 0.0
C1311 C 0.98971 0.98534 0.32983 0.0
C1312 C 0.36334 0.17006 0.6539 0.0
C1313 C 0.34999 0.18671 0.64043 0.0
H1314 H 0.36769 0.13191 0.66023 0.0
C1315 C 0.32827 0.17708 0.62511 0.0
H1316 H 0.37987 0.17682 0.6663 0.0
C1317 C 0.32107 0.15142 0.62203 0.0
C1318 C 0.3355 0.13461 0.63397 0.0
H1319 H 0.31752 0.18913 0.61431 0.0
H1320 H 0.30467 0.14463 0.60944 0.0
C1321 C 0.3562 0.14429 0.65067 0.0
C1322 C 0.33176 0.94996 0.96902 0.0
C1323 C 0.32619 0.94383 0.99283 0.0
H1324 H 0.33473 0.97825 0.9438 0.0
C1325 C 0.31948 0.96266 0.00998 0.0
H1326 H 0.33743 0.93596 0.95556 0.0
C1327 C 0.31762 0.98693 1.00316 0.0
C1328 C 0.32262 0.99293 0.97908 0.0
H1329 H 0.31493 0.95843 0.02842 0.0
H1330 H 0.31154 1.00078 0.0165 0.0
C1331 C 0.33013 0.97421 0.96228 0.0
C1332 C 0.71099 0.32039 0.36404 0.0
C1333 C 0.73334 0.31512 0.37714 0.0
H1334 H 0.68522 0.34783 0.35733 0.0
C1335 C 0.74774 0.33448 0.3925 0.0
H1336 H 0.69958 0.30586 0.35202 0.0
C1337 C 0.73942 0.35822 0.39569 0.0
C1338 C 0.71675 0.36324 0.38328 0.0
H1339 H 0.76486 0.33094 0.40311 0.0
H1340 H 0.75018 0.37242 0.40869 0.0
C1341 C 0.70287 0.34438 0.36693 0.0
C1342 C 0.72242 0.58314 1.00096 0.0
C1343 C 0.6963 0.57769 0.99882 0.0
H1344 H 0.75825 0.5701 0.00979 0.0
C1345 C 0.68642 0.55349 1.00276 0.0
H1346 H 0.7307 0.60139 0.99757 0.0
C1347 C 0.70224 0.53548 0.00949 0.0
C1348 C 0.72829 0.5413 0.01259 0.0
H1349 H 0.66641 0.54869 1.0016 0.0
H1350 H 0.69403 0.51736 0.01335 0.0
C1351 C 0.73822 0.56519 0.00784 0.0
C1352 C 0.65366 0.37481 0.19278 0.0
C1353 C 0.63921 0.36014 0.20762 0.0
H1354 H 0.66287 0.38144 0.15597 0.0
C1355 C 0.62523 0.33832 0.19611 0.0
H1356 H 0.66512 0.39145 0.20103 0.0
C1357 C 0.62443 0.33225 0.17029 0.0
C1358 C 0.63735 0.34796 0.1552 0.0
H1359 H 0.61378 0.32657 0.20678 0.0
H1360 H 0.61291 0.31565 0.16202 0.0
C1361 C 0.65265 0.36887 0.1669 0.0
C1362 C 0.98056 0.29499 0.9523 0.0
C1363 C 0.99299 0.31724 0.94593 0.0
H1364 H 0.96331 0.27598 0.98051 0.0
C1365 C 0.99879 0.33733 0.96461 0.0
H1366 H 0.97636 0.27889 0.93867 0.0
C1367 C 0.99164 0.33544 0.9888 0.0
C1368 C 0.97834 0.31354 0.99471 0.0
H1369 H 0.00813 0.35483 0.96039 0.0
H1370 H 0.99572 0.35142 1.00262 0.0
C1371 C 0.97319 0.29323 0.97632 0.0
C1372 C 0.36362 0.72853 0.32656 0.0
C1373 C 0.37891 0.72049 0.30811 0.0
H1374 H 0.35519 0.72806 0.3647 0.0
C1375 C 0.39718 0.70454 0.31444 0.0
H1376 H 0.34927 0.74077 0.32229 0.0
C1377 C 0.40052 0.69729 0.33858 0.0
C1378 C 0.38569 0.70561 0.35731 0.0
H1379 H 0.40961 0.69826 0.30096 0.0
H1380 H 0.41501 0.68518 0.34247 0.0
C1381 C 0.36691 0.7211 0.35086 0.0
C1382 C 0.99124 0.67882 0.54394 0.0
C1383 C 0.98751 0.68927 0.56804 0.0
H1384 H 1.0028 0.68551 0.50784 0.0
C1385 C 0.98978 0.71544 0.57292 0.0
H1386 H 0.98989 0.65876 0.53954 0.0
C1387 C 0.99739 0.73068 0.55481 0.0
C1388 C 1.00262 0.72012 0.53132 0.0
H1389 H 0.98647 0.72416 0.59104 0.0
H1390 H 1.00013 0.75073 0.55948 0.0
C1391 C 0.99863 0.69412 0.52572 0.0
C1392 C 0.81572 0.35183 0.65315 0.0
C1393 C 0.80192 0.36962 0.66504 0.0
H1394 H 0.85178 0.33968 0.64782 0.0
C1395 C 0.81455 0.38716 0.68372 0.0
H1396 H 0.80659 0.33765 0.63908 0.0
C1397 C 0.84044 0.38791 0.68919 0.0
C1398 C 0.85448 0.37135 0.67592 0.0
H1399 H 0.80469 0.40121 0.69328 0.0
H1400 H 0.84958 0.40209 0.70326 0.0
C1401 C 0.84167 0.35276 0.65842 0.0
C1402 C 0.68384 0.60244 0.30603 0.0
C1403 C 0.69191 0.61609 0.28678 0.0
H1404 H 0.65378 0.59078 0.32665 0.0
C1405 C 0.67477 0.62993 0.27405 0.0
H1406 H 0.69659 0.59185 0.31643 0.0
C1407 C 0.64984 0.62916 0.27978 0.0
C1408 C 0.64156 0.61459 0.29841 0.0
H1409 H 0.68031 0.64046 0.2589 0.0
H1410 H 0.63687 0.63909 0.26885 0.0
C1411 C 0.65914 0.60177 0.31181 0.0
C1412 C 0.46402 0.00806 0.32025 0.0
C1413 C 0.44039 0.01267 0.3093 0.0
H1414 H 0.50026 0.99646 0.31427 0.0
C1415 C 0.43643 0.01143 0.28308 0.0
H1416 H 0.46771 0.00858 0.34036 0.0
C1417 C 0.45504 0.00433 0.26819 0.0
C1418 C 0.47815 0.99848 0.27915 0.0
H1419 H 0.41871 0.01543 0.274 0.0
H1420 H 0.45113 1.0027 0.24803 0.0
C1421 C 0.48273 1.00112 0.30532 0.0
C1422 C 0.04869 0.02206 0.68294 0.0
C1423 C 0.06615 0.02495 0.70424 0.0
H1424 H 0.01095 0.02536 0.6682 0.0
C1425 C 0.05773 0.03144 0.72773 0.0
H1426 H 0.05446 0.01735 0.66451 0.0
C1427 C 0.033 0.03652 0.72967 0.0
C1428 C 0.01599 0.03468 0.70826 0.0
H1429 H 0.07039 0.03318 0.74464 0.0
H1430 H 0.02726 0.04245 0.74785 0.0
C1431 C 0.02379 0.02672 0.68498 0.0
C1432 C 0.67723 0.81844 0.37186 0.0
C1433 C 0.65619 0.80754 0.35621 0.0
H1434 H 0.69956 0.85203 0.38658 0.0
C1435 C 0.64274 0.823 0.34135 0.0
H1436 H 0.68805 0.8073 0.38367 0.0
C1437 C 0.64896 0.84887 0.34354 0.0
C1438 C 0.66897 0.85993 0.36046 0.0
H1439 H 0.62678 0.81523 0.32862 0.0
H1440 H 0.63724 0.86026 0.33291 0.0
C1441 C 0.68361 0.84425 0.37383 0.0
C1442 C 0.72924 0.06379 0.01372 0.0
C1443 C 0.70582 0.06992 1.00372 0.0
H1444 H 0.75003 0.03639 0.03028 0.0
C1445 C 0.68535 0.05153 1.00132 0.0
H1446 H 0.74557 0.0772 0.01526 0.0
C1447 C 0.68809 0.02793 0.00955 0.0
C1448 C 0.71125 0.02236 0.02057 0.0
H1449 H 0.66699 0.05561 0.99394 0.0
H1450 H 0.67187 0.01438 0.00819 0.0
C1451 C 0.73187 0.04038 0.02221 0.0
C1452 C 0.2717 0.66334 0.64464 0.0
C1453 C 0.28286 0.68415 0.63431 0.0
H1454 H 0.27053 0.62395 0.64771 0.0
C1455 C 0.30344 0.6809 0.62054 0.0
H1456 H 0.25588 0.66521 0.65552 0.0
C1457 C 0.31193 0.65739 0.61624 0.0
C1458 C 0.30025 0.63623 0.62558 0.0
H1459 H 0.31232 0.69629 0.61191 0.0
H1460 H 0.3274 0.65587 0.60494 0.0
C1461 C 0.2803 0.63967 0.64036 0.0
C1462 C 0.32798 0.46323 0.01593 0.0
C1463 C 0.31738 0.43944 0.02039 0.0
H1464 H 0.32147 0.4995 0.00485 0.0
C1465 C 0.29119 0.43507 0.01913 0.0
H1466 H 0.34806 0.46722 0.01646 0.0
C1467 C 0.276 0.45355 0.01233 0.0
C1468 C 0.2866 0.47691 0.00678 0.0
H1469 H 0.28237 0.4172 0.02298 0.0
H1470 H 0.25588 0.44938 0.01087 0.0
C1471 C 0.31275 0.48178 0.00928 0.0
C1472 C 0.38371 0.67653 0.81158 0.0
C1473 C 0.36895 0.65485 0.80091 0.0
H1474 H 0.3971 0.69992 0.84498 0.0
C1475 C 0.35414 0.64134 0.81638 0.0
H1476 H 0.3954 0.68741 0.80036 0.0
C1477 C 0.35553 0.64822 0.84213 0.0
C1478 C 0.37162 0.66891 0.85305 0.0
H1479 H 0.34209 0.62486 0.80873 0.0
H1480 H 0.345 0.6365 0.8536 0.0
C1481 C 0.38494 0.68352 0.8373 0.0
C1482 C 0.00624 0.70083 0.04223 0.0
C1483 C 0.02229 0.69294 0.06129 0.0
H1484 H 1.00176 0.71015 0.0044 0.0
C1485 C 0.04605 0.68652 0.05588 0.0
H1486 H 0.98787 0.70602 0.04597 0.0
C1487 C 0.05388 0.68852 0.03209 0.0
C1488 C 0.03827 0.69731 0.01317 0.0
H1489 H 0.05863 0.67998 0.07013 0.0
H1490 H 0.07228 0.68326 0.02857 0.0
C1491 C 0.01419 0.70312 0.01842 0.0
C1492 C 0.64284 0.28061 0.68452 0.0
C1493 C 0.62894 0.29214 0.70246 0.0
H1494 H 0.65128 0.27733 0.64622 0.0
C1495 C 0.61457 0.31131 0.69553 0.0
H1496 H 0.65399 0.26563 0.6892 0.0
C1497 C 0.61277 0.31769 0.67105 0.0
C1498 C 0.62562 0.30553 0.65264 0.0
H1499 H 0.60409 0.32101 0.70894 0.0
H1500 H 0.60077 0.33199 0.66652 0.0
C1501 C 0.64125 0.2873 0.65985 0.0
C1502 C 0.00535 0.32837 0.46424 0.0
C1503 C 0.00955 0.31769 0.44036 0.0
H1504 H 0.99486 0.32197 0.50079 0.0
C1505 C 0.00851 0.29151 0.43614 0.0
H1506 H 0.00574 0.34843 0.46814 0.0
C1507 C 1.00212 0.27641 0.45482 0.0
C1508 C 0.99678 0.28708 0.47825 0.0
H1509 H 0.01221 0.28263 0.41822 0.0
H1510 H 1.00076 0.25629 0.45074 0.0
C1511 C 0.99912 0.31322 0.48301 0.0
C1512 C 0.32611 0.56428 0.51783 0.0
C1513 C 0.34828 0.57845 0.51363 0.0
H1514 H 0.30079 0.55396 0.54466 0.0
C1515 C 0.36338 0.59104 0.53422 0.0
H1516 H 0.31428 0.55407 0.50236 0.0
C1517 C 0.35562 0.59095 0.55822 0.0
C1518 C 0.33283 0.57802 0.56211 0.0
H1519 H 0.38051 0.60211 0.53162 0.0
H1520 H 0.36693 0.60174 0.57368 0.0
C1521 C 0.31848 0.56401 0.54195 0.0
C1522 C 0.18963 0.46139 0.92098 0.0
C1523 C 0.19124 0.47206 0.89826 0.0
H1524 H 0.20304 0.4631 0.95972 0.0
C1525 C 0.2066 0.49445 0.89793 0.0
H1526 H 0.1781 0.44408 0.9218 0.0
C1527 C 0.22086 0.50535 0.91966 0.0
C1528 C 0.22021 0.49394 0.94206 0.0
H1529 H 0.20801 0.50322 0.88073 0.0
H1530 H 0.23326 0.52205 0.91863 0.0
C1531 C 0.20404 0.47217 0.94264 0.0
C1532 C 0.71216 0.93323 0.46347 0.0
C1533 C 0.6988 0.95189 0.47438 0.0
H1534 H 0.71747 0.9101 0.43045 0.0
C1535 C 0.68028 0.96197 0.45941 0.0
H1536 H 0.72636 0.9249 0.47455 0.0
C1537 C 0.67511 0.95339 0.43408 0.0
C1538 C 0.68821 0.9344 0.42335 0.0
H1539 H 0.66983 0.97652 0.46726 0.0
H1540 H 0.66046 0.96117 0.42306 0.0
C1541 C 0.70692 0.92458 0.43827 0.0
C1542 C 0.77278 0.99196 0.12496 0.0
C1543 C 0.76185 0.9774 0.14224 0.0
H1544 H 0.77053 1.0028 0.08765 0.0
C1545 C 0.73943 0.96236 0.13465 0.0
H1546 H 0.78992 1.00391 0.13036 0.0
C1547 C 0.72834 0.96169 0.11013 0.0
C1548 C 0.73929 0.9763 0.09289 0.0
H1549 H 0.73069 0.95087 0.14756 0.0
H1550 H 0.71104 0.94998 0.10473 0.0
C1551 C 0.76158 0.99148 0.10058 0.0
C1552 C 0.52392 0.31973 0.56816 0.0
C1553 C 0.51732 0.34194 0.58055 0.0
H1554 H 0.55321 0.29596 0.56188 0.0
C1555 C 0.53626 0.35879 0.59373 0.0
H1556 H 0.50975 0.30651 0.55767 0.0
C1557 C 0.56092 0.35278 0.59594 0.0
C1558 C 0.56712 0.32993 0.58494 0.0
H1559 H 0.53185 0.37588 0.60375 0.0
H1560 H 0.57496 0.36538 0.60736 0.0
C1561 C 0.54871 0.31376 0.57034 0.0
C1562 C 0.13881 0.75333 0.94737 0.0
C1563 C 0.15765 0.74736 0.96499 0.0
H1564 H 0.1002 0.7478 0.93343 0.0
C1565 C 0.15176 0.7288 0.98084 0.0
H1566 H 0.14278 0.76721 0.93456 0.0
C1567 C 0.12742 0.71728 0.97983 0.0
C1568 C 0.10831 0.72418 0.96309 0.0
H1569 H 0.16568 0.72382 0.99477 0.0
H1570 H 0.1235 0.70329 0.99254 0.0
C1571 C 0.11442 0.74195 0.9465 0.0
C1572 C 0.888 0.20803 0.49679 0.0
C1573 C 0.88793 0.19289 0.47417 0.0
H1574 H 0.90925 0.23418 0.52451 0.0
C1575 C 0.91052 0.19101 0.46328 0.0
H1576 H 0.8709 0.20964 0.50573 0.0
C1577 C 0.93241 0.20501 0.47403 0.0
C1578 C 0.93222 0.22104 0.49598 0.0
H1579 H 0.91104 0.17966 0.44578 0.0
H1580 H 0.94937 0.20387 0.46475 0.0
C1581 C 0.90997 0.22188 0.50766 0.0
C1582 C 0.46871 0.68256 0.95678 0.0
C1583 C 0.48376 0.70105 0.94677 0.0
H1584 H 0.43245 0.66248 0.95549 0.0
C1585 C 0.47311 0.71407 0.9277 0.0
H1586 H 0.47637 0.67238 0.97164 0.0
C1587 C 0.44806 0.70853 0.9186 0.0
C1588 C 0.43306 0.68987 0.92838 0.0
H1589 H 0.48428 0.72824 0.91942 0.0
H1590 H 0.44043 0.71883 0.90382 0.0
C1591 C 0.44355 0.67709 0.94774 0.0
C1592 C 0.57114 0.51448 0.3172 0.0
C1593 C 0.56397 0.51302 0.34154 0.0
H1594 H 0.58123 0.53825 0.28922 0.0
C1595 C 0.55812 0.5349 0.35511 0.0
H1596 H 0.5761 0.49813 0.30632 0.0
C1597 C 0.56112 0.55799 0.34519 0.0
C1598 C 0.57017 0.55948 0.32167 0.0
H1599 H 0.55232 0.53433 0.3738 0.0
H1600 H 0.558 0.57481 0.35655 0.0
C1601 C 0.57424 0.53747 0.30741 0.0
C1602 C 0.94581 0.13504 0.75653 0.0
C1603 C 0.96394 0.15375 0.7513 0.0
H1604 H 0.93224 0.09631 0.75125 0.0
C1605 C 0.9813 0.14747 0.73434 0.0
H1606 H 0.9319 0.1393 0.7692 0.0
C1607 C 0.98119 0.12293 0.72371 0.0
C1608 C 0.96388 0.10398 0.72992 0.0
H1609 H 0.99567 0.16128 0.73 0.0
H1610 H 0.99503 0.11872 0.71095 0.0
C1611 C 0.94582 0.11042 0.74602 0.0
C1612 C 0.49342 0.88591 0.20444 0.0
C1613 C 0.47113 0.88606 0.18887 0.0
H1614 H 0.52144 0.90716 0.23027 0.0
C1615 C 0.46109 0.90891 0.18594 0.0
H1616 H 0.50172 0.8686 0.20685 0.0
C1617 C 0.47239 0.93093 0.19928 0.0
C1618 C 0.49405 0.9306 0.21569 0.0
H1619 H 0.44387 0.90962 0.17421 0.0
H1620 H 0.46379 0.94816 0.1973 0.0
C1621 C 0.50484 0.90799 0.21765 0.0
C1622 C 0.96509 0.4606 0.70588 0.0
C1623 C 0.95449 0.4793 0.69303 0.0
H1624 H 0.96269 0.422 0.71266 0.0
C1625 C 0.93365 0.47252 0.6755 0.0
H1626 H 0.98136 0.46517 0.71926 0.0
C1627 C 0.92315 0.44777 0.67152 0.0
C1628 C 0.9332 0.42925 0.68502 0.0
H1629 H 0.92491 0.48647 0.66542 0.0
H1630 H 0.90694 0.4432 0.65806 0.0
C1631 C 0.95456 0.43583 0.70192 0.0
C1632 C 0.68332 0.4036 0.49223 0.0
C1633 C 0.66192 0.41556 0.49725 0.0
H1634 H 0.70856 0.39361 0.46561 0.0
C1635 C 0.64942 0.42705 0.47801 0.0
H1636 H 0.6932 0.3942 0.50644 0.0
C1637 C 0.65794 0.42616 0.45416 0.0
C1638 C 0.67913 0.41378 0.44911 0.0
H1639 H 0.63297 0.43656 0.48133 0.0
H1640 H 0.6475 0.43452 0.43952 0.0
C1641 C 0.6919 0.4029 0.4686 0.0
C1642 C 0.823 0.55605 0.10113 0.0
C1643 C 0.82131 0.54346 0.12274 0.0
H1644 H 0.81071 0.5566 0.06233 0.0
C1645 C 0.80722 0.5201 0.12096 0.0
H1646 H 0.8336 0.57413 0.10195 0.0
C1647 C 0.79407 0.51012 0.09834 0.0
C1648 C 0.79465 0.52335 0.07704 0.0
H1649 H 0.80581 0.50985 0.13726 0.0
H1650 H 0.78247 0.49263 0.09787 0.0
C1651 C 0.80974 0.54611 0.07851 0.0
C1652 C 0.29259 0.06944 0.52635 0.0
C1653 C 0.30462 0.04985 0.51522 0.0
H1654 H 0.28758 0.09182 0.55996 0.0
C1655 C 0.32095 0.03727 0.53033 0.0
H1656 H 0.28008 0.07964 0.51518 0.0
C1657 C 0.32531 0.04432 0.55603 0.0
C1658 C 0.31359 0.06422 0.56704 0.0
H1659 H 0.33029 0.02194 0.5223 0.0
H1660 H 0.33831 0.0346 0.56718 0.0
C1661 C 0.29704 0.07656 0.55196 0.0
C1662 C 0.26387 0.06469 0.8851 0.0
C1663 C 0.26877 0.04824 0.8648 0.0
H1664 H 0.27136 0.07619 0.92419 0.0
C1665 C 0.28708 0.03157 0.86858 0.0
H1666 H 0.25013 0.07801 0.88277 0.0
C1667 C 0.29955 0.03078 0.89229 0.0
C1668 C 0.29396 0.0466 0.91278 0.0
H1669 H 0.29119 0.01851 0.85341 0.0
H1670 H 0.31336 0.01754 0.89462 0.0
C1671 C 0.27626 0.06385 0.90881 0.0
C1672 C 0.48932 0.68762 0.42375 0.0
C1673 C 0.49334 0.66215 0.4205 0.0
H1674 H 0.4624 0.71457 0.42475 0.0
C1675 C 0.47281 0.64415 0.42058 0.0
H1676 H 0.50473 0.70204 0.42476 0.0
C1677 C 0.44863 0.65149 0.42157 0.0
C1678 C 0.44461 0.67685 0.42212 0.0
H1679 H 0.47508 0.62439 0.41802 0.0
H1680 H 0.43292 0.63729 0.41971 0.0
C1681 C 0.46517 0.69488 0.42418 0.0
C1682 C 0.86392 0.28755 0.02678 0.0
C1683 C 0.85751 0.27018 0.04369 0.0
H1684 H 0.89272 0.31171 0.01408 0.0
C1685 C 0.87592 0.26519 0.06224 0.0
H1686 H 0.85036 0.29175 0.01211 0.0
C1687 C 0.90045 0.27616 0.06294 0.0
C1688 C 0.90712 0.29259 0.04526 0.0
H1689 H 0.87156 0.25226 0.07586 0.0
H1690 H 0.91437 0.27093 0.07673 0.0
C1691 C 0.88838 0.29871 0.02764 0.0
C1692 C 0.1156 0.7766 0.54352 0.0
C1693 C 0.1211 0.80237 0.54225 0.0
H1694 H 0.08949 0.74443 0.53348 0.0
C1695 C 0.10439 0.81519 0.52773 0.0
H1696 H 0.12836 0.76595 0.55386 0.0
C1697 C 0.08217 0.80263 0.51564 0.0
C1698 C 0.0763 0.77716 0.51808 0.0
H1699 H 0.10807 0.83505 0.52638 0.0
H1700 H 0.06919 0.81298 0.5052 0.0
C1701 C 0.09343 0.7642 0.53171 0.0
C1702 C 0.53831 0.30037 0.07823 0.0
C1703 C 0.5271 0.31376 0.05977 0.0
H1704 H 0.57125 0.29607 0.10195 0.0
C1705 C 0.54154 0.33321 0.05048 0.0
H1706 H 0.52764 0.28545 0.08596 0.0
C1707 C 0.56658 0.33935 0.05973 0.0
C1708 C 0.57755 0.3263 0.07862 0.0
H1709 H 0.53346 0.34371 0.0361 0.0
H1710 H 0.57713 0.35474 0.05261 0.0
C1711 C 0.56322 0.30659 0.08756 0.0
C1712 C 0.41166 0.46246 0.64454 0.0
C1713 C 0.40066 0.48199 0.65715 0.0
H1714 H 0.41917 0.424 0.64313 0.0
C1715 C 0.38869 0.47729 0.6786 0.0
H1716 H 0.42113 0.46556 0.62801 0.0
C1717 C 0.3878 0.45376 0.68737 0.0
C1718 C 0.3987 0.43414 0.67484 0.0
H1719 H 0.37971 0.49179 0.68858 0.0
H1720 H 0.3787 0.45107 0.7042 0.0
C1721 C 0.4108 0.43877 0.65337 0.0
C1722 C 0.06774 0.87506 0.25623 0.0
C1723 C 0.05024 0.85564 0.26114 0.0
H1724 H 0.08027 0.91397 0.26241 0.0
C1725 C 0.03313 0.8608 0.27872 0.0
H1726 H 0.08149 0.8717 0.24313 0.0
C1727 C 0.03281 0.88497 0.29024 0.0
C1728 C 0.04941 0.90467 0.28429 0.0
H1729 H 0.01923 0.84642 0.28287 0.0
H1730 H 0.01916 0.8883 0.30345 0.0
C1731 C 0.06726 0.89929 0.26755 0.0
C1732 C 0.56074 0.10213 0.82099 0.0
C1733 C 0.54996 0.12488 0.82048 0.0
H1734 H 0.5585 0.06363 0.80659 0.0
C1735 C 0.52699 0.12554 0.8062 0.0
H1736 H 0.57849 0.10112 0.83174 0.0
C1737 C 0.51561 0.10417 0.7918 0.0
C1738 C 0.52701 0.08171 0.7913 0.0
H1739 H 0.51813 0.14277 0.80567 0.0
H1740 H 0.49847 0.10556 0.78017 0.0
C1741 C 0.54942 0.08076 0.80646 0.0
C1742 C 0.04073 0.54014 0.32008 0.0
C1743 C 0.05174 0.52354 0.30373 0.0
H1744 H 0.04142 0.57773 0.33703 0.0
C1745 C 0.07202 0.53269 0.29135 0.0
H1746 H 0.02496 0.53363 0.32971 0.0
C1747 C 0.08134 0.55775 0.29549 0.0
C1748 C 0.07058 0.57431 0.31204 0.0
H1749 H 0.08106 0.52032 0.27883 0.0
H1750 H 0.09711 0.56419 0.2858 0.0
C1751 C 0.04997 0.56537 0.32408 0.0
C1752 C 0.48097 0.66281 0.3122 0.0
C1753 C 0.47224 0.64496 0.32773 0.0
H1754 H 0.51282 0.68162 0.29818 0.0
C1755 C 0.48988 0.63233 0.34134 0.0
H1756 H 0.46804 0.67318 0.30174 0.0
C1757 C 0.51548 0.63753 0.33958 0.0
C1758 C 0.52408 0.6555 0.32425 0.0
H1759 H 0.48393 0.61819 0.35321 0.0
H1760 H 0.52861 0.62746 0.35018 0.0
C1761 C 0.5066 0.66789 0.31037 0.0
C1762 C 0.01719 0.33735 0.68878 0.0
C1763 C 0.02727 0.35006 0.71187 0.0
H1764 H 0.98427 0.32056 0.66621 0.0
C1765 C 0.01062 0.35741 0.72928 0.0
H1766 H 0.02924 0.3312 0.67492 0.0
C1767 C 0.98486 0.35105 0.72429 0.0
C1768 C 0.9751 0.33737 0.70173 0.0
H1769 H 0.01746 0.36784 0.74696 0.0
H1770 H 0.9726 0.35642 0.73831 0.0
C1771 C 0.99142 0.33109 0.68379 0.0
C1772 C 0.8454 0.02968 0.68154 0.0
C1773 C 0.83297 0.00568 0.67513 0.0
H1774 H 0.88048 0.05241 0.68573 0.0
C1775 C 0.84713 0.98568 0.66905 0.0
H1776 H 0.83502 0.0455 0.68613 0.0
C1777 C 0.87303 0.98971 0.66869 0.0
C1778 C 0.88524 0.01384 0.67417 0.0
H1779 H 0.83814 0.96691 0.66442 0.0
H1780 H 0.88349 0.97403 0.66376 0.0
C1781 C 0.87132 0.0337 0.6811 0.0
C1782 C 0.64459 0.02857 0.24986 0.0
C1783 C 0.65632 0.00826 0.25864 0.0
H1784 H 0.6101 0.04298 0.23804 0.0
C1785 C 0.64127 0.98626 0.26169 0.0
H1786 H 0.65549 0.04561 0.24669 0.0
C1787 C 0.61531 0.98473 0.25645 0.0
C1788 C 0.60362 0.00534 0.24854 0.0
H1789 H 0.64944 0.9703 0.26867 0.0
H1790 H 0.60435 0.96746 0.25885 0.0
C1791 C 0.61858 0.02708 0.24484 0.0
C1792 C 0.33591 0.47537 0.62562 0.0
C1793 C 0.33051 0.46015 0.64475 0.0
H1794 H 0.34008 0.51238 0.61433 0.0
C1795 C 0.32381 0.47161 0.66739 0.0
H1796 H 0.34081 0.46738 0.60778 0.0
C1797 C 0.32278 0.49753 0.6708 0.0
C1798 C 0.32864 0.51261 0.65177 0.0
H1799 H 0.32003 0.46069 0.68278 0.0
H1800 H 0.31778 0.50583 0.68848 0.0
C1801 C 0.33517 0.50124 0.62918 0.0
C1802 C 0.2809 0.63965 0.03754 0.0
C1803 C 0.26846 0.65407 0.02073 0.0
H1804 H 0.28514 0.60315 0.04928 0.0
C1805 C 0.24997 0.64185 1.00267 0.0
H1806 H 0.29553 0.64823 0.05143 0.0
C1807 C 0.24413 0.61596 1.00147 0.0
C1808 C 0.25649 0.60175 0.0184 0.0
H1809 H 0.23984 0.6523 0.98956 0.0
H1810 H 0.22988 0.607 0.98736 0.0
C1811 C 0.27508 0.61379 0.03628 0.0
C1812 C 0.71989 0.01847 0.35029 0.0
C1813 C 0.70215 0.03527 0.3444 0.0
H1814 H 0.72881 0.98041 0.34793 0.0
C1815 C 0.67861 0.02549 0.33251 0.0
H1816 H 0.73799 0.0251 0.35998 0.0
C1817 C 0.67333 0.9998 0.32595 0.0
C1818 C 0.69147 0.98332 0.33093 0.0
H1819 H 0.66453 0.03771 0.32732 0.0
H1820 H 0.65526 0.99282 0.31641 0.0
C1821 C 0.71463 0.99281 0.34357 0.0
C1822 C 0.68757 0.85239 0.02886 0.0
C1823 C 0.67967 0.83895 0.00559 0.0
H1824 H 0.69257 0.88826 0.05022 0.0
C1825 C 0.67169 0.85209 0.9854 0.0
H1826 H 0.69368 0.8428 0.0448 0.0
C1827 C 0.67091 0.87797 0.98859 0.0
C1828 C 0.67788 0.89119 0.01207 0.0
H1829 H 0.66591 0.84233 0.96713 0.0
H1830 H 0.66453 0.88763 0.97279 0.0
C1831 C 0.68673 0.8783 0.03204 0.0
C1832 C 0.63504 0.35008 0.49948 0.0
C1833 C 0.6527 0.34337 0.48291 0.0
H1834 H 0.62602 0.3545 0.53739 0.0
C1835 C 0.67506 0.33479 0.49297 0.0
H1836 H 0.61742 0.35642 0.49273 0.0
C1837 C 0.67936 0.33263 0.51865 0.0
C1838 C 0.66174 0.3396 0.535 0.0
H1839 H 0.68947 0.33001 0.48112 0.0
H1840 H 0.69658 0.32572 0.52579 0.0
C1841 C 0.6397 0.34857 0.52517 0.0
C1842 C 0.99819 0.24702 0.64333 0.0
C1843 C 0.01536 0.26652 0.65513 0.0
H1844 H 0.9827 0.22662 0.60867 0.0
C1845 C 0.03019 0.28065 0.64017 0.0
H1846 H 0.98656 0.23567 0.6542 0.0
C1847 C 0.02802 0.27534 0.61419 0.0
C1848 C 0.01115 0.25566 0.60255 0.0
H1849 H 0.04325 0.29611 0.64847 0.0
H1850 H 0.03955 0.28661 0.60314 0.0
C1851 C 0.99605 0.24172 0.6173 0.0
C1852 C 0.33767 0.67768 0.01793 0.0
C1853 C 0.35017 0.70057 0.02882 0.0
H1854 H 0.322 0.65571 0.98421 0.0
C1855 C 0.35795 0.71844 0.01282 0.0
H1856 H 0.33125 0.66345 0.02942 0.0
C1857 C 0.35244 0.71397 0.98689 0.0
C1858 C 0.33911 0.69153 0.9763 0.0
H1859 H 0.36825 0.73599 0.02026 0.0
H1860 H 0.35831 0.72824 0.97513 0.0
C1861 C 0.33223 0.67322 0.992 0.0
C1862 C 0.99901 0.68192 0.84191 0.0
C1863 C 0.01995 0.67692 0.82912 0.0
H1864 H 0.9831 0.68382 0.8771 0.0
C1865 C 0.04179 0.67124 0.84284 0.0
H1866 H 0.98186 0.68616 0.83185 0.0
C1867 C 0.0424 0.66983 0.86864 0.0
C1868 C 0.0211 0.67373 0.88115 0.0
H1869 H 0.05833 0.66766 0.83356 0.0
H1870 H 0.05936 0.66521 0.87877 0.0
C1871 C 0.99961 0.68036 0.8677 0.0
C1872 C 0.52354 0.3519 0.70947 0.0
C1873 C 0.53195 0.37266 0.69734 0.0
H1874 H 0.49298 0.33275 0.72519 0.0
C1875 C 0.5149 0.38993 0.69101 0.0
H1876 H 0.5361 0.33808 0.71427 0.0
C1877 C 0.49024 0.38686 0.6973 0.0
C1878 C 0.48201 0.36635 0.70979 0.0
H1879 H 0.52081 0.40622 0.68186 0.0
H1880 H 0.47775 0.40085 0.69293 0.0
C1881 C 0.49883 0.34875 0.71556 0.0
C1882 C 0.98026 0.65556 0.34722 0.0
C1883 C 0.96944 0.65603 0.32257 0.0
H1884 H 0.01389 0.66054 0.37221 0.0
C1885 C 0.98523 0.66118 0.30382 0.0
H1886 H 0.9687 0.65213 0.36223 0.0
C1887 C 0.01103 0.6661 0.30961 0.0
C1888 C 0.02179 0.66565 0.33422 0.0
H1889 H 0.97769 0.66136 0.28457 0.0
H1890 H 0.02257 0.67038 0.29479 0.0
C1891 C 0.00613 0.66046 0.35298 0.0
C1892 C 0.1636 0.98686 0.29058 0.0
C1893 C 0.17737 0.00568 0.30716 0.0
H1894 H 0.12725 0.97105 0.27447 0.0
C1895 C 0.16447 0.02364 0.31995 0.0
H1896 H 0.17296 0.97256 0.28075 0.0
C1897 C 0.13843 0.02274 0.31633 0.0
C1898 C 0.12476 1.00401 0.29972 0.0
H1899 H 0.17453 0.03849 0.33269 0.0
H1900 H 0.12893 0.03668 0.32651 0.0
C1901 C 0.13751 0.98593 0.28704 0.0
C1902 C 0.37874 0.06325 0.73842 0.0
C1903 C 0.36354 0.04047 0.73523 0.0
H1904 H 0.41571 0.08152 0.73898 0.0
C1905 C 0.37494 0.01804 0.73214 0.0
H1906 H 0.37056 0.08081 0.74106 0.0
C1907 C 0.40076 0.01848 0.73085 0.0
C1908 C 0.41569 0.0413 0.73283 0.0
H1909 H 0.36378 1.00018 0.72933 0.0
H1910 H 0.40897 1.00103 0.72736 0.0
C1911 C 0.40456 0.06366 0.73727 0.0
C1912 C 0.70872 0.53193 0.35397 0.0
C1913 C 0.69597 0.54193 0.37365 0.0
H1914 H 0.72504 0.50014 0.33791 0.0
C1915 C 0.68952 0.52663 0.39237 0.0
H1916 H 0.71365 0.54313 0.33909 0.0
C1917 C 0.69603 0.50205 0.39165 0.0
C1918 C 0.70887 0.49214 0.37207 0.0
H1919 H 0.67992 0.53384 0.40789 0.0
H1920 H 0.69137 0.49089 0.40661 0.0
C1921 C 0.71506 0.50728 0.35318 0.0
C1922 C 0.72129 0.37803 0.99013 0.0
C1923 C 0.73579 0.3625 1.00387 0.0
H1924 H 0.70958 0.41476 0.98741 0.0
C1925 C 0.75162 0.37348 0.02483 0.0
H1926 H 0.7089 0.37047 0.97392 0.0
C1927 C 0.75186 0.39893 0.03257 0.0
C1928 C 0.7362 0.41392 0.01962 0.0
H1929 H 0.7636 0.36236 0.0355 0.0
H1930 H 0.76379 0.4068 0.04907 0.0
C1931 C 0.7215 0.40344 0.99792 0.0
C1932 C 0.32459 0.96825 0.67139 0.0
C1933 C 0.32521 0.95448 0.64813 0.0
H1934 H 0.3312 1.00398 0.69249 0.0
C1935 C 0.33344 0.96695 0.62806 0.0
H1936 H 0.31786 0.95933 0.68708 0.0
C1937 C 0.34128 0.99255 0.63135 0.0
C1938 C 0.34104 0.00613 0.65475 0.0
H1939 H 0.33414 0.95685 0.60991 0.0
H1940 H 0.34766 1.00173 0.61566 0.0
C1941 C 0.33221 0.99382 0.67455 0.0
C1942 C 0.3269 0.16137 0.9896 0.0
C1943 C 0.32102 0.17651 0.01044 0.0
H1944 H 0.32838 0.12423 0.97266 0.0
C1945 C 0.31199 0.16501 0.03073 0.0
H1946 H 0.3335 0.16967 0.97352 0.0
C1947 C 0.30928 0.13895 0.03032 0.0
C1948 C 0.31563 0.12385 0.00971 0.0
H1949 H 0.30741 0.17616 0.0471 0.0
H1950 H 0.30225 0.13056 0.04618 0.0
C1951 C 0.32399 0.13533 0.98913 0.0
C1952 C 0.37267 0.70653 0.52238 0.0
C1953 C 0.36955 0.68235 0.53019 0.0
H1954 H 0.36881 0.72952 0.49207 0.0
C1955 C 0.3608 0.66226 0.51223 0.0
H1956 H 0.37959 0.72236 0.53564 0.0
C1957 C 0.35474 0.66639 0.48722 0.0
C1958 C 0.35758 0.69063 0.47958 0.0
H1959 H 0.35783 0.64346 0.51763 0.0
H1960 H 0.34733 0.65071 0.47395 0.0
C1961 C 0.36671 0.71061 0.49739 0.0
C1962 C 0.02711 0.74664 0.36672 0.0
C1963 C 0.00591 0.73292 0.35349 0.0
H1964 H 0.04913 0.75543 0.402 0.0
C1965 C 0.98931 0.71901 0.36697 0.0
H1966 H 0.03997 0.7581 0.35716 0.0
C1967 C 0.99459 0.71758 0.39262 0.0
C1968 C 0.01656 0.73003 0.40535 0.0
H1969 H 0.97282 0.70817 0.35756 0.0
H1970 H 0.98197 0.706 0.40233 0.0
C1971 C 0.03234 0.74524 0.39239 0.0
C1972 C 0.66444 0.34306 0.99177 0.0
C1973 C 0.66108 0.31809 0.98113 0.0
H1974 H 0.67336 0.36808 0.02514 0.0
C1975 C 0.6627 0.29893 0.99716 0.0
H1976 H 0.66281 0.35834 0.98017 0.0
C1977 C 0.66821 0.30458 0.02296 0.0
C1978 C 0.67218 0.3295 0.03337 0.0
H1979 H 0.66059 0.27949 0.98974 0.0
H1980 H 0.66995 0.28942 0.03471 0.0
C1981 C 0.67019 0.34869 0.01755 0.0
C1982 C 0.02179 0.32895 0.16488 0.0
C1983 C 1.00368 0.31599 0.17744 0.0
H1984 H 0.03583 0.3352 0.12969 0.0
C1985 C 0.98548 0.29892 0.16341 0.0
H1986 H 0.03619 0.34208 0.17516 0.0
C1987 C 0.98537 0.29499 0.13739 0.0
C1988 C 1.00366 0.30778 0.125 0.0
H1989 H 0.97106 0.28893 0.17248 0.0
H1990 H 0.97099 0.28198 0.12692 0.0
C1991 C 0.02173 0.32494 0.13892 0.0
loop_
_geom_bond_atom_site_label_1
_geom_bond_atom_site_label_2
_geom_bond_distance
_geom_bond_site_symmetry_2
_ccdc_geom_bond_type
C0 C1 1.264 . S
C0 C5 1.479 . S
C0 C10 1.465 . S
C1 C0 1.264 . S
C1 C3 1.339 . S
C1 H28 0.931 . S
C2 C3 1.395 . S
C2 C4 1.320 . S
C3 C1 1.339 . S
C3 C2 1.395 . S
C3 H29 0.929 . S
C4 C2 1.320 . S
C4 C5 1.405 . S
C4 H30 0.930 . S
C5 C0 1.479 . S
C5 C4 1.405 . S
C5 H31 0.931 . S
U6 O7 2.454 . S
U6 O8 2.458 . S
U6 C9 2.984 . S
U6 C10 2.847 . S
U6 C23 2.882 . S
U6 O24 2.441 . S
U6 O25 2.420 . S
U6 O26 2.455 . S
U6 O27 2.449 . S
O7 U6 2.454 . S
O7 C9 1.353 . S
O8 U6 2.458 . S
O8 C9 1.286 . S
C9 U6 2.984 . S
C9 O7 1.353 . S
C9 O8 1.286 . S
C9 C11 1.363 . S
C10 C0 1.465 . S
C10 U6 2.847 . S
C10 O24 1.249 . S
C10 O25 1.202 . S
C11 C9 1.363 . S
C11 C13 1.408 . S
C11 C16 1.342 . S
C12 C13 1.310 . S
C12 C15 1.461 . S
C12 H32 0.932 . S
C13 C11 1.408 . S
C13 C12 1.310 . S
C13 H33 0.930 . S
C14 C15 1.474 . S
C14 C16 1.285 . S
C14 H34 0.929 . S
C15 C12 1.461 . S
C15 C14 1.474 . S
C16 C11 1.342 . S
C16 C14 1.285 . S
C16 H35 0.930 . S
C17 C20 1.424 . S
C17 C22 1.245 . S
C17 C23 1.428 . S
C18 C21 1.260 . S
C18 C22 1.477 . S
C18 H36 0.932 . S
C19 C20 1.384 . S
C19 C21 1.479 . S
C19 H37 0.929 . S
C20 C17 1.424 . S
C20 C19 1.384 . S
C20 H38 0.928 . S
C21 C18 1.260 . S
C21 C19 1.479 . S
C22 C17 1.245 . S
C22 C18 1.477 . S
C22 H39 0.932 . S
C23 U6 2.882 . S
C23 C17 1.428 . S
C23 O26 1.301 . S
C23 O27 1.282 . S
O24 U6 2.441 . S
O24 C10 1.249 . S
O25 U6 2.420 . S
O25 C10 1.202 . S
O26 U6 2.455 . S
O26 C23 1.301 . S
O27 U6 2.449 . S
O27 C23 1.282 . S
H28 C1 0.931 . S
H29 C3 0.929 . S
H30 C4 0.930 . S
H31 C5 0.931 . S
H32 C12 0.932 . S
H33 C13 0.930 . S
H34 C14 0.929 . S
H35 C16 0.930 . S
H36 C18 0.932 . S
H37 C19 0.929 . S
H38 C20 0.928 . S
H39 C22 0.932 . S
C40 C41 1.264 . S
C40 C45 1.479 . S
C40 C50 1.465 . S
C41 C40 1.264 . S
C41 C43 1.339 . S
C41 H68 0.931 . S
C42 C43 1.395 . S
C42 C44 1.320 . S
C43 C41 1.339 . S
C43 C42 1.395 . S
C43 H69 0.929 . S
C44 C42 1.320 . S
C44 C45 1.405 . S
C44 H70 0.930 . S
C45 C40 1.479 . S
C45 C44 1.405 . S
C45 H71 0.931 . S
U46 O47 2.454 . S
U46 O48 2.458 . S
U46 C49 2.984 . S
U46 C50 2.847 . S
U46 C63 2.882 . S
U46 O64 2.441 . S
U46 O65 2.420 . S
U46 O66 2.455 . S
U46 O67 2.449 . S
O47 U46 2.454 . S
O47 C49 1.353 . S
O48 U46 2.458 . S
O48 C49 1.286 . S
C49 U46 2.984 . S
C49 O47 1.353 . S
C49 O48 1.286 . S
C49 C51 1.363 . S
C50 C40 1.465 . S
C50 U46 2.847 . S
C50 O64 1.249 . S
C50 O65 1.202 . S
C51 C49 1.363 . S
C51 C53 1.408 . S
C51 C56 1.342 . S
C52 C53 1.310 . S
C52 C55 1.461 . S
C52 H72 0.932 . S
C53 C51 1.408 . S
C53 C52 1.310 . S
C53 H73 0.930 . S
C54 C55 1.474 . S
C54 C56 1.285 . S
C54 H74 0.929 . S
C55 C52 1.461 . S
C55 C54 1.474 . S
C56 C51 1.342 . S
C56 C54 1.285 . S
C56 H75 0.930 . S
C57 C60 1.424 . S
C57 C62 1.245 . S
C57 C63 1.428 . S
C58 C61 1.260 . S
C58 C62 1.477 . S
C58 H76 0.932 . S
C59 C60 1.384 . S
C59 C61 1.479 . S
C59 H77 0.929 . S
C60 C57 1.424 . S
C60 C59 1.384 . S
C60 H78 0.928 . S
C61 C58 1.260 . S
C61 C59 1.479 . S
C62 C57 1.245 . S
C62 C58 1.477 . S
C62 H79 0.932 . S
C63 U46 2.882 . S
C63 C57 1.428 . S
C63 O66 1.301 . S
C63 O67 1.282 . S
O64 U46 2.441 . S
O64 C50 1.249 . S
O65 U46 2.420 . S
O65 C50 1.202 . S
O66 U46 2.455 . S
O66 C63 1.301 . S
O67 U46 2.449 . S
O67 C63 1.282 . S
H68 C41 0.931 . S
H69 C43 0.929 . S
H70 C44 0.930 . S
H71 C45 0.931 . S
H72 C52 0.932 . S
H73 C53 0.930 . S
H74 C54 0.929 . S
H75 C56 0.930 . S
H76 C58 0.932 . S
H77 C59 0.929 . S
H78 C60 0.928 . S
H79 C62 0.932 . S
C80 C81 1.264 . S
C80 C85 1.479 . S
C80 C90 1.465 . S
C81 C80 1.264 . S
C81 C83 1.339 . S
C81 H108 0.931 . S
C82 C83 1.395 . S
C82 C84 1.320 . S
C83 C81 1.339 . S
C83 C82 1.395 . S
C83 H109 0.929 . S
C84 C82 1.320 . S
C84 C85 1.405 . S
C84 H110 0.925 1_565 S
C85 C80 1.479 . S
C85 C84 1.405 . S
C85 H111 0.931 . S
U86 O87 2.454 . S
U86 O88 2.458 . S
U86 C89 2.984 . S
U86 C90 2.847 . S
U86 C103 2.882 . S
U86 O104 2.441 . S
U86 O105 2.420 . S
U86 O106 2.455 . S
U86 O107 2.449 . S
O87 U86 2.454 . S
O87 C89 1.353 . S
O88 U86 2.458 . S
O88 C89 1.286 . S
C89 U86 2.984 . S
C89 O87 1.353 . S
C89 O88 1.286 . S
C89 C91 1.363 . S
C90 C80 1.465 . S
C90 U86 2.847 . S
C90 O104 1.249 . S
C90 O105 1.202 . S
C91 C89 1.363 . S
C91 C93 1.408 . S
C91 C96 1.342 . S
C92 C93 1.310 . S
C92 C95 1.462 . S
C92 H112 0.932 . S
C93 C91 1.408 . S
C93 C92 1.310 . S
C93 H113 0.930 . S
C94 C95 1.473 1_545 S
C94 C96 1.284 1_545 S
C94 H114 0.932 . S
C95 C92 1.462 . S
C95 C94 1.473 1_565 S
C96 C91 1.342 . S
C96 C94 1.284 1_565 S
C96 H115 0.936 . S
C97 C100 1.424 . S
C97 C102 1.245 . S
C97 C103 1.428 . S
C98 C101 1.260 . S
C98 C102 1.477 . S
C98 H116 0.932 . S
C99 C100 1.384 . S
C99 C101 1.479 . S
C99 H117 0.929 . S
C100 C97 1.424 . S
C100 C99 1.384 . S
C100 H118 0.928 . S
C101 C98 1.260 . S
C101 C99 1.479 . S
C102 C97 1.245 . S
C102 C98 1.477 . S
C102 H119 0.932 . S
C103 U86 2.882 . S
C103 C97 1.428 . S
C103 O106 1.301 . S
C103 O107 1.282 . S
O104 U86 2.441 . S
O104 C90 1.249 . S
O105 U86 2.420 . S
O105 C90 1.202 . S
O106 U86 2.455 . S
O106 C103 1.301 . S
O107 U86 2.449 . S
O107 C103 1.282 . S
H108 C81 0.931 . S
H109 C83 0.929 . S
H110 C84 0.925 1_545 S
H111 C85 0.931 . S
H112 C92 0.932 . S
H113 C93 0.930 . S
H114 C94 0.932 . S
H115 C96 0.936 . S
H116 C98 0.932 . S
H117 C99 0.929 . S
H118 C100 0.928 . S
H119 C102 0.932 . S
C120 C121 1.264 . S
C120 C125 1.479 . S
C120 C130 1.465 . S
C121 C120 1.264 . S
C121 C123 1.339 . S
C121 H148 0.931 . S
C122 C123 1.395 . S
C122 C124 1.320 . S
C123 C121 1.339 . S
C123 C122 1.395 . S
C123 H149 0.929 . S
C124 C122 1.320 . S
C124 C125 1.405 . S
C124 H150 0.930 . S
C125 C120 1.479 . S
C125 C124 1.405 . S
C125 H151 0.931 . S
U126 O127 2.454 . S
U126 O128 2.458 . S
U126 C129 2.984 . S
U126 C130 2.847 . S
U126 C143 2.882 . S
U126 O144 2.441 . S
U126 O145 2.420 . S
U126 O146 2.455 . S
U126 O147 2.449 . S
O127 U126 2.454 . S
O127 C129 1.353 . S
O128 U126 2.458 . S
O128 C129 1.286 . S
C129 U126 2.984 . S
C129 O127 1.353 . S
C129 O128 1.286 . S
C129 C131 1.363 . S
C130 C120 1.465 . S
C130 U126 2.847 . S
C130 O144 1.249 . S
C130 O145 1.202 . S
C131 C129 1.363 . S
C131 C133 1.408 . S
C131 C136 1.342 . S
C132 C133 1.310 . S
C132 C135 1.461 . S
C132 H152 0.932 . S
C133 C131 1.408 . S
C133 C132 1.310 . S
C133 H153 0.930 . S
C134 C135 1.474 . S
C134 C136 1.285 . S
C134 H154 0.929 . S
C135 C132 1.461 . S
C135 C134 1.474 . S
C136 C131 1.342 . S
C136 C134 1.285 . S
C136 H155 0.930 . S
C137 C140 1.424 . S
C137 C142 1.245 . S
C137 C143 1.428 1_565 S
C138 C141 1.260 . S
C138 C142 1.477 . S
C138 H156 0.932 . S
C139 C140 1.384 . S
C139 C141 1.479 . S
C139 H157 0.929 . S
C140 C137 1.424 . S
C140 C139 1.384 . S
C140 H158 0.928 . S
C141 C138 1.260 . S
C141 C139 1.479 . S
C142 C137 1.245 . S
C142 C138 1.477 . S
C142 H159 0.932 . S
C143 U126 2.882 . S
C143 C137 1.428 1_545 S
C143 O146 1.301 . S
C143 O147 1.282 . S
O144 U126 2.441 . S
O144 C130 1.249 . S
O145 U126 2.420 . S
O145 C130 1.202 . S
O146 U126 2.455 . S
O146 C143 1.301 . S
O147 U126 2.449 . S
O147 C143 1.282 . S
H148 C121 0.931 . S
H149 C123 0.929 . S
H150 C124 0.930 . S
H151 C125 0.931 . S
H152 C132 0.932 . S
H153 C133 0.930 . S
H154 C134 0.929 . S
H155 C136 0.930 . S
H156 C138 0.932 . S
H157 C139 0.929 . S
H158 C140 0.928 . S
H159 C142 0.932 . S
C160 C161 1.264 . S
C160 C165 1.479 . S
C160 C170 1.465 . S
C161 C160 1.264 . S
C161 C163 1.339 . S
C161 H188 0.931 . S
C162 C163 1.395 . S
C162 C164 1.320 . S
C163 C161 1.339 . S
C163 C162 1.395 . S
C163 H189 0.929 . S
C164 C162 1.320 . S
C164 C165 1.405 . S
C164 H190 0.930 . S
C165 C160 1.479 . S
C165 C164 1.405 . S
C165 H191 0.931 . S
U166 O167 2.454 . S
U166 O168 2.458 . S
U166 C169 2.984 . S
U166 C170 2.847 . S
U166 C183 2.882 . S
U166 O184 2.441 . S
U166 O185 2.420 . S
U166 O186 2.455 . S
U166 O187 2.449 . S
O167 U166 2.454 . S
O167 C169 1.353 . S
O168 U166 2.458 . S
O168 C169 1.286 . S
C169 U166 2.984 . S
C169 O167 1.353 . S
C169 O168 1.286 . S
C169 C171 1.363 . S
C170 C160 1.465 . S
C170 U166 2.847 . S
C170 O184 1.249 . S
C170 O185 1.202 . S
C171 C169 1.363 . S
C171 C173 1.408 . S
C171 C176 1.342 . S
C172 C173 1.310 . S
C172 C175 1.461 . S
C172 H192 0.932 . S
C173 C171 1.408 . S
C173 C172 1.310 . S
C173 H193 0.930 . S
C174 C175 1.474 . S
C174 C176 1.285 . S
C174 H194 0.929 . S
C175 C172 1.461 . S
C175 C174 1.474 . S
C176 C171 1.342 . S
C176 C174 1.285 . S
C176 H195 0.930 . S
C177 C180 1.424 . S
C177 C182 1.245 . S
C177 C183 1.428 . S
C178 C181 1.260 . S
C178 C182 1.477 . S
C178 H196 0.932 . S
C179 C180 1.384 . S
C179 C181 1.479 . S
C179 H197 0.929 . S
C180 C177 1.424 . S
C180 C179 1.384 . S
C180 H198 0.928 . S
C181 C178 1.260 . S
C181 C179 1.479 . S
C182 C177 1.245 . S
C182 C178 1.477 . S
C182 H199 0.932 . S
C183 U166 2.882 . S
C183 C177 1.428 . S
C183 O186 1.301 . S
C183 O187 1.282 . S
O184 U166 2.441 . S
O184 C170 1.249 . S
O185 U166 2.420 . S
O185 C170 1.202 . S
O186 U166 2.455 . S
O186 C183 1.301 . S
O187 U166 2.449 . S
O187 C183 1.282 . S
H188 C161 0.931 . S
H189 C163 0.929 . S
H190 C164 0.930 . S
H191 C165 0.931 . S
H192 C172 0.932 . S
H193 C173 0.930 . S
H194 C174 0.929 . S
H195 C176 0.930 . S
H196 C178 0.932 . S
H197 C179 0.929 . S
H198 C180 0.928 . S
H199 C182 0.932 . S
C200 C201 1.264 . S
C200 C205 1.479 . S
C200 C210 1.465 . S
C201 C200 1.264 . S
C201 C203 1.339 . S
C201 H228 0.931 . S
C202 C203 1.395 . S
C202 C204 1.320 . S
C203 C201 1.339 . S
C203 C202 1.395 . S
C203 H229 0.929 . S
C204 C202 1.320 . S
C204 C205 1.405 . S
C204 H230 0.930 . S
C205 C200 1.479 . S
C205 C204 1.405 . S
C205 H231 0.931 . S
U206 O207 2.454 . S
U206 O208 2.458 . S
U206 C209 2.984 . S
U206 C210 2.847 . S
U206 C223 2.882 . S
U206 O224 2.441 . S
U206 O225 2.420 . S
U206 O226 2.455 . S
U206 O227 2.449 . S
O207 U206 2.454 . S
O207 C209 1.353 . S
O208 U206 2.458 . S
O208 C209 1.286 . S
C209 U206 2.984 . S
C209 O207 1.353 . S
C209 O208 1.286 . S
C209 C211 1.363 . S
C210 C200 1.465 . S
C210 U206 2.847 . S
C210 O224 1.249 . S
C210 O225 1.202 . S
C211 C209 1.363 . S
C211 C213 1.408 . S
C211 C216 1.342 . S
C212 C213 1.310 . S
C212 C215 1.461 . S
C212 H232 0.932 . S
C213 C211 1.408 . S
C213 C212 1.310 . S
C213 H233 0.930 . S
C214 C215 1.474 . S
C214 C216 1.285 . S
C214 H234 0.929 . S
C215 C212 1.461 . S
C215 C214 1.474 . S
C216 C211 1.342 . S
C216 C214 1.285 . S
C216 H235 0.930 . S
C217 C220 1.424 . S
C217 C222 1.245 . S
C217 C223 1.428 1_556 S
C218 C221 1.260 . S
C218 C222 1.477 . S
C218 H236 0.932 . S
C219 C220 1.384 . S
C219 C221 1.479 . S
C219 H237 0.929 . S
C220 C217 1.424 . S
C220 C219 1.384 . S
C220 H238 0.928 . S
C221 C218 1.260 . S
C221 C219 1.479 . S
C222 C217 1.245 . S
C222 C218 1.477 . S
C222 H239 0.932 . S
C223 U206 2.882 . S
C223 C217 1.428 1_554 S
C223 O226 1.301 . S
C223 O227 1.282 . S
O224 U206 2.441 . S
O224 C210 1.249 . S
O225 U206 2.420 . S
O225 C210 1.202 . S
O226 U206 2.455 . S
O226 C223 1.301 . S
O227 U206 2.449 . S
O227 C223 1.282 . S
H228 C201 0.931 . S
H229 C203 0.929 . S
H230 C204 0.930 . S
H231 C205 0.931 . S
H232 C212 0.932 . S
H233 C213 0.930 . S
H234 C214 0.929 . S
H235 C216 0.930 . S
H236 C218 0.932 . S
H237 C219 0.929 . S
H238 C220 0.928 . S
H239 C222 0.932 . S
C240 C241 1.264 . S
C240 C245 1.479 . S
C240 C250 1.465 . S
C241 C240 1.264 . S
C241 C243 1.339 . S
C241 H268 0.931 . S
C242 C243 1.395 . S
C242 C244 1.320 . S
C243 C241 1.339 . S
C243 C242 1.395 . S
C243 H269 0.929 . S
C244 C242 1.320 . S
C244 C245 1.405 . S
C244 H270 0.930 . S
C245 C240 1.479 . S
C245 C244 1.405 . S
C245 H271 0.931 . S
U246 O247 2.454 . S
U246 O248 2.458 . S
U246 C249 2.984 . S
U246 C250 2.847 . S
U246 C263 2.882 . S
U246 O264 2.441 . S
U246 O265 2.420 . S
U246 O266 2.455 . S
U246 O267 2.449 . S
O247 U246 2.454 . S
O247 C249 1.353 . S
O248 U246 2.458 . S
O248 C249 1.286 . S
C249 U246 2.984 . S
C249 O247 1.353 . S
C249 O248 1.286 . S
C249 C251 1.363 . S
C250 C240 1.465 . S
C250 U246 2.847 . S
C250 O264 1.249 . S
C250 O265 1.202 . S
C251 C249 1.363 . S
C251 C253 1.408 . S
C251 C256 1.342 . S
C252 C253 1.310 . S
C252 C255 1.461 . S
C252 H272 0.932 . S
C253 C251 1.408 . S
C253 C252 1.310 . S
C253 H273 0.930 . S
C254 C255 1.474 . S
C254 C256 1.285 . S
C254 H274 0.929 . S
C255 C252 1.461 . S
C255 C254 1.474 . S
C256 C251 1.342 . S
C256 C254 1.285 . S
C256 H275 0.930 . S
C257 C260 1.424 . S
C257 C262 1.245 . S
C257 C263 1.428 . S
C258 C261 1.260 . S
C258 C262 1.477 . S
C258 H276 0.932 . S
C259 C260 1.384 . S
C259 C261 1.479 . S
C259 H277 0.929 . S
C260 C257 1.424 . S
C260 C259 1.384 . S
C260 H278 0.928 . S
C261 C258 1.260 . S
C261 C259 1.479 . S
C262 C257 1.245 . S
C262 C258 1.477 . S
C262 H279 0.932 . S
C263 U246 2.882 . S
C263 C257 1.428 . S
C263 O266 1.301 . S
C263 O267 1.282 . S
O264 U246 2.441 . S
O264 C250 1.249 . S
O265 U246 2.420 . S
O265 C250 1.202 . S
O266 U246 2.455 . S
O266 C263 1.301 . S
O267 U246 2.449 . S
O267 C263 1.282 . S
H268 C241 0.931 . S
H269 C243 0.929 . S
H270 C244 0.930 . S
H271 C245 0.931 . S
H272 C252 0.932 . S
H273 C253 0.930 . S
H274 C254 0.929 . S
H275 C256 0.930 . S
H276 C258 0.932 . S
H277 C259 0.929 . S
H278 C260 0.928 . S
H279 C262 0.932 . S
C280 C281 1.264 . S
C280 C285 1.479 . S
C280 C290 1.465 . S
C281 C280 1.264 . S
C281 C283 1.339 . S
C281 H308 0.931 . S
C282 C283 1.395 . S
C282 C284 1.320 . S
C283 C281 1.339 . S
C283 C282 1.395 . S
C283 H309 0.929 . S
C284 C282 1.320 . S
C284 C285 1.405 . S
C284 H310 0.925 1_556 S
C285 C280 1.479 . S
C285 C284 1.405 . S
C285 H311 0.931 . S
U286 O287 2.454 . S
U286 O288 2.458 . S
U286 C289 2.984 . S
U286 C290 2.847 . S
U286 C303 2.882 . S
U286 O304 2.441 . S
U286 O305 2.420 . S
U286 O306 2.455 . S
U286 O307 2.449 . S
O287 U286 2.454 . S
O287 C289 1.353 . S
O288 U286 2.458 . S
O288 C289 1.286 . S
C289 U286 2.984 . S
C289 O287 1.353 . S
C289 O288 1.286 . S
C289 C291 1.363 . S
C290 C280 1.465 . S
C290 U286 2.847 . S
C290 O304 1.249 . S
C290 O305 1.202 . S
C291 C289 1.363 . S
C291 C293 1.408 . S
C291 C296 1.342 . S
C292 C293 1.310 . S
C292 C295 1.462 . S
C292 H312 0.932 . S
C293 C291 1.408 . S
C293 C292 1.310 . S
C293 H313 0.930 . S
C294 C295 1.473 1_554 S
C294 C296 1.284 1_554 S
C294 H314 0.932 . S
C295 C292 1.462 . S
C295 C294 1.473 1_556 S
C296 C291 1.342 . S
C296 C294 1.284 1_556 S
C296 H315 0.936 . S
C297 C300 1.424 . S
C297 C302 1.245 . S
C297 C303 1.428 . S
C298 C301 1.260 . S
C298 C302 1.477 . S
C298 H316 0.932 . S
C299 C300 1.384 . S
C299 C301 1.479 . S
C299 H317 0.929 . S
C300 C297 1.424 . S
C300 C299 1.384 . S
C300 H318 0.928 . S
C301 C298 1.260 . S
C301 C299 1.479 . S
C302 C297 1.245 . S
C302 C298 1.477 . S
C302 H319 0.932 . S
C303 U286 2.882 . S
C303 C297 1.428 . S
C303 O306 1.301 . S
C303 O307 1.282 . S
O304 U286 2.441 . S
O304 C290 1.249 . S
O305 U286 2.420 . S
O305 C290 1.202 . S
O306 U286 2.455 . S
O306 C303 1.301 . S
O307 U286 2.449 . S
O307 C303 1.282 . S
H308 C281 0.931 . S
H309 C283 0.929 . S
H310 C284 0.925 1_554 S
H311 C285 0.931 . S
H312 C292 0.932 . S
H313 C293 0.930 . S
H314 C294 0.932 . S
H315 C296 0.936 . S
H316 C298 0.932 . S
H317 C299 0.929 . S
H318 C300 0.928 . S
H319 C302 0.932 . S
C320 C321 1.264 . S
C320 C325 1.479 . S
C320 C330 1.465 . S
C321 C320 1.264 . S
C321 C323 1.339 . S
C321 H348 0.931 . S
C322 C323 1.395 . S
C322 C324 1.320 . S
C323 C321 1.339 . S
C323 C322 1.395 . S
C323 H349 0.929 . S
C324 C322 1.320 . S
C324 C325 1.405 . S
C324 H350 0.930 . S
C325 C320 1.479 . S
C325 C324 1.405 . S
C325 H351 0.931 . S
U326 O327 2.454 . S
U326 O328 2.458 . S
U326 C329 2.984 . S
U326 C330 2.847 . S
U326 C343 2.882 . S
U326 O344 2.441 . S
U326 O345 2.420 . S
U326 O346 2.455 . S
U326 O347 2.449 . S
O327 U326 2.454 . S
O327 C329 1.353 . S
O328 U326 2.458 . S
O328 C329 1.286 . S
C329 U326 2.984 . S
C329 O327 1.353 . S
C329 O328 1.286 . S
C329 C331 1.363 . S
C330 C320 1.465 . S
C330 U326 2.847 . S
C330 O344 1.249 . S
C330 O345 1.202 . S
C331 C329 1.363 . S
C331 C333 1.408 . S
C331 C336 1.342 . S
C332 C333 1.310 . S
C332 C335 1.461 . S
C332 H352 0.932 . S
C333 C331 1.408 . S
C333 C332 1.310 . S
C333 H353 0.930 . S
C334 C335 1.474 . S
C334 C336 1.285 . S
C334 H354 0.929 . S
C335 C332 1.461 . S
C335 C334 1.474 . S
C336 C331 1.342 . S
C336 C334 1.285 . S
C336 H355 0.930 . S
C337 C340 1.424 . S
C337 C342 1.245 . S
C337 C343 1.428 . S
C338 C341 1.260 . S
C338 C342 1.477 . S
C338 H356 0.932 . S
C339 C340 1.384 . S
C339 C341 1.479 . S
C339 H357 0.929 . S
C340 C337 1.424 . S
C340 C339 1.384 . S
C340 H358 0.928 . S
C341 C338 1.260 . S
C341 C339 1.479 . S
C342 C337 1.245 . S
C342 C338 1.477 . S
C342 H359 0.932 . S
C343 U326 2.882 . S
C343 C337 1.428 . S
C343 O346 1.301 . S
C343 O347 1.282 . S
O344 U326 2.441 . S
O344 C330 1.249 . S
O345 U326 2.420 . S
O345 C330 1.202 . S
O346 U326 2.455 . S
O346 C343 1.301 . S
O347 U326 2.449 . S
O347 C343 1.282 . S
H348 C321 0.931 . S
H349 C323 0.929 . S
H350 C324 0.930 . S
H351 C325 0.931 . S
H352 C332 0.932 . S
H353 C333 0.930 . S
H354 C334 0.929 . S
H355 C336 0.930 . S
H356 C338 0.932 . S
H357 C339 0.929 . S
H358 C340 0.928 . S
H359 C342 0.932 . S
C360 C361 1.264 . S
C360 C365 1.479 . S
C360 C370 1.465 . S
C361 C360 1.264 . S
C361 C363 1.339 . S
C361 H388 0.931 . S
C362 C363 1.395 . S
C362 C364 1.320 . S
C363 C361 1.339 . S
C363 C362 1.395 . S
C363 H389 0.929 . S
C364 C362 1.320 . S
C364 C365 1.405 . S
C364 H390 0.930 . S
C365 C360 1.479 . S
C365 C364 1.405 . S
C365 H391 0.931 . S
U366 O367 2.454 . S
U366 O368 2.458 . S
U366 C369 2.984 . S
U366 C370 2.847 . S
U366 C383 2.882 . S
U366 O384 2.441 . S
U366 O385 2.420 . S
U366 O386 2.455 . S
U366 O387 2.449 . S
O367 U366 2.454 . S
O367 C369 1.353 . S
O368 U366 2.458 . S
O368 C369 1.286 . S
C369 U366 2.984 . S
C369 O367 1.353 . S
C369 O368 1.286 . S
C369 C371 1.363 . S
C370 C360 1.465 . S
C370 U366 2.847 . S
C370 O384 1.249 . S
C370 O385 1.202 . S
C371 C369 1.363 . S
C371 C373 1.408 . S
C371 C376 1.342 . S
C372 C373 1.310 . S
C372 C375 1.461 . S
C372 H392 0.932 . S
C373 C371 1.408 . S
C373 C372 1.310 . S
C373 H393 0.930 . S
C374 C375 1.474 . S
C374 C376 1.285 . S
C374 H394 0.929 . S
C375 C372 1.461 . S
C375 C374 1.474 . S
C376 C371 1.342 . S
C376 C374 1.285 . S
C376 H395 0.930 . S
C377 C380 1.424 . S
C377 C382 1.245 . S
C377 C383 1.428 1_655 S
C378 C381 1.260 . S
C378 C382 1.477 . S
C378 H396 0.932 . S
C379 C380 1.384 . S
C379 C381 1.479 . S
C379 H397 0.929 . S
C380 C377 1.424 . S
C380 C379 1.384 . S
C380 H398 0.928 . S
C381 C378 1.260 . S
C381 C379 1.479 . S
C382 C377 1.245 . S
C382 C378 1.477 . S
C382 H399 0.932 . S
C383 U366 2.882 . S
C383 C377 1.428 1_455 S
C383 O386 1.301 . S
C383 O387 1.282 . S
O384 U366 2.441 . S
O384 C370 1.249 . S
O385 U366 2.420 . S
O385 C370 1.202 . S
O386 U366 2.455 . S
O386 C383 1.301 . S
O387 U366 2.449 . S
O387 C383 1.282 . S
H388 C361 0.931 . S
H389 C363 0.929 . S
H390 C364 0.930 . S
H391 C365 0.931 . S
H392 C372 0.932 . S
H393 C373 0.930 . S
H394 C374 0.929 . S
H395 C376 0.930 . S
H396 C378 0.932 . S
H397 C379 0.929 . S
H398 C380 0.928 . S
H399 C382 0.932 . S
C400 C401 1.264 . S
C400 C405 1.479 . S
C400 C410 1.465 . S
C401 C400 1.264 . S
C401 C403 1.339 . S
C401 H428 0.931 . S
C402 C403 1.395 . S
C402 C404 1.320 . S
C403 C401 1.339 . S
C403 C402 1.395 . S
C403 H429 0.929 . S
C404 C402 1.320 . S
C404 C405 1.405 . S
C404 H430 0.930 . S
C405 C400 1.479 . S
C405 C404 1.405 . S
C405 H431 0.931 . S
U406 O407 2.454 . S
U406 O408 2.458 . S
U406 C409 2.984 . S
U406 C410 2.847 . S
U406 C423 2.882 . S
U406 O424 2.441 . S
U406 O425 2.420 . S
U406 O426 2.455 . S
U406 O427 2.449 . S
O407 U406 2.454 . S
O407 C409 1.353 . S
O408 U406 2.458 . S
O408 C409 1.286 . S
C409 U406 2.984 . S
C409 O407 1.353 . S
C409 O408 1.286 . S
C409 C411 1.363 . S
C410 C400 1.465 . S
C410 U406 2.847 . S
C410 O424 1.249 . S
C410 O425 1.202 . S
C411 C409 1.363 . S
C411 C413 1.408 . S
C411 C416 1.342 . S
C412 C413 1.310 . S
C412 C415 1.461 . S
C412 H432 0.932 . S
C413 C411 1.408 . S
C413 C412 1.310 . S
C413 H433 0.930 . S
C414 C415 1.474 . S
C414 C416 1.285 . S
C414 H434 0.929 . S
C415 C412 1.461 . S
C415 C414 1.474 . S
C416 C411 1.342 . S
C416 C414 1.285 . S
C416 H435 0.930 . S
C417 C420 1.424 . S
C417 C422 1.245 . S
C417 C423 1.428 . S
C418 C421 1.260 . S
C418 C422 1.477 . S
C418 H436 0.932 . S
C419 C420 1.384 . S
C419 C421 1.479 . S
C419 H437 0.929 . S
C420 C417 1.424 . S
C420 C419 1.384 . S
C420 H438 0.928 . S
C421 C418 1.260 . S
C421 C419 1.479 . S
C422 C417 1.245 . S
C422 C418 1.477 . S
C422 H439 0.932 . S
C423 U406 2.882 . S
C423 C417 1.428 . S
C423 O426 1.301 . S
C423 O427 1.282 . S
O424 U406 2.441 . S
O424 C410 1.249 . S
O425 U406 2.420 . S
O425 C410 1.202 . S
O426 U406 2.455 . S
O426 C423 1.301 . S
O427 U406 2.449 . S
O427 C423 1.282 . S
H428 C401 0.931 . S
H429 C403 0.929 . S
H430 C404 0.930 . S
H431 C405 0.931 . S
H432 C412 0.932 . S
H433 C413 0.930 . S
H434 C414 0.929 . S
H435 C416 0.930 . S
H436 C418 0.932 . S
H437 C419 0.929 . S
H438 C420 0.928 . S
H439 C422 0.932 . S
C440 C441 1.264 . S
C440 C445 1.479 . S
C440 C450 1.465 . S
C441 C440 1.264 . S
C441 C443 1.339 . S
C441 H468 0.931 . S
C442 C443 1.395 . S
C442 C444 1.320 . S
C443 C441 1.339 . S
C443 C442 1.395 . S
C443 H469 0.929 . S
C444 C442 1.320 . S
C444 C445 1.405 . S
C444 H470 0.925 1_655 S
C445 C440 1.479 . S
C445 C444 1.405 . S
C445 H471 0.931 . S
U446 O447 2.454 . S
U446 O448 2.458 . S
U446 C449 2.984 . S
U446 C450 2.847 . S
U446 C463 2.882 . S
U446 O464 2.441 . S
U446 O465 2.420 . S
U446 O466 2.455 . S
U446 O467 2.449 . S
O447 U446 2.454 . S
O447 C449 1.353 . S
O448 U446 2.458 . S
O448 C449 1.286 . S
C449 U446 2.984 . S
C449 O447 1.353 . S
C449 O448 1.286 . S
C449 C451 1.363 . S
C450 C440 1.465 . S
C450 U446 2.847 . S
C450 O464 1.249 . S
C450 O465 1.202 . S
C451 C449 1.363 . S
C451 C453 1.408 . S
C451 C456 1.342 . S
C452 C453 1.310 . S
C452 C455 1.462 . S
C452 H472 0.932 . S
C453 C451 1.408 . S
C453 C452 1.310 . S
C453 H473 0.930 . S
C454 C455 1.473 1_455 S
C454 C456 1.284 1_455 S
C454 H474 0.932 . S
C455 C452 1.462 . S
C455 C454 1.473 1_655 S
C456 C451 1.342 . S
C456 C454 1.284 1_655 S
C456 H475 0.936 . S
C457 C460 1.424 . S
C457 C462 1.245 . S
C457 C463 1.428 . S
C458 C461 1.260 . S
C458 C462 1.477 . S
C458 H476 0.932 . S
C459 C460 1.384 . S
C459 C461 1.479 . S
C459 H477 0.929 . S
C460 C457 1.424 . S
C460 C459 1.384 . S
C460 H478 0.928 . S
C461 C458 1.260 . S
C461 C459 1.479 . S
C462 C457 1.245 . S
C462 C458 1.477 . S
C462 H479 0.932 . S
C463 U446 2.882 . S
C463 C457 1.428 . S
C463 O466 1.301 . S
C463 O467 1.282 . S
O464 U446 2.441 . S
O464 C450 1.249 . S
O465 U446 2.420 . S
O465 C450 1.202 . S
O466 U446 2.455 . S
O466 C463 1.301 . S
O467 U446 2.449 . S
O467 C463 1.282 . S
H468 C441 0.931 . S
H469 C443 0.929 . S
H470 C444 0.925 1_455 S
H471 C445 0.931 . S
H472 C452 0.932 . S
H473 C453 0.930 . S
H474 C454 0.932 . S
H475 C456 0.936 . S
H476 C458 0.932 . S
H477 C459 0.929 . S
H478 C460 0.928 . S
H479 C462 0.932 . S
C480 C481 1.264 . S
C480 C485 1.479 . S
C480 C490 1.465 . S
C481 C480 1.264 . S
C481 C483 1.339 . S
C481 H508 0.931 . S
C482 C483 1.395 . S
C482 C484 1.320 . S
C483 C481 1.339 . S
C483 C482 1.395 . S
C483 H509 0.929 . S
C484 C482 1.320 . S
C484 C485 1.405 . S
C484 H510 0.930 . S
C485 C480 1.479 . S
C485 C484 1.405 . S
C485 H511 0.931 . S
U486 O487 2.454 . S
U486 O488 2.458 . S
U486 C489 2.984 . S
U486 C490 2.847 . S
U486 C503 2.882 . S
U486 O504 2.441 . S
U486 O505 2.420 . S
U486 O506 2.455 . S
U486 O507 2.449 . S
O487 U486 2.454 . S
O487 C489 1.353 . S
O488 U486 2.458 . S
O488 C489 1.286 . S
C489 U486 2.984 . S
C489 O487 1.353 . S
C489 O488 1.286 . S
C489 C491 1.363 . S
C490 C480 1.465 . S
C490 U486 2.847 . S
C490 O504 1.249 . S
C490 O505 1.202 . S
C491 C489 1.363 . S
C491 C493 1.408 . S
C491 C496 1.342 . S
C492 C493 1.310 . S
C492 C495 1.461 . S
C492 H512 0.932 . S
C493 C491 1.408 . S
C493 C492 1.310 . S
C493 H513 0.930 . S
C494 C495 1.474 . S
C494 C496 1.285 . S
C494 H514 0.929 . S
C495 C492 1.461 . S
C495 C494 1.474 . S
C496 C491 1.342 . S
C496 C494 1.285 . S
C496 H515 0.930 . S
C497 C500 1.424 . S
C497 C502 1.245 . S
C497 C503 1.428 . S
C498 C501 1.260 . S
C498 C502 1.477 . S
C498 H516 0.932 . S
C499 C500 1.384 . S
C499 C501 1.479 . S
C499 H517 0.929 . S
C500 C497 1.424 . S
C500 C499 1.384 . S
C500 H518 0.928 . S
C501 C498 1.260 . S
C501 C499 1.479 . S
C502 C497 1.245 . S
C502 C498 1.477 . S
C502 H519 0.932 . S
C503 U486 2.882 . S
C503 C497 1.428 . S
C503 O506 1.301 . S
C503 O507 1.282 . S
O504 U486 2.441 . S
O504 C490 1.249 . S
O505 U486 2.420 . S
O505 C490 1.202 . S
O506 U486 2.455 . S
O506 C503 1.301 . S
O507 U486 2.449 . S
O507 C503 1.282 . S
H508 C481 0.931 . S
H509 C483 0.929 . S
H510 C484 0.930 . S
H511 C485 0.931 . S
H512 C492 0.932 . S
H513 C493 0.930 . S
H514 C494 0.929 . S
H515 C496 0.930 . S
H516 C498 0.932 . S
H517 C499 0.929 . S
H518 C500 0.928 . S
H519 C502 0.932 . S
C520 C521 1.264 . S
C520 C525 1.479 . S
C520 C530 1.465 . S
C521 C520 1.264 . S
C521 C523 1.339 . S
C521 H548 0.931 . S
C522 C523 1.395 . S
C522 C524 1.320 . S
C523 C521 1.339 . S
C523 C522 1.395 . S
C523 H549 0.929 . S
C524 C522 1.320 . S
C524 C525 1.405 . S
C524 H550 0.930 . S
C525 C520 1.479 . S
C525 C524 1.405 . S
C525 H551 0.931 . S
U526 O527 2.454 . S
U526 O528 2.458 . S
U526 C529 2.984 . S
U526 C530 2.847 . S
U526 C543 2.882 . S
U526 O544 2.441 . S
U526 O545 2.420 . S
U526 O546 2.455 . S
U526 O547 2.449 . S
O527 U526 2.454 . S
O527 C529 1.353 . S
O528 U526 2.458 . S
O528 C529 1.286 . S
C529 U526 2.984 . S
C529 O527 1.353 . S
C529 O528 1.286 . S
C529 C531 1.363 . S
C530 C520 1.465 . S
C530 U526 2.847 . S
C530 O544 1.249 . S
C530 O545 1.202 . S
C531 C529 1.363 . S
C531 C533 1.408 . S
C531 C536 1.342 . S
C532 C533 1.310 . S
C532 C535 1.461 . S
C532 H552 0.932 . S
C533 C531 1.408 . S
C533 C532 1.310 . S
C533 H553 0.930 . S
C534 C535 1.474 . S
C534 C536 1.285 . S
C534 H554 0.929 . S
C535 C532 1.461 . S
C535 C534 1.474 . S
C536 C531 1.342 . S
C536 C534 1.285 . S
C536 H555 0.930 . S
C537 C540 1.424 . S
C537 C542 1.245 . S
C537 C543 1.428 . S
C538 C541 1.260 . S
C538 C542 1.477 . S
C538 H556 0.932 . S
C539 C540 1.384 . S
C539 C541 1.479 . S
C539 H557 0.929 . S
C540 C537 1.424 . S
C540 C539 1.384 . S
C540 H558 0.928 . S
C541 C538 1.260 . S
C541 C539 1.479 . S
C542 C537 1.245 . S
C542 C538 1.477 . S
C542 H559 0.932 . S
C543 U526 2.882 . S
C543 C537 1.428 . S
C543 O546 1.301 . S
C543 O547 1.282 . S
O544 U526 2.441 . S
O544 C530 1.249 . S
O545 U526 2.420 . S
O545 C530 1.202 . S
O546 U526 2.455 . S
O546 C543 1.301 . S
O547 U526 2.449 . S
O547 C543 1.282 . S
H548 C521 0.931 . S
H549 C523 0.929 . S
H550 C524 0.930 . S
H551 C525 0.931 . S
H552 C532 0.932 . S
H553 C533 0.930 . S
H554 C534 0.929 . S
H555 C536 0.930 . S
H556 C538 0.932 . S
H557 C539 0.929 . S
H558 C540 0.928 . S
H559 C542 0.932 . S
C560 C561 1.264 . S
C560 C565 1.479 . S
C560 C570 1.465 . S
C561 C560 1.264 . S
C561 C563 1.339 . S
C561 H588 0.931 . S
C562 C563 1.395 . S
C562 C564 1.320 . S
C563 C561 1.339 . S
C563 C562 1.395 . S
C563 H589 0.929 . S
C564 C562 1.320 . S
C564 C565 1.405 . S
C564 H590 0.919 1_565 S
C565 C560 1.479 . S
C565 C564 1.405 . S
C565 H591 0.931 . S
U566 O567 2.454 . S
U566 O568 2.458 . S
U566 C569 2.984 . S
U566 C570 2.847 . S
U566 C583 2.882 . S
U566 O584 2.441 . S
U566 O585 2.420 . S
U566 O586 2.455 . S
U566 O587 2.449 . S
O567 U566 2.454 . S
O567 C569 1.353 . S
O568 U566 2.458 . S
O568 C569 1.286 . S
C569 U566 2.984 . S
C569 O567 1.353 . S
C569 O568 1.286 . S
C569 C571 1.363 . S
C570 C560 1.465 . S
C570 U566 2.847 . S
C570 O584 1.249 . S
C570 O585 1.202 . S
C571 C569 1.363 . S
C571 C573 1.408 . S
C571 C576 1.342 . S
C572 C573 1.310 . S
C572 C575 1.460 . S
C572 H592 0.932 . S
C573 C571 1.408 . S
C573 C572 1.310 . S
C573 H593 0.930 . S
C574 C575 1.475 1_545 S
C574 C576 1.285 1_545 S
C574 H594 0.930 . S
C575 C572 1.460 . S
C575 C574 1.475 1_565 S
C576 C571 1.342 . S
C576 C574 1.285 1_565 S
C576 H595 0.930 . S
C577 C580 1.424 . S
C577 C582 1.245 . S
C577 C583 1.428 . S
C578 C581 1.260 . S
C578 C582 1.477 . S
C578 H596 0.932 . S
C579 C580 1.384 . S
C579 C581 1.479 . S
C579 H597 0.929 . S
C580 C577 1.424 . S
C580 C579 1.384 . S
C580 H598 0.928 . S
C581 C578 1.260 . S
C581 C579 1.479 . S
C582 C577 1.245 . S
C582 C578 1.477 . S
C582 H599 0.932 . S
C583 U566 2.882 . S
C583 C577 1.428 . S
C583 O586 1.301 . S
C583 O587 1.282 . S
O584 U566 2.441 . S
O584 C570 1.249 . S
O585 U566 2.420 . S
O585 C570 1.202 . S
O586 U566 2.455 . S
O586 C583 1.301 . S
O587 U566 2.449 . S
O587 C583 1.282 . S
H588 C561 0.931 . S
H589 C563 0.929 . S
H590 C564 0.919 1_545 S
H591 C565 0.931 . S
H592 C572 0.932 . S
H593 C573 0.930 . S
H594 C574 0.930 . S
H595 C576 0.930 . S
H596 C578 0.932 . S
H597 C579 0.929 . S
H598 C580 0.928 . S
H599 C582 0.932 . S
C600 C601 1.264 . S
C600 C605 1.479 1_545 S
C600 C610 1.465 . S
C601 C600 1.264 . S
C601 C603 1.339 1_545 S
C601 H628 0.931 . S
C602 C603 1.395 . S
C602 C604 1.320 . S
C603 C601 1.339 1_565 S
C603 C602 1.395 . S
C603 H629 0.929 1_565 S
C604 C602 1.320 . S
C604 C605 1.405 . S
C604 H630 0.930 . S
C605 C600 1.479 1_565 S
C605 C604 1.405 . S
C605 H631 0.931 . S
U606 O607 2.454 1_545 S
U606 O608 2.458 . S
U606 C609 2.987 . S
U606 C610 2.847 . S
U606 C623 2.882 . S
U606 O624 2.441 . S
U606 O625 2.420 . S
U606 O626 2.455 . S
U606 O627 2.449 . S
O607 U606 2.454 1_565 S
O607 C609 1.351 1_565 S
O608 U606 2.458 . S
O608 C609 1.290 . S
C609 U606 2.987 . S
C609 O607 1.351 1_545 S
C609 O608 1.290 . S
C609 C611 1.361 1_545 S
C610 C600 1.465 . S
C610 U606 2.847 . S
C610 O624 1.249 . S
C610 O625 1.202 . S
C611 C609 1.361 1_565 S
C611 C613 1.408 . S
C611 C616 1.342 . S
C612 C613 1.310 . S
C612 C615 1.461 . S
C612 H632 0.932 . S
C613 C611 1.408 . S
C613 C612 1.310 . S
C613 H633 0.930 . S
C614 C615 1.474 . S
C614 C616 1.285 . S
C614 H634 0.929 . S
C615 C612 1.461 . S
C615 C614 1.474 . S
C616 C611 1.342 . S
C616 C614 1.285 . S
C616 H635 0.933 . S
C617 C620 1.424 . S
C617 C622 1.245 . S
C617 C623 1.428 . S
C618 C621 1.260 . S
C618 C622 1.477 . S
C618 H636 0.932 . S
C619 C620 1.384 . S
C619 C621 1.479 . S
C619 H637 0.929 . S
C620 C617 1.424 . S
C620 C619 1.384 . S
C620 H638 0.928 . S
C621 C618 1.260 . S
C621 C619 1.479 . S
C622 C617 1.245 . S
C622 C618 1.477 . S
C622 H639 0.932 . S
C623 U606 2.882 . S
C623 C617 1.428 . S
C623 O626 1.301 . S
C623 O627 1.282 . S
O624 U606 2.441 . S
O624 C610 1.249 . S
O625 U606 2.420 . S
O625 C610 1.202 . S
O626 U606 2.455 . S
O626 C623 1.301 . S
O627 U606 2.449 . S
O627 C623 1.282 . S
H628 C601 0.931 . S
H629 C603 0.929 1_545 S
H630 C604 0.930 . S
H631 C605 0.931 . S
H632 C612 0.932 . S
H633 C613 0.930 . S
H634 C614 0.929 . S
H635 C616 0.933 . S
H636 C618 0.932 . S
H637 C619 0.929 . S
H638 C620 0.928 . S
H639 C622 0.932 . S
C640 C641 1.264 . S
C640 C645 1.479 . S
C640 C650 1.465 . S
C641 C640 1.264 . S
C641 C643 1.339 . S
C641 H668 0.931 . S
C642 C643 1.395 . S
C642 C644 1.320 . S
C643 C641 1.339 . S
C643 C642 1.395 . S
C643 H669 0.929 . S
C644 C642 1.320 . S
C644 C645 1.405 . S
C644 H670 0.930 . S
C645 C640 1.479 . S
C645 C644 1.405 . S
C645 H671 0.931 . S
U646 O647 2.454 . S
U646 O648 2.458 . S
U646 C649 2.984 . S
U646 C650 2.847 . S
U646 C663 2.882 . S
U646 O664 2.441 . S
U646 O665 2.420 . S
U646 O666 2.455 . S
U646 O667 2.449 . S
O647 U646 2.454 . S
O647 C649 1.353 . S
O648 U646 2.458 . S
O648 C649 1.286 . S
C649 U646 2.984 . S
C649 O647 1.353 . S
C649 O648 1.286 . S
C649 C651 1.363 . S
C650 C640 1.465 . S
C650 U646 2.847 . S
C650 O664 1.249 . S
C650 O665 1.202 . S
C651 C649 1.363 . S
C651 C653 1.408 . S
C651 C656 1.342 . S
C652 C653 1.310 . S
C652 C655 1.461 . S
C652 H672 0.932 . S
C653 C651 1.408 . S
C653 C652 1.310 . S
C653 H673 0.930 . S
C654 C655 1.474 . S
C654 C656 1.285 . S
C654 H674 0.929 . S
C655 C652 1.461 . S
C655 C654 1.474 . S
C656 C651 1.342 . S
C656 C654 1.285 . S
C656 H675 0.930 . S
C657 C660 1.424 . S
C657 C662 1.245 . S
C657 C663 1.428 . S
C658 C661 1.260 . S
C658 C662 1.477 . S
C658 H676 0.932 . S
C659 C660 1.384 . S
C659 C661 1.479 . S
C659 H677 0.929 . S
C660 C657 1.424 . S
C660 C659 1.384 . S
C660 H678 0.928 . S
C661 C658 1.260 . S
C661 C659 1.479 . S
C662 C657 1.245 . S
C662 C658 1.477 . S
C662 H679 0.932 . S
C663 U646 2.882 . S
C663 C657 1.428 . S
C663 O666 1.301 . S
C663 O667 1.282 . S
O664 U646 2.441 . S
O664 C650 1.249 . S
O665 U646 2.420 . S
O665 C650 1.202 . S
O666 U646 2.455 . S
O666 C663 1.301 . S
O667 U646 2.449 . S
O667 C663 1.282 . S
H668 C641 0.931 . S
H669 C643 0.929 . S
H670 C644 0.930 . S
H671 C645 0.931 . S
H672 C652 0.932 . S
H673 C653 0.930 . S
H674 C654 0.929 . S
H675 C656 0.930 . S
H676 C658 0.932 . S
H677 C659 0.929 . S
H678 C660 0.928 . S
H679 C662 0.932 . S
C680 C681 1.264 . S
C680 C685 1.479 1_554 S
C680 C690 1.465 . S
C681 C680 1.264 . S
C681 C683 1.339 1_554 S
C681 H708 0.931 . S
C682 C683 1.395 . S
C682 C684 1.320 . S
C683 C681 1.339 1_556 S
C683 C682 1.395 . S
C683 H709 0.929 1_556 S
C684 C682 1.320 . S
C684 C685 1.405 . S
C684 H710 0.930 . S
C685 C680 1.479 1_556 S
C685 C684 1.405 . S
C685 H711 0.931 . S
U686 O687 2.454 1_554 S
U686 O688 2.458 . S
U686 C689 2.987 . S
U686 C690 2.847 . S
U686 C703 2.882 . S
U686 O704 2.441 . S
U686 O705 2.420 . S
U686 O706 2.455 . S
U686 O707 2.449 . S
O687 U686 2.454 1_556 S
O687 C689 1.351 1_556 S
O688 U686 2.458 . S
O688 C689 1.290 . S
C689 U686 2.987 . S
C689 O687 1.351 1_554 S
C689 O688 1.290 . S
C689 C691 1.361 1_554 S
C690 C680 1.465 . S
C690 U686 2.847 . S
C690 O704 1.249 . S
C690 O705 1.202 . S
C691 C689 1.361 1_556 S
C691 C693 1.408 . S
C691 C696 1.342 . S
C692 C693 1.310 . S
C692 C695 1.461 . S
C692 H712 0.932 . S
C693 C691 1.408 . S
C693 C692 1.310 . S
C693 H713 0.930 . S
C694 C695 1.474 . S
C694 C696 1.285 . S
C694 H714 0.929 . S
C695 C692 1.461 . S
C695 C694 1.474 . S
C696 C691 1.342 . S
C696 C694 1.285 . S
C696 H715 0.933 . S
C697 C700 1.424 . S
C697 C702 1.245 . S
C697 C703 1.428 . S
C698 C701 1.260 . S
C698 C702 1.477 . S
C698 H716 0.932 . S
C699 C700 1.384 . S
C699 C701 1.479 . S
C699 H717 0.929 . S
C700 C697 1.424 . S
C700 C699 1.384 . S
C700 H718 0.928 . S
C701 C698 1.260 . S
C701 C699 1.479 . S
C702 C697 1.245 . S
C702 C698 1.477 . S
C702 H719 0.932 . S
C703 U686 2.882 . S
C703 C697 1.428 . S
C703 O706 1.301 . S
C703 O707 1.282 . S
O704 U686 2.441 . S
O704 C690 1.249 . S
O705 U686 2.420 . S
O705 C690 1.202 . S
O706 U686 2.455 . S
O706 C703 1.301 . S
O707 U686 2.449 . S
O707 C703 1.282 . S
H708 C681 0.931 . S
H709 C683 0.929 1_554 S
H710 C684 0.930 . S
H711 C685 0.931 . S
H712 C692 0.932 . S
H713 C693 0.930 . S
H714 C694 0.929 . S
H715 C696 0.933 . S
H716 C698 0.932 . S
H717 C699 0.929 . S
H718 C700 0.928 . S
H719 C702 0.932 . S
C720 C721 1.264 . S
C720 C725 1.479 . S
C720 C730 1.465 . S
C721 C720 1.264 . S
C721 C723 1.339 . S
C721 H748 0.931 . S
C722 C723 1.395 . S
C722 C724 1.320 . S
C723 C721 1.339 . S
C723 C722 1.395 . S
C723 H749 0.929 . S
C724 C722 1.320 . S
C724 C725 1.405 . S
C724 H750 0.930 . S
C725 C720 1.479 . S
C725 C724 1.405 . S
C725 H751 0.931 . S
U726 O727 2.454 . S
U726 O728 2.458 . S
U726 C729 2.984 . S
U726 C730 2.847 . S
U726 C743 2.882 . S
U726 O744 2.441 . S
U726 O745 2.420 . S
U726 O746 2.455 . S
U726 O747 2.449 . S
O727 U726 2.454 . S
O727 C729 1.353 . S
O728 U726 2.458 . S
O728 C729 1.286 . S
C729 U726 2.984 . S
C729 O727 1.353 . S
C729 O728 1.286 . S
C729 C731 1.363 . S
C730 C720 1.465 . S
C730 U726 2.847 . S
C730 O744 1.249 . S
C730 O745 1.202 . S
C731 C729 1.363 . S
C731 C733 1.408 . S
C731 C736 1.342 . S
C732 C733 1.310 . S
C732 C735 1.461 . S
C732 H752 0.932 . S
C733 C731 1.408 . S
C733 C732 1.310 . S
C733 H753 0.930 . S
C734 C735 1.474 . S
C734 C736 1.285 . S
C734 H754 0.929 . S
C735 C732 1.461 . S
C735 C734 1.474 . S
C736 C731 1.342 . S
C736 C734 1.285 . S
C736 H755 0.930 . S
C737 C740 1.424 . S
C737 C742 1.245 . S
C737 C743 1.428 . S
C738 C741 1.260 . S
C738 C742 1.477 . S
C738 H756 0.932 . S
C739 C740 1.384 . S
C739 C741 1.479 . S
C739 H757 0.929 . S
C740 C737 1.424 . S
C740 C739 1.384 . S
C740 H758 0.928 . S
C741 C738 1.260 . S
C741 C739 1.479 . S
C742 C737 1.245 . S
C742 C738 1.477 . S
C742 H759 0.932 . S
C743 U726 2.882 . S
C743 C737 1.428 . S
C743 O746 1.301 . S
C743 O747 1.282 . S
O744 U726 2.441 . S
O744 C730 1.249 . S
O745 U726 2.420 . S
O745 C730 1.202 . S
O746 U726 2.455 . S
O746 C743 1.301 . S
O747 U726 2.449 . S
O747 C743 1.282 . S
H748 C721 0.931 . S
H749 C723 0.929 . S
H750 C724 0.930 . S
H751 C725 0.931 . S
H752 C732 0.932 . S
H753 C733 0.930 . S
H754 C734 0.929 . S
H755 C736 0.930 . S
H756 C738 0.932 . S
H757 C739 0.929 . S
H758 C740 0.928 . S
H759 C742 0.932 . S
C760 C761 1.264 . S
C760 C765 1.479 . S
C760 C770 1.465 . S
C761 C760 1.264 . S
C761 C763 1.339 . S
C761 H788 0.931 . S
C762 C763 1.395 . S
C762 C764 1.320 . S
C763 C761 1.339 . S
C763 C762 1.395 . S
C763 H789 0.929 . S
C764 C762 1.320 . S
C764 C765 1.405 . S
C764 H790 0.919 1_556 S
C765 C760 1.479 . S
C765 C764 1.405 . S
C765 H791 0.931 . S
U766 O767 2.454 . S
U766 O768 2.458 . S
U766 C769 2.984 . S
U766 C770 2.847 . S
U766 C783 2.882 . S
U766 O784 2.441 . S
U766 O785 2.420 . S
U766 O786 2.455 . S
U766 O787 2.449 . S
O767 U766 2.454 . S
O767 C769 1.353 . S
O768 U766 2.458 . S
O768 C769 1.286 . S
C769 U766 2.984 . S
C769 O767 1.353 . S
C769 O768 1.286 . S
C769 C771 1.363 . S
C770 C760 1.465 . S
C770 U766 2.847 . S
C770 O784 1.249 . S
C770 O785 1.202 . S
C771 C769 1.363 . S
C771 C773 1.408 . S
C771 C776 1.342 . S
C772 C773 1.310 . S
C772 C775 1.460 . S
C772 H792 0.932 . S
C773 C771 1.408 . S
C773 C772 1.310 . S
C773 H793 0.930 . S
C774 C775 1.475 1_554 S
C774 C776 1.285 1_554 S
C774 H794 0.930 . S
C775 C772 1.460 . S
C775 C774 1.475 1_556 S
C776 C771 1.342 . S
C776 C774 1.285 1_556 S
C776 H795 0.930 . S
C777 C780 1.424 . S
C777 C782 1.245 . S
C777 C783 1.428 . S
C778 C781 1.260 . S
C778 C782 1.477 . S
C778 H796 0.932 . S
C779 C780 1.384 . S
C779 C781 1.479 . S
C779 H797 0.929 . S
C780 C777 1.424 . S
C780 C779 1.384 . S
C780 H798 0.928 . S
C781 C778 1.260 . S
C781 C779 1.479 . S
C782 C777 1.245 . S
C782 C778 1.477 . S
C782 H799 0.932 . S
C783 U766 2.882 . S
C783 C777 1.428 . S
C783 O786 1.301 . S
C783 O787 1.282 . S
O784 U766 2.441 . S
O784 C770 1.249 . S
O785 U766 2.420 . S
O785 C770 1.202 . S
O786 U766 2.455 . S
O786 C783 1.301 . S
O787 U766 2.449 . S
O787 C783 1.282 . S
H788 C761 0.931 . S
H789 C763 0.929 . S
H790 C764 0.919 1_554 S
H791 C765 0.931 . S
H792 C772 0.932 . S
H793 C773 0.930 . S
H794 C774 0.930 . S
H795 C776 0.930 . S
H796 C778 0.932 . S
H797 C779 0.929 . S
H798 C780 0.928 . S
H799 C782 0.932 . S
C800 C801 1.264 . S
C800 C805 1.479 . S
C800 C810 1.465 . S
C801 C800 1.264 . S
C801 C803 1.339 . S
C801 H828 0.931 . S
C802 C803 1.395 . S
C802 C804 1.320 . S
C803 C801 1.339 . S
C803 C802 1.395 . S
C803 H829 0.929 . S
C804 C802 1.320 . S
C804 C805 1.405 . S
C804 H830 0.930 . S
C805 C800 1.479 . S
C805 C804 1.405 . S
C805 H831 0.931 . S
U806 O807 2.454 . S
U806 O808 2.458 . S
U806 C809 2.984 . S
U806 C810 2.847 . S
U806 C823 2.882 . S
U806 O824 2.441 . S
U806 O825 2.420 . S
U806 O826 2.455 . S
U806 O827 2.449 . S
O807 U806 2.454 . S
O807 C809 1.353 . S
O808 U806 2.458 . S
O808 C809 1.286 . S
C809 U806 2.984 . S
C809 O807 1.353 . S
C809 O808 1.286 . S
C809 C811 1.363 . S
C810 C800 1.465 . S
C810 U806 2.847 . S
C810 O824 1.249 . S
C810 O825 1.202 . S
C811 C809 1.363 . S
C811 C813 1.408 . S
C811 C816 1.342 . S
C812 C813 1.310 . S
C812 C815 1.461 . S
C812 H832 0.932 . S
C813 C811 1.408 . S
C813 C812 1.310 . S
C813 H833 0.930 . S
C814 C815 1.474 . S
C814 C816 1.285 . S
C814 H834 0.929 . S
C815 C812 1.461 . S
C815 C814 1.474 . S
C816 C811 1.342 . S
C816 C814 1.285 . S
C816 H835 0.930 . S
C817 C820 1.424 . S
C817 C822 1.245 . S
C817 C823 1.428 . S
C818 C821 1.260 . S
C818 C822 1.477 . S
C818 H836 0.932 . S
C819 C820 1.384 . S
C819 C821 1.479 . S
C819 H837 0.929 . S
C820 C817 1.424 . S
C820 C819 1.384 . S
C820 H838 0.928 . S
C821 C818 1.260 . S
C821 C819 1.479 . S
C822 C817 1.245 . S
C822 C818 1.477 . S
C822 H839 0.932 . S
C823 U806 2.882 . S
C823 C817 1.428 . S
C823 O826 1.301 . S
C823 O827 1.282 . S
O824 U806 2.441 . S
O824 C810 1.249 . S
O825 U806 2.420 . S
O825 C810 1.202 . S
O826 U806 2.455 . S
O826 C823 1.301 . S
O827 U806 2.449 . S
O827 C823 1.282 . S
H828 C801 0.931 . S
H829 C803 0.929 . S
H830 C804 0.930 . S
H831 C805 0.931 . S
H832 C812 0.932 . S
H833 C813 0.930 . S
H834 C814 0.929 . S
H835 C816 0.930 . S
H836 C818 0.932 . S
H837 C819 0.929 . S
H838 C820 0.928 . S
H839 C822 0.932 . S
C840 C841 1.264 . S
C840 C845 1.479 1_455 S
C840 C850 1.465 . S
C841 C840 1.264 . S
C841 C843 1.339 1_455 S
C841 H868 0.931 . S
C842 C843 1.395 . S
C842 C844 1.320 . S
C843 C841 1.339 1_655 S
C843 C842 1.395 . S
C843 H869 0.929 1_655 S
C844 C842 1.320 . S
C844 C845 1.405 . S
C844 H870 0.930 . S
C845 C840 1.479 1_655 S
C845 C844 1.405 . S
C845 H871 0.931 . S
U846 O847 2.454 1_455 S
U846 O848 2.458 . S
U846 C849 2.987 . S
U846 C850 2.847 . S
U846 C863 2.882 . S
U846 O864 2.441 . S
U846 O865 2.420 . S
U846 O866 2.455 . S
U846 O867 2.449 . S
O847 U846 2.454 1_655 S
O847 C849 1.351 1_655 S
O848 U846 2.458 . S
O848 C849 1.290 . S
C849 U846 2.987 . S
C849 O847 1.351 1_455 S
C849 O848 1.290 . S
C849 C851 1.361 1_455 S
C850 C840 1.465 . S
C850 U846 2.847 . S
C850 O864 1.249 . S
C850 O865 1.202 . S
C851 C849 1.361 1_655 S
C851 C853 1.408 . S
C851 C856 1.342 . S
C852 C853 1.310 . S
C852 C855 1.461 . S
C852 H872 0.932 . S
C853 C851 1.408 . S
C853 C852 1.310 . S
C853 H873 0.930 . S
C854 C855 1.474 . S
C854 C856 1.285 . S
C854 H874 0.929 . S
C855 C852 1.461 . S
C855 C854 1.474 . S
C856 C851 1.342 . S
C856 C854 1.285 . S
C856 H875 0.933 . S
C857 C860 1.424 . S
C857 C862 1.245 . S
C857 C863 1.428 . S
C858 C861 1.260 . S
C858 C862 1.477 . S
C858 H876 0.932 . S
C859 C860 1.384 . S
C859 C861 1.479 . S
C859 H877 0.929 . S
C860 C857 1.424 . S
C860 C859 1.384 . S
C860 H878 0.928 . S
C861 C858 1.260 . S
C861 C859 1.479 . S
C862 C857 1.245 . S
C862 C858 1.477 . S
C862 H879 0.932 . S
C863 U846 2.882 . S
C863 C857 1.428 . S
C863 O866 1.301 . S
C863 O867 1.282 . S
O864 U846 2.441 . S
O864 C850 1.249 . S
O865 U846 2.420 . S
O865 C850 1.202 . S
O866 U846 2.455 . S
O866 C863 1.301 . S
O867 U846 2.449 . S
O867 C863 1.282 . S
H868 C841 0.931 . S
H869 C843 0.929 1_455 S
H870 C844 0.930 . S
H871 C845 0.931 . S
H872 C852 0.932 . S
H873 C853 0.930 . S
H874 C854 0.929 . S
H875 C856 0.933 . S
H876 C858 0.932 . S
H877 C859 0.929 . S
H878 C860 0.928 . S
H879 C862 0.932 . S
C880 C881 1.264 . S
C880 C885 1.479 . S
C880 C890 1.465 . S
C881 C880 1.264 . S
C881 C883 1.339 . S
C881 H908 0.931 . S
C882 C883 1.395 . S
C882 C884 1.320 . S
C883 C881 1.339 . S
C883 C882 1.395 . S
C883 H909 0.929 . S
C884 C882 1.320 . S
C884 C885 1.405 . S
C884 H910 0.930 . S
C885 C880 1.479 . S
C885 C884 1.405 . S
C885 H911 0.931 . S
U886 O887 2.454 . S
U886 O888 2.458 . S
U886 C889 2.984 . S
U886 C890 2.847 . S
U886 C903 2.882 . S
U886 O904 2.441 . S
U886 O905 2.420 . S
U886 O906 2.455 . S
U886 O907 2.449 . S
O887 U886 2.454 . S
O887 C889 1.353 . S
O888 U886 2.458 . S
O888 C889 1.286 . S
C889 U886 2.984 . S
C889 O887 1.353 . S
C889 O888 1.286 . S
C889 C891 1.363 . S
C890 C880 1.465 . S
C890 U886 2.847 . S
C890 O904 1.249 . S
C890 O905 1.202 . S
C891 C889 1.363 . S
C891 C893 1.408 . S
C891 C896 1.342 . S
C892 C893 1.310 . S
C892 C895 1.461 . S
C892 H912 0.932 . S
C893 C891 1.408 . S
C893 C892 1.310 . S
C893 H913 0.930 . S
C894 C895 1.474 . S
C894 C896 1.285 . S
C894 H914 0.929 . S
C895 C892 1.461 . S
C895 C894 1.474 . S
C896 C891 1.342 . S
C896 C894 1.285 . S
C896 H915 0.930 . S
C897 C900 1.424 . S
C897 C902 1.245 . S
C897 C903 1.428 . S
C898 C901 1.260 . S
C898 C902 1.477 . S
C898 H916 0.932 . S
C899 C900 1.384 . S
C899 C901 1.479 . S
C899 H917 0.929 . S
C900 C897 1.424 . S
C900 C899 1.384 . S
C900 H918 0.928 . S
C901 C898 1.260 . S
C901 C899 1.479 . S
C902 C897 1.245 . S
C902 C898 1.477 . S
C902 H919 0.932 . S
C903 U886 2.882 . S
C903 C897 1.428 . S
C903 O906 1.301 . S
C903 O907 1.282 . S
O904 U886 2.441 . S
O904 C890 1.249 . S
O905 U886 2.420 . S
O905 C890 1.202 . S
O906 U886 2.455 . S
O906 C903 1.301 . S
O907 U886 2.449 . S
O907 C903 1.282 . S
H908 C881 0.931 . S
H909 C883 0.929 . S
H910 C884 0.930 . S
H911 C885 0.931 . S
H912 C892 0.932 . S
H913 C893 0.930 . S
H914 C894 0.929 . S
H915 C896 0.930 . S
H916 C898 0.932 . S
H917 C899 0.929 . S
H918 C900 0.928 . S
H919 C902 0.932 . S
C920 C921 1.264 . S
C920 C925 1.479 . S
C920 C930 1.465 . S
C921 C920 1.264 . S
C921 C923 1.339 . S
C921 H948 0.931 . S
C922 C923 1.395 . S
C922 C924 1.320 . S
C923 C921 1.339 . S
C923 C922 1.395 . S
C923 H949 0.929 . S
C924 C922 1.320 . S
C924 C925 1.405 . S
C924 H950 0.919 1_655 S
C925 C920 1.479 . S
C925 C924 1.405 . S
C925 H951 0.931 . S
U926 O927 2.454 . S
U926 O928 2.458 . S
U926 C929 2.984 . S
U926 C930 2.847 . S
U926 C943 2.882 . S
U926 O944 2.441 . S
U926 O945 2.420 . S
U926 O946 2.455 . S
U926 O947 2.449 . S
O927 U926 2.454 . S
O927 C929 1.353 . S
O928 U926 2.458 . S
O928 C929 1.286 . S
C929 U926 2.984 . S
C929 O927 1.353 . S
C929 O928 1.286 . S
C929 C931 1.363 . S
C930 C920 1.465 . S
C930 U926 2.847 . S
C930 O944 1.249 . S
C930 O945 1.202 . S
C931 C929 1.363 . S
C931 C933 1.408 . S
C931 C936 1.342 . S
C932 C933 1.310 . S
C932 C935 1.460 . S
C932 H952 0.932 . S
C933 C931 1.408 . S
C933 C932 1.310 . S
C933 H953 0.930 . S
C934 C935 1.475 1_455 S
C934 C936 1.285 1_455 S
C934 H954 0.930 . S
C935 C932 1.460 . S
C935 C934 1.475 1_655 S
C936 C931 1.342 . S
C936 C934 1.285 1_655 S
C936 H955 0.930 . S
C937 C940 1.424 . S
C937 C942 1.245 . S
C937 C943 1.428 . S
C938 C941 1.260 . S
C938 C942 1.477 . S
C938 H956 0.932 . S
C939 C940 1.384 . S
C939 C941 1.479 . S
C939 H957 0.929 . S
C940 C937 1.424 . S
C940 C939 1.384 . S
C940 H958 0.928 . S
C941 C938 1.260 . S
C941 C939 1.479 . S
C942 C937 1.245 . S
C942 C938 1.477 . S
C942 H959 0.932 . S
C943 U926 2.882 . S
C943 C937 1.428 . S
C943 O946 1.301 . S
C943 O947 1.282 . S
O944 U926 2.441 . S
O944 C930 1.249 . S
O945 U926 2.420 . S
O945 C930 1.202 . S
O946 U926 2.455 . S
O946 C943 1.301 . S
O947 U926 2.449 . S
O947 C943 1.282 . S
H948 C921 0.931 . S
H949 C923 0.929 . S
H950 C924 0.919 1_455 S
H951 C925 0.931 . S
H952 C932 0.932 . S
H953 C933 0.930 . S
H954 C934 0.930 . S
H955 C936 0.930 . S
H956 C938 0.932 . S
H957 C939 0.929 . S
H958 C940 0.928 . S
H959 C942 0.932 . S
H960 C967 0.929 . S
H961 C970 0.930 . S
H962 C972 0.929 . S
H963 C964 0.969 . S
C964 H963 0.969 . S
C964 O965 1.550 . S
C964 H966 0.973 . S
O965 C964 1.550 . S
O965 C971 1.412 . S
H966 C964 0.973 . S
C967 H960 0.929 . S
C967 C968 1.400 . S
C967 C969 1.364 . S
C968 C967 1.400 . S
C968 C972 1.377 . S
C969 C967 1.364 . S
C969 C970 1.374 . S
C970 H961 0.930 . S
C970 C969 1.374 . S
C970 C971 1.383 . S
C971 O965 1.412 . S
C971 C970 1.383 . S
C971 C972 1.394 . S
C972 H962 0.929 . S
C972 C968 1.377 . S
C972 C971 1.394 . S
H973 C980 0.929 . S
H974 C983 0.930 . S
H975 C985 0.929 . S
H976 C977 0.969 . S
C977 H976 0.969 . S
C977 O978 1.550 . S
C977 H979 0.973 1_554 S
O978 C977 1.550 . S
O978 C984 1.412 . S
H979 C977 0.973 1_556 S
C980 H973 0.929 . S
C980 C981 1.400 1_556 S
C980 C982 1.364 . S
C981 C980 1.400 1_554 S
C981 C985 1.377 . S
C982 C980 1.364 . S
C982 C983 1.374 . S
C983 H974 0.930 . S
C983 C982 1.374 . S
C983 C984 1.383 1_556 S
C984 O978 1.412 . S
C984 C983 1.383 1_554 S
C984 C985 1.394 . S
C985 H975 0.929 . S
C985 C981 1.377 . S
C985 C984 1.394 . S
H986 C993 0.929 . S
H987 C996 0.930 . S
H988 C998 0.929 . S
H989 C990 0.969 . S
C990 H989 0.969 . S
C990 O991 1.550 . S
C990 H992 0.973 . S
O991 C990 1.550 . S
O991 C997 1.412 . S
H992 C990 0.973 . S
C993 H986 0.929 . S
C993 C994 1.400 . S
C993 C995 1.364 . S
C994 C993 1.400 . S
C994 C998 1.377 . S
C995 C993 1.364 . S
C995 C996 1.374 1_565 S
C996 H987 0.930 . S
C996 C995 1.374 1_545 S
C996 C997 1.383 . S
C997 O991 1.412 . S
C997 C996 1.383 . S
C997 C998 1.394 1_545 S
C998 H988 0.929 . S
C998 C994 1.377 . S
C998 C997 1.394 1_565 S
H999 C1006 0.929 . S
H1000 C1009 0.930 . S
H1001 C1011 0.929 . S
H1002 C1003 0.969 . S
C1003 H1002 0.969 . S
C1003 O1004 1.550 . S
C1003 H1005 0.950 1_556 S
O1004 C1003 1.550 . S
O1004 C1010 1.412 . S
H1005 C1003 0.950 1_554 S
C1006 H999 0.929 . S
C1006 C1007 1.400 1_554 S
C1006 C1008 1.364 . S
C1007 C1006 1.400 1_556 S
C1007 C1011 1.377 . S
C1008 C1006 1.364 . S
C1008 C1009 1.374 . S
C1009 H1000 0.930 . S
C1009 C1008 1.374 . S
C1009 C1010 1.383 1_554 S
C1010 O1004 1.412 . S
C1010 C1009 1.383 1_556 S
C1010 C1011 1.394 . S
C1011 H1001 0.929 . S
C1011 C1007 1.377 . S
C1011 C1010 1.394 . S
H1012 C1019 0.929 . S
H1013 C1022 0.930 . S
H1014 C1024 0.929 . S
H1015 C1016 0.969 . S
C1016 H1015 0.969 . S
C1016 O1017 1.550 . S
C1016 H1018 0.973 . S
O1017 C1016 1.550 . S
O1017 C1023 1.412 . S
H1018 C1016 0.973 . S
C1019 H1012 0.929 . S
C1019 C1020 1.400 . S
C1019 C1021 1.364 . S
C1020 C1019 1.400 . S
C1020 C1024 1.377 . S
C1021 C1019 1.364 . S
C1021 C1022 1.374 . S
C1022 H1013 0.930 . S
C1022 C1021 1.374 . S
C1022 C1023 1.383 . S
C1023 O1017 1.412 . S
C1023 C1022 1.383 . S
C1023 C1024 1.394 . S
C1024 H1014 0.929 . S
C1024 C1020 1.377 . S
C1024 C1023 1.394 . S
H1025 C1032 0.929 . S
H1026 C1035 0.930 . S
H1027 C1037 0.929 . S
H1028 C1029 0.969 . S
C1029 H1028 0.969 . S
C1029 O1030 1.550 . S
C1029 H1031 0.950 1_655 S
O1030 C1029 1.550 . S
O1030 C1036 1.412 . S
H1031 C1029 0.950 1_455 S
C1032 H1025 0.929 . S
C1032 C1033 1.400 1_455 S
C1032 C1034 1.364 . S
C1033 C1032 1.400 1_655 S
C1033 C1037 1.377 . S
C1034 C1032 1.364 . S
C1034 C1035 1.374 . S
C1035 H1026 0.930 . S
C1035 C1034 1.374 . S
C1035 C1036 1.383 1_455 S
C1036 O1030 1.412 . S
C1036 C1035 1.383 1_655 S
C1036 C1037 1.394 . S
C1037 H1027 0.929 . S
C1037 C1033 1.377 . S
C1037 C1036 1.394 . S
H1038 C1045 0.929 . S
H1039 C1048 0.930 . S
H1040 C1050 0.929 . S
H1041 C1042 0.969 . S
C1042 H1041 0.969 . S
C1042 O1043 1.550 . S
C1042 H1044 0.973 1_455 S
O1043 C1042 1.550 . S
O1043 C1049 1.412 . S
H1044 C1042 0.973 1_655 S
C1045 H1038 0.929 . S
C1045 C1046 1.400 1_655 S
C1045 C1047 1.364 . S
C1046 C1045 1.400 1_455 S
C1046 C1050 1.377 . S
C1047 C1045 1.364 . S
C1047 C1048 1.374 . S
C1048 H1039 0.930 . S
C1048 C1047 1.374 . S
C1048 C1049 1.383 1_655 S
C1049 O1043 1.412 . S
C1049 C1048 1.383 1_455 S
C1049 C1050 1.394 . S
C1050 H1040 0.929 . S
C1050 C1046 1.377 . S
C1050 C1049 1.394 . S
H1051 C1058 0.929 . S
H1052 C1061 0.930 . S
H1053 C1063 0.929 . S
H1054 C1055 0.969 . S
C1055 H1054 0.969 . S
C1055 O1056 1.550 . S
C1055 H1057 0.973 . S
O1056 C1055 1.550 . S
O1056 C1062 1.412 . S
H1057 C1055 0.973 . S
C1058 H1051 0.929 . S
C1058 C1059 1.400 . S
C1058 C1060 1.364 . S
C1059 C1058 1.400 . S
C1059 C1063 1.377 . S
C1060 C1058 1.364 . S
C1060 C1061 1.374 1_556 S
C1061 H1052 0.930 . S
C1061 C1060 1.374 1_554 S
C1061 C1062 1.383 . S
C1062 O1056 1.412 . S
C1062 C1061 1.383 . S
C1062 C1063 1.394 1_554 S
C1063 H1053 0.929 . S
C1063 C1059 1.377 . S
C1063 C1062 1.394 1_556 S
H1064 C1071 0.929 . S
H1065 C1074 0.930 . S
H1066 C1076 0.929 . S
H1067 C1068 0.969 . S
C1068 H1067 0.969 . S
C1068 O1069 1.550 . S
C1068 H1070 0.973 . S
O1069 C1068 1.550 . S
O1069 C1075 1.412 . S
H1070 C1068 0.973 . S
C1071 H1064 0.929 . S
C1071 C1072 1.400 . S
C1071 C1073 1.364 . S
C1072 C1071 1.400 . S
C1072 C1076 1.377 . S
C1073 C1071 1.364 . S
C1073 C1074 1.374 . S
C1074 H1065 0.930 . S
C1074 C1073 1.374 . S
C1074 C1075 1.383 . S
C1075 O1069 1.412 . S
C1075 C1074 1.383 . S
C1075 C1076 1.394 . S
C1076 H1066 0.929 . S
C1076 C1072 1.377 . S
C1076 C1075 1.394 . S
H1077 C1084 0.929 . S
H1078 C1087 0.930 . S
H1079 C1089 0.929 . S
H1080 C1081 0.969 . S
C1081 H1080 0.969 . S
C1081 O1082 1.550 . S
C1081 H1083 0.950 1_565 S
O1082 C1081 1.550 . S
O1082 C1088 1.412 . S
H1083 C1081 0.950 1_545 S
C1084 H1077 0.929 . S
C1084 C1085 1.400 1_545 S
C1084 C1086 1.364 . S
C1085 C1084 1.400 1_565 S
C1085 C1089 1.377 . S
C1086 C1084 1.364 . S
C1086 C1087 1.374 . S
C1087 H1078 0.930 . S
C1087 C1086 1.374 . S
C1087 C1088 1.383 1_545 S
C1088 O1082 1.412 . S
C1088 C1087 1.383 1_565 S
C1088 C1089 1.394 . S
C1089 H1079 0.929 . S
C1089 C1085 1.377 . S
C1089 C1088 1.394 . S
H1090 C1097 0.929 . S
H1091 C1100 0.930 . S
H1092 C1102 0.929 . S
H1093 C1094 0.969 . S
C1094 H1093 0.969 . S
C1094 O1095 1.550 . S
C1094 H1096 0.973 1_545 S
O1095 C1094 1.550 . S
O1095 C1101 1.412 . S
H1096 C1094 0.973 1_565 S
C1097 H1090 0.929 . S
C1097 C1098 1.400 1_565 S
C1097 C1099 1.364 . S
C1098 C1097 1.400 1_545 S
C1098 C1102 1.377 . S
C1099 C1097 1.364 . S
C1099 C1100 1.374 . S
C1100 H1091 0.930 . S
C1100 C1099 1.374 . S
C1100 C1101 1.383 1_565 S
C1101 O1095 1.412 . S
C1101 C1100 1.383 1_545 S
C1101 C1102 1.394 . S
C1102 H1092 0.929 . S
C1102 C1098 1.377 . S
C1102 C1101 1.394 . S
H1103 C1110 0.929 . S
H1104 C1113 0.930 . S
H1105 C1115 0.929 . S
H1106 C1107 0.969 . S
C1107 H1106 0.969 . S
C1107 O1108 1.550 . S
C1107 H1109 0.973 . S
O1108 C1107 1.550 . S
O1108 C1114 1.412 . S
H1109 C1107 0.973 . S
C1110 H1103 0.929 . S
C1110 C1111 1.400 . S
C1110 C1112 1.364 . S
C1111 C1110 1.400 . S
C1111 C1115 1.377 . S
C1112 C1110 1.364 . S
C1112 C1113 1.374 1_655 S
C1113 H1104 0.930 . S
C1113 C1112 1.374 1_455 S
C1113 C1114 1.383 . S
C1114 O1108 1.412 . S
C1114 C1113 1.383 . S
C1114 C1115 1.394 1_455 S
C1115 H1105 0.929 . S
C1115 C1111 1.377 . S
C1115 C1114 1.394 1_655 S
H1116 C1123 0.929 . S
H1117 C1126 0.930 . S
H1118 C1128 0.929 . S
H1119 C1120 0.969 . S
C1120 H1119 0.969 . S
C1120 O1121 1.550 . S
C1120 H1122 0.973 . S
O1121 C1120 1.550 . S
O1121 C1127 1.412 . S
H1122 C1120 0.973 . S
C1123 H1116 0.929 . S
C1123 C1124 1.400 . S
C1123 C1125 1.364 . S
C1124 C1123 1.400 . S
C1124 C1128 1.377 . S
C1125 C1123 1.364 . S
C1125 C1126 1.374 . S
C1126 H1117 0.930 . S
C1126 C1125 1.374 . S
C1126 C1127 1.383 . S
C1127 O1121 1.412 . S
C1127 C1126 1.383 . S
C1127 C1128 1.394 . S
C1128 H1118 0.929 . S
C1128 C1124 1.377 . S
C1128 C1127 1.394 . S
H1129 C1136 0.929 . S
H1130 C1139 0.930 . S
H1131 C1141 0.929 . S
H1132 C1133 0.969 1_554 S
C1133 H1132 0.969 1_556 S
C1133 O1134 1.550 . S
C1133 H1135 0.973 1_556 S
O1134 C1133 1.550 . S
O1134 C1140 1.412 . S
H1135 C1133 0.973 1_554 S
C1136 H1129 0.929 . S
C1136 C1137 1.400 1_554 S
C1136 C1138 1.364 . S
C1137 C1136 1.400 1_556 S
C1137 C1141 1.377 . S
C1138 C1136 1.364 . S
C1138 C1139 1.374 . S
C1139 H1130 0.930 . S
C1139 C1138 1.374 . S
C1139 C1140 1.383 1_554 S
C1140 O1134 1.412 . S
C1140 C1139 1.383 1_556 S
C1140 C1141 1.394 . S
C1141 H1131 0.929 . S
C1141 C1137 1.377 . S
C1141 C1140 1.394 . S
H1142 C1149 0.929 . S
H1143 C1152 0.930 . S
H1144 C1154 0.929 . S
H1145 C1146 0.969 . S
C1146 H1145 0.969 . S
C1146 O1147 1.550 . S
C1146 H1148 0.973 . S
O1147 C1146 1.550 . S
O1147 C1153 1.412 . S
H1148 C1146 0.973 . S
C1149 H1142 0.929 . S
C1149 C1150 1.400 . S
C1149 C1151 1.364 . S
C1150 C1149 1.400 . S
C1150 C1154 1.377 . S
C1151 C1149 1.364 . S
C1151 C1152 1.374 1_545 S
C1152 H1143 0.930 . S
C1152 C1151 1.374 1_565 S
C1152 C1153 1.383 . S
C1153 O1147 1.412 . S
C1153 C1152 1.383 . S
C1153 C1154 1.394 1_565 S
C1154 H1144 0.929 . S
C1154 C1150 1.377 . S
C1154 C1153 1.394 1_545 S
H1155 C1162 0.929 . S
H1156 C1165 0.930 . S
H1157 C1167 0.929 . S
H1158 C1159 0.969 . S
C1159 H1158 0.969 . S
C1159 O1160 1.550 . S
C1159 H1161 0.973 1_554 S
O1160 C1159 1.550 . S
O1160 C1166 1.412 . S
H1161 C1159 0.973 1_556 S
C1162 H1155 0.929 . S
C1162 C1163 1.400 1_556 S
C1162 C1164 1.364 . S
C1163 C1162 1.400 1_554 S
C1163 C1167 1.377 . S
C1164 C1162 1.364 . S
C1164 C1165 1.374 . S
C1165 H1156 0.930 . S
C1165 C1164 1.374 . S
C1165 C1166 1.383 1_556 S
C1166 O1160 1.412 . S
C1166 C1165 1.383 1_554 S
C1166 C1167 1.394 . S
C1167 H1157 0.929 . S
C1167 C1163 1.377 . S
C1167 C1166 1.394 . S
H1168 C1175 0.929 . S
H1169 C1178 0.930 . S
H1170 C1180 0.929 . S
H1171 C1172 0.969 . S
C1172 H1171 0.969 . S
C1172 O1173 1.550 . S
C1172 H1174 0.973 . S
O1173 C1172 1.550 . S
O1173 C1179 1.412 . S
H1174 C1172 0.973 . S
C1175 H1168 0.929 . S
C1175 C1176 1.400 . S
C1175 C1177 1.364 . S
C1176 C1175 1.400 . S
C1176 C1180 1.377 . S
C1177 C1175 1.364 . S
C1177 C1178 1.374 . S
C1178 H1169 0.930 . S
C1178 C1177 1.374 . S
C1178 C1179 1.383 . S
C1179 O1173 1.412 . S
C1179 C1178 1.383 . S
C1179 C1180 1.394 . S
C1180 H1170 0.929 . S
C1180 C1176 1.377 . S
C1180 C1179 1.394 . S
H1181 C1188 0.929 . S
H1182 C1191 0.930 . S
H1183 C1193 0.929 . S
H1184 C1185 0.969 . S
C1185 H1184 0.969 . S
C1185 O1186 1.550 . S
C1185 H1187 0.973 1_455 S
O1186 C1185 1.550 . S
O1186 C1192 1.412 . S
H1187 C1185 0.973 1_655 S
C1188 H1181 0.929 . S
C1188 C1189 1.400 1_655 S
C1188 C1190 1.364 . S
C1189 C1188 1.400 1_455 S
C1189 C1193 1.377 . S
C1190 C1188 1.364 . S
C1190 C1191 1.374 . S
C1191 H1182 0.930 . S
C1191 C1190 1.374 . S
C1191 C1192 1.383 1_655 S
C1192 O1186 1.412 . S
C1192 C1191 1.383 1_455 S
C1192 C1193 1.394 . S
C1193 H1183 0.929 . S
C1193 C1189 1.377 . S
C1193 C1192 1.394 . S
H1194 C1201 0.929 . S
H1195 C1204 0.930 . S
H1196 C1206 0.929 . S
H1197 C1198 0.969 1_455 S
C1198 H1197 0.969 1_655 S
C1198 O1199 1.550 . S
C1198 H1200 0.973 1_655 S
O1199 C1198 1.550 . S
O1199 C1205 1.412 . S
H1200 C1198 0.973 1_455 S
C1201 H1194 0.929 . S
C1201 C1202 1.400 1_455 S
C1201 C1203 1.364 . S
C1202 C1201 1.400 1_655 S
C1202 C1206 1.377 . S
C1203 C1201 1.364 . S
C1203 C1204 1.374 . S
C1204 H1195 0.930 . S
C1204 C1203 1.374 . S
C1204 C1205 1.383 1_455 S
C1205 O1199 1.412 . S
C1205 C1204 1.383 1_655 S
C1205 C1206 1.394 . S
C1206 H1196 0.929 . S
C1206 C1202 1.377 . S
C1206 C1205 1.394 . S
H1207 C1214 0.929 . S
H1208 C1217 0.930 . S
H1209 C1219 0.929 . S
H1210 C1211 0.969 . S
C1211 H1210 0.969 . S
C1211 O1212 1.550 . S
C1211 H1213 0.973 . S
O1212 C1211 1.550 . S
O1212 C1218 1.412 . S
H1213 C1211 0.973 . S
C1214 H1207 0.929 . S
C1214 C1215 1.400 . S
C1214 C1216 1.364 . S
C1215 C1214 1.400 . S
C1215 C1219 1.377 . S
C1216 C1214 1.364 . S
C1216 C1217 1.374 1_554 S
C1217 H1208 0.930 . S
C1217 C1216 1.374 1_556 S
C1217 C1218 1.383 . S
C1218 O1212 1.412 . S
C1218 C1217 1.383 . S
C1218 C1219 1.394 1_556 S
C1219 H1209 0.929 . S
C1219 C1215 1.377 . S
C1219 C1218 1.394 1_554 S
H1220 C1227 0.929 . S
H1221 C1230 0.930 . S
H1222 C1232 0.929 . S
H1223 C1224 0.969 . S
C1224 H1223 0.969 . S
C1224 O1225 1.550 . S
C1224 H1226 0.973 . S
O1225 C1224 1.550 . S
O1225 C1231 1.412 . S
H1226 C1224 0.973 . S
C1227 H1220 0.929 . S
C1227 C1228 1.400 . S
C1227 C1229 1.364 . S
C1228 C1227 1.400 . S
C1228 C1232 1.377 . S
C1229 C1227 1.364 . S
C1229 C1230 1.374 . S
C1230 H1221 0.930 . S
C1230 C1229 1.374 . S
C1230 C1231 1.383 . S
C1231 O1225 1.412 . S
C1231 C1230 1.383 . S
C1231 C1232 1.394 . S
C1232 H1222 0.929 . S
C1232 C1228 1.377 . S
C1232 C1231 1.394 . S
H1233 C1240 0.929 . S
H1234 C1243 0.930 . S
H1235 C1245 0.929 . S
H1236 C1237 0.969 . S
C1237 H1236 0.969 . S
C1237 O1238 1.550 . S
C1237 H1239 0.973 1_545 S
O1238 C1237 1.550 . S
O1238 C1244 1.412 . S
H1239 C1237 0.973 1_565 S
C1240 H1233 0.929 . S
C1240 C1241 1.400 1_565 S
C1240 C1242 1.364 . S
C1241 C1240 1.400 1_545 S
C1241 C1245 1.377 . S
C1242 C1240 1.364 . S
C1242 C1243 1.374 . S
C1243 H1234 0.930 . S
C1243 C1242 1.374 . S
C1243 C1244 1.383 1_565 S
C1244 O1238 1.412 . S
C1244 C1243 1.383 1_545 S
C1244 C1245 1.394 . S
C1245 H1235 0.929 . S
C1245 C1241 1.377 . S
C1245 C1244 1.394 . S
H1246 C1253 0.929 . S
H1247 C1256 0.930 . S
H1248 C1258 0.929 . S
H1249 C1250 0.969 1_545 S
C1250 H1249 0.969 1_565 S
C1250 O1251 1.550 . S
C1250 H1252 0.973 1_565 S
O1251 C1250 1.550 . S
O1251 C1257 1.412 . S
H1252 C1250 0.973 1_545 S
C1253 H1246 0.929 . S
C1253 C1254 1.400 1_545 S
C1253 C1255 1.364 . S
C1254 C1253 1.400 1_565 S
C1254 C1258 1.377 . S
C1255 C1253 1.364 . S
C1255 C1256 1.374 . S
C1256 H1247 0.930 . S
C1256 C1255 1.374 . S
C1256 C1257 1.383 1_545 S
C1257 O1251 1.412 . S
C1257 C1256 1.383 1_565 S
C1257 C1258 1.394 . S
C1258 H1248 0.929 . S
C1258 C1254 1.377 . S
C1258 C1257 1.394 . S
H1259 C1266 0.929 . S
H1260 C1269 0.930 . S
H1261 C1271 0.929 . S
H1262 C1263 0.969 . S
C1263 H1262 0.969 . S
C1263 O1264 1.550 . S
C1263 H1265 0.973 . S
O1264 C1263 1.550 . S
O1264 C1270 1.412 . S
H1265 C1263 0.973 . S
C1266 H1259 0.929 . S
C1266 C1267 1.400 . S
C1266 C1268 1.364 . S
C1267 C1266 1.400 . S
C1267 C1271 1.377 . S
C1268 C1266 1.364 . S
C1268 C1269 1.374 1_455 S
C1269 H1260 0.930 . S
C1269 C1268 1.374 1_655 S
C1269 C1270 1.383 . S
C1270 O1264 1.412 . S
C1270 C1269 1.383 . S
C1270 C1271 1.394 1_655 S
C1271 H1261 0.929 . S
C1271 C1267 1.377 . S
C1271 C1270 1.394 1_455 S
C1272 C1273 1.387 . S
C1272 H1276 0.950 . S
C1272 C1281 1.390 . S
C1273 C1272 1.387 . S
C1273 C1275 1.387 . S
H1274 C1281 0.950 . S
C1275 C1273 1.387 . S
C1275 C1277 1.390 . S
C1275 H1279 0.950 . S
H1276 C1272 0.950 . S
C1277 C1275 1.390 . S
C1277 C1278 1.387 . S
C1277 H1280 0.950 . S
C1278 C1277 1.387 . S
C1278 C1281 1.387 . S
H1279 C1275 0.950 . S
H1280 C1277 0.950 . S
C1281 C1272 1.390 . S
C1281 H1274 0.950 . S
C1281 C1278 1.387 . S
C1282 C1283 1.387 . S
C1282 H1286 0.950 . S
C1282 C1291 1.390 . S
C1283 C1282 1.387 . S
C1283 C1285 1.387 . S
H1284 C1291 0.950 . S
C1285 C1283 1.387 . S
C1285 C1287 1.390 . S
C1285 H1289 0.950 . S
H1286 C1282 0.950 . S
C1287 C1285 1.390 . S
C1287 C1288 1.387 . S
C1287 H1290 0.950 . S
C1288 C1287 1.387 . S
C1288 C1291 1.387 . S
H1289 C1285 0.950 . S
H1290 C1287 0.950 . S
C1291 C1282 1.390 . S
C1291 H1284 0.950 . S
C1291 C1288 1.387 . S
C1292 C1293 1.387 . S
C1292 H1296 0.950 . S
C1292 C1301 1.390 . S
C1293 C1292 1.387 . S
C1293 C1295 1.387 1_565 S
H1294 C1301 0.950 . S
C1295 C1293 1.387 1_545 S
C1295 C1297 1.390 1_545 S
C1295 H1299 0.950 . S
H1296 C1292 0.950 . S
C1297 C1295 1.390 1_565 S
C1297 C1298 1.387 . S
C1297 H1300 0.941 1_565 S
C1298 C1297 1.387 . S
C1298 C1301 1.387 . S
H1299 C1295 0.950 . S
H1300 C1297 0.941 1_545 S
C1301 C1292 1.390 . S
C1301 H1294 0.950 . S
C1301 C1298 1.387 . S
C1302 C1303 1.387 1_565 S
C1302 H1306 0.950 . S
C1302 C1311 1.390 . S
C1303 C1302 1.387 1_545 S
C1303 C1305 1.387 . S
H1304 C1311 0.950 1_455 S
C1305 C1303 1.387 . S
C1305 C1307 1.390 . S
C1305 H1309 0.950 . S
H1306 C1302 0.950 . S
C1307 C1305 1.390 . S
C1307 C1308 1.387 1_655 S
C1307 H1310 0.950 1_655 S
C1308 C1307 1.387 1_455 S
C1308 C1311 1.387 1_445 S
H1309 C1305 0.950 . S
H1310 C1307 0.950 1_455 S
C1311 C1302 1.390 . S
C1311 H1304 0.950 1_655 S
C1311 C1308 1.387 1_665 S
C1312 C1313 1.387 . S
C1312 H1316 0.950 . S
C1312 C1321 1.390 . S
C1313 C1312 1.387 . S
C1313 C1315 1.387 . S
H1314 C1321 0.950 . S
C1315 C1313 1.387 . S
C1315 C1317 1.390 . S
C1315 H1319 0.950 . S
H1316 C1312 0.950 . S
C1317 C1315 1.390 . S
C1317 C1318 1.387 . S
C1317 H1320 0.950 . S
C1318 C1317 1.387 . S
C1318 C1321 1.387 . S
H1319 C1315 0.950 . S
H1320 C1317 0.950 . S
C1321 C1312 1.390 . S
C1321 H1314 0.950 . S
C1321 C1318 1.387 . S
C1322 C1323 1.387 1_556 S
C1322 H1326 0.950 . S
C1322 C1331 1.390 . S
C1323 C1322 1.387 1_554 S
C1323 C1325 1.387 . S
H1324 C1331 0.950 1_545 S
C1325 C1323 1.387 . S
C1325 C1327 1.433 . S
C1325 H1329 0.950 . S
H1326 C1322 0.950 . S
C1327 C1325 1.433 . S
C1327 C1328 1.366 1_565 S
C1327 H1330 0.930 1_565 S
C1328 C1327 1.366 1_545 S
C1328 C1331 1.387 1_544 S
H1329 C1325 0.950 . S
H1330 C1327 0.930 1_545 S
C1331 C1322 1.390 . S
C1331 H1324 0.950 1_565 S
C1331 C1328 1.387 1_566 S
C1332 C1333 1.387 . S
C1332 H1336 0.950 . S
C1332 C1341 1.390 . S
C1333 C1332 1.387 . S
C1333 C1335 1.387 . S
H1334 C1341 0.950 . S
C1335 C1333 1.387 . S
C1335 C1337 1.390 . S
C1335 H1339 0.950 . S
H1336 C1332 0.950 . S
C1337 C1335 1.390 . S
C1337 C1338 1.387 . S
C1337 H1340 0.950 . S
C1338 C1337 1.387 . S
C1338 C1341 1.387 . S
H1339 C1335 0.950 . S
H1340 C1337 0.950 . S
C1341 C1332 1.390 . S
C1341 H1334 0.950 . S
C1341 C1338 1.387 . S
C1342 C1343 1.387 . S
C1342 H1346 0.950 . S
C1342 C1351 1.390 . S
C1343 C1342 1.387 . S
C1343 C1345 1.387 1_556 S
H1344 C1351 0.950 . S
C1345 C1343 1.387 1_554 S
C1345 C1347 1.390 . S
C1345 H1349 0.950 . S
H1346 C1342 0.950 . S
C1347 C1345 1.390 . S
C1347 C1348 1.387 1_554 S
C1347 H1350 0.950 . S
C1348 C1347 1.387 1_556 S
C1348 C1351 1.387 . S
H1349 C1345 0.950 . S
H1350 C1347 0.950 . S
C1351 C1342 1.390 . S
C1351 H1344 0.950 . S
C1351 C1348 1.387 . S
C1352 C1353 1.387 . S
C1352 H1356 0.950 . S
C1352 C1361 1.390 . S
C1353 C1352 1.387 . S
C1353 C1355 1.387 . S
H1354 C1361 0.950 . S
C1355 C1353 1.387 . S
C1355 C1357 1.390 . S
C1355 H1359 0.950 . S
H1356 C1352 0.950 . S
C1357 C1355 1.390 . S
C1357 C1358 1.387 . S
C1357 H1360 0.950 . S
C1358 C1357 1.387 . S
C1358 C1361 1.387 . S
H1359 C1355 0.950 . S
H1360 C1357 0.950 . S
C1361 C1352 1.390 . S
C1361 H1354 0.950 . S
C1361 C1358 1.387 . S
C1362 C1363 1.387 . S
C1362 H1366 0.950 . S
C1362 C1371 1.390 . S
C1363 C1362 1.387 . S
C1363 C1365 1.387 1_455 S
H1364 C1371 0.950 1_554 S
C1365 C1363 1.387 1_655 S
C1365 C1367 1.390 . S
C1365 H1369 0.950 . S
H1366 C1362 0.950 . S
C1367 C1365 1.390 . S
C1367 C1368 1.387 1_656 S
C1367 H1370 0.950 1_556 S
C1368 C1367 1.387 1_454 S
C1368 C1371 1.387 1_554 S
H1369 C1365 0.950 . S
H1370 C1367 0.950 1_554 S
C1371 C1362 1.390 . S
C1371 H1364 0.950 1_556 S
C1371 C1368 1.387 1_556 S
C1372 C1373 1.387 . S
C1372 H1376 0.950 . S
C1372 C1381 1.390 . S
C1373 C1372 1.387 . S
C1373 C1375 1.387 . S
H1374 C1381 0.950 . S
C1375 C1373 1.387 . S
C1375 C1377 1.390 . S
C1375 H1379 0.950 . S
H1376 C1372 0.950 . S
C1377 C1375 1.390 . S
C1377 C1378 1.387 . S
C1377 H1380 0.950 . S
C1378 C1377 1.387 . S
C1378 C1381 1.387 . S
H1379 C1375 0.950 . S
H1380 C1377 0.950 . S
C1381 C1372 1.390 . S
C1381 H1374 0.950 . S
C1381 C1378 1.387 . S
C1382 C1383 1.387 . S
C1382 H1386 0.946 1_655 S
C1382 C1391 1.390 . S
C1383 C1382 1.387 . S
C1383 C1385 1.387 . S
H1384 C1391 0.950 . S
C1385 C1383 1.387 . S
C1385 C1387 1.390 . S
C1385 H1389 0.950 . S
H1386 C1382 0.946 1_455 S
C1387 C1385 1.390 . S
C1387 C1388 1.387 . S
C1387 H1390 0.950 . S
C1388 C1387 1.387 . S
C1388 C1391 1.387 . S
H1389 C1385 0.950 . S
H1390 C1387 0.950 . S
C1391 C1382 1.390 . S
C1391 H1384 0.950 . S
C1391 C1388 1.387 . S
C1392 C1393 1.387 . S
C1392 H1396 0.950 . S
C1392 C1401 1.390 . S
C1393 C1392 1.387 . S
C1393 C1395 1.387 . S
H1394 C1401 0.950 . S
C1395 C1393 1.387 . S
C1395 C1397 1.390 . S
C1395 H1399 0.950 . S
H1396 C1392 0.950 . S
C1397 C1395 1.390 . S
C1397 C1398 1.387 . S
C1397 H1400 0.950 . S
C1398 C1397 1.387 . S
C1398 C1401 1.387 . S
H1399 C1395 0.950 . S
H1400 C1397 0.950 . S
C1401 C1392 1.390 . S
C1401 H1394 0.950 . S
C1401 C1398 1.387 . S
C1402 C1403 1.387 . S
C1402 H1406 0.950 . S
C1402 C1411 1.390 . S
C1403 C1402 1.387 . S
C1403 C1405 1.387 . S
H1404 C1411 0.950 . S
C1405 C1403 1.387 . S
C1405 C1407 1.390 . S
C1405 H1409 0.950 . S
H1406 C1402 0.950 . S
C1407 C1405 1.390 . S
C1407 C1408 1.387 . S
C1407 H1410 0.950 . S
C1408 C1407 1.387 . S
C1408 C1411 1.387 . S
H1409 C1405 0.950 . S
H1410 C1407 0.950 . S
C1411 C1402 1.390 . S
C1411 H1404 0.950 . S
C1411 C1408 1.387 . S
C1412 C1413 1.387 . S
C1412 H1416 0.950 . S
C1412 C1421 1.390 . S
C1413 C1412 1.387 . S
C1413 C1415 1.387 . S
H1414 C1421 0.950 . S
C1415 C1413 1.387 . S
C1415 C1417 1.390 . S
C1415 H1419 0.953 . S
H1416 C1412 0.950 . S
C1417 C1415 1.390 . S
C1417 C1418 1.387 . S
C1417 H1420 0.950 . S
C1418 C1417 1.387 . S
C1418 C1421 1.387 . S
H1419 C1415 0.953 . S
H1420 C1417 0.950 . S
C1421 C1412 1.390 . S
C1421 H1414 0.950 . S
C1421 C1418 1.387 . S
C1422 C1423 1.387 1_545 S
C1422 H1426 0.950 . S
C1422 C1431 1.390 . S
C1423 C1422 1.387 1_565 S
C1423 C1425 1.387 . S
H1424 C1431 0.950 1_655 S
C1425 C1423 1.387 . S
C1425 C1427 1.390 . S
C1425 H1429 0.950 . S
H1426 C1422 0.950 . S
C1427 C1425 1.390 . S
C1427 C1428 1.387 1_455 S
C1427 H1430 0.950 1_455 S
C1428 C1427 1.387 1_655 S
C1428 C1431 1.387 1_665 S
H1429 C1425 0.950 . S
H1430 C1427 0.950 1_655 S
C1431 C1422 1.390 . S
C1431 H1424 0.950 1_455 S
C1431 C1428 1.387 1_445 S
C1432 C1433 1.387 . S
C1432 H1436 0.950 . S
C1432 C1441 1.390 . S
C1433 C1432 1.387 . S
C1433 C1435 1.387 . S
H1434 C1441 0.950 . S
C1435 C1433 1.387 . S
C1435 C1437 1.390 . S
C1435 H1439 0.950 . S
H1436 C1432 0.950 . S
C1437 C1435 1.390 . S
C1437 C1438 1.387 . S
C1437 H1440 0.950 . S
C1438 C1437 1.387 . S
C1438 C1441 1.387 . S
H1439 C1435 0.950 . S
H1440 C1437 0.950 . S
C1441 C1432 1.390 . S
C1441 H1434 0.950 . S
C1441 C1438 1.387 . S
C1442 C1443 1.387 . S
C1442 H1446 0.950 . S
C1442 C1451 1.390 . S
C1443 C1442 1.387 . S
C1443 C1445 1.387 1_556 S
H1444 C1451 0.950 1_565 S
C1445 C1443 1.387 1_554 S
C1445 C1447 1.390 . S
C1445 H1449 0.950 . S
H1446 C1442 0.950 . S
C1447 C1445 1.390 . S
C1447 C1448 1.387 1_544 S
C1447 H1450 0.950 1_545 S
C1448 C1447 1.387 1_566 S
C1448 C1451 1.387 1_565 S
H1449 C1445 0.950 . S
H1450 C1447 0.950 1_565 S
C1451 C1442 1.390 . S
C1451 H1444 0.950 1_545 S
C1451 C1448 1.387 1_545 S
C1452 C1453 1.387 . S
C1452 H1456 0.950 . S
C1452 C1461 1.390 . S
C1453 C1452 1.387 . S
C1453 C1455 1.387 . S
H1454 C1461 0.950 . S
C1455 C1453 1.387 . S
C1455 C1457 1.390 . S
C1455 H1459 0.950 . S
H1456 C1452 0.950 . S
C1457 C1455 1.390 . S
C1457 C1458 1.387 . S
C1457 H1460 0.950 . S
C1458 C1457 1.387 . S
C1458 C1461 1.387 . S
H1459 C1455 0.950 . S
H1460 C1457 0.950 . S
C1461 C1452 1.390 . S
C1461 H1454 0.950 . S
C1461 C1458 1.387 . S
C1462 C1463 1.387 1_556 S
C1462 H1466 0.950 . S
C1462 C1471 1.390 . S
C1463 C1462 1.387 1_554 S
C1463 C1465 1.387 . S
H1464 C1471 0.950 . S
C1465 C1463 1.387 . S
C1465 C1467 1.390 . S
C1465 H1469 0.950 . S
H1466 C1462 0.950 . S
C1467 C1465 1.390 . S
C1467 C1468 1.387 . S
C1467 H1470 0.950 . S
C1468 C1467 1.387 . S
C1468 C1471 1.387 1_554 S
H1469 C1465 0.950 . S
H1470 C1467 0.950 . S
C1471 C1462 1.390 . S
C1471 H1464 0.950 . S
C1471 C1468 1.387 1_556 S
C1472 C1473 1.387 . S
C1472 H1476 0.950 . S
C1472 C1481 1.390 . S
C1473 C1472 1.387 . S
C1473 C1475 1.387 . S
H1474 C1481 0.950 . S
C1475 C1473 1.387 . S
C1475 C1477 1.390 . S
C1475 H1479 0.950 . S
H1476 C1472 0.950 . S
C1477 C1475 1.390 . S
C1477 C1478 1.387 . S
C1477 H1480 0.950 . S
C1478 C1477 1.387 . S
C1478 C1481 1.387 . S
H1479 C1475 0.950 . S
H1480 C1477 0.950 . S
C1481 C1472 1.390 . S
C1481 H1474 0.950 . S
C1481 C1478 1.387 . S
C1482 C1483 1.387 . S
C1482 H1486 0.950 . S
C1482 C1491 1.390 1_554 S
C1483 C1482 1.387 . S
C1483 C1485 1.387 1_655 S
H1484 C1491 0.950 . S
C1485 C1483 1.387 1_455 S
C1485 C1487 1.390 . S
C1485 H1489 0.950 . S
H1486 C1482 0.950 . S
C1487 C1485 1.390 . S
C1487 C1488 1.387 1_454 S
C1487 H1490 0.950 . S
C1488 C1487 1.387 1_656 S
C1488 C1491 1.387 . S
H1489 C1485 0.950 . S
H1490 C1487 0.950 . S
C1491 C1482 1.390 1_556 S
C1491 H1484 0.950 . S
C1491 C1488 1.387 . S
C1492 C1493 1.387 . S
C1492 H1496 0.950 . S
C1492 C1501 1.390 . S
C1493 C1492 1.387 . S
C1493 C1495 1.387 . S
H1494 C1501 0.950 . S
C1495 C1493 1.387 . S
C1495 C1497 1.390 . S
C1495 H1499 0.950 . S
H1496 C1492 0.950 . S
C1497 C1495 1.390 . S
C1497 C1498 1.387 . S
C1497 H1500 0.950 . S
C1498 C1497 1.387 . S
C1498 C1501 1.387 . S
H1499 C1495 0.950 . S
H1500 C1497 0.950 . S
C1501 C1492 1.390 . S
C1501 H1494 0.950 . S
C1501 C1498 1.387 . S
C1502 C1503 1.387 . S
C1502 H1506 0.950 . S
C1502 C1511 1.390 . S
C1503 C1502 1.387 . S
C1503 C1505 1.387 . S
H1504 C1511 0.950 . S
C1505 C1503 1.387 . S
C1505 C1507 1.390 . S
C1505 H1509 0.954 . S
H1506 C1502 0.950 . S
C1507 C1505 1.390 . S
C1507 C1508 1.387 . S
C1507 H1510 0.950 . S
C1508 C1507 1.387 . S
C1508 C1511 1.387 . S
H1509 C1505 0.954 . S
H1510 C1507 0.950 . S
C1511 C1502 1.390 . S
C1511 H1504 0.950 . S
C1511 C1508 1.387 . S
C1512 C1513 1.387 . S
C1512 H1516 0.950 . S
C1512 C1521 1.390 . S
C1513 C1512 1.387 . S
C1513 C1515 1.387 . S
H1514 C1521 0.950 . S
C1515 C1513 1.387 . S
C1515 C1517 1.390 . S
C1515 H1519 0.950 . S
H1516 C1512 0.950 . S
C1517 C1515 1.390 . S
C1517 C1518 1.387 . S
C1517 H1520 0.950 . S
C1518 C1517 1.387 . S
C1518 C1521 1.387 . S
H1519 C1515 0.950 . S
H1520 C1517 0.950 . S
C1521 C1512 1.390 . S
C1521 H1514 0.950 . S
C1521 C1518 1.387 . S
C1522 C1523 1.387 . S
C1522 H1526 0.950 . S
C1522 C1531 1.390 . S
C1523 C1522 1.387 . S
C1523 C1525 1.387 . S
H1524 C1531 0.950 1_554 S
C1525 C1523 1.387 . S
C1525 C1527 1.390 . S
C1525 H1529 0.950 . S
H1526 C1522 0.950 . S
C1527 C1525 1.390 . S
C1527 C1528 1.387 . S
C1527 H1530 0.950 . S
C1528 C1527 1.387 . S
C1528 C1531 1.387 . S
H1529 C1525 0.950 . S
H1530 C1527 0.950 . S
C1531 C1522 1.390 . S
C1531 H1524 0.950 1_556 S
C1531 C1528 1.387 . S
C1532 C1533 1.387 . S
C1532 H1536 0.950 . S
C1532 C1541 1.390 . S
C1533 C1532 1.387 . S
C1533 C1535 1.388 1_565 S
H1534 C1541 0.950 . S
C1535 C1533 1.388 1_545 S
C1535 C1537 1.390 . S
C1535 H1539 0.950 . S
H1536 C1532 0.950 . S
C1537 C1535 1.390 . S
C1537 C1538 1.387 1_545 S
C1537 H1540 0.950 . S
C1538 C1537 1.387 1_565 S
C1538 C1541 1.387 . S
H1539 C1535 0.950 . S
H1540 C1537 0.950 . S
C1541 C1532 1.390 . S
C1541 H1534 0.950 . S
C1541 C1538 1.387 . S
C1542 C1543 1.387 . S
C1542 H1546 0.950 . S
C1542 C1551 1.390 . S
C1543 C1542 1.387 . S
C1543 C1545 1.387 . S
H1544 C1551 0.950 . S
C1545 C1543 1.387 . S
C1545 C1547 1.390 . S
C1545 H1549 0.950 . S
H1546 C1542 0.950 . S
C1547 C1545 1.390 . S
C1547 C1548 1.387 . S
C1547 H1550 0.950 . S
C1548 C1547 1.387 . S
C1548 C1551 1.387 . S
H1549 C1545 0.950 . S
H1550 C1547 0.950 . S
C1551 C1542 1.390 . S
C1551 H1544 0.950 . S
C1551 C1548 1.387 . S
C1552 C1553 1.387 . S
C1552 H1556 0.950 . S
C1552 C1561 1.390 . S
C1553 C1552 1.387 . S
C1553 C1555 1.387 . S
H1554 C1561 0.950 . S
C1555 C1553 1.387 . S
C1555 C1557 1.390 . S
C1555 H1559 0.950 . S
H1556 C1552 0.950 . S
C1557 C1555 1.390 . S
C1557 C1558 1.387 . S
C1557 H1560 0.950 . S
C1558 C1557 1.387 . S
C1558 C1561 1.387 . S
H1559 C1555 0.950 . S
H1560 C1557 0.950 . S
C1561 C1552 1.390 . S
C1561 H1554 0.950 . S
C1561 C1558 1.387 . S
C1562 C1563 1.387 . S
C1562 H1566 0.950 . S
C1562 C1571 1.390 . S
C1563 C1562 1.387 . S
C1563 C1565 1.387 . S
H1564 C1571 0.950 . S
C1565 C1563 1.387 . S
C1565 C1567 1.390 . S
C1565 H1569 0.950 . S
H1566 C1562 0.950 . S
C1567 C1565 1.390 . S
C1567 C1568 1.387 . S
C1567 H1570 0.950 . S
C1568 C1567 1.387 . S
C1568 C1571 1.387 . S
H1569 C1565 0.950 . S
H1570 C1567 0.950 . S
C1571 C1562 1.390 . S
C1571 H1564 0.950 . S
C1571 C1568 1.387 . S
C1572 C1573 1.387 . S
C1572 H1576 0.950 . S
C1572 C1581 1.390 . S
C1573 C1572 1.387 . S
C1573 C1575 1.387 . S
H1574 C1581 0.950 . S
C1575 C1573 1.387 . S
C1575 C1577 1.390 . S
C1575 H1579 0.950 . S
H1576 C1572 0.950 . S
C1577 C1575 1.390 . S
C1577 C1578 1.387 . S
C1577 H1580 0.950 1_655 S
C1578 C1577 1.387 . S
C1578 C1581 1.387 . S
H1579 C1575 0.950 . S
H1580 C1577 0.950 1_455 S
C1581 C1572 1.390 . S
C1581 H1574 0.950 . S
C1581 C1578 1.387 . S
C1582 C1583 1.386 1_554 S
C1582 H1586 0.950 . S
C1582 C1591 1.390 . S
C1583 C1582 1.386 1_556 S
C1583 C1585 1.389 . S
H1584 C1591 0.950 . S
C1585 C1583 1.389 . S
C1585 C1587 1.390 . S
C1585 H1589 0.950 . S
H1586 C1582 0.950 . S
C1587 C1585 1.390 . S
C1587 C1588 1.387 . S
C1587 H1590 0.950 . S
C1588 C1587 1.387 . S
C1588 C1591 1.387 1_556 S
H1589 C1585 0.950 . S
H1590 C1587 0.950 . S
C1591 C1582 1.390 . S
C1591 H1584 0.950 . S
C1591 C1588 1.387 1_554 S
C1592 C1593 1.387 . S
C1592 H1596 0.950 . S
C1592 C1601 1.390 . S
C1593 C1592 1.387 . S
C1593 C1595 1.387 . S
H1594 C1601 0.950 . S
C1595 C1593 1.387 . S
C1595 C1597 1.390 . S
C1595 H1599 0.950 . S
H1596 C1592 0.950 . S
C1597 C1595 1.390 . S
C1597 C1598 1.387 . S
C1597 H1600 0.950 . S
C1598 C1597 1.387 . S
C1598 C1601 1.387 . S
H1599 C1595 0.950 . S
H1600 C1597 0.950 . S
C1601 C1592 1.390 . S
C1601 H1594 0.950 . S
C1601 C1598 1.387 . S
C1602 C1603 1.387 . S
C1602 H1606 0.950 . S
C1602 C1611 1.390 . S
C1603 C1602 1.387 . S
C1603 C1605 1.387 . S
H1604 C1611 0.950 . S
C1605 C1603 1.387 . S
C1605 C1607 1.390 . S
C1605 H1609 0.950 . S
H1606 C1602 0.950 . S
C1607 C1605 1.390 . S
C1607 C1608 1.387 . S
C1607 H1610 0.950 . S
C1608 C1607 1.387 . S
C1608 C1611 1.387 . S
H1609 C1605 0.950 . S
H1610 C1607 0.950 . S
C1611 C1602 1.390 . S
C1611 H1604 0.950 . S
C1611 C1608 1.387 . S
C1612 C1613 1.387 . S
C1612 H1616 0.950 . S
C1612 C1621 1.390 . S
C1613 C1612 1.387 . S
C1613 C1615 1.387 . S
H1614 C1621 0.950 . S
C1615 C1613 1.387 . S
C1615 C1617 1.390 . S
C1615 H1619 0.950 . S
H1616 C1612 0.950 . S
C1617 C1615 1.390 . S
C1617 C1618 1.387 . S
C1617 H1620 0.950 1_565 S
C1618 C1617 1.387 . S
C1618 C1621 1.387 . S
H1619 C1615 0.950 . S
H1620 C1617 0.950 1_545 S
C1621 C1612 1.390 . S
C1621 H1614 0.950 . S
C1621 C1618 1.387 . S
C1622 C1623 1.390 1_455 S
C1622 H1626 0.950 . S
C1622 C1631 1.390 . S
C1623 C1622 1.390 1_655 S
C1623 C1625 1.385 . S
H1624 C1631 0.950 . S
C1625 C1623 1.385 . S
C1625 C1627 1.390 . S
C1625 H1629 0.950 . S
H1626 C1622 0.950 . S
C1627 C1625 1.390 . S
C1627 C1628 1.387 . S
C1627 H1630 0.950 . S
C1628 C1627 1.387 . S
C1628 C1631 1.387 1_655 S
H1629 C1625 0.950 . S
H1630 C1627 0.950 . S
C1631 C1622 1.390 . S
C1631 H1624 0.950 . S
C1631 C1628 1.387 1_455 S
C1632 C1633 1.387 . S
C1632 H1636 0.950 . S
C1632 C1641 1.390 . S
C1633 C1632 1.387 . S
C1633 C1635 1.387 . S
H1634 C1641 0.950 . S
C1635 C1633 1.387 . S
C1635 C1637 1.390 . S
C1635 H1639 0.950 . S
H1636 C1632 0.950 . S
C1637 C1635 1.390 . S
C1637 C1638 1.387 . S
C1637 H1640 0.950 . S
C1638 C1637 1.387 . S
C1638 C1641 1.387 . S
H1639 C1635 0.950 . S
H1640 C1637 0.950 . S
C1641 C1632 1.390 . S
C1641 H1634 0.950 . S
C1641 C1638 1.387 . S
C1642 C1643 1.387 . S
C1642 H1646 0.950 . S
C1642 C1651 1.390 . S
C1643 C1642 1.387 . S
C1643 C1645 1.387 . S
H1644 C1651 0.950 . S
C1645 C1643 1.387 . S
C1645 C1647 1.390 . S
C1645 H1649 0.950 . S
H1646 C1642 0.950 . S
C1647 C1645 1.390 . S
C1647 C1648 1.387 . S
C1647 H1650 0.950 . S
C1648 C1647 1.387 . S
C1648 C1651 1.387 . S
H1649 C1645 0.950 . S
H1650 C1647 0.950 . S
C1651 C1642 1.390 . S
C1651 H1644 0.950 . S
C1651 C1648 1.387 . S
C1652 C1653 1.388 . S
C1652 H1656 0.950 . S
C1652 C1661 1.390 . S
C1653 C1652 1.388 . S
C1653 C1655 1.387 1_545 S
H1654 C1661 0.950 . S
C1655 C1653 1.387 1_565 S
C1655 C1657 1.390 . S
C1655 H1659 0.950 . S
H1656 C1652 0.950 . S
C1657 C1655 1.390 . S
C1657 C1658 1.387 1_565 S
C1657 H1660 0.950 . S
C1658 C1657 1.387 1_545 S
C1658 C1661 1.387 . S
H1659 C1655 0.950 . S
H1660 C1657 0.950 . S
C1661 C1652 1.390 . S
C1661 H1654 0.950 . S
C1661 C1658 1.387 . S
C1662 C1663 1.387 . S
C1662 H1666 0.950 . S
C1662 C1671 1.390 . S
C1663 C1662 1.387 . S
C1663 C1665 1.387 . S
H1664 C1671 0.950 . S
C1665 C1663 1.387 . S
C1665 C1667 1.390 . S
C1665 H1669 0.950 . S
H1666 C1662 0.950 . S
C1667 C1665 1.390 . S
C1667 C1668 1.387 . S
C1667 H1670 0.950 . S
C1668 C1667 1.387 . S
C1668 C1671 1.387 . S
H1669 C1665 0.950 . S
H1670 C1667 0.950 . S
C1671 C1662 1.390 . S
C1671 H1664 0.950 . S
C1671 C1668 1.387 . S
C1672 C1673 1.387 . S
C1672 H1676 0.950 . S
C1672 C1681 1.390 . S
C1673 C1672 1.387 . S
C1673 C1675 1.387 . S
H1674 C1681 0.950 . S
C1675 C1673 1.387 . S
C1675 C1677 1.390 . S
C1675 H1679 0.950 . S
H1676 C1672 0.950 . S
C1677 C1675 1.390 . S
C1677 C1678 1.387 . S
C1677 H1680 0.950 . S
C1678 C1677 1.387 . S
C1678 C1681 1.387 . S
H1679 C1675 0.950 . S
H1680 C1677 0.950 . S
C1681 C1672 1.390 . S
C1681 H1674 0.950 . S
C1681 C1678 1.387 . S
C1682 C1683 1.387 . S
C1682 H1686 0.950 . S
C1682 C1691 1.390 . S
C1683 C1682 1.387 . S
C1683 C1685 1.387 . S
H1684 C1691 0.950 . S
C1685 C1683 1.387 . S
C1685 C1687 1.390 . S
C1685 H1689 0.950 . S
H1686 C1682 0.950 . S
C1687 C1685 1.390 . S
C1687 C1688 1.387 . S
C1687 H1690 0.950 . S
C1688 C1687 1.387 . S
C1688 C1691 1.387 . S
H1689 C1685 0.950 . S
H1690 C1687 0.950 . S
C1691 C1682 1.390 . S
C1691 H1684 0.950 . S
C1691 C1688 1.387 . S
C1692 C1693 1.387 . S
C1692 H1696 0.950 . S
C1692 C1701 1.390 . S
C1693 C1692 1.387 . S
C1693 C1695 1.387 . S
H1694 C1701 0.950 . S
C1695 C1693 1.387 . S
C1695 C1697 1.390 . S
C1695 H1699 0.950 . S
H1696 C1692 0.950 . S
C1697 C1695 1.390 . S
C1697 C1698 1.387 . S
C1697 H1700 0.950 . S
C1698 C1697 1.387 . S
C1698 C1701 1.387 . S
H1699 C1695 0.950 . S
H1700 C1697 0.950 . S
C1701 C1692 1.390 . S
C1701 H1694 0.950 . S
C1701 C1698 1.387 . S
C1702 C1703 1.388 . S
C1702 H1706 0.950 . S
C1702 C1711 1.390 . S
C1703 C1702 1.388 . S
C1703 C1705 1.387 1_554 S
H1704 C1711 0.950 . S
C1705 C1703 1.387 1_556 S
C1705 C1707 1.390 . S
C1705 H1709 0.950 . S
H1706 C1702 0.950 . S
C1707 C1705 1.390 . S
C1707 C1708 1.387 1_556 S
C1707 H1710 0.950 . S
C1708 C1707 1.387 1_554 S
C1708 C1711 1.387 . S
H1709 C1705 0.950 . S
H1710 C1707 0.950 . S
C1711 C1702 1.390 . S
C1711 H1704 0.950 . S
C1711 C1708 1.387 . S
C1712 C1713 1.387 . S
C1712 H1716 0.950 . S
C1712 C1721 1.390 . S
C1713 C1712 1.387 . S
C1713 C1715 1.387 . S
H1714 C1721 0.950 . S
C1715 C1713 1.387 . S
C1715 C1717 1.390 . S
C1715 H1719 0.950 . S
H1716 C1712 0.950 . S
C1717 C1715 1.390 . S
C1717 C1718 1.387 . S
C1717 H1720 0.950 . S
C1718 C1717 1.387 . S
C1718 C1721 1.387 . S
H1719 C1715 0.950 . S
H1720 C1717 0.950 . S
C1721 C1712 1.390 . S
C1721 H1714 0.950 . S
C1721 C1718 1.387 . S
C1722 C1723 1.387 . S
C1722 H1726 0.950 . S
C1722 C1731 1.390 . S
C1723 C1722 1.387 . S
C1723 C1725 1.387 . S
H1724 C1731 0.950 . S
C1725 C1723 1.387 . S
C1725 C1727 1.390 . S
C1725 H1729 0.950 . S
H1726 C1722 0.950 . S
C1727 C1725 1.390 . S
C1727 C1728 1.387 . S
C1727 H1730 0.950 . S
C1728 C1727 1.387 . S
C1728 C1731 1.387 . S
H1729 C1725 0.950 . S
H1730 C1727 0.950 . S
C1731 C1722 1.390 . S
C1731 H1724 0.950 . S
C1731 C1728 1.387 . S
C1732 C1733 1.387 . S
C1732 H1736 0.950 . S
C1732 C1741 1.390 . S
C1733 C1732 1.387 . S
C1733 C1735 1.387 . S
H1734 C1741 0.950 1_565 S
C1735 C1733 1.387 . S
C1735 C1737 1.390 . S
C1735 H1739 0.950 . S
H1736 C1732 0.950 . S
C1737 C1735 1.390 . S
C1737 C1738 1.387 . S
C1737 H1740 0.950 . S
C1738 C1737 1.387 . S
C1738 C1741 1.387 . S
H1739 C1735 0.950 . S
H1740 C1737 0.950 . S
C1741 C1732 1.390 . S
C1741 H1734 0.950 1_545 S
C1741 C1738 1.387 . S
C1742 C1743 1.388 1_655 S
C1742 H1746 0.950 . S
C1742 C1751 1.390 . S
C1743 C1742 1.388 1_455 S
C1743 C1745 1.387 . S
H1744 C1751 0.950 . S
C1745 C1743 1.387 . S
C1745 C1747 1.390 . S
C1745 H1749 0.950 . S
H1746 C1742 0.950 . S
C1747 C1745 1.390 . S
C1747 C1748 1.387 . S
C1747 H1750 0.950 . S
C1748 C1747 1.387 . S
C1748 C1751 1.387 1_455 S
H1749 C1745 0.950 . S
H1750 C1747 0.950 . S
C1751 C1742 1.390 . S
C1751 H1744 0.950 . S
C1751 C1748 1.387 1_655 S
C1752 C1753 1.387 . S
C1752 H1756 0.950 . S
C1752 C1761 1.390 . S
C1753 C1752 1.387 . S
C1753 C1755 1.387 . S
H1754 C1761 0.950 . S
C1755 C1753 1.387 . S
C1755 C1757 1.390 . S
C1755 H1759 0.950 . S
H1756 C1752 0.950 . S
C1757 C1755 1.390 . S
C1757 C1758 1.387 . S
C1757 H1760 0.950 . S
C1758 C1757 1.387 . S
C1758 C1761 1.387 . S
H1759 C1755 0.950 . S
H1760 C1757 0.950 . S
C1761 C1752 1.390 . S
C1761 H1754 0.950 . S
C1761 C1758 1.387 . S
C1762 C1763 1.387 . S
C1762 H1766 0.950 . S
C1762 C1771 1.390 . S
C1763 C1762 1.387 . S
C1763 C1765 1.387 . S
H1764 C1771 0.950 . S
C1765 C1763 1.387 . S
C1765 C1767 1.390 . S
C1765 H1769 0.950 . S
H1766 C1762 0.950 . S
C1767 C1765 1.390 . S
C1767 C1768 1.387 . S
C1767 H1770 0.950 . S
C1768 C1767 1.387 . S
C1768 C1771 1.387 . S
H1769 C1765 0.950 . S
H1770 C1767 0.950 . S
C1771 C1762 1.390 . S
C1771 H1764 0.950 . S
C1771 C1768 1.387 . S
C1772 C1773 1.387 1_545 S
C1772 H1776 0.950 . S
C1772 C1781 1.409 . S
C1773 C1772 1.387 1_565 S
C1773 C1775 1.387 . S
H1774 C1781 0.966 . S
C1775 C1773 1.387 . S
C1775 C1777 1.390 . S
C1775 H1779 0.950 . S
H1776 C1772 0.950 . S
C1777 C1775 1.390 . S
C1777 C1778 1.387 . S
C1777 H1780 0.950 . S
C1778 C1777 1.387 . S
C1778 C1781 1.355 1_565 S
H1779 C1775 0.950 . S
H1780 C1777 0.950 . S
C1781 C1772 1.409 . S
C1781 H1774 0.966 . S
C1781 C1778 1.355 1_545 S
C1782 C1783 1.387 . S
C1782 H1786 0.950 . S
C1782 C1791 1.390 . S
C1783 C1782 1.387 . S
C1783 C1785 1.407 . S
H1784 C1791 0.950 . S
C1785 C1783 1.407 . S
C1785 C1787 1.391 1_545 S
C1785 H1789 0.930 1_545 S
H1786 C1782 0.950 . S
C1787 C1785 1.391 1_565 S
C1787 C1788 1.387 1_565 S
C1787 H1790 0.950 . S
C1788 C1787 1.387 1_545 S
C1788 C1791 1.387 . S
H1789 C1785 0.930 1_565 S
H1790 C1787 0.950 . S
C1791 C1782 1.390 . S
C1791 H1784 0.950 . S
C1791 C1788 1.387 . S
C1792 C1793 1.387 . S
C1792 H1796 0.950 . S
C1792 C1801 1.390 . S
C1793 C1792 1.387 . S
C1793 C1795 1.387 . S
H1794 C1801 0.950 . S
C1795 C1793 1.387 . S
C1795 C1797 1.390 . S
C1795 H1799 0.950 . S
H1796 C1792 0.950 . S
C1797 C1795 1.390 . S
C1797 C1798 1.387 . S
C1797 H1800 0.950 . S
C1798 C1797 1.387 . S
C1798 C1801 1.387 . S
H1799 C1795 0.950 . S
H1800 C1797 0.950 . S
C1801 C1792 1.390 . S
C1801 H1794 0.950 . S
C1801 C1798 1.387 . S
C1802 C1803 1.387 . S
C1802 H1806 0.950 . S
C1802 C1811 1.390 . S
C1803 C1802 1.387 . S
C1803 C1805 1.387 1_554 S
H1804 C1811 0.950 . S
C1805 C1803 1.387 1_556 S
C1805 C1807 1.390 . S
C1805 H1809 0.950 . S
H1806 C1802 0.950 . S
C1807 C1805 1.390 . S
C1807 C1808 1.387 1_556 S
C1807 H1810 0.950 . S
C1808 C1807 1.387 1_554 S
C1808 C1811 1.387 . S
H1809 C1805 0.950 . S
H1810 C1807 0.950 . S
C1811 C1802 1.390 . S
C1811 H1804 0.950 . S
C1811 C1808 1.387 . S
C1812 C1813 1.387 . S
C1812 H1816 0.950 . S
C1812 C1821 1.390 . S
C1813 C1812 1.387 . S
C1813 C1815 1.387 . S
H1814 C1821 0.950 . S
C1815 C1813 1.387 . S
C1815 C1817 1.390 . S
C1815 H1819 0.950 . S
H1816 C1812 0.950 . S
C1817 C1815 1.390 . S
C1817 C1818 1.387 . S
C1817 H1820 0.950 . S
C1818 C1817 1.387 . S
C1818 C1821 1.387 . S
H1819 C1815 0.950 . S
H1820 C1817 0.950 . S
C1821 C1812 1.390 . S
C1821 H1814 0.950 . S
C1821 C1818 1.387 . S
C1822 C1823 1.387 1_554 S
C1822 H1826 0.950 . S
C1822 C1831 1.390 . S
C1823 C1822 1.387 1_556 S
C1823 C1825 1.387 . S
H1824 C1831 0.950 . S
C1825 C1823 1.387 . S
C1825 C1827 1.390 . S
C1825 H1829 0.950 . S
H1826 C1822 0.950 . S
C1827 C1825 1.390 . S
C1827 C1828 1.387 . S
C1827 H1830 0.950 . S
C1828 C1827 1.387 . S
C1828 C1831 1.387 1_556 S
H1829 C1825 0.950 . S
H1830 C1827 0.950 . S
C1831 C1822 1.390 . S
C1831 H1824 0.950 . S
C1831 C1828 1.387 1_554 S
C1832 C1833 1.387 . S
C1832 H1836 0.950 . S
C1832 C1841 1.390 . S
C1833 C1832 1.387 . S
C1833 C1835 1.387 . S
H1834 C1841 0.950 . S
C1835 C1833 1.387 . S
C1835 C1837 1.390 . S
C1835 H1839 0.950 . S
H1836 C1832 0.950 . S
C1837 C1835 1.390 . S
C1837 C1838 1.387 . S
C1837 H1840 0.950 . S
C1838 C1837 1.387 . S
C1838 C1841 1.387 . S
H1839 C1835 0.950 . S
H1840 C1837 0.950 . S
C1841 C1832 1.390 . S
C1841 H1834 0.950 . S
C1841 C1838 1.387 . S
C1842 C1843 1.387 . S
C1842 H1846 0.950 . S
C1842 C1851 1.390 . S
C1843 C1842 1.387 . S
C1843 C1845 1.387 . S
H1844 C1851 0.950 . S
C1845 C1843 1.387 . S
C1845 C1847 1.390 . S
C1845 H1849 0.950 . S
H1846 C1842 0.950 . S
C1847 C1845 1.390 . S
C1847 C1848 1.387 . S
C1847 H1850 0.950 . S
C1848 C1847 1.387 . S
C1848 C1851 1.387 . S
H1849 C1845 0.950 . S
H1850 C1847 0.950 . S
C1851 C1842 1.390 . S
C1851 H1844 0.950 . S
C1851 C1848 1.387 . S
C1852 C1853 1.387 . S
C1852 H1856 0.950 . S
C1852 C1861 1.390 . S
C1853 C1852 1.387 . S
C1853 C1855 1.387 . S
H1854 C1861 0.950 . S
C1855 C1853 1.387 . S
C1855 C1857 1.390 . S
C1855 H1859 0.950 . S
H1856 C1852 0.950 . S
C1857 C1855 1.390 . S
C1857 C1858 1.387 . S
C1857 H1860 0.950 . S
C1858 C1857 1.387 . S
C1858 C1861 1.387 . S
H1859 C1855 0.950 . S
H1860 C1857 0.950 . S
C1861 C1852 1.390 . S
C1861 H1854 0.950 . S
C1861 C1858 1.387 . S
C1862 C1863 1.387 . S
C1862 H1866 0.954 . S
C1862 C1871 1.390 . S
C1863 C1862 1.387 . S
C1863 C1865 1.387 . S
H1864 C1871 0.950 . S
C1865 C1863 1.387 . S
C1865 C1867 1.390 . S
C1865 H1869 0.950 . S
H1866 C1862 0.954 . S
C1867 C1865 1.390 . S
C1867 C1868 1.387 . S
C1867 H1870 0.950 . S
C1868 C1867 1.387 . S
C1868 C1871 1.387 . S
H1869 C1865 0.950 . S
H1870 C1867 0.950 . S
C1871 C1862 1.390 . S
C1871 H1864 0.950 . S
C1871 C1868 1.387 . S
C1872 C1873 1.387 . S
C1872 H1876 0.950 . S
C1872 C1881 1.390 . S
C1873 C1872 1.387 . S
C1873 C1875 1.387 . S
H1874 C1881 0.950 . S
C1875 C1873 1.387 . S
C1875 C1877 1.390 . S
C1875 H1879 0.950 . S
H1876 C1872 0.950 . S
C1877 C1875 1.390 . S
C1877 C1878 1.387 . S
C1877 H1880 0.950 . S
C1878 C1877 1.387 . S
C1878 C1881 1.387 . S
H1879 C1875 0.950 . S
H1880 C1877 0.950 . S
C1881 C1872 1.390 . S
C1881 H1874 0.950 . S
C1881 C1878 1.387 . S
C1882 C1883 1.387 . S
C1882 H1886 0.950 . S
C1882 C1891 1.390 . S
C1883 C1882 1.387 . S
C1883 C1885 1.387 . S
H1884 C1891 0.950 . S
C1885 C1883 1.387 . S
C1885 C1887 1.390 . S
C1885 H1889 0.950 . S
H1886 C1882 0.950 . S
C1887 C1885 1.390 . S
C1887 C1888 1.387 . S
C1887 H1890 0.950 . S
C1888 C1887 1.387 . S
C1888 C1891 1.387 . S
H1889 C1885 0.950 . S
H1890 C1887 0.950 . S
C1891 C1882 1.390 . S
C1891 H1884 0.950 . S
C1891 C1888 1.387 . S
C1892 C1893 1.387 1_565 S
C1892 H1896 0.950 . S
C1892 C1901 1.390 . S
C1893 C1892 1.387 1_545 S
C1893 C1895 1.387 . S
H1894 C1901 0.950 . S
C1895 C1893 1.387 . S
C1895 C1897 1.390 . S
C1895 H1899 0.950 . S
H1896 C1892 0.950 . S
C1897 C1895 1.390 . S
C1897 C1898 1.387 . S
C1897 H1900 0.950 . S
C1898 C1897 1.387 . S
C1898 C1901 1.387 1_545 S
H1899 C1895 0.950 . S
H1900 C1897 0.950 . S
C1901 C1892 1.390 . S
C1901 H1894 0.950 . S
C1901 C1898 1.387 1_565 S
C1902 C1903 1.387 . S
C1902 H1906 0.950 . S
C1902 C1911 1.390 . S
C1903 C1902 1.387 . S
C1903 C1905 1.387 . S
H1904 C1911 0.950 . S
C1905 C1903 1.387 . S
C1905 C1907 1.390 . S
C1905 H1909 0.950 . S
H1906 C1902 0.950 . S
C1907 C1905 1.390 . S
C1907 C1908 1.387 . S
C1907 H1910 0.950 . S
C1908 C1907 1.387 . S
C1908 C1911 1.387 . S
H1909 C1905 0.950 . S
H1910 C1907 0.950 . S
C1911 C1902 1.390 . S
C1911 H1904 0.950 . S
C1911 C1908 1.387 . S
C1912 C1913 1.387 . S
C1912 H1916 0.950 . S
C1912 C1921 1.390 . S
C1913 C1912 1.387 . S
C1913 C1915 1.387 . S
H1914 C1921 0.950 . S
C1915 C1913 1.387 . S
C1915 C1917 1.390 . S
C1915 H1919 0.950 . S
H1916 C1912 0.950 . S
C1917 C1915 1.390 . S
C1917 C1918 1.387 . S
C1917 H1920 0.950 . S
C1918 C1917 1.387 . S
C1918 C1921 1.387 . S
H1919 C1915 0.950 . S
H1920 C1917 0.950 . S
C1921 C1912 1.390 . S
C1921 H1914 0.950 . S
C1921 C1918 1.387 . S
C1922 C1923 1.387 . S
C1922 H1926 0.950 . S
C1922 C1931 1.390 . S
C1923 C1922 1.387 . S
C1923 C1925 1.387 . S
H1924 C1931 0.935 1_554 S
C1925 C1923 1.387 . S
C1925 C1927 1.390 . S
C1925 H1929 0.950 . S
H1926 C1922 0.950 . S
C1927 C1925 1.390 . S
C1927 C1928 1.387 . S
C1927 H1930 0.950 . S
C1928 C1927 1.387 . S
C1928 C1931 1.387 . S
H1929 C1925 0.950 . S
H1930 C1927 0.950 . S
C1931 C1922 1.390 . S
C1931 H1924 0.935 1_556 S
C1931 C1928 1.387 . S
C1932 C1933 1.387 . S
C1932 H1936 0.950 . S
C1932 C1941 1.390 . S
C1933 C1932 1.387 . S
C1933 C1935 1.387 . S
H1934 C1941 0.950 . S
C1935 C1933 1.387 . S
C1935 C1937 1.390 . S
C1935 H1939 0.950 . S
H1936 C1932 0.950 . S
C1937 C1935 1.390 . S
C1937 C1938 1.387 . S
C1937 H1940 0.950 . S
C1938 C1937 1.387 . S
C1938 C1941 1.387 . S
H1939 C1935 0.950 . S
H1940 C1937 0.950 . S
C1941 C1932 1.390 . S
C1941 H1934 0.950 . S
C1941 C1938 1.387 . S
C1942 C1943 1.387 1_556 S
C1942 H1946 0.950 . S
C1942 C1951 1.390 . S
C1943 C1942 1.387 1_554 S
C1943 C1945 1.387 . S
H1944 C1951 0.950 . S
C1945 C1943 1.387 . S
C1945 C1947 1.390 . S
C1945 H1949 0.950 . S
H1946 C1942 0.950 . S
C1947 C1945 1.390 . S
C1947 C1948 1.387 . S
C1947 H1950 0.950 . S
C1948 C1947 1.387 . S
C1948 C1951 1.387 1_554 S
H1949 C1945 0.950 . S
H1950 C1947 0.950 . S
C1951 C1942 1.390 . S
C1951 H1944 0.950 . S
C1951 C1948 1.387 1_556 S
C1952 C1953 1.387 . S
C1952 H1956 0.950 . S
C1952 C1961 1.390 . S
C1953 C1952 1.387 . S
C1953 C1955 1.387 . S
H1954 C1961 0.950 . S
C1955 C1953 1.387 . S
C1955 C1957 1.390 . S
C1955 H1959 0.950 . S
H1956 C1952 0.950 . S
C1957 C1955 1.390 . S
C1957 C1958 1.387 . S
C1957 H1960 0.950 . S
C1958 C1957 1.387 . S
C1958 C1961 1.387 . S
H1959 C1955 0.950 . S
H1960 C1957 0.950 . S
C1961 C1952 1.390 . S
C1961 H1954 0.950 . S
C1961 C1958 1.387 . S
C1962 C1963 1.387 1_455 S
C1962 H1966 0.950 . S
C1962 C1971 1.390 . S
C1963 C1962 1.387 1_655 S
C1963 C1965 1.387 . S
H1964 C1971 0.950 . S
C1965 C1963 1.387 . S
C1965 C1967 1.390 . S
C1965 H1969 0.950 . S
H1966 C1962 0.950 . S
C1967 C1965 1.390 . S
C1967 C1968 1.387 . S
C1967 H1970 0.950 . S
C1968 C1967 1.387 . S
C1968 C1971 1.387 1_655 S
H1969 C1965 0.950 . S
H1970 C1967 0.950 . S
C1971 C1962 1.390 . S
C1971 H1964 0.950 . S
C1971 C1968 1.387 1_455 S
C1972 C1973 1.387 . S
C1972 H1976 0.950 . S
C1972 C1981 1.390 . S
C1973 C1972 1.387 . S
C1973 C1975 1.387 . S
H1974 C1981 0.950 . S
C1975 C1973 1.387 . S
C1975 C1977 1.390 . S
C1975 H1979 0.950 . S
H1976 C1972 0.950 . S
C1977 C1975 1.390 . S
C1977 C1978 1.387 . S
C1977 H1980 0.950 . S
C1978 C1977 1.387 . S
C1978 C1981 1.387 . S
H1979 C1975 0.950 . S
H1980 C1977 0.950 . S
C1981 C1972 1.390 . S
C1981 H1974 0.950 . S
C1981 C1978 1.387 . S
C1982 C1983 1.387 . S
C1982 H1986 0.950 . S
C1982 C1991 1.390 . S
C1983 C1982 1.387 . S
C1983 C1985 1.385 1_455 S
H1984 C1991 0.950 . S
C1985 C1983 1.385 1_655 S
C1985 C1987 1.377 1_655 S
C1985 H1989 0.966 . S
H1986 C1982 0.950 . S
C1987 C1985 1.377 1_455 S
C1987 C1988 1.387 . S
C1987 H1990 0.950 . S
C1988 C1987 1.387 . S
C1988 C1991 1.387 . S
H1989 C1985 0.966 . S
H1990 C1987 0.950 . S
C1991 C1982 1.390 . S
C1991 H1984 0.950 . S
C1991 C1988 1.387 . S
C1278 C1267 1.714 . S
C1273 C15 1.773 . S
C1288 C1228 1.751 . S
C1283 C55 1.609 . S
C1298 C1254 0.982 . S
C1293 C95 1.099 . S
C1308 C1241 1.604 . S
C1303 C135 1.598 . S
C1318 C1150 1.716 . S
C1313 C175 1.772 . S
C1323 C215 1.598 . S
C1328 C1163 1.604 . S
C1338 C1124 1.750 . S
C1333 C255 1.611 . S
C1343 C295 1.097 . S
C1348 C1137 0.977 . S
C1358 C1215 1.715 . S
C1353 C335 1.772 . S
C1363 C375 1.595 . S
C1368 C1189 1.603 . S
C1373 C415 1.608 . S
C1378 C1176 1.750 . S
C1388 C1202 0.984 . S
C1383 C455 1.100 . S
C1398 C1111 1.710 . S
C1393 C495 1.772 . S
C1403 C535 1.596 . S
C1408 C1072 1.748 . S
C1418 C1098 0.978 . S
C1413 C575 1.100 1_545 S
C1423 C615 1.596 . S
C1428 C1085 1.588 . S
C1438 C994 1.710 . S
C1433 C655 1.771 . S
C1448 C1007 1.590 . S
C1443 C695 1.599 . S
C1453 C735 1.598 . S
C1458 C968 1.748 . S
C1463 C775 1.100 1_554 S
C1468 C981 0.980 . S
C1473 C815 1.766 . S
C1478 C1059 1.717 . S
C1483 C855 1.599 . S
C1488 C1033 1.591 . S
C1498 C1020 1.747 . S
C1493 C895 1.598 . S
C1503 C935 1.100 1_455 S
C1508 C1046 0.978 . S
C1518 C969 1.616 . S
C1513 C21 1.675 . S
C1528 C982 1.845 . S
C1523 C61 1.939 . S
C1533 C101 0.964 . S
C1538 C995 0.972 . S
C1543 C141 1.075 . S
C1548 C1008 1.053 . S
C1558 C1021 1.616 . S
C1553 C181 1.675 . S
C1563 C221 1.075 . S
C1568 C1034 1.053 . S
C1578 C1047 1.847 . S
C1573 C261 1.938 . S
C1588 C1060 0.973 . S
C1583 C301 0.966 . S
C1598 C1073 1.616 . S
C1593 C341 1.675 . S
C1603 C381 1.075 . S
C1608 C1086 1.053 . S
C1613 C421 1.940 . S
C1618 C1099 1.846 . S
C1623 C461 0.966 . S
C1628 C1112 0.973 . S
C1633 C501 1.613 . S
C1638 C1125 1.614 . S
C1643 C541 1.737 . S
C1648 C1138 1.853 . S
C1653 C581 0.970 1_545 S
C1658 C1151 0.973 . S
C1663 C621 1.054 . S
C1668 C1164 1.054 . S
C1673 C661 1.613 . S
C1678 C1177 1.614 . S
C1688 C1190 1.059 . S
C1683 C701 1.050 . S
C1698 C1203 1.851 . S
C1693 C741 1.730 . S
C1708 C1216 0.973 . S
C1703 C781 0.970 1_554 S
C1718 C1229 1.616 . S
C1713 C821 1.616 . S
C1723 C861 1.052 . S
C1728 C1242 1.051 . S
C1733 C901 1.735 . S
C1738 C1255 1.852 . S
C1743 C941 0.968 1_455 S
C1748 C1268 0.972 . S
C1753 C2 1.644 . S
C1758 C1068 1.580 . S
C1768 C1107 1.691 . S
C1763 C42 1.814 . S
C1773 C82 1.565 . S
C1778 C1081 1.356 . S
C1788 C1094 1.685 . S
C1783 C122 1.637 . S
C1793 C162 1.643 . S
C1798 C964 1.581 . S
C1803 C202 1.637 . S
C1808 C977 1.685 . S
C1813 C242 1.820 . S
C1818 C990 1.688 . S
C1823 C282 1.565 . S
C1828 C1003 1.355 . S
C1838 C1016 1.580 . S
C1833 C322 1.643 . S
C1848 C1042 1.685 . S
C1843 C362 1.636 . S
C1853 C402 1.819 . S
C1858 C1055 1.687 . S
C1863 C442 1.565 . S
C1868 C1029 1.357 . S
C1878 C1224 1.552 . S
C1873 C482 1.620 . S
C1888 C1263 1.739 . S
C1883 C522 1.708 . S
C1893 C562 1.612 1_545 S
C1898 C1237 1.408 . S
C1908 C1250 1.620 . S
C1903 C602 1.627 . S
C1913 C642 1.619 . S
C1918 C1120 1.553 . S
C1923 C682 1.630 . S
C1928 C1133 1.617 . S
C1933 C722 1.715 . S
C1938 C1146 1.734 . S
C1948 C1159 1.410 . S
C1943 C762 1.612 1_554 S
C1958 C1172 1.551 . S
C1953 C802 1.620 . S
C1968 C1198 1.620 . S
C1963 C842 1.628 . S
C1973 C882 1.715 . S
C1978 C1211 1.733 . S
C1988 C1185 1.409 . S
C1983 C922 1.612 1_455 S
