# Generated by pormake.
# Topology ptr, (4,4)-cn, num edge types: 1
# Building blocks:
#     Node 0, Type 0, BuildingBlock: CEKHIL_clean_sbu_0, # of connection points: 4
#     Node 1, Type 0, BuildingBlock: CEKHIL_clean_sbu_0, # of connection points: 4
#     Node 2, Type 0, BuildingBlock: CEKHIL_clean_sbu_0, # of connection points: 4
#     Node 3, Type 0, BuildingBlock: CEKHIL_clean_sbu_0, # of connection points: 4
#     Node 4, Type 0, BuildingBlock: CEKHIL_clean_sbu_0, # of connection points: 4
#     Node 5, Type 0, BuildingBlock: CEKHIL_clean_sbu_0, # of connection points: 4
#     Node 6, Type 0, BuildingBlock: CEKHIL_clean_sbu_0, # of connection points: 4
#     Node 7, Type 0, BuildingBlock: CEKHIL_clean_sbu_0, # of connection points: 4
#     Node 8, Type 0, BuildingBlock: CEKHIL_clean_sbu_0, # of connection points: 4
#     Node 9, Type 0, BuildingBlock: CEKHIL_clean_sbu_0, # of connection points: 4
#     Node 10, Type 0, BuildingBlock: CEKHIL_clean_sbu_0, # of connection points: 4
#     Node 11, Type 0, BuildingBlock: CEKHIL_clean_sbu_0, # of connection points: 4
#     Node 12, Type 0, BuildingBlock: CEKHIL_clean_sbu_0, # of connection points: 4
#     Node 13, Type 0, BuildingBlock: CEKHIL_clean_sbu_0, # of connection points: 4
#     Node 14, Type 0, BuildingBlock: CEKHIL_clean_sbu_0, # of connection points: 4
#     Node 15, Type 0, BuildingBlock: CEKHIL_clean_sbu_0, # of connection points: 4
#     Node 16, Type 0, BuildingBlock: CEKHIL_clean_sbu_0, # of connection points: 4
#     Node 17, Type 0, BuildingBlock: CEKHIL_clean_sbu_0, # of connection points: 4
#     Node 18, Type 1, BuildingBlock: AZAVOO_clean_linker_0, # of connection points: 4
#     Node 19, Type 1, BuildingBlock: AZAVOO_clean_linker_0, # of connection points: 4
#     Node 20, Type 1, BuildingBlock: AZAVOO_clean_linker_0, # of connection points: 4
#     Node 21, Type 1, BuildingBlock: AZAVOO_clean_linker_0, # of connection points: 4
#     Node 22, Type 1, BuildingBlock: AZAVOO_clean_linker_0, # of connection points: 4
#     Node 23, Type 1, BuildingBlock: AZAVOO_clean_linker_0, # of connection points: 4
#     Node 24, Type 1, BuildingBlock: AZAVOO_clean_linker_0, # of connection points: 4
#     Node 25, Type 1, BuildingBlock: AZAVOO_clean_linker_0, # of connection points: 4
#     Node 26, Type 1, BuildingBlock: AZAVOO_clean_linker_0, # of connection points: 4
#     Node 27, Type 1, BuildingBlock: AZAVOO_clean_linker_0, # of connection points: 4
#     Node 28, Type 1, BuildingBlock: AZAVOO_clean_linker_0, # of connection points: 4
#     Node 29, Type 1, BuildingBlock: AZAVOO_clean_linker_0, # of connection points: 4
#     Node 30, Type 1, BuildingBlock: AZAVOO_clean_linker_0, # of connection points: 4
#     Node 31, Type 1, BuildingBlock: AZAVOO_clean_linker_0, # of connection points: 4
#     Node 32, Type 1, BuildingBlock: AZAVOO_clean_linker_0, # of connection points: 4
#     Node 33, Type 1, BuildingBlock: AZAVOO_clean_linker_0, # of connection points: 4
#     Node 34, Type 1, BuildingBlock: AZAVOO_clean_linker_0, # of connection points: 4
#     Node 35, Type 1, BuildingBlock: AZAVOO_clean_linker_0, # of connection points: 4
#     Edge 36, Type (0, 1), BuildingBlock: EZIPEK_clean_linker_0, # of connection points: 2
#     Edge 37, Type (0, 1), BuildingBlock: EZIPEK_clean_linker_0, # of connection points: 2
#     Edge 38, Type (0, 1), BuildingBlock: EZIPEK_clean_linker_0, # of connection points: 2
#     Edge 39, Type (0, 1), BuildingBlock: EZIPEK_clean_linker_0, # of connection points: 2
#     Edge 40, Type (0, 1), BuildingBlock: EZIPEK_clean_linker_0, # of connection points: 2
#     Edge 41, Type (0, 1), BuildingBlock: EZIPEK_clean_linker_0, # of connection points: 2
#     Edge 42, Type (0, 1), BuildingBlock: EZIPEK_clean_linker_0, # of connection points: 2
#     Edge 43, Type (0, 1), BuildingBlock: EZIPEK_clean_linker_0, # of connection points: 2
#     Edge 44, Type (0, 1), BuildingBlock: EZIPEK_clean_linker_0, # of connection points: 2
#     Edge 45, Type (0, 1), BuildingBlock: EZIPEK_clean_linker_0, # of connection points: 2
#     Edge 46, Type (0, 1), BuildingBlock: EZIPEK_clean_linker_0, # of connection points: 2
#     Edge 47, Type (0, 1), BuildingBlock: EZIPEK_clean_linker_0, # of connection points: 2
#     Edge 48, Type (0, 1), BuildingBlock: EZIPEK_clean_linker_0, # of connection points: 2
#     Edge 49, Type (0, 1), BuildingBlock: EZIPEK_clean_linker_0, # of connection points: 2
#     Edge 50, Type (0, 1), BuildingBlock: EZIPEK_clean_linker_0, # of connection points: 2
#     Edge 51, Type (0, 1), BuildingBlock: EZIPEK_clean_linker_0, # of connection points: 2
#     Edge 52, Type (0, 1), BuildingBlock: EZIPEK_clean_linker_0, # of connection points: 2
#     Edge 53, Type (0, 1), BuildingBlock: EZIPEK_clean_linker_0, # of connection points: 2
#     Edge 54, Type (0, 1), BuildingBlock: EZIPEK_clean_linker_0, # of connection points: 2
#     Edge 55, Type (0, 1), BuildingBlock: EZIPEK_clean_linker_0, # of connection points: 2
#     Edge 56, Type (0, 1), BuildingBlock: EZIPEK_clean_linker_0, # of connection points: 2
#     Edge 57, Type (0, 1), BuildingBlock: EZIPEK_clean_linker_0, # of connection points: 2
#     Edge 58, Type (0, 1), BuildingBlock: EZIPEK_clean_linker_0, # of connection points: 2
#     Edge 59, Type (0, 1), BuildingBlock: EZIPEK_clean_linker_0, # of connection points: 2
#     Edge 60, Type (0, 1), BuildingBlock: EZIPEK_clean_linker_0, # of connection points: 2
#     Edge 61, Type (0, 1), BuildingBlock: EZIPEK_clean_linker_0, # of connection points: 2
#     Edge 62, Type (0, 1), BuildingBlock: EZIPEK_clean_linker_0, # of connection points: 2
#     Edge 63, Type (0, 1), BuildingBlock: EZIPEK_clean_linker_0, # of connection points: 2
#     Edge 64, Type (0, 1), BuildingBlock: EZIPEK_clean_linker_0, # of connection points: 2
#     Edge 65, Type (0, 1), BuildingBlock: EZIPEK_clean_linker_0, # of connection points: 2
#     Edge 66, Type (0, 1), BuildingBlock: EZIPEK_clean_linker_0, # of connection points: 2
#     Edge 67, Type (0, 1), BuildingBlock: EZIPEK_clean_linker_0, # of connection points: 2
#     Edge 68, Type (0, 1), BuildingBlock: EZIPEK_clean_linker_0, # of connection points: 2
#     Edge 69, Type (0, 1), BuildingBlock: EZIPEK_clean_linker_0, # of connection points: 2
#     Edge 70, Type (0, 1), BuildingBlock: EZIPEK_clean_linker_0, # of connection points: 2
#     Edge 71, Type (0, 1), BuildingBlock: EZIPEK_clean_linker_0, # of connection points: 2
#     Edge 72, Type (0, 1), BuildingBlock: EZIPEK_clean_linker_0, # of connection points: 2
#     Edge 73, Type (0, 1), BuildingBlock: EZIPEK_clean_linker_0, # of connection points: 2
#     Edge 74, Type (0, 1), BuildingBlock: EZIPEK_clean_linker_0, # of connection points: 2
#     Edge 75, Type (0, 1), BuildingBlock: EZIPEK_clean_linker_0, # of connection points: 2
#     Edge 76, Type (0, 1), BuildingBlock: EZIPEK_clean_linker_0, # of connection points: 2
#     Edge 77, Type (0, 1), BuildingBlock: EZIPEK_clean_linker_0, # of connection points: 2
#     Edge 78, Type (0, 1), BuildingBlock: EZIPEK_clean_linker_0, # of connection points: 2
#     Edge 79, Type (0, 1), BuildingBlock: EZIPEK_clean_linker_0, # of connection points: 2
#     Edge 80, Type (0, 1), BuildingBlock: EZIPEK_clean_linker_0, # of connection points: 2
#     Edge 81, Type (0, 1), BuildingBlock: EZIPEK_clean_linker_0, # of connection points: 2
#     Edge 82, Type (0, 1), BuildingBlock: EZIPEK_clean_linker_0, # of connection points: 2
#     Edge 83, Type (0, 1), BuildingBlock: EZIPEK_clean_linker_0, # of connection points: 2
#     Edge 84, Type (0, 1), BuildingBlock: EZIPEK_clean_linker_0, # of connection points: 2
#     Edge 85, Type (0, 1), BuildingBlock: EZIPEK_clean_linker_0, # of connection points: 2
#     Edge 86, Type (0, 1), BuildingBlock: EZIPEK_clean_linker_0, # of connection points: 2
#     Edge 87, Type (0, 1), BuildingBlock: EZIPEK_clean_linker_0, # of connection points: 2
#     Edge 88, Type (0, 1), BuildingBlock: EZIPEK_clean_linker_0, # of connection points: 2
#     Edge 89, Type (0, 1), BuildingBlock: EZIPEK_clean_linker_0, # of connection points: 2
#     Edge 90, Type (0, 1), BuildingBlock: EZIPEK_clean_linker_0, # of connection points: 2
#     Edge 91, Type (0, 1), BuildingBlock: EZIPEK_clean_linker_0, # of connection points: 2
#     Edge 92, Type (0, 1), BuildingBlock: EZIPEK_clean_linker_0, # of connection points: 2
#     Edge 93, Type (0, 1), BuildingBlock: EZIPEK_clean_linker_0, # of connection points: 2
#     Edge 94, Type (0, 1), BuildingBlock: EZIPEK_clean_linker_0, # of connection points: 2
#     Edge 95, Type (0, 1), BuildingBlock: EZIPEK_clean_linker_0, # of connection points: 2
#     Edge 96, Type (0, 1), BuildingBlock: EZIPEK_clean_linker_0, # of connection points: 2
#     Edge 97, Type (0, 1), BuildingBlock: EZIPEK_clean_linker_0, # of connection points: 2
#     Edge 98, Type (0, 1), BuildingBlock: EZIPEK_clean_linker_0, # of connection points: 2
#     Edge 99, Type (0, 1), BuildingBlock: EZIPEK_clean_linker_0, # of connection points: 2
#     Edge 100, Type (0, 1), BuildingBlock: EZIPEK_clean_linker_0, # of connection points: 2
#     Edge 101, Type (0, 1), BuildingBlock: EZIPEK_clean_linker_0, # of connection points: 2
#     Edge 102, Type (0, 1), BuildingBlock: EZIPEK_clean_linker_0, # of connection points: 2
#     Edge 103, Type (0, 1), BuildingBlock: EZIPEK_clean_linker_0, # of connection points: 2
#     Edge 104, Type (0, 1), BuildingBlock: EZIPEK_clean_linker_0, # of connection points: 2
#     Edge 105, Type (0, 1), BuildingBlock: EZIPEK_clean_linker_0, # of connection points: 2
#     Edge 106, Type (0, 1), BuildingBlock: EZIPEK_clean_linker_0, # of connection points: 2
#     Edge 107, Type (0, 1), BuildingBlock: EZIPEK_clean_linker_0, # of connection points: 2
# Relax obj value: 0.055
# Max RMSD: 0.175
# Mean RMSD: 0.116
data_MOF--net-ptr--node1-CEKHIL_clean_sbu_0--node2-AZAVOO_clean_linker_0--edge1-EZIPEK_clean_linker_0
_symmetry_space_group_name_H-M    P1
_symmetry_Int_Tables_number       1
_symmetry_cell_setting            triclinic
loop_
_symmetry_equiv_pos_as_xyz
'x, y, z'
_cell_length_a     64.314351
_cell_length_b     62.023252
_cell_length_c     53.680103
_cell_angle_alpha  94.303204
_cell_angle_beta   92.066656
_cell_angle_gamma 121.26902
loop_
_atom_site_label
_atom_site_type_symbol
_atom_site_fract_x
_atom_site_fract_y
_atom_site_fract_z
_atom_type_partial_charge
Co0 Co 0.00876 0.36296 0.02493 0.0
O1 O 0.01785 0.34825 0.05017 0.0
O2 O 0.0435 0.38392 0.03441 0.0
C3 C 0.98537 0.32633 8e-05 0.0
O4 O 0.00625 0.38366 0.99847 0.0
Co5 Co 0.95461 0.34638 0.01277 0.0
O6 O 0.96698 0.36619 0.98378 0.0
C7 C 0.98255 0.3812 0.05817 0.0
C8 C 0.03999 0.3672 0.04966 0.0
C9 C 0.98965 0.38233 0.98318 0.0
O10 O 0.0022 0.38263 0.05161 0.0
O11 O 0.96149 0.36666 0.04627 0.0
O12 O 0.00885 0.33931 0.99872 0.0
O13 O 0.97711 0.33482 0.01726 0.0
Co14 Co 0.63501 0.61973 0.06999 0.0
O15 O 0.65895 0.63823 0.0474 0.0
O16 O 0.65569 0.60586 0.06557 0.0
C17 C 0.64037 0.65434 0.09306 0.0
O18 O 0.61314 0.59632 0.09476 0.0
Co19 Co 0.5892 0.62363 0.07309 0.0
O20 O 0.58295 0.60361 0.10193 0.0
C21 C 0.59395 0.5962 0.0287 0.0
C22 C 0.66695 0.62319 0.05055 0.0
C23 C 0.59473 0.59281 0.10651 0.0
O24 O 0.61196 0.59659 0.04041 0.0
O25 O 0.5836 0.60763 0.03764 0.0
O26 O 0.65462 0.64583 0.0977 0.0
O27 O 0.62452 0.64285 0.07389 0.0
Co28 Co 0.38376 0.00252 0.02222 0.0
O29 O 0.37084 0.01614 -0.00025 0.0
O30 O 0.40511 0.03901 0.02489 0.0
C31 C 0.34871 0.97677 0.03889 0.0
O32 O 0.40171 0.99456 0.04867 0.0
Co33 Co 0.36603 0.94534 0.01308 0.0
O34 O 0.38709 0.95249 0.04418 0.0
C35 C 0.39893 0.98003 0.97942 0.0
C36 C 0.38947 0.03821 0.0082 0.0
C37 C 0.40072 0.97464 0.05572 0.0
O38 O 0.40255 0.99875 0.9948 0.0
O39 O 0.38335 0.95685 0.98194 0.0
O40 O 0.36157 0.00082 0.04664 0.0
O41 O 0.35588 0.96973 0.01931 0.0
Co42 Co 0.9947 0.64252 0.05249 0.0
O43 O 0.98697 0.65577 0.02463 0.0
O44 O 0.95988 0.62326 0.0436 0.0
C45 C 0.02037 0.68068 0.07431 0.0
O46 O 0.99528 0.62374 0.08191 0.0
Co47 Co 0.04742 0.65508 0.06601 0.0
O48 O 0.03379 0.63567 0.09497 0.0
C49 C 0.01806 0.61877 0.02213 0.0
C50 C 0.96434 0.63838 0.02634 0.0
C51 C 0.01087 0.62269 0.09672 0.0
O52 O 0.9991 0.61902 0.02848 0.0
O53 O 0.03943 0.63312 0.0334 0.0
O54 O 0.99693 0.66971 0.07558 0.0
O55 O 0.02732 0.66915 0.05886 0.0
Co56 Co 0.36859 0.37525 0.00867 0.0
O57 O 0.34397 0.35891 0.03147 0.0
O58 O 0.35249 0.39397 0.01462 0.0
C59 C 0.3583 0.33929 0.98458 0.0
O60 O 0.39198 0.3972 0.98401 0.0
Co61 Co 0.40953 0.36336 0.00283 0.0
O62 O 0.41563 0.38188 0.9728 0.0
C63 C 0.41084 0.39412 0.04816 0.0
C64 C 0.33949 0.37681 0.02918 0.0
C65 C 0.40768 0.39666 0.9702 0.0
O66 O 0.39336 0.39573 0.03799 0.0
O67 O 0.41883 0.38077 0.03806 0.0
O68 O 0.34649 0.35073 0.98085 0.0
O69 O 0.37469 0.34899 0.00337 0.0
Co70 Co 0.62366 0.00894 0.05408 0.0
O71 O 0.63914 0.99703 0.07569 0.0
O72 O 0.60447 0.97231 0.05165 0.0
C73 C 0.65816 0.03619 0.03682 0.0
O74 O 0.60276 0.01359 0.0281 0.0
Co75 Co 0.63545 0.06297 0.06072 0.0
O76 O 0.61617 0.05496 0.0281 0.0
C77 C 0.6066 0.02949 0.0969 0.0
C78 C 0.62127 0.97435 0.06758 0.0
C79 C 0.60281 0.03203 0.0186 0.0
O80 O 0.60501 0.01104 0.08264 0.0
O81 O 0.61947 0.05262 0.0926 0.0
O82 O 0.64503 0.0123 0.02846 0.0
O83 O 0.651 0.04299 0.05665 0.0
Co84 Co 0.67205 0.69322 0.35296 0.0
O85 O 0.68174 0.68014 0.37941 0.0
O86 O 0.70649 0.71585 0.36325 0.0
C87 C 0.65054 0.65583 0.32879 0.0
O88 O 0.66879 0.71254 0.3254 0.0
Co89 Co 0.61745 0.6736 0.33893 0.0
O90 O 0.62953 0.69329 0.30984 0.0
C91 C 0.64315 0.7091 0.38454 0.0
C92 C 0.70348 0.69986 0.37921 0.0
C93 C 0.65202 0.71018 0.30955 0.0
O94 O 0.66357 0.71215 0.37847 0.0
O95 O 0.62252 0.69339 0.37235 0.0
O96 O 0.67404 0.66985 0.32795 0.0
O97 O 0.64118 0.6639 0.34508 0.0
Co98 Co 0.30251 0.95149 0.40128 0.0
O99 O 0.32668 0.96656 0.37775 0.0
O100 O 0.31455 0.92945 0.392 0.0
C101 C 0.31717 0.98714 0.42779 0.0
O102 O 0.27885 0.93003 0.42597 0.0
Co103 Co 0.26641 0.96924 0.41136 0.0
O104 O 0.25629 0.94637 0.43821 0.0
C105 C 0.26145 0.94043 0.36333 0.0
C106 C 0.32827 0.94656 0.37774 0.0
C107 C 0.26311 0.93052 0.43972 0.0
O108 O 0.27638 0.93458 0.37252 0.0
O109 O 0.25663 0.9559 0.3749 0.0
O110 O 0.32666 0.97314 0.42923 0.0
O111 O 0.30059 0.98026 0.40959 0.0
Co112 Co 0.04935 0.33743 0.35707 0.0
O113 O 0.03309 0.34742 0.33428 0.0
O114 O 0.0663 0.37415 0.35927 0.0
C115 C 0.01546 0.3081 0.37319 0.0
O116 O 0.0695 0.33281 0.38407 0.0
Co117 Co 0.03877 0.2827 0.34683 0.0
O118 O 0.06001 0.29212 0.3784 0.0
C119 C 0.07051 0.32066 0.31495 0.0
C120 C 0.04936 0.37068 0.3425 0.0
C121 C 0.07117 0.31413 0.39067 0.0
O122 O 0.07117 0.3376 0.33078 0.0
O123 O 0.05592 0.29691 0.31615 0.0
O124 O 0.02549 0.33202 0.38087 0.0
O125 O 0.02441 0.30314 0.35388 0.0
Co126 Co 0.65688 0.97107 0.38825 0.0
O127 O 0.65171 0.9859 0.3603 0.0
O128 O 0.62228 0.95553 0.37931 0.0
C129 C 0.68501 0.00831 0.40993 0.0
O130 O 0.65507 0.95123 0.41763 0.0
Co131 Co 0.70757 0.9781 0.40153 0.0
O132 O 0.69245 0.95934 0.43044 0.0
C133 C 0.67617 0.94341 0.35747 0.0
C134 C 0.62851 0.97082 0.36193 0.0
C135 C 0.66956 0.94832 0.43226 0.0
O136 O 0.65827 0.94546 0.36429 0.0
O137 O 0.69777 0.9563 0.36853 0.0
O138 O 0.66189 -0.0004 0.41126 0.0
O139 O 0.6903 0.9952 0.39451 0.0
Co140 Co 0.03238 0.71974 0.33913 0.0
O141 O 0.00778 0.70066 0.36118 0.0
O142 O 0.01424 0.736 0.3465 0.0
C143 C 0.02468 0.68566 0.31286 0.0
O144 O 0.05483 0.74407 0.31542 0.0
Co145 Co 0.07635 0.71315 0.33323 0.0
O146 O 0.08748 0.74031 0.31077 0.0
C147 C 0.07363 0.73846 0.37987 0.0
C148 C 0.00199 0.71777 0.36027 0.0
C149 C 0.07499 0.75023 0.30592 0.0
O150 O 0.05629 0.74001 0.36925 0.0
O151 O 0.08273 0.72637 0.36951 0.0
O152 O 0.01177 0.69607 0.31015 0.0
O153 O 0.04083 0.69527 0.33195 0.0
Co154 Co 0.28282 0.32211 0.37877 0.0
O155 O 0.30205 0.31524 0.40132 0.0
O156 O 0.26758 0.2859 0.37918 0.0
C157 C 0.31485 0.35085 0.35969 0.0
O158 O 0.25845 0.3214 0.35284 0.0
Co159 Co 0.28929 0.37502 0.38026 0.0
O160 O 0.26878 0.3613 0.34787 0.0
C161 C 0.26428 0.3426 0.41972 0.0
C162 C 0.28597 0.29142 0.39487 0.0
C163 C 0.25624 0.33751 0.34109 0.0
O164 O 0.26404 0.32394 0.40727 0.0
O165 O 0.27495 0.36509 0.41318 0.0
O166 O 0.30461 0.32674 0.35272 0.0
O167 O 0.30645 0.35689 0.37879 0.0
Co168 Co 0.34607 0.02318 0.68575 0.0
O169 O 0.3468 0.00567 0.71345 0.0
O170 O 0.37926 0.03906 0.70099 0.0
C171 C 0.32195 0.98758 0.65944 0.0
O172 O 0.3525 0.04605 0.65788 0.0
Co173 Co 0.29712 0.01588 0.6646 0.0
O174 O 0.31681 0.03802 0.6394 0.0
C175 C 0.32099 0.04693 0.71268 0.0
C176 C 0.37011 0.02183 0.71646 0.0
C177 C 0.34003 0.04973 0.64129 0.0
O178 O 0.3401 0.04595 0.70894 0.0
O179 O 0.30106 0.03448 0.69842 0.0
O180 O 0.3454 0.99717 0.66213 0.0
O181 O 0.31376 0.99866 0.67372 0.0
Co182 Co 0.97225 0.29185 0.73271 0.0
O183 O 0.99659 0.30806 0.70962 0.0
O184 O 0.98657 0.27174 0.72449 0.0
C185 C 0.98436 0.32731 0.7585 0.0
O186 O 0.94865 0.26967 0.7571 0.0
Co187 Co 0.93341 0.30643 0.74113 0.0
O188 O 0.92607 0.28587 0.76973 0.0
C189 C 0.92984 0.27618 0.69445 0.0
C190 C 0.99978 0.2891 0.71018 0.0
C191 C 0.93316 0.27024 0.77123 0.0
O192 O 0.94674 0.27317 0.70368 0.0
O193 O 0.92311 0.2903 0.70546 0.0
O194 O 0.99533 0.31481 0.76086 0.0
O195 O 0.96793 0.31914 0.73991 0.0
Co196 Co 0.71586 0.67192 0.6933 0.0
O197 O 0.7003 0.68287 0.67071 0.0
O198 O 0.73373 0.7086 0.6962 0.0
C199 C 0.68178 0.64309 0.70944 0.0
O200 O 0.73601 0.66708 0.72018 0.0
Co201 Co 0.70468 0.61681 0.68493 0.0
O202 O 0.72616 0.62633 0.71623 0.0
C203 C 0.73442 0.65315 0.65066 0.0
C204 C 0.71712 0.7058 0.67948 0.0
C205 C 0.73762 0.64868 0.72769 0.0
O206 O 0.73623 0.67113 0.66593 0.0
O207 O 0.72093 0.62964 0.65357 0.0
O208 O 0.69245 0.66701 0.71744 0.0
O209 O 0.69044 0.63771 0.69011 0.0
Co210 Co 0.32797 0.30483 0.71411 0.0
O211 O 0.31933 0.31741 0.68632 0.0
O212 O 0.29329 0.28374 0.70464 0.0
C213 C 0.35143 0.34307 0.7365 0.0
O214 O 0.32968 0.28649 0.74341 0.0
Co215 Co 0.38181 0.32138 0.72872 0.0
O216 O 0.3687 0.30126 0.75733 0.0
C217 C 0.35454 0.28423 0.68462 0.0
C218 C 0.29705 0.29906 0.68774 0.0
C219 C 0.34582 0.28672 0.75853 0.0
O220 O 0.3347 0.28302 0.69018 0.0
O221 O 0.37547 0.29959 0.69641 0.0
O222 O 0.32788 0.33064 0.73732 0.0
O223 O 0.35973 0.33293 0.7211 0.0
Co224 Co 0.70034 0.04444 0.67259 0.0
O225 O 0.67755 0.02914 0.6974 0.0
O226 O 0.68269 0.06161 0.67772 0.0
C227 C 0.69166 0.00761 0.65052 0.0
O228 O 0.72126 0.06477 0.64552 0.0
Co229 Co 0.7436 0.03574 0.66704 0.0
O230 O 0.74884 0.05381 0.63687 0.0
C231 C 0.74396 0.0674 0.71082 0.0
C232 C 0.67155 0.04579 0.69404 0.0
C233 C 0.73836 0.06602 0.63274 0.0
O234 O 0.72615 0.0681 0.70006 0.0
O235 O 0.75223 0.05394 0.70178 0.0
O236 O 0.67778 0.01685 0.6471 0.0
O237 O 0.70862 0.01985 0.66851 0.0
Co238 Co 0.95022 0.6642 0.71509 0.0
O239 O 0.96553 0.65221 0.73671 0.0
O240 O 0.93097 0.62751 0.71254 0.0
C241 C 0.98506 0.69165 0.69845 0.0
O242 O 0.92954 0.66932 0.68928 0.0
Co243 Co 0.96262 0.71858 0.72256 0.0
O244 O 0.94273 0.71075 0.69039 0.0
C245 C 0.93363 0.68446 0.7583 0.0
C246 C 0.94761 0.62955 0.72873 0.0
C247 C 0.92943 0.68796 0.68044 0.0
O248 O 0.93135 0.66603 0.74345 0.0
O249 O 0.94715 0.70771 0.75461 0.0
O250 O 0.9719 0.66789 0.68959 0.0
O251 O 0.97758 0.69811 0.7182 0.0
H252 H 0.17391 0.40046 0.00416 0.0
H253 H 0.29212 0.30883 0.21272 0.0
H254 H 0.16087 0.38977 0.15356 0.0
H255 H 0.13027 0.39671 0.133 0.0
H256 H 0.09582 0.32205 0.09234 0.0
H257 H 0.12641 0.3152 0.11276 0.0
H258 H 0.19155 0.39678 0.11096 0.0
H259 H 0.18668 0.40583 0.06826 0.0
H260 H 0.16544 0.32932 0.04017 0.0
H261 H 0.17041 0.32056 0.08299 0.0
H262 H 0.23745 0.39548 0.11876 0.0
H263 H 0.27066 0.40423 0.09204 0.0
H264 H 0.24635 0.32468 0.08341 0.0
H265 H 0.21305 0.31589 0.11012 0.0
H266 H 0.25456 0.38115 0.16667 0.0
H267 H 0.28752 0.37685 0.18485 0.0
H268 H 0.2365 0.29658 0.18674 0.0
H269 H 0.20379 0.30111 0.16837 0.0
H270 H 0.22556 0.37624 0.21007 0.0
H271 H 0.23587 0.3687 0.25164 0.0
H272 H 0.17235 0.29291 0.24159 0.0
H273 H 0.16248 0.30014 0.19938 0.0
H274 H 0.17869 0.38078 0.20592 0.0
H275 H 0.15449 0.37561 0.2418 0.0
H276 H 0.09918 0.30062 0.20848 0.0
H277 H 0.12357 0.30577 0.17253 0.0
O278 O 0.17605 0.39658 0.02084 0.0
O279 O 0.16599 0.35732 0.00724 0.0
O280 O 0.304 0.35279 0.20686 0.0
O281 O 0.27973 0.31083 0.20438 0.0
C282 C 0.1666 0.34963 0.14307 0.0
C283 C 0.18389 0.35248 0.12597 0.0
C284 C 0.20384 0.35021 0.13355 0.0
C285 C 0.20629 0.34455 0.15804 0.0
C286 C 0.18941 0.34238 0.17532 0.0
C287 C 0.16963 0.34503 0.16789 0.0
C288 C 0.14572 0.35195 0.13469 0.0
C289 C 0.14631 0.37468 0.14075 0.0
C290 C 0.12902 0.37867 0.12897 0.0
C291 C 0.11091 0.35988 0.11118 0.0
C292 C 0.10965 0.33669 0.10608 0.0
C293 C 0.12696 0.33275 0.11776 0.0
C294 C 0.18118 0.35799 0.10002 0.0
C295 C 0.1858 0.38201 0.09554 0.0
C296 C 0.18309 0.38713 0.07114 0.0
C297 C 0.17559 0.36826 0.0508 0.0
C298 C 0.17118 0.34425 0.0554 0.0
C299 C 0.174 0.33919 0.07981 0.0
C300 C 0.2229 0.35506 0.11629 0.0
C301 C 0.23913 0.37991 0.11086 0.0
C302 C 0.25801 0.38491 0.09574 0.0
C303 C 0.26079 0.36507 0.08588 0.0
C304 C 0.24432 0.34014 0.0909 0.0
C305 C 0.22546 0.33516 0.10607 0.0
C306 C 0.22683 0.34142 0.16612 0.0
C307 C 0.25066 0.36258 0.17057 0.0
C308 C 0.26939 0.3601 0.18115 0.0
C309 C 0.26457 0.33639 0.18744 0.0
C310 C 0.24082 0.3151 0.18217 0.0
C311 C 0.22212 0.31761 0.17161 0.0
C312 C 0.19345 0.33864 0.20166 0.0
C313 C 0.21377 0.35806 0.21687 0.0
C314 C 0.21962 0.35378 0.24049 0.0
C315 C 0.20502 0.33018 0.24938 0.0
C316 C 0.18388 0.31116 0.23482 0.0
C317 C 0.17822 0.31532 0.21093 0.0
C318 C 0.15279 0.34368 0.18665 0.0
C319 C 0.16108 0.36348 0.20607 0.0
C320 C 0.1474 0.36049 0.22652 0.0
C321 C 0.12521 0.33769 0.22774 0.0
C322 C 0.1163 0.31831 0.20776 0.0
C323 C 0.13005 0.32131 0.18726 0.0
C324 C 0.17225 0.37363 0.02496 0.0
C325 C 0.28404 0.33393 0.20004 0.0
H326 H 0.6142 0.77946 0.00479 0.0
H327 H 0.66343 0.98543 0.21158 0.0
H328 H 0.61424 0.77136 0.13923 0.0
H329 H 0.61343 0.73227 0.12525 0.0
H330 H 0.69073 0.76996 0.14644 0.0
H331 H 0.69159 0.80919 0.16042 0.0
H332 H 0.60791 0.80815 0.10932 0.0
H333 H 0.60332 0.79386 0.06462 0.0
H334 H 0.67984 0.81823 0.0681 0.0
H335 H 0.68423 0.83275 0.11271 0.0
H336 H 0.60329 0.84442 0.13894 0.0
H337 H 0.59393 0.8715 0.11577 0.0
H338 H 0.66906 0.91539 0.09893 0.0
H339 H 0.67834 0.88805 0.12189 0.0
H340 H 0.61364 0.85984 0.19547 0.0
H341 H 0.61061 0.89659 0.20923 0.0
H342 H 0.68376 0.94656 0.18869 0.0
H343 H 0.68644 0.90961 0.17485 0.0
H344 H 0.62472 0.82712 0.22886 0.0
H345 H 0.62874 0.84755 0.27138 0.0
H346 H 0.70109 0.90816 0.25954 0.0
H347 H 0.69715 0.88769 0.21722 0.0
H348 H 0.62105 0.77888 0.19653 0.0
H349 H 0.624 0.75285 0.22709 0.0
H350 H 0.70011 0.80975 0.24572 0.0
H351 H 0.69719 0.83585 0.21489 0.0
O352 O 0.61645 0.78542 0.02244 0.0
O353 O 0.65584 0.79811 0.02529 0.0
O354 O 0.62686 0.94409 0.21718 0.0
O355 O 0.66415 0.97058 0.20633 0.0
C356 C 0.65332 0.81644 0.1591 0.0
C357 C 0.64916 0.82987 0.1414 0.0
C358 C 0.6478 0.85115 0.14977 0.0
C359 C 0.65184 0.85976 0.17557 0.0
C360 C 0.6566 0.8467 0.19314 0.0
C361 C 0.65676 0.82467 0.18499 0.0
C362 C 0.653 0.79304 0.15061 0.0
C363 C 0.63099 0.77118 0.1408 0.0
C364 C 0.63049 0.74896 0.13304 0.0
C365 C 0.652 0.74843 0.13498 0.0
C366 C 0.67401 0.77018 0.14497 0.0
C367 C 0.67449 0.79243 0.15281 0.0
C368 C 0.64644 0.8217 0.11417 0.0
C369 C 0.62371 0.81064 0.10032 0.0
C370 C 0.62112 0.80238 0.07483 0.0
C371 C 0.64122 0.80493 0.06277 0.0
C372 C 0.66399 0.81602 0.07678 0.0
C373 C 0.66656 0.82433 0.10225 0.0
C374 C 0.64144 0.8643 0.13192 0.0
C375 C 0.61754 0.85941 0.12961 0.0
C376 C 0.61224 0.87482 0.11651 0.0
C377 C 0.63086 0.8954 0.10582 0.0
C378 C 0.65451 0.8995 0.10704 0.0
C379 C 0.65977 0.88395 0.12001 0.0
C380 C 0.65027 0.88214 0.18425 0.0
C381 C 0.62898 0.87876 0.19402 0.0
C382 C 0.62729 0.89976 0.2018 0.0
C383 C 0.64698 0.92453 0.20012 0.0
C384 C 0.6683 0.92777 0.19032 0.0
C385 C 0.66989 0.90673 0.1824 0.0
C386 C 0.66066 0.85601 0.22009 0.0
C387 C 0.6417 0.84438 0.23577 0.0
C388 C 0.64396 0.85598 0.25989 0.0
C389 C 0.66519 0.87927 0.26838 0.0
C390 C 0.68466 0.8901 0.25322 0.0
C391 C 0.68243 0.87849 0.22919 0.0
C392 C 0.6589 0.80922 0.20356 0.0
C393 C 0.6384 0.78567 0.20708 0.0
C394 C 0.64009 0.77085 0.22438 0.0
C395 C 0.6623 0.77938 0.23841 0.0
C396 C 0.6829 0.80286 0.23484 0.0
C397 C 0.6812 0.81774 0.21747 0.0
C398 C 0.63838 0.79599 0.03572 0.0
C399 C 0.6453 0.94691 0.20842 0.0
H400 H 0.14749 0.83122 0.99297 0.0
H401 H 0.33751 0.97418 0.23247 0.0
H402 H 0.1275 0.84155 0.12367 0.0
H403 H 0.08907 0.80265 0.10682 0.0
H404 H 0.11371 0.75736 0.13931 0.0
H405 H 0.15203 0.79613 0.15608 0.0
H406 H 0.17659 0.8819 0.0955 0.0
H407 H 0.16465 0.86711 0.05081 0.0
H408 H 0.16328 0.79825 0.06293 0.0
H409 H 0.17557 0.81343 0.10748 0.0
H410 H 0.22694 0.92646 0.12708 0.0
H411 H 0.26074 0.94802 0.10047 0.0
H412 H 0.26258 0.87965 0.08686 0.0
H413 H 0.22905 0.85818 0.11383 0.0
H414 H 0.22542 0.93471 0.18327 0.0
H415 H 0.2644 0.96869 0.20469 0.0
H416 H 0.29452 0.9209 0.19308 0.0
H417 H 0.2556 0.8873 0.17121 0.0
H418 H 0.18221 0.89937 0.21565 0.0
H419 H 0.19668 0.91463 0.26023 0.0
H420 H 0.24109 0.88123 0.25677 0.0
H421 H 0.22654 0.86588 0.21237 0.0
H422 H 0.13103 0.85172 0.18531 0.0
H423 H 0.1032 0.8289 0.21719 0.0
H424 H 0.14893 0.80033 0.23875 0.0
H425 H 0.17647 0.82278 0.20688 0.0
O426 O 0.15244 0.83682 0.01065 0.0
O427 O 0.15164 0.80159 0.01797 0.0
O428 O 0.30897 0.98817 0.22183 0.0
O429 O 0.32258 0.96177 0.22245 0.0
C430 C 0.16647 0.84471 0.14951 0.0
C431 C 0.18348 0.85751 0.13193 0.0
C432 C 0.20695 0.87853 0.14033 0.0
C433 C 0.21319 0.88692 0.16619 0.0
C434 C 0.19624 0.87399 0.18365 0.0
C435 C 0.17291 0.85297 0.17534 0.0
C436 C 0.14249 0.82158 0.14101 0.0
C437 C 0.12444 0.82324 0.12738 0.0
C438 C 0.1026 0.80117 0.11789 0.0
C439 C 0.09871 0.77727 0.12187 0.0
C440 C 0.11644 0.77568 0.13618 0.0
C441 C 0.13821 0.7977 0.14569 0.0
C442 C 0.17681 0.84869 0.10473 0.0
C443 C 0.17382 0.86369 0.08842 0.0
C444 C 0.16694 0.85516 0.06293 0.0
C445 C 0.16293 0.83145 0.05331 0.0
C446 C 0.16617 0.81657 0.06972 0.0
C447 C 0.17313 0.82517 0.09519 0.0
C448 C 0.22562 0.8908 0.12237 0.0
C449 C 0.23448 0.91607 0.11817 0.0
C450 C 0.25362 0.92829 0.10301 0.0
C451 C 0.26397 0.91531 0.09179 0.0
C452 C 0.25464 0.88981 0.09533 0.0
C453 C 0.23558 0.87764 0.11061 0.0
C454 C 0.2378 0.90867 0.17556 0.0
C455 C 0.24066 0.93188 0.18486 0.0
C456 C 0.26289 0.95118 0.19718 0.0
C457 C 0.28254 0.94746 0.20069 0.0
C458 C 0.27978 0.9244 0.19068 0.0
C459 C 0.25763 0.90523 0.17805 0.0
C460 C 0.20353 0.88175 0.21086 0.0
C461 C 0.19485 0.89515 0.22462 0.0
C462 C 0.20305 0.90379 0.2499 0.0
C463 C 0.21992 0.89901 0.26156 0.0
C464 C 0.22805 0.88501 0.24797 0.0
C465 C 0.21986 0.87639 0.22276 0.0
C466 C 0.15573 0.8389 0.19395 0.0
C467 C 0.13493 0.84045 0.19689 0.0
C468 C 0.1192 0.8276 0.215 0.0
C469 C 0.12423 0.81314 0.23022 0.0
C470 C 0.14494 0.81153 0.22716 0.0
C471 C 0.16056 0.82427 0.20908 0.0
C472 C 0.15534 0.82231 0.02628 0.0
C473 C 0.30551 0.96713 0.21549 0.0
H474 H 0.34474 0.20231 0.06127 0.0
H475 H 0.38529 0.04457 0.85499 0.0
H476 H 0.30677 0.18216 0.92733 0.0
H477 H 0.30675 0.22027 0.94376 0.0
H478 H 0.37847 0.26754 0.91905 0.0
H479 H 0.37822 0.22947 0.90215 0.0
H480 H 0.31879 0.147 0.96088 0.0
H481 H 0.32343 0.16392 0.00477 0.0
H482 H 0.39261 0.22994 0.99244 0.0
H483 H 0.38783 0.21265 0.94868 0.0
H484 H 0.32372 0.10402 0.93774 0.0
H485 H 0.3379 0.08194 0.96308 0.0
H486 H 0.41213 0.14461 0.96386 0.0
H487 H 0.39791 0.16678 0.93857 0.0
H488 H 0.31263 0.08863 0.88239 0.0
H489 H 0.31758 0.05281 0.87 0.0
H490 H 0.39572 0.10443 0.87264 0.0
H491 H 0.39047 0.13999 0.88512 0.0
H492 H 0.29882 0.11627 0.84787 0.0
H493 H 0.29234 0.09215 0.80683 0.0
H494 H 0.36988 0.13518 0.79983 0.0
H495 H 0.37639 0.15883 0.8411 0.0
H496 H 0.30083 0.17577 0.87115 0.0
H497 H 0.29714 0.2027 0.84196 0.0
H498 H 0.36803 0.22444 0.8178 0.0
H499 H 0.37211 0.1984 0.84746 0.0
O500 O 0.34346 0.19578 0.04397 0.0
O501 O 0.37878 0.22947 0.03657 0.0
O502 O 0.34251 0.0326 0.85883 0.0
O503 O 0.3828 0.05833 0.85999 0.0
C504 C 0.34375 0.18049 0.90626 0.0
C505 C 0.34942 0.16885 0.92479 0.0
C506 C 0.35196 0.14808 0.91765 0.0
C507 C 0.34817 0.13849 0.89216 0.0
C508 C 0.34227 0.14997 0.87374 0.0
C509 C 0.3404 0.17123 0.88068 0.0
C510 C 0.34256 0.20321 0.91375 0.0
C511 C 0.32225 0.20076 0.9251 0.0
C512 C 0.32222 0.22237 0.93436 0.0
C513 C 0.34269 0.24657 0.93272 0.0
C514 C 0.36257 0.24898 0.92046 0.0
C515 C 0.36245 0.22738 0.9109 0.0
C516 C 0.35294 0.17863 0.95165 0.0
C517 C 0.33501 0.16501 0.96778 0.0
C518 C 0.33768 0.17477 0.9928 0.0
C519 C 0.35836 0.19833 0.0021 0.0
C520 C 0.37645 0.21176 0.98588 0.0
C521 C 0.37377 0.20195 0.96089 0.0
C522 C 0.35982 0.13695 0.93648 0.0
C523 C 0.34295 0.11324 0.94394 0.0
C524 C 0.35101 0.10071 0.95828 0.0
C525 C 0.376 0.11175 0.9652 0.0
C526 C 0.39278 0.13597 0.95872 0.0
C527 C 0.38469 0.14856 0.94444 0.0
C528 C 0.3512 0.11681 0.88464 0.0
C529 C 0.33078 0.0921 0.88028 0.0
C530 C 0.33367 0.07171 0.87325 0.0
C531 C 0.35707 0.07576 0.87036 0.0
C532 C 0.37747 0.10063 0.87469 0.0
C533 C 0.37454 0.12097 0.88184 0.0
C534 C 0.33803 0.13934 0.84722 0.0
C535 C 0.3143 0.12093 0.83714 0.0
C536 C 0.31063 0.10721 0.81389 0.0
C537 C 0.33067 0.11204 0.80049 0.0
C538 C 0.35427 0.13144 0.80994 0.0
C539 C 0.35795 0.14491 0.83332 0.0
C540 C 0.33665 0.18495 0.86122 0.0
C541 C 0.31543 0.18615 0.85936 0.0
C542 C 0.31332 0.20143 0.8428 0.0
C543 C 0.33228 0.21534 0.82775 0.0
C544 C 0.35317 0.21363 0.82917 0.0
C545 C 0.35541 0.19867 0.84591 0.0
C546 C 0.36091 0.20887 0.02856 0.0
C547 C 0.36025 0.05421 0.86273 0.0
H548 H 0.83666 0.20453 0.07617 0.0
H549 H 0.68163 0.99416 0.86396 0.0
H550 H 0.84636 0.21147 0.94393 0.0
H551 H 0.88566 0.24952 0.9598 0.0
H552 H 0.92276 0.21014 0.94026 0.0
H553 H 0.88334 0.17195 0.92435 0.0
H554 H 0.80006 0.17213 0.97042 0.0
H555 H 0.81013 0.1875 0.0151 0.0
H556 H 0.86592 0.16838 0.01714 0.0
H557 H 0.85541 0.15268 0.97255 0.0
H558 H 0.75323 0.12487 0.93171 0.0
H559 H 0.72143 0.102 0.95967 0.0
H560 H 0.76959 0.08604 0.00144 0.0
H561 H 0.80069 0.10689 0.97188 0.0
H562 H 0.75529 0.12015 0.87737 0.0
H563 H 0.71713 0.08207 0.85968 0.0
H564 H 0.73868 0.03555 0.89534 0.0
H565 H 0.77695 0.07379 0.91268 0.0
H566 H 0.80031 0.1622 0.85551 0.0
H567 H 0.7859 0.14837 0.81085 0.0
H568 H 0.78996 0.08165 0.81669 0.0
H569 H 0.80472 0.09564 0.86125 0.0
H570 H 0.84408 0.20548 0.88783 0.0
H571 H 0.87082 0.23085 0.85665 0.0
H572 H 0.88614 0.17216 0.83653 0.0
H573 H 0.85941 0.14673 0.86792 0.0
O574 O 0.83285 0.19818 0.05855 0.0
O575 O 0.86146 0.18823 0.05853 0.0
O576 O 0.68836 0.03407 0.84963 0.0
O577 O 0.69643 0.00953 0.87104 0.0
C578 C 0.83833 0.16602 0.92399 0.0
C579 C 0.82108 0.1523 0.94101 0.0
C580 C 0.79814 0.13074 0.93192 0.0
C581 C 0.79274 0.12283 0.90584 0.0
C582 C 0.8099 0.137 0.88892 0.0
C583 C 0.83262 0.15859 0.898 0.0
C584 C 0.86208 0.18899 0.93326 0.0
C585 C 0.86296 0.21106 0.94307 0.0
C586 C 0.88527 0.2327 0.95192 0.0
C587 C 0.9069 0.23246 0.95104 0.0
C588 C 0.90614 0.21053 0.94092 0.0
C589 C 0.88379 0.18887 0.93198 0.0
C590 C 0.82693 0.16119 0.96827 0.0
C591 C 0.81432 0.1711 0.9806 0.0
C592 C 0.82017 0.17995 0.0061 0.0
C593 C 0.83884 0.17917 0.0197 0.0
C594 C 0.85144 0.16924 0.00724 0.0
C595 C 0.8455 0.16029 0.98177 0.0
C596 C 0.7792 0.11728 0.94948 0.0
C597 C 0.75679 0.11597 0.94652 0.0
C598 C 0.73875 0.10316 0.9626 0.0
C599 C 0.74312 0.09222 0.98254 0.0
C600 C 0.76581 0.09417 0.98603 0.0
C601 C 0.78355 0.10617 0.9693 0.0
C602 C 0.76901 0.09973 0.8961 0.0
C603 C 0.75178 0.10171 0.88127 0.0
C604 C 0.72998 0.07994 0.87123 0.0
C605 C 0.72495 0.05575 0.87594 0.0
C606 C 0.74202 0.05388 0.89127 0.0
C607 C 0.76388 0.07568 0.90124 0.0
C608 C 0.80351 0.12987 0.86153 0.0
C609 C 0.79857 0.14487 0.84701 0.0
C610 C 0.79036 0.13703 0.82168 0.0
C611 C 0.78696 0.11408 0.81069 0.0
C612 C 0.79263 0.09948 0.82498 0.0
C613 C 0.80095 0.10738 0.85027 0.0
C614 C 0.8499 0.17434 0.88012 0.0
C615 C 0.85347 0.19825 0.87696 0.0
C616 C 0.86864 0.21265 0.85925 0.0
C617 C 0.88041 0.20332 0.84451 0.0
C618 C 0.87725 0.17962 0.84793 0.0
C619 C 0.86203 0.16517 0.86568 0.0
C620 C 0.84513 0.18876 0.04675 0.0
C621 C 0.70211 0.03254 0.86473 0.0
H622 H 0.84522 0.63165 0.07905 0.0
H623 H 0.69345 0.6666 0.86049 0.0
H624 H 0.88255 0.6861 0.94297 0.0
H625 H 0.9141 0.68126 0.96442 0.0
H626 H 0.86586 0.59992 0.95417 0.0
H627 H 0.83421 0.60478 0.93294 0.0
H628 H 0.85087 0.67573 0.98515 0.0
H629 H 0.85389 0.66444 0.02726 0.0
H630 H 0.79333 0.58808 0.00484 0.0
H631 H 0.79032 0.59976 0.96285 0.0
H632 H 0.80593 0.67465 0.98504 0.0
H633 H 0.77538 0.66672 0.01484 0.0
H634 H 0.71904 0.6086 0.96089 0.0
H635 H 0.75001 0.61433 0.93242 0.0
H636 H 0.79332 0.69569 0.93214 0.0
H637 H 0.76189 0.70496 0.92026 0.0
H638 H 0.7245 0.63556 0.8698 0.0
H639 H 0.75614 0.62656 0.88171 0.0
H640 H 0.81545 0.69877 0.87794 0.0
H641 H 0.80062 0.69984 0.83537 0.0
H642 H 0.78715 0.62499 0.81383 0.0
H643 H 0.80103 0.6235 0.85641 0.0
H644 H 0.86697 0.69952 0.88811 0.0
H645 H 0.89273 0.70535 0.85344 0.0
H646 H 0.86519 0.62505 0.84446 0.0
H647 H 0.83959 0.61924 0.8794 0.0
O648 O 0.8435 0.63578 0.06236 0.0
O649 O 0.81188 0.59696 0.05013 0.0
O650 O 0.72201 0.69502 0.89661 0.0
O651 O 0.7056 0.66292 0.86622 0.0
C652 C 0.83563 0.6489 0.9285 0.0
C653 C 0.8183 0.64566 0.94564 0.0
C654 C 0.79889 0.6491 0.93869 0.0
C655 C 0.79673 0.6556 0.91443 0.0
C656 C 0.81353 0.6579 0.89694 0.0
C657 C 0.83329 0.6551 0.90423 0.0
C658 C 0.85617 0.64579 0.9364 0.0
C659 C 0.87907 0.66724 0.94469 0.0
C660 C 0.89696 0.66448 0.95696 0.0
C661 C 0.89219 0.64025 0.96083 0.0
C662 C 0.86983 0.61873 0.95118 0.0
C663 C 0.85188 0.6215 0.93908 0.0
C664 C 0.82046 0.63852 0.97098 0.0
C665 C 0.83835 0.65656 0.98936 0.0
C666 C 0.83994 0.65009 0.01343 0.0
C667 C 0.8239 0.62533 0.0194 0.0
C668 C 0.80601 0.60729 0.00084 0.0
C669 C 0.80428 0.61387 0.97686 0.0
C670 C 0.78028 0.64502 0.95652 0.0
C671 C 0.78711 0.65976 0.97988 0.0
C672 C 0.76967 0.6554 0.99677 0.0
C673 C 0.7449 0.6372 0.99001 0.0
C674 C 0.73803 0.62273 0.9665 0.0
C675 C 0.75565 0.6262 0.95015 0.0
C676 C 0.77713 0.66061 0.90759 0.0
C677 C 0.7783 0.6825 0.91855 0.0
C678 C 0.76033 0.68774 0.91174 0.0
C679 C 0.74085 0.67113 0.89384 0.0
C680 C 0.73945 0.64891 0.88336 0.0
C681 C 0.75747 0.64371 0.89013 0.0
C682 C 0.80911 0.66096 0.87036 0.0
C683 C 0.80975 0.68283 0.86389 0.0
C684 C 0.80149 0.68352 0.83964 0.0
C685 C 0.79288 0.66251 0.82154 0.0
C686 C 0.79391 0.64144 0.82753 0.0
C687 C 0.80183 0.64061 0.85178 0.0
C688 C 0.85152 0.65899 0.88622 0.0
C689 C 0.86694 0.6833 0.87906 0.0
C690 C 0.88153 0.6866 0.85935 0.0
C691 C 0.8807 0.6656 0.84652 0.0
C692 C 0.86603 0.64142 0.8543 0.0
C693 C 0.85158 0.63814 0.8742 0.0
C694 C 0.82597 0.61841 0.04485 0.0
C695 C 0.72224 0.6771 0.88579 0.0
H696 H 0.8373 0.73609 0.33693 0.0
H697 H 0.97285 0.671 0.54472 0.0
H698 H 0.82573 0.7341 0.48782 0.0
H699 H 0.79374 0.73765 0.46534 0.0
H700 H 0.76199 0.66116 0.42996 0.0
H701 H 0.79392 0.65766 0.45234 0.0
H702 H 0.8577 0.74067 0.4449 0.0
H703 H 0.85166 0.74632 0.40114 0.0
H704 H 0.82988 0.66843 0.379 0.0
H705 H 0.83619 0.66313 0.42285 0.0
H706 H 0.90447 0.74096 0.45181 0.0
H707 H 0.93566 0.74651 0.42337 0.0
H708 H 0.91153 0.6673 0.42267 0.0
H709 H 0.88025 0.66171 0.45103 0.0
H710 H 0.92316 0.73461 0.50348 0.0
H711 H 0.95936 0.73416 0.51834 0.0
H712 H 0.91425 0.65349 0.52331 0.0
H713 H 0.87825 0.65423 0.50834 0.0
H714 H 0.89232 0.72989 0.54868 0.0
H715 H 0.90508 0.72536 0.59065 0.0
H716 H 0.85065 0.64537 0.5804 0.0
H717 H 0.83773 0.64995 0.53832 0.0
H718 H 0.8437 0.72566 0.54576 0.0
H719 H 0.81729 0.7167 0.58035 0.0
H720 H 0.76594 0.64255 0.54217 0.0
H721 H 0.79259 0.65131 0.50776 0.0
O722 O 0.83989 0.73354 0.35406 0.0
O723 O 0.82943 0.69358 0.34357 0.0
O724 O 0.98153 0.71296 0.5345 0.0
O725 O 0.959 0.67162 0.5381 0.0
C726 C 0.83397 0.69534 0.4807 0.0
C727 C 0.85117 0.69821 0.46349 0.0
C728 C 0.87214 0.6979 0.47143 0.0
C729 C 0.87611 0.69494 0.4966 0.0
C730 C 0.85918 0.6925 0.51393 0.0
C731 C 0.83801 0.69259 0.506 0.0
C732 C 0.81202 0.69558 0.47177 0.0
C733 C 0.81143 0.71787 0.47583 0.0
C734 C 0.79333 0.71994 0.46295 0.0
C735 C 0.77564 0.69968 0.44601 0.0
C736 C 0.77548 0.67693 0.44303 0.0
C737 C 0.79357 0.67489 0.45584 0.0
C738 C 0.84725 0.70147 0.43697 0.0
C739 C 0.85159 0.72486 0.43055 0.0
C740 C 0.8482 0.72805 0.40554 0.0
C741 C 0.84022 0.7078 0.38657 0.0
C742 C 0.83598 0.68439 0.39315 0.0
C743 C 0.83954 0.68129 0.41815 0.0
C744 C 0.89017 0.70095 0.45341 0.0
C745 C 0.90577 0.72477 0.44531 0.0
C746 C 0.92348 0.72793 0.42919 0.0
C747 C 0.92574 0.70728 0.42103 0.0
C748 C 0.90991 0.68337 0.42881 0.0
C749 C 0.8922 0.68021 0.44493 0.0
C750 C 0.89813 0.69448 0.50493 0.0
C751 C 0.92119 0.71686 0.50767 0.0
C752 C 0.9418 0.71654 0.5162 0.0
C753 C 0.93967 0.69379 0.52214 0.0
C754 C 0.91653 0.67133 0.51897 0.0
C755 C 0.89594 0.6717 0.51048 0.0
C756 C 0.86417 0.69024 0.54052 0.0
C757 C 0.88279 0.71151 0.5557 0.0
C758 C 0.89001 0.70894 0.57956 0.0
C759 C 0.87876 0.68506 0.58848 0.0
C760 C 0.8594 0.66394 0.57378 0.0
C761 C 0.85206 0.66655 0.5499 0.0
C762 C 0.82005 0.68911 0.52429 0.0
C763 C 0.82652 0.70769 0.54462 0.0
C764 C 0.81154 0.70259 0.56429 0.0
C765 C 0.78981 0.67897 0.56372 0.0
C766 C 0.78266 0.6609 0.54279 0.0
C767 C 0.79774 0.66593 0.52319 0.0
C768 C 0.83618 0.71111 0.36009 0.0
C769 C 0.96139 0.69346 0.53188 0.0
H770 H 0.30012 0.10793 0.34013 0.0
H771 H 0.34123 0.31753 0.53819 0.0
H772 H 0.30295 0.1074 0.47481 0.0
H773 H 0.30211 0.06813 0.46216 0.0
H774 H 0.37932 0.10596 0.48395 0.0
H775 H 0.38029 0.14563 0.49617 0.0
H776 H 0.29424 0.13957 0.44375 0.0
H777 H 0.28938 0.12362 0.39954 0.0
H778 H 0.36682 0.1523 0.40201 0.0
H779 H 0.37147 0.16849 0.44614 0.0
H780 H 0.28713 0.17324 0.47201 0.0
H781 H 0.27322 0.19627 0.44792 0.0
H782 H 0.34681 0.24588 0.42895 0.0
H783 H 0.3607 0.22264 0.45297 0.0
H784 H 0.29823 0.19312 0.52584 0.0
H785 H 0.29233 0.22842 0.53741 0.0
H786 H 0.36528 0.28123 0.51823 0.0
H787 H 0.37079 0.24569 0.50647 0.0
H788 H 0.31292 0.16548 0.56199 0.0
H789 H 0.31582 0.18783 0.60305 0.0
H790 H 0.38739 0.24915 0.59003 0.0
H791 H 0.38453 0.22678 0.5491 0.0
H792 H 0.31201 0.11748 0.53352 0.0
H793 H 0.31781 0.09326 0.56422 0.0
H794 H 0.39376 0.15231 0.57853 0.0
H795 H 0.38794 0.17665 0.5476 0.0
O796 O 0.30248 0.11457 0.35758 0.0
O797 O 0.34236 0.12953 0.35991 0.0
O798 O 0.30582 0.2753 0.54363 0.0
O799 O 0.34306 0.30323 0.53371 0.0
C800 C 0.34191 0.153 0.49342 0.0
C801 C 0.33624 0.16478 0.47501 0.0
C802 C 0.33363 0.18548 0.48238 0.0
C803 C 0.33815 0.19539 0.50783 0.0
C804 C 0.34463 0.18418 0.5261 0.0
C805 C 0.34593 0.1626 0.51901 0.0
C806 C 0.34173 0.12939 0.48607 0.0
C807 C 0.31972 0.10729 0.47671 0.0
C808 C 0.31921 0.08494 0.4697 0.0
C809 C 0.34066 0.08433 0.47211 0.0
C810 C 0.36264 0.10624 0.48197 0.0
C811 C 0.36319 0.12873 0.48885 0.0
C812 C 0.33326 0.15548 0.44804 0.0
C813 C 0.31018 0.14269 0.43462 0.0
C814 C 0.30744 0.13345 0.4094 0.0
C815 C 0.32773 0.13674 0.39721 0.0
C816 C 0.35082 0.1495 0.4108 0.0
C817 C 0.35354 0.15879 0.43599 0.0
C818 C 0.32485 0.19623 0.464 0.0
C819 C 0.3001 0.18859 0.46203 0.0
C820 C 0.29221 0.20171 0.44842 0.0
C821 C 0.30905 0.22271 0.4368 0.0
C822 C 0.33361 0.22961 0.43776 0.0
C823 C 0.34149 0.21639 0.45131 0.0
C824 C 0.33496 0.21694 0.51545 0.0
C825 C 0.31291 0.21235 0.52423 0.0
C826 C 0.30958 0.23252 0.53075 0.0
C827 C 0.32837 0.25767 0.5288 0.0
C828 C 0.35047 0.26213 0.52002 0.0
C829 C 0.3537 0.2419 0.51333 0.0
C830 C 0.34856 0.19455 0.55272 0.0
C831 C 0.32954 0.18331 0.56841 0.0
C832 C 0.33115 0.19604 0.59168 0.0
C833 C 0.35179 0.22007 0.59937 0.0
C834 C 0.37142 0.23055 0.58435 0.0
C835 C 0.36982 0.21782 0.56114 0.0
C836 C 0.34955 0.14879 0.53842 0.0
C837 C 0.32988 0.12523 0.54331 0.0
C838 C 0.33319 0.11144 0.56069 0.0
C839 C 0.35619 0.12105 0.5735 0.0
C840 C 0.37592 0.14467 0.56873 0.0
C841 C 0.37258 0.15853 0.55129 0.0
C842 C 0.32473 0.12678 0.37046 0.0
C843 C 0.32498 0.27918 0.53585 0.0
H844 H 0.81824 0.1584 0.32623 0.0
H845 H 0.00278 0.3012 0.57104 0.0
H846 H 0.79677 0.16754 0.45666 0.0
H847 H 0.75795 0.12892 0.44026 0.0
H848 H 0.78183 0.08302 0.47283 0.0
H849 H 0.8206 0.12155 0.48912 0.0
H850 H 0.8458 0.20803 0.42916 0.0
H851 H 0.83451 0.19368 0.38434 0.0
H852 H 0.83333 0.12485 0.39613 0.0
H853 H 0.84502 0.13962 0.44083 0.0
H854 H 0.89464 0.25222 0.4606 0.0
H855 H 0.92831 0.27425 0.43397 0.0
H856 H 0.9325 0.20714 0.42164 0.0
H857 H 0.89903 0.18518 0.44859 0.0
H858 H 0.89294 0.26087 0.51558 0.0
H859 H 0.93138 0.29545 0.53741 0.0
H860 H 0.96251 0.24833 0.52923 0.0
H861 H 0.92402 0.21398 0.50711 0.0
H862 H 0.85001 0.22656 0.54681 0.0
H863 H 0.86447 0.24423 0.59095 0.0
H864 H 0.90777 0.20958 0.59231 0.0
H865 H 0.89352 0.19215 0.54822 0.0
H866 H 0.79672 0.17248 0.51598 0.0
H867 H 0.76736 0.14588 0.54504 0.0
H868 H 0.8178 0.12477 0.57142 0.0
H869 H 0.84663 0.15048 0.54194 0.0
O870 O 0.82294 0.16382 0.34397 0.0
O871 O 0.82229 0.12863 0.3511 0.0
O872 O 0.97603 0.31577 0.55535 0.0
O873 O 0.98842 0.28876 0.56028 0.0
C874 C 0.83526 0.17027 0.48284 0.0
C875 C 0.85243 0.1834 0.46551 0.0
C876 C 0.87567 0.20457 0.47423 0.0
C877 C 0.88143 0.21295 0.50011 0.0
C878 C 0.86423 0.19979 0.51731 0.0
C879 C 0.84121 0.17839 0.50876 0.0
C880 C 0.81142 0.14723 0.47394 0.0
C881 C 0.79351 0.14915 0.46037 0.0
C882 C 0.77146 0.12726 0.45117 0.0
C883 C 0.76721 0.1033 0.45543 0.0
C884 C 0.78488 0.10142 0.4695 0.0
C885 C 0.80689 0.12329 0.47871 0.0
C886 C 0.84613 0.17483 0.43824 0.0
C887 C 0.84323 0.18993 0.42199 0.0
C888 C 0.83671 0.18165 0.39642 0.0
C889 C 0.83294 0.15808 0.38666 0.0
C890 C 0.83605 0.14308 0.40303 0.0
C891 C 0.84266 0.15143 0.42857 0.0
C892 C 0.89451 0.21718 0.45653 0.0
C893 C 0.90269 0.24222 0.452 0.0
C894 C 0.92174 0.25469 0.43681 0.0
C895 C 0.93269 0.24219 0.42591 0.0
C896 C 0.92408 0.21692 0.42985 0.0
C897 C 0.90509 0.20448 0.44513 0.0
C898 C 0.90578 0.23501 0.50973 0.0
C899 C 0.90827 0.25827 0.51804 0.0
C900 C 0.9302 0.27794 0.53056 0.0
C901 C 0.94989 0.27451 0.53527 0.0
C902 C 0.9476 0.25146 0.52608 0.0
C903 C 0.92574 0.23191 0.51329 0.0
C904 C 0.87081 0.20819 0.54447 0.0
C905 C 0.86233 0.22252 0.55678 0.0
C906 C 0.87054 0.23255 0.58179 0.0
C907 C 0.88709 0.22809 0.59465 0.0
C908 C 0.89491 0.21304 0.58258 0.0
C909 C 0.88685 0.2032 0.55756 0.0
C910 C 0.82389 0.16359 0.52707 0.0
C911 C 0.80142 0.16217 0.52811 0.0
C912 C 0.78477 0.14712 0.54461 0.0
C913 C 0.79064 0.13365 0.5604 0.0
C914 C 0.81315 0.13527 0.55949 0.0
C915 C 0.82959 0.14999 0.54283 0.0
C916 C 0.82575 0.14921 0.35954 0.0
C917 C 0.9723 0.29438 0.55071 0.0
H918 H 0.0349 0.55957 0.40356 0.0
H919 H 0.02606 0.36867 0.19526 0.0
H920 H 0.97979 0.5287 0.28075 0.0
H921 H 0.98305 0.56906 0.29433 0.0
H922 H 0.03602 0.60569 0.24094 0.0
H923 H 0.03519 0.56632 0.22985 0.0
H924 H 0.98969 0.49424 0.30909 0.0
H925 H 0.00275 0.51602 0.35171 0.0
H926 H 0.06805 0.57689 0.32515 0.0
H927 H 0.05494 0.55471 0.28267 0.0
H928 H 0.98429 0.45004 0.28933 0.0
H929 H 0.99618 0.42563 0.31385 0.0
H930 H 0.07105 0.47412 0.29802 0.0
H931 H 0.05923 0.49898 0.27409 0.0
H932 H 0.96789 0.42727 0.23164 0.0
H933 H 0.96685 0.38797 0.2187 0.0
H934 H 0.04472 0.43143 0.2124 0.0
H935 H 0.04549 0.4705 0.22565 0.0
H936 H 0.95822 0.45534 0.18926 0.0
H937 H 0.95183 0.43012 0.14885 0.0
H938 H 0.02981 0.46627 0.14658 0.0
H939 H 0.03614 0.49146 0.18668 0.0
H940 H 0.96362 0.51698 0.21476 0.0
H941 H 0.9603 0.54315 0.1843 0.0
H942 H 0.02676 0.55591 0.15472 0.0
H943 H 0.03056 0.53069 0.18547 0.0
O944 O 0.03018 0.55118 0.38659 0.0
O945 O 0.06341 0.58203 0.37197 0.0
O946 O 0.98596 0.3624 0.20413 0.0
O947 O 0.02598 0.38386 0.20072 0.0
C948 C 0.007 0.52059 0.24785 0.0
C949 C 0.01329 0.50977 0.2669 0.0
C950 C 0.01315 0.48717 0.26092 0.0
C951 C 0.00701 0.47548 0.23605 0.0
C952 C 0.00169 0.48672 0.21691 0.0
C953 C 0.00146 0.50916 0.22268 0.0
C954 C 0.00724 0.54446 0.25427 0.0
C955 C 0.99227 0.54549 0.27215 0.0
C956 C 0.99392 0.5684 0.27968 0.0
C957 C 0.00973 0.59037 0.26859 0.0
C958 C 0.0237 0.58897 0.24973 0.0
C959 C 0.02306 0.56645 0.24323 0.0
C960 C 0.02142 0.52284 0.29284 0.0
C961 C 0.00692 0.51215 0.31257 0.0
C962 C 0.01437 0.5247 0.33687 0.0
C963 C 0.03645 0.5482 0.34185 0.0
C964 C 0.05096 0.55882 0.32198 0.0
C965 C 0.04351 0.54621 0.29771 0.0
C966 C 0.02095 0.47627 0.2801 0.0
C967 C 0.00338 0.45601 0.29203 0.0
C968 C 0.01016 0.44218 0.30599 0.0
C969 C 0.03447 0.44823 0.30774 0.0
C970 C 0.05228 0.46944 0.29708 0.0
C971 C 0.04555 0.48353 0.28345 0.0
C972 C 0.00677 0.45162 0.22969 0.0
C973 C 0.98471 0.42818 0.22768 0.0
C974 C 0.98417 0.40581 0.22021 0.0
C975 C 0.00571 0.40657 0.21443 0.0
C976 C 0.02781 0.43016 0.21664 0.0
C977 C 0.02834 0.45248 0.22432 0.0
C978 C 0.99762 0.47523 0.1907 0.0
C979 C 0.97386 0.45828 0.17965 0.0
C980 C 0.97025 0.44388 0.15681 0.0
C981 C 0.9904 0.44635 0.14501 0.0
C982 C 0.01412 0.4642 0.1555 0.0
C983 C 0.01771 0.47857 0.17822 0.0
C984 C 0.9972 0.52167 0.20218 0.0
C985 C 0.97721 0.52506 0.2014 0.0
C986 C 0.97532 0.53993 0.18413 0.0
C987 C 0.99327 0.55128 0.1673 0.0
C988 C 0.01267 0.54708 0.16745 0.0
C989 C 0.0147 0.53251 0.18482 0.0
C990 C 0.04424 0.56156 0.36766 0.0
C991 C 0.00518 0.3829 0.20613 0.0
H992 H 0.50379 0.5216 0.41753 0.0
H993 H 0.33812 0.33329 0.19471 0.0
H994 H 0.51306 0.53665 0.28707 0.0
H995 H 0.55299 0.57461 0.30087 0.0
H996 H 0.58878 0.53654 0.27216 0.0
H997 H 0.54866 0.49807 0.25905 0.0
H998 H 0.46827 0.50059 0.31144 0.0
H999 H 0.47849 0.51196 0.35672 0.0
H1000 H 0.52801 0.48447 0.35379 0.0
H1001 H 0.51737 0.47287 0.30855 0.0
H1002 H 0.4246 0.46647 0.27618 0.0
H1003 H 0.38936 0.44217 0.30027 0.0
H1004 H 0.42027 0.39895 0.32395 0.0
H1005 H 0.45574 0.42356 0.30007 0.0
H1006 H 0.42274 0.45665 0.21651 0.0
H1007 H 0.38294 0.42255 0.19691 0.0
H1008 H 0.39508 0.36731 0.22811 0.0
H1009 H 0.43509 0.40159 0.24722 0.0
H1010 H 0.46815 0.49073 0.19149 0.0
H1011 H 0.45402 0.47565 0.14687 0.0
H1012 H 0.45332 0.40693 0.15689 0.0
H1013 H 0.4676 0.42205 0.20137 0.0
H1014 H 0.51374 0.53396 0.22821 0.0
H1015 H 0.54092 0.55848 0.19693 0.0
H1016 H 0.54921 0.49555 0.17327 0.0
H1017 H 0.5223 0.47108 0.20497 0.0
O1018 O 0.4999 0.51682 0.39963 0.0
O1019 O 0.5252 0.50253 0.39709 0.0
O1020 O 0.35054 0.37599 0.18332 0.0
O1021 O 0.35349 0.34715 0.20281 0.0
C1022 C 0.50378 0.49228 0.2626 0.0
C1023 C 0.48587 0.47897 0.27923 0.0
C1024 C 0.46219 0.45934 0.26954 0.0
C1025 C 0.45673 0.45223 0.24344 0.0
C1026 C 0.47482 0.46511 0.22693 0.0
C1027 C 0.49815 0.48547 0.23643 0.0
C1028 C 0.52797 0.51452 0.27234 0.0
C1029 C 0.52946 0.53628 0.28418 0.0
C1030 C 0.55215 0.55793 0.29181 0.0
C1031 C 0.57363 0.55821 0.28746 0.0
C1032 C 0.57228 0.53652 0.27562 0.0
C1033 C 0.54951 0.51469 0.26826 0.0
C1034 C 0.49192 0.48571 0.30676 0.0
C1035 C 0.48114 0.49681 0.32065 0.0
C1036 C 0.4871 0.5034 0.3465 0.0
C1037 C 0.50405 0.49909 0.35889 0.0
C1038 C 0.51486 0.48801 0.34485 0.0
C1039 C 0.50883 0.48138 0.31901 0.0
C1040 C 0.44259 0.44668 0.28643 0.0
C1041 C 0.42395 0.45206 0.28693 0.0
C1042 C 0.40395 0.43828 0.3006 0.0
C1043 C 0.40229 0.41879 0.31371 0.0
C1044 C 0.42135 0.41399 0.31393 0.0
C1045 C 0.44149 0.42796 0.3004 0.0
C1046 C 0.43182 0.43157 0.23317 0.0
C1047 C 0.41674 0.43717 0.21913 0.0
C1048 C 0.39403 0.41767 0.20797 0.0
C1049 C 0.38592 0.39219 0.21081 0.0
C1050 C 0.40082 0.38671 0.22549 0.0
C1051 C 0.42362 0.40625 0.23651 0.0
C1052 C 0.46887 0.45744 0.19956 0.0
C1053 C 0.46538 0.47265 0.18392 0.0
C1054 C 0.45731 0.46407 0.15862 0.0
C1055 C 0.45266 0.44023 0.14881 0.0
C1056 C 0.4569 0.4254 0.16425 0.0
C1057 C 0.46499 0.43398 0.1895 0.0
C1058 C 0.51606 0.50076 0.2188 0.0
C1059 C 0.52177 0.52562 0.21661 0.0
C1060 C 0.53721 0.53956 0.19886 0.0
C1061 C 0.54698 0.52874 0.18297 0.0
C1062 C 0.54186 0.50414 0.18555 0.0
C1063 C 0.5265 0.49023 0.20345 0.0
C1064 C 0.51041 0.5062 0.38633 0.0
C1065 C 0.36223 0.37138 0.19816 0.0
H1066 H 0.48323 0.95315 0.41173 0.0
H1067 H 0.3344 0.94165 0.17493 0.0
H1068 H 0.52594 0.00594 0.29867 0.0
H1069 H 0.55836 0.00468 0.32246 0.0
H1070 H 0.55131 0.9465 0.2672 0.0
H1071 H 0.51716 0.94608 0.2446 0.0
H1072 H 0.47824 0.99297 0.31782 0.0
H1073 H 0.48025 0.98238 0.36045 0.0
H1074 H 0.48004 0.91552 0.33061 0.0
H1075 H 0.47747 0.92602 0.28802 0.0
H1076 H 0.44357 0.99893 0.28431 0.0
H1077 H 0.41131 0.99059 0.31221 0.0
H1078 H 0.38959 0.9118 0.30759 0.0
H1079 H 0.422 0.92017 0.27967 0.0
H1080 H 0.44723 0.00955 0.23185 0.0
H1081 H 0.41122 0.00777 0.21256 0.0
H1082 H 0.37309 0.92578 0.20347 0.0
H1083 H 0.40932 0.9279 0.22272 0.0
H1084 H 0.48454 0.01866 0.20219 0.0
H1085 H 0.47105 0.02109 0.15949 0.0
H1086 H 0.43895 0.94037 0.14257 0.0
H1087 H 0.45165 0.93787 0.18535 0.0
H1088 H 0.53593 0.02324 0.23476 0.0
H1089 H 0.56602 0.03705 0.20326 0.0
H1090 H 0.52653 0.96155 0.16407 0.0
H1091 H 0.49682 0.94763 0.19579 0.0
O1092 O 0.48227 0.95689 0.39469 0.0
O1093 O 0.48252 0.92298 0.37842 0.0
O1094 O 0.36808 0.9849 0.19061 0.0
O1095 O 0.34826 0.94279 0.18403 0.0
C1096 C 0.49608 0.97322 0.25886 0.0
C1097 C 0.4763 0.96659 0.27385 0.0
C1098 C 0.45512 0.96559 0.26399 0.0
C1099 C 0.45319 0.97014 0.23896 0.0
C1100 C 0.47231 0.97548 0.22363 0.0
C1101 C 0.49389 0.97735 0.23359 0.0
C1102 C 0.51891 0.97588 0.27005 0.0
C1103 C 0.53139 0.99295 0.29161 0.0
C1104 C 0.5499 0.99226 0.30514 0.0
C1105 C 0.55705 0.97527 0.29676 0.0
C1106 C 0.54588 0.95956 0.27411 0.0
C1107 C 0.52664 0.95955 0.26107 0.0
C1108 C 0.47753 0.96017 0.29981 0.0
C1109 C 0.47838 0.97591 0.32052 0.0
C1110 C 0.47965 0.96988 0.34486 0.0
C1111 C 0.48029 0.94809 0.34895 0.0
C1112 C 0.47954 0.93242 0.32813 0.0
C1113 C 0.47811 0.93839 0.30379 0.0
C1114 C 0.43502 0.96013 0.28001 0.0
C1115 C 0.43175 0.97985 0.28919 0.0
C1116 C 0.41351 0.97514 0.30509 0.0
C1117 C 0.39827 0.95064 0.31188 0.0
C1118 C 0.40129 0.93081 0.30249 0.0
C1119 C 0.41965 0.93556 0.28664 0.0
C1120 C 0.43085 0.96887 0.22852 0.0
C1121 C 0.43102 0.99124 0.22578 0.0
C1122 C 0.41043 0.99016 0.21481 0.0
C1123 C 0.38928 0.96661 0.2064 0.0
C1124 C 0.38906 0.9442 0.20971 0.0
C1125 C 0.4097 0.94534 0.22069 0.0
C1126 C 0.46896 0.97808 0.19677 0.0
C1127 C 0.47517 0.00166 0.18902 0.0
C1128 C 0.46759 0.00305 0.16473 0.0
C1129 C 0.45407 0.9809 0.14796 0.0
C1130 C 0.44952 0.95766 0.15522 0.0
C1131 C 0.4567 0.95622 0.17955 0.0
C1132 C 0.51421 0.98449 0.21744 0.0
C1133 C 0.53417 0.00955 0.21975 0.0
C1134 C 0.5512 0.01741 0.20183 0.0
C1135 C 0.54827 0.00029 0.18138 0.0
C1136 C 0.52898 0.97495 0.17975 0.0
C1137 C 0.51211 0.96706 0.19776 0.0
C1138 C 0.48176 0.94181 0.37485 0.0
C1139 C 0.36791 0.96542 0.19337 0.0
H1140 H 0.49831 0.05782 0.66892 0.0
H1141 H 0.6527 0.02025 0.88526 0.0
H1142 H 0.4898 0.05954 0.8236 0.0
H1143 H 0.45362 0.05691 0.80594 0.0
H1144 H 0.43196 0.98421 0.76539 0.0
H1145 H 0.46818 0.98745 0.7835 0.0
H1146 H 0.51987 0.06774 0.77742 0.0
H1147 H 0.51137 0.07043 0.73333 0.0
H1148 H 0.50511 0.99833 0.71314 0.0
H1149 H 0.51331 0.99572 0.75734 0.0
H1150 H 0.57395 0.07361 0.78249 0.0
H1151 H 0.605 0.07876 0.75393 0.0
H1152 H 0.58563 0.00168 0.76002 0.0
H1153 H 0.55466 0.99654 0.78855 0.0
H1154 H 0.59495 0.07255 0.83545 0.0
H1155 H 0.63302 0.07632 0.8513 0.0
H1156 H 0.59297 0.99677 0.86251 0.0
H1157 H 0.55513 0.99323 0.84641 0.0
H1158 H 0.56362 0.06674 0.88227 0.0
H1159 H 0.5768 0.06492 0.92518 0.0
H1160 H 0.52634 0.98394 0.91732 0.0
H1161 H 0.51297 0.9858 0.87435 0.0
H1162 H 0.51162 0.05638 0.87952 0.0
H1163 H 0.48352 0.0453 0.91277 0.0
H1164 H 0.43773 0.96991 0.87447 0.0
H1165 H 0.46606 0.98079 0.84146 0.0
O1166 O 0.50165 0.05638 0.68624 0.0
O1167 O 0.49886 0.01938 0.67683 0.0
O1168 O 0.65834 0.05926 0.86956 0.0
O1169 O 0.63813 0.0191 0.87796 0.0
C1170 C 0.50469 0.02615 0.81459 0.0
C1171 C 0.52216 0.02991 0.79737 0.0
C1172 C 0.54422 0.03185 0.80565 0.0
C1173 C 0.54911 0.03062 0.83117 0.0
C1174 C 0.53185 0.02726 0.84842 0.0
C1175 C 0.50952 0.02472 0.84011 0.0
C1176 C 0.48117 0.02323 0.80566 0.0
C1177 C 0.47643 0.04246 0.81185 0.0
C1178 C 0.45496 0.04042 0.80202 0.0
C1179 C 0.43688 0.01842 0.7866 0.0
C1180 C 0.44298 2e-05 0.77945 0.0
C1181 C 0.46438 0.00209 0.78928 0.0
C1182 C 0.51723 0.03157 0.77055 0.0
C1183 C 0.5166 0.05253 0.76344 0.0
C1184 C 0.51178 0.05403 0.73824 0.0
C1185 C 0.50757 0.0346 0.7197 0.0
C1186 C 0.50829 0.01363 0.72694 0.0
C1187 C 0.51304 0.01213 0.75214 0.0
C1188 C 0.56215 0.03473 0.78756 0.0
C1189 C 0.5763 0.05781 0.77749 0.0
C1190 C 0.59393 0.06074 0.7613 0.0
C1191 C 0.59745 0.04057 0.75499 0.0
C1192 C 0.58304 0.01737 0.76473 0.0
C1193 C 0.5655 0.01448 0.78095 0.0
C1194 C 0.57231 0.03266 0.83991 0.0
C1195 C 0.5945 0.05594 0.84119 0.0
C1196 C 0.61618 0.05804 0.85029 0.0
C1197 C 0.61601 0.03687 0.85833 0.0
C1198 C 0.59375 0.01347 0.85658 0.0
C1199 C 0.5721 0.01139 0.84745 0.0
C1200 C 0.53744 0.0264 0.87526 0.0
C1201 C 0.55507 0.0487 0.88998 0.0
C1202 C 0.56249 0.04767 0.91438 0.0
C1203 C 0.55245 0.02432 0.92428 0.0
C1204 C 0.53411 0.00212 0.90995 0.0
C1205 C 0.52655 0.00317 0.88555 0.0
C1206 C 0.49087 0.01936 0.85813 0.0
C1207 C 0.49536 0.03759 0.87813 0.0
C1208 C 0.47942 0.03131 0.89702 0.0
C1209 C 0.45871 0.00682 0.89596 0.0
C1210 C 0.45365 0.9889 0.87546 0.0
C1211 C 0.46969 0.99513 0.85666 0.0
C1212 C 0.50243 0.03623 0.69295 0.0
C1213 C 0.63882 0.03917 0.86886 0.0
H1214 H 0.94337 0.43353 0.6764 0.0
H1215 H 0.99121 0.64812 0.87338 0.0
H1216 H 0.95212 0.43442 0.80989 0.0
H1217 H 0.95591 0.39798 0.79632 0.0
H1218 H 0.03331 0.44292 0.81811 0.0
H1219 H 0.02957 0.47953 0.83153 0.0
H1220 H 0.9399 0.46809 0.77974 0.0
H1221 H 0.93406 0.45106 0.73574 0.0
H1222 H 0.01124 0.47873 0.73686 0.0
H1223 H 0.01688 0.49601 0.78075 0.0
H1224 H 0.9341 0.50569 0.80896 0.0
H1225 H 0.92237 0.53006 0.78412 0.0
H1226 H 0.99539 0.57207 0.76089 0.0
H1227 H 0.00703 0.54747 0.78554 0.0
H1228 H 0.94686 0.52352 0.86541 0.0
H1229 H 0.94275 0.55977 0.87823 0.0
H1230 H 0.01231 0.61001 0.85019 0.0
H1231 H 0.01616 0.57356 0.83751 0.0
H1232 H 0.96139 0.49769 0.89942 0.0
H1233 H 0.96864 0.52179 0.94071 0.0
H1234 H 0.04042 0.57847 0.92259 0.0
H1235 H 0.03311 0.55452 0.88137 0.0
H1236 H 0.95772 0.44607 0.86765 0.0
H1237 H 0.96189 0.42213 0.89979 0.0
H1238 H 0.03761 0.48099 0.91678 0.0
H1239 H 0.03347 0.50504 0.88435 0.0
O1240 O 0.94613 0.44063 0.69373 0.0
O1241 O 0.98589 0.45507 0.69537 0.0
O1242 O 0.95718 0.60693 0.88352 0.0
O1243 O 0.99237 0.63346 0.8685 0.0
C1244 C 0.98846 0.4818 0.82872 0.0
C1245 C 0.98227 0.49314 0.81027 0.0
C1246 C 0.97945 0.51373 0.81757 0.0
C1247 C 0.98423 0.52392 0.84296 0.0
C1248 C 0.99095 0.51292 0.86123 0.0
C1249 C 0.99223 0.49133 0.85427 0.0
C1250 C 0.99062 0.4596 0.82142 0.0
C1251 C 0.96987 0.43638 0.81178 0.0
C1252 C 0.97199 0.41566 0.80425 0.0
C1253 C 0.99486 0.41794 0.80633 0.0
C1254 C 0.01555 0.44094 0.81653 0.0
C1255 C 0.01342 0.46171 0.82406 0.0
C1256 C 0.97883 0.48344 0.78336 0.0
C1257 C 0.95556 0.4707 0.77036 0.0
C1258 C 0.95226 0.46088 0.74526 0.0
C1259 C 0.97219 0.46354 0.73277 0.0
C1260 C 0.99551 0.47638 0.7459 0.0
C1261 C 0.99878 0.48627 0.77096 0.0
C1262 C 0.97137 0.52489 0.79895 0.0
C1263 C 0.94734 0.51965 0.79792 0.0
C1264 C 0.94068 0.53348 0.78383 0.0
C1265 C 0.95809 0.55284 0.77087 0.0
C1266 C 0.98176 0.55711 0.77077 0.0
C1267 C 0.98837 0.54313 0.78473 0.0
C1268 C 0.9818 0.54598 0.85057 0.0
C1269 C 0.96118 0.54239 0.86209 0.0
C1270 C 0.95888 0.56311 0.86935 0.0
C1271 C 0.97722 0.58781 0.86524 0.0
C1272 C 0.99786 0.59127 0.85365 0.0
C1273 C 0.00011 0.57051 0.84635 0.0
C1274 C 0.99676 0.52445 0.88756 0.0
C1275 C 0.9789 0.51494 0.90468 0.0
C1276 C 0.983 0.52864 0.92809 0.0
C1277 C 0.00503 0.55183 0.93449 0.0
C1278 C 0.02339 0.56054 0.9179 0.0
C1279 C 0.01925 0.54693 0.89452 0.0
C1280 C 0.99528 0.47726 0.87377 0.0
C1281 C 0.97525 0.45376 0.87821 0.0
C1282 C 0.97762 0.44012 0.89641 0.0
C1283 C 6e-05 0.4498 0.91041 0.0
C1284 C 0.02022 0.47325 0.90595 0.0
C1285 C 0.01783 0.48695 0.88767 0.0
C1286 C 0.96859 0.45287 0.70618 0.0
C1287 C 0.9749 0.60989 0.873 0.0
H1288 H 0.4759 0.50049 0.66165 0.0
H1289 H 0.67932 0.6159 0.88472 0.0
H1290 H 0.46125 0.5011 0.79697 0.0
H1291 H 0.4211 0.46497 0.77936 0.0
H1292 H 0.44442 0.41328 0.79559 0.0
H1293 H 0.48444 0.44924 0.81293 0.0
H1294 H 0.50963 0.54163 0.7667 0.0
H1295 H 0.49589 0.53111 0.72195 0.0
H1296 H 0.49327 0.46011 0.72332 0.0
H1297 H 0.50737 0.47105 0.76796 0.0
H1298 H 0.5603 0.58205 0.79774 0.0
H1299 H 0.59393 0.60643 0.77181 0.0
H1300 H 0.59618 0.53937 0.74994 0.0
H1301 H 0.56258 0.51497 0.77605 0.0
H1302 H 0.56597 0.58782 0.85289 0.0
H1303 H 0.60746 0.61835 0.87169 0.0
H1304 H 0.62855 0.56384 0.85206 0.0
H1305 H 0.58692 0.53343 0.83363 0.0
H1306 H 0.52723 0.56034 0.87961 0.0
H1307 H 0.54278 0.5754 0.92387 0.0
H1308 H 0.56588 0.52143 0.92519 0.0
H1309 H 0.55092 0.50686 0.88059 0.0
H1310 H 0.47283 0.51143 0.863 0.0
H1311 H 0.44614 0.48636 0.89466 0.0
H1312 H 0.47758 0.43951 0.89112 0.0
H1313 H 0.50444 0.46479 0.85996 0.0
O1314 O 0.48159 0.5044 0.67929 0.0
O1315 O 0.48022 0.46798 0.68109 0.0
O1316 O 0.6515 0.63224 0.88573 0.0
O1317 O 0.66311 0.6047 0.87641 0.0
C1318 C 0.50028 0.49922 0.81521 0.0
C1319 C 0.51697 0.51322 0.79787 0.0
C1320 C 0.54091 0.53298 0.80662 0.0
C1321 C 0.54788 0.53911 0.83263 0.0
C1322 C 0.53092 0.52556 0.84984 0.0
C1323 C 0.50732 0.50534 0.84115 0.0
C1324 C 0.47561 0.47766 0.8062 0.0
C1325 C 0.45753 0.48194 0.79696 0.0
C1326 C 0.43474 0.46147 0.78707 0.0
C1327 C 0.42998 0.43663 0.78633 0.0
C1328 C 0.44784 0.43237 0.79621 0.0
C1329 C 0.47056 0.45278 0.80606 0.0
C1330 C 0.50939 0.50706 0.77056 0.0
C1331 C 0.50622 0.52389 0.75725 0.0
C1332 C 0.4983 0.5178 0.73171 0.0
C1333 C 0.4934 0.49472 0.71906 0.0
C1334 C 0.49683 0.478 0.73248 0.0
C1335 C 0.50483 0.48418 0.75799 0.0
C1336 C 0.5591 0.54682 0.78872 0.0
C1337 C 0.56782 0.57255 0.78707 0.0
C1338 C 0.58689 0.58638 0.77234 0.0
C1339 C 0.59737 0.57458 0.75906 0.0
C1340 C 0.58813 0.54864 0.76001 0.0
C1341 C 0.56904 0.5348 0.77479 0.0
C1342 C 0.57349 0.55843 0.84203 0.0
C1343 C 0.57963 0.58259 0.85258 0.0
C1344 C 0.60333 0.59997 0.8633 0.0
C1345 C 0.62129 0.59346 0.86353 0.0
C1346 C 0.61515 0.56942 0.85231 0.0
C1347 C 0.59143 0.55205 0.84169 0.0
C1348 C 0.53807 0.53262 0.87706 0.0
C1349 C 0.53547 0.55165 0.88952 0.0
C1350 C 0.54434 0.56023 0.91461 0.0
C1351 C 0.55551 0.54955 0.92755 0.0
C1352 C 0.55731 0.52984 0.91535 0.0
C1353 C 0.54878 0.52154 0.8901 0.0
C1354 C 0.49043 0.48979 0.85928 0.0
C1355 C 0.47376 0.49563 0.86897 0.0
C1356 C 0.45857 0.48136 0.88685 0.0
C1357 C 0.45984 0.46103 0.89495 0.0
C1358 C 0.47626 0.455 0.88488 0.0
C1359 C 0.49155 0.46939 0.86725 0.0
C1360 C 0.48469 0.48815 0.69202 0.0
C1361 C 0.6462 0.61141 0.87583 0.0
H1362 H 0.66577 0.86729 0.73351 0.0
H1363 H 0.68969 0.69482 0.53017 0.0
H1364 H 0.62322 0.84548 0.60028 0.0
H1365 H 0.62805 0.88665 0.61485 0.0
H1366 H 0.6984 0.92548 0.58509 0.0
H1367 H 0.69339 0.88456 0.57021 0.0
H1368 H 0.63323 0.80777 0.63496 0.0
H1369 H 0.64057 0.82681 0.67845 0.0
H1370 H 0.70994 0.88984 0.66171 0.0
H1371 H 0.70246 0.87046 0.61838 0.0
H1372 H 0.6384 0.76014 0.61069 0.0
H1373 H 0.65561 0.74055 0.63576 0.0
H1374 H 0.72722 0.80782 0.63742 0.0
H1375 H 0.71006 0.82736 0.61219 0.0
H1376 H 0.62178 0.74559 0.55312 0.0
H1377 H 0.62448 0.70838 0.54059 0.0
H1378 H 0.70329 0.75562 0.54921 0.0
H1379 H 0.7003 0.79258 0.5619 0.0
H1380 H 0.61186 0.77645 0.51586 0.0
H1381 H 0.60764 0.75368 0.47452 0.0
H1382 H 0.6859 0.789 0.4773 0.0
H1383 H 0.69009 0.81169 0.51841 0.0
H1384 H 0.61502 0.83517 0.54306 0.0
H1385 H 0.61367 0.86358 0.51417 0.0
H1386 H 0.68281 0.87976 0.48913 0.0
H1387 H 0.68464 0.85229 0.5185 0.0
O1388 O 0.66337 0.85994 0.71632 0.0
O1389 O 0.69867 0.89211 0.70661 0.0
O1390 O 0.64749 0.68583 0.5303 0.0
O1391 O 0.68806 0.70915 0.53524 0.0
C1392 C 0.65674 0.83789 0.57799 0.0
C1393 C 0.66227 0.82659 0.59701 0.0
C1394 C 0.66382 0.80502 0.59065 0.0
C1395 C 0.65908 0.79431 0.56543 0.0
C1396 C 0.65379 0.80577 0.54645 0.0
C1397 C 0.65271 0.82764 0.55265 0.0
C1398 C 0.65805 0.8622 0.58439 0.0
C1399 C 0.6394 0.86291 0.5965 0.0
C1400 C 0.64207 0.88623 0.60461 0.0
C1401 C 0.6636 0.9089 0.60103 0.0
C1402 C 0.68168 0.9081 0.58792 0.0
C1403 C 0.67887 0.88488 0.57954 0.0
C1404 C 0.66722 0.83784 0.62353 0.0
C1405 C 0.65003 0.82563 0.64078 0.0
C1406 C 0.65426 0.83658 0.66558 0.0
C1407 C 0.6758 0.85991 0.67354 0.0
C1408 C 0.69314 0.8719 0.6562 0.0
C1409 C 0.68889 0.86092 0.63143 0.0
C1410 C 0.67299 0.79515 0.60971 0.0
C1411 C 0.65767 0.77088 0.617 0.0
C1412 C 0.66746 0.75974 0.6312 0.0
C1413 C 0.69263 0.77279 0.63825 0.0
C1414 C 0.70775 0.79759 0.63215 0.0
C1415 C 0.69796 0.80872 0.61792 0.0
C1416 C 0.66083 0.77168 0.55855 0.0
C1417 C 0.63958 0.74779 0.55242 0.0
C1418 C 0.64119 0.72661 0.54526 0.0
C1419 C 0.66412 0.72903 0.54393 0.0
C1420 C 0.68536 0.75307 0.55007 0.0
C1421 C 0.68372 0.7742 0.55739 0.0
C1422 C 0.65126 0.79564 0.51997 0.0
C1423 C 0.62807 0.77972 0.50721 0.0
C1424 C 0.62568 0.76674 0.48382 0.0
C1425 C 0.64649 0.7697 0.47313 0.0
C1426 C 0.66972 0.7866 0.48536 0.0
C1427 C 0.67209 0.79951 0.50866 0.0
C1428 C 0.64979 0.84141 0.53265 0.0
C1429 C 0.62965 0.84453 0.53102 0.0
C1430 C 0.62889 0.86068 0.51466 0.0
C1431 C 0.6481 0.87356 0.49955 0.0
C1432 C 0.66776 0.86975 0.50055 0.0
C1433 C 0.66869 0.85393 0.5171 0.0
C1434 C 0.68006 0.87169 0.69978 0.0
C1435 C 0.66595 0.70665 0.53608 0.0
H1436 H 0.17454 0.85698 0.74887 0.0
H1437 H 0.01123 0.65583 0.53611 0.0
H1438 H 0.18065 0.8693 0.61976 0.0
H1439 H 0.2207 0.90722 0.63327 0.0
H1440 H 0.25608 0.87063 0.59979 0.0
H1441 H 0.2159 0.83211 0.5872 0.0
H1442 H 0.13531 0.83136 0.64373 0.0
H1443 H 0.14675 0.8442 0.68872 0.0
H1444 H 0.20027 0.82205 0.68457 0.0
H1445 H 0.18844 0.80897 0.63964 0.0
H1446 H 0.08731 0.78813 0.60295 0.0
H1447 H 0.05418 0.7641 0.62906 0.0
H1448 H 0.09894 0.74266 0.66909 0.0
H1449 H 0.13135 0.76467 0.64105 0.0
H1450 H 0.08656 0.78157 0.54916 0.0
H1451 H 0.04775 0.74393 0.53219 0.0
H1452 H 0.06933 0.69638 0.56559 0.0
H1453 H 0.10831 0.73417 0.58205 0.0
H1454 H 0.1317 0.82525 0.52857 0.0
H1455 H 0.11594 0.81366 0.48413 0.0
H1456 H 0.11746 0.74496 0.48422 0.0
H1457 H 0.13351 0.75667 0.52857 0.0
H1458 H 0.1798 0.86777 0.56146 0.0
H1459 H 0.20592 0.89326 0.52997 0.0
H1460 H 0.21198 0.83023 0.50083 0.0
H1461 H 0.18649 0.80491 0.53293 0.0
O1462 O 0.17021 0.85167 0.73107 0.0
O1463 O 0.19754 0.8401 0.72791 0.0
O1464 O 0.01809 0.69604 0.5225 0.0
O1465 O 0.02636 0.67103 0.54281 0.0
C1466 C 0.17109 0.82535 0.59381 0.0
C1467 C 0.15413 0.8115 0.61107 0.0
C1468 C 0.13063 0.79077 0.60214 0.0
C1469 C 0.12448 0.78343 0.57605 0.0
C1470 C 0.14121 0.79777 0.55894 0.0
C1471 C 0.16445 0.81875 0.56775 0.0
C1472 C 0.19538 0.84783 0.60285 0.0
C1473 C 0.197 0.86923 0.61577 0.0
C1474 C 0.21975 0.89087 0.62324 0.0
C1475 C 0.24115 0.89152 0.61753 0.0
C1476 C 0.23965 0.87029 0.60436 0.0
C1477 C 0.21685 0.84843 0.59729 0.0
C1478 C 0.16094 0.81909 0.63845 0.0
C1479 C 0.14938 0.82913 0.65261 0.0
C1480 C 0.15601 0.83653 0.67829 0.0
C1481 C 0.17442 0.83413 0.69025 0.0
C1482 C 0.18601 0.82413 0.67595 0.0
C1483 C 0.17931 0.81666 0.65029 0.0
C1484 C 0.11162 0.77781 0.61975 0.0
C1485 C 0.08989 0.77793 0.61706 0.0
C1486 C 0.07108 0.76442 0.63208 0.0
C1487 C 0.07401 0.75141 0.65086 0.0
C1488 C 0.09624 0.75235 0.6545 0.0
C1489 C 0.11474 0.76502 0.63868 0.0
C1490 C 0.1004 0.76061 0.56658 0.0
C1491 C 0.08295 0.76301 0.55266 0.0
C1492 C 0.06077 0.74148 0.54305 0.0
C1493 C 0.05552 0.71713 0.5474 0.0
C1494 C 0.07283 0.71484 0.56182 0.0
C1495 C 0.09509 0.73639 0.57128 0.0
C1496 C 0.13369 0.79175 0.53168 0.0
C1497 C 0.129 0.80791 0.51887 0.0
C1498 C 0.11999 0.80132 0.49369 0.0
C1499 C 0.11559 0.77851 0.48116 0.0
C1500 C 0.12084 0.76265 0.49375 0.0
C1501 C 0.12993 0.76928 0.51891 0.0
C1502 C 0.18133 0.83453 0.54954 0.0
C1503 C 0.18712 0.8596 0.54861 0.0
C1504 C 0.2019 0.87407 0.53068 0.0
C1505 C 0.21081 0.86354 0.51326 0.0
C1506 C 0.2053 0.8386 0.51428 0.0
C1507 C 0.19075 0.82421 0.53244 0.0
C1508 C 0.18149 0.84211 0.71752 0.0
C1509 C 0.03217 0.69418 0.53681 0.0
H1510 H 0.18242 0.30341 0.74298 0.0
H1511 H 0.00845 0.28761 0.51194 0.0
H1512 H 0.21325 0.34564 0.60547 0.0
H1513 H 0.24526 0.34156 0.62711 0.0
H1514 H 0.19799 0.26008 0.6173 0.0
H1515 H 0.16594 0.26417 0.59592 0.0
H1516 H 0.18039 0.33833 0.64523 0.0
H1517 H 0.18625 0.33117 0.68846 0.0
H1518 H 0.12993 0.25196 0.67144 0.0
H1519 H 0.12434 0.2594 0.62822 0.0
H1520 H 0.13061 0.3375 0.63704 0.0
H1521 H 0.09857 0.33117 0.66461 0.0
H1522 H 0.05133 0.25537 0.62768 0.0
H1523 H 0.08338 0.26171 0.60011 0.0
H1524 H 0.11505 0.3464 0.58207 0.0
H1525 H 0.07917 0.34637 0.565 0.0
H1526 H 0.04901 0.26973 0.53005 0.0
H1527 H 0.08521 0.27027 0.54678 0.0
H1528 H 0.14589 0.35558 0.54146 0.0
H1529 H 0.13255 0.35932 0.49931 0.0
H1530 H 0.11909 0.28525 0.47362 0.0
H1531 H 0.13205 0.28135 0.51577 0.0
H1532 H 0.19569 0.3579 0.54897 0.0
H1533 H 0.22182 0.36472 0.51448 0.0
H1534 H 0.2002 0.28594 0.5086 0.0
H1535 H 0.17386 0.27904 0.54304 0.0
O1536 O 0.17959 0.30587 0.72588 0.0
O1537 O 0.14999 0.26548 0.71642 0.0
O1538 O 0.03889 0.32739 0.53768 0.0
O1539 O 0.02232 0.28777 0.51982 0.0
C1540 C 0.16658 0.30759 0.59063 0.0
C1541 C 0.14879 0.30382 0.60739 0.0
C1542 C 0.12802 0.30437 0.59921 0.0
C1543 C 0.12513 0.30904 0.57442 0.0
C1544 C 0.14332 0.31378 0.55792 0.0
C1545 C 0.16411 0.31309 0.56604 0.0
C1546 C 0.18739 0.3052 0.59911 0.0
C1547 C 0.21008 0.32692 0.60739 0.0
C1548 C 0.22821 0.3246 0.61976 0.0
C1549 C 0.22385 0.30053 0.62373 0.0
C1550 C 0.20164 0.27876 0.61424 0.0
C1551 C 0.18347 0.2811 0.60206 0.0
C1552 C 0.152 0.29937 0.63365 0.0
C1553 C 0.16936 0.31946 0.6509 0.0
C1554 C 0.17262 0.31532 0.67558 0.0
C1555 C 0.15858 0.29098 0.6834 0.0
C1556 C 0.14106 0.27092 0.66603 0.0
C1557 C 0.13781 0.27511 0.64136 0.0
C1558 C 0.10919 0.30008 0.6166 0.0
C1559 C 0.11341 0.31948 0.63506 0.0
C1560 C 0.09524 0.31588 0.65071 0.0
C1561 C 0.0727 0.29284 0.64805 0.0
C1562 C 0.06866 0.27324 0.62992 0.0
C1563 C 0.08682 0.27687 0.61425 0.0
C1564 C 0.10272 0.30842 0.56547 0.0
C1565 C 0.1006 0.32962 0.57081 0.0
C1566 C 0.08012 0.32954 0.56103 0.0
C1567 C 0.06133 0.30812 0.54594 0.0
C1568 C 0.06319 0.28657 0.54147 0.0
C1569 C 0.08383 0.28682 0.55097 0.0
C1570 C 0.1397 0.31809 0.53167 0.0
C1571 C 0.14061 0.34043 0.52658 0.0
C1572 C 0.1332 0.34265 0.50258 0.0
C1573 C 0.12497 0.3226 0.48345 0.0
C1574 C 0.12562 0.30099 0.48815 0.0
C1575 C 0.13293 0.29874 0.51213 0.0
C1576 C 0.18296 0.318 0.54848 0.0
C1577 C 0.19703 0.34226 0.54063 0.0
C1578 C 0.21184 0.34613 0.52102 0.0
C1579 C 0.21281 0.3258 0.50911 0.0
C1580 C 0.19969 0.30181 0.51773 0.0
C1581 C 0.18481 0.29792 0.53736 0.0
C1582 C 0.16236 0.28658 0.70953 0.0
C1583 C 0.04019 0.30841 0.53435 0.0
C1584 C 0.97755 0.38752 0.10357 0.0
C1585 C 0.98442 0.39772 0.08041 0.0
C1586 C 0.99181 0.43867 0.09889 0.0
C1587 C 0.98695 0.42914 0.12253 0.0
N1588 N 0.97889 0.396 0.14859 0.0
N1589 N 0.00182 0.43377 0.05658 0.0
C1590 C 0.98072 0.40391 0.12522 0.0
C1591 C 0.99265 0.42355 0.07821 0.0
N1592 N 0.96795 0.36216 0.10482 0.0
N1593 N 0.99501 0.46192 0.09612 0.0
H1594 H 0.00273 0.42327 0.04102 0.0
H1595 H 0.01041 0.45308 0.05472 0.0
H1596 H 0.99448 0.47348 0.11093 0.0
H1597 H 0.99608 0.46884 0.07883 0.0
H1598 H 0.95999 0.35302 0.12041 0.0
H1599 H 0.96648 0.34979 0.08962 0.0
H1600 H 0.97723 0.37891 0.15208 0.0
H1601 H 0.98091 0.40737 0.16492 0.0
C1602 C 0.59786 0.57798 0.1482 0.0
C1603 C 0.58494 0.57356 0.12452 0.0
C1604 C 0.5482 0.53769 0.13828 0.0
C1605 C 0.56079 0.54254 0.16221 0.0
N1606 N 0.59828 0.56352 0.18903 0.0
N1607 N 0.55098 0.54518 0.09454 0.0
C1608 C 0.58593 0.5615 0.16685 0.0
C1609 C 0.56106 0.55208 0.11881 0.0
N1610 N 0.62113 0.5984 0.15307 0.0
N1611 N 0.5237 0.52012 0.13449 0.0
H1612 H 0.56033 0.5551 0.07982 0.0
H1613 H 0.53461 0.52836 0.0886 0.0
H1614 H 0.51364 0.50879 0.14813 0.0
H1615 H 0.51291 0.51787 0.11841 0.0
H1616 H 0.63056 0.60473 0.17079 0.0
H1617 H 0.63096 0.60965 0.13931 0.0
H1618 H 0.61708 0.57539 0.19296 0.0
H1619 H 0.58988 0.55188 0.2031 0.0
C1620 C 0.40213 0.96476 0.09996 0.0
C1621 C 0.41485 0.97705 0.07932 0.0
C1622 C 0.45396 0.9915 0.10339 0.0
C1623 C 0.44113 0.98101 0.12452 0.0
N1624 N 0.40366 0.96331 0.14476 0.0
N1625 N 0.45292 0.00405 0.06178 0.0
C1626 C 0.41541 0.96931 0.12331 0.0
C1627 C 0.44083 0.99123 0.08123 0.0
N1628 N 0.37739 0.94828 0.09732 0.0
N1629 N 0.47845 0.00069 0.10417 0.0
H1630 H 0.44403 0.00283 0.04462 0.0
H1631 H 0.47167 0.01697 0.06304 0.0
H1632 H 0.48847 0.00108 0.12011 0.0
H1633 H 0.48854 0.00619 0.08865 0.0
H1634 H 0.36784 0.93651 0.11087 0.0
H1635 H 0.36639 0.94477 0.081 0.0
H1636 H 0.3853 0.95738 0.14541 0.0
H1637 H 0.41277 0.96675 0.16241 0.0
C1638 C 0.40656 0.99329 0.93621 0.0
C1639 C 0.41369 0.98586 0.95769 0.0
C1640 C 0.44926 0.99031 0.93786 0.0
C1641 C 0.44306 -0.00054 0.91713 0.0
N1642 N 0.4179 0.01274 0.89742 0.0
N1643 N 0.44303 0.98021 0.98082 0.0
C1644 C 0.42225 0.00179 0.91652 0.0
C1645 C 0.43536 0.9851 0.95902 0.0
N1646 N 0.3845 0.99167 0.93448 0.0
N1647 N 0.46816 0.98617 0.93706 0.0
H1648 H 0.43299 0.97572 0.99649 0.0
H1649 H 0.46005 0.98228 0.98411 0.0
H1650 H 0.47919 0.99041 0.92219 0.0
H1651 H 0.472 0.97697 0.95026 0.0
H1652 H 0.377 0.99427 0.91832 0.0
H1653 H 0.37276 0.98597 0.94877 0.0
H1654 H 0.40473 0.0177 0.89727 0.0
H1655 H 0.42868 0.01857 0.88236 0.0
C1656 C 0.00906 0.40344 0.94509 0.0
C1657 C 0.99642 0.40256 0.96648 0.0
C1658 C 0.99281 0.43781 0.95396 0.0
C1659 C 0.00167 0.43568 0.93071 0.0
N1660 N 0.01725 0.41598 0.90306 0.0
N1661 N 0.97596 0.41868 0.99165 0.0
C1662 C 0.0098 0.41855 0.92605 0.0
C1663 C 0.98837 0.41984 0.97112 0.0
N1664 N 0.02042 0.39 0.94304 0.0
N1665 N 0.9889 0.45724 0.95966 0.0
H1666 H 0.97352 0.40685 0.0055 0.0
H1667 H 0.96693 0.42844 0.99439 0.0
H1668 H 0.99182 0.47062 0.94738 0.0
H1669 H 0.98488 0.4615 0.97729 0.0
H1670 H 0.03172 0.3916 0.92899 0.0
H1671 H 0.02046 0.37902 0.95679 0.0
H1672 H 0.02055 0.40169 0.89739 0.0
H1673 H 0.01865 0.42724 0.88895 0.0
C1674 C 0.60021 0.59138 0.98323 0.0
C1675 C 0.58498 0.58246 0.00322 0.0
C1676 C 0.55045 0.5516 0.97357 0.0
C1677 C 0.56595 0.55972 0.95379 0.0
N1678 N 0.60624 0.58431 0.93972 0.0
N1679 N 0.54728 0.55114 0.0184 0.0
C1680 C 0.59111 0.57855 0.95865 0.0
C1681 C 0.56057 0.56166 0.99866 0.0
N1682 N 0.62279 0.61307 0.98742 0.0
N1683 N 0.52594 0.53484 0.96828 0.0
H1684 H 0.55418 0.55807 0.03701 0.0
H1685 H 0.53032 0.53431 0.01649 0.0
H1686 H 0.51798 0.52662 0.95017 0.0
H1687 H 0.51323 0.53039 0.98149 0.0
H1688 H 0.63365 0.62215 0.97319 0.0
H1689 H 0.62998 0.62334 0.00502 0.0
H1690 H 0.62519 0.59569 0.94262 0.0
H1691 H 0.60006 0.57627 0.92119 0.0
C1692 C 0.01143 0.6076 0.97582 0.0
C1693 C 0.01513 0.60165 -9e-05 0.0
C1694 C 0.01377 0.56363 0.98111 0.0
C1695 C 0.00794 0.56848 0.95726 0.0
N1696 N 0.99684 0.59232 0.93218 0.0
N1697 N 0.01723 0.57296 0.02634 0.0
C1698 C 0.00551 0.5897 0.95468 0.0
C1699 C 0.01562 0.57937 0.00283 0.0
N1700 N 0.01453 0.63081 0.97302 0.0
N1701 N 0.01821 0.54447 0.98288 0.0
H1702 H 0.01927 0.58442 0.04263 0.0
H1703 H 0.01491 0.55558 0.02979 0.0
H1704 H 0.01665 0.53238 0.96736 0.0
H1705 H 0.02508 0.54163 -0.00066 0.0
H1706 H 0.01472 0.63731 0.95564 0.0
H1707 H 0.0189 0.64451 0.98811 0.0
H1708 H 0.99209 0.60579 0.9299 0.0
H1709 H 0.99232 0.57959 0.91618 0.0
C1710 C 0.44509 0.43451 0.9576 0.0
C1711 C 0.41974 0.41621 0.95274 0.0
C1712 C 0.42003 0.42888 0.91055 0.0
C1713 C 0.44538 0.44703 0.91536 0.0
N1714 N 0.48087 0.47144 0.94489 0.0
N1715 N 0.38182 0.40107 0.92784 0.0
C1716 C 0.45754 0.45119 0.93939 0.0
C1717 C 0.40675 0.41508 0.93026 0.0
N1718 N 0.45731 0.43566 0.97952 0.0
N1719 N 0.40891 0.42398 0.88687 0.0
H1720 H 0.37157 0.39128 0.94215 0.0
H1721 H 0.37128 0.40126 0.91277 0.0
H1722 H 0.41802 0.43381 0.872 0.0
H1723 H 0.3912 0.40893 0.88148 0.0
H1724 H 0.47625 0.4461 0.98287 0.0
H1725 H 0.4485 0.42524 0.99418 0.0
H1726 H 0.48997 0.47715 0.96277 0.0
H1727 H 0.49055 0.48395 0.93189 0.0
C1728 C 0.56662 0.0282 0.9945 0.0
C1729 C 0.58795 0.02675 0.99468 0.0
C1730 C 0.58468 0.02155 0.94868 0.0
C1731 C 0.56336 0.02301 0.9485 0.0
N1732 N 0.53153 0.02352 0.97025 0.0
N1733 N 0.61549 0.01837 0.9726 0.0
C1734 C 0.55351 0.02497 0.97117 0.0
C1735 C 0.59632 0.02213 0.97193 0.0
N1736 N 0.5593 0.03322 0.01666 0.0
N1737 N 0.59428 0.0206 0.92656 0.0
H1738 H 0.62545 0.02013 0.98914 0.0
H1739 H 0.62071 0.01196 0.95698 0.0
H1740 H 0.58564 0.01886 0.90907 0.0
H1741 H 0.61139 0.02285 0.92534 0.0
H1742 H 0.54559 0.03733 0.01794 0.0
H1743 H 0.56778 0.0344 0.03407 0.0
H1744 H 0.52201 0.02234 0.98586 0.0
H1745 H 0.52185 0.02176 0.95344 0.0
C1746 C 0.60053 0.01653 0.14035 0.0
C1747 C 0.59248 0.02348 0.11914 0.0
C1748 C 0.55741 0.0186 0.14035 0.0
C1749 C 0.56415 0.00925 0.1605 0.0
N1750 N 0.5905 0.99684 0.17909 0.0
N1751 N 0.56216 0.02861 0.09732 0.0
C1752 C 0.58531 0.00756 0.16037 0.0
C1753 C 0.57069 0.024 0.11874 0.0
N1754 N 0.62307 0.01928 0.14165 0.0
N1755 N 0.53847 0.0226 0.14202 0.0
H1756 H 0.57159 0.03303 0.08125 0.0
H1757 H 0.54496 0.02629 0.09476 0.0
H1758 H 0.52763 0.01793 0.15707 0.0
H1759 H 0.53457 0.03226 0.12944 0.0
H1760 H 0.63113 0.01704 0.15762 0.0
H1761 H 0.63462 0.02566 0.12724 0.0
H1762 H 0.60395 0.99227 0.17859 0.0
H1763 H 0.58023 0.99092 0.19451 0.0
C1764 C 0.00976 0.6131 0.14134 0.0
C1765 C 0.00199 0.6042 0.11559 0.0
C1766 C 0.9823 0.56015 0.12567 0.0
C1767 C 0.99316 0.56922 0.15057 0.0
N1768 N 0.01726 0.60393 0.18274 0.0
N1769 N 0.98235 0.56926 0.08258 0.0
C1770 C 0.00664 0.59561 0.15868 0.0
C1771 C 0.98825 0.57769 0.10759 0.0
N1772 N 0.01987 0.63829 0.14918 0.0
N1773 N 0.96639 0.53472 0.11935 0.0
H1774 H 0.98623 0.58126 0.0686 0.0
H1775 H 0.97516 0.55044 0.0754 0.0
H1776 H 0.96207 0.52142 0.13213 0.0
H1777 H 0.95587 0.52702 0.10224 0.0
H1778 H 0.02367 0.64578 0.16793 0.0
H1779 H 0.02272 0.65156 0.13683 0.0
H1780 H 0.02983 0.62285 0.18911 0.0
H1781 H 0.01436 0.59162 0.19622 0.0
C1782 C 0.40695 0.39782 0.09419 0.0
C1783 C 0.42128 0.40709 0.07366 0.0
C1784 C 0.4566 0.43804 0.10245 0.0
C1785 C 0.44176 0.42984 0.12274 0.0
N1786 N 0.40181 0.40578 0.13771 0.0
N1787 N 0.45821 0.43858 0.0574 0.0
C1788 C 0.41659 0.4109 0.11853 0.0
C1789 C 0.4457 0.42799 0.07754 0.0
N1790 N 0.38459 0.3758 0.09064 0.0
N1791 N 0.4812 0.45475 0.10705 0.0
H1792 H 0.45068 0.43164 0.03895 0.0
H1793 H 0.47514 0.45543 0.05893 0.0
H1794 H 0.48975 0.46261 0.12507 0.0
H1795 H 0.49341 0.45943 0.09329 0.0
H1796 H 0.37452 0.36663 0.10531 0.0
H1797 H 0.37686 0.36551 0.07311 0.0
H1798 H 0.38285 0.39416 0.13515 0.0
H1799 H 0.40825 0.41494 0.15586 0.0
C1800 C 0.65127 0.75031 0.4059 0.0
C1801 C 0.64351 0.72444 0.40706 0.0
C1802 C 0.63825 0.72841 0.45177 0.0
C1803 C 0.64413 0.75368 0.45009 0.0
N1804 N 0.65255 0.78766 0.42527 0.0
N1805 N 0.62708 0.68772 0.4299 0.0
C1806 C 0.64956 0.76435 0.42703 0.0
C1807 C 0.63613 0.71311 0.42964 0.0
N1808 N 0.66079 0.76161 0.38482 0.0
N1809 N 0.63576 0.71944 0.47469 0.0
H1810 H 0.62648 0.67614 0.41441 0.0
H1811 H 0.61873 0.67773 0.44493 0.0
H1812 H 0.63688 0.72996 0.49132 0.0
H1813 H 0.6344 0.70236 0.47758 0.0
H1814 H 0.66911 0.78102 0.38374 0.0
H1815 H 0.6622 0.75189 0.36891 0.0
H1816 H 0.65402 0.7954 0.4084 0.0
H1817 H 0.65153 0.79848 0.44048 0.0
C1818 C 0.2637 0.91004 0.47837 0.0
C1819 C 0.25067 0.91057 0.45671 0.0
C1820 C 0.21184 0.87827 0.47098 0.0
C1821 C 0.22474 0.87833 0.493 0.0
N1822 N 0.26259 0.89049 0.51635 0.0
N1823 N 0.21377 0.89084 0.42901 0.0
C1824 C 0.25063 0.89301 0.49624 0.0
C1825 C 0.22512 0.89335 0.45202 0.0
N1826 N 0.28841 0.9264 0.48221 0.0
N1827 N 0.18685 0.86428 0.46853 0.0
H1828 H 0.22315 0.90123 0.41454 0.0
H1829 H 0.19569 0.87693 0.42335 0.0
H1830 H 0.17648 0.85204 0.48144 0.0
H1831 H 0.17622 0.86573 0.45445 0.0
H1832 H 0.29871 0.9295 0.49894 0.0
H1833 H 0.29879 0.93766 0.46873 0.0
H1834 H 0.28142 0.89866 0.51876 0.0
H1835 H 0.2535 0.8788 0.53015 0.0
C1836 C 0.11109 0.33424 0.4176 0.0
C1837 C 0.08529 0.31745 0.41463 0.0
C1838 C 0.08585 0.30753 0.45789 0.0
C1839 C 0.11169 0.32213 0.46002 0.0
N1840 N 0.14944 0.34749 0.44161 0.0
N1841 N 0.04864 0.28438 0.4306 0.0
C1842 C 0.12452 0.33513 0.43983 0.0
C1843 C 0.07283 0.30299 0.43435 0.0
N1844 N 0.12276 0.34903 0.39908 0.0
N1845 N 0.07363 0.29859 0.47865 0.0
H1846 H 0.03774 0.28066 0.41414 0.0
H1847 H 0.03963 0.27125 0.4433 0.0
H1848 H 0.08252 0.30151 0.49629 0.0
H1849 H 0.05484 0.29048 0.47894 0.0
H1850 H 0.14103 0.36359 0.40118 0.0
H1851 H 0.11384 0.34767 0.3819 0.0
H1852 H 0.15991 0.35502 0.42668 0.0
H1853 H 0.1597 0.34877 0.45779 0.0
C1854 C 0.09139 0.34731 0.27958 0.0
C1855 C 0.0883 0.32848 0.29523 0.0
C1856 C 0.11366 0.31901 0.26864 0.0
C1857 C 0.11206 0.33389 0.2507 0.0
N1858 N 0.09666 0.35969 0.23754 0.0
N1859 N 0.09987 0.29896 0.30673 0.0
C1860 C 0.1001 0.34727 0.25572 0.0
C1861 C 0.10042 0.31501 0.29029 0.0
N1862 N 0.08778 0.36636 0.28783 0.0
N1863 N 0.12863 0.30963 0.26547 0.0
H1864 H 0.09397 0.29864 0.32462 0.0
H1865 H 0.10507 0.28584 0.30264 0.0
H1866 H 0.13852 0.31215 0.24984 0.0
H1867 H 0.13279 0.301 0.27905 0.0
H1868 H 0.0918 0.38151 0.27761 0.0
H1869 H 0.08444 0.36943 0.30611 0.0
H1870 H 0.08568 0.36741 0.23938 0.0
H1871 H 0.10281 0.36015 0.21975 0.0
C1872 C 0.67051 0.73148 0.27123 0.0
C1873 C 0.65815 0.73033 0.29291 0.0
C1874 C 0.65432 0.76575 0.28137 0.0
C1875 C 0.66322 0.76419 0.25798 0.0
N1876 N 0.67849 0.74484 0.22945 0.0
N1877 N 0.63735 0.74563 0.31859 0.0
C1878 C 0.67119 0.747 0.25263 0.0
C1879 C 0.64992 0.74739 0.29805 0.0
N1880 N 0.68169 0.7179 0.26853 0.0
N1881 N 0.65042 0.78508 0.28774 0.0
H1882 H 0.63475 0.73337 0.33203 0.0
H1883 H 0.62822 0.75526 0.32165 0.0
H1884 H 0.65327 0.79875 0.27585 0.0
H1885 H 0.64645 0.78895 0.30555 0.0
H1886 H 0.69283 0.71963 0.25426 0.0
H1887 H 0.68167 0.70658 0.28194 0.0
H1888 H 0.68177 0.73063 0.22331 0.0
H1889 H 0.67977 0.75633 0.21563 0.0
C1890 C 0.26471 0.94106 0.31716 0.0
C1891 C 0.2505 0.92999 0.33737 0.0
C1892 C 0.21649 0.8979 0.3079 0.0
C1893 C 0.23019 0.90985 0.28771 0.0
N1894 N 0.26558 0.94473 0.27248 0.0
N1895 N 0.21203 0.90042 0.35255 0.0
C1896 C 0.25386 0.93197 0.29216 0.0
C1897 C 0.22608 0.90916 0.3329 0.0
N1898 N 0.28866 0.96014 0.32191 0.0
N1899 N 0.1947 0.87534 0.30314 0.0
H1900 H 0.21873 0.9078 0.37114 0.0
H1901 H 0.19336 0.88713 0.35042 0.0
H1902 H 0.18705 0.86668 0.28503 0.0
H1903 H 0.185 0.86422 0.31702 0.0
H1904 H 0.30087 0.9668 0.30815 0.0
H1905 H 0.29691 0.96834 0.33995 0.0
H1906 H 0.28169 0.96242 0.27456 0.0
H1907 H 0.25826 0.93859 0.25386 0.0
C1908 C 0.67426 0.90461 0.33725 0.0
C1909 C 0.67181 0.92587 0.33502 0.0
C1910 C 0.66078 0.91353 0.28992 0.0
C1911 C 0.666 0.89409 0.2917 0.0
N1912 N 0.67956 0.87196 0.31618 0.0
N1913 N 0.66618 0.95291 0.30902 0.0
C1914 C 0.67317 0.88976 0.31515 0.0
C1915 C 0.66581 0.93089 0.31132 0.0
N1916 N 0.67687 0.89821 0.36048 0.0
N1917 N 0.6507 0.91518 0.26781 0.0
H1918 H 0.67018 0.9664 0.32417 0.0
H1919 H 0.66467 0.95895 0.29184 0.0
H1920 H 0.64704 0.90296 0.25161 0.0
H1921 H 0.64401 0.92714 0.26603 0.0
H1922 H 0.67621 0.88147 0.36343 0.0
H1923 H 0.67769 0.90865 0.37705 0.0
H1924 H 0.68757 0.86983 0.33226 0.0
H1925 H 0.67828 0.86028 0.30041 0.0
C1926 C 0.10296 0.79372 0.2939 0.0
C1927 C 0.08352 0.7684 0.28701 0.0
C1928 C 0.08768 0.77415 0.24248 0.0
C1929 C 0.10782 0.79914 0.24936 0.0
N1930 N 0.13134 0.83495 0.28053 0.0
N1931 N 0.05345 0.73611 0.25577 0.0
C1932 C 0.11432 0.80969 0.27481 0.0
C1933 C 0.07449 0.75921 0.26157 0.0
N1934 N 0.11099 0.80209 0.31864 0.0
N1935 N 0.08208 0.76432 0.2178 0.0
H1936 H 0.04364 0.72451 0.26936 0.0
H1937 H 0.04459 0.72923 0.23781 0.0
H1938 H 0.09094 0.77499 0.20328 0.0
H1939 H 0.06957 0.74533 0.21166 0.0
H1940 H 0.12687 0.81924 0.32496 0.0
H1941 H 0.10203 0.79125 0.33304 0.0
H1942 H 0.13561 0.84445 0.29851 0.0
H1943 H 0.13997 0.847 0.26682 0.0
C1944 C 0.22036 0.33573 0.31931 0.0
C1945 C 0.23798 0.3285 0.31905 0.0
C1946 C 0.22702 0.31412 0.27402 0.0
C1947 C 0.21282 0.32559 0.27371 0.0
N1948 N 0.19421 0.34573 0.29546 0.0
N1949 N 0.25622 0.30781 0.29715 0.0
C1950 C 0.20865 0.33557 0.29628 0.0
C1951 C 0.24035 0.31623 0.2968 0.0
N1952 N 0.21462 0.34228 0.34177 0.0
N1953 N 0.22795 0.30158 0.2524 0.0
H1954 H 0.26497 0.30728 0.31357 0.0
H1955 H 0.26144 0.3019 0.28121 0.0
H1956 H 0.21913 0.30051 0.23526 0.0
H1957 H 0.23607 0.29081 0.25145 0.0
H1958 H 0.20057 0.34579 0.34369 0.0
H1959 H 0.22259 0.34189 0.35887 0.0
H1960 H 0.19264 0.35607 0.31066 0.0
H1961 H 0.18433 0.34462 0.27904 0.0
C1962 C 0.2621 0.33682 0.46546 0.0
C1963 C 0.25098 0.33773 0.44254 0.0
C1964 C 0.21408 0.32834 0.46288 0.0
C1965 C 0.22585 0.32924 0.48615 0.0
N1966 N 0.26148 0.33662 0.5107 0.0
N1967 N 0.21782 0.33717 0.41947 0.0
C1968 C 0.24997 0.334 0.48775 0.0
C1969 C 0.22736 0.33429 0.44127 0.0
N1970 N 0.2842 0.33855 0.46581 0.0
N1971 N 0.18998 0.32113 0.46136 0.0
H1972 H 0.22659 0.34049 0.40299 0.0
H1973 H 0.20204 0.33794 0.41801 0.0
H1974 H 0.17972 0.31698 0.47684 0.0
H1975 H 0.17952 0.31741 0.44456 0.0
H1976 H 0.2921 0.33519 0.48112 0.0
H1977 H 0.2941 0.34179 0.4501 0.0
H1978 H 0.2799 0.34277 0.51366 0.0
H1979 H 0.25293 0.33416 0.5273 0.0
C1980 C 0.6666 0.937 0.47633 0.0
C1981 C 0.65922 0.92918 0.45038 0.0
C1982 C 0.63829 0.88453 0.45861 0.0
C1983 C 0.64884 0.89247 0.4837 0.0
N1984 N 0.67274 0.92577 0.51717 0.0
N1985 N 0.63943 0.89553 0.41614 0.0
C1986 C 0.66265 0.9186 0.49287 0.0
C1987 C 0.645 0.90293 0.44136 0.0
N1988 N 0.67725 0.96206 0.48507 0.0
N1989 N 0.62205 0.85936 0.45128 0.0
H1990 H 0.64381 0.90819 0.40273 0.0
H1991 H 0.63196 0.87688 0.40822 0.0
H1992 H 0.61728 0.84537 0.46334 0.0
H1993 H 0.61173 0.85253 0.43401 0.0
H1994 H 0.68099 0.96892 0.504 0.0
H1995 H 0.68062 0.97589 0.47325 0.0
H1996 H 0.68538 0.94442 0.52436 0.0
H1997 H 0.66927 0.91277 0.53009 0.0
C1998 C 0.06914 0.74024 0.42589 0.0
C1999 C 0.08343 0.75078 0.40561 0.0
C2000 C 0.11885 0.78038 0.4349 0.0
C2001 C 0.10427 0.7704 0.4551 0.0
N2002 N 0.06457 0.74514 0.47019 0.0
N2003 N 0.12005 0.7837 0.39015 0.0
C2004 C 0.07906 0.7517 0.45068 0.0
C2005 C 0.10776 0.77178 0.40993 0.0
N2006 N 0.04664 0.71848 0.42158 0.0
N2007 N 0.14341 0.79732 0.43959 0.0
H2008 H 0.11243 0.77773 0.37162 0.0
H2009 H 0.13691 0.80065 0.39217 0.0
H2010 H 0.15208 0.80432 0.45767 0.0
H2011 H 0.15551 0.80319 0.42569 0.0
H2012 H 0.03657 0.70831 0.4358 0.0
H2013 H 0.03867 0.70946 0.40366 0.0
H2014 H 0.04561 0.73361 0.46782 0.0
H2015 H 0.0713 0.75306 0.48868 0.0
C2016 C 0.32013 0.08442 0.73233 0.0
C2017 C 0.32209 0.06293 0.73507 0.0
C2018 C 0.33058 0.07429 0.78052 0.0
C2019 C 0.32728 0.09497 0.77792 0.0
N2020 N 0.31571 0.11805 0.75242 0.0
N2021 N 0.32457 0.03451 0.76165 0.0
C2022 C 0.32101 0.09949 0.75412 0.0
C2023 C 0.32609 0.05708 0.75915 0.0
N2024 N 0.31857 0.09109 0.70892 0.0
N2025 N 0.33834 0.07135 0.80337 0.0
H2026 H 0.32082 0.02114 0.74646 0.0
H2027 H 0.32481 0.02791 0.77886 0.0
H2028 H 0.34069 0.0828 0.81976 0.0
H2029 H 0.34406 0.05868 0.8059 0.0
H2030 H 0.32 0.10813 0.7057 0.0
H2031 H 0.31763 0.08043 0.69249 0.0
H2032 H 0.30835 0.12046 0.73603 0.0
H2033 H 0.31707 0.13006 0.76792 0.0
C2034 C 0.93362 0.24982 0.80986 0.0
C2035 C 0.92067 0.25014 0.78805 0.0
C2036 C 0.88238 0.21536 0.80093 0.0
C2037 C 0.89476 0.21787 0.82435 0.0
N2038 N 0.93159 0.23804 0.85223 0.0
N2039 N 0.88295 0.23294 0.76195 0.0
C2040 C 0.92029 0.23508 0.82906 0.0
C2041 C 0.8951 0.23266 0.78326 0.0
N2042 N 0.95857 0.26337 0.81213 0.0
N2043 N 0.85852 0.19619 0.79556 0.0
H2044 H 0.89184 0.24388 0.74761 0.0
H2045 H 0.86401 0.22316 0.75879 0.0
H2046 H 0.84852 0.18351 0.8083 0.0
H2047 H 0.84908 0.19152 0.77793 0.0
H2048 H 0.96905 0.26208 0.8265 0.0
H2049 H 0.96892 0.27413 0.79835 0.0
H2050 H 0.94951 0.25243 0.85791 0.0
H2051 H 0.92252 0.22705 0.86649 0.0
C2052 C 0.77778 0.67067 0.75454 0.0
C2053 C 0.75212 0.653 0.75175 0.0
C2054 C 0.75335 0.64486 0.79564 0.0
C2055 C 0.77914 0.6606 0.79776 0.0
N2056 N 0.81653 0.68683 0.77913 0.0
N2057 N 0.71608 0.61997 0.76863 0.0
C2058 C 0.79156 0.67322 0.77722 0.0
C2059 C 0.74009 0.63911 0.77197 0.0
N2060 N 0.789 0.6847 0.7354 0.0
N2061 N 0.74135 0.63604 0.81655 0.0
H2062 H 0.70487 0.61557 0.75225 0.0
H2063 H 0.70749 0.60712 0.78167 0.0
H2064 H 0.75038 0.63958 0.83425 0.0
H2065 H 0.72249 0.62727 0.81687 0.0
H2066 H 0.80699 0.69991 0.73719 0.0
H2067 H 0.77999 0.68194 0.71785 0.0
H2068 H 0.82691 0.6942 0.76411 0.0
H2069 H 0.82704 0.68944 0.79563 0.0
C2070 C 0.74115 0.66831 0.60804 0.0
C2071 C 0.7487 0.66001 0.62852 0.0
C2072 C 0.78195 0.66228 0.60563 0.0
C2073 C 0.77554 0.67243 0.58598 0.0
N2074 N 0.75139 0.68841 0.56954 0.0
N2075 N 0.77819 0.6527 0.64882 0.0
C2076 C 0.7558 0.67642 0.58749 0.0
C2077 C 0.76963 0.65795 0.62787 0.0
N2078 N 0.7195 0.66755 0.60785 0.0
N2079 N 0.79944 0.65624 0.60276 0.0
H2080 H 0.76954 0.64927 0.66541 0.0
H2081 H 0.79488 0.65375 0.65052 0.0
H2082 H 0.80933 0.65971 0.58702 0.0
H2083 H 0.80299 0.64613 0.6151 0.0
H2084 H 0.71165 0.67074 0.59237 0.0
H2085 H 0.70839 0.66192 0.62266 0.0
H2086 H 0.73909 0.6945 0.571 0.0
H2087 H 0.76136 0.69399 0.55389 0.0
C2088 C 0.35622 0.06644 0.60072 0.0
C2089 C 0.35269 0.07111 0.62596 0.0
C2090 C 0.3576 0.11177 0.61798 0.0
C2091 C 0.35904 0.10615 0.59222 0.0
N2092 N 0.36524 0.08172 0.55963 0.0
N2093 N 0.35763 0.10084 0.6605 0.0
C2094 C 0.36028 0.08462 0.58379 0.0
C2095 C 0.35607 0.0948 0.63521 0.0
N2096 N 0.35518 0.04438 0.59309 0.0
N2097 N 0.35616 0.13245 0.62568 0.0
H2098 H 0.35671 0.08868 0.67343 0.0
H2099 H 0.36208 0.11859 0.66879 0.0
H2100 H 0.3577 0.1456 0.6137 0.0
H2101 H 0.3521 0.13594 0.64357 0.0
H2102 H 0.35486 0.03803 0.57451 0.0
H2103 H 0.35475 0.03232 0.60588 0.0
H2104 H 0.36767 0.06725 0.55235 0.0
H2105 H 0.36843 0.09493 0.54703 0.0
C2106 C 0.92936 0.27706 0.64814 0.0
C2107 C 0.91861 0.26388 0.66903 0.0
C2108 C 0.88592 0.22814 0.64123 0.0
C2109 C 0.89761 0.24058 0.62031 0.0
N2110 N 0.93172 0.27516 0.60312 0.0
N2111 N 0.88885 0.22601 0.6861 0.0
C2112 C 0.9197 0.2646 0.62355 0.0
C2113 C 0.89745 0.23915 0.66577 0.0
N2114 N 0.94852 0.30168 0.65186 0.0
N2115 N 0.86363 0.20605 0.63758 0.0
H2116 H 0.89675 0.2337 0.70434 0.0
H2117 H 0.87507 0.20696 0.68484 0.0
H2118 H 0.85498 0.19713 0.6198 0.0
H2119 H 0.85288 0.1974 0.65202 0.0
H2120 H 0.95545 0.31332 0.63756 0.0
H2121 H 0.95663 0.31118 0.66962 0.0
H2122 H 0.94932 0.29104 0.60431 0.0
H2123 H 0.92475 0.26708 0.58473 0.0
C2124 C 0.3571 0.24719 0.66697 0.0
C2125 C 0.35329 0.26732 0.66301 0.0
C2126 C 0.34576 0.25441 0.61784 0.0
C2127 C 0.35166 0.23571 0.62153 0.0
N2128 N 0.36548 0.21569 0.64881 0.0
N2129 N 0.34835 0.2931 0.63475 0.0
C2130 C 0.35799 0.23242 0.64591 0.0
C2131 C 0.34872 0.27172 0.63846 0.0
N2132 N 0.35921 0.24182 0.69084 0.0
N2133 N 0.3368 0.25524 0.59468 0.0
H2134 H 0.35054 0.30635 0.6494 0.0
H2135 H 0.34783 0.29882 0.6171 0.0
H2136 H 0.33468 0.24307 0.57901 0.0
H2137 H 0.32953 0.26647 0.59143 0.0
H2138 H 0.35929 0.22573 0.69497 0.0
H2139 H 0.35914 0.25256 0.70671 0.0
H2140 H 0.37289 0.21436 0.66577 0.0
H2141 H 0.36582 0.20421 0.6338 0.0
C2142 C 0.76201 0.11029 0.62062 0.0
C2143 C 0.74776 0.08372 0.61329 0.0
C2144 C 0.75843 0.09045 0.56996 0.0
C2145 C 0.7731 0.11691 0.57748 0.0
N2146 N 0.7851 0.15279 0.60789 0.0
N2147 N 0.72881 0.04852 0.58085 0.0
C2148 C 0.77352 0.12707 0.60215 0.0
C2149 C 0.74479 0.07383 0.58782 0.0
N2150 N 0.7659 0.11934 0.64546 0.0
N2151 N 0.75835 0.08127 0.54593 0.0
H2152 H 0.7192 0.03581 0.59369 0.0
H2153 H 0.7238 0.04026 0.56235 0.0
H2154 H 0.76718 0.09304 0.53209 0.0
H2155 H 0.75041 0.0621 0.53977 0.0
H2156 H 0.77848 0.13809 0.65242 0.0
H2157 H 0.7577 0.10778 0.6596 0.0
H2158 H 0.78405 0.16147 0.62475 0.0
H2159 H 0.79428 0.16559 0.59493 0.0
C2160 C 0.89377 0.6866 0.65805 0.0
C2161 C 0.91392 0.68315 0.65713 0.0
C2162 C 0.90916 0.67817 0.61112 0.0
C2163 C 0.88926 0.68199 0.61206 0.0
N2164 N 0.85987 0.6858 0.63537 0.0
N2165 N 0.93865 0.67173 0.63343 0.0
C2166 C 0.88065 0.68487 0.63527 0.0
C2167 C 0.92081 0.67751 0.63383 0.0
N2168 N 0.8876 0.69209 0.68076 0.0
N2169 N 0.91758 0.67629 0.58848 0.0
H2170 H 0.94867 0.67254 0.64952 0.0
H2171 H 0.94264 0.6646 0.61737 0.0
H2172 H 0.90886 0.67553 0.5714 0.0
H2173 H 0.93384 0.6768 0.58644 0.0
H2174 H 0.87497 0.69763 0.68293 0.0
H2175 H 0.89588 0.69199 0.69779 0.0
H2176 H 0.85108 0.68545 0.65136 0.0
H2177 H 0.85036 0.68533 0.61898 0.0
C2178 C 0.93132 0.67938 0.80406 0.0
C2179 C 0.91973 0.67839 0.78064 0.0
C2180 C 0.88238 0.66835 0.8003 0.0
C2181 C 0.89379 0.66881 0.82365 0.0
N2182 N 0.92728 0.67093 0.84767 0.0
N2183 N 0.88358 0.66831 0.75512 0.0
C2184 C 0.91775 0.67316 0.8255 0.0
C2185 C 0.89501 0.67174 0.77835 0.0
N2186 N 0.95545 0.68672 0.80581 0.0
N2187 N 0.85968 0.66528 0.79928 0.0
H2188 H 0.89251 0.67137 0.73873 0.0
H2189 H 0.86492 0.66083 0.75171 0.0
H2190 H 0.8494 0.66168 0.81472 0.0
H2191 H 0.85143 0.66762 0.78355 0.0
H2192 H 0.96584 0.69055 0.82267 0.0
H2193 H 0.96564 0.69036 0.79029 0.0
H2194 H 0.94356 0.6712 0.84975 0.0
H2195 H 0.91805 0.66707 0.86388 0.0
C2196 C 0.34508 0.27649 0.80289 0.0
C2197 C 0.33784 0.26787 0.77701 0.0
C2198 C 0.3208 0.22385 0.78621 0.0
C2199 C 0.33123 0.23293 0.81125 0.0
N2200 N 0.35335 0.26745 0.84408 0.0
N2201 N 0.32045 0.23349 0.74339 0.0
C2202 C 0.34314 0.25913 0.81987 0.0
C2203 C 0.32571 0.24152 0.76851 0.0
N2204 N 0.35353 0.30127 0.81118 0.0
N2205 N 0.30633 0.1983 0.77934 0.0
H2206 H 0.32358 0.24557 0.72963 0.0
H2207 H 0.31459 0.21506 0.73589 0.0
H2208 H 0.30296 0.18486 0.79171 0.0
H2209 H 0.29602 0.19044 0.76213 0.0
H2210 H 0.35682 0.30836 0.83002 0.0
H2211 H 0.35542 0.31443 0.79909 0.0
H2212 H 0.36481 0.2865 0.85085 0.0
H2213 H 0.3513 0.25515 0.85732 0.0
C2214 C 0.77836 0.10267 0.73937 0.0
C2215 C 0.75424 0.08122 0.73599 0.0
C2216 C 0.75044 0.08479 0.78106 0.0
C2217 C 0.7755 0.1041 0.78477 0.0
N2218 N 0.81421 0.13034 0.76819 0.0
N2219 N 0.71842 0.04927 0.75368 0.0
C2220 C 0.78973 0.11291 0.7641 0.0
C2221 C 0.74047 0.07166 0.75683 0.0
N2222 N 0.79015 0.11341 0.71892 0.0
N2223 N 0.73612 0.07926 0.80067 0.0
H2224 H 0.71046 0.03889 0.73623 0.0
H2225 H 0.70888 0.03993 0.76854 0.0
H2226 H 0.74286 0.08844 0.81878 0.0
H2227 H 0.71719 0.06729 0.79855 0.0
H2228 H 0.80682 0.13053 0.72011 0.0
H2229 H 0.78226 0.10623 0.70057 0.0
H2230 H 0.8261 0.13558 0.75409 0.0
H2231 H 0.82304 0.13836 0.78608 0.0
C2232 C 0.07984 0.36893 0.05497 0.0
C2233 C 0.06014 0.36913 0.06585 0.0
C2234 C 0.07422 0.36429 0.10698 0.0
C2235 C 0.09437 0.36502 0.09626 0.0
N2236 N 0.1197 0.37409 0.0618 0.0
N2237 N 0.04176 0.37313 0.1029 0.0
C2238 C 0.09825 0.36933 0.07078 0.0
C2239 C 0.05831 0.36869 0.09211 0.0
N2240 N 0.08025 0.36678 0.02948 0.0
N2241 N 0.06974 0.35842 0.13101 0.0
H2242 H 0.0302 0.37699 0.09262 0.0
H2243 H 0.04109 0.37547 0.12221 0.0
H2244 H 0.08116 0.35537 0.14256 0.0
H2245 H 0.05381 0.35474 0.13891 0.0
H2246 H 0.09259 0.36352 0.02047 0.0
H2247 H 0.067 0.36608 0.0171 0.0
H2248 H 0.12469 0.37995 0.04415 0.0
H2249 H 0.13356 0.37448 0.07289 0.0
C2250 C 0.65581 0.70016 0.09085 0.0
C2251 C 0.64559 0.67907 0.105 0.0
C2252 C 0.64434 0.70531 0.14067 0.0
C2253 C 0.65148 0.72523 0.12531 0.0
N2254 N 0.66195 0.7414 0.0852 0.0
N2255 N 0.62817 0.66045 0.14248 0.0
C2256 C 0.65678 0.72267 0.10026 0.0
C2257 C 0.63952 0.68137 0.1298 0.0
N2258 N 0.66525 0.69892 0.06874 0.0
N2259 N 0.6424 0.70941 0.16563 0.0
H2260 H 0.62446 0.64272 0.13499 0.0
H2261 H 0.62086 0.66019 0.15952 0.0
H2262 H 0.64546 0.72666 0.17405 0.0
H2263 H 0.6397 0.69654 0.1784 0.0
H2264 H 0.67528 0.71453 0.05892 0.0
H2265 H 0.66509 0.68282 0.06131 0.0
H2266 H 0.66299 0.73929 0.06594 0.0
H2267 H 0.66352 0.75854 0.09159 0.0
C2268 C 0.32956 0.95999 0.07857 0.0
C2269 C 0.32721 0.9591 0.05193 0.0
C2270 C 0.28296 0.92879 0.05137 0.0
C2271 C 0.28574 0.92911 0.07772 0.0
N2272 N 0.31167 0.94082 0.11598 0.0
N2273 N 0.30189 0.94149 0.01257 0.0
C2274 C 0.30904 0.94351 0.09118 0.0
C2275 C 0.30401 0.94291 0.03817 0.0
N2276 N 0.35132 0.97689 0.09207 0.0
N2277 N 0.26 0.91591 0.03919 0.0
H2278 H 0.31581 0.95365 0.00215 0.0
H2279 H 0.28645 0.92759 0.00134 0.0
H2280 H 0.2443 0.90486 0.04818 0.0
H2281 H 0.25616 0.91719 0.02056 0.0
H2282 H 0.35304 0.98134 0.11142 0.0
H2283 H 0.36779 0.98703 0.08409 0.0
H2284 H 0.32853 0.94825 0.1261 0.0
H2285 H 0.29701 0.92931 0.12608 0.0
C2286 C 0.38718 0.07734 0.01436 0.0
C2287 C 0.39214 0.06122 0.99892 0.0
C2288 C 0.38999 0.08088 0.96188 0.0
C2289 C 0.38453 0.09667 0.9772 0.0
N2290 N 0.38333 0.11438 0.01818 0.0
N2291 N 0.40458 0.05176 0.95996 0.0
C2292 C 0.38502 0.09642 0.00358 0.0
C2293 C 0.39562 0.06439 0.97326 0.0
N2294 N 0.3831 0.07341 0.03889 0.0
N2295 N 0.38874 0.0809 0.93638 0.0
H2296 H 0.40928 0.03995 0.96812 0.0
H2297 H 0.40951 0.05474 0.9417 0.0
H2298 H 0.38547 0.09333 0.92742 0.0
H2299 H 0.38955 0.06768 0.92396 0.0
H2300 H 0.37648 0.08239 0.05034 0.0
H2301 H 0.38509 0.06001 0.04757 0.0
H2302 H 0.38587 0.11681 0.03768 0.0
H2303 H 0.38134 0.12832 0.01069 0.0
C2304 C 0.96236 0.29915 0.9599 0.0
C2305 C 0.96915 0.30122 0.9858 0.0
C2306 C 0.93729 0.2569 0.98792 0.0
C2307 C 0.93011 0.25496 0.96217 0.0
N2308 N 0.93854 0.27155 0.92218 0.0
N2309 N 0.96814 0.2809 0.02263 0.0
C2310 C 0.94365 0.27525 0.94764 0.0
C2311 C 0.95819 0.27965 0.99922 0.0
N2312 N 0.97292 0.32026 0.94744 0.0
N2313 N 0.92351 0.2374 0.00178 0.0
H2314 H 0.98376 0.29725 0.03121 0.0
H2315 H 0.96246 0.26521 0.03251 0.0
H2316 H 0.90851 0.22006 0.99399 0.0
H2317 H 0.926 0.23886 0.02124 0.0
H2318 H 0.96686 0.32082 0.9294 0.0
H2319 H 0.9872 0.33775 0.95575 0.0
H2320 H 0.94912 0.28476 0.91016 0.0
H2321 H 0.92469 0.2543 0.9128 0.0
C2322 C 0.68866 0.60505 0.02638 0.0
C2323 C 0.68816 0.6263 0.03748 0.0
C2324 C 0.72378 0.65446 0.01595 0.0
C2325 C 0.72599 0.63364 0.00724 0.0
N2326 N 0.71432 0.59019 0.01064 0.0
N2327 N 0.71065 0.67172 0.04921 0.0
C2328 C 0.70965 0.60923 0.01454 0.0
C2329 C 0.70742 0.65119 0.03428 0.0
N2330 N 0.66876 0.58103 0.02556 0.0
N2331 N 0.73627 0.67702 0.00595 0.0
H2332 H 0.70023 0.67004 0.06423 0.0
H2333 H 0.72562 0.69 0.04865 0.0
H2334 H 0.7473 0.67987 0.99127 0.0
H2335 H 0.7334 0.69189 0.01035 0.0
H2336 H 0.66778 0.56541 0.01555 0.0
H2337 H 0.65227 0.57697 0.03229 0.0
H2338 H 0.70396 0.57273 0.01762 0.0
H2339 H 0.73003 0.59282 0.00294 0.0
C2340 C 0.94408 0.63161 0.98329 0.0
C2341 C 0.94452 0.6365 0.00963 0.0
C2342 C 0.90806 0.63924 0.00371 0.0
C2343 C 0.90956 0.63765 0.97739 0.0
N2344 N 0.9299 0.63437 0.94179 0.0
N2345 N 0.929 0.64832 0.04503 0.0
C2346 C 0.92782 0.63436 0.96704 0.0
C2347 C 0.92695 0.64102 0.01993 0.0
N2348 N 0.95853 0.62336 0.97391 0.0
N2349 N 0.88837 0.63869 0.01318 0.0
H2350 H 0.94266 0.65006 0.0576 0.0
H2351 H 0.91843 0.65472 0.05311 0.0
H2352 H 0.8743 0.63761 0.00185 0.0
H2353 H 0.88486 0.63702 0.03195 0.0
H2354 H 0.95754 0.61726 0.95506 0.0
H2355 H 0.9699 0.62025 0.98544 0.0
H2356 H 0.94448 0.63487 0.93341 0.0
H2357 H 0.91782 0.63558 0.92931 0.0
C2358 C 0.35096 0.31187 0.94407 0.0
C2359 C 0.35145 0.31468 0.97062 0.0
C2360 C 0.34649 0.27299 0.97224 0.0
C2361 C 0.34431 0.2694 0.94566 0.0
N2362 N 0.33908 0.28283 0.90614 0.0
N2363 N 0.34225 0.29479 0.00904 0.0
C2364 C 0.34482 0.28805 0.9315 0.0
C2365 C 0.34694 0.29427 0.98444 0.0
N2366 N 0.35758 0.3322 0.93097 0.0
N2367 N 0.34928 0.25677 0.98592 0.0
H2368 H 0.34122 0.30952 0.0184 0.0
H2369 H 0.33661 0.27931 0.01926 0.0
H2370 H 0.34966 0.24118 0.97782 0.0
H2371 H 0.35358 0.2602 0.00528 0.0
H2372 H 0.36016 0.33197 0.91193 0.0
H2373 H 0.36253 0.35 0.93957 0.0
H2374 H 0.33692 0.29478 0.89513 0.0
H2375 H 0.33422 0.26541 0.89645 0.0
C2376 C 0.69167 0.07841 0.0234 0.0
C2377 C 0.68246 0.05258 0.0271 0.0
C2378 C 0.7138 0.05292 0.00223 0.0
C2379 C 0.72376 0.079 -0.00027 0.0
N2380 N 0.72694 0.11824 0.01515 0.0
N2381 N 0.69202 0.01972 0.0287 0.0
C2382 C 0.71427 0.09231 0.01273 0.0
C2383 C 0.6958 0.04121 0.01924 0.0
N2384 N 0.67848 0.08944 0.02849 0.0
N2385 N 0.72046 0.03889 0.98762 0.0
H2386 H 0.68063 0.01183 0.04298 0.0
H2387 H 0.70265 0.01189 0.02478 0.0
H2388 H 0.73276 0.04632 0.97399 0.0
H2389 H 0.71181 0.01924 0.98732 0.0
H2390 H 0.6833 0.10725 0.02341 0.0
H2391 H 0.66162 0.07996 0.03557 0.0
H2392 H 0.72188 0.1289 0.0264 0.0
H2393 H 0.74392 0.12903 0.00817 0.0
C2394 C 0.61869 0.94891 0.10233 0.0
C2395 C 0.62041 0.95198 0.07647 0.0
C2396 C 0.62465 0.91501 0.06924 0.0
C2397 C 0.62621 0.91415 0.09552 0.0
N2398 N 0.62803 0.93231 0.13757 0.0
N2399 N 0.6275 0.93989 0.03534 0.0
C2400 C 0.62401 0.93158 0.11224 0.0
C2401 C 0.62383 0.93541 0.05982 0.0
N2402 N 0.61132 0.9621 0.11727 0.0
N2403 N 0.62358 0.89612 0.05333 0.0
H2404 H 0.62688 0.95453 0.02769 0.0
H2405 H 0.63291 0.93029 0.02305 0.0
H2406 H 0.62433 0.88101 0.05968 0.0
H2407 H 0.61993 0.89425 0.03398 0.0
H2408 H 0.60748 0.95894 0.1358 0.0
H2409 H 0.60659 0.97439 0.11032 0.0
H2410 H 0.62941 0.94649 0.15049 0.0
H2411 H 0.63205 0.91999 0.14567 0.0
C2412 C 0.05487 0.72484 0.07159 0.0
C2413 C 0.03805 0.70666 0.08651 0.0
C2414 C 0.05797 0.73752 0.12391 0.0
C2415 C 0.07696 0.75374 0.10949 0.0
N2416 N 0.09524 0.76157 0.07007 0.0
N2417 N 0.02372 0.69515 0.12724 0.0
C2418 C 0.07585 0.74714 0.08342 0.0
C2419 C 0.03941 0.71293 0.11277 0.0
N2420 N 0.05026 0.72132 0.04608 0.0
N2421 N 0.05755 0.74582 0.14811 0.0
H2422 H 0.00955 0.67718 0.11982 0.0
H2423 H 0.02567 0.69755 0.14676 0.0
H2424 H 0.07092 0.76372 0.15673 0.0
H2425 H 0.043 0.73599 0.15892 0.0
H2426 H 0.06072 0.73511 0.03447 0.0
H2427 H 0.03435 0.70589 0.03674 0.0
H2428 H 0.09648 0.75595 0.05167 0.0
H2429 H 0.11108 0.77811 0.07794 0.0
C2430 C 0.29719 0.36883 0.0304 0.0
C2431 C 0.32036 0.37743 0.043 0.0
C2432 C 0.30465 0.3785 0.08363 0.0
C2433 C 0.28161 0.3705 0.07104 0.0
N2434 N 0.25681 0.3626 0.03276 0.0
N2435 N 0.34795 0.39612 0.08045 0.0
C2436 C 0.27816 0.36712 0.04447 0.0
C2437 C 0.32464 0.384 0.06931 0.0
N2438 N 0.29311 0.36131 0.00519 0.0
N2439 N 0.3072 0.37999 0.10922 0.0
H2440 H 0.36301 0.40101 0.07024 0.0
H2441 H 0.35269 0.4035 0.09924 0.0
H2442 H 0.29309 0.37657 0.12043 0.0
H2443 H 0.32271 0.38284 0.11931 0.0
H2444 H 0.27591 0.35204 0.99539 0.0
H2445 H 0.30682 0.36297 0.9942 0.0
H2446 H 0.25406 0.36253 0.01352 0.0
H2447 H 0.24236 0.36082 0.04255 0.0
C2448 C 0.74428 0.70412 0.38702 0.0
C2449 C 0.72372 0.7035 0.3966 0.0
C2450 C 0.73757 0.70131 0.43904 0.0
C2451 C 0.75854 0.70284 0.42957 0.0
N2452 N 0.78484 0.71161 0.39602 0.0
N2453 N 0.70358 0.70743 0.43215 0.0
C2454 C 0.76284 0.70617 0.404 0.0
C2455 C 0.72122 0.7039 0.42278 0.0
N2456 N 0.74543 0.7012 0.3617 0.0
N2457 N 0.73283 0.69646 0.46328 0.0
H2458 H 0.69163 0.70993 0.42081 0.0
H2459 H 0.70226 0.71033 0.45124 0.0
H2460 H 0.74461 0.69485 0.47582 0.0
H2461 H 0.71647 0.69224 0.47048 0.0
H2462 H 0.75852 0.69847 0.35368 0.0
H2463 H 0.73216 0.69938 0.34852 0.0
H2464 H 0.79008 0.71687 0.37826 0.0
H2465 H 0.7988 0.71315 0.40797 0.0
C2466 C 0.3431 0.03408 0.42964 0.0
C2467 C 0.32817 0.01248 0.44206 0.0
C2468 C 0.32878 0.03985 0.47776 0.0
C2469 C 0.33977 0.06066 0.46332 0.0
N2470 N 0.35659 0.07788 0.42503 0.0
N2471 N 0.30642 0.99413 0.47777 0.0
C2472 C 0.3471 0.058 0.43926 0.0
C2473 C 0.32121 0.01519 0.4663 0.0
N2474 N 0.3535 0.03166 0.40869 0.0
N2475 N 0.32563 0.04381 0.50237 0.0
H2476 H 0.3012 0.97596 0.47005 0.0
H2477 H 0.29831 0.99451 0.4941 0.0
H2478 H 0.33097 0.06175 0.51114 0.0
H2479 H 0.31976 0.02991 0.51462 0.0
H2480 H 0.3664 0.04704 0.40007 0.0
H2481 H 0.35106 0.01436 0.40137 0.0
H2482 H 0.35946 0.07618 0.4062 0.0
H2483 H 0.36014 0.09585 0.4315 0.0
C2484 C 0.97244 0.27025 0.3722 0.0
C2485 C 0.99502 0.28852 0.38606 0.0
C2486 C 0.97739 0.27244 0.42537 0.0
C2487 C 0.95435 0.25638 0.41181 0.0
N2488 N 0.92884 0.24044 0.37294 0.0
N2489 N 0.01833 0.30858 0.42631 0.0
C2490 C 0.95162 0.25513 0.38534 0.0
C2491 C 0.9973 0.29001 0.41276 0.0
N2492 N 0.97057 0.26774 0.34656 0.0
N2493 N 0.98037 0.27044 0.4503 0.0
H2494 H 0.03459 0.31999 0.4184 0.0
H2495 H 0.01959 0.31315 0.4456 0.0
H2496 H 0.9661 0.25801 0.46031 0.0
H2497 H 0.99733 0.27937 0.46057 0.0
H2498 H 0.95579 0.25263 0.33554 0.0
H2499 H 0.98418 0.28003 0.33594 0.0
H2500 H 0.92484 0.24093 0.35412 0.0
H2501 H 0.91336 0.22867 0.38191 0.0
C2502 C 0.0498 0.41162 0.35097 0.0
C2503 C 0.04763 0.39189 0.33354 0.0
C2504 C 0.03614 0.40906 0.29947 0.0
C2505 C 0.04024 0.42971 0.31657 0.0
N2506 N 0.05504 0.45339 0.35741 0.0
N2507 N 0.04244 0.37435 0.29022 0.0
C2508 C 0.04853 0.43193 0.34193 0.0
C2509 C 0.04186 0.39134 0.30752 0.0
N2510 N 0.05107 0.41001 0.3762 0.0
N2511 N 0.02605 0.40592 0.2756 0.0
H2512 H 0.0455 0.36021 0.29483 0.0
H2513 H 0.04183 0.37549 0.27098 0.0
H2514 H 0.02261 0.41904 0.26847 0.0
H2515 H 0.01937 0.3894 0.26341 0.0
H2516 H 0.05012 0.42248 0.38955 0.0
H2517 H 0.05035 0.39474 0.38386 0.0
H2518 H 0.06376 0.45735 0.37535 0.0
H2519 H 0.05357 0.46823 0.35152 0.0
C2520 C 0.62748 0.60908 0.33042 0.0
C2521 C 0.63576 0.6298 0.31588 0.0
C2522 C 0.60716 0.60176 0.28025 0.0
C2523 C 0.59746 0.58156 0.29556 0.0
N2524 N 0.60101 0.56375 0.33265 0.0
N2525 N 0.63812 0.64564 0.27593 0.0
C2526 C 0.60863 0.5845 0.31983 0.0
C2527 C 0.62719 0.62598 0.29031 0.0
N2528 N 0.63722 0.61325 0.35464 0.0
N2529 N 0.59653 0.59783 0.25648 0.0
H2530 H 0.65276 0.66344 0.28308 0.0
H2531 H 0.634 0.6441 0.25673 0.0
H2532 H 0.5826 0.57999 0.2483 0.0
H2533 H 0.60091 0.61208 0.24493 0.0
H2534 H 0.63034 0.59993 0.36747 0.0
H2535 H 0.65228 0.63062 0.36225 0.0
H2536 H 0.60947 0.56392 0.3496 0.0
H2537 H 0.58688 0.5456 0.32554 0.0
C2538 C 0.36836 0.95029 0.37164 0.0
C2539 C 0.3448 0.94348 0.36154 0.0
C2540 C 0.35563 0.93938 0.31891 0.0
C2541 C 0.37915 0.94602 0.32899 0.0
N2542 N 0.40677 0.95315 0.36456 0.0
N2543 N 0.31393 0.92608 0.32677 0.0
C2544 C 0.38512 0.94992 0.3553 0.0
C2545 C 0.33779 0.9363 0.33549 0.0
N2546 N 0.37499 0.95814 0.39668 0.0
N2547 N 0.35067 0.93689 0.2935 0.0
H2548 H 0.3004 0.92324 0.3386 0.0
H2549 H 0.30705 0.91836 0.30832 0.0
H2550 H 0.36302 0.93813 0.28074 0.0
H2551 H 0.33496 0.93511 0.28502 0.0
H2552 H 0.39275 0.96624 0.40482 0.0
H2553 H 0.3629 0.95785 0.40928 0.0
H2554 H 0.41124 0.95357 0.38349 0.0
H2555 H 0.41967 0.95352 0.35307 0.0
C2556 C 0.58847 0.94886 0.33485 0.0
C2557 C 0.61017 0.97161 0.34495 0.0
C2558 C 0.59901 0.99561 0.31913 0.0
C2559 C 0.57569 0.97357 0.31234 0.0
N2560 N 0.54631 0.93021 0.31918 0.0
N2561 N 0.63238 0.01759 0.3514 0.0
C2562 C 0.56981 0.95041 0.32173 0.0
C2563 C 0.6145 0.99531 0.33838 0.0
N2564 N 0.58597 0.92579 0.33667 0.0
N2565 N 0.60664 0.01671 0.30695 0.0
H2566 H 0.64279 0.01841 0.36719 0.0
H2567 H 0.6347 0.03511 0.34848 0.0
H2568 H 0.59614 0.01735 0.29208 0.0
H2569 H 0.62438 0.03245 0.30983 0.0
H2570 H 0.57127 0.90893 0.32763 0.0
H2571 H 0.59982 0.92373 0.34452 0.0
H2572 H 0.54093 0.91381 0.32781 0.0
H2573 H 0.53177 0.93085 0.31084 0.0
C2574 C 0.99565 0.64069 0.29183 0.0
C2575 C 0.01968 0.66227 0.29734 0.0
C2576 C 0.03664 0.6361 0.28597 0.0
C2577 C 0.01296 0.61521 0.27786 0.0
N2578 N 0.97055 0.60031 0.26646 0.0
N2579 N 0.06181 0.6815 0.2889 0.0
C2580 C 0.99259 0.61832 0.27864 0.0
C2581 C 0.03983 0.66028 0.29111 0.0
N2582 N 0.97587 0.64069 0.30028 0.0
N2583 N 0.05595 0.63295 0.28991 0.0
H2584 H 0.0634 0.69905 0.28903 0.0
H2585 H 0.07679 0.68091 0.28297 0.0
H2586 H 0.0542 0.61521 0.2884 0.0
H2587 H 0.0731 0.64777 0.29758 0.0
H2588 H 0.95848 0.6244 0.29868 0.0
H2589 H 0.97701 0.656 0.31101 0.0
H2590 H 0.95579 0.60286 0.26474 0.0
H2591 H 0.9679 0.58417 0.2558 0.0
C2592 C 0.35928 0.3856 0.36349 0.0
C2593 C 0.33689 0.36985 0.34839 0.0
C2594 C 0.35796 0.38486 0.31056 0.0
C2595 C 0.37976 0.40225 0.32576 0.0
N2596 N 0.40018 0.42278 0.3667 0.0
N2597 N 0.31395 0.35907 0.30821 0.0
C2598 C 0.38012 0.40375 0.35226 0.0
C2599 C 0.33596 0.37079 0.32208 0.0
N2600 N 0.36113 0.38231 0.3882 0.0
N2601 N 0.35839 0.38112 0.28518 0.0
H2602 H 0.29753 0.34976 0.31637 0.0
H2603 H 0.31197 0.36105 0.28931 0.0
H2604 H 0.37421 0.39083 0.27596 0.0
H2605 H 0.34355 0.36673 0.27358 0.0
H2606 H 0.37767 0.3914 0.39929 0.0
H2607 H 0.34663 0.36874 0.39712 0.0
H2608 H 0.40049 0.42643 0.38601 0.0
H2609 H 0.41581 0.43636 0.35909 0.0
C2610 C 0.29363 0.25564 0.38891 0.0
C2611 C 0.28897 0.27161 0.40501 0.0
C2612 C 0.298 0.25591 0.44181 0.0
C2613 C 0.3014 0.23895 0.42573 0.0
N2614 N 0.29816 0.21909 0.38426 0.0
N2615 N 0.28104 0.28278 0.446 0.0
C2616 C 0.29785 0.23769 0.39932 0.0
C2617 C 0.28946 0.27049 0.43127 0.0
N2618 N 0.29525 0.25849 0.36391 0.0
N2619 N 0.3038 0.25877 0.46709 0.0
H2620 H 0.27394 0.29297 0.43866 0.0
H2621 H 0.27876 0.28077 0.46497 0.0
H2622 H 0.31007 0.24839 0.4756 0.0
H2623 H 0.30433 0.27289 0.47939 0.0
H2624 H 0.30138 0.24949 0.35178 0.0
H2625 H 0.29221 0.27136 0.35552 0.0
H2626 H 0.29316 0.21549 0.36505 0.0
H2627 H 0.30151 0.20584 0.39131 0.0
C2628 C 0.72137 0.05107 0.40632 0.0
C2629 C 0.70422 0.03383 0.42168 0.0
C2630 C 0.72595 0.06477 0.45866 0.0
C2631 C 0.74494 0.07998 0.44372 0.0
N2632 N 0.7625 0.08617 0.40392 0.0
N2633 N 0.69023 0.02359 0.46274 0.0
C2634 C 0.74312 0.07279 0.41768 0.0
C2635 C 0.70633 0.04058 0.44794 0.0
N2636 N 0.71636 0.04731 0.38084 0.0
N2637 N 0.72652 0.07369 0.48291 0.0
H2638 H 0.6752 0.00607 0.45556 0.0
H2639 H 0.69255 0.02613 0.48225 0.0
H2640 H 0.74069 0.0913 0.49129 0.0
H2641 H 0.71212 0.06471 0.4941 0.0
H2642 H 0.72715 0.06057 0.36894 0.0
H2643 H 0.69994 0.03236 0.37182 0.0
H2644 H 0.7631 0.08001 0.38551 0.0
H2645 H 0.77887 0.10228 0.41146 0.0
C2646 C 0.95841 0.70475 0.36415 0.0
C2647 C 0.98275 0.71684 0.37515 0.0
C2648 C 0.96953 0.72167 0.41631 0.0
C2649 C 0.94542 0.71093 0.40508 0.0
N2650 N 0.91727 0.69593 0.36804 0.0
N2651 N 0.01255 0.74135 0.41019 0.0
C2652 C 0.93995 0.70354 0.37887 0.0
C2653 C 0.98864 0.72667 0.40081 0.0
N2654 N 0.95287 0.69384 0.33985 0.0
N2655 N 0.97401 0.72629 0.44185 0.0
H2656 H 0.02699 0.7457 0.39921 0.0
H2657 H 0.01816 0.75109 0.42813 0.0
H2658 H 0.96053 0.7231 0.45387 0.0
H2659 H 0.99062 0.73135 0.45129 0.0
H2660 H 0.93509 0.68225 0.33156 0.0
H2661 H 0.96608 0.69506 0.32832 0.0
H2662 H 0.91285 0.69282 0.34874 0.0
H2663 H 0.90325 0.69455 0.37833 0.0
C2664 C 0.38477 0.99708 0.7378 0.0
C2665 C 0.38517 0.0201 0.73678 0.0
C2666 C 0.40913 0.03612 0.77764 0.0
C2667 C 0.41364 0.01601 0.77508 0.0
N2668 N 0.38913 0.97068 0.76567 0.0
N2669 N 0.39576 0.061 0.75737 0.0
C2670 C 0.39651 0.99421 0.75895 0.0
C2671 C 0.39678 0.03954 0.75719 0.0
N2672 N 0.37417 0.97832 0.71822 0.0
N2673 N 0.41231 0.04859 0.8008 0.0
H2674 H 0.38565 0.06357 0.74357 0.0
H2675 H 0.40606 0.07674 0.77059 0.0
H2676 H 0.41656 0.04261 0.81685 0.0
H2677 H 0.40721 0.06187 0.80447 0.0
H2678 H 0.3754 0.96217 0.71753 0.0
H2679 H 0.36633 0.98003 0.70173 0.0
H2680 H 0.37496 0.95404 0.7557 0.0
H2681 H 0.39527 0.96833 0.78296 0.0
C2682 C 0.00287 0.37387 0.76039 0.0
C2683 C 0.99258 0.35189 0.7732 0.0
C2684 C 0.99091 0.37609 0.81046 0.0
C2685 C 0.9971 0.39654 0.79606 0.0
N2686 N 0.00821 0.41515 0.75712 0.0
N2687 N 0.97685 0.33143 0.81032 0.0
C2688 C 0.00323 0.39567 0.77106 0.0
C2689 C 0.987 0.35291 0.79841 0.0
N2690 N 0.01258 0.37388 0.73814 0.0
N2691 N 0.9888 0.37897 0.83557 0.0
H2692 H 0.97463 0.31451 0.80222 0.0
H2693 H 0.9696 0.33 0.82757 0.0
H2694 H 0.99138 0.39573 0.84476 0.0
H2695 H 0.98649 0.36567 0.84766 0.0
H2696 H 0.0224 0.39002 0.72896 0.0
H2697 H 0.01292 0.35822 0.7301 0.0
H2698 H 0.00981 0.41421 0.73789 0.0
H2699 H 0.00923 0.43177 0.76441 0.0
C2700 C 0.63803 0.60659 0.70706 0.0
C2701 C 0.66057 0.6237 0.72158 0.0
C2702 C 0.64215 0.60533 0.75981 0.0
C2703 C 0.61926 0.59007 0.7457 0.0
N2704 N 0.59425 0.5771 0.70666 0.0
N2705 N 0.68326 0.64152 0.76241 0.0
C2706 C 0.61692 0.59071 0.71946 0.0
C2707 C 0.66238 0.62369 0.74812 0.0
N2708 N 0.6365 0.60597 0.68151 0.0
N2709 N 0.64471 0.6017 0.78431 0.0
H2710 H 0.69963 0.65359 0.75501 0.0
H2711 H 0.68422 0.64492 0.78183 0.0
H2712 H 0.63025 0.58853 0.79362 0.0
H2713 H 0.66152 0.61005 0.79478 0.0
H2714 H 0.62178 0.59166 0.66975 0.0
H2715 H 0.6503 0.61919 0.67167 0.0
H2716 H 0.5906 0.57894 0.68816 0.0
H2717 H 0.57851 0.56493 0.71506 0.0
C2718 C 0.72081 0.73261 0.6458 0.0
C2719 C 0.71645 0.7275 0.67095 0.0
C2720 C 0.70262 0.75755 0.67618 0.0
C2721 C 0.70328 0.75943 0.65004 0.0
N2722 N 0.71206 0.74832 0.60936 0.0
N2723 N 0.70282 0.73423 0.71042 0.0
C2724 C 0.71241 0.74709 0.63469 0.0
C2725 C 0.70763 0.74006 0.68641 0.0
N2726 N 0.73329 0.72383 0.63275 0.0
N2727 N 0.69725 0.77256 0.69111 0.0
H2728 H 0.70693 0.72207 0.71875 0.0
H2729 H 0.69359 0.74031 0.72167 0.0
H2730 H 0.69322 0.78531 0.68401 0.0
H2731 H 0.69871 0.77393 0.71061 0.0
H2732 H 0.73895 0.72861 0.615 0.0
H2733 H 0.74008 0.71364 0.64079 0.0
H2734 H 0.71559 0.73724 0.59678 0.0
H2735 H 0.70674 0.75936 0.60063 0.0
C2736 C 0.29709 0.94049 0.6595 0.0
C2737 C 0.30496 0.96205 0.64622 0.0
C2738 C 0.27365 0.93599 0.6117 0.0
C2739 C 0.26507 0.91478 0.62558 0.0
N2740 N 0.27098 0.89489 0.65974 0.0
N2741 N 0.30449 0.98006 0.60828 0.0
C2742 C 0.2777 0.9164 0.64849 0.0
C2743 C 0.29444 0.95965 0.62175 0.0
N2744 N 0.30736 0.94336 0.6832 0.0
N2745 N 0.26136 0.93353 0.58929 0.0
H2746 H 0.31959 0.99751 0.61549 0.0
H2747 H 0.29916 0.97948 0.5896 0.0
H2748 H 0.24691 0.91612 0.58084 0.0
H2749 H 0.26483 0.94862 0.5793 0.0
H2750 H 0.30052 0.92932 0.6953 0.0
H2751 H 0.32236 0.96041 0.69139 0.0
H2752 H 0.28094 0.89417 0.67502 0.0
H2753 H 0.25622 0.87708 0.65273 0.0
C2754 C 0.01413 0.28742 0.66788 0.0
C2755 C 0.01712 0.28717 0.69417 0.0
C2756 C 0.05429 0.286 0.68931 0.0
C2757 C 0.05296 0.28969 0.66368 0.0
N2758 N 0.03342 0.29718 0.62898 0.0
N2759 N 0.04143 0.28918 0.73061 0.0
C2760 C 0.03331 0.2912 0.65302 0.0
C2761 C 0.03746 0.28701 0.70511 0.0
N2762 N 0.99259 0.28322 0.65702 0.0
N2763 N 0.07141 0.28115 0.69843 0.0
H2764 H 0.02963 0.29012 0.74286 0.0
H2765 H 0.05739 0.29209 0.73975 0.0
H2766 H 0.08411 0.28044 0.68739 0.0
H2767 H 0.0717 0.27569 0.71625 0.0
H2768 H 0.9884 0.2807 0.6377 0.0
H2769 H 0.97785 0.27964 0.66726 0.0
H2770 H 0.02103 0.30137 0.6212 0.0
H2771 H 0.04711 0.30002 0.61738 0.0
C2772 C 0.27618 0.29219 0.64507 0.0
C2773 C 0.27677 0.29674 0.67147 0.0
C2774 C 0.24034 0.2997 0.66634 0.0
C2775 C 0.24159 0.29824 0.63998 0.0
N2776 N 0.26154 0.29519 0.60392 0.0
N2777 N 0.26145 0.30797 0.70743 0.0
C2778 C 0.25973 0.29501 0.62921 0.0
C2779 C 0.25926 0.30111 0.68221 0.0
N2780 N 0.29078 0.28433 0.63528 0.0
N2781 N 0.22089 0.29941 0.67618 0.0
H2782 H 0.27503 0.30926 0.7198 0.0
H2783 H 0.25103 0.31435 0.71591 0.0
H2784 H 0.20692 0.29892 0.66518 0.0
H2785 H 0.2175 0.29756 0.69496 0.0
H2786 H 0.28975 0.27848 0.61635 0.0
H2787 H 0.30243 0.28135 0.64653 0.0
H2788 H 0.27599 0.29574 0.59522 0.0
H2789 H 0.24935 0.29652 0.5917 0.0
C2790 C 0.6925 0.96693 0.64795 0.0
C2791 C 0.68712 0.9836 0.63609 0.0
C2792 C 0.66674 0.95087 0.59974 0.0
C2793 C 0.66903 0.93355 0.61358 0.0
N2794 N 0.67993 0.92348 0.65259 0.0
N2795 N 0.67059 0.99173 0.59906 0.0
C2796 C 0.68036 0.94104 0.6383 0.0
C2797 C 0.67458 0.9756 0.61151 0.0
N2798 N 0.7104 0.97565 0.66722 0.0
N2799 N 0.65767 0.94381 0.57512 0.0
H2800 H 0.67957 0.01116 0.60445 0.0
H2801 H 0.65834 0.98589 0.58323 0.0
H2802 H 0.65044 0.92539 0.5665 0.0
H2803 H 0.65833 0.95632 0.56283 0.0
H2804 H 0.71582 0.96419 0.67484 0.0
H2805 H 0.72296 0.99461 0.67291 0.0
H2806 H 0.68522 0.92738 0.67178 0.0
H2807 H 0.67218 0.9044 0.64601 0.0
C2808 C 0.01957 0.73453 0.68777 0.0
C2809 C 0.00976 0.70827 0.68969 0.0
C2810 C 0.04274 0.71029 0.66656 0.0
C2811 C 0.05346 0.73682 0.66637 0.0
N2812 N 0.0561 0.77511 0.68427 0.0
N2813 N 0.01874 0.67484 0.68981 0.0
C2814 C 0.04323 0.74926 0.67954 0.0
C2815 C 0.02341 0.69723 0.68185 0.0
N2816 N 0.00598 0.74526 0.69202 0.0
N2817 N 0.05 0.69717 0.65138 0.0
H2818 H 0.00648 0.66589 0.70313 0.0
H2819 H 0.0295 0.66716 0.68584 0.0
H2820 H 0.06324 0.70563 0.63882 0.0
H2821 H 0.04095 0.67741 0.64945 0.0
H2822 H 0.01167 0.76374 0.68847 0.0
H2823 H 0.988 0.73489 0.69619 0.0
H2824 H 0.05022 0.78491 0.69567 0.0
H2825 H 0.07382 0.78643 0.6791 0.0
C2826 C 0.94614 0.60624 0.76498 0.0
C2827 C 0.94625 0.60734 0.73871 0.0
C2828 C 0.94898 0.56932 0.73329 0.0
C2829 C 0.95244 0.57055 0.75971 0.0
N2830 N 0.95735 0.59198 0.80095 0.0
N2831 N 0.95005 0.59161 0.69768 0.0
C2832 C 0.95167 0.58939 0.77567 0.0
C2833 C 0.94797 0.58914 0.72271 0.0
N2834 N 0.94024 0.62096 0.77964 0.0
N2835 N 0.94643 0.54907 0.7184 0.0
H2836 H 0.94936 0.60583 0.68919 0.0
H2837 H 0.95422 0.5807 0.68561 0.0
H2838 H 0.94728 0.53436 0.72563 0.0
H2839 H 0.94143 0.54575 0.69919 0.0
H2840 H 0.93754 0.61923 0.79858 0.0
H2841 H 0.93558 0.63315 0.77231 0.0
H2842 H 0.9599 0.60723 0.8131 0.0
H2843 H 0.96152 0.58005 0.80965 0.0
C2844 C 0.36947 0.37405 0.77586 0.0
C2845 C 0.36787 0.36896 0.74938 0.0
C2846 C 0.40505 0.4101 0.74696 0.0
C2847 C 0.4071 0.41496 0.77342 0.0
N2848 N 0.38896 0.40513 0.81261 0.0
N2849 N 0.37871 0.38547 0.70951 0.0
C2850 C 0.38844 0.39807 0.78774 0.0
C2851 C 0.38399 0.38809 0.73486 0.0
N2852 N 0.35371 0.35562 0.78971 0.0
N2853 N 0.42372 0.42583 0.73345 0.0
H2854 H 0.3628 0.37001 0.70019 0.0
H2855 H 0.38857 0.39982 0.69821 0.0
H2856 H 0.43939 0.44245 0.74149 0.0
H2857 H 0.42449 0.42148 0.71452 0.0
H2858 H 0.35568 0.35706 0.80919 0.0
H2859 H 0.33922 0.3381 0.78171 0.0
H2860 H 0.37485 0.39482 0.82374 0.0
H2861 H 0.40278 0.42256 0.82172 0.0
C2862 C 0.65961 0.05762 0.73414 0.0
C2863 C 0.65309 0.04686 0.70875 0.0
C2864 C 0.61091 0.03583 0.71273 0.0
C2865 C 0.61686 0.04387 0.73881 0.0
N2866 N 0.64599 0.0601 0.7752 0.0
N2867 N 0.62261 0.02412 0.67388 0.0
C2868 C 0.64101 0.05423 0.74976 0.0
C2869 C 0.62877 0.03568 0.69796 0.0
N2870 N 0.68369 0.07172 0.74304 0.0
N2871 N 0.58829 0.02868 0.70212 0.0
H2872 H 0.63536 0.02424 0.66233 0.0
H2873 H 0.60471 0.01307 0.66581 0.0
H2874 H 0.57466 0.02817 0.71251 0.0
H2875 H 0.58356 0.02511 0.68286 0.0
H2876 H 0.68989 0.08204 0.7607 0.0
H2877 H 0.69776 0.07503 0.73185 0.0
H2878 H 0.6625 0.06487 0.78462 0.0
H2879 H 0.63298 0.05848 0.78723 0.0
loop_
_geom_bond_atom_site_label_1
_geom_bond_atom_site_label_2
_geom_bond_distance
_geom_bond_site_symmetry_2
_ccdc_geom_bond_type
Co0 O1 2.216 . S
Co0 O2 2.091 . S
Co0 O4 2.004 1_554 S
Co0 O10 2.021 . S
Co0 O12 2.137 1_455 S
Co0 O13 2.244 1_455 S
O1 Co0 2.216 . S
O1 C8 1.247 . S
O2 Co0 2.091 . S
O2 C8 1.261 . S
C3 O12 1.247 . S
C3 O13 1.272 . S
O4 Co0 2.004 1_556 S
O4 C9 1.259 . S
Co5 O6 2.061 1_554 S
Co5 O11 2.052 . S
Co5 O13 2.135 . S
O6 Co5 2.061 1_556 S
O6 C9 1.235 1_655 S
C7 O10 1.238 1_655 S
C7 O11 1.241 . S
C8 O1 1.247 . S
C8 O2 1.261 . S
C9 O4 1.259 . S
C9 O6 1.235 1_455 S
O10 Co0 2.021 . S
O10 C7 1.238 1_455 S
O11 Co5 2.052 . S
O11 C7 1.241 . S
O12 Co0 2.137 1_655 S
O12 C3 1.247 . S
O13 Co0 2.244 1_655 S
O13 C3 1.272 . S
O13 Co5 2.135 . S
Co14 O15 2.216 . S
Co14 O16 2.091 . S
Co14 O18 2.004 . S
Co14 O24 2.021 . S
Co14 O26 2.137 . S
Co14 O27 2.244 . S
O15 Co14 2.216 . S
O15 C22 1.247 . S
O16 Co14 2.091 . S
O16 C22 1.261 . S
C17 O26 1.247 . S
C17 O27 1.272 . S
O18 Co14 2.004 . S
O18 C23 1.259 . S
Co19 O20 2.061 . S
Co19 O25 2.052 . S
Co19 O27 2.135 . S
O20 Co19 2.061 . S
O20 C23 1.235 . S
C21 O24 1.238 . S
C21 O25 1.241 . S
C22 O15 1.247 . S
C22 O16 1.261 . S
C23 O18 1.259 . S
C23 O20 1.235 . S
O24 Co14 2.021 . S
O24 C21 1.238 . S
O25 Co19 2.052 . S
O25 C21 1.241 . S
O26 Co14 2.137 . S
O26 C17 1.247 . S
O27 Co14 2.244 . S
O27 C17 1.272 . S
O27 Co19 2.135 . S
Co28 O29 2.229 . S
Co28 O30 2.091 . S
Co28 O32 2.004 . S
Co28 O38 2.021 . S
Co28 O40 2.137 1_545 S
Co28 O41 2.244 1_545 S
O29 Co28 2.229 . S
O29 C36 1.250 . S
O30 Co28 2.091 . S
O30 C36 1.261 . S
C31 O40 1.247 . S
C31 O41 1.272 . S
O32 Co28 2.004 . S
O32 C37 1.259 . S
Co33 O34 2.061 . S
Co33 O39 2.052 . S
Co33 O41 2.135 . S
O34 Co33 2.061 . S
O34 C37 1.235 1_565 S
C35 O38 1.238 1_566 S
C35 O39 1.241 1_556 S
C36 O29 1.250 . S
C36 O30 1.261 . S
C37 O32 1.259 . S
C37 O34 1.235 1_545 S
O38 Co28 2.021 . S
O38 C35 1.238 1_544 S
O39 Co33 2.052 . S
O39 C35 1.241 1_554 S
O40 Co28 2.137 1_565 S
O40 C31 1.247 . S
O41 Co28 2.244 1_565 S
O41 C31 1.272 . S
O41 Co33 2.135 . S
Co42 O43 2.216 . S
Co42 O44 2.091 . S
Co42 O46 2.004 . S
Co42 O52 2.021 . S
Co42 O54 2.137 1_655 S
Co42 O55 2.244 1_655 S
O43 Co42 2.216 . S
O43 C50 1.247 . S
O44 Co42 2.091 . S
O44 C50 1.261 . S
C45 O54 1.247 . S
C45 O55 1.272 . S
O46 Co42 2.004 . S
O46 C51 1.259 . S
Co47 O48 2.061 . S
Co47 O53 2.052 . S
Co47 O55 2.135 . S
O48 Co47 2.061 . S
O48 C51 1.235 1_455 S
C49 O52 1.238 1_455 S
C49 O53 1.241 . S
C50 O43 1.247 . S
C50 O44 1.261 . S
C51 O46 1.259 . S
C51 O48 1.235 1_655 S
O52 Co42 2.021 . S
O52 C49 1.238 1_655 S
O53 Co47 2.052 . S
O53 C49 1.241 . S
O54 Co42 2.137 1_455 S
O54 C45 1.247 . S
O55 Co42 2.244 1_455 S
O55 C45 1.272 . S
O55 Co47 2.135 . S
Co56 O57 2.216 . S
Co56 O58 2.091 . S
Co56 O60 2.004 1_554 S
Co56 O66 2.021 . S
Co56 O68 2.137 1_554 S
Co56 O69 2.244 1_554 S
O57 Co56 2.216 . S
O57 C64 1.247 . S
O58 Co56 2.091 . S
O58 C64 1.261 . S
C59 O68 1.247 . S
C59 O69 1.272 . S
O60 Co56 2.004 1_556 S
O60 C65 1.259 . S
Co61 O62 2.061 . S
Co61 O67 2.052 1_556 S
Co61 O69 2.135 . S
O62 Co61 2.061 . S
O62 C65 1.235 . S
C63 O66 1.238 . S
C63 O67 1.241 . S
C64 O57 1.247 . S
C64 O58 1.261 . S
C65 O60 1.259 . S
C65 O62 1.235 . S
O66 Co56 2.021 . S
O66 C63 1.238 . S
O67 Co61 2.052 1_554 S
O67 C63 1.241 . S
O68 Co56 2.137 1_556 S
O68 C59 1.247 . S
O69 Co56 2.244 1_556 S
O69 C59 1.272 . S
O69 Co61 2.135 . S
Co70 O71 2.216 . S
Co70 O72 2.091 . S
Co70 O74 2.004 . S
Co70 O80 2.021 . S
Co70 O82 2.137 1_565 S
Co70 O83 2.244 1_565 S
O71 Co70 2.216 . S
O71 C78 1.247 . S
O72 Co70 2.091 . S
O72 C78 1.261 . S
C73 O82 1.247 . S
C73 O83 1.272 . S
O74 Co70 2.004 . S
O74 C79 1.259 . S
Co75 O76 2.061 . S
Co75 O81 2.052 . S
Co75 O83 2.135 . S
O76 Co75 2.061 . S
O76 C79 1.235 1_545 S
C77 O80 1.238 1_545 S
C77 O81 1.241 . S
C78 O71 1.247 . S
C78 O72 1.261 . S
C79 O74 1.259 . S
C79 O76 1.235 1_565 S
O80 Co70 2.021 . S
O80 C77 1.238 1_565 S
O81 Co75 2.052 . S
O81 C77 1.241 . S
O82 Co70 2.137 1_545 S
O82 C73 1.247 . S
O83 Co70 2.244 1_545 S
O83 C73 1.272 . S
O83 Co75 2.135 . S
Co84 O85 2.216 . S
Co84 O86 2.091 . S
Co84 O88 2.004 . S
Co84 O94 2.021 . S
Co84 O96 2.137 . S
Co84 O97 2.244 . S
O85 Co84 2.216 . S
O85 C92 1.247 . S
O86 Co84 2.091 . S
O86 C92 1.261 . S
C87 O96 1.247 . S
C87 O97 1.272 . S
O88 Co84 2.004 . S
O88 C93 1.259 . S
Co89 O90 2.061 . S
Co89 O95 2.052 . S
Co89 O97 2.135 . S
O90 Co89 2.061 . S
O90 C93 1.235 . S
C91 O94 1.238 . S
C91 O95 1.241 . S
C92 O85 1.247 . S
C92 O86 1.261 . S
C93 O88 1.259 . S
C93 O90 1.235 . S
O94 Co84 2.021 . S
O94 C91 1.238 . S
O95 Co89 2.052 . S
O95 C91 1.241 . S
O96 Co84 2.137 . S
O96 C87 1.247 . S
O97 Co84 2.244 . S
O97 C87 1.272 . S
O97 Co89 2.135 . S
Co98 O99 2.216 . S
Co98 O100 2.091 . S
Co98 O102 2.004 . S
Co98 O108 2.021 . S
Co98 O110 2.137 . S
Co98 O111 2.244 . S
O99 Co98 2.216 . S
O99 C106 1.247 . S
O100 Co98 2.091 . S
O100 C106 1.261 . S
C101 O110 1.247 . S
C101 O111 1.272 . S
O102 Co98 2.004 . S
O102 C107 1.259 . S
Co103 O104 2.061 . S
Co103 O109 2.052 . S
Co103 O111 2.135 . S
O104 Co103 2.061 . S
O104 C107 1.235 . S
C105 O108 1.238 . S
C105 O109 1.241 . S
C106 O99 1.247 . S
C106 O100 1.261 . S
C107 O102 1.259 . S
C107 O104 1.235 . S
O108 Co98 2.021 . S
O108 C105 1.238 . S
O109 Co103 2.052 . S
O109 C105 1.241 . S
O110 Co98 2.137 . S
O110 C101 1.247 . S
O111 Co98 2.244 . S
O111 C101 1.272 . S
O111 Co103 2.135 . S
Co112 O113 2.216 . S
Co112 O114 2.091 . S
Co112 O116 2.004 . S
Co112 O122 2.021 . S
Co112 O124 2.137 . S
Co112 O125 2.244 . S
O113 Co112 2.216 . S
O113 C120 1.247 . S
O114 Co112 2.091 . S
O114 C120 1.261 . S
C115 O124 1.247 . S
C115 O125 1.272 . S
O116 Co112 2.004 . S
O116 C121 1.259 . S
Co117 O118 2.061 . S
Co117 O123 2.052 . S
Co117 O125 2.135 . S
O118 Co117 2.061 . S
O118 C121 1.235 . S
C119 O122 1.238 . S
C119 O123 1.241 . S
C120 O113 1.247 . S
C120 O114 1.261 . S
C121 O116 1.259 . S
C121 O118 1.235 . S
O122 Co112 2.021 . S
O122 C119 1.238 . S
O123 Co117 2.052 . S
O123 C119 1.241 . S
O124 Co112 2.137 . S
O124 C115 1.247 . S
O125 Co112 2.244 . S
O125 C115 1.272 . S
O125 Co117 2.135 . S
Co126 O127 2.216 . S
Co126 O128 2.091 . S
Co126 O130 2.004 . S
Co126 O136 2.021 . S
Co126 O138 2.137 . S
Co126 O139 2.244 . S
O127 Co126 2.216 . S
O127 C134 1.247 . S
O128 Co126 2.091 . S
O128 C134 1.261 . S
C129 O138 1.247 1_545 S
C129 O139 1.272 1_545 S
O130 Co126 2.004 . S
O130 C135 1.259 . S
Co131 O132 2.061 . S
Co131 O137 2.052 . S
Co131 O139 2.135 . S
O132 Co131 2.061 . S
O132 C135 1.235 . S
C133 O136 1.238 . S
C133 O137 1.241 . S
C134 O127 1.247 . S
C134 O128 1.261 . S
C135 O130 1.259 . S
C135 O132 1.235 . S
O136 Co126 2.021 . S
O136 C133 1.238 . S
O137 Co131 2.052 . S
O137 C133 1.241 . S
O138 Co126 2.137 . S
O138 C129 1.247 1_565 S
O139 Co126 2.244 . S
O139 C129 1.272 1_565 S
O139 Co131 2.135 . S
Co140 O141 2.216 . S
Co140 O142 2.096 . S
Co140 O144 2.004 . S
Co140 O150 2.021 . S
Co140 O152 2.137 . S
Co140 O153 2.244 . S
O141 Co140 2.216 . S
O141 C148 1.247 1_455 S
O142 Co140 2.096 . S
O142 C148 1.262 1_455 S
C143 O152 1.247 . S
C143 O153 1.272 . S
O144 Co140 2.004 . S
O144 C149 1.259 . S
Co145 O146 2.061 . S
Co145 O151 2.052 . S
Co145 O153 2.135 . S
O146 Co145 2.061 . S
O146 C149 1.235 . S
C147 O150 1.238 . S
C147 O151 1.241 . S
C148 O141 1.247 1_655 S
C148 O142 1.262 1_655 S
C149 O144 1.259 . S
C149 O146 1.235 . S
O150 Co140 2.021 . S
O150 C147 1.238 . S
O151 Co145 2.052 . S
O151 C147 1.241 . S
O152 Co140 2.137 . S
O152 C143 1.247 . S
O153 Co140 2.244 . S
O153 C143 1.272 . S
O153 Co145 2.135 . S
Co154 O155 2.216 . S
Co154 O156 2.091 . S
Co154 O158 2.004 . S
Co154 O164 2.021 . S
Co154 O166 2.137 . S
Co154 O167 2.244 . S
O155 Co154 2.216 . S
O155 C162 1.247 . S
O156 Co154 2.091 . S
O156 C162 1.261 . S
C157 O166 1.247 . S
C157 O167 1.272 . S
O158 Co154 2.004 . S
O158 C163 1.259 . S
Co159 O160 2.061 . S
Co159 O165 2.052 . S
Co159 O167 2.135 . S
O160 Co159 2.061 . S
O160 C163 1.235 . S
C161 O164 1.238 . S
C161 O165 1.241 . S
C162 O155 1.247 . S
C162 O156 1.261 . S
C163 O158 1.259 . S
C163 O160 1.235 . S
O164 Co154 2.021 . S
O164 C161 1.238 . S
O165 Co159 2.052 . S
O165 C161 1.241 . S
O166 Co154 2.137 . S
O166 C157 1.247 . S
O167 Co154 2.244 . S
O167 C157 1.272 . S
O167 Co159 2.135 . S
Co168 O169 2.216 . S
Co168 O170 2.091 . S
Co168 O172 2.004 . S
Co168 O178 2.021 . S
Co168 O180 2.137 . S
Co168 O181 2.244 . S
O169 Co168 2.216 . S
O169 C176 1.247 . S
O170 Co168 2.091 . S
O170 C176 1.261 . S
C171 O180 1.247 1_565 S
C171 O181 1.272 1_565 S
O172 Co168 2.004 . S
O172 C177 1.259 . S
Co173 O174 2.061 . S
Co173 O179 2.052 . S
Co173 O181 2.135 . S
O174 Co173 2.061 . S
O174 C177 1.235 . S
C175 O178 1.238 . S
C175 O179 1.241 . S
C176 O169 1.247 . S
C176 O170 1.261 . S
C177 O172 1.259 . S
C177 O174 1.235 . S
O178 Co168 2.021 . S
O178 C175 1.238 . S
O179 Co173 2.052 . S
O179 C175 1.241 . S
O180 Co168 2.137 . S
O180 C171 1.247 1_545 S
O181 Co168 2.244 . S
O181 C171 1.272 1_545 S
O181 Co173 2.135 . S
Co182 O183 2.216 . S
Co182 O184 2.091 1_655 S
Co182 O186 2.004 . S
Co182 O192 2.021 . S
Co182 O194 2.137 . S
Co182 O195 2.244 . S
O183 Co182 2.216 . S
O183 C190 1.247 1_655 S
O184 Co182 2.091 1_455 S
O184 C190 1.261 . S
C185 O194 1.247 . S
C185 O195 1.272 . S
O186 Co182 2.004 . S
O186 C191 1.259 . S
Co187 O188 2.061 . S
Co187 O193 2.052 . S
Co187 O195 2.135 . S
O188 Co187 2.061 . S
O188 C191 1.235 . S
C189 O192 1.238 . S
C189 O193 1.241 . S
C190 O183 1.247 1_455 S
C190 O184 1.261 . S
C191 O186 1.259 . S
C191 O188 1.235 . S
O192 Co182 2.021 . S
O192 C189 1.238 . S
O193 Co187 2.052 . S
O193 C189 1.241 . S
O194 Co182 2.137 . S
O194 C185 1.247 . S
O195 Co182 2.244 . S
O195 C185 1.272 . S
O195 Co187 2.135 . S
Co196 O197 2.216 . S
Co196 O198 2.091 . S
Co196 O200 2.004 . S
Co196 O206 2.021 . S
Co196 O208 2.137 . S
Co196 O209 2.244 . S
O197 Co196 2.216 . S
O197 C204 1.247 . S
O198 Co196 2.091 . S
O198 C204 1.261 . S
C199 O208 1.247 . S
C199 O209 1.272 . S
O200 Co196 2.004 . S
O200 C205 1.259 . S
Co201 O202 2.061 . S
Co201 O207 2.052 . S
Co201 O209 2.135 . S
O202 Co201 2.061 . S
O202 C205 1.235 . S
C203 O206 1.238 . S
C203 O207 1.241 . S
C204 O197 1.247 . S
C204 O198 1.261 . S
C205 O200 1.259 . S
C205 O202 1.235 . S
O206 Co196 2.021 . S
O206 C203 1.238 . S
O207 Co201 2.052 . S
O207 C203 1.241 . S
O208 Co196 2.137 . S
O208 C199 1.247 . S
O209 Co196 2.244 . S
O209 C199 1.272 . S
O209 Co201 2.135 . S
Co210 O211 2.216 . S
Co210 O212 2.091 . S
Co210 O214 2.004 . S
Co210 O220 2.021 . S
Co210 O222 2.137 . S
Co210 O223 2.244 . S
O211 Co210 2.216 . S
O211 C218 1.247 . S
O212 Co210 2.091 . S
O212 C218 1.261 . S
C213 O222 1.247 . S
C213 O223 1.272 . S
O214 Co210 2.004 . S
O214 C219 1.259 . S
Co215 O216 2.061 . S
Co215 O221 2.052 . S
Co215 O223 2.135 . S
O216 Co215 2.061 . S
O216 C219 1.235 . S
C217 O220 1.238 . S
C217 O221 1.241 . S
C218 O211 1.247 . S
C218 O212 1.261 . S
C219 O214 1.259 . S
C219 O216 1.235 . S
O220 Co210 2.021 . S
O220 C217 1.238 . S
O221 Co215 2.052 . S
O221 C217 1.241 . S
O222 Co210 2.137 . S
O222 C213 1.247 . S
O223 Co210 2.244 . S
O223 C213 1.272 . S
O223 Co215 2.135 . S
Co224 O225 2.216 . S
Co224 O226 2.091 . S
Co224 O228 2.004 . S
Co224 O234 2.021 . S
Co224 O236 2.137 . S
Co224 O237 2.244 . S
O225 Co224 2.216 . S
O225 C232 1.247 . S
O226 Co224 2.091 . S
O226 C232 1.261 . S
C227 O236 1.247 . S
C227 O237 1.272 . S
O228 Co224 2.004 . S
O228 C233 1.259 . S
Co229 O230 2.061 . S
Co229 O235 2.052 . S
Co229 O237 2.135 . S
O230 Co229 2.061 . S
O230 C233 1.235 . S
C231 O234 1.238 . S
C231 O235 1.241 . S
C232 O225 1.247 . S
C232 O226 1.261 . S
C233 O228 1.259 . S
C233 O230 1.235 . S
O234 Co224 2.021 . S
O234 C231 1.238 . S
O235 Co229 2.052 . S
O235 C231 1.241 . S
O236 Co224 2.137 . S
O236 C227 1.247 . S
O237 Co224 2.244 . S
O237 C227 1.272 . S
O237 Co229 2.135 . S
Co238 O239 2.216 . S
Co238 O240 2.091 . S
Co238 O242 2.004 . S
Co238 O248 2.021 . S
Co238 O250 2.137 . S
Co238 O251 2.244 . S
O239 Co238 2.216 . S
O239 C246 1.247 . S
O240 Co238 2.091 . S
O240 C246 1.261 . S
C241 O250 1.247 . S
C241 O251 1.272 . S
O242 Co238 2.004 . S
O242 C247 1.259 . S
Co243 O244 2.061 . S
Co243 O249 2.052 . S
Co243 O251 2.135 . S
O244 Co243 2.061 . S
O244 C247 1.235 . S
C245 O248 1.238 . S
C245 O249 1.241 . S
C246 O239 1.247 . S
C246 O240 1.261 . S
C247 O242 1.259 . S
C247 O244 1.235 . S
O248 Co238 2.021 . S
O248 C245 1.238 . S
O249 Co243 2.052 . S
O249 C245 1.241 . S
O250 Co238 2.137 . S
O250 C241 1.247 . S
O251 Co238 2.244 . S
O251 C241 1.272 . S
O251 Co243 2.135 . S
H252 O278 0.856 1_556 S
H253 O281 0.854 . S
H254 C289 0.930 . S
H255 C290 0.930 . S
H256 C292 0.930 . S
H257 C293 0.930 . S
H258 C295 0.931 . S
H259 C296 0.930 . S
H260 C298 0.930 . S
H261 C299 0.929 . S
H262 C301 0.930 . S
H263 C302 0.931 . S
H264 C304 0.930 . S
H265 C305 0.929 . S
H266 C307 0.931 . S
H267 C308 0.930 . S
H268 C310 0.930 . S
H269 C311 0.932 . S
H270 C313 0.930 . S
H271 C314 0.929 . S
H272 C316 0.931 . S
H273 C317 0.930 . S
H274 C319 0.929 . S
H275 C320 0.931 . S
H276 C322 0.930 . S
H277 C323 0.929 . S
O278 H252 0.856 1_554 S
O278 C324 1.300 . S
O279 C324 1.209 . S
O280 C325 1.199 . S
O281 H253 0.854 . S
O281 C325 1.297 . S
C282 C283 1.404 . S
C282 C287 1.397 . S
C282 C288 1.492 . S
C283 C282 1.404 . S
C283 C284 1.396 . S
C283 C294 1.492 . S
C284 C283 1.396 . S
C284 C285 1.397 . S
C284 C300 1.509 . S
C285 C284 1.397 . S
C285 C286 1.412 . S
C285 C306 1.485 . S
C286 C285 1.412 . S
C286 C287 1.388 . S
C286 C312 1.490 . S
C287 C282 1.397 . S
C287 C286 1.388 . S
C287 C318 1.519 . S
C288 C282 1.492 . S
C288 C289 1.363 . S
C288 C293 1.390 . S
C289 H254 0.930 . S
C289 C288 1.363 . S
C289 C290 1.372 . S
C290 H255 0.930 . S
C290 C289 1.372 . S
C290 C291 1.383 . S
C291 C290 1.383 . S
C291 C292 1.395 . S
C292 H256 0.930 . S
C292 C291 1.395 . S
C292 C293 1.362 . S
C293 H257 0.930 . S
C293 C288 1.390 . S
C293 C292 1.362 . S
C294 C283 1.492 . S
C294 C295 1.377 . S
C294 C299 1.397 . S
C295 H258 0.931 . S
C295 C294 1.377 . S
C295 C296 1.376 . S
C296 H259 0.930 . S
C296 C295 1.376 . S
C296 C297 1.376 . S
C297 C296 1.376 . S
C297 C298 1.378 . S
C297 C324 1.486 . S
C298 H260 0.930 . S
C298 C297 1.378 . S
C298 C299 1.376 . S
C299 H261 0.929 . S
C299 C294 1.397 . S
C299 C298 1.376 . S
C300 C284 1.509 . S
C300 C301 1.391 . S
C300 C305 1.386 . S
C301 H262 0.930 . S
C301 C300 1.391 . S
C301 C302 1.375 . S
C302 H263 0.931 . S
C302 C301 1.375 . S
C302 C303 1.375 . S
C303 C302 1.375 . S
C303 C304 1.361 . S
C304 H264 0.930 . S
C304 C303 1.361 . S
C304 C305 1.399 . S
C305 H265 0.929 . S
C305 C300 1.386 . S
C305 C304 1.399 . S
C306 C285 1.485 . S
C306 C307 1.394 . S
C306 C311 1.360 . S
C307 H266 0.931 . S
C307 C306 1.394 . S
C307 C308 1.372 . S
C308 H267 0.930 . S
C308 C307 1.372 . S
C308 C309 1.397 . S
C309 C308 1.397 . S
C309 C310 1.390 . S
C309 C325 1.476 . S
C310 H268 0.930 . S
C310 C309 1.390 . S
C310 C311 1.366 . S
C311 H269 0.932 . S
C311 C306 1.360 . S
C311 C310 1.366 . S
C312 C286 1.490 . S
C312 C313 1.380 . S
C312 C317 1.386 . S
C313 H270 0.930 . S
C313 C312 1.380 . S
C313 C314 1.381 . S
C314 H271 0.929 . S
C314 C313 1.381 . S
C314 C315 1.371 . S
C315 C314 1.371 . S
C315 C316 1.380 . S
C316 H272 0.931 . S
C316 C315 1.380 . S
C316 C317 1.387 . S
C317 H273 0.930 . S
C317 C312 1.386 . S
C317 C316 1.387 . S
C318 C287 1.519 . S
C318 C319 1.377 . S
C318 C323 1.361 . S
C319 H274 0.929 . S
C319 C318 1.377 . S
C319 C320 1.386 . S
C320 H275 0.931 . S
C320 C319 1.386 . S
C320 C321 1.363 . S
C321 C320 1.363 . S
C321 C322 1.385 . S
C322 H276 0.930 . S
C322 C321 1.385 . S
C322 C323 1.396 . S
C323 H277 0.929 . S
C323 C318 1.361 . S
C323 C322 1.396 . S
C324 O278 1.300 . S
C324 O279 1.209 . S
C324 C297 1.486 . S
C325 O280 1.199 . S
C325 O281 1.297 . S
C325 C309 1.476 . S
H326 O352 0.856 . S
H327 O355 0.854 . S
H328 C363 0.930 . S
H329 C364 0.930 . S
H330 C366 0.930 . S
H331 C367 0.930 . S
H332 C369 0.931 . S
H333 C370 0.930 . S
H334 C372 0.930 . S
H335 C373 0.929 . S
H336 C375 0.930 . S
H337 C376 0.931 . S
H338 C378 0.930 . S
H339 C379 0.929 . S
H340 C381 0.931 . S
H341 C382 0.930 . S
H342 C384 0.930 . S
H343 C385 0.932 . S
H344 C387 0.930 . S
H345 C388 0.929 . S
H346 C390 0.931 . S
H347 C391 0.930 . S
H348 C393 0.929 . S
H349 C394 0.931 . S
H350 C396 0.930 . S
H351 C397 0.929 . S
O352 H326 0.856 . S
O352 C398 1.300 . S
O353 C398 1.209 . S
O354 C399 1.199 . S
O355 H327 0.854 . S
O355 C399 1.297 1_545 S
C356 C357 1.404 . S
C356 C361 1.397 . S
C356 C362 1.492 . S
C357 C356 1.404 . S
C357 C358 1.396 . S
C357 C368 1.492 . S
C358 C357 1.396 . S
C358 C359 1.397 . S
C358 C374 1.509 . S
C359 C358 1.397 . S
C359 C360 1.412 . S
C359 C380 1.485 . S
C360 C359 1.412 . S
C360 C361 1.388 . S
C360 C386 1.490 . S
C361 C356 1.397 . S
C361 C360 1.388 . S
C361 C392 1.519 . S
C362 C356 1.492 . S
C362 C363 1.363 . S
C362 C367 1.390 . S
C363 H328 0.930 . S
C363 C362 1.363 . S
C363 C364 1.372 . S
C364 H329 0.930 . S
C364 C363 1.372 . S
C364 C365 1.383 . S
C365 C364 1.383 . S
C365 C366 1.395 . S
C366 H330 0.930 . S
C366 C365 1.395 . S
C366 C367 1.362 . S
C367 H331 0.930 . S
C367 C362 1.390 . S
C367 C366 1.362 . S
C368 C357 1.492 . S
C368 C369 1.377 . S
C368 C373 1.397 . S
C369 H332 0.931 . S
C369 C368 1.377 . S
C369 C370 1.376 . S
C370 H333 0.930 . S
C370 C369 1.376 . S
C370 C371 1.376 . S
C371 C370 1.376 . S
C371 C372 1.378 . S
C371 C398 1.486 . S
C372 H334 0.930 . S
C372 C371 1.378 . S
C372 C373 1.376 . S
C373 H335 0.929 . S
C373 C368 1.397 . S
C373 C372 1.376 . S
C374 C358 1.509 . S
C374 C375 1.391 . S
C374 C379 1.386 . S
C375 H336 0.930 . S
C375 C374 1.391 . S
C375 C376 1.375 . S
C376 H337 0.931 . S
C376 C375 1.375 . S
C376 C377 1.375 . S
C377 C376 1.375 . S
C377 C378 1.361 . S
C378 H338 0.930 . S
C378 C377 1.361 . S
C378 C379 1.399 . S
C379 H339 0.929 . S
C379 C374 1.386 . S
C379 C378 1.399 . S
C380 C359 1.485 . S
C380 C381 1.394 . S
C380 C385 1.360 . S
C381 H340 0.931 . S
C381 C380 1.394 . S
C381 C382 1.372 . S
C382 H341 0.930 . S
C382 C381 1.372 . S
C382 C383 1.397 . S
C383 C382 1.397 . S
C383 C384 1.390 . S
C383 C399 1.476 . S
C384 H342 0.930 . S
C384 C383 1.390 . S
C384 C385 1.366 . S
C385 H343 0.932 . S
C385 C380 1.360 . S
C385 C384 1.366 . S
C386 C360 1.490 . S
C386 C387 1.380 . S
C386 C391 1.386 . S
C387 H344 0.930 . S
C387 C386 1.380 . S
C387 C388 1.381 . S
C388 H345 0.929 . S
C388 C387 1.381 . S
C388 C389 1.371 . S
C389 C388 1.371 . S
C389 C390 1.380 . S
C390 H346 0.931 . S
C390 C389 1.380 . S
C390 C391 1.387 . S
C391 H347 0.930 . S
C391 C386 1.386 . S
C391 C390 1.387 . S
C392 C361 1.519 . S
C392 C393 1.377 . S
C392 C397 1.361 . S
C393 H348 0.929 . S
C393 C392 1.377 . S
C393 C394 1.386 . S
C394 H349 0.931 . S
C394 C393 1.386 . S
C394 C395 1.363 . S
C395 C394 1.363 . S
C395 C396 1.385 . S
C396 H350 0.930 . S
C396 C395 1.385 . S
C396 C397 1.396 . S
C397 H351 0.929 . S
C397 C392 1.361 . S
C397 C396 1.396 . S
C398 O352 1.300 . S
C398 O353 1.209 . S
C398 C371 1.486 . S
C399 O354 1.199 . S
C399 O355 1.297 1_565 S
C399 C383 1.476 . S
H400 O426 0.856 . S
H401 O429 0.854 1_545 S
H402 C437 0.930 . S
H403 C438 0.930 . S
H404 C440 0.930 . S
H405 C441 0.930 . S
H406 C443 0.931 . S
H407 C444 0.930 . S
H408 C446 0.930 . S
H409 C447 0.929 . S
H410 C449 0.930 . S
H411 C450 0.931 . S
H412 C452 0.930 . S
H413 C453 0.929 . S
H414 C455 0.931 . S
H415 C456 0.930 . S
H416 C458 0.930 . S
H417 C459 0.932 . S
H418 C461 0.930 . S
H419 C462 0.929 . S
H420 C464 0.931 . S
H421 C465 0.930 . S
H422 C467 0.929 . S
H423 C468 0.931 . S
H424 C470 0.930 . S
H425 C471 0.929 . S
O426 H400 0.856 . S
O426 C472 1.300 . S
O427 C472 1.209 . S
O428 C473 1.199 1_545 S
O429 H401 0.854 1_565 S
O429 C473 1.297 . S
C430 C431 1.404 . S
C430 C435 1.397 . S
C430 C436 1.492 . S
C431 C430 1.404 . S
C431 C432 1.396 . S
C431 C442 1.492 . S
C432 C431 1.396 . S
C432 C433 1.397 . S
C432 C448 1.509 . S
C433 C432 1.397 . S
C433 C434 1.412 . S
C433 C454 1.485 . S
C434 C433 1.412 . S
C434 C435 1.388 . S
C434 C460 1.490 . S
C435 C430 1.397 . S
C435 C434 1.388 . S
C435 C466 1.519 . S
C436 C430 1.492 . S
C436 C437 1.363 . S
C436 C441 1.390 . S
C437 H402 0.930 . S
C437 C436 1.363 . S
C437 C438 1.372 . S
C438 H403 0.930 . S
C438 C437 1.372 . S
C438 C439 1.383 . S
C439 C438 1.383 . S
C439 C440 1.395 . S
C440 H404 0.930 . S
C440 C439 1.395 . S
C440 C441 1.362 . S
C441 H405 0.930 . S
C441 C436 1.390 . S
C441 C440 1.362 . S
C442 C431 1.492 . S
C442 C443 1.377 . S
C442 C447 1.397 . S
C443 H406 0.931 . S
C443 C442 1.377 . S
C443 C444 1.376 . S
C444 H407 0.930 . S
C444 C443 1.376 . S
C444 C445 1.376 . S
C445 C444 1.376 . S
C445 C446 1.378 . S
C445 C472 1.486 . S
C446 H408 0.930 . S
C446 C445 1.378 . S
C446 C447 1.376 . S
C447 H409 0.929 . S
C447 C442 1.397 . S
C447 C446 1.376 . S
C448 C432 1.509 . S
C448 C449 1.391 . S
C448 C453 1.386 . S
C449 H410 0.930 . S
C449 C448 1.391 . S
C449 C450 1.375 . S
C450 H411 0.931 . S
C450 C449 1.375 . S
C450 C451 1.375 . S
C451 C450 1.375 . S
C451 C452 1.361 . S
C452 H412 0.930 . S
C452 C451 1.361 . S
C452 C453 1.399 . S
C453 H413 0.929 . S
C453 C448 1.386 . S
C453 C452 1.399 . S
C454 C433 1.485 . S
C454 C455 1.394 . S
C454 C459 1.360 . S
C455 H414 0.931 . S
C455 C454 1.394 . S
C455 C456 1.372 . S
C456 H415 0.930 . S
C456 C455 1.372 . S
C456 C457 1.397 . S
C457 C456 1.397 . S
C457 C458 1.390 . S
C457 C473 1.476 . S
C458 H416 0.930 . S
C458 C457 1.390 . S
C458 C459 1.366 . S
C459 H417 0.932 . S
C459 C454 1.360 . S
C459 C458 1.366 . S
C460 C434 1.490 . S
C460 C461 1.380 . S
C460 C465 1.386 . S
C461 H418 0.930 . S
C461 C460 1.380 . S
C461 C462 1.381 . S
C462 H419 0.929 . S
C462 C461 1.381 . S
C462 C463 1.371 . S
C463 C462 1.371 . S
C463 C464 1.380 . S
C464 H420 0.931 . S
C464 C463 1.380 . S
C464 C465 1.387 . S
C465 H421 0.930 . S
C465 C460 1.386 . S
C465 C464 1.387 . S
C466 C435 1.519 . S
C466 C467 1.377 . S
C466 C471 1.361 . S
C467 H422 0.929 . S
C467 C466 1.377 . S
C467 C468 1.386 . S
C468 H423 0.931 . S
C468 C467 1.386 . S
C468 C469 1.363 . S
C469 C468 1.363 . S
C469 C470 1.385 . S
C470 H424 0.930 . S
C470 C469 1.385 . S
C470 C471 1.396 . S
C471 H425 0.929 . S
C471 C466 1.361 . S
C471 C470 1.396 . S
C472 O426 1.300 . S
C472 O427 1.209 . S
C472 C445 1.486 . S
C473 O428 1.199 1_565 S
C473 O429 1.297 . S
C473 C457 1.476 . S
H474 O500 0.856 . S
H475 O503 0.854 . S
H476 C511 0.930 . S
H477 C512 0.930 . S
H478 C514 0.930 . S
H479 C515 0.930 . S
H480 C517 0.931 . S
H481 C518 0.930 1_554 S
H482 C520 0.930 . S
H483 C521 0.929 . S
H484 C523 0.930 . S
H485 C524 0.931 . S
H486 C526 0.930 . S
H487 C527 0.929 . S
H488 C529 0.931 . S
H489 C530 0.930 . S
H490 C532 0.930 . S
H491 C533 0.932 . S
H492 C535 0.930 . S
H493 C536 0.929 . S
H494 C538 0.931 . S
H495 C539 0.930 . S
H496 C541 0.929 . S
H497 C542 0.931 . S
H498 C544 0.930 . S
H499 C545 0.929 . S
O500 H474 0.856 . S
O500 C546 1.300 . S
O501 C546 1.209 . S
O502 C547 1.199 . S
O503 H475 0.854 . S
O503 C547 1.297 . S
C504 C505 1.404 . S
C504 C509 1.397 . S
C504 C510 1.492 . S
C505 C504 1.404 . S
C505 C506 1.396 . S
C505 C516 1.492 . S
C506 C505 1.396 . S
C506 C507 1.397 . S
C506 C522 1.509 . S
C507 C506 1.397 . S
C507 C508 1.412 . S
C507 C528 1.485 . S
C508 C507 1.412 . S
C508 C509 1.388 . S
C508 C534 1.490 . S
C509 C504 1.397 . S
C509 C508 1.388 . S
C509 C540 1.519 . S
C510 C504 1.492 . S
C510 C511 1.363 . S
C510 C515 1.390 . S
C511 H476 0.930 . S
C511 C510 1.363 . S
C511 C512 1.372 . S
C512 H477 0.930 . S
C512 C511 1.372 . S
C512 C513 1.383 . S
C513 C512 1.383 . S
C513 C514 1.395 . S
C514 H478 0.930 . S
C514 C513 1.395 . S
C514 C515 1.362 . S
C515 H479 0.930 . S
C515 C510 1.390 . S
C515 C514 1.362 . S
C516 C505 1.492 . S
C516 C517 1.377 . S
C516 C521 1.397 . S
C517 H480 0.931 . S
C517 C516 1.377 . S
C517 C518 1.376 . S
C518 H481 0.930 1_556 S
C518 C517 1.376 . S
C518 C519 1.376 1_556 S
C519 C518 1.376 1_554 S
C519 C520 1.378 1_554 S
C519 C546 1.486 . S
C520 H482 0.930 . S
C520 C519 1.378 1_556 S
C520 C521 1.376 . S
C521 H483 0.929 . S
C521 C516 1.397 . S
C521 C520 1.376 . S
C522 C506 1.509 . S
C522 C523 1.391 . S
C522 C527 1.386 . S
C523 H484 0.930 . S
C523 C522 1.391 . S
C523 C524 1.375 . S
C524 H485 0.931 . S
C524 C523 1.375 . S
C524 C525 1.375 . S
C525 C524 1.375 . S
C525 C526 1.361 . S
C526 H486 0.930 . S
C526 C525 1.361 . S
C526 C527 1.399 . S
C527 H487 0.929 . S
C527 C522 1.386 . S
C527 C526 1.399 . S
C528 C507 1.485 . S
C528 C529 1.394 . S
C528 C533 1.360 . S
C529 H488 0.931 . S
C529 C528 1.394 . S
C529 C530 1.372 . S
C530 H489 0.930 . S
C530 C529 1.372 . S
C530 C531 1.397 . S
C531 C530 1.397 . S
C531 C532 1.390 . S
C531 C547 1.476 . S
C532 H490 0.930 . S
C532 C531 1.390 . S
C532 C533 1.366 . S
C533 H491 0.932 . S
C533 C528 1.360 . S
C533 C532 1.366 . S
C534 C508 1.490 . S
C534 C535 1.380 . S
C534 C539 1.386 . S
C535 H492 0.930 . S
C535 C534 1.380 . S
C535 C536 1.381 . S
C536 H493 0.929 . S
C536 C535 1.381 . S
C536 C537 1.371 . S
C537 C536 1.371 . S
C537 C538 1.380 . S
C538 H494 0.931 . S
C538 C537 1.380 . S
C538 C539 1.387 . S
C539 H495 0.930 . S
C539 C534 1.386 . S
C539 C538 1.387 . S
C540 C509 1.519 . S
C540 C541 1.377 . S
C540 C545 1.361 . S
C541 H496 0.929 . S
C541 C540 1.377 . S
C541 C542 1.386 . S
C542 H497 0.931 . S
C542 C541 1.386 . S
C542 C543 1.363 . S
C543 C542 1.363 . S
C543 C544 1.385 . S
C544 H498 0.930 . S
C544 C543 1.385 . S
C544 C545 1.396 . S
C545 H499 0.929 . S
C545 C540 1.361 . S
C545 C544 1.396 . S
C546 O500 1.300 . S
C546 O501 1.209 . S
C546 C519 1.486 . S
C547 O502 1.199 . S
C547 O503 1.297 . S
C547 C531 1.476 . S
H548 O574 0.856 . S
H549 O577 0.854 . S
H550 C585 0.930 . S
H551 C586 0.930 . S
H552 C588 0.930 . S
H553 C589 0.930 . S
H554 C591 0.931 . S
H555 C592 0.930 . S
H556 C594 0.920 1_554 S
H557 C595 0.929 . S
H558 C597 0.930 . S
H559 C598 0.931 . S
H560 C600 0.930 . S
H561 C601 0.929 . S
H562 C603 0.931 . S
H563 C604 0.930 . S
H564 C606 0.930 . S
H565 C607 0.932 . S
H566 C609 0.930 . S
H567 C610 0.929 . S
H568 C612 0.931 . S
H569 C613 0.930 . S
H570 C615 0.929 . S
H571 C616 0.931 . S
H572 C618 0.930 . S
H573 C619 0.929 . S
O574 H548 0.856 . S
O574 C620 1.300 . S
O575 C620 1.209 . S
O576 C621 1.199 . S
O577 H549 0.854 . S
O577 C621 1.297 1_565 S
C578 C579 1.404 . S
C578 C583 1.397 . S
C578 C584 1.492 . S
C579 C578 1.404 . S
C579 C580 1.396 . S
C579 C590 1.492 . S
C580 C579 1.396 . S
C580 C581 1.397 . S
C580 C596 1.509 . S
C581 C580 1.397 . S
C581 C582 1.412 . S
C581 C602 1.485 . S
C582 C581 1.412 . S
C582 C583 1.388 . S
C582 C608 1.490 . S
C583 C578 1.397 . S
C583 C582 1.388 . S
C583 C614 1.519 . S
C584 C578 1.492 . S
C584 C585 1.363 . S
C584 C589 1.390 . S
C585 H550 0.930 . S
C585 C584 1.363 . S
C585 C586 1.372 . S
C586 H551 0.930 . S
C586 C585 1.372 . S
C586 C587 1.383 . S
C587 C586 1.383 . S
C587 C588 1.395 . S
C588 H552 0.930 . S
C588 C587 1.395 . S
C588 C589 1.362 . S
C589 H553 0.930 . S
C589 C584 1.390 . S
C589 C588 1.362 . S
C590 C579 1.492 . S
C590 C591 1.377 . S
C590 C595 1.397 . S
C591 H554 0.931 . S
C591 C590 1.377 . S
C591 C592 1.376 1_556 S
C592 H555 0.930 . S
C592 C591 1.376 1_554 S
C592 C593 1.376 . S
C593 C592 1.376 . S
C593 C594 1.364 1_554 S
C593 C620 1.486 . S
C594 H556 0.920 1_556 S
C594 C593 1.364 1_556 S
C594 C595 1.401 . S
C595 H557 0.929 . S
C595 C590 1.397 . S
C595 C594 1.401 . S
C596 C580 1.509 . S
C596 C597 1.391 . S
C596 C601 1.386 . S
C597 H558 0.930 . S
C597 C596 1.391 . S
C597 C598 1.375 . S
C598 H559 0.931 . S
C598 C597 1.375 . S
C598 C599 1.375 . S
C599 C598 1.375 . S
C599 C600 1.361 . S
C600 H560 0.930 . S
C600 C599 1.361 . S
C600 C601 1.399 . S
C601 H561 0.929 . S
C601 C596 1.386 . S
C601 C600 1.399 . S
C602 C581 1.485 . S
C602 C603 1.394 . S
C602 C607 1.360 . S
C603 H562 0.931 . S
C603 C602 1.394 . S
C603 C604 1.372 . S
C604 H563 0.930 . S
C604 C603 1.372 . S
C604 C605 1.397 . S
C605 C604 1.397 . S
C605 C606 1.390 . S
C605 C621 1.476 . S
C606 H564 0.930 . S
C606 C605 1.390 . S
C606 C607 1.366 . S
C607 H565 0.932 . S
C607 C602 1.360 . S
C607 C606 1.366 . S
C608 C582 1.490 . S
C608 C609 1.380 . S
C608 C613 1.386 . S
C609 H566 0.930 . S
C609 C608 1.380 . S
C609 C610 1.381 . S
C610 H567 0.929 . S
C610 C609 1.381 . S
C610 C611 1.371 . S
C611 C610 1.371 . S
C611 C612 1.380 . S
C612 H568 0.931 . S
C612 C611 1.380 . S
C612 C613 1.387 . S
C613 H569 0.930 . S
C613 C608 1.386 . S
C613 C612 1.387 . S
C614 C583 1.519 . S
C614 C615 1.377 . S
C614 C619 1.361 . S
C615 H570 0.929 . S
C615 C614 1.377 . S
C615 C616 1.386 . S
C616 H571 0.931 . S
C616 C615 1.386 . S
C616 C617 1.363 . S
C617 C616 1.363 . S
C617 C618 1.385 . S
C618 H572 0.930 . S
C618 C617 1.385 . S
C618 C619 1.396 . S
C619 H573 0.929 . S
C619 C614 1.361 . S
C619 C618 1.396 . S
C620 O574 1.300 . S
C620 O575 1.209 . S
C620 C593 1.486 . S
C621 O576 1.199 . S
C621 O577 1.297 1_545 S
C621 C605 1.476 . S
H622 O648 0.856 . S
H623 O651 0.854 . S
H624 C659 0.930 . S
H625 C660 0.930 . S
H626 C662 0.930 . S
H627 C663 0.930 . S
H628 C665 0.931 . S
H629 C666 0.930 . S
H630 C668 0.930 . S
H631 C669 0.929 . S
H632 C671 0.930 . S
H633 C672 0.931 . S
H634 C674 0.930 . S
H635 C675 0.929 . S
H636 C677 0.931 . S
H637 C678 0.930 . S
H638 C680 0.930 . S
H639 C681 0.932 . S
H640 C683 0.930 . S
H641 C684 0.929 . S
H642 C686 0.931 . S
H643 C687 0.930 . S
H644 C689 0.929 . S
H645 C690 0.931 . S
H646 C692 0.930 . S
H647 C693 0.929 . S
O648 H622 0.856 . S
O648 C694 1.300 . S
O649 C694 1.209 . S
O650 C695 1.199 . S
O651 H623 0.854 . S
O651 C695 1.297 . S
C652 C653 1.404 . S
C652 C657 1.397 . S
C652 C658 1.492 . S
C653 C652 1.404 . S
C653 C654 1.396 . S
C653 C664 1.492 . S
C654 C653 1.396 . S
C654 C655 1.397 . S
C654 C670 1.509 . S
C655 C654 1.397 . S
C655 C656 1.412 . S
C655 C676 1.485 . S
C656 C655 1.412 . S
C656 C657 1.388 . S
C656 C682 1.490 . S
C657 C652 1.397 . S
C657 C656 1.388 . S
C657 C688 1.519 . S
C658 C652 1.492 . S
C658 C659 1.363 . S
C658 C663 1.390 . S
C659 H624 0.930 . S
C659 C658 1.363 . S
C659 C660 1.372 . S
C660 H625 0.930 . S
C660 C659 1.372 . S
C660 C661 1.383 . S
C661 C660 1.383 . S
C661 C662 1.395 . S
C662 H626 0.930 . S
C662 C661 1.395 . S
C662 C663 1.362 . S
C663 H627 0.930 . S
C663 C658 1.390 . S
C663 C662 1.362 . S
C664 C653 1.492 . S
C664 C665 1.377 . S
C664 C669 1.397 . S
C665 H628 0.931 . S
C665 C664 1.377 . S
C665 C666 1.376 1_556 S
C666 H629 0.930 . S
C666 C665 1.376 1_554 S
C666 C667 1.376 . S
C667 C666 1.376 . S
C667 C668 1.378 . S
C667 C694 1.486 . S
C668 H630 0.930 . S
C668 C667 1.378 . S
C668 C669 1.376 1_554 S
C669 H631 0.929 . S
C669 C664 1.397 . S
C669 C668 1.376 1_556 S
C670 C654 1.509 . S
C670 C671 1.391 . S
C670 C675 1.386 . S
C671 H632 0.930 . S
C671 C670 1.391 . S
C671 C672 1.375 . S
C672 H633 0.931 . S
C672 C671 1.375 . S
C672 C673 1.375 . S
C673 C672 1.375 . S
C673 C674 1.361 . S
C674 H634 0.930 . S
C674 C673 1.361 . S
C674 C675 1.399 . S
C675 H635 0.929 . S
C675 C670 1.386 . S
C675 C674 1.399 . S
C676 C655 1.485 . S
C676 C677 1.394 . S
C676 C681 1.360 . S
C677 H636 0.931 . S
C677 C676 1.394 . S
C677 C678 1.372 . S
C678 H637 0.930 . S
C678 C677 1.372 . S
C678 C679 1.397 . S
C679 C678 1.397 . S
C679 C680 1.390 . S
C679 C695 1.476 . S
C680 H638 0.930 . S
C680 C679 1.390 . S
C680 C681 1.366 . S
C681 H639 0.932 . S
C681 C676 1.360 . S
C681 C680 1.366 . S
C682 C656 1.490 . S
C682 C683 1.380 . S
C682 C687 1.386 . S
C683 H640 0.930 . S
C683 C682 1.380 . S
C683 C684 1.381 . S
C684 H641 0.929 . S
C684 C683 1.381 . S
C684 C685 1.371 . S
C685 C684 1.371 . S
C685 C686 1.380 . S
C686 H642 0.931 . S
C686 C685 1.380 . S
C686 C687 1.387 . S
C687 H643 0.930 . S
C687 C682 1.386 . S
C687 C686 1.387 . S
C688 C657 1.519 . S
C688 C689 1.377 . S
C688 C693 1.361 . S
C689 H644 0.929 . S
C689 C688 1.377 . S
C689 C690 1.386 . S
C690 H645 0.931 . S
C690 C689 1.386 . S
C690 C691 1.363 . S
C691 C690 1.363 . S
C691 C692 1.385 . S
C692 H646 0.930 . S
C692 C691 1.385 . S
C692 C693 1.396 . S
C693 H647 0.929 . S
C693 C688 1.361 . S
C693 C692 1.396 . S
C694 O648 1.300 . S
C694 O649 1.209 . S
C694 C667 1.486 . S
C695 O650 1.199 . S
C695 O651 1.297 . S
C695 C679 1.476 . S
H696 O722 0.856 . S
H697 O725 0.854 . S
H698 C733 0.930 . S
H699 C734 0.930 . S
H700 C736 0.930 . S
H701 C737 0.930 . S
H702 C739 0.931 . S
H703 C740 0.930 . S
H704 C742 0.930 . S
H705 C743 0.929 . S
H706 C745 0.930 . S
H707 C746 0.931 . S
H708 C748 0.930 . S
H709 C749 0.929 . S
H710 C751 0.931 . S
H711 C752 0.930 . S
H712 C754 0.930 . S
H713 C755 0.932 . S
H714 C757 0.930 . S
H715 C758 0.929 . S
H716 C760 0.931 . S
H717 C761 0.930 . S
H718 C763 0.929 . S
H719 C764 0.931 . S
H720 C766 0.930 . S
H721 C767 0.929 . S
O722 H696 0.856 . S
O722 C768 1.300 . S
O723 C768 1.209 . S
O724 C769 1.199 . S
O725 H697 0.854 . S
O725 C769 1.297 . S
C726 C727 1.404 . S
C726 C731 1.397 . S
C726 C732 1.492 . S
C727 C726 1.404 . S
C727 C728 1.396 . S
C727 C738 1.492 . S
C728 C727 1.396 . S
C728 C729 1.397 . S
C728 C744 1.509 . S
C729 C728 1.397 . S
C729 C730 1.412 . S
C729 C750 1.485 . S
C730 C729 1.412 . S
C730 C731 1.388 . S
C730 C756 1.490 . S
C731 C726 1.397 . S
C731 C730 1.388 . S
C731 C762 1.519 . S
C732 C726 1.492 . S
C732 C733 1.363 . S
C732 C737 1.390 . S
C733 H698 0.930 . S
C733 C732 1.363 . S
C733 C734 1.372 . S
C734 H699 0.930 . S
C734 C733 1.372 . S
C734 C735 1.383 . S
C735 C734 1.383 . S
C735 C736 1.395 . S
C736 H700 0.930 . S
C736 C735 1.395 . S
C736 C737 1.362 . S
C737 H701 0.930 . S
C737 C732 1.390 . S
C737 C736 1.362 . S
C738 C727 1.492 . S
C738 C739 1.377 . S
C738 C743 1.397 . S
C739 H702 0.931 . S
C739 C738 1.377 . S
C739 C740 1.376 . S
C740 H703 0.930 . S
C740 C739 1.376 . S
C740 C741 1.376 . S
C741 C740 1.376 . S
C741 C742 1.378 . S
C741 C768 1.486 . S
C742 H704 0.930 . S
C742 C741 1.378 . S
C742 C743 1.376 . S
C743 H705 0.929 . S
C743 C738 1.397 . S
C743 C742 1.376 . S
C744 C728 1.509 . S
C744 C745 1.391 . S
C744 C749 1.386 . S
C745 H706 0.930 . S
C745 C744 1.391 . S
C745 C746 1.375 . S
C746 H707 0.931 . S
C746 C745 1.375 . S
C746 C747 1.375 . S
C747 C746 1.375 . S
C747 C748 1.361 . S
C748 H708 0.930 . S
C748 C747 1.361 . S
C748 C749 1.399 . S
C749 H709 0.929 . S
C749 C744 1.386 . S
C749 C748 1.399 . S
C750 C729 1.485 . S
C750 C751 1.394 . S
C750 C755 1.360 . S
C751 H710 0.931 . S
C751 C750 1.394 . S
C751 C752 1.372 . S
C752 H711 0.930 . S
C752 C751 1.372 . S
C752 C753 1.397 . S
C753 C752 1.397 . S
C753 C754 1.390 . S
C753 C769 1.476 . S
C754 H712 0.930 . S
C754 C753 1.390 . S
C754 C755 1.366 . S
C755 H713 0.932 . S
C755 C750 1.360 . S
C755 C754 1.366 . S
C756 C730 1.490 . S
C756 C757 1.380 . S
C756 C761 1.386 . S
C757 H714 0.930 . S
C757 C756 1.380 . S
C757 C758 1.381 . S
C758 H715 0.929 . S
C758 C757 1.381 . S
C758 C759 1.371 . S
C759 C758 1.371 . S
C759 C760 1.380 . S
C760 H716 0.931 . S
C760 C759 1.380 . S
C760 C761 1.387 . S
C761 H717 0.930 . S
C761 C756 1.386 . S
C761 C760 1.387 . S
C762 C731 1.519 . S
C762 C763 1.377 . S
C762 C767 1.361 . S
C763 H718 0.929 . S
C763 C762 1.377 . S
C763 C764 1.386 . S
C764 H719 0.931 . S
C764 C763 1.386 . S
C764 C765 1.363 . S
C765 C764 1.363 . S
C765 C766 1.385 . S
C766 H720 0.930 . S
C766 C765 1.385 . S
C766 C767 1.396 . S
C767 H721 0.929 . S
C767 C762 1.361 . S
C767 C766 1.396 . S
C768 O722 1.300 . S
C768 O723 1.209 . S
C768 C741 1.486 . S
C769 O724 1.199 . S
C769 O725 1.297 . S
C769 C753 1.476 . S
H770 O796 0.856 . S
H771 O799 0.854 . S
H772 C807 0.930 . S
H773 C808 0.930 . S
H774 C810 0.930 . S
H775 C811 0.930 . S
H776 C813 0.931 . S
H777 C814 0.930 . S
H778 C816 0.930 . S
H779 C817 0.929 . S
H780 C819 0.930 . S
H781 C820 0.931 . S
H782 C822 0.930 . S
H783 C823 0.929 . S
H784 C825 0.931 . S
H785 C826 0.930 . S
H786 C828 0.930 . S
H787 C829 0.932 . S
H788 C831 0.930 . S
H789 C832 0.929 . S
H790 C834 0.931 . S
H791 C835 0.930 . S
H792 C837 0.929 . S
H793 C838 0.931 . S
H794 C840 0.930 . S
H795 C841 0.929 . S
O796 H770 0.856 . S
O796 C842 1.300 . S
O797 C842 1.209 . S
O798 C843 1.199 . S
O799 H771 0.854 . S
O799 C843 1.297 . S
C800 C801 1.404 . S
C800 C805 1.397 . S
C800 C806 1.492 . S
C801 C800 1.404 . S
C801 C802 1.396 . S
C801 C812 1.492 . S
C802 C801 1.396 . S
C802 C803 1.397 . S
C802 C818 1.509 . S
C803 C802 1.397 . S
C803 C804 1.412 . S
C803 C824 1.485 . S
C804 C803 1.412 . S
C804 C805 1.388 . S
C804 C830 1.490 . S
C805 C800 1.397 . S
C805 C804 1.388 . S
C805 C836 1.519 . S
C806 C800 1.492 . S
C806 C807 1.363 . S
C806 C811 1.390 . S
C807 H772 0.930 . S
C807 C806 1.363 . S
C807 C808 1.372 . S
C808 H773 0.930 . S
C808 C807 1.372 . S
C808 C809 1.383 . S
C809 C808 1.383 . S
C809 C810 1.395 . S
C810 H774 0.930 . S
C810 C809 1.395 . S
C810 C811 1.362 . S
C811 H775 0.930 . S
C811 C806 1.390 . S
C811 C810 1.362 . S
C812 C801 1.492 . S
C812 C813 1.377 . S
C812 C817 1.397 . S
C813 H776 0.931 . S
C813 C812 1.377 . S
C813 C814 1.376 . S
C814 H777 0.930 . S
C814 C813 1.376 . S
C814 C815 1.376 . S
C815 C814 1.376 . S
C815 C816 1.378 . S
C815 C842 1.486 . S
C816 H778 0.930 . S
C816 C815 1.378 . S
C816 C817 1.376 . S
C817 H779 0.929 . S
C817 C812 1.397 . S
C817 C816 1.376 . S
C818 C802 1.509 . S
C818 C819 1.391 . S
C818 C823 1.386 . S
C819 H780 0.930 . S
C819 C818 1.391 . S
C819 C820 1.375 . S
C820 H781 0.931 . S
C820 C819 1.375 . S
C820 C821 1.375 . S
C821 C820 1.375 . S
C821 C822 1.361 . S
C822 H782 0.930 . S
C822 C821 1.361 . S
C822 C823 1.399 . S
C823 H783 0.929 . S
C823 C818 1.386 . S
C823 C822 1.399 . S
C824 C803 1.485 . S
C824 C825 1.394 . S
C824 C829 1.360 . S
C825 H784 0.931 . S
C825 C824 1.394 . S
C825 C826 1.372 . S
C826 H785 0.930 . S
C826 C825 1.372 . S
C826 C827 1.397 . S
C827 C826 1.397 . S
C827 C828 1.390 . S
C827 C843 1.476 . S
C828 H786 0.930 . S
C828 C827 1.390 . S
C828 C829 1.366 . S
C829 H787 0.932 . S
C829 C824 1.360 . S
C829 C828 1.366 . S
C830 C804 1.490 . S
C830 C831 1.380 . S
C830 C835 1.386 . S
C831 H788 0.930 . S
C831 C830 1.380 . S
C831 C832 1.381 . S
C832 H789 0.929 . S
C832 C831 1.381 . S
C832 C833 1.371 . S
C833 C832 1.371 . S
C833 C834 1.380 . S
C834 H790 0.931 . S
C834 C833 1.380 . S
C834 C835 1.387 . S
C835 H791 0.930 . S
C835 C830 1.386 . S
C835 C834 1.387 . S
C836 C805 1.519 . S
C836 C837 1.377 . S
C836 C841 1.361 . S
C837 H792 0.929 . S
C837 C836 1.377 . S
C837 C838 1.386 . S
C838 H793 0.931 . S
C838 C837 1.386 . S
C838 C839 1.363 . S
C839 C838 1.363 . S
C839 C840 1.385 . S
C840 H794 0.930 . S
C840 C839 1.385 . S
C840 C841 1.396 . S
C841 H795 0.929 . S
C841 C836 1.361 . S
C841 C840 1.396 . S
C842 O796 1.300 . S
C842 O797 1.209 . S
C842 C815 1.486 . S
C843 O798 1.199 . S
C843 O799 1.297 . S
C843 C827 1.476 . S
H844 O870 0.856 . S
H845 O873 0.854 . S
H846 C881 0.930 . S
H847 C882 0.930 . S
H848 C884 0.930 . S
H849 C885 0.930 . S
H850 C887 0.931 . S
H851 C888 0.930 . S
H852 C890 0.930 . S
H853 C891 0.929 . S
H854 C893 0.930 . S
H855 C894 0.931 . S
H856 C896 0.930 . S
H857 C897 0.929 . S
H858 C899 0.931 . S
H859 C900 0.930 . S
H860 C902 0.930 . S
H861 C903 0.932 . S
H862 C905 0.930 . S
H863 C906 0.929 . S
H864 C908 0.931 . S
H865 C909 0.930 . S
H866 C911 0.929 . S
H867 C912 0.931 . S
H868 C914 0.930 . S
H869 C915 0.929 . S
O870 H844 0.856 . S
O870 C916 1.300 . S
O871 C916 1.209 . S
O872 C917 1.199 . S
O873 H845 0.854 . S
O873 C917 1.297 . S
C874 C875 1.404 . S
C874 C879 1.397 . S
C874 C880 1.492 . S
C875 C874 1.404 . S
C875 C876 1.396 . S
C875 C886 1.492 . S
C876 C875 1.396 . S
C876 C877 1.397 . S
C876 C892 1.509 . S
C877 C876 1.397 . S
C877 C878 1.412 . S
C877 C898 1.485 . S
C878 C877 1.412 . S
C878 C879 1.388 . S
C878 C904 1.490 . S
C879 C874 1.397 . S
C879 C878 1.388 . S
C879 C910 1.519 . S
C880 C874 1.492 . S
C880 C881 1.363 . S
C880 C885 1.390 . S
C881 H846 0.930 . S
C881 C880 1.363 . S
C881 C882 1.372 . S
C882 H847 0.930 . S
C882 C881 1.372 . S
C882 C883 1.383 . S
C883 C882 1.383 . S
C883 C884 1.395 . S
C884 H848 0.930 . S
C884 C883 1.395 . S
C884 C885 1.362 . S
C885 H849 0.930 . S
C885 C880 1.390 . S
C885 C884 1.362 . S
C886 C875 1.492 . S
C886 C887 1.377 . S
C886 C891 1.397 . S
C887 H850 0.931 . S
C887 C886 1.377 . S
C887 C888 1.376 . S
C888 H851 0.930 . S
C888 C887 1.376 . S
C888 C889 1.376 . S
C889 C888 1.376 . S
C889 C890 1.378 . S
C889 C916 1.486 . S
C890 H852 0.930 . S
C890 C889 1.378 . S
C890 C891 1.376 . S
C891 H853 0.929 . S
C891 C886 1.397 . S
C891 C890 1.376 . S
C892 C876 1.509 . S
C892 C893 1.391 . S
C892 C897 1.386 . S
C893 H854 0.930 . S
C893 C892 1.391 . S
C893 C894 1.375 . S
C894 H855 0.931 . S
C894 C893 1.375 . S
C894 C895 1.375 . S
C895 C894 1.375 . S
C895 C896 1.361 . S
C896 H856 0.930 . S
C896 C895 1.361 . S
C896 C897 1.399 . S
C897 H857 0.929 . S
C897 C892 1.386 . S
C897 C896 1.399 . S
C898 C877 1.485 . S
C898 C899 1.394 . S
C898 C903 1.360 . S
C899 H858 0.931 . S
C899 C898 1.394 . S
C899 C900 1.372 . S
C900 H859 0.930 . S
C900 C899 1.372 . S
C900 C901 1.397 . S
C901 C900 1.397 . S
C901 C902 1.390 . S
C901 C917 1.476 . S
C902 H860 0.930 . S
C902 C901 1.390 . S
C902 C903 1.366 . S
C903 H861 0.932 . S
C903 C898 1.360 . S
C903 C902 1.366 . S
C904 C878 1.490 . S
C904 C905 1.380 . S
C904 C909 1.386 . S
C905 H862 0.930 . S
C905 C904 1.380 . S
C905 C906 1.381 . S
C906 H863 0.929 . S
C906 C905 1.381 . S
C906 C907 1.371 . S
C907 C906 1.371 . S
C907 C908 1.380 . S
C908 H864 0.931 . S
C908 C907 1.380 . S
C908 C909 1.387 . S
C909 H865 0.930 . S
C909 C904 1.386 . S
C909 C908 1.387 . S
C910 C879 1.519 . S
C910 C911 1.377 . S
C910 C915 1.361 . S
C911 H866 0.929 . S
C911 C910 1.377 . S
C911 C912 1.386 . S
C912 H867 0.931 . S
C912 C911 1.386 . S
C912 C913 1.363 . S
C913 C912 1.363 . S
C913 C914 1.385 . S
C914 H868 0.930 . S
C914 C913 1.385 . S
C914 C915 1.396 . S
C915 H869 0.929 . S
C915 C910 1.361 . S
C915 C914 1.396 . S
C916 O870 1.300 . S
C916 O871 1.209 . S
C916 C889 1.486 . S
C917 O872 1.199 . S
C917 O873 1.297 . S
C917 C901 1.476 . S
H918 O944 0.856 . S
H919 O947 0.854 . S
H920 C955 0.930 . S
H921 C956 0.930 . S
H922 C958 0.930 . S
H923 C959 0.930 . S
H924 C961 0.931 . S
H925 C962 0.930 1_655 S
H926 C964 0.930 . S
H927 C965 0.929 . S
H928 C967 0.930 . S
H929 C968 0.931 1_655 S
H930 C970 0.930 . S
H931 C971 0.929 . S
H932 C973 0.931 . S
H933 C974 0.930 . S
H934 C976 0.930 . S
H935 C977 0.932 . S
H936 C979 0.930 . S
H937 C980 0.929 . S
H938 C982 0.931 . S
H939 C983 0.930 . S
H940 C985 0.929 . S
H941 C986 0.931 . S
H942 C988 0.930 . S
H943 C989 0.929 . S
O944 H918 0.856 . S
O944 C990 1.300 . S
O945 C990 1.209 . S
O946 C991 1.199 1_655 S
O947 H919 0.854 . S
O947 C991 1.297 . S
C948 C949 1.404 . S
C948 C953 1.397 . S
C948 C954 1.492 . S
C949 C948 1.404 . S
C949 C950 1.396 . S
C949 C960 1.492 . S
C950 C949 1.396 . S
C950 C951 1.397 . S
C950 C966 1.509 . S
C951 C950 1.397 . S
C951 C952 1.426 . S
C951 C972 1.485 . S
C952 C951 1.426 . S
C952 C953 1.375 . S
C952 C978 1.490 1_455 S
C953 C948 1.397 . S
C953 C952 1.375 . S
C953 C984 1.498 1_455 S
C954 C948 1.492 . S
C954 C955 1.363 1_455 S
C954 C959 1.390 . S
C955 H920 0.930 . S
C955 C954 1.363 1_655 S
C955 C956 1.372 . S
C956 H921 0.930 . S
C956 C955 1.372 . S
C956 C957 1.383 . S
C957 C956 1.383 . S
C957 C958 1.395 1_655 S
C958 H922 0.930 . S
C958 C957 1.395 1_455 S
C958 C959 1.362 . S
C959 H923 0.930 . S
C959 C954 1.390 . S
C959 C958 1.362 . S
C960 C949 1.492 . S
C960 C961 1.377 1_455 S
C960 C965 1.397 . S
C961 H924 0.931 . S
C961 C960 1.377 1_655 S
C961 C962 1.376 1_655 S
C962 H925 0.930 1_455 S
C962 C961 1.376 1_455 S
C962 C963 1.376 . S
C963 C962 1.376 . S
C963 C964 1.378 . S
C963 C990 1.486 . S
C964 H926 0.930 . S
C964 C963 1.378 . S
C964 C965 1.376 . S
C965 H927 0.929 . S
C965 C960 1.397 . S
C965 C964 1.376 . S
C966 C950 1.509 . S
C966 C967 1.391 1_455 S
C966 C971 1.386 . S
C967 H928 0.930 . S
C967 C966 1.391 1_655 S
C967 C968 1.375 1_655 S
C968 H929 0.931 1_455 S
C968 C967 1.375 1_455 S
C968 C969 1.375 . S
C969 C968 1.375 . S
C969 C970 1.361 . S
C970 H930 0.930 . S
C970 C969 1.361 . S
C970 C971 1.399 . S
C971 H931 0.929 . S
C971 C966 1.386 . S
C971 C970 1.399 . S
C972 C951 1.485 . S
C972 C973 1.394 1_455 S
C972 C977 1.360 . S
C973 H932 0.931 . S
C973 C972 1.394 1_655 S
C973 C974 1.372 . S
C974 H933 0.930 . S
C974 C973 1.372 . S
C974 C975 1.397 1_655 S
C975 C974 1.397 1_455 S
C975 C976 1.390 . S
C975 C991 1.476 . S
C976 H934 0.930 . S
C976 C975 1.390 . S
C976 C977 1.366 . S
C977 H935 0.932 . S
C977 C972 1.360 . S
C977 C976 1.366 . S
C978 C952 1.490 1_655 S
C978 C979 1.380 . S
C978 C983 1.386 1_655 S
C979 H936 0.930 . S
C979 C978 1.380 . S
C979 C980 1.381 . S
C980 H937 0.929 . S
C980 C979 1.381 . S
C980 C981 1.371 . S
C981 C980 1.371 . S
C981 C982 1.380 1_655 S
C982 H938 0.931 . S
C982 C981 1.380 1_455 S
C982 C983 1.387 . S
C983 H939 0.930 . S
C983 C978 1.386 1_455 S
C983 C982 1.387 . S
C984 C953 1.498 1_655 S
C984 C985 1.431 . S
C984 C989 1.327 1_655 S
C985 H940 0.929 . S
C985 C984 1.431 . S
C985 C986 1.386 . S
C986 H941 0.931 . S
C986 C985 1.386 . S
C986 C987 1.363 . S
C987 C986 1.363 . S
C987 C988 1.385 1_655 S
C988 H942 0.930 . S
C988 C987 1.385 1_455 S
C988 C989 1.396 . S
C989 H943 0.929 . S
C989 C984 1.327 1_455 S
C989 C988 1.396 . S
C990 O944 1.300 . S
C990 O945 1.209 . S
C990 C963 1.486 . S
C991 O946 1.199 1_455 S
C991 O947 1.297 . S
C991 C975 1.476 . S
H992 O1018 0.856 . S
H993 O1021 0.854 . S
H994 C1029 0.930 . S
H995 C1030 0.930 . S
H996 C1032 0.930 . S
H997 C1033 0.930 . S
H998 C1035 0.931 . S
H999 C1036 0.930 . S
H1000 C1038 0.930 . S
H1001 C1039 0.929 . S
H1002 C1041 0.930 . S
H1003 C1042 0.931 . S
H1004 C1044 0.930 . S
H1005 C1045 0.929 . S
H1006 C1047 0.931 . S
H1007 C1048 0.930 . S
H1008 C1050 0.930 . S
H1009 C1051 0.932 . S
H1010 C1053 0.930 . S
H1011 C1054 0.929 . S
H1012 C1056 0.931 . S
H1013 C1057 0.930 . S
H1014 C1059 0.929 . S
H1015 C1060 0.931 . S
H1016 C1062 0.930 . S
H1017 C1063 0.929 . S
O1018 H992 0.856 . S
O1018 C1064 1.300 . S
O1019 C1064 1.209 . S
O1020 C1065 1.199 . S
O1021 H993 0.854 . S
O1021 C1065 1.297 . S
C1022 C1023 1.404 . S
C1022 C1027 1.397 . S
C1022 C1028 1.492 . S
C1023 C1022 1.404 . S
C1023 C1024 1.396 . S
C1023 C1034 1.492 . S
C1024 C1023 1.396 . S
C1024 C1025 1.397 . S
C1024 C1040 1.509 . S
C1025 C1024 1.397 . S
C1025 C1026 1.412 . S
C1025 C1046 1.485 . S
C1026 C1025 1.412 . S
C1026 C1027 1.388 . S
C1026 C1052 1.490 . S
C1027 C1022 1.397 . S
C1027 C1026 1.388 . S
C1027 C1058 1.519 . S
C1028 C1022 1.492 . S
C1028 C1029 1.363 . S
C1028 C1033 1.390 . S
C1029 H994 0.930 . S
C1029 C1028 1.363 . S
C1029 C1030 1.372 . S
C1030 H995 0.930 . S
C1030 C1029 1.372 . S
C1030 C1031 1.383 . S
C1031 C1030 1.383 . S
C1031 C1032 1.395 . S
C1032 H996 0.930 . S
C1032 C1031 1.395 . S
C1032 C1033 1.362 . S
C1033 H997 0.930 . S
C1033 C1028 1.390 . S
C1033 C1032 1.362 . S
C1034 C1023 1.492 . S
C1034 C1035 1.377 . S
C1034 C1039 1.397 . S
C1035 H998 0.931 . S
C1035 C1034 1.377 . S
C1035 C1036 1.376 . S
C1036 H999 0.930 . S
C1036 C1035 1.376 . S
C1036 C1037 1.376 . S
C1037 C1036 1.376 . S
C1037 C1038 1.378 . S
C1037 C1064 1.486 . S
C1038 H1000 0.930 . S
C1038 C1037 1.378 . S
C1038 C1039 1.376 . S
C1039 H1001 0.929 . S
C1039 C1034 1.397 . S
C1039 C1038 1.376 . S
C1040 C1024 1.509 . S
C1040 C1041 1.391 . S
C1040 C1045 1.386 . S
C1041 H1002 0.930 . S
C1041 C1040 1.391 . S
C1041 C1042 1.375 . S
C1042 H1003 0.931 . S
C1042 C1041 1.375 . S
C1042 C1043 1.375 . S
C1043 C1042 1.375 . S
C1043 C1044 1.361 . S
C1044 H1004 0.930 . S
C1044 C1043 1.361 . S
C1044 C1045 1.399 . S
C1045 H1005 0.929 . S
C1045 C1040 1.386 . S
C1045 C1044 1.399 . S
C1046 C1025 1.485 . S
C1046 C1047 1.394 . S
C1046 C1051 1.360 . S
C1047 H1006 0.931 . S
C1047 C1046 1.394 . S
C1047 C1048 1.372 . S
C1048 H1007 0.930 . S
C1048 C1047 1.372 . S
C1048 C1049 1.397 . S
C1049 C1048 1.397 . S
C1049 C1050 1.390 . S
C1049 C1065 1.476 . S
C1050 H1008 0.930 . S
C1050 C1049 1.390 . S
C1050 C1051 1.366 . S
C1051 H1009 0.932 . S
C1051 C1046 1.360 . S
C1051 C1050 1.366 . S
C1052 C1026 1.490 . S
C1052 C1053 1.380 . S
C1052 C1057 1.386 . S
C1053 H1010 0.930 . S
C1053 C1052 1.380 . S
C1053 C1054 1.381 . S
C1054 H1011 0.929 . S
C1054 C1053 1.381 . S
C1054 C1055 1.371 . S
C1055 C1054 1.371 . S
C1055 C1056 1.380 . S
C1056 H1012 0.931 . S
C1056 C1055 1.380 . S
C1056 C1057 1.387 . S
C1057 H1013 0.930 . S
C1057 C1052 1.386 . S
C1057 C1056 1.387 . S
C1058 C1027 1.519 . S
C1058 C1059 1.377 . S
C1058 C1063 1.361 . S
C1059 H1014 0.929 . S
C1059 C1058 1.377 . S
C1059 C1060 1.386 . S
C1060 H1015 0.931 . S
C1060 C1059 1.386 . S
C1060 C1061 1.363 . S
C1061 C1060 1.363 . S
C1061 C1062 1.385 . S
C1062 H1016 0.930 . S
C1062 C1061 1.385 . S
C1062 C1063 1.396 . S
C1063 H1017 0.929 . S
C1063 C1058 1.361 . S
C1063 C1062 1.396 . S
C1064 O1018 1.300 . S
C1064 O1019 1.209 . S
C1064 C1037 1.486 . S
C1065 O1020 1.199 . S
C1065 O1021 1.297 . S
C1065 C1049 1.476 . S
H1066 O1092 0.856 . S
H1067 O1095 0.854 . S
H1068 C1103 0.930 . S
H1069 C1104 0.930 . S
H1070 C1106 0.930 . S
H1071 C1107 0.930 . S
H1072 C1109 0.931 . S
H1073 C1110 0.938 . S
H1074 C1112 0.930 . S
H1075 C1113 0.929 . S
H1076 C1115 0.930 . S
H1077 C1116 0.931 . S
H1078 C1118 0.930 . S
H1079 C1119 0.929 . S
H1080 C1121 0.931 . S
H1081 C1122 0.930 . S
H1082 C1124 0.930 . S
H1083 C1125 0.932 . S
H1084 C1127 0.930 . S
H1085 C1128 0.929 . S
H1086 C1130 0.931 . S
H1087 C1131 0.930 . S
H1088 C1133 0.929 . S
H1089 C1134 0.931 . S
H1090 C1136 0.930 . S
H1091 C1137 0.929 . S
O1092 H1066 0.856 . S
O1092 C1138 1.300 . S
O1093 C1138 1.209 . S
O1094 C1139 1.199 1_545 S
O1095 H1067 0.854 . S
O1095 C1139 1.297 . S
C1096 C1097 1.404 . S
C1096 C1101 1.415 . S
C1096 C1102 1.492 . S
C1097 C1096 1.404 . S
C1097 C1098 1.396 . S
C1097 C1108 1.492 . S
C1098 C1097 1.396 . S
C1098 C1099 1.397 . S
C1098 C1114 1.509 . S
C1099 C1098 1.397 . S
C1099 C1100 1.412 . S
C1099 C1120 1.485 . S
C1100 C1099 1.412 . S
C1100 C1101 1.363 . S
C1100 C1126 1.489 1_565 S
C1101 C1096 1.415 . S
C1101 C1100 1.363 . S
C1101 C1132 1.534 1_565 S
C1102 C1096 1.492 . S
C1102 C1103 1.363 1_565 S
C1102 C1107 1.390 . S
C1103 H1068 0.930 . S
C1103 C1102 1.363 1_545 S
C1103 C1104 1.372 . S
C1104 H1069 0.930 . S
C1104 C1103 1.372 . S
C1104 C1105 1.383 . S
C1105 C1104 1.383 . S
C1105 C1106 1.395 1_545 S
C1106 H1070 0.930 . S
C1106 C1105 1.395 1_565 S
C1106 C1107 1.362 . S
C1107 H1071 0.930 . S
C1107 C1102 1.390 . S
C1107 C1106 1.362 . S
C1108 C1097 1.492 . S
C1108 C1109 1.377 1_565 S
C1108 C1113 1.397 . S
C1109 H1072 0.931 . S
C1109 C1108 1.377 1_545 S
C1109 C1110 1.381 . S
C1110 H1073 0.938 . S
C1110 C1109 1.381 . S
C1110 C1111 1.363 1_545 S
C1111 C1110 1.363 1_565 S
C1111 C1112 1.378 . S
C1111 C1138 1.486 . S
C1112 H1074 0.930 . S
C1112 C1111 1.378 . S
C1112 C1113 1.376 . S
C1113 H1075 0.929 . S
C1113 C1108 1.397 . S
C1113 C1112 1.376 . S
C1114 C1098 1.509 . S
C1114 C1115 1.391 1_565 S
C1114 C1119 1.386 . S
C1115 H1076 0.930 . S
C1115 C1114 1.391 1_545 S
C1115 C1116 1.375 . S
C1116 H1077 0.931 . S
C1116 C1115 1.375 . S
C1116 C1117 1.375 1_545 S
C1117 C1116 1.375 1_565 S
C1117 C1118 1.361 . S
C1118 H1078 0.930 . S
C1118 C1117 1.361 . S
C1118 C1119 1.399 . S
C1119 H1079 0.929 . S
C1119 C1114 1.386 . S
C1119 C1118 1.399 . S
C1120 C1099 1.485 . S
C1120 C1121 1.394 1_565 S
C1120 C1125 1.360 . S
C1121 H1080 0.931 . S
C1121 C1120 1.394 1_545 S
C1121 C1122 1.372 . S
C1122 H1081 0.930 . S
C1122 C1121 1.372 . S
C1122 C1123 1.397 1_545 S
C1123 C1122 1.397 1_565 S
C1123 C1124 1.390 . S
C1123 C1139 1.476 . S
C1124 H1082 0.930 . S
C1124 C1123 1.390 . S
C1124 C1125 1.366 . S
C1125 H1083 0.932 . S
C1125 C1120 1.360 . S
C1125 C1124 1.366 . S
C1126 C1100 1.489 1_545 S
C1126 C1127 1.380 . S
C1126 C1131 1.386 1_545 S
C1127 H1084 0.930 . S
C1127 C1126 1.380 . S
C1127 C1128 1.381 . S
C1128 H1085 0.929 . S
C1128 C1127 1.381 . S
C1128 C1129 1.371 . S
C1129 C1128 1.371 . S
C1129 C1130 1.380 1_545 S
C1130 H1086 0.931 . S
C1130 C1129 1.380 1_565 S
C1130 C1131 1.387 . S
C1131 H1087 0.930 . S
C1131 C1126 1.386 1_565 S
C1131 C1130 1.387 . S
C1132 C1101 1.534 1_545 S
C1132 C1133 1.378 . S
C1132 C1137 1.359 1_545 S
C1133 H1088 0.929 . S
C1133 C1132 1.378 . S
C1133 C1134 1.386 . S
C1134 H1089 0.931 . S
C1134 C1133 1.386 . S
C1134 C1135 1.363 1_545 S
C1135 C1134 1.363 1_565 S
C1135 C1136 1.385 . S
C1136 H1090 0.930 . S
C1136 C1135 1.385 . S
C1136 C1137 1.396 . S
C1137 H1091 0.929 . S
C1137 C1132 1.359 1_565 S
C1137 C1136 1.396 . S
C1138 O1092 1.300 . S
C1138 O1093 1.209 . S
C1138 C1111 1.486 . S
C1139 O1094 1.199 1_565 S
C1139 O1095 1.297 . S
C1139 C1123 1.476 . S
H1140 O1166 0.856 . S
H1141 O1169 0.854 . S
H1142 C1177 0.930 . S
H1143 C1178 0.930 . S
H1144 C1180 0.930 . S
H1145 C1181 0.930 . S
H1146 C1183 0.931 . S
H1147 C1184 0.930 . S
H1148 C1186 0.930 . S
H1149 C1187 0.929 . S
H1150 C1189 0.930 . S
H1151 C1190 0.931 . S
H1152 C1192 0.930 . S
H1153 C1193 0.929 . S
H1154 C1195 0.931 . S
H1155 C1196 0.930 . S
H1156 C1198 0.930 . S
H1157 C1199 0.932 . S
H1158 C1201 0.930 . S
H1159 C1202 0.929 . S
H1160 C1204 0.931 . S
H1161 C1205 0.930 . S
H1162 C1207 0.929 . S
H1163 C1208 0.931 . S
H1164 C1210 0.930 . S
H1165 C1211 0.929 . S
O1166 H1140 0.856 . S
O1166 C1212 1.300 . S
O1167 C1212 1.209 1_565 S
O1168 C1213 1.199 1_545 S
O1169 H1141 0.854 . S
O1169 C1213 1.297 . S
C1170 C1171 1.404 . S
C1170 C1175 1.396 1_545 S
C1170 C1176 1.492 . S
C1171 C1170 1.404 . S
C1171 C1172 1.396 . S
C1171 C1182 1.492 . S
C1172 C1171 1.396 . S
C1172 C1173 1.390 1_545 S
C1172 C1188 1.509 . S
C1173 C1172 1.390 1_565 S
C1173 C1174 1.418 . S
C1173 C1194 1.501 . S
C1174 C1173 1.418 . S
C1174 C1175 1.364 . S
C1174 C1200 1.502 . S
C1175 C1170 1.396 1_565 S
C1175 C1174 1.364 . S
C1175 C1206 1.518 . S
C1176 C1170 1.492 . S
C1176 C1177 1.363 . S
C1176 C1181 1.390 1_545 S
C1177 H1142 0.930 . S
C1177 C1176 1.363 . S
C1177 C1178 1.372 . S
C1178 H1143 0.930 . S
C1178 C1177 1.372 . S
C1178 C1179 1.383 . S
C1179 C1178 1.383 . S
C1179 C1180 1.395 1_545 S
C1180 H1144 0.930 . S
C1180 C1179 1.395 1_565 S
C1180 C1181 1.362 . S
C1181 H1145 0.930 . S
C1181 C1176 1.390 1_565 S
C1181 C1180 1.362 . S
C1182 C1171 1.492 . S
C1182 C1183 1.377 . S
C1182 C1187 1.397 1_545 S
C1183 H1146 0.931 . S
C1183 C1182 1.377 . S
C1183 C1184 1.376 . S
C1184 H1147 0.930 . S
C1184 C1183 1.376 . S
C1184 C1185 1.376 . S
C1185 C1184 1.376 . S
C1185 C1186 1.378 1_545 S
C1185 C1212 1.486 . S
C1186 H1148 0.930 . S
C1186 C1185 1.378 1_565 S
C1186 C1187 1.376 . S
C1187 H1149 0.929 . S
C1187 C1182 1.397 1_565 S
C1187 C1186 1.376 . S
C1188 C1172 1.509 . S
C1188 C1189 1.391 . S
C1188 C1193 1.386 1_545 S
C1189 H1150 0.930 . S
C1189 C1188 1.391 . S
C1189 C1190 1.375 . S
C1190 H1151 0.931 . S
C1190 C1189 1.375 . S
C1190 C1191 1.406 . S
C1191 C1190 1.406 . S
C1191 C1192 1.345 1_545 S
C1192 H1152 0.930 . S
C1192 C1191 1.345 1_565 S
C1192 C1193 1.399 . S
C1193 H1153 0.929 . S
C1193 C1188 1.386 1_565 S
C1193 C1192 1.399 . S
C1194 C1173 1.501 . S
C1194 C1195 1.394 1_565 S
C1194 C1199 1.360 . S
C1195 H1154 0.931 . S
C1195 C1194 1.394 1_545 S
C1195 C1196 1.372 . S
C1196 H1155 0.930 . S
C1196 C1195 1.372 . S
C1196 C1197 1.397 1_545 S
C1197 C1196 1.397 1_565 S
C1197 C1198 1.390 . S
C1197 C1213 1.476 . S
C1198 H1156 0.930 . S
C1198 C1197 1.390 . S
C1198 C1199 1.366 . S
C1199 H1157 0.932 . S
C1199 C1194 1.360 . S
C1199 C1198 1.366 . S
C1200 C1174 1.502 . S
C1200 C1201 1.380 1_565 S
C1200 C1205 1.386 . S
C1201 H1158 0.930 . S
C1201 C1200 1.380 1_545 S
C1201 C1202 1.381 . S
C1202 H1159 0.929 . S
C1202 C1201 1.381 . S
C1202 C1203 1.372 1_545 S
C1203 C1202 1.372 1_565 S
C1203 C1204 1.379 . S
C1204 H1160 0.931 . S
C1204 C1203 1.379 . S
C1204 C1205 1.387 . S
C1205 H1161 0.930 . S
C1205 C1200 1.386 . S
C1205 C1204 1.387 . S
C1206 C1175 1.518 . S
C1206 C1207 1.377 1_565 S
C1206 C1211 1.361 . S
C1207 H1162 0.929 . S
C1207 C1206 1.377 1_545 S
C1207 C1208 1.386 . S
C1208 H1163 0.931 . S
C1208 C1207 1.386 . S
C1208 C1209 1.363 1_545 S
C1209 C1208 1.363 1_565 S
C1209 C1210 1.385 . S
C1210 H1164 0.930 . S
C1210 C1209 1.385 . S
C1210 C1211 1.396 . S
C1211 H1165 0.929 . S
C1211 C1206 1.361 . S
C1211 C1210 1.396 . S
C1212 O1166 1.300 . S
C1212 O1167 1.209 1_545 S
C1212 C1185 1.486 . S
C1213 O1168 1.199 1_565 S
C1213 O1169 1.297 . S
C1213 C1197 1.476 . S
H1214 O1240 0.856 . S
H1215 O1243 0.854 . S
H1216 C1251 0.930 . S
H1217 C1252 0.930 . S
H1218 C1254 0.930 . S
H1219 C1255 0.930 . S
H1220 C1257 0.931 . S
H1221 C1258 0.930 . S
H1222 C1260 0.930 . S
H1223 C1261 0.929 . S
H1224 C1263 0.930 . S
H1225 C1264 0.931 . S
H1226 C1266 0.930 . S
H1227 C1267 0.929 . S
H1228 C1269 0.931 . S
H1229 C1270 0.930 . S
H1230 C1272 0.930 . S
H1231 C1273 0.932 . S
H1232 C1275 0.930 . S
H1233 C1276 0.929 . S
H1234 C1278 0.931 . S
H1235 C1279 0.930 . S
H1236 C1281 0.929 . S
H1237 C1282 0.931 . S
H1238 C1284 0.930 . S
H1239 C1285 0.929 . S
O1240 H1214 0.856 . S
O1240 C1286 1.300 . S
O1241 C1286 1.209 1_455 S
O1242 C1287 1.199 1_655 S
O1243 H1215 0.854 . S
O1243 C1287 1.297 . S
C1244 C1245 1.404 . S
C1244 C1249 1.398 . S
C1244 C1250 1.492 . S
C1245 C1244 1.404 . S
C1245 C1246 1.396 . S
C1245 C1256 1.492 . S
C1246 C1245 1.396 . S
C1246 C1247 1.395 . S
C1246 C1262 1.509 . S
C1247 C1246 1.395 . S
C1247 C1248 1.388 1_655 S
C1247 C1268 1.526 1_655 S
C1248 C1247 1.388 1_455 S
C1248 C1249 1.405 1_455 S
C1248 C1274 1.486 . S
C1249 C1244 1.398 . S
C1249 C1248 1.405 1_655 S
C1249 C1280 1.521 1_655 S
C1250 C1244 1.492 . S
C1250 C1251 1.363 . S
C1250 C1255 1.390 1_655 S
C1251 H1216 0.930 . S
C1251 C1250 1.363 . S
C1251 C1252 1.372 . S
C1252 H1217 0.930 . S
C1252 C1251 1.372 . S
C1252 C1253 1.383 . S
C1253 C1252 1.383 . S
C1253 C1254 1.395 1_655 S
C1254 H1218 0.930 . S
C1254 C1253 1.395 1_455 S
C1254 C1255 1.362 . S
C1255 H1219 0.930 . S
C1255 C1250 1.390 1_455 S
C1255 C1254 1.362 . S
C1256 C1245 1.492 . S
C1256 C1257 1.377 . S
C1256 C1261 1.397 1_655 S
C1257 H1220 0.931 . S
C1257 C1256 1.377 . S
C1257 C1258 1.376 . S
C1258 H1221 0.930 . S
C1258 C1257 1.376 . S
C1258 C1259 1.376 . S
C1259 C1258 1.376 . S
C1259 C1260 1.378 1_655 S
C1259 C1286 1.486 . S
C1260 H1222 0.930 . S
C1260 C1259 1.378 1_455 S
C1260 C1261 1.376 . S
C1261 H1223 0.929 . S
C1261 C1256 1.397 1_455 S
C1261 C1260 1.376 . S
C1262 C1246 1.509 . S
C1262 C1263 1.391 . S
C1262 C1267 1.386 1_655 S
C1263 H1224 0.930 . S
C1263 C1262 1.391 . S
C1263 C1264 1.375 . S
C1264 H1225 0.931 . S
C1264 C1263 1.375 . S
C1264 C1265 1.375 . S
C1265 C1264 1.375 . S
C1265 C1266 1.361 1_655 S
C1266 H1226 0.930 . S
C1266 C1265 1.361 1_455 S
C1266 C1267 1.399 . S
C1267 H1227 0.929 . S
C1267 C1262 1.386 1_455 S
C1267 C1266 1.399 . S
C1268 C1247 1.526 1_455 S
C1268 C1269 1.348 1_455 S
C1268 C1273 1.380 . S
C1269 H1228 0.931 . S
C1269 C1268 1.348 1_655 S
C1269 C1270 1.372 . S
C1270 H1229 0.930 . S
C1270 C1269 1.372 . S
C1270 C1271 1.397 1_655 S
C1271 C1270 1.397 1_455 S
C1271 C1272 1.390 . S
C1271 C1287 1.476 . S
C1272 H1230 0.930 . S
C1272 C1271 1.390 . S
C1272 C1273 1.366 . S
C1273 H1231 0.932 . S
C1273 C1268 1.380 . S
C1273 C1272 1.366 . S
C1274 C1248 1.486 . S
C1274 C1275 1.380 1_455 S
C1274 C1279 1.386 . S
C1275 H1232 0.930 . S
C1275 C1274 1.380 1_655 S
C1275 C1276 1.381 . S
C1276 H1233 0.929 . S
C1276 C1275 1.381 . S
C1276 C1277 1.371 1_655 S
C1277 C1276 1.371 1_455 S
C1277 C1278 1.380 . S
C1278 H1234 0.931 . S
C1278 C1277 1.380 . S
C1278 C1279 1.387 . S
C1279 H1235 0.930 . S
C1279 C1274 1.386 . S
C1279 C1278 1.387 . S
C1280 C1249 1.521 1_455 S
C1280 C1281 1.377 1_455 S
C1280 C1285 1.361 . S
C1281 H1236 0.929 . S
C1281 C1280 1.377 1_655 S
C1281 C1282 1.386 . S
C1282 H1237 0.931 . S
C1282 C1281 1.386 . S
C1282 C1283 1.363 1_655 S
C1283 C1282 1.363 1_455 S
C1283 C1284 1.385 . S
C1284 H1238 0.930 . S
C1284 C1283 1.385 . S
C1284 C1285 1.396 . S
C1285 H1239 0.929 . S
C1285 C1280 1.361 . S
C1285 C1284 1.396 . S
C1286 O1240 1.300 . S
C1286 O1241 1.209 1_655 S
C1286 C1259 1.486 . S
C1287 O1242 1.199 1_455 S
C1287 O1243 1.297 . S
C1287 C1271 1.476 . S
H1288 O1314 0.856 . S
H1289 O1317 0.854 . S
H1290 C1325 0.930 . S
H1291 C1326 0.930 . S
H1292 C1328 0.930 . S
H1293 C1329 0.930 . S
H1294 C1331 0.931 . S
H1295 C1332 0.930 . S
H1296 C1334 0.930 . S
H1297 C1335 0.929 . S
H1298 C1337 0.930 . S
H1299 C1338 0.931 . S
H1300 C1340 0.930 . S
H1301 C1341 0.929 . S
H1302 C1343 0.931 . S
H1303 C1344 0.930 . S
H1304 C1346 0.930 . S
H1305 C1347 0.932 . S
H1306 C1349 0.930 . S
H1307 C1350 0.929 . S
H1308 C1352 0.931 . S
H1309 C1353 0.930 . S
H1310 C1355 0.929 . S
H1311 C1356 0.931 . S
H1312 C1358 0.930 . S
H1313 C1359 0.929 . S
O1314 H1288 0.856 . S
O1314 C1360 1.300 . S
O1315 C1360 1.209 . S
O1316 C1361 1.199 . S
O1317 H1289 0.854 . S
O1317 C1361 1.297 . S
C1318 C1319 1.404 . S
C1318 C1323 1.397 . S
C1318 C1324 1.492 . S
C1319 C1318 1.404 . S
C1319 C1320 1.396 . S
C1319 C1330 1.492 . S
C1320 C1319 1.396 . S
C1320 C1321 1.397 . S
C1320 C1336 1.509 . S
C1321 C1320 1.397 . S
C1321 C1322 1.412 . S
C1321 C1342 1.485 . S
C1322 C1321 1.412 . S
C1322 C1323 1.388 . S
C1322 C1348 1.490 . S
C1323 C1318 1.397 . S
C1323 C1322 1.388 . S
C1323 C1354 1.519 . S
C1324 C1318 1.492 . S
C1324 C1325 1.363 . S
C1324 C1329 1.390 . S
C1325 H1290 0.930 . S
C1325 C1324 1.363 . S
C1325 C1326 1.372 . S
C1326 H1291 0.930 . S
C1326 C1325 1.372 . S
C1326 C1327 1.383 . S
C1327 C1326 1.383 . S
C1327 C1328 1.395 . S
C1328 H1292 0.930 . S
C1328 C1327 1.395 . S
C1328 C1329 1.362 . S
C1329 H1293 0.930 . S
C1329 C1324 1.390 . S
C1329 C1328 1.362 . S
C1330 C1319 1.492 . S
C1330 C1331 1.377 . S
C1330 C1335 1.397 . S
C1331 H1294 0.931 . S
C1331 C1330 1.377 . S
C1331 C1332 1.376 . S
C1332 H1295 0.930 . S
C1332 C1331 1.376 . S
C1332 C1333 1.376 . S
C1333 C1332 1.376 . S
C1333 C1334 1.378 . S
C1333 C1360 1.486 . S
C1334 H1296 0.930 . S
C1334 C1333 1.378 . S
C1334 C1335 1.376 . S
C1335 H1297 0.929 . S
C1335 C1330 1.397 . S
C1335 C1334 1.376 . S
C1336 C1320 1.509 . S
C1336 C1337 1.391 . S
C1336 C1341 1.386 . S
C1337 H1298 0.930 . S
C1337 C1336 1.391 . S
C1337 C1338 1.375 . S
C1338 H1299 0.931 . S
C1338 C1337 1.375 . S
C1338 C1339 1.375 . S
C1339 C1338 1.375 . S
C1339 C1340 1.361 . S
C1340 H1300 0.930 . S
C1340 C1339 1.361 . S
C1340 C1341 1.399 . S
C1341 H1301 0.929 . S
C1341 C1336 1.386 . S
C1341 C1340 1.399 . S
C1342 C1321 1.485 . S
C1342 C1343 1.394 . S
C1342 C1347 1.360 . S
C1343 H1302 0.931 . S
C1343 C1342 1.394 . S
C1343 C1344 1.372 . S
C1344 H1303 0.930 . S
C1344 C1343 1.372 . S
C1344 C1345 1.397 . S
C1345 C1344 1.397 . S
C1345 C1346 1.390 . S
C1345 C1361 1.476 . S
C1346 H1304 0.930 . S
C1346 C1345 1.390 . S
C1346 C1347 1.366 . S
C1347 H1305 0.932 . S
C1347 C1342 1.360 . S
C1347 C1346 1.366 . S
C1348 C1322 1.490 . S
C1348 C1349 1.380 . S
C1348 C1353 1.386 . S
C1349 H1306 0.930 . S
C1349 C1348 1.380 . S
C1349 C1350 1.381 . S
C1350 H1307 0.929 . S
C1350 C1349 1.381 . S
C1350 C1351 1.371 . S
C1351 C1350 1.371 . S
C1351 C1352 1.380 . S
C1352 H1308 0.931 . S
C1352 C1351 1.380 . S
C1352 C1353 1.387 . S
C1353 H1309 0.930 . S
C1353 C1348 1.386 . S
C1353 C1352 1.387 . S
C1354 C1323 1.519 . S
C1354 C1355 1.377 . S
C1354 C1359 1.361 . S
C1355 H1310 0.929 . S
C1355 C1354 1.377 . S
C1355 C1356 1.386 . S
C1356 H1311 0.931 . S
C1356 C1355 1.386 . S
C1356 C1357 1.363 . S
C1357 C1356 1.363 . S
C1357 C1358 1.385 . S
C1358 H1312 0.930 . S
C1358 C1357 1.385 . S
C1358 C1359 1.396 . S
C1359 H1313 0.929 . S
C1359 C1354 1.361 . S
C1359 C1358 1.396 . S
C1360 O1314 1.300 . S
C1360 O1315 1.209 . S
C1360 C1333 1.486 . S
C1361 O1316 1.199 . S
C1361 O1317 1.297 . S
C1361 C1345 1.476 . S
H1362 O1388 0.856 . S
H1363 O1391 0.854 . S
H1364 C1399 0.930 . S
H1365 C1400 0.930 . S
H1366 C1402 0.930 . S
H1367 C1403 0.930 . S
H1368 C1405 0.931 . S
H1369 C1406 0.930 . S
H1370 C1408 0.930 . S
H1371 C1409 0.929 . S
H1372 C1411 0.930 . S
H1373 C1412 0.931 . S
H1374 C1414 0.930 . S
H1375 C1415 0.929 . S
H1376 C1417 0.931 . S
H1377 C1418 0.930 . S
H1378 C1420 0.930 . S
H1379 C1421 0.932 . S
H1380 C1423 0.930 . S
H1381 C1424 0.929 . S
H1382 C1426 0.931 . S
H1383 C1427 0.930 . S
H1384 C1429 0.929 . S
H1385 C1430 0.931 . S
H1386 C1432 0.930 . S
H1387 C1433 0.929 . S
O1388 H1362 0.856 . S
O1388 C1434 1.300 . S
O1389 C1434 1.209 . S
O1390 C1435 1.199 . S
O1391 H1363 0.854 . S
O1391 C1435 1.297 . S
C1392 C1393 1.404 . S
C1392 C1397 1.397 . S
C1392 C1398 1.492 . S
C1393 C1392 1.404 . S
C1393 C1394 1.396 . S
C1393 C1404 1.492 . S
C1394 C1393 1.396 . S
C1394 C1395 1.397 . S
C1394 C1410 1.509 . S
C1395 C1394 1.397 . S
C1395 C1396 1.412 . S
C1395 C1416 1.485 . S
C1396 C1395 1.412 . S
C1396 C1397 1.388 . S
C1396 C1422 1.490 . S
C1397 C1392 1.397 . S
C1397 C1396 1.388 . S
C1397 C1428 1.519 . S
C1398 C1392 1.492 . S
C1398 C1399 1.363 . S
C1398 C1403 1.390 . S
C1399 H1364 0.930 . S
C1399 C1398 1.363 . S
C1399 C1400 1.372 . S
C1400 H1365 0.930 . S
C1400 C1399 1.372 . S
C1400 C1401 1.383 . S
C1401 C1400 1.383 . S
C1401 C1402 1.395 . S
C1402 H1366 0.930 . S
C1402 C1401 1.395 . S
C1402 C1403 1.362 . S
C1403 H1367 0.930 . S
C1403 C1398 1.390 . S
C1403 C1402 1.362 . S
C1404 C1393 1.492 . S
C1404 C1405 1.377 . S
C1404 C1409 1.397 . S
C1405 H1368 0.931 . S
C1405 C1404 1.377 . S
C1405 C1406 1.376 . S
C1406 H1369 0.930 . S
C1406 C1405 1.376 . S
C1406 C1407 1.376 . S
C1407 C1406 1.376 . S
C1407 C1408 1.378 . S
C1407 C1434 1.486 . S
C1408 H1370 0.930 . S
C1408 C1407 1.378 . S
C1408 C1409 1.376 . S
C1409 H1371 0.929 . S
C1409 C1404 1.397 . S
C1409 C1408 1.376 . S
C1410 C1394 1.509 . S
C1410 C1411 1.391 . S
C1410 C1415 1.386 . S
C1411 H1372 0.930 . S
C1411 C1410 1.391 . S
C1411 C1412 1.375 . S
C1412 H1373 0.931 . S
C1412 C1411 1.375 . S
C1412 C1413 1.375 . S
C1413 C1412 1.375 . S
C1413 C1414 1.361 . S
C1414 H1374 0.930 . S
C1414 C1413 1.361 . S
C1414 C1415 1.399 . S
C1415 H1375 0.929 . S
C1415 C1410 1.386 . S
C1415 C1414 1.399 . S
C1416 C1395 1.485 . S
C1416 C1417 1.394 . S
C1416 C1421 1.360 . S
C1417 H1376 0.931 . S
C1417 C1416 1.394 . S
C1417 C1418 1.372 . S
C1418 H1377 0.930 . S
C1418 C1417 1.372 . S
C1418 C1419 1.397 . S
C1419 C1418 1.397 . S
C1419 C1420 1.390 . S
C1419 C1435 1.476 . S
C1420 H1378 0.930 . S
C1420 C1419 1.390 . S
C1420 C1421 1.366 . S
C1421 H1379 0.932 . S
C1421 C1416 1.360 . S
C1421 C1420 1.366 . S
C1422 C1396 1.490 . S
C1422 C1423 1.380 . S
C1422 C1427 1.386 . S
C1423 H1380 0.930 . S
C1423 C1422 1.380 . S
C1423 C1424 1.381 . S
C1424 H1381 0.929 . S
C1424 C1423 1.381 . S
C1424 C1425 1.371 . S
C1425 C1424 1.371 . S
C1425 C1426 1.380 . S
C1426 H1382 0.931 . S
C1426 C1425 1.380 . S
C1426 C1427 1.387 . S
C1427 H1383 0.930 . S
C1427 C1422 1.386 . S
C1427 C1426 1.387 . S
C1428 C1397 1.519 . S
C1428 C1429 1.377 . S
C1428 C1433 1.361 . S
C1429 H1384 0.929 . S
C1429 C1428 1.377 . S
C1429 C1430 1.386 . S
C1430 H1385 0.931 . S
C1430 C1429 1.386 . S
C1430 C1431 1.363 . S
C1431 C1430 1.363 . S
C1431 C1432 1.385 . S
C1432 H1386 0.930 . S
C1432 C1431 1.385 . S
C1432 C1433 1.396 . S
C1433 H1387 0.929 . S
C1433 C1428 1.361 . S
C1433 C1432 1.396 . S
C1434 O1388 1.300 . S
C1434 O1389 1.209 . S
C1434 C1407 1.486 . S
C1435 O1390 1.199 . S
C1435 O1391 1.297 . S
C1435 C1419 1.476 . S
H1436 O1462 0.856 . S
H1437 O1465 0.854 . S
H1438 C1473 0.930 . S
H1439 C1474 0.930 . S
H1440 C1476 0.930 . S
H1441 C1477 0.930 . S
H1442 C1479 0.931 . S
H1443 C1480 0.930 . S
H1444 C1482 0.930 . S
H1445 C1483 0.929 . S
H1446 C1485 0.930 . S
H1447 C1486 0.931 . S
H1448 C1488 0.930 . S
H1449 C1489 0.929 . S
H1450 C1491 0.931 . S
H1451 C1492 0.930 . S
H1452 C1494 0.930 . S
H1453 C1495 0.932 . S
H1454 C1497 0.930 . S
H1455 C1498 0.929 . S
H1456 C1500 0.931 . S
H1457 C1501 0.930 . S
H1458 C1503 0.929 . S
H1459 C1504 0.931 . S
H1460 C1506 0.930 . S
H1461 C1507 0.929 . S
O1462 H1436 0.856 . S
O1462 C1508 1.300 . S
O1463 C1508 1.209 . S
O1464 C1509 1.199 . S
O1465 H1437 0.854 . S
O1465 C1509 1.297 . S
C1466 C1467 1.404 . S
C1466 C1471 1.397 . S
C1466 C1472 1.492 . S
C1467 C1466 1.404 . S
C1467 C1468 1.396 . S
C1467 C1478 1.492 . S
C1468 C1467 1.396 . S
C1468 C1469 1.397 . S
C1468 C1484 1.509 . S
C1469 C1468 1.397 . S
C1469 C1470 1.412 . S
C1469 C1490 1.485 . S
C1470 C1469 1.412 . S
C1470 C1471 1.388 . S
C1470 C1496 1.490 . S
C1471 C1466 1.397 . S
C1471 C1470 1.388 . S
C1471 C1502 1.519 . S
C1472 C1466 1.492 . S
C1472 C1473 1.363 . S
C1472 C1477 1.390 . S
C1473 H1438 0.930 . S
C1473 C1472 1.363 . S
C1473 C1474 1.372 . S
C1474 H1439 0.930 . S
C1474 C1473 1.372 . S
C1474 C1475 1.383 . S
C1475 C1474 1.383 . S
C1475 C1476 1.395 . S
C1476 H1440 0.930 . S
C1476 C1475 1.395 . S
C1476 C1477 1.362 . S
C1477 H1441 0.930 . S
C1477 C1472 1.390 . S
C1477 C1476 1.362 . S
C1478 C1467 1.492 . S
C1478 C1479 1.377 . S
C1478 C1483 1.397 . S
C1479 H1442 0.931 . S
C1479 C1478 1.377 . S
C1479 C1480 1.376 . S
C1480 H1443 0.930 . S
C1480 C1479 1.376 . S
C1480 C1481 1.376 . S
C1481 C1480 1.376 . S
C1481 C1482 1.378 . S
C1481 C1508 1.486 . S
C1482 H1444 0.930 . S
C1482 C1481 1.378 . S
C1482 C1483 1.376 . S
C1483 H1445 0.929 . S
C1483 C1478 1.397 . S
C1483 C1482 1.376 . S
C1484 C1468 1.509 . S
C1484 C1485 1.391 . S
C1484 C1489 1.386 . S
C1485 H1446 0.930 . S
C1485 C1484 1.391 . S
C1485 C1486 1.375 . S
C1486 H1447 0.931 . S
C1486 C1485 1.375 . S
C1486 C1487 1.375 . S
C1487 C1486 1.375 . S
C1487 C1488 1.361 . S
C1488 H1448 0.930 . S
C1488 C1487 1.361 . S
C1488 C1489 1.399 . S
C1489 H1449 0.929 . S
C1489 C1484 1.386 . S
C1489 C1488 1.399 . S
C1490 C1469 1.485 . S
C1490 C1491 1.394 . S
C1490 C1495 1.360 . S
C1491 H1450 0.931 . S
C1491 C1490 1.394 . S
C1491 C1492 1.372 . S
C1492 H1451 0.930 . S
C1492 C1491 1.372 . S
C1492 C1493 1.397 . S
C1493 C1492 1.397 . S
C1493 C1494 1.390 . S
C1493 C1509 1.476 . S
C1494 H1452 0.930 . S
C1494 C1493 1.390 . S
C1494 C1495 1.366 . S
C1495 H1453 0.932 . S
C1495 C1490 1.360 . S
C1495 C1494 1.366 . S
C1496 C1470 1.490 . S
C1496 C1497 1.380 . S
C1496 C1501 1.386 . S
C1497 H1454 0.930 . S
C1497 C1496 1.380 . S
C1497 C1498 1.381 . S
C1498 H1455 0.929 . S
C1498 C1497 1.381 . S
C1498 C1499 1.371 . S
C1499 C1498 1.371 . S
C1499 C1500 1.380 . S
C1500 H1456 0.931 . S
C1500 C1499 1.380 . S
C1500 C1501 1.387 . S
C1501 H1457 0.930 . S
C1501 C1496 1.386 . S
C1501 C1500 1.387 . S
C1502 C1471 1.519 . S
C1502 C1503 1.377 . S
C1502 C1507 1.361 . S
C1503 H1458 0.929 . S
C1503 C1502 1.377 . S
C1503 C1504 1.386 . S
C1504 H1459 0.931 . S
C1504 C1503 1.386 . S
C1504 C1505 1.363 . S
C1505 C1504 1.363 . S
C1505 C1506 1.385 . S
C1506 H1460 0.930 . S
C1506 C1505 1.385 . S
C1506 C1507 1.396 . S
C1507 H1461 0.929 . S
C1507 C1502 1.361 . S
C1507 C1506 1.396 . S
C1508 O1462 1.300 . S
C1508 O1463 1.209 . S
C1508 C1481 1.486 . S
C1509 O1464 1.199 . S
C1509 O1465 1.297 . S
C1509 C1493 1.476 . S
H1510 O1536 0.856 . S
H1511 O1539 0.854 . S
H1512 C1547 0.930 . S
H1513 C1548 0.930 . S
H1514 C1550 0.930 . S
H1515 C1551 0.930 . S
H1516 C1553 0.931 . S
H1517 C1554 0.930 . S
H1518 C1556 0.930 . S
H1519 C1557 0.929 . S
H1520 C1559 0.930 . S
H1521 C1560 0.931 . S
H1522 C1562 0.930 . S
H1523 C1563 0.929 . S
H1524 C1565 0.931 . S
H1525 C1566 0.930 . S
H1526 C1568 0.930 . S
H1527 C1569 0.932 . S
H1528 C1571 0.930 . S
H1529 C1572 0.929 . S
H1530 C1574 0.931 . S
H1531 C1575 0.930 . S
H1532 C1577 0.929 . S
H1533 C1578 0.931 . S
H1534 C1580 0.930 . S
H1535 C1581 0.929 . S
O1536 H1510 0.856 . S
O1536 C1582 1.300 . S
O1537 C1582 1.209 . S
O1538 C1583 1.199 . S
O1539 H1511 0.854 . S
O1539 C1583 1.297 . S
C1540 C1541 1.404 . S
C1540 C1545 1.397 . S
C1540 C1546 1.492 . S
C1541 C1540 1.404 . S
C1541 C1542 1.396 . S
C1541 C1552 1.492 . S
C1542 C1541 1.396 . S
C1542 C1543 1.397 . S
C1542 C1558 1.509 . S
C1543 C1542 1.397 . S
C1543 C1544 1.412 . S
C1543 C1564 1.485 . S
C1544 C1543 1.412 . S
C1544 C1545 1.388 . S
C1544 C1570 1.490 . S
C1545 C1540 1.397 . S
C1545 C1544 1.388 . S
C1545 C1576 1.519 . S
C1546 C1540 1.492 . S
C1546 C1547 1.363 . S
C1546 C1551 1.390 . S
C1547 H1512 0.930 . S
C1547 C1546 1.363 . S
C1547 C1548 1.372 . S
C1548 H1513 0.930 . S
C1548 C1547 1.372 . S
C1548 C1549 1.383 . S
C1549 C1548 1.383 . S
C1549 C1550 1.395 . S
C1550 H1514 0.930 . S
C1550 C1549 1.395 . S
C1550 C1551 1.362 . S
C1551 H1515 0.930 . S
C1551 C1546 1.390 . S
C1551 C1550 1.362 . S
C1552 C1541 1.492 . S
C1552 C1553 1.377 . S
C1552 C1557 1.397 . S
C1553 H1516 0.931 . S
C1553 C1552 1.377 . S
C1553 C1554 1.376 . S
C1554 H1517 0.930 . S
C1554 C1553 1.376 . S
C1554 C1555 1.376 . S
C1555 C1554 1.376 . S
C1555 C1556 1.378 . S
C1555 C1582 1.486 . S
C1556 H1518 0.930 . S
C1556 C1555 1.378 . S
C1556 C1557 1.376 . S
C1557 H1519 0.929 . S
C1557 C1552 1.397 . S
C1557 C1556 1.376 . S
C1558 C1542 1.509 . S
C1558 C1559 1.391 . S
C1558 C1563 1.386 . S
C1559 H1520 0.930 . S
C1559 C1558 1.391 . S
C1559 C1560 1.375 . S
C1560 H1521 0.931 . S
C1560 C1559 1.375 . S
C1560 C1561 1.375 . S
C1561 C1560 1.375 . S
C1561 C1562 1.361 . S
C1562 H1522 0.930 . S
C1562 C1561 1.361 . S
C1562 C1563 1.399 . S
C1563 H1523 0.929 . S
C1563 C1558 1.386 . S
C1563 C1562 1.399 . S
C1564 C1543 1.485 . S
C1564 C1565 1.394 . S
C1564 C1569 1.360 . S
C1565 H1524 0.931 . S
C1565 C1564 1.394 . S
C1565 C1566 1.372 . S
C1566 H1525 0.930 . S
C1566 C1565 1.372 . S
C1566 C1567 1.397 . S
C1567 C1566 1.397 . S
C1567 C1568 1.390 . S
C1567 C1583 1.476 . S
C1568 H1526 0.930 . S
C1568 C1567 1.390 . S
C1568 C1569 1.366 . S
C1569 H1527 0.932 . S
C1569 C1564 1.360 . S
C1569 C1568 1.366 . S
C1570 C1544 1.490 . S
C1570 C1571 1.380 . S
C1570 C1575 1.386 . S
C1571 H1528 0.930 . S
C1571 C1570 1.380 . S
C1571 C1572 1.381 . S
C1572 H1529 0.929 . S
C1572 C1571 1.381 . S
C1572 C1573 1.371 . S
C1573 C1572 1.371 . S
C1573 C1574 1.380 . S
C1574 H1530 0.931 . S
C1574 C1573 1.380 . S
C1574 C1575 1.387 . S
C1575 H1531 0.930 . S
C1575 C1570 1.386 . S
C1575 C1574 1.387 . S
C1576 C1545 1.519 . S
C1576 C1577 1.377 . S
C1576 C1581 1.361 . S
C1577 H1532 0.929 . S
C1577 C1576 1.377 . S
C1577 C1578 1.386 . S
C1578 H1533 0.931 . S
C1578 C1577 1.386 . S
C1578 C1579 1.363 . S
C1579 C1578 1.363 . S
C1579 C1580 1.385 . S
C1580 H1534 0.930 . S
C1580 C1579 1.385 . S
C1580 C1581 1.396 . S
C1581 H1535 0.929 . S
C1581 C1576 1.361 . S
C1581 C1580 1.396 . S
C1582 O1536 1.300 . S
C1582 O1537 1.209 . S
C1582 C1555 1.486 . S
C1583 O1538 1.199 . S
C1583 O1539 1.297 . S
C1583 C1567 1.476 . S
C1584 C1585 1.363 . S
C1584 C1590 1.379 . S
C1584 N1592 1.356 . S
C1585 C1584 1.363 . S
C1585 C1591 1.363 1_655 S
C1586 C1587 1.363 . S
C1586 C1591 1.379 1_655 S
C1586 N1593 1.356 1_655 S
C1587 C1586 1.363 . S
C1587 C1590 1.363 . S
N1588 C1590 1.356 . S
N1588 H1600 0.984 . S
N1588 H1601 0.985 . S
N1589 C1591 1.356 . S
N1589 H1594 0.984 . S
N1589 H1595 0.985 . S
C1590 C1584 1.379 . S
C1590 C1587 1.363 . S
C1590 N1588 1.356 . S
C1591 C1585 1.363 1_455 S
C1591 C1586 1.379 1_455 S
C1591 N1589 1.356 . S
N1592 C1584 1.356 . S
N1592 H1598 0.984 . S
N1592 H1599 0.984 . S
N1593 C1586 1.356 1_455 S
N1593 H1596 0.984 1_455 S
N1593 H1597 0.985 . S
H1594 N1589 0.984 . S
H1595 N1589 0.985 . S
H1596 N1593 0.984 1_655 S
H1597 N1593 0.985 . S
H1598 N1592 0.984 . S
H1599 N1592 0.984 . S
H1600 N1588 0.984 . S
H1601 N1588 0.985 . S
C1602 C1603 1.363 . S
C1602 C1608 1.379 . S
C1602 N1610 1.356 . S
C1603 C1602 1.363 . S
C1603 C1609 1.363 . S
C1604 C1605 1.363 . S
C1604 C1609 1.379 . S
C1604 N1611 1.356 . S
C1605 C1604 1.363 . S
C1605 C1608 1.363 . S
N1606 C1608 1.356 . S
N1606 H1618 0.984 . S
N1606 H1619 0.985 . S
N1607 C1609 1.356 . S
N1607 H1612 0.984 . S
N1607 H1613 0.985 . S
C1608 C1602 1.379 . S
C1608 C1605 1.363 . S
C1608 N1606 1.356 . S
C1609 C1603 1.363 . S
C1609 C1604 1.379 . S
C1609 N1607 1.356 . S
N1610 C1602 1.356 . S
N1610 H1616 0.984 . S
N1610 H1617 0.984 . S
N1611 C1604 1.356 . S
N1611 H1614 0.984 . S
N1611 H1615 0.985 . S
H1612 N1607 0.984 . S
H1613 N1607 0.985 . S
H1614 N1611 0.984 . S
H1615 N1611 0.985 . S
H1616 N1610 0.984 . S
H1617 N1610 0.984 . S
H1618 N1606 0.984 . S
H1619 N1606 0.985 . S
C1620 C1621 1.363 1_565 S
C1620 C1626 1.383 1_565 S
C1620 N1628 1.356 . S
C1621 C1620 1.363 1_545 S
C1621 C1627 1.363 . S
C1622 C1623 1.363 . S
C1622 C1627 1.379 . S
C1622 N1629 1.356 . S
C1623 C1622 1.363 . S
C1623 C1626 1.367 . S
N1624 C1626 1.349 1_565 S
N1624 H1636 0.984 . S
N1624 H1637 0.985 . S
N1625 C1627 1.356 . S
N1625 H1630 0.984 . S
N1625 H1631 0.985 . S
C1626 C1620 1.383 1_545 S
C1626 C1623 1.367 . S
C1626 N1624 1.349 1_545 S
C1627 C1621 1.363 . S
C1627 C1622 1.379 . S
C1627 N1625 1.356 . S
N1628 C1620 1.356 . S
N1628 H1634 0.984 . S
N1628 H1635 0.984 . S
N1629 C1622 1.356 . S
N1629 H1632 0.984 . S
N1629 H1633 0.985 . S
H1630 N1625 0.984 . S
H1631 N1625 0.985 . S
H1632 N1629 0.984 . S
H1633 N1629 0.985 . S
H1634 N1628 0.984 . S
H1635 N1628 0.984 . S
H1636 N1624 0.984 . S
H1637 N1624 0.985 . S
C1638 C1639 1.363 1_545 S
C1638 C1644 1.379 . S
C1638 N1646 1.356 . S
C1639 C1638 1.363 1_565 S
C1639 C1645 1.363 . S
C1640 C1641 1.363 . S
C1640 C1645 1.379 . S
C1640 N1647 1.356 . S
C1641 C1640 1.363 . S
C1641 C1644 1.363 1_565 S
N1642 C1644 1.356 . S
N1642 H1654 0.984 . S
N1642 H1655 0.985 . S
N1643 C1645 1.356 . S
N1643 H1648 0.984 . S
N1643 H1649 0.985 . S
C1644 C1638 1.379 . S
C1644 C1641 1.363 1_545 S
C1644 N1642 1.356 . S
C1645 C1639 1.363 . S
C1645 C1640 1.379 . S
C1645 N1643 1.356 . S
N1646 C1638 1.356 . S
N1646 H1652 0.984 . S
N1646 H1653 0.984 . S
N1647 C1640 1.356 . S
N1647 H1650 0.984 . S
N1647 H1651 0.985 . S
H1648 N1643 0.984 . S
H1649 N1643 0.985 . S
H1650 N1647 0.984 . S
H1651 N1647 0.985 . S
H1652 N1646 0.984 . S
H1653 N1646 0.984 . S
H1654 N1642 0.984 . S
H1655 N1642 0.985 . S
C1656 C1657 1.363 . S
C1656 C1662 1.379 . S
C1656 N1664 1.356 . S
C1657 C1656 1.363 . S
C1657 C1663 1.363 . S
C1658 C1659 1.363 . S
C1658 C1663 1.379 . S
C1658 N1665 1.356 . S
C1659 C1658 1.363 . S
C1659 C1662 1.363 . S
N1660 C1662 1.356 . S
N1660 H1672 0.984 . S
N1660 H1673 0.985 . S
N1661 C1663 1.359 . S
N1661 H1666 0.983 1_556 S
N1661 H1667 0.983 1_556 S
C1662 C1656 1.379 . S
C1662 C1659 1.363 . S
C1662 N1660 1.356 . S
C1663 C1657 1.363 . S
C1663 C1658 1.379 . S
C1663 N1661 1.359 . S
N1664 C1656 1.356 . S
N1664 H1670 0.984 . S
N1664 H1671 0.984 . S
N1665 C1658 1.356 . S
N1665 H1668 0.984 . S
N1665 H1669 0.985 . S
H1666 N1661 0.983 1_554 S
H1667 N1661 0.983 1_554 S
H1668 N1665 0.984 . S
H1669 N1665 0.985 . S
H1670 N1664 0.984 . S
H1671 N1664 0.984 . S
H1672 N1660 0.984 . S
H1673 N1660 0.985 . S
C1674 C1675 1.363 1_556 S
C1674 C1680 1.379 . S
C1674 N1682 1.356 . S
C1675 C1674 1.363 1_554 S
C1675 C1681 1.363 . S
C1676 C1677 1.363 . S
C1676 C1681 1.379 1_556 S
C1676 N1683 1.356 . S
C1677 C1676 1.363 . S
C1677 C1680 1.363 . S
N1678 C1680 1.356 . S
N1678 H1690 0.984 . S
N1678 H1691 0.985 . S
N1679 C1681 1.356 . S
N1679 H1684 0.984 . S
N1679 H1685 0.985 . S
C1680 C1674 1.379 . S
C1680 C1677 1.363 . S
C1680 N1678 1.356 . S
C1681 C1675 1.363 . S
C1681 C1676 1.379 1_554 S
C1681 N1679 1.356 . S
N1682 C1674 1.356 . S
N1682 H1688 0.984 . S
N1682 H1689 1.009 . S
N1683 C1676 1.356 . S
N1683 H1686 0.984 . S
N1683 H1687 0.985 1_556 S
H1684 N1679 0.984 . S
H1685 N1679 0.985 . S
H1686 N1683 0.984 . S
H1687 N1683 0.985 1_554 S
H1688 N1682 0.984 . S
H1689 N1682 1.009 . S
H1690 N1678 0.984 . S
H1691 N1678 0.985 . S
C1692 C1693 1.363 1_655 S
C1692 C1698 1.379 . S
C1692 N1700 1.356 . S
C1693 C1692 1.363 1_455 S
C1693 C1699 1.363 1_556 S
C1694 C1695 1.363 . S
C1694 C1699 1.379 1_556 S
C1694 N1701 1.356 . S
C1695 C1694 1.363 . S
C1695 C1698 1.363 1_455 S
N1696 C1698 1.356 . S
N1696 H1708 0.984 . S
N1696 H1709 0.985 . S
N1697 C1699 1.356 . S
N1697 H1702 0.984 . S
N1697 H1703 0.985 . S
C1698 C1692 1.379 . S
C1698 C1695 1.363 1_655 S
C1698 N1696 1.356 . S
C1699 C1693 1.363 1_554 S
C1699 C1694 1.379 1_554 S
C1699 N1697 1.356 . S
N1700 C1692 1.356 . S
N1700 H1706 0.984 . S
N1700 H1707 0.984 . S
N1701 C1694 1.356 . S
N1701 H1704 0.984 . S
N1701 H1705 0.985 1_556 S
H1702 N1697 0.984 . S
H1703 N1697 0.985 . S
H1704 N1701 0.984 . S
H1705 N1701 0.985 1_554 S
H1706 N1700 0.984 . S
H1707 N1700 0.984 . S
H1708 N1696 0.984 . S
H1709 N1696 0.985 . S
C1710 C1711 1.363 . S
C1710 C1716 1.379 . S
C1710 N1718 1.356 . S
C1711 C1710 1.363 . S
C1711 C1717 1.363 . S
C1712 C1713 1.363 . S
C1712 C1717 1.379 . S
C1712 N1719 1.356 . S
C1713 C1712 1.363 . S
C1713 C1716 1.363 . S
N1714 C1716 1.356 . S
N1714 H1726 0.984 . S
N1714 H1727 0.985 . S
N1715 C1717 1.356 . S
N1715 H1720 0.984 . S
N1715 H1721 0.985 . S
C1716 C1710 1.379 . S
C1716 C1713 1.363 . S
C1716 N1714 1.356 . S
C1717 C1711 1.363 . S
C1717 C1712 1.379 . S
C1717 N1715 1.356 . S
N1718 C1710 1.356 . S
N1718 H1724 0.984 . S
N1718 H1725 0.984 . S
N1719 C1712 1.356 . S
N1719 H1722 0.984 . S
N1719 H1723 0.985 . S
H1720 N1715 0.984 . S
H1721 N1715 0.985 . S
H1722 N1719 0.984 . S
H1723 N1719 0.985 . S
H1724 N1718 0.984 . S
H1725 N1718 0.984 . S
H1726 N1714 0.984 . S
H1727 N1714 0.985 . S
C1728 C1729 1.363 1_545 S
C1728 C1734 1.379 . S
C1728 N1736 1.356 1_556 S
C1729 C1728 1.363 1_565 S
C1729 C1735 1.363 . S
C1730 C1731 1.397 . S
C1730 C1735 1.379 . S
C1730 N1737 1.356 . S
C1731 C1730 1.397 . S
C1731 C1734 1.350 1_565 S
N1732 C1734 1.356 . S
N1732 H1744 0.984 . S
N1732 H1745 0.985 . S
N1733 C1735 1.356 . S
N1733 H1738 0.984 . S
N1733 H1739 0.985 . S
C1734 C1728 1.379 . S
C1734 C1731 1.350 1_545 S
C1734 N1732 1.356 . S
C1735 C1729 1.363 . S
C1735 C1730 1.379 . S
C1735 N1733 1.356 . S
N1736 C1728 1.356 1_554 S
N1736 H1742 0.984 . S
N1736 H1743 0.984 . S
N1737 C1730 1.356 . S
N1737 H1740 0.984 . S
N1737 H1741 0.985 . S
H1738 N1733 0.984 . S
H1739 N1733 0.985 . S
H1740 N1737 0.984 . S
H1741 N1737 0.985 . S
H1742 N1736 0.984 . S
H1743 N1736 0.984 . S
H1744 N1732 0.984 . S
H1745 N1732 0.985 . S
C1746 C1747 1.363 . S
C1746 C1752 1.379 . S
C1746 N1754 1.356 . S
C1747 C1746 1.363 . S
C1747 C1753 1.363 1_545 S
C1748 C1749 1.363 1_565 S
C1748 C1753 1.379 . S
C1748 N1755 1.356 . S
C1749 C1748 1.363 1_545 S
C1749 C1752 1.363 . S
N1750 C1752 1.356 . S
N1750 H1762 0.984 . S
N1750 H1763 0.985 . S
N1751 C1753 1.356 . S
N1751 H1756 0.984 . S
N1751 H1757 0.985 . S
C1752 C1746 1.379 . S
C1752 C1749 1.363 . S
C1752 N1750 1.356 . S
C1753 C1747 1.363 1_565 S
C1753 C1748 1.379 . S
C1753 N1751 1.356 . S
N1754 C1746 1.356 . S
N1754 H1760 0.984 . S
N1754 H1761 0.984 . S
N1755 C1748 1.356 . S
N1755 H1758 0.984 . S
N1755 H1759 0.985 . S
H1756 N1751 0.984 . S
H1757 N1751 0.985 . S
H1758 N1755 0.984 . S
H1759 N1755 0.985 . S
H1760 N1754 0.984 . S
H1761 N1754 0.984 . S
H1762 N1750 0.984 . S
H1763 N1750 0.985 . S
C1764 C1765 1.363 1_455 S
C1764 C1770 1.379 . S
C1764 N1772 1.356 . S
C1765 C1764 1.363 1_655 S
C1765 C1771 1.363 . S
C1766 C1767 1.363 . S
C1766 C1771 1.379 . S
C1766 N1773 1.356 . S
C1767 C1766 1.363 . S
C1767 C1770 1.363 1_655 S
N1768 C1770 1.356 . S
N1768 H1780 0.984 . S
N1768 H1781 0.985 . S
N1769 C1771 1.356 . S
N1769 H1774 0.984 . S
N1769 H1775 0.985 . S
C1770 C1764 1.379 . S
C1770 C1767 1.363 1_455 S
C1770 N1768 1.356 . S
C1771 C1765 1.363 . S
C1771 C1766 1.379 . S
C1771 N1769 1.356 . S
N1772 C1764 1.356 . S
N1772 H1778 0.984 . S
N1772 H1779 0.984 . S
N1773 C1766 1.356 . S
N1773 H1776 0.984 . S
N1773 H1777 0.985 . S
H1774 N1769 0.984 . S
H1775 N1769 0.985 . S
H1776 N1773 0.984 . S
H1777 N1773 0.985 . S
H1778 N1772 0.984 . S
H1779 N1772 0.984 . S
H1780 N1768 0.984 . S
H1781 N1768 0.985 . S
C1782 C1783 1.363 . S
C1782 C1788 1.379 . S
C1782 N1790 1.356 . S
C1783 C1782 1.363 . S
C1783 C1789 1.363 . S
C1784 C1785 1.363 . S
C1784 C1789 1.379 . S
C1784 N1791 1.356 . S
C1785 C1784 1.363 . S
C1785 C1788 1.363 . S
N1786 C1788 1.356 . S
N1786 H1798 0.984 . S
N1786 H1799 0.985 . S
N1787 C1789 1.356 . S
N1787 H1792 0.984 . S
N1787 H1793 0.985 . S
C1788 C1782 1.379 . S
C1788 C1785 1.363 . S
C1788 N1786 1.356 . S
C1789 C1783 1.363 . S
C1789 C1784 1.379 . S
C1789 N1787 1.356 . S
N1790 C1782 1.356 . S
N1790 H1796 0.984 . S
N1790 H1797 0.984 . S
N1791 C1784 1.356 . S
N1791 H1794 0.984 . S
N1791 H1795 0.985 . S
H1792 N1787 0.984 . S
H1793 N1787 0.985 . S
H1794 N1791 0.984 . S
H1795 N1791 0.985 . S
H1796 N1790 0.984 . S
H1797 N1790 0.984 . S
H1798 N1786 0.984 . S
H1799 N1786 0.985 . S
C1800 C1801 1.363 . S
C1800 C1806 1.379 . S
C1800 N1808 1.356 . S
C1801 C1800 1.363 . S
C1801 C1807 1.363 . S
C1802 C1803 1.363 . S
C1802 C1807 1.379 . S
C1802 N1809 1.356 . S
C1803 C1802 1.363 . S
C1803 C1806 1.363 . S
N1804 C1806 1.356 . S
N1804 H1816 0.984 . S
N1804 H1817 0.985 . S
N1805 C1807 1.356 . S
N1805 H1810 0.984 . S
N1805 H1811 0.985 . S
C1806 C1800 1.379 . S
C1806 C1803 1.363 . S
C1806 N1804 1.356 . S
C1807 C1801 1.363 . S
C1807 C1802 1.379 . S
C1807 N1805 1.356 . S
N1808 C1800 1.356 . S
N1808 H1814 0.984 . S
N1808 H1815 0.984 . S
N1809 C1802 1.356 . S
N1809 H1812 0.984 . S
N1809 H1813 0.985 . S
H1810 N1805 0.984 . S
H1811 N1805 0.985 . S
H1812 N1809 0.984 . S
H1813 N1809 0.985 . S
H1814 N1808 0.984 . S
H1815 N1808 0.984 . S
H1816 N1804 0.984 . S
H1817 N1804 0.985 . S
C1818 C1819 1.363 . S
C1818 C1824 1.379 . S
C1818 N1826 1.356 . S
C1819 C1818 1.363 . S
C1819 C1825 1.363 . S
C1820 C1821 1.363 . S
C1820 C1825 1.379 . S
C1820 N1827 1.356 . S
C1821 C1820 1.363 . S
C1821 C1824 1.363 . S
N1822 C1824 1.356 . S
N1822 H1834 0.984 . S
N1822 H1835 0.985 . S
N1823 C1825 1.356 . S
N1823 H1828 0.984 . S
N1823 H1829 0.985 . S
C1824 C1818 1.379 . S
C1824 C1821 1.363 . S
C1824 N1822 1.356 . S
C1825 C1819 1.363 . S
C1825 C1820 1.379 . S
C1825 N1823 1.356 . S
N1826 C1818 1.356 . S
N1826 H1832 0.984 . S
N1826 H1833 0.984 . S
N1827 C1820 1.356 . S
N1827 H1830 0.984 . S
N1827 H1831 0.985 . S
H1828 N1823 0.984 . S
H1829 N1823 0.985 . S
H1830 N1827 0.984 . S
H1831 N1827 0.985 . S
H1832 N1826 0.984 . S
H1833 N1826 0.984 . S
H1834 N1822 0.984 . S
H1835 N1822 0.985 . S
C1836 C1837 1.363 . S
C1836 C1842 1.379 . S
C1836 N1844 1.356 . S
C1837 C1836 1.363 . S
C1837 C1843 1.363 . S
C1838 C1839 1.363 . S
C1838 C1843 1.379 . S
C1838 N1845 1.356 . S
C1839 C1838 1.363 . S
C1839 C1842 1.363 . S
N1840 C1842 1.356 . S
N1840 H1852 0.984 . S
N1840 H1853 0.985 . S
N1841 C1843 1.356 . S
N1841 H1846 0.984 . S
N1841 H1847 0.985 . S
C1842 C1836 1.379 . S
C1842 C1839 1.363 . S
C1842 N1840 1.356 . S
C1843 C1837 1.363 . S
C1843 C1838 1.379 . S
C1843 N1841 1.356 . S
N1844 C1836 1.356 . S
N1844 H1850 0.984 . S
N1844 H1851 0.984 . S
N1845 C1838 1.356 . S
N1845 H1848 0.984 . S
N1845 H1849 0.985 . S
H1846 N1841 0.984 . S
H1847 N1841 0.985 . S
H1848 N1845 0.984 . S
H1849 N1845 0.985 . S
H1850 N1844 0.984 . S
H1851 N1844 0.984 . S
H1852 N1840 0.984 . S
H1853 N1840 0.985 . S
C1854 C1855 1.363 . S
C1854 C1860 1.379 . S
C1854 N1862 1.356 . S
C1855 C1854 1.363 . S
C1855 C1861 1.363 . S
C1856 C1857 1.363 . S
C1856 C1861 1.379 . S
C1856 N1863 1.356 . S
C1857 C1856 1.363 . S
C1857 C1860 1.363 . S
N1858 C1860 1.356 . S
N1858 H1870 0.984 . S
N1858 H1871 0.985 . S
N1859 C1861 1.356 . S
N1859 H1864 0.984 . S
N1859 H1865 0.985 . S
C1860 C1854 1.379 . S
C1860 C1857 1.363 . S
C1860 N1858 1.356 . S
C1861 C1855 1.363 . S
C1861 C1856 1.379 . S
C1861 N1859 1.356 . S
N1862 C1854 1.356 . S
N1862 H1868 0.984 . S
N1862 H1869 0.984 . S
N1863 C1856 1.356 . S
N1863 H1866 0.984 . S
N1863 H1867 0.985 . S
H1864 N1859 0.984 . S
H1865 N1859 0.985 . S
H1866 N1863 0.984 . S
H1867 N1863 0.985 . S
H1868 N1862 0.984 . S
H1869 N1862 0.984 . S
H1870 N1858 0.984 . S
H1871 N1858 0.985 . S
C1872 C1873 1.363 . S
C1872 C1878 1.379 . S
C1872 N1880 1.356 . S
C1873 C1872 1.363 . S
C1873 C1879 1.363 . S
C1874 C1875 1.363 . S
C1874 C1879 1.379 . S
C1874 N1881 1.356 . S
C1875 C1874 1.363 . S
C1875 C1878 1.363 . S
N1876 C1878 1.356 . S
N1876 H1888 0.984 . S
N1876 H1889 0.985 . S
N1877 C1879 1.356 . S
N1877 H1882 0.984 . S
N1877 H1883 0.985 . S
C1878 C1872 1.379 . S
C1878 C1875 1.363 . S
C1878 N1876 1.356 . S
C1879 C1873 1.363 . S
C1879 C1874 1.379 . S
C1879 N1877 1.356 . S
N1880 C1872 1.356 . S
N1880 H1886 0.984 . S
N1880 H1887 0.984 . S
N1881 C1874 1.356 . S
N1881 H1884 0.984 . S
N1881 H1885 0.985 . S
H1882 N1877 0.984 . S
H1883 N1877 0.985 . S
H1884 N1881 0.984 . S
H1885 N1881 0.985 . S
H1886 N1880 0.984 . S
H1887 N1880 0.984 . S
H1888 N1876 0.984 . S
H1889 N1876 0.985 . S
C1890 C1891 1.363 . S
C1890 C1896 1.379 . S
C1890 N1898 1.356 . S
C1891 C1890 1.363 . S
C1891 C1897 1.363 . S
C1892 C1893 1.363 . S
C1892 C1897 1.379 . S
C1892 N1899 1.356 . S
C1893 C1892 1.363 . S
C1893 C1896 1.363 . S
N1894 C1896 1.356 . S
N1894 H1906 0.984 . S
N1894 H1907 0.985 . S
N1895 C1897 1.356 . S
N1895 H1900 0.984 . S
N1895 H1901 0.985 . S
C1896 C1890 1.379 . S
C1896 C1893 1.363 . S
C1896 N1894 1.356 . S
C1897 C1891 1.363 . S
C1897 C1892 1.379 . S
C1897 N1895 1.356 . S
N1898 C1890 1.356 . S
N1898 H1904 0.984 . S
N1898 H1905 0.984 . S
N1899 C1892 1.356 . S
N1899 H1902 0.984 . S
N1899 H1903 0.985 . S
H1900 N1895 0.984 . S
H1901 N1895 0.985 . S
H1902 N1899 0.984 . S
H1903 N1899 0.985 . S
H1904 N1898 0.984 . S
H1905 N1898 0.984 . S
H1906 N1894 0.984 . S
H1907 N1894 0.985 . S
C1908 C1909 1.363 . S
C1908 C1914 1.379 . S
C1908 N1916 1.356 . S
C1909 C1908 1.363 . S
C1909 C1915 1.363 . S
C1910 C1911 1.363 . S
C1910 C1915 1.379 . S
C1910 N1917 1.356 . S
C1911 C1910 1.363 . S
C1911 C1914 1.363 . S
N1912 C1914 1.356 . S
N1912 H1924 0.984 . S
N1912 H1925 0.985 . S
N1913 C1915 1.356 . S
N1913 H1918 0.984 . S
N1913 H1919 0.985 . S
C1914 C1908 1.379 . S
C1914 C1911 1.363 . S
C1914 N1912 1.356 . S
C1915 C1909 1.363 . S
C1915 C1910 1.379 . S
C1915 N1913 1.356 . S
N1916 C1908 1.356 . S
N1916 H1922 0.984 . S
N1916 H1923 0.984 . S
N1917 C1910 1.356 . S
N1917 H1920 0.984 . S
N1917 H1921 0.985 . S
H1918 N1913 0.984 . S
H1919 N1913 0.985 . S
H1920 N1917 0.984 . S
H1921 N1917 0.985 . S
H1922 N1916 0.984 . S
H1923 N1916 0.984 . S
H1924 N1912 0.984 . S
H1925 N1912 0.985 . S
C1926 C1927 1.363 . S
C1926 C1932 1.379 . S
C1926 N1934 1.356 . S
C1927 C1926 1.363 . S
C1927 C1933 1.363 . S
C1928 C1929 1.363 . S
C1928 C1933 1.379 . S
C1928 N1935 1.356 . S
C1929 C1928 1.363 . S
C1929 C1932 1.363 . S
N1930 C1932 1.356 . S
N1930 H1942 0.984 . S
N1930 H1943 0.985 . S
N1931 C1933 1.356 . S
N1931 H1936 0.984 . S
N1931 H1937 0.985 . S
C1932 C1926 1.379 . S
C1932 C1929 1.363 . S
C1932 N1930 1.356 . S
C1933 C1927 1.363 . S
C1933 C1928 1.379 . S
C1933 N1931 1.356 . S
N1934 C1926 1.356 . S
N1934 H1940 0.984 . S
N1934 H1941 0.984 . S
N1935 C1928 1.356 . S
N1935 H1938 0.984 . S
N1935 H1939 0.985 . S
H1936 N1931 0.984 . S
H1937 N1931 0.985 . S
H1938 N1935 0.984 . S
H1939 N1935 0.985 . S
H1940 N1934 0.984 . S
H1941 N1934 0.984 . S
H1942 N1930 0.984 . S
H1943 N1930 0.985 . S
C1944 C1945 1.363 . S
C1944 C1950 1.379 . S
C1944 N1952 1.356 . S
C1945 C1944 1.363 . S
C1945 C1951 1.363 . S
C1946 C1947 1.363 . S
C1946 C1951 1.379 . S
C1946 N1953 1.356 . S
C1947 C1946 1.363 . S
C1947 C1950 1.363 . S
N1948 C1950 1.356 . S
N1948 H1960 0.984 . S
N1948 H1961 0.985 . S
N1949 C1951 1.356 . S
N1949 H1954 0.984 . S
N1949 H1955 0.985 . S
C1950 C1944 1.379 . S
C1950 C1947 1.363 . S
C1950 N1948 1.356 . S
C1951 C1945 1.363 . S
C1951 C1946 1.379 . S
C1951 N1949 1.356 . S
N1952 C1944 1.356 . S
N1952 H1958 0.984 . S
N1952 H1959 0.984 . S
N1953 C1946 1.356 . S
N1953 H1956 0.984 . S
N1953 H1957 0.985 . S
H1954 N1949 0.984 . S
H1955 N1949 0.985 . S
H1956 N1953 0.984 . S
H1957 N1953 0.985 . S
H1958 N1952 0.984 . S
H1959 N1952 0.984 . S
H1960 N1948 0.984 . S
H1961 N1948 0.985 . S
C1962 C1963 1.363 . S
C1962 C1968 1.379 . S
C1962 N1970 1.356 . S
C1963 C1962 1.363 . S
C1963 C1969 1.363 . S
C1964 C1965 1.363 . S
C1964 C1969 1.379 . S
C1964 N1971 1.356 . S
C1965 C1964 1.363 . S
C1965 C1968 1.363 . S
N1966 C1968 1.356 . S
N1966 H1978 0.984 . S
N1966 H1979 0.985 . S
N1967 C1969 1.356 . S
N1967 H1972 0.984 . S
N1967 H1973 0.985 . S
C1968 C1962 1.379 . S
C1968 C1965 1.363 . S
C1968 N1966 1.356 . S
C1969 C1963 1.363 . S
C1969 C1964 1.379 . S
C1969 N1967 1.356 . S
N1970 C1962 1.356 . S
N1970 H1976 0.984 . S
N1970 H1977 0.984 . S
N1971 C1964 1.356 . S
N1971 H1974 0.984 . S
N1971 H1975 0.985 . S
H1972 N1967 0.984 . S
H1973 N1967 0.985 . S
H1974 N1971 0.984 . S
H1975 N1971 0.985 . S
H1976 N1970 0.984 . S
H1977 N1970 0.984 . S
H1978 N1966 0.984 . S
H1979 N1966 0.985 . S
C1980 C1981 1.363 . S
C1980 C1986 1.379 . S
C1980 N1988 1.356 . S
C1981 C1980 1.363 . S
C1981 C1987 1.363 . S
C1982 C1983 1.363 . S
C1982 C1987 1.379 . S
C1982 N1989 1.356 . S
C1983 C1982 1.363 . S
C1983 C1986 1.363 . S
N1984 C1986 1.356 . S
N1984 H1996 0.984 . S
N1984 H1997 0.985 . S
N1985 C1987 1.356 . S
N1985 H1990 0.984 . S
N1985 H1991 0.985 . S
C1986 C1980 1.379 . S
C1986 C1983 1.363 . S
C1986 N1984 1.356 . S
C1987 C1981 1.363 . S
C1987 C1982 1.379 . S
C1987 N1985 1.356 . S
N1988 C1980 1.356 . S
N1988 H1994 0.984 . S
N1988 H1995 0.984 . S
N1989 C1982 1.356 . S
N1989 H1992 0.984 . S
N1989 H1993 0.985 . S
H1990 N1985 0.984 . S
H1991 N1985 0.985 . S
H1992 N1989 0.984 . S
H1993 N1989 0.985 . S
H1994 N1988 0.984 . S
H1995 N1988 0.984 . S
H1996 N1984 0.984 . S
H1997 N1984 0.985 . S
C1998 C1999 1.363 . S
C1998 C2004 1.379 . S
C1998 N2006 1.356 . S
C1999 C1998 1.363 . S
C1999 C2005 1.363 . S
C2000 C2001 1.363 . S
C2000 C2005 1.379 . S
C2000 N2007 1.356 . S
C2001 C2000 1.363 . S
C2001 C2004 1.363 . S
N2002 C2004 1.356 . S
N2002 H2014 0.984 . S
N2002 H2015 0.985 . S
N2003 C2005 1.356 . S
N2003 H2008 0.984 . S
N2003 H2009 0.985 . S
C2004 C1998 1.379 . S
C2004 C2001 1.363 . S
C2004 N2002 1.356 . S
C2005 C1999 1.363 . S
C2005 C2000 1.379 . S
C2005 N2003 1.356 . S
N2006 C1998 1.356 . S
N2006 H2012 0.984 . S
N2006 H2013 0.984 . S
N2007 C2000 1.356 . S
N2007 H2010 0.984 . S
N2007 H2011 0.985 . S
H2008 N2003 0.984 . S
H2009 N2003 0.985 . S
H2010 N2007 0.984 . S
H2011 N2007 0.985 . S
H2012 N2006 0.984 . S
H2013 N2006 0.984 . S
H2014 N2002 0.984 . S
H2015 N2002 0.985 . S
C2016 C2017 1.363 . S
C2016 C2022 1.379 . S
C2016 N2024 1.356 . S
C2017 C2016 1.363 . S
C2017 C2023 1.363 . S
C2018 C2019 1.363 . S
C2018 C2023 1.379 . S
C2018 N2025 1.356 . S
C2019 C2018 1.363 . S
C2019 C2022 1.363 . S
N2020 C2022 1.356 . S
N2020 H2032 0.984 . S
N2020 H2033 0.985 . S
N2021 C2023 1.356 . S
N2021 H2026 0.984 . S
N2021 H2027 0.985 . S
C2022 C2016 1.379 . S
C2022 C2019 1.363 . S
C2022 N2020 1.356 . S
C2023 C2017 1.363 . S
C2023 C2018 1.379 . S
C2023 N2021 1.356 . S
N2024 C2016 1.356 . S
N2024 H2030 0.984 . S
N2024 H2031 0.984 . S
N2025 C2018 1.356 . S
N2025 H2028 0.984 . S
N2025 H2029 0.985 . S
H2026 N2021 0.984 . S
H2027 N2021 0.985 . S
H2028 N2025 0.984 . S
H2029 N2025 0.985 . S
H2030 N2024 0.984 . S
H2031 N2024 0.984 . S
H2032 N2020 0.984 . S
H2033 N2020 0.985 . S
C2034 C2035 1.363 . S
C2034 C2040 1.379 . S
C2034 N2042 1.356 . S
C2035 C2034 1.363 . S
C2035 C2041 1.363 . S
C2036 C2037 1.363 . S
C2036 C2041 1.379 . S
C2036 N2043 1.356 . S
C2037 C2036 1.363 . S
C2037 C2040 1.363 . S
N2038 C2040 1.356 . S
N2038 H2050 0.984 . S
N2038 H2051 0.985 . S
N2039 C2041 1.356 . S
N2039 H2044 0.984 . S
N2039 H2045 0.985 . S
C2040 C2034 1.379 . S
C2040 C2037 1.363 . S
C2040 N2038 1.356 . S
C2041 C2035 1.363 . S
C2041 C2036 1.379 . S
C2041 N2039 1.356 . S
N2042 C2034 1.356 . S
N2042 H2048 0.984 . S
N2042 H2049 0.984 . S
N2043 C2036 1.356 . S
N2043 H2046 0.984 . S
N2043 H2047 0.985 . S
H2044 N2039 0.984 . S
H2045 N2039 0.985 . S
H2046 N2043 0.984 . S
H2047 N2043 0.985 . S
H2048 N2042 0.984 . S
H2049 N2042 0.984 . S
H2050 N2038 0.984 . S
H2051 N2038 0.985 . S
C2052 C2053 1.363 . S
C2052 C2058 1.379 . S
C2052 N2060 1.356 . S
C2053 C2052 1.363 . S
C2053 C2059 1.363 . S
C2054 C2055 1.363 . S
C2054 C2059 1.379 . S
C2054 N2061 1.356 . S
C2055 C2054 1.363 . S
C2055 C2058 1.363 . S
N2056 C2058 1.356 . S
N2056 H2068 0.984 . S
N2056 H2069 0.985 . S
N2057 C2059 1.356 . S
N2057 H2062 0.984 . S
N2057 H2063 0.985 . S
C2058 C2052 1.379 . S
C2058 C2055 1.363 . S
C2058 N2056 1.356 . S
C2059 C2053 1.363 . S
C2059 C2054 1.379 . S
C2059 N2057 1.356 . S
N2060 C2052 1.356 . S
N2060 H2066 0.984 . S
N2060 H2067 0.984 . S
N2061 C2054 1.356 . S
N2061 H2064 0.984 . S
N2061 H2065 0.985 . S
H2062 N2057 0.984 . S
H2063 N2057 0.985 . S
H2064 N2061 0.984 . S
H2065 N2061 0.985 . S
H2066 N2060 0.984 . S
H2067 N2060 0.984 . S
H2068 N2056 0.984 . S
H2069 N2056 0.985 . S
C2070 C2071 1.363 . S
C2070 C2076 1.379 . S
C2070 N2078 1.356 . S
C2071 C2070 1.363 . S
C2071 C2077 1.363 . S
C2072 C2073 1.363 . S
C2072 C2077 1.379 . S
C2072 N2079 1.356 . S
C2073 C2072 1.363 . S
C2073 C2076 1.363 . S
N2074 C2076 1.356 . S
N2074 H2086 0.984 . S
N2074 H2087 0.985 . S
N2075 C2077 1.356 . S
N2075 H2080 0.984 . S
N2075 H2081 0.985 . S
C2076 C2070 1.379 . S
C2076 C2073 1.363 . S
C2076 N2074 1.356 . S
C2077 C2071 1.363 . S
C2077 C2072 1.379 . S
C2077 N2075 1.356 . S
N2078 C2070 1.356 . S
N2078 H2084 0.984 . S
N2078 H2085 0.984 . S
N2079 C2072 1.356 . S
N2079 H2082 0.984 . S
N2079 H2083 0.985 . S
H2080 N2075 0.984 . S
H2081 N2075 0.985 . S
H2082 N2079 0.984 . S
H2083 N2079 0.985 . S
H2084 N2078 0.984 . S
H2085 N2078 0.984 . S
H2086 N2074 0.984 . S
H2087 N2074 0.985 . S
C2088 C2089 1.363 . S
C2088 C2094 1.379 . S
C2088 N2096 1.356 . S
C2089 C2088 1.363 . S
C2089 C2095 1.363 . S
C2090 C2091 1.363 . S
C2090 C2095 1.379 . S
C2090 N2097 1.356 . S
C2091 C2090 1.363 . S
C2091 C2094 1.363 . S
N2092 C2094 1.356 . S
N2092 H2104 0.984 . S
N2092 H2105 0.985 . S
N2093 C2095 1.356 . S
N2093 H2098 0.984 . S
N2093 H2099 0.985 . S
C2094 C2088 1.379 . S
C2094 C2091 1.363 . S
C2094 N2092 1.356 . S
C2095 C2089 1.363 . S
C2095 C2090 1.379 . S
C2095 N2093 1.356 . S
N2096 C2088 1.356 . S
N2096 H2102 0.984 . S
N2096 H2103 0.984 . S
N2097 C2090 1.356 . S
N2097 H2100 0.984 . S
N2097 H2101 0.985 . S
H2098 N2093 0.984 . S
H2099 N2093 0.985 . S
H2100 N2097 0.984 . S
H2101 N2097 0.985 . S
H2102 N2096 0.984 . S
H2103 N2096 0.984 . S
H2104 N2092 0.984 . S
H2105 N2092 0.985 . S
C2106 C2107 1.363 . S
C2106 C2112 1.379 . S
C2106 N2114 1.356 . S
C2107 C2106 1.363 . S
C2107 C2113 1.363 . S
C2108 C2109 1.363 . S
C2108 C2113 1.379 . S
C2108 N2115 1.356 . S
C2109 C2108 1.363 . S
C2109 C2112 1.363 . S
N2110 C2112 1.356 . S
N2110 H2122 0.984 . S
N2110 H2123 0.985 . S
N2111 C2113 1.356 . S
N2111 H2116 0.984 . S
N2111 H2117 0.985 . S
C2112 C2106 1.379 . S
C2112 C2109 1.363 . S
C2112 N2110 1.356 . S
C2113 C2107 1.363 . S
C2113 C2108 1.379 . S
C2113 N2111 1.356 . S
N2114 C2106 1.356 . S
N2114 H2120 0.984 . S
N2114 H2121 0.984 . S
N2115 C2108 1.356 . S
N2115 H2118 0.984 . S
N2115 H2119 0.985 . S
H2116 N2111 0.984 . S
H2117 N2111 0.985 . S
H2118 N2115 0.984 . S
H2119 N2115 0.985 . S
H2120 N2114 0.984 . S
H2121 N2114 0.984 . S
H2122 N2110 0.984 . S
H2123 N2110 0.985 . S
C2124 C2125 1.363 . S
C2124 C2130 1.379 . S
C2124 N2132 1.356 . S
C2125 C2124 1.363 . S
C2125 C2131 1.363 . S
C2126 C2127 1.363 . S
C2126 C2131 1.379 . S
C2126 N2133 1.356 . S
C2127 C2126 1.363 . S
C2127 C2130 1.363 . S
N2128 C2130 1.356 . S
N2128 H2140 0.984 . S
N2128 H2141 0.985 . S
N2129 C2131 1.356 . S
N2129 H2134 0.984 . S
N2129 H2135 0.985 . S
C2130 C2124 1.379 . S
C2130 C2127 1.363 . S
C2130 N2128 1.356 . S
C2131 C2125 1.363 . S
C2131 C2126 1.379 . S
C2131 N2129 1.356 . S
N2132 C2124 1.356 . S
N2132 H2138 0.984 . S
N2132 H2139 0.984 . S
N2133 C2126 1.356 . S
N2133 H2136 0.984 . S
N2133 H2137 0.985 . S
H2134 N2129 0.984 . S
H2135 N2129 0.985 . S
H2136 N2133 0.984 . S
H2137 N2133 0.985 . S
H2138 N2132 0.984 . S
H2139 N2132 0.984 . S
H2140 N2128 0.984 . S
H2141 N2128 0.985 . S
C2142 C2143 1.363 . S
C2142 C2148 1.379 . S
C2142 N2150 1.356 . S
C2143 C2142 1.363 . S
C2143 C2149 1.363 . S
C2144 C2145 1.363 . S
C2144 C2149 1.379 . S
C2144 N2151 1.356 . S
C2145 C2144 1.363 . S
C2145 C2148 1.363 . S
N2146 C2148 1.356 . S
N2146 H2158 0.984 . S
N2146 H2159 0.985 . S
N2147 C2149 1.356 . S
N2147 H2152 0.984 . S
N2147 H2153 0.985 . S
C2148 C2142 1.379 . S
C2148 C2145 1.363 . S
C2148 N2146 1.356 . S
C2149 C2143 1.363 . S
C2149 C2144 1.379 . S
C2149 N2147 1.356 . S
N2150 C2142 1.356 . S
N2150 H2156 0.984 . S
N2150 H2157 0.984 . S
N2151 C2144 1.356 . S
N2151 H2154 0.984 . S
N2151 H2155 0.985 . S
H2152 N2147 0.984 . S
H2153 N2147 0.985 . S
H2154 N2151 0.984 . S
H2155 N2151 0.985 . S
H2156 N2150 0.984 . S
H2157 N2150 0.984 . S
H2158 N2146 0.984 . S
H2159 N2146 0.985 . S
C2160 C2161 1.363 . S
C2160 C2166 1.379 . S
C2160 N2168 1.356 . S
C2161 C2160 1.363 . S
C2161 C2167 1.363 . S
C2162 C2163 1.363 . S
C2162 C2167 1.379 . S
C2162 N2169 1.356 . S
C2163 C2162 1.363 . S
C2163 C2166 1.363 . S
N2164 C2166 1.356 . S
N2164 H2176 0.984 . S
N2164 H2177 0.985 . S
N2165 C2167 1.356 . S
N2165 H2170 0.984 . S
N2165 H2171 0.985 . S
C2166 C2160 1.379 . S
C2166 C2163 1.363 . S
C2166 N2164 1.356 . S
C2167 C2161 1.363 . S
C2167 C2162 1.379 . S
C2167 N2165 1.356 . S
N2168 C2160 1.356 . S
N2168 H2174 0.984 . S
N2168 H2175 0.984 . S
N2169 C2162 1.356 . S
N2169 H2172 0.984 . S
N2169 H2173 0.985 . S
H2170 N2165 0.984 . S
H2171 N2165 0.985 . S
H2172 N2169 0.984 . S
H2173 N2169 0.985 . S
H2174 N2168 0.984 . S
H2175 N2168 0.984 . S
H2176 N2164 0.984 . S
H2177 N2164 0.985 . S
C2178 C2179 1.363 . S
C2178 C2184 1.379 . S
C2178 N2186 1.356 . S
C2179 C2178 1.363 . S
C2179 C2185 1.363 . S
C2180 C2181 1.363 . S
C2180 C2185 1.379 . S
C2180 N2187 1.356 . S
C2181 C2180 1.363 . S
C2181 C2184 1.363 . S
N2182 C2184 1.356 . S
N2182 H2194 0.984 . S
N2182 H2195 0.985 . S
N2183 C2185 1.356 . S
N2183 H2188 0.984 . S
N2183 H2189 0.985 . S
C2184 C2178 1.379 . S
C2184 C2181 1.363 . S
C2184 N2182 1.356 . S
C2185 C2179 1.363 . S
C2185 C2180 1.379 . S
C2185 N2183 1.356 . S
N2186 C2178 1.356 . S
N2186 H2192 0.984 . S
N2186 H2193 0.984 . S
N2187 C2180 1.356 . S
N2187 H2190 0.984 . S
N2187 H2191 0.985 . S
H2188 N2183 0.984 . S
H2189 N2183 0.985 . S
H2190 N2187 0.984 . S
H2191 N2187 0.985 . S
H2192 N2186 0.984 . S
H2193 N2186 0.984 . S
H2194 N2182 0.984 . S
H2195 N2182 0.985 . S
C2196 C2197 1.363 . S
C2196 C2202 1.379 . S
C2196 N2204 1.356 . S
C2197 C2196 1.363 . S
C2197 C2203 1.363 . S
C2198 C2199 1.363 . S
C2198 C2203 1.379 . S
C2198 N2205 1.356 . S
C2199 C2198 1.363 . S
C2199 C2202 1.363 . S
N2200 C2202 1.356 . S
N2200 H2212 0.984 . S
N2200 H2213 0.985 . S
N2201 C2203 1.356 . S
N2201 H2206 0.984 . S
N2201 H2207 0.985 . S
C2202 C2196 1.379 . S
C2202 C2199 1.363 . S
C2202 N2200 1.356 . S
C2203 C2197 1.363 . S
C2203 C2198 1.379 . S
C2203 N2201 1.356 . S
N2204 C2196 1.356 . S
N2204 H2210 0.984 . S
N2204 H2211 0.984 . S
N2205 C2198 1.356 . S
N2205 H2208 0.984 . S
N2205 H2209 0.985 . S
H2206 N2201 0.984 . S
H2207 N2201 0.985 . S
H2208 N2205 0.984 . S
H2209 N2205 0.985 . S
H2210 N2204 0.984 . S
H2211 N2204 0.984 . S
H2212 N2200 0.984 . S
H2213 N2200 0.985 . S
C2214 C2215 1.363 . S
C2214 C2220 1.379 . S
C2214 N2222 1.356 . S
C2215 C2214 1.363 . S
C2215 C2221 1.363 . S
C2216 C2217 1.363 . S
C2216 C2221 1.379 . S
C2216 N2223 1.356 . S
C2217 C2216 1.363 . S
C2217 C2220 1.363 . S
N2218 C2220 1.356 . S
N2218 H2230 0.984 . S
N2218 H2231 0.985 . S
N2219 C2221 1.356 . S
N2219 H2224 0.984 . S
N2219 H2225 0.985 . S
C2220 C2214 1.379 . S
C2220 C2217 1.363 . S
C2220 N2218 1.356 . S
C2221 C2215 1.363 . S
C2221 C2216 1.379 . S
C2221 N2219 1.356 . S
N2222 C2214 1.356 . S
N2222 H2228 0.984 . S
N2222 H2229 0.984 . S
N2223 C2216 1.356 . S
N2223 H2226 0.984 . S
N2223 H2227 0.985 . S
H2224 N2219 0.984 . S
H2225 N2219 0.985 . S
H2226 N2223 0.984 . S
H2227 N2223 0.985 . S
H2228 N2222 0.984 . S
H2229 N2222 0.984 . S
H2230 N2218 0.984 . S
H2231 N2218 0.985 . S
C2232 C2233 1.363 . S
C2232 C2238 1.379 . S
C2232 N2240 1.356 . S
C2233 C2232 1.363 . S
C2233 C2239 1.363 . S
C2234 C2235 1.363 . S
C2234 C2239 1.379 . S
C2234 N2241 1.356 . S
C2235 C2234 1.363 . S
C2235 C2238 1.363 . S
N2236 C2238 1.356 . S
N2236 H2248 0.984 . S
N2236 H2249 0.985 . S
N2237 C2239 1.356 . S
N2237 H2242 0.984 . S
N2237 H2243 0.985 . S
C2238 C2232 1.379 . S
C2238 C2235 1.363 . S
C2238 N2236 1.356 . S
C2239 C2233 1.363 . S
C2239 C2234 1.379 . S
C2239 N2237 1.356 . S
N2240 C2232 1.356 . S
N2240 H2246 0.984 . S
N2240 H2247 0.984 . S
N2241 C2234 1.356 . S
N2241 H2244 0.984 . S
N2241 H2245 0.985 . S
H2242 N2237 0.984 . S
H2243 N2237 0.985 . S
H2244 N2241 0.984 . S
H2245 N2241 0.985 . S
H2246 N2240 0.984 . S
H2247 N2240 0.984 . S
H2248 N2236 0.984 . S
H2249 N2236 0.985 . S
C2250 C2251 1.363 . S
C2250 C2256 1.379 . S
C2250 N2258 1.356 . S
C2251 C2250 1.363 . S
C2251 C2257 1.363 . S
C2252 C2253 1.363 . S
C2252 C2257 1.379 . S
C2252 N2259 1.356 . S
C2253 C2252 1.363 . S
C2253 C2256 1.363 . S
N2254 C2256 1.356 . S
N2254 H2266 0.984 . S
N2254 H2267 0.985 . S
N2255 C2257 1.356 . S
N2255 H2260 0.984 . S
N2255 H2261 0.985 . S
C2256 C2250 1.379 . S
C2256 C2253 1.363 . S
C2256 N2254 1.356 . S
C2257 C2251 1.363 . S
C2257 C2252 1.379 . S
C2257 N2255 1.356 . S
N2258 C2250 1.356 . S
N2258 H2264 0.984 . S
N2258 H2265 0.984 . S
N2259 C2252 1.356 . S
N2259 H2262 0.984 . S
N2259 H2263 0.985 . S
H2260 N2255 0.984 . S
H2261 N2255 0.985 . S
H2262 N2259 0.984 . S
H2263 N2259 0.985 . S
H2264 N2258 0.984 . S
H2265 N2258 0.984 . S
H2266 N2254 0.984 . S
H2267 N2254 0.985 . S
C2268 C2269 1.363 . S
C2268 C2274 1.379 . S
C2268 N2276 1.356 . S
C2269 C2268 1.363 . S
C2269 C2275 1.363 . S
C2270 C2271 1.363 . S
C2270 C2275 1.379 . S
C2270 N2277 1.356 . S
C2271 C2270 1.363 . S
C2271 C2274 1.363 . S
N2272 C2274 1.356 . S
N2272 H2284 0.984 . S
N2272 H2285 0.985 . S
N2273 C2275 1.356 . S
N2273 H2278 0.984 . S
N2273 H2279 0.985 . S
C2274 C2268 1.379 . S
C2274 C2271 1.363 . S
C2274 N2272 1.356 . S
C2275 C2269 1.363 . S
C2275 C2270 1.379 . S
C2275 N2273 1.356 . S
N2276 C2268 1.356 . S
N2276 H2282 0.984 1_565 S
N2276 H2283 0.984 . S
N2277 C2270 1.356 . S
N2277 H2280 0.984 . S
N2277 H2281 0.985 . S
H2278 N2273 0.984 . S
H2279 N2273 0.985 . S
H2280 N2277 0.984 . S
H2281 N2277 0.985 . S
H2282 N2276 0.984 1_545 S
H2283 N2276 0.984 . S
H2284 N2272 0.984 . S
H2285 N2272 0.985 . S
C2286 C2287 1.363 1_554 S
C2286 C2292 1.379 . S
C2286 N2294 1.356 . S
C2287 C2286 1.363 1_556 S
C2287 C2293 1.363 . S
C2288 C2289 1.363 . S
C2288 C2293 1.379 . S
C2288 N2295 1.356 . S
C2289 C2288 1.363 . S
C2289 C2292 1.363 1_556 S
N2290 C2292 1.356 . S
N2290 H2302 0.984 . S
N2290 H2303 0.985 . S
N2291 C2293 1.356 . S
N2291 H2296 0.984 . S
N2291 H2297 0.985 . S
C2292 C2286 1.379 . S
C2292 C2289 1.363 1_554 S
C2292 N2290 1.356 . S
C2293 C2287 1.363 . S
C2293 C2288 1.379 . S
C2293 N2291 1.356 . S
N2294 C2286 1.356 . S
N2294 H2300 0.984 . S
N2294 H2301 0.984 . S
N2295 C2288 1.356 . S
N2295 H2298 0.984 . S
N2295 H2299 0.985 . S
H2296 N2291 0.984 . S
H2297 N2291 0.985 . S
H2298 N2295 0.984 . S
H2299 N2295 0.985 . S
H2300 N2294 0.984 . S
H2301 N2294 0.984 . S
H2302 N2290 0.984 . S
H2303 N2290 0.985 . S
C2304 C2305 1.363 . S
C2304 C2310 1.379 . S
C2304 N2312 1.356 . S
C2305 C2304 1.363 . S
C2305 C2311 1.363 . S
C2306 C2307 1.363 . S
C2306 C2311 1.379 . S
C2306 N2313 1.356 . S
C2307 C2306 1.363 . S
C2307 C2310 1.363 . S
N2308 C2310 1.356 . S
N2308 H2320 0.984 . S
N2308 H2321 0.985 . S
N2309 C2311 1.356 1_554 S
N2309 H2314 0.984 . S
N2309 H2315 0.985 . S
C2310 C2304 1.379 . S
C2310 C2307 1.363 . S
C2310 N2308 1.356 . S
C2311 C2305 1.363 . S
C2311 C2306 1.379 . S
C2311 N2309 1.356 1_556 S
N2312 C2304 1.356 . S
N2312 H2318 0.984 . S
N2312 H2319 0.984 . S
N2313 C2306 1.356 . S
N2313 H2316 0.984 . S
N2313 H2317 0.995 . S
H2314 N2309 0.984 . S
H2315 N2309 0.985 . S
H2316 N2313 0.984 . S
H2317 N2313 0.995 . S
H2318 N2312 0.984 . S
H2319 N2312 0.984 . S
H2320 N2308 0.984 . S
H2321 N2308 0.985 . S
C2322 C2323 1.363 . S
C2322 C2328 1.379 . S
C2322 N2330 1.356 . S
C2323 C2322 1.363 . S
C2323 C2329 1.363 . S
C2324 C2325 1.363 . S
C2324 C2329 1.379 . S
C2324 N2331 1.356 . S
C2325 C2324 1.363 . S
C2325 C2328 1.363 . S
N2326 C2328 1.356 . S
N2326 H2338 0.984 . S
N2326 H2339 0.985 . S
N2327 C2329 1.356 . S
N2327 H2332 0.984 . S
N2327 H2333 0.985 . S
C2328 C2322 1.379 . S
C2328 C2325 1.363 . S
C2328 N2326 1.356 . S
C2329 C2323 1.363 . S
C2329 C2324 1.379 . S
C2329 N2327 1.356 . S
N2330 C2322 1.356 . S
N2330 H2336 0.984 . S
N2330 H2337 0.984 . S
N2331 C2324 1.356 . S
N2331 H2334 0.984 . S
N2331 H2335 0.985 . S
H2332 N2327 0.984 . S
H2333 N2327 0.985 . S
H2334 N2331 0.984 . S
H2335 N2331 0.985 . S
H2336 N2330 0.984 . S
H2337 N2330 0.984 . S
H2338 N2326 0.984 . S
H2339 N2326 0.985 . S
C2340 C2341 1.325 1_556 S
C2340 C2346 1.379 . S
C2340 N2348 1.356 . S
C2341 C2340 1.325 1_554 S
C2341 C2347 1.377 . S
C2342 C2343 1.363 . S
C2342 C2347 1.379 1_556 S
C2342 N2349 1.356 1_556 S
C2343 C2342 1.363 . S
C2343 C2346 1.363 . S
N2344 C2346 1.356 . S
N2344 H2356 0.984 . S
N2344 H2357 0.985 . S
N2345 C2347 1.356 . S
N2345 H2350 0.984 . S
N2345 H2351 0.985 . S
C2346 C2340 1.379 . S
C2346 C2343 1.363 . S
C2346 N2344 1.356 . S
C2347 C2341 1.377 . S
C2347 C2342 1.379 1_554 S
C2347 N2345 1.356 . S
N2348 C2340 1.356 . S
N2348 H2354 0.984 . S
N2348 H2355 0.984 . S
N2349 C2342 1.356 1_554 S
N2349 H2352 0.980 1_554 S
N2349 H2353 0.990 . S
H2350 N2345 0.984 . S
H2351 N2345 0.985 . S
H2352 N2349 0.980 1_556 S
H2353 N2349 0.990 . S
H2354 N2348 0.984 . S
H2355 N2348 0.984 . S
H2356 N2344 0.984 . S
H2357 N2344 0.985 . S
C2358 C2359 1.363 . S
C2358 C2364 1.379 . S
C2358 N2366 1.356 . S
C2359 C2358 1.363 . S
C2359 C2365 1.363 . S
C2360 C2361 1.363 . S
C2360 C2365 1.379 . S
C2360 N2367 1.356 . S
C2361 C2360 1.363 . S
C2361 C2364 1.363 . S
N2362 C2364 1.356 . S
N2362 H2374 0.984 . S
N2362 H2375 0.985 . S
N2363 C2365 1.356 . S
N2363 H2368 0.983 1_556 S
N2363 H2369 0.985 1_556 S
C2364 C2358 1.379 . S
C2364 C2361 1.363 . S
C2364 N2362 1.356 . S
C2365 C2359 1.363 . S
C2365 C2360 1.379 . S
C2365 N2363 1.356 . S
N2366 C2358 1.356 . S
N2366 H2372 0.984 . S
N2366 H2373 0.984 . S
N2367 C2360 1.356 . S
N2367 H2370 0.984 . S
N2367 H2371 0.985 . S
H2368 N2363 0.983 1_554 S
H2369 N2363 0.985 1_554 S
H2370 N2367 0.984 . S
H2371 N2367 0.985 . S
H2372 N2366 0.984 . S
H2373 N2366 0.984 . S
H2374 N2362 0.984 . S
H2375 N2362 0.985 . S
C2376 C2377 1.363 . S
C2376 C2382 1.379 1_554 S
C2376 N2384 1.356 . S
C2377 C2376 1.363 . S
C2377 C2383 1.363 . S
C2378 C2379 1.363 1_554 S
C2378 C2383 1.379 . S
C2378 N2385 1.356 . S
C2379 C2378 1.363 1_556 S
C2379 C2382 1.363 . S
N2380 C2382 1.356 . S
N2380 H2392 0.984 . S
N2380 H2393 0.985 . S
N2381 C2383 1.356 . S
N2381 H2386 0.984 . S
N2381 H2387 0.985 1_545 S
C2382 C2376 1.379 1_556 S
C2382 C2379 1.363 . S
C2382 N2380 1.356 . S
C2383 C2377 1.363 . S
C2383 C2378 1.379 . S
C2383 N2381 1.356 . S
N2384 C2376 1.356 . S
N2384 H2390 0.984 1_554 S
N2384 H2391 0.984 . S
N2385 C2378 1.356 . S
N2385 H2388 0.984 . S
N2385 H2389 0.985 . S
H2386 N2381 0.984 . S
H2387 N2381 0.985 1_565 S
H2388 N2385 0.984 . S
H2389 N2385 0.985 . S
H2390 N2384 0.984 1_556 S
H2391 N2384 0.984 . S
H2392 N2380 0.984 . S
H2393 N2380 0.985 . S
C2394 C2395 1.363 . S
C2394 C2400 1.379 . S
C2394 N2402 1.356 . S
C2395 C2394 1.363 . S
C2395 C2401 1.363 . S
C2396 C2397 1.363 . S
C2396 C2401 1.379 . S
C2396 N2403 1.356 . S
C2397 C2396 1.363 . S
C2397 C2400 1.363 . S
N2398 C2400 1.356 . S
N2398 H2410 0.984 . S
N2398 H2411 0.985 . S
N2399 C2401 1.356 . S
N2399 H2404 0.984 . S
N2399 H2405 0.985 . S
C2400 C2394 1.379 . S
C2400 C2397 1.363 . S
C2400 N2398 1.356 . S
C2401 C2395 1.363 . S
C2401 C2396 1.379 . S
C2401 N2399 1.356 . S
N2402 C2394 1.356 . S
N2402 H2408 0.984 . S
N2402 H2409 0.984 . S
N2403 C2396 1.356 . S
N2403 H2406 0.984 . S
N2403 H2407 0.985 . S
H2404 N2399 0.984 . S
H2405 N2399 0.985 . S
H2406 N2403 0.984 . S
H2407 N2403 0.985 . S
H2408 N2402 0.984 . S
H2409 N2402 0.984 . S
H2410 N2398 0.984 . S
H2411 N2398 0.985 . S
C2412 C2413 1.363 . S
C2412 C2418 1.379 . S
C2412 N2420 1.356 . S
C2413 C2412 1.363 . S
C2413 C2419 1.363 . S
C2414 C2415 1.363 . S
C2414 C2419 1.379 . S
C2414 N2421 1.356 . S
C2415 C2414 1.363 . S
C2415 C2418 1.363 . S
N2416 C2418 1.356 . S
N2416 H2428 0.984 . S
N2416 H2429 0.985 . S
N2417 C2419 1.356 . S
N2417 H2422 0.984 . S
N2417 H2423 0.985 . S
C2418 C2412 1.379 . S
C2418 C2415 1.363 . S
C2418 N2416 1.356 . S
C2419 C2413 1.363 . S
C2419 C2414 1.379 . S
C2419 N2417 1.356 . S
N2420 C2412 1.356 . S
N2420 H2426 0.984 . S
N2420 H2427 0.984 . S
N2421 C2414 1.356 . S
N2421 H2424 0.984 . S
N2421 H2425 0.985 . S
H2422 N2417 0.984 . S
H2423 N2417 0.985 . S
H2424 N2421 0.984 . S
H2425 N2421 0.985 . S
H2426 N2420 0.984 . S
H2427 N2420 0.984 . S
H2428 N2416 0.984 . S
H2429 N2416 0.985 . S
C2430 C2431 1.363 . S
C2430 C2436 1.379 . S
C2430 N2438 1.356 . S
C2431 C2430 1.363 . S
C2431 C2437 1.363 . S
C2432 C2433 1.363 . S
C2432 C2437 1.379 . S
C2432 N2439 1.356 . S
C2433 C2432 1.363 . S
C2433 C2436 1.363 . S
N2434 C2436 1.356 . S
N2434 H2446 0.984 . S
N2434 H2447 0.985 . S
N2435 C2437 1.356 . S
N2435 H2440 0.984 . S
N2435 H2441 0.985 . S
C2436 C2430 1.379 . S
C2436 C2433 1.363 . S
C2436 N2434 1.356 . S
C2437 C2431 1.363 . S
C2437 C2432 1.379 . S
C2437 N2435 1.356 . S
N2438 C2430 1.356 . S
N2438 H2444 0.984 1_554 S
N2438 H2445 0.984 . S
N2439 C2432 1.356 . S
N2439 H2442 0.984 . S
N2439 H2443 0.985 . S
H2440 N2435 0.984 . S
H2441 N2435 0.985 . S
H2442 N2439 0.984 . S
H2443 N2439 0.985 . S
H2444 N2438 0.984 1_556 S
H2445 N2438 0.984 . S
H2446 N2434 0.984 . S
H2447 N2434 0.985 . S
C2448 C2449 1.363 . S
C2448 C2454 1.379 . S
C2448 N2456 1.356 . S
C2449 C2448 1.363 . S
C2449 C2455 1.363 . S
C2450 C2451 1.363 . S
C2450 C2455 1.379 . S
C2450 N2457 1.356 . S
C2451 C2450 1.363 . S
C2451 C2454 1.363 . S
N2452 C2454 1.356 . S
N2452 H2464 0.984 . S
N2452 H2465 0.985 . S
N2453 C2455 1.356 . S
N2453 H2458 0.984 . S
N2453 H2459 0.985 . S
C2454 C2448 1.379 . S
C2454 C2451 1.363 . S
C2454 N2452 1.356 . S
C2455 C2449 1.363 . S
C2455 C2450 1.379 . S
C2455 N2453 1.356 . S
N2456 C2448 1.356 . S
N2456 H2462 0.984 . S
N2456 H2463 0.984 . S
N2457 C2450 1.356 . S
N2457 H2460 0.984 . S
N2457 H2461 0.985 . S
H2458 N2453 0.984 . S
H2459 N2453 0.985 . S
H2460 N2457 0.984 . S
H2461 N2457 0.985 . S
H2462 N2456 0.984 . S
H2463 N2456 0.984 . S
H2464 N2452 0.984 . S
H2465 N2452 0.985 . S
C2466 C2467 1.363 . S
C2466 C2472 1.379 . S
C2466 N2474 1.356 . S
C2467 C2466 1.363 . S
C2467 C2473 1.363 . S
C2468 C2469 1.363 . S
C2468 C2473 1.379 . S
C2468 N2475 1.356 . S
C2469 C2468 1.363 . S
C2469 C2472 1.363 . S
N2470 C2472 1.356 . S
N2470 H2482 0.984 . S
N2470 H2483 0.985 . S
N2471 C2473 1.356 . S
N2471 H2476 0.984 1_545 S
N2471 H2477 0.985 . S
C2472 C2466 1.379 . S
C2472 C2469 1.363 . S
C2472 N2470 1.356 . S
C2473 C2467 1.363 . S
C2473 C2468 1.379 . S
C2473 N2471 1.356 . S
N2474 C2466 1.356 . S
N2474 H2480 0.984 . S
N2474 H2481 0.984 . S
N2475 C2468 1.356 . S
N2475 H2478 0.984 . S
N2475 H2479 0.985 . S
H2476 N2471 0.984 1_565 S
H2477 N2471 0.985 . S
H2478 N2475 0.984 . S
H2479 N2475 0.985 . S
H2480 N2474 0.984 . S
H2481 N2474 0.984 . S
H2482 N2470 0.984 . S
H2483 N2470 0.985 . S
C2484 C2485 1.363 . S
C2484 C2490 1.379 . S
C2484 N2492 1.356 . S
C2485 C2484 1.363 . S
C2485 C2491 1.363 . S
C2486 C2487 1.363 . S
C2486 C2491 1.379 . S
C2486 N2493 1.356 . S
C2487 C2486 1.363 . S
C2487 C2490 1.363 . S
N2488 C2490 1.356 . S
N2488 H2500 0.984 . S
N2488 H2501 0.985 . S
N2489 C2491 1.356 1_455 S
N2489 H2494 0.984 . S
N2489 H2495 0.985 . S
C2490 C2484 1.379 . S
C2490 C2487 1.363 . S
C2490 N2488 1.356 . S
C2491 C2485 1.363 . S
C2491 C2486 1.379 . S
C2491 N2489 1.356 1_655 S
N2492 C2484 1.356 . S
N2492 H2498 0.984 . S
N2492 H2499 0.984 . S
N2493 C2486 1.356 . S
N2493 H2496 0.984 . S
N2493 H2497 0.985 . S
H2494 N2489 0.984 . S
H2495 N2489 0.985 . S
H2496 N2493 0.984 . S
H2497 N2493 0.985 . S
H2498 N2492 0.984 . S
H2499 N2492 0.984 . S
H2500 N2488 0.984 . S
H2501 N2488 0.985 . S
C2502 C2503 1.363 . S
C2502 C2508 1.379 . S
C2502 N2510 1.356 . S
C2503 C2502 1.363 . S
C2503 C2509 1.363 . S
C2504 C2505 1.363 . S
C2504 C2509 1.379 . S
C2504 N2511 1.356 . S
C2505 C2504 1.363 . S
C2505 C2508 1.363 . S
N2506 C2508 1.356 . S
N2506 H2518 0.984 . S
N2506 H2519 0.985 . S
N2507 C2509 1.356 . S
N2507 H2512 0.984 . S
N2507 H2513 0.985 . S
C2508 C2502 1.379 . S
C2508 C2505 1.363 . S
C2508 N2506 1.356 . S
C2509 C2503 1.363 . S
C2509 C2504 1.379 . S
C2509 N2507 1.356 . S
N2510 C2502 1.356 . S
N2510 H2516 0.984 . S
N2510 H2517 0.984 . S
N2511 C2504 1.356 . S
N2511 H2514 0.984 . S
N2511 H2515 0.985 . S
H2512 N2507 0.984 . S
H2513 N2507 0.985 . S
H2514 N2511 0.984 . S
H2515 N2511 0.985 . S
H2516 N2510 0.984 . S
H2517 N2510 0.984 . S
H2518 N2506 0.984 . S
H2519 N2506 0.985 . S
C2520 C2521 1.363 . S
C2520 C2526 1.379 . S
C2520 N2528 1.356 . S
C2521 C2520 1.363 . S
C2521 C2527 1.363 . S
C2522 C2523 1.363 . S
C2522 C2527 1.379 . S
C2522 N2529 1.356 . S
C2523 C2522 1.363 . S
C2523 C2526 1.363 . S
N2524 C2526 1.356 . S
N2524 H2536 0.984 . S
N2524 H2537 0.985 . S
N2525 C2527 1.356 . S
N2525 H2530 0.984 . S
N2525 H2531 0.985 . S
C2526 C2520 1.379 . S
C2526 C2523 1.363 . S
C2526 N2524 1.356 . S
C2527 C2521 1.363 . S
C2527 C2522 1.379 . S
C2527 N2525 1.356 . S
N2528 C2520 1.356 . S
N2528 H2534 0.984 . S
N2528 H2535 0.984 . S
N2529 C2522 1.356 . S
N2529 H2532 0.984 . S
N2529 H2533 0.985 . S
H2530 N2525 0.984 . S
H2531 N2525 0.985 . S
H2532 N2529 0.984 . S
H2533 N2529 0.985 . S
H2534 N2528 0.984 . S
H2535 N2528 0.984 . S
H2536 N2524 0.984 . S
H2537 N2524 0.985 . S
C2538 C2539 1.363 . S
C2538 C2544 1.379 . S
C2538 N2546 1.356 . S
C2539 C2538 1.363 . S
C2539 C2545 1.363 . S
C2540 C2541 1.363 . S
C2540 C2545 1.379 . S
C2540 N2547 1.356 . S
C2541 C2540 1.363 . S
C2541 C2544 1.363 . S
N2542 C2544 1.356 . S
N2542 H2554 0.984 . S
N2542 H2555 0.985 . S
N2543 C2545 1.356 . S
N2543 H2548 0.984 . S
N2543 H2549 0.985 . S
C2544 C2538 1.379 . S
C2544 C2541 1.363 . S
C2544 N2542 1.356 . S
C2545 C2539 1.363 . S
C2545 C2540 1.379 . S
C2545 N2543 1.356 . S
N2546 C2538 1.356 . S
N2546 H2552 0.984 . S
N2546 H2553 0.984 . S
N2547 C2540 1.356 . S
N2547 H2550 0.984 . S
N2547 H2551 0.985 . S
H2548 N2543 0.984 . S
H2549 N2543 0.985 . S
H2550 N2547 0.984 . S
H2551 N2547 0.985 . S
H2552 N2546 0.984 . S
H2553 N2546 0.984 . S
H2554 N2542 0.984 . S
H2555 N2542 0.985 . S
C2556 C2557 1.363 . S
C2556 C2562 1.379 . S
C2556 N2564 1.356 . S
C2557 C2556 1.363 . S
C2557 C2563 1.363 1_565 S
C2558 C2559 1.363 1_545 S
C2558 C2563 1.379 . S
C2558 N2565 1.356 . S
C2559 C2558 1.363 1_565 S
C2559 C2562 1.363 . S
N2560 C2562 1.356 . S
N2560 H2572 0.984 . S
N2560 H2573 0.985 . S
N2561 C2563 1.356 . S
N2561 H2566 0.984 . S
N2561 H2567 0.985 . S
C2562 C2556 1.379 . S
C2562 C2559 1.363 . S
C2562 N2560 1.356 . S
C2563 C2557 1.363 1_545 S
C2563 C2558 1.379 . S
C2563 N2561 1.356 . S
N2564 C2556 1.356 . S
N2564 H2570 0.984 . S
N2564 H2571 0.984 . S
N2565 C2558 1.356 . S
N2565 H2568 0.984 . S
N2565 H2569 0.985 . S
H2566 N2561 0.984 . S
H2567 N2561 0.985 . S
H2568 N2565 0.984 . S
H2569 N2565 0.985 . S
H2570 N2564 0.984 . S
H2571 N2564 0.984 . S
H2572 N2560 0.984 . S
H2573 N2560 0.985 . S
C2574 C2575 1.363 1_655 S
C2574 C2580 1.379 . S
C2574 N2582 1.356 . S
C2575 C2574 1.363 1_455 S
C2575 C2581 1.363 . S
C2576 C2577 1.363 . S
C2576 C2581 1.379 . S
C2576 N2583 1.356 . S
C2577 C2576 1.363 . S
C2577 C2580 1.363 1_455 S
N2578 C2580 1.356 . S
N2578 H2590 0.984 . S
N2578 H2591 0.985 . S
N2579 C2581 1.356 . S
N2579 H2584 0.984 . S
N2579 H2585 0.985 . S
C2580 C2574 1.379 . S
C2580 C2577 1.363 1_655 S
C2580 N2578 1.356 . S
C2581 C2575 1.363 . S
C2581 C2576 1.379 . S
C2581 N2579 1.356 . S
N2582 C2574 1.356 . S
N2582 H2588 0.984 . S
N2582 H2589 0.981 1_655 S
N2583 C2576 1.356 . S
N2583 H2586 0.984 . S
N2583 H2587 0.985 . S
H2584 N2579 0.984 . S
H2585 N2579 0.985 . S
H2586 N2583 0.984 . S
H2587 N2583 0.985 . S
H2588 N2582 0.984 . S
H2589 N2582 0.981 1_455 S
H2590 N2578 0.984 . S
H2591 N2578 0.985 . S
C2592 C2593 1.363 . S
C2592 C2598 1.379 . S
C2592 N2600 1.356 . S
C2593 C2592 1.363 . S
C2593 C2599 1.363 . S
C2594 C2595 1.363 . S
C2594 C2599 1.379 . S
C2594 N2601 1.356 . S
C2595 C2594 1.363 . S
C2595 C2598 1.363 . S
N2596 C2598 1.356 . S
N2596 H2608 0.984 . S
N2596 H2609 0.985 . S
N2597 C2599 1.356 . S
N2597 H2602 0.984 . S
N2597 H2603 0.985 . S
C2598 C2592 1.379 . S
C2598 C2595 1.363 . S
C2598 N2596 1.356 . S
C2599 C2593 1.363 . S
C2599 C2594 1.379 . S
C2599 N2597 1.356 . S
N2600 C2592 1.356 . S
N2600 H2606 0.984 . S
N2600 H2607 0.984 . S
N2601 C2594 1.356 . S
N2601 H2604 0.984 . S
N2601 H2605 0.985 . S
H2602 N2597 0.984 . S
H2603 N2597 0.985 . S
H2604 N2601 0.984 . S
H2605 N2601 0.985 . S
H2606 N2600 0.984 . S
H2607 N2600 0.984 . S
H2608 N2596 0.984 . S
H2609 N2596 0.985 . S
C2610 C2611 1.363 . S
C2610 C2616 1.379 . S
C2610 N2618 1.356 . S
C2611 C2610 1.363 . S
C2611 C2617 1.363 . S
C2612 C2613 1.363 . S
C2612 C2617 1.379 . S
C2612 N2619 1.356 . S
C2613 C2612 1.363 . S
C2613 C2616 1.363 . S
N2614 C2616 1.356 . S
N2614 H2626 0.984 . S
N2614 H2627 0.985 . S
N2615 C2617 1.356 . S
N2615 H2620 0.984 . S
N2615 H2621 0.985 . S
C2616 C2610 1.379 . S
C2616 C2613 1.363 . S
C2616 N2614 1.356 . S
C2617 C2611 1.363 . S
C2617 C2612 1.379 . S
C2617 N2615 1.356 . S
N2618 C2610 1.356 . S
N2618 H2624 0.984 . S
N2618 H2625 0.984 . S
N2619 C2612 1.356 . S
N2619 H2622 0.984 . S
N2619 H2623 0.985 . S
H2620 N2615 0.984 . S
H2621 N2615 0.985 . S
H2622 N2619 0.984 . S
H2623 N2619 0.985 . S
H2624 N2618 0.984 . S
H2625 N2618 0.984 . S
H2626 N2614 0.984 . S
H2627 N2614 0.985 . S
C2628 C2629 1.363 . S
C2628 C2634 1.379 . S
C2628 N2636 1.356 . S
C2629 C2628 1.363 . S
C2629 C2635 1.363 . S
C2630 C2631 1.363 . S
C2630 C2635 1.379 . S
C2630 N2637 1.356 . S
C2631 C2630 1.363 . S
C2631 C2634 1.363 . S
N2632 C2634 1.356 . S
N2632 H2644 0.984 . S
N2632 H2645 0.985 . S
N2633 C2635 1.356 . S
N2633 H2638 0.984 . S
N2633 H2639 0.985 . S
C2634 C2628 1.379 . S
C2634 C2631 1.363 . S
C2634 N2632 1.356 . S
C2635 C2629 1.363 . S
C2635 C2630 1.379 . S
C2635 N2633 1.356 . S
N2636 C2628 1.356 . S
N2636 H2642 0.984 . S
N2636 H2643 0.984 . S
N2637 C2630 1.356 . S
N2637 H2640 0.984 . S
N2637 H2641 0.985 . S
H2638 N2633 0.984 . S
H2639 N2633 0.985 . S
H2640 N2637 0.984 . S
H2641 N2637 0.985 . S
H2642 N2636 0.984 . S
H2643 N2636 0.984 . S
H2644 N2632 0.984 . S
H2645 N2632 0.985 . S
C2646 C2647 1.363 . S
C2646 C2652 1.379 . S
C2646 N2654 1.356 . S
C2647 C2646 1.363 . S
C2647 C2653 1.363 . S
C2648 C2649 1.363 . S
C2648 C2653 1.379 . S
C2648 N2655 1.356 . S
C2649 C2648 1.363 . S
C2649 C2652 1.363 . S
N2650 C2652 1.356 . S
N2650 H2662 0.984 . S
N2650 H2663 0.985 . S
N2651 C2653 1.356 . S
N2651 H2656 0.984 . S
N2651 H2657 0.985 . S
C2652 C2646 1.379 . S
C2652 C2649 1.363 . S
C2652 N2650 1.356 . S
C2653 C2647 1.363 . S
C2653 C2648 1.379 . S
C2653 N2651 1.356 . S
N2654 C2646 1.356 . S
N2654 H2660 0.984 . S
N2654 H2661 0.984 . S
N2655 C2648 1.356 . S
N2655 H2658 0.984 . S
N2655 H2659 0.985 . S
H2656 N2651 0.984 . S
H2657 N2651 0.985 . S
H2658 N2655 0.984 . S
H2659 N2655 0.985 . S
H2660 N2654 0.984 . S
H2661 N2654 0.984 . S
H2662 N2650 0.984 . S
H2663 N2650 0.985 . S
C2664 C2665 1.363 . S
C2664 C2670 1.379 1_545 S
C2664 N2672 1.356 1_545 S
C2665 C2664 1.363 . S
C2665 C2671 1.363 . S
C2666 C2667 1.363 . S
C2666 C2671 1.379 . S
C2666 N2673 1.356 . S
C2667 C2666 1.363 . S
C2667 C2670 1.363 1_545 S
N2668 C2670 1.356 . S
N2668 H2680 0.984 . S
N2668 H2681 0.985 . S
N2669 C2671 1.356 . S
N2669 H2674 0.984 . S
N2669 H2675 0.985 . S
C2670 C2664 1.379 1_565 S
C2670 C2667 1.363 1_565 S
C2670 N2668 1.356 . S
C2671 C2665 1.363 . S
C2671 C2666 1.379 . S
C2671 N2669 1.356 . S
N2672 C2664 1.356 1_565 S
N2672 H2678 0.984 . S
N2672 H2679 0.984 . S
N2673 C2666 1.356 . S
N2673 H2676 0.984 . S
N2673 H2677 0.985 . S
H2674 N2669 0.984 . S
H2675 N2669 0.985 . S
H2676 N2673 0.984 . S
H2677 N2673 0.985 . S
H2678 N2672 0.984 . S
H2679 N2672 0.984 . S
H2680 N2668 0.984 . S
H2681 N2668 0.985 . S
C2682 C2683 1.363 . S
C2682 C2688 1.379 . S
C2682 N2690 1.356 . S
C2683 C2682 1.363 . S
C2683 C2689 1.363 . S
C2684 C2685 1.363 . S
C2684 C2689 1.379 . S
C2684 N2691 1.356 . S
C2685 C2684 1.363 . S
C2685 C2688 1.363 . S
N2686 C2688 1.356 . S
N2686 H2698 0.984 . S
N2686 H2699 0.985 . S
N2687 C2689 1.356 . S
N2687 H2692 0.984 . S
N2687 H2693 0.985 . S
C2688 C2682 1.379 . S
C2688 C2685 1.363 . S
C2688 N2686 1.356 . S
C2689 C2683 1.363 . S
C2689 C2684 1.379 . S
C2689 N2687 1.356 . S
N2690 C2682 1.356 . S
N2690 H2696 0.984 . S
N2690 H2697 0.984 . S
N2691 C2684 1.356 . S
N2691 H2694 0.984 . S
N2691 H2695 0.985 . S
H2692 N2687 0.984 . S
H2693 N2687 0.985 . S
H2694 N2691 0.984 . S
H2695 N2691 0.985 . S
H2696 N2690 0.984 . S
H2697 N2690 0.984 . S
H2698 N2686 0.984 . S
H2699 N2686 0.985 . S
C2700 C2701 1.363 . S
C2700 C2706 1.379 . S
C2700 N2708 1.356 . S
C2701 C2700 1.363 . S
C2701 C2707 1.363 . S
C2702 C2703 1.363 . S
C2702 C2707 1.379 . S
C2702 N2709 1.356 . S
C2703 C2702 1.363 . S
C2703 C2706 1.363 . S
N2704 C2706 1.356 . S
N2704 H2716 0.984 . S
N2704 H2717 0.985 . S
N2705 C2707 1.356 . S
N2705 H2710 0.984 . S
N2705 H2711 0.985 . S
C2706 C2700 1.379 . S
C2706 C2703 1.363 . S
C2706 N2704 1.356 . S
C2707 C2701 1.363 . S
C2707 C2702 1.379 . S
C2707 N2705 1.356 . S
N2708 C2700 1.356 . S
N2708 H2714 0.984 . S
N2708 H2715 0.984 . S
N2709 C2702 1.356 . S
N2709 H2712 0.984 . S
N2709 H2713 0.985 . S
H2710 N2705 0.984 . S
H2711 N2705 0.985 . S
H2712 N2709 0.984 . S
H2713 N2709 0.985 . S
H2714 N2708 0.984 . S
H2715 N2708 0.984 . S
H2716 N2704 0.984 . S
H2717 N2704 0.985 . S
C2718 C2719 1.363 . S
C2718 C2724 1.379 . S
C2718 N2726 1.356 . S
C2719 C2718 1.363 . S
C2719 C2725 1.363 . S
C2720 C2721 1.363 . S
C2720 C2725 1.379 . S
C2720 N2727 1.356 . S
C2721 C2720 1.363 . S
C2721 C2724 1.363 . S
N2722 C2724 1.356 . S
N2722 H2734 0.984 . S
N2722 H2735 0.985 . S
N2723 C2725 1.356 . S
N2723 H2728 0.984 . S
N2723 H2729 0.985 . S
C2724 C2718 1.379 . S
C2724 C2721 1.363 . S
C2724 N2722 1.356 . S
C2725 C2719 1.363 . S
C2725 C2720 1.379 . S
C2725 N2723 1.356 . S
N2726 C2718 1.356 . S
N2726 H2732 0.984 . S
N2726 H2733 0.984 . S
N2727 C2720 1.356 . S
N2727 H2730 0.984 . S
N2727 H2731 0.985 . S
H2728 N2723 0.984 . S
H2729 N2723 0.985 . S
H2730 N2727 0.984 . S
H2731 N2727 0.985 . S
H2732 N2726 0.984 . S
H2733 N2726 0.984 . S
H2734 N2722 0.984 . S
H2735 N2722 0.985 . S
C2736 C2737 1.363 . S
C2736 C2742 1.379 . S
C2736 N2744 1.356 . S
C2737 C2736 1.363 . S
C2737 C2743 1.363 . S
C2738 C2739 1.363 . S
C2738 C2743 1.379 . S
C2738 N2745 1.356 . S
C2739 C2738 1.363 . S
C2739 C2742 1.363 . S
N2740 C2742 1.356 . S
N2740 H2752 0.984 . S
N2740 H2753 0.985 . S
N2741 C2743 1.356 . S
N2741 H2746 0.982 . S
N2741 H2747 0.985 . S
C2742 C2736 1.379 . S
C2742 C2739 1.363 . S
C2742 N2740 1.356 . S
C2743 C2737 1.363 . S
C2743 C2738 1.379 . S
C2743 N2741 1.356 . S
N2744 C2736 1.356 . S
N2744 H2750 0.984 . S
N2744 H2751 0.984 . S
N2745 C2738 1.356 . S
N2745 H2748 0.984 . S
N2745 H2749 0.985 . S
H2746 N2741 0.982 . S
H2747 N2741 0.985 . S
H2748 N2745 0.984 . S
H2749 N2745 0.985 . S
H2750 N2744 0.984 . S
H2751 N2744 0.984 . S
H2752 N2740 0.984 . S
H2753 N2740 0.985 . S
C2754 C2755 1.363 . S
C2754 C2760 1.379 . S
C2754 N2762 1.356 . S
C2755 C2754 1.363 . S
C2755 C2761 1.363 . S
C2756 C2757 1.363 . S
C2756 C2761 1.379 . S
C2756 N2763 1.356 . S
C2757 C2756 1.363 . S
C2757 C2760 1.363 . S
N2758 C2760 1.356 . S
N2758 H2770 0.984 . S
N2758 H2771 0.985 . S
N2759 C2761 1.356 . S
N2759 H2764 0.984 . S
N2759 H2765 0.985 . S
C2760 C2754 1.379 . S
C2760 C2757 1.363 . S
C2760 N2758 1.356 . S
C2761 C2755 1.363 . S
C2761 C2756 1.379 . S
C2761 N2759 1.356 . S
N2762 C2754 1.356 . S
N2762 H2768 0.984 . S
N2762 H2769 0.984 . S
N2763 C2756 1.356 . S
N2763 H2766 0.984 . S
N2763 H2767 0.985 . S
H2764 N2759 0.984 . S
H2765 N2759 0.985 . S
H2766 N2763 0.984 . S
H2767 N2763 0.985 . S
H2768 N2762 0.984 . S
H2769 N2762 0.984 . S
H2770 N2758 0.984 . S
H2771 N2758 0.985 . S
C2772 C2773 1.363 . S
C2772 C2778 1.379 . S
C2772 N2780 1.356 . S
C2773 C2772 1.363 . S
C2773 C2779 1.363 . S
C2774 C2775 1.363 . S
C2774 C2779 1.379 . S
C2774 N2781 1.356 . S
C2775 C2774 1.363 . S
C2775 C2778 1.363 . S
N2776 C2778 1.356 . S
N2776 H2788 0.984 . S
N2776 H2789 0.985 . S
N2777 C2779 1.356 . S
N2777 H2782 0.984 . S
N2777 H2783 0.985 . S
C2778 C2772 1.379 . S
C2778 C2775 1.363 . S
C2778 N2776 1.356 . S
C2779 C2773 1.363 . S
C2779 C2774 1.379 . S
C2779 N2777 1.356 . S
N2780 C2772 1.356 . S
N2780 H2786 0.984 . S
N2780 H2787 0.984 . S
N2781 C2774 1.356 . S
N2781 H2784 0.984 . S
N2781 H2785 0.985 . S
H2782 N2777 0.984 . S
H2783 N2777 0.985 . S
H2784 N2781 0.984 . S
H2785 N2781 0.985 . S
H2786 N2780 0.984 . S
H2787 N2780 0.984 . S
H2788 N2776 0.984 . S
H2789 N2776 0.985 . S
C2790 C2791 1.363 . S
C2790 C2796 1.379 . S
C2790 N2798 1.356 . S
C2791 C2790 1.363 . S
C2791 C2797 1.363 . S
C2792 C2793 1.363 . S
C2792 C2797 1.379 . S
C2792 N2799 1.356 . S
C2793 C2792 1.363 . S
C2793 C2796 1.363 . S
N2794 C2796 1.356 . S
N2794 H2806 0.984 . S
N2794 H2807 0.985 . S
N2795 C2797 1.356 . S
N2795 H2800 0.984 1_565 S
N2795 H2801 0.985 . S
C2796 C2790 1.379 . S
C2796 C2793 1.363 . S
C2796 N2794 1.356 . S
C2797 C2791 1.363 . S
C2797 C2792 1.379 . S
C2797 N2795 1.356 . S
N2798 C2790 1.356 . S
N2798 H2804 0.984 . S
N2798 H2805 0.984 . S
N2799 C2792 1.356 . S
N2799 H2802 0.984 . S
N2799 H2803 0.985 . S
H2800 N2795 0.984 1_545 S
H2801 N2795 0.985 . S
H2802 N2799 0.984 . S
H2803 N2799 0.985 . S
H2804 N2798 0.984 . S
H2805 N2798 0.984 . S
H2806 N2794 0.984 . S
H2807 N2794 0.985 . S
C2808 C2809 1.363 . S
C2808 C2814 1.379 . S
C2808 N2816 1.356 . S
C2809 C2808 1.363 . S
C2809 C2815 1.363 . S
C2810 C2811 1.363 . S
C2810 C2815 1.379 . S
C2810 N2817 1.356 . S
C2811 C2810 1.363 . S
C2811 C2814 1.363 . S
N2812 C2814 1.356 . S
N2812 H2824 0.984 . S
N2812 H2825 0.985 . S
N2813 C2815 1.356 . S
N2813 H2818 0.984 1_455 S
N2813 H2819 0.985 . S
C2814 C2808 1.379 . S
C2814 C2811 1.363 . S
C2814 N2812 1.356 . S
C2815 C2809 1.363 . S
C2815 C2810 1.379 . S
C2815 N2813 1.356 . S
N2816 C2808 1.356 . S
N2816 H2822 0.984 . S
N2816 H2823 0.984 . S
N2817 C2810 1.356 . S
N2817 H2820 0.984 . S
N2817 H2821 0.985 . S
H2818 N2813 0.984 1_655 S
H2819 N2813 0.985 . S
H2820 N2817 0.984 . S
H2821 N2817 0.985 . S
H2822 N2816 0.984 . S
H2823 N2816 0.984 . S
H2824 N2812 0.984 . S
H2825 N2812 0.985 . S
C2826 C2827 1.363 . S
C2826 C2832 1.379 . S
C2826 N2834 1.356 . S
C2827 C2826 1.363 . S
C2827 C2833 1.363 . S
C2828 C2829 1.363 . S
C2828 C2833 1.379 . S
C2828 N2835 1.356 . S
C2829 C2828 1.363 . S
C2829 C2832 1.363 . S
N2830 C2832 1.356 1_455 S
N2830 H2842 0.984 . S
N2830 H2843 0.985 . S
N2831 C2833 1.356 . S
N2831 H2836 0.984 . S
N2831 H2837 0.985 . S
C2832 C2826 1.379 . S
C2832 C2829 1.363 . S
C2832 N2830 1.356 1_655 S
C2833 C2827 1.363 . S
C2833 C2828 1.379 . S
C2833 N2831 1.356 . S
N2834 C2826 1.356 . S
N2834 H2840 0.984 . S
N2834 H2841 0.984 . S
N2835 C2828 1.356 . S
N2835 H2838 0.984 . S
N2835 H2839 0.985 . S
H2836 N2831 0.984 . S
H2837 N2831 0.985 . S
H2838 N2835 0.984 . S
H2839 N2835 0.985 . S
H2840 N2834 0.984 . S
H2841 N2834 0.984 . S
H2842 N2830 0.984 . S
H2843 N2830 0.985 . S
C2844 C2845 1.363 . S
C2844 C2850 1.379 . S
C2844 N2852 1.356 . S
C2845 C2844 1.363 . S
C2845 C2851 1.363 . S
C2846 C2847 1.363 . S
C2846 C2851 1.379 . S
C2846 N2853 1.356 . S
C2847 C2846 1.363 . S
C2847 C2850 1.363 . S
N2848 C2850 1.356 . S
N2848 H2860 0.984 . S
N2848 H2861 0.985 . S
N2849 C2851 1.356 . S
N2849 H2854 0.984 . S
N2849 H2855 0.985 . S
C2850 C2844 1.379 . S
C2850 C2847 1.363 . S
C2850 N2848 1.356 . S
C2851 C2845 1.363 . S
C2851 C2846 1.379 . S
C2851 N2849 1.356 . S
N2852 C2844 1.356 . S
N2852 H2858 0.984 . S
N2852 H2859 0.984 . S
N2853 C2846 1.356 . S
N2853 H2856 0.984 . S
N2853 H2857 0.985 . S
H2854 N2849 0.984 . S
H2855 N2849 0.985 . S
H2856 N2853 0.984 . S
H2857 N2853 0.985 . S
H2858 N2852 0.984 . S
H2859 N2852 0.984 . S
H2860 N2848 0.984 . S
H2861 N2848 0.985 . S
C2862 C2863 1.363 . S
C2862 C2868 1.379 . S
C2862 N2870 1.356 . S
C2863 C2862 1.363 . S
C2863 C2869 1.363 . S
C2864 C2865 1.351 1_565 S
C2864 C2869 1.382 1_565 S
C2864 N2871 1.364 . S
C2865 C2864 1.351 1_545 S
C2865 C2868 1.363 . S
N2866 C2868 1.356 . S
N2866 H2878 0.984 . S
N2866 H2879 0.985 . S
N2867 C2869 1.356 . S
N2867 H2872 0.984 . S
N2867 H2873 0.985 1_545 S
C2868 C2862 1.379 . S
C2868 C2865 1.363 . S
C2868 N2866 1.356 . S
C2869 C2863 1.363 . S
C2869 C2864 1.382 1_545 S
C2869 N2867 1.356 . S
N2870 C2862 1.356 . S
N2870 H2876 0.984 . S
N2870 H2877 0.984 . S
N2871 C2864 1.364 . S
N2871 H2874 0.984 . S
N2871 H2875 0.985 . S
H2872 N2867 0.984 . S
H2873 N2867 0.985 1_565 S
H2874 N2871 0.984 . S
H2875 N2871 0.985 . S
H2876 N2870 0.984 . S
H2877 N2870 0.984 . S
H2878 N2866 0.984 . S
H2879 N2866 0.985 . S
C1585 C7 1.312 . S
C1587 C981 1.264 . S
C1603 C23 1.696 . S
C1605 C1061 1.612 . S
C1623 C1129 1.373 . S
C1621 C37 1.421 . S
C1639 C35 1.736 . S
C1641 C1209 1.700 . S
C1657 C9 1.555 . S
C1659 C1283 1.541 . S
C1675 C21 1.711 . S
C1677 C1351 1.646 . S
C1693 C49 1.233 1_556 S
C1695 C1277 1.197 . S
C1713 C1357 1.494 . S
C1711 C65 1.487 . S
C1731 C1203 1.341 . S
C1729 C79 1.345 1_556 S
C1747 C77 1.703 . S
C1749 C1135 1.673 1_545 S
C1767 C987 1.504 . S
C1765 C51 1.467 . S
C1783 C63 1.502 . S
C1785 C1055 1.504 . S
C1801 C91 1.595 . S
C1803 C1425 1.509 . S
C1819 C107 1.757 . S
C1821 C1505 1.651 . S
C1839 C1573 1.578 . S
C1837 C121 1.740 . S
C1855 C119 1.972 . S
C1857 C321 1.889 . S
C1873 C93 1.865 . S
C1875 C395 1.748 . S
C1891 C105 1.750 . S
C1893 C463 1.681 . S
C1909 C133 1.263 . S
C1911 C389 1.253 . S
C1927 C149 1.531 . S
C1929 C469 1.530 . S
C1947 C315 1.446 . S
C1945 C163 1.471 . S
C1965 C1579 1.852 . S
C1963 C161 1.874 . S
C1983 C1431 1.597 . S
C1981 C135 1.617 . S
C2001 C1499 1.550 . S
C1999 C147 1.536 . S
C2017 C175 1.508 . S
C2019 C537 1.421 . S
C2035 C191 1.755 . S
C2037 C617 1.653 . S
C2053 C205 1.750 . S
C2055 C685 1.596 . S
C2071 C203 2.049 . S
C2073 C765 1.965 . S
C2091 C839 1.742 . S
C2089 C177 1.867 . S
C2109 C907 1.709 . S
C2107 C189 1.770 . S
C2127 C833 1.350 . S
C2125 C217 1.353 . S
C2145 C913 1.523 . S
C2143 C233 1.530 . S
C2161 C247 1.443 . S
C2163 C759 1.411 . S
C2181 C691 1.771 . S
C2179 C245 1.795 . S
C2197 C219 1.628 . S
C2199 C543 1.616 . S
C2217 C611 1.528 . S
C2215 C231 1.521 . S
C2235 C291 1.915 . S
C2233 C8 1.979 . S
C2251 C17 1.500 . S
C2253 C365 1.491 . S
C2271 C451 1.591 . S
C2269 C31 1.582 . S
C2289 C525 1.392 . S
C2287 C36 1.429 1_556 S
C2307 C587 1.638 . S
C2305 C3 1.647 1_556 S
C2325 C673 1.558 1_554 S
C2323 C22 1.579 . S
C2341 C50 2.197 . S
C2343 C661 2.035 . S
C2359 C59 1.743 . S
C2361 C513 1.648 . S
C2377 C73 1.843 . S
C2379 C599 1.806 . S
C2395 C78 1.748 . S
C2397 C377 1.645 . S
C2415 C439 1.790 . S
C2413 C45 1.887 . S
C2431 C64 1.859 . S
C2433 C303 1.773 . S
C2451 C735 1.864 . S
C2449 C92 1.923 . S
C2467 C101 1.621 1_545 S
C2469 C809 1.606 . S
C2485 C115 1.637 1_655 S
C2487 C895 1.622 . S
C2505 C969 1.228 . S
C2503 C120 1.252 . S
C2521 C87 1.585 . S
C2523 C1031 1.573 . S
C2539 C106 1.447 . S
C2541 C1117 1.439 . S
C2557 C134 1.857 . S
C2559 C1105 1.765 1_565 S
C2575 C143 1.463 . S
C2577 C957 1.420 1_455 S
C2595 C1043 1.742 . S
C2593 C157 1.790 . S
C2611 C162 1.743 . S
C2613 C821 1.631 . S
C2629 C129 1.901 . S
C2631 C883 1.800 . S
C2649 C747 1.830 . S
C2647 C148 1.922 . S
C2667 C1179 1.743 . S
C2665 C176 1.802 . S
C2683 C185 1.357 . S
C2685 C1253 1.344 . S
C2701 C199 1.549 . S
C2703 C1339 1.546 . S
C2721 C1413 1.391 . S
C2719 C204 1.431 . S
C2739 C1475 1.662 . S
C2737 C171 1.676 . S
C2755 C190 1.654 . S
C2757 C1561 1.630 . S
C2773 C218 2.121 . S
C2775 C1549 1.981 . S
C2791 C227 1.854 1_565 S
C2793 C1401 1.751 . S
C2811 C1487 1.812 . S
C2809 C241 1.877 1_455 S
C2829 C1265 1.327 . S
C2827 C246 1.380 . S
C2847 C1327 1.720 . S
C2845 C213 1.812 . S
C2863 C232 1.552 . S
C2865 C1191 1.511 . S
