# Generated by pormake.
# Topology anh, (6,3)-cn, num edge types: 1
# Building blocks:
#     Node 0, Type 0, BuildingBlock: BETDEL_clean_sbu_0, # of connection points: 6
#     Node 1, Type 0, BuildingBlock: BETDEL_clean_sbu_0, # of connection points: 6
#     Node 2, Type 0, BuildingBlock: BETDEL_clean_sbu_0, # of connection points: 6
#     Node 3, Type 1, BuildingBlock: VETTIZ_charged_linker_0, # of connection points: 3
#     Node 4, Type 1, BuildingBlock: VETTIZ_charged_linker_0, # of connection points: 3
#     Node 5, Type 1, BuildingBlock: VETTIZ_charged_linker_0, # of connection points: 3
#     Node 6, Type 1, BuildingBlock: VETTIZ_charged_linker_0, # of connection points: 3
#     Node 7, Type 1, BuildingBlock: VETTIZ_charged_linker_0, # of connection points: 3
#     Node 8, Type 1, BuildingBlock: VETTIZ_charged_linker_0, # of connection points: 3
#     Edge 9, Type (0, 1), BuildingBlock: XIVTED_clean_linker_0, # of connection points: 2
#     Edge 10, Type (0, 1), BuildingBlock: XIVTED_clean_linker_0, # of connection points: 2
#     Edge 11, Type (0, 1), BuildingBlock: XIVTED_clean_linker_0, # of connection points: 2
#     Edge 12, Type (0, 1), BuildingBlock: XIVTED_clean_linker_0, # of connection points: 2
#     Edge 13, Type (0, 1), BuildingBlock: XIVTED_clean_linker_0, # of connection points: 2
#     Edge 14, Type (0, 1), BuildingBlock: XIVTED_clean_linker_0, # of connection points: 2
#     Edge 15, Type (0, 1), BuildingBlock: XIVTED_clean_linker_0, # of connection points: 2
#     Edge 16, Type (0, 1), BuildingBlock: XIVTED_clean_linker_0, # of connection points: 2
#     Edge 17, Type (0, 1), BuildingBlock: XIVTED_clean_linker_0, # of connection points: 2
#     Edge 18, Type (0, 1), BuildingBlock: XIVTED_clean_linker_0, # of connection points: 2
#     Edge 19, Type (0, 1), BuildingBlock: XIVTED_clean_linker_0, # of connection points: 2
#     Edge 20, Type (0, 1), BuildingBlock: XIVTED_clean_linker_0, # of connection points: 2
#     Edge 21, Type (0, 1), BuildingBlock: XIVTED_clean_linker_0, # of connection points: 2
#     Edge 22, Type (0, 1), BuildingBlock: XIVTED_clean_linker_0, # of connection points: 2
#     Edge 23, Type (0, 1), BuildingBlock: XIVTED_clean_linker_0, # of connection points: 2
#     Edge 24, Type (0, 1), BuildingBlock: XIVTED_clean_linker_0, # of connection points: 2
#     Edge 25, Type (0, 1), BuildingBlock: XIVTED_clean_linker_0, # of connection points: 2
#     Edge 26, Type (0, 1), BuildingBlock: XIVTED_clean_linker_0, # of connection points: 2
# Relax obj value: 0.144
# Max RMSD: 0.167
# Mean RMSD: 0.135
data_MOF--net-anh--node1-BETDEL_clean_sbu_0--node2-VETTIZ_charged_linker_0--edge1-XIVTED_clean_linker_0
_symmetry_space_group_name_H-M    P1
_symmetry_Int_Tables_number       1
_symmetry_cell_setting            triclinic
loop_
_symmetry_equiv_pos_as_xyz
'x, y, z'
_cell_length_a     35.342506
_cell_length_b     35.267377
_cell_length_c     65.408387
_cell_angle_alpha  90.254651
_cell_angle_beta   89.877443
_cell_angle_gamma 119.95173
loop_
_atom_site_label
_atom_site_type_symbol
_atom_site_fract_x
_atom_site_fract_y
_atom_site_fract_z
_atom_type_partial_charge
Dy0 Dy 0.061 0.48607 0.16021 0.0
C1 C 0.95619 0.56634 0.18064 0.0
C2 C 0.12076 0.45998 0.15475 0.0
Dy3 Dy 1.00504 0.53374 0.16446 0.0
O4 O 0.11713 0.47939 0.17089 0.0
O5 O 0.09158 0.4548 0.14115 0.0
O6 O 0.03502 0.45579 0.19088 0.0
O7 O 0.0443 0.51807 0.18433 0.0
C8 C 0.02986 0.48779 0.19729 0.0
C9 C 1.01555 0.51994 0.12487 0.0
O10 O 0.07295 0.59047 0.1684 0.0
O11 O 0.11175 0.55751 0.15619 0.0
O12 O 0.98718 0.58624 0.16725 0.0
O13 O 0.9522 0.52869 0.18531 0.0
O14 O 0.99284 0.53777 0.13079 0.0
O15 O 0.03018 0.51101 0.14044 0.0
O16 O 0.99412 0.42979 0.15314 0.0
O17 O 0.95453 0.46189 0.16563 0.0
C18 C 0.10987 0.59266 0.16222 0.0
C19 C 0.95672 0.42745 0.1587 0.0
Dy20 Dy 0.49235 0.04583 0.49319 0.0
C21 C 0.67479 0.14986 0.51677 0.0
C22 C 0.40671 0.9858 0.48765 0.0
Dy23 Dy 0.59507 0.09903 0.49933 0.0
O24 O 0.42937 0.99006 0.50393 0.0
O25 O 0.43095 0.01458 0.47395 0.0
O26 O 0.48634 0.07632 0.52226 0.0
O27 O 0.53812 0.06374 0.51865 0.0
C28 C 0.52203 0.08082 0.53011 0.0
C29 C 0.57526 0.08367 0.45931 0.0
O30 O 0.58133 0.03081 0.50537 0.0
O31 O 0.51156 0.99355 0.49113 0.0
O32 O 0.66483 0.11697 0.50456 0.0
O33 O 0.64089 0.15448 0.51963 0.0
O34 O 0.61511 0.10491 0.46614 0.0
O35 O 0.54976 0.07293 0.4743 0.0
O36 O 0.50556 0.11253 0.48368 0.0
O37 O 0.57615 0.15126 0.49719 0.0
C38 C 0.54694 0.99428 0.4986 0.0
C39 C 0.54092 0.14986 0.48908 0.0
Dy40 Dy 0.60881 0.61018 0.82316 0.0
C41 C 0.53318 0.42907 0.85074 0.0
C42 C 0.63298 0.69313 0.81133 0.0
Dy43 Dy 0.56098 0.50765 0.83217 0.0
O44 O 0.62287 0.67831 0.82983 0.0
O45 O 0.63037 0.66264 0.79913 0.0
O46 O 0.64191 0.62147 0.8537 0.0
O47 O 0.57934 0.56713 0.84927 0.0
C48 C 0.61069 0.58568 0.86159 0.0
C49 C 0.56706 0.52276 0.79163 0.0
O50 O 0.5054 0.52044 0.8368 0.0
O51 O 0.53706 0.58996 0.8221 0.0
O52 O 0.51018 0.43769 0.83806 0.0
O53 O 0.57101 0.46389 0.85366 0.0
O54 O 0.54861 0.48376 0.79944 0.0
O55 O 0.58089 0.54995 0.80606 0.0
O56 O 0.66417 0.59763 0.81665 0.0
O57 O 0.6327 0.52884 0.83212 0.0
C58 C 0.50272 0.55433 0.82968 0.0
C59 C 0.66662 0.56355 0.82373 0.0
C60 C 0.64326 0.11503 0.17595 0.0
C61 C 0.68001 0.151 0.18507 0.0
C62 C 0.68176 0.1555 0.20642 0.0
C63 C 0.61109 0.08997 0.20963 0.0
C64 C 0.6091 0.08457 0.18864 0.0
C65 C 0.56745 0.04338 0.18228 0.0
H66 H 0.37116 0.86967 0.21292 0.0
C67 C 0.57085 0.0541 0.21869 0.0
C68 C 0.54463 0.0262 0.20287 0.0
H69 H 0.42158 0.89599 0.15133 0.0
H70 H 0.48773 0.96089 0.16331 0.0
H71 H 0.45756 0.8861 0.23307 0.0
H72 H 0.40086 0.96827 0.22559 0.0
H73 H 0.42205 0.9772 0.25052 0.0
H74 H 0.37969 0.92321 0.24309 0.0
H75 H 0.41323 0.88032 0.24869 0.0
H76 H 0.46944 0.91707 0.2556 0.0
C77 C 0.58019 1.01164 0.17223 0.0
C78 C 0.54108 0.0564 0.16807 0.0
C79 C 0.55168 0.05242 0.2957 0.0
C80 C 0.51882 0.02367 0.30915 0.0
C81 C 0.48073 0.98806 0.30093 0.0
C82 C 0.47605 0.98066 0.27974 0.0
C83 C 0.50982 1.00913 0.26655 0.0
C84 C 0.54662 0.04443 0.27465 0.0
C85 C 0.57938 0.07111 0.25852 0.0
C86 C 0.55645 0.04572 0.23931 0.0
C87 C 0.51582 1.00961 0.24408 0.0
C88 C 0.622 0.06992 0.2628 0.0
C89 C 0.58458 0.1175 0.25876 0.0
C90 C 0.39615 0.88954 0.2019 0.0
C91 C 0.39077 0.878 0.18114 0.0
C92 C 0.42486 0.90423 0.16744 0.0
C93 C 0.46316 0.94188 0.17442 0.0
C94 C 0.46775 0.95302 0.19536 0.0
C95 C 0.43441 0.92643 0.20862 0.0
C96 C 0.44447 0.94107 0.23042 0.0
C97 C 0.48914 0.9812 0.22831 0.0
C98 C 0.50315 0.98885 0.20775 0.0
C99 C 0.44603 0.90436 0.24275 0.0
C100 C 0.40998 0.95285 0.238 0.0
H101 H 0.65139 0.13137 0.23482 0.0
H102 H 0.64129 0.1108 0.15951 0.0
H103 H 0.53858 0.08407 0.17481 0.0
H104 H 0.50733 0.02954 0.1657 0.0
H105 H 0.55717 0.06691 0.15291 0.0
H106 H 0.60631 1.0105 0.1812 0.0
H107 H 0.59266 0.02232 0.15647 0.0
H108 H 0.5528 0.97768 0.17164 0.0
H109 H 0.58107 0.08059 0.30141 0.0
H110 H 0.455 0.9652 0.31091 0.0
H111 H 0.44649 0.95271 0.27449 0.0
H112 H 0.61491 0.03889 0.27041 0.0
H113 H 0.64436 0.09732 0.27295 0.0
H114 H 0.63962 0.07065 0.24868 0.0
H115 H 0.55323 0.11599 0.26276 0.0
H116 H 0.59332 0.13364 0.24368 0.0
H117 H 0.60928 0.13897 0.2702 0.0
H118 H 0.70963 0.18288 0.21368 0.0
C119 C 0.64772 0.12547 0.21868 0.0
C120 C 0.54771 0.68069 0.51358 0.0
C121 C 0.55301 0.71775 0.52452 0.0
C122 C 0.55772 0.71893 0.54588 0.0
C123 C 0.55308 0.64812 0.54542 0.0
C124 C 0.54825 0.64624 0.5244 0.0
C125 C 0.54504 0.60466 0.51575 0.0
H126 H 0.5563 0.41915 0.53559 0.0
C127 C 0.55376 0.60867 0.5523 0.0
C128 C 0.5495 0.58276 0.53503 0.0
H129 H 0.53393 0.45848 0.47664 0.0
H130 H 0.53578 0.52271 0.4922 0.0
H131 H 0.62764 0.51194 0.55135 0.0
H132 H 0.48879 0.43496 0.55839 0.0
H133 H 0.50753 0.4624 0.58177 0.0
H134 H 0.52555 0.42519 0.57329 0.0
H135 H 0.60158 0.46479 0.56756 0.0
H136 H 0.61698 0.51882 0.5769 0.0
C137 C 0.58336 0.61741 0.50082 0.0
C138 C 0.4998 0.57722 0.50569 0.0
C139 C 0.56556 0.58703 0.62858 0.0
C140 C 0.56646 0.55338 0.63964 0.0
C141 C 0.56774 0.51933 0.62888 0.0
C142 C 0.56653 0.51782 0.60755 0.0
C143 C 0.56391 0.55064 0.59665 0.0
C144 C 0.5641 0.58483 0.60712 0.0
C145 C 0.56148 0.61681 0.59285 0.0
C146 C 0.5584 0.59535 0.57217 0.0
C147 C 0.55981 0.55673 0.57458 0.0
C148 C 0.60432 0.66148 0.59509 0.0
C149 C 0.51921 0.61797 0.59795 0.0
C150 C 0.55193 0.44164 0.52598 0.0
C151 C 0.54541 0.43414 0.50494 0.0
C152 C 0.5391 0.46377 0.49296 0.0
C153 C 0.54035 0.501 0.502 0.0
C154 C 0.54752 0.50827 0.52324 0.0
C155 C 0.5525 0.47813 0.53472 0.0
C156 C 0.55773 0.48863 0.55704 0.0
C157 C 0.55608 0.53062 0.55735 0.0
C158 C 0.55045 0.54284 0.53758 0.0
C159 C 0.60311 0.4962 0.56376 0.0
C160 C 0.51821 0.45093 0.56836 0.0
H161 H 0.56139 0.68788 0.57258 0.0
H162 H 0.54424 0.67911 0.49711 0.0
H163 H 0.4738 0.57589 0.51579 0.0
H164 H 0.49126 0.54296 0.50304 0.0
H165 H 0.49832 0.59176 0.49089 0.0
H166 H 0.61459 0.64249 0.50787 0.0
H167 H 0.57846 0.63131 0.48652 0.0
H168 H 0.58775 0.58949 0.49675 0.0
H169 H 0.56457 0.61363 0.63642 0.0
H170 H 0.56934 0.4935 0.63704 0.0
H171 H 0.56719 0.49073 0.60042 0.0
H172 H 0.6317 0.65739 0.60082 0.0
H173 H 0.6002 0.68339 0.60599 0.0
H174 H 0.61623 0.6785 0.58029 0.0
H175 H 0.49195 0.58456 0.60151 0.0
H176 H 0.50719 0.6292 0.58508 0.0
H177 H 0.52402 0.63908 0.61147 0.0
H178 H 0.56161 0.74691 0.55457 0.0
C179 C 0.55764 0.68452 0.55632 0.0
C180 C 0.19164 0.55898 0.84702 0.0
C181 C 0.22302 0.55201 0.85714 0.0
C182 C 0.21946 0.5451 0.87837 0.0
C183 C 0.15373 0.55024 0.87932 0.0
C184 C 0.15686 0.55759 0.85847 0.0
C185 C 0.11887 0.56233 0.85075 0.0
H186 H 0.92358 0.55099 0.8743 0.0
C187 C 0.11397 0.54931 0.88697 0.0
C188 C 0.09279 0.55628 0.87038 0.0
H189 H 0.98364 0.57699 0.81474 0.0
H190 H 0.04646 0.5747 0.82906 0.0
H191 H 0.94446 0.47821 0.8873 0.0
H192 H 1.00843 0.61675 0.89775 0.0
H193 H 1.01649 0.59496 0.92026 0.0
H194 H 0.96162 0.57902 0.91225 0.0
H195 H 0.92382 0.50339 0.90449 0.0
H196 H 0.96157 0.48638 0.91289 0.0
C197 C 0.09284 0.52558 0.83507 0.0
C198 C 0.13715 0.60867 0.84186 0.0
C199 C 0.07647 0.5195 0.96262 0.0
C200 C 0.04152 0.51587 0.97446 0.0
C201 C 1.0092 0.52192 0.96487 0.0
C202 C 1.01111 0.53058 0.94394 0.0
C203 C 0.04585 0.53353 0.93225 0.0
C204 C 0.07794 0.52839 0.94164 0.0
C205 C 0.11258 0.53319 0.92679 0.0
C206 C 0.09588 0.54202 0.90695 0.0
C207 C 0.05678 0.54193 0.91028 0.0
C208 C 0.11235 0.48905 0.92609 0.0
C209 C 0.15649 0.57319 0.93362 0.0
C210 C 0.9502 0.55615 0.86428 0.0
C211 C 0.94847 0.56362 0.8434 0.0
C212 C 0.98422 0.57102 0.83093 0.0
C213 C 1.02043 0.56942 0.83925 0.0
C214 C 0.02099 0.56074 0.86026 0.0
C215 C 0.98627 0.55509 0.8723 0.0
C216 C 0.99165 0.54751 0.8943 0.0
C217 C 0.03485 0.54844 0.89373 0.0
C218 C 0.05248 0.55596 0.8738 0.0
C219 C 0.9534 0.50171 0.90026 0.0
C220 C 0.99442 0.58621 0.90694 0.0
H221 H 0.18493 0.53874 0.90553 0.0
H222 H 0.19361 0.5643 0.83067 0.0
H223 H 0.16173 0.63356 0.85242 0.0
H224 H 0.11168 0.61768 0.8398 0.0
H225 H 0.15334 0.61153 0.82691 0.0
H226 H 0.0863 0.49347 0.84117 0.0
H227 H 0.11144 0.5317 0.82057 0.0
H228 H 0.06075 0.52201 0.83152 0.0
H229 H 0.10185 0.51496 0.96941 0.0
H230 H 0.98248 0.52052 0.97362 0.0
H231 H 0.98526 0.53452 0.93771 0.0
H232 H 0.07912 0.46097 0.92912 0.0
H233 H 0.13467 0.48815 0.93776 0.0
H234 H 0.12103 0.48181 0.9109 0.0
H235 H 0.15116 0.59888 0.94074 0.0
H236 H 0.1789 0.58992 0.92073 0.0
H237 H 0.17334 0.56365 0.94507 0.0
H238 H 0.24331 0.54007 0.88647 0.0
C239 C 0.18538 0.54436 0.88944 0.0
C240 C 0.95043 0.45151 0.48353 0.0
C241 C 0.92606 0.40733 0.47757 0.0
C242 C 0.92052 0.39671 0.45657 0.0
C243 C 0.96185 0.4734 0.44786 0.0
C244 C 0.96829 0.48392 0.46842 0.0
C245 C 0.99569 0.53252 0.4719 0.0
H246 H 0.12419 0.73289 0.43136 0.0
C247 C 0.98358 0.51438 0.43609 0.0
C248 C 1.00375 0.54926 0.45004 0.0
H249 H 0.09928 0.69849 0.49538 0.0
H250 H 0.04641 0.62428 0.48614 0.0
H251 H 0.12616 0.65054 0.41593 0.0
H252 H 0.02236 0.68042 0.41871 0.0
H253 H 1.01245 0.64829 0.39666 0.0
H254 H 0.06208 0.70065 0.39857 0.0
H255 H 0.12357 0.69033 0.39986 0.0
H256 H 0.09747 0.63349 0.39269 0.0
C257 C 0.03832 0.54141 0.48269 0.0
C258 C 0.96825 0.54807 0.48407 0.0
C259 C 0.9756 0.50886 0.3585 0.0
C260 C 0.99424 0.54136 0.34338 0.0
C261 C 1.01914 0.58557 0.34945 0.0
C262 C 0.02601 0.59714 0.37016 0.0
C263 C 1.00811 0.5642 0.38505 0.0
C264 C 0.98306 0.52097 0.37914 0.0
C265 C 0.9672 0.4904 0.39709 0.0
C266 C 0.9866 0.52255 0.41475 0.0
C267 C 1.01061 0.5656 0.40757 0.0
C268 C 0.98681 0.45971 0.39549 0.0
C269 C 0.91664 0.46647 0.39718 0.0
C270 C 0.10682 0.70985 0.44348 0.0
C271 C 0.11681 0.7217 0.46415 0.0
C272 C 0.09329 0.69012 0.47931 0.0
C273 C 0.06253 0.64697 0.47393 0.0
C274 C 0.05503 0.63518 0.45318 0.0
C275 C 0.07589 0.66679 0.43839 0.0
C276 C 0.06295 0.64881 0.41712 0.0
C277 C 0.03228 0.60081 0.42155 0.0
C278 C 0.02815 0.59284 0.44268 0.0
C279 C 0.10452 0.65626 0.40561 0.0
C280 C 0.03896 0.67069 0.40706 0.0
H281 H 0.93216 0.41913 0.42606 0.0
H282 H 0.95528 0.46062 0.49955 0.0
H283 H 0.93317 0.52884 0.47972 0.0
H284 H 0.97779 0.58244 0.48087 0.0
H285 H 0.97052 0.54408 0.50078 0.0
H286 H 0.05068 0.52054 0.47604 0.0
H287 H 0.0327 0.53394 0.49927 0.0
H288 H 0.06532 0.57527 0.48085 0.0
H289 H 0.95596 0.47461 0.35441 0.0
H290 H 0.03455 0.61128 0.33819 0.0
H291 H 0.04583 0.63126 0.37374 0.0
H292 H 1.0184 0.4756 0.38708 0.0
H293 H 0.9644 0.42894 0.38725 0.0
H294 H 0.9949 0.45158 0.41057 0.0
H295 H 0.90481 0.48939 0.39312 0.0
H296 H 0.90236 0.45345 0.41233 0.0
H297 H 0.90281 0.43925 0.38588 0.0
H298 H 0.9012 0.363 0.45157 0.0
C299 C 0.93815 0.42942 0.44173 0.0
C300 C 0.62425 0.9905 0.78616 0.0
C301 C 0.63932 0.97 0.77241 0.0
C302 C 0.65013 0.98609 0.75229 0.0
C303 C 0.6266 0.03854 0.75913 0.0
C304 C 0.61838 0.02484 0.77921 0.0
C305 C 0.60276 0.05063 0.79157 0.0
H306 H 0.53435 0.1995 0.79256 0.0
C307 C 0.61452 0.07254 0.75629 0.0
C308 C 0.60093 0.0803 0.77525 0.0
H309 H 0.55254 0.1354 0.84462 0.0
H310 H 0.57717 0.09697 0.82212 0.0
H311 H 0.62252 0.22469 0.77234 0.0
H312 H 0.49427 0.11491 0.76121 0.0
H313 H 0.51881 0.13571 0.73738 0.0
H314 H 0.50951 0.17011 0.75467 0.0
H315 H 0.58205 0.23012 0.75819 0.0
H316 H 0.61852 0.21517 0.74587 0.0
C317 C 0.63738 0.07691 0.80818 0.0
C318 C 0.55696 0.01851 0.80018 0.0
C319 C 0.61101 0.12413 0.6845 0.0
C320 C 0.59724 0.15208 0.67638 0.0
C321 C 0.58455 0.17496 0.68993 0.0
C322 C 0.58415 0.16884 0.71112 0.0
C323 C 0.59643 0.13943 0.7189 0.0
C324 C 0.61034 0.11834 0.70563 0.0
C325 C 0.62182 0.08797 0.71645 0.0
C326 C 0.61202 0.09389 0.73845 0.0
C327 C 0.59689 0.12375 0.73978 0.0
C328 C 0.67112 0.10461 0.71302 0.0
C329 C 0.59078 0.04092 0.70846 0.0
C330 C 0.54279 0.17649 0.79908 0.0
C331 C 0.5407 0.16964 0.82027 0.0
C332 C 0.55354 0.14076 0.82828 0.0
C333 C 0.56795 0.11872 0.81523 0.0
C334 C 0.57018 0.12631 0.79402 0.0
C335 C 0.55799 0.1551 0.78636 0.0
C336 C 0.5649 0.16156 0.76371 0.0
C337 C 0.58352 0.13208 0.75893 0.0
C338 C 0.58593 0.11088 0.77664 0.0
C339 C 0.59847 0.21039 0.75964 0.0
C340 C 0.51974 0.14507 0.75356 0.0
H341 H 0.65198 0.0301 0.73002 0.0
H342 H 0.61602 0.97935 0.80178 0.0
H343 H 0.53588 0.99551 0.78803 0.0
H344 H 0.53953 0.03507 0.80586 0.0
H345 H 0.55918 0.9988 0.81284 0.0
H346 H 0.6707 0.08529 0.80303 0.0
H347 H 0.63042 0.05788 0.82255 0.0
H348 H 0.63987 0.10882 0.81156 0.0
H349 H 0.62032 0.10546 0.6746 0.0
H350 H 0.57434 0.19716 0.68412 0.0
H351 H 0.57354 0.18668 0.7206 0.0
H352 H 0.68961 0.1404 0.70994 0.0
H353 H 0.67634 0.0879 0.69978 0.0
H354 H 0.68706 0.10046 0.72671 0.0
H355 H 0.55706 0.03522 0.70653 0.0
H356 H 0.5874 0.01513 0.71902 0.0
H357 H 0.60183 0.03548 0.69338 0.0
H358 H 0.66326 0.97216 0.74155 0.0
C359 C 0.64383 0.02006 0.74561 0.0
C360 C 0.66206 0.55828 0.1506 0.0
C361 C 0.70616 0.58027 0.1446 0.0
C362 C 0.71656 0.58968 0.12373 0.0
C363 C 0.63985 0.55327 0.11512 0.0
C364 C 0.62953 0.5454 0.13564 0.0
C365 C 0.58097 0.5218 0.13921 0.0
H366 H 0.37896 0.44547 0.0999 0.0
C367 C 0.59879 0.53414 0.10342 0.0
C368 C 0.56406 0.51592 0.11742 0.0
H369 H 0.4146 0.44882 0.16345 0.0
H370 H 0.4895 0.47552 0.15363 0.0
H371 H 0.45758 0.53397 0.08636 0.0
H372 H 0.43592 0.40289 0.08422 0.0
H373 H 0.46755 0.42904 0.0626 0.0
H374 H 0.41386 0.42291 0.06522 0.0
H375 H 0.41938 0.49246 0.06933 0.0
H376 H 0.47579 0.52683 0.06237 0.0
C377 C 0.57021 0.55242 0.15188 0.0
C378 C 0.56749 0.47738 0.14953 0.0
C379 C 0.60315 0.53821 0.02573 0.0
C380 C 0.57022 0.52321 0.01075 0.0
C381 C 0.52618 0.50274 0.01701 0.0
C382 C 0.51509 0.49719 0.03775 0.0
C383 C 0.54833 0.5124 0.0525 0.0
C384 C 0.59148 0.53248 0.04643 0.0
C385 C 0.62232 0.5468 0.06431 0.0
C386 C 0.5904 0.53126 0.08209 0.0
C387 C 0.54724 0.5113 0.07504 0.0
C388 C 0.65104 0.59742 0.06379 0.0
C389 C 0.64825 0.52211 0.06317 0.0
C390 C 0.40245 0.4509 0.11177 0.0
C391 C 0.39063 0.44568 0.13254 0.0
C392 C 0.42284 0.45365 0.14736 0.0
C393 C 0.46639 0.46918 0.14164 0.0
C394 C 0.47795 0.47669 0.12089 0.0
C395 C 0.44591 0.46611 0.10634 0.0
C396 C 0.46376 0.47481 0.08496 0.0
C397 C 0.51211 0.49426 0.08913 0.0
C398 C 0.52037 0.49575 0.11019 0.0
C399 C 0.45352 0.50855 0.07505 0.0
C400 C 0.44424 0.43036 0.07349 0.0
H401 H 0.69383 0.58373 0.09337 0.0
H402 H 0.65311 0.55079 0.16653 0.0
H403 H 0.58769 0.46349 0.14377 0.0
H404 H 0.53346 0.45212 0.14609 0.0
H405 H 0.57186 0.48114 0.16637 0.0
H406 H 0.5901 0.58686 0.14661 0.0
H407 H 0.57743 0.5516 0.16834 0.0
H408 H 0.53602 0.54461 0.15029 0.0
H409 H 0.63729 0.55385 0.02148 0.0
H410 H 0.50015 0.49169 0.00585 0.0
H411 H 0.48103 0.48167 0.04146 0.0
H412 H 0.63397 0.61264 0.05602 0.0
H413 H 0.68211 0.60781 0.05547 0.0
H414 H 0.65845 0.61226 0.07925 0.0
H415 H 0.62642 0.48733 0.05869 0.0
H416 H 0.66254 0.52084 0.07794 0.0
H417 H 0.67478 0.53712 0.05162 0.0
H418 H 0.75023 0.60592 0.11865 0.0
C419 C 0.68372 0.5763 0.109 0.0
H420 H 0.13811 0.42283 0.12155 0.0
H421 H 0.36825 0.47797 0.16574 0.0
H422 H 0.18118 0.47047 0.18282 0.0
H423 H 0.31177 0.39387 0.11305 0.0
H424 H 0.29832 0.47258 0.17266 0.0
H425 H 0.20006 0.40987 0.11791 0.0
C426 C 0.16033 0.43011 0.13426 0.0
C427 C 0.15498 0.44816 0.15241 0.0
C428 C 0.301 0.45481 0.15971 0.0
C429 C 0.22541 0.43372 0.14841 0.0
C430 C 0.34101 0.45754 0.15583 0.0
C431 C 0.34634 0.43672 0.13863 0.0
C432 C 0.26605 0.43173 0.14614 0.0
C433 C 0.30964 0.41146 0.12619 0.0
C434 C 0.19551 0.42263 0.13222 0.0
C435 C 0.18442 0.45691 0.16848 0.0
N436 N 0.27121 0.41023 0.13 0.0
N437 N 0.21858 0.45002 0.16603 0.0
H438 H 0.75001 0.1492 0.50822 0.0
H439 H 0.87739 0.40674 0.51026 0.0
H440 H 0.70177 0.22777 0.53621 0.0
H441 H 0.9214 0.32761 0.47921 0.0
H442 H 0.82489 0.3423 0.52936 0.0
H443 H 0.82321 0.2133 0.50744 0.0
C444 C 0.75511 0.17972 0.51471 0.0
C445 C 0.71978 0.18367 0.52177 0.0
C446 C 0.84672 0.3392 0.51872 0.0
C447 C 0.80298 0.25721 0.52053 0.0
C448 C 0.87689 0.37607 0.5079 0.0
C449 C 0.9029 0.37214 0.49276 0.0
C450 C 0.84245 0.29823 0.51422 0.0
C451 C 0.90098 0.33167 0.49035 0.0
C452 C 0.79687 0.21637 0.51421 0.0
C453 C 0.72813 0.22368 0.53026 0.0
N454 N 0.87061 0.29607 0.50065 0.0
N455 N 0.76875 0.25925 0.52896 0.0
H456 H 0.6379 0.72376 0.77254 0.0
H457 H 0.66502 0.95299 0.80942 0.0
H458 H 0.64579 0.76076 0.836 0.0
H459 H 0.62012 0.89765 0.74929 0.0
H460 H 0.66855 0.88766 0.81877 0.0
H461 H 0.64356 0.7935 0.76286 0.0
C462 C 0.64137 0.74684 0.78439 0.0
C463 C 0.64116 0.7366 0.80506 0.0
C464 C 0.65814 0.89006 0.8035 0.0
C465 C 0.64742 0.81599 0.79421 0.0
C466 C 0.65585 0.9272 0.79819 0.0
C467 C 0.64241 0.93105 0.7785 0.0
C468 C 0.64714 0.85665 0.78899 0.0
C469 C 0.63154 0.89672 0.76451 0.0
C470 C 0.64435 0.78645 0.7789 0.0
C471 C 0.64562 0.76746 0.81988 0.0
N472 N 0.63418 0.86108 0.77002 0.0
N473 N 0.64843 0.80576 0.81417 0.0
H474 H 0.88069 0.5204 0.20235 0.0
H475 H 0.78561 0.65499 0.14846 0.0
H476 H 0.95766 0.64162 0.17 0.0
H477 H 0.70728 0.52611 0.17404 0.0
H478 H 0.84935 0.66175 0.16633 0.0
H479 H 0.81902 0.53363 0.20233 0.0
C480 C 0.88494 0.55039 0.19573 0.0
C481 C 0.92378 0.57946 0.18569 0.0
C482 C 0.81803 0.63237 0.16842 0.0
C483 C 0.85351 0.5945 0.18536 0.0
C484 C 0.78168 0.6285 0.1582 0.0
C485 C 0.74144 0.58949 0.15937 0.0
C486 C 0.81414 0.59675 0.17966 0.0
C487 C 0.73782 0.55659 0.17257 0.0
C488 C 0.84971 0.55788 0.19567 0.0
C489 C 0.92786 0.618 0.17755 0.0
N490 N 0.77398 0.56055 0.18184 0.0
N491 N 0.89281 0.624 0.17719 0.0
H492 H 0.35706 0.92498 0.51561 0.0
H493 H 0.14509 0.80138 0.44525 0.0
H494 H 0.35201 0.96863 0.45468 0.0
H495 H 0.17532 0.74151 0.49539 0.0
H496 H 0.2135 0.86955 0.4517 0.0
H497 H 0.28266 0.8647 0.5116 0.0
C498 C 0.34011 0.92199 0.50139 0.0
C499 C 0.36075 0.95147 0.48534 0.0
C500 C 0.20473 0.84149 0.46136 0.0
C501 C 0.27547 0.88246 0.48067 0.0
C502 C 0.16579 0.8025 0.45769 0.0
C503 C 0.15441 0.76524 0.46966 0.0
C504 C 0.23214 0.8434 0.47727 0.0
C505 C 0.18214 0.76922 0.48588 0.0
C506 C 0.29765 0.88753 0.49912 0.0
C507 C 0.3372 0.94629 0.46733 0.0
N508 N 0.21972 0.80746 0.48912 0.0
N509 N 0.29566 0.91213 0.4654 0.0
H510 H 0.45864 0.35238 0.84239 0.0
H511 H 0.58579 0.22104 0.8529 0.0
H512 H 0.58523 0.40424 0.87057 0.0
H513 H 0.46875 0.17878 0.81741 0.0
H514 H 0.57469 0.27797 0.86867 0.0
H515 H 0.45062 0.27944 0.84276 0.0
C516 C 0.48426 0.34818 0.84914 0.0
C517 C 0.52303 0.3844 0.85606 0.0
C518 C 0.55085 0.25555 0.85781 0.0
C519 C 0.51454 0.30134 0.85618 0.0
C520 C 0.55702 0.2229 0.84893 0.0
C521 C 0.52848 0.19577 0.83363 0.0
C522 C 0.51593 0.26093 0.85128 0.0
C523 C 0.49185 0.19961 0.82892 0.0
C524 C 0.47978 0.30657 0.84928 0.0
C525 C 0.55506 0.37716 0.86482 0.0
N526 N 0.48698 0.23206 0.83747 0.0
N527 N 0.55051 0.33655 0.86424 0.0
H528 H 0.4816 0.91045 0.48906 0.0
H529 H 0.62253 0.79998 0.52302 0.0
H530 H 0.61505 0.98243 0.51013 0.0
H531 H 0.48759 0.72442 0.50507 0.0
H532 H 0.62217 0.86711 0.51422 0.0
H533 H 0.48434 0.84247 0.4915 0.0
C534 C 0.51154 0.91212 0.49413 0.0
C535 C 0.54809 0.95251 0.49951 0.0
C536 C 0.59272 0.83594 0.51186 0.0
C537 C 0.55143 0.87445 0.50222 0.0
C538 C 0.59309 0.79758 0.51669 0.0
C539 C 0.55519 0.75662 0.51455 0.0
C540 C 0.55391 0.83363 0.50506 0.0
C541 C 0.51767 0.75534 0.50664 0.0
C542 C 0.51306 0.87318 0.49549 0.0
C543 C 0.58592 0.95229 0.50593 0.0
N544 N 0.51781 0.79331 0.50238 0.0
N545 N 0.58652 0.91405 0.50714 0.0
H546 H 0.749 0.6311 0.81302 0.0
H547 H 0.86589 0.49498 0.84528 0.0
H548 H 0.68172 0.49673 0.83314 0.0
H549 H 0.93888 0.62812 0.82423 0.0
H550 H 0.79803 0.49443 0.83784 0.0
H551 H 0.81837 0.6306 0.81438 0.0
C552 C 0.74863 0.60143 0.81757 0.0
C553 C 0.70917 0.56399 0.82309 0.0
C554 C 0.82872 0.52375 0.83457 0.0
C555 C 0.78862 0.56324 0.82467 0.0
C556 C 0.86753 0.52393 0.83873 0.0
C557 C 0.90808 0.56156 0.83529 0.0
C558 C 0.83002 0.56174 0.82713 0.0
C559 C 0.90828 0.5983 0.82691 0.0
C560 C 0.78832 0.6012 0.81836 0.0
C561 C 0.71103 0.52657 0.82887 0.0
N562 N 0.86984 0.59767 0.82332 0.0
N563 N 0.74982 0.52728 0.82956 0.0
H564 H 0.12067 0.67141 0.17552 0.0
H565 H 0.38015 0.80886 0.15699 0.0
H566 H 0.19311 0.61368 0.15004 0.0
H567 H 0.30715 0.85656 0.19052 0.0
H568 H 0.31162 0.73998 0.15038 0.0
H569 H 0.18807 0.74171 0.17747 0.0
C570 C 0.15067 0.67341 0.17024 0.0
C571 C 0.15091 0.63615 0.16269 0.0
C572 C 0.31061 0.7657 0.15904 0.0
C573 C 0.22896 0.7174 0.1649 0.0
C574 C 0.34967 0.80514 0.16266 0.0
C575 C 0.34945 0.83846 0.17442 0.0
C576 C 0.27101 0.75973 0.16708 0.0
C577 C 0.30899 0.83164 0.18156 0.0
C578 C 0.18933 0.71376 0.17139 0.0
C579 C 0.19116 0.64129 0.15606 0.0
N580 N 0.27165 0.79321 0.17785 0.0
N581 N 0.22849 0.68102 0.15736 0.0
H582 H 0.47252 0.16411 0.47973 0.0
H583 H 0.61497 0.42163 0.50305 0.0
H584 H 0.61008 0.23277 0.49413 0.0
H585 H 0.47789 0.35824 0.48875 0.0
H586 H 0.61443 0.35332 0.49587 0.0
H587 H 0.47401 0.23458 0.47949 0.0
C588 C 0.5031 0.19388 0.48264 0.0
C589 C 0.54116 0.19218 0.4871 0.0
C590 C 0.58447 0.35424 0.49395 0.0
C591 C 0.54304 0.27308 0.48687 0.0
C592 C 0.58494 0.39342 0.49789 0.0
C593 C 0.54657 0.39568 0.49625 0.0
C594 C 0.54512 0.31645 0.48863 0.0
C595 C 0.5083 0.35796 0.48988 0.0
C596 C 0.50389 0.23414 0.48253 0.0
C597 C 0.57975 0.23205 0.49078 0.0
N598 N 0.5084 0.31973 0.48651 0.0
N599 N 0.57958 0.27052 0.49067 0.0
H600 H 0.42317 0.48508 0.84068 0.0
H601 H 0.29394 0.6183 0.83732 0.0
H602 H 0.48336 0.61939 0.82082 0.0
H603 H 0.23639 0.48285 0.85439 0.0
H604 H 0.36159 0.61844 0.82787 0.0
H605 H 0.35334 0.48298 0.8432 0.0
C606 C 0.42182 0.51421 0.83681 0.0
C607 C 0.4596 0.55257 0.83065 0.0
C608 C 0.33387 0.58846 0.83331 0.0
C609 C 0.37891 0.55035 0.83352 0.0
C610 C 0.29512 0.58828 0.83846 0.0
C611 C 0.25946 0.55041 0.84648 0.0
C612 C 0.33692 0.55052 0.83633 0.0
C613 C 0.26305 0.51265 0.84814 0.0
C614 C 0.38171 0.51293 0.83819 0.0
C615 C 0.4553 0.58908 0.8257 0.0
N616 N 0.30105 0.51378 0.84331 0.0
N617 N 0.41586 0.58717 0.82737 0.0
H618 H 0.94625 0.34464 0.15552 0.0
H619 H 0.68514 0.22317 0.16742 0.0
H620 H 0.87251 0.41166 0.16035 0.0
H621 H 0.75999 0.15938 0.17817 0.0
H622 H 0.75237 0.28971 0.15726 0.0
H623 H 0.87761 0.2744 0.157 0.0
C624 C 0.9157 0.34469 0.15667 0.0
C625 C 0.91539 0.38434 0.15797 0.0
C626 C 0.75404 0.26087 0.16138 0.0
C627 C 0.83651 0.30383 0.15954 0.0
C628 C 0.71556 0.22273 0.16688 0.0
C629 C 0.71696 0.18554 0.17323 0.0
C630 C 0.79436 0.26196 0.16235 0.0
C631 C 0.75748 0.18714 0.17296 0.0
C632 C 0.8765 0.30452 0.15757 0.0
C633 C 0.8746 0.3821 0.15949 0.0
N634 N 0.79457 0.22476 0.16777 0.0
N635 N 0.83701 0.34271 0.16027 0.0
H636 H 0.08379 0.51656 0.10631 0.0
H637 H 0.96825 0.46366 -0.00313 0.0
H638 H 0.95654 0.50071 0.09497 0.0
H639 H 0.10791 0.54633 0.00299 0.0
H640 H 0.96222 0.45655 0.03396 0.0
H641 H 0.09148 0.50791 0.06925 0.0
C642 C 0.05728 0.51046 0.09606 0.0
C643 C 1.01961 0.50957 0.10349 0.0
C644 C 0.99422 0.47588 0.02713 0.0
C645 C 0.02775 0.49903 0.06171 0.0
C646 C 0.99771 0.48024 0.00597 0.0
C647 C 0.03854 0.5066 -0.00324 0.0
C648 C 0.03181 0.49757 0.03927 0.0
C649 C 0.07574 0.52586 0.0094 0.0
C650 C 0.06175 0.50578 0.07503 0.0
C651 C 0.98622 0.50191 0.08974 0.0
N652 N 0.07146 0.52133 0.03008 0.0
N653 N 0.99102 0.49686 0.06953 0.0
H654 H 0.49361 0.04219 0.44138 0.0
H655 H 0.59368 0.04819 0.33065 0.0
H656 H 0.63103 0.10101 0.42796 0.0
H657 H 0.45886 1.01314 0.33895 0.0
H658 H 0.60549 0.06137 0.36716 0.0
H659 H 0.47761 0.02535 0.4047 0.0
C660 C 0.52028 0.0515 0.43072 0.0
C661 C 0.56365 0.073 0.43761 0.0
C662 C 0.57327 0.05089 0.36106 0.0
C663 C 0.54584 0.05379 0.39602 0.0
C664 C 0.56655 0.04357 0.34014 0.0
C665 C 0.52535 0.03014 0.33162 0.0
C666 C 0.53855 0.04458 0.37378 0.0
C667 C 0.49114 0.02338 0.34487 0.0
C668 C 0.5112 0.04196 0.40986 0.0
C669 C 0.59711 0.08443 0.42328 0.0
N670 N 0.49852 0.03082 0.36532 0.0
N671 N 0.5875 0.07462 0.40324 0.0
H672 H 0.6091 0.6017 0.77107 0.0
H673 H 0.51453 0.48326 0.66326 0.0
H674 H 0.52508 0.46291 0.76214 0.0
H675 H 0.61209 0.62 0.66747 0.0
H676 H 0.5136 0.47838 0.70028 0.0
H677 H 0.60724 0.61229 0.7339 0.0
C678 C 0.59018 0.57364 0.76132 0.0
C679 C 0.5672 0.53144 0.76961 0.0
C680 C 0.53531 0.50958 0.69323 0.0
C681 C 0.56479 0.54305 0.72746 0.0
C682 C 0.53592 0.51231 0.67204 0.0
C683 C 0.56398 0.55189 0.66228 0.0
C684 C 0.56304 0.54669 0.70493 0.0
C685 C 0.59009 0.58882 0.67445 0.0
C686 C 0.58917 0.57962 0.74017 0.0
C687 C 0.54338 0.49603 0.75639 0.0
N688 N 0.58929 0.58527 0.69521 0.0
N689 N 0.54279 0.50265 0.73606 0.0
H690 H 0.59414 0.08905 0.54959 0.0
H691 H 0.53174 0.15502 0.65538 0.0
H692 H 0.48851 0.11615 0.55652 0.0
H693 H 0.6515 0.15256 0.64606 0.0
H694 H 0.51862 0.14663 0.61866 0.0
H695 H 0.61857 0.11664 0.5843 0.0
C696 C 0.57638 0.10121 0.55838 0.0
C697 C 0.53913 0.10008 0.55033 0.0
C698 C 0.54807 0.14847 0.6246 0.0
C699 C 0.56645 0.13121 0.58998 0.0
C700 C 0.55579 0.15364 0.6456 0.0
C701 C 0.59254 0.15397 0.65391 0.0
C702 C 0.57704 0.14313 0.6118 0.0
C703 C 0.62219 0.15141 0.64041 0.0
C704 C 0.59032 0.11699 0.57816 0.0
C705 C 0.51723 0.11617 0.56227 0.0
N706 N 0.6135 0.14551 0.62006 0.0
N707 N 0.53096 0.13069 0.58159 0.0
H708 H 0.54672 0.51246 0.87992 0.0
H709 H 0.63742 0.59498 0.99219 0.0
H710 H 0.67007 0.62905 0.89186 0.0
H711 H 0.52852 0.46652 0.97901 0.0
H712 H 0.65179 0.60709 0.95558 0.0
H713 H 0.54089 0.4939 0.91614 0.0
C714 C 0.5728 0.5339 0.89018 0.0
C715 C 0.60882 0.57241 0.883 0.0
C716 C 0.62498 0.57611 0.96072 0.0
C717 C 0.60215 0.55181 0.92446 0.0
C718 C 0.61686 0.56907 0.98163 0.0
C719 C 0.58142 0.52981 0.9887 0.0
C720 C 0.59728 0.5438 0.94676 0.0
C721 C 0.5556 0.49767 0.97426 0.0
C722 C 0.56947 0.52333 0.91085 0.0
C723 C 0.64168 0.59913 0.89687 0.0
N724 N 0.56382 0.50552 0.95398 0.0
N725 N 0.63735 0.58856 0.91702 0.0
H726 H 1.00465 0.42785 0.22783 0.0
H727 H 0.98329 0.58364 0.31067 0.0
H728 H 0.023 0.55536 0.21376 0.0
H729 H 0.99632 0.47165 0.32591 0.0
H730 H 0.98449 0.56717 0.27441 0.0
H731 H 0.98762 0.43675 0.26318 0.0
C732 C 1.00467 0.45754 0.23217 0.0
C733 C 1.0156 0.49112 0.21801 0.0
C734 C 0.9867 0.54604 0.28573 0.0
C735 C 0.99626 0.50155 0.25827 0.0
C736 C 0.98623 0.55551 0.30642 0.0
C737 C 0.99018 0.52928 0.3214 0.0
C738 C 0.99099 0.50999 0.27996 0.0
C739 C 0.99284 0.49263 0.31497 0.0
C740 C 0.99503 0.46264 0.25232 0.0
C741 C 1.01493 0.52882 0.22431 0.0
N742 N 0.99349 0.48427 0.29474 0.0
N743 N 1.00569 0.53316 0.24405 0.0
loop_
_geom_bond_atom_site_label_1
_geom_bond_atom_site_label_2
_geom_bond_distance
_geom_bond_site_symmetry_2
_ccdc_geom_bond_type
Dy0 O4 2.398 . S
Dy0 O5 2.491 . S
Dy0 O6 2.403 . S
Dy0 O7 2.664 . S
Dy0 O11 2.326 . S
Dy0 O15 2.310 . S
Dy0 O16 2.351 1_455 S
C1 O12 1.185 . S
C1 O13 1.355 . S
C2 O4 1.185 . S
C2 O5 1.355 . S
Dy3 O7 2.305 1_655 S
Dy3 O10 2.345 1_655 S
Dy3 O12 2.406 . S
Dy3 O13 2.498 . S
Dy3 O14 2.402 1_655 S
Dy3 O15 2.657 1_655 S
Dy3 O17 2.327 . S
O4 Dy0 2.398 . S
O4 C2 1.185 . S
O5 Dy0 2.491 . S
O5 C2 1.355 . S
O6 Dy0 2.403 . S
O6 C8 1.254 . S
O7 Dy0 2.664 . S
O7 Dy3 2.305 1_455 S
O7 C8 1.268 . S
C8 O6 1.254 . S
C8 O7 1.268 . S
C9 O14 1.254 . S
C9 O15 1.268 . S
O10 Dy3 2.345 1_455 S
O10 C18 1.249 . S
O11 Dy0 2.326 . S
O11 C18 1.267 . S
O12 C1 1.185 . S
O12 Dy3 2.406 . S
O13 C1 1.355 . S
O13 Dy3 2.498 . S
O14 Dy3 2.402 1_455 S
O14 C9 1.254 . S
O15 Dy0 2.310 . S
O15 Dy3 2.657 1_455 S
O15 C9 1.268 . S
O16 Dy0 2.351 1_655 S
O16 C19 1.249 . S
O17 Dy3 2.327 . S
O17 C19 1.267 . S
C18 O10 1.249 . S
C18 O11 1.267 . S
C19 O16 1.249 . S
C19 O17 1.267 . S
Dy20 O24 2.398 1_545 S
Dy20 O25 2.491 1_545 S
Dy20 O26 2.403 . S
Dy20 O27 2.664 . S
Dy20 O31 2.326 1_545 S
Dy20 O35 2.310 . S
Dy20 O36 2.351 . S
C21 O32 1.185 . S
C21 O33 1.355 . S
C22 O24 1.185 . S
C22 O25 1.355 . S
Dy23 O27 2.310 . S
Dy23 O30 2.351 1_545 S
Dy23 O32 2.398 . S
Dy23 O33 2.491 . S
Dy23 O34 2.403 . S
Dy23 O35 2.664 . S
Dy23 O37 2.326 . S
O24 Dy20 2.398 1_565 S
O24 C22 1.185 . S
O25 Dy20 2.491 1_565 S
O25 C22 1.355 . S
O26 Dy20 2.403 . S
O26 C28 1.254 . S
O27 Dy20 2.664 . S
O27 Dy23 2.310 . S
O27 C28 1.268 . S
C28 O26 1.254 . S
C28 O27 1.268 . S
C29 O34 1.254 . S
C29 O35 1.268 . S
O30 Dy23 2.351 1_565 S
O30 C38 1.249 . S
O31 Dy20 2.326 1_565 S
O31 C38 1.267 . S
O32 C21 1.185 . S
O32 Dy23 2.398 . S
O33 C21 1.355 . S
O33 Dy23 2.491 . S
O34 Dy23 2.403 . S
O34 C29 1.254 . S
O35 Dy20 2.310 . S
O35 Dy23 2.664 . S
O35 C29 1.268 . S
O36 Dy20 2.351 . S
O36 C39 1.249 . S
O37 Dy23 2.326 . S
O37 C39 1.267 . S
C38 O30 1.249 . S
C38 O31 1.267 . S
C39 O36 1.249 . S
C39 O37 1.267 . S
Dy40 O44 2.398 . S
Dy40 O45 2.491 . S
Dy40 O46 2.403 . S
Dy40 O47 2.664 . S
Dy40 O51 2.326 . S
Dy40 O55 2.310 . S
Dy40 O56 2.351 . S
C41 O52 1.185 . S
C41 O53 1.355 . S
C42 O44 1.185 . S
C42 O45 1.355 . S
Dy43 O47 2.310 . S
Dy43 O50 2.351 . S
Dy43 O52 2.398 . S
Dy43 O53 2.491 . S
Dy43 O54 2.403 . S
Dy43 O55 2.664 . S
Dy43 O57 2.326 . S
O44 Dy40 2.398 . S
O44 C42 1.185 . S
O45 Dy40 2.491 . S
O45 C42 1.355 . S
O46 Dy40 2.403 . S
O46 C48 1.254 . S
O47 Dy40 2.664 . S
O47 Dy43 2.310 . S
O47 C48 1.268 . S
C48 O46 1.254 . S
C48 O47 1.268 . S
C49 O54 1.254 . S
C49 O55 1.268 . S
O50 Dy43 2.351 . S
O50 C58 1.249 . S
O51 Dy40 2.326 . S
O51 C58 1.267 . S
O52 C41 1.185 . S
O52 Dy43 2.398 . S
O53 C41 1.355 . S
O53 Dy43 2.491 . S
O54 Dy43 2.403 . S
O54 C49 1.254 . S
O55 Dy40 2.310 . S
O55 Dy43 2.664 . S
O55 C49 1.268 . S
O56 Dy40 2.351 . S
O56 C59 1.249 . S
O57 Dy43 2.326 . S
O57 C59 1.267 . S
C58 O50 1.249 . S
C58 O51 1.267 . S
C59 O56 1.249 . S
C59 O57 1.267 . S
C60 C61 1.391 . S
C60 C64 1.391 . S
C60 H102 0.948 . S
C61 C60 1.391 . S
C61 C62 1.391 . S
C62 C61 1.391 . S
C62 H118 0.947 . S
C62 C119 1.392 . S
C63 C64 1.391 . S
C63 C67 1.397 . S
C63 C119 1.419 . S
C64 C60 1.391 . S
C64 C63 1.391 . S
C64 C65 1.399 . S
C65 C64 1.399 . S
C65 C68 1.396 . S
C65 C77 1.453 . S
C65 C78 1.684 . S
H66 C90 0.948 . S
C67 C63 1.397 . S
C67 C68 1.394 . S
C67 C86 1.723 . S
C68 C65 1.396 . S
C68 C67 1.394 . S
C68 C98 1.723 1_545 S
H69 C92 0.947 . S
H70 C93 0.948 . S
H71 C99 0.982 . S
H72 C100 0.979 . S
H73 C100 0.980 . S
H74 C100 0.983 . S
H75 C99 0.979 . S
H76 C99 0.977 . S
C77 C65 1.453 . S
C77 H106 0.982 . S
C77 H107 0.979 . S
C77 H108 0.977 1_545 S
C78 C65 1.684 . S
C78 H103 0.979 . S
C78 H104 0.980 . S
C78 H105 0.983 . S
C79 C80 1.391 . S
C79 C84 1.391 . S
C79 H109 0.948 . S
C80 C79 1.391 . S
C80 C81 1.391 1_545 S
C81 C80 1.391 1_565 S
C81 C82 1.392 . S
C81 H110 0.947 . S
C82 C81 1.392 . S
C82 C83 1.419 1_565 S
C82 H111 0.948 . S
C83 C82 1.419 1_545 S
C83 C84 1.391 . S
C83 C87 1.397 . S
C84 C79 1.391 . S
C84 C83 1.391 . S
C84 C85 1.399 . S
C85 C84 1.399 . S
C85 C86 1.396 . S
C85 C88 1.453 . S
C85 C89 1.684 . S
C86 C67 1.723 . S
C86 C85 1.396 . S
C86 C87 1.394 . S
C87 C83 1.397 . S
C87 C86 1.394 . S
C87 C97 1.723 1_545 S
C88 C85 1.453 . S
C88 H112 0.982 . S
C88 H113 0.979 . S
C88 H114 0.977 . S
C89 C85 1.684 . S
C89 H115 0.979 . S
C89 H116 0.980 . S
C89 H117 0.983 . S
C90 H66 0.948 . S
C90 C91 1.391 . S
C90 C95 1.391 . S
C91 C90 1.391 . S
C91 C92 1.391 . S
C92 H69 0.947 . S
C92 C91 1.391 . S
C92 C93 1.392 . S
C93 H70 0.948 . S
C93 C92 1.392 . S
C93 C94 1.419 . S
C94 C93 1.419 . S
C94 C95 1.391 . S
C94 C98 1.397 . S
C95 C90 1.391 . S
C95 C94 1.391 . S
C95 C96 1.399 . S
C96 C95 1.399 . S
C96 C97 1.396 . S
C96 C99 1.453 . S
C96 C100 1.684 . S
C97 C87 1.723 1_565 S
C97 C96 1.396 . S
C97 C98 1.394 . S
C98 C68 1.723 1_565 S
C98 C94 1.397 . S
C98 C97 1.394 . S
C99 H71 0.982 . S
C99 H75 0.979 . S
C99 H76 0.977 . S
C99 C96 1.453 . S
C100 H72 0.979 . S
C100 H73 0.980 . S
C100 H74 0.983 . S
C100 C96 1.684 . S
H101 C119 0.948 . S
H102 C60 0.948 . S
H103 C78 0.979 . S
H104 C78 0.980 . S
H105 C78 0.983 . S
H106 C77 0.982 . S
H107 C77 0.979 . S
H108 C77 0.977 1_565 S
H109 C79 0.948 . S
H110 C81 0.947 . S
H111 C82 0.948 . S
H112 C88 0.982 . S
H113 C88 0.979 . S
H114 C88 0.977 . S
H115 C89 0.979 . S
H116 C89 0.980 . S
H117 C89 0.983 . S
H118 C62 0.947 . S
C119 C62 1.392 . S
C119 C63 1.419 . S
C119 H101 0.948 . S
C120 C121 1.391 . S
C120 C124 1.391 . S
C120 H162 0.948 . S
C121 C120 1.391 . S
C121 C122 1.391 . S
C122 C121 1.391 . S
C122 H178 0.947 . S
C122 C179 1.392 . S
C123 C124 1.391 . S
C123 C127 1.397 . S
C123 C179 1.419 . S
C124 C120 1.391 . S
C124 C123 1.391 . S
C124 C125 1.399 . S
C125 C124 1.399 . S
C125 C128 1.396 . S
C125 C137 1.453 . S
C125 C138 1.684 . S
H126 C150 0.948 . S
C127 C123 1.397 . S
C127 C128 1.394 . S
C127 C146 1.723 . S
C128 C125 1.396 . S
C128 C127 1.394 . S
C128 C158 1.723 . S
H129 C152 0.947 . S
H130 C153 0.948 . S
H131 C159 0.982 . S
H132 C160 0.979 . S
H133 C160 0.980 . S
H134 C160 0.983 . S
H135 C159 0.979 . S
H136 C159 0.977 . S
C137 C125 1.453 . S
C137 H166 0.982 . S
C137 H167 0.979 . S
C137 H168 0.977 . S
C138 C125 1.684 . S
C138 H163 0.979 . S
C138 H164 0.980 . S
C138 H165 0.983 . S
C139 C140 1.391 . S
C139 C144 1.391 . S
C139 H169 0.948 . S
C140 C139 1.391 . S
C140 C141 1.391 . S
C141 C140 1.391 . S
C141 C142 1.392 . S
C141 H170 0.947 . S
C142 C141 1.392 . S
C142 C143 1.419 . S
C142 H171 0.948 . S
C143 C142 1.419 . S
C143 C144 1.391 . S
C143 C147 1.397 . S
C144 C139 1.391 . S
C144 C143 1.391 . S
C144 C145 1.399 . S
C145 C144 1.399 . S
C145 C146 1.396 . S
C145 C148 1.453 . S
C145 C149 1.684 . S
C146 C127 1.723 . S
C146 C145 1.396 . S
C146 C147 1.394 . S
C147 C143 1.397 . S
C147 C146 1.394 . S
C147 C157 1.723 . S
C148 C145 1.453 . S
C148 H172 0.982 . S
C148 H173 0.979 . S
C148 H174 0.977 . S
C149 C145 1.684 . S
C149 H175 0.979 . S
C149 H176 0.980 . S
C149 H177 0.983 . S
C150 H126 0.948 . S
C150 C151 1.391 . S
C150 C155 1.391 . S
C151 C150 1.391 . S
C151 C152 1.391 . S
C152 H129 0.947 . S
C152 C151 1.391 . S
C152 C153 1.392 . S
C153 H130 0.948 . S
C153 C152 1.392 . S
C153 C154 1.419 . S
C154 C153 1.419 . S
C154 C155 1.391 . S
C154 C158 1.397 . S
C155 C150 1.391 . S
C155 C154 1.391 . S
C155 C156 1.399 . S
C156 C155 1.399 . S
C156 C157 1.396 . S
C156 C159 1.453 . S
C156 C160 1.684 . S
C157 C147 1.723 . S
C157 C156 1.396 . S
C157 C158 1.394 . S
C158 C128 1.723 . S
C158 C154 1.397 . S
C158 C157 1.394 . S
C159 H131 0.982 . S
C159 H135 0.979 . S
C159 H136 0.977 . S
C159 C156 1.453 . S
C160 H132 0.979 . S
C160 H133 0.980 . S
C160 H134 0.983 . S
C160 C156 1.684 . S
H161 C179 0.948 . S
H162 C120 0.948 . S
H163 C138 0.979 . S
H164 C138 0.980 . S
H165 C138 0.983 . S
H166 C137 0.982 . S
H167 C137 0.979 . S
H168 C137 0.977 . S
H169 C139 0.948 . S
H170 C141 0.947 . S
H171 C142 0.948 . S
H172 C148 0.982 . S
H173 C148 0.979 . S
H174 C148 0.977 . S
H175 C149 0.979 . S
H176 C149 0.980 . S
H177 C149 0.983 . S
H178 C122 0.947 . S
C179 C122 1.392 . S
C179 C123 1.419 . S
C179 H161 0.948 . S
C180 C181 1.391 . S
C180 C184 1.391 . S
C180 H222 0.948 . S
C181 C180 1.391 . S
C181 C182 1.391 . S
C182 C181 1.391 . S
C182 H238 0.947 . S
C182 C239 1.392 . S
C183 C184 1.391 . S
C183 C187 1.397 . S
C183 C239 1.419 . S
C184 C180 1.391 . S
C184 C183 1.391 . S
C184 C185 1.399 . S
C185 C184 1.399 . S
C185 C188 1.396 . S
C185 C197 1.453 . S
C185 C198 1.684 . S
H186 C210 0.948 . S
C187 C183 1.397 . S
C187 C188 1.394 . S
C187 C206 1.723 . S
C188 C185 1.396 . S
C188 C187 1.394 . S
C188 C218 1.723 . S
H189 C212 0.947 . S
H190 C213 0.930 1_455 S
H191 C219 0.982 . S
H192 C220 0.979 . S
H193 C220 0.980 . S
H194 C220 0.983 . S
H195 C219 0.979 . S
H196 C219 0.977 . S
C197 C185 1.453 . S
C197 H226 0.982 . S
C197 H227 0.979 . S
C197 H228 0.977 . S
C198 C185 1.684 . S
C198 H223 0.979 . S
C198 H224 0.980 . S
C198 H225 0.983 . S
C199 C200 1.391 . S
C199 C204 1.391 . S
C199 H229 0.948 . S
C200 C199 1.391 . S
C200 C201 1.391 . S
C201 C200 1.391 . S
C201 C202 1.392 . S
C201 H230 0.947 1_455 S
C202 C201 1.392 . S
C202 C203 1.419 . S
C202 H231 0.948 1_455 S
C203 C202 1.419 . S
C203 C204 1.391 . S
C203 C207 1.397 . S
C204 C199 1.391 . S
C204 C203 1.391 . S
C204 C205 1.399 . S
C205 C204 1.399 . S
C205 C206 1.396 . S
C205 C208 1.453 . S
C205 C209 1.684 . S
C206 C187 1.723 . S
C206 C205 1.396 . S
C206 C207 1.394 . S
C207 C203 1.397 . S
C207 C206 1.394 . S
C207 C217 1.723 . S
C208 C205 1.453 . S
C208 H232 0.982 . S
C208 H233 0.979 . S
C208 H234 0.977 . S
C209 C205 1.684 . S
C209 H235 0.979 . S
C209 H236 0.980 . S
C209 H237 0.983 . S
C210 H186 0.948 . S
C210 C211 1.391 . S
C210 C215 1.391 . S
C211 C210 1.391 . S
C211 C212 1.391 . S
C212 H189 0.947 . S
C212 C211 1.391 . S
C212 C213 1.412 . S
C213 H190 0.930 1_655 S
C213 C212 1.412 . S
C213 C214 1.417 . S
C214 C213 1.417 . S
C214 C215 1.391 . S
C214 C218 1.397 1_655 S
C215 C210 1.391 . S
C215 C214 1.391 . S
C215 C216 1.399 . S
C216 C215 1.399 . S
C216 C217 1.396 1_655 S
C216 C219 1.453 . S
C216 C220 1.684 . S
C217 C207 1.723 . S
C217 C216 1.396 1_455 S
C217 C218 1.394 . S
C218 C188 1.723 . S
C218 C214 1.397 1_455 S
C218 C217 1.394 . S
C219 H191 0.982 . S
C219 H195 0.979 . S
C219 H196 0.977 . S
C219 C216 1.453 . S
C220 H192 0.979 . S
C220 H193 0.980 . S
C220 H194 0.983 . S
C220 C216 1.684 . S
H221 C239 0.948 . S
H222 C180 0.948 . S
H223 C198 0.979 . S
H224 C198 0.980 . S
H225 C198 0.983 . S
H226 C197 0.982 . S
H227 C197 0.979 . S
H228 C197 0.977 . S
H229 C199 0.948 . S
H230 C201 0.947 1_655 S
H231 C202 0.948 1_655 S
H232 C208 0.982 . S
H233 C208 0.979 . S
H234 C208 0.977 . S
H235 C209 0.979 . S
H236 C209 0.980 . S
H237 C209 0.983 . S
H238 C182 0.947 . S
C239 C182 1.392 . S
C239 C183 1.419 . S
C239 H221 0.948 . S
C240 C241 1.391 . S
C240 C244 1.391 . S
C240 H282 0.948 . S
C241 C240 1.391 . S
C241 C242 1.391 . S
C242 C241 1.391 . S
C242 H298 0.947 . S
C242 C299 1.392 . S
C243 C244 1.391 . S
C243 C247 1.397 . S
C243 C299 1.419 . S
C244 C240 1.391 . S
C244 C243 1.391 . S
C244 C245 1.399 . S
C245 C244 1.399 . S
C245 C248 1.396 . S
C245 C257 1.453 . S
C245 C258 1.684 . S
H246 C270 0.948 . S
C247 C243 1.397 . S
C247 C248 1.394 . S
C247 C266 1.723 . S
C248 C245 1.396 . S
C248 C247 1.394 . S
C248 C278 1.723 1_655 S
H249 C272 0.947 . S
H250 C273 0.948 . S
H251 C279 0.982 . S
H252 C280 0.979 . S
H253 C280 0.980 . S
H254 C280 0.983 . S
H255 C279 0.979 . S
H256 C279 0.977 . S
C257 C245 1.453 . S
C257 H286 0.982 1_655 S
C257 H287 0.979 . S
C257 H288 0.977 1_655 S
C258 C245 1.684 . S
C258 H283 0.979 . S
C258 H284 0.980 . S
C258 H285 0.983 . S
C259 C260 1.391 1_655 S
C259 C264 1.391 . S
C259 H289 0.948 . S
C260 C259 1.391 1_455 S
C260 C261 1.391 . S
C261 C260 1.391 . S
C261 C262 1.392 . S
C261 H290 0.947 . S
C262 C261 1.392 . S
C262 C263 1.419 . S
C262 H291 0.948 . S
C263 C262 1.419 . S
C263 C264 1.391 1_455 S
C263 C267 1.397 . S
C264 C259 1.391 . S
C264 C263 1.391 1_655 S
C264 C265 1.399 . S
C265 C264 1.399 . S
C265 C266 1.396 . S
C265 C268 1.453 . S
C265 C269 1.684 . S
C266 C247 1.723 . S
C266 C265 1.396 . S
C266 C267 1.394 1_655 S
C267 C263 1.397 . S
C267 C266 1.394 1_455 S
C267 C277 1.723 . S
C268 C265 1.453 . S
C268 H292 0.982 . S
C268 H293 0.979 . S
C268 H294 0.977 . S
C269 C265 1.684 . S
C269 H295 0.979 . S
C269 H296 0.980 . S
C269 H297 0.983 . S
C270 H246 0.948 . S
C270 C271 1.391 . S
C270 C275 1.391 . S
C271 C270 1.391 . S
C271 C272 1.391 . S
C272 H249 0.947 . S
C272 C271 1.391 . S
C272 C273 1.392 . S
C273 H250 0.948 . S
C273 C272 1.392 . S
C273 C274 1.419 . S
C274 C273 1.419 . S
C274 C275 1.391 . S
C274 C278 1.397 . S
C275 C270 1.391 . S
C275 C274 1.391 . S
C275 C276 1.399 . S
C276 C275 1.399 . S
C276 C277 1.396 . S
C276 C279 1.453 . S
C276 C280 1.684 . S
C277 C267 1.723 . S
C277 C276 1.396 . S
C277 C278 1.394 . S
C278 C248 1.723 1_455 S
C278 C274 1.397 . S
C278 C277 1.394 . S
C279 H251 0.982 . S
C279 H255 0.979 . S
C279 H256 0.977 . S
C279 C276 1.453 . S
C280 H252 0.979 . S
C280 H253 0.980 . S
C280 H254 0.983 . S
C280 C276 1.684 . S
H281 C299 0.948 . S
H282 C240 0.948 . S
H283 C258 0.979 . S
H284 C258 0.980 . S
H285 C258 0.983 . S
H286 C257 0.982 1_455 S
H287 C257 0.979 . S
H288 C257 0.977 1_455 S
H289 C259 0.948 . S
H290 C261 0.947 . S
H291 C262 0.948 . S
H292 C268 0.982 . S
H293 C268 0.979 . S
H294 C268 0.977 . S
H295 C269 0.979 . S
H296 C269 0.980 . S
H297 C269 0.983 . S
H298 C242 0.947 . S
C299 C242 1.392 . S
C299 C243 1.419 . S
C299 H281 0.948 . S
C300 C301 1.391 . S
C300 C304 1.391 . S
C300 H342 0.948 . S
C301 C300 1.391 . S
C301 C302 1.391 . S
C302 C301 1.391 . S
C302 H358 0.947 . S
C302 C359 1.392 . S
C303 C304 1.391 . S
C303 C307 1.397 1_565 S
C303 C359 1.419 . S
C304 C300 1.391 . S
C304 C303 1.391 . S
C304 C305 1.399 1_565 S
C305 C304 1.399 1_545 S
C305 C308 1.396 . S
C305 C317 1.453 . S
C305 C318 1.684 . S
H306 C330 0.948 . S
C307 C303 1.397 1_545 S
C307 C308 1.394 . S
C307 C326 1.723 . S
C308 C305 1.396 . S
C308 C307 1.394 . S
C308 C338 1.723 . S
H309 C332 0.947 . S
H310 C333 0.948 . S
H311 C339 0.982 . S
H312 C340 0.979 . S
H313 C340 0.980 . S
H314 C340 0.983 . S
H315 C339 0.979 . S
H316 C339 0.977 . S
C317 C305 1.453 . S
C317 H346 0.982 . S
C317 H347 0.979 . S
C317 H348 0.977 . S
C318 C305 1.684 . S
C318 H343 0.979 . S
C318 H344 0.980 . S
C318 H345 0.983 . S
C319 C320 1.391 . S
C319 C324 1.391 . S
C319 H349 0.948 . S
C320 C319 1.391 . S
C320 C321 1.391 . S
C321 C320 1.391 . S
C321 C322 1.392 . S
C321 H350 0.947 . S
C322 C321 1.392 . S
C322 C323 1.419 . S
C322 H351 0.948 . S
C323 C322 1.419 . S
C323 C324 1.391 . S
C323 C327 1.397 . S
C324 C319 1.391 . S
C324 C323 1.391 . S
C324 C325 1.399 . S
C325 C324 1.399 . S
C325 C326 1.396 . S
C325 C328 1.453 1_545 S
C325 C329 1.684 1_545 S
C326 C307 1.723 . S
C326 C325 1.396 . S
C326 C327 1.394 . S
C327 C323 1.397 . S
C327 C326 1.394 . S
C327 C337 1.723 . S
C328 C325 1.453 1_565 S
C328 H352 0.982 1_565 S
C328 H353 0.979 . S
C328 H354 0.977 . S
C329 C325 1.684 1_565 S
C329 H355 0.979 . S
C329 H356 0.980 . S
C329 H357 0.983 . S
C330 H306 0.948 . S
C330 C331 1.391 . S
C330 C335 1.391 . S
C331 C330 1.391 . S
C331 C332 1.391 . S
C332 H309 0.947 . S
C332 C331 1.391 . S
C332 C333 1.392 . S
C333 H310 0.948 . S
C333 C332 1.392 . S
C333 C334 1.419 . S
C334 C333 1.419 . S
C334 C335 1.391 . S
C334 C338 1.397 . S
C335 C330 1.391 . S
C335 C334 1.391 . S
C335 C336 1.399 . S
C336 C335 1.399 . S
C336 C337 1.396 . S
C336 C339 1.453 . S
C336 C340 1.684 . S
C337 C327 1.723 . S
C337 C336 1.396 . S
C337 C338 1.394 . S
C338 C308 1.723 . S
C338 C334 1.397 . S
C338 C337 1.394 . S
C339 H311 0.982 . S
C339 H315 0.979 . S
C339 H316 0.977 . S
C339 C336 1.453 . S
C340 H312 0.979 . S
C340 H313 0.980 . S
C340 H314 0.983 . S
C340 C336 1.684 . S
H341 C359 0.948 . S
H342 C300 0.948 . S
H343 C318 0.979 . S
H344 C318 0.980 . S
H345 C318 0.983 . S
H346 C317 0.982 . S
H347 C317 0.979 . S
H348 C317 0.977 . S
H349 C319 0.948 . S
H350 C321 0.947 . S
H351 C322 0.948 . S
H352 C328 0.982 1_545 S
H353 C328 0.979 . S
H354 C328 0.977 . S
H355 C329 0.979 . S
H356 C329 0.980 . S
H357 C329 0.983 . S
H358 C302 0.947 . S
C359 C302 1.392 . S
C359 C303 1.419 . S
C359 H341 0.948 . S
C360 C361 1.391 . S
C360 C364 1.391 . S
C360 H402 0.948 . S
C361 C360 1.391 . S
C361 C362 1.391 . S
C362 C361 1.391 . S
C362 H418 0.947 . S
C362 C419 1.392 . S
C363 C364 1.391 . S
C363 C367 1.397 . S
C363 C419 1.419 . S
C364 C360 1.391 . S
C364 C363 1.391 . S
C364 C365 1.399 . S
C365 C364 1.399 . S
C365 C368 1.396 . S
C365 C377 1.453 . S
C365 C378 1.684 . S
H366 C390 0.948 . S
C367 C363 1.397 . S
C367 C368 1.394 . S
C367 C386 1.723 . S
C368 C365 1.396 . S
C368 C367 1.394 . S
C368 C398 1.723 . S
H369 C392 0.947 . S
H370 C393 0.948 . S
H371 C399 0.982 . S
H372 C400 0.979 . S
H373 C400 0.980 . S
H374 C400 0.983 . S
H375 C399 0.979 . S
H376 C399 0.977 . S
C377 C365 1.453 . S
C377 H406 0.982 . S
C377 H407 0.979 . S
C377 H408 0.977 . S
C378 C365 1.684 . S
C378 H403 0.979 . S
C378 H404 0.980 . S
C378 H405 0.983 . S
C379 C380 1.391 . S
C379 C384 1.391 . S
C379 H409 0.948 . S
C380 C379 1.391 . S
C380 C381 1.391 . S
C381 C380 1.391 . S
C381 C382 1.392 . S
C381 H410 0.947 . S
C382 C381 1.392 . S
C382 C383 1.419 . S
C382 H411 0.948 . S
C383 C382 1.419 . S
C383 C384 1.391 . S
C383 C387 1.397 . S
C384 C379 1.391 . S
C384 C383 1.391 . S
C384 C385 1.399 . S
C385 C384 1.399 . S
C385 C386 1.396 . S
C385 C388 1.453 . S
C385 C389 1.684 . S
C386 C367 1.723 . S
C386 C385 1.396 . S
C386 C387 1.394 . S
C387 C383 1.397 . S
C387 C386 1.394 . S
C387 C397 1.723 . S
C388 C385 1.453 . S
C388 H412 0.982 . S
C388 H413 0.979 . S
C388 H414 0.977 . S
C389 C385 1.684 . S
C389 H415 0.979 . S
C389 H416 0.980 . S
C389 H417 0.983 . S
C390 H366 0.948 . S
C390 C391 1.391 . S
C390 C395 1.391 . S
C391 C390 1.391 . S
C391 C392 1.391 . S
C392 H369 0.947 . S
C392 C391 1.391 . S
C392 C393 1.392 . S
C393 H370 0.948 . S
C393 C392 1.392 . S
C393 C394 1.419 . S
C394 C393 1.419 . S
C394 C395 1.391 . S
C394 C398 1.397 . S
C395 C390 1.391 . S
C395 C394 1.391 . S
C395 C396 1.399 . S
C396 C395 1.399 . S
C396 C397 1.396 . S
C396 C399 1.453 . S
C396 C400 1.684 . S
C397 C387 1.723 . S
C397 C396 1.396 . S
C397 C398 1.394 . S
C398 C368 1.723 . S
C398 C394 1.397 . S
C398 C397 1.394 . S
C399 H371 0.982 . S
C399 H375 0.979 . S
C399 H376 0.977 . S
C399 C396 1.453 . S
C400 H372 0.979 . S
C400 H373 0.980 . S
C400 H374 0.983 . S
C400 C396 1.684 . S
H401 C419 0.948 . S
H402 C360 0.948 . S
H403 C378 0.979 . S
H404 C378 0.980 . S
H405 C378 0.983 . S
H406 C377 0.982 . S
H407 C377 0.979 . S
H408 C377 0.977 . S
H409 C379 0.948 . S
H410 C381 0.947 . S
H411 C382 0.948 . S
H412 C388 0.982 . S
H413 C388 0.979 . S
H414 C388 0.977 . S
H415 C389 0.979 . S
H416 C389 0.980 . S
H417 C389 0.983 . S
H418 C362 0.947 . S
C419 C362 1.392 . S
C419 C363 1.419 . S
C419 H401 0.948 . S
H420 C426 0.930 . S
H421 C430 0.930 . S
H422 C435 0.929 . S
H423 C433 0.929 . S
H424 C428 0.929 . S
H425 C434 0.929 . S
C426 H420 0.930 . S
C426 C427 1.367 . S
C426 C434 1.378 . S
C427 C426 1.367 . S
C427 C435 1.433 . S
C428 H424 0.929 . S
C428 C430 1.378 . S
C428 C432 1.350 . S
C429 C432 1.463 . S
C429 C434 1.350 . S
C429 N437 1.427 . S
C430 H421 0.930 . S
C430 C428 1.378 . S
C430 C431 1.367 . S
C431 C430 1.367 . S
C431 C433 1.433 . S
C432 C428 1.350 . S
C432 C429 1.463 . S
C432 N436 1.427 . S
C433 H423 0.929 . S
C433 C431 1.433 . S
C433 N436 1.384 . S
C434 H425 0.929 . S
C434 C426 1.378 . S
C434 C429 1.350 . S
C435 H422 0.929 . S
C435 C427 1.433 . S
C435 N437 1.384 . S
N436 C432 1.427 . S
N436 C433 1.384 . S
N437 C429 1.427 . S
N437 C435 1.384 . S
H438 C444 0.930 . S
H439 C448 0.930 . S
H440 C453 0.929 . S
H441 C451 0.929 . S
H442 C446 0.929 . S
H443 C452 0.929 . S
C444 H438 0.930 . S
C444 C445 1.367 . S
C444 C452 1.378 . S
C445 C444 1.367 . S
C445 C453 1.433 . S
C446 H442 0.929 . S
C446 C448 1.378 . S
C446 C450 1.350 . S
C447 C450 1.463 . S
C447 C452 1.350 . S
C447 N455 1.427 . S
C448 H439 0.930 . S
C448 C446 1.378 . S
C448 C449 1.367 . S
C449 C448 1.367 . S
C449 C451 1.433 . S
C450 C446 1.350 . S
C450 C447 1.463 . S
C450 N454 1.427 . S
C451 H441 0.929 . S
C451 C449 1.433 . S
C451 N454 1.384 . S
C452 H443 0.929 . S
C452 C444 1.378 . S
C452 C447 1.350 . S
C453 H440 0.929 . S
C453 C445 1.433 . S
C453 N455 1.384 . S
N454 C450 1.427 . S
N454 C451 1.384 . S
N455 C447 1.427 . S
N455 C453 1.384 . S
H456 C462 0.930 . S
H457 C466 0.930 . S
H458 C471 0.929 . S
H459 C469 0.929 . S
H460 C464 0.929 . S
H461 C470 0.929 . S
C462 H456 0.930 . S
C462 C463 1.367 . S
C462 C470 1.378 . S
C463 C462 1.367 . S
C463 C471 1.433 . S
C464 H460 0.929 . S
C464 C466 1.378 . S
C464 C468 1.350 . S
C465 C468 1.463 . S
C465 C470 1.350 . S
C465 N473 1.427 . S
C466 H457 0.930 . S
C466 C464 1.378 . S
C466 C467 1.367 . S
C467 C466 1.367 . S
C467 C469 1.433 . S
C468 C464 1.350 . S
C468 C465 1.463 . S
C468 N472 1.427 . S
C469 H459 0.929 . S
C469 C467 1.433 . S
C469 N472 1.384 . S
C470 H461 0.929 . S
C470 C462 1.378 . S
C470 C465 1.350 . S
C471 H458 0.929 . S
C471 C463 1.433 . S
C471 N473 1.384 . S
N472 C468 1.427 . S
N472 C469 1.384 . S
N473 C465 1.427 . S
N473 C471 1.384 . S
H474 C480 0.930 . S
H475 C484 0.930 . S
H476 C489 0.929 . S
H477 C487 0.929 . S
H478 C482 0.929 . S
H479 C488 0.929 . S
C480 H474 0.930 . S
C480 C481 1.367 . S
C480 C488 1.378 . S
C481 C480 1.367 . S
C481 C489 1.433 . S
C482 H478 0.929 . S
C482 C484 1.378 . S
C482 C486 1.350 . S
C483 C486 1.463 . S
C483 C488 1.350 . S
C483 N491 1.427 . S
C484 H475 0.930 . S
C484 C482 1.378 . S
C484 C485 1.367 . S
C485 C484 1.367 . S
C485 C487 1.433 . S
C486 C482 1.350 . S
C486 C483 1.463 . S
C486 N490 1.427 . S
C487 H477 0.929 . S
C487 C485 1.433 . S
C487 N490 1.384 . S
C488 H479 0.929 . S
C488 C480 1.378 . S
C488 C483 1.350 . S
C489 H476 0.929 . S
C489 C481 1.433 . S
C489 N491 1.384 . S
N490 C486 1.427 . S
N490 C487 1.384 . S
N491 C483 1.427 . S
N491 C489 1.384 . S
H492 C498 0.930 . S
H493 C502 0.930 . S
H494 C507 0.929 . S
H495 C505 0.929 . S
H496 C500 0.929 . S
H497 C506 0.929 . S
C498 H492 0.930 . S
C498 C499 1.367 . S
C498 C506 1.378 . S
C499 C498 1.367 . S
C499 C507 1.433 . S
C500 H496 0.929 . S
C500 C502 1.378 . S
C500 C504 1.350 . S
C501 C504 1.463 . S
C501 C506 1.350 . S
C501 N509 1.427 . S
C502 H493 0.930 . S
C502 C500 1.378 . S
C502 C503 1.367 . S
C503 C502 1.367 . S
C503 C505 1.433 . S
C504 C500 1.350 . S
C504 C501 1.463 . S
C504 N508 1.427 . S
C505 H495 0.929 . S
C505 C503 1.433 . S
C505 N508 1.384 . S
C506 H497 0.929 . S
C506 C498 1.378 . S
C506 C501 1.350 . S
C507 H494 0.929 . S
C507 C499 1.433 . S
C507 N509 1.384 . S
N508 C504 1.427 . S
N508 C505 1.384 . S
N509 C501 1.427 . S
N509 C507 1.384 . S
H510 C516 0.930 . S
H511 C520 0.930 . S
H512 C525 0.929 . S
H513 C523 0.929 . S
H514 C518 0.929 . S
H515 C524 0.929 . S
C516 H510 0.930 . S
C516 C517 1.367 . S
C516 C524 1.378 . S
C517 C516 1.367 . S
C517 C525 1.433 . S
C518 H514 0.929 . S
C518 C520 1.378 . S
C518 C522 1.350 . S
C519 C522 1.463 . S
C519 C524 1.350 . S
C519 N527 1.427 . S
C520 H511 0.930 . S
C520 C518 1.378 . S
C520 C521 1.367 . S
C521 C520 1.367 . S
C521 C523 1.433 . S
C522 C518 1.350 . S
C522 C519 1.463 . S
C522 N526 1.427 . S
C523 H513 0.929 . S
C523 C521 1.433 . S
C523 N526 1.384 . S
C524 H515 0.929 . S
C524 C516 1.378 . S
C524 C519 1.350 . S
C525 H512 0.929 . S
C525 C517 1.433 . S
C525 N527 1.384 . S
N526 C522 1.427 . S
N526 C523 1.384 . S
N527 C519 1.427 . S
N527 C525 1.384 . S
H528 C534 0.930 . S
H529 C538 0.930 . S
H530 C543 0.929 . S
H531 C541 0.929 . S
H532 C536 0.929 . S
H533 C542 0.929 . S
C534 H528 0.930 . S
C534 C535 1.367 . S
C534 C542 1.378 . S
C535 C534 1.367 . S
C535 C543 1.433 . S
C536 H532 0.929 . S
C536 C538 1.378 . S
C536 C540 1.350 . S
C537 C540 1.463 . S
C537 C542 1.350 . S
C537 N545 1.427 . S
C538 H529 0.930 . S
C538 C536 1.378 . S
C538 C539 1.367 . S
C539 C538 1.367 . S
C539 C541 1.433 . S
C540 C536 1.350 . S
C540 C537 1.463 . S
C540 N544 1.427 . S
C541 H531 0.929 . S
C541 C539 1.433 . S
C541 N544 1.384 . S
C542 H533 0.929 . S
C542 C534 1.378 . S
C542 C537 1.350 . S
C543 H530 0.929 . S
C543 C535 1.433 . S
C543 N545 1.384 . S
N544 C540 1.427 . S
N544 C541 1.384 . S
N545 C537 1.427 . S
N545 C543 1.384 . S
H546 C552 0.930 . S
H547 C556 0.930 . S
H548 C561 0.929 . S
H549 C559 0.929 . S
H550 C554 0.929 . S
H551 C560 0.929 . S
C552 H546 0.930 . S
C552 C553 1.367 . S
C552 C560 1.378 . S
C553 C552 1.367 . S
C553 C561 1.433 . S
C554 H550 0.929 . S
C554 C556 1.378 . S
C554 C558 1.350 . S
C555 C558 1.463 . S
C555 C560 1.350 . S
C555 N563 1.427 . S
C556 H547 0.930 . S
C556 C554 1.378 . S
C556 C557 1.367 . S
C557 C556 1.367 . S
C557 C559 1.433 . S
C558 C554 1.350 . S
C558 C555 1.463 . S
C558 N562 1.427 . S
C559 H549 0.929 . S
C559 C557 1.433 . S
C559 N562 1.384 . S
C560 H551 0.929 . S
C560 C552 1.378 . S
C560 C555 1.350 . S
C561 H548 0.929 . S
C561 C553 1.433 . S
C561 N563 1.384 . S
N562 C558 1.427 . S
N562 C559 1.384 . S
N563 C555 1.427 . S
N563 C561 1.384 . S
H564 C570 0.930 . S
H565 C574 0.930 . S
H566 C579 0.929 . S
H567 C577 0.929 . S
H568 C572 0.929 . S
H569 C578 0.929 . S
C570 H564 0.930 . S
C570 C571 1.367 . S
C570 C578 1.378 . S
C571 C570 1.367 . S
C571 C579 1.433 . S
C572 H568 0.929 . S
C572 C574 1.378 . S
C572 C576 1.350 . S
C573 C576 1.463 . S
C573 C578 1.350 . S
C573 N581 1.427 . S
C574 H565 0.930 . S
C574 C572 1.378 . S
C574 C575 1.367 . S
C575 C574 1.367 . S
C575 C577 1.433 . S
C576 C572 1.350 . S
C576 C573 1.463 . S
C576 N580 1.427 . S
C577 H567 0.929 . S
C577 C575 1.433 . S
C577 N580 1.384 . S
C578 H569 0.929 . S
C578 C570 1.378 . S
C578 C573 1.350 . S
C579 H566 0.929 . S
C579 C571 1.433 . S
C579 N581 1.384 . S
N580 C576 1.427 . S
N580 C577 1.384 . S
N581 C573 1.427 . S
N581 C579 1.384 . S
H582 C588 0.930 . S
H583 C592 0.930 . S
H584 C597 0.929 . S
H585 C595 0.929 . S
H586 C590 0.929 . S
H587 C596 0.929 . S
C588 H582 0.930 . S
C588 C589 1.367 . S
C588 C596 1.378 . S
C589 C588 1.367 . S
C589 C597 1.433 . S
C590 H586 0.929 . S
C590 C592 1.378 . S
C590 C594 1.350 . S
C591 C594 1.463 . S
C591 C596 1.350 . S
C591 N599 1.427 . S
C592 H583 0.930 . S
C592 C590 1.378 . S
C592 C593 1.367 . S
C593 C592 1.367 . S
C593 C595 1.433 . S
C594 C590 1.350 . S
C594 C591 1.463 . S
C594 N598 1.427 . S
C595 H585 0.929 . S
C595 C593 1.433 . S
C595 N598 1.384 . S
C596 H587 0.929 . S
C596 C588 1.378 . S
C596 C591 1.350 . S
C597 H584 0.929 . S
C597 C589 1.433 . S
C597 N599 1.384 . S
N598 C594 1.427 . S
N598 C595 1.384 . S
N599 C591 1.427 . S
N599 C597 1.384 . S
H600 C606 0.930 . S
H601 C610 0.930 . S
H602 C615 0.929 . S
H603 C613 0.929 . S
H604 C608 0.929 . S
H605 C614 0.929 . S
C606 H600 0.930 . S
C606 C607 1.367 . S
C606 C614 1.378 . S
C607 C606 1.367 . S
C607 C615 1.433 . S
C608 H604 0.929 . S
C608 C610 1.378 . S
C608 C612 1.350 . S
C609 C612 1.463 . S
C609 C614 1.350 . S
C609 N617 1.427 . S
C610 H601 0.930 . S
C610 C608 1.378 . S
C610 C611 1.367 . S
C611 C610 1.367 . S
C611 C613 1.433 . S
C612 C608 1.350 . S
C612 C609 1.463 . S
C612 N616 1.427 . S
C613 H603 0.929 . S
C613 C611 1.433 . S
C613 N616 1.384 . S
C614 H605 0.929 . S
C614 C606 1.378 . S
C614 C609 1.350 . S
C615 H602 0.929 . S
C615 C607 1.433 . S
C615 N617 1.384 . S
N616 C612 1.427 . S
N616 C613 1.384 . S
N617 C609 1.427 . S
N617 C615 1.384 . S
H618 C624 0.930 . S
H619 C628 0.930 . S
H620 C633 0.929 . S
H621 C631 0.929 . S
H622 C626 0.929 . S
H623 C632 0.929 . S
C624 H618 0.930 . S
C624 C625 1.367 . S
C624 C632 1.378 . S
C625 C624 1.367 . S
C625 C633 1.433 . S
C626 H622 0.929 . S
C626 C628 1.378 . S
C626 C630 1.350 . S
C627 C630 1.463 . S
C627 C632 1.350 . S
C627 N635 1.427 . S
C628 H619 0.930 . S
C628 C626 1.378 . S
C628 C629 1.367 . S
C629 C628 1.367 . S
C629 C631 1.433 . S
C630 C626 1.350 . S
C630 C627 1.463 . S
C630 N634 1.427 . S
C631 H621 0.929 . S
C631 C629 1.433 . S
C631 N634 1.384 . S
C632 H623 0.929 . S
C632 C624 1.378 . S
C632 C627 1.350 . S
C633 H620 0.929 . S
C633 C625 1.433 . S
C633 N635 1.384 . S
N634 C630 1.427 . S
N634 C631 1.384 . S
N635 C627 1.427 . S
N635 C633 1.384 . S
H636 C642 0.930 . S
H637 C646 0.930 1_655 S
H638 C651 0.929 1_655 S
H639 C649 0.929 . S
H640 C644 0.929 1_655 S
H641 C650 0.929 . S
C642 H636 0.930 . S
C642 C643 1.367 . S
C642 C650 1.378 . S
C643 C642 1.367 . S
C643 C651 1.433 . S
C644 H640 0.929 1_455 S
C644 C646 1.378 . S
C644 C648 1.350 . S
C645 C648 1.463 . S
C645 C650 1.350 . S
C645 N653 1.427 . S
C646 H637 0.930 1_455 S
C646 C644 1.378 . S
C646 C647 1.385 . S
C647 C646 1.385 . S
C647 C649 1.452 . S
C648 C644 1.350 . S
C648 C645 1.463 . S
C648 N652 1.427 . S
C649 H639 0.929 . S
C649 C647 1.452 . S
C649 N652 1.384 . S
C650 H641 0.929 . S
C650 C642 1.378 . S
C650 C645 1.350 . S
C651 H638 0.929 1_455 S
C651 C643 1.433 . S
C651 N653 1.384 . S
N652 C648 1.427 . S
N652 C649 1.384 . S
N653 C645 1.427 . S
N653 C651 1.384 . S
H654 C660 0.930 . S
H655 C664 0.930 . S
H656 C669 0.929 . S
H657 C667 0.929 . S
H658 C662 0.929 . S
H659 C668 0.929 . S
C660 H654 0.930 . S
C660 C661 1.367 1_565 S
C660 C668 1.378 . S
C661 C660 1.367 1_545 S
C661 C669 1.433 . S
C662 H658 0.929 . S
C662 C664 1.378 . S
C662 C666 1.350 . S
C663 C666 1.463 . S
C663 C668 1.350 1_545 S
C663 N671 1.427 . S
C664 H655 0.930 . S
C664 C662 1.378 . S
C664 C665 1.367 . S
C665 C664 1.367 . S
C665 C667 1.433 1_545 S
C666 C662 1.350 . S
C666 C663 1.463 . S
C666 N670 1.427 1_545 S
C667 H657 0.929 . S
C667 C665 1.433 1_565 S
C667 N670 1.384 . S
C668 H659 0.929 . S
C668 C660 1.378 . S
C668 C663 1.350 1_565 S
C669 H656 0.929 . S
C669 C661 1.433 . S
C669 N671 1.384 . S
N670 C666 1.427 1_565 S
N670 C667 1.384 . S
N671 C663 1.427 . S
N671 C669 1.384 . S
H672 C678 0.930 . S
H673 C682 0.930 . S
H674 C687 0.929 . S
H675 C685 0.929 . S
H676 C680 0.929 . S
H677 C686 0.929 . S
C678 H672 0.930 . S
C678 C679 1.367 . S
C678 C686 1.378 . S
C679 C678 1.367 . S
C679 C687 1.433 . S
C680 H676 0.929 . S
C680 C682 1.378 . S
C680 C684 1.350 . S
C681 C684 1.463 . S
C681 C686 1.350 . S
C681 N689 1.427 . S
C682 H673 0.930 . S
C682 C680 1.378 . S
C682 C683 1.367 . S
C683 C682 1.367 . S
C683 C685 1.433 . S
C684 C680 1.350 . S
C684 C681 1.463 . S
C684 N688 1.427 . S
C685 H675 0.929 . S
C685 C683 1.433 . S
C685 N688 1.384 . S
C686 H677 0.929 . S
C686 C678 1.378 . S
C686 C681 1.350 . S
C687 H674 0.929 . S
C687 C679 1.433 . S
C687 N689 1.384 . S
N688 C684 1.427 . S
N688 C685 1.384 . S
N689 C681 1.427 . S
N689 C687 1.384 . S
H690 C696 0.930 1_565 S
H691 C700 0.930 . S
H692 C705 0.929 . S
H693 C703 0.929 1_565 S
H694 C698 0.929 . S
H695 C704 0.929 1_565 S
C696 H690 0.930 1_545 S
C696 C697 1.367 . S
C696 C704 1.378 . S
C697 C696 1.367 . S
C697 C705 1.433 . S
C698 H694 0.929 . S
C698 C700 1.378 . S
C698 C702 1.350 . S
C699 C702 1.463 . S
C699 C704 1.350 . S
C699 N707 1.427 . S
C700 H691 0.930 . S
C700 C698 1.378 . S
C700 C701 1.367 . S
C701 C700 1.367 . S
C701 C703 1.433 . S
C702 C698 1.350 . S
C702 C699 1.463 . S
C702 N706 1.427 . S
C703 H693 0.929 1_545 S
C703 C701 1.433 . S
C703 N706 1.384 . S
C704 H695 0.929 1_545 S
C704 C696 1.378 . S
C704 C699 1.350 . S
C705 H692 0.929 . S
C705 C697 1.433 . S
C705 N707 1.384 . S
N706 C702 1.427 . S
N706 C703 1.384 . S
N707 C699 1.427 . S
N707 C705 1.384 . S
H708 C714 0.930 . S
H709 C718 0.924 1_554 S
H710 C723 0.929 . S
H711 C721 0.929 . S
H712 C716 0.929 . S
H713 C722 0.929 . S
C714 H708 0.930 . S
C714 C715 1.367 . S
C714 C722 1.378 . S
C715 C714 1.367 . S
C715 C723 1.433 . S
C716 H712 0.929 . S
C716 C718 1.378 . S
C716 C720 1.350 . S
C717 C720 1.463 . S
C717 C722 1.350 . S
C717 N725 1.427 . S
C718 H709 0.924 1_556 S
C718 C716 1.378 . S
C718 C719 1.367 1_556 S
C719 C718 1.367 1_554 S
C719 C721 1.433 1_554 S
C720 C716 1.350 . S
C720 C717 1.463 . S
C720 N724 1.427 . S
C721 H711 0.929 . S
C721 C719 1.433 1_556 S
C721 N724 1.384 . S
C722 H713 0.929 . S
C722 C714 1.378 . S
C722 C717 1.350 . S
C723 H710 0.929 . S
C723 C715 1.433 . S
C723 N725 1.384 . S
N724 C720 1.427 . S
N724 C721 1.384 . S
N725 C717 1.427 . S
N725 C723 1.384 . S
H726 C732 0.930 . S
H727 C736 0.930 . S
H728 C741 0.929 . S
H729 C739 0.929 . S
H730 C734 0.929 . S
H731 C740 0.929 . S
C732 H726 0.930 . S
C732 C733 1.367 . S
C732 C740 1.378 . S
C733 C732 1.367 . S
C733 C741 1.433 . S
C734 H730 0.929 . S
C734 C736 1.378 . S
C734 C738 1.350 . S
C735 C738 1.463 . S
C735 C740 1.350 . S
C735 N743 1.427 . S
C736 H727 0.930 . S
C736 C734 1.378 . S
C736 C737 1.367 . S
C737 C736 1.367 . S
C737 C739 1.433 . S
C738 C734 1.350 . S
C738 C735 1.463 . S
C738 N742 1.427 . S
C739 H729 0.929 . S
C739 C737 1.433 . S
C739 N742 1.384 . S
C740 H731 0.929 . S
C740 C732 1.378 . S
C740 C735 1.350 . S
C741 H728 0.929 . S
C741 C733 1.433 . S
C741 N743 1.384 . S
N742 C738 1.427 . S
N742 C739 1.384 . S
N743 C735 1.427 . S
N743 C741 1.384 . S
C427 C2 1.089 . S
C431 C391 1.100 . S
C445 C21 1.031 . S
C449 C241 0.975 . S
C463 C42 1.091 . S
C467 C301 1.047 . S
C481 C1 1.038 . S
C485 C361 0.979 . S
C503 C271 1.093 . S
C499 C22 1.096 . S
C521 C331 1.043 . S
C517 C41 1.024 . S
C535 C38 1.903 . S
C539 C121 1.784 . S
C553 C59 1.970 . S
C557 C211 1.965 . S
C571 C18 1.906 . S
C575 C91 1.909 . S
C593 C151 1.961 . S
C589 C39 1.968 . S
C611 C181 1.779 . S
C607 C58 1.903 . S
C625 C19 1.969 . S
C629 C61 1.823 . S
C647 C200 1.508 1_554 S
C643 C9 1.512 . S
C661 C29 1.512 . S
C665 C80 1.547 . S
C679 C49 1.513 . S
C683 C140 1.545 . S
C701 C320 1.356 . S
C697 C28 1.358 . S
C719 C380 1.367 . S
C715 C48 1.362 . S
C733 C8 1.352 . S
C737 C260 1.364 . S
