# Generated by pormake.
# Topology ctn, (3,4)-cn, num edge types: 1
# Building blocks:
#     Node 0, Type 0, BuildingBlock: BELTOD_clean_linker_0, # of connection points: 3
#     Node 1, Type 0, BuildingBlock: BELTOD_clean_linker_0, # of connection points: 3
#     Node 2, Type 0, BuildingBlock: BELTOD_clean_linker_0, # of connection points: 3
#     Node 3, Type 0, BuildingBlock: BELTOD_clean_linker_0, # of connection points: 3
#     Node 4, Type 0, BuildingBlock: BELTOD_clean_linker_0, # of connection points: 3
#     Node 5, Type 0, BuildingBlock: BELTOD_clean_linker_0, # of connection points: 3
#     Node 6, Type 0, BuildingBlock: BELTOD_clean_linker_0, # of connection points: 3
#     Node 7, Type 0, BuildingBlock: BELTOD_clean_linker_0, # of connection points: 3
#     Node 8, Type 0, BuildingBlock: BELTOD_clean_linker_0, # of connection points: 3
#     Node 9, Type 0, BuildingBlock: BELTOD_clean_linker_0, # of connection points: 3
#     Node 10, Type 0, BuildingBlock: BELTOD_clean_linker_0, # of connection points: 3
#     Node 11, Type 0, BuildingBlock: BELTOD_clean_linker_0, # of connection points: 3
#     Node 12, Type 0, BuildingBlock: BELTOD_clean_linker_0, # of connection points: 3
#     Node 13, Type 0, BuildingBlock: BELTOD_clean_linker_0, # of connection points: 3
#     Node 14, Type 0, BuildingBlock: BELTOD_clean_linker_0, # of connection points: 3
#     Node 15, Type 0, BuildingBlock: BELTOD_clean_linker_0, # of connection points: 3
#     Node 16, Type 1, BuildingBlock: NAHDIM_clean_sbu_0, # of connection points: 4
#     Node 17, Type 1, BuildingBlock: NAHDIM_clean_sbu_0, # of connection points: 4
#     Node 18, Type 1, BuildingBlock: NAHDIM_clean_sbu_0, # of connection points: 4
#     Node 19, Type 1, BuildingBlock: NAHDIM_clean_sbu_0, # of connection points: 4
#     Node 20, Type 1, BuildingBlock: NAHDIM_clean_sbu_0, # of connection points: 4
#     Node 21, Type 1, BuildingBlock: NAHDIM_clean_sbu_0, # of connection points: 4
#     Node 22, Type 1, BuildingBlock: NAHDIM_clean_sbu_0, # of connection points: 4
#     Node 23, Type 1, BuildingBlock: NAHDIM_clean_sbu_0, # of connection points: 4
#     Node 24, Type 1, BuildingBlock: NAHDIM_clean_sbu_0, # of connection points: 4
#     Node 25, Type 1, BuildingBlock: NAHDIM_clean_sbu_0, # of connection points: 4
#     Node 26, Type 1, BuildingBlock: NAHDIM_clean_sbu_0, # of connection points: 4
#     Node 27, Type 1, BuildingBlock: NAHDIM_clean_sbu_0, # of connection points: 4
#     Edge 28, Type (0, 1), BuildingBlock: TEMPAE_clean_linker_10, # of connection points: 2
#     Edge 29, Type (0, 1), BuildingBlock: TEMPAE_clean_linker_10, # of connection points: 2
#     Edge 30, Type (0, 1), BuildingBlock: TEMPAE_clean_linker_10, # of connection points: 2
#     Edge 31, Type (0, 1), BuildingBlock: TEMPAE_clean_linker_10, # of connection points: 2
#     Edge 32, Type (0, 1), BuildingBlock: TEMPAE_clean_linker_10, # of connection points: 2
#     Edge 33, Type (0, 1), BuildingBlock: TEMPAE_clean_linker_10, # of connection points: 2
#     Edge 34, Type (0, 1), BuildingBlock: TEMPAE_clean_linker_10, # of connection points: 2
#     Edge 35, Type (0, 1), BuildingBlock: TEMPAE_clean_linker_10, # of connection points: 2
#     Edge 36, Type (0, 1), BuildingBlock: TEMPAE_clean_linker_10, # of connection points: 2
#     Edge 37, Type (0, 1), BuildingBlock: TEMPAE_clean_linker_10, # of connection points: 2
#     Edge 38, Type (0, 1), BuildingBlock: TEMPAE_clean_linker_10, # of connection points: 2
#     Edge 39, Type (0, 1), BuildingBlock: TEMPAE_clean_linker_10, # of connection points: 2
#     Edge 40, Type (0, 1), BuildingBlock: TEMPAE_clean_linker_10, # of connection points: 2
#     Edge 41, Type (0, 1), BuildingBlock: TEMPAE_clean_linker_10, # of connection points: 2
#     Edge 42, Type (0, 1), BuildingBlock: TEMPAE_clean_linker_10, # of connection points: 2
#     Edge 43, Type (0, 1), BuildingBlock: TEMPAE_clean_linker_10, # of connection points: 2
#     Edge 44, Type (0, 1), BuildingBlock: TEMPAE_clean_linker_10, # of connection points: 2
#     Edge 45, Type (0, 1), BuildingBlock: TEMPAE_clean_linker_10, # of connection points: 2
#     Edge 46, Type (0, 1), BuildingBlock: TEMPAE_clean_linker_10, # of connection points: 2
#     Edge 47, Type (0, 1), BuildingBlock: TEMPAE_clean_linker_10, # of connection points: 2
#     Edge 48, Type (0, 1), BuildingBlock: TEMPAE_clean_linker_10, # of connection points: 2
#     Edge 49, Type (0, 1), BuildingBlock: TEMPAE_clean_linker_10, # of connection points: 2
#     Edge 50, Type (0, 1), BuildingBlock: TEMPAE_clean_linker_10, # of connection points: 2
#     Edge 51, Type (0, 1), BuildingBlock: TEMPAE_clean_linker_10, # of connection points: 2
#     Edge 52, Type (0, 1), BuildingBlock: TEMPAE_clean_linker_10, # of connection points: 2
#     Edge 53, Type (0, 1), BuildingBlock: TEMPAE_clean_linker_10, # of connection points: 2
#     Edge 54, Type (0, 1), BuildingBlock: TEMPAE_clean_linker_10, # of connection points: 2
#     Edge 55, Type (0, 1), BuildingBlock: TEMPAE_clean_linker_10, # of connection points: 2
#     Edge 56, Type (0, 1), BuildingBlock: TEMPAE_clean_linker_10, # of connection points: 2
#     Edge 57, Type (0, 1), BuildingBlock: TEMPAE_clean_linker_10, # of connection points: 2
#     Edge 58, Type (0, 1), BuildingBlock: TEMPAE_clean_linker_10, # of connection points: 2
#     Edge 59, Type (0, 1), BuildingBlock: TEMPAE_clean_linker_10, # of connection points: 2
#     Edge 60, Type (0, 1), BuildingBlock: TEMPAE_clean_linker_10, # of connection points: 2
#     Edge 61, Type (0, 1), BuildingBlock: TEMPAE_clean_linker_10, # of connection points: 2
#     Edge 62, Type (0, 1), BuildingBlock: TEMPAE_clean_linker_10, # of connection points: 2
#     Edge 63, Type (0, 1), BuildingBlock: TEMPAE_clean_linker_10, # of connection points: 2
#     Edge 64, Type (0, 1), BuildingBlock: TEMPAE_clean_linker_10, # of connection points: 2
#     Edge 65, Type (0, 1), BuildingBlock: TEMPAE_clean_linker_10, # of connection points: 2
#     Edge 66, Type (0, 1), BuildingBlock: TEMPAE_clean_linker_10, # of connection points: 2
#     Edge 67, Type (0, 1), BuildingBlock: TEMPAE_clean_linker_10, # of connection points: 2
#     Edge 68, Type (0, 1), BuildingBlock: TEMPAE_clean_linker_10, # of connection points: 2
#     Edge 69, Type (0, 1), BuildingBlock: TEMPAE_clean_linker_10, # of connection points: 2
#     Edge 70, Type (0, 1), BuildingBlock: TEMPAE_clean_linker_10, # of connection points: 2
#     Edge 71, Type (0, 1), BuildingBlock: TEMPAE_clean_linker_10, # of connection points: 2
#     Edge 72, Type (0, 1), BuildingBlock: TEMPAE_clean_linker_10, # of connection points: 2
#     Edge 73, Type (0, 1), BuildingBlock: TEMPAE_clean_linker_10, # of connection points: 2
#     Edge 74, Type (0, 1), BuildingBlock: TEMPAE_clean_linker_10, # of connection points: 2
#     Edge 75, Type (0, 1), BuildingBlock: TEMPAE_clean_linker_10, # of connection points: 2
# Relax obj value: 0.002
# Max RMSD: 0.035
# Mean RMSD: 0.021
data_MOF--net-ctn--node1-NAHDIM_clean_sbu_0--node2-BELTOD_clean_linker_0--edge1-TEMPAE_clean_linker_10
_symmetry_space_group_name_H-M    P1
_symmetry_Int_Tables_number       1
_symmetry_cell_setting            triclinic
loop_
_symmetry_equiv_pos_as_xyz
'x, y, z'
_cell_length_a     62.722194
_cell_length_b     63.487259
_cell_length_c     62.282617
_cell_angle_alpha  90.48011
_cell_angle_beta   90.131511
_cell_angle_gamma 92.972808
loop_
_atom_site_label
_atom_site_type_symbol
_atom_site_fract_x
_atom_site_fract_y
_atom_site_fract_z
_atom_type_partial_charge
P0 P 0.07006 0.07882 0.08429 0.0
H1 H 0.06961 0.06112 0.12707 0.0
H2 H 0.04088 0.04791 0.15062 0.0
H3 H 0.99458 0.06092 0.1016 0.0
H4 H 0.02344 0.07356 0.07796 0.0
H5 H 0.1143 0.07843 0.07063 0.0
H6 H 0.13672 0.05029 0.05858 0.0
H7 H 0.08335 0.00502 0.06555 0.0
H8 H 0.06091 0.03338 0.07714 0.0
H9 H 0.05495 0.12115 0.08107 0.0
H10 H 0.06277 0.06807 0.03867 0.0
O11 O 0.08546 0.0954 0.09926 0.0
H12 H 0.04203 0.14155 0.05103 0.0
H13 H 0.04962 0.0883 0.00856 0.0
C14 C 0.04862 0.06863 0.10097 0.0
C15 C 0.05326 0.06109 0.12142 0.0
C16 C 0.03682 0.05364 0.13488 0.0
C17 C 0.01541 0.05357 0.12808 0.0
C18 C 0.0109 0.06065 0.10729 0.0
C19 C 0.02739 0.06806 0.09381 0.0
C20 C 0.08614 0.05788 0.07522 0.0
C21 C 0.10747 0.06243 0.06962 0.0
C22 C 0.12027 0.04632 0.06282 0.0
C23 C 0.11189 0.02537 0.06136 0.0
C24 C 0.09027 0.02099 0.06644 0.0
C25 C 0.07748 0.03715 0.07324 0.0
C26 C 0.06023 0.09331 0.06199 0.0
C27 C 0.05389 0.11391 0.06527 0.0
C28 C 0.04634 0.12547 0.04813 0.0
C29 C 0.04489 0.11656 0.02739 0.0
C30 C 0.05087 0.0957 0.02427 0.0
C31 C 0.05836 0.08412 0.04148 0.0
P32 P 0.30998 0.68245 0.19388 0.0
H33 H 0.33156 0.72064 0.17744 0.0
H34 H 0.31972 0.74924 0.15485 0.0
H35 H 0.25596 0.72007 0.15374 0.0
H36 H 0.26781 0.69165 0.17614 0.0
H37 H 0.34198 0.66266 0.21938 0.0
H38 H 0.36265 0.67404 0.2511 0.0
H39 H 0.33006 0.73235 0.25264 0.0
H40 H 0.30942 0.72083 0.2208 0.0
H41 H 0.29863 0.63837 0.18293 0.0
H42 H 0.27382 0.68731 0.22265 0.0
O43 O 0.32646 0.66971 0.17795 0.0
H44 H 0.26883 0.61442 0.19309 0.0
H45 H 0.24332 0.66366 0.2323 0.0
C46 C 0.30053 0.70422 0.17882 0.0
C47 C 0.31498 0.72057 0.17253 0.0
C48 C 0.30823 0.73681 0.15954 0.0
C49 C 0.28688 0.73693 0.15261 0.0
C50 C 0.27241 0.72059 0.15913 0.0
C51 C 0.27921 0.7043 0.17198 0.0
C52 C 0.32462 0.69113 0.21745 0.0
C53 C 0.33933 0.67791 0.22653 0.0
C54 C 0.35098 0.68435 0.24476 0.0
C55 C 0.34804 0.70414 0.25431 0.0
C56 C 0.33287 0.71715 0.24545 0.0
C57 C 0.3211 0.7106 0.22725 0.0
C58 C 0.28837 0.6646 0.20202 0.0
C59 C 0.28671 0.64398 0.19382 0.0
C60 C 0.26952 0.63034 0.19951 0.0
C61 C 0.25352 0.63714 0.21336 0.0
C62 C 0.25544 0.65781 0.22178 0.0
C63 C 0.27279 0.67138 0.21621 0.0
P64 P 0.99403 0.5009 0.00878 0.0
H65 H 0.00408 0.48629 0.96563 0.0
H66 H 0.00396 0.45134 0.94912 0.0
H67 H 0.97897 0.42392 0.00782 0.0
H68 H 0.97996 0.45897 0.02448 0.0
H69 H 0.98289 0.54447 0.00323 0.0
H70 H 0.94901 0.56159 0.00295 0.0
H71 H 0.91564 0.50143 0.01445 0.0
H72 H 0.94964 0.48432 0.0138 0.0
H73 H 0.03686 0.50237 0.02701 0.0
H74 H 0.97223 0.49443 0.0502 0.0
O75 O 0.0117 0.51612 0.99515 0.0
H76 H 0.05029 0.49978 0.06372 0.0
H77 H 0.98554 0.49201 0.08697 0.0
C78 C 0.99238 0.47517 0.99638 0.0
C79 C 0.99859 0.47276 0.97496 0.0
C80 C 0.99831 0.45274 0.96546 0.0
C81 C 0.99152 0.43474 0.97714 0.0
C82 C 0.98466 0.43737 0.99847 0.0
C83 C 0.98511 0.45741 0.00799 0.0
C84 C 0.96876 0.51308 0.00813 0.0
C85 C 0.96827 0.53493 0.00546 0.0
C86 C 0.94886 0.54474 0.00557 0.0
C87 C 0.92953 0.53292 0.00872 0.0
C88 C 0.93015 0.51099 0.01162 0.0
C89 C 0.9496 0.50116 0.01131 0.0
C90 C 0.00356 0.49907 0.03593 0.0
C91 C 0.02555 0.50025 0.04002 0.0
C92 C 0.03321 0.4988 0.06101 0.0
C93 C 0.01896 0.49588 0.07825 0.0
C94 C 0.9969 0.49419 0.07401 0.0
C95 C 0.98927 0.49575 0.053 0.0
P96 P 0.67667 0.82596 0.1762 0.0
H97 H 0.69258 0.86614 0.15834 0.0
H98 H 0.71996 0.89246 0.17022 0.0
H99 H 0.73407 0.85364 0.22455 0.0
H100 H 0.70649 0.82728 0.21256 0.0
H101 H 0.65616 0.79276 0.1501 0.0
H102 H 0.66967 0.76304 0.12996 0.0
H103 H 0.73351 0.78003 0.1525 0.0
H104 H 0.71987 0.80961 0.17273 0.0
H105 H 0.64147 0.84508 0.19779 0.0
H106 H 0.67753 0.78958 0.20512 0.0
O107 O 0.66075 0.83758 0.15889 0.0
H108 H 0.61902 0.8343 0.22813 0.0
H109 H 0.65535 0.77882 0.23587 0.0
C110 C 0.69733 0.84491 0.18474 0.0
C111 C 0.70148 0.86329 0.17284 0.0
C112 C 0.71709 0.87836 0.17968 0.0
C113 C 0.72901 0.87518 0.19841 0.0
C114 C 0.72515 0.85648 0.21003 0.0
C115 C 0.70936 0.84148 0.20327 0.0
C116 C 0.68703 0.80356 0.16263 0.0
C117 C 0.67306 0.79004 0.15073 0.0
C118 C 0.6808 0.77312 0.1392 0.0
C119 C 0.70268 0.76932 0.13949 0.0
C120 C 0.71656 0.7825 0.15205 0.0
C121 C 0.70878 0.79951 0.16353 0.0
C122 C 0.66079 0.81789 0.19895 0.0
C123 C 0.64456 0.83057 0.20599 0.0
C124 C 0.63187 0.82448 0.22347 0.0
C125 C 0.63536 0.80566 0.23441 0.0
C126 C 0.65206 0.79323 0.2276 0.0
C127 C 0.66475 0.79937 0.21005 0.0
P128 P 0.05576 0.93199 0.43611 0.0
H129 H 0.10213 0.93618 0.43976 0.0
H130 H 0.12684 0.96541 0.45056 0.0
H131 H 0.07352 0.00457 0.46148 0.0
H132 H 0.04885 0.97511 0.45086 0.0
H133 H 0.0318 0.89185 0.43881 0.0
H134 H 0.01915 0.87023 0.46897 0.0
H135 H 0.046 0.91723 0.51329 0.0
H136 H 0.05885 0.93861 0.48305 0.0
H137 H 0.05076 0.94424 0.39158 0.0
H138 H 0.01214 0.94157 0.44877 0.0
O139 O 0.06874 0.91609 0.4198 0.0
H140 H 0.02059 0.95654 0.37112 0.0
H141 H 0.9817 0.95338 0.42833 0.0
C142 C 0.07373 0.95365 0.44408 0.0
C143 C 0.09577 0.95109 0.44435 0.0
C144 C 0.10987 0.96782 0.45048 0.0
C145 C 0.10214 0.98736 0.45667 0.0
C146 C 0.07995 0.98969 0.45685 0.0
C147 C 0.06586 0.97294 0.45063 0.0
C148 C 0.04645 0.91666 0.45869 0.0
C149 C 0.03497 0.89746 0.45504 0.0
C150 C 0.02761 0.88522 0.47228 0.0
C151 C 0.0316 0.89202 0.49353 0.0
C152 C 0.04292 0.91146 0.49711 0.0
C153 C 0.05022 0.92372 0.47982 0.0
C154 C 0.03352 0.94155 0.42152 0.0
C155 C 0.03572 0.94617 0.39968 0.0
C156 C 0.01844 0.95311 0.38801 0.0
C157 C 0.99865 0.95567 0.39804 0.0
C158 C 0.99672 0.95162 0.42014 0.0
C159 C 0.01406 0.94469 0.43181 0.0
P160 P 0.22702 0.74744 0.77438 0.0
H161 H 0.26019 0.77299 0.79648 0.0
H162 H 0.26124 0.79185 0.83086 0.0
H163 H 0.19632 0.76922 0.84343 0.0
H164 H 0.19534 0.7506 0.80883 0.0
H165 H 0.25036 0.72242 0.74395 0.0
H166 H 0.26642 0.68829 0.74647 0.0
H167 H 0.24446 0.68244 0.81198 0.0
H168 H 0.22867 0.71681 0.8094 0.0
H169 H 0.19672 0.77839 0.76273 0.0
H170 H 0.19833 0.71055 0.7633 0.0
O171 O 0.2415 0.76219 0.75716 0.0
H172 H 0.16087 0.77552 0.74707 0.0
H173 H 0.16243 0.70756 0.74792 0.0
C174 C 0.22756 0.76084 0.79994 0.0
C175 C 0.24617 0.77216 0.80662 0.0
C176 C 0.2468 0.78278 0.82635 0.0
C177 C 0.22882 0.78211 0.83983 0.0
C178 C 0.21031 0.77032 0.83324 0.0
C179 C 0.20973 0.75966 0.81349 0.0
C180 C 0.23878 0.72232 0.77663 0.0
C181 C 0.24912 0.71385 0.75889 0.0
C182 C 0.25811 0.69425 0.7603 0.0
C183 C 0.25677 0.68269 0.77946 0.0
C184 C 0.24604 0.69112 0.79712 0.0
C185 C 0.237 0.71074 0.79566 0.0
C186 C 0.20021 0.74474 0.76404 0.0
C187 C 0.18927 0.76289 0.75961 0.0
C188 C 0.16875 0.76121 0.7508 0.0
C189 C 0.15883 0.7413 0.74622 0.0
C190 C 0.16976 0.72311 0.75102 0.0
C191 C 0.19028 0.72482 0.7599 0.0
P192 P 0.99154 0.50424 0.50477 0.0
H193 H 0.03451 0.50064 0.4879 0.0
H194 H 0.04938 0.50313 0.45187 0.0
H195 H 0.98737 0.51739 0.42699 0.0
H196 H 0.97244 0.5139 0.46309 0.0
H197 H 0.00058 0.51888 0.5485 0.0
H198 H 0.99936 0.5532 0.56607 0.0
H199 H 0.97668 0.57975 0.50705 0.0
H200 H 0.97893 0.54548 0.48934 0.0
H201 H 0.97853 0.45966 0.50725 0.0
H202 H 0.94783 0.51839 0.49961 0.0
O203 O 0.00783 0.48991 0.51922 0.0
H204 H 0.94372 0.44049 0.50633 0.0
H205 H 0.91296 0.49932 0.4988 0.0
C206 C 0.00232 0.50676 0.47811 0.0
C207 C 0.02408 0.50419 0.47468 0.0
C208 C 0.03262 0.50585 0.45405 0.0
C209 C 0.0196 0.51047 0.43645 0.0
C210 C 0.9978 0.51346 0.44008 0.0
C211 C 0.98925 0.51158 0.46074 0.0
C212 C 0.99019 0.52969 0.51753 0.0
C213 C 0.99548 0.53211 0.53929 0.0
C214 C 0.99454 0.55175 0.5494 0.0
C215 C 0.9879 0.56933 0.53802 0.0
C216 C 0.98221 0.56669 0.51624 0.0
C217 C 0.98341 0.54705 0.50609 0.0
C218 C 0.96574 0.49048 0.50397 0.0
C219 C 0.96429 0.46845 0.50553 0.0
C220 C 0.94439 0.45752 0.50504 0.0
C221 C 0.9256 0.46842 0.50268 0.0
C222 C 0.92717 0.49048 0.50057 0.0
C223 C 0.94709 0.50142 0.5012 0.0
P224 P 0.80991 0.82371 0.82286 0.0
H225 H 0.8437 0.84269 0.79633 0.0
H226 H 0.86289 0.83009 0.76508 0.0
H227 H 0.82429 0.77169 0.76612 0.0
H228 H 0.80535 0.78436 0.79767 0.0
H229 H 0.77961 0.84573 0.8487 0.0
H230 H 0.75021 0.86796 0.83972 0.0
H231 H 0.7616 0.85719 0.77221 0.0
H232 H 0.79106 0.83513 0.78129 0.0
H233 H 0.83343 0.7991 0.85311 0.0
H234 H 0.76877 0.80024 0.82965 0.0
O235 O 0.82699 0.83967 0.8367 0.0
H236 H 0.82275 0.77051 0.87749 0.0
H237 H 0.75777 0.77215 0.85449 0.0
C238 C 0.82349 0.81426 0.79957 0.0
C239 C 0.83942 0.82715 0.78987 0.0
C240 C 0.85023 0.82 0.77187 0.0
C241 C 0.84516 0.79984 0.76315 0.0
C242 C 0.82878 0.78716 0.77266 0.0
C243 C 0.81793 0.79438 0.79066 0.0
C244 C 0.7875 0.83881 0.81571 0.0
C245 C 0.77566 0.84805 0.83197 0.0
C246 C 0.7588 0.86064 0.82682 0.0
C247 C 0.75359 0.86432 0.80525 0.0
C248 C 0.76537 0.8548 0.78897 0.0
C249 C 0.78218 0.84211 0.79416 0.0
C250 C 0.8018 0.8021 0.84 0.0
C251 C 0.81689 0.79326 0.85332 0.0
C252 C 0.81073 0.77699 0.86732 0.0
C253 C 0.78933 0.76923 0.86817 0.0
C254 C 0.77439 0.77769 0.8542 0.0
C255 C 0.78061 0.79391 0.84013 0.0
P256 P 0.31349 0.3226 0.33384 0.0
H257 H 0.35427 0.33808 0.31592 0.0
H258 H 0.37577 0.32609 0.28601 0.0
H259 H 0.32799 0.27626 0.27231 0.0
H260 H 0.30641 0.28854 0.30223 0.0
H261 H 0.30699 0.36781 0.33504 0.0
H262 H 0.2781 0.38888 0.32251 0.0
H263 H 0.2449 0.33258 0.29742 0.0
H264 H 0.27394 0.31146 0.31029 0.0
H265 H 0.33251 0.28366 0.34637 0.0
H266 H 0.27306 0.31346 0.35664 0.0
O267 O 0.32924 0.33755 0.35011 0.0
H268 H 0.3205 0.25477 0.36994 0.0
H269 H 0.26094 0.28456 0.38004 0.0
C270 C 0.32896 0.31394 0.31149 0.0
C271 C 0.34843 0.32454 0.30653 0.0
C272 C 0.36074 0.31764 0.28946 0.0
C273 C 0.35368 0.3001 0.27693 0.0
C274 C 0.33381 0.28987 0.28161 0.0
C275 C 0.32153 0.29678 0.29875 0.0
C276 C 0.29241 0.33804 0.32388 0.0
C277 C 0.29352 0.35996 0.32685 0.0
C278 C 0.27706 0.37203 0.31952 0.0
C279 C 0.2592 0.36239 0.309 0.0
C280 C 0.25834 0.34041 0.30568 0.0
C281 C 0.27492 0.32836 0.31294 0.0
C282 C 0.30346 0.3004 0.34927 0.0
C283 C 0.31672 0.28379 0.35337 0.0
C284 C 0.30992 0.26739 0.36694 0.0
C285 C 0.28975 0.26738 0.37671 0.0
C286 C 0.27642 0.28398 0.37243 0.0
C287 C 0.28333 0.30049 0.35901 0.0
P288 P 0.49132 0.99853 0.50745 0.0
H289 H 0.46 0.97826 0.4778 0.0
H290 H 0.45805 0.94383 0.45988 0.0
H291 H 0.51494 0.92707 0.49362 0.0
H292 H 0.517 0.96169 0.51116 0.0
H293 H 0.47687 0.03795 0.48983 0.0
H294 H 0.44279 0.05472 0.49118 0.0
H295 H 0.41645 0.00341 0.52971 0.0
H296 H 0.45054 0.98639 0.5277 0.0
H297 H 0.52339 0.02586 0.52944 0.0
H298 H 0.48298 0.97093 0.54431 0.0
O299 O 0.50808 0.01248 0.49161 0.0
H300 H 0.53827 0.02586 0.56572 0.0
H301 H 0.49794 0.97071 0.58068 0.0
C302 C 0.48834 0.97233 0.49623 0.0
C303 C 0.47182 0.96704 0.48165 0.0
C304 C 0.47072 0.94733 0.47141 0.0
C305 C 0.48631 0.93268 0.47537 0.0
C306 C 0.50277 0.93805 0.4901 0.0
C307 C 0.50385 0.95775 0.50031 0.0
C308 C 0.46618 0.0109 0.50861 0.0
C309 C 0.46377 0.03027 0.49853 0.0
C310 C 0.4443 0.03994 0.49947 0.0
C311 C 0.42689 0.03046 0.51063 0.0
C312 C 0.42945 0.01103 0.5208 0.0
C313 C 0.44895 0.00135 0.51979 0.0
C314 C 0.50237 0.99818 0.53411 0.0
C315 C 0.51785 0.01369 0.54047 0.0
C316 C 0.52638 0.01363 0.5612 0.0
C317 C 0.51941 0.99817 0.57601 0.0
C318 C 0.50357 0.98288 0.56967 0.0
C319 C 0.49509 0.98292 0.54888 0.0
P320 P 0.18331 0.32472 0.68461 0.0
H321 H 0.20607 0.36109 0.66553 0.0
H322 H 0.23551 0.3847 0.67811 0.0
H323 H 0.23966 0.3481 0.73607 0.0
H324 H 0.20971 0.32489 0.72355 0.0
H325 H 0.16646 0.30169 0.64708 0.0
H326 H 0.1789 0.27179 0.62655 0.0
H327 H 0.23303 0.26884 0.66928 0.0
H328 H 0.22023 0.29857 0.68999 0.0
H329 H 0.16209 0.34845 0.71746 0.0
H330 H 0.16805 0.28296 0.70069 0.0
O331 O 0.16836 0.33868 0.66836 0.0
H332 H 0.13789 0.33817 0.74668 0.0
H333 H 0.1442 0.27254 0.73013 0.0
C334 C 0.20548 0.34154 0.69381 0.0
C335 C 0.21327 0.35821 0.68097 0.0
C336 C 0.23025 0.37158 0.68812 0.0
C337 C 0.23993 0.36835 0.70815 0.0
C338 C 0.23234 0.35126 0.72074 0.0
C339 C 0.21528 0.33794 0.71359 0.0
C340 C 0.19271 0.30265 0.66972 0.0
C341 C 0.18107 0.29469 0.65196 0.0
C342 C 0.18822 0.27762 0.64021 0.0
C343 C 0.20709 0.26809 0.64613 0.0
C344 C 0.21841 0.27579 0.66434 0.0
C345 C 0.21122 0.2929 0.67608 0.0
C346 C 0.16687 0.31651 0.70695 0.0
C347 C 0.15837 0.33184 0.72025 0.0
C348 C 0.14464 0.32593 0.73701 0.0
C349 C 0.13912 0.30452 0.74075 0.0
C350 C 0.14795 0.28916 0.72752 0.0
C351 C 0.16171 0.29511 0.71074 0.0
P352 P 0.81599 0.18083 0.69199 0.0
H353 H 0.83208 0.19908 0.6519 0.0
H354 H 0.81962 0.22684 0.62889 0.0
H355 H 0.76795 0.23681 0.67303 0.0
H356 H 0.78037 0.20862 0.69583 0.0
H357 H 0.83118 0.1607 0.73051 0.0
H358 H 0.85291 0.1737 0.76099 0.0
H359 H 0.85476 0.23644 0.73451 0.0
H360 H 0.83322 0.22335 0.70403 0.0
H361 H 0.79257 0.14708 0.66892 0.0
H362 H 0.78898 0.178 0.73063 0.0
O363 O 0.83272 0.16653 0.6779 0.0
H364 H 0.76221 0.12329 0.67847 0.0
H365 H 0.75866 0.15412 0.74036 0.0
C366 C 0.80691 0.20158 0.67535 0.0
C367 C 0.81803 0.20718 0.65661 0.0
C368 C 0.81099 0.2232 0.64356 0.0
C369 C 0.79277 0.23403 0.64912 0.0
C370 C 0.78186 0.22857 0.66816 0.0
C371 C 0.78895 0.21252 0.68121 0.0
C372 C 0.83028 0.1911 0.71521 0.0
C373 C 0.83602 0.17731 0.73144 0.0
C374 C 0.84838 0.18477 0.74887 0.0
C375 C 0.85548 0.20611 0.75017 0.0
C376 C 0.84962 0.21989 0.73387 0.0
C377 C 0.83716 0.21243 0.71651 0.0
C378 C 0.79337 0.16386 0.69929 0.0
C379 C 0.78527 0.14869 0.68456 0.0
C380 C 0.76783 0.13524 0.68996 0.0
C381 C 0.75817 0.13678 0.71021 0.0
C382 C 0.766 0.15239 0.72476 0.0
C383 C 0.78335 0.16599 0.71924 0.0
P384 P 0.56554 0.57309 0.57572 0.0
H385 H 0.56125 0.56029 0.62029 0.0
H386 H 0.53048 0.54936 0.64232 0.0
H387 H 0.48898 0.55542 0.58746 0.0
H388 H 0.51982 0.56658 0.56561 0.0
H389 H 0.60929 0.56907 0.56162 0.0
H390 H 0.62934 0.53889 0.55033 0.0
H391 H 0.5726 0.49799 0.55757 0.0
H392 H 0.55273 0.52823 0.5691 0.0
H393 H 0.55452 0.61684 0.57318 0.0
H394 H 0.55786 0.56377 0.52988 0.0
O395 O 0.582 0.58803 0.59129 0.0
H396 H 0.54284 0.63864 0.54367 0.0
H397 H 0.54589 0.5854 0.50028 0.0
C398 C 0.54274 0.5647 0.59151 0.0
C399 C 0.54551 0.55933 0.61305 0.0
C400 C 0.52794 0.55291 0.62556 0.0
C401 C 0.50727 0.55163 0.61665 0.0
C402 C 0.50465 0.55658 0.59486 0.0
C403 C 0.52227 0.56295 0.58236 0.0
C404 C 0.5797 0.55079 0.56661 0.0
C405 C 0.60119 0.55359 0.56078 0.0
C406 C 0.61258 0.53636 0.55418 0.0
C407 C 0.60258 0.51602 0.55317 0.0
C408 C 0.58083 0.51339 0.55852 0.0
C409 C 0.56945 0.53068 0.56507 0.0
C410 C 0.55747 0.58887 0.5536 0.0
C411 C 0.55282 0.60992 0.55727 0.0
C412 C 0.54596 0.6223 0.54043 0.0
C413 C 0.54348 0.61375 0.51961 0.0
C414 C 0.54795 0.59252 0.51606 0.0
C415 C 0.55478 0.58013 0.53297 0.0
P416 P 0.56175 0.43209 0.92899 0.0
H417 H 0.60811 0.43843 0.93052 0.0
H418 H 0.63192 0.46786 0.94261 0.0
H419 H 0.57732 0.50246 0.96126 0.0
H420 H 0.55352 0.47288 0.94912 0.0
H421 H 0.54746 0.38789 0.92864 0.0
H422 H 0.53463 0.36376 0.95669 0.0
H423 H 0.54429 0.41359 0.00396 0.0
H424 H 0.55687 0.43771 0.97573 0.0
H425 H 0.55363 0.4444 0.88493 0.0
H426 H 0.51926 0.44193 0.94482 0.0
O427 O 0.57504 0.41839 0.91088 0.0
H428 H 0.5221 0.4568 0.86679 0.0
H429 H 0.48753 0.45409 0.92672 0.0
C430 C 0.57906 0.45364 0.93856 0.0
C431 C 0.60124 0.45236 0.93713 0.0
C432 C 0.61483 0.46921 0.944 0.0
C433 C 0.60647 0.48753 0.95269 0.0
C434 C 0.58421 0.48852 0.95467 0.0
C435 C 0.57061 0.47169 0.94762 0.0
C436 C 0.55354 0.41443 0.95018 0.0
C437 C 0.54703 0.39355 0.94508 0.0
C438 C 0.53973 0.37978 0.96113 0.0
C439 C 0.53859 0.38673 0.98256 0.0
C440 C 0.54489 0.4078 0.98757 0.0
C441 C 0.55227 0.42155 0.97148 0.0
C442 C 0.53861 0.44182 0.91608 0.0
C443 C 0.53925 0.44642 0.89414 0.0
C444 C 0.5212 0.45343 0.88379 0.0
C445 C 0.50224 0.45616 0.89528 0.0
C446 C 0.50189 0.45215 0.91745 0.0
C447 C 0.51997 0.44506 0.92778 0.0
P448 P 0.72737 0.24848 0.27235 0.0
H449 H 0.75803 0.27898 0.29194 0.0
H450 H 0.75829 0.29861 0.32586 0.0
H451 H 0.69828 0.26676 0.34316 0.0
H452 H 0.69798 0.24744 0.30897 0.0
H453 H 0.75594 0.22621 0.24429 0.0
H454 H 0.77177 0.19199 0.24667 0.0
H455 H 0.74058 0.18115 0.30768 0.0
H456 H 0.72498 0.21564 0.30529 0.0
H457 H 0.69234 0.27669 0.27027 0.0
H458 H 0.70354 0.21263 0.25153 0.0
O459 O 0.74114 0.26337 0.25471 0.0
H460 H 0.65652 0.27304 0.25468 0.0
H461 H 0.66769 0.20882 0.23614 0.0
C462 C 0.72778 0.26212 0.29779 0.0
C463 C 0.74491 0.27626 0.30302 0.0
C464 C 0.74511 0.28736 0.32249 0.0
C465 C 0.72823 0.28434 0.33715 0.0
C466 C 0.71132 0.26971 0.33204 0.0
C467 C 0.71117 0.25861 0.31255 0.0
C468 C 0.73967 0.22364 0.27483 0.0
C469 C 0.75267 0.21658 0.25829 0.0
C470 C 0.76155 0.19691 0.25957 0.0
C471 C 0.75744 0.18386 0.27738 0.0
C472 C 0.74428 0.19097 0.29391 0.0
C473 C 0.73536 0.21066 0.29256 0.0
C474 C 0.70047 0.24485 0.2624 0.0
C475 C 0.68696 0.26173 0.26311 0.0
C476 C 0.66647 0.2596 0.25426 0.0
C477 C 0.65925 0.2406 0.24427 0.0
C478 C 0.67285 0.22368 0.24363 0.0
C479 C 0.69332 0.22582 0.25257 0.0
P480 P 0.48998 0.01385 0.00528 0.0
H481 H 0.53117 0.00353 0.98721 0.0
H482 H 0.54606 0.00639 0.95114 0.0
H483 H 0.4883 0.03365 0.92903 0.0
H484 H 0.47329 0.03024 0.96519 0.0
H485 H 0.51813 0.03555 0.0367 0.0
H486 H 0.51834 0.07057 0.0532 0.0
H487 H 0.46201 0.08414 0.01676 0.0
H488 H 0.46219 0.04913 -1e-05 0.0
H489 H 0.46957 0.9824 0.97625 0.0
H490 H 0.45285 0.01664 0.03336 0.0
O491 O 0.50512 0.99858 0.01997 0.0
H492 H 0.43473 0.96335 0.97663 0.0
H493 H 0.41778 0.99803 0.03356 0.0
C494 C 0.50103 0.01643 0.97876 0.0
C495 C 0.52168 0.01008 0.9746 0.0
C496 C 0.53025 0.0119 0.95399 0.0
C497 C 0.51837 0.02025 0.93718 0.0
C498 C 0.49775 0.0269 0.94155 0.0
C499 C 0.4892 0.02507 0.96221 0.0
C500 C 0.48992 0.03964 0.01743 0.0
C501 C 0.50576 0.04601 0.03233 0.0
C502 C 0.50581 0.06602 0.04182 0.0
C503 C 0.49006 0.08008 0.03646 0.0
C504 C 0.47443 0.07374 0.02116 0.0
C505 C 0.47443 0.0537 0.01166 0.0
C506 C 0.46357 0.00139 0.0044 0.0
C507 C 0.45823 0.98617 0.9886 0.0
C508 C 0.43828 0.97529 0.98882 0.0
C509 C 0.42342 0.97926 0.00505 0.0
C510 C 0.4289 0.99451 0.02091 0.0
C511 C 0.44887 0.00534 0.02067 0.0
C512 C 0.21395 0.91561 0.01639 0.0
O513 O 0.22727 0.92004 0.00062 0.0
O514 O 0.23485 0.86411 0.99299 0.0
Zn515 Zn 0.24072 0.88078 0.02031 0.0
O516 O 0.26747 0.8993 0.01682 0.0
C517 C 0.23872 0.84172 0.04415 0.0
O518 O 0.22718 0.83485 0.02765 0.0
O519 O 0.21628 0.89904 0.02727 0.0
C520 C 0.28511 0.89095 0.01327 0.0
O521 O 0.2854 0.8703 0.0118 0.0
C522 C 0.24059 0.87113 0.97472 0.0
O523 O 0.25014 0.88999 0.9735 0.0
O524 O 0.24573 0.86087 0.04464 0.0
C525 C 0.14422 0.46318 0.27937 0.0
O526 O 0.1421 0.47813 0.29381 0.0
O527 O 0.09756 0.4918 0.28431 0.0
Zn528 Zn 0.11593 0.48906 0.2579 0.0
O529 O 0.13667 0.51418 0.25493 0.0
C530 C 0.08051 0.49316 0.2279 0.0
O531 O 0.07207 0.5037 0.2437 0.0
O532 O 0.13385 0.46398 0.26186 0.0
C533 C 0.1326 0.53122 0.24554 0.0
O534 O 0.11344 0.53344 0.2376 0.0
C535 C 0.09046 0.509 0.29117 0.0
O536 O 0.09444 0.52642 0.28035 0.0
O537 O 0.09856 0.48533 0.23066 0.0
C538 C 0.79274 0.60935 0.99756 0.0
O539 O 0.78817 0.61734 0.97883 0.0
O540 O 0.75592 0.64534 0.98295 0.0
Zn541 Zn 0.75213 0.62562 0.00817 0.0
O542 O 0.72876 0.6033 0.00208 0.0
C543 C 0.75689 0.65879 0.03929 0.0
O544 O 0.77412 0.66305 0.02783 0.0
O545 O 0.77965 0.61105 0.01298 0.0
C546 C 0.71058 0.60748 0.99464 0.0
O547 O 0.70652 0.62719 0.99084 0.0
C548 C 0.74592 0.66214 0.98094 0.0
O549 O 0.7318 0.6669 0.99551 0.0
O550 O 0.74487 0.64275 0.0343 0.0
C551 C 0.83062 0.04609 0.27587 0.0
O552 O 0.82071 0.02794 0.28044 0.0
O553 O 0.88376 0.01362 0.28839 0.0
Zn554 Zn 0.86522 0.01993 0.26307 0.0
O555 O 0.84436 0.99538 0.25648 0.0
C556 C 0.8993 0.01245 0.23383 0.0
O557 O 0.9005 0.99545 0.24556 0.0
O558 O 0.84955 0.0463 0.26863 0.0
C559 C 0.83976 0.99017 0.2372 0.0
O560 O 0.84879 0.00096 0.22146 0.0
C561 C 0.87933 0.99947 0.30221 0.0
O562 O 0.86105 0.98845 0.30084 0.0
O563 O 0.88498 0.0253 0.23807 0.0
C564 C 0.28712 0.10212 0.5027 0.0
O565 O 0.27936 0.10588 0.48358 0.0
O566 O 0.25384 0.1427 0.48971 0.0
Zn567 Zn 0.24962 0.12265 0.51461 0.0
O568 O 0.22602 0.1008 0.50797 0.0
C569 C 0.25612 0.1526 0.54896 0.0
O570 O 0.27526 0.15424 0.54041 0.0
O571 O 0.27696 0.10791 0.51919 0.0
C572 C 0.20949 0.10508 0.49735 0.0
O573 O 0.20751 0.12444 0.49063 0.0
C574 C 0.24617 0.16086 0.48966 0.0
O575 O 0.23449 0.16664 0.50595 0.0
O576 O 0.24235 0.13934 0.54101 0.0
C577 C 0.3348 0.54778 0.77852 0.0
O578 O 0.32624 0.52971 0.78527 0.0
O579 O 0.38669 0.51504 0.78884 0.0
Zn580 Zn 0.36843 0.52176 0.76347 0.0
O581 O 0.34732 0.4977 0.7563 0.0
C582 C 0.38698 0.51886 0.72026 0.0
O583 O 0.37081 0.50549 0.71601 0.0
O584 O 0.35279 0.54809 0.76915 0.0
C585 C 0.3522 0.47851 0.75624 0.0
O586 O 0.37179 0.47392 0.7612 0.0
C587 C 0.38103 0.50382 0.80485 0.0
O588 O 0.36129 0.49594 0.80601 0.0
O589 O 0.38858 0.52735 0.73879 0.0
C590 C 0.69809 0.39726 0.51862 0.0
O591 O 0.69281 0.38216 0.50475 0.0
O592 O 0.73237 0.36244 0.49172 0.0
Zn593 Zn 0.73932 0.3779 0.51947 0.0
O594 O 0.76729 0.39464 0.51641 0.0
C595 C 0.74819 0.3384 0.53878 0.0
O596 O 0.75101 0.33314 0.51858 0.0
O597 O 0.71666 0.3981 0.52692 0.0
C598 C 0.78294 0.38728 0.50639 0.0
O599 O 0.78073 0.36836 0.4977 0.0
C600 C 0.73419 0.37138 0.4736 0.0
O601 O 0.73994 0.39156 0.47291 0.0
O602 O 0.74264 0.35691 0.54328 0.0
C603 C 0.64504 0.97282 0.77794 0.0
O604 O 0.64636 0.99015 0.78967 0.0
O605 O 0.59481 0.99907 0.7851 0.0
Zn606 Zn 0.61286 0.99595 0.75869 0.0
O607 O 0.63246 0.02178 0.75459 0.0
C608 C 0.58728 0.00738 0.72302 0.0
O609 O 0.59109 0.02617 0.73161 0.0
O610 O 0.63115 0.97117 0.76305 0.0
C611 C 0.64824 0.02003 0.74205 0.0
O612 O 0.65082 0.00181 0.7325 0.0
C613 C 0.58748 0.0164 0.79123 0.0
O614 O 0.59122 0.03337 0.77962 0.0
O615 O 0.5947 0.99147 0.73214 0.0
C616 C 0.00231 0.21263 0.90809 0.0
O617 O 0.98882 0.20651 0.89284 0.0
O618 O 0.97672 0.24291 0.86892 0.0
Zn619 Zn 0.00234 0.25319 0.88647 0.0
O620 O 0.99662 0.28044 0.90186 0.0
C621 C 0.02506 0.27187 0.85138 0.0
O622 O 0.00747 0.28221 0.85038 0.0
O623 O 0.00997 0.23157 0.90836 0.0
C624 C 0.01197 0.29363 0.9063 0.0
O625 O 0.03148 0.28913 0.90098 0.0
C626 C 0.96097 0.25416 0.86515 0.0
O627 O 0.96071 0.27315 0.87366 0.0
O628 O 0.02685 0.2582 0.86597 0.0
C629 C 0.50002 0.71263 0.4031 0.0
O630 O 0.48515 0.70731 0.38889 0.0
O631 O 0.47495 0.74404 0.36448 0.0
Zn632 Zn 0.50062 0.75373 0.38221 0.0
O633 O 0.4949 0.78003 0.39917 0.0
C634 C 0.52177 0.76551 0.34285 0.0
O635 O 0.50193 0.76673 0.33639 0.0
O636 O 0.5086 0.73122 0.40298 0.0
C637 C 0.48976 0.79694 0.39016 0.0
O638 O 0.48755 0.79717 0.36918 0.0
C639 C 0.45567 0.74772 0.36869 0.0
O640 O 0.45129 0.75812 0.38632 0.0
O641 O 0.52535 0.76014 0.36211 0.0
C642 C 0.99034 0.79083 0.61223 0.0
O643 O 0.98301 0.79708 0.63085 0.0
O644 O 0.96613 0.75727 0.65255 0.0
Zn645 Zn 0.98999 0.74992 0.63276 0.0
O646 O 0.98434 0.72126 0.61901 0.0
C647 C 0.01848 0.73819 0.66644 0.0
O648 O 0.00201 0.7257 0.67175 0.0
O649 O 0.99407 0.77151 0.60948 0.0
C650 C 0.00015 0.71058 0.61378 0.0
O651 O 0.01957 0.71843 0.6177 0.0
C652 C 0.94639 0.75375 0.64857 0.0
O653 O 0.94054 0.74467 0.6303 0.0
O654 O 0.017 0.75008 0.65025 0.0
C655 C 0.48649 0.28287 0.09507 0.0
O656 O 0.47022 0.26952 0.09113 0.0
O657 O 0.46499 0.26614 0.15199 0.0
Zn658 Zn 0.49008 0.25854 0.13395 0.0
O659 O 0.48455 0.23079 0.11852 0.0
C660 C 0.51932 0.24065 0.16426 0.0
O661 O 0.5054 0.22445 0.16389 0.0
O662 O 0.49693 0.28126 0.11242 0.0
C663 C 0.49997 0.22351 0.10809 0.0
O664 O 0.51834 0.23443 0.10776 0.0
C665 C 0.4538 0.25225 0.16213 0.0
O666 O 0.45828 0.23234 0.16017 0.0
O667 O 0.51587 0.25671 0.15297 0.0
C668 C 0.24741 0.7941 0.87379 0.0
C669 C 0.22934 0.79402 0.86047 0.0
C670 C 0.24858 0.80613 0.89278 0.0
C671 C 0.23126 0.81839 0.89862 0.0
C672 C 0.21278 0.81806 0.8855 0.0
C673 C 0.21204 0.80587 0.86658 0.0
C674 C 0.26851 0.80599 0.90643 0.0
C675 C 0.194 0.83095 0.89119 0.0
C676 C 0.22837 0.83723 0.95658 0.0
C677 C 0.23738 0.85788 0.95518 0.0
C678 C 0.22603 0.82426 0.93826 0.0
C679 C 0.23283 0.83214 0.91807 0.0
C680 C 0.24163 0.85306 0.91651 0.0
C681 C 0.24381 0.86566 0.93507 0.0
C682 C 0.21655 0.80204 0.94054 0.0
C683 C 0.24904 0.86203 0.89525 0.0
H684 H 0.26069 0.78472 0.86932 0.0
H685 H 0.19812 0.80606 0.85625 0.0
H686 H 0.27622 0.82211 0.90729 0.0
H687 H 0.26434 0.80127 0.92307 0.0
H688 H 0.28027 0.79507 0.90001 0.0
H689 H 0.18046 0.82821 0.87982 0.0
H690 H 0.18836 0.82711 0.90764 0.0
H691 H 0.19898 0.84798 0.89112 0.0
H692 H 0.22335 0.83108 0.97204 0.0
H693 H 0.25075 0.8816 0.93382 0.0
H694 H 0.22842 0.7906 0.93559 0.0
H695 H 0.20251 0.79954 0.92979 0.0
H696 H 0.21151 0.7985 0.95727 0.0
H697 H 0.26201 0.85266 0.88869 0.0
H698 H 0.255 0.87877 0.89666 0.0
H699 H 0.23574 0.86098 0.88345 0.0
C700 C 0.01714 0.50344 0.3967 0.0
C701 C 0.02873 0.51178 0.41441 0.0
C702 C 0.02602 0.50363 0.37603 0.0
C703 C 0.04711 0.5121 0.37301 0.0
C704 C 0.05876 0.52088 0.3907 0.0
C705 C 0.04938 0.52076 0.41113 0.0
C706 C 0.01302 0.49433 0.3575 0.0
C707 C 0.08134 0.52997 0.38816 0.0
C708 C 0.07902 0.49247 0.32585 0.0
C709 C 0.07857 0.50949 0.31166 0.0
C710 C 0.06869 0.49307 0.34578 0.0
C711 C 0.05738 0.51099 0.35155 0.0
C712 C 0.05645 0.52802 0.3371 0.0
C713 C 0.0672 0.52713 0.31738 0.0
C714 C 0.07028 0.47471 0.36087 0.0
C715 C 0.04427 0.54724 0.34257 0.0
H716 H 0.00128 0.49624 0.39906 0.0
H717 H 0.05832 0.52764 0.42459 0.0
H718 H 0.0126 0.50582 0.3442 0.0
H719 H 0.02059 0.48015 0.35117 0.0
H720 H 0.99636 0.48975 0.36223 0.0
H721 H 0.08807 0.53658 0.40345 0.0
H722 H 0.09174 0.51753 0.38232 0.0
H723 H 0.08185 0.54262 0.37597 0.0
H724 H 0.08786 0.47883 0.32159 0.0
H725 H 0.06668 0.54028 0.30643 0.0
H726 H 0.05409 0.46821 0.36509 0.0
H727 H 0.0782 0.48015 0.37602 0.0
H728 H 0.07944 0.46183 0.35383 0.0
H729 H 0.02749 0.54248 0.34659 0.0
H730 H 0.04428 0.55869 0.32918 0.0
H731 H 0.05142 0.55529 0.35694 0.0
C732 C 0.7907 0.75375 0.90501 0.0
C733 C 0.78257 0.75278 0.88399 0.0
C734 C 0.78439 0.73855 0.92024 0.0
C735 C 0.76944 0.72202 0.91441 0.0
C736 C 0.76112 0.72092 0.89326 0.0
C737 C 0.76782 0.73629 0.87828 0.0
C738 C 0.79363 0.74026 0.94265 0.0
C739 C 0.74514 0.70352 0.88646 0.0
C740 C 0.76813 0.67312 0.94919 0.0
C741 C 0.7511 0.67679 0.96308 0.0
C742 C 0.77401 0.68751 0.933 0.0
C743 C 0.76252 0.70595 0.93055 0.0
C744 C 0.74498 0.70948 0.94415 0.0
C745 C 0.73952 0.69489 0.9603 0.0
C746 C 0.79286 0.68324 0.91887 0.0
C747 C 0.73226 0.72891 0.94194 0.0
H748 H 0.80181 0.76663 0.90968 0.0
H749 H 0.76165 0.73528 0.86202 0.0
H750 H 0.78065 0.74198 0.9545 0.0
H751 H 0.80167 0.72563 0.94664 0.0
H752 H 0.80535 0.75389 0.9445 0.0
H753 H 0.7401 0.70498 0.86945 0.0
H754 H 0.75209 0.68795 0.88857 0.0
H755 H 0.73077 0.70375 0.89681 0.0
H756 H 0.77718 0.65918 0.95123 0.0
H757 H 0.72629 0.69781 0.97089 0.0
H758 H 0.80564 0.69578 0.92137 0.0
H759 H 0.78813 0.6836 0.90171 0.0
H760 H 0.79954 0.66773 0.92224 0.0
H761 H 0.74267 0.74322 0.94531 0.0
H762 H 0.71844 0.7288 0.95307 0.0
H763 H 0.72629 0.73017 0.92525 0.0
C764 C 0.96643 0.97717 0.39355 0.0
C765 C 0.98006 0.96223 0.38534 0.0
C766 C 0.94907 0.9837 0.38144 0.0
C767 C 0.94531 0.97511 0.36065 0.0
C768 C 0.95884 0.95983 0.35241 0.0
C769 C 0.97601 0.95356 0.36486 0.0
C770 C 0.93499 4e-05 0.39075 0.0
C771 C 0.95533 0.95026 0.33031 0.0
C772 C 0.89144 0.97787 0.33304 0.0
C773 C 0.89549 0.99434 0.31849 0.0
C774 C 0.9073 0.97185 0.34737 0.0
C775 C 0.92768 0.98253 0.3471 0.0
C776 C 0.93165 0.99959 0.33294 0.0
C777 C 0.91551 0.0053 0.31884 0.0
C778 C 0.90247 0.95364 0.36234 0.0
C779 C 0.95318 0.01138 0.33216 0.0
H780 H 0.96958 0.98407 0.40929 0.0
H781 H 0.98624 0.94174 0.35857 0.0
H782 H 0.93605 0.01444 0.38076 0.0
H783 H 0.91807 0.99401 0.39054 0.0
H784 H 0.9395 0.00448 0.40751 0.0
H785 H 0.96703 0.93825 0.32645 0.0
H786 H 0.939 0.94274 0.32908 0.0
H787 H 0.95663 0.96281 0.31802 0.0
H788 H 0.87601 0.96936 0.33295 0.0
H789 H 0.9188 0.0181 0.30772 0.0
H790 H 0.90647 0.95836 0.37912 0.0
H791 H 0.9125 0.94035 0.35806 0.0
H792 H 0.88543 0.94795 0.36162 0.0
H793 H 0.9579 0.01716 0.34843 0.0
H794 H 0.95329 0.02504 0.32113 0.0
H795 H 0.96545 0.00057 0.32672 0.0
C796 C 0.22297 0.23267 0.64305 0.0
C797 C 0.21501 0.25041 0.63312 0.0
C798 C 0.23027 0.21582 0.6308 0.0
C799 C 0.2296 0.21677 0.60811 0.0
C800 C 0.22172 0.2347 0.59801 0.0
C801 C 0.21455 0.25128 0.61063 0.0
C802 C 0.23853 0.19694 0.64212 0.0
C803 C 0.22085 0.23636 0.57384 0.0
C804 C 0.26463 0.18349 0.57331 0.0
C805 C 0.24992 0.16769 0.56584 0.0
C806 C 0.25842 0.19916 0.58768 0.0
C807 C 0.23699 0.19903 0.59477 0.0
C808 C 0.22226 0.18267 0.58795 0.0
C809 C 0.2289 0.16719 0.57357 0.0
C810 C 0.27461 0.21632 0.59466 0.0
C811 C 0.19928 0.18195 0.59519 0.0
H812 H 0.22318 0.23181 0.66042 0.0
H813 H 0.20875 0.26509 0.60285 0.0
H814 H 0.22869 0.18254 0.63763 0.0
H815 H 0.25513 0.19439 0.63698 0.0
H816 H 0.23831 0.19878 0.65987 0.0
H817 H 0.21433 0.2514 0.56851 0.0
H818 H 0.23708 0.23522 0.56703 0.0
H819 H 0.21074 0.22306 0.56705 0.0
H820 H 0.28092 0.18397 0.56749 0.0
H821 H 0.21743 0.15501 0.56795 0.0
H822 H 0.27489 0.21779 0.61242 0.0
H823 H 0.27002 0.23169 0.58821 0.0
H824 H 0.29096 0.21331 0.58899 0.0
H825 H 0.19843 0.1829 0.61296 0.0
H826 H 0.19025 0.16737 0.58969 0.0
H827 H 0.19129 0.19578 0.58877 0.0
C828 C 0.48946 0.5291 0.64493 0.0
C829 C 0.48853 0.54564 0.63023 0.0
C830 C 0.47233 0.52407 0.65872 0.0
C831 C 0.45382 0.53589 0.65782 0.0
C832 C 0.45257 0.55227 0.64266 0.0
C833 C 0.46994 0.55695 0.62904 0.0
C834 C 0.47422 0.50641 0.6746 0.0
C835 C 0.43313 0.56528 0.64127 0.0
C836 C 0.40305 0.51317 0.68397 0.0
C837 C 0.40366 0.52358 0.70394 0.0
C838 C 0.41919 0.51711 0.66869 0.0
C839 C 0.43628 0.53184 0.67351 0.0
C840 C 0.43686 0.54257 0.69353 0.0
C841 C 0.42057 0.5383 0.70849 0.0
C842 C 0.41807 0.50537 0.64751 0.0
C843 C 0.4548 0.55844 0.69923 0.0
H844 H 0.50367 0.52011 0.6457 0.0
H845 H 0.46921 0.5699 0.61787 0.0
H846 H 0.47378 0.51282 0.69121 0.0
H847 H 0.46049 0.49478 0.67282 0.0
H848 H 0.48923 0.49807 0.67254 0.0
H849 H 0.43415 0.57663 0.62778 0.0
H850 H 0.41852 0.55484 0.63916 0.0
H851 H 0.43131 0.57424 0.65647 0.0
H852 H 0.39006 0.50177 0.68031 0.0
H853 H 0.42118 0.54647 0.72385 0.0
H854 H 0.4323 0.49585 0.64565 0.0
H855 H 0.41824 0.51672 0.63405 0.0
H856 H 0.40351 0.49471 0.64608 0.0
H857 H 0.47025 0.55068 0.69907 0.0
H858 H 0.45267 0.56572 0.71532 0.0
H859 H 0.45586 0.57114 0.6871 0.0
C860 C 0.76322 0.25153 0.63011 0.0
C861 C 0.78504 0.25065 0.63481 0.0
C862 C 0.7559 0.2663 0.61552 0.0
C863 C 0.77077 0.28047 0.60538 0.0
C864 C 0.79274 0.28005 0.61052 0.0
C865 C 0.7996 0.26517 0.62518 0.0
C866 C 0.73235 0.26628 0.61045 0.0
C867 C 0.80908 0.29497 0.60011 0.0
C868 C 0.75784 0.30265 0.55078 0.0
C869 C 0.75262 0.32329 0.55603 0.0
C870 C 0.76328 0.28844 0.56675 0.0
C871 C 0.76359 0.29501 0.58853 0.0
C872 C 0.75788 0.31565 0.59402 0.0
C873 C 0.75243 0.32955 0.57769 0.0
C874 C 0.76918 0.26651 0.56026 0.0
C875 C 0.75803 0.3232 0.61707 0.0
H876 H 0.7519 0.24024 0.63734 0.0
H877 H 0.81644 0.26481 0.62902 0.0
H878 H 0.7265 0.28236 0.61256 0.0
H879 H 0.72959 0.26163 0.59342 0.0
H880 H 0.72272 0.25524 0.62077 0.0
H881 H 0.82541 0.29327 0.6066 0.0
H882 H 0.80935 0.29196 0.58254 0.0
H883 H 0.80471 0.31153 0.60255 0.0
H884 H 0.75793 0.29763 0.53411 0.0
H885 H 0.74841 0.34546 0.5819 0.0
H886 H 0.7591 0.25454 0.56898 0.0
H887 H 0.78602 0.26419 0.56473 0.0
H888 H 0.76726 0.26358 0.54274 0.0
H889 H 0.74792 0.31229 0.62704 0.0
H890 H 0.75218 0.33935 0.61876 0.0
H891 H 0.7745 0.32323 0.62361 0.0
C892 C 0.55076 0.0015 0.60098 0.0
C893 C 0.52868 0.99812 0.59798 0.0
C894 C 0.55975 0.00217 0.62163 0.0
C895 C 0.54633 0.99943 0.63974 0.0
C896 C 0.52405 0.9957 0.63683 0.0
C897 C 0.51549 0.99506 0.61596 0.0
C898 C 0.5836 0.00606 0.62407 0.0
C899 C 0.50923 0.99279 0.65576 0.0
C900 C 0.57288 0.98523 0.69221 0.0
C901 C 0.57564 0.00503 0.70233 0.0
C902 C 0.56296 0.98309 0.67202 0.0
C903 C 0.55561 0.00115 0.66172 0.0
C904 C 0.55791 0.02108 0.67207 0.0
C905 C 0.5679 0.02277 0.69223 0.0
C906 C 0.56076 0.96157 0.66148 0.0
C907 C 0.55025 0.04071 0.66162 0.0
H908 H 0.56106 0.00355 0.58712 0.0
H909 H 0.49839 0.99264 0.61374 0.0
H910 H 0.5871 0.02089 0.63326 0.0
H911 H 0.59036 0.9931 0.63329 0.0
H912 H 0.59186 0.00729 0.60834 0.0
H913 H 0.49242 0.98923 0.65074 0.0
H914 H 0.5144 0.97977 0.66599 0.0
H915 H 0.50992 0.00732 0.66581 0.0
H916 H 0.57878 0.97143 0.69991 0.0
H917 H 0.5699 0.03812 0.69994 0.0
H918 H 0.57012 0.9616 0.64639 0.0
H919 H 0.54384 0.9577 0.65713 0.0
H920 H 0.56641 0.94897 0.67202 0.0
H921 H 0.55916 0.04377 0.64651 0.0
H922 H 0.55239 0.05484 0.67219 0.0
H923 H 0.5331 0.03843 0.65734 0.0
C924 C 0.86545 0.20758 0.78921 0.0
C925 C 0.86969 0.21375 0.76801 0.0
C926 C 0.87924 0.2141 0.80606 0.0
C927 C 0.89777 0.22697 0.80154 0.0
C928 C 0.90201 0.23342 0.7802 0.0
C929 C 0.8879 0.22677 0.76371 0.0
C930 C 0.87412 0.20704 0.82864 0.0
C931 C 0.92168 0.24703 0.77472 0.0
C932 C 0.92662 0.25895 0.84562 0.0
C933 C 0.94396 0.24654 0.85001 0.0
C934 C 0.91114 0.25252 0.83027 0.0
C935 C 0.9131 0.23327 0.81898 0.0
C936 C 0.93027 0.22044 0.8237 0.0
C937 C 0.94545 0.2272 0.83919 0.0
C938 C 0.89297 0.26656 0.82575 0.0
C939 C 0.93293 0.19982 0.81198 0.0
H940 H 0.85128 0.19769 0.79263 0.0
H941 H 0.89141 0.23134 0.74731 0.0
H942 H 0.887 0.19736 0.83477 0.0
H943 H 0.87333 0.22095 0.83945 0.0
H944 H 0.85873 0.19762 0.82955 0.0
H945 H 0.92238 0.25109 0.75741 0.0
H946 H 0.92205 0.26187 0.78427 0.0
H947 H 0.93621 0.2387 0.77892 0.0
H948 H 0.92528 0.27388 0.85395 0.0
H949 H 0.95877 0.21748 0.84249 0.0
H950 H 0.87745 0.25749 0.82731 0.0
H951 H 0.89406 0.27231 0.809 0.0
H952 H 0.89304 0.28041 0.83677 0.0
H953 H 0.91823 0.18945 0.8135 0.0
H954 H 0.94666 0.19128 0.81815 0.0
H955 H 0.93541 0.20282 0.79461 0.0
C956 C 0.50485 0.90479 0.45504 0.0
C957 C 0.48592 0.91225 0.46351 0.0
C958 C 0.50477 0.88579 0.44338 0.0
C959 C 0.48529 0.87394 0.44006 0.0
C960 C 0.46613 0.88129 0.44864 0.0
C961 C 0.46667 0.90038 0.46025 0.0
C962 C 0.52553 0.87852 0.43442 0.0
C963 C 0.44506 0.86902 0.4455 0.0
C964 C 0.48347 0.83549 0.39295 0.0
C965 C 0.48734 0.81639 0.40306 0.0
C966 C 0.48232 0.85427 0.40486 0.0
C967 C 0.48504 0.85393 0.42742 0.0
C968 C 0.48843 0.83463 0.43778 0.0
C969 C 0.48956 0.8161 0.42548 0.0
C970 C 0.47869 0.87456 0.39323 0.0
C971 C 0.49133 0.83363 0.46182 0.0
H972 H 0.51972 0.91404 0.45719 0.0
H973 H 0.45203 0.90595 0.46693 0.0
H974 H 0.52862 0.86262 0.44058 0.0
H975 H 0.52445 0.87723 0.41667 0.0
H976 H 0.53934 0.88944 0.43867 0.0
H977 H 0.43163 0.87681 0.45336 0.0
H978 H 0.44149 0.86721 0.42811 0.0
H979 H 0.446 0.85294 0.45216 0.0
H980 H 0.4817 0.83588 0.37565 0.0
H981 H 0.49247 0.8014 0.43345 0.0
H982 H 0.49274 0.88572 0.39546 0.0
H983 H 0.46468 0.88219 0.40008 0.0
H984 H 0.47599 0.87201 0.37575 0.0
H985 H 0.50592 0.84314 0.46666 0.0
H986 H 0.49276 0.81723 0.46753 0.0
H987 H 0.47764 0.84052 0.47009 0.0
C988 C 0.12447 0.30864 0.77792 0.0
C989 C 0.12361 0.29837 0.75788 0.0
C990 C 0.10913 0.30388 0.79376 0.0
C991 C 0.09254 0.28844 0.78947 0.0
C992 C 0.09186 0.27764 0.76948 0.0
C993 C 0.10739 0.28275 0.75392 0.0
C994 C 0.11043 0.31568 0.81491 0.0
C995 C 0.07441 0.26108 0.76432 0.0
C996 C 0.06096 0.26463 0.83618 0.0
C997 C 0.04246 0.27614 0.83571 0.0
C998 C 0.07743 0.26847 0.82125 0.0
C999 C 0.07536 0.28422 0.80554 0.0
C1000 C 0.05678 0.29594 0.80505 0.0
C1001 C 0.04056 0.29175 0.82012 0.0
C1002 C 0.09701 0.25562 0.82223 0.0
C1003 C 0.05401 0.31291 0.78856 0.0
H1004 H 0.13714 0.32051 0.7812 0.0
H1005 H 0.10645 0.27493 0.73839 0.0
H1006 H 0.09604 0.32494 0.817 0.0
H1007 H 0.11073 0.3044 0.8284 0.0
H1008 H 0.1248 0.32662 0.81604 0.0
H1009 H 0.07678 0.25337 0.74849 0.0
H1010 H 0.0737 0.24878 0.77688 0.0
H1011 H 0.05872 0.26839 0.76418 0.0
H1012 H 0.06257 0.25253 0.84816 0.0
H1013 H 0.02635 0.30075 0.81965 0.0
H1014 H 0.1115 0.26621 0.82442 0.0
H1015 H 0.09887 0.24697 0.80686 0.0
H1016 H 0.09622 0.24405 0.83552 0.0
H1017 H 0.06728 0.32511 0.7899 0.0
H1018 H 0.03865 0.32069 0.79043 0.0
H1019 H 0.05462 0.30603 0.77216 0.0
C1020 C 0.5464 0.62641 0.48164 0.0
C1021 C 0.53636 0.62706 0.50172 0.0
C1022 C 0.54041 0.63957 0.4649 0.0
C1023 C 0.52398 0.65369 0.46833 0.0
C1024 C 0.51352 0.65413 0.48843 0.0
C1025 C 0.51983 0.64082 0.50487 0.0
C1026 C 0.55198 0.63869 0.4437 0.0
C1027 C 0.49585 0.66889 0.49267 0.0
C1028 C 0.52266 0.70293 0.43428 0.0
C1029 C 0.50647 0.6973 0.41941 0.0
C1030 C 0.52866 0.68879 0.45012 0.0
C1031 C 0.5182 0.66853 0.45116 0.0
C1032 C 0.50197 0.66266 0.43611 0.0
C1033 C 0.49631 0.67711 0.42039 0.0
C1034 C 0.54607 0.69562 0.46587 0.0
C1035 C 0.49045 0.64119 0.43674 0.0
H1036 H 0.55933 0.61597 0.47917 0.0
H1037 H 0.51179 0.64115 0.52025 0.0
H1038 H 0.54037 0.63567 0.43042 0.0
H1039 H 0.56046 0.65413 0.44057 0.0
H1040 H 0.56378 0.62624 0.44333 0.0
H1041 H 0.48889 0.66683 0.50895 0.0
H1042 H 0.50207 0.68548 0.49108 0.0
H1043 H 0.48293 0.66622 0.48059 0.0
H1044 H 0.53064 0.71847 0.43364 0.0
H1045 H 0.48379 0.67262 0.40898 0.0
H1046 H 0.55909 0.68445 0.46527 0.0
H1047 H 0.53963 0.69533 0.48245 0.0
H1048 H 0.55295 0.71174 0.46259 0.0
H1049 H 0.50209 0.62867 0.43543 0.0
H1050 H 0.4785 0.63891 0.42362 0.0
H1051 H 0.48216 0.63908 0.45235 0.0
C1052 C 0.8646 0.77136 0.74463 0.0
C1053 C 0.85749 0.79195 0.74466 0.0
C1054 C 0.87778 0.76429 0.72817 0.0
C1055 C 0.88401 0.77815 0.71135 0.0
C1056 C 0.87626 0.79869 0.71088 0.0
C1057 C 0.86309 0.80533 0.72753 0.0
C1058 C 0.88573 0.74228 0.72923 0.0
C1059 C 0.88246 0.81389 0.69317 0.0
C1060 C 0.93683 0.76983 0.6838 0.0
C1061 C 0.93027 0.75989 0.66451 0.0
C1062 C 0.92192 0.7758 0.69914 0.0
C1063 C 0.89986 0.77173 0.69514 0.0
C1064 C 0.89309 0.76168 0.67574 0.0
C1065 C 0.90838 0.75588 0.66063 0.0
C1066 C 0.9298 0.78651 0.71963 0.0
C1067 C 0.8697 0.75708 0.67095 0.0
H1068 H 0.86051 0.761 0.7579 0.0
H1069 H 0.85735 0.82114 0.72728 0.0
H1070 H 0.88264 0.7338 0.7138 0.0
H1071 H 0.90326 0.74315 0.73188 0.0
H1072 H 0.87808 0.73292 0.74238 0.0
H1073 H 0.87392 0.82875 0.69435 0.0
H1074 H 0.89988 0.81786 0.69391 0.0
H1075 H 0.87901 0.8065 0.67726 0.0
H1076 H 0.9537 0.77302 0.68697 0.0
H1077 H 0.90317 0.7482 0.64578 0.0
H1078 H 0.9242 0.77719 0.73371 0.0
H1079 H 0.92312 0.8023 0.72111 0.0
H1080 H 0.94749 0.78846 0.72031 0.0
H1081 H 0.8624 0.74689 0.68364 0.0
H1082 H 0.86705 0.7491 0.65515 0.0
H1083 H 0.86119 0.77197 0.67104 0.0
C1084 C 0.03815 0.87548 0.52916 0.0
C1085 C 0.0244 0.87859 0.51181 0.0
C1086 C 0.03203 0.8619 0.54597 0.0
C1087 C 0.01165 0.85121 0.54543 0.0
C1088 C 0.9975 0.85466 0.52822 0.0
C1089 C 0.00406 0.8683 0.51161 0.0
C1090 C 0.04759 0.85856 0.56401 0.0
C1091 C 0.9756 0.84365 0.52716 0.0
C1092 C 0.00501 0.7998 0.57594 0.0
C1093 C 0.99509 0.80621 0.5949 0.0
C1094 C 0.01034 0.81427 0.55968 0.0
C1095 C 0.00555 0.83567 0.56237 0.0
C1096 C 0.99527 0.84222 0.58131 0.0
C1097 C 0.99021 0.82741 0.59739 0.0
C1098 C 0.02135 0.8067 0.53971 0.0
C1099 C 0.9898 0.86489 0.58468 0.0
H1100 H 0.05397 0.8832 0.52929 0.0
H1101 H 0.99326 0.87088 0.49839 0.0
H1102 H 0.04007 0.86182 0.57971 0.0
H1103 H 0.05198 0.84185 0.56408 0.0
H1104 H 0.06242 0.8688 0.56255 0.0
H1105 H 0.96615 0.8488 0.51322 0.0
H1106 H 0.97712 0.82635 0.52592 0.0
H1107 H 0.96663 0.84673 0.54209 0.0
H1108 H 0.00887 0.78347 0.57386 0.0
H1109 H 0.9825 0.8325 0.61196 0.0
H1110 H 0.03716 0.81519 0.53803 0.0
H1111 H 0.01183 0.81023 0.52527 0.0
H1112 H 0.02373 0.78948 0.53999 0.0
H1113 H 0.0046 0.87525 0.58464 0.0
H1114 H 0.98129 0.86732 0.60005 0.0
H1115 H 0.97963 0.87 0.57129 0.0
C1116 C 0.13347 0.72546 0.71869 0.0
C1117 C 0.13747 0.7396 0.73583 0.0
C1118 C 0.11376 0.72449 0.70791 0.0
C1119 C 0.09767 0.73799 0.71445 0.0
C1120 C 0.10143 0.75197 0.73204 0.0
C1121 C 0.1213 0.75261 0.74251 0.0
C1122 C 0.11037 0.70942 0.68919 0.0
C1123 C 0.08462 0.76651 0.73954 0.0
C1124 C 0.05612 0.75165 0.67314 0.0
C1125 C 0.03864 0.73821 0.67889 0.0
C1126 C 0.07538 0.75176 0.68463 0.0
C1127 C 0.07724 0.7381 0.70231 0.0
C1128 C 0.05965 0.72453 0.70825 0.0
C1129 C 0.04055 0.72476 0.69647 0.0
C1130 C 0.09379 0.76647 0.67781 0.0
C1131 C 0.06106 0.70974 0.727 0.0
H1132 H 0.14598 0.71554 0.71328 0.0
H1133 H 0.1242 0.76337 0.75593 0.0
H1134 H 0.09576 0.69913 0.69171 0.0
H1135 H 0.10793 0.71842 0.67427 0.0
H1136 H 0.1241 0.69929 0.68678 0.0
H1137 H 0.08974 0.77582 0.75401 0.0
H1138 H 0.08094 0.77761 0.72654 0.0
H1139 H 0.06961 0.75728 0.7433 0.0
H1140 H 0.0548 0.76211 0.65959 0.0
H1141 H 0.02713 0.71432 0.70102 0.0
H1142 H 0.10777 0.75725 0.67362 0.0
H1143 H 0.09869 0.77719 0.6913 0.0
H1144 H 0.08972 0.77617 0.66377 0.0
H1145 H 0.074 0.69877 0.72423 0.0
H1146 H 0.04589 0.70031 0.72966 0.0
H1147 H 0.06515 0.71884 0.74186 0.0
C1148 C 0.99395 0.60877 0.53775 0.0
C1149 C 0.9874 0.59036 0.54876 0.0
C1150 C 0.99464 0.62856 0.54803 0.0
C1151 C 0.98893 0.62996 0.56995 0.0
C1152 C 0.98189 0.61155 0.58106 0.0
C1153 C 0.98105 0.59201 0.57029 0.0
C1154 C 0.00203 0.64789 0.53558 0.0
C1155 C 0.9758 0.61239 0.60448 0.0
C1156 C 0.01384 0.67623 0.60173 0.0
C1157 C 0.99692 0.68977 0.60305 0.0
C1158 C 0.01133 0.65662 0.59125 0.0
C1159 C 0.9915 0.65051 0.58157 0.0
C1160 C 0.97432 0.66408 0.58287 0.0
C1161 C 0.97719 0.6835 0.59375 0.0
C1162 C 0.02995 0.64246 0.59048 0.0
C1163 C 0.95303 0.65821 0.57249 0.0
H1164 H 0.99915 0.6077 0.52121 0.0
H1165 H 0.97553 0.57797 0.57884 0.0
H1166 H 0.99029 0.66029 0.53717 0.0
H1167 H 0.0174 0.65446 0.54226 0.0
H1168 H 0.00428 0.64437 0.51825 0.0
H1169 H 0.96992 0.59676 0.61059 0.0
H1170 H 0.98985 0.618 0.61421 0.0
H1171 H 0.96321 0.62379 0.60699 0.0
H1172 H 0.0291 0.68091 0.60899 0.0
H1173 H 0.96408 0.69395 0.59463 0.0
H1174 H 0.03457 0.63961 0.57357 0.0
H1175 H 0.02528 0.6269 0.59753 0.0
H1176 H 0.04412 0.6493 0.59931 0.0
H1177 H 0.95516 0.6559 0.55496 0.0
H1178 H 0.94124 0.67045 0.57509 0.0
H1179 H 0.94638 0.64305 0.57901 0.0
C1180 C 0.76577 0.8858 0.21176 0.0
C1181 C 0.74531 0.89145 0.20573 0.0
C1182 C 0.78158 0.90122 0.21776 0.0
C1183 C 0.77669 0.92276 0.21792 0.0
C1184 C 0.75589 0.92848 0.21234 0.0
C1185 C 0.74048 0.91276 0.20623 0.0
C1186 C 0.80363 0.89454 0.22343 0.0
C1187 C 0.74998 0.95124 0.21255 0.0
C1188 C 0.81203 0.96287 0.249 0.0
C1189 C 0.82412 0.97244 0.23248 0.0
C1190 C 0.79669 0.94649 0.24455 0.0
C1191 C 0.7935 0.93943 0.22311 0.0
C1192 C 0.80593 0.94877 0.20643 0.0
C1193 C 0.82102 0.9652 0.21131 0.0
C1194 C 0.78363 0.93701 0.26274 0.0
C1195 C 0.80311 0.94156 0.18338 0.0
H1196 H 0.76958 0.86934 0.21123 0.0
H1197 H 0.72458 0.91714 0.20186 0.0
H1198 H 0.8154 0.90138 0.21182 0.0
H1199 H 0.80834 0.90065 0.23959 0.0
H1200 H 0.80462 0.87712 0.22328 0.0
H1201 H 0.73286 0.95296 0.20869 0.0
H1202 H 0.75342 0.95845 0.22856 0.0
H1203 H 0.75981 0.96031 0.20067 0.0
H1204 H 0.81431 0.96838 0.26541 0.0
H1205 H 0.83037 0.97242 0.19846 0.0
H1206 H 0.78529 0.91971 0.26321 0.0
H1207 H 0.76648 0.93964 0.26007 0.0
H1208 H 0.78846 0.94388 0.27859 0.0
H1209 H 0.80521 0.92435 0.18206 0.0
H1210 H 0.81461 0.94988 0.17242 0.0
H1211 H 0.78667 0.94438 0.17787 0.0
C1212 C 0.77608 0.15619 0.2977 0.0
C1213 C 0.76686 0.16291 0.27856 0.0
C1214 C 0.78593 0.13684 0.29866 0.0
C1215 C 0.78653 0.12393 0.28005 0.0
C1216 C 0.77682 0.13041 0.26083 0.0
C1217 C 0.76711 0.14981 0.26032 0.0
C1218 C 0.79615 0.13047 0.31943 0.0
C1219 C 0.77701 0.11703 0.24067 0.0
C1220 C 0.83038 0.08541 0.27353 0.0
C1221 C 0.81957 0.06607 0.27814 0.0
C1222 C 0.81992 0.10438 0.27457 0.0
C1223 C 0.79809 0.10405 0.28031 0.0
C1224 C 0.78717 0.08467 0.28541 0.0
C1225 C 0.79805 0.0659 0.28429 0.0
C1226 C 0.83213 0.12475 0.26906 0.0
C1227 C 0.76388 0.08371 0.29161 0.0
H1228 H 0.77609 0.16632 0.31179 0.0
H1229 H 0.75969 0.15475 0.24559 0.0
H1230 H 0.78984 0.11455 0.3242 0.0
H1231 H 0.81362 0.12959 0.31716 0.0
H1232 H 0.79332 0.14174 0.33274 0.0
H1233 H 0.76805 0.12396 0.22728 0.0
H1234 H 0.79372 0.11522 0.23542 0.0
H1235 H 0.76992 0.101 0.24391 0.0
H1236 H 0.84703 0.08572 0.26885 0.0
H1237 H 0.78957 0.05105 0.2879 0.0
H1238 H 0.83102 0.1363 0.28243 0.0
H1239 H 0.82498 0.13179 0.25466 0.0
H1240 H 0.84926 0.12242 0.2658 0.0
H1241 H 0.76131 0.0945 0.30535 0.0
H1242 H 0.75797 0.06754 0.29606 0.0
H1243 H 0.75414 0.08909 0.27801 0.0
C1244 C 0.39085 0.96259 0.98699 0.0
C1245 C 0.40259 0.96701 0.00585 0.0
C1246 C 0.37145 0.95054 0.98751 0.0
C1247 C 0.3636 0.94275 0.00736 0.0
C1248 C 0.37525 0.94731 0.02647 0.0
C1249 C 0.39461 0.95935 0.02548 0.0
C1250 C 0.35943 0.94603 0.9668 0.0
C1251 C 0.36741 0.93925 0.04794 0.0
C1252 C 0.30478 0.9263 0.01285 0.0
C1253 C 0.30509 0.90426 0.01116 0.0
C1254 C 0.32368 0.93905 0.01139 0.0
C1255 C 0.34334 0.92953 0.00816 0.0
C1256 C 0.34373 0.90732 0.00618 0.0
C1257 C 0.3246 0.89495 0.00771 0.0
C1258 C 0.32263 0.96268 0.01356 0.0
C1259 C 0.36441 0.89661 0.0027 0.0
H1260 H 0.39679 0.96868 0.97181 0.0
H1261 H 0.40374 0.96242 0.04007 0.0
H1262 H 0.35766 0.92876 0.96395 0.0
H1263 H 0.34312 0.95192 0.96796 0.0
H1264 H 0.36759 0.95346 0.95275 0.0
H1265 H 0.37812 0.9446 0.06136 0.0
H1266 H 0.35119 0.9447 0.05116 0.0
H1267 H 0.3662 0.92175 0.04771 0.0
H1268 H 0.28977 0.93363 0.01547 0.0
H1269 H 0.325 0.87795 0.00634 0.0
H1270 H 0.32974 0.97052 0.99921 0.0
H1271 H 0.33213 0.96839 0.02769 0.0
H1272 H 0.30601 0.96764 0.01546 0.0
H1273 H 0.37245 0.90282 0.98805 0.0
H1274 H 0.36192 0.87922 0.00101 0.0
H1275 H 0.37538 0.90011 0.01642 0.0
C1276 C 0.24558 0.39485 0.29233 0.0
C1277 C 0.24135 0.37528 0.30213 0.0
C1278 C 0.22903 0.40805 0.28742 0.0
C1279 C 0.20771 0.40153 0.29247 0.0
C1280 C 0.20324 0.38147 0.30166 0.0
C1281 C 0.22013 0.36856 0.30637 0.0
C1282 C 0.23444 0.42927 0.27748 0.0
C1283 C 0.18072 0.37399 0.30729 0.0
C1284 C 0.17034 0.44561 0.30266 0.0
C1285 C 0.15942 0.44646 0.28303 0.0
C1286 C 0.18573 0.43073 0.30607 0.0
C1287 C 0.19036 0.41635 0.28944 0.0
C1288 C 0.17906 0.41677 0.26976 0.0
C1289 C 0.16369 0.43183 0.26679 0.0
C1290 C 0.19738 0.43072 0.32733 0.0
C1291 C 0.18357 0.40167 0.25168 0.0
H1292 H 0.26193 0.39996 0.28871 0.0
H1293 H 0.21678 0.35353 0.31411 0.0
H1294 H 0.22482 0.43118 0.26272 0.0
H1295 H 0.2304 0.442 0.28883 0.0
H1296 H 0.25163 0.4314 0.27331 0.0
H1297 H 0.17973 0.35736 0.31275 0.0
H1298 H 0.17462 0.38409 0.3203 0.0
H1299 H 0.17002 0.37543 0.29323 0.0
H1300 H 0.16709 0.45678 0.31534 0.0
H1301 H 0.15531 0.43236 0.25158 0.0
H1302 H 0.21465 0.43453 0.32477 0.0
H1303 H 0.19584 0.41482 0.33458 0.0
H1304 H 0.19126 0.44234 0.33892 0.0
H1305 H 0.20024 0.40455 0.24608 0.0
H1306 H 0.17263 0.40331 0.23781 0.0
H1307 H 0.18203 0.38517 0.25742 0.0
C1308 C 0.11339 0.01771 0.48091 0.0
C1309 C 0.11723 0.00521 0.46279 0.0
C1310 C 0.1278 0.03436 0.48704 0.0
C1311 C 0.14644 0.03864 0.47469 0.0
C1312 C 0.15027 0.02622 0.45626 0.0
C1313 C 0.13565 0.00964 0.45056 0.0
C1314 C 0.12323 0.04721 0.50686 0.0
C1315 C 0.16989 0.03038 0.44261 0.0
C1316 C 0.17563 0.0925 0.47882 0.0
C1317 C 0.19295 0.08828 0.49213 0.0
C1318 C 0.16022 0.07656 0.47321 0.0
C1319 C 0.16213 0.05592 0.48118 0.0
C1320 C 0.17938 0.05162 0.49489 0.0
C1321 C 0.1946 0.06784 0.50016 0.0
C1322 C 0.14208 0.08172 0.4585 0.0
C1323 C 0.1819 0.02983 0.50377 0.0
H1324 H 0.0993 0.01422 0.49054 0.0
H1325 H 0.13853 0.00023 0.43636 0.0
H1326 H 0.13625 0.0458 0.51877 0.0
H1327 H 0.12275 0.06413 0.50271 0.0
H1328 H 0.10785 0.04209 0.51448 0.0
H1329 H 0.17035 0.01947 0.4286 0.0
H1330 H 0.17039 0.04682 0.43665 0.0
H1331 H 0.18448 0.02866 0.45241 0.0
H1332 H 0.17422 0.10824 0.47254 0.0
H1333 H 0.20788 0.06443 0.51051 0.0
H1334 H 0.12655 0.07761 0.46631 0.0
H1335 H 0.14271 0.07214 0.44356 0.0
H1336 H 0.14258 0.09866 0.45412 0.0
H1337 H 0.16729 0.02448 0.5126 0.0
H1338 H 0.19582 0.02925 0.51478 0.0
H1339 H 0.18398 0.01846 0.4904 0.0
C1340 C 0.74081 0.11131 0.73606 0.0
C1341 C 0.74043 0.12165 0.71627 0.0
C1342 C 0.72512 0.09563 0.74126 0.0
C1343 C 0.70858 0.09032 0.72636 0.0
C1344 C 0.70767 0.10127 0.7067 0.0
C1345 C 0.72368 0.11674 0.70185 0.0
C1346 C 0.72672 0.08418 0.7623 0.0
C1347 C 0.69015 0.09622 0.69051 0.0
C1348 C 0.68275 0.03497 0.7274 0.0
C1349 C 0.66362 0.0381 0.73829 0.0
C1350 C 0.69757 0.05182 0.7236 0.0
C1351 C 0.69306 0.07236 0.73069 0.0
C1352 C 0.67377 0.07565 0.74168 0.0
C1353 C 0.6593 0.05845 0.74546 0.0
C1354 C 0.71806 0.04763 0.71198 0.0
C1355 C 0.66836 0.09737 0.7493 0.0
H1356 H 0.75385 0.11494 0.74717 0.0
H1357 H 0.72321 0.12491 0.68665 0.0
H1358 H 0.71144 0.08457 0.77119 0.0
H1359 H 0.72976 0.06737 0.75917 0.0
H1360 H 0.73974 0.09111 0.77269 0.0
H1361 H 0.69084 0.10722 0.67673 0.0
H1362 H 0.69148 0.07992 0.68427 0.0
H1363 H 0.67429 0.09691 0.69826 0.0
H1364 H 0.68626 0.01929 0.7219 0.0
H1365 H 0.64451 0.06098 0.75384 0.0
H1366 H 0.73198 0.05284 0.72208 0.0
H1367 H 0.71908 0.05685 0.69694 0.0
H1368 H 0.71932 0.03067 0.70789 0.0
H1369 H 0.68091 0.10388 0.76044 0.0
H1370 H 0.65271 0.09728 0.75764 0.0
H1371 H 0.66791 0.1082 0.73544 0.0
C1372 C 0.38684 0.02868 0.50874 0.0
C1373 C 0.4061 0.04071 0.51133 0.0
C1374 C 0.36719 0.0383 0.50839 0.0
C1375 C 0.36678 0.06049 0.51057 0.0
C1376 C 0.3861 0.07268 0.5136 0.0
C1377 C 0.40551 0.06265 0.51401 0.0
C1378 C 0.3469 0.02476 0.50519 0.0
C1379 C 0.38632 0.09639 0.51598 0.0
C1380 C 0.3197 0.0874 0.48662 0.0
C1381 C 0.30744 0.09142 0.50487 0.0
C1382 C 0.33904 0.07738 0.48829 0.0
C1383 C 0.34624 0.07106 0.50868 0.0
C1384 C 0.33391 0.07496 0.52717 0.0
C1385 C 0.31468 0.08518 0.52506 0.0
C1386 C 0.35181 0.07363 0.46821 0.0
C1387 C 0.34103 0.06833 0.54917 0.0
H1388 H 0.38716 0.01176 0.50642 0.0
H1389 H 0.42028 0.07201 0.51639 0.0
H1390 H 0.33535 0.02791 0.51814 0.0
H1391 H 0.3393 0.02879 0.48975 0.0
H1392 H 0.34983 0.00765 0.50501 0.0
H1393 H 0.40263 0.1035 0.51894 0.0
H1394 H 0.37988 0.10335 0.50119 0.0
H1395 H 0.37587 0.10079 0.52945 0.0
H1396 H 0.31427 0.09222 0.47097 0.0
H1397 H 0.30528 0.08817 0.53923 0.0
H1398 H 0.35405 0.05652 0.46608 0.0
H1399 H 0.36792 0.0816 0.46973 0.0
H1400 H 0.344 0.07954 0.45357 0.0
H1401 H 0.34296 0.05105 0.54933 0.0
H1402 H 0.32952 0.07234 0.56191 0.0
H1403 H 0.35682 0.07611 0.5531 0.0
C1404 C 0.62967 0.49899 0.53016 0.0
C1405 C 0.61502 0.49759 0.54713 0.0
C1406 C 0.64239 0.48211 0.52506 0.0
C1407 C 0.64043 0.46339 0.53724 0.0
C1408 C 0.62533 0.46168 0.55408 0.0
C1409 C 0.6128 0.47881 0.55882 0.0
C1410 C 0.65824 0.48449 0.50691 0.0
C1411 C 0.62281 0.44199 0.56746 0.0
C1412 C 0.66299 0.4138 0.51369 0.0
C1413 C 0.68294 0.41369 0.52391 0.0
C1414 C 0.64886 0.42976 0.51802 0.0
C1415 C 0.65483 0.44595 0.53294 0.0
C1416 C 0.67481 0.44576 0.54353 0.0
C1417 C 0.68862 0.42966 0.53888 0.0
C1418 C 0.62768 0.42945 0.50642 0.0
C1419 C 0.68173 0.46273 0.5596 0.0
H1420 H 0.63124 0.51335 0.52087 0.0
H1421 H 0.60167 0.4777 0.5721 0.0
H1422 H 0.6747 0.48348 0.51325 0.0
H1423 H 0.65552 0.47145 0.4951 0.0
H1424 H 0.65718 0.49973 0.49845 0.0
H1425 H 0.60959 0.44276 0.57923 0.0
H1426 H 0.6197 0.42797 0.55695 0.0
H1427 H 0.63784 0.43962 0.57633 0.0
H1428 H 0.65846 0.40154 0.5021 0.0
H1429 H 0.70398 0.42969 0.5469 0.0
H1430 H 0.62671 0.44392 0.49668 0.0
H1431 H 0.61444 0.42941 0.5182 0.0
H1432 H 0.62522 0.41549 0.49566 0.0
H1433 H 0.68258 0.47834 0.55168 0.0
H1434 H 0.69756 0.46004 0.56681 0.0
H1435 H 0.66981 0.46345 0.57268 0.0
C1436 C 0.74697 0.29997 0.3696 0.0
C1437 C 0.72816 0.29666 0.35755 0.0
C1438 C 0.7473 0.3121 0.38855 0.0
C1439 C 0.72835 0.32111 0.39564 0.0
C1440 C 0.70925 0.31767 0.38368 0.0
C1441 C 0.70939 0.30549 0.36477 0.0
C1442 C 0.76796 0.31533 0.40092 0.0
C1443 C 0.68874 0.32704 0.39074 0.0
C1444 C 0.72602 0.33708 0.45444 0.0
C1445 C 0.73139 0.35879 0.45356 0.0
C1446 C 0.72458 0.32469 0.43568 0.0
C1447 C 0.72861 0.33423 0.41554 0.0
C1448 C 0.73359 0.35621 0.41448 0.0
C1449 C 0.73491 0.36823 0.43351 0.0
C1450 C 0.71917 0.30131 0.43745 0.0
C1451 C 0.73797 0.36694 0.39328 0.0
H1452 H 0.76145 0.29295 0.36427 0.0
H1453 H 0.69486 0.30322 0.35539 0.0
H1454 H 0.77255 0.33241 0.40214 0.0
H1455 H 0.76584 0.30939 0.41752 0.0
H1456 H 0.78127 0.30716 0.39329 0.0
H1457 H 0.67517 0.32254 0.37986 0.0
H1458 H 0.68458 0.32177 0.40722 0.0
H1459 H 0.69085 0.3445 0.39126 0.0
H1460 H 0.72324 0.32964 0.46986 0.0
H1461 H 0.73904 0.38499 0.43266 0.0
H1462 H 0.73269 0.29234 0.43146 0.0
H1463 H 0.7051 0.29678 0.42728 0.0
H1464 H 0.71567 0.29647 0.45423 0.0
H1465 H 0.75222 0.36044 0.38567 0.0
H1466 H 0.74081 0.38428 0.39513 0.0
H1467 H 0.72432 0.36379 0.38215 0.0
C1468 C 0.51472 0.01577 0.89724 0.0
C1469 C 0.52738 0.02159 0.91515 0.0
C1470 C 0.5234 0.01579 0.87648 0.0
C1471 C 0.54528 0.02169 0.87357 0.0
C1472 C 0.558 0.02808 0.89151 0.0
C1473 C 0.54889 0.02799 0.91205 0.0
C1474 C 0.50932 0.00892 0.85774 0.0
C1475 C 0.58139 0.03452 0.88906 0.0
C1476 C 0.57431 7e-05 0.82545 0.0
C1477 C 0.5758 0.01758 0.81183 0.0
C1478 C 0.56418 0.00114 0.84545 0.0
C1479 C 0.55518 0.02015 0.85197 0.0
C1480 C 0.55623 0.03776 0.83815 0.0
C1481 C 0.5666 0.03629 0.81826 0.0
C1482 C 0.56346 0.98204 0.85978 0.0
C1483 C 0.54667 0.05824 0.84451 0.0
H1484 H 0.49815 0.0106 0.89952 0.0
H1485 H 0.55868 0.03286 0.92577 0.0
H1486 H 0.51029 0.02102 0.84498 0.0
H1487 H 0.51497 0.99411 0.85068 0.0
H1488 H 0.49235 0.00618 0.86249 0.0
H1489 H 0.58886 0.03986 0.90449 0.0
H1490 H 0.5901 0.021 0.88279 0.0
H1491 H 0.58344 0.04744 0.87725 0.0
H1492 H 0.58138 0.98554 0.82065 0.0
H1493 H 0.56761 0.04987 0.80781 0.0
H1494 H 0.5467 0.97744 0.864 0.0
H1495 H 0.57209 0.98589 0.875 0.0
H1496 H 0.57076 0.9683 0.85211 0.0
H1497 H 0.52954 0.0554 0.84853 0.0
H1498 H 0.54808 0.07018 0.83158 0.0
H1499 H 0.55479 0.06484 0.8591 0.0
C1500 C 0.26254 0.24079 0.39095 0.0
C1501 C 0.28303 0.25067 0.39214 0.0
C1502 C 0.25583 0.22543 0.40592 0.0
C1503 C 0.26988 0.22007 0.42261 0.0
C1504 C 0.29063 0.22991 0.42379 0.0
C1505 C 0.29699 0.24501 0.40847 0.0
C1506 C 0.23369 0.21507 0.40399 0.0
C1507 C 0.30597 0.22481 0.4415 0.0
C1508 C 0.24684 0.19707 0.47417 0.0
C1509 C 0.25124 0.17572 0.47199 0.0
C1510 C 0.25258 0.21162 0.45809 0.0
C1511 C 0.26273 0.2046 0.43925 0.0
C1512 C 0.26673 0.18298 0.4367 0.0
C1513 C 0.26105 0.16881 0.45316 0.0
C1514 C 0.24825 0.23459 0.46149 0.0
C1515 C 0.27729 0.17488 0.41672 0.0
H1516 H 0.25179 0.24503 0.37822 0.0
H1517 H 0.31274 0.25282 0.40958 0.0
H1518 H 0.23461 0.19768 0.40311 0.0
H1519 H 0.22423 0.2187 0.41847 0.0
H1520 H 0.22505 0.2204 0.3896 0.0
H1521 H 0.32165 0.23363 0.43993 0.0
H1522 H 0.29902 0.2287 0.45732 0.0
H1523 H 0.30866 0.20768 0.44141 0.0
H1524 H 0.23933 0.20255 0.48869 0.0
H1525 H 0.2644 0.15232 0.45132 0.0
H1526 H 0.23847 0.24027 0.44808 0.0
H1527 H 0.26354 0.24421 0.46159 0.0
H1528 H 0.23979 0.2374 0.47682 0.0
H1529 H 0.26834 0.17944 0.40224 0.0
H1530 H 0.27825 0.15746 0.41672 0.0
H1531 H 0.29369 0.18216 0.41538 0.0
C1532 C 0.47051 0.47857 0.89287 0.0
C1533 C 0.4829 0.46292 0.884 0.0
C1534 C 0.45272 0.48563 0.88182 0.0
C1535 C 0.4472 0.47679 0.86148 0.0
C1536 C 0.45934 0.46062 0.85274 0.0
C1537 C 0.47703 0.4539 0.86409 0.0
C1538 C 0.44019 0.50295 0.89161 0.0
C1539 C 0.45391 0.4507 0.83115 0.0
C1540 C 0.39263 0.48262 0.8362 0.0
C1541 C 0.39724 0.49827 0.8209 0.0
C1542 C 0.40857 0.47592 0.8501 0.0
C1543 C 0.42955 0.48518 0.84867 0.0
C1544 C 0.43406 0.50158 0.83385 0.0
C1545 C 0.41788 0.50789 0.82014 0.0
C1546 C 0.40317 0.4584 0.86572 0.0
C1547 C 0.4562 0.51193 0.83191 0.0
H1548 H 0.47507 0.48568 0.90819 0.0
H1549 H 0.48633 0.44154 0.85736 0.0
H1550 H 0.44185 0.51725 0.88151 0.0
H1551 H 0.42296 0.49807 0.89212 0.0
H1552 H 0.44567 0.50718 0.90814 0.0
H1553 H 0.46434 0.43763 0.82708 0.0
H1554 H 0.43705 0.44447 0.83094 0.0
H1555 H 0.45561 0.4628 0.81843 0.0
H1556 H 0.37672 0.47512 0.83692 0.0
H1557 H 0.42156 0.52013 0.80849 0.0
H1558 H 0.40849 0.46311 0.88215 0.0
H1559 H 0.41178 0.44421 0.86116 0.0
H1560 H 0.38579 0.45407 0.86609 0.0
H1561 H 0.46203 0.51766 0.84785 0.0
H1562 H 0.45671 0.52543 0.82065 0.0
H1563 H 0.46741 0.50021 0.82609 0.0
C1564 C 0.72603 0.7387 0.13438 0.0
C1565 C 0.71105 0.75216 0.12608 0.0
C1566 C 0.73417 0.72263 0.12163 0.0
C1567 C 0.72729 0.7201 0.10005 0.0
C1568 C 0.71216 0.73364 0.09161 0.0
C1569 C 0.7042 0.74945 0.10474 0.0
C1570 C 0.75015 0.70838 0.13121 0.0
C1571 C 0.70456 0.73159 0.06862 0.0
C1572 C 0.76149 0.69331 0.05884 0.0
C1573 C 0.75045 0.67366 0.05627 0.0
C1574 C 0.75448 0.70835 0.0735 0.0
C1575 C 0.73609 0.70357 0.08603 0.0
C1576 C 0.72535 0.68347 0.08411 0.0
C1577 C 0.7326 0.66878 0.06918 0.0
C1578 C 0.76631 0.72965 0.07499 0.0
C1579 C 0.70579 0.67772 0.09734 0.0
H1580 H 0.73123 0.74062 0.15092 0.0
H1581 H 0.69287 0.76001 0.09816 0.0
H1582 H 0.74409 0.69169 0.1299 0.0
H1583 H 0.76535 0.70982 0.12213 0.0
H1584 H 0.75355 0.71216 0.14837 0.0
H1585 H 0.69262 0.74327 0.0646 0.0
H1586 H 0.71832 0.73382 0.05756 0.0
H1587 H 0.69731 0.71552 0.06563 0.0
H1588 H 0.7753 0.69723 0.04894 0.0
H1589 H 0.72404 0.65359 0.06738 0.0
H1590 H 0.77075 0.73337 0.0919 0.0
H1591 H 0.75576 0.74206 0.06952 0.0
H1592 H 0.78102 0.73046 0.06508 0.0
H1593 H 0.70914 0.68074 0.11462 0.0
H1594 H 0.70028 0.66092 0.09519 0.0
H1595 H 0.6926 0.68776 0.09268 0.0
C1596 C 0.99864 0.05284 0.16453 0.0
C1597 C 0.99788 0.04665 0.14285 0.0
C1598 C 0.9822 0.04667 0.17871 0.0
C1599 C 0.96449 0.03404 0.17104 0.0
C1600 C 0.96359 0.02771 0.14919 0.0
C1601 C 0.98031 0.03409 0.13535 0.0
C1602 C 0.98373 0.05378 0.20189 0.0
C1603 C 0.94496 0.01423 0.14046 0.0
C1604 C 0.93198 0.00388 0.21319 0.0
C1605 C 0.91515 0.0172 0.21671 0.0
C1606 C 0.94787 0.00889 0.19796 0.0
C1607 C 0.94689 0.02765 0.18596 0.0
C1608 C 0.92963 0.04086 0.189 0.0
C1609 C 0.91397 0.03549 0.20435 0.0
C1610 C 0.96604 0.99441 0.19516 0.0
C1611 C 0.92799 0.06096 0.17644 0.0
H1612 H 0.01198 0.06284 0.17036 0.0
H1613 H 0.97973 0.02905 0.11868 0.0
H1614 H 0.96997 0.06335 0.20597 0.0
H1615 H 0.98299 0.03987 0.21259 0.0
H1616 H 0.99871 0.06332 0.20536 0.0
H1617 H 0.94667 0.01066 0.12307 0.0
H1618 H 0.94342 0.99914 0.14932 0.0
H1619 H 0.92991 0.02237 0.14289 0.0
H1620 H 0.933 0.9897 0.22262 0.0
H1621 H 0.90098 0.04583 0.20689 0.0
H1622 H 0.98128 0.0028 0.2 0.0
H1623 H 0.96757 0.98984 0.17802 0.0
H1624 H 0.96385 0.97987 0.20487 0.0
H1625 H 0.94171 0.07204 0.18044 0.0
H1626 H 0.91298 0.0689 0.17987 0.0
H1627 H 0.92874 0.05757 0.15896 0.0
C1628 C 0.29218 0.75918 0.1199 0.0
C1629 C 0.27987 0.7535 0.1379 0.0
C1630 C 0.28526 0.77402 0.10521 0.0
C1631 C 0.26561 0.78351 0.10869 0.0
C1632 C 0.25329 0.77814 0.12705 0.0
C1633 C 0.26053 0.76312 0.1414 0.0
C1634 C 0.29877 0.77922 0.08573 0.0
C1635 C 0.23237 0.78808 0.13141 0.0
C1636 C 0.25702 0.83436 0.07889 0.0
C1637 C 0.2446 0.82705 0.06131 0.0
C1638 C 0.26363 0.82043 0.09467 0.0
C1639 C 0.25775 0.79866 0.09279 0.0
C1640 C 0.2449 0.79124 0.07531 0.0
C1641 C 0.23844 0.80553 0.05981 0.0
C1642 C 0.27723 0.82893 0.11314 0.0
C1643 C 0.23833 0.76813 0.07274 0.0
H1644 H 0.307 0.75158 0.11698 0.0
H1645 H 0.25108 0.75892 0.15542 0.0
H1646 H 0.28966 0.77489 0.07091 0.0
H1647 H 0.30275 0.79643 0.08516 0.0
H1648 H 0.31386 0.77081 0.08563 0.0
H1649 H 0.22506 0.78272 0.14678 0.0
H1650 H 0.23482 0.80551 0.13196 0.0
H1651 H 0.22094 0.78413 0.11818 0.0
H1652 H 0.26181 0.85097 0.08022 0.0
H1653 H 0.22884 0.79974 0.04631 0.0
H1654 H 0.2931 0.82199 0.11261 0.0
H1655 H 0.26974 0.82433 0.12864 0.0
H1656 H 0.27962 0.84639 0.1128 0.0
H1657 H 0.25272 0.75884 0.07091 0.0
H1658 H 0.22779 0.765 0.05859 0.0
H1659 H 0.22982 0.76235 0.08732 0.0
C1660 C 0.04334 0.50923 0.10775 0.0
C1661 C 0.02714 0.4948 0.10058 0.0
C1662 C 0.05136 0.50841 0.12875 0.0
C1663 C 0.04303 0.49274 0.14291 0.0
C1664 C 0.02663 0.47815 0.1358 0.0
C1665 C 0.01883 0.47939 0.11472 0.0
C1666 C 0.06875 0.52435 0.13578 0.0
C1667 C 0.01746 0.46113 0.1504 0.0
C1668 C 0.07862 0.47995 0.18992 0.0
C1669 C 0.06999 0.49182 0.20657 0.0
C1670 C 0.06964 0.47965 0.16925 0.0
C1671 C 0.05167 0.4916 0.16511 0.0
C1672 C 0.04257 0.50321 0.18195 0.0
C1673 C 0.0518 0.50314 0.2025 0.0
C1674 C 0.07971 0.46695 0.15173 0.0
C1675 C 0.02344 0.5162 0.17812 0.0
H1676 H 0.0496 0.52135 0.09698 0.0
H1677 H 0.00645 0.46807 0.10917 0.0
H1678 H 0.06338 0.53337 0.14993 0.0
H1679 H 0.08313 0.51614 0.14074 0.0
H1680 H 0.07335 0.53566 0.12287 0.0
H1681 H 0.00463 0.45113 0.14248 0.0
H1682 H 0.03027 0.45089 0.15563 0.0
H1683 H 0.01085 0.46833 0.16508 0.0
H1684 H 0.09261 0.47108 0.19293 0.0
H1685 H 0.04502 0.51236 0.21526 0.0
H1686 H 0.08618 0.47768 0.13908 0.0
H1687 H 0.06752 0.45605 0.14404 0.0
H1688 H 0.09287 0.45758 0.15785 0.0
H1689 H 0.02763 0.52887 0.16648 0.0
H1690 H 0.01768 0.52356 0.19313 0.0
H1691 H 0.01017 0.50621 0.17099 0.0
C1692 C 0.3711 0.73172 0.27344 0.0
C1693 C 0.36136 0.71133 0.27298 0.0
C1694 C 0.38526 0.73811 0.29001 0.0
C1695 C 0.38971 0.7238 0.30656 0.0
C1696 C 0.37929 0.70348 0.30662 0.0
C1697 C 0.36528 0.69747 0.28979 0.0
C1698 C 0.39613 0.75988 0.28934 0.0
C1699 C 0.38347 0.68784 0.32406 0.0
C1700 C 0.44368 0.73081 0.33404 0.0
C1701 C 0.43856 0.74107 0.35325 0.0
C1702 C 0.4279 0.72502 0.31882 0.0
C1703 C 0.40641 0.72954 0.32289 0.0
C1704 C 0.40105 0.73967 0.34233 0.0
C1705 C 0.4172 0.74534 0.35729 0.0
C1706 C 0.43428 0.71424 0.29827 0.0
C1707 C 0.37829 0.74467 0.34723 0.0
H1708 H 0.36828 0.74242 0.26039 0.0
H1709 H 0.35754 0.6818 0.28966 0.0
H1710 H 0.39409 0.76822 0.30486 0.0
H1711 H 0.41353 0.75857 0.28683 0.0
H1712 H 0.38982 0.76962 0.27626 0.0
H1713 H 0.3729 0.6733 0.32267 0.0
H1714 H 0.40031 0.68333 0.32323 0.0
H1715 H 0.38114 0.69508 0.3401 0.0
H1716 H 0.46012 0.72743 0.33074 0.0
H1717 H 0.41309 0.75326 0.37208 0.0
H1718 H 0.43001 0.72387 0.28427 0.0
H1719 H 0.42541 0.69873 0.29659 0.0
H1720 H 0.45166 0.7117 0.29765 0.0
H1721 H 0.37237 0.75546 0.3349 0.0
H1722 H 0.37668 0.75217 0.36328 0.0
H1723 H 0.36784 0.73004 0.34659 0.0
C1724 C 0.98704 0.40997 0.94559 0.0
C1725 C 0.99234 0.41334 0.9673 0.0
C1726 C 0.98922 0.39024 0.93572 0.0
C1727 C 0.99665 0.37338 0.9479 0.0
C1728 C 0.00137 0.37645 0.96998 0.0
C1729 C 0.99927 0.3964 0.97938 0.0
C1730 C 0.98409 0.3876 0.91212 0.0
C1731 C 0.00918 0.3588 0.98354 0.0
C1732 C 0.98784 0.31759 0.92575 0.0
C1733 C 0.00795 0.31394 0.91705 0.0
C1734 C 0.98394 0.33681 0.93598 0.0
C1735 C 0.00047 0.35282 0.93732 0.0
C1736 C 0.02076 0.34926 0.92848 0.0
C1737 C 0.02428 0.32984 0.91856 0.0
C1738 C 0.96218 0.33996 0.94542 0.0
C1739 C 0.03874 0.36603 0.92939 0.0
H1740 H 0.9813 0.42283 0.93622 0.0
H1741 H 0.00368 0.39888 0.99608 0.0
H1742 H 0.99869 0.38366 0.90322 0.0
H1743 H 0.97212 0.37433 0.90962 0.0
H1744 H 0.97781 0.40207 0.90508 0.0
H1745 H 0.01073 0.36333 0.00077 0.0
H1746 H 0.99808 0.34467 0.98213 0.0
H1747 H 0.02499 0.35423 0.97768 0.0
H1748 H 0.97516 0.30536 0.9247 0.0
H1749 H 0.03983 0.32719 0.91179 0.0
H1750 H 0.955 0.35367 0.93782 0.0
H1751 H 0.96369 0.34353 0.96285 0.0
H1752 H 0.95111 0.32588 0.94322 0.0
H1753 H 0.0338 0.38053 0.92134 0.0
H1754 H 0.0535 0.36083 0.92158 0.0
H1755 H 0.04248 0.3703 0.94634 0.0
C1756 C 0.61426 0.81358 0.2674 0.0
C1757 C 0.62109 0.79881 0.25235 0.0
C1758 C 0.59926 0.80775 0.28323 0.0
C1759 C 0.59095 0.78662 0.2841 0.0
C1760 C 0.59841 0.77145 0.26953 0.0
C1761 C 0.61337 0.77774 0.2538 0.0
C1762 C 0.59175 0.82438 0.29852 0.0
C1763 C 0.58996 0.74875 0.26999 0.0
C1764 C 0.56089 0.76875 0.33429 0.0
C1765 C 0.5396 0.77058 0.32789 0.0
C1766 C 0.57782 0.77374 0.32017 0.0
C1767 C 0.57332 0.78078 0.29921 0.0
C1768 C 0.55188 0.78256 0.29265 0.0
C1769 C 0.5353 0.77742 0.30704 0.0
C1770 C 0.6005 0.77157 0.32768 0.0
C1771 C 0.54643 0.79007 0.27044 0.0
H1772 H 0.62046 0.82981 0.26662 0.0
H1773 H 0.61841 0.76627 0.24212 0.0
H1774 H 0.57458 0.82675 0.29568 0.0
H1775 H 0.5934 0.81915 0.31536 0.0
H1776 H 0.60079 0.83976 0.29663 0.0
H1777 H 0.5987 0.73857 0.25882 0.0
H1778 H 0.59113 0.74238 0.28646 0.0
H1779 H 0.57282 0.74782 0.26544 0.0
H1780 H 0.56436 0.76344 0.35036 0.0
H1781 H 0.51892 0.7789 0.30193 0.0
H1782 H 0.60944 0.78709 0.32701 0.0
H1783 H 0.60873 0.76068 0.31684 0.0
H1784 H 0.60129 0.76554 0.34434 0.0
H1785 H 0.55367 0.80617 0.26792 0.0
H1786 H 0.52893 0.7904 0.26778 0.0
H1787 H 0.55318 0.77961 0.25812 0.0
C1788 C 0.04855 0.12906 0.98945 0.0
C1789 C 0.03762 0.12921 0.00907 0.0
C1790 C 0.04259 0.14184 0.97239 0.0
C1791 C 0.02526 0.15505 0.97501 0.0
C1792 C 0.01386 0.15491 0.9946 0.0
C1793 C 0.02019 0.14201 0.0114 0.0
C1794 C 0.05518 0.1416 0.95176 0.0
C1795 C 0.99521 0.16868 0.99796 0.0
C1796 C 0.02342 0.20411 0.94077 0.0
C1797 C 0.00838 0.19774 0.92499 0.0
C1798 C 0.02915 0.19032 0.95703 0.0
C1799 C 0.01958 0.16964 0.95758 0.0
C1800 C 0.00446 0.16305 0.94167 0.0
C1801 C 0.99906 0.17717 0.92554 0.0
C1802 C 0.04539 0.19791 0.97369 0.0
C1803 C 0.9939 0.14113 0.94177 0.0
H1804 H 0.06218 0.11938 0.98763 0.0
H1805 H 0.01149 0.14196 0.02642 0.0
H1806 H 0.04433 0.13813 0.93794 0.0
H1807 H 0.06309 0.15738 0.94905 0.0
H1808 H 0.06758 0.12973 0.95193 0.0
H1809 H 0.9875 0.16611 0.01383 0.0
H1810 H 0.00067 0.18553 0.99679 0.0
H1811 H 0.98306 0.1655 0.9852 0.0
H1812 H 0.03074 0.21995 0.94046 0.0
H1813 H 0.98742 0.1721 0.91342 0.0
H1814 H 0.05903 0.18747 0.97373 0.0
H1815 H 0.03812 0.19715 0.9899 0.0
H1816 H 0.05158 0.21435 0.9708 0.0
H1817 H 0.00618 0.12919 0.94096 0.0
H1818 H 0.98262 0.13838 0.92813 0.0
H1819 H 0.98503 0.13855 0.957 0.0
C1820 C 0.38922 0.29079 0.26258 0.0
C1821 C 0.36723 0.29235 0.25933 0.0
C1822 C 0.40239 0.28379 0.24611 0.0
C1823 C 0.39337 0.27824 0.22586 0.0
C1824 C 0.37115 0.27961 0.2225 0.0
C1825 C 0.35832 0.28662 0.2393 0.0
C1826 C 0.42599 0.28241 0.25038 0.0
C1827 C 0.36099 0.27391 0.20109 0.0
C1828 C 0.43222 0.27991 0.17921 0.0
C1829 C 0.437 0.25863 0.17719 0.0
C1830 C 0.4175 0.28641 0.19452 0.0
C1831 C 0.40737 0.27129 0.2082 0.0
C1832 C 0.41161 0.24971 0.2058 0.0
C1833 C 0.42636 0.24364 0.1903 0.0
C1834 C 0.41331 0.30955 0.19652 0.0
C1835 C 0.40111 0.23314 0.22009 0.0
H1836 H 0.39613 0.29487 0.27813 0.0
H1837 H 0.34136 0.28798 0.23666 0.0
H1838 H 0.4308 0.26607 0.24744 0.0
H1839 H 0.43527 0.29283 0.23919 0.0
H1840 H 0.43044 0.28706 0.2671 0.0
H1841 H 0.34343 0.27544 0.20121 0.0
H1842 H 0.36802 0.28429 0.18842 0.0
H1843 H 0.36432 0.25746 0.19661 0.0
H1844 H 0.44027 0.2916 0.16908 0.0
H1845 H 0.4299 0.22716 0.18883 0.0
H1846 H 0.41904 0.31566 0.21236 0.0
H1847 H 0.39591 0.31183 0.1957 0.0
H1848 H 0.42138 0.3191 0.18375 0.0
H1849 H 0.40633 0.23595 0.23695 0.0
H1850 H 0.40508 0.21691 0.2153 0.0
H1851 H 0.38351 0.23416 0.21969 0.0
C1852 C 0.53755 0.35135 9e-05 0.0
C1853 C 0.53073 0.37203 0.99955 0.0
C1854 C 0.53004 0.33713 0.0158 0.0
C1855 C 0.51531 0.34375 0.03133 0.0
C1856 C 0.50839 0.36462 0.03093 0.0
C1857 C 0.51621 0.37853 0.01505 0.0
C1858 C 0.5379 0.31505 0.01579 0.0
C1859 C 0.49264 0.3722 0.0472 0.0
C1860 C 0.48205 0.30076 0.05975 0.0
C1861 C 0.49325 0.29906 0.07912 0.0
C1862 C 0.48885 0.31549 0.04418 0.0
C1863 C 0.50729 0.3288 0.04808 0.0
C1864 C 0.51846 0.32739 0.06774 0.0
C1865 C 0.5113 0.31256 0.08302 0.0
C1866 C 0.47649 0.31659 0.02342 0.0
C1867 C 0.53821 0.34131 0.07247 0.0
H1868 H 0.54898 0.34634 0.98831 0.0
H1869 H 0.51069 0.39442 0.01455 0.0
H1870 H 0.54588 0.31199 0.03129 0.0
H1871 H 0.5242 0.30336 0.01417 0.0
H1872 H 0.54932 0.31238 0.00255 0.0
H1873 H 0.4889 0.38892 0.04471 0.0
H1874 H 0.47757 0.36228 0.04626 0.0
H1875 H 0.49912 0.37061 0.06366 0.0
H1876 H 0.46808 0.29043 0.05661 0.0
H1877 H 0.52005 0.31139 0.09795 0.0
H1878 H 0.48684 0.31253 0.00973 0.0
H1879 H 0.4715 0.33289 0.02084 0.0
H1880 H 0.46206 0.30568 0.02318 0.0
H1881 H 0.55077 0.33822 0.06051 0.0
H1882 H 0.5447 0.33867 0.08878 0.0
H1883 H 0.53455 0.35815 0.07107 0.0
C1884 C 0.63563 0.22977 0.21322 0.0
C1885 C 0.63795 0.23881 0.23377 0.0
C1886 C 0.61591 0.22913 0.2025 0.0
C1887 C 0.59808 0.23771 0.21259 0.0
C1888 C 0.60017 0.24637 0.23355 0.0
C1889 C 0.6201 0.24686 0.24388 0.0
C1890 C 0.61433 0.21985 0.18011 0.0
C1891 C 0.58147 0.25553 0.24488 0.0
C1892 C 0.55455 0.25687 0.17634 0.0
C1893 C 0.53917 0.24004 0.17713 0.0
C1894 C 0.57369 0.25635 0.18795 0.0
C1895 C 0.57755 0.23861 0.20073 0.0
C1896 C 0.562 0.22167 0.20182 0.0
C1897 C 0.543 0.22257 0.18997 0.0
C1898 C 0.5899 0.27471 0.18634 0.0
C1899 C 0.56555 0.20254 0.21535 0.0
H1900 H 0.64942 0.22376 0.20522 0.0
H1901 H 0.62176 0.25362 0.25987 0.0
H1902 H 0.60121 0.20747 0.17924 0.0
H1903 H 0.61048 0.23231 0.16854 0.0
H1904 H 0.62939 0.21286 0.17497 0.0
H1905 H 0.58545 0.26062 0.26159 0.0
H1906 H 0.57618 0.26936 0.2359 0.0
H1907 H 0.56778 0.24376 0.24531 0.0
H1908 H 0.55175 0.27043 0.16647 0.0
H1909 H 0.53119 0.20952 0.1907 0.0
H1910 H 0.60509 0.26922 0.17976 0.0
H1911 H 0.59344 0.28143 0.20254 0.0
H1912 H 0.58434 0.28744 0.17592 0.0
H1913 H 0.57983 0.19461 0.20957 0.0
H1914 H 0.55165 0.19096 0.21493 0.0
H1915 H 0.56868 0.20739 0.23227 0.0
C1916 C 0.4943 0.10362 0.06886 0.0
C1917 C 0.49005 0.10126 0.04682 0.0
C1918 C 0.49511 0.12356 0.07877 0.0
C1919 C 0.49149 0.14162 0.06636 0.0
C1920 C 0.4868 0.13934 0.0442 0.0
C1921 C 0.48616 0.11919 0.03468 0.0
C1922 C 0.50012 0.12534 0.10247 0.0
C1923 C 0.48285 0.15824 0.03045 0.0
C1924 C 0.4777 0.19156 0.09624 0.0
C1925 C 0.49754 0.20282 0.09694 0.0
C1926 C 0.4754 0.17173 0.08607 0.0
C1927 C 0.49339 0.16294 0.07648 0.0
C1928 C 0.51341 0.17431 0.07699 0.0
C1929 C 0.51523 0.19412 0.08716 0.0
C1930 C 0.45378 0.16011 0.08574 0.0
C1931 C 0.53299 0.16541 0.06704 0.0
H1932 H 0.49697 0.0898 0.07841 0.0
H1933 H 0.48308 0.11752 0.0176 0.0
H1934 H 0.5151 0.13515 0.10495 0.0
H1935 H 0.48722 0.13332 0.11095 0.0
H1936 H 0.502 0.10972 0.10994 0.0
H1937 H 0.47845 0.1537 0.01369 0.0
H1938 H 0.46987 0.16731 0.03745 0.0
H1939 H 0.49741 0.16892 0.03009 0.0
H1940 H 0.46393 0.1982 0.1037 0.0
H1941 H 0.53062 0.20268 0.08763 0.0
H1942 H 0.45461 0.14492 0.0943 0.0
H1943 H 0.44891 0.15635 0.06895 0.0
H1944 H 0.44126 0.16938 0.09339 0.0
H1945 H 0.53651 0.15038 0.07494 0.0
H1946 H 0.54729 0.17642 0.06845 0.0
H1947 H 0.53006 0.16182 0.04979 0.0
C1948 C 0.2733 0.39097 0.70184 0.0
C1949 C 0.25752 0.38309 0.716 0.0
C1950 C 0.28926 0.40584 0.70872 0.0
C1951 C 0.28954 0.41289 0.73034 0.0
C1952 C 0.27402 0.40459 0.74488 0.0
C1953 C 0.25816 0.38985 0.73752 0.0
C1954 C 0.30553 0.41432 0.69273 0.0
C1955 C 0.27386 0.41168 0.76808 0.0
C1956 C 0.34072 0.44033 0.75166 0.0
C1957 C 0.33608 0.46164 0.75008 0.0
C1958 C 0.32564 0.42425 0.74552 0.0
C1959 C 0.30553 0.42964 0.73748 0.0
C1960 C 0.30072 0.45112 0.73595 0.0
C1961 C 0.31602 0.46685 0.74233 0.0
C1962 C 0.33126 0.40151 0.74754 0.0
C1963 C 0.27949 0.45751 0.72735 0.0
H1964 H 0.27315 0.38556 0.68528 0.0
H1965 H 0.24589 0.38405 0.74852 0.0
H1966 H 0.30414 0.43157 0.69094 0.0
H1967 H 0.32191 0.41184 0.69862 0.0
H1968 H 0.30351 0.40672 0.67667 0.0
H1969 H 0.26151 0.40278 0.77761 0.0
H1970 H 0.2897 0.40968 0.77554 0.0
H1971 H 0.27075 0.42871 0.76901 0.0
H1972 H 0.35615 0.43617 0.7577 0.0
H1973 H 0.3123 0.48327 0.74102 0.0
H1974 H 0.33069 0.39374 0.73151 0.0
H1975 H 0.31938 0.39287 0.75781 0.0
H1976 H 0.34741 0.39995 0.75453 0.0
H1977 H 0.27719 0.45152 0.71067 0.0
H1978 H 0.27818 0.47489 0.72737 0.0
H1979 H 0.2663 0.45035 0.73714 0.0
C1980 C 0.26502 0.64751 0.76393 0.0
C1981 C 0.26681 0.66206 0.78099 0.0
C1982 C 0.27544 0.62851 0.76456 0.0
C1983 C 0.28795 0.62392 0.78271 0.0
C1984 C 0.28938 0.63827 0.80024 0.0
C1985 C 0.27878 0.65718 0.79917 0.0
C1986 C 0.27343 0.61355 0.7456 0.0
C1987 C 0.30259 0.63392 0.81986 0.0
C1988 C 0.30266 0.56702 0.78966 0.0
C1989 C 0.32319 0.56743 0.78072 0.0
C1990 C 0.29112 0.58538 0.7908 0.0
C1991 C 0.30035 0.60457 0.78283 0.0
C1992 C 0.32123 0.60517 0.77422 0.0
C1993 C 0.33239 0.58661 0.77327 0.0
C1994 C 0.26889 0.58416 0.80013 0.0
C1995 C 0.33164 0.62535 0.7656 0.0
H1996 H 0.2555 0.65104 0.74999 0.0
H1997 H 0.28039 0.66845 0.81232 0.0
H1998 H 0.28934 0.61188 0.7382 0.0
H1999 H 0.26761 0.59766 0.75096 0.0
H2000 H 0.26236 0.61903 0.73312 0.0
H2001 H 0.30102 0.64606 0.83263 0.0
H2002 H 0.29774 0.61825 0.82652 0.0
H2003 H 0.31966 0.63351 0.81534 0.0
H2004 H 0.29544 0.55229 0.79549 0.0
H2005 H 0.34827 0.58711 0.7664 0.0
H2006 H 0.25716 0.58807 0.78761 0.0
H2007 H 0.26769 0.59591 0.81329 0.0
H2008 H 0.26437 0.56825 0.80649 0.0
H2009 H 0.32223 0.63093 0.75185 0.0
H2010 H 0.34827 0.62333 0.76016 0.0
H2011 H 0.33186 0.63789 0.77813 0.0
C2012 C 0.89989 0.44113 0.51799 0.0
C2013 C 0.90446 0.4568 0.5027 0.0
C2014 C 0.87999 0.42999 0.51831 0.0
C2015 C 0.86431 0.43456 0.50289 0.0
C2016 C 0.86883 0.45033 0.48737 0.0
C2017 C 0.88884 0.46132 0.48751 0.0
C2018 C 0.87571 0.41341 0.53523 0.0
C2019 C 0.85256 0.45551 0.47057 0.0
C2020 C 0.82031 0.39227 0.49262 0.0
C2021 C 0.80353 0.39971 0.50493 0.0
C2022 C 0.84007 0.40364 0.49152 0.0
C2023 C 0.84316 0.42283 0.5031 0.0
C2024 C 0.82623 0.43054 0.51538 0.0
C2025 C 0.8066 0.41892 0.5161 0.0
C2026 C 0.85773 0.39498 0.47815 0.0
C2027 C 0.82896 0.45091 0.52802 0.0
H2028 H 0.91182 0.43778 0.52994 0.0
H2029 H 0.8924 0.47327 0.47552 0.0
H2030 H 0.86174 0.41747 0.54505 0.0
H2031 H 0.87172 0.39791 0.52748 0.0
H2032 H 0.8896 0.41179 0.54609 0.0
H2033 H 0.8586 0.46815 0.45958 0.0
H2034 H 0.84803 0.44122 0.46089 0.0
H2035 H 0.83784 0.46067 0.47843 0.0
H2036 H 0.81805 0.37749 0.48387 0.0
H2037 H 0.79373 0.42479 0.52565 0.0
H2038 H 0.8715 0.39169 0.48859 0.0
H2039 H 0.86345 0.40684 0.46621 0.0
H2040 H 0.85252 0.38022 0.4695 0.0
H2041 H 0.8418 0.44966 0.54015 0.0
H2042 H 0.81408 0.45497 0.53639 0.0
H2043 H 0.8339 0.46406 0.51719 0.0
C2044 C 0.7171 0.87764 0.8111 0.0
C2045 C 0.73647 0.87869 0.79984 0.0
C2046 C 0.70133 0.89201 0.80705 0.0
C2047 C 0.70507 0.90785 0.79145 0.0
C2048 C 0.72438 0.90869 0.77968 0.0
C2049 C 0.73983 0.89407 0.784 0.0
C2050 C 0.68087 0.89053 0.81981 0.0
C2051 C 0.72899 0.92542 0.763 0.0
C2052 C 0.6585 0.93718 0.76945 0.0
C2053 C 0.66 0.9559 0.78163 0.0
C2054 C 0.67294 0.92129 0.77259 0.0
C2055 C 0.68928 0.92424 0.7882 0.0
C2056 C 0.69079 0.94304 0.80061 0.0
C2057 C 0.67612 0.95861 0.7972 0.0
C2058 C 0.6708 0.90141 0.75911 0.0
C2059 C 0.70804 0.94679 0.81738 0.0
H2060 H 0.71432 0.86561 0.82316 0.0
H2061 H 0.75487 0.89511 0.77543 0.0
H2062 H 0.67963 0.90496 0.8298 0.0
H2063 H 0.6669 0.88957 0.80882 0.0
H2064 H 0.67995 0.8766 0.83051 0.0
H2065 H 0.74428 0.92324 0.75449 0.0
H2066 H 0.71591 0.92524 0.75098 0.0
H2067 H 0.72981 0.94123 0.77077 0.0
H2068 H 0.64608 0.93495 0.7574 0.0
H2069 H 0.67742 0.97302 0.80668 0.0
H2070 H 0.66896 0.88742 0.76964 0.0
H2071 H 0.68551 0.89969 0.74954 0.0
H2072 H 0.65694 0.90135 0.74798 0.0
H2073 H 0.707 0.93406 0.82948 0.0
H2074 H 0.70691 0.96219 0.8258 0.0
H2075 H 0.72399 0.9464 0.80977 0.0
C2076 C 0.63775 0.51259 0.94589 0.0
C2077 C 0.62099 0.50563 0.95934 0.0
C2078 C 0.65183 0.52949 0.95196 0.0
C2079 C 0.64917 0.53958 0.97206 0.0
C2080 C 0.63221 0.5327 0.98569 0.0
C2081 C 0.61824 0.51584 0.97912 0.0
C2082 C 0.66958 0.53651 0.93688 0.0
C2083 C 0.62898 0.54296 0.00732 0.0
C2084 C 0.69822 0.56934 0.99508 0.0
C2085 C 0.69443 0.59024 0.9897 0.0
C2086 C 0.6834 0.55276 0.98985 0.0
C2087 C 0.66437 0.55716 0.97886 0.0
C2088 C 0.66029 0.57824 0.97366 0.0
C2089 C 0.67534 0.59454 0.9792 0.0
C2090 C 0.68825 0.53049 0.99579 0.0
C2091 C 0.64023 0.58353 0.96186 0.0
H2092 H 0.63974 0.50492 0.93046 0.0
H2093 H 0.6054 0.51038 0.98963 0.0
H2094 H 0.6684 0.55344 0.933 0.0
H2095 H 0.68528 0.53483 0.94475 0.0
H2096 H 0.6692 0.52726 0.92165 0.0
H2097 H 0.61485 0.53592 0.01588 0.0
H2098 H 0.64333 0.54132 0.01749 0.0
H2099 H 0.62691 0.56008 0.00535 0.0
H2100 H 0.71288 0.56587 0.00328 0.0
H2101 H 0.67227 0.61063 0.97498 0.0
H2102 H 0.68969 0.52078 0.98102 0.0
H2103 H 0.67497 0.52321 0.00537 0.0
H2104 H 0.70329 0.52984 0.00517 0.0
H2105 H 0.63981 0.57574 0.94584 0.0
H2106 H 0.6391 0.60078 0.95964 0.0
H2107 H 0.62594 0.57742 0.97077 0.0
C2108 C 0.22647 0.62223 0.23965 0.0
C2109 C 0.23486 0.62274 0.21877 0.0
C2110 C 0.20918 0.60833 0.24495 0.0
C2111 C 0.20021 0.59444 0.22907 0.0
C2112 C 0.20843 0.59502 0.20793 0.0
C2113 C 0.22552 0.60925 0.20301 0.0
C2114 C 0.2007 0.60827 0.26763 0.0
C2115 C 0.19938 0.58038 0.19057 0.0
C2116 C 0.17113 0.54339 0.24599 0.0
C2117 C 0.14973 0.54786 0.24253 0.0
C2118 C 0.18769 0.55853 0.24198 0.0
C2119 C 0.18272 0.57874 0.23464 0.0
C2120 C 0.16112 0.58357 0.23173 0.0
C2121 C 0.14487 0.568 0.23555 0.0
C2122 C 0.21054 0.55269 0.24502 0.0
C2123 C 0.15521 0.60506 0.22423 0.0
H2124 H 0.2337 0.63242 0.25199 0.0
H2125 H 0.23156 0.60983 0.18673 0.0
H2126 H 0.18326 0.61043 0.26751 0.0
H2127 H 0.20319 0.59281 0.27515 0.0
H2128 H 0.20862 0.62088 0.27776 0.0
H2129 H 0.20747 0.58295 0.17489 0.0
H2130 H 0.20104 0.56374 0.19534 0.0
H2131 H 0.18209 0.58264 0.18844 0.0
H2132 H 0.17503 0.52783 0.25131 0.0
H2133 H 0.12836 0.57161 0.23299 0.0
H2134 H 0.21897 0.564 0.25619 0.0
H2135 H 0.21905 0.55364 0.22943 0.0
H2136 H 0.21168 0.53651 0.25143 0.0
H2137 H 0.16266 0.61752 0.23483 0.0
H2138 H 0.13766 0.60671 0.22403 0.0
H2139 H 0.16144 0.6079 0.2078 0.0
C2140 C 0.90743 0.5635 0.0183 0.0
C2141 C 0.90887 0.54349 0.0088 0.0
C2142 C 0.8884 0.57416 0.0175 0.0
C2143 C 0.87026 0.5645 0.00718 0.0
C2144 C 0.87138 0.54406 0.99811 0.0
C2145 C 0.8907 0.53386 0.99892 0.0
C2146 C 0.88787 0.59598 0.02727 0.0
C2147 C 0.85231 0.53317 0.98711 0.0
C2148 C 0.81585 0.58588 0.01864 0.0
C2149 C 0.81268 0.59816 0.0004 0.0
C2150 C 0.83449 0.57475 0.02107 0.0
C2151 C 0.85041 0.57617 0.00499 0.0
C2152 C 0.84741 0.58874 0.98668 0.0
C2153 C 0.82854 0.59948 0.98455 0.0
C2154 C 0.83705 0.56133 0.0407 0.0
C2155 C 0.86413 0.59085 0.9693 0.0
H2156 H 0.92123 0.5709 0.02636 0.0
H2157 H 0.89168 0.51853 0.99131 0.0
H2158 H 0.88446 0.60754 0.0146 0.0
H2159 H 0.87484 0.59649 0.03925 0.0
H2160 H 0.90317 0.60105 0.03523 0.0
H2161 H 0.85539 0.51676 0.98213 0.0
H2162 H 0.83829 0.53277 0.99796 0.0
H2163 H 0.84803 0.54214 0.97265 0.0
H2164 H 0.80363 0.58471 0.03091 0.0
H2165 H 0.82628 0.60902 0.97046 0.0
H2166 H 0.85171 0.56666 0.04961 0.0
H2167 H 0.83894 0.54469 0.0358 0.0
H2168 H 0.8232 0.56191 0.05174 0.0
H2169 H 0.87953 0.59702 0.97628 0.0
H2170 H 0.85949 0.60155 0.95626 0.0
H2171 H 0.86685 0.57515 0.96219 0.0
C2172 C 0.11837 0.99236 0.04036 0.0
C2173 C 0.12579 0.00819 0.05479 0.0
C2174 C 0.13159 0.97634 0.03377 0.0
C2175 C 0.15272 0.97618 0.04179 0.0
C2176 C 0.1602 0.99195 0.05656 0.0
C2177 C 0.14664 0.00773 0.0629 0.0
C2178 C 0.12307 0.95978 0.01798 0.0
C2179 C 0.18261 0.99228 0.06554 0.0
C2180 C 0.1837 0.92634 0.03963 0.0
C2181 C 0.19728 0.93038 0.02211 0.0
C2182 C 0.16871 0.94086 0.0459 0.0
C2183 C 0.16729 0.95987 0.03438 0.0
C2184 C 0.18056 0.96379 0.01636 0.0
C2185 C 0.19539 0.949 0.01044 0.0
C2186 C 0.15477 0.93611 0.06517 0.0
C2187 C 0.17951 0.98387 0.00365 0.0
H2188 H 0.10234 0.99274 0.03389 0.0
H2189 H 0.15236 0.0197 0.07434 0.0
H2190 H 0.1326 0.96066 0.00299 0.0
H2191 H 0.12466 0.94381 0.02469 0.0
H2192 H 0.10604 0.9617 0.01386 0.0
H2193 H 0.18583 0.00543 0.07716 0.0
H2194 H 0.18529 0.97718 0.07371 0.0
H2195 H 0.19435 0.99389 0.05228 0.0
H2196 H 0.185 0.91196 0.0487 0.0
H2197 H 0.20575 0.95224 0.99683 0.0
H2198 H 0.1377 0.93732 0.06086 0.0
H2199 H 0.1585 0.94791 0.07805 0.0
H2200 H 0.15701 0.92013 0.07167 0.0
H2201 H 0.16292 0.9859 0.99812 0.0
H2202 H 0.19017 0.98406 0.98944 0.0
H2203 H 0.18417 0.99763 0.01405 0.0
loop_
_geom_bond_atom_site_label_1
_geom_bond_atom_site_label_2
_geom_bond_distance
_geom_bond_site_symmetry_2
_ccdc_geom_bond_type
P0 O11 1.490 . S
P0 C14 1.812 . S
P0 C20 1.803 . S
P0 C26 1.819 . S
H1 C15 0.941 . S
H2 C16 0.939 . S
H3 C18 0.940 . S
H4 C19 0.940 . S
H5 C21 0.939 . S
H6 C22 0.942 . S
H7 C24 0.940 1_565 S
H8 C25 0.939 . S
H9 C27 0.941 . S
H10 C31 0.939 . S
O11 P0 1.490 . S
H12 C28 0.939 . S
H13 C30 0.940 1_556 S
C14 P0 1.812 . S
C14 C15 1.389 . S
C14 C19 1.391 . S
C15 H1 0.941 . S
C15 C14 1.389 . S
C15 C16 1.397 . S
C16 H2 0.939 . S
C16 C15 1.397 . S
C16 C17 1.378 1_455 S
C17 C16 1.378 1_655 S
C17 C18 1.378 . S
C18 H3 0.940 . S
C18 C17 1.378 . S
C18 C19 1.396 1_655 S
C19 H4 0.940 . S
C19 C14 1.391 . S
C19 C18 1.396 1_455 S
C20 P0 1.803 . S
C20 C21 1.378 . S
C20 C25 1.400 . S
C21 H5 0.939 . S
C21 C20 1.378 . S
C21 C22 1.361 . S
C22 H6 0.942 . S
C22 C21 1.361 . S
C22 C23 1.369 . S
C23 C22 1.369 . S
C23 C24 1.404 . S
C24 H7 0.940 1_545 S
C24 C23 1.404 . S
C24 C25 1.389 . S
C25 H8 0.939 . S
C25 C20 1.400 . S
C25 C24 1.389 . S
C26 P0 1.819 . S
C26 C27 1.391 . S
C26 C31 1.391 . S
C27 H9 0.941 . S
C27 C26 1.391 . S
C27 C28 1.396 . S
C28 H12 0.939 . S
C28 C27 1.396 . S
C28 C29 1.397 . S
C29 C28 1.397 . S
C29 C30 1.385 . S
C30 H13 0.940 1_554 S
C30 C29 1.385 . S
C30 C31 1.388 . S
C31 H10 0.939 . S
C31 C26 1.391 . S
C31 C30 1.388 . S
P32 O43 1.490 . S
P32 C46 1.812 . S
P32 C52 1.803 . S
P32 C58 1.819 . S
H33 C47 0.941 . S
H34 C48 0.939 . S
H35 C50 0.940 . S
H36 C51 0.940 . S
H37 C53 0.939 . S
H38 C54 0.942 . S
H39 C56 0.940 . S
H40 C57 0.939 . S
H41 C59 0.941 . S
H42 C63 0.939 . S
O43 P32 1.490 . S
H44 C60 0.939 . S
H45 C62 0.940 . S
C46 P32 1.812 . S
C46 C47 1.389 . S
C46 C51 1.391 . S
C47 H33 0.941 . S
C47 C46 1.389 . S
C47 C48 1.397 . S
C48 H34 0.939 . S
C48 C47 1.397 . S
C48 C49 1.378 . S
C49 C48 1.378 . S
C49 C50 1.378 . S
C50 H35 0.940 . S
C50 C49 1.378 . S
C50 C51 1.396 . S
C51 H36 0.940 . S
C51 C46 1.391 . S
C51 C50 1.396 . S
C52 P32 1.803 . S
C52 C53 1.378 . S
C52 C57 1.400 . S
C53 H37 0.939 . S
C53 C52 1.378 . S
C53 C54 1.361 . S
C54 H38 0.942 . S
C54 C53 1.361 . S
C54 C55 1.369 . S
C55 C54 1.369 . S
C55 C56 1.404 . S
C56 H39 0.940 . S
C56 C55 1.404 . S
C56 C57 1.389 . S
C57 H40 0.939 . S
C57 C52 1.400 . S
C57 C56 1.389 . S
C58 P32 1.819 . S
C58 C59 1.391 . S
C58 C63 1.391 . S
C59 H41 0.941 . S
C59 C58 1.391 . S
C59 C60 1.396 . S
C60 H44 0.939 . S
C60 C59 1.396 . S
C60 C61 1.397 . S
C61 C60 1.397 . S
C61 C62 1.385 . S
C62 H45 0.940 . S
C62 C61 1.385 . S
C62 C63 1.388 . S
C63 H42 0.939 . S
C63 C58 1.391 . S
C63 C62 1.388 . S
P64 O75 1.490 . S
P64 C78 1.812 . S
P64 C84 1.803 . S
P64 C90 1.819 . S
H65 C79 0.941 . S
H66 C80 0.939 . S
H67 C82 0.940 . S
H68 C83 0.940 . S
H69 C85 0.939 . S
H70 C86 0.942 . S
H71 C88 0.940 . S
H72 C89 0.939 . S
H73 C91 0.941 . S
H74 C95 0.939 . S
O75 P64 1.490 . S
H76 C92 0.939 . S
H77 C94 0.940 . S
C78 P64 1.812 . S
C78 C79 1.389 1_554 S
C78 C83 1.391 . S
C79 H65 0.941 . S
C79 C78 1.389 1_556 S
C79 C80 1.397 . S
C80 H66 0.939 . S
C80 C79 1.397 . S
C80 C81 1.378 . S
C81 C80 1.378 . S
C81 C82 1.378 1_556 S
C82 H67 0.940 . S
C82 C81 1.378 1_554 S
C82 C83 1.396 . S
C83 H68 0.940 . S
C83 C78 1.391 . S
C83 C82 1.396 . S
C84 P64 1.803 . S
C84 C85 1.378 . S
C84 C89 1.400 . S
C85 H69 0.939 . S
C85 C84 1.378 . S
C85 C86 1.361 . S
C86 H70 0.942 . S
C86 C85 1.361 . S
C86 C87 1.369 . S
C87 C86 1.369 . S
C87 C88 1.404 . S
C88 H71 0.940 . S
C88 C87 1.404 . S
C88 C89 1.389 . S
C89 H72 0.939 . S
C89 C84 1.400 . S
C89 C88 1.389 . S
C90 P64 1.819 . S
C90 C91 1.391 1_655 S
C90 C95 1.391 . S
C91 H73 0.941 . S
C91 C90 1.391 1_455 S
C91 C92 1.396 . S
C92 H76 0.939 . S
C92 C91 1.396 . S
C92 C93 1.397 . S
C93 C92 1.397 . S
C93 C94 1.385 1_455 S
C94 H77 0.940 . S
C94 C93 1.385 1_655 S
C94 C95 1.388 . S
C95 H74 0.939 . S
C95 C90 1.391 . S
C95 C94 1.388 . S
P96 O107 1.490 . S
P96 C110 1.812 . S
P96 C116 1.803 . S
P96 C122 1.819 . S
H97 C111 0.941 . S
H98 C112 0.939 . S
H99 C114 0.940 . S
H100 C115 0.940 . S
H101 C117 0.939 . S
H102 C118 0.942 . S
H103 C120 0.940 . S
H104 C121 0.939 . S
H105 C123 0.941 . S
H106 C127 0.939 . S
O107 P96 1.490 . S
H108 C124 0.939 . S
H109 C126 0.940 . S
C110 P96 1.812 . S
C110 C111 1.389 . S
C110 C115 1.391 . S
C111 H97 0.941 . S
C111 C110 1.389 . S
C111 C112 1.397 . S
C112 H98 0.939 . S
C112 C111 1.397 . S
C112 C113 1.378 . S
C113 C112 1.378 . S
C113 C114 1.378 . S
C114 H99 0.940 . S
C114 C113 1.378 . S
C114 C115 1.396 . S
C115 H100 0.940 . S
C115 C110 1.391 . S
C115 C114 1.396 . S
C116 P96 1.803 . S
C116 C117 1.378 . S
C116 C121 1.400 . S
C117 H101 0.939 . S
C117 C116 1.378 . S
C117 C118 1.361 . S
C118 H102 0.942 . S
C118 C117 1.361 . S
C118 C119 1.369 . S
C119 C118 1.369 . S
C119 C120 1.404 . S
C120 H103 0.940 . S
C120 C119 1.404 . S
C120 C121 1.389 . S
C121 H104 0.939 . S
C121 C116 1.400 . S
C121 C120 1.389 . S
C122 P96 1.819 . S
C122 C123 1.391 . S
C122 C127 1.391 . S
C123 H105 0.941 . S
C123 C122 1.391 . S
C123 C124 1.396 . S
C124 H108 0.939 . S
C124 C123 1.396 . S
C124 C125 1.397 . S
C125 C124 1.397 . S
C125 C126 1.385 . S
C126 H109 0.940 . S
C126 C125 1.385 . S
C126 C127 1.388 . S
C127 H106 0.939 . S
C127 C122 1.391 . S
C127 C126 1.388 . S
P128 O139 1.490 . S
P128 C142 1.812 . S
P128 C148 1.803 . S
P128 C154 1.819 . S
H129 C143 0.941 . S
H130 C144 0.939 . S
H131 C146 0.940 . S
H132 C147 0.940 . S
H133 C149 0.939 . S
H134 C150 0.942 . S
H135 C152 0.940 . S
H136 C153 0.939 . S
H137 C155 0.941 . S
H138 C159 0.939 . S
O139 P128 1.490 . S
H140 C156 0.939 . S
H141 C158 0.940 . S
C142 P128 1.812 . S
C142 C143 1.389 . S
C142 C147 1.391 . S
C143 H129 0.941 . S
C143 C142 1.389 . S
C143 C144 1.397 . S
C144 H130 0.939 . S
C144 C143 1.397 . S
C144 C145 1.378 1_565 S
C145 C144 1.378 1_545 S
C145 C146 1.378 . S
C146 H131 0.940 . S
C146 C145 1.378 . S
C146 C147 1.396 1_545 S
C147 H132 0.940 . S
C147 C142 1.391 . S
C147 C146 1.396 1_565 S
C148 P128 1.803 . S
C148 C149 1.378 . S
C148 C153 1.400 . S
C149 H133 0.939 . S
C149 C148 1.378 . S
C149 C150 1.361 . S
C150 H134 0.942 . S
C150 C149 1.361 . S
C150 C151 1.369 . S
C151 C150 1.369 . S
C151 C152 1.404 . S
C152 H135 0.940 . S
C152 C151 1.404 . S
C152 C153 1.389 . S
C153 H136 0.939 . S
C153 C148 1.400 . S
C153 C152 1.389 . S
C154 P128 1.819 . S
C154 C155 1.391 . S
C154 C159 1.391 . S
C155 H137 0.941 . S
C155 C154 1.391 . S
C155 C156 1.396 . S
C156 H140 0.939 . S
C156 C155 1.396 . S
C156 C157 1.397 1_455 S
C157 C156 1.397 1_655 S
C157 C158 1.385 . S
C158 H141 0.940 . S
C158 C157 1.385 . S
C158 C159 1.388 1_655 S
C159 H138 0.939 . S
C159 C154 1.391 . S
C159 C158 1.388 1_455 S
P160 O171 1.490 . S
P160 C174 1.812 . S
P160 C180 1.803 . S
P160 C186 1.819 . S
H161 C175 0.941 . S
H162 C176 0.939 . S
H163 C178 0.940 . S
H164 C179 0.940 . S
H165 C181 0.939 . S
H166 C182 0.942 . S
H167 C184 0.940 . S
H168 C185 0.939 . S
H169 C187 0.941 . S
H170 C191 0.939 . S
O171 P160 1.490 . S
H172 C188 0.939 . S
H173 C190 0.940 . S
C174 P160 1.812 . S
C174 C175 1.389 . S
C174 C179 1.391 . S
C175 H161 0.941 . S
C175 C174 1.389 . S
C175 C176 1.397 . S
C176 H162 0.939 . S
C176 C175 1.397 . S
C176 C177 1.378 . S
C177 C176 1.378 . S
C177 C178 1.378 . S
C178 H163 0.940 . S
C178 C177 1.378 . S
C178 C179 1.396 . S
C179 H164 0.940 . S
C179 C174 1.391 . S
C179 C178 1.396 . S
C180 P160 1.803 . S
C180 C181 1.378 . S
C180 C185 1.400 . S
C181 H165 0.939 . S
C181 C180 1.378 . S
C181 C182 1.361 . S
C182 H166 0.942 . S
C182 C181 1.361 . S
C182 C183 1.369 . S
C183 C182 1.369 . S
C183 C184 1.404 . S
C184 H167 0.940 . S
C184 C183 1.404 . S
C184 C185 1.389 . S
C185 H168 0.939 . S
C185 C180 1.400 . S
C185 C184 1.389 . S
C186 P160 1.819 . S
C186 C187 1.391 . S
C186 C191 1.391 . S
C187 H169 0.941 . S
C187 C186 1.391 . S
C187 C188 1.396 . S
C188 H172 0.939 . S
C188 C187 1.396 . S
C188 C189 1.397 . S
C189 C188 1.397 . S
C189 C190 1.385 . S
C190 H173 0.940 . S
C190 C189 1.385 . S
C190 C191 1.388 . S
C191 H170 0.939 . S
C191 C186 1.391 . S
C191 C190 1.388 . S
P192 O203 1.490 . S
P192 C206 1.812 . S
P192 C212 1.803 . S
P192 C218 1.819 . S
H193 C207 0.941 . S
H194 C208 0.939 . S
H195 C210 0.940 . S
H196 C211 0.940 . S
H197 C213 0.939 . S
H198 C214 0.942 . S
H199 C216 0.940 . S
H200 C217 0.939 . S
H201 C219 0.941 . S
H202 C223 0.939 . S
O203 P192 1.490 . S
H204 C220 0.939 . S
H205 C222 0.940 . S
C206 P192 1.812 . S
C206 C207 1.389 1_655 S
C206 C211 1.391 . S
C207 H193 0.941 . S
C207 C206 1.389 1_455 S
C207 C208 1.397 . S
C208 H194 0.939 . S
C208 C207 1.397 . S
C208 C209 1.378 . S
C209 C208 1.378 . S
C209 C210 1.378 1_455 S
C210 H195 0.940 . S
C210 C209 1.378 1_655 S
C210 C211 1.396 . S
C211 H196 0.940 . S
C211 C206 1.391 . S
C211 C210 1.396 . S
C212 P192 1.803 . S
C212 C213 1.378 . S
C212 C217 1.400 . S
C213 H197 0.939 . S
C213 C212 1.378 . S
C213 C214 1.361 . S
C214 H198 0.942 . S
C214 C213 1.361 . S
C214 C215 1.369 . S
C215 C214 1.369 . S
C215 C216 1.404 . S
C216 H199 0.940 . S
C216 C215 1.404 . S
C216 C217 1.389 . S
C217 H200 0.939 . S
C217 C212 1.400 . S
C217 C216 1.389 . S
C218 P192 1.819 . S
C218 C219 1.391 . S
C218 C223 1.391 . S
C219 H201 0.941 . S
C219 C218 1.391 . S
C219 C220 1.396 . S
C220 H204 0.939 . S
C220 C219 1.396 . S
C220 C221 1.397 . S
C221 C220 1.397 . S
C221 C222 1.385 . S
C222 H205 0.940 . S
C222 C221 1.385 . S
C222 C223 1.388 . S
C223 H202 0.939 . S
C223 C218 1.391 . S
C223 C222 1.388 . S
P224 O235 1.490 . S
P224 C238 1.812 . S
P224 C244 1.803 . S
P224 C250 1.819 . S
H225 C239 0.941 . S
H226 C240 0.939 . S
H227 C242 0.940 . S
H228 C243 0.940 . S
H229 C245 0.939 . S
H230 C246 0.942 . S
H231 C248 0.940 . S
H232 C249 0.939 . S
H233 C251 0.941 . S
H234 C255 0.939 . S
O235 P224 1.490 . S
H236 C252 0.939 . S
H237 C254 0.940 . S
C238 P224 1.812 . S
C238 C239 1.389 . S
C238 C243 1.391 . S
C239 H225 0.941 . S
C239 C238 1.389 . S
C239 C240 1.397 . S
C240 H226 0.939 . S
C240 C239 1.397 . S
C240 C241 1.378 . S
C241 C240 1.378 . S
C241 C242 1.378 . S
C242 H227 0.940 . S
C242 C241 1.378 . S
C242 C243 1.396 . S
C243 H228 0.940 . S
C243 C238 1.391 . S
C243 C242 1.396 . S
C244 P224 1.803 . S
C244 C245 1.378 . S
C244 C249 1.400 . S
C245 H229 0.939 . S
C245 C244 1.378 . S
C245 C246 1.361 . S
C246 H230 0.942 . S
C246 C245 1.361 . S
C246 C247 1.369 . S
C247 C246 1.369 . S
C247 C248 1.404 . S
C248 H231 0.940 . S
C248 C247 1.404 . S
C248 C249 1.389 . S
C249 H232 0.939 . S
C249 C244 1.400 . S
C249 C248 1.389 . S
C250 P224 1.819 . S
C250 C251 1.391 . S
C250 C255 1.391 . S
C251 H233 0.941 . S
C251 C250 1.391 . S
C251 C252 1.396 . S
C252 H236 0.939 . S
C252 C251 1.396 . S
C252 C253 1.397 . S
C253 C252 1.397 . S
C253 C254 1.385 . S
C254 H237 0.940 . S
C254 C253 1.385 . S
C254 C255 1.388 . S
C255 H234 0.939 . S
C255 C250 1.391 . S
C255 C254 1.388 . S
P256 O267 1.490 . S
P256 C270 1.812 . S
P256 C276 1.803 . S
P256 C282 1.819 . S
H257 C271 0.941 . S
H258 C272 0.939 . S
H259 C274 0.940 . S
H260 C275 0.940 . S
H261 C277 0.939 . S
H262 C278 0.942 . S
H263 C280 0.940 . S
H264 C281 0.939 . S
H265 C283 0.941 . S
H266 C287 0.939 . S
O267 P256 1.490 . S
H268 C284 0.939 . S
H269 C286 0.940 . S
C270 P256 1.812 . S
C270 C271 1.389 . S
C270 C275 1.391 . S
C271 H257 0.941 . S
C271 C270 1.389 . S
C271 C272 1.397 . S
C272 H258 0.939 . S
C272 C271 1.397 . S
C272 C273 1.378 . S
C273 C272 1.378 . S
C273 C274 1.378 . S
C274 H259 0.940 . S
C274 C273 1.378 . S
C274 C275 1.396 . S
C275 H260 0.940 . S
C275 C270 1.391 . S
C275 C274 1.396 . S
C276 P256 1.803 . S
C276 C277 1.378 . S
C276 C281 1.400 . S
C277 H261 0.939 . S
C277 C276 1.378 . S
C277 C278 1.361 . S
C278 H262 0.942 . S
C278 C277 1.361 . S
C278 C279 1.369 . S
C279 C278 1.369 . S
C279 C280 1.404 . S
C280 H263 0.940 . S
C280 C279 1.404 . S
C280 C281 1.389 . S
C281 H264 0.939 . S
C281 C276 1.400 . S
C281 C280 1.389 . S
C282 P256 1.819 . S
C282 C283 1.391 . S
C282 C287 1.391 . S
C283 H265 0.941 . S
C283 C282 1.391 . S
C283 C284 1.396 . S
C284 H268 0.939 . S
C284 C283 1.396 . S
C284 C285 1.397 . S
C285 C284 1.397 . S
C285 C286 1.385 . S
C286 H269 0.940 . S
C286 C285 1.385 . S
C286 C287 1.388 . S
C287 H266 0.939 . S
C287 C282 1.391 . S
C287 C286 1.388 . S
P288 O299 1.491 1_565 S
P288 C302 1.812 . S
P288 C308 1.803 . S
P288 C314 1.819 . S
H289 C303 0.941 . S
H290 C304 0.939 . S
H291 C306 0.940 . S
H292 C307 0.940 . S
H293 C309 0.939 . S
H294 C310 0.942 . S
H295 C312 0.940 . S
H296 C313 0.939 . S
H297 C315 0.941 . S
H298 C319 0.939 . S
O299 P288 1.491 1_545 S
H300 C316 0.939 . S
H301 C318 0.940 . S
C302 P288 1.812 . S
C302 C303 1.389 . S
C302 C307 1.391 . S
C303 H289 0.941 . S
C303 C302 1.389 . S
C303 C304 1.397 . S
C304 H290 0.939 . S
C304 C303 1.397 . S
C304 C305 1.378 . S
C305 C304 1.378 . S
C305 C306 1.378 . S
C306 H291 0.940 . S
C306 C305 1.378 . S
C306 C307 1.396 . S
C307 H292 0.940 . S
C307 C302 1.391 . S
C307 C306 1.396 . S
C308 P288 1.803 . S
C308 C309 1.378 1_565 S
C308 C313 1.400 . S
C309 H293 0.939 . S
C309 C308 1.378 1_545 S
C309 C310 1.361 . S
C310 H294 0.942 . S
C310 C309 1.361 . S
C310 C311 1.369 . S
C311 C310 1.369 . S
C311 C312 1.404 1_545 S
C312 H295 0.940 . S
C312 C311 1.404 1_565 S
C312 C313 1.389 . S
C313 H296 0.939 . S
C313 C308 1.400 . S
C313 C312 1.389 . S
C314 P288 1.819 . S
C314 C315 1.391 . S
C314 C319 1.391 . S
C315 H297 0.941 . S
C315 C314 1.391 . S
C315 C316 1.396 . S
C316 H300 0.939 . S
C316 C315 1.396 . S
C316 C317 1.397 . S
C317 C316 1.397 . S
C317 C318 1.385 . S
C318 H301 0.940 . S
C318 C317 1.385 . S
C318 C319 1.388 . S
C319 H298 0.939 . S
C319 C314 1.391 . S
C319 C318 1.388 . S
P320 O331 1.490 . S
P320 C334 1.812 . S
P320 C340 1.803 . S
P320 C346 1.819 . S
H321 C335 0.941 . S
H322 C336 0.939 . S
H323 C338 0.940 . S
H324 C339 0.940 . S
H325 C341 0.939 . S
H326 C342 0.942 . S
H327 C344 0.940 . S
H328 C345 0.939 . S
H329 C347 0.941 . S
H330 C351 0.939 . S
O331 P320 1.490 . S
H332 C348 0.939 . S
H333 C350 0.940 . S
C334 P320 1.812 . S
C334 C335 1.389 . S
C334 C339 1.391 . S
C335 H321 0.941 . S
C335 C334 1.389 . S
C335 C336 1.397 . S
C336 H322 0.939 . S
C336 C335 1.397 . S
C336 C337 1.378 . S
C337 C336 1.378 . S
C337 C338 1.378 . S
C338 H323 0.940 . S
C338 C337 1.378 . S
C338 C339 1.396 . S
C339 H324 0.940 . S
C339 C334 1.391 . S
C339 C338 1.396 . S
C340 P320 1.803 . S
C340 C341 1.378 . S
C340 C345 1.400 . S
C341 H325 0.939 . S
C341 C340 1.378 . S
C341 C342 1.361 . S
C342 H326 0.942 . S
C342 C341 1.361 . S
C342 C343 1.369 . S
C343 C342 1.369 . S
C343 C344 1.404 . S
C344 H327 0.940 . S
C344 C343 1.404 . S
C344 C345 1.389 . S
C345 H328 0.939 . S
C345 C340 1.400 . S
C345 C344 1.389 . S
C346 P320 1.819 . S
C346 C347 1.391 . S
C346 C351 1.391 . S
C347 H329 0.941 . S
C347 C346 1.391 . S
C347 C348 1.396 . S
C348 H332 0.939 . S
C348 C347 1.396 . S
C348 C349 1.397 . S
C349 C348 1.397 . S
C349 C350 1.385 . S
C350 H333 0.940 . S
C350 C349 1.385 . S
C350 C351 1.388 . S
C351 H330 0.939 . S
C351 C346 1.391 . S
C351 C350 1.388 . S
P352 O363 1.490 . S
P352 C366 1.812 . S
P352 C372 1.803 . S
P352 C378 1.819 . S
H353 C367 0.941 . S
H354 C368 0.939 . S
H355 C370 0.940 . S
H356 C371 0.940 . S
H357 C373 0.939 . S
H358 C374 0.942 . S
H359 C376 0.940 . S
H360 C377 0.939 . S
H361 C379 0.941 . S
H362 C383 0.939 . S
O363 P352 1.490 . S
H364 C380 0.939 . S
H365 C382 0.940 . S
C366 P352 1.812 . S
C366 C367 1.389 . S
C366 C371 1.391 . S
C367 H353 0.941 . S
C367 C366 1.389 . S
C367 C368 1.397 . S
C368 H354 0.939 . S
C368 C367 1.397 . S
C368 C369 1.378 . S
C369 C368 1.378 . S
C369 C370 1.378 . S
C370 H355 0.940 . S
C370 C369 1.378 . S
C370 C371 1.396 . S
C371 H356 0.940 . S
C371 C366 1.391 . S
C371 C370 1.396 . S
C372 P352 1.803 . S
C372 C373 1.378 . S
C372 C377 1.400 . S
C373 H357 0.939 . S
C373 C372 1.378 . S
C373 C374 1.361 . S
C374 H358 0.942 . S
C374 C373 1.361 . S
C374 C375 1.369 . S
C375 C374 1.369 . S
C375 C376 1.404 . S
C376 H359 0.940 . S
C376 C375 1.404 . S
C376 C377 1.389 . S
C377 H360 0.939 . S
C377 C372 1.400 . S
C377 C376 1.389 . S
C378 P352 1.819 . S
C378 C379 1.391 . S
C378 C383 1.391 . S
C379 H361 0.941 . S
C379 C378 1.391 . S
C379 C380 1.396 . S
C380 H364 0.939 . S
C380 C379 1.396 . S
C380 C381 1.397 . S
C381 C380 1.397 . S
C381 C382 1.385 . S
C382 H365 0.940 . S
C382 C381 1.385 . S
C382 C383 1.388 . S
C383 H362 0.939 . S
C383 C378 1.391 . S
C383 C382 1.388 . S
P384 O395 1.490 . S
P384 C398 1.812 . S
P384 C404 1.803 . S
P384 C410 1.819 . S
H385 C399 0.941 . S
H386 C400 0.939 . S
H387 C402 0.940 . S
H388 C403 0.940 . S
H389 C405 0.939 . S
H390 C406 0.942 . S
H391 C408 0.940 . S
H392 C409 0.939 . S
H393 C411 0.941 . S
H394 C415 0.939 . S
O395 P384 1.490 . S
H396 C412 0.939 . S
H397 C414 0.940 . S
C398 P384 1.812 . S
C398 C399 1.389 . S
C398 C403 1.391 . S
C399 H385 0.941 . S
C399 C398 1.389 . S
C399 C400 1.397 . S
C400 H386 0.939 . S
C400 C399 1.397 . S
C400 C401 1.378 . S
C401 C400 1.378 . S
C401 C402 1.378 . S
C402 H387 0.940 . S
C402 C401 1.378 . S
C402 C403 1.396 . S
C403 H388 0.940 . S
C403 C398 1.391 . S
C403 C402 1.396 . S
C404 P384 1.803 . S
C404 C405 1.378 . S
C404 C409 1.400 . S
C405 H389 0.939 . S
C405 C404 1.378 . S
C405 C406 1.361 . S
C406 H390 0.942 . S
C406 C405 1.361 . S
C406 C407 1.369 . S
C407 C406 1.369 . S
C407 C408 1.404 . S
C408 H391 0.940 . S
C408 C407 1.404 . S
C408 C409 1.389 . S
C409 H392 0.939 . S
C409 C404 1.400 . S
C409 C408 1.389 . S
C410 P384 1.819 . S
C410 C411 1.391 . S
C410 C415 1.391 . S
C411 H393 0.941 . S
C411 C410 1.391 . S
C411 C412 1.396 . S
C412 H396 0.939 . S
C412 C411 1.396 . S
C412 C413 1.397 . S
C413 C412 1.397 . S
C413 C414 1.385 . S
C414 H397 0.940 . S
C414 C413 1.385 . S
C414 C415 1.388 . S
C415 H394 0.939 . S
C415 C410 1.391 . S
C415 C414 1.388 . S
P416 O427 1.490 . S
P416 C430 1.812 . S
P416 C436 1.803 . S
P416 C442 1.819 . S
H417 C431 0.941 . S
H418 C432 0.939 . S
H419 C434 0.940 . S
H420 C435 0.940 . S
H421 C437 0.939 . S
H422 C438 0.942 . S
H423 C440 0.940 . S
H424 C441 0.939 . S
H425 C443 0.941 . S
H426 C447 0.939 . S
O427 P416 1.490 . S
H428 C444 0.939 . S
H429 C446 0.940 . S
C430 P416 1.812 . S
C430 C431 1.389 . S
C430 C435 1.391 . S
C431 H417 0.941 . S
C431 C430 1.389 . S
C431 C432 1.397 . S
C432 H418 0.939 . S
C432 C431 1.397 . S
C432 C433 1.378 . S
C433 C432 1.378 . S
C433 C434 1.378 . S
C434 H419 0.940 . S
C434 C433 1.378 . S
C434 C435 1.396 . S
C435 H420 0.940 . S
C435 C430 1.391 . S
C435 C434 1.396 . S
C436 P416 1.803 . S
C436 C437 1.378 . S
C436 C441 1.400 . S
C437 H421 0.939 . S
C437 C436 1.378 . S
C437 C438 1.361 . S
C438 H422 0.942 . S
C438 C437 1.361 . S
C438 C439 1.369 1_556 S
C439 C438 1.369 1_554 S
C439 C440 1.404 . S
C440 H423 0.940 . S
C440 C439 1.404 . S
C440 C441 1.389 1_554 S
C441 H424 0.939 . S
C441 C436 1.400 . S
C441 C440 1.389 1_556 S
C442 P416 1.819 . S
C442 C443 1.391 . S
C442 C447 1.391 . S
C443 H425 0.941 . S
C443 C442 1.391 . S
C443 C444 1.396 . S
C444 H428 0.939 . S
C444 C443 1.396 . S
C444 C445 1.397 . S
C445 C444 1.397 . S
C445 C446 1.385 . S
C446 H429 0.940 . S
C446 C445 1.385 . S
C446 C447 1.388 . S
C447 H426 0.939 . S
C447 C442 1.391 . S
C447 C446 1.388 . S
P448 O459 1.490 . S
P448 C462 1.812 . S
P448 C468 1.803 . S
P448 C474 1.819 . S
H449 C463 0.941 . S
H450 C464 0.939 . S
H451 C466 0.940 . S
H452 C467 0.940 . S
H453 C469 0.939 . S
H454 C470 0.942 . S
H455 C472 0.940 . S
H456 C473 0.939 . S
H457 C475 0.941 . S
H458 C479 0.939 . S
O459 P448 1.490 . S
H460 C476 0.939 . S
H461 C478 0.940 . S
C462 P448 1.812 . S
C462 C463 1.389 . S
C462 C467 1.391 . S
C463 H449 0.941 . S
C463 C462 1.389 . S
C463 C464 1.397 . S
C464 H450 0.939 . S
C464 C463 1.397 . S
C464 C465 1.378 . S
C465 C464 1.378 . S
C465 C466 1.378 . S
C466 H451 0.940 . S
C466 C465 1.378 . S
C466 C467 1.396 . S
C467 H452 0.940 . S
C467 C462 1.391 . S
C467 C466 1.396 . S
C468 P448 1.803 . S
C468 C469 1.378 . S
C468 C473 1.400 . S
C469 H453 0.939 . S
C469 C468 1.378 . S
C469 C470 1.361 . S
C470 H454 0.942 . S
C470 C469 1.361 . S
C470 C471 1.369 . S
C471 C470 1.369 . S
C471 C472 1.404 . S
C472 H455 0.940 . S
C472 C471 1.404 . S
C472 C473 1.389 . S
C473 H456 0.939 . S
C473 C468 1.400 . S
C473 C472 1.389 . S
C474 P448 1.819 . S
C474 C475 1.391 . S
C474 C479 1.391 . S
C475 H457 0.941 . S
C475 C474 1.391 . S
C475 C476 1.396 . S
C476 H460 0.939 . S
C476 C475 1.396 . S
C476 C477 1.397 . S
C477 C476 1.397 . S
C477 C478 1.385 . S
C478 H461 0.940 . S
C478 C477 1.385 . S
C478 C479 1.388 . S
C479 H458 0.939 . S
C479 C474 1.391 . S
C479 C478 1.388 . S
P480 O491 1.490 1_556 S
P480 C494 1.812 . S
P480 C500 1.803 . S
P480 C506 1.819 . S
H481 C495 0.941 . S
H482 C496 0.939 . S
H483 C498 0.940 . S
H484 C499 0.940 . S
H485 C501 0.939 . S
H486 C502 0.942 . S
H487 C504 0.940 . S
H488 C505 0.939 . S
H489 C507 0.941 . S
H490 C511 0.939 . S
O491 P480 1.490 1_554 S
H492 C508 0.939 . S
H493 C510 0.940 . S
C494 P480 1.812 . S
C494 C495 1.389 . S
C494 C499 1.391 . S
C495 H481 0.941 . S
C495 C494 1.389 . S
C495 C496 1.397 . S
C496 H482 0.939 . S
C496 C495 1.397 . S
C496 C497 1.378 . S
C497 C496 1.378 . S
C497 C498 1.378 . S
C498 H483 0.940 . S
C498 C497 1.378 . S
C498 C499 1.396 . S
C499 H484 0.940 . S
C499 C494 1.391 . S
C499 C498 1.396 . S
C500 P480 1.803 . S
C500 C501 1.378 1_556 S
C500 C505 1.400 . S
C501 H485 0.939 . S
C501 C500 1.378 1_554 S
C501 C502 1.361 . S
C502 H486 0.942 . S
C502 C501 1.361 . S
C502 C503 1.369 . S
C503 C502 1.369 . S
C503 C504 1.404 1_554 S
C504 H487 0.940 . S
C504 C503 1.404 1_556 S
C504 C505 1.389 . S
C505 H488 0.939 . S
C505 C500 1.400 . S
C505 C504 1.389 . S
C506 P480 1.819 . S
C506 C507 1.391 1_545 S
C506 C511 1.391 . S
C507 H489 0.941 . S
C507 C506 1.391 1_565 S
C507 C508 1.396 . S
C508 H492 0.939 . S
C508 C507 1.396 . S
C508 C509 1.397 . S
C509 C508 1.397 . S
C509 C510 1.385 1_565 S
C510 H493 0.940 . S
C510 C509 1.385 1_545 S
C510 C511 1.388 . S
C511 H490 0.939 . S
C511 C506 1.391 . S
C511 C510 1.388 . S
C512 O513 1.160 1_554 S
C512 O519 1.185 . S
O513 C512 1.160 1_556 S
O514 Zn515 1.899 1_556 S
O514 C522 1.284 . S
Zn515 O514 1.899 1_554 S
Zn515 O516 2.032 . S
Zn515 O519 2.086 . S
Zn515 O524 1.977 . S
O516 Zn515 2.032 . S
O516 C520 1.278 . S
C517 O518 1.203 . S
C517 O524 1.267 . S
O518 C517 1.203 . S
O519 C512 1.185 . S
O519 Zn515 2.086 . S
C520 O516 1.278 . S
C520 O521 1.211 . S
O521 C520 1.211 . S
C522 O514 1.284 . S
C522 O523 1.273 . S
O523 C522 1.273 . S
O524 Zn515 1.977 . S
O524 C517 1.267 . S
C525 O526 1.160 . S
C525 O532 1.185 . S
O526 C525 1.160 . S
O527 Zn528 1.899 . S
O527 C535 1.284 . S
Zn528 O527 1.899 . S
Zn528 O529 2.032 . S
Zn528 O532 2.086 . S
Zn528 O537 1.977 . S
O529 Zn528 2.032 . S
O529 C533 1.278 . S
C530 O531 1.203 . S
C530 O537 1.267 . S
O531 C530 1.203 . S
O532 C525 1.185 . S
O532 Zn528 2.086 . S
C533 O529 1.278 . S
C533 O534 1.211 . S
O534 C533 1.211 . S
C535 O527 1.284 . S
C535 O536 1.273 . S
O536 C535 1.273 . S
O537 Zn528 1.977 . S
O537 C530 1.267 . S
C538 O539 1.160 1_554 S
C538 O545 1.185 . S
O539 C538 1.160 1_556 S
O540 Zn541 1.899 1_556 S
O540 C548 1.284 . S
Zn541 O540 1.899 1_554 S
Zn541 O542 2.032 1_554 S
Zn541 O545 2.086 . S
Zn541 O550 1.977 . S
O542 Zn541 2.032 1_556 S
O542 C546 1.281 . S
C543 O544 1.203 . S
C543 O550 1.267 . S
O544 C543 1.203 . S
O545 C538 1.185 . S
O545 Zn541 2.086 . S
C546 O542 1.281 . S
C546 O547 1.201 1_556 S
O547 C546 1.201 1_554 S
C548 O540 1.284 . S
C548 O549 1.273 . S
O549 C548 1.273 . S
O550 Zn541 1.977 . S
O550 C543 1.267 . S
C551 O552 1.160 . S
C551 O558 1.185 . S
O552 C551 1.160 . S
O553 Zn554 1.899 . S
O553 C561 1.284 . S
Zn554 O553 1.899 . S
Zn554 O555 2.032 1_545 S
Zn554 O558 2.086 . S
Zn554 O563 1.977 . S
O555 Zn554 2.032 1_565 S
O555 C559 1.278 . S
C556 O557 1.203 . S
C556 O563 1.267 . S
O557 C556 1.203 . S
O558 C551 1.185 . S
O558 Zn554 2.086 . S
C559 O555 1.278 . S
C559 O560 1.211 . S
O560 C559 1.211 . S
C561 O553 1.284 . S
C561 O562 1.273 1_545 S
O562 C561 1.273 1_565 S
O563 Zn554 1.977 . S
O563 C556 1.267 . S
C564 O565 1.160 . S
C564 O571 1.185 . S
O565 C564 1.160 . S
O566 Zn567 1.899 . S
O566 C574 1.284 . S
Zn567 O566 1.899 . S
Zn567 O568 2.032 . S
Zn567 O571 2.086 . S
Zn567 O576 1.977 . S
O568 Zn567 2.032 . S
O568 C572 1.278 . S
C569 O570 1.203 . S
C569 O576 1.267 . S
O570 C569 1.203 . S
O571 C564 1.185 . S
O571 Zn567 2.086 . S
C572 O568 1.278 . S
C572 O573 1.211 . S
O573 C572 1.211 . S
C574 O566 1.284 . S
C574 O575 1.273 . S
O575 C574 1.273 . S
O576 Zn567 1.977 . S
O576 C569 1.267 . S
C577 O578 1.160 . S
C577 O584 1.185 . S
O578 C577 1.160 . S
O579 Zn580 1.899 . S
O579 C587 1.284 . S
Zn580 O579 1.899 . S
Zn580 O581 2.032 . S
Zn580 O584 2.086 . S
Zn580 O589 1.977 . S
O581 Zn580 2.032 . S
O581 C585 1.278 . S
C582 O583 1.203 . S
C582 O589 1.267 . S
O583 C582 1.203 . S
O584 C577 1.185 . S
O584 Zn580 2.086 . S
C585 O581 1.278 . S
C585 O586 1.211 . S
O586 C585 1.211 . S
C587 O579 1.284 . S
C587 O588 1.273 . S
O588 C587 1.273 . S
O589 Zn580 1.977 . S
O589 C582 1.267 . S
C590 O591 1.160 . S
C590 O597 1.185 . S
O591 C590 1.160 . S
O592 Zn593 1.899 . S
O592 C600 1.284 . S
Zn593 O592 1.899 . S
Zn593 O594 2.032 . S
Zn593 O597 2.086 . S
Zn593 O602 1.977 . S
O594 Zn593 2.032 . S
O594 C598 1.278 . S
C595 O596 1.203 . S
C595 O602 1.267 . S
O596 C595 1.203 . S
O597 C590 1.185 . S
O597 Zn593 2.086 . S
C598 O594 1.278 . S
C598 O599 1.211 . S
O599 C598 1.211 . S
C600 O592 1.284 . S
C600 O601 1.273 . S
O601 C600 1.273 . S
O602 Zn593 1.977 . S
O602 C595 1.267 . S
C603 O604 1.160 . S
C603 O610 1.185 . S
O604 C603 1.160 . S
O605 Zn606 1.899 . S
O605 C613 1.284 1_565 S
Zn606 O605 1.899 . S
Zn606 O607 2.032 1_565 S
Zn606 O610 2.086 . S
Zn606 O615 1.977 . S
O607 Zn606 2.032 1_545 S
O607 C611 1.278 . S
C608 O609 1.203 1_565 S
C608 O615 1.267 . S
O609 C608 1.203 1_545 S
O610 C603 1.185 . S
O610 Zn606 2.086 . S
C611 O607 1.278 . S
C611 O612 1.211 . S
O612 C611 1.211 . S
C613 O605 1.284 1_545 S
C613 O614 1.273 . S
O614 C613 1.273 . S
O615 Zn606 1.977 . S
O615 C608 1.267 . S
C616 O617 1.160 1_455 S
C616 O623 1.185 . S
O617 C616 1.160 1_655 S
O618 Zn619 1.899 1_655 S
O618 C626 1.284 . S
Zn619 O618 1.899 1_455 S
Zn619 O620 2.044 . S
Zn619 O623 2.086 . S
Zn619 O628 1.977 . S
O620 Zn619 2.044 . S
O620 C624 1.281 . S
C621 O622 1.203 . S
C621 O628 1.267 . S
O622 C621 1.203 . S
O623 C616 1.185 . S
O623 Zn619 2.086 . S
C624 O620 1.281 . S
C624 O625 1.211 . S
O625 C624 1.211 . S
C626 O618 1.284 . S
C626 O627 1.273 . S
O627 C626 1.273 . S
O628 Zn619 1.977 . S
O628 C621 1.267 . S
C629 O630 1.160 . S
C629 O636 1.185 . S
O630 C629 1.160 . S
O631 Zn632 1.899 . S
O631 C639 1.284 . S
Zn632 O631 1.899 . S
Zn632 O633 2.032 . S
Zn632 O636 2.086 . S
Zn632 O641 1.977 . S
O633 Zn632 2.032 . S
O633 C637 1.278 . S
C634 O635 1.203 . S
C634 O641 1.267 . S
O635 C634 1.203 . S
O636 C629 1.185 . S
O636 Zn632 2.086 . S
C637 O633 1.278 . S
C637 O638 1.211 . S
O638 C637 1.211 . S
C639 O631 1.284 . S
C639 O640 1.273 . S
O640 C639 1.273 . S
O641 Zn632 1.977 . S
O641 C634 1.267 . S
C642 O643 1.160 1_455 S
C642 O649 1.185 . S
O643 C642 1.160 1_655 S
O644 Zn645 1.899 1_655 S
O644 C652 1.284 . S
Zn645 O644 1.899 1_455 S
Zn645 O646 2.032 1_455 S
Zn645 O649 2.086 . S
Zn645 O654 1.977 . S
O646 Zn645 2.032 1_655 S
O646 C650 1.278 . S
C647 O648 1.203 . S
C647 O654 1.267 . S
O648 C647 1.203 . S
O649 C642 1.185 . S
O649 Zn645 2.086 . S
C650 O646 1.278 . S
C650 O651 1.211 1_655 S
O651 C650 1.211 1_455 S
C652 O644 1.284 . S
C652 O653 1.273 . S
O653 C652 1.273 . S
O654 Zn645 1.977 . S
O654 C647 1.267 . S
C655 O656 1.160 . S
C655 O662 1.185 . S
O656 C655 1.160 . S
O657 Zn658 1.899 . S
O657 C665 1.284 . S
Zn658 O657 1.899 . S
Zn658 O659 2.032 . S
Zn658 O662 2.086 . S
Zn658 O667 1.977 . S
O659 Zn658 2.032 . S
O659 C663 1.278 . S
C660 O661 1.203 . S
C660 O667 1.267 . S
O661 C660 1.203 . S
O662 C655 1.185 . S
O662 Zn658 2.086 . S
C663 O659 1.278 . S
C663 O664 1.211 . S
O664 C663 1.211 . S
C665 O657 1.284 . S
C665 O666 1.273 . S
O666 C665 1.273 . S
O667 Zn658 1.977 . S
O667 C660 1.267 . S
C668 C669 1.391 . S
C668 C670 1.394 . S
C668 H684 0.931 . S
C669 C668 1.391 . S
C669 C673 1.376 . S
C670 C668 1.394 . S
C670 C671 1.369 . S
C670 C674 1.531 . S
C671 C670 1.369 . S
C671 C672 1.410 . S
C671 C679 1.503 . S
C672 C671 1.410 . S
C672 C673 1.392 . S
C672 C675 1.511 . S
C673 C669 1.376 . S
C673 C672 1.392 . S
C673 H685 0.929 . S
C674 C670 1.531 . S
C674 H686 0.960 . S
C674 H687 0.962 . S
C674 H688 0.960 . S
C675 C672 1.511 . S
C675 H689 0.961 . S
C675 H690 0.961 . S
C675 H691 0.961 . S
C676 C677 1.370 . S
C676 C678 1.363 . S
C676 H692 0.931 . S
C677 C676 1.370 . S
C677 C681 1.408 . S
C678 C676 1.363 . S
C678 C679 1.370 . S
C678 C682 1.524 . S
C679 C671 1.503 . S
C679 C678 1.370 . S
C679 C680 1.403 . S
C680 C679 1.403 . S
C680 C681 1.404 . S
C680 C683 1.539 . S
C681 C677 1.408 . S
C681 C680 1.404 . S
C681 H693 0.930 . S
C682 C678 1.524 . S
C682 H694 0.956 . S
C682 H695 0.961 . S
C682 H696 0.961 . S
C683 C680 1.539 . S
C683 H697 0.958 . S
C683 H698 0.961 . S
C683 H699 0.960 . S
H684 C668 0.931 . S
H685 C673 0.929 . S
H686 C674 0.960 . S
H687 C674 0.962 . S
H688 C674 0.960 . S
H689 C675 0.961 . S
H690 C675 0.961 . S
H691 C675 0.961 . S
H692 C676 0.931 . S
H693 C681 0.930 . S
H694 C682 0.956 . S
H695 C682 0.961 . S
H696 C682 0.961 . S
H697 C683 0.958 . S
H698 C683 0.961 . S
H699 C683 0.960 . S
C700 C701 1.391 . S
C700 C702 1.394 . S
C700 H716 0.931 . S
C701 C700 1.391 . S
C701 C705 1.376 . S
C702 C700 1.394 . S
C702 C703 1.369 . S
C702 C706 1.531 . S
C703 C702 1.369 . S
C703 C704 1.410 . S
C703 C711 1.503 . S
C704 C703 1.410 . S
C704 C705 1.392 . S
C704 C707 1.511 . S
C705 C701 1.376 . S
C705 C704 1.392 . S
C705 H717 0.929 . S
C706 C702 1.531 . S
C706 H718 0.960 . S
C706 H719 0.962 . S
C706 H720 0.960 . S
C707 C704 1.511 . S
C707 H721 0.961 . S
C707 H722 0.961 . S
C707 H723 0.961 . S
C708 C709 1.370 . S
C708 C710 1.363 . S
C708 H724 0.931 . S
C709 C708 1.370 . S
C709 C713 1.408 . S
C710 C708 1.363 . S
C710 C711 1.370 . S
C710 C714 1.524 . S
C711 C703 1.503 . S
C711 C710 1.370 . S
C711 C712 1.403 . S
C712 C711 1.403 . S
C712 C713 1.404 . S
C712 C715 1.539 . S
C713 C709 1.408 . S
C713 C712 1.404 . S
C713 H725 0.930 . S
C714 C710 1.524 . S
C714 H726 0.956 . S
C714 H727 0.961 . S
C714 H728 0.961 . S
C715 C712 1.539 . S
C715 H729 0.958 . S
C715 H730 0.961 . S
C715 H731 0.960 . S
H716 C700 0.931 . S
H717 C705 0.929 . S
H718 C706 0.960 . S
H719 C706 0.962 . S
H720 C706 0.960 . S
H721 C707 0.961 . S
H722 C707 0.961 . S
H723 C707 0.961 . S
H724 C708 0.931 . S
H725 C713 0.930 . S
H726 C714 0.956 . S
H727 C714 0.961 . S
H728 C714 0.961 . S
H729 C715 0.958 . S
H730 C715 0.961 . S
H731 C715 0.960 . S
C732 C733 1.391 . S
C732 C734 1.394 . S
C732 H748 0.931 . S
C733 C732 1.391 . S
C733 C737 1.376 . S
C734 C732 1.394 . S
C734 C735 1.369 . S
C734 C738 1.531 . S
C735 C734 1.369 . S
C735 C736 1.410 . S
C735 C743 1.503 . S
C736 C735 1.410 . S
C736 C737 1.392 . S
C736 C739 1.511 . S
C737 C733 1.376 . S
C737 C736 1.392 . S
C737 H749 0.929 . S
C738 C734 1.531 . S
C738 H750 0.960 . S
C738 H751 0.962 . S
C738 H752 0.960 . S
C739 C736 1.511 . S
C739 H753 0.961 . S
C739 H754 0.961 . S
C739 H755 0.961 . S
C740 C741 1.370 . S
C740 C742 1.363 . S
C740 H756 0.931 . S
C741 C740 1.370 . S
C741 C745 1.408 . S
C742 C740 1.363 . S
C742 C743 1.370 . S
C742 C746 1.524 . S
C743 C735 1.503 . S
C743 C742 1.370 . S
C743 C744 1.403 . S
C744 C743 1.403 . S
C744 C745 1.404 . S
C744 C747 1.539 . S
C745 C741 1.408 . S
C745 C744 1.404 . S
C745 H757 0.930 . S
C746 C742 1.524 . S
C746 H758 0.956 . S
C746 H759 0.961 . S
C746 H760 0.961 . S
C747 C744 1.539 . S
C747 H761 0.958 . S
C747 H762 0.961 . S
C747 H763 0.960 . S
H748 C732 0.931 . S
H749 C737 0.929 . S
H750 C738 0.960 . S
H751 C738 0.962 . S
H752 C738 0.960 . S
H753 C739 0.961 . S
H754 C739 0.961 . S
H755 C739 0.961 . S
H756 C740 0.931 . S
H757 C745 0.930 . S
H758 C746 0.956 . S
H759 C746 0.961 . S
H760 C746 0.961 . S
H761 C747 0.958 . S
H762 C747 0.961 . S
H763 C747 0.960 . S
C764 C765 1.391 1_545 S
C764 C766 1.394 . S
C764 H780 0.931 . S
C765 C764 1.391 1_565 S
C765 C769 1.376 . S
C766 C764 1.394 . S
C766 C767 1.369 1_545 S
C766 C770 1.531 . S
C767 C766 1.369 1_565 S
C767 C768 1.410 . S
C767 C775 1.503 . S
C768 C767 1.410 . S
C768 C769 1.392 . S
C768 C771 1.511 . S
C769 C765 1.376 . S
C769 C768 1.392 . S
C769 H781 0.929 . S
C770 C766 1.531 . S
C770 H782 0.960 . S
C770 H783 0.962 . S
C770 H784 0.960 . S
C771 C768 1.511 . S
C771 H785 0.961 . S
C771 H786 0.961 . S
C771 H787 0.961 . S
C772 C773 1.370 1_565 S
C772 C774 1.363 . S
C772 H788 0.931 . S
C773 C772 1.370 1_545 S
C773 C777 1.408 . S
C774 C772 1.363 . S
C774 C775 1.370 . S
C774 C778 1.524 . S
C775 C767 1.503 . S
C775 C774 1.370 . S
C775 C776 1.403 1_565 S
C776 C775 1.403 1_545 S
C776 C777 1.404 . S
C776 C779 1.539 . S
C777 C773 1.408 . S
C777 C776 1.404 . S
C777 H789 0.930 . S
C778 C774 1.524 . S
C778 H790 0.956 . S
C778 H791 0.961 . S
C778 H792 0.961 . S
C779 C776 1.539 . S
C779 H793 0.958 . S
C779 H794 0.961 . S
C779 H795 0.960 . S
H780 C764 0.931 . S
H781 C769 0.929 . S
H782 C770 0.960 . S
H783 C770 0.962 . S
H784 C770 0.960 . S
H785 C771 0.961 . S
H786 C771 0.961 . S
H787 C771 0.961 . S
H788 C772 0.931 . S
H789 C777 0.930 . S
H790 C778 0.956 . S
H791 C778 0.961 . S
H792 C778 0.961 . S
H793 C779 0.958 . S
H794 C779 0.961 . S
H795 C779 0.960 . S
C796 C797 1.391 . S
C796 C798 1.394 . S
C796 H812 0.931 . S
C797 C796 1.391 . S
C797 C801 1.376 . S
C798 C796 1.394 . S
C798 C799 1.369 . S
C798 C802 1.531 . S
C799 C798 1.369 . S
C799 C800 1.410 . S
C799 C807 1.503 . S
C800 C799 1.410 . S
C800 C801 1.392 . S
C800 C803 1.511 . S
C801 C797 1.376 . S
C801 C800 1.392 . S
C801 H813 0.929 . S
C802 C798 1.531 . S
C802 H814 0.960 . S
C802 H815 0.962 . S
C802 H816 0.960 . S
C803 C800 1.511 . S
C803 H817 0.961 . S
C803 H818 0.961 . S
C803 H819 0.961 . S
C804 C805 1.370 . S
C804 C806 1.363 . S
C804 H820 0.931 . S
C805 C804 1.370 . S
C805 C809 1.408 . S
C806 C804 1.363 . S
C806 C807 1.370 . S
C806 C810 1.524 . S
C807 C799 1.503 . S
C807 C806 1.370 . S
C807 C808 1.403 . S
C808 C807 1.403 . S
C808 C809 1.404 . S
C808 C811 1.539 . S
C809 C805 1.408 . S
C809 C808 1.404 . S
C809 H821 0.930 . S
C810 C806 1.524 . S
C810 H822 0.956 . S
C810 H823 0.961 . S
C810 H824 0.961 . S
C811 C808 1.539 . S
C811 H825 0.958 . S
C811 H826 0.961 . S
C811 H827 0.960 . S
H812 C796 0.931 . S
H813 C801 0.929 . S
H814 C802 0.960 . S
H815 C802 0.962 . S
H816 C802 0.960 . S
H817 C803 0.961 . S
H818 C803 0.961 . S
H819 C803 0.961 . S
H820 C804 0.931 . S
H821 C809 0.930 . S
H822 C810 0.956 . S
H823 C810 0.961 . S
H824 C810 0.961 . S
H825 C811 0.958 . S
H826 C811 0.961 . S
H827 C811 0.960 . S
C828 C829 1.391 . S
C828 C830 1.394 . S
C828 H844 0.931 . S
C829 C828 1.391 . S
C829 C833 1.376 . S
C830 C828 1.394 . S
C830 C831 1.369 . S
C830 C834 1.531 . S
C831 C830 1.369 . S
C831 C832 1.410 . S
C831 C839 1.503 . S
C832 C831 1.410 . S
C832 C833 1.392 . S
C832 C835 1.511 . S
C833 C829 1.376 . S
C833 C832 1.392 . S
C833 H845 0.929 . S
C834 C830 1.531 . S
C834 H846 0.960 . S
C834 H847 0.962 . S
C834 H848 0.960 . S
C835 C832 1.511 . S
C835 H849 0.961 . S
C835 H850 0.961 . S
C835 H851 0.961 . S
C836 C837 1.370 . S
C836 C838 1.363 . S
C836 H852 0.931 . S
C837 C836 1.370 . S
C837 C841 1.408 . S
C838 C836 1.363 . S
C838 C839 1.370 . S
C838 C842 1.524 . S
C839 C831 1.503 . S
C839 C838 1.370 . S
C839 C840 1.403 . S
C840 C839 1.403 . S
C840 C841 1.404 . S
C840 C843 1.539 . S
C841 C837 1.408 . S
C841 C840 1.404 . S
C841 H853 0.930 . S
C842 C838 1.524 . S
C842 H854 0.956 . S
C842 H855 0.961 . S
C842 H856 0.961 . S
C843 C840 1.539 . S
C843 H857 0.958 . S
C843 H858 0.961 . S
C843 H859 0.960 . S
H844 C828 0.931 . S
H845 C833 0.929 . S
H846 C834 0.960 . S
H847 C834 0.962 . S
H848 C834 0.960 . S
H849 C835 0.961 . S
H850 C835 0.961 . S
H851 C835 0.961 . S
H852 C836 0.931 . S
H853 C841 0.930 . S
H854 C842 0.956 . S
H855 C842 0.961 . S
H856 C842 0.961 . S
H857 C843 0.958 . S
H858 C843 0.961 . S
H859 C843 0.960 . S
C860 C861 1.391 . S
C860 C862 1.394 . S
C860 H876 0.931 . S
C861 C860 1.391 . S
C861 C865 1.376 . S
C862 C860 1.394 . S
C862 C863 1.369 . S
C862 C866 1.531 . S
C863 C862 1.369 . S
C863 C864 1.410 . S
C863 C871 1.503 . S
C864 C863 1.410 . S
C864 C865 1.392 . S
C864 C867 1.511 . S
C865 C861 1.376 . S
C865 C864 1.392 . S
C865 H877 0.929 . S
C866 C862 1.531 . S
C866 H878 0.960 . S
C866 H879 0.962 . S
C866 H880 0.960 . S
C867 C864 1.511 . S
C867 H881 0.961 . S
C867 H882 0.961 . S
C867 H883 0.961 . S
C868 C869 1.370 . S
C868 C870 1.363 . S
C868 H884 0.931 . S
C869 C868 1.370 . S
C869 C873 1.408 . S
C870 C868 1.363 . S
C870 C871 1.370 . S
C870 C874 1.524 . S
C871 C863 1.503 . S
C871 C870 1.370 . S
C871 C872 1.403 . S
C872 C871 1.403 . S
C872 C873 1.404 . S
C872 C875 1.539 . S
C873 C869 1.408 . S
C873 C872 1.404 . S
C873 H885 0.930 . S
C874 C870 1.524 . S
C874 H886 0.956 . S
C874 H887 0.961 . S
C874 H888 0.961 . S
C875 C872 1.539 . S
C875 H889 0.958 . S
C875 H890 0.961 . S
C875 H891 0.960 . S
H876 C860 0.931 . S
H877 C865 0.929 . S
H878 C866 0.960 . S
H879 C866 0.962 . S
H880 C866 0.960 . S
H881 C867 0.961 . S
H882 C867 0.961 . S
H883 C867 0.961 . S
H884 C868 0.931 . S
H885 C873 0.930 . S
H886 C874 0.956 . S
H887 C874 0.961 . S
H888 C874 0.961 . S
H889 C875 0.958 . S
H890 C875 0.961 . S
H891 C875 0.960 . S
C892 C893 1.391 . S
C892 C894 1.394 . S
C892 H908 0.931 . S
C893 C892 1.391 . S
C893 C897 1.376 . S
C894 C892 1.394 . S
C894 C895 1.369 . S
C894 C898 1.531 . S
C895 C894 1.369 . S
C895 C896 1.410 . S
C895 C903 1.503 . S
C896 C895 1.410 . S
C896 C897 1.392 . S
C896 C899 1.511 1_565 S
C897 C893 1.376 . S
C897 C896 1.392 . S
C897 H909 0.929 . S
C898 C894 1.531 . S
C898 H910 0.960 . S
C898 H911 0.962 . S
C898 H912 0.960 . S
C899 C896 1.511 1_545 S
C899 H913 0.961 1_545 S
C899 H914 0.961 1_545 S
C899 H915 0.961 . S
C900 C901 1.370 . S
C900 C902 1.363 . S
C900 H916 0.931 . S
C901 C900 1.370 . S
C901 C905 1.408 1_565 S
C902 C900 1.363 . S
C902 C903 1.370 . S
C902 C906 1.524 . S
C903 C895 1.503 . S
C903 C902 1.370 . S
C903 C904 1.403 1_565 S
C904 C903 1.403 1_545 S
C904 C905 1.404 . S
C904 C907 1.539 . S
C905 C901 1.408 1_545 S
C905 C904 1.404 . S
C905 H917 0.930 . S
C906 C902 1.524 . S
C906 H918 0.956 . S
C906 H919 0.961 . S
C906 H920 0.961 . S
C907 C904 1.539 . S
C907 H921 0.958 . S
C907 H922 0.961 . S
C907 H923 0.960 . S
H908 C892 0.931 . S
H909 C897 0.929 . S
H910 C898 0.960 . S
H911 C898 0.962 . S
H912 C898 0.960 . S
H913 C899 0.961 1_565 S
H914 C899 0.961 1_565 S
H915 C899 0.961 . S
H916 C900 0.931 . S
H917 C905 0.930 . S
H918 C906 0.956 . S
H919 C906 0.961 . S
H920 C906 0.961 . S
H921 C907 0.958 . S
H922 C907 0.961 . S
H923 C907 0.960 . S
C924 C925 1.391 . S
C924 C926 1.394 . S
C924 H940 0.931 . S
C925 C924 1.391 . S
C925 C929 1.376 . S
C926 C924 1.394 . S
C926 C927 1.369 . S
C926 C930 1.531 . S
C927 C926 1.369 . S
C927 C928 1.410 . S
C927 C935 1.503 . S
C928 C927 1.410 . S
C928 C929 1.392 . S
C928 C931 1.511 . S
C929 C925 1.376 . S
C929 C928 1.392 . S
C929 H941 0.929 . S
C930 C926 1.531 . S
C930 H942 0.960 . S
C930 H943 0.962 . S
C930 H944 0.960 . S
C931 C928 1.511 . S
C931 H945 0.961 . S
C931 H946 0.961 . S
C931 H947 0.961 . S
C932 C933 1.370 . S
C932 C934 1.363 . S
C932 H948 0.931 . S
C933 C932 1.370 . S
C933 C937 1.408 . S
C934 C932 1.363 . S
C934 C935 1.370 . S
C934 C938 1.524 . S
C935 C927 1.503 . S
C935 C934 1.370 . S
C935 C936 1.403 . S
C936 C935 1.403 . S
C936 C937 1.404 . S
C936 C939 1.539 . S
C937 C933 1.408 . S
C937 C936 1.404 . S
C937 H949 0.930 . S
C938 C934 1.524 . S
C938 H950 0.956 . S
C938 H951 0.961 . S
C938 H952 0.961 . S
C939 C936 1.539 . S
C939 H953 0.958 . S
C939 H954 0.961 . S
C939 H955 0.960 . S
H940 C924 0.931 . S
H941 C929 0.929 . S
H942 C930 0.960 . S
H943 C930 0.962 . S
H944 C930 0.960 . S
H945 C931 0.961 . S
H946 C931 0.961 . S
H947 C931 0.961 . S
H948 C932 0.931 . S
H949 C937 0.930 . S
H950 C938 0.956 . S
H951 C938 0.961 . S
H952 C938 0.961 . S
H953 C939 0.958 . S
H954 C939 0.961 . S
H955 C939 0.960 . S
C956 C957 1.391 . S
C956 C958 1.394 . S
C956 H972 0.931 . S
C957 C956 1.391 . S
C957 C961 1.376 . S
C958 C956 1.394 . S
C958 C959 1.369 . S
C958 C962 1.531 . S
C959 C958 1.369 . S
C959 C960 1.410 . S
C959 C967 1.503 . S
C960 C959 1.410 . S
C960 C961 1.392 . S
C960 C963 1.511 . S
C961 C957 1.376 . S
C961 C960 1.392 . S
C961 H973 0.929 . S
C962 C958 1.531 . S
C962 H974 0.960 . S
C962 H975 0.962 . S
C962 H976 0.960 . S
C963 C960 1.511 . S
C963 H977 0.961 . S
C963 H978 0.961 . S
C963 H979 0.961 . S
C964 C965 1.370 . S
C964 C966 1.363 . S
C964 H980 0.931 . S
C965 C964 1.370 . S
C965 C969 1.408 . S
C966 C964 1.363 . S
C966 C967 1.370 . S
C966 C970 1.524 . S
C967 C959 1.503 . S
C967 C966 1.370 . S
C967 C968 1.403 . S
C968 C967 1.403 . S
C968 C969 1.404 . S
C968 C971 1.539 . S
C969 C965 1.408 . S
C969 C968 1.404 . S
C969 H981 0.930 . S
C970 C966 1.524 . S
C970 H982 0.956 . S
C970 H983 0.961 . S
C970 H984 0.961 . S
C971 C968 1.539 . S
C971 H985 0.958 . S
C971 H986 0.961 . S
C971 H987 0.960 . S
H972 C956 0.931 . S
H973 C961 0.929 . S
H974 C962 0.960 . S
H975 C962 0.962 . S
H976 C962 0.960 . S
H977 C963 0.961 . S
H978 C963 0.961 . S
H979 C963 0.961 . S
H980 C964 0.931 . S
H981 C969 0.930 . S
H982 C970 0.956 . S
H983 C970 0.961 . S
H984 C970 0.961 . S
H985 C971 0.958 . S
H986 C971 0.961 . S
H987 C971 0.960 . S
C988 C989 1.391 . S
C988 C990 1.394 . S
C988 H1004 0.931 . S
C989 C988 1.391 . S
C989 C993 1.376 . S
C990 C988 1.394 . S
C990 C991 1.369 . S
C990 C994 1.531 . S
C991 C990 1.369 . S
C991 C992 1.410 . S
C991 C999 1.503 . S
C992 C991 1.410 . S
C992 C993 1.392 . S
C992 C995 1.511 . S
C993 C989 1.376 . S
C993 C992 1.392 . S
C993 H1005 0.929 . S
C994 C990 1.531 . S
C994 H1006 0.960 . S
C994 H1007 0.962 . S
C994 H1008 0.960 . S
C995 C992 1.511 . S
C995 H1009 0.961 . S
C995 H1010 0.961 . S
C995 H1011 0.961 . S
C996 C997 1.370 . S
C996 C998 1.363 . S
C996 H1012 0.931 . S
C997 C996 1.370 . S
C997 C1001 1.408 . S
C998 C996 1.363 . S
C998 C999 1.370 . S
C998 C1002 1.524 . S
C999 C991 1.503 . S
C999 C998 1.370 . S
C999 C1000 1.403 . S
C1000 C999 1.403 . S
C1000 C1001 1.404 . S
C1000 C1003 1.539 . S
C1001 C997 1.408 . S
C1001 C1000 1.404 . S
C1001 H1013 0.930 . S
C1002 C998 1.524 . S
C1002 H1014 0.956 . S
C1002 H1015 0.961 . S
C1002 H1016 0.961 . S
C1003 C1000 1.539 . S
C1003 H1017 0.958 . S
C1003 H1018 0.961 . S
C1003 H1019 0.960 . S
H1004 C988 0.931 . S
H1005 C993 0.929 . S
H1006 C994 0.960 . S
H1007 C994 0.962 . S
H1008 C994 0.960 . S
H1009 C995 0.961 . S
H1010 C995 0.961 . S
H1011 C995 0.961 . S
H1012 C996 0.931 . S
H1013 C1001 0.930 . S
H1014 C1002 0.956 . S
H1015 C1002 0.961 . S
H1016 C1002 0.961 . S
H1017 C1003 0.958 . S
H1018 C1003 0.961 . S
H1019 C1003 0.960 . S
C1020 C1021 1.391 . S
C1020 C1022 1.394 . S
C1020 H1036 0.931 . S
C1021 C1020 1.391 . S
C1021 C1025 1.376 . S
C1022 C1020 1.394 . S
C1022 C1023 1.369 . S
C1022 C1026 1.531 . S
C1023 C1022 1.369 . S
C1023 C1024 1.410 . S
C1023 C1031 1.503 . S
C1024 C1023 1.410 . S
C1024 C1025 1.392 . S
C1024 C1027 1.511 . S
C1025 C1021 1.376 . S
C1025 C1024 1.392 . S
C1025 H1037 0.929 . S
C1026 C1022 1.531 . S
C1026 H1038 0.960 . S
C1026 H1039 0.962 . S
C1026 H1040 0.960 . S
C1027 C1024 1.511 . S
C1027 H1041 0.961 . S
C1027 H1042 0.961 . S
C1027 H1043 0.961 . S
C1028 C1029 1.370 . S
C1028 C1030 1.363 . S
C1028 H1044 0.931 . S
C1029 C1028 1.370 . S
C1029 C1033 1.408 . S
C1030 C1028 1.363 . S
C1030 C1031 1.370 . S
C1030 C1034 1.524 . S
C1031 C1023 1.503 . S
C1031 C1030 1.370 . S
C1031 C1032 1.403 . S
C1032 C1031 1.403 . S
C1032 C1033 1.404 . S
C1032 C1035 1.539 . S
C1033 C1029 1.408 . S
C1033 C1032 1.404 . S
C1033 H1045 0.930 . S
C1034 C1030 1.524 . S
C1034 H1046 0.956 . S
C1034 H1047 0.961 . S
C1034 H1048 0.961 . S
C1035 C1032 1.539 . S
C1035 H1049 0.958 . S
C1035 H1050 0.961 . S
C1035 H1051 0.960 . S
H1036 C1020 0.931 . S
H1037 C1025 0.929 . S
H1038 C1026 0.960 . S
H1039 C1026 0.962 . S
H1040 C1026 0.960 . S
H1041 C1027 0.961 . S
H1042 C1027 0.961 . S
H1043 C1027 0.961 . S
H1044 C1028 0.931 . S
H1045 C1033 0.930 . S
H1046 C1034 0.956 . S
H1047 C1034 0.961 . S
H1048 C1034 0.961 . S
H1049 C1035 0.958 . S
H1050 C1035 0.961 . S
H1051 C1035 0.960 . S
C1052 C1053 1.391 . S
C1052 C1054 1.394 . S
C1052 H1068 0.931 . S
C1053 C1052 1.391 . S
C1053 C1057 1.376 . S
C1054 C1052 1.394 . S
C1054 C1055 1.369 . S
C1054 C1058 1.531 . S
C1055 C1054 1.369 . S
C1055 C1056 1.410 . S
C1055 C1063 1.503 . S
C1056 C1055 1.410 . S
C1056 C1057 1.392 . S
C1056 C1059 1.511 . S
C1057 C1053 1.376 . S
C1057 C1056 1.392 . S
C1057 H1069 0.929 . S
C1058 C1054 1.531 . S
C1058 H1070 0.960 . S
C1058 H1071 0.962 . S
C1058 H1072 0.960 . S
C1059 C1056 1.511 . S
C1059 H1073 0.961 . S
C1059 H1074 0.961 . S
C1059 H1075 0.961 . S
C1060 C1061 1.370 . S
C1060 C1062 1.363 . S
C1060 H1076 0.931 . S
C1061 C1060 1.370 . S
C1061 C1065 1.408 . S
C1062 C1060 1.363 . S
C1062 C1063 1.370 . S
C1062 C1066 1.524 . S
C1063 C1055 1.503 . S
C1063 C1062 1.370 . S
C1063 C1064 1.403 . S
C1064 C1063 1.403 . S
C1064 C1065 1.404 . S
C1064 C1067 1.539 . S
C1065 C1061 1.408 . S
C1065 C1064 1.404 . S
C1065 H1077 0.930 . S
C1066 C1062 1.524 . S
C1066 H1078 0.956 . S
C1066 H1079 0.961 . S
C1066 H1080 0.961 . S
C1067 C1064 1.539 . S
C1067 H1081 0.958 . S
C1067 H1082 0.961 . S
C1067 H1083 0.960 . S
H1068 C1052 0.931 . S
H1069 C1057 0.929 . S
H1070 C1058 0.960 . S
H1071 C1058 0.962 . S
H1072 C1058 0.960 . S
H1073 C1059 0.961 . S
H1074 C1059 0.961 . S
H1075 C1059 0.961 . S
H1076 C1060 0.931 . S
H1077 C1065 0.930 . S
H1078 C1066 0.956 . S
H1079 C1066 0.961 . S
H1080 C1066 0.961 . S
H1081 C1067 0.958 . S
H1082 C1067 0.961 . S
H1083 C1067 0.960 . S
C1084 C1085 1.391 . S
C1084 C1086 1.394 . S
C1084 H1100 0.931 . S
C1085 C1084 1.391 . S
C1085 C1089 1.376 . S
C1086 C1084 1.394 . S
C1086 C1087 1.369 . S
C1086 C1090 1.531 . S
C1087 C1086 1.369 . S
C1087 C1088 1.410 . S
C1087 C1095 1.503 . S
C1088 C1087 1.410 . S
C1088 C1089 1.392 . S
C1088 C1091 1.511 . S
C1089 C1085 1.376 . S
C1089 C1088 1.392 . S
C1089 H1101 0.929 . S
C1090 C1086 1.531 . S
C1090 H1102 0.960 . S
C1090 H1103 0.962 . S
C1090 H1104 0.960 . S
C1091 C1088 1.511 . S
C1091 H1105 0.961 . S
C1091 H1106 0.961 . S
C1091 H1107 0.961 1_455 S
C1092 C1093 1.370 . S
C1092 C1094 1.363 . S
C1092 H1108 0.931 . S
C1093 C1092 1.370 . S
C1093 C1097 1.408 1_455 S
C1094 C1092 1.363 . S
C1094 C1095 1.370 . S
C1094 C1098 1.524 . S
C1095 C1087 1.503 . S
C1095 C1094 1.370 . S
C1095 C1096 1.403 1_455 S
C1096 C1095 1.403 1_655 S
C1096 C1097 1.404 . S
C1096 C1099 1.539 . S
C1097 C1093 1.408 1_655 S
C1097 C1096 1.404 . S
C1097 H1109 0.930 . S
C1098 C1094 1.524 . S
C1098 H1110 0.956 . S
C1098 H1111 0.961 . S
C1098 H1112 0.961 . S
C1099 C1096 1.539 . S
C1099 H1113 0.958 . S
C1099 H1114 0.961 . S
C1099 H1115 0.960 . S
H1100 C1084 0.931 . S
H1101 C1089 0.929 . S
H1102 C1090 0.960 . S
H1103 C1090 0.962 . S
H1104 C1090 0.960 . S
H1105 C1091 0.961 . S
H1106 C1091 0.961 . S
H1107 C1091 0.961 1_655 S
H1108 C1092 0.931 . S
H1109 C1097 0.930 . S
H1110 C1098 0.956 . S
H1111 C1098 0.961 . S
H1112 C1098 0.961 . S
H1113 C1099 0.958 . S
H1114 C1099 0.961 . S
H1115 C1099 0.960 . S
C1116 C1117 1.391 . S
C1116 C1118 1.394 . S
C1116 H1132 0.931 . S
C1117 C1116 1.391 . S
C1117 C1121 1.376 . S
C1118 C1116 1.394 . S
C1118 C1119 1.369 . S
C1118 C1122 1.531 . S
C1119 C1118 1.369 . S
C1119 C1120 1.410 . S
C1119 C1127 1.503 . S
C1120 C1119 1.410 . S
C1120 C1121 1.392 . S
C1120 C1123 1.511 . S
C1121 C1117 1.376 . S
C1121 C1120 1.392 . S
C1121 H1133 0.929 . S
C1122 C1118 1.531 . S
C1122 H1134 0.960 . S
C1122 H1135 0.962 . S
C1122 H1136 0.960 . S
C1123 C1120 1.511 . S
C1123 H1137 0.961 . S
C1123 H1138 0.961 . S
C1123 H1139 0.961 . S
C1124 C1125 1.370 . S
C1124 C1126 1.363 . S
C1124 H1140 0.931 . S
C1125 C1124 1.370 . S
C1125 C1129 1.408 . S
C1126 C1124 1.363 . S
C1126 C1127 1.370 . S
C1126 C1130 1.524 . S
C1127 C1119 1.503 . S
C1127 C1126 1.370 . S
C1127 C1128 1.403 . S
C1128 C1127 1.403 . S
C1128 C1129 1.404 . S
C1128 C1131 1.539 . S
C1129 C1125 1.408 . S
C1129 C1128 1.404 . S
C1129 H1141 0.930 . S
C1130 C1126 1.524 . S
C1130 H1142 0.956 . S
C1130 H1143 0.961 . S
C1130 H1144 0.961 . S
C1131 C1128 1.539 . S
C1131 H1145 0.958 . S
C1131 H1146 0.961 . S
C1131 H1147 0.960 . S
H1132 C1116 0.931 . S
H1133 C1121 0.929 . S
H1134 C1122 0.960 . S
H1135 C1122 0.962 . S
H1136 C1122 0.960 . S
H1137 C1123 0.961 . S
H1138 C1123 0.961 . S
H1139 C1123 0.961 . S
H1140 C1124 0.931 . S
H1141 C1129 0.930 . S
H1142 C1130 0.956 . S
H1143 C1130 0.961 . S
H1144 C1130 0.961 . S
H1145 C1131 0.958 . S
H1146 C1131 0.961 . S
H1147 C1131 0.960 . S
C1148 C1149 1.391 . S
C1148 C1150 1.394 . S
C1148 H1164 0.931 . S
C1149 C1148 1.391 . S
C1149 C1153 1.376 . S
C1150 C1148 1.394 . S
C1150 C1151 1.369 . S
C1150 C1154 1.531 1_655 S
C1151 C1150 1.369 . S
C1151 C1152 1.410 . S
C1151 C1159 1.503 . S
C1152 C1151 1.410 . S
C1152 C1153 1.392 . S
C1152 C1155 1.511 . S
C1153 C1149 1.376 . S
C1153 C1152 1.392 . S
C1153 H1165 0.929 . S
C1154 C1150 1.531 1_455 S
C1154 H1166 0.960 1_455 S
C1154 H1167 0.962 . S
C1154 H1168 0.960 . S
C1155 C1152 1.511 . S
C1155 H1169 0.961 . S
C1155 H1170 0.961 . S
C1155 H1171 0.961 . S
C1156 C1157 1.370 1_455 S
C1156 C1158 1.363 . S
C1156 H1172 0.931 . S
C1157 C1156 1.370 1_655 S
C1157 C1161 1.408 . S
C1158 C1156 1.363 . S
C1158 C1159 1.374 1_455 S
C1158 C1162 1.521 . S
C1159 C1151 1.503 . S
C1159 C1158 1.374 1_655 S
C1159 C1160 1.403 . S
C1160 C1159 1.403 . S
C1160 C1161 1.404 . S
C1160 C1163 1.539 . S
C1161 C1157 1.408 . S
C1161 C1160 1.404 . S
C1161 H1173 0.930 . S
C1162 C1158 1.521 . S
C1162 H1174 0.956 . S
C1162 H1175 0.961 . S
C1162 H1176 0.961 . S
C1163 C1160 1.539 . S
C1163 H1177 0.958 . S
C1163 H1178 0.961 . S
C1163 H1179 0.960 . S
H1164 C1148 0.931 . S
H1165 C1153 0.929 . S
H1166 C1154 0.960 1_655 S
H1167 C1154 0.962 . S
H1168 C1154 0.960 . S
H1169 C1155 0.961 . S
H1170 C1155 0.961 . S
H1171 C1155 0.961 . S
H1172 C1156 0.931 . S
H1173 C1161 0.930 . S
H1174 C1162 0.956 . S
H1175 C1162 0.961 . S
H1176 C1162 0.961 . S
H1177 C1163 0.958 . S
H1178 C1163 0.961 . S
H1179 C1163 0.960 . S
C1180 C1181 1.391 . S
C1180 C1182 1.394 . S
C1180 H1196 0.931 . S
C1181 C1180 1.391 . S
C1181 C1185 1.376 . S
C1182 C1180 1.394 . S
C1182 C1183 1.369 . S
C1182 C1186 1.531 . S
C1183 C1182 1.369 . S
C1183 C1184 1.410 . S
C1183 C1191 1.503 . S
C1184 C1183 1.410 . S
C1184 C1185 1.392 . S
C1184 C1187 1.511 . S
C1185 C1181 1.376 . S
C1185 C1184 1.392 . S
C1185 H1197 0.929 . S
C1186 C1182 1.531 . S
C1186 H1198 0.960 . S
C1186 H1199 0.962 . S
C1186 H1200 0.960 . S
C1187 C1184 1.511 . S
C1187 H1201 0.961 . S
C1187 H1202 0.961 . S
C1187 H1203 0.961 . S
C1188 C1189 1.370 . S
C1188 C1190 1.363 . S
C1188 H1204 0.931 . S
C1189 C1188 1.370 . S
C1189 C1193 1.408 . S
C1190 C1188 1.363 . S
C1190 C1191 1.370 . S
C1190 C1194 1.524 . S
C1191 C1183 1.503 . S
C1191 C1190 1.370 . S
C1191 C1192 1.403 . S
C1192 C1191 1.403 . S
C1192 C1193 1.404 . S
C1192 C1195 1.539 . S
C1193 C1189 1.408 . S
C1193 C1192 1.404 . S
C1193 H1205 0.930 . S
C1194 C1190 1.524 . S
C1194 H1206 0.956 . S
C1194 H1207 0.961 . S
C1194 H1208 0.961 . S
C1195 C1192 1.539 . S
C1195 H1209 0.958 . S
C1195 H1210 0.961 . S
C1195 H1211 0.960 . S
H1196 C1180 0.931 . S
H1197 C1185 0.929 . S
H1198 C1186 0.960 . S
H1199 C1186 0.962 . S
H1200 C1186 0.960 . S
H1201 C1187 0.961 . S
H1202 C1187 0.961 . S
H1203 C1187 0.961 . S
H1204 C1188 0.931 . S
H1205 C1193 0.930 . S
H1206 C1194 0.956 . S
H1207 C1194 0.961 . S
H1208 C1194 0.961 . S
H1209 C1195 0.958 . S
H1210 C1195 0.961 . S
H1211 C1195 0.960 . S
C1212 C1213 1.391 . S
C1212 C1214 1.394 . S
C1212 H1228 0.931 . S
C1213 C1212 1.391 . S
C1213 C1217 1.376 . S
C1214 C1212 1.394 . S
C1214 C1215 1.369 . S
C1214 C1218 1.531 . S
C1215 C1214 1.369 . S
C1215 C1216 1.410 . S
C1215 C1223 1.503 . S
C1216 C1215 1.410 . S
C1216 C1217 1.392 . S
C1216 C1219 1.511 . S
C1217 C1213 1.376 . S
C1217 C1216 1.392 . S
C1217 H1229 0.929 . S
C1218 C1214 1.531 . S
C1218 H1230 0.960 . S
C1218 H1231 0.962 . S
C1218 H1232 0.960 . S
C1219 C1216 1.511 . S
C1219 H1233 0.961 . S
C1219 H1234 0.961 . S
C1219 H1235 0.961 . S
C1220 C1221 1.370 . S
C1220 C1222 1.363 . S
C1220 H1236 0.931 . S
C1221 C1220 1.370 . S
C1221 C1225 1.408 . S
C1222 C1220 1.363 . S
C1222 C1223 1.370 . S
C1222 C1226 1.524 . S
C1223 C1215 1.503 . S
C1223 C1222 1.370 . S
C1223 C1224 1.403 . S
C1224 C1223 1.403 . S
C1224 C1225 1.404 . S
C1224 C1227 1.539 . S
C1225 C1221 1.408 . S
C1225 C1224 1.404 . S
C1225 H1237 0.930 . S
C1226 C1222 1.524 . S
C1226 H1238 0.956 . S
C1226 H1239 0.961 . S
C1226 H1240 0.961 . S
C1227 C1224 1.539 . S
C1227 H1241 0.958 . S
C1227 H1242 0.961 . S
C1227 H1243 0.960 . S
H1228 C1212 0.931 . S
H1229 C1217 0.929 . S
H1230 C1218 0.960 . S
H1231 C1218 0.962 . S
H1232 C1218 0.960 . S
H1233 C1219 0.961 . S
H1234 C1219 0.961 . S
H1235 C1219 0.961 . S
H1236 C1220 0.931 . S
H1237 C1225 0.930 . S
H1238 C1226 0.956 . S
H1239 C1226 0.961 . S
H1240 C1226 0.961 . S
H1241 C1227 0.958 . S
H1242 C1227 0.961 . S
H1243 C1227 0.960 . S
C1244 C1245 1.391 . S
C1244 C1246 1.394 . S
C1244 H1260 0.931 . S
C1245 C1244 1.391 . S
C1245 C1249 1.376 1_556 S
C1246 C1244 1.394 . S
C1246 C1247 1.369 . S
C1246 C1250 1.531 . S
C1247 C1246 1.369 . S
C1247 C1248 1.410 1_556 S
C1247 C1255 1.503 . S
C1248 C1247 1.410 1_554 S
C1248 C1249 1.392 . S
C1248 C1251 1.511 . S
C1249 C1245 1.376 1_554 S
C1249 C1248 1.392 . S
C1249 H1261 0.929 . S
C1250 C1246 1.531 . S
C1250 H1262 0.960 . S
C1250 H1263 0.962 . S
C1250 H1264 0.960 . S
C1251 C1248 1.511 . S
C1251 H1265 0.961 . S
C1251 H1266 0.961 . S
C1251 H1267 0.961 . S
C1252 C1253 1.370 1_556 S
C1252 C1254 1.363 . S
C1252 H1268 0.931 . S
C1253 C1252 1.370 1_554 S
C1253 C1257 1.408 . S
C1254 C1252 1.363 . S
C1254 C1255 1.370 . S
C1254 C1258 1.524 . S
C1255 C1247 1.503 . S
C1255 C1254 1.370 . S
C1255 C1256 1.403 1_556 S
C1256 C1255 1.403 1_554 S
C1256 C1257 1.404 . S
C1256 C1259 1.539 . S
C1257 C1253 1.408 . S
C1257 C1256 1.404 . S
C1257 H1269 0.930 . S
C1258 C1254 1.524 . S
C1258 H1270 0.956 . S
C1258 H1271 0.961 . S
C1258 H1272 0.961 . S
C1259 C1256 1.539 . S
C1259 H1273 0.958 1_554 S
C1259 H1274 0.961 . S
C1259 H1275 0.960 . S
H1260 C1244 0.931 . S
H1261 C1249 0.929 . S
H1262 C1250 0.960 . S
H1263 C1250 0.962 . S
H1264 C1250 0.960 . S
H1265 C1251 0.961 . S
H1266 C1251 0.961 . S
H1267 C1251 0.961 . S
H1268 C1252 0.931 . S
H1269 C1257 0.930 . S
H1270 C1258 0.956 . S
H1271 C1258 0.961 . S
H1272 C1258 0.961 . S
H1273 C1259 0.958 1_556 S
H1274 C1259 0.961 . S
H1275 C1259 0.960 . S
C1276 C1277 1.391 . S
C1276 C1278 1.394 . S
C1276 H1292 0.931 . S
C1277 C1276 1.391 . S
C1277 C1281 1.376 . S
C1278 C1276 1.394 . S
C1278 C1279 1.369 . S
C1278 C1282 1.531 . S
C1279 C1278 1.369 . S
C1279 C1280 1.410 . S
C1279 C1287 1.503 . S
C1280 C1279 1.410 . S
C1280 C1281 1.392 . S
C1280 C1283 1.511 . S
C1281 C1277 1.376 . S
C1281 C1280 1.392 . S
C1281 H1293 0.929 . S
C1282 C1278 1.531 . S
C1282 H1294 0.960 . S
C1282 H1295 0.962 . S
C1282 H1296 0.960 . S
C1283 C1280 1.511 . S
C1283 H1297 0.961 . S
C1283 H1298 0.961 . S
C1283 H1299 0.961 . S
C1284 C1285 1.370 . S
C1284 C1286 1.363 . S
C1284 H1300 0.931 . S
C1285 C1284 1.370 . S
C1285 C1289 1.408 . S
C1286 C1284 1.363 . S
C1286 C1287 1.370 . S
C1286 C1290 1.524 . S
C1287 C1279 1.503 . S
C1287 C1286 1.370 . S
C1287 C1288 1.403 . S
C1288 C1287 1.403 . S
C1288 C1289 1.404 . S
C1288 C1291 1.539 . S
C1289 C1285 1.408 . S
C1289 C1288 1.404 . S
C1289 H1301 0.930 . S
C1290 C1286 1.524 . S
C1290 H1302 0.956 . S
C1290 H1303 0.961 . S
C1290 H1304 0.961 . S
C1291 C1288 1.539 . S
C1291 H1305 0.958 . S
C1291 H1306 0.961 . S
C1291 H1307 0.960 . S
H1292 C1276 0.931 . S
H1293 C1281 0.929 . S
H1294 C1282 0.960 . S
H1295 C1282 0.962 . S
H1296 C1282 0.960 . S
H1297 C1283 0.961 . S
H1298 C1283 0.961 . S
H1299 C1283 0.961 . S
H1300 C1284 0.931 . S
H1301 C1289 0.930 . S
H1302 C1290 0.956 . S
H1303 C1290 0.961 . S
H1304 C1290 0.961 . S
H1305 C1291 0.958 . S
H1306 C1291 0.961 . S
H1307 C1291 0.960 . S
C1308 C1309 1.391 . S
C1308 C1310 1.394 . S
C1308 H1324 0.931 . S
C1309 C1308 1.391 . S
C1309 C1313 1.376 . S
C1310 C1308 1.394 . S
C1310 C1311 1.369 . S
C1310 C1314 1.531 . S
C1311 C1310 1.369 . S
C1311 C1312 1.410 . S
C1311 C1319 1.503 . S
C1312 C1311 1.410 . S
C1312 C1313 1.392 . S
C1312 C1315 1.511 . S
C1313 C1309 1.376 . S
C1313 C1312 1.392 . S
C1313 H1325 0.929 . S
C1314 C1310 1.531 . S
C1314 H1326 0.960 . S
C1314 H1327 0.962 . S
C1314 H1328 0.960 . S
C1315 C1312 1.511 . S
C1315 H1329 0.961 . S
C1315 H1330 0.961 . S
C1315 H1331 0.961 . S
C1316 C1317 1.370 . S
C1316 C1318 1.363 . S
C1316 H1332 0.931 . S
C1317 C1316 1.370 . S
C1317 C1321 1.408 . S
C1318 C1316 1.363 . S
C1318 C1319 1.370 . S
C1318 C1322 1.524 . S
C1319 C1311 1.503 . S
C1319 C1318 1.370 . S
C1319 C1320 1.403 . S
C1320 C1319 1.403 . S
C1320 C1321 1.404 . S
C1320 C1323 1.539 . S
C1321 C1317 1.408 . S
C1321 C1320 1.404 . S
C1321 H1333 0.930 . S
C1322 C1318 1.524 . S
C1322 H1334 0.956 . S
C1322 H1335 0.961 . S
C1322 H1336 0.961 . S
C1323 C1320 1.539 . S
C1323 H1337 0.958 . S
C1323 H1338 0.961 . S
C1323 H1339 0.960 . S
H1324 C1308 0.931 . S
H1325 C1313 0.929 . S
H1326 C1314 0.960 . S
H1327 C1314 0.962 . S
H1328 C1314 0.960 . S
H1329 C1315 0.961 . S
H1330 C1315 0.961 . S
H1331 C1315 0.961 . S
H1332 C1316 0.931 . S
H1333 C1321 0.930 . S
H1334 C1322 0.956 . S
H1335 C1322 0.961 . S
H1336 C1322 0.961 . S
H1337 C1323 0.958 . S
H1338 C1323 0.961 . S
H1339 C1323 0.960 . S
C1340 C1341 1.391 . S
C1340 C1342 1.394 . S
C1340 H1356 0.931 . S
C1341 C1340 1.391 . S
C1341 C1345 1.376 . S
C1342 C1340 1.394 . S
C1342 C1343 1.369 . S
C1342 C1346 1.531 . S
C1343 C1342 1.369 . S
C1343 C1344 1.410 . S
C1343 C1351 1.503 . S
C1344 C1343 1.410 . S
C1344 C1345 1.392 . S
C1344 C1347 1.511 . S
C1345 C1341 1.376 . S
C1345 C1344 1.392 . S
C1345 H1357 0.929 . S
C1346 C1342 1.531 . S
C1346 H1358 0.960 . S
C1346 H1359 0.962 . S
C1346 H1360 0.960 . S
C1347 C1344 1.511 . S
C1347 H1361 0.961 . S
C1347 H1362 0.961 . S
C1347 H1363 0.961 . S
C1348 C1349 1.370 . S
C1348 C1350 1.363 . S
C1348 H1364 0.931 . S
C1349 C1348 1.370 . S
C1349 C1353 1.408 . S
C1350 C1348 1.363 . S
C1350 C1351 1.370 . S
C1350 C1354 1.524 . S
C1351 C1343 1.503 . S
C1351 C1350 1.370 . S
C1351 C1352 1.403 . S
C1352 C1351 1.403 . S
C1352 C1353 1.404 . S
C1352 C1355 1.539 . S
C1353 C1349 1.408 . S
C1353 C1352 1.404 . S
C1353 H1365 0.930 . S
C1354 C1350 1.524 . S
C1354 H1366 0.956 . S
C1354 H1367 0.961 . S
C1354 H1368 0.961 . S
C1355 C1352 1.539 . S
C1355 H1369 0.958 . S
C1355 H1370 0.961 . S
C1355 H1371 0.960 . S
H1356 C1340 0.931 . S
H1357 C1345 0.929 . S
H1358 C1346 0.960 . S
H1359 C1346 0.962 . S
H1360 C1346 0.960 . S
H1361 C1347 0.961 . S
H1362 C1347 0.961 . S
H1363 C1347 0.961 . S
H1364 C1348 0.931 . S
H1365 C1353 0.930 . S
H1366 C1354 0.956 . S
H1367 C1354 0.961 . S
H1368 C1354 0.961 . S
H1369 C1355 0.958 . S
H1370 C1355 0.961 . S
H1371 C1355 0.960 . S
C1372 C1373 1.391 . S
C1372 C1374 1.394 . S
C1372 H1388 0.931 . S
C1373 C1372 1.391 . S
C1373 C1377 1.376 . S
C1374 C1372 1.394 . S
C1374 C1375 1.369 . S
C1374 C1378 1.531 . S
C1375 C1374 1.369 . S
C1375 C1376 1.410 . S
C1375 C1383 1.503 . S
C1376 C1375 1.410 . S
C1376 C1377 1.392 . S
C1376 C1379 1.511 . S
C1377 C1373 1.376 . S
C1377 C1376 1.392 . S
C1377 H1389 0.929 . S
C1378 C1374 1.531 . S
C1378 H1390 0.960 . S
C1378 H1391 0.962 . S
C1378 H1392 0.960 . S
C1379 C1376 1.511 . S
C1379 H1393 0.961 . S
C1379 H1394 0.961 . S
C1379 H1395 0.961 . S
C1380 C1381 1.370 . S
C1380 C1382 1.363 . S
C1380 H1396 0.931 . S
C1381 C1380 1.370 . S
C1381 C1385 1.408 . S
C1382 C1380 1.363 . S
C1382 C1383 1.370 . S
C1382 C1386 1.524 . S
C1383 C1375 1.503 . S
C1383 C1382 1.370 . S
C1383 C1384 1.403 . S
C1384 C1383 1.403 . S
C1384 C1385 1.404 . S
C1384 C1387 1.539 . S
C1385 C1381 1.408 . S
C1385 C1384 1.404 . S
C1385 H1397 0.930 . S
C1386 C1382 1.524 . S
C1386 H1398 0.956 . S
C1386 H1399 0.961 . S
C1386 H1400 0.961 . S
C1387 C1384 1.539 . S
C1387 H1401 0.958 . S
C1387 H1402 0.961 . S
C1387 H1403 0.960 . S
H1388 C1372 0.931 . S
H1389 C1377 0.929 . S
H1390 C1378 0.960 . S
H1391 C1378 0.962 . S
H1392 C1378 0.960 . S
H1393 C1379 0.961 . S
H1394 C1379 0.961 . S
H1395 C1379 0.961 . S
H1396 C1380 0.931 . S
H1397 C1385 0.930 . S
H1398 C1386 0.956 . S
H1399 C1386 0.961 . S
H1400 C1386 0.961 . S
H1401 C1387 0.958 . S
H1402 C1387 0.961 . S
H1403 C1387 0.960 . S
C1404 C1405 1.391 . S
C1404 C1406 1.394 . S
C1404 H1420 0.931 . S
C1405 C1404 1.391 . S
C1405 C1409 1.376 . S
C1406 C1404 1.394 . S
C1406 C1407 1.369 . S
C1406 C1410 1.531 . S
C1407 C1406 1.369 . S
C1407 C1408 1.410 . S
C1407 C1415 1.503 . S
C1408 C1407 1.410 . S
C1408 C1409 1.392 . S
C1408 C1411 1.511 . S
C1409 C1405 1.376 . S
C1409 C1408 1.392 . S
C1409 H1421 0.929 . S
C1410 C1406 1.531 . S
C1410 H1422 0.960 . S
C1410 H1423 0.962 . S
C1410 H1424 0.960 . S
C1411 C1408 1.511 . S
C1411 H1425 0.961 . S
C1411 H1426 0.961 . S
C1411 H1427 0.961 . S
C1412 C1413 1.370 . S
C1412 C1414 1.363 . S
C1412 H1428 0.931 . S
C1413 C1412 1.370 . S
C1413 C1417 1.408 . S
C1414 C1412 1.363 . S
C1414 C1415 1.370 . S
C1414 C1418 1.524 . S
C1415 C1407 1.503 . S
C1415 C1414 1.370 . S
C1415 C1416 1.403 . S
C1416 C1415 1.403 . S
C1416 C1417 1.404 . S
C1416 C1419 1.539 . S
C1417 C1413 1.408 . S
C1417 C1416 1.404 . S
C1417 H1429 0.930 . S
C1418 C1414 1.524 . S
C1418 H1430 0.956 . S
C1418 H1431 0.961 . S
C1418 H1432 0.961 . S
C1419 C1416 1.539 . S
C1419 H1433 0.958 . S
C1419 H1434 0.961 . S
C1419 H1435 0.960 . S
H1420 C1404 0.931 . S
H1421 C1409 0.929 . S
H1422 C1410 0.960 . S
H1423 C1410 0.962 . S
H1424 C1410 0.960 . S
H1425 C1411 0.961 . S
H1426 C1411 0.961 . S
H1427 C1411 0.961 . S
H1428 C1412 0.931 . S
H1429 C1417 0.930 . S
H1430 C1418 0.956 . S
H1431 C1418 0.961 . S
H1432 C1418 0.961 . S
H1433 C1419 0.958 . S
H1434 C1419 0.961 . S
H1435 C1419 0.960 . S
C1436 C1437 1.391 . S
C1436 C1438 1.394 . S
C1436 H1452 0.931 . S
C1437 C1436 1.391 . S
C1437 C1441 1.376 . S
C1438 C1436 1.394 . S
C1438 C1439 1.369 . S
C1438 C1442 1.531 . S
C1439 C1438 1.369 . S
C1439 C1440 1.410 . S
C1439 C1447 1.503 . S
C1440 C1439 1.410 . S
C1440 C1441 1.392 . S
C1440 C1443 1.511 . S
C1441 C1437 1.376 . S
C1441 C1440 1.392 . S
C1441 H1453 0.929 . S
C1442 C1438 1.531 . S
C1442 H1454 0.960 . S
C1442 H1455 0.962 . S
C1442 H1456 0.960 . S
C1443 C1440 1.511 . S
C1443 H1457 0.961 . S
C1443 H1458 0.961 . S
C1443 H1459 0.961 . S
C1444 C1445 1.370 . S
C1444 C1446 1.363 . S
C1444 H1460 0.931 . S
C1445 C1444 1.370 . S
C1445 C1449 1.408 . S
C1446 C1444 1.363 . S
C1446 C1447 1.370 . S
C1446 C1450 1.524 . S
C1447 C1439 1.503 . S
C1447 C1446 1.370 . S
C1447 C1448 1.403 . S
C1448 C1447 1.403 . S
C1448 C1449 1.404 . S
C1448 C1451 1.539 . S
C1449 C1445 1.408 . S
C1449 C1448 1.404 . S
C1449 H1461 0.930 . S
C1450 C1446 1.524 . S
C1450 H1462 0.956 . S
C1450 H1463 0.961 . S
C1450 H1464 0.961 . S
C1451 C1448 1.539 . S
C1451 H1465 0.958 . S
C1451 H1466 0.961 . S
C1451 H1467 0.960 . S
H1452 C1436 0.931 . S
H1453 C1441 0.929 . S
H1454 C1442 0.960 . S
H1455 C1442 0.962 . S
H1456 C1442 0.960 . S
H1457 C1443 0.961 . S
H1458 C1443 0.961 . S
H1459 C1443 0.961 . S
H1460 C1444 0.931 . S
H1461 C1449 0.930 . S
H1462 C1450 0.956 . S
H1463 C1450 0.961 . S
H1464 C1450 0.961 . S
H1465 C1451 0.958 . S
H1466 C1451 0.961 . S
H1467 C1451 0.960 . S
C1468 C1469 1.391 . S
C1468 C1470 1.394 . S
C1468 H1484 0.931 . S
C1469 C1468 1.391 . S
C1469 C1473 1.376 . S
C1470 C1468 1.394 . S
C1470 C1471 1.369 . S
C1470 C1474 1.531 . S
C1471 C1470 1.369 . S
C1471 C1472 1.410 . S
C1471 C1479 1.503 . S
C1472 C1471 1.410 . S
C1472 C1473 1.392 . S
C1472 C1475 1.511 . S
C1473 C1469 1.376 . S
C1473 C1472 1.392 . S
C1473 H1485 0.929 . S
C1474 C1470 1.531 . S
C1474 H1486 0.960 . S
C1474 H1487 0.962 1_545 S
C1474 H1488 0.960 . S
C1475 C1472 1.511 . S
C1475 H1489 0.961 . S
C1475 H1490 0.961 . S
C1475 H1491 0.961 . S
C1476 C1477 1.370 1_565 S
C1476 C1478 1.358 1_565 S
C1476 H1492 0.931 . S
C1477 C1476 1.370 1_545 S
C1477 C1481 1.408 . S
C1478 C1476 1.358 1_545 S
C1478 C1479 1.392 . S
C1478 C1482 1.508 1_545 S
C1479 C1471 1.503 . S
C1479 C1478 1.392 . S
C1479 C1480 1.403 . S
C1480 C1479 1.403 . S
C1480 C1481 1.404 . S
C1480 C1483 1.539 . S
C1481 C1477 1.408 . S
C1481 C1480 1.404 . S
C1481 H1493 0.930 . S
C1482 C1478 1.508 1_565 S
C1482 H1494 0.956 . S
C1482 H1495 0.961 . S
C1482 H1496 0.961 . S
C1483 C1480 1.539 . S
C1483 H1497 0.958 . S
C1483 H1498 0.961 . S
C1483 H1499 0.960 . S
H1484 C1468 0.931 . S
H1485 C1473 0.929 . S
H1486 C1474 0.960 . S
H1487 C1474 0.962 1_565 S
H1488 C1474 0.960 . S
H1489 C1475 0.961 . S
H1490 C1475 0.961 . S
H1491 C1475 0.961 . S
H1492 C1476 0.931 . S
H1493 C1481 0.930 . S
H1494 C1482 0.956 . S
H1495 C1482 0.961 . S
H1496 C1482 0.961 . S
H1497 C1483 0.958 . S
H1498 C1483 0.961 . S
H1499 C1483 0.960 . S
C1500 C1501 1.391 . S
C1500 C1502 1.394 . S
C1500 H1516 0.931 . S
C1501 C1500 1.391 . S
C1501 C1505 1.376 . S
C1502 C1500 1.394 . S
C1502 C1503 1.369 . S
C1502 C1506 1.531 . S
C1503 C1502 1.369 . S
C1503 C1504 1.410 . S
C1503 C1511 1.503 . S
C1504 C1503 1.410 . S
C1504 C1505 1.392 . S
C1504 C1507 1.511 . S
C1505 C1501 1.376 . S
C1505 C1504 1.392 . S
C1505 H1517 0.929 . S
C1506 C1502 1.531 . S
C1506 H1518 0.960 . S
C1506 H1519 0.962 . S
C1506 H1520 0.960 . S
C1507 C1504 1.511 . S
C1507 H1521 0.961 . S
C1507 H1522 0.961 . S
C1507 H1523 0.961 . S
C1508 C1509 1.370 . S
C1508 C1510 1.363 . S
C1508 H1524 0.931 . S
C1509 C1508 1.370 . S
C1509 C1513 1.408 . S
C1510 C1508 1.363 . S
C1510 C1511 1.370 . S
C1510 C1514 1.524 . S
C1511 C1503 1.503 . S
C1511 C1510 1.370 . S
C1511 C1512 1.403 . S
C1512 C1511 1.403 . S
C1512 C1513 1.404 . S
C1512 C1515 1.539 . S
C1513 C1509 1.408 . S
C1513 C1512 1.404 . S
C1513 H1525 0.930 . S
C1514 C1510 1.524 . S
C1514 H1526 0.956 . S
C1514 H1527 0.961 . S
C1514 H1528 0.961 . S
C1515 C1512 1.539 . S
C1515 H1529 0.958 . S
C1515 H1530 0.961 . S
C1515 H1531 0.960 . S
H1516 C1500 0.931 . S
H1517 C1505 0.929 . S
H1518 C1506 0.960 . S
H1519 C1506 0.962 . S
H1520 C1506 0.960 . S
H1521 C1507 0.961 . S
H1522 C1507 0.961 . S
H1523 C1507 0.961 . S
H1524 C1508 0.931 . S
H1525 C1513 0.930 . S
H1526 C1514 0.956 . S
H1527 C1514 0.961 . S
H1528 C1514 0.961 . S
H1529 C1515 0.958 . S
H1530 C1515 0.961 . S
H1531 C1515 0.960 . S
C1532 C1533 1.391 . S
C1532 C1534 1.394 . S
C1532 H1548 0.931 . S
C1533 C1532 1.391 . S
C1533 C1537 1.376 . S
C1534 C1532 1.394 . S
C1534 C1535 1.369 . S
C1534 C1538 1.531 . S
C1535 C1534 1.369 . S
C1535 C1536 1.410 . S
C1535 C1543 1.503 . S
C1536 C1535 1.410 . S
C1536 C1537 1.392 . S
C1536 C1539 1.511 . S
C1537 C1533 1.376 . S
C1537 C1536 1.392 . S
C1537 H1549 0.929 . S
C1538 C1534 1.531 . S
C1538 H1550 0.960 . S
C1538 H1551 0.962 . S
C1538 H1552 0.960 . S
C1539 C1536 1.511 . S
C1539 H1553 0.961 . S
C1539 H1554 0.961 . S
C1539 H1555 0.961 . S
C1540 C1541 1.370 . S
C1540 C1542 1.363 . S
C1540 H1556 0.931 . S
C1541 C1540 1.370 . S
C1541 C1545 1.408 . S
C1542 C1540 1.363 . S
C1542 C1543 1.370 . S
C1542 C1546 1.524 . S
C1543 C1535 1.503 . S
C1543 C1542 1.370 . S
C1543 C1544 1.403 . S
C1544 C1543 1.403 . S
C1544 C1545 1.404 . S
C1544 C1547 1.539 . S
C1545 C1541 1.408 . S
C1545 C1544 1.404 . S
C1545 H1557 0.930 . S
C1546 C1542 1.524 . S
C1546 H1558 0.956 . S
C1546 H1559 0.961 . S
C1546 H1560 0.961 . S
C1547 C1544 1.539 . S
C1547 H1561 0.958 . S
C1547 H1562 0.961 . S
C1547 H1563 0.960 . S
H1548 C1532 0.931 . S
H1549 C1537 0.929 . S
H1550 C1538 0.960 . S
H1551 C1538 0.962 . S
H1552 C1538 0.960 . S
H1553 C1539 0.961 . S
H1554 C1539 0.961 . S
H1555 C1539 0.961 . S
H1556 C1540 0.931 . S
H1557 C1545 0.930 . S
H1558 C1546 0.956 . S
H1559 C1546 0.961 . S
H1560 C1546 0.961 . S
H1561 C1547 0.958 . S
H1562 C1547 0.961 . S
H1563 C1547 0.960 . S
C1564 C1565 1.391 . S
C1564 C1566 1.394 . S
C1564 H1580 0.931 . S
C1565 C1564 1.391 . S
C1565 C1569 1.376 . S
C1566 C1564 1.394 . S
C1566 C1567 1.369 . S
C1566 C1570 1.531 . S
C1567 C1566 1.369 . S
C1567 C1568 1.410 . S
C1567 C1575 1.503 . S
C1568 C1567 1.410 . S
C1568 C1569 1.392 . S
C1568 C1571 1.511 . S
C1569 C1565 1.376 . S
C1569 C1568 1.392 . S
C1569 H1581 0.929 . S
C1570 C1566 1.531 . S
C1570 H1582 0.960 . S
C1570 H1583 0.962 . S
C1570 H1584 0.960 . S
C1571 C1568 1.511 . S
C1571 H1585 0.961 . S
C1571 H1586 0.961 . S
C1571 H1587 0.961 . S
C1572 C1573 1.370 . S
C1572 C1574 1.363 . S
C1572 H1588 0.931 . S
C1573 C1572 1.370 . S
C1573 C1577 1.408 . S
C1574 C1572 1.363 . S
C1574 C1575 1.370 . S
C1574 C1578 1.524 . S
C1575 C1567 1.503 . S
C1575 C1574 1.370 . S
C1575 C1576 1.403 . S
C1576 C1575 1.403 . S
C1576 C1577 1.404 . S
C1576 C1579 1.539 . S
C1577 C1573 1.408 . S
C1577 C1576 1.404 . S
C1577 H1589 0.930 . S
C1578 C1574 1.524 . S
C1578 H1590 0.956 . S
C1578 H1591 0.961 . S
C1578 H1592 0.961 . S
C1579 C1576 1.539 . S
C1579 H1593 0.958 . S
C1579 H1594 0.961 . S
C1579 H1595 0.960 . S
H1580 C1564 0.931 . S
H1581 C1569 0.929 . S
H1582 C1570 0.960 . S
H1583 C1570 0.962 . S
H1584 C1570 0.960 . S
H1585 C1571 0.961 . S
H1586 C1571 0.961 . S
H1587 C1571 0.961 . S
H1588 C1572 0.931 . S
H1589 C1577 0.930 . S
H1590 C1578 0.956 . S
H1591 C1578 0.961 . S
H1592 C1578 0.961 . S
H1593 C1579 0.958 . S
H1594 C1579 0.961 . S
H1595 C1579 0.960 . S
C1596 C1597 1.391 . S
C1596 C1598 1.394 . S
C1596 H1612 0.885 1_655 S
C1597 C1596 1.391 . S
C1597 C1601 1.376 . S
C1598 C1596 1.394 . S
C1598 C1599 1.369 . S
C1598 C1602 1.531 . S
C1599 C1598 1.369 . S
C1599 C1600 1.410 . S
C1599 C1607 1.503 . S
C1600 C1599 1.410 . S
C1600 C1601 1.392 . S
C1600 C1603 1.511 . S
C1601 C1597 1.376 . S
C1601 C1600 1.392 . S
C1601 H1613 0.929 . S
C1602 C1598 1.531 . S
C1602 H1614 0.960 . S
C1602 H1615 0.962 . S
C1602 H1616 0.960 . S
C1603 C1600 1.511 . S
C1603 H1617 0.961 . S
C1603 H1618 0.961 . S
C1603 H1619 0.961 . S
C1604 C1605 1.370 . S
C1604 C1606 1.363 . S
C1604 H1620 0.931 1_545 S
C1605 C1604 1.370 . S
C1605 C1609 1.408 . S
C1606 C1604 1.363 . S
C1606 C1607 1.370 . S
C1606 C1610 1.524 1_545 S
C1607 C1599 1.503 . S
C1607 C1606 1.370 . S
C1607 C1608 1.403 . S
C1608 C1607 1.403 . S
C1608 C1609 1.404 . S
C1608 C1611 1.539 . S
C1609 C1605 1.408 . S
C1609 C1608 1.404 . S
C1609 H1621 0.930 . S
C1610 C1606 1.524 1_565 S
C1610 H1622 0.956 1_565 S
C1610 H1623 0.961 . S
C1610 H1624 0.961 . S
C1611 C1608 1.539 . S
C1611 H1625 0.958 . S
C1611 H1626 0.961 . S
C1611 H1627 0.960 . S
H1612 C1596 0.885 1_455 S
H1613 C1601 0.929 . S
H1614 C1602 0.960 . S
H1615 C1602 0.962 . S
H1616 C1602 0.960 . S
H1617 C1603 0.961 . S
H1618 C1603 0.961 . S
H1619 C1603 0.961 . S
H1620 C1604 0.931 1_565 S
H1621 C1609 0.930 . S
H1622 C1610 0.956 1_545 S
H1623 C1610 0.961 . S
H1624 C1610 0.961 . S
H1625 C1611 0.958 . S
H1626 C1611 0.961 . S
H1627 C1611 0.960 . S
C1628 C1629 1.391 . S
C1628 C1630 1.394 . S
C1628 H1644 0.931 . S
C1629 C1628 1.391 . S
C1629 C1633 1.376 . S
C1630 C1628 1.394 . S
C1630 C1631 1.369 . S
C1630 C1634 1.531 . S
C1631 C1630 1.369 . S
C1631 C1632 1.410 . S
C1631 C1639 1.503 . S
C1632 C1631 1.410 . S
C1632 C1633 1.392 . S
C1632 C1635 1.511 . S
C1633 C1629 1.376 . S
C1633 C1632 1.392 . S
C1633 H1645 0.929 . S
C1634 C1630 1.531 . S
C1634 H1646 0.960 . S
C1634 H1647 0.962 . S
C1634 H1648 0.960 . S
C1635 C1632 1.511 . S
C1635 H1649 0.961 . S
C1635 H1650 0.961 . S
C1635 H1651 0.961 . S
C1636 C1637 1.370 . S
C1636 C1638 1.363 . S
C1636 H1652 0.931 . S
C1637 C1636 1.370 . S
C1637 C1641 1.408 . S
C1638 C1636 1.363 . S
C1638 C1639 1.370 . S
C1638 C1642 1.524 . S
C1639 C1631 1.503 . S
C1639 C1638 1.370 . S
C1639 C1640 1.403 . S
C1640 C1639 1.403 . S
C1640 C1641 1.404 . S
C1640 C1643 1.539 . S
C1641 C1637 1.408 . S
C1641 C1640 1.404 . S
C1641 H1653 0.930 . S
C1642 C1638 1.524 . S
C1642 H1654 0.956 . S
C1642 H1655 0.961 . S
C1642 H1656 0.961 . S
C1643 C1640 1.539 . S
C1643 H1657 0.958 . S
C1643 H1658 0.961 . S
C1643 H1659 0.960 . S
H1644 C1628 0.931 . S
H1645 C1633 0.929 . S
H1646 C1634 0.960 . S
H1647 C1634 0.962 . S
H1648 C1634 0.960 . S
H1649 C1635 0.961 . S
H1650 C1635 0.961 . S
H1651 C1635 0.961 . S
H1652 C1636 0.931 . S
H1653 C1641 0.930 . S
H1654 C1642 0.956 . S
H1655 C1642 0.961 . S
H1656 C1642 0.961 . S
H1657 C1643 0.958 . S
H1658 C1643 0.961 . S
H1659 C1643 0.960 . S
C1660 C1661 1.391 . S
C1660 C1662 1.394 . S
C1660 H1676 0.931 . S
C1661 C1660 1.391 . S
C1661 C1665 1.376 . S
C1662 C1660 1.394 . S
C1662 C1663 1.369 . S
C1662 C1666 1.531 . S
C1663 C1662 1.369 . S
C1663 C1664 1.410 . S
C1663 C1671 1.503 . S
C1664 C1663 1.410 . S
C1664 C1665 1.392 . S
C1664 C1667 1.511 . S
C1665 C1661 1.376 . S
C1665 C1664 1.392 . S
C1665 H1677 0.929 1_455 S
C1666 C1662 1.531 . S
C1666 H1678 0.960 . S
C1666 H1679 0.962 . S
C1666 H1680 0.960 . S
C1667 C1664 1.511 . S
C1667 H1681 0.961 . S
C1667 H1682 0.961 . S
C1667 H1683 0.961 . S
C1668 C1669 1.370 . S
C1668 C1670 1.363 . S
C1668 H1684 0.931 . S
C1669 C1668 1.370 . S
C1669 C1673 1.408 . S
C1670 C1668 1.363 . S
C1670 C1671 1.370 . S
C1670 C1674 1.524 . S
C1671 C1663 1.503 . S
C1671 C1670 1.370 . S
C1671 C1672 1.403 . S
C1672 C1671 1.403 . S
C1672 C1673 1.404 . S
C1672 C1675 1.539 . S
C1673 C1669 1.408 . S
C1673 C1672 1.404 . S
C1673 H1685 0.930 . S
C1674 C1670 1.524 . S
C1674 H1686 0.956 . S
C1674 H1687 0.961 . S
C1674 H1688 0.961 . S
C1675 C1672 1.539 . S
C1675 H1689 0.958 . S
C1675 H1690 0.961 . S
C1675 H1691 0.960 . S
H1676 C1660 0.931 . S
H1677 C1665 0.929 1_655 S
H1678 C1666 0.960 . S
H1679 C1666 0.962 . S
H1680 C1666 0.960 . S
H1681 C1667 0.961 . S
H1682 C1667 0.961 . S
H1683 C1667 0.961 . S
H1684 C1668 0.931 . S
H1685 C1673 0.930 . S
H1686 C1674 0.956 . S
H1687 C1674 0.961 . S
H1688 C1674 0.961 . S
H1689 C1675 0.958 . S
H1690 C1675 0.961 . S
H1691 C1675 0.960 . S
C1692 C1693 1.391 . S
C1692 C1694 1.394 . S
C1692 H1708 0.931 . S
C1693 C1692 1.391 . S
C1693 C1697 1.376 . S
C1694 C1692 1.394 . S
C1694 C1695 1.369 . S
C1694 C1698 1.531 . S
C1695 C1694 1.369 . S
C1695 C1696 1.410 . S
C1695 C1703 1.503 . S
C1696 C1695 1.410 . S
C1696 C1697 1.392 . S
C1696 C1699 1.511 . S
C1697 C1693 1.376 . S
C1697 C1696 1.392 . S
C1697 H1709 0.929 . S
C1698 C1694 1.531 . S
C1698 H1710 0.960 . S
C1698 H1711 0.962 . S
C1698 H1712 0.960 . S
C1699 C1696 1.511 . S
C1699 H1713 0.961 . S
C1699 H1714 0.961 . S
C1699 H1715 0.961 . S
C1700 C1701 1.370 . S
C1700 C1702 1.363 . S
C1700 H1716 0.931 . S
C1701 C1700 1.370 . S
C1701 C1705 1.408 . S
C1702 C1700 1.363 . S
C1702 C1703 1.370 . S
C1702 C1706 1.524 . S
C1703 C1695 1.503 . S
C1703 C1702 1.370 . S
C1703 C1704 1.403 . S
C1704 C1703 1.403 . S
C1704 C1705 1.404 . S
C1704 C1707 1.539 . S
C1705 C1701 1.408 . S
C1705 C1704 1.404 . S
C1705 H1717 0.930 . S
C1706 C1702 1.524 . S
C1706 H1718 0.956 . S
C1706 H1719 0.961 . S
C1706 H1720 0.961 . S
C1707 C1704 1.539 . S
C1707 H1721 0.958 . S
C1707 H1722 0.961 . S
C1707 H1723 0.960 . S
H1708 C1692 0.931 . S
H1709 C1697 0.929 . S
H1710 C1698 0.960 . S
H1711 C1698 0.962 . S
H1712 C1698 0.960 . S
H1713 C1699 0.961 . S
H1714 C1699 0.961 . S
H1715 C1699 0.961 . S
H1716 C1700 0.931 . S
H1717 C1705 0.930 . S
H1718 C1706 0.956 . S
H1719 C1706 0.961 . S
H1720 C1706 0.961 . S
H1721 C1707 0.958 . S
H1722 C1707 0.961 . S
H1723 C1707 0.960 . S
C1724 C1725 1.391 . S
C1724 C1726 1.394 . S
C1724 H1740 0.931 . S
C1725 C1724 1.391 . S
C1725 C1729 1.376 . S
C1726 C1724 1.394 . S
C1726 C1727 1.369 . S
C1726 C1730 1.531 . S
C1727 C1726 1.369 . S
C1727 C1728 1.410 . S
C1727 C1735 1.503 . S
C1728 C1727 1.410 . S
C1728 C1729 1.392 . S
C1728 C1731 1.511 1_655 S
C1729 C1725 1.376 . S
C1729 C1728 1.392 . S
C1729 H1741 0.929 1_556 S
C1730 C1726 1.531 . S
C1730 H1742 0.960 . S
C1730 H1743 0.962 . S
C1730 H1744 0.960 . S
C1731 C1728 1.511 1_455 S
C1731 H1745 0.961 1_456 S
C1731 H1746 0.961 1_455 S
C1731 H1747 0.961 . S
C1732 C1733 1.370 . S
C1732 C1734 1.363 . S
C1732 H1748 0.931 . S
C1733 C1732 1.370 . S
C1733 C1737 1.408 1_655 S
C1734 C1732 1.363 . S
C1734 C1735 1.370 . S
C1734 C1738 1.524 . S
C1735 C1727 1.503 . S
C1735 C1734 1.370 . S
C1735 C1736 1.403 1_655 S
C1736 C1735 1.403 1_455 S
C1736 C1737 1.404 . S
C1736 C1739 1.539 . S
C1737 C1733 1.408 1_455 S
C1737 C1736 1.404 . S
C1737 H1749 0.930 . S
C1738 C1734 1.524 . S
C1738 H1750 0.956 . S
C1738 H1751 0.961 . S
C1738 H1752 0.961 . S
C1739 C1736 1.539 . S
C1739 H1753 0.958 . S
C1739 H1754 0.961 . S
C1739 H1755 0.960 . S
H1740 C1724 0.931 . S
H1741 C1729 0.929 1_554 S
H1742 C1730 0.960 . S
H1743 C1730 0.962 . S
H1744 C1730 0.960 . S
H1745 C1731 0.961 1_654 S
H1746 C1731 0.961 1_655 S
H1747 C1731 0.961 . S
H1748 C1732 0.931 . S
H1749 C1737 0.930 . S
H1750 C1738 0.956 . S
H1751 C1738 0.961 . S
H1752 C1738 0.961 . S
H1753 C1739 0.958 . S
H1754 C1739 0.961 . S
H1755 C1739 0.960 . S
C1756 C1757 1.391 . S
C1756 C1758 1.394 . S
C1756 H1772 0.931 . S
C1757 C1756 1.391 . S
C1757 C1761 1.376 . S
C1758 C1756 1.394 . S
C1758 C1759 1.369 . S
C1758 C1762 1.531 . S
C1759 C1758 1.369 . S
C1759 C1760 1.410 . S
C1759 C1767 1.503 . S
C1760 C1759 1.410 . S
C1760 C1761 1.392 . S
C1760 C1763 1.511 . S
C1761 C1757 1.376 . S
C1761 C1760 1.392 . S
C1761 H1773 0.929 . S
C1762 C1758 1.531 . S
C1762 H1774 0.960 . S
C1762 H1775 0.962 . S
C1762 H1776 0.960 . S
C1763 C1760 1.511 . S
C1763 H1777 0.961 . S
C1763 H1778 0.961 . S
C1763 H1779 0.961 . S
C1764 C1765 1.370 . S
C1764 C1766 1.363 . S
C1764 H1780 0.931 . S
C1765 C1764 1.370 . S
C1765 C1769 1.408 . S
C1766 C1764 1.363 . S
C1766 C1767 1.370 . S
C1766 C1770 1.524 . S
C1767 C1759 1.503 . S
C1767 C1766 1.370 . S
C1767 C1768 1.403 . S
C1768 C1767 1.403 . S
C1768 C1769 1.404 . S
C1768 C1771 1.539 . S
C1769 C1765 1.408 . S
C1769 C1768 1.404 . S
C1769 H1781 0.930 . S
C1770 C1766 1.524 . S
C1770 H1782 0.956 . S
C1770 H1783 0.961 . S
C1770 H1784 0.961 . S
C1771 C1768 1.539 . S
C1771 H1785 0.958 . S
C1771 H1786 0.961 . S
C1771 H1787 0.960 . S
H1772 C1756 0.931 . S
H1773 C1761 0.929 . S
H1774 C1762 0.960 . S
H1775 C1762 0.962 . S
H1776 C1762 0.960 . S
H1777 C1763 0.961 . S
H1778 C1763 0.961 . S
H1779 C1763 0.961 . S
H1780 C1764 0.931 . S
H1781 C1769 0.930 . S
H1782 C1770 0.956 . S
H1783 C1770 0.961 . S
H1784 C1770 0.961 . S
H1785 C1771 0.958 . S
H1786 C1771 0.961 . S
H1787 C1771 0.960 . S
C1788 C1789 1.391 . S
C1788 C1790 1.394 . S
C1788 H1804 0.931 . S
C1789 C1788 1.391 . S
C1789 C1793 1.376 . S
C1790 C1788 1.394 . S
C1790 C1791 1.369 . S
C1790 C1794 1.531 . S
C1791 C1790 1.369 . S
C1791 C1792 1.410 . S
C1791 C1799 1.503 . S
C1792 C1791 1.410 . S
C1792 C1793 1.392 . S
C1792 C1795 1.511 1_455 S
C1793 C1789 1.376 . S
C1793 C1792 1.392 . S
C1793 H1805 0.929 1_556 S
C1794 C1790 1.531 . S
C1794 H1806 0.960 . S
C1794 H1807 0.962 . S
C1794 H1808 0.960 . S
C1795 C1792 1.511 1_655 S
C1795 H1809 0.961 1_556 S
C1795 H1810 0.961 . S
C1795 H1811 0.961 . S
C1796 C1797 1.370 . S
C1796 C1798 1.363 . S
C1796 H1812 0.931 . S
C1797 C1796 1.370 . S
C1797 C1801 1.408 1_455 S
C1798 C1796 1.363 . S
C1798 C1799 1.370 . S
C1798 C1802 1.524 . S
C1799 C1791 1.503 . S
C1799 C1798 1.370 . S
C1799 C1800 1.425 . S
C1800 C1799 1.425 . S
C1800 C1801 1.400 1_455 S
C1800 C1803 1.520 1_455 S
C1801 C1797 1.408 1_655 S
C1801 C1800 1.400 1_655 S
C1801 H1813 0.930 . S
C1802 C1798 1.524 . S
C1802 H1814 0.956 . S
C1802 H1815 0.961 . S
C1802 H1816 0.961 . S
C1803 C1800 1.520 1_655 S
C1803 H1817 0.958 . S
C1803 H1818 0.961 . S
C1803 H1819 0.960 . S
H1804 C1788 0.931 . S
H1805 C1793 0.929 1_554 S
H1806 C1794 0.960 . S
H1807 C1794 0.962 . S
H1808 C1794 0.960 . S
H1809 C1795 0.961 1_554 S
H1810 C1795 0.961 . S
H1811 C1795 0.961 . S
H1812 C1796 0.931 . S
H1813 C1801 0.930 . S
H1814 C1802 0.956 . S
H1815 C1802 0.961 . S
H1816 C1802 0.961 . S
H1817 C1803 0.958 . S
H1818 C1803 0.961 . S
H1819 C1803 0.960 . S
C1820 C1821 1.391 . S
C1820 C1822 1.394 . S
C1820 H1836 0.931 . S
C1821 C1820 1.391 . S
C1821 C1825 1.376 . S
C1822 C1820 1.394 . S
C1822 C1823 1.369 . S
C1822 C1826 1.531 . S
C1823 C1822 1.369 . S
C1823 C1824 1.410 . S
C1823 C1831 1.503 . S
C1824 C1823 1.410 . S
C1824 C1825 1.392 . S
C1824 C1827 1.511 . S
C1825 C1821 1.376 . S
C1825 C1824 1.392 . S
C1825 H1837 0.929 . S
C1826 C1822 1.531 . S
C1826 H1838 0.960 . S
C1826 H1839 0.962 . S
C1826 H1840 0.960 . S
C1827 C1824 1.511 . S
C1827 H1841 0.961 . S
C1827 H1842 0.961 . S
C1827 H1843 0.961 . S
C1828 C1829 1.370 . S
C1828 C1830 1.363 . S
C1828 H1844 0.931 . S
C1829 C1828 1.370 . S
C1829 C1833 1.408 . S
C1830 C1828 1.363 . S
C1830 C1831 1.370 . S
C1830 C1834 1.524 . S
C1831 C1823 1.503 . S
C1831 C1830 1.370 . S
C1831 C1832 1.403 . S
C1832 C1831 1.403 . S
C1832 C1833 1.404 . S
C1832 C1835 1.539 . S
C1833 C1829 1.408 . S
C1833 C1832 1.404 . S
C1833 H1845 0.930 . S
C1834 C1830 1.524 . S
C1834 H1846 0.956 . S
C1834 H1847 0.961 . S
C1834 H1848 0.961 . S
C1835 C1832 1.539 . S
C1835 H1849 0.958 . S
C1835 H1850 0.961 . S
C1835 H1851 0.960 . S
H1836 C1820 0.931 . S
H1837 C1825 0.929 . S
H1838 C1826 0.960 . S
H1839 C1826 0.962 . S
H1840 C1826 0.960 . S
H1841 C1827 0.961 . S
H1842 C1827 0.961 . S
H1843 C1827 0.961 . S
H1844 C1828 0.931 . S
H1845 C1833 0.930 . S
H1846 C1834 0.956 . S
H1847 C1834 0.961 . S
H1848 C1834 0.961 . S
H1849 C1835 0.958 . S
H1850 C1835 0.961 . S
H1851 C1835 0.960 . S
C1852 C1853 1.391 . S
C1852 C1854 1.394 . S
C1852 H1868 0.931 . S
C1853 C1852 1.391 . S
C1853 C1857 1.376 . S
C1854 C1852 1.394 . S
C1854 C1855 1.369 . S
C1854 C1858 1.531 . S
C1855 C1854 1.369 . S
C1855 C1856 1.410 . S
C1855 C1863 1.503 . S
C1856 C1855 1.410 . S
C1856 C1857 1.392 . S
C1856 C1859 1.511 . S
C1857 C1853 1.376 . S
C1857 C1856 1.392 . S
C1857 H1869 0.929 . S
C1858 C1854 1.531 . S
C1858 H1870 0.960 . S
C1858 H1871 0.962 . S
C1858 H1872 0.960 . S
C1859 C1856 1.511 . S
C1859 H1873 0.961 . S
C1859 H1874 0.961 . S
C1859 H1875 0.961 . S
C1860 C1861 1.370 . S
C1860 C1862 1.363 . S
C1860 H1876 0.931 . S
C1861 C1860 1.370 . S
C1861 C1865 1.408 . S
C1862 C1860 1.363 . S
C1862 C1863 1.370 . S
C1862 C1866 1.524 . S
C1863 C1855 1.503 . S
C1863 C1862 1.370 . S
C1863 C1864 1.403 . S
C1864 C1863 1.403 . S
C1864 C1865 1.404 . S
C1864 C1867 1.539 . S
C1865 C1861 1.408 . S
C1865 C1864 1.404 . S
C1865 H1877 0.930 . S
C1866 C1862 1.524 . S
C1866 H1878 0.956 . S
C1866 H1879 0.961 . S
C1866 H1880 0.961 . S
C1867 C1864 1.539 . S
C1867 H1881 0.958 . S
C1867 H1882 0.961 . S
C1867 H1883 0.960 . S
H1868 C1852 0.931 . S
H1869 C1857 0.929 . S
H1870 C1858 0.960 . S
H1871 C1858 0.962 . S
H1872 C1858 0.960 . S
H1873 C1859 0.961 . S
H1874 C1859 0.961 . S
H1875 C1859 0.961 . S
H1876 C1860 0.931 . S
H1877 C1865 0.930 . S
H1878 C1866 0.956 . S
H1879 C1866 0.961 . S
H1880 C1866 0.961 . S
H1881 C1867 0.958 . S
H1882 C1867 0.961 . S
H1883 C1867 0.960 . S
C1884 C1885 1.391 . S
C1884 C1886 1.394 . S
C1884 H1900 0.931 . S
C1885 C1884 1.391 . S
C1885 C1889 1.376 . S
C1886 C1884 1.394 . S
C1886 C1887 1.369 . S
C1886 C1890 1.531 . S
C1887 C1886 1.369 . S
C1887 C1888 1.410 . S
C1887 C1895 1.503 . S
C1888 C1887 1.410 . S
C1888 C1889 1.392 . S
C1888 C1891 1.511 . S
C1889 C1885 1.376 . S
C1889 C1888 1.392 . S
C1889 H1901 0.929 . S
C1890 C1886 1.531 . S
C1890 H1902 0.960 . S
C1890 H1903 0.962 . S
C1890 H1904 0.960 . S
C1891 C1888 1.511 . S
C1891 H1905 0.961 . S
C1891 H1906 0.961 . S
C1891 H1907 0.961 . S
C1892 C1893 1.370 . S
C1892 C1894 1.363 . S
C1892 H1908 0.931 . S
C1893 C1892 1.370 . S
C1893 C1897 1.408 . S
C1894 C1892 1.363 . S
C1894 C1895 1.370 . S
C1894 C1898 1.524 . S
C1895 C1887 1.503 . S
C1895 C1894 1.370 . S
C1895 C1896 1.403 . S
C1896 C1895 1.403 . S
C1896 C1897 1.404 . S
C1896 C1899 1.539 . S
C1897 C1893 1.408 . S
C1897 C1896 1.404 . S
C1897 H1909 0.930 . S
C1898 C1894 1.524 . S
C1898 H1910 0.956 . S
C1898 H1911 0.961 . S
C1898 H1912 0.961 . S
C1899 C1896 1.539 . S
C1899 H1913 0.958 . S
C1899 H1914 0.961 . S
C1899 H1915 0.960 . S
H1900 C1884 0.931 . S
H1901 C1889 0.929 . S
H1902 C1890 0.960 . S
H1903 C1890 0.962 . S
H1904 C1890 0.960 . S
H1905 C1891 0.961 . S
H1906 C1891 0.961 . S
H1907 C1891 0.961 . S
H1908 C1892 0.931 . S
H1909 C1897 0.930 . S
H1910 C1898 0.956 . S
H1911 C1898 0.961 . S
H1912 C1898 0.961 . S
H1913 C1899 0.958 . S
H1914 C1899 0.961 . S
H1915 C1899 0.960 . S
C1916 C1917 1.391 . S
C1916 C1918 1.394 . S
C1916 H1932 0.931 . S
C1917 C1916 1.391 . S
C1917 C1921 1.376 . S
C1918 C1916 1.394 . S
C1918 C1919 1.369 . S
C1918 C1922 1.531 . S
C1919 C1918 1.369 . S
C1919 C1920 1.410 . S
C1919 C1927 1.503 . S
C1920 C1919 1.410 . S
C1920 C1921 1.392 . S
C1920 C1923 1.511 . S
C1921 C1917 1.376 . S
C1921 C1920 1.392 . S
C1921 H1933 0.929 . S
C1922 C1918 1.531 . S
C1922 H1934 0.960 . S
C1922 H1935 0.962 . S
C1922 H1936 0.960 . S
C1923 C1920 1.511 . S
C1923 H1937 0.961 . S
C1923 H1938 0.961 . S
C1923 H1939 0.961 . S
C1924 C1925 1.370 . S
C1924 C1926 1.363 . S
C1924 H1940 0.931 . S
C1925 C1924 1.370 . S
C1925 C1929 1.408 . S
C1926 C1924 1.363 . S
C1926 C1927 1.370 . S
C1926 C1930 1.524 . S
C1927 C1919 1.503 . S
C1927 C1926 1.370 . S
C1927 C1928 1.403 . S
C1928 C1927 1.403 . S
C1928 C1929 1.404 . S
C1928 C1931 1.539 . S
C1929 C1925 1.408 . S
C1929 C1928 1.404 . S
C1929 H1941 0.930 . S
C1930 C1926 1.524 . S
C1930 H1942 0.956 . S
C1930 H1943 0.961 . S
C1930 H1944 0.961 . S
C1931 C1928 1.539 . S
C1931 H1945 0.958 . S
C1931 H1946 0.961 . S
C1931 H1947 0.960 . S
H1932 C1916 0.931 . S
H1933 C1921 0.929 . S
H1934 C1922 0.960 . S
H1935 C1922 0.962 . S
H1936 C1922 0.960 . S
H1937 C1923 0.961 . S
H1938 C1923 0.961 . S
H1939 C1923 0.961 . S
H1940 C1924 0.931 . S
H1941 C1929 0.930 . S
H1942 C1930 0.956 . S
H1943 C1930 0.961 . S
H1944 C1930 0.961 . S
H1945 C1931 0.958 . S
H1946 C1931 0.961 . S
H1947 C1931 0.960 . S
C1948 C1949 1.391 . S
C1948 C1950 1.394 . S
C1948 H1964 0.931 . S
C1949 C1948 1.391 . S
C1949 C1953 1.376 . S
C1950 C1948 1.394 . S
C1950 C1951 1.369 . S
C1950 C1954 1.531 . S
C1951 C1950 1.369 . S
C1951 C1952 1.410 . S
C1951 C1959 1.503 . S
C1952 C1951 1.410 . S
C1952 C1953 1.392 . S
C1952 C1955 1.511 . S
C1953 C1949 1.376 . S
C1953 C1952 1.392 . S
C1953 H1965 0.929 . S
C1954 C1950 1.531 . S
C1954 H1966 0.960 . S
C1954 H1967 0.962 . S
C1954 H1968 0.960 . S
C1955 C1952 1.511 . S
C1955 H1969 0.961 . S
C1955 H1970 0.961 . S
C1955 H1971 0.961 . S
C1956 C1957 1.370 . S
C1956 C1958 1.363 . S
C1956 H1972 0.931 . S
C1957 C1956 1.370 . S
C1957 C1961 1.408 . S
C1958 C1956 1.363 . S
C1958 C1959 1.370 . S
C1958 C1962 1.524 . S
C1959 C1951 1.503 . S
C1959 C1958 1.370 . S
C1959 C1960 1.403 . S
C1960 C1959 1.403 . S
C1960 C1961 1.404 . S
C1960 C1963 1.539 . S
C1961 C1957 1.408 . S
C1961 C1960 1.404 . S
C1961 H1973 0.930 . S
C1962 C1958 1.524 . S
C1962 H1974 0.956 . S
C1962 H1975 0.961 . S
C1962 H1976 0.961 . S
C1963 C1960 1.539 . S
C1963 H1977 0.958 . S
C1963 H1978 0.961 . S
C1963 H1979 0.960 . S
H1964 C1948 0.931 . S
H1965 C1953 0.929 . S
H1966 C1954 0.960 . S
H1967 C1954 0.962 . S
H1968 C1954 0.960 . S
H1969 C1955 0.961 . S
H1970 C1955 0.961 . S
H1971 C1955 0.961 . S
H1972 C1956 0.931 . S
H1973 C1961 0.930 . S
H1974 C1962 0.956 . S
H1975 C1962 0.961 . S
H1976 C1962 0.961 . S
H1977 C1963 0.958 . S
H1978 C1963 0.961 . S
H1979 C1963 0.960 . S
C1980 C1981 1.391 . S
C1980 C1982 1.394 . S
C1980 H1996 0.931 . S
C1981 C1980 1.391 . S
C1981 C1985 1.376 . S
C1982 C1980 1.394 . S
C1982 C1983 1.369 . S
C1982 C1986 1.531 . S
C1983 C1982 1.369 . S
C1983 C1984 1.410 . S
C1983 C1991 1.503 . S
C1984 C1983 1.410 . S
C1984 C1985 1.392 . S
C1984 C1987 1.511 . S
C1985 C1981 1.376 . S
C1985 C1984 1.392 . S
C1985 H1997 0.929 . S
C1986 C1982 1.531 . S
C1986 H1998 0.960 . S
C1986 H1999 0.962 . S
C1986 H2000 0.960 . S
C1987 C1984 1.511 . S
C1987 H2001 0.961 . S
C1987 H2002 0.961 . S
C1987 H2003 0.961 . S
C1988 C1989 1.370 . S
C1988 C1990 1.363 . S
C1988 H2004 0.931 . S
C1989 C1988 1.370 . S
C1989 C1993 1.408 . S
C1990 C1988 1.363 . S
C1990 C1991 1.370 . S
C1990 C1994 1.524 . S
C1991 C1983 1.503 . S
C1991 C1990 1.370 . S
C1991 C1992 1.403 . S
C1992 C1991 1.403 . S
C1992 C1993 1.404 . S
C1992 C1995 1.539 . S
C1993 C1989 1.408 . S
C1993 C1992 1.404 . S
C1993 H2005 0.930 . S
C1994 C1990 1.524 . S
C1994 H2006 0.956 . S
C1994 H2007 0.961 . S
C1994 H2008 0.961 . S
C1995 C1992 1.539 . S
C1995 H2009 0.958 . S
C1995 H2010 0.961 . S
C1995 H2011 0.960 . S
H1996 C1980 0.931 . S
H1997 C1985 0.929 . S
H1998 C1986 0.960 . S
H1999 C1986 0.962 . S
H2000 C1986 0.960 . S
H2001 C1987 0.961 . S
H2002 C1987 0.961 . S
H2003 C1987 0.961 . S
H2004 C1988 0.931 . S
H2005 C1993 0.930 . S
H2006 C1994 0.956 . S
H2007 C1994 0.961 . S
H2008 C1994 0.961 . S
H2009 C1995 0.958 . S
H2010 C1995 0.961 . S
H2011 C1995 0.960 . S
C2012 C2013 1.391 . S
C2012 C2014 1.394 . S
C2012 H2028 0.931 . S
C2013 C2012 1.391 . S
C2013 C2017 1.376 . S
C2014 C2012 1.394 . S
C2014 C2015 1.369 . S
C2014 C2018 1.531 . S
C2015 C2014 1.369 . S
C2015 C2016 1.410 . S
C2015 C2023 1.503 . S
C2016 C2015 1.410 . S
C2016 C2017 1.392 . S
C2016 C2019 1.511 . S
C2017 C2013 1.376 . S
C2017 C2016 1.392 . S
C2017 H2029 0.929 . S
C2018 C2014 1.531 . S
C2018 H2030 0.960 . S
C2018 H2031 0.962 . S
C2018 H2032 0.960 . S
C2019 C2016 1.511 . S
C2019 H2033 0.961 . S
C2019 H2034 0.961 . S
C2019 H2035 0.961 . S
C2020 C2021 1.370 . S
C2020 C2022 1.363 . S
C2020 H2036 0.931 . S
C2021 C2020 1.370 . S
C2021 C2025 1.408 . S
C2022 C2020 1.363 . S
C2022 C2023 1.370 . S
C2022 C2026 1.524 . S
C2023 C2015 1.503 . S
C2023 C2022 1.370 . S
C2023 C2024 1.403 . S
C2024 C2023 1.403 . S
C2024 C2025 1.404 . S
C2024 C2027 1.539 . S
C2025 C2021 1.408 . S
C2025 C2024 1.404 . S
C2025 H2037 0.930 . S
C2026 C2022 1.524 . S
C2026 H2038 0.956 . S
C2026 H2039 0.961 . S
C2026 H2040 0.961 . S
C2027 C2024 1.539 . S
C2027 H2041 0.958 . S
C2027 H2042 0.961 . S
C2027 H2043 0.960 . S
H2028 C2012 0.931 . S
H2029 C2017 0.929 . S
H2030 C2018 0.960 . S
H2031 C2018 0.962 . S
H2032 C2018 0.960 . S
H2033 C2019 0.961 . S
H2034 C2019 0.961 . S
H2035 C2019 0.961 . S
H2036 C2020 0.931 . S
H2037 C2025 0.930 . S
H2038 C2026 0.956 . S
H2039 C2026 0.961 . S
H2040 C2026 0.961 . S
H2041 C2027 0.958 . S
H2042 C2027 0.961 . S
H2043 C2027 0.960 . S
C2044 C2045 1.391 . S
C2044 C2046 1.394 . S
C2044 H2060 0.931 . S
C2045 C2044 1.391 . S
C2045 C2049 1.376 . S
C2046 C2044 1.394 . S
C2046 C2047 1.369 . S
C2046 C2050 1.531 . S
C2047 C2046 1.369 . S
C2047 C2048 1.410 . S
C2047 C2055 1.503 . S
C2048 C2047 1.410 . S
C2048 C2049 1.392 . S
C2048 C2051 1.511 . S
C2049 C2045 1.376 . S
C2049 C2048 1.392 . S
C2049 H2061 0.929 . S
C2050 C2046 1.531 . S
C2050 H2062 0.960 . S
C2050 H2063 0.962 . S
C2050 H2064 0.960 . S
C2051 C2048 1.511 . S
C2051 H2065 0.961 . S
C2051 H2066 0.961 . S
C2051 H2067 0.961 . S
C2052 C2053 1.370 . S
C2052 C2054 1.363 . S
C2052 H2068 0.931 . S
C2053 C2052 1.370 . S
C2053 C2057 1.408 . S
C2054 C2052 1.363 . S
C2054 C2055 1.370 . S
C2054 C2058 1.524 . S
C2055 C2047 1.503 . S
C2055 C2054 1.370 . S
C2055 C2056 1.403 . S
C2056 C2055 1.403 . S
C2056 C2057 1.404 . S
C2056 C2059 1.539 . S
C2057 C2053 1.408 . S
C2057 C2056 1.404 . S
C2057 H2069 0.930 . S
C2058 C2054 1.524 . S
C2058 H2070 0.956 . S
C2058 H2071 0.961 . S
C2058 H2072 0.961 . S
C2059 C2056 1.539 . S
C2059 H2073 0.958 . S
C2059 H2074 0.961 . S
C2059 H2075 0.960 . S
H2060 C2044 0.931 . S
H2061 C2049 0.929 . S
H2062 C2050 0.960 . S
H2063 C2050 0.962 . S
H2064 C2050 0.960 . S
H2065 C2051 0.961 . S
H2066 C2051 0.961 . S
H2067 C2051 0.961 . S
H2068 C2052 0.931 . S
H2069 C2057 0.930 . S
H2070 C2058 0.956 . S
H2071 C2058 0.961 . S
H2072 C2058 0.961 . S
H2073 C2059 0.958 . S
H2074 C2059 0.961 . S
H2075 C2059 0.960 . S
C2076 C2077 1.391 . S
C2076 C2078 1.394 . S
C2076 H2092 0.931 . S
C2077 C2076 1.391 . S
C2077 C2081 1.376 . S
C2078 C2076 1.394 . S
C2078 C2079 1.369 . S
C2078 C2082 1.531 . S
C2079 C2078 1.369 . S
C2079 C2080 1.410 . S
C2079 C2087 1.503 . S
C2080 C2079 1.410 . S
C2080 C2081 1.392 . S
C2080 C2083 1.511 1_556 S
C2081 C2077 1.376 . S
C2081 C2080 1.392 . S
C2081 H2093 0.929 1_556 S
C2082 C2078 1.531 . S
C2082 H2094 0.960 . S
C2082 H2095 0.962 . S
C2082 H2096 0.960 . S
C2083 C2080 1.511 1_554 S
C2083 H2097 0.961 . S
C2083 H2098 0.961 . S
C2083 H2099 0.961 . S
C2084 C2085 1.370 . S
C2084 C2086 1.363 . S
C2084 H2100 0.931 1_556 S
C2085 C2084 1.370 . S
C2085 C2089 1.408 . S
C2086 C2084 1.363 . S
C2086 C2087 1.370 . S
C2086 C2090 1.524 . S
C2087 C2079 1.503 . S
C2087 C2086 1.370 . S
C2087 C2088 1.403 . S
C2088 C2087 1.403 . S
C2088 C2089 1.404 . S
C2088 C2091 1.539 . S
C2089 C2085 1.408 . S
C2089 C2088 1.404 . S
C2089 H2101 0.930 . S
C2090 C2086 1.524 . S
C2090 H2102 0.956 . S
C2090 H2103 0.961 1_556 S
C2090 H2104 0.961 1_556 S
C2091 C2088 1.539 . S
C2091 H2105 0.958 . S
C2091 H2106 0.961 . S
C2091 H2107 0.960 . S
H2092 C2076 0.931 . S
H2093 C2081 0.929 1_554 S
H2094 C2082 0.960 . S
H2095 C2082 0.962 . S
H2096 C2082 0.960 . S
H2097 C2083 0.961 . S
H2098 C2083 0.961 . S
H2099 C2083 0.961 . S
H2100 C2084 0.931 1_554 S
H2101 C2089 0.930 . S
H2102 C2090 0.956 . S
H2103 C2090 0.961 1_554 S
H2104 C2090 0.961 1_554 S
H2105 C2091 0.958 . S
H2106 C2091 0.961 . S
H2107 C2091 0.960 . S
C2108 C2109 1.391 . S
C2108 C2110 1.394 . S
C2108 H2124 0.931 . S
C2109 C2108 1.391 . S
C2109 C2113 1.376 . S
C2110 C2108 1.394 . S
C2110 C2111 1.369 . S
C2110 C2114 1.531 . S
C2111 C2110 1.369 . S
C2111 C2112 1.410 . S
C2111 C2119 1.503 . S
C2112 C2111 1.410 . S
C2112 C2113 1.392 . S
C2112 C2115 1.511 . S
C2113 C2109 1.376 . S
C2113 C2112 1.392 . S
C2113 H2125 0.929 . S
C2114 C2110 1.531 . S
C2114 H2126 0.960 . S
C2114 H2127 0.962 . S
C2114 H2128 0.960 . S
C2115 C2112 1.511 . S
C2115 H2129 0.961 . S
C2115 H2130 0.961 . S
C2115 H2131 0.961 . S
C2116 C2117 1.370 . S
C2116 C2118 1.363 . S
C2116 H2132 0.931 . S
C2117 C2116 1.370 . S
C2117 C2121 1.408 . S
C2118 C2116 1.363 . S
C2118 C2119 1.370 . S
C2118 C2122 1.524 . S
C2119 C2111 1.503 . S
C2119 C2118 1.370 . S
C2119 C2120 1.403 . S
C2120 C2119 1.403 . S
C2120 C2121 1.404 . S
C2120 C2123 1.539 . S
C2121 C2117 1.408 . S
C2121 C2120 1.404 . S
C2121 H2133 0.930 . S
C2122 C2118 1.524 . S
C2122 H2134 0.956 . S
C2122 H2135 0.961 . S
C2122 H2136 0.961 . S
C2123 C2120 1.539 . S
C2123 H2137 0.958 . S
C2123 H2138 0.961 . S
C2123 H2139 0.960 . S
H2124 C2108 0.931 . S
H2125 C2113 0.929 . S
H2126 C2114 0.960 . S
H2127 C2114 0.962 . S
H2128 C2114 0.960 . S
H2129 C2115 0.961 . S
H2130 C2115 0.961 . S
H2131 C2115 0.961 . S
H2132 C2116 0.931 . S
H2133 C2121 0.930 . S
H2134 C2122 0.956 . S
H2135 C2122 0.961 . S
H2136 C2122 0.961 . S
H2137 C2123 0.958 . S
H2138 C2123 0.961 . S
H2139 C2123 0.960 . S
C2140 C2141 1.391 . S
C2140 C2142 1.394 . S
C2140 H2156 0.931 . S
C2141 C2140 1.391 . S
C2141 C2145 1.376 . S
C2142 C2140 1.394 . S
C2142 C2143 1.369 . S
C2142 C2146 1.531 . S
C2143 C2142 1.369 . S
C2143 C2144 1.410 . S
C2143 C2151 1.503 . S
C2144 C2143 1.410 . S
C2144 C2145 1.392 . S
C2144 C2147 1.501 1_554 S
C2145 C2141 1.376 . S
C2145 C2144 1.392 . S
C2145 H2157 0.929 . S
C2146 C2142 1.531 . S
C2146 H2158 0.960 . S
C2146 H2159 0.962 . S
C2146 H2160 0.960 . S
C2147 C2144 1.501 1_556 S
C2147 H2161 0.953 1_556 S
C2147 H2162 0.952 1_556 S
C2147 H2163 0.988 . S
C2148 C2149 1.370 . S
C2148 C2150 1.363 . S
C2148 H2164 0.931 . S
C2149 C2148 1.370 . S
C2149 C2153 1.408 1_554 S
C2150 C2148 1.363 . S
C2150 C2151 1.370 . S
C2150 C2154 1.524 . S
C2151 C2143 1.503 . S
C2151 C2150 1.370 . S
C2151 C2152 1.403 1_554 S
C2152 C2151 1.403 1_556 S
C2152 C2153 1.404 . S
C2152 C2155 1.539 . S
C2153 C2149 1.408 1_556 S
C2153 C2152 1.404 . S
C2153 H2165 0.930 . S
C2154 C2150 1.524 . S
C2154 H2166 0.956 . S
C2154 H2167 0.961 . S
C2154 H2168 0.961 . S
C2155 C2152 1.539 . S
C2155 H2169 0.958 . S
C2155 H2170 0.961 . S
C2155 H2171 0.960 . S
H2156 C2140 0.931 . S
H2157 C2145 0.929 . S
H2158 C2146 0.960 . S
H2159 C2146 0.962 . S
H2160 C2146 0.960 . S
H2161 C2147 0.953 1_554 S
H2162 C2147 0.952 1_554 S
H2163 C2147 0.988 . S
H2164 C2148 0.931 . S
H2165 C2153 0.930 . S
H2166 C2154 0.956 . S
H2167 C2154 0.961 . S
H2168 C2154 0.961 . S
H2169 C2155 0.958 . S
H2170 C2155 0.961 . S
H2171 C2155 0.960 . S
C2172 C2173 1.391 . S
C2172 C2174 1.394 . S
C2172 H2188 0.931 . S
C2173 C2172 1.391 . S
C2173 C2177 1.376 . S
C2174 C2172 1.394 . S
C2174 C2175 1.369 . S
C2174 C2178 1.531 1_554 S
C2175 C2174 1.369 . S
C2175 C2176 1.410 . S
C2175 C2183 1.503 . S
C2176 C2175 1.410 . S
C2176 C2177 1.392 . S
C2176 C2179 1.511 . S
C2177 C2173 1.376 . S
C2177 C2176 1.392 . S
C2177 H2189 0.929 1_565 S
C2178 C2174 1.531 1_556 S
C2178 H2190 0.960 . S
C2178 H2191 0.962 1_556 S
C2178 H2192 0.960 . S
C2179 C2176 1.511 . S
C2179 H2193 0.961 . S
C2179 H2194 0.961 . S
C2179 H2195 0.961 . S
C2180 C2181 1.370 . S
C2180 C2182 1.363 . S
C2180 H2196 0.931 . S
C2181 C2180 1.370 . S
C2181 C2185 1.408 . S
C2182 C2180 1.363 . S
C2182 C2183 1.370 . S
C2182 C2186 1.524 . S
C2183 C2175 1.503 . S
C2183 C2182 1.370 . S
C2183 C2184 1.403 . S
C2184 C2183 1.403 . S
C2184 C2185 1.404 . S
C2184 C2187 1.539 1_554 S
C2185 C2181 1.408 . S
C2185 C2184 1.404 . S
C2185 H2197 0.930 1_554 S
C2186 C2182 1.524 . S
C2186 H2198 0.956 . S
C2186 H2199 0.961 . S
C2186 H2200 0.961 . S
C2187 C2184 1.539 1_556 S
C2187 H2201 0.958 . S
C2187 H2202 0.961 . S
C2187 H2203 0.960 1_556 S
H2188 C2172 0.931 . S
H2189 C2177 0.929 1_545 S
H2190 C2178 0.960 . S
H2191 C2178 0.962 1_554 S
H2192 C2178 0.960 . S
H2193 C2179 0.961 . S
H2194 C2179 0.961 . S
H2195 C2179 0.961 . S
H2196 C2180 0.931 . S
H2197 C2185 0.930 1_556 S
H2198 C2186 0.956 . S
H2199 C2186 0.961 . S
H2200 C2186 0.961 . S
H2201 C2187 0.958 . S
H2202 C2187 0.961 . S
H2203 C2187 0.960 1_554 S
C677 C522 1.387 . S
C669 C177 1.344 . S
C709 C535 1.613 . S
C701 C209 1.619 . S
C733 C253 1.383 . S
C741 C548 1.400 . S
C773 C561 1.537 . S
C765 C157 1.497 . S
C805 C569 1.475 . S
C797 C343 1.481 . S
C837 C582 1.411 . S
C829 C401 1.380 . S
C861 C369 1.514 . S
C869 C595 1.519 . S
C901 C608 1.494 . S
C893 C317 1.467 . S
C925 C375 1.412 . S
C933 C626 1.451 . S
C965 C637 1.556 . S
C957 C305 1.574 . S
C989 C349 1.450 . S
C997 C621 1.456 . S
C1029 C629 1.454 . S
C1021 C413 1.475 . S
C1053 C241 1.463 . S
C1061 C652 1.466 . S
C1085 C151 1.473 . S
C1093 C642 1.451 . S
C1117 C189 1.482 . S
C1125 C647 1.484 . S
C1149 C215 1.558 . S
C1157 C650 1.542 . S
C1181 C113 1.408 . S
C1189 C559 1.408 . S
C1213 C471 1.399 . S
C1221 C551 1.404 . S
C1253 C520 1.541 . S
C1245 C509 1.530 . S
C1285 C525 1.495 . S
C1277 C279 1.496 . S
C1309 C145 1.463 . S
C1317 C572 1.474 . S
C1349 C611 1.553 . S
C1341 C381 1.561 . S
C1381 C564 1.502 . S
C1373 C311 1.514 . S
C1413 C590 1.447 . S
C1405 C407 1.419 . S
C1445 C600 1.388 . S
C1437 C465 1.347 . S
C1469 C497 1.613 . S
C1477 C613 1.609 . S
C1501 C285 1.393 . S
C1509 C574 1.407 . S
C1541 C587 1.539 . S
C1533 C445 1.513 . S
C1565 C119 1.488 . S
C1573 C543 1.478 . S
C1605 C556 1.415 . S
C1597 C17 1.399 . S
C1637 C517 1.508 . S
C1629 C49 1.511 . S
C1669 C530 1.491 . S
C1661 C93 1.479 . S
C1693 C55 1.450 . S
C1701 C639 1.439 . S
C1725 C81 1.547 . S
C1733 C624 1.541 1_655 S
C1757 C125 1.444 . S
C1765 C634 1.454 . S
C1789 C29 1.478 1_556 S
C1797 C616 1.453 . S
C1829 C665 1.463 . S
C1821 C273 1.464 . S
C1861 C655 1.451 . S
C1853 C439 1.470 . S
C1893 C660 1.484 . S
C1885 C477 1.480 . S
C1917 C503 1.521 . S
C1925 C663 1.524 . S
C1949 C337 1.407 . S
C1957 C585 1.417 . S
C1989 C577 1.397 . S
C1981 C183 1.351 . S
C2021 C598 1.555 . S
C2013 C221 1.549 . S
C2053 C603 1.490 . S
C2045 C247 1.458 . S
C2077 C433 1.488 . S
C2085 C546 1.475 . S
C2117 C533 1.550 . S
C2109 C61 1.565 . S
C2141 C87 1.487 . S
C2149 C538 1.490 . S
C2181 C512 1.443 . S
C2173 C23 1.434 1_565 S
