# Generated by pormake.
# Topology apo, (3,6)-cn, num edge types: 1
# Building blocks:
#     Node 0, Type 0, BuildingBlock: CUQRIR_clean_linker_1, # of connection points: 3
#     Node 1, Type 0, BuildingBlock: CUQRIR_clean_linker_1, # of connection points: 3
#     Node 2, Type 0, BuildingBlock: CUQRIR_clean_linker_1, # of connection points: 3
#     Node 3, Type 0, BuildingBlock: CUQRIR_clean_linker_1, # of connection points: 3
#     Node 4, Type 0, BuildingBlock: CUQRIR_clean_linker_1, # of connection points: 3
#     Node 5, Type 0, BuildingBlock: CUQRIR_clean_linker_1, # of connection points: 3
#     Node 6, Type 0, BuildingBlock: CUQRIR_clean_linker_1, # of connection points: 3
#     Node 7, Type 0, BuildingBlock: CUQRIR_clean_linker_1, # of connection points: 3
#     Node 8, Type 1, BuildingBlock: KUMJIN_clean_sbu_1, # of connection points: 6
#     Node 9, Type 1, BuildingBlock: KUMJIN_clean_sbu_1, # of connection points: 6
#     Node 10, Type 1, BuildingBlock: KUMJIN_clean_sbu_1, # of connection points: 6
#     Node 11, Type 1, BuildingBlock: KUMJIN_clean_sbu_1, # of connection points: 6
#     Edge 12, Type (0, 1), BuildingBlock: UVAHIK_clean_linker_0, # of connection points: 2
#     Edge 13, Type (0, 1), BuildingBlock: UVAHIK_clean_linker_0, # of connection points: 2
#     Edge 14, Type (0, 1), BuildingBlock: UVAHIK_clean_linker_0, # of connection points: 2
#     Edge 15, Type (0, 1), BuildingBlock: UVAHIK_clean_linker_0, # of connection points: 2
#     Edge 16, Type (0, 1), BuildingBlock: UVAHIK_clean_linker_0, # of connection points: 2
#     Edge 17, Type (0, 1), BuildingBlock: UVAHIK_clean_linker_0, # of connection points: 2
#     Edge 18, Type (0, 1), BuildingBlock: UVAHIK_clean_linker_0, # of connection points: 2
#     Edge 19, Type (0, 1), BuildingBlock: UVAHIK_clean_linker_0, # of connection points: 2
#     Edge 20, Type (0, 1), BuildingBlock: UVAHIK_clean_linker_0, # of connection points: 2
#     Edge 21, Type (0, 1), BuildingBlock: UVAHIK_clean_linker_0, # of connection points: 2
#     Edge 22, Type (0, 1), BuildingBlock: UVAHIK_clean_linker_0, # of connection points: 2
#     Edge 23, Type (0, 1), BuildingBlock: UVAHIK_clean_linker_0, # of connection points: 2
#     Edge 24, Type (0, 1), BuildingBlock: UVAHIK_clean_linker_0, # of connection points: 2
#     Edge 25, Type (0, 1), BuildingBlock: UVAHIK_clean_linker_0, # of connection points: 2
#     Edge 26, Type (0, 1), BuildingBlock: UVAHIK_clean_linker_0, # of connection points: 2
#     Edge 27, Type (0, 1), BuildingBlock: UVAHIK_clean_linker_0, # of connection points: 2
#     Edge 28, Type (0, 1), BuildingBlock: UVAHIK_clean_linker_0, # of connection points: 2
#     Edge 29, Type (0, 1), BuildingBlock: UVAHIK_clean_linker_0, # of connection points: 2
#     Edge 30, Type (0, 1), BuildingBlock: UVAHIK_clean_linker_0, # of connection points: 2
#     Edge 31, Type (0, 1), BuildingBlock: UVAHIK_clean_linker_0, # of connection points: 2
#     Edge 32, Type (0, 1), BuildingBlock: UVAHIK_clean_linker_0, # of connection points: 2
#     Edge 33, Type (0, 1), BuildingBlock: UVAHIK_clean_linker_0, # of connection points: 2
#     Edge 34, Type (0, 1), BuildingBlock: UVAHIK_clean_linker_0, # of connection points: 2
#     Edge 35, Type (0, 1), BuildingBlock: UVAHIK_clean_linker_0, # of connection points: 2
# Relax obj value: 0.047
# Max RMSD: 0.212
# Mean RMSD: 0.169
data_MOF--net-apo--node1-KUMJIN_clean_sbu_1--node2-CUQRIR_clean_linker_1--edge1-UVAHIK_clean_linker_0
_symmetry_space_group_name_H-M    P1
_symmetry_Int_Tables_number       1
_symmetry_cell_setting            triclinic
loop_
_symmetry_equiv_pos_as_xyz
'x, y, z'
_cell_length_a     33.511
_cell_length_b     52.340049
_cell_length_c     60.541422
_cell_angle_alpha  89.978585
_cell_angle_beta   90.035726
_cell_angle_gamma 90.079568
loop_
_atom_site_label
_atom_site_type_symbol
_atom_site_fract_x
_atom_site_fract_y
_atom_site_fract_z
_atom_type_partial_charge
C0 C 0.27424 0.34096 0.42273 0.0
N1 N 0.29417 0.36339 0.42504 0.0
N2 N 0.25532 0.34006 0.403 0.0
C3 C 0.27101 0.3206 0.44017 0.0
C4 C 0.26419 0.36266 0.39338 0.0
N5 N 0.28748 0.37697 0.40684 0.0
C6 C 0.25222 0.37005 0.37028 0.0
H7 H 0.29763 0.30807 0.43923 0.0
H8 H 0.24403 0.30864 0.43763 0.0
H9 H 0.26995 0.32926 0.45689 0.0
H10 H 0.24398 0.35307 0.3603 0.0
H11 H 0.27684 0.38044 0.36192 0.0
H12 H 0.22607 0.38299 0.37114 0.0
C13 C 0.23175 0.16395 0.92128 0.0
N14 N 0.21055 0.14208 0.92399 0.0
N15 N 0.24555 0.16584 0.90028 0.0
C16 C 0.24189 0.18232 0.93956 0.0
C17 C 0.23211 0.14428 0.89038 0.0
N18 N 0.21133 0.12976 0.90482 0.0
C19 C 0.23681 0.13819 0.86621 0.0
H20 H 0.21809 0.19698 0.94069 0.0
H21 H 0.27066 0.19211 0.93627 0.0
H22 H 0.24378 0.17227 0.95567 0.0
H23 H 0.23972 0.15589 0.85625 0.0
H24 H 0.211 0.12699 0.86001 0.0
H25 H 0.26411 0.12651 0.86394 0.0
C26 C 0.76441 0.16536 0.59812 0.0
N27 N 0.78748 0.14444 0.59483 0.0
N28 N 0.76153 0.17067 0.61993 0.0
C29 C 0.74705 0.18172 0.58009 0.0
C30 C 0.7837 0.1524 0.62982 0.0
N31 N 0.79984 0.13665 0.61457 0.0
C32 C 0.78792 0.14914 0.65441 0.0
H33 H 0.74057 0.20129 0.58613 0.0
H34 H 0.71874 0.17297 0.57431 0.0
H35 H 0.76779 0.18289 0.56585 0.0
H36 H 0.78895 0.1286 0.65891 0.0
H37 H 0.76298 0.15842 0.66338 0.0
H38 H 0.81636 0.15808 0.65977 0.0
C39 C 0.73402 0.33885 0.09866 0.0
N40 N 0.70969 0.35935 0.09616 0.0
N41 N 0.73745 0.33256 0.12024 0.0
C42 C 0.75236 0.32388 0.08006 0.0
C43 C 0.71443 0.34982 0.13083 0.0
N44 N 0.69706 0.36593 0.11619 0.0
C45 C 0.71189 0.35224 0.15558 0.0
H46 H 0.75893 0.30399 0.08522 0.0
H47 H 0.78078 0.33316 0.07513 0.0
H48 H 0.73222 0.32354 0.0655 0.0
H49 H 0.73811 0.34344 0.16377 0.0
H50 H 0.68462 0.34229 0.16144 0.0
H51 H 0.71002 0.37259 0.16059 0.0
C52 C 0.74714 0.65496 0.60031 0.0
N53 N 0.72194 0.63478 0.59817 0.0
N54 N 0.75095 0.66162 0.62181 0.0
C55 C 0.76536 0.66956 0.58142 0.0
C56 C 0.72711 0.64502 0.63268 0.0
N57 N 0.70927 0.62883 0.61833 0.0
C58 C 0.72259 0.64395 0.65738 0.0
H59 H 0.79303 0.65972 0.57609 0.0
H60 H 0.77322 0.68933 0.58641 0.0
H61 H 0.74456 0.67028 0.56717 0.0
H62 H 0.69543 0.65471 0.66215 0.0
H63 H 0.74868 0.65266 0.6658 0.0
H64 H 0.71901 0.62392 0.66307 0.0
C65 C 0.763 0.84725 0.10071 0.0
N66 N 0.78736 0.86779 0.09809 0.0
N67 N 0.75964 0.8411 0.12235 0.0
C68 C 0.74517 0.83187 0.08218 0.0
C69 C 0.78284 0.8584 0.13282 0.0
N70 N 0.79991 0.87449 0.11811 0.0
C71 C 0.78753 0.86021 0.15749 0.0
H72 H 0.71707 0.84111 0.07672 0.0
H73 H 0.73813 0.81212 0.08761 0.0
H74 H 0.76585 0.83109 0.06789 0.0
H75 H 0.81514 0.85001 0.16242 0.0
H76 H 0.76185 0.85133 0.16615 0.0
H77 H 0.7904 0.88044 0.16276 0.0
C78 C 0.24298 0.84088 0.41938 0.0
N79 N 0.21796 0.8611 0.4213 0.0
N80 N 0.24862 0.83489 0.39788 0.0
C81 C 0.25957 0.8258 0.43843 0.0
C82 C 0.22619 0.85205 0.38675 0.0
N83 N 0.20707 0.86781 0.40098 0.0
C84 C 0.22564 0.85459 0.36197 0.0
H85 H 0.28686 0.83546 0.44461 0.0
H86 H 0.2676 0.80612 0.4333 0.0
H87 H 0.23768 0.82483 0.45215 0.0
H88 H 0.19947 0.84409 0.35534 0.0
H89 H 0.25302 0.84639 0.35452 0.0
H90 H 0.22315 0.87492 0.35698 0.0
C91 C 0.26222 0.66515 0.91911 0.0
N92 N 0.28636 0.64457 0.92164 0.0
N93 N 0.25285 0.66859 0.89754 0.0
C94 C 0.25074 0.68315 0.93741 0.0
C95 C 0.2722 0.64942 0.88706 0.0
N96 N 0.2931 0.6351 0.90164 0.0
C97 C 0.26781 0.6433 0.86286 0.0
H98 H 0.22264 0.67631 0.94509 0.0
H99 H 0.2458 0.70274 0.93097 0.0
H100 H 0.27417 0.6838 0.95035 0.0
H101 H 0.29223 0.65275 0.85355 0.0
H102 H 0.23884 0.65026 0.85636 0.0
H103 H 0.26985 0.62241 0.85999 0.0
Eu104 Eu 0.0548 0.11558 0.23906 0.0
C105 C 0.89698 0.06909 0.26931 0.0
N106 N 0.90496 0.09432 0.26651 0.0
C107 C 0.84496 0.09951 0.24548 0.0
C108 C 0.86332 0.05776 0.25935 0.0
C109 C 0.87892 0.10984 0.25555 0.0
C110 C 0.83741 0.07329 0.24712 0.0
C111 C 0.91421 0.02868 0.28633 0.0
C112 C 0.92225 0.05478 0.28255 0.0
C113 C 0.88177 0.01698 0.27562 0.0
C114 C 0.85635 0.0315 0.26217 0.0
Eu115 Eu 0.96376 0.1101 0.28305 0.0
N116 N 0.95314 0.06673 0.29283 0.0
C117 C 0.93813 0.01538 0.30139 0.0
C118 C 0.97395 0.05448 0.30905 0.0
C119 C 0.9676 0.02849 0.31315 0.0
H120 H 0.885 0.13007 0.25421 0.0
H121 H 0.98506 0.01869 0.32559 0.0
H122 H 0.1218 0.07201 0.25847 0.0
H123 H 0.0813 0.21575 0.22007 0.0
H124 H 0.99524 0.06474 0.31908 0.0
H125 H 0.93299 0.99531 0.30475 0.0
H126 H 0.04603 0.17406 0.2184 0.0
H127 H 0.82475 0.11173 0.23638 0.0
H128 H 0.87542 0.99688 0.27812 0.0
H129 H 0.83092 0.02235 0.25442 0.0
H130 H 0.18421 0.07192 0.27984 0.0
H131 H 0.81118 0.06532 0.23922 0.0
H132 H 0.14271 0.22008 0.24256 0.0
N133 N 0.11736 0.11263 0.25741 0.0
C134 C 0.13697 0.13507 0.26069 0.0
C135 C 0.17093 0.08987 0.27487 0.0
C136 C 0.17364 0.13586 0.27214 0.0
C137 C 0.135 0.09005 0.26312 0.0
C138 C 0.18997 0.11291 0.27979 0.0
N139 N 0.08695 0.1556 0.23987 0.0
C140 C 0.07297 0.17596 0.22811 0.0
C141 C 0.14262 0.18044 0.25288 0.0
C142 C 0.12174 0.15712 0.25126 0.0
C143 C 0.12751 0.20182 0.24175 0.0
C144 C 0.09283 0.19946 0.22904 0.0
H145 H 0.21805 0.11269 0.28867 0.0
H146 H 0.22147 0.16031 0.28383 0.0
H147 H 0.19429 0.19936 0.26693 0.0
O148 O 0.04435 0.11847 0.20354 0.0
O149 O 0.04096 0.14816 0.26281 0.0
O150 O 0.02278 0.12684 0.29408 0.0
O151 O 0.10038 0.10371 0.21537 0.0
O152 O 0.99605 0.13363 0.22861 0.0
O153 O 0.9619 0.14497 0.26068 0.0
O154 O 0.93397 0.10732 0.31514 0.0
O155 O 0.95707 0.09567 0.2476 0.0
O156 O 0.01871 0.07919 0.24065 0.0
O157 O 0.93202 0.14271 0.297 0.0
O158 O 0.02491 0.09528 0.29331 0.0
O159 O 0.05168 0.07999 0.26085 0.0
C160 C 0.04019 0.14627 0.28441 0.0
C161 C 0.07625 0.08789 0.18138 0.0
C162 C 0.08347 0.07465 0.14288 0.0
C163 C 0.07118 0.04987 0.14889 0.0
C164 C 0.06412 0.0631 0.18704 0.0
C165 C 0.06153 0.04421 0.17082 0.0
C166 C 0.08583 0.0936 0.15936 0.0
C167 C 0.9694 0.14743 0.23937 0.0
C168 C 0.07821 0.10813 0.19814 0.0
C169 C 0.19352 0.15931 0.27486 0.0
C170 C 0.1781 0.18154 0.26519 0.0
C171 C 0.97992 0.07853 0.23817 0.0
C172 C 0.93777 0.14522 0.33599 0.0
C173 C 0.93539 0.15006 0.37619 0.0
C174 C 0.96416 0.1696 0.37463 0.0
C175 C 0.96654 0.16475 0.33493 0.0
C176 C 0.92224 0.138 0.35666 0.0
C177 C 0.97955 0.17683 0.35415 0.0
C178 C 0.04767 0.07912 0.28248 0.0
C179 C 0.92519 0.13148 0.31583 0.0
H180 H 0.06853 0.03494 0.13659 0.0
H181 H 0.05666 0.05842 0.20395 0.0
H182 H 0.05192 0.02513 0.17525 0.0
H183 H 0.09553 0.11276 0.15514 0.0
H184 H 0.97445 0.17957 0.38924 0.0
H185 H 0.97917 0.17062 0.31927 0.0
H186 H 0.90057 0.12264 0.35753 0.0
H187 H 0.0017 0.19187 0.35317 0.0
Eu188 Eu 0.45115 0.38931 0.74073 0.0
C189 C 0.60718 0.43863 0.76992 0.0
N190 N 0.60057 0.41326 0.76706 0.0
C191 C 0.66018 0.40964 0.74547 0.0
C192 C 0.63979 0.45083 0.75967 0.0
C193 C 0.6272 0.39843 0.75583 0.0
C194 C 0.66618 0.43602 0.74712 0.0
C195 C 0.58841 0.47839 0.78749 0.0
C196 C 0.58172 0.45217 0.78359 0.0
C197 C 0.61967 0.49097 0.77645 0.0
C198 C 0.64534 0.47721 0.7626 0.0
Eu199 Eu 0.54345 0.39586 0.78415 0.0
N200 N 0.55209 0.43935 0.79421 0.0
C201 C 0.56443 0.49094 0.80297 0.0
C202 C 0.53129 0.45093 0.81079 0.0
C203 C 0.53629 0.47701 0.815 0.0
H204 H 0.62229 0.37807 0.75448 0.0
H205 H 0.51882 0.48625 0.82772 0.0
H206 H 0.38409 0.43358 0.7582 0.0
H207 H 0.42534 0.28766 0.72741 0.0
H208 H 0.511 0.44007 0.82097 0.0
H209 H 0.56855 0.51108 0.80642 0.0
H210 H 0.45904 0.32953 0.72234 0.0
H211 H 0.6808 0.39797 0.73615 0.0
H212 H 0.62496 0.51118 0.77904 0.0
H213 H 0.66992 0.48702 0.75463 0.0
H214 H 0.32265 0.43486 0.7805 0.0
H215 H 0.69163 0.44467 0.739 0.0
H216 H 0.36596 0.28445 0.7516 0.0
N217 N 0.38902 0.39302 0.75931 0.0
C218 C 0.37016 0.37075 0.76424 0.0
C219 C 0.336 0.41668 0.77632 0.0
C220 C 0.33434 0.37055 0.77646 0.0
C221 C 0.37124 0.41586 0.76397 0.0
C222 C 0.31789 0.39391 0.78299 0.0
N223 N 0.4192 0.34922 0.74358 0.0
C224 C 0.43282 0.32813 0.73268 0.0
C225 C 0.36539 0.32484 0.75936 0.0
C226 C 0.38534 0.3482 0.75581 0.0
C227 C 0.38041 0.30278 0.74926 0.0
C228 C 0.41393 0.30451 0.73559 0.0
H229 H 0.29043 0.39459 0.79241 0.0
H230 H 0.28825 0.34659 0.79075 0.0
H231 H 0.31555 0.30652 0.77581 0.0
O232 O 0.46144 0.38596 0.70522 0.0
O233 O 0.46839 0.35734 0.7643 0.0
O234 O 0.48589 0.37779 0.79613 0.0
O235 O 0.40496 0.40001 0.7169 0.0
O236 O 0.50994 0.37166 0.72976 0.0
O237 O 0.54609 0.36129 0.7615 0.0
O238 O 0.57454 0.39854 0.81618 0.0
O239 O 0.54817 0.4102 0.74857 0.0
O240 O 0.48605 0.42619 0.74194 0.0
O241 O 0.57704 0.36329 0.79684 0.0
O242 O 0.4821 0.40963 0.79501 0.0
O243 O 0.45439 0.42474 0.76268 0.0
C244 C 0.46719 0.35928 0.78583 0.0
C245 C 0.42849 0.41582 0.68277 0.0
C246 C 0.42147 0.42856 0.64407 0.0
C247 C 0.43275 0.45357 0.64999 0.0
C248 C 0.43965 0.44084 0.68828 0.0
C249 C 0.44182 0.45959 0.67192 0.0
C250 C 0.41955 0.40974 0.66072 0.0
C251 C 0.53777 0.35855 0.74029 0.0
C252 C 0.42722 0.39572 0.69971 0.0
C253 C 0.31546 0.34716 0.78111 0.0
C254 C 0.33094 0.32435 0.77255 0.0
C255 C 0.52478 0.42718 0.73928 0.0
C256 C 0.6134 0.36319 0.8316 0.0
C257 C 0.63989 0.36115 0.8692 0.0
C258 C 0.66375 0.34031 0.86291 0.0
C259 C 0.63726 0.34221 0.82579 0.0
C260 C 0.61463 0.37255 0.85342 0.0
C261 C 0.6623 0.3309 0.84137 0.0
C262 C 0.45819 0.42527 0.78434 0.0
C263 C 0.58789 0.37528 0.81469 0.0
H264 H 0.43405 0.46862 0.63773 0.0
H265 H 0.44667 0.44582 0.70519 0.0
H266 H 0.45044 0.47888 0.67627 0.0
H267 H 0.41171 0.39023 0.65654 0.0
H268 H 0.68314 0.33102 0.87477 0.0
H269 H 0.63688 0.33468 0.80913 0.0
H270 H 0.59626 0.3887 0.85807 0.0
H271 H 0.68065 0.31477 0.83674 0.0
Eu272 Eu 0.04243 0.89572 0.73823 0.0
C273 C 0.86015 0.87873 0.76695 0.0
N274 N 0.88217 0.90037 0.76945 0.0
C275 C 0.82594 0.92599 0.75919 0.0
C276 C 0.82 0.87995 0.76004 0.0
C277 C 0.86564 0.92383 0.76604 0.0
C278 C 0.80305 0.90395 0.75607 0.0
C279 C 0.85596 0.83242 0.76844 0.0
C280 C 0.87793 0.85522 0.77112 0.0
C281 C 0.81603 0.83358 0.76146 0.0
C282 C 0.79811 0.85726 0.75728 0.0
Eu283 Eu 0.94903 0.89478 0.78053 0.0
N284 N 0.91706 0.85463 0.77715 0.0
C285 C 0.87487 0.80912 0.77275 0.0
C286 C 0.93509 0.83205 0.7823 0.0
C287 C 0.91449 0.80897 0.7799 0.0
H288 H 0.88287 0.9409 0.76904 0.0
H289 H 0.92914 0.79107 0.78368 0.0
H290 H 0.11282 0.85451 0.75462 0.0
H291 H 0.04868 0.99997 0.73059 0.0
H292 H 0.9652 0.83171 0.78837 0.0
H293 H 0.85905 0.79119 0.77084 0.0
H294 H 0.01986 0.95719 0.7255 0.0
H295 H 0.81295 0.94465 0.75644 0.0
H296 H 0.79875 0.81626 0.75924 0.0
H297 H 0.76726 0.85783 0.75193 0.0
H298 H 0.18082 0.85563 0.77042 0.0
H299 H 0.7723 0.90569 0.75076 0.0
H300 H 0.11557 0.00474 0.74738 0.0
N301 N 0.1079 0.8948 0.75238 0.0
C302 C 0.12632 0.91779 0.75483 0.0
C303 C 0.16573 0.87325 0.76625 0.0
C304 C 0.16519 0.91936 0.76367 0.0
C305 C 0.12708 0.87265 0.75756 0.0
C306 C 0.1848 0.89671 0.76945 0.0
N307 N 0.06791 0.93785 0.74099 0.0
C308 C 0.0481 0.95895 0.73368 0.0
C309 C 0.12394 0.96404 0.75176 0.0
C310 C 0.10582 0.93991 0.74897 0.0
C311 C 0.10271 0.98586 0.74548 0.0
C312 C 0.06484 0.98327 0.73613 0.0
H313 H 0.2147 0.89712 0.77627 0.0
H314 H 0.21288 0.94497 0.77348 0.0
H315 H 0.17681 0.98404 0.76307 0.0
O316 O 0.04468 0.90664 0.70342 0.0
O317 O 0.0495 0.91196 0.77298 0.0
O318 O 0.98861 0.92977 0.78027 0.0
O319 O 0.08356 0.8769 0.71543 0.0
O320 O 0.9833 0.91317 0.72775 0.0
O321 O 0.95405 0.93012 0.75899 0.0
O322 O 0.95352 0.88366 0.81522 0.0
O323 O 0.94053 0.87547 0.74717 0.0
O324 O 0.00244 0.86075 0.7363 0.0
O325 O 0.9114 0.91274 0.80567 0.0
O326 O 0.00645 0.87394 0.78994 0.0
O327 O 0.03722 0.85934 0.75808 0.0
C328 C 0.02744 0.92927 0.78276 0.0
C329 C 0.06056 0.87367 0.67865 0.0
C330 C 0.06417 0.86634 0.63881 0.0
C331 C 0.03901 0.84498 0.64139 0.0
C332 C 0.03561 0.85233 0.68077 0.0
C333 C 0.02487 0.83808 0.66224 0.0
C334 C 0.07483 0.88066 0.65766 0.0
C335 C 0.95939 0.92966 0.73742 0.0
C336 C 0.07064 0.88918 0.69814 0.0
C337 C 0.18311 0.94339 0.76662 0.0
C338 C 0.16254 0.96565 0.7607 0.0
C339 C 0.96323 0.8598 0.73579 0.0
C340 C 0.93941 0.91553 0.8414 0.0
C341 C 0.93662 0.92375 0.8811 0.0
C342 C 0.96532 0.94316 0.87843 0.0
C343 C 0.96774 0.93502 0.83915 0.0
C344 C 0.92367 0.91 0.86238 0.0
C345 C 0.98065 0.94877 0.85755 0.0
C346 C 0.02985 0.85775 0.77941 0.0
C347 C 0.92745 0.90033 0.82205 0.0
H348 H 0.03076 0.83331 0.62734 0.0
H349 H 0.02451 0.84674 0.69676 0.0
H350 H 0.00564 0.82157 0.66406 0.0
H351 H 0.09372 0.89738 0.65602 0.0
H352 H 0.97556 0.95421 0.89245 0.0
H353 H 0.97986 0.93941 0.82315 0.0
H354 H 0.90202 0.89473 0.86418 0.0
H355 H 0.00263 0.96378 0.85563 0.0
Eu356 Eu 0.46362 0.61126 0.2385 0.0
C357 C 0.64306 0.62589 0.26968 0.0
N358 N 0.62077 0.60421 0.27109 0.0
C359 C 0.67674 0.57899 0.2598 0.0
C360 C 0.68327 0.62488 0.2629 0.0
C361 C 0.63694 0.58091 0.2665 0.0
C362 C 0.69999 0.60106 0.25794 0.0
C363 C 0.64745 0.67212 0.27263 0.0
C364 C 0.62531 0.64928 0.27449 0.0
C365 C 0.68752 0.67114 0.26592 0.0
C366 C 0.70538 0.64761 0.26109 0.0
Eu367 Eu 0.5541 0.60955 0.2824 0.0
N368 N 0.58598 0.64977 0.28014 0.0
C369 C 0.6285 0.6953 0.27735 0.0
C370 C 0.56785 0.67219 0.28563 0.0
C371 C 0.58863 0.6953 0.28405 0.0
H372 H 0.61932 0.56373 0.26828 0.0
H373 H 0.57395 0.71309 0.28812 0.0
H374 H 0.39871 0.65758 0.25175 0.0
H375 H 0.44251 0.50782 0.23366 0.0
H376 H 0.53754 0.67238 0.29141 0.0
H377 H 0.64446 0.71325 0.27605 0.0
H378 H 0.47909 0.54841 0.22958 0.0
H379 H 0.68949 0.56048 0.25613 0.0
H380 H 0.70494 0.6885 0.26433 0.0
H381 H 0.73629 0.6472 0.25586 0.0
H382 H 0.32906 0.66131 0.26473 0.0
H383 H 0.73079 0.5995 0.25268 0.0
H384 H 0.37253 0.50803 0.24667 0.0
N385 N 0.39717 0.61707 0.25008 0.0
C386 C 0.37483 0.59547 0.25211 0.0
C387 C 0.34164 0.64269 0.26135 0.0
C388 C 0.33486 0.59672 0.25927 0.0
C389 C 0.38117 0.64051 0.25423 0.0
C390 C 0.31841 0.6207 0.26397 0.0
N391 N 0.43132 0.57124 0.24127 0.0
C392 C 0.44903 0.54872 0.23573 0.0
C393 C 0.37001 0.54921 0.24977 0.0
C394 C 0.39223 0.57194 0.2474 0.0
C395 C 0.38858 0.52591 0.24502 0.0
C396 C 0.42814 0.5257 0.23778 0.0
H397 H 0.28781 0.62246 0.26952 0.0
H398 H 0.28196 0.57469 0.26721 0.0
H399 H 0.31272 0.53315 0.25893 0.0
O400 O 0.46573 0.59971 0.20388 0.0
O401 O 0.45292 0.59239 0.27207 0.0
O402 O 0.51337 0.57512 0.28186 0.0
O403 O 0.4269 0.63055 0.21371 0.0
O404 O 0.52183 0.59178 0.2291 0.0
O405 O 0.54777 0.57424 0.26104 0.0
O406 O 0.55184 0.62072 0.31709 0.0
O407 O 0.56519 0.62839 0.24895 0.0
O408 O 0.50487 0.64559 0.23853 0.0
O409 O 0.59047 0.58987 0.30718 0.0
O410 O 0.49603 0.62957 0.29165 0.0
O411 O 0.47065 0.64667 0.25941 0.0
C412 C 0.4743 0.57555 0.28296 0.0
C413 C 0.45432 0.63214 0.17782 0.0
C414 C 0.45145 0.64016 0.13806 0.0
C415 C 0.48075 0.65925 0.14065 0.0
C416 C 0.48359 0.65109 0.17994 0.0
C417 C 0.49668 0.6646 0.16146 0.0
C418 C 0.43834 0.62666 0.15689 0.0
C419 C 0.54358 0.57461 0.23941 0.0
C420 C 0.44129 0.61747 0.19724 0.0
C421 C 0.31269 0.57409 0.26166 0.0
C422 C 0.3302 0.55042 0.25694 0.0
C423 C 0.54404 0.6452 0.23786 0.0
C424 C 0.56285 0.58817 0.34306 0.0
C425 C 0.56589 0.57941 0.38267 0.0
C426 C 0.53438 0.56183 0.38019 0.0
C427 C 0.53138 0.57073 0.34105 0.0
C428 C 0.58021 0.59244 0.36387 0.0
C429 C 0.51734 0.55752 0.35949 0.0
C430 C 0.47386 0.64635 0.28105 0.0
C431 C 0.57616 0.60288 0.3237 0.0
H432 H 0.49101 0.67031 0.12664 0.0
H433 H 0.49627 0.65531 0.19588 0.0
H434 H 0.51921 0.67931 0.16327 0.0
H435 H 0.4162 0.61166 0.15527 0.0
H436 H 0.52305 0.5513 0.39427 0.0
H437 H 0.51755 0.56762 0.32524 0.0
H438 H 0.60406 0.60633 0.3655 0.0
H439 H 0.493 0.54404 0.35775 0.0
C440 C 0.15182 0.88625 0.3796 0.0
C441 C 0.18279 0.88938 0.39496 0.0
C442 C 0.1345 0.90748 0.3695 0.0
C443 C 0.11623 0.97561 0.37131 0.0
H444 H 0.13398 0.97373 0.30802 0.0
C445 C 0.08153 0.06293 0.31633 0.0
C446 C 0.06676 0.05837 0.29501 0.0
C447 C 0.09622 0.04282 0.32914 0.0
C448 C 0.12803 0.97449 0.32557 0.0
H449 H 0.21756 0.91685 0.41343 0.0
H450 H 0.18603 0.95438 0.3963 0.0
H451 H 0.15408 0.93763 0.33074 0.0
H452 H 0.0557 0.0295 0.27019 0.0
H453 H 0.07967 0.99414 0.29273 0.0
H454 H 0.08877 0.01197 0.36622 0.0
C455 C 0.17573 0.93544 0.39183 0.0
C456 C 0.1398 0.95382 0.33859 0.0
C457 C 0.19356 0.9141 0.40169 0.0
C458 C 0.06751 0.03349 0.2865 0.0
C459 C 0.08136 0.01326 0.29947 0.0
C460 C 0.10362 0.99613 0.35822 0.0
C461 C 0.14728 0.93221 0.37499 0.0
C462 C 0.13401 0.95419 0.36154 0.0
C463 C 0.09569 0.0176 0.32106 0.0
C464 C 0.1094 0.99588 0.33514 0.0
H465 H 0.14276 0.8673 0.37447 0.0
H466 H 0.11225 0.90456 0.35676 0.0
H467 H 0.11143 0.97624 0.389 0.0
H468 H 0.08141 0.08207 0.32315 0.0
H469 H 0.10787 0.04712 0.3454 0.0
C470 C 0.34729 0.61626 0.87999 0.0
C471 C 0.31766 0.61351 0.89617 0.0
C472 C 0.36446 0.59481 0.87027 0.0
C473 C 0.38551 0.52729 0.8734 0.0
H474 H 0.36306 0.52711 0.81051 0.0
C475 C 0.42449 0.44044 0.81859 0.0
C476 C 0.43801 0.44542 0.79709 0.0
C477 C 0.40855 0.46006 0.8315 0.0
C478 C 0.37025 0.52693 0.82794 0.0
H479 H 0.28504 0.58661 0.91635 0.0
H480 H 0.31627 0.54859 0.89971 0.0
H481 H 0.34187 0.56306 0.83306 0.0
H482 H 0.4455 0.47453 0.77205 0.0
H483 H 0.41921 0.50904 0.79472 0.0
H484 H 0.41538 0.4917 0.86827 0.0
C485 C 0.3257 0.56742 0.89441 0.0
C486 C 0.35783 0.54749 0.84087 0.0
C487 C 0.30806 0.58903 0.90398 0.0
C488 C 0.43474 0.47019 0.78851 0.0
C489 C 0.41954 0.48993 0.80154 0.0
C490 C 0.39869 0.50686 0.86037 0.0
C491 C 0.35275 0.57022 0.87683 0.0
C492 C 0.36553 0.54792 0.86365 0.0
C493 C 0.40644 0.48519 0.8233 0.0
C494 C 0.39139 0.50647 0.83742 0.0
H495 H 0.35519 0.63506 0.87392 0.0
H496 H 0.38559 0.5974 0.85691 0.0
H497 H 0.3918 0.52729 0.89095 0.0
H498 H 0.42653 0.42138 0.82548 0.0
H499 H 0.398 0.45547 0.84792 0.0
C500 C 0.64825 0.61184 0.63525 0.0
C501 C 0.68434 0.60756 0.62424 0.0
C502 C 0.62765 0.59154 0.64496 0.0
C503 C 0.62326 0.5204 0.64955 0.0
H504 H 0.58131 0.5361 0.70768 0.0
C505 C 0.5779 0.44311 0.71366 0.0
C506 C 0.54185 0.44717 0.72492 0.0
C507 C 0.59387 0.46215 0.70005 0.0
C508 C 0.59249 0.53146 0.69138 0.0
H509 H 0.72672 0.57908 0.61372 0.0
H510 H 0.69132 0.54331 0.63106 0.0
H511 H 0.61029 0.56999 0.68539 0.0
H512 H 0.49404 0.47417 0.73073 0.0
H513 H 0.52179 0.5074 0.70693 0.0
H514 H 0.60622 0.48158 0.65604 0.0
C515 C 0.67829 0.56219 0.63193 0.0
C516 C 0.60896 0.55092 0.6785 0.0
C517 C 0.69861 0.58256 0.62199 0.0
C518 C 0.52189 0.47053 0.72222 0.0
C519 C 0.5379 0.48959 0.70872 0.0
C520 C 0.60702 0.50085 0.66255 0.0
C521 C 0.64317 0.56656 0.64415 0.0
C522 C 0.62448 0.54571 0.65738 0.0
C523 C 0.5741 0.48564 0.69752 0.0
C524 C 0.5914 0.50621 0.68359 0.0
H525 H 0.63693 0.63109 0.63705 0.0
H526 H 0.60019 0.59556 0.6537 0.0
H527 H 0.63458 0.5157 0.6333 0.0
H528 H 0.59358 0.42513 0.71521 0.0
H529 H 0.62196 0.45863 0.69176 0.0
C530 C 0.80819 0.92097 0.12156 0.0
C531 C 0.82396 0.89632 0.12359 0.0
C532 C 0.82751 0.94174 0.1315 0.0
C533 C 0.89655 0.95407 0.17797 0.0
H534 H 0.89603 0.02366 0.15602 0.0
C535 C 0.98221 0.03502 0.22148 0.0
C536 C 0.96219 0.05834 0.22424 0.0
C537 C 0.96602 0.01588 0.20816 0.0
C538 C 0.89609 0.00432 0.1624 0.0
H539 H 0.87299 0.87385 0.136 0.0
H540 H 0.90799 0.91011 0.15261 0.0
H541 H 0.86883 0.98928 0.13311 0.0
H542 H 0.90989 0.08013 0.215 0.0
H543 H 0.88113 0.04642 0.19186 0.0
H544 H 0.92388 0.96903 0.20717 0.0
C545 C 0.88015 0.91354 0.14402 0.0
C546 C 0.88055 0.98462 0.14929 0.0
C547 C 0.86057 0.89284 0.13432 0.0
C548 C 0.92569 0.06221 0.21335 0.0
C549 C 0.90949 0.04305 0.19993 0.0
C550 C 0.91227 0.97367 0.19096 0.0
C551 C 0.86309 0.93811 0.14351 0.0
C552 C 0.88066 0.95921 0.15691 0.0
C553 C 0.92948 0.01965 0.19724 0.0
C554 C 0.91226 0.99901 0.18334 0.0
H555 H 0.77964 0.92382 0.11354 0.0
H556 H 0.81334 0.9603 0.13085 0.0
H557 H 0.89618 0.93489 0.18469 0.0
H558 H 0.01037 0.03149 0.22974 0.0
H559 H 0.98233 0.99816 0.20625 0.0
C560 C 0.85822 0.11394 0.62904 0.0
C561 C 0.82025 0.11323 0.61936 0.0
C562 C 0.87423 0.09202 0.63878 0.0
C563 C 0.84075 0.03656 0.66886 0.0
H564 H 0.94918 0.01184 0.66254 0.0
C565 C 0.92071 0.97051 0.73222 0.0
C566 C 0.94006 0.94912 0.72317 0.0
C567 C 0.90474 0.98938 0.71841 0.0
C568 C 0.91878 0.01853 0.6644 0.0
H569 H 0.76955 0.08948 0.61145 0.0
H570 H 0.79727 0.05088 0.62876 0.0
H571 H 0.9252 0.04633 0.63859 0.0
H572 H 0.95754 0.93082 0.69243 0.0
H573 H 0.93061 0.964 0.66859 0.0
H574 H 0.83469 0.00926 0.6951 0.0
C575 C 0.81484 0.06826 0.62863 0.0
C576 C 0.90516 0.03823 0.65076 0.0
C577 C 0.79921 0.09011 0.61855 0.0
C578 C 0.94289 0.94702 0.70004 0.0
C579 C 0.92759 0.96604 0.68632 0.0
C580 C 0.8546 0.01718 0.68277 0.0
C581 C 0.85202 0.06923 0.63936 0.0
C582 C 0.866 0.0474 0.65285 0.0
C583 C 0.90857 0.98745 0.69535 0.0
C584 C 0.89374 0.00799 0.68066 0.0
H585 H 0.87437 0.13184 0.6301 0.0
H586 H 0.90282 0.09332 0.64707 0.0
H587 H 0.81057 0.04354 0.67099 0.0
H588 H 0.91877 0.97304 0.74992 0.0
H589 H 0.89049 0.00588 0.72576 0.0
C590 C 0.64109 0.38535 0.1362 0.0
C591 C 0.67359 0.38799 0.12178 0.0
C592 C 0.62471 0.40675 0.14649 0.0
C593 C 0.60613 0.47334 0.14733 0.0
H594 H 0.63607 0.47277 0.20926 0.0
C595 C 0.57232 0.5593 0.20385 0.0
C596 C 0.56208 0.55438 0.22592 0.0
C597 C 0.58688 0.53979 0.19036 0.0
C598 C 0.62679 0.47314 0.19214 0.0
H599 H 0.7122 0.41493 0.10514 0.0
H600 H 0.68228 0.45283 0.12258 0.0
H601 H 0.65535 0.43734 0.18546 0.0
H602 H 0.5591 0.52533 0.25131 0.0
H603 H 0.58284 0.49093 0.22764 0.0
H604 H 0.57598 0.50845 0.15396 0.0
C605 C 0.67007 0.43409 0.12613 0.0
C606 C 0.63816 0.45292 0.1785 0.0
C607 C 0.68693 0.41256 0.11608 0.0
C608 C 0.56724 0.52967 0.23441 0.0
C609 C 0.581 0.50999 0.22078 0.0
C610 C 0.59398 0.49338 0.16106 0.0
C611 C 0.63999 0.43116 0.14207 0.0
C612 C 0.6279 0.45287 0.15605 0.0
C613 C 0.59075 0.51472 0.19849 0.0
C614 C 0.60415 0.49357 0.1837 0.0
H615 H 0.63023 0.36654 0.14061 0.0
H616 H 0.60137 0.40415 0.15867 0.0
H617 H 0.59784 0.47354 0.13003 0.0
H618 H 0.56896 0.57828 0.19695 0.0
H619 H 0.59501 0.54445 0.17353 0.0
C620 C 0.3481 0.40132 0.39793 0.0
C621 C 0.30667 0.40055 0.40086 0.0
C622 C 0.36604 0.42236 0.38767 0.0
C623 C 0.33982 0.47416 0.34861 0.0
H624 H 0.44766 0.49719 0.36064 0.0
C625 C 0.41406 0.55959 0.30332 0.0
C626 C 0.45356 0.55585 0.29626 0.0
C627 C 0.39533 0.54157 0.31689 0.0
C628 C 0.41757 0.49083 0.35703 0.0
H629 H 0.2516 0.4214 0.39701 0.0
H630 H 0.28277 0.45875 0.37982 0.0
H631 H 0.41676 0.46543 0.38475 0.0
H632 H 0.50378 0.52976 0.29709 0.0
H633 H 0.47131 0.49857 0.32108 0.0
H634 H 0.34071 0.49968 0.32093 0.0
C635 C 0.30151 0.44289 0.38473 0.0
C636 C 0.39985 0.47262 0.37083 0.0
C637 C 0.28365 0.42174 0.39478 0.0
C638 C 0.47352 0.53339 0.30254 0.0
C639 C 0.45501 0.51557 0.31633 0.0
C640 C 0.35741 0.49252 0.33495 0.0
C641 C 0.34277 0.4431 0.38031 0.0
C642 C 0.36086 0.46384 0.36668 0.0
C643 C 0.41586 0.51958 0.32383 0.0
C644 C 0.39662 0.50084 0.33886 0.0
H645 H 0.36615 0.38494 0.40232 0.0
H646 H 0.39778 0.42167 0.38441 0.0
H647 H 0.31009 0.46753 0.34457 0.0
H648 H 0.39786 0.57669 0.29877 0.0
H649 H 0.36512 0.54518 0.32242 0.0
C650 C 0.15016 0.10593 0.89619 0.0
C651 C 0.19144 0.10622 0.89968 0.0
C652 C 0.13198 0.08477 0.88624 0.0
C653 C 0.15875 0.03142 0.84892 0.0
H654 H 0.04945 0.01021 0.85923 0.0
C655 C 0.08544 0.94495 0.80507 0.0
C656 C 0.04709 0.94908 0.79639 0.0
C657 C 0.10342 0.96327 0.81861 0.0
C658 C 0.07997 0.01606 0.85613 0.0
H659 H 0.24604 0.08471 0.89697 0.0
H660 H 0.2144 0.04706 0.88058 0.0
H661 H 0.0798 0.04241 0.88317 0.0
H662 H 0.99808 0.97599 0.79446 0.0
H663 H 0.02918 0.00776 0.81853 0.0
H664 H 0.15888 0.00489 0.82198 0.0
C665 C 0.19594 0.0633 0.8848 0.0
C666 C 0.09736 0.03451 0.86981 0.0
C667 C 0.21405 0.08459 0.89445 0.0
C668 C 0.02743 0.97212 0.80116 0.0
C669 C 0.04515 0.99026 0.81497 0.0
C670 C 0.1415 0.0128 0.83542 0.0
C671 C 0.15491 0.06349 0.87977 0.0
C672 C 0.13692 0.0426 0.86628 0.0
C673 C 0.08322 0.98594 0.82394 0.0
C674 C 0.10183 0.00511 0.83875 0.0
H675 H 0.13253 0.12272 0.89986 0.0
H676 H 0.10044 0.08577 0.88248 0.0
H677 H 0.18893 0.03753 0.8453 0.0
H678 H 0.10131 0.92736 0.80174 0.0
H679 H 0.13279 0.95944 0.82531 0.0
C680 C 0.16561 0.14913 0.95556 0.0
C681 C 0.19195 0.13321 0.94401 0.0
C682 C 0.15086 0.14185 0.97621 0.0
C683 C 0.13751 0.08665 0.01393 0.0
H684 H 0.13875 0.13895 0.05929 0.0
C685 C 0.11621 0.06349 0.10676 0.0
C686 C 0.09381 0.08071 0.11954 0.0
C687 C 0.1264 0.06935 0.08493 0.0
C688 C 0.13765 0.12418 0.04678 0.0
H689 H 0.22269 0.09696 0.94442 0.0
H690 H 0.19683 0.08395 0.98059 0.0
H691 H 0.15854 0.14975 0.02177 0.0
H692 H 0.06368 0.11734 0.11913 0.0
H693 H 0.08129 0.12754 0.08108 0.0
H694 H 0.11675 0.06104 0.03905 0.0
C695 C 0.18729 0.10202 0.97368 0.0
C696 C 0.14901 0.13038 0.02523 0.0
C697 C 0.20207 0.10938 0.953 0.0
C698 C 0.08154 0.10384 0.10988 0.0
C699 C 0.09165 0.10968 0.08805 0.0
C700 C 0.12604 0.08044 0.03552 0.0
C701 C 0.16213 0.11842 0.98573 0.0
C702 C 0.14912 0.11171 1.00853 0.0
C703 C 0.11438 0.09257 0.07531 0.0
C704 C 0.12603 0.09913 0.05223 0.0
H705 H 0.15709 0.16745 0.94873 0.0
H706 H 0.13092 0.1547 0.98482 0.0
H707 H 0.13684 0.07188 1.00141 0.0
H708 H 0.12659 0.04566 0.11378 0.0
H709 H 0.14444 0.0559 0.07574 0.0
C710 C 0.34339 0.35708 0.45489 0.0
C711 C 0.31451 0.37234 0.44455 0.0
C712 C 0.3591 0.36407 0.47542 0.0
C713 C 0.3697 0.41783 0.51493 0.0
H714 H 0.37344 0.36374 0.55871 0.0
C715 C 0.43345 0.43294 0.60312 0.0
C716 C 0.4116 0.42218 0.62067 0.0
C717 C 0.42383 0.42718 0.58117 0.0
C718 C 0.37244 0.37909 0.54671 0.0
H719 H 0.28064 0.40733 0.44686 0.0
H720 H 0.3083 0.41987 0.48272 0.0
H721 H 0.35385 0.35383 0.52088 0.0
H722 H 0.36207 0.39711 0.6287 0.0
H723 H 0.34566 0.38687 0.5905 0.0
H724 H 0.38756 0.44316 0.54095 0.0
C725 C 0.31895 0.4025 0.475 0.0
C726 C 0.36167 0.37335 0.52495 0.0
C727 C 0.30314 0.39541 0.45449 0.0
C728 C 0.38001 0.40541 0.61567 0.0
C729 C 0.37054 0.39956 0.59374 0.0
C730 C 0.38074 0.42354 0.5367 0.0
C731 C 0.3464 0.38659 0.48597 0.0
C732 C 0.3599 0.39267 0.50882 0.0
C733 C 0.39228 0.4104 0.57622 0.0
C734 C 0.3819 0.40426 0.55289 0.0
H735 H 0.35303 0.33942 0.44729 0.0
H736 H 0.38077 0.35165 0.48321 0.0
H737 H 0.36887 0.43312 0.50288 0.0
H738 H 0.45838 0.4456 0.60631 0.0
H739 H 0.44151 0.43559 0.56807 0.0
C740 C 0.65635 0.37108 0.06997 0.0
C741 C 0.69695 0.37036 0.07552 0.0
C742 C 0.64446 0.37745 0.04847 0.0
C743 C 0.68211 0.40288 0.99444 0.0
H744 H 0.6044 0.35599 0.96967 0.0
C745 C 0.67832 0.37436 0.90278 0.0
C746 C 0.64135 0.37041 0.89237 0.0
C747 C 0.68022 0.38033 0.92524 0.0
C748 C 0.62558 0.36959 0.97637 0.0
H749 H 0.75678 0.37752 0.06383 0.0
H750 H 0.73658 0.38811 0.02624 0.0
H751 H 0.61626 0.35622 1.00933 0.0
H752 H 0.5773 0.37044 0.89711 0.0
H753 H 0.58059 0.3807 0.93661 0.0
H754 H 0.69276 0.41526 0.9612 0.0
C755 C 0.71359 0.38402 0.03829 0.0
C756 C 0.63237 0.36978 0.99917 0.0
C757 C 0.72532 0.37774 0.05975 0.0
C758 C 0.60618 0.37349 0.90471 0.0
C759 C 0.60809 0.37918 0.92731 0.0
C760 C 0.67552 0.40254 0.97161 0.0
C761 C 0.67307 0.38322 0.03215 0.0
C762 C 0.6615 0.38595 1.00846 0.0
C763 C 0.64519 0.38227 0.93789 0.0
C764 C 0.64792 0.38543 0.96227 0.0
H765 H 0.63403 0.36541 0.08194 0.0
H766 H 0.61298 0.37706 0.04446 0.0
H767 H 0.70415 0.41597 1.00102 0.0
H768 H 0.70589 0.37226 0.89362 0.0
H769 H 0.70927 0.38234 0.93291 0.0
C770 C 0.84213 0.13434 0.56917 0.0
C771 C 0.80119 0.13487 0.57388 0.0
C772 C 0.8554 0.12983 0.54761 0.0
C773 C 0.82038 0.13863 0.49066 0.0
H774 H 0.91875 0.10412 0.47523 0.0
C775 C 0.87819 0.13755 0.40093 0.0
C776 C 0.91912 0.14256 0.39816 0.0
C777 C 0.86264 0.13216 0.42187 0.0
C778 C 0.8913 0.11395 0.47929 0.0
H779 H 0.74208 0.12918 0.56051 0.0
H780 H 0.76502 0.12105 0.52275 0.0
H781 H 0.89364 0.10165 0.51306 0.0
H782 H 0.97604 0.14459 0.41516 0.0
H783 H 0.94885 0.13587 0.45166 0.0
H784 H 0.8185 0.15158 0.45719 0.0
C785 C 0.78696 0.12464 0.53553 0.0
C786 C 0.87689 0.11249 0.50096 0.0
C787 C 0.77379 0.12914 0.55708 0.0
C788 C 0.94427 0.14124 0.41673 0.0
C789 C 0.92874 0.13588 0.43766 0.0
C790 C 0.8348 0.14013 0.46905 0.0
C791 C 0.82788 0.12577 0.53038 0.0
C792 C 0.8415 0.1251 0.50697 0.0
C793 C 0.88763 0.13163 0.44056 0.0
C794 C 0.87074 0.12812 0.46314 0.0
H795 H 0.86367 0.13897 0.58189 0.0
H796 H 0.88708 0.13104 0.54423 0.0
H797 H 0.79343 0.14899 0.49477 0.0
H798 H 0.85792 0.13853 0.38701 0.0
H799 H 0.83091 0.12866 0.42345 0.0
C800 C 0.77453 0.88469 0.06068 0.0
C801 C 0.80154 0.87818 0.07748 0.0
C802 C 0.78832 0.89153 0.0397 0.0
C803 C 0.87682 0.91371 1.00882 0.0
H804 H 0.82692 0.87924 0.95927 0.0
C805 C 0.94625 0.91634 0.92171 0.0
C806 C 0.9205 0.91802 0.90344 0.0
C807 C 0.93114 0.91204 0.9429 0.0
C808 C 0.84086 0.88936 0.97283 0.0
H809 H 0.86396 0.87453 0.08591 0.0
H810 H 0.88836 0.88708 0.04936 0.0
H811 H 0.80131 0.87243 0.99647 0.0
H812 H 0.85868 0.91646 0.89306 0.0
H813 H 0.83209 0.9094 0.93011 0.0
H814 H 0.91615 0.93085 0.98527 0.0
C815 C 0.8565 0.88689 0.05236 0.0
C816 C 0.82616 0.88542 0.99418 0.0
C817 C 0.84263 0.87982 0.07328 0.0
C818 C 0.87929 0.91499 0.9068 0.0
C819 C 0.8641 0.91091 0.92805 0.0
C820 C 0.89132 0.91784 0.98745 0.0
C821 C 0.82947 0.89227 0.03519 0.0
C822 C 0.84412 0.89743 0.01244 0.0
C823 C 0.88982 0.90952 0.94642 0.0
C824 C 0.87373 0.90557 0.96916 0.0
H825 H 0.74272 0.88388 0.0637 0.0
H826 H 0.76678 0.89597 0.02692 0.0
H827 H 0.89101 0.92345 0.02253 0.0
H828 H 0.97822 0.91821 0.91959 0.0
H829 H 0.95198 0.9105 0.95651 0.0
C830 C 0.66592 0.62325 0.57369 0.0
C831 C 0.7071 0.62414 0.5778 0.0
C832 C 0.65154 0.61593 0.55294 0.0
C833 C 0.68163 0.61512 0.49471 0.0
H834 H 0.58839 0.57217 0.48687 0.0
C835 C 0.62463 0.58559 0.40802 0.0
C836 C 0.58312 0.58428 0.40491 0.0
C837 C 0.64065 0.58931 0.42915 0.0
C838 C 0.61419 0.58446 0.48875 0.0
H839 H 0.76549 0.61687 0.56407 0.0
H840 H 0.74055 0.60426 0.5276 0.0
H841 H 0.61454 0.57966 0.52391 0.0
H842 H 0.52586 0.58674 0.4214 0.0
H843 H 0.55361 0.59368 0.45808 0.0
H844 H 0.68087 0.62047 0.45968 0.0
C845 C 0.71934 0.6095 0.5403 0.0
C846 C 0.62924 0.58865 0.51 0.0
C847 C 0.73363 0.61662 0.56111 0.0
C848 C 0.558 0.58721 0.42331 0.0
C849 C 0.57395 0.5911 0.44438 0.0
C850 C 0.66643 0.61109 0.47347 0.0
C851 C 0.67814 0.60952 0.53586 0.0
C852 C 0.66305 0.6041 0.51323 0.0
C853 C 0.6155 0.592 0.44763 0.0
C854 C 0.63236 0.5958 0.47021 0.0
H855 H 0.64497 0.62931 0.58624 0.0
H856 H 0.61966 0.61635 0.54999 0.0
H857 H 0.70737 0.62746 0.49668 0.0
H858 H 0.64476 0.58315 0.3942 0.0
H859 H 0.67278 0.58958 0.43103 0.0
C860 C 0.27801 0.62955 0.9598 0.0
C861 C 0.3032 0.63557 0.94207 0.0
C862 C 0.2938 0.625 0.98078 0.0
C863 C 0.38726 0.61255 0.01208 0.0
H864 H 0.33195 0.64914 0.05856 0.0
C865 C 0.45891 0.63489 0.09695 0.0
C866 C 0.4344 0.63473 0.11582 0.0
C867 C 0.4426 0.6314 0.0759 0.0
C868 C 0.34745 0.63841 0.04591 0.0
H869 H 0.36443 0.64032 0.93177 0.0
H870 H 0.39253 0.63242 0.96859 0.0
H871 H 0.30433 0.64862 0.02147 0.0
H872 H 0.3735 0.6301 0.12726 0.0
H873 H 0.34519 0.62343 0.09062 0.0
H874 H 0.43078 0.60272 0.0366 0.0
C875 C 0.36055 0.631 0.96632 0.0
C876 C 0.33158 0.63811 0.02459 0.0
C877 C 0.34462 0.6355 0.94527 0.0
C878 C 0.39331 0.6302 0.11314 0.0
C879 C 0.37701 0.62667 0.09208 0.0
C880 C 0.40315 0.61281 0.03348 0.0
C881 C 0.33519 0.62646 0.98446 0.0
C882 C 0.35137 0.62533 1.00735 0.0
C883 C 0.40135 0.6276 0.07316 0.0
C884 C 0.38358 0.62593 0.05064 0.0
H885 H 0.24596 0.62933 0.95751 0.0
H886 H 0.27348 0.62102 0.99426 0.0
H887 H 0.40305 0.60233 0.99923 0.0
H888 H 0.49078 0.63792 0.09842 0.0
H889 H 0.46223 0.63244 0.06173 0.0
C890 C 0.16104 0.87023 0.44575 0.0
C891 C 0.20215 0.87123 0.44158 0.0
C892 C 0.14632 0.87571 0.46686 0.0
C893 C 0.17996 0.87347 0.52467 0.0
H894 H 0.07725 0.90434 0.5369 0.0
C895 C 0.11975 0.88037 0.61361 0.0
C896 C 0.07966 0.87318 0.61652 0.0
C897 C 0.13505 0.88471 0.59243 0.0
C898 C 0.10594 0.89557 0.53374 0.0
H899 H 0.25987 0.88048 0.45528 0.0
H900 H 0.23439 0.89048 0.49217 0.0
H901 H 0.10328 0.90447 0.49919 0.0
H902 H 0.02373 0.86624 0.59949 0.0
H903 H 0.05054 0.87323 0.5626 0.0
H904 H 0.18232 0.86395 0.55897 0.0
C905 C 0.21347 0.8849 0.4794 0.0
C906 C 0.12085 0.89566 0.51213 0.0
C907 C 0.22809 0.87936 0.45834 0.0
C908 C 0.0549 0.87136 0.59782 0.0
C909 C 0.07017 0.8757 0.57666 0.0
C910 C 0.16508 0.87336 0.54621 0.0
C911 C 0.17255 0.88234 0.48413 0.0
C912 C 0.15786 0.88434 0.50729 0.0
C913 C 0.11061 0.88199 0.57365 0.0
C914 C 0.12766 0.88411 0.551 0.0
H915 H 0.14066 0.86379 0.43303 0.0
H916 H 0.11469 0.87336 0.46992 0.0
H917 H 0.2082 0.86412 0.52151 0.0
H918 H 0.1397 0.88183 0.62763 0.0
H919 H 0.16621 0.88985 0.59074 0.0
C920 C 0.19116 0.32298 0.39003 0.0
C921 C 0.23198 0.3196 0.3939 0.0
C922 C 0.16881 0.30368 0.37992 0.0
C923 C 0.13335 0.26788 0.34618 0.0
H924 H 0.15949 0.19634 0.3539 0.0
C925 C 0.06747 0.19039 0.2893 0.0
C926 C 0.05971 0.16609 0.29807 0.0
C927 C 0.08748 0.2088 0.30179 0.0
C928 C 0.15134 0.21619 0.35174 0.0
H929 H 0.28193 0.29396 0.39053 0.0
H930 H 0.24357 0.26037 0.37201 0.0
H931 H 0.19509 0.22846 0.37518 0.0
H932 H 0.06498 0.14237 0.32728 0.0
H933 H 0.09821 0.17487 0.34953 0.0
H934 H 0.0885 0.2556 0.32346 0.0
C935 C 0.22816 0.27746 0.37732 0.0
C936 C 0.17228 0.23472 0.36373 0.0
C937 C 0.25027 0.29665 0.38778 0.0
C938 C 0.07095 0.16087 0.31996 0.0
C939 C 0.0904 0.17944 0.33264 0.0
C940 C 0.11206 0.24936 0.33444 0.0
C941 C 0.18711 0.28078 0.37308 0.0
C942 C 0.16382 0.26086 0.36098 0.0
C943 C 0.09931 0.2036 0.32365 0.0
C944 C 0.12101 0.22326 0.33687 0.0
H945 H 0.17673 0.34065 0.39476 0.0
H946 H 0.1372 0.3068 0.37743 0.0
H947 H 0.12625 0.28778 0.34328 0.0
H948 H 0.0581 0.19522 0.27273 0.0
H949 H 0.09412 0.22701 0.29413 0.0
C950 C 0.25711 0.2116 0.89259 0.0
C951 C 0.26897 0.18602 0.89056 0.0
C952 C 0.27903 0.23105 0.88237 0.0
C953 C 0.37745 0.24403 0.85554 0.0
H954 H 0.32135 0.30204 0.83057 0.0
C955 C 0.44755 0.31416 0.79286 0.0
C956 C 0.4452 0.34005 0.79866 0.0
C957 C 0.42603 0.29587 0.80471 0.0
C958 C 0.33732 0.286 0.83762 0.0
H959 H 0.31321 0.16063 0.87677 0.0
H960 H 0.35043 0.19418 0.85795 0.0
H961 H 0.28391 0.26899 0.85015 0.0
H962 H 0.41822 0.36745 0.82086 0.0
H963 H 0.37961 0.33534 0.84139 0.0
H964 H 0.43062 0.26073 0.84214 0.0
C965 C 0.32488 0.19955 0.86784 0.0
C966 C 0.316 0.26711 0.84896 0.0
C967 C 0.3033 0.18022 0.87834 0.0
C968 C 0.42075 0.34749 0.81632 0.0
C969 C 0.39851 0.32924 0.82788 0.0
C970 C 0.39859 0.26267 0.84389 0.0
C971 C 0.31304 0.22527 0.86965 0.0
C972 C 0.33577 0.24581 0.85805 0.0
C973 C 0.40125 0.30326 0.82227 0.0
C974 C 0.37872 0.28378 0.83483 0.0
H975 H 0.23053 0.21647 0.90181 0.0
H976 H 0.26929 0.25061 0.88449 0.0
H977 H 0.39394 0.22829 0.86269 0.0
H978 H 0.46621 0.30807 0.77924 0.0
H979 H 0.42834 0.27596 0.79998 0.0
C980 C 0.69778 0.19138 0.62879 0.0
C981 C 0.73944 0.19073 0.63041 0.0
C982 C 0.67604 0.20995 0.64016 0.0
C983 C 0.68553 0.25585 0.68681 0.0
H984 H 0.58762 0.28315 0.6623 0.0
C985 C 0.58099 0.31967 0.73837 0.0
C986 C 0.56081 0.33956 0.72755 0.0
C987 C 0.60253 0.30161 0.72629 0.0
C988 C 0.61515 0.276 0.66932 0.0
H989 H 0.79152 0.20886 0.64436 0.0
H990 H 0.75399 0.24214 0.66363 0.0
H991 H 0.62642 0.25273 0.64101 0.0
H992 H 0.54795 0.35644 0.69562 0.0
H993 H 0.58664 0.32558 0.67461 0.0
H994 H 0.67526 0.27996 0.71467 0.0
C995 C 0.7377 0.22796 0.65422 0.0
C996 C 0.63714 0.25818 0.65721 0.0
C997 C 0.75929 0.20915 0.64308 0.0
C998 C 0.56287 0.34117 0.70442 0.0
C999 C 0.5849 0.32335 0.69236 0.0
C1000 C 0.66384 0.27391 0.69877 0.0
C1001 C 0.69571 0.22843 0.65315 0.0
C1002 C 0.67257 0.24778 0.66583 0.0
C1003 C 0.60492 0.30326 0.70312 0.0
C1004 C 0.62824 0.28416 0.69025 0.0
H1005 H 0.68215 0.17707 0.61918 0.0
H1006 H 0.64379 0.20939 0.63919 0.0
H1007 H 0.71228 0.24801 0.69419 0.0
H1008 H 0.57969 0.31779 0.75618 0.0
H1009 H 0.61685 0.28617 0.73515 0.0
C1010 C 0.80231 0.31268 0.12828 0.0
C1011 C 0.76065 0.31248 0.13 0.0
C1012 C 0.82507 0.29437 0.13941 0.0
C1013 C 0.81806 0.24813 0.18594 0.0
H1014 H 0.91725 0.22281 0.16148 0.0
C1015 C 0.92544 0.18605 0.23749 0.0
C1016 C 0.94608 0.16637 0.22666 0.0
C1017 C 0.90332 0.20387 0.22543 0.0
C1018 C 0.8894 0.22942 0.16849 0.0
H1019 H 0.70963 0.29301 0.14378 0.0
H1020 H 0.74895 0.26022 0.1626 0.0
H1021 H 0.87698 0.25253 0.14018 0.0
H1022 H 0.95925 0.14975 0.19467 0.0
H1023 H 0.91971 0.18022 0.17373 0.0
H1024 H 0.82956 0.22422 0.21382 0.0
C1025 C 0.76445 0.27485 0.15331 0.0
C1026 C 0.86654 0.24681 0.15637 0.0
C1027 C 0.74185 0.29338 0.14242 0.0
C1028 C 0.94399 0.16483 0.20352 0.0
C1029 C 0.92145 0.18244 0.19148 0.0
C1030 C 0.84066 0.23051 0.19792 0.0
C1031 C 0.80643 0.27533 0.15226 0.0
C1032 C 0.83059 0.25646 0.16495 0.0
C1033 C 0.90085 0.20224 0.20226 0.0
C1034 C 0.87671 0.22097 0.18941 0.0
H1035 H 0.81716 0.32752 0.1189 0.0
H1036 H 0.85726 0.29562 0.13844 0.0
H1037 H 0.79093 0.2554 0.1933 0.0
H1038 H 0.9267 0.18788 0.2553 0.0
H1039 H 0.88852 0.2191 0.23431 0.0
C1040 C 0.81551 0.68202 0.62993 0.0
C1041 C 0.77374 0.68223 0.63108 0.0
C1042 C 0.83773 0.70137 0.64011 0.0
C1043 C 0.83233 0.76749 0.65912 0.0
H1044 H 0.91543 0.74864 0.70061 0.0
C1045 C 0.90276 0.8418 0.71722 0.0
C1046 C 0.94329 0.8395 0.7228 0.0
C1047 C 0.88337 0.82255 0.70542 0.0
C1048 C 0.89286 0.75433 0.68879 0.0
H1049 H 0.72208 0.70253 0.64307 0.0
H1050 H 0.76081 0.7369 0.66052 0.0
H1051 H 0.87986 0.71543 0.68027 0.0
H1052 H 0.99513 0.81492 0.72059 0.0
H1053 H 0.96207 0.78201 0.69876 0.0
H1054 H 0.84559 0.80632 0.66709 0.0
C1055 C 0.77644 0.72178 0.65192 0.0
C1056 C 0.87241 0.73525 0.67722 0.0
C1057 C 0.75434 0.70222 0.64207 0.0
C1058 C 0.96405 0.81749 0.71622 0.0
C1059 C 0.94486 0.79841 0.704 0.0
C1060 C 0.85317 0.78659 0.6704 0.0
C1061 C 0.81836 0.72141 0.65122 0.0
C1062 C 0.84164 0.74165 0.66249 0.0
C1063 C 0.9042 0.80066 0.69845 0.0
C1064 C 0.88337 0.78028 0.68564 0.0
H1065 H 0.83078 0.66661 0.62155 0.0
H1066 H 0.87 0.70075 0.63925 0.0
H1067 H 0.80901 0.77293 0.64764 0.0
H1068 H 0.88583 0.85852 0.722 0.0
H1069 H 0.85187 0.82478 0.70198 0.0
C1070 C 0.75774 0.80113 0.14356 0.0
C1071 C 0.73762 0.82048 0.13215 0.0
C1072 C 0.73639 0.78182 0.15426 0.0
C1073 C 0.63508 0.75232 0.15834 0.0
H1074 H 0.6772 0.72638 0.21366 0.0
C1075 C 0.54583 0.6878 0.21881 0.0
C1076 C 0.5655 0.66537 0.22546 0.0
C1077 C 0.56626 0.70674 0.20707 0.0
C1078 C 0.66523 0.73338 0.19817 0.0
H1079 H 0.68002 0.8352 0.12264 0.0
H1080 H 0.64209 0.80199 0.14196 0.0
H1081 H 0.71361 0.75946 0.19374 0.0
H1082 H 0.62213 0.6453 0.225 0.0
H1083 H 0.65812 0.67888 0.20539 0.0
H1084 H 0.58599 0.7266 0.16336 0.0
C1085 C 0.67436 0.80112 0.14227 0.0
C1086 C 0.68618 0.75223 0.18664 0.0
C1087 C 0.69587 0.82021 0.13129 0.0
C1088 C 0.60616 0.66246 0.22036 0.0
C1089 C 0.62678 0.68162 0.20907 0.0
C1090 C 0.61382 0.73374 0.17009 0.0
C1091 C 0.69434 0.78174 0.15406 0.0
C1092 C 0.67159 0.76184 0.16645 0.0
C1093 C 0.60697 0.70386 0.20221 0.0
C1094 C 0.62887 0.724 0.19002 0.0
H1095 H 0.79004 0.8011 0.14423 0.0
H1096 H 0.75294 0.76697 0.16267 0.0
H1097 H 0.62314 0.75889 0.14272 0.0
H1098 H 0.51463 0.69077 0.22269 0.0
H1099 H 0.55042 0.72383 0.20209 0.0
C1100 C 0.31341 0.81398 0.39177 0.0
C1101 C 0.27198 0.81454 0.3887 0.0
C1102 C 0.33642 0.79522 0.3814 0.0
C1103 C 0.33134 0.73142 0.35639 0.0
H1104 H 0.42375 0.75322 0.32267 0.0
C1105 C 0.44229 0.66073 0.3163 0.0
C1106 C 0.45191 0.66557 0.2941 0.0
C1107 C 0.42104 0.67871 0.32861 0.0
C1108 C 0.398 0.7469 0.33201 0.0
H1109 H 0.22163 0.79608 0.37314 0.0
H1110 H 0.26166 0.76286 0.35517 0.0
H1111 H 0.3852 0.78472 0.34351 0.0
H1112 H 0.44767 0.69319 0.26751 0.0
H1113 H 0.4108 0.72476 0.28915 0.0
H1114 H 0.34402 0.69362 0.3448 0.0
C1115 C 0.27647 0.77686 0.36551 0.0
C1116 C 0.37619 0.76485 0.34407 0.0
C1117 C 0.25362 0.7958 0.37564 0.0
C1118 C 0.44039 0.68888 0.28454 0.0
C1119 C 0.41957 0.707 0.29695 0.0
C1120 C 0.35345 0.71342 0.34456 0.0
C1121 C 0.31815 0.77656 0.36806 0.0
C1122 C 0.34246 0.75731 0.35623 0.0
C1123 C 0.40953 0.70202 0.31907 0.0
C1124 C 0.38679 0.72102 0.33211 0.0
H1125 H 0.32791 0.82844 0.40175 0.0
H1126 H 0.36847 0.79531 0.38375 0.0
H1127 H 0.30556 0.7251 0.3657 0.0
H1128 H 0.45074 0.6429 0.32409 0.0
H1129 H 0.41393 0.67448 0.34568 0.0
C1130 C 0.24392 0.70204 0.86934 0.0
C1131 C 0.22924 0.68852 0.88766 0.0
C1132 C 0.2202 0.72016 0.85871 0.0
C1133 C 0.14977 0.76824 0.86338 0.0
H1134 H 0.10509 0.74935 0.80655 0.0
C1135 C 0.04606 0.83665 0.81552 0.0
C1136 C 0.04961 0.83733 0.79239 0.0
C1137 C 0.06552 0.81784 0.82785 0.0
C1138 C 0.11772 0.75513 0.82223 0.0
H1139 H 0.1789 0.6837 0.90964 0.0
H1140 H 0.13763 0.71641 0.89142 0.0
H1141 H 0.14507 0.71852 0.82717 0.0
H1142 H 0.07501 0.81792 0.76404 0.0
H1143 H 0.11082 0.78621 0.78548 0.0
H1144 H 0.12446 0.8052 0.85821 0.0
C1145 C 0.16735 0.71257 0.88524 0.0
C1146 C 0.14024 0.73736 0.83408 0.0
C1147 C 0.19089 0.69407 0.89566 0.0
C1148 C 0.07235 0.81839 0.78186 0.0
C1149 C 0.0924 0.79986 0.7942 0.0
C1150 C 0.12782 0.78621 0.85137 0.0
C1151 C 0.18173 0.72542 0.86652 0.0
C1152 C 0.15645 0.74384 0.85466 0.0
C1153 C 0.08942 0.79937 0.81739 0.0
C1154 C 0.11163 0.77995 0.83056 0.0
H1155 H 0.27366 0.69837 0.86315 0.0
H1156 H 0.2318 0.73004 0.84435 0.0
H1157 H 0.1624 0.77357 0.8792 0.0
H1158 H 0.02835 0.85073 0.82421 0.0
H1159 H 0.06166 0.81778 0.8456 0.0
loop_
_geom_bond_atom_site_label_1
_geom_bond_atom_site_label_2
_geom_bond_distance
_geom_bond_site_symmetry_2
_ccdc_geom_bond_type
C0 N1 1.317 . S
C0 N2 1.348 . S
C0 C3 1.485 . S
N1 C0 1.317 . S
N1 N5 1.370 . S
N2 C0 1.348 . S
N2 C4 1.346 . S
C3 C0 1.485 . S
C3 H7 0.960 . S
C3 H8 0.961 . S
C3 H9 0.960 . S
C4 N2 1.346 . S
C4 N5 1.307 . S
C4 C6 1.486 . S
N5 N1 1.370 . S
N5 C4 1.307 . S
C6 C4 1.486 . S
C6 H10 0.960 . S
C6 H11 0.960 . S
C6 H12 0.959 . S
H7 C3 0.960 . S
H8 C3 0.961 . S
H9 C3 0.960 . S
H10 C6 0.960 . S
H11 C6 0.960 . S
H12 C6 0.959 . S
C13 N14 1.317 . S
C13 N15 1.348 . S
C13 C16 1.485 . S
N14 C13 1.317 . S
N14 N18 1.370 . S
N15 C13 1.348 . S
N15 C17 1.346 . S
C16 C13 1.485 . S
C16 H20 0.960 . S
C16 H21 0.961 . S
C16 H22 0.960 . S
C17 N15 1.346 . S
C17 N18 1.307 . S
C17 C19 1.486 . S
N18 N14 1.370 . S
N18 C17 1.307 . S
C19 C17 1.486 . S
C19 H23 0.960 . S
C19 H24 0.960 . S
C19 H25 0.959 . S
H20 C16 0.960 . S
H21 C16 0.961 . S
H22 C16 0.960 . S
H23 C19 0.960 . S
H24 C19 0.960 . S
H25 C19 0.959 . S
C26 N27 1.317 . S
C26 N28 1.348 . S
C26 C29 1.485 . S
N27 C26 1.317 . S
N27 N31 1.370 . S
N28 C26 1.348 . S
N28 C30 1.346 . S
C29 C26 1.485 . S
C29 H33 0.960 . S
C29 H34 0.961 . S
C29 H35 0.960 . S
C30 N28 1.346 . S
C30 N31 1.307 . S
C30 C32 1.486 . S
N31 N27 1.370 . S
N31 C30 1.307 . S
C32 C30 1.486 . S
C32 H36 0.960 . S
C32 H37 0.960 . S
C32 H38 0.959 . S
H33 C29 0.960 . S
H34 C29 0.961 . S
H35 C29 0.960 . S
H36 C32 0.960 . S
H37 C32 0.960 . S
H38 C32 0.959 . S
C39 N40 1.317 . S
C39 N41 1.348 . S
C39 C42 1.485 . S
N40 C39 1.317 . S
N40 N44 1.370 . S
N41 C39 1.348 . S
N41 C43 1.346 . S
C42 C39 1.485 . S
C42 H46 0.960 . S
C42 H47 0.961 . S
C42 H48 0.960 . S
C43 N41 1.346 . S
C43 N44 1.307 . S
C43 C45 1.486 . S
N44 N40 1.370 . S
N44 C43 1.307 . S
C45 C43 1.486 . S
C45 H49 0.960 . S
C45 H50 0.960 . S
C45 H51 0.959 . S
H46 C42 0.960 . S
H47 C42 0.961 . S
H48 C42 0.960 . S
H49 C45 0.960 . S
H50 C45 0.960 . S
H51 C45 0.959 . S
C52 N53 1.317 . S
C52 N54 1.348 . S
C52 C55 1.485 . S
N53 C52 1.317 . S
N53 N57 1.370 . S
N54 C52 1.348 . S
N54 C56 1.346 . S
C55 C52 1.485 . S
C55 H59 0.960 . S
C55 H60 0.961 . S
C55 H61 0.960 . S
C56 N54 1.346 . S
C56 N57 1.307 . S
C56 C58 1.486 . S
N57 N53 1.370 . S
N57 C56 1.307 . S
C58 C56 1.486 . S
C58 H62 0.960 . S
C58 H63 0.960 . S
C58 H64 0.959 . S
H59 C55 0.960 . S
H60 C55 0.961 . S
H61 C55 0.960 . S
H62 C58 0.960 . S
H63 C58 0.960 . S
H64 C58 0.959 . S
C65 N66 1.317 . S
C65 N67 1.348 . S
C65 C68 1.485 . S
N66 C65 1.317 . S
N66 N70 1.370 . S
N67 C65 1.348 . S
N67 C69 1.346 . S
C68 C65 1.485 . S
C68 H72 0.960 . S
C68 H73 0.961 . S
C68 H74 0.960 . S
C69 N67 1.346 . S
C69 N70 1.307 . S
C69 C71 1.486 . S
N70 N66 1.370 . S
N70 C69 1.307 . S
C71 C69 1.486 . S
C71 H75 0.960 . S
C71 H76 0.960 . S
C71 H77 0.959 . S
H72 C68 0.960 . S
H73 C68 0.961 . S
H74 C68 0.960 . S
H75 C71 0.960 . S
H76 C71 0.960 . S
H77 C71 0.959 . S
C78 N79 1.317 . S
C78 N80 1.348 . S
C78 C81 1.485 . S
N79 C78 1.317 . S
N79 N83 1.370 . S
N80 C78 1.348 . S
N80 C82 1.346 . S
C81 C78 1.485 . S
C81 H85 0.960 . S
C81 H86 0.961 . S
C81 H87 0.960 . S
C82 N80 1.346 . S
C82 N83 1.307 . S
C82 C84 1.486 . S
N83 N79 1.370 . S
N83 C82 1.307 . S
C84 C82 1.486 . S
C84 H88 0.960 . S
C84 H89 0.960 . S
C84 H90 0.959 . S
H85 C81 0.960 . S
H86 C81 0.961 . S
H87 C81 0.960 . S
H88 C84 0.960 . S
H89 C84 0.960 . S
H90 C84 0.959 . S
C91 N92 1.317 . S
C91 N93 1.348 . S
C91 C94 1.485 . S
N92 C91 1.317 . S
N92 N96 1.370 . S
N93 C91 1.348 . S
N93 C95 1.346 . S
C94 C91 1.485 . S
C94 H98 0.960 . S
C94 H99 0.961 . S
C94 H100 0.960 . S
C95 N93 1.346 . S
C95 N96 1.307 . S
C95 C97 1.486 . S
N96 N92 1.370 . S
N96 C95 1.307 . S
C97 C95 1.486 . S
C97 H101 0.960 . S
C97 H102 0.960 . S
C97 H103 0.959 . S
H98 C94 0.960 . S
H99 C94 0.961 . S
H100 C94 0.960 . S
H101 C97 0.960 . S
H102 C97 0.960 . S
H103 C97 0.959 . S
Eu104 N133 2.600 . S
Eu104 N139 2.562 . S
Eu104 O148 2.462 . S
Eu104 O149 2.373 . S
Eu104 O151 2.432 . S
Eu104 O152 2.291 . S
Eu104 O156 2.335 . S
Eu104 O159 2.372 . S
Eu104 C168 2.787 . S
C105 N106 1.365 . S
C105 C108 1.405 . S
C105 C112 1.448 . S
N106 C105 1.365 . S
N106 C109 1.319 . S
N106 Eu115 2.600 . S
C107 C109 1.397 . S
C107 C110 1.367 . S
C107 H127 0.931 . S
C108 C105 1.405 . S
C108 C110 1.403 . S
C108 C114 1.439 . S
C109 N106 1.319 . S
C109 C107 1.397 . S
C109 H120 0.930 . S
C110 C107 1.367 . S
C110 C108 1.403 . S
C110 H131 0.929 . S
C111 C112 1.430 . S
C111 C113 1.387 . S
C111 C117 1.404 . S
C112 C105 1.448 . S
C112 C111 1.430 . S
C112 N116 1.351 . S
C113 C111 1.387 . S
C113 C114 1.374 . S
C113 H128 0.931 . S
C114 C108 1.439 . S
C114 C113 1.374 . S
C114 H129 0.931 . S
Eu115 N106 2.600 . S
Eu115 N116 2.562 . S
Eu115 O150 2.335 1_655 S
Eu115 O153 2.372 . S
Eu115 O154 2.462 . S
Eu115 O155 2.373 . S
Eu115 O157 2.432 . S
Eu115 O158 2.291 1_655 S
Eu115 C179 2.787 . S
N116 C112 1.351 . S
N116 Eu115 2.562 . S
N116 C118 1.325 . S
C117 C111 1.404 . S
C117 C119 1.366 . S
C117 H125 0.930 . S
C118 N116 1.325 . S
C118 C119 1.416 . S
C118 H124 0.929 . S
C119 C117 1.366 . S
C119 C118 1.416 . S
C119 H121 0.930 . S
H120 C109 0.930 . S
H121 C119 0.930 . S
H122 C137 0.930 . S
H123 C144 0.930 . S
H124 C118 0.929 . S
H125 C117 0.930 . S
H126 C140 0.929 . S
H127 C107 0.931 . S
H128 C113 0.931 . S
H129 C114 0.931 . S
H130 C135 0.931 . S
H131 C110 0.929 . S
H132 C143 0.930 . S
N133 Eu104 2.600 . S
N133 C134 1.365 . S
N133 C137 1.319 . S
C134 N133 1.365 . S
C134 C136 1.405 . S
C134 C142 1.448 . S
C135 H130 0.931 . S
C135 C137 1.397 . S
C135 C138 1.367 . S
C136 C134 1.405 . S
C136 C138 1.403 . S
C136 C169 1.439 . S
C137 H122 0.930 . S
C137 N133 1.319 . S
C137 C135 1.397 . S
C138 C135 1.367 . S
C138 C136 1.403 . S
C138 H145 0.929 . S
N139 Eu104 2.562 . S
N139 C140 1.325 . S
N139 C142 1.351 . S
C140 H126 0.929 . S
C140 N139 1.325 . S
C140 C144 1.416 . S
C141 C142 1.430 . S
C141 C143 1.404 . S
C141 C170 1.387 . S
C142 C134 1.448 . S
C142 N139 1.351 . S
C142 C141 1.430 . S
C143 H132 0.930 . S
C143 C141 1.404 . S
C143 C144 1.366 . S
C144 H123 0.930 . S
C144 C140 1.416 . S
C144 C143 1.366 . S
H145 C138 0.929 . S
H146 C169 0.931 . S
H147 C170 0.931 . S
O148 Eu104 2.462 . S
O148 C168 1.252 . S
O149 Eu104 2.373 . S
O149 C160 1.249 . S
O150 Eu115 2.335 1_455 S
O150 C160 1.264 . S
O151 Eu104 2.432 . S
O151 C168 1.268 . S
O152 Eu104 2.291 . S
O152 C167 1.255 1_455 S
O153 Eu115 2.372 . S
O153 C167 1.257 . S
O154 Eu115 2.462 . S
O154 C179 1.252 . S
O155 Eu115 2.373 . S
O155 C171 1.249 . S
O156 Eu104 2.335 . S
O156 C171 1.264 1_455 S
O157 Eu115 2.432 . S
O157 C179 1.268 . S
O158 Eu115 2.291 1_455 S
O158 C178 1.255 . S
O159 Eu104 2.372 . S
O159 C178 1.257 . S
C160 O149 1.249 . S
C160 O150 1.264 . S
C161 C164 1.382 . S
C161 C166 1.390 . S
C161 C168 1.506 . S
C162 C163 1.398 . S
C162 C166 1.392 . S
C163 C162 1.398 . S
C163 C165 1.372 . S
C163 H180 0.931 . S
C164 C161 1.382 . S
C164 C165 1.390 . S
C164 H181 0.931 . S
C165 C163 1.372 . S
C165 C164 1.390 . S
C165 H182 0.929 . S
C166 C161 1.390 . S
C166 C162 1.392 . S
C166 H183 0.930 . S
C167 O152 1.255 1_655 S
C167 O153 1.257 . S
C168 Eu104 2.787 . S
C168 O148 1.252 . S
C168 O151 1.268 . S
C168 C161 1.506 . S
C169 C136 1.439 . S
C169 H146 0.931 . S
C169 C170 1.374 . S
C170 C141 1.387 . S
C170 H147 0.931 . S
C170 C169 1.374 . S
C171 O155 1.249 . S
C171 O156 1.264 1_655 S
C172 C175 1.382 . S
C172 C176 1.390 . S
C172 C179 1.506 . S
C173 C174 1.398 . S
C173 C176 1.392 . S
C174 C173 1.398 . S
C174 C177 1.372 . S
C174 H184 0.931 . S
C175 C172 1.382 . S
C175 C177 1.390 . S
C175 H185 0.931 . S
C176 C172 1.390 . S
C176 C173 1.392 . S
C176 H186 0.930 . S
C177 C174 1.372 . S
C177 C175 1.390 . S
C177 H187 0.929 . S
C178 O158 1.255 . S
C178 O159 1.257 . S
C179 Eu115 2.787 . S
C179 O154 1.252 . S
C179 O157 1.268 . S
C179 C172 1.506 . S
H180 C163 0.931 . S
H181 C164 0.931 . S
H182 C165 0.929 . S
H183 C166 0.930 . S
H184 C174 0.931 . S
H185 C175 0.931 . S
H186 C176 0.930 . S
H187 C177 0.929 . S
Eu188 N217 2.600 . S
Eu188 N223 2.562 . S
Eu188 O232 2.462 . S
Eu188 O233 2.373 . S
Eu188 O235 2.432 . S
Eu188 O236 2.291 . S
Eu188 O240 2.335 . S
Eu188 O243 2.372 . S
Eu188 C252 2.787 . S
C189 N190 1.365 . S
C189 C192 1.405 . S
C189 C196 1.448 . S
N190 C189 1.365 . S
N190 C193 1.319 . S
N190 Eu199 2.600 . S
C191 C193 1.397 . S
C191 C194 1.367 . S
C191 H211 0.931 . S
C192 C189 1.405 . S
C192 C194 1.403 . S
C192 C198 1.439 . S
C193 N190 1.319 . S
C193 C191 1.397 . S
C193 H204 0.930 . S
C194 C191 1.367 . S
C194 C192 1.403 . S
C194 H215 0.929 . S
C195 C196 1.430 . S
C195 C197 1.387 . S
C195 C201 1.404 . S
C196 C189 1.448 . S
C196 C195 1.430 . S
C196 N200 1.351 . S
C197 C195 1.387 . S
C197 C198 1.374 . S
C197 H212 0.931 . S
C198 C192 1.439 . S
C198 C197 1.374 . S
C198 H213 0.931 . S
Eu199 N190 2.600 . S
Eu199 N200 2.562 . S
Eu199 O234 2.335 . S
Eu199 O237 2.372 . S
Eu199 O238 2.462 . S
Eu199 O239 2.373 . S
Eu199 O241 2.432 . S
Eu199 O242 2.291 . S
Eu199 C263 2.787 . S
N200 C196 1.351 . S
N200 Eu199 2.562 . S
N200 C202 1.325 . S
C201 C195 1.404 . S
C201 C203 1.366 . S
C201 H209 0.930 . S
C202 N200 1.325 . S
C202 C203 1.416 . S
C202 H208 0.929 . S
C203 C201 1.366 . S
C203 C202 1.416 . S
C203 H205 0.930 . S
H204 C193 0.930 . S
H205 C203 0.930 . S
H206 C221 0.930 . S
H207 C228 0.930 . S
H208 C202 0.929 . S
H209 C201 0.930 . S
H210 C224 0.929 . S
H211 C191 0.931 . S
H212 C197 0.931 . S
H213 C198 0.931 . S
H214 C219 0.931 . S
H215 C194 0.929 . S
H216 C227 0.930 . S
N217 Eu188 2.600 . S
N217 C218 1.365 . S
N217 C221 1.319 . S
C218 N217 1.365 . S
C218 C220 1.405 . S
C218 C226 1.448 . S
C219 H214 0.931 . S
C219 C221 1.397 . S
C219 C222 1.367 . S
C220 C218 1.405 . S
C220 C222 1.403 . S
C220 C253 1.439 . S
C221 H206 0.930 . S
C221 N217 1.319 . S
C221 C219 1.397 . S
C222 C219 1.367 . S
C222 C220 1.403 . S
C222 H229 0.929 . S
N223 Eu188 2.562 . S
N223 C224 1.325 . S
N223 C226 1.351 . S
C224 H210 0.929 . S
C224 N223 1.325 . S
C224 C228 1.416 . S
C225 C226 1.430 . S
C225 C227 1.404 . S
C225 C254 1.387 . S
C226 C218 1.448 . S
C226 N223 1.351 . S
C226 C225 1.430 . S
C227 H216 0.930 . S
C227 C225 1.404 . S
C227 C228 1.366 . S
C228 H207 0.930 . S
C228 C224 1.416 . S
C228 C227 1.366 . S
H229 C222 0.929 . S
H230 C253 0.931 . S
H231 C254 0.931 . S
O232 Eu188 2.462 . S
O232 C252 1.252 . S
O233 Eu188 2.373 . S
O233 C244 1.249 . S
O234 Eu199 2.335 . S
O234 C244 1.264 . S
O235 Eu188 2.432 . S
O235 C252 1.268 . S
O236 Eu188 2.291 . S
O236 C251 1.255 . S
O237 Eu199 2.372 . S
O237 C251 1.257 . S
O238 Eu199 2.462 . S
O238 C263 1.252 . S
O239 Eu199 2.373 . S
O239 C255 1.249 . S
O240 Eu188 2.335 . S
O240 C255 1.264 . S
O241 Eu199 2.432 . S
O241 C263 1.268 . S
O242 Eu199 2.291 . S
O242 C262 1.255 . S
O243 Eu188 2.372 . S
O243 C262 1.257 . S
C244 O233 1.249 . S
C244 O234 1.264 . S
C245 C248 1.382 . S
C245 C250 1.390 . S
C245 C252 1.506 . S
C246 C247 1.398 . S
C246 C250 1.392 . S
C247 C246 1.398 . S
C247 C249 1.372 . S
C247 H264 0.931 . S
C248 C245 1.382 . S
C248 C249 1.390 . S
C248 H265 0.931 . S
C249 C247 1.372 . S
C249 C248 1.390 . S
C249 H266 0.929 . S
C250 C245 1.390 . S
C250 C246 1.392 . S
C250 H267 0.930 . S
C251 O236 1.255 . S
C251 O237 1.257 . S
C252 Eu188 2.787 . S
C252 O232 1.252 . S
C252 O235 1.268 . S
C252 C245 1.506 . S
C253 C220 1.439 . S
C253 H230 0.931 . S
C253 C254 1.374 . S
C254 C225 1.387 . S
C254 H231 0.931 . S
C254 C253 1.374 . S
C255 O239 1.249 . S
C255 O240 1.264 . S
C256 C259 1.382 . S
C256 C260 1.390 . S
C256 C263 1.506 . S
C257 C258 1.398 . S
C257 C260 1.392 . S
C258 C257 1.398 . S
C258 C261 1.372 . S
C258 H268 0.931 . S
C259 C256 1.382 . S
C259 C261 1.390 . S
C259 H269 0.931 . S
C260 C256 1.390 . S
C260 C257 1.392 . S
C260 H270 0.930 . S
C261 C258 1.372 . S
C261 C259 1.390 . S
C261 H271 0.929 . S
C262 O242 1.255 . S
C262 O243 1.257 . S
C263 Eu199 2.787 . S
C263 O238 1.252 . S
C263 O241 1.268 . S
C263 C256 1.506 . S
H264 C247 0.931 . S
H265 C248 0.931 . S
H266 C249 0.929 . S
H267 C250 0.930 . S
H268 C258 0.931 . S
H269 C259 0.931 . S
H270 C260 0.930 . S
H271 C261 0.929 . S
Eu272 N301 2.600 . S
Eu272 N307 2.562 . S
Eu272 O316 2.462 . S
Eu272 O317 2.373 . S
Eu272 O319 2.432 . S
Eu272 O320 2.291 . S
Eu272 O324 2.335 . S
Eu272 O327 2.372 . S
Eu272 C336 2.787 . S
C273 N274 1.365 . S
C273 C276 1.405 . S
C273 C280 1.448 . S
N274 C273 1.365 . S
N274 C277 1.319 . S
N274 Eu283 2.600 . S
C275 C277 1.397 . S
C275 C278 1.367 . S
C275 H295 0.931 . S
C276 C273 1.405 . S
C276 C278 1.403 . S
C276 C282 1.439 . S
C277 N274 1.319 . S
C277 C275 1.397 . S
C277 H288 0.930 . S
C278 C275 1.367 . S
C278 C276 1.403 . S
C278 H299 0.929 . S
C279 C280 1.430 . S
C279 C281 1.387 . S
C279 C285 1.404 . S
C280 C273 1.448 . S
C280 C279 1.430 . S
C280 N284 1.351 . S
C281 C279 1.387 . S
C281 C282 1.374 . S
C281 H296 0.931 . S
C282 C276 1.439 . S
C282 C281 1.374 . S
C282 H297 0.931 . S
Eu283 N274 2.600 . S
Eu283 N284 2.562 . S
Eu283 O318 2.335 1_655 S
Eu283 O321 2.372 . S
Eu283 O322 2.462 . S
Eu283 O323 2.373 . S
Eu283 O325 2.432 . S
Eu283 O326 2.291 1_655 S
Eu283 C347 2.787 . S
N284 C280 1.351 . S
N284 Eu283 2.562 . S
N284 C286 1.325 . S
C285 C279 1.404 . S
C285 C287 1.366 . S
C285 H293 0.930 . S
C286 N284 1.325 . S
C286 C287 1.416 . S
C286 H292 0.929 . S
C287 C285 1.366 . S
C287 C286 1.416 . S
C287 H289 0.930 . S
H288 C277 0.930 . S
H289 C287 0.930 . S
H290 C305 0.930 . S
H291 C312 0.930 . S
H292 C286 0.929 . S
H293 C285 0.930 . S
H294 C308 0.929 . S
H295 C275 0.931 . S
H296 C281 0.931 . S
H297 C282 0.931 . S
H298 C303 0.931 . S
H299 C278 0.929 . S
H300 C311 0.930 . S
N301 Eu272 2.600 . S
N301 C302 1.365 . S
N301 C305 1.319 . S
C302 N301 1.365 . S
C302 C304 1.405 . S
C302 C310 1.448 . S
C303 H298 0.931 . S
C303 C305 1.397 . S
C303 C306 1.367 . S
C304 C302 1.405 . S
C304 C306 1.403 . S
C304 C337 1.439 . S
C305 H290 0.930 . S
C305 N301 1.319 . S
C305 C303 1.397 . S
C306 C303 1.367 . S
C306 C304 1.403 . S
C306 H313 0.929 . S
N307 Eu272 2.562 . S
N307 C308 1.325 . S
N307 C310 1.351 . S
C308 H294 0.929 . S
C308 N307 1.325 . S
C308 C312 1.416 . S
C309 C310 1.430 . S
C309 C311 1.404 . S
C309 C338 1.387 . S
C310 C302 1.448 . S
C310 N307 1.351 . S
C310 C309 1.430 . S
C311 H300 0.930 . S
C311 C309 1.404 . S
C311 C312 1.366 . S
C312 H291 0.930 . S
C312 C308 1.416 . S
C312 C311 1.366 . S
H313 C306 0.929 . S
H314 C337 0.931 . S
H315 C338 0.931 . S
O316 Eu272 2.462 . S
O316 C336 1.252 . S
O317 Eu272 2.373 . S
O317 C328 1.249 . S
O318 Eu283 2.335 1_455 S
O318 C328 1.264 . S
O319 Eu272 2.432 . S
O319 C336 1.268 . S
O320 Eu272 2.291 . S
O320 C335 1.255 1_455 S
O321 Eu283 2.372 . S
O321 C335 1.257 . S
O322 Eu283 2.462 . S
O322 C347 1.252 . S
O323 Eu283 2.373 . S
O323 C339 1.249 . S
O324 Eu272 2.335 . S
O324 C339 1.264 1_455 S
O325 Eu283 2.432 . S
O325 C347 1.268 . S
O326 Eu283 2.291 1_455 S
O326 C346 1.255 . S
O327 Eu272 2.372 . S
O327 C346 1.257 . S
C328 O317 1.249 . S
C328 O318 1.264 . S
C329 C332 1.382 . S
C329 C334 1.390 . S
C329 C336 1.506 . S
C330 C331 1.398 . S
C330 C334 1.392 . S
C331 C330 1.398 . S
C331 C333 1.372 . S
C331 H348 0.931 . S
C332 C329 1.382 . S
C332 C333 1.390 . S
C332 H349 0.931 . S
C333 C331 1.372 . S
C333 C332 1.390 . S
C333 H350 0.929 . S
C334 C329 1.390 . S
C334 C330 1.392 . S
C334 H351 0.930 . S
C335 O320 1.255 1_655 S
C335 O321 1.257 . S
C336 Eu272 2.787 . S
C336 O316 1.252 . S
C336 O319 1.268 . S
C336 C329 1.506 . S
C337 C304 1.439 . S
C337 H314 0.931 . S
C337 C338 1.374 . S
C338 C309 1.387 . S
C338 H315 0.931 . S
C338 C337 1.374 . S
C339 O323 1.249 . S
C339 O324 1.264 1_655 S
C340 C343 1.382 . S
C340 C344 1.390 . S
C340 C347 1.506 . S
C341 C342 1.398 . S
C341 C344 1.392 . S
C342 C341 1.398 . S
C342 C345 1.372 . S
C342 H352 0.931 . S
C343 C340 1.382 . S
C343 C345 1.390 . S
C343 H353 0.931 . S
C344 C340 1.390 . S
C344 C341 1.392 . S
C344 H354 0.930 . S
C345 C342 1.372 . S
C345 C343 1.390 . S
C345 H355 0.929 . S
C346 O326 1.255 . S
C346 O327 1.257 . S
C347 Eu283 2.787 . S
C347 O322 1.252 . S
C347 O325 1.268 . S
C347 C340 1.506 . S
H348 C331 0.931 . S
H349 C332 0.931 . S
H350 C333 0.929 . S
H351 C334 0.930 . S
H352 C342 0.931 . S
H353 C343 0.931 . S
H354 C344 0.930 . S
H355 C345 0.929 . S
Eu356 N385 2.600 . S
Eu356 N391 2.562 . S
Eu356 O400 2.462 . S
Eu356 O401 2.373 . S
Eu356 O403 2.432 . S
Eu356 O404 2.291 . S
Eu356 O408 2.335 . S
Eu356 O411 2.372 . S
Eu356 C420 2.787 . S
C357 N358 1.365 . S
C357 C360 1.405 . S
C357 C364 1.448 . S
N358 C357 1.365 . S
N358 C361 1.319 . S
N358 Eu367 2.600 . S
C359 C361 1.397 . S
C359 C362 1.367 . S
C359 H379 0.931 . S
C360 C357 1.405 . S
C360 C362 1.403 . S
C360 C366 1.439 . S
C361 N358 1.319 . S
C361 C359 1.397 . S
C361 H372 0.930 . S
C362 C359 1.367 . S
C362 C360 1.403 . S
C362 H383 0.929 . S
C363 C364 1.430 . S
C363 C365 1.387 . S
C363 C369 1.404 . S
C364 C357 1.448 . S
C364 C363 1.430 . S
C364 N368 1.351 . S
C365 C363 1.387 . S
C365 C366 1.374 . S
C365 H380 0.931 . S
C366 C360 1.439 . S
C366 C365 1.374 . S
C366 H381 0.931 . S
Eu367 N358 2.600 . S
Eu367 N368 2.562 . S
Eu367 O402 2.335 . S
Eu367 O405 2.372 . S
Eu367 O406 2.462 . S
Eu367 O407 2.373 . S
Eu367 O409 2.432 . S
Eu367 O410 2.291 . S
Eu367 C431 2.787 . S
N368 C364 1.351 . S
N368 Eu367 2.562 . S
N368 C370 1.325 . S
C369 C363 1.404 . S
C369 C371 1.366 . S
C369 H377 0.930 . S
C370 N368 1.325 . S
C370 C371 1.416 . S
C370 H376 0.929 . S
C371 C369 1.366 . S
C371 C370 1.416 . S
C371 H373 0.930 . S
H372 C361 0.930 . S
H373 C371 0.930 . S
H374 C389 0.930 . S
H375 C396 0.930 . S
H376 C370 0.929 . S
H377 C369 0.930 . S
H378 C392 0.929 . S
H379 C359 0.931 . S
H380 C365 0.931 . S
H381 C366 0.931 . S
H382 C387 0.931 . S
H383 C362 0.929 . S
H384 C395 0.930 . S
N385 Eu356 2.600 . S
N385 C386 1.365 . S
N385 C389 1.319 . S
C386 N385 1.365 . S
C386 C388 1.405 . S
C386 C394 1.448 . S
C387 H382 0.931 . S
C387 C389 1.397 . S
C387 C390 1.367 . S
C388 C386 1.405 . S
C388 C390 1.403 . S
C388 C421 1.439 . S
C389 H374 0.930 . S
C389 N385 1.319 . S
C389 C387 1.397 . S
C390 C387 1.367 . S
C390 C388 1.403 . S
C390 H397 0.929 . S
N391 Eu356 2.562 . S
N391 C392 1.325 . S
N391 C394 1.351 . S
C392 H378 0.929 . S
C392 N391 1.325 . S
C392 C396 1.416 . S
C393 C394 1.430 . S
C393 C395 1.404 . S
C393 C422 1.387 . S
C394 C386 1.448 . S
C394 N391 1.351 . S
C394 C393 1.430 . S
C395 H384 0.930 . S
C395 C393 1.404 . S
C395 C396 1.366 . S
C396 H375 0.930 . S
C396 C392 1.416 . S
C396 C395 1.366 . S
H397 C390 0.929 . S
H398 C421 0.931 . S
H399 C422 0.931 . S
O400 Eu356 2.462 . S
O400 C420 1.252 . S
O401 Eu356 2.373 . S
O401 C412 1.249 . S
O402 Eu367 2.335 . S
O402 C412 1.264 . S
O403 Eu356 2.432 . S
O403 C420 1.268 . S
O404 Eu356 2.291 . S
O404 C419 1.255 . S
O405 Eu367 2.372 . S
O405 C419 1.257 . S
O406 Eu367 2.462 . S
O406 C431 1.252 . S
O407 Eu367 2.373 . S
O407 C423 1.249 . S
O408 Eu356 2.335 . S
O408 C423 1.264 . S
O409 Eu367 2.432 . S
O409 C431 1.268 . S
O410 Eu367 2.291 . S
O410 C430 1.255 . S
O411 Eu356 2.372 . S
O411 C430 1.257 . S
C412 O401 1.249 . S
C412 O402 1.264 . S
C413 C416 1.382 . S
C413 C418 1.390 . S
C413 C420 1.506 . S
C414 C415 1.398 . S
C414 C418 1.392 . S
C415 C414 1.398 . S
C415 C417 1.372 . S
C415 H432 0.931 . S
C416 C413 1.382 . S
C416 C417 1.390 . S
C416 H433 0.931 . S
C417 C415 1.372 . S
C417 C416 1.390 . S
C417 H434 0.929 . S
C418 C413 1.390 . S
C418 C414 1.392 . S
C418 H435 0.930 . S
C419 O404 1.255 . S
C419 O405 1.257 . S
C420 Eu356 2.787 . S
C420 O400 1.252 . S
C420 O403 1.268 . S
C420 C413 1.506 . S
C421 C388 1.439 . S
C421 H398 0.931 . S
C421 C422 1.374 . S
C422 C393 1.387 . S
C422 H399 0.931 . S
C422 C421 1.374 . S
C423 O407 1.249 . S
C423 O408 1.264 . S
C424 C427 1.382 . S
C424 C428 1.390 . S
C424 C431 1.506 . S
C425 C426 1.398 . S
C425 C428 1.392 . S
C426 C425 1.398 . S
C426 C429 1.372 . S
C426 H436 0.931 . S
C427 C424 1.382 . S
C427 C429 1.390 . S
C427 H437 0.931 . S
C428 C424 1.390 . S
C428 C425 1.392 . S
C428 H438 0.930 . S
C429 C426 1.372 . S
C429 C427 1.390 . S
C429 H439 0.929 . S
C430 O410 1.255 . S
C430 O411 1.257 . S
C431 Eu367 2.787 . S
C431 O406 1.252 . S
C431 O409 1.268 . S
C431 C424 1.506 . S
H432 C415 0.931 . S
H433 C416 0.931 . S
H434 C417 0.929 . S
H435 C418 0.930 . S
H436 C426 0.931 . S
H437 C427 0.931 . S
H438 C428 0.930 . S
H439 C429 0.929 . S
C440 C441 1.349 . S
C440 C442 1.327 . S
C440 H465 0.950 . S
C441 C440 1.349 . S
C441 C457 1.349 . S
C442 C440 1.327 . S
C442 C461 1.429 . S
C442 H466 0.950 . S
C443 C460 1.574 . S
C443 C462 1.368 . S
C443 H467 0.949 . S
H444 C448 0.949 . S
C445 C446 1.349 . S
C445 C447 1.327 . S
C445 H468 0.950 . S
C446 C445 1.349 . S
C446 C458 1.349 . S
C447 C445 1.327 . S
C447 C463 1.429 . S
C447 H469 0.950 . S
C448 H444 0.949 . S
C448 C456 1.574 . S
C448 C464 1.368 . S
H449 C457 0.950 . S
H450 C455 0.950 . S
H451 C456 0.949 . S
H452 C458 0.950 . S
H453 C459 0.950 1_565 S
H454 C460 0.949 1_545 S
C455 H450 0.950 . S
C455 C457 1.327 . S
C455 C461 1.429 . S
C456 C448 1.574 . S
C456 H451 0.949 . S
C456 C462 1.368 . S
C457 C441 1.349 . S
C457 H449 0.950 . S
C457 C455 1.327 . S
C458 C446 1.349 . S
C458 H452 0.950 . S
C458 C459 1.327 . S
C459 H453 0.950 1_545 S
C459 C458 1.327 . S
C459 C463 1.429 . S
C460 C443 1.574 . S
C460 H454 0.949 1_565 S
C460 C464 1.368 . S
C461 C442 1.429 . S
C461 C455 1.429 . S
C461 C462 1.523 . S
C462 C443 1.368 . S
C462 C456 1.368 . S
C462 C461 1.523 . S
C463 C447 1.429 . S
C463 C459 1.429 . S
C463 C464 1.523 1_545 S
C464 C448 1.368 . S
C464 C460 1.368 . S
C464 C463 1.523 1_565 S
H465 C440 0.950 . S
H466 C442 0.950 . S
H467 C443 0.949 . S
H468 C445 0.950 . S
H469 C447 0.950 . S
C470 C471 1.349 . S
C470 C472 1.327 . S
C470 H495 0.950 . S
C471 C470 1.349 . S
C471 C487 1.349 . S
C472 C470 1.327 . S
C472 C491 1.429 . S
C472 H496 0.950 . S
C473 C490 1.574 . S
C473 C492 1.368 . S
C473 H497 0.949 . S
H474 C478 0.949 . S
C475 C476 1.349 . S
C475 C477 1.327 . S
C475 H498 0.950 . S
C476 C475 1.349 . S
C476 C488 1.349 . S
C477 C475 1.327 . S
C477 C493 1.429 . S
C477 H499 0.950 . S
C478 H474 0.949 . S
C478 C486 1.574 . S
C478 C494 1.368 . S
H479 C487 0.950 . S
H480 C485 0.950 . S
H481 C486 0.949 . S
H482 C488 0.950 . S
H483 C489 0.950 . S
H484 C490 0.949 . S
C485 H480 0.950 . S
C485 C487 1.327 . S
C485 C491 1.429 . S
C486 C478 1.574 . S
C486 H481 0.949 . S
C486 C492 1.368 . S
C487 C471 1.349 . S
C487 H479 0.950 . S
C487 C485 1.327 . S
C488 C476 1.349 . S
C488 H482 0.950 . S
C488 C489 1.327 . S
C489 H483 0.950 . S
C489 C488 1.327 . S
C489 C493 1.429 . S
C490 C473 1.574 . S
C490 H484 0.949 . S
C490 C494 1.368 . S
C491 C472 1.429 . S
C491 C485 1.429 . S
C491 C492 1.523 . S
C492 C473 1.368 . S
C492 C486 1.368 . S
C492 C491 1.523 . S
C493 C477 1.429 . S
C493 C489 1.429 . S
C493 C494 1.523 . S
C494 C478 1.368 . S
C494 C490 1.368 . S
C494 C493 1.523 . S
H495 C470 0.950 . S
H496 C472 0.950 . S
H497 C473 0.949 . S
H498 C475 0.950 . S
H499 C477 0.950 . S
C500 C501 1.349 . S
C500 C502 1.327 . S
C500 H525 0.950 . S
C501 C500 1.349 . S
C501 C517 1.349 . S
C502 C500 1.327 . S
C502 C521 1.429 . S
C502 H526 0.950 . S
C503 C520 1.574 . S
C503 C522 1.368 . S
C503 H527 0.949 . S
H504 C508 0.949 . S
C505 C506 1.349 . S
C505 C507 1.327 . S
C505 H528 0.950 . S
C506 C505 1.349 . S
C506 C518 1.349 . S
C507 C505 1.327 . S
C507 C523 1.429 . S
C507 H529 0.950 . S
C508 H504 0.949 . S
C508 C516 1.574 . S
C508 C524 1.368 . S
H509 C517 0.950 . S
H510 C515 0.950 . S
H511 C516 0.949 . S
H512 C518 0.950 . S
H513 C519 0.950 . S
H514 C520 0.949 . S
C515 H510 0.950 . S
C515 C517 1.327 . S
C515 C521 1.429 . S
C516 C508 1.574 . S
C516 H511 0.949 . S
C516 C522 1.368 . S
C517 C501 1.349 . S
C517 H509 0.950 . S
C517 C515 1.327 . S
C518 C506 1.349 . S
C518 H512 0.950 . S
C518 C519 1.327 . S
C519 H513 0.950 . S
C519 C518 1.327 . S
C519 C523 1.429 . S
C520 C503 1.574 . S
C520 H514 0.949 . S
C520 C524 1.368 . S
C521 C502 1.429 . S
C521 C515 1.429 . S
C521 C522 1.523 . S
C522 C503 1.368 . S
C522 C516 1.368 . S
C522 C521 1.523 . S
C523 C507 1.429 . S
C523 C519 1.429 . S
C523 C524 1.523 . S
C524 C508 1.368 . S
C524 C520 1.368 . S
C524 C523 1.523 . S
H525 C500 0.950 . S
H526 C502 0.950 . S
H527 C503 0.949 . S
H528 C505 0.950 . S
H529 C507 0.950 . S
C530 C531 1.349 . S
C530 C532 1.327 . S
C530 H555 0.950 . S
C531 C530 1.349 . S
C531 C547 1.349 . S
C532 C530 1.327 . S
C532 C551 1.429 . S
C532 H556 0.950 . S
C533 C550 1.574 . S
C533 C552 1.368 . S
C533 H557 0.949 . S
H534 C538 0.949 1_545 S
C535 C536 1.349 . S
C535 C537 1.327 . S
C535 H558 0.950 . S
C536 C535 1.349 . S
C536 C548 1.349 . S
C537 C535 1.327 . S
C537 C553 1.429 . S
C537 H559 0.950 1_545 S
C538 H534 0.949 1_565 S
C538 C546 1.574 . S
C538 C554 1.368 . S
H539 C547 0.950 . S
H540 C545 0.950 . S
H541 C546 0.949 . S
H542 C548 0.950 . S
H543 C549 0.950 . S
H544 C550 0.949 . S
C545 H540 0.950 . S
C545 C547 1.327 . S
C545 C551 1.429 . S
C546 C538 1.574 . S
C546 H541 0.949 . S
C546 C552 1.368 . S
C547 C531 1.349 . S
C547 H539 0.950 . S
C547 C545 1.327 . S
C548 C536 1.349 . S
C548 H542 0.950 . S
C548 C549 1.327 . S
C549 H543 0.950 . S
C549 C548 1.327 . S
C549 C553 1.429 . S
C550 C533 1.574 . S
C550 H544 0.949 . S
C550 C554 1.368 . S
C551 C532 1.429 . S
C551 C545 1.429 . S
C551 C552 1.523 . S
C552 C533 1.368 . S
C552 C546 1.368 . S
C552 C551 1.523 . S
C553 C537 1.429 . S
C553 C549 1.429 . S
C553 C554 1.523 1_545 S
C554 C538 1.368 . S
C554 C550 1.368 . S
C554 C553 1.523 1_565 S
H555 C530 0.950 . S
H556 C532 0.950 . S
H557 C533 0.949 . S
H558 C535 0.950 . S
H559 C537 0.950 1_565 S
C560 C561 1.349 . S
C560 C562 1.327 . S
C560 H585 0.950 . S
C561 C560 1.349 . S
C561 C577 1.349 . S
C562 C560 1.327 . S
C562 C581 1.429 . S
C562 H586 0.950 . S
C563 C580 1.574 . S
C563 C582 1.368 . S
C563 H587 0.949 . S
H564 C568 0.949 . S
C565 C566 1.349 . S
C565 C567 1.327 . S
C565 H588 0.950 . S
C566 C565 1.349 . S
C566 C578 1.349 . S
C567 C565 1.327 . S
C567 C583 1.429 . S
C567 H589 0.950 . S
C568 H564 0.949 . S
C568 C576 1.574 . S
C568 C584 1.368 . S
H569 C577 0.950 . S
H570 C575 0.950 . S
H571 C576 0.949 . S
H572 C578 0.950 . S
H573 C579 0.950 . S
H574 C580 0.949 . S
C575 H570 0.950 . S
C575 C577 1.327 . S
C575 C581 1.429 . S
C576 C568 1.574 . S
C576 H571 0.949 . S
C576 C582 1.368 . S
C577 C561 1.349 . S
C577 H569 0.950 . S
C577 C575 1.327 . S
C578 C566 1.349 . S
C578 H572 0.950 . S
C578 C579 1.327 . S
C579 H573 0.950 . S
C579 C578 1.327 . S
C579 C583 1.429 . S
C580 C563 1.574 . S
C580 H574 0.949 . S
C580 C584 1.368 . S
C581 C562 1.429 . S
C581 C575 1.429 . S
C581 C582 1.523 . S
C582 C563 1.368 . S
C582 C576 1.368 . S
C582 C581 1.523 . S
C583 C567 1.429 . S
C583 C579 1.429 . S
C583 C584 1.523 1_565 S
C584 C568 1.368 . S
C584 C580 1.368 . S
C584 C583 1.523 1_545 S
H585 C560 0.950 . S
H586 C562 0.950 . S
H587 C563 0.949 . S
H588 C565 0.950 . S
H589 C567 0.950 . S
C590 C591 1.349 . S
C590 C592 1.327 . S
C590 H615 0.950 . S
C591 C590 1.349 . S
C591 C607 1.349 . S
C592 C590 1.327 . S
C592 C611 1.429 . S
C592 H616 0.950 . S
C593 C610 1.574 . S
C593 C612 1.368 . S
C593 H617 0.949 . S
H594 C598 0.949 . S
C595 C596 1.349 . S
C595 C597 1.327 . S
C595 H618 0.950 . S
C596 C595 1.349 . S
C596 C608 1.349 . S
C597 C595 1.327 . S
C597 C613 1.429 . S
C597 H619 0.950 . S
C598 H594 0.949 . S
C598 C606 1.574 . S
C598 C614 1.368 . S
H599 C607 0.950 . S
H600 C605 0.950 . S
H601 C606 0.949 . S
H602 C608 0.950 . S
H603 C609 0.950 . S
H604 C610 0.949 . S
C605 H600 0.950 . S
C605 C607 1.327 . S
C605 C611 1.429 . S
C606 C598 1.574 . S
C606 H601 0.949 . S
C606 C612 1.368 . S
C607 C591 1.349 . S
C607 H599 0.950 . S
C607 C605 1.327 . S
C608 C596 1.349 . S
C608 H602 0.950 . S
C608 C609 1.327 . S
C609 H603 0.950 . S
C609 C608 1.327 . S
C609 C613 1.429 . S
C610 C593 1.574 . S
C610 H604 0.949 . S
C610 C614 1.368 . S
C611 C592 1.429 . S
C611 C605 1.429 . S
C611 C612 1.523 . S
C612 C593 1.368 . S
C612 C606 1.368 . S
C612 C611 1.523 . S
C613 C597 1.429 . S
C613 C609 1.429 . S
C613 C614 1.523 . S
C614 C598 1.368 . S
C614 C610 1.368 . S
C614 C613 1.523 . S
H615 C590 0.950 . S
H616 C592 0.950 . S
H617 C593 0.949 . S
H618 C595 0.950 . S
H619 C597 0.950 . S
C620 C621 1.349 . S
C620 C622 1.327 . S
C620 H645 0.950 . S
C621 C620 1.349 . S
C621 C637 1.349 . S
C622 C620 1.327 . S
C622 C641 1.429 . S
C622 H646 0.950 . S
C623 C640 1.574 . S
C623 C642 1.368 . S
C623 H647 0.949 . S
H624 C628 0.949 . S
C625 C626 1.349 . S
C625 C627 1.327 . S
C625 H648 0.950 . S
C626 C625 1.349 . S
C626 C638 1.349 . S
C627 C625 1.327 . S
C627 C643 1.429 . S
C627 H649 0.950 . S
C628 H624 0.949 . S
C628 C636 1.574 . S
C628 C644 1.368 . S
H629 C637 0.950 . S
H630 C635 0.950 . S
H631 C636 0.949 . S
H632 C638 0.950 . S
H633 C639 0.950 . S
H634 C640 0.949 . S
C635 H630 0.950 . S
C635 C637 1.327 . S
C635 C641 1.429 . S
C636 C628 1.574 . S
C636 H631 0.949 . S
C636 C642 1.368 . S
C637 C621 1.349 . S
C637 H629 0.950 . S
C637 C635 1.327 . S
C638 C626 1.349 . S
C638 H632 0.950 . S
C638 C639 1.327 . S
C639 H633 0.950 . S
C639 C638 1.327 . S
C639 C643 1.429 . S
C640 C623 1.574 . S
C640 H634 0.949 . S
C640 C644 1.368 . S
C641 C622 1.429 . S
C641 C635 1.429 . S
C641 C642 1.523 . S
C642 C623 1.368 . S
C642 C636 1.368 . S
C642 C641 1.523 . S
C643 C627 1.429 . S
C643 C639 1.429 . S
C643 C644 1.523 . S
C644 C628 1.368 . S
C644 C640 1.368 . S
C644 C643 1.523 . S
H645 C620 0.950 . S
H646 C622 0.950 . S
H647 C623 0.949 . S
H648 C625 0.950 . S
H649 C627 0.950 . S
C650 C651 1.349 . S
C650 C652 1.327 . S
C650 H675 0.950 . S
C651 C650 1.349 . S
C651 C667 1.349 . S
C652 C650 1.327 . S
C652 C671 1.429 . S
C652 H676 0.950 . S
C653 C670 1.574 . S
C653 C672 1.368 . S
C653 H677 0.949 . S
H654 C658 0.952 1_565 S
C655 C656 1.349 . S
C655 C657 1.327 . S
C655 H678 0.950 . S
C656 C655 1.349 . S
C656 C668 1.349 . S
C657 C655 1.327 . S
C657 C673 1.429 . S
C657 H679 0.950 . S
C658 H654 0.952 1_545 S
C658 C666 1.574 . S
C658 C674 1.368 . S
H659 C667 0.950 . S
H660 C665 0.950 . S
H661 C666 0.949 . S
H662 C668 0.950 . S
H663 C669 0.950 . S
H664 C670 0.949 . S
C665 H660 0.950 . S
C665 C667 1.327 . S
C665 C671 1.429 . S
C666 C658 1.574 . S
C666 H661 0.949 . S
C666 C672 1.368 . S
C667 C651 1.349 . S
C667 H659 0.950 . S
C667 C665 1.327 . S
C668 C656 1.349 . S
C668 H662 0.950 . S
C668 C669 1.327 . S
C669 H663 0.950 . S
C669 C668 1.327 . S
C669 C673 1.429 . S
C670 C653 1.574 . S
C670 H664 0.949 . S
C670 C674 1.368 . S
C671 C652 1.429 . S
C671 C665 1.429 . S
C671 C672 1.523 . S
C672 C653 1.368 . S
C672 C666 1.368 . S
C672 C671 1.523 . S
C673 C657 1.429 . S
C673 C669 1.429 . S
C673 C674 1.523 1_565 S
C674 C658 1.368 . S
C674 C670 1.368 . S
C674 C673 1.523 1_545 S
H675 C650 0.950 . S
H676 C652 0.950 . S
H677 C653 0.949 . S
H678 C655 0.950 . S
H679 C657 0.950 . S
C680 C681 1.349 . S
C680 C682 1.327 . S
C680 H705 0.950 . S
C681 C680 1.349 . S
C681 C697 1.349 . S
C682 C680 1.327 . S
C682 C701 1.429 . S
C682 H706 0.950 . S
C683 C700 1.574 . S
C683 C702 1.368 . S
C683 H707 0.949 . S
H684 C688 0.949 . S
C685 C686 1.349 . S
C685 C687 1.327 . S
C685 H708 0.950 . S
C686 C685 1.349 . S
C686 C698 1.349 . S
C687 C685 1.327 . S
C687 C703 1.429 . S
C687 H709 0.950 . S
C688 H684 0.949 . S
C688 C696 1.574 . S
C688 C704 1.368 . S
H689 C697 0.950 . S
H690 C695 0.950 . S
H691 C696 0.949 1_556 S
H692 C698 0.950 . S
H693 C699 0.950 . S
H694 C700 0.949 . S
C695 H690 0.950 . S
C695 C697 1.327 . S
C695 C701 1.429 . S
C696 C688 1.574 . S
C696 H691 0.949 1_554 S
C696 C702 1.368 . S
C697 C681 1.349 . S
C697 H689 0.950 . S
C697 C695 1.327 . S
C698 C686 1.349 . S
C698 H692 0.950 . S
C698 C699 1.327 . S
C699 H693 0.950 . S
C699 C698 1.327 . S
C699 C703 1.429 . S
C700 C683 1.574 . S
C700 H694 0.949 . S
C700 C704 1.368 . S
C701 C682 1.429 . S
C701 C695 1.429 . S
C701 C702 1.523 1_556 S
C702 C683 1.368 . S
C702 C696 1.368 . S
C702 C701 1.523 1_554 S
C703 C687 1.429 . S
C703 C699 1.429 . S
C703 C704 1.523 . S
C704 C688 1.368 . S
C704 C700 1.368 . S
C704 C703 1.523 . S
H705 C680 0.950 . S
H706 C682 0.950 . S
H707 C683 0.949 . S
H708 C685 0.950 . S
H709 C687 0.950 . S
C710 C711 1.349 . S
C710 C712 1.327 . S
C710 H735 0.950 . S
C711 C710 1.349 . S
C711 C727 1.349 . S
C712 C710 1.327 . S
C712 C731 1.429 . S
C712 H736 0.950 . S
C713 C730 1.574 . S
C713 C732 1.368 . S
C713 H737 0.949 . S
H714 C718 0.949 . S
C715 C716 1.349 . S
C715 C717 1.327 . S
C715 H738 0.950 . S
C716 C715 1.349 . S
C716 C728 1.349 . S
C717 C715 1.327 . S
C717 C733 1.429 . S
C717 H739 0.950 . S
C718 H714 0.949 . S
C718 C726 1.574 . S
C718 C734 1.368 . S
H719 C727 0.950 . S
H720 C725 0.950 . S
H721 C726 0.949 . S
H722 C728 0.950 . S
H723 C729 0.950 . S
H724 C730 0.949 . S
C725 H720 0.950 . S
C725 C727 1.327 . S
C725 C731 1.429 . S
C726 C718 1.574 . S
C726 H721 0.949 . S
C726 C732 1.368 . S
C727 C711 1.349 . S
C727 H719 0.950 . S
C727 C725 1.327 . S
C728 C716 1.349 . S
C728 H722 0.950 . S
C728 C729 1.327 . S
C729 H723 0.950 . S
C729 C728 1.327 . S
C729 C733 1.429 . S
C730 C713 1.574 . S
C730 H724 0.949 . S
C730 C734 1.368 . S
C731 C712 1.429 . S
C731 C725 1.429 . S
C731 C732 1.523 . S
C732 C713 1.368 . S
C732 C726 1.368 . S
C732 C731 1.523 . S
C733 C717 1.429 . S
C733 C729 1.429 . S
C733 C734 1.523 . S
C734 C718 1.368 . S
C734 C730 1.368 . S
C734 C733 1.523 . S
H735 C710 0.950 . S
H736 C712 0.950 . S
H737 C713 0.949 . S
H738 C715 0.950 . S
H739 C717 0.950 . S
C740 C741 1.349 . S
C740 C742 1.327 . S
C740 H765 0.950 . S
C741 C740 1.349 . S
C741 C757 1.349 . S
C742 C740 1.327 . S
C742 C761 1.429 . S
C742 H766 0.950 . S
C743 C760 1.574 . S
C743 C762 1.368 . S
C743 H767 0.949 . S
H744 C748 0.949 . S
C745 C746 1.349 . S
C745 C747 1.327 . S
C745 H768 0.950 . S
C746 C745 1.349 . S
C746 C758 1.349 . S
C747 C745 1.327 . S
C747 C763 1.429 . S
C747 H769 0.950 . S
C748 H744 0.949 . S
C748 C756 1.574 . S
C748 C764 1.368 . S
H749 C757 0.950 . S
H750 C755 0.950 . S
H751 C756 0.949 1_554 S
H752 C758 0.950 . S
H753 C759 0.950 . S
H754 C760 0.949 . S
C755 H750 0.950 . S
C755 C757 1.327 . S
C755 C761 1.429 . S
C756 C748 1.574 . S
C756 H751 0.949 1_556 S
C756 C762 1.368 . S
C757 C741 1.349 . S
C757 H749 0.950 . S
C757 C755 1.327 . S
C758 C746 1.349 . S
C758 H752 0.950 . S
C758 C759 1.327 . S
C759 H753 0.950 . S
C759 C758 1.327 . S
C759 C763 1.429 . S
C760 C743 1.574 . S
C760 H754 0.949 . S
C760 C764 1.368 . S
C761 C742 1.429 . S
C761 C755 1.429 . S
C761 C762 1.523 1_554 S
C762 C743 1.368 . S
C762 C756 1.368 . S
C762 C761 1.523 1_556 S
C763 C747 1.429 . S
C763 C759 1.429 . S
C763 C764 1.523 . S
C764 C748 1.368 . S
C764 C760 1.368 . S
C764 C763 1.523 . S
H765 C740 0.950 . S
H766 C742 0.950 . S
H767 C743 0.949 . S
H768 C745 0.950 . S
H769 C747 0.950 . S
C770 C771 1.349 . S
C770 C772 1.327 . S
C770 H795 0.950 . S
C771 C770 1.349 . S
C771 C787 1.349 . S
C772 C770 1.327 . S
C772 C791 1.429 . S
C772 H796 0.950 . S
C773 C790 1.574 . S
C773 C792 1.368 . S
C773 H797 0.949 . S
H774 C778 0.949 . S
C775 C776 1.349 . S
C775 C777 1.327 . S
C775 H798 0.950 . S
C776 C775 1.349 . S
C776 C788 1.349 . S
C777 C775 1.327 . S
C777 C793 1.429 . S
C777 H799 0.950 . S
C778 H774 0.949 . S
C778 C786 1.574 . S
C778 C794 1.368 . S
H779 C787 0.950 . S
H780 C785 0.950 . S
H781 C786 0.949 . S
H782 C788 0.950 . S
H783 C789 0.950 . S
H784 C790 0.949 . S
C785 H780 0.950 . S
C785 C787 1.327 . S
C785 C791 1.429 . S
C786 C778 1.574 . S
C786 H781 0.949 . S
C786 C792 1.368 . S
C787 C771 1.349 . S
C787 H779 0.950 . S
C787 C785 1.327 . S
C788 C776 1.349 . S
C788 H782 0.950 . S
C788 C789 1.327 . S
C789 H783 0.950 . S
C789 C788 1.327 . S
C789 C793 1.429 . S
C790 C773 1.574 . S
C790 H784 0.949 . S
C790 C794 1.368 . S
C791 C772 1.429 . S
C791 C785 1.429 . S
C791 C792 1.523 . S
C792 C773 1.368 . S
C792 C786 1.368 . S
C792 C791 1.523 . S
C793 C777 1.429 . S
C793 C789 1.429 . S
C793 C794 1.523 . S
C794 C778 1.368 . S
C794 C790 1.368 . S
C794 C793 1.523 . S
H795 C770 0.950 . S
H796 C772 0.950 . S
H797 C773 0.949 . S
H798 C775 0.950 . S
H799 C777 0.950 . S
C800 C801 1.349 . S
C800 C802 1.327 . S
C800 H825 0.950 . S
C801 C800 1.349 . S
C801 C817 1.349 . S
C802 C800 1.327 . S
C802 C821 1.429 . S
C802 H826 0.950 . S
C803 C820 1.574 . S
C803 C822 1.368 . S
C803 H827 0.949 1_556 S
H804 C808 0.949 . S
C805 C806 1.349 . S
C805 C807 1.327 . S
C805 H828 0.950 . S
C806 C805 1.349 . S
C806 C818 1.349 . S
C807 C805 1.327 . S
C807 C823 1.429 . S
C807 H829 0.950 . S
C808 H804 0.949 . S
C808 C816 1.574 . S
C808 C824 1.368 . S
H809 C817 0.950 . S
H810 C815 0.950 . S
H811 C816 0.949 . S
H812 C818 0.950 . S
H813 C819 0.950 . S
H814 C820 0.949 . S
C815 H810 0.950 . S
C815 C817 1.327 . S
C815 C821 1.429 . S
C816 C808 1.574 . S
C816 H811 0.949 . S
C816 C822 1.368 . S
C817 C801 1.349 . S
C817 H809 0.950 . S
C817 C815 1.327 . S
C818 C806 1.349 . S
C818 H812 0.950 . S
C818 C819 1.327 . S
C819 H813 0.950 . S
C819 C818 1.327 . S
C819 C823 1.429 . S
C820 C803 1.574 . S
C820 H814 0.949 . S
C820 C824 1.368 . S
C821 C802 1.429 . S
C821 C815 1.429 . S
C821 C822 1.523 1_554 S
C822 C803 1.368 . S
C822 C816 1.368 . S
C822 C821 1.523 1_556 S
C823 C807 1.429 . S
C823 C819 1.429 . S
C823 C824 1.523 . S
C824 C808 1.368 . S
C824 C820 1.368 . S
C824 C823 1.523 . S
H825 C800 0.950 . S
H826 C802 0.950 . S
H827 C803 0.949 1_554 S
H828 C805 0.950 . S
H829 C807 0.950 . S
C830 C831 1.349 . S
C830 C832 1.327 . S
C830 H855 0.950 . S
C831 C830 1.349 . S
C831 C847 1.349 . S
C832 C830 1.327 . S
C832 C851 1.429 . S
C832 H856 0.950 . S
C833 C850 1.574 . S
C833 C852 1.368 . S
C833 H857 0.949 . S
H834 C838 0.949 . S
C835 C836 1.349 . S
C835 C837 1.327 . S
C835 H858 0.950 . S
C836 C835 1.349 . S
C836 C848 1.349 . S
C837 C835 1.327 . S
C837 C853 1.429 . S
C837 H859 0.950 . S
C838 H834 0.949 . S
C838 C846 1.574 . S
C838 C854 1.368 . S
H839 C847 0.950 . S
H840 C845 0.950 . S
H841 C846 0.949 . S
H842 C848 0.950 . S
H843 C849 0.950 . S
H844 C850 0.949 . S
C845 H840 0.950 . S
C845 C847 1.327 . S
C845 C851 1.429 . S
C846 C838 1.574 . S
C846 H841 0.949 . S
C846 C852 1.368 . S
C847 C831 1.349 . S
C847 H839 0.950 . S
C847 C845 1.327 . S
C848 C836 1.349 . S
C848 H842 0.950 . S
C848 C849 1.327 . S
C849 H843 0.950 . S
C849 C848 1.327 . S
C849 C853 1.429 . S
C850 C833 1.574 . S
C850 H844 0.949 . S
C850 C854 1.368 . S
C851 C832 1.429 . S
C851 C845 1.429 . S
C851 C852 1.523 . S
C852 C833 1.368 . S
C852 C846 1.368 . S
C852 C851 1.523 . S
C853 C837 1.429 . S
C853 C849 1.429 . S
C853 C854 1.523 . S
C854 C838 1.368 . S
C854 C850 1.368 . S
C854 C853 1.523 . S
H855 C830 0.950 . S
H856 C832 0.950 . S
H857 C833 0.949 . S
H858 C835 0.950 . S
H859 C837 0.950 . S
C860 C861 1.349 . S
C860 C862 1.327 . S
C860 H885 0.950 . S
C861 C860 1.349 . S
C861 C877 1.349 . S
C862 C860 1.327 . S
C862 C881 1.429 . S
C862 H886 0.950 . S
C863 C880 1.614 . S
C863 C882 1.370 . S
C863 H887 0.912 1_554 S
H864 C868 0.949 . S
C865 C866 1.349 . S
C865 C867 1.327 . S
C865 H888 0.950 . S
C866 C865 1.349 . S
C866 C878 1.349 . S
C867 C865 1.327 . S
C867 C883 1.429 . S
C867 H889 0.950 . S
C868 H864 0.949 . S
C868 C876 1.574 . S
C868 C884 1.368 . S
H869 C877 0.950 . S
H870 C875 0.950 . S
H871 C876 0.949 . S
H872 C878 0.950 . S
H873 C879 0.950 . S
H874 C880 0.949 . S
C875 H870 0.950 . S
C875 C877 1.327 . S
C875 C881 1.429 . S
C876 C868 1.574 . S
C876 H871 0.949 . S
C876 C882 1.368 . S
C877 C861 1.349 . S
C877 H869 0.950 . S
C877 C875 1.327 . S
C878 C866 1.349 . S
C878 H872 0.950 . S
C878 C879 1.327 . S
C879 H873 0.950 . S
C879 C878 1.327 . S
C879 C883 1.429 . S
C880 C863 1.614 . S
C880 H874 0.949 . S
C880 C884 1.368 . S
C881 C862 1.429 . S
C881 C875 1.429 . S
C881 C882 1.523 1_556 S
C882 C863 1.370 . S
C882 C876 1.368 . S
C882 C881 1.523 1_554 S
C883 C867 1.429 . S
C883 C879 1.429 . S
C883 C884 1.523 . S
C884 C868 1.368 . S
C884 C880 1.368 . S
C884 C883 1.523 . S
H885 C860 0.950 . S
H886 C862 0.950 . S
H887 C863 0.912 1_556 S
H888 C865 0.950 . S
H889 C867 0.950 . S
C890 C891 1.349 . S
C890 C892 1.327 . S
C890 H915 0.950 . S
C891 C890 1.349 . S
C891 C907 1.349 . S
C892 C890 1.327 . S
C892 C911 1.429 . S
C892 H916 0.950 . S
C893 C910 1.574 . S
C893 C912 1.368 . S
C893 H917 0.949 . S
H894 C898 0.949 . S
C895 C896 1.349 . S
C895 C897 1.327 . S
C895 H918 0.950 . S
C896 C895 1.349 . S
C896 C908 1.349 . S
C897 C895 1.327 . S
C897 C913 1.429 . S
C897 H919 0.950 . S
C898 H894 0.949 . S
C898 C906 1.574 . S
C898 C914 1.368 . S
H899 C907 0.950 . S
H900 C905 0.950 . S
H901 C906 0.949 . S
H902 C908 0.950 . S
H903 C909 0.950 . S
H904 C910 0.949 . S
C905 H900 0.950 . S
C905 C907 1.327 . S
C905 C911 1.429 . S
C906 C898 1.574 . S
C906 H901 0.949 . S
C906 C912 1.368 . S
C907 C891 1.349 . S
C907 H899 0.950 . S
C907 C905 1.327 . S
C908 C896 1.349 . S
C908 H902 0.950 . S
C908 C909 1.327 . S
C909 H903 0.950 . S
C909 C908 1.327 . S
C909 C913 1.429 . S
C910 C893 1.574 . S
C910 H904 0.949 . S
C910 C914 1.368 . S
C911 C892 1.429 . S
C911 C905 1.429 . S
C911 C912 1.523 . S
C912 C893 1.368 . S
C912 C906 1.368 . S
C912 C911 1.523 . S
C913 C897 1.429 . S
C913 C909 1.429 . S
C913 C914 1.523 . S
C914 C898 1.368 . S
C914 C910 1.368 . S
C914 C913 1.523 . S
H915 C890 0.950 . S
H916 C892 0.950 . S
H917 C893 0.949 . S
H918 C895 0.950 . S
H919 C897 0.950 . S
C920 C921 1.349 . S
C920 C922 1.327 . S
C920 H945 0.950 . S
C921 C920 1.349 . S
C921 C937 1.349 . S
C922 C920 1.327 . S
C922 C941 1.429 . S
C922 H946 0.950 . S
C923 C940 1.574 . S
C923 C942 1.368 . S
C923 H947 0.949 . S
H924 C928 0.949 . S
C925 C926 1.349 . S
C925 C927 1.327 . S
C925 H948 0.950 . S
C926 C925 1.349 . S
C926 C938 1.349 . S
C927 C925 1.327 . S
C927 C943 1.429 . S
C927 H949 0.950 . S
C928 H924 0.949 . S
C928 C936 1.574 . S
C928 C944 1.368 . S
H929 C937 0.950 . S
H930 C935 0.950 . S
H931 C936 0.949 . S
H932 C938 0.950 . S
H933 C939 0.950 . S
H934 C940 0.949 . S
C935 H930 0.950 . S
C935 C937 1.327 . S
C935 C941 1.429 . S
C936 C928 1.574 . S
C936 H931 0.949 . S
C936 C942 1.368 . S
C937 C921 1.349 . S
C937 H929 0.950 . S
C937 C935 1.327 . S
C938 C926 1.349 . S
C938 H932 0.950 . S
C938 C939 1.327 . S
C939 H933 0.950 . S
C939 C938 1.327 . S
C939 C943 1.429 . S
C940 C923 1.574 . S
C940 H934 0.949 . S
C940 C944 1.368 . S
C941 C922 1.429 . S
C941 C935 1.429 . S
C941 C942 1.523 . S
C942 C923 1.368 . S
C942 C936 1.368 . S
C942 C941 1.523 . S
C943 C927 1.429 . S
C943 C939 1.429 . S
C943 C944 1.523 . S
C944 C928 1.368 . S
C944 C940 1.368 . S
C944 C943 1.523 . S
H945 C920 0.950 . S
H946 C922 0.950 . S
H947 C923 0.949 . S
H948 C925 0.950 . S
H949 C927 0.950 . S
C950 C951 1.349 . S
C950 C952 1.327 . S
C950 H975 0.950 . S
C951 C950 1.349 . S
C951 C967 1.349 . S
C952 C950 1.327 . S
C952 C971 1.429 . S
C952 H976 0.950 . S
C953 C970 1.574 . S
C953 C972 1.368 . S
C953 H977 0.949 . S
H954 C958 0.949 . S
C955 C956 1.349 . S
C955 C957 1.327 . S
C955 H978 0.950 . S
C956 C955 1.349 . S
C956 C968 1.349 . S
C957 C955 1.327 . S
C957 C973 1.429 . S
C957 H979 0.950 . S
C958 H954 0.949 . S
C958 C966 1.574 . S
C958 C974 1.368 . S
H959 C967 0.950 . S
H960 C965 0.950 . S
H961 C966 0.949 . S
H962 C968 0.950 . S
H963 C969 0.950 . S
H964 C970 0.949 . S
C965 H960 0.950 . S
C965 C967 1.327 . S
C965 C971 1.429 . S
C966 C958 1.574 . S
C966 H961 0.949 . S
C966 C972 1.368 . S
C967 C951 1.349 . S
C967 H959 0.950 . S
C967 C965 1.327 . S
C968 C956 1.349 . S
C968 H962 0.950 . S
C968 C969 1.327 . S
C969 H963 0.950 . S
C969 C968 1.327 . S
C969 C973 1.429 . S
C970 C953 1.574 . S
C970 H964 0.949 . S
C970 C974 1.368 . S
C971 C952 1.429 . S
C971 C965 1.429 . S
C971 C972 1.523 . S
C972 C953 1.368 . S
C972 C966 1.368 . S
C972 C971 1.523 . S
C973 C957 1.429 . S
C973 C969 1.429 . S
C973 C974 1.523 . S
C974 C958 1.368 . S
C974 C970 1.368 . S
C974 C973 1.523 . S
H975 C950 0.950 . S
H976 C952 0.950 . S
H977 C953 0.949 . S
H978 C955 0.950 . S
H979 C957 0.950 . S
C980 C981 1.349 . S
C980 C982 1.327 . S
C980 H1005 0.950 . S
C981 C980 1.349 . S
C981 C997 1.349 . S
C982 C980 1.327 . S
C982 C1001 1.429 . S
C982 H1006 0.950 . S
C983 C1000 1.574 . S
C983 C1002 1.368 . S
C983 H1007 0.949 . S
H984 C988 0.949 . S
C985 C986 1.349 . S
C985 C987 1.327 . S
C985 H1008 0.950 . S
C986 C985 1.349 . S
C986 C998 1.349 . S
C987 C985 1.327 . S
C987 C1003 1.429 . S
C987 H1009 0.950 . S
C988 H984 0.949 . S
C988 C996 1.574 . S
C988 C1004 1.368 . S
H989 C997 0.950 . S
H990 C995 0.950 . S
H991 C996 0.949 . S
H992 C998 0.950 . S
H993 C999 0.950 . S
H994 C1000 0.949 . S
C995 H990 0.950 . S
C995 C997 1.327 . S
C995 C1001 1.429 . S
C996 C988 1.574 . S
C996 H991 0.949 . S
C996 C1002 1.368 . S
C997 C981 1.349 . S
C997 H989 0.950 . S
C997 C995 1.327 . S
C998 C986 1.349 . S
C998 H992 0.950 . S
C998 C999 1.327 . S
C999 H993 0.950 . S
C999 C998 1.327 . S
C999 C1003 1.429 . S
C1000 C983 1.574 . S
C1000 H994 0.949 . S
C1000 C1004 1.368 . S
C1001 C982 1.429 . S
C1001 C995 1.429 . S
C1001 C1002 1.523 . S
C1002 C983 1.368 . S
C1002 C996 1.368 . S
C1002 C1001 1.523 . S
C1003 C987 1.429 . S
C1003 C999 1.429 . S
C1003 C1004 1.523 . S
C1004 C988 1.368 . S
C1004 C1000 1.368 . S
C1004 C1003 1.523 . S
H1005 C980 0.950 . S
H1006 C982 0.950 . S
H1007 C983 0.949 . S
H1008 C985 0.950 . S
H1009 C987 0.950 . S
C1010 C1011 1.349 . S
C1010 C1012 1.327 . S
C1010 H1035 0.950 . S
C1011 C1010 1.349 . S
C1011 C1027 1.349 . S
C1012 C1010 1.327 . S
C1012 C1031 1.429 . S
C1012 H1036 0.950 . S
C1013 C1030 1.574 . S
C1013 C1032 1.368 . S
C1013 H1037 0.949 . S
H1014 C1018 0.949 . S
C1015 C1016 1.349 . S
C1015 C1017 1.327 . S
C1015 H1038 0.950 . S
C1016 C1015 1.349 . S
C1016 C1028 1.349 . S
C1017 C1015 1.327 . S
C1017 C1033 1.429 . S
C1017 H1039 0.950 . S
C1018 H1014 0.949 . S
C1018 C1026 1.574 . S
C1018 C1034 1.368 . S
H1019 C1027 0.950 . S
H1020 C1025 0.950 . S
H1021 C1026 0.949 . S
H1022 C1028 0.950 . S
H1023 C1029 0.950 . S
H1024 C1030 0.949 . S
C1025 H1020 0.950 . S
C1025 C1027 1.327 . S
C1025 C1031 1.429 . S
C1026 C1018 1.574 . S
C1026 H1021 0.949 . S
C1026 C1032 1.368 . S
C1027 C1011 1.349 . S
C1027 H1019 0.950 . S
C1027 C1025 1.327 . S
C1028 C1016 1.349 . S
C1028 H1022 0.950 . S
C1028 C1029 1.327 . S
C1029 H1023 0.950 . S
C1029 C1028 1.327 . S
C1029 C1033 1.429 . S
C1030 C1013 1.574 . S
C1030 H1024 0.949 . S
C1030 C1034 1.368 . S
C1031 C1012 1.429 . S
C1031 C1025 1.429 . S
C1031 C1032 1.523 . S
C1032 C1013 1.368 . S
C1032 C1026 1.368 . S
C1032 C1031 1.523 . S
C1033 C1017 1.429 . S
C1033 C1029 1.429 . S
C1033 C1034 1.523 . S
C1034 C1018 1.368 . S
C1034 C1030 1.368 . S
C1034 C1033 1.523 . S
H1035 C1010 0.950 . S
H1036 C1012 0.950 . S
H1037 C1013 0.949 . S
H1038 C1015 0.950 . S
H1039 C1017 0.950 . S
C1040 C1041 1.349 . S
C1040 C1042 1.327 . S
C1040 H1065 0.950 . S
C1041 C1040 1.349 . S
C1041 C1057 1.349 . S
C1042 C1040 1.327 . S
C1042 C1061 1.429 . S
C1042 H1066 0.950 . S
C1043 C1060 1.574 . S
C1043 C1062 1.368 . S
C1043 H1067 0.949 . S
H1044 C1048 0.949 . S
C1045 C1046 1.349 . S
C1045 C1047 1.327 . S
C1045 H1068 0.950 . S
C1046 C1045 1.349 . S
C1046 C1058 1.349 . S
C1047 C1045 1.327 . S
C1047 C1063 1.429 . S
C1047 H1069 0.950 . S
C1048 H1044 0.949 . S
C1048 C1056 1.574 . S
C1048 C1064 1.368 . S
H1049 C1057 0.950 . S
H1050 C1055 0.950 . S
H1051 C1056 0.949 . S
H1052 C1058 0.943 1_455 S
H1053 C1059 0.950 . S
H1054 C1060 0.949 . S
C1055 H1050 0.950 . S
C1055 C1057 1.327 . S
C1055 C1061 1.429 . S
C1056 C1048 1.574 . S
C1056 H1051 0.949 . S
C1056 C1062 1.368 . S
C1057 C1041 1.349 . S
C1057 H1049 0.950 . S
C1057 C1055 1.327 . S
C1058 C1046 1.349 . S
C1058 H1052 0.943 1_655 S
C1058 C1059 1.327 . S
C1059 H1053 0.950 . S
C1059 C1058 1.327 . S
C1059 C1063 1.429 . S
C1060 C1043 1.574 . S
C1060 H1054 0.949 . S
C1060 C1064 1.368 . S
C1061 C1042 1.429 . S
C1061 C1055 1.429 . S
C1061 C1062 1.523 . S
C1062 C1043 1.368 . S
C1062 C1056 1.368 . S
C1062 C1061 1.523 . S
C1063 C1047 1.429 . S
C1063 C1059 1.429 . S
C1063 C1064 1.523 . S
C1064 C1048 1.368 . S
C1064 C1060 1.368 . S
C1064 C1063 1.523 . S
H1065 C1040 0.950 . S
H1066 C1042 0.950 . S
H1067 C1043 0.949 . S
H1068 C1045 0.950 . S
H1069 C1047 0.950 . S
C1070 C1071 1.349 . S
C1070 C1072 1.327 . S
C1070 H1095 0.950 . S
C1071 C1070 1.349 . S
C1071 C1087 1.349 . S
C1072 C1070 1.327 . S
C1072 C1091 1.429 . S
C1072 H1096 0.950 . S
C1073 C1090 1.574 . S
C1073 C1092 1.368 . S
C1073 H1097 0.949 . S
H1074 C1078 0.949 . S
C1075 C1076 1.349 . S
C1075 C1077 1.327 . S
C1075 H1098 0.950 . S
C1076 C1075 1.349 . S
C1076 C1088 1.349 . S
C1077 C1075 1.327 . S
C1077 C1093 1.429 . S
C1077 H1099 0.950 . S
C1078 H1074 0.949 . S
C1078 C1086 1.574 . S
C1078 C1094 1.368 . S
H1079 C1087 0.950 . S
H1080 C1085 0.950 . S
H1081 C1086 0.949 . S
H1082 C1088 0.950 . S
H1083 C1089 0.950 . S
H1084 C1090 0.949 . S
C1085 H1080 0.950 . S
C1085 C1087 1.327 . S
C1085 C1091 1.429 . S
C1086 C1078 1.574 . S
C1086 H1081 0.949 . S
C1086 C1092 1.368 . S
C1087 C1071 1.349 . S
C1087 H1079 0.950 . S
C1087 C1085 1.327 . S
C1088 C1076 1.349 . S
C1088 H1082 0.950 . S
C1088 C1089 1.327 . S
C1089 H1083 0.950 . S
C1089 C1088 1.327 . S
C1089 C1093 1.429 . S
C1090 C1073 1.574 . S
C1090 H1084 0.949 . S
C1090 C1094 1.368 . S
C1091 C1072 1.429 . S
C1091 C1085 1.429 . S
C1091 C1092 1.523 . S
C1092 C1073 1.368 . S
C1092 C1086 1.368 . S
C1092 C1091 1.523 . S
C1093 C1077 1.429 . S
C1093 C1089 1.429 . S
C1093 C1094 1.523 . S
C1094 C1078 1.368 . S
C1094 C1090 1.368 . S
C1094 C1093 1.523 . S
H1095 C1070 0.950 . S
H1096 C1072 0.950 . S
H1097 C1073 0.949 . S
H1098 C1075 0.950 . S
H1099 C1077 0.950 . S
C1100 C1101 1.349 . S
C1100 C1102 1.327 . S
C1100 H1125 0.950 . S
C1101 C1100 1.349 . S
C1101 C1117 1.349 . S
C1102 C1100 1.327 . S
C1102 C1121 1.429 . S
C1102 H1126 0.950 . S
C1103 C1120 1.574 . S
C1103 C1122 1.368 . S
C1103 H1127 0.949 . S
H1104 C1108 0.949 . S
C1105 C1106 1.349 . S
C1105 C1107 1.327 . S
C1105 H1128 0.950 . S
C1106 C1105 1.349 . S
C1106 C1118 1.349 . S
C1107 C1105 1.327 . S
C1107 C1123 1.429 . S
C1107 H1129 0.950 . S
C1108 H1104 0.949 . S
C1108 C1116 1.574 . S
C1108 C1124 1.368 . S
H1109 C1117 0.950 . S
H1110 C1115 0.950 . S
H1111 C1116 0.949 . S
H1112 C1118 0.950 . S
H1113 C1119 0.950 . S
H1114 C1120 0.949 . S
C1115 H1110 0.950 . S
C1115 C1117 1.327 . S
C1115 C1121 1.429 . S
C1116 C1108 1.574 . S
C1116 H1111 0.949 . S
C1116 C1122 1.368 . S
C1117 C1101 1.349 . S
C1117 H1109 0.950 . S
C1117 C1115 1.327 . S
C1118 C1106 1.349 . S
C1118 H1112 0.950 . S
C1118 C1119 1.327 . S
C1119 H1113 0.950 . S
C1119 C1118 1.327 . S
C1119 C1123 1.429 . S
C1120 C1103 1.574 . S
C1120 H1114 0.949 . S
C1120 C1124 1.368 . S
C1121 C1102 1.429 . S
C1121 C1115 1.429 . S
C1121 C1122 1.523 . S
C1122 C1103 1.368 . S
C1122 C1116 1.368 . S
C1122 C1121 1.523 . S
C1123 C1107 1.429 . S
C1123 C1119 1.429 . S
C1123 C1124 1.523 . S
C1124 C1108 1.368 . S
C1124 C1120 1.368 . S
C1124 C1123 1.523 . S
H1125 C1100 0.950 . S
H1126 C1102 0.950 . S
H1127 C1103 0.949 . S
H1128 C1105 0.950 . S
H1129 C1107 0.950 . S
C1130 C1131 1.349 . S
C1130 C1132 1.327 . S
C1130 H1155 0.950 . S
C1131 C1130 1.349 . S
C1131 C1147 1.349 . S
C1132 C1130 1.327 . S
C1132 C1151 1.429 . S
C1132 H1156 0.950 . S
C1133 C1150 1.574 . S
C1133 C1152 1.368 . S
C1133 H1157 0.949 . S
H1134 C1138 0.949 . S
C1135 C1136 1.349 . S
C1135 C1137 1.327 . S
C1135 H1158 0.950 . S
C1136 C1135 1.349 . S
C1136 C1148 1.349 . S
C1137 C1135 1.327 . S
C1137 C1153 1.429 . S
C1137 H1159 0.950 . S
C1138 H1134 0.949 . S
C1138 C1146 1.574 . S
C1138 C1154 1.368 . S
H1139 C1147 0.950 . S
H1140 C1145 0.950 . S
H1141 C1146 0.949 . S
H1142 C1148 0.950 . S
H1143 C1149 0.950 . S
H1144 C1150 0.949 . S
C1145 H1140 0.950 . S
C1145 C1147 1.327 . S
C1145 C1151 1.429 . S
C1146 C1138 1.574 . S
C1146 H1141 0.949 . S
C1146 C1152 1.368 . S
C1147 C1131 1.349 . S
C1147 H1139 0.950 . S
C1147 C1145 1.327 . S
C1148 C1136 1.349 . S
C1148 H1142 0.950 . S
C1148 C1149 1.327 . S
C1149 H1143 0.950 . S
C1149 C1148 1.327 . S
C1149 C1153 1.429 . S
C1150 C1133 1.574 . S
C1150 H1144 0.949 . S
C1150 C1154 1.368 . S
C1151 C1132 1.429 . S
C1151 C1145 1.429 . S
C1151 C1152 1.523 . S
C1152 C1133 1.368 . S
C1152 C1146 1.368 . S
C1152 C1151 1.523 . S
C1153 C1137 1.429 . S
C1153 C1149 1.429 . S
C1153 C1154 1.523 . S
C1154 C1138 1.368 . S
C1154 C1150 1.368 . S
C1154 C1153 1.523 . S
H1155 C1130 0.950 . S
H1156 C1132 0.950 . S
H1157 C1133 0.949 . S
H1158 C1135 0.950 . S
H1159 C1137 0.950 . S
C441 N83 1.658 . S
C446 C178 1.656 . S
C476 C262 1.656 . S
C471 N96 1.658 . S
C506 C255 1.669 . S
C501 N57 1.648 . S
C531 N70 1.648 . S
C536 C171 1.669 . S
C566 C335 1.656 . S
C561 N31 1.660 . S
C596 C419 1.656 . S
C591 N44 1.660 . S
C621 N5 1.650 . S
C626 C412 1.669 . S
C651 N18 1.650 . S
C656 C328 1.669 . S
C686 C162 1.469 . S
C681 N14 1.628 . S
C716 C246 1.469 . S
C711 N1 1.629 . S
C746 C257 1.420 . S
C741 N40 1.635 . S
C776 C173 1.420 . S
C771 N27 1.635 . S
C806 C341 1.469 . S
C801 N66 1.620 . S
C831 N53 1.620 . S
C836 C425 1.469 . S
C866 C414 1.420 . S
C861 N92 1.627 . S
C891 N79 1.628 . S
C896 C330 1.420 . S
C926 C160 1.567 . S
C921 N2 1.568 . S
C956 C244 1.567 . S
C951 N15 1.568 . S
C981 N28 1.566 . S
C986 C251 1.539 . S
C1016 C167 1.539 . S
C1011 N41 1.565 . S
C1046 C339 1.567 . S
C1041 N54 1.564 . S
C1071 N67 1.564 . S
C1076 C423 1.567 . S
C1101 N80 1.561 . S
C1106 C430 1.539 . S
C1131 N93 1.561 . S
C1136 C346 1.539 . S
