# Generated by pormake.
# Topology pth, (4,4)-cn, num edge types: 1
# Building blocks:
#     Node 0, Type 0, BuildingBlock: KUFVIS_clean_sbu_0, # of connection points: 4
#     Node 1, Type 0, BuildingBlock: KUFVIS_clean_sbu_0, # of connection points: 4
#     Node 2, Type 0, BuildingBlock: KUFVIS_clean_sbu_0, # of connection points: 4
#     Node 3, Type 1, BuildingBlock: MUDLON_clean_linker_0, # of connection points: 4
#     Node 4, Type 1, BuildingBlock: MUDLON_clean_linker_0, # of connection points: 4
#     Node 5, Type 1, BuildingBlock: MUDLON_clean_linker_0, # of connection points: 4
#     Edge 6, Type (0, 1), BuildingBlock: OJICUG_clean_linker_0, # of connection points: 2
#     Edge 7, Type (0, 1), BuildingBlock: OJICUG_clean_linker_0, # of connection points: 2
#     Edge 8, Type (0, 1), BuildingBlock: OJICUG_clean_linker_0, # of connection points: 2
#     Edge 9, Type (0, 1), BuildingBlock: OJICUG_clean_linker_0, # of connection points: 2
#     Edge 10, Type (0, 1), BuildingBlock: OJICUG_clean_linker_0, # of connection points: 2
#     Edge 11, Type (0, 1), BuildingBlock: OJICUG_clean_linker_0, # of connection points: 2
#     Edge 12, Type (0, 1), BuildingBlock: OJICUG_clean_linker_0, # of connection points: 2
#     Edge 13, Type (0, 1), BuildingBlock: OJICUG_clean_linker_0, # of connection points: 2
#     Edge 14, Type (0, 1), BuildingBlock: OJICUG_clean_linker_0, # of connection points: 2
#     Edge 15, Type (0, 1), BuildingBlock: OJICUG_clean_linker_0, # of connection points: 2
#     Edge 16, Type (0, 1), BuildingBlock: OJICUG_clean_linker_0, # of connection points: 2
#     Edge 17, Type (0, 1), BuildingBlock: OJICUG_clean_linker_0, # of connection points: 2
# Relax obj value: 0.040
# Max RMSD: 0.105
# Mean RMSD: 0.093
data_MOF--net-pth--node1-KUFVIS_clean_sbu_0--node2-MUDLON_clean_linker_0--edge1-OJICUG_clean_linker_0
_symmetry_space_group_name_H-M    P1
_symmetry_Int_Tables_number       1
_symmetry_cell_setting            triclinic
loop_
_symmetry_equiv_pos_as_xyz
'x, y, z'
_cell_length_a     26.644135
_cell_length_b     26.693977
_cell_length_c     55.030609
_cell_angle_alpha  90.488631
_cell_angle_beta   91.893853
_cell_angle_gamma 120.22444
loop_
_atom_site_label
_atom_site_type_symbol
_atom_site_fract_x
_atom_site_fract_y
_atom_site_fract_z
_atom_type_partial_charge
Mn0 Mn 0.01721 0.01229 0.03632 0.0
Mn1 Mn 0.94166 0.06473 0.00644 0.0
C2 C 0.96667 0.9671 0.00056 0.0
C3 C 0.01906 0.95246 0.06649 0.0
C4 C 0.07271 0.11948 0.00513 0.0
O5 O 0.01348 0.06667 0.06122 0.0
O6 O 0.9565 0.09358 0.04097 0.0
C7 C 0.8313 0.00207 0.03181 0.0
N8 N 0.86044 0.01533 0.0108 0.0
C9 C 0.77168 0.95754 0.98692 0.0
C10 C 0.74063 0.94356 0.00828 0.0
C11 C 0.77061 0.96579 0.03083 0.0
C12 C 0.83208 0.99404 0.98902 0.0
H13 H 0.85424 0.01906 0.04917 0.0
C14 C 0.98583 0.09413 0.06001 0.0
O15 O 0.06705 0.99633 0.05939 0.0
O16 O 0.97087 0.94469 0.05655 0.0
N17 N 0.92386 0.0406 0.97289 0.0
C18 C 0.96064 0.05518 0.95422 0.0
C19 C 0.93779 0.03453 0.93052 0.0
C20 C 0.8774 0.99974 0.92623 0.0
C21 C 0.84038 0.98589 0.9457 0.0
C22 C 0.86565 0.00771 0.96892 0.0
H23 H 0.00708 0.082 0.95742 0.0
O24 O 0.00809 0.95905 0.00893 0.0
O25 O 0.955 1.00042 0.0138 0.0
O26 O 0.07776 0.08205 0.01769 0.0
O27 O 0.02444 0.11757 0.00054 0.0
C28 C 0.77949 0.95036 0.94306 0.0
C29 C 0.74519 0.93599 0.96366 0.0
H30 H 0.69384 0.91542 0.0076 0.0
H31 H 0.74699 0.95497 0.0474 0.0
H32 H 0.96664 0.04536 0.9156 0.0
H33 H 0.85996 0.98357 0.90796 0.0
H34 H 0.75863 0.93325 0.92531 0.0
H35 H 0.69852 0.90787 0.96144 0.0
Mn36 Mn 0.01473 0.02298 0.37088 0.0
Mn37 Mn 0.09303 0.15179 0.4012 0.0
C38 C 0.07623 0.03203 0.4033 0.0
C39 C 0.00415 0.96041 0.33883 0.0
C40 C 0.96461 0.06961 0.40823 0.0
O41 O 0.00936 0.07959 0.34786 0.0
O42 O 0.06795 0.16373 0.36839 0.0
C43 C 0.19525 0.2044 0.37037 0.0
N44 N 0.17243 0.18766 0.39263 0.0
C45 C 0.2675 0.22489 0.41179 0.0
C46 C 0.29209 0.24283 0.3891 0.0
C47 C 0.25577 0.23229 0.36828 0.0
C48 C 0.2069 0.19695 0.41272 0.0
H49 H 0.16747 0.19655 0.35435 0.0
C50 C 0.03573 0.13485 0.34978 0.0
O51 O 0.95932 0.95515 0.34974 0.0
O52 O 0.05484 0.00268 0.34617 0.0
N53 N 0.12087 0.14761 0.4332 0.0
C54 C 0.09018 0.12588 0.45358 0.0
C55 C 0.12002 0.13177 0.47591 0.0
C56 C 0.18105 0.16078 0.47713 0.0
C57 C 0.21171 0.1837 0.456 0.0
C58 C 0.17963 0.17629 0.43425 0.0
H59 H 0.04329 0.10399 0.45281 0.0
O60 O 0.03425 0.98134 0.39598 0.0
O61 O 0.08189 0.07602 0.39111 0.0
O62 O 0.95877 0.02923 0.39374 0.0
O63 O 0.01239 0.11751 0.41171 0.0
C64 C 0.27283 0.21328 0.45563 0.0
C65 C 0.3007 0.23339 0.43351 0.0
H66 H 0.33875 0.26449 0.38742 0.0
H67 H 0.2744 0.24583 0.35069 0.0
H68 H 0.09603 0.11408 0.49215 0.0
H69 H 0.20392 0.16507 0.49436 0.0
H70 H 0.29881 0.22019 0.47221 0.0
H71 H 0.34769 0.25522 0.4334 0.0
Mn72 Mn 0.04255 0.04571 0.70481 0.0
Mn73 Mn 0.9752 0.10679 0.733 0.0
C74 C 0.08607 0.10315 0.73927 0.0
C75 C 0.10277 0.04955 0.67422 0.0
C76 C 0.93954 0.97984 0.7369 0.0
O77 O 0.97955 0.03601 0.6801 0.0
O78 O 0.94595 0.08844 0.69846 0.0
C79 C 0.024 0.21674 0.70669 0.0
N80 N 0.01513 0.18837 0.72797 0.0
C81 C 0.06423 0.27841 0.75116 0.0
C82 C 0.07357 0.30863 0.72951 0.0
C83 C 0.05353 0.27764 0.70717 0.0
C84 C 0.03456 0.21774 0.74954 0.0
H85 H 0.0087 0.19304 0.68949 0.0
C86 C 0.94735 0.05873 0.68034 0.0
O87 O 0.06504 1.00041 0.68317 0.0
O88 O 0.10454 0.09588 0.68271 0.0
N89 N 0.99933 0.12714 0.76652 0.0
C90 C 0.98906 0.09157 0.78564 0.0
C91 C 0.00771 0.11581 0.80925 0.0
C92 C 0.03607 0.17624 0.81299 0.0
C93 C 0.0454 0.2119 0.79309 0.0
C94 C 0.02577 0.18529 0.76999 0.0
H95 H 0.96705 0.04507 0.78291 0.0
O96 O 0.10213 0.0673 0.73184 0.0
O97 O 0.04621 0.10554 0.72584 0.0
O98 O 0.98116 0.98192 0.72526 0.0
O99 O 0.93173 0.02298 0.73973 0.0
C100 C 0.07405 0.27285 0.79522 0.0
C101 C 0.08377 0.30611 0.77426 0.0
H102 H 0.0964 0.3556 0.7298 0.0
H103 H 0.0608 0.30066 0.69037 0.0
H104 H 1.00028 0.08797 0.82452 0.0
H105 H 0.05072 0.1948 0.83121 0.0
H106 H 0.08948 0.29463 0.81286 0.0
H107 H 0.10668 0.35299 0.7761 0.0
H108 H 0.88371 0.68309 0.22837 0.0
N109 N 0.9697 0.68925 0.20331 0.0
H110 H 0.89069 0.74758 0.26159 0.0
H111 H 0.07041 0.77136 0.22696 0.0
H112 H 0.07842 0.83223 0.26156 0.0
H113 H 0.07359 0.7566 0.18208 0.0
H114 H 0.08973 0.81809 0.14702 0.0
H115 H 0.89045 0.69741 0.17635 0.0
H116 H 0.90597 0.76022 0.14217 0.0
H117 H 0.89329 0.57865 0.19307 0.0
H118 H 0.07376 0.69404 0.21361 0.0
H119 H 0.91048 0.49685 0.19178 0.0
H120 H 0.09086 0.61289 0.21359 0.0
H121 H 0.95153 0.26542 0.21803 0.0
H122 H 0.9435 0.21153 0.25477 0.0
H123 H 0.12402 0.33265 0.27428 0.0
H124 H 0.13123 0.38675 0.23763 0.0
H125 H 0.12651 0.34243 0.18042 0.0
H126 H 0.10858 0.2771 0.14562 0.0
H127 H 0.92819 0.23174 0.14175 0.0
H128 H 0.94705 0.29825 0.17636 0.0
H129 H 0.94897 0.35514 0.2155 0.0
H130 H 0.92991 0.43545 0.21612 0.0
H131 H 0.09885 0.54738 0.18734 0.0
N132 N 0.05015 0.3603 0.20269 0.0
H133 H 0.11837 0.46721 0.18797 0.0
C134 C 0.97625 0.72124 0.22552 0.0
C135 C 0.92624 0.71501 0.2359 0.0
C136 C 0.9305 0.75199 0.255 0.0
C137 C 0.98523 0.79571 0.26445 0.0
C138 C 0.03543 0.80012 0.25458 0.0
C139 C 0.03101 0.76406 0.23506 0.0
C140 C 0.98048 0.72179 0.18152 0.0
C141 C 0.03677 0.75638 0.17311 0.0
C142 C 0.04599 0.79205 0.15321 0.0
C143 C 0.99917 0.7941 0.14159 0.0
C144 C 0.94298 0.75893 0.15014 0.0
C145 C 0.93387 0.72308 0.16976 0.0
C146 C 0.9818 0.64237 0.20364 0.0
C147 C 0.93646 0.58615 0.19759 0.0
C148 C 0.94637 0.53945 0.19702 0.0
C149 C 0.00211 0.54799 0.20263 0.0
C150 C 0.04754 0.60459 0.2088 0.0
C151 C 0.03763 0.65131 0.20913 0.0
C152 C 0.04222 0.33033 0.22514 0.0
C153 C 0.98916 0.28081 0.23034 0.0
C154 C 0.98473 0.24974 0.25129 0.0
C155 C 0.03315 0.26764 0.26744 0.0
C156 C 0.08566 0.31804 0.26242 0.0
C157 C 0.09 0.34895 0.24149 0.0
C158 C 0.03838 0.32525 0.1809 0.0
C159 C 0.08332 0.31882 0.17183 0.0
C160 C 0.07279 0.28107 0.15214 0.0
C161 C 0.01677 0.24867 0.14108 0.0
C162 C 0.97187 0.25628 0.14979 0.0
C163 C 0.98253 0.29418 0.16959 0.0
C164 C 0.03563 0.40551 0.20197 0.0
C165 C 0.98197 0.39694 0.20942 0.0
C166 C 0.97095 0.443 0.20956 0.0
C167 C 0.013 0.49833 0.20197 0.0
C168 C 0.06593 0.50598 0.19388 0.0
C169 C 0.07705 0.46011 0.19399 0.0
H170 H 0.77292 0.08951 0.54997 0.0
N171 N 0.67734 0.98569 0.53543 0.0
H172 H 0.83792 0.10714 0.58538 0.0
H173 H 0.66753 0.9105 0.56901 0.0
H174 H 0.73335 0.9278 0.60448 0.0
H175 H 0.69916 0.91251 0.51159 0.0
H176 H 0.76232 0.93314 0.4774 0.0
H177 H 0.72578 0.0855 0.50964 0.0
H178 H 0.78814 0.1064 0.47503 0.0
H179 H 0.67959 0.07862 0.55954 0.0
H180 H 0.57371 0.92908 0.5124 0.0
H181 H 0.6013 0.09909 0.56088 0.0
H182 H 0.49578 0.95195 0.5122 0.0
H183 H 0.33756 0.16215 0.55551 0.0
H184 H 0.27689 0.15406 0.58914 0.0
H185 H 0.25199 0.98434 0.60403 0.0
H186 H 0.31002 0.99172 0.56959 0.0
H187 H 0.25864 0.98042 0.52602 0.0
H188 H 0.19231 0.96299 0.49112 0.0
H189 H 0.31098 0.13444 0.46588 0.0
H190 H 0.3768 0.15109 0.50082 0.0
H191 H 0.47181 0.15603 0.54124 0.0
H192 H 0.55038 0.13439 0.53967 0.0
H193 H 0.42328 0.95097 0.53463 0.0
N194 N 0.35846 0.08223 0.53798 0.0
H195 H 0.34552 0.97378 0.53431 0.0
C196 C 0.71472 0.99855 0.55699 0.0
C197 C 0.76343 0.05404 0.56185 0.0
C198 C 0.80059 0.06415 0.58213 0.0
C199 C 0.7906 0.01883 0.59763 0.0
C200 C 0.74215 0.96341 0.59273 0.0
C201 C 0.70441 0.95356 0.57265 0.0
C202 C 0.70787 0.99726 0.51316 0.0
C203 C 0.71765 0.95451 0.50334 0.0
C204 C 0.75355 0.96639 0.48374 0.0
C205 C 0.78056 0.02156 0.4735 0.0
C206 C 0.76865 0.06372 0.4827 0.0
C207 C 0.73271 0.05175 0.50238 0.0
C208 C 0.63264 1.00134 0.53604 0.0
C209 C 0.63982 0.05013 0.54926 0.0
C210 C 0.59468 0.06238 0.54981 0.0
C211 C 0.54167 0.02727 0.53669 0.0
C212 C 0.5352 0.97936 0.52303 0.0
C213 C 0.57997 0.96645 0.5229 0.0
C214 C 0.32916 0.07818 0.56009 0.0
C215 C 0.31967 0.12363 0.56631 0.0
C216 C 0.28503 0.11887 0.58563 0.0
C217 C 0.25937 0.06849 0.59947 0.0
C218 C 0.27021 0.02343 0.59361 0.0
C219 C 0.3043 0.02796 0.57401 0.0
C220 C 0.32241 0.06745 0.51605 0.0
C221 C 0.27065 0.01386 0.51277 0.0
C222 C 0.23248 0.00424 0.4929 0.0
C223 C 0.24541 0.04792 0.47594 0.0
C224 C 0.29908 0.09999 0.47859 0.0
C225 C 0.33695 0.10966 0.49851 0.0
C226 C 0.40302 0.06675 0.53836 0.0
C227 C 0.4612 0.11121 0.53989 0.0
C228 C 0.50603 0.09857 0.53915 0.0
C229 C 0.49362 0.04073 0.53723 0.0
C230 C 0.43489 0.99606 0.53579 0.0
C231 C 0.39008 0.00896 0.53603 0.0
H232 H 0.72168 0.79033 0.87951 0.0
N233 N 0.72717 0.69569 0.86283 0.0
H234 H 0.77834 0.85524 0.91356 0.0
H235 H 0.80352 0.68824 0.89269 0.0
H236 H 0.86238 0.75536 0.92657 0.0
H237 H 0.79998 0.6876 0.83354 0.0
H238 H 0.84302 0.74424 0.79771 0.0
H239 H 0.69239 0.76436 0.83996 0.0
H240 H 0.73966 0.8265 0.80615 0.0
H241 H 0.6397 0.70346 0.88536 0.0
H242 H 0.67665 0.58876 0.84391 0.0
H243 H 0.54128 0.62603 0.88981 0.0
H244 H 0.5758 0.51131 0.84666 0.0
H245 H 0.22354 0.37291 0.89983 0.0
H246 H 0.17529 0.31651 0.93495 0.0
H247 H 0.30713 0.268 0.9434 0.0
H248 H 0.35334 0.32246 0.90752 0.0
H249 H 0.31594 0.28132 0.86524 0.0
H250 H 0.26357 0.21587 0.8305 0.0
H251 H 0.19687 0.32735 0.8087 0.0
H252 H 0.24999 0.39269 0.84341 0.0
H253 H 0.35164 0.49141 0.87627 0.0
H254 H 0.45109 0.56963 0.87113 0.0
H255 H 0.50918 0.44457 0.87225 0.0
N256 N 0.31312 0.37889 0.87808 0.0
H257 H 0.40904 0.36678 0.87528 0.0
C258 C 0.75731 0.7332 0.88377 0.0
C259 C 0.75114 0.78117 0.88982 0.0
C260 C 0.78367 0.81859 0.90929 0.0
C261 C 0.8242 0.80989 0.9226 0.0
C262 C 0.83106 0.76259 0.91651 0.0
C263 C 0.79746 0.72429 0.89734 0.0
C264 C 0.74454 0.72315 0.83981 0.0
C265 C 0.7858 0.71692 0.82714 0.0
C266 C 0.81099 0.75017 0.80686 0.0
C267 C 0.79673 0.79195 0.79926 0.0
C268 C 0.75226 0.79516 0.81117 0.0
C269 C 0.72568 0.76031 0.83095 0.0
C270 C 0.66664 0.65203 0.86453 0.0
C271 C 0.62696 0.66196 0.87693 0.0
C272 C 0.56969 0.61721 0.87927 0.0
C273 C 0.54998 0.56181 0.86872 0.0
C274 C 0.58935 0.55269 0.85562 0.0
C275 C 0.64698 0.59715 0.85375 0.0
C276 C 0.29211 0.35245 0.90106 0.0
C277 C 0.24256 0.351 0.90959 0.0
C278 C 0.21527 0.31887 0.92982 0.0
C279 C 0.2373 0.28759 0.94223 0.0
C280 C 0.2885 0.29092 0.93419 0.0
C281 C 0.31547 0.32273 0.91371 0.0
C282 C 0.28655 0.34178 0.85686 0.0
C283 C 0.29048 0.29187 0.85285 0.0
C284 C 0.26002 0.25421 0.83308 0.0
C285 C 0.22521 0.26582 0.81696 0.0
C286 C 0.22313 0.31693 0.82068 0.0
C287 C 0.25339 0.35435 0.84048 0.0
C288 C 0.37302 0.42359 0.87672 0.0
C289 C 0.38612 0.48123 0.87551 0.0
C290 C 0.44318 0.52588 0.87272 0.0
C291 C 0.48885 0.51392 0.87146 0.0
C292 C 0.47542 0.45576 0.87282 0.0
C293 C 0.41802 0.411 0.87508 0.0
C294 C 0.96329 0.16464 0.08067 0.0
C295 C 0.99001 0.1306 0.08139 0.0
H296 H 0.95112 0.2289 0.09881 0.0
C297 C 0.02313 0.13382 0.10241 0.0
H298 H 0.93739 0.16328 0.06482 0.0
C299 C 0.03078 0.17129 0.12186 0.0
C300 C 0.00556 0.20655 0.12085 0.0
H301 H 0.04403 0.10804 0.10376 0.0
H302 H 0.05673 0.17276 0.13772 0.0
C303 C 0.97094 0.20214 0.10019 0.0
C304 C 0.86165 0.0068 0.4209 0.0
C305 C 0.91484 0.05947 0.423 0.0
H306 H 0.77702 0.95395 0.43479 0.0
C307 C 0.92134 0.10127 0.44053 0.0
H308 H 0.85487 0.97374 0.40752 0.0
C309 C 0.87689 0.08974 0.45623 0.0
C310 C 0.82464 0.03619 0.4548 0.0
H311 H 0.96159 0.14237 0.44273 0.0
H312 H 0.8846 0.12196 0.47019 0.0
C313 C 0.81707 0.99532 0.43661 0.0
C314 C 0.92484 0.89792 0.76278 0.0
C315 C 0.90115 0.92665 0.74982 0.0
H316 H 0.91184 0.83521 0.78916 0.0
C317 C 0.84183 0.90776 0.75143 0.0
H318 H 0.97073 0.91231 0.7621 0.0
C319 C 0.80703 0.86179 0.7663 0.0
C320 C 0.83129 0.83501 0.78058 0.0
H321 H 0.82254 0.92915 0.74145 0.0
H322 H 0.76141 0.84829 0.76691 0.0
C323 C 0.89061 0.85324 0.77823 0.0
C324 C 0.97003 0.85492 0.08435 0.0
C325 C 0.01793 0.91152 0.08462 0.0
H326 H 0.92798 0.77294 0.10124 0.0
C327 C 0.06238 0.92828 0.10266 0.0
H328 H 0.93559 0.84043 0.07037 0.0
C329 C 0.05736 0.88977 0.12089 0.0
C330 C 0.0082 0.83358 0.12111 0.0
H331 H 0.09979 0.97174 0.10323 0.0
H332 H 0.09091 0.9048 0.13525 0.0
C333 C 0.96553 0.81628 0.10217 0.0
C334 C 0.10135 0.00968 0.44409 0.0
C335 C 0.11938 0.0363 0.42173 0.0
H336 H 0.12708 0.99436 0.47909 0.0
C337 C 0.17822 0.0628 0.41636 0.0
H338 H 0.05584 0.98797 0.44833 0.0
C339 C 0.21907 0.06524 0.43365 0.0
C340 C 0.20169 0.04104 0.45664 0.0
H341 H 0.19257 0.08166 0.39878 0.0
H342 H 0.26425 0.08627 0.429 0.0
C343 C 0.14216 0.01277 0.46153 0.0
C344 C 0.14815 0.20431 0.75538 0.0
C345 C 0.1193 0.14457 0.75931 0.0
H346 H 0.20474 0.28965 0.77043 0.0
C347 C 0.12739 0.12455 0.78171 0.0
H348 H 0.14415 0.22043 0.73785 0.0
C349 C 0.16167 0.16388 0.80042 0.0
C350 C 0.18979 0.22402 0.79682 0.0
H351 H 0.10638 0.07845 0.78484 0.0
H352 H 0.16539 0.14711 0.81781 0.0
C353 C 0.18289 0.24376 0.774 0.0
C354 C 0.88593 0.08638 0.65478 0.0
C355 C 0.9085 0.04939 0.6588 0.0
H356 H 0.83116 0.10577 0.63218 0.0
C357 C 0.89225 0.00247 0.64241 0.0
H358 H 0.89769 0.12299 0.66702 0.0
C359 C 0.85356 0.99226 0.62267 0.0
C360 C 0.83114 0.0293 0.61869 0.0
H361 H 0.90865 0.97302 0.64506 0.0
H362 H 0.84161 0.95572 0.61036 0.0
C363 C 0.84801 0.07669 0.63481 0.0
C364 C 0.95528 0.9236 0.95927 0.0
C365 C 0.9296 0.9307 0.97988 0.0
H366 H 0.94144 0.87945 0.92478 0.0
C367 C 0.86925 0.89658 0.98193 0.0
H368 H 0.002 0.94836 0.95769 0.0
C369 C 0.83466 0.85792 0.96306 0.0
C370 C 0.86038 0.85121 0.94238 0.0
H371 H 0.84899 0.89921 0.99826 0.0
H372 H 0.78803 0.8324 0.96481 0.0
C373 C 0.92089 0.88416 0.94062 0.0
C374 C 0.0411 0.93534 0.3023 0.0
C375 C 0.99828 0.91888 0.31952 0.0
H376 H 0.06955 0.91078 0.27097 0.0
C377 C 0.95106 0.86187 0.31867 0.0
H378 H 0.0778 0.9792 0.30247 0.0
C379 C 0.94727 0.82168 0.30115 0.0
C380 C 0.98991 0.83799 0.28367 0.0
H381 H 0.91778 0.84787 0.33195 0.0
H382 H 0.91121 0.77763 0.30161 0.0
C383 C 0.0366 0.89568 0.2844 0.0
C384 C 0.13266 0.00419 0.64185 0.0
C385 C 0.14308 0.05337 0.65554 0.0
H386 H 0.16012 0.97045 0.61303 0.0
C387 C 0.19275 0.10692 0.65129 0.0
H388 H 0.09461 0.96237 0.64472 0.0
C389 C 0.23106 0.11142 0.6336 0.0
C390 C 0.22019 0.06265 0.61937 0.0
H391 H 0.20238 0.1455 0.66178 0.0
H392 H 0.26936 0.1533 0.63116 0.0
C393 C 0.17057 0.00884 0.62383 0.0
C394 C 0.15961 0.15264 0.97994 0.0
C395 C 0.12383 0.16577 0.9935 0.0
H396 H 0.22276 0.18036 0.9526 0.0
C397 C 0.13139 0.22164 0.99265 0.0
H398 H 0.15401 0.10953 0.98011 0.0
C399 C 0.17156 0.26271 0.97738 0.0
C400 C 0.20392 0.24827 0.96206 0.0
H401 H 0.10446 0.23282 0.00309 0.0
H402 H 0.17534 0.30501 0.97684 0.0
C403 C 0.19903 0.19339 0.96419 0.0
C404 C 0.05844 0.22892 0.33105 0.0
C405 C 0.03116 0.16806 0.32916 0.0
H406 H 0.07949 0.30773 0.31335 0.0
C407 C 1.00177 0.13998 0.3071 0.0
H408 H 0.08118 0.25216 0.34777 0.0
C409 C 1.00114 0.17214 0.28725 0.0
C410 C 0.02987 0.23307 0.28901 0.0
H411 H 0.98034 0.09323 0.30494 0.0
H412 H 0.97973 0.14934 0.27029 0.0
C413 C 0.05776 0.26095 0.31126 0.0
loop_
_geom_bond_atom_site_label_1
_geom_bond_atom_site_label_2
_geom_bond_distance
_geom_bond_site_symmetry_2
_ccdc_geom_bond_type
Mn0 O5 2.095 . S
Mn0 O15 2.162 1_545 S
Mn0 O16 2.297 1_445 S
Mn0 O24 2.385 1_445 S
Mn0 O25 2.214 1_445 S
Mn0 O26 2.094 . S
Mn1 O6 2.121 . S
Mn1 N8 2.257 . S
Mn1 N17 2.282 1_554 S
Mn1 O25 2.195 1_545 S
Mn1 O27 2.117 1_654 S
C2 O24 1.234 . S
C2 O25 1.301 . S
C3 O15 1.281 . S
C3 O16 1.236 1_455 S
C4 O26 1.240 . S
C4 O27 1.264 1_554 S
O5 Mn0 2.095 . S
O5 C14 1.250 . S
O6 Mn1 2.121 . S
O6 C14 1.258 1_655 S
C7 N8 1.326 . S
C7 C11 1.460 . S
C7 H13 0.929 . S
N8 Mn1 2.257 . S
N8 C7 1.326 . S
N8 C12 1.362 1_554 S
C9 C10 1.258 . S
C9 C12 1.431 . S
C9 C29 1.449 . S
C10 C9 1.258 . S
C10 C11 1.477 1_556 S
C10 H30 0.931 . S
C11 C7 1.460 . S
C11 C10 1.477 1_554 S
C11 H31 0.930 . S
C12 N8 1.362 1_556 S
C12 C9 1.431 . S
C12 C22 1.476 . S
H13 C7 0.929 . S
C14 O5 1.250 . S
C14 O6 1.258 1_455 S
O15 Mn0 2.162 1_565 S
O15 C3 1.281 . S
O16 Mn0 2.297 1_665 S
O16 C3 1.236 1_655 S
N17 Mn1 2.282 1_556 S
N17 C18 1.328 . S
N17 C22 1.318 . S
C18 N17 1.328 . S
C18 C19 1.457 . S
C18 H23 0.929 1_655 S
C19 C18 1.457 . S
C19 C20 1.291 . S
C19 H32 0.931 . S
C20 C19 1.291 . S
C20 C21 1.373 . S
C20 H33 0.929 1_545 S
C21 C20 1.373 . S
C21 C22 1.396 . S
C21 C28 1.403 1_545 S
C22 C12 1.476 . S
C22 N17 1.318 . S
C22 C21 1.396 . S
H23 C18 0.929 1_455 S
O24 Mn0 2.385 1_665 S
O24 C2 1.234 . S
O25 Mn0 2.214 1_665 S
O25 Mn1 2.195 1_565 S
O25 C2 1.301 . S
O26 Mn0 2.094 . S
O26 C4 1.240 . S
O27 Mn1 2.117 1_456 S
O27 C4 1.264 1_556 S
C28 C21 1.403 1_565 S
C28 C29 1.399 1_565 S
C28 H34 0.929 . S
C29 C9 1.449 . S
C29 C28 1.399 1_545 S
C29 H35 0.930 1_545 S
H30 C10 0.931 . S
H31 C11 0.930 . S
H32 C19 0.931 . S
H33 C20 0.929 1_565 S
H34 C28 0.929 . S
H35 C29 0.930 1_565 S
Mn36 O41 2.095 1_565 S
Mn36 O51 2.162 . S
Mn36 O52 2.297 1_655 S
Mn36 O60 2.385 1_655 S
Mn36 O61 2.209 1_665 S
Mn36 O62 2.094 . S
Mn37 O42 2.121 . S
Mn37 N44 2.257 . S
Mn37 N53 2.282 . S
Mn37 O61 2.215 . S
Mn37 O63 2.117 1_455 S
C38 O60 1.234 1_545 S
C38 O61 1.283 . S
C39 O51 1.281 . S
C39 O52 1.236 1_655 S
C40 O62 1.240 1_545 S
C40 O63 1.264 . S
O41 Mn36 2.095 1_545 S
O41 C50 1.250 1_655 S
O42 Mn37 2.121 . S
O42 C50 1.258 . S
C43 N44 1.326 . S
C43 C47 1.460 . S
C43 H49 0.929 . S
N44 Mn37 2.257 . S
N44 C43 1.326 . S
N44 C48 1.362 . S
C45 C46 1.258 . S
C45 C48 1.431 . S
C45 C65 1.449 . S
C46 C45 1.258 . S
C46 C47 1.477 . S
C46 H66 0.931 . S
C47 C43 1.460 . S
C47 C46 1.477 . S
C47 H67 0.930 . S
C48 N44 1.362 . S
C48 C45 1.431 . S
C48 C58 1.476 . S
H49 C43 0.929 . S
C50 O41 1.250 1_455 S
C50 O42 1.258 . S
O51 Mn36 2.162 . S
O51 C39 1.281 . S
O52 Mn36 2.297 1_455 S
O52 C39 1.236 1_455 S
N53 Mn37 2.282 . S
N53 C54 1.328 . S
N53 C58 1.318 . S
C54 N53 1.328 . S
C54 C55 1.457 . S
C54 H59 0.929 . S
C55 C54 1.457 . S
C55 C56 1.291 . S
C55 H68 0.931 . S
C56 C55 1.291 . S
C56 C57 1.373 . S
C56 H69 0.929 . S
C57 C56 1.373 . S
C57 C58 1.396 . S
C57 C64 1.403 . S
C58 C48 1.476 . S
C58 N53 1.318 . S
C58 C57 1.396 . S
H59 C54 0.929 . S
O60 Mn36 2.385 1_455 S
O60 C38 1.234 1_565 S
O61 Mn36 2.209 1_445 S
O61 Mn37 2.215 . S
O61 C38 1.283 . S
O62 Mn36 2.094 . S
O62 C40 1.240 1_565 S
O63 Mn37 2.117 1_655 S
O63 C40 1.264 . S
C64 C57 1.403 . S
C64 C65 1.399 . S
C64 H70 0.929 . S
C65 C45 1.449 . S
C65 C64 1.399 . S
C65 H71 0.930 . S
H66 C46 0.931 . S
H67 C47 0.930 . S
H68 C55 0.931 . S
H69 C56 0.929 . S
H70 C64 0.929 . S
H71 C65 0.930 . S
Mn72 O77 2.095 1_455 S
Mn72 O87 2.162 1_545 S
Mn72 O88 2.297 . S
Mn72 O96 2.385 . S
Mn72 O97 2.209 . S
Mn72 O98 2.094 1_445 S
Mn73 O78 2.121 . S
Mn73 N80 2.257 . S
Mn73 N89 2.282 . S
Mn73 O97 2.215 1_655 S
Mn73 O99 2.117 1_545 S
C74 O96 1.234 . S
C74 O97 1.283 . S
C75 O87 1.281 1_545 S
C75 O88 1.236 . S
C76 O98 1.240 . S
C76 O99 1.264 . S
O77 Mn72 2.095 1_655 S
O77 C86 1.250 . S
O78 Mn73 2.121 . S
O78 C86 1.258 . S
C79 N80 1.326 . S
C79 C83 1.460 . S
C79 H85 0.929 . S
N80 Mn73 2.257 . S
N80 C79 1.326 . S
N80 C84 1.362 1_655 S
C81 C82 1.258 . S
C81 C84 1.431 . S
C81 C101 1.449 . S
C82 C81 1.258 . S
C82 C83 1.477 1_455 S
C82 H102 0.931 . S
C83 C79 1.460 . S
C83 C82 1.477 1_655 S
C83 H103 0.930 . S
C84 N80 1.362 1_455 S
C84 C81 1.431 . S
C84 C94 1.476 . S
H85 C79 0.929 . S
C86 O77 1.250 . S
C86 O78 1.258 . S
O87 Mn72 2.162 1_565 S
O87 C75 1.281 1_565 S
O88 Mn72 2.297 . S
O88 C75 1.236 . S
N89 Mn73 2.282 . S
N89 C90 1.328 1_655 S
N89 C94 1.318 1_655 S
C90 N89 1.328 1_455 S
C90 C91 1.457 . S
C90 H95 0.929 1_455 S
C91 C90 1.457 . S
C91 C92 1.291 . S
C91 H104 0.931 . S
C92 C91 1.291 . S
C92 C93 1.373 . S
C92 H105 0.929 . S
C93 C92 1.373 . S
C93 C94 1.396 . S
C93 C100 1.403 . S
C94 C84 1.476 . S
C94 N89 1.318 1_455 S
C94 C93 1.396 . S
H95 C90 0.929 1_655 S
O96 Mn72 2.385 . S
O96 C74 1.234 . S
O97 Mn72 2.209 . S
O97 Mn73 2.215 1_455 S
O97 C74 1.283 . S
O98 Mn72 2.094 1_665 S
O98 C76 1.240 . S
O99 Mn73 2.117 1_565 S
O99 C76 1.264 . S
C100 C93 1.403 . S
C100 C101 1.399 . S
C100 H106 0.929 . S
C101 C81 1.449 . S
C101 C100 1.399 . S
C101 H107 0.930 . S
H102 C82 0.931 . S
H103 C83 0.930 . S
H104 C91 0.931 . S
H105 C92 0.929 . S
H106 C100 0.929 . S
H107 C101 0.930 . S
H108 C135 0.929 . S
N109 C134 1.433 . S
N109 C140 1.435 1_655 S
N109 C146 1.423 . S
H110 C136 0.930 . S
H111 C139 0.931 . S
H112 C138 0.929 . S
H113 C141 0.930 . S
H114 C142 0.932 . S
H115 C145 0.929 . S
H116 C144 0.931 . S
H117 C147 0.929 . S
H118 C151 0.932 . S
H119 C148 0.931 . S
H120 C150 0.929 . S
H121 C153 0.929 . S
H122 C154 0.930 . S
H123 C156 0.929 . S
H124 C157 0.931 . S
H125 C159 0.930 . S
H126 C160 0.932 . S
H127 C162 0.931 . S
H128 C163 0.929 . S
H129 C165 0.929 . S
H130 C166 0.931 . S
H131 C168 0.929 . S
N132 C152 1.433 . S
N132 C158 1.435 1_655 S
N132 C164 1.423 . S
H133 C169 0.932 . S
C134 N109 1.433 . S
C134 C135 1.363 . S
C134 C139 1.370 1_655 S
C135 H108 0.929 . S
C135 C134 1.363 . S
C135 C136 1.385 . S
C136 H110 0.930 . S
C136 C135 1.385 . S
C136 C137 1.357 1_655 S
C137 C136 1.357 1_455 S
C137 C138 1.406 . S
C138 H112 0.929 . S
C138 C137 1.406 . S
C138 C139 1.391 . S
C139 H111 0.931 . S
C139 C134 1.370 1_455 S
C139 C138 1.391 . S
C140 N109 1.435 1_455 S
C140 C141 1.358 . S
C140 C145 1.371 1_455 S
C141 H113 0.930 . S
C141 C140 1.358 . S
C141 C142 1.405 . S
C142 H114 0.932 . S
C142 C141 1.405 . S
C142 C143 1.383 . S
C143 C142 1.383 . S
C143 C144 1.393 1_455 S
C144 H116 0.931 . S
C144 C143 1.393 1_655 S
C144 C145 1.382 . S
C145 H115 0.929 . S
C145 C140 1.371 1_655 S
C145 C144 1.382 . S
C146 N109 1.423 . S
C146 C147 1.362 . S
C146 C151 1.388 1_655 S
C147 H117 0.929 . S
C147 C146 1.362 . S
C147 C148 1.376 . S
C148 H119 0.931 . S
C148 C147 1.376 . S
C148 C149 1.396 . S
C149 C148 1.396 . S
C149 C150 1.348 1_655 S
C149 C167 1.472 . S
C150 H120 0.929 . S
C150 C149 1.348 1_455 S
C150 C151 1.443 . S
C151 H118 0.932 . S
C151 C146 1.388 1_455 S
C151 C150 1.443 . S
C152 N132 1.433 . S
C152 C153 1.363 . S
C152 C157 1.370 1_655 S
C153 H121 0.929 . S
C153 C152 1.363 . S
C153 C154 1.385 . S
C154 H122 0.930 . S
C154 C153 1.385 . S
C154 C155 1.357 1_655 S
C155 C154 1.357 1_455 S
C155 C156 1.406 . S
C156 H123 0.929 . S
C156 C155 1.406 . S
C156 C157 1.391 . S
C157 H124 0.931 . S
C157 C152 1.370 1_455 S
C157 C156 1.391 . S
C158 N132 1.435 1_455 S
C158 C159 1.358 . S
C158 C163 1.371 1_455 S
C159 H125 0.930 . S
C159 C158 1.358 . S
C159 C160 1.405 . S
C160 H126 0.932 . S
C160 C159 1.405 . S
C160 C161 1.383 . S
C161 C160 1.383 . S
C161 C162 1.393 1_455 S
C162 H127 0.931 . S
C162 C161 1.393 1_655 S
C162 C163 1.382 . S
C163 H128 0.929 . S
C163 C158 1.371 1_655 S
C163 C162 1.382 . S
C164 N132 1.423 . S
C164 C165 1.362 . S
C164 C169 1.388 1_655 S
C165 H129 0.929 . S
C165 C164 1.362 . S
C165 C166 1.376 . S
C166 H130 0.931 . S
C166 C165 1.376 . S
C166 C167 1.396 . S
C167 C149 1.472 . S
C167 C166 1.396 . S
C167 C168 1.348 1_655 S
C168 H131 0.929 . S
C168 C167 1.348 1_455 S
C168 C169 1.443 . S
C169 H133 0.932 . S
C169 C164 1.388 1_455 S
C169 C168 1.443 . S
H170 C197 0.929 . S
N171 C196 1.433 . S
N171 C202 1.435 . S
N171 C208 1.423 . S
H172 C198 0.930 . S
H173 C201 0.931 . S
H174 C200 0.929 . S
H175 C203 0.930 . S
H176 C204 0.932 1_565 S
H177 C207 0.929 . S
H178 C206 0.931 . S
H179 C209 0.929 . S
H180 C213 0.932 . S
H181 C210 0.931 . S
H182 C212 0.929 . S
H183 C215 0.929 . S
H184 C216 0.930 . S
H185 C218 0.929 . S
H186 C219 0.931 . S
H187 C221 0.930 . S
H188 C222 0.932 1_565 S
H189 C224 0.931 . S
H190 C225 0.929 . S
H191 C227 0.929 . S
H192 C228 0.931 . S
H193 C230 0.929 . S
N194 C214 1.433 . S
N194 C220 1.435 . S
N194 C226 1.423 . S
H195 C231 0.932 . S
C196 N171 1.433 . S
C196 C197 1.363 . S
C196 C201 1.370 . S
C197 H170 0.929 . S
C197 C196 1.363 . S
C197 C198 1.385 . S
C198 H172 0.930 . S
C198 C197 1.385 . S
C198 C199 1.357 . S
C199 C198 1.357 . S
C199 C200 1.406 . S
C200 H174 0.929 . S
C200 C199 1.406 . S
C200 C201 1.391 . S
C201 H173 0.931 . S
C201 C196 1.370 . S
C201 C200 1.391 . S
C202 N171 1.435 . S
C202 C203 1.358 . S
C202 C207 1.371 . S
C203 H175 0.930 . S
C203 C202 1.358 . S
C203 C204 1.405 . S
C204 H176 0.932 1_545 S
C204 C203 1.405 . S
C204 C205 1.383 . S
C205 C204 1.383 . S
C205 C206 1.393 . S
C206 H178 0.931 . S
C206 C205 1.393 . S
C206 C207 1.382 . S
C207 H177 0.929 . S
C207 C202 1.371 . S
C207 C206 1.382 . S
C208 N171 1.423 . S
C208 C209 1.362 . S
C208 C213 1.388 . S
C209 H179 0.929 . S
C209 C208 1.362 . S
C209 C210 1.376 . S
C210 H181 0.931 . S
C210 C209 1.376 . S
C210 C211 1.396 . S
C211 C210 1.396 . S
C211 C212 1.348 . S
C211 C229 1.472 . S
C212 H182 0.929 . S
C212 C211 1.348 . S
C212 C213 1.443 . S
C213 H180 0.932 . S
C213 C208 1.388 . S
C213 C212 1.443 . S
C214 N194 1.433 . S
C214 C215 1.363 . S
C214 C219 1.370 . S
C215 H183 0.929 . S
C215 C214 1.363 . S
C215 C216 1.385 . S
C216 H184 0.930 . S
C216 C215 1.385 . S
C216 C217 1.357 . S
C217 C216 1.357 . S
C217 C218 1.406 . S
C218 H185 0.929 . S
C218 C217 1.406 . S
C218 C219 1.391 . S
C219 H186 0.931 . S
C219 C214 1.370 . S
C219 C218 1.391 . S
C220 N194 1.435 . S
C220 C221 1.358 . S
C220 C225 1.371 . S
C221 H187 0.930 . S
C221 C220 1.358 . S
C221 C222 1.405 . S
C222 H188 0.932 1_545 S
C222 C221 1.405 . S
C222 C223 1.383 . S
C223 C222 1.383 . S
C223 C224 1.393 . S
C224 H189 0.931 . S
C224 C223 1.393 . S
C224 C225 1.382 . S
C225 H190 0.929 . S
C225 C220 1.371 . S
C225 C224 1.382 . S
C226 N194 1.423 . S
C226 C227 1.362 . S
C226 C231 1.388 . S
C227 H191 0.929 . S
C227 C226 1.362 . S
C227 C228 1.376 . S
C228 H192 0.931 . S
C228 C227 1.376 . S
C228 C229 1.396 . S
C229 C211 1.472 . S
C229 C228 1.396 . S
C229 C230 1.348 . S
C230 H193 0.929 . S
C230 C229 1.348 . S
C230 C231 1.443 . S
C231 H195 0.932 . S
C231 C226 1.388 . S
C231 C230 1.443 . S
H232 C259 0.929 . S
N233 C258 1.433 . S
N233 C264 1.435 . S
N233 C270 1.423 . S
H234 C260 0.930 . S
H235 C263 0.931 . S
H236 C262 0.929 . S
H237 C265 0.930 . S
H238 C266 0.932 . S
H239 C269 0.929 . S
H240 C268 0.931 . S
H241 C271 0.929 . S
H242 C275 0.932 . S
H243 C272 0.931 . S
H244 C274 0.929 . S
H245 C277 0.929 . S
H246 C278 0.930 . S
H247 C280 0.929 . S
H248 C281 0.931 . S
H249 C283 0.930 . S
H250 C284 0.932 . S
H251 C286 0.931 . S
H252 C287 0.929 . S
H253 C289 0.929 . S
H254 C290 0.931 . S
H255 C292 0.929 . S
N256 C276 1.433 . S
N256 C282 1.435 . S
N256 C288 1.423 . S
H257 C293 0.932 . S
C258 N233 1.433 . S
C258 C259 1.363 . S
C258 C263 1.370 . S
C259 H232 0.929 . S
C259 C258 1.363 . S
C259 C260 1.385 . S
C260 H234 0.930 . S
C260 C259 1.385 . S
C260 C261 1.357 . S
C261 C260 1.357 . S
C261 C262 1.406 . S
C262 H236 0.929 . S
C262 C261 1.406 . S
C262 C263 1.391 . S
C263 H235 0.931 . S
C263 C258 1.370 . S
C263 C262 1.391 . S
C264 N233 1.435 . S
C264 C265 1.358 . S
C264 C269 1.371 . S
C265 H237 0.930 . S
C265 C264 1.358 . S
C265 C266 1.405 . S
C266 H238 0.932 . S
C266 C265 1.405 . S
C266 C267 1.383 . S
C267 C266 1.383 . S
C267 C268 1.393 . S
C268 H240 0.931 . S
C268 C267 1.393 . S
C268 C269 1.382 . S
C269 H239 0.929 . S
C269 C264 1.371 . S
C269 C268 1.382 . S
C270 N233 1.423 . S
C270 C271 1.362 . S
C270 C275 1.388 . S
C271 H241 0.929 . S
C271 C270 1.362 . S
C271 C272 1.376 . S
C272 H243 0.931 . S
C272 C271 1.376 . S
C272 C273 1.396 . S
C273 C272 1.396 . S
C273 C274 1.348 . S
C273 C291 1.472 . S
C274 H244 0.929 . S
C274 C273 1.348 . S
C274 C275 1.443 . S
C275 H242 0.932 . S
C275 C270 1.388 . S
C275 C274 1.443 . S
C276 N256 1.433 . S
C276 C277 1.363 . S
C276 C281 1.370 . S
C277 H245 0.929 . S
C277 C276 1.363 . S
C277 C278 1.385 . S
C278 H246 0.930 . S
C278 C277 1.385 . S
C278 C279 1.357 . S
C279 C278 1.357 . S
C279 C280 1.406 . S
C280 H247 0.929 . S
C280 C279 1.406 . S
C280 C281 1.391 . S
C281 H248 0.931 . S
C281 C276 1.370 . S
C281 C280 1.391 . S
C282 N256 1.435 . S
C282 C283 1.358 . S
C282 C287 1.371 . S
C283 H249 0.930 . S
C283 C282 1.358 . S
C283 C284 1.405 . S
C284 H250 0.932 . S
C284 C283 1.405 . S
C284 C285 1.383 . S
C285 C284 1.383 . S
C285 C286 1.393 . S
C286 H251 0.931 . S
C286 C285 1.393 . S
C286 C287 1.382 . S
C287 H252 0.929 . S
C287 C282 1.371 . S
C287 C286 1.382 . S
C288 N256 1.423 . S
C288 C289 1.362 . S
C288 C293 1.388 . S
C289 H253 0.929 . S
C289 C288 1.362 . S
C289 C290 1.376 . S
C290 H254 0.931 . S
C290 C289 1.376 . S
C290 C291 1.396 . S
C291 C273 1.472 . S
C291 C290 1.396 . S
C291 C292 1.348 . S
C292 H255 0.929 . S
C292 C291 1.348 . S
C292 C293 1.443 . S
C293 H257 0.932 . S
C293 C288 1.388 . S
C293 C292 1.443 . S
C294 C295 1.387 1_655 S
C294 H298 0.950 . S
C294 C303 1.390 . S
C295 C294 1.387 1_455 S
C295 C297 1.387 . S
H296 C303 0.950 . S
C297 C295 1.387 . S
C297 C299 1.390 . S
C297 H301 0.950 . S
H298 C294 0.950 . S
C299 C297 1.390 . S
C299 C300 1.387 . S
C299 H302 0.950 . S
C300 C299 1.387 . S
C300 C303 1.387 1_455 S
H301 C297 0.950 . S
H302 C299 0.950 . S
C303 C294 1.390 . S
C303 H296 0.950 . S
C303 C300 1.387 1_655 S
C304 C305 1.387 1_565 S
C304 H308 0.950 . S
C304 C313 1.390 . S
C305 C304 1.387 1_545 S
C305 C307 1.387 . S
H306 C313 0.950 . S
C307 C305 1.387 . S
C307 C309 1.390 . S
C307 H311 0.950 . S
H308 C304 0.950 . S
C309 C307 1.390 . S
C309 C310 1.387 . S
C309 H312 0.950 . S
C310 C309 1.387 . S
C310 C313 1.387 1_545 S
H311 C307 0.950 . S
H312 C309 0.950 . S
C313 C304 1.390 . S
C313 H306 0.950 . S
C313 C310 1.387 1_565 S
C314 C315 1.387 . S
C314 H318 0.950 . S
C314 C323 1.390 . S
C315 C314 1.387 . S
C315 C317 1.387 . S
H316 C323 0.950 . S
C317 C315 1.387 . S
C317 C319 1.390 . S
C317 H321 0.950 . S
H318 C314 0.950 . S
C319 C317 1.390 . S
C319 C320 1.387 . S
C319 H322 0.950 . S
C320 C319 1.387 . S
C320 C323 1.387 . S
H321 C317 0.950 . S
H322 C319 0.950 . S
C323 C314 1.390 . S
C323 H316 0.950 . S
C323 C320 1.387 . S
C324 C325 1.387 . S
C324 H328 0.950 . S
C324 C333 1.390 . S
C325 C324 1.387 . S
C325 C327 1.387 . S
H326 C333 0.950 . S
C327 C325 1.387 . S
C327 C329 1.390 . S
C327 H331 0.950 . S
H328 C324 0.950 . S
C329 C327 1.390 . S
C329 C330 1.387 . S
C329 H332 0.950 . S
C330 C329 1.387 . S
C330 C333 1.387 . S
H331 C327 0.950 . S
H332 C329 0.950 . S
C333 C324 1.390 . S
C333 H326 0.950 . S
C333 C330 1.387 . S
C334 C335 1.387 1_565 S
C334 H338 0.950 . S
C334 C343 1.390 . S
C335 C334 1.387 1_545 S
C335 C337 1.387 . S
H336 C343 0.950 . S
C337 C335 1.387 . S
C337 C339 1.390 . S
C337 H341 0.950 . S
H338 C334 0.950 . S
C339 C337 1.390 . S
C339 C340 1.387 . S
C339 H342 0.950 . S
C340 C339 1.387 . S
C340 C343 1.387 1_545 S
H341 C337 0.950 . S
H342 C339 0.950 . S
C343 C334 1.390 . S
C343 H336 0.950 . S
C343 C340 1.387 1_565 S
C344 C345 1.387 . S
C344 H348 0.950 . S
C344 C353 1.390 . S
C345 C344 1.387 . S
C345 C347 1.387 . S
H346 C353 0.950 . S
C347 C345 1.387 . S
C347 C349 1.390 . S
C347 H351 0.950 . S
H348 C344 0.950 . S
C349 C347 1.390 . S
C349 C350 1.387 . S
C349 H352 0.950 . S
C350 C349 1.387 . S
C350 C353 1.387 . S
H351 C347 0.950 . S
H352 C349 0.950 . S
C353 C344 1.390 . S
C353 H346 0.950 . S
C353 C350 1.387 . S
C354 C355 1.387 . S
C354 H358 0.950 . S
C354 C363 1.390 . S
C355 C354 1.387 . S
C355 C357 1.387 1_545 S
H356 C363 0.950 . S
C357 C355 1.387 1_565 S
C357 C359 1.390 . S
C357 H361 0.950 . S
H358 C354 0.950 . S
C359 C357 1.390 . S
C359 C360 1.387 1_565 S
C359 H362 0.950 . S
C360 C359 1.387 1_545 S
C360 C363 1.387 . S
H361 C357 0.950 . S
H362 C359 0.950 . S
C363 C354 1.390 . S
C363 H356 0.950 . S
C363 C360 1.387 . S
C364 C365 1.387 . S
C364 H368 0.950 . S
C364 C373 1.390 . S
C365 C364 1.387 . S
C365 C367 1.387 1_556 S
H366 C373 0.950 . S
C367 C365 1.387 1_554 S
C367 C369 1.390 1_554 S
C367 H371 0.950 . S
H368 C364 0.950 . S
C369 C367 1.390 1_556 S
C369 C370 1.387 . S
C369 H372 0.950 . S
C370 C369 1.387 . S
C370 C373 1.387 . S
H371 C367 0.950 . S
H372 C369 0.950 . S
C373 C364 1.390 . S
C373 H366 0.950 . S
C373 C370 1.387 . S
C374 C375 1.387 . S
C374 H378 0.950 . S
C374 C383 1.390 . S
C375 C374 1.387 . S
C375 C377 1.387 1_455 S
H376 C383 0.950 . S
C377 C375 1.387 1_655 S
C377 C379 1.390 . S
C377 H381 0.950 . S
H378 C374 0.950 . S
C379 C377 1.390 . S
C379 C380 1.387 1_655 S
C379 H382 0.950 . S
C380 C379 1.387 1_455 S
C380 C383 1.387 . S
H381 C377 0.950 . S
H382 C379 0.950 . S
C383 C374 1.390 . S
C383 H376 0.950 . S
C383 C380 1.387 . S
C384 C385 1.387 1_565 S
C384 H388 0.950 . S
C384 C393 1.390 . S
C385 C384 1.387 1_545 S
C385 C387 1.387 . S
H386 C393 0.950 . S
C387 C385 1.387 . S
C387 C389 1.390 . S
C387 H391 0.950 . S
H388 C384 0.950 . S
C389 C387 1.390 . S
C389 C390 1.387 . S
C389 H392 0.950 . S
C390 C389 1.387 . S
C390 C393 1.387 1_545 S
H391 C387 0.950 . S
H392 C389 0.950 . S
C393 C384 1.390 . S
C393 H386 0.950 . S
C393 C390 1.387 1_565 S
C394 C395 1.387 . S
C394 H398 0.950 . S
C394 C403 1.390 . S
C395 C394 1.387 . S
C395 C397 1.387 . S
H396 C403 0.950 . S
C397 C395 1.387 . S
C397 C399 1.390 . S
C397 H401 0.950 1_556 S
H398 C394 0.950 . S
C399 C397 1.390 . S
C399 C400 1.387 . S
C399 H402 0.950 . S
C400 C399 1.387 . S
C400 C403 1.387 . S
H401 C397 0.950 1_554 S
H402 C399 0.950 . S
C403 C394 1.390 . S
C403 H396 0.950 . S
C403 C400 1.387 . S
C404 C405 1.387 1_655 S
C404 H408 0.950 . S
C404 C413 1.390 . S
C405 C404 1.387 1_455 S
C405 C407 1.387 . S
H406 C413 0.950 . S
C407 C405 1.387 . S
C407 C409 1.390 . S
C407 H411 0.950 . S
H408 C404 0.950 . S
C409 C407 1.390 . S
C409 C410 1.387 . S
C409 H412 0.950 . S
C410 C409 1.387 . S
C410 C413 1.387 1_455 S
H411 C407 0.950 . S
H412 C409 0.950 . S
C413 C404 1.390 . S
C413 H406 0.950 . S
C413 C410 1.387 1_655 S
C300 C161 1.438 . S
C295 C14 1.426 . S
C305 C40 1.434 . S
C310 C205 1.470 . S
C315 C76 1.422 . S
C320 C267 1.456 . S
C325 C3 1.413 . S
C330 C143 1.421 . S
C340 C223 1.462 . S
C335 C38 1.436 . S
C345 C74 1.410 . S
C350 C285 1.437 . S
C360 C199 1.563 . S
C355 C86 1.590 . S
C365 C2 1.676 1_556 S
C370 C261 1.580 . S
C380 C137 1.567 . S
C375 C39 1.689 1_455 S
C390 C217 1.586 . S
C385 C75 1.687 . S
C400 C279 1.596 . S
C395 C4 1.687 1_556 S
C405 C50 1.607 . S
C410 C155 1.583 . S
