# Generated by pormake.
# Topology nom, (4,4)-cn, num edge types: 1
# Building blocks:
#     Node 0, Type 0, BuildingBlock: NAHDIM_clean_linker_0, # of connection points: 4
#     Node 1, Type 0, BuildingBlock: NAHDIM_clean_linker_0, # of connection points: 4
#     Node 2, Type 0, BuildingBlock: NAHDIM_clean_linker_0, # of connection points: 4
#     Node 3, Type 0, BuildingBlock: NAHDIM_clean_linker_0, # of connection points: 4
#     Node 4, Type 0, BuildingBlock: NAHDIM_clean_linker_0, # of connection points: 4
#     Node 5, Type 0, BuildingBlock: NAHDIM_clean_linker_0, # of connection points: 4
#     Node 6, Type 1, BuildingBlock: UXUYUI_clean_sbu_0, # of connection points: 4
#     Node 7, Type 1, BuildingBlock: UXUYUI_clean_sbu_0, # of connection points: 4
#     Node 8, Type 1, BuildingBlock: UXUYUI_clean_sbu_0, # of connection points: 4
#     Node 9, Type 1, BuildingBlock: UXUYUI_clean_sbu_0, # of connection points: 4
#     Node 10, Type 1, BuildingBlock: UXUYUI_clean_sbu_0, # of connection points: 4
#     Node 11, Type 1, BuildingBlock: UXUYUI_clean_sbu_0, # of connection points: 4
#     Edge 12, Type (0, 1), BuildingBlock: XIVTED_clean_linker_0, # of connection points: 2
#     Edge 13, Type (0, 1), BuildingBlock: XIVTED_clean_linker_0, # of connection points: 2
#     Edge 14, Type (0, 1), BuildingBlock: XIVTED_clean_linker_0, # of connection points: 2
#     Edge 15, Type (0, 1), BuildingBlock: XIVTED_clean_linker_0, # of connection points: 2
#     Edge 16, Type (0, 1), BuildingBlock: XIVTED_clean_linker_0, # of connection points: 2
#     Edge 17, Type (0, 1), BuildingBlock: XIVTED_clean_linker_0, # of connection points: 2
#     Edge 18, Type (0, 1), BuildingBlock: XIVTED_clean_linker_0, # of connection points: 2
#     Edge 19, Type (0, 1), BuildingBlock: XIVTED_clean_linker_0, # of connection points: 2
#     Edge 20, Type (0, 1), BuildingBlock: XIVTED_clean_linker_0, # of connection points: 2
#     Edge 21, Type (0, 1), BuildingBlock: XIVTED_clean_linker_0, # of connection points: 2
#     Edge 22, Type (0, 1), BuildingBlock: XIVTED_clean_linker_0, # of connection points: 2
#     Edge 23, Type (0, 1), BuildingBlock: XIVTED_clean_linker_0, # of connection points: 2
#     Edge 24, Type (0, 1), BuildingBlock: XIVTED_clean_linker_0, # of connection points: 2
#     Edge 25, Type (0, 1), BuildingBlock: XIVTED_clean_linker_0, # of connection points: 2
#     Edge 26, Type (0, 1), BuildingBlock: XIVTED_clean_linker_0, # of connection points: 2
#     Edge 27, Type (0, 1), BuildingBlock: XIVTED_clean_linker_0, # of connection points: 2
#     Edge 28, Type (0, 1), BuildingBlock: XIVTED_clean_linker_0, # of connection points: 2
#     Edge 29, Type (0, 1), BuildingBlock: XIVTED_clean_linker_0, # of connection points: 2
#     Edge 30, Type (0, 1), BuildingBlock: XIVTED_clean_linker_0, # of connection points: 2
#     Edge 31, Type (0, 1), BuildingBlock: XIVTED_clean_linker_0, # of connection points: 2
#     Edge 32, Type (0, 1), BuildingBlock: XIVTED_clean_linker_0, # of connection points: 2
#     Edge 33, Type (0, 1), BuildingBlock: XIVTED_clean_linker_0, # of connection points: 2
#     Edge 34, Type (0, 1), BuildingBlock: XIVTED_clean_linker_0, # of connection points: 2
#     Edge 35, Type (0, 1), BuildingBlock: XIVTED_clean_linker_0, # of connection points: 2
# Relax obj value: 0.085
# Max RMSD: 0.155
# Mean RMSD: 0.138
data_MOF--net-nom--node1-UXUYUI_clean_sbu_0--node2-NAHDIM_clean_linker_0--edge1-XIVTED_clean_linker_0
_symmetry_space_group_name_H-M    P1
_symmetry_Int_Tables_number       1
_symmetry_cell_setting            triclinic
loop_
_symmetry_equiv_pos_as_xyz
'x, y, z'
_cell_length_a     67.262748
_cell_length_b     67.264497
_cell_length_c     82.231824
_cell_angle_alpha  90.101287
_cell_angle_beta   90.077579
_cell_angle_gamma 120.00324
loop_
_atom_site_label
_atom_site_type_symbol
_atom_site_fract_x
_atom_site_fract_y
_atom_site_fract_z
_atom_type_partial_charge
C0 C 0.16011 0.5682 0.26518 0.0
C1 C 0.16382 0.58299 0.28036 0.0
C2 C 0.1242 0.57266 0.28744 0.0
C3 C 0.11719 0.55029 0.29294 0.0
C4 C 0.0943 0.53536 0.29741 0.0
C5 C 0.07817 0.54296 0.29652 0.0
C6 C 0.0853 0.56563 0.29149 0.0
C7 C 0.10826 0.58018 0.28703 0.0
C8 C 0.08723 0.51128 0.30281 0.0
C9 C 0.06855 0.57432 0.29053 0.0
C10 C 0.99335 0.44288 0.20992 0.0
C11 C 0.98097 0.45484 0.21688 0.0
C12 C 0.98248 0.45891 0.24628 0.0
C13 C 0.98626 0.48127 0.24807 0.0
C14 C 0.99655 0.49401 0.26223 0.0
C15 C 0.00336 0.4842 0.27473 0.0
C16 C 0.99899 0.46139 0.27307 0.0
C17 C 0.98815 0.44887 0.25895 0.0
C18 C 0.00048 0.51808 0.26372 0.0
C19 C 0.00636 0.45043 0.28596 0.0
C20 C 0.90472 0.44046 0.35598 0.0
C21 C 0.91306 0.46376 0.35256 0.0
C22 C 0.93676 0.47926 0.35183 0.0
C23 C 0.95234 0.47125 0.35454 0.0
C24 C 0.94396 0.44804 0.35883 0.0
C25 C 0.92018 0.43298 0.35966 0.0
C26 C 0.94517 0.50406 0.34772 0.0
C27 C 0.96011 0.439 0.36196 0.0
C28 C 0.11103 0.59042 0.40736 0.0
C29 C 0.09906 0.56576 0.41372 0.0
C30 C 0.06012 0.546 0.40342 0.0
C31 C 0.04603 0.55424 0.39773 0.0
C32 C 0.03083 0.54342 0.3847 0.0
C33 C 0.02939 0.52356 0.37758 0.0
C34 C 0.04265 0.51438 0.38401 0.0
C35 C 0.05801 0.52582 0.39682 0.0
C36 C 0.01684 0.55356 0.37824 0.0
C37 C 0.04092 0.49274 0.37716 0.0
C38 C 0.05358 0.52678 0.2999 0.0
C39 C 0.03977 0.51383 0.28689 0.0
C40 C 0.01642 0.49825 0.28901 0.0
C41 C 0.00635 0.49569 0.3045 0.0
C42 C 0.98276 0.4808 0.30696 0.0
C43 C 0.97315 0.47793 0.32235 0.0
C44 C 0.98678 0.48982 0.3359 0.0
C45 C 0.97725 0.4867 0.35166 0.0
C46 C 0.99143 0.4981 0.36495 0.0
C47 C 0.01498 0.51303 0.3629 0.0
C48 C 0.02466 0.51709 0.34714 0.0
C49 C 0.0481 0.53272 0.34454 0.0
C50 C 0.05758 0.53613 0.32905 0.0
C51 C 0.04403 0.52391 0.3156 0.0
C52 C 0.0203 0.5083 0.3179 0.0
C53 C 0.01056 0.50513 0.33365 0.0
C54 C 0.85128 0.40201 0.33762 0.0
C55 C 0.86563 0.42543 0.34579 0.0
O56 O 0.14589 0.58739 0.2822 0.0
O57 O 0.07574 0.55781 0.41522 0.0
O58 O 0.88196 0.42473 0.3557 0.0
O59 O 0.97342 0.44667 0.23244 0.0
H60 H 0.16494 0.57383 0.29126 0.0
H61 H 0.14438 0.55117 0.2664 0.0
H62 H 0.15824 0.57666 0.25415 0.0
H63 H 0.17488 0.56535 0.26348 0.0
H64 H 0.12928 0.54418 0.29357 0.0
H65 H 0.11382 0.59748 0.2829 0.0
H66 H 0.07423 0.49871 0.29423 0.0
H67 H 0.10196 0.50819 0.30338 0.0
H68 H 0.07912 0.50804 0.315 0.0
H69 H 0.077 0.59272 0.28706 0.0
H70 H 0.055 0.56408 0.28144 0.0
H71 H 0.05997 0.57208 0.30246 0.0
H72 H 0.99361 0.4736 0.21712 0.0
H73 H 0.9998 0.44932 0.19749 0.0
H74 H 0.00825 0.4465 0.21777 0.0
H75 H 0.98162 0.424 0.20938 0.0
H76 H 0.98116 0.48872 0.2384 0.0
H77 H 0.98487 0.43147 0.25746 0.0
H78 H 0.01912 0.53056 0.26268 0.0
H79 H 0.99129 0.52196 0.25413 0.0
H80 H 0.99475 0.5206 0.27583 0.0
H81 H 0.0038 0.43349 0.28205 0.0
H82 H 0.02477 0.46185 0.28903 0.0
H83 H 0.99629 0.44795 0.29721 0.0
H84 H 0.87402 0.43803 0.33577 0.0
H85 H 0.90112 0.46983 0.35036 0.0
H86 H 0.91353 0.41505 0.36257 0.0
H87 H 0.95335 0.50794 0.33554 0.0
H88 H 0.93104 0.50809 0.34759 0.0
H89 H 0.95839 0.51548 0.35666 0.0
H90 H 0.95086 0.42054 0.36531 0.0
H91 H 0.97052 0.44128 0.35091 0.0
H92 H 0.97217 0.44897 0.37193 0.0
H93 H 0.10217 0.55514 0.40478 0.0
H94 H 0.12975 0.59707 0.40598 0.0
H95 H 0.1039 0.5909 0.39527 0.0
H96 H 0.10838 0.60179 0.41582 0.0
H97 H 0.04762 0.56968 0.40313 0.0
H98 H 0.06844 0.51909 0.40167 0.0
H99 H 0.02034 0.55735 0.36508 0.0
H100 H 0.99828 0.54091 0.37954 0.0
H101 H 0.02062 0.56959 0.38471 0.0
H102 H 0.04977 0.48607 0.38496 0.0
H103 H 0.02264 0.4792 0.37578 0.0
H104 H 0.04886 0.49632 0.36491 0.0
H105 H 0.04739 0.51575 0.27495 0.0
H106 H 0.97147 0.47115 0.297 0.0
H107 H 0.95491 0.4661 0.3235 0.0
H108 H 0.98408 0.49519 0.37705 0.0
H109 H 0.05941 0.54252 0.35445 0.0
H110 H 0.07573 0.54831 0.32778 0.0
H111 H 0.83807 0.40213 0.32955 0.0
H112 H 0.86255 0.398 0.3301 0.0
H113 H 0.84262 0.38826 0.34685 0.0
C114 C 0.46747 0.8912 0.5621 0.0
C115 C 0.45617 0.88565 0.54522 0.0
C116 C 0.4664 0.92426 0.53553 0.0
C117 C 0.48974 0.93191 0.53257 0.0
C118 C 0.50487 0.95472 0.52805 0.0
C119 C 0.49656 0.97021 0.52646 0.0
C120 C 0.47304 0.96251 0.52911 0.0
C121 C 0.45826 0.93957 0.53354 0.0
C122 C 0.52983 0.96236 0.52515 0.0
C123 C 0.46363 0.97859 0.52744 0.0
C124 C 0.60145 0.10472 0.61261 0.0
C125 C 0.59701 0.08954 0.59842 0.0
C126 C 0.5729 0.07662 0.57404 0.0
C127 C 0.5557 0.07798 0.56548 0.0
C128 C 0.54453 0.06343 0.55223 0.0
C129 C 0.55137 0.04764 0.5471 0.0
C130 C 0.56887 0.04622 0.55569 0.0
C131 C 0.57928 0.06053 0.56919 0.0
C132 C 0.52545 0.065 0.54373 0.0
C133 C 0.57664 0.02962 0.55059 0.0
C134 C 0.60961 0.13726 0.46091 0.0
C135 C 0.58716 0.13079 0.46568 0.0
C136 C 0.57048 0.10754 0.46732 0.0
C137 C 0.57659 0.0905 0.46449 0.0
C138 C 0.59897 0.097 0.45902 0.0
C139 C 0.6151 0.12037 0.45706 0.0
C140 C 0.5465 0.10124 0.47245 0.0
C141 C 0.60606 0.07934 0.45574 0.0
C142 C 0.45212 0.93028 0.41427 0.0
C143 C 0.47719 0.94202 0.40881 0.0
C144 C 0.49776 0.98127 0.41859 0.0
C145 C 0.49049 0.9964 0.42368 0.0
C146 C 0.50189 0.0121 0.43633 0.0
C147 C 0.52135 0.01296 0.44368 0.0
C148 C 0.52956 0.99858 0.43785 0.0
C149 C 0.51757 0.98276 0.4254 0.0
C150 C 0.49278 0.0273 0.44217 0.0
C151 C 0.55074 0.99962 0.445 0.0
C152 C 0.5127 0.99466 0.52255 0.0
C153 C 0.52388 0.00969 0.53549 0.0
C154 C 0.54026 0.03267 0.53275 0.0
C155 C 0.54576 0.04099 0.51664 0.0
C156 C 0.56279 0.06376 0.51341 0.0
C157 C 0.56763 0.07196 0.49756 0.0
C158 C 0.55565 0.05769 0.4843 0.0
C159 C 0.56001 0.06605 0.46815 0.0
C160 C 0.54846 0.05116 0.45521 0.0
C161 C 0.53245 0.02805 0.45795 0.0
C162 C 0.52736 0.01954 0.47404 0.0
C163 C 0.51092 0.99651 0.47725 0.0
C164 C 0.50614 0.98828 0.49311 0.0
C165 C 0.51747 0.00281 0.50638 0.0
C166 C 0.53405 0.02608 0.50344 0.0
C167 C 0.53902 0.03445 0.48724 0.0
C168 C 0.65382 0.19153 0.47537 0.0
C169 C 0.62863 0.17694 0.47036 0.0
O170 O 0.45125 0.90251 0.54046 0.0
O171 O 0.48541 0.96536 0.40709 0.0
O172 O 0.62638 0.1596 0.46005 0.0
O173 O 0.58288 0.0911 0.58683 0.0
H174 H 0.46793 0.88452 0.53624 0.0
H175 H 0.484 0.90764 0.5619 0.0
H176 H 0.45608 0.89268 0.5712 0.0
H177 H 0.47106 0.87749 0.56599 0.0
H178 H 0.49642 0.92034 0.53386 0.0
H179 H 0.44025 0.93354 0.53575 0.0
H180 H 0.54066 0.97595 0.53405 0.0
H181 H 0.53348 0.94803 0.5263 0.0
H182 H 0.53493 0.96987 0.51281 0.0
H183 H 0.44486 0.96988 0.52972 0.0
H184 H 0.4725 0.99307 0.53615 0.0
H185 H 0.46708 0.98599 0.51501 0.0
H186 H 0.61237 0.08949 0.5934 0.0
H187 H 0.58342 0.08029 0.63303 0.0
H188 H 0.62059 0.11695 0.61249 0.0
H189 H 0.59699 0.11821 0.6089 0.0
H190 H 0.55082 0.09035 0.56937 0.0
H191 H 0.59253 0.05921 0.57574 0.0
H192 H 0.53151 0.07313 0.53166 0.0
H193 H 0.51046 0.04759 0.54171 0.0
H194 H 0.51976 0.07537 0.55077 0.0
H195 H 0.59246 0.03279 0.55708 0.0
H196 H 0.56285 0.01183 0.55324 0.0
H197 H 0.57992 0.03082 0.53729 0.0
H198 H 0.61873 0.16947 0.48176 0.0
H199 H 0.58266 0.14387 0.46814 0.0
H200 H 0.63241 0.1256 0.45313 0.0
H201 H 0.54385 0.09564 0.48533 0.0
H202 H 0.54343 0.11594 0.47132 0.0
H203 H 0.53356 0.08672 0.46499 0.0
H204 H 0.62455 0.08732 0.4526 0.0
H205 H 0.60258 0.06826 0.46658 0.0
H206 H 0.59576 0.06812 0.4455 0.0
H207 H 0.48702 0.93878 0.41833 0.0
H208 H 0.44521 0.91155 0.41585 0.0
H209 H 0.45088 0.93755 0.42611 0.0
H210 H 0.44144 0.93297 0.40519 0.0
H211 H 0.47535 0.99528 0.41812 0.0
H212 H 0.52361 0.97153 0.42097 0.0
H213 H 0.48875 0.02442 0.45535 0.0
H214 H 0.50612 0.04559 0.44061 0.0
H215 H 0.47707 0.02407 0.43548 0.0
H216 H 0.55639 0.98927 0.4379 0.0
H217 H 0.56503 0.01769 0.44551 0.0
H218 H 0.54712 0.99302 0.45765 0.0
H219 H 0.51992 0.00335 0.54787 0.0
H220 H 0.57254 0.07556 0.52311 0.0
H221 H 0.58087 0.08966 0.49585 0.0
H222 H 0.55203 0.05762 0.44285 0.0
H223 H 0.50152 0.98457 0.46754 0.0
H224 H 0.49335 0.97041 0.49484 0.0
H225 H 0.66487 0.19937 0.46453 0.0
H226 H 0.65608 0.2054 0.48385 0.0
H227 H 0.65952 0.18063 0.48166 0.0
C228 C 0.60123 0.43206 0.70802 0.0
C229 C 0.5995 0.45273 0.70472 0.0
C230 C 0.57059 0.46434 0.70167 0.0
C231 C 0.58591 0.48639 0.69568 0.0
C232 C 0.57832 0.50188 0.692 0.0
C233 C 0.55492 0.49511 0.69419 0.0
C234 C 0.53942 0.47286 0.70002 0.0
C235 C 0.5475 0.45777 0.7037 0.0
C236 C 0.5953 0.52553 0.68585 0.0
C237 C 0.51435 0.46508 0.70243 0.0
C238 C 0.57467 0.60147 0.77966 0.0
C239 C 0.55038 0.58725 0.77277 0.0
C240 C 0.54615 0.58175 0.7435 0.0
C241 C 0.5278 0.55915 0.74247 0.0
C242 C 0.52463 0.5458 0.72852 0.0
C243 C 0.54039 0.5552 0.71549 0.0
C244 C 0.55867 0.57821 0.71643 0.0
C245 C 0.56097 0.59134 0.73032 0.0
C246 C 0.50468 0.52154 0.72784 0.0
C247 C 0.57621 0.58877 0.70302 0.0
C248 C 0.4843 0.59751 0.63291 0.0
C249 C 0.46948 0.57488 0.63797 0.0
C250 C 0.47733 0.55914 0.63928 0.0
C251 C 0.50053 0.56632 0.63565 0.0
C252 C 0.51519 0.58884 0.62988 0.0
C253 C 0.50674 0.60406 0.62838 0.0
C254 C 0.46098 0.53499 0.64486 0.0
C255 C 0.53996 0.59704 0.62575 0.0
C256 C 0.54226 0.44919 0.5842 0.0
C257 C 0.55515 0.47359 0.57737 0.0
C258 C 0.53542 0.49295 0.58721 0.0
C259 C 0.51286 0.48409 0.59257 0.0
C260 C 0.50779 0.49434 0.6056 0.0
C261 C 0.52572 0.51424 0.61306 0.0
C262 C 0.54839 0.52401 0.60698 0.0
C263 C 0.55301 0.51312 0.59418 0.0
C264 C 0.48345 0.48355 0.61171 0.0
C265 C 0.56783 0.5457 0.61422 0.0
C266 C 0.54674 0.51148 0.69076 0.0
C267 C 0.5464 0.52489 0.70363 0.0
C268 C 0.53874 0.54056 0.7014 0.0
C269 C 0.5308 0.54271 0.68592 0.0
C270 C 0.52214 0.55763 0.68335 0.0
C271 C 0.51511 0.56019 0.66795 0.0
C272 C 0.51643 0.54789 0.65452 0.0
C273 C 0.50976 0.55071 0.63874 0.0
C274 C 0.51242 0.5391 0.62554 0.0
C275 C 0.52116 0.52429 0.6277 0.0
C276 C 0.52674 0.52032 0.64351 0.0
C277 C 0.53441 0.5046 0.64623 0.0
C278 C 0.5406 0.50138 0.66173 0.0
C279 C 0.5397 0.51401 0.67507 0.0
C280 C 0.53169 0.52968 0.67266 0.0
C281 C 0.52482 0.53253 0.6569 0.0
C282 C 0.47255 0.63957 0.64882 0.0
C283 C 0.46219 0.61481 0.64284 0.0
O284 O 0.57734 0.44901 0.70571 0.0
O285 O 0.53995 0.48168 0.57541 0.0
O286 O 0.47758 0.61346 0.63233 0.0
O287 O 0.55001 0.59462 0.75709 0.0
H288 H 0.6127 0.46879 0.71082 0.0
H289 H 0.5849 0.41927 0.71438 0.0
H290 H 0.61154 0.4243 0.68401 0.0
H291 H 0.61222 0.43642 0.7193 0.0
H292 H 0.60382 0.49168 0.69391 0.0
H293 H 0.5358 0.44073 0.70827 0.0
H294 H 0.59528 0.53875 0.69394 0.0
H295 H 0.61304 0.5284 0.68521 0.0
H296 H 0.5901 0.52797 0.67353 0.0
H297 H 0.5043 0.44687 0.70633 0.0
H298 H 0.51258 0.47601 0.71179 0.0
H299 H 0.50689 0.46717 0.69094 0.0
H300 H 0.54618 0.56897 0.77274 0.0
H301 H 0.57554 0.59571 0.79217 0.0
H302 H 0.58694 0.59927 0.7719 0.0
H303 H 0.57997 0.61999 0.77999 0.0
H304 H 0.51597 0.552 0.75256 0.0
H305 H 0.57494 0.60892 0.73125 0.0
H306 H 0.51115 0.50936 0.72934 0.0
H307 H 0.49194 0.51815 0.73758 0.0
H308 H 0.49593 0.51805 0.71585 0.0
H309 H 0.59101 0.60563 0.70663 0.0
H310 H 0.58273 0.57711 0.69952 0.0
H311 H 0.56806 0.59139 0.69212 0.0
H312 H 0.4595 0.60409 0.65384 0.0
H313 H 0.45181 0.5695 0.64091 0.0
H314 H 0.5179 0.62147 0.62422 0.0
H315 H 0.46579 0.53257 0.65732 0.0
H316 H 0.4429 0.53121 0.64507 0.0
H317 H 0.46216 0.52239 0.63677 0.0
H318 H 0.54943 0.61544 0.62224 0.0
H319 H 0.54875 0.59454 0.63633 0.0
H320 H 0.54078 0.5867 0.61551 0.0
H321 H 0.56893 0.48453 0.5862 0.0
H322 H 0.5542 0.44245 0.586 0.0
H323 H 0.53464 0.44923 0.59617 0.0
H324 H 0.52825 0.43757 0.57581 0.0
H325 H 0.49939 0.46862 0.58692 0.0
H326 H 0.57036 0.52029 0.58961 0.0
H327 H 0.48291 0.47939 0.62482 0.0
H328 H 0.4772 0.49594 0.61048 0.0
H329 H 0.47161 0.46762 0.60495 0.0
H330 H 0.58361 0.55281 0.60668 0.0
H331 H 0.56269 0.55895 0.61555 0.0
H332 H 0.57194 0.54199 0.62652 0.0
H333 H 0.55243 0.52327 0.71553 0.0
H334 H 0.5208 0.56757 0.69322 0.0
H335 H 0.50885 0.57213 0.6667 0.0
H336 H 0.50798 0.54192 0.61341 0.0
H337 H 0.53569 0.49458 0.6364 0.0
H338 H 0.5464 0.48908 0.66309 0.0
H339 H 0.46068 0.64112 0.65743 0.0
H340 H 0.48899 0.64485 0.65525 0.0
H341 H 0.47601 0.65143 0.63844 0.0
C342 C 0.1875 0.59431 0.87382 0.0
C343 C 0.16542 0.59324 0.87044 0.0
C344 C 0.1246 0.56518 0.86774 0.0
C345 C 0.11842 0.58089 0.86167 0.0
C346 C 0.09546 0.57386 0.85798 0.0
C347 C 0.0784 0.55063 0.86019 0.0
C348 C 0.0846 0.53472 0.86607 0.0
C349 C 0.10765 0.54225 0.86981 0.0
C350 C 0.08938 0.59129 0.85181 0.0
C351 C 0.06684 0.50979 0.86847 0.0
C352 C 0.99286 0.56707 0.94837 0.0
C353 C 0.98276 0.54397 0.93958 0.0
C354 C 0.98437 0.54257 0.9101 0.0
C355 C 0.98725 0.52345 0.90812 0.0
C356 C 0.99705 0.52062 0.89387 0.0
C357 C 0.00439 0.53743 0.8815 0.0
C358 C 0.0009 0.55642 0.88334 0.0
C359 C 0.99045 0.55844 0.89752 0.0
C360 C 2e-05 0.49991 0.89222 0.0
C361 C 0.00889 0.575 0.87061 0.0
C362 C 0.90725 0.48913 0.79773 0.0
C363 C 0.91381 0.47337 0.80294 0.0
C364 C 0.93709 0.47994 0.80439 0.0
C365 C 0.95409 0.50283 0.80083 0.0
C366 C 0.94749 0.51845 0.79495 0.0
C367 C 0.92408 0.51124 0.79325 0.0
C368 C 0.94352 0.46255 0.81003 0.0
C369 C 0.96512 0.54294 0.79093 0.0
C370 C 0.10951 0.53301 0.74892 0.0
C371 C 0.09947 0.54752 0.74254 0.0
C372 C 0.06075 0.53067 0.75294 0.0
C373 C 0.04553 0.50844 0.75827 0.0
C374 C 0.03057 0.50464 0.7713 0.0
C375 C 0.03052 0.52359 0.77878 0.0
C376 C 0.04503 0.54604 0.77275 0.0
C377 C 0.06016 0.54934 0.75996 0.0
C378 C 0.01529 0.4805 0.77735 0.0
C379 C 0.04482 0.56658 0.77997 0.0
C380 C 0.05399 0.54307 0.85671 0.0
C381 C 0.04037 0.54284 0.86959 0.0
C382 C 0.01726 0.53612 0.86726 0.0
C383 C 0.0073 0.52922 0.85162 0.0
C384 C 0.984 0.52186 0.84888 0.0
C385 C 0.97457 0.51578 0.83335 0.0
C386 C 0.98802 0.51665 0.81997 0.0
C387 C 0.97866 0.51075 0.8041 0.0
C388 C 0.99278 0.51277 0.79099 0.0
C389 C 0.01605 0.52016 0.79331 0.0
C390 C 0.02546 0.52513 0.80919 0.0
C391 C 0.04854 0.53155 0.81207 0.0
C392 C 0.05785 0.53713 0.82765 0.0
C393 C 0.0445 0.5367 0.84093 0.0
C394 C 0.02108 0.52982 0.83838 0.0
C395 C 0.01149 0.52376 0.82251 0.0
C396 C 0.85294 0.47922 0.81208 0.0
C397 C 0.86767 0.46869 0.80734 0.0
O398 O 0.14655 0.5714 0.8718 0.0
O399 O 0.07586 0.53376 0.74097 0.0
O400 O 0.88492 0.48365 0.79698 0.0
O401 O 0.97601 0.54624 0.92408 0.0
H402 H 0.1632 0.60699 0.87626 0.0
H403 H 0.18355 0.57808 0.88052 0.0
H404 H 0.20524 0.60322 0.8497 0.0
H405 H 0.19459 0.60569 0.8849 0.0
H406 H 0.13136 0.59868 0.85986 0.0
H407 H 0.11258 0.53025 0.87444 0.0
H408 H 0.07615 0.59148 0.85977 0.0
H409 H 0.10451 0.60889 0.85135 0.0
H410 H 0.08193 0.58638 0.8394 0.0
H411 H 0.07462 0.49932 0.87223 0.0
H412 H 0.05444 0.50836 0.87794 0.0
H413 H 0.05703 0.50256 0.85702 0.0
H414 H 0.99665 0.53952 0.93899 0.0
H415 H 0.99865 0.56579 0.96079 0.0
H416 H 0.00792 0.58027 0.94154 0.0
H417 H 0.97994 0.57272 0.9493 0.0
H418 H 0.98189 0.51082 0.91773 0.0
H419 H 0.9879 0.573 0.89916 0.0
H420 H 0.01846 0.50533 0.89367 0.0
H421 H 0.99009 0.48665 0.90152 0.0
H422 H 0.99453 0.49213 0.87994 0.0
H423 H 0.00718 0.58982 0.87472 0.0
H424 H 0.02713 0.58127 0.86747 0.0
H425 H 0.99858 0.5679 0.85936 0.0
H426 H 0.87523 0.46658 0.81883 0.0
H427 H 0.90077 0.45597 0.80589 0.0
H428 H 0.91879 0.52314 0.78901 0.0
H429 H 0.95043 0.46682 0.82261 0.0
H430 H 0.92858 0.44481 0.80998 0.0
H431 H 0.95718 0.46309 0.80215 0.0
H432 H 0.95711 0.55329 0.78739 0.0
H433 H 0.97652 0.55121 0.80157 0.0
H434 H 0.97602 0.54313 0.78074 0.0
H435 H 0.10377 0.56161 0.75145 0.0
H436 H 0.12841 0.54376 0.75047 0.0
H437 H 0.10191 0.52563 0.76094 0.0
H438 H 0.1057 0.51871 0.74037 0.0
H439 H 0.04597 0.49413 0.75255 0.0
H440 H 0.07151 0.56647 0.7554 0.0
H441 H 0.01824 0.47959 0.79055 0.0
H442 H 0.99703 0.47567 0.77572 0.0
H443 H 0.01833 0.4678 0.77081 0.0
H444 H 0.05442 0.58217 0.77236 0.0
H445 H 0.0269 0.56297 0.78142 0.0
H446 H 0.05285 0.57024 0.79222 0.0
H447 H 0.04794 0.5482 0.88159 0.0
H448 H 0.97284 0.52085 0.8587 0.0
H449 H 0.95659 0.51052 0.83196 0.0
H450 H 0.98562 0.50881 0.7788 0.0
H451 H 0.05969 0.53235 0.80231 0.0
H452 H 0.07572 0.54202 0.82912 0.0
H453 H 0.84501 0.48212 0.80114 0.0
H454 H 0.83914 0.46772 0.8206 0.0
H455 H 0.86377 0.49597 0.81825 0.0
C456 C 0.4631 0.86313 0.93587 0.0
C457 C 0.46513 0.88586 0.93833 0.0
C458 C 0.49039 0.92315 0.95076 0.0
C459 C 0.47376 0.92999 0.95131 0.0
C460 C 0.4797 0.95234 0.95603 0.0
C461 C 0.50277 0.96829 0.96007 0.0
C462 C 0.51949 0.9614 0.95971 0.0
C463 C 0.51299 0.93879 0.95523 0.0
C464 C 0.46136 0.95901 0.9565 0.0
C465 C 0.54429 0.97804 0.96378 0.0
C466 C 0.53676 0.10611 0.87467 0.0
C467 C 0.52506 0.09077 0.88857 0.0
C468 C 0.53434 0.07474 0.91215 0.0
C469 C 0.55209 0.07519 0.92126 0.0
C470 C 0.54746 0.06041 0.9345 0.0
C471 C 0.5244 0.04508 0.9389 0.0
C472 C 0.5063 0.04438 0.92967 0.0
C473 C 0.51144 0.05912 0.91631 0.0
C474 C 0.56724 0.0613 0.94383 0.0
C475 C 0.48153 0.02818 0.93399 0.0
C476 C 0.54909 0.13501 0.02437 0.0
C477 C 0.56538 0.12872 0.02006 0.0
C478 C 0.55909 0.10552 0.01857 0.0
C479 C 0.53592 0.08833 0.02104 0.0
C480 C 0.51968 0.09464 0.02598 0.0
C481 C 0.52662 0.11797 0.02783 0.0
C482 C 0.57715 0.09945 0.01401 0.0
C483 C 0.49489 0.0768 0.02883 0.0
C484 C 0.51706 0.93947 0.07431 0.0
C485 C 0.49928 0.9459 0.07987 0.0
C486 C 0.51177 0.98369 0.06918 0.0
C487 C 0.5336 0.0 0.06383 0.0
C488 C 0.53631 0.01413 0.0505 0.0
C489 C 0.51662 0.01224 0.04274 0.0
C490 C 0.49448 0.99647 0.04869 0.0
C491 C 0.49229 0.98215 0.06177 0.0
C492 C 0.56018 0.03076 0.04453 0.0
C493 C 0.47315 0.99462 0.04114 0.0
C494 C 0.50949 0.99245 0.96386 0.0
C495 C 0.51362 0.00727 0.95079 0.0
C496 C 0.51932 0.03005 0.95333 0.0
C497 C 0.52077 0.03837 0.96934 0.0
C498 C 0.52566 0.06096 0.9723 0.0
C499 C 0.52783 0.06924 0.98808 0.0
C500 C 0.52534 0.0553 0.00154 0.0
C501 C 0.5285 0.06389 0.01762 0.0
C502 C 0.5253 0.0494 0.03073 0.0
C503 C 0.51923 0.02648 0.02825 0.0
C504 C 0.51642 0.01768 0.01223 0.0
C505 C 0.51071 0.99482 0.00925 0.0
C506 C 0.50809 0.98639 0.99344 0.0
C507 C 0.51154 0.00063 0.97999 0.0
C508 C 0.51725 0.02371 0.98272 0.0
C509 C 0.51958 0.03221 0.99884 0.0
C510 C 0.56078 0.19052 0.01081 0.0
C511 C 0.57026 0.17483 0.01541 0.0
O512 O 0.48535 0.90179 0.94588 0.0
O513 O 0.50977 0.96953 0.08153 0.0
O514 O 0.55442 0.1573 0.02518 0.0
O515 O 0.5401 0.08967 0.89957 0.0
H516 H 0.46021 0.8928 0.92772 0.0
H517 H 0.46223 0.86048 0.92227 0.0
H518 H 0.48097 0.86571 0.9371 0.0
H519 H 0.43395 0.83999 0.95213 0.0
H520 H 0.45613 0.918 0.94805 0.0
H521 H 0.52567 0.93335 0.95485 0.0
H522 H 0.46462 0.97165 0.94674 0.0
H523 H 0.44386 0.94402 0.95474 0.0
H524 H 0.46194 0.96733 0.9683 0.0
H525 H 0.55539 0.97029 0.96219 0.0
H526 H 0.55085 0.99345 0.95591 0.0
H527 H 0.54568 0.98386 0.97658 0.0
H528 H 0.51104 0.09264 0.89423 0.0
H529 H 0.52656 0.08213 0.85341 0.0
H530 H 0.53206 0.12003 0.8754 0.0
H531 H 0.55521 0.11777 0.87846 0.0
H532 H 0.56968 0.08721 0.9179 0.0
H533 H 0.4975 0.05845 0.90928 0.0
H534 H 0.56816 0.06856 0.95612 0.0
H535 H 0.56453 0.04372 0.94542 0.0
H536 H 0.58395 0.07206 0.93765 0.0
H537 H 0.46949 0.03121 0.92657 0.0
H538 H 0.47752 0.01023 0.932 0.0
H539 H 0.47858 0.03002 0.94705 0.0
H540 H 0.57254 0.1676 0.00381 0.0
H541 H 0.58299 0.14189 0.01787 0.0
H542 H 0.51428 0.12305 0.03138 0.0
H543 H 0.57471 0.09373 0.00113 0.0
H544 H 0.5948 0.1143 0.01541 0.0
H545 H 0.57548 0.08508 0.02163 0.0
H546 H 0.48413 0.08462 0.03166 0.0
H547 H 0.48775 0.06571 0.0179 0.0
H548 H 0.49373 0.06562 0.03912 0.0
H549 H 0.48545 0.9397 0.0705 0.0
H550 H 0.50894 0.92057 0.07279 0.0
H551 H 0.52439 0.94765 0.06242 0.0
H552 H 0.53125 0.94542 0.08332 0.0
H553 H 0.54849 0.00112 0.06982 0.0
H554 H 0.47544 0.96979 0.06629 0.0
H555 H 0.56147 0.02821 0.03131 0.0
H556 H 0.56375 0.04861 0.0463 0.0
H557 H 0.57357 0.02878 0.05104 0.0
H558 H 0.45755 0.98372 0.04846 0.0
H559 H 0.4751 0.01194 0.03983 0.0
H560 H 0.47062 0.98703 0.02879 0.0
H561 H 0.51242 0.00098 0.93846 0.0
H562 H 0.52795 0.07256 0.96243 0.0
H563 H 0.53166 0.0868 0.98958 0.0
H564 H 0.52779 0.05613 0.04303 0.0
H565 H 0.50821 0.98315 0.01911 0.0
H566 H 0.50358 0.96863 0.99189 0.0
H567 H 0.55769 0.19814 0.02186 0.0
H568 H 0.57301 0.20457 0.00275 0.0
H569 H 0.54426 0.1805 0.00418 0.0
C570 C 0.57952 0.45598 0.08378 0.0
C571 C 0.58596 0.45023 0.10032 0.0
C572 C 0.57534 0.47301 0.11789 0.0
C573 C 0.55155 0.4575 0.11823 0.0
C574 C 0.53626 0.46433 0.124 0.0
C575 C 0.54484 0.4872 0.12934 0.0
C576 C 0.56881 0.50265 0.1295 0.0
C577 C 0.58375 0.49519 0.12401 0.0
C578 C 0.51084 0.44727 0.12396 0.0
C579 C 0.57859 0.52726 0.1349 0.0
C580 C 0.47522 0.56699 0.04827 0.0
C581 C 0.48708 0.56352 0.06216 0.0
C582 C 0.48455 0.53389 0.08043 0.0
C583 C 0.50213 0.54941 0.09085 0.0
C584 C 0.50878 0.54165 0.10447 0.0
C585 C 0.49725 0.51791 0.10805 0.0
C586 C 0.4794 0.50223 0.09773 0.0
C587 C 0.47336 0.51045 0.08398 0.0
C588 C 0.52824 0.55888 0.11501 0.0
C589 C 0.46675 0.47682 0.10122 0.0
C590 C 0.43946 0.55274 0.19211 0.0
C591 C 0.46265 0.56676 0.18802 0.0
C592 C 0.47734 0.55762 0.187 0.0
C593 C 0.46846 0.53387 0.18978 0.0
C594 C 0.44532 0.51996 0.19462 0.0
C595 C 0.4312 0.52972 0.19596 0.0
C596 C 0.50218 0.57323 0.18254 0.0
C597 C 0.43531 0.49465 0.19782 0.0
C598 C 0.58308 0.48927 0.23931 0.0
C599 C 0.55954 0.47678 0.24754 0.0
C600 C 0.53964 0.49592 0.23761 0.0
C601 C 0.54825 0.51835 0.2321 0.0
C602 C 0.53771 0.52309 0.21912 0.0
C603 C 0.51774 0.50495 0.21186 0.0
C604 C 0.50823 0.48239 0.21808 0.0
C605 C 0.51943 0.47809 0.23084 0.0
C606 C 0.54823 0.54736 0.21287 0.0
C607 C 0.4865 0.46281 0.21104 0.0
C608 C 0.52863 0.49547 0.13315 0.0
C609 C 0.51938 0.50135 0.12003 0.0
C610 C 0.5043 0.50965 0.12246 0.0
C611 C 0.4979 0.51191 0.13841 0.0
C612 C 0.48228 0.51963 0.14125 0.0
C613 C 0.47701 0.52298 0.15699 0.0
C614 C 0.48726 0.51884 0.17052 0.0
C615 C 0.48294 0.52336 0.18655 0.0
C616 C 0.49294 0.5185 0.19973 0.0
C617 C 0.50741 0.50939 0.19735 0.0
C618 C 0.51232 0.50521 0.18139 0.0
C619 C 0.52716 0.49648 0.17851 0.0
C620 C 0.53219 0.49284 0.16274 0.0
C621 C 0.52289 0.49814 0.14924 0.0
C622 C 0.50758 0.50655 0.15186 0.0
C623 C 0.50228 0.51008 0.16794 0.0
C624 C 0.40033 0.5678 0.17522 0.0
C625 C 0.42474 0.57674 0.18155 0.0
O626 O 0.59064 0.46753 0.11149 0.0
O627 O 0.55119 0.49178 0.2494 0.0
O628 O 0.4246 0.56084 0.19233 0.0
O629 O 0.47803 0.54087 0.06692 0.0
H630 H 0.57153 0.43371 0.10478 0.0
H631 H 0.56363 0.45704 0.08482 0.0
H632 H 0.59355 0.47271 0.07927 0.0
H633 H 0.57629 0.44238 0.07474 0.0
H634 H 0.54468 0.44011 0.11387 0.0
H635 H 0.60212 0.50697 0.12384 0.0
H636 H 0.50241 0.45185 0.11422 0.0
H637 H 0.50715 0.42943 0.12179 0.0
H638 H 0.50308 0.44789 0.13573 0.0
H639 H 0.59754 0.53741 0.13347 0.0
H640 H 0.57074 0.53557 0.12774 0.0
H641 H 0.57437 0.52778 0.14787 0.0
H642 H 0.5062 0.57334 0.06149 0.0
H643 H 0.48849 0.57471 0.03832 0.0
H644 H 0.46502 0.54976 0.04204 0.0
H645 H 0.45917 0.58609 0.05922 0.0
H646 H 0.5109 0.56764 0.08841 0.0
H647 H 0.45981 0.49859 0.07593 0.0
H648 H 0.52141 0.56016 0.127 0.0
H649 H 0.54092 0.55318 0.11719 0.0
H650 H 0.53725 0.57625 0.10947 0.0
H651 H 0.45196 0.46713 0.09287 0.0
H652 H 0.4787 0.47005 0.09992 0.0
H653 H 0.46042 0.47371 0.11395 0.0
H654 H 0.43556 0.57859 0.17076 0.0
H655 H 0.46926 0.58482 0.1856 0.0
H656 H 0.41333 0.51917 0.19936 0.0
H657 H 0.50494 0.56992 0.16974 0.0
H658 H 0.50733 0.59165 0.1837 0.0
H659 H 0.51356 0.56975 0.19037 0.0
H660 H 0.41671 0.486 0.20072 0.0
H661 H 0.43777 0.48619 0.18701 0.0
H662 H 0.44447 0.49221 0.20817 0.0
H663 H 0.5478 0.46203 0.23966 0.0
H664 H 0.59003 0.47748 0.23774 0.0
H665 H 0.58149 0.49539 0.2271 0.0
H666 H 0.59535 0.50432 0.24669 0.0
H667 H 0.56374 0.532 0.23761 0.0
H668 H 0.51245 0.46084 0.23554 0.0
H669 H 0.55197 0.54777 0.19969 0.0
H670 H 0.53585 0.55357 0.21435 0.0
H671 H 0.56437 0.55932 0.21937 0.0
H672 H 0.47987 0.44696 0.21845 0.0
H673 H 0.47301 0.46768 0.21016 0.0
H674 H 0.4899 0.45899 0.19855 0.0
H675 H 0.52439 0.4999 0.10774 0.0
H676 H 0.47407 0.52334 0.13131 0.0
H677 H 0.46496 0.52907 0.1584 0.0
H678 H 0.48958 0.52203 0.21199 0.0
H679 H 0.53516 0.49247 0.18842 0.0
H680 H 0.54372 0.48611 0.16126 0.0
H681 H 0.39997 0.57999 0.16629 0.0
H682 H 0.39411 0.55099 0.16905 0.0
H683 H 0.38849 0.56543 0.1854 0.0
Li684 Li 0.63371 0.41553 0.42831 0.0
Li685 Li 0.62754 0.37969 0.41566 0.0
Li686 Li 0.66297 0.41693 0.41037 0.0
Li687 Li 0.62688 0.40915 0.39795 0.0
C688 C 0.65798 0.40068 0.44691 0.0
N689 N 0.6694 0.40209 0.47934 0.0
C690 C 0.64873 0.38043 0.45596 0.0
C691 C 0.67315 0.42162 0.45431 0.0
C692 C 0.6547 0.38151 0.47236 0.0
C693 C 0.67867 0.42198 0.47073 0.0
C694 C 0.58323 0.37699 0.41854 0.0
C695 C 0.54521 0.3525 0.4077 0.0
N696 N 0.53682 0.3473 0.42309 0.0
C697 C 0.57416 0.3716 0.43425 0.0
C698 C 0.56859 0.36755 0.40514 0.0
C699 C 0.55068 0.35647 0.4363 0.0
C700 C 0.62752 0.44816 0.44616 0.0
N701 N 0.62707 0.42776 0.44718 0.0
C702 C 0.61566 0.42377 0.47504 0.0
C703 C 0.62109 0.41547 0.46122 0.0
C704 C 0.61585 0.4447 0.47434 0.0
C705 C 0.62178 0.45695 0.45966 0.0
H706 H 0.63209 0.45747 0.4348 0.0
H707 H 0.62012 0.39897 0.46164 0.0
C708 C 0.63275 0.34169 0.41411 0.0
N709 N 0.61748 0.34806 0.41907 0.0
C710 C 0.62897 0.31977 0.41747 0.0
C711 C 0.5935 0.31106 0.43076 0.0
C712 C 0.59797 0.33322 0.42709 0.0
C713 C 0.60932 0.30422 0.42616 0.0
H714 H 0.64833 0.354 0.40801 0.0
H715 H 0.58623 0.3387 0.43114 0.0
C716 C 0.6683 0.45793 0.40667 0.0
N717 N 0.70733 0.4991 0.39971 0.0
C718 C 0.67367 0.46527 0.39057 0.0
C719 C 0.6826 0.47162 0.41925 0.0
C720 C 0.69353 0.48611 0.3873 0.0
C721 C 0.7023 0.49235 0.41548 0.0
C722 C 0.63594 0.37739 0.38177 0.0
C723 C 0.65102 0.37912 0.36945 0.0
C724 C 0.6129 0.36021 0.38094 0.0
C725 C 0.64267 0.3638 0.35636 0.0
C726 C 0.60521 0.34519 0.36767 0.0
N727 N 0.62013 0.3473 0.35574 0.0
C728 C 0.70967 0.43059 0.41726 0.0
C729 C 0.70107 0.4344 0.38988 0.0
C730 C 0.73188 0.43596 0.41294 0.0
N731 N 0.69471 0.42955 0.4057 0.0
C732 C 0.72307 0.4398 0.38501 0.0
C733 C 0.73864 0.44004 0.39654 0.0
H734 H 0.70408 0.42623 0.42969 0.0
H735 H 0.68866 0.43296 0.3809 0.0
C736 C 0.59623 0.41924 0.3811 0.0
N737 N 0.61381 0.41491 0.37934 0.0
C738 C 0.58723 0.42454 0.36752 0.0
C739 C 0.61458 0.42076 0.35066 0.0
C740 C 0.62317 0.41577 0.36454 0.0
C741 C 0.59643 0.4253 0.35206 0.0
H742 H 0.58935 0.41876 0.39307 0.0
H743 H 0.63766 0.41309 0.36354 0.0
O744 O 0.65217 0.39994 0.43088 0.0
O745 O 0.60612 0.3921 0.41629 0.0
O746 O 0.64916 0.4374 0.41009 0.0
O747 O 0.64385 0.39236 0.39462 0.0
H748 H 0.63699 0.36407 0.45042 0.0
H749 H 0.68047 0.43743 0.44747 0.0
H750 H 0.64761 0.36599 0.47953 0.0
H751 H 0.6903 0.43808 0.47664 0.0
H752 H 0.53372 0.34501 0.39744 0.0
H753 H 0.58515 0.37878 0.44475 0.0
H754 H 0.57513 0.37188 0.39288 0.0
H755 H 0.54349 0.35203 0.44839 0.0
H756 H 0.61075 0.41362 0.48606 0.0
H757 H 0.62207 0.47315 0.45868 0.0
H758 H 0.64187 0.31547 0.41395 0.0
H759 H 0.57807 0.29959 0.4374 0.0
H760 H 0.66274 0.45488 0.3807 0.0
H761 H 0.67852 0.46629 0.43178 0.0
H762 H 0.698 0.49195 0.37488 0.0
H763 H 0.71359 0.5031 0.42509 0.0
H764 H 0.66896 0.39221 0.36995 0.0
H765 H 0.60116 0.35832 0.39053 0.0
H766 H 0.65412 0.36501 0.34669 0.0
H767 H 0.58741 0.33181 0.36689 0.0
H768 H 0.74338 0.43616 0.42225 0.0
H769 H 0.72733 0.44243 0.37221 0.0
H770 H 0.57321 0.42794 0.36909 0.0
H771 H 0.62248 0.42167 0.33901 0.0
Li772 Li 0.23264 0.62508 0.59215 0.0
Li773 Li 0.26208 0.61777 0.58206 0.0
Li774 Li 0.26309 0.65398 0.57497 0.0
Li775 Li 0.23346 0.61695 0.56311 0.0
C776 C 0.27102 0.63994 0.61231 0.0
N777 N 0.28077 0.63365 0.64388 0.0
C778 C 0.25974 0.61807 0.61925 0.0
C779 C 0.28723 0.65861 0.62141 0.0
C780 C 0.26492 0.61524 0.63523 0.0
C781 C 0.29192 0.65508 0.63736 0.0
C782 C 0.22298 0.57406 0.58034 0.0
C783 C 0.22066 0.54308 0.56411 0.0
N784 N 0.21237 0.5289 0.57718 0.0
C785 C 0.21424 0.55913 0.59359 0.0
C786 C 0.22605 0.56594 0.56545 0.0
C787 C 0.20907 0.53638 0.59176 0.0
C788 C 0.19365 0.59902 0.61117 0.0
N789 N 0.21301 0.61988 0.6102 0.0
C790 C 0.20546 0.6306 0.6362 0.0
C791 C 0.219 0.63573 0.62226 0.0
C792 C 0.18575 0.60882 0.63786 0.0
C793 C 0.17978 0.59306 0.62496 0.0
H794 H 0.18936 0.58673 0.60141 0.0
H795 H 0.23461 0.65213 0.62127 0.0
C796 C 0.30522 0.62316 0.58249 0.0
N797 N 0.28334 0.6077 0.58681 0.0
C798 C 0.32323 0.61942 0.58642 0.0
C799 C 0.29595 0.58378 0.59925 0.0
C800 C 0.27837 0.58819 0.59498 0.0
C801 C 0.31878 0.59964 0.59508 0.0
H802 H 0.30873 0.63879 0.57635 0.0
H803 H 0.26096 0.57639 0.59864 0.0
C804 C 0.22335 0.65746 0.57847 0.0
N805 N 0.21128 0.68887 0.58933 0.0
C806 C 0.20383 0.65709 0.57226 0.0
C807 C 0.23675 0.67379 0.59021 0.0
C808 C 0.19801 0.67312 0.57791 0.0
C809 C 0.23036 0.68952 0.59554 0.0
C810 C 0.27856 0.63185 0.54755 0.0
C811 C 0.28905 0.65064 0.53705 0.0
C812 C 0.28027 0.61233 0.54442 0.0
C813 C 0.30081 0.64944 0.52344 0.0
C814 C 0.2922 0.61181 0.53069 0.0
N815 N 0.30212 0.63021 0.52056 0.0
C816 C 0.30621 0.69186 0.5756 0.0
C817 C 0.27958 0.69924 0.56181 0.0
C818 C 0.32413 0.71374 0.57193 0.0
N819 N 0.28454 0.68504 0.57046 0.0
C820 C 0.29703 0.72145 0.55797 0.0
C821 C 0.3197 0.7288 0.56288 0.0
H822 H 0.30959 0.68004 0.58233 0.0
H823 H 0.26221 0.69318 0.55764 0.0
C824 C 0.19287 0.5874 0.54589 0.0
N825 N 0.21527 0.60385 0.54415 0.0
C826 C 0.17853 0.5789 0.53226 0.0
C827 C 0.21076 0.60405 0.51535 0.0
C828 C 0.22437 0.61222 0.52928 0.0
C829 C 0.18745 0.58738 0.51675 0.0
H830 H 0.18604 0.58126 0.5579 0.0
H831 H 0.24202 0.62572 0.52825 0.0
O832 O 0.26609 0.64322 0.59675 0.0
O833 O 0.22811 0.59637 0.58197 0.0
O834 O 0.22921 0.64185 0.57304 0.0
O835 O 0.2671 0.63284 0.56098 0.0
H836 H 0.24706 0.60348 0.61241 0.0
H837 H 0.29603 0.67566 0.6162 0.0
H838 H 0.25632 0.59842 0.64076 0.0
H839 H 0.30442 0.66938 0.64456 0.0
H840 H 0.22301 0.53659 0.55266 0.0
H841 H 0.21167 0.56509 0.6052 0.0
H842 H 0.23241 0.57712 0.55501 0.0
H843 H 0.20243 0.52468 0.60193 0.0
H844 H 0.21061 0.64349 0.64564 0.0
H845 H 0.16503 0.57594 0.6257 0.0
H846 H 0.34057 0.63238 0.58327 0.0
H847 H 0.29176 0.56831 0.60592 0.0
H848 H 0.19329 0.64453 0.56317 0.0
H849 H 0.25191 0.67434 0.59517 0.0
H850 H 0.18294 0.67304 0.5732 0.0
H851 H 0.24056 0.70225 0.60462 0.0
H852 H 0.28799 0.66593 0.53935 0.0
H853 H 0.27273 0.59783 0.55259 0.0
H854 H 0.30891 0.66381 0.51517 0.0
H855 H 0.29365 0.59681 0.52811 0.0
H856 H 0.3413 0.71883 0.57612 0.0
H857 H 0.29297 0.7325 0.55086 0.0
H858 H 0.16066 0.566 0.53384 0.0
H859 H 0.21821 0.61137 0.50366 0.0
Li860 Li 0.66621 0.26763 0.7473 0.0
Li861 Li 0.62845 0.23915 0.75804 0.0
Li862 Li 0.63796 0.23803 0.72873 0.0
Li863 Li 0.63027 0.26766 0.73915 0.0
C864 C 0.66926 0.22796 0.75022 0.0
N865 N 0.70291 0.2161 0.75355 0.0
C866 C 0.67266 0.22025 0.76518 0.0
C867 C 0.68276 0.22931 0.7369 0.0
C868 C 0.68982 0.21443 0.76663 0.0
C869 C 0.69973 0.22332 0.73884 0.0
C870 C 0.64301 0.27623 0.77712 0.0
C871 C 0.62129 0.27804 0.79982 0.0
N872 N 0.63904 0.28242 0.80994 0.0
C873 C 0.66112 0.28095 0.78772 0.0
C874 C 0.623 0.27496 0.78318 0.0
C875 C 0.65875 0.28395 0.80428 0.0
C876 C 0.70566 0.30969 0.74567 0.0
N877 N 0.69773 0.28839 0.75197 0.0
C878 C 0.73312 0.30101 0.76617 0.0
C879 C 0.711 0.28368 0.76193 0.0
C880 C 0.74155 0.32338 0.76017 0.0
C881 C 0.7276 0.32747 0.74956 0.0
H882 H 0.69457 0.31304 0.73803 0.0
H883 H 0.7042 0.26681 0.76713 0.0
C884 C 0.5904 0.20311 0.77345 0.0
N885 N 0.61263 0.21961 0.77589 0.0
C886 C 0.57846 0.18679 0.78543 0.0
C887 C 0.61246 0.20477 0.80232 0.0
C888 C 0.62375 0.22079 0.79 0.0
C889 C 0.58957 0.18731 0.80003 0.0
H890 H 0.58212 0.20214 0.76198 0.0
H891 H 0.64156 0.23374 0.79152 0.0
C892 C 0.66739 0.27708 0.71081 0.0
N893 N 0.69016 0.28838 0.68137 0.0
C894 C 0.65835 0.28293 0.69755 0.0
C895 C 0.68823 0.27742 0.70919 0.0
C896 C 0.67005 0.28846 0.68274 0.0
C897 C 0.69942 0.28306 0.69418 0.0
C898 C 0.58855 0.23207 0.73419 0.0
C899 C 0.57965 0.22495 0.71854 0.0
C900 C 0.57635 0.23726 0.74552 0.0
C901 C 0.5588 0.22348 0.71441 0.0
C902 C 0.55557 0.23559 0.74092 0.0
N903 N 0.54731 0.22882 0.72559 0.0
C904 C 0.6329 0.19769 0.7151 0.0
C905 C 0.6282 0.22137 0.69599 0.0
C906 C 0.62791 0.18101 0.70323 0.0
N907 N 0.63311 0.21745 0.71129 0.0
C908 C 0.6229 0.20503 0.68375 0.0
C909 C 0.62267 0.1845 0.68734 0.0
H910 H 0.63608 0.19463 0.72747 0.0
H911 H 0.6277 0.23684 0.69339 0.0
C912 C 0.62589 0.30646 0.74369 0.0
N913 N 0.6197 0.28825 0.7336 0.0
C914 C 0.62181 0.32411 0.73925 0.0
C915 C 0.60429 0.30359 0.71435 0.0
C916 C 0.60885 0.28638 0.71924 0.0
C917 C 0.61131 0.32304 0.72425 0.0
H918 H 0.63486 0.30774 0.75491 0.0
H919 H 0.60464 0.27205 0.71123 0.0
O920 O 0.65251 0.23371 0.74859 0.0
O921 O 0.64498 0.27319 0.76088 0.0
O922 O 0.65621 0.27174 0.72543 0.0
O923 O 0.609 0.23373 0.73844 0.0
H924 H 0.66225 0.21889 0.77558 0.0
H925 H 0.67998 0.23465 0.72514 0.0
H926 H 0.69272 0.20857 0.77816 0.0
H927 H 0.71032 0.22433 0.72863 0.0
H928 H 0.60586 0.27701 0.80468 0.0
H929 H 0.67674 0.28208 0.78324 0.0
H930 H 0.60898 0.2717 0.77512 0.0
H931 H 0.67258 0.28747 0.81263 0.0
H932 H 0.74331 0.29705 0.77433 0.0
H933 H 0.7331 0.34448 0.74488 0.0
H934 H 0.56098 0.17339 0.78302 0.0
H935 H 0.62164 0.20589 0.81342 0.0
H936 H 0.64238 0.28301 0.69863 0.0
H937 H 0.69584 0.2736 0.71943 0.0
H938 H 0.66314 0.29284 0.67234 0.0
H939 H 0.71553 0.2833 0.69274 0.0
H940 H 0.58878 0.22069 0.70965 0.0
H941 H 0.58285 0.2425 0.75773 0.0
H942 H 0.55177 0.21811 0.70231 0.0
H943 H 0.54599 0.23965 0.74956 0.0
H944 H 0.62746 0.16522 0.70659 0.0
H945 H 0.61892 0.20835 0.67164 0.0
H946 H 0.62732 0.33872 0.74729 0.0
H947 H 0.59643 0.30224 0.70259 0.0
Li948 Li 0.40739 0.62411 0.92542 0.0
Li949 Li 0.41489 0.65932 0.91161 0.0
Li950 Li 0.37907 0.62146 0.90636 0.0
Li951 Li 0.41603 0.6285 0.8957 0.0
C952 C 0.38496 0.64 0.94268 0.0
N953 N 0.37681 0.63973 0.97562 0.0
C954 C 0.39743 0.65998 0.95191 0.0
C955 C 0.36816 0.61996 0.95015 0.0
C956 C 0.3931 0.65948 0.96856 0.0
C957 C 0.36436 0.62014 0.96683 0.0
C958 C 0.45878 0.66279 0.91215 0.0
C959 C 0.49019 0.68838 0.89489 0.0
N960 N 0.50472 0.69456 0.90783 0.0
C961 C 0.47408 0.66921 0.92524 0.0
C962 C 0.46693 0.67229 0.89682 0.0
C963 C 0.49721 0.68537 0.92283 0.0
C964 C 0.40518 0.59174 0.94917 0.0
N965 N 0.4133 0.6142 0.94549 0.0
C966 C 0.43332 0.6261 0.97078 0.0
C967 C 0.42699 0.63125 0.95596 0.0
C968 C 0.42573 0.60313 0.97485 0.0
C969 C 0.41119 0.58576 0.96393 0.0
H970 H 0.39441 0.57853 0.94055 0.0
H971 H 0.43316 0.64894 0.95269 0.0
C972 C 0.40911 0.69687 0.91011 0.0
N973 N 0.42509 0.69103 0.91417 0.0
C974 C 0.41334 0.71911 0.91284 0.0
C975 C 0.45065 0.72912 0.92364 0.0
C976 C 0.44564 0.70658 0.92076 0.0
C977 C 0.43426 0.73558 0.91985 0.0
H978 H 0.39277 0.68398 0.90515 0.0
H979 H 0.45791 0.70144 0.92417 0.0
C980 C 0.37446 0.58021 0.90342 0.0
N981 N 0.3374 0.53851 0.89438 0.0
C982 C 0.37362 0.57124 0.88793 0.0
C983 C 0.3566 0.56788 0.91438 0.0
C984 C 0.3547 0.55014 0.88357 0.0
C985 C 0.33796 0.54686 0.90956 0.0
C986 C 0.40263 0.65612 0.87611 0.0
C987 C 0.38599 0.64615 0.86389 0.0
C988 C 0.42206 0.67758 0.87346 0.0
C989 C 0.38934 0.65757 0.8491 0.0
C990 C 0.42477 0.68847 0.85851 0.0
N991 N 0.40851 0.67831 0.84673 0.0
C992 C 0.33573 0.61636 0.91106 0.0
C993 C 0.33806 0.59736 0.88746 0.0
C994 C 0.31396 0.61209 0.90653 0.0
N995 N 0.34748 0.60943 0.90137 0.0
C996 C 0.31625 0.59265 0.88247 0.0
C997 C 0.30425 0.6007 0.89181 0.0
H998 H 0.34374 0.62626 0.92191 0.0
H999 H 0.34795 0.59253 0.87975 0.0
C1000 C 0.44784 0.61739 0.88311 0.0
N1001 N 0.43109 0.62198 0.87866 0.0
C1002 C 0.4597 0.61246 0.87133 0.0
C1003 C 0.43671 0.61688 0.8506 0.0
C1004 C 0.42521 0.6216 0.86279 0.0
C1005 C 0.45423 0.61225 0.85482 0.0
H1006 H 0.45205 0.61767 0.89584 0.0
H1007 H 0.41147 0.62471 0.85956 0.0
O1008 O 0.38919 0.64006 0.92642 0.0
O1009 O 0.43607 0.64695 0.91434 0.0
O1010 O 0.39278 0.60087 0.90788 0.0
O1011 O 0.39947 0.64524 0.89074 0.0
H1012 H 0.41047 0.67566 0.94632 0.0
H1013 H 0.35826 0.60441 0.94315 0.0
H1014 H 0.40271 0.67477 0.97588 0.0
H1015 H 0.35151 0.60472 0.9728 0.0
H1016 H 0.4967 0.69588 0.88309 0.0
H1017 H 0.46819 0.66185 0.93715 0.0
H1018 H 0.45553 0.66715 0.88647 0.0
H1019 H 0.5092 0.69058 0.93287 0.0
H1020 H 0.44415 0.64002 0.97895 0.0
H1021 H 0.40509 0.56785 0.96654 0.0
H1022 H 0.39996 0.72306 0.91002 0.0
H1023 H 0.46707 0.74126 0.92894 0.0
H1024 H 0.38735 0.58052 0.87933 0.0
H1025 H 0.35709 0.5745 0.92645 0.0
H1026 H 0.35375 0.54303 0.8716 0.0
H1027 H 0.32395 0.53718 0.91788 0.0
H1028 H 0.37076 0.62967 0.86573 0.0
H1029 H 0.43483 0.68592 0.88287 0.0
H1030 H 0.37668 0.64995 0.83951 0.0
H1031 H 0.43977 0.70504 0.8563 0.0
H1032 H 0.30517 0.61836 0.91418 0.0
H1033 H 0.30951 0.58405 0.87094 0.0
H1034 H 0.47323 0.60918 0.87511 0.0
H1035 H 0.43171 0.61652 0.83802 0.0
Li1036 Li 0.77773 0.40626 0.07768 0.0
Li1037 Li 0.80612 0.40042 0.0907 0.0
Li1038 Li 0.80714 0.40767 0.06033 0.0
Li1039 Li 0.77623 0.37109 0.073 0.0
C1040 C 0.81386 0.44837 0.08447 0.0
N1041 N 0.81893 0.48925 0.09594 0.0
C1042 C 0.80755 0.44988 0.1004 0.0
C1043 C 0.82289 0.46762 0.07439 0.0
C1044 C 0.81019 0.47071 0.10596 0.0
C1045 C 0.8253 0.48815 0.08042 0.0
C1046 C 0.76796 0.36721 0.10629 0.0
C1047 C 0.77284 0.33717 0.11819 0.0
N1048 N 0.75896 0.33566 0.13071 0.0
C1049 C 0.75373 0.36534 0.11926 0.0
C1050 C 0.77759 0.35301 0.10573 0.0
C1051 C 0.7494 0.34929 0.1315 0.0
C1052 C 0.73726 0.40233 0.08847 0.0
N1053 N 0.75699 0.41763 0.08092 0.0
C1054 C 0.74272 0.44355 0.07723 0.0
C1055 C 0.76009 0.43804 0.07537 0.0
C1056 C 0.72199 0.4278 0.08474 0.0
C1057 C 0.71955 0.4071 0.09058 0.0
H1058 H 0.73503 0.38606 0.09251 0.0
H1059 H 0.77565 0.44971 0.06901 0.0
C1060 C 0.84813 0.41264 0.10482 0.0
N1061 N 0.8262 0.40671 0.10857 0.0
C1062 C 0.86449 0.41862 0.11709 0.0
C1063 C 0.83531 0.41201 0.13692 0.0
C1064 C 0.81952 0.40635 0.12423 0.0
C1065 C 0.85818 0.41843 0.13338 0.0
H1066 H 0.85292 0.41292 0.09223 0.0
H1067 H 0.80207 0.40201 0.12685 0.0
C1068 C 0.7599 0.39725 0.0486 0.0
N1069 N 0.73157 0.41089 0.03414 0.0
C1070 C 0.73609 0.38284 0.04891 0.0
C1071 C 0.76932 0.41855 0.04087 0.0
C1072 C 0.72205 0.39008 0.04157 0.0
C1073 C 0.7547 0.42512 0.03362 0.0
C1074 C 0.81806 0.37005 0.06596 0.0
C1075 C 0.81688 0.3663 0.04917 0.0
C1076 C 0.82777 0.3604 0.07599 0.0
C1077 C 0.82529 0.35272 0.04271 0.0
C1078 C 0.83594 0.34689 0.06905 0.0
N1079 N 0.83454 0.34336 0.0527 0.0
C1080 C 0.85025 0.43489 0.0467 0.0
C1081 C 0.82047 0.41791 0.02706 0.0
C1082 C 0.86657 0.44578 0.03452 0.0
N1083 N 0.82774 0.42139 0.04279 0.0
C1084 C 0.83621 0.42861 0.01447 0.0
C1085 C 0.85961 0.44279 0.01815 0.0
H1086 H 0.85547 0.43726 0.05934 0.0
H1087 H 0.80246 0.40684 0.02431 0.0
C1088 C 0.73321 0.33339 0.07465 0.0
N1089 N 0.75471 0.33934 0.06965 0.0
C1090 C 0.71475 0.31165 0.07127 0.0
C1091 C 0.74098 0.302 0.05818 0.0
C1092 C 0.75901 0.32404 0.06184 0.0
C1093 C 0.71839 0.29574 0.06259 0.0
H1094 H 0.73026 0.34596 0.08073 0.0
H1095 H 0.7762 0.32903 0.05802 0.0
O1096 O 0.81135 0.42817 0.07877 0.0
O1097 O 0.7724 0.383 0.09432 0.0
O1098 O 0.77393 0.39073 0.05602 0.0
O1099 O 0.81029 0.38358 0.07254 0.0
H1100 H 0.80049 0.43508 0.10832 0.0
H1101 H 0.82788 0.46666 0.06202 0.0
H1102 H 0.80527 0.47214 0.11824 0.0
H1103 H 0.8322 0.50319 0.07275 0.0
H1104 H 0.78018 0.32607 0.1179 0.0
H1105 H 0.74619 0.37626 0.11991 0.0
H1106 H 0.78855 0.35411 0.0958 0.0
H1107 H 0.73845 0.3477 0.14162 0.0
H1108 H 0.7452 0.45959 0.07237 0.0
H1109 H 0.704 0.39458 0.09664 0.0
H1110 H 0.88189 0.42323 0.11386 0.0
H1111 H 0.82984 0.4119 0.14932 0.0
H1112 H 0.72852 0.36633 0.05485 0.0
H1113 H 0.7877 0.43006 0.04073 0.0
H1114 H 0.70359 0.37916 0.0418 0.0
H1115 H 0.76174 0.44162 0.02769 0.0
H1116 H 0.8093 0.37353 0.04126 0.0
H1117 H 0.829 0.36333 0.08899 0.0
H1118 H 0.8244 0.34957 0.02975 0.0
H1119 H 0.84344 0.33925 0.07667 0.0
H1120 H 0.88439 0.45678 0.03791 0.0
H1121 H 0.83017 0.42567 0.00201 0.0
H1122 H 0.69766 0.30782 0.0747 0.0
H1123 H 0.74461 0.2902 0.05164 0.0
Li1124 Li 0.42784 0.80859 0.25978 0.0
Li1125 Li 0.39234 0.78002 0.24741 0.0
Li1126 Li 0.42681 0.7788 0.24151 0.0
Li1127 Li 0.42002 0.80952 0.22941 0.0
C1128 C 0.41879 0.76851 0.27626 0.0
N1129 N 0.43302 0.75556 0.30378 0.0
C1130 C 0.40345 0.7575 0.28901 0.0
C1131 C 0.4413 0.77275 0.27745 0.0
C1132 C 0.41099 0.75116 0.30285 0.0
C1133 C 0.44818 0.76611 0.29147 0.0
C1134 C 0.38724 0.818 0.25179 0.0
C1135 C 0.36002 0.82915 0.24301 0.0
N1136 N 0.35224 0.8269 0.25855 0.0
C1137 C 0.3791 0.81591 0.26768 0.0
C1138 C 0.37774 0.82477 0.23935 0.0
C1139 C 0.36134 0.82043 0.27084 0.0
C1140 C 0.45986 0.84864 0.27694 0.0
N1141 N 0.44109 0.82737 0.2784 0.0
C1142 C 0.43856 0.83326 0.30678 0.0
C1143 C 0.43033 0.81959 0.2929 0.0
C1144 C 0.45778 0.85537 0.30567 0.0
C1145 C 0.46853 0.86306 0.29052 0.0
H1146 H 0.46781 0.85454 0.26517 0.0
H1147 H 0.41495 0.80301 0.29362 0.0
C1148 C 0.35747 0.7382 0.25717 0.0
N1149 N 0.36069 0.75882 0.25212 0.0
C1150 C 0.33562 0.72043 0.26105 0.0
C1151 C 0.32042 0.74518 0.25426 0.0
C1152 C 0.34267 0.76254 0.25044 0.0
C1153 C 0.3167 0.7238 0.25974 0.0
H1154 H 0.37197 0.73546 0.258 0.0
H1155 H 0.34537 0.77873 0.24592 0.0
C1156 C 0.47053 0.8197 0.23811 0.0
N1157 N 0.51617 0.83392 0.23232 0.0
C1158 C 0.47902 0.82403 0.22222 0.0
C1159 C 0.48533 0.82296 0.25107 0.0
C1160 C 0.50213 0.83111 0.21955 0.0
C1161 C 0.50832 0.83004 0.24789 0.0
C1162 C 0.38296 0.7588 0.21947 0.0
C1163 C 0.37917 0.73645 0.21816 0.0
C1164 C 0.36563 0.76339 0.2149 0.0
C1165 C 0.35801 0.719 0.21242 0.0
C1166 C 0.3447 0.74547 0.20923 0.0
N1167 N 0.34135 0.72383 0.20812 0.0
C1168 C 0.4257 0.73711 0.24467 0.0
C1169 C 0.454 0.76205 0.22604 0.0
C1170 C 0.42984 0.71937 0.24063 0.0
N1171 N 0.43754 0.75786 0.23725 0.0
C1172 C 0.45885 0.7448 0.22171 0.0
C1173 C 0.44633 0.72292 0.22878 0.0
H1174 H 0.41216 0.73394 0.25314 0.0
H1175 H 0.46272 0.77838 0.21993 0.0
C1176 C 0.44597 0.84991 0.2113 0.0
N1177 N 0.4264 0.82913 0.21122 0.0
C1178 C 0.4524 0.86385 0.19751 0.0
C1179 C 0.41776 0.83526 0.18414 0.0
C1180 C 0.41222 0.82174 0.19808 0.0
C1181 C 0.43837 0.85645 0.18355 0.0
H1182 H 0.45698 0.85531 0.22192 0.0
H1183 H 0.39684 0.80512 0.19826 0.0
O1184 O 0.41162 0.7749 0.26268 0.0
O1185 O 0.40479 0.81395 0.24846 0.0
O1186 O 0.44803 0.81307 0.24098 0.0
O1187 O 0.40339 0.77601 0.22542 0.0
H1188 H 0.38594 0.75409 0.28828 0.0
H1189 H 0.45324 0.78085 0.26758 0.0
H1190 H 0.39934 0.74274 0.31284 0.0
H1191 H 0.46556 0.76928 0.29254 0.0
H1192 H 0.35244 0.83434 0.23351 0.0
H1193 H 0.38633 0.81072 0.27743 0.0
H1194 H 0.38397 0.82655 0.227 0.0
H1195 H 0.35477 0.8188 0.28306 0.0
H1196 H 0.42946 0.8269 0.31816 0.0
H1197 H 0.48336 0.88005 0.28918 0.0
H1198 H 0.33356 0.70407 0.26477 0.0
H1199 H 0.30633 0.74854 0.25303 0.0
H1200 H 0.46782 0.82166 0.21205 0.0
H1201 H 0.47921 0.82024 0.26347 0.0
H1202 H 0.50889 0.83435 0.20731 0.0
H1203 H 0.51995 0.83255 0.2578 0.0
H1204 H 0.3924 0.73259 0.22156 0.0
H1205 H 0.36806 0.78048 0.21617 0.0
H1206 H 0.35483 0.70161 0.21139 0.0
H1207 H 0.33105 0.74874 0.20583 0.0
H1208 H 0.41933 0.70271 0.24615 0.0
H1209 H 0.47182 0.74842 0.21259 0.0
H1210 H 0.46859 0.87985 0.19763 0.0
H1211 H 0.40612 0.82897 0.17387 0.0
H1212 H 0.20488 0.59661 0.2959 0.0
H1213 H 0.27594 0.71131 0.24406 0.0
H1214 H 0.17348 0.62002 0.2608 0.0
H1215 H 0.30411 0.69301 0.28477 0.0
H1216 H 0.23815 0.67846 0.25012 0.0
H1217 H 0.24143 0.63205 0.29197 0.0
C1218 C 0.20566 0.60936 0.28748 0.0
C1219 C 0.18611 0.6055 0.27878 0.0
C1220 C 0.2526 0.68172 0.25777 0.0
C1221 C 0.22794 0.64596 0.274 0.0
C1222 C 0.27416 0.70056 0.25438 0.0
C1223 C 0.29332 0.70486 0.26383 0.0
C1224 C 0.25018 0.667 0.27067 0.0
C1225 C 0.28997 0.69013 0.27693 0.0
C1226 C 0.22652 0.62957 0.28522 0.0
C1227 C 0.18814 0.62244 0.26784 0.0
N1228 N 0.26889 0.67182 0.27989 0.0
N1229 N 0.20871 0.6419 0.26571 0.0
H1230 H 0.63442 0.1916 0.43844 0.0
H1231 H 0.594 0.28279 0.45557 0.0
H1232 H 0.60574 0.19693 0.48399 0.0
H1233 H 0.61865 0.27477 0.40896 0.0
H1234 H 0.5942 0.24864 0.46524 0.0
H1235 H 0.62526 0.2194 0.42655 0.0
C1236 C 0.6258 0.19833 0.44583 0.0
C1237 C 0.62059 0.1918 0.46217 0.0
C1238 C 0.59934 0.25419 0.45283 0.0
C1239 C 0.61053 0.224 0.44879 0.0
C1240 C 0.59906 0.27363 0.44725 0.0
C1241 C 0.60653 0.28184 0.43145 0.0
C1242 C 0.60727 0.2429 0.4426 0.0
C1243 C 0.61319 0.26935 0.42133 0.0
C1244 C 0.62065 0.21426 0.43908 0.0
C1245 C 0.60984 0.20137 0.47131 0.0
N1246 N 0.61361 0.25065 0.42712 0.0
N1247 N 0.6053 0.21708 0.46454 0.0
H1248 H 0.41891 0.59061 0.65566 0.0
H1249 H 0.35752 0.60855 0.57818 0.0
H1250 H 0.45417 0.62315 0.6113 0.0
H1251 H 0.32443 0.58419 0.62463 0.0
H1252 H 0.39142 0.60841 0.58873 0.0
H1253 H 0.3826 0.58259 0.64312 0.0
C1254 C 0.4189 0.59569 0.64317 0.0
C1255 C 0.4395 0.60731 0.63444 0.0
C1256 C 0.37666 0.60289 0.59657 0.0
C1257 C 0.39815 0.59859 0.62008 0.0
C1258 C 0.35732 0.60303 0.59057 0.0
C1259 C 0.33817 0.59664 0.60059 0.0
C1260 C 0.37694 0.59635 0.61274 0.0
C1261 C 0.33872 0.58916 0.61644 0.0
C1262 C 0.39822 0.59121 0.63604 0.0
C1263 C 0.43863 0.61389 0.61838 0.0
N1264 N 0.35788 0.58944 0.62207 0.0
N1265 N 0.41831 0.60952 0.61175 0.0
H1266 H 0.84766 0.42615 0.82139 0.0
H1267 H 0.77381 0.36019 0.74264 0.0
H1268 H 0.85326 0.45904 0.77532 0.0
H1269 H 0.75995 0.33116 0.79089 0.0
H1270 H 0.80747 0.39447 0.75328 0.0
H1271 H 0.82004 0.38922 0.80923 0.0
C1272 C 0.84335 0.42548 0.80863 0.0
C1273 C 0.85291 0.44559 0.7993 0.0
C1274 C 0.79718 0.38049 0.7615 0.0
C1275 C 0.82108 0.40354 0.78535 0.0
C1276 C 0.77791 0.36093 0.75545 0.0
C1277 C 0.76381 0.34282 0.76591 0.0
C1278 C 0.80245 0.38199 0.77814 0.0
C1279 C 0.77032 0.34457 0.78233 0.0
C1280 C 0.82753 0.40446 0.80171 0.0
C1281 C 0.84648 0.44388 0.78288 0.0
N1282 N 0.78903 0.36388 0.78795 0.0
N1283 N 0.8309 0.42323 0.77644 0.0
H1284 H 0.47352 0.87243 0.97301 0.0
H1285 H 0.42148 0.76213 0.90231 0.0
H1286 H 0.41616 0.85883 0.92671 0.0
H1287 H 0.45607 0.76226 0.94665 0.0
H1288 H 0.42485 0.79862 0.91049 0.0
H1289 H 0.47052 0.82995 0.96235 0.0
C1290 C 0.46154 0.86179 0.96367 0.0
C1291 C 0.44768 0.87249 0.94921 0.0
C1292 C 0.43176 0.79066 0.91837 0.0
C1293 C 0.44344 0.82203 0.93887 0.0
C1294 C 0.42979 0.76979 0.91375 0.0
C1295 C 0.43826 0.75888 0.92388 0.0
C1296 C 0.44242 0.80081 0.93315 0.0
C1297 C 0.44943 0.77004 0.93837 0.0
C1298 C 0.46065 0.83646 0.95632 0.0
C1299 C 0.42532 0.85317 0.93451 0.0
N1300 N 0.45111 0.79038 0.94261 0.0
N1301 N 0.42729 0.83066 0.92997 0.0
H1302 H 0.58656 0.4106 0.09422 0.0
H1303 H 0.72347 0.46829 0.09275 0.0
H1304 H 0.63224 0.48326 0.10091 0.0
H1305 H 0.67634 0.39771 0.07986 0.0
H1306 H 0.69075 0.47447 0.09625 0.0
H1307 H 0.6197 0.40566 0.08974 0.0
C1308 C 0.60363 0.42547 0.09494 0.0
C1309 C 0.60668 0.44725 0.09837 0.0
C1310 C 0.68762 0.45766 0.09263 0.0
C1311 C 0.64479 0.44187 0.09296 0.0
C1312 C 0.70628 0.45415 0.09055 0.0
C1313 C 0.70263 0.43238 0.08618 0.0
C1314 C 0.66519 0.43926 0.09031 0.0
C1315 C 0.67997 0.41465 0.08359 0.0
C1316 C 0.62255 0.42269 0.09228 0.0
C1317 C 0.62916 0.46608 0.09869 0.0
N1318 N 0.66216 0.41846 0.08576 0.0
N1319 N 0.64739 0.46294 0.09611 0.0
H1320 H 0.41289 0.87531 0.55557 0.0
H1321 H 0.3619 0.73961 0.55123 0.0
H1322 H 0.45028 0.84355 0.53696 0.0
H1323 H 0.32109 0.77028 0.56431 0.0
H1324 H 0.39417 0.7777 0.54544 0.0
H1325 H 0.37875 0.83724 0.55832 0.0
C1326 C 0.41378 0.86033 0.55181 0.0
C1327 C 0.43431 0.86259 0.54572 0.0
C1328 C 0.37816 0.77616 0.5495 0.0
C1329 C 0.39554 0.819 0.54921 0.0
C1330 C 0.35976 0.75441 0.55289 0.0
C1331 C 0.33886 0.75181 0.55841 0.0
C1332 C 0.37576 0.79556 0.55174 0.0
C1333 C 0.33689 0.77153 0.56004 0.0
C1334 C 0.39434 0.83862 0.55344 0.0
C1335 C 0.4347 0.84258 0.54145 0.0
N1336 N 0.35519 0.79262 0.55685 0.0
N1337 N 0.41565 0.82166 0.54331 0.0
H1338 H 0.64896 0.4702 0.69556 0.0
H1339 H 0.5748 0.3227 0.70888 0.0
H1340 H 0.56378 0.41604 0.68093 0.0
H1341 H 0.64364 0.36852 0.72607 0.0
H1342 H 0.57305 0.35595 0.69841 0.0
H1343 H 0.64917 0.42928 0.70586 0.0
C1344 C 0.63433 0.45327 0.69355 0.0
C1345 C 0.60499 0.44818 0.68936 0.0
C1346 C 0.58846 0.35866 0.70454 0.0
C1347 C 0.60751 0.40117 0.70007 0.0
C1348 C 0.5895 0.33973 0.71046 0.0
C1349 C 0.60935 0.34286 0.71843 0.0
C1350 C 0.60749 0.38075 0.70645 0.0
C1351 C 0.62787 0.36532 0.72024 0.0
C1352 C 0.63377 0.42813 0.70083 0.0
C1353 C 0.58057 0.41909 0.68449 0.0
N1354 N 0.62652 0.3834 0.71422 0.0
N1355 N 0.58411 0.39862 0.6919 0.0
H1356 H 0.19844 0.64202 0.86038 0.0
H1357 H 0.26742 0.56419 0.87685 0.0
H1358 H 0.1647 0.55596 0.84743 0.0
H1359 H 0.29276 0.63426 0.89213 0.0
H1360 H 0.23317 0.56338 0.8656 0.0
H1361 H 0.23895 0.64115 0.87093 0.0
C1362 C 0.20014 0.62699 0.85869 0.0
C1363 C 0.17522 0.59787 0.85501 0.0
C1364 C 0.24623 0.57886 0.87149 0.0
C1365 C 0.22407 0.59904 0.86596 0.0
C1366 C 0.26575 0.57935 0.87787 0.0
C1367 C 0.28288 0.59926 0.88555 0.0
C1368 C 0.24405 0.59848 0.87267 0.0
C1369 C 0.27982 0.61841 0.88658 0.0
C1370 C 0.22435 0.62581 0.86613 0.0
C1371 C 0.17884 0.57267 0.85071 0.0
N1372 N 0.26082 0.61756 0.88016 0.0
N1373 N 0.20264 0.57568 0.85818 0.0
H1374 H 0.57877 0.18839 0.04762 0.0
H1375 H 0.7123 0.27434 0.03309 0.0
H1376 H 0.61341 0.1932 0.00249 0.0
H1377 H 0.67871 0.26716 0.07918 0.0
H1378 H 0.67732 0.24143 0.02272 0.0
H1379 H 0.61591 0.21424 0.06032 0.0
C1380 C 0.59427 0.19459 0.04048 0.0
C1381 C 0.59309 0.18851 0.02403 0.0
C1382 C 0.67765 0.24688 0.03516 0.0
C1383 C 0.63557 0.21843 0.03833 0.0
C1384 C 0.69774 0.26559 0.04116 0.0
C1385 C 0.69843 0.27374 0.057 0.0
C1386 C 0.65802 0.23627 0.04502 0.0
C1387 C 0.67883 0.26181 0.06678 0.0
C1388 C 0.61545 0.20939 0.0477 0.0
C1389 C 0.61362 0.19734 0.01524 0.0
N1390 N 0.65937 0.24385 0.06058 0.0
N1391 N 0.63399 0.21196 0.02246 0.0
H1392 H 0.44858 0.61927 0.16771 0.0
H1393 H 0.44391 0.68698 0.24641 0.0
H1394 H 0.41945 0.58649 0.21348 0.0
H1395 H 0.45397 0.71378 0.19755 0.0
H1396 H 0.4426 0.65241 0.23573 0.0
H1397 H 0.45842 0.6564 0.1798 0.0
C1398 C 0.44467 0.62 0.1804 0.0
C1399 C 0.43346 0.59986 0.18966 0.0
C1400 C 0.44532 0.66599 0.22739 0.0
C1401 C 0.44433 0.64213 0.20351 0.0
C1402 C 0.44599 0.68572 0.23346 0.0
C1403 C 0.44877 0.7033 0.22287 0.0
C1404 C 0.44759 0.66384 0.21062 0.0
C1405 C 0.45196 0.70085 0.20625 0.0
C1406 C 0.45017 0.64113 0.18726 0.0
C1407 C 0.42837 0.60165 0.20597 0.0
N1408 N 0.45112 0.68143 0.20064 0.0
N1409 N 0.4338 0.62241 0.21237 0.0
H1410 H 0.84568 0.40865 0.37563 0.0
H1411 H 0.76825 0.46824 0.37294 0.0
H1412 H 0.85021 0.45506 0.33783 0.0
H1413 H 0.75928 0.41638 0.40772 0.0
H1414 H 0.80185 0.46774 0.36212 0.0
H1415 H 0.81763 0.41545 0.38979 0.0
C1416 C 0.841 0.42055 0.37046 0.0
C1417 C 0.85035 0.43143 0.35561 0.0
C1418 C 0.79265 0.45664 0.37223 0.0
C1419 C 0.81803 0.43904 0.37156 0.0
C1420 C 0.77342 0.45687 0.37838 0.0
C1421 C 0.76077 0.44221 0.39119 0.0
C1422 C 0.79928 0.44161 0.37889 0.0
C1423 C 0.76856 0.42815 0.39794 0.0
C1424 C 0.82494 0.42437 0.3785 0.0
C1425 C 0.84349 0.44645 0.34931 0.0
N1426 N 0.78717 0.42806 0.39163 0.0
N1427 N 0.82767 0.44973 0.35728 0.0
H1428 H 0.08838 0.57416 0.44455 0.0
H1429 H 0.1963 0.57611 0.48668 0.0
H1430 H 0.1339 0.55678 0.41945 0.0
H1431 H 0.14458 0.58224 0.51357 0.0
H1432 H 0.17298 0.5678 0.46208 0.0
H1433 H 0.10793 0.57608 0.47015 0.0
C1434 C 0.10223 0.57035 0.4445 0.0
C1435 C 0.10928 0.56488 0.42992 0.0
C1436 C 0.16661 0.57075 0.47338 0.0
C1437 C 0.13211 0.56762 0.45905 0.0
C1438 C 0.17995 0.57557 0.4874 0.0
C1439 C 0.17242 0.58 0.50216 0.0
C1440 C 0.14566 0.5706 0.47404 0.0
C1441 C 0.15098 0.57879 0.50246 0.0
C1442 C 0.11344 0.57152 0.45908 0.0
C1443 C 0.12773 0.56071 0.43046 0.0
N1444 N 0.13845 0.57444 0.48858 0.0
N1445 N 0.13856 0.56226 0.44476 0.0
H1446 H 0.62113 0.0727 0.62093 0.0
H1447 H 0.58732 0.16869 0.66534 0.0
H1448 H 0.54804 0.07733 0.60968 0.0
H1449 H 0.64316 0.15896 0.68094 0.0
H1450 H 0.57611 0.13768 0.64546 0.0
H1451 H 0.63139 0.10724 0.64555 0.0
C1452 C 0.60899 0.07819 0.62407 0.0
C1453 C 0.58488 0.07358 0.61055 0.0
C1454 C 0.5908 0.14236 0.65325 0.0
C1455 C 0.59704 0.11202 0.64065 0.0
C1456 C 0.59732 0.16016 0.66449 0.0
C1457 C 0.6162 0.16639 0.67481 0.0
C1458 C 0.60336 0.1309 0.65227 0.0
C1459 C 0.62837 0.15454 0.67333 0.0
C1460 C 0.61581 0.1005 0.63843 0.0
C1461 C 0.56305 0.08132 0.6169 0.0
N1462 N 0.62176 0.13738 0.66223 0.0
N1463 N 0.57283 0.10161 0.63056 0.0
H1464 H 0.53856 0.62121 0.77256 0.0
H1465 H 0.46648 0.57907 0.85501 0.0
H1466 H 0.52508 0.55968 0.79796 0.0
H1467 H 0.47055 0.63411 0.82567 0.0
H1468 H 0.48823 0.57195 0.83431 0.0
H1469 H 0.51373 0.62636 0.7918 0.0
C1470 C 0.53005 0.60858 0.78203 0.0
C1471 C 0.53349 0.58972 0.78349 0.0
C1472 C 0.48429 0.58552 0.83235 0.0
C1473 C 0.50559 0.59583 0.8058 0.0
C1474 C 0.472 0.58969 0.84421 0.0
C1475 C 0.46678 0.60728 0.84209 0.0
C1476 C 0.49161 0.59916 0.8183 0.0
C1477 C 0.47405 0.62027 0.82775 0.0
C1478 C 0.51597 0.61157 0.79305 0.0
C1479 C 0.52256 0.57423 0.79626 0.0
N1480 N 0.48622 0.61604 0.81644 0.0
N1481 N 0.50917 0.57766 0.80694 0.0
H1482 H 0.93777 0.53456 0.94003 0.0
H1483 H 0.90255 0.44811 0.01511 0.0
H1484 H 0.98255 0.51302 0.96129 0.0
H1485 H 0.85561 0.46504 0.99152 0.0
H1486 H 0.93144 0.47035 0.99462 0.0
H1487 H 0.90672 0.50764 0.95775 0.0
C1488 C 0.94091 0.52385 0.94824 0.0
C1489 C 0.96264 0.52574 0.94905 0.0
C1490 C 0.91478 0.4691 0.99384 0.0
C1491 C 0.92743 0.49533 0.96962 0.0
C1492 C 0.89832 0.4565 0.0056 0.0
C1493 C 0.8767 0.45487 0.00511 0.0
C1494 C 0.90969 0.48034 0.98154 0.0
C1495 C 0.87202 0.46574 0.99232 0.0
C1496 C 0.92324 0.50857 0.9584 0.0
C1497 C 0.96597 0.51186 0.96016 0.0
N1498 N 0.88844 0.47817 0.98112 0.0
N1499 N 0.9486 0.49733 0.97005 0.0
H1500 H 0.51283 0.96164 0.1115 0.0
H1501 H 0.43136 0.84052 0.15207 0.0
H1502 H 0.46265 0.90288 0.08434 0.0
H1503 H 0.4625 0.90358 0.1799 0.0
H1504 H 0.44446 0.86287 0.12719 0.0
H1505 H 0.49665 0.94052 0.1368 0.0
C1506 C 0.49818 0.94444 0.11087 0.0
C1507 C 0.48871 0.93414 0.0958 0.0
C1508 C 0.44829 0.87182 0.13874 0.0
C1509 C 0.47063 0.9097 0.12464 0.0
C1510 C 0.44067 0.85906 0.15301 0.0
C1511 C 0.44569 0.87009 0.16824 0.0
C1512 C 0.46137 0.89584 0.1396 0.0
C1513 C 0.45847 0.89423 0.16852 0.0
C1514 C 0.489 0.93238 0.1253 0.0
C1515 C 0.47017 0.91155 0.09571 0.0
N1516 N 0.46599 0.90628 0.15443 0.0
N1517 N 0.46181 0.90005 0.10989 0.0
H1518 H 0.55404 0.43455 0.25433 0.0
H1519 H 0.58687 0.4602 0.34868 0.0
H1520 H 0.57089 0.49866 0.27753 0.0
H1521 H 0.58652 0.40461 0.32218 0.0
H1522 H 0.57525 0.47173 0.32379 0.0
H1523 H 0.56038 0.42063 0.2802 0.0
C1524 C 0.55873 0.44554 0.26496 0.0
C1525 C 0.56151 0.46759 0.26387 0.0
C1526 C 0.57762 0.45695 0.32346 0.0
C1527 C 0.56915 0.45198 0.29344 0.0
C1528 C 0.58409 0.45027 0.33767 0.0
C1529 C 0.58778 0.4315 0.33745 0.0
C1530 C 0.57463 0.44463 0.30898 0.0
C1531 C 0.58414 0.41937 0.32282 0.0
C1532 C 0.56246 0.43766 0.27968 0.0
C1533 C 0.56813 0.48138 0.27791 0.0
N1534 N 0.5778 0.42616 0.30917 0.0
N1535 N 0.57169 0.47332 0.29213 0.0
H1536 H 0.4854 0.90644 0.40437 0.0
H1537 H 0.46863 0.90032 0.30771 0.0
H1538 H 0.47194 0.95336 0.37734 0.0
H1539 H 0.46425 0.84479 0.33658 0.0
H1540 H 0.47719 0.92364 0.33244 0.0
H1541 H 0.48468 0.88717 0.37892 0.0
C1542 C 0.48268 0.9129 0.39303 0.0
C1543 C 0.47909 0.93172 0.39293 0.0
C1544 C 0.47454 0.90642 0.33333 0.0
C1545 C 0.47789 0.90961 0.36381 0.0
C1546 C 0.46984 0.89319 0.31922 0.0
C1547 C 0.46557 0.87055 0.32015 0.0
C1548 C 0.47516 0.89699 0.34842 0.0
C1549 C 0.46714 0.86206 0.33538 0.0
C1550 C 0.48216 0.90186 0.37853 0.0
C1551 C 0.47516 0.93914 0.37793 0.0
N1552 N 0.47172 0.87525 0.34893 0.0
N1553 N 0.47466 0.92805 0.36396 0.0
H1554 H 0.59774 0.479 0.5725 0.0
H1555 H 0.5849 0.45978 0.4761 0.0
H1556 H 0.53729 0.46702 0.54606 0.0
H1557 H 0.6314 0.44837 0.50548 0.0
H1558 H 0.57153 0.47011 0.50077 0.0
H1559 H 0.61449 0.47531 0.54706 0.0
C1560 C 0.58818 0.47599 0.56128 0.0
C1561 C 0.56628 0.4737 0.56136 0.0
C1562 C 0.58477 0.46551 0.50177 0.0
C1563 C 0.58517 0.46915 0.53225 0.0
C1564 C 0.5925 0.45977 0.48772 0.0
C1565 C 0.60916 0.4531 0.48882 0.0
C1566 C 0.59403 0.46485 0.51695 0.0
C1567 C 0.61834 0.45319 0.50416 0.0
C1568 C 0.59768 0.47376 0.5468 0.0
C1569 C 0.55439 0.46931 0.54652 0.0
N1570 N 0.61065 0.45894 0.51763 0.0
N1571 N 0.56401 0.4672 0.53255 0.0
H1572 H 0.08486 0.5308 0.71124 0.0
H1573 H 0.20154 0.62132 0.66919 0.0
H1574 H 0.13949 0.58767 0.73727 0.0
H1575 H 0.13905 0.58062 0.64182 0.0
H1576 H 0.17957 0.60822 0.69428 0.0
H1577 H 0.10488 0.54742 0.68567 0.0
C1578 C 0.10088 0.54698 0.71156 0.0
C1579 C 0.11032 0.55816 0.72639 0.0
C1580 C 0.17065 0.6023 0.68277 0.0
C1581 C 0.13362 0.57685 0.69723 0.0
C1582 C 0.18317 0.6099 0.66838 0.0
C1583 C 0.17223 0.60208 0.65324 0.0
C1584 C 0.14703 0.58648 0.68212 0.0
C1585 C 0.14839 0.58681 0.65314 0.0
C1586 C 0.11232 0.55642 0.69696 0.0
C1587 C 0.13146 0.57873 0.72608 0.0
N1588 N 0.13663 0.57937 0.66735 0.0
N1589 N 0.14246 0.58735 0.71176 0.0
H1590 H 0.55666 0.07295 0.87529 0.0
H1591 H 0.54487 0.16777 0.81027 0.0
H1592 H 0.48438 0.08003 0.86698 0.0
H1593 H 0.60698 0.16499 0.81779 0.0
H1594 H 0.52511 0.13629 0.82962 0.0
H1595 H 0.57759 0.10819 0.85074 0.0
C1596 C 0.54689 0.07911 0.86868 0.0
C1597 C 0.51883 0.07498 0.87588 0.0
C1598 C 0.54307 0.14263 0.82705 0.0
C1599 C 0.54381 0.114 0.84608 0.0
C1600 C 0.55435 0.16055 0.81598 0.0
C1601 C 0.57764 0.16905 0.81239 0.0
C1602 C 0.55514 0.13312 0.83452 0.0
C1603 C 0.58912 0.1592 0.82033 0.0
C1604 C 0.55994 0.10175 0.8543 0.0
C1605 C 0.50132 0.08357 0.86342 0.0
N1606 N 0.57772 0.14168 0.83099 0.0
N1607 N 0.51675 0.10402 0.85065 0.0
H1608 H 0.43535 0.53831 0.07251 0.0
H1609 H 0.4687 0.62597 0.98811 0.0
H1610 H 0.5101 0.61495 0.06262 0.0
H1611 H 0.40119 0.56778 0.9964 0.0
H1612 H 0.48143 0.61847 0.0139 0.0
H1613 H 0.41957 0.54748 0.0421 0.0
C1614 C 0.44524 0.55435 0.06608 0.0
C1615 C 0.47647 0.57424 0.06979 0.0
C1616 C 0.46382 0.60735 0.01012 0.0
C1617 C 0.4556 0.58459 0.03557 0.0
C1618 C 0.45648 0.61168 0.99541 0.0
C1619 C 0.43372 0.5977 0.99017 0.0
C1620 C 0.44836 0.58885 0.01969 0.0
C1621 C 0.41889 0.57898 -5e-05 0.0
C1622 C 0.43636 0.55952 0.04689 0.0
C1623 C 0.49236 0.60268 0.05985 0.0
N1624 N 0.42646 0.57513 0.01433 0.0
N1625 N 0.48071 0.60373 0.04278 0.0
H1626 H 0.93679 0.41757 0.2165 0.0
H1627 H 0.90194 0.45492 0.13397 0.0
H1628 H 0.98035 0.48159 0.19206 0.0
H1629 H 0.8538 0.39722 0.16269 0.0
H1630 H 0.9309 0.46482 0.15516 0.0
H1631 H 0.90604 0.40967 0.19709 0.0
C1632 C 0.93973 0.43013 0.2072 0.0
C1633 C 0.96099 0.45048 0.20605 0.0
C1634 C 0.91398 0.45005 0.15689 0.0
C1635 C 0.92615 0.4413 0.18357 0.0
C1636 C 0.89749 0.44431 0.14475 0.0
C1637 C 0.8755 0.42512 0.14653 0.0
C1638 C 0.90854 0.43638 0.17089 0.0
C1639 C 0.87053 0.41221 0.16087 0.0
C1640 C 0.92222 0.42559 0.1961 0.0
C1641 C 0.96409 0.46588 0.19351 0.0
N1642 N 0.88699 0.41797 0.17245 0.0
N1643 N 0.94691 0.46094 0.18273 0.0
loop_
_geom_bond_atom_site_label_1
_geom_bond_atom_site_label_2
_geom_bond_distance
_geom_bond_site_symmetry_2
_ccdc_geom_bond_type
C0 C1 1.560 . S
C0 H61 0.959 . S
C0 H62 0.959 . S
C0 H63 0.960 . S
C1 C0 1.560 . S
C1 O56 1.426 . S
C1 H60 0.980 . S
C2 C3 1.407 . S
C2 C7 1.418 . S
C2 O56 1.334 . S
C3 C2 1.407 . S
C3 C4 1.360 . S
C3 H64 0.929 . S
C4 C3 1.360 . S
C4 C5 1.401 . S
C4 C8 1.527 . S
C5 C4 1.401 . S
C5 C6 1.405 . S
C5 C38 1.587 . S
C6 C5 1.405 . S
C6 C7 1.332 . S
C6 C9 1.496 . S
C7 C2 1.418 . S
C7 C6 1.332 . S
C7 H65 0.929 . S
C8 C4 1.527 . S
C8 H66 0.959 . S
C8 H67 0.961 . S
C8 H68 0.961 . S
C9 C6 1.496 . S
C9 H69 0.960 . S
C9 H70 0.960 . S
C9 H71 0.961 . S
C10 C11 1.517 . S
C10 H73 0.961 . S
C10 H74 0.960 . S
C10 H75 0.959 . S
C11 C10 1.517 . S
C11 O59 1.468 . S
C11 H72 0.980 . S
C12 C13 1.349 . S
C12 C17 1.367 . S
C12 O59 1.408 . S
C13 C12 1.349 . S
C13 C14 1.407 1_655 S
C13 H76 0.930 . S
C14 C13 1.407 1_455 S
C14 C15 1.449 . S
C14 C18 1.535 . S
C15 C14 1.449 . S
C15 C16 1.384 . S
C15 C40 1.553 . S
C16 C15 1.384 . S
C16 C17 1.364 1_455 S
C16 C19 1.450 . S
C17 C12 1.367 . S
C17 C16 1.364 1_655 S
C17 H77 0.931 . S
C18 C14 1.535 . S
C18 H78 0.959 . S
C18 H79 0.961 . S
C18 H80 0.959 1_455 S
C19 C16 1.450 . S
C19 H81 0.960 . S
C19 H82 0.960 . S
C19 H83 0.960 . S
C20 C21 1.309 . S
C20 C25 1.304 . S
C20 O58 1.435 . S
C21 C20 1.309 . S
C21 C22 1.476 . S
C21 H85 0.930 . S
C22 C21 1.476 . S
C22 C23 1.400 . S
C22 C26 1.567 . S
C23 C22 1.400 . S
C23 C24 1.373 . S
C23 C45 1.432 . S
C24 C23 1.373 . S
C24 C25 1.339 . S
C24 C27 1.530 . S
C25 C20 1.304 . S
C25 C24 1.339 . S
C25 H86 0.930 . S
C26 C22 1.567 . S
C26 H87 0.961 . S
C26 H88 0.960 . S
C26 H89 0.958 . S
C27 C24 1.530 . S
C27 H90 0.961 . S
C27 H91 0.960 . S
C27 H92 0.960 . S
C28 C29 1.530 . S
C28 H94 0.961 . S
C28 H95 0.961 . S
C28 H96 0.959 . S
C29 C28 1.530 . S
C29 O57 1.412 . S
C29 H93 0.980 . S
C30 C31 1.288 . S
C30 C35 1.377 . S
C30 O57 1.393 . S
C31 C30 1.288 . S
C31 C32 1.369 . S
C31 H97 0.932 . S
C32 C31 1.369 . S
C32 C33 1.398 . S
C32 C36 1.527 . S
C33 C32 1.398 . S
C33 C34 1.380 . S
C33 C47 1.497 . S
C34 C33 1.380 . S
C34 C35 1.383 . S
C34 C37 1.603 . S
C35 C30 1.377 . S
C35 C34 1.383 . S
C35 H98 0.929 . S
C36 C32 1.527 . S
C36 H99 0.961 . S
C36 H100 0.959 . S
C36 H101 0.959 . S
C37 C34 1.603 . S
C37 H102 0.960 . S
C37 H103 0.962 . S
C37 H104 0.961 . S
C38 C5 1.587 . S
C38 C39 1.360 . S
C38 C51 1.412 . S
C39 C38 1.360 . S
C39 C40 1.365 . S
C39 H105 0.929 . S
C40 C15 1.553 . S
C40 C39 1.365 . S
C40 C41 1.404 . S
C41 C40 1.404 . S
C41 C42 1.395 1_455 S
C41 C52 1.451 . S
C42 C41 1.395 1_655 S
C42 C43 1.322 . S
C42 H106 0.930 . S
C43 C42 1.322 . S
C43 C44 1.459 . S
C43 H107 0.929 . S
C44 C43 1.459 . S
C44 C45 1.445 . S
C44 C53 1.395 1_655 S
C45 C23 1.432 . S
C45 C44 1.445 . S
C45 C46 1.370 1_655 S
C46 C45 1.370 1_455 S
C46 C47 1.438 . S
C46 H108 0.930 1_455 S
C47 C33 1.497 . S
C47 C46 1.438 . S
C47 C48 1.360 . S
C48 C47 1.360 . S
C48 C49 1.401 . S
C48 C53 1.446 . S
C49 C48 1.401 . S
C49 C50 1.347 . S
C49 H109 0.929 . S
C50 C49 1.347 . S
C50 C51 1.455 . S
C50 H110 0.930 . S
C51 C38 1.412 . S
C51 C50 1.455 . S
C51 C52 1.331 . S
C52 C41 1.451 . S
C52 C51 1.331 . S
C52 C53 1.497 . S
C53 C44 1.395 1_455 S
C53 C48 1.446 . S
C53 C52 1.497 . S
C54 C55 1.582 . S
C54 H111 0.962 . S
C54 H112 0.959 . S
C54 H113 0.958 . S
C55 C54 1.582 . S
C55 O58 1.458 . S
C55 H84 0.980 . S
O56 C1 1.426 . S
O56 C2 1.334 . S
O57 C29 1.412 . S
O57 C30 1.393 . S
O58 C20 1.435 . S
O58 C55 1.458 . S
O59 C11 1.468 . S
O59 C12 1.408 . S
H60 C1 0.980 . S
H61 C0 0.959 . S
H62 C0 0.959 . S
H63 C0 0.960 . S
H64 C3 0.929 . S
H65 C7 0.929 . S
H66 C8 0.959 . S
H67 C8 0.961 . S
H68 C8 0.961 . S
H69 C9 0.960 . S
H70 C9 0.960 . S
H71 C9 0.961 . S
H72 C11 0.980 . S
H73 C10 0.961 . S
H74 C10 0.960 . S
H75 C10 0.959 . S
H76 C13 0.930 . S
H77 C17 0.931 . S
H78 C18 0.959 . S
H79 C18 0.961 . S
H80 C18 0.959 1_655 S
H81 C19 0.960 . S
H82 C19 0.960 . S
H83 C19 0.960 . S
H84 C55 0.980 . S
H85 C21 0.930 . S
H86 C25 0.930 . S
H87 C26 0.961 . S
H88 C26 0.960 . S
H89 C26 0.958 . S
H90 C27 0.961 . S
H91 C27 0.960 . S
H92 C27 0.960 . S
H93 C29 0.980 . S
H94 C28 0.961 . S
H95 C28 0.961 . S
H96 C28 0.959 . S
H97 C31 0.932 . S
H98 C35 0.929 . S
H99 C36 0.961 . S
H100 C36 0.959 . S
H101 C36 0.959 . S
H102 C37 0.960 . S
H103 C37 0.962 . S
H104 C37 0.961 . S
H105 C39 0.929 . S
H106 C42 0.930 . S
H107 C43 0.929 . S
H108 C46 0.930 1_655 S
H109 C49 0.929 . S
H110 C50 0.930 . S
H111 C54 0.962 . S
H112 C54 0.959 . S
H113 C54 0.958 . S
C114 C115 1.560 . S
C114 H175 0.959 . S
C114 H176 0.959 . S
C114 H177 0.960 . S
C115 C114 1.560 . S
C115 O170 1.426 . S
C115 H174 0.980 . S
C116 C117 1.407 . S
C116 C121 1.418 . S
C116 O170 1.334 . S
C117 C116 1.407 . S
C117 C118 1.360 . S
C117 H178 0.929 . S
C118 C117 1.360 . S
C118 C119 1.401 . S
C118 C122 1.527 . S
C119 C118 1.401 . S
C119 C120 1.405 . S
C119 C152 1.587 . S
C120 C119 1.405 . S
C120 C121 1.332 . S
C120 C123 1.496 . S
C121 C116 1.418 . S
C121 C120 1.332 . S
C121 H179 0.929 . S
C122 C118 1.527 . S
C122 H180 0.959 . S
C122 H181 0.961 . S
C122 H182 0.961 . S
C123 C120 1.496 . S
C123 H183 0.960 . S
C123 H184 0.960 . S
C123 H185 0.961 . S
C124 C125 1.517 . S
C124 H187 0.961 . S
C124 H188 0.960 . S
C124 H189 0.959 . S
C125 C124 1.517 . S
C125 O173 1.468 . S
C125 H186 0.980 . S
C126 C127 1.349 . S
C126 C131 1.367 . S
C126 O173 1.408 . S
C127 C126 1.349 . S
C127 C128 1.407 . S
C127 H190 0.930 . S
C128 C127 1.407 . S
C128 C129 1.449 . S
C128 C132 1.535 . S
C129 C128 1.449 . S
C129 C130 1.384 . S
C129 C154 1.553 . S
C130 C129 1.384 . S
C130 C131 1.364 . S
C130 C133 1.450 . S
C131 C126 1.367 . S
C131 C130 1.364 . S
C131 H191 0.931 . S
C132 C128 1.535 . S
C132 H192 0.959 . S
C132 H193 0.961 . S
C132 H194 0.959 . S
C133 C130 1.450 . S
C133 H195 0.960 . S
C133 H196 0.960 . S
C133 H197 0.960 . S
C134 C135 1.309 . S
C134 C139 1.304 . S
C134 O172 1.435 . S
C135 C134 1.309 . S
C135 C136 1.476 . S
C135 H199 0.930 . S
C136 C135 1.476 . S
C136 C137 1.400 . S
C136 C140 1.567 . S
C137 C136 1.400 . S
C137 C138 1.373 . S
C137 C159 1.432 . S
C138 C137 1.373 . S
C138 C139 1.339 . S
C138 C141 1.530 . S
C139 C134 1.304 . S
C139 C138 1.339 . S
C139 H200 0.930 . S
C140 C136 1.567 . S
C140 H201 0.961 . S
C140 H202 0.960 . S
C140 H203 0.958 . S
C141 C138 1.530 . S
C141 H204 0.961 . S
C141 H205 0.960 . S
C141 H206 0.960 . S
C142 C143 1.530 . S
C142 H208 0.961 . S
C142 H209 0.961 . S
C142 H210 0.959 . S
C143 C142 1.530 . S
C143 O171 1.412 . S
C143 H207 0.980 . S
C144 C145 1.288 . S
C144 C149 1.377 . S
C144 O171 1.393 . S
C145 C144 1.288 . S
C145 C146 1.369 1_565 S
C145 H211 0.932 . S
C146 C145 1.369 1_545 S
C146 C147 1.398 . S
C146 C150 1.527 . S
C147 C146 1.398 . S
C147 C148 1.380 1_545 S
C147 C161 1.497 . S
C148 C147 1.380 1_565 S
C148 C149 1.383 . S
C148 C151 1.603 . S
C149 C144 1.377 . S
C149 C148 1.383 . S
C149 H212 0.929 . S
C150 C146 1.527 . S
C150 H213 0.961 . S
C150 H214 0.959 . S
C150 H215 0.959 . S
C151 C148 1.603 . S
C151 H216 0.960 . S
C151 H217 0.962 1_565 S
C151 H218 0.961 . S
C152 C119 1.587 . S
C152 C153 1.360 . S
C152 C165 1.412 . S
C153 C152 1.360 . S
C153 C154 1.365 1_565 S
C153 H219 0.929 . S
C154 C129 1.553 . S
C154 C153 1.365 1_545 S
C154 C155 1.404 . S
C155 C154 1.404 . S
C155 C156 1.395 . S
C155 C166 1.451 . S
C156 C155 1.395 . S
C156 C157 1.322 . S
C156 H220 0.930 . S
C157 C156 1.322 . S
C157 C158 1.459 . S
C157 H221 0.929 . S
C158 C157 1.459 . S
C158 C159 1.445 . S
C158 C167 1.395 . S
C159 C137 1.432 . S
C159 C158 1.445 . S
C159 C160 1.370 . S
C160 C159 1.370 . S
C160 C161 1.438 . S
C160 H222 0.930 . S
C161 C147 1.497 . S
C161 C160 1.438 . S
C161 C162 1.360 . S
C162 C161 1.360 . S
C162 C163 1.401 1_545 S
C162 C167 1.446 . S
C163 C162 1.401 1_565 S
C163 C164 1.347 . S
C163 H223 0.929 . S
C164 C163 1.347 . S
C164 C165 1.455 . S
C164 H224 0.930 . S
C165 C152 1.412 . S
C165 C164 1.455 . S
C165 C166 1.331 1_565 S
C166 C155 1.451 . S
C166 C165 1.331 1_545 S
C166 C167 1.497 . S
C167 C158 1.395 . S
C167 C162 1.446 . S
C167 C166 1.497 . S
C168 C169 1.582 . S
C168 H225 0.962 . S
C168 H226 0.959 . S
C168 H227 0.958 . S
C169 C168 1.582 . S
C169 O172 1.458 . S
C169 H198 0.980 . S
O170 C115 1.426 . S
O170 C116 1.334 . S
O171 C143 1.412 . S
O171 C144 1.393 . S
O172 C134 1.435 . S
O172 C169 1.458 . S
O173 C125 1.468 . S
O173 C126 1.408 . S
H174 C115 0.980 . S
H175 C114 0.959 . S
H176 C114 0.959 . S
H177 C114 0.960 . S
H178 C117 0.929 . S
H179 C121 0.929 . S
H180 C122 0.959 . S
H181 C122 0.961 . S
H182 C122 0.961 . S
H183 C123 0.960 . S
H184 C123 0.960 . S
H185 C123 0.961 . S
H186 C125 0.980 . S
H187 C124 0.961 . S
H188 C124 0.960 . S
H189 C124 0.959 . S
H190 C127 0.930 . S
H191 C131 0.931 . S
H192 C132 0.959 . S
H193 C132 0.961 . S
H194 C132 0.959 . S
H195 C133 0.960 . S
H196 C133 0.960 . S
H197 C133 0.960 . S
H198 C169 0.980 . S
H199 C135 0.930 . S
H200 C139 0.930 . S
H201 C140 0.961 . S
H202 C140 0.960 . S
H203 C140 0.958 . S
H204 C141 0.961 . S
H205 C141 0.960 . S
H206 C141 0.960 . S
H207 C143 0.980 . S
H208 C142 0.961 . S
H209 C142 0.961 . S
H210 C142 0.959 . S
H211 C145 0.932 . S
H212 C149 0.929 . S
H213 C150 0.961 . S
H214 C150 0.959 . S
H215 C150 0.959 . S
H216 C151 0.960 . S
H217 C151 0.962 1_545 S
H218 C151 0.961 . S
H219 C153 0.929 . S
H220 C156 0.930 . S
H221 C157 0.929 . S
H222 C160 0.930 . S
H223 C163 0.929 . S
H224 C164 0.930 . S
H225 C168 0.962 . S
H226 C168 0.959 . S
H227 C168 0.958 . S
C228 C229 1.560 . S
C228 H289 0.959 . S
C228 H290 0.959 . S
C228 H291 0.960 . S
C229 C228 1.560 . S
C229 O284 1.426 . S
C229 H288 0.980 . S
C230 C231 1.407 . S
C230 C235 1.418 . S
C230 O284 1.334 . S
C231 C230 1.407 . S
C231 C232 1.360 . S
C231 H292 0.929 . S
C232 C231 1.360 . S
C232 C233 1.401 . S
C232 C236 1.527 . S
C233 C232 1.401 . S
C233 C234 1.405 . S
C233 C266 1.587 . S
C234 C233 1.405 . S
C234 C235 1.332 . S
C234 C237 1.496 . S
C235 C230 1.418 . S
C235 C234 1.332 . S
C235 H293 0.929 . S
C236 C232 1.527 . S
C236 H294 0.959 . S
C236 H295 0.961 . S
C236 H296 0.961 . S
C237 C234 1.496 . S
C237 H297 0.960 . S
C237 H298 0.960 . S
C237 H299 0.961 . S
C238 C239 1.517 . S
C238 H301 0.961 . S
C238 H302 0.960 . S
C238 H303 0.959 . S
C239 C238 1.517 . S
C239 O287 1.468 . S
C239 H300 0.980 . S
C240 C241 1.349 . S
C240 C245 1.367 . S
C240 O287 1.408 . S
C241 C240 1.349 . S
C241 C242 1.407 . S
C241 H304 0.930 . S
C242 C241 1.407 . S
C242 C243 1.449 . S
C242 C246 1.535 . S
C243 C242 1.449 . S
C243 C244 1.384 . S
C243 C268 1.553 . S
C244 C243 1.384 . S
C244 C245 1.364 . S
C244 C247 1.450 . S
C245 C240 1.367 . S
C245 C244 1.364 . S
C245 H305 0.931 . S
C246 C242 1.535 . S
C246 H306 0.959 . S
C246 H307 0.961 . S
C246 H308 0.959 . S
C247 C244 1.450 . S
C247 H309 0.960 . S
C247 H310 0.960 . S
C247 H311 0.960 . S
C248 C249 1.309 . S
C248 C253 1.304 . S
C248 O286 1.435 . S
C249 C248 1.309 . S
C249 C250 1.476 . S
C249 H313 0.930 . S
C250 C249 1.476 . S
C250 C251 1.400 . S
C250 C254 1.567 . S
C251 C250 1.400 . S
C251 C252 1.373 . S
C251 C273 1.432 . S
C252 C251 1.373 . S
C252 C253 1.339 . S
C252 C255 1.530 . S
C253 C248 1.304 . S
C253 C252 1.339 . S
C253 H314 0.930 . S
C254 C250 1.567 . S
C254 H315 0.961 . S
C254 H316 0.960 . S
C254 H317 0.958 . S
C255 C252 1.530 . S
C255 H318 0.961 . S
C255 H319 0.960 . S
C255 H320 0.960 . S
C256 C257 1.530 . S
C256 H322 0.961 . S
C256 H323 0.961 . S
C256 H324 0.959 . S
C257 C256 1.530 . S
C257 O285 1.412 . S
C257 H321 0.980 . S
C258 C259 1.288 . S
C258 C263 1.377 . S
C258 O285 1.393 . S
C259 C258 1.288 . S
C259 C260 1.369 . S
C259 H325 0.932 . S
C260 C259 1.369 . S
C260 C261 1.398 . S
C260 C264 1.527 . S
C261 C260 1.398 . S
C261 C262 1.380 . S
C261 C275 1.497 . S
C262 C261 1.380 . S
C262 C263 1.383 . S
C262 C265 1.603 . S
C263 C258 1.377 . S
C263 C262 1.383 . S
C263 H326 0.929 . S
C264 C260 1.527 . S
C264 H327 0.961 . S
C264 H328 0.959 . S
C264 H329 0.959 . S
C265 C262 1.603 . S
C265 H330 0.960 . S
C265 H331 0.962 . S
C265 H332 0.961 . S
C266 C233 1.587 . S
C266 C267 1.360 . S
C266 C279 1.412 . S
C267 C266 1.360 . S
C267 C268 1.365 . S
C267 H333 0.929 . S
C268 C243 1.553 . S
C268 C267 1.365 . S
C268 C269 1.404 . S
C269 C268 1.404 . S
C269 C270 1.395 . S
C269 C280 1.451 . S
C270 C269 1.395 . S
C270 C271 1.322 . S
C270 H334 0.930 . S
C271 C270 1.322 . S
C271 C272 1.459 . S
C271 H335 0.929 . S
C272 C271 1.459 . S
C272 C273 1.445 . S
C272 C281 1.395 . S
C273 C251 1.432 . S
C273 C272 1.445 . S
C273 C274 1.370 . S
C274 C273 1.370 . S
C274 C275 1.438 . S
C274 H336 0.930 . S
C275 C261 1.497 . S
C275 C274 1.438 . S
C275 C276 1.360 . S
C276 C275 1.360 . S
C276 C277 1.401 . S
C276 C281 1.446 . S
C277 C276 1.401 . S
C277 C278 1.347 . S
C277 H337 0.929 . S
C278 C277 1.347 . S
C278 C279 1.455 . S
C278 H338 0.930 . S
C279 C266 1.412 . S
C279 C278 1.455 . S
C279 C280 1.331 . S
C280 C269 1.451 . S
C280 C279 1.331 . S
C280 C281 1.497 . S
C281 C272 1.395 . S
C281 C276 1.446 . S
C281 C280 1.497 . S
C282 C283 1.582 . S
C282 H339 0.962 . S
C282 H340 0.959 . S
C282 H341 0.958 . S
C283 C282 1.582 . S
C283 O286 1.458 . S
C283 H312 0.980 . S
O284 C229 1.426 . S
O284 C230 1.334 . S
O285 C257 1.412 . S
O285 C258 1.393 . S
O286 C248 1.435 . S
O286 C283 1.458 . S
O287 C239 1.468 . S
O287 C240 1.408 . S
H288 C229 0.980 . S
H289 C228 0.959 . S
H290 C228 0.959 . S
H291 C228 0.960 . S
H292 C231 0.929 . S
H293 C235 0.929 . S
H294 C236 0.959 . S
H295 C236 0.961 . S
H296 C236 0.961 . S
H297 C237 0.960 . S
H298 C237 0.960 . S
H299 C237 0.961 . S
H300 C239 0.980 . S
H301 C238 0.961 . S
H302 C238 0.960 . S
H303 C238 0.959 . S
H304 C241 0.930 . S
H305 C245 0.931 . S
H306 C246 0.959 . S
H307 C246 0.961 . S
H308 C246 0.959 . S
H309 C247 0.960 . S
H310 C247 0.960 . S
H311 C247 0.960 . S
H312 C283 0.980 . S
H313 C249 0.930 . S
H314 C253 0.930 . S
H315 C254 0.961 . S
H316 C254 0.960 . S
H317 C254 0.958 . S
H318 C255 0.961 . S
H319 C255 0.960 . S
H320 C255 0.960 . S
H321 C257 0.980 . S
H322 C256 0.961 . S
H323 C256 0.961 . S
H324 C256 0.959 . S
H325 C259 0.932 . S
H326 C263 0.929 . S
H327 C264 0.961 . S
H328 C264 0.959 . S
H329 C264 0.959 . S
H330 C265 0.960 . S
H331 C265 0.962 . S
H332 C265 0.961 . S
H333 C267 0.929 . S
H334 C270 0.930 . S
H335 C271 0.929 . S
H336 C274 0.930 . S
H337 C277 0.929 . S
H338 C278 0.930 . S
H339 C282 0.962 . S
H340 C282 0.959 . S
H341 C282 0.958 . S
C342 C343 1.560 . S
C342 H403 0.959 . S
C342 H404 0.959 . S
C342 H405 0.960 . S
C343 C342 1.560 . S
C343 O398 1.426 . S
C343 H402 0.980 . S
C344 C345 1.407 . S
C344 C349 1.418 . S
C344 O398 1.334 . S
C345 C344 1.407 . S
C345 C346 1.360 . S
C345 H406 0.929 . S
C346 C345 1.360 . S
C346 C347 1.401 . S
C346 C350 1.527 . S
C347 C346 1.401 . S
C347 C348 1.405 . S
C347 C380 1.587 . S
C348 C347 1.405 . S
C348 C349 1.332 . S
C348 C351 1.496 . S
C349 C344 1.418 . S
C349 C348 1.332 . S
C349 H407 0.929 . S
C350 C346 1.527 . S
C350 H408 0.959 . S
C350 H409 0.961 . S
C350 H410 0.961 . S
C351 C348 1.496 . S
C351 H411 0.960 . S
C351 H412 0.960 . S
C351 H413 0.961 . S
C352 C353 1.517 . S
C352 H415 0.961 . S
C352 H416 0.960 . S
C352 H417 0.959 . S
C353 C352 1.517 . S
C353 O401 1.468 . S
C353 H414 0.980 . S
C354 C355 1.349 . S
C354 C359 1.367 . S
C354 O401 1.408 . S
C355 C354 1.349 . S
C355 C356 1.407 1_655 S
C355 H418 0.930 . S
C356 C355 1.407 1_455 S
C356 C357 1.449 . S
C356 C360 1.535 . S
C357 C356 1.449 . S
C357 C358 1.384 . S
C357 C382 1.553 . S
C358 C357 1.384 . S
C358 C359 1.364 1_455 S
C358 C361 1.450 . S
C359 C354 1.367 . S
C359 C358 1.364 1_655 S
C359 H419 0.931 . S
C360 C356 1.535 . S
C360 H420 0.959 . S
C360 H421 0.961 . S
C360 H422 0.959 1_455 S
C361 C358 1.450 . S
C361 H423 0.960 . S
C361 H424 0.960 . S
C361 H425 0.960 . S
C362 C363 1.309 . S
C362 C367 1.304 . S
C362 O400 1.435 . S
C363 C362 1.309 . S
C363 C364 1.476 . S
C363 H427 0.930 . S
C364 C363 1.476 . S
C364 C365 1.400 . S
C364 C368 1.567 . S
C365 C364 1.400 . S
C365 C366 1.373 . S
C365 C387 1.432 . S
C366 C365 1.373 . S
C366 C367 1.339 . S
C366 C369 1.530 . S
C367 C362 1.304 . S
C367 C366 1.339 . S
C367 H428 0.930 . S
C368 C364 1.567 . S
C368 H429 0.961 . S
C368 H430 0.960 . S
C368 H431 0.958 . S
C369 C366 1.530 . S
C369 H432 0.961 . S
C369 H433 0.960 . S
C369 H434 0.960 . S
C370 C371 1.530 . S
C370 H436 0.961 . S
C370 H437 0.961 . S
C370 H438 0.959 . S
C371 C370 1.530 . S
C371 O399 1.412 . S
C371 H435 0.980 . S
C372 C373 1.288 . S
C372 C377 1.377 . S
C372 O399 1.393 . S
C373 C372 1.288 . S
C373 C374 1.369 . S
C373 H439 0.932 . S
C374 C373 1.369 . S
C374 C375 1.398 . S
C374 C378 1.527 . S
C375 C374 1.398 . S
C375 C376 1.380 . S
C375 C389 1.497 . S
C376 C375 1.380 . S
C376 C377 1.383 . S
C376 C379 1.603 . S
C377 C372 1.377 . S
C377 C376 1.383 . S
C377 H440 0.929 . S
C378 C374 1.527 . S
C378 H441 0.961 . S
C378 H442 0.959 . S
C378 H443 0.959 . S
C379 C376 1.603 . S
C379 H444 0.960 . S
C379 H445 0.962 . S
C379 H446 0.961 . S
C380 C347 1.587 . S
C380 C381 1.360 . S
C380 C393 1.412 . S
C381 C380 1.360 . S
C381 C382 1.365 . S
C381 H447 0.929 . S
C382 C357 1.553 . S
C382 C381 1.365 . S
C382 C383 1.404 . S
C383 C382 1.404 . S
C383 C384 1.395 1_455 S
C383 C394 1.451 . S
C384 C383 1.395 1_655 S
C384 C385 1.322 . S
C384 H448 0.930 . S
C385 C384 1.322 . S
C385 C386 1.459 . S
C385 H449 0.929 . S
C386 C385 1.459 . S
C386 C387 1.445 . S
C386 C395 1.395 1_655 S
C387 C365 1.432 . S
C387 C386 1.445 . S
C387 C388 1.370 1_655 S
C388 C387 1.370 1_455 S
C388 C389 1.438 . S
C388 H450 0.930 1_455 S
C389 C375 1.497 . S
C389 C388 1.438 . S
C389 C390 1.360 . S
C390 C389 1.360 . S
C390 C391 1.401 . S
C390 C395 1.446 . S
C391 C390 1.401 . S
C391 C392 1.347 . S
C391 H451 0.929 . S
C392 C391 1.347 . S
C392 C393 1.455 . S
C392 H452 0.930 . S
C393 C380 1.412 . S
C393 C392 1.455 . S
C393 C394 1.331 . S
C394 C383 1.451 . S
C394 C393 1.331 . S
C394 C395 1.497 . S
C395 C386 1.395 1_455 S
C395 C390 1.446 . S
C395 C394 1.497 . S
C396 C397 1.582 . S
C396 H453 0.962 . S
C396 H454 0.959 . S
C396 H455 0.958 . S
C397 C396 1.582 . S
C397 O400 1.458 . S
C397 H426 0.980 . S
O398 C343 1.426 . S
O398 C344 1.334 . S
O399 C371 1.412 . S
O399 C372 1.393 . S
O400 C362 1.435 . S
O400 C397 1.458 . S
O401 C353 1.468 . S
O401 C354 1.408 . S
H402 C343 0.980 . S
H403 C342 0.959 . S
H404 C342 0.959 . S
H405 C342 0.960 . S
H406 C345 0.929 . S
H407 C349 0.929 . S
H408 C350 0.959 . S
H409 C350 0.961 . S
H410 C350 0.961 . S
H411 C351 0.960 . S
H412 C351 0.960 . S
H413 C351 0.961 . S
H414 C353 0.980 . S
H415 C352 0.961 . S
H416 C352 0.960 . S
H417 C352 0.959 . S
H418 C355 0.930 . S
H419 C359 0.931 . S
H420 C360 0.959 . S
H421 C360 0.961 . S
H422 C360 0.959 1_655 S
H423 C361 0.960 . S
H424 C361 0.960 . S
H425 C361 0.960 . S
H426 C397 0.980 . S
H427 C363 0.930 . S
H428 C367 0.930 . S
H429 C368 0.961 . S
H430 C368 0.960 . S
H431 C368 0.958 . S
H432 C369 0.961 . S
H433 C369 0.960 . S
H434 C369 0.960 . S
H435 C371 0.980 . S
H436 C370 0.961 . S
H437 C370 0.961 . S
H438 C370 0.959 . S
H439 C373 0.932 . S
H440 C377 0.929 . S
H441 C378 0.961 . S
H442 C378 0.959 . S
H443 C378 0.959 . S
H444 C379 0.960 . S
H445 C379 0.962 . S
H446 C379 0.961 . S
H447 C381 0.929 . S
H448 C384 0.930 . S
H449 C385 0.929 . S
H450 C388 0.930 1_655 S
H451 C391 0.929 . S
H452 C392 0.930 . S
H453 C396 0.962 . S
H454 C396 0.959 . S
H455 C396 0.958 . S
C456 C457 1.560 . S
C456 H517 0.959 . S
C456 H518 0.959 . S
C456 H519 0.960 . S
C457 C456 1.560 . S
C457 O512 1.426 . S
C457 H516 0.980 . S
C458 C459 1.407 . S
C458 C463 1.418 . S
C458 O512 1.334 . S
C459 C458 1.407 . S
C459 C460 1.360 . S
C459 H520 0.929 . S
C460 C459 1.360 . S
C460 C461 1.401 . S
C460 C464 1.527 . S
C461 C460 1.401 . S
C461 C462 1.405 . S
C461 C494 1.587 . S
C462 C461 1.405 . S
C462 C463 1.332 . S
C462 C465 1.496 . S
C463 C458 1.418 . S
C463 C462 1.332 . S
C463 H521 0.929 . S
C464 C460 1.527 . S
C464 H522 0.959 . S
C464 H523 0.961 . S
C464 H524 0.961 . S
C465 C462 1.496 . S
C465 H525 0.960 . S
C465 H526 0.960 . S
C465 H527 0.961 . S
C466 C467 1.517 . S
C466 H529 0.961 . S
C466 H530 0.960 . S
C466 H531 0.959 . S
C467 C466 1.517 . S
C467 O515 1.468 . S
C467 H528 0.980 . S
C468 C469 1.349 . S
C468 C473 1.367 . S
C468 O515 1.408 . S
C469 C468 1.349 . S
C469 C470 1.407 . S
C469 H532 0.930 . S
C470 C469 1.407 . S
C470 C471 1.449 . S
C470 C474 1.535 . S
C471 C470 1.449 . S
C471 C472 1.384 . S
C471 C496 1.553 . S
C472 C471 1.384 . S
C472 C473 1.364 . S
C472 C475 1.450 . S
C473 C468 1.367 . S
C473 C472 1.364 . S
C473 H533 0.931 . S
C474 C470 1.535 . S
C474 H534 0.959 . S
C474 H535 0.961 . S
C474 H536 0.959 . S
C475 C472 1.450 . S
C475 H537 0.960 . S
C475 H538 0.960 . S
C475 H539 0.960 . S
C476 C477 1.309 . S
C476 C481 1.304 . S
C476 O514 1.435 . S
C477 C476 1.309 . S
C477 C478 1.476 . S
C477 H541 0.930 . S
C478 C477 1.476 . S
C478 C479 1.400 . S
C478 C482 1.567 . S
C479 C478 1.400 . S
C479 C480 1.373 . S
C479 C501 1.432 . S
C480 C479 1.373 . S
C480 C481 1.339 . S
C480 C483 1.530 . S
C481 C476 1.304 . S
C481 C480 1.339 . S
C481 H542 0.930 . S
C482 C478 1.567 . S
C482 H543 0.961 . S
C482 H544 0.960 . S
C482 H545 0.958 . S
C483 C480 1.530 . S
C483 H546 0.961 . S
C483 H547 0.960 . S
C483 H548 0.960 . S
C484 C485 1.530 . S
C484 H550 0.961 . S
C484 H551 0.961 . S
C484 H552 0.959 . S
C485 C484 1.530 . S
C485 O513 1.412 . S
C485 H549 0.980 . S
C486 C487 1.288 . S
C486 C491 1.377 . S
C486 O513 1.393 . S
C487 C486 1.288 . S
C487 C488 1.369 1_565 S
C487 H553 0.932 . S
C488 C487 1.369 1_545 S
C488 C489 1.398 . S
C488 C492 1.527 . S
C489 C488 1.398 . S
C489 C490 1.380 1_545 S
C489 C503 1.497 . S
C490 C489 1.380 1_565 S
C490 C491 1.383 . S
C490 C493 1.603 . S
C491 C486 1.377 . S
C491 C490 1.383 . S
C491 H554 0.929 . S
C492 C488 1.527 . S
C492 H555 0.961 . S
C492 H556 0.959 . S
C492 H557 0.959 . S
C493 C490 1.603 . S
C493 H558 0.960 . S
C493 H559 0.962 1_565 S
C493 H560 0.961 . S
C494 C461 1.587 . S
C494 C495 1.360 . S
C494 C507 1.412 . S
C495 C494 1.360 . S
C495 C496 1.365 1_565 S
C495 H561 0.929 . S
C496 C471 1.553 . S
C496 C495 1.365 1_545 S
C496 C497 1.404 . S
C497 C496 1.404 . S
C497 C498 1.395 . S
C497 C508 1.451 . S
C498 C497 1.395 . S
C498 C499 1.322 . S
C498 H562 0.930 . S
C499 C498 1.322 . S
C499 C500 1.444 1_556 S
C499 H563 0.929 . S
C500 C499 1.444 1_554 S
C500 C501 1.462 . S
C500 C509 1.393 1_554 S
C501 C479 1.432 . S
C501 C500 1.462 . S
C501 C502 1.370 . S
C502 C501 1.370 . S
C502 C503 1.438 . S
C502 H564 0.930 . S
C503 C489 1.497 . S
C503 C502 1.438 . S
C503 C504 1.360 . S
C504 C503 1.360 . S
C504 C505 1.401 1_545 S
C504 C509 1.446 1_554 S
C505 C504 1.401 1_565 S
C505 C506 1.347 1_554 S
C505 H565 0.929 . S
C506 C505 1.347 1_556 S
C506 C507 1.455 . S
C506 H566 0.930 . S
C507 C494 1.412 . S
C507 C506 1.455 . S
C507 C508 1.331 1_565 S
C508 C497 1.451 . S
C508 C507 1.331 1_545 S
C508 C509 1.497 . S
C509 C500 1.393 1_556 S
C509 C504 1.446 1_556 S
C509 C508 1.497 . S
C510 C511 1.582 . S
C510 H567 0.962 . S
C510 H568 0.959 . S
C510 H569 0.958 . S
C511 C510 1.582 . S
C511 O514 1.458 . S
C511 H540 0.980 . S
O512 C457 1.426 . S
O512 C458 1.334 . S
O513 C485 1.412 . S
O513 C486 1.393 . S
O514 C476 1.435 . S
O514 C511 1.458 . S
O515 C467 1.468 . S
O515 C468 1.408 . S
H516 C457 0.980 . S
H517 C456 0.959 . S
H518 C456 0.959 . S
H519 C456 0.960 . S
H520 C459 0.929 . S
H521 C463 0.929 . S
H522 C464 0.959 . S
H523 C464 0.961 . S
H524 C464 0.961 . S
H525 C465 0.960 . S
H526 C465 0.960 . S
H527 C465 0.961 . S
H528 C467 0.980 . S
H529 C466 0.961 . S
H530 C466 0.960 . S
H531 C466 0.959 . S
H532 C469 0.930 . S
H533 C473 0.931 . S
H534 C474 0.959 . S
H535 C474 0.961 . S
H536 C474 0.959 . S
H537 C475 0.960 . S
H538 C475 0.960 . S
H539 C475 0.960 . S
H540 C511 0.980 . S
H541 C477 0.930 . S
H542 C481 0.930 . S
H543 C482 0.961 . S
H544 C482 0.960 . S
H545 C482 0.958 . S
H546 C483 0.961 . S
H547 C483 0.960 . S
H548 C483 0.960 . S
H549 C485 0.980 . S
H550 C484 0.961 . S
H551 C484 0.961 . S
H552 C484 0.959 . S
H553 C487 0.932 . S
H554 C491 0.929 . S
H555 C492 0.961 . S
H556 C492 0.959 . S
H557 C492 0.959 . S
H558 C493 0.960 . S
H559 C493 0.962 1_545 S
H560 C493 0.961 . S
H561 C495 0.929 . S
H562 C498 0.930 . S
H563 C499 0.929 . S
H564 C502 0.930 . S
H565 C505 0.929 . S
H566 C506 0.930 . S
H567 C510 0.962 . S
H568 C510 0.959 . S
H569 C510 0.958 . S
C570 C571 1.560 . S
C570 H631 0.959 . S
C570 H632 0.959 . S
C570 H633 0.960 . S
C571 C570 1.560 . S
C571 O626 1.426 . S
C571 H630 0.980 . S
C572 C573 1.407 . S
C572 C577 1.418 . S
C572 O626 1.334 . S
C573 C572 1.407 . S
C573 C574 1.360 . S
C573 H634 0.929 . S
C574 C573 1.360 . S
C574 C575 1.401 . S
C574 C578 1.527 . S
C575 C574 1.401 . S
C575 C576 1.405 . S
C575 C608 1.587 . S
C576 C575 1.405 . S
C576 C577 1.332 . S
C576 C579 1.496 . S
C577 C572 1.418 . S
C577 C576 1.332 . S
C577 H635 0.929 . S
C578 C574 1.527 . S
C578 H636 0.959 . S
C578 H637 0.961 . S
C578 H638 0.961 . S
C579 C576 1.496 . S
C579 H639 0.960 . S
C579 H640 0.960 . S
C579 H641 0.961 . S
C580 C581 1.517 . S
C580 H643 0.961 . S
C580 H644 0.960 . S
C580 H645 0.959 . S
C581 C580 1.517 . S
C581 O629 1.468 . S
C581 H642 0.980 . S
C582 C583 1.349 . S
C582 C587 1.367 . S
C582 O629 1.408 . S
C583 C582 1.349 . S
C583 C584 1.407 . S
C583 H646 0.930 . S
C584 C583 1.407 . S
C584 C585 1.449 . S
C584 C588 1.535 . S
C585 C584 1.449 . S
C585 C586 1.384 . S
C585 C610 1.553 . S
C586 C585 1.384 . S
C586 C587 1.364 . S
C586 C589 1.450 . S
C587 C582 1.367 . S
C587 C586 1.364 . S
C587 H647 0.931 . S
C588 C584 1.535 . S
C588 H648 0.959 . S
C588 H649 0.961 . S
C588 H650 0.959 . S
C589 C586 1.450 . S
C589 H651 0.960 . S
C589 H652 0.960 . S
C589 H653 0.960 . S
C590 C591 1.309 . S
C590 C595 1.304 . S
C590 O628 1.435 . S
C591 C590 1.309 . S
C591 C592 1.476 . S
C591 H655 0.930 . S
C592 C591 1.476 . S
C592 C593 1.400 . S
C592 C596 1.567 . S
C593 C592 1.400 . S
C593 C594 1.373 . S
C593 C615 1.432 . S
C594 C593 1.373 . S
C594 C595 1.339 . S
C594 C597 1.530 . S
C595 C590 1.304 . S
C595 C594 1.339 . S
C595 H656 0.930 . S
C596 C592 1.567 . S
C596 H657 0.961 . S
C596 H658 0.960 . S
C596 H659 0.958 . S
C597 C594 1.530 . S
C597 H660 0.961 . S
C597 H661 0.960 . S
C597 H662 0.960 . S
C598 C599 1.530 . S
C598 H664 0.961 . S
C598 H665 0.961 . S
C598 H666 0.959 . S
C599 C598 1.530 . S
C599 O627 1.412 . S
C599 H663 0.980 . S
C600 C601 1.288 . S
C600 C605 1.377 . S
C600 O627 1.393 . S
C601 C600 1.288 . S
C601 C602 1.369 . S
C601 H667 0.932 . S
C602 C601 1.369 . S
C602 C603 1.398 . S
C602 C606 1.527 . S
C603 C602 1.398 . S
C603 C604 1.380 . S
C603 C617 1.497 . S
C604 C603 1.380 . S
C604 C605 1.383 . S
C604 C607 1.603 . S
C605 C600 1.377 . S
C605 C604 1.383 . S
C605 H668 0.929 . S
C606 C602 1.527 . S
C606 H669 0.961 . S
C606 H670 0.959 . S
C606 H671 0.959 . S
C607 C604 1.603 . S
C607 H672 0.960 . S
C607 H673 0.962 . S
C607 H674 0.961 . S
C608 C575 1.587 . S
C608 C609 1.360 . S
C608 C621 1.412 . S
C609 C608 1.360 . S
C609 C610 1.365 . S
C609 H675 0.929 . S
C610 C585 1.553 . S
C610 C609 1.365 . S
C610 C611 1.404 . S
C611 C610 1.404 . S
C611 C612 1.395 . S
C611 C622 1.451 . S
C612 C611 1.395 . S
C612 C613 1.322 . S
C612 H676 0.930 . S
C613 C612 1.322 . S
C613 C614 1.459 . S
C613 H677 0.929 . S
C614 C613 1.459 . S
C614 C615 1.445 . S
C614 C623 1.395 . S
C615 C593 1.432 . S
C615 C614 1.445 . S
C615 C616 1.370 . S
C616 C615 1.370 . S
C616 C617 1.438 . S
C616 H678 0.930 . S
C617 C603 1.497 . S
C617 C616 1.438 . S
C617 C618 1.360 . S
C618 C617 1.360 . S
C618 C619 1.401 . S
C618 C623 1.446 . S
C619 C618 1.401 . S
C619 C620 1.347 . S
C619 H679 0.929 . S
C620 C619 1.347 . S
C620 C621 1.455 . S
C620 H680 0.930 . S
C621 C608 1.412 . S
C621 C620 1.455 . S
C621 C622 1.331 . S
C622 C611 1.451 . S
C622 C621 1.331 . S
C622 C623 1.497 . S
C623 C614 1.395 . S
C623 C618 1.446 . S
C623 C622 1.497 . S
C624 C625 1.582 . S
C624 H681 0.962 . S
C624 H682 0.959 . S
C624 H683 0.958 . S
C625 C624 1.582 . S
C625 O628 1.458 . S
C625 H654 0.980 . S
O626 C571 1.426 . S
O626 C572 1.334 . S
O627 C599 1.412 . S
O627 C600 1.393 . S
O628 C590 1.435 . S
O628 C625 1.458 . S
O629 C581 1.468 . S
O629 C582 1.408 . S
H630 C571 0.980 . S
H631 C570 0.959 . S
H632 C570 0.959 . S
H633 C570 0.960 . S
H634 C573 0.929 . S
H635 C577 0.929 . S
H636 C578 0.959 . S
H637 C578 0.961 . S
H638 C578 0.961 . S
H639 C579 0.960 . S
H640 C579 0.960 . S
H641 C579 0.961 . S
H642 C581 0.980 . S
H643 C580 0.961 . S
H644 C580 0.960 . S
H645 C580 0.959 . S
H646 C583 0.930 . S
H647 C587 0.931 . S
H648 C588 0.959 . S
H649 C588 0.961 . S
H650 C588 0.959 . S
H651 C589 0.960 . S
H652 C589 0.960 . S
H653 C589 0.960 . S
H654 C625 0.980 . S
H655 C591 0.930 . S
H656 C595 0.930 . S
H657 C596 0.961 . S
H658 C596 0.960 . S
H659 C596 0.958 . S
H660 C597 0.961 . S
H661 C597 0.960 . S
H662 C597 0.960 . S
H663 C599 0.980 . S
H664 C598 0.961 . S
H665 C598 0.961 . S
H666 C598 0.959 . S
H667 C601 0.932 . S
H668 C605 0.929 . S
H669 C606 0.961 . S
H670 C606 0.959 . S
H671 C606 0.959 . S
H672 C607 0.960 . S
H673 C607 0.962 . S
H674 C607 0.961 . S
H675 C609 0.929 . S
H676 C612 0.930 . S
H677 C613 0.929 . S
H678 C616 0.930 . S
H679 C619 0.929 . S
H680 C620 0.930 . S
H681 C624 0.962 . S
H682 C624 0.959 . S
H683 C624 0.958 . S
Li684 N701 1.990 . S
Li684 O744 1.956 . S
Li684 O745 1.970 . S
Li684 O746 1.961 . S
Li685 N709 1.990 . S
Li685 O744 1.970 . S
Li685 O745 1.956 . S
Li685 O747 1.961 . S
Li686 N731 1.990 . S
Li686 O744 1.961 . S
Li686 O746 1.956 . S
Li686 O747 1.970 . S
Li687 N737 1.990 . S
Li687 O745 1.961 . S
Li687 O746 1.970 . S
Li687 O747 1.956 . S
C688 C690 1.348 . S
C688 C691 1.356 . S
C688 O744 1.325 . S
N689 C692 1.314 . S
N689 C693 1.279 . S
C690 C688 1.348 . S
C690 C692 1.353 . S
C690 H748 0.929 . S
C691 C688 1.356 . S
C691 C693 1.358 . S
C691 H749 0.930 . S
C692 N689 1.314 . S
C692 C690 1.353 . S
C692 H750 0.930 . S
C693 N689 1.279 . S
C693 C691 1.358 . S
C693 H751 0.930 . S
C694 C697 1.348 . S
C694 C698 1.356 . S
C694 O745 1.325 . S
C695 N696 1.279 . S
C695 C698 1.358 . S
C695 H752 0.930 . S
N696 C695 1.279 . S
N696 C699 1.314 . S
C697 C694 1.348 . S
C697 C699 1.353 . S
C697 H753 0.929 . S
C698 C694 1.356 . S
C698 C695 1.358 . S
C698 H754 0.930 . S
C699 N696 1.314 . S
C699 C697 1.353 . S
C699 H755 0.930 . S
C700 N701 1.314 . S
C700 C705 1.353 . S
C700 H706 0.930 . S
N701 Li684 1.990 . S
N701 C700 1.314 . S
N701 C703 1.279 . S
C702 C703 1.358 . S
C702 C704 1.356 . S
C702 H756 0.930 . S
C703 N701 1.279 . S
C703 C702 1.358 . S
C703 H707 0.930 . S
C704 C702 1.356 . S
C704 C705 1.348 . S
C705 C700 1.353 . S
C705 C704 1.348 . S
C705 H757 0.929 . S
H706 C700 0.930 . S
H707 C703 0.930 . S
C708 N709 1.314 . S
C708 C710 1.353 . S
C708 H714 0.930 . S
N709 Li685 1.990 . S
N709 C708 1.314 . S
N709 C712 1.279 . S
C710 C708 1.353 . S
C710 C713 1.348 . S
C710 H758 0.929 . S
C711 C712 1.358 . S
C711 C713 1.356 . S
C711 H759 0.930 . S
C712 N709 1.279 . S
C712 C711 1.358 . S
C712 H715 0.930 . S
C713 C710 1.348 . S
C713 C711 1.356 . S
H714 C708 0.930 . S
H715 C712 0.930 . S
C716 C718 1.348 . S
C716 C719 1.356 . S
C716 O746 1.325 . S
N717 C720 1.314 . S
N717 C721 1.279 . S
C718 C716 1.348 . S
C718 C720 1.353 . S
C718 H760 0.929 . S
C719 C716 1.356 . S
C719 C721 1.358 . S
C719 H761 0.930 . S
C720 N717 1.314 . S
C720 C718 1.353 . S
C720 H762 0.930 . S
C721 N717 1.279 . S
C721 C719 1.358 . S
C721 H763 0.930 . S
C722 C723 1.348 . S
C722 C724 1.356 . S
C722 O747 1.325 . S
C723 C722 1.348 . S
C723 C725 1.353 . S
C723 H764 0.929 . S
C724 C722 1.356 . S
C724 C726 1.358 . S
C724 H765 0.930 . S
C725 C723 1.353 . S
C725 N727 1.314 . S
C725 H766 0.930 . S
C726 C724 1.358 . S
C726 N727 1.279 . S
C726 H767 0.930 . S
N727 C725 1.314 . S
N727 C726 1.279 . S
C728 C730 1.353 . S
C728 N731 1.314 . S
C728 H734 0.930 . S
C729 N731 1.279 . S
C729 C732 1.358 . S
C729 H735 0.930 . S
C730 C728 1.353 . S
C730 C733 1.348 . S
C730 H768 0.929 . S
N731 Li686 1.990 . S
N731 C728 1.314 . S
N731 C729 1.279 . S
C732 C729 1.358 . S
C732 C733 1.356 . S
C732 H769 0.930 . S
C733 C730 1.348 . S
C733 C732 1.356 . S
H734 C728 0.930 . S
H735 C729 0.930 . S
C736 N737 1.314 . S
C736 C738 1.353 . S
C736 H742 0.930 . S
N737 Li687 1.990 . S
N737 C736 1.314 . S
N737 C740 1.279 . S
C738 C736 1.353 . S
C738 C741 1.348 . S
C738 H770 0.929 . S
C739 C740 1.358 . S
C739 C741 1.356 . S
C739 H771 0.930 . S
C740 N737 1.279 . S
C740 C739 1.358 . S
C740 H743 0.930 . S
C741 C738 1.348 . S
C741 C739 1.356 . S
H742 C736 0.930 . S
H743 C740 0.930 . S
O744 Li684 1.956 . S
O744 Li685 1.970 . S
O744 Li686 1.961 . S
O744 C688 1.325 . S
O745 Li684 1.970 . S
O745 Li685 1.956 . S
O745 Li687 1.961 . S
O745 C694 1.325 . S
O746 Li684 1.961 . S
O746 Li686 1.956 . S
O746 Li687 1.970 . S
O746 C716 1.325 . S
O747 Li685 1.961 . S
O747 Li686 1.970 . S
O747 Li687 1.956 . S
O747 C722 1.325 . S
H748 C690 0.929 . S
H749 C691 0.930 . S
H750 C692 0.930 . S
H751 C693 0.930 . S
H752 C695 0.930 . S
H753 C697 0.929 . S
H754 C698 0.930 . S
H755 C699 0.930 . S
H756 C702 0.930 . S
H757 C705 0.929 . S
H758 C710 0.929 . S
H759 C711 0.930 . S
H760 C718 0.929 . S
H761 C719 0.930 . S
H762 C720 0.930 . S
H763 C721 0.930 . S
H764 C723 0.929 . S
H765 C724 0.930 . S
H766 C725 0.930 . S
H767 C726 0.930 . S
H768 C730 0.929 . S
H769 C732 0.930 . S
H770 C738 0.929 . S
H771 C739 0.930 . S
Li772 N789 1.990 . S
Li772 O832 1.956 . S
Li772 O833 1.970 . S
Li772 O834 1.961 . S
Li773 N797 1.990 . S
Li773 O832 1.970 . S
Li773 O833 1.956 . S
Li773 O835 1.961 . S
Li774 N819 1.990 . S
Li774 O832 1.961 . S
Li774 O834 1.956 . S
Li774 O835 1.970 . S
Li775 N825 1.990 . S
Li775 O833 1.961 . S
Li775 O834 1.970 . S
Li775 O835 1.956 . S
C776 C778 1.348 . S
C776 C779 1.356 . S
C776 O832 1.325 . S
N777 C780 1.314 . S
N777 C781 1.279 . S
C778 C776 1.348 . S
C778 C780 1.353 . S
C778 H836 0.929 . S
C779 C776 1.356 . S
C779 C781 1.358 . S
C779 H837 0.930 . S
C780 N777 1.314 . S
C780 C778 1.353 . S
C780 H838 0.930 . S
C781 N777 1.279 . S
C781 C779 1.358 . S
C781 H839 0.930 . S
C782 C785 1.348 . S
C782 C786 1.356 . S
C782 O833 1.325 . S
C783 N784 1.279 . S
C783 C786 1.358 . S
C783 H840 0.930 . S
N784 C783 1.279 . S
N784 C787 1.314 . S
C785 C782 1.348 . S
C785 C787 1.353 . S
C785 H841 0.929 . S
C786 C782 1.356 . S
C786 C783 1.358 . S
C786 H842 0.930 . S
C787 N784 1.314 . S
C787 C785 1.353 . S
C787 H843 0.930 . S
C788 N789 1.314 . S
C788 C793 1.353 . S
C788 H794 0.930 . S
N789 Li772 1.990 . S
N789 C788 1.314 . S
N789 C791 1.279 . S
C790 C791 1.358 . S
C790 C792 1.356 . S
C790 H844 0.930 . S
C791 N789 1.279 . S
C791 C790 1.358 . S
C791 H795 0.930 . S
C792 C790 1.356 . S
C792 C793 1.348 . S
C793 C788 1.353 . S
C793 C792 1.348 . S
C793 H845 0.929 . S
H794 C788 0.930 . S
H795 C791 0.930 . S
C796 N797 1.314 . S
C796 C798 1.353 . S
C796 H802 0.930 . S
N797 Li773 1.990 . S
N797 C796 1.314 . S
N797 C800 1.279 . S
C798 C796 1.353 . S
C798 C801 1.348 . S
C798 H846 0.929 . S
C799 C800 1.358 . S
C799 C801 1.356 . S
C799 H847 0.930 . S
C800 N797 1.279 . S
C800 C799 1.358 . S
C800 H803 0.930 . S
C801 C798 1.348 . S
C801 C799 1.356 . S
H802 C796 0.930 . S
H803 C800 0.930 . S
C804 C806 1.348 . S
C804 C807 1.356 . S
C804 O834 1.325 . S
N805 C808 1.314 . S
N805 C809 1.279 . S
C806 C804 1.348 . S
C806 C808 1.353 . S
C806 H848 0.929 . S
C807 C804 1.356 . S
C807 C809 1.358 . S
C807 H849 0.930 . S
C808 N805 1.314 . S
C808 C806 1.353 . S
C808 H850 0.930 . S
C809 N805 1.279 . S
C809 C807 1.358 . S
C809 H851 0.930 . S
C810 C811 1.348 . S
C810 C812 1.356 . S
C810 O835 1.325 . S
C811 C810 1.348 . S
C811 C813 1.353 . S
C811 H852 0.929 . S
C812 C810 1.356 . S
C812 C814 1.358 . S
C812 H853 0.930 . S
C813 C811 1.353 . S
C813 N815 1.314 . S
C813 H854 0.930 . S
C814 C812 1.358 . S
C814 N815 1.279 . S
C814 H855 0.930 . S
N815 C813 1.314 . S
N815 C814 1.279 . S
C816 C818 1.353 . S
C816 N819 1.314 . S
C816 H822 0.930 . S
C817 N819 1.279 . S
C817 C820 1.358 . S
C817 H823 0.930 . S
C818 C816 1.353 . S
C818 C821 1.348 . S
C818 H856 0.929 . S
N819 Li774 1.990 . S
N819 C816 1.314 . S
N819 C817 1.279 . S
C820 C817 1.358 . S
C820 C821 1.356 . S
C820 H857 0.930 . S
C821 C818 1.348 . S
C821 C820 1.356 . S
H822 C816 0.930 . S
H823 C817 0.930 . S
C824 N825 1.314 . S
C824 C826 1.353 . S
C824 H830 0.930 . S
N825 Li775 1.990 . S
N825 C824 1.314 . S
N825 C828 1.279 . S
C826 C824 1.353 . S
C826 C829 1.348 . S
C826 H858 0.929 . S
C827 C828 1.358 . S
C827 C829 1.356 . S
C827 H859 0.930 . S
C828 N825 1.279 . S
C828 C827 1.358 . S
C828 H831 0.930 . S
C829 C826 1.348 . S
C829 C827 1.356 . S
H830 C824 0.930 . S
H831 C828 0.930 . S
O832 Li772 1.956 . S
O832 Li773 1.970 . S
O832 Li774 1.961 . S
O832 C776 1.325 . S
O833 Li772 1.970 . S
O833 Li773 1.956 . S
O833 Li775 1.961 . S
O833 C782 1.325 . S
O834 Li772 1.961 . S
O834 Li774 1.956 . S
O834 Li775 1.970 . S
O834 C804 1.325 . S
O835 Li773 1.961 . S
O835 Li774 1.970 . S
O835 Li775 1.956 . S
O835 C810 1.325 . S
H836 C778 0.929 . S
H837 C779 0.930 . S
H838 C780 0.930 . S
H839 C781 0.930 . S
H840 C783 0.930 . S
H841 C785 0.929 . S
H842 C786 0.930 . S
H843 C787 0.930 . S
H844 C790 0.930 . S
H845 C793 0.929 . S
H846 C798 0.929 . S
H847 C799 0.930 . S
H848 C806 0.929 . S
H849 C807 0.930 . S
H850 C808 0.930 . S
H851 C809 0.930 . S
H852 C811 0.929 . S
H853 C812 0.930 . S
H854 C813 0.930 . S
H855 C814 0.930 . S
H856 C818 0.929 . S
H857 C820 0.930 . S
H858 C826 0.929 . S
H859 C827 0.930 . S
Li860 N877 1.990 . S
Li860 O920 1.956 . S
Li860 O921 1.970 . S
Li860 O922 1.961 . S
Li861 N885 1.990 . S
Li861 O920 1.970 . S
Li861 O921 1.956 . S
Li861 O923 1.961 . S
Li862 N907 1.990 . S
Li862 O920 1.961 . S
Li862 O922 1.956 . S
Li862 O923 1.970 . S
Li863 N913 1.990 . S
Li863 O921 1.961 . S
Li863 O922 1.970 . S
Li863 O923 1.956 . S
C864 C866 1.348 . S
C864 C867 1.356 . S
C864 O920 1.325 . S
N865 C868 1.314 . S
N865 C869 1.279 . S
C866 C864 1.348 . S
C866 C868 1.353 . S
C866 H924 0.929 . S
C867 C864 1.356 . S
C867 C869 1.358 . S
C867 H925 0.930 . S
C868 N865 1.314 . S
C868 C866 1.353 . S
C868 H926 0.930 . S
C869 N865 1.279 . S
C869 C867 1.358 . S
C869 H927 0.930 . S
C870 C873 1.348 . S
C870 C874 1.356 . S
C870 O921 1.325 . S
C871 N872 1.279 . S
C871 C874 1.358 . S
C871 H928 0.930 . S
N872 C871 1.279 . S
N872 C875 1.314 . S
C873 C870 1.348 . S
C873 C875 1.353 . S
C873 H929 0.929 . S
C874 C870 1.356 . S
C874 C871 1.358 . S
C874 H930 0.930 . S
C875 N872 1.314 . S
C875 C873 1.353 . S
C875 H931 0.930 . S
C876 N877 1.314 . S
C876 C881 1.353 . S
C876 H882 0.930 . S
N877 Li860 1.990 . S
N877 C876 1.314 . S
N877 C879 1.279 . S
C878 C879 1.358 . S
C878 C880 1.356 . S
C878 H932 0.930 . S
C879 N877 1.279 . S
C879 C878 1.358 . S
C879 H883 0.930 . S
C880 C878 1.356 . S
C880 C881 1.348 . S
C881 C876 1.353 . S
C881 C880 1.348 . S
C881 H933 0.929 . S
H882 C876 0.930 . S
H883 C879 0.930 . S
C884 N885 1.314 . S
C884 C886 1.353 . S
C884 H890 0.930 . S
N885 Li861 1.990 . S
N885 C884 1.314 . S
N885 C888 1.279 . S
C886 C884 1.353 . S
C886 C889 1.348 . S
C886 H934 0.929 . S
C887 C888 1.358 . S
C887 C889 1.356 . S
C887 H935 0.930 . S
C888 N885 1.279 . S
C888 C887 1.358 . S
C888 H891 0.930 . S
C889 C886 1.348 . S
C889 C887 1.356 . S
H890 C884 0.930 . S
H891 C888 0.930 . S
C892 C894 1.348 . S
C892 C895 1.356 . S
C892 O922 1.325 . S
N893 C896 1.314 . S
N893 C897 1.279 . S
C894 C892 1.348 . S
C894 C896 1.353 . S
C894 H936 0.929 . S
C895 C892 1.356 . S
C895 C897 1.358 . S
C895 H937 0.930 . S
C896 N893 1.314 . S
C896 C894 1.353 . S
C896 H938 0.930 . S
C897 N893 1.279 . S
C897 C895 1.358 . S
C897 H939 0.930 . S
C898 C899 1.348 . S
C898 C900 1.356 . S
C898 O923 1.325 . S
C899 C898 1.348 . S
C899 C901 1.353 . S
C899 H940 0.929 . S
C900 C898 1.356 . S
C900 C902 1.358 . S
C900 H941 0.930 . S
C901 C899 1.353 . S
C901 N903 1.314 . S
C901 H942 0.930 . S
C902 C900 1.358 . S
C902 N903 1.279 . S
C902 H943 0.930 . S
N903 C901 1.314 . S
N903 C902 1.279 . S
C904 C906 1.353 . S
C904 N907 1.314 . S
C904 H910 0.930 . S
C905 N907 1.279 . S
C905 C908 1.358 . S
C905 H911 0.930 . S
C906 C904 1.353 . S
C906 C909 1.348 . S
C906 H944 0.929 . S
N907 Li862 1.990 . S
N907 C904 1.314 . S
N907 C905 1.279 . S
C908 C905 1.358 . S
C908 C909 1.356 . S
C908 H945 0.930 . S
C909 C906 1.348 . S
C909 C908 1.356 . S
H910 C904 0.930 . S
H911 C905 0.930 . S
C912 N913 1.314 . S
C912 C914 1.353 . S
C912 H918 0.930 . S
N913 Li863 1.990 . S
N913 C912 1.314 . S
N913 C916 1.279 . S
C914 C912 1.353 . S
C914 C917 1.348 . S
C914 H946 0.929 . S
C915 C916 1.358 . S
C915 C917 1.356 . S
C915 H947 0.930 . S
C916 N913 1.279 . S
C916 C915 1.358 . S
C916 H919 0.930 . S
C917 C914 1.348 . S
C917 C915 1.356 . S
H918 C912 0.930 . S
H919 C916 0.930 . S
O920 Li860 1.956 . S
O920 Li861 1.970 . S
O920 Li862 1.961 . S
O920 C864 1.325 . S
O921 Li860 1.970 . S
O921 Li861 1.956 . S
O921 Li863 1.961 . S
O921 C870 1.325 . S
O922 Li860 1.961 . S
O922 Li862 1.956 . S
O922 Li863 1.970 . S
O922 C892 1.325 . S
O923 Li861 1.961 . S
O923 Li862 1.970 . S
O923 Li863 1.956 . S
O923 C898 1.325 . S
H924 C866 0.929 . S
H925 C867 0.930 . S
H926 C868 0.930 . S
H927 C869 0.930 . S
H928 C871 0.930 . S
H929 C873 0.929 . S
H930 C874 0.930 . S
H931 C875 0.930 . S
H932 C878 0.930 . S
H933 C881 0.929 . S
H934 C886 0.929 . S
H935 C887 0.930 . S
H936 C894 0.929 . S
H937 C895 0.930 . S
H938 C896 0.930 . S
H939 C897 0.930 . S
H940 C899 0.929 . S
H941 C900 0.930 . S
H942 C901 0.930 . S
H943 C902 0.930 . S
H944 C906 0.929 . S
H945 C908 0.930 . S
H946 C914 0.929 . S
H947 C915 0.930 . S
Li948 N965 1.990 . S
Li948 O1008 1.956 . S
Li948 O1009 1.970 . S
Li948 O1010 1.961 . S
Li949 N973 1.990 . S
Li949 O1008 1.970 . S
Li949 O1009 1.956 . S
Li949 O1011 1.961 . S
Li950 N995 1.990 . S
Li950 O1008 1.961 . S
Li950 O1010 1.956 . S
Li950 O1011 1.970 . S
Li951 N1001 1.990 . S
Li951 O1009 1.961 . S
Li951 O1010 1.970 . S
Li951 O1011 1.956 . S
C952 C954 1.348 . S
C952 C955 1.356 . S
C952 O1008 1.325 . S
N953 C956 1.314 . S
N953 C957 1.279 . S
C954 C952 1.348 . S
C954 C956 1.353 . S
C954 H1012 0.929 . S
C955 C952 1.356 . S
C955 C957 1.358 . S
C955 H1013 0.930 . S
C956 N953 1.314 . S
C956 C954 1.353 . S
C956 H1014 0.930 . S
C957 N953 1.279 . S
C957 C955 1.358 . S
C957 H1015 0.930 . S
C958 C961 1.348 . S
C958 C962 1.356 . S
C958 O1009 1.325 . S
C959 N960 1.279 . S
C959 C962 1.358 . S
C959 H1016 0.930 . S
N960 C959 1.279 . S
N960 C963 1.314 . S
C961 C958 1.348 . S
C961 C963 1.353 . S
C961 H1017 0.929 . S
C962 C958 1.356 . S
C962 C959 1.358 . S
C962 H1018 0.930 . S
C963 N960 1.314 . S
C963 C961 1.353 . S
C963 H1019 0.930 . S
C964 N965 1.314 . S
C964 C969 1.353 . S
C964 H970 0.930 . S
N965 Li948 1.990 . S
N965 C964 1.314 . S
N965 C967 1.279 . S
C966 C967 1.358 . S
C966 C968 1.356 . S
C966 H1020 0.930 . S
C967 N965 1.279 . S
C967 C966 1.358 . S
C967 H971 0.930 . S
C968 C966 1.356 . S
C968 C969 1.348 . S
C969 C964 1.353 . S
C969 C968 1.348 . S
C969 H1021 0.929 . S
H970 C964 0.930 . S
H971 C967 0.930 . S
C972 N973 1.314 . S
C972 C974 1.353 . S
C972 H978 0.930 . S
N973 Li949 1.990 . S
N973 C972 1.314 . S
N973 C976 1.279 . S
C974 C972 1.353 . S
C974 C977 1.348 . S
C974 H1022 0.929 . S
C975 C976 1.358 . S
C975 C977 1.356 . S
C975 H1023 0.930 . S
C976 N973 1.279 . S
C976 C975 1.358 . S
C976 H979 0.930 . S
C977 C974 1.348 . S
C977 C975 1.356 . S
H978 C972 0.930 . S
H979 C976 0.930 . S
C980 C982 1.348 . S
C980 C983 1.356 . S
C980 O1010 1.325 . S
N981 C984 1.314 . S
N981 C985 1.279 . S
C982 C980 1.348 . S
C982 C984 1.353 . S
C982 H1024 0.929 . S
C983 C980 1.356 . S
C983 C985 1.358 . S
C983 H1025 0.930 . S
C984 N981 1.314 . S
C984 C982 1.353 . S
C984 H1026 0.930 . S
C985 N981 1.279 . S
C985 C983 1.358 . S
C985 H1027 0.930 . S
C986 C987 1.348 . S
C986 C988 1.356 . S
C986 O1011 1.325 . S
C987 C986 1.348 . S
C987 C989 1.353 . S
C987 H1028 0.929 . S
C988 C986 1.356 . S
C988 C990 1.358 . S
C988 H1029 0.930 . S
C989 C987 1.353 . S
C989 N991 1.314 . S
C989 H1030 0.930 . S
C990 C988 1.358 . S
C990 N991 1.279 . S
C990 H1031 0.930 . S
N991 C989 1.314 . S
N991 C990 1.279 . S
C992 C994 1.353 . S
C992 N995 1.314 . S
C992 H998 0.930 . S
C993 N995 1.279 . S
C993 C996 1.358 . S
C993 H999 0.930 . S
C994 C992 1.353 . S
C994 C997 1.348 . S
C994 H1032 0.929 . S
N995 Li950 1.990 . S
N995 C992 1.314 . S
N995 C993 1.279 . S
C996 C993 1.358 . S
C996 C997 1.356 . S
C996 H1033 0.930 . S
C997 C994 1.348 . S
C997 C996 1.356 . S
H998 C992 0.930 . S
H999 C993 0.930 . S
C1000 N1001 1.314 . S
C1000 C1002 1.353 . S
C1000 H1006 0.930 . S
N1001 Li951 1.990 . S
N1001 C1000 1.314 . S
N1001 C1004 1.279 . S
C1002 C1000 1.353 . S
C1002 C1005 1.348 . S
C1002 H1034 0.929 . S
C1003 C1004 1.358 . S
C1003 C1005 1.356 . S
C1003 H1035 0.930 . S
C1004 N1001 1.279 . S
C1004 C1003 1.358 . S
C1004 H1007 0.930 . S
C1005 C1002 1.348 . S
C1005 C1003 1.356 . S
H1006 C1000 0.930 . S
H1007 C1004 0.930 . S
O1008 Li948 1.956 . S
O1008 Li949 1.970 . S
O1008 Li950 1.961 . S
O1008 C952 1.325 . S
O1009 Li948 1.970 . S
O1009 Li949 1.956 . S
O1009 Li951 1.961 . S
O1009 C958 1.325 . S
O1010 Li948 1.961 . S
O1010 Li950 1.956 . S
O1010 Li951 1.970 . S
O1010 C980 1.325 . S
O1011 Li949 1.961 . S
O1011 Li950 1.970 . S
O1011 Li951 1.956 . S
O1011 C986 1.325 . S
H1012 C954 0.929 . S
H1013 C955 0.930 . S
H1014 C956 0.930 . S
H1015 C957 0.930 . S
H1016 C959 0.930 . S
H1017 C961 0.929 . S
H1018 C962 0.930 . S
H1019 C963 0.930 . S
H1020 C966 0.930 . S
H1021 C969 0.929 . S
H1022 C974 0.929 . S
H1023 C975 0.930 . S
H1024 C982 0.929 . S
H1025 C983 0.930 . S
H1026 C984 0.930 . S
H1027 C985 0.930 . S
H1028 C987 0.929 . S
H1029 C988 0.930 . S
H1030 C989 0.930 . S
H1031 C990 0.930 . S
H1032 C994 0.929 . S
H1033 C996 0.930 . S
H1034 C1002 0.929 . S
H1035 C1003 0.930 . S
Li1036 N1053 1.990 . S
Li1036 O1096 1.956 . S
Li1036 O1097 1.970 . S
Li1036 O1098 1.961 . S
Li1037 N1061 1.990 . S
Li1037 O1096 1.970 . S
Li1037 O1097 1.956 . S
Li1037 O1099 1.961 . S
Li1038 N1083 1.990 . S
Li1038 O1096 1.961 . S
Li1038 O1098 1.956 . S
Li1038 O1099 1.970 . S
Li1039 N1089 1.990 . S
Li1039 O1097 1.961 . S
Li1039 O1098 1.970 . S
Li1039 O1099 1.956 . S
C1040 C1042 1.348 . S
C1040 C1043 1.356 . S
C1040 O1096 1.325 . S
N1041 C1044 1.314 . S
N1041 C1045 1.279 . S
C1042 C1040 1.348 . S
C1042 C1044 1.353 . S
C1042 H1100 0.929 . S
C1043 C1040 1.356 . S
C1043 C1045 1.358 . S
C1043 H1101 0.930 . S
C1044 N1041 1.314 . S
C1044 C1042 1.353 . S
C1044 H1102 0.930 . S
C1045 N1041 1.279 . S
C1045 C1043 1.358 . S
C1045 H1103 0.930 . S
C1046 C1049 1.348 . S
C1046 C1050 1.356 . S
C1046 O1097 1.325 . S
C1047 N1048 1.279 . S
C1047 C1050 1.358 . S
C1047 H1104 0.930 . S
N1048 C1047 1.279 . S
N1048 C1051 1.314 . S
C1049 C1046 1.348 . S
C1049 C1051 1.353 . S
C1049 H1105 0.929 . S
C1050 C1046 1.356 . S
C1050 C1047 1.358 . S
C1050 H1106 0.930 . S
C1051 N1048 1.314 . S
C1051 C1049 1.353 . S
C1051 H1107 0.930 . S
C1052 N1053 1.314 . S
C1052 C1057 1.353 . S
C1052 H1058 0.930 . S
N1053 Li1036 1.990 . S
N1053 C1052 1.314 . S
N1053 C1055 1.279 . S
C1054 C1055 1.358 . S
C1054 C1056 1.356 . S
C1054 H1108 0.930 . S
C1055 N1053 1.279 . S
C1055 C1054 1.358 . S
C1055 H1059 0.930 . S
C1056 C1054 1.356 . S
C1056 C1057 1.348 . S
C1057 C1052 1.353 . S
C1057 C1056 1.348 . S
C1057 H1109 0.929 . S
H1058 C1052 0.930 . S
H1059 C1055 0.930 . S
C1060 N1061 1.314 . S
C1060 C1062 1.353 . S
C1060 H1066 0.930 . S
N1061 Li1037 1.990 . S
N1061 C1060 1.314 . S
N1061 C1064 1.279 . S
C1062 C1060 1.353 . S
C1062 C1065 1.348 . S
C1062 H1110 0.929 . S
C1063 C1064 1.358 . S
C1063 C1065 1.356 . S
C1063 H1111 0.930 . S
C1064 N1061 1.279 . S
C1064 C1063 1.358 . S
C1064 H1067 0.930 . S
C1065 C1062 1.348 . S
C1065 C1063 1.356 . S
H1066 C1060 0.930 . S
H1067 C1064 0.930 . S
C1068 C1070 1.348 . S
C1068 C1071 1.356 . S
C1068 O1098 1.325 . S
N1069 C1072 1.314 . S
N1069 C1073 1.279 . S
C1070 C1068 1.348 . S
C1070 C1072 1.353 . S
C1070 H1112 0.929 . S
C1071 C1068 1.356 . S
C1071 C1073 1.358 . S
C1071 H1113 0.930 . S
C1072 N1069 1.314 . S
C1072 C1070 1.353 . S
C1072 H1114 0.930 . S
C1073 N1069 1.279 . S
C1073 C1071 1.358 . S
C1073 H1115 0.930 . S
C1074 C1075 1.348 . S
C1074 C1076 1.356 . S
C1074 O1099 1.325 . S
C1075 C1074 1.348 . S
C1075 C1077 1.353 . S
C1075 H1116 0.929 . S
C1076 C1074 1.356 . S
C1076 C1078 1.358 . S
C1076 H1117 0.930 . S
C1077 C1075 1.353 . S
C1077 N1079 1.314 . S
C1077 H1118 0.930 . S
C1078 C1076 1.358 . S
C1078 N1079 1.279 . S
C1078 H1119 0.930 . S
N1079 C1077 1.314 . S
N1079 C1078 1.279 . S
C1080 C1082 1.353 . S
C1080 N1083 1.314 . S
C1080 H1086 0.930 . S
C1081 N1083 1.279 . S
C1081 C1084 1.358 . S
C1081 H1087 0.930 . S
C1082 C1080 1.353 . S
C1082 C1085 1.348 . S
C1082 H1120 0.929 . S
N1083 Li1038 1.990 . S
N1083 C1080 1.314 . S
N1083 C1081 1.279 . S
C1084 C1081 1.358 . S
C1084 C1085 1.356 . S
C1084 H1121 0.930 . S
C1085 C1082 1.348 . S
C1085 C1084 1.356 . S
H1086 C1080 0.930 . S
H1087 C1081 0.930 . S
C1088 N1089 1.314 . S
C1088 C1090 1.353 . S
C1088 H1094 0.930 . S
N1089 Li1039 1.990 . S
N1089 C1088 1.314 . S
N1089 C1092 1.279 . S
C1090 C1088 1.353 . S
C1090 C1093 1.348 . S
C1090 H1122 0.929 . S
C1091 C1092 1.358 . S
C1091 C1093 1.356 . S
C1091 H1123 0.930 . S
C1092 N1089 1.279 . S
C1092 C1091 1.358 . S
C1092 H1095 0.930 . S
C1093 C1090 1.348 . S
C1093 C1091 1.356 . S
H1094 C1088 0.930 . S
H1095 C1092 0.930 . S
O1096 Li1036 1.956 . S
O1096 Li1037 1.970 . S
O1096 Li1038 1.961 . S
O1096 C1040 1.325 . S
O1097 Li1036 1.970 . S
O1097 Li1037 1.956 . S
O1097 Li1039 1.961 . S
O1097 C1046 1.325 . S
O1098 Li1036 1.961 . S
O1098 Li1038 1.956 . S
O1098 Li1039 1.970 . S
O1098 C1068 1.325 . S
O1099 Li1037 1.961 . S
O1099 Li1038 1.970 . S
O1099 Li1039 1.956 . S
O1099 C1074 1.325 . S
H1100 C1042 0.929 . S
H1101 C1043 0.930 . S
H1102 C1044 0.930 . S
H1103 C1045 0.930 . S
H1104 C1047 0.930 . S
H1105 C1049 0.929 . S
H1106 C1050 0.930 . S
H1107 C1051 0.930 . S
H1108 C1054 0.930 . S
H1109 C1057 0.929 . S
H1110 C1062 0.929 . S
H1111 C1063 0.930 . S
H1112 C1070 0.929 . S
H1113 C1071 0.930 . S
H1114 C1072 0.930 . S
H1115 C1073 0.930 . S
H1116 C1075 0.929 . S
H1117 C1076 0.930 . S
H1118 C1077 0.930 . S
H1119 C1078 0.930 . S
H1120 C1082 0.929 . S
H1121 C1084 0.930 . S
H1122 C1090 0.929 . S
H1123 C1091 0.930 . S
Li1124 N1141 1.990 . S
Li1124 O1184 1.956 . S
Li1124 O1185 1.970 . S
Li1124 O1186 1.961 . S
Li1125 N1149 1.990 . S
Li1125 O1184 1.970 . S
Li1125 O1185 1.956 . S
Li1125 O1187 1.961 . S
Li1126 N1171 1.990 . S
Li1126 O1184 1.961 . S
Li1126 O1186 1.956 . S
Li1126 O1187 1.970 . S
Li1127 N1177 1.990 . S
Li1127 O1185 1.961 . S
Li1127 O1186 1.970 . S
Li1127 O1187 1.956 . S
C1128 C1130 1.348 . S
C1128 C1131 1.356 . S
C1128 O1184 1.325 . S
N1129 C1132 1.314 . S
N1129 C1133 1.279 . S
C1130 C1128 1.348 . S
C1130 C1132 1.353 . S
C1130 H1188 0.929 . S
C1131 C1128 1.356 . S
C1131 C1133 1.358 . S
C1131 H1189 0.930 . S
C1132 N1129 1.314 . S
C1132 C1130 1.353 . S
C1132 H1190 0.930 . S
C1133 N1129 1.279 . S
C1133 C1131 1.358 . S
C1133 H1191 0.930 . S
C1134 C1137 1.348 . S
C1134 C1138 1.356 . S
C1134 O1185 1.325 . S
C1135 N1136 1.279 . S
C1135 C1138 1.358 . S
C1135 H1192 0.930 . S
N1136 C1135 1.279 . S
N1136 C1139 1.314 . S
C1137 C1134 1.348 . S
C1137 C1139 1.353 . S
C1137 H1193 0.929 . S
C1138 C1134 1.356 . S
C1138 C1135 1.358 . S
C1138 H1194 0.930 . S
C1139 N1136 1.314 . S
C1139 C1137 1.353 . S
C1139 H1195 0.930 . S
C1140 N1141 1.314 . S
C1140 C1145 1.353 . S
C1140 H1146 0.930 . S
N1141 Li1124 1.990 . S
N1141 C1140 1.314 . S
N1141 C1143 1.279 . S
C1142 C1143 1.358 . S
C1142 C1144 1.356 . S
C1142 H1196 0.930 . S
C1143 N1141 1.279 . S
C1143 C1142 1.358 . S
C1143 H1147 0.930 . S
C1144 C1142 1.356 . S
C1144 C1145 1.348 . S
C1145 C1140 1.353 . S
C1145 C1144 1.348 . S
C1145 H1197 0.929 . S
H1146 C1140 0.930 . S
H1147 C1143 0.930 . S
C1148 N1149 1.314 . S
C1148 C1150 1.353 . S
C1148 H1154 0.930 . S
N1149 Li1125 1.990 . S
N1149 C1148 1.314 . S
N1149 C1152 1.279 . S
C1150 C1148 1.353 . S
C1150 C1153 1.348 . S
C1150 H1198 0.929 . S
C1151 C1152 1.358 . S
C1151 C1153 1.356 . S
C1151 H1199 0.930 . S
C1152 N1149 1.279 . S
C1152 C1151 1.358 . S
C1152 H1155 0.930 . S
C1153 C1150 1.348 . S
C1153 C1151 1.356 . S
H1154 C1148 0.930 . S
H1155 C1152 0.930 . S
C1156 C1158 1.348 . S
C1156 C1159 1.356 . S
C1156 O1186 1.325 . S
N1157 C1160 1.314 . S
N1157 C1161 1.279 . S
C1158 C1156 1.348 . S
C1158 C1160 1.353 . S
C1158 H1200 0.929 . S
C1159 C1156 1.356 . S
C1159 C1161 1.358 . S
C1159 H1201 0.930 . S
C1160 N1157 1.314 . S
C1160 C1158 1.353 . S
C1160 H1202 0.930 . S
C1161 N1157 1.279 . S
C1161 C1159 1.358 . S
C1161 H1203 0.930 . S
C1162 C1163 1.348 . S
C1162 C1164 1.356 . S
C1162 O1187 1.325 . S
C1163 C1162 1.348 . S
C1163 C1165 1.353 . S
C1163 H1204 0.929 . S
C1164 C1162 1.356 . S
C1164 C1166 1.358 . S
C1164 H1205 0.930 . S
C1165 C1163 1.353 . S
C1165 N1167 1.314 . S
C1165 H1206 0.930 . S
C1166 C1164 1.358 . S
C1166 N1167 1.279 . S
C1166 H1207 0.930 . S
N1167 C1165 1.314 . S
N1167 C1166 1.279 . S
C1168 C1170 1.353 . S
C1168 N1171 1.314 . S
C1168 H1174 0.930 . S
C1169 N1171 1.279 . S
C1169 C1172 1.358 . S
C1169 H1175 0.930 . S
C1170 C1168 1.353 . S
C1170 C1173 1.348 . S
C1170 H1208 0.929 . S
N1171 Li1126 1.990 . S
N1171 C1168 1.314 . S
N1171 C1169 1.279 . S
C1172 C1169 1.358 . S
C1172 C1173 1.356 . S
C1172 H1209 0.930 . S
C1173 C1170 1.348 . S
C1173 C1172 1.356 . S
H1174 C1168 0.930 . S
H1175 C1169 0.930 . S
C1176 N1177 1.314 . S
C1176 C1178 1.353 . S
C1176 H1182 0.930 . S
N1177 Li1127 1.990 . S
N1177 C1176 1.314 . S
N1177 C1180 1.279 . S
C1178 C1176 1.353 . S
C1178 C1181 1.348 . S
C1178 H1210 0.929 . S
C1179 C1180 1.358 . S
C1179 C1181 1.356 . S
C1179 H1211 0.930 . S
C1180 N1177 1.279 . S
C1180 C1179 1.358 . S
C1180 H1183 0.930 . S
C1181 C1178 1.348 . S
C1181 C1179 1.356 . S
H1182 C1176 0.930 . S
H1183 C1180 0.930 . S
O1184 Li1124 1.956 . S
O1184 Li1125 1.970 . S
O1184 Li1126 1.961 . S
O1184 C1128 1.325 . S
O1185 Li1124 1.970 . S
O1185 Li1125 1.956 . S
O1185 Li1127 1.961 . S
O1185 C1134 1.325 . S
O1186 Li1124 1.961 . S
O1186 Li1126 1.956 . S
O1186 Li1127 1.970 . S
O1186 C1156 1.325 . S
O1187 Li1125 1.961 . S
O1187 Li1126 1.970 . S
O1187 Li1127 1.956 . S
O1187 C1162 1.325 . S
H1188 C1130 0.929 . S
H1189 C1131 0.930 . S
H1190 C1132 0.930 . S
H1191 C1133 0.930 . S
H1192 C1135 0.930 . S
H1193 C1137 0.929 . S
H1194 C1138 0.930 . S
H1195 C1139 0.930 . S
H1196 C1142 0.930 . S
H1197 C1145 0.929 . S
H1198 C1150 0.929 . S
H1199 C1151 0.930 . S
H1200 C1158 0.929 . S
H1201 C1159 0.930 . S
H1202 C1160 0.930 . S
H1203 C1161 0.930 . S
H1204 C1163 0.929 . S
H1205 C1164 0.930 . S
H1206 C1165 0.930 . S
H1207 C1166 0.930 . S
H1208 C1170 0.929 . S
H1209 C1172 0.930 . S
H1210 C1178 0.929 . S
H1211 C1179 0.930 . S
H1212 C1218 0.930 . S
H1213 C1222 0.930 . S
H1214 C1227 0.929 . S
H1215 C1225 0.929 . S
H1216 C1220 0.929 . S
H1217 C1226 0.929 . S
C1218 H1212 0.930 . S
C1218 C1219 1.367 . S
C1218 C1226 1.378 . S
C1219 C1218 1.367 . S
C1219 C1227 1.433 . S
C1220 H1216 0.929 . S
C1220 C1222 1.378 . S
C1220 C1224 1.350 . S
C1221 C1224 1.463 . S
C1221 C1226 1.350 . S
C1221 N1229 1.427 . S
C1222 H1213 0.930 . S
C1222 C1220 1.378 . S
C1222 C1223 1.367 . S
C1223 C1222 1.367 . S
C1223 C1225 1.433 . S
C1224 C1220 1.350 . S
C1224 C1221 1.463 . S
C1224 N1228 1.427 . S
C1225 H1215 0.929 . S
C1225 C1223 1.433 . S
C1225 N1228 1.384 . S
C1226 H1217 0.929 . S
C1226 C1218 1.378 . S
C1226 C1221 1.350 . S
C1227 H1214 0.929 . S
C1227 C1219 1.433 . S
C1227 N1229 1.384 . S
N1228 C1224 1.427 . S
N1228 C1225 1.384 . S
N1229 C1221 1.427 . S
N1229 C1227 1.384 . S
H1230 C1236 0.930 . S
H1231 C1240 0.930 . S
H1232 C1245 0.929 . S
H1233 C1243 0.929 . S
H1234 C1238 0.929 . S
H1235 C1244 0.929 . S
C1236 H1230 0.930 . S
C1236 C1237 1.367 . S
C1236 C1244 1.378 . S
C1237 C1236 1.367 . S
C1237 C1245 1.433 . S
C1238 H1234 0.929 . S
C1238 C1240 1.378 . S
C1238 C1242 1.350 . S
C1239 C1242 1.463 . S
C1239 C1244 1.350 . S
C1239 N1247 1.427 . S
C1240 H1231 0.930 . S
C1240 C1238 1.378 . S
C1240 C1241 1.367 . S
C1241 C1240 1.367 . S
C1241 C1243 1.433 . S
C1242 C1238 1.350 . S
C1242 C1239 1.463 . S
C1242 N1246 1.427 . S
C1243 H1233 0.929 . S
C1243 C1241 1.433 . S
C1243 N1246 1.384 . S
C1244 H1235 0.929 . S
C1244 C1236 1.378 . S
C1244 C1239 1.350 . S
C1245 H1232 0.929 . S
C1245 C1237 1.433 . S
C1245 N1247 1.384 . S
N1246 C1242 1.427 . S
N1246 C1243 1.384 . S
N1247 C1239 1.427 . S
N1247 C1245 1.384 . S
H1248 C1254 0.930 . S
H1249 C1258 0.930 . S
H1250 C1263 0.929 . S
H1251 C1261 0.929 . S
H1252 C1256 0.929 . S
H1253 C1262 0.929 . S
C1254 H1248 0.930 . S
C1254 C1255 1.367 . S
C1254 C1262 1.378 . S
C1255 C1254 1.367 . S
C1255 C1263 1.433 . S
C1256 H1252 0.929 . S
C1256 C1258 1.378 . S
C1256 C1260 1.350 . S
C1257 C1260 1.463 . S
C1257 C1262 1.350 . S
C1257 N1265 1.427 . S
C1258 H1249 0.930 . S
C1258 C1256 1.378 . S
C1258 C1259 1.367 . S
C1259 C1258 1.367 . S
C1259 C1261 1.433 . S
C1260 C1256 1.350 . S
C1260 C1257 1.463 . S
C1260 N1264 1.427 . S
C1261 H1251 0.929 . S
C1261 C1259 1.433 . S
C1261 N1264 1.384 . S
C1262 H1253 0.929 . S
C1262 C1254 1.378 . S
C1262 C1257 1.350 . S
C1263 H1250 0.929 . S
C1263 C1255 1.433 . S
C1263 N1265 1.384 . S
N1264 C1260 1.427 . S
N1264 C1261 1.384 . S
N1265 C1257 1.427 . S
N1265 C1263 1.384 . S
H1266 C1272 0.930 . S
H1267 C1276 0.930 . S
H1268 C1281 0.929 . S
H1269 C1279 0.929 . S
H1270 C1274 0.929 . S
H1271 C1280 0.929 . S
C1272 H1266 0.930 . S
C1272 C1273 1.367 . S
C1272 C1280 1.378 . S
C1273 C1272 1.367 . S
C1273 C1281 1.433 . S
C1274 H1270 0.929 . S
C1274 C1276 1.378 . S
C1274 C1278 1.350 . S
C1275 C1278 1.463 . S
C1275 C1280 1.350 . S
C1275 N1283 1.427 . S
C1276 H1267 0.930 . S
C1276 C1274 1.378 . S
C1276 C1277 1.367 . S
C1277 C1276 1.367 . S
C1277 C1279 1.433 . S
C1278 C1274 1.350 . S
C1278 C1275 1.463 . S
C1278 N1282 1.427 . S
C1279 H1269 0.929 . S
C1279 C1277 1.433 . S
C1279 N1282 1.384 . S
C1280 H1271 0.929 . S
C1280 C1272 1.378 . S
C1280 C1275 1.350 . S
C1281 H1268 0.929 . S
C1281 C1273 1.433 . S
C1281 N1283 1.384 . S
N1282 C1278 1.427 . S
N1282 C1279 1.384 . S
N1283 C1275 1.427 . S
N1283 C1281 1.384 . S
H1284 C1290 0.930 . S
H1285 C1294 0.930 . S
H1286 C1299 0.929 . S
H1287 C1297 0.929 . S
H1288 C1292 0.929 . S
H1289 C1298 0.929 . S
C1290 H1284 0.930 . S
C1290 C1291 1.367 . S
C1290 C1298 1.378 . S
C1291 C1290 1.367 . S
C1291 C1299 1.433 . S
C1292 H1288 0.929 . S
C1292 C1294 1.378 . S
C1292 C1296 1.350 . S
C1293 C1296 1.463 . S
C1293 C1298 1.350 . S
C1293 N1301 1.427 . S
C1294 H1285 0.930 . S
C1294 C1292 1.378 . S
C1294 C1295 1.367 . S
C1295 C1294 1.367 . S
C1295 C1297 1.433 . S
C1296 C1292 1.350 . S
C1296 C1293 1.463 . S
C1296 N1300 1.427 . S
C1297 H1287 0.929 . S
C1297 C1295 1.433 . S
C1297 N1300 1.384 . S
C1298 H1289 0.929 . S
C1298 C1290 1.378 . S
C1298 C1293 1.350 . S
C1299 H1286 0.929 . S
C1299 C1291 1.433 . S
C1299 N1301 1.384 . S
N1300 C1296 1.427 . S
N1300 C1297 1.384 . S
N1301 C1293 1.427 . S
N1301 C1299 1.384 . S
H1302 C1308 0.930 . S
H1303 C1312 0.930 . S
H1304 C1317 0.929 . S
H1305 C1315 0.929 . S
H1306 C1310 0.929 . S
H1307 C1316 0.929 . S
C1308 H1302 0.930 . S
C1308 C1309 1.367 . S
C1308 C1316 1.378 . S
C1309 C1308 1.367 . S
C1309 C1317 1.433 . S
C1310 H1306 0.929 . S
C1310 C1312 1.378 . S
C1310 C1314 1.350 . S
C1311 C1314 1.463 . S
C1311 C1316 1.350 . S
C1311 N1319 1.427 . S
C1312 H1303 0.930 . S
C1312 C1310 1.378 . S
C1312 C1313 1.367 . S
C1313 C1312 1.367 . S
C1313 C1315 1.433 . S
C1314 C1310 1.350 . S
C1314 C1311 1.463 . S
C1314 N1318 1.427 . S
C1315 H1305 0.929 . S
C1315 C1313 1.433 . S
C1315 N1318 1.384 . S
C1316 H1307 0.929 . S
C1316 C1308 1.378 . S
C1316 C1311 1.350 . S
C1317 H1304 0.929 . S
C1317 C1309 1.433 . S
C1317 N1319 1.384 . S
N1318 C1314 1.427 . S
N1318 C1315 1.384 . S
N1319 C1311 1.427 . S
N1319 C1317 1.384 . S
H1320 C1326 0.930 . S
H1321 C1330 0.930 . S
H1322 C1335 0.929 . S
H1323 C1333 0.929 . S
H1324 C1328 0.929 . S
H1325 C1334 0.929 . S
C1326 H1320 0.930 . S
C1326 C1327 1.367 . S
C1326 C1334 1.378 . S
C1327 C1326 1.367 . S
C1327 C1335 1.433 . S
C1328 H1324 0.929 . S
C1328 C1330 1.378 . S
C1328 C1332 1.350 . S
C1329 C1332 1.463 . S
C1329 C1334 1.350 . S
C1329 N1337 1.427 . S
C1330 H1321 0.930 . S
C1330 C1328 1.378 . S
C1330 C1331 1.367 . S
C1331 C1330 1.367 . S
C1331 C1333 1.433 . S
C1332 C1328 1.350 . S
C1332 C1329 1.463 . S
C1332 N1336 1.427 . S
C1333 H1323 0.929 . S
C1333 C1331 1.433 . S
C1333 N1336 1.384 . S
C1334 H1325 0.929 . S
C1334 C1326 1.378 . S
C1334 C1329 1.350 . S
C1335 H1322 0.929 . S
C1335 C1327 1.433 . S
C1335 N1337 1.384 . S
N1336 C1332 1.427 . S
N1336 C1333 1.384 . S
N1337 C1329 1.427 . S
N1337 C1335 1.384 . S
H1338 C1344 0.930 . S
H1339 C1348 0.930 . S
H1340 C1353 0.929 . S
H1341 C1351 0.929 . S
H1342 C1346 0.929 . S
H1343 C1352 0.929 . S
C1344 H1338 0.930 . S
C1344 C1345 1.367 . S
C1344 C1352 1.378 . S
C1345 C1344 1.367 . S
C1345 C1353 1.433 . S
C1346 H1342 0.929 . S
C1346 C1348 1.378 . S
C1346 C1350 1.350 . S
C1347 C1350 1.463 . S
C1347 C1352 1.350 . S
C1347 N1355 1.427 . S
C1348 H1339 0.930 . S
C1348 C1346 1.378 . S
C1348 C1349 1.367 . S
C1349 C1348 1.367 . S
C1349 C1351 1.433 . S
C1350 C1346 1.350 . S
C1350 C1347 1.463 . S
C1350 N1354 1.427 . S
C1351 H1341 0.929 . S
C1351 C1349 1.433 . S
C1351 N1354 1.384 . S
C1352 H1343 0.929 . S
C1352 C1344 1.378 . S
C1352 C1347 1.350 . S
C1353 H1340 0.929 . S
C1353 C1345 1.433 . S
C1353 N1355 1.384 . S
N1354 C1350 1.427 . S
N1354 C1351 1.384 . S
N1355 C1347 1.427 . S
N1355 C1353 1.384 . S
H1356 C1362 0.930 . S
H1357 C1366 0.930 . S
H1358 C1371 0.929 . S
H1359 C1369 0.929 . S
H1360 C1364 0.929 . S
H1361 C1370 0.929 . S
C1362 H1356 0.930 . S
C1362 C1363 1.367 . S
C1362 C1370 1.378 . S
C1363 C1362 1.367 . S
C1363 C1371 1.433 . S
C1364 H1360 0.929 . S
C1364 C1366 1.378 . S
C1364 C1368 1.350 . S
C1365 C1368 1.463 . S
C1365 C1370 1.350 . S
C1365 N1373 1.427 . S
C1366 H1357 0.930 . S
C1366 C1364 1.378 . S
C1366 C1367 1.367 . S
C1367 C1366 1.367 . S
C1367 C1369 1.433 . S
C1368 C1364 1.350 . S
C1368 C1365 1.463 . S
C1368 N1372 1.427 . S
C1369 H1359 0.929 . S
C1369 C1367 1.433 . S
C1369 N1372 1.384 . S
C1370 H1361 0.929 . S
C1370 C1362 1.378 . S
C1370 C1365 1.350 . S
C1371 H1358 0.929 . S
C1371 C1363 1.433 . S
C1371 N1373 1.384 . S
N1372 C1368 1.427 . S
N1372 C1369 1.384 . S
N1373 C1365 1.427 . S
N1373 C1371 1.384 . S
H1374 C1380 0.930 . S
H1375 C1384 0.930 . S
H1376 C1389 0.929 . S
H1377 C1387 0.929 . S
H1378 C1382 0.929 . S
H1379 C1388 0.929 . S
C1380 H1374 0.930 . S
C1380 C1381 1.367 . S
C1380 C1388 1.378 . S
C1381 C1380 1.367 . S
C1381 C1389 1.433 . S
C1382 H1378 0.929 . S
C1382 C1384 1.378 . S
C1382 C1386 1.350 . S
C1383 C1386 1.463 . S
C1383 C1388 1.350 . S
C1383 N1391 1.427 . S
C1384 H1375 0.930 . S
C1384 C1382 1.378 . S
C1384 C1385 1.367 . S
C1385 C1384 1.367 . S
C1385 C1387 1.433 . S
C1386 C1382 1.350 . S
C1386 C1383 1.463 . S
C1386 N1390 1.427 . S
C1387 H1377 0.929 . S
C1387 C1385 1.433 . S
C1387 N1390 1.384 . S
C1388 H1379 0.929 . S
C1388 C1380 1.378 . S
C1388 C1383 1.350 . S
C1389 H1376 0.929 . S
C1389 C1381 1.433 . S
C1389 N1391 1.384 . S
N1390 C1386 1.427 . S
N1390 C1387 1.384 . S
N1391 C1383 1.427 . S
N1391 C1389 1.384 . S
H1392 C1398 0.930 . S
H1393 C1402 0.930 . S
H1394 C1407 0.929 . S
H1395 C1405 0.929 . S
H1396 C1400 0.929 . S
H1397 C1406 0.929 . S
C1398 H1392 0.930 . S
C1398 C1399 1.367 . S
C1398 C1406 1.378 . S
C1399 C1398 1.367 . S
C1399 C1407 1.433 . S
C1400 H1396 0.929 . S
C1400 C1402 1.378 . S
C1400 C1404 1.350 . S
C1401 C1404 1.463 . S
C1401 C1406 1.350 . S
C1401 N1409 1.427 . S
C1402 H1393 0.930 . S
C1402 C1400 1.378 . S
C1402 C1403 1.367 . S
C1403 C1402 1.367 . S
C1403 C1405 1.433 . S
C1404 C1400 1.350 . S
C1404 C1401 1.463 . S
C1404 N1408 1.427 . S
C1405 H1395 0.929 . S
C1405 C1403 1.433 . S
C1405 N1408 1.384 . S
C1406 H1397 0.929 . S
C1406 C1398 1.378 . S
C1406 C1401 1.350 . S
C1407 H1394 0.929 . S
C1407 C1399 1.433 . S
C1407 N1409 1.384 . S
N1408 C1404 1.427 . S
N1408 C1405 1.384 . S
N1409 C1401 1.427 . S
N1409 C1407 1.384 . S
H1410 C1416 0.930 . S
H1411 C1420 0.930 . S
H1412 C1425 0.929 . S
H1413 C1423 0.929 . S
H1414 C1418 0.929 . S
H1415 C1424 0.929 . S
C1416 H1410 0.930 . S
C1416 C1417 1.367 . S
C1416 C1424 1.378 . S
C1417 C1416 1.367 . S
C1417 C1425 1.433 . S
C1418 H1414 0.929 . S
C1418 C1420 1.378 . S
C1418 C1422 1.350 . S
C1419 C1422 1.463 . S
C1419 C1424 1.350 . S
C1419 N1427 1.427 . S
C1420 H1411 0.930 . S
C1420 C1418 1.378 . S
C1420 C1421 1.367 . S
C1421 C1420 1.367 . S
C1421 C1423 1.433 . S
C1422 C1418 1.350 . S
C1422 C1419 1.463 . S
C1422 N1426 1.427 . S
C1423 H1413 0.929 . S
C1423 C1421 1.433 . S
C1423 N1426 1.384 . S
C1424 H1415 0.929 . S
C1424 C1416 1.378 . S
C1424 C1419 1.350 . S
C1425 H1412 0.929 . S
C1425 C1417 1.433 . S
C1425 N1427 1.384 . S
N1426 C1422 1.427 . S
N1426 C1423 1.384 . S
N1427 C1419 1.427 . S
N1427 C1425 1.384 . S
H1428 C1434 0.930 . S
H1429 C1438 0.930 . S
H1430 C1443 0.929 . S
H1431 C1441 0.929 . S
H1432 C1436 0.929 . S
H1433 C1442 0.929 . S
C1434 H1428 0.930 . S
C1434 C1435 1.367 . S
C1434 C1442 1.378 . S
C1435 C1434 1.367 . S
C1435 C1443 1.433 . S
C1436 H1432 0.929 . S
C1436 C1438 1.378 . S
C1436 C1440 1.350 . S
C1437 C1440 1.463 . S
C1437 C1442 1.350 . S
C1437 N1445 1.427 . S
C1438 H1429 0.930 . S
C1438 C1436 1.378 . S
C1438 C1439 1.367 . S
C1439 C1438 1.367 . S
C1439 C1441 1.433 . S
C1440 C1436 1.350 . S
C1440 C1437 1.463 . S
C1440 N1444 1.427 . S
C1441 H1431 0.929 . S
C1441 C1439 1.433 . S
C1441 N1444 1.384 . S
C1442 H1433 0.929 . S
C1442 C1434 1.378 . S
C1442 C1437 1.350 . S
C1443 H1430 0.929 . S
C1443 C1435 1.433 . S
C1443 N1445 1.384 . S
N1444 C1440 1.427 . S
N1444 C1441 1.384 . S
N1445 C1437 1.427 . S
N1445 C1443 1.384 . S
H1446 C1452 0.930 . S
H1447 C1456 0.930 . S
H1448 C1461 0.929 . S
H1449 C1459 0.929 . S
H1450 C1454 0.929 . S
H1451 C1460 0.929 . S
C1452 H1446 0.930 . S
C1452 C1453 1.367 . S
C1452 C1460 1.378 . S
C1453 C1452 1.367 . S
C1453 C1461 1.433 . S
C1454 H1450 0.929 . S
C1454 C1456 1.378 . S
C1454 C1458 1.350 . S
C1455 C1458 1.463 . S
C1455 C1460 1.350 . S
C1455 N1463 1.427 . S
C1456 H1447 0.930 . S
C1456 C1454 1.378 . S
C1456 C1457 1.367 . S
C1457 C1456 1.367 . S
C1457 C1459 1.433 . S
C1458 C1454 1.350 . S
C1458 C1455 1.463 . S
C1458 N1462 1.427 . S
C1459 H1449 0.929 . S
C1459 C1457 1.433 . S
C1459 N1462 1.384 . S
C1460 H1451 0.929 . S
C1460 C1452 1.378 . S
C1460 C1455 1.350 . S
C1461 H1448 0.929 . S
C1461 C1453 1.433 . S
C1461 N1463 1.384 . S
N1462 C1458 1.427 . S
N1462 C1459 1.384 . S
N1463 C1455 1.427 . S
N1463 C1461 1.384 . S
H1464 C1470 0.930 . S
H1465 C1474 0.930 . S
H1466 C1479 0.929 . S
H1467 C1477 0.929 . S
H1468 C1472 0.929 . S
H1469 C1478 0.929 . S
C1470 H1464 0.930 . S
C1470 C1471 1.367 . S
C1470 C1478 1.378 . S
C1471 C1470 1.367 . S
C1471 C1479 1.433 . S
C1472 H1468 0.929 . S
C1472 C1474 1.378 . S
C1472 C1476 1.350 . S
C1473 C1476 1.463 . S
C1473 C1478 1.350 . S
C1473 N1481 1.427 . S
C1474 H1465 0.930 . S
C1474 C1472 1.378 . S
C1474 C1475 1.367 . S
C1475 C1474 1.367 . S
C1475 C1477 1.433 . S
C1476 C1472 1.350 . S
C1476 C1473 1.463 . S
C1476 N1480 1.427 . S
C1477 H1467 0.929 . S
C1477 C1475 1.433 . S
C1477 N1480 1.384 . S
C1478 H1469 0.929 . S
C1478 C1470 1.378 . S
C1478 C1473 1.350 . S
C1479 H1466 0.929 . S
C1479 C1471 1.433 . S
C1479 N1481 1.384 . S
N1480 C1476 1.427 . S
N1480 C1477 1.384 . S
N1481 C1473 1.427 . S
N1481 C1479 1.384 . S
H1482 C1488 0.930 . S
H1483 C1492 0.930 1_554 S
H1484 C1497 0.929 . S
H1485 C1495 0.929 . S
H1486 C1490 0.929 . S
H1487 C1496 0.929 . S
C1488 H1482 0.930 . S
C1488 C1489 1.367 . S
C1488 C1496 1.378 . S
C1489 C1488 1.367 . S
C1489 C1497 1.433 . S
C1490 H1486 0.929 . S
C1490 C1492 1.378 . S
C1490 C1494 1.350 . S
C1491 C1494 1.463 . S
C1491 C1496 1.350 . S
C1491 N1499 1.427 . S
C1492 H1483 0.930 1_556 S
C1492 C1490 1.378 . S
C1492 C1493 1.372 . S
C1493 C1492 1.372 . S
C1493 C1495 1.450 . S
C1494 C1490 1.350 . S
C1494 C1491 1.463 . S
C1494 N1498 1.427 . S
C1495 H1485 0.929 . S
C1495 C1493 1.450 . S
C1495 N1498 1.384 . S
C1496 H1487 0.929 . S
C1496 C1488 1.378 . S
C1496 C1491 1.350 . S
C1497 H1484 0.929 . S
C1497 C1489 1.433 . S
C1497 N1499 1.384 . S
N1498 C1494 1.427 . S
N1498 C1495 1.384 . S
N1499 C1491 1.427 . S
N1499 C1497 1.384 . S
H1500 C1506 0.930 . S
H1501 C1510 0.930 . S
H1502 C1515 0.929 . S
H1503 C1513 0.929 . S
H1504 C1508 0.929 . S
H1505 C1514 0.929 . S
C1506 H1500 0.930 . S
C1506 C1507 1.367 . S
C1506 C1514 1.378 . S
C1507 C1506 1.367 . S
C1507 C1515 1.433 . S
C1508 H1504 0.929 . S
C1508 C1510 1.378 . S
C1508 C1512 1.350 . S
C1509 C1512 1.463 . S
C1509 C1514 1.350 . S
C1509 N1517 1.427 . S
C1510 H1501 0.930 . S
C1510 C1508 1.378 . S
C1510 C1511 1.367 . S
C1511 C1510 1.367 . S
C1511 C1513 1.433 . S
C1512 C1508 1.350 . S
C1512 C1509 1.463 . S
C1512 N1516 1.427 . S
C1513 H1503 0.929 . S
C1513 C1511 1.433 . S
C1513 N1516 1.384 . S
C1514 H1505 0.929 . S
C1514 C1506 1.378 . S
C1514 C1509 1.350 . S
C1515 H1502 0.929 . S
C1515 C1507 1.433 . S
C1515 N1517 1.384 . S
N1516 C1512 1.427 . S
N1516 C1513 1.384 . S
N1517 C1509 1.427 . S
N1517 C1515 1.384 . S
H1518 C1524 0.930 . S
H1519 C1528 0.930 . S
H1520 C1533 0.929 . S
H1521 C1531 0.929 . S
H1522 C1526 0.929 . S
H1523 C1532 0.929 . S
C1524 H1518 0.930 . S
C1524 C1525 1.367 . S
C1524 C1532 1.378 . S
C1525 C1524 1.367 . S
C1525 C1533 1.433 . S
C1526 H1522 0.929 . S
C1526 C1528 1.378 . S
C1526 C1530 1.350 . S
C1527 C1530 1.463 . S
C1527 C1532 1.350 . S
C1527 N1535 1.427 . S
C1528 H1519 0.930 . S
C1528 C1526 1.378 . S
C1528 C1529 1.367 . S
C1529 C1528 1.367 . S
C1529 C1531 1.433 . S
C1530 C1526 1.350 . S
C1530 C1527 1.463 . S
C1530 N1534 1.427 . S
C1531 H1521 0.929 . S
C1531 C1529 1.433 . S
C1531 N1534 1.384 . S
C1532 H1523 0.929 . S
C1532 C1524 1.378 . S
C1532 C1527 1.350 . S
C1533 H1520 0.929 . S
C1533 C1525 1.433 . S
C1533 N1535 1.384 . S
N1534 C1530 1.427 . S
N1534 C1531 1.384 . S
N1535 C1527 1.427 . S
N1535 C1533 1.384 . S
H1536 C1542 0.930 . S
H1537 C1546 0.930 . S
H1538 C1551 0.929 . S
H1539 C1549 0.929 . S
H1540 C1544 0.929 . S
H1541 C1550 0.929 . S
C1542 H1536 0.930 . S
C1542 C1543 1.367 . S
C1542 C1550 1.378 . S
C1543 C1542 1.367 . S
C1543 C1551 1.433 . S
C1544 H1540 0.929 . S
C1544 C1546 1.378 . S
C1544 C1548 1.350 . S
C1545 C1548 1.463 . S
C1545 C1550 1.350 . S
C1545 N1553 1.427 . S
C1546 H1537 0.930 . S
C1546 C1544 1.378 . S
C1546 C1547 1.367 . S
C1547 C1546 1.367 . S
C1547 C1549 1.433 . S
C1548 C1544 1.350 . S
C1548 C1545 1.463 . S
C1548 N1552 1.427 . S
C1549 H1539 0.929 . S
C1549 C1547 1.433 . S
C1549 N1552 1.384 . S
C1550 H1541 0.929 . S
C1550 C1542 1.378 . S
C1550 C1545 1.350 . S
C1551 H1538 0.929 . S
C1551 C1543 1.433 . S
C1551 N1553 1.384 . S
N1552 C1548 1.427 . S
N1552 C1549 1.384 . S
N1553 C1545 1.427 . S
N1553 C1551 1.384 . S
H1554 C1560 0.930 . S
H1555 C1564 0.930 . S
H1556 C1569 0.929 . S
H1557 C1567 0.929 . S
H1558 C1562 0.929 . S
H1559 C1568 0.929 . S
C1560 H1554 0.930 . S
C1560 C1561 1.367 . S
C1560 C1568 1.378 . S
C1561 C1560 1.367 . S
C1561 C1569 1.433 . S
C1562 H1558 0.929 . S
C1562 C1564 1.378 . S
C1562 C1566 1.350 . S
C1563 C1566 1.463 . S
C1563 C1568 1.350 . S
C1563 N1571 1.427 . S
C1564 H1555 0.930 . S
C1564 C1562 1.378 . S
C1564 C1565 1.367 . S
C1565 C1564 1.367 . S
C1565 C1567 1.433 . S
C1566 C1562 1.350 . S
C1566 C1563 1.463 . S
C1566 N1570 1.427 . S
C1567 H1557 0.929 . S
C1567 C1565 1.433 . S
C1567 N1570 1.384 . S
C1568 H1559 0.929 . S
C1568 C1560 1.378 . S
C1568 C1563 1.350 . S
C1569 H1556 0.929 . S
C1569 C1561 1.433 . S
C1569 N1571 1.384 . S
N1570 C1566 1.427 . S
N1570 C1567 1.384 . S
N1571 C1563 1.427 . S
N1571 C1569 1.384 . S
H1572 C1578 0.930 . S
H1573 C1582 0.930 . S
H1574 C1587 0.929 . S
H1575 C1585 0.929 . S
H1576 C1580 0.929 . S
H1577 C1586 0.929 . S
C1578 H1572 0.930 . S
C1578 C1579 1.367 . S
C1578 C1586 1.378 . S
C1579 C1578 1.367 . S
C1579 C1587 1.433 . S
C1580 H1576 0.929 . S
C1580 C1582 1.378 . S
C1580 C1584 1.350 . S
C1581 C1584 1.463 . S
C1581 C1586 1.350 . S
C1581 N1589 1.427 . S
C1582 H1573 0.930 . S
C1582 C1580 1.378 . S
C1582 C1583 1.367 . S
C1583 C1582 1.367 . S
C1583 C1585 1.433 . S
C1584 C1580 1.350 . S
C1584 C1581 1.463 . S
C1584 N1588 1.427 . S
C1585 H1575 0.929 . S
C1585 C1583 1.433 . S
C1585 N1588 1.384 . S
C1586 H1577 0.929 . S
C1586 C1578 1.378 . S
C1586 C1581 1.350 . S
C1587 H1574 0.929 . S
C1587 C1579 1.433 . S
C1587 N1589 1.384 . S
N1588 C1584 1.427 . S
N1588 C1585 1.384 . S
N1589 C1581 1.427 . S
N1589 C1587 1.384 . S
H1590 C1596 0.930 . S
H1591 C1600 0.930 . S
H1592 C1605 0.929 . S
H1593 C1603 0.929 . S
H1594 C1598 0.929 . S
H1595 C1604 0.929 . S
C1596 H1590 0.930 . S
C1596 C1597 1.367 . S
C1596 C1604 1.378 . S
C1597 C1596 1.367 . S
C1597 C1605 1.433 . S
C1598 H1594 0.929 . S
C1598 C1600 1.378 . S
C1598 C1602 1.350 . S
C1599 C1602 1.463 . S
C1599 C1604 1.350 . S
C1599 N1607 1.427 . S
C1600 H1591 0.930 . S
C1600 C1598 1.378 . S
C1600 C1601 1.367 . S
C1601 C1600 1.367 . S
C1601 C1603 1.433 . S
C1602 C1598 1.350 . S
C1602 C1599 1.463 . S
C1602 N1606 1.427 . S
C1603 H1593 0.929 . S
C1603 C1601 1.433 . S
C1603 N1606 1.384 . S
C1604 H1595 0.929 . S
C1604 C1596 1.378 . S
C1604 C1599 1.350 . S
C1605 H1592 0.929 . S
C1605 C1597 1.433 . S
C1605 N1607 1.384 . S
N1606 C1602 1.427 . S
N1606 C1603 1.384 . S
N1607 C1599 1.427 . S
N1607 C1605 1.384 . S
H1608 C1614 0.930 . S
H1609 C1618 0.930 . S
H1610 C1623 0.929 . S
H1611 C1621 0.929 . S
H1612 C1616 0.929 . S
H1613 C1622 0.929 . S
C1614 H1608 0.930 . S
C1614 C1615 1.367 . S
C1614 C1622 1.378 . S
C1615 C1614 1.367 . S
C1615 C1623 1.433 . S
C1616 H1612 0.929 . S
C1616 C1618 1.378 1_554 S
C1616 C1620 1.350 . S
C1617 C1620 1.463 . S
C1617 C1622 1.350 . S
C1617 N1625 1.427 . S
C1618 H1609 0.930 . S
C1618 C1616 1.378 1_556 S
C1618 C1619 1.367 . S
C1619 C1618 1.367 . S
C1619 C1621 1.433 . S
C1620 C1616 1.350 . S
C1620 C1617 1.463 . S
C1620 N1624 1.427 . S
C1621 H1611 0.929 . S
C1621 C1619 1.433 . S
C1621 N1624 1.384 1_556 S
C1622 H1613 0.929 . S
C1622 C1614 1.378 . S
C1622 C1617 1.350 . S
C1623 H1610 0.929 . S
C1623 C1615 1.433 . S
C1623 N1625 1.384 . S
N1624 C1620 1.427 . S
N1624 C1621 1.384 1_554 S
N1625 C1617 1.427 . S
N1625 C1623 1.384 . S
H1626 C1632 0.930 . S
H1627 C1636 0.930 . S
H1628 C1641 0.929 . S
H1629 C1639 0.929 . S
H1630 C1634 0.929 . S
H1631 C1640 0.929 . S
C1632 H1626 0.930 . S
C1632 C1633 1.367 . S
C1632 C1640 1.378 . S
C1633 C1632 1.367 . S
C1633 C1641 1.433 . S
C1634 H1630 0.929 . S
C1634 C1636 1.378 . S
C1634 C1638 1.350 . S
C1635 C1638 1.463 . S
C1635 C1640 1.350 . S
C1635 N1643 1.427 . S
C1636 H1627 0.930 . S
C1636 C1634 1.378 . S
C1636 C1637 1.367 . S
C1637 C1636 1.367 . S
C1637 C1639 1.433 . S
C1638 C1634 1.350 . S
C1638 C1635 1.463 . S
C1638 N1642 1.427 . S
C1639 H1629 0.929 . S
C1639 C1637 1.433 . S
C1639 N1642 1.384 . S
C1640 H1631 0.929 . S
C1640 C1632 1.378 . S
C1640 C1635 1.350 . S
C1641 H1628 0.929 . S
C1641 C1633 1.433 . S
C1641 N1643 1.384 . S
N1642 C1638 1.427 . S
N1642 C1639 1.384 . S
N1643 C1635 1.427 . S
N1643 C1641 1.384 . S
C1223 C1153 1.792 . S
C1219 C1 1.282 . S
C1237 C169 1.761 . S
C1241 C713 1.932 . S
C1255 C283 1.721 . S
C1259 C801 1.902 . S
C1273 C397 1.583 . S
C1277 C880 1.763 . S
C1295 C977 1.624 . S
C1291 C457 1.155 . S
C1309 C571 1.133 . S
C1313 C1056 1.644 . S
C1327 C115 1.260 . S
C1331 C821 1.782 . S
C1345 C229 1.169 . S
C1349 C917 1.653 . S
C1363 C343 1.156 . S
C1367 C997 1.625 . S
C1385 C1093 1.760 . S
C1381 C511 1.598 . S
C1403 C1173 1.903 . S
C1399 C625 1.718 . S
C1421 C733 1.941 . S
C1417 C55 1.744 . S
C1435 C29 1.139 . S
C1439 C829 1.395 . S
C1453 C125 0.901 . S
C1457 C909 1.487 . S
C1475 C1005 1.422 . S
C1471 C239 0.896 . S
C1489 C353 0.889 . S
C1493 C1085 1.386 1_556 S
C1511 C1181 1.318 . S
C1507 C485 1.072 . S
C1529 C741 1.389 . S
C1525 C599 1.108 . S
C1547 C1144 1.397 . S
C1543 C143 1.112 . S
C1561 C257 1.121 . S
C1565 C704 1.388 . S
C1583 C792 1.319 . S
C1579 C371 1.070 . S
C1597 C467 0.915 . S
C1601 C889 1.412 . S
C1615 C581 0.864 . S
C1619 C968 1.418 . S
C1633 C11 0.934 . S
C1637 C1065 1.490 . S
