# Generated by pormake.
# Topology zzz, (3,6)-cn, num edge types: 1
# Building blocks:
#     Node 0, Type 0, BuildingBlock: KAKCAD_clean_linker_0, # of connection points: 3
#     Node 1, Type 0, BuildingBlock: KAKCAD_clean_linker_0, # of connection points: 3
#     Node 2, Type 0, BuildingBlock: KAKCAD_clean_linker_0, # of connection points: 3
#     Node 3, Type 0, BuildingBlock: KAKCAD_clean_linker_0, # of connection points: 3
#     Node 4, Type 0, BuildingBlock: KAKCAD_clean_linker_0, # of connection points: 3
#     Node 5, Type 0, BuildingBlock: KAKCAD_clean_linker_0, # of connection points: 3
#     Node 6, Type 0, BuildingBlock: KAKCAD_clean_linker_0, # of connection points: 3
#     Node 7, Type 0, BuildingBlock: KAKCAD_clean_linker_0, # of connection points: 3
#     Node 8, Type 1, BuildingBlock: BETFEN_clean_sbu_0, # of connection points: 6
#     Node 9, Type 1, BuildingBlock: BETFEN_clean_sbu_0, # of connection points: 6
#     Node 10, Type 1, BuildingBlock: BETFEN_clean_sbu_0, # of connection points: 6
#     Node 11, Type 1, BuildingBlock: BETFEN_clean_sbu_0, # of connection points: 6
#     Edge 12, Type (0, 1), BuildingBlock: KIFKEQ_clean_linker_1, # of connection points: 2
#     Edge 13, Type (0, 1), BuildingBlock: KIFKEQ_clean_linker_1, # of connection points: 2
#     Edge 14, Type (0, 1), BuildingBlock: KIFKEQ_clean_linker_1, # of connection points: 2
#     Edge 15, Type (0, 1), BuildingBlock: KIFKEQ_clean_linker_1, # of connection points: 2
#     Edge 16, Type (0, 1), BuildingBlock: KIFKEQ_clean_linker_1, # of connection points: 2
#     Edge 17, Type (0, 1), BuildingBlock: KIFKEQ_clean_linker_1, # of connection points: 2
#     Edge 18, Type (0, 1), BuildingBlock: KIFKEQ_clean_linker_1, # of connection points: 2
#     Edge 19, Type (0, 1), BuildingBlock: KIFKEQ_clean_linker_1, # of connection points: 2
#     Edge 20, Type (0, 1), BuildingBlock: KIFKEQ_clean_linker_1, # of connection points: 2
#     Edge 21, Type (0, 1), BuildingBlock: KIFKEQ_clean_linker_1, # of connection points: 2
#     Edge 22, Type (0, 1), BuildingBlock: KIFKEQ_clean_linker_1, # of connection points: 2
#     Edge 23, Type (0, 1), BuildingBlock: KIFKEQ_clean_linker_1, # of connection points: 2
#     Edge 24, Type (0, 1), BuildingBlock: KIFKEQ_clean_linker_1, # of connection points: 2
#     Edge 25, Type (0, 1), BuildingBlock: KIFKEQ_clean_linker_1, # of connection points: 2
#     Edge 26, Type (0, 1), BuildingBlock: KIFKEQ_clean_linker_1, # of connection points: 2
#     Edge 27, Type (0, 1), BuildingBlock: KIFKEQ_clean_linker_1, # of connection points: 2
#     Edge 28, Type (0, 1), BuildingBlock: KIFKEQ_clean_linker_1, # of connection points: 2
#     Edge 29, Type (0, 1), BuildingBlock: KIFKEQ_clean_linker_1, # of connection points: 2
#     Edge 30, Type (0, 1), BuildingBlock: KIFKEQ_clean_linker_1, # of connection points: 2
#     Edge 31, Type (0, 1), BuildingBlock: KIFKEQ_clean_linker_1, # of connection points: 2
#     Edge 32, Type (0, 1), BuildingBlock: KIFKEQ_clean_linker_1, # of connection points: 2
#     Edge 33, Type (0, 1), BuildingBlock: KIFKEQ_clean_linker_1, # of connection points: 2
#     Edge 34, Type (0, 1), BuildingBlock: KIFKEQ_clean_linker_1, # of connection points: 2
#     Edge 35, Type (0, 1), BuildingBlock: KIFKEQ_clean_linker_1, # of connection points: 2
# Relax obj value: 0.446
# Max RMSD: 0.270
# Mean RMSD: 0.253
data_MOF--net-zzz--node1-BETFEN_clean_sbu_0--node2-KAKCAD_clean_linker_0--edge1-KIFKEQ_clean_linker_1
_symmetry_space_group_name_H-M    P1
_symmetry_Int_Tables_number       1
_symmetry_cell_setting            triclinic
loop_
_symmetry_equiv_pos_as_xyz
'x, y, z'
_cell_length_a     60.795916
_cell_length_b     60.776564
_cell_length_c     18.531371
_cell_angle_alpha  90.037454
_cell_angle_beta   89.901766
_cell_angle_gamma 90.083064
loop_
_atom_site_label
_atom_site_type_symbol
_atom_site_fract_x
_atom_site_fract_y
_atom_site_fract_z
_atom_type_partial_charge
C0 C 0.76524 0.51999 0.14045 0.0
C1 C 0.78292 0.50532 0.13871 0.0
C2 C 0.75061 0.51941 0.19847 0.0
C3 C 0.75385 0.50435 0.25501 0.0
C4 C 0.77149 0.48958 0.25231 0.0
C5 C 0.78594 0.49009 0.19445 0.0
C6 C 0.73973 0.50491 0.31909 0.0
C7 C 0.71703 0.50552 0.31189 0.0
C8 C 0.70323 0.50821 0.37177 0.0
C9 C 0.71303 0.50893 0.44246 0.0
C10 C 0.73654 0.50723 0.44971 0.0
C11 C 0.74925 0.50574 0.38708 0.0
C12 C 0.75009 0.50702 0.5179 0.0
C13 C 0.75844 0.52695 0.5455 0.0
C14 C 0.76234 0.48785 0.53251 0.0
C15 C 0.78331 0.48885 0.56478 0.0
C16 C 0.79289 0.50909 0.58618 0.0
C17 C 0.67948 0.51216 0.35197 0.0
C18 C 0.67503 0.5306 0.30843 0.0
C19 C 0.66413 0.49475 0.34972 0.0
C20 C 0.64579 0.49533 0.30231 0.0
C21 C 0.64252 0.51301 0.25333 0.0
C22 C 0.6574 0.53086 0.25949 0.0
C23 C 0.77923 0.52792 0.57987 0.0
H24 H 0.76299 0.53197 0.09787 0.0
H25 H 0.73722 0.53115 0.20037 0.0
H26 H 0.77424 0.47785 0.29538 0.0
H27 H 0.7998 0.47888 0.19379 0.0
H28 H 0.71 0.50463 0.25812 0.0
H29 H 0.76707 0.50553 0.39132 0.0
H30 H 0.70279 0.51096 0.48983 0.0
H31 H 0.74986 0.54218 0.53448 0.0
H32 H 0.75691 0.47224 0.51054 0.0
H33 H 0.79246 0.47367 0.56734 0.0
H34 H 0.68682 0.54399 0.30618 0.0
H35 H 0.66716 0.47997 0.38073 0.0
H36 H 0.78489 0.54386 0.5979 0.0
H37 H 0.65666 0.54475 0.22337 0.0
H38 H 0.6348 0.48134 0.30237 0.0
C39 C 0.99605 0.76666 0.14033 0.0
C40 C 0.01225 0.78308 0.14114 0.0
C41 C 0.99379 0.75259 0.19938 0.0
C42 C 1.00746 0.75519 0.25979 0.0
C43 C 0.02348 0.77181 0.2604 0.0
C44 C 0.02586 0.78563 0.20147 0.0
C45 C 1.00527 0.74074 0.32276 0.0
C46 C 1.0047 0.71802 0.31432 0.0
C47 C 1.00439 0.70388 0.37398 0.0
C48 C 1.00503 0.71339 0.44515 0.0
C49 C 1.00532 0.73692 0.45335 0.0
C50 C 1.00511 0.74993 0.39138 0.0
C51 C 1.0062 0.75022 0.52198 0.0
C52 C 0.98676 0.76069 0.5453 0.0
C53 C 0.02624 0.76062 0.53975 0.0
C54 C 0.02674 0.78173 0.57187 0.0
C55 C 1.00717 0.79345 0.58725 0.0
C56 C 1.00374 0.67977 0.35448 0.0
C57 C 0.98518 0.67178 0.31676 0.0
C58 C 0.02353 0.66793 0.34658 0.0
C59 C 0.02511 0.64994 0.29821 0.0
C60 C 1.00689 0.64308 0.2567 0.0
C61 C 0.98669 0.65373 0.26908 0.0
C62 C 0.9872 0.78186 0.57706 0.0
H63 H 0.98534 0.76469 0.09413 0.0
H64 H 0.98123 0.73993 0.19834 0.0
H65 H 0.0343 0.774 0.30628 0.0
H66 H 0.0382 0.79851 0.20322 0.0
H67 H 1.00508 0.71118 0.26019 0.0
H68 H 1.00517 0.76774 0.39666 0.0
H69 H 1.00518 0.70287 0.49227 0.0
H70 H 0.97097 0.75366 0.53109 0.0
H71 H 0.0416 0.75352 0.52137 0.0
H72 H 0.04263 0.78926 0.58087 0.0
H73 H 0.96989 0.6809 0.31875 0.0
H74 H 0.03834 0.67384 0.37267 0.0
H75 H 0.9716 0.78973 0.58783 0.0
H76 H 0.97238 0.6492 0.23762 0.0
H77 H 0.04092 0.64208 0.29052 0.0
C78 C 0.75074 0.99434 0.15187 0.0
C79 C 0.73576 0.01178 0.14858 0.0
C80 C 0.76696 0.99439 0.20503 0.0
C81 C 0.76804 0.01185 0.25447 0.0
C82 C 0.75391 0.02986 0.24796 0.0
C83 C 0.73785 0.02983 0.19518 0.0
C84 C 0.78175 1.01017 0.31855 0.0
C85 C 0.80438 1.00853 0.31248 0.0
C86 C 0.8177 1.00679 0.37369 0.0
C87 C 0.80741 1.00691 0.4438 0.0
C88 C 0.78386 1.0087 0.44933 0.0
C89 C 0.77169 1.01017 0.3858 0.0
C90 C 0.76979 1.00914 0.5165 0.0
C91 C 0.76096 0.98927 0.54311 0.0
C92 C 0.75771 0.02848 0.53075 0.0
C93 C 0.73662 0.02774 0.5626 0.0
C94 C 0.72672 1.00761 0.5832 0.0
C95 C 0.84181 1.00445 0.35642 0.0
C96 C 0.84836 0.98568 0.31722 0.0
C97 C 0.85515 0.02333 0.35028 0.0
C98 C 0.87336 0.02388 0.30249 0.0
C99 C 0.87859 1.00572 0.25757 0.0
C100 C 0.86612 0.98634 0.26839 0.0
C101 C 0.73998 0.98854 0.57645 0.0
H102 H 0.74917 0.98032 0.11611 0.0
H103 H 0.77777 0.98032 0.21025 0.0
H104 H 0.75467 0.04344 0.28584 0.0
H105 H 0.72641 0.04347 0.19259 0.0
H106 H 0.81171 1.00868 0.25899 0.0
H107 H 0.75386 0.01118 0.38854 0.0
H108 H 0.81732 1.00557 0.49205 0.0
H109 H 0.76934 0.97393 0.53195 0.0
H110 H 0.76345 0.04403 0.50916 0.0
H111 H 0.72753 0.04299 0.5655 0.0
H112 H 0.83811 0.97108 0.31815 0.0
H113 H 0.85041 0.03833 0.37777 0.0
H114 H 0.73381 0.97269 0.59352 0.0
H115 H 0.86886 0.97192 0.23543 0.0
H116 H 0.88265 0.03902 0.29866 0.0
C117 C 0.49395 0.73948 0.5886 0.0
C118 C 0.51315 0.72633 0.58261 0.0
C119 C 0.49249 0.76045 0.55563 0.0
C120 C 0.51031 0.76958 0.51709 0.0
C121 C 0.53016 0.75766 0.51802 0.0
C122 C 0.53153 0.73651 0.54928 0.0
C123 C 0.50582 0.78391 0.45229 0.0
C124 C 0.50955 0.80717 0.44502 0.0
C125 C 0.50727 0.81744 0.3755 0.0
C126 C 0.50277 0.80412 0.31571 0.0
C127 C 0.50039 0.78146 0.32246 0.0
C128 C 0.50025 0.7719 0.39074 0.0
C129 C 0.50153 0.76731 0.25801 0.0
C130 C 0.49081 0.77305 0.19371 0.0
C131 C 0.51449 0.74822 0.26003 0.0
C132 C 0.51554 0.73436 0.20075 0.0
C133 C 0.50401 0.73949 0.13738 0.0
C134 C 0.5116 0.84116 0.35635 0.0
C135 C 0.49394 0.85614 0.35258 0.0
C136 C 0.53025 0.84584 0.31374 0.0
C137 C 0.53055 0.86354 0.26471 0.0
C138 C 0.51232 0.87777 0.25688 0.0
C139 C 0.49437 0.87423 0.30433 0.0
C140 C 0.49218 0.75931 0.1336 0.0
H141 H 0.47946 0.73334 0.61574 0.0
H142 H 0.47669 0.76867 0.55485 0.0
H143 H 0.54407 0.76361 0.487 0.0
H144 H 0.5468 0.72774 0.54202 0.0
H145 H 0.51451 0.81683 0.49133 0.0
H146 H 0.49761 0.75428 0.39533 0.0
H147 H 0.50268 0.81141 0.26227 0.0
H148 H 0.48094 0.78783 0.19037 0.0
H149 H 0.52367 0.74375 0.3079 0.0
H150 H 0.52455 0.7191 0.20618 0.0
H151 H 0.479 0.85285 0.38263 0.0
H152 H 0.5438 0.83427 0.31249 0.0
H153 H 0.48338 0.7638 0.08506 0.0
H154 H 0.48013 0.88486 0.30226 0.0
H155 H 0.54464 0.86495 0.22933 0.0
C156 C 0.25889 0.52256 0.27877 0.0
C157 C 0.23875 0.51124 0.27847 0.0
C158 C 0.27339 0.52042 0.22112 0.0
C159 C 0.26818 0.50661 0.16278 0.0
C160 C 0.24885 0.49399 0.16515 0.0
C161 C 0.23416 0.49643 0.22215 0.0
C162 C 0.28166 0.50724 0.09668 0.0
C163 C 0.30443 0.50889 0.1012 0.0
C164 C 0.31743 0.51268 0.04015 0.0
C165 C 0.30693 0.51353 0.97072 0.0
C166 C 0.28347 0.51089 0.96581 0.0
C167 C 0.27145 0.50818 0.02951 0.0
C168 C 0.26937 0.51112 0.8989 0.0
C169 C 0.25785 0.53052 0.88138 0.0
C170 C 0.25998 0.49107 0.87588 0.0
C171 C 0.239 0.49028 0.84325 0.0
C172 C 0.22637 0.50954 0.83257 0.0
C173 C 0.34139 0.51639 0.0572 0.0
C174 C 0.34701 0.53528 0.09766 0.0
C175 C 0.35565 0.49821 0.06212 0.0
C176 C 0.3737 0.49824 0.11027 0.0
C177 C 0.37802 0.51638 0.1561 0.0
C178 C 0.36487 0.53527 0.14625 0.0
C179 C 0.23682 0.52977 0.84881 0.0
H180 H 0.263 0.53382 0.32201 0.0
H181 H 0.28809 0.53052 0.22057 0.0
H182 H 0.24462 0.48294 0.12139 0.0
H183 H 0.21867 0.48764 0.21981 0.0
H184 H 0.3122 0.50781 0.15379 0.0
H185 H 0.25364 0.50739 0.02661 0.0
H186 H 0.3166 0.51632 0.9225 0.0
H187 H 0.26405 0.54625 0.89997 0.0
H188 H 0.26789 0.4757 0.88994 0.0
H189 H 0.2323 0.4743 0.82982 0.0
H190 H 0.33607 0.54934 0.09769 0.0
H191 H 0.35167 0.48315 0.03367 0.0
H192 H 0.22813 0.54514 0.84194 0.0
H193 H 0.3672 0.54961 0.18007 0.0
H194 H 0.38362 0.48352 0.11401 0.0
C195 C 1.00275 0.26016 0.28235 0.0
C196 C 0.01482 0.24056 0.28298 0.0
C197 C 1.00549 0.27506 0.22632 0.0
C198 C 0.02041 0.27053 0.17036 0.0
C199 C 0.03412 0.25201 0.17512 0.0
C200 C 0.03131 0.23704 0.23127 0.0
C201 C 0.01914 0.2833 0.10308 0.0
C202 C 0.01635 0.30597 0.10562 0.0
C203 C 0.01167 0.31815 0.04363 0.0
C204 C 0.01084 0.30693 0.9753 0.0
C205 C 0.01451 0.28358 0.97234 0.0
C206 C 0.01816 0.27236 0.0371 0.0
C207 C 0.01515 0.26897 0.90634 0.0
C208 C 0.99565 0.25979 0.87838 0.0
C209 C 0.03485 0.25752 0.89218 0.0
C210 C 0.03487 0.23664 0.85905 0.0
C211 C 0.01517 0.2263 0.83641 0.0
C212 C 1.00784 0.34222 0.05843 0.0
C213 C 0.9887 0.34824 0.09709 0.0
C214 C 0.02622 0.35623 0.06462 0.0
C215 C 0.0262 0.37424 0.1129 0.0
C216 C 1.00774 0.37898 0.1566 0.0
C217 C 0.98861 0.36632 0.14508 0.0
C218 C 0.9957 0.23907 0.84308 0.0
H219 H 0.99001 0.26311 0.32213 0.0
H220 H 0.99461 0.28913 0.22386 0.0
H221 H 0.04597 0.2484 0.13303 0.0
H222 H 0.0407 0.2219 0.2308 0.0
H223 H 0.01732 0.31426 0.15744 0.0
H224 H 0.01973 0.25457 0.03614 0.0
H225 H 1.00757 0.31604 0.92632 0.0
H226 H 0.98005 0.26775 0.88904 0.0
H227 H 0.05017 0.26362 0.9144 0.0
H228 H 0.05043 0.22815 0.85654 0.0
H229 H 0.97448 0.33746 0.0963 0.0
H230 H 0.04146 0.35191 0.03782 0.0
H231 H 0.9801 0.23275 0.82433 0.0
H232 H 0.97408 0.36919 0.17762 0.0
H233 H 0.04117 0.38373 0.119 0.0
C234 C 0.26031 1.00365 0.28038 0.0
C235 C 0.28041 0.01494 0.28153 0.0
C236 C 0.24585 1.00662 0.22319 0.0
C237 C 0.25124 0.02103 0.16652 0.0
C238 C 0.27058 0.03356 0.17054 0.0
C239 C 0.28512 0.03048 0.2275 0.0
C240 C 0.23815 0.02068 0.09976 0.0
C241 C 0.21538 0.019 0.10341 0.0
C242 C 0.20279 0.01402 0.04251 0.0
C243 C 0.21365 0.01241 0.97372 0.0
C244 C 0.23703 0.01569 0.96923 0.0
C245 C 0.24871 0.01927 0.03313 0.0
C246 C 0.25133 0.01529 0.90259 0.0
C247 C 0.26064 0.99533 0.87897 0.0
C248 C 0.26265 0.03478 0.88431 0.0
C249 C 0.28356 0.0343 0.85127 0.0
C250 C 0.294 0.01423 0.83356 0.0
C251 C 0.17907 1.0091 0.05975 0.0
C252 C 0.17464 0.99023 0.10163 0.0
C253 C 0.16372 0.02641 0.06368 0.0
C254 C 0.14561 0.02554 0.11179 0.0
C255 C 0.14243 1.00752 0.15921 0.0
C256 C 0.15693 0.98953 0.15074 0.0
C257 C 0.28143 0.99482 0.8443 0.0
H258 H 0.2563 0.99171 0.32174 0.0
H259 H 0.23114 0.99655 0.22117 0.0
H260 H 0.27499 0.04494 0.12789 0.0
H261 H 0.30066 0.03922 0.22665 0.0
H262 H 0.20738 0.02044 0.15562 0.0
H263 H 0.26653 0.0202 0.03101 0.0
H264 H 0.20429 1.00863 0.92565 0.0
H265 H 0.2528 0.9799 0.89308 0.0
H266 H 0.25645 0.05047 0.90327 0.0
H267 H 0.29208 0.0498 0.84516 0.0
H268 H 0.18646 0.9769 0.10257 0.0
H269 H 0.16677 0.04148 0.03411 0.0
H270 H 0.28802 0.97893 0.82942 0.0
H271 H 0.15577 0.97534 0.18571 0.0
H272 H 0.13472 0.03958 0.1139 0.0
C273 C 0.49436 0.27865 0.82373 0.0
C274 C 0.5126 0.29303 0.83002 0.0
C275 C 0.49425 0.25767 0.85678 0.0
C276 C 0.51247 0.25001 0.89646 0.0
C277 C 0.53155 0.26325 0.89541 0.0
C278 C 0.53159 0.28434 0.86352 0.0
C279 C 0.50841 0.23631 0.9629 0.0
C280 C 0.51338 0.21345 0.97384 0.0
C281 C 0.5116 0.20411 0.04493 0.0
C282 C 0.5063 0.21806 0.10264 0.0
C283 C 0.50237 0.24036 0.09178 0.0
C284 C 0.50178 0.24881 0.02215 0.0
C285 C 0.50406 0.2558 0.1525 0.0
C286 C 0.49237 0.25256 0.21703 0.0
C287 C 0.51921 0.27318 0.14711 0.0
C288 C 0.52285 0.28697 0.20529 0.0
C289 C 0.51142 0.28368 0.26994 0.0
C290 C 0.51601 0.18058 0.06624 0.0
C291 C 0.49847 0.16541 0.06734 0.0
C292 C 0.53434 0.1759 0.11045 0.0
C293 C 0.53444 0.15766 0.1577 0.0
C294 C 0.51607 0.14358 0.16326 0.0
C295 C 0.49847 0.14728 0.11508 0.0
C296 C 0.49588 0.26668 0.27553 0.0
H297 H 0.47957 0.28396 0.7965 0.0
H298 H 0.47904 0.24837 0.85749 0.0
H299 H 0.54568 0.25844 0.92726 0.0
H300 H 0.5461 0.29442 0.87065 0.0
H301 H 0.51884 0.2034 0.92903 0.0
H302 H 0.49842 0.26624 0.01506 0.0
H303 H 0.50656 0.21171 0.15737 0.0
H304 H 0.48073 0.23915 0.22215 0.0
H305 H 0.52876 0.27577 0.09838 0.0
H306 H 0.53468 0.30023 0.19988 0.0
H307 H 0.48382 0.16869 0.036 0.0
H308 H 0.5478 0.18757 0.1134 0.0
H309 H 0.48684 0.26413 0.32526 0.0
H310 H 0.48411 0.13673 0.11685 0.0
H311 H 0.54824 0.15562 0.19397 0.0
Pr312 Pr 0.03044 1.00696 0.76061 0.0
Pr313 Pr 0.98998 0.01366 0.65533 0.0
C314 C 0.05223 0.99234 0.87559 0.0
C315 C 0.0504 0.96978 0.90425 0.0
C316 C 0.06813 0.95518 0.89652 0.0
C317 C 0.06499 0.93259 0.9059 0.0
C318 C 0.04406 0.92427 0.92303 0.0
C319 C 0.02659 0.93894 0.93399 0.0
C320 C 0.02975 0.96145 0.92499 0.0
C321 C 0.0476 0.01105 0.61936 0.0
C322 C 1.00558 0.96201 0.68381 0.0
C323 C 0.96794 0.02864 0.54178 0.0
C324 C 0.96968 0.05144 0.5165 0.0
C325 C 0.95065 0.06394 0.50482 0.0
C326 C 0.95229 0.0866 0.49324 0.0
C327 C 0.97294 0.09696 0.4944 0.0
C328 C 0.99191 0.0845 0.50672 0.0
C329 C 0.9903 0.06195 0.51754 0.0
C330 C 0.97295 1.00987 0.79666 0.0
C331 C 0.01483 0.05873 0.7317 0.0
O332 O 0.03479 1.00488 0.88182 0.0
O333 O 0.06136 0.9936 0.81185 0.0
O334 O 0.02738 0.01195 0.63735 0.0
O335 O 0.05956 1.00882 0.67678 0.0
O336 O 0.99262 0.97495 0.64498 0.0
O337 O 0.01966 0.97014 0.73168 0.0
O338 O 0.98561 0.0165 0.53437 0.0
O339 O 0.95874 0.02668 0.60516 0.0
O340 O 0.99312 1.00889 0.77836 0.0
O341 O 0.96089 0.01202 0.73945 0.0
O342 O 0.02802 0.0458 0.76985 0.0
O343 O 1.00064 0.0504 0.68456 0.0
H344 H 0.08412 0.96112 0.87948 0.0
H345 H 0.07875 0.92157 0.89729 0.0
H346 H 0.0104 0.93299 0.94896 0.0
H347 H 0.01575 0.9722 0.93125 0.0
H348 H 0.93456 0.05628 0.50653 0.0
H349 H 0.93748 0.09607 0.484 0.0
H350 H 1.00801 0.09218 0.507 0.0
H351 H 1.00519 0.05286 0.52892 0.0
Pr352 Pr 0.51298 0.03042 0.75921 0.0
Pr353 Pr 0.50705 0.98979 0.65792 0.0
C354 C 0.52811 0.05335 0.87093 0.0
C355 C 0.55072 0.05123 0.8974 0.0
C356 C 0.56407 0.06996 0.90381 0.0
C357 C 0.58678 0.06773 0.91264 0.0
C358 C 0.59638 0.04671 0.91472 0.0
C359 C 0.58292 0.02803 0.90932 0.0
C360 C 0.56036 0.03025 0.90061 0.0
C361 C 0.50818 0.04769 0.6191 0.0
C362 C 0.55848 1.00588 0.68358 0.0
C363 C 0.49209 0.96649 0.54631 0.0
C364 C 0.47019 0.96959 0.51508 0.0
C365 C 0.45725 0.95146 0.49504 0.0
C366 C 0.43505 0.95442 0.47749 0.0
C367 C 0.4257 0.97553 0.48009 0.0
C368 C 0.43865 0.99352 0.50112 0.0
C369 C 0.46066 0.9906 0.51824 0.0
C370 C 0.5115 0.97317 0.79931 0.0
C371 C 0.46177 0.01429 0.73384 0.0
O372 O 0.51528 0.0362 0.87981 0.0
O373 O 0.52686 0.06177 0.80631 0.0
O374 O 0.50782 0.02723 0.63497 0.0
O375 O 0.50904 0.0594 0.67749 0.0
O376 O 0.54562 0.99258 0.64569 0.0
O377 O 0.54998 0.02009 0.7305 0.0
O378 O 0.50597 0.98282 0.53782 0.0
O379 O 0.49164 0.95894 0.61219 0.0
O380 O 0.51191 0.99333 0.78099 0.0
O381 O 0.51094 0.96092 0.74207 0.0
O382 O 0.47453 0.02745 0.77231 0.0
O383 O 0.47009 1.00019 0.68642 0.0
H384 H 0.55705 0.08627 0.89909 0.0
H385 H 0.59686 0.08239 0.91665 0.0
H386 H 0.58981 0.01162 0.91224 0.0
H387 H 0.5506 0.01547 0.89362 0.0
H388 H 0.46416 0.93504 0.4947 0.0
H389 H 0.42527 0.94033 0.46149 0.0
H390 H 0.43165 1.00987 0.50507 0.0
H391 H 0.47004 1.00474 0.53624 0.0
Pr392 Pr 0.48908 0.51257 0.75733 0.0
Pr393 Pr 0.5302 0.50722 0.65466 0.0
C394 C 0.46561 0.52666 0.86976 0.0
C395 C 0.46825 0.54849 0.90255 0.0
C396 C 0.44983 0.5619 0.91489 0.0
C397 C 0.45263 0.58416 0.9321 0.0
C398 C 0.47387 0.59306 0.93747 0.0
C399 C 0.49221 0.57963 0.92547 0.0
C400 C 0.48945 0.55759 0.90785 0.0
C401 C 0.47314 0.50832 0.61484 0.0
C402 C 0.51377 0.55842 0.68398 0.0
C403 C 0.5523 0.49246 0.54036 0.0
C404 C 0.55064 0.46982 0.51242 0.0
C405 C 0.56902 0.4559 0.51572 0.0
C406 C 0.56659 0.43324 0.50597 0.0
C407 C 0.54571 0.42416 0.49284 0.0
C408 C 0.52747 0.43816 0.48701 0.0
C409 C 0.52988 0.46075 0.49675 0.0
C410 C 0.54695 0.5118 0.79552 0.0
C411 C 0.50636 0.46142 0.73025 0.0
O412 O 0.4821 0.51297 0.87752 0.0
O413 O 0.45803 0.52725 0.80394 0.0
O414 O 0.4931 0.50798 0.63497 0.0
O415 O 0.46051 0.50983 0.67103 0.0
O416 O 0.52684 0.54578 0.64438 0.0
O417 O 0.49986 0.54971 0.73161 0.0
O418 O 0.53481 0.50488 0.53356 0.0
O419 O 0.56132 0.49394 0.60413 0.0
O420 O 0.52658 0.51199 0.77862 0.0
O421 O 0.55894 0.51125 0.73753 0.0
O422 O 0.49203 0.47382 0.76584 0.0
O423 O 0.52106 0.47021 0.68566 0.0
H424 H 0.43336 0.55535 0.90873 0.0
H425 H 0.43831 0.59439 0.94116 0.0
H426 H 0.50871 0.58635 0.92824 0.0
H427 H 0.50394 0.54791 0.8957 0.0
H428 H 0.58507 0.46244 0.52938 0.0
H429 H 0.58089 0.42275 0.51089 0.0
H430 H 0.51127 0.43162 0.47545 0.0
H431 H 0.51527 0.47091 0.49504 0.0
Pr432 Pr 1.00721 0.4913 0.75701 0.0
Pr433 Pr 0.01252 0.53058 0.65523 0.0
C434 C 0.9928 0.46769 0.86887 0.0
C435 C 0.97044 0.46897 0.8984 0.0
C436 C 0.95812 0.4497 0.9096 0.0
C437 C 0.93563 0.45103 0.92501 0.0
C438 C 0.92539 0.47163 0.92857 0.0
C439 C 0.93762 0.49083 0.91738 0.0
C440 C 0.95996 0.48954 0.90224 0.0
C441 C 0.0126 0.47291 0.6182 0.0
C442 C 0.96121 0.51446 0.6831 0.0
C443 C 0.02659 0.55303 0.54059 0.0
C444 C 0.04888 0.55126 0.51022 0.0
C445 C 0.06277 0.56973 0.51106 0.0
C446 C 0.08535 0.56731 0.49983 0.0
C447 C 0.09435 0.54637 0.48758 0.0
C448 C 0.08038 0.52802 0.4843 0.0
C449 C 0.05787 0.53041 0.49558 0.0
C450 C 1.00844 0.54934 0.79388 0.0
C451 C 0.05844 0.50759 0.7308 0.0
O452 O 1.00527 0.4851 0.87748 0.0
O453 O 0.99362 0.45974 0.80357 0.0
O454 O 0.01255 0.4934 0.63265 0.0
O455 O 0.01199 0.46165 0.67744 0.0
O456 O 0.97386 0.52776 0.64455 0.0
O457 O 0.97 0.50054 0.72993 0.0
O458 O 0.01381 0.53577 0.53411 0.0
O459 O 0.02601 0.56165 0.60508 0.0
O460 O 1.00801 0.5287 0.78067 0.0
O461 O 1.00937 0.56034 0.73412 0.0
O462 O 0.04559 0.49492 0.77092 0.0
O463 O 0.04986 0.52089 0.6815 0.0
H464 H 0.96578 0.43368 0.90449 0.0
H465 H 0.92625 0.4361 0.93397 0.0
H466 H 0.92983 0.50684 0.92029 0.0
H467 H 0.96886 0.50464 0.89138 0.0
H468 H 0.05631 0.58586 0.52417 0.0
H469 H 0.09585 0.58169 0.50301 0.0
H470 H 0.08689 0.51174 0.47371 0.0
H471 H 0.04771 0.51575 0.49608 0.0
H472 H 0.12132 0.97252 0.22853 0.0
H473 H 0.12413 0.04357 0.23146 0.0
H474 H 0.09707 0.97314 0.33264 0.0
H475 H 0.09912 0.04402 0.33431 0.0
H476 H 0.04126 0.03784 0.49868 0.0
H477 H 0.06212 0.03719 0.38445 0.0
H478 H 0.09812 0.98055 0.45971 0.0
H479 H 0.07754 0.98145 0.57256 0.0
C480 C 0.11697 0.98838 0.25083 0.0
C481 C 0.12537 1.00798 0.22012 0.0
C482 C 0.10278 0.9887 0.31119 0.0
C483 C 0.09599 1.00863 0.34337 0.0
C484 C 0.10364 0.02828 0.31136 0.0
C485 C 0.1181 0.02796 0.25142 0.0
C486 C 0.05326 0.02498 0.48996 0.0
C487 C 0.0574 1.00949 0.54476 0.0
C488 C 0.06551 0.02474 0.42466 0.0
C489 C 0.082 1.00875 0.41166 0.0
C490 C 0.08553 0.99298 0.46619 0.0
C491 C 0.07366 0.9935 0.53146 0.0
H492 H 0.54677 0.11292 0.21132 0.0
H493 H 0.48124 0.13645 0.25461 0.0
H494 H 0.54395 0.08773 0.3149 0.0
H495 H 0.4784 0.11158 0.35738 0.0
H496 H 0.49153 0.08775 0.58807 0.0
H497 H 0.49331 0.10875 0.4769 0.0
H498 H 0.52573 0.05444 0.37125 0.0
H499 H 0.52377 0.03307 0.48462 0.0
C500 C 0.5317 0.11267 0.24253 0.0
C501 C 0.51421 0.12684 0.22378 0.0
C502 C 0.53001 0.09806 0.30192 0.0
C503 C 0.51096 0.09748 0.34574 0.0
C504 C 0.49346 0.11149 0.32609 0.0
C505 C 0.495 0.12573 0.26628 0.0
C506 C 0.49873 0.07999 0.54099 0.0
C507 C 0.50718 0.05846 0.54576 0.0
C508 C 0.49973 0.09215 0.47659 0.0
C509 C 0.50956 0.08351 0.41381 0.0
C510 C 0.51804 0.06183 0.41809 0.0
C511 C 0.51668 0.04939 0.48295 0.0
H512 H 0.40434 0.54939 0.21525 0.0
H513 H 0.38978 0.48034 0.23905 0.0
H514 H 0.4293 0.54751 0.31675 0.0
H515 H 0.41397 0.4784 0.342 0.0
H516 H 0.46448 0.47454 0.52006 0.0
H517 H 0.44411 0.4762 0.40702 0.0
H518 H 0.43855 0.54685 0.43138 0.0
H519 H 0.45988 0.54477 0.54177 0.0
C520 C 0.40629 0.53372 0.24221 0.0
C521 C 0.39473 0.51503 0.21736 0.0
C522 C 0.42075 0.53259 0.30182 0.0
C523 C 0.42416 0.51276 0.3405 0.0
C524 C 0.41267 0.49405 0.31478 0.0
C525 C 0.39847 0.49514 0.25462 0.0
C526 C 0.45947 0.49046 0.49965 0.0
C527 C 0.4644 0.50956 0.53921 0.0
C528 C 0.44721 0.4915 0.43488 0.0
C529 C 0.43895 0.51171 0.40769 0.0
C530 C 0.44448 0.53085 0.44753 0.0
C531 C 0.45687 0.52975 0.51179 0.0
H532 H 0.97746 0.41049 0.2023 0.0
H533 H 0.04131 0.3842 0.25418 0.0
H534 H 0.97955 0.43486 0.30807 0.0
H535 H 0.04344 0.40836 0.35893 0.0
H536 H 0.02786 0.43203 0.58869 0.0
H537 H 0.02697 0.41138 0.47646 0.0
H538 H 0.99805 0.4671 0.36836 0.0
H539 H 0.99915 0.48809 0.48254 0.0
C540 C 0.99202 0.40995 0.23583 0.0
C541 C 1.00925 0.39525 0.21873 0.0
C542 C 0.99329 0.4241 0.29652 0.0
C543 C 0.01164 0.42372 0.34323 0.0
C544 C 0.02891 0.40918 0.32537 0.0
C545 C 0.02778 0.39536 0.26436 0.0
C546 C 0.02156 0.44012 0.54095 0.0
C547 C 0.01381 0.46192 0.54521 0.0
C548 C 0.0211 0.42818 0.47595 0.0
C549 C 0.01251 0.43736 0.41213 0.0
C550 C 1.00474 0.4593 0.416 0.0
C551 C 1.00558 0.47148 0.48141 0.0
H552 H 0.90295 0.97228 0.1912 0.0
H553 H 0.89356 0.0427 0.1823 0.0
H554 H 0.92659 0.97423 0.08621 0.0
H555 H 0.91878 0.04477 0.08109 0.0
H556 H 0.94295 0.03918 0.84612 0.0
H557 H 0.92244 0.039 0.95895 0.0
H558 H 0.95964 0.98245 0.02965 0.0
H559 H 0.97962 0.9825 0.91447 0.0
C560 C 0.90585 0.98831 0.16772 0.0
C561 C 0.89559 1.00726 0.19669 0.0
C562 C 0.91998 0.98946 0.10728 0.0
C563 C 0.92489 1.00965 0.07328 0.0
C564 C 0.91532 0.02872 0.10372 0.0
C565 C 0.90094 0.02755 0.16359 0.0
C566 C 0.94701 0.02689 0.88629 0.0
C567 C 0.96333 0.0111 0.87141 0.0
C568 C 0.93522 0.02682 0.9518 0.0
C569 C 0.93902 0.01068 1.00515 0.0
C570 C 0.9558 0.9951 0.99061 0.0
C571 C 0.96774 0.99532 0.92487 0.0
H572 H 0.47629 0.89516 0.18224 0.0
H573 H 0.54708 0.90028 0.1925 0.0
H574 H 0.4761 0.92025 0.07932 0.0
H575 H 0.5468 0.92471 0.08924 0.0
H576 H 0.54193 0.94466 0.85049 0.0
H577 H 0.54155 0.92372 0.96263 0.0
H578 H 0.48203 0.95696 0.02778 0.0
H579 H 0.48272 0.97815 0.91436 0.0
C580 C 0.49186 0.9017 0.16371 0.0
C581 C 0.51176 0.895 0.19674 0.0
C582 C 0.49172 0.9162 0.10386 0.0
C583 C 0.51147 0.92449 0.07404 0.0
C584 C 0.53121 0.9184 0.10856 0.0
C585 C 0.53135 0.90413 0.1685 0.0
C586 C 0.52908 0.94795 0.88957 0.0
C587 C 0.51279 0.96363 0.87403 0.0
C588 C 0.52879 0.93585 0.95433 0.0
C589 C 0.51186 0.93851 1.00587 0.0
C590 C 0.49542 0.95429 0.99019 0.0
C591 C 0.49597 0.96676 0.9255 0.0
H592 H 0.61837 0.47734 0.19536 0.0
H593 H 0.62518 0.54792 0.17241 0.0
H594 H 0.59294 0.47708 0.09335 0.0
H595 H 0.60145 0.54696 0.06858 0.0
H596 H 0.58546 0.5313 0.82966 0.0
H597 H 0.6059 0.53076 0.9424 0.0
H598 H 0.55415 0.49289 0.0422 0.0
H599 H 0.53313 0.4939 0.92779 0.0
C600 C 0.61465 0.49288 0.1699 0.0
C601 C 0.62495 0.5126 0.19361 0.0
C602 C 0.59993 0.49263 0.1105 0.0
C603 C 0.59525 0.51196 0.07134 0.0
C604 C 0.60485 0.53162 0.09612 0.0
C605 C 0.61897 0.53202 0.15622 0.0
C606 C 0.5781 0.52317 0.87579 0.0
C607 C 0.55731 0.51309 0.86938 0.0
C608 C 0.58995 0.5228 0.94081 0.0
C609 C 0.58181 0.51189 1.00229 0.0
C610 C 0.56103 0.50151 0.99626 0.0
C611 C 0.54881 0.50232 0.93089 0.0
H612 H 0.98492 0.60368 0.23359 0.0
H613 H 0.03391 0.64593 0.13867 0.0
H614 H 0.98651 0.57952 0.12722 0.0
H615 H 0.03554 0.62211 0.03254 0.0
H616 H 0.01358 0.59303 0.81788 0.0
H617 H 0.01454 0.61347 0.92986 0.0
H618 H 1.00583 0.55317 0.04947 0.0
H619 H 1.00461 0.5324 0.93495 0.0
C620 C 0.99618 0.60772 0.19024 0.0
C621 C 1.00929 0.62684 0.19512 0.0
C622 C 0.99719 0.59377 0.12905 0.0
C623 C 0.01095 0.59874 0.06966 0.0
C624 C 0.02442 0.61765 0.07581 0.0
C625 C 0.02368 0.63132 0.13737 0.0
C626 C 0.01184 0.58391 0.86776 0.0
C627 C 1.00889 0.56088 0.86634 0.0
C628 C 0.01262 0.59578 0.93282 0.0
C629 C 0.01044 0.58525 1.00017 0.0
C630 C 1.00743 0.5621 0.99921 0.0
C631 C 1.00679 0.55007 0.93335 0.0
H632 H 0.03888 0.215 0.37473 0.0
H633 H 0.97372 0.22444 0.28789 0.0
H634 H 0.02619 0.18171 0.43675 0.0
H635 H 0.96086 0.19182 0.35079 0.0
H636 H 0.95807 0.11679 0.37441 0.0
H637 H 0.96713 0.15351 0.3319 0.0
H638 H 1.00223 0.16644 0.5304 0.0
H639 H 0.99384 0.12903 0.57137 0.0
C640 C 0.02178 0.21013 0.37035 0.0
C641 C 1.00717 0.22221 0.32765 0.0
C642 C 0.01446 0.19127 0.40602 0.0
C643 C 0.99252 0.18421 0.39849 0.0
C644 C 0.97786 0.19678 0.35724 0.0
C645 C 0.98514 0.21556 0.32196 0.0
C646 C 0.96724 0.12771 0.40953 0.0
C647 C 0.9752 0.12032 0.476 0.0
C648 C 0.97243 0.14873 0.38539 0.0
C649 C 0.98539 0.16283 0.42794 0.0
C650 C 0.99248 0.15577 0.49619 0.0
C651 C 0.98754 0.13455 0.51987 0.0
H652 H 0.29269 0.97335 0.31708 0.0
H653 H 0.30766 0.04176 0.35801 0.0
H654 H 0.32657 0.96254 0.37759 0.0
H655 H 0.34155 0.03091 0.41849 0.0
H656 H 0.41164 1.00596 0.38557 0.0
H657 H 0.37402 0.01491 0.35351 0.0
H658 H 0.35023 0.96299 0.49253 0.0
H659 H 0.3884 0.95391 0.52495 0.0
C660 C 0.30282 0.98601 0.34138 0.0
C661 C 0.29778 1.00842 0.33235 0.0
C662 C 0.3222 0.9798 0.37586 0.0
C663 C 0.33672 0.99593 0.40145 0.0
C664 C 0.3307 0.01821 0.39799 0.0
C665 C 0.31138 0.02442 0.36356 0.0
C666 C 0.39838 0.99652 0.4096 0.0
C667 C 0.40279 0.97943 0.45812 0.0
C668 C 0.37688 1.00173 0.3917 0.0
C669 C 0.3593 0.98998 0.42206 0.0
C670 C 0.3636 0.97236 0.46902 0.0
C671 C 0.38531 0.96712 0.48712 0.0
H672 H 0.55007 0.28965 0.33855 0.0
H673 H 0.48287 0.31214 0.33138 0.0
H674 H 0.5599 0.32082 0.41533 0.0
H675 H 0.49263 0.34373 0.40621 0.0
H676 H 0.51403 0.39762 0.5513 0.0
H677 H 0.5062 0.35937 0.51936 0.0
H678 H 0.56308 0.35895 0.379 0.0
H679 H 0.57093 0.39689 0.4113 0.0
C680 C 0.53732 0.30099 0.35556 0.0
C681 C 0.51576 0.29871 0.32989 0.0
C682 C 0.54293 0.31885 0.39882 0.0
C683 C 0.52709 0.33481 0.4161 0.0
C684 C 0.50513 0.33154 0.39468 0.0
C685 C 0.49949 0.31352 0.35191 0.0
C686 C 0.52497 0.38918 0.51433 0.0
C687 C 0.54288 0.40024 0.48272 0.0
C688 C 0.52053 0.36734 0.49628 0.0
C689 C 0.53392 0.35625 0.44637 0.0
C690 C 0.55262 0.36693 0.41846 0.0
C691 C 0.55709 0.3887 0.43666 0.0
H692 H 0.20961 0.48334 0.34387 0.0
H693 H 0.22849 0.55186 0.33092 0.0
H694 H 0.17674 0.49361 0.41047 0.0
H695 H 0.19654 0.56194 0.40209 0.0
H696 H 0.12093 0.57093 0.40166 0.0
H697 H 0.15885 0.56342 0.36899 0.0
H698 H 0.1597 0.50826 0.51642 0.0
H699 H 0.12129 0.51538 0.54689 0.0
C700 C 0.20701 0.50052 0.35685 0.0
C701 C 0.22148 0.51678 0.33144 0.0
C702 C 0.18835 0.5064 0.39593 0.0
C703 C 0.18396 0.52864 0.41104 0.0
C704 C 0.19931 0.54471 0.39031 0.0
C705 C 0.21781 0.53887 0.35039 0.0
C706 C 0.12937 0.5575 0.42816 0.0
C707 C 0.11819 0.54361 0.47614 0.0
C708 C 0.15116 0.55324 0.40984 0.0
C709 C 0.16225 0.53515 0.4399 0.0
C710 C 0.15145 0.52208 0.49144 0.0
C711 C 0.12953 0.52617 0.50901 0.0
H712 H 0.9825 0.8126 0.0927 0.0
H713 H 0.04833 0.78835 0.05829 0.0
H714 H 0.9906 0.84449 0.01694 0.0
H715 H 0.0564 0.81985 0.98084 0.0
H716 H 0.06973 0.89544 0.99619 0.0
H717 H 0.06139 0.85742 0.02555 0.0
H718 H 1.00169 0.8611 0.89977 0.0
H719 H 1.01011 0.89946 0.8703 0.0
C720 C 0.99835 0.81369 0.06608 0.0
C721 C 0.01488 0.79834 0.08089 0.0
C722 C 1.00301 0.83185 0.02273 0.0
C723 C 0.02423 0.83471 0.99377 0.0
C724 C 0.04003 0.81815 1.00334 0.0
C725 C 0.03542 0.80015 0.04709 0.0
C726 C 0.05514 0.88798 0.97323 0.0
C727 C 0.04043 0.90041 0.93188 0.0
C728 C 0.05038 0.86616 0.98973 0.0
C729 C 0.03086 0.85634 0.96491 0.0
C730 C 0.01673 0.86839 0.92009 0.0
C731 C 0.0215 0.89028 0.90357 0.0
H732 H 0.73488 0.01325 1.00189 0.0
H733 H 0.69388 1.00923 0.19181 0.0
H734 H 0.70237 0.02259 0.92891 0.0
H735 H 0.6617 0.01851 0.11989 0.0
H736 H 0.62084 0.06854 0.01381 0.0
H737 H 0.65679 0.05774 0.05882 0.0
H738 H 0.66109 1.00719 0.89573 0.0
H739 H 0.62492 0.01794 0.85029 0.0
C740 C 0.7188 0.01367 0.0271 0.0
C741 C 0.71657 0.0109 0.10179 0.0
C742 C 0.70039 0.01912 0.98587 0.0
C743 C 0.67994 0.0219 0.01981 0.0
C744 C 0.67753 0.01698 0.0933 0.0
C745 C 0.69576 0.01149 0.13408 0.0
C746 C 0.62974 0.05567 0.98581 0.0
C747 C 0.62002 0.04389 0.92916 0.0
C748 C 0.65018 0.04939 0.0119 0.0
C749 C 0.66121 0.03137 0.9814 0.0
C750 C 0.65266 0.02103 0.92011 0.0
C751 C 0.63205 0.02718 0.89433 0.0
H752 H 0.46698 0.72887 0.06263 0.0
H753 H 0.5355 0.71124 0.0865 0.0
H754 H 0.46014 0.69452 0.99977 0.0
H755 H 0.52838 0.67651 0.02507 0.0
H756 H 0.49711 0.60797 0.0506 0.0
H757 H 0.50607 0.64598 0.08004 0.0
H758 H 0.46814 0.66821 0.89705 0.0
H759 H 0.45892 0.62978 0.86805 0.0
C760 C 0.48078 0.7181 0.052 0.0
C761 C 0.50168 0.72251 0.08098 0.0
C762 C 0.47679 0.69835 0.01624 0.0
C763 C 0.49361 0.68274 1.00937 0.0
C764 C 0.51505 0.68817 0.03122 0.0
C765 C 0.51909 0.708 0.06631 0.0
C766 C 0.49071 0.62102 0.01683 0.0
C767 C 0.47741 0.61617 0.95728 0.0
C768 C 0.49601 0.64269 0.03303 0.0
C769 C 0.48822 0.65991 0.98963 0.0
C770 C 0.47444 0.65513 0.93087 0.0
C771 C 0.46906 0.63331 0.91469 0.0
H772 H 0.78572 0.47891 0.02236 0.0
H773 H 0.81785 0.53232 0.13362 0.0
H774 H 0.81999 0.47051 0.95851 0.0
H775 H 0.85206 0.52421 0.06966 0.0
H776 H 0.91053 0.47825 0.06249 0.0
H777 H 0.8736 0.48975 0.0975 0.0
H778 H 0.85198 0.48292 0.87648 0.0
H779 H 0.88927 0.47112 0.84185 0.0
C780 C 0.79989 0.4895 0.03001 0.0
C781 C 0.79947 0.50621 0.08202 0.0
C782 C 0.81944 0.48466 0.99404 0.0
C783 C 0.83864 0.49641 0.01074 0.0
C784 C 0.83746 0.51472 0.05698 0.0
C785 C 0.81793 0.51957 0.09267 0.0
C786 C 0.8977 0.47878 0.02197 0.0
C787 C 0.90238 0.47383 0.94995 0.0
C788 C 0.87677 0.48567 0.0415 0.0
C789 C 0.86026 0.48783 0.98908 0.0
C790 C 0.8646 0.48162 0.91747 0.0
C791 C 0.88571 0.47477 0.89784 0.0
H792 H 0.97992 0.1964 0.82976 0.0
H793 H 0.04978 0.19956 0.78577 0.0
H794 H 0.98015 0.15754 0.80064 0.0
H795 H 0.0499 0.16046 0.76065 0.0
H796 H 0.04662 0.08458 0.79825 0.0
H797 H 0.04672 0.12448 0.81739 0.0
H798 H 0.9841 0.12933 0.70958 0.0
H799 H 0.98414 0.0896 0.68977 0.0
C800 C 0.99541 0.18925 0.81346 0.0
C801 C 0.01489 0.20209 0.8119 0.0
C802 C 0.9955 0.16652 0.79691 0.0
C803 C 0.0151 0.15532 0.77911 0.0
C804 C 0.03447 0.16808 0.77571 0.0
C805 C 0.03434 0.19089 0.79083 0.0
C806 C 0.03287 0.09411 0.77839 0.0
C807 C 0.01536 0.0835 0.74254 0.0
C808 C 0.03297 0.11719 0.78903 0.0
C809 C 0.01538 0.13057 0.7654 0.0
C810 C 0.99789 0.11988 0.72951 0.0
C811 C 0.99798 0.0969 0.71772 0.0
H812 H 0.31979 0.04676 0.76688 0.0
H813 H 0.32458 0.98022 0.84695 0.0
H814 H 0.35892 0.0472 0.74495 0.0
H815 H 0.36317 0.97979 0.81763 0.0
H816 H 0.4374 0.98736 0.82075 0.0
H817 H 0.39791 0.98723 0.84169 0.0
H818 H 0.3908 0.04088 0.68994 0.0
H819 H 0.43065 0.04153 0.67351 0.0
C820 C 0.32895 0.03205 0.77979 0.0
C821 C 0.31824 0.01358 0.81043 0.0
C822 C 0.35182 0.03217 0.76567 0.0
C823 C 0.36521 0.01364 0.77992 0.0
C824 C 0.35427 0.99484 0.80744 0.0
C825 C 0.33151 0.9949 0.82301 0.0
C826 C 0.42733 0.99921 0.79235 0.0
C827 C 0.43729 0.01453 0.74587 0.0
C828 C 0.40435 0.99903 0.80353 0.0
C829 C 0.3902 0.01395 0.76754 0.0
C830 C 0.40047 0.02923 0.72034 0.0
C831 C 0.42355 0.02958 0.71015 0.0
H832 H 0.54614 0.32164 0.78681 0.0
H833 H 0.47604 0.32056 0.82211 0.0
H834 H 0.54464 0.36024 0.76215 0.0
H835 H 0.47404 0.35903 0.79495 0.0
H836 H 0.4718 0.43295 0.75944 0.0
H837 H 0.47265 0.39353 0.77668 0.0
H838 H 0.54338 0.39458 0.74515 0.0
H839 H 0.54179 0.43365 0.72616 0.0
C840 C 0.53024 0.32956 0.78961 0.0
C841 C 0.51131 0.31726 0.80761 0.0
C842 C 0.52923 0.35234 0.77471 0.0
C843 C 0.50916 0.36429 0.77665 0.0
C844 C 0.49012 0.35163 0.79267 0.0
C845 C 0.49119 0.32886 0.80788 0.0
C846 C 0.48751 0.42462 0.75643 0.0
C847 C 0.5067 0.43676 0.7415 0.0
C848 C 0.48817 0.40152 0.76636 0.0
C849 C 0.50818 0.38942 0.76336 0.0
C850 C 0.52735 0.40203 0.74835 0.0
C851 C 0.52656 0.42498 0.73711 0.0
H852 H 0.19571 0.47629 0.85766 0.0
H853 H 0.20077 0.54026 0.75801 0.0
H854 H 0.15703 0.4749 0.82827 0.0
H855 H 0.16157 0.53973 0.73385 0.0
H856 H 0.09099 0.53024 0.65641 0.0
H857 H 0.13061 0.52994 0.67522 0.0
H858 H 0.12206 0.48425 0.85174 0.0
H859 H 0.08265 0.48399 0.83054 0.0
C860 C 0.18878 0.49015 0.82908 0.0
C861 C 0.20209 0.50842 0.81069 0.0
C862 C 0.16606 0.48955 0.81328 0.0
C863 C 0.15526 0.50732 0.77914 0.0
C864 C 0.16867 0.52545 0.75959 0.0
C865 C 0.19149 0.52593 0.77466 0.0
C866 C 0.09754 0.51999 0.69905 0.0
C867 C 0.08321 0.50713 0.74176 0.0
C868 C 0.12056 0.51993 0.71047 0.0
C869 C 0.13036 0.50707 0.76542 0.0
C870 C 0.11586 0.49415 0.80783 0.0
C871 C 0.09289 0.49412 0.79606 0.0
H872 H 0.03846 0.82544 0.55435 0.0
H873 H 0.97653 0.81825 0.6658 0.0
H874 H 0.03869 0.86399 0.58102 0.0
H875 H 0.9755 0.85734 0.68701 0.0
H876 H 0.97805 0.93046 0.74183 0.0
H877 H 0.97893 0.89081 0.72482 0.0
H878 H 0.03346 0.89874 0.5759 0.0
H879 H 0.03294 0.93796 0.59764 0.0
C880 C 0.02477 0.83191 0.58501 0.0
C881 C 1.0075 0.81792 0.60747 0.0
C882 C 0.0246 0.85475 0.59938 0.0
C883 C 1.00689 0.86515 0.63578 0.0
C884 C 0.98972 0.85097 0.65909 0.0
C885 C 0.99011 0.82802 0.64581 0.0
C886 C 0.99022 0.92355 0.70561 0.0
C887 C 1.00536 0.93752 0.67096 0.0
C888 C 0.99076 0.90046 0.69504 0.0
C889 C 1.00632 0.89029 0.64837 0.0
C890 C 0.02131 0.90477 0.61344 0.0
C891 C 0.02095 0.92774 0.62512 0.0
H892 H 0.69713 0.97242 0.57394 0.0
H893 H 0.69984 0.04013 0.64426 0.0
H894 H 0.6584 0.97114 0.60317 0.0
H895 H 0.66076 0.03954 0.66649 0.0
H896 H 0.59032 0.03271 0.74375 0.0
H897 H 0.62983 0.03242 0.72567 0.0
H898 H 0.62299 0.97769 0.57821 0.0
H899 H 0.58346 0.9777 0.59869 0.0
C900 C 0.68972 0.98716 0.59577 0.0
C901 C 0.70243 1.00645 0.60574 0.0
C902 C 0.66693 0.98656 0.61138 0.0
C903 C 0.65547 1.00531 0.63665 0.0
C904 C 0.6683 0.02446 0.64793 0.0
C905 C 0.69114 0.02495 0.63359 0.0
C906 C 0.5972 0.02047 0.70774 0.0
C907 C 0.58326 1.00524 0.67287 0.0
C908 C 0.6202 0.02038 0.69659 0.0
C909 C 0.63051 1.00503 0.65002 0.0
C910 C 0.61643 0.98967 0.61557 0.0
C911 C 0.59339 0.98976 0.62683 0.0
H912 H 0.47803 0.69728 0.61023 0.0
H913 H 0.54921 0.69828 0.6085 0.0
H914 H 0.47874 0.65846 0.63884 0.0
H915 H 0.54957 0.65921 0.63367 0.0
H916 H 0.54242 0.58368 0.60202 0.0
H917 H 0.54253 0.62347 0.58294 0.0
H918 H 0.48655 0.62987 0.72481 0.0
H919 H 0.4864 0.59006 0.74353 0.0
C920 C 0.49396 0.68969 0.61642 0.0
C921 C 0.51356 0.70196 0.60569 0.0
C922 C 0.4943 0.66695 0.63276 0.0
C923 C 0.5142 0.65514 0.6381 0.0
C924 C 0.53379 0.6673 0.62871 0.0
C925 C 0.5335 0.69012 0.61366 0.0
C926 C 0.53012 0.5935 0.62942 0.0
C927 C 0.51434 0.58324 0.67418 0.0
C928 C 0.53025 0.61655 0.61875 0.0
C929 C 0.51449 0.63036 0.65184 0.0
C930 C 0.49882 0.62009 0.69717 0.0
C931 C 0.49881 0.59706 0.70836 0.0
H932 H 0.82101 0.54586 0.59198 0.0
H933 H 0.82172 0.47587 0.63372 0.0
H934 H 0.85957 0.54782 0.62115 0.0
H935 H 0.86061 0.47752 0.65456 0.0
H936 H 0.93072 0.48433 0.73235 0.0
H937 H 0.89118 0.48373 0.71606 0.0
H938 H 0.89526 0.54407 0.59328 0.0
H939 H 0.93489 0.54484 0.61205 0.0
C940 C 0.82903 0.53072 0.60719 0.0
C941 C 0.8172 0.51062 0.60905 0.0
C942 C 0.85179 0.53182 0.62275 0.0
C943 C 0.86419 0.51283 0.63959 0.0
C944 C 0.85232 0.49282 0.64281 0.0
C945 C 0.82949 0.49179 0.62897 0.0
C946 C 0.92323 0.4976 0.70217 0.0
C947 C 0.93641 0.51459 0.67338 0.0
C948 C 0.90021 0.49718 0.69202 0.0
C949 C 0.88914 0.51375 0.65255 0.0
C950 C 0.90246 0.53095 0.62467 0.0
C951 C 0.92554 0.53134 0.63482 0.0
loop_
_geom_bond_atom_site_label_1
_geom_bond_atom_site_label_2
_geom_bond_distance
_geom_bond_site_symmetry_2
_ccdc_geom_bond_type
C0 C1 1.386 . S
C0 C2 1.397 . S
C0 H24 0.931 . S
C1 C0 1.386 . S
C1 C5 1.397 . S
C2 C0 1.397 . S
C2 C3 1.384 . S
C2 H25 0.930 . S
C3 C2 1.384 . S
C3 C4 1.377 . S
C3 C6 1.481 . S
C4 C3 1.377 . S
C4 C5 1.389 . S
C4 H26 0.929 . S
C5 C1 1.397 . S
C5 C4 1.389 . S
C5 H27 0.931 . S
C6 C3 1.481 . S
C6 C7 1.387 . S
C6 C11 1.390 . S
C7 C6 1.387 . S
C7 C8 1.401 . S
C7 H28 0.930 . S
C8 C7 1.401 . S
C8 C9 1.376 . S
C8 C17 1.511 . S
C9 C8 1.376 . S
C9 C10 1.392 . S
C9 H30 0.931 . S
C10 C9 1.392 . S
C10 C11 1.361 . S
C10 C12 1.500 . S
C11 C6 1.390 . S
C11 C10 1.361 . S
C11 H29 0.931 . S
C12 C10 1.500 . S
C12 C13 1.371 . S
C12 C14 1.365 . S
C13 C12 1.371 . S
C13 C23 1.386 . S
C13 H31 0.931 . S
C14 C12 1.365 . S
C14 C15 1.409 . S
C14 H32 0.929 . S
C15 C14 1.409 . S
C15 C16 1.380 . S
C15 H33 0.930 . S
C16 C15 1.380 . S
C16 C23 1.357 . S
C17 C8 1.511 . S
C17 C18 1.341 . S
C17 C19 1.371 . S
C18 C17 1.341 . S
C18 C22 1.394 . S
C18 H34 0.930 . S
C19 C17 1.371 . S
C19 C20 1.392 . S
C19 H35 0.931 . S
C20 C19 1.392 . S
C20 C21 1.331 . S
C20 H38 0.932 . S
C21 C20 1.331 . S
C21 C22 1.336 . S
C22 C18 1.394 . S
C22 C21 1.336 . S
C22 H37 0.929 . S
C23 C13 1.386 . S
C23 C16 1.357 . S
C23 H36 0.928 . S
H24 C0 0.931 . S
H25 C2 0.930 . S
H26 C4 0.929 . S
H27 C5 0.931 . S
H28 C7 0.930 . S
H29 C11 0.931 . S
H30 C9 0.931 . S
H31 C13 0.931 . S
H32 C14 0.929 . S
H33 C15 0.930 . S
H34 C18 0.930 . S
H35 C19 0.931 . S
H36 C23 0.928 . S
H37 C22 0.929 . S
H38 C20 0.932 . S
C39 C40 1.394 . S
C39 C41 1.397 . S
C39 H63 0.931 . S
C40 C39 1.394 . S
C40 C44 1.389 1_655 S
C41 C39 1.397 . S
C41 C42 1.389 . S
C41 H64 0.930 . S
C42 C41 1.389 . S
C42 C43 1.373 1_655 S
C42 C45 1.480 . S
C43 C42 1.373 1_455 S
C43 C44 1.389 . S
C43 H65 0.929 . S
C44 C40 1.389 1_455 S
C44 C43 1.389 . S
C44 H66 0.931 . S
C45 C42 1.480 . S
C45 C46 1.388 . S
C45 C50 1.390 . S
C46 C45 1.388 . S
C46 C47 1.402 . S
C46 H67 0.930 . S
C47 C46 1.402 . S
C47 C48 1.376 . S
C47 C56 1.513 . S
C48 C47 1.376 . S
C48 C49 1.392 . S
C48 H69 0.934 . S
C49 C48 1.392 . S
C49 C50 1.361 . S
C49 C51 1.499 1_655 S
C50 C45 1.390 . S
C50 C49 1.361 . S
C50 H68 0.931 . S
C51 C49 1.499 1_455 S
C51 C52 1.362 1_455 S
C51 C53 1.374 . S
C52 C51 1.362 1_655 S
C52 C62 1.386 . S
C52 H70 0.931 . S
C53 C51 1.374 . S
C53 C54 1.409 . S
C53 H71 0.929 . S
C54 C53 1.409 . S
C54 C55 1.379 . S
C54 H72 0.930 . S
C55 C54 1.379 . S
C55 C62 1.359 1_455 S
C56 C47 1.513 . S
C56 C57 1.341 . S
C56 C58 1.371 1_655 S
C57 C56 1.341 . S
C57 C61 1.394 . S
C57 H73 0.930 . S
C58 C56 1.371 1_455 S
C58 C59 1.392 . S
C58 H74 0.931 . S
C59 C58 1.392 . S
C59 C60 1.322 1_455 S
C59 H77 0.932 . S
C60 C59 1.322 1_655 S
C60 C61 1.345 . S
C61 C57 1.394 . S
C61 C60 1.345 . S
C61 H76 0.929 . S
C62 C52 1.386 . S
C62 C55 1.359 1_655 S
C62 H75 0.928 . S
H63 C39 0.931 . S
H64 C41 0.930 . S
H65 C43 0.929 . S
H66 C44 0.931 . S
H67 C46 0.930 . S
H68 C50 0.931 . S
H69 C48 0.934 . S
H70 C52 0.931 . S
H71 C53 0.929 . S
H72 C54 0.930 . S
H73 C57 0.930 . S
H74 C58 0.931 . S
H75 C62 0.928 . S
H76 C61 0.929 . S
H77 C59 0.932 . S
C78 C79 1.394 . S
C78 C80 1.397 . S
C78 H102 0.931 . S
C79 C78 1.394 . S
C79 C83 1.389 1_565 S
C80 C78 1.397 . S
C80 C81 1.389 . S
C80 H103 0.930 . S
C81 C80 1.389 . S
C81 C82 1.373 1_565 S
C81 C84 1.480 . S
C82 C81 1.373 1_545 S
C82 C83 1.389 . S
C82 H104 0.929 . S
C83 C79 1.389 1_545 S
C83 C82 1.389 . S
C83 H105 0.931 . S
C84 C81 1.480 . S
C84 C85 1.388 . S
C84 C89 1.390 . S
C85 C84 1.388 . S
C85 C86 1.402 . S
C85 H106 0.930 . S
C86 C85 1.402 . S
C86 C87 1.376 . S
C86 C95 1.513 . S
C87 C86 1.376 . S
C87 C88 1.392 . S
C87 H108 0.934 . S
C88 C87 1.392 . S
C88 C89 1.361 . S
C88 C90 1.499 1_565 S
C89 C84 1.390 . S
C89 C88 1.361 . S
C89 H107 0.931 . S
C90 C88 1.499 1_545 S
C90 C91 1.362 1_545 S
C90 C92 1.374 . S
C91 C90 1.362 1_565 S
C91 C101 1.386 . S
C91 H109 0.931 . S
C92 C90 1.374 . S
C92 C93 1.409 . S
C92 H110 0.929 . S
C93 C92 1.409 . S
C93 C94 1.379 . S
C93 H111 0.930 . S
C94 C93 1.379 . S
C94 C101 1.359 1_545 S
C95 C86 1.513 . S
C95 C96 1.341 . S
C95 C97 1.371 1_565 S
C96 C95 1.341 . S
C96 C100 1.394 . S
C96 H112 0.930 . S
C97 C95 1.371 1_545 S
C97 C98 1.392 . S
C97 H113 0.931 . S
C98 C97 1.392 . S
C98 C99 1.322 1_545 S
C98 H116 0.932 . S
C99 C98 1.322 1_565 S
C99 C100 1.345 . S
C100 C96 1.394 . S
C100 C99 1.345 . S
C100 H115 0.929 . S
C101 C91 1.386 . S
C101 C94 1.359 1_565 S
C101 H114 0.928 . S
H102 C78 0.931 . S
H103 C80 0.930 . S
H104 C82 0.929 . S
H105 C83 0.931 . S
H106 C85 0.930 . S
H107 C89 0.931 . S
H108 C87 0.934 . S
H109 C91 0.931 . S
H110 C92 0.929 . S
H111 C93 0.930 . S
H112 C96 0.930 . S
H113 C97 0.931 . S
H114 C101 0.928 . S
H115 C100 0.929 . S
H116 C98 0.932 . S
C117 C118 1.386 . S
C117 C119 1.397 . S
C117 H141 0.931 . S
C118 C117 1.386 . S
C118 C122 1.397 . S
C119 C117 1.397 . S
C119 C120 1.384 . S
C119 H142 0.930 . S
C120 C119 1.384 . S
C120 C121 1.377 . S
C120 C123 1.481 . S
C121 C120 1.377 . S
C121 C122 1.389 . S
C121 H143 0.929 . S
C122 C118 1.397 . S
C122 C121 1.389 . S
C122 H144 0.931 . S
C123 C120 1.481 . S
C123 C124 1.387 . S
C123 C128 1.390 . S
C124 C123 1.387 . S
C124 C125 1.401 . S
C124 H145 0.930 . S
C125 C124 1.401 . S
C125 C126 1.376 . S
C125 C134 1.511 . S
C126 C125 1.376 . S
C126 C127 1.392 . S
C126 H147 0.931 . S
C127 C126 1.392 . S
C127 C128 1.361 . S
C127 C129 1.500 . S
C128 C123 1.390 . S
C128 C127 1.361 . S
C128 H146 0.931 . S
C129 C127 1.500 . S
C129 C130 1.371 . S
C129 C131 1.365 . S
C130 C129 1.371 . S
C130 C140 1.386 . S
C130 H148 0.931 . S
C131 C129 1.365 . S
C131 C132 1.409 . S
C131 H149 0.929 . S
C132 C131 1.409 . S
C132 C133 1.380 . S
C132 H150 0.930 . S
C133 C132 1.380 . S
C133 C140 1.357 . S
C134 C125 1.511 . S
C134 C135 1.341 . S
C134 C136 1.371 . S
C135 C134 1.341 . S
C135 C139 1.394 . S
C135 H151 0.930 . S
C136 C134 1.371 . S
C136 C137 1.392 . S
C136 H152 0.931 . S
C137 C136 1.392 . S
C137 C138 1.331 . S
C137 H155 0.932 . S
C138 C137 1.331 . S
C138 C139 1.336 . S
C139 C135 1.394 . S
C139 C138 1.336 . S
C139 H154 0.929 . S
C140 C130 1.386 . S
C140 C133 1.357 . S
C140 H153 0.928 . S
H141 C117 0.931 . S
H142 C119 0.930 . S
H143 C121 0.929 . S
H144 C122 0.931 . S
H145 C124 0.930 . S
H146 C128 0.931 . S
H147 C126 0.931 . S
H148 C130 0.931 . S
H149 C131 0.929 . S
H150 C132 0.930 . S
H151 C135 0.930 . S
H152 C136 0.931 . S
H153 C140 0.928 . S
H154 C139 0.929 . S
H155 C137 0.932 . S
C156 C157 1.386 . S
C156 C158 1.397 . S
C156 H180 0.931 . S
C157 C156 1.386 . S
C157 C161 1.397 . S
C158 C156 1.397 . S
C158 C159 1.384 . S
C158 H181 0.930 . S
C159 C158 1.384 . S
C159 C160 1.377 . S
C159 C162 1.481 . S
C160 C159 1.377 . S
C160 C161 1.389 . S
C160 H182 0.929 . S
C161 C157 1.397 . S
C161 C160 1.389 . S
C161 H183 0.931 . S
C162 C159 1.481 . S
C162 C163 1.387 . S
C162 C167 1.390 . S
C163 C162 1.387 . S
C163 C164 1.401 . S
C163 H184 0.930 . S
C164 C163 1.401 . S
C164 C165 1.376 1_554 S
C164 C173 1.511 . S
C165 C164 1.376 1_556 S
C165 C166 1.392 . S
C165 H186 0.931 . S
C166 C165 1.392 . S
C166 C167 1.361 1_556 S
C166 C168 1.500 . S
C167 C162 1.390 . S
C167 C166 1.361 1_554 S
C167 H185 0.931 . S
C168 C166 1.500 . S
C168 C169 1.371 . S
C168 C170 1.365 . S
C169 C168 1.371 . S
C169 C179 1.386 . S
C169 H187 0.931 . S
C170 C168 1.365 . S
C170 C171 1.409 . S
C170 H188 0.929 . S
C171 C170 1.409 . S
C171 C172 1.380 . S
C171 H189 0.930 . S
C172 C171 1.380 . S
C172 C179 1.357 . S
C173 C164 1.511 . S
C173 C174 1.341 . S
C173 C175 1.371 . S
C174 C173 1.341 . S
C174 C178 1.394 . S
C174 H190 0.930 . S
C175 C173 1.371 . S
C175 C176 1.392 . S
C175 H191 0.931 1_554 S
C176 C175 1.392 . S
C176 C177 1.331 . S
C176 H194 0.932 . S
C177 C176 1.331 . S
C177 C178 1.336 . S
C178 C174 1.394 . S
C178 C177 1.336 . S
C178 H193 0.929 . S
C179 C169 1.386 . S
C179 C172 1.357 . S
C179 H192 0.928 . S
H180 C156 0.931 . S
H181 C158 0.930 . S
H182 C160 0.929 . S
H183 C161 0.931 . S
H184 C163 0.930 . S
H185 C167 0.931 . S
H186 C165 0.931 . S
H187 C169 0.931 . S
H188 C170 0.929 . S
H189 C171 0.930 . S
H190 C174 0.930 . S
H191 C175 0.931 1_556 S
H192 C179 0.928 . S
H193 C178 0.929 . S
H194 C176 0.932 . S
C195 C196 1.387 . S
C195 C197 1.397 . S
C195 H219 0.931 . S
C196 C195 1.387 . S
C196 C200 1.396 1_655 S
C197 C195 1.397 . S
C197 C198 1.381 . S
C197 H220 0.930 . S
C198 C197 1.381 . S
C198 C199 1.380 1_655 S
C198 C201 1.480 . S
C199 C198 1.380 1_455 S
C199 C200 1.389 . S
C199 H221 0.929 . S
C200 C196 1.396 1_455 S
C200 C199 1.389 . S
C200 H222 0.931 . S
C201 C198 1.480 . S
C201 C202 1.388 . S
C201 C206 1.390 . S
C202 C201 1.388 . S
C202 C203 1.402 . S
C202 H223 0.930 . S
C203 C202 1.402 . S
C203 C204 1.376 1_554 S
C203 C212 1.512 . S
C204 C203 1.376 1_556 S
C204 C205 1.392 1_655 S
C204 H225 0.933 . S
C205 C204 1.392 1_455 S
C205 C206 1.361 1_456 S
C205 C207 1.499 . S
C206 C201 1.390 . S
C206 C205 1.361 1_654 S
C206 H224 0.931 . S
C207 C205 1.499 . S
C207 C208 1.357 1_455 S
C207 C209 1.380 . S
C208 C207 1.357 1_655 S
C208 C218 1.386 . S
C208 H226 0.931 . S
C209 C207 1.380 . S
C209 C210 1.409 . S
C209 H227 0.929 . S
C210 C209 1.409 . S
C210 C211 1.384 . S
C210 H228 0.930 . S
C211 C210 1.384 . S
C211 C218 1.353 1_455 S
C212 C203 1.512 . S
C212 C213 1.341 . S
C212 C214 1.371 1_655 S
C213 C212 1.341 . S
C213 C217 1.394 . S
C213 H229 0.930 . S
C214 C212 1.371 1_455 S
C214 C215 1.392 . S
C214 H230 0.931 1_554 S
C215 C214 1.392 . S
C215 C216 1.326 1_455 S
C215 H233 0.932 . S
C216 C215 1.326 1_655 S
C216 C217 1.341 . S
C217 C213 1.394 . S
C217 C216 1.341 . S
C217 H232 0.929 . S
C218 C208 1.386 . S
C218 C211 1.353 1_655 S
C218 H231 0.928 . S
H219 C195 0.931 . S
H220 C197 0.930 . S
H221 C199 0.929 . S
H222 C200 0.931 . S
H223 C202 0.930 . S
H224 C206 0.931 . S
H225 C204 0.933 . S
H226 C208 0.931 . S
H227 C209 0.929 . S
H228 C210 0.930 . S
H229 C213 0.930 . S
H230 C214 0.931 1_556 S
H231 C218 0.928 . S
H232 C217 0.929 . S
H233 C215 0.932 . S
C234 C235 1.387 . S
C234 C236 1.397 . S
C234 H258 0.931 . S
C235 C234 1.387 . S
C235 C239 1.396 1_565 S
C236 C234 1.397 . S
C236 C237 1.381 . S
C236 H259 0.930 . S
C237 C236 1.381 . S
C237 C238 1.380 1_565 S
C237 C240 1.480 . S
C238 C237 1.380 1_545 S
C238 C239 1.389 . S
C238 H260 0.929 . S
C239 C235 1.396 1_545 S
C239 C238 1.389 . S
C239 H261 0.931 . S
C240 C237 1.480 . S
C240 C241 1.388 . S
C240 C245 1.390 . S
C241 C240 1.388 . S
C241 C242 1.402 . S
C241 H262 0.930 . S
C242 C241 1.402 . S
C242 C243 1.376 1_554 S
C242 C251 1.512 . S
C243 C242 1.376 1_556 S
C243 C244 1.392 1_565 S
C243 H264 0.933 . S
C244 C243 1.392 1_545 S
C244 C245 1.361 1_546 S
C244 C246 1.499 . S
C245 C240 1.390 . S
C245 C244 1.361 1_564 S
C245 H263 0.931 . S
C246 C244 1.499 . S
C246 C247 1.357 1_545 S
C246 C248 1.380 . S
C247 C246 1.357 1_565 S
C247 C257 1.386 . S
C247 H265 0.931 . S
C248 C246 1.380 . S
C248 C249 1.409 . S
C248 H266 0.929 . S
C249 C248 1.409 . S
C249 C250 1.384 . S
C249 H267 0.930 . S
C250 C249 1.384 . S
C250 C257 1.353 1_545 S
C251 C242 1.512 . S
C251 C252 1.341 . S
C251 C253 1.371 1_565 S
C252 C251 1.341 . S
C252 C256 1.394 . S
C252 H268 0.930 . S
C253 C251 1.371 1_545 S
C253 C254 1.392 . S
C253 H269 0.931 1_554 S
C254 C253 1.392 . S
C254 C255 1.326 1_545 S
C254 H272 0.932 . S
C255 C254 1.326 1_565 S
C255 C256 1.341 . S
C256 C252 1.394 . S
C256 C255 1.341 . S
C256 H271 0.929 . S
C257 C247 1.386 . S
C257 C250 1.353 1_565 S
C257 H270 0.928 . S
H258 C234 0.931 . S
H259 C236 0.930 . S
H260 C238 0.929 . S
H261 C239 0.931 . S
H262 C241 0.930 . S
H263 C245 0.931 . S
H264 C243 0.933 . S
H265 C247 0.931 . S
H266 C248 0.929 . S
H267 C249 0.930 . S
H268 C252 0.930 . S
H269 C253 0.931 1_556 S
H270 C257 0.928 . S
H271 C256 0.929 . S
H272 C254 0.932 . S
C273 C274 1.386 . S
C273 C275 1.397 . S
C273 H297 0.931 . S
C274 C273 1.386 . S
C274 C278 1.397 . S
C275 C273 1.397 . S
C275 C276 1.384 . S
C275 H298 0.930 . S
C276 C275 1.384 . S
C276 C277 1.377 . S
C276 C279 1.481 . S
C277 C276 1.377 . S
C277 C278 1.389 . S
C277 H299 0.929 . S
C278 C274 1.397 . S
C278 C277 1.389 . S
C278 H300 0.931 . S
C279 C276 1.481 . S
C279 C280 1.387 . S
C279 C284 1.390 1_556 S
C280 C279 1.387 . S
C280 C281 1.401 1_556 S
C280 H301 0.930 . S
C281 C280 1.401 1_554 S
C281 C282 1.376 . S
C281 C290 1.511 . S
C282 C281 1.376 . S
C282 C283 1.392 . S
C282 H303 0.931 . S
C283 C282 1.392 . S
C283 C284 1.361 . S
C283 C285 1.500 . S
C284 C279 1.390 1_554 S
C284 C283 1.361 . S
C284 H302 0.931 . S
C285 C283 1.500 . S
C285 C286 1.371 . S
C285 C287 1.365 . S
C286 C285 1.371 . S
C286 C296 1.386 . S
C286 H304 0.931 . S
C287 C285 1.365 . S
C287 C288 1.409 . S
C287 H305 0.929 . S
C288 C287 1.409 . S
C288 C289 1.380 . S
C288 H306 0.930 . S
C289 C288 1.380 . S
C289 C296 1.357 . S
C290 C281 1.511 . S
C290 C291 1.341 . S
C290 C292 1.371 . S
C291 C290 1.341 . S
C291 C295 1.394 . S
C291 H307 0.930 1_554 S
C292 C290 1.371 . S
C292 C293 1.392 . S
C292 H308 0.931 . S
C293 C292 1.392 . S
C293 C294 1.331 . S
C293 H311 0.932 . S
C294 C293 1.331 . S
C294 C295 1.336 . S
C295 C291 1.394 . S
C295 C294 1.336 . S
C295 H310 0.929 . S
C296 C286 1.386 . S
C296 C289 1.357 . S
C296 H309 0.928 . S
H297 C273 0.931 . S
H298 C275 0.930 . S
H299 C277 0.929 . S
H300 C278 0.931 . S
H301 C280 0.930 . S
H302 C284 0.931 . S
H303 C282 0.931 . S
H304 C286 0.931 . S
H305 C287 0.929 . S
H306 C288 0.930 . S
H307 C291 0.930 1_556 S
H308 C292 0.931 . S
H309 C296 0.928 . S
H310 C295 0.929 . S
H311 C293 0.932 . S
Pr312 C314 2.880 . S
Pr312 O332 2.562 . S
Pr312 O333 2.490 . S
Pr312 O334 2.695 1_565 S
Pr312 O335 2.512 . S
Pr312 O337 2.437 . S
Pr312 O340 2.436 1_455 S
Pr312 O342 2.438 1_565 S
Pr313 C323 2.880 . S
Pr313 O334 2.436 1_655 S
Pr313 O336 2.438 1_545 S
Pr313 O338 2.562 . S
Pr313 O339 2.490 . S
Pr313 O340 2.695 1_545 S
Pr313 O341 2.512 . S
Pr313 O343 2.437 . S
C314 Pr312 2.880 . S
C314 C315 1.491 . S
C314 O332 1.254 . S
C314 O333 1.225 . S
C315 C314 1.491 . S
C315 C316 1.392 . S
C315 C320 1.356 . S
C316 C315 1.392 . S
C316 C317 1.368 . S
C316 H344 0.929 . S
C317 C316 1.368 . S
C317 C318 1.386 . S
C317 H345 0.929 . S
C318 C317 1.386 . S
C318 C319 1.373 . S
C319 C318 1.373 . S
C319 C320 1.409 . S
C319 H346 0.902 1_455 S
C320 C315 1.356 . S
C320 C319 1.409 . S
C320 H347 0.930 1_455 S
C321 O334 1.270 1_565 S
C321 O335 1.248 . S
C322 O336 1.267 . S
C322 O337 1.278 1_655 S
C323 Pr313 2.880 . S
C323 C324 1.491 . S
C323 O338 1.254 . S
C323 O339 1.225 . S
C324 C323 1.491 . S
C324 C325 1.392 . S
C324 C329 1.356 . S
C325 C324 1.392 . S
C325 C326 1.368 . S
C325 H348 0.929 . S
C326 C325 1.368 . S
C326 C327 1.386 . S
C326 H349 0.929 . S
C327 C326 1.386 . S
C327 C328 1.373 . S
C328 C327 1.373 . S
C328 C329 1.409 . S
C328 H350 0.893 1_655 S
C329 C324 1.356 . S
C329 C328 1.409 . S
C329 H351 0.930 1_655 S
C330 O340 1.270 1_545 S
C330 O341 1.248 . S
C331 O342 1.267 . S
C331 O343 1.278 1_455 S
O332 Pr312 2.562 . S
O332 C314 1.254 . S
O333 Pr312 2.490 . S
O333 C314 1.225 . S
O334 Pr312 2.695 1_545 S
O334 Pr313 2.436 1_455 S
O334 C321 1.270 1_545 S
O335 Pr312 2.512 . S
O335 C321 1.248 . S
O336 Pr313 2.438 1_565 S
O336 C322 1.267 . S
O337 Pr312 2.437 . S
O337 C322 1.278 1_455 S
O338 Pr313 2.562 . S
O338 C323 1.254 . S
O339 Pr313 2.490 . S
O339 C323 1.225 . S
O340 Pr312 2.436 1_655 S
O340 Pr313 2.695 1_565 S
O340 C330 1.270 1_565 S
O341 Pr313 2.512 . S
O341 C330 1.248 . S
O342 Pr312 2.438 1_545 S
O342 C331 1.267 . S
O343 Pr313 2.437 . S
O343 C331 1.278 1_655 S
H344 C316 0.929 . S
H345 C317 0.929 . S
H346 C319 0.902 1_655 S
H347 C320 0.930 1_655 S
H348 C325 0.929 . S
H349 C326 0.929 . S
H350 C328 0.893 1_455 S
H351 C329 0.930 1_455 S
Pr352 C354 2.880 . S
Pr352 O372 2.562 . S
Pr352 O373 2.490 . S
Pr352 O374 2.695 . S
Pr352 O375 2.512 . S
Pr352 O377 2.437 . S
Pr352 O380 2.436 1_545 S
Pr352 O382 2.438 . S
Pr353 C363 2.880 . S
Pr353 O374 2.436 1_565 S
Pr353 O376 2.438 . S
Pr353 O378 2.562 . S
Pr353 O379 2.490 . S
Pr353 O380 2.695 . S
Pr353 O381 2.512 . S
Pr353 O383 2.437 . S
C354 Pr352 2.880 . S
C354 C355 1.491 . S
C354 O372 1.254 . S
C354 O373 1.225 . S
C355 C354 1.491 . S
C355 C356 1.392 . S
C355 C360 1.356 . S
C356 C355 1.392 . S
C356 C357 1.368 . S
C356 H384 0.929 . S
C357 C356 1.368 . S
C357 C358 1.386 . S
C357 H385 0.929 . S
C358 C357 1.386 . S
C358 C359 1.373 . S
C359 C358 1.373 . S
C359 C360 1.409 . S
C359 H386 0.931 1_545 S
C360 C355 1.356 . S
C360 C359 1.409 . S
C360 H387 0.930 1_545 S
C361 O374 1.270 . S
C361 O375 1.248 . S
C362 O376 1.267 . S
C362 O377 1.278 1_565 S
C363 Pr353 2.880 . S
C363 C364 1.491 . S
C363 O378 1.254 . S
C363 O379 1.225 . S
C364 C363 1.491 . S
C364 C365 1.392 . S
C364 C369 1.356 . S
C365 C364 1.392 . S
C365 C366 1.368 . S
C365 H388 0.929 . S
C366 C365 1.368 . S
C366 C367 1.386 . S
C366 H389 0.929 . S
C367 C366 1.386 . S
C367 C368 1.373 . S
C368 C367 1.373 . S
C368 C369 1.409 . S
C368 H390 0.931 1_565 S
C369 C364 1.356 . S
C369 C368 1.409 . S
C369 H391 0.930 1_565 S
C370 O380 1.270 . S
C370 O381 1.248 . S
C371 O382 1.267 . S
C371 O383 1.278 1_545 S
O372 Pr352 2.562 . S
O372 C354 1.254 . S
O373 Pr352 2.490 . S
O373 C354 1.225 . S
O374 Pr352 2.695 . S
O374 Pr353 2.436 1_545 S
O374 C361 1.270 . S
O375 Pr352 2.512 . S
O375 C361 1.248 . S
O376 Pr353 2.438 . S
O376 C362 1.267 . S
O377 Pr352 2.437 . S
O377 C362 1.278 1_545 S
O378 Pr353 2.562 . S
O378 C363 1.254 . S
O379 Pr353 2.490 . S
O379 C363 1.225 . S
O380 Pr352 2.436 1_565 S
O380 Pr353 2.695 . S
O380 C370 1.270 . S
O381 Pr353 2.512 . S
O381 C370 1.248 . S
O382 Pr352 2.438 . S
O382 C371 1.267 . S
O383 Pr353 2.437 . S
O383 C371 1.278 1_565 S
H384 C356 0.929 . S
H385 C357 0.929 . S
H386 C359 0.931 1_565 S
H387 C360 0.930 1_565 S
H388 C365 0.929 . S
H389 C366 0.929 . S
H390 C368 0.931 1_545 S
H391 C369 0.930 1_545 S
Pr392 C394 2.880 . S
Pr392 O412 2.562 . S
Pr392 O413 2.490 . S
Pr392 O414 2.695 . S
Pr392 O415 2.512 . S
Pr392 O417 2.437 . S
Pr392 O420 2.436 . S
Pr392 O422 2.438 . S
Pr393 C403 2.880 . S
Pr393 O414 2.436 . S
Pr393 O416 2.438 . S
Pr393 O418 2.562 . S
Pr393 O419 2.490 . S
Pr393 O420 2.695 . S
Pr393 O421 2.512 . S
Pr393 O423 2.437 . S
C394 Pr392 2.880 . S
C394 C395 1.491 . S
C394 O412 1.254 . S
C394 O413 1.225 . S
C395 C394 1.491 . S
C395 C396 1.392 . S
C395 C400 1.356 . S
C396 C395 1.392 . S
C396 C397 1.368 . S
C396 H424 0.929 . S
C397 C396 1.368 . S
C397 C398 1.386 . S
C397 H425 0.929 . S
C398 C397 1.386 . S
C398 C399 1.373 . S
C399 C398 1.373 . S
C399 C400 1.409 . S
C399 H426 0.931 . S
C400 C395 1.356 . S
C400 C399 1.409 . S
C400 H427 0.930 . S
C401 O414 1.270 . S
C401 O415 1.248 . S
C402 O416 1.267 . S
C402 O417 1.278 . S
C403 Pr393 2.880 . S
C403 C404 1.491 . S
C403 O418 1.254 . S
C403 O419 1.225 . S
C404 C403 1.491 . S
C404 C405 1.392 . S
C404 C409 1.356 . S
C405 C404 1.392 . S
C405 C406 1.368 . S
C405 H428 0.929 . S
C406 C405 1.368 . S
C406 C407 1.386 . S
C406 H429 0.929 . S
C407 C406 1.386 . S
C407 C408 1.373 . S
C408 C407 1.373 . S
C408 C409 1.409 . S
C408 H430 0.931 . S
C409 C404 1.356 . S
C409 C408 1.409 . S
C409 H431 0.930 . S
C410 O420 1.270 . S
C410 O421 1.248 . S
C411 O422 1.267 . S
C411 O423 1.278 . S
O412 Pr392 2.562 . S
O412 C394 1.254 . S
O413 Pr392 2.490 . S
O413 C394 1.225 . S
O414 Pr392 2.695 . S
O414 Pr393 2.436 . S
O414 C401 1.270 . S
O415 Pr392 2.512 . S
O415 C401 1.248 . S
O416 Pr393 2.438 . S
O416 C402 1.267 . S
O417 Pr392 2.437 . S
O417 C402 1.278 . S
O418 Pr393 2.562 . S
O418 C403 1.254 . S
O419 Pr393 2.490 . S
O419 C403 1.225 . S
O420 Pr392 2.436 . S
O420 Pr393 2.695 . S
O420 C410 1.270 . S
O421 Pr393 2.512 . S
O421 C410 1.248 . S
O422 Pr392 2.438 . S
O422 C411 1.267 . S
O423 Pr393 2.437 . S
O423 C411 1.278 . S
H424 C396 0.929 . S
H425 C397 0.929 . S
H426 C399 0.931 . S
H427 C400 0.930 . S
H428 C405 0.929 . S
H429 C406 0.929 . S
H430 C408 0.931 . S
H431 C409 0.930 . S
Pr432 C434 2.880 . S
Pr432 O452 2.562 . S
Pr432 O453 2.490 . S
Pr432 O454 2.695 1_655 S
Pr432 O455 2.512 . S
Pr432 O457 2.437 . S
Pr432 O460 2.436 . S
Pr432 O462 2.438 1_655 S
Pr433 C443 2.880 . S
Pr433 O454 2.436 . S
Pr433 O456 2.438 1_455 S
Pr433 O458 2.562 . S
Pr433 O459 2.490 . S
Pr433 O460 2.695 1_455 S
Pr433 O461 2.512 . S
Pr433 O463 2.437 . S
C434 Pr432 2.880 . S
C434 C435 1.491 . S
C434 O452 1.254 . S
C434 O453 1.225 . S
C435 C434 1.491 . S
C435 C436 1.392 . S
C435 C440 1.356 . S
C436 C435 1.392 . S
C436 C437 1.368 . S
C436 H464 0.929 . S
C437 C436 1.368 . S
C437 C438 1.386 . S
C437 H465 0.929 . S
C438 C437 1.386 . S
C438 C439 1.373 . S
C439 C438 1.373 . S
C439 C440 1.409 . S
C439 H466 0.931 . S
C440 C435 1.356 . S
C440 C439 1.409 . S
C440 H467 0.930 . S
C441 O454 1.259 1_655 S
C441 O455 1.268 . S
C442 O456 1.267 . S
C442 O457 1.278 . S
C443 Pr433 2.880 . S
C443 C444 1.491 . S
C443 O458 1.254 . S
C443 O459 1.225 . S
C444 C443 1.491 . S
C444 C445 1.392 . S
C444 C449 1.356 . S
C445 C444 1.392 . S
C445 C446 1.368 . S
C445 H468 0.929 . S
C446 C445 1.368 . S
C446 C447 1.386 . S
C446 H469 0.929 . S
C447 C446 1.386 . S
C447 C448 1.373 . S
C448 C447 1.373 . S
C448 C449 1.409 . S
C448 H470 0.931 . S
C449 C444 1.356 . S
C449 C448 1.409 . S
C449 H471 0.930 . S
C450 O460 1.256 1_455 S
C450 O461 1.274 . S
C451 O462 1.267 . S
C451 O463 1.278 . S
O452 Pr432 2.562 . S
O452 C434 1.254 . S
O453 Pr432 2.490 . S
O453 C434 1.225 . S
O454 Pr432 2.695 1_455 S
O454 Pr433 2.436 . S
O454 C441 1.259 1_455 S
O455 Pr432 2.512 . S
O455 C441 1.268 . S
O456 Pr433 2.438 1_655 S
O456 C442 1.267 . S
O457 Pr432 2.437 . S
O457 C442 1.278 . S
O458 Pr433 2.562 . S
O458 C443 1.254 . S
O459 Pr433 2.490 . S
O459 C443 1.225 . S
O460 Pr432 2.436 . S
O460 Pr433 2.695 1_655 S
O460 C450 1.256 1_655 S
O461 Pr433 2.512 . S
O461 C450 1.274 . S
O462 Pr432 2.438 1_455 S
O462 C451 1.267 . S
O463 Pr433 2.437 . S
O463 C451 1.278 . S
H464 C436 0.929 . S
H465 C437 0.929 . S
H466 C439 0.931 . S
H467 C440 0.930 . S
H468 C445 0.929 . S
H469 C446 0.929 . S
H470 C448 0.931 . S
H471 C449 0.930 . S
H472 C480 0.950 . S
H473 C485 0.950 . S
H474 C482 0.950 . S
H475 C484 0.950 . S
H476 C486 0.950 . S
H477 C488 0.950 . S
H478 C490 0.950 . S
H479 C491 0.950 . S
C480 H472 0.950 . S
C480 C481 1.360 1_565 S
C480 C482 1.391 . S
C481 C480 1.360 1_545 S
C481 C485 1.419 . S
C482 H474 0.950 . S
C482 C480 1.391 . S
C482 C483 1.367 1_565 S
C483 C482 1.367 1_545 S
C483 C484 1.432 . S
C483 C489 1.491 . S
C484 H475 0.950 . S
C484 C483 1.432 . S
C484 C485 1.391 . S
C485 H473 0.950 . S
C485 C481 1.419 . S
C485 C484 1.391 . S
C486 H476 0.950 . S
C486 C487 1.420 . S
C486 C488 1.391 . S
C487 C486 1.420 . S
C487 C491 1.359 1_545 S
C488 H477 0.950 . S
C488 C486 1.391 . S
C488 C489 1.426 . S
C489 C483 1.491 . S
C489 C488 1.426 . S
C489 C490 1.372 1_545 S
C490 H478 0.950 . S
C490 C489 1.372 1_565 S
C490 C491 1.391 . S
C491 H479 0.950 . S
C491 C487 1.359 1_565 S
C491 C490 1.391 . S
H492 C500 0.950 . S
H493 C505 0.950 . S
H494 C502 0.950 . S
H495 C504 0.950 . S
H496 C506 0.950 . S
H497 C508 0.950 . S
H498 C510 0.950 . S
H499 C511 0.950 . S
C500 H492 0.950 . S
C500 C501 1.386 . S
C500 C502 1.391 . S
C501 C500 1.386 . S
C501 C505 1.393 . S
C502 H494 0.950 . S
C502 C500 1.391 . S
C502 C503 1.400 . S
C503 C502 1.400 . S
C503 C504 1.398 . S
C503 C509 1.491 . S
C504 H495 0.950 . S
C504 C503 1.398 . S
C504 C505 1.391 . S
C505 H493 0.950 . S
C505 C501 1.393 . S
C505 C504 1.391 . S
C506 H496 0.950 . S
C506 C507 1.386 . S
C506 C508 1.391 . S
C507 C506 1.386 . S
C507 C511 1.393 . S
C508 H497 0.950 . S
C508 C506 1.391 . S
C508 C509 1.400 . S
C509 C503 1.491 . S
C509 C508 1.400 . S
C509 C510 1.398 . S
C510 H498 0.950 . S
C510 C509 1.398 . S
C510 C511 1.391 . S
C511 H499 0.950 . S
C511 C507 1.393 . S
C511 C510 1.391 . S
H512 C520 0.950 . S
H513 C525 0.950 . S
H514 C522 0.950 . S
H515 C524 0.950 . S
H516 C526 0.950 . S
H517 C528 0.950 . S
H518 C530 0.950 . S
H519 C531 0.950 . S
C520 H512 0.950 . S
C520 C521 1.386 . S
C520 C522 1.391 . S
C521 C520 1.386 . S
C521 C525 1.393 . S
C522 H514 0.950 . S
C522 C520 1.391 . S
C522 C523 1.400 . S
C523 C522 1.400 . S
C523 C524 1.398 . S
C523 C529 1.491 . S
C524 H515 0.950 . S
C524 C523 1.398 . S
C524 C525 1.391 . S
C525 H513 0.950 . S
C525 C521 1.393 . S
C525 C524 1.391 . S
C526 H516 0.950 . S
C526 C527 1.386 . S
C526 C528 1.391 . S
C527 C526 1.386 . S
C527 C531 1.393 . S
C528 H517 0.950 . S
C528 C526 1.391 . S
C528 C529 1.400 . S
C529 C523 1.491 . S
C529 C528 1.400 . S
C529 C530 1.398 . S
C530 H518 0.950 . S
C530 C529 1.398 . S
C530 C531 1.391 . S
C531 H519 0.950 . S
C531 C527 1.393 . S
C531 C530 1.391 . S
H532 C540 0.950 . S
H533 C545 0.950 . S
H534 C542 0.950 . S
H535 C544 0.950 . S
H536 C546 0.950 . S
H537 C548 0.950 . S
H538 C550 0.950 . S
H539 C551 0.950 . S
C540 H532 0.950 . S
C540 C541 1.388 . S
C540 C542 1.391 . S
C541 C540 1.388 . S
C541 C545 1.390 1_655 S
C542 H534 0.950 . S
C542 C540 1.391 . S
C542 C543 1.385 1_655 S
C543 C542 1.385 1_455 S
C543 C544 1.412 . S
C543 C549 1.492 . S
C544 H535 0.950 . S
C544 C543 1.412 . S
C544 C545 1.391 . S
C545 H533 0.950 . S
C545 C541 1.390 1_455 S
C545 C544 1.391 . S
C546 H536 0.950 . S
C546 C547 1.386 . S
C546 C548 1.391 . S
C547 C546 1.386 . S
C547 C551 1.393 1_455 S
C548 H537 0.950 . S
C548 C546 1.391 . S
C548 C549 1.400 . S
C549 C543 1.492 . S
C549 C548 1.400 . S
C549 C550 1.398 1_455 S
C550 H538 0.950 . S
C550 C549 1.398 1_655 S
C550 C551 1.391 . S
C551 H539 0.950 . S
C551 C547 1.393 1_655 S
C551 C550 1.391 . S
H552 C560 0.950 . S
H553 C565 0.950 . S
H554 C562 0.950 . S
H555 C564 0.950 . S
H556 C566 0.950 . S
H557 C568 0.950 . S
H558 C570 0.956 . S
H559 C571 0.950 . S
C560 H552 0.950 . S
C560 C561 1.389 . S
C560 C562 1.391 . S
C561 C560 1.389 . S
C561 C565 1.390 1_565 S
C562 H554 0.950 . S
C562 C560 1.391 . S
C562 C563 1.419 . S
C563 C562 1.419 . S
C563 C564 1.380 1_565 S
C563 C569 1.491 1_554 S
C564 H555 0.950 . S
C564 C563 1.380 1_545 S
C564 C565 1.391 . S
C565 H553 0.950 . S
C565 C561 1.390 1_545 S
C565 C564 1.391 . S
C566 H556 0.950 . S
C566 C567 1.348 1_545 S
C566 C568 1.391 . S
C567 C566 1.348 1_565 S
C567 C571 1.430 . S
C568 H557 0.950 . S
C568 C566 1.391 . S
C568 C569 1.379 1_545 S
C569 C563 1.491 1_556 S
C569 C568 1.379 1_565 S
C569 C570 1.420 . S
C570 H558 0.956 . S
C570 C569 1.420 . S
C570 C571 1.391 . S
C571 H559 0.950 . S
C571 C567 1.430 . S
C571 C570 1.391 . S
H572 C580 0.950 . S
H573 C585 0.950 . S
H574 C582 0.950 . S
H575 C584 0.950 . S
H576 C586 0.950 . S
H577 C588 0.950 . S
H578 C590 0.950 . S
H579 C591 0.950 . S
C580 H572 0.950 . S
C580 C581 1.386 . S
C580 C582 1.391 . S
C581 C580 1.386 . S
C581 C585 1.393 . S
C582 H574 0.950 . S
C582 C580 1.391 . S
C582 C583 1.400 . S
C583 C582 1.400 . S
C583 C584 1.398 . S
C583 C589 1.491 1_554 S
C584 H575 0.950 . S
C584 C583 1.398 . S
C584 C585 1.391 . S
C585 H573 0.950 . S
C585 C581 1.393 . S
C585 C584 1.391 . S
C586 H576 0.950 . S
C586 C587 1.386 . S
C586 C588 1.391 . S
C587 C586 1.386 . S
C587 C591 1.393 . S
C588 H577 0.950 . S
C588 C586 1.391 . S
C588 C589 1.400 . S
C589 C583 1.491 1_556 S
C589 C588 1.400 . S
C589 C590 1.398 . S
C590 H578 0.950 . S
C590 C589 1.398 . S
C590 C591 1.391 . S
C591 H579 0.950 . S
C591 C587 1.393 . S
C591 C590 1.391 . S
H592 C600 0.950 . S
H593 C605 0.950 . S
H594 C602 0.950 . S
H595 C604 0.950 . S
H596 C606 0.950 . S
H597 C608 0.950 . S
H598 C610 0.950 1_554 S
H599 C611 0.950 . S
C600 H592 0.950 . S
C600 C601 1.386 . S
C600 C602 1.391 . S
C601 C600 1.386 . S
C601 C605 1.393 . S
C602 H594 0.950 . S
C602 C600 1.391 . S
C602 C603 1.400 . S
C603 C602 1.400 . S
C603 C604 1.398 . S
C603 C609 1.491 1_554 S
C604 H595 0.950 . S
C604 C603 1.398 . S
C604 C605 1.391 . S
C605 H593 0.950 . S
C605 C601 1.393 . S
C605 C604 1.391 . S
C606 H596 0.950 . S
C606 C607 1.386 . S
C606 C608 1.391 . S
C607 C606 1.386 . S
C607 C611 1.393 . S
C608 H597 0.950 . S
C608 C606 1.391 . S
C608 C609 1.400 . S
C609 C603 1.491 1_556 S
C609 C608 1.400 . S
C609 C610 1.398 . S
C610 H598 0.950 1_556 S
C610 C609 1.398 . S
C610 C611 1.391 . S
C611 H599 0.950 . S
C611 C607 1.393 . S
C611 C610 1.391 . S
H612 C620 0.950 . S
H613 C625 0.950 . S
H614 C622 0.950 . S
H615 C624 0.950 . S
H616 C626 0.950 . S
H617 C628 0.950 . S
H618 C630 0.950 1_554 S
H619 C631 0.950 . S
C620 H612 0.950 . S
C620 C621 1.386 . S
C620 C622 1.391 . S
C621 C620 1.386 . S
C621 C625 1.393 1_655 S
C622 H614 0.950 . S
C622 C620 1.391 . S
C622 C623 1.400 . S
C623 C622 1.400 . S
C623 C624 1.398 1_655 S
C623 C629 1.492 1_554 S
C624 H615 0.950 . S
C624 C623 1.398 1_455 S
C624 C625 1.391 . S
C625 H613 0.950 . S
C625 C621 1.393 1_455 S
C625 C624 1.391 . S
C626 H616 0.950 . S
C626 C627 1.375 1_455 S
C626 C628 1.391 . S
C627 C626 1.375 1_655 S
C627 C631 1.403 . S
C628 H617 0.950 . S
C628 C626 1.391 . S
C628 C629 1.392 1_455 S
C629 C623 1.492 1_556 S
C629 C628 1.392 1_655 S
C629 C630 1.407 . S
C630 H618 0.950 1_556 S
C630 C629 1.407 . S
C630 C631 1.391 . S
C631 H619 0.950 . S
C631 C627 1.403 . S
C631 C630 1.391 . S
H632 C640 0.950 . S
H633 C645 0.950 . S
H634 C642 0.950 . S
H635 C644 0.950 . S
H636 C646 0.950 . S
H637 C648 0.950 . S
H638 C650 0.950 1_455 S
H639 C651 0.950 . S
C640 H632 0.950 . S
C640 C641 1.386 . S
C640 C642 1.391 . S
C641 C640 1.386 . S
C641 C645 1.393 1_455 S
C642 H634 0.950 . S
C642 C640 1.391 . S
C642 C643 1.400 1_455 S
C643 C642 1.400 1_655 S
C643 C644 1.398 . S
C643 C649 1.491 . S
C644 H635 0.950 . S
C644 C643 1.398 . S
C644 C645 1.391 . S
C645 H633 0.950 . S
C645 C641 1.393 1_655 S
C645 C644 1.391 . S
C646 H636 0.950 . S
C646 C647 1.386 . S
C646 C648 1.391 . S
C647 C646 1.386 . S
C647 C651 1.393 . S
C648 H637 0.950 . S
C648 C646 1.391 . S
C648 C649 1.400 . S
C649 C643 1.491 . S
C649 C648 1.400 . S
C649 C650 1.398 . S
C650 H638 0.950 1_655 S
C650 C649 1.398 . S
C650 C651 1.391 . S
C651 H639 0.950 . S
C651 C647 1.393 . S
C651 C650 1.391 . S
H652 C660 0.950 . S
H653 C665 0.950 . S
H654 C662 0.950 . S
H655 C664 0.950 . S
H656 C666 0.950 . S
H657 C668 0.950 1_545 S
H658 C670 0.950 . S
H659 C671 0.950 . S
C660 H652 0.950 . S
C660 C661 1.386 1_565 S
C660 C662 1.391 . S
C661 C660 1.386 1_545 S
C661 C665 1.393 . S
C662 H654 0.950 . S
C662 C660 1.391 . S
C662 C663 1.400 . S
C663 C662 1.400 . S
C663 C664 1.398 1_565 S
C663 C669 1.491 . S
C664 H655 0.950 . S
C664 C663 1.398 1_545 S
C664 C665 1.391 . S
C665 H653 0.950 . S
C665 C661 1.393 . S
C665 C664 1.391 . S
C666 H656 0.950 . S
C666 C667 1.386 . S
C666 C668 1.391 . S
C667 C666 1.386 . S
C667 C671 1.393 . S
C668 H657 0.950 1_565 S
C668 C666 1.391 . S
C668 C669 1.400 . S
C669 C663 1.491 . S
C669 C668 1.400 . S
C669 C670 1.398 . S
C670 H658 0.950 . S
C670 C669 1.398 . S
C670 C671 1.391 . S
C671 H659 0.950 . S
C671 C667 1.393 . S
C671 C670 1.391 . S
H672 C680 0.950 . S
H673 C685 0.950 . S
H674 C682 0.950 . S
H675 C684 0.950 . S
H676 C686 0.950 . S
H677 C688 0.950 . S
H678 C690 0.950 . S
H679 C691 0.950 . S
C680 H672 0.950 . S
C680 C681 1.386 . S
C680 C682 1.391 . S
C681 C680 1.386 . S
C681 C685 1.393 . S
C682 H674 0.950 . S
C682 C680 1.391 . S
C682 C683 1.400 . S
C683 C682 1.400 . S
C683 C684 1.398 . S
C683 C689 1.491 . S
C684 H675 0.950 . S
C684 C683 1.398 . S
C684 C685 1.391 . S
C685 H673 0.950 . S
C685 C681 1.393 . S
C685 C684 1.391 . S
C686 H676 0.950 . S
C686 C687 1.386 . S
C686 C688 1.391 . S
C687 C686 1.386 . S
C687 C691 1.393 . S
C688 H677 0.950 . S
C688 C686 1.391 . S
C688 C689 1.400 . S
C689 C683 1.491 . S
C689 C688 1.400 . S
C689 C690 1.398 . S
C690 H678 0.950 . S
C690 C689 1.398 . S
C690 C691 1.391 . S
C691 H679 0.950 . S
C691 C687 1.393 . S
C691 C690 1.391 . S
H692 C700 0.950 . S
H693 C705 0.950 . S
H694 C702 0.950 . S
H695 C704 0.950 . S
H696 C706 0.950 . S
H697 C708 0.950 . S
H698 C710 0.950 . S
H699 C711 0.950 . S
C700 H692 0.950 . S
C700 C701 1.386 . S
C700 C702 1.391 . S
C701 C700 1.386 . S
C701 C705 1.393 . S
C702 H694 0.950 . S
C702 C700 1.391 . S
C702 C703 1.400 . S
C703 C702 1.400 . S
C703 C704 1.398 . S
C703 C709 1.491 . S
C704 H695 0.950 . S
C704 C703 1.398 . S
C704 C705 1.391 . S
C705 H693 0.950 . S
C705 C701 1.393 . S
C705 C704 1.391 . S
C706 H696 0.950 . S
C706 C707 1.386 . S
C706 C708 1.391 . S
C707 C706 1.386 . S
C707 C711 1.393 . S
C708 H697 0.950 . S
C708 C706 1.391 . S
C708 C709 1.400 . S
C709 C703 1.491 . S
C709 C708 1.400 . S
C709 C710 1.398 . S
C710 H698 0.950 . S
C710 C709 1.398 . S
C710 C711 1.391 . S
C711 H699 0.950 . S
C711 C707 1.393 . S
C711 C710 1.391 . S
H712 C720 0.950 . S
H713 C725 0.950 . S
H714 C722 0.950 . S
H715 C724 0.950 . S
H716 C726 0.950 . S
H717 C728 0.953 . S
H718 C730 0.950 1_655 S
H719 C731 0.950 . S
C720 H712 0.950 . S
C720 C721 1.386 . S
C720 C722 1.391 . S
C721 C720 1.386 . S
C721 C725 1.393 1_655 S
C722 H714 0.950 . S
C722 C720 1.391 . S
C722 C723 1.400 1_655 S
C723 C722 1.400 1_455 S
C723 C724 1.398 . S
C723 C729 1.491 . S
C724 H715 0.950 . S
C724 C723 1.398 . S
C724 C725 1.391 . S
C725 H713 0.950 . S
C725 C721 1.393 1_455 S
C725 C724 1.391 . S
C726 H716 0.950 . S
C726 C727 1.386 . S
C726 C728 1.386 1_556 S
C727 C726 1.386 . S
C727 C731 1.393 . S
C728 H717 0.953 . S
C728 C726 1.386 1_554 S
C728 C729 1.402 . S
C729 C723 1.491 . S
C729 C728 1.402 . S
C729 C730 1.398 1_554 S
C730 H718 0.950 1_455 S
C730 C729 1.398 1_556 S
C730 C731 1.391 . S
C731 H719 0.950 . S
C731 C727 1.393 . S
C731 C730 1.391 . S
H732 C740 0.950 . S
H733 C745 0.950 . S
H734 C742 0.950 1_556 S
H735 C744 0.950 . S
H736 C746 0.950 . S
H737 C748 0.950 . S
H738 C750 0.950 . S
H739 C751 0.950 . S
C740 H732 0.950 . S
C740 C741 1.386 . S
C740 C742 1.391 . S
C741 C740 1.386 . S
C741 C745 1.393 1_565 S
C742 H734 0.950 1_554 S
C742 C740 1.391 . S
C742 C743 1.400 1_565 S
C743 C742 1.400 1_545 S
C743 C744 1.398 . S
C743 C749 1.491 . S
C744 H735 0.950 . S
C744 C743 1.398 . S
C744 C745 1.391 . S
C745 H733 0.950 . S
C745 C741 1.393 1_545 S
C745 C744 1.391 . S
C746 H736 0.950 . S
C746 C747 1.386 1_554 S
C746 C748 1.391 . S
C747 C746 1.386 1_556 S
C747 C751 1.393 . S
C748 H737 0.950 . S
C748 C746 1.391 . S
C748 C749 1.400 . S
C749 C743 1.491 . S
C749 C748 1.400 . S
C749 C750 1.398 1_554 S
C750 H738 0.950 . S
C750 C749 1.398 1_556 S
C750 C751 1.391 . S
C751 H739 0.950 . S
C751 C747 1.393 . S
C751 C750 1.391 . S
H752 C760 0.950 . S
H753 C765 0.950 . S
H754 C762 0.950 . S
H755 C764 0.950 . S
H756 C766 0.950 1_554 S
H757 C768 0.950 . S
H758 C770 0.950 . S
H759 C771 0.950 . S
C760 H752 0.950 . S
C760 C761 1.386 . S
C760 C762 1.391 . S
C761 C760 1.386 . S
C761 C765 1.393 . S
C762 H754 0.950 . S
C762 C760 1.391 . S
C762 C763 1.400 . S
C763 C762 1.400 . S
C763 C764 1.398 . S
C763 C769 1.491 . S
C764 H755 0.950 . S
C764 C763 1.398 . S
C764 C765 1.391 . S
C765 H753 0.950 . S
C765 C761 1.393 . S
C765 C764 1.391 . S
C766 H756 0.950 1_556 S
C766 C767 1.386 . S
C766 C768 1.391 1_556 S
C767 C766 1.386 . S
C767 C771 1.393 . S
C768 H757 0.950 . S
C768 C766 1.391 1_554 S
C768 C769 1.400 . S
C769 C763 1.491 . S
C769 C768 1.400 . S
C769 C770 1.398 1_554 S
C770 H758 0.950 . S
C770 C769 1.398 1_556 S
C770 C771 1.391 . S
C771 H759 0.950 . S
C771 C767 1.393 . S
C771 C770 1.391 . S
H772 C780 0.950 . S
H773 C785 0.950 . S
H774 C782 0.950 1_556 S
H775 C784 0.950 . S
H776 C786 0.950 . S
H777 C788 0.950 . S
H778 C790 0.950 . S
H779 C791 0.950 . S
C780 H772 0.950 . S
C780 C781 1.386 . S
C780 C782 1.391 . S
C781 C780 1.386 . S
C781 C785 1.393 . S
C782 H774 0.950 1_554 S
C782 C780 1.391 . S
C782 C783 1.400 . S
C783 C782 1.400 . S
C783 C784 1.398 . S
C783 C789 1.491 . S
C784 H775 0.950 . S
C784 C783 1.398 . S
C784 C785 1.391 . S
C785 H773 0.950 . S
C785 C781 1.393 . S
C785 C784 1.391 . S
C786 H776 0.950 . S
C786 C787 1.386 1_554 S
C786 C788 1.391 . S
C787 C786 1.386 1_556 S
C787 C791 1.393 . S
C788 H777 0.950 . S
C788 C786 1.391 . S
C788 C789 1.400 . S
C789 C783 1.491 . S
C789 C788 1.400 . S
C789 C790 1.398 1_554 S
C790 H778 0.950 . S
C790 C789 1.398 1_556 S
C790 C791 1.391 . S
C791 H779 0.950 . S
C791 C787 1.393 . S
C791 C790 1.391 . S
H792 C800 0.950 . S
H793 C805 0.950 . S
H794 C802 0.950 . S
H795 C804 0.950 . S
H796 C806 0.950 . S
H797 C808 0.950 . S
H798 C810 0.950 . S
H799 C811 0.950 . S
C800 H792 0.950 . S
C800 C801 1.386 1_655 S
C800 C802 1.391 . S
C801 C800 1.386 1_455 S
C801 C805 1.393 . S
C802 H794 0.950 . S
C802 C800 1.391 . S
C802 C803 1.400 1_655 S
C803 C802 1.400 1_455 S
C803 C804 1.398 . S
C803 C809 1.491 . S
C804 H795 0.950 . S
C804 C803 1.398 . S
C804 C805 1.391 . S
C805 H793 0.950 . S
C805 C801 1.393 . S
C805 C804 1.391 . S
C806 H796 0.950 . S
C806 C807 1.386 . S
C806 C808 1.391 . S
C807 C806 1.386 . S
C807 C811 1.393 1_455 S
C808 H797 0.950 . S
C808 C806 1.391 . S
C808 C809 1.400 . S
C809 C803 1.491 . S
C809 C808 1.400 . S
C809 C810 1.398 1_455 S
C810 H798 0.950 . S
C810 C809 1.398 1_655 S
C810 C811 1.391 . S
C811 H799 0.950 . S
C811 C807 1.393 1_655 S
C811 C810 1.391 . S
H812 C820 0.950 . S
H813 C825 0.950 . S
H814 C822 0.950 . S
H815 C824 0.950 . S
H816 C826 0.950 . S
H817 C828 0.950 . S
H818 C830 0.950 . S
H819 C831 0.950 . S
C820 H812 0.950 . S
C820 C821 1.386 . S
C820 C822 1.391 . S
C821 C820 1.386 . S
C821 C825 1.393 1_545 S
C822 H814 0.950 . S
C822 C820 1.391 . S
C822 C823 1.400 . S
C823 C822 1.400 . S
C823 C824 1.398 1_545 S
C823 C829 1.491 . S
C824 H815 0.950 . S
C824 C823 1.398 1_565 S
C824 C825 1.391 . S
C825 H813 0.950 . S
C825 C821 1.393 1_565 S
C825 C824 1.391 . S
C826 H816 0.950 . S
C826 C827 1.386 1_565 S
C826 C828 1.391 . S
C827 C826 1.386 1_545 S
C827 C831 1.393 . S
C828 H817 0.950 . S
C828 C826 1.391 . S
C828 C829 1.400 1_565 S
C829 C823 1.491 . S
C829 C828 1.400 1_545 S
C829 C830 1.398 . S
C830 H818 0.950 . S
C830 C829 1.398 . S
C830 C831 1.391 . S
C831 H819 0.950 . S
C831 C827 1.393 . S
C831 C830 1.391 . S
H832 C840 0.950 . S
H833 C845 0.950 . S
H834 C842 0.950 . S
H835 C844 0.950 . S
H836 C846 0.950 . S
H837 C848 0.950 . S
H838 C850 0.950 . S
H839 C851 0.950 . S
C840 H832 0.950 . S
C840 C841 1.386 . S
C840 C842 1.391 . S
C841 C840 1.386 . S
C841 C845 1.393 . S
C842 H834 0.950 . S
C842 C840 1.391 . S
C842 C843 1.400 . S
C843 C842 1.400 . S
C843 C844 1.398 . S
C843 C849 1.491 . S
C844 H835 0.950 . S
C844 C843 1.398 . S
C844 C845 1.391 . S
C845 H833 0.950 . S
C845 C841 1.393 . S
C845 C844 1.391 . S
C846 H836 0.950 . S
C846 C847 1.386 . S
C846 C848 1.391 . S
C847 C846 1.386 . S
C847 C851 1.393 . S
C848 H837 0.950 . S
C848 C846 1.391 . S
C848 C849 1.400 . S
C849 C843 1.491 . S
C849 C848 1.400 . S
C849 C850 1.398 . S
C850 H838 0.950 . S
C850 C849 1.398 . S
C850 C851 1.391 . S
C851 H839 0.950 . S
C851 C847 1.393 . S
C851 C850 1.391 . S
H852 C860 0.950 . S
H853 C865 0.950 . S
H854 C862 0.950 . S
H855 C864 0.950 . S
H856 C866 0.950 . S
H857 C868 0.950 . S
H858 C870 0.950 . S
H859 C871 0.950 . S
C860 H852 0.950 . S
C860 C861 1.386 . S
C860 C862 1.391 . S
C861 C860 1.386 . S
C861 C865 1.393 . S
C862 H854 0.950 . S
C862 C860 1.391 . S
C862 C863 1.400 . S
C863 C862 1.400 . S
C863 C864 1.398 . S
C863 C869 1.491 . S
C864 H855 0.950 . S
C864 C863 1.398 . S
C864 C865 1.391 . S
C865 H853 0.950 . S
C865 C861 1.393 . S
C865 C864 1.391 . S
C866 H856 0.950 . S
C866 C867 1.386 . S
C866 C868 1.391 . S
C867 C866 1.386 . S
C867 C871 1.393 . S
C868 H857 0.950 . S
C868 C866 1.391 . S
C868 C869 1.400 . S
C869 C863 1.491 . S
C869 C868 1.400 . S
C869 C870 1.398 . S
C870 H858 0.950 . S
C870 C869 1.398 . S
C870 C871 1.391 . S
C871 H859 0.950 . S
C871 C867 1.393 . S
C871 C870 1.391 . S
H872 C880 0.950 . S
H873 C885 0.950 . S
H874 C882 0.950 . S
H875 C884 0.950 . S
H876 C886 0.950 . S
H877 C888 0.950 . S
H878 C890 0.950 . S
H879 C891 0.950 . S
C880 H872 0.950 . S
C880 C881 1.386 1_455 S
C880 C882 1.391 . S
C881 C880 1.386 1_655 S
C881 C885 1.393 . S
C882 H874 0.950 . S
C882 C880 1.391 . S
C882 C883 1.400 1_455 S
C883 C882 1.400 1_655 S
C883 C884 1.398 . S
C883 C889 1.491 . S
C884 H875 0.950 . S
C884 C883 1.398 . S
C884 C885 1.391 . S
C885 H873 0.950 . S
C885 C881 1.393 . S
C885 C884 1.391 . S
C886 H876 0.950 . S
C886 C887 1.386 . S
C886 C888 1.391 . S
C887 C886 1.386 . S
C887 C891 1.393 1_655 S
C888 H877 0.950 . S
C888 C886 1.391 . S
C888 C889 1.400 . S
C889 C883 1.491 . S
C889 C888 1.400 . S
C889 C890 1.398 1_655 S
C890 H878 0.950 . S
C890 C889 1.398 1_455 S
C890 C891 1.391 . S
C891 H879 0.950 . S
C891 C887 1.393 1_455 S
C891 C890 1.391 . S
H892 C900 0.950 . S
H893 C905 0.950 . S
H894 C902 0.950 . S
H895 C904 0.950 . S
H896 C906 0.950 . S
H897 C908 0.950 . S
H898 C910 0.950 . S
H899 C911 0.950 . S
C900 H892 0.950 . S
C900 C901 1.386 . S
C900 C902 1.391 . S
C901 C900 1.386 . S
C901 C905 1.393 1_565 S
C902 H894 0.950 . S
C902 C900 1.391 . S
C902 C903 1.400 . S
C903 C902 1.400 . S
C903 C904 1.398 1_565 S
C903 C909 1.491 . S
C904 H895 0.950 . S
C904 C903 1.398 1_545 S
C904 C905 1.391 . S
C905 H893 0.950 . S
C905 C901 1.393 1_545 S
C905 C904 1.391 . S
C906 H896 0.950 . S
C906 C907 1.386 1_545 S
C906 C908 1.391 . S
C907 C906 1.386 1_565 S
C907 C911 1.393 . S
C908 H897 0.950 . S
C908 C906 1.391 . S
C908 C909 1.400 1_545 S
C909 C903 1.491 . S
C909 C908 1.400 1_565 S
C909 C910 1.398 . S
C910 H898 0.950 . S
C910 C909 1.398 . S
C910 C911 1.391 . S
C911 H899 0.950 . S
C911 C907 1.393 . S
C911 C910 1.391 . S
H912 C920 0.950 . S
H913 C925 0.950 . S
H914 C922 0.950 . S
H915 C924 0.950 . S
H916 C926 0.950 . S
H917 C928 0.950 . S
H918 C930 0.950 . S
H919 C931 0.950 . S
C920 H912 0.950 . S
C920 C921 1.386 . S
C920 C922 1.391 . S
C921 C920 1.386 . S
C921 C925 1.393 . S
C922 H914 0.950 . S
C922 C920 1.391 . S
C922 C923 1.400 . S
C923 C922 1.400 . S
C923 C924 1.398 . S
C923 C929 1.491 . S
C924 H915 0.950 . S
C924 C923 1.398 . S
C924 C925 1.391 . S
C925 H913 0.950 . S
C925 C921 1.393 . S
C925 C924 1.391 . S
C926 H916 0.950 . S
C926 C927 1.386 . S
C926 C928 1.391 . S
C927 C926 1.386 . S
C927 C931 1.393 . S
C928 H917 0.950 . S
C928 C926 1.391 . S
C928 C929 1.400 . S
C929 C923 1.491 . S
C929 C928 1.400 . S
C929 C930 1.398 . S
C930 H918 0.950 . S
C930 C929 1.398 . S
C930 C931 1.391 . S
C931 H919 0.950 . S
C931 C927 1.393 . S
C931 C930 1.391 . S
H932 C940 0.950 . S
H933 C945 0.950 . S
H934 C942 0.950 . S
H935 C944 0.950 . S
H936 C946 0.950 . S
H937 C948 0.950 . S
H938 C950 0.950 . S
H939 C951 0.950 . S
C940 H932 0.950 . S
C940 C941 1.386 . S
C940 C942 1.391 . S
C941 C940 1.386 . S
C941 C945 1.393 . S
C942 H934 0.950 . S
C942 C940 1.391 . S
C942 C943 1.400 . S
C943 C942 1.400 . S
C943 C944 1.398 . S
C943 C949 1.491 . S
C944 H935 0.950 . S
C944 C943 1.398 . S
C944 C945 1.391 . S
C945 H933 0.950 . S
C945 C941 1.393 . S
C945 C944 1.391 . S
C946 H936 0.950 . S
C946 C947 1.386 . S
C946 C948 1.391 . S
C947 C946 1.386 . S
C947 C951 1.393 . S
C948 H937 0.950 . S
C948 C946 1.391 . S
C948 C949 1.400 . S
C949 C943 1.491 . S
C949 C948 1.400 . S
C949 C950 1.398 . S
C950 H938 0.950 . S
C950 C949 1.398 . S
C950 C951 1.391 . S
C951 H939 0.950 . S
C951 C947 1.393 . S
C951 C950 1.391 . S
C481 C255 2.137 1_545 S
C487 C321 2.323 1_545 S
C507 C361 2.348 . S
C501 C294 2.124 . S
C527 C401 2.339 . S
C521 C177 2.149 . S
C547 C441 2.338 1_455 S
C541 C216 2.149 . S
C567 C330 2.328 1_565 S
C561 C99 2.141 . S
C581 C138 2.155 . S
C587 C370 2.353 . S
C601 C21 2.166 . S
C607 C410 2.338 . S
C621 C60 2.152 . S
C627 C450 2.333 1_655 S
C647 C327 0.403 . S
C641 C196 0.415 1_455 S
C667 C367 0.426 . S
C661 C235 0.392 1_545 S
C687 C407 0.427 . S
C681 C289 0.387 . S
C701 C157 0.438 . S
C707 C447 0.423 . S
C721 C40 0.381 . S
C727 C318 0.419 . S
C747 C358 0.461 . S
C741 C79 0.415 . S
C767 C398 0.456 . S
C761 C133 0.444 . S
C781 C1 0.438 . S
C787 C438 0.470 . S
C801 C211 2.828 . S
C807 C331 3.204 . S
C821 C250 2.782 . S
C827 C371 3.183 . S
C847 C411 3.188 . S
C841 C274 2.811 . S
C867 C451 3.199 . S
C861 C172 2.790 . S
C881 C55 2.808 1_655 S
C887 C322 3.212 . S
C907 C362 3.187 . S
C901 C94 2.805 1_565 S
C927 C402 3.187 . S
C921 C118 2.789 . S
C941 C16 2.815 . S
C947 C442 3.202 . S
