# Generated by pormake.
# Topology anh, (6,3)-cn, num edge types: 1
# Building blocks:
#     Node 0, Type 0, BuildingBlock: MIFKUJ_clean_sbu_0, # of connection points: 6
#     Node 1, Type 0, BuildingBlock: MIFKUJ_clean_sbu_0, # of connection points: 6
#     Node 2, Type 0, BuildingBlock: MIFKUJ_clean_sbu_0, # of connection points: 6
#     Node 3, Type 1, BuildingBlock: VETTIZ_charged_linker_0, # of connection points: 3
#     Node 4, Type 1, BuildingBlock: VETTIZ_charged_linker_0, # of connection points: 3
#     Node 5, Type 1, BuildingBlock: VETTIZ_charged_linker_0, # of connection points: 3
#     Node 6, Type 1, BuildingBlock: VETTIZ_charged_linker_0, # of connection points: 3
#     Node 7, Type 1, BuildingBlock: VETTIZ_charged_linker_0, # of connection points: 3
#     Node 8, Type 1, BuildingBlock: VETTIZ_charged_linker_0, # of connection points: 3
#     Edge 9, Type (0, 1), BuildingBlock: ZUJKAS_clean_linker_0, # of connection points: 2
#     Edge 10, Type (0, 1), BuildingBlock: ZUJKAS_clean_linker_0, # of connection points: 2
#     Edge 11, Type (0, 1), BuildingBlock: ZUJKAS_clean_linker_0, # of connection points: 2
#     Edge 12, Type (0, 1), BuildingBlock: ZUJKAS_clean_linker_0, # of connection points: 2
#     Edge 13, Type (0, 1), BuildingBlock: ZUJKAS_clean_linker_0, # of connection points: 2
#     Edge 14, Type (0, 1), BuildingBlock: ZUJKAS_clean_linker_0, # of connection points: 2
#     Edge 15, Type (0, 1), BuildingBlock: ZUJKAS_clean_linker_0, # of connection points: 2
#     Edge 16, Type (0, 1), BuildingBlock: ZUJKAS_clean_linker_0, # of connection points: 2
#     Edge 17, Type (0, 1), BuildingBlock: ZUJKAS_clean_linker_0, # of connection points: 2
#     Edge 18, Type (0, 1), BuildingBlock: ZUJKAS_clean_linker_0, # of connection points: 2
#     Edge 19, Type (0, 1), BuildingBlock: ZUJKAS_clean_linker_0, # of connection points: 2
#     Edge 20, Type (0, 1), BuildingBlock: ZUJKAS_clean_linker_0, # of connection points: 2
#     Edge 21, Type (0, 1), BuildingBlock: ZUJKAS_clean_linker_0, # of connection points: 2
#     Edge 22, Type (0, 1), BuildingBlock: ZUJKAS_clean_linker_0, # of connection points: 2
#     Edge 23, Type (0, 1), BuildingBlock: ZUJKAS_clean_linker_0, # of connection points: 2
#     Edge 24, Type (0, 1), BuildingBlock: ZUJKAS_clean_linker_0, # of connection points: 2
#     Edge 25, Type (0, 1), BuildingBlock: ZUJKAS_clean_linker_0, # of connection points: 2
#     Edge 26, Type (0, 1), BuildingBlock: ZUJKAS_clean_linker_0, # of connection points: 2
# Relax obj value: 0.139
# Max RMSD: 0.185
# Mean RMSD: 0.143
data_MOF--net-anh--node1-MIFKUJ_clean_sbu_0--node2-VETTIZ_charged_linker_0--edge1-ZUJKAS_clean_linker_0
_symmetry_space_group_name_H-M    P1
_symmetry_Int_Tables_number       1
_symmetry_cell_setting            triclinic
loop_
_symmetry_equiv_pos_as_xyz
'x, y, z'
_cell_length_a     45.347637
_cell_length_b     45.441844
_cell_length_c     79.879371
_cell_angle_alpha  93.745215
_cell_angle_beta   90.78115
_cell_angle_gamma 119.90799
loop_
_atom_site_label
_atom_site_type_symbol
_atom_site_fract_x
_atom_site_fract_y
_atom_site_fract_z
_atom_type_partial_charge
Zn0 Zn 0.04315 0.56202 0.16596 0.0
Zn1 Zn 0.96907 0.48856 0.16401 0.0
C2 C 0.09811 0.5518 0.17467 0.0
O3 O 0.10074 0.57443 0.1866 0.0
C4 C 0.91614 0.50291 0.15513 0.0
O5 O 0.91629 0.48587 0.14123 0.0
O6 O 0.07685 0.61193 0.16588 0.0
O7 O 0.01273 0.55271 0.1454 0.0
O8 O 0.99055 0.49725 0.14158 0.0
C9 C 0.09103 0.62149 0.15209 0.0
O10 O 0.08248 0.5988 0.1392 0.0
O11 O 0.07314 0.53999 0.1638 0.0
C12 C 0.92001 0.42648 0.17574 0.0
O13 O 0.92774 0.44679 0.18956 0.0
O14 O 0.93563 0.43852 0.1626 0.0
O15 O 0.99876 0.49824 0.18514 0.0
O16 O 0.02181 0.5541 0.18833 0.0
O17 O 0.93833 0.50954 0.16693 0.0
C18 C 1.0013 0.52583 0.13561 0.0
C19 C 0.011 0.52574 0.19461 0.0
Zn20 Zn 0.561 0.06539 0.49681 0.0
Zn21 Zn 0.53825 0.97318 0.49559 0.0
C22 C 0.62777 0.11242 0.51161 0.0
O23 O 0.60967 0.11324 0.52416 0.0
C24 C 0.4717 0.91746 0.49078 0.0
O25 O 0.48549 0.9157 0.47666 0.0
O26 O 0.54941 0.1025 0.49685 0.0
O27 O 0.54578 0.04039 0.47398 0.0
O28 O 0.53623 0.98745 0.47252 0.0
C29 C 0.52807 0.10318 0.48664 0.0
O30 O 0.50995 0.07694 0.47572 0.0
O31 O 0.61256 0.09157 0.49882 0.0
C32 C 0.55363 0.92469 0.5058 0.0
O33 O 0.53827 0.92878 0.51883 0.0
O34 O 0.55821 0.94263 0.49352 0.0
O35 O 0.56529 0.00874 0.51463 0.0
O36 O 0.54108 0.04016 0.51723 0.0
O37 O 0.48944 0.94208 0.50174 0.0
C38 C 0.53801 0.01258 0.46558 0.0
C39 C 0.55066 0.02124 0.52358 0.0
Zn40 Zn 0.56491 0.51651 0.83505 0.0
Zn41 Zn 0.4887 0.52295 0.8316 0.0
C42 C 0.55787 0.453 0.84106 0.0
O43 O 0.57817 0.47318 0.85374 0.0
C44 C 0.49409 0.5837 0.81987 0.0
O45 O 0.4703 0.56061 0.80915 0.0
O46 O 0.61563 0.53758 0.83592 0.0
O47 O 0.55498 0.53702 0.81567 0.0
O48 O 0.50004 0.50254 0.8113 0.0
C49 C 0.6286 0.53342 0.8226 0.0
O50 O 0.6084 0.5159 0.80937 0.0
O51 O 0.54681 0.46552 0.83048 0.0
C52 C 0.42445 0.51116 0.84149 0.0
O53 O 0.44335 0.52902 0.85501 0.0
O54 O 0.4382 0.50373 0.82946 0.0
O55 O 0.49899 0.51513 0.85499 0.0
O56 O 0.55165 0.52407 0.85809 0.0
O57 O 0.5081 0.57408 0.83048 0.0
C58 C 0.52954 0.51801 0.80568 0.0
C59 C 0.52396 0.51905 0.86423 0.0
C60 C 0.58923 0.09499 0.18813 0.0
C61 C 0.61998 0.11646 0.19755 0.0
C62 C 0.62097 0.11488 0.21511 0.0
C63 C 0.56138 0.07169 0.21367 0.0
C64 C 0.56032 0.07289 0.19644 0.0
C65 C 0.5254 0.04862 0.18848 0.0
H66 H 0.36116 0.92948 0.19812 0.0
C67 C 0.527 0.04691 0.21851 0.0
C68 C 0.50569 0.0333 0.20384 0.0
H69 H 0.41002 0.96439 0.15167 0.0
H70 H 0.46283 0.00418 0.1673 0.0
H71 H 0.41953 0.92343 0.21451 0.0
H72 H 0.39663 0.00471 0.21943 0.0
H73 H 0.40843 0.99949 0.23959 0.0
H74 H 0.37141 0.96477 0.22828 0.0
H75 H 0.38534 0.92064 0.22663 0.0
H76 H 0.42817 0.93931 0.23568 0.0
C77 C 0.52794 0.02175 0.17657 0.0
C78 C 0.51225 0.06962 0.17973 0.0
C79 C 0.50609 0.02558 0.27991 0.0
C80 C 0.47701 0.00429 0.28843 0.0
C81 C 0.44575 0.98397 0.27915 0.0
C82 C 0.44356 0.98481 0.26168 0.0
C83 C 0.47296 0.00609 0.25335 0.0
C84 C 0.50348 0.02609 0.2625 0.0
C85 C 0.53209 0.04722 0.25163 0.0
C86 C 0.51379 0.03636 0.23439 0.0
C87 C 0.47923 0.01232 0.23547 0.0
C88 C 0.55942 0.03641 0.25325 0.0
C89 C 0.54501 0.08532 0.25696 0.0
C90 C 0.38299 0.9463 0.19131 0.0
C91 C 0.3814 0.94418 0.17367 0.0
C92 C 0.4107 0.96568 0.16527 0.0
C93 C 0.44129 0.98865 0.17436 0.0
C94 C 0.44263 0.98981 0.19202 0.0
C95 C 0.41369 0.96894 0.20017 0.0
C96 C 0.42001 0.9722 0.21888 0.0
C97 C 0.45759 0.99848 0.22068 0.0
C98 C 0.47072 0.00885 0.20494 0.0
C99 C 0.41274 0.93716 0.22437 0.0
C100 C 0.3979 0.98577 0.22711 0.0
H101 H 0.59445 0.09296 0.23657 0.0
H102 H 0.58764 0.09545 0.17462 0.0
H103 H 0.51904 0.09348 0.18759 0.0
H104 H 0.48426 0.05615 0.17782 0.0
H105 H 0.52371 0.07687 0.1674 0.0
H106 H 0.54759 0.01621 0.18149 0.0
H107 H 0.53508 0.03084 0.16387 0.0
H108 H 0.50416 0.99682 0.17538 0.0
H109 H 0.53061 0.04117 0.28661 0.0
H110 H 0.42288 0.96763 0.28543 0.0
H111 H 0.41906 0.96876 0.25533 0.0
H112 H 0.54734 0.00859 0.2546 0.0
H113 H 0.57699 0.04998 0.26445 0.0
H114 H 0.57451 0.04058 0.24202 0.0
H115 H 0.52389 0.08911 0.26141 0.0
H116 H 0.55502 0.10175 0.24646 0.0
H117 H 0.56492 0.09508 0.26736 0.0
H118 H 0.64405 0.13159 0.22274 0.0
C119 C 0.59196 0.09264 0.22318 0.0
C120 C 0.59863 0.62415 0.52872 0.0
C121 C 0.59969 0.6519 0.53817 0.0
C122 C 0.60155 0.65317 0.55585 0.0
C123 C 0.5988 0.59855 0.55444 0.0
C124 C 0.5982 0.59783 0.53711 0.0
C125 C 0.59585 0.56582 0.52906 0.0
H126 H 0.58244 0.41266 0.53792 0.0
C127 C 0.5964 0.56669 0.55923 0.0
C128 C 0.59499 0.5475 0.54444 0.0
H129 H 0.58424 0.45806 0.49179 0.0
H130 H 0.59056 0.50827 0.50769 0.0
H131 H 0.64204 0.4814 0.55895 0.0
H132 H 0.53259 0.43236 0.55527 0.0
H133 H 0.54535 0.44734 0.57639 0.0
H134 H 0.55457 0.41593 0.56688 0.0
H135 H 0.61504 0.44196 0.56788 0.0
H136 H 0.62827 0.4825 0.57934 0.0
C137 C 0.62845 0.57598 0.51934 0.0
C138 C 0.56217 0.54625 0.51805 0.0
C139 C 0.58504 0.54085 0.62039 0.0
C140 C 0.58092 0.51279 0.62868 0.0
C141 C 0.58207 0.48595 0.6194 0.0
C142 C 0.5862 0.48658 0.60204 0.0
C143 C 0.58915 0.51433 0.59385 0.0
C144 C 0.5891 0.54109 0.60308 0.0
C145 C 0.59281 0.56858 0.59235 0.0
C146 C 0.59431 0.55355 0.57507 0.0
C147 C 0.59197 0.52175 0.57601 0.0
C148 C 0.62669 0.60162 0.59794 0.0
C149 C 0.56051 0.57187 0.59385 0.0
C150 C 0.58476 0.43369 0.53126 0.0
C151 C 0.58324 0.43174 0.51363 0.0
C152 C 0.58537 0.45914 0.50539 0.0
C153 C 0.58909 0.48821 0.51465 0.0
C154 C 0.59023 0.48962 0.53231 0.0
C155 C 0.58804 0.4626 0.5403 0.0
C156 C 0.58805 0.4677 0.55908 0.0
C157 C 0.59106 0.5025 0.56109 0.0
C158 C 0.59243 0.51525 0.54539 0.0
C159 C 0.6198 0.46822 0.56686 0.0
C160 C 0.55356 0.43937 0.56486 0.0
H161 H 0.60223 0.62904 0.57749 0.0
H162 H 0.59703 0.62238 0.51512 0.0
H163 H 0.5418 0.54994 0.52366 0.0
H164 H 0.5516 0.51839 0.51701 0.0
H165 H 0.56562 0.55527 0.50524 0.0
H166 H 0.65116 0.59734 0.52642 0.0
H167 H 0.62636 0.58447 0.50687 0.0
H168 H 0.63443 0.55527 0.51758 0.0
H169 H 0.58495 0.56219 0.62723 0.0
H170 H 0.57887 0.46401 0.6255 0.0
H171 H 0.58639 0.46519 0.59562 0.0
H172 H 0.64579 0.59577 0.60329 0.0
H173 H 0.62263 0.6176 0.60772 0.0
H174 H 0.63924 0.61701 0.58734 0.0
H175 H 0.53731 0.54631 0.59393 0.0
H176 H 0.5558 0.58349 0.58319 0.0
H177 H 0.56196 0.58692 0.60568 0.0
H178 H 0.60306 0.67462 0.5634 0.0
C179 C 0.60118 0.62672 0.56402 0.0
C180 C 0.11896 0.55077 0.85634 0.0
C181 C 0.14141 0.54365 0.86513 0.0
C182 C 0.14042 0.54293 0.88272 0.0
C183 C 0.09534 0.55664 0.88262 0.0
C184 C 0.09641 0.55755 0.86536 0.0
C185 C 0.07167 0.56701 0.85822 0.0
H186 H 0.94807 0.60672 0.87145 0.0
C187 C 0.06955 0.56523 0.88825 0.0
C188 C 0.05585 0.5718 0.87407 0.0
H189 H 0.98661 0.59385 0.82399 0.0
H190 H 0.02746 0.58367 0.83852 0.0
H191 H 0.94436 0.54383 0.88589 0.0
H192 H 0.02215 0.64954 0.89277 0.0
H193 H 0.01695 0.6328 0.91244 0.0
H194 H 0.98161 0.63318 0.902 0.0
H195 H 0.93909 0.57449 0.89885 0.0
H196 H 0.95884 0.55208 0.90706 0.0
C197 C 0.04536 0.53662 0.84623 0.0
C198 C 0.09219 0.60075 0.84978 0.0
C199 C 0.0416 0.56027 0.94965 0.0
C200 C 0.01881 0.56673 0.95871 0.0
C201 C 0.99949 0.57838 0.95035 0.0
C202 C 0.00229 0.58278 0.93312 0.0
C203 C 0.02468 0.5755 0.92415 0.0
C204 C 0.04418 0.5649 0.93249 0.0
C205 C 0.06723 0.5592 0.92107 0.0
C206 C 0.05763 0.56718 0.90438 0.0
C207 C 0.03266 0.57657 0.90625 0.0
C208 C 0.05745 0.52128 0.92101 0.0
C209 C 0.10469 0.585 0.9271 0.0
C210 C 0.96595 0.60266 0.8642 0.0
C211 C 0.9645 0.60152 0.84658 0.0
C212 C 0.98739 0.59494 0.83758 0.0
C213 C 0.01095 0.58893 0.84605 0.0
C214 C 0.0113 0.58909 0.86368 0.0
C215 C 0.98919 0.59615 0.87244 0.0
C216 C 0.99167 0.59342 0.89098 0.0
C217 C 0.01904 0.58367 0.89197 0.0
C218 C 0.03052 0.58124 0.87596 0.0
C219 C 0.95675 0.56469 0.89613 0.0
C220 C 0.00347 0.62892 0.90016 0.0
H221 H 0.118 0.54833 0.90486 0.0
H222 H 0.11948 0.55178 0.84283 0.0
H223 H 0.11646 0.61818 0.85716 0.0
H224 H 0.07873 0.6153 0.84914 0.0
H225 H 0.0987 0.59597 0.83692 0.0
H226 H 0.03962 0.51193 0.851 0.0
H227 H 0.05515 0.53746 0.8335 0.0
H228 H 0.02046 0.53536 0.84517 0.0
H229 H 0.05729 0.55197 0.95582 0.0
H230 H 0.9817 0.58344 0.95708 0.0
H231 H 0.98666 0.59135 0.92743 0.0
H232 H 0.02928 0.50455 0.92065 0.0
H233 H 0.06816 0.51673 0.93251 0.0
H234 H 0.06575 0.51217 0.90991 0.0
H235 H 0.10699 0.60826 0.93392 0.0
H236 H 0.12168 0.59464 0.91655 0.0
H237 H 0.11493 0.57367 0.93575 0.0
H238 H 0.15735 0.53719 0.88969 0.0
C239 C 0.11751 0.54933 0.89149 0.0
C240 C 0.95944 0.43376 0.47917 0.0
C241 C 0.93039 0.40592 0.47072 0.0
C242 C 0.92763 0.40339 0.45303 0.0
C243 C 0.98117 0.456 0.45238 0.0
C244 C 0.98445 0.4586 0.46973 0.0
C245 C 0.01674 0.49048 0.47639 0.0
H246 H 0.1593 0.63665 0.4588 0.0
C247 C 0.01096 0.48563 0.44619 0.0
C248 C 0.03218 0.50611 0.46015 0.0
H249 H 0.1272 0.60255 0.50797 0.0
H250 H 0.0781 0.55089 0.49515 0.0
H251 H 0.14644 0.56766 0.44243 0.0
H252 H 0.08527 0.61555 0.44294 0.0
H253 H 0.08315 0.59872 0.42223 0.0
H254 H 0.12377 0.63045 0.43192 0.0
H255 H 0.15339 0.59972 0.42854 0.0
H256 H 0.124 0.55508 0.42281 0.0
C257 C 0.03929 0.47979 0.48596 0.0
C258 C 0.00668 0.51317 0.48727 0.0
C259 C 0.01872 0.49856 0.38334 0.0
C260 C 0.04391 0.52256 0.37372 0.0
C261 C 0.07402 0.54926 0.38189 0.0
C262 C 0.07875 0.55244 0.3994 0.0
C263 C 0.05318 0.52855 0.40891 0.0
C264 C 0.02406 0.50186 0.40084 0.0
C265 C 1.00044 0.47805 0.41295 0.0
C266 C 0.01995 0.49526 0.42964 0.0
C267 C 0.0505 0.52498 0.42717 0.0
C268 C 0.99714 0.44261 0.40893 0.0
C269 C 0.96641 0.47824 0.41154 0.0
C270 C 0.1415 0.61834 0.46687 0.0
C271 C 0.14676 0.62401 0.48441 0.0
C272 C 0.12356 0.59886 0.4944 0.0
C273 C 0.09505 0.569 0.48694 0.0
C274 C 0.08987 0.56418 0.46931 0.0
C275 C 0.11327 0.58865 0.45967 0.0
C276 C 0.10472 0.57964 0.4412 0.0
C277 C 0.07187 0.54597 0.44117 0.0
C278 C 0.06298 0.53677 0.45763 0.0
C279 C 0.13359 0.57549 0.4332 0.0
C280 C 0.09908 0.60749 0.43404 0.0
H281 H 0.94879 0.42452 0.43047 0.0
H282 H 0.96229 0.43643 0.49275 0.0
H283 H 0.98461 0.51343 0.48118 0.0
H284 H 0.02712 0.54005 0.48892 0.0
H285 H 0.99929 0.50352 0.49984 0.0
H286 H 0.03894 0.45755 0.47904 0.0
H287 H 0.02997 0.47241 0.49866 0.0
H288 H 0.06632 0.49994 0.48725 0.0
H289 H 0.99554 0.47748 0.37734 0.0
H290 H 0.09368 0.5681 0.3747 0.0
H291 H 0.10205 0.57359 0.40485 0.0
H292 H 0.02025 0.44489 0.40307 0.0
H293 H 0.97498 0.4261 0.40007 0.0
H294 H 0.99502 0.42922 0.42032 0.0
H295 H 0.97117 0.50437 0.40991 0.0
H296 H 0.95174 0.4707 0.42293 0.0
H297 H 0.95014 0.46134 0.40055 0.0
H298 H 0.90598 0.38194 0.44618 0.0
C299 C 0.95271 0.42812 0.44387 0.0
C300 C 0.52538 0.9334 0.80862 0.0
C301 C 0.52515 0.90495 0.80022 0.0
C302 C 0.52961 0.90451 0.78284 0.0
C303 C 0.53301 0.95921 0.7821 0.0
C304 C 0.52908 0.96023 0.79923 0.0
C305 C 0.52842 0.99208 0.80554 0.0
H306 H 0.52956 0.13678 0.78548 0.0
C307 C 0.53522 0.98995 0.77575 0.0
C308 C 0.53253 0.00962 0.78936 0.0
H309 H 0.52115 0.10137 0.83499 0.0
H310 H 0.52623 0.05311 0.82349 0.0
H311 H 0.58902 0.12493 0.77533 0.0
H312 H 0.48057 0.0651 0.76609 0.0
H313 H 0.49857 0.06207 0.74722 0.0
H314 H 0.5068 0.10319 0.75598 0.0
H315 H 0.56698 0.13416 0.75956 0.0
H316 H 0.58275 0.10519 0.75496 0.0
C317 C 0.55899 0.01326 0.81826 0.0
C318 C 0.49352 0.98122 0.81297 0.0
C319 C 0.54538 0.00422 0.71307 0.0
C320 C 0.54694 0.02941 0.70318 0.0
C321 C 0.54739 0.05825 0.71116 0.0
C322 C 0.54548 0.06156 0.7286 0.0
C323 C 0.54308 0.03577 0.73827 0.0
C324 C 0.54352 0.00797 0.73051 0.0
C325 C 0.54095 0.98323 0.74281 0.0
C326 C 0.53865 0.0007 0.75923 0.0
C327 C 0.5397 0.03126 0.75645 0.0
C328 C 0.57419 0.98137 0.74248 0.0
C329 C 0.50778 0.94883 0.73809 0.0
C330 C 0.52834 0.11846 0.79389 0.0
C331 C 0.52423 0.12251 0.81108 0.0
C332 C 0.52403 0.09864 0.82164 0.0
C333 C 0.52685 0.07063 0.81493 0.0
C334 C 0.53019 0.06666 0.79752 0.0
C335 C 0.53128 0.0908 0.78746 0.0
C336 C 0.53574 0.08379 0.7694 0.0
C337 C 0.53667 0.05111 0.77001 0.0
C338 C 0.53328 0.04071 0.78646 0.0
C339 C 0.57022 0.11352 0.76439 0.0
C340 C 0.50402 0.07844 0.75899 0.0
H341 H 0.53677 0.92914 0.7606 0.0
H342 H 0.52193 0.93428 0.82199 0.0
H343 H 0.4726 0.96082 0.80453 0.0
H344 H 0.48786 0.00216 0.81436 0.0
H345 H 0.49213 0.97117 0.82542 0.0
H346 H 0.58235 0.01406 0.81356 0.0
H347 H 0.55404 0.00196 0.83055 0.0
H348 H 0.56531 0.04005 0.8203 0.0
H349 H 0.54472 0.9816 0.70737 0.0
H350 H 0.54926 0.07838 0.70391 0.0
H351 H 0.54561 0.08397 0.73382 0.0
H352 H 0.59641 0.00638 0.74001 0.0
H353 H 0.57229 0.96226 0.73247 0.0
H354 H 0.58118 0.97558 0.75464 0.0
H355 H 0.48766 0.95294 0.73247 0.0
H356 H 0.49613 0.93442 0.74907 0.0
H357 H 0.51237 0.93251 0.72877 0.0
H358 H 0.52988 0.88309 0.77619 0.0
C359 C 0.53367 0.93139 0.7738 0.0
C360 C 0.59038 0.52862 0.15113 0.0
C361 C 0.61935 0.53145 0.14321 0.0
C362 C 0.61993 0.53133 0.12561 0.0
C363 C 0.56439 0.52642 0.12385 0.0
C364 C 0.56319 0.52648 0.14114 0.0
C365 C 0.53057 0.52474 0.14691 0.0
H366 H 0.3784 0.51298 0.12333 0.0
C367 C 0.53295 0.52404 0.11686 0.0
C368 C 0.51262 0.52311 0.1302 0.0
H369 H 0.4159 0.51952 0.17418 0.0
H370 H 0.46758 0.5225 0.16367 0.0
H371 H 0.44634 0.56984 0.11109 0.0
H372 H 0.39977 0.46085 0.10776 0.0
H373 H 0.41733 0.47369 0.0883 0.0
H374 H 0.38473 0.48263 0.09529 0.0
H375 H 0.41152 0.54274 0.09635 0.0
H376 H 0.45524 0.55832 0.09123 0.0
C377 C 0.54019 0.55762 0.15805 0.0
C378 C 0.51028 0.49201 0.15598 0.0
C379 C 0.51702 0.51971 0.05349 0.0
C380 C 0.49096 0.51765 0.04288 0.0
C381 C 0.46213 0.51628 0.05007 0.0
C382 C 0.45927 0.51683 0.06752 0.0
C383 C 0.48557 0.51887 0.07798 0.0
C384 C 0.51379 0.52033 0.07089 0.0
C385 C 0.53939 0.52284 0.08385 0.0
C386 C 0.52182 0.52249 0.09996 0.0
C387 C 0.49039 0.5201 0.09644 0.0
C388 C 0.57281 0.55728 0.08262 0.0
C389 C 0.54299 0.4907 0.08081 0.0
C390 C 0.39741 0.51459 0.13229 0.0
C391 C 0.39266 0.51542 0.14958 0.0
C392 C 0.41881 0.5187 0.16075 0.0
C393 C 0.44874 0.52038 0.15463 0.0
C394 C 0.45278 0.51921 0.13716 0.0
C395 C 0.42716 0.51654 0.12644 0.0
C396 C 0.43509 0.51638 0.10835 0.0
C397 C 0.46965 0.51916 0.10972 0.0
C398 C 0.48038 0.52073 0.1266 0.0
C399 C 0.43697 0.54823 0.10123 0.0
C400 C 0.40783 0.48179 0.09931 0.0
H401 H 0.59534 0.52884 0.10268 0.0
H402 H 0.58926 0.52869 0.16466 0.0
H403 H 0.50866 0.46976 0.14842 0.0
H404 H 0.48383 0.48585 0.15787 0.0
H405 H 0.52286 0.49433 0.16842 0.0
H406 H 0.55997 0.5803 0.15221 0.0
H407 H 0.55057 0.55708 0.17064 0.0
H408 H 0.51846 0.56186 0.15971 0.0
H409 H 0.53975 0.52132 0.0484 0.0
H410 H 0.44155 0.51436 0.04216 0.0
H411 H 0.43662 0.51557 0.07216 0.0
H412 H 0.56756 0.57679 0.07786 0.0
H413 H 0.59027 0.55435 0.07394 0.0
H414 H 0.58645 0.5689 0.09497 0.0
H415 H 0.5183 0.46811 0.07615 0.0
H416 H 0.55 0.48306 0.09239 0.0
H417 H 0.56192 0.49442 0.07129 0.0
H418 H 0.64152 0.5329 0.11919 0.0
C419 C 0.59285 0.5288 0.11598 0.0
H420 H 0.10441 0.50876 0.15077 0.0
H421 H 0.15196 0.49757 0.14832 0.0
H422 H 0.20204 0.5647 0.19289 0.0
H423 H 0.15468 0.57531 0.19562 0.0
H424 H 0.21819 0.54203 0.1437 0.0
H425 H 0.21104 0.48427 0.20347 0.0
H426 H 0.17704 0.48998 0.19536 0.0
H427 H 0.21372 0.52498 0.20665 0.0
C428 C 0.12532 0.52072 0.16018 0.0
C429 C 0.12551 0.5428 0.17344 0.0
C430 C 0.15256 0.51437 0.15875 0.0
C431 C 0.18047 0.52979 0.17059 0.0
C432 C 0.18054 0.55169 0.18384 0.0
H433 H 0.38478 0.55459 0.17504 0.0
H434 H 0.33271 0.55671 0.18102 0.0
C435 C 0.15339 0.55794 0.18531 0.0
C436 C 0.2105 0.52483 0.16859 0.0
H437 H 0.26265 0.50281 0.18911 0.0
C438 C 0.22764 0.53312 0.15358 0.0
C439 C 0.22315 0.51339 0.1815 0.0
C440 C 0.20509 0.50232 0.19758 0.0
C441 C 0.25725 0.53099 0.15128 0.0
C442 C 0.27007 0.51992 0.16424 0.0
C443 C 0.25297 0.5115 0.17923 0.0
C444 C 0.30072 0.51622 0.16214 0.0
C445 C 0.27506 0.54125 0.13507 0.0
C446 C 0.29972 0.49187 0.15006 0.0
C447 C 0.3292 0.49046 0.14673 0.0
C448 C 0.36055 0.51342 0.15538 0.0
C449 C 0.3611 0.53649 0.1682 0.0
C450 C 0.3314 0.53785 0.17155 0.0
H451 H 0.26656 0.5562 0.128 0.0
H452 H 0.30311 0.5566 0.13754 0.0
H453 H 0.26931 0.51801 0.127 0.0
H454 H 0.27623 0.47448 0.14287 0.0
H455 H 0.32768 0.47194 0.13699 0.0
H456 H 0.66895 0.1584 0.53726 0.0
H457 H 0.72552 0.20817 0.53532 0.0
H458 H 0.72451 0.17847 0.48283 0.0
H459 H 0.66846 0.1282 0.48477 0.0
H460 H 0.78759 0.20433 0.49831 0.0
H461 H 0.73582 0.2904 0.51346 0.0
H462 H 0.73086 0.26229 0.52933 0.0
H463 H 0.70876 0.24503 0.50911 0.0
C464 C 0.68099 0.16217 0.52536 0.0
C465 C 0.66397 0.1395 0.51112 0.0
C466 C 0.71324 0.19079 0.52425 0.0
C467 C 0.72891 0.19758 0.50882 0.0
C468 C 0.71285 0.17392 0.49485 0.0
H469 H 0.86213 0.37884 0.46489 0.0
H470 H 0.8161 0.32952 0.47672 0.0
C471 C 0.68075 0.14514 0.49598 0.0
C472 C 0.76096 0.23011 0.50687 0.0
H473 H 0.794 0.3163 0.50826 0.0
C474 C 0.78916 0.22886 0.50064 0.0
C475 C 0.76284 0.26212 0.50977 0.0
C476 C 0.73291 0.26521 0.51564 0.0
C477 C 0.81881 0.25857 0.4968 0.0
C478 C 0.82057 0.29053 0.49959 0.0
C479 C 0.79276 0.29185 0.50629 0.0
C480 C 0.84906 0.32223 0.4937 0.0
C481 C 0.84724 0.25528 0.48898 0.0
C482 C 0.88299 0.33535 0.49968 0.0
C483 C 0.90958 0.36363 0.4928 0.0
C484 C 0.90258 0.37918 0.47986 0.0
C485 C 0.86843 0.36704 0.47461 0.0
C486 C 0.84204 0.33893 0.48144 0.0
H487 H 0.83915 0.22845 0.48469 0.0
H488 H 0.85652 0.27093 0.47808 0.0
H489 H 0.86887 0.26458 0.49839 0.0
H490 H 0.88897 0.32334 0.50941 0.0
H491 H 0.93562 0.37242 0.49712 0.0
H492 H 0.46397 0.60986 0.80065 0.0
H493 H 0.47256 0.66743 0.80293 0.0
H494 H 0.54872 0.69663 0.84313 0.0
H495 H 0.54027 0.63869 0.84097 0.0
H496 H 0.46463 0.70199 0.83339 0.0
H497 H 0.59444 0.77126 0.80882 0.0
H498 H 0.56712 0.72579 0.8046 0.0
H499 H 0.58749 0.74316 0.82508 0.0
C500 C 0.48282 0.62849 0.8099 0.0
C501 C 0.5015 0.61957 0.8206 0.0
C502 C 0.48759 0.66142 0.81122 0.0
C503 C 0.51134 0.68637 0.82315 0.0
C504 C 0.53047 0.67785 0.83372 0.0
H505 H 0.56399 0.90201 0.826 0.0
H506 H 0.5609 0.85014 0.83564 0.0
C507 C 0.52559 0.64472 0.83248 0.0
C508 C 0.5151 0.72089 0.82458 0.0
H509 H 0.56723 0.80281 0.81502 0.0
C510 C 0.48723 0.72415 0.82958 0.0
C511 C 0.54472 0.74986 0.81979 0.0
C512 C 0.57521 0.74761 0.81418 0.0
C513 C 0.48773 0.7553 0.82936 0.0
C514 C 0.51655 0.78382 0.8236 0.0
C515 C 0.54511 0.78099 0.81942 0.0
C516 C 0.51604 0.81528 0.81988 0.0
C517 C 0.4571 0.75718 0.83507 0.0
C518 C 0.4916 0.81298 0.80808 0.0
C519 C 0.49332 0.84236 0.80267 0.0
C520 C 0.51957 0.87479 0.80887 0.0
C521 C 0.5432 0.8773 0.82124 0.0
C522 C 0.5416 0.84772 0.82663 0.0
H523 H 0.4435 0.73854 0.84445 0.0
H524 H 0.46441 0.78308 0.84066 0.0
H525 H 0.43903 0.75079 0.82411 0.0
H526 H 0.47213 0.78842 0.80237 0.0
H527 H 0.47501 0.83976 0.79298 0.0
H528 H 0.87315 0.50253 0.13084 0.0
H529 H 0.82396 0.51014 0.13432 0.0
H530 H 0.84497 0.52689 0.18798 0.0
H531 H 0.8951 0.52025 0.18451 0.0
H532 H 0.76784 0.4721 0.15005 0.0
H533 H 0.82907 0.60442 0.17976 0.0
H534 H 0.85326 0.58664 0.1703 0.0
H535 H 0.83759 0.57617 0.19089 0.0
C536 C 0.86767 0.50832 0.14339 0.0
C537 C 0.88823 0.5109 0.15739 0.0
C538 C 0.83937 0.51256 0.14537 0.0
C539 C 0.83065 0.51934 0.1614 0.0
C540 C 0.85141 0.52241 0.17543 0.0
H541 H 0.62149 0.48789 0.16493 0.0
H542 H 0.67227 0.48489 0.17341 0.0
C543 C 0.88007 0.5185 0.17344 0.0
C544 C 0.79896 0.52153 0.1632 0.0
H545 H 0.76898 0.57434 0.17664 0.0
C546 C 0.76809 0.4944 0.15597 0.0
C547 C 0.79914 0.55064 0.17087 0.0
C548 C 0.83155 0.58127 0.17827 0.0
C549 C 0.73785 0.49594 0.15567 0.0
C550 C 0.73798 0.52507 0.16331 0.0
C551 C 0.76864 0.55182 0.17098 0.0
C552 C 0.70784 0.52998 0.16155 0.0
C553 C 0.70653 0.46704 0.14634 0.0
C554 C 0.71107 0.5577 0.15329 0.0
C555 C 0.68231 0.55979 0.14881 0.0
C556 C 0.6495 0.53419 0.15244 0.0
C557 C 0.64642 0.50803 0.16202 0.0
C558 C 0.67541 0.50603 0.16662 0.0
H559 H 0.71273 0.4504 0.13811 0.0
H560 H 0.68844 0.45108 0.15553 0.0
H561 H 0.69356 0.47689 0.13845 0.0
H562 H 0.73567 0.5767 0.14934 0.0
H563 H 0.68548 0.58033 0.14148 0.0
H564 H 0.43824 0.90621 0.52029 0.0
H565 H 0.38268 0.85724 0.52569 0.0
H566 H 0.37169 0.81737 0.47408 0.0
H567 H 0.42685 0.86553 0.46867 0.0
H568 H 0.31731 0.83279 0.51105 0.0
H569 H 0.35802 0.73734 0.4999 0.0
H570 H 0.38801 0.78247 0.5031 0.0
H571 H 0.36721 0.76361 0.48272 0.0
C572 C 0.42388 0.88705 0.5101 0.0
C573 C 0.43715 0.88964 0.49408 0.0
C574 C 0.3922 0.85907 0.51321 0.0
C575 C 0.37342 0.83323 0.50039 0.0
C576 C 0.38613 0.83649 0.48429 0.0
H577 H 0.16869 0.68836 0.47573 0.0
H578 H 0.2229 0.7395 0.48383 0.0
C579 C 0.41765 0.86423 0.48119 0.0
C580 C 0.34035 0.80281 0.50351 0.0
H581 H 0.29755 0.716 0.49752 0.0
C582 C 0.31308 0.80722 0.50839 0.0
C583 C 0.33496 0.7694 0.50047 0.0
C584 C 0.36372 0.76287 0.49644 0.0
C585 C 0.28007 0.77914 0.50912 0.0
C586 C 0.2741 0.74588 0.50454 0.0
C587 C 0.30189 0.74143 0.50085 0.0
C588 C 0.23915 0.71588 0.50168 0.0
C589 C 0.25186 0.7855 0.51452 0.0
C590 C 0.22998 0.68527 0.50895 0.0
C591 C 0.19894 0.65565 0.50413 0.0
C592 C 0.17678 0.65609 0.4918 0.0
C593 C 0.18536 0.68713 0.48516 0.0
C594 C 0.21623 0.71657 0.48995 0.0
H595 H 0.26189 0.80864 0.52343 0.0
H596 H 0.24022 0.78989 0.50334 0.0
H597 H 0.23171 0.76351 0.52058 0.0
H598 H 0.24736 0.68402 0.51793 0.0
H599 H 0.19316 0.63207 0.50937 0.0
H600 H 0.58178 0.4216 0.86061 0.0
H601 H 0.57143 0.3635 0.85667 0.0
H602 H 0.50484 0.34391 0.81321 0.0
H603 H 0.51576 0.4026 0.81683 0.0
H604 H 0.51405 0.30158 0.85652 0.0
H605 H 0.57083 0.31654 0.79435 0.0
H606 H 0.57536 0.35229 0.80769 0.0
H607 H 0.53657 0.32556 0.79514 0.0
C608 C 0.56488 0.40502 0.85018 0.0
C609 C 0.54983 0.41695 0.83893 0.0
C610 C 0.55893 0.37169 0.84799 0.0
C611 C 0.53781 0.3494 0.83449 0.0
C612 C 0.52188 0.36085 0.8235 0.0
H613 H 0.48329 0.14402 0.79785 0.0
H614 H 0.48438 0.19767 0.80495 0.0
C615 C 0.52798 0.39436 0.82564 0.0
C616 C 0.53305 0.31448 0.83191 0.0
H617 H 0.54426 0.26127 0.80385 0.0
C618 C 0.52068 0.29277 0.845 0.0
C619 C 0.54196 0.30302 0.81695 0.0
C620 C 0.55723 0.32563 0.80278 0.0
C621 C 0.51649 0.25984 0.84342 0.0
C622 C 0.52517 0.24839 0.82841 0.0
C623 C 0.53748 0.27004 0.81533 0.0
C624 C 0.52153 0.21398 0.82578 0.0
C625 C 0.5023 0.23732 0.85768 0.0
C626 C 0.54148 0.20483 0.83541 0.0
C627 C 0.54094 0.17401 0.83134 0.0
C628 C 0.52066 0.15205 0.8175 0.0
C629 C 0.4995 0.16059 0.80847 0.0
C630 C 0.50005 0.19123 0.81251 0.0
H631 H 0.48994 0.24685 0.86672 0.0
H632 H 0.48343 0.21084 0.85284 0.0
H633 H 0.52335 0.23667 0.86457 0.0
H634 H 0.55861 0.2222 0.84557 0.0
H635 H 0.55773 0.16829 0.83843 0.0
H636 H 0.58946 0.91171 0.48187 0.0
H637 H 0.60171 0.86468 0.48012 0.0
H638 H 0.55008 0.82965 0.52576 0.0
H639 H 0.53802 0.87635 0.52775 0.0
H640 H 0.63547 0.84685 0.51001 0.0
H641 H 0.50561 0.7474 0.48586 0.0
H642 H 0.52346 0.79195 0.48244 0.0
H643 H 0.50728 0.77707 0.50244 0.0
C644 C 0.58088 0.89405 0.49156 0.0
C645 C 0.56273 0.89768 0.50494 0.0
C646 C 0.58787 0.86729 0.49052 0.0
C647 C 0.57643 0.84372 0.50272 0.0
C648 C 0.5588 0.84756 0.51616 0.0
H649 H 0.56043 0.67966 0.54653 0.0
H650 H 0.55766 0.7255 0.53372 0.0
C651 C 0.55207 0.87433 0.5173 0.0
C652 C 0.58276 0.8149 0.50181 0.0
H653 H 0.53962 0.72816 0.49939 0.0
C654 C 0.61492 0.82083 0.50723 0.0
C655 C 0.55577 0.78122 0.49811 0.0
C656 C 0.52109 0.77386 0.49175 0.0
C657 C 0.62001 0.79365 0.51046 0.0
C658 C 0.59223 0.75996 0.50798 0.0
C659 C 0.56081 0.75407 0.50129 0.0
C660 C 0.59354 0.73124 0.51485 0.0
C661 C 0.65417 0.80118 0.51775 0.0
C662 C 0.61441 0.7191 0.50832 0.0
C663 C 0.61625 0.69295 0.51574 0.0
C664 C 0.5973 0.67878 0.52978 0.0
C665 C 0.57586 0.69055 0.53596 0.0
C666 C 0.57401 0.7165 0.52856 0.0
H667 H 0.67207 0.82895 0.52039 0.0
H668 H 0.65097 0.78865 0.5296 0.0
H669 H 0.66579 0.79076 0.50878 0.0
H670 H 0.62939 0.73 0.49762 0.0
H671 H 0.63297 0.68432 0.51073 0.0
H672 H 0.67645 0.56487 0.84859 0.0
H673 H 0.73702 0.58289 0.8483 0.0
H674 H 0.72505 0.54955 0.79561 0.0
H675 H 0.66439 0.53149 0.79572 0.0
H676 H 0.7595 0.535 0.83839 0.0
H677 H 0.81235 0.64716 0.80033 0.0
H678 H 0.77296 0.6325 0.81086 0.0
H679 H 0.77408 0.6095 0.79199 0.0
C680 C 0.68674 0.56175 0.83688 0.0
C681 C 0.66561 0.54659 0.8222 0.0
C682 C 0.72133 0.57211 0.83674 0.0
C683 C 0.73541 0.5678 0.8219 0.0
C684 C 0.71466 0.55353 0.80711 0.0
H685 H 0.92188 0.55868 0.82067 0.0
H686 H 0.86752 0.55294 0.81124 0.0
C687 C 0.68 0.54302 0.80724 0.0
C688 C 0.77103 0.57527 0.82237 0.0
H689 H 0.85016 0.62857 0.80896 0.0
C690 C 0.77931 0.55536 0.83192 0.0
C691 C 0.79663 0.60186 0.81388 0.0
C692 C 0.78882 0.62424 0.80375 0.0
C693 C 0.81272 0.56149 0.83333 0.0
C694 C 0.83839 0.58806 0.82486 0.0
C695 C 0.8302 0.60799 0.81524 0.0
C696 C 0.87416 0.59655 0.82703 0.0
C697 C 0.82058 0.54003 0.84421 0.0
C698 C 0.89636 0.62396 0.83837 0.0
C699 C 0.92735 0.62729 0.84377 0.0
C700 C 0.93652 0.60328 0.83786 0.0
C701 C 0.91557 0.57767 0.82535 0.0
C702 C 0.8845 0.57428 0.82 0.0
H703 H 0.79871 0.52356 0.85168 0.0
H704 H 0.827 0.52343 0.83612 0.0
H705 H 0.84296 0.55652 0.85296 0.0
H706 H 0.88866 0.64131 0.84392 0.0
H707 H 0.94323 0.64745 0.85331 0.0
H708 H 0.1215 0.65092 0.12378 0.0
H709 H 0.16953 0.70857 0.1219 0.0
H710 H 0.17023 0.72982 0.17533 0.0
H711 H 0.12213 0.67232 0.17739 0.0
H712 H 0.17651 0.77842 0.13666 0.0
H713 H 0.26788 0.74151 0.1613 0.0
H714 H 0.22709 0.71084 0.15111 0.0
H715 H 0.22932 0.72801 0.17226 0.0
C716 C 0.13167 0.66795 0.13512 0.0
C717 C 0.1182 0.65703 0.15077 0.0
C718 C 0.15897 0.70085 0.13398 0.0
C719 C 0.1733 0.72315 0.14848 0.0
C720 C 0.15937 0.71275 0.16403 0.0
H721 H 0.31572 0.92714 0.17909 0.0
H722 H 0.26441 0.87469 0.16849 0.0
C723 C 0.13195 0.67996 0.16517 0.0
C724 C 0.20413 0.75664 0.14763 0.0
H725 H 0.28876 0.80025 0.15923 0.0
C726 C 0.20119 0.78326 0.1414 0.0
C727 C 0.23621 0.76247 0.15356 0.0
C728 C 0.24062 0.73422 0.15985 0.0
C729 C 0.22954 0.81626 0.14171 0.0
C730 C 0.26128 0.82251 0.14853 0.0
C731 C 0.2644 0.79539 0.15398 0.0
C732 C 0.29084 0.85727 0.15183 0.0
C733 C 0.2252 0.84418 0.13498 0.0
C734 C 0.32264 0.86521 0.14573 0.0
C735 C 0.35205 0.89508 0.15187 0.0
C736 C 0.35008 0.91721 0.16435 0.0
C737 C 0.31794 0.91037 0.16955 0.0
C738 C 0.28857 0.88059 0.16338 0.0
H739 H 0.20342 0.83369 0.12554 0.0
H740 H 0.21993 0.85783 0.14548 0.0
H741 H 0.24863 0.86288 0.12914 0.0
H742 H 0.32491 0.84737 0.13691 0.0
H743 H 0.37652 0.89956 0.14776 0.0
H744 H 0.56307 0.16153 0.50718 0.0
H745 H 0.56615 0.21604 0.50433 0.0
H746 H 0.49453 0.17226 0.4615 0.0
H747 H 0.49119 0.11713 0.46417 0.0
H748 H 0.58376 0.24992 0.47019 0.0
H749 H 0.4616 0.22523 0.49744 0.0
H750 H 0.48247 0.20244 0.50383 0.0
H751 H 0.46309 0.19371 0.48306 0.0
C752 C 0.54765 0.16324 0.49723 0.0
C753 C 0.52696 0.135 0.48585 0.0
C754 C 0.54954 0.19444 0.49561 0.0
C755 C 0.53068 0.198 0.48268 0.0
C756 C 0.5092 0.16979 0.47156 0.0
H757 H 0.53637 0.3944 0.48785 0.0
H758 H 0.52271 0.33814 0.47497 0.0
C759 C 0.50732 0.13841 0.47314 0.0
C760 C 0.53485 0.23186 0.4808 0.0
H761 H 0.5023 0.28221 0.49386 0.0
C762 C 0.56564 0.25695 0.47497 0.0
C763 C 0.51096 0.24064 0.48688 0.0
C764 C 0.47757 0.21425 0.49318 0.0
C765 C 0.57418 0.29121 0.47613 0.0
C766 C 0.55158 0.30047 0.48359 0.0
C767 C 0.51961 0.27499 0.48817 0.0
C768 C 0.5626 0.33624 0.48918 0.0
C769 C 0.60792 0.31735 0.47002 0.0
C770 C 0.58971 0.35378 0.50127 0.0
C771 C 0.59742 0.38561 0.50862 0.0
C772 C 0.57808 0.40045 0.50406 0.0
C773 C 0.55184 0.38358 0.49145 0.0
C774 C 0.54396 0.3515 0.48414 0.0
H775 H 0.61618 0.30601 0.45967 0.0
H776 H 0.60664 0.33934 0.46555 0.0
H777 H 0.6276 0.32687 0.4805 0.0
H778 H 0.60394 0.34214 0.5056 0.0
H779 H 0.61784 0.39818 0.51828 0.0
H780 H 0.38325 0.48949 0.81268 0.0
H781 H 0.32716 0.48469 0.80906 0.0
H782 H 0.32986 0.51181 0.86202 0.0
H783 H 0.38569 0.51672 0.86579 0.0
H784 H 0.2638 0.45431 0.84576 0.0
H785 H 0.32176 0.57585 0.81449 0.0
H786 H 0.3301 0.54251 0.80709 0.0
H787 H 0.34746 0.56493 0.82729 0.0
C788 C 0.37161 0.49385 0.8236 0.0
C789 C 0.38896 0.50377 0.83951 0.0
C790 C 0.33967 0.49118 0.82148 0.0
C791 C 0.32468 0.49814 0.83526 0.0
C792 C 0.34115 0.50633 0.85126 0.0
H793 H 0.20921 0.57429 0.87267 0.0
H794 H 0.24982 0.55973 0.8604 0.0
C795 C 0.37307 0.50924 0.85337 0.0
C796 C 0.2932 0.49976 0.83313 0.0
H797 H 0.26666 0.55538 0.8239 0.0
C798 C 0.26389 0.47578 0.84052 0.0
C799 C 0.29375 0.52797 0.82633 0.0
C800 C 0.32488 0.55447 0.81836 0.0
C801 C 0.2358 0.48053 0.84233 0.0
C802 C 0.23732 0.51 0.83659 0.0
C803 C 0.26567 0.53273 0.82815 0.0
C804 C 0.2131 0.52084 0.84217 0.0
C805 C 0.20582 0.45558 0.85155 0.0
C806 C 0.17927 0.50426 0.83563 0.0
C807 C 0.156 0.51266 0.84261 0.0
C808 C 0.16637 0.53742 0.85627 0.0
C809 C 0.20058 0.55485 0.86227 0.0
C810 C 0.22376 0.5467 0.85523 0.0
H811 H 0.20905 0.43439 0.85561 0.0
H812 H 0.20226 0.46894 0.86281 0.0
H813 H 0.18227 0.44463 0.84329 0.0
H814 H 0.17074 0.48427 0.82551 0.0
H815 H 0.12968 0.49888 0.83782 0.0
H816 H 0.88567 0.39178 0.20208 0.0
H817 H 0.83532 0.33512 0.20101 0.0
H818 H 0.83843 0.3248 0.14709 0.0
H819 H 0.88935 0.38137 0.14806 0.0
H820 H 0.7744 0.31703 0.18425 0.0
H821 H 0.82509 0.2338 0.1609 0.0
H822 H 0.85243 0.27735 0.1693 0.0
H823 H 0.83325 0.26834 0.14841 0.0
C824 C 0.87595 0.37732 0.19 0.0
C825 C 0.89144 0.39106 0.17515 0.0
C826 C 0.84717 0.34496 0.18941 0.0
C827 C 0.83331 0.32572 0.17399 0.0
C828 C 0.84909 0.339 0.15915 0.0
H829 H 0.62288 0.15684 0.17287 0.0
H830 H 0.67393 0.20525 0.1632 0.0
C831 C 0.87809 0.37137 0.15973 0.0
C832 C 0.80104 0.29284 0.17353 0.0
H833 H 0.76601 0.207 0.1649 0.0
C834 C 0.77245 0.29295 0.17992 0.0
C835 C 0.79874 0.26159 0.16787 0.0
C836 C 0.82903 0.26002 0.16134 0.0
C837 C 0.74183 0.26257 0.18133 0.0
C838 C 0.7395 0.23123 0.17578 0.0
C839 C 0.76783 0.23113 0.16896 0.0
C840 C 0.70913 0.19836 0.17875 0.0
C841 C 0.71285 0.26429 0.18955 0.0
C842 C 0.71222 0.17722 0.18981 0.0
C843 C 0.68322 0.14925 0.19511 0.0
C844 C 0.65057 0.14203 0.18952 0.0
C845 C 0.64764 0.16172 0.17743 0.0
C846 C 0.67676 0.18959 0.17202 0.0
H847 H 0.72131 0.28968 0.19623 0.0
H848 H 0.69296 0.25943 0.17978 0.0
H849 H 0.70113 0.24468 0.19869 0.0
H850 H 0.73701 0.18339 0.19503 0.0
H851 H 0.68632 0.13406 0.20412 0.0
H852 H 0.98617 0.47548 0.1105 0.0
H853 H 0.98858 0.48098 0.08016 0.0
H854 H 0.01725 0.5868 0.08893 0.0
H855 H 0.01569 0.58183 0.11914 0.0
H856 H 0.95349 0.49937 0.05886 0.0
H857 H 0.09192 0.59202 0.05986 0.0
H858 H 0.07175 0.56849 0.07764 0.0
H859 H 0.0696 0.60593 0.07367 0.0
C860 C 0.99301 0.49992 0.10596 0.0
C861 C 1.00105 0.52829 0.11724 0.0
C862 C 0.99436 0.50301 0.08864 0.0
C863 C 0.0038 0.53448 0.08234 0.0
C864 C 0.01082 0.56252 0.09355 0.0
H865 H 0.01692 0.60868 0.98428 0.0
H866 H 0.01192 0.59948 0.01428 0.0
C867 C 0.00969 0.55954 0.11082 0.0
C868 C 0.00603 0.53807 0.06405 0.0
H869 H 0.05982 0.58415 0.03438 0.0
C870 C 0.97679 0.5177 0.05348 0.0
C871 C 0.03654 0.56193 0.05707 0.0
C872 C 0.06932 0.5831 0.06762 0.0
C873 C 0.97705 0.52121 0.03614 0.0
C874 C 0.0073 0.5456 0.0293 0.0
C875 C 0.03661 0.5657 0.03979 0.0
C876 C 0.00915 0.55051 0.01119 0.0
C877 C 0.9449 0.49936 0.02527 0.0
C878 C 0.00938 0.52603 -0.00034 0.0
C879 C 0.01237 0.53126 0.98259 0.0
C880 C 0.01505 0.56103 0.97679 0.0
C881 C 0.01455 0.58538 0.98839 0.0
C882 C 0.01185 0.58025 0.00548 0.0
H883 H 0.92236 0.48531 0.03284 0.0
H884 H 0.93994 0.51527 0.01697 0.0
H885 H 0.94808 0.48052 0.01711 0.0
H886 H 0.00759 0.50305 0.00391 0.0
H887 H 0.0124 0.51194 0.97391 0.0
H888 H 0.5209 0.95759 0.44304 0.0
H889 H 0.50805 0.95274 0.41274 0.0
H890 H 0.52464 0.05498 0.41638 0.0
H891 H 0.53771 0.06036 0.44657 0.0
H892 H 0.45506 0.98364 0.39716 0.0
H893 H 0.58791 0.02774 0.37852 0.0
H894 H 0.57085 0.00131 0.39579 0.0
H895 H 0.58011 0.0446 0.39799 0.0
C896 C 0.52185 0.97907 0.43742 0.0
C897 C 0.53039 0.00939 0.44725 0.0
C898 C 0.51442 0.97619 0.42015 0.0
C899 C 0.5154 0.0035 0.41249 0.0
C900 C 0.52375 0.03367 0.42218 0.0
H901 H 0.51252 0.05768 0.31206 0.0
H902 H 0.51989 0.05538 0.34222 0.0
C903 C 0.53125 0.03665 0.43942 0.0
C904 C 0.50819 0.00094 0.39426 0.0
H905 H 0.54693 0.01705 0.35702 0.0
C906 C 0.47496 0.99062 0.3883 0.0
C907 C 0.53442 0.01036 0.38294 0.0
C908 C 0.57044 0.02167 0.38899 0.0
C909 C 0.46734 0.98994 0.37114 0.0
C910 C 0.49367 0.99961 0.35979 0.0
C911 C 0.52685 0.00961 0.3658 0.0
C912 C 0.48769 0.00068 0.34168 0.0
C913 C 0.43153 0.97991 0.36532 0.0
C914 C 0.46707 0.97063 0.33146 0.0
C915 C 0.46298 0.97181 0.31418 0.0
C916 C 0.47959 0.00308 0.30688 0.0
C917 C 0.49979 0.03315 0.31726 0.0
C918 C 0.50391 0.03193 0.33449 0.0
H919 H 0.41586 0.97947 0.37598 0.0
H920 H 0.4318 0.99777 0.35639 0.0
H921 H 0.4191 0.95405 0.35866 0.0
H922 H 0.45478 0.94622 0.33678 0.0
H923 H 0.44764 0.94816 0.30649 0.0
H924 H 0.58859 0.55153 0.78941 0.0
H925 H 0.59611 0.54864 0.75928 0.0
H926 H 0.48855 0.47799 0.75034 0.0
H927 H 0.4808 0.48007 0.78058 0.0
H928 H 0.52968 0.4589 0.73227 0.0
H929 H 0.5669 0.59351 0.725 0.0
H930 H 0.59224 0.58851 0.7408 0.0
H931 H 0.54762 0.57243 0.74352 0.0
C932 C 0.56649 0.53525 0.78108 0.0
C933 C 0.53405 0.51607 0.78741 0.0
C934 C 0.57083 0.53384 0.76384 0.0
C935 C 0.5428 0.51353 0.75259 0.0
C936 C 0.51047 0.49395 0.75884 0.0
H937 H 0.53801 0.52879 0.64529 0.0
H938 H 0.52786 0.52725 0.67526 0.0
C939 C 0.50609 0.49525 0.77611 0.0
C940 C 0.54731 0.5127 0.7343 0.0
H941 H 0.57407 0.56307 0.70159 0.0
C942 C 0.53926 0.48161 0.72552 0.0
C943 C 0.5594 0.54231 0.72553 0.0
C944 C 0.56675 0.57603 0.73414 0.0
C945 C 0.54353 0.47947 0.7082 0.0
C946 C 0.55674 0.50933 0.69955 0.0
C947 C 0.56427 0.54029 0.7083 0.0
C948 C 0.56233 0.50906 0.68134 0.0
C949 C 0.53335 0.44519 0.69927 0.0
C950 C 0.58523 0.49951 0.67486 0.0
C951 C 0.59111 0.50038 0.65771 0.0
C952 C 0.57446 0.51121 0.64683 0.0
C953 C 0.55156 0.52076 0.6534 0.0
C954 C 0.5456 0.51974 0.67049 0.0
H955 H 0.51566 0.42395 0.70661 0.0
H956 H 0.52096 0.44217 0.68669 0.0
H957 H 0.55646 0.44305 0.6975 0.0
H958 H 0.59898 0.49192 0.68309 0.0
H959 H 0.6092 0.49328 0.65303 0.0
H960 H 0.521 0.04453 0.54635 0.0
H961 H 0.52073 0.04124 0.57677 0.0
H962 H 0.57674 0.98762 0.57283 0.0
H963 H 0.57729 0.99079 0.54235 0.0
H964 H 0.49523 0.97975 0.5951 0.0
H965 H 0.63371 0.07177 0.60773 0.0
H966 H 0.61118 0.06944 0.58842 0.0
H967 H 0.62211 0.03734 0.59184 0.0
C968 C 0.53326 0.03199 0.55192 0.0
C969 C 0.54937 0.01812 0.54192 0.0
C970 C 0.53301 0.0301 0.56929 0.0
C971 C 0.54904 0.01455 0.577 0.0
C972 C 0.56463 1.00012 0.56709 0.0
H973 H 0.58183 0.00541 0.68432 0.0
H974 H 0.58141 0.99837 0.65363 0.0
C975 C 0.56478 0.00186 0.54968 0.0
C976 C 0.54943 0.01364 0.59546 0.0
H977 H 0.60152 0.04766 0.63103 0.0
C978 C 0.51845 0.99444 0.60299 0.0
C979 C 0.57984 0.03267 0.60562 0.0
C980 C 0.61366 0.0542 0.59809 0.0
C981 C 0.517 0.994 0.6205 0.0
C982 C 0.54725 0.01396 0.63072 0.0
C983 C 0.57838 0.03245 0.62316 0.0
C984 C 0.54689 0.01732 0.64927 0.0
C985 C 0.48312 0.97205 0.62789 0.0
C986 C 0.52796 0.03067 0.65695 0.0
C987 C 0.52793 0.03447 0.67442 0.0
C988 C 0.54717 0.02534 0.68459 0.0
C989 C 0.5664 0.01225 0.67685 0.0
C990 C 0.56634 0.00839 0.65933 0.0
H991 H 0.46521 0.9509 0.61871 0.0
H992 H 0.48621 0.96108 0.63936 0.0
H993 H 0.47141 0.98784 0.63137 0.0
H994 H 0.51334 0.0384 0.64942 0.0
H995 H 0.51256 0.04428 0.67995 0.0
H996 H 0.57256 0.52972 0.88839 0.0
H997 H 0.56691 0.52825 0.91878 0.0
H998 H 0.46281 0.50519 0.9122 0.0
H999 H 0.46798 0.50631 0.88184 0.0
H1000 H 0.54908 0.5688 0.94044 0.0
H1001 H 0.45714 0.43033 0.94109 0.0
H1002 H 0.48197 0.44862 0.92322 0.0
H1003 H 0.44489 0.45219 0.92707 0.0
C1004 C 0.5484 0.52421 0.89338 0.0
C1005 C 0.5207 0.51808 0.88264 0.0
C1006 C 0.54526 0.52343 0.91074 0.0
C1007 C 0.51434 0.51622 0.91767 0.0
C1008 C 0.48671 0.51025 0.90705 0.0
H1009 H 0.47589 0.55247 0.02083 0.0
H1010 H 0.48178 0.55208 0.9904 0.0
C1011 C 0.48982 0.5111 0.88969 0.0
C1012 C 0.51118 0.51571 0.93606 0.0
H1013 H 0.46793 0.46426 0.96679 0.0
C1014 C 0.53144 0.54595 0.94623 0.0
C1015 C 0.48835 0.48575 0.94353 0.0
C1016 C 0.46702 0.45226 0.93321 0.0
C1017 C 0.52904 0.54718 0.96373 0.0
C1018 C 0.50551 0.51745 0.97115 0.0
C1019 C 0.4857 0.48706 0.96101 0.0
C1020 C 0.50139 0.5173 0.98947 0.0
C1021 C 0.55193 0.58012 0.97416 0.0
C1022 C 0.50973 0.49726 -0.0011 0.0
C1023 C 0.5062 0.49726 0.01624 0.0
C1024 C 0.494 0.51712 0.02442 0.0
C1025 C 0.48514 0.53675 0.01487 0.0
C1026 C 0.48879 0.53681 0.99753 0.0
H1027 H 0.57367 0.59813 0.96706 0.0
H1028 H 0.53702 0.59253 0.97795 0.0
H1029 H 0.56209 0.5753 0.98576 0.0
H1030 H 0.51926 0.48184 0.99285 0.0
H1031 H 0.51279 0.48152 0.02323 0.0
H1032 H 0.0059 0.4737 0.21197 0.0
H1033 H 0.01001 0.4723 0.24239 0.0
H1034 H 0.02361 0.57339 0.24934 0.0
H1035 H 0.02097 0.57551 0.21889 0.0
H1036 H 0.06715 0.56859 0.26906 0.0
H1037 H 0.93984 0.45674 0.27562 0.0
H1038 H 0.96455 0.4468 0.26146 0.0
H1039 H 0.95211 0.47723 0.25631 0.0
C1040 C 0.00964 0.49559 0.21998 0.0
C1041 C 0.01303 0.5247 0.21303 0.0
C1042 C 0.01169 0.49464 0.23738 0.0
C1043 C 0.01634 0.52243 0.24819 0.0
C1044 C 0.01983 0.55156 0.24126 0.0
H1045 H 0.98884 0.51552 0.35585 0.0
H1046 H 0.98211 0.51586 0.32538 0.0
C1047 C 0.01832 0.55275 0.22385 0.0
C1048 C 0.01895 0.52174 0.26669 0.0
H1049 H 0.97904 0.47516 0.2995 0.0
C1050 C 0.04775 0.54827 0.27573 0.0
C1051 C 0.99338 0.49554 0.27544 0.0
C1052 C 0.96058 0.46769 0.26673 0.0
C1053 C 0.05198 0.54908 0.29321 0.0
C1054 C 0.02731 0.52192 0.30184 0.0
C1055 C 0.99821 0.4957 0.29285 0.0
C1056 C 0.03098 0.52054 0.32022 0.0
C1057 C 0.08248 0.57949 0.30224 0.0
C1058 C 0.06028 0.52224 0.32741 0.0
C1059 C 0.06434 0.52257 0.3448 0.0
C1060 C 0.03879 0.52033 0.35526 0.0
C1061 C 0.00885 0.51718 0.34802 0.0
C1062 C 0.00503 0.51742 0.33065 0.0
H1063 H 0.09243 0.6022 0.29489 0.0
H1064 H 0.07613 0.58613 0.31479 0.0
H1065 H 0.10319 0.57351 0.30398 0.0
H1066 H 0.08013 0.52351 0.31959 0.0
H1067 H 0.08743 0.52449 0.35008 0.0
loop_
_geom_bond_atom_site_label_1
_geom_bond_atom_site_label_2
_geom_bond_distance
_geom_bond_site_symmetry_2
_ccdc_geom_bond_type
Zn0 O6 1.969 . S
Zn0 O7 1.965 . S
Zn0 O11 2.024 . S
Zn0 O16 1.969 . S
Zn1 O8 1.969 . S
Zn1 O14 1.969 . S
Zn1 O15 1.965 . S
Zn1 O17 2.024 . S
C2 O3 1.229 . S
C2 O11 1.058 . S
O3 C2 1.229 . S
C4 O5 1.229 . S
C4 O17 1.058 . S
O5 C4 1.229 . S
O6 Zn0 1.969 . S
O6 C9 1.267 . S
O7 Zn0 1.965 . S
O7 C18 1.262 . S
O8 Zn1 1.969 . S
O8 C18 1.254 1_655 S
C9 O6 1.267 . S
C9 O10 1.228 . S
O10 C9 1.228 . S
O11 Zn0 2.024 . S
O11 C2 1.058 . S
C12 O13 1.228 . S
C12 O14 1.267 . S
O13 C12 1.228 . S
O14 Zn1 1.969 . S
O14 C12 1.267 . S
O15 Zn1 1.965 . S
O15 C19 1.260 1_655 S
O16 Zn0 1.969 . S
O16 C19 1.258 . S
O17 Zn1 2.024 . S
O17 C4 1.058 . S
C18 O7 1.262 . S
C18 O8 1.254 1_455 S
C19 O15 1.260 1_455 S
C19 O16 1.258 . S
Zn20 O26 1.969 . S
Zn20 O27 1.965 . S
Zn20 O31 2.024 . S
Zn20 O36 1.969 . S
Zn21 O28 1.969 . S
Zn21 O34 1.969 . S
Zn21 O35 1.965 . S
Zn21 O37 2.024 . S
C22 O23 1.229 . S
C22 O31 1.058 . S
O23 C22 1.229 . S
C24 O25 1.229 . S
C24 O37 1.058 . S
O25 C24 1.229 . S
O26 Zn20 1.969 . S
O26 C29 1.267 . S
O27 Zn20 1.965 . S
O27 C38 1.260 . S
O28 Zn21 1.969 . S
O28 C38 1.258 1_565 S
C29 O26 1.267 . S
C29 O30 1.228 . S
O30 C29 1.228 . S
O31 Zn20 2.024 . S
O31 C22 1.058 . S
C32 O33 1.228 . S
C32 O34 1.267 . S
O33 C32 1.228 . S
O34 Zn21 1.969 . S
O34 C32 1.267 . S
O35 Zn21 1.965 . S
O35 C39 1.260 1_565 S
O36 Zn20 1.969 . S
O36 C39 1.258 . S
O37 Zn21 2.024 . S
O37 C24 1.058 . S
C38 O27 1.260 . S
C38 O28 1.258 1_545 S
C39 O35 1.260 1_545 S
C39 O36 1.258 . S
Zn40 O46 1.969 . S
Zn40 O47 1.965 . S
Zn40 O51 2.024 . S
Zn40 O56 1.969 . S
Zn41 O48 1.969 . S
Zn41 O54 1.969 . S
Zn41 O55 1.965 . S
Zn41 O57 2.024 . S
C42 O43 1.229 . S
C42 O51 1.058 . S
O43 C42 1.229 . S
C44 O45 1.229 . S
C44 O57 1.058 . S
O45 C44 1.229 . S
O46 Zn40 1.969 . S
O46 C49 1.267 . S
O47 Zn40 1.965 . S
O47 C58 1.260 . S
O48 Zn41 1.969 . S
O48 C58 1.258 . S
C49 O46 1.267 . S
C49 O50 1.228 . S
O50 C49 1.228 . S
O51 Zn40 2.024 . S
O51 C42 1.058 . S
C52 O53 1.228 . S
C52 O54 1.267 . S
O53 C52 1.228 . S
O54 Zn41 1.969 . S
O54 C52 1.267 . S
O55 Zn41 1.965 . S
O55 C59 1.260 . S
O56 Zn40 1.969 . S
O56 C59 1.258 . S
O57 Zn41 2.024 . S
O57 C44 1.058 . S
C58 O47 1.260 . S
C58 O48 1.258 . S
C59 O55 1.260 . S
C59 O56 1.258 . S
C60 C61 1.391 . S
C60 C64 1.391 . S
C60 H102 0.948 . S
C61 C60 1.391 . S
C61 C62 1.391 . S
C62 C61 1.391 . S
C62 H118 0.947 . S
C62 C119 1.392 . S
C63 C64 1.391 . S
C63 C67 1.397 . S
C63 C119 1.419 . S
C64 C60 1.391 . S
C64 C63 1.391 . S
C64 C65 1.399 . S
C65 C64 1.399 . S
C65 C68 1.396 . S
C65 C77 1.453 . S
C65 C78 1.684 . S
H66 C90 0.948 . S
C67 C63 1.397 . S
C67 C68 1.394 . S
C67 C86 1.723 . S
C68 C65 1.396 . S
C68 C67 1.394 . S
C68 C98 1.723 . S
H69 C92 0.947 . S
H70 C93 0.953 . S
H71 C99 0.982 . S
H72 C100 0.979 . S
H73 C100 0.980 . S
H74 C100 0.983 . S
H75 C99 0.979 . S
H76 C99 0.977 . S
C77 C65 1.453 . S
C77 H106 0.982 . S
C77 H107 0.979 . S
C77 H108 0.977 . S
C78 C65 1.684 . S
C78 H103 0.979 . S
C78 H104 0.980 . S
C78 H105 0.983 . S
C79 C80 1.391 . S
C79 C84 1.391 . S
C79 H109 0.948 . S
C80 C79 1.391 . S
C80 C81 1.391 . S
C81 C80 1.391 . S
C81 C82 1.392 . S
C81 H110 0.947 1_545 S
C82 C81 1.392 . S
C82 C83 1.419 . S
C82 H111 0.948 1_545 S
C83 C82 1.419 . S
C83 C84 1.391 . S
C83 C87 1.397 . S
C84 C79 1.391 . S
C84 C83 1.391 . S
C84 C85 1.399 . S
C85 C84 1.399 . S
C85 C86 1.396 . S
C85 C88 1.453 . S
C85 C89 1.684 . S
C86 C67 1.723 . S
C86 C85 1.396 . S
C86 C87 1.394 . S
C87 C83 1.397 . S
C87 C86 1.394 . S
C87 C97 1.723 1_545 S
C88 C85 1.453 . S
C88 H112 0.982 . S
C88 H113 0.979 . S
C88 H114 0.977 . S
C89 C85 1.684 . S
C89 H115 0.979 . S
C89 H116 0.980 . S
C89 H117 0.983 . S
C90 H66 0.948 . S
C90 C91 1.391 . S
C90 C95 1.391 . S
C91 C90 1.391 . S
C91 C92 1.391 . S
C92 H69 0.947 . S
C92 C91 1.391 . S
C92 C93 1.392 . S
C93 H70 0.953 . S
C93 C92 1.392 . S
C93 C94 1.419 . S
C94 C93 1.419 . S
C94 C95 1.391 . S
C94 C98 1.397 1_565 S
C95 C90 1.391 . S
C95 C94 1.391 . S
C95 C96 1.399 . S
C96 C95 1.399 . S
C96 C97 1.396 . S
C96 C99 1.453 . S
C96 C100 1.684 . S
C97 C87 1.723 1_565 S
C97 C96 1.396 . S
C97 C98 1.394 1_565 S
C98 C68 1.723 . S
C98 C94 1.397 1_545 S
C98 C97 1.394 1_545 S
C99 H71 0.982 . S
C99 H75 0.979 . S
C99 H76 0.977 . S
C99 C96 1.453 . S
C100 H72 0.979 . S
C100 H73 0.980 . S
C100 H74 0.983 . S
C100 C96 1.684 . S
H101 C119 0.948 . S
H102 C60 0.948 . S
H103 C78 0.979 . S
H104 C78 0.980 . S
H105 C78 0.983 . S
H106 C77 0.982 . S
H107 C77 0.979 . S
H108 C77 0.977 . S
H109 C79 0.948 . S
H110 C81 0.947 1_565 S
H111 C82 0.948 1_565 S
H112 C88 0.982 . S
H113 C88 0.979 . S
H114 C88 0.977 . S
H115 C89 0.979 . S
H116 C89 0.980 . S
H117 C89 0.983 . S
H118 C62 0.947 . S
C119 C62 1.392 . S
C119 C63 1.419 . S
C119 H101 0.948 . S
C120 C121 1.391 . S
C120 C124 1.391 . S
C120 H162 0.948 . S
C121 C120 1.391 . S
C121 C122 1.391 . S
C122 C121 1.391 . S
C122 H178 0.947 . S
C122 C179 1.392 . S
C123 C124 1.391 . S
C123 C127 1.397 . S
C123 C179 1.419 . S
C124 C120 1.391 . S
C124 C123 1.391 . S
C124 C125 1.399 . S
C125 C124 1.399 . S
C125 C128 1.396 . S
C125 C137 1.453 . S
C125 C138 1.684 . S
H126 C150 0.948 . S
C127 C123 1.397 . S
C127 C128 1.394 . S
C127 C146 1.723 . S
C128 C125 1.396 . S
C128 C127 1.394 . S
C128 C158 1.723 . S
H129 C152 0.947 . S
H130 C153 0.948 . S
H131 C159 0.982 . S
H132 C160 0.979 . S
H133 C160 0.980 . S
H134 C160 0.983 . S
H135 C159 0.979 . S
H136 C159 0.977 . S
C137 C125 1.453 . S
C137 H166 0.982 . S
C137 H167 0.979 . S
C137 H168 0.977 . S
C138 C125 1.684 . S
C138 H163 0.979 . S
C138 H164 0.980 . S
C138 H165 0.983 . S
C139 C140 1.391 . S
C139 C144 1.391 . S
C139 H169 0.948 . S
C140 C139 1.391 . S
C140 C141 1.391 . S
C141 C140 1.391 . S
C141 C142 1.392 . S
C141 H170 0.947 . S
C142 C141 1.392 . S
C142 C143 1.419 . S
C142 H171 0.948 . S
C143 C142 1.419 . S
C143 C144 1.391 . S
C143 C147 1.397 . S
C144 C139 1.391 . S
C144 C143 1.391 . S
C144 C145 1.399 . S
C145 C144 1.399 . S
C145 C146 1.396 . S
C145 C148 1.453 . S
C145 C149 1.684 . S
C146 C127 1.723 . S
C146 C145 1.396 . S
C146 C147 1.394 . S
C147 C143 1.397 . S
C147 C146 1.394 . S
C147 C157 1.723 . S
C148 C145 1.453 . S
C148 H172 0.982 . S
C148 H173 0.979 . S
C148 H174 0.977 . S
C149 C145 1.684 . S
C149 H175 0.979 . S
C149 H176 0.980 . S
C149 H177 0.983 . S
C150 H126 0.948 . S
C150 C151 1.391 . S
C150 C155 1.391 . S
C151 C150 1.391 . S
C151 C152 1.391 . S
C152 H129 0.947 . S
C152 C151 1.391 . S
C152 C153 1.392 . S
C153 H130 0.948 . S
C153 C152 1.392 . S
C153 C154 1.419 . S
C154 C153 1.419 . S
C154 C155 1.391 . S
C154 C158 1.397 . S
C155 C150 1.391 . S
C155 C154 1.391 . S
C155 C156 1.399 . S
C156 C155 1.399 . S
C156 C157 1.396 . S
C156 C159 1.453 . S
C156 C160 1.684 . S
C157 C147 1.723 . S
C157 C156 1.396 . S
C157 C158 1.394 . S
C158 C128 1.723 . S
C158 C154 1.397 . S
C158 C157 1.394 . S
C159 H131 0.982 . S
C159 H135 0.979 . S
C159 H136 0.977 . S
C159 C156 1.453 . S
C160 H132 0.979 . S
C160 H133 0.980 . S
C160 H134 0.983 . S
C160 C156 1.684 . S
H161 C179 0.948 . S
H162 C120 0.948 . S
H163 C138 0.979 . S
H164 C138 0.980 . S
H165 C138 0.983 . S
H166 C137 0.982 . S
H167 C137 0.979 . S
H168 C137 0.977 . S
H169 C139 0.948 . S
H170 C141 0.947 . S
H171 C142 0.948 . S
H172 C148 0.982 . S
H173 C148 0.979 . S
H174 C148 0.977 . S
H175 C149 0.979 . S
H176 C149 0.980 . S
H177 C149 0.983 . S
H178 C122 0.947 . S
C179 C122 1.392 . S
C179 C123 1.419 . S
C179 H161 0.948 . S
C180 C181 1.391 . S
C180 C184 1.391 . S
C180 H222 0.948 . S
C181 C180 1.391 . S
C181 C182 1.391 . S
C182 C181 1.391 . S
C182 H238 0.947 . S
C182 C239 1.392 . S
C183 C184 1.391 . S
C183 C187 1.397 . S
C183 C239 1.419 . S
C184 C180 1.391 . S
C184 C183 1.391 . S
C184 C185 1.399 . S
C185 C184 1.399 . S
C185 C188 1.396 . S
C185 C197 1.453 . S
C185 C198 1.684 . S
H186 C210 0.948 . S
C187 C183 1.397 . S
C187 C188 1.394 . S
C187 C206 1.723 . S
C188 C185 1.396 . S
C188 C187 1.394 . S
C188 C218 1.723 . S
H189 C212 0.947 . S
H190 C213 0.948 1_455 S
H191 C219 0.982 . S
H192 C220 0.979 . S
H193 C220 0.980 . S
H194 C220 0.983 . S
H195 C219 0.979 . S
H196 C219 0.977 . S
C197 C185 1.453 . S
C197 H226 0.982 . S
C197 H227 0.979 . S
C197 H228 0.977 . S
C198 C185 1.684 . S
C198 H223 0.979 . S
C198 H224 0.980 . S
C198 H225 0.983 . S
C199 C200 1.391 . S
C199 C204 1.391 . S
C199 H229 0.948 . S
C200 C199 1.391 . S
C200 C201 1.391 . S
C201 C200 1.391 . S
C201 C202 1.392 . S
C201 H230 0.947 1_455 S
C202 C201 1.392 . S
C202 C203 1.419 . S
C202 H231 0.948 1_455 S
C203 C202 1.419 . S
C203 C204 1.391 . S
C203 C207 1.397 . S
C204 C199 1.391 . S
C204 C203 1.391 . S
C204 C205 1.399 . S
C205 C204 1.399 . S
C205 C206 1.396 . S
C205 C208 1.453 . S
C205 C209 1.684 . S
C206 C187 1.723 . S
C206 C205 1.396 . S
C206 C207 1.394 . S
C207 C203 1.397 . S
C207 C206 1.394 . S
C207 C217 1.724 1_455 S
C208 C205 1.453 . S
C208 H232 0.982 . S
C208 H233 0.979 . S
C208 H234 0.977 . S
C209 C205 1.684 . S
C209 H235 0.979 . S
C209 H236 0.980 . S
C209 H237 0.983 . S
C210 H186 0.948 . S
C210 C211 1.391 . S
C210 C215 1.391 . S
C211 C210 1.391 . S
C211 C212 1.391 . S
C212 H189 0.947 . S
C212 C211 1.391 . S
C212 C213 1.392 . S
C213 H190 0.948 1_655 S
C213 C212 1.392 . S
C213 C214 1.419 . S
C214 C213 1.419 . S
C214 C215 1.391 . S
C214 C218 1.397 1_655 S
C215 C210 1.391 . S
C215 C214 1.391 . S
C215 C216 1.399 . S
C216 C215 1.399 . S
C216 C217 1.395 . S
C216 C219 1.453 . S
C216 C220 1.684 . S
C217 C207 1.724 1_655 S
C217 C216 1.395 . S
C217 C218 1.395 1_655 S
C218 C188 1.723 . S
C218 C214 1.397 1_455 S
C218 C217 1.395 1_455 S
C219 H191 0.982 . S
C219 H195 0.979 . S
C219 H196 0.977 . S
C219 C216 1.453 . S
C220 H192 0.979 . S
C220 H193 0.980 . S
C220 H194 0.983 . S
C220 C216 1.684 . S
H221 C239 0.948 . S
H222 C180 0.948 . S
H223 C198 0.979 . S
H224 C198 0.980 . S
H225 C198 0.983 . S
H226 C197 0.982 . S
H227 C197 0.979 . S
H228 C197 0.977 . S
H229 C199 0.948 . S
H230 C201 0.947 1_655 S
H231 C202 0.948 1_655 S
H232 C208 0.982 . S
H233 C208 0.979 . S
H234 C208 0.977 . S
H235 C209 0.979 . S
H236 C209 0.980 . S
H237 C209 0.983 . S
H238 C182 0.947 . S
C239 C182 1.392 . S
C239 C183 1.419 . S
C239 H221 0.948 . S
C240 C241 1.391 . S
C240 C244 1.391 . S
C240 H282 0.948 . S
C241 C240 1.391 . S
C241 C242 1.391 . S
C242 C241 1.391 . S
C242 H298 0.947 . S
C242 C299 1.392 . S
C243 C244 1.391 . S
C243 C247 1.397 . S
C243 C299 1.419 . S
C244 C240 1.391 . S
C244 C243 1.391 . S
C244 C245 1.399 1_655 S
C245 C244 1.399 1_455 S
C245 C248 1.396 . S
C245 C257 1.453 . S
C245 C258 1.684 . S
H246 C270 0.948 . S
C247 C243 1.397 . S
C247 C248 1.394 1_655 S
C247 C266 1.723 . S
C248 C245 1.396 . S
C248 C247 1.394 1_455 S
C248 C278 1.723 . S
H249 C272 0.947 . S
H250 C273 0.948 . S
H251 C279 0.982 . S
H252 C280 0.979 . S
H253 C280 0.980 . S
H254 C280 0.983 . S
H255 C279 0.979 . S
H256 C279 0.977 . S
C257 C245 1.453 . S
C257 H286 0.982 . S
C257 H287 0.979 . S
C257 H288 0.977 . S
C258 C245 1.684 . S
C258 H283 0.979 1_455 S
C258 H284 0.980 . S
C258 H285 0.983 1_455 S
C259 C260 1.391 1_655 S
C259 C264 1.391 . S
C259 H289 0.948 . S
C260 C259 1.391 1_455 S
C260 C261 1.391 . S
C261 C260 1.391 . S
C261 C262 1.392 . S
C261 H290 0.947 . S
C262 C261 1.392 . S
C262 C263 1.419 . S
C262 H291 0.948 . S
C263 C262 1.419 . S
C263 C264 1.391 1_455 S
C263 C267 1.397 . S
C264 C259 1.391 . S
C264 C263 1.391 1_655 S
C264 C265 1.399 . S
C265 C264 1.399 . S
C265 C266 1.400 . S
C265 C268 1.453 . S
C265 C269 1.684 . S
C266 C247 1.723 . S
C266 C265 1.400 . S
C266 C267 1.391 1_655 S
C267 C263 1.397 . S
C267 C266 1.391 1_455 S
C267 C277 1.723 . S
C268 C265 1.453 . S
C268 H292 0.982 . S
C268 H293 0.979 . S
C268 H294 0.977 . S
C269 C265 1.684 . S
C269 H295 0.979 . S
C269 H296 0.980 . S
C269 H297 0.983 . S
C270 H246 0.948 . S
C270 C271 1.391 . S
C270 C275 1.391 . S
C271 C270 1.391 . S
C271 C272 1.391 . S
C272 H249 0.947 . S
C272 C271 1.391 . S
C272 C273 1.392 . S
C273 H250 0.948 . S
C273 C272 1.392 . S
C273 C274 1.419 . S
C274 C273 1.419 . S
C274 C275 1.391 . S
C274 C278 1.397 . S
C275 C270 1.391 . S
C275 C274 1.391 . S
C275 C276 1.399 . S
C276 C275 1.399 . S
C276 C277 1.396 . S
C276 C279 1.453 . S
C276 C280 1.684 . S
C277 C267 1.723 . S
C277 C276 1.396 . S
C277 C278 1.394 . S
C278 C248 1.723 . S
C278 C274 1.397 . S
C278 C277 1.394 . S
C279 H251 0.982 . S
C279 H255 0.979 . S
C279 H256 0.977 . S
C279 C276 1.453 . S
C280 H252 0.979 . S
C280 H253 0.980 . S
C280 H254 0.983 . S
C280 C276 1.684 . S
H281 C299 0.948 . S
H282 C240 0.948 . S
H283 C258 0.979 1_655 S
H284 C258 0.980 . S
H285 C258 0.983 1_655 S
H286 C257 0.982 . S
H287 C257 0.979 . S
H288 C257 0.977 . S
H289 C259 0.948 . S
H290 C261 0.947 . S
H291 C262 0.948 . S
H292 C268 0.982 . S
H293 C268 0.979 . S
H294 C268 0.977 . S
H295 C269 0.979 . S
H296 C269 0.980 . S
H297 C269 0.983 . S
H298 C242 0.947 . S
C299 C242 1.392 . S
C299 C243 1.419 . S
C299 H281 0.948 . S
C300 C301 1.391 . S
C300 C304 1.391 . S
C300 H342 0.948 . S
C301 C300 1.391 . S
C301 C302 1.391 . S
C302 C301 1.391 . S
C302 H358 0.947 . S
C302 C359 1.392 . S
C303 C304 1.391 . S
C303 C307 1.397 . S
C303 C359 1.419 . S
C304 C300 1.391 . S
C304 C303 1.391 . S
C304 C305 1.399 . S
C305 C304 1.399 . S
C305 C308 1.396 1_565 S
C305 C317 1.453 1_565 S
C305 C318 1.684 . S
H306 C330 0.948 . S
C307 C303 1.397 . S
C307 C308 1.394 1_565 S
C307 C326 1.723 . S
C308 C305 1.396 1_545 S
C308 C307 1.394 1_545 S
C308 C338 1.723 . S
H309 C332 0.947 . S
H310 C333 0.948 . S
H311 C339 0.982 . S
H312 C340 0.979 . S
H313 C340 0.980 . S
H314 C340 0.983 . S
H315 C339 0.979 . S
H316 C339 0.977 . S
C317 C305 1.453 1_545 S
C317 H346 0.982 . S
C317 H347 0.979 . S
C317 H348 0.977 . S
C318 C305 1.684 . S
C318 H343 0.979 . S
C318 H344 0.980 1_565 S
C318 H345 0.983 . S
C319 C320 1.391 1_565 S
C319 C324 1.391 1_565 S
C319 H349 0.948 . S
C320 C319 1.391 1_545 S
C320 C321 1.391 . S
C321 C320 1.391 . S
C321 C322 1.392 . S
C321 H350 0.947 . S
C322 C321 1.392 . S
C322 C323 1.419 . S
C322 H351 0.948 . S
C323 C322 1.419 . S
C323 C324 1.391 . S
C323 C327 1.397 . S
C324 C319 1.391 1_545 S
C324 C323 1.391 . S
C324 C325 1.400 1_545 S
C325 C324 1.400 1_565 S
C325 C326 1.396 . S
C325 C328 1.453 . S
C325 C329 1.684 . S
C326 C307 1.723 . S
C326 C325 1.396 . S
C326 C327 1.394 1_565 S
C327 C323 1.397 . S
C327 C326 1.394 1_545 S
C327 C337 1.723 . S
C328 C325 1.453 . S
C328 H352 0.982 . S
C328 H353 0.979 . S
C328 H354 0.977 . S
C329 C325 1.684 . S
C329 H355 0.979 . S
C329 H356 0.980 . S
C329 H357 0.983 . S
C330 H306 0.948 . S
C330 C331 1.391 . S
C330 C335 1.391 . S
C331 C330 1.391 . S
C331 C332 1.391 . S
C332 H309 0.947 . S
C332 C331 1.391 . S
C332 C333 1.392 . S
C333 H310 0.948 . S
C333 C332 1.392 . S
C333 C334 1.419 . S
C334 C333 1.419 . S
C334 C335 1.391 . S
C334 C338 1.397 . S
C335 C330 1.391 . S
C335 C334 1.391 . S
C335 C336 1.399 . S
C336 C335 1.399 . S
C336 C337 1.396 . S
C336 C339 1.453 . S
C336 C340 1.684 . S
C337 C327 1.723 . S
C337 C336 1.396 . S
C337 C338 1.394 . S
C338 C308 1.723 . S
C338 C334 1.397 . S
C338 C337 1.394 . S
C339 H311 0.982 . S
C339 H315 0.979 . S
C339 H316 0.977 . S
C339 C336 1.453 . S
C340 H312 0.979 . S
C340 H313 0.980 . S
C340 H314 0.983 . S
C340 C336 1.684 . S
H341 C359 0.948 . S
H342 C300 0.948 . S
H343 C318 0.979 . S
H344 C318 0.980 1_545 S
H345 C318 0.983 . S
H346 C317 0.982 . S
H347 C317 0.979 . S
H348 C317 0.977 . S
H349 C319 0.948 . S
H350 C321 0.947 . S
H351 C322 0.948 . S
H352 C328 0.982 . S
H353 C328 0.979 . S
H354 C328 0.977 . S
H355 C329 0.979 . S
H356 C329 0.980 . S
H357 C329 0.983 . S
H358 C302 0.947 . S
C359 C302 1.392 . S
C359 C303 1.419 . S
C359 H341 0.948 . S
C360 C361 1.391 . S
C360 C364 1.391 . S
C360 H402 0.948 . S
C361 C360 1.391 . S
C361 C362 1.391 . S
C362 C361 1.391 . S
C362 H418 0.947 . S
C362 C419 1.392 . S
C363 C364 1.391 . S
C363 C367 1.397 . S
C363 C419 1.419 . S
C364 C360 1.391 . S
C364 C363 1.391 . S
C364 C365 1.399 . S
C365 C364 1.399 . S
C365 C368 1.396 . S
C365 C377 1.453 . S
C365 C378 1.684 . S
H366 C390 0.948 . S
C367 C363 1.397 . S
C367 C368 1.394 . S
C367 C386 1.723 . S
C368 C365 1.396 . S
C368 C367 1.394 . S
C368 C398 1.723 . S
H369 C392 0.947 . S
H370 C393 0.948 . S
H371 C399 0.982 . S
H372 C400 0.979 . S
H373 C400 0.980 . S
H374 C400 0.983 . S
H375 C399 0.979 . S
H376 C399 0.977 . S
C377 C365 1.453 . S
C377 H406 0.982 . S
C377 H407 0.979 . S
C377 H408 0.977 . S
C378 C365 1.684 . S
C378 H403 0.979 . S
C378 H404 0.980 . S
C378 H405 0.983 . S
C379 C380 1.391 . S
C379 C384 1.391 . S
C379 H409 0.948 . S
C380 C379 1.391 . S
C380 C381 1.391 . S
C381 C380 1.391 . S
C381 C382 1.392 . S
C381 H410 0.947 . S
C382 C381 1.392 . S
C382 C383 1.419 . S
C382 H411 0.948 . S
C383 C382 1.419 . S
C383 C384 1.391 . S
C383 C387 1.397 . S
C384 C379 1.391 . S
C384 C383 1.391 . S
C384 C385 1.399 . S
C385 C384 1.399 . S
C385 C386 1.396 . S
C385 C388 1.453 . S
C385 C389 1.684 . S
C386 C367 1.723 . S
C386 C385 1.396 . S
C386 C387 1.394 . S
C387 C383 1.397 . S
C387 C386 1.394 . S
C387 C397 1.723 . S
C388 C385 1.453 . S
C388 H412 0.982 . S
C388 H413 0.979 . S
C388 H414 0.977 . S
C389 C385 1.684 . S
C389 H415 0.979 . S
C389 H416 0.980 . S
C389 H417 0.983 . S
C390 H366 0.948 . S
C390 C391 1.391 . S
C390 C395 1.391 . S
C391 C390 1.391 . S
C391 C392 1.391 . S
C392 H369 0.947 . S
C392 C391 1.391 . S
C392 C393 1.392 . S
C393 H370 0.948 . S
C393 C392 1.392 . S
C393 C394 1.419 . S
C394 C393 1.419 . S
C394 C395 1.391 . S
C394 C398 1.397 . S
C395 C390 1.391 . S
C395 C394 1.391 . S
C395 C396 1.399 . S
C396 C395 1.399 . S
C396 C397 1.396 . S
C396 C399 1.453 . S
C396 C400 1.684 . S
C397 C387 1.723 . S
C397 C396 1.396 . S
C397 C398 1.394 . S
C398 C368 1.723 . S
C398 C394 1.397 . S
C398 C397 1.394 . S
C399 H371 0.982 . S
C399 H375 0.979 . S
C399 H376 0.977 . S
C399 C396 1.453 . S
C400 H372 0.979 . S
C400 H373 0.980 . S
C400 H374 0.983 . S
C400 C396 1.684 . S
H401 C419 0.948 . S
H402 C360 0.948 . S
H403 C378 0.979 . S
H404 C378 0.980 . S
H405 C378 0.983 . S
H406 C377 0.982 . S
H407 C377 0.979 . S
H408 C377 0.977 . S
H409 C379 0.948 . S
H410 C381 0.947 . S
H411 C382 0.948 . S
H412 C388 0.982 . S
H413 C388 0.979 . S
H414 C388 0.977 . S
H415 C389 0.979 . S
H416 C389 0.980 . S
H417 C389 0.983 . S
H418 C362 0.947 . S
C419 C362 1.392 . S
C419 C363 1.419 . S
C419 H401 0.948 . S
H420 C428 0.929 . S
H421 C430 0.930 . S
H422 C432 0.930 . S
H423 C435 0.929 . S
H424 C438 0.930 . S
H425 C440 0.960 . S
H426 C440 0.960 . S
H427 C440 0.960 . S
C428 H420 0.929 . S
C428 C429 1.377 . S
C428 C430 1.384 . S
C429 C428 1.377 . S
C429 C435 1.390 . S
C430 H421 0.930 . S
C430 C428 1.384 . S
C430 C431 1.372 . S
C431 C430 1.372 . S
C431 C432 1.400 . S
C431 C436 1.490 . S
C432 H422 0.930 . S
C432 C431 1.400 . S
C432 C435 1.386 . S
H433 C449 0.930 . S
H434 C450 0.931 . S
C435 H423 0.929 . S
C435 C429 1.390 . S
C435 C432 1.386 . S
C436 C431 1.490 . S
C436 C438 1.395 . S
C436 C439 1.403 . S
H437 C443 0.930 . S
C438 H424 0.930 . S
C438 C436 1.395 . S
C438 C441 1.403 . S
C439 C436 1.403 . S
C439 C440 1.524 . S
C439 C443 1.400 . S
C440 H425 0.960 . S
C440 H426 0.960 . S
C440 H427 0.960 . S
C440 C439 1.524 . S
C441 C438 1.403 . S
C441 C442 1.392 . S
C441 C445 1.495 . S
C442 C441 1.392 . S
C442 C443 1.385 . S
C442 C444 1.478 . S
C443 H437 0.930 . S
C443 C439 1.400 . S
C443 C442 1.385 . S
C444 C442 1.478 . S
C444 C446 1.381 . S
C444 C450 1.383 . S
C445 C441 1.495 . S
C445 H451 0.959 . S
C445 H452 0.961 . S
C445 H453 0.960 . S
C446 C444 1.381 . S
C446 C447 1.394 . S
C446 H454 0.930 . S
C447 C446 1.394 . S
C447 C448 1.383 . S
C447 H455 0.929 . S
C448 C447 1.383 . S
C448 C449 1.377 . S
C449 H433 0.930 . S
C449 C448 1.377 . S
C449 C450 1.379 . S
C450 H434 0.931 . S
C450 C444 1.383 . S
C450 C449 1.379 . S
H451 C445 0.959 . S
H452 C445 0.961 . S
H453 C445 0.960 . S
H454 C446 0.930 . S
H455 C447 0.929 . S
H456 C464 0.929 . S
H457 C466 0.930 . S
H458 C468 0.930 . S
H459 C471 0.929 . S
H460 C474 0.930 . S
H461 C476 0.960 . S
H462 C476 0.960 . S
H463 C476 0.960 . S
C464 H456 0.929 . S
C464 C465 1.377 . S
C464 C466 1.384 . S
C465 C464 1.377 . S
C465 C471 1.390 . S
C466 H457 0.930 . S
C466 C464 1.384 . S
C466 C467 1.372 . S
C467 C466 1.372 . S
C467 C468 1.400 . S
C467 C472 1.490 . S
C468 H458 0.930 . S
C468 C467 1.400 . S
C468 C471 1.386 . S
H469 C485 0.930 . S
H470 C486 0.931 . S
C471 H459 0.929 . S
C471 C465 1.390 . S
C471 C468 1.386 . S
C472 C467 1.490 . S
C472 C474 1.395 . S
C472 C475 1.403 . S
H473 C479 0.930 . S
C474 H460 0.930 . S
C474 C472 1.395 . S
C474 C477 1.403 . S
C475 C472 1.403 . S
C475 C476 1.524 . S
C475 C479 1.400 . S
C476 H461 0.960 . S
C476 H462 0.960 . S
C476 H463 0.960 . S
C476 C475 1.524 . S
C477 C474 1.403 . S
C477 C478 1.392 . S
C477 C481 1.495 . S
C478 C477 1.392 . S
C478 C479 1.385 . S
C478 C480 1.478 . S
C479 H473 0.930 . S
C479 C475 1.400 . S
C479 C478 1.385 . S
C480 C478 1.478 . S
C480 C482 1.381 . S
C480 C486 1.383 . S
C481 C477 1.495 . S
C481 H487 0.959 . S
C481 H488 0.961 . S
C481 H489 0.960 . S
C482 C480 1.381 . S
C482 C483 1.394 . S
C482 H490 0.930 . S
C483 C482 1.394 . S
C483 C484 1.383 . S
C483 H491 0.929 . S
C484 C483 1.383 . S
C484 C485 1.377 . S
C485 H469 0.930 . S
C485 C484 1.377 . S
C485 C486 1.379 . S
C486 H470 0.931 . S
C486 C480 1.383 . S
C486 C485 1.379 . S
H487 C481 0.959 . S
H488 C481 0.961 . S
H489 C481 0.960 . S
H490 C482 0.930 . S
H491 C483 0.929 . S
H492 C500 0.929 . S
H493 C502 0.930 . S
H494 C504 0.930 . S
H495 C507 0.929 . S
H496 C510 0.930 . S
H497 C512 0.960 . S
H498 C512 0.960 . S
H499 C512 0.960 . S
C500 H492 0.929 . S
C500 C501 1.377 . S
C500 C502 1.384 . S
C501 C500 1.377 . S
C501 C507 1.390 . S
C502 H493 0.930 . S
C502 C500 1.384 . S
C502 C503 1.372 . S
C503 C502 1.372 . S
C503 C504 1.400 . S
C503 C508 1.490 . S
C504 H494 0.930 . S
C504 C503 1.400 . S
C504 C507 1.386 . S
H505 C521 0.930 . S
H506 C522 0.931 . S
C507 H495 0.929 . S
C507 C501 1.390 . S
C507 C504 1.386 . S
C508 C503 1.490 . S
C508 C510 1.395 . S
C508 C511 1.403 . S
H509 C515 0.930 . S
C510 H496 0.930 . S
C510 C508 1.395 . S
C510 C513 1.403 . S
C511 C508 1.403 . S
C511 C512 1.524 . S
C511 C515 1.400 . S
C512 H497 0.960 . S
C512 H498 0.960 . S
C512 H499 0.960 . S
C512 C511 1.524 . S
C513 C510 1.403 . S
C513 C514 1.392 . S
C513 C517 1.495 . S
C514 C513 1.392 . S
C514 C515 1.385 . S
C514 C516 1.478 . S
C515 H509 0.930 . S
C515 C511 1.400 . S
C515 C514 1.385 . S
C516 C514 1.478 . S
C516 C518 1.381 . S
C516 C522 1.383 . S
C517 C513 1.495 . S
C517 H523 0.959 . S
C517 H524 0.961 . S
C517 H525 0.960 . S
C518 C516 1.381 . S
C518 C519 1.394 . S
C518 H526 0.930 . S
C519 C518 1.394 . S
C519 C520 1.383 . S
C519 H527 0.929 . S
C520 C519 1.383 . S
C520 C521 1.377 . S
C521 H505 0.930 . S
C521 C520 1.377 . S
C521 C522 1.379 . S
C522 H506 0.931 . S
C522 C516 1.383 . S
C522 C521 1.379 . S
H523 C517 0.959 . S
H524 C517 0.961 . S
H525 C517 0.960 . S
H526 C518 0.930 . S
H527 C519 0.929 . S
H528 C536 0.929 . S
H529 C538 0.930 . S
H530 C540 0.930 . S
H531 C543 0.929 . S
H532 C546 0.930 . S
H533 C548 0.960 . S
H534 C548 0.960 . S
H535 C548 0.960 . S
C536 H528 0.929 . S
C536 C537 1.377 . S
C536 C538 1.384 . S
C537 C536 1.377 . S
C537 C543 1.390 . S
C538 H529 0.930 . S
C538 C536 1.384 . S
C538 C539 1.372 . S
C539 C538 1.372 . S
C539 C540 1.400 . S
C539 C544 1.490 . S
C540 H530 0.930 . S
C540 C539 1.400 . S
C540 C543 1.386 . S
H541 C557 0.930 . S
H542 C558 0.931 . S
C543 H531 0.929 . S
C543 C537 1.390 . S
C543 C540 1.386 . S
C544 C539 1.490 . S
C544 C546 1.395 . S
C544 C547 1.403 . S
H545 C551 0.930 . S
C546 H532 0.930 . S
C546 C544 1.395 . S
C546 C549 1.403 . S
C547 C544 1.403 . S
C547 C548 1.524 . S
C547 C551 1.400 . S
C548 H533 0.960 . S
C548 H534 0.960 . S
C548 H535 0.960 . S
C548 C547 1.524 . S
C549 C546 1.403 . S
C549 C550 1.392 . S
C549 C553 1.495 . S
C550 C549 1.392 . S
C550 C551 1.385 . S
C550 C552 1.478 . S
C551 H545 0.930 . S
C551 C547 1.400 . S
C551 C550 1.385 . S
C552 C550 1.478 . S
C552 C554 1.381 . S
C552 C558 1.383 . S
C553 C549 1.495 . S
C553 H559 0.959 . S
C553 H560 0.961 . S
C553 H561 0.960 . S
C554 C552 1.381 . S
C554 C555 1.394 . S
C554 H562 0.930 . S
C555 C554 1.394 . S
C555 C556 1.383 . S
C555 H563 0.929 . S
C556 C555 1.383 . S
C556 C557 1.377 . S
C557 H541 0.930 . S
C557 C556 1.377 . S
C557 C558 1.379 . S
C558 H542 0.931 . S
C558 C552 1.383 . S
C558 C557 1.379 . S
H559 C553 0.959 . S
H560 C553 0.961 . S
H561 C553 0.960 . S
H562 C554 0.930 . S
H563 C555 0.929 . S
H564 C572 0.929 . S
H565 C574 0.930 . S
H566 C576 0.930 . S
H567 C579 0.929 . S
H568 C582 0.930 . S
H569 C584 0.960 . S
H570 C584 0.960 . S
H571 C584 0.960 . S
C572 H564 0.929 . S
C572 C573 1.377 . S
C572 C574 1.384 . S
C573 C572 1.377 . S
C573 C579 1.390 . S
C574 H565 0.930 . S
C574 C572 1.384 . S
C574 C575 1.372 . S
C575 C574 1.372 . S
C575 C576 1.400 . S
C575 C580 1.490 . S
C576 H566 0.930 . S
C576 C575 1.400 . S
C576 C579 1.386 . S
H577 C593 0.930 . S
H578 C594 0.931 . S
C579 H567 0.929 . S
C579 C573 1.390 . S
C579 C576 1.386 . S
C580 C575 1.490 . S
C580 C582 1.395 . S
C580 C583 1.403 . S
H581 C587 0.930 . S
C582 H568 0.930 . S
C582 C580 1.395 . S
C582 C585 1.403 . S
C583 C580 1.403 . S
C583 C584 1.524 . S
C583 C587 1.400 . S
C584 H569 0.960 . S
C584 H570 0.960 . S
C584 H571 0.960 . S
C584 C583 1.524 . S
C585 C582 1.403 . S
C585 C586 1.392 . S
C585 C589 1.495 . S
C586 C585 1.392 . S
C586 C587 1.385 . S
C586 C588 1.478 . S
C587 H581 0.930 . S
C587 C583 1.400 . S
C587 C586 1.385 . S
C588 C586 1.478 . S
C588 C590 1.381 . S
C588 C594 1.383 . S
C589 C585 1.495 . S
C589 H595 0.959 . S
C589 H596 0.961 . S
C589 H597 0.960 . S
C590 C588 1.381 . S
C590 C591 1.394 . S
C590 H598 0.930 . S
C591 C590 1.394 . S
C591 C592 1.383 . S
C591 H599 0.929 . S
C592 C591 1.383 . S
C592 C593 1.377 . S
C593 H577 0.930 . S
C593 C592 1.377 . S
C593 C594 1.379 . S
C594 H578 0.931 . S
C594 C588 1.383 . S
C594 C593 1.379 . S
H595 C589 0.959 . S
H596 C589 0.961 . S
H597 C589 0.960 . S
H598 C590 0.930 . S
H599 C591 0.929 . S
H600 C608 0.929 . S
H601 C610 0.930 . S
H602 C612 0.930 . S
H603 C615 0.929 . S
H604 C618 0.930 . S
H605 C620 0.960 . S
H606 C620 0.960 . S
H607 C620 0.960 . S
C608 H600 0.929 . S
C608 C609 1.377 . S
C608 C610 1.384 . S
C609 C608 1.377 . S
C609 C615 1.390 . S
C610 H601 0.930 . S
C610 C608 1.384 . S
C610 C611 1.372 . S
C611 C610 1.372 . S
C611 C612 1.400 . S
C611 C616 1.490 . S
C612 H602 0.930 . S
C612 C611 1.400 . S
C612 C615 1.386 . S
H613 C629 0.930 . S
H614 C630 0.931 . S
C615 H603 0.929 . S
C615 C609 1.390 . S
C615 C612 1.386 . S
C616 C611 1.490 . S
C616 C618 1.395 . S
C616 C619 1.403 . S
H617 C623 0.930 . S
C618 H604 0.930 . S
C618 C616 1.395 . S
C618 C621 1.403 . S
C619 C616 1.403 . S
C619 C620 1.524 . S
C619 C623 1.400 . S
C620 H605 0.960 . S
C620 H606 0.960 . S
C620 H607 0.960 . S
C620 C619 1.524 . S
C621 C618 1.403 . S
C621 C622 1.392 . S
C621 C625 1.495 . S
C622 C621 1.392 . S
C622 C623 1.385 . S
C622 C624 1.478 . S
C623 H617 0.930 . S
C623 C619 1.400 . S
C623 C622 1.385 . S
C624 C622 1.478 . S
C624 C626 1.381 . S
C624 C630 1.383 . S
C625 C621 1.495 . S
C625 H631 0.959 . S
C625 H632 0.961 . S
C625 H633 0.960 . S
C626 C624 1.381 . S
C626 C627 1.394 . S
C626 H634 0.930 . S
C627 C626 1.394 . S
C627 C628 1.383 . S
C627 H635 0.929 . S
C628 C627 1.383 . S
C628 C629 1.377 . S
C629 H613 0.930 . S
C629 C628 1.377 . S
C629 C630 1.379 . S
C630 H614 0.931 . S
C630 C624 1.383 . S
C630 C629 1.379 . S
H631 C625 0.959 . S
H632 C625 0.961 . S
H633 C625 0.960 . S
H634 C626 0.930 . S
H635 C627 0.929 . S
H636 C644 0.929 . S
H637 C646 0.930 . S
H638 C648 0.930 . S
H639 C651 0.929 . S
H640 C654 0.930 . S
H641 C656 0.960 . S
H642 C656 0.960 . S
H643 C656 0.960 . S
C644 H636 0.929 . S
C644 C645 1.377 . S
C644 C646 1.384 . S
C645 C644 1.377 . S
C645 C651 1.390 . S
C646 H637 0.930 . S
C646 C644 1.384 . S
C646 C647 1.372 . S
C647 C646 1.372 . S
C647 C648 1.400 . S
C647 C652 1.490 . S
C648 H638 0.930 . S
C648 C647 1.400 . S
C648 C651 1.386 . S
H649 C665 0.930 . S
H650 C666 0.931 . S
C651 H639 0.929 . S
C651 C645 1.390 . S
C651 C648 1.386 . S
C652 C647 1.490 . S
C652 C654 1.395 . S
C652 C655 1.403 . S
H653 C659 0.930 . S
C654 H640 0.930 . S
C654 C652 1.395 . S
C654 C657 1.403 . S
C655 C652 1.403 . S
C655 C656 1.524 . S
C655 C659 1.400 . S
C656 H641 0.960 . S
C656 H642 0.960 . S
C656 H643 0.960 . S
C656 C655 1.524 . S
C657 C654 1.403 . S
C657 C658 1.392 . S
C657 C661 1.495 . S
C658 C657 1.392 . S
C658 C659 1.385 . S
C658 C660 1.478 . S
C659 H653 0.930 . S
C659 C655 1.400 . S
C659 C658 1.385 . S
C660 C658 1.478 . S
C660 C662 1.381 . S
C660 C666 1.383 . S
C661 C657 1.495 . S
C661 H667 0.959 . S
C661 H668 0.961 . S
C661 H669 0.960 . S
C662 C660 1.381 . S
C662 C663 1.394 . S
C662 H670 0.930 . S
C663 C662 1.394 . S
C663 C664 1.383 . S
C663 H671 0.929 . S
C664 C663 1.383 . S
C664 C665 1.377 . S
C665 H649 0.930 . S
C665 C664 1.377 . S
C665 C666 1.379 . S
C666 H650 0.931 . S
C666 C660 1.383 . S
C666 C665 1.379 . S
H667 C661 0.959 . S
H668 C661 0.961 . S
H669 C661 0.960 . S
H670 C662 0.930 . S
H671 C663 0.929 . S
H672 C680 0.929 . S
H673 C682 0.930 . S
H674 C684 0.930 . S
H675 C687 0.929 . S
H676 C690 0.930 . S
H677 C692 0.960 . S
H678 C692 0.960 . S
H679 C692 0.960 . S
C680 H672 0.929 . S
C680 C681 1.377 . S
C680 C682 1.384 . S
C681 C680 1.377 . S
C681 C687 1.390 . S
C682 H673 0.930 . S
C682 C680 1.384 . S
C682 C683 1.372 . S
C683 C682 1.372 . S
C683 C684 1.400 . S
C683 C688 1.490 . S
C684 H674 0.930 . S
C684 C683 1.400 . S
C684 C687 1.386 . S
H685 C701 0.930 . S
H686 C702 0.931 . S
C687 H675 0.929 . S
C687 C681 1.390 . S
C687 C684 1.386 . S
C688 C683 1.490 . S
C688 C690 1.395 . S
C688 C691 1.403 . S
H689 C695 0.930 . S
C690 H676 0.930 . S
C690 C688 1.395 . S
C690 C693 1.403 . S
C691 C688 1.403 . S
C691 C692 1.524 . S
C691 C695 1.400 . S
C692 H677 0.960 . S
C692 H678 0.960 . S
C692 H679 0.960 . S
C692 C691 1.524 . S
C693 C690 1.403 . S
C693 C694 1.392 . S
C693 C697 1.495 . S
C694 C693 1.392 . S
C694 C695 1.385 . S
C694 C696 1.478 . S
C695 H689 0.930 . S
C695 C691 1.400 . S
C695 C694 1.385 . S
C696 C694 1.478 . S
C696 C698 1.381 . S
C696 C702 1.383 . S
C697 C693 1.495 . S
C697 H703 0.959 . S
C697 H704 0.961 . S
C697 H705 0.960 . S
C698 C696 1.381 . S
C698 C699 1.394 . S
C698 H706 0.930 . S
C699 C698 1.394 . S
C699 C700 1.383 . S
C699 H707 0.929 . S
C700 C699 1.383 . S
C700 C701 1.377 . S
C701 H685 0.930 . S
C701 C700 1.377 . S
C701 C702 1.379 . S
C702 H686 0.931 . S
C702 C696 1.383 . S
C702 C701 1.379 . S
H703 C697 0.959 . S
H704 C697 0.961 . S
H705 C697 0.960 . S
H706 C698 0.930 . S
H707 C699 0.929 . S
H708 C716 0.929 . S
H709 C718 0.930 . S
H710 C720 0.930 . S
H711 C723 0.929 . S
H712 C726 0.930 . S
H713 C728 0.960 . S
H714 C728 0.960 . S
H715 C728 0.960 . S
C716 H708 0.929 . S
C716 C717 1.377 . S
C716 C718 1.384 . S
C717 C716 1.377 . S
C717 C723 1.390 . S
C718 H709 0.930 . S
C718 C716 1.384 . S
C718 C719 1.372 . S
C719 C718 1.372 . S
C719 C720 1.400 . S
C719 C724 1.490 . S
C720 H710 0.930 . S
C720 C719 1.400 . S
C720 C723 1.386 . S
H721 C737 0.930 . S
H722 C738 0.931 . S
C723 H711 0.929 . S
C723 C717 1.390 . S
C723 C720 1.386 . S
C724 C719 1.490 . S
C724 C726 1.395 . S
C724 C727 1.403 . S
H725 C731 0.930 . S
C726 H712 0.930 . S
C726 C724 1.395 . S
C726 C729 1.403 . S
C727 C724 1.403 . S
C727 C728 1.524 . S
C727 C731 1.400 . S
C728 H713 0.960 . S
C728 H714 0.960 . S
C728 H715 0.960 . S
C728 C727 1.524 . S
C729 C726 1.403 . S
C729 C730 1.392 . S
C729 C733 1.495 . S
C730 C729 1.392 . S
C730 C731 1.385 . S
C730 C732 1.478 . S
C731 H725 0.930 . S
C731 C727 1.400 . S
C731 C730 1.385 . S
C732 C730 1.478 . S
C732 C734 1.381 . S
C732 C738 1.383 . S
C733 C729 1.495 . S
C733 H739 0.959 . S
C733 H740 0.961 . S
C733 H741 0.960 . S
C734 C732 1.381 . S
C734 C735 1.394 . S
C734 H742 0.930 . S
C735 C734 1.394 . S
C735 C736 1.383 . S
C735 H743 0.929 . S
C736 C735 1.383 . S
C736 C737 1.377 . S
C737 H721 0.930 . S
C737 C736 1.377 . S
C737 C738 1.379 . S
C738 H722 0.931 . S
C738 C732 1.383 . S
C738 C737 1.379 . S
H739 C733 0.959 . S
H740 C733 0.961 . S
H741 C733 0.960 . S
H742 C734 0.930 . S
H743 C735 0.929 . S
H744 C752 0.929 . S
H745 C754 0.930 . S
H746 C756 0.930 . S
H747 C759 0.929 . S
H748 C762 0.930 . S
H749 C764 0.960 . S
H750 C764 0.960 . S
H751 C764 0.960 . S
C752 H744 0.929 . S
C752 C753 1.377 . S
C752 C754 1.384 . S
C753 C752 1.377 . S
C753 C759 1.390 . S
C754 H745 0.930 . S
C754 C752 1.384 . S
C754 C755 1.372 . S
C755 C754 1.372 . S
C755 C756 1.400 . S
C755 C760 1.490 . S
C756 H746 0.930 . S
C756 C755 1.400 . S
C756 C759 1.386 . S
H757 C773 0.930 . S
H758 C774 0.931 . S
C759 H747 0.929 . S
C759 C753 1.390 . S
C759 C756 1.386 . S
C760 C755 1.490 . S
C760 C762 1.395 . S
C760 C763 1.403 . S
H761 C767 0.930 . S
C762 H748 0.930 . S
C762 C760 1.395 . S
C762 C765 1.403 . S
C763 C760 1.403 . S
C763 C764 1.524 . S
C763 C767 1.400 . S
C764 H749 0.960 . S
C764 H750 0.960 . S
C764 H751 0.960 . S
C764 C763 1.524 . S
C765 C762 1.403 . S
C765 C766 1.392 . S
C765 C769 1.495 . S
C766 C765 1.392 . S
C766 C767 1.385 . S
C766 C768 1.478 . S
C767 H761 0.930 . S
C767 C763 1.400 . S
C767 C766 1.385 . S
C768 C766 1.478 . S
C768 C770 1.381 . S
C768 C774 1.383 . S
C769 C765 1.495 . S
C769 H775 0.959 . S
C769 H776 0.961 . S
C769 H777 0.960 . S
C770 C768 1.381 . S
C770 C771 1.394 . S
C770 H778 0.930 . S
C771 C770 1.394 . S
C771 C772 1.383 . S
C771 H779 0.929 . S
C772 C771 1.383 . S
C772 C773 1.377 . S
C773 H757 0.930 . S
C773 C772 1.377 . S
C773 C774 1.379 . S
C774 H758 0.931 . S
C774 C768 1.383 . S
C774 C773 1.379 . S
H775 C769 0.959 . S
H776 C769 0.961 . S
H777 C769 0.960 . S
H778 C770 0.930 . S
H779 C771 0.929 . S
H780 C788 0.929 . S
H781 C790 0.930 . S
H782 C792 0.930 . S
H783 C795 0.929 . S
H784 C798 0.930 . S
H785 C800 0.960 . S
H786 C800 0.960 . S
H787 C800 0.960 . S
C788 H780 0.929 . S
C788 C789 1.377 . S
C788 C790 1.384 . S
C789 C788 1.377 . S
C789 C795 1.390 . S
C790 H781 0.930 . S
C790 C788 1.384 . S
C790 C791 1.372 . S
C791 C790 1.372 . S
C791 C792 1.400 . S
C791 C796 1.490 . S
C792 H782 0.930 . S
C792 C791 1.400 . S
C792 C795 1.386 . S
H793 C809 0.930 . S
H794 C810 0.931 . S
C795 H783 0.929 . S
C795 C789 1.390 . S
C795 C792 1.386 . S
C796 C791 1.490 . S
C796 C798 1.395 . S
C796 C799 1.403 . S
H797 C803 0.930 . S
C798 H784 0.930 . S
C798 C796 1.395 . S
C798 C801 1.403 . S
C799 C796 1.403 . S
C799 C800 1.524 . S
C799 C803 1.400 . S
C800 H785 0.960 . S
C800 H786 0.960 . S
C800 H787 0.960 . S
C800 C799 1.524 . S
C801 C798 1.403 . S
C801 C802 1.392 . S
C801 C805 1.495 . S
C802 C801 1.392 . S
C802 C803 1.385 . S
C802 C804 1.478 . S
C803 H797 0.930 . S
C803 C799 1.400 . S
C803 C802 1.385 . S
C804 C802 1.478 . S
C804 C806 1.381 . S
C804 C810 1.383 . S
C805 C801 1.495 . S
C805 H811 0.959 . S
C805 H812 0.961 . S
C805 H813 0.960 . S
C806 C804 1.381 . S
C806 C807 1.394 . S
C806 H814 0.930 . S
C807 C806 1.394 . S
C807 C808 1.383 . S
C807 H815 0.929 . S
C808 C807 1.383 . S
C808 C809 1.377 . S
C809 H793 0.930 . S
C809 C808 1.377 . S
C809 C810 1.379 . S
C810 H794 0.931 . S
C810 C804 1.383 . S
C810 C809 1.379 . S
H811 C805 0.959 . S
H812 C805 0.961 . S
H813 C805 0.960 . S
H814 C806 0.930 . S
H815 C807 0.929 . S
H816 C824 0.929 . S
H817 C826 0.930 . S
H818 C828 0.930 . S
H819 C831 0.929 . S
H820 C834 0.930 . S
H821 C836 0.960 . S
H822 C836 0.960 . S
H823 C836 0.960 . S
C824 H816 0.929 . S
C824 C825 1.377 . S
C824 C826 1.384 . S
C825 C824 1.377 . S
C825 C831 1.390 . S
C826 H817 0.930 . S
C826 C824 1.384 . S
C826 C827 1.372 . S
C827 C826 1.372 . S
C827 C828 1.400 . S
C827 C832 1.490 . S
C828 H818 0.930 . S
C828 C827 1.400 . S
C828 C831 1.386 . S
H829 C845 0.930 . S
H830 C846 0.931 . S
C831 H819 0.929 . S
C831 C825 1.390 . S
C831 C828 1.386 . S
C832 C827 1.490 . S
C832 C834 1.395 . S
C832 C835 1.403 . S
H833 C839 0.930 . S
C834 H820 0.930 . S
C834 C832 1.395 . S
C834 C837 1.403 . S
C835 C832 1.403 . S
C835 C836 1.524 . S
C835 C839 1.400 . S
C836 H821 0.960 . S
C836 H822 0.960 . S
C836 H823 0.960 . S
C836 C835 1.524 . S
C837 C834 1.403 . S
C837 C838 1.392 . S
C837 C841 1.495 . S
C838 C837 1.392 . S
C838 C839 1.385 . S
C838 C840 1.478 . S
C839 H833 0.930 . S
C839 C835 1.400 . S
C839 C838 1.385 . S
C840 C838 1.478 . S
C840 C842 1.381 . S
C840 C846 1.383 . S
C841 C837 1.495 . S
C841 H847 0.959 . S
C841 H848 0.961 . S
C841 H849 0.960 . S
C842 C840 1.381 . S
C842 C843 1.394 . S
C842 H850 0.930 . S
C843 C842 1.394 . S
C843 C844 1.383 . S
C843 H851 0.929 . S
C844 C843 1.383 . S
C844 C845 1.377 . S
C845 H829 0.930 . S
C845 C844 1.377 . S
C845 C846 1.379 . S
C846 H830 0.931 . S
C846 C840 1.383 . S
C846 C845 1.379 . S
H847 C841 0.959 . S
H848 C841 0.961 . S
H849 C841 0.960 . S
H850 C842 0.930 . S
H851 C843 0.929 . S
H852 C860 0.929 . S
H853 C862 0.930 . S
H854 C864 0.930 . S
H855 C867 0.929 . S
H856 C870 0.930 . S
H857 C872 0.960 . S
H858 C872 0.960 . S
H859 C872 0.960 . S
C860 H852 0.929 . S
C860 C861 1.377 . S
C860 C862 1.384 . S
C861 C860 1.377 . S
C861 C867 1.390 . S
C862 H853 0.930 . S
C862 C860 1.384 . S
C862 C863 1.372 . S
C863 C862 1.372 . S
C863 C864 1.400 . S
C863 C868 1.490 . S
C864 H854 0.930 . S
C864 C863 1.400 . S
C864 C867 1.386 . S
H865 C881 0.930 . S
H866 C882 0.931 . S
C867 H855 0.929 . S
C867 C861 1.390 . S
C867 C864 1.386 . S
C868 C863 1.490 . S
C868 C870 1.395 1_455 S
C868 C871 1.403 . S
H869 C875 0.930 . S
C870 H856 0.930 . S
C870 C868 1.395 1_655 S
C870 C873 1.403 . S
C871 C868 1.403 . S
C871 C872 1.524 . S
C871 C875 1.400 . S
C872 H857 0.960 . S
C872 H858 0.960 . S
C872 H859 0.960 . S
C872 C871 1.524 . S
C873 C870 1.403 . S
C873 C874 1.392 1_655 S
C873 C877 1.495 . S
C874 C873 1.392 1_455 S
C874 C875 1.385 . S
C874 C876 1.478 . S
C875 H869 0.930 . S
C875 C871 1.400 . S
C875 C874 1.385 . S
C876 C874 1.478 . S
C876 C878 1.381 . S
C876 C882 1.383 . S
C877 C873 1.495 . S
C877 H883 0.959 . S
C877 H884 0.961 . S
C877 H885 0.960 . S
C878 C876 1.381 . S
C878 C879 1.394 1_554 S
C878 H886 0.930 . S
C879 C878 1.394 1_556 S
C879 C880 1.383 . S
C879 H887 0.929 . S
C880 C879 1.383 . S
C880 C881 1.377 . S
C881 H865 0.930 . S
C881 C880 1.377 . S
C881 C882 1.379 1_556 S
C882 H866 0.931 . S
C882 C876 1.383 . S
C882 C881 1.379 1_554 S
H883 C877 0.959 . S
H884 C877 0.961 . S
H885 C877 0.960 . S
H886 C878 0.930 . S
H887 C879 0.929 . S
H888 C896 0.929 . S
H889 C898 0.930 . S
H890 C900 0.930 . S
H891 C903 0.929 . S
H892 C906 0.929 1_565 S
H893 C908 0.960 . S
H894 C908 0.960 . S
H895 C908 0.960 . S
C896 H888 0.929 . S
C896 C897 1.377 1_565 S
C896 C898 1.384 . S
C897 C896 1.377 1_545 S
C897 C903 1.390 . S
C898 H889 0.930 . S
C898 C896 1.384 . S
C898 C899 1.372 1_565 S
C899 C898 1.372 1_545 S
C899 C900 1.400 . S
C899 C904 1.490 . S
C900 H890 0.930 . S
C900 C899 1.400 . S
C900 C903 1.386 . S
H901 C917 0.930 . S
H902 C918 0.931 . S
C903 H891 0.929 . S
C903 C897 1.390 . S
C903 C900 1.386 . S
C904 C899 1.490 . S
C904 C906 1.395 . S
C904 C907 1.403 . S
H905 C911 0.930 . S
C906 H892 0.929 1_545 S
C906 C904 1.395 . S
C906 C909 1.403 . S
C907 C904 1.403 . S
C907 C908 1.524 . S
C907 C911 1.400 . S
C908 H893 0.960 . S
C908 H894 0.960 . S
C908 H895 0.960 . S
C908 C907 1.524 . S
C909 C906 1.403 . S
C909 C910 1.392 . S
C909 C913 1.495 1_545 S
C910 C909 1.392 . S
C910 C911 1.385 . S
C910 C912 1.478 . S
C911 H905 0.930 . S
C911 C907 1.400 . S
C911 C910 1.385 . S
C912 C910 1.478 . S
C912 C914 1.381 1_545 S
C912 C918 1.383 . S
C913 C909 1.495 1_565 S
C913 H919 0.959 . S
C913 H920 0.961 1_565 S
C913 H921 0.960 . S
C914 C912 1.381 1_565 S
C914 C915 1.393 1_565 S
C914 H922 0.930 . S
C915 C914 1.393 1_545 S
C915 C916 1.392 . S
C915 H923 0.922 1_545 S
C916 C915 1.392 . S
C916 C917 1.377 . S
C917 H901 0.930 . S
C917 C916 1.377 . S
C917 C918 1.379 . S
C918 H902 0.931 . S
C918 C912 1.383 . S
C918 C917 1.379 . S
H919 C913 0.959 . S
H920 C913 0.961 1_545 S
H921 C913 0.960 . S
H922 C914 0.930 . S
H923 C915 0.922 1_565 S
H924 C932 0.929 . S
H925 C934 0.930 . S
H926 C936 0.930 . S
H927 C939 0.929 . S
H928 C942 0.930 . S
H929 C944 0.960 . S
H930 C944 0.960 . S
H931 C944 0.960 . S
C932 H924 0.929 . S
C932 C933 1.377 . S
C932 C934 1.384 . S
C933 C932 1.377 . S
C933 C939 1.390 . S
C934 H925 0.930 . S
C934 C932 1.384 . S
C934 C935 1.372 . S
C935 C934 1.372 . S
C935 C936 1.400 . S
C935 C940 1.490 . S
C936 H926 0.930 . S
C936 C935 1.400 . S
C936 C939 1.386 . S
H937 C953 0.930 . S
H938 C954 0.931 . S
C939 H927 0.929 . S
C939 C933 1.390 . S
C939 C936 1.386 . S
C940 C935 1.490 . S
C940 C942 1.395 . S
C940 C943 1.403 . S
H941 C947 0.930 . S
C942 H928 0.930 . S
C942 C940 1.395 . S
C942 C945 1.403 . S
C943 C940 1.403 . S
C943 C944 1.524 . S
C943 C947 1.400 . S
C944 H929 0.960 . S
C944 H930 0.960 . S
C944 H931 0.960 . S
C944 C943 1.524 . S
C945 C942 1.403 . S
C945 C946 1.392 . S
C945 C949 1.495 . S
C946 C945 1.392 . S
C946 C947 1.385 . S
C946 C948 1.478 . S
C947 H941 0.930 . S
C947 C943 1.400 . S
C947 C946 1.385 . S
C948 C946 1.478 . S
C948 C950 1.381 . S
C948 C954 1.383 . S
C949 C945 1.495 . S
C949 H955 0.959 . S
C949 H956 0.961 . S
C949 H957 0.960 . S
C950 C948 1.381 . S
C950 C951 1.394 . S
C950 H958 0.930 . S
C951 C950 1.394 . S
C951 C952 1.383 . S
C951 H959 0.929 . S
C952 C951 1.383 . S
C952 C953 1.377 . S
C953 H937 0.930 . S
C953 C952 1.377 . S
C953 C954 1.379 . S
C954 H938 0.931 . S
C954 C948 1.383 . S
C954 C953 1.379 . S
H955 C949 0.959 . S
H956 C949 0.961 . S
H957 C949 0.960 . S
H958 C950 0.930 . S
H959 C951 0.929 . S
H960 C968 0.929 . S
H961 C970 0.930 . S
H962 C972 0.930 1_565 S
H963 C975 0.932 1_565 S
H964 C978 0.930 1_565 S
H965 C980 0.960 . S
H966 C980 0.960 . S
H967 C980 0.960 . S
C968 H960 0.929 . S
C968 C969 1.377 . S
C968 C970 1.384 . S
C969 C968 1.377 . S
C969 C975 1.387 . S
C970 H961 0.930 . S
C970 C968 1.384 . S
C970 C971 1.372 . S
C971 C970 1.372 . S
C971 C972 1.400 . S
C971 C976 1.490 . S
C972 H962 0.930 1_545 S
C972 C971 1.400 . S
C972 C975 1.386 . S
H973 C989 0.930 . S
H974 C990 0.931 . S
C975 H963 0.932 1_545 S
C975 C969 1.387 . S
C975 C972 1.386 . S
C976 C971 1.490 . S
C976 C978 1.395 . S
C976 C979 1.403 . S
H977 C983 0.930 . S
C978 H964 0.930 1_545 S
C978 C976 1.395 . S
C978 C981 1.403 1_545 S
C979 C976 1.403 . S
C979 C980 1.524 . S
C979 C983 1.400 . S
C980 H965 0.960 . S
C980 H966 0.960 . S
C980 H967 0.960 . S
C980 C979 1.524 . S
C981 C978 1.403 1_565 S
C981 C982 1.392 1_565 S
C981 C985 1.495 . S
C982 C981 1.392 1_545 S
C982 C983 1.385 . S
C982 C984 1.478 . S
C983 H977 0.930 . S
C983 C979 1.400 . S
C983 C982 1.385 . S
C984 C982 1.478 . S
C984 C986 1.381 . S
C984 C990 1.383 1_545 S
C985 C981 1.495 . S
C985 H991 0.959 . S
C985 H992 0.961 . S
C985 H993 0.960 . S
C986 C984 1.381 . S
C986 C987 1.394 . S
C986 H994 0.930 . S
C987 C986 1.394 . S
C987 C988 1.383 . S
C987 H995 0.929 . S
C988 C987 1.383 . S
C988 C989 1.377 1_545 S
C989 H973 0.930 . S
C989 C988 1.377 1_565 S
C989 C990 1.379 . S
C990 H974 0.931 . S
C990 C984 1.383 1_565 S
C990 C989 1.379 . S
H991 C985 0.959 . S
H992 C985 0.961 . S
H993 C985 0.960 . S
H994 C986 0.930 . S
H995 C987 0.929 . S
H996 C1004 0.929 . S
H997 C1006 0.930 . S
H998 C1008 0.930 . S
H999 C1011 0.929 . S
H1000 C1014 0.930 . S
H1001 C1016 0.960 . S
H1002 C1016 0.960 . S
H1003 C1016 0.960 . S
C1004 H996 0.929 . S
C1004 C1005 1.377 . S
C1004 C1006 1.384 . S
C1005 C1004 1.377 . S
C1005 C1011 1.390 . S
C1006 H997 0.930 . S
C1006 C1004 1.384 . S
C1006 C1007 1.372 . S
C1007 C1006 1.372 . S
C1007 C1008 1.400 . S
C1007 C1012 1.490 . S
C1008 H998 0.930 . S
C1008 C1007 1.400 . S
C1008 C1011 1.386 . S
H1009 C1025 0.930 . S
H1010 C1026 0.931 . S
C1011 H999 0.929 . S
C1011 C1005 1.390 . S
C1011 C1008 1.386 . S
C1012 C1007 1.490 . S
C1012 C1014 1.395 . S
C1012 C1015 1.403 . S
H1013 C1019 0.930 . S
C1014 H1000 0.930 . S
C1014 C1012 1.395 . S
C1014 C1017 1.403 . S
C1015 C1012 1.403 . S
C1015 C1016 1.524 . S
C1015 C1019 1.400 . S
C1016 H1001 0.960 . S
C1016 H1002 0.960 . S
C1016 H1003 0.960 . S
C1016 C1015 1.524 . S
C1017 C1014 1.403 . S
C1017 C1018 1.392 . S
C1017 C1021 1.495 . S
C1018 C1017 1.392 . S
C1018 C1019 1.385 . S
C1018 C1020 1.478 . S
C1019 H1013 0.930 . S
C1019 C1015 1.400 . S
C1019 C1018 1.385 . S
C1020 C1018 1.478 . S
C1020 C1022 1.381 . S
C1020 C1026 1.383 . S
C1021 C1017 1.495 . S
C1021 H1027 0.959 . S
C1021 H1028 0.961 . S
C1021 H1029 0.960 . S
C1022 C1020 1.381 . S
C1022 C1023 1.394 1_556 S
C1022 H1030 0.930 . S
C1023 C1022 1.394 1_554 S
C1023 C1024 1.383 . S
C1023 H1031 0.929 . S
C1024 C1023 1.383 . S
C1024 C1025 1.377 . S
C1025 H1009 0.930 . S
C1025 C1024 1.377 . S
C1025 C1026 1.379 1_554 S
C1026 H1010 0.931 . S
C1026 C1020 1.383 . S
C1026 C1025 1.379 1_556 S
H1027 C1021 0.959 . S
H1028 C1021 0.961 . S
H1029 C1021 0.960 . S
H1030 C1022 0.930 . S
H1031 C1023 0.929 . S
H1032 C1040 0.929 . S
H1033 C1042 0.930 . S
H1034 C1044 0.930 . S
H1035 C1047 0.929 . S
H1036 C1050 0.930 . S
H1037 C1052 0.960 . S
H1038 C1052 0.960 . S
H1039 C1052 0.960 . S
C1040 H1032 0.929 . S
C1040 C1041 1.377 . S
C1040 C1042 1.384 . S
C1041 C1040 1.377 . S
C1041 C1047 1.390 1_455 S
C1042 H1033 0.930 . S
C1042 C1040 1.384 . S
C1042 C1043 1.372 . S
C1043 C1042 1.372 . S
C1043 C1044 1.400 1_455 S
C1043 C1048 1.490 . S
C1044 H1034 0.930 . S
C1044 C1043 1.400 1_655 S
C1044 C1047 1.386 . S
H1045 C1061 0.930 . S
H1046 C1062 0.931 . S
C1047 H1035 0.929 . S
C1047 C1041 1.390 1_655 S
C1047 C1044 1.386 . S
C1048 C1043 1.490 . S
C1048 C1050 1.395 . S
C1048 C1051 1.403 1_455 S
H1049 C1055 0.930 . S
C1050 H1036 0.930 . S
C1050 C1048 1.395 . S
C1050 C1053 1.403 . S
C1051 C1048 1.403 1_655 S
C1051 C1052 1.524 . S
C1051 C1055 1.400 . S
C1052 H1037 0.960 . S
C1052 H1038 0.960 . S
C1052 H1039 0.960 . S
C1052 C1051 1.524 . S
C1053 C1050 1.403 . S
C1053 C1054 1.392 . S
C1053 C1057 1.495 . S
C1054 C1053 1.392 . S
C1054 C1055 1.385 1_455 S
C1054 C1056 1.478 . S
C1055 H1049 0.930 . S
C1055 C1051 1.400 . S
C1055 C1054 1.385 1_655 S
C1056 C1054 1.478 . S
C1056 C1058 1.381 . S
C1056 C1062 1.383 1_455 S
C1057 C1053 1.495 . S
C1057 H1063 0.959 . S
C1057 H1064 0.961 . S
C1057 H1065 0.960 . S
C1058 C1056 1.381 . S
C1058 C1059 1.394 . S
C1058 H1066 0.930 . S
C1059 C1058 1.394 . S
C1059 C1060 1.383 . S
C1059 H1067 0.929 . S
C1060 C1059 1.383 . S
C1060 C1061 1.377 1_455 S
C1061 H1045 0.930 . S
C1061 C1060 1.377 1_655 S
C1061 C1062 1.379 . S
C1062 H1046 0.931 . S
C1062 C1056 1.383 1_655 S
C1062 C1061 1.379 . S
H1063 C1057 0.959 . S
H1064 C1057 0.961 . S
H1065 C1057 0.960 . S
H1066 C1058 0.930 . S
H1067 C1059 0.929 . S
C429 C2 1.282 . S
C448 C391 1.348 . S
C465 C22 1.247 . S
C484 C241 1.264 . S
C501 C44 1.312 . S
C520 C301 1.314 . S
C537 C4 1.502 . S
C556 C361 1.457 . S
C592 C271 1.631 . S
C573 C24 1.534 . S
C628 C331 1.547 . S
C609 C42 1.445 . S
C645 C32 1.268 . S
C664 C121 1.201 . S
C681 C49 1.212 . S
C700 C211 1.225 . S
C717 C9 1.188 . S
C736 C91 1.224 . S
C772 C151 1.212 . S
C753 C29 1.163 . S
C808 C181 1.154 . S
C789 C52 1.214 . S
C825 C12 1.204 . S
C844 C61 1.152 . S
C880 C200 1.402 . S
C861 C18 1.429 . S
C897 C38 1.420 . S
C916 C80 1.392 . S
C933 C58 1.414 . S
C952 C140 1.391 . S
C988 C320 1.463 . S
C969 C39 1.479 . S
C1024 C380 1.482 . S
C1005 C59 1.459 . S
C1041 C19 1.462 . S
C1060 C260 1.440 . S
