# Generated by pormake.
# Topology pyr, (3,6)-cn, num edge types: 1
# Building blocks:
#     Node 0, Type 0, BuildingBlock: BETDIP_clean_linker_0, # of connection points: 3
#     Node 1, Type 0, BuildingBlock: BETDIP_clean_linker_0, # of connection points: 3
#     Node 2, Type 0, BuildingBlock: BETDIP_clean_linker_0, # of connection points: 3
#     Node 3, Type 0, BuildingBlock: BETDIP_clean_linker_0, # of connection points: 3
#     Node 4, Type 0, BuildingBlock: BETDIP_clean_linker_0, # of connection points: 3
#     Node 5, Type 0, BuildingBlock: BETDIP_clean_linker_0, # of connection points: 3
#     Node 6, Type 0, BuildingBlock: BETDIP_clean_linker_0, # of connection points: 3
#     Node 7, Type 0, BuildingBlock: BETDIP_clean_linker_0, # of connection points: 3
#     Node 8, Type 1, BuildingBlock: BETDIP_clean_sbu_0, # of connection points: 6
#     Node 9, Type 1, BuildingBlock: BETDIP_clean_sbu_0, # of connection points: 6
#     Node 10, Type 1, BuildingBlock: BETDIP_clean_sbu_0, # of connection points: 6
#     Node 11, Type 1, BuildingBlock: BETDIP_clean_sbu_0, # of connection points: 6
#     Edge 12, Type (0, 1), BuildingBlock: TEMPAE_clean_linker_10, # of connection points: 2
#     Edge 13, Type (0, 1), BuildingBlock: TEMPAE_clean_linker_10, # of connection points: 2
#     Edge 14, Type (0, 1), BuildingBlock: TEMPAE_clean_linker_10, # of connection points: 2
#     Edge 15, Type (0, 1), BuildingBlock: TEMPAE_clean_linker_10, # of connection points: 2
#     Edge 16, Type (0, 1), BuildingBlock: TEMPAE_clean_linker_10, # of connection points: 2
#     Edge 17, Type (0, 1), BuildingBlock: TEMPAE_clean_linker_10, # of connection points: 2
#     Edge 18, Type (0, 1), BuildingBlock: TEMPAE_clean_linker_10, # of connection points: 2
#     Edge 19, Type (0, 1), BuildingBlock: TEMPAE_clean_linker_10, # of connection points: 2
#     Edge 20, Type (0, 1), BuildingBlock: TEMPAE_clean_linker_10, # of connection points: 2
#     Edge 21, Type (0, 1), BuildingBlock: TEMPAE_clean_linker_10, # of connection points: 2
#     Edge 22, Type (0, 1), BuildingBlock: TEMPAE_clean_linker_10, # of connection points: 2
#     Edge 23, Type (0, 1), BuildingBlock: TEMPAE_clean_linker_10, # of connection points: 2
#     Edge 24, Type (0, 1), BuildingBlock: TEMPAE_clean_linker_10, # of connection points: 2
#     Edge 25, Type (0, 1), BuildingBlock: TEMPAE_clean_linker_10, # of connection points: 2
#     Edge 26, Type (0, 1), BuildingBlock: TEMPAE_clean_linker_10, # of connection points: 2
#     Edge 27, Type (0, 1), BuildingBlock: TEMPAE_clean_linker_10, # of connection points: 2
#     Edge 28, Type (0, 1), BuildingBlock: TEMPAE_clean_linker_10, # of connection points: 2
#     Edge 29, Type (0, 1), BuildingBlock: TEMPAE_clean_linker_10, # of connection points: 2
#     Edge 30, Type (0, 1), BuildingBlock: TEMPAE_clean_linker_10, # of connection points: 2
#     Edge 31, Type (0, 1), BuildingBlock: TEMPAE_clean_linker_10, # of connection points: 2
#     Edge 32, Type (0, 1), BuildingBlock: TEMPAE_clean_linker_10, # of connection points: 2
#     Edge 33, Type (0, 1), BuildingBlock: TEMPAE_clean_linker_10, # of connection points: 2
#     Edge 34, Type (0, 1), BuildingBlock: TEMPAE_clean_linker_10, # of connection points: 2
#     Edge 35, Type (0, 1), BuildingBlock: TEMPAE_clean_linker_10, # of connection points: 2
# Relax obj value: 0.167
# Max RMSD: 0.237
# Mean RMSD: 0.149
data_MOF--net-pyr--node1-BETDIP_clean_sbu_0--node2-BETDIP_clean_linker_0--edge1-TEMPAE_clean_linker_10
_symmetry_space_group_name_H-M    P1
_symmetry_Int_Tables_number       1
_symmetry_cell_setting            triclinic
loop_
_symmetry_equiv_pos_as_xyz
'x, y, z'
_cell_length_a     35.552375
_cell_length_b     39.086351
_cell_length_c     39.920007
_cell_angle_alpha  89.642206
_cell_angle_beta   90.963958
_cell_angle_gamma 110.19962
loop_
_atom_site_label
_atom_site_type_symbol
_atom_site_fract_x
_atom_site_fract_y
_atom_site_fract_z
_atom_type_partial_charge
H0 H 0.3408 0.30574 0.25849 0.0
H1 H 0.40225 0.28672 0.17293 0.0
H2 H 0.38309 0.21518 0.25827 0.0
H3 H 0.36589 0.3155 0.14491 0.0
C4 C 0.35402 0.33008 0.16252 0.0
C5 C 0.35639 0.2899 0.24635 0.0
C6 C 0.3608 0.2596 0.26264 0.0
C7 C 0.36989 0.29901 0.21374 0.0
C8 C 0.39047 0.27896 0.19773 0.0
C9 C 0.39636 0.24907 0.21402 0.0
C10 C 0.38098 0.23945 0.24635 0.0
N11 N 0.3599 0.32721 0.19755 0.0
H12 H 0.13311 0.79144 0.75614 0.0
H13 H 0.13654 0.72801 0.66949 0.0
H14 H 0.22567 0.74483 0.74784 0.0
H15 H 0.10656 0.76505 0.6452 0.0
C16 C 0.09067 0.77421 0.66417 0.0
C17 C 0.14659 0.77453 0.74296 0.0
C18 C 0.18117 0.76955 0.75602 0.0
C19 C 0.13084 0.76042 0.71162 0.0
C20 C 0.14892 0.73957 0.6935 0.0
C21 C 0.18297 0.73333 0.70668 0.0
C22 C 0.19876 0.74851 0.73793 0.0
N23 N 0.09825 0.76976 0.69865 0.0
H24 H 0.69764 0.42133 0.85452 0.0
H25 H 0.59554 0.32152 0.8527 0.0
H26 H 0.69232 0.33432 0.92314 0.0
H27 H 0.68022 0.41271 0.7938 0.0
C28 C 0.64868 0.4092 0.79606 0.0
C29 C 0.68224 0.39413 0.86398 0.0
C30 C 0.69971 0.38053 0.89069 0.0
C31 C 0.64475 0.37286 0.8497 0.0
C32 C 0.62441 0.33784 0.86322 0.0
C33 C 0.64193 0.32322 0.88918 0.0
C34 C 0.67942 0.34494 0.90251 0.0
N35 N 0.62661 0.38635 0.82249 0.0
H36 H 0.82887 0.65785 0.34859 0.0
H37 H 0.92322 0.76122 0.33426 0.0
H38 H 0.85046 0.74182 0.42241 0.0
H39 H 0.94697 0.72947 0.29755 0.0
C40 C 0.92253 0.7055 0.28913 0.0
C41 C 0.84581 0.68513 0.35732 0.0
C42 C 0.83585 0.69746 0.38769 0.0
C43 C 0.87809 0.70722 0.33834 0.0
C44 C 0.89957 0.74324 0.34937 0.0
C45 C 0.88915 0.75647 0.37954 0.0
C46 C 0.8581 0.73269 0.39874 0.0
N47 N 0.88683 0.69206 0.30818 0.0
H48 H 0.62768 0.7859 0.90895 0.0
H49 H 0.68569 0.75985 0.82456 0.0
H50 H 0.63886 0.84699 0.81693 0.0
H51 H 0.66407 0.70295 0.84946 0.0
C52 C 0.67308 0.71204 0.87498 0.0
C53 C 0.63615 0.79043 0.88292 0.0
C54 C 0.62998 0.8191 0.86472 0.0
C55 C 0.65485 0.76816 0.86835 0.0
C56 C 0.66912 0.77547 0.83552 0.0
C57 C 0.6638 0.80414 0.81707 0.0
C58 C 0.64311 0.82504 0.8314 0.0
N59 N 0.6625 0.74101 0.88835 0.0
H60 H 0.89831 0.28526 0.34404 0.0
H61 H 0.87161 0.34016 0.42824 0.0
H62 H 0.8036 0.32927 0.33609 0.0
H63 H 0.96364 0.31005 0.36793 0.0
C64 C 0.95343 0.29989 0.39279 0.0
C65 C 0.88187 0.30122 0.35459 0.0
C66 C 0.84973 0.30542 0.33632 0.0
C67 C 0.89077 0.31498 0.38737 0.0
C68 C 0.86626 0.3319 0.40224 0.0
C69 C 0.83406 0.33664 0.38413 0.0
C70 C 0.82741 0.32474 0.35071 0.0
N71 N 0.92133 0.30842 0.40698 0.0
H72 H 0.33066 0.65217 0.24327 0.0
H73 H 0.43457 0.75018 0.25323 0.0
H74 H 0.35469 0.73538 0.16784 0.0
H75 H 0.4565 0.71544 0.29067 0.0
C76 C 0.43117 0.69323 0.30022 0.0
C77 C 0.34933 0.67851 0.23381 0.0
C78 C 0.33879 0.69127 0.20323 0.0
C79 C 0.38437 0.69871 0.25188 0.0
C80 C 0.40818 0.73362 0.23946 0.0
C81 C 0.39766 0.74715 0.20884 0.0
C82 C 0.36329 0.72529 0.19104 0.0
N83 N 0.39368 0.68274 0.28219 0.0
H84 H 0.09757 0.309 0.74788 0.0
H85 H 0.18695 0.41588 0.73816 0.0
H86 H 0.17149 0.33741 0.66021 0.0
H87 H 0.18485 0.4132 0.7947 0.0
C88 C 0.15293 0.40172 0.79946 0.0
C89 C 0.12096 0.32842 0.73349 0.0
C90 C 0.13224 0.31813 0.70232 0.0
C91 C 0.14068 0.36348 0.74695 0.0
C92 C 0.17188 0.38859 0.72871 0.0
C93 C 0.18321 0.3791 0.69756 0.0
C94 C 0.16285 0.34425 0.68446 0.0
N95 N 0.12817 0.37308 0.77838 0.0
Tb96 Tb 0.96752 1.02224 0.53987 0.0
Tb97 Tb 0.0554 0.04962 0.54383 0.0
C98 C 0.89423 0.98403 0.5373 0.0
C99 C 0.86591 0.95921 0.56077 0.0
C100 C 0.87224 0.92815 0.574 0.0
C101 C 0.84706 0.90727 0.59874 0.0
C102 C 0.81536 0.91723 0.61076 0.0
C103 C 0.80822 0.94744 0.59658 0.0
C104 C 0.83314 0.9681 0.57174 0.0
C105 C 0.99894 0.07808 0.58101 0.0
C106 C 0.01393 0.98512 0.58916 0.0
C107 C 0.12846 0.08838 0.54554 0.0
C108 C 0.15437 0.1099 0.5192 0.0
C109 C 0.19367 0.13265 0.52664 0.0
C110 C 0.21875 0.15152 0.50091 0.0
C111 C 0.20477 0.14757 0.46747 0.0
C112 C 0.165 0.12538 0.46038 0.0
C113 C 0.14003 0.10674 0.48602 0.0
C114 C 0.02413 0.99424 0.50217 0.0
C115 C 1.00917 0.08678 0.49431 0.0
O116 O 0.92243 0.97351 0.52515 0.0
O117 O 0.90781 1.01826 0.54625 0.0
O118 O 1.01064 0.05133 0.57774 0.0
O119 O 0.9677 0.07328 0.56215 0.0
O120 O 0.98152 0.98113 0.57057 0.0
O121 O 0.04523 1.0155 0.5879 0.0
O122 O 0.09995 0.09996 0.55504 0.0
O123 O 0.11534 0.05321 0.5405 0.0
O124 O 1.01243 1.0209 0.50583 0.0
O125 O 0.05555 0.99897 0.52076 0.0
O126 O 0.04158 0.09051 0.51277 0.0
O127 O 0.97735 0.05687 0.49607 0.0
H128 H 0.89716 0.92051 0.56591 0.0
H129 H 0.85331 0.88419 0.60936 0.0
H130 H 0.78368 0.95541 0.60511 0.0
H131 H 0.82749 0.99175 0.56175 0.0
H132 H 0.20511 0.13535 0.55218 0.0
H133 H 0.24932 0.16838 0.50701 0.0
H134 H 0.15325 0.12231 0.43493 0.0
H135 H 0.10966 0.08935 0.47986 0.0
Tb136 Tb 0.57 0.05352 0.05869 0.0
Tb137 Tb 0.47628 1.01546 0.03807 0.0
C138 C 0.64118 0.09655 0.06012 0.0
C139 C 0.67086 0.11588 0.08557 0.0
C140 C 0.70447 0.14537 0.07599 0.0
C141 C 0.73181 0.16562 0.10016 0.0
C142 C 0.7259 0.15655 0.13426 0.0
C143 C 0.69255 0.1264 0.14365 0.0
C144 C 0.66512 0.10627 0.11947 0.0
C145 C 0.53129 0.9954 0.09709 0.0
C146 C 0.5038 0.07706 0.09425 0.0
C147 C 0.40586 0.97133 0.03533 0.0
C148 C 0.37821 0.95209 1.00846 0.0
C149 C 0.34602 0.92038 1.0159 0.0
C150 C 0.32086 0.90049 0.99025 0.0
C151 C 0.32753 0.91216 0.95679 0.0
C152 C 0.35957 0.94429 0.94953 0.0
C153 C 0.38485 0.96403 0.97517 0.0
C154 C 0.51523 0.07362 0.9999 0.0
C155 C 0.54233 0.99319 1.00116 0.0
O156 O 0.61014 0.10717 0.057 0.0
O157 O 0.6312 0.06096 0.05965 0.0
O158 O 0.51814 1.01138 0.07476 0.0
O159 O 0.56927 1.01453 0.09987 0.0
O160 O 0.5423 0.08553 0.0871 0.0
O161 O 0.4748 0.04818 0.08182 0.0
O162 O 0.43728 0.96138 0.03972 0.0
O163 O 0.41485 1.00687 0.03626 0.0
O164 O 0.52779 0.05825 1.02302 0.0
O165 O 0.47752 0.05401 0.99605 0.0
O166 O 0.50381 0.98486 1.00783 0.0
O167 O 0.57144 1.02098 1.01488 0.0
H168 H 0.70917 0.15311 0.04986 0.0
H169 H 0.75735 0.1886 0.09225 0.0
H170 H 0.6869 0.11915 0.16979 0.0
H171 H 0.63907 0.08371 0.12724 0.0
H172 H 0.34071 0.91073 0.0415 0.0
H173 H 0.29626 0.87595 0.99655 0.0
H174 H 0.36575 0.95362 0.92392 0.0
H175 H 0.40993 0.98824 0.96897 0.0
Tb176 Tb 0.51889 0.57852 0.56965 0.0
Tb177 Tb 0.51412 0.50417 0.54 0.0
C178 C 0.50516 0.6344 0.58772 0.0
C179 C 0.46884 0.64314 0.59418 0.0
C180 C 0.43473 0.63059 0.57316 0.0
C181 C 0.40019 0.63832 0.58071 0.0
C182 C 0.39904 0.65844 0.60958 0.0
C183 C 0.43324 0.67051 0.63065 0.0
C184 C 0.46777 0.6631 0.62291 0.0
C185 C 0.5507 0.53861 0.6073 0.0
C186 C 0.43771 0.50909 0.57451 0.0
C187 C 0.53004 0.44662 0.53709 0.0
C188 C 0.55975 0.43435 0.52035 0.0
C189 C 0.58586 0.42282 0.54043 0.0
C190 C 0.61695 0.41419 0.52616 0.0
C191 C 0.62232 0.41624 0.49129 0.0
C192 C 0.59558 0.42718 0.47107 0.0
C193 C 0.56471 0.4364 0.48549 0.0
C194 C 0.49289 0.54427 0.4932 0.0
C195 C 0.58999 0.57547 0.52593 0.0
O196 O 0.51179 0.628 0.55659 0.0
O197 O 0.51207 0.61136 0.60871 0.0
O198 O 0.51915 0.52727 0.58927 0.0
O199 O 0.56506 0.5739 0.60488 0.0
O200 O 0.45545 0.54507 0.57558 0.0
O201 O 0.45599 0.48711 0.56348 0.0
O202 O 0.54571 0.47237 0.55923 0.0
O203 O 0.50139 0.45203 0.51892 0.0
O204 O 0.5033 0.55158 0.52347 0.0
O205 O 0.49418 0.51183 0.48825 0.0
O206 O 0.575 0.53944 0.52811 0.0
O207 O 0.57145 0.59675 0.53812 0.0
H208 H 0.43465 0.61469 0.55102 0.0
H209 H 0.37456 0.62878 0.56382 0.0
H210 H 0.43322 0.68525 0.65352 0.0
H211 H 0.49357 0.67258 0.63968 0.0
H212 H 0.58284 0.42141 0.56743 0.0
H213 H 0.63729 0.40665 0.54266 0.0
H214 H 0.5984 0.42856 0.44409 0.0
H215 H 0.54516 0.44549 0.46944 0.0
Tb216 Tb 0.0235 0.57361 1.02287 0.0
Tb217 Tb 0.01699 0.50955 0.06526 0.0
C218 C 1.00947 0.62196 0.98812 0.0
C219 C 0.97548 0.63461 0.98319 0.0
C220 C 0.9425 0.62323 1.00453 0.0
C221 C 0.90873 0.63276 0.99758 0.0
C222 C 0.90726 0.65347 0.96893 0.0
C223 C 0.94077 0.66519 0.94795 0.0
C224 C 0.97457 0.65588 0.95509 0.0
C225 C 0.09123 0.57885 0.05574 0.0
C226 C 0.9853 0.56714 0.0954 0.0
C227 C 0.03185 0.46069 0.09864 0.0
C228 C 0.06403 0.44519 0.09817 0.0
C229 C 0.09718 0.46001 0.07738 0.0
C230 C 0.1289 0.44669 0.07858 0.0
C231 C 0.12824 0.4185 0.10086 0.0
C232 C 0.09457 0.40332 0.12126 0.0
C233 C 0.06272 0.41656 0.11986 0.0
C234 C 0.94954 0.50468 1.03229 0.0
C235 C 0.05496 0.51601 0.9924 0.0
O236 O 1.00319 0.58884 0.97766 0.0
O237 O 0.02764 0.62829 1.01738 0.0
O238 O 0.05592 0.56497 0.06614 0.0
O239 O 0.0892 0.59367 1.02697 0.0
O240 O 0.98539 0.57895 0.06418 0.0
O241 O 1.00002 0.54125 0.10279 0.0
O242 O 0.04305 0.49482 0.10782 0.0
O243 O 1.00779 0.45394 0.07248 0.0
O244 O 0.9849 0.51797 1.0218 0.0
O245 O 0.95119 0.49151 0.06199 0.0
O246 O 0.05357 0.50315 1.02329 0.0
O247 O 0.04119 0.54253 0.9853 0.0
H248 H 0.94245 0.60638 1.02613 0.0
H249 H 0.88366 0.62362 1.01445 0.0
H250 H 0.94042 0.68056 0.92535 0.0
H251 H 0.9996 0.66444 0.93812 0.0
H252 H 0.09904 0.48239 0.06071 0.0
H253 H 0.1541 0.45872 0.06226 0.0
H254 H 0.09334 0.38198 0.13909 0.0
H255 H 0.03749 0.40498 0.13627 0.0
C256 C 0.36094 0.23409 0.32052 0.0
C257 C 0.34144 0.24722 0.29537 0.0
C258 C 0.34156 0.21978 0.35047 0.0
C259 C 0.30181 0.21868 0.35535 0.0
C260 C 0.28245 0.23294 0.33053 0.0
C261 C 0.30242 0.24688 0.3008 0.0
C262 C 0.3631 0.20477 0.37641 0.0
C263 C 0.24003 0.23221 0.33479 0.0
C264 C 0.23244 0.14586 0.41076 0.0
C265 C 0.23159 0.16563 0.43973 0.0
C266 C 0.25601 0.16265 0.38348 0.0
C267 C 0.27923 0.20019 0.38518 0.0
C268 C 0.27924 0.22018 0.41466 0.0
C269 C 0.25547 0.20258 0.4417 0.0
C270 C 0.25539 0.14034 0.35257 0.0
C271 C 0.30345 0.26031 0.41723 0.0
H272 H 0.39126 0.23467 0.31662 0.0
H273 H 0.28686 0.25639 0.28129 0.0
H274 H 0.36242 0.21711 0.40124 0.0
H275 H 0.34758 0.17493 0.37893 0.0
H276 H 0.39482 0.20989 0.36982 0.0
H277 H 0.23043 0.24692 0.31433 0.0
H278 H 0.21917 0.20356 0.33512 0.0
H279 H 0.23719 0.24469 0.35907 0.0
H280 H 0.2145 0.11713 0.4094 0.0
H281 H 0.25466 0.21796 0.46402 0.0
H282 H 0.28634 0.14246 0.34611 0.0
H283 H 0.24291 0.15115 0.33097 0.0
H284 H 0.23712 0.1111 0.35587 0.0
H285 H 0.33527 0.26519 0.41137 0.0
H286 H 0.302 0.27142 0.44253 0.0
H287 H 0.2921 0.27567 0.39854 0.0
C288 C 0.17781 0.79115 0.8147 0.0
C289 C 0.20073 0.78869 0.78714 0.0
C290 C 0.19608 0.81059 0.84356 0.0
C291 C 0.23826 0.82769 0.84494 0.0
C292 C 0.26158 0.82497 0.81738 0.0
C293 C 0.24253 0.80572 0.78878 0.0
C294 C 0.17029 0.81309 0.87245 0.0
C295 C 0.30666 0.84277 0.81794 0.0
C296 C 0.28794 0.9071 0.90347 0.0
C297 C 0.30219 0.89018 0.92933 0.0
C298 C 0.2659 0.88685 0.87635 0.0
C299 C 0.25825 0.84885 0.87497 0.0
C300 C 0.2718 0.83149 0.90138 0.0
C301 C 0.29353 0.85237 0.92831 0.0
C302 C 0.25161 0.90625 0.84878 0.0
C303 C 0.26456 0.79109 0.90061 0.0
H304 H 0.14555 0.77783 0.81371 0.0
H305 H 0.26041 0.80467 0.76735 0.0
H306 H 0.17946 0.8018 0.89548 0.0
H307 H 0.17459 0.84208 0.87757 0.0
H308 H 0.13793 0.79817 0.86745 0.0
H309 H 0.3205 0.83708 0.79486 0.0
H310 H 0.31498 0.87272 0.82059 0.0
H311 H 0.31966 0.83297 0.83987 0.0
H312 H 0.29422 0.93627 0.90442 0.0
H313 H 0.30488 0.83928 0.94809 0.0
H314 H 0.2189 0.89285 0.84441 0.0
H315 H 0.26667 0.90453 0.82505 0.0
H316 H 0.25785 0.93546 0.85466 0.0
H317 H 0.23216 0.77553 0.89688 0.0
H318 H 0.27505 0.78143 0.92399 0.0
H319 H 0.28049 0.78477 0.87915 0.0
C320 C 0.64846 0.43172 0.73696 0.0
C321 C 0.62967 0.42417 0.7682 0.0
C322 C 0.63348 0.44779 0.71049 0.0
C323 C 0.59935 0.45805 0.71532 0.0
C324 C 0.58002 0.45029 0.74684 0.0
C325 C 0.595 0.43304 0.77265 0.0
C326 C 0.65467 0.45425 0.67735 0.0
C327 C 0.54431 0.46144 0.75376 0.0
C328 C 0.59231 0.53567 0.65846 0.0
C329 C 0.5626 0.51742 0.6347 0.0
C330 C 0.60349 0.51695 0.68511 0.0
C331 C 0.58553 0.4785 0.68799 0.0
C332 C 0.55564 0.45982 0.66393 0.0
C333 C 0.54403 0.47947 0.63814 0.0
C334 C 0.63468 0.5385 0.7103 0.0
C335 C 0.53629 0.4189 0.66509 0.0
H336 H 0.67522 0.42498 0.73315 0.0
H337 H 0.58043 0.42775 0.79671 0.0
H338 H 0.63283 0.44277 0.65661 0.0
H339 H 0.66859 0.48396 0.67276 0.0
H340 H 0.67845 0.44187 0.67649 0.0
H341 H 0.53186 0.45272 0.779 0.0
H342 H 0.55315 0.49153 0.75192 0.0
H343 H 0.52036 0.44956 0.73469 0.0
H344 H 0.60668 0.56497 0.65649 0.0
H345 H 0.52049 0.46498 0.62054 0.0
H346 H 0.66169 0.53056 0.70887 0.0
H347 H 0.62296 0.53228 0.73606 0.0
H348 H 0.64379 0.56836 0.7061 0.0
H349 H 0.55962 0.40608 0.66363 0.0
H350 H 0.51425 0.40822 0.64428 0.0
H351 H 0.52078 0.41042 0.68922 0.0
C352 C 0.96626 0.69599 0.24413 0.0
C353 C 0.92881 0.68488 0.25958 0.0
C354 C 0.97367 0.67655 0.21689 0.0
C355 C 0.94278 0.64522 0.20446 0.0
C356 C 0.90465 0.6342 0.21965 0.0
C357 C 0.89815 0.65404 0.24703 0.0
C358 C 0.01482 0.68928 0.2017 0.0
C359 C 0.87077 0.6012 0.20717 0.0
C360 C 0.95568 0.61311 0.11629 0.0
C361 C 0.97101 0.58506 0.12304 0.0
C362 C 0.94546 0.63228 0.14241 0.0
C363 C 0.95087 0.6235 0.17627 0.0
C364 C 0.96546 0.59468 0.18321 0.0
C365 C 0.9752 0.57584 0.15665 0.0
C366 C 0.92972 0.66255 0.13375 0.0
C367 C 0.97185 0.58435 0.21881 0.0
H368 H 0.99007 0.71976 0.25366 0.0
H369 H 0.86902 0.64524 0.25864 0.0
H370 H 0.02822 0.6676 0.2042 0.0
H371 H 1.01257 0.6946 0.17455 0.0
H372 H 0.03539 0.71448 0.21379 0.0
H373 H 0.84252 0.59689 0.22081 0.0
H374 H 0.86518 0.60416 0.18006 0.0
H375 H 0.87912 0.57648 0.21012 0.0
H376 H 0.95229 0.62061 0.09053 0.0
H377 H 0.98707 0.55435 0.16235 0.0
H378 H 0.95123 0.68896 0.14278 0.0
H379 H 0.90094 0.65808 0.14653 0.0
H380 H 0.92494 0.66464 0.10634 0.0
H381 H 0.99468 0.60771 0.23154 0.0
H382 H 0.98196 0.56046 0.2201 0.0
H383 H 0.94367 0.57791 0.233 0.0
C384 C 0.40938 0.21813 0.16275 0.0
C385 C 0.41656 0.22654 0.19691 0.0
C386 C 0.42618 0.19497 0.14691 0.0
C387 C 0.45024 0.17935 0.16578 0.0
C388 C 0.45827 0.18822 0.20007 0.0
C389 C 0.44164 0.21195 0.21514 0.0
C390 C 0.41734 0.18649 0.11014 0.0
C391 C 0.48356 0.17192 0.22106 0.0
C392 C 0.45495 0.09058 0.13158 0.0
C393 C 0.49204 0.10237 0.11557 0.0
C394 C 0.4416 0.1152 0.14897 0.0
C395 C 0.46563 0.15261 0.14986 0.0
C396 C 0.50353 0.16454 0.13442 0.0
C397 C 0.51644 0.13921 0.11768 0.0
C398 C 0.4013 0.10134 0.16564 0.0
C399 C 0.52974 0.20427 0.13444 0.0
H400 H 0.38966 0.22879 0.14851 0.0
H401 H 0.44799 0.2188 0.24139 0.0
H402 H 0.44569 0.19196 0.09639 0.0
H403 H 0.39955 0.15714 0.10692 0.0
H404 H 0.40038 0.20275 0.09853 0.0
H405 H 0.48788 0.18239 0.24718 0.0
H406 H 0.4691 0.14183 0.22181 0.0
H407 H 0.5134 0.17795 0.20966 0.0
H408 H 0.43606 0.06212 0.13018 0.0
H409 H 0.54496 0.14859 0.10504 0.0
H410 H 0.38059 0.11335 0.15326 0.0
H411 H 0.40439 0.1099 0.19229 0.0
H412 H 0.38749 0.07116 0.1645 0.0
H413 H 0.51434 0.22038 0.12045 0.0
H414 H 0.55922 0.20882 0.12275 0.0
H415 H 0.53494 0.21495 0.16042 0.0
C416 C 0.07433 0.81403 0.62169 0.0
C417 C 0.07023 0.8 0.65429 0.0
C418 C 0.06023 0.84235 0.61296 0.0
C419 C 0.0413 0.85667 0.63742 0.0
C420 C 0.03493 0.84106 0.66982 0.0
C421 C 0.04962 0.81295 0.67793 0.0
C422 C 0.06747 0.8582 0.57807 0.0
C423 C 0.01421 0.85513 0.69634 0.0
C424 C 0.05345 0.95596 0.62411 0.0
C425 C 0.01761 0.95319 0.60722 0.0
C426 C 0.06076 0.92475 0.63536 0.0
C427 C 0.03143 0.88992 0.62978 0.0
C428 C 0.99414 0.88708 0.61476 0.0
C429 C 0.9877 0.91876 0.6036 0.0
C430 C 0.10088 0.92896 0.65145 0.0
C431 C 0.96193 0.85051 0.60862 0.0
H432 H 0.09015 0.80395 0.60339 0.0
H433 H 0.04591 0.80188 0.70311 0.0
H434 H 0.03918 0.85925 0.56678 0.0
H435 H 0.08894 0.8866 0.57933 0.0
H436 H 0.07981 0.84223 0.5613 0.0
H437 H 1.00774 0.83755 0.71901 0.0
H438 H 0.03347 0.88304 0.70387 0.0
H439 H 0.98566 0.85691 0.68629 0.0
H440 H 0.0767 0.98241 0.62714 0.0
H441 H 0.95992 0.91627 0.59056 0.0
H442 H 0.11779 0.9169 0.63492 0.0
H443 H 0.09667 0.91406 0.67562 0.0
H444 H 0.1193 0.95797 0.65608 0.0
H445 H 0.9709 0.83653 0.58772 0.0
H446 H 0.93264 0.85323 0.6019 0.0
H447 H 0.95807 0.83283 0.63108 0.0
C448 C 0.76759 0.3874 0.91583 0.0
C449 C 0.73868 0.40315 0.9072 0.0
C450 C 0.80242 0.40668 0.93447 0.0
C451 C 0.80893 0.44286 0.94509 0.0
C452 C 0.7806 0.45946 0.93549 0.0
C453 C 0.74599 0.43951 0.91664 0.0
C454 C 0.83179 0.38784 0.94362 0.0
C455 C 0.78613 0.49789 0.94617 0.0
C456 C 0.87544 0.47265 1.02363 0.0
C457 C 0.91297 0.49237 1.0102 0.0
C458 C 0.84121 0.45767 1.00287 0.0
C459 C 0.84429 0.46227 0.96761 0.0
C460 C 0.88187 0.48332 0.95402 0.0
C461 C 0.91563 0.49815 0.97542 0.0
C462 C 0.80191 0.43581 1.01868 0.0
C463 C 0.88679 0.48908 0.91672 0.0
H464 H 0.76271 0.35958 0.9083 0.0
H465 H 0.72385 0.45195 0.91041 0.0
H466 H 0.86236 0.40461 0.93558 0.0
H467 H 0.83296 0.38474 0.97122 0.0
H468 H 0.8236 0.36043 0.93199 0.0
H469 H 0.76331 0.50798 0.93457 0.0
H470 H 0.78394 0.49892 0.97381 0.0
H471 H 0.81637 0.51665 0.93936 0.0
H472 H 0.87298 0.46818 0.05045 0.0
H473 H 0.94444 0.51339 0.96476 0.0
H474 H 0.79295 0.40692 1.01069 0.0
H475 H 0.77794 0.44611 1.01011 0.0
H476 H 0.80368 0.43684 0.04649 0.0
H477 H 0.88235 0.46264 0.90428 0.0
H478 H 0.91692 0.50846 0.91025 0.0
H479 H 0.86373 0.49958 0.90634 0.0
C480 C 0.7635 0.65804 0.3925 0.0
C481 C 0.80125 0.67453 0.40771 0.0
C482 C 0.72954 0.64024 0.41179 0.0
C483 C 0.73352 0.63864 0.44711 0.0
C484 C 0.77189 0.6539 0.46241 0.0
C485 C 0.80522 0.67172 0.44256 0.0
C486 C 0.68916 0.62437 0.3945 0.0
C487 C 0.77756 0.65239 0.4999 0.0
C488 C 0.6422 0.62944 0.49981 0.0
C489 C 0.62795 0.59209 0.50739 0.0
C490 C 0.67653 0.64489 0.48032 0.0
C491 C 0.69734 0.62253 0.46818 0.0
C492 C 0.68351 0.58493 0.47616 0.0
C493 C 0.64903 0.57018 0.49558 0.0
C494 C 0.69024 0.68511 0.47231 0.0
C495 C 0.70492 0.56018 0.46391 0.0
H496 H 0.76021 0.66041 0.36562 0.0
H497 H 0.83444 0.68409 0.45439 0.0
H498 H 0.67456 0.5954 0.40175 0.0
H499 H 0.66933 0.63924 0.40257 0.0
H500 H 0.69143 0.62605 0.36678 0.0
H501 H 0.80965 0.66349 0.50767 0.0
H502 H 0.76142 0.66833 0.5125 0.0
H503 H 0.7646 0.62386 0.5089 0.0
H504 H 0.62612 0.64661 0.5086 0.0
H505 H 0.63841 0.54128 0.50124 0.0
H506 H 0.69008 0.68909 0.44477 0.0
H507 H 0.7215 0.69869 0.48144 0.0
H508 H 0.67093 0.69879 0.48377 0.0
H509 H 0.70527 0.56031 0.43612 0.0
H510 H 0.69058 0.5316 0.47258 0.0
H511 H 0.73658 0.57032 0.47282 0.0
C512 C 0.31607 0.34722 0.11599 0.0
C513 C 0.32491 0.34695 0.1503 0.0
C514 C 0.28589 0.36012 0.10427 0.0
C515 C 0.2639 0.37259 0.12755 0.0
C516 C 0.27346 0.37322 0.16215 0.0
C517 C 0.304 0.36062 0.17307 0.0
C518 C 0.27689 0.35958 0.06716 0.0
C519 C 0.25056 0.38611 0.18781 0.0
C520 C 0.20245 0.43167 0.104 0.0
C521 C 0.16331 0.40618 0.1041 0.0
C522 C 0.23574 0.42085 0.10981 0.0
C523 C 0.22974 0.38372 0.11627 0.0
C524 C 0.19047 0.35765 0.11512 0.0
C525 C 0.15776 0.36918 0.10891 0.0
C526 C 0.27717 0.44941 0.11055 0.0
C527 C 0.18283 0.31779 0.12194 0.0
H528 H 0.33225 0.33669 0.09836 0.0
H529 H 0.31062 0.36061 0.19966 0.0
H530 H 0.24634 0.34001 0.06185 0.0
H531 H 0.2774 0.38683 0.05871 0.0
H532 H 0.29863 0.35163 0.05221 0.0
H533 H 0.26241 0.38573 0.21368 0.0
H534 H 0.25188 0.41426 0.18189 0.0
H535 H 0.21852 0.36842 0.18704 0.0
H536 H 0.20707 0.46037 0.10068 0.0
H537 H 0.12769 0.34924 0.10837 0.0
H538 H 0.29791 0.4406 0.0952 0.0
H539 H 0.28917 0.45296 0.13663 0.0
H540 H 0.27716 0.47622 0.10116 0.0
H541 H 0.20171 0.30765 0.1057 0.0
H542 H 0.15091 0.30068 0.11771 0.0
H543 H 0.19119 0.31426 0.14832 0.0
C544 C 0.58298 0.27409 0.91554 0.0
C545 C 0.622 0.28534 0.90289 0.0
C546 C 0.5658 0.23978 0.9314 0.0
C547 C 0.58765 0.21547 0.9341 0.0
C548 C 0.62665 0.2264 0.92048 0.0
C549 C 0.64339 0.26112 0.90551 0.0
C550 C 0.52455 0.22989 0.94601 0.0
C551 C 0.65089 0.20143 0.92184 0.0
C552 C 0.56043 0.13976 1.00111 0.0
C553 C 0.53611 0.10928 0.983 0.0
C554 C 0.57715 0.17433 0.98569 0.0
C555 C 0.56988 0.17872 0.95107 0.0
C556 C 0.54564 0.14777 0.93266 0.0
C557 C 0.52862 0.11377 0.94891 0.0
C558 C 0.60183 0.20642 1.00673 0.0
C559 C 0.53758 0.15053 0.89569 0.0
H560 H 0.56637 0.29267 0.91406 0.0
H561 H 0.6735 0.26943 0.89575 0.0
H562 H 0.50409 0.2044 0.93442 0.0
H563 H 0.52599 0.22469 0.97328 0.0
H564 H 0.51151 0.2517 0.9422 0.0
H565 H 0.68001 0.2132 0.90894 0.0
H566 H 0.65687 0.19583 0.9483 0.0
H567 H 0.63367 0.17489 0.91001 0.0
H568 H 0.56494 0.13698 1.02772 0.0
H569 H 0.50944 0.09047 0.93481 0.0
H570 H 0.58793 0.22785 1.00604 0.0
H571 H 0.63232 0.21854 0.99631 0.0
H572 H 0.60461 0.19871 1.03325 0.0
H573 H 0.52138 0.1699 0.89146 0.0
H574 H 0.51948 0.12379 0.8846 0.0
H575 H 0.56634 0.16138 0.88218 0.0
C576 C 0.88748 0.8128 0.40891 0.0
C577 C 0.9096 0.79484 0.39177 0.0
C578 C 0.90626 0.84622 0.42523 0.0
C579 C 0.94827 0.8635 0.42315 0.0
C580 C 0.97057 0.84704 0.40385 0.0
C581 C 0.95111 0.81273 0.38876 0.0
C582 C 0.88124 0.86212 0.4461 0.0
C583 C 0.01523 0.86515 0.39999 0.0
C584 C 0.98835 0.96359 0.44995 0.0
C585 C 1.00409 0.96123 0.48191 0.0
C586 C 0.97152 0.93222 0.42995 0.0
C587 C 0.96877 0.89753 0.44289 0.0
C588 C 0.98381 0.89514 0.47563 0.0
C589 C 1.00208 0.92708 0.49438 0.0
C590 C 0.95713 0.93621 0.39485 0.0
C591 C 0.98003 0.85879 0.49115 0.0
H592 H 0.85522 0.8002 0.41042 0.0
H593 H 0.96867 0.79943 0.37561 0.0
H594 H 0.89161 0.86414 0.47264 0.0
H595 H 0.88492 0.8901 0.43751 0.0
H596 H 0.84885 0.8454 0.445 0.0
H597 H 0.02733 0.85148 0.38077 0.0
H598 H 0.02257 0.89422 0.39293 0.0
H599 H 0.03063 0.86444 0.42423 0.0
H600 H 0.9903 0.99011 0.44022 0.0
H601 H 0.01407 0.92528 0.51924 0.0
H602 H 0.92432 0.92181 0.39263 0.0
H603 H 0.97153 0.92341 0.37668 0.0
H604 H 0.96382 0.9652 0.38772 0.0
H605 H 0.94823 0.84048 0.49049 0.0
H606 H 0.99104 0.86149 0.51756 0.0
H607 H 0.99736 0.84546 0.47653 0.0
C608 C 0.22153 0.69061 0.70393 0.0
C609 C 0.20451 0.7136 0.68729 0.0
C610 C 0.2489 0.67785 0.68793 0.0
C611 C 0.25884 0.68761 0.65417 0.0
C612 C 0.23889 0.70789 0.63627 0.0
C613 C 0.21216 0.72093 0.65312 0.0
C614 C 0.26956 0.65642 0.70804 0.0
C615 C 0.24786 0.718 0.59999 0.0
C616 C 0.36617 0.70041 0.63253 0.0
C617 C 0.36246 0.66672 0.61815 0.0
C618 C 0.33254 0.70774 0.64357 0.0
C619 C 0.29393 0.68105 0.63946 0.0
C620 C 0.28963 0.64767 0.62346 0.0
C621 C 0.32399 0.64074 0.61326 0.0
C622 C 0.33854 0.74364 0.66074 0.0
C623 C 0.24891 0.61886 0.61802 0.0
H624 H 0.21494 0.68404 0.73009 0.0
H625 H 0.19918 0.73865 0.64002 0.0
H626 H 0.26893 0.63174 0.69417 0.0
H627 H 0.30149 0.67342 0.71221 0.0
H628 H 0.25558 0.64795 0.73282 0.0
H629 H 0.22497 0.72784 0.58814 0.0
H630 H 0.2775 0.73999 0.59823 0.0
H631 H 0.24934 0.69434 0.58555 0.0
H632 H 0.39558 0.72107 0.6356 0.0
H633 H 0.32072 0.61453 0.60235 0.0
H634 H 0.3277 0.73862 0.68685 0.0
H635 H 0.32079 0.75822 0.64766 0.0
H636 H 0.37049 0.7617 0.66146 0.0
H637 H 0.23643 0.60704 0.64246 0.0
H638 H 0.25023 0.59643 0.60165 0.0
H639 H 0.22782 0.63109 0.60659 0.0
C640 C 0.72426 0.8195 0.78126 0.0
C641 C 0.68354 0.81481 0.78432 0.0
C642 C 0.74479 0.83328 0.75171 0.0
C643 C 0.72401 0.84236 0.72448 0.0
C644 C 0.68249 0.83624 0.7269 0.0
C645 C 0.66277 0.82276 0.75693 0.0
C646 C 0.78917 0.83982 0.75029 0.0
C647 C 0.65925 0.84519 0.69823 0.0
C648 C 0.78483 0.91748 0.66647 0.0
C649 C 0.79121 0.89764 0.63936 0.0
C650 C 0.76286 0.89975 0.6942 0.0
C651 C 0.74651 0.8612 0.69471 0.0
C652 C 0.75254 0.84096 0.66728 0.0
C653 C 0.77514 0.85946 0.63998 0.0
C654 C 0.75768 0.9223 0.7232 0.0
C655 C 0.73523 0.79985 0.66686 0.0
H656 H 0.74053 0.81385 0.80256 0.0
H657 H 0.63122 0.81889 0.7592 0.0
H658 H 0.7961 0.8272 0.72748 0.0
H659 H 0.80601 0.86954 0.74883 0.0
H660 H 0.80017 0.82871 0.77258 0.0
H661 H 0.62652 0.8356 0.7029 0.0
H662 H 0.66987 0.87512 0.69428 0.0
H663 H 0.66445 0.83264 0.6747 0.0
H664 H 0.79776 0.94699 0.66626 0.0
H665 H 0.77991 0.84412 0.61893 0.0
H666 H 0.77076 0.91494 0.7464 0.0
H667 H 0.72534 0.91644 0.72768 0.0
H668 H 0.77219 0.95203 0.71879 0.0
H669 H 0.7477 0.78864 0.68819 0.0
H670 H 0.74169 0.78822 0.64324 0.0
H671 H 0.70227 0.79064 0.66999 0.0
C672 C 0.79526 0.26805 0.29778 0.0
C673 C 0.83632 0.28605 0.304 0.0
C674 C 0.78154 0.24818 0.26833 0.0
C675 C 0.80958 0.24568 0.2446 0.0
C676 C 0.85109 0.26369 0.25057 0.0
C677 C 0.86402 0.28382 0.28022 0.0
C678 C 0.73696 0.22942 0.26287 0.0
C679 C 0.88176 0.26135 0.22584 0.0
C680 C 0.76566 0.16412 0.18773 0.0
C681 C 0.7527 0.17984 0.16025 0.0
C682 C 0.78681 0.18567 0.21452 0.0
C683 C 0.7948 0.22375 0.21383 0.0
C684 C 0.78377 0.23999 0.1853 0.0
C685 C 0.76287 0.21781 0.15879 0.0
C686 C 0.79848 0.16741 0.24438 0.0
C687 C 0.79153 0.28046 0.18375 0.0
H688 H 0.77367 0.26877 0.31637 0.0
H689 H 0.89577 0.29777 0.28481 0.0
H690 H 0.72734 0.23849 0.23884 0.0
H691 H 0.7298 0.19951 0.26118 0.0
H692 H 0.71913 0.23504 0.28335 0.0
H693 H 0.9129 0.27719 0.23407 0.0
H694 H 0.87916 0.23247 0.22241 0.0
H695 H 0.87602 0.27167 0.20102 0.0
H696 H 0.75833 0.1348 0.18865 0.0
H697 H 0.75263 0.23005 0.13769 0.0
H698 H 0.77942 0.16807 0.26592 0.0
H699 H 0.83006 0.18223 0.25201 0.0
H700 H 0.79485 0.13854 0.2392 0.0
H701 H 0.77176 0.28748 0.20164 0.0
H702 H 0.78571 0.28938 0.15831 0.0
H703 H 0.82295 0.29609 0.19125 0.0
C704 C 0.40716 0.64412 0.34553 0.0
C705 C 0.43826 0.67221 0.33019 0.0
C706 C 0.41468 0.62442 0.37334 0.0
C707 C 0.45436 0.63248 0.38625 0.0
C708 C 0.48571 0.66105 0.37095 0.0
C709 C 0.47728 0.6805 0.34349 0.0
C710 C 0.38009 0.59462 0.38874 0.0
C711 C 0.52851 0.67066 0.38317 0.0
C712 C 0.47453 0.59919 0.47415 0.0
C713 C 0.48309 0.56762 0.46663 0.0
C714 C 0.46462 0.62023 0.44857 0.0
C715 C 0.46356 0.60987 0.41432 0.0
C716 C 0.4723 0.57799 0.40676 0.0
C717 C 0.48158 0.55735 0.43278 0.0
C718 C 0.45515 0.65356 0.45824 0.0
C719 C 0.47218 0.56571 0.37097 0.0
H720 H 0.37683 0.63741 0.33579 0.0
H721 H 0.50161 0.70208 0.33199 0.0
H722 H 0.38413 0.56794 0.38546 0.0
H723 H 0.37933 0.59927 0.41607 0.0
H724 H 0.35079 0.59297 0.37735 0.0
H725 H 0.5494 0.69417 0.3694 0.0
H726 H 0.53077 0.67734 0.41026 0.0
H727 H 0.53838 0.64686 0.38011 0.0
H728 H 0.47494 0.60718 0.50007 0.0
H729 H 0.48807 0.53305 0.42647 0.0
H730 H 0.42501 0.65134 0.44843 0.0
H731 H 0.47706 0.67817 0.44678 0.0
H732 H 0.45589 0.65744 0.48583 0.0
H733 H 0.4423 0.56076 0.35916 0.0
H734 H 0.47955 0.54039 0.36909 0.0
H735 H 0.4943 0.58747 0.35632 0.0
C736 C 0.09677 0.40296 0.83727 0.0
C737 C 0.13734 0.41627 0.82855 0.0
C738 C 0.08281 0.41797 0.86447 0.0
C739 C 0.10998 0.44703 0.88331 0.0
C740 C 0.15098 0.46023 0.87465 0.0
C741 C 0.16407 0.4447 0.84751 0.0
C742 C 0.03889 0.40298 0.87285 0.0
C743 C 0.18106 0.49116 0.89381 0.0
C744 C 0.07063 0.51145 0.93166 0.0
C745 C 0.07028 0.49898 0.96479 0.0
C746 C 0.08308 0.49464 0.90503 0.0
C747 C 0.09558 0.46445 0.91143 0.0
C748 C 0.09547 0.45179 0.94481 0.0
C749 C 0.08287 0.46915 0.97101 0.0
C750 C 0.08292 0.50928 0.86995 0.0
C751 C 0.10861 0.4198 0.95288 0.0
H752 H 0.07589 0.38101 0.82279 0.0
H753 H 0.19546 0.45513 0.84089 0.0
H754 H 0.03521 0.39386 0.89935 0.0
H755 H 0.02561 0.42471 0.87006 0.0
H756 H 0.02183 0.37968 0.85653 0.0
H757 H 0.21201 0.49775 0.88443 0.0
H758 H 0.17268 0.51594 0.89182 0.0
H759 H 0.18087 0.48409 0.92078 0.0
H760 H 0.06088 0.53434 0.92638 0.0
H761 H 0.08261 0.45906 0.99639 0.0
H762 H 0.06364 0.48744 0.85325 0.0
H763 H 0.11366 0.51829 0.85978 0.0
H764 H 0.07189 0.53263 0.86902 0.0
H765 H 0.0898 0.39546 0.93862 0.0
H766 H 0.10653 0.41305 0.98002 0.0
H767 H 0.14005 0.42584 0.94507 0.0
C768 C 0.58372 0.83169 0.90623 0.0
C769 C 0.61275 0.8444 0.88133 0.0
C770 C 0.57033 0.85583 0.92435 0.0
C771 C 0.58524 0.89348 0.91664 0.0
C772 C 0.61286 0.9063 0.89041 0.0
C773 C 0.62682 0.88179 0.87354 0.0
C774 C 0.54149 0.84123 0.95266 0.0
C775 C 0.62874 0.94616 0.88091 0.0
C776 C 0.52911 0.95228 0.95118 0.0
C777 C 0.55384 0.9691 0.97839 0.0
C778 C 0.53937 0.92817 0.93029 0.0
C779 C 0.57436 0.91983 0.93764 0.0
C780 C 0.59919 0.93659 0.9653 0.0
C781 C 0.58895 0.96149 0.98501 0.0
C782 C 0.51293 0.91176 0.90035 0.0
C783 C 0.63613 0.92765 0.97455 0.0
H784 H 0.57187 0.80286 0.91205 0.0
H785 H 0.64981 0.89235 0.85495 0.0
H786 H 0.55593 0.85344 0.97669 0.0
H787 H 0.51453 0.84902 0.94901 0.0
H788 H 0.53181 0.81108 0.95484 0.0
H789 H 0.64603 0.95097 0.85736 0.0
H790 H 0.6037 0.95678 0.87773 0.0
H791 H 0.64863 0.96212 0.90123 0.0
H792 H 0.502 0.95829 0.94604 0.0
H793 H 0.60776 0.97412 1.00637 0.0
H794 H 0.5004 0.88168 0.90289 0.0
H795 H 0.53092 0.91787 0.8772 0.0
H796 H 0.48772 0.92223 0.89734 0.0
H797 H 0.62784 0.89788 0.97884 0.0
H798 H 0.6515 0.94223 0.99746 0.0
H799 H 0.65765 0.935 0.95367 0.0
C800 C 0.95506 0.25759 0.43982 0.0
C801 C 0.96744 0.27172 0.40791 0.0
C802 C 0.96544 0.22853 0.45277 0.0
C803 C 0.98844 0.21314 0.4332 0.0
C804 C 1.00205 0.2281 0.40141 0.0
C805 C 0.99148 0.25735 0.3892 0.0
C806 C 0.95082 0.2136 0.48699 0.0
C807 C 0.02663 0.21244 0.37986 0.0
C808 C 0.03586 0.15292 0.47962 0.0
C809 C 1.00696 0.1182 0.47459 0.0
C810 C 0.03095 0.18404 0.4654 0.0
C811 C 0.99647 0.1803 0.44546 0.0
C812 C 0.96827 0.14516 0.43886 0.0
C813 C 0.97378 0.11453 0.45361 0.0
C814 C 0.06158 0.22104 0.47317 0.0
C815 C 0.93133 0.14004 0.4174 0.0
H816 H 0.93667 0.26879 0.45447 0.0
H817 H 1.00103 0.26831 0.36451 0.0
H818 H 0.92985 0.1851 0.48462 0.0
H819 H 0.97637 0.21308 0.50308 0.0
H820 H 0.93517 0.22991 0.49976 0.0
H821 H 0.03678 0.22851 0.3566 0.0
H822 H 0.05332 0.21147 0.39409 0.0
H823 H 1.00858 0.18402 0.37279 0.0
H824 H 0.06153 0.15607 0.49593 0.0
H825 H 0.95139 0.0878 0.44952 0.0
H826 H 0.04813 0.23628 0.48969 0.0
H827 H 0.07077 0.2372 0.44989 0.0
H828 H 0.08874 0.21901 0.48596 0.0
H829 H 0.91161 0.15247 0.43002 0.0
H830 H 0.91395 0.11082 0.41263 0.0
H831 H 0.93979 0.15411 0.393 0.0
C832 C 0.26389 0.65963 0.19763 0.0
C833 C 0.30211 0.66956 0.18359 0.0
C834 C 0.22889 0.64279 0.17808 0.0
C835 C 0.23207 0.6348 0.1438 0.0
C836 C 0.27077 0.64335 0.13002 0.0
C837 C 0.30513 0.66103 0.14986 0.0
C838 C 0.18846 0.63505 0.19376 0.0
C839 C 0.27592 0.63459 0.09398 0.0
C840 C 0.13997 0.56874 0.09777 0.0
C841 C 0.12686 0.59268 0.07849 0.0
C842 C 0.17433 0.58184 0.11881 0.0
C843 C 0.19519 0.61996 0.12174 0.0
C844 C 0.18121 0.64418 0.10286 0.0
C845 C 0.14779 0.63025 0.0811 0.0
C846 C 0.18871 0.55484 0.13741 0.0
C847 C 0.20147 0.68497 0.10575 0.0
H848 H 0.26132 0.66645 0.22357 0.0
H849 H 0.33458 0.66851 0.1389 0.0
H850 H 0.17262 0.65169 0.18118 0.0
H851 H 0.16967 0.60602 0.19019 0.0
H852 H 0.19092 0.64129 0.22099 0.0
H853 H 0.30777 0.63958 0.08799 0.0
H854 H 0.25812 0.60566 0.08851 0.0
H855 H 0.26456 0.65162 0.07711 0.0
H856 H 0.12389 0.53971 0.09579 0.0
H857 H 0.1375 0.64889 0.06651 0.0
H858 H 0.18842 0.55929 0.16479 0.0
H859 H 0.22015 0.55904 0.13065 0.0
H860 H 0.16995 0.52615 0.13174 0.0
H861 H 0.20296 0.6934 0.13237 0.0
H862 H 0.18558 0.70014 0.09097 0.0
H863 H 0.23271 0.69302 0.09682 0.0
C864 C 0.21494 0.40984 0.6445 0.0
C865 C 0.21775 0.40462 0.67915 0.0
C866 C 0.24874 0.43008 0.62609 0.0
C867 C 0.2864 0.44514 0.64263 0.0
C868 C 0.28901 0.44136 0.67785 0.0
C869 C 0.25463 0.4213 0.69569 0.0
C870 C 0.24448 0.43392 0.5887 0.0
C871 C 0.32858 0.45678 0.69647 0.0
C872 C 0.38073 0.45489 0.59423 0.0
C873 C 0.39713 0.49268 0.58905 0.0
C874 C 0.34444 0.43917 0.61108 0.0
C875 C 0.32363 0.46165 0.62287 0.0
C876 C 0.33922 0.49967 0.61672 0.0
C877 C 0.37584 0.51476 0.60001 0.0
C878 C 0.329 0.39851 0.61717 0.0
C879 C 0.31769 0.52453 0.62843 0.0
H880 H 0.18638 0.39737 0.63166 0.0
H881 H 0.25705 0.41714 0.7224 0.0
H882 H 0.25892 0.46277 0.58099 0.0
H883 H 0.25992 0.41773 0.57557 0.0
H884 H 0.2126 0.42436 0.58025 0.0
H885 H 0.32504 0.45412 0.72406 0.0
H886 H 0.34884 0.44224 0.68865 0.0
H887 H 0.34342 0.486 0.69018 0.0
H888 H 0.39683 0.43752 0.58599 0.0
H889 H 0.38808 0.54397 0.59606 0.0
H890 H 0.29812 0.3862 0.60681 0.0
H891 H 0.32764 0.39299 0.64451 0.0
H892 H 0.34819 0.38472 0.60568 0.0
H893 H 0.28644 0.51494 0.61852 0.0
H894 H 0.33283 0.55322 0.62039 0.0
H895 H 0.31607 0.52381 0.65617 0.0
C896 C 0.71288 0.70771 0.92627 0.0
C897 C 0.70258 0.69916 0.89252 0.0
C898 C 0.74374 0.69841 0.94182 0.0
C899 C 0.76507 0.68076 0.92296 0.0
C900 C 0.7538 0.67104 0.88918 0.0
C901 C 0.7224 0.6801 0.87447 0.0
C902 C 0.75439 0.70851 0.97808 0.0
C903 C 0.77611 0.65259 0.86811 0.0
C904 C 0.87332 0.69532 0.94598 0.0
C905 C 0.87042 0.6615 0.95995 0.0
C906 C 0.83912 0.70217 0.93452 0.0
C907 C 0.80097 0.67475 0.93759 0.0
C908 C 0.79759 0.64109 0.95292 0.0
C909 C 0.83239 0.63476 0.9637 0.0
C910 C 0.84399 0.73836 0.91811 0.0
C911 C 0.75735 0.61138 0.957 0.0
H912 H 0.69732 0.72218 0.94039 0.0
H913 H 0.71438 0.67354 0.84836 0.0
H914 H 0.75584 0.68456 0.9924 0.0
H915 H 0.78447 0.72995 0.97984 0.0
H916 H 0.73244 0.71883 0.99011 0.0
H917 H 0.76231 0.64525 0.84279 0.0
H918 H 0.8076 0.671 0.86521 0.0
H919 H 0.77693 0.62747 0.88069 0.0
H920 H 0.90249 0.71637 0.94359 0.0
H921 H 0.82985 0.60839 0.97409 0.0
H922 H 0.82547 0.75183 0.93099 0.0
H923 H 0.83328 0.7339 0.89168 0.0
H924 H 0.87565 0.75712 0.91847 0.0
H925 H 0.73618 0.62236 0.96933 0.0
H926 H 0.75953 0.58809 0.97201 0.0
H927 H 0.7444 0.60108 0.93202 0.0
C928 C 0.42974 0.81609 0.21358 0.0
C929 C 0.42122 0.78407 0.19461 0.0
C930 C 0.44682 0.85103 0.19877 0.0
C931 C 0.45623 0.85433 0.16414 0.0
C932 C 0.44872 0.822 0.14519 0.0
C933 C 0.43126 0.78758 0.16049 0.0
C934 C 0.45397 0.88449 0.22007 0.0
C935 C 0.45876 0.82372 0.10848 0.0
C936 C 0.4691 0.94308 0.11511 0.0
C937 C 0.51094 0.95967 0.11434 0.0
C938 C 0.45085 0.90922 0.13155 0.0
C939 C 0.47488 0.89133 0.14777 0.0
C940 C 0.51714 0.90835 0.14729 0.0
C941 C 0.53446 0.9421 0.13085 0.0
C942 C 0.40575 0.89253 0.13151 0.0
C943 C 0.54427 0.8906 0.16377 0.0
H944 H 0.42164 0.81385 0.23977 0.0
H945 H 0.42496 0.76313 0.14553 0.0
H946 H 0.48608 0.90187 0.21954 0.0
H947 H 0.43654 0.90092 0.2097 0.0
H948 H 0.44529 0.87756 0.24653 0.0
H949 H 0.45168 0.79622 0.09728 0.0
H950 H 0.44177 0.8384 0.09446 0.0
H951 H 0.49111 0.83923 0.1051 0.0
H952 H 0.4506 0.95678 0.10329 0.0
H953 H 0.56682 0.95464 0.1306 0.0
H954 H 0.39496 0.88817 0.15765 0.0
H955 H 0.39606 0.86544 0.11918 0.0
H956 H 0.39118 0.90987 0.11828 0.0
H957 H 0.53692 0.88553 0.19065 0.0
H958 H 0.57647 0.90754 0.16179 0.0
H959 H 0.53943 0.86376 0.15196 0.0
C960 C 0.07205 0.2605 0.69244 0.0
C961 C 0.11296 0.2804 0.68804 0.0
C962 C 0.05357 0.22619 0.67712 0.0
C963 C 0.07613 0.21166 0.6561 0.0
C964 C 0.11749 0.23117 0.65209 0.0
C965 C 0.13544 0.26468 0.66859 0.0
C966 C 1.00964 0.20582 0.68286 0.0
C967 C 0.14263 0.21726 0.62941 0.0
C968 C 0.0388 0.11099 0.63088 0.0
C969 C 0.01976 0.1119 0.60006 0.0
C970 C 0.05637 0.14306 0.64985 0.0
C971 C 0.05628 0.17699 0.63701 0.0
C972 C 0.03807 0.17797 0.60531 0.0
C973 C 0.01937 0.14537 0.5876 0.0
C974 C 0.07439 0.14055 0.68387 0.0
C975 C 0.03865 0.21352 0.58986 0.0
H976 H 0.05408 0.27205 0.70716 0.0
H977 H 0.16732 0.27876 0.66582 0.0
H978 H 0.99242 0.20477 0.65924 0.0
H979 H 1.0049 0.17727 0.69041 0.0
H980 H 0.99729 0.21882 0.70247 0.0
H981 H 0.17438 0.23574 0.62883 0.0
H982 H 0.14186 0.18992 0.63773 0.0
H983 H 0.1301 0.21429 0.6035 0.0
H984 H 0.03886 0.08504 0.6406 0.0
H985 H 1.00497 0.14613 0.56357 0.0
H986 H 0.06011 0.15209 0.70319 0.0
H987 H 0.10683 0.15692 0.68427 0.0
H988 H 0.07067 0.11202 0.69085 0.0
H989 H 0.02221 0.22648 0.60591 0.0
H990 H 0.02487 0.20979 0.56434 0.0
H991 H 0.06998 0.23269 0.58826 0.0
C992 C 0.76402 0.33571 0.39241 0.0
C993 C 0.80509 0.35096 0.40046 0.0
C994 C 0.73596 0.3486 0.40697 0.0
C995 C 0.74889 0.37672 0.43111 0.0
C996 C 0.79011 0.392 0.43984 0.0
C997 C 0.81781 0.37914 0.4242 0.0
C998 C 0.69231 0.33176 0.39672 0.0
C999 C 0.80481 0.42155 0.46601 0.0
C1000 C 0.67668 0.42664 0.4488 0.0
C1001 C 0.65576 0.40704 0.47634 0.0
C1002 C 0.70776 0.41767 0.43426 0.0
C1003 C 0.71871 0.38888 0.44795 0.0
C1004 C 0.69856 0.36971 0.47629 0.0
C1005 C 0.66705 0.37868 0.48984 0.0
C1006 C 0.72813 0.43834 0.40369 0.0
C1007 C 0.70962 0.33907 0.49186 0.0
H1008 H 0.7535 0.31316 0.37495 0.0
H1009 H 0.84941 0.39125 0.43048 0.0
H1010 H 0.67445 0.31769 0.41845 0.0
H1011 H 0.68046 0.35331 0.38851 0.0
H1012 H 0.68758 0.31174 0.37605 0.0
H1013 H 0.83784 0.43076 0.4698 0.0
H1014 H 0.79636 0.44536 0.45865 0.0
H1015 H 0.79026 0.41142 0.49025 0.0
H1016 H 0.66881 0.44905 0.43856 0.0
H1017 H 0.65077 0.3629 0.51073 0.0
H1018 H 0.72241 0.41949 0.38201 0.0
H1019 H 0.76105 0.44958 0.40791 0.0
H1020 H 0.71741 0.46109 0.39705 0.0
H1021 H 0.70207 0.31581 0.47416 0.0
H1022 H 0.6937 0.32926 0.51566 0.0
H1023 H 0.74239 0.34812 0.49693 0.0
loop_
_geom_bond_atom_site_label_1
_geom_bond_atom_site_label_2
_geom_bond_distance
_geom_bond_site_symmetry_2
_ccdc_geom_bond_type
H0 C5 0.930 . S
H1 C8 0.930 . S
H2 C10 0.930 . S
H3 C4 1.016 . S
C4 H3 1.016 . S
C4 N11 1.286 . S
C5 H0 0.930 . S
C5 C6 1.397 . S
C5 C7 1.361 . S
C6 C5 1.397 . S
C6 C10 1.390 . S
C7 C5 1.361 . S
C7 C8 1.393 . S
C7 N11 1.413 . S
C8 H1 0.930 . S
C8 C7 1.393 . S
C8 C9 1.399 . S
C9 C8 1.399 . S
C9 C10 1.381 . S
C10 H2 0.930 . S
C10 C6 1.390 . S
C10 C9 1.381 . S
N11 C4 1.286 . S
N11 C7 1.413 . S
H12 C17 0.930 . S
H13 C20 0.930 . S
H14 C22 0.930 . S
H15 C16 1.016 . S
C16 H15 1.016 . S
C16 N23 1.286 . S
C17 H12 0.930 . S
C17 C18 1.397 . S
C17 C19 1.361 . S
C18 C17 1.397 . S
C18 C22 1.390 . S
C19 C17 1.361 . S
C19 C20 1.393 . S
C19 N23 1.413 . S
C20 H13 0.930 . S
C20 C19 1.393 . S
C20 C21 1.399 . S
C21 C20 1.399 . S
C21 C22 1.381 . S
C22 H14 0.930 . S
C22 C18 1.390 . S
C22 C21 1.381 . S
N23 C16 1.286 . S
N23 C19 1.413 . S
H24 C29 0.930 . S
H25 C32 0.930 . S
H26 C34 0.930 . S
H27 C28 1.016 . S
C28 H27 1.016 . S
C28 N35 1.286 . S
C29 H24 0.930 . S
C29 C30 1.397 . S
C29 C31 1.361 . S
C30 C29 1.397 . S
C30 C34 1.390 . S
C31 C29 1.361 . S
C31 C32 1.393 . S
C31 N35 1.413 . S
C32 H25 0.930 . S
C32 C31 1.393 . S
C32 C33 1.399 . S
C33 C32 1.399 . S
C33 C34 1.381 . S
C34 H26 0.930 . S
C34 C30 1.390 . S
C34 C33 1.381 . S
N35 C28 1.286 . S
N35 C31 1.413 . S
H36 C41 0.930 . S
H37 C44 0.930 . S
H38 C46 0.930 . S
H39 C40 1.016 . S
C40 H39 1.016 . S
C40 N47 1.286 . S
C41 H36 0.930 . S
C41 C42 1.397 . S
C41 C43 1.361 . S
C42 C41 1.397 . S
C42 C46 1.390 . S
C43 C41 1.361 . S
C43 C44 1.393 . S
C43 N47 1.413 . S
C44 H37 0.930 . S
C44 C43 1.393 . S
C44 C45 1.399 . S
C45 C44 1.399 . S
C45 C46 1.381 . S
C46 H38 0.930 . S
C46 C42 1.390 . S
C46 C45 1.381 . S
N47 C40 1.286 . S
N47 C43 1.413 . S
H48 C53 0.930 . S
H49 C56 0.930 . S
H50 C58 0.930 . S
H51 C52 1.016 . S
C52 H51 1.016 . S
C52 N59 1.286 . S
C53 H48 0.930 . S
C53 C54 1.397 . S
C53 C55 1.361 . S
C54 C53 1.397 . S
C54 C58 1.390 . S
C55 C53 1.361 . S
C55 C56 1.393 . S
C55 N59 1.413 . S
C56 H49 0.930 . S
C56 C55 1.393 . S
C56 C57 1.399 . S
C57 C56 1.399 . S
C57 C58 1.381 . S
C58 H50 0.930 . S
C58 C54 1.390 . S
C58 C57 1.381 . S
N59 C52 1.286 . S
N59 C55 1.413 . S
H60 C65 0.930 . S
H61 C68 0.930 . S
H62 C70 0.930 . S
H63 C64 1.016 . S
C64 H63 1.016 . S
C64 N71 1.286 . S
C65 H60 0.930 . S
C65 C66 1.397 . S
C65 C67 1.361 . S
C66 C65 1.397 . S
C66 C70 1.390 . S
C67 C65 1.361 . S
C67 C68 1.393 . S
C67 N71 1.413 . S
C68 H61 0.930 . S
C68 C67 1.393 . S
C68 C69 1.399 . S
C69 C68 1.399 . S
C69 C70 1.381 . S
C70 H62 0.930 . S
C70 C66 1.390 . S
C70 C69 1.381 . S
N71 C64 1.286 . S
N71 C67 1.413 . S
H72 C77 0.930 . S
H73 C80 0.930 . S
H74 C82 0.930 . S
H75 C76 1.016 . S
C76 H75 1.016 . S
C76 N83 1.286 . S
C77 H72 0.930 . S
C77 C78 1.397 . S
C77 C79 1.361 . S
C78 C77 1.397 . S
C78 C82 1.390 . S
C79 C77 1.361 . S
C79 C80 1.393 . S
C79 N83 1.413 . S
C80 H73 0.930 . S
C80 C79 1.393 . S
C80 C81 1.399 . S
C81 C80 1.399 . S
C81 C82 1.381 . S
C82 H74 0.930 . S
C82 C78 1.390 . S
C82 C81 1.381 . S
N83 C76 1.286 . S
N83 C79 1.413 . S
H84 C89 0.930 . S
H85 C92 0.930 . S
H86 C94 0.930 . S
H87 C88 1.016 . S
C88 H87 1.016 . S
C88 N95 1.286 . S
C89 H84 0.930 . S
C89 C90 1.397 . S
C89 C91 1.361 . S
C90 C89 1.397 . S
C90 C94 1.390 . S
C91 C89 1.361 . S
C91 C92 1.393 . S
C91 N95 1.413 . S
C92 H85 0.930 . S
C92 C91 1.393 . S
C92 C93 1.399 . S
C93 C92 1.399 . S
C93 C94 1.381 . S
C94 H86 0.930 . S
C94 C90 1.390 . S
C94 C93 1.381 . S
N95 C88 1.286 . S
N95 C91 1.413 . S
Tb96 C98 2.794 1_545 S
Tb96 O116 2.462 1_545 S
Tb96 O117 2.436 1_545 S
Tb96 O118 2.666 1_655 S
Tb96 O119 2.424 . S
Tb96 O120 2.361 1_545 S
Tb96 O124 2.308 1_545 S
Tb96 O127 2.359 . S
Tb97 C107 2.809 . S
Tb97 O118 2.325 . S
Tb97 O121 2.341 1_545 S
Tb97 O122 2.484 . S
Tb97 O123 2.440 . S
Tb97 O124 2.658 1_445 S
Tb97 O125 2.409 1_545 S
Tb97 O126 2.378 . S
C98 Tb96 2.794 1_565 S
C98 C99 1.514 . S
C98 O116 1.248 . S
C98 O117 1.266 . S
C99 C98 1.514 . S
C99 C100 1.359 . S
C99 C104 1.348 . S
C100 C99 1.359 . S
C100 C101 1.380 . S
C100 H128 0.929 . S
C101 C100 1.380 . S
C101 C102 1.347 . S
C101 H129 0.931 . S
C102 C101 1.347 . S
C102 C103 1.369 . S
C103 C102 1.369 . S
C103 C104 1.408 . S
C103 H130 0.930 . S
C104 C99 1.348 . S
C104 C103 1.408 . S
C104 H131 0.930 . S
C105 O118 1.281 . S
C105 O119 1.254 1_455 S
C106 O120 1.236 1_455 S
C106 O121 1.266 . S
C107 Tb97 2.809 . S
C107 C108 1.514 . S
C107 O122 1.248 . S
C107 O123 1.266 . S
C108 C107 1.514 . S
C108 C109 1.359 . S
C108 C113 1.348 . S
C109 C108 1.359 . S
C109 C110 1.380 . S
C109 H132 0.929 . S
C110 C109 1.380 . S
C110 C111 1.347 . S
C110 H133 0.931 . S
C111 C110 1.347 . S
C111 C112 1.369 . S
C112 C111 1.369 . S
C112 C113 1.408 . S
C112 H134 0.930 . S
C113 C108 1.348 . S
C113 C112 1.408 . S
C113 H135 0.930 . S
C114 O124 1.281 . S
C114 O125 1.254 1_655 S
C115 O126 1.236 1_655 S
C115 O127 1.266 . S
O116 Tb96 2.462 1_565 S
O116 C98 1.248 . S
O117 Tb96 2.436 1_565 S
O117 C98 1.266 . S
O118 Tb96 2.666 1_455 S
O118 Tb97 2.325 . S
O118 C105 1.281 . S
O119 Tb96 2.424 . S
O119 C105 1.254 1_655 S
O120 Tb96 2.361 1_565 S
O120 C106 1.236 1_655 S
O121 Tb97 2.341 1_565 S
O121 C106 1.266 . S
O122 Tb97 2.484 . S
O122 C107 1.248 . S
O123 Tb97 2.440 . S
O123 C107 1.266 . S
O124 Tb96 2.308 1_565 S
O124 Tb97 2.658 1_665 S
O124 C114 1.281 . S
O125 Tb97 2.409 1_565 S
O125 C114 1.254 1_455 S
O126 Tb97 2.378 . S
O126 C115 1.236 1_455 S
O127 Tb96 2.359 . S
O127 C115 1.266 . S
H128 C100 0.929 . S
H129 C101 0.931 . S
H130 C103 0.930 . S
H131 C104 0.930 . S
H132 C109 0.929 . S
H133 C110 0.931 . S
H134 C112 0.930 . S
H135 C113 0.930 . S
Tb136 C138 2.809 . S
Tb136 O156 2.484 . S
Tb136 O157 2.440 . S
Tb136 O158 2.658 1_545 S
Tb136 O159 2.409 1_545 S
Tb136 O160 2.378 . S
Tb136 O164 2.325 1_554 S
Tb136 O167 2.341 1_544 S
Tb137 C147 2.809 1_545 S
Tb137 O158 2.325 1_546 S
Tb137 O161 2.341 1_556 S
Tb137 O162 2.484 1_545 S
Tb137 O163 2.440 1_545 S
Tb137 O164 2.658 . S
Tb137 O165 2.409 . S
Tb137 O166 2.378 1_545 S
C138 Tb136 2.809 . S
C138 C139 1.514 . S
C138 O156 1.248 . S
C138 O157 1.266 . S
C139 C138 1.514 . S
C139 C140 1.359 . S
C139 C144 1.348 . S
C140 C139 1.359 . S
C140 C141 1.380 . S
C140 H168 0.929 . S
C141 C140 1.380 . S
C141 C142 1.347 . S
C141 H169 0.931 . S
C142 C141 1.347 . S
C142 C143 1.369 . S
C143 C142 1.369 . S
C143 C144 1.408 . S
C143 H170 0.930 . S
C144 C139 1.348 . S
C144 C143 1.408 . S
C144 H171 0.930 . S
C145 O158 1.281 . S
C145 O159 1.254 . S
C146 O160 1.236 . S
C146 O161 1.266 . S
C147 Tb137 2.809 1_565 S
C147 C148 1.514 . S
C147 O162 1.248 . S
C147 O163 1.266 . S
C148 C147 1.514 . S
C148 C149 1.359 . S
C148 C153 1.348 . S
C149 C148 1.359 . S
C149 C150 1.380 . S
C149 H172 0.929 . S
C150 C149 1.380 . S
C150 C151 1.347 . S
C150 H173 0.931 . S
C151 C150 1.347 . S
C151 C152 1.369 . S
C152 C151 1.369 . S
C152 C153 1.408 . S
C152 H174 0.930 . S
C153 C148 1.348 . S
C153 C152 1.408 . S
C153 H175 0.930 . S
C154 O164 1.281 . S
C154 O165 1.254 . S
C155 O166 1.236 . S
C155 O167 1.266 . S
O156 Tb136 2.484 . S
O156 C138 1.248 . S
O157 Tb136 2.440 . S
O157 C138 1.266 . S
O158 Tb136 2.658 1_565 S
O158 Tb137 2.325 1_564 S
O158 C145 1.281 . S
O159 Tb136 2.409 1_565 S
O159 C145 1.254 . S
O160 Tb136 2.378 . S
O160 C146 1.236 . S
O161 Tb137 2.341 1_554 S
O161 C146 1.266 . S
O162 Tb137 2.484 1_565 S
O162 C147 1.248 . S
O163 Tb137 2.440 1_565 S
O163 C147 1.266 . S
O164 Tb136 2.325 1_556 S
O164 Tb137 2.658 . S
O164 C154 1.281 . S
O165 Tb137 2.409 . S
O165 C154 1.254 . S
O166 Tb137 2.378 1_565 S
O166 C155 1.236 . S
O167 Tb136 2.341 1_566 S
O167 C155 1.266 . S
H168 C140 0.929 . S
H169 C141 0.931 . S
H170 C143 0.930 . S
H171 C144 0.930 . S
H172 C149 0.929 . S
H173 C150 0.931 . S
H174 C152 0.930 . S
H175 C153 0.930 . S
Tb176 C178 2.809 . S
Tb176 O196 2.484 . S
Tb176 O197 2.440 . S
Tb176 O198 2.658 . S
Tb176 O199 2.409 . S
Tb176 O200 2.378 . S
Tb176 O204 2.325 . S
Tb176 O207 2.341 . S
Tb177 C187 2.809 . S
Tb177 O198 2.325 . S
Tb177 O201 2.341 . S
Tb177 O202 2.484 . S
Tb177 O203 2.440 . S
Tb177 O204 2.658 . S
Tb177 O205 2.409 . S
Tb177 O206 2.378 . S
C178 Tb176 2.809 . S
C178 C179 1.514 . S
C178 O196 1.248 . S
C178 O197 1.266 . S
C179 C178 1.514 . S
C179 C180 1.359 . S
C179 C184 1.348 . S
C180 C179 1.359 . S
C180 C181 1.380 . S
C180 H208 0.929 . S
C181 C180 1.380 . S
C181 C182 1.347 . S
C181 H209 0.931 . S
C182 C181 1.347 . S
C182 C183 1.369 . S
C183 C182 1.369 . S
C183 C184 1.408 . S
C183 H210 0.930 . S
C184 C179 1.348 . S
C184 C183 1.408 . S
C184 H211 0.930 . S
C185 O198 1.281 . S
C185 O199 1.254 . S
C186 O200 1.236 . S
C186 O201 1.266 . S
C187 Tb177 2.809 . S
C187 C188 1.514 . S
C187 O202 1.248 . S
C187 O203 1.266 . S
C188 C187 1.514 . S
C188 C189 1.359 . S
C188 C193 1.348 . S
C189 C188 1.359 . S
C189 C190 1.380 . S
C189 H212 0.929 . S
C190 C189 1.380 . S
C190 C191 1.347 . S
C190 H213 0.931 . S
C191 C190 1.347 . S
C191 C192 1.369 . S
C192 C191 1.369 . S
C192 C193 1.408 . S
C192 H214 0.930 . S
C193 C188 1.348 . S
C193 C192 1.408 . S
C193 H215 0.930 . S
C194 O204 1.281 . S
C194 O205 1.254 . S
C195 O206 1.236 . S
C195 O207 1.266 . S
O196 Tb176 2.484 . S
O196 C178 1.248 . S
O197 Tb176 2.440 . S
O197 C178 1.266 . S
O198 Tb176 2.658 . S
O198 Tb177 2.325 . S
O198 C185 1.281 . S
O199 Tb176 2.409 . S
O199 C185 1.254 . S
O200 Tb176 2.378 . S
O200 C186 1.236 . S
O201 Tb177 2.341 . S
O201 C186 1.266 . S
O202 Tb177 2.484 . S
O202 C187 1.248 . S
O203 Tb177 2.440 . S
O203 C187 1.266 . S
O204 Tb176 2.325 . S
O204 Tb177 2.658 . S
O204 C194 1.281 . S
O205 Tb177 2.409 . S
O205 C194 1.254 . S
O206 Tb177 2.378 . S
O206 C195 1.236 . S
O207 Tb176 2.341 . S
O207 C195 1.266 . S
H208 C180 0.929 . S
H209 C181 0.931 . S
H210 C183 0.930 . S
H211 C184 0.930 . S
H212 C189 0.929 . S
H213 C190 0.931 . S
H214 C192 0.930 . S
H215 C193 0.930 . S
Tb216 C218 2.809 1_455 S
Tb216 O236 2.484 1_455 S
Tb216 O237 2.440 . S
Tb216 O238 2.658 1_556 S
Tb216 O239 2.409 1_556 S
Tb216 O240 2.378 1_456 S
Tb216 O244 2.325 1_455 S
Tb216 O247 2.341 . S
Tb217 C227 2.809 . S
Tb217 O238 2.325 . S
Tb217 O241 2.341 1_455 S
Tb217 O242 2.484 . S
Tb217 O243 2.440 . S
Tb217 O244 2.658 1_454 S
Tb217 O245 2.409 1_454 S
Tb217 O246 2.378 1_554 S
C218 Tb216 2.809 1_655 S
C218 C219 1.514 . S
C218 O236 1.248 . S
C218 O237 1.266 1_655 S
C219 C218 1.514 . S
C219 C220 1.359 . S
C219 C224 1.348 . S
C220 C219 1.359 . S
C220 C221 1.380 . S
C220 H248 0.929 . S
C221 C220 1.380 . S
C221 C222 1.347 . S
C221 H249 0.931 . S
C222 C221 1.347 . S
C222 C223 1.369 . S
C223 C222 1.369 . S
C223 C224 1.408 . S
C223 H250 0.930 . S
C224 C219 1.348 . S
C224 C223 1.408 . S
C224 H251 0.938 . S
C225 O238 1.281 . S
C225 O239 1.254 . S
C226 O240 1.236 . S
C226 O241 1.266 . S
C227 Tb217 2.809 . S
C227 C228 1.514 . S
C227 O242 1.248 . S
C227 O243 1.266 . S
C228 C227 1.514 . S
C228 C229 1.359 . S
C228 C233 1.348 . S
C229 C228 1.359 . S
C229 C230 1.380 . S
C229 H252 0.929 . S
C230 C229 1.380 . S
C230 C231 1.347 . S
C230 H253 0.931 . S
C231 C230 1.347 . S
C231 C232 1.369 . S
C232 C231 1.369 . S
C232 C233 1.408 . S
C232 H254 0.930 . S
C233 C228 1.348 . S
C233 C232 1.408 . S
C233 H255 0.930 . S
C234 O244 1.281 . S
C234 O245 1.254 . S
C235 O246 1.236 . S
C235 O247 1.266 . S
O236 Tb216 2.484 1_655 S
O236 C218 1.248 . S
O237 Tb216 2.440 . S
O237 C218 1.266 1_455 S
O238 Tb216 2.658 1_554 S
O238 Tb217 2.325 . S
O238 C225 1.281 . S
O239 Tb216 2.409 1_554 S
O239 C225 1.254 . S
O240 Tb216 2.378 1_654 S
O240 C226 1.236 . S
O241 Tb217 2.341 1_655 S
O241 C226 1.266 . S
O242 Tb217 2.484 . S
O242 C227 1.248 . S
O243 Tb217 2.440 . S
O243 C227 1.266 . S
O244 Tb216 2.325 1_655 S
O244 Tb217 2.658 1_656 S
O244 C234 1.281 . S
O245 Tb217 2.409 1_656 S
O245 C234 1.254 . S
O246 Tb217 2.378 1_556 S
O246 C235 1.236 . S
O247 Tb216 2.341 . S
O247 C235 1.266 . S
H248 C220 0.929 . S
H249 C221 0.931 . S
H250 C223 0.930 . S
H251 C224 0.938 . S
H252 C229 0.929 . S
H253 C230 0.931 . S
H254 C232 0.930 . S
H255 C233 0.930 . S
C256 C257 1.391 . S
C256 C258 1.394 . S
C256 H272 0.931 . S
C257 C256 1.391 . S
C257 C261 1.376 . S
C258 C256 1.394 . S
C258 C259 1.369 . S
C258 C262 1.531 . S
C259 C258 1.369 . S
C259 C260 1.410 . S
C259 C267 1.503 . S
C260 C259 1.410 . S
C260 C261 1.392 . S
C260 C263 1.511 . S
C261 C257 1.376 . S
C261 C260 1.392 . S
C261 H273 0.929 . S
C262 C258 1.531 . S
C262 H274 0.960 . S
C262 H275 0.962 . S
C262 H276 0.960 . S
C263 C260 1.511 . S
C263 H277 0.961 . S
C263 H278 0.961 . S
C263 H279 0.961 . S
C264 C265 1.370 . S
C264 C266 1.363 . S
C264 H280 0.931 . S
C265 C264 1.370 . S
C265 C269 1.408 . S
C266 C264 1.363 . S
C266 C267 1.370 . S
C266 C270 1.524 . S
C267 C259 1.503 . S
C267 C266 1.370 . S
C267 C268 1.403 . S
C268 C267 1.403 . S
C268 C269 1.404 . S
C268 C271 1.539 . S
C269 C265 1.408 . S
C269 C268 1.404 . S
C269 H281 0.930 . S
C270 C266 1.524 . S
C270 H282 0.956 . S
C270 H283 0.961 . S
C270 H284 0.961 . S
C271 C268 1.539 . S
C271 H285 0.958 . S
C271 H286 0.961 . S
C271 H287 0.960 . S
H272 C256 0.931 . S
H273 C261 0.929 . S
H274 C262 0.960 . S
H275 C262 0.962 . S
H276 C262 0.960 . S
H277 C263 0.961 . S
H278 C263 0.961 . S
H279 C263 0.961 . S
H280 C264 0.931 . S
H281 C269 0.930 . S
H282 C270 0.956 . S
H283 C270 0.961 . S
H284 C270 0.961 . S
H285 C271 0.958 . S
H286 C271 0.961 . S
H287 C271 0.960 . S
C288 C289 1.391 . S
C288 C290 1.394 . S
C288 H304 0.931 . S
C289 C288 1.391 . S
C289 C293 1.376 . S
C290 C288 1.394 . S
C290 C291 1.369 . S
C290 C294 1.531 . S
C291 C290 1.369 . S
C291 C292 1.410 . S
C291 C299 1.503 . S
C292 C291 1.410 . S
C292 C293 1.392 . S
C292 C295 1.511 . S
C293 C289 1.376 . S
C293 C292 1.392 . S
C293 H305 0.929 . S
C294 C290 1.531 . S
C294 H306 0.960 . S
C294 H307 0.962 . S
C294 H308 0.960 . S
C295 C292 1.511 . S
C295 H309 0.961 . S
C295 H310 0.961 . S
C295 H311 0.961 . S
C296 C297 1.370 . S
C296 C298 1.363 . S
C296 H312 0.931 . S
C297 C296 1.370 . S
C297 C301 1.408 . S
C298 C296 1.363 . S
C298 C299 1.370 . S
C298 C302 1.524 . S
C299 C291 1.503 . S
C299 C298 1.370 . S
C299 C300 1.403 . S
C300 C299 1.403 . S
C300 C301 1.404 . S
C300 C303 1.539 . S
C301 C297 1.408 . S
C301 C300 1.404 . S
C301 H313 0.930 . S
C302 C298 1.524 . S
C302 H314 0.956 . S
C302 H315 0.961 . S
C302 H316 0.961 . S
C303 C300 1.539 . S
C303 H317 0.958 . S
C303 H318 0.961 . S
C303 H319 0.960 . S
H304 C288 0.931 . S
H305 C293 0.929 . S
H306 C294 0.960 . S
H307 C294 0.962 . S
H308 C294 0.960 . S
H309 C295 0.961 . S
H310 C295 0.961 . S
H311 C295 0.961 . S
H312 C296 0.931 . S
H313 C301 0.930 . S
H314 C302 0.956 . S
H315 C302 0.961 . S
H316 C302 0.961 . S
H317 C303 0.958 . S
H318 C303 0.961 . S
H319 C303 0.960 . S
C320 C321 1.391 . S
C320 C322 1.394 . S
C320 H336 0.931 . S
C321 C320 1.391 . S
C321 C325 1.376 . S
C322 C320 1.394 . S
C322 C323 1.369 . S
C322 C326 1.531 . S
C323 C322 1.369 . S
C323 C324 1.410 . S
C323 C331 1.503 . S
C324 C323 1.410 . S
C324 C325 1.392 . S
C324 C327 1.511 . S
C325 C321 1.376 . S
C325 C324 1.392 . S
C325 H337 0.929 . S
C326 C322 1.531 . S
C326 H338 0.960 . S
C326 H339 0.962 . S
C326 H340 0.960 . S
C327 C324 1.511 . S
C327 H341 0.961 . S
C327 H342 0.961 . S
C327 H343 0.961 . S
C328 C329 1.370 . S
C328 C330 1.363 . S
C328 H344 0.931 . S
C329 C328 1.370 . S
C329 C333 1.408 . S
C330 C328 1.363 . S
C330 C331 1.370 . S
C330 C334 1.524 . S
C331 C323 1.503 . S
C331 C330 1.370 . S
C331 C332 1.403 . S
C332 C331 1.403 . S
C332 C333 1.404 . S
C332 C335 1.539 . S
C333 C329 1.408 . S
C333 C332 1.404 . S
C333 H345 0.930 . S
C334 C330 1.524 . S
C334 H346 0.956 . S
C334 H347 0.961 . S
C334 H348 0.961 . S
C335 C332 1.539 . S
C335 H349 0.958 . S
C335 H350 0.961 . S
C335 H351 0.960 . S
H336 C320 0.931 . S
H337 C325 0.929 . S
H338 C326 0.960 . S
H339 C326 0.962 . S
H340 C326 0.960 . S
H341 C327 0.961 . S
H342 C327 0.961 . S
H343 C327 0.961 . S
H344 C328 0.931 . S
H345 C333 0.930 . S
H346 C334 0.956 . S
H347 C334 0.961 . S
H348 C334 0.961 . S
H349 C335 0.958 . S
H350 C335 0.961 . S
H351 C335 0.960 . S
C352 C353 1.391 . S
C352 C354 1.394 . S
C352 H368 0.931 . S
C353 C352 1.391 . S
C353 C357 1.376 . S
C354 C352 1.394 . S
C354 C355 1.369 . S
C354 C358 1.531 . S
C355 C354 1.369 . S
C355 C356 1.410 . S
C355 C363 1.503 . S
C356 C355 1.410 . S
C356 C357 1.392 . S
C356 C359 1.511 . S
C357 C353 1.376 . S
C357 C356 1.392 . S
C357 H369 0.929 . S
C358 C354 1.531 . S
C358 H370 0.960 . S
C358 H371 0.962 . S
C358 H372 0.960 . S
C359 C356 1.511 . S
C359 H373 0.961 . S
C359 H374 0.961 . S
C359 H375 0.961 . S
C360 C361 1.370 . S
C360 C362 1.363 . S
C360 H376 0.931 . S
C361 C360 1.370 . S
C361 C365 1.408 . S
C362 C360 1.363 . S
C362 C363 1.370 . S
C362 C366 1.524 . S
C363 C355 1.503 . S
C363 C362 1.370 . S
C363 C364 1.403 . S
C364 C363 1.403 . S
C364 C365 1.404 . S
C364 C367 1.539 . S
C365 C361 1.408 . S
C365 C364 1.404 . S
C365 H377 0.930 . S
C366 C362 1.524 . S
C366 H378 0.956 . S
C366 H379 0.961 . S
C366 H380 0.961 . S
C367 C364 1.539 . S
C367 H381 0.958 1_655 S
C367 H382 0.961 1_655 S
C367 H383 0.960 . S
H368 C352 0.931 . S
H369 C357 0.929 . S
H370 C358 0.960 . S
H371 C358 0.962 . S
H372 C358 0.960 . S
H373 C359 0.961 . S
H374 C359 0.961 . S
H375 C359 0.961 . S
H376 C360 0.931 . S
H377 C365 0.930 . S
H378 C366 0.956 . S
H379 C366 0.961 . S
H380 C366 0.961 . S
H381 C367 0.958 1_455 S
H382 C367 0.961 1_455 S
H383 C367 0.960 . S
C384 C385 1.391 . S
C384 C386 1.394 . S
C384 H400 0.931 . S
C385 C384 1.391 . S
C385 C389 1.376 . S
C386 C384 1.394 . S
C386 C387 1.369 . S
C386 C390 1.531 . S
C387 C386 1.369 . S
C387 C388 1.410 . S
C387 C395 1.503 . S
C388 C387 1.410 . S
C388 C389 1.392 . S
C388 C391 1.511 . S
C389 C385 1.376 . S
C389 C388 1.392 . S
C389 H401 0.929 . S
C390 C386 1.531 . S
C390 H402 0.960 . S
C390 H403 0.962 . S
C390 H404 0.960 . S
C391 C388 1.511 . S
C391 H405 0.961 . S
C391 H406 0.961 . S
C391 H407 0.961 . S
C392 C393 1.370 . S
C392 C394 1.363 . S
C392 H408 0.931 . S
C393 C392 1.370 . S
C393 C397 1.408 . S
C394 C392 1.363 . S
C394 C395 1.370 . S
C394 C398 1.524 . S
C395 C387 1.503 . S
C395 C394 1.370 . S
C395 C396 1.403 . S
C396 C395 1.403 . S
C396 C397 1.404 . S
C396 C399 1.539 . S
C397 C393 1.408 . S
C397 C396 1.404 . S
C397 H409 0.930 . S
C398 C394 1.524 . S
C398 H410 0.956 . S
C398 H411 0.961 . S
C398 H412 0.961 . S
C399 C396 1.539 . S
C399 H413 0.958 . S
C399 H414 0.961 . S
C399 H415 0.960 . S
H400 C384 0.931 . S
H401 C389 0.929 . S
H402 C390 0.960 . S
H403 C390 0.962 . S
H404 C390 0.960 . S
H405 C391 0.961 . S
H406 C391 0.961 . S
H407 C391 0.961 . S
H408 C392 0.931 . S
H409 C397 0.930 . S
H410 C398 0.956 . S
H411 C398 0.961 . S
H412 C398 0.961 . S
H413 C399 0.958 . S
H414 C399 0.961 . S
H415 C399 0.960 . S
C416 C417 1.391 . S
C416 C418 1.394 . S
C416 H432 0.931 . S
C417 C416 1.391 . S
C417 C421 1.376 . S
C418 C416 1.394 . S
C418 C419 1.369 . S
C418 C422 1.531 . S
C419 C418 1.369 . S
C419 C420 1.410 . S
C419 C427 1.503 . S
C420 C419 1.410 . S
C420 C421 1.392 . S
C420 C423 1.511 1_455 S
C421 C417 1.376 . S
C421 C420 1.392 . S
C421 H433 0.929 1_455 S
C422 C418 1.531 . S
C422 H434 0.960 . S
C422 H435 0.962 . S
C422 H436 0.960 . S
C423 C420 1.511 1_655 S
C423 H437 0.961 . S
C423 H438 0.961 . S
C423 H439 0.961 . S
C424 C425 1.370 . S
C424 C426 1.363 . S
C424 H440 0.931 . S
C425 C424 1.370 . S
C425 C429 1.408 . S
C426 C424 1.363 . S
C426 C427 1.370 . S
C426 C430 1.524 . S
C427 C419 1.503 . S
C427 C426 1.370 . S
C427 C428 1.403 . S
C428 C427 1.403 . S
C428 C429 1.404 . S
C428 C431 1.539 . S
C429 C425 1.408 . S
C429 C428 1.404 . S
C429 H441 0.930 . S
C430 C426 1.524 . S
C430 H442 0.956 . S
C430 H443 0.961 . S
C430 H444 0.961 . S
C431 C428 1.539 . S
C431 H445 0.958 . S
C431 H446 0.961 1_455 S
C431 H447 0.960 1_455 S
H432 C416 0.931 . S
H433 C421 0.929 1_655 S
H434 C422 0.960 . S
H435 C422 0.962 . S
H436 C422 0.960 . S
H437 C423 0.961 . S
H438 C423 0.961 . S
H439 C423 0.961 . S
H440 C424 0.931 . S
H441 C429 0.930 . S
H442 C430 0.956 . S
H443 C430 0.961 . S
H444 C430 0.961 . S
H445 C431 0.958 . S
H446 C431 0.961 1_655 S
H447 C431 0.960 1_655 S
C448 C449 1.391 . S
C448 C450 1.394 . S
C448 H464 0.931 . S
C449 C448 1.391 . S
C449 C453 1.376 . S
C450 C448 1.394 . S
C450 C451 1.369 . S
C450 C454 1.531 . S
C451 C450 1.369 . S
C451 C452 1.410 . S
C451 C459 1.503 . S
C452 C451 1.410 . S
C452 C453 1.392 . S
C452 C455 1.511 . S
C453 C449 1.376 . S
C453 C452 1.392 . S
C453 H465 0.929 . S
C454 C450 1.531 . S
C454 H466 0.960 . S
C454 H467 0.962 . S
C454 H468 0.960 . S
C455 C452 1.511 . S
C455 H469 0.961 . S
C455 H470 0.961 . S
C455 H471 0.961 . S
C456 C457 1.370 . S
C456 C458 1.363 . S
C456 H472 0.931 . S
C457 C456 1.370 . S
C457 C461 1.408 . S
C458 C456 1.363 . S
C458 C459 1.370 . S
C458 C462 1.524 . S
C459 C451 1.503 . S
C459 C458 1.370 . S
C459 C460 1.403 . S
C460 C459 1.403 . S
C460 C461 1.404 . S
C460 C463 1.539 . S
C461 C457 1.408 . S
C461 C460 1.404 . S
C461 H473 0.930 . S
C462 C458 1.524 . S
C462 H474 0.956 . S
C462 H475 0.961 . S
C462 H476 0.961 . S
C463 C460 1.539 . S
C463 H477 0.958 . S
C463 H478 0.961 . S
C463 H479 0.960 . S
H464 C448 0.931 . S
H465 C453 0.929 . S
H466 C454 0.960 . S
H467 C454 0.962 . S
H468 C454 0.960 . S
H469 C455 0.961 . S
H470 C455 0.961 . S
H471 C455 0.961 . S
H472 C456 0.931 . S
H473 C461 0.930 . S
H474 C462 0.956 . S
H475 C462 0.961 . S
H476 C462 0.961 . S
H477 C463 0.958 . S
H478 C463 0.961 . S
H479 C463 0.960 . S
C480 C481 1.391 . S
C480 C482 1.394 . S
C480 H496 0.931 . S
C481 C480 1.391 . S
C481 C485 1.376 . S
C482 C480 1.394 . S
C482 C483 1.369 . S
C482 C486 1.531 . S
C483 C482 1.369 . S
C483 C484 1.410 . S
C483 C491 1.503 . S
C484 C483 1.410 . S
C484 C485 1.392 . S
C484 C487 1.511 . S
C485 C481 1.376 . S
C485 C484 1.392 . S
C485 H497 0.929 . S
C486 C482 1.531 . S
C486 H498 0.960 . S
C486 H499 0.962 . S
C486 H500 0.960 . S
C487 C484 1.511 . S
C487 H501 0.961 . S
C487 H502 0.961 . S
C487 H503 0.961 . S
C488 C489 1.370 . S
C488 C490 1.363 . S
C488 H504 0.931 . S
C489 C488 1.370 . S
C489 C493 1.408 . S
C490 C488 1.363 . S
C490 C491 1.370 . S
C490 C494 1.524 . S
C491 C483 1.503 . S
C491 C490 1.370 . S
C491 C492 1.403 . S
C492 C491 1.403 . S
C492 C493 1.404 . S
C492 C495 1.539 . S
C493 C489 1.408 . S
C493 C492 1.404 . S
C493 H505 0.930 . S
C494 C490 1.524 . S
C494 H506 0.956 . S
C494 H507 0.961 . S
C494 H508 0.961 . S
C495 C492 1.539 . S
C495 H509 0.958 . S
C495 H510 0.961 . S
C495 H511 0.960 . S
H496 C480 0.931 . S
H497 C485 0.929 . S
H498 C486 0.960 . S
H499 C486 0.962 . S
H500 C486 0.960 . S
H501 C487 0.961 . S
H502 C487 0.961 . S
H503 C487 0.961 . S
H504 C488 0.931 . S
H505 C493 0.930 . S
H506 C494 0.956 . S
H507 C494 0.961 . S
H508 C494 0.961 . S
H509 C495 0.958 . S
H510 C495 0.961 . S
H511 C495 0.960 . S
C512 C513 1.391 . S
C512 C514 1.394 . S
C512 H528 0.931 . S
C513 C512 1.391 . S
C513 C517 1.376 . S
C514 C512 1.394 . S
C514 C515 1.369 . S
C514 C518 1.531 . S
C515 C514 1.369 . S
C515 C516 1.410 . S
C515 C523 1.503 . S
C516 C515 1.410 . S
C516 C517 1.392 . S
C516 C519 1.511 . S
C517 C513 1.376 . S
C517 C516 1.392 . S
C517 H529 0.929 . S
C518 C514 1.531 . S
C518 H530 0.960 . S
C518 H531 0.962 . S
C518 H532 0.960 . S
C519 C516 1.511 . S
C519 H533 0.961 . S
C519 H534 0.961 . S
C519 H535 0.961 . S
C520 C521 1.370 . S
C520 C522 1.363 . S
C520 H536 0.931 . S
C521 C520 1.370 . S
C521 C525 1.408 . S
C522 C520 1.363 . S
C522 C523 1.370 . S
C522 C526 1.524 . S
C523 C515 1.503 . S
C523 C522 1.370 . S
C523 C524 1.403 . S
C524 C523 1.403 . S
C524 C525 1.404 . S
C524 C527 1.539 . S
C525 C521 1.408 . S
C525 C524 1.404 . S
C525 H537 0.930 . S
C526 C522 1.524 . S
C526 H538 0.956 . S
C526 H539 0.961 . S
C526 H540 0.961 . S
C527 C524 1.539 . S
C527 H541 0.958 . S
C527 H542 0.961 . S
C527 H543 0.960 . S
H528 C512 0.931 . S
H529 C517 0.929 . S
H530 C518 0.960 . S
H531 C518 0.962 . S
H532 C518 0.960 . S
H533 C519 0.961 . S
H534 C519 0.961 . S
H535 C519 0.961 . S
H536 C520 0.931 . S
H537 C525 0.930 . S
H538 C526 0.956 . S
H539 C526 0.961 . S
H540 C526 0.961 . S
H541 C527 0.958 . S
H542 C527 0.961 . S
H543 C527 0.960 . S
C544 C545 1.391 . S
C544 C546 1.394 . S
C544 H560 0.931 . S
C545 C544 1.391 . S
C545 C549 1.376 . S
C546 C544 1.394 . S
C546 C547 1.369 . S
C546 C550 1.531 . S
C547 C546 1.369 . S
C547 C548 1.410 . S
C547 C555 1.503 . S
C548 C547 1.410 . S
C548 C549 1.392 . S
C548 C551 1.511 . S
C549 C545 1.376 . S
C549 C548 1.392 . S
C549 H561 0.929 . S
C550 C546 1.531 . S
C550 H562 0.960 . S
C550 H563 0.962 . S
C550 H564 0.960 . S
C551 C548 1.511 . S
C551 H565 0.961 . S
C551 H566 0.961 . S
C551 H567 0.961 . S
C552 C553 1.370 . S
C552 C554 1.363 . S
C552 H568 0.931 . S
C553 C552 1.370 . S
C553 C557 1.408 . S
C554 C552 1.363 . S
C554 C555 1.370 . S
C554 C558 1.524 . S
C555 C547 1.503 . S
C555 C554 1.370 . S
C555 C556 1.403 . S
C556 C555 1.403 . S
C556 C557 1.404 . S
C556 C559 1.539 . S
C557 C553 1.408 . S
C557 C556 1.404 . S
C557 H569 0.930 . S
C558 C554 1.524 . S
C558 H570 0.956 . S
C558 H571 0.961 . S
C558 H572 0.961 . S
C559 C556 1.539 . S
C559 H573 0.958 . S
C559 H574 0.961 . S
C559 H575 0.960 . S
H560 C544 0.931 . S
H561 C549 0.929 . S
H562 C550 0.960 . S
H563 C550 0.962 . S
H564 C550 0.960 . S
H565 C551 0.961 . S
H566 C551 0.961 . S
H567 C551 0.961 . S
H568 C552 0.931 . S
H569 C557 0.930 . S
H570 C558 0.956 . S
H571 C558 0.961 . S
H572 C558 0.961 . S
H573 C559 0.958 . S
H574 C559 0.961 . S
H575 C559 0.960 . S
C576 C577 1.391 . S
C576 C578 1.394 . S
C576 H592 0.931 . S
C577 C576 1.391 . S
C577 C581 1.376 . S
C578 C576 1.394 . S
C578 C579 1.369 . S
C578 C582 1.531 . S
C579 C578 1.369 . S
C579 C580 1.410 . S
C579 C587 1.503 . S
C580 C579 1.410 . S
C580 C581 1.392 . S
C580 C583 1.511 . S
C581 C577 1.376 . S
C581 C580 1.392 . S
C581 H593 0.929 . S
C582 C578 1.531 . S
C582 H594 0.960 . S
C582 H595 0.962 . S
C582 H596 0.960 . S
C583 C580 1.511 . S
C583 H597 0.961 . S
C583 H598 0.961 . S
C583 H599 0.961 . S
C584 C585 1.370 . S
C584 C586 1.363 . S
C584 H600 0.931 . S
C585 C584 1.370 . S
C585 C589 1.408 . S
C586 C584 1.363 . S
C586 C587 1.370 . S
C586 C590 1.524 . S
C587 C579 1.503 . S
C587 C586 1.370 . S
C587 C588 1.403 . S
C588 C587 1.403 . S
C588 C589 1.404 . S
C588 C591 1.539 . S
C589 C585 1.408 . S
C589 C588 1.404 . S
C589 H601 0.930 . S
C590 C586 1.524 . S
C590 H602 0.956 . S
C590 H603 0.961 . S
C590 H604 0.961 . S
C591 C588 1.539 . S
C591 H605 0.958 . S
C591 H606 0.961 . S
C591 H607 0.960 . S
H592 C576 0.931 . S
H593 C581 0.929 . S
H594 C582 0.960 . S
H595 C582 0.962 . S
H596 C582 0.960 . S
H597 C583 0.961 . S
H598 C583 0.961 . S
H599 C583 0.961 . S
H600 C584 0.931 . S
H601 C589 0.930 . S
H602 C590 0.956 . S
H603 C590 0.961 . S
H604 C590 0.961 . S
H605 C591 0.958 . S
H606 C591 0.961 . S
H607 C591 0.960 . S
C608 C609 1.391 . S
C608 C610 1.394 . S
C608 H624 0.931 . S
C609 C608 1.391 . S
C609 C613 1.376 . S
C610 C608 1.394 . S
C610 C611 1.369 . S
C610 C614 1.531 . S
C611 C610 1.369 . S
C611 C612 1.410 . S
C611 C619 1.503 . S
C612 C611 1.410 . S
C612 C613 1.392 . S
C612 C615 1.511 . S
C613 C609 1.376 . S
C613 C612 1.392 . S
C613 H625 0.929 . S
C614 C610 1.531 . S
C614 H626 0.960 . S
C614 H627 0.962 . S
C614 H628 0.960 . S
C615 C612 1.511 . S
C615 H629 0.961 . S
C615 H630 0.961 . S
C615 H631 0.961 . S
C616 C617 1.370 . S
C616 C618 1.363 . S
C616 H632 0.931 . S
C617 C616 1.370 . S
C617 C621 1.408 . S
C618 C616 1.363 . S
C618 C619 1.370 . S
C618 C622 1.524 . S
C619 C611 1.503 . S
C619 C618 1.370 . S
C619 C620 1.403 . S
C620 C619 1.403 . S
C620 C621 1.404 . S
C620 C623 1.539 . S
C621 C617 1.408 . S
C621 C620 1.404 . S
C621 H633 0.930 . S
C622 C618 1.524 . S
C622 H634 0.956 . S
C622 H635 0.961 . S
C622 H636 0.961 . S
C623 C620 1.539 . S
C623 H637 0.958 . S
C623 H638 0.961 . S
C623 H639 0.960 . S
H624 C608 0.931 . S
H625 C613 0.929 . S
H626 C614 0.960 . S
H627 C614 0.962 . S
H628 C614 0.960 . S
H629 C615 0.961 . S
H630 C615 0.961 . S
H631 C615 0.961 . S
H632 C616 0.931 . S
H633 C621 0.930 . S
H634 C622 0.956 . S
H635 C622 0.961 . S
H636 C622 0.961 . S
H637 C623 0.958 . S
H638 C623 0.961 . S
H639 C623 0.960 . S
C640 C641 1.391 . S
C640 C642 1.394 . S
C640 H656 0.931 . S
C641 C640 1.391 . S
C641 C645 1.376 . S
C642 C640 1.394 . S
C642 C643 1.369 . S
C642 C646 1.531 . S
C643 C642 1.369 . S
C643 C644 1.410 . S
C643 C651 1.503 . S
C644 C643 1.410 . S
C644 C645 1.392 . S
C644 C647 1.511 . S
C645 C641 1.376 . S
C645 C644 1.392 . S
C645 H657 0.929 . S
C646 C642 1.531 . S
C646 H658 0.960 . S
C646 H659 0.962 . S
C646 H660 0.960 . S
C647 C644 1.511 . S
C647 H661 0.961 . S
C647 H662 0.961 . S
C647 H663 0.961 . S
C648 C649 1.370 . S
C648 C650 1.363 . S
C648 H664 0.931 . S
C649 C648 1.370 . S
C649 C653 1.408 . S
C650 C648 1.363 . S
C650 C651 1.370 . S
C650 C654 1.524 . S
C651 C643 1.503 . S
C651 C650 1.370 . S
C651 C652 1.403 . S
C652 C651 1.403 . S
C652 C653 1.404 . S
C652 C655 1.539 . S
C653 C649 1.408 . S
C653 C652 1.404 . S
C653 H665 0.930 . S
C654 C650 1.524 . S
C654 H666 0.956 . S
C654 H667 0.961 . S
C654 H668 0.961 . S
C655 C652 1.539 . S
C655 H669 0.958 . S
C655 H670 0.961 . S
C655 H671 0.960 . S
H656 C640 0.931 . S
H657 C645 0.929 . S
H658 C646 0.960 . S
H659 C646 0.962 . S
H660 C646 0.960 . S
H661 C647 0.961 . S
H662 C647 0.961 . S
H663 C647 0.961 . S
H664 C648 0.931 . S
H665 C653 0.930 . S
H666 C654 0.956 . S
H667 C654 0.961 . S
H668 C654 0.961 . S
H669 C655 0.958 . S
H670 C655 0.961 . S
H671 C655 0.960 . S
C672 C673 1.391 . S
C672 C674 1.394 . S
C672 H688 0.931 . S
C673 C672 1.391 . S
C673 C677 1.376 . S
C674 C672 1.394 . S
C674 C675 1.369 . S
C674 C678 1.531 . S
C675 C674 1.369 . S
C675 C676 1.410 . S
C675 C683 1.503 . S
C676 C675 1.410 . S
C676 C677 1.392 . S
C676 C679 1.511 . S
C677 C673 1.376 . S
C677 C676 1.392 . S
C677 H689 0.929 . S
C678 C674 1.531 . S
C678 H690 0.960 . S
C678 H691 0.962 . S
C678 H692 0.960 . S
C679 C676 1.511 . S
C679 H693 0.961 . S
C679 H694 0.961 . S
C679 H695 0.961 . S
C680 C681 1.370 . S
C680 C682 1.363 . S
C680 H696 0.931 . S
C681 C680 1.370 . S
C681 C685 1.408 . S
C682 C680 1.363 . S
C682 C683 1.370 . S
C682 C686 1.524 . S
C683 C675 1.503 . S
C683 C682 1.370 . S
C683 C684 1.403 . S
C684 C683 1.403 . S
C684 C685 1.404 . S
C684 C687 1.539 . S
C685 C681 1.408 . S
C685 C684 1.404 . S
C685 H697 0.930 . S
C686 C682 1.524 . S
C686 H698 0.956 . S
C686 H699 0.961 . S
C686 H700 0.961 . S
C687 C684 1.539 . S
C687 H701 0.958 . S
C687 H702 0.961 . S
C687 H703 0.960 . S
H688 C672 0.931 . S
H689 C677 0.929 . S
H690 C678 0.960 . S
H691 C678 0.962 . S
H692 C678 0.960 . S
H693 C679 0.961 . S
H694 C679 0.961 . S
H695 C679 0.961 . S
H696 C680 0.931 . S
H697 C685 0.930 . S
H698 C686 0.956 . S
H699 C686 0.961 . S
H700 C686 0.961 . S
H701 C687 0.958 . S
H702 C687 0.961 . S
H703 C687 0.960 . S
C704 C705 1.391 . S
C704 C706 1.394 . S
C704 H720 0.931 . S
C705 C704 1.391 . S
C705 C709 1.376 . S
C706 C704 1.394 . S
C706 C707 1.369 . S
C706 C710 1.531 . S
C707 C706 1.369 . S
C707 C708 1.410 . S
C707 C715 1.503 . S
C708 C707 1.410 . S
C708 C709 1.392 . S
C708 C711 1.511 . S
C709 C705 1.376 . S
C709 C708 1.392 . S
C709 H721 0.929 . S
C710 C706 1.531 . S
C710 H722 0.960 . S
C710 H723 0.962 . S
C710 H724 0.960 . S
C711 C708 1.511 . S
C711 H725 0.961 . S
C711 H726 0.961 . S
C711 H727 0.961 . S
C712 C713 1.370 . S
C712 C714 1.363 . S
C712 H728 0.931 . S
C713 C712 1.370 . S
C713 C717 1.408 . S
C714 C712 1.363 . S
C714 C715 1.370 . S
C714 C718 1.524 . S
C715 C707 1.503 . S
C715 C714 1.370 . S
C715 C716 1.403 . S
C716 C715 1.403 . S
C716 C717 1.404 . S
C716 C719 1.539 . S
C717 C713 1.408 . S
C717 C716 1.404 . S
C717 H729 0.930 . S
C718 C714 1.524 . S
C718 H730 0.956 . S
C718 H731 0.961 . S
C718 H732 0.961 . S
C719 C716 1.539 . S
C719 H733 0.958 . S
C719 H734 0.961 . S
C719 H735 0.960 . S
H720 C704 0.931 . S
H721 C709 0.929 . S
H722 C710 0.960 . S
H723 C710 0.962 . S
H724 C710 0.960 . S
H725 C711 0.961 . S
H726 C711 0.961 . S
H727 C711 0.961 . S
H728 C712 0.931 . S
H729 C717 0.930 . S
H730 C718 0.956 . S
H731 C718 0.961 . S
H732 C718 0.961 . S
H733 C719 0.958 . S
H734 C719 0.961 . S
H735 C719 0.960 . S
C736 C737 1.391 . S
C736 C738 1.394 . S
C736 H752 0.931 . S
C737 C736 1.391 . S
C737 C741 1.376 . S
C738 C736 1.394 . S
C738 C739 1.369 . S
C738 C742 1.531 . S
C739 C738 1.369 . S
C739 C740 1.410 . S
C739 C747 1.503 . S
C740 C739 1.410 . S
C740 C741 1.392 . S
C740 C743 1.511 . S
C741 C737 1.376 . S
C741 C740 1.392 . S
C741 H753 0.929 . S
C742 C738 1.531 . S
C742 H754 0.960 . S
C742 H755 0.962 . S
C742 H756 0.960 . S
C743 C740 1.511 . S
C743 H757 0.961 . S
C743 H758 0.961 . S
C743 H759 0.961 . S
C744 C745 1.370 . S
C744 C746 1.363 . S
C744 H760 0.931 . S
C745 C744 1.370 . S
C745 C749 1.408 . S
C746 C744 1.363 . S
C746 C747 1.370 . S
C746 C750 1.524 . S
C747 C739 1.503 . S
C747 C746 1.370 . S
C747 C748 1.403 . S
C748 C747 1.403 . S
C748 C749 1.404 . S
C748 C751 1.539 . S
C749 C745 1.408 . S
C749 C748 1.404 . S
C749 H761 0.930 . S
C750 C746 1.524 . S
C750 H762 0.956 . S
C750 H763 0.961 . S
C750 H764 0.961 . S
C751 C748 1.539 . S
C751 H765 0.958 . S
C751 H766 0.961 . S
C751 H767 0.960 . S
H752 C736 0.931 . S
H753 C741 0.929 . S
H754 C742 0.960 . S
H755 C742 0.962 . S
H756 C742 0.960 . S
H757 C743 0.961 . S
H758 C743 0.961 . S
H759 C743 0.961 . S
H760 C744 0.931 . S
H761 C749 0.930 . S
H762 C750 0.956 . S
H763 C750 0.961 . S
H764 C750 0.961 . S
H765 C751 0.958 . S
H766 C751 0.961 . S
H767 C751 0.960 . S
C768 C769 1.391 . S
C768 C770 1.394 . S
C768 H784 0.931 . S
C769 C768 1.391 . S
C769 C773 1.376 . S
C770 C768 1.394 . S
C770 C771 1.369 . S
C770 C774 1.531 . S
C771 C770 1.369 . S
C771 C772 1.410 . S
C771 C779 1.503 . S
C772 C771 1.410 . S
C772 C773 1.392 . S
C772 C775 1.511 . S
C773 C769 1.376 . S
C773 C772 1.392 . S
C773 H785 0.929 . S
C774 C770 1.531 . S
C774 H786 0.960 . S
C774 H787 0.962 . S
C774 H788 0.960 . S
C775 C772 1.511 . S
C775 H789 0.961 . S
C775 H790 0.961 . S
C775 H791 0.961 . S
C776 C777 1.370 . S
C776 C778 1.363 . S
C776 H792 0.931 . S
C777 C776 1.370 . S
C777 C781 1.408 . S
C778 C776 1.363 . S
C778 C779 1.370 . S
C778 C782 1.524 . S
C779 C771 1.503 . S
C779 C778 1.370 . S
C779 C780 1.403 . S
C780 C779 1.403 . S
C780 C781 1.404 . S
C780 C783 1.539 . S
C781 C777 1.408 . S
C781 C780 1.404 . S
C781 H793 0.930 . S
C782 C778 1.524 . S
C782 H794 0.956 . S
C782 H795 0.961 . S
C782 H796 0.961 . S
C783 C780 1.539 . S
C783 H797 0.958 . S
C783 H798 0.947 1_556 S
C783 H799 0.960 . S
H784 C768 0.931 . S
H785 C773 0.929 . S
H786 C774 0.960 . S
H787 C774 0.962 . S
H788 C774 0.960 . S
H789 C775 0.961 . S
H790 C775 0.961 . S
H791 C775 0.961 . S
H792 C776 0.931 . S
H793 C781 0.930 . S
H794 C782 0.956 . S
H795 C782 0.961 . S
H796 C782 0.961 . S
H797 C783 0.958 . S
H798 C783 0.947 1_554 S
H799 C783 0.960 . S
C800 C801 1.391 . S
C800 C802 1.394 . S
C800 H816 0.931 . S
C801 C800 1.391 . S
C801 C805 1.376 . S
C802 C800 1.394 . S
C802 C803 1.369 . S
C802 C806 1.531 . S
C803 C802 1.369 . S
C803 C804 1.410 . S
C803 C811 1.503 . S
C804 C803 1.410 . S
C804 C805 1.392 . S
C804 C807 1.511 1_655 S
C805 C801 1.376 . S
C805 C804 1.392 . S
C805 H817 0.929 1_655 S
C806 C802 1.531 . S
C806 H818 0.960 . S
C806 H819 0.962 . S
C806 H820 0.960 . S
C807 C804 1.511 1_455 S
C807 H821 0.961 . S
C807 H822 0.961 . S
C807 H823 0.961 . S
C808 C809 1.370 . S
C808 C810 1.363 . S
C808 H824 0.931 . S
C809 C808 1.370 . S
C809 C813 1.408 . S
C810 C808 1.363 . S
C810 C811 1.370 . S
C810 C814 1.524 . S
C811 C803 1.503 . S
C811 C810 1.370 . S
C811 C812 1.403 . S
C812 C811 1.403 . S
C812 C813 1.404 . S
C812 C815 1.539 . S
C813 C809 1.408 . S
C813 C812 1.404 . S
C813 H825 0.930 . S
C814 C810 1.524 . S
C814 H826 0.956 . S
C814 H827 0.961 . S
C814 H828 0.961 . S
C815 C812 1.539 . S
C815 H829 0.958 . S
C815 H830 0.961 . S
C815 H831 0.960 . S
H816 C800 0.931 . S
H817 C805 0.929 1_455 S
H818 C806 0.960 . S
H819 C806 0.962 . S
H820 C806 0.960 . S
H821 C807 0.961 . S
H822 C807 0.961 . S
H823 C807 0.961 . S
H824 C808 0.931 . S
H825 C813 0.930 . S
H826 C814 0.956 . S
H827 C814 0.961 . S
H828 C814 0.961 . S
H829 C815 0.958 . S
H830 C815 0.961 . S
H831 C815 0.960 . S
C832 C833 1.391 . S
C832 C834 1.394 . S
C832 H848 0.931 . S
C833 C832 1.391 . S
C833 C837 1.376 . S
C834 C832 1.394 . S
C834 C835 1.369 . S
C834 C838 1.531 . S
C835 C834 1.369 . S
C835 C836 1.410 . S
C835 C843 1.503 . S
C836 C835 1.410 . S
C836 C837 1.392 . S
C836 C839 1.511 . S
C837 C833 1.376 . S
C837 C836 1.392 . S
C837 H849 0.929 . S
C838 C834 1.531 . S
C838 H850 0.960 . S
C838 H851 0.962 . S
C838 H852 0.960 . S
C839 C836 1.511 . S
C839 H853 0.961 . S
C839 H854 0.961 . S
C839 H855 0.961 . S
C840 C841 1.370 . S
C840 C842 1.363 . S
C840 H856 0.931 . S
C841 C840 1.370 . S
C841 C845 1.408 . S
C842 C840 1.363 . S
C842 C843 1.370 . S
C842 C846 1.524 . S
C843 C835 1.503 . S
C843 C842 1.370 . S
C843 C844 1.403 . S
C844 C843 1.403 . S
C844 C845 1.404 . S
C844 C847 1.539 . S
C845 C841 1.408 . S
C845 C844 1.404 . S
C845 H857 0.930 . S
C846 C842 1.524 . S
C846 H858 0.956 . S
C846 H859 0.961 . S
C846 H860 0.961 . S
C847 C844 1.539 . S
C847 H861 0.958 . S
C847 H862 0.961 . S
C847 H863 0.960 . S
H848 C832 0.931 . S
H849 C837 0.929 . S
H850 C838 0.960 . S
H851 C838 0.962 . S
H852 C838 0.960 . S
H853 C839 0.961 . S
H854 C839 0.961 . S
H855 C839 0.961 . S
H856 C840 0.931 . S
H857 C845 0.930 . S
H858 C846 0.956 . S
H859 C846 0.961 . S
H860 C846 0.961 . S
H861 C847 0.958 . S
H862 C847 0.961 . S
H863 C847 0.960 . S
C864 C865 1.391 . S
C864 C866 1.394 . S
C864 H880 0.931 . S
C865 C864 1.391 . S
C865 C869 1.376 . S
C866 C864 1.394 . S
C866 C867 1.369 . S
C866 C870 1.531 . S
C867 C866 1.369 . S
C867 C868 1.410 . S
C867 C875 1.503 . S
C868 C867 1.410 . S
C868 C869 1.392 . S
C868 C871 1.511 . S
C869 C865 1.376 . S
C869 C868 1.392 . S
C869 H881 0.929 . S
C870 C866 1.531 . S
C870 H882 0.960 . S
C870 H883 0.962 . S
C870 H884 0.960 . S
C871 C868 1.511 . S
C871 H885 0.961 . S
C871 H886 0.961 . S
C871 H887 0.961 . S
C872 C873 1.370 . S
C872 C874 1.363 . S
C872 H888 0.931 . S
C873 C872 1.370 . S
C873 C877 1.408 . S
C874 C872 1.363 . S
C874 C875 1.370 . S
C874 C878 1.524 . S
C875 C867 1.503 . S
C875 C874 1.370 . S
C875 C876 1.403 . S
C876 C875 1.403 . S
C876 C877 1.404 . S
C876 C879 1.539 . S
C877 C873 1.408 . S
C877 C876 1.404 . S
C877 H889 0.930 . S
C878 C874 1.524 . S
C878 H890 0.956 . S
C878 H891 0.961 . S
C878 H892 0.961 . S
C879 C876 1.539 . S
C879 H893 0.958 . S
C879 H894 0.961 . S
C879 H895 0.960 . S
H880 C864 0.931 . S
H881 C869 0.929 . S
H882 C870 0.960 . S
H883 C870 0.962 . S
H884 C870 0.960 . S
H885 C871 0.961 . S
H886 C871 0.961 . S
H887 C871 0.961 . S
H888 C872 0.931 . S
H889 C877 0.930 . S
H890 C878 0.956 . S
H891 C878 0.961 . S
H892 C878 0.961 . S
H893 C879 0.958 . S
H894 C879 0.961 . S
H895 C879 0.960 . S
C896 C897 1.391 . S
C896 C898 1.394 . S
C896 H912 0.931 . S
C897 C896 1.391 . S
C897 C901 1.376 . S
C898 C896 1.394 . S
C898 C899 1.369 . S
C898 C902 1.531 . S
C899 C898 1.369 . S
C899 C900 1.410 . S
C899 C907 1.503 . S
C900 C899 1.410 . S
C900 C901 1.392 . S
C900 C903 1.511 . S
C901 C897 1.376 . S
C901 C900 1.392 . S
C901 H913 0.929 . S
C902 C898 1.531 . S
C902 H914 0.960 . S
C902 H915 0.962 . S
C902 H916 0.960 . S
C903 C900 1.511 . S
C903 H917 0.961 . S
C903 H918 0.961 . S
C903 H919 0.961 . S
C904 C905 1.370 . S
C904 C906 1.363 . S
C904 H920 0.931 . S
C905 C904 1.370 . S
C905 C909 1.408 . S
C906 C904 1.363 . S
C906 C907 1.370 . S
C906 C910 1.524 . S
C907 C899 1.503 . S
C907 C906 1.370 . S
C907 C908 1.403 . S
C908 C907 1.403 . S
C908 C909 1.404 . S
C908 C911 1.539 . S
C909 C905 1.408 . S
C909 C908 1.404 . S
C909 H921 0.930 . S
C910 C906 1.524 . S
C910 H922 0.956 . S
C910 H923 0.961 . S
C910 H924 0.961 . S
C911 C908 1.539 . S
C911 H925 0.958 . S
C911 H926 0.961 . S
C911 H927 0.960 . S
H912 C896 0.931 . S
H913 C901 0.929 . S
H914 C902 0.960 . S
H915 C902 0.962 . S
H916 C902 0.960 . S
H917 C903 0.961 . S
H918 C903 0.961 . S
H919 C903 0.961 . S
H920 C904 0.931 . S
H921 C909 0.930 . S
H922 C910 0.956 . S
H923 C910 0.961 . S
H924 C910 0.961 . S
H925 C911 0.958 . S
H926 C911 0.961 . S
H927 C911 0.960 . S
C928 C929 1.391 . S
C928 C930 1.394 . S
C928 H944 0.931 . S
C929 C928 1.391 . S
C929 C933 1.376 . S
C930 C928 1.394 . S
C930 C931 1.369 . S
C930 C934 1.531 . S
C931 C930 1.369 . S
C931 C932 1.410 . S
C931 C939 1.503 . S
C932 C931 1.410 . S
C932 C933 1.392 . S
C932 C935 1.511 . S
C933 C929 1.376 . S
C933 C932 1.392 . S
C933 H945 0.929 . S
C934 C930 1.531 . S
C934 H946 0.960 . S
C934 H947 0.962 . S
C934 H948 0.960 . S
C935 C932 1.511 . S
C935 H949 0.961 . S
C935 H950 0.961 . S
C935 H951 0.961 . S
C936 C937 1.370 . S
C936 C938 1.363 . S
C936 H952 0.931 . S
C937 C936 1.370 . S
C937 C941 1.408 . S
C938 C936 1.363 . S
C938 C939 1.370 . S
C938 C942 1.524 . S
C939 C931 1.503 . S
C939 C938 1.370 . S
C939 C940 1.403 . S
C940 C939 1.403 . S
C940 C941 1.404 . S
C940 C943 1.539 . S
C941 C937 1.408 . S
C941 C940 1.404 . S
C941 H953 0.930 . S
C942 C938 1.524 . S
C942 H954 0.956 . S
C942 H955 0.961 . S
C942 H956 0.961 . S
C943 C940 1.539 . S
C943 H957 0.958 . S
C943 H958 0.961 . S
C943 H959 0.960 . S
H944 C928 0.931 . S
H945 C933 0.929 . S
H946 C934 0.960 . S
H947 C934 0.962 . S
H948 C934 0.960 . S
H949 C935 0.961 . S
H950 C935 0.961 . S
H951 C935 0.961 . S
H952 C936 0.931 . S
H953 C941 0.930 . S
H954 C942 0.956 . S
H955 C942 0.961 . S
H956 C942 0.961 . S
H957 C943 0.958 . S
H958 C943 0.961 . S
H959 C943 0.960 . S
C960 C961 1.391 . S
C960 C962 1.394 . S
C960 H976 0.931 . S
C961 C960 1.391 . S
C961 C965 1.376 . S
C962 C960 1.394 . S
C962 C963 1.369 . S
C962 C966 1.531 . S
C963 C962 1.369 . S
C963 C964 1.410 . S
C963 C971 1.503 . S
C964 C963 1.410 . S
C964 C965 1.392 . S
C964 C967 1.511 . S
C965 C961 1.376 . S
C965 C964 1.392 . S
C965 H977 0.929 . S
C966 C962 1.531 . S
C966 H978 0.960 . S
C966 H979 0.962 . S
C966 H980 0.960 . S
C967 C964 1.511 . S
C967 H981 0.961 . S
C967 H982 0.961 . S
C967 H983 0.961 . S
C968 C969 1.370 . S
C968 C970 1.363 . S
C968 H984 0.931 . S
C969 C968 1.370 . S
C969 C973 1.408 . S
C970 C968 1.363 . S
C970 C971 1.370 . S
C970 C974 1.524 . S
C971 C963 1.503 . S
C971 C970 1.370 . S
C971 C972 1.403 . S
C972 C971 1.403 . S
C972 C973 1.404 . S
C972 C975 1.539 . S
C973 C969 1.408 . S
C973 C972 1.404 . S
C973 H985 0.930 . S
C974 C970 1.524 . S
C974 H986 0.956 . S
C974 H987 0.961 . S
C974 H988 0.961 . S
C975 C972 1.539 . S
C975 H989 0.958 . S
C975 H990 0.961 . S
C975 H991 0.960 . S
H976 C960 0.931 . S
H977 C965 0.929 . S
H978 C966 0.960 . S
H979 C966 0.962 . S
H980 C966 0.960 . S
H981 C967 0.961 . S
H982 C967 0.961 . S
H983 C967 0.961 . S
H984 C968 0.931 . S
H985 C973 0.930 . S
H986 C974 0.956 . S
H987 C974 0.961 . S
H988 C974 0.961 . S
H989 C975 0.958 . S
H990 C975 0.961 . S
H991 C975 0.960 . S
C992 C993 1.391 . S
C992 C994 1.394 . S
C992 H1008 0.931 . S
C993 C992 1.391 . S
C993 C997 1.376 . S
C994 C992 1.394 . S
C994 C995 1.369 . S
C994 C998 1.531 . S
C995 C994 1.369 . S
C995 C996 1.410 . S
C995 C1003 1.503 . S
C996 C995 1.410 . S
C996 C997 1.392 . S
C996 C999 1.511 . S
C997 C993 1.376 . S
C997 C996 1.392 . S
C997 H1009 0.929 . S
C998 C994 1.531 . S
C998 H1010 0.960 . S
C998 H1011 0.962 . S
C998 H1012 0.960 . S
C999 C996 1.511 . S
C999 H1013 0.961 . S
C999 H1014 0.961 . S
C999 H1015 0.961 . S
C1000 C1001 1.370 . S
C1000 C1002 1.363 . S
C1000 H1016 0.931 . S
C1001 C1000 1.370 . S
C1001 C1005 1.408 . S
C1002 C1000 1.363 . S
C1002 C1003 1.370 . S
C1002 C1006 1.524 . S
C1003 C995 1.503 . S
C1003 C1002 1.370 . S
C1003 C1004 1.403 . S
C1004 C1003 1.403 . S
C1004 C1005 1.404 . S
C1004 C1007 1.539 . S
C1005 C1001 1.408 . S
C1005 C1004 1.404 . S
C1005 H1017 0.930 . S
C1006 C1002 1.524 . S
C1006 H1018 0.956 . S
C1006 H1019 0.961 . S
C1006 H1020 0.961 . S
C1007 C1004 1.539 . S
C1007 H1021 0.958 . S
C1007 H1022 0.961 . S
C1007 H1023 0.960 . S
H1008 C992 0.931 . S
H1009 C997 0.929 . S
H1010 C998 0.960 . S
H1011 C998 0.962 . S
H1012 C998 0.960 . S
H1013 C999 0.961 . S
H1014 C999 0.961 . S
H1015 C999 0.961 . S
H1016 C1000 0.931 . S
H1017 C1005 0.930 . S
H1018 C1006 0.956 . S
H1019 C1006 0.961 . S
H1020 C1006 0.961 . S
H1021 C1007 0.958 . S
H1022 C1007 0.961 . S
H1023 C1007 0.960 . S
C257 C6 1.226 . S
C265 C111 1.256 . S
C289 C18 1.277 . S
C297 C151 1.303 . S
C329 C185 2.397 . S
C321 C28 2.414 . S
C353 C40 2.046 . S
C361 C226 1.996 . S
C393 C146 1.573 . S
C385 C9 1.547 . S
C425 C106 1.992 . S
C417 C16 1.892 . S
C457 C234 1.588 . S
C449 C30 1.583 . S
C489 C195 1.495 . S
C481 C42 1.497 . S
C513 C4 1.323 . S
C521 C231 1.354 . S
C553 C154 2.198 . S
C545 C33 2.247 . S
C577 C45 2.105 . S
C585 C114 2.075 . S
C609 C21 1.667 . S
C617 C182 1.702 . S
C649 C102 1.290 . S
C641 C57 1.295 . S
C673 C66 1.270 . S
C681 C142 1.279 . S
C705 C76 2.458 . S
C713 C194 2.448 . S
C737 C88 1.957 . S
C745 C235 1.928 . S
C769 C54 1.536 . S
C777 C155 1.577 . S
C809 C115 2.082 . S
C801 C64 2.000 . S
C841 C225 1.499 . S
C833 C78 1.496 . S
C873 C186 1.558 . S
C865 C93 1.560 . S
C897 C52 1.390 . S
C905 C222 1.369 . S
C937 C145 2.175 . S
C929 C81 2.247 . S
C969 C105 2.046 . S
C961 C90 2.079 . S
C993 C69 1.636 . S
C1001 C191 1.716 . S
