# Generated by pormake.
# Topology pyr, (3,6)-cn, num edge types: 1
# Building blocks:
#     Node 0, Type 0, BuildingBlock: KAKCAD_clean_linker_0, # of connection points: 3
#     Node 1, Type 0, BuildingBlock: KAKCAD_clean_linker_0, # of connection points: 3
#     Node 2, Type 0, BuildingBlock: KAKCAD_clean_linker_0, # of connection points: 3
#     Node 3, Type 0, BuildingBlock: KAKCAD_clean_linker_0, # of connection points: 3
#     Node 4, Type 0, BuildingBlock: KAKCAD_clean_linker_0, # of connection points: 3
#     Node 5, Type 0, BuildingBlock: KAKCAD_clean_linker_0, # of connection points: 3
#     Node 6, Type 0, BuildingBlock: KAKCAD_clean_linker_0, # of connection points: 3
#     Node 7, Type 0, BuildingBlock: KAKCAD_clean_linker_0, # of connection points: 3
#     Node 8, Type 1, BuildingBlock: BETFAJ_clean_sbu_0, # of connection points: 6
#     Node 9, Type 1, BuildingBlock: BETFAJ_clean_sbu_0, # of connection points: 6
#     Node 10, Type 1, BuildingBlock: BETFAJ_clean_sbu_0, # of connection points: 6
#     Node 11, Type 1, BuildingBlock: BETFAJ_clean_sbu_0, # of connection points: 6
#     Edge 12, Type (0, 1), BuildingBlock: EZIPEK_clean_linker_0, # of connection points: 2
#     Edge 13, Type (0, 1), BuildingBlock: EZIPEK_clean_linker_0, # of connection points: 2
#     Edge 14, Type (0, 1), BuildingBlock: EZIPEK_clean_linker_0, # of connection points: 2
#     Edge 15, Type (0, 1), BuildingBlock: EZIPEK_clean_linker_0, # of connection points: 2
#     Edge 16, Type (0, 1), BuildingBlock: EZIPEK_clean_linker_0, # of connection points: 2
#     Edge 17, Type (0, 1), BuildingBlock: EZIPEK_clean_linker_0, # of connection points: 2
#     Edge 18, Type (0, 1), BuildingBlock: EZIPEK_clean_linker_0, # of connection points: 2
#     Edge 19, Type (0, 1), BuildingBlock: EZIPEK_clean_linker_0, # of connection points: 2
#     Edge 20, Type (0, 1), BuildingBlock: EZIPEK_clean_linker_0, # of connection points: 2
#     Edge 21, Type (0, 1), BuildingBlock: EZIPEK_clean_linker_0, # of connection points: 2
#     Edge 22, Type (0, 1), BuildingBlock: EZIPEK_clean_linker_0, # of connection points: 2
#     Edge 23, Type (0, 1), BuildingBlock: EZIPEK_clean_linker_0, # of connection points: 2
#     Edge 24, Type (0, 1), BuildingBlock: EZIPEK_clean_linker_0, # of connection points: 2
#     Edge 25, Type (0, 1), BuildingBlock: EZIPEK_clean_linker_0, # of connection points: 2
#     Edge 26, Type (0, 1), BuildingBlock: EZIPEK_clean_linker_0, # of connection points: 2
#     Edge 27, Type (0, 1), BuildingBlock: EZIPEK_clean_linker_0, # of connection points: 2
#     Edge 28, Type (0, 1), BuildingBlock: EZIPEK_clean_linker_0, # of connection points: 2
#     Edge 29, Type (0, 1), BuildingBlock: EZIPEK_clean_linker_0, # of connection points: 2
#     Edge 30, Type (0, 1), BuildingBlock: EZIPEK_clean_linker_0, # of connection points: 2
#     Edge 31, Type (0, 1), BuildingBlock: EZIPEK_clean_linker_0, # of connection points: 2
#     Edge 32, Type (0, 1), BuildingBlock: EZIPEK_clean_linker_0, # of connection points: 2
#     Edge 33, Type (0, 1), BuildingBlock: EZIPEK_clean_linker_0, # of connection points: 2
#     Edge 34, Type (0, 1), BuildingBlock: EZIPEK_clean_linker_0, # of connection points: 2
#     Edge 35, Type (0, 1), BuildingBlock: EZIPEK_clean_linker_0, # of connection points: 2
# Relax obj value: 0.132
# Max RMSD: 0.128
# Mean RMSD: 0.063
data_MOF--net-pyr--node1-BETFAJ_clean_sbu_0--node2-KAKCAD_clean_linker_0--edge1-EZIPEK_clean_linker_0
_symmetry_space_group_name_H-M    P1
_symmetry_Int_Tables_number       1
_symmetry_cell_setting            triclinic
loop_
_symmetry_equiv_pos_as_xyz
'x, y, z'
_cell_length_a     36.528935
_cell_length_b     38.974981
_cell_length_c     35.923721
_cell_angle_alpha  91.798895
_cell_angle_beta   88.716321
_cell_angle_gamma 100.68443
loop_
_atom_site_label
_atom_site_type_symbol
_atom_site_fract_x
_atom_site_fract_y
_atom_site_fract_z
_atom_type_partial_charge
C0 C 0.26415 0.26694 0.32823 0.0
C1 C 0.28144 0.25304 0.35701 0.0
C2 C 0.28532 0.28469 0.2999 0.0
C3 C 0.32442 0.28889 0.29961 0.0
C4 C 0.34197 0.27659 0.32961 0.0
C5 C 0.32052 0.2591 0.35854 0.0
C6 C 0.34515 0.30143 0.26523 0.0
C7 C 0.33385 0.32814 0.24572 0.0
C8 C 0.34051 0.33111 0.20726 0.0
C9 C 0.36282 0.30977 0.18918 0.0
C10 C 0.37687 0.28466 0.20911 0.0
C11 C 0.36823 0.28083 0.24721 0.0
C12 C 0.39357 0.25755 0.18903 0.0
C13 C 0.37296 0.2365 0.16154 0.0
C14 C 0.42839 0.25062 0.19903 0.0
C15 C 0.44267 0.22332 0.1812 0.0
C16 C 0.42175 0.20207 0.15399 0.0
C17 C 0.31762 0.35079 0.18554 0.0
C18 C 0.27917 0.34649 0.19345 0.0
C19 C 0.33288 0.37247 0.15635 0.0
C20 C 0.31001 0.39001 0.13598 0.0
C21 C 0.27172 0.38564 0.14446 0.0
C22 C 0.25655 0.36379 0.1732 0.0
C23 C 0.38678 0.20885 0.14441 0.0
H24 H 0.23402 0.26255 0.32675 0.0
H25 H 0.27077 0.29312 0.27692 0.0
H26 H 0.37202 0.27941 0.32998 0.0
H27 H 0.3342 0.24863 0.38086 0.0
H28 H 0.31599 0.34404 0.25968 0.0
H29 H 0.37581 0.25915 0.26153 0.0
H30 H 0.36687 0.31078 0.15921 0.0
H31 H 0.34573 0.24097 0.15392 0.0
H32 H 0.44449 0.26638 0.22047 0.0
H33 H 0.46984 0.21862 0.1887 0.0
H34 H 0.26631 0.3292 0.215 0.0
H35 H 0.36234 0.37598 0.14953 0.0
H36 H 0.37029 0.19279 0.12342 0.0
H37 H 0.22701 0.35995 0.17983 0.0
H38 H 0.32201 0.40676 0.11365 0.0
C39 C 0.26076 0.84284 0.76081 0.0
C40 C 0.29937 0.85169 0.7656 0.0
C41 C 0.24652 0.83005 0.72622 0.0
C42 C 0.27078 0.82625 0.69598 0.0
C43 C 0.30942 0.83239 0.70208 0.0
C44 C 0.32355 0.84493 0.73663 0.0
C45 C 0.25681 0.8217 0.65723 0.0
C46 C 0.23117 0.84174 0.64571 0.0
C47 C 0.22414 0.84448 0.60777 0.0
C48 C 0.24176 0.82576 0.58113 0.0
C49 C 0.2675 0.80558 0.59207 0.0
C50 C 0.27407 0.80297 0.63025 0.0
C51 C 0.29277 0.79268 0.56428 0.0
C52 C 0.30504 0.76121 0.56997 0.0
C53 C 0.30974 0.81454 0.53577 0.0
C54 C 0.34083 0.8068 0.51615 0.0
C55 C 0.35565 0.77759 0.52547 0.0
C56 C 0.20369 0.87144 0.59574 0.0
C57 C 0.21287 0.90555 0.61093 0.0
C58 C 0.1769 0.86416 0.5677 0.0
C59 C 0.15945 0.89063 0.55527 0.0
C60 C 0.16897 0.92462 0.5705 0.0
C61 C 0.19569 0.93191 0.59837 0.0
C62 C 0.3364 0.75388 0.55091 0.0
H63 H 0.24178 0.84808 0.78296 0.0
H64 H 0.21664 0.82513 0.72253 0.0
H65 H 0.32904 0.83031 0.67945 0.0
H66 H 0.35345 0.85194 0.73989 0.0
H67 H 0.21878 0.85752 0.666 0.0
H68 H 0.29495 0.78857 0.6389 0.0
H69 H 0.2375 0.82894 0.55177 0.0
H70 H 0.29202 0.74348 0.59107 0.0
H71 H 0.30109 0.83907 0.53073 0.0
H72 H 0.35517 0.82509 0.49619 0.0
H73 H 0.23405 0.91209 0.63194 0.0
H74 H 0.16953 0.83808 0.5555 0.0
H75 H 0.34717 0.73082 0.5579 0.0
H76 H 0.20335 0.9581 0.61025 0.0
H77 H 0.13875 0.88473 0.53373 0.0
C78 C 0.78153 0.46641 0.90628 0.0
C79 C 0.80668 0.44723 0.92133 0.0
C80 C 0.7488 0.44958 0.88772 0.0
C81 C 0.7396 0.41274 0.8835 0.0
C82 C 0.76516 0.39373 0.89842 0.0
C83 C 0.79788 0.41056 0.9168 0.0
C84 C 0.70364 0.39409 0.86445 0.0
C85 C 0.68825 0.40869 0.83386 0.0
C86 C 0.65498 0.3917 0.81575 0.0
C87 C 0.63741 0.35824 0.82956 0.0
C88 C 0.65189 0.34228 0.8602 0.0
C89 C 0.68466 0.36129 0.87709 0.0
C90 C 0.63358 0.30613 0.87549 0.0
C91 C 0.59468 0.29302 0.87448 0.0
C92 C 0.65507 0.28439 0.89281 0.0
C93 C 0.63874 0.25227 0.9091 0.0
C94 C 0.59998 0.2396 0.90863 0.0
C95 C 0.63941 0.40916 0.78252 0.0
C96 C 0.6459 0.44605 0.77885 0.0
C97 C 0.61837 0.3897 0.75353 0.0
C98 C 0.60511 0.40609 0.72279 0.0
C99 C 0.61212 0.44284 0.71925 0.0
C100 C 0.63275 0.46233 0.74814 0.0
C101 C 0.57833 0.26059 0.89061 0.0
H102 H 0.78717 0.49464 0.90899 0.0
H103 H 0.7303 0.46562 0.87727 0.0
H104 H 0.76021 0.36553 0.89556 0.0
H105 H 0.81647 0.39475 0.92758 0.0
H106 H 0.70312 0.43319 0.82341 0.0
H107 H 0.69517 0.35085 0.90137 0.0
H108 H 0.61232 0.34453 0.81644 0.0
H109 H 0.57646 0.30819 0.86196 0.0
H110 H 0.68506 0.29199 0.89381 0.0
H111 H 0.65667 0.23719 0.92228 0.0
H112 H 0.66094 0.46288 0.80012 0.0
H113 H 0.61252 0.36148 0.75406 0.0
H114 H 0.54842 0.2521 0.88946 0.0
H115 H 0.63868 0.49056 0.7471 0.0
H116 H 0.58938 0.38982 0.70149 0.0
C117 C 0.89082 0.63413 0.2266 0.0
C118 C 0.92913 0.64025 0.2172 0.0
C119 C 0.87675 0.65111 0.25773 0.0
C120 C 0.90032 0.67483 0.28151 0.0
C121 C 0.93875 0.68117 0.27175 0.0
C122 C 0.95277 0.66439 0.24028 0.0
C123 C 0.8848 0.69203 0.31621 0.0
C124 C 0.85197 0.67475 0.33483 0.0
C125 C 0.83649 0.68963 0.36664 0.0
C126 C 0.85458 0.72282 0.38001 0.0
C127 C 0.88727 0.74144 0.36284 0.0
C128 C 0.90221 0.72546 0.33108 0.0
C129 C 0.90487 0.77755 0.37868 0.0
C130 C 0.88238 0.80102 0.39297 0.0
C131 C 0.94386 0.7885 0.38169 0.0
C132 C 0.95945 0.82095 0.39919 0.0
C133 C 0.93672 0.8439 0.41405 0.0
C134 C 0.80129 0.67082 0.38612 0.0
C135 C 0.77077 0.65227 0.36588 0.0
C136 C 0.79735 0.67209 0.42536 0.0
C137 C 0.76421 0.65599 0.44352 0.0
C138 C 0.73364 0.6381 0.42321 0.0
C139 C 0.73747 0.63637 0.3841 0.0
C140 C 0.89793 0.8334 0.41019 0.0
H141 H 0.87152 0.61604 0.20965 0.0
H142 H 0.84697 0.64565 0.26278 0.0
H143 H 0.95842 0.6987 0.28882 0.0
H144 H 0.9824 0.67003 0.23416 0.0
H145 H 0.83875 0.64891 0.32531 0.0
H146 H 0.92679 0.73967 0.31731 0.0
H147 H 0.84294 0.73438 0.40424 0.0
H148 H 0.85236 0.7944 0.39089 0.0
H149 H 0.9624 0.77151 0.37148 0.0
H150 H 0.98943 0.82795 0.40155 0.0
H151 H 0.7722 0.65077 0.33575 0.0
H152 H 0.82004 0.68553 0.44227 0.0
H153 H 0.87944 0.85024 0.42092 0.0
H154 H 0.71446 0.62295 0.36756 0.0
H155 H 0.76229 0.65786 0.47362 0.0
C156 C 0.74849 0.82677 0.7253 0.0
C157 C 0.78723 0.83526 0.72958 0.0
C158 C 0.72578 0.8119 0.75472 0.0
C159 C 0.74174 0.80507 0.78837 0.0
C160 C 0.78078 0.81154 0.79123 0.0
C161 C 0.80324 0.82647 0.7621 0.0
C162 C 0.71858 0.7959 0.82228 0.0
C163 C 0.72913 0.77312 0.84775 0.0
C164 C 0.71496 0.77163 0.88445 0.0
C165 C 0.68789 0.79164 0.89471 0.0
C166 C 0.67642 0.81403 0.86926 0.0
C167 C 0.69135 0.81553 0.83291 0.0
C168 C 0.65388 0.84008 0.88222 0.0
C169 C 0.62371 0.84622 0.86141 0.0
C170 C 0.66423 0.86067 0.91444 0.0
C171 C 0.64479 0.88688 0.9257 0.0
C172 C 0.61454 0.89276 0.90512 0.0
C173 C 0.73405 0.75485 0.91303 0.0
C174 C 0.74828 0.72439 0.90396 0.0
C175 C 0.74372 0.77244 0.94728 0.0
C176 C 0.76946 0.76158 0.97025 0.0
C177 C 0.78639 0.7334 0.95904 0.0
C178 C 0.77453 0.71396 0.92664 0.0
C179 C 0.60392 0.87224 0.87301 0.0
H180 H 0.73584 0.83352 0.70022 0.0
H181 H 0.6958 0.8071 0.75179 0.0
H182 H 0.79404 0.80731 0.81692 0.0
H183 H 0.83312 0.83301 0.76576 0.0
H184 H 0.75118 0.75905 0.83984 0.0
H185 H 0.68456 0.83464 0.81419 0.0
H186 H 0.67707 0.79118 0.92307 0.0
H187 H 0.61538 0.83078 0.83639 0.0
H188 H 0.68784 0.85695 0.93054 0.0
H189 H 0.65309 0.90241 0.95069 0.0
H190 H 0.74081 0.70982 0.87823 0.0
H191 H 0.7337 0.79615 0.95511 0.0
H192 H 0.58035 0.87637 0.85708 0.0
H193 H 0.78698 0.69178 0.91794 0.0
H194 H 0.77817 0.77664 0.99543 0.0
C195 C 0.57714 0.05777 0.39202 0.0
C196 C 0.60144 0.05348 0.36218 0.0
C197 C 0.59131 0.06606 0.4277 0.0
C198 C 0.62987 0.07018 0.43371 0.0
C199 C 0.65325 0.06229 0.40422 0.0
C200 C 0.6391 0.05397 0.36881 0.0
C201 C 0.64699 0.089 0.46742 0.0
C202 C 0.68009 0.08135 0.48107 0.0
C203 C 0.70311 0.10541 0.50417 0.0
C204 C 0.69146 0.13638 0.51613 0.0
C205 C 0.6577 0.14394 0.50368 0.0
C206 C 0.63526 0.11966 0.48014 0.0
C207 C 0.64861 0.17924 0.50992 0.0
C208 C 0.65269 0.19649 0.545 0.0
C209 C 0.63654 0.19633 0.47986 0.0
C210 C 0.62788 0.22944 0.48485 0.0
C211 C 0.63139 0.24637 0.51985 0.0
C212 C 0.74164 0.10054 0.51036 0.0
C213 C 0.75702 0.10445 0.54604 0.0
C214 C 0.76342 0.09203 0.47985 0.0
C215 C 0.79955 0.08663 0.485 0.0
C216 C 0.81447 0.08955 0.52073 0.0
C217 C 0.79324 0.09876 0.55124 0.0
C218 C 0.6441 0.22994 0.54995 0.0
H219 H 0.54789 0.0573 0.38717 0.0
H220 H 0.57255 0.07152 0.44996 0.0
H221 H 0.68311 0.0656 0.40746 0.0
H222 H 0.65812 0.05067 0.34594 0.0
H223 H 0.68944 0.05774 0.47138 0.0
H224 H 0.61012 0.1262 0.46915 0.0
H225 H 0.71006 0.15581 0.5324 0.0
H226 H 0.66214 0.18399 0.56855 0.0
H227 H 0.63422 0.1843 0.45222 0.0
H228 H 0.61853 0.242 0.46127 0.0
H229 H 0.7408 0.11116 0.56988 0.0
H230 H 0.75248 0.08963 0.45191 0.0
H231 H 0.64719 0.24293 0.5771 0.0
H232 H 0.80458 0.10115 0.579 0.0
H233 H 0.81575 0.07975 0.46121 0.0
C234 C 0.23872 0.64236 0.17543 0.0
C235 C 0.23494 0.6428 0.1364 0.0
C236 C 0.27182 0.65928 0.19324 0.0
C237 C 0.30243 0.67769 0.17278 0.0
C238 C 0.29855 0.67761 0.13361 0.0
C239 C 0.26564 0.6605 0.11586 0.0
C240 C 0.33754 0.69786 0.19178 0.0
C241 C 0.35304 0.68507 0.22347 0.0
C242 C 0.38597 0.70347 0.24107 0.0
C243 C 0.40299 0.73645 0.22563 0.0
C244 C 0.38817 0.75039 0.19381 0.0
C245 C 0.35563 0.73037 0.1778 0.0
C246 C 0.40544 0.78562 0.17627 0.0
C247 C 0.41753 0.81661 0.19768 0.0
C248 C 0.40737 0.78921 0.13703 0.0
C249 C 0.42032 0.82183 0.12012 0.0
C250 C 0.43163 0.85295 0.14142 0.0
C251 C 0.40208 0.68753 0.27501 0.0
C252 C 0.37865 0.66702 0.3013 0.0
C253 C 0.44087 0.69127 0.28125 0.0
C254 C 0.45526 0.67487 0.31137 0.0
C255 C 0.43172 0.65414 0.33736 0.0
C256 C 0.393 0.65104 0.33159 0.0
C257 C 0.42998 0.84947 0.18069 0.0
H258 H 0.2158 0.62908 0.19231 0.0
H259 H 0.273 0.65865 0.22329 0.0
H260 H 0.3212 0.69075 0.11634 0.0
H261 H 0.26404 0.6614 0.08585 0.0
H262 H 0.33989 0.65988 0.23375 0.0
H263 H 0.34345 0.74087 0.1545 0.0
H264 H 0.42782 0.75128 0.2383 0.0
H265 H 0.41638 0.81572 0.22778 0.0
H266 H 0.39883 0.76648 0.119 0.0
H267 H 0.42134 0.82272 0.09001 0.0
H268 H 0.34871 0.6634 0.2988 0.0
H269 H 0.46048 0.70629 0.26221 0.0
H270 H 0.43838 0.87242 0.19846 0.0
H271 H 0.3735 0.63586 0.35063 0.0
H272 H 0.48517 0.67827 0.3142 0.0
C273 C 0.15881 0.26182 0.64737 0.0
C274 C 0.12001 0.24997 0.64635 0.0
C275 C 0.1743 0.29439 0.66408 0.0
C276 C 0.15171 0.31701 0.68016 0.0
C277 C 0.11275 0.30481 0.67966 0.0
C278 C 0.09723 0.27193 0.66314 0.0
C279 C 0.16908 0.35316 0.69611 0.0
C280 C 0.2026 0.37158 0.68016 0.0
C281 C 0.22082 0.40447 0.69429 0.0
C282 C 0.20442 0.41946 0.72552 0.0
C283 C 0.17049 0.40249 0.74223 0.0
C284 C 0.15304 0.36947 0.7269 0.0
C285 C 0.15383 0.4192 0.77602 0.0
C286 C 0.17487 0.4295 0.80832 0.0
C287 C 0.11707 0.42574 0.77622 0.0
C288 C 0.10231 0.44267 0.80709 0.0
C289 C 0.12327 0.45286 0.83958 0.0
C290 C 0.25695 0.42261 0.67592 0.0
C291 C 0.2842 0.40335 0.66321 0.0
C292 C 0.26414 0.45883 0.66938 0.0
C293 C 0.29675 0.47486 0.65001 0.0
C294 C 0.32358 0.45535 0.6369 0.0
C295 C 0.31686 0.4194 0.64427 0.0
C296 C 0.15973 0.44541 0.83961 0.0
H297 H 0.17735 0.24577 0.63501 0.0
H298 H 0.20435 0.30168 0.66442 0.0
H299 H 0.094 0.32098 0.69128 0.0
H300 H 0.06723 0.26381 0.66303 0.0
H301 H 0.21435 0.3606 0.65562 0.0
H302 H 0.12756 0.35604 0.73985 0.0
H303 H 0.21812 0.44449 0.73695 0.0
H304 H 0.20315 0.42489 0.80957 0.0
H305 H 0.0999 0.41846 0.75202 0.0
H306 H 0.07428 0.44788 0.80554 0.0
H307 H 0.28034 0.3756 0.66794 0.0
H308 H 0.24401 0.47471 0.67832 0.0
H309 H 0.17687 0.45239 0.86389 0.0
H310 H 0.33685 0.40352 0.6349 0.0
H311 H 0.30083 0.50255 0.64487 0.0
Sm312 Sm 0.03512 0.06069 0.49614 0.0
Sm313 Sm 0.01977 1.03075 0.56796 0.0
C314 C 0.05022 0.10119 0.4385 0.0
C315 C 0.08483 0.12634 0.43276 0.0
C316 C 0.09044 0.14715 0.40136 0.0
C317 C 0.125 0.16879 0.39524 0.0
C318 C 0.15405 0.16961 0.42045 0.0
C319 C 0.14808 0.14941 0.45228 0.0
C320 C 0.11362 0.12798 0.45846 0.0
C321 C 0.09248 1.03062 0.52158 0.0
C322 C 0.05878 0.11312 0.57094 0.0
C323 C 1.00894 0.98867 0.62494 0.0
C324 C 0.97504 0.96428 0.63512 0.0
C325 C 0.97534 0.93983 0.66276 0.0
C326 C 0.94228 0.91749 0.67271 0.0
C327 C 0.90891 0.91945 0.65493 0.0
C328 C 0.90891 0.94322 0.62651 0.0
C329 C 0.94179 0.96564 0.61679 0.0
C330 C 0.96103 0.05959 0.54539 0.0
C331 C 0.9959 0.97996 0.49199 0.0
O332 O 0.02933 0.10862 0.46658 0.0
O333 O 0.05452 0.06863 0.43763 0.0
O334 O 0.0747 0.04993 0.5404 0.0
O335 O 0.07984 1.02641 0.48809 0.0
O336 O 0.05167 0.11065 0.53487 0.0
O337 O 0.05273 0.08423 0.59041 0.0
O338 O 0.02495 0.98082 0.5938 0.0
O339 O 1.00624 1.02157 0.62771 0.0
O340 O 0.97933 0.0422 0.52428 0.0
O341 O 0.97209 0.06021 0.57928 0.0
O342 O 1.00789 0.98151 0.52673 0.0
O343 O 0.99739 1.00957 0.47452 0.0
H344 H 0.06855 0.14602 0.38126 0.0
H345 H 0.1295 0.18409 0.37033 0.0
H346 H 0.17036 0.14956 0.47172 0.0
H347 H 0.10976 0.11183 0.48276 0.0
H348 H 1.00085 0.93843 0.67696 0.0
H349 H 0.94248 0.89929 0.69486 0.0
H350 H 0.88329 0.94509 0.61273 0.0
H351 H 0.94122 0.98446 0.59534 0.0
Sm352 Sm 0.53847 0.04927 0.04049 0.0
Sm353 Sm 0.48015 0.04284 1.00028 0.0
C354 C 0.59419 0.06944 0.0868 0.0
C355 C 0.59256 0.06778 0.12741 0.0
C356 C 0.62503 0.07385 0.14843 0.0
C357 C 0.62251 0.07052 0.1871 0.0
C358 C 0.58755 0.06087 0.20472 0.0
C359 C 0.55515 0.05491 0.18365 0.0
C360 C 0.55768 0.05846 0.14521 0.0
C361 C 0.4933 0.98603 0.06263 0.0
C362 C 0.4718 0.08998 0.06976 0.0
C363 C 0.42295 1.02447 0.95489 0.0
C364 C 0.40316 0.99385 0.93414 0.0
C365 C 0.42193 0.96794 0.91948 0.0
C366 C 0.40346 0.94145 0.89584 0.0
C367 C 0.3661 0.94058 0.88691 0.0
C368 C 0.34682 0.96527 0.90334 0.0
C369 C 0.36529 0.99179 0.9268 0.0
C370 C 0.52821 0.10654 0.98213 0.0
C371 C 0.54181 0.9991 0.973 0.0
O372 O 0.57516 0.09099 0.0729 0.0
O373 O 0.58848 0.0392 0.06937 0.0
O374 O 0.48127 1.01422 0.05628 0.0
O375 O 0.52857 0.99108 0.05533 0.0
O376 O 0.50755 0.0894 0.07083 0.0
O377 O 0.45109 0.06915 0.0464 0.0
O378 O 0.41949 1.02425 0.99102 0.0
O379 O 0.45674 0.03722 0.94358 0.0
O380 O 0.5382 0.07707 0.9853 0.0
O381 O 0.49324 0.10276 0.99065 0.0
O382 O 0.50581 0.9969 0.97727 0.0
O383 O 0.56385 1.02495 0.98992 0.0
H384 H 0.65212 0.0809 0.13501 0.0
H385 H 0.64772 0.0753 0.20327 0.0
H386 H 0.52803 0.04754 0.19696 0.0
H387 H 0.53244 0.05334 0.12915 0.0
H388 H 0.45114 0.96898 0.92505 0.0
H389 H 0.41872 0.92267 0.88314 0.0
H390 H 0.31804 0.965 0.89647 0.0
H391 H 0.35041 1.01151 0.93802 0.0
Sm392 Sm 0.52363 0.5207 0.50543 0.0
Sm393 Sm 0.53046 0.57897 0.54864 0.0
C394 C 0.53758 0.464 0.46948 0.0
C395 C 0.55261 0.43356 0.481 0.0
C396 C 0.58072 0.43729 0.50778 0.0
C397 C 0.59472 0.4083 0.51879 0.0
C398 C 0.58116 0.37528 0.50279 0.0
C399 C 0.55294 0.37141 0.47625 0.0
C400 C 0.53868 0.40041 0.46548 0.0
C401 C 0.45854 0.51733 0.54871 0.0
C402 C 0.55791 0.51656 0.59149 0.0
C403 C 0.52082 0.63754 0.58373 0.0
C404 C 0.51119 0.67009 0.57097 0.0
C405 C 0.48164 0.68251 0.58892 0.0
C406 C 0.46532 0.70759 0.57229 0.0
C407 C 0.47841 0.72062 0.53755 0.0
C408 C 0.50988 0.71044 0.5209 0.0
C409 C 0.52614 0.68509 0.53752 0.0
C410 C 0.5961 0.57949 0.50699 0.0
C411 C 0.49278 0.58235 0.46374 0.0
O412 O 0.56082 0.49377 0.47042 0.0
O413 O 0.50456 0.46662 0.4825 0.0
O414 O 0.49167 0.52672 0.56028 0.0
O415 O 0.45948 0.51345 0.51262 0.0
O416 O 0.55548 0.50319 0.55694 0.0
O417 O 0.54652 0.54654 0.59751 0.0
O418 O 0.49441 0.61033 0.57935 0.0
O419 O 0.55364 0.63101 0.57444 0.0
O420 O 0.56316 0.57192 0.49471 0.0
O421 O 0.59474 0.58593 0.54257 0.0
O422 O 0.49718 0.59638 0.49797 0.0
O423 O 0.50342 0.55201 0.45763 0.0
H424 H 0.59218 0.46261 0.51998 0.0
H425 H 0.61648 0.41165 0.53931 0.0
H426 H 0.5422 0.34599 0.46373 0.0
H427 H 0.51697 0.39701 0.44491 0.0
H428 H 0.4696 0.67116 0.61459 0.0
H429 H 0.44116 0.7155 0.58559 0.0
H430 H 0.52045 0.72066 0.49428 0.0
H431 H 0.54899 0.67598 0.52325 0.0
Sm432 Sm 0.02005 0.51553 0.04792 0.0
Sm433 Sm 0.02284 0.5754 1.007 0.0
C434 C 0.03753 0.45964 0.07784 0.0
C435 C 0.07407 0.44988 0.08252 0.0
C436 C 0.10378 0.46224 0.05792 0.0
C437 C 0.13905 0.45446 0.06337 0.0
C438 C 0.14504 0.4345 0.09363 0.0
C439 C 0.11544 0.42214 0.11819 0.0
C440 C 0.0801 0.42981 0.11266 0.0
C441 C 0.98181 0.56192 0.08739 0.0
C442 C 0.09515 0.57769 0.05863 0.0
C443 C 1.00786 0.63287 0.97772 0.0
C444 C 0.97602 0.65095 0.98156 0.0
C445 C 0.94032 0.63253 0.98991 0.0
C446 C 0.91087 0.6502 0.9968 0.0
C447 C 0.91629 0.68715 0.99697 0.0
C448 C 0.95201 0.70493 0.98536 0.0
C449 C 0.98152 0.68716 0.97867 0.0
C450 C 0.06164 0.52966 0.96682 0.0
C451 C 0.94702 0.51314 0.99818 0.0
O452 O 0.02665 0.4601 0.04355 0.0
O453 O 0.0316 0.48675 0.09763 0.0
O454 O 1.01255 0.57004 0.06966 0.0
O455 O 0.97053 0.52831 0.08434 0.0
O456 O 0.08121 0.54399 0.06088 0.0
O457 O 0.0764 0.59745 0.04036 0.0
O458 O 0.02723 0.63306 1.00774 0.0
O459 O 1.00191 0.60242 0.96051 0.0
O460 O 0.03129 0.52121 0.98522 0.0
O461 O 0.07174 0.56337 0.96958 0.0
O462 O 0.96078 0.54702 0.99673 0.0
O463 O 0.96604 0.49303 1.01556 0.0
H464 H 0.09978 0.47812 0.03466 0.0
H465 H 0.16168 0.46418 0.04425 0.0
H466 H 0.11977 0.40664 0.14165 0.0
H467 H 0.05761 0.42037 0.13205 0.0
H468 H 0.93503 0.60435 0.99113 0.0
H469 H 0.88373 0.63422 1.00113 0.0
H470 H 0.958 0.73245 0.98027 0.0
H471 H 1.00874 0.70179 0.97113 0.0
C472 C 0.24951 0.19354 0.37453 0.0
C473 C 0.25725 0.22989 0.38308 0.0
C474 C 0.2029 0.22393 0.42523 0.0
C475 C 0.19178 0.18914 0.4115 0.0
N476 N 0.2044 0.13931 0.37543 0.0
N477 N 0.24467 0.27983 0.4185 0.0
C478 C 0.21546 0.17328 0.38736 0.0
C479 C 0.23528 0.24497 0.40969 0.0
N480 N 0.27447 0.17869 0.35358 0.0
N481 N 0.18224 0.23669 0.45275 0.0
H482 H 0.26941 0.29516 0.40893 0.0
H483 H 0.22795 0.29381 0.43433 0.0
H484 H 0.15796 0.222 0.46401 0.0
H485 H 0.19016 0.26085 0.46624 0.0
H486 H 0.27233 0.15193 0.34894 0.0
H487 H 0.29928 0.19299 0.34308 0.0
H488 H 0.21785 0.12722 0.35439 0.0
H489 H 0.18046 0.12321 0.3856 0.0
C490 C 0.32569 0.91042 0.79271 0.0
C491 C 0.3147 0.87398 0.79779 0.0
C492 C 0.33453 0.88136 0.86275 0.0
C493 C 0.34869 0.91717 0.85641 0.0
N494 N 0.36406 0.96458 0.81375 0.0
N495 N 0.31162 0.82363 0.83569 0.0
C496 C 0.34601 0.93138 0.82093 0.0
C497 C 0.31986 0.85907 0.83234 0.0
N498 N 0.31587 0.92516 0.76124 0.0
N499 N 0.33436 0.86899 0.89795 0.0
H500 H 0.30007 0.80678 0.81414 0.0
H501 H 0.31836 0.81075 0.85881 0.0
H502 H 0.34539 0.8846 0.92063 0.0
H503 H 0.32105 0.84408 0.90526 0.0
H504 H 0.31941 0.95203 0.75793 0.0
H505 H 0.30104 0.91075 0.73966 0.0
H506 H 0.36669 0.97486 0.7872 0.0
H507 H 0.37943 0.98095 0.83361 0.0
C508 C 0.56455 0.47535 0.68929 0.0
C509 C 0.59776 0.46095 0.68596 0.0
C510 C 0.60626 0.48466 0.62156 0.0
C511 C 0.57168 0.49697 0.62396 0.0
N512 N 0.51442 0.49655 0.65873 0.0
N513 N 0.64725 0.44797 0.64581 0.0
C514 C 0.55007 0.49039 0.6576 0.0
C515 C 0.61753 0.4644 0.65106 0.0
N516 N 0.54667 0.47497 0.72311 0.0
N517 N 0.62962 0.49395 0.59186 0.0
H518 H 0.6572 0.4344 0.66678 0.0
H519 H 0.66025 0.44552 0.62003 0.0
H520 H 0.62317 0.50933 0.57061 0.0
H521 H 0.65675 0.4893 0.58988 0.0
H522 H 0.52526 0.4887 0.72909 0.0
H523 H 0.55502 0.4629 0.74615 0.0
H524 H 0.49559 0.48896 0.68044 0.0
H525 H 0.50221 0.50601 0.6362 0.0
C526 C 0.96925 0.59778 0.18828 0.0
C527 C 0.9441 0.62129 0.18353 0.0
C528 C 0.94262 0.60478 0.11587 0.0
C529 C 0.96988 0.58349 0.12025 0.0
N530 N 1.01395 0.56489 0.16034 0.0
N531 N 0.91315 0.65205 0.14048 0.0
C532 C 0.98466 0.58168 0.15639 0.0
C533 C 0.93254 0.62604 0.14661 0.0
N534 N 0.97704 0.58924 0.22346 0.0
N535 N 0.92548 0.60408 0.0824 0.0
H536 H 0.90599 0.66855 0.16175 0.0
H537 H 0.90746 0.65955 0.11398 0.0
H538 H 0.93255 0.58956 0.05935 0.0
H539 H 0.90231 0.61549 0.07842 0.0
H540 H 0.99171 0.56953 0.22899 0.0
H541 H 0.96586 0.59953 0.24733 0.0
H542 H 0.02891 0.56596 0.18482 0.0
H543 H 0.02543 0.55232 0.13815 0.0
C544 C 0.44132 0.14301 0.15212 0.0
C545 C 0.43664 0.17363 0.13372 0.0
C546 C 0.44691 0.14579 0.07357 0.0
C547 C 0.45627 0.1169 0.09188 0.0
N548 N 0.4652 0.08883 0.14894 0.0
N549 N 0.4449 0.20735 0.078 0.0
C550 C 0.45464 0.11591 0.13136 0.0
C551 C 0.44256 0.17599 0.09476 0.0
N552 N 0.43136 0.13905 0.18885 0.0
N553 N 0.44071 0.14421 0.03617 0.0
H554 H 0.44281 0.23039 0.09282 0.0
H555 H 0.453 0.21117 0.0502 0.0
H556 H 0.4401 0.12162 1.01994 0.0
H557 H 0.43102 0.16375 1.02229 0.0
H558 H 0.4305 0.11586 0.20275 0.0
H559 H 0.42104 0.15805 0.2048 0.0
H560 H 0.46912 0.08876 0.17757 0.0
H561 H 0.47164 0.067 0.13454 0.0
C562 C 0.16199 0.96914 0.5234 0.0
C563 C 0.15101 0.95308 0.5578 0.0
C564 C 0.11482 0.99821 0.57377 0.0
C565 C 0.11898 1.00981 0.53659 0.0
N566 N 0.15198 1.01077 0.4776 0.0
N567 N 0.11286 0.94931 0.61377 0.0
C568 C 0.14427 0.99654 0.51181 0.0
C569 C 0.12619 0.96672 0.5824 0.0
N570 N 0.19021 0.95905 0.50264 0.0
N571 N 0.10237 1.01806 0.60148 0.0
H572 H 0.1203 0.92584 0.62102 0.0
H573 H 0.09166 0.95644 0.63052 0.0
H574 H 0.09868 0.04341 0.5976 0.0
H575 H 0.10148 1.01156 0.62946 0.0
H576 H 0.20217 0.97188 0.47914 0.0
H577 H 0.20362 0.939 0.51029 0.0
H578 H 0.16557 0.99937 0.45611 0.0
H579 H 0.14469 1.03441 0.47073 0.0
C580 C 0.84484 0.46455 0.98092 0.0
C581 C 0.84227 0.46533 0.94132 0.0
C582 C 0.90763 0.49858 0.93916 0.0
C583 C 0.91047 0.49727 0.97871 0.0
N584 N 0.87983 0.48319 0.03761 0.0
N585 N 0.87306 0.4794 0.88245 0.0
C586 C 0.87854 0.48106 0.99958 0.0
C587 C 0.87413 0.48172 0.9205 0.0
N588 N 0.81497 0.44738 1.00074 0.0
N589 N 0.93707 0.51637 0.91921 0.0
H590 H 0.84938 0.46768 0.86793 0.0
H591 H 0.89605 0.48679 0.86497 0.0
H592 H 0.96269 0.52684 0.93095 0.0
H593 H 0.93586 0.52254 0.89137 0.0
H594 H 0.81548 0.44187 1.02882 0.0
H595 H 0.78948 0.43706 0.98859 0.0
H596 H 0.85714 0.47522 0.05529 0.0
H597 H 0.90346 0.49529 0.05196 0.0
C598 C 0.6715 0.64414 0.45436 0.0
C599 C 0.69734 0.62245 0.44298 0.0
C600 C 0.65677 0.57247 0.4734 0.0
C601 C 0.63025 0.59382 0.48346 0.0
N602 N 0.61071 0.64929 0.48086 0.0
N603 N 0.71256 0.56498 0.43782 0.0
C604 C 0.63723 0.62946 0.47306 0.0
C605 C 0.68926 0.58628 0.45136 0.0
N606 N 0.6802 0.67915 0.44798 0.0
N607 N 0.65147 0.53915 0.48605 0.0
H608 H 0.73707 0.5743 0.42298 0.0
H609 H 0.70664 0.53789 0.4391 0.0
H610 H 0.62783 0.52808 0.50131 0.0
H611 H 0.67128 0.52314 0.48361 0.0
H612 H 0.66529 0.69744 0.45914 0.0
H613 H 0.70382 0.69051 0.43287 0.0
H614 H 0.6113 0.67404 0.47059 0.0
H615 H 0.58659 0.64001 0.49618 0.0
C616 C 0.22443 0.38391 0.09523 0.0
C617 C 0.24628 0.40321 0.12359 0.0
C618 C 0.20764 0.4483 0.12318 0.0
C619 C 0.18228 0.42601 0.09979 0.0
N620 N 0.16594 0.37327 0.06226 0.0
N621 N 0.26029 0.45388 0.16445 0.0
C622 C 0.19081 0.39422 0.08492 0.0
C623 C 0.23876 0.43583 0.13704 0.0
N624 N 0.23592 0.35565 0.07853 0.0
N625 N 0.20177 0.48123 0.13215 0.0
H626 H 0.28418 0.44612 0.17401 0.0
H627 H 0.25377 0.4756 0.17886 0.0
H628 H 0.17885 0.49083 0.12287 0.0
H629 H 0.22092 0.50002 0.1462 0.0
H630 H 0.22312 0.34197 0.05552 0.0
H631 H 0.26045 0.34762 0.08582 0.0
H632 H 0.16819 0.34792 0.05394 0.0
H633 H 0.14175 0.38069 0.05302 0.0
C634 C 0.58538 0.17176 0.91108 0.0
C635 C 0.58243 0.20505 0.92761 0.0
C636 C 0.54977 0.17333 0.98193 0.0
C637 C 0.54982 0.14002 0.96402 0.0
N638 N 0.56301 0.10872 0.90795 0.0
N639 N 0.55818 0.23674 0.97808 0.0
C640 C 0.56675 0.13962 0.92777 0.0
C641 C 0.56346 0.20544 0.96279 0.0
N642 N 0.60608 0.17071 0.87908 0.0
N643 N 0.53805 0.17439 1.0183 0.0
H644 H 0.56954 0.26065 0.96651 0.0
H645 H 0.54056 0.23904 1.00082 0.0
H646 H 0.52888 0.15197 1.03348 0.0
H647 H 0.54062 0.1972 0.03465 0.0
H648 H 0.61355 0.14795 0.86793 0.0
H649 H 0.61796 0.19308 0.86485 0.0
H650 H 0.57069 0.10676 0.88001 0.0
H651 H 0.54913 0.08514 0.91844 0.0
C652 C 0.97538 0.90643 0.41498 0.0
C653 C 0.95303 0.87843 0.43427 0.0
C654 C 0.95623 0.91753 0.49066 0.0
C655 C 0.98135 0.94461 0.47232 0.0
N656 N 0.02181 0.95973 0.4189 0.0
N657 N 0.92924 0.85569 0.49338 0.0
C658 C 0.99275 0.93761 0.43495 0.0
C659 C 0.94555 0.8836 0.47295 0.0
N660 N 0.97923 0.90388 0.37714 0.0
N661 N 0.94094 0.92439 0.52448 0.0
H662 H 0.92154 0.83057 0.48182 0.0
H663 H 0.92679 0.85669 0.52233 0.0
H664 H 0.94707 0.94854 0.53825 0.0
H665 H 0.91938 0.90723 0.53722 0.0
H666 H 0.99158 0.92478 0.36099 0.0
H667 H 0.96698 0.8819 0.36153 0.0
H668 H 0.03386 0.95425 0.39337 0.0
H669 H 0.03676 0.98155 0.43285 0.0
C670 C 0.39651 0.74361 0.4901 0.0
C671 C 0.39341 0.77309 0.51304 0.0
C672 C 0.45775 0.7771 0.53258 0.0
C673 C 0.45647 0.74278 0.51839 0.0
N674 N 0.4276 0.69423 0.47951 0.0
N675 N 0.42213 0.82073 0.55359 0.0
C676 C 0.42726 0.72671 0.49477 0.0
C677 C 0.42484 0.79147 0.53252 0.0
N678 N 0.36912 0.73129 0.46526 0.0
N679 N 0.49006 0.79496 0.54746 0.0
H680 H 0.39881 0.83255 0.5537 0.0
H681 H 0.44243 0.8326 0.57214 0.0
H682 H 0.51415 0.78414 0.54781 0.0
H683 H 0.49397 0.82114 0.55601 0.0
H684 H 0.37054 0.71118 0.44583 0.0
H685 H 0.34638 0.74367 0.46211 0.0
H686 H 0.40527 0.67935 0.4654 0.0
H687 H 0.45018 0.68161 0.482 0.0
C688 C 0.83354 0.84154 0.67668 0.0
C689 C 0.81157 0.85722 0.70276 0.0
C690 C 0.85078 0.91448 0.69388 0.0
C691 C 0.87337 0.89871 0.66846 0.0
N692 N 0.88227 0.84982 0.62887 0.0
N693 N 0.79292 0.90898 0.72942 0.0
C694 C 0.86336 0.86298 0.65756 0.0
C695 C 0.81799 0.89393 0.70886 0.0
N696 N 0.82669 0.80606 0.67144 0.0
N697 N 0.86183 0.94858 0.70535 0.0
H698 H 0.76901 0.89458 0.74161 0.0
H699 H 0.79396 0.93584 0.73173 0.0
H700 H 0.88548 0.96477 0.69475 0.0
H701 H 0.84912 0.96035 0.72722 0.0
H702 H 0.84421 0.79241 0.65625 0.0
H703 H 0.80386 0.79 0.68375 0.0
H704 H 0.87439 0.82479 0.6173 0.0
H705 H 0.90436 0.86502 0.61456 0.0
C706 C 0.58944 0.08682 0.30691 0.0
C707 C 0.58965 0.0541 0.32317 0.0
C708 C 0.58483 1.02495 0.26171 0.0
C709 C 0.5849 0.05773 0.24557 0.0
N710 N 0.57781 0.11787 0.25229 0.0
N711 N 0.57966 0.99142 0.31814 0.0
C712 C 0.584 0.08803 0.26809 0.0
C713 C 0.58466 1.02288 0.30114 0.0
N714 N 0.5967 0.11699 0.32817 0.0
N715 N 0.58626 0.99621 0.23927 0.0
H716 H 0.57942 0.98943 0.34706 0.0
H717 H 0.5727 0.96743 0.30406 0.0
H718 H 0.58529 0.99664 0.21029 0.0
H719 H 0.59039 0.9724 0.24907 0.0
H720 H 0.6017 0.14181 0.31707 0.0
H721 H 0.60025 0.11745 0.3569 0.0
H722 H 0.57276 0.13964 0.2677 0.0
H723 H 0.57448 0.11988 0.22372 0.0
C724 C 0.47091 0.65513 0.39763 0.0
C725 C 0.44723 0.63577 0.37008 0.0
C726 C 0.44927 0.58236 0.4068 0.0
C727 C 0.47646 0.60104 0.43177 0.0
N728 N 0.51866 0.65541 0.4438 0.0
N729 N 0.42058 0.57845 0.34582 0.0
C730 C 0.48859 0.63752 0.42519 0.0
C731 C 0.43831 0.59869 0.3741 0.0
N732 N 0.47564 0.69072 0.39865 0.0
N733 N 0.43225 0.54918 0.41504 0.0
H734 H 0.41315 0.58883 0.3213 0.0
H735 H 0.4168 0.55128 0.34501 0.0
H736 H 0.43795 0.53682 0.43897 0.0
H737 H 0.4096 0.53545 0.40039 0.0
H738 H 0.48918 0.70624 0.42018 0.0
H739 H 0.46266 0.70451 0.38014 0.0
H740 H 0.53153 0.68075 0.43744 0.0
H741 H 0.53326 0.64366 0.46266 0.0
C742 C 0.12703 0.50383 0.88806 0.0
C743 C 0.10743 0.47151 0.87306 0.0
C744 C 0.05553 0.4774 0.91766 0.0
C745 C 0.07719 0.50762 0.93578 0.0
N746 N 0.13946 0.54141 0.94294 0.0
N747 N 0.05652 0.42333 0.88231 0.0
C748 C 0.11465 0.51832 0.92234 0.0
C749 C 0.07275 0.4571 0.8905 0.0
N750 N 0.1568 0.5219 0.86892 0.0
N751 N 0.01808 0.46846 0.92434 0.0
H752 H 0.06866 0.40719 0.86405 0.0
H753 H 0.03333 0.41027 0.89687 0.0
H754 H 1.00302 0.48246 0.94193 0.0
H755 H 1.00097 0.44906 0.90883 0.0
H756 H 0.16984 0.54709 0.87685 0.0
H757 H 0.16565 0.51355 0.84296 0.0
H758 H 0.16773 0.54757 0.936 0.0
H759 H 0.13303 0.55086 0.96923 0.0
C760 C 0.60115 0.95364 0.90578 0.0
C761 C 0.59271 0.91912 0.91897 0.0
C762 C 0.54617 0.93555 0.96282 0.0
C763 C 0.5573 0.9711 0.9525 0.0
N764 N 0.59404 1.01423 0.91341 0.0
N765 N 0.55921 0.87672 0.96066 0.0
C766 C 0.58439 0.98018 0.92364 0.0
C767 C 0.56546 0.90988 0.94734 0.0
N768 N 0.62487 0.96076 0.87584 0.0
N769 N 0.5172 0.92597 0.98741 0.0
H770 H 0.57097 0.85651 0.9486 0.0
H771 H 0.54415 0.86945 0.985 0.0
H772 H 0.50411 0.94338 1.00262 0.0
H773 H 0.50428 0.90019 0.9914 0.0
H774 H 0.62987 0.9844 0.86228 0.0
H775 H 0.63822 0.94207 0.8628 0.0
H776 H 0.6166 1.02369 0.89609 0.0
H777 H 0.57986 1.0337 0.92305 0.0
C778 C 0.88217 0.10952 0.53391 0.0
C779 C 0.85212 0.08185 0.52616 0.0
C780 C 0.8942 0.03964 0.52633 0.0
C781 C 0.9238 0.06708 0.53709 0.0
N782 N 0.94385 0.12678 0.55896 0.0
N783 N 0.82746 1.02013 0.52096 0.0
C784 C 0.91715 0.10164 0.5432 0.0
C785 C 0.85759 0.04677 0.52374 0.0
N786 N 0.87756 0.1434 0.53142 0.0
N787 N 0.90066 1.00659 0.5194 0.0
H788 H 0.80015 1.02425 0.5193 0.0
H789 H 0.82898 0.9939 0.52348 0.0
H790 H 0.92569 0.99896 0.52498 0.0
H791 H 0.88163 0.98689 0.50643 0.0
H792 H 0.89955 0.16463 0.53264 0.0
H793 H 0.85223 0.15021 0.52479 0.0
H794 H 0.9391 0.15132 0.56777 0.0
H795 H 0.96983 0.12217 0.56644 0.0
C796 C 0.19666 0.59323 0.09657 0.0
C797 C 0.19888 0.62548 0.11705 0.0
C798 C 0.13219 0.62387 0.10304 0.0
C799 C 0.13111 0.59385 0.07891 0.0
N800 N 0.16508 0.55247 0.04968 0.0
N801 N 0.16947 0.67406 0.13478 0.0
C802 C 0.16411 0.57913 0.07507 0.0
C803 C 0.16679 0.64144 0.11878 0.0
N804 N 0.2254 0.5754 0.09846 0.0
N805 N 0.09966 0.63456 0.11299 0.0
H806 H 0.19382 0.68755 0.14695 0.0
H807 H 0.14864 0.68892 0.13312 0.0
H808 H 0.07365 0.6217 0.10397 0.0
H809 H 0.09795 0.65375 0.13346 0.0
H810 H 0.22411 0.55 0.08796 0.0
H811 H 0.24949 0.58489 0.11343 0.0
H812 H 0.1892 0.54302 0.04244 0.0
H813 H 0.14245 0.54164 1.03332 0.0
C814 C 0.36401 0.46043 0.57756 0.0
C815 C 0.35821 0.47194 0.61479 0.0
C816 C 0.41765 0.51455 0.60914 0.0
C817 C 0.42502 0.50079 0.57289 0.0
N818 N 0.40959 0.45074 0.53063 0.0
N819 N 0.38438 0.50531 0.66854 0.0
C820 C 0.39935 0.47103 0.55927 0.0
C821 C 0.38642 0.49775 0.63124 0.0
N822 N 0.33551 0.43968 0.55904 0.0
N823 N 0.43978 0.54425 0.6225 0.0
H824 H 0.36251 0.49347 0.68563 0.0
H825 H 0.40601 0.52076 0.68316 0.0
H826 H 0.46348 0.55659 0.60852 0.0
H827 H 0.43315 0.55797 0.64629 0.0
H828 H 0.33708 0.43341 0.53069 0.0
H829 H 0.30908 0.43188 0.57093 0.0
H830 H 0.39302 0.42733 0.52174 0.0
H831 H 0.4366 0.45413 0.51968 0.0
C832 C 0.85385 0.74924 0.9761 0.0
C833 C 0.81896 0.72615 0.97913 0.0
C834 C 0.84833 0.68741 1.01605 0.0
C835 C 0.88361 0.70579 1.00412 0.0
N836 N 0.91339 0.76618 1.00533 0.0
N837 N 0.78157 0.67538 1.00679 0.0
C838 C 0.88507 0.7406 0.99355 0.0
C839 C 0.8156 0.69607 1.00113 0.0
N840 N 0.85789 0.77853 0.9554 0.0
N841 N 0.84642 0.6647 0.04442 0.0
H842 H 0.75689 0.68199 0.99775 0.0
H843 H 0.77814 0.65107 1.01899 0.0
H844 H 0.87041 0.66142 0.05806 0.0
H845 H 0.82153 0.65257 0.05683 0.0
H846 H 0.88388 0.79402 0.9501 0.0
H847 H 0.83603 0.7858 0.94128 0.0
H848 H 0.91403 0.79261 1.00089 0.0
H849 H 0.93295 0.76098 1.02414 0.0
C850 C 0.42342 0.90322 0.09755 0.0
C851 C 0.44592 0.88848 0.12263 0.0
C852 C 0.49429 0.94216 0.11489 0.0
C853 C 0.47428 0.95452 0.08583 0.0
N854 N 0.42049 0.94292 0.04682 0.0
N855 N 0.50701 0.89256 0.14834 0.0
C856 C 0.4389 0.93399 0.07663 0.0
C857 C 0.48244 0.90773 0.12943 0.0
N858 N 0.38661 0.88859 0.09455 0.0
N859 N 0.52412 0.96395 0.13014 0.0
H860 H 0.50038 0.86726 0.15821 0.0
H861 H 0.53514 0.90363 0.15066 0.0
H862 H 0.53252 0.98968 0.12213 0.0
H863 H 0.53751 0.95798 0.15375 0.0
H864 H 0.36777 0.89981 0.07989 0.0
H865 H 0.37412 0.86707 0.1098 0.0
H866 H 0.3969 0.92706 0.03576 0.0
H867 H 0.43053 0.96498 1.03134 0.0
C868 C 0.11205 0.18313 0.63982 0.0
C869 C 0.10366 0.21501 0.6272 0.0
C870 C 0.06346 0.18043 0.57924 0.0
C871 C 0.0749 0.14875 0.58946 0.0
N872 N 0.12058 0.12455 0.62266 0.0
N873 N 0.07797 0.24386 0.57845 0.0
C874 C 0.10202 0.1514 0.61799 0.0
C875 C 0.08121 0.21355 0.59509 0.0
N876 N 0.12908 0.18277 0.67321 0.0
N877 N 0.03463 0.17937 0.55543 0.0
H878 H 0.09085 0.26842 0.58849 0.0
H879 H 0.06574 0.24444 0.5526 0.0
H880 H 0.02053 0.15665 0.54268 0.0
H881 H 0.0223 0.20091 0.55094 0.0
H882 H 0.13253 0.15976 0.68556 0.0
H883 H 0.13622 0.20504 0.6903 0.0
H884 H 0.14275 0.12618 0.64079 0.0
H885 H 0.11754 0.10278 0.60471 0.0
C886 C 0.5865 0.28578 0.53803 0.0
C887 C 0.62199 0.28166 0.52376 0.0
C888 C 0.63248 0.34044 0.49889 0.0
C889 C 0.59695 0.34461 0.5131 0.0
N890 N 0.54447 0.32561 0.55406 0.0
N891 N 0.68255 0.3074 0.49979 0.0
C892 C 0.57536 0.31864 0.53533 0.0
C893 C 0.64629 0.30993 0.50733 0.0
N894 N 0.56274 0.25785 0.55236 0.0
N895 N 0.65207 0.36464 0.47566 0.0
H896 H 0.69334 0.28524 0.50581 0.0
H897 H 0.70267 0.32824 0.491 0.0
H898 H 0.64293 0.38739 0.4687 0.0
H899 H 0.67605 0.36102 0.46105 0.0
H900 H 0.53488 0.25806 0.55898 0.0
H901 H 0.57025 0.23359 0.55561 0.0
H902 H 0.52957 0.30905 0.57355 0.0
H903 H 0.53566 0.34952 0.55261 0.0
loop_
_geom_bond_atom_site_label_1
_geom_bond_atom_site_label_2
_geom_bond_distance
_geom_bond_site_symmetry_2
_ccdc_geom_bond_type
C0 C1 1.386 . S
C0 C2 1.397 . S
C0 H24 0.931 . S
C1 C0 1.386 . S
C1 C5 1.397 . S
C2 C0 1.397 . S
C2 C3 1.384 . S
C2 H25 0.930 . S
C3 C2 1.384 . S
C3 C4 1.377 . S
C3 C6 1.481 . S
C4 C3 1.377 . S
C4 C5 1.389 . S
C4 H26 0.929 . S
C5 C1 1.397 . S
C5 C4 1.389 . S
C5 H27 0.931 . S
C6 C3 1.481 . S
C6 C7 1.387 . S
C6 C11 1.390 . S
C7 C6 1.387 . S
C7 C8 1.401 . S
C7 H28 0.930 . S
C8 C7 1.401 . S
C8 C9 1.376 . S
C8 C17 1.511 . S
C9 C8 1.376 . S
C9 C10 1.392 . S
C9 H30 0.931 . S
C10 C9 1.392 . S
C10 C11 1.361 . S
C10 C12 1.500 . S
C11 C6 1.390 . S
C11 C10 1.361 . S
C11 H29 0.931 . S
C12 C10 1.500 . S
C12 C13 1.371 . S
C12 C14 1.365 . S
C13 C12 1.371 . S
C13 C23 1.386 . S
C13 H31 0.931 . S
C14 C12 1.365 . S
C14 C15 1.409 . S
C14 H32 0.929 . S
C15 C14 1.409 . S
C15 C16 1.380 . S
C15 H33 0.930 . S
C16 C15 1.380 . S
C16 C23 1.357 . S
C17 C8 1.511 . S
C17 C18 1.341 . S
C17 C19 1.371 . S
C18 C17 1.341 . S
C18 C22 1.394 . S
C18 H34 0.930 . S
C19 C17 1.371 . S
C19 C20 1.392 . S
C19 H35 0.931 . S
C20 C19 1.392 . S
C20 C21 1.331 . S
C20 H38 0.932 . S
C21 C20 1.331 . S
C21 C22 1.336 . S
C22 C18 1.394 . S
C22 C21 1.336 . S
C22 H37 0.929 . S
C23 C13 1.386 . S
C23 C16 1.357 . S
C23 H36 0.928 . S
H24 C0 0.931 . S
H25 C2 0.930 . S
H26 C4 0.929 . S
H27 C5 0.931 . S
H28 C7 0.930 . S
H29 C11 0.931 . S
H30 C9 0.931 . S
H31 C13 0.931 . S
H32 C14 0.929 . S
H33 C15 0.930 . S
H34 C18 0.930 . S
H35 C19 0.931 . S
H36 C23 0.928 . S
H37 C22 0.929 . S
H38 C20 0.932 . S
C39 C40 1.386 . S
C39 C41 1.397 . S
C39 H63 0.931 . S
C40 C39 1.386 . S
C40 C44 1.397 . S
C41 C39 1.397 . S
C41 C42 1.384 . S
C41 H64 0.930 . S
C42 C41 1.384 . S
C42 C43 1.377 . S
C42 C45 1.481 . S
C43 C42 1.377 . S
C43 C44 1.389 . S
C43 H65 0.929 . S
C44 C40 1.397 . S
C44 C43 1.389 . S
C44 H66 0.931 . S
C45 C42 1.481 . S
C45 C46 1.387 . S
C45 C50 1.390 . S
C46 C45 1.387 . S
C46 C47 1.401 . S
C46 H67 0.930 . S
C47 C46 1.401 . S
C47 C48 1.376 . S
C47 C56 1.511 . S
C48 C47 1.376 . S
C48 C49 1.392 . S
C48 H69 0.931 . S
C49 C48 1.392 . S
C49 C50 1.361 . S
C49 C51 1.500 . S
C50 C45 1.390 . S
C50 C49 1.361 . S
C50 H68 0.931 . S
C51 C49 1.500 . S
C51 C52 1.371 . S
C51 C53 1.365 . S
C52 C51 1.371 . S
C52 C62 1.386 . S
C52 H70 0.931 . S
C53 C51 1.365 . S
C53 C54 1.409 . S
C53 H71 0.929 . S
C54 C53 1.409 . S
C54 C55 1.380 . S
C54 H72 0.930 . S
C55 C54 1.380 . S
C55 C62 1.357 . S
C56 C47 1.511 . S
C56 C57 1.341 . S
C56 C58 1.371 . S
C57 C56 1.341 . S
C57 C61 1.394 . S
C57 H73 0.930 . S
C58 C56 1.371 . S
C58 C59 1.392 . S
C58 H74 0.931 . S
C59 C58 1.392 . S
C59 C60 1.331 . S
C59 H77 0.932 . S
C60 C59 1.331 . S
C60 C61 1.336 . S
C61 C57 1.394 . S
C61 C60 1.336 . S
C61 H76 0.929 . S
C62 C52 1.386 . S
C62 C55 1.357 . S
C62 H75 0.928 . S
H63 C39 0.931 . S
H64 C41 0.930 . S
H65 C43 0.929 . S
H66 C44 0.931 . S
H67 C46 0.930 . S
H68 C50 0.931 . S
H69 C48 0.931 . S
H70 C52 0.931 . S
H71 C53 0.929 . S
H72 C54 0.930 . S
H73 C57 0.930 . S
H74 C58 0.931 . S
H75 C62 0.928 . S
H76 C61 0.929 . S
H77 C59 0.932 . S
C78 C79 1.386 . S
C78 C80 1.397 . S
C78 H102 0.931 . S
C79 C78 1.386 . S
C79 C83 1.397 . S
C80 C78 1.397 . S
C80 C81 1.384 . S
C80 H103 0.930 . S
C81 C80 1.384 . S
C81 C82 1.377 . S
C81 C84 1.481 . S
C82 C81 1.377 . S
C82 C83 1.389 . S
C82 H104 0.929 . S
C83 C79 1.397 . S
C83 C82 1.389 . S
C83 H105 0.931 . S
C84 C81 1.481 . S
C84 C85 1.387 . S
C84 C89 1.390 . S
C85 C84 1.387 . S
C85 C86 1.401 . S
C85 H106 0.930 . S
C86 C85 1.401 . S
C86 C87 1.376 . S
C86 C95 1.511 . S
C87 C86 1.376 . S
C87 C88 1.392 . S
C87 H108 0.931 . S
C88 C87 1.392 . S
C88 C89 1.361 . S
C88 C90 1.500 . S
C89 C84 1.390 . S
C89 C88 1.361 . S
C89 H107 0.931 . S
C90 C88 1.500 . S
C90 C91 1.371 . S
C90 C92 1.365 . S
C91 C90 1.371 . S
C91 C101 1.386 . S
C91 H109 0.931 . S
C92 C90 1.365 . S
C92 C93 1.409 . S
C92 H110 0.929 . S
C93 C92 1.409 . S
C93 C94 1.380 . S
C93 H111 0.930 . S
C94 C93 1.380 . S
C94 C101 1.357 . S
C95 C86 1.511 . S
C95 C96 1.341 . S
C95 C97 1.371 . S
C96 C95 1.341 . S
C96 C100 1.394 . S
C96 H112 0.930 . S
C97 C95 1.371 . S
C97 C98 1.392 . S
C97 H113 0.931 . S
C98 C97 1.392 . S
C98 C99 1.331 . S
C98 H116 0.932 . S
C99 C98 1.331 . S
C99 C100 1.336 . S
C100 C96 1.394 . S
C100 C99 1.336 . S
C100 H115 0.929 . S
C101 C91 1.386 . S
C101 C94 1.357 . S
C101 H114 0.928 . S
H102 C78 0.931 . S
H103 C80 0.930 . S
H104 C82 0.929 . S
H105 C83 0.931 . S
H106 C85 0.930 . S
H107 C89 0.931 . S
H108 C87 0.931 . S
H109 C91 0.931 . S
H110 C92 0.929 . S
H111 C93 0.930 . S
H112 C96 0.930 . S
H113 C97 0.931 . S
H114 C101 0.928 . S
H115 C100 0.929 . S
H116 C98 0.932 . S
C117 C118 1.386 . S
C117 C119 1.397 . S
C117 H141 0.931 . S
C118 C117 1.386 . S
C118 C122 1.397 . S
C119 C117 1.397 . S
C119 C120 1.384 . S
C119 H142 0.930 . S
C120 C119 1.384 . S
C120 C121 1.377 . S
C120 C123 1.481 . S
C121 C120 1.377 . S
C121 C122 1.389 . S
C121 H143 0.929 . S
C122 C118 1.397 . S
C122 C121 1.389 . S
C122 H144 0.931 . S
C123 C120 1.481 . S
C123 C124 1.387 . S
C123 C128 1.390 . S
C124 C123 1.387 . S
C124 C125 1.401 . S
C124 H145 0.930 . S
C125 C124 1.401 . S
C125 C126 1.376 . S
C125 C134 1.511 . S
C126 C125 1.376 . S
C126 C127 1.392 . S
C126 H147 0.931 . S
C127 C126 1.392 . S
C127 C128 1.361 . S
C127 C129 1.500 . S
C128 C123 1.390 . S
C128 C127 1.361 . S
C128 H146 0.931 . S
C129 C127 1.500 . S
C129 C130 1.371 . S
C129 C131 1.365 . S
C130 C129 1.371 . S
C130 C140 1.386 . S
C130 H148 0.931 . S
C131 C129 1.365 . S
C131 C132 1.409 . S
C131 H149 0.929 . S
C132 C131 1.409 . S
C132 C133 1.380 . S
C132 H150 0.930 . S
C133 C132 1.380 . S
C133 C140 1.357 . S
C134 C125 1.511 . S
C134 C135 1.341 . S
C134 C136 1.371 . S
C135 C134 1.341 . S
C135 C139 1.394 . S
C135 H151 0.930 . S
C136 C134 1.371 . S
C136 C137 1.392 . S
C136 H152 0.931 . S
C137 C136 1.392 . S
C137 C138 1.331 . S
C137 H155 0.932 . S
C138 C137 1.331 . S
C138 C139 1.336 . S
C139 C135 1.394 . S
C139 C138 1.336 . S
C139 H154 0.929 . S
C140 C130 1.386 . S
C140 C133 1.357 . S
C140 H153 0.928 . S
H141 C117 0.931 . S
H142 C119 0.930 . S
H143 C121 0.929 . S
H144 C122 0.931 . S
H145 C124 0.930 . S
H146 C128 0.931 . S
H147 C126 0.931 . S
H148 C130 0.931 . S
H149 C131 0.929 . S
H150 C132 0.930 . S
H151 C135 0.930 . S
H152 C136 0.931 . S
H153 C140 0.928 . S
H154 C139 0.929 . S
H155 C137 0.932 . S
C156 C157 1.386 . S
C156 C158 1.397 . S
C156 H180 0.931 . S
C157 C156 1.386 . S
C157 C161 1.397 . S
C158 C156 1.397 . S
C158 C159 1.384 . S
C158 H181 0.930 . S
C159 C158 1.384 . S
C159 C160 1.377 . S
C159 C162 1.481 . S
C160 C159 1.377 . S
C160 C161 1.389 . S
C160 H182 0.929 . S
C161 C157 1.397 . S
C161 C160 1.389 . S
C161 H183 0.931 . S
C162 C159 1.481 . S
C162 C163 1.387 . S
C162 C167 1.390 . S
C163 C162 1.387 . S
C163 C164 1.401 . S
C163 H184 0.930 . S
C164 C163 1.401 . S
C164 C165 1.376 . S
C164 C173 1.511 . S
C165 C164 1.376 . S
C165 C166 1.392 . S
C165 H186 0.931 . S
C166 C165 1.392 . S
C166 C167 1.361 . S
C166 C168 1.500 . S
C167 C162 1.390 . S
C167 C166 1.361 . S
C167 H185 0.931 . S
C168 C166 1.500 . S
C168 C169 1.371 . S
C168 C170 1.365 . S
C169 C168 1.371 . S
C169 C179 1.386 . S
C169 H187 0.931 . S
C170 C168 1.365 . S
C170 C171 1.409 . S
C170 H188 0.929 . S
C171 C170 1.409 . S
C171 C172 1.380 . S
C171 H189 0.930 . S
C172 C171 1.380 . S
C172 C179 1.357 . S
C173 C164 1.511 . S
C173 C174 1.341 . S
C173 C175 1.371 . S
C174 C173 1.341 . S
C174 C178 1.394 . S
C174 H190 0.930 . S
C175 C173 1.371 . S
C175 C176 1.392 . S
C175 H191 0.931 . S
C176 C175 1.392 . S
C176 C177 1.331 . S
C176 H194 0.932 . S
C177 C176 1.331 . S
C177 C178 1.336 . S
C178 C174 1.394 . S
C178 C177 1.336 . S
C178 H193 0.929 . S
C179 C169 1.386 . S
C179 C172 1.357 . S
C179 H192 0.928 . S
H180 C156 0.931 . S
H181 C158 0.930 . S
H182 C160 0.929 . S
H183 C161 0.931 . S
H184 C163 0.930 . S
H185 C167 0.931 . S
H186 C165 0.931 . S
H187 C169 0.931 . S
H188 C170 0.929 . S
H189 C171 0.930 . S
H190 C174 0.930 . S
H191 C175 0.931 . S
H192 C179 0.928 . S
H193 C178 0.929 . S
H194 C176 0.932 . S
C195 C196 1.386 . S
C195 C197 1.397 . S
C195 H219 0.931 . S
C196 C195 1.386 . S
C196 C200 1.397 . S
C197 C195 1.397 . S
C197 C198 1.384 . S
C197 H220 0.930 . S
C198 C197 1.384 . S
C198 C199 1.377 . S
C198 C201 1.481 . S
C199 C198 1.377 . S
C199 C200 1.389 . S
C199 H221 0.929 . S
C200 C196 1.397 . S
C200 C199 1.389 . S
C200 H222 0.931 . S
C201 C198 1.481 . S
C201 C202 1.387 . S
C201 C206 1.390 . S
C202 C201 1.387 . S
C202 C203 1.401 . S
C202 H223 0.930 . S
C203 C202 1.401 . S
C203 C204 1.376 . S
C203 C212 1.511 . S
C204 C203 1.376 . S
C204 C205 1.392 . S
C204 H225 0.931 . S
C205 C204 1.392 . S
C205 C206 1.361 . S
C205 C207 1.500 . S
C206 C201 1.390 . S
C206 C205 1.361 . S
C206 H224 0.931 . S
C207 C205 1.500 . S
C207 C208 1.371 . S
C207 C209 1.365 . S
C208 C207 1.371 . S
C208 C218 1.386 . S
C208 H226 0.931 . S
C209 C207 1.365 . S
C209 C210 1.409 . S
C209 H227 0.929 . S
C210 C209 1.409 . S
C210 C211 1.380 . S
C210 H228 0.930 . S
C211 C210 1.380 . S
C211 C218 1.357 . S
C212 C203 1.511 . S
C212 C213 1.341 . S
C212 C214 1.371 . S
C213 C212 1.341 . S
C213 C217 1.394 . S
C213 H229 0.930 . S
C214 C212 1.371 . S
C214 C215 1.392 . S
C214 H230 0.931 . S
C215 C214 1.392 . S
C215 C216 1.331 . S
C215 H233 0.932 . S
C216 C215 1.331 . S
C216 C217 1.336 . S
C217 C213 1.394 . S
C217 C216 1.336 . S
C217 H232 0.929 . S
C218 C208 1.386 . S
C218 C211 1.357 . S
C218 H231 0.928 . S
H219 C195 0.931 . S
H220 C197 0.930 . S
H221 C199 0.929 . S
H222 C200 0.931 . S
H223 C202 0.930 . S
H224 C206 0.931 . S
H225 C204 0.931 . S
H226 C208 0.931 . S
H227 C209 0.929 . S
H228 C210 0.930 . S
H229 C213 0.930 . S
H230 C214 0.931 . S
H231 C218 0.928 . S
H232 C217 0.929 . S
H233 C215 0.932 . S
C234 C235 1.386 . S
C234 C236 1.397 . S
C234 H258 0.931 . S
C235 C234 1.386 . S
C235 C239 1.397 . S
C236 C234 1.397 . S
C236 C237 1.384 . S
C236 H259 0.930 . S
C237 C236 1.384 . S
C237 C238 1.377 . S
C237 C240 1.481 . S
C238 C237 1.377 . S
C238 C239 1.389 . S
C238 H260 0.929 . S
C239 C235 1.397 . S
C239 C238 1.389 . S
C239 H261 0.931 . S
C240 C237 1.481 . S
C240 C241 1.387 . S
C240 C245 1.390 . S
C241 C240 1.387 . S
C241 C242 1.401 . S
C241 H262 0.930 . S
C242 C241 1.401 . S
C242 C243 1.376 . S
C242 C251 1.511 . S
C243 C242 1.376 . S
C243 C244 1.392 . S
C243 H264 0.931 . S
C244 C243 1.392 . S
C244 C245 1.361 . S
C244 C246 1.500 . S
C245 C240 1.390 . S
C245 C244 1.361 . S
C245 H263 0.931 . S
C246 C244 1.500 . S
C246 C247 1.371 . S
C246 C248 1.365 . S
C247 C246 1.371 . S
C247 C257 1.386 . S
C247 H265 0.931 . S
C248 C246 1.365 . S
C248 C249 1.409 . S
C248 H266 0.929 . S
C249 C248 1.409 . S
C249 C250 1.380 . S
C249 H267 0.930 . S
C250 C249 1.380 . S
C250 C257 1.357 . S
C251 C242 1.511 . S
C251 C252 1.341 . S
C251 C253 1.371 . S
C252 C251 1.341 . S
C252 C256 1.394 . S
C252 H268 0.930 . S
C253 C251 1.371 . S
C253 C254 1.392 . S
C253 H269 0.931 . S
C254 C253 1.392 . S
C254 C255 1.331 . S
C254 H272 0.932 . S
C255 C254 1.331 . S
C255 C256 1.336 . S
C256 C252 1.394 . S
C256 C255 1.336 . S
C256 H271 0.929 . S
C257 C247 1.386 . S
C257 C250 1.357 . S
C257 H270 0.928 . S
H258 C234 0.931 . S
H259 C236 0.930 . S
H260 C238 0.929 . S
H261 C239 0.931 . S
H262 C241 0.930 . S
H263 C245 0.931 . S
H264 C243 0.931 . S
H265 C247 0.931 . S
H266 C248 0.929 . S
H267 C249 0.930 . S
H268 C252 0.930 . S
H269 C253 0.931 . S
H270 C257 0.928 . S
H271 C256 0.929 . S
H272 C254 0.932 . S
C273 C274 1.386 . S
C273 C275 1.397 . S
C273 H297 0.931 . S
C274 C273 1.386 . S
C274 C278 1.397 . S
C275 C273 1.397 . S
C275 C276 1.384 . S
C275 H298 0.930 . S
C276 C275 1.384 . S
C276 C277 1.377 . S
C276 C279 1.481 . S
C277 C276 1.377 . S
C277 C278 1.389 . S
C277 H299 0.929 . S
C278 C274 1.397 . S
C278 C277 1.389 . S
C278 H300 0.931 . S
C279 C276 1.481 . S
C279 C280 1.387 . S
C279 C284 1.390 . S
C280 C279 1.387 . S
C280 C281 1.401 . S
C280 H301 0.930 . S
C281 C280 1.401 . S
C281 C282 1.376 . S
C281 C290 1.511 . S
C282 C281 1.376 . S
C282 C283 1.392 . S
C282 H303 0.931 . S
C283 C282 1.392 . S
C283 C284 1.361 . S
C283 C285 1.500 . S
C284 C279 1.390 . S
C284 C283 1.361 . S
C284 H302 0.931 . S
C285 C283 1.500 . S
C285 C286 1.371 . S
C285 C287 1.365 . S
C286 C285 1.371 . S
C286 C296 1.386 . S
C286 H304 0.931 . S
C287 C285 1.365 . S
C287 C288 1.409 . S
C287 H305 0.929 . S
C288 C287 1.409 . S
C288 C289 1.380 . S
C288 H306 0.930 . S
C289 C288 1.380 . S
C289 C296 1.357 . S
C290 C281 1.511 . S
C290 C291 1.341 . S
C290 C292 1.371 . S
C291 C290 1.341 . S
C291 C295 1.394 . S
C291 H307 0.930 . S
C292 C290 1.371 . S
C292 C293 1.392 . S
C292 H308 0.931 . S
C293 C292 1.392 . S
C293 C294 1.331 . S
C293 H311 0.932 . S
C294 C293 1.331 . S
C294 C295 1.336 . S
C295 C291 1.394 . S
C295 C294 1.336 . S
C295 H310 0.929 . S
C296 C286 1.386 . S
C296 C289 1.357 . S
C296 H309 0.928 . S
H297 C273 0.931 . S
H298 C275 0.930 . S
H299 C277 0.929 . S
H300 C278 0.931 . S
H301 C280 0.930 . S
H302 C284 0.931 . S
H303 C282 0.931 . S
H304 C286 0.931 . S
H305 C287 0.929 . S
H306 C288 0.930 . S
H307 C291 0.930 . S
H308 C292 0.931 . S
H309 C296 0.928 . S
H310 C295 0.929 . S
H311 C293 0.932 . S
Sm312 C314 2.846 . S
Sm312 O332 2.543 . S
Sm312 O333 2.450 . S
Sm312 O334 2.681 1_545 S
Sm312 O335 2.464 1_545 S
Sm312 O336 2.396 . S
Sm312 O340 2.386 1_455 S
Sm312 O343 2.408 1_445 S
Sm313 C323 2.846 . S
Sm313 O334 2.386 1_655 S
Sm313 O337 2.408 1_665 S
Sm313 O338 2.543 . S
Sm313 O339 2.450 . S
Sm313 O340 2.681 1_565 S
Sm313 O341 2.464 1_565 S
Sm313 O342 2.396 . S
C314 Sm312 2.846 . S
C314 C315 1.506 . S
C314 O332 1.261 . S
C314 O333 1.242 . S
C315 C314 1.506 . S
C315 C316 1.358 . S
C315 C320 1.382 . S
C316 C315 1.358 . S
C316 C317 1.385 . S
C316 H344 0.930 . S
C317 C316 1.385 . S
C317 C318 1.395 . S
C317 H345 0.929 . S
C318 C317 1.395 . S
C318 C319 1.335 . S
C319 C318 1.335 . S
C319 C320 1.398 . S
C319 H346 0.930 . S
C320 C315 1.382 . S
C320 C319 1.398 . S
C320 H347 0.929 . S
C321 O334 1.271 . S
C321 O335 1.251 . S
C322 O336 1.252 . S
C322 O337 1.272 . S
C323 Sm313 2.846 . S
C323 C324 1.506 . S
C323 O338 1.261 . S
C323 O339 1.242 . S
C324 C323 1.506 . S
C324 C325 1.358 . S
C324 C329 1.382 . S
C325 C324 1.358 . S
C325 C326 1.385 . S
C325 H348 0.930 . S
C326 C325 1.385 . S
C326 C327 1.395 . S
C326 H349 0.929 . S
C327 C326 1.395 . S
C327 C328 1.335 . S
C328 C327 1.335 . S
C328 C329 1.398 . S
C328 H350 0.930 . S
C329 C324 1.382 . S
C329 C328 1.398 . S
C329 H351 0.929 . S
C330 O340 1.271 . S
C330 O341 1.251 . S
C331 O342 1.252 . S
C331 O343 1.272 . S
O332 Sm312 2.543 . S
O332 C314 1.261 . S
O333 Sm312 2.450 . S
O333 C314 1.242 . S
O334 Sm312 2.681 1_565 S
O334 Sm313 2.386 1_455 S
O334 C321 1.271 . S
O335 Sm312 2.464 1_565 S
O335 C321 1.251 . S
O336 Sm312 2.396 . S
O336 C322 1.252 . S
O337 Sm313 2.408 1_445 S
O337 C322 1.272 . S
O338 Sm313 2.543 . S
O338 C323 1.261 . S
O339 Sm313 2.450 . S
O339 C323 1.242 . S
O340 Sm312 2.386 1_655 S
O340 Sm313 2.681 1_545 S
O340 C330 1.271 . S
O341 Sm313 2.464 1_545 S
O341 C330 1.251 . S
O342 Sm313 2.396 . S
O342 C331 1.252 . S
O343 Sm312 2.408 1_665 S
O343 C331 1.272 . S
H344 C316 0.930 . S
H345 C317 0.929 . S
H346 C319 0.930 . S
H347 C320 0.929 . S
H348 C325 0.930 . S
H349 C326 0.929 . S
H350 C328 0.930 . S
H351 C329 0.929 . S
Sm352 C354 2.846 1_565 S
Sm352 O372 2.543 1_565 S
Sm352 O373 2.450 1_565 S
Sm352 O374 2.681 . S
Sm352 O375 2.464 . S
Sm352 O376 2.396 1_565 S
Sm352 O380 2.386 1_564 S
Sm352 O383 2.408 1_554 S
Sm353 C363 2.846 1_545 S
Sm353 O374 2.386 1_546 S
Sm353 O377 2.408 1_556 S
Sm353 O378 2.543 1_545 S
Sm353 O379 2.450 1_545 S
Sm353 O380 2.681 . S
Sm353 O381 2.464 . S
Sm353 O382 2.396 1_545 S
C354 Sm352 2.846 1_545 S
C354 C355 1.506 . S
C354 O372 1.261 . S
C354 O373 1.242 . S
C355 C354 1.506 . S
C355 C356 1.358 . S
C355 C360 1.382 . S
C356 C355 1.358 . S
C356 C357 1.385 . S
C356 H384 0.930 . S
C357 C356 1.385 . S
C357 C358 1.395 . S
C357 H385 0.929 . S
C358 C357 1.395 . S
C358 C359 1.335 . S
C359 C358 1.335 . S
C359 C360 1.398 . S
C359 H386 0.930 . S
C360 C355 1.382 . S
C360 C359 1.398 . S
C360 H387 0.929 . S
C361 O374 1.271 . S
C361 O375 1.251 . S
C362 O376 1.252 . S
C362 O377 1.272 . S
C363 Sm353 2.846 1_565 S
C363 C364 1.506 . S
C363 O378 1.261 . S
C363 O379 1.242 . S
C364 C363 1.506 . S
C364 C365 1.358 . S
C364 C369 1.382 . S
C365 C364 1.358 . S
C365 C366 1.385 . S
C365 H388 0.930 . S
C366 C365 1.385 . S
C366 C367 1.395 . S
C366 H389 0.929 . S
C367 C366 1.395 . S
C367 C368 1.335 . S
C368 C367 1.335 . S
C368 C369 1.398 . S
C368 H390 0.930 . S
C369 C364 1.382 . S
C369 C368 1.398 . S
C369 H391 0.929 . S
C370 O380 1.271 . S
C370 O381 1.251 . S
C371 O382 1.252 . S
C371 O383 1.272 . S
O372 Sm352 2.543 1_545 S
O372 C354 1.261 . S
O373 Sm352 2.450 1_545 S
O373 C354 1.242 . S
O374 Sm352 2.681 . S
O374 Sm353 2.386 1_564 S
O374 C361 1.271 . S
O375 Sm352 2.464 . S
O375 C361 1.251 . S
O376 Sm352 2.396 1_545 S
O376 C362 1.252 . S
O377 Sm353 2.408 1_554 S
O377 C362 1.272 . S
O378 Sm353 2.543 1_565 S
O378 C363 1.261 . S
O379 Sm353 2.450 1_565 S
O379 C363 1.242 . S
O380 Sm352 2.386 1_546 S
O380 Sm353 2.681 . S
O380 C370 1.271 . S
O381 Sm353 2.464 . S
O381 C370 1.251 . S
O382 Sm353 2.396 1_565 S
O382 C371 1.252 . S
O383 Sm352 2.408 1_556 S
O383 C371 1.272 . S
H384 C356 0.930 . S
H385 C357 0.929 . S
H386 C359 0.930 . S
H387 C360 0.929 . S
H388 C365 0.930 . S
H389 C366 0.929 . S
H390 C368 0.930 . S
H391 C369 0.929 . S
Sm392 C394 2.846 . S
Sm392 O412 2.543 . S
Sm392 O413 2.450 . S
Sm392 O414 2.681 . S
Sm392 O415 2.464 . S
Sm392 O416 2.396 . S
Sm392 O420 2.386 . S
Sm392 O423 2.408 . S
Sm393 C403 2.846 . S
Sm393 O414 2.386 . S
Sm393 O417 2.408 . S
Sm393 O418 2.543 . S
Sm393 O419 2.450 . S
Sm393 O420 2.681 . S
Sm393 O421 2.464 . S
Sm393 O422 2.396 . S
C394 Sm392 2.846 . S
C394 C395 1.506 . S
C394 O412 1.261 . S
C394 O413 1.242 . S
C395 C394 1.506 . S
C395 C396 1.358 . S
C395 C400 1.382 . S
C396 C395 1.358 . S
C396 C397 1.385 . S
C396 H424 0.930 . S
C397 C396 1.385 . S
C397 C398 1.395 . S
C397 H425 0.929 . S
C398 C397 1.395 . S
C398 C399 1.335 . S
C399 C398 1.335 . S
C399 C400 1.398 . S
C399 H426 0.930 . S
C400 C395 1.382 . S
C400 C399 1.398 . S
C400 H427 0.929 . S
C401 O414 1.271 . S
C401 O415 1.251 . S
C402 O416 1.252 . S
C402 O417 1.272 . S
C403 Sm393 2.846 . S
C403 C404 1.506 . S
C403 O418 1.261 . S
C403 O419 1.242 . S
C404 C403 1.506 . S
C404 C405 1.358 . S
C404 C409 1.382 . S
C405 C404 1.358 . S
C405 C406 1.385 . S
C405 H428 0.930 . S
C406 C405 1.385 . S
C406 C407 1.395 . S
C406 H429 0.929 . S
C407 C406 1.395 . S
C407 C408 1.335 . S
C408 C407 1.335 . S
C408 C409 1.398 . S
C408 H430 0.930 . S
C409 C404 1.382 . S
C409 C408 1.398 . S
C409 H431 0.929 . S
C410 O420 1.271 . S
C410 O421 1.251 . S
C411 O422 1.252 . S
C411 O423 1.272 . S
O412 Sm392 2.543 . S
O412 C394 1.261 . S
O413 Sm392 2.450 . S
O413 C394 1.242 . S
O414 Sm392 2.681 . S
O414 Sm393 2.386 . S
O414 C401 1.271 . S
O415 Sm392 2.464 . S
O415 C401 1.251 . S
O416 Sm392 2.396 . S
O416 C402 1.252 . S
O417 Sm393 2.408 . S
O417 C402 1.272 . S
O418 Sm393 2.543 . S
O418 C403 1.261 . S
O419 Sm393 2.450 . S
O419 C403 1.242 . S
O420 Sm392 2.386 . S
O420 Sm393 2.681 . S
O420 C410 1.271 . S
O421 Sm393 2.464 . S
O421 C410 1.251 . S
O422 Sm393 2.396 . S
O422 C411 1.252 . S
O423 Sm392 2.408 . S
O423 C411 1.272 . S
H424 C396 0.930 . S
H425 C397 0.929 . S
H426 C399 0.930 . S
H427 C400 0.929 . S
H428 C405 0.930 . S
H429 C406 0.929 . S
H430 C408 0.930 . S
H431 C409 0.929 . S
Sm432 C434 2.846 . S
Sm432 O452 2.543 . S
Sm432 O453 2.450 . S
Sm432 O454 2.681 1_455 S
Sm432 O455 2.464 1_455 S
Sm432 O456 2.396 . S
Sm432 O460 2.386 1_554 S
Sm432 O463 2.408 1_454 S
Sm433 C443 2.846 . S
Sm433 O454 2.386 1_556 S
Sm433 O457 2.408 1_656 S
Sm433 O458 2.543 . S
Sm433 O459 2.450 . S
Sm433 O460 2.681 1_655 S
Sm433 O461 2.464 1_655 S
Sm433 O462 2.396 . S
C434 Sm432 2.846 . S
C434 C435 1.506 . S
C434 O452 1.261 . S
C434 O453 1.242 . S
C435 C434 1.506 . S
C435 C436 1.358 . S
C435 C440 1.382 . S
C436 C435 1.358 . S
C436 C437 1.385 . S
C436 H464 0.930 . S
C437 C436 1.385 . S
C437 C438 1.395 . S
C437 H465 0.929 . S
C438 C437 1.395 . S
C438 C439 1.335 . S
C439 C438 1.335 . S
C439 C440 1.398 . S
C439 H466 0.930 . S
C440 C435 1.382 . S
C440 C439 1.398 . S
C440 H467 0.929 . S
C441 O454 1.271 . S
C441 O455 1.251 . S
C442 O456 1.252 . S
C442 O457 1.272 . S
C443 Sm433 2.846 . S
C443 C444 1.506 . S
C443 O458 1.261 . S
C443 O459 1.242 . S
C444 C443 1.506 . S
C444 C445 1.358 . S
C444 C449 1.382 . S
C445 C444 1.358 . S
C445 C446 1.385 . S
C445 H468 0.930 . S
C446 C445 1.385 . S
C446 C447 1.395 . S
C446 H469 0.929 . S
C447 C446 1.395 . S
C447 C448 1.335 . S
C448 C447 1.335 . S
C448 C449 1.398 . S
C448 H470 0.930 . S
C449 C444 1.382 . S
C449 C448 1.398 . S
C449 H471 0.929 . S
C450 O460 1.271 . S
C450 O461 1.251 . S
C451 O462 1.252 . S
C451 O463 1.272 . S
O452 Sm432 2.543 . S
O452 C434 1.261 . S
O453 Sm432 2.450 . S
O453 C434 1.242 . S
O454 Sm432 2.681 1_655 S
O454 Sm433 2.386 1_554 S
O454 C441 1.271 . S
O455 Sm432 2.464 1_655 S
O455 C441 1.251 . S
O456 Sm432 2.396 . S
O456 C442 1.252 . S
O457 Sm433 2.408 1_454 S
O457 C442 1.272 . S
O458 Sm433 2.543 . S
O458 C443 1.261 . S
O459 Sm433 2.450 . S
O459 C443 1.242 . S
O460 Sm432 2.386 1_556 S
O460 Sm433 2.681 1_455 S
O460 C450 1.271 . S
O461 Sm433 2.464 1_455 S
O461 C450 1.251 . S
O462 Sm433 2.396 . S
O462 C451 1.252 . S
O463 Sm432 2.408 1_656 S
O463 C451 1.272 . S
H464 C436 0.930 . S
H465 C437 0.929 . S
H466 C439 0.930 . S
H467 C440 0.929 . S
H468 C445 0.930 . S
H469 C446 0.929 . S
H470 C448 0.930 . S
H471 C449 0.929 . S
C472 C473 1.363 . S
C472 C478 1.379 . S
C472 N480 1.356 . S
C473 C472 1.363 . S
C473 C479 1.363 . S
C474 C475 1.363 . S
C474 C479 1.379 . S
C474 N481 1.356 . S
C475 C474 1.363 . S
C475 C478 1.363 . S
N476 C478 1.356 . S
N476 H488 0.984 . S
N476 H489 0.985 . S
N477 C479 1.356 . S
N477 H482 0.984 . S
N477 H483 0.985 . S
C478 C472 1.379 . S
C478 C475 1.363 . S
C478 N476 1.356 . S
C479 C473 1.363 . S
C479 C474 1.379 . S
C479 N477 1.356 . S
N480 C472 1.356 . S
N480 H486 0.984 . S
N480 H487 0.984 . S
N481 C474 1.356 . S
N481 H484 0.984 . S
N481 H485 0.985 . S
H482 N477 0.984 . S
H483 N477 0.985 . S
H484 N481 0.984 . S
H485 N481 0.985 . S
H486 N480 0.984 . S
H487 N480 0.984 . S
H488 N476 0.984 . S
H489 N476 0.985 . S
C490 C491 1.363 . S
C490 C496 1.379 . S
C490 N498 1.356 . S
C491 C490 1.363 . S
C491 C497 1.363 . S
C492 C493 1.363 . S
C492 C497 1.379 . S
C492 N499 1.356 . S
C493 C492 1.363 . S
C493 C496 1.363 . S
N494 C496 1.356 . S
N494 H506 0.984 . S
N494 H507 0.985 . S
N495 C497 1.356 . S
N495 H500 0.984 . S
N495 H501 0.985 . S
C496 C490 1.379 . S
C496 C493 1.363 . S
C496 N494 1.356 . S
C497 C491 1.363 . S
C497 C492 1.379 . S
C497 N495 1.356 . S
N498 C490 1.356 . S
N498 H504 0.984 . S
N498 H505 0.984 . S
N499 C492 1.356 . S
N499 H502 0.984 . S
N499 H503 0.985 . S
H500 N495 0.984 . S
H501 N495 0.985 . S
H502 N499 0.984 . S
H503 N499 0.985 . S
H504 N498 0.984 . S
H505 N498 0.984 . S
H506 N494 0.984 . S
H507 N494 0.985 . S
C508 C509 1.363 . S
C508 C514 1.379 . S
C508 N516 1.356 . S
C509 C508 1.363 . S
C509 C515 1.363 . S
C510 C511 1.363 . S
C510 C515 1.379 . S
C510 N517 1.356 . S
C511 C510 1.363 . S
C511 C514 1.363 . S
N512 C514 1.356 . S
N512 H524 0.984 . S
N512 H525 0.985 . S
N513 C515 1.356 . S
N513 H518 0.984 . S
N513 H519 0.985 . S
C514 C508 1.379 . S
C514 C511 1.363 . S
C514 N512 1.356 . S
C515 C509 1.363 . S
C515 C510 1.379 . S
C515 N513 1.356 . S
N516 C508 1.356 . S
N516 H522 0.984 . S
N516 H523 0.984 . S
N517 C510 1.356 . S
N517 H520 0.984 . S
N517 H521 0.985 . S
H518 N513 0.984 . S
H519 N513 0.985 . S
H520 N517 0.984 . S
H521 N517 0.985 . S
H522 N516 0.984 . S
H523 N516 0.984 . S
H524 N512 0.984 . S
H525 N512 0.985 . S
C526 C527 1.363 . S
C526 C532 1.379 . S
C526 N534 1.356 . S
C527 C526 1.363 . S
C527 C533 1.363 . S
C528 C529 1.363 . S
C528 C533 1.379 . S
C528 N535 1.356 . S
C529 C528 1.363 . S
C529 C532 1.363 . S
N530 C532 1.356 . S
N530 H542 0.984 . S
N530 H543 0.985 . S
N531 C533 1.356 . S
N531 H536 0.984 . S
N531 H537 0.985 . S
C532 C526 1.379 . S
C532 C529 1.363 . S
C532 N530 1.356 . S
C533 C527 1.363 . S
C533 C528 1.379 . S
C533 N531 1.356 . S
N534 C526 1.356 . S
N534 H540 0.984 . S
N534 H541 0.984 . S
N535 C528 1.356 . S
N535 H538 0.984 . S
N535 H539 0.985 . S
H536 N531 0.984 . S
H537 N531 0.985 . S
H538 N535 0.984 . S
H539 N535 0.985 . S
H540 N534 0.984 . S
H541 N534 0.984 . S
H542 N530 0.984 . S
H543 N530 0.985 . S
C544 C545 1.363 . S
C544 C550 1.379 . S
C544 N552 1.356 . S
C545 C544 1.363 . S
C545 C551 1.363 . S
C546 C547 1.363 . S
C546 C551 1.379 . S
C546 N553 1.356 . S
C547 C546 1.363 . S
C547 C550 1.363 . S
N548 C550 1.356 . S
N548 H560 0.984 . S
N548 H561 0.985 . S
N549 C551 1.356 . S
N549 H554 0.984 . S
N549 H555 0.985 . S
C550 C544 1.379 . S
C550 C547 1.363 . S
C550 N548 1.356 . S
C551 C545 1.363 . S
C551 C546 1.379 . S
C551 N549 1.356 . S
N552 C544 1.356 . S
N552 H558 0.984 . S
N552 H559 0.984 . S
N553 C546 1.356 . S
N553 H556 0.984 . S
N553 H557 0.985 . S
H554 N549 0.984 . S
H555 N549 0.985 . S
H556 N553 0.984 . S
H557 N553 0.985 . S
H558 N552 0.984 . S
H559 N552 0.984 . S
H560 N548 0.984 . S
H561 N548 0.985 . S
C562 C563 1.363 . S
C562 C568 1.379 . S
C562 N570 1.356 . S
C563 C562 1.363 . S
C563 C569 1.363 . S
C564 C565 1.363 . S
C564 C569 1.379 . S
C564 N571 1.356 . S
C565 C564 1.363 . S
C565 C568 1.363 . S
N566 C568 1.356 . S
N566 H578 0.984 . S
N566 H579 0.985 . S
N567 C569 1.356 . S
N567 H572 0.984 . S
N567 H573 0.985 . S
C568 C562 1.379 . S
C568 C565 1.363 . S
C568 N566 1.356 . S
C569 C563 1.363 . S
C569 C564 1.379 . S
C569 N567 1.356 . S
N570 C562 1.356 . S
N570 H576 0.984 . S
N570 H577 0.984 . S
N571 C564 1.356 . S
N571 H574 0.984 . S
N571 H575 0.985 . S
H572 N567 0.984 . S
H573 N567 0.985 . S
H574 N571 0.984 . S
H575 N571 0.985 . S
H576 N570 0.984 . S
H577 N570 0.984 . S
H578 N566 0.984 . S
H579 N566 0.985 . S
C580 C581 1.363 . S
C580 C586 1.379 . S
C580 N588 1.356 . S
C581 C580 1.363 . S
C581 C587 1.363 . S
C582 C583 1.363 . S
C582 C587 1.379 . S
C582 N589 1.356 . S
C583 C582 1.363 . S
C583 C586 1.363 . S
N584 C586 1.356 . S
N584 H596 0.984 1_556 S
N584 H597 0.985 1_556 S
N585 C587 1.356 . S
N585 H590 0.984 . S
N585 H591 0.985 . S
C586 C580 1.379 . S
C586 C583 1.363 . S
C586 N584 1.356 . S
C587 C581 1.363 . S
C587 C582 1.379 . S
C587 N585 1.356 . S
N588 C580 1.356 . S
N588 H594 0.984 . S
N588 H595 0.984 . S
N589 C582 1.356 . S
N589 H592 0.984 . S
N589 H593 0.985 . S
H590 N585 0.984 . S
H591 N585 0.985 . S
H592 N589 0.984 . S
H593 N589 0.985 . S
H594 N588 0.984 . S
H595 N588 0.984 . S
H596 N584 0.984 1_554 S
H597 N584 0.985 1_554 S
C598 C599 1.363 . S
C598 C604 1.379 . S
C598 N606 1.356 . S
C599 C598 1.363 . S
C599 C605 1.363 . S
C600 C601 1.363 . S
C600 C605 1.379 . S
C600 N607 1.356 . S
C601 C600 1.363 . S
C601 C604 1.363 . S
N602 C604 1.356 . S
N602 H614 0.984 . S
N602 H615 0.985 . S
N603 C605 1.356 . S
N603 H608 0.984 . S
N603 H609 0.985 . S
C604 C598 1.379 . S
C604 C601 1.363 . S
C604 N602 1.356 . S
C605 C599 1.363 . S
C605 C600 1.379 . S
C605 N603 1.356 . S
N606 C598 1.356 . S
N606 H612 0.984 . S
N606 H613 0.984 . S
N607 C600 1.356 . S
N607 H610 0.984 . S
N607 H611 0.985 . S
H608 N603 0.984 . S
H609 N603 0.985 . S
H610 N607 0.984 . S
H611 N607 0.985 . S
H612 N606 0.984 . S
H613 N606 0.984 . S
H614 N602 0.984 . S
H615 N602 0.985 . S
C616 C617 1.363 . S
C616 C622 1.379 . S
C616 N624 1.356 . S
C617 C616 1.363 . S
C617 C623 1.363 . S
C618 C619 1.363 . S
C618 C623 1.379 . S
C618 N625 1.356 . S
C619 C618 1.363 . S
C619 C622 1.363 . S
N620 C622 1.356 . S
N620 H632 0.984 . S
N620 H633 0.985 . S
N621 C623 1.356 . S
N621 H626 0.984 . S
N621 H627 0.985 . S
C622 C616 1.379 . S
C622 C619 1.363 . S
C622 N620 1.356 . S
C623 C617 1.363 . S
C623 C618 1.379 . S
C623 N621 1.356 . S
N624 C616 1.356 . S
N624 H630 0.984 . S
N624 H631 0.984 . S
N625 C618 1.356 . S
N625 H628 0.984 . S
N625 H629 0.985 . S
H626 N621 0.984 . S
H627 N621 0.985 . S
H628 N625 0.984 . S
H629 N625 0.985 . S
H630 N624 0.984 . S
H631 N624 0.984 . S
H632 N620 0.984 . S
H633 N620 0.985 . S
C634 C635 1.363 . S
C634 C640 1.379 . S
C634 N642 1.356 . S
C635 C634 1.363 . S
C635 C641 1.363 . S
C636 C637 1.363 . S
C636 C641 1.379 . S
C636 N643 1.356 . S
C637 C636 1.363 . S
C637 C640 1.363 . S
N638 C640 1.356 . S
N638 H650 0.984 . S
N638 H651 0.985 . S
N639 C641 1.356 . S
N639 H644 0.984 . S
N639 H645 0.985 . S
C640 C634 1.379 . S
C640 C637 1.363 . S
C640 N638 1.356 . S
C641 C635 1.363 . S
C641 C636 1.379 . S
C641 N639 1.356 . S
N642 C634 1.356 . S
N642 H648 0.984 . S
N642 H649 0.984 . S
N643 C636 1.356 . S
N643 H646 0.984 . S
N643 H647 0.985 1_556 S
H644 N639 0.984 . S
H645 N639 0.985 . S
H646 N643 0.984 . S
H647 N643 0.985 1_554 S
H648 N642 0.984 . S
H649 N642 0.984 . S
H650 N638 0.984 . S
H651 N638 0.985 . S
C652 C653 1.363 . S
C652 C658 1.379 . S
C652 N660 1.356 . S
C653 C652 1.363 . S
C653 C659 1.363 . S
C654 C655 1.363 . S
C654 C659 1.379 . S
C654 N661 1.356 . S
C655 C654 1.363 . S
C655 C658 1.363 . S
N656 C658 1.356 . S
N656 H668 0.984 . S
N656 H669 0.985 . S
N657 C659 1.356 . S
N657 H662 0.984 . S
N657 H663 0.985 . S
C658 C652 1.379 . S
C658 C655 1.363 . S
C658 N656 1.356 . S
C659 C653 1.363 . S
C659 C654 1.379 . S
C659 N657 1.356 . S
N660 C652 1.356 . S
N660 H666 0.984 . S
N660 H667 0.984 . S
N661 C654 1.356 . S
N661 H664 0.984 . S
N661 H665 0.985 . S
H662 N657 0.984 . S
H663 N657 0.985 . S
H664 N661 0.984 . S
H665 N661 0.985 . S
H666 N660 0.984 . S
H667 N660 0.984 . S
H668 N656 0.984 . S
H669 N656 0.985 . S
C670 C671 1.363 . S
C670 C676 1.379 . S
C670 N678 1.356 . S
C671 C670 1.363 . S
C671 C677 1.363 . S
C672 C673 1.363 . S
C672 C677 1.379 . S
C672 N679 1.356 . S
C673 C672 1.363 . S
C673 C676 1.363 . S
N674 C676 1.356 . S
N674 H686 0.984 . S
N674 H687 0.985 . S
N675 C677 1.356 . S
N675 H680 0.984 . S
N675 H681 0.985 . S
C676 C670 1.379 . S
C676 C673 1.363 . S
C676 N674 1.356 . S
C677 C671 1.363 . S
C677 C672 1.379 . S
C677 N675 1.356 . S
N678 C670 1.356 . S
N678 H684 0.984 . S
N678 H685 0.984 . S
N679 C672 1.356 . S
N679 H682 0.984 . S
N679 H683 0.985 . S
H680 N675 0.984 . S
H681 N675 0.985 . S
H682 N679 0.984 . S
H683 N679 0.985 . S
H684 N678 0.984 . S
H685 N678 0.984 . S
H686 N674 0.984 . S
H687 N674 0.985 . S
C688 C689 1.363 . S
C688 C694 1.379 . S
C688 N696 1.356 . S
C689 C688 1.363 . S
C689 C695 1.363 . S
C690 C691 1.363 . S
C690 C695 1.379 . S
C690 N697 1.356 . S
C691 C690 1.363 . S
C691 C694 1.363 . S
N692 C694 1.356 . S
N692 H704 0.984 . S
N692 H705 0.985 . S
N693 C695 1.356 . S
N693 H698 0.984 . S
N693 H699 0.985 . S
C694 C688 1.379 . S
C694 C691 1.363 . S
C694 N692 1.356 . S
C695 C689 1.363 . S
C695 C690 1.379 . S
C695 N693 1.356 . S
N696 C688 1.356 . S
N696 H702 0.984 . S
N696 H703 0.984 . S
N697 C690 1.356 . S
N697 H700 0.984 . S
N697 H701 0.985 . S
H698 N693 0.984 . S
H699 N693 0.985 . S
H700 N697 0.984 . S
H701 N697 0.985 . S
H702 N696 0.984 . S
H703 N696 0.984 . S
H704 N692 0.984 . S
H705 N692 0.985 . S
C706 C707 1.363 . S
C706 C712 1.379 . S
C706 N714 1.356 . S
C707 C706 1.363 . S
C707 C713 1.363 . S
C708 C709 1.363 . S
C708 C713 1.379 . S
C708 N715 1.356 . S
C709 C708 1.363 . S
C709 C712 1.363 . S
N710 C712 1.356 . S
N710 H722 0.984 . S
N710 H723 0.985 . S
N711 C713 1.356 . S
N711 H716 0.984 . S
N711 H717 0.985 . S
C712 C706 1.379 . S
C712 C709 1.363 . S
C712 N710 1.356 . S
C713 C707 1.363 . S
C713 C708 1.379 . S
C713 N711 1.356 . S
N714 C706 1.356 . S
N714 H720 0.984 . S
N714 H721 0.984 . S
N715 C708 1.356 . S
N715 H718 0.984 . S
N715 H719 0.985 . S
H716 N711 0.984 . S
H717 N711 0.985 . S
H718 N715 0.984 . S
H719 N715 0.985 . S
H720 N714 0.984 . S
H721 N714 0.984 . S
H722 N710 0.984 . S
H723 N710 0.985 . S
C724 C725 1.363 . S
C724 C730 1.379 . S
C724 N732 1.356 . S
C725 C724 1.363 . S
C725 C731 1.363 . S
C726 C727 1.363 . S
C726 C731 1.379 . S
C726 N733 1.356 . S
C727 C726 1.363 . S
C727 C730 1.363 . S
N728 C730 1.356 . S
N728 H740 0.984 . S
N728 H741 0.985 . S
N729 C731 1.356 . S
N729 H734 0.984 . S
N729 H735 0.985 . S
C730 C724 1.379 . S
C730 C727 1.363 . S
C730 N728 1.356 . S
C731 C725 1.363 . S
C731 C726 1.379 . S
C731 N729 1.356 . S
N732 C724 1.356 . S
N732 H738 0.984 . S
N732 H739 0.984 . S
N733 C726 1.356 . S
N733 H736 0.984 . S
N733 H737 0.985 . S
H734 N729 0.984 . S
H735 N729 0.985 . S
H736 N733 0.984 . S
H737 N733 0.985 . S
H738 N732 0.984 . S
H739 N732 0.984 . S
H740 N728 0.984 . S
H741 N728 0.985 . S
C742 C743 1.363 . S
C742 C748 1.379 . S
C742 N750 1.356 . S
C743 C742 1.363 . S
C743 C749 1.363 . S
C744 C745 1.363 . S
C744 C749 1.379 . S
C744 N751 1.356 . S
C745 C744 1.363 . S
C745 C748 1.363 . S
N746 C748 1.356 . S
N746 H758 0.984 . S
N746 H759 0.985 . S
N747 C749 1.356 . S
N747 H752 0.984 . S
N747 H753 0.985 . S
C748 C742 1.379 . S
C748 C745 1.363 . S
C748 N746 1.356 . S
C749 C743 1.363 . S
C749 C744 1.379 . S
C749 N747 1.356 . S
N750 C742 1.356 . S
N750 H756 0.984 . S
N750 H757 0.984 . S
N751 C744 1.356 . S
N751 H754 0.984 . S
N751 H755 0.985 1_455 S
H752 N747 0.984 . S
H753 N747 0.985 . S
H754 N751 0.984 . S
H755 N751 0.985 1_655 S
H756 N750 0.984 . S
H757 N750 0.984 . S
H758 N746 0.984 . S
H759 N746 0.985 . S
C760 C761 1.363 . S
C760 C766 1.379 . S
C760 N768 1.356 . S
C761 C760 1.363 . S
C761 C767 1.363 . S
C762 C763 1.363 . S
C762 C767 1.379 . S
C762 N769 1.356 . S
C763 C762 1.363 . S
C763 C766 1.363 . S
N764 C766 1.356 . S
N764 H776 0.984 . S
N764 H777 0.985 . S
N765 C767 1.356 . S
N765 H770 0.984 . S
N765 H771 0.985 . S
C766 C760 1.379 . S
C766 C763 1.363 . S
C766 N764 1.356 . S
C767 C761 1.363 . S
C767 C762 1.379 . S
C767 N765 1.356 . S
N768 C760 1.356 . S
N768 H774 0.984 . S
N768 H775 0.984 . S
N769 C762 1.356 . S
N769 H772 0.984 . S
N769 H773 0.985 . S
H770 N765 0.984 . S
H771 N765 0.985 . S
H772 N769 0.984 . S
H773 N769 0.985 . S
H774 N768 0.984 . S
H775 N768 0.984 . S
H776 N764 0.984 . S
H777 N764 0.985 . S
C778 C779 1.363 . S
C778 C784 1.379 . S
C778 N786 1.356 . S
C779 C778 1.363 . S
C779 C785 1.363 . S
C780 C781 1.363 . S
C780 C785 1.379 . S
C780 N787 1.356 . S
C781 C780 1.363 . S
C781 C784 1.363 . S
N782 C784 1.356 . S
N782 H794 0.984 . S
N782 H795 0.985 . S
N783 C785 1.356 . S
N783 H788 0.984 . S
N783 H789 0.985 . S
C784 C778 1.379 . S
C784 C781 1.363 . S
C784 N782 1.356 . S
C785 C779 1.363 . S
C785 C780 1.379 . S
C785 N783 1.356 . S
N786 C778 1.356 . S
N786 H792 0.984 . S
N786 H793 0.984 . S
N787 C780 1.356 . S
N787 H790 0.984 . S
N787 H791 0.985 . S
H788 N783 0.984 . S
H789 N783 0.985 . S
H790 N787 0.984 . S
H791 N787 0.985 . S
H792 N786 0.984 . S
H793 N786 0.984 . S
H794 N782 0.984 . S
H795 N782 0.985 . S
C796 C797 1.363 . S
C796 C802 1.379 . S
C796 N804 1.356 . S
C797 C796 1.363 . S
C797 C803 1.363 . S
C798 C799 1.363 . S
C798 C803 1.379 . S
C798 N805 1.356 . S
C799 C798 1.363 . S
C799 C802 1.363 . S
N800 C802 1.356 . S
N800 H812 0.984 . S
N800 H813 0.985 . S
N801 C803 1.356 . S
N801 H806 0.984 . S
N801 H807 0.985 . S
C802 C796 1.379 . S
C802 C799 1.363 . S
C802 N800 1.356 . S
C803 C797 1.363 . S
C803 C798 1.379 . S
C803 N801 1.356 . S
N804 C796 1.356 . S
N804 H810 0.984 . S
N804 H811 0.984 . S
N805 C798 1.356 . S
N805 H808 0.984 . S
N805 H809 0.985 . S
H806 N801 0.984 . S
H807 N801 0.985 . S
H808 N805 0.984 . S
H809 N805 0.985 . S
H810 N804 0.984 . S
H811 N804 0.984 . S
H812 N800 0.984 . S
H813 N800 0.985 . S
C814 C815 1.363 . S
C814 C820 1.379 . S
C814 N822 1.356 . S
C815 C814 1.363 . S
C815 C821 1.363 . S
C816 C817 1.363 . S
C816 C821 1.379 . S
C816 N823 1.356 . S
C817 C816 1.363 . S
C817 C820 1.363 . S
N818 C820 1.356 . S
N818 H830 0.984 . S
N818 H831 0.985 . S
N819 C821 1.356 . S
N819 H824 0.984 . S
N819 H825 0.985 . S
C820 C814 1.379 . S
C820 C817 1.363 . S
C820 N818 1.356 . S
C821 C815 1.363 . S
C821 C816 1.379 . S
C821 N819 1.356 . S
N822 C814 1.356 . S
N822 H828 0.984 . S
N822 H829 0.984 . S
N823 C816 1.356 . S
N823 H826 0.984 . S
N823 H827 0.985 . S
H824 N819 0.984 . S
H825 N819 0.985 . S
H826 N823 0.984 . S
H827 N823 0.985 . S
H828 N822 0.984 . S
H829 N822 0.984 . S
H830 N818 0.984 . S
H831 N818 0.985 . S
C832 C833 1.363 . S
C832 C838 1.379 . S
C832 N840 1.356 . S
C833 C832 1.363 . S
C833 C839 1.363 . S
C834 C835 1.363 . S
C834 C839 1.379 . S
C834 N841 1.356 . S
C835 C834 1.363 . S
C835 C838 1.363 . S
N836 C838 1.356 . S
N836 H848 0.984 . S
N836 H849 0.985 . S
N837 C839 1.356 . S
N837 H842 0.984 . S
N837 H843 0.985 . S
C838 C832 1.379 . S
C838 C835 1.363 . S
C838 N836 1.356 . S
C839 C833 1.363 . S
C839 C834 1.379 . S
C839 N837 1.356 . S
N840 C832 1.356 . S
N840 H846 0.984 . S
N840 H847 0.984 . S
N841 C834 1.356 . S
N841 H844 0.984 . S
N841 H845 0.985 . S
H842 N837 0.984 . S
H843 N837 0.985 . S
H844 N841 0.984 . S
H845 N841 0.985 . S
H846 N840 0.984 . S
H847 N840 0.984 . S
H848 N836 0.984 . S
H849 N836 0.985 . S
C850 C851 1.363 . S
C850 C856 1.379 . S
C850 N858 1.356 . S
C851 C850 1.363 . S
C851 C857 1.363 . S
C852 C853 1.363 . S
C852 C857 1.379 . S
C852 N859 1.356 . S
C853 C852 1.363 . S
C853 C856 1.363 . S
N854 C856 1.356 . S
N854 H866 0.984 . S
N854 H867 0.985 . S
N855 C857 1.356 . S
N855 H860 0.984 . S
N855 H861 0.985 . S
C856 C850 1.379 . S
C856 C853 1.363 . S
C856 N854 1.356 . S
C857 C851 1.363 . S
C857 C852 1.379 . S
C857 N855 1.356 . S
N858 C850 1.356 . S
N858 H864 0.984 . S
N858 H865 0.984 . S
N859 C852 1.356 . S
N859 H862 0.984 . S
N859 H863 0.985 . S
H860 N855 0.984 . S
H861 N855 0.985 . S
H862 N859 0.984 . S
H863 N859 0.985 . S
H864 N858 0.984 . S
H865 N858 0.984 . S
H866 N854 0.984 . S
H867 N854 0.985 . S
C868 C869 1.363 . S
C868 C874 1.379 . S
C868 N876 1.356 . S
C869 C868 1.363 . S
C869 C875 1.363 . S
C870 C871 1.363 . S
C870 C875 1.379 . S
C870 N877 1.356 . S
C871 C870 1.363 . S
C871 C874 1.363 . S
N872 C874 1.356 . S
N872 H884 0.984 . S
N872 H885 0.985 . S
N873 C875 1.356 . S
N873 H878 0.984 . S
N873 H879 0.985 . S
C874 C868 1.379 . S
C874 C871 1.363 . S
C874 N872 1.356 . S
C875 C869 1.363 . S
C875 C870 1.379 . S
C875 N873 1.356 . S
N876 C868 1.356 . S
N876 H882 0.984 . S
N876 H883 0.984 . S
N877 C870 1.356 . S
N877 H880 0.984 . S
N877 H881 0.985 . S
H878 N873 0.984 . S
H879 N873 0.985 . S
H880 N877 0.984 . S
H881 N877 0.985 . S
H882 N876 0.984 . S
H883 N876 0.984 . S
H884 N872 0.984 . S
H885 N872 0.985 . S
C886 C887 1.363 . S
C886 C892 1.379 . S
C886 N894 1.356 . S
C887 C886 1.363 . S
C887 C893 1.363 . S
C888 C889 1.363 . S
C888 C893 1.379 . S
C888 N895 1.356 . S
C889 C888 1.363 . S
C889 C892 1.363 . S
N890 C892 1.356 . S
N890 H902 0.984 . S
N890 H903 0.985 . S
N891 C893 1.356 . S
N891 H896 0.984 . S
N891 H897 0.985 . S
C892 C886 1.379 . S
C892 C889 1.363 . S
C892 N890 1.356 . S
C893 C887 1.363 . S
C893 C888 1.379 . S
C893 N891 1.356 . S
N894 C886 1.356 . S
N894 H900 0.984 . S
N894 H901 0.984 . S
N895 C888 1.356 . S
N895 H898 0.984 . S
N895 H899 0.985 . S
H896 N891 0.984 . S
H897 N891 0.985 . S
H898 N895 0.984 . S
H899 N895 0.985 . S
H900 N894 0.984 . S
H901 N894 0.984 . S
H902 N890 0.984 . S
H903 N890 0.985 . S
C473 C1 1.318 . S
C475 C318 1.422 . S
C491 C40 1.099 . S
C493 C367 1.091 . S
C511 C402 2.497 . S
C509 C99 2.554 . S
C527 C118 2.455 . S
C529 C441 2.398 . S
C547 C362 2.631 . S
C545 C16 2.412 . S
C565 C321 0.853 . S
C563 C60 0.878 . S
C583 C451 1.936 . S
C581 C79 1.994 . S
C601 C410 1.689 . S
C599 C138 1.702 . S
C617 C21 1.701 . S
C619 C438 1.835 . S
C637 C370 2.345 . S
C635 C94 2.446 . S
C653 C133 2.346 . S
C655 C331 2.338 . S
C671 C55 1.076 . S
C673 C407 1.117 . S
C691 C327 1.424 . S
C689 C157 1.333 . S
C707 C196 1.101 . S
C709 C358 1.092 . S
C725 C255 2.552 . S
C727 C411 2.496 . S
C743 C289 2.452 . S
C745 C450 2.393 . S
C761 C172 2.399 . S
C763 C371 2.629 . S
C781 C330 0.853 . S
C779 C216 0.878 . S
C799 C442 1.937 . S
C797 C235 1.997 . S
C817 C401 1.687 . S
C815 C294 1.704 . S
C833 C177 1.723 . S
C835 C447 1.832 . S
C853 C361 2.347 . S
C851 C250 2.447 . S
C871 C322 2.342 . S
C869 C274 2.348 . S
C887 C211 1.079 . S
C889 C398 1.117 . S
