# Generated by pormake.
# Topology pyr, (3,6)-cn, num edge types: 1
# Building blocks:
#     Node 0, Type 0, BuildingBlock: ESEHIV_clean_linker_0, # of connection points: 3
#     Node 1, Type 0, BuildingBlock: ESEHIV_clean_linker_0, # of connection points: 3
#     Node 2, Type 0, BuildingBlock: ESEHIV_clean_linker_0, # of connection points: 3
#     Node 3, Type 0, BuildingBlock: ESEHIV_clean_linker_0, # of connection points: 3
#     Node 4, Type 0, BuildingBlock: ESEHIV_clean_linker_0, # of connection points: 3
#     Node 5, Type 0, BuildingBlock: ESEHIV_clean_linker_0, # of connection points: 3
#     Node 6, Type 0, BuildingBlock: ESEHIV_clean_linker_0, # of connection points: 3
#     Node 7, Type 0, BuildingBlock: ESEHIV_clean_linker_0, # of connection points: 3
#     Node 8, Type 1, BuildingBlock: MIFKUJ_clean_sbu_0, # of connection points: 6
#     Node 9, Type 1, BuildingBlock: MIFKUJ_clean_sbu_0, # of connection points: 6
#     Node 10, Type 1, BuildingBlock: MIFKUJ_clean_sbu_0, # of connection points: 6
#     Node 11, Type 1, BuildingBlock: MIFKUJ_clean_sbu_0, # of connection points: 6
#     Edge 12, Type (0, 1), BuildingBlock: CIFDUS_clean_linker_0, # of connection points: 2
#     Edge 13, Type (0, 1), BuildingBlock: CIFDUS_clean_linker_0, # of connection points: 2
#     Edge 14, Type (0, 1), BuildingBlock: CIFDUS_clean_linker_0, # of connection points: 2
#     Edge 15, Type (0, 1), BuildingBlock: CIFDUS_clean_linker_0, # of connection points: 2
#     Edge 16, Type (0, 1), BuildingBlock: CIFDUS_clean_linker_0, # of connection points: 2
#     Edge 17, Type (0, 1), BuildingBlock: CIFDUS_clean_linker_0, # of connection points: 2
#     Edge 18, Type (0, 1), BuildingBlock: CIFDUS_clean_linker_0, # of connection points: 2
#     Edge 19, Type (0, 1), BuildingBlock: CIFDUS_clean_linker_0, # of connection points: 2
#     Edge 20, Type (0, 1), BuildingBlock: CIFDUS_clean_linker_0, # of connection points: 2
#     Edge 21, Type (0, 1), BuildingBlock: CIFDUS_clean_linker_0, # of connection points: 2
#     Edge 22, Type (0, 1), BuildingBlock: CIFDUS_clean_linker_0, # of connection points: 2
#     Edge 23, Type (0, 1), BuildingBlock: CIFDUS_clean_linker_0, # of connection points: 2
#     Edge 24, Type (0, 1), BuildingBlock: CIFDUS_clean_linker_0, # of connection points: 2
#     Edge 25, Type (0, 1), BuildingBlock: CIFDUS_clean_linker_0, # of connection points: 2
#     Edge 26, Type (0, 1), BuildingBlock: CIFDUS_clean_linker_0, # of connection points: 2
#     Edge 27, Type (0, 1), BuildingBlock: CIFDUS_clean_linker_0, # of connection points: 2
#     Edge 28, Type (0, 1), BuildingBlock: CIFDUS_clean_linker_0, # of connection points: 2
#     Edge 29, Type (0, 1), BuildingBlock: CIFDUS_clean_linker_0, # of connection points: 2
#     Edge 30, Type (0, 1), BuildingBlock: CIFDUS_clean_linker_0, # of connection points: 2
#     Edge 31, Type (0, 1), BuildingBlock: CIFDUS_clean_linker_0, # of connection points: 2
#     Edge 32, Type (0, 1), BuildingBlock: CIFDUS_clean_linker_0, # of connection points: 2
#     Edge 33, Type (0, 1), BuildingBlock: CIFDUS_clean_linker_0, # of connection points: 2
#     Edge 34, Type (0, 1), BuildingBlock: CIFDUS_clean_linker_0, # of connection points: 2
#     Edge 35, Type (0, 1), BuildingBlock: CIFDUS_clean_linker_0, # of connection points: 2
# Relax obj value: 0.032
# Max RMSD: 0.085
# Mean RMSD: 0.049
data_MOF--net-pyr--node1-MIFKUJ_clean_sbu_0--node2-ESEHIV_clean_linker_0--edge1-CIFDUS_clean_linker_0
_symmetry_space_group_name_H-M    P1
_symmetry_Int_Tables_number       1
_symmetry_cell_setting            triclinic
loop_
_symmetry_equiv_pos_as_xyz
'x, y, z'
_cell_length_a     32.875736
_cell_length_b     29.502334
_cell_length_c     31.292512
_cell_angle_alpha  85.326147
_cell_angle_beta   87.82439
_cell_angle_gamma 96.773006
loop_
_atom_site_label
_atom_site_type_symbol
_atom_site_fract_x
_atom_site_fract_y
_atom_site_fract_z
_atom_type_partial_charge
H0 H 0.11629 0.19274 0.20377 0.0
H1 H 0.2072 0.10424 0.23465 0.0
H2 H 0.22841 0.20448 0.12585 0.0
C3 C 0.14603 0.18197 0.19673 0.0
C4 C 0.17055 0.20294 0.16121 0.0
C5 C 0.15977 0.14754 0.2239 0.0
C6 C 0.19757 0.13228 0.21448 0.0
C7 C 0.22207 0.15179 0.17845 0.0
C8 C 0.20872 0.18781 0.1525 0.0
H9 H 0.30033 0.86744 0.75475 0.0
H10 H 0.39157 0.77755 0.73613 0.0
H11 H 0.29654 0.78613 0.64609 0.0
C12 C 0.31281 0.84238 0.7362 0.0
C13 C 0.29404 0.82924 0.69864 0.0
C14 C 0.34751 0.8232 0.75018 0.0
C15 C 0.36393 0.79123 0.72601 0.0
C16 C 0.34597 0.77763 0.68844 0.0
C17 C 0.31108 0.79705 0.67466 0.0
H18 H 0.69912 0.30669 0.8573 0.0
H19 H 0.68026 0.41762 0.76549 0.0
H20 H 0.59933 0.29063 0.77358 0.0
C21 C 0.68188 0.32064 0.83158 0.0
C22 C 0.64697 0.29432 0.8186 0.0
C23 C 0.69453 0.36485 0.81211 0.0
C24 C 0.67149 0.38278 0.77913 0.0
C25 C 0.63676 0.35656 0.76471 0.0
C26 C 0.62515 0.31206 0.78465 0.0
H27 H 0.81596 0.66172 0.37983 0.0
H28 H 0.92795 0.67361 0.30259 0.0
H29 H 0.82677 0.57352 0.27839 0.0
C30 C 0.83402 0.64971 0.35433 0.0
C31 C 0.81627 0.61512 0.33024 0.0
C32 C 0.87442 0.67028 0.34514 0.0
C33 C 0.8971 0.65693 0.3103 0.0
C34 C 0.88002 0.6223 0.28547 0.0
C35 C 0.83973 0.6013 0.29618 0.0
H36 H 0.7691 0.88704 0.74647 0.0
H37 H 0.8621 0.79659 0.75377 0.0
H38 H 0.76426 0.78115 0.8506 0.0
C39 C 0.78118 0.8578 0.76234 0.0
C40 C 0.76182 0.83559 0.80055 0.0
C41 C 0.81752 0.84406 0.74576 0.0
C42 C 0.83356 0.80658 0.76626 0.0
C43 C 0.81431 0.78347 0.80382 0.0
C44 C 0.7784 0.79807 0.82076 0.0
H45 H 0.60306 0.17669 0.31636 0.0
H46 H 0.6897 0.08449 0.28638 0.0
H47 H 0.71595 0.18047 0.3812 0.0
C48 C 0.63216 0.16389 0.32145 0.0
C49 C 0.65766 0.18239 0.35228 0.0
C50 C 0.64356 0.12911 0.297 0.0
C51 C 0.68124 0.11227 0.30411 0.0
C52 C 0.70734 0.13006 0.33505 0.0
C53 C 0.6954 0.16546 0.35853 0.0
H54 H 0.35186 0.68563 0.10958 0.0
H55 H 0.33722 0.57333 0.20756 0.0
H56 H 0.44492 0.67278 0.20096 0.0
C57 C 0.36322 0.6675 0.13733 0.0
C58 C 0.40091 0.68421 0.15328 0.0
C59 C 0.34018 0.62743 0.15644 0.0
C60 C 0.35549 0.60351 0.19187 0.0
C61 C 0.39319 0.61973 0.20848 0.0
C62 C 0.4159 0.65986 0.18851 0.0
H63 H 0.11177 0.34204 0.75087 0.0
H64 H 0.21273 0.33605 0.66069 0.0
H65 H 0.2208 0.43799 0.75172 0.0
C66 C 0.14206 0.35556 0.73742 0.0
C67 C 0.16428 0.39242 0.75552 0.0
C68 C 0.15942 0.33478 0.70334 0.0
C69 C 0.1992 0.35187 0.68693 0.0
C70 C 0.22179 0.38891 0.70424 0.0
C71 C 0.204 0.40889 0.73858 0.0
Zn72 Zn 0.07184 0.02304 0.55029 0.0
Zn73 Zn 0.97019 0.99342 0.47172 0.0
C74 C 0.07338 0.10895 0.59357 0.0
O75 O 0.03493 0.10874 0.58346 0.0
C76 C 0.95002 0.89624 0.45787 0.0
O77 O 0.93977 0.89118 0.49913 0.0
O78 O 0.11302 0.97784 0.55945 0.0
O79 O 0.01771 0.99388 0.57758 0.0
O80 O 0.96594 0.97809 0.53525 0.0
C81 C 0.11679 0.96124 0.59769 0.0
O82 O 0.09257 0.97246 0.62847 0.0
O83 O 0.09314 0.07671 0.58294 0.0
C84 C 0.91009 0.03211 0.41866 0.0
O85 O 0.93134 0.01703 0.38754 0.0
O86 O 0.92164 0.02686 0.45691 0.0
O87 O 0.02142 0.03091 0.44746 0.0
O88 O 0.0748 0.04561 0.48789 0.0
O89 O 0.96396 0.93576 0.44056 0.0
C90 C 0.98082 0.97789 0.57212 0.0
C91 C 0.05777 0.04903 0.45218 0.0
Zn92 Zn 0.53978 0.98046 0.97892 0.0
Zn93 Zn 0.47838 0.02805 0.0218 0.0
C94 C 0.48372 0.92923 0.93041 0.0
O95 O 0.5014 0.89664 0.95074 0.0
C96 C 0.52267 0.07215 0.08843 0.0
O97 O 0.49475 0.1003 0.08386 0.0
O98 O 0.58596 0.95277 0.95162 0.0
O99 O 0.55897 0.04875 0.97687 0.0
O100 O 0.49615 0.06188 0.9652 0.0
C101 C 0.60335 0.97455 0.91782 0.0
O102 O 0.59147 0.0138 0.90377 0.0
O103 O 0.49471 0.97058 0.9375 0.0
C104 C 0.4123 0.04606 0.07807 0.0
O105 O 0.42856 0.0184 0.10579 0.0
O106 O 0.42888 0.05546 0.04064 0.0
O107 O 0.4592 0.96133 0.02439 0.0
O108 O 0.52061 0.94184 0.03465 0.0
O109 O 0.52271 0.0391 0.0648 0.0
C110 C 0.53435 0.07399 0.95952 0.0
C111 C 0.48186 0.93307 0.0404 0.0
Zn112 Zn 0.52278 0.46504 0.47394 0.0
Zn113 Zn 0.4932 0.54278 0.52222 0.0
C114 C 0.59097 0.51102 0.42223 0.0
O115 O 0.56918 0.49302 0.3921 0.0
C116 C 0.43296 0.49096 0.57733 0.0
O117 O 0.45783 0.51076 0.60405 0.0
O118 O 0.53299 0.40775 0.44666 0.0
O119 O 0.51756 0.4495 0.5387 0.0
O120 O 0.54188 0.51983 0.55052 0.0
C121 C 0.56103 0.38479 0.46018 0.0
O122 O 0.58032 0.39659 0.49435 0.0
O123 O 0.57634 0.50569 0.46077 0.0
C124 C 0.45393 0.62311 0.53116 0.0
O125 O 0.44276 0.61464 0.49248 0.0
O126 O 0.47802 0.59821 0.55014 0.0
O127 O 0.49973 0.56135 0.45902 0.0
O128 O 0.47848 0.49278 0.44041 0.0
O129 O 0.44251 0.49717 0.53727 0.0
C130 C 0.53906 0.47696 0.56063 0.0
C131 C 0.48254 0.53607 0.43237 0.0
Zn132 Zn 0.95126 0.52454 0.97078 0.0
Zn133 Zn 0.05623 0.5093 0.03678 0.0
C134 C 0.89212 0.4816 0.92111 0.0
O135 O 0.91693 0.50671 0.89215 0.0
C136 C 0.11705 0.58255 0.06331 0.0
O137 O 0.08649 0.60729 0.06611 0.0
O138 O 0.93888 0.58387 0.9414 0.0
O139 O 0.95444 0.53497 0.03335 0.0
O140 O 0.01055 0.53351 0.07032 0.0
C141 C 0.91503 0.60717 0.96079 0.0
O142 O 0.90202 0.59379 1.00048 0.0
O143 O 0.90108 0.48124 0.96036 0.0
C144 C 0.08463 0.42286 0.05072 0.0
O145 O 0.10521 0.43716 0.01438 0.0
O146 O 0.05956 0.44758 0.06608 0.0
O147 O 0.05608 0.49969 0.97307 0.0
O148 O 0.99902 0.5049 0.93831 0.0
O149 O 0.11073 0.54287 0.05007 0.0
C150 C 0.97303 0.53961 0.06786 0.0
C151 C 0.03615 0.49705 0.9391 0.0
H152 H 0.18528 0.13774 0.30467 0.0
H153 H 0.07857 0.11498 0.22964 0.0
H154 H 0.03702 0.08438 0.29436 0.0
H155 H 0.03162 0.06301 0.37154 0.0
H156 H 0.13843 0.08581 0.44694 0.0
H157 H 0.17942 0.11793 0.38259 0.0
C158 C 0.15298 0.12572 0.30261 0.0
C159 C 0.1349 0.12819 0.26271 0.0
C160 C 0.12938 0.10853 0.33984 0.0
C161 C 0.09295 0.11339 0.26022 0.0
C162 C 0.06929 0.09592 0.2971 0.0
C163 C 0.06382 0.07516 0.37406 0.0
C164 C 0.08193 0.07176 0.41401 0.0
C165 C 0.08723 0.09328 0.33702 0.0
C166 C 0.12367 0.08795 0.4166 0.0
C167 C 0.1472 0.10618 0.37981 0.0
H168 H 0.3692 0.9092 0.77398 0.0
H169 H 0.37061 0.76621 0.8149 0.0
H170 H 0.41078 0.78667 0.87599 0.0
H171 H 0.44964 0.8447 0.91448 0.0
H172 H 0.44968 0.98804 0.87377 0.0
H173 H 0.40432 0.96799 0.81623 0.0
C174 C 0.37774 0.88265 0.79675 0.0
C175 C 0.36738 0.83631 0.7898 0.0
C176 C 0.40129 0.89468 0.83159 0.0
C177 C 0.37879 0.80213 0.81933 0.0
C178 C 0.40169 0.81378 0.85425 0.0
C179 C 0.43956 0.87164 0.89322 0.0
C180 C 0.4534 0.91774 0.89809 0.0
C181 C 0.41387 0.85989 0.86012 0.0
C182 C 0.43962 0.95222 0.87057 0.0
C183 C 0.41375 0.94079 0.83761 0.0
H184 H 0.66416 0.41787 0.6957 0.0
H185 H 0.55373 0.33876 0.75344 0.0
H186 H 0.51481 0.36632 0.69435 0.0
H187 H 0.51137 0.41381 0.62619 0.0
H188 H 0.61932 0.50067 0.57406 0.0
H189 H 0.65959 0.47016 0.63159 0.0
C190 C 0.63147 0.40713 0.69612 0.0
C191 C 0.61247 0.37545 0.72922 0.0
C192 C 0.6086 0.42473 0.6629 0.0
C193 C 0.56995 0.36179 0.72808 0.0
C194 C 0.54733 0.37798 0.69439 0.0
C195 C 0.54373 0.4259 0.6276 0.0
C196 C 0.56259 0.45905 0.59602 0.0
C197 C 0.56632 0.40933 0.66155 0.0
C198 C 0.60429 0.47516 0.59825 0.0
C199 C 0.62728 0.45766 0.63102 0.0
H200 H 0.85172 0.5995 0.20829 0.0
H201 H 0.96232 0.61302 0.27863 0.0
H202 H 1.00095 0.58947 0.21772 0.0
H203 H 0.00321 0.56399 0.14447 0.0
H204 H 0.89111 0.54652 0.07674 0.0
H205 H 0.85338 0.57187 0.13684 0.0
C206 C 0.88417 0.59676 0.21069 0.0
C207 C 0.90388 0.60806 0.24826 0.0
C208 C 0.90608 0.58238 0.17587 0.0
C209 C 0.94626 0.60522 0.25005 0.0
C210 C 0.96839 0.59138 0.21528 0.0
C211 C 0.97051 0.56561 0.14286 0.0
C212 C 0.95032 0.55386 0.10562 0.0
C213 C 0.94861 0.57977 0.178 0.0
C214 C 0.90782 0.55608 0.10442 0.0
C215 C 0.88604 0.57039 0.13897 0.0
H216 H 0.25095 0.13846 0.09878 0.0
H217 H 0.27963 0.12288 0.2323 0.0
H218 H 0.34044 0.08729 0.21315 0.0
H219 H 0.38508 0.05996 0.15833 0.0
H220 H 0.35803 0.08015 0.02472 0.0
H221 H 0.29721 0.11538 0.04409 0.0
C222 C 0.27085 0.12811 0.1237 0.0
C223 C 0.26062 0.13321 0.1669 0.0
C224 C 0.30598 0.10838 0.11247 0.0
C225 C 0.28642 0.1187 0.19881 0.0
C226 C 0.3213 0.09854 0.1879 0.0
C227 C 0.36574 0.07196 0.13356 0.0
C228 C 0.37574 0.06723 0.09026 0.0
C229 C 0.33118 0.09288 0.14485 0.0
C230 C 0.35088 0.08348 0.05831 0.0
C231 C 0.31611 0.10357 0.06933 0.0
H232 H 0.27542 0.86062 0.61794 0.0
H233 H 0.22782 0.84178 0.74946 0.0
H234 H 0.16813 0.87901 0.72941 0.0
H235 H 0.13098 0.92002 0.67548 0.0
H236 H 0.17778 0.93925 0.54369 0.0
H237 H 0.23576 0.89807 0.56277 0.0
C238 C 0.2517 0.86413 0.64207 0.0
C239 C 0.25638 0.84891 0.68524 0.0
C240 C 0.2173 0.88569 0.63032 0.0
C241 C 0.22544 0.85399 0.71616 0.0
C242 C 0.19115 0.87508 0.7047 0.0
C243 C 0.15368 0.915 0.65079 0.0
C244 C 0.15011 0.93302 0.60827 0.0
C245 C 0.18706 0.89165 0.66203 0.0
C246 C 0.17976 0.92586 0.57672 0.0
C247 C 0.21302 0.9024 0.58762 0.0
H248 H 0.71978 0.37126 0.89384 0.0
H249 H 0.7543 0.41865 0.76179 0.0
H250 H 0.81809 0.459 0.78404 0.0
H251 H 0.86497 0.47874 0.84047 0.0
H252 H 0.83179 0.42938 0.97234 0.0
H253 H 0.76695 0.39076 0.9504 0.0
C254 C 0.74138 0.39008 0.86982 0.0
C255 C 0.7322 0.3917 0.82612 0.0
C256 C 0.77842 0.41242 0.88273 0.0
C257 C 0.76022 0.41721 0.79565 0.0
C258 C 0.79692 0.43996 0.80831 0.0
C259 C 0.84367 0.45945 0.8645 0.0
C260 C 0.85336 0.45685 0.90801 0.0
C261 C 0.80647 0.43745 0.85169 0.0
C262 C 0.82523 0.4318 0.93863 0.0
C263 C 0.78808 0.40983 0.92611 0.0
H264 H 0.77716 0.59461 0.40932 0.0
H265 H 0.75763 0.58895 0.27404 0.0
H266 H 0.68646 0.55668 0.29057 0.0
H267 H 0.62947 0.5309 0.34328 0.0
H268 H 0.64827 0.54005 0.47828 0.0
H269 H 0.71969 0.5716 0.46174 0.0
C270 C 0.75731 0.58692 0.38331 0.0
C271 C 0.77303 0.59428 0.34043 0.0
C272 C 0.71609 0.56941 0.39294 0.0
C273 C 0.7468 0.58301 0.30736 0.0
C274 C 0.70589 0.56495 0.31675 0.0
C275 C 0.6491 0.54 0.36911 0.0
C276 C 0.63346 0.53308 0.41196 0.0
C277 C 0.69018 0.55813 0.35941 0.0
C278 C 0.65939 0.54515 0.44499 0.0
C279 C 0.70032 0.56301 0.43559 0.0
H280 H 0.12773 0.27018 0.18687 0.0
H281 H 0.18161 0.22155 0.07378 0.0
H282 H 0.15938 0.28514 0.02947 0.0
H283 H 0.125 0.35488 0.02306 0.0
H284 H 0.06682 0.39923 0.1358 0.0
H285 H 0.08899 0.33553 0.17981 0.0
C286 C 0.13395 0.2727 0.15243 0.0
C287 C 0.15642 0.241 0.13384 0.0
C288 C 0.11997 0.30833 0.12699 0.0
C289 C 0.16505 0.24586 0.0892 0.0
C290 C 0.152 0.28197 0.06372 0.0
C291 C 0.11695 0.35035 0.05721 0.0
C292 C 0.09452 0.38177 0.07619 0.0
C293 C 0.12955 0.31347 0.08233 0.0
C294 C 0.08397 0.37539 0.12039 0.0
C295 C 0.09682 0.33915 0.14563 0.0
H296 H 0.56882 0.2617 0.84513 0.0
H297 H 0.69236 0.22608 0.84564 0.0
H298 H 0.66869 0.15503 0.88992 0.0
H299 H 0.61297 0.10395 0.93002 0.0
H300 H 0.48931 0.13955 0.92768 0.0
H301 H 0.513 0.20949 0.88247 0.0
C302 C 0.59047 0.23804 0.85431 0.0
C303 C 0.63227 0.24923 0.84216 0.0
C304 C 0.5767 0.19737 0.87974 0.0
C305 C 0.66005 0.21852 0.85497 0.0
C306 C 0.64655 0.17786 0.88022 0.0
C307 C 0.59122 0.127 0.9196 0.0
C308 C 0.54945 0.1165 0.93235 0.0
C309 C 0.60498 0.16716 0.8932 0.0
C310 C 0.52165 0.1467 0.91839 0.0
C311 C 0.53513 0.18676 0.89246 0.0
H312 H 0.91539 0.7544 0.31871 0.0
H313 H 0.87219 0.66666 0.43229 0.0
H314 H 0.89362 0.72803 0.47738 0.0
H315 H 0.92053 0.80797 0.48436 0.0
H316 H 0.96307 0.89656 0.37093 0.0
H317 H 0.94644 0.83354 0.32617 0.0
C318 C 0.91135 0.74858 0.35336 0.0
C319 C 0.89197 0.7062 0.37212 0.0
C320 C 0.92335 0.78427 0.37916 0.0
C321 C 0.88659 0.69921 0.41707 0.0
C322 C 0.89885 0.73425 0.44289 0.0
C323 C 0.92646 0.81348 0.44989 0.0
C324 C 0.94275 0.85708 0.43111 0.0
C325 C 0.91654 0.77719 0.42425 0.0
C326 C 0.9504 0.86342 0.38633 0.0
C327 C 0.94086 0.82738 0.36063 0.0
H328 H 0.36013 0.77862 0.60172 0.0
H329 H 0.37325 0.69896 0.72125 0.0
H330 H 0.41006 0.64604 0.68352 0.0
H331 H 0.43938 0.62265 0.61687 0.0
H332 H 0.42315 0.69892 0.4965 0.0
H333 H 0.38685 0.75289 0.53415 0.0
C334 C 0.37055 0.74932 0.61936 0.0
C335 C 0.36435 0.74312 0.66428 0.0
C336 C 0.39157 0.71869 0.59739 0.0
C337 C 0.37827 0.70505 0.68674 0.0
C338 C 0.39929 0.67469 0.66521 0.0
C339 C 0.42829 0.6514 0.59896 0.0
C340 C 0.4344 0.65725 0.55412 0.0
C341 C 0.40656 0.68147 0.62065 0.0
C342 C 0.41902 0.69396 0.53115 0.0
C343 C 0.39815 0.7247 0.55262 0.0
H344 H 0.89676 0.87922 0.74443 0.0
H345 H 0.79102 0.87035 0.66685 0.0
H346 H 0.83219 0.91278 0.60616 0.0
H347 H 0.8989 0.94934 0.57493 0.0
H348 H 0.00429 0.95836 0.65367 0.0
H349 H 0.96241 0.91876 0.71441 0.0
C350 C 0.88285 0.88652 0.71412 0.0
C351 C 0.84127 0.87132 0.7096 0.0
C352 C 0.90655 0.91079 0.67979 0.0
C353 C 0.82311 0.88173 0.67074 0.0
C354 C 0.84662 0.90579 0.63617 0.0
C355 C 0.91273 0.94281 0.6054 0.0
C356 C 0.95478 0.95651 0.6096 0.0
C357 C 0.88848 0.92005 0.64026 0.0
C358 C 0.97206 0.94815 0.64946 0.0
C359 C 0.94817 0.92542 0.68422 0.0
H360 H 0.66438 0.10534 0.2167 0.0
H361 H 0.55984 0.11231 0.30281 0.0
H362 H 0.5137 0.09576 0.24571 0.0
H363 H 0.50281 0.08428 0.17018 0.0
H364 H 0.6055 0.06944 0.08506 0.0
H365 H 0.65266 0.08336 0.14302 0.0
C366 C 0.63152 0.1023 0.22327 0.0
C367 C 0.61582 0.11149 0.26382 0.0
C368 C 0.60482 0.09168 0.19037 0.0
C369 C 0.573 0.10714 0.27159 0.0
C370 C 0.54646 0.09737 0.239 0.0
C371 C 0.53554 0.08389 0.16451 0.0
C372 C 0.55097 0.07668 0.12356 0.0
C373 C 0.56205 0.09071 0.19806 0.0
C374 C 0.59318 0.0752 0.1165 0.0
C375 C 0.62003 0.08322 0.14955 0.0
H376 H 0.42781 0.6594 0.27582 0.0
H377 H 0.39115 0.52728 0.23021 0.0
H378 H 0.4149 0.4894 0.29555 0.0
H379 H 0.44684 0.49405 0.36566 0.0
H380 H 0.48469 0.62722 0.40903 0.0
H381 H 0.46031 0.66417 0.34432 0.0
C382 C 0.42549 0.62231 0.27978 0.0
C383 C 0.40794 0.59631 0.24793 0.0
C384 C 0.43948 0.60083 0.31714 0.0
C385 C 0.40426 0.5482 0.25431 0.0
C386 C 0.41803 0.5265 0.29159 0.0
C387 C 0.44973 0.53114 0.36094 0.0
C388 C 0.46752 0.55767 0.39241 0.0
C389 C 0.43574 0.55249 0.32327 0.0
C390 C 0.47109 0.60575 0.38559 0.0
C391 C 0.45715 0.62706 0.34848 0.0
H392 H 0.08748 0.41749 0.76565 0.0
H393 H 0.20147 0.41413 0.82897 0.0
H394 H 0.17274 0.44775 0.89048 0.0
H395 H 0.11472 0.4766 0.92708 0.0
H396 H 1.00071 0.48012 0.86338 0.0
H397 H 0.03002 0.44827 0.80148 0.0
C398 C 0.10594 0.42394 0.79302 0.0
C399 C 0.14653 0.41321 0.7927 0.0
C400 C 0.08927 0.44348 0.82827 0.0
C401 C 0.17025 0.42241 0.82819 0.0
C402 C 0.1538 0.44149 0.86347 0.0
C403 C 0.09627 0.47061 0.89964 0.0
C404 C 0.05542 0.4807 0.90026 0.0
C405 C 0.11329 0.45207 0.86395 0.0
C406 C 0.03221 0.47281 0.86408 0.0
C407 C 0.0489 0.45439 0.82856 0.0
H408 H 0.75191 0.92512 0.80604 0.0
H409 H 0.69369 0.78795 0.84371 0.0
H410 H 0.64046 0.81887 0.88501 0.0
H411 H 0.61119 0.88499 0.91146 0.0
H412 H 0.66673 0.02186 0.86902 0.0
H413 H 0.72012 0.99084 0.82788 0.0
C414 C 0.72713 0.90187 0.8224 0.0
C415 C 0.72699 0.85423 0.82183 0.0
C416 C 0.69632 0.91983 0.84547 0.0
C417 C 0.69496 0.82476 0.84411 0.0
C418 C 0.66443 0.84239 0.86764 0.0
C419 C 0.63515 0.90789 0.89332 0.0
C420 C 0.63551 0.95551 0.89354 0.0
C421 C 0.66509 0.88985 0.86894 0.0
C422 C 0.66607 0.98502 0.86933 0.0
C423 C 0.69651 0.96734 0.84583 0.0
H424 H 0.74104 0.11372 0.41225 0.0
H425 H 0.76273 0.10452 0.27648 0.0
H426 H 0.82721 0.07369 0.29028 0.0
H427 H 0.87755 0.04937 0.34093 0.0
H428 H 0.85638 0.0608 0.47645 0.0
H429 H 0.7921 0.0917 0.46248 0.0
C430 C 0.76006 0.10557 0.38554 0.0
C431 C 0.74687 0.11151 0.34335 0.0
C432 C 0.79736 0.08841 0.39363 0.0
C433 C 0.7717 0.09977 0.30933 0.0
C434 C 0.80877 0.08242 0.31716 0.0
C435 C 0.85897 0.05876 0.36742 0.0
C436 C 0.87188 0.05266 0.4097 0.0
C437 C 0.8219 0.07654 0.35919 0.0
C438 C 0.84733 0.06511 0.44359 0.0
C439 C 0.81046 0.08272 0.43565 0.0
H440 H 0.27922 0.67869 0.13537 0.0
H441 H 0.31035 0.54043 0.14011 0.0
H442 H 0.2446 0.51469 0.11048 0.0
H443 H 0.17856 0.53161 0.08298 0.0
H444 H 0.14659 0.66957 0.08002 0.0
H445 H 0.21274 0.69547 0.10862 0.0
C446 C 0.27169 0.64297 0.12966 0.0
C447 C 0.2997 0.61152 0.13972 0.0
C448 C 0.23384 0.62846 0.11273 0.0
C449 C 0.28921 0.56521 0.1329 0.0
C450 C 0.25174 0.55056 0.11573 0.0
C451 C 0.18613 0.56744 0.08829 0.0
C452 C 0.15773 0.59869 0.07908 0.0
C453 C 0.22389 0.58191 0.10542 0.0
C454 C 0.16788 0.64483 0.08674 0.0
C455 C 0.20568 0.65965 0.10315 0.0
H456 H 0.25031 0.40086 0.62019 0.0
H457 H 0.28876 0.41602 0.74922 0.0
H458 H 0.35755 0.4469 0.72129 0.0
H459 H 0.40628 0.47148 0.66055 0.0
H460 H 0.36892 0.4558 0.53131 0.0
H461 H 0.30052 0.42201 0.55917 0.0
C462 C 0.27385 0.41035 0.64227 0.0
C463 C 0.26409 0.40642 0.68681 0.0
C464 C 0.31361 0.42777 0.626 0.0
C465 C 0.29501 0.41948 0.7148 0.0
C466 C 0.33451 0.43683 0.69888 0.0
C467 C 0.38333 0.46041 0.63837 0.0
C468 C 0.39275 0.46639 0.59385 0.0
C469 C 0.34405 0.44147 0.65457 0.0
C470 C 0.36257 0.4516 0.56571 0.0
C471 C 0.32337 0.43246 0.58163 0.0
H472 H 0.82487 0.7718 0.88935 0.0
H473 H 0.84845 0.7134 0.77014 0.0
H474 H 0.88449 0.65556 0.80795 0.0
H475 H 0.90832 0.62108 0.87496 0.0
H476 H 0.88149 0.67704 0.99461 0.0
H477 H 0.84749 0.73649 0.95646 0.0
C478 C 0.83733 0.74598 0.87174 0.0
C479 C 0.83388 0.74673 0.82708 0.0
C480 C 0.85766 0.71273 0.89366 0.0
C481 C 0.85098 0.71367 0.80454 0.0
C482 C 0.87152 0.68061 0.8261 0.0
C483 C 0.89546 0.64665 0.89258 0.0
C484 C 0.89763 0.64505 0.9374 0.0
C485 C 0.87515 0.67994 0.87062 0.0
C486 C 0.88023 0.67778 0.96002 0.0
C487 C 0.86071 0.71163 0.93829 0.0
H488 H 0.369 0.76271 0.13156 0.0
H489 H 0.48339 0.70474 0.1326 0.0
H490 H 0.51938 0.77725 0.09924 0.0
H491 H 0.51753 0.8567 0.06731 0.0
H492 H 0.40174 0.91242 0.06621 0.0
H493 H 0.36724 0.84117 0.10158 0.0
C494 C 0.40177 0.76577 0.12417 0.0
C495 C 0.4234 0.72828 0.13412 0.0
C496 C 0.42205 0.80722 0.10484 0.0
C497 C 0.46604 0.73319 0.12535 0.0
C498 C 0.48658 0.77456 0.10611 0.0
C499 C 0.48482 0.85326 0.07506 0.0
C500 C 0.46232 0.88987 0.06384 0.0
C501 C 0.46483 0.81179 0.09541 0.0
C502 C 0.41989 0.8848 0.0741 0.0
C503 C 0.40001 0.84402 0.09442 0.0
H504 H 0.18862 0.25662 0.68225 0.0
H505 H 0.07855 0.323 0.68354 0.0
H506 H 0.04174 0.25853 0.65095 0.0
H507 H 0.04157 0.18433 0.61974 0.0
H508 H 0.15249 0.11914 0.61796 0.0
H509 H 0.18816 0.18229 0.6526 0.0
C510 C 0.15663 0.25717 0.67514 0.0
C511 C 0.13649 0.2948 0.68505 0.0
C512 C 0.1358 0.22021 0.65613 0.0
C513 C 0.09476 0.29438 0.6765 0.0
C514 C 0.07375 0.25763 0.65763 0.0
C515 C 0.07351 0.18386 0.62702 0.0
C516 C 0.09426 0.14699 0.616 0.0
C517 C 0.09404 0.22048 0.64699 0.0
C518 C 0.13567 0.14701 0.62587 0.0
C519 C 0.15618 0.18317 0.64572 0.0
H520 H 0.61413 0.25233 0.32619 0.0
H521 H 0.67075 0.19475 0.43709 0.0
H522 H 0.64658 0.25258 0.47991 0.0
H523 H 0.60764 0.31834 0.48649 0.0
H524 H 0.54615 0.37084 0.37695 0.0
H525 H 0.57261 0.31481 0.33354 0.0
C526 C 0.6207 0.25169 0.3599 0.0
C527 C 0.64425 0.21882 0.37817 0.0
C528 C 0.60536 0.28385 0.38483 0.0
C529 C 0.65334 0.21989 0.42172 0.0
C530 C 0.63912 0.2527 0.44646 0.0
C531 C 0.5999 0.31735 0.45317 0.0
C532 C 0.57493 0.34869 0.43502 0.0
C533 C 0.61486 0.28465 0.42843 0.0
C534 C 0.56504 0.34689 0.39184 0.0
C535 C 0.58036 0.31504 0.36689 0.0
loop_
_geom_bond_atom_site_label_1
_geom_bond_atom_site_label_2
_geom_bond_distance
_geom_bond_site_symmetry_2
_ccdc_geom_bond_type
H0 C3 0.931 . S
H1 C6 0.928 . S
H2 C8 0.930 . S
C3 H0 0.931 . S
C3 C4 1.413 . S
C3 C5 1.360 . S
C4 C3 1.413 . S
C4 C8 1.429 . S
C5 C3 1.360 . S
C5 C6 1.372 . S
C6 H1 0.928 . S
C6 C5 1.372 . S
C6 C7 1.404 . S
C7 C6 1.404 . S
C7 C8 1.391 . S
C8 H2 0.930 . S
C8 C4 1.429 . S
C8 C7 1.391 . S
H9 C12 0.931 . S
H10 C15 0.928 . S
H11 C17 0.930 . S
C12 H9 0.931 . S
C12 C13 1.413 . S
C12 C14 1.360 . S
C13 C12 1.413 . S
C13 C17 1.429 . S
C14 C12 1.360 . S
C14 C15 1.372 . S
C15 H10 0.928 . S
C15 C14 1.372 . S
C15 C16 1.404 . S
C16 C15 1.404 . S
C16 C17 1.391 . S
C17 H11 0.930 . S
C17 C13 1.429 . S
C17 C16 1.391 . S
H18 C21 0.931 . S
H19 C24 0.928 . S
H20 C26 0.930 . S
C21 H18 0.931 . S
C21 C22 1.413 . S
C21 C23 1.360 . S
C22 C21 1.413 . S
C22 C26 1.429 . S
C23 C21 1.360 . S
C23 C24 1.372 . S
C24 H19 0.928 . S
C24 C23 1.372 . S
C24 C25 1.404 . S
C25 C24 1.404 . S
C25 C26 1.391 . S
C26 H20 0.930 . S
C26 C22 1.429 . S
C26 C25 1.391 . S
H27 C30 0.931 . S
H28 C33 0.928 . S
H29 C35 0.930 . S
C30 H27 0.931 . S
C30 C31 1.413 . S
C30 C32 1.360 . S
C31 C30 1.413 . S
C31 C35 1.429 . S
C32 C30 1.360 . S
C32 C33 1.372 . S
C33 H28 0.928 . S
C33 C32 1.372 . S
C33 C34 1.404 . S
C34 C33 1.404 . S
C34 C35 1.391 . S
C35 H29 0.930 . S
C35 C31 1.429 . S
C35 C34 1.391 . S
H36 C39 0.931 . S
H37 C42 0.928 . S
H38 C44 0.930 . S
C39 H36 0.931 . S
C39 C40 1.413 . S
C39 C41 1.360 . S
C40 C39 1.413 . S
C40 C44 1.429 . S
C41 C39 1.360 . S
C41 C42 1.372 . S
C42 H37 0.928 . S
C42 C41 1.372 . S
C42 C43 1.404 . S
C43 C42 1.404 . S
C43 C44 1.391 . S
C44 H38 0.930 . S
C44 C40 1.429 . S
C44 C43 1.391 . S
H45 C48 0.931 . S
H46 C51 0.928 . S
H47 C53 0.930 . S
C48 H45 0.931 . S
C48 C49 1.413 . S
C48 C50 1.360 . S
C49 C48 1.413 . S
C49 C53 1.429 . S
C50 C48 1.360 . S
C50 C51 1.372 . S
C51 H46 0.928 . S
C51 C50 1.372 . S
C51 C52 1.404 . S
C52 C51 1.404 . S
C52 C53 1.391 . S
C53 H47 0.930 . S
C53 C49 1.429 . S
C53 C52 1.391 . S
H54 C57 0.931 . S
H55 C60 0.928 . S
H56 C62 0.930 . S
C57 H54 0.931 . S
C57 C58 1.413 . S
C57 C59 1.360 . S
C58 C57 1.413 . S
C58 C62 1.429 . S
C59 C57 1.360 . S
C59 C60 1.372 . S
C60 H55 0.928 . S
C60 C59 1.372 . S
C60 C61 1.404 . S
C61 C60 1.404 . S
C61 C62 1.391 . S
C62 H56 0.930 . S
C62 C58 1.429 . S
C62 C61 1.391 . S
H63 C66 0.931 . S
H64 C69 0.928 . S
H65 C71 0.930 . S
C66 H63 0.931 . S
C66 C67 1.413 . S
C66 C68 1.360 . S
C67 C66 1.413 . S
C67 C71 1.429 . S
C68 C66 1.360 . S
C68 C69 1.372 . S
C69 H64 0.928 . S
C69 C68 1.372 . S
C69 C70 1.404 . S
C70 C69 1.404 . S
C70 C71 1.391 . S
C71 H65 0.930 . S
C71 C67 1.429 . S
C71 C70 1.391 . S
Zn72 O78 1.969 1_545 S
Zn72 O79 1.965 1_545 S
Zn72 O83 2.024 . S
Zn72 O88 1.969 . S
Zn73 O80 1.969 . S
Zn73 O86 1.969 1_565 S
Zn73 O87 1.965 1_665 S
Zn73 O89 2.024 . S
C74 O75 1.229 . S
C74 O83 1.058 . S
O75 C74 1.229 . S
C76 O77 1.229 . S
C76 O89 1.058 . S
O77 C76 1.229 . S
O78 Zn72 1.969 1_565 S
O78 C81 1.267 . S
O79 Zn72 1.965 1_565 S
O79 C90 1.260 1_455 S
O80 Zn73 1.969 . S
O80 C90 1.258 . S
C81 O78 1.267 . S
C81 O82 1.228 . S
O82 C81 1.228 . S
O83 Zn72 2.024 . S
O83 C74 1.058 . S
C84 O85 1.228 . S
C84 O86 1.267 . S
O85 C84 1.228 . S
O86 Zn73 1.969 1_545 S
O86 C84 1.267 . S
O87 Zn73 1.965 1_445 S
O87 C91 1.260 . S
O88 Zn72 1.969 . S
O88 C91 1.258 . S
O89 Zn73 2.024 . S
O89 C76 1.058 . S
C90 O79 1.260 1_655 S
C90 O80 1.258 . S
C91 O87 1.260 . S
C91 O88 1.258 . S
Zn92 O98 1.969 . S
Zn92 O99 1.965 1_565 S
Zn92 O103 2.024 . S
Zn92 O108 1.969 1_556 S
Zn93 O100 1.969 . S
Zn93 O106 1.969 . S
Zn93 O107 1.965 1_545 S
Zn93 O109 2.024 . S
C94 O95 1.229 . S
C94 O103 1.058 . S
O95 C94 1.229 . S
C96 O97 1.229 . S
C96 O109 1.058 . S
O97 C96 1.229 . S
O98 Zn92 1.969 . S
O98 C101 1.267 . S
O99 Zn92 1.965 1_545 S
O99 C110 1.260 . S
O100 Zn93 1.969 . S
O100 C110 1.258 1_554 S
C101 O98 1.267 . S
C101 O102 1.228 . S
O102 C101 1.228 . S
O103 Zn92 2.024 . S
O103 C94 1.058 . S
C104 O105 1.228 . S
C104 O106 1.267 . S
O105 C104 1.228 . S
O106 Zn93 1.969 . S
O106 C104 1.267 . S
O107 Zn93 1.965 1_565 S
O107 C111 1.260 . S
O108 Zn92 1.969 1_554 S
O108 C111 1.258 . S
O109 Zn93 2.024 . S
O109 C96 1.058 . S
C110 O99 1.260 . S
C110 O100 1.258 1_556 S
C111 O107 1.260 . S
C111 O108 1.258 . S
Zn112 O118 1.969 . S
Zn112 O119 1.965 . S
Zn112 O123 2.024 . S
Zn112 O128 1.969 . S
Zn113 O120 1.969 . S
Zn113 O126 1.969 . S
Zn113 O127 1.965 . S
Zn113 O129 2.024 . S
C114 O115 1.229 . S
C114 O123 1.058 . S
O115 C114 1.229 . S
C116 O117 1.229 . S
C116 O129 1.058 . S
O117 C116 1.229 . S
O118 Zn112 1.969 . S
O118 C121 1.267 . S
O119 Zn112 1.965 . S
O119 C130 1.260 . S
O120 Zn113 1.969 . S
O120 C130 1.258 . S
C121 O118 1.267 . S
C121 O122 1.228 . S
O122 C121 1.228 . S
O123 Zn112 2.024 . S
O123 C114 1.058 . S
C124 O125 1.228 . S
C124 O126 1.267 . S
O125 C124 1.228 . S
O126 Zn113 1.969 . S
O126 C124 1.267 . S
O127 Zn113 1.965 . S
O127 C131 1.260 . S
O128 Zn112 1.969 . S
O128 C131 1.258 . S
O129 Zn113 2.024 . S
O129 C116 1.058 . S
C130 O119 1.260 . S
C130 O120 1.258 . S
C131 O127 1.260 . S
C131 O128 1.258 . S
Zn132 O138 1.969 . S
Zn132 O139 1.965 1_556 S
Zn132 O143 2.024 . S
Zn132 O148 1.969 1_655 S
Zn133 O140 1.969 . S
Zn133 O146 1.969 . S
Zn133 O147 1.965 1_554 S
Zn133 O149 2.024 . S
C134 O135 1.229 . S
C134 O143 1.058 . S
O135 C134 1.229 . S
C136 O137 1.229 . S
C136 O149 1.058 . S
O137 C136 1.229 . S
O138 Zn132 1.969 . S
O138 C141 1.267 . S
O139 Zn132 1.965 1_554 S
O139 C150 1.260 . S
O140 Zn133 1.969 . S
O140 C150 1.258 1_455 S
C141 O138 1.267 . S
C141 O142 1.228 . S
O142 C141 1.228 . S
O143 Zn132 2.024 . S
O143 C134 1.058 . S
C144 O145 1.228 . S
C144 O146 1.267 . S
O145 C144 1.228 . S
O146 Zn133 1.969 . S
O146 C144 1.267 . S
O147 Zn133 1.965 1_556 S
O147 C151 1.260 . S
O148 Zn132 1.969 1_455 S
O148 C151 1.258 . S
O149 Zn133 2.024 . S
O149 C136 1.058 . S
C150 O139 1.260 . S
C150 O140 1.258 1_655 S
C151 O147 1.260 . S
C151 O148 1.258 . S
H152 C158 0.930 . S
H153 C161 0.930 . S
H154 C162 0.930 . S
H155 C163 0.930 . S
H156 C166 0.930 . S
H157 C167 0.930 . S
C158 H152 0.930 . S
C158 C159 1.355 . S
C158 C160 1.415 . S
C159 C158 1.355 . S
C159 C161 1.419 . S
C160 C158 1.415 . S
C160 C165 1.425 . S
C160 C167 1.409 . S
C161 H153 0.930 . S
C161 C159 1.419 . S
C161 C162 1.362 . S
C162 H154 0.930 . S
C162 C161 1.362 . S
C162 C165 1.409 . S
C163 H155 0.930 . S
C163 C164 1.355 . S
C163 C165 1.415 . S
C164 C163 1.355 . S
C164 C166 1.419 . S
C165 C160 1.425 . S
C165 C162 1.409 . S
C165 C163 1.415 . S
C166 H156 0.930 . S
C166 C164 1.419 . S
C166 C167 1.362 . S
C167 H157 0.930 . S
C167 C160 1.409 . S
C167 C166 1.362 . S
H168 C174 0.930 . S
H169 C177 0.930 . S
H170 C178 0.930 . S
H171 C179 0.930 . S
H172 C182 0.930 . S
H173 C183 0.930 . S
C174 H168 0.930 . S
C174 C175 1.355 . S
C174 C176 1.415 . S
C175 C174 1.355 . S
C175 C177 1.419 . S
C176 C174 1.415 . S
C176 C181 1.425 . S
C176 C183 1.409 . S
C177 H169 0.930 . S
C177 C175 1.419 . S
C177 C178 1.362 . S
C178 H170 0.930 . S
C178 C177 1.362 . S
C178 C181 1.409 . S
C179 H171 0.930 . S
C179 C180 1.355 . S
C179 C181 1.415 . S
C180 C179 1.355 . S
C180 C182 1.419 . S
C181 C176 1.425 . S
C181 C178 1.409 . S
C181 C179 1.415 . S
C182 H172 0.930 . S
C182 C180 1.419 . S
C182 C183 1.362 . S
C183 H173 0.930 . S
C183 C176 1.409 . S
C183 C182 1.362 . S
H184 C190 0.930 . S
H185 C193 0.930 . S
H186 C194 0.930 . S
H187 C195 0.930 . S
H188 C198 0.930 . S
H189 C199 0.930 . S
C190 H184 0.930 . S
C190 C191 1.355 . S
C190 C192 1.415 . S
C191 C190 1.355 . S
C191 C193 1.419 . S
C192 C190 1.415 . S
C192 C197 1.425 . S
C192 C199 1.409 . S
C193 H185 0.930 . S
C193 C191 1.419 . S
C193 C194 1.362 . S
C194 H186 0.930 . S
C194 C193 1.362 . S
C194 C197 1.409 . S
C195 H187 0.930 . S
C195 C196 1.355 . S
C195 C197 1.415 . S
C196 C195 1.355 . S
C196 C198 1.419 . S
C197 C192 1.425 . S
C197 C194 1.409 . S
C197 C195 1.415 . S
C198 H188 0.930 . S
C198 C196 1.419 . S
C198 C199 1.362 . S
C199 H189 0.930 . S
C199 C192 1.409 . S
C199 C198 1.362 . S
H200 C206 0.930 . S
H201 C209 0.930 . S
H202 C210 0.930 . S
H203 C211 0.930 . S
H204 C214 0.930 . S
H205 C215 0.930 . S
C206 H200 0.930 . S
C206 C207 1.355 . S
C206 C208 1.415 . S
C207 C206 1.355 . S
C207 C209 1.419 . S
C208 C206 1.415 . S
C208 C213 1.425 . S
C208 C215 1.409 . S
C209 H201 0.930 . S
C209 C207 1.419 . S
C209 C210 1.362 . S
C210 H202 0.930 . S
C210 C209 1.362 . S
C210 C213 1.409 . S
C211 H203 0.930 . S
C211 C212 1.355 . S
C211 C213 1.415 . S
C212 C211 1.355 . S
C212 C214 1.419 . S
C213 C208 1.425 . S
C213 C210 1.409 . S
C213 C211 1.415 . S
C214 H204 0.930 . S
C214 C212 1.419 . S
C214 C215 1.362 . S
C215 H205 0.930 . S
C215 C208 1.409 . S
C215 C214 1.362 . S
H216 C222 0.930 . S
H217 C225 0.930 . S
H218 C226 0.930 . S
H219 C227 0.930 . S
H220 C230 0.930 . S
H221 C231 0.930 . S
C222 H216 0.930 . S
C222 C223 1.355 . S
C222 C224 1.415 . S
C223 C222 1.355 . S
C223 C225 1.419 . S
C224 C222 1.415 . S
C224 C229 1.425 . S
C224 C231 1.409 . S
C225 H217 0.930 . S
C225 C223 1.419 . S
C225 C226 1.362 . S
C226 H218 0.930 . S
C226 C225 1.362 . S
C226 C229 1.409 . S
C227 H219 0.930 . S
C227 C228 1.355 . S
C227 C229 1.415 . S
C228 C227 1.355 . S
C228 C230 1.419 . S
C229 C224 1.425 . S
C229 C226 1.409 . S
C229 C227 1.415 . S
C230 H220 0.930 . S
C230 C228 1.419 . S
C230 C231 1.362 . S
C231 H221 0.930 . S
C231 C224 1.409 . S
C231 C230 1.362 . S
H232 C238 0.930 . S
H233 C241 0.930 . S
H234 C242 0.930 . S
H235 C243 0.930 . S
H236 C246 0.930 . S
H237 C247 0.930 . S
C238 H232 0.930 . S
C238 C239 1.355 . S
C238 C240 1.415 . S
C239 C238 1.355 . S
C239 C241 1.419 . S
C240 C238 1.415 . S
C240 C245 1.425 . S
C240 C247 1.409 . S
C241 H233 0.930 . S
C241 C239 1.419 . S
C241 C242 1.362 . S
C242 H234 0.930 . S
C242 C241 1.362 . S
C242 C245 1.409 . S
C243 H235 0.930 . S
C243 C244 1.355 . S
C243 C245 1.415 . S
C244 C243 1.355 . S
C244 C246 1.419 . S
C245 C240 1.425 . S
C245 C242 1.409 . S
C245 C243 1.415 . S
C246 H236 0.930 . S
C246 C244 1.419 . S
C246 C247 1.362 . S
C247 H237 0.930 . S
C247 C240 1.409 . S
C247 C246 1.362 . S
H248 C254 0.930 . S
H249 C257 0.930 . S
H250 C258 0.930 . S
H251 C259 0.930 . S
H252 C262 0.930 . S
H253 C263 0.930 . S
C254 H248 0.930 . S
C254 C255 1.355 . S
C254 C256 1.415 . S
C255 C254 1.355 . S
C255 C257 1.419 . S
C256 C254 1.415 . S
C256 C261 1.425 . S
C256 C263 1.409 . S
C257 H249 0.930 . S
C257 C255 1.419 . S
C257 C258 1.362 . S
C258 H250 0.930 . S
C258 C257 1.362 . S
C258 C261 1.409 . S
C259 H251 0.930 . S
C259 C260 1.355 . S
C259 C261 1.415 . S
C260 C259 1.355 . S
C260 C262 1.419 . S
C261 C256 1.425 . S
C261 C258 1.409 . S
C261 C259 1.415 . S
C262 H252 0.930 . S
C262 C260 1.419 . S
C262 C263 1.362 . S
C263 H253 0.930 . S
C263 C256 1.409 . S
C263 C262 1.362 . S
H264 C270 0.930 . S
H265 C273 0.930 . S
H266 C274 0.930 . S
H267 C275 0.930 . S
H268 C278 0.930 . S
H269 C279 0.930 . S
C270 H264 0.930 . S
C270 C271 1.355 . S
C270 C272 1.415 . S
C271 C270 1.355 . S
C271 C273 1.419 . S
C272 C270 1.415 . S
C272 C277 1.425 . S
C272 C279 1.409 . S
C273 H265 0.930 . S
C273 C271 1.419 . S
C273 C274 1.362 . S
C274 H266 0.930 . S
C274 C273 1.362 . S
C274 C277 1.409 . S
C275 H267 0.930 . S
C275 C276 1.355 . S
C275 C277 1.415 . S
C276 C275 1.355 . S
C276 C278 1.419 . S
C277 C272 1.425 . S
C277 C274 1.409 . S
C277 C275 1.415 . S
C278 H268 0.930 . S
C278 C276 1.419 . S
C278 C279 1.362 . S
C279 H269 0.930 . S
C279 C272 1.409 . S
C279 C278 1.362 . S
H280 C286 0.930 . S
H281 C289 0.930 . S
H282 C290 0.930 . S
H283 C291 0.930 . S
H284 C294 0.930 . S
H285 C295 0.930 . S
C286 H280 0.930 . S
C286 C287 1.355 . S
C286 C288 1.415 . S
C287 C286 1.355 . S
C287 C289 1.419 . S
C288 C286 1.415 . S
C288 C293 1.425 . S
C288 C295 1.409 . S
C289 H281 0.930 . S
C289 C287 1.419 . S
C289 C290 1.362 . S
C290 H282 0.930 . S
C290 C289 1.362 . S
C290 C293 1.409 . S
C291 H283 0.930 . S
C291 C292 1.355 . S
C291 C293 1.415 . S
C292 C291 1.355 . S
C292 C294 1.419 . S
C293 C288 1.425 . S
C293 C290 1.409 . S
C293 C291 1.415 . S
C294 H284 0.930 . S
C294 C292 1.419 . S
C294 C295 1.362 . S
C295 H285 0.930 . S
C295 C288 1.409 . S
C295 C294 1.362 . S
H296 C302 0.930 . S
H297 C305 0.930 . S
H298 C306 0.930 . S
H299 C307 0.930 . S
H300 C310 0.930 . S
H301 C311 0.930 . S
C302 H296 0.930 . S
C302 C303 1.355 . S
C302 C304 1.415 . S
C303 C302 1.355 . S
C303 C305 1.419 . S
C304 C302 1.415 . S
C304 C309 1.425 . S
C304 C311 1.409 . S
C305 H297 0.930 . S
C305 C303 1.419 . S
C305 C306 1.362 . S
C306 H298 0.930 . S
C306 C305 1.362 . S
C306 C309 1.409 . S
C307 H299 0.930 . S
C307 C308 1.355 . S
C307 C309 1.415 . S
C308 C307 1.355 . S
C308 C310 1.419 . S
C309 C304 1.425 . S
C309 C306 1.409 . S
C309 C307 1.415 . S
C310 H300 0.930 . S
C310 C308 1.419 . S
C310 C311 1.362 . S
C311 H301 0.930 . S
C311 C304 1.409 . S
C311 C310 1.362 . S
H312 C318 0.930 . S
H313 C321 0.930 . S
H314 C322 0.930 . S
H315 C323 0.930 . S
H316 C326 0.930 . S
H317 C327 0.930 . S
C318 H312 0.930 . S
C318 C319 1.355 . S
C318 C320 1.415 . S
C319 C318 1.355 . S
C319 C321 1.419 . S
C320 C318 1.415 . S
C320 C325 1.425 . S
C320 C327 1.409 . S
C321 H313 0.930 . S
C321 C319 1.419 . S
C321 C322 1.362 . S
C322 H314 0.930 . S
C322 C321 1.362 . S
C322 C325 1.409 . S
C323 H315 0.930 . S
C323 C324 1.355 . S
C323 C325 1.415 . S
C324 C323 1.355 . S
C324 C326 1.419 . S
C325 C320 1.425 . S
C325 C322 1.409 . S
C325 C323 1.415 . S
C326 H316 0.930 . S
C326 C324 1.419 . S
C326 C327 1.362 . S
C327 H317 0.930 . S
C327 C320 1.409 . S
C327 C326 1.362 . S
H328 C334 0.930 . S
H329 C337 0.930 . S
H330 C338 0.930 . S
H331 C339 0.930 . S
H332 C342 0.930 . S
H333 C343 0.930 . S
C334 H328 0.930 . S
C334 C335 1.355 . S
C334 C336 1.415 . S
C335 C334 1.355 . S
C335 C337 1.419 . S
C336 C334 1.415 . S
C336 C341 1.425 . S
C336 C343 1.409 . S
C337 H329 0.930 . S
C337 C335 1.419 . S
C337 C338 1.362 . S
C338 H330 0.930 . S
C338 C337 1.362 . S
C338 C341 1.409 . S
C339 H331 0.930 . S
C339 C340 1.355 . S
C339 C341 1.415 . S
C340 C339 1.355 . S
C340 C342 1.419 . S
C341 C336 1.425 . S
C341 C338 1.409 . S
C341 C339 1.415 . S
C342 H332 0.930 . S
C342 C340 1.419 . S
C342 C343 1.362 . S
C343 H333 0.930 . S
C343 C336 1.409 . S
C343 C342 1.362 . S
H344 C350 0.930 . S
H345 C353 0.930 . S
H346 C354 0.930 . S
H347 C355 0.930 . S
H348 C358 0.930 1_545 S
H349 C359 0.930 . S
C350 H344 0.930 . S
C350 C351 1.355 . S
C350 C352 1.415 . S
C351 C350 1.355 . S
C351 C353 1.419 . S
C352 C350 1.415 . S
C352 C357 1.425 . S
C352 C359 1.409 . S
C353 H345 0.930 . S
C353 C351 1.419 . S
C353 C354 1.362 . S
C354 H346 0.930 . S
C354 C353 1.362 . S
C354 C357 1.409 . S
C355 H347 0.930 . S
C355 C356 1.355 . S
C355 C357 1.415 . S
C356 C355 1.355 . S
C356 C358 1.419 . S
C357 C352 1.425 . S
C357 C354 1.409 . S
C357 C355 1.415 . S
C358 H348 0.930 1_565 S
C358 C356 1.419 . S
C358 C359 1.362 . S
C359 H349 0.930 . S
C359 C352 1.409 . S
C359 C358 1.362 . S
H360 C366 0.930 . S
H361 C369 0.930 . S
H362 C370 0.930 . S
H363 C371 0.930 . S
H364 C374 0.930 . S
H365 C375 0.930 . S
C366 H360 0.930 . S
C366 C367 1.355 . S
C366 C368 1.415 . S
C367 C366 1.355 . S
C367 C369 1.419 . S
C368 C366 1.415 . S
C368 C373 1.425 . S
C368 C375 1.409 . S
C369 H361 0.930 . S
C369 C367 1.419 . S
C369 C370 1.362 . S
C370 H362 0.930 . S
C370 C369 1.362 . S
C370 C373 1.409 . S
C371 H363 0.930 . S
C371 C372 1.355 . S
C371 C373 1.415 . S
C372 C371 1.355 . S
C372 C374 1.419 . S
C373 C368 1.425 . S
C373 C370 1.409 . S
C373 C371 1.415 . S
C374 H364 0.930 . S
C374 C372 1.419 . S
C374 C375 1.362 . S
C375 H365 0.930 . S
C375 C368 1.409 . S
C375 C374 1.362 . S
H376 C382 0.930 . S
H377 C385 0.930 . S
H378 C386 0.930 . S
H379 C387 0.930 . S
H380 C390 0.930 . S
H381 C391 0.930 . S
C382 H376 0.930 . S
C382 C383 1.355 . S
C382 C384 1.415 . S
C383 C382 1.355 . S
C383 C385 1.419 . S
C384 C382 1.415 . S
C384 C389 1.425 . S
C384 C391 1.409 . S
C385 H377 0.930 . S
C385 C383 1.419 . S
C385 C386 1.362 . S
C386 H378 0.930 . S
C386 C385 1.362 . S
C386 C389 1.409 . S
C387 H379 0.930 . S
C387 C388 1.355 . S
C387 C389 1.415 . S
C388 C387 1.355 . S
C388 C390 1.419 . S
C389 C384 1.425 . S
C389 C386 1.409 . S
C389 C387 1.415 . S
C390 H380 0.930 . S
C390 C388 1.419 . S
C390 C391 1.362 . S
C391 H381 0.930 . S
C391 C384 1.409 . S
C391 C390 1.362 . S
H392 C398 0.930 . S
H393 C401 0.930 . S
H394 C402 0.930 . S
H395 C403 0.930 . S
H396 C406 0.930 . S
H397 C407 0.930 . S
C398 H392 0.930 . S
C398 C399 1.355 . S
C398 C400 1.415 . S
C399 C398 1.355 . S
C399 C401 1.419 . S
C400 C398 1.415 . S
C400 C405 1.425 . S
C400 C407 1.409 . S
C401 H393 0.930 . S
C401 C399 1.419 . S
C401 C402 1.362 . S
C402 H394 0.930 . S
C402 C401 1.362 . S
C402 C405 1.409 . S
C403 H395 0.930 . S
C403 C404 1.355 . S
C403 C405 1.415 . S
C404 C403 1.355 . S
C404 C406 1.419 . S
C405 C400 1.425 . S
C405 C402 1.409 . S
C405 C403 1.415 . S
C406 H396 0.930 . S
C406 C404 1.419 . S
C406 C407 1.362 . S
C407 H397 0.930 . S
C407 C400 1.409 . S
C407 C406 1.362 . S
H408 C414 0.930 . S
H409 C417 0.930 . S
H410 C418 0.930 . S
H411 C419 0.930 . S
H412 C422 0.930 . S
H413 C423 0.930 . S
C414 H408 0.930 . S
C414 C415 1.355 . S
C414 C416 1.415 . S
C415 C414 1.355 . S
C415 C417 1.419 . S
C416 C414 1.415 . S
C416 C421 1.425 . S
C416 C423 1.409 . S
C417 H409 0.930 . S
C417 C415 1.419 . S
C417 C418 1.362 . S
C418 H410 0.930 . S
C418 C417 1.362 . S
C418 C421 1.409 . S
C419 H411 0.930 . S
C419 C420 1.355 . S
C419 C421 1.415 . S
C420 C419 1.355 . S
C420 C422 1.419 . S
C421 C416 1.425 . S
C421 C418 1.409 . S
C421 C419 1.415 . S
C422 H412 0.930 . S
C422 C420 1.419 . S
C422 C423 1.362 . S
C423 H413 0.930 . S
C423 C416 1.409 . S
C423 C422 1.362 . S
H424 C430 0.930 . S
H425 C433 0.930 . S
H426 C434 0.930 . S
H427 C435 0.930 . S
H428 C438 0.930 . S
H429 C439 0.930 . S
C430 H424 0.930 . S
C430 C431 1.355 . S
C430 C432 1.415 . S
C431 C430 1.355 . S
C431 C433 1.419 . S
C432 C430 1.415 . S
C432 C437 1.425 . S
C432 C439 1.409 . S
C433 H425 0.930 . S
C433 C431 1.419 . S
C433 C434 1.362 . S
C434 H426 0.930 . S
C434 C433 1.362 . S
C434 C437 1.409 . S
C435 H427 0.930 . S
C435 C436 1.355 . S
C435 C437 1.415 . S
C436 C435 1.355 . S
C436 C438 1.419 . S
C437 C432 1.425 . S
C437 C434 1.409 . S
C437 C435 1.415 . S
C438 H428 0.930 . S
C438 C436 1.419 . S
C438 C439 1.362 . S
C439 H429 0.930 . S
C439 C432 1.409 . S
C439 C438 1.362 . S
H440 C446 0.930 . S
H441 C449 0.930 . S
H442 C450 0.930 . S
H443 C451 0.930 . S
H444 C454 0.930 . S
H445 C455 0.930 . S
C446 H440 0.930 . S
C446 C447 1.355 . S
C446 C448 1.415 . S
C447 C446 1.355 . S
C447 C449 1.419 . S
C448 C446 1.415 . S
C448 C453 1.425 . S
C448 C455 1.409 . S
C449 H441 0.930 . S
C449 C447 1.419 . S
C449 C450 1.362 . S
C450 H442 0.930 . S
C450 C449 1.362 . S
C450 C453 1.409 . S
C451 H443 0.930 . S
C451 C452 1.355 . S
C451 C453 1.415 . S
C452 C451 1.355 . S
C452 C454 1.419 . S
C453 C448 1.425 . S
C453 C450 1.409 . S
C453 C451 1.415 . S
C454 H444 0.930 . S
C454 C452 1.419 . S
C454 C455 1.362 . S
C455 H445 0.930 . S
C455 C448 1.409 . S
C455 C454 1.362 . S
H456 C462 0.930 . S
H457 C465 0.930 . S
H458 C466 0.930 . S
H459 C467 0.930 . S
H460 C470 0.930 . S
H461 C471 0.930 . S
C462 H456 0.930 . S
C462 C463 1.355 . S
C462 C464 1.415 . S
C463 C462 1.355 . S
C463 C465 1.419 . S
C464 C462 1.415 . S
C464 C469 1.425 . S
C464 C471 1.409 . S
C465 H457 0.930 . S
C465 C463 1.419 . S
C465 C466 1.362 . S
C466 H458 0.930 . S
C466 C465 1.362 . S
C466 C469 1.409 . S
C467 H459 0.930 . S
C467 C468 1.355 . S
C467 C469 1.415 . S
C468 C467 1.355 . S
C468 C470 1.419 . S
C469 C464 1.425 . S
C469 C466 1.409 . S
C469 C467 1.415 . S
C470 H460 0.930 . S
C470 C468 1.419 . S
C470 C471 1.362 . S
C471 H461 0.930 . S
C471 C464 1.409 . S
C471 C470 1.362 . S
H472 C478 0.930 . S
H473 C481 0.930 . S
H474 C482 0.930 . S
H475 C483 0.930 . S
H476 C486 0.930 . S
H477 C487 0.930 . S
C478 H472 0.930 . S
C478 C479 1.355 . S
C478 C480 1.415 . S
C479 C478 1.355 . S
C479 C481 1.419 . S
C480 C478 1.415 . S
C480 C485 1.425 . S
C480 C487 1.409 . S
C481 H473 0.930 . S
C481 C479 1.419 . S
C481 C482 1.362 . S
C482 H474 0.930 . S
C482 C481 1.362 . S
C482 C485 1.409 . S
C483 H475 0.930 . S
C483 C484 1.355 . S
C483 C485 1.415 . S
C484 C483 1.355 . S
C484 C486 1.419 . S
C485 C480 1.425 . S
C485 C482 1.409 . S
C485 C483 1.415 . S
C486 H476 0.930 . S
C486 C484 1.419 . S
C486 C487 1.362 . S
C487 H477 0.930 . S
C487 C480 1.409 . S
C487 C486 1.362 . S
H488 C494 0.930 . S
H489 C497 0.930 . S
H490 C498 0.930 . S
H491 C499 0.930 . S
H492 C502 0.930 . S
H493 C503 0.930 . S
C494 H488 0.930 . S
C494 C495 1.355 . S
C494 C496 1.415 . S
C495 C494 1.355 . S
C495 C497 1.419 . S
C496 C494 1.415 . S
C496 C501 1.425 . S
C496 C503 1.409 . S
C497 H489 0.930 . S
C497 C495 1.419 . S
C497 C498 1.362 . S
C498 H490 0.930 . S
C498 C497 1.362 . S
C498 C501 1.409 . S
C499 H491 0.930 . S
C499 C500 1.355 . S
C499 C501 1.415 . S
C500 C499 1.355 . S
C500 C502 1.419 . S
C501 C496 1.425 . S
C501 C498 1.409 . S
C501 C499 1.415 . S
C502 H492 0.930 . S
C502 C500 1.419 . S
C502 C503 1.362 . S
C503 H493 0.930 . S
C503 C496 1.409 . S
C503 C502 1.362 . S
H504 C510 0.930 . S
H505 C513 0.930 . S
H506 C514 0.930 . S
H507 C515 0.930 . S
H508 C518 0.930 . S
H509 C519 0.930 . S
C510 H504 0.930 . S
C510 C511 1.355 . S
C510 C512 1.415 . S
C511 C510 1.355 . S
C511 C513 1.419 . S
C512 C510 1.415 . S
C512 C517 1.425 . S
C512 C519 1.409 . S
C513 H505 0.930 . S
C513 C511 1.419 . S
C513 C514 1.362 . S
C514 H506 0.930 . S
C514 C513 1.362 . S
C514 C517 1.409 . S
C515 H507 0.930 . S
C515 C516 1.355 . S
C515 C517 1.415 . S
C516 C515 1.355 . S
C516 C518 1.419 . S
C517 C512 1.425 . S
C517 C514 1.409 . S
C517 C515 1.415 . S
C518 H508 0.930 . S
C518 C516 1.419 . S
C518 C519 1.362 . S
C519 H509 0.930 . S
C519 C512 1.409 . S
C519 C518 1.362 . S
H520 C526 0.930 . S
H521 C529 0.930 . S
H522 C530 0.930 . S
H523 C531 0.930 . S
H524 C534 0.930 . S
H525 C535 0.930 . S
C526 H520 0.930 . S
C526 C527 1.355 . S
C526 C528 1.415 . S
C527 C526 1.355 . S
C527 C529 1.419 . S
C528 C526 1.415 . S
C528 C533 1.425 . S
C528 C535 1.409 . S
C529 H521 0.930 . S
C529 C527 1.419 . S
C529 C530 1.362 . S
C530 H522 0.930 . S
C530 C529 1.362 . S
C530 C533 1.409 . S
C531 H523 0.930 . S
C531 C532 1.355 . S
C531 C533 1.415 . S
C532 C531 1.355 . S
C532 C534 1.419 . S
C533 C528 1.425 . S
C533 C530 1.409 . S
C533 C531 1.415 . S
C534 H524 0.930 . S
C534 C532 1.419 . S
C534 C535 1.362 . S
C535 H525 0.930 . S
C535 C528 1.409 . S
C535 C534 1.362 . S
C159 C5 1.428 . S
C164 C91 1.396 . S
C175 C14 1.250 . S
C180 C94 1.259 . S
C196 C130 1.793 . S
C191 C25 1.800 . S
C207 C34 1.679 . S
C212 C150 1.627 . S
C228 C104 1.614 . S
C223 C7 1.625 . S
C244 C81 1.465 . S
C239 C13 1.483 . S
C260 C134 1.552 . S
C255 C23 1.677 . S
C276 C114 1.399 . S
C271 C31 1.437 . S
C287 C4 1.337 . S
C292 C144 1.297 . S
C308 C110 1.661 . S
C303 C22 1.668 . S
C319 C32 1.610 . S
C324 C76 1.547 . S
C335 C16 1.321 . S
C340 C124 1.286 . S
C356 C90 1.433 . S
C351 C41 1.442 . S
C367 C50 1.260 . S
C372 C96 1.265 . S
C383 C61 1.802 . S
C388 C131 1.782 . S
C399 C67 1.694 . S
C404 C151 1.640 . S
C415 C40 1.632 . S
C420 C101 1.595 . S
C436 C84 1.436 . S
C431 C52 1.466 . S
C452 C136 1.572 . S
C447 C59 1.674 . S
C468 C116 1.395 . S
C463 C70 1.445 . S
C479 C43 1.346 . S
C484 C141 1.288 . S
C500 C111 1.656 . S
C495 C58 1.676 . S
C516 C74 1.526 . S
C511 C68 1.600 . S
C527 C49 1.326 . S
C532 C121 1.318 . S
