# Generated by pormake.
# Topology zzz, (3,6)-cn, num edge types: 1
# Building blocks:
#     Node 0, Type 0, BuildingBlock: PAMTOO_clean_linker_0, # of connection points: 3
#     Node 1, Type 0, BuildingBlock: PAMTOO_clean_linker_0, # of connection points: 3
#     Node 2, Type 0, BuildingBlock: PAMTOO_clean_linker_0, # of connection points: 3
#     Node 3, Type 0, BuildingBlock: PAMTOO_clean_linker_0, # of connection points: 3
#     Node 4, Type 0, BuildingBlock: PAMTOO_clean_linker_0, # of connection points: 3
#     Node 5, Type 0, BuildingBlock: PAMTOO_clean_linker_0, # of connection points: 3
#     Node 6, Type 0, BuildingBlock: PAMTOO_clean_linker_0, # of connection points: 3
#     Node 7, Type 0, BuildingBlock: PAMTOO_clean_linker_0, # of connection points: 3
#     Node 8, Type 1, BuildingBlock: BETDIP_clean_sbu_0, # of connection points: 6
#     Node 9, Type 1, BuildingBlock: BETDIP_clean_sbu_0, # of connection points: 6
#     Node 10, Type 1, BuildingBlock: BETDIP_clean_sbu_0, # of connection points: 6
#     Node 11, Type 1, BuildingBlock: BETDIP_clean_sbu_0, # of connection points: 6
#     Edge 12, Type (0, 1), BuildingBlock: XIVTED_clean_linker_0, # of connection points: 2
#     Edge 13, Type (0, 1), BuildingBlock: XIVTED_clean_linker_0, # of connection points: 2
#     Edge 14, Type (0, 1), BuildingBlock: XIVTED_clean_linker_0, # of connection points: 2
#     Edge 15, Type (0, 1), BuildingBlock: XIVTED_clean_linker_0, # of connection points: 2
#     Edge 16, Type (0, 1), BuildingBlock: XIVTED_clean_linker_0, # of connection points: 2
#     Edge 17, Type (0, 1), BuildingBlock: XIVTED_clean_linker_0, # of connection points: 2
#     Edge 18, Type (0, 1), BuildingBlock: XIVTED_clean_linker_0, # of connection points: 2
#     Edge 19, Type (0, 1), BuildingBlock: XIVTED_clean_linker_0, # of connection points: 2
#     Edge 20, Type (0, 1), BuildingBlock: XIVTED_clean_linker_0, # of connection points: 2
#     Edge 21, Type (0, 1), BuildingBlock: XIVTED_clean_linker_0, # of connection points: 2
#     Edge 22, Type (0, 1), BuildingBlock: XIVTED_clean_linker_0, # of connection points: 2
#     Edge 23, Type (0, 1), BuildingBlock: XIVTED_clean_linker_0, # of connection points: 2
#     Edge 24, Type (0, 1), BuildingBlock: XIVTED_clean_linker_0, # of connection points: 2
#     Edge 25, Type (0, 1), BuildingBlock: XIVTED_clean_linker_0, # of connection points: 2
#     Edge 26, Type (0, 1), BuildingBlock: XIVTED_clean_linker_0, # of connection points: 2
#     Edge 27, Type (0, 1), BuildingBlock: XIVTED_clean_linker_0, # of connection points: 2
#     Edge 28, Type (0, 1), BuildingBlock: XIVTED_clean_linker_0, # of connection points: 2
#     Edge 29, Type (0, 1), BuildingBlock: XIVTED_clean_linker_0, # of connection points: 2
#     Edge 30, Type (0, 1), BuildingBlock: XIVTED_clean_linker_0, # of connection points: 2
#     Edge 31, Type (0, 1), BuildingBlock: XIVTED_clean_linker_0, # of connection points: 2
#     Edge 32, Type (0, 1), BuildingBlock: XIVTED_clean_linker_0, # of connection points: 2
#     Edge 33, Type (0, 1), BuildingBlock: XIVTED_clean_linker_0, # of connection points: 2
#     Edge 34, Type (0, 1), BuildingBlock: XIVTED_clean_linker_0, # of connection points: 2
#     Edge 35, Type (0, 1), BuildingBlock: XIVTED_clean_linker_0, # of connection points: 2
# Relax obj value: 0.265
# Max RMSD: 0.168
# Mean RMSD: 0.147
data_MOF--net-zzz--node1-BETDIP_clean_sbu_0--node2-PAMTOO_clean_linker_0--edge1-XIVTED_clean_linker_0
_symmetry_space_group_name_H-M    P1
_symmetry_Int_Tables_number       1
_symmetry_cell_setting            triclinic
loop_
_symmetry_equiv_pos_as_xyz
'x, y, z'
_cell_length_a     51.960712
_cell_length_b     51.81002
_cell_length_c     13.610798
_cell_angle_alpha  89.714482
_cell_angle_beta   90.029745
_cell_angle_gamma 89.844197
loop_
_atom_site_label
_atom_site_type_symbol
_atom_site_fract_x
_atom_site_fract_y
_atom_site_fract_z
_atom_type_partial_charge
H0 H 0.81842 0.49651 0.27093 0.0
H1 H 0.73762 0.49861 0.2051 0.0
H2 H 0.76678 0.53872 0.45882 0.0
H3 H 0.72825 0.56182 0.27888 0.0
C4 C 0.71363 0.54953 0.31638 0.0
O5 O 0.72479 0.52727 0.35424 0.0
H6 H 0.7062 0.56119 0.37854 0.0
C7 C 0.79916 0.50307 0.28932 0.0
C8 C 0.79546 0.51857 0.37211 0.0
C9 C 0.77851 0.49575 0.22965 0.0
C10 C 0.75361 0.50411 0.25162 0.0
C11 C 0.74925 0.51971 0.33379 0.0
C12 C 0.77017 0.52675 0.39512 0.0
H13 H 0.07004 0.81545 0.36732 0.0
H14 H 0.0573 0.74496 0.20928 0.0
H15 H 1.00247 0.77018 0.42588 0.0
H16 H 1.00321 0.70401 0.38619 0.0
C17 C 0.01864 0.70863 0.3326 0.0
O18 O 1.01434 0.73333 0.29556 0.0
H19 H 0.03728 0.70784 0.37313 0.0
C20 C 0.05903 0.79793 0.35637 0.0
C21 C 0.03583 0.79489 0.40743 0.0
C22 C 0.06684 0.78028 0.28425 0.0
C23 C 0.05176 0.75842 0.26624 0.0
C24 C 0.02898 0.7542 0.31879 0.0
C25 C 0.02068 0.77274 0.38853 0.0
H26 H 0.71896 0.97166 0.35659 0.0
H27 H 0.79513 0.97048 0.23341 0.0
H28 H 0.77269 0.03113 0.43222 0.0
H29 H 0.81791 0.04905 0.28629 0.0
C30 C 0.81747 0.02954 0.25277 0.0
O31 O 0.8111 1.01171 0.32498 0.0
H32 H 0.80252 0.03018 0.19402 0.0
C33 C 0.73831 0.97947 0.35288 0.0
C34 C 0.74354 1.00234 0.40267 0.0
C35 C 0.7566 0.96781 0.29161 0.0
C36 C 0.78107 0.9789 0.28259 0.0
C37 C 0.78717 1.00145 0.33452 0.0
C38 C 0.76829 1.01331 0.39458 0.0
H39 H 0.47415 0.73554 0.39013 0.0
H40 H 0.48686 0.8043 0.21902 0.0
H41 H 0.54604 0.77589 0.41314 0.0
H42 H 0.54967 0.84121 0.36538 0.0
C43 C 0.53202 0.83781 0.32127 0.0
O44 O 0.53296 0.8129 0.28439 0.0
H45 H 0.51542 0.84024 0.37228 0.0
C46 C 0.48587 0.75224 0.37255 0.0
C47 C 0.51063 0.75376 0.41283 0.0
C48 C 0.47714 0.7701 0.30195 0.0
C49 C 0.49308 0.79073 0.27504 0.0
C50 C 0.51761 0.79338 0.31657 0.0
C51 C 0.52665 0.77456 0.38443 0.0
H52 H 0.22991 0.5742 0.14454 0.0
H53 H 0.29863 0.56148 0.31496 0.0
H54 H 0.27159 0.5029 0.11743 0.0
H55 H 0.33492 0.53372 0.16157 0.0
C56 C 0.33272 0.51678 0.21167 0.0
O57 O 0.30778 0.51559 0.24799 0.0
H58 H 0.33647 0.4992 0.16755 0.0
C59 C 0.24676 0.56264 0.16178 0.0
C60 C 0.24893 0.53812 0.11967 0.0
C61 C 0.26427 0.57124 0.23318 0.0
C62 C 0.28516 0.55537 0.25895 0.0
C63 C 0.28825 0.53102 0.21616 0.0
C64 C 0.26985 0.52215 0.14738 0.0
H65 H 0.04391 0.23194 0.26752 0.0
H66 H 0.03119 0.31259 0.31475 0.0
H67 H 0.01905 0.2805 0.02712 0.0
H68 H 0.03041 0.35343 0.04861 0.0
C69 C 0.03538 0.34421 0.12001 0.0
O70 O 0.01859 0.32378 0.13595 0.0
H71 H 0.05554 0.33712 0.11215 0.0
C72 C 0.03937 0.25086 0.23752 0.0
C73 C 0.0312 0.253 0.13934 0.0
C74 C 0.0395 0.27219 0.3006 0.0
C75 C 0.03242 0.29641 0.26488 0.0
C76 C 0.02622 0.29986 0.16585 0.0
C77 C 0.02548 0.27809 0.10229 0.0
H78 H 0.31225 0.98396 0.10682 0.0
H79 H 0.24434 0.98887 0.28647 0.0
H80 H 0.26679 0.05328 0.10475 0.0
H81 H 0.20529 1.01685 0.14427 0.0
C82 C 0.20711 0.03405 0.19263 0.0
O83 O 0.23177 0.03545 0.23139 0.0
H84 H 0.20359 0.05143 0.14639 0.0
C85 C 0.29491 0.99415 0.12873 0.0
C86 C 0.29128 1.01943 0.09504 0.0
C87 C 0.27842 0.98298 0.19849 0.0
C88 C 0.25693 0.99699 0.23098 0.0
C89 C 0.25215 0.02201 0.19521 0.0
C90 C 0.26969 0.0335 0.12849 0.0
H91 H 0.47155 0.3176 0.25402 0.0
H92 H 0.49223 0.24096 0.34256 0.0
H93 H 0.51838 0.2706 0.06389 0.0
H94 H 0.51817 0.19887 0.10067 0.0
C95 C 0.50828 0.20675 0.16636 0.0
O96 O 0.51942 0.23037 0.18881 0.0
H97 H 0.48763 0.20929 0.14636 0.0
C98 C 0.48017 0.29917 0.23564 0.0
C99 C 0.49418 0.29681 0.14771 0.0
C100 C 0.47922 0.27917 0.3055 0.0
C101 C 0.49218 0.2561 0.28737 0.0
C102 C 0.50586 0.25264 0.20006 0.0
C103 C 0.50706 0.27306 0.12997 0.0
Tb104 Tb 0.03719 1.01573 0.85544 0.0
Tb105 Tb 1.00576 0.02987 0.69554 0.0
C106 C 0.05932 0.99401 0.99766 0.0
C107 C 0.07673 0.97175 1.00046 0.0
C108 C 0.08326 0.96036 0.09034 0.0
C109 C 0.09771 0.9376 0.09241 0.0
C110 C 0.10579 0.92585 1.00439 0.0
C111 C 0.10023 0.93815 0.91453 0.0
C112 C 0.0858 0.96093 0.91262 0.0
C113 C 0.06438 0.03134 0.70061 0.0
C114 C 0.01929 0.97189 0.70124 0.0
C115 C 0.9857 0.05517 0.55875 0.0
C116 C 0.98376 0.08351 0.55537 0.0
C117 C 0.99785 0.09699 0.48414 0.0
C118 C 1.00404 0.12284 0.49877 0.0
C119 C 0.99601 0.13561 0.5844 0.0
C120 C 0.97949 0.12303 0.6501 0.0
C121 C 0.97347 0.09708 0.63596 0.0
C122 C 0.97872 1.01318 0.84798 0.0
C123 C 0.02303 0.07305 0.8485 0.0
O124 O 0.03566 0.98892 0.9713 0.0
O125 O 0.06836 1.01438 0.95293 0.0
O126 O 0.04485 1.01697 0.69949 0.0
O127 O 0.06933 0.03706 0.79073 0.0
O128 O 0.02877 0.97741 0.78934 0.0
O129 O 1.01085 0.99059 0.64335 0.0
O130 O 1.00927 0.04629 0.555 0.0
O131 O 0.9722 0.04363 0.62682 0.0
O132 O 0.99789 0.02817 0.85151 0.0
O133 O 0.97462 1.00699 0.75738 0.0
O134 O 0.01857 0.06771 0.75511 0.0
O135 O 0.02646 0.05376 0.91065 0.0
H136 H 0.0764 0.96852 0.15867 0.0
H137 H 0.10118 0.92845 0.16289 0.0
H138 H 0.10627 0.92971 0.84562 0.0
H139 H 0.08101 0.96966 0.84241 0.0
H140 H 1.00596 0.08699 0.42158 0.0
H141 H 1.01625 0.13248 0.44561 0.0
H142 H 0.97292 0.1326 0.71613 0.0
H143 H 0.96258 0.08723 0.6926 0.0
Tb144 Tb 0.52654 0.03401 0.84165 0.0
Tb145 Tb 0.50678 1.0092 0.65061 0.0
C146 C 0.54506 0.0333 0.0101 0.0
C147 C 0.56724 1.01741 0.0429 0.0
C148 C 0.56326 0.99406 0.09387 0.0
C149 C 0.58329 0.97607 0.10395 0.0
C150 C 0.60768 0.9812 0.06366 0.0
C151 C 0.61203 1.00536 0.01932 0.0
C152 C 0.59213 0.02321 0.00908 0.0
C153 C 0.51762 0.07047 0.70564 0.0
C154 C 0.56646 0.02175 0.67563 0.0
C155 C 0.49513 0.99102 0.48651 0.0
C156 C 0.47516 0.97239 0.45823 0.0
C157 C 0.4664 0.95383 0.52601 0.0
C158 C 0.44476 0.93892 0.5052 0.0
C159 C 0.43158 0.94219 0.41598 0.0
C160 C 0.44141 0.95958 0.3456 0.0
C161 C 0.46298 0.97464 0.36683 0.0
C162 C 0.5099 0.97874 0.8076 0.0
C163 C 0.46598 0.03087 0.80115 0.0
O164 O 0.52426 0.0203 0.98674 0.0
O165 O 0.55025 0.05159 0.94592 0.0
O166 O 0.51448 0.04646 0.70089 0.0
O167 O 0.52564 0.07511 0.79434 0.0
O168 O 0.56279 0.02387 0.77133 0.0
O169 O 0.54683 1.01935 0.61377 0.0
O170 O 0.48648 1.01332 0.51814 0.0
O171 O 0.51378 0.98178 0.54142 0.0
O172 O 0.52575 0.99586 0.78171 0.0
O173 O 0.49185 0.97783 0.74266 0.0
O174 O 0.47054 0.02442 0.70833 0.0
O175 O 0.48476 0.03351 0.86681 0.0
H176 H 0.54431 0.98906 0.12093 0.0
H177 H 0.57935 0.95778 0.13963 0.0
H178 H 0.63085 1.01045 0.99119 0.0
H179 H 0.59611 0.04109 0.97052 0.0
H180 H 0.47562 0.95152 0.59672 0.0
H181 H 0.43772 0.92558 0.56045 0.0
H182 H 0.43145 0.96281 0.27667 0.0
H183 H 0.46941 0.98887 0.31371 0.0
Tb184 Tb 0.50372 0.53442 0.87624 0.0
Tb185 Tb 0.53198 0.51843 0.70631 0.0
C186 C 0.48613 0.55756 0.02322 0.0
C187 C 0.47156 0.58193 0.03187 0.0
C188 C 0.48173 0.60516 0.99568 0.0
C189 C 0.46712 0.62773 0.99759 0.0
C190 C 0.44201 0.62769 0.03626 0.0
C191 C 0.43185 0.60445 0.07302 0.0
C192 C 0.4465 0.58175 0.07058 0.0
C193 C 0.47365 0.52028 0.7279 0.0
C194 C 0.5231 0.57741 0.71836 0.0
C195 C 0.54167 0.49191 0.55962 0.0
C196 C 0.52841 0.46716 0.54358 0.0
C197 C 0.50142 0.46621 0.55191 0.0
C198 C 0.48891 0.44294 0.56939 0.0
C199 C 0.50297 0.41986 0.57661 0.0
C200 C 0.52981 0.42054 0.56149 0.0
C201 C 0.54242 0.44401 0.54578 0.0
C202 C 0.56278 0.53322 0.84957 0.0
C203 C 0.51326 0.47626 0.8632 0.0
O204 O 0.51018 0.55924 0.995 0.0
O205 O 0.47395 0.539 0.97861 0.0
O206 O 0.49402 0.53334 0.72297 0.0
O207 O 0.46906 0.51548 0.81935 0.0
O208 O 0.51223 0.57208 0.80449 0.0
O209 O 0.53184 0.55874 0.66168 0.0
O210 O 0.52706 0.51252 0.55499 0.0
O211 O 0.55678 0.49216 0.63657 0.0
O212 O 0.54232 0.52015 0.85999 0.0
O213 O 0.56691 0.53702 0.7566 0.0
O214 O 0.51743 0.48173 0.76961 0.0
O215 O 0.511 0.49516 0.92699 0.0
H216 H 0.50102 0.606 0.96585 0.0
H217 H 0.47587 0.64542 0.97137 0.0
H218 H 0.41265 0.60384 0.1038 0.0
H219 H 0.43819 0.564 0.09842 0.0
H220 H 0.48994 0.48366 0.55189 0.0
H221 H 0.46831 0.44331 0.5811 0.0
H222 H 0.54119 0.40302 0.56343 0.0
H223 H 0.56323 0.44422 0.5409 0.0
Tb224 Tb 1.01725 0.50678 0.80746 0.0
Tb225 Tb 0.03066 0.54239 0.66153 0.0
C226 C 0.99519 0.48051 0.9382 0.0
C227 C 0.9709 0.46626 0.93467 0.0
C228 C 0.95857 0.45909 0.02182 0.0
C229 C 0.93375 0.44886 0.01884 0.0
C230 C 0.92086 0.44583 0.92852 0.0
C231 C 0.93393 0.45169 0.84097 0.0
C232 C 0.95881 0.46176 0.84404 0.0
C233 C 0.03306 0.48369 0.6434 0.0
C234 C 0.97339 0.52741 0.66173 0.0
C235 C 0.05182 0.5682 0.52698 0.0
C236 C 0.07621 0.58257 0.52097 0.0
C237 C 0.09944 0.571 0.54997 0.0
C238 C 0.1223 0.58495 0.54734 0.0
C239 C 0.12255 0.61078 0.51495 0.0
C240 C 0.09924 0.62242 0.48612 0.0
C241 C 0.07623 0.60844 0.48953 0.0
C242 C 1.01443 0.56555 0.82438 0.0
C243 C 0.07428 0.52222 0.81116 0.0
O244 O 0.99292 0.50557 0.93044 0.0
O245 O 1.01348 0.47154 0.88234 0.0
O246 O 0.01829 0.50306 0.64866 0.0
O247 O 0.03958 0.4772 0.73156 0.0
O248 O 0.97882 0.51793 0.74974 0.0
O249 O 0.99229 0.53512 0.60425 0.0
O250 O 0.05348 0.54305 0.53446 0.0
O251 O 0.03478 0.57773 0.58705 0.0
O252 O 0.02936 0.54625 0.82011 0.0
O253 O 1.00799 0.57188 0.7359 0.0
O254 O 0.06904 0.53202 0.72315 0.0
O255 O 0.05531 0.51403 0.86727 0.0
H256 H 0.96765 0.46248 0.09227 0.0
H257 H 0.92407 0.44495 0.08775 0.0
H258 H 0.92454 0.4495 0.77044 0.0
H259 H 0.96819 0.46704 0.7758 0.0
H260 H 0.10007 0.55104 0.57366 0.0
H261 H 0.13996 0.57508 0.56728 0.0
H262 H 0.09884 0.64222 0.46026 0.0
H263 H 0.05846 0.61777 0.46722 0.0
H264 H 0.2043 0.06149 0.36681 0.0
H265 H 0.06443 1.00777 0.51943 0.0
H266 H 0.16251 1.00554 0.19688 0.0
H267 H 0.10969 0.05791 0.7025 0.0
H268 H 0.09912 1.00822 0.39667 0.0
H269 H 0.16928 0.06156 0.48795 0.0
C270 C 0.18792 0.04895 0.35573 0.0
C271 C 0.18669 0.03298 0.27278 0.0
C272 C 0.10144 1.01919 0.46357 0.0
C273 C 0.14603 0.03348 0.40992 0.0
C274 C 0.08157 1.01902 0.53348 0.0
C275 C 0.08416 0.03277 0.62156 0.0
C276 C 0.12409 0.03331 0.48149 0.0
C277 C 0.10687 0.04697 0.63582 0.0
C278 C 0.16783 0.04909 0.4246 0.0
C279 C 0.16456 1.01773 0.26075 0.0
N280 N 0.12589 0.04683 0.5669 0.0
N281 N 0.1452 1.01833 0.32833 0.0
H282 H 0.53055 0.21089 0.35484 0.0
H283 H 0.50148 0.06385 0.51375 0.0
H284 H 0.49077 0.15721 0.16774 0.0
H285 H 0.52893 0.12172 0.71402 0.0
H286 H 0.49925 0.09687 0.38331 0.0
H287 H 0.53216 0.17785 0.48405 0.0
C288 C 0.52207 0.19222 0.34068 0.0
C289 C 0.51028 0.18698 0.24988 0.0
C290 C 0.5057 0.10237 0.45588 0.0
C291 C 0.51238 0.14869 0.39831 0.0
C292 C 0.50694 0.08348 0.53037 0.0
C293 C 0.5153 0.09 0.62513 0.0
C294 C 0.5131 0.12797 0.47591 0.0
C295 C 0.52229 0.1158 0.64221 0.0
C296 C 0.52302 0.17327 0.4148 0.0
C297 C 0.49994 0.16216 0.23654 0.0
N298 N 0.52111 0.13372 0.56865 0.0
N299 N 0.50126 0.14402 0.30941 0.0
H300 H 0.33364 0.49127 0.39177 0.0
H301 H 0.47464 0.54183 0.54285 0.0
H302 H 0.37812 0.54388 0.21461 0.0
H303 H 0.42707 0.49577 0.73434 0.0
H304 H 0.44033 0.5412 0.41878 0.0
H305 H 0.36799 0.49148 0.51593 0.0
C306 C 0.35046 0.50316 0.37966 0.0
C307 C 0.35264 0.51812 0.29368 0.0
C308 C 0.43737 0.53119 0.48785 0.0
C309 C 0.39254 0.51789 0.43443 0.0
C310 C 0.45702 0.53149 0.55863 0.0
C311 C 0.45371 0.51893 0.64938 0.0
C312 C 0.41417 0.51815 0.50751 0.0
C313 C 0.43043 0.50581 0.66561 0.0
C314 C 0.37017 0.50316 0.45031 0.0
C315 C 0.37532 0.5325 0.28066 0.0
N316 N 0.41161 0.50578 0.59569 0.0
N317 N 0.39428 0.53205 0.34997 0.0
H318 H 0.06532 0.34836 0.28666 0.0
H319 H 1.00518 0.48355 0.46949 0.0
H320 H 1.00232 0.38604 0.13802 0.0
H321 H 0.06217 0.44001 0.63059 0.0
H322 H 1.00479 0.44953 0.34344 0.0
H323 H 0.06487 0.38246 0.41091 0.0
C324 C 0.05124 0.36374 0.28065 0.0
C325 C 0.03387 0.36431 0.20161 0.0
C326 C 1.01744 0.44747 0.40625 0.0
C327 C 0.0334 0.40393 0.34354 0.0
C328 C 1.01778 0.46699 0.47795 0.0
C329 C 0.03376 0.46471 0.56096 0.0
C330 C 0.03329 0.42551 0.41717 0.0
C331 C 0.04952 0.44266 0.5681 0.0
C332 C 0.05104 0.38333 0.35145 0.0
C333 C 1.01608 0.38483 0.19761 0.0
N334 N 0.04887 0.42406 0.49767 0.0
N335 N 1.0164 0.40384 0.26695 0.0
H336 H 0.82861 0.9928 0.1139 0.0
H337 H 0.97387 0.04066 0.0205 0.0
H338 H 0.86482 0.05232 0.28458 0.0
H339 H 0.93523 0.98397 0.84315 0.0
H340 H 0.93609 0.04215 0.12924 0.0
H341 H 0.86924 0.98609 0.02561 0.0
C342 C 0.84525 1.00424 0.13347 0.0
C343 C 0.84328 0.02328 0.20601 0.0
C344 C 0.93598 0.0292 0.06705 0.0
C345 C 0.88996 1.01591 0.10481 0.0
C346 C 0.95761 0.02827 1.00522 0.0
C347 C 0.95769 1.01225 0.92226 0.0
C348 C 0.91426 1.01397 0.04598 0.0
C349 C 0.936 0.9967 0.90591 0.0
C350 C 0.86844 1.00051 0.08286 0.0
C351 C 0.86546 0.03755 0.22868 0.0
N352 N 0.91521 0.99806 0.96658 0.0
N353 N 0.88777 0.03374 0.17783 0.0
H354 H 0.57017 0.86828 0.23921 0.0
H355 H 0.47372 0.94649 0.88273 0.0
H356 H 0.48891 0.85312 0.21809 0.0
H357 H 0.55418 0.96506 0.90828 0.0
H358 H 0.47938 0.91198 1.004 0.0
H359 H 0.56542 0.9029 0.11615 0.0
C360 C 0.55136 0.87211 0.20798 0.0
C361 C 0.52987 0.8578 0.23922 0.0
C362 C 0.49585 0.92359 0.98373 0.0
C363 C 0.52423 0.89751 0.09818 0.0
C364 C 0.49261 0.94339 0.91446 0.0
C365 C 0.51346 0.95887 0.88595 0.0
C366 C 0.52026 0.9189 0.02485 0.0
C367 C 0.53751 0.95382 0.92919 0.0
C368 C 0.54863 0.89194 0.13799 0.0
C369 C 0.50598 0.8636 0.19613 0.0
N370 N 0.54028 0.93425 0.99619 0.0
N371 N 0.5038 0.88297 0.12838 0.0
H372 H 0.71348 0.55068 0.11419 0.0
H373 H 0.56276 0.51934 0.04667 0.0
H374 H 0.66375 0.53497 0.36019 0.0
H375 H 0.61139 0.55096 0.81971 0.0
H376 H 0.59948 0.52106 0.16156 0.0
H377 H 0.6767 0.54586 1.00315 0.0
C378 C 0.6948 0.54599 0.14469 0.0
C379 C 0.6916 0.54352 0.24662 0.0
C380 C 0.60204 0.52762 0.08657 0.0
C381 C 0.64916 0.538 0.11976 0.0
C382 C 0.58108 0.5267 0.02109 0.0
C383 C 0.58396 0.535 0.92326 0.0
C384 C 0.62611 0.53669 0.05368 0.0
C385 C 0.60819 0.54432 0.89423 0.0
C386 C 0.67374 0.54336 0.08136 0.0
C387 C 0.66698 0.5372 0.28205 0.0
N388 N 0.62821 0.5448 0.95865 0.0
N389 N 0.64668 0.53479 0.21892 0.0
H390 H 0.98784 0.70511 0.16594 0.0
H391 H 0.04199 0.56592 0.99868 0.0
H392 H 0.04787 0.66436 0.32106 0.0
H393 H 0.98597 0.60979 0.83386 0.0
H394 H 0.04317 0.60061 0.1216 0.0
H395 H 0.98605 0.66981 0.04633 0.0
C396 C 1.00092 0.68893 0.17403 0.0
C397 C 0.01854 0.68813 0.25232 0.0
C398 C 0.03053 0.60259 0.05876 0.0
C399 C 1.0161 0.64702 0.11683 0.0
C400 C 0.02974 0.58268 0.98883 0.0
C401 C 1.01386 0.58488 0.90559 0.0
C402 C 1.01526 0.6249 0.04576 0.0
C403 C 0.99855 0.60721 0.89662 0.0
C404 C 0.99979 0.66864 0.10602 0.0
C405 C 0.03441 0.66614 0.26065 0.0
N406 N 0.99967 0.62625 0.96528 0.0
N407 N 0.03286 0.6466 0.19402 0.0
H408 H 0.08021 0.25134 0.40044 0.0
H409 H 0.97023 0.1791 0.64465 0.0
H410 H 1.00355 0.28118 0.44076 0.0
H411 H 0.04617 0.14988 0.58173 0.0
H412 H 0.98774 0.22296 0.64825 0.0
H413 H 0.07491 0.22468 0.54713 0.0
C414 C 0.06268 0.25311 0.44303 0.0
C415 C 0.04185 0.26744 0.40687 0.0
C416 C 1.00072 0.20689 0.63636 0.0
C417 C 0.03497 0.23596 0.56952 0.0
C418 C 0.99068 0.18192 0.63364 0.0
C419 C 1.00661 0.16123 0.60743 0.0
C420 C 0.0267 0.21093 0.61146 0.0
C421 C 0.03305 0.16564 0.59682 0.0
C422 C 0.05952 0.23777 0.52643 0.0
C423 C 0.01974 0.26961 0.46512 0.0
N424 N 0.04219 0.19007 0.59687 0.0
N425 N 1.01641 0.25313 0.54178 0.0
H426 H 0.2825 0.97494 0.39615 0.0
H427 H 0.41184 0.91884 0.25176 0.0
H428 H 0.29621 0.93781 0.11843 0.0
H429 H 0.39217 0.94026 0.54821 0.0
H430 H 0.36626 0.91211 0.21696 0.0
H431 H 0.31591 0.94828 0.47033 0.0
C432 C 0.29169 0.96029 0.35167 0.0
C433 C 0.28746 0.95937 0.25 0.0
C434 C 0.37189 0.91753 0.29061 0.0
C435 C 0.32657 0.9297 0.33311 0.0
C436 C 0.39794 0.92149 0.3102 0.0
C437 C 0.40568 0.93085 0.402 0.0
C438 C 0.35346 0.92373 0.36252 0.0
C439 C 0.38701 0.93338 0.47587 0.0
C440 C 0.31109 0.9452 0.39387 0.0
C441 C 0.29969 0.93976 0.19649 0.0
N442 N 0.3617 0.93058 0.45374 0.0
N443 N 0.31947 0.92638 0.23767 0.0
H444 H 0.43214 0.29916 0.35503 0.0
H445 H 0.52002 0.37816 0.68483 0.0
H446 H 0.50388 0.2734 0.48084 0.0
H447 H 0.45492 0.40493 0.51497 0.0
H448 H 0.50175 0.33485 0.68534 0.0
H449 H 0.42661 0.32874 0.49227 0.0
C450 C 0.44613 0.29888 0.41411 0.0
C451 C 0.46919 0.28504 0.40434 0.0
C452 C 0.49109 0.35041 0.65059 0.0
C453 C 0.46368 0.31944 0.55775 0.0
C454 C 0.50169 0.3751 0.64913 0.0
C455 C 0.48962 0.39505 0.59606 0.0
C456 C 0.46858 0.34556 0.59668 0.0
C457 C 0.46534 0.39015 0.555 0.0
C458 C 0.44307 0.31586 0.49229 0.0
C459 C 0.48631 0.28464 0.48388 0.0
N460 N 0.45596 0.36578 0.55413 0.0
N461 N 0.48377 0.3025 0.55576 0.0
H462 H 0.26655 0.57647 0.43312 0.0
H463 H 0.13785 0.64067 0.35895 0.0
H464 H 0.24535 0.61818 0.17018 0.0
H465 H 0.16465 0.61069 0.63707 0.0
H466 H 0.18221 0.64852 0.31074 0.0
H467 H 0.23826 0.60416 0.52772 0.0
C468 C 0.25677 0.59214 0.39555 0.0
C469 C 0.25726 0.59415 0.29271 0.0
C470 C 0.17847 0.64093 0.38362 0.0
C471 C 0.22383 0.62516 0.40014 0.0
C472 C 0.15301 0.63655 0.41144 0.0
C473 C 0.14763 0.62387 0.50036 0.0
C474 C 0.19857 0.63193 0.44414 0.0
C475 C 0.16807 0.61938 0.56577 0.0
C476 C 0.24032 0.60791 0.44977 0.0
C477 C 0.24449 0.61517 0.24889 0.0
N478 N 0.19271 0.62262 0.53516 0.0
N479 N 0.22748 0.62926 0.3022 0.0
H480 H 0.11505 0.7978 0.33074 0.0
H481 H 0.09438 0.88582 0.8811 0.0
H482 H 0.06592 0.78112 0.08401 0.0
H483 H 0.14071 0.90464 0.13394 0.0
H484 H 0.09998 0.84024 0.91836 0.0
H485 H 0.14005 0.82697 0.22685 0.0
C486 C 0.11017 0.79953 0.25358 0.0
C487 C 0.08783 0.7879 0.21671 0.0
C488 C 0.10957 0.85427 0.96428 0.0
C489 C 0.11571 0.82171 0.09852 0.0
C490 C 0.10651 0.88043 0.94264 0.0
C491 C 0.11621 0.89915 0.00701 0.0
C492 C 0.1219 0.84686 0.05193 0.0
C493 C 0.13193 0.89084 0.08489 0.0
C494 C 0.12437 0.81626 0.19427 0.0
C495 C 0.08266 0.79022 0.11595 0.0
N496 N 0.13366 0.86531 0.10694 0.0
N497 N 0.09597 0.80756 0.06098 0.0
H498 H 0.75664 0.96909 0.09198 0.0
H499 H 0.62001 0.94855 0.21675 0.0
H500 H 0.73343 0.92174 0.33679 0.0
H501 H 0.64397 0.96982 0.92385 0.0
H502 H 0.66057 0.92574 0.2396 0.0
H503 H 0.71889 0.95502 1.00166 0.0
C504 C 0.74439 0.9545 0.12471 0.0
C505 C 0.74721 0.94769 0.22387 0.0
C506 C 0.65677 0.93479 0.16917 0.0
C507 C 0.70336 0.93264 0.12362 0.0
C508 C 0.6335 0.9479 0.15619 0.0
C509 C 0.62907 0.96215 0.06995 0.0
C510 C 0.67595 0.93651 0.09641 0.0
C511 C 0.64718 0.9602 0.99361 0.0
C512 C 0.72246 0.94673 0.07359 0.0
C513 C 0.73115 0.92829 0.26159 0.0
N514 N 0.67014 0.94834 0.00963 0.0
N515 N 0.70906 0.92241 0.21344 0.0
H516 H 0.42999 0.75345 0.36792 0.0
H517 H 0.4383 0.66797 0.90491 0.0
H518 H 0.47178 0.77073 0.1022 0.0
H519 H 0.41416 0.64428 0.19479 0.0
H520 H 0.42907 0.71276 0.94809 0.0
H521 H 0.40286 0.72371 0.27569 0.0
C522 C 0.43274 0.75183 0.28929 0.0
C523 C 0.454 0.76347 0.24355 0.0
C524 C 0.42494 0.69766 1.00108 0.0
C525 C 0.42344 0.72936 0.13848 0.0
C526 C 0.43037 0.67211 0.97673 0.0
C527 C 0.42815 0.65255 0.04802 0.0
C528 C 0.41762 0.70361 0.09766 0.0
C529 C 0.41681 0.65882 0.13833 0.0
C530 C 0.41728 0.73481 0.23668 0.0
C531 C 0.45615 0.76146 0.14116 0.0
N532 N 0.41267 0.68393 0.16164 0.0
N533 N 0.44165 0.74393 0.09247 0.0
H534 H 0.7805 0.44342 0.22057 0.0
H535 H 0.8939 0.41058 0.03853 0.0
H536 H 0.79119 0.51223 0.04718 0.0
H537 H 0.88381 0.47003 0.81887 0.0
H538 H 0.84836 0.4129 0.07577 0.0
H539 H 0.80704 0.41939 0.1042 0.0
C540 C 0.78774 0.45317 0.15565 0.0
C541 C 0.78416 0.47978 0.14352 0.0
C542 C 0.8556 0.42481 0.01663 0.0
C543 C 0.81614 0.45322 0.01494 0.0
C544 C 0.88186 0.42356 0.99594 0.0
C545 C 0.8928 0.44073 0.92802 0.0
C546 C 0.84029 0.44368 0.96978 0.0
C547 C 0.87628 0.4567 0.87309 0.0
C548 C 0.80337 0.43963 0.09022 0.0
C549 C 0.79381 0.4917 0.05895 0.0
N550 N 0.85098 0.45831 0.89719 0.0
N551 N 0.80994 0.47847 0.99905 0.0
H552 H 1.00531 0.21053 0.2041 0.0
H553 H 0.03339 0.11787 0.74433 0.0
H554 H 0.04612 0.23836 0.9493 0.0
H555 H 1.01361 0.09097 0.03451 0.0
H556 H 0.0338 0.16259 0.80674 0.0
H557 H 1.00284 0.16792 0.13042 0.0
C558 C 1.01369 0.20776 0.13204 0.0
C559 C 0.02638 0.22825 0.08403 0.0
C560 C 0.02925 0.14687 0.8563 0.0
C561 C 0.02339 0.17867 0.99765 0.0
C562 C 0.02892 0.12133 0.82082 0.0
C563 C 0.02335 0.10046 0.88401 0.0
C564 C 0.02351 0.15178 0.95546 0.0
C565 C 1.01809 0.10625 0.98281 0.0
C566 C 1.01229 0.18324 0.08995 0.0
C567 C 0.03623 0.22329 0.98951 0.0
N568 N 1.01814 0.13117 0.01495 0.0
N569 N 0.03469 0.19901 0.94973 0.0
H570 H 0.32772 0.05412 0.15241 0.0
H571 H 0.42135 1.01902 0.70173 0.0
H572 H 0.30468 1.00764 0.90658 0.0
H573 H 0.44804 0.05023 0.97677 0.0
H574 H 0.37703 0.0219 0.762 0.0
H575 H 0.3698 0.06089 0.07398 0.0
C576 C 0.33114 0.04626 0.07995 0.0
C577 C 0.31247 0.03075 0.035 0.0
C578 C 0.39256 0.02831 0.8089 0.0
C579 C 0.36096 0.03757 0.94616 0.0
C580 C 0.41796 0.02672 0.77442 0.0
C581 C 0.43869 0.03425 0.83421 0.0
C582 C 0.38761 0.0377 0.90385 0.0
C583 C 0.43284 0.04402 0.92798 0.0
C584 C 0.35533 0.04974 0.03591 0.0
C585 C 0.31833 0.02017 0.94275 0.0
N586 N 0.40797 0.04539 0.95981 0.0
N587 N 0.34204 0.02361 0.90183 0.0
H588 H 0.45636 0.33192 0.10033 0.0
H589 H 0.53836 0.43331 0.79173 0.0
H590 H 0.53673 0.31643 0.04679 0.0
H591 H 0.48278 0.45633 0.00942 0.0
H592 H 0.53463 0.38827 0.85032 0.0
H593 H 0.46151 0.37475 0.02778 0.0
C594 C 0.47512 0.33733 0.07249 0.0
C595 C 0.49628 0.32042 0.08239 0.0
C596 C 0.52314 0.40319 0.88446 0.0
C597 C 0.50208 0.36987 0.99612 0.0
C598 C 0.52523 0.42889 0.85122 0.0
C599 C 0.51093 0.44874 0.89603 0.0
C600 C 0.50578 0.39704 0.96012 0.0
C601 C 0.49429 0.44179 0.97304 0.0
C602 C 0.47799 0.36192 0.03109 0.0
C603 C 0.51984 0.32861 0.04141 0.0
N604 N 0.49194 0.4166 1.00156 0.0
N605 N 0.52214 0.35275 1.00055 0.0
H606 H 0.23385 0.55853 0.94357 0.0
H607 H 0.09291 0.49697 0.97472 0.0
H608 H 0.21335 0.5001 0.15516 0.0
H609 H 0.11765 0.54587 0.73585 0.0
H610 H 0.13695 0.49681 0.03895 0.0
H611 H 0.19235 0.55236 0.86129 0.0
C612 C 0.22088 0.5438 0.97084 0.0
C613 C 0.22731 0.52948 0.05534 0.0
C614 C 0.13283 0.50743 0.97203 0.0
C615 C 0.17905 0.52302 0.96383 0.0
C616 C 0.10758 0.50763 0.93534 0.0
C617 C 0.10135 0.52147 0.84927 0.0
C618 C 0.1522 0.52138 0.92317 0.0
C619 C 0.12139 0.5348 0.80181 0.0
C620 C 0.19704 0.54047 0.92448 0.0
C621 C 0.20944 0.51116 0.08909 0.0
N622 N 0.14574 0.53457 0.83958 0.0
N623 N 0.18606 0.50869 0.04411 0.0
H624 H 0.05783 0.81137 0.57842 0.0
H625 H 0.99479 0.95219 0.53873 0.0
H626 H 0.997 0.82994 0.37518 0.0
H627 H 0.04291 0.92878 0.78181 0.0
H628 H 0.99514 0.90767 0.47899 0.0
H629 H 0.0518 0.85347 0.65728 0.0
C630 C 0.0426 0.824 0.55249 0.0
C631 C 0.02749 0.8168 0.47146 0.0
C632 C 1.00551 0.91219 0.54572 0.0
C633 C 0.02123 0.86583 0.55863 0.0
C634 C 1.00542 0.93772 0.57986 0.0
C635 C 0.01889 0.9445 0.66566 0.0
C636 C 0.01943 0.89302 0.59672 0.0
C637 C 0.03219 0.92465 0.71551 0.0
C638 C 0.03935 0.84821 0.59682 0.0
C639 C 1.00864 0.83438 0.43887 0.0
N640 N 0.03228 0.9 0.68004 0.0
N641 N 1.00627 0.8581 0.48161 0.0
H642 H 0.73172 1.00151 0.59926 0.0
H643 H 0.58283 0.02676 0.48403 0.0
H644 H 0.70365 0.02804 0.31881 0.0
H645 H 0.61182 1.01807 0.77956 0.0
H646 H 0.62718 0.02753 0.42337 0.0
H647 H 0.68876 1.00912 0.66984 0.0
C648 C 0.71679 1.00995 0.55364 0.0
C649 C 0.72142 1.01474 0.45364 0.0
C650 C 0.62387 0.02559 0.5016 0.0
C651 C 0.67184 0.0222 0.53219 0.0
C652 C 0.59847 0.025 0.5363 0.0
C653 C 0.59341 0.02228 0.63719 0.0
C654 C 0.64456 0.02316 0.56787 0.0
C655 C 0.61466 0.02023 0.70117 0.0
C656 C 0.69215 1.01392 0.59343 0.0
C657 C 0.70105 0.02466 0.39675 0.0
N658 N 0.63919 0.02053 0.66548 0.0
N659 N 0.67717 0.02772 0.43632 0.0
H660 H 0.54935 0.71872 0.37746 0.0
H661 H 0.49877 0.62024 0.7939 0.0
H662 H 0.48982 0.73699 0.58588 0.0
H663 H 0.55001 0.59749 0.56061 0.0
H664 H 0.49982 0.6646 0.732 0.0
H665 H 0.55501 0.6764 0.45806 0.0
C666 C 0.53811 0.71419 0.44226 0.0
C667 C 0.51933 0.73161 0.47577 0.0
C668 C 0.511 0.64998 0.69455 0.0
C669 C 0.52513 0.68284 0.56691 0.0
C670 C 0.51049 0.62454 0.7303 0.0
C671 C 0.52436 0.60486 0.68296 0.0
C672 C 0.52556 0.65611 0.61048 0.0
C673 C 0.53891 0.61185 0.59967 0.0
C674 C 0.54106 0.68986 0.48742 0.0
C675 C 0.50473 0.72431 0.55833 0.0
N676 N 0.53909 0.63677 0.5662 0.0
N677 N 0.50782 0.70057 0.60044 0.0
H678 H 0.80771 0.5065 0.56463 0.0
H679 H 0.95553 0.54793 0.4887 0.0
H680 H 0.83713 0.54533 0.308 0.0
H681 H 0.92893 0.50962 0.75171 0.0
H682 H 0.91141 0.5493 0.42797 0.0
H683 H 0.85047 0.51035 0.64226 0.0
C684 C 0.82294 0.51649 0.52586 0.0
C685 C 0.81877 0.52583 0.43005 0.0
C686 C 0.91509 0.54064 0.49918 0.0
C687 C 0.86792 0.52972 0.51699 0.0
C688 C 0.94042 0.53979 0.534 0.0
C689 C 0.94618 0.52856 0.62557 0.0
C690 C 0.895 0.53008 0.55571 0.0
C691 C 0.92554 0.51845 0.68063 0.0
C692 C 0.84744 0.51842 0.56962 0.0
C693 C 0.83942 0.53803 0.3822 0.0
N694 N 0.90095 0.51935 0.64477 0.0
N695 N 0.86297 0.53945 0.42566 0.0
loop_
_geom_bond_atom_site_label_1
_geom_bond_atom_site_label_2
_geom_bond_distance
_geom_bond_site_symmetry_2
_ccdc_geom_bond_type
H0 C7 0.929 . S
H1 C10 0.930 . S
H2 C12 0.929 . S
H3 C4 0.969 . S
C4 H3 0.969 . S
C4 O5 1.550 . S
C4 H6 0.973 . S
O5 C4 1.550 . S
O5 C11 1.412 . S
H6 C4 0.973 . S
C7 H0 0.929 . S
C7 C8 1.400 . S
C7 C9 1.364 . S
C8 C7 1.400 . S
C8 C12 1.377 . S
C9 C7 1.364 . S
C9 C10 1.374 . S
C10 H1 0.930 . S
C10 C9 1.374 . S
C10 C11 1.383 . S
C11 O5 1.412 . S
C11 C10 1.383 . S
C11 C12 1.394 . S
C12 H2 0.929 . S
C12 C8 1.377 . S
C12 C11 1.394 . S
H13 C20 0.928 1_655 S
H14 C23 0.930 . S
H15 C25 0.928 1_655 S
H16 C17 0.969 . S
C17 H16 0.969 . S
C17 O18 1.550 1_455 S
C17 H19 0.973 1_455 S
O18 C17 1.550 1_655 S
O18 C24 1.405 1_655 S
H19 C17 0.973 1_655 S
C20 H13 0.928 1_455 S
C20 C21 1.399 . S
C20 C22 1.364 . S
C21 C20 1.399 . S
C21 C25 1.377 . S
C22 C20 1.364 . S
C22 C23 1.374 1_455 S
C23 H14 0.930 . S
C23 C22 1.374 1_655 S
C23 C24 1.382 1_655 S
C24 O18 1.405 1_455 S
C24 C23 1.382 1_455 S
C24 C25 1.394 . S
C25 H15 0.928 1_455 S
C25 C21 1.377 . S
C25 C24 1.394 . S
H26 C33 0.928 1_565 S
H27 C36 0.929 . S
H28 C38 0.929 1_565 S
H29 C30 0.969 . S
C30 H29 0.969 . S
C30 O31 1.550 1_545 S
C30 H32 0.973 1_545 S
O31 C30 1.550 1_565 S
O31 C37 1.405 1_565 S
H32 C30 0.973 1_565 S
C33 H26 0.928 1_545 S
C33 C34 1.399 . S
C33 C35 1.364 . S
C34 C33 1.399 . S
C34 C38 1.377 . S
C35 C33 1.364 . S
C35 C36 1.374 1_545 S
C36 H27 0.929 . S
C36 C35 1.374 1_565 S
C36 C37 1.382 1_565 S
C37 O31 1.405 1_545 S
C37 C36 1.382 1_545 S
C37 C38 1.394 . S
C38 H28 0.929 1_545 S
C38 C34 1.377 . S
C38 C37 1.394 . S
H39 C46 0.929 . S
H40 C49 0.930 . S
H41 C51 0.929 . S
H42 C43 0.969 . S
C43 H42 0.969 . S
C43 O44 1.550 . S
C43 H45 0.973 . S
O44 C43 1.550 . S
O44 C50 1.412 . S
H45 C43 0.973 . S
C46 H39 0.929 . S
C46 C47 1.400 . S
C46 C48 1.364 . S
C47 C46 1.400 . S
C47 C51 1.377 . S
C48 C46 1.364 . S
C48 C49 1.374 . S
C49 H40 0.930 . S
C49 C48 1.374 . S
C49 C50 1.383 . S
C50 O44 1.412 . S
C50 C49 1.383 . S
C50 C51 1.394 . S
C51 H41 0.929 . S
C51 C47 1.377 . S
C51 C50 1.394 . S
H52 C59 0.929 . S
H53 C62 0.930 . S
H54 C64 0.929 . S
H55 C56 0.969 . S
C56 H55 0.969 . S
C56 O57 1.550 . S
C56 H58 0.973 . S
O57 C56 1.550 . S
O57 C63 1.412 . S
H58 C56 0.973 . S
C59 H52 0.929 . S
C59 C60 1.400 1_554 S
C59 C61 1.364 . S
C60 C59 1.400 1_556 S
C60 C64 1.377 . S
C61 C59 1.364 . S
C61 C62 1.374 . S
C62 H53 0.930 . S
C62 C61 1.374 . S
C62 C63 1.383 . S
C63 O57 1.412 . S
C63 C62 1.383 . S
C63 C64 1.394 1_554 S
C64 H54 0.929 . S
C64 C60 1.377 . S
C64 C63 1.394 1_556 S
H65 C72 0.928 1_655 S
H66 C75 0.930 . S
H67 C77 0.928 1_655 S
H68 C69 0.969 . S
C69 H68 0.969 . S
C69 O70 1.550 1_455 S
C69 H71 0.973 1_455 S
O70 C69 1.550 1_655 S
O70 C76 1.402 1_655 S
H71 C69 0.973 1_655 S
C72 H65 0.928 1_455 S
C72 C73 1.400 1_554 S
C72 C74 1.364 . S
C73 C72 1.400 1_556 S
C73 C77 1.377 . S
C74 C72 1.364 . S
C74 C75 1.374 1_455 S
C75 H66 0.930 . S
C75 C74 1.374 1_655 S
C75 C76 1.382 1_655 S
C76 O70 1.402 1_455 S
C76 C75 1.382 1_455 S
C76 C77 1.394 1_554 S
C77 H67 0.928 1_455 S
C77 C73 1.377 . S
C77 C76 1.394 1_556 S
H78 C85 0.928 1_565 S
H79 C88 0.930 . S
H80 C90 0.928 1_565 S
H81 C82 0.969 . S
C82 H81 0.969 . S
C82 O83 1.550 1_545 S
C82 H84 0.973 1_545 S
O83 C82 1.550 1_565 S
O83 C89 1.402 1_565 S
H84 C82 0.973 1_565 S
C85 H78 0.928 1_545 S
C85 C86 1.400 1_554 S
C85 C87 1.364 . S
C86 C85 1.400 1_556 S
C86 C90 1.377 . S
C87 C85 1.364 . S
C87 C88 1.374 1_545 S
C88 H79 0.930 . S
C88 C87 1.374 1_565 S
C88 C89 1.382 1_565 S
C89 O83 1.402 1_545 S
C89 C88 1.382 1_545 S
C89 C90 1.394 1_554 S
C90 H80 0.928 1_545 S
C90 C86 1.377 . S
C90 C89 1.394 1_556 S
H91 C98 0.929 . S
H92 C101 0.930 . S
H93 C103 0.929 . S
H94 C95 0.969 . S
C95 H94 0.969 . S
C95 O96 1.550 . S
C95 H97 0.973 . S
O96 C95 1.550 . S
O96 C102 1.412 . S
H97 C95 0.973 . S
C98 H91 0.929 . S
C98 C99 1.400 1_554 S
C98 C100 1.364 . S
C99 C98 1.400 1_556 S
C99 C103 1.377 . S
C100 C98 1.364 . S
C100 C101 1.374 . S
C101 H92 0.930 . S
C101 C100 1.374 . S
C101 C102 1.383 . S
C102 O96 1.412 . S
C102 C101 1.383 . S
C102 C103 1.394 1_554 S
C103 H93 0.929 . S
C103 C99 1.377 . S
C103 C102 1.394 1_556 S
Tb104 C106 2.809 . S
Tb104 O124 2.484 . S
Tb104 O125 2.440 . S
Tb104 O126 2.658 1_565 S
Tb104 O127 2.409 . S
Tb104 O128 2.378 . S
Tb104 O132 2.325 1_455 S
Tb104 O135 2.341 1_565 S
Tb105 C115 2.809 . S
Tb105 O126 2.325 1_655 S
Tb105 O129 2.341 1_545 S
Tb105 O130 2.484 . S
Tb105 O131 2.440 . S
Tb105 O132 2.658 1_545 S
Tb105 O133 2.409 . S
Tb105 O134 2.378 . S
C106 Tb104 2.809 . S
C106 C107 1.514 1_556 S
C106 O124 1.248 . S
C106 O125 1.266 . S
C107 C106 1.514 1_554 S
C107 C108 1.359 . S
C107 C112 1.348 . S
C108 C107 1.359 . S
C108 C109 1.380 . S
C108 H136 0.929 1_455 S
C109 C108 1.380 . S
C109 C110 1.347 . S
C109 H137 0.931 1_455 S
C110 C109 1.347 . S
C110 C111 1.369 . S
C111 C110 1.369 . S
C111 C112 1.408 . S
C111 H138 0.930 . S
C112 C107 1.348 . S
C112 C111 1.408 . S
C112 H139 0.930 1_554 S
C113 O126 1.281 1_565 S
C113 O127 1.254 . S
C114 O128 1.236 1_655 S
C114 O129 1.266 . S
C115 Tb105 2.809 . S
C115 C116 1.514 . S
C115 O130 1.248 . S
C115 O131 1.266 . S
C116 C115 1.514 . S
C116 C117 1.359 . S
C116 C121 1.348 . S
C117 C116 1.359 . S
C117 C118 1.380 . S
C117 H140 0.929 1_655 S
C118 C117 1.380 . S
C118 C119 1.347 . S
C118 H141 0.931 1_655 S
C119 C118 1.347 . S
C119 C120 1.369 . S
C120 C119 1.369 . S
C120 C121 1.408 . S
C120 H142 0.930 . S
C121 C116 1.348 . S
C121 C120 1.408 . S
C121 H143 0.930 . S
C122 O132 1.281 1_545 S
C122 O133 1.254 . S
C123 O134 1.236 1_455 S
C123 O135 1.266 . S
O124 Tb104 2.484 . S
O124 C106 1.248 . S
O125 Tb104 2.440 . S
O125 C106 1.266 . S
O126 Tb104 2.658 1_545 S
O126 Tb105 2.325 1_455 S
O126 C113 1.281 1_545 S
O127 Tb104 2.409 . S
O127 C113 1.254 . S
O128 Tb104 2.378 . S
O128 C114 1.236 1_455 S
O129 Tb105 2.341 1_565 S
O129 C114 1.266 . S
O130 Tb105 2.484 . S
O130 C115 1.248 . S
O131 Tb105 2.440 . S
O131 C115 1.266 . S
O132 Tb104 2.325 1_655 S
O132 Tb105 2.658 1_565 S
O132 C122 1.281 1_565 S
O133 Tb105 2.409 . S
O133 C122 1.254 . S
O134 Tb105 2.378 . S
O134 C123 1.236 1_655 S
O135 Tb104 2.341 1_545 S
O135 C123 1.266 . S
H136 C108 0.929 1_655 S
H137 C109 0.931 1_655 S
H138 C111 0.930 . S
H139 C112 0.930 1_556 S
H140 C117 0.929 1_455 S
H141 C118 0.931 1_455 S
H142 C120 0.930 . S
H143 C121 0.930 . S
Tb144 C146 2.809 . S
Tb144 O164 2.484 . S
Tb144 O165 2.440 . S
Tb144 O166 2.658 . S
Tb144 O167 2.409 . S
Tb144 O168 2.378 . S
Tb144 O172 2.325 1_545 S
Tb144 O175 2.341 . S
Tb145 C155 2.809 . S
Tb145 O166 2.325 1_565 S
Tb145 O169 2.341 . S
Tb145 O170 2.500 . S
Tb145 O171 2.440 . S
Tb145 O172 2.658 . S
Tb145 O173 2.409 . S
Tb145 O174 2.378 . S
C146 Tb144 2.809 . S
C146 C147 1.514 1_556 S
C146 O164 1.248 . S
C146 O165 1.266 . S
C147 C146 1.514 1_554 S
C147 C148 1.359 . S
C147 C152 1.348 . S
C148 C147 1.359 . S
C148 C149 1.380 . S
C148 H176 0.929 1_545 S
C149 C148 1.380 . S
C149 C150 1.347 . S
C149 H177 0.931 1_545 S
C150 C149 1.347 . S
C150 C151 1.369 . S
C151 C150 1.369 . S
C151 C152 1.408 . S
C151 H178 0.930 . S
C152 C147 1.348 . S
C152 C151 1.408 . S
C152 H179 0.930 1_554 S
C153 O166 1.281 . S
C153 O167 1.254 . S
C154 O168 1.236 1_565 S
C154 O169 1.266 . S
C155 Tb145 2.809 . S
C155 C156 1.514 . S
C155 O170 1.283 . S
C155 O171 1.266 . S
C156 C155 1.514 . S
C156 C157 1.359 . S
C156 C161 1.348 . S
C157 C156 1.359 . S
C157 C158 1.380 . S
C157 H180 0.929 1_565 S
C158 C157 1.380 . S
C158 C159 1.347 . S
C158 H181 0.931 1_565 S
C159 C158 1.347 . S
C159 C160 1.369 . S
C160 C159 1.369 . S
C160 C161 1.408 . S
C160 H182 0.930 . S
C161 C156 1.348 . S
C161 C160 1.408 . S
C161 H183 0.930 . S
C162 O172 1.281 . S
C162 O173 1.254 . S
C163 O174 1.236 1_545 S
C163 O175 1.266 . S
O164 Tb144 2.484 . S
O164 C146 1.248 . S
O165 Tb144 2.440 . S
O165 C146 1.266 . S
O166 Tb144 2.658 . S
O166 Tb145 2.325 1_545 S
O166 C153 1.281 . S
O167 Tb144 2.409 . S
O167 C153 1.254 . S
O168 Tb144 2.378 . S
O168 C154 1.236 1_545 S
O169 Tb145 2.341 . S
O169 C154 1.266 . S
O170 Tb145 2.500 . S
O170 C155 1.283 . S
O171 Tb145 2.440 . S
O171 C155 1.266 . S
O172 Tb144 2.325 1_565 S
O172 Tb145 2.658 . S
O172 C162 1.281 . S
O173 Tb145 2.409 . S
O173 C162 1.254 . S
O174 Tb145 2.378 . S
O174 C163 1.236 1_565 S
O175 Tb144 2.341 . S
O175 C163 1.266 . S
H176 C148 0.929 1_565 S
H177 C149 0.931 1_565 S
H178 C151 0.930 . S
H179 C152 0.930 1_556 S
H180 C157 0.929 1_545 S
H181 C158 0.931 1_545 S
H182 C160 0.930 . S
H183 C161 0.930 . S
Tb184 C186 2.809 . S
Tb184 O204 2.484 . S
Tb184 O205 2.440 . S
Tb184 O206 2.658 . S
Tb184 O207 2.409 . S
Tb184 O208 2.378 . S
Tb184 O212 2.325 . S
Tb184 O215 2.341 . S
Tb185 C195 2.809 . S
Tb185 O206 2.325 . S
Tb185 O209 2.341 . S
Tb185 O210 2.484 . S
Tb185 O211 2.440 . S
Tb185 O212 2.658 . S
Tb185 O213 2.409 . S
Tb185 O214 2.378 . S
C186 Tb184 2.809 . S
C186 C187 1.514 1_556 S
C186 O204 1.248 . S
C186 O205 1.266 . S
C187 C186 1.514 1_554 S
C187 C188 1.359 . S
C187 C192 1.348 . S
C188 C187 1.359 . S
C188 C189 1.380 . S
C188 H216 0.929 . S
C189 C188 1.380 . S
C189 C190 1.347 . S
C189 H217 0.931 . S
C190 C189 1.347 . S
C190 C191 1.369 . S
C191 C190 1.369 . S
C191 C192 1.408 . S
C191 H218 0.930 . S
C192 C187 1.348 . S
C192 C191 1.408 . S
C192 H219 0.930 1_554 S
C193 O206 1.281 . S
C193 O207 1.254 . S
C194 O208 1.236 . S
C194 O209 1.266 . S
C195 Tb185 2.809 . S
C195 C196 1.514 . S
C195 O210 1.248 . S
C195 O211 1.266 . S
C196 C195 1.514 . S
C196 C197 1.359 . S
C196 C201 1.348 . S
C197 C196 1.359 . S
C197 C198 1.380 . S
C197 H220 0.929 . S
C198 C197 1.380 . S
C198 C199 1.347 . S
C198 H221 0.931 . S
C199 C198 1.347 . S
C199 C200 1.369 . S
C200 C199 1.369 . S
C200 C201 1.408 . S
C200 H222 0.930 . S
C201 C196 1.348 . S
C201 C200 1.408 . S
C201 H223 0.930 . S
C202 O212 1.281 . S
C202 O213 1.254 . S
C203 O214 1.236 . S
C203 O215 1.266 . S
O204 Tb184 2.484 . S
O204 C186 1.248 . S
O205 Tb184 2.440 . S
O205 C186 1.266 . S
O206 Tb184 2.658 . S
O206 Tb185 2.325 . S
O206 C193 1.281 . S
O207 Tb184 2.409 . S
O207 C193 1.254 . S
O208 Tb184 2.378 . S
O208 C194 1.236 . S
O209 Tb185 2.341 . S
O209 C194 1.266 . S
O210 Tb185 2.484 . S
O210 C195 1.248 . S
O211 Tb185 2.440 . S
O211 C195 1.266 . S
O212 Tb184 2.325 . S
O212 Tb185 2.658 . S
O212 C202 1.281 . S
O213 Tb185 2.409 . S
O213 C202 1.254 . S
O214 Tb185 2.378 . S
O214 C203 1.236 . S
O215 Tb184 2.341 . S
O215 C203 1.266 . S
H216 C188 0.929 . S
H217 C189 0.931 . S
H218 C191 0.930 . S
H219 C192 0.930 1_556 S
H220 C197 0.929 . S
H221 C198 0.931 . S
H222 C200 0.930 . S
H223 C201 0.930 . S
Tb224 C226 2.809 . S
Tb224 O244 2.484 . S
Tb224 O245 2.440 . S
Tb224 O246 2.658 1_655 S
Tb224 O247 2.409 . S
Tb224 O248 2.378 . S
Tb224 O252 2.325 . S
Tb224 O255 2.341 1_655 S
Tb225 C235 2.809 . S
Tb225 O246 2.325 . S
Tb225 O249 2.341 1_455 S
Tb225 O250 2.484 . S
Tb225 O251 2.440 . S
Tb225 O252 2.658 1_455 S
Tb225 O253 2.409 . S
Tb225 O254 2.378 . S
C226 Tb224 2.809 . S
C226 C227 1.514 1_556 S
C226 O244 1.248 . S
C226 O245 1.266 . S
C227 C226 1.514 1_554 S
C227 C228 1.359 . S
C227 C232 1.348 . S
C228 C227 1.359 . S
C228 C229 1.380 . S
C228 H256 0.929 . S
C229 C228 1.380 . S
C229 C230 1.347 . S
C229 H257 0.931 . S
C230 C229 1.347 . S
C230 C231 1.369 . S
C231 C230 1.369 . S
C231 C232 1.408 . S
C231 H258 0.930 . S
C232 C227 1.348 . S
C232 C231 1.408 . S
C232 H259 0.930 1_554 S
C233 O246 1.273 1_655 S
C233 O247 1.264 . S
C234 O248 1.236 . S
C234 O249 1.266 . S
C235 Tb225 2.809 . S
C235 C236 1.514 . S
C235 O250 1.248 . S
C235 O251 1.266 . S
C236 C235 1.514 . S
C236 C237 1.359 . S
C236 C241 1.348 . S
C237 C236 1.359 . S
C237 C238 1.380 . S
C237 H260 0.929 . S
C238 C237 1.380 . S
C238 C239 1.347 . S
C238 H261 0.931 . S
C239 C238 1.347 . S
C239 C240 1.369 . S
C240 C239 1.369 . S
C240 C241 1.408 . S
C240 H262 0.930 . S
C241 C236 1.348 . S
C241 C240 1.408 . S
C241 H263 0.930 . S
C242 O252 1.270 1_455 S
C242 O253 1.269 . S
C243 O254 1.236 . S
C243 O255 1.266 . S
O244 Tb224 2.484 . S
O244 C226 1.248 . S
O245 Tb224 2.440 . S
O245 C226 1.266 . S
O246 Tb224 2.658 1_455 S
O246 Tb225 2.325 . S
O246 C233 1.273 1_455 S
O247 Tb224 2.409 . S
O247 C233 1.264 . S
O248 Tb224 2.378 . S
O248 C234 1.236 . S
O249 Tb225 2.341 1_655 S
O249 C234 1.266 . S
O250 Tb225 2.484 . S
O250 C235 1.248 . S
O251 Tb225 2.440 . S
O251 C235 1.266 . S
O252 Tb224 2.325 . S
O252 Tb225 2.658 1_655 S
O252 C242 1.270 1_655 S
O253 Tb225 2.409 . S
O253 C242 1.269 . S
O254 Tb225 2.378 . S
O254 C243 1.236 . S
O255 Tb224 2.341 1_455 S
O255 C243 1.266 . S
H256 C228 0.929 . S
H257 C229 0.931 . S
H258 C231 0.930 . S
H259 C232 0.930 1_556 S
H260 C237 0.929 . S
H261 C238 0.931 . S
H262 C240 0.930 . S
H263 C241 0.930 . S
H264 C270 0.930 . S
H265 C274 0.930 . S
H266 C279 0.929 . S
H267 C277 0.929 . S
H268 C272 0.929 . S
H269 C278 0.929 . S
C270 H264 0.930 . S
C270 C271 1.372 . S
C270 C278 1.378 . S
C271 C270 1.372 . S
C271 C279 1.428 1_545 S
C272 H268 0.929 . S
C272 C274 1.378 . S
C272 C276 1.353 . S
C273 C276 1.462 1_545 S
C273 C278 1.358 . S
C273 N281 1.419 1_545 S
C274 H265 0.930 . S
C274 C272 1.378 . S
C274 C275 1.367 . S
C275 C274 1.367 . S
C275 C277 1.433 1_565 S
C276 C272 1.353 . S
C276 C273 1.462 1_565 S
C276 N280 1.425 1_565 S
C277 H267 0.929 . S
C277 C275 1.433 1_545 S
C277 N280 1.384 . S
C278 H269 0.929 . S
C278 C270 1.378 . S
C278 C273 1.358 . S
C279 H266 0.929 . S
C279 C271 1.428 1_565 S
C279 N281 1.384 . S
N280 C276 1.425 1_545 S
N280 C277 1.384 . S
N281 C273 1.419 1_565 S
N281 C279 1.384 . S
H282 C288 0.930 . S
H283 C292 0.930 . S
H284 C297 0.929 . S
H285 C295 0.929 . S
H286 C290 0.929 . S
H287 C296 0.929 . S
C288 H282 0.930 . S
C288 C289 1.367 . S
C288 C296 1.378 . S
C289 C288 1.367 . S
C289 C297 1.433 . S
C290 H286 0.929 . S
C290 C292 1.378 . S
C290 C294 1.350 . S
C291 C294 1.463 . S
C291 C296 1.350 . S
C291 N299 1.427 . S
C292 H283 0.930 . S
C292 C290 1.378 . S
C292 C293 1.367 . S
C293 C292 1.367 . S
C293 C295 1.433 . S
C294 C290 1.350 . S
C294 C291 1.463 . S
C294 N298 1.427 . S
C295 H285 0.929 . S
C295 C293 1.433 . S
C295 N298 1.384 . S
C296 H287 0.929 . S
C296 C288 1.378 . S
C296 C291 1.350 . S
C297 H284 0.929 . S
C297 C289 1.433 . S
C297 N299 1.384 . S
N298 C294 1.427 . S
N298 C295 1.384 . S
N299 C291 1.427 . S
N299 C297 1.384 . S
H300 C306 0.930 . S
H301 C310 0.930 . S
H302 C315 0.929 . S
H303 C313 0.929 . S
H304 C308 0.929 . S
H305 C314 0.929 . S
C306 H300 0.930 . S
C306 C307 1.367 . S
C306 C314 1.378 . S
C307 C306 1.367 . S
C307 C315 1.433 . S
C308 H304 0.929 . S
C308 C310 1.378 . S
C308 C312 1.350 . S
C309 C312 1.463 . S
C309 C314 1.350 . S
C309 N317 1.427 . S
C310 H301 0.930 . S
C310 C308 1.378 . S
C310 C311 1.367 . S
C311 C310 1.367 . S
C311 C313 1.433 . S
C312 C308 1.350 . S
C312 C309 1.463 . S
C312 N316 1.427 . S
C313 H303 0.929 . S
C313 C311 1.433 . S
C313 N316 1.384 . S
C314 H305 0.929 . S
C314 C306 1.378 . S
C314 C309 1.350 . S
C315 H302 0.929 . S
C315 C307 1.433 . S
C315 N317 1.384 . S
N316 C312 1.427 . S
N316 C313 1.384 . S
N317 C309 1.427 . S
N317 C315 1.384 . S
H318 C324 0.930 . S
H319 C328 0.930 . S
H320 C333 0.929 . S
H321 C331 0.929 . S
H322 C326 0.929 . S
H323 C332 0.929 . S
C324 H318 0.930 . S
C324 C325 1.371 . S
C324 C332 1.378 . S
C325 C324 1.371 . S
C325 C333 1.429 1_455 S
C326 H322 0.929 . S
C326 C328 1.378 . S
C326 C330 1.345 1_655 S
C327 C330 1.462 . S
C327 C332 1.360 . S
C327 N335 1.418 1_455 S
C328 H319 0.930 . S
C328 C326 1.378 . S
C328 C329 1.357 1_655 S
C329 C328 1.357 1_455 S
C329 C331 1.444 . S
C330 C326 1.345 1_455 S
C330 C327 1.462 . S
C330 N334 1.432 . S
C331 H321 0.929 . S
C331 C329 1.444 . S
C331 N334 1.384 . S
C332 H323 0.929 . S
C332 C324 1.378 . S
C332 C327 1.360 . S
C333 H320 0.929 . S
C333 C325 1.429 1_655 S
C333 N335 1.384 . S
N334 C330 1.432 . S
N334 C331 1.384 . S
N335 C327 1.418 1_655 S
N335 C333 1.384 . S
H336 C342 0.930 . S
H337 C346 0.930 1_556 S
H338 C351 0.929 . S
H339 C349 0.929 . S
H340 C344 0.929 . S
H341 C350 0.929 . S
C342 H336 0.930 . S
C342 C343 1.377 . S
C342 C350 1.378 . S
C343 C342 1.377 . S
C343 C351 1.423 1_565 S
C344 H340 0.929 . S
C344 C346 1.378 . S
C344 C348 1.375 . S
C345 C348 1.461 1_565 S
C345 C350 1.369 . S
C345 N353 1.408 1_565 S
C346 H337 0.930 1_554 S
C346 C344 1.378 . S
C346 C347 1.383 1_554 S
C347 C346 1.383 1_556 S
C347 C349 1.417 1_545 S
C348 C344 1.375 . S
C348 C345 1.461 1_545 S
C348 N352 1.402 1_545 S
C349 H339 0.929 . S
C349 C347 1.417 1_565 S
C349 N352 1.384 1_556 S
C350 H341 0.929 . S
C350 C342 1.378 . S
C350 C345 1.369 . S
C351 H338 0.929 . S
C351 C343 1.423 1_545 S
C351 N353 1.384 . S
N352 C348 1.402 1_565 S
N352 C349 1.384 1_554 S
N353 C345 1.408 1_545 S
N353 C351 1.384 . S
H354 C360 0.930 . S
H355 C364 0.930 . S
H356 C369 0.929 . S
H357 C367 0.929 1_556 S
H358 C362 0.929 . S
H359 C368 0.929 . S
C360 H354 0.930 . S
C360 C361 1.367 . S
C360 C368 1.378 . S
C361 C360 1.367 . S
C361 C369 1.433 . S
C362 H358 0.929 . S
C362 C364 1.378 1_554 S
C362 C366 1.350 . S
C363 C366 1.463 . S
C363 C368 1.350 . S
C363 N371 1.427 . S
C364 H355 0.930 . S
C364 C362 1.378 1_556 S
C364 C365 1.367 . S
C365 C364 1.367 . S
C365 C367 1.433 1_556 S
C366 C362 1.350 . S
C366 C363 1.463 . S
C366 N370 1.427 . S
C367 H357 0.929 1_554 S
C367 C365 1.433 1_554 S
C367 N370 1.384 . S
C368 H359 0.929 . S
C368 C360 1.378 . S
C368 C363 1.350 . S
C369 H356 0.929 . S
C369 C361 1.433 . S
C369 N371 1.384 . S
N370 C366 1.427 . S
N370 C367 1.384 . S
N371 C363 1.427 . S
N371 C369 1.384 . S
H372 C378 0.930 . S
H373 C382 0.930 . S
H374 C387 0.929 . S
H375 C385 0.929 . S
H376 C380 0.929 . S
H377 C386 0.929 . S
C378 H372 0.930 . S
C378 C379 1.367 . S
C378 C386 1.378 . S
C379 C378 1.367 . S
C379 C387 1.433 . S
C380 H376 0.929 . S
C380 C382 1.378 . S
C380 C384 1.350 . S
C381 C384 1.463 . S
C381 C386 1.350 . S
C381 N389 1.427 . S
C382 H373 0.930 . S
C382 C380 1.378 . S
C382 C383 1.367 1_554 S
C383 C382 1.367 1_556 S
C383 C385 1.433 . S
C384 C380 1.350 . S
C384 C381 1.463 . S
C384 N388 1.431 . S
C385 H375 0.929 . S
C385 C383 1.433 . S
C385 N388 1.380 1_556 S
C386 H377 0.929 . S
C386 C378 1.378 . S
C386 C381 1.350 . S
C387 H374 0.929 . S
C387 C379 1.433 . S
C387 N389 1.384 . S
N388 C384 1.431 . S
N388 C385 1.380 1_554 S
N389 C381 1.427 . S
N389 C387 1.384 . S
H390 C396 0.930 . S
H391 C400 0.930 1_556 S
H392 C405 0.929 . S
H393 C403 0.929 . S
H394 C398 0.929 . S
H395 C404 0.929 . S
C396 H390 0.930 . S
C396 C397 1.389 . S
C396 C404 1.378 . S
C397 C396 1.389 . S
C397 C405 1.411 1_655 S
C398 H394 0.929 . S
C398 C400 1.378 . S
C398 C402 1.353 1_455 S
C399 C402 1.462 . S
C399 C404 1.350 . S
C399 N407 1.427 1_655 S
C400 H391 0.930 1_554 S
C400 C398 1.378 . S
C400 C401 1.350 1_454 S
C401 C400 1.350 1_656 S
C401 C403 1.450 . S
C402 C398 1.353 1_655 S
C402 C399 1.462 . S
C402 N406 1.425 . S
C403 H393 0.929 . S
C403 C401 1.450 . S
C403 N406 1.384 1_556 S
C404 H395 0.929 . S
C404 C396 1.378 . S
C404 C399 1.350 . S
C405 H392 0.929 . S
C405 C397 1.411 1_455 S
C405 N407 1.384 . S
N406 C402 1.425 . S
N406 C403 1.384 1_554 S
N407 C399 1.427 1_455 S
N407 C405 1.384 . S
H408 C414 0.930 . S
H409 C418 0.930 . S
H410 C423 0.929 . S
H411 C421 0.929 . S
H412 C416 0.929 . S
H413 C422 0.929 . S
C414 H408 0.930 . S
C414 C415 1.367 . S
C414 C422 1.378 . S
C415 C414 1.367 . S
C415 C423 1.433 1_455 S
C416 H412 0.929 . S
C416 C418 1.378 . S
C416 C420 1.350 . S
C417 C420 1.463 . S
C417 C422 1.350 1_655 S
C417 N425 1.427 . S
C418 H409 0.930 . S
C418 C416 1.378 . S
C418 C419 1.367 . S
C419 C418 1.367 . S
C419 C421 1.433 . S
C420 C416 1.350 . S
C420 C417 1.463 . S
C420 N424 1.427 . S
C421 H411 0.929 . S
C421 C419 1.433 . S
C421 N424 1.384 . S
C422 H413 0.929 . S
C422 C414 1.378 . S
C422 C417 1.350 1_455 S
C423 H410 0.929 . S
C423 C415 1.433 1_655 S
C423 N425 1.384 . S
N424 C420 1.427 . S
N424 C421 1.384 . S
N425 C417 1.427 . S
N425 C423 1.384 . S
H426 C432 0.930 . S
H427 C436 0.930 . S
H428 C441 0.929 . S
H429 C439 0.929 . S
H430 C434 0.929 . S
H431 C440 0.929 . S
C432 H426 0.930 . S
C432 C433 1.367 . S
C432 C440 1.378 . S
C433 C432 1.367 . S
C433 C441 1.433 1_545 S
C434 H430 0.929 . S
C434 C436 1.378 . S
C434 C438 1.350 . S
C435 C438 1.463 . S
C435 C440 1.350 1_565 S
C435 N443 1.427 . S
C436 H427 0.930 . S
C436 C434 1.378 . S
C436 C437 1.367 . S
C437 C436 1.367 . S
C437 C439 1.433 . S
C438 C434 1.350 . S
C438 C435 1.463 . S
C438 N442 1.427 . S
C439 H429 0.929 . S
C439 C437 1.433 . S
C439 N442 1.384 . S
C440 H431 0.929 . S
C440 C432 1.378 . S
C440 C435 1.350 1_545 S
C441 H428 0.929 . S
C441 C433 1.433 1_565 S
C441 N443 1.384 . S
N442 C438 1.427 . S
N442 C439 1.384 . S
N443 C435 1.427 . S
N443 C441 1.384 . S
H444 C450 0.930 . S
H445 C454 0.930 . S
H446 C459 0.929 . S
H447 C457 0.929 . S
H448 C452 0.929 . S
H449 C458 0.929 . S
C450 H444 0.930 . S
C450 C451 1.367 . S
C450 C458 1.378 . S
C451 C450 1.367 . S
C451 C459 1.433 . S
C452 H448 0.929 . S
C452 C454 1.378 . S
C452 C456 1.350 . S
C453 C456 1.463 . S
C453 C458 1.350 . S
C453 N461 1.427 . S
C454 H445 0.930 . S
C454 C452 1.378 . S
C454 C455 1.367 . S
C455 C454 1.367 . S
C455 C457 1.433 . S
C456 C452 1.350 . S
C456 C453 1.463 . S
C456 N460 1.427 . S
C457 H447 0.929 . S
C457 C455 1.433 . S
C457 N460 1.384 . S
C458 H449 0.929 . S
C458 C450 1.378 . S
C458 C453 1.350 . S
C459 H446 0.929 . S
C459 C451 1.433 . S
C459 N461 1.384 . S
N460 C456 1.427 . S
N460 C457 1.384 . S
N461 C453 1.427 . S
N461 C459 1.384 . S
H462 C468 0.930 . S
H463 C472 0.930 . S
H464 C477 0.929 . S
H465 C475 0.929 . S
H466 C470 0.929 . S
H467 C476 0.929 . S
C468 H462 0.930 . S
C468 C469 1.367 . S
C468 C476 1.378 . S
C469 C468 1.367 . S
C469 C477 1.433 . S
C470 H466 0.929 . S
C470 C472 1.378 . S
C470 C474 1.350 . S
C471 C474 1.463 . S
C471 C476 1.350 . S
C471 N479 1.427 . S
C472 H463 0.930 . S
C472 C470 1.378 . S
C472 C473 1.367 . S
C473 C472 1.367 . S
C473 C475 1.433 . S
C474 C470 1.350 . S
C474 C471 1.463 . S
C474 N478 1.427 . S
C475 H465 0.929 . S
C475 C473 1.433 . S
C475 N478 1.384 . S
C476 H467 0.929 . S
C476 C468 1.378 . S
C476 C471 1.350 . S
C477 H464 0.929 . S
C477 C469 1.433 . S
C477 N479 1.384 . S
N478 C474 1.427 . S
N478 C475 1.384 . S
N479 C471 1.427 . S
N479 C477 1.384 . S
H480 C486 0.930 . S
H481 C490 0.930 1_655 S
H482 C495 0.929 . S
H483 C493 0.929 . S
H484 C488 0.929 1_655 S
H485 C494 0.929 . S
C486 H480 0.930 . S
C486 C487 1.367 1_455 S
C486 C494 1.378 . S
C487 C486 1.367 1_655 S
C487 C495 1.433 . S
C488 H484 0.929 1_455 S
C488 C490 1.378 . S
C488 C492 1.350 . S
C489 C492 1.463 . S
C489 C494 1.350 . S
C489 N497 1.427 1_455 S
C490 H481 0.930 1_455 S
C490 C488 1.378 . S
C490 C491 1.367 . S
C491 C490 1.367 . S
C491 C493 1.433 . S
C492 C488 1.350 . S
C492 C489 1.463 . S
C492 N496 1.427 . S
C493 H483 0.929 . S
C493 C491 1.433 . S
C493 N496 1.384 . S
C494 H485 0.929 . S
C494 C486 1.378 . S
C494 C489 1.350 . S
C495 H482 0.929 . S
C495 C487 1.433 . S
C495 N497 1.384 . S
N496 C492 1.427 . S
N496 C493 1.384 . S
N497 C489 1.427 1_655 S
N497 C495 1.384 . S
H498 C504 0.930 . S
H499 C508 0.930 1_565 S
H500 C513 0.929 . S
H501 C511 0.929 . S
H502 C506 0.900 1_565 S
H503 C512 0.929 . S
C504 H498 0.930 . S
C504 C505 1.331 1_545 S
C504 C512 1.378 . S
C505 C504 1.331 1_565 S
C505 C513 1.460 . S
C506 H502 0.900 1_545 S
C506 C508 1.386 . S
C506 C510 1.371 . S
C507 C510 1.463 . S
C507 C512 1.350 . S
C507 N515 1.427 1_545 S
C508 H499 0.930 1_545 S
C508 C506 1.386 . S
C508 C509 1.367 . S
C509 C508 1.367 . S
C509 C511 1.433 . S
C510 C506 1.371 . S
C510 C507 1.463 . S
C510 N514 1.427 . S
C511 H501 0.929 . S
C511 C509 1.433 . S
C511 N514 1.384 . S
C512 H503 0.929 . S
C512 C504 1.378 . S
C512 C507 1.350 . S
C513 H500 0.929 . S
C513 C505 1.460 . S
C513 N515 1.384 . S
N514 C510 1.427 . S
N514 C511 1.384 . S
N515 C507 1.427 1_565 S
N515 C513 1.384 . S
H516 C522 0.930 . S
H517 C526 0.930 . S
H518 C531 0.929 . S
H519 C529 0.929 . S
H520 C524 0.929 . S
H521 C530 0.929 . S
C522 H516 0.930 . S
C522 C523 1.367 . S
C522 C530 1.378 . S
C523 C522 1.367 . S
C523 C531 1.433 . S
C524 H520 0.929 . S
C524 C526 1.378 . S
C524 C528 1.350 . S
C525 C528 1.463 . S
C525 C530 1.350 . S
C525 N533 1.427 . S
C526 H517 0.930 . S
C526 C524 1.378 . S
C526 C527 1.367 . S
C527 C526 1.367 . S
C527 C529 1.433 . S
C528 C524 1.350 . S
C528 C525 1.463 . S
C528 N532 1.427 . S
C529 H519 0.929 . S
C529 C527 1.433 . S
C529 N532 1.384 . S
C530 H521 0.929 . S
C530 C522 1.378 . S
C530 C525 1.350 . S
C531 H518 0.929 . S
C531 C523 1.433 . S
C531 N533 1.384 . S
N532 C528 1.427 . S
N532 C529 1.384 . S
N533 C525 1.427 . S
N533 C531 1.384 . S
H534 C540 0.930 . S
H535 C544 0.930 . S
H536 C549 0.929 . S
H537 C547 0.929 . S
H538 C542 0.929 . S
H539 C548 0.929 . S
C540 H534 0.930 . S
C540 C541 1.367 . S
C540 C548 1.378 . S
C541 C540 1.367 . S
C541 C549 1.433 . S
C542 H538 0.929 . S
C542 C544 1.378 . S
C542 C546 1.350 . S
C543 C546 1.463 . S
C543 C548 1.350 . S
C543 N551 1.427 . S
C544 H535 0.930 . S
C544 C542 1.378 . S
C544 C545 1.367 . S
C545 C544 1.367 . S
C545 C547 1.433 . S
C546 C542 1.350 . S
C546 C543 1.463 . S
C546 N550 1.427 . S
C547 H537 0.929 . S
C547 C545 1.433 . S
C547 N550 1.384 . S
C548 H539 0.929 . S
C548 C540 1.378 . S
C548 C543 1.350 . S
C549 H536 0.929 . S
C549 C541 1.433 . S
C549 N551 1.384 . S
N550 C546 1.427 . S
N550 C547 1.384 . S
N551 C543 1.427 . S
N551 C549 1.384 . S
H552 C558 0.930 . S
H553 C562 0.930 . S
H554 C567 0.929 . S
H555 C565 0.929 . S
H556 C560 0.929 . S
H557 C566 0.929 . S
C558 H552 0.930 . S
C558 C559 1.367 1_655 S
C558 C566 1.378 . S
C559 C558 1.367 1_455 S
C559 C567 1.433 . S
C560 H556 0.929 . S
C560 C562 1.378 . S
C560 C564 1.350 . S
C561 C564 1.463 . S
C561 C566 1.350 1_455 S
C561 N569 1.427 . S
C562 H553 0.930 . S
C562 C560 1.378 . S
C562 C563 1.367 . S
C563 C562 1.367 . S
C563 C565 1.433 1_455 S
C564 C560 1.350 . S
C564 C561 1.463 . S
C564 N568 1.427 1_455 S
C565 H555 0.929 . S
C565 C563 1.433 1_655 S
C565 N568 1.384 . S
C566 H557 0.929 . S
C566 C558 1.378 . S
C566 C561 1.350 1_655 S
C567 H554 0.929 . S
C567 C559 1.433 . S
C567 N569 1.384 . S
N568 C564 1.427 1_655 S
N568 C565 1.384 . S
N569 C561 1.427 . S
N569 C567 1.384 . S
H570 C576 0.931 1_554 S
H571 C580 0.930 . S
H572 C585 0.929 . S
H573 C583 0.929 . S
H574 C578 0.929 . S
H575 C584 0.929 1_554 S
C576 H570 0.931 1_556 S
C576 C577 1.367 . S
C576 C584 1.378 . S
C577 C576 1.367 . S
C577 C585 1.433 . S
C578 H574 0.929 . S
C578 C580 1.378 . S
C578 C582 1.350 . S
C579 C582 1.463 . S
C579 C584 1.350 . S
C579 N587 1.427 . S
C580 H571 0.930 . S
C580 C578 1.378 . S
C580 C581 1.367 . S
C581 C580 1.367 . S
C581 C583 1.433 . S
C582 C578 1.350 . S
C582 C579 1.463 . S
C582 N586 1.427 . S
C583 H573 0.929 . S
C583 C581 1.433 . S
C583 N586 1.384 . S
C584 H575 0.929 1_556 S
C584 C576 1.378 . S
C584 C579 1.350 . S
C585 H572 0.929 . S
C585 C577 1.433 . S
C585 N587 1.384 . S
N586 C582 1.427 . S
N586 C583 1.384 . S
N587 C579 1.427 . S
N587 C585 1.384 . S
H588 C594 0.930 . S
H589 C598 0.930 . S
H590 C603 0.929 . S
H591 C601 0.929 . S
H592 C596 0.929 . S
H593 C602 0.929 . S
C594 H588 0.930 . S
C594 C595 1.367 . S
C594 C602 1.378 . S
C595 C594 1.367 . S
C595 C603 1.433 . S
C596 H592 0.929 . S
C596 C598 1.378 . S
C596 C600 1.350 . S
C597 C600 1.463 . S
C597 C602 1.350 . S
C597 N605 1.427 . S
C598 H589 0.930 . S
C598 C596 1.378 . S
C598 C599 1.367 . S
C599 C598 1.367 . S
C599 C601 1.433 . S
C600 C596 1.350 . S
C600 C597 1.463 . S
C600 N604 1.427 . S
C601 H591 0.929 . S
C601 C599 1.433 . S
C601 N604 1.384 . S
C602 H593 0.929 . S
C602 C594 1.378 . S
C602 C597 1.350 . S
C603 H590 0.929 . S
C603 C595 1.433 . S
C603 N605 1.384 . S
N604 C600 1.427 . S
N604 C601 1.384 . S
N605 C597 1.427 . S
N605 C603 1.384 . S
H606 C612 0.930 . S
H607 C616 0.930 . S
H608 C621 0.929 . S
H609 C619 0.929 . S
H610 C614 0.929 . S
H611 C620 0.929 . S
C612 H606 0.930 . S
C612 C613 1.367 . S
C612 C620 1.378 . S
C613 C612 1.367 . S
C613 C621 1.433 . S
C614 H610 0.929 . S
C614 C616 1.378 . S
C614 C618 1.350 . S
C615 C618 1.463 . S
C615 C620 1.350 . S
C615 N623 1.427 . S
C616 H607 0.930 . S
C616 C614 1.378 . S
C616 C617 1.367 . S
C617 C616 1.367 . S
C617 C619 1.433 . S
C618 C614 1.350 . S
C618 C615 1.463 . S
C618 N622 1.427 . S
C619 H609 0.929 . S
C619 C617 1.433 . S
C619 N622 1.384 . S
C620 H611 0.929 . S
C620 C612 1.378 . S
C620 C615 1.350 . S
C621 H608 0.929 . S
C621 C613 1.433 . S
C621 N623 1.384 . S
N622 C618 1.427 . S
N622 C619 1.384 . S
N623 C615 1.427 . S
N623 C621 1.384 . S
H624 C630 0.930 . S
H625 C634 0.930 . S
H626 C639 0.929 . S
H627 C637 0.929 . S
H628 C632 0.929 . S
H629 C638 0.929 . S
C630 H624 0.930 . S
C630 C631 1.367 1_455 S
C630 C638 1.378 . S
C631 C630 1.367 1_655 S
C631 C639 1.433 . S
C632 H628 0.929 . S
C632 C634 1.378 . S
C632 C636 1.350 . S
C633 C636 1.463 . S
C633 C638 1.350 1_655 S
C633 N641 1.427 . S
C634 H625 0.930 . S
C634 C632 1.378 . S
C634 C635 1.367 . S
C635 C634 1.367 . S
C635 C637 1.433 1_655 S
C636 C632 1.350 . S
C636 C633 1.463 . S
C636 N640 1.427 1_655 S
C637 H627 0.929 . S
C637 C635 1.433 1_455 S
C637 N640 1.384 . S
C638 H629 0.929 . S
C638 C630 1.378 . S
C638 C633 1.350 1_455 S
C639 H626 0.929 . S
C639 C631 1.433 . S
C639 N641 1.384 . S
N640 C636 1.427 1_455 S
N640 C637 1.384 . S
N641 C633 1.427 . S
N641 C639 1.384 . S
H642 C648 0.930 . S
H643 C652 0.930 . S
H644 C657 0.929 . S
H645 C655 0.929 . S
H646 C650 0.922 1_545 S
H647 C656 0.929 . S
C648 H642 0.930 . S
C648 C649 1.367 . S
C648 C656 1.378 . S
C649 C648 1.367 . S
C649 C657 1.433 1_565 S
C650 H646 0.922 1_565 S
C650 C652 1.378 . S
C650 C654 1.350 . S
C651 C654 1.463 . S
C651 C656 1.350 . S
C651 N659 1.423 1_565 S
C652 H643 0.930 . S
C652 C650 1.378 . S
C652 C653 1.367 . S
C653 C652 1.367 . S
C653 C655 1.433 . S
C654 C650 1.350 . S
C654 C651 1.463 . S
C654 N658 1.427 . S
C655 H645 0.929 . S
C655 C653 1.433 . S
C655 N658 1.384 . S
C656 H647 0.929 . S
C656 C648 1.378 . S
C656 C651 1.350 . S
C657 H644 0.929 . S
C657 C649 1.433 1_545 S
C657 N659 1.385 . S
N658 C654 1.427 . S
N658 C655 1.384 . S
N659 C651 1.423 1_545 S
N659 C657 1.385 . S
H660 C666 0.930 . S
H661 C670 0.930 . S
H662 C675 0.929 . S
H663 C673 0.929 . S
H664 C668 0.929 . S
H665 C674 0.929 . S
C666 H660 0.930 . S
C666 C667 1.367 . S
C666 C674 1.378 . S
C667 C666 1.367 . S
C667 C675 1.433 . S
C668 H664 0.929 . S
C668 C670 1.378 . S
C668 C672 1.350 . S
C669 C672 1.463 . S
C669 C674 1.350 . S
C669 N677 1.427 . S
C670 H661 0.930 . S
C670 C668 1.378 . S
C670 C671 1.367 . S
C671 C670 1.367 . S
C671 C673 1.433 . S
C672 C668 1.350 . S
C672 C669 1.463 . S
C672 N676 1.427 . S
C673 H663 0.929 . S
C673 C671 1.433 . S
C673 N676 1.384 . S
C674 H665 0.929 . S
C674 C666 1.378 . S
C674 C669 1.350 . S
C675 H662 0.929 . S
C675 C667 1.433 . S
C675 N677 1.384 . S
N676 C672 1.427 . S
N676 C673 1.384 . S
N677 C669 1.427 . S
N677 C675 1.384 . S
H678 C684 0.930 . S
H679 C688 0.930 . S
H680 C693 0.929 . S
H681 C691 0.929 . S
H682 C686 0.929 . S
H683 C692 0.929 . S
C684 H678 0.930 . S
C684 C685 1.367 . S
C684 C692 1.378 . S
C685 C684 1.367 . S
C685 C693 1.433 . S
C686 H682 0.929 . S
C686 C688 1.378 . S
C686 C690 1.350 . S
C687 C690 1.463 . S
C687 C692 1.350 . S
C687 N695 1.427 . S
C688 H679 0.930 . S
C688 C686 1.378 . S
C688 C689 1.367 . S
C689 C688 1.367 . S
C689 C691 1.433 . S
C690 C686 1.350 . S
C690 C687 1.463 . S
C690 N694 1.427 . S
C691 H681 0.929 . S
C691 C689 1.433 . S
C691 N694 1.384 . S
C692 H683 0.929 . S
C692 C684 1.378 . S
C692 C687 1.350 . S
C693 H680 0.929 . S
C693 C685 1.433 . S
C693 N695 1.384 . S
N694 C690 1.427 . S
N694 C691 1.384 . S
N695 C687 1.427 . S
N695 C693 1.384 . S
C271 C82 1.659 . S
C275 C113 1.946 . S
C293 C153 1.967 . S
C289 C95 1.665 . S
C311 C193 1.974 . S
C307 C56 1.674 . S
C329 C233 1.958 1_455 S
C325 C69 1.669 . S
C347 C122 1.949 . S
C343 C30 1.668 1_565 S
C361 C43 1.697 . S
C365 C162 1.964 . S
C379 C4 1.690 . S
C383 C202 1.975 . S
C397 C17 1.673 1_655 S
C401 C242 1.957 1_655 S
C419 C119 0.504 . S
C415 C74 0.521 . S
C437 C159 0.516 . S
C433 C87 0.515 . S
C455 C199 0.521 . S
C451 C100 0.516 . S
C469 C61 0.527 . S
C473 C239 0.497 . S
C487 C22 0.489 1_655 S
C491 C110 0.475 . S
C509 C150 0.487 . S
C505 C35 0.509 1_565 S
C527 C190 0.498 . S
C523 C48 0.511 . S
C541 C9 0.515 . S
C545 C230 0.489 . S
C559 C73 2.058 . S
C563 C123 2.292 . S
C577 C86 2.017 . S
C581 C163 2.256 . S
C599 C203 2.233 . S
C595 C99 2.009 . S
C617 C243 2.280 . S
C613 C60 2.038 . S
C631 C21 2.070 1_655 S
C635 C114 2.305 . S
C653 C154 2.255 . S
C649 C34 2.035 1_565 S
C671 C194 2.236 . S
C667 C47 2.001 . S
C685 C8 2.047 . S
C689 C234 2.285 . S
