# Generated by pormake.
# Topology anh, (6,3)-cn, num edge types: 1
# Building blocks:
#     Node 0, Type 0, BuildingBlock: BETFAJ_clean_sbu_0, # of connection points: 6
#     Node 1, Type 0, BuildingBlock: BETFAJ_clean_sbu_0, # of connection points: 6
#     Node 2, Type 0, BuildingBlock: BETFAJ_clean_sbu_0, # of connection points: 6
#     Node 3, Type 1, BuildingBlock: BETDAH_clean_linker_0, # of connection points: 3
#     Node 4, Type 1, BuildingBlock: BETDAH_clean_linker_0, # of connection points: 3
#     Node 5, Type 1, BuildingBlock: BETDAH_clean_linker_0, # of connection points: 3
#     Node 6, Type 1, BuildingBlock: BETDAH_clean_linker_0, # of connection points: 3
#     Node 7, Type 1, BuildingBlock: BETDAH_clean_linker_0, # of connection points: 3
#     Node 8, Type 1, BuildingBlock: BETDAH_clean_linker_0, # of connection points: 3
#     Edge 9, Type (0, 1), BuildingBlock: KIFKEQ_clean_linker_1, # of connection points: 2
#     Edge 10, Type (0, 1), BuildingBlock: KIFKEQ_clean_linker_1, # of connection points: 2
#     Edge 11, Type (0, 1), BuildingBlock: KIFKEQ_clean_linker_1, # of connection points: 2
#     Edge 12, Type (0, 1), BuildingBlock: KIFKEQ_clean_linker_1, # of connection points: 2
#     Edge 13, Type (0, 1), BuildingBlock: KIFKEQ_clean_linker_1, # of connection points: 2
#     Edge 14, Type (0, 1), BuildingBlock: KIFKEQ_clean_linker_1, # of connection points: 2
#     Edge 15, Type (0, 1), BuildingBlock: KIFKEQ_clean_linker_1, # of connection points: 2
#     Edge 16, Type (0, 1), BuildingBlock: KIFKEQ_clean_linker_1, # of connection points: 2
#     Edge 17, Type (0, 1), BuildingBlock: KIFKEQ_clean_linker_1, # of connection points: 2
#     Edge 18, Type (0, 1), BuildingBlock: KIFKEQ_clean_linker_1, # of connection points: 2
#     Edge 19, Type (0, 1), BuildingBlock: KIFKEQ_clean_linker_1, # of connection points: 2
#     Edge 20, Type (0, 1), BuildingBlock: KIFKEQ_clean_linker_1, # of connection points: 2
#     Edge 21, Type (0, 1), BuildingBlock: KIFKEQ_clean_linker_1, # of connection points: 2
#     Edge 22, Type (0, 1), BuildingBlock: KIFKEQ_clean_linker_1, # of connection points: 2
#     Edge 23, Type (0, 1), BuildingBlock: KIFKEQ_clean_linker_1, # of connection points: 2
#     Edge 24, Type (0, 1), BuildingBlock: KIFKEQ_clean_linker_1, # of connection points: 2
#     Edge 25, Type (0, 1), BuildingBlock: KIFKEQ_clean_linker_1, # of connection points: 2
#     Edge 26, Type (0, 1), BuildingBlock: KIFKEQ_clean_linker_1, # of connection points: 2
# Relax obj value: 0.148
# Max RMSD: 0.182
# Mean RMSD: 0.111
data_MOF--net-anh--node1-BETFAJ_clean_sbu_0--node2-BETDAH_clean_linker_0--edge1-KIFKEQ_clean_linker_1
_symmetry_space_group_name_H-M    P1
_symmetry_Int_Tables_number       1
_symmetry_cell_setting            triclinic
loop_
_symmetry_equiv_pos_as_xyz
'x, y, z'
_cell_length_a     31.602574
_cell_length_b     38.805333
_cell_length_c     49.891524
_cell_angle_alpha  94.386872
_cell_angle_beta   89.918728
_cell_angle_gamma 129.63272
loop_
_atom_site_label
_atom_site_type_symbol
_atom_site_fract_x
_atom_site_fract_y
_atom_site_fract_z
_atom_type_partial_charge
Sm0 Sm 0.15507 0.54446 0.15704 0.0
Sm1 Sm 0.09113 0.5758 0.16066 0.0
C2 C 0.22821 0.5338 0.15133 0.0
C3 C 0.28743 0.56804 0.15772 0.0
C4 C 0.31801 0.61023 0.14757 0.0
C5 C 0.37444 0.64255 0.154 0.0
C6 C 0.40114 0.63279 0.1703 0.0
C7 C 0.36888 0.59245 0.18286 0.0
C8 C 0.31268 0.56028 0.17641 0.0
C9 C 0.12061 0.54477 0.20723 0.0
C10 C 0.22197 0.65428 0.16148 0.0
C11 C 1.03747 0.59882 0.18423 0.0
C12 C 0.97868 0.57221 0.18666 0.0
C13 C 0.95762 0.55997 0.21212 0.0
C14 C 0.9012 0.52835 0.21446 0.0
C15 C 0.86554 0.50898 0.19134 0.0
C16 C 0.88676 0.52113 0.16585 0.0
C17 C 0.94295 0.55251 0.16351 0.0
C18 C 0.09557 0.56047 0.10597 0.0
C19 C 1.02387 0.46721 0.15217 0.0
O20 O 0.20782 0.53928 0.13083 0.0
O21 O 0.19872 0.52203 0.17231 0.0
O22 O 0.14271 0.57642 0.19217 0.0
O23 O 0.11468 0.51092 0.19544 0.0
O24 O 0.22592 0.62226 0.1594 0.0
O25 O 0.17425 0.64489 0.16219 0.0
O26 O 1.05803 0.5839 0.19704 0.0
O27 O 1.0557 0.60994 0.16017 0.0
O28 O 0.11716 0.55466 0.12446 0.0
O29 O 1.06905 0.57314 0.11606 0.0
O30 O 1.02244 0.49908 0.16199 0.0
O31 O 1.07 0.4773 0.14387 0.0
H32 H 0.29886 0.61777 0.13393 0.0
H33 H 0.3979 0.67342 0.1443 0.0
H34 H 0.38745 0.58338 0.19562 0.0
H35 H 0.28923 0.52867 0.18534 0.0
H36 H 0.98495 0.57422 0.23012 0.0
H37 H 0.88525 0.51986 0.23424 0.0
H38 H 0.8598 0.50777 0.14778 0.0
H39 H 0.95818 0.56081 0.14358 0.0
Sm40 Sm 0.61752 0.02993 0.47712 0.0
Sm41 Sm 0.54594 0.05337 0.47476 0.0
C42 C 0.66027 0.9905 0.48345 0.0
C43 C 0.63729 0.944 0.486 0.0
C44 C 0.59404 0.91648 0.50273 0.0
C45 C 0.57376 0.87267 0.50513 0.0
C46 C 0.59614 0.85562 0.49069 0.0
C47 C 0.63766 0.8827 0.47305 0.0
C48 C 0.65801 0.92644 0.47077 0.0
C49 C 0.60465 0.0473 0.42692 0.0
C50 C 0.48282 0.9494 0.47135 0.0
C51 C 0.50248 0.09123 0.46485 0.0
C52 C 0.52122 0.13727 0.4695 0.0
C53 C 0.56063 0.17139 0.45361 0.0
C54 C 0.57749 0.21465 0.45824 0.0
C55 C 0.55473 0.22419 0.47857 0.0
C56 C 0.51622 0.19049 0.49471 0.0
C57 C 0.49964 0.14744 0.49023 0.0
C58 C 0.56107 0.03921 0.52583 0.0
C59 C 0.68171 0.13529 0.48035 0.0
O60 O 0.65492 0.011 0.5035 0.0
O61 O 0.65113 0.99793 0.45995 0.0
O62 O 0.5658 0.0232 0.44214 0.0
O63 O 0.65158 0.06283 0.43796 0.0
O64 O 0.52983 0.96292 0.48225 0.0
O65 O 0.47967 0.97844 0.46184 0.0
O66 O 0.52725 0.08449 0.44687 0.0
O67 O 0.49272 0.07024 0.48624 0.0
O68 O 0.59873 0.06085 0.50967 0.0
O69 O 0.51459 0.02619 0.51578 0.0
O70 O 0.63273 0.12211 0.47339 0.0
O71 O 0.68758 0.10601 0.48658 0.0
H72 H 0.57642 0.92895 0.51422 0.0
H73 H 0.54126 0.85242 0.5186 0.0
H74 H 0.65627 0.87087 0.46185 0.0
H75 H 0.69072 0.94691 0.45742 0.0
H76 H 0.57821 0.1647 0.4375 0.0
H77 H 0.60715 0.24028 0.44555 0.0
H78 H 0.49868 0.19747 0.5107 0.0
H79 H 0.46958 0.12199 0.50289 0.0
Sm80 Sm 0.69242 0.59084 0.82731 0.0
Sm81 Sm 0.61254 0.49094 0.82827 0.0
C82 C 0.74052 0.67352 0.81653 0.0
C83 C 0.7229 0.70086 0.81785 0.0
C84 C 0.69014 0.69653 0.79663 0.0
C85 C 0.67363 0.72242 0.79793 0.0
C86 C 0.68955 0.75326 0.82044 0.0
C87 C 0.72109 0.75672 0.84197 0.0
C88 C 0.73784 0.73097 0.84063 0.0
C89 C 0.67221 0.5625 0.87756 0.0
C90 C 0.55635 0.53814 0.83232 0.0
C91 C 0.56321 0.40744 0.83792 0.0
C92 C 0.57721 0.37786 0.8329 0.0
C93 C 0.58936 0.36401 0.85469 0.0
C94 C 0.60469 0.3374 0.8502 0.0
C95 C 0.6083 0.32438 0.82383 0.0
C96 C 0.59636 0.33836 0.80205 0.0
C97 C 0.5809 0.36478 0.80651 0.0
C98 C 0.62531 0.51844 0.77802 0.0
C99 C 0.74928 0.54449 0.82934 0.0
O100 O 0.71534 0.63942 0.79793 0.0
O101 O 0.7489 0.66415 0.83957 0.0
O102 O 0.63723 0.54679 0.85834 0.0
O103 O 0.721 0.59671 0.87133 0.0
O104 O 0.60561 0.57424 0.82564 0.0
O105 O 0.54953 0.50196 0.83773 0.0
O106 O 0.59498 0.44171 0.8561 0.0
O107 O 0.55018 0.41767 0.81677 0.0
O108 O 0.66462 0.53497 0.79532 0.0
O109 O 0.57853 0.48502 0.78643 0.0
O110 O 0.6984 0.50762 0.83296 0.0
O111 O 0.75828 0.58158 0.82402 0.0
H112 H 0.67773 0.67356 0.77881 0.0
H113 H 0.65005 0.71939 0.78081 0.0
H114 H 0.73345 0.77976 0.85975 0.0
H115 H 0.76278 0.73485 0.85739 0.0
H116 H 0.58726 0.37397 0.87521 0.0
H117 H 0.61395 0.32716 0.86731 0.0
H118 H 0.59797 0.32813 0.7815 0.0
H119 H 0.57202 0.37497 0.78923 0.0
H120 H 0.51152 0.97671 0.22989 0.0
H121 H 0.65355 0.11239 0.2177 0.0
H122 H 0.56913 0.00983 0.15058 0.0
C123 C 0.54013 1.00161 0.21653 0.0
C124 C 0.53539 0.98823 0.18913 0.0
C125 C 0.58271 0.04614 0.22708 0.0
C126 C 0.6206 0.07799 0.20965 0.0
C127 C 0.61523 0.06508 0.18183 0.0
C128 C 0.57291 0.02003 0.17187 0.0
N129 N 0.65109 0.09585 0.16309 0.0
C130 C 0.69585 0.14145 0.16885 0.0
H131 H 0.61672 0.48904 0.5809 0.0
H132 H 0.65691 0.61713 0.57534 0.0
H133 H 0.65269 0.54396 0.50466 0.0
C134 C 0.62692 0.51539 0.56896 0.0
C135 C 0.63264 0.51159 0.5413 0.0
C136 C 0.63607 0.55342 0.58156 0.0
C137 C 0.65007 0.5877 0.56594 0.0
C138 C 0.65584 0.58397 0.5381 0.0
C139 C 0.64832 0.54653 0.52612 0.0
N140 N 0.66996 0.61758 0.5216 0.0
C141 C 0.64699 0.63835 0.52355 0.0
H142 H 1.04803 0.54019 0.90425 0.0
H143 H 0.184 0.54049 0.89616 0.0
H144 H 0.10671 0.54375 0.82596 0.0
C145 C 1.07585 0.54017 0.89152 0.0
C146 C 1.071 0.54126 0.86371 0.0
C147 C 0.11571 0.53955 0.90346 0.0
C148 C 0.15347 0.5412 0.8871 0.0
C149 C 0.15092 0.54272 0.85898 0.0
C150 C 0.10954 0.54308 0.84752 0.0
N151 N 0.18804 0.54323 0.84161 0.0
C152 C 0.231 0.54214 0.84803 0.0
H153 H 0.15586 0.63571 0.40533 0.0
H154 H 1.03531 0.49521 0.41707 0.0
H155 H 0.13589 0.59354 0.4846 0.0
C156 C 0.13421 0.60907 0.4186 0.0
C157 C 0.14988 0.61992 0.44614 0.0
C158 C 0.09344 0.56431 0.40776 0.0
C159 C 1.06687 0.52984 0.4252 0.0
C160 C 0.08167 0.5404 0.45312 0.0
C161 C 0.12387 0.5854 0.46326 0.0
N162 N 1.05624 0.50711 0.4717 0.0
C163 C 1.00979 0.46193 0.46629 0.0
H164 H 0.59458 0.07566 0.72234 0.0
H165 H 0.65296 1.00226 0.72932 0.0
H166 H 0.68053 0.0927 0.79566 0.0
C167 C 0.61432 0.06682 0.73441 0.0
C168 C 0.63578 0.08764 0.76071 0.0
C169 C 0.62123 0.03673 0.72276 0.0
C170 C 0.64642 0.02476 0.73827 0.0
C171 C 0.66614 0.04421 0.76494 0.0
C172 C 0.6619 0.0761 0.77568 0.0
N173 N 0.69583 0.03623 0.78057 0.0
C174 C 0.67763 0.99367 0.78398 0.0
H175 H 0.62548 0.50971 0.07557 0.0
H176 H 0.45348 0.428 0.05196 0.0
H177 H 0.50311 0.42304 0.13042 0.0
C178 C 0.58277 0.4852 0.08026 0.0
C179 C 0.56963 0.46733 0.10511 0.0
C180 C 0.54114 0.4696 0.06071 0.0
C181 C 0.4858 0.43807 0.06655 0.0
C182 C 0.47239 0.42264 0.09211 0.0
C183 C 0.51427 0.43605 0.11092 0.0
N184 N 0.42109 0.40617 0.10156 0.0
C185 C 0.42273 0.43869 0.11628 0.0
H186 H 0.48221 0.65609 0.20799 0.0
H187 H 0.45485 0.65802 0.12377 0.0
H188 H 0.52161 0.62022 0.19618 0.0
H189 H 0.49264 0.6221 0.11189 0.0
H190 H 0.49429 0.51294 0.09247 0.0
H191 H 0.53576 0.58975 0.10926 0.0
H192 H 0.44572 0.5408 0.1813 0.0
H193 H 0.40632 0.46421 0.16466 0.0
C194 C 0.48823 0.65193 0.18698 0.0
C195 C 0.45964 0.65448 0.16675 0.0
C196 C 0.50997 0.63062 0.1802 0.0
C197 C 0.50572 0.61488 0.15319 0.0
C198 C 0.49435 0.63186 0.13304 0.0
C199 C 0.47277 0.65309 0.13998 0.0
C200 C 0.48394 0.51895 0.11202 0.0
C201 C 0.44585 0.48315 0.12702 0.0
C202 C 0.50816 0.56289 0.12174 0.0
C203 C 0.49416 0.57161 0.14656 0.0
C204 C 0.45828 0.53557 0.16227 0.0
C205 C 0.43451 0.49157 0.15257 0.0
H206 H 0.68303 0.2006 0.46243 0.0
H207 H 0.79083 0.17961 0.49497 0.0
H208 H 0.76135 0.27819 0.45757 0.0
H209 H 0.86985 0.25852 0.49107 0.0
H210 H 1.00615 0.39057 0.45644 0.0
H211 H 0.92711 0.31139 0.46 0.0
H212 H 0.82756 0.34892 0.48092 0.0
H213 H 0.9063 0.42752 0.47639 0.0
C214 C 0.72349 0.21264 0.4689 0.0
C215 C 0.7304 0.18358 0.47915 0.0
C216 C 0.76867 0.25754 0.46622 0.0
C217 C 0.82239 0.27513 0.47392 0.0
C218 C 0.82934 0.24619 0.48449 0.0
C219 C 0.78393 0.20094 0.48698 0.0
C220 C 0.96695 0.38149 0.46133 0.0
C221 C 0.9618 0.41475 0.46574 0.0
C222 C 0.9218 0.33624 0.46376 0.0
C223 C 0.87058 0.32335 0.47086 0.0
C224 C 0.86579 0.3571 0.475 0.0
C225 C 0.9109 0.40224 0.47245 0.0
H226 H 0.59458 0.73508 0.80204 0.0
H227 H 0.75826 0.84253 0.83774 0.0
H228 H 0.58111 0.78955 0.79592 0.0
H229 H 0.74447 0.89627 0.83204 0.0
H230 H 0.69929 0.98318 0.83283 0.0
H231 H 0.69146 0.92001 0.846 0.0
H232 H 0.62289 0.85186 0.76608 0.0
H233 H 0.63024 0.91525 0.75317 0.0
C234 C 0.6274 0.77017 0.80882 0.0
C235 C 0.67764 0.78453 0.82021 0.0
C236 C 0.61962 0.80125 0.80535 0.0
C237 C 0.66176 0.84712 0.81343 0.0
C238 C 0.71086 0.86105 0.82599 0.0
C239 C 0.71875 0.83015 0.8293 0.0
C240 C 0.68161 0.95421 0.81832 0.0
C241 C 0.66572 0.95369 0.79204 0.0
C242 C 0.67728 0.91823 0.82579 0.0
C243 C 0.65711 0.88125 0.80699 0.0
C244 C 0.63823 0.87978 0.78104 0.0
C245 C 0.64271 0.91598 0.77357 0.0
H246 H 0.81997 0.53681 0.22122 0.0
H247 H 0.78062 0.42863 0.16476 0.0
H248 H 0.73829 0.52386 0.20474 0.0
H249 H 0.6978 0.41478 0.14867 0.0
H250 H 0.65956 0.47675 0.09173 0.0
H251 H 0.71981 0.47687 0.12149 0.0
H252 H 0.63706 0.47768 0.19022 0.0
H253 H 0.57799 0.48039 0.16037 0.0
C254 C 0.79166 0.50813 0.20667 0.0
C255 C 0.80685 0.48454 0.19351 0.0
C256 C 0.74516 0.501 0.19709 0.0
C257 C 0.71364 0.46968 0.1748 0.0
C258 C 0.72284 0.44 0.16547 0.0
C259 C 0.76957 0.4474 0.17488 0.0
C260 C 0.65488 0.4782 0.1132 0.0
C261 C 0.61297 0.47724 0.12369 0.0
C262 C 0.68853 0.47714 0.13015 0.0
C263 C 0.68041 0.47451 0.15781 0.0
C264 C 0.64234 0.47799 0.16876 0.0
C265 C 0.60878 0.47951 0.15173 0.0
H266 H 0.46152 0.88611 0.50325 0.0
H267 H 0.39184 0.90393 0.43684 0.0
H268 H 0.37893 0.80733 0.50177 0.0
H269 H 0.31109 0.82492 0.434 0.0
H270 H 0.15244 0.69062 0.44268 0.0
H271 H 0.23074 0.77023 0.45223 0.0
H272 H 0.32917 0.73633 0.47933 0.0
H273 H 0.24906 0.65655 0.47127 0.0
C274 C 0.42866 0.87303 0.48816 0.0
C275 C 0.43307 0.90129 0.47023 0.0
C276 C 0.38126 0.82767 0.48718 0.0
C277 C 0.3375 0.80917 0.46786 0.0
C278 C 0.34268 0.8377 0.44975 0.0
C279 C 0.38943 0.88316 0.45115 0.0
C280 C 0.19061 0.70042 0.45125 0.0
C281 C 0.19487 0.66761 0.45619 0.0
C282 C 0.23593 0.74611 0.45638 0.0
C283 C 0.28733 0.76034 0.46592 0.0
C284 C 0.29059 0.72717 0.47212 0.0
C285 C 0.2447 0.6813 0.46749 0.0
H286 H 0.68248 0.3343 0.78999 0.0
H287 H 0.56355 0.24658 0.846 0.0
H288 H 0.69574 0.27999 0.77731 0.0
H289 H 0.57465 0.19126 0.83262 0.0
H290 H 0.62342 0.10642 0.81302 0.0
H291 H 0.62733 0.16833 0.83131 0.0
H292 H 0.64629 0.21092 0.75144 0.0
H293 H 0.64774 0.15197 0.73368 0.0
C294 C 0.65936 0.30337 0.79963 0.0
C295 C 0.62157 0.29429 0.81872 0.0
C296 C 0.6666 0.2721 0.79227 0.0
C297 C 0.63543 0.23071 0.80351 0.0
C298 C 0.59971 0.2228 0.82365 0.0
C299 C 0.59313 0.25443 0.83129 0.0
C300 C 0.62936 0.12944 0.79942 0.0
C301 C 0.63497 0.12389 0.7718 0.0
C302 C 0.63093 0.1647 0.80989 0.0
C303 C 0.63715 0.19478 0.79291 0.0
C304 C 0.6425 0.18905 0.76529 0.0
C305 C 0.64199 0.15439 0.75493 0.0
H306 H 0.57983 0.8223 0.53932 0.0
H307 H 0.57994 0.79089 0.45436 0.0
H308 H 0.576 0.76002 0.54938 0.0
H309 H 0.57878 0.72993 0.46451 0.0
H310 H 0.56626 0.61525 0.48859 0.0
H311 H 0.53568 0.65845 0.48192 0.0
H312 H 0.64852 0.75536 0.54786 0.0
H313 H 0.67768 0.71144 0.55464 0.0
C314 C 0.57762 0.80142 0.52272 0.0
C315 C 0.5813 0.8121 0.49607 0.0
C316 C 0.57611 0.76605 0.52853 0.0
C317 C 0.57845 0.74072 0.50783 0.0
C318 C 0.57703 0.74878 0.48097 0.0
C319 C 0.57831 0.78406 0.47515 0.0
C320 C 0.58337 0.64532 0.50194 0.0
C321 C 0.62404 0.66038 0.52211 0.0
C322 C 0.56618 0.67012 0.49807 0.0
C323 C 0.58968 0.7104 0.51431 0.0
C324 C 0.62882 0.72413 0.53528 0.0
C325 C 0.64588 0.69928 0.53911 0.0
H326 H 0.86228 0.61417 0.82707 0.0
H327 H 0.74559 0.47297 0.83756 0.0
H328 H 0.93789 0.61268 0.83275 0.0
H329 H 0.81995 0.47054 0.84188 0.0
H330 H 0.96205 0.48003 0.87337 0.0
H331 H 0.88796 0.48148 0.86494 0.0
H332 H 0.9961 0.59855 0.82154 0.0
H333 H 1.07165 0.59785 0.83149 0.0
C334 C 0.85243 0.58255 0.83034 0.0
C335 C 0.79689 0.54374 0.83183 0.0
C336 C 0.89633 0.58152 0.83346 0.0
C337 C 0.88685 0.54151 0.83805 0.0
C338 C 0.83091 0.50266 0.83911 0.0
C339 C 0.78729 0.50384 0.83629 0.0
C340 C 0.97013 0.50592 0.86171 0.0
C341 C 1.02356 0.53866 0.85313 0.0
C342 C 0.92685 0.5067 0.85661 0.0
C343 C 0.93418 0.54018 0.84235 0.0
C344 C 0.98753 0.57231 0.83292 0.0
C345 C 1.03125 0.57157 0.83821 0.0
H346 H 0.23216 0.72082 0.19059 0.0
H347 H 0.32266 0.69685 0.13926 0.0
H348 H 0.30815 0.80073 0.19417 0.0
H349 H 0.39897 0.77819 0.14156 0.0
H350 H 0.54588 0.92474 0.17605 0.0
H351 H 0.4718 0.84342 0.16791 0.0
H352 H 0.35209 0.86368 0.17153 0.0
H353 H 0.42638 0.94436 0.18127 0.0
C354 C 0.26845 0.73284 0.17984 0.0
C355 C 0.27133 0.70254 0.16454 0.0
C356 C 0.31203 0.77897 0.18161 0.0
C357 C 0.35973 0.79658 0.16768 0.0
C358 C 0.36315 0.76609 0.15271 0.0
C359 C 0.31951 0.71944 0.15135 0.0
C360 C 0.5036 0.91151 0.17464 0.0
C361 C 0.49152 0.94046 0.17923 0.0
C362 C 0.46104 0.86492 0.16992 0.0
C363 C 0.40551 0.84643 0.16949 0.0
C364 C 0.39404 0.87617 0.17253 0.0
C365 C 0.43652 0.92254 0.17771 0.0
H366 H 0.65589 0.30625 0.491 0.0
H367 H 0.48448 0.24107 0.47488 0.0
H368 H 0.67567 0.37802 0.50286 0.0
H369 H 0.50408 0.31254 0.48583 0.0
H370 H 0.54472 0.42495 0.54757 0.0
H371 H 0.52774 0.35719 0.52865 0.0
H372 H 0.67731 0.43781 0.48643 0.0
H373 H 0.69497 0.50609 0.50604 0.0
C374 C 0.62283 0.30767 0.48948 0.0
C375 C 0.56863 0.26844 0.48243 0.0
C376 C 0.63406 0.34858 0.49612 0.0
C377 C 0.59124 0.35069 0.49558 0.0
C378 C 0.53766 0.31173 0.487 0.0
C379 C 0.52644 0.27095 0.48066 0.0
C380 C 0.57398 0.42818 0.53427 0.0
C381 C 0.62134 0.47066 0.52841 0.0
C382 C 0.56399 0.3894 0.52319 0.0
C383 C 0.60115 0.39221 0.50599 0.0
C384 C 0.64818 0.4347 0.49976 0.0
C385 C 0.65805 0.47364 0.51079 0.0
H386 H 0.55462 0.60802 0.82677 0.0
H387 H 0.44864 0.46984 0.84421 0.0
H388 H 0.47895 0.60903 0.8309 0.0
H389 H 0.37315 0.4707 0.84965 0.0
H390 H 0.22752 0.46943 0.84628 0.0
H391 H 0.30302 0.46791 0.8422 0.0
H392 H 0.41795 0.61332 0.84661 0.0
H393 H 0.34136 0.61357 0.84934 0.0
C394 C 0.51506 0.57765 0.83162 0.0
C395 C 0.50871 0.53884 0.83501 0.0
C396 C 0.47074 0.57818 0.83434 0.0
C397 C 0.41753 0.53997 0.84085 0.0
C398 C 0.41175 0.50117 0.84429 0.0
C399 C 0.45598 0.50062 0.84134 0.0
C400 C 0.26909 0.50108 0.84659 0.0
C401 C 0.27785 0.54163 0.8485 0.0
C402 C 0.31342 0.50046 0.84429 0.0
C403 C 0.36904 0.54052 0.8439 0.0
C404 C 0.37714 0.58115 0.84625 0.0
C405 C 0.33267 0.58159 0.84827 0.0
H406 H 0.91726 0.43109 0.16105 0.0
H407 H 1.01953 0.39443 0.14748 0.0
H408 H 0.8386 0.35271 0.16616 0.0
H409 H 0.94219 0.31693 0.1538 0.0
H410 H 0.78157 0.17369 0.13866 0.0
H411 H 0.85971 0.25208 0.13402 0.0
H412 H 0.79781 0.29365 0.19423 0.0
H413 H 0.71813 0.21443 0.19784 0.0
C414 C 0.92298 0.40632 0.1591 0.0
C415 C 0.97471 0.41912 0.15351 0.0
C416 C 0.87794 0.36133 0.16236 0.0
C417 C 0.88356 0.32799 0.16044 0.0
C418 C 0.9355 0.34108 0.15489 0.0
C419 C 0.98018 0.38581 0.15128 0.0
C420 C 0.78511 0.19972 0.15105 0.0
C421 C 0.74436 0.1883 0.16871 0.0
C422 C 0.83008 0.24478 0.14852 0.0
C423 C 0.83565 0.27974 0.16375 0.0
C424 C 0.7948 0.26793 0.18184 0.0
C425 C 0.74945 0.2226 0.1842 0.0
H426 H 1.0355 0.55631 0.06494 0.0
H427 H 0.16596 0.55158 0.08031 0.0
H428 H 1.04279 0.54827 0.01657 0.0
H429 H 0.17379 0.54401 0.03151 0.0
H430 H 0.20425 0.58786 0.94112 0.0
H431 H 0.2011 0.59052 0.99045 0.0
H432 H 1.02423 0.48842 0.98224 0.0
H433 H 1.02737 0.48503 0.93344 0.0
C434 C 1.06571 0.55343 0.05798 0.0
C435 C 0.09993 0.55436 0.07652 0.0
C436 C 1.06978 0.54866 0.0302 0.0
C437 C 0.10875 0.54531 0.02009 0.0
C438 C 0.14349 0.54667 0.03862 0.0
C439 C 0.13877 0.55072 0.06655 0.0
C440 C 0.16489 0.56529 0.94989 0.0
C441 C 0.11601 0.53679 0.93325 0.0
C442 C 0.16304 0.56692 0.97815 0.0
C443 C 0.11228 0.54026 0.99031 0.0
C444 C 1.0639 0.51012 0.9736 0.0
C445 C 1.06577 0.50819 0.94557 0.0
H446 H 0.51307 0.99353 0.39198 0.0
H447 H 0.68246 0.11542 0.39874 0.0
H448 H 0.50838 0.99979 0.34385 0.0
H449 H 0.67741 0.12327 0.35118 0.0
H450 H 0.67293 0.08483 0.26102 0.0
H451 H 0.67658 0.08957 0.31004 0.0
H452 H 0.50788 0.03713 0.30882 0.0
H453 H 0.50406 0.03088 0.25965 0.0
C454 C 0.54885 0.02216 0.38324 0.0
C455 C 0.59833 0.05362 0.39887 0.0
C456 C 0.54624 0.02599 0.35568 0.0
C457 C 0.59284 0.06181 0.34339 0.0
C458 C 0.6412 0.09459 0.35964 0.0
C459 C 0.64403 0.09029 0.38696 0.0
C460 C 0.63717 0.07538 0.27131 0.0
C461 C 0.58827 0.05748 0.25661 0.0
C462 C 0.63909 0.07805 0.29947 0.0
C463 C 0.5923 0.06337 0.31358 0.0
C464 C 0.54432 0.04781 0.29874 0.0
C465 C 0.54225 0.04466 0.27058 0.0
H466 H 0.71747 0.56913 0.74883 0.0
H467 H 0.54374 0.5016 0.74659 0.0
H468 H 0.72007 0.58476 0.7018 0.0
H469 H 0.54651 0.51855 0.70048 0.0
H470 H 0.55333 0.48977 0.61071 0.0
H471 H 0.55345 0.48827 0.65922 0.0
H472 H 0.71038 0.62294 0.66822 0.0
H473 H 0.71081 0.62363 0.61904 0.0
C474 C 0.6802 0.55841 0.73843 0.0
C475 C 0.63019 0.53337 0.75105 0.0
C476 C 0.68166 0.56757 0.7116 0.0
C477 C 0.63322 0.55222 0.6972 0.0
C478 C 0.58423 0.52981 0.71066 0.0
C479 C 0.58267 0.5202 0.73714 0.0
C480 C 0.5875 0.51931 0.62306 0.0
C481 C 0.63217 0.5567 0.61113 0.0
C482 C 0.58749 0.51864 0.65093 0.0
C483 C 0.63204 0.5555 0.66771 0.0
C484 C 0.67574 0.59383 0.65585 0.0
C485 C 0.67568 0.59449 0.62777 0.0
H486 H 0.64173 0.04075 0.54775 0.0
H487 H 0.50027 0.0285 0.56782 0.0
H488 H 0.65248 0.02963 0.59386 0.0
H489 H 0.51362 0.02189 0.6144 0.0
H490 H 0.52176 0.98523 0.69449 0.0
H491 H 0.50568 0.9794 0.64595 0.0
H492 H 0.68107 0.06118 0.63702 0.0
H493 H 0.69558 0.06345 0.68516 0.0
C494 C 0.61319 0.036 0.56212 0.0
C495 C 0.56983 0.03495 0.55411 0.0
C496 C 0.61956 0.03004 0.58875 0.0
C497 C 0.58378 0.02446 0.60829 0.0
C498 C 0.54108 0.02446 0.60011 0.0
C499 C 0.53372 0.0289 0.57334 0.0
C500 C 0.55636 1.00048 0.68184 0.0
C501 C 0.60976 0.02438 0.69337 0.0
C502 C 0.54751 0.99803 0.65403 0.0
C503 C 0.59214 0.02083 0.63722 0.0
C504 C 0.64532 0.04273 0.64887 0.0
C505 C 0.65388 0.04411 0.67658 0.0
H506 H 0.73541 0.60211 0.92511 0.0
H507 H 0.57161 0.49195 0.89072 0.0
H508 H 0.70327 0.58009 0.97031 0.0
H509 H 0.53945 0.47119 0.93519 0.0
H510 H 0.51235 0.41608 0.01512 0.0
H511 H 0.54859 0.43903 0.9711 0.0
H512 H 0.64205 0.57856 0.00175 0.0
H513 H 0.60712 0.55514 0.04632 0.0
C514 C 0.69282 0.5732 0.92726 0.0
C515 C 0.65592 0.5487 0.90463 0.0
C516 C 0.67432 0.56089 0.95299 0.0
C517 C 0.61886 0.52396 0.95618 0.0
C518 C 0.58254 0.49936 0.93337 0.0
C519 C 0.60095 0.51143 0.90789 0.0
C520 C 0.53979 0.45153 0.01219 0.0
C521 C 0.55649 0.48391 0.03365 0.0
C522 C 0.56077 0.46475 0.98714 0.0
C523 C 0.59808 0.51059 0.98305 0.0
C524 C 0.61398 0.54305 0.0045 0.0
C525 C 0.59352 0.52976 0.02975 0.0
H526 H 0.15546 0.61831 0.24184 0.0
H527 H 1.05475 0.47396 0.2365 0.0
H528 H 0.14027 0.61952 0.28993 0.0
H529 H 1.03775 0.47471 0.28404 0.0
H530 H 0.08595 0.50054 0.37502 0.0
H531 H 0.08604 0.49456 0.32604 0.0
H532 H 1.07778 0.60132 0.32405 0.0
H533 H 0.07859 0.6076 0.3731 0.0
C534 C 0.12934 0.58682 0.25086 0.0
C535 C 0.10695 0.54615 0.23552 0.0
C536 C 0.12031 0.58738 0.27841 0.0
C537 C 0.08821 0.54718 0.29111 0.0
C538 C 1.06379 0.50641 0.27526 0.0
C539 C 1.07328 0.50596 0.24791 0.0
C540 C 0.08278 0.52193 0.36407 0.0
C541 C 0.08262 0.55469 0.37796 0.0
C542 C 0.08297 0.51866 0.33591 0.0
C543 C 0.0826 0.54787 0.32091 0.0
C544 C 0.07939 0.57897 0.33484 0.0
C545 C 0.07942 0.58233 0.36297 0.0
loop_
_geom_bond_atom_site_label_1
_geom_bond_atom_site_label_2
_geom_bond_distance
_geom_bond_site_symmetry_2
_ccdc_geom_bond_type
Sm0 C2 2.846 . S
Sm0 O20 2.543 . S
Sm0 O21 2.450 . S
Sm0 O22 2.681 . S
Sm0 O23 2.464 . S
Sm0 O24 2.396 . S
Sm0 O28 2.386 . S
Sm0 O31 2.408 1_455 S
Sm1 C11 2.846 1_455 S
Sm1 O22 2.386 . S
Sm1 O25 2.408 . S
Sm1 O26 2.543 1_455 S
Sm1 O27 2.450 1_455 S
Sm1 O28 2.681 . S
Sm1 O29 2.464 . S
Sm1 O30 2.396 1_455 S
C2 Sm0 2.846 . S
C2 C3 1.506 . S
C2 O20 1.261 . S
C2 O21 1.242 . S
C3 C2 1.506 . S
C3 C4 1.358 . S
C3 C8 1.382 . S
C4 C3 1.358 . S
C4 C5 1.385 . S
C4 H32 0.930 . S
C5 C4 1.385 . S
C5 C6 1.395 . S
C5 H33 0.929 . S
C6 C5 1.395 . S
C6 C7 1.335 . S
C7 C6 1.335 . S
C7 C8 1.398 . S
C7 H34 0.930 . S
C8 C3 1.382 . S
C8 C7 1.398 . S
C8 H35 0.929 . S
C9 O22 1.271 . S
C9 O23 1.251 . S
C10 O24 1.252 . S
C10 O25 1.272 . S
C11 Sm1 2.846 1_655 S
C11 C12 1.506 . S
C11 O26 1.261 . S
C11 O27 1.242 . S
C12 C11 1.506 . S
C12 C13 1.358 . S
C12 C17 1.382 . S
C13 C12 1.358 . S
C13 C14 1.385 . S
C13 H36 0.930 . S
C14 C13 1.385 . S
C14 C15 1.395 . S
C14 H37 0.929 . S
C15 C14 1.395 . S
C15 C16 1.335 . S
C16 C15 1.335 . S
C16 C17 1.398 . S
C16 H38 0.930 . S
C17 C12 1.382 . S
C17 C16 1.398 . S
C17 H39 0.929 . S
C18 O28 1.271 . S
C18 O29 1.251 . S
C19 O30 1.252 . S
C19 O31 1.272 . S
O20 Sm0 2.543 . S
O20 C2 1.261 . S
O21 Sm0 2.450 . S
O21 C2 1.242 . S
O22 Sm0 2.681 . S
O22 Sm1 2.386 . S
O22 C9 1.271 . S
O23 Sm0 2.464 . S
O23 C9 1.251 . S
O24 Sm0 2.396 . S
O24 C10 1.252 . S
O25 Sm1 2.408 . S
O25 C10 1.272 . S
O26 Sm1 2.543 1_655 S
O26 C11 1.261 . S
O27 Sm1 2.450 1_655 S
O27 C11 1.242 . S
O28 Sm0 2.386 . S
O28 Sm1 2.681 . S
O28 C18 1.271 . S
O29 Sm1 2.464 . S
O29 C18 1.251 . S
O30 Sm1 2.396 1_655 S
O30 C19 1.252 . S
O31 Sm0 2.408 1_655 S
O31 C19 1.272 . S
H32 C4 0.930 . S
H33 C5 0.929 . S
H34 C7 0.930 . S
H35 C8 0.929 . S
H36 C13 0.930 . S
H37 C14 0.929 . S
H38 C16 0.930 . S
H39 C17 0.929 . S
Sm40 C42 2.846 1_545 S
Sm40 O60 2.543 1_545 S
Sm40 O61 2.450 1_545 S
Sm40 O62 2.681 . S
Sm40 O63 2.464 . S
Sm40 O64 2.396 1_545 S
Sm40 O68 2.386 . S
Sm40 O71 2.408 . S
Sm41 C51 2.846 . S
Sm41 O62 2.386 . S
Sm41 O65 2.408 1_545 S
Sm41 O66 2.543 . S
Sm41 O67 2.450 . S
Sm41 O68 2.681 . S
Sm41 O69 2.464 . S
Sm41 O70 2.396 . S
C42 Sm40 2.846 1_565 S
C42 C43 1.506 . S
C42 O60 1.261 . S
C42 O61 1.242 . S
C43 C42 1.506 . S
C43 C44 1.358 . S
C43 C48 1.382 . S
C44 C43 1.358 . S
C44 C45 1.385 . S
C44 H72 0.930 . S
C45 C44 1.385 . S
C45 C46 1.395 . S
C45 H73 0.929 . S
C46 C45 1.395 . S
C46 C47 1.335 . S
C47 C46 1.335 . S
C47 C48 1.398 . S
C47 H74 0.930 . S
C48 C43 1.382 . S
C48 C47 1.398 . S
C48 H75 0.929 . S
C49 O62 1.271 . S
C49 O63 1.251 . S
C50 O64 1.252 . S
C50 O65 1.272 . S
C51 Sm41 2.846 . S
C51 C52 1.506 . S
C51 O66 1.261 . S
C51 O67 1.242 . S
C52 C51 1.506 . S
C52 C53 1.358 . S
C52 C57 1.382 . S
C53 C52 1.358 . S
C53 C54 1.385 . S
C53 H76 0.930 . S
C54 C53 1.385 . S
C54 C55 1.395 . S
C54 H77 0.929 . S
C55 C54 1.395 . S
C55 C56 1.335 . S
C56 C55 1.335 . S
C56 C57 1.398 . S
C56 H78 0.930 . S
C57 C52 1.382 . S
C57 C56 1.398 . S
C57 H79 0.929 . S
C58 O68 1.271 . S
C58 O69 1.251 . S
C59 O70 1.252 . S
C59 O71 1.272 . S
O60 Sm40 2.543 1_565 S
O60 C42 1.261 . S
O61 Sm40 2.450 1_565 S
O61 C42 1.242 . S
O62 Sm40 2.681 . S
O62 Sm41 2.386 . S
O62 C49 1.271 . S
O63 Sm40 2.464 . S
O63 C49 1.251 . S
O64 Sm40 2.396 1_565 S
O64 C50 1.252 . S
O65 Sm41 2.408 1_565 S
O65 C50 1.272 . S
O66 Sm41 2.543 . S
O66 C51 1.261 . S
O67 Sm41 2.450 . S
O67 C51 1.242 . S
O68 Sm40 2.386 . S
O68 Sm41 2.681 . S
O68 C58 1.271 . S
O69 Sm41 2.464 . S
O69 C58 1.251 . S
O70 Sm41 2.396 . S
O70 C59 1.252 . S
O71 Sm40 2.408 . S
O71 C59 1.272 . S
H72 C44 0.930 . S
H73 C45 0.929 . S
H74 C47 0.930 . S
H75 C48 0.929 . S
H76 C53 0.930 . S
H77 C54 0.929 . S
H78 C56 0.930 . S
H79 C57 0.929 . S
Sm80 C82 2.846 . S
Sm80 O100 2.543 . S
Sm80 O101 2.450 . S
Sm80 O102 2.681 . S
Sm80 O103 2.464 . S
Sm80 O104 2.396 . S
Sm80 O108 2.386 . S
Sm80 O111 2.408 . S
Sm81 C91 2.846 . S
Sm81 O102 2.386 . S
Sm81 O105 2.408 . S
Sm81 O106 2.543 . S
Sm81 O107 2.450 . S
Sm81 O108 2.681 . S
Sm81 O109 2.464 . S
Sm81 O110 2.396 . S
C82 Sm80 2.846 . S
C82 C83 1.506 . S
C82 O100 1.261 . S
C82 O101 1.242 . S
C83 C82 1.506 . S
C83 C84 1.358 . S
C83 C88 1.382 . S
C84 C83 1.358 . S
C84 C85 1.385 . S
C84 H112 0.930 . S
C85 C84 1.385 . S
C85 C86 1.395 . S
C85 H113 0.929 . S
C86 C85 1.395 . S
C86 C87 1.335 . S
C87 C86 1.335 . S
C87 C88 1.398 . S
C87 H114 0.930 . S
C88 C83 1.382 . S
C88 C87 1.398 . S
C88 H115 0.929 . S
C89 O102 1.271 . S
C89 O103 1.251 . S
C90 O104 1.252 . S
C90 O105 1.272 . S
C91 Sm81 2.846 . S
C91 C92 1.506 . S
C91 O106 1.261 . S
C91 O107 1.242 . S
C92 C91 1.506 . S
C92 C93 1.358 . S
C92 C97 1.382 . S
C93 C92 1.358 . S
C93 C94 1.385 . S
C93 H116 0.930 . S
C94 C93 1.385 . S
C94 C95 1.395 . S
C94 H117 0.929 . S
C95 C94 1.395 . S
C95 C96 1.335 . S
C96 C95 1.335 . S
C96 C97 1.398 . S
C96 H118 0.930 . S
C97 C92 1.382 . S
C97 C96 1.398 . S
C97 H119 0.929 . S
C98 O108 1.271 . S
C98 O109 1.251 . S
C99 O110 1.252 . S
C99 O111 1.272 . S
O100 Sm80 2.543 . S
O100 C82 1.261 . S
O101 Sm80 2.450 . S
O101 C82 1.242 . S
O102 Sm80 2.681 . S
O102 Sm81 2.386 . S
O102 C89 1.271 . S
O103 Sm80 2.464 . S
O103 C89 1.251 . S
O104 Sm80 2.396 . S
O104 C90 1.252 . S
O105 Sm81 2.408 . S
O105 C90 1.272 . S
O106 Sm81 2.543 . S
O106 C91 1.261 . S
O107 Sm81 2.450 . S
O107 C91 1.242 . S
O108 Sm80 2.386 . S
O108 Sm81 2.681 . S
O108 C98 1.271 . S
O109 Sm81 2.464 . S
O109 C98 1.251 . S
O110 Sm81 2.396 . S
O110 C99 1.252 . S
O111 Sm80 2.408 . S
O111 C99 1.272 . S
H112 C84 0.930 . S
H113 C85 0.929 . S
H114 C87 0.930 . S
H115 C88 0.929 . S
H116 C93 0.930 . S
H117 C94 0.929 . S
H118 C96 0.930 . S
H119 C97 0.929 . S
H120 C123 0.929 . S
H121 C126 0.929 . S
H122 C128 0.930 . S
C123 H120 0.929 . S
C123 C124 1.398 . S
C123 C125 1.396 1_565 S
C124 C123 1.398 . S
C124 C128 1.407 1_565 S
C125 C123 1.396 1_545 S
C125 C126 1.394 . S
C126 H121 0.929 . S
C126 C125 1.394 . S
C126 C127 1.382 . S
C127 C126 1.382 . S
C127 C128 1.392 . S
C127 N129 1.420 . S
C128 H122 0.930 . S
C128 C124 1.407 1_545 S
C128 C127 1.392 . S
N129 C127 1.420 . S
N129 C130 1.244 . S
C130 N129 1.244 . S
H131 C134 0.929 . S
H132 C137 0.929 . S
H133 C139 0.930 . S
C134 H131 0.929 . S
C134 C135 1.398 . S
C134 C136 1.396 . S
C135 C134 1.398 . S
C135 C139 1.407 . S
C136 C134 1.396 . S
C136 C137 1.394 . S
C137 H132 0.929 . S
C137 C136 1.394 . S
C137 C138 1.382 . S
C138 C137 1.382 . S
C138 C139 1.392 . S
C138 N140 1.420 . S
C139 H133 0.930 . S
C139 C135 1.407 . S
C139 C138 1.392 . S
N140 C138 1.420 . S
N140 C141 1.244 . S
C141 N140 1.244 . S
H142 C145 0.929 . S
H143 C148 0.929 . S
H144 C150 0.930 . S
C145 H142 0.929 . S
C145 C146 1.398 . S
C145 C147 1.396 . S
C146 C145 1.398 . S
C146 C150 1.407 . S
C147 C145 1.396 . S
C147 C148 1.394 . S
C148 H143 0.929 . S
C148 C147 1.394 . S
C148 C149 1.382 . S
C149 C148 1.382 . S
C149 C150 1.392 . S
C149 N151 1.420 . S
C150 H144 0.930 . S
C150 C146 1.407 . S
C150 C149 1.392 . S
N151 C149 1.420 . S
N151 C152 1.244 . S
C152 N151 1.244 . S
H153 C156 0.929 . S
H154 C159 0.929 . S
H155 C161 0.930 . S
C156 H153 0.929 . S
C156 C157 1.398 . S
C156 C158 1.396 . S
C157 C156 1.398 . S
C157 C161 1.407 . S
C158 C156 1.396 . S
C158 C159 1.394 1_455 S
C159 H154 0.929 . S
C159 C158 1.394 1_655 S
C159 C160 1.382 . S
C160 C159 1.382 . S
C160 C161 1.392 1_655 S
C160 N162 1.420 . S
C161 H155 0.930 . S
C161 C157 1.407 . S
C161 C160 1.392 1_455 S
N162 C160 1.420 . S
N162 C163 1.244 . S
C163 N162 1.244 . S
H164 C167 0.929 . S
H165 C170 0.929 1_565 S
H166 C172 0.930 . S
C167 H164 0.929 . S
C167 C168 1.398 . S
C167 C169 1.396 . S
C168 C167 1.398 . S
C168 C172 1.407 . S
C169 C167 1.396 . S
C169 C170 1.394 . S
C170 H165 0.929 1_545 S
C170 C169 1.394 . S
C170 C171 1.382 . S
C171 C170 1.382 . S
C171 C172 1.392 . S
C171 N173 1.420 . S
C172 H166 0.930 . S
C172 C168 1.407 . S
C172 C171 1.392 . S
N173 C171 1.420 . S
N173 C174 1.244 1_545 S
C174 N173 1.244 1_565 S
H175 C178 0.929 . S
H176 C181 0.929 . S
H177 C183 0.930 . S
C178 H175 0.929 . S
C178 C179 1.398 . S
C178 C180 1.396 . S
C179 C178 1.398 . S
C179 C183 1.407 . S
C180 C178 1.396 . S
C180 C181 1.394 . S
C181 H176 0.929 . S
C181 C180 1.394 . S
C181 C182 1.382 . S
C182 C181 1.382 . S
C182 C183 1.392 . S
C182 N184 1.420 . S
C183 H177 0.930 . S
C183 C179 1.407 . S
C183 C182 1.392 . S
N184 C182 1.420 . S
N184 C185 1.244 . S
C185 N184 1.244 . S
H186 C194 0.950 . S
H187 C199 0.950 . S
H188 C196 0.950 . S
H189 C198 0.950 . S
H190 C200 0.950 . S
H191 C202 0.950 . S
H192 C204 0.950 . S
H193 C205 0.950 . S
C194 H186 0.950 . S
C194 C195 1.386 . S
C194 C196 1.391 . S
C195 C194 1.386 . S
C195 C199 1.393 . S
C196 H188 0.950 . S
C196 C194 1.391 . S
C196 C197 1.400 . S
C197 C196 1.400 . S
C197 C198 1.398 . S
C197 C203 1.491 . S
C198 H189 0.950 . S
C198 C197 1.398 . S
C198 C199 1.391 . S
C199 H187 0.950 . S
C199 C195 1.393 . S
C199 C198 1.391 . S
C200 H190 0.950 . S
C200 C201 1.386 . S
C200 C202 1.391 . S
C201 C200 1.386 . S
C201 C205 1.393 . S
C202 H191 0.950 . S
C202 C200 1.391 . S
C202 C203 1.400 . S
C203 C197 1.491 . S
C203 C202 1.400 . S
C203 C204 1.398 . S
C204 H192 0.950 . S
C204 C203 1.398 . S
C204 C205 1.391 . S
C205 H193 0.950 . S
C205 C201 1.393 . S
C205 C204 1.391 . S
H206 C214 0.950 . S
H207 C219 0.950 . S
H208 C216 0.950 . S
H209 C218 0.950 . S
H210 C220 0.950 . S
H211 C222 0.950 . S
H212 C224 0.950 . S
H213 C225 0.950 . S
C214 H206 0.950 . S
C214 C215 1.386 . S
C214 C216 1.391 . S
C215 C214 1.386 . S
C215 C219 1.393 . S
C216 H208 0.950 . S
C216 C214 1.391 . S
C216 C217 1.400 . S
C217 C216 1.400 . S
C217 C218 1.398 . S
C217 C223 1.491 . S
C218 H209 0.950 . S
C218 C217 1.398 . S
C218 C219 1.391 . S
C219 H207 0.950 . S
C219 C215 1.393 . S
C219 C218 1.391 . S
C220 H210 0.950 . S
C220 C221 1.386 . S
C220 C222 1.391 . S
C221 C220 1.386 . S
C221 C225 1.393 . S
C222 H211 0.950 . S
C222 C220 1.391 . S
C222 C223 1.400 . S
C223 C217 1.491 . S
C223 C222 1.400 . S
C223 C224 1.398 . S
C224 H212 0.950 . S
C224 C223 1.398 . S
C224 C225 1.391 . S
C225 H213 0.950 . S
C225 C221 1.393 . S
C225 C224 1.391 . S
H226 C234 0.950 . S
H227 C239 0.950 . S
H228 C236 0.950 . S
H229 C238 0.950 . S
H230 C240 0.950 . S
H231 C242 0.950 . S
H232 C244 0.950 . S
H233 C245 0.950 . S
C234 H226 0.950 . S
C234 C235 1.386 . S
C234 C236 1.391 . S
C235 C234 1.386 . S
C235 C239 1.393 . S
C236 H228 0.950 . S
C236 C234 1.391 . S
C236 C237 1.400 . S
C237 C236 1.400 . S
C237 C238 1.398 . S
C237 C243 1.491 . S
C238 H229 0.950 . S
C238 C237 1.398 . S
C238 C239 1.391 . S
C239 H227 0.950 . S
C239 C235 1.393 . S
C239 C238 1.391 . S
C240 H230 0.950 . S
C240 C241 1.386 . S
C240 C242 1.391 . S
C241 C240 1.386 . S
C241 C245 1.393 . S
C242 H231 0.950 . S
C242 C240 1.391 . S
C242 C243 1.400 . S
C243 C237 1.491 . S
C243 C242 1.400 . S
C243 C244 1.398 . S
C244 H232 0.950 . S
C244 C243 1.398 . S
C244 C245 1.391 . S
C245 H233 0.950 . S
C245 C241 1.393 . S
C245 C244 1.391 . S
H246 C254 0.950 . S
H247 C259 0.950 . S
H248 C256 0.950 . S
H249 C258 0.950 . S
H250 C260 0.950 . S
H251 C262 0.950 . S
H252 C264 0.950 . S
H253 C265 0.950 . S
C254 H246 0.950 . S
C254 C255 1.386 . S
C254 C256 1.391 . S
C255 C254 1.386 . S
C255 C259 1.393 . S
C256 H248 0.950 . S
C256 C254 1.391 . S
C256 C257 1.400 . S
C257 C256 1.400 . S
C257 C258 1.398 . S
C257 C263 1.491 . S
C258 H249 0.950 . S
C258 C257 1.398 . S
C258 C259 1.391 . S
C259 H247 0.950 . S
C259 C255 1.393 . S
C259 C258 1.391 . S
C260 H250 0.950 . S
C260 C261 1.386 . S
C260 C262 1.391 . S
C261 C260 1.386 . S
C261 C265 1.393 . S
C262 H251 0.950 . S
C262 C260 1.391 . S
C262 C263 1.400 . S
C263 C257 1.491 . S
C263 C262 1.400 . S
C263 C264 1.398 . S
C264 H252 0.950 . S
C264 C263 1.398 . S
C264 C265 1.391 . S
C265 H253 0.950 . S
C265 C261 1.393 . S
C265 C264 1.391 . S
H266 C274 0.950 . S
H267 C279 0.950 . S
H268 C276 0.950 . S
H269 C278 0.950 . S
H270 C280 0.950 . S
H271 C282 0.950 . S
H272 C284 0.950 . S
H273 C285 0.950 . S
C274 H266 0.950 . S
C274 C275 1.386 . S
C274 C276 1.391 . S
C275 C274 1.386 . S
C275 C279 1.393 . S
C276 H268 0.950 . S
C276 C274 1.391 . S
C276 C277 1.400 . S
C277 C276 1.400 . S
C277 C278 1.398 . S
C277 C283 1.491 . S
C278 H269 0.950 . S
C278 C277 1.398 . S
C278 C279 1.391 . S
C279 H267 0.950 . S
C279 C275 1.393 . S
C279 C278 1.391 . S
C280 H270 0.950 . S
C280 C281 1.386 . S
C280 C282 1.391 . S
C281 C280 1.386 . S
C281 C285 1.393 . S
C282 H271 0.950 . S
C282 C280 1.391 . S
C282 C283 1.400 . S
C283 C277 1.491 . S
C283 C282 1.400 . S
C283 C284 1.398 . S
C284 H272 0.950 . S
C284 C283 1.398 . S
C284 C285 1.391 . S
C285 H273 0.950 . S
C285 C281 1.393 . S
C285 C284 1.391 . S
H286 C294 0.950 . S
H287 C299 0.950 . S
H288 C296 0.950 . S
H289 C298 0.950 . S
H290 C300 0.950 . S
H291 C302 0.950 . S
H292 C304 0.950 . S
H293 C305 0.950 . S
C294 H286 0.950 . S
C294 C295 1.386 . S
C294 C296 1.391 . S
C295 C294 1.386 . S
C295 C299 1.393 . S
C296 H288 0.950 . S
C296 C294 1.391 . S
C296 C297 1.400 . S
C297 C296 1.400 . S
C297 C298 1.398 . S
C297 C303 1.491 . S
C298 H289 0.950 . S
C298 C297 1.398 . S
C298 C299 1.391 . S
C299 H287 0.950 . S
C299 C295 1.393 . S
C299 C298 1.391 . S
C300 H290 0.950 . S
C300 C301 1.386 . S
C300 C302 1.391 . S
C301 C300 1.386 . S
C301 C305 1.393 . S
C302 H291 0.950 . S
C302 C300 1.391 . S
C302 C303 1.400 . S
C303 C297 1.491 . S
C303 C302 1.400 . S
C303 C304 1.398 . S
C304 H292 0.950 . S
C304 C303 1.398 . S
C304 C305 1.391 . S
C305 H293 0.950 . S
C305 C301 1.393 . S
C305 C304 1.391 . S
H306 C314 0.950 . S
H307 C319 0.950 . S
H308 C316 0.950 . S
H309 C318 0.950 . S
H310 C320 0.950 . S
H311 C322 0.950 . S
H312 C324 0.950 . S
H313 C325 0.950 . S
C314 H306 0.950 . S
C314 C315 1.386 . S
C314 C316 1.391 . S
C315 C314 1.386 . S
C315 C319 1.393 . S
C316 H308 0.950 . S
C316 C314 1.391 . S
C316 C317 1.400 . S
C317 C316 1.400 . S
C317 C318 1.398 . S
C317 C323 1.491 . S
C318 H309 0.950 . S
C318 C317 1.398 . S
C318 C319 1.391 . S
C319 H307 0.950 . S
C319 C315 1.393 . S
C319 C318 1.391 . S
C320 H310 0.950 . S
C320 C321 1.386 . S
C320 C322 1.391 . S
C321 C320 1.386 . S
C321 C325 1.393 . S
C322 H311 0.950 . S
C322 C320 1.391 . S
C322 C323 1.400 . S
C323 C317 1.491 . S
C323 C322 1.400 . S
C323 C324 1.398 . S
C324 H312 0.950 . S
C324 C323 1.398 . S
C324 C325 1.391 . S
C325 H313 0.950 . S
C325 C321 1.393 . S
C325 C324 1.391 . S
H326 C334 0.950 . S
H327 C339 0.950 . S
H328 C336 0.950 . S
H329 C338 0.950 . S
H330 C340 0.950 . S
H331 C342 0.950 . S
H332 C344 0.950 . S
H333 C345 0.950 . S
C334 H326 0.950 . S
C334 C335 1.386 . S
C334 C336 1.391 . S
C335 C334 1.386 . S
C335 C339 1.393 . S
C336 H328 0.950 . S
C336 C334 1.391 . S
C336 C337 1.400 . S
C337 C336 1.400 . S
C337 C338 1.398 . S
C337 C343 1.491 . S
C338 H329 0.950 . S
C338 C337 1.398 . S
C338 C339 1.391 . S
C339 H327 0.950 . S
C339 C335 1.393 . S
C339 C338 1.391 . S
C340 H330 0.950 . S
C340 C341 1.386 . S
C340 C342 1.391 . S
C341 C340 1.386 . S
C341 C345 1.393 . S
C342 H331 0.950 . S
C342 C340 1.391 . S
C342 C343 1.400 . S
C343 C337 1.491 . S
C343 C342 1.400 . S
C343 C344 1.398 . S
C344 H332 0.950 . S
C344 C343 1.398 . S
C344 C345 1.391 . S
C345 H333 0.950 . S
C345 C341 1.393 . S
C345 C344 1.391 . S
H346 C354 0.950 . S
H347 C359 0.950 . S
H348 C356 0.950 . S
H349 C358 0.950 . S
H350 C360 0.950 . S
H351 C362 0.950 . S
H352 C364 0.950 . S
H353 C365 0.950 . S
C354 H346 0.950 . S
C354 C355 1.386 . S
C354 C356 1.391 . S
C355 C354 1.386 . S
C355 C359 1.393 . S
C356 H348 0.950 . S
C356 C354 1.391 . S
C356 C357 1.400 . S
C357 C356 1.400 . S
C357 C358 1.398 . S
C357 C363 1.491 . S
C358 H349 0.950 . S
C358 C357 1.398 . S
C358 C359 1.391 . S
C359 H347 0.950 . S
C359 C355 1.393 . S
C359 C358 1.391 . S
C360 H350 0.950 . S
C360 C361 1.386 . S
C360 C362 1.391 . S
C361 C360 1.386 . S
C361 C365 1.393 . S
C362 H351 0.950 . S
C362 C360 1.391 . S
C362 C363 1.400 . S
C363 C357 1.491 . S
C363 C362 1.400 . S
C363 C364 1.398 . S
C364 H352 0.950 . S
C364 C363 1.398 . S
C364 C365 1.391 . S
C365 H353 0.950 . S
C365 C361 1.393 . S
C365 C364 1.391 . S
H366 C374 0.950 . S
H367 C379 0.950 . S
H368 C376 0.950 . S
H369 C378 0.950 . S
H370 C380 0.950 . S
H371 C382 0.950 . S
H372 C384 0.950 . S
H373 C385 0.950 . S
C374 H366 0.950 . S
C374 C375 1.386 . S
C374 C376 1.391 . S
C375 C374 1.386 . S
C375 C379 1.393 . S
C376 H368 0.950 . S
C376 C374 1.391 . S
C376 C377 1.400 . S
C377 C376 1.400 . S
C377 C378 1.398 . S
C377 C383 1.491 . S
C378 H369 0.950 . S
C378 C377 1.398 . S
C378 C379 1.391 . S
C379 H367 0.950 . S
C379 C375 1.393 . S
C379 C378 1.391 . S
C380 H370 0.950 . S
C380 C381 1.386 . S
C380 C382 1.391 . S
C381 C380 1.386 . S
C381 C385 1.393 . S
C382 H371 0.950 . S
C382 C380 1.391 . S
C382 C383 1.400 . S
C383 C377 1.491 . S
C383 C382 1.400 . S
C383 C384 1.398 . S
C384 H372 0.950 . S
C384 C383 1.398 . S
C384 C385 1.391 . S
C385 H373 0.950 . S
C385 C381 1.393 . S
C385 C384 1.391 . S
H386 C394 0.950 . S
H387 C399 0.950 . S
H388 C396 0.950 . S
H389 C398 0.950 . S
H390 C400 0.950 . S
H391 C402 0.950 . S
H392 C404 0.950 . S
H393 C405 0.950 . S
C394 H386 0.950 . S
C394 C395 1.386 . S
C394 C396 1.391 . S
C395 C394 1.386 . S
C395 C399 1.393 . S
C396 H388 0.950 . S
C396 C394 1.391 . S
C396 C397 1.400 . S
C397 C396 1.400 . S
C397 C398 1.398 . S
C397 C403 1.491 . S
C398 H389 0.950 . S
C398 C397 1.398 . S
C398 C399 1.391 . S
C399 H387 0.950 . S
C399 C395 1.393 . S
C399 C398 1.391 . S
C400 H390 0.950 . S
C400 C401 1.386 . S
C400 C402 1.391 . S
C401 C400 1.386 . S
C401 C405 1.393 . S
C402 H391 0.950 . S
C402 C400 1.391 . S
C402 C403 1.400 . S
C403 C397 1.491 . S
C403 C402 1.400 . S
C403 C404 1.398 . S
C404 H392 0.950 . S
C404 C403 1.398 . S
C404 C405 1.391 . S
C405 H393 0.950 . S
C405 C401 1.393 . S
C405 C404 1.391 . S
H406 C414 0.950 . S
H407 C419 0.950 . S
H408 C416 0.950 . S
H409 C418 0.950 . S
H410 C420 0.950 . S
H411 C422 0.950 . S
H412 C424 0.950 . S
H413 C425 0.950 . S
C414 H406 0.950 . S
C414 C415 1.386 . S
C414 C416 1.391 . S
C415 C414 1.386 . S
C415 C419 1.393 . S
C416 H408 0.950 . S
C416 C414 1.391 . S
C416 C417 1.400 . S
C417 C416 1.400 . S
C417 C418 1.398 . S
C417 C423 1.491 . S
C418 H409 0.950 . S
C418 C417 1.398 . S
C418 C419 1.391 . S
C419 H407 0.950 . S
C419 C415 1.393 . S
C419 C418 1.391 . S
C420 H410 0.950 . S
C420 C421 1.386 . S
C420 C422 1.391 . S
C421 C420 1.386 . S
C421 C425 1.393 . S
C422 H411 0.950 . S
C422 C420 1.391 . S
C422 C423 1.400 . S
C423 C417 1.491 . S
C423 C422 1.400 . S
C423 C424 1.398 . S
C424 H412 0.950 . S
C424 C423 1.398 . S
C424 C425 1.391 . S
C425 H413 0.950 . S
C425 C421 1.393 . S
C425 C424 1.391 . S
H426 C434 0.950 1_655 S
H427 C439 0.950 . S
H428 C436 0.950 1_655 S
H429 C438 0.950 . S
H430 C440 0.950 . S
H431 C442 0.950 . S
H432 C444 0.950 1_655 S
H433 C445 0.950 1_655 S
C434 H426 0.950 1_455 S
C434 C435 1.385 . S
C434 C436 1.391 . S
C435 C434 1.385 . S
C435 C439 1.393 . S
C436 H428 0.950 1_455 S
C436 C434 1.391 . S
C436 C437 1.400 . S
C437 C436 1.400 . S
C437 C438 1.398 . S
C437 C443 1.491 1_554 S
C438 H429 0.950 . S
C438 C437 1.398 . S
C438 C439 1.391 . S
C439 H427 0.950 . S
C439 C435 1.393 . S
C439 C438 1.391 . S
C440 H430 0.950 . S
C440 C441 1.386 . S
C440 C442 1.391 . S
C441 C440 1.386 . S
C441 C445 1.393 . S
C442 H431 0.950 . S
C442 C440 1.391 . S
C442 C443 1.400 . S
C443 C437 1.491 1_556 S
C443 C442 1.400 . S
C443 C444 1.398 . S
C444 H432 0.950 1_455 S
C444 C443 1.398 . S
C444 C445 1.391 . S
C445 H433 0.950 1_455 S
C445 C441 1.393 . S
C445 C444 1.391 . S
H446 C454 0.954 1_565 S
H447 C459 0.950 . S
H448 C456 0.950 . S
H449 C458 0.950 . S
H450 C460 0.950 . S
H451 C462 0.950 . S
H452 C464 0.951 1_565 S
H453 C465 0.950 . S
C454 H446 0.954 1_545 S
C454 C455 1.386 . S
C454 C456 1.391 . S
C455 C454 1.386 . S
C455 C459 1.393 . S
C456 H448 0.950 . S
C456 C454 1.391 . S
C456 C457 1.400 . S
C457 C456 1.400 . S
C457 C458 1.398 . S
C457 C463 1.491 . S
C458 H449 0.950 . S
C458 C457 1.398 . S
C458 C459 1.391 . S
C459 H447 0.950 . S
C459 C455 1.393 . S
C459 C458 1.391 . S
C460 H450 0.950 . S
C460 C461 1.386 . S
C460 C462 1.391 . S
C461 C460 1.386 . S
C461 C465 1.393 . S
C462 H451 0.950 . S
C462 C460 1.391 . S
C462 C463 1.400 . S
C463 C457 1.491 . S
C463 C462 1.400 . S
C463 C464 1.398 . S
C464 H452 0.951 1_545 S
C464 C463 1.398 . S
C464 C465 1.391 . S
C465 H453 0.950 . S
C465 C461 1.393 . S
C465 C464 1.391 . S
H466 C474 0.950 . S
H467 C479 0.950 . S
H468 C476 0.950 . S
H469 C478 0.950 . S
H470 C480 0.950 . S
H471 C482 0.950 . S
H472 C484 0.950 . S
H473 C485 0.950 . S
C474 H466 0.950 . S
C474 C475 1.386 . S
C474 C476 1.391 . S
C475 C474 1.386 . S
C475 C479 1.393 . S
C476 H468 0.950 . S
C476 C474 1.391 . S
C476 C477 1.400 . S
C477 C476 1.400 . S
C477 C478 1.398 . S
C477 C483 1.491 . S
C478 H469 0.950 . S
C478 C477 1.398 . S
C478 C479 1.391 . S
C479 H467 0.950 . S
C479 C475 1.393 . S
C479 C478 1.391 . S
C480 H470 0.950 . S
C480 C481 1.386 . S
C480 C482 1.391 . S
C481 C480 1.386 . S
C481 C485 1.393 . S
C482 H471 0.950 . S
C482 C480 1.391 . S
C482 C483 1.400 . S
C483 C477 1.491 . S
C483 C482 1.400 . S
C483 C484 1.398 . S
C484 H472 0.950 . S
C484 C483 1.398 . S
C484 C485 1.391 . S
C485 H473 0.950 . S
C485 C481 1.393 . S
C485 C484 1.391 . S
H486 C494 0.950 . S
H487 C499 0.950 . S
H488 C496 0.950 . S
H489 C498 0.950 . S
H490 C500 0.950 . S
H491 C502 0.950 . S
H492 C504 0.950 . S
H493 C505 0.950 . S
C494 H486 0.950 . S
C494 C495 1.386 . S
C494 C496 1.391 . S
C495 C494 1.386 . S
C495 C499 1.393 . S
C496 H488 0.950 . S
C496 C494 1.391 . S
C496 C497 1.400 . S
C497 C496 1.400 . S
C497 C498 1.398 . S
C497 C503 1.491 . S
C498 H489 0.950 . S
C498 C497 1.398 . S
C498 C499 1.391 . S
C499 H487 0.950 . S
C499 C495 1.393 . S
C499 C498 1.391 . S
C500 H490 0.950 . S
C500 C501 1.386 . S
C500 C502 1.391 . S
C501 C500 1.386 . S
C501 C505 1.393 . S
C502 H491 0.950 . S
C502 C500 1.391 . S
C502 C503 1.400 . S
C503 C497 1.491 . S
C503 C502 1.400 . S
C503 C504 1.398 . S
C504 H492 0.950 . S
C504 C503 1.398 . S
C504 C505 1.391 . S
C505 H493 0.950 . S
C505 C501 1.393 . S
C505 C504 1.391 . S
H506 C514 0.950 . S
H507 C519 0.950 . S
H508 C516 0.950 . S
H509 C518 0.950 . S
H510 C520 0.950 . S
H511 C522 0.950 . S
H512 C524 0.950 . S
H513 C525 0.950 . S
C514 H506 0.950 . S
C514 C515 1.386 . S
C514 C516 1.391 . S
C515 C514 1.386 . S
C515 C519 1.393 . S
C516 H508 0.950 . S
C516 C514 1.391 . S
C516 C517 1.400 . S
C517 C516 1.400 . S
C517 C518 1.398 . S
C517 C523 1.491 . S
C518 H509 0.950 . S
C518 C517 1.398 . S
C518 C519 1.391 . S
C519 H507 0.950 . S
C519 C515 1.393 . S
C519 C518 1.391 . S
C520 H510 0.950 . S
C520 C521 1.386 . S
C520 C522 1.391 1_554 S
C521 C520 1.386 . S
C521 C525 1.393 . S
C522 H511 0.950 . S
C522 C520 1.391 1_556 S
C522 C523 1.400 . S
C523 C517 1.491 . S
C523 C522 1.400 . S
C523 C524 1.398 1_556 S
C524 H512 0.950 . S
C524 C523 1.398 1_554 S
C524 C525 1.391 . S
C525 H513 0.950 . S
C525 C521 1.393 . S
C525 C524 1.391 . S
H526 C534 0.950 . S
H527 C539 0.945 . S
H528 C536 0.950 . S
H529 C538 0.950 1_655 S
H530 C540 0.950 1_655 S
H531 C542 0.950 1_655 S
H532 C544 0.950 . S
H533 C545 0.950 . S
C534 H526 0.950 . S
C534 C535 1.386 . S
C534 C536 1.391 . S
C535 C534 1.386 . S
C535 C539 1.393 . S
C536 H528 0.950 . S
C536 C534 1.391 . S
C536 C537 1.400 . S
C537 C536 1.400 . S
C537 C538 1.398 . S
C537 C543 1.491 . S
C538 H529 0.950 1_455 S
C538 C537 1.398 . S
C538 C539 1.391 . S
C539 H527 0.945 . S
C539 C535 1.393 . S
C539 C538 1.391 . S
C540 H530 0.950 1_455 S
C540 C541 1.386 . S
C540 C542 1.391 . S
C541 C540 1.386 . S
C541 C545 1.393 . S
C542 H531 0.950 1_455 S
C542 C540 1.391 . S
C542 C543 1.400 . S
C543 C537 1.491 . S
C543 C542 1.400 . S
C543 C544 1.398 . S
C544 H532 0.950 . S
C544 C543 1.398 . S
C544 C545 1.391 . S
C545 H533 0.950 . S
C545 C541 1.393 . S
C545 C544 1.391 . S
C195 C6 0.697 . S
C201 C185 0.701 . S
C215 C59 1.944 . S
C221 C163 1.887 . S
C235 C86 1.286 . S
C241 C174 1.271 . S
C255 C15 0.329 . S
C261 C179 0.225 . S
C281 C157 1.836 . S
C275 C50 1.868 . S
C301 C168 1.163 . S
C295 C95 1.164 . S
C315 C46 1.310 . S
C321 C141 1.310 . S
C335 C99 3.031 . S
C341 C146 2.993 1_655 S
C355 C10 1.890 . S
C361 C124 1.878 . S
C381 C135 1.146 . S
C375 C55 1.158 . S
C401 C152 2.998 . S
C395 C90 3.047 . S
C415 C19 1.951 . S
C421 C130 1.906 . S
C441 C147 1.728 . S
C435 C18 1.685 . S
C455 C49 1.417 . S
C461 C125 1.465 . S
C475 C98 1.498 . S
C481 C136 1.546 . S
C501 C169 1.524 . S
C495 C58 1.502 . S
C521 C180 1.256 . S
C515 C89 1.232 . S
C535 C9 1.396 . S
C541 C158 1.432 . S
