# Generated by pormake.
# Topology eea, (3,6)-cn, num edge types: 1
# Building blocks:
#     Node 0, Type 0, BuildingBlock: KAKCAD_clean_linker_0, # of connection points: 3
#     Node 1, Type 0, BuildingBlock: KAKCAD_clean_linker_0, # of connection points: 3
#     Node 2, Type 0, BuildingBlock: KAKCAD_clean_linker_0, # of connection points: 3
#     Node 3, Type 0, BuildingBlock: KAKCAD_clean_linker_0, # of connection points: 3
#     Node 4, Type 0, BuildingBlock: KAKCAD_clean_linker_0, # of connection points: 3
#     Node 5, Type 0, BuildingBlock: KAKCAD_clean_linker_0, # of connection points: 3
#     Node 6, Type 0, BuildingBlock: KAKCAD_clean_linker_0, # of connection points: 3
#     Node 7, Type 0, BuildingBlock: KAKCAD_clean_linker_0, # of connection points: 3
#     Node 8, Type 0, BuildingBlock: KAKCAD_clean_linker_0, # of connection points: 3
#     Node 9, Type 0, BuildingBlock: KAKCAD_clean_linker_0, # of connection points: 3
#     Node 10, Type 0, BuildingBlock: KAKCAD_clean_linker_0, # of connection points: 3
#     Node 11, Type 0, BuildingBlock: KAKCAD_clean_linker_0, # of connection points: 3
#     Node 12, Type 0, BuildingBlock: KAKCAD_clean_linker_0, # of connection points: 3
#     Node 13, Type 0, BuildingBlock: KAKCAD_clean_linker_0, # of connection points: 3
#     Node 14, Type 0, BuildingBlock: KAKCAD_clean_linker_0, # of connection points: 3
#     Node 15, Type 0, BuildingBlock: KAKCAD_clean_linker_0, # of connection points: 3
#     Node 16, Type 0, BuildingBlock: KAKCAD_clean_linker_0, # of connection points: 3
#     Node 17, Type 0, BuildingBlock: KAKCAD_clean_linker_0, # of connection points: 3
#     Node 18, Type 1, BuildingBlock: HISSIN_clean_sbu_0, # of connection points: 6
#     Node 19, Type 1, BuildingBlock: HISSIN_clean_sbu_0, # of connection points: 6
#     Node 20, Type 1, BuildingBlock: HISSIN_clean_sbu_0, # of connection points: 6
#     Node 21, Type 1, BuildingBlock: HISSIN_clean_sbu_0, # of connection points: 6
#     Node 22, Type 1, BuildingBlock: HISSIN_clean_sbu_0, # of connection points: 6
#     Node 23, Type 1, BuildingBlock: HISSIN_clean_sbu_0, # of connection points: 6
#     Node 24, Type 1, BuildingBlock: HISSIN_clean_sbu_0, # of connection points: 6
#     Node 25, Type 1, BuildingBlock: HISSIN_clean_sbu_0, # of connection points: 6
#     Node 26, Type 1, BuildingBlock: HISSIN_clean_sbu_0, # of connection points: 6
#     Edge 27, Type (0, 1), BuildingBlock: TEMPAE_clean_linker_10, # of connection points: 2
#     Edge 28, Type (0, 1), BuildingBlock: TEMPAE_clean_linker_10, # of connection points: 2
#     Edge 29, Type (0, 1), BuildingBlock: TEMPAE_clean_linker_10, # of connection points: 2
#     Edge 30, Type (0, 1), BuildingBlock: TEMPAE_clean_linker_10, # of connection points: 2
#     Edge 31, Type (0, 1), BuildingBlock: TEMPAE_clean_linker_10, # of connection points: 2
#     Edge 32, Type (0, 1), BuildingBlock: TEMPAE_clean_linker_10, # of connection points: 2
#     Edge 33, Type (0, 1), BuildingBlock: TEMPAE_clean_linker_10, # of connection points: 2
#     Edge 34, Type (0, 1), BuildingBlock: TEMPAE_clean_linker_10, # of connection points: 2
#     Edge 35, Type (0, 1), BuildingBlock: TEMPAE_clean_linker_10, # of connection points: 2
#     Edge 36, Type (0, 1), BuildingBlock: TEMPAE_clean_linker_10, # of connection points: 2
#     Edge 37, Type (0, 1), BuildingBlock: TEMPAE_clean_linker_10, # of connection points: 2
#     Edge 38, Type (0, 1), BuildingBlock: TEMPAE_clean_linker_10, # of connection points: 2
#     Edge 39, Type (0, 1), BuildingBlock: TEMPAE_clean_linker_10, # of connection points: 2
#     Edge 40, Type (0, 1), BuildingBlock: TEMPAE_clean_linker_10, # of connection points: 2
#     Edge 41, Type (0, 1), BuildingBlock: TEMPAE_clean_linker_10, # of connection points: 2
#     Edge 42, Type (0, 1), BuildingBlock: TEMPAE_clean_linker_10, # of connection points: 2
#     Edge 43, Type (0, 1), BuildingBlock: TEMPAE_clean_linker_10, # of connection points: 2
#     Edge 44, Type (0, 1), BuildingBlock: TEMPAE_clean_linker_10, # of connection points: 2
#     Edge 45, Type (0, 1), BuildingBlock: TEMPAE_clean_linker_10, # of connection points: 2
#     Edge 46, Type (0, 1), BuildingBlock: TEMPAE_clean_linker_10, # of connection points: 2
#     Edge 47, Type (0, 1), BuildingBlock: TEMPAE_clean_linker_10, # of connection points: 2
#     Edge 48, Type (0, 1), BuildingBlock: TEMPAE_clean_linker_10, # of connection points: 2
#     Edge 49, Type (0, 1), BuildingBlock: TEMPAE_clean_linker_10, # of connection points: 2
#     Edge 50, Type (0, 1), BuildingBlock: TEMPAE_clean_linker_10, # of connection points: 2
#     Edge 51, Type (0, 1), BuildingBlock: TEMPAE_clean_linker_10, # of connection points: 2
#     Edge 52, Type (0, 1), BuildingBlock: TEMPAE_clean_linker_10, # of connection points: 2
#     Edge 53, Type (0, 1), BuildingBlock: TEMPAE_clean_linker_10, # of connection points: 2
#     Edge 54, Type (0, 1), BuildingBlock: TEMPAE_clean_linker_10, # of connection points: 2
#     Edge 55, Type (0, 1), BuildingBlock: TEMPAE_clean_linker_10, # of connection points: 2
#     Edge 56, Type (0, 1), BuildingBlock: TEMPAE_clean_linker_10, # of connection points: 2
#     Edge 57, Type (0, 1), BuildingBlock: TEMPAE_clean_linker_10, # of connection points: 2
#     Edge 58, Type (0, 1), BuildingBlock: TEMPAE_clean_linker_10, # of connection points: 2
#     Edge 59, Type (0, 1), BuildingBlock: TEMPAE_clean_linker_10, # of connection points: 2
#     Edge 60, Type (0, 1), BuildingBlock: TEMPAE_clean_linker_10, # of connection points: 2
#     Edge 61, Type (0, 1), BuildingBlock: TEMPAE_clean_linker_10, # of connection points: 2
#     Edge 62, Type (0, 1), BuildingBlock: TEMPAE_clean_linker_10, # of connection points: 2
#     Edge 63, Type (0, 1), BuildingBlock: TEMPAE_clean_linker_10, # of connection points: 2
#     Edge 64, Type (0, 1), BuildingBlock: TEMPAE_clean_linker_10, # of connection points: 2
#     Edge 65, Type (0, 1), BuildingBlock: TEMPAE_clean_linker_10, # of connection points: 2
#     Edge 66, Type (0, 1), BuildingBlock: TEMPAE_clean_linker_10, # of connection points: 2
#     Edge 67, Type (0, 1), BuildingBlock: TEMPAE_clean_linker_10, # of connection points: 2
#     Edge 68, Type (0, 1), BuildingBlock: TEMPAE_clean_linker_10, # of connection points: 2
#     Edge 69, Type (0, 1), BuildingBlock: TEMPAE_clean_linker_10, # of connection points: 2
#     Edge 70, Type (0, 1), BuildingBlock: TEMPAE_clean_linker_10, # of connection points: 2
#     Edge 71, Type (0, 1), BuildingBlock: TEMPAE_clean_linker_10, # of connection points: 2
#     Edge 72, Type (0, 1), BuildingBlock: TEMPAE_clean_linker_10, # of connection points: 2
#     Edge 73, Type (0, 1), BuildingBlock: TEMPAE_clean_linker_10, # of connection points: 2
#     Edge 74, Type (0, 1), BuildingBlock: TEMPAE_clean_linker_10, # of connection points: 2
#     Edge 75, Type (0, 1), BuildingBlock: TEMPAE_clean_linker_10, # of connection points: 2
#     Edge 76, Type (0, 1), BuildingBlock: TEMPAE_clean_linker_10, # of connection points: 2
#     Edge 77, Type (0, 1), BuildingBlock: TEMPAE_clean_linker_10, # of connection points: 2
#     Edge 78, Type (0, 1), BuildingBlock: TEMPAE_clean_linker_10, # of connection points: 2
#     Edge 79, Type (0, 1), BuildingBlock: TEMPAE_clean_linker_10, # of connection points: 2
#     Edge 80, Type (0, 1), BuildingBlock: TEMPAE_clean_linker_10, # of connection points: 2
# Relax obj value: 0.034
# Max RMSD: 0.134
# Mean RMSD: 0.074
data_MOF--net-eea--node1-HISSIN_clean_sbu_0--node2-KAKCAD_clean_linker_0--edge1-TEMPAE_clean_linker_10
_symmetry_space_group_name_H-M    P1
_symmetry_Int_Tables_number       1
_symmetry_cell_setting            triclinic
loop_
_symmetry_equiv_pos_as_xyz
'x, y, z'
_cell_length_a     63.311228
_cell_length_b     63.34966
_cell_length_c     91.514041
_cell_angle_alpha  93.615976
_cell_angle_beta   93.422928
_cell_angle_gamma 119.8512
loop_
_atom_site_label
_atom_site_type_symbol
_atom_site_fract_x
_atom_site_fract_y
_atom_site_fract_z
_atom_type_partial_charge
C0 C 0.31015 0.17605 0.47155 0.0
C1 C 0.32676 0.16912 0.47703 0.0
C2 C 0.30338 0.17321 0.45646 0.0
C3 C 0.31325 0.16364 0.44643 0.0
C4 C 0.33045 0.15741 0.45187 0.0
C5 C 0.33709 0.16005 0.46701 0.0
C6 C 0.30449 0.15892 0.43048 0.0
C7 C 0.29868 0.17496 0.42369 0.0
C8 C 0.28775 0.16918 0.40912 0.0
C9 C 0.28303 0.14738 0.40116 0.0
C10 C 0.28886 0.13126 0.40771 0.0
C11 C 0.29982 0.13721 0.42228 0.0
C12 C 0.28097 0.10698 0.39993 0.0
C13 C 0.25627 0.0915 0.39462 0.0
C14 C 0.29763 0.09872 0.39831 0.0
C15 C 0.28968 0.07528 0.39143 0.0
C16 C 0.26479 0.05947 0.38633 0.0
C17 C 0.27905 0.18464 0.40264 0.0
C18 C 0.26443 0.19132 0.41041 0.0
C19 C 0.28398 0.19154 0.38839 0.0
C20 C 0.27421 0.20469 0.38196 0.0
C21 C 0.25902 0.21074 0.3896 0.0
C22 C 0.25439 0.20412 0.40391 0.0
C23 C 0.24823 0.06795 0.38802 0.0
H24 H 0.30216 0.18347 0.47895 0.0
H25 H 0.28981 0.17788 0.45272 0.0
H26 H 0.33861 0.15022 0.44444 0.0
H27 H 0.34981 0.15438 0.47086 0.0
H28 H 0.30229 0.19183 0.42981 0.0
H29 H 0.30321 0.12413 0.42749 0.0
H30 H 0.2739 0.14243 0.39005 0.0
H31 H 0.24303 0.09737 0.39597 0.0
H32 H 0.3168 0.11046 0.40232 0.0
H33 H 0.30305 0.06958 0.39012 0.0
H34 H 0.26016 0.18599 0.42135 0.0
H35 H 0.29523 0.18659 0.38221 0.0
H36 H 0.22886 0.0562 0.3846 0.0
H37 H 0.24287 0.20876 0.41004 0.0
H38 H 0.27797 0.20956 0.37089 0.0
C39 C 0.88851 0.18549 0.47804 0.0
C40 C 0.87962 0.1684 0.48843 0.0
C41 C 0.89159 0.1785 0.46385 0.0
C42 C 0.88583 0.15429 0.45981 0.0
C43 C 0.87783 0.13752 0.47039 0.0
C44 C 0.87477 0.14448 0.4845 0.0
C45 C 0.88719 0.14598 0.44452 0.0
C46 C 0.90742 0.16006 0.43685 0.0
C47 C 0.90903 0.15127 0.42268 0.0
C48 C 0.88997 0.12839 0.41616 0.0
C49 C 0.86949 0.11426 0.42359 0.0
C50 C 0.86823 0.12331 0.4377 0.0
C51 C 0.84972 0.08977 0.4168 0.0
C52 C 0.84151 0.08583 0.40173 0.0
C53 C 0.83911 0.07003 0.42535 0.0
C54 C 0.82086 0.04689 0.41898 0.0
C55 C 0.81285 0.04287 0.40388 0.0
C56 C 0.93081 0.16555 0.41475 0.0
C57 C 0.94046 0.19077 0.41409 0.0
C58 C 0.94181 0.15386 0.40753 0.0
C59 C 0.96188 0.16703 0.39971 0.0
C60 C 0.97135 0.19217 0.39887 0.0
C61 C 0.96046 0.20393 0.40618 0.0
C62 C 0.82331 0.06264 0.39534 0.0
H63 H 0.89233 0.20404 0.48074 0.0
H64 H 0.89772 0.19179 0.45591 0.0
H65 H 0.8738 0.11889 0.46773 0.0
H66 H 0.86847 0.13104 0.49236 0.0
H67 H 0.92231 0.17739 0.44211 0.0
H68 H 0.85224 0.11275 0.44338 0.0
H69 H 0.89123 0.12147 0.40531 0.0
H70 H 0.8491 0.10069 0.39486 0.0
H71 H 0.84518 0.07234 0.43696 0.0
H72 H 0.81301 0.03214 0.42591 0.0
H73 H 0.93229 0.20024 0.41949 0.0
H74 H 0.93495 0.13449 0.40797 0.0
H75 H 0.81775 0.06011 0.38364 0.0
H76 H 0.96754 0.22336 0.40586 0.0
H77 H 0.96978 0.15744 0.39414 0.0
C78 C 0.89963 0.74595 0.48752 0.0
C79 C 0.87555 0.72899 0.49011 0.0
C80 C 0.90458 0.75518 0.47383 0.0
C81 C 0.88559 0.74752 0.46238 0.0
C82 C 0.86162 0.73012 0.46495 0.0
C83 C 0.85666 0.72109 0.47863 0.0
C84 C 0.89043 0.75767 0.44787 0.0
C85 C 0.91174 0.76239 0.44131 0.0
C86 C 0.91542 0.77078 0.42731 0.0
C87 C 0.89781 0.77461 0.41986 0.0
C88 C 0.87677 0.77074 0.42635 0.0
C89 C 0.87336 0.76237 0.44037 0.0
C90 C 0.85843 0.77552 0.41856 0.0
C91 C 0.86599 0.79565 0.41033 0.0
C92 C 0.83321 0.76007 0.41935 0.0
C93 C 0.81604 0.76474 0.4122 0.0
C94 C 0.8236 0.78487 0.40397 0.0
C95 C 0.93761 0.77558 0.42027 0.0
C96 C 0.9606 0.7953 0.42591 0.0
C97 C 0.93561 0.76141 0.40731 0.0
C98 C 0.95627 0.76694 0.40002 0.0
C99 C 0.97937 0.7872 0.40532 0.0
C100 C 0.98123 0.8012 0.41846 0.0
C101 C 0.84881 0.80021 0.40309 0.0
H102 H 0.91455 0.75251 0.49619 0.0
H103 H 0.92321 0.7687 0.47233 0.0
H104 H 0.84659 0.72329 0.45632 0.0
H105 H 0.838 0.70769 0.48018 0.0
H106 H 0.92514 0.75889 0.44683 0.0
H107 H 0.85753 0.75996 0.44563 0.0
H108 H 0.90061 0.78067 0.40896 0.0
H109 H 0.88525 0.80812 0.4096 0.0
H110 H 0.82665 0.74422 0.42542 0.0
H111 H 0.79682 0.75268 0.41328 0.0
H112 H 0.96245 0.80663 0.43583 0.0
H113 H 0.918 0.74606 0.4028 0.0
H114 H 0.85532 0.8157 0.39671 0.0
H115 H 0.99847 0.81715 0.42283 0.0
H116 H 0.95405 0.75528 0.39019 0.0
C117 C 0.13025 0.25602 0.52315 0.0
C118 C 0.12737 0.27615 0.52063 0.0
C119 C 0.12576 0.24619 0.53663 0.0
C120 C 0.11812 0.25612 0.54792 0.0
C121 C 0.11499 0.27611 0.54537 0.0
C122 C 0.1197 0.2861 0.5319 0.0
C123 C 0.11361 0.24564 0.56228 0.0
C124 C 0.13016 0.23959 0.56906 0.0
C125 C 0.12583 0.22886 0.58237 0.0
C126 C 0.1044 0.22388 0.58877 0.0
C127 C 0.08784 0.23009 0.58228 0.0
C128 C 0.09267 0.24121 0.56913 0.0
C129 C 0.06531 0.22452 0.58923 0.0
C130 C 0.04911 0.20057 0.59224 0.0
C131 C 0.06025 0.24315 0.59327 0.0
C132 C 0.03964 0.23803 0.60056 0.0
C133 C 0.02334 0.21402 0.60371 0.0
C134 C 0.14378 0.22306 0.58963 0.0
C135 C 0.1555 0.21334 0.58126 0.0
C136 C 0.14949 0.2274 0.60501 0.0
C137 C 0.16647 0.22219 0.61184 0.0
C138 C 0.17826 0.21255 0.60348 0.0
C139 C 0.17253 0.20817 0.5881 0.0
C140 C 0.02824 0.19532 0.59923 0.0
H141 H 0.13635 0.24807 0.51475 0.0
H142 H 0.1281 0.23064 0.53819 0.0
H143 H 0.10925 0.28426 0.55387 0.0
H144 H 0.11715 0.3015 0.53025 0.0
H145 H 0.14675 0.2438 0.56411 0.0
H146 H 0.07966 0.2456 0.56398 0.0
H147 H 0.10053 0.21517 0.59887 0.0
H148 H 0.05252 0.18585 0.58909 0.0
H149 H 0.07262 0.26182 0.59116 0.0
H150 H 0.03686 0.25305 0.60401 0.0
H151 H 0.15138 0.20953 0.56941 0.0
H152 H 0.14104 0.23513 0.61179 0.0
H153 H 0.01592 0.17651 0.60106 0.0
H154 H 0.18142 0.20098 0.58129 0.0
H155 H 0.1702 0.22552 0.62372 0.0
C156 C 0.66984 0.81055 0.53878 0.0
C157 C 0.67928 0.82925 0.5294 0.0
C158 C 0.6784 0.81552 0.55377 0.0
C159 C 0.69641 0.83931 0.55963 0.0
C160 C 0.70603 0.85786 0.55022 0.0
C161 C 0.69763 0.85289 0.5353 0.0
C162 C 0.70556 0.84512 0.57548 0.0
C163 C 0.71288 0.8305 0.58265 0.0
C164 C 0.72438 0.83785 0.59714 0.0
C165 C 0.72805 0.85972 0.60452 0.0
C166 C 0.72054 0.87437 0.59757 0.0
C167 C 0.70894 0.86667 0.58313 0.0
C168 C 0.72671 0.89863 0.6049 0.0
C169 C 0.72576 0.90207 0.62013 0.0
C170 C 0.73493 0.91892 0.59678 0.0
C171 C 0.74249 0.94213 0.60374 0.0
C172 C 0.74237 0.94574 0.61903 0.0
C173 C 0.73415 0.8237 0.6043 0.0
C174 C 0.71981 0.79816 0.60399 0.0
C175 C 0.75803 0.83582 0.61156 0.0
C176 C 0.76736 0.82271 0.61843 0.0
C177 C 0.75298 0.7972 0.61824 0.0
C178 C 0.7291 0.78503 0.61097 0.0
C179 C 0.73358 0.92539 0.62713 0.0
H180 H 0.65559 0.79218 0.53458 0.0
H181 H 0.67067 0.80091 0.56081 0.0
H182 H 0.72034 0.87624 0.55437 0.0
H183 H 0.70576 0.86756 0.52833 0.0
H184 H 0.71091 0.81417 0.57669 0.0
H185 H 0.70284 0.8777 0.57769 0.0
H186 H 0.73747 0.86568 0.61555 0.0
H187 H 0.71923 0.88678 0.62668 0.0
H188 H 0.73625 0.91708 0.58507 0.0
H189 H 0.74871 0.95732 0.59712 0.0
H190 H 0.70133 0.7884 0.5985 0.0
H191 H 0.76961 0.85548 0.61181 0.0
H192 H 0.73337 0.92756 0.63895 0.0
H193 H 0.71772 0.76533 0.61054 0.0
H194 H 0.78576 0.83257 0.62402 0.0
C195 C 0.10302 0.81527 0.52772 0.0
C196 C 0.12694 0.82357 0.52403 0.0
C197 C 0.09899 0.8198 0.54218 0.0
C198 C 0.11883 0.83258 0.55317 0.0
C199 C 0.14256 0.83955 0.54958 0.0
C200 C 0.14658 0.83522 0.53517 0.0
C201 C 0.11529 0.84048 0.56802 0.0
C202 C 0.09552 0.82481 0.57554 0.0
C203 C 0.09222 0.83283 0.58949 0.0
C204 C 0.10914 0.85678 0.59584 0.0
C205 C 0.12902 0.87259 0.5885 0.0
C206 C 0.13174 0.86433 0.57456 0.0
C207 C 0.14697 0.89782 0.59528 0.0
C208 C 0.13922 0.91206 0.60316 0.0
C209 C 0.17207 0.90793 0.59378 0.0
C210 C 0.18895 0.93177 0.59984 0.0
C211 C 0.18123 0.94603 0.60771 0.0
C212 C 0.07094 0.81662 0.59738 0.0
C213 C 0.04773 0.80098 0.58963 0.0
C214 C 0.07341 0.81755 0.61285 0.0
C215 C 0.05305 0.8041 0.62038 0.0
C216 C 0.02985 0.78902 0.61263 0.0
C217 C 0.02742 0.78719 0.59718 0.0
C218 C 0.15616 0.93585 0.60936 0.0
H219 H 0.08758 0.80627 0.51931 0.0
H220 H 0.08051 0.8143 0.54458 0.0
H221 H 0.15817 0.84892 0.55786 0.0
H222 H 0.16515 0.84138 0.53266 0.0
H223 H 0.083 0.80627 0.57063 0.0
H224 H 0.14642 0.8768 0.56856 0.0
H225 H 0.10679 0.86324 0.60652 0.0
H226 H 0.12001 0.90498 0.6044 0.0
H227 H 0.17874 0.89737 0.58795 0.0
H228 H 0.20806 0.93909 0.5982 0.0
H229 H 0.04502 0.79998 0.57776 0.0
H230 H 0.09106 0.82884 0.61919 0.0
H231 H 0.14959 0.94619 0.61553 0.0
H232 H 0.00965 0.77576 0.59098 0.0
H233 H 0.0554 0.80553 0.6323 0.0
C234 C 0.97629 0.50762 0.80594 0.0
C235 C 0.99312 0.50091 0.81133 0.0
C236 C 0.96955 0.50498 0.79085 0.0
C237 C 0.97968 0.49582 0.78074 0.0
C238 C 0.997 0.48969 0.7861 0.0
C239 C 0.00361 0.49215 0.80123 0.0
C240 C 0.97119 0.49158 0.76476 0.0
C241 C 0.96541 0.5078 0.75818 0.0
C242 C 0.95485 0.50252 0.74354 0.0
C243 C 0.95044 0.48104 0.73533 0.0
C244 C 0.95618 0.46473 0.74169 0.0
C245 C 0.96681 0.47019 0.75632 0.0
C246 C 0.94848 0.44071 0.73359 0.0
C247 C 0.92386 0.42537 0.72807 0.0
C248 C 0.96522 0.43261 0.7318 0.0
C249 C 0.95743 0.40945 0.72452 0.0
C250 C 0.93262 0.39379 0.71918 0.0
C251 C 0.94619 0.51811 0.73722 0.0
C252 C 0.93112 0.52423 0.74493 0.0
C253 C 0.95154 0.52561 0.72313 0.0
C254 C 0.94171 0.53876 0.71678 0.0
C255 C 0.92605 0.54421 0.72433 0.0
C256 C 0.92101 0.53703 0.7385 0.0
C257 C 0.91597 0.4021 0.72107 0.0
H258 H 0.96815 0.5148 0.81339 0.0
H259 H 0.95588 0.50954 0.78717 0.0
H260 H 0.00534 0.48281 0.77861 0.0
H261 H 0.01649 0.48664 0.80501 0.0
H262 H 0.96878 0.52444 0.7645 0.0
H263 H 0.97017 0.45695 0.76136 0.0
H264 H 0.94158 0.47647 0.72416 0.0
H265 H 0.91055 0.43112 0.72955 0.0
H266 H 0.98433 0.44425 0.73596 0.0
H267 H 0.97085 0.40387 0.72308 0.0
H268 H 0.92653 0.51842 0.75575 0.0
H269 H 0.96314 0.5211 0.717 0.0
H270 H 0.89664 0.39043 0.7175 0.0
H271 H 0.90912 0.54121 0.74456 0.0
H272 H 0.94578 0.54408 0.70581 0.0
C273 C 0.55249 0.5183 0.8096 0.0
C274 C 0.54108 0.50027 0.81919 0.0
C275 C 0.55657 0.51197 0.79552 0.0
C276 C 0.54946 0.48754 0.79085 0.0
C277 C 0.53908 0.46984 0.80077 0.0
C278 C 0.53481 0.4761 0.81471 0.0
C279 C 0.55179 0.47996 0.77558 0.0
C280 C 0.57279 0.49413 0.7685 0.0
C281 C 0.57518 0.48582 0.75439 0.0
C282 C 0.55626 0.46327 0.74737 0.0
C283 C 0.53512 0.44904 0.75422 0.0
C284 C 0.53293 0.45775 0.76819 0.0
C285 C 0.51567 0.42466 0.74711 0.0
C286 C 0.50841 0.42086 0.73191 0.0
C287 C 0.50443 0.40483 0.75555 0.0
C288 C 0.48643 0.38177 0.74895 0.0
C289 C 0.47933 0.37788 0.73373 0.0
C290 C 0.59759 0.50026 0.74699 0.0
C291 C 0.60764 0.5256 0.74664 0.0
C292 C 0.60864 0.48858 0.73981 0.0
C293 C 0.62906 0.50184 0.73228 0.0
C294 C 0.63887 0.52709 0.73169 0.0
C295 C 0.62801 0.53886 0.73902 0.0
C296 C 0.49044 0.39772 0.72529 0.0
H297 H 0.55751 0.5371 0.81283 0.0
H298 H 0.56456 0.52602 0.78814 0.0
H299 H 0.53404 0.45099 0.79773 0.0
H300 H 0.5265 0.46194 0.82201 0.0
H301 H 0.58762 0.51112 0.77416 0.0
H302 H 0.51631 0.44717 0.77333 0.0
H303 H 0.55814 0.45665 0.7366 0.0
H304 H 0.51653 0.4358 0.72513 0.0
H305 H 0.50979 0.407 0.76725 0.0
H306 H 0.47803 0.36697 0.75581 0.0
H307 H 0.59945 0.53507 0.752 0.0
H308 H 0.60149 0.46912 0.74003 0.0
H309 H 0.48557 0.39529 0.71351 0.0
H310 H 0.63535 0.55836 0.73891 0.0
H311 H 0.63692 0.49222 0.72668 0.0
C312 C 0.56429 0.07626 0.81891 0.0
C313 C 0.54023 0.05992 0.82184 0.0
C314 C 0.56888 0.08568 0.80526 0.0
C315 C 0.54953 0.07881 0.79418 0.0
C316 C 0.52556 0.06192 0.79705 0.0
C317 C 0.52097 0.05273 0.81071 0.0
C318 C 0.55401 0.08947 0.77981 0.0
C319 C 0.57482 0.09387 0.77277 0.0
C320 C 0.57858 0.10338 0.75904 0.0
C321 C 0.56119 0.10838 0.75236 0.0
C322 C 0.5404 0.10434 0.75923 0.0
C323 C 0.53718 0.09513 0.773 0.0
C324 C 0.52195 0.10954 0.752 0.0
C325 C 0.52928 0.12998 0.74407 0.0
C326 C 0.49679 0.09396 0.7529 0.0
C327 C 0.47944 0.0987 0.74609 0.0
C328 C 0.48675 0.11903 0.73806 0.0
C329 C 0.60065 0.1082 0.7516 0.0
C330 C 0.62395 0.1196 0.7596 0.0
C331 C 0.59867 0.10221 0.73633 0.0
C332 C 0.61949 0.10783 0.72918 0.0
C333 C 0.64286 0.11962 0.73712 0.0
C334 C 0.64481 0.1253 0.75244 0.0
C335 C 0.51192 0.13461 0.73714 0.0
H336 H 0.57949 0.08224 0.82731 0.0
H337 H 0.58754 0.0988 0.80353 0.0
H338 H 0.51023 0.05568 0.7887 0.0
H339 H 0.50229 0.03981 0.81253 0.0
H340 H 0.58776 0.08927 0.77775 0.0
H341 H 0.52168 0.0928 0.7786 0.0
H342 H 0.56388 0.11549 0.74175 0.0
H343 H 0.54849 0.14258 0.74329 0.0
H344 H 0.49038 0.07786 0.75873 0.0
H345 H 0.46028 0.08647 0.74721 0.0
H346 H 0.62615 0.12462 0.77136 0.0
H347 H 0.58098 0.09316 0.72985 0.0
H348 H 0.51826 0.15027 0.73092 0.0
H349 H 0.66249 0.13411 0.75892 0.0
H350 H 0.61731 0.10334 0.71737 0.0
C351 C 0.79824 0.58655 0.85819 0.0
C352 C 0.79617 0.60717 0.85568 0.0
C353 C 0.79348 0.57672 0.87167 0.0
C354 C 0.78628 0.58708 0.88296 0.0
C355 C 0.78376 0.6074 0.88042 0.0
C356 C 0.78875 0.6174 0.86697 0.0
C357 C 0.7818 0.57682 0.89739 0.0
C358 C 0.79835 0.57088 0.90426 0.0
C359 C 0.79427 0.56074 0.91775 0.0
C360 C 0.7731 0.55636 0.9243 0.0
C361 C 0.75638 0.56231 0.91769 0.0
C362 C 0.76099 0.57274 0.90428 0.0
C363 C 0.73406 0.55741 0.9248 0.0
C364 C 0.71991 0.53503 0.93056 0.0
C365 C 0.72698 0.5752 0.92613 0.0
C366 C 0.70644 0.57083 0.93327 0.0
C367 C 0.69237 0.54848 0.9391 0.0
C368 C 0.81219 0.55492 0.92506 0.0
C369 C 0.82369 0.54489 0.91673 0.0
C370 C 0.81808 0.5595 0.94043 0.0
C371 C 0.83498 0.55418 0.94728 0.0
C372 C 0.84655 0.54426 0.93894 0.0
C373 C 0.84067 0.53968 0.92357 0.0
C374 C 0.69926 0.53058 0.93757 0.0
H375 H 0.80336 0.5778 0.84968 0.0
H376 H 0.7952 0.56081 0.87321 0.0
H377 H 0.77846 0.61592 0.88897 0.0
H378 H 0.78727 0.63347 0.86554 0.0
H379 H 0.8148 0.57476 0.89922 0.0
H380 H 0.74798 0.57696 0.89897 0.0
H381 H 0.7696 0.54831 0.93462 0.0
H382 H 0.72475 0.52087 0.92959 0.0
H383 H 0.73759 0.59268 0.92188 0.0
H384 H 0.70147 0.5849 0.93416 0.0
H385 H 0.81942 0.54086 0.90489 0.0
H386 H 0.80985 0.56749 0.94719 0.0
H387 H 0.6889 0.51325 0.94203 0.0
H388 H 0.84941 0.5323 0.91678 0.0
H389 H 0.8388 0.55768 0.95915 0.0
C390 C 0.33873 0.14747 0.87154 0.0
C391 C 0.35118 0.16512 0.86189 0.0
C392 C 0.34651 0.1524 0.88664 0.0
C393 C 0.36673 0.17511 0.89232 0.0
C394 C 0.37954 0.19242 0.88263 0.0
C395 C 0.37193 0.18745 0.8676 0.0
C396 C 0.37436 0.1813 0.90833 0.0
C397 C 0.37842 0.16554 0.91665 0.0
C398 C 0.38812 0.17277 0.93152 0.0
C399 C 0.39277 0.19552 0.93812 0.0
C400 C 0.38876 0.21135 0.92991 0.0
C401 C 0.37941 0.20406 0.91507 0.0
C402 C 0.39656 0.23642 0.93641 0.0
C403 C 0.39026 0.24054 0.95033 0.0
C404 C 0.41134 0.25652 0.92889 0.0
C405 C 0.42005 0.28032 0.93527 0.0
C406 C 0.41398 0.28448 0.94924 0.0
C407 C 0.39587 0.1579 0.9397 0.0
C408 C 0.38083 0.13236 0.93902 0.0
C409 C 0.41907 0.16926 0.94782 0.0
C410 C 0.42723 0.1554 0.9549 0.0
C411 C 0.41237 0.12986 0.95406 0.0
C412 C 0.38896 0.11846 0.94621 0.0
C413 C 0.39876 0.26441 0.95666 0.0
H414 H 0.3226 0.13014 0.86749 0.0
H415 H 0.33634 0.13878 0.89392 0.0
H416 H 0.39552 0.20988 0.8867 0.0
H417 H 0.38234 0.20118 0.86043 0.0
H418 H 0.37549 0.14838 0.91132 0.0
H419 H 0.37636 0.21632 0.90867 0.0
H420 H 0.40054 0.20136 0.94952 0.0
H421 H 0.37883 0.2253 0.95632 0.0
H422 H 0.41668 0.25384 0.91821 0.0
H423 H 0.43162 0.29552 0.9293 0.0
H424 H 0.36285 0.12316 0.93287 0.0
H425 H 0.43123 0.18887 0.94838 0.0
H426 H 0.39393 0.26721 0.96748 0.0
H427 H 0.37721 0.09876 0.94531 0.0
H428 H 0.44527 0.16466 0.96097 0.0
C429 C 0.77042 0.15373 0.86176 0.0
C430 C 0.79397 0.1592 0.85855 0.0
C431 C 0.76625 0.15876 0.87607 0.0
C432 C 0.78553 0.1693 0.8875 0.0
C433 C 0.80881 0.1738 0.88439 0.0
C434 C 0.81301 0.16894 0.8701 0.0
C435 C 0.7819 0.17704 0.90238 0.0
C436 C 0.76034 0.16258 0.90893 0.0
C437 C 0.75706 0.17042 0.9229 0.0
C438 C 0.77521 0.19305 0.93018 0.0
C439 C 0.7966 0.20771 0.92371 0.0
C440 C 0.79994 0.19957 0.90993 0.0
C441 C 0.81511 0.23207 0.93103 0.0
C442 C 0.80841 0.24954 0.9349 0.0
C443 C 0.83967 0.23827 0.9337 0.0
C444 C 0.85731 0.26163 0.94017 0.0
C445 C 0.85081 0.27944 0.94381 0.0
C446 C 0.73458 0.15528 0.92993 0.0
C447 C 0.71141 0.14752 0.92256 0.0
C448 C 0.73629 0.14945 0.94435 0.0
C449 C 0.71518 0.13623 0.95133 0.0
C450 C 0.69204 0.12901 0.94411 0.0
C451 C 0.69031 0.1347 0.92965 0.0
C452 C 0.82609 0.27304 0.94108 0.0
H453 H 0.75524 0.14588 0.85318 0.0
H454 H 0.74812 0.15517 0.87806 0.0
H455 H 0.82399 0.18153 0.89297 0.0
H456 H 0.83143 0.17363 0.86805 0.0
H457 H 0.74635 0.14505 0.90334 0.0
H458 H 0.81627 0.21134 0.90484 0.0
H459 H 0.77259 0.19938 0.94084 0.0
H460 H 0.78958 0.24519 0.93276 0.0
H461 H 0.84518 0.22497 0.93086 0.0
H462 H 0.876 0.26563 0.94237 0.0
H463 H 0.7097 0.15195 0.91147 0.0
H464 H 0.75398 0.15521 0.95022 0.0
H465 H 0.82039 0.28632 0.94343 0.0
H466 H 0.67262 0.12918 0.92385 0.0
H467 H 0.71695 0.13211 0.9625 0.0
C468 C 0.65131 0.85678 0.1391 0.0
C469 C 0.66536 0.84709 0.14489 0.0
C470 C 0.6439 0.85305 0.12404 0.0
C471 C 0.65056 0.83974 0.11436 0.0
C472 C 0.66554 0.831 0.12005 0.0
C473 C 0.67279 0.83456 0.13515 0.0
C474 C 0.64026 0.83342 0.09864 0.0
C475 C 0.63685 0.85017 0.09092 0.0
C476 C 0.62408 0.84317 0.07674 0.0
C477 C 0.61548 0.8193 0.07012 0.0
C478 C 0.6194 0.80261 0.07748 0.0
C479 C 0.63179 0.80977 0.09171 0.0
C480 C 0.60928 0.7772 0.07068 0.0
C481 C 0.58482 0.76361 0.0644 0.0
C482 C 0.62384 0.76622 0.07066 0.0
C483 C 0.61412 0.74208 0.06446 0.0
C484 C 0.58958 0.72842 0.05833 0.0
C485 C 0.61803 0.86 0.06929 0.0
C486 C 0.61162 0.87517 0.07747 0.0
C487 C 0.61697 0.85985 0.05386 0.0
C488 C 0.60859 0.8736 0.04678 0.0
C489 C 0.60159 0.88814 0.05498 0.0
C490 C 0.60367 0.88922 0.07038 0.0
C491 C 0.57502 0.73941 0.05835 0.0
H492 H 0.64563 0.86689 0.14626 0.0
H493 H 0.63216 0.85983 0.1201 0.0
H494 H 0.67126 0.82095 0.11288 0.0
H495 H 0.68348 0.82672 0.13924 0.0
H496 H 0.64389 0.86862 0.09606 0.0
H497 H 0.63361 0.7964 0.09765 0.0
H498 H 0.60514 0.81339 0.05934 0.0
H499 H 0.57313 0.77158 0.06441 0.0
H500 H 0.64278 0.77636 0.07539 0.0
H501 H 0.62566 0.73396 0.06466 0.0
H502 H 0.61175 0.87546 0.08932 0.0
H503 H 0.62224 0.84881 0.04723 0.0
H504 H 0.55609 0.7293 0.0536 0.0
H505 H 0.59811 0.90013 0.07692 0.0
H506 H 0.60732 0.87269 0.03487 0.0
C507 C 0.22331 0.85344 0.14428 0.0
C508 C 0.2143 0.83643 0.1547 0.0
C509 C 0.2263 0.84627 0.13011 0.0
C510 C 0.22033 0.82198 0.12613 0.0
C511 C 0.21224 0.80531 0.13676 0.0
C512 C 0.20926 0.81243 0.15085 0.0
C513 C 0.22151 0.81349 0.11084 0.0
C514 C 0.24172 0.82735 0.10311 0.0
C515 C 0.24312 0.81841 0.08894 0.0
C516 C 0.22387 0.79559 0.08248 0.0
C517 C 0.20342 0.78167 0.08998 0.0
C518 C 0.20237 0.79087 0.10409 0.0
C519 C 0.18349 0.75721 0.08327 0.0
C520 C 0.17515 0.75321 0.06822 0.0
C521 C 0.17289 0.73754 0.09188 0.0
C522 C 0.15455 0.7144 0.08557 0.0
C523 C 0.14644 0.71031 0.07048 0.0
C524 C 0.26485 0.83247 0.08092 0.0
C525 C 0.27488 0.85776 0.08036 0.0
C526 C 0.27542 0.82051 0.07349 0.0
C527 C 0.2954 0.83347 0.06557 0.0
C528 C 0.30525 0.8587 0.06485 0.0
C529 C 0.29481 0.87072 0.07237 0.0
C530 C 0.15685 0.73002 0.06189 0.0
H531 H 0.22728 0.87205 0.14692 0.0
H532 H 0.23251 0.8595 0.12213 0.0
H533 H 0.20804 0.78661 0.13415 0.0
H534 H 0.20286 0.79906 0.15874 0.0
H535 H 0.25676 0.84463 0.10833 0.0
H536 H 0.18641 0.78047 0.10983 0.0
H537 H 0.22493 0.78855 0.07161 0.0
H538 H 0.18272 0.76803 0.06131 0.0
H539 H 0.17906 0.7399 0.10347 0.0
H540 H 0.14673 0.69969 0.09253 0.0
H541 H 0.26704 0.86745 0.08591 0.0
H542 H 0.26829 0.80108 0.07385 0.0
H543 H 0.15121 0.72744 0.0502 0.0
H544 H 0.30219 0.89022 0.07216 0.0
H545 H 0.30294 0.82367 0.05984 0.0
C546 C 0.22947 0.40106 0.15155 0.0
C547 C 0.2052 0.38534 0.1544 0.0
C548 C 0.2345 0.4108 0.13801 0.0
C549 C 0.21536 0.40491 0.12698 0.0
C550 C 0.19117 0.38854 0.12972 0.0
C551 C 0.18616 0.379 0.14326 0.0
C552 C 0.22034 0.41637 0.11287 0.0
C553 C 0.24085 0.42024 0.10566 0.0
C554 C 0.24547 0.43115 0.09236 0.0
C555 C 0.22904 0.43798 0.08631 0.0
C556 C 0.20831 0.43402 0.09321 0.0
C557 C 0.20437 0.42353 0.10657 0.0
C558 C 0.19052 0.44039 0.08634 0.0
C559 C 0.19858 0.4616 0.07906 0.0
C560 C 0.16519 0.42496 0.08674 0.0
C561 C 0.14839 0.43049 0.07999 0.0
C562 C 0.15643 0.4515 0.07252 0.0
C563 C 0.26738 0.43559 0.08473 0.0
C564 C 0.28992 0.44247 0.09281 0.0
C565 C 0.26617 0.43382 0.06924 0.0
C566 C 0.28702 0.4397 0.06208 0.0
C567 C 0.30949 0.44694 0.07018 0.0
C568 C 0.31068 0.44788 0.0856 0.0
C569 C 0.18177 0.46703 0.0722 0.0
H570 H 0.24453 0.40639 0.15995 0.0
H571 H 0.25332 0.4235 0.13636 0.0
H572 H 0.17599 0.38308 0.12139 0.0
H573 H 0.1673 0.36656 0.14501 0.0
H574 H 0.25286 0.41418 0.11022 0.0
H575 H 0.189 0.42136 0.11225 0.0
H576 H 0.2323 0.44637 0.07612 0.0
H577 H 0.21794 0.47411 0.07869 0.0
H578 H 0.15823 0.40831 0.09208 0.0
H579 H 0.12907 0.41828 0.08068 0.0
H580 H 0.29175 0.44435 0.10473 0.0
H581 H 0.2491 0.42791 0.06256 0.0
H582 H 0.18866 0.48323 0.06643 0.0
H583 H 0.32787 0.45353 0.09209 0.0
H584 H 0.28556 0.4385 0.05016 0.0
C585 C 0.46542 0.9203 0.19055 0.0
C586 C 0.46332 0.94092 0.18805 0.0
C587 C 0.46061 0.91042 0.20401 0.0
C588 C 0.45336 0.92072 0.2153 0.0
C589 C 0.45089 0.94108 0.21279 0.0
C590 C 0.45592 0.95114 0.19935 0.0
C591 C 0.44852 0.91017 0.22964 0.0
C592 C 0.46475 0.90381 0.23651 0.0
C593 C 0.4601 0.89301 0.24979 0.0
C594 C 0.4386 0.88825 0.25606 0.0
C595 C 0.42237 0.89479 0.24948 0.0
C596 C 0.42756 0.90601 0.23637 0.0
C597 C 0.39983 0.8895 0.2563 0.0
C598 C 0.38297 0.86549 0.25886 0.0
C599 C 0.39538 0.90844 0.26067 0.0
C600 C 0.37472 0.90352 0.26784 0.0
C601 C 0.35773 0.87943 0.27053 0.0
C602 C 0.4778 0.88701 0.25721 0.0
C603 C 0.48979 0.87746 0.24897 0.0
C604 C 0.48306 0.89106 0.27262 0.0
C605 C 0.49987 0.88576 0.2796 0.0
C606 C 0.51198 0.87634 0.27136 0.0
C607 C 0.50668 0.87222 0.25595 0.0
C608 C 0.36205 0.86046 0.26572 0.0
H609 H 0.47052 0.91156 0.18203 0.0
H610 H 0.46228 0.89447 0.20551 0.0
H611 H 0.44553 0.94955 0.22134 0.0
H612 H 0.45442 0.9672 0.19794 0.0
H613 H 0.48137 0.90784 0.23163 0.0
H614 H 0.41481 0.91067 0.23117 0.0
H615 H 0.43443 0.87945 0.26612 0.0
H616 H 0.38593 0.85055 0.25546 0.0
H617 H 0.40826 0.92715 0.2589 0.0
H618 H 0.37241 0.91874 0.27156 0.0
H619 H 0.48601 0.87384 0.2371 0.0
H620 H 0.47443 0.89867 0.27933 0.0
H621 H 0.34922 0.8416 0.26718 0.0
H622 H 0.51582 0.86523 0.24923 0.0
H623 H 0.50324 0.88888 0.2915 0.0
C624 C 0.99987 0.47364 0.20533 0.0
C625 C 0.01158 0.49145 0.19567 0.0
C626 C 0.00732 0.47912 0.22047 0.0
C627 C 0.02626 0.5026 0.22615 0.0
C628 C 0.03781 0.52037 0.21646 0.0
C629 C 0.03061 0.51483 0.20138 0.0
C630 C 0.03458 0.50878 0.24209 0.0
C631 C 0.04081 0.4939 0.24984 0.0
C632 C 0.05193 0.50156 0.2644 0.0
C633 C 0.05624 0.52401 0.27127 0.0
C634 C 0.0498 0.53894 0.26372 0.0
C635 C 0.03863 0.53095 0.24919 0.0
C636 C 0.05665 0.56374 0.27052 0.0
C637 C 0.05533 0.56801 0.28562 0.0
C638 C 0.06576 0.58362 0.26203 0.0
C639 C 0.07371 0.60721 0.2685 0.0
C640 C 0.07313 0.61164 0.28366 0.0
C641 C 0.061 0.48719 0.272 0.0
C642 C 0.04628 0.46168 0.27169 0.0
C643 C 0.08483 0.49897 0.27929 0.0
C644 C 0.09388 0.4855 0.28601 0.0
C645 C 0.07924 0.45999 0.28565 0.0
C646 C 0.05528 0.44821 0.27853 0.0
C647 C 0.06356 0.59172 0.29213 0.0
H648 H 0.98519 0.45545 0.20116 0.0
H649 H 0.99815 0.46513 0.22774 0.0
H650 H 0.05268 0.53852 0.22053 0.0
H651 H 0.03978 0.52894 0.19418 0.0
H652 H 0.03841 0.47714 0.24424 0.0
H653 H 0.03344 0.54221 0.24324 0.0
H654 H 0.0654 0.53021 0.28237 0.0
H655 H 0.04814 0.55307 0.29244 0.0
H656 H 0.06742 0.58113 0.25043 0.0
H657 H 0.08056 0.62206 0.26159 0.0
H658 H 0.02782 0.45218 0.26619 0.0
H659 H 0.0967 0.51858 0.27953 0.0
H660 H 0.063 0.59451 0.30387 0.0
H661 H 0.0437 0.42852 0.278 0.0
H662 H 0.11235 0.49506 0.29151 0.0
C663 C 0.43624 0.4862 0.19455 0.0
C664 C 0.45987 0.49205 0.19126 0.0
C665 C 0.43211 0.49126 0.20886 0.0
C666 C 0.4515 0.50221 0.22021 0.0
C667 C 0.47487 0.50708 0.21704 0.0
C668 C 0.47903 0.50218 0.20275 0.0
C669 C 0.44787 0.51001 0.23507 0.0
C670 C 0.42653 0.49536 0.24175 0.0
C671 C 0.42322 0.50325 0.25569 0.0
C672 C 0.44114 0.52613 0.26282 0.0
C673 C 0.46234 0.54097 0.25623 0.0
C674 C 0.46568 0.53278 0.24246 0.0
C675 C 0.48068 0.56549 0.26342 0.0
C676 C 0.47373 0.58278 0.26722 0.0
C677 C 0.50534 0.57201 0.26601 0.0
C678 C 0.52283 0.59552 0.27232 0.0
C679 C 0.51608 0.61316 0.27589 0.0
C680 C 0.40098 0.48785 0.26286 0.0
C681 C 0.37761 0.47902 0.25544 0.0
C682 C 0.40306 0.48268 0.27741 0.0
C683 C 0.38212 0.46903 0.28445 0.0
C684 C 0.35877 0.4607 0.27716 0.0
C685 C 0.35667 0.46575 0.26259 0.0
C686 C 0.49127 0.60645 0.27326 0.0
H687 H 0.42099 0.47804 0.18601 0.0
H688 H 0.41391 0.48738 0.2109 0.0
H689 H 0.49013 0.51513 0.22558 0.0
H690 H 0.4975 0.50716 0.20064 0.0
H691 H 0.41274 0.47764 0.23628 0.0
H692 H 0.48185 0.54467 0.23728 0.0
H693 H 0.43852 0.5325 0.27347 0.0
H694 H 0.45481 0.57818 0.26514 0.0
H695 H 0.51103 0.55885 0.26322 0.0
H696 H 0.54161 0.59977 0.27447 0.0
H697 H 0.37558 0.48291 0.24425 0.0
H698 H 0.4209 0.48924 0.28332 0.0
H699 H 0.48538 0.61958 0.27557 0.0
H700 H 0.33882 0.45936 0.25672 0.0
H701 H 0.38419 0.46543 0.29571 0.0
Eu702 Eu 0.48748 0.98296 0.98774 0.0
Eu703 Eu 0.50627 0.01555 0.02058 0.0
C704 C 0.47803 0.02779 0.99547 0.0
C705 C 0.48205 0.97072 0.94648 0.0
C706 C 0.48709 0.99458 0.94469 0.0
C707 C 0.49078 0.96638 0.92132 0.0
C708 C 0.49383 0.00424 0.93129 0.0
C709 C 0.48391 0.95669 0.93471 0.0
C710 C 0.49592 0.99033 0.91943 0.0
C711 C 0.47679 0.96116 0.96091 0.0
O712 O 0.46629 0.98804 0.02036 0.0
O713 O 0.46131 0.95786 0.00281 0.0
C714 C 0.45417 0.96526 0.01429 0.0
O715 O 0.51542 0.97595 0.99938 0.0
O716 O 0.50051 0.0348 0.03921 0.0
O717 O 0.53282 0.03119 0.0401 0.0
O718 O 0.50684 0.98076 0.02274 0.0
C719 C 0.51606 0.97213 0.01325 0.0
O720 O 0.51781 0.02025 0.98441 0.0
O721 O 0.53895 0.03141 0.00739 0.0
O722 O 0.49595 0.0372 0.00621 0.0
O723 O 0.49592 0.96541 0.96952 0.0
O724 O 0.46158 0.96513 0.96797 0.0
O725 O 0.46904 0.00545 0.98904 0.0
C726 C 0.5139 0.02784 0.06203 0.0
C727 C 0.50947 0.00428 0.06418 0.0
C728 C 0.50643 0.03321 0.08739 0.0
C729 C 0.50377 0.99533 0.07785 0.0
C730 C 0.51231 0.04221 0.07372 0.0
C731 C 0.50208 0.00963 0.08965 0.0
C732 C 0.51917 0.03709 0.04751 0.0
C733 C 0.5382 0.03317 0.99313 0.0
H734 H 0.48607 0.00586 0.95372 0.0
H735 H 0.49257 0.95526 0.91255 0.0
H736 H 0.49731 0.0226 0.93022 0.0
H737 H 0.48048 0.93839 0.93596 0.0
H738 H 0.51038 0.99274 0.05528 0.0
H739 H 0.50491 0.04461 0.09611 0.0
H740 H 0.5009 0.97726 0.0792 0.0
H741 H 0.51537 0.06033 0.07223 0.0
Eu742 Eu 0.01793 0.50398 0.99038 0.0
Eu743 Eu 0.9839 0.48692 0.01799 0.0
C744 C 0.97359 0.45017 0.98958 0.0
C745 C 0.03897 0.51422 0.95194 0.0
C746 C 0.0178 0.49431 0.94427 0.0
C747 C 0.05127 0.53157 0.92893 0.0
C748 C 0.01356 0.49293 0.929 0.0
C749 C 0.05562 0.53283 0.94419 0.0
C750 C 0.03025 0.51156 0.92119 0.0
C751 C 0.0438 0.51597 0.968 0.0
O752 O 0.02004 0.49188 0.02702 0.0
O753 O 0.0328 0.48585 0.00501 0.0
C754 C 0.03428 0.48688 0.01946 0.0
O755 O 0.03898 0.53398 0.00876 0.0
O756 O 0.96486 0.45912 0.03271 0.0
O757 O 0.96127 0.49143 0.03355 0.0
O758 O 0.0077 0.52796 0.0226 0.0
C759 C 0.03 0.54172 0.019 0.0
O760 O 0.99094 0.51707 0.98688 0.0
O761 O 0.96051 0.48985 0.9996 0.0
O762 O 0.97725 0.45323 0.00398 0.0
O763 O 0.03928 0.53104 0.9757 0.0
O764 O 0.03642 0.49537 0.97372 0.0
O765 O 0.98348 0.4689 0.9819 0.0
C766 C 0.96032 0.47387 0.05572 0.0
C767 C 0.98071 0.49426 0.06363 0.0
C768 C 0.94805 0.45563 0.07849 0.0
C769 C 0.98469 0.49534 0.07891 0.0
C770 C 0.94397 0.45465 0.06324 0.0
C771 C 0.9685 0.47593 0.08646 0.0
C772 C 0.95655 0.47164 0.03961 0.0
C773 C 0.96812 0.50601 0.99 0.0
H774 H 0.00455 0.47987 0.95008 0.0
H775 H 0.06449 0.54609 0.92315 0.0
H776 H 0.99706 0.47746 0.92331 0.0
H777 H 0.072 0.54835 0.94995 0.0
H778 H 0.99372 0.50914 0.05797 0.0
H779 H 0.9352 0.44052 0.08406 0.0
H780 H 1.00075 0.51107 0.08477 0.0
H781 H 0.92823 0.43872 0.05727 0.0
Eu782 Eu 0.51399 0.50025 0.02006 0.0
Eu783 Eu 0.49141 0.51115 0.98984 0.0
C784 C 0.5199 0.55291 0.01656 0.0
C785 C 0.52389 0.49165 0.06003 0.0
C786 C 0.52003 0.51023 0.06608 0.0
C787 C 0.51394 0.47232 0.08267 0.0
C788 C 0.51325 0.50989 0.08037 0.0
C789 C 0.52096 0.47281 0.06845 0.0
C790 C 0.50989 0.49078 0.08873 0.0
C791 C 0.52899 0.49051 0.04462 0.0
O792 O 0.53148 0.52536 0.98767 0.0
O793 O 0.53912 0.50217 0.00308 0.0
C794 C 0.54494 0.51613 0.99225 0.0
O795 O 0.48693 0.46409 0.00735 0.0
O796 O 0.49235 0.53668 0.97466 0.0
O797 O 0.4652 0.49822 0.97014 0.0
O798 O 0.49157 0.47625 0.98429 0.0
C799 C 0.48488 0.45899 0.99307 0.0
O800 O 0.48198 0.50378 0.02636 0.0
O801 O 0.45981 0.49234 0.00364 0.0
O802 O 0.50065 0.54255 0.00675 0.0
O803 O 0.51055 0.47421 0.03556 0.0
O804 O 0.54121 0.51125 0.03907 0.0
O805 O 0.53085 0.54111 0.02097 0.0
C806 C 0.48326 0.5195 0.95007 0.0
C807 C 0.50464 0.51875 0.94792 0.0
C808 C 0.47643 0.52025 0.92377 0.0
C809 C 0.51203 0.519 0.93384 0.0
C810 C 0.46919 0.52025 0.93793 0.0
C811 C 0.49797 0.51962 0.92155 0.0
C812 C 0.47583 0.51945 0.96498 0.0
C813 C 0.46116 0.49538 0.0181 0.0
H814 H 0.52178 0.52474 0.05969 0.0
H815 H 0.51165 0.4575 0.08893 0.0
H816 H 0.50999 0.5242 0.08473 0.0
H817 H 0.52365 0.45821 0.06391 0.0
H818 H 0.51562 0.51799 0.95718 0.0
H819 H 0.46495 0.52034 0.91455 0.0
H820 H 0.52887 0.51886 0.93262 0.0
H821 H 0.45256 0.5207 0.9394 0.0
Eu822 Eu 0.15354 0.31284 0.32106 0.0
Eu823 Eu 0.17314 0.34713 0.35352 0.0
C824 C 0.14586 0.35904 0.32769 0.0
C825 C 0.14672 0.2991 0.27984 0.0
C826 C 0.1519 0.32294 0.27782 0.0
C827 C 0.15457 0.29381 0.25458 0.0
C828 C 0.15832 0.33213 0.26427 0.0
C829 C 0.14803 0.2846 0.26813 0.0
C830 C 0.15994 0.31776 0.25248 0.0
C831 C 0.14204 0.29012 0.29444 0.0
O832 O 0.13301 0.32012 0.35356 0.0
O833 O 0.12707 0.28902 0.3364 0.0
C834 C 0.12037 0.29719 0.34776 0.0
O835 O 0.17895 0.30314 0.33329 0.0
O836 O 0.16723 0.36711 0.37168 0.0
O837 O 0.20003 0.36434 0.37282 0.0
O838 O 0.17382 0.31273 0.35683 0.0
C839 C 0.18088 0.30158 0.34748 0.0
O840 O 0.18507 0.34923 0.31734 0.0
O841 O 0.20589 0.36146 0.34045 0.0
O842 O 0.16392 0.36858 0.33833 0.0
O843 O 0.1615 0.2948 0.30288 0.0
O844 O 0.12702 0.29425 0.30161 0.0
O845 O 0.13609 0.33628 0.32181 0.0
C846 C 0.18138 0.36186 0.39487 0.0
C847 C 0.18246 0.34118 0.39856 0.0
C848 C 0.16887 0.36563 0.41908 0.0
C849 C 0.17697 0.33293 0.41241 0.0
C850 C 0.17458 0.37402 0.40526 0.0
C851 C 0.17001 0.34498 0.42282 0.0
C852 C 0.18616 0.37016 0.38006 0.0
C853 C 0.20537 0.36235 0.32612 0.0
H854 H 0.15129 0.33458 0.28679 0.0
H855 H 0.15599 0.28234 0.24586 0.0
H856 H 0.16199 0.3505 0.26303 0.0
H857 H 0.14449 0.26631 0.26955 0.0
H858 H 0.18728 0.3312 0.3907 0.0
H859 H 0.16372 0.37539 0.4269 0.0
H860 H 0.17769 0.31678 0.41487 0.0
H861 H 0.17348 0.3899 0.40262 0.0
Eu862 Eu 0.68381 0.83728 0.32321 0.0
Eu863 Eu 0.64996 0.81986 0.35088 0.0
C864 C 0.63909 0.78355 0.32207 0.0
C865 C 0.70564 0.84999 0.28505 0.0
C866 C 0.68314 0.8327 0.2772 0.0
C867 C 0.72025 0.86769 0.26244 0.0
C868 C 0.67932 0.83277 0.26202 0.0
C869 C 0.72412 0.86749 0.27761 0.0
C870 C 0.69785 0.85028 0.2545 0.0
C871 C 0.71001 0.85021 0.30099 0.0
O872 O 0.68617 0.82453 0.35952 0.0
O873 O 0.69819 0.8182 0.33733 0.0
C874 C 0.69998 0.81916 0.35177 0.0
O875 O 0.70501 0.86672 0.34189 0.0
O876 O 0.63165 0.79214 0.36578 0.0
O877 O 0.62725 0.82398 0.36654 0.0
O878 O 0.6737 0.86088 0.3556 0.0
C879 C 0.69609 0.87453 0.3521 0.0
O880 O 0.65675 0.85033 0.31991 0.0
O881 O 0.62642 0.82309 0.3327 0.0
O882 O 0.64264 0.78628 0.33647 0.0
O883 O 0.70606 0.86519 0.30924 0.0
O884 O 0.70161 0.82891 0.30599 0.0
O885 O 0.64926 0.80244 0.31452 0.0
C886 C 0.62739 0.80705 0.38884 0.0
C887 C 0.64718 0.82819 0.39656 0.0
C888 C 0.61665 0.78898 0.4118 0.0
C889 C 0.65161 0.82975 0.41184 0.0
C890 C 0.61213 0.78753 0.39654 0.0
C891 C 0.6365 0.81008 0.41963 0.0
C892 C 0.62316 0.80446 0.37272 0.0
C893 C 0.63395 0.83924 0.32308 0.0
H894 H 0.66854 0.8192 0.28281 0.0
H895 H 0.73489 0.88127 0.2569 0.0
H896 H 0.66179 0.81934 0.25618 0.0
H897 H 0.74155 0.881 0.28353 0.0
H898 H 0.65931 0.8434 0.39077 0.0
H899 H 0.60489 0.77337 0.4174 0.0
H900 H 0.66685 0.84639 0.41755 0.0
H901 H 0.59694 0.77096 0.39071 0.0
Eu902 Eu 0.17935 0.82911 0.35236 0.0
Eu903 Eu 0.15706 0.84008 0.32234 0.0
C904 C 0.19024 0.88197 0.34759 0.0
C905 C 0.18813 0.82057 0.39227 0.0
C906 C 0.18093 0.83703 0.39763 0.0
C907 C 0.17953 0.80184 0.41515 0.0
C908 C 0.17323 0.83599 0.41169 0.0
C909 C 0.18743 0.80303 0.40113 0.0
C910 C 0.17225 0.81826 0.4206 0.0
C911 C 0.19462 0.82035 0.37712 0.0
O912 O 0.18828 0.8354 0.31568 0.0
O913 O 0.21075 0.84507 0.33821 0.0
C914 C 0.20897 0.84227 0.32373 0.0
O915 O 0.16746 0.79695 0.33551 0.0
O916 O 0.15309 0.86549 0.30892 0.0
O917 O 0.13612 0.82725 0.3007 0.0
O918 O 0.13615 0.79948 0.32376 0.0
C919 C 0.14653 0.78673 0.3272 0.0
O920 O 0.13973 0.81628 0.35502 0.0
O921 O 0.13285 0.83997 0.33959 0.0
O922 O 0.1885 0.87551 0.3335 0.0
O923 O 0.17739 0.80332 0.36768 0.0
O924 O 0.20585 0.84146 0.37182 0.0
O925 O 0.18119 0.86532 0.35677 0.0
C926 C 0.15312 0.85558 0.28363 0.0
C927 C 0.17782 0.86262 0.28294 0.0
C928 C 0.14811 0.85559 0.25713 0.0
C929 C 0.18754 0.86581 0.2694 0.0
C930 C 0.13842 0.85242 0.27069 0.0
C931 C 0.17267 0.86189 0.2563 0.0
C932 C 0.14212 0.84916 0.29752 0.0
C933 C 0.12678 0.82605 0.35045 0.0
H934 H 0.18103 0.85054 0.3909 0.0
H935 H 0.17866 0.78773 0.4216 0.0
H936 H 0.16813 0.84917 0.41559 0.0
H937 H 0.19257 0.78995 0.39708 0.0
H938 H 0.18942 0.86498 0.29282 0.0
H939 H 0.13606 0.85207 0.24725 0.0
H940 H 0.20657 0.87091 0.26917 0.0
H941 H 0.11925 0.84672 0.27102 0.0
Eu942 Eu 0.82382 0.64959 0.65584 0.0
Eu943 Eu 0.8424 0.68212 0.68875 0.0
C944 C 0.81683 0.69593 0.66294 0.0
C945 C 0.81757 0.63808 0.6144 0.0
C946 C 0.82058 0.66123 0.61255 0.0
C947 C 0.82695 0.63485 0.58927 0.0
C948 C 0.82668 0.67109 0.59914 0.0
C949 C 0.82071 0.62495 0.60266 0.0
C950 C 0.83016 0.65813 0.58734 0.0
C951 C 0.81321 0.62844 0.62885 0.0
O952 O 0.80209 0.65548 0.68815 0.0
O953 O 0.79628 0.62506 0.6705 0.0
C954 C 0.78934 0.63281 0.68194 0.0
O955 O 0.84771 0.63817 0.66821 0.0
O956 O 0.83642 0.7018 0.70705 0.0
O957 O 0.86865 0.69809 0.70839 0.0
O958 O 0.84153 0.64687 0.69167 0.0
C959 C 0.84874 0.63584 0.68234 0.0
O960 O 0.85587 0.68647 0.65324 0.0
O961 O 0.87581 0.695 0.67637 0.0
O962 O 0.8346 0.70485 0.67376 0.0
O963 O 0.83287 0.63344 0.63721 0.0
O964 O 0.79768 0.63144 0.63621 0.0
O965 O 0.80668 0.67321 0.65693 0.0
C966 C 0.84922 0.6949 0.73008 0.0
C967 C 0.84453 0.67128 0.73228 0.0
C968 C 0.84126 0.70033 0.75531 0.0
C969 C 0.83847 0.66232 0.74592 0.0
C970 C 0.84751 0.70934 0.74168 0.0
C971 C 0.83665 0.67667 0.75762 0.0
C972 C 0.85488 0.7041 0.71557 0.0
C973 C 0.87603 0.69783 0.66228 0.0
H974 H 0.81855 0.67183 0.62155 0.0
H975 H 0.82985 0.6245 0.58055 0.0
H976 H 0.82866 0.68889 0.59803 0.0
H977 H 0.81884 0.60723 0.60395 0.0
H978 H 0.84549 0.65968 0.72344 0.0
H979 H 0.83967 0.71177 0.76396 0.0
H980 H 0.83543 0.6442 0.7473 0.0
H981 H 0.85078 0.72751 0.74014 0.0
Eu982 Eu 0.34748 0.16955 0.65596 0.0
Eu983 Eu 0.31373 0.15482 0.68387 0.0
C984 C 0.30092 0.11658 0.65543 0.0
C985 C 0.36939 0.17933 0.61766 0.0
C986 C 0.3483 0.15968 0.60975 0.0
C987 C 0.3826 0.19713 0.59487 0.0
C988 C 0.34452 0.15867 0.59447 0.0
C989 C 0.38647 0.19802 0.61014 0.0
C990 C 0.36162 0.17741 0.58689 0.0
C991 C 0.37374 0.18078 0.63373 0.0
O992 O 0.34937 0.15822 0.6926 0.0
O993 O 0.36089 0.15031 0.67059 0.0
C994 C 0.36275 0.15196 0.68505 0.0
O995 O 0.3693 0.19952 0.67425 0.0
O996 O 0.29413 0.12791 0.69894 0.0
O997 O 0.29311 0.16163 0.69996 0.0
O998 O 0.33809 0.19586 0.68736 0.0
C999 C 0.36064 0.20857 0.68393 0.0
O1000 O 0.32095 0.18313 0.65194 0.0
O1001 O 0.29054 0.15805 0.66554 0.0
O1002 O 0.30358 0.12 0.66985 0.0
O1003 O 0.36974 0.1963 0.64137 0.0
O1004 O 0.36552 0.16005 0.63941 0.0
O1005 O 0.31284 0.13471 0.64754 0.0
C1006 C 0.29265 0.14437 0.72218 0.0
C1007 C 0.31484 0.16346 0.72936 0.0
C1008 C 0.28121 0.12768 0.74545 0.0
C1009 C 0.32016 0.16468 0.74453 0.0
C1010 C 0.27584 0.12658 0.7303 0.0
C1011 C 0.3035 0.14666 0.75273 0.0
C1012 C 0.28756 0.14173 0.70613 0.0
C1013 C 0.29833 0.17323 0.65539 0.0
H1014 H 0.33473 0.14518 0.61538 0.0
H1015 H 0.39613 0.21172 0.58928 0.0
H1016 H 0.32806 0.14343 0.58859 0.0
H1017 H 0.40281 0.21334 0.61608 0.0
H1018 H 0.32815 0.17724 0.72322 0.0
H1019 H 0.26814 0.11333 0.75138 0.0
H1020 H 0.33733 0.17973 0.74983 0.0
H1021 H 0.25877 0.11154 0.72486 0.0
Eu1022 Eu 0.84704 0.1642 0.68715 0.0
Eu1023 Eu 0.82303 0.17228 0.65662 0.0
C1024 C 0.85628 0.21604 0.68101 0.0
C1025 C 0.85838 0.15832 0.7274 0.0
C1026 C 0.85476 0.17704 0.73353 0.0
C1027 C 0.84784 0.1387 0.74994 0.0
C1028 C 0.84785 0.17663 0.74778 0.0
C1029 C 0.85501 0.13925 0.73575 0.0
C1030 C 0.84411 0.15734 0.75606 0.0
C1031 C 0.86394 0.15743 0.71205 0.0
O1032 O 0.85435 0.16753 0.65024 0.0
O1033 O 0.87779 0.17994 0.67254 0.0
C1034 C 0.87548 0.17579 0.65811 0.0
O1035 O 0.8343 0.13079 0.67114 0.0
O1036 O 0.81702 0.19589 0.64259 0.0
O1037 O 0.80282 0.15782 0.63485 0.0
O1038 O 0.80227 0.13223 0.65952 0.0
C1039 C 0.81296 0.11989 0.66323 0.0
O1040 O 0.80807 0.15259 0.69091 0.0
O1041 O 0.79824 0.17191 0.67353 0.0
O1042 O 0.85403 0.20871 0.667 0.0
O1043 O 0.84648 0.13973 0.70304 0.0
O1044 O 0.87448 0.17813 0.70623 0.0
O1045 O 0.84811 0.20012 0.69066 0.0
C1046 C 0.81816 0.18585 0.61748 0.0
C1047 C 0.84298 0.19335 0.61681 0.0
C1048 C 0.81313 0.18596 0.591 0.0
C1049 C 0.85274 0.19679 0.60328 0.0
C1050 C 0.8034 0.18253 0.60454 0.0
C1051 C 0.83781 0.1927 0.59017 0.0
C1052 C 0.80716 0.17912 0.63134 0.0
C1053 C 0.79379 0.16036 0.68545 0.0
H1054 H 0.85686 0.19177 0.72723 0.0
H1055 H 0.84525 0.12372 0.75614 0.0
H1056 H 0.84484 0.19109 0.75218 0.0
H1057 H 0.85754 0.12456 0.73118 0.0
H1058 H 0.85463 0.19586 0.6267 0.0
H1059 H 0.80104 0.1823 0.58111 0.0
H1060 H 0.87186 0.20222 0.60305 0.0
H1061 H 0.78414 0.17647 0.60486 0.0
C1062 C 0.34644 0.86866 0.05742 0.0
C1063 C 0.32639 0.87243 0.05632 0.0
C1064 C 0.3669 0.88209 0.04981 0.0
C1065 C 0.36727 0.89967 0.04085 0.0
C1066 C 0.34681 0.9031 0.03939 0.0
C1067 C 0.32665 0.88949 0.04717 0.0
C1068 C 0.38844 0.87808 0.05177 0.0
C1069 C 0.34648 0.92161 0.0299 0.0
C1070 C 0.42855 0.95409 0.03523 0.0
C1071 C 0.4321 0.94783 0.02096 0.0
C1072 C 0.40773 0.93841 0.04185 0.0
C1073 C 0.38981 0.9159 0.034 0.0
C1074 C 0.39333 0.90926 0.01965 0.0
C1075 C 0.41456 0.92528 0.01331 0.0
C1076 C 0.40486 0.94607 0.05724 0.0
C1077 C 0.37454 0.88542 0.01095 0.0
H1078 H 0.34644 0.85565 0.06457 0.0
H1079 H 0.31104 0.89219 0.0461 0.0
H1080 H 0.39358 0.87452 0.04089 0.0
H1081 H 0.40453 0.89485 0.05752 0.0
H1082 H 0.38457 0.86251 0.05825 0.0
H1083 H 0.32854 0.92086 0.02912 0.0
H1084 H 0.36089 0.94032 0.03453 0.0
H1085 H 0.35065 0.91847 0.01863 0.0
H1086 H 0.44216 0.97133 0.04133 0.0
H1087 H 0.41719 0.92033 0.00229 0.0
H1088 H 0.40248 0.93195 0.0646 0.0
H1089 H 0.3882 0.9477 0.05711 0.0
H1090 H 0.42086 0.96386 0.06201 0.0
H1091 H 0.37136 0.86984 0.01721 0.0
H1092 H 0.38022 0.88272 1.00006 0.0
H1093 H 0.35681 0.88495 0.00918 0.0
C1094 C 0.11645 0.438 0.05742 0.0
C1095 C 0.13844 0.45698 0.06495 0.0
C1096 C 0.09934 0.44284 0.05021 0.0
C1097 C 0.10442 0.46729 0.05034 0.0
C1098 C 0.12658 0.48655 0.05786 0.0
C1099 C 0.14323 0.48116 0.06513 0.0
C1100 C 0.07587 0.42177 0.04239 0.0
C1101 C 0.13272 0.51288 0.05818 0.0
C1102 C 0.07078 0.48121 0.02006 0.0
C1103 C 0.05237 0.48212 0.02741 0.0
C1104 C 0.08799 0.47668 0.02744 0.0
C1105 C 0.08663 0.47269 0.04249 0.0
C1106 C 0.06809 0.47357 0.04997 0.0
C1107 C 0.05128 0.4784 0.04237 0.0
C1108 C 0.10764 0.47616 0.01911 0.0
C1109 C 0.06587 0.46916 0.06598 0.0
H1110 H 0.1127 0.4193 0.05697 0.0
H1111 H 0.15995 0.49594 0.07109 0.0
H1112 H 0.05987 0.42177 0.04673 0.0
H1113 H 0.07481 0.42391 0.03048 0.0
H1114 H 0.07436 0.40376 0.04367 0.0
H1115 H 0.15083 0.52576 0.06438 0.0
H1116 H 0.13285 0.51792 0.04678 0.0
H1117 H 0.1185 0.51523 0.06333 0.0
H1118 H 0.07188 0.4842 0.00854 0.0
H1119 H 0.03708 0.47898 0.04814 0.0
H1120 H 0.10606 0.45791 0.01908 0.0
H1121 H 0.126 0.48981 0.02467 0.0
H1122 H 0.10651 0.48013 0.00753 0.0
H1123 H 0.06298 0.45068 0.06744 0.0
H1124 H 0.05048 0.47056 0.07022 0.0
H1125 H 0.0831 0.48262 0.07278 0.0
C1126 C 0.55656 0.68451 0.05599 0.0
C1127 C 0.57908 0.70266 0.05208 0.0
C1128 C 0.5465 0.65997 0.05031 0.0
C1129 C 0.55918 0.65355 0.04037 0.0
C1130 C 0.58183 0.67186 0.03628 0.0
C1131 C 0.59159 0.69621 0.04226 0.0
C1132 C 0.52246 0.64089 0.05506 0.0
C1133 C 0.5957 0.66571 0.02555 0.0
C1134 C 0.54574 0.58797 0.03572 0.0
C1135 C 0.52962 0.57852 0.02276 0.0
C1136 C 0.55532 0.61232 0.04166 0.0
C1137 C 0.54885 0.62763 0.03434 0.0
C1138 C 0.5326 0.61822 0.02124 0.0
C1139 C 0.52303 0.5937 0.01565 0.0
C1140 C 0.57234 0.62165 0.05577 0.0
C1141 C 0.52551 0.63411 0.01305 0.0
H1142 H 0.54701 0.68948 0.06371 0.0
H1143 H 0.6089 0.7103 0.03913 0.0
H1144 H 0.50878 0.63132 0.04531 0.0
H1145 H 0.52492 0.62689 0.06038 0.0
H1146 H 0.51496 0.64893 0.0629 0.0
H1147 H 0.61284 0.68217 0.0233 0.0
H1148 H 0.60045 0.65252 0.02997 0.0
H1149 H 0.58401 0.65678 0.01499 0.0
H1150 H 0.55076 0.57628 0.04133 0.0
H1151 H 0.51068 0.58653 0.00558 0.0
H1152 H 0.56488 0.62875 0.0642 0.0
H1153 H 0.59042 0.63709 0.05382 0.0
H1154 H 0.57512 0.60722 0.06026 0.0
H1155 H 0.51664 0.64136 0.02031 0.0
H1156 H 0.51276 0.624 0.00297 0.0
H1157 H 0.54213 0.65007 0.00984 0.0
C1158 C 0.86398 0.31759 0.9608 0.0
C1159 C 0.8697 0.30462 0.95027 0.0
C1160 C 0.88138 0.34151 0.96671 0.0
C1161 C 0.90532 0.35256 0.96231 0.0
C1162 C 0.91139 0.33954 0.95187 0.0
C1163 C 0.89344 0.31586 0.94585 0.0
C1164 C 0.87412 0.35496 0.97768 0.0
C1165 C 0.93688 0.35058 0.94712 0.0
C1166 C 0.94419 0.42188 0.96846 0.0
C1167 C 0.95741 0.42532 0.98208 0.0
C1168 C 0.92727 0.39825 0.9618 0.0
C1169 C 0.92403 0.37767 0.96879 0.0
C1170 C 0.93804 0.38108 0.98229 0.0
C1171 C 0.95434 0.40489 0.98887 0.0
C1172 C 0.91227 0.39532 0.94757 0.0
C1173 C 0.93556 0.35958 0.98988 0.0
H1174 H 0.84592 0.309 0.96455 0.0
H1175 H 0.89802 0.30629 0.93753 0.0
H1176 H 0.88526 0.35924 0.98842 0.0
H1177 H 0.87782 0.37264 0.97382 0.0
H1178 H 0.85445 0.3442 0.97944 0.0
H1179 H 0.93884 0.33776 0.93923 0.0
H1180 H 0.9415 0.36747 0.94188 0.0
H1181 H 0.95046 0.3559 0.95688 0.0
H1182 H 0.94642 0.43767 0.96325 0.0
H1183 H 0.96473 0.40754 0.99935 0.0
H1184 H 0.89255 0.386 0.94927 0.0
H1185 H 0.91456 0.38364 0.93901 0.0
H1186 H 0.91742 0.41317 0.94337 0.0
H1187 H 0.91685 0.34902 0.9933 0.0
H1188 H 0.949 0.36537 0.99978 0.0
H1189 H 0.93818 0.34704 0.98217 0.0
C1190 C 0.67214 0.56184 0.95735 0.0
C1191 C 0.67072 0.5439 0.94688 0.0
C1192 C 0.65199 0.5576 0.96498 0.0
C1193 C 0.62979 0.53494 0.96198 0.0
C1194 C 0.6282 0.51682 0.95135 0.0
C1195 C 0.6487 0.52147 0.94399 0.0
C1196 C 0.6545 0.57731 0.97632 0.0
C1197 C 0.60477 0.49256 0.94769 0.0
C1198 C 0.58362 0.5146 0.99035 0.0
C1199 C 0.56693 0.52128 0.98472 0.0
C1200 C 0.60426 0.51912 0.98314 0.0
C1201 C 0.60815 0.53029 0.96987 0.0
C1202 C 0.59133 0.53698 0.9641 0.0
C1203 C 0.5711 0.53262 0.97165 0.0
C1204 C 0.6219 0.51193 0.98973 0.0
C1205 C 0.59459 0.54862 0.94988 0.0
H1206 H 0.68919 0.57909 0.95976 0.0
H1207 H 0.64741 0.50764 0.9358 0.0
H1208 H 0.6409 0.58286 0.97323 0.0
H1209 H 0.65062 0.57012 0.98718 0.0
H1210 H 0.67309 0.59379 0.97749 0.0
H1211 H 0.6065 0.48044 0.93913 0.0
H1212 H 0.59943 0.48296 0.95773 0.0
H1213 H 0.5897 0.49562 0.94373 0.0
H1214 H 0.58065 0.50592 1.00046 0.0
H1215 H 0.5584 0.53792 0.96718 0.0
H1216 H 0.64057 0.5282 0.99179 0.0
H1217 H 0.62288 0.49846 0.98187 0.0
H1218 H 0.61652 0.50381 1.00025 0.0
H1219 H 0.61223 0.56618 0.95095 0.0
H1220 H 0.57956 0.55224 0.9467 0.0
H1221 H 0.59528 0.53653 0.94084 0.0
C1222 C 0.44535 0.1197 0.95876 0.0
C1223 C 0.42177 0.11517 0.9609 0.0
C1224 C 0.45452 0.10581 0.96491 0.0
C1225 C 0.4398 0.08703 0.9735 0.0
C1226 C 0.41608 0.08256 0.97586 0.0
C1227 C 0.40727 0.09663 0.96945 0.0
C1228 C 0.47979 0.11091 0.96199 0.0
C1229 C 0.39997 0.06282 0.98507 0.0
C1230 C 0.45366 0.0357 0.97646 0.0
C1231 C 0.46786 0.04278 0.99013 0.0
C1232 C 0.44425 0.04984 0.97099 0.0
C1233 C 0.44892 0.07147 0.97947 0.0
C1234 C 0.46294 0.07856 0.99337 0.0
C1235 C 0.4724 0.06419 0.99851 0.0
C1236 C 0.42965 0.04186 0.95602 0.0
C1237 C 0.46809 0.10142 0.00276 0.0
H1238 H 0.45647 0.13384 0.95199 0.0
H1239 H 0.38913 0.09327 0.97123 0.0
H1240 H 0.49134 0.11498 0.97255 0.0
H1241 H 0.47852 0.09445 0.95602 0.0
H1242 H 0.48911 0.12655 0.95537 0.0
H1243 H 0.3824 0.06234 0.98634 0.0
H1244 H 0.39585 0.04468 0.97991 0.0
H1245 H 0.40969 0.06575 0.99616 0.0
H1246 H 0.45022 0.01926 0.96986 0.0
H1247 H 0.48324 0.06968 0.00912 0.0
H1248 H 0.43888 0.05619 0.94855 0.0
H1249 H 0.41123 0.03953 0.95694 0.0
H1250 H 0.4274 0.02438 0.95091 0.0
H1251 H 0.4788 0.11772 0.99689 0.0
H1252 H 0.47848 0.10386 0.01356 0.0
H1253 H 0.45065 0.10072 0.00474 0.0
C1254 C 0.65353 0.12474 0.95272 0.0
C1255 C 0.6698 0.1159 0.95176 0.0
C1256 C 0.63247 0.11263 0.96005 0.0
C1257 C 0.62736 0.09087 0.96628 0.0
C1258 C 0.64376 0.08186 0.96531 0.0
C1259 C 0.66495 0.09466 0.95819 0.0
C1260 C 0.61565 0.12303 0.96109 0.0
C1261 C 0.63868 0.05844 0.97152 0.0
C1262 C 0.58223 0.06666 0.99504 0.0
C1263 C 0.56085 0.04896 0.9864 0.0
C1264 C 0.60394 0.08087 0.9886 0.0
C1265 C 0.60431 0.07691 0.97323 0.0
C1266 C 0.58273 0.05917 0.96446 0.0
C1267 C 0.56126 0.04558 0.97112 0.0
C1268 C 0.6265 0.09998 0.99825 0.0
C1269 C 0.58241 0.05412 0.94806 0.0
H1270 H 0.65747 0.14135 0.94787 0.0
H1271 H 0.67752 0.08779 0.95737 0.0
H1272 H 0.59744 0.10995 0.95513 0.0
H1273 H 0.61285 0.1257 0.97277 0.0
H1274 H 0.62295 0.14081 0.95639 0.0
H1275 H 0.65341 0.05408 0.96999 0.0
H1276 H 0.63671 0.05984 0.98345 0.0
H1277 H 0.62112 0.04299 0.96608 0.0
H1278 H 0.58202 0.06943 0.00683 0.0
H1279 H 0.54488 0.03181 0.96434 0.0
H1280 H 0.63355 0.11807 0.994 0.0
H1281 H 0.64117 0.09527 0.99799 0.0
H1282 H 0.62287 0.10163 0.00987 0.0
H1283 H 0.58815 0.07111 0.94269 0.0
H1284 H 0.56402 0.03986 0.94279 0.0
H1285 H 0.5957 0.048 0.94591 0.0
C1286 C 0.88152 0.55467 0.95804 0.0
C1287 C 0.86469 0.53873 0.94626 0.0
C1288 C 0.89852 0.54957 0.96515 0.0
C1289 C 0.89887 0.52809 0.96031 0.0
C1290 C 0.8821 0.51201 0.94836 0.0
C1291 C 0.86517 0.51746 0.94153 0.0
C1292 C 0.91606 0.56716 0.97787 0.0
C1293 C 0.88193 0.48894 0.94285 0.0
C1294 C 0.9568 0.5257 0.97041 0.0
C1295 C 0.95041 0.51161 0.98235 0.0
C1296 C 0.94017 0.53107 0.96307 0.0
C1297 C 0.91663 0.52232 0.96785 0.0
C1298 C 0.91008 0.50812 0.9799 0.0
C1299 C 0.92698 0.50287 0.98696 0.0
C1300 C 0.94778 0.54608 0.95019 0.0
C1301 C 0.88522 0.4986 0.9854 0.0
H1302 H 0.8816 0.57134 0.96164 0.0
H1303 H 0.85204 0.50483 0.93259 0.0
H1304 H 0.91366 0.55752 0.98788 0.0
H1305 H 0.93522 0.57416 0.97537 0.0
H1306 H 0.91335 0.58299 0.98034 0.0
H1307 H 0.86812 0.47866 0.93321 0.0
H1308 H 0.90026 0.49353 0.93967 0.0
H1309 H 0.87791 0.47681 0.95176 0.0
H1310 H 0.97479 0.53245 0.9667 0.0
H1311 H 0.92186 0.49203 0.99619 0.0
H1312 H 0.94692 0.56303 0.9525 0.0
H1313 H 0.93492 0.53562 0.94023 0.0
H1314 H 0.96663 0.55127 0.94773 0.0
H1315 H 0.88246 0.51411 0.98878 0.0
H1316 H 0.88297 0.48785 0.99491 0.0
H1317 H 0.87063 0.4868 0.97644 0.0
C1318 C 0.44922 0.32651 0.95666 0.0
C1319 C 0.42409 0.30979 0.95615 0.0
C1320 C 0.45917 0.35071 0.96292 0.0
C1321 C 0.44351 0.3584 0.96862 0.0
C1322 C 0.4181 0.34156 0.96818 0.0
C1323 C 0.4087 0.31733 0.96202 0.0
C1324 C 0.48641 0.36806 0.96341 0.0
C1325 C 0.40084 0.34923 0.97401 0.0
C1326 C 0.47185 0.41537 0.99592 0.0
C1327 C 0.47433 0.43329 0.9868 0.0
C1328 C 0.4618 0.39088 0.99014 0.0
C1329 C 0.45377 0.38415 0.97494 0.0
C1330 C 0.45602 0.4021 0.9657 0.0
C1331 C 0.46644 0.42652 0.97173 0.0
C1332 C 0.45997 0.37226 1.00028 0.0
C1333 C 0.44741 0.39551 0.94945 0.0
H1334 H 0.46114 0.32054 0.95226 0.0
H1335 H 0.38923 0.3044 0.96152 0.0
H1336 H 0.48993 0.38365 0.95707 0.0
H1337 H 0.49435 0.37575 0.97494 0.0
H1338 H 0.4961 0.35899 0.95882 0.0
H1339 H 0.38159 0.33387 0.97287 0.0
H1340 H 0.40654 0.3564 0.98581 0.0
H1341 H 0.40163 0.36425 0.96801 0.0
H1342 H 0.47801 0.42051 0.00757 0.0
H1343 H 0.46816 0.44026 0.96465 0.0
H1344 H 0.47052 0.36365 0.99647 0.0
H1345 H 0.44063 0.35745 1.00002 0.0
H1346 H 0.46702 0.38049 0.01185 0.0
H1347 H 0.4577 0.38781 0.94404 0.0
H1348 H 0.44985 0.41153 0.94386 0.0
H1349 H 0.42775 0.38118 0.9478 0.0
C1350 C 0.12867 0.66482 0.06755 0.0
C1351 C 0.1277 0.68542 0.06365 0.0
C1352 C 0.11171 0.64129 0.06082 0.0
C1353 C 0.09343 0.63827 0.04984 0.0
C1354 C 0.09205 0.65889 0.04602 0.0
C1355 C 0.10918 0.68222 0.05299 0.0
C1356 C 0.11378 0.61974 0.06519 0.0
C1357 C 0.07282 0.65637 0.03434 0.0
C1358 C 0.06823 0.58263 0.0217 0.0
C1359 C 0.04581 0.56656 0.02681 0.0
C1360 C 0.0837 0.6061 0.029 0.0
C1361 C 0.07668 0.61371 0.04178 0.0
C1362 C 0.05402 0.5977 0.04696 0.0
C1363 C 0.0388 0.57431 0.03938 0.0
C1364 C 0.10767 0.6227 0.02308 0.0
C1365 C 0.04602 0.60517 0.0606 0.0
H1366 H 0.14311 0.66715 0.07562 0.0
H1367 H 0.10808 0.69799 0.05008 0.0
H1368 H 0.09599 0.60534 0.06831 0.0
H1369 H 0.11835 0.61157 0.05568 0.0
H1370 H 0.12807 0.62498 0.07454 0.0
H1371 H 0.07356 0.67405 0.0331 0.0
H1372 H 0.07539 0.6493 0.02359 0.0
H1373 H 0.05429 0.64293 0.03706 0.0
H1374 H 0.07377 0.5769 0.01195 0.0
H1375 H 0.02154 0.56201 0.04343 0.0
H1376 H 0.12317 0.62735 0.03145 0.0
H1377 H 0.10862 0.64012 0.02077 0.0
H1378 H 0.11016 0.6142 0.01283 0.0
H1379 H 0.05945 0.60915 0.07022 0.0
H1380 H 0.02766 0.59077 0.06303 0.0
H1381 H 0.04552 0.62221 0.05928 0.0
C1382 C 0.34574 0.44284 0.06483 0.0
C1383 C 0.33173 0.45408 0.06252 0.0
C1384 C 0.36657 0.4492 0.05739 0.0
C1385 C 0.37388 0.46769 0.04771 0.0
C1386 C 0.35994 0.47931 0.04552 0.0
C1387 C 0.33887 0.47215 0.05282 0.0
C1388 C 0.38062 0.436 0.05978 0.0
C1389 C 0.36743 0.49951 0.0356 0.0
C1390 C 0.44048 0.49968 0.0396 0.0
C1391 C 0.43872 0.48883 0.0254 0.0
C1392 C 0.41951 0.49324 0.04689 0.0
C1393 C 0.39625 0.47503 0.03996 0.0
C1394 C 0.39438 0.46392 0.02565 0.0
C1395 C 0.41561 0.47117 0.01846 0.0
C1396 C 0.42227 0.50596 0.06199 0.0
C1397 C 0.37 0.44406 0.01802 0.0
H1398 H 0.34011 0.42875 0.07226 0.0
H1399 H 0.32813 0.48099 0.05114 0.0
H1400 H 0.38166 0.42747 0.04908 0.0
H1401 H 0.39967 0.44922 0.06452 0.0
H1402 H 0.37209 0.42154 0.06729 0.0
H1403 H 0.3549 0.50705 0.03533 0.0
H1404 H 0.38627 0.51461 0.03941 0.0
H1405 H 0.36768 0.49256 0.02422 0.0
H1406 H 0.45828 0.51344 0.045 0.0
H1407 H 0.41417 0.46255 0.00755 0.0
H1408 H 0.41584 0.49243 0.07016 0.0
H1409 H 0.4107 0.51458 0.06199 0.0
H1410 H 0.44153 0.5203 0.06564 0.0
H1411 H 0.36164 0.42864 0.02489 0.0
H1412 H 0.37171 0.43691 0.00702 0.0
H1413 H 0.35723 0.45117 0.01664 0.0
C1414 C 0.5702 0.88768 0.03702 0.0
C1415 C 0.59056 0.90088 0.04751 0.0
C1416 C 0.55807 0.89891 0.03077 0.0
C1417 C 0.56685 0.92402 0.03496 0.0
C1418 C 0.58795 0.93763 0.04518 0.0
C1419 C 0.59941 0.9258 0.05148 0.0
C1420 C 0.53537 0.88371 0.02011 0.0
C1421 C 0.59812 0.96456 0.04968 0.0
C1422 C 0.546 0.95779 0.01047 0.0
C1423 C 0.52834 0.95899 0.01846 0.0
C1424 C 0.55879 0.94653 0.01574 0.0
C1425 C 0.55336 0.93581 0.02912 0.0
C1426 C 0.53516 0.93651 0.03706 0.0
C1427 C 0.52304 0.94835 0.0317 0.0
C1428 C 0.57843 0.94654 0.00714 0.0
C1429 C 0.52853 0.92484 0.05123 0.0
H1430 H 0.56323 0.86832 0.0341 0.0
H1431 H 0.61525 0.93597 0.05956 0.0
H1432 H 0.51937 0.88323 0.02477 0.0
H1433 H 0.53743 0.89209 0.00962 0.0
H1434 H 0.5314 0.8646 0.01766 0.0
H1435 H 0.6156 0.97283 0.05696 0.0
H1436 H 0.6013 0.97458 0.03978 0.0
H1437 H 0.58467 0.96721 0.05557 0.0
H1438 H 0.5503 0.96621 1.00029 0.0
H1439 H 0.5093 0.94914 0.03786 0.0
H1440 H 0.57415 0.92749 0.00412 0.0
H1441 H 0.59628 0.9561 0.01408 0.0
H1442 H 0.58041 0.95567 0.99693 0.0
H1443 H 0.52308 0.90523 0.04937 0.0
H1444 H 0.51331 0.92621 0.05575 0.0
H1445 H 0.54469 0.9338 0.05961 0.0
C1446 C 0.01297 0.20291 0.3919 0.0
C1447 C 0.99257 0.20609 0.39044 0.0
C1448 C 0.03342 0.2164 0.3843 0.0
C1449 C 0.03341 0.23338 0.37496 0.0
C1450 C 0.01264 0.23627 0.37319 0.0
C1451 C 0.99251 0.22265 0.38099 0.0
C1452 C 0.05531 0.213 0.3866 0.0
C1453 C 0.01189 0.2541 0.36326 0.0
C1454 C 0.09442 0.28756 0.36856 0.0
C1455 C 0.09811 0.28043 0.35455 0.0
C1456 C 0.07358 0.27232 0.37533 0.0
C1457 C 0.05577 0.24939 0.36787 0.0
C1458 C 0.05934 0.24196 0.35374 0.0
C1459 C 0.08058 0.25754 0.34727 0.0
C1460 C 0.07064 0.28083 0.39048 0.0
C1461 C 0.04064 0.21767 0.34544 0.0
H1462 H 0.0132 0.19029 0.39929 0.0
H1463 H 0.97664 0.22491 0.37967 0.0
H1464 H 0.06036 0.20878 0.37586 0.0
H1465 H 0.07129 0.23025 0.39198 0.0
H1466 H 0.05187 0.19808 0.39356 0.0
H1467 H 0.99381 0.25307 0.36237 0.0
H1468 H 0.02615 0.27304 0.36758 0.0
H1469 H 0.01599 0.25046 0.35207 0.0
H1470 H 0.10797 0.3051 0.37438 0.0
H1471 H 0.08328 0.25191 0.33644 0.0
H1472 H 0.06862 0.26734 0.39825 0.0
H1473 H 0.05376 0.28209 0.39011 0.0
H1474 H 0.08644 0.29897 0.39491 0.0
H1475 H 0.0379 0.20255 0.35202 0.0
H1476 H 0.04617 0.21455 0.33458 0.0
H1477 H 0.02273 0.21682 0.34365 0.0
C1478 C 0.81009 0.814 0.39602 0.0
C1479 C 0.80528 0.78988 0.39637 0.0
C1480 C 0.7931 0.819 0.38882 0.0
C1481 C 0.77058 0.79941 0.38191 0.0
C1482 C 0.7655 0.77502 0.3823 0.0
C1483 C 0.78293 0.77056 0.38945 0.0
C1484 C 0.79925 0.84526 0.38859 0.0
C1485 C 0.74165 0.75363 0.37512 0.0
C1486 C 0.71763 0.811 0.37455 0.0
C1487 C 0.718 0.81406 0.35949 0.0
C1488 C 0.73453 0.8061 0.38196 0.0
C1489 C 0.75242 0.80444 0.37418 0.0
C1490 C 0.75297 0.80762 0.359 0.0
C1491 C 0.7357 0.81227 0.35183 0.0
C1492 C 0.7332 0.8026 0.39812 0.0
C1493 C 0.7719 0.80622 0.35035 0.0
H1494 H 0.82709 0.82904 0.40153 0.0
H1495 H 0.77915 0.75189 0.38944 0.0
H1496 H 0.79865 0.84952 0.37705 0.0
H1497 H 0.78544 0.84807 0.39393 0.0
H1498 H 0.81767 0.85842 0.39433 0.0
H1499 H 0.74025 0.73575 0.3767 0.0
H1500 H 0.72601 0.75399 0.37973 0.0
H1501 H 0.73983 0.75502 0.36314 0.0
H1502 H 0.70398 0.81224 0.38056 0.0
H1503 H 0.73623 0.81472 0.34021 0.0
H1504 H 0.75072 0.81638 0.40454 0.0
H1505 H 0.73047 0.78427 0.39989 0.0
H1506 H 0.71807 0.80427 0.40255 0.0
H1507 H 0.79056 0.82012 0.35538 0.0
H1508 H 0.76997 0.80929 0.33864 0.0
H1509 H 0.7703 0.78802 0.35072 0.0
C1510 C 0.23652 0.02298 0.36833 0.0
C1511 C 0.25585 0.034 0.3797 0.0
C1512 C 0.22646 0.99836 0.36285 0.0
C1513 C 0.23642 0.98456 0.36855 0.0
C1514 C 0.25659 0.99577 0.37955 0.0
C1515 C 0.26586 0.02025 0.38513 0.0
C1516 C 0.20473 0.98693 0.35125 0.0
C1517 C 0.26803 0.98175 0.38566 0.0
C1518 C 0.19563 0.91557 0.36585 0.0
C1519 C 0.20243 0.9081 0.35311 0.0
C1520 C 0.20651 0.94045 0.37097 0.0
C1521 C 0.2251 0.95814 0.36338 0.0
C1522 C 0.23244 0.95062 0.35071 0.0
C1523 C 0.22074 0.92566 0.34559 0.0
C1524 C 0.19779 0.94783 0.38432 0.0
C1525 C 0.25265 0.96892 0.34257 0.0
H1526 H 0.22902 0.03353 0.36378 0.0
H1527 H 0.28055 0.02837 0.39403 0.0
H1528 H 0.20899 0.97938 0.34132 0.0
H1529 H 0.18889 0.97145 0.35547 0.0
H1530 H 0.19922 0.00022 0.34793 0.0
H1531 H 0.2849 0.99369 0.39323 0.0
H1532 H 0.25476 0.967 0.39175 0.0
H1533 H 0.27267 0.97287 0.37655 0.0
H1534 H 0.18134 0.90198 0.37161 0.0
H1535 H 0.22616 0.91984 0.33581 0.0
H1536 H 0.19088 0.9602 0.38138 0.0
H1537 H 0.21325 0.9581 0.39307 0.0
H1538 H 0.18298 0.9318 0.38885 0.0
H1539 H 0.24731 0.98167 0.33812 0.0
H1540 H 0.25694 0.95995 0.33332 0.0
H1541 H 0.26952 0.98008 0.35026 0.0
C1542 C 0.52909 0.6514 0.29276 0.0
C1543 C 0.53484 0.63848 0.28222 0.0
C1544 C 0.54644 0.67535 0.29865 0.0
C1545 C 0.57036 0.68648 0.29421 0.0
C1546 C 0.57642 0.67355 0.28371 0.0
C1547 C 0.55852 0.64985 0.2777 0.0
C1548 C 0.53919 0.68871 0.3097 0.0
C1549 C 0.60189 0.68468 0.27891 0.0
C1550 C 0.60956 0.75575 0.30083 0.0
C1551 C 0.62276 0.75885 0.3144 0.0
C1552 C 0.59251 0.73225 0.29404 0.0
C1553 C 0.58914 0.71146 0.30084 0.0
C1554 C 0.60311 0.71454 0.31429 0.0
C1555 C 0.61954 0.73822 0.32101 0.0
C1556 C 0.57755 0.72968 0.27987 0.0
C1557 C 0.60047 0.69282 0.32169 0.0
H1558 H 0.51106 0.64273 0.29656 0.0
H1559 H 0.5631 0.64031 0.26937 0.0
H1560 H 0.55021 0.69272 0.32045 0.0
H1561 H 0.54304 0.70651 0.30597 0.0
H1562 H 0.51948 0.67798 0.31138 0.0
H1563 H 0.60377 0.67204 0.27082 0.0
H1564 H 0.60658 0.70176 0.27388 0.0
H1565 H 0.61547 0.68969 0.28862 0.0
H1566 H 0.61191 0.77171 0.29577 0.0
H1567 H 0.62991 0.74061 0.33145 0.0
H1568 H 0.55784 0.72042 0.28157 0.0
H1569 H 0.57975 0.71808 0.2712 0.0
H1570 H 0.58282 0.74765 0.27582 0.0
H1571 H 0.58173 0.68223 0.32506 0.0
H1572 H 0.61386 0.69837 0.33159 0.0
H1573 H 0.60306 0.68039 0.31387 0.0
C1574 C 0.32671 0.85539 0.28778 0.0
C1575 C 0.33583 0.87412 0.27844 0.0
C1576 C 0.30597 0.84988 0.29511 0.0
C1577 C 0.29436 0.86388 0.29346 0.0
C1578 C 0.30362 0.88307 0.28428 0.0
C1579 C 0.32398 0.88773 0.27674 0.0
C1580 C 0.29641 0.82896 0.30457 0.0
C1581 C 0.29202 0.89871 0.28242 0.0
C1582 C 0.22811 0.83711 0.30166 0.0
C1583 C 0.23084 0.84741 0.31617 0.0
C1584 C 0.2486 0.84212 0.2942 0.0
C1585 C 0.27243 0.85832 0.30127 0.0
C1586 C 0.27529 0.86901 0.31586 0.0
C1587 C 0.25447 0.86319 0.3232 0.0
C1588 C 0.24473 0.82994 0.27877 0.0
C1589 C 0.30033 0.88687 0.32365 0.0
H1590 H 0.33588 0.84504 0.28953 0.0
H1591 H 0.33043 0.90195 0.2694 0.0
H1592 H 0.29721 0.83588 0.31615 0.0
H1593 H 0.27692 0.81557 0.30079 0.0
H1594 H 0.30698 0.81928 0.3043 0.0
H1595 H 0.30213 0.91368 0.27547 0.0
H1596 H 0.27287 0.88725 0.2773 0.0
H1597 H 0.29136 0.90691 0.29335 0.0
H1598 H 0.2099 0.82486 0.29617 0.0
H1599 H 0.25669 0.87145 0.33434 0.0
H1600 H 0.25455 0.81953 0.27828 0.0
H1601 H 0.25245 0.84399 0.27097 0.0
H1602 H 0.22506 0.81724 0.275 0.0
H1603 H 0.31147 0.87788 0.32468 0.0
H1604 H 0.2994 0.89412 0.33482 0.0
H1605 H 0.31006 0.90249 0.31708 0.0
C1606 C 0.07545 0.42765 0.30142 0.0
C1607 C 0.08923 0.4457 0.29239 0.0
C1608 C 0.08471 0.4139 0.30774 0.0
C1609 C 0.10816 0.41819 0.30482 0.0
C1610 C 0.12218 0.43647 0.29576 0.0
C1611 C 0.11256 0.45007 0.28969 0.0
C1612 C 0.06934 0.39469 0.31746 0.0
C1613 C 0.14714 0.44136 0.29227 0.0
C1614 C 0.14156 0.39628 0.32992 0.0
C1615 C 0.13624 0.37426 0.32196 0.0
C1616 C 0.13233 0.41069 0.32455 0.0
C1617 C 0.11772 0.403 0.31083 0.0
C1618 C 0.11244 0.38087 0.30272 0.0
C1619 C 0.12166 0.3667 0.30841 0.0
C1620 C 0.13816 0.43412 0.33355 0.0
C1621 C 0.09717 0.37222 0.28795 0.0
H1622 H 0.05752 0.42445 0.30363 0.0
H1623 H 0.12312 0.46384 0.28257 0.0
H1624 H 0.06506 0.37636 0.31254 0.0
H1625 H 0.07972 0.39821 0.3284 0.0
H1626 H 0.05186 0.39422 0.31905 0.0
H1627 H 0.1559 0.45659 0.28529 0.0
H1628 H 0.15936 0.44596 0.3026 0.0
H1629 H 0.14554 0.42465 0.28645 0.0
H1630 H 0.15274 0.40216 0.34043 0.0
H1631 H 0.11764 0.3498 0.30213 0.0
H1632 H 0.12095 0.43358 0.33598 0.0
H1633 H 0.1482 0.44992 0.32717 0.0
H1634 H 0.14943 0.4373 0.34411 0.0
H1635 H 0.07878 0.3698 0.28916 0.0
H1636 H 0.09487 0.35464 0.283 0.0
H1637 H 0.10587 0.38621 0.28021 0.0
C1638 C 0.33292 0.42648 0.29171 0.0
C1639 C 0.33666 0.44704 0.28484 0.0
C1640 C 0.31185 0.41315 0.29884 0.0
C1641 C 0.29442 0.42091 0.29935 0.0
C1642 C 0.2984 0.44199 0.29268 0.0
C1643 C 0.31938 0.45467 0.28536 0.0
C1644 C 0.30801 0.39048 0.30555 0.0
C1645 C 0.28044 0.45107 0.29321 0.0
C1646 C 0.22892 0.37383 0.30426 0.0
C1647 C 0.22812 0.37794 0.31942 0.0
C1648 C 0.25037 0.38767 0.29762 0.0
C1649 C 0.27151 0.40636 0.30631 0.0
C1650 C 0.27076 0.4109 0.32158 0.0
C1651 C 0.24911 0.39646 0.32799 0.0
C1652 C 0.25048 0.382 0.28135 0.0
C1653 C 0.29284 0.43099 0.33112 0.0
H1654 H 0.34625 0.42053 0.29122 0.0
H1655 H 0.32245 0.47075 0.28018 0.0
H1656 H 0.30577 0.39215 0.31742 0.0
H1657 H 0.29093 0.37428 0.30019 0.0
H1658 H 0.32348 0.38711 0.30438 0.0
H1659 H 0.28689 0.46848 0.28818 0.0
H1660 H 0.26251 0.43712 0.28728 0.0
H1661 H 0.27732 0.45395 0.30479 0.0
H1662 H 0.21284 0.35942 0.29755 0.0
H1663 H 0.24857 0.39978 0.33969 0.0
H1664 H 0.26461 0.37688 0.27959 0.0
H1665 H 0.25531 0.39847 0.27559 0.0
H1666 H 0.23247 0.36684 0.27616 0.0
H1667 H 0.30825 0.42735 0.33106 0.0
H1668 H 0.28903 0.43271 0.34269 0.0
H1669 H 0.29895 0.44877 0.32661 0.0
C1670 C 0.54653 0.88678 0.29077 0.0
C1671 C 0.5301 0.87094 0.27882 0.0
C1672 C 0.56355 0.88183 0.298 0.0
C1673 C 0.56432 0.86059 0.29312 0.0
C1674 C 0.54793 0.8446 0.28101 0.0
C1675 C 0.53099 0.84992 0.27405 0.0
C1676 C 0.58069 0.89933 0.31088 0.0
C1677 C 0.54821 0.82179 0.27546 0.0
C1678 C 0.6226 0.85901 0.30355 0.0
C1679 C 0.61616 0.84472 0.31541 0.0
C1680 C 0.60588 0.86419 0.29615 0.0
C1681 C 0.58218 0.85503 0.30076 0.0
C1682 C 0.57558 0.84064 0.31272 0.0
C1683 C 0.59259 0.8356 0.31986 0.0
C1684 C 0.61358 0.87945 0.28337 0.0
C1685 C 0.55054 0.83065 0.31803 0.0
H1686 H 0.54628 0.90326 0.29441 0.0
H1687 H 0.51818 0.83738 0.26496 0.0
H1688 H 0.5782 0.88952 0.32083 0.0
H1689 H 0.59997 0.90665 0.30854 0.0
H1690 H 0.57765 0.91494 0.31338 0.0
H1691 H 0.5346 0.8115 0.26574 0.0
H1692 H 0.56668 0.82669 0.27239 0.0
H1693 H 0.54421 0.80955 0.28431 0.0
H1694 H 0.6407 0.86605 0.29996 0.0
H1695 H 0.58742 0.82459 0.32902 0.0
H1696 H 0.61238 0.89619 0.28572 0.0
H1697 H 0.60097 0.86901 0.27332 0.0
H1698 H 0.63257 0.88498 0.28105 0.0
H1699 H 0.54743 0.84593 0.32142 0.0
H1700 H 0.54825 0.81978 0.32748 0.0
H1701 H 0.53618 0.81886 0.30895 0.0
C1702 C 0.0716 0.64231 0.30169 0.0
C1703 C 0.08323 0.63706 0.29063 0.0
C1704 C 0.08113 0.66632 0.3083 0.0
C1705 C 0.10263 0.6855 0.3036 0.0
C1706 C 0.11446 0.68033 0.29246 0.0
C1707 C 0.10473 0.65617 0.2862 0.0
C1708 C 0.06819 0.67119 0.32026 0.0
C1709 C 0.13738 0.70035 0.28712 0.0
C1710 C 0.11608 0.75094 0.30977 0.0
C1711 C 0.13459 0.7606 0.32157 0.0
C1712 C 0.10521 0.72637 0.30396 0.0
C1713 C 0.11283 0.71108 0.31024 0.0
C1714 C 0.13105 0.72057 0.3224 0.0
C1715 C 0.14186 0.7453 0.32786 0.0
C1716 C 0.08604 0.71694 0.29086 0.0
C1717 C 0.13939 0.70469 0.32949 0.0
H1718 H 0.05485 0.6277 0.30507 0.0
H1719 H 0.11415 0.65221 0.2779 0.0
H1720 H 0.08103 0.68024 0.33041 0.0
H1721 H 0.062 0.68386 0.31679 0.0
H1722 H 0.05205 0.65415 0.32293 0.0
H1723 H 0.14409 0.69329 0.27819 0.0
H1724 H 0.13379 0.71448 0.28298 0.0
H1725 H 0.15213 0.7095 0.29638 0.0
H1726 H 0.11044 0.76271 0.30485 0.0
H1727 H 0.156 0.75263 0.33707 0.0
H1728 H 0.069 0.70067 0.29335 0.0
H1729 H 0.09266 0.71105 0.28133 0.0
H1730 H 0.08157 0.73097 0.28759 0.0
H1731 H 0.12341 0.68811 0.33273 0.0
H1732 H 0.15269 0.71451 0.3394 0.0
H1733 H 0.14812 0.69843 0.32148 0.0
C1734 C 0.77568 0.01485 0.3863 0.0
C1735 C 0.79413 0.01799 0.39699 0.0
C1736 C 0.75855 0.99155 0.37929 0.0
C1737 C 0.75983 0.97088 0.38313 0.0
C1738 C 0.77804 0.97384 0.39415 0.0
C1739 C 0.79501 0.99736 0.4009 0.0
C1740 C 0.7394 0.9891 0.36758 0.0
C1741 C 0.78 0.95224 0.39853 0.0
C1742 C 0.70501 0.90706 0.37256 0.0
C1743 C 0.71202 0.89929 0.35999 0.0
C1744 C 0.72031 0.9304 0.38019 0.0
C1745 C 0.74304 0.94634 0.37505 0.0
C1746 C 0.75007 0.9387 0.36229 0.0
C1747 C 0.73452 0.91527 0.35495 0.0
C1748 C 0.7123 0.9379 0.39381 0.0
C1749 C 0.77411 0.95522 0.35642 0.0
H1750 H 0.77465 0.03066 0.38338 0.0
H1751 H 0.80939 -0.00036 0.409 0.0
H1752 H 0.74198 0.98199 0.35684 0.0
H1753 H 0.72084 0.97572 0.37028 0.0
H1754 H 0.74023 0.00681 0.36631 0.0
H1755 H 0.79425 0.95744 0.40791 0.0
H1756 H 0.76217 0.93789 0.40164 0.0
H1757 H 0.78457 0.94404 0.38904 0.0
H1758 H 0.68769 0.89482 0.37656 0.0
H1759 H 0.74006 0.90953 0.3452 0.0
H1760 H 0.71184 0.95495 0.39248 0.0
H1761 H 0.72571 0.94187 0.40344 0.0
H1762 H 0.69392 0.92352 0.39624 0.0
H1763 H 0.77515 0.97267 0.35409 0.0
H1764 H 0.77662 0.94669 0.34619 0.0
H1765 H 0.78955 0.95982 0.36483 0.0
C1766 C 0.02479 0.80408 0.40455 0.0
C1767 C 0.00121 0.79386 0.39706 0.0
C1768 C 0.04539 0.81043 0.39687 0.0
C1769 C 0.04238 0.80591 0.38132 0.0
C1770 C 0.01872 0.79557 0.37368 0.0
C1771 C 0.99855 0.79002 0.38159 0.0
C1772 C 0.07037 0.82178 0.40544 0.0
C1773 C 0.01462 0.78999 0.35712 0.0
C1774 C 0.09737 0.83828 0.3595 0.0
C1775 C 0.10473 0.82082 0.3578 0.0
C1776 C 0.07727 0.83382 0.36727 0.0
C1777 C 0.06382 0.8111 0.37309 0.0
C1778 C 0.07088 0.79321 0.37106 0.0
C1779 C 0.09144 0.79844 0.36364 0.0
C1780 C 0.07073 0.8536 0.36953 0.0
C1781 C 0.05668 0.7685 0.3767 0.0
H1782 H 0.02721 0.80684 0.41647 0.0
H1783 H 0.98065 0.78273 0.37558 0.0
H1784 H 0.0778 0.80927 0.40412 0.0
H1785 H 0.08328 0.83909 0.40108 0.0
H1786 H 0.06988 0.82573 0.41738 0.0
H1787 H 0.99505 0.78172 0.35283 0.0
H1788 H 0.02548 0.80699 0.35188 0.0
H1789 H 0.02102 0.77717 0.35372 0.0
H1790 H 0.10778 0.8557 0.35512 0.0
H1791 H 0.09699 0.78482 0.36226 0.0
H1792 H 0.07159 0.85858 0.38149 0.0
H1793 H 0.05168 0.84679 0.36472 0.0
H1794 H 0.08318 0.87035 0.36448 0.0
H1795 H 0.05735 0.77079 0.38887 0.0
H1796 H 0.06395 0.75625 0.37367 0.0
H1797 H 0.03714 0.75943 0.3722 0.0
C1798 C 0.22217 0.21383 0.38236 0.0
C1799 C 0.24747 0.22338 0.38256 0.0
C1800 C 0.21091 0.2258 0.37603 0.0
C1801 C 0.2254 0.24804 0.37 0.0
C1802 C 0.25096 0.25765 0.37007 0.0
C1803 C 0.26168 0.24505 0.37625 0.0
C1804 C 0.18355 0.2148 0.37594 0.0
C1805 C 0.26703 0.28151 0.36393 0.0
C1806 C 0.19444 0.27085 0.3437 0.0
C1807 C 0.19189 0.28754 0.35318 0.0
C1808 C 0.20521 0.25772 0.34903 0.0
C1809 C 0.21393 0.26169 0.36413 0.0
C1810 C 0.21151 0.2786 0.37372 0.0
C1811 C 0.20036 0.29119 0.36815 0.0
C1812 C 0.20714 0.23952 0.33855 0.0
C1813 C 0.22085 0.28355 0.38986 0.0
H1814 H 0.21118 0.19689 0.3871 0.0
H1815 H 0.28128 0.25245 0.3765 0.0
H1816 H 0.17954 0.22735 0.38264 0.0
H1817 H 0.17505 0.21243 0.36456 0.0
H1818 H 0.17478 0.19676 0.3804 0.0
H1819 H 0.28649 0.2862 0.36454 0.0
H1820 H 0.26041 0.28054 0.35227 0.0
H1821 H 0.26604 0.29656 0.37014 0.0
H1822 H 0.18784 0.26788 0.33213 0.0
H1823 H 0.19865 0.30421 0.37551 0.0
H1824 H 0.19751 0.22109 0.34243 0.0
H1825 H 0.22661 0.24471 0.33827 0.0
H1826 H 0.19919 0.23836 0.32716 0.0
H1827 H 0.2115 0.26642 0.39522 0.0
H1828 H 0.21789 0.29757 0.39578 0.0
H1829 H 0.24073 0.28992 0.39112 0.0
C1830 C 0.66072 0.55812 0.71421 0.0
C1831 C 0.66031 0.54106 0.72342 0.0
C1832 C 0.68103 0.57176 0.70655 0.0
C1833 C 0.70149 0.56836 0.70818 0.0
C1834 C 0.70101 0.55085 0.71725 0.0
C1835 C 0.68041 0.53739 0.72473 0.0
C1836 C 0.68081 0.59018 0.69694 0.0
C1837 C 0.72257 0.54688 0.7194 0.0
C1838 C 0.7492 0.5933 0.68083 0.0
C1839 C 0.76685 0.61583 0.68845 0.0
C1840 C 0.72776 0.57757 0.68709 0.0
C1841 C 0.72411 0.58446 0.70134 0.0
C1842 C 0.74206 0.60701 0.70914 0.0
C1843 C 0.76309 0.62241 0.70259 0.0
C1844 C 0.70894 0.55369 0.67843 0.0
C1845 C 0.73904 0.61494 0.72443 0.0
H1846 H 0.64508 0.56075 0.71297 0.0
H1847 H 0.68029 0.52438 0.73193 0.0
H1848 H 0.69525 0.60892 0.70152 0.0
H1849 H 0.685 0.58689 0.68571 0.0
H1850 H 0.6629 0.5895 0.69608 0.0
H1851 H 0.71869 0.5315 0.72604 0.0
H1852 H 0.72772 0.54307 0.70859 0.0
H1853 H 0.73864 0.56377 0.72506 0.0
H1854 H 0.75197 0.5881 0.66991 0.0
H1855 H 0.77675 0.63964 0.70868 0.0
H1856 H 0.6912 0.5532 0.67666 0.0
H1857 H 0.70579 0.53816 0.68474 0.0
H1858 H 0.71459 0.5509 0.66755 0.0
H1859 H 0.72234 0.61652 0.72415 0.0
H1860 H 0.75498 0.63281 0.72913 0.0
H1861 H 0.73666 0.60099 0.73192 0.0
C1862 C 0.44589 0.10443 0.7237 0.0
C1863 C 0.4682 0.12386 0.73059 0.0
C1864 C 0.4283 0.10869 0.71657 0.0
C1865 C 0.43321 0.13301 0.71612 0.0
C1866 C 0.45565 0.15272 0.72303 0.0
C1867 C 0.47279 0.14791 0.73024 0.0
C1868 C 0.40453 0.08716 0.70942 0.0
C1869 C 0.46164 0.17892 0.72271 0.0
C1870 C 0.3985 0.14513 0.68556 0.0
C1871 C 0.38063 0.14693 0.69301 0.0
C1872 C 0.4158 0.14076 0.69297 0.0
C1873 C 0.41506 0.13783 0.70818 0.0
C1874 C 0.39698 0.13948 0.71575 0.0
C1875 C 0.38008 0.14414 0.7081 0.0
C1876 C 0.43496 0.13942 0.68453 0.0
C1877 C 0.39543 0.1362 0.73193 0.0
H1878 H 0.44226 0.08581 0.72367 0.0
H1879 H 0.48974 0.16305 0.73573 0.0
H1880 H 0.3888 0.08761 0.71385 0.0
H1881 H 0.40287 0.08829 0.69739 0.0
H1882 H 0.40312 0.06935 0.71122 0.0
H1883 H 0.47993 0.19218 0.72856 0.0
H1884 H 0.46126 0.18313 0.71114 0.0
H1885 H 0.44763 0.18161 0.72787 0.0
H1886 H 0.39919 0.14741 0.67393 0.0
H1887 H 0.36629 0.14542 0.71395 0.0
H1888 H 0.43344 0.12127 0.68505 0.0
H1889 H 0.45353 0.15342 0.68964 0.0
H1890 H 0.43321 0.14236 0.67279 0.0
H1891 H 0.39275 0.11794 0.73385 0.0
H1892 H 0.38019 0.13785 0.73619 0.0
H1893 H 0.41285 0.15009 0.73839 0.0
C1894 C 0.90453 0.3579 0.70075 0.0
C1895 C 0.92377 0.36854 0.71218 0.0
C1896 C 0.89425 0.33333 0.6951 0.0
C1897 C 0.90391 0.31921 0.70067 0.0
C1898 C 0.92415 0.33011 0.71163 0.0
C1899 C 0.93363 0.35454 0.71739 0.0
C1900 C 0.87245 0.32225 0.68355 0.0
C1901 C 0.93531 0.31575 0.71759 0.0
C1902 C 0.86217 0.25047 0.69868 0.0
C1903 C 0.86851 0.24237 0.68599 0.0
C1904 C 0.87342 0.27549 0.70349 0.0
C1905 C 0.89194 0.29269 0.69564 0.0
C1906 C 0.89872 0.28454 0.68295 0.0
C1907 C 0.88663 0.25944 0.67814 0.0
C1908 C 0.86527 0.28353 0.71687 0.0
C1909 C 0.91886 0.3023 0.67455 0.0
H1910 H 0.89717 0.36868 0.69636 0.0
H1911 H 0.94828 0.36237 0.72631 0.0
H1912 H 0.87625 0.31412 0.67368 0.0
H1913 H 0.85638 0.30724 0.68792 0.0
H1914 H 0.86751 0.33589 0.68012 0.0
H1915 H 0.95251 0.32755 0.72492 0.0
H1916 H 0.92211 0.30137 0.72392 0.0
H1917 H 0.93929 0.30639 0.70841 0.0
H1918 H 0.84803 0.23725 0.70469 0.0
H1919 H 0.8917 0.25312 0.66839 0.0
H1920 H 0.85893 0.29635 0.71394 0.0
H1921 H 0.8809 0.2935 0.72555 0.0
H1922 H 0.85021 0.26785 0.7215 0.0
H1923 H 0.91394 0.31543 0.67023 0.0
H1924 H 0.92244 0.2929 0.66518 0.0
H1925 H 0.93603 0.31313 0.68204 0.0
C1926 C 0.22236 0.97703 0.62071 0.0
C1927 C 0.19927 0.97141 0.6142 0.0
C1928 C 0.23953 0.00086 0.62692 0.0
C1929 C 0.23334 0.01945 0.6268 0.0
C1930 C 0.21013 0.01398 0.62022 0.0
C1931 C 0.19344 0.99006 0.61392 0.0
C1932 C 0.26416 0.00605 0.63377 0.0
C1933 C 0.20282 0.03331 0.62001 0.0
C1934 C 0.26706 0.07365 0.65603 0.0
C1935 C 0.28386 0.09175 0.64803 0.0
C1936 C 0.25044 0.0501 0.64922 0.0
C1937 C 0.2508 0.04442 0.63407 0.0
C1938 C 0.26781 0.06254 0.62593 0.0
C1939 C 0.28406 0.08608 0.63299 0.0
C1940 C 0.23237 0.03134 0.65822 0.0
C1941 C 0.2689 0.05702 0.60979 0.0
H1942 H 0.22692 0.9627 0.62119 0.0
H1943 H 0.17582 0.98602 0.60869 0.0
H1944 H 0.27905 0.02144 0.62887 0.0
H1945 H 0.26625 0.0117 0.64574 0.0
H1946 H 0.2666 0.98988 0.63227 0.0
H1947 H 0.18417 0.02613 0.61431 0.0
H1948 H 0.2033 0.0406 0.63144 0.0
H1949 H 0.21606 0.04888 0.6144 0.0
H1950 H 0.26666 0.07793 0.66763 0.0
H1951 H 0.29705 0.09996 0.62675 0.0
H1952 H 0.23497 0.01526 0.65808 0.0
H1953 H 0.21339 0.02472 0.65333 0.0
H1954 H 0.23431 0.03879 0.66986 0.0
H1955 H 0.27253 0.04165 0.60821 0.0
H1956 H 0.28334 0.07308 0.60507 0.0
H1957 H 0.25099 0.05116 0.6035 0.0
C1958 C 0.99333 0.19041 0.62156 0.0
C1959 C 0.00154 0.2085 0.61177 0.0
C1960 C 0.97272 0.18473 0.62905 0.0
C1961 C 0.96029 0.19791 0.62709 0.0
C1962 C 0.96862 0.21644 0.61745 0.0
C1963 C 0.9889 0.22129 0.60978 0.0
C1964 C 0.96417 0.16453 0.63902 0.0
C1965 C 0.95612 0.23118 0.61525 0.0
C1966 C 0.89431 0.16993 0.63606 0.0
C1967 C 0.89723 0.18103 0.65037 0.0
C1968 C 0.91466 0.17508 0.62842 0.0
C1969 C 0.93851 0.19219 0.63511 0.0
C1970 C 0.94155 0.20366 0.64949 0.0
C1971 C 0.9209 0.19773 0.65702 0.0
C1972 C 0.91063 0.16208 0.61322 0.0
C1973 C 0.96661 0.22248 0.65685 0.0
H1974 H 0.00313 0.18072 0.62351 0.0
H1975 H 0.99466 0.23499 0.6021 0.0
H1976 H 0.96513 0.17202 0.65049 0.0
H1977 H 0.94474 0.15053 0.63555 0.0
H1978 H 0.9753 0.15542 0.63895 0.0
H1979 H 0.96552 0.24571 0.6079 0.0
H1980 H 0.9369 0.21898 0.61041 0.0
H1981 H 0.95555 0.23987 0.62602 0.0
H1982 H 0.87607 0.15697 0.63086 0.0
H1983 H 0.92326 0.2066 0.668 0.0
H1984 H 0.92104 0.15225 0.61293 0.0
H1985 H 0.91757 0.17558 0.60505 0.0
H1986 H 0.89098 0.1487 0.60978 0.0
H1987 H 0.97833 0.21414 0.65806 0.0
H1988 H 0.96581 0.23021 0.6679 0.0
H1989 H 0.97562 0.23767 0.64989 0.0
C1990 C 0.74898 0.76554 0.63463 0.0
C1991 C 0.763 0.78337 0.62554 0.0
C1992 C 0.75819 0.75217 0.64148 0.0
C1993 C 0.78188 0.75661 0.63906 0.0
C1994 C 0.79621 0.77478 0.63001 0.0
C1995 C 0.78661 0.788 0.62339 0.0
C1996 C 0.74246 0.73304 0.65115 0.0
C1997 C 0.82144 0.77982 0.62704 0.0
C1998 C 0.81359 0.73384 0.66488 0.0
C1999 C 0.80817 0.71174 0.65697 0.0
C2000 C 0.80506 0.74866 0.65923 0.0
C2001 C 0.7911 0.74128 0.64529 0.0
C2002 C 0.78585 0.71915 0.6372 0.0
C2003 C 0.79433 0.7046 0.64317 0.0
C2004 C 0.81084 0.77209 0.66818 0.0
C2005 C 0.77128 0.71083 0.62221 0.0
H2006 H 0.73085 0.76218 0.63646 0.0
H2007 H 0.79739 0.80162 0.61625 0.0
H2008 H 0.73813 0.71467 0.64628 0.0
H2009 H 0.75256 0.7365 0.66218 0.0
H2010 H 0.725 0.73273 0.65252 0.0
H2011 H 0.83061 0.79527 0.62026 0.0
H2012 H 0.83313 0.78414 0.63757 0.0
H2013 H 0.8201 0.76325 0.6212 0.0
H2014 H 0.82423 0.73941 0.67556 0.0
H2015 H 0.79028 0.68767 0.63691 0.0
H2016 H 0.7936 0.77164 0.67043 0.0
H2017 H 0.82112 0.78791 0.66186 0.0
H2018 H 0.82184 0.77517 0.67884 0.0
H2019 H 0.75279 0.70834 0.62308 0.0
H2020 H 0.76918 0.69334 0.61725 0.0
H2021 H 0.78039 0.72501 0.61464 0.0
C2022 C 0.00299 0.78902 0.63149 0.0
C2023 C 0.00808 0.776 0.62068 0.0
C2024 C 0.98195 0.77721 0.63887 0.0
C2025 C 0.96594 0.75169 0.63555 0.0
C2026 C 0.97131 0.73837 0.62484 0.0
C2027 C 0.9922 0.75076 0.6174 0.0
C2028 C 0.97656 0.79213 0.64996 0.0
C2029 C 0.95492 0.71106 0.6212 0.0
C2030 C 0.9215 0.71691 0.66303 0.0
C2031 C 0.89937 0.71321 0.65615 0.0
C2032 C 0.94338 0.72948 0.65648 0.0
C2033 C 0.94314 0.73902 0.64291 0.0
C2034 C 0.92096 0.73603 0.63619 0.0
C2035 C 0.8993 0.72293 0.64281 0.0
C2036 C 0.96659 0.73189 0.66382 0.0
C2037 C 0.92002 0.74636 0.62189 0.0
H2038 H 0.01519 0.80861 0.63391 0.0
H2039 H 0.99628 0.74071 0.6091 0.0
H2040 H 0.9588 0.7907 0.64637 0.0
H2041 H 0.97485 0.78483 0.6608 0.0
H2042 H 0.99102 0.81177 0.65139 0.0
H2043 H 0.96238 0.70323 0.6132 0.0
H2044 H 0.95247 0.70179 0.63138 0.0
H2045 H 0.93653 0.70686 0.61649 0.0
H2046 H 0.92156 0.7092 0.67326 0.0
H2047 H 0.88223 0.72022 0.63749 0.0
H2048 H 0.98107 0.75145 0.66586 0.0
H2049 H 0.97345 0.72261 0.65643 0.0
H2050 H 0.96378 0.72381 0.67446 0.0
H2051 H 0.93355 0.76626 0.62293 0.0
H2052 H 0.90158 0.7436 0.61854 0.0
H2053 H 0.92501 0.73748 0.61298 0.0
C2054 C 0.19679 0.18572 0.60613 0.0
C2055 C 0.19642 0.20707 0.61079 0.0
C2056 C 0.2136 0.1802 0.61305 0.0
C2057 C 0.23042 0.19634 0.62497 0.0
C2058 C 0.23025 0.21798 0.62967 0.0
C2059 C 0.21332 0.2231 0.62251 0.0
C2060 C 0.2132 0.15694 0.60771 0.0
C2061 C 0.24789 0.23567 0.64233 0.0
C2062 C 0.2576 0.17094 0.6521 0.0
C2063 C 0.281 0.17916 0.64756 0.0
C2064 C 0.24101 0.17643 0.64486 0.0
C2065 C 0.24788 0.19037 0.63271 0.0
C2066 C 0.2714 0.19864 0.62802 0.0
C2067 C 0.2877 0.193 0.63551 0.0
C2068 C 0.21614 0.16736 0.65025 0.0
C2069 C 0.27936 0.21343 0.61506 0.0
H2070 H 0.18362 0.17306 0.59722 0.0
H2071 H 0.21345 0.23983 0.62604 0.0
H2072 H 0.23152 0.16126 0.60465 0.0
H2073 H 0.20891 0.14488 0.61668 0.0
H2074 H 0.19946 0.14668 0.59804 0.0
H2075 H 0.24552 0.25177 0.64457 0.0
H2076 H 0.24521 0.22624 0.65245 0.0
H2077 H 0.26702 0.24224 0.63992 0.0
H2078 H 0.25222 0.16029 0.6614 0.0
H2079 H 0.30568 0.19937 0.63187 0.0
H2080 H 0.20155 0.15558 0.64127 0.0
H2081 H 0.21363 0.18309 0.65346 0.0
H2082 H 0.21361 0.15673 0.65985 0.0
H2083 H 0.26655 0.20295 0.60508 0.0
H2084 H 0.29819 0.21833 0.61271 0.0
H2085 H 0.27872 0.23053 0.6172 0.0
C2086 C 0.74066 0.9752 0.63795 0.0
C2087 C 0.75219 0.97081 0.62649 0.0
C2088 C 0.74982 0.99893 0.64492 0.0
C2089 C 0.7708 0.01869 0.64017 0.0
C2090 C 0.78262 0.01435 0.62869 0.0
C2091 C 0.77328 0.99046 0.62208 0.0
C2092 C 0.73692 0.00292 0.65723 0.0
C2093 C 0.805 0.035 0.62329 0.0
C2094 C 0.78208 0.08329 0.64651 0.0
C2095 C 0.80118 0.09362 0.65798 0.0
C2096 C 0.77161 0.05871 0.64084 0.0
C2097 C 0.78025 0.04408 0.64692 0.0
C2098 C 0.79895 0.05416 0.65882 0.0
C2099 C 0.80934 0.07891 0.66415 0.0
C2100 C 0.75189 0.04864 0.62801 0.0
C2101 C 0.80837 0.03897 0.66571 0.0
H2102 H 0.72425 0.96015 0.64134 0.0
H2103 H 0.78264 0.98715 0.61346 0.0
H2104 H 0.75005 0.0124 0.66723 0.0
H2105 H 0.72967 0.01489 0.65402 0.0
H2106 H 0.7215 0.98547 0.66006 0.0
H2107 H 0.81196 0.02851 0.61421 0.0
H2108 H 0.80061 0.0487 0.6193 0.0
H2109 H 0.81985 0.0445 0.63246 0.0
H2110 H 0.77573 0.09459 0.64167 0.0
H2111 H 0.82395 0.08675 0.67311 0.0
H2112 H 0.73543 0.03192 0.63065 0.0
H2113 H 0.75852 0.04333 0.61827 0.0
H2114 H 0.74644 0.06212 0.625 0.0
H2115 H 0.79291 0.02195 0.66893 0.0
H2116 H 0.82167 0.04905 0.67558 0.0
H2117 H 0.81748 0.03344 0.65756 0.0
C2118 C 0.44282 0.35006 0.71566 0.0
C2119 C 0.46077 0.35308 0.72669 0.0
C2120 C 0.42553 0.32673 0.70875 0.0
C2121 C 0.42616 0.30595 0.71303 0.0
C2122 C 0.44401 0.30883 0.72429 0.0
C2123 C 0.46114 0.33236 0.73093 0.0
C2124 C 0.4068 0.32434 0.69675 0.0
C2125 C 0.44527 0.2871 0.72914 0.0
C2126 C 0.37029 0.24257 0.70349 0.0
C2127 C 0.377 0.23365 0.69126 0.0
C2128 C 0.38601 0.26619 0.71063 0.0
C2129 C 0.40886 0.28124 0.70534 0.0
C2130 C 0.41556 0.27247 0.69288 0.0
C2131 C 0.3996 0.24877 0.68603 0.0
C2132 C 0.37835 0.27491 0.72395 0.0
C2133 C 0.43971 0.28805 0.68685 0.0
H2134 H 0.4422 0.36594 0.71246 0.0
H2135 H 0.47518 0.33455 0.73928 0.0
H2136 H 0.40908 0.31628 0.68626 0.0
H2137 H 0.38805 0.31175 0.69955 0.0
H2138 H 0.40839 0.34224 0.69497 0.0
H2139 H 0.45953 0.29235 0.73852 0.0
H2140 H 0.42732 0.27337 0.73245 0.0
H2141 H 0.44937 0.2781 0.71983 0.0
H2142 H 0.35289 0.23099 0.70762 0.0
H2143 H 0.40489 0.24213 0.67652 0.0
H2144 H 0.37857 0.29217 0.72217 0.0
H2145 H 0.39158 0.27893 0.73369 0.0
H2146 H 0.35975 0.26118 0.72648 0.0
H2147 H 0.44133 0.30558 0.68413 0.0
H2148 H 0.44185 0.27875 0.67682 0.0
H2149 H 0.45506 0.29259 0.69532 0.0
C2150 C 0.66488 0.10968 0.71833 0.0
C2151 C 0.66508 0.12616 0.72941 0.0
C2152 C 0.68565 0.11564 0.71092 0.0
C2153 C 0.7072 0.13867 0.71465 0.0
C2154 C 0.70749 0.15545 0.72576 0.0
C2155 C 0.68647 0.149 0.73301 0.0
C2156 C 0.68462 0.09716 0.69922 0.0
C2157 C 0.73007 0.1802 0.73004 0.0
C2158 C 0.76764 0.14412 0.70607 0.0
C2159 C 0.77183 0.15543 0.69298 0.0
C2160 C 0.74684 0.13877 0.71326 0.0
C2161 C 0.72967 0.14484 0.70726 0.0
C2162 C 0.73384 0.15648 0.69415 0.0
C2163 C 0.75487 0.16165 0.68717 0.0
C2164 C 0.74314 0.12641 0.72723 0.0
C2165 C 0.71598 0.16329 0.68743 0.0
H2166 H 0.64856 0.0919 0.71559 0.0
H2167 H 0.68668 0.16199 0.74139 0.0
H2168 H 0.68926 0.10534 0.68868 0.0
H2169 H 0.69841 0.09191 0.70248 0.0
H2170 H 0.66629 0.08033 0.69733 0.0
H2171 H 0.72718 0.19136 0.73868 0.0
H2172 H 0.74554 0.17789 0.73419 0.0
H2173 H 0.73557 0.19046 0.72026 0.0
H2174 H 0.78061 0.1393 0.71074 0.0
H2175 H 0.7579 0.17039 0.67709 0.0
H2176 H 0.72583 0.10852 0.72568 0.0
H2177 H 0.74149 0.13774 0.73634 0.0
H2178 H 0.75842 0.12327 0.7306 0.0
H2179 H 0.69779 0.1466 0.68453 0.0
H2180 H 0.72209 0.17268 0.67737 0.0
H2181 H 0.71356 0.17549 0.69554 0.0
C2182 C 0.88905 0.5469 0.71681 0.0
C2183 C 0.91444 0.55683 0.71734 0.0
C2184 C 0.87772 0.55881 0.71049 0.0
C2185 C 0.89224 0.58138 0.7048 0.0
C2186 C 0.91789 0.59138 0.70519 0.0
C2187 C 0.92868 0.57884 0.71136 0.0
C2188 C 0.85027 0.54739 0.71004 0.0
C2189 C 0.93398 0.6156 0.69943 0.0
C2190 C 0.86209 0.60496 0.67848 0.0
C2191 C 0.85916 0.62129 0.68804 0.0
C2192 C 0.87261 0.5916 0.6838 0.0
C2193 C 0.88069 0.59499 0.69897 0.0
C2194 C 0.87777 0.61145 0.70866 0.0
C2195 C 0.86688 0.62427 0.70309 0.0
C2196 C 0.87508 0.57388 0.67321 0.0
C2197 C 0.88642 0.61577 0.72489 0.0
H2198 H 0.87804 0.52969 0.72129 0.0
H2199 H 0.94835 0.58653 0.71185 0.0
H2200 H 0.84579 0.55951 0.71679 0.0
H2201 H 0.84215 0.54536 0.69859 0.0
H2202 H 0.84152 0.52914 0.71422 0.0
H2203 H 0.95353 0.62059 0.70027 0.0
H2204 H 0.92775 0.61496 0.68774 0.0
H2205 H 0.93252 0.63029 0.70573 0.0
H2206 H 0.85607 0.60251 0.66685 0.0
H2207 H 0.86487 0.63702 0.71052 0.0
H2208 H 0.86557 0.55528 0.67688 0.0
H2209 H 0.89466 0.5794 0.67308 0.0
H2210 H 0.86734 0.57294 0.6618 0.0
H2211 H 0.87705 0.59833 0.72994 0.0
H2212 H 0.88292 0.62933 0.73091 0.0
H2213 H 0.90636 0.62245 0.72642 0.0
C2214 C 0.45489 0.96077 0.16718 0.0
C2215 C 0.46895 0.95167 0.17373 0.0
C2216 C 0.45991 0.97069 0.15364 0.0
C2217 C 0.4793 0.97133 0.14634 0.0
C2218 C 0.49357 0.96223 0.15288 0.0
C2219 C 0.48834 0.95268 0.16649 0.0
C2220 C 0.44437 0.98037 0.14709 0.0
C2221 C 0.51434 0.96246 0.14544 0.0
C2222 C 0.4785 0.97523 0.10498 0.0
C2223 C 0.49581 -4e-05 0.10421 0.0
C2224 C 0.47287 0.96573 0.11859 0.0
C2225 C 0.48459 0.98134 0.13182 0.0
C2226 C 0.50176 0.00638 0.13116 0.0
C2227 C 0.50725 0.01535 0.11739 0.0
C2228 C 0.45454 0.93889 0.11881 0.0
C2229 C 0.51454 0.02367 0.145 0.0
H2230 H 0.43967 0.95981 0.17253 0.0
H2231 H 0.49964 0.94617 0.17154 0.0
H2232 H 0.45615 -0.00023 0.14511 0.0
H2233 H 0.43486 0.96988 0.13628 0.0
H2234 H 0.43042 0.97918 0.15433 0.0
H2235 H 0.52356 0.9545 0.1519 0.0
H2236 H 0.50734 0.95191 0.13439 0.0
H2237 H 0.52814 0.9815 0.1438 0.0
H2238 H 0.46919 0.96325 0.09491 0.0
H2239 H 0.52088 0.03438 0.11697 0.0
H2240 H 0.4392 0.93671 0.12504 0.0
H2241 H 0.46335 0.92988 0.12454 0.0
H2242 H 0.44693 0.92922 0.10756 0.0
H2243 H 0.50083 0.02334 0.15213 0.0
H2244 H 0.52669 0.04281 0.14262 0.0
H2245 H 0.52572 0.01766 0.15135 0.0
C2246 C 0.97936 0.47573 0.17424 0.0
C2247 C 0.00403 0.48602 0.17964 0.0
C2248 C 0.97234 0.47264 0.15907 0.0
C2249 C 0.99044 0.47979 0.14913 0.0
C2250 C 0.01527 0.48936 0.15452 0.0
C2251 C 0.02177 0.49247 0.16973 0.0
C2252 C 0.94571 0.46253 0.1537 0.0
C2253 C 0.03504 0.49687 0.14424 0.0
C2254 C 0.97197 0.45623 0.1086 0.0
C2255 C 0.97326 0.47659 0.10257 0.0
C2256 C 0.97721 0.45686 0.12378 0.0
C2257 C 0.98367 0.47831 0.13313 0.0
C2258 C 0.98457 0.49877 0.12712 0.0
C2259 C 0.97947 0.4977 0.11188 0.0
C2260 C 0.97635 0.43482 0.12978 0.0
C2261 C 0.99119 0.52188 0.13677 0.0
H2262 H 0.96567 0.47092 0.18193 0.0
H2263 H 0.04083 0.50018 0.17391 0.0
H2264 H 0.94352 0.47666 0.14836 0.0
H2265 H 0.93932 0.44662 0.1453 0.0
H2266 H 0.93378 0.45672 0.16279 0.0
H2267 H 0.05324 0.50264 0.15015 0.0
H2268 H 0.03032 0.48148 0.13574 0.0
H2269 H 0.03646 0.51229 0.13843 0.0
H2270 H 0.96742 0.43998 0.10138 0.0
H2271 H 0.98022 0.51336 0.10724 0.0
H2272 H 0.96378 0.42864 0.13851 0.0
H2273 H 0.9948 0.43982 0.1349 0.0
H2274 H 0.97021 0.41928 0.1211 0.0
H2275 H 0.97877 0.51758 0.14557 0.0
H2276 H 0.99008 0.53576 0.13044 0.0
H2277 H 0.0101 0.53002 0.14223 0.0
C2278 C 0.48178 0.48135 0.17279 0.0
C2279 C 0.46495 0.48893 0.17584 0.0
C2280 C 0.48848 0.48058 0.15851 0.0
C2281 C 0.47787 0.48723 0.14694 0.0
C2282 C 0.4602 0.49401 0.14981 0.0
C2283 C 0.45407 0.49492 0.16423 0.0
C2284 C 0.50742 0.47329 0.15588 0.0
C2285 C 0.4483 0.501 0.13773 0.0
C2286 C 0.5132 0.51071 0.11391 0.0
C2287 C 0.50172 0.48985 0.10364 0.0
C2288 C 0.50568 0.51006 0.12807 0.0
C2289 C 0.486 0.48808 0.13197 0.0
C2290 C 0.47421 0.46701 0.1216 0.0
C2291 C 0.48232 0.46811 0.10758 0.0
C2292 C 0.51889 0.53283 0.13888 0.0
C2293 C 0.45295 0.44337 0.12529 0.0
H2294 H 0.48996 0.47627 0.18162 0.0
H2295 H 0.44131 0.50112 0.16648 0.0
H2296 H 0.50002 0.45776 0.1471 0.0
H2297 H 0.52373 0.4888 0.15204 0.0
H2298 H 0.51337 0.46792 0.16596 0.0
H2299 H 0.43367 0.50414 0.14155 0.0
H2300 H 0.46231 0.51797 0.13356 0.0
H2301 H 0.44027 0.48643 0.12833 0.0
H2302 H 0.52833 0.52747 0.11091 0.0
H2303 H 0.47322 0.45204 0.09958 0.0
H2304 H 0.52666 0.52898 0.14887 0.0
H2305 H 0.50582 0.53848 0.14243 0.0
H2306 H 0.53396 0.54837 0.13415 0.0
H2307 H 0.45869 0.43691 0.13492 0.0
H2308 H 0.44566 0.42869 0.11595 0.0
H2309 H 0.43794 0.44646 0.12839 0.0
C2310 C 0.98073 0.49573 0.83694 0.0
C2311 C 0.99917 0.50249 0.82745 0.0
C2312 C 0.98607 0.4973 0.85219 0.0
C2313 C 0.01038 0.50554 0.8581 0.0
C2314 C 0.02906 0.51214 0.84861 0.0
C2315 C 0.02326 0.51065 0.8334 0.0
C2316 C 0.96566 0.49017 0.86197 0.0
C2317 C 0.05519 0.52087 0.85454 0.0
C2318 C 0.02796 0.53051 0.89845 0.0
C2319 C 0.02566 0.51017 0.905 0.0
C2320 C 0.02319 0.52931 0.88316 0.0
C2321 C 0.01622 0.50731 0.87425 0.0
C2322 C 0.0142 0.48681 0.8808 0.0
C2323 C 0.01882 0.48845 0.89613 0.0
C2324 C 0.02523 0.55144 0.87658 0.0
C2325 C 0.00705 0.46313 0.87162 0.0
H2326 H 0.96199 0.48895 0.83242 0.0
H2327 H 0.03766 0.51616 0.82617 0.0
H2328 H 0.9637 0.47486 0.86812 0.0
H2329 H 0.97014 0.50579 0.87022 0.0
H2330 H 0.94779 0.48446 0.85564 0.0
H2331 H 0.06745 0.52478 0.84566 0.0
H2332 H 0.06231 0.53774 0.86225 0.0
H2333 H 0.05594 0.50683 0.86086 0.0
H2334 H 0.03301 0.54724 0.90532 0.0
H2335 H 0.01731 0.47279 0.90118 0.0
H2336 H 0.00723 0.54682 0.87091 0.0
H2337 H 0.03843 0.557 0.86819 0.0
H2338 H 0.03126 0.56728 0.88502 0.0
H2339 H 0.98851 0.45556 0.86571 0.0
H2340 H 0.007 0.44914 0.87838 0.0
H2341 H 0.01992 0.46654 0.86316 0.0
C2342 C 0.55285 0.52559 0.84366 0.0
C2343 C 0.53505 0.50617 0.83374 0.0
C2344 C 0.54769 0.52979 0.85793 0.0
C2345 C 0.52409 0.51436 0.86226 0.0
C2346 C 0.50581 0.49536 0.85205 0.0
C2347 C 0.51155 0.49143 0.83796 0.0
C2348 C 0.5677 0.55011 0.86855 0.0
C2349 C 0.48034 0.4787 0.85615 0.0
C2350 C 0.51541 0.50435 0.90242 0.0
C2351 C 0.5055 0.5191 0.90647 0.0
C2352 C 0.52222 0.50327 0.88821 0.0
C2353 C 0.51879 0.51702 0.87768 0.0
C2354 C 0.50906 0.53214 0.8817 0.0
C2355 C 0.50263 0.53309 0.89606 0.0
C2356 C 0.5326 0.48694 0.88437 0.0
C2357 C 0.50502 0.54697 0.87075 0.0
H2358 H 0.57106 0.53692 0.84043 0.0
H2359 H 0.49767 0.47662 0.83022 0.0
H2360 H 0.56124 0.56212 0.87337 0.0
H2361 H 0.5725 0.54218 0.87776 0.0
H2362 H 0.5845 0.56148 0.86319 0.0
H2363 H 0.46782 0.46583 0.84665 0.0
H2364 H 0.4812 0.46787 0.865 0.0
H2365 H 0.47243 0.48969 0.86051 0.0
H2366 H 0.51736 0.49317 0.91027 0.0
H2367 H 0.49537 0.54484 0.89914 0.0
H2368 H 0.55032 0.49753 0.87974 0.0
H2369 H 0.51992 0.472 0.87579 0.0
H2370 H 0.53553 0.47864 0.89406 0.0
H2371 H 0.52235 0.55898 0.86609 0.0
H2372 H 0.49814 0.55853 0.87575 0.0
H2373 H 0.49157 0.53454 0.86145 0.0
C2374 C 0.51588 0.05044 0.84355 0.0
C2375 C 0.53501 0.05058 0.83649 0.0
C2376 C 0.51024 0.04119 0.85722 0.0
C2377 C 0.52389 0.03158 0.86396 0.0
C2378 C 0.54336 0.03182 0.85694 0.0
C2379 C 0.54879 0.04147 0.84333 0.0
C2380 C 0.48958 0.0416 0.86441 0.0
C2381 C 0.55816 0.0215 0.86367 0.0
C2382 C 0.52156 0.02547 0.90506 0.0
C2383 C 0.50353 0.0008 0.90521 0.0
C2384 C 0.52852 0.03568 0.89174 0.0
C2385 C 0.5174 0.02084 0.8782 0.0
C2386 C 0.49951 0.99585 0.87826 0.0
C2387 C 0.49271 0.98618 0.89172 0.0
C2388 C 0.54758 0.06243 0.89217 0.0
C2389 C 0.48731 0.97935 0.86407 0.0
H2390 H 0.50539 0.05777 0.83841 0.0
H2391 H 0.56347 0.04136 0.83786 0.0
H2392 H 0.47512 0.02265 0.86571 0.0
H2393 H 0.49637 0.05169 0.87559 0.0
H2394 H 0.48121 0.05035 0.85794 0.0
H2395 H 0.57297 0.02344 0.85696 0.0
H2396 H 0.5665 0.03088 0.87488 0.0
H2397 H 0.546 0.0018 0.86482 0.0
H2398 H 0.53041 0.03684 0.91538 0.0
H2399 H 0.47855 0.96721 0.89167 0.0
H2400 H 0.53961 0.07221 0.88648 0.0
H2401 H 0.56315 0.06449 0.88623 0.0
H2402 H 0.55472 0.07141 0.9036 0.0
H2403 H 0.47686 0.98608 0.85764 0.0
H2404 H 0.47458 0.96009 0.86599 0.0
H2405 H 0.50135 0.97973 0.85722 0.0
C2406 C 0.12423 0.27147 0.49302 0.0
C2407 C 0.13264 0.28679 0.50633 0.0
C2408 C 0.12977 0.28116 0.47945 0.0
C2409 C 0.14424 0.3068 0.47917 0.0
C2410 C 0.15256 0.32239 0.49257 0.0
C2411 C 0.14658 0.31221 0.50597 0.0
C2412 C 0.12032 0.26391 0.46543 0.0
C2413 C 0.16819 0.34981 0.49275 0.0
C2414 C 0.17853 0.32906 0.44552 0.0
C2415 C 0.16371 0.33582 0.43743 0.0
C2416 C 0.17257 0.31991 0.45919 0.0
C2417 C 0.15115 0.31723 0.46488 0.0
C2418 C 0.13616 0.32412 0.4568 0.0
C2419 C 0.14268 0.33343 0.44321 0.0
C2420 C 0.18917 0.313 0.46752 0.0
C2421 C 0.11304 0.32131 0.46241 0.0
H2422 H 0.11319 0.25183 0.49321 0.0
H2423 H 0.15334 0.32413 0.51623 0.0
H2424 H 0.1095 0.26889 0.45788 0.0
H2425 H 0.13592 0.26556 0.45967 0.0
H2426 H 0.10863 0.24451 0.46749 0.0
H2427 H 0.17271 0.35944 0.50405 0.0
H2428 H 0.18552 0.35444 0.488 0.0
H2429 H 0.15859 0.35684 0.48581 0.0
H2430 H 0.19494 0.33112 0.44119 0.0
H2431 H 0.13101 0.33836 0.43693 0.0
H2432 H 0.17892 0.29324 0.46903 0.0
H2433 H 0.19551 0.32331 0.47864 0.0
H2434 H 0.20545 0.31675 0.46175 0.0
H2435 H 0.10027 0.30178 0.46369 0.0
H2436 H 0.10357 0.32782 0.45491 0.0
H2437 H 0.11737 0.33172 0.47343 0.0
C2438 C 0.66623 0.80307 0.50516 0.0
C2439 C 0.67035 0.82439 0.51349 0.0
C2440 C 0.65941 0.79922 0.48992 0.0
C2441 C 0.65686 0.81721 0.48286 0.0
C2442 C 0.66039 0.83844 0.49126 0.0
C2443 C 0.66693 0.84169 0.50647 0.0
C2444 C 0.65556 0.77623 0.48131 0.0
C2445 C 0.65788 0.85806 0.48413 0.0
C2446 C 0.66582 0.82206 0.44235 0.0
C2447 C 0.64163 0.81142 0.43583 0.0
C2448 C 0.67099 0.82379 0.45764 0.0
C2449 C 0.6515 0.8144 0.46661 0.0
C2450 C 0.62702 0.80324 0.4601 0.0
C2451 C 0.62238 0.802 0.44479 0.0
C2452 C 0.69735 0.83594 0.4642 0.0
C2453 C 0.60577 0.79292 0.46932 0.0
H2454 H 0.66902 0.78971 0.51048 0.0
H2455 H 0.66959 0.85797 0.51288 0.0
H2456 H 0.63743 0.76676 0.47469 0.0
H2457 H 0.66964 0.78106 0.47351 0.0
H2458 H 0.65665 0.76332 0.48857 0.0
H2459 H 0.66055 0.87315 0.49229 0.0
H2460 H 0.67159 0.8659 0.47611 0.0
H2461 H 0.63951 0.85006 0.47793 0.0
H2462 H 0.68076 0.82895 0.43549 0.0
H2463 H 0.60366 0.794 0.43987 0.0
H2464 H 0.70024 0.82314 0.47062 0.0
H2465 H 0.70177 0.85214 0.47193 0.0
H2466 H 0.71036 0.84195 0.45567 0.0
H2467 H 0.60671 0.77955 0.47621 0.0
H2468 H 0.58779 0.78371 0.46249 0.0
H2469 H 0.60678 0.80783 0.47692 0.0
C2470 C 0.11876 0.79921 0.49955 0.0
C2471 C 0.13179 0.82152 0.50852 0.0
C2472 C 0.12394 0.7972 0.48498 0.0
C2473 C 0.1423 0.8181 0.47924 0.0
C2474 C 0.15509 0.84077 0.48817 0.0
C2475 C 0.14977 0.84216 0.50272 0.0
C2476 C 0.11013 0.77267 0.47581 0.0
C2477 C 0.17452 0.86356 0.4824 0.0
C2478 C 0.17529 0.81219 0.44733 0.0
C2479 C 0.1637 0.81697 0.43549 0.0
C2480 C 0.16791 0.81166 0.46152 0.0
C2481 C 0.14868 0.81632 0.464 0.0
C2482 C 0.13661 0.82074 0.45209 0.0
C2483 C 0.14417 0.82087 0.43797 0.0
C2484 C 0.18113 0.80673 0.47394 0.0
C2485 C 0.11613 0.82595 0.45432 0.0
H2486 H 0.10492 0.78323 0.50406 0.0
H2487 H 0.15958 0.85952 0.50958 0.0
H2488 H 0.10102 0.77418 0.46552 0.0
H2489 H 0.12312 0.7667 0.47257 0.0
H2490 H 0.09605 0.75834 0.48179 0.0
H2491 H 0.18218 0.87993 0.49063 0.0
H2492 H 0.18971 0.86081 0.47928 0.0
H2493 H 0.16676 0.86726 0.47234 0.0
H2494 H 0.19057 0.80944 0.44558 0.0
H2495 H 0.13477 0.82409 0.42885 0.0
H2496 H 0.16778 0.79171 0.47985 0.0
H2497 H 0.19115 0.82326 0.48201 0.0
H2498 H 0.19445 0.80167 0.46999 0.0
H2499 H 0.10154 0.81103 0.45968 0.0
H2500 H 0.10789 0.82791 0.4438 0.0
H2501 H 0.12321 0.8431 0.46176 0.0
C2502 C 0.69403 0.8533 0.16705 0.0
C2503 C 0.67111 0.84893 0.16106 0.0
C2504 C 0.69917 0.854 0.18226 0.0
C2505 C 0.68102 0.85044 0.1917 0.0
C2506 C 0.65799 0.84638 0.18577 0.0
C2507 C 0.65327 0.84554 0.17053 0.0
C2508 C 0.72391 0.8583 0.18821 0.0
C2509 C 0.6382 0.84258 0.19551 0.0
C2510 C 0.68367 0.82853 0.22903 0.0
C2511 C 0.69383 0.85039 0.2384 0.0
C2512 C 0.67973 0.82834 0.21377 0.0
C2513 C 0.68589 0.85053 0.20779 0.0
C2514 C 0.69618 0.87267 0.21719 0.0
C2515 C 0.70013 0.87234 0.2324 0.0
C2516 C 0.66891 0.80441 0.20406 0.0
C2517 C 0.7027 0.89662 0.21121 0.0
H2518 H 0.708 0.85623 0.15983 0.0
H2519 H 0.63535 0.84169 0.16599 0.0
H2520 H 0.73308 0.87473 0.1964 0.0
H2521 H 0.72162 0.84251 0.19399 0.0
H2522 H 0.73607 0.86088 0.17941 0.0
H2523 H 0.62161 0.84054 0.18921 0.0
H2524 H 0.63282 0.82594 0.20119 0.0
H2525 H 0.6452 0.85828 0.20415 0.0
H2526 H 0.67906 0.81158 0.23365 0.0
H2527 H 0.70775 0.88922 0.23965 0.0
H2528 H 0.68135 0.80587 0.19565 0.0
H2529 H 0.65125 0.80021 0.19811 0.0
H2530 H 0.66566 0.78888 0.21043 0.0
H2531 H 0.71584 0.90041 0.20289 0.0
H2532 H 0.71092 0.91226 0.21998 0.0
H2533 H 0.68605 0.89542 0.2056 0.0
C2534 C 0.18766 0.82711 0.17522 0.0
C2535 C 0.20936 0.84319 0.16944 0.0
C2536 C 0.18298 0.83239 0.18935 0.0
C2537 C 0.2004 0.85436 0.19796 0.0
C2538 C 0.22209 0.87101 0.19207 0.0
C2539 C 0.22631 0.86524 0.17785 0.0
C2540 C 0.15953 0.81421 0.19517 0.0
C2541 C 0.24106 0.8946 0.20093 0.0
C2542 C 0.1757 0.87262 0.23023 0.0
C2543 C 0.18214 0.86259 0.24173 0.0
C2544 C 0.1825 0.8711 0.21604 0.0
C2545 C 0.19604 0.85926 0.21328 0.0
C2546 C 0.20351 0.85005 0.22499 0.0
C2547 C 0.19645 0.85179 0.23905 0.0
C2548 C 0.17432 0.88128 0.20386 0.0
C2549 C 0.21795 0.83727 0.22252 0.0
H2550 H 0.17427 0.81027 0.16866 0.0
H2551 H 0.24316 0.87768 0.17345 0.0
H2552 H 0.16385 0.80734 0.20512 0.0
H2553 H 0.14914 0.82325 0.19849 0.0
H2554 H 0.14759 0.7983 0.18692 0.0
H2555 H 0.25628 0.9062 0.19448 0.0
H2556 H 0.23249 0.90521 0.20485 0.0
H2557 H 0.24881 0.8905 0.21082 0.0
H2558 H 0.16498 0.88132 0.23227 0.0
H2559 H 0.20127 0.84372 0.24781 0.0
H2560 H 0.16065 0.86603 0.19577 0.0
H2561 H 0.19004 0.89324 0.19789 0.0
H2562 H 0.16593 0.89194 0.20807 0.0
H2563 H 0.20638 0.81977 0.21542 0.0
H2564 H 0.2243 0.83322 0.233 0.0
H2565 H 0.23414 0.84865 0.21671 0.0
C2566 C 0.18065 0.37641 0.17603 0.0
C2567 C 0.19955 0.37594 0.16902 0.0
C2568 C 0.17476 0.36734 0.18972 0.0
C2569 C 0.18793 0.35731 0.19656 0.0
C2570 C 0.20712 0.35688 0.18958 0.0
C2571 C 0.2128 0.36632 0.17593 0.0
C2572 C 0.1544 0.36847 0.19686 0.0
C2573 C 0.22143 0.34611 0.19643 0.0
C2574 C 0.1858 0.35228 0.23777 0.0
C2575 C 0.16744 0.3278 0.23814 0.0
C2576 C 0.19278 0.36207 0.22435 0.0
C2577 C 0.18133 0.347 0.21091 0.0
C2578 C 0.16306 0.3222 0.21119 0.0
C2579 C 0.15627 0.31295 0.22476 0.0
C2580 C 0.21227 0.38863 0.22455 0.0
C2581 C 0.15048 0.30547 0.19712 0.0
H2582 H 0.17058 0.38414 0.17084 0.0
H2583 H 0.22729 0.36573 0.17052 0.0
H2584 H 0.1397 0.34972 0.19835 0.0
H2585 H 0.16143 0.37884 0.20796 0.0
H2586 H 0.14627 0.37729 0.19026 0.0
H2587 H 0.23597 0.3474 0.18969 0.0
H2588 H 0.23004 0.35571 0.20756 0.0
H2589 H 0.20887 0.32657 0.19778 0.0
H2590 H 0.19491 0.36382 0.24801 0.0
H2591 H 0.14187 0.29412 0.22487 0.0
H2592 H 0.20463 0.39858 0.21871 0.0
H2593 H 0.22766 0.39013 0.21863 0.0
H2594 H 0.21958 0.39784 0.23592 0.0
H2595 H 0.14036 0.31243 0.19059 0.0
H2596 H 0.13739 0.2864 0.19921 0.0
H2597 H 0.16427 0.30523 0.19029 0.0
C2598 C 0.788 0.62719 0.83482 0.0
C2599 C 0.80195 0.618 0.84139 0.0
C2600 C 0.79322 0.63727 0.82133 0.0
C2601 C 0.8127 0.63797 0.81412 0.0
C2602 C 0.82686 0.62876 0.82067 0.0
C2603 C 0.82143 0.61907 0.83424 0.0
C2604 C 0.77779 0.64705 0.81475 0.0
C2605 C 0.84773 0.62906 0.81332 0.0
C2606 C 0.81255 0.64223 0.77281 0.0
C2607 C 0.82998 0.66695 0.77213 0.0
C2608 C 0.80665 0.63262 0.78637 0.0
C2609 C 0.81821 0.64813 0.79965 0.0
C2610 C 0.83546 0.67318 0.79908 0.0
C2611 C 0.84123 0.68224 0.78536 0.0
C2612 C 0.78823 0.60578 0.78647 0.0
C2613 C 0.84807 0.69035 0.81299 0.0
H2614 H 0.77271 0.6262 0.84011 0.0
H2615 H 0.83265 0.61248 0.83931 0.0
H2616 H 0.78963 0.66648 0.81286 0.0
H2617 H 0.76841 0.63668 0.8039 0.0
H2618 H 0.76374 0.64579 0.82193 0.0
H2619 H 0.85685 0.62101 0.8198 0.0
H2620 H 0.84086 0.61863 0.80224 0.0
H2621 H 0.86159 0.64813 0.81178 0.0
H2622 H 0.80337 0.63033 0.76269 0.0
H2623 H 0.85495 0.70127 0.78502 0.0
H2624 H 0.77284 0.60358 0.79266 0.0
H2625 H 0.79694 0.59668 0.7922 0.0
H2626 H 0.78071 0.59622 0.7752 0.0
H2627 H 0.83426 0.68993 0.82006 0.0
H2628 H 0.86024 0.70953 0.81068 0.0
H2629 H 0.85919 0.68431 0.81936 0.0
C2630 C 0.34282 0.17968 0.83866 0.0
C2631 C 0.34247 0.16071 0.84596 0.0
C2632 C 0.33577 0.1764 0.82352 0.0
C2633 C 0.32786 0.15346 0.81548 0.0
C2634 C 0.32686 0.134 0.8228 0.0
C2635 C 0.33427 0.13788 0.83798 0.0
C2636 C 0.33713 0.19761 0.81608 0.0
C2637 C 0.31833 0.10924 0.81458 0.0
C2638 C 0.29144 0.14176 0.77847 0.0
C2639 C 0.30948 0.14752 0.76878 0.0
C2640 C 0.29698 0.14288 0.79367 0.0
C2641 C 0.3212 0.15018 0.79933 0.0
C2642 C 0.33941 0.15566 0.78962 0.0
C2643 C 0.3333 0.15415 0.77446 0.0
C2644 C 0.27706 0.13677 0.80369 0.0
C2645 C 0.36547 0.16362 0.79527 0.0
H2646 H 0.34862 0.19721 0.84481 0.0
H2647 H 0.33412 0.1232 0.84352 0.0
H2648 H 0.34987 0.20228 0.80744 0.0
H2649 H 0.31887 0.19244 0.81057 0.0
H2650 H 0.34349 0.2142 0.82396 0.0
H2651 H 0.31757 0.09572 0.82201 0.0
H2652 H 0.29987 0.10204 0.80865 0.0
H2653 H 0.33089 0.11097 0.80619 0.0
H2654 H 0.27305 0.13686 0.7742 0.0
H2655 H 0.34723 0.15814 0.76703 0.0
H2656 H 0.28147 0.15332 0.81108 0.0
H2657 H 0.27593 0.12274 0.81079 0.0
H2658 H 0.25883 0.12984 0.79747 0.0
H2659 H 0.37345 0.18099 0.80261 0.0
H2660 H 0.37726 0.16644 0.78622 0.0
H2661 H 0.36587 0.14972 0.80189 0.0
C2662 C 0.78856 0.16239 0.83152 0.0
C2663 C 0.79911 0.15607 0.84314 0.0
C2664 C 0.79472 0.16139 0.81712 0.0
C2665 C 0.81208 0.15419 0.81427 0.0
C2666 C 0.82238 0.14723 0.82584 0.0
C2667 C 0.81565 0.1481 0.8401 0.0
C2668 C 0.78318 0.16873 0.80503 0.0
C2669 C 0.841 0.1395 0.82323 0.0
C2670 C 0.81631 0.13488 0.77488 0.0
C2671 C 0.83596 0.15647 0.77098 0.0
C2672 C 0.80821 0.13389 0.7889 0.0
C2673 C 0.82025 0.15491 0.7993 0.0
C2674 C 0.8402 0.17672 0.79544 0.0
C2675 C 0.84771 0.17727 0.78128 0.0
C2676 C 0.78666 0.11043 0.79255 0.0
C2677 C 0.85369 0.19943 0.80629 0.0
H2678 H 0.77603 0.16889 0.83376 0.0
H2679 H 0.82357 0.14277 0.84894 0.0
H2680 H 0.79742 0.18559 0.80089 0.0
H2681 H 0.77498 0.15419 0.79561 0.0
H2682 H 0.76874 0.1722 0.80884 0.0
H2683 H 0.84672 0.13394 0.83332 0.0
H2684 H 0.83341 0.12398 0.81443 0.0
H2685 H 0.85748 0.15484 0.81942 0.0
H2686 H 0.80701 0.11886 0.76685 0.0
H2687 H 0.86304 0.19391 0.77832 0.0
H2688 H 0.77184 0.11383 0.79562 0.0
H2689 H 0.79216 0.10378 0.80217 0.0
H2690 H 0.77922 0.09576 0.78319 0.0
H2691 H 0.84085 0.20541 0.80983 0.0
H2692 H 0.86897 0.21482 0.8016 0.0
H2693 H 0.86123 0.19535 0.81628 0.0
C2694 C 0.35656 0.1784 0.49921 0.0
C2695 C 0.33261 0.17062 0.49317 0.0
C2696 C 0.36212 0.17964 0.51443 0.0
C2697 C 0.34332 0.17314 0.52382 0.0
C2698 C 0.31915 0.16533 0.51782 0.0
C2699 C 0.31406 0.16402 0.50257 0.0
C2700 C 0.38809 0.18791 0.52046 0.0
C2701 C 0.29863 0.15833 0.5275 0.0
C2702 C 0.35054 0.15488 0.56168 0.0
C2703 C 0.3575 0.17648 0.57072 0.0
C2704 C 0.34631 0.15367 0.54635 0.0
C2705 C 0.34886 0.17449 0.53996 0.0
C2706 C 0.35598 0.19638 0.54904 0.0
C2707 C 0.36033 0.19714 0.56432 0.0
C2708 C 0.33897 0.13008 0.537 0.0
C2709 C 0.35858 0.21885 0.54263 0.0
H2710 H 0.37104 0.18379 0.49205 0.0
H2711 H 0.29542 0.15752 0.49798 0.0
H2712 H 0.3953 0.20464 0.52831 0.0
H2713 H 0.38849 0.17358 0.52665 0.0
H2714 H 0.40049 0.1919 0.51165 0.0
H2715 H 0.28093 0.15306 0.52111 0.0
H2716 H 0.29625 0.14274 0.53351 0.0
H2717 H 0.30326 0.17386 0.53587 0.0
H2718 H 0.34861 0.13897 0.56661 0.0
H2719 H 0.36547 0.21378 0.57132 0.0
H2720 H 0.35195 0.1335 0.52861 0.0
H2721 H 0.32055 0.12286 0.53102 0.0
H2722 H 0.33857 0.11582 0.54364 0.0
H2723 H 0.3719 0.22437 0.53431 0.0
H2724 H 0.36476 0.23457 0.55117 0.0
H2725 H 0.34075 0.21465 0.53691 0.0
C2726 C 0.89147 0.19708 0.51162 0.0
C2727 C 0.87465 0.17499 0.5032 0.0
C2728 C 0.88723 0.2027 0.52587 0.0
C2729 C 0.86566 0.18586 0.53178 0.0
C2730 C 0.84837 0.16383 0.52317 0.0
C2731 C 0.85307 0.15871 0.50901 0.0
C2732 C 0.90606 0.22637 0.53473 0.0
C2733 C 0.82505 0.14544 0.52901 0.0
C2734 C 0.86191 0.18315 0.57289 0.0
C2735 C 0.84734 0.19364 0.5756 0.0
C2736 C 0.86899 0.18157 0.55881 0.0
C2737 C 0.86128 0.19063 0.54713 0.0
C2738 C 0.84749 0.20219 0.54992 0.0
C2739 C 0.84067 0.20354 0.56413 0.0
C2740 C 0.8837 0.16908 0.55629 0.0
C2741 C 0.83906 0.21222 0.53778 0.0
H2742 H 0.90824 0.20967 0.50721 0.0
H2743 H 0.83977 0.14183 0.50244 0.0
H2744 H 0.89731 0.23678 0.53869 0.0
H2745 H 0.91396 0.22237 0.54459 0.0
H2746 H 0.92119 0.23811 0.52827 0.0
H2747 H 0.81322 0.12949 0.52077 0.0
H2748 H 0.82954 0.13867 0.53895 0.0
H2749 H 0.81447 0.15427 0.53236 0.0
H2750 H 0.86692 0.17519 0.58163 0.0
H2751 H 0.82974 0.21201 0.5662 0.0
H2752 H 0.8998 0.18062 0.55046 0.0
H2753 H 0.87225 0.15156 0.54919 0.0
H2754 H 0.89019 0.16513 0.56676 0.0
H2755 H 0.8547 0.22432 0.53178 0.0
H2756 H 0.83052 0.22271 0.54202 0.0
H2757 H 0.82546 0.19691 0.5297 0.0
C2758 C 0.84983 0.71822 0.51124 0.0
C2759 C 0.86995 0.71961 0.50474 0.0
C2760 C 0.8438 0.70881 0.52483 0.0
C2761 C 0.85811 0.70035 0.5321 0.0
C2762 C 0.87859 0.70189 0.52567 0.0
C2763 C 0.88433 0.71162 0.5121 0.0
C2764 C 0.82202 0.70779 0.53139 0.0
C2765 C 0.89416 0.69287 0.53299 0.0
C2766 C 0.85424 0.69404 0.57313 0.0
C2767 C 0.83744 0.66896 0.57317 0.0
C2768 C 0.8612 0.70448 0.55987 0.0
C2769 C 0.85132 0.68949 0.54629 0.0
C2770 C 0.83456 0.66415 0.54624 0.0
C2771 C 0.82774 0.65424 0.55964 0.0
C2772 C 0.87904 0.73159 0.56041 0.0
C2773 C 0.82367 0.64751 0.532 0.0
H2774 H 0.83884 0.72467 0.5057 0.0
H2775 H 0.89977 0.71245 0.50708 0.0
H2776 H 0.80823 0.68853 0.53258 0.0
H2777 H 0.82779 0.71795 0.54256 0.0
H2778 H 0.81316 0.71568 0.52454 0.0
H2779 H 0.9097 0.69575 0.5267 0.0
H2780 H 0.90158 0.70244 0.54425 0.0
H2781 H 0.88278 0.67304 0.5341 0.0
H2782 H 0.86221 0.70554 0.58349 0.0
H2783 H 0.81451 0.63494 0.5595 0.0
H2784 H 0.87048 0.74043 0.55424 0.0
H2785 H 0.89543 0.73471 0.555 0.0
H2786 H 0.88507 0.74073 0.57186 0.0
H2787 H 0.81291 0.65345 0.52518 0.0
H2788 H 0.81151 0.62808 0.53386 0.0
H2789 H 0.83848 0.6487 0.52558 0.0
loop_
_geom_bond_atom_site_label_1
_geom_bond_atom_site_label_2
_geom_bond_distance
_geom_bond_site_symmetry_2
_ccdc_geom_bond_type
C0 C1 1.386 . S
C0 C2 1.397 . S
C0 H24 0.931 . S
C1 C0 1.386 . S
C1 C5 1.397 . S
C2 C0 1.397 . S
C2 C3 1.384 . S
C2 H25 0.930 . S
C3 C2 1.384 . S
C3 C4 1.377 . S
C3 C6 1.481 . S
C4 C3 1.377 . S
C4 C5 1.389 . S
C4 H26 0.929 . S
C5 C1 1.397 . S
C5 C4 1.389 . S
C5 H27 0.931 . S
C6 C3 1.481 . S
C6 C7 1.387 . S
C6 C11 1.390 . S
C7 C6 1.387 . S
C7 C8 1.401 . S
C7 H28 0.930 . S
C8 C7 1.401 . S
C8 C9 1.376 . S
C8 C17 1.511 . S
C9 C8 1.376 . S
C9 C10 1.392 . S
C9 H30 0.931 . S
C10 C9 1.392 . S
C10 C11 1.361 . S
C10 C12 1.500 . S
C11 C6 1.390 . S
C11 C10 1.361 . S
C11 H29 0.931 . S
C12 C10 1.500 . S
C12 C13 1.371 . S
C12 C14 1.365 . S
C13 C12 1.371 . S
C13 C23 1.386 . S
C13 H31 0.931 . S
C14 C12 1.365 . S
C14 C15 1.409 . S
C14 H32 0.929 . S
C15 C14 1.409 . S
C15 C16 1.380 . S
C15 H33 0.930 . S
C16 C15 1.380 . S
C16 C23 1.357 . S
C17 C8 1.511 . S
C17 C18 1.341 . S
C17 C19 1.371 . S
C18 C17 1.341 . S
C18 C22 1.394 . S
C18 H34 0.930 . S
C19 C17 1.371 . S
C19 C20 1.392 . S
C19 H35 0.931 . S
C20 C19 1.392 . S
C20 C21 1.331 . S
C20 H38 0.932 . S
C21 C20 1.331 . S
C21 C22 1.336 . S
C22 C18 1.394 . S
C22 C21 1.336 . S
C22 H37 0.929 . S
C23 C13 1.386 . S
C23 C16 1.357 . S
C23 H36 0.928 . S
H24 C0 0.931 . S
H25 C2 0.930 . S
H26 C4 0.929 . S
H27 C5 0.931 . S
H28 C7 0.930 . S
H29 C11 0.931 . S
H30 C9 0.931 . S
H31 C13 0.931 . S
H32 C14 0.929 . S
H33 C15 0.930 . S
H34 C18 0.930 . S
H35 C19 0.931 . S
H36 C23 0.928 . S
H37 C22 0.929 . S
H38 C20 0.932 . S
C39 C40 1.386 . S
C39 C41 1.397 . S
C39 H63 0.931 . S
C40 C39 1.386 . S
C40 C44 1.397 . S
C41 C39 1.397 . S
C41 C42 1.384 . S
C41 H64 0.930 . S
C42 C41 1.384 . S
C42 C43 1.377 . S
C42 C45 1.481 . S
C43 C42 1.377 . S
C43 C44 1.389 . S
C43 H65 0.929 . S
C44 C40 1.397 . S
C44 C43 1.389 . S
C44 H66 0.931 . S
C45 C42 1.481 . S
C45 C46 1.387 . S
C45 C50 1.390 . S
C46 C45 1.387 . S
C46 C47 1.401 . S
C46 H67 0.930 . S
C47 C46 1.401 . S
C47 C48 1.376 . S
C47 C56 1.511 . S
C48 C47 1.376 . S
C48 C49 1.392 . S
C48 H69 0.931 . S
C49 C48 1.392 . S
C49 C50 1.361 . S
C49 C51 1.500 . S
C50 C45 1.390 . S
C50 C49 1.361 . S
C50 H68 0.931 . S
C51 C49 1.500 . S
C51 C52 1.371 . S
C51 C53 1.365 . S
C52 C51 1.371 . S
C52 C62 1.386 . S
C52 H70 0.931 . S
C53 C51 1.365 . S
C53 C54 1.409 . S
C53 H71 0.929 . S
C54 C53 1.409 . S
C54 C55 1.380 . S
C54 H72 0.930 . S
C55 C54 1.380 . S
C55 C62 1.357 . S
C56 C47 1.511 . S
C56 C57 1.341 . S
C56 C58 1.371 . S
C57 C56 1.341 . S
C57 C61 1.394 . S
C57 H73 0.930 . S
C58 C56 1.371 . S
C58 C59 1.392 . S
C58 H74 0.931 . S
C59 C58 1.392 . S
C59 C60 1.331 . S
C59 H77 0.932 . S
C60 C59 1.331 . S
C60 C61 1.336 . S
C61 C57 1.394 . S
C61 C60 1.336 . S
C61 H76 0.929 . S
C62 C52 1.386 . S
C62 C55 1.357 . S
C62 H75 0.928 . S
H63 C39 0.931 . S
H64 C41 0.930 . S
H65 C43 0.929 . S
H66 C44 0.931 . S
H67 C46 0.930 . S
H68 C50 0.931 . S
H69 C48 0.931 . S
H70 C52 0.931 . S
H71 C53 0.929 . S
H72 C54 0.930 . S
H73 C57 0.930 . S
H74 C58 0.931 . S
H75 C62 0.928 . S
H76 C61 0.929 . S
H77 C59 0.932 . S
C78 C79 1.386 . S
C78 C80 1.397 . S
C78 H102 0.931 . S
C79 C78 1.386 . S
C79 C83 1.397 . S
C80 C78 1.397 . S
C80 C81 1.384 . S
C80 H103 0.930 . S
C81 C80 1.384 . S
C81 C82 1.377 . S
C81 C84 1.481 . S
C82 C81 1.377 . S
C82 C83 1.389 . S
C82 H104 0.929 . S
C83 C79 1.397 . S
C83 C82 1.389 . S
C83 H105 0.931 . S
C84 C81 1.481 . S
C84 C85 1.387 . S
C84 C89 1.390 . S
C85 C84 1.387 . S
C85 C86 1.401 . S
C85 H106 0.930 . S
C86 C85 1.401 . S
C86 C87 1.376 . S
C86 C95 1.511 . S
C87 C86 1.376 . S
C87 C88 1.392 . S
C87 H108 0.931 . S
C88 C87 1.392 . S
C88 C89 1.361 . S
C88 C90 1.500 . S
C89 C84 1.390 . S
C89 C88 1.361 . S
C89 H107 0.931 . S
C90 C88 1.500 . S
C90 C91 1.371 . S
C90 C92 1.365 . S
C91 C90 1.371 . S
C91 C101 1.386 . S
C91 H109 0.931 . S
C92 C90 1.365 . S
C92 C93 1.409 . S
C92 H110 0.929 . S
C93 C92 1.409 . S
C93 C94 1.380 . S
C93 H111 0.930 . S
C94 C93 1.380 . S
C94 C101 1.357 . S
C95 C86 1.511 . S
C95 C96 1.341 . S
C95 C97 1.371 . S
C96 C95 1.341 . S
C96 C100 1.394 . S
C96 H112 0.930 . S
C97 C95 1.371 . S
C97 C98 1.392 . S
C97 H113 0.931 . S
C98 C97 1.392 . S
C98 C99 1.331 . S
C98 H116 0.932 . S
C99 C98 1.331 . S
C99 C100 1.336 . S
C100 C96 1.394 . S
C100 C99 1.336 . S
C100 H115 0.929 . S
C101 C91 1.386 . S
C101 C94 1.357 . S
C101 H114 0.928 . S
H102 C78 0.931 . S
H103 C80 0.930 . S
H104 C82 0.929 . S
H105 C83 0.931 . S
H106 C85 0.930 . S
H107 C89 0.931 . S
H108 C87 0.931 . S
H109 C91 0.931 . S
H110 C92 0.929 . S
H111 C93 0.930 . S
H112 C96 0.930 . S
H113 C97 0.931 . S
H114 C101 0.928 . S
H115 C100 0.929 . S
H116 C98 0.932 . S
C117 C118 1.386 . S
C117 C119 1.397 . S
C117 H141 0.931 . S
C118 C117 1.386 . S
C118 C122 1.397 . S
C119 C117 1.397 . S
C119 C120 1.384 . S
C119 H142 0.930 . S
C120 C119 1.384 . S
C120 C121 1.377 . S
C120 C123 1.481 . S
C121 C120 1.377 . S
C121 C122 1.389 . S
C121 H143 0.929 . S
C122 C118 1.397 . S
C122 C121 1.389 . S
C122 H144 0.931 . S
C123 C120 1.481 . S
C123 C124 1.387 . S
C123 C128 1.390 . S
C124 C123 1.387 . S
C124 C125 1.401 . S
C124 H145 0.930 . S
C125 C124 1.401 . S
C125 C126 1.376 . S
C125 C134 1.511 . S
C126 C125 1.376 . S
C126 C127 1.392 . S
C126 H147 0.931 . S
C127 C126 1.392 . S
C127 C128 1.361 . S
C127 C129 1.500 . S
C128 C123 1.390 . S
C128 C127 1.361 . S
C128 H146 0.931 . S
C129 C127 1.500 . S
C129 C130 1.371 . S
C129 C131 1.365 . S
C130 C129 1.371 . S
C130 C140 1.386 . S
C130 H148 0.931 . S
C131 C129 1.365 . S
C131 C132 1.409 . S
C131 H149 0.929 . S
C132 C131 1.409 . S
C132 C133 1.380 . S
C132 H150 0.930 . S
C133 C132 1.380 . S
C133 C140 1.357 . S
C134 C125 1.511 . S
C134 C135 1.341 . S
C134 C136 1.371 . S
C135 C134 1.341 . S
C135 C139 1.394 . S
C135 H151 0.930 . S
C136 C134 1.371 . S
C136 C137 1.392 . S
C136 H152 0.931 . S
C137 C136 1.392 . S
C137 C138 1.331 . S
C137 H155 0.932 . S
C138 C137 1.331 . S
C138 C139 1.336 . S
C139 C135 1.394 . S
C139 C138 1.336 . S
C139 H154 0.929 . S
C140 C130 1.386 . S
C140 C133 1.357 . S
C140 H153 0.928 . S
H141 C117 0.931 . S
H142 C119 0.930 . S
H143 C121 0.929 . S
H144 C122 0.931 . S
H145 C124 0.930 . S
H146 C128 0.931 . S
H147 C126 0.931 . S
H148 C130 0.931 . S
H149 C131 0.929 . S
H150 C132 0.930 . S
H151 C135 0.930 . S
H152 C136 0.931 . S
H153 C140 0.928 . S
H154 C139 0.929 . S
H155 C137 0.932 . S
C156 C157 1.386 . S
C156 C158 1.397 . S
C156 H180 0.931 . S
C157 C156 1.386 . S
C157 C161 1.397 . S
C158 C156 1.397 . S
C158 C159 1.384 . S
C158 H181 0.930 . S
C159 C158 1.384 . S
C159 C160 1.377 . S
C159 C162 1.481 . S
C160 C159 1.377 . S
C160 C161 1.389 . S
C160 H182 0.929 . S
C161 C157 1.397 . S
C161 C160 1.389 . S
C161 H183 0.931 . S
C162 C159 1.481 . S
C162 C163 1.387 . S
C162 C167 1.390 . S
C163 C162 1.387 . S
C163 C164 1.401 . S
C163 H184 0.930 . S
C164 C163 1.401 . S
C164 C165 1.376 . S
C164 C173 1.511 . S
C165 C164 1.376 . S
C165 C166 1.392 . S
C165 H186 0.931 . S
C166 C165 1.392 . S
C166 C167 1.361 . S
C166 C168 1.500 . S
C167 C162 1.390 . S
C167 C166 1.361 . S
C167 H185 0.931 . S
C168 C166 1.500 . S
C168 C169 1.371 . S
C168 C170 1.365 . S
C169 C168 1.371 . S
C169 C179 1.386 . S
C169 H187 0.931 . S
C170 C168 1.365 . S
C170 C171 1.409 . S
C170 H188 0.929 . S
C171 C170 1.409 . S
C171 C172 1.380 . S
C171 H189 0.930 . S
C172 C171 1.380 . S
C172 C179 1.357 . S
C173 C164 1.511 . S
C173 C174 1.341 . S
C173 C175 1.371 . S
C174 C173 1.341 . S
C174 C178 1.394 . S
C174 H190 0.930 . S
C175 C173 1.371 . S
C175 C176 1.392 . S
C175 H191 0.931 . S
C176 C175 1.392 . S
C176 C177 1.331 . S
C176 H194 0.932 . S
C177 C176 1.331 . S
C177 C178 1.336 . S
C178 C174 1.394 . S
C178 C177 1.336 . S
C178 H193 0.929 . S
C179 C169 1.386 . S
C179 C172 1.357 . S
C179 H192 0.928 . S
H180 C156 0.931 . S
H181 C158 0.930 . S
H182 C160 0.929 . S
H183 C161 0.931 . S
H184 C163 0.930 . S
H185 C167 0.931 . S
H186 C165 0.931 . S
H187 C169 0.931 . S
H188 C170 0.929 . S
H189 C171 0.930 . S
H190 C174 0.930 . S
H191 C175 0.931 . S
H192 C179 0.928 . S
H193 C178 0.929 . S
H194 C176 0.932 . S
C195 C196 1.386 . S
C195 C197 1.397 . S
C195 H219 0.931 . S
C196 C195 1.386 . S
C196 C200 1.397 . S
C197 C195 1.397 . S
C197 C198 1.384 . S
C197 H220 0.930 . S
C198 C197 1.384 . S
C198 C199 1.377 . S
C198 C201 1.481 . S
C199 C198 1.377 . S
C199 C200 1.389 . S
C199 H221 0.929 . S
C200 C196 1.397 . S
C200 C199 1.389 . S
C200 H222 0.931 . S
C201 C198 1.481 . S
C201 C202 1.387 . S
C201 C206 1.390 . S
C202 C201 1.387 . S
C202 C203 1.401 . S
C202 H223 0.930 . S
C203 C202 1.401 . S
C203 C204 1.376 . S
C203 C212 1.511 . S
C204 C203 1.376 . S
C204 C205 1.392 . S
C204 H225 0.931 . S
C205 C204 1.392 . S
C205 C206 1.361 . S
C205 C207 1.500 . S
C206 C201 1.390 . S
C206 C205 1.361 . S
C206 H224 0.931 . S
C207 C205 1.500 . S
C207 C208 1.371 . S
C207 C209 1.365 . S
C208 C207 1.371 . S
C208 C218 1.386 . S
C208 H226 0.931 . S
C209 C207 1.365 . S
C209 C210 1.409 . S
C209 H227 0.929 . S
C210 C209 1.409 . S
C210 C211 1.380 . S
C210 H228 0.930 . S
C211 C210 1.380 . S
C211 C218 1.357 . S
C212 C203 1.511 . S
C212 C213 1.341 . S
C212 C214 1.371 . S
C213 C212 1.341 . S
C213 C217 1.394 . S
C213 H229 0.930 . S
C214 C212 1.371 . S
C214 C215 1.392 . S
C214 H230 0.931 . S
C215 C214 1.392 . S
C215 C216 1.331 . S
C215 H233 0.932 . S
C216 C215 1.331 . S
C216 C217 1.336 . S
C217 C213 1.394 . S
C217 C216 1.336 . S
C217 H232 0.929 . S
C218 C208 1.386 . S
C218 C211 1.357 . S
C218 H231 0.928 . S
H219 C195 0.931 . S
H220 C197 0.930 . S
H221 C199 0.929 . S
H222 C200 0.931 . S
H223 C202 0.930 . S
H224 C206 0.931 . S
H225 C204 0.931 . S
H226 C208 0.931 . S
H227 C209 0.929 . S
H228 C210 0.930 . S
H229 C213 0.930 . S
H230 C214 0.931 . S
H231 C218 0.928 . S
H232 C217 0.929 . S
H233 C215 0.932 . S
C234 C235 1.386 . S
C234 C236 1.397 . S
C234 H258 0.931 . S
C235 C234 1.386 . S
C235 C239 1.397 1_655 S
C236 C234 1.397 . S
C236 C237 1.384 . S
C236 H259 0.930 . S
C237 C236 1.384 . S
C237 C238 1.377 . S
C237 C240 1.481 . S
C238 C237 1.377 . S
C238 C239 1.389 1_655 S
C238 H260 0.929 1_655 S
C239 C235 1.397 1_455 S
C239 C238 1.389 1_455 S
C239 H261 0.931 . S
C240 C237 1.481 . S
C240 C241 1.387 . S
C240 C245 1.390 . S
C241 C240 1.387 . S
C241 C242 1.401 . S
C241 H262 0.930 . S
C242 C241 1.401 . S
C242 C243 1.376 . S
C242 C251 1.511 . S
C243 C242 1.376 . S
C243 C244 1.392 . S
C243 H264 0.931 . S
C244 C243 1.392 . S
C244 C245 1.361 . S
C244 C246 1.500 . S
C245 C240 1.390 . S
C245 C244 1.361 . S
C245 H263 0.931 . S
C246 C244 1.500 . S
C246 C247 1.371 . S
C246 C248 1.365 . S
C247 C246 1.371 . S
C247 C257 1.386 . S
C247 H265 0.931 . S
C248 C246 1.365 . S
C248 C249 1.409 . S
C248 H266 0.929 . S
C249 C248 1.409 . S
C249 C250 1.380 . S
C249 H267 0.930 . S
C250 C249 1.380 . S
C250 C257 1.357 . S
C251 C242 1.511 . S
C251 C252 1.341 . S
C251 C253 1.371 . S
C252 C251 1.341 . S
C252 C256 1.394 . S
C252 H268 0.930 . S
C253 C251 1.371 . S
C253 C254 1.392 . S
C253 H269 0.931 . S
C254 C253 1.392 . S
C254 C255 1.331 . S
C254 H272 0.932 . S
C255 C254 1.331 . S
C255 C256 1.336 . S
C256 C252 1.394 . S
C256 C255 1.336 . S
C256 H271 0.929 . S
C257 C247 1.386 . S
C257 C250 1.357 . S
C257 H270 0.928 . S
H258 C234 0.931 . S
H259 C236 0.930 . S
H260 C238 0.929 1_455 S
H261 C239 0.931 . S
H262 C241 0.930 . S
H263 C245 0.931 . S
H264 C243 0.931 . S
H265 C247 0.931 . S
H266 C248 0.929 . S
H267 C249 0.930 . S
H268 C252 0.930 . S
H269 C253 0.931 . S
H270 C257 0.928 . S
H271 C256 0.929 . S
H272 C254 0.932 . S
C273 C274 1.386 . S
C273 C275 1.397 . S
C273 H297 0.931 . S
C274 C273 1.386 . S
C274 C278 1.397 . S
C275 C273 1.397 . S
C275 C276 1.384 . S
C275 H298 0.930 . S
C276 C275 1.384 . S
C276 C277 1.377 . S
C276 C279 1.481 . S
C277 C276 1.377 . S
C277 C278 1.389 . S
C277 H299 0.929 . S
C278 C274 1.397 . S
C278 C277 1.389 . S
C278 H300 0.931 . S
C279 C276 1.481 . S
C279 C280 1.387 . S
C279 C284 1.390 . S
C280 C279 1.387 . S
C280 C281 1.401 . S
C280 H301 0.930 . S
C281 C280 1.401 . S
C281 C282 1.376 . S
C281 C290 1.511 . S
C282 C281 1.376 . S
C282 C283 1.392 . S
C282 H303 0.931 . S
C283 C282 1.392 . S
C283 C284 1.361 . S
C283 C285 1.500 . S
C284 C279 1.390 . S
C284 C283 1.361 . S
C284 H302 0.931 . S
C285 C283 1.500 . S
C285 C286 1.371 . S
C285 C287 1.365 . S
C286 C285 1.371 . S
C286 C296 1.386 . S
C286 H304 0.931 . S
C287 C285 1.365 . S
C287 C288 1.409 . S
C287 H305 0.929 . S
C288 C287 1.409 . S
C288 C289 1.380 . S
C288 H306 0.930 . S
C289 C288 1.380 . S
C289 C296 1.357 . S
C290 C281 1.511 . S
C290 C291 1.341 . S
C290 C292 1.371 . S
C291 C290 1.341 . S
C291 C295 1.394 . S
C291 H307 0.930 . S
C292 C290 1.371 . S
C292 C293 1.392 . S
C292 H308 0.931 . S
C293 C292 1.392 . S
C293 C294 1.331 . S
C293 H311 0.932 . S
C294 C293 1.331 . S
C294 C295 1.336 . S
C295 C291 1.394 . S
C295 C294 1.336 . S
C295 H310 0.929 . S
C296 C286 1.386 . S
C296 C289 1.357 . S
C296 H309 0.928 . S
H297 C273 0.931 . S
H298 C275 0.930 . S
H299 C277 0.929 . S
H300 C278 0.931 . S
H301 C280 0.930 . S
H302 C284 0.931 . S
H303 C282 0.931 . S
H304 C286 0.931 . S
H305 C287 0.929 . S
H306 C288 0.930 . S
H307 C291 0.930 . S
H308 C292 0.931 . S
H309 C296 0.928 . S
H310 C295 0.929 . S
H311 C293 0.932 . S
C312 C313 1.386 . S
C312 C314 1.397 . S
C312 H336 0.931 . S
C313 C312 1.386 . S
C313 C317 1.397 . S
C314 C312 1.397 . S
C314 C315 1.384 . S
C314 H337 0.930 . S
C315 C314 1.384 . S
C315 C316 1.377 . S
C315 C318 1.481 . S
C316 C315 1.377 . S
C316 C317 1.389 . S
C316 H338 0.929 . S
C317 C313 1.397 . S
C317 C316 1.389 . S
C317 H339 0.931 . S
C318 C315 1.481 . S
C318 C319 1.387 . S
C318 C323 1.390 . S
C319 C318 1.387 . S
C319 C320 1.401 . S
C319 H340 0.930 . S
C320 C319 1.401 . S
C320 C321 1.376 . S
C320 C329 1.511 . S
C321 C320 1.376 . S
C321 C322 1.392 . S
C321 H342 0.931 . S
C322 C321 1.392 . S
C322 C323 1.361 . S
C322 C324 1.500 . S
C323 C318 1.390 . S
C323 C322 1.361 . S
C323 H341 0.931 . S
C324 C322 1.500 . S
C324 C325 1.371 . S
C324 C326 1.365 . S
C325 C324 1.371 . S
C325 C335 1.386 . S
C325 H343 0.931 . S
C326 C324 1.365 . S
C326 C327 1.409 . S
C326 H344 0.929 . S
C327 C326 1.409 . S
C327 C328 1.380 . S
C327 H345 0.930 . S
C328 C327 1.380 . S
C328 C335 1.357 . S
C329 C320 1.511 . S
C329 C330 1.341 . S
C329 C331 1.371 . S
C330 C329 1.341 . S
C330 C334 1.394 . S
C330 H346 0.930 . S
C331 C329 1.371 . S
C331 C332 1.392 . S
C331 H347 0.931 . S
C332 C331 1.392 . S
C332 C333 1.331 . S
C332 H350 0.932 . S
C333 C332 1.331 . S
C333 C334 1.336 . S
C334 C330 1.394 . S
C334 C333 1.336 . S
C334 H349 0.929 . S
C335 C325 1.386 . S
C335 C328 1.357 . S
C335 H348 0.928 . S
H336 C312 0.931 . S
H337 C314 0.930 . S
H338 C316 0.929 . S
H339 C317 0.931 . S
H340 C319 0.930 . S
H341 C323 0.931 . S
H342 C321 0.931 . S
H343 C325 0.931 . S
H344 C326 0.929 . S
H345 C327 0.930 . S
H346 C330 0.930 . S
H347 C331 0.931 . S
H348 C335 0.928 . S
H349 C334 0.929 . S
H350 C332 0.932 . S
C351 C352 1.386 . S
C351 C353 1.397 . S
C351 H375 0.931 . S
C352 C351 1.386 . S
C352 C356 1.397 . S
C353 C351 1.397 . S
C353 C354 1.384 . S
C353 H376 0.930 . S
C354 C353 1.384 . S
C354 C355 1.377 . S
C354 C357 1.481 . S
C355 C354 1.377 . S
C355 C356 1.389 . S
C355 H377 0.929 . S
C356 C352 1.397 . S
C356 C355 1.389 . S
C356 H378 0.931 . S
C357 C354 1.481 . S
C357 C358 1.387 . S
C357 C362 1.390 . S
C358 C357 1.387 . S
C358 C359 1.401 . S
C358 H379 0.930 . S
C359 C358 1.401 . S
C359 C360 1.376 . S
C359 C368 1.511 . S
C360 C359 1.376 . S
C360 C361 1.392 . S
C360 H381 0.931 . S
C361 C360 1.392 . S
C361 C362 1.361 . S
C361 C363 1.500 . S
C362 C357 1.390 . S
C362 C361 1.361 . S
C362 H380 0.931 . S
C363 C361 1.500 . S
C363 C364 1.371 . S
C363 C365 1.365 . S
C364 C363 1.371 . S
C364 C374 1.386 . S
C364 H382 0.931 . S
C365 C363 1.365 . S
C365 C366 1.409 . S
C365 H383 0.929 . S
C366 C365 1.409 . S
C366 C367 1.380 . S
C366 H384 0.930 . S
C367 C366 1.380 . S
C367 C374 1.357 . S
C368 C359 1.511 . S
C368 C369 1.341 . S
C368 C370 1.371 . S
C369 C368 1.341 . S
C369 C373 1.394 . S
C369 H385 0.930 . S
C370 C368 1.371 . S
C370 C371 1.392 . S
C370 H386 0.931 . S
C371 C370 1.392 . S
C371 C372 1.331 . S
C371 H389 0.932 . S
C372 C371 1.331 . S
C372 C373 1.336 . S
C373 C369 1.394 . S
C373 C372 1.336 . S
C373 H388 0.929 . S
C374 C364 1.386 . S
C374 C367 1.357 . S
C374 H387 0.928 . S
H375 C351 0.931 . S
H376 C353 0.930 . S
H377 C355 0.929 . S
H378 C356 0.931 . S
H379 C358 0.930 . S
H380 C362 0.931 . S
H381 C360 0.931 . S
H382 C364 0.931 . S
H383 C365 0.929 . S
H384 C366 0.930 . S
H385 C369 0.930 . S
H386 C370 0.931 . S
H387 C374 0.928 . S
H388 C373 0.929 . S
H389 C371 0.932 . S
C390 C391 1.386 . S
C390 C392 1.397 . S
C390 H414 0.931 . S
C391 C390 1.386 . S
C391 C395 1.397 . S
C392 C390 1.397 . S
C392 C393 1.384 . S
C392 H415 0.930 . S
C393 C392 1.384 . S
C393 C394 1.377 . S
C393 C396 1.481 . S
C394 C393 1.377 . S
C394 C395 1.389 . S
C394 H416 0.929 . S
C395 C391 1.397 . S
C395 C394 1.389 . S
C395 H417 0.931 . S
C396 C393 1.481 . S
C396 C397 1.387 . S
C396 C401 1.390 . S
C397 C396 1.387 . S
C397 C398 1.401 . S
C397 H418 0.930 . S
C398 C397 1.401 . S
C398 C399 1.376 . S
C398 C407 1.511 . S
C399 C398 1.376 . S
C399 C400 1.392 . S
C399 H420 0.931 . S
C400 C399 1.392 . S
C400 C401 1.361 . S
C400 C402 1.500 . S
C401 C396 1.390 . S
C401 C400 1.361 . S
C401 H419 0.931 . S
C402 C400 1.500 . S
C402 C403 1.371 . S
C402 C404 1.365 . S
C403 C402 1.371 . S
C403 C413 1.386 . S
C403 H421 0.931 . S
C404 C402 1.365 . S
C404 C405 1.409 . S
C404 H422 0.929 . S
C405 C404 1.409 . S
C405 C406 1.380 . S
C405 H423 0.930 . S
C406 C405 1.380 . S
C406 C413 1.357 . S
C407 C398 1.511 . S
C407 C408 1.341 . S
C407 C409 1.371 . S
C408 C407 1.341 . S
C408 C412 1.394 . S
C408 H424 0.930 . S
C409 C407 1.371 . S
C409 C410 1.392 . S
C409 H425 0.931 . S
C410 C409 1.392 . S
C410 C411 1.331 . S
C410 H428 0.932 . S
C411 C410 1.331 . S
C411 C412 1.336 . S
C412 C408 1.394 . S
C412 C411 1.336 . S
C412 H427 0.929 . S
C413 C403 1.386 . S
C413 C406 1.357 . S
C413 H426 0.928 . S
H414 C390 0.931 . S
H415 C392 0.930 . S
H416 C394 0.929 . S
H417 C395 0.931 . S
H418 C397 0.930 . S
H419 C401 0.931 . S
H420 C399 0.931 . S
H421 C403 0.931 . S
H422 C404 0.929 . S
H423 C405 0.930 . S
H424 C408 0.930 . S
H425 C409 0.931 . S
H426 C413 0.928 . S
H427 C412 0.929 . S
H428 C410 0.932 . S
C429 C430 1.386 . S
C429 C431 1.397 . S
C429 H453 0.931 . S
C430 C429 1.386 . S
C430 C434 1.397 . S
C431 C429 1.397 . S
C431 C432 1.384 . S
C431 H454 0.930 . S
C432 C431 1.384 . S
C432 C433 1.377 . S
C432 C435 1.481 . S
C433 C432 1.377 . S
C433 C434 1.389 . S
C433 H455 0.929 . S
C434 C430 1.397 . S
C434 C433 1.389 . S
C434 H456 0.931 . S
C435 C432 1.481 . S
C435 C436 1.387 . S
C435 C440 1.390 . S
C436 C435 1.387 . S
C436 C437 1.401 . S
C436 H457 0.930 . S
C437 C436 1.401 . S
C437 C438 1.376 . S
C437 C446 1.511 . S
C438 C437 1.376 . S
C438 C439 1.392 . S
C438 H459 0.931 . S
C439 C438 1.392 . S
C439 C440 1.361 . S
C439 C441 1.500 . S
C440 C435 1.390 . S
C440 C439 1.361 . S
C440 H458 0.931 . S
C441 C439 1.500 . S
C441 C442 1.371 . S
C441 C443 1.365 . S
C442 C441 1.371 . S
C442 C452 1.386 . S
C442 H460 0.931 . S
C443 C441 1.365 . S
C443 C444 1.409 . S
C443 H461 0.929 . S
C444 C443 1.409 . S
C444 C445 1.380 . S
C444 H462 0.930 . S
C445 C444 1.380 . S
C445 C452 1.357 . S
C446 C437 1.511 . S
C446 C447 1.341 . S
C446 C448 1.371 . S
C447 C446 1.341 . S
C447 C451 1.394 . S
C447 H463 0.930 . S
C448 C446 1.371 . S
C448 C449 1.392 . S
C448 H464 0.931 . S
C449 C448 1.392 . S
C449 C450 1.331 . S
C449 H467 0.932 . S
C450 C449 1.331 . S
C450 C451 1.336 . S
C451 C447 1.394 . S
C451 C450 1.336 . S
C451 H466 0.929 . S
C452 C442 1.386 . S
C452 C445 1.357 . S
C452 H465 0.928 . S
H453 C429 0.931 . S
H454 C431 0.930 . S
H455 C433 0.929 . S
H456 C434 0.931 . S
H457 C436 0.930 . S
H458 C440 0.931 . S
H459 C438 0.931 . S
H460 C442 0.931 . S
H461 C443 0.929 . S
H462 C444 0.930 . S
H463 C447 0.930 . S
H464 C448 0.931 . S
H465 C452 0.928 . S
H466 C451 0.929 . S
H467 C449 0.932 . S
C468 C469 1.386 . S
C468 C470 1.397 . S
C468 H492 0.931 . S
C469 C468 1.386 . S
C469 C473 1.397 . S
C470 C468 1.397 . S
C470 C471 1.384 . S
C470 H493 0.930 . S
C471 C470 1.384 . S
C471 C472 1.377 . S
C471 C474 1.481 . S
C472 C471 1.377 . S
C472 C473 1.389 . S
C472 H494 0.929 . S
C473 C469 1.397 . S
C473 C472 1.389 . S
C473 H495 0.931 . S
C474 C471 1.481 . S
C474 C475 1.387 . S
C474 C479 1.390 . S
C475 C474 1.387 . S
C475 C476 1.401 . S
C475 H496 0.930 . S
C476 C475 1.401 . S
C476 C477 1.376 . S
C476 C485 1.511 . S
C477 C476 1.376 . S
C477 C478 1.392 . S
C477 H498 0.931 . S
C478 C477 1.392 . S
C478 C479 1.361 . S
C478 C480 1.500 . S
C479 C474 1.390 . S
C479 C478 1.361 . S
C479 H497 0.931 . S
C480 C478 1.500 . S
C480 C481 1.371 . S
C480 C482 1.365 . S
C481 C480 1.371 . S
C481 C491 1.386 . S
C481 H499 0.931 . S
C482 C480 1.365 . S
C482 C483 1.409 . S
C482 H500 0.929 . S
C483 C482 1.409 . S
C483 C484 1.380 . S
C483 H501 0.930 . S
C484 C483 1.380 . S
C484 C491 1.357 . S
C485 C476 1.511 . S
C485 C486 1.341 . S
C485 C487 1.371 . S
C486 C485 1.341 . S
C486 C490 1.394 . S
C486 H502 0.930 . S
C487 C485 1.371 . S
C487 C488 1.392 . S
C487 H503 0.931 . S
C488 C487 1.392 . S
C488 C489 1.331 . S
C488 H506 0.932 . S
C489 C488 1.331 . S
C489 C490 1.336 . S
C490 C486 1.394 . S
C490 C489 1.336 . S
C490 H505 0.929 . S
C491 C481 1.386 . S
C491 C484 1.357 . S
C491 H504 0.928 . S
H492 C468 0.931 . S
H493 C470 0.930 . S
H494 C472 0.929 . S
H495 C473 0.931 . S
H496 C475 0.930 . S
H497 C479 0.931 . S
H498 C477 0.931 . S
H499 C481 0.931 . S
H500 C482 0.929 . S
H501 C483 0.930 . S
H502 C486 0.930 . S
H503 C487 0.931 . S
H504 C491 0.928 . S
H505 C490 0.929 . S
H506 C488 0.932 . S
C507 C508 1.386 . S
C507 C509 1.397 . S
C507 H531 0.931 . S
C508 C507 1.386 . S
C508 C512 1.397 . S
C509 C507 1.397 . S
C509 C510 1.384 . S
C509 H532 0.930 . S
C510 C509 1.384 . S
C510 C511 1.377 . S
C510 C513 1.481 . S
C511 C510 1.377 . S
C511 C512 1.389 . S
C511 H533 0.929 . S
C512 C508 1.397 . S
C512 C511 1.389 . S
C512 H534 0.931 . S
C513 C510 1.481 . S
C513 C514 1.387 . S
C513 C518 1.390 . S
C514 C513 1.387 . S
C514 C515 1.401 . S
C514 H535 0.930 . S
C515 C514 1.401 . S
C515 C516 1.376 . S
C515 C524 1.511 . S
C516 C515 1.376 . S
C516 C517 1.392 . S
C516 H537 0.931 . S
C517 C516 1.392 . S
C517 C518 1.361 . S
C517 C519 1.500 . S
C518 C513 1.390 . S
C518 C517 1.361 . S
C518 H536 0.931 . S
C519 C517 1.500 . S
C519 C520 1.371 . S
C519 C521 1.365 . S
C520 C519 1.371 . S
C520 C530 1.386 . S
C520 H538 0.931 . S
C521 C519 1.365 . S
C521 C522 1.409 . S
C521 H539 0.929 . S
C522 C521 1.409 . S
C522 C523 1.380 . S
C522 H540 0.930 . S
C523 C522 1.380 . S
C523 C530 1.357 . S
C524 C515 1.511 . S
C524 C525 1.341 . S
C524 C526 1.371 . S
C525 C524 1.341 . S
C525 C529 1.394 . S
C525 H541 0.930 . S
C526 C524 1.371 . S
C526 C527 1.392 . S
C526 H542 0.931 . S
C527 C526 1.392 . S
C527 C528 1.331 . S
C527 H545 0.932 . S
C528 C527 1.331 . S
C528 C529 1.336 . S
C529 C525 1.394 . S
C529 C528 1.336 . S
C529 H544 0.929 . S
C530 C520 1.386 . S
C530 C523 1.357 . S
C530 H543 0.928 . S
H531 C507 0.931 . S
H532 C509 0.930 . S
H533 C511 0.929 . S
H534 C512 0.931 . S
H535 C514 0.930 . S
H536 C518 0.931 . S
H537 C516 0.931 . S
H538 C520 0.931 . S
H539 C521 0.929 . S
H540 C522 0.930 . S
H541 C525 0.930 . S
H542 C526 0.931 . S
H543 C530 0.928 . S
H544 C529 0.929 . S
H545 C527 0.932 . S
C546 C547 1.386 . S
C546 C548 1.397 . S
C546 H570 0.931 . S
C547 C546 1.386 . S
C547 C551 1.397 . S
C548 C546 1.397 . S
C548 C549 1.384 . S
C548 H571 0.930 . S
C549 C548 1.384 . S
C549 C550 1.377 . S
C549 C552 1.481 . S
C550 C549 1.377 . S
C550 C551 1.389 . S
C550 H572 0.929 . S
C551 C547 1.397 . S
C551 C550 1.389 . S
C551 H573 0.931 . S
C552 C549 1.481 . S
C552 C553 1.387 . S
C552 C557 1.390 . S
C553 C552 1.387 . S
C553 C554 1.401 . S
C553 H574 0.930 . S
C554 C553 1.401 . S
C554 C555 1.376 . S
C554 C563 1.511 . S
C555 C554 1.376 . S
C555 C556 1.392 . S
C555 H576 0.931 . S
C556 C555 1.392 . S
C556 C557 1.361 . S
C556 C558 1.500 . S
C557 C552 1.390 . S
C557 C556 1.361 . S
C557 H575 0.931 . S
C558 C556 1.500 . S
C558 C559 1.371 . S
C558 C560 1.365 . S
C559 C558 1.371 . S
C559 C569 1.386 . S
C559 H577 0.931 . S
C560 C558 1.365 . S
C560 C561 1.409 . S
C560 H578 0.929 . S
C561 C560 1.409 . S
C561 C562 1.380 . S
C561 H579 0.930 . S
C562 C561 1.380 . S
C562 C569 1.357 . S
C563 C554 1.511 . S
C563 C564 1.341 . S
C563 C565 1.371 . S
C564 C563 1.341 . S
C564 C568 1.394 . S
C564 H580 0.930 . S
C565 C563 1.371 . S
C565 C566 1.392 . S
C565 H581 0.931 . S
C566 C565 1.392 . S
C566 C567 1.331 . S
C566 H584 0.932 . S
C567 C566 1.331 . S
C567 C568 1.336 . S
C568 C564 1.394 . S
C568 C567 1.336 . S
C568 H583 0.929 . S
C569 C559 1.386 . S
C569 C562 1.357 . S
C569 H582 0.928 . S
H570 C546 0.931 . S
H571 C548 0.930 . S
H572 C550 0.929 . S
H573 C551 0.931 . S
H574 C553 0.930 . S
H575 C557 0.931 . S
H576 C555 0.931 . S
H577 C559 0.931 . S
H578 C560 0.929 . S
H579 C561 0.930 . S
H580 C564 0.930 . S
H581 C565 0.931 . S
H582 C569 0.928 . S
H583 C568 0.929 . S
H584 C566 0.932 . S
C585 C586 1.386 . S
C585 C587 1.397 . S
C585 H609 0.931 . S
C586 C585 1.386 . S
C586 C590 1.397 . S
C587 C585 1.397 . S
C587 C588 1.384 . S
C587 H610 0.930 . S
C588 C587 1.384 . S
C588 C589 1.377 . S
C588 C591 1.481 . S
C589 C588 1.377 . S
C589 C590 1.389 . S
C589 H611 0.929 . S
C590 C586 1.397 . S
C590 C589 1.389 . S
C590 H612 0.931 . S
C591 C588 1.481 . S
C591 C592 1.387 . S
C591 C596 1.390 . S
C592 C591 1.387 . S
C592 C593 1.401 . S
C592 H613 0.930 . S
C593 C592 1.401 . S
C593 C594 1.376 . S
C593 C602 1.511 . S
C594 C593 1.376 . S
C594 C595 1.392 . S
C594 H615 0.931 . S
C595 C594 1.392 . S
C595 C596 1.361 . S
C595 C597 1.500 . S
C596 C591 1.390 . S
C596 C595 1.361 . S
C596 H614 0.931 . S
C597 C595 1.500 . S
C597 C598 1.371 . S
C597 C599 1.365 . S
C598 C597 1.371 . S
C598 C608 1.386 . S
C598 H616 0.931 . S
C599 C597 1.365 . S
C599 C600 1.409 . S
C599 H617 0.929 . S
C600 C599 1.409 . S
C600 C601 1.380 . S
C600 H618 0.930 . S
C601 C600 1.380 . S
C601 C608 1.357 . S
C602 C593 1.511 . S
C602 C603 1.341 . S
C602 C604 1.371 . S
C603 C602 1.341 . S
C603 C607 1.394 . S
C603 H619 0.930 . S
C604 C602 1.371 . S
C604 C605 1.392 . S
C604 H620 0.931 . S
C605 C604 1.392 . S
C605 C606 1.331 . S
C605 H623 0.932 . S
C606 C605 1.331 . S
C606 C607 1.336 . S
C607 C603 1.394 . S
C607 C606 1.336 . S
C607 H622 0.929 . S
C608 C598 1.386 . S
C608 C601 1.357 . S
C608 H621 0.928 . S
H609 C585 0.931 . S
H610 C587 0.930 . S
H611 C589 0.929 . S
H612 C590 0.931 . S
H613 C592 0.930 . S
H614 C596 0.931 . S
H615 C594 0.931 . S
H616 C598 0.931 . S
H617 C599 0.929 . S
H618 C600 0.930 . S
H619 C603 0.930 . S
H620 C604 0.931 . S
H621 C608 0.928 . S
H622 C607 0.929 . S
H623 C605 0.932 . S
C624 C625 1.386 1_655 S
C624 C626 1.397 1_655 S
C624 H648 0.931 . S
C625 C624 1.386 1_455 S
C625 C629 1.397 . S
C626 C624 1.397 1_455 S
C626 C627 1.384 . S
C626 H649 0.930 1_455 S
C627 C626 1.384 . S
C627 C628 1.377 . S
C627 C630 1.481 . S
C628 C627 1.377 . S
C628 C629 1.389 . S
C628 H650 0.929 . S
C629 C625 1.397 . S
C629 C628 1.389 . S
C629 H651 0.931 . S
C630 C627 1.481 . S
C630 C631 1.387 . S
C630 C635 1.390 . S
C631 C630 1.387 . S
C631 C632 1.401 . S
C631 H652 0.930 . S
C632 C631 1.401 . S
C632 C633 1.376 . S
C632 C641 1.511 . S
C633 C632 1.376 . S
C633 C634 1.392 . S
C633 H654 0.931 . S
C634 C633 1.392 . S
C634 C635 1.361 . S
C634 C636 1.500 . S
C635 C630 1.390 . S
C635 C634 1.361 . S
C635 H653 0.931 . S
C636 C634 1.500 . S
C636 C637 1.371 . S
C636 C638 1.365 . S
C637 C636 1.371 . S
C637 C647 1.386 . S
C637 H655 0.931 . S
C638 C636 1.365 . S
C638 C639 1.409 . S
C638 H656 0.929 . S
C639 C638 1.409 . S
C639 C640 1.380 . S
C639 H657 0.930 . S
C640 C639 1.380 . S
C640 C647 1.357 . S
C641 C632 1.511 . S
C641 C642 1.341 . S
C641 C643 1.371 . S
C642 C641 1.341 . S
C642 C646 1.394 . S
C642 H658 0.930 . S
C643 C641 1.371 . S
C643 C644 1.392 . S
C643 H659 0.931 . S
C644 C643 1.392 . S
C644 C645 1.331 . S
C644 H662 0.932 . S
C645 C644 1.331 . S
C645 C646 1.336 . S
C646 C642 1.394 . S
C646 C645 1.336 . S
C646 H661 0.929 . S
C647 C637 1.386 . S
C647 C640 1.357 . S
C647 H660 0.928 . S
H648 C624 0.931 . S
H649 C626 0.930 1_655 S
H650 C628 0.929 . S
H651 C629 0.931 . S
H652 C631 0.930 . S
H653 C635 0.931 . S
H654 C633 0.931 . S
H655 C637 0.931 . S
H656 C638 0.929 . S
H657 C639 0.930 . S
H658 C642 0.930 . S
H659 C643 0.931 . S
H660 C647 0.928 . S
H661 C646 0.929 . S
H662 C644 0.932 . S
C663 C664 1.386 . S
C663 C665 1.397 . S
C663 H687 0.931 . S
C664 C663 1.386 . S
C664 C668 1.397 . S
C665 C663 1.397 . S
C665 C666 1.384 . S
C665 H688 0.930 . S
C666 C665 1.384 . S
C666 C667 1.377 . S
C666 C669 1.481 . S
C667 C666 1.377 . S
C667 C668 1.389 . S
C667 H689 0.929 . S
C668 C664 1.397 . S
C668 C667 1.389 . S
C668 H690 0.931 . S
C669 C666 1.481 . S
C669 C670 1.387 . S
C669 C674 1.390 . S
C670 C669 1.387 . S
C670 C671 1.401 . S
C670 H691 0.930 . S
C671 C670 1.401 . S
C671 C672 1.376 . S
C671 C680 1.511 . S
C672 C671 1.376 . S
C672 C673 1.392 . S
C672 H693 0.931 . S
C673 C672 1.392 . S
C673 C674 1.361 . S
C673 C675 1.500 . S
C674 C669 1.390 . S
C674 C673 1.361 . S
C674 H692 0.931 . S
C675 C673 1.500 . S
C675 C676 1.371 . S
C675 C677 1.365 . S
C676 C675 1.371 . S
C676 C686 1.386 . S
C676 H694 0.931 . S
C677 C675 1.365 . S
C677 C678 1.409 . S
C677 H695 0.929 . S
C678 C677 1.409 . S
C678 C679 1.380 . S
C678 H696 0.930 . S
C679 C678 1.380 . S
C679 C686 1.357 . S
C680 C671 1.511 . S
C680 C681 1.341 . S
C680 C682 1.371 . S
C681 C680 1.341 . S
C681 C685 1.394 . S
C681 H697 0.930 . S
C682 C680 1.371 . S
C682 C683 1.392 . S
C682 H698 0.931 . S
C683 C682 1.392 . S
C683 C684 1.331 . S
C683 H701 0.932 . S
C684 C683 1.331 . S
C684 C685 1.336 . S
C685 C681 1.394 . S
C685 C684 1.336 . S
C685 H700 0.929 . S
C686 C676 1.386 . S
C686 C679 1.357 . S
C686 H699 0.928 . S
H687 C663 0.931 . S
H688 C665 0.930 . S
H689 C667 0.929 . S
H690 C668 0.931 . S
H691 C670 0.930 . S
H692 C674 0.931 . S
H693 C672 0.931 . S
H694 C676 0.931 . S
H695 C677 0.929 . S
H696 C678 0.930 . S
H697 C681 0.930 . S
H698 C682 0.931 . S
H699 C686 0.928 . S
H700 C685 0.929 . S
H701 C683 0.932 . S
Eu702 C711 2.828 . S
Eu702 O713 2.392 1_556 S
Eu702 O715 2.418 . S
Eu702 O720 2.373 1_565 S
Eu702 O723 2.488 . S
Eu702 O724 2.443 1_565 S
Eu702 O725 2.349 1_565 S
Eu703 O712 2.373 1_545 S
Eu703 O716 2.488 . S
Eu703 O717 2.455 1_545 S
Eu703 O718 2.349 1_545 S
Eu703 O721 2.392 . S
Eu703 O722 2.418 . S
Eu703 C732 2.828 . S
C704 O722 1.305 . S
C704 O725 1.243 1_554 S
C705 C706 1.379 1_565 S
C705 C709 1.373 . S
C705 C711 1.505 . S
C706 C705 1.379 1_545 S
C706 C708 1.369 . S
C706 H734 0.930 . S
C707 C709 1.383 . S
C707 C710 1.382 1_565 S
C707 H735 0.930 . S
C708 C706 1.369 . S
C708 C710 1.392 . S
C708 H736 0.930 . S
C709 C705 1.373 . S
C709 C707 1.383 . S
C709 H737 0.931 . S
C710 C707 1.382 1_545 S
C710 C708 1.392 . S
C711 Eu702 2.828 . S
C711 C705 1.505 . S
C711 O723 1.249 . S
C711 O724 1.201 1_565 S
O712 Eu703 2.373 1_565 S
O712 C714 1.258 . S
O713 Eu702 2.392 1_554 S
O713 C714 1.242 . S
C714 O712 1.258 . S
C714 O713 1.242 . S
O715 Eu702 2.418 . S
O715 C719 1.244 1_556 S
O716 Eu703 2.488 . S
O716 C732 1.249 . S
O717 Eu703 2.455 1_565 S
O717 C732 1.220 1_565 S
O718 Eu703 2.349 1_565 S
O718 C719 1.265 . S
C719 O715 1.244 1_554 S
C719 O718 1.265 . S
O720 Eu702 2.373 1_545 S
O720 C733 1.258 . S
O721 Eu703 2.392 . S
O721 C733 1.242 1_554 S
O722 Eu703 2.418 . S
O722 C704 1.305 . S
O723 Eu702 2.488 . S
O723 C711 1.249 . S
O724 Eu702 2.443 1_545 S
O724 C711 1.201 1_545 S
O725 Eu702 2.349 1_545 S
O725 C704 1.243 1_556 S
C726 C727 1.379 1_545 S
C726 C730 1.373 . S
C726 C732 1.505 . S
C727 C726 1.379 1_565 S
C727 C729 1.369 . S
C727 H738 0.930 . S
C728 C730 1.383 . S
C728 C731 1.382 1_545 S
C728 H739 0.930 . S
C729 C727 1.369 . S
C729 C731 1.392 . S
C729 H740 0.930 . S
C730 C726 1.373 . S
C730 C728 1.383 . S
C730 H741 0.931 . S
C731 C728 1.382 1_565 S
C731 C729 1.392 . S
C732 Eu703 2.828 . S
C732 O716 1.249 . S
C732 O717 1.220 1_545 S
C732 C726 1.505 . S
C733 O720 1.258 . S
C733 O721 1.242 1_556 S
H734 C706 0.930 . S
H735 C707 0.930 . S
H736 C708 0.930 . S
H737 C709 0.931 . S
H738 C727 0.930 . S
H739 C728 0.930 . S
H740 C729 0.930 . S
H741 C730 0.931 . S
Eu742 C751 2.828 . S
Eu742 O753 2.392 1_556 S
Eu742 O755 2.418 . S
Eu742 O760 2.373 1_455 S
Eu742 O763 2.488 . S
Eu742 O764 2.471 1_455 S
Eu742 O765 2.349 1_455 S
Eu743 O752 2.373 1_655 S
Eu743 O756 2.488 . S
Eu743 O757 2.471 1_655 S
Eu743 O758 2.349 1_655 S
Eu743 O761 2.392 . S
Eu743 O762 2.418 . S
Eu743 C772 2.828 . S
C744 O762 1.244 1_556 S
C744 O765 1.265 . S
C745 C746 1.379 1_455 S
C745 C749 1.373 . S
C745 C751 1.505 . S
C746 C745 1.379 1_655 S
C746 C748 1.369 . S
C746 H774 0.930 . S
C747 C749 1.383 . S
C747 C750 1.382 1_455 S
C747 H775 0.930 . S
C748 C746 1.369 . S
C748 C750 1.392 . S
C748 H776 0.930 . S
C749 C745 1.373 . S
C749 C747 1.383 . S
C749 H777 0.931 . S
C750 C747 1.382 1_655 S
C750 C748 1.392 . S
C751 Eu742 2.828 . S
C751 C745 1.505 . S
C751 O763 1.249 . S
C751 O764 1.244 1_455 S
O752 Eu743 2.373 1_455 S
O752 C754 1.258 . S
O753 Eu742 2.392 1_554 S
O753 C754 1.242 . S
C754 O752 1.258 . S
C754 O753 1.242 . S
O755 Eu742 2.418 . S
O755 C759 1.244 1_556 S
O756 Eu743 2.488 . S
O756 C772 1.249 . S
O757 Eu743 2.471 1_455 S
O757 C772 1.244 1_455 S
O758 Eu743 2.349 1_455 S
O758 C759 1.265 . S
C759 O755 1.244 1_554 S
C759 O758 1.265 . S
O760 Eu742 2.373 1_655 S
O760 C773 1.258 . S
O761 Eu743 2.392 . S
O761 C773 1.242 1_554 S
O762 Eu743 2.418 . S
O762 C744 1.244 1_554 S
O763 Eu742 2.488 . S
O763 C751 1.249 . S
O764 Eu742 2.471 1_655 S
O764 C751 1.244 1_655 S
O765 Eu742 2.349 1_655 S
O765 C744 1.265 . S
C766 C767 1.379 1_655 S
C766 C770 1.373 . S
C766 C772 1.505 . S
C767 C766 1.379 1_455 S
C767 C769 1.369 . S
C767 H778 0.930 . S
C768 C770 1.383 . S
C768 C771 1.382 1_655 S
C768 H779 0.930 . S
C769 C767 1.369 . S
C769 C771 1.392 . S
C769 H780 0.930 . S
C770 C766 1.373 . S
C770 C768 1.383 . S
C770 H781 0.931 . S
C771 C768 1.382 1_455 S
C771 C769 1.392 . S
C772 Eu743 2.828 . S
C772 O756 1.249 . S
C772 O757 1.244 1_655 S
C772 C766 1.505 . S
C773 O760 1.258 . S
C773 O761 1.242 1_556 S
H774 C746 0.930 . S
H775 C747 0.930 . S
H776 C748 0.930 . S
H777 C749 0.931 . S
H778 C767 0.930 . S
H779 C768 0.930 . S
H780 C769 0.930 . S
H781 C770 0.931 . S
Eu782 C791 2.828 . S
Eu782 O793 2.392 . S
Eu782 O795 2.418 . S
Eu782 O800 2.373 . S
Eu782 O803 2.488 . S
Eu782 O804 2.471 . S
Eu782 O805 2.349 . S
Eu783 O792 2.373 . S
Eu783 O796 2.488 . S
Eu783 O797 2.471 . S
Eu783 O798 2.349 . S
Eu783 O801 2.392 1_556 S
Eu783 O802 2.418 . S
Eu783 C812 2.828 . S
C784 O802 1.244 1_554 S
C784 O805 1.265 . S
C785 C786 1.379 . S
C785 C789 1.373 . S
C785 C791 1.505 . S
C786 C785 1.379 . S
C786 C788 1.369 . S
C786 H814 0.930 . S
C787 C789 1.383 . S
C787 C790 1.382 . S
C787 H815 0.930 . S
C788 C786 1.369 . S
C788 C790 1.392 . S
C788 H816 0.930 . S
C789 C785 1.373 . S
C789 C787 1.383 . S
C789 H817 0.931 . S
C790 C787 1.382 . S
C790 C788 1.392 . S
C791 Eu782 2.828 . S
C791 C785 1.505 . S
C791 O803 1.249 . S
C791 O804 1.244 . S
O792 Eu783 2.373 . S
O792 C794 1.258 . S
O793 Eu782 2.392 . S
O793 C794 1.242 1_554 S
C794 O792 1.258 . S
C794 O793 1.242 1_556 S
O795 Eu782 2.418 . S
O795 C799 1.244 1_554 S
O796 Eu783 2.488 . S
O796 C812 1.249 . S
O797 Eu783 2.471 . S
O797 C812 1.244 . S
O798 Eu783 2.349 . S
O798 C799 1.265 . S
C799 O795 1.244 1_556 S
C799 O798 1.265 . S
O800 Eu782 2.373 . S
O800 C813 1.258 . S
O801 Eu783 2.392 1_554 S
O801 C813 1.242 . S
O802 Eu783 2.418 . S
O802 C784 1.244 1_556 S
O803 Eu782 2.488 . S
O803 C791 1.249 . S
O804 Eu782 2.471 . S
O804 C791 1.244 . S
O805 Eu782 2.349 . S
O805 C784 1.265 . S
C806 C807 1.379 . S
C806 C810 1.373 . S
C806 C812 1.505 . S
C807 C806 1.379 . S
C807 C809 1.369 . S
C807 H818 0.930 . S
C808 C810 1.383 . S
C808 C811 1.382 . S
C808 H819 0.930 . S
C809 C807 1.369 . S
C809 C811 1.392 . S
C809 H820 0.930 . S
C810 C806 1.373 . S
C810 C808 1.383 . S
C810 H821 0.931 . S
C811 C808 1.382 . S
C811 C809 1.392 . S
C812 Eu783 2.828 . S
C812 O796 1.249 . S
C812 O797 1.244 . S
C812 C806 1.505 . S
C813 O800 1.258 . S
C813 O801 1.242 . S
H814 C786 0.930 . S
H815 C787 0.930 . S
H816 C788 0.930 . S
H817 C789 0.931 . S
H818 C807 0.930 . S
H819 C808 0.930 . S
H820 C809 0.930 . S
H821 C810 0.931 . S
Eu822 C831 2.828 . S
Eu822 O833 2.392 . S
Eu822 O835 2.418 . S
Eu822 O840 2.373 . S
Eu822 O843 2.488 . S
Eu822 O844 2.471 . S
Eu822 O845 2.349 . S
Eu823 O832 2.373 . S
Eu823 O836 2.488 . S
Eu823 O837 2.471 . S
Eu823 O838 2.349 . S
Eu823 O841 2.392 . S
Eu823 O842 2.418 . S
Eu823 C852 2.828 . S
C824 O842 1.244 . S
C824 O845 1.265 . S
C825 C826 1.379 . S
C825 C829 1.373 . S
C825 C831 1.505 . S
C826 C825 1.379 . S
C826 C828 1.369 . S
C826 H854 0.930 . S
C827 C829 1.383 . S
C827 C830 1.382 . S
C827 H855 0.930 . S
C828 C826 1.369 . S
C828 C830 1.392 . S
C828 H856 0.930 . S
C829 C825 1.373 . S
C829 C827 1.383 . S
C829 H857 0.931 . S
C830 C827 1.382 . S
C830 C828 1.392 . S
C831 Eu822 2.828 . S
C831 C825 1.505 . S
C831 O843 1.249 . S
C831 O844 1.244 . S
O832 Eu823 2.373 . S
O832 C834 1.258 . S
O833 Eu822 2.392 . S
O833 C834 1.242 . S
C834 O832 1.258 . S
C834 O833 1.242 . S
O835 Eu822 2.418 . S
O835 C839 1.244 . S
O836 Eu823 2.488 . S
O836 C852 1.249 . S
O837 Eu823 2.471 . S
O837 C852 1.244 . S
O838 Eu823 2.349 . S
O838 C839 1.265 . S
C839 O835 1.244 . S
C839 O838 1.265 . S
O840 Eu822 2.373 . S
O840 C853 1.258 . S
O841 Eu823 2.392 . S
O841 C853 1.242 . S
O842 Eu823 2.418 . S
O842 C824 1.244 . S
O843 Eu822 2.488 . S
O843 C831 1.249 . S
O844 Eu822 2.471 . S
O844 C831 1.244 . S
O845 Eu822 2.349 . S
O845 C824 1.265 . S
C846 C847 1.379 . S
C846 C850 1.373 . S
C846 C852 1.505 . S
C847 C846 1.379 . S
C847 C849 1.369 . S
C847 H858 0.930 . S
C848 C850 1.383 . S
C848 C851 1.382 . S
C848 H859 0.930 . S
C849 C847 1.369 . S
C849 C851 1.392 . S
C849 H860 0.930 . S
C850 C846 1.373 . S
C850 C848 1.383 . S
C850 H861 0.931 . S
C851 C848 1.382 . S
C851 C849 1.392 . S
C852 Eu823 2.828 . S
C852 O836 1.249 . S
C852 O837 1.244 . S
C852 C846 1.505 . S
C853 O840 1.258 . S
C853 O841 1.242 . S
H854 C826 0.930 . S
H855 C827 0.930 . S
H856 C828 0.930 . S
H857 C829 0.931 . S
H858 C847 0.930 . S
H859 C848 0.930 . S
H860 C849 0.930 . S
H861 C850 0.931 . S
Eu862 C871 2.828 . S
Eu862 O873 2.392 . S
Eu862 O875 2.418 . S
Eu862 O880 2.373 . S
Eu862 O883 2.488 . S
Eu862 O884 2.471 . S
Eu862 O885 2.349 . S
Eu863 O872 2.373 . S
Eu863 O876 2.488 . S
Eu863 O877 2.471 . S
Eu863 O878 2.349 . S
Eu863 O881 2.392 . S
Eu863 O882 2.418 . S
Eu863 C892 2.828 . S
C864 O882 1.244 . S
C864 O885 1.265 . S
C865 C866 1.379 . S
C865 C869 1.373 . S
C865 C871 1.505 . S
C866 C865 1.379 . S
C866 C868 1.369 . S
C866 H894 0.930 . S
C867 C869 1.383 . S
C867 C870 1.382 . S
C867 H895 0.930 . S
C868 C866 1.369 . S
C868 C870 1.392 . S
C868 H896 0.930 . S
C869 C865 1.373 . S
C869 C867 1.383 . S
C869 H897 0.931 . S
C870 C867 1.382 . S
C870 C868 1.392 . S
C871 Eu862 2.828 . S
C871 C865 1.505 . S
C871 O883 1.249 . S
C871 O884 1.244 . S
O872 Eu863 2.373 . S
O872 C874 1.258 . S
O873 Eu862 2.392 . S
O873 C874 1.242 . S
C874 O872 1.258 . S
C874 O873 1.242 . S
O875 Eu862 2.418 . S
O875 C879 1.244 . S
O876 Eu863 2.488 . S
O876 C892 1.249 . S
O877 Eu863 2.471 . S
O877 C892 1.244 . S
O878 Eu863 2.349 . S
O878 C879 1.265 . S
C879 O875 1.244 . S
C879 O878 1.265 . S
O880 Eu862 2.373 . S
O880 C893 1.258 . S
O881 Eu863 2.392 . S
O881 C893 1.242 . S
O882 Eu863 2.418 . S
O882 C864 1.244 . S
O883 Eu862 2.488 . S
O883 C871 1.249 . S
O884 Eu862 2.471 . S
O884 C871 1.244 . S
O885 Eu862 2.349 . S
O885 C864 1.265 . S
C886 C887 1.379 . S
C886 C890 1.373 . S
C886 C892 1.505 . S
C887 C886 1.379 . S
C887 C889 1.369 . S
C887 H898 0.930 . S
C888 C890 1.383 . S
C888 C891 1.382 . S
C888 H899 0.930 . S
C889 C887 1.369 . S
C889 C891 1.392 . S
C889 H900 0.930 . S
C890 C886 1.373 . S
C890 C888 1.383 . S
C890 H901 0.931 . S
C891 C888 1.382 . S
C891 C889 1.392 . S
C892 Eu863 2.828 . S
C892 O876 1.249 . S
C892 O877 1.244 . S
C892 C886 1.505 . S
C893 O880 1.258 . S
C893 O881 1.242 . S
H894 C866 0.930 . S
H895 C867 0.930 . S
H896 C868 0.930 . S
H897 C869 0.931 . S
H898 C887 0.930 . S
H899 C888 0.930 . S
H900 C889 0.930 . S
H901 C890 0.931 . S
Eu902 C911 2.828 . S
Eu902 O913 2.392 . S
Eu902 O915 2.418 . S
Eu902 O920 2.373 . S
Eu902 O923 2.488 . S
Eu902 O924 2.471 . S
Eu902 O925 2.349 . S
Eu903 O912 2.373 . S
Eu903 O916 2.488 . S
Eu903 O917 2.471 . S
Eu903 O918 2.349 . S
Eu903 O921 2.392 . S
Eu903 O922 2.418 . S
Eu903 C932 2.828 . S
C904 O922 1.244 . S
C904 O925 1.265 . S
C905 C906 1.379 . S
C905 C909 1.373 . S
C905 C911 1.505 . S
C906 C905 1.379 . S
C906 C908 1.369 . S
C906 H934 0.930 . S
C907 C909 1.383 . S
C907 C910 1.382 . S
C907 H935 0.930 . S
C908 C906 1.369 . S
C908 C910 1.392 . S
C908 H936 0.930 . S
C909 C905 1.373 . S
C909 C907 1.383 . S
C909 H937 0.931 . S
C910 C907 1.382 . S
C910 C908 1.392 . S
C911 Eu902 2.828 . S
C911 C905 1.505 . S
C911 O923 1.249 . S
C911 O924 1.244 . S
O912 Eu903 2.373 . S
O912 C914 1.258 . S
O913 Eu902 2.392 . S
O913 C914 1.242 . S
C914 O912 1.258 . S
C914 O913 1.242 . S
O915 Eu902 2.418 . S
O915 C919 1.244 . S
O916 Eu903 2.488 . S
O916 C932 1.249 . S
O917 Eu903 2.471 . S
O917 C932 1.244 . S
O918 Eu903 2.349 . S
O918 C919 1.265 . S
C919 O915 1.244 . S
C919 O918 1.265 . S
O920 Eu902 2.373 . S
O920 C933 1.258 . S
O921 Eu903 2.392 . S
O921 C933 1.242 . S
O922 Eu903 2.418 . S
O922 C904 1.244 . S
O923 Eu902 2.488 . S
O923 C911 1.249 . S
O924 Eu902 2.471 . S
O924 C911 1.244 . S
O925 Eu902 2.349 . S
O925 C904 1.265 . S
C926 C927 1.379 . S
C926 C930 1.373 . S
C926 C932 1.505 . S
C927 C926 1.379 . S
C927 C929 1.369 . S
C927 H938 0.930 . S
C928 C930 1.383 . S
C928 C931 1.382 . S
C928 H939 0.930 . S
C929 C927 1.369 . S
C929 C931 1.392 . S
C929 H940 0.930 . S
C930 C926 1.373 . S
C930 C928 1.383 . S
C930 H941 0.931 . S
C931 C928 1.382 . S
C931 C929 1.392 . S
C932 Eu903 2.828 . S
C932 O916 1.249 . S
C932 O917 1.244 . S
C932 C926 1.505 . S
C933 O920 1.258 . S
C933 O921 1.242 . S
H934 C906 0.930 . S
H935 C907 0.930 . S
H936 C908 0.930 . S
H937 C909 0.931 . S
H938 C927 0.930 . S
H939 C928 0.930 . S
H940 C929 0.930 . S
H941 C930 0.931 . S
Eu942 C951 2.828 . S
Eu942 O953 2.392 . S
Eu942 O955 2.418 . S
Eu942 O960 2.373 . S
Eu942 O963 2.488 . S
Eu942 O964 2.471 . S
Eu942 O965 2.349 . S
Eu943 O952 2.373 . S
Eu943 O956 2.488 . S
Eu943 O957 2.471 . S
Eu943 O958 2.349 . S
Eu943 O961 2.392 . S
Eu943 O962 2.418 . S
Eu943 C972 2.828 . S
C944 O962 1.244 . S
C944 O965 1.265 . S
C945 C946 1.379 . S
C945 C949 1.373 . S
C945 C951 1.505 . S
C946 C945 1.379 . S
C946 C948 1.369 . S
C946 H974 0.930 . S
C947 C949 1.383 . S
C947 C950 1.382 . S
C947 H975 0.930 . S
C948 C946 1.369 . S
C948 C950 1.392 . S
C948 H976 0.930 . S
C949 C945 1.373 . S
C949 C947 1.383 . S
C949 H977 0.931 . S
C950 C947 1.382 . S
C950 C948 1.392 . S
C951 Eu942 2.828 . S
C951 C945 1.505 . S
C951 O963 1.249 . S
C951 O964 1.244 . S
O952 Eu943 2.373 . S
O952 C954 1.258 . S
O953 Eu942 2.392 . S
O953 C954 1.242 . S
C954 O952 1.258 . S
C954 O953 1.242 . S
O955 Eu942 2.418 . S
O955 C959 1.244 . S
O956 Eu943 2.488 . S
O956 C972 1.249 . S
O957 Eu943 2.471 . S
O957 C972 1.244 . S
O958 Eu943 2.349 . S
O958 C959 1.265 . S
C959 O955 1.244 . S
C959 O958 1.265 . S
O960 Eu942 2.373 . S
O960 C973 1.258 . S
O961 Eu943 2.392 . S
O961 C973 1.242 . S
O962 Eu943 2.418 . S
O962 C944 1.244 . S
O963 Eu942 2.488 . S
O963 C951 1.249 . S
O964 Eu942 2.471 . S
O964 C951 1.244 . S
O965 Eu942 2.349 . S
O965 C944 1.265 . S
C966 C967 1.379 . S
C966 C970 1.373 . S
C966 C972 1.505 . S
C967 C966 1.379 . S
C967 C969 1.369 . S
C967 H978 0.930 . S
C968 C970 1.383 . S
C968 C971 1.382 . S
C968 H979 0.930 . S
C969 C967 1.369 . S
C969 C971 1.392 . S
C969 H980 0.930 . S
C970 C966 1.373 . S
C970 C968 1.383 . S
C970 H981 0.931 . S
C971 C968 1.382 . S
C971 C969 1.392 . S
C972 Eu943 2.828 . S
C972 O956 1.249 . S
C972 O957 1.244 . S
C972 C966 1.505 . S
C973 O960 1.258 . S
C973 O961 1.242 . S
H974 C946 0.930 . S
H975 C947 0.930 . S
H976 C948 0.930 . S
H977 C949 0.931 . S
H978 C967 0.930 . S
H979 C968 0.930 . S
H980 C969 0.930 . S
H981 C970 0.931 . S
Eu982 C991 2.828 . S
Eu982 O993 2.392 . S
Eu982 O995 2.418 . S
Eu982 O1000 2.373 . S
Eu982 O1003 2.488 . S
Eu982 O1004 2.471 . S
Eu982 O1005 2.349 . S
Eu983 O992 2.373 . S
Eu983 O996 2.488 . S
Eu983 O997 2.471 . S
Eu983 O998 2.349 . S
Eu983 O1001 2.392 . S
Eu983 O1002 2.418 . S
Eu983 C1012 2.828 . S
C984 O1002 1.244 . S
C984 O1005 1.265 . S
C985 C986 1.379 . S
C985 C989 1.373 . S
C985 C991 1.505 . S
C986 C985 1.379 . S
C986 C988 1.369 . S
C986 H1014 0.930 . S
C987 C989 1.383 . S
C987 C990 1.382 . S
C987 H1015 0.930 . S
C988 C986 1.369 . S
C988 C990 1.392 . S
C988 H1016 0.930 . S
C989 C985 1.373 . S
C989 C987 1.383 . S
C989 H1017 0.931 . S
C990 C987 1.382 . S
C990 C988 1.392 . S
C991 Eu982 2.828 . S
C991 C985 1.505 . S
C991 O1003 1.249 . S
C991 O1004 1.244 . S
O992 Eu983 2.373 . S
O992 C994 1.258 . S
O993 Eu982 2.392 . S
O993 C994 1.242 . S
C994 O992 1.258 . S
C994 O993 1.242 . S
O995 Eu982 2.418 . S
O995 C999 1.244 . S
O996 Eu983 2.488 . S
O996 C1012 1.249 . S
O997 Eu983 2.471 . S
O997 C1012 1.244 . S
O998 Eu983 2.349 . S
O998 C999 1.265 . S
C999 O995 1.244 . S
C999 O998 1.265 . S
O1000 Eu982 2.373 . S
O1000 C1013 1.258 . S
O1001 Eu983 2.392 . S
O1001 C1013 1.242 . S
O1002 Eu983 2.418 . S
O1002 C984 1.244 . S
O1003 Eu982 2.488 . S
O1003 C991 1.249 . S
O1004 Eu982 2.471 . S
O1004 C991 1.244 . S
O1005 Eu982 2.349 . S
O1005 C984 1.265 . S
C1006 C1007 1.379 . S
C1006 C1010 1.373 . S
C1006 C1012 1.505 . S
C1007 C1006 1.379 . S
C1007 C1009 1.369 . S
C1007 H1018 0.930 . S
C1008 C1010 1.383 . S
C1008 C1011 1.382 . S
C1008 H1019 0.930 . S
C1009 C1007 1.369 . S
C1009 C1011 1.392 . S
C1009 H1020 0.930 . S
C1010 C1006 1.373 . S
C1010 C1008 1.383 . S
C1010 H1021 0.931 . S
C1011 C1008 1.382 . S
C1011 C1009 1.392 . S
C1012 Eu983 2.828 . S
C1012 O996 1.249 . S
C1012 O997 1.244 . S
C1012 C1006 1.505 . S
C1013 O1000 1.258 . S
C1013 O1001 1.242 . S
H1014 C986 0.930 . S
H1015 C987 0.930 . S
H1016 C988 0.930 . S
H1017 C989 0.931 . S
H1018 C1007 0.930 . S
H1019 C1008 0.930 . S
H1020 C1009 0.930 . S
H1021 C1010 0.931 . S
Eu1022 C1031 2.828 . S
Eu1022 O1033 2.392 . S
Eu1022 O1035 2.418 . S
Eu1022 O1040 2.373 . S
Eu1022 O1043 2.488 . S
Eu1022 O1044 2.471 . S
Eu1022 O1045 2.349 . S
Eu1023 O1032 2.373 . S
Eu1023 O1036 2.488 . S
Eu1023 O1037 2.471 . S
Eu1023 O1038 2.349 . S
Eu1023 O1041 2.392 . S
Eu1023 O1042 2.418 . S
Eu1023 C1052 2.828 . S
C1024 O1042 1.244 . S
C1024 O1045 1.265 . S
C1025 C1026 1.379 . S
C1025 C1029 1.373 . S
C1025 C1031 1.505 . S
C1026 C1025 1.379 . S
C1026 C1028 1.369 . S
C1026 H1054 0.930 . S
C1027 C1029 1.383 . S
C1027 C1030 1.382 . S
C1027 H1055 0.930 . S
C1028 C1026 1.369 . S
C1028 C1030 1.392 . S
C1028 H1056 0.930 . S
C1029 C1025 1.373 . S
C1029 C1027 1.383 . S
C1029 H1057 0.931 . S
C1030 C1027 1.382 . S
C1030 C1028 1.392 . S
C1031 Eu1022 2.828 . S
C1031 C1025 1.505 . S
C1031 O1043 1.249 . S
C1031 O1044 1.244 . S
O1032 Eu1023 2.373 . S
O1032 C1034 1.258 . S
O1033 Eu1022 2.392 . S
O1033 C1034 1.242 . S
C1034 O1032 1.258 . S
C1034 O1033 1.242 . S
O1035 Eu1022 2.418 . S
O1035 C1039 1.244 . S
O1036 Eu1023 2.488 . S
O1036 C1052 1.249 . S
O1037 Eu1023 2.471 . S
O1037 C1052 1.244 . S
O1038 Eu1023 2.349 . S
O1038 C1039 1.265 . S
C1039 O1035 1.244 . S
C1039 O1038 1.265 . S
O1040 Eu1022 2.373 . S
O1040 C1053 1.258 . S
O1041 Eu1023 2.392 . S
O1041 C1053 1.242 . S
O1042 Eu1023 2.418 . S
O1042 C1024 1.244 . S
O1043 Eu1022 2.488 . S
O1043 C1031 1.249 . S
O1044 Eu1022 2.471 . S
O1044 C1031 1.244 . S
O1045 Eu1022 2.349 . S
O1045 C1024 1.265 . S
C1046 C1047 1.379 . S
C1046 C1050 1.373 . S
C1046 C1052 1.505 . S
C1047 C1046 1.379 . S
C1047 C1049 1.369 . S
C1047 H1058 0.930 . S
C1048 C1050 1.383 . S
C1048 C1051 1.382 . S
C1048 H1059 0.930 . S
C1049 C1047 1.369 . S
C1049 C1051 1.392 . S
C1049 H1060 0.930 . S
C1050 C1046 1.373 . S
C1050 C1048 1.383 . S
C1050 H1061 0.931 . S
C1051 C1048 1.382 . S
C1051 C1049 1.392 . S
C1052 Eu1023 2.828 . S
C1052 O1036 1.249 . S
C1052 O1037 1.244 . S
C1052 C1046 1.505 . S
C1053 O1040 1.258 . S
C1053 O1041 1.242 . S
H1054 C1026 0.930 . S
H1055 C1027 0.930 . S
H1056 C1028 0.930 . S
H1057 C1029 0.931 . S
H1058 C1047 0.930 . S
H1059 C1048 0.930 . S
H1060 C1049 0.930 . S
H1061 C1050 0.931 . S
C1062 C1063 1.391 . S
C1062 C1064 1.394 . S
C1062 H1078 0.931 . S
C1063 C1062 1.391 . S
C1063 C1067 1.376 . S
C1064 C1062 1.394 . S
C1064 C1065 1.369 . S
C1064 C1068 1.531 . S
C1065 C1064 1.369 . S
C1065 C1066 1.410 . S
C1065 C1073 1.503 . S
C1066 C1065 1.410 . S
C1066 C1067 1.392 . S
C1066 C1069 1.511 . S
C1067 C1063 1.376 . S
C1067 C1066 1.392 . S
C1067 H1079 0.929 . S
C1068 C1064 1.531 . S
C1068 H1080 0.960 . S
C1068 H1081 0.962 . S
C1068 H1082 0.960 . S
C1069 C1066 1.511 . S
C1069 H1083 0.961 . S
C1069 H1084 0.961 . S
C1069 H1085 0.961 . S
C1070 C1071 1.370 . S
C1070 C1072 1.363 . S
C1070 H1086 0.931 . S
C1071 C1070 1.370 . S
C1071 C1075 1.408 . S
C1072 C1070 1.363 . S
C1072 C1073 1.370 . S
C1072 C1076 1.524 . S
C1073 C1065 1.503 . S
C1073 C1072 1.370 . S
C1073 C1074 1.403 . S
C1074 C1073 1.403 . S
C1074 C1075 1.404 . S
C1074 C1077 1.539 1_554 S
C1075 C1071 1.408 . S
C1075 C1074 1.404 . S
C1075 H1087 0.930 1_554 S
C1076 C1072 1.524 . S
C1076 H1088 0.956 . S
C1076 H1089 0.961 . S
C1076 H1090 0.961 . S
C1077 C1074 1.539 1_556 S
C1077 H1091 0.958 . S
C1077 H1092 0.961 . S
C1077 H1093 0.960 1_556 S
H1078 C1062 0.931 . S
H1079 C1067 0.929 . S
H1080 C1068 0.960 . S
H1081 C1068 0.962 . S
H1082 C1068 0.960 . S
H1083 C1069 0.961 . S
H1084 C1069 0.961 . S
H1085 C1069 0.961 . S
H1086 C1070 0.931 . S
H1087 C1075 0.930 1_556 S
H1088 C1076 0.956 . S
H1089 C1076 0.961 . S
H1090 C1076 0.961 . S
H1091 C1077 0.958 . S
H1092 C1077 0.961 . S
H1093 C1077 0.960 1_554 S
C1094 C1095 1.391 . S
C1094 C1096 1.394 . S
C1094 H1110 0.931 . S
C1095 C1094 1.391 . S
C1095 C1099 1.376 . S
C1096 C1094 1.394 . S
C1096 C1097 1.369 . S
C1096 C1100 1.531 . S
C1097 C1096 1.369 . S
C1097 C1098 1.410 . S
C1097 C1105 1.503 . S
C1098 C1097 1.410 . S
C1098 C1099 1.392 . S
C1098 C1101 1.511 . S
C1099 C1095 1.376 . S
C1099 C1098 1.392 . S
C1099 H1111 0.929 . S
C1100 C1096 1.531 . S
C1100 H1112 0.960 . S
C1100 H1113 0.962 . S
C1100 H1114 0.960 . S
C1101 C1098 1.511 . S
C1101 H1115 0.961 . S
C1101 H1116 0.961 . S
C1101 H1117 0.961 . S
C1102 C1103 1.370 . S
C1102 C1104 1.363 . S
C1102 H1118 0.931 . S
C1103 C1102 1.370 . S
C1103 C1107 1.408 . S
C1104 C1102 1.363 . S
C1104 C1105 1.370 . S
C1104 C1108 1.524 . S
C1105 C1097 1.503 . S
C1105 C1104 1.370 . S
C1105 C1106 1.403 . S
C1106 C1105 1.403 . S
C1106 C1107 1.404 . S
C1106 C1109 1.539 . S
C1107 C1103 1.408 . S
C1107 C1106 1.404 . S
C1107 H1119 0.930 . S
C1108 C1104 1.524 . S
C1108 H1120 0.956 . S
C1108 H1121 0.961 . S
C1108 H1122 0.961 . S
C1109 C1106 1.539 . S
C1109 H1123 0.958 . S
C1109 H1124 0.961 . S
C1109 H1125 0.960 . S
H1110 C1094 0.931 . S
H1111 C1099 0.929 . S
H1112 C1100 0.960 . S
H1113 C1100 0.962 . S
H1114 C1100 0.960 . S
H1115 C1101 0.961 . S
H1116 C1101 0.961 . S
H1117 C1101 0.961 . S
H1118 C1102 0.931 . S
H1119 C1107 0.930 . S
H1120 C1108 0.956 . S
H1121 C1108 0.961 . S
H1122 C1108 0.961 . S
H1123 C1109 0.958 . S
H1124 C1109 0.961 . S
H1125 C1109 0.960 . S
C1126 C1127 1.391 . S
C1126 C1128 1.394 . S
C1126 H1142 0.931 . S
C1127 C1126 1.391 . S
C1127 C1131 1.376 . S
C1128 C1126 1.394 . S
C1128 C1129 1.369 . S
C1128 C1132 1.531 . S
C1129 C1128 1.369 . S
C1129 C1130 1.410 . S
C1129 C1137 1.503 . S
C1130 C1129 1.410 . S
C1130 C1131 1.392 . S
C1130 C1133 1.511 . S
C1131 C1127 1.376 . S
C1131 C1130 1.392 . S
C1131 H1143 0.929 . S
C1132 C1128 1.531 . S
C1132 H1144 0.960 . S
C1132 H1145 0.962 . S
C1132 H1146 0.960 . S
C1133 C1130 1.511 . S
C1133 H1147 0.961 . S
C1133 H1148 0.961 . S
C1133 H1149 0.961 1_554 S
C1134 C1135 1.370 . S
C1134 C1136 1.363 . S
C1134 H1150 0.931 . S
C1135 C1134 1.370 . S
C1135 C1139 1.408 . S
C1136 C1134 1.363 . S
C1136 C1137 1.370 . S
C1136 C1140 1.524 . S
C1137 C1129 1.503 . S
C1137 C1136 1.370 . S
C1137 C1138 1.403 . S
C1138 C1137 1.403 . S
C1138 C1139 1.404 . S
C1138 C1141 1.539 1_554 S
C1139 C1135 1.408 . S
C1139 C1138 1.404 . S
C1139 H1151 0.930 1_554 S
C1140 C1136 1.524 . S
C1140 H1152 0.956 . S
C1140 H1153 0.961 . S
C1140 H1154 0.961 . S
C1141 C1138 1.539 1_556 S
C1141 H1155 0.958 . S
C1141 H1156 0.961 . S
C1141 H1157 0.960 . S
H1142 C1126 0.931 . S
H1143 C1131 0.929 . S
H1144 C1132 0.960 . S
H1145 C1132 0.962 . S
H1146 C1132 0.960 . S
H1147 C1133 0.961 . S
H1148 C1133 0.961 . S
H1149 C1133 0.961 1_556 S
H1150 C1134 0.931 . S
H1151 C1139 0.930 1_556 S
H1152 C1140 0.956 . S
H1153 C1140 0.961 . S
H1154 C1140 0.961 . S
H1155 C1141 0.958 . S
H1156 C1141 0.961 . S
H1157 C1141 0.960 . S
C1158 C1159 1.391 . S
C1158 C1160 1.394 . S
C1158 H1174 0.931 . S
C1159 C1158 1.391 . S
C1159 C1163 1.376 . S
C1160 C1158 1.394 . S
C1160 C1161 1.369 . S
C1160 C1164 1.531 . S
C1161 C1160 1.369 . S
C1161 C1162 1.410 . S
C1161 C1169 1.503 . S
C1162 C1161 1.410 . S
C1162 C1163 1.392 . S
C1162 C1165 1.511 . S
C1163 C1159 1.376 . S
C1163 C1162 1.392 . S
C1163 H1175 0.929 . S
C1164 C1160 1.531 . S
C1164 H1176 0.960 1_556 S
C1164 H1177 0.962 . S
C1164 H1178 0.960 1_556 S
C1165 C1162 1.511 . S
C1165 H1179 0.961 . S
C1165 H1180 0.961 . S
C1165 H1181 0.961 . S
C1166 C1167 1.370 . S
C1166 C1168 1.363 . S
C1166 H1182 0.931 . S
C1167 C1166 1.370 . S
C1167 C1171 1.398 1_556 S
C1168 C1166 1.363 . S
C1168 C1169 1.370 . S
C1168 C1172 1.524 . S
C1169 C1161 1.503 . S
C1169 C1168 1.370 . S
C1169 C1170 1.403 . S
C1170 C1169 1.403 . S
C1170 C1171 1.402 1_556 S
C1170 C1173 1.539 1_556 S
C1171 C1167 1.398 1_554 S
C1171 C1170 1.402 1_554 S
C1171 H1183 0.942 . S
C1172 C1168 1.524 . S
C1172 H1184 0.956 . S
C1172 H1185 0.961 . S
C1172 H1186 0.961 . S
C1173 C1170 1.539 1_554 S
C1173 H1187 0.958 . S
C1173 H1188 0.961 . S
C1173 H1189 0.960 . S
H1174 C1158 0.931 . S
H1175 C1163 0.929 . S
H1176 C1164 0.960 1_554 S
H1177 C1164 0.962 . S
H1178 C1164 0.960 1_554 S
H1179 C1165 0.961 . S
H1180 C1165 0.961 . S
H1181 C1165 0.961 . S
H1182 C1166 0.931 . S
H1183 C1171 0.942 . S
H1184 C1172 0.956 . S
H1185 C1172 0.961 . S
H1186 C1172 0.961 . S
H1187 C1173 0.958 . S
H1188 C1173 0.961 . S
H1189 C1173 0.960 . S
C1190 C1191 1.391 . S
C1190 C1192 1.394 . S
C1190 H1206 0.931 . S
C1191 C1190 1.391 . S
C1191 C1195 1.376 . S
C1192 C1190 1.394 . S
C1192 C1193 1.369 . S
C1192 C1196 1.531 . S
C1193 C1192 1.369 . S
C1193 C1194 1.410 . S
C1193 C1201 1.503 . S
C1194 C1193 1.410 . S
C1194 C1195 1.392 . S
C1194 C1197 1.511 . S
C1195 C1191 1.376 . S
C1195 C1194 1.392 . S
C1195 H1207 0.929 . S
C1196 C1192 1.531 . S
C1196 H1208 0.960 . S
C1196 H1209 0.962 . S
C1196 H1210 0.960 . S
C1197 C1194 1.511 . S
C1197 H1211 0.961 . S
C1197 H1212 0.961 . S
C1197 H1213 0.961 . S
C1198 C1199 1.370 . S
C1198 C1200 1.363 . S
C1198 H1214 0.918 1_556 S
C1199 C1198 1.370 . S
C1199 C1203 1.408 . S
C1200 C1198 1.363 . S
C1200 C1201 1.370 . S
C1200 C1204 1.524 . S
C1201 C1193 1.503 . S
C1201 C1200 1.370 . S
C1201 C1202 1.403 . S
C1202 C1201 1.403 . S
C1202 C1203 1.404 . S
C1202 C1205 1.539 . S
C1203 C1199 1.408 . S
C1203 C1202 1.404 . S
C1203 H1215 0.930 . S
C1204 C1200 1.524 . S
C1204 H1216 0.956 . S
C1204 H1217 0.961 . S
C1204 H1218 0.961 1_556 S
C1205 C1202 1.539 . S
C1205 H1219 0.958 . S
C1205 H1220 0.961 . S
C1205 H1221 0.960 . S
H1206 C1190 0.931 . S
H1207 C1195 0.929 . S
H1208 C1196 0.960 . S
H1209 C1196 0.962 . S
H1210 C1196 0.960 . S
H1211 C1197 0.961 . S
H1212 C1197 0.961 . S
H1213 C1197 0.961 . S
H1214 C1198 0.918 1_554 S
H1215 C1203 0.930 . S
H1216 C1204 0.956 . S
H1217 C1204 0.961 . S
H1218 C1204 0.961 1_554 S
H1219 C1205 0.958 . S
H1220 C1205 0.961 . S
H1221 C1205 0.960 . S
C1222 C1223 1.391 . S
C1222 C1224 1.394 . S
C1222 H1238 0.931 . S
C1223 C1222 1.391 . S
C1223 C1227 1.376 . S
C1224 C1222 1.394 . S
C1224 C1225 1.369 . S
C1224 C1228 1.531 . S
C1225 C1224 1.369 . S
C1225 C1226 1.410 . S
C1225 C1233 1.503 . S
C1226 C1225 1.410 . S
C1226 C1227 1.392 . S
C1226 C1229 1.511 . S
C1227 C1223 1.376 . S
C1227 C1226 1.392 . S
C1227 H1239 0.929 . S
C1228 C1224 1.531 . S
C1228 H1240 0.971 . S
C1228 H1241 0.962 . S
C1228 H1242 0.960 . S
C1229 C1226 1.511 . S
C1229 H1243 0.961 . S
C1229 H1244 0.961 . S
C1229 H1245 0.961 . S
C1230 C1231 1.370 . S
C1230 C1232 1.363 . S
C1230 H1246 0.931 . S
C1231 C1230 1.370 . S
C1231 C1235 1.408 1_556 S
C1232 C1230 1.363 . S
C1232 C1233 1.370 . S
C1232 C1236 1.524 . S
C1233 C1225 1.503 . S
C1233 C1232 1.370 . S
C1233 C1234 1.403 1_556 S
C1234 C1233 1.403 1_554 S
C1234 C1235 1.404 . S
C1234 C1237 1.539 . S
C1235 C1231 1.408 1_554 S
C1235 C1234 1.404 . S
C1235 H1247 0.930 . S
C1236 C1232 1.524 . S
C1236 H1248 0.956 . S
C1236 H1249 0.961 . S
C1236 H1250 0.961 . S
C1237 C1234 1.539 . S
C1237 H1251 0.958 . S
C1237 H1252 0.961 . S
C1237 H1253 0.960 . S
H1238 C1222 0.931 . S
H1239 C1227 0.929 . S
H1240 C1228 0.971 . S
H1241 C1228 0.962 . S
H1242 C1228 0.960 . S
H1243 C1229 0.961 . S
H1244 C1229 0.961 . S
H1245 C1229 0.961 . S
H1246 C1230 0.931 . S
H1247 C1235 0.930 . S
H1248 C1236 0.956 . S
H1249 C1236 0.961 . S
H1250 C1236 0.961 . S
H1251 C1237 0.958 . S
H1252 C1237 0.961 . S
H1253 C1237 0.960 . S
C1254 C1255 1.391 . S
C1254 C1256 1.394 . S
C1254 H1270 0.931 . S
C1255 C1254 1.391 . S
C1255 C1259 1.376 . S
C1256 C1254 1.394 . S
C1256 C1257 1.369 . S
C1256 C1260 1.531 . S
C1257 C1256 1.369 . S
C1257 C1258 1.410 . S
C1257 C1265 1.503 . S
C1258 C1257 1.410 . S
C1258 C1259 1.392 . S
C1258 C1261 1.511 . S
C1259 C1255 1.376 . S
C1259 C1258 1.392 . S
C1259 H1271 0.929 . S
C1260 C1256 1.531 . S
C1260 H1272 0.960 . S
C1260 H1273 0.962 . S
C1260 H1274 0.960 . S
C1261 C1258 1.511 . S
C1261 H1275 0.961 . S
C1261 H1276 0.961 . S
C1261 H1277 0.961 . S
C1262 C1263 1.370 . S
C1262 C1264 1.363 . S
C1262 H1278 0.931 1_556 S
C1263 C1262 1.370 . S
C1263 C1267 1.408 . S
C1264 C1262 1.363 . S
C1264 C1265 1.370 . S
C1264 C1268 1.524 1_556 S
C1265 C1257 1.503 . S
C1265 C1264 1.370 . S
C1265 C1266 1.403 . S
C1266 C1265 1.403 . S
C1266 C1267 1.404 . S
C1266 C1269 1.539 . S
C1267 C1263 1.408 . S
C1267 C1266 1.404 . S
C1267 H1279 0.930 . S
C1268 C1264 1.524 1_554 S
C1268 H1280 0.955 1_554 S
C1268 H1281 0.961 . S
C1268 H1282 0.961 . S
C1269 C1266 1.539 . S
C1269 H1283 0.958 . S
C1269 H1284 0.961 . S
C1269 H1285 0.960 . S
H1270 C1254 0.931 . S
H1271 C1259 0.929 . S
H1272 C1260 0.960 . S
H1273 C1260 0.962 . S
H1274 C1260 0.960 . S
H1275 C1261 0.961 . S
H1276 C1261 0.961 . S
H1277 C1261 0.961 . S
H1278 C1262 0.931 1_554 S
H1279 C1267 0.930 . S
H1280 C1268 0.955 1_556 S
H1281 C1268 0.961 . S
H1282 C1268 0.961 . S
H1283 C1269 0.958 . S
H1284 C1269 0.961 . S
H1285 C1269 0.960 . S
C1286 C1287 1.391 . S
C1286 C1288 1.394 . S
C1286 H1302 0.931 . S
C1287 C1286 1.391 . S
C1287 C1291 1.376 . S
C1288 C1286 1.394 . S
C1288 C1289 1.369 . S
C1288 C1292 1.531 . S
C1289 C1288 1.369 . S
C1289 C1290 1.410 . S
C1289 C1297 1.503 . S
C1290 C1289 1.410 . S
C1290 C1291 1.392 . S
C1290 C1293 1.511 . S
C1291 C1287 1.376 . S
C1291 C1290 1.392 . S
C1291 H1303 0.929 . S
C1292 C1288 1.531 . S
C1292 H1304 0.960 . S
C1292 H1305 0.962 . S
C1292 H1306 0.960 . S
C1293 C1290 1.511 . S
C1293 H1307 0.961 . S
C1293 H1308 0.961 . S
C1293 H1309 0.961 . S
C1294 C1295 1.370 . S
C1294 C1296 1.363 . S
C1294 H1310 0.931 . S
C1295 C1294 1.370 . S
C1295 C1299 1.408 . S
C1296 C1294 1.363 . S
C1296 C1297 1.370 . S
C1296 C1300 1.524 . S
C1297 C1289 1.503 . S
C1297 C1296 1.370 . S
C1297 C1298 1.403 . S
C1298 C1297 1.403 . S
C1298 C1299 1.404 . S
C1298 C1301 1.539 . S
C1299 C1295 1.408 . S
C1299 C1298 1.404 . S
C1299 H1311 0.930 . S
C1300 C1296 1.524 . S
C1300 H1312 0.956 . S
C1300 H1313 0.961 . S
C1300 H1314 0.961 . S
C1301 C1298 1.539 . S
C1301 H1315 0.962 1_556 S
C1301 H1316 0.961 . S
C1301 H1317 0.960 . S
H1302 C1286 0.931 . S
H1303 C1291 0.929 . S
H1304 C1292 0.960 . S
H1305 C1292 0.962 . S
H1306 C1292 0.960 . S
H1307 C1293 0.961 . S
H1308 C1293 0.961 . S
H1309 C1293 0.961 . S
H1310 C1294 0.931 . S
H1311 C1299 0.930 . S
H1312 C1300 0.956 . S
H1313 C1300 0.961 . S
H1314 C1300 0.961 . S
H1315 C1301 0.962 1_554 S
H1316 C1301 0.961 . S
H1317 C1301 0.960 . S
C1318 C1319 1.391 . S
C1318 C1320 1.394 . S
C1318 H1334 0.931 . S
C1319 C1318 1.391 . S
C1319 C1323 1.376 . S
C1320 C1318 1.394 . S
C1320 C1321 1.369 . S
C1320 C1324 1.531 . S
C1321 C1320 1.369 . S
C1321 C1322 1.410 . S
C1321 C1329 1.503 . S
C1322 C1321 1.410 . S
C1322 C1323 1.392 . S
C1322 C1325 1.511 1_556 S
C1323 C1319 1.376 . S
C1323 C1322 1.392 . S
C1323 H1335 0.929 . S
C1324 C1320 1.531 . S
C1324 H1336 0.960 . S
C1324 H1337 0.962 . S
C1324 H1338 0.960 . S
C1325 C1322 1.511 1_554 S
C1325 H1339 0.961 . S
C1325 H1340 0.961 . S
C1325 H1341 0.963 1_554 S
C1326 C1327 1.370 . S
C1326 C1328 1.363 . S
C1326 H1342 0.931 1_556 S
C1327 C1326 1.370 . S
C1327 C1331 1.408 . S
C1328 C1326 1.363 . S
C1328 C1329 1.370 . S
C1328 C1332 1.524 1_556 S
C1329 C1321 1.503 . S
C1329 C1328 1.370 . S
C1329 C1330 1.403 . S
C1330 C1329 1.403 . S
C1330 C1331 1.404 . S
C1330 C1333 1.539 . S
C1331 C1327 1.408 . S
C1331 C1330 1.404 . S
C1331 H1343 0.930 . S
C1332 C1328 1.524 1_554 S
C1332 H1344 0.956 1_554 S
C1332 H1345 0.961 . S
C1332 H1346 0.961 . S
C1333 C1330 1.539 . S
C1333 H1347 0.958 . S
C1333 H1348 0.961 . S
C1333 H1349 0.960 . S
H1334 C1318 0.931 . S
H1335 C1323 0.929 . S
H1336 C1324 0.960 . S
H1337 C1324 0.962 . S
H1338 C1324 0.960 . S
H1339 C1325 0.961 . S
H1340 C1325 0.961 . S
H1341 C1325 0.963 1_556 S
H1342 C1326 0.931 1_554 S
H1343 C1331 0.930 . S
H1344 C1332 0.956 1_556 S
H1345 C1332 0.961 . S
H1346 C1332 0.961 . S
H1347 C1333 0.958 . S
H1348 C1333 0.961 . S
H1349 C1333 0.960 . S
C1350 C1351 1.391 . S
C1350 C1352 1.394 . S
C1350 H1366 0.931 . S
C1351 C1350 1.391 . S
C1351 C1355 1.376 . S
C1352 C1350 1.394 . S
C1352 C1353 1.369 . S
C1352 C1356 1.531 . S
C1353 C1352 1.369 . S
C1353 C1354 1.410 . S
C1353 C1361 1.503 . S
C1354 C1353 1.410 . S
C1354 C1355 1.392 . S
C1354 C1357 1.511 . S
C1355 C1351 1.376 . S
C1355 C1354 1.392 . S
C1355 H1367 0.929 . S
C1356 C1352 1.531 . S
C1356 H1368 0.960 . S
C1356 H1369 0.962 . S
C1356 H1370 0.960 . S
C1357 C1354 1.511 . S
C1357 H1371 0.961 . S
C1357 H1372 0.961 . S
C1357 H1373 0.961 . S
C1358 C1359 1.370 . S
C1358 C1360 1.363 . S
C1358 H1374 0.931 . S
C1359 C1358 1.370 . S
C1359 C1363 1.408 . S
C1360 C1358 1.363 . S
C1360 C1361 1.370 . S
C1360 C1364 1.524 . S
C1361 C1353 1.503 . S
C1361 C1360 1.370 . S
C1361 C1362 1.403 . S
C1362 C1361 1.403 . S
C1362 C1363 1.404 . S
C1362 C1365 1.539 . S
C1363 C1359 1.408 . S
C1363 C1362 1.404 . S
C1363 H1375 0.930 . S
C1364 C1360 1.524 . S
C1364 H1376 0.956 . S
C1364 H1377 0.961 . S
C1364 H1378 0.961 1_554 S
C1365 C1362 1.539 . S
C1365 H1379 0.958 . S
C1365 H1380 0.961 . S
C1365 H1381 0.960 . S
H1366 C1350 0.931 . S
H1367 C1355 0.929 . S
H1368 C1356 0.960 . S
H1369 C1356 0.962 . S
H1370 C1356 0.960 . S
H1371 C1357 0.961 . S
H1372 C1357 0.961 . S
H1373 C1357 0.961 . S
H1374 C1358 0.931 . S
H1375 C1363 0.930 . S
H1376 C1364 0.956 . S
H1377 C1364 0.961 . S
H1378 C1364 0.961 1_556 S
H1379 C1365 0.958 . S
H1380 C1365 0.961 . S
H1381 C1365 0.960 . S
C1382 C1383 1.391 . S
C1382 C1384 1.394 . S
C1382 H1398 0.931 . S
C1383 C1382 1.391 . S
C1383 C1387 1.376 . S
C1384 C1382 1.394 . S
C1384 C1385 1.369 . S
C1384 C1388 1.531 . S
C1385 C1384 1.369 . S
C1385 C1386 1.410 . S
C1385 C1393 1.503 . S
C1386 C1385 1.410 . S
C1386 C1387 1.392 . S
C1386 C1389 1.511 . S
C1387 C1383 1.376 . S
C1387 C1386 1.392 . S
C1387 H1399 0.929 . S
C1388 C1384 1.531 . S
C1388 H1400 0.960 . S
C1388 H1401 0.962 . S
C1388 H1402 0.960 . S
C1389 C1386 1.511 . S
C1389 H1403 0.961 . S
C1389 H1404 0.961 . S
C1389 H1405 0.961 . S
C1390 C1391 1.370 . S
C1390 C1392 1.363 . S
C1390 H1406 0.931 . S
C1391 C1390 1.370 . S
C1391 C1395 1.408 . S
C1392 C1390 1.363 . S
C1392 C1393 1.370 . S
C1392 C1396 1.524 . S
C1393 C1385 1.503 . S
C1393 C1392 1.370 . S
C1393 C1394 1.403 . S
C1394 C1393 1.403 . S
C1394 C1395 1.404 . S
C1394 C1397 1.539 . S
C1395 C1391 1.408 . S
C1395 C1394 1.404 . S
C1395 H1407 0.930 . S
C1396 C1392 1.524 . S
C1396 H1408 0.956 . S
C1396 H1409 0.961 . S
C1396 H1410 0.961 . S
C1397 C1394 1.539 . S
C1397 H1411 0.958 . S
C1397 H1412 0.961 . S
C1397 H1413 0.960 . S
H1398 C1382 0.931 . S
H1399 C1387 0.929 . S
H1400 C1388 0.960 . S
H1401 C1388 0.962 . S
H1402 C1388 0.960 . S
H1403 C1389 0.961 . S
H1404 C1389 0.961 . S
H1405 C1389 0.961 . S
H1406 C1390 0.931 . S
H1407 C1395 0.930 . S
H1408 C1396 0.956 . S
H1409 C1396 0.961 . S
H1410 C1396 0.961 . S
H1411 C1397 0.958 . S
H1412 C1397 0.961 . S
H1413 C1397 0.960 . S
C1414 C1415 1.391 . S
C1414 C1416 1.394 . S
C1414 H1430 0.931 . S
C1415 C1414 1.391 . S
C1415 C1419 1.376 . S
C1416 C1414 1.394 . S
C1416 C1417 1.369 . S
C1416 C1420 1.531 . S
C1417 C1416 1.369 . S
C1417 C1418 1.410 . S
C1417 C1425 1.503 . S
C1418 C1417 1.410 . S
C1418 C1419 1.392 . S
C1418 C1421 1.511 . S
C1419 C1415 1.376 . S
C1419 C1418 1.392 . S
C1419 H1431 0.929 . S
C1420 C1416 1.531 . S
C1420 H1432 0.960 . S
C1420 H1433 0.962 . S
C1420 H1434 0.960 . S
C1421 C1418 1.511 . S
C1421 H1435 0.961 . S
C1421 H1436 0.961 . S
C1421 H1437 0.961 . S
C1422 C1423 1.370 . S
C1422 C1424 1.363 . S
C1422 H1438 0.931 1_554 S
C1423 C1422 1.370 . S
C1423 C1427 1.408 . S
C1424 C1422 1.363 . S
C1424 C1425 1.370 . S
C1424 C1428 1.519 . S
C1425 C1417 1.503 . S
C1425 C1424 1.370 . S
C1425 C1426 1.403 . S
C1426 C1425 1.403 . S
C1426 C1427 1.404 . S
C1426 C1429 1.539 . S
C1427 C1423 1.408 . S
C1427 C1426 1.404 . S
C1427 H1439 0.930 . S
C1428 C1424 1.519 . S
C1428 H1440 0.959 1_554 S
C1428 H1441 0.956 . S
C1428 H1442 0.968 1_554 S
C1429 C1426 1.539 . S
C1429 H1443 0.958 . S
C1429 H1444 0.961 . S
C1429 H1445 0.960 . S
H1430 C1414 0.931 . S
H1431 C1419 0.929 . S
H1432 C1420 0.960 . S
H1433 C1420 0.962 . S
H1434 C1420 0.960 . S
H1435 C1421 0.961 . S
H1436 C1421 0.961 . S
H1437 C1421 0.961 . S
H1438 C1422 0.931 1_556 S
H1439 C1427 0.930 . S
H1440 C1428 0.959 1_556 S
H1441 C1428 0.956 . S
H1442 C1428 0.968 1_556 S
H1443 C1429 0.958 . S
H1444 C1429 0.961 . S
H1445 C1429 0.960 . S
C1446 C1447 1.391 . S
C1446 C1448 1.394 1_655 S
C1446 H1462 0.931 . S
C1447 C1446 1.391 . S
C1447 C1451 1.376 . S
C1448 C1446 1.394 1_455 S
C1448 C1449 1.369 . S
C1448 C1452 1.531 . S
C1449 C1448 1.369 . S
C1449 C1450 1.410 . S
C1449 C1457 1.503 . S
C1450 C1449 1.410 . S
C1450 C1451 1.392 1_455 S
C1450 C1453 1.511 . S
C1451 C1447 1.376 . S
C1451 C1450 1.392 1_655 S
C1451 H1463 0.929 . S
C1452 C1448 1.531 . S
C1452 H1464 0.960 . S
C1452 H1465 0.962 . S
C1452 H1466 0.960 . S
C1453 C1450 1.511 . S
C1453 H1467 0.961 . S
C1453 H1468 0.961 . S
C1453 H1469 0.961 . S
C1454 C1455 1.370 . S
C1454 C1456 1.363 . S
C1454 H1470 0.931 . S
C1455 C1454 1.370 . S
C1455 C1459 1.408 . S
C1456 C1454 1.363 . S
C1456 C1457 1.370 . S
C1456 C1460 1.524 . S
C1457 C1449 1.503 . S
C1457 C1456 1.370 . S
C1457 C1458 1.403 . S
C1458 C1457 1.403 . S
C1458 C1459 1.404 . S
C1458 C1461 1.539 . S
C1459 C1455 1.408 . S
C1459 C1458 1.404 . S
C1459 H1471 0.930 . S
C1460 C1456 1.524 . S
C1460 H1472 0.956 . S
C1460 H1473 0.961 . S
C1460 H1474 0.961 . S
C1461 C1458 1.539 . S
C1461 H1475 0.958 . S
C1461 H1476 0.961 . S
C1461 H1477 0.960 . S
H1462 C1446 0.931 . S
H1463 C1451 0.929 . S
H1464 C1452 0.960 . S
H1465 C1452 0.962 . S
H1466 C1452 0.960 . S
H1467 C1453 0.961 . S
H1468 C1453 0.961 . S
H1469 C1453 0.961 . S
H1470 C1454 0.931 . S
H1471 C1459 0.930 . S
H1472 C1460 0.956 . S
H1473 C1460 0.961 . S
H1474 C1460 0.961 . S
H1475 C1461 0.958 . S
H1476 C1461 0.961 . S
H1477 C1461 0.960 . S
C1478 C1479 1.391 . S
C1478 C1480 1.394 . S
C1478 H1494 0.931 . S
C1479 C1478 1.391 . S
C1479 C1483 1.376 . S
C1480 C1478 1.394 . S
C1480 C1481 1.369 . S
C1480 C1484 1.531 . S
C1481 C1480 1.369 . S
C1481 C1482 1.410 . S
C1481 C1489 1.503 . S
C1482 C1481 1.410 . S
C1482 C1483 1.392 . S
C1482 C1485 1.511 . S
C1483 C1479 1.376 . S
C1483 C1482 1.392 . S
C1483 H1495 0.929 . S
C1484 C1480 1.531 . S
C1484 H1496 0.960 . S
C1484 H1497 0.962 . S
C1484 H1498 0.960 . S
C1485 C1482 1.511 . S
C1485 H1499 0.961 . S
C1485 H1500 0.961 . S
C1485 H1501 0.961 . S
C1486 C1487 1.370 . S
C1486 C1488 1.363 . S
C1486 H1502 0.931 . S
C1487 C1486 1.370 . S
C1487 C1491 1.408 . S
C1488 C1486 1.363 . S
C1488 C1489 1.370 . S
C1488 C1492 1.524 . S
C1489 C1481 1.503 . S
C1489 C1488 1.370 . S
C1489 C1490 1.403 . S
C1490 C1489 1.403 . S
C1490 C1491 1.404 . S
C1490 C1493 1.539 . S
C1491 C1487 1.408 . S
C1491 C1490 1.404 . S
C1491 H1503 0.930 . S
C1492 C1488 1.524 . S
C1492 H1504 0.956 . S
C1492 H1505 0.961 . S
C1492 H1506 0.961 . S
C1493 C1490 1.539 . S
C1493 H1507 0.958 . S
C1493 H1508 0.961 . S
C1493 H1509 0.960 . S
H1494 C1478 0.931 . S
H1495 C1483 0.929 . S
H1496 C1484 0.960 . S
H1497 C1484 0.962 . S
H1498 C1484 0.960 . S
H1499 C1485 0.961 . S
H1500 C1485 0.961 . S
H1501 C1485 0.961 . S
H1502 C1486 0.931 . S
H1503 C1491 0.930 . S
H1504 C1492 0.956 . S
H1505 C1492 0.961 . S
H1506 C1492 0.961 . S
H1507 C1493 0.958 . S
H1508 C1493 0.961 . S
H1509 C1493 0.960 . S
C1510 C1511 1.391 . S
C1510 C1512 1.394 . S
C1510 H1526 0.931 . S
C1511 C1510 1.391 . S
C1511 C1515 1.376 . S
C1512 C1510 1.394 . S
C1512 C1513 1.369 1_545 S
C1512 C1516 1.531 1_545 S
C1513 C1512 1.369 1_565 S
C1513 C1514 1.410 1_565 S
C1513 C1521 1.503 . S
C1514 C1513 1.410 1_545 S
C1514 C1515 1.392 . S
C1514 C1517 1.511 1_545 S
C1515 C1511 1.376 . S
C1515 C1514 1.392 . S
C1515 H1527 0.929 . S
C1516 C1512 1.531 1_565 S
C1516 H1528 0.960 . S
C1516 H1529 0.962 . S
C1516 H1530 0.960 1_565 S
C1517 C1514 1.511 1_565 S
C1517 H1531 0.961 . S
C1517 H1532 0.961 . S
C1517 H1533 0.961 . S
C1518 C1519 1.370 . S
C1518 C1520 1.363 . S
C1518 H1534 0.931 . S
C1519 C1518 1.370 . S
C1519 C1523 1.408 . S
C1520 C1518 1.363 . S
C1520 C1521 1.370 . S
C1520 C1524 1.524 . S
C1521 C1513 1.503 . S
C1521 C1520 1.370 . S
C1521 C1522 1.403 . S
C1522 C1521 1.403 . S
C1522 C1523 1.404 . S
C1522 C1525 1.539 . S
C1523 C1519 1.408 . S
C1523 C1522 1.404 . S
C1523 H1535 0.930 . S
C1524 C1520 1.524 . S
C1524 H1536 0.956 . S
C1524 H1537 0.961 . S
C1524 H1538 0.961 . S
C1525 C1522 1.539 . S
C1525 H1539 0.958 . S
C1525 H1540 0.961 . S
C1525 H1541 0.960 . S
H1526 C1510 0.931 . S
H1527 C1515 0.929 . S
H1528 C1516 0.960 . S
H1529 C1516 0.962 . S
H1530 C1516 0.960 1_545 S
H1531 C1517 0.961 . S
H1532 C1517 0.961 . S
H1533 C1517 0.961 . S
H1534 C1518 0.931 . S
H1535 C1523 0.930 . S
H1536 C1524 0.956 . S
H1537 C1524 0.961 . S
H1538 C1524 0.961 . S
H1539 C1525 0.958 . S
H1540 C1525 0.961 . S
H1541 C1525 0.960 . S
C1542 C1543 1.391 . S
C1542 C1544 1.394 . S
C1542 H1558 0.931 . S
C1543 C1542 1.391 . S
C1543 C1547 1.376 . S
C1544 C1542 1.394 . S
C1544 C1545 1.369 . S
C1544 C1548 1.531 . S
C1545 C1544 1.369 . S
C1545 C1546 1.410 . S
C1545 C1553 1.503 . S
C1546 C1545 1.410 . S
C1546 C1547 1.392 . S
C1546 C1549 1.511 . S
C1547 C1543 1.376 . S
C1547 C1546 1.392 . S
C1547 H1559 0.929 . S
C1548 C1544 1.531 . S
C1548 H1560 0.960 . S
C1548 H1561 0.962 . S
C1548 H1562 0.960 . S
C1549 C1546 1.511 . S
C1549 H1563 0.961 . S
C1549 H1564 0.961 . S
C1549 H1565 0.961 . S
C1550 C1551 1.370 . S
C1550 C1552 1.363 . S
C1550 H1566 0.931 . S
C1551 C1550 1.370 . S
C1551 C1555 1.408 . S
C1552 C1550 1.363 . S
C1552 C1553 1.370 . S
C1552 C1556 1.524 . S
C1553 C1545 1.503 . S
C1553 C1552 1.370 . S
C1553 C1554 1.403 . S
C1554 C1553 1.403 . S
C1554 C1555 1.404 . S
C1554 C1557 1.539 . S
C1555 C1551 1.408 . S
C1555 C1554 1.404 . S
C1555 H1567 0.930 . S
C1556 C1552 1.524 . S
C1556 H1568 0.956 . S
C1556 H1569 0.961 . S
C1556 H1570 0.961 . S
C1557 C1554 1.539 . S
C1557 H1571 0.958 . S
C1557 H1572 0.961 . S
C1557 H1573 0.960 . S
H1558 C1542 0.931 . S
H1559 C1547 0.929 . S
H1560 C1548 0.960 . S
H1561 C1548 0.962 . S
H1562 C1548 0.960 . S
H1563 C1549 0.961 . S
H1564 C1549 0.961 . S
H1565 C1549 0.961 . S
H1566 C1550 0.931 . S
H1567 C1555 0.930 . S
H1568 C1556 0.956 . S
H1569 C1556 0.961 . S
H1570 C1556 0.961 . S
H1571 C1557 0.958 . S
H1572 C1557 0.961 . S
H1573 C1557 0.960 . S
C1574 C1575 1.391 . S
C1574 C1576 1.394 . S
C1574 H1590 0.931 . S
C1575 C1574 1.391 . S
C1575 C1579 1.376 . S
C1576 C1574 1.394 . S
C1576 C1577 1.369 . S
C1576 C1580 1.531 . S
C1577 C1576 1.369 . S
C1577 C1578 1.410 . S
C1577 C1585 1.503 . S
C1578 C1577 1.410 . S
C1578 C1579 1.392 . S
C1578 C1581 1.511 . S
C1579 C1575 1.376 . S
C1579 C1578 1.392 . S
C1579 H1591 0.929 . S
C1580 C1576 1.531 . S
C1580 H1592 0.960 . S
C1580 H1593 0.962 . S
C1580 H1594 0.960 . S
C1581 C1578 1.511 . S
C1581 H1595 0.961 . S
C1581 H1596 0.961 . S
C1581 H1597 0.961 . S
C1582 C1583 1.370 . S
C1582 C1584 1.363 . S
C1582 H1598 0.931 . S
C1583 C1582 1.370 . S
C1583 C1587 1.408 . S
C1584 C1582 1.363 . S
C1584 C1585 1.370 . S
C1584 C1588 1.524 . S
C1585 C1577 1.503 . S
C1585 C1584 1.370 . S
C1585 C1586 1.403 . S
C1586 C1585 1.403 . S
C1586 C1587 1.404 . S
C1586 C1589 1.539 . S
C1587 C1583 1.408 . S
C1587 C1586 1.404 . S
C1587 H1599 0.930 . S
C1588 C1584 1.524 . S
C1588 H1600 0.956 . S
C1588 H1601 0.961 . S
C1588 H1602 0.961 . S
C1589 C1586 1.539 . S
C1589 H1603 0.958 . S
C1589 H1604 0.961 . S
C1589 H1605 0.960 . S
H1590 C1574 0.931 . S
H1591 C1579 0.929 . S
H1592 C1580 0.960 . S
H1593 C1580 0.962 . S
H1594 C1580 0.960 . S
H1595 C1581 0.961 . S
H1596 C1581 0.961 . S
H1597 C1581 0.961 . S
H1598 C1582 0.931 . S
H1599 C1587 0.930 . S
H1600 C1588 0.956 . S
H1601 C1588 0.961 . S
H1602 C1588 0.961 . S
H1603 C1589 0.958 . S
H1604 C1589 0.961 . S
H1605 C1589 0.960 . S
C1606 C1607 1.391 . S
C1606 C1608 1.394 . S
C1606 H1622 0.931 . S
C1607 C1606 1.391 . S
C1607 C1611 1.376 . S
C1608 C1606 1.394 . S
C1608 C1609 1.369 . S
C1608 C1612 1.531 . S
C1609 C1608 1.369 . S
C1609 C1610 1.410 . S
C1609 C1617 1.503 . S
C1610 C1609 1.410 . S
C1610 C1611 1.392 . S
C1610 C1613 1.511 . S
C1611 C1607 1.376 . S
C1611 C1610 1.392 . S
C1611 H1623 0.929 . S
C1612 C1608 1.531 . S
C1612 H1624 0.960 . S
C1612 H1625 0.962 . S
C1612 H1626 0.960 . S
C1613 C1610 1.511 . S
C1613 H1627 0.961 . S
C1613 H1628 0.961 . S
C1613 H1629 0.961 . S
C1614 C1615 1.370 . S
C1614 C1616 1.363 . S
C1614 H1630 0.931 . S
C1615 C1614 1.370 . S
C1615 C1619 1.408 . S
C1616 C1614 1.363 . S
C1616 C1617 1.370 . S
C1616 C1620 1.524 . S
C1617 C1609 1.503 . S
C1617 C1616 1.370 . S
C1617 C1618 1.403 . S
C1618 C1617 1.403 . S
C1618 C1619 1.404 . S
C1618 C1621 1.539 . S
C1619 C1615 1.408 . S
C1619 C1618 1.404 . S
C1619 H1631 0.930 . S
C1620 C1616 1.524 . S
C1620 H1632 0.956 . S
C1620 H1633 0.961 . S
C1620 H1634 0.961 . S
C1621 C1618 1.539 . S
C1621 H1635 0.958 . S
C1621 H1636 0.961 . S
C1621 H1637 0.960 . S
H1622 C1606 0.931 . S
H1623 C1611 0.929 . S
H1624 C1612 0.960 . S
H1625 C1612 0.962 . S
H1626 C1612 0.960 . S
H1627 C1613 0.961 . S
H1628 C1613 0.961 . S
H1629 C1613 0.961 . S
H1630 C1614 0.931 . S
H1631 C1619 0.930 . S
H1632 C1620 0.956 . S
H1633 C1620 0.961 . S
H1634 C1620 0.961 . S
H1635 C1621 0.958 . S
H1636 C1621 0.961 . S
H1637 C1621 0.960 . S
C1638 C1639 1.391 . S
C1638 C1640 1.394 . S
C1638 H1654 0.931 . S
C1639 C1638 1.391 . S
C1639 C1643 1.376 . S
C1640 C1638 1.394 . S
C1640 C1641 1.369 . S
C1640 C1644 1.531 . S
C1641 C1640 1.369 . S
C1641 C1642 1.410 . S
C1641 C1649 1.503 . S
C1642 C1641 1.410 . S
C1642 C1643 1.392 . S
C1642 C1645 1.511 . S
C1643 C1639 1.376 . S
C1643 C1642 1.392 . S
C1643 H1655 0.929 . S
C1644 C1640 1.531 . S
C1644 H1656 0.960 . S
C1644 H1657 0.962 . S
C1644 H1658 0.960 . S
C1645 C1642 1.511 . S
C1645 H1659 0.961 . S
C1645 H1660 0.961 . S
C1645 H1661 0.961 . S
C1646 C1647 1.370 . S
C1646 C1648 1.363 . S
C1646 H1662 0.931 . S
C1647 C1646 1.370 . S
C1647 C1651 1.408 . S
C1648 C1646 1.363 . S
C1648 C1649 1.370 . S
C1648 C1652 1.524 . S
C1649 C1641 1.503 . S
C1649 C1648 1.370 . S
C1649 C1650 1.403 . S
C1650 C1649 1.403 . S
C1650 C1651 1.404 . S
C1650 C1653 1.539 . S
C1651 C1647 1.408 . S
C1651 C1650 1.404 . S
C1651 H1663 0.930 . S
C1652 C1648 1.524 . S
C1652 H1664 0.956 . S
C1652 H1665 0.961 . S
C1652 H1666 0.961 . S
C1653 C1650 1.539 . S
C1653 H1667 0.958 . S
C1653 H1668 0.961 . S
C1653 H1669 0.960 . S
H1654 C1638 0.931 . S
H1655 C1643 0.929 . S
H1656 C1644 0.960 . S
H1657 C1644 0.962 . S
H1658 C1644 0.960 . S
H1659 C1645 0.961 . S
H1660 C1645 0.961 . S
H1661 C1645 0.961 . S
H1662 C1646 0.931 . S
H1663 C1651 0.930 . S
H1664 C1652 0.956 . S
H1665 C1652 0.961 . S
H1666 C1652 0.961 . S
H1667 C1653 0.958 . S
H1668 C1653 0.961 . S
H1669 C1653 0.960 . S
C1670 C1671 1.391 . S
C1670 C1672 1.394 . S
C1670 H1686 0.931 . S
C1671 C1670 1.391 . S
C1671 C1675 1.376 . S
C1672 C1670 1.394 . S
C1672 C1673 1.369 . S
C1672 C1676 1.531 . S
C1673 C1672 1.369 . S
C1673 C1674 1.410 . S
C1673 C1681 1.503 . S
C1674 C1673 1.410 . S
C1674 C1675 1.392 . S
C1674 C1677 1.511 . S
C1675 C1671 1.376 . S
C1675 C1674 1.392 . S
C1675 H1687 0.929 . S
C1676 C1672 1.531 . S
C1676 H1688 0.960 . S
C1676 H1689 0.962 . S
C1676 H1690 0.960 . S
C1677 C1674 1.511 . S
C1677 H1691 0.961 . S
C1677 H1692 0.961 . S
C1677 H1693 0.961 . S
C1678 C1679 1.370 . S
C1678 C1680 1.363 . S
C1678 H1694 0.931 . S
C1679 C1678 1.370 . S
C1679 C1683 1.408 . S
C1680 C1678 1.363 . S
C1680 C1681 1.370 . S
C1680 C1684 1.524 . S
C1681 C1673 1.503 . S
C1681 C1680 1.370 . S
C1681 C1682 1.403 . S
C1682 C1681 1.403 . S
C1682 C1683 1.404 . S
C1682 C1685 1.539 . S
C1683 C1679 1.408 . S
C1683 C1682 1.404 . S
C1683 H1695 0.930 . S
C1684 C1680 1.524 . S
C1684 H1696 0.956 . S
C1684 H1697 0.961 . S
C1684 H1698 0.961 . S
C1685 C1682 1.539 . S
C1685 H1699 0.958 . S
C1685 H1700 0.961 . S
C1685 H1701 0.960 . S
H1686 C1670 0.931 . S
H1687 C1675 0.929 . S
H1688 C1676 0.960 . S
H1689 C1676 0.962 . S
H1690 C1676 0.960 . S
H1691 C1677 0.961 . S
H1692 C1677 0.961 . S
H1693 C1677 0.961 . S
H1694 C1678 0.931 . S
H1695 C1683 0.930 . S
H1696 C1684 0.956 . S
H1697 C1684 0.961 . S
H1698 C1684 0.961 . S
H1699 C1685 0.958 . S
H1700 C1685 0.961 . S
H1701 C1685 0.960 . S
C1702 C1703 1.391 . S
C1702 C1704 1.394 . S
C1702 H1718 0.931 . S
C1703 C1702 1.391 . S
C1703 C1707 1.376 . S
C1704 C1702 1.394 . S
C1704 C1705 1.369 . S
C1704 C1708 1.531 . S
C1705 C1704 1.369 . S
C1705 C1706 1.410 . S
C1705 C1713 1.503 . S
C1706 C1705 1.410 . S
C1706 C1707 1.392 . S
C1706 C1709 1.511 . S
C1707 C1703 1.376 . S
C1707 C1706 1.392 . S
C1707 H1719 0.929 . S
C1708 C1704 1.531 . S
C1708 H1720 0.960 . S
C1708 H1721 0.962 . S
C1708 H1722 0.960 . S
C1709 C1706 1.511 . S
C1709 H1723 0.961 . S
C1709 H1724 0.961 . S
C1709 H1725 0.961 . S
C1710 C1711 1.370 . S
C1710 C1712 1.363 . S
C1710 H1726 0.931 . S
C1711 C1710 1.370 . S
C1711 C1715 1.408 . S
C1712 C1710 1.363 . S
C1712 C1713 1.370 . S
C1712 C1716 1.524 . S
C1713 C1705 1.503 . S
C1713 C1712 1.370 . S
C1713 C1714 1.403 . S
C1714 C1713 1.403 . S
C1714 C1715 1.404 . S
C1714 C1717 1.539 . S
C1715 C1711 1.408 . S
C1715 C1714 1.404 . S
C1715 H1727 0.930 . S
C1716 C1712 1.524 . S
C1716 H1728 0.956 . S
C1716 H1729 0.961 . S
C1716 H1730 0.961 . S
C1717 C1714 1.539 . S
C1717 H1731 0.958 . S
C1717 H1732 0.961 . S
C1717 H1733 0.960 . S
H1718 C1702 0.931 . S
H1719 C1707 0.929 . S
H1720 C1708 0.960 . S
H1721 C1708 0.962 . S
H1722 C1708 0.960 . S
H1723 C1709 0.961 . S
H1724 C1709 0.961 . S
H1725 C1709 0.961 . S
H1726 C1710 0.931 . S
H1727 C1715 0.930 . S
H1728 C1716 0.956 . S
H1729 C1716 0.961 . S
H1730 C1716 0.961 . S
H1731 C1717 0.958 . S
H1732 C1717 0.961 . S
H1733 C1717 0.960 . S
C1734 C1735 1.391 . S
C1734 C1736 1.363 1_545 S
C1734 H1750 0.931 . S
C1735 C1734 1.391 . S
C1735 C1739 1.376 . S
C1736 C1734 1.363 1_565 S
C1736 C1737 1.402 . S
C1736 C1740 1.529 . S
C1737 C1736 1.402 . S
C1737 C1738 1.410 . S
C1737 C1745 1.503 . S
C1738 C1737 1.410 . S
C1738 C1739 1.392 1_565 S
C1738 C1741 1.511 . S
C1739 C1735 1.376 . S
C1739 C1738 1.392 1_545 S
C1739 H1751 0.929 . S
C1740 C1736 1.529 . S
C1740 H1752 0.960 . S
C1740 H1753 0.962 . S
C1740 H1754 0.960 . S
C1741 C1738 1.511 . S
C1741 H1755 0.961 . S
C1741 H1756 0.961 . S
C1741 H1757 0.961 . S
C1742 C1743 1.370 . S
C1742 C1744 1.363 . S
C1742 H1758 0.931 . S
C1743 C1742 1.370 . S
C1743 C1747 1.408 . S
C1744 C1742 1.363 . S
C1744 C1745 1.370 . S
C1744 C1748 1.524 . S
C1745 C1737 1.503 . S
C1745 C1744 1.370 . S
C1745 C1746 1.403 . S
C1746 C1745 1.403 . S
C1746 C1747 1.404 . S
C1746 C1749 1.539 . S
C1747 C1743 1.408 . S
C1747 C1746 1.404 . S
C1747 H1759 0.930 . S
C1748 C1744 1.524 . S
C1748 H1760 0.956 . S
C1748 H1761 0.961 . S
C1748 H1762 0.961 . S
C1749 C1746 1.539 . S
C1749 H1763 0.958 . S
C1749 H1764 0.961 . S
C1749 H1765 0.960 . S
H1750 C1734 0.931 . S
H1751 C1739 0.929 . S
H1752 C1740 0.960 . S
H1753 C1740 0.962 . S
H1754 C1740 0.960 . S
H1755 C1741 0.961 . S
H1756 C1741 0.961 . S
H1757 C1741 0.961 . S
H1758 C1742 0.931 . S
H1759 C1747 0.930 . S
H1760 C1748 0.956 . S
H1761 C1748 0.961 . S
H1762 C1748 0.961 . S
H1763 C1749 0.958 . S
H1764 C1749 0.961 . S
H1765 C1749 0.960 . S
C1766 C1767 1.391 1_455 S
C1766 C1768 1.394 . S
C1766 H1782 0.931 . S
C1767 C1766 1.391 1_655 S
C1767 C1771 1.376 . S
C1768 C1766 1.394 . S
C1768 C1769 1.369 . S
C1768 C1772 1.531 . S
C1769 C1768 1.369 . S
C1769 C1770 1.410 . S
C1769 C1777 1.503 . S
C1770 C1769 1.410 . S
C1770 C1771 1.392 1_455 S
C1770 C1773 1.511 . S
C1771 C1767 1.376 . S
C1771 C1770 1.392 1_655 S
C1771 H1783 0.929 . S
C1772 C1768 1.531 . S
C1772 H1784 0.960 . S
C1772 H1785 0.962 . S
C1772 H1786 0.960 . S
C1773 C1770 1.511 . S
C1773 H1787 0.949 1_455 S
C1773 H1788 0.961 . S
C1773 H1789 0.961 . S
C1774 C1775 1.370 . S
C1774 C1776 1.363 . S
C1774 H1790 0.931 . S
C1775 C1774 1.370 . S
C1775 C1779 1.408 . S
C1776 C1774 1.363 . S
C1776 C1777 1.370 . S
C1776 C1780 1.524 . S
C1777 C1769 1.503 . S
C1777 C1776 1.370 . S
C1777 C1778 1.403 . S
C1778 C1777 1.403 . S
C1778 C1779 1.404 . S
C1778 C1781 1.539 . S
C1779 C1775 1.408 . S
C1779 C1778 1.404 . S
C1779 H1791 0.930 . S
C1780 C1776 1.524 . S
C1780 H1792 0.956 . S
C1780 H1793 0.961 . S
C1780 H1794 0.961 . S
C1781 C1778 1.539 . S
C1781 H1795 0.958 . S
C1781 H1796 0.961 . S
C1781 H1797 0.960 . S
H1782 C1766 0.931 . S
H1783 C1771 0.929 . S
H1784 C1772 0.960 . S
H1785 C1772 0.962 . S
H1786 C1772 0.960 . S
H1787 C1773 0.949 1_655 S
H1788 C1773 0.961 . S
H1789 C1773 0.961 . S
H1790 C1774 0.931 . S
H1791 C1779 0.930 . S
H1792 C1780 0.956 . S
H1793 C1780 0.961 . S
H1794 C1780 0.961 . S
H1795 C1781 0.958 . S
H1796 C1781 0.961 . S
H1797 C1781 0.960 . S
C1798 C1799 1.391 . S
C1798 C1800 1.394 . S
C1798 H1814 0.931 . S
C1799 C1798 1.391 . S
C1799 C1803 1.376 . S
C1800 C1798 1.394 . S
C1800 C1801 1.369 . S
C1800 C1804 1.531 . S
C1801 C1800 1.369 . S
C1801 C1802 1.410 . S
C1801 C1809 1.503 . S
C1802 C1801 1.410 . S
C1802 C1803 1.392 . S
C1802 C1805 1.511 . S
C1803 C1799 1.376 . S
C1803 C1802 1.392 . S
C1803 H1815 0.929 . S
C1804 C1800 1.531 . S
C1804 H1816 0.960 . S
C1804 H1817 0.962 . S
C1804 H1818 0.960 . S
C1805 C1802 1.511 . S
C1805 H1819 0.961 . S
C1805 H1820 0.961 . S
C1805 H1821 0.961 . S
C1806 C1807 1.370 . S
C1806 C1808 1.363 . S
C1806 H1822 0.931 . S
C1807 C1806 1.370 . S
C1807 C1811 1.408 . S
C1808 C1806 1.363 . S
C1808 C1809 1.370 . S
C1808 C1812 1.524 . S
C1809 C1801 1.503 . S
C1809 C1808 1.370 . S
C1809 C1810 1.403 . S
C1810 C1809 1.403 . S
C1810 C1811 1.404 . S
C1810 C1813 1.539 . S
C1811 C1807 1.408 . S
C1811 C1810 1.404 . S
C1811 H1823 0.930 . S
C1812 C1808 1.524 . S
C1812 H1824 0.956 . S
C1812 H1825 0.961 . S
C1812 H1826 0.961 . S
C1813 C1810 1.539 . S
C1813 H1827 0.958 . S
C1813 H1828 0.961 . S
C1813 H1829 0.960 . S
H1814 C1798 0.931 . S
H1815 C1803 0.929 . S
H1816 C1804 0.960 . S
H1817 C1804 0.962 . S
H1818 C1804 0.960 . S
H1819 C1805 0.961 . S
H1820 C1805 0.961 . S
H1821 C1805 0.961 . S
H1822 C1806 0.931 . S
H1823 C1811 0.930 . S
H1824 C1812 0.956 . S
H1825 C1812 0.961 . S
H1826 C1812 0.961 . S
H1827 C1813 0.958 . S
H1828 C1813 0.961 . S
H1829 C1813 0.960 . S
C1830 C1831 1.391 . S
C1830 C1832 1.394 . S
C1830 H1846 0.931 . S
C1831 C1830 1.391 . S
C1831 C1835 1.376 . S
C1832 C1830 1.394 . S
C1832 C1833 1.369 . S
C1832 C1836 1.531 . S
C1833 C1832 1.369 . S
C1833 C1834 1.410 . S
C1833 C1841 1.503 . S
C1834 C1833 1.410 . S
C1834 C1835 1.392 . S
C1834 C1837 1.511 . S
C1835 C1831 1.376 . S
C1835 C1834 1.392 . S
C1835 H1847 0.929 . S
C1836 C1832 1.531 . S
C1836 H1848 0.960 . S
C1836 H1849 0.962 . S
C1836 H1850 0.960 . S
C1837 C1834 1.511 . S
C1837 H1851 0.961 . S
C1837 H1852 0.961 . S
C1837 H1853 0.961 . S
C1838 C1839 1.370 . S
C1838 C1840 1.363 . S
C1838 H1854 0.931 . S
C1839 C1838 1.370 . S
C1839 C1843 1.408 . S
C1840 C1838 1.363 . S
C1840 C1841 1.370 . S
C1840 C1844 1.524 . S
C1841 C1833 1.503 . S
C1841 C1840 1.370 . S
C1841 C1842 1.403 . S
C1842 C1841 1.403 . S
C1842 C1843 1.404 . S
C1842 C1845 1.539 . S
C1843 C1839 1.408 . S
C1843 C1842 1.404 . S
C1843 H1855 0.930 . S
C1844 C1840 1.524 . S
C1844 H1856 0.956 . S
C1844 H1857 0.961 . S
C1844 H1858 0.961 . S
C1845 C1842 1.539 . S
C1845 H1859 0.958 . S
C1845 H1860 0.961 . S
C1845 H1861 0.960 . S
H1846 C1830 0.931 . S
H1847 C1835 0.929 . S
H1848 C1836 0.960 . S
H1849 C1836 0.962 . S
H1850 C1836 0.960 . S
H1851 C1837 0.961 . S
H1852 C1837 0.961 . S
H1853 C1837 0.961 . S
H1854 C1838 0.931 . S
H1855 C1843 0.930 . S
H1856 C1844 0.956 . S
H1857 C1844 0.961 . S
H1858 C1844 0.961 . S
H1859 C1845 0.958 . S
H1860 C1845 0.961 . S
H1861 C1845 0.960 . S
C1862 C1863 1.391 . S
C1862 C1864 1.394 . S
C1862 H1878 0.931 . S
C1863 C1862 1.391 . S
C1863 C1867 1.376 . S
C1864 C1862 1.394 . S
C1864 C1865 1.369 . S
C1864 C1868 1.531 . S
C1865 C1864 1.369 . S
C1865 C1866 1.410 . S
C1865 C1873 1.503 . S
C1866 C1865 1.410 . S
C1866 C1867 1.392 . S
C1866 C1869 1.511 . S
C1867 C1863 1.376 . S
C1867 C1866 1.392 . S
C1867 H1879 0.929 . S
C1868 C1864 1.531 . S
C1868 H1880 0.960 . S
C1868 H1881 0.962 . S
C1868 H1882 0.960 . S
C1869 C1866 1.511 . S
C1869 H1883 0.961 . S
C1869 H1884 0.961 . S
C1869 H1885 0.961 . S
C1870 C1871 1.370 . S
C1870 C1872 1.363 . S
C1870 H1886 0.931 . S
C1871 C1870 1.370 . S
C1871 C1875 1.408 . S
C1872 C1870 1.363 . S
C1872 C1873 1.370 . S
C1872 C1876 1.524 . S
C1873 C1865 1.503 . S
C1873 C1872 1.370 . S
C1873 C1874 1.403 . S
C1874 C1873 1.403 . S
C1874 C1875 1.404 . S
C1874 C1877 1.539 . S
C1875 C1871 1.408 . S
C1875 C1874 1.404 . S
C1875 H1887 0.930 . S
C1876 C1872 1.524 . S
C1876 H1888 0.956 . S
C1876 H1889 0.961 . S
C1876 H1890 0.961 . S
C1877 C1874 1.539 . S
C1877 H1891 0.958 . S
C1877 H1892 0.961 . S
C1877 H1893 0.960 . S
H1878 C1862 0.931 . S
H1879 C1867 0.929 . S
H1880 C1868 0.960 . S
H1881 C1868 0.962 . S
H1882 C1868 0.960 . S
H1883 C1869 0.961 . S
H1884 C1869 0.961 . S
H1885 C1869 0.961 . S
H1886 C1870 0.931 . S
H1887 C1875 0.930 . S
H1888 C1876 0.956 . S
H1889 C1876 0.961 . S
H1890 C1876 0.961 . S
H1891 C1877 0.958 . S
H1892 C1877 0.961 . S
H1893 C1877 0.960 . S
C1894 C1895 1.391 . S
C1894 C1896 1.394 . S
C1894 H1910 0.931 . S
C1895 C1894 1.391 . S
C1895 C1899 1.376 . S
C1896 C1894 1.394 . S
C1896 C1897 1.369 . S
C1896 C1900 1.531 . S
C1897 C1896 1.369 . S
C1897 C1898 1.410 . S
C1897 C1905 1.503 . S
C1898 C1897 1.410 . S
C1898 C1899 1.392 . S
C1898 C1901 1.511 . S
C1899 C1895 1.376 . S
C1899 C1898 1.392 . S
C1899 H1911 0.929 . S
C1900 C1896 1.531 . S
C1900 H1912 0.960 . S
C1900 H1913 0.962 . S
C1900 H1914 0.960 . S
C1901 C1898 1.511 . S
C1901 H1915 0.961 . S
C1901 H1916 0.961 . S
C1901 H1917 0.961 . S
C1902 C1903 1.370 . S
C1902 C1904 1.363 . S
C1902 H1918 0.931 . S
C1903 C1902 1.370 . S
C1903 C1907 1.408 . S
C1904 C1902 1.363 . S
C1904 C1905 1.370 . S
C1904 C1908 1.524 . S
C1905 C1897 1.503 . S
C1905 C1904 1.370 . S
C1905 C1906 1.403 . S
C1906 C1905 1.403 . S
C1906 C1907 1.404 . S
C1906 C1909 1.539 . S
C1907 C1903 1.408 . S
C1907 C1906 1.404 . S
C1907 H1919 0.930 . S
C1908 C1904 1.524 . S
C1908 H1920 0.956 . S
C1908 H1921 0.961 . S
C1908 H1922 0.961 . S
C1909 C1906 1.539 . S
C1909 H1923 0.958 . S
C1909 H1924 0.961 . S
C1909 H1925 0.960 . S
H1910 C1894 0.931 . S
H1911 C1899 0.929 . S
H1912 C1900 0.960 . S
H1913 C1900 0.962 . S
H1914 C1900 0.960 . S
H1915 C1901 0.961 . S
H1916 C1901 0.961 . S
H1917 C1901 0.961 . S
H1918 C1902 0.931 . S
H1919 C1907 0.930 . S
H1920 C1908 0.956 . S
H1921 C1908 0.961 . S
H1922 C1908 0.961 . S
H1923 C1909 0.958 . S
H1924 C1909 0.961 . S
H1925 C1909 0.960 . S
C1926 C1927 1.391 . S
C1926 C1928 1.394 1_565 S
C1926 H1942 0.931 . S
C1927 C1926 1.391 . S
C1927 C1931 1.376 . S
C1928 C1926 1.394 1_545 S
C1928 C1929 1.369 . S
C1928 C1932 1.531 . S
C1929 C1928 1.369 . S
C1929 C1930 1.410 . S
C1929 C1937 1.503 . S
C1930 C1929 1.410 . S
C1930 C1931 1.392 1_545 S
C1930 C1933 1.511 . S
C1931 C1927 1.376 . S
C1931 C1930 1.392 1_565 S
C1931 H1943 0.929 . S
C1932 C1928 1.531 . S
C1932 H1944 0.960 . S
C1932 H1945 0.962 . S
C1932 H1946 0.960 . S
C1933 C1930 1.511 . S
C1933 H1947 0.961 . S
C1933 H1948 0.961 . S
C1933 H1949 0.961 . S
C1934 C1935 1.370 . S
C1934 C1936 1.363 . S
C1934 H1950 0.931 . S
C1935 C1934 1.370 . S
C1935 C1939 1.408 . S
C1936 C1934 1.363 . S
C1936 C1937 1.370 . S
C1936 C1940 1.524 . S
C1937 C1929 1.503 . S
C1937 C1936 1.370 . S
C1937 C1938 1.403 . S
C1938 C1937 1.403 . S
C1938 C1939 1.404 . S
C1938 C1941 1.539 . S
C1939 C1935 1.408 . S
C1939 C1938 1.404 . S
C1939 H1951 0.930 . S
C1940 C1936 1.524 . S
C1940 H1952 0.956 . S
C1940 H1953 0.961 . S
C1940 H1954 0.961 . S
C1941 C1938 1.539 . S
C1941 H1955 0.958 . S
C1941 H1956 0.961 . S
C1941 H1957 0.960 . S
H1942 C1926 0.931 . S
H1943 C1931 0.929 . S
H1944 C1932 0.960 . S
H1945 C1932 0.962 . S
H1946 C1932 0.960 . S
H1947 C1933 0.961 . S
H1948 C1933 0.961 . S
H1949 C1933 0.961 . S
H1950 C1934 0.931 . S
H1951 C1939 0.930 . S
H1952 C1940 0.956 . S
H1953 C1940 0.961 . S
H1954 C1940 0.961 . S
H1955 C1941 0.958 . S
H1956 C1941 0.961 . S
H1957 C1941 0.960 . S
C1958 C1959 1.391 . S
C1958 C1960 1.394 1_455 S
C1958 H1974 0.931 . S
C1959 C1958 1.391 . S
C1959 C1963 1.376 1_455 S
C1960 C1958 1.394 1_655 S
C1960 C1961 1.369 . S
C1960 C1964 1.531 . S
C1961 C1960 1.369 . S
C1961 C1962 1.410 . S
C1961 C1969 1.503 . S
C1962 C1961 1.410 . S
C1962 C1963 1.392 . S
C1962 C1965 1.511 . S
C1963 C1959 1.376 1_655 S
C1963 C1962 1.392 . S
C1963 H1975 0.929 . S
C1964 C1960 1.531 . S
C1964 H1976 0.960 . S
C1964 H1977 0.962 . S
C1964 H1978 0.960 1_655 S
C1965 C1962 1.511 . S
C1965 H1979 0.961 . S
C1965 H1980 0.961 . S
C1965 H1981 0.961 . S
C1966 C1967 1.370 . S
C1966 C1968 1.363 . S
C1966 H1982 0.931 . S
C1967 C1966 1.370 . S
C1967 C1971 1.408 . S
C1968 C1966 1.363 . S
C1968 C1969 1.370 . S
C1968 C1972 1.524 . S
C1969 C1961 1.503 . S
C1969 C1968 1.370 . S
C1969 C1970 1.403 . S
C1970 C1969 1.403 . S
C1970 C1971 1.404 . S
C1970 C1973 1.539 . S
C1971 C1967 1.408 . S
C1971 C1970 1.404 . S
C1971 H1983 0.930 . S
C1972 C1968 1.524 . S
C1972 H1984 0.956 . S
C1972 H1985 0.961 . S
C1972 H1986 0.961 . S
C1973 C1970 1.539 . S
C1973 H1987 0.958 . S
C1973 H1988 0.961 . S
C1973 H1989 0.960 . S
H1974 C1958 0.931 . S
H1975 C1963 0.929 . S
H1976 C1964 0.960 . S
H1977 C1964 0.962 . S
H1978 C1964 0.960 1_455 S
H1979 C1965 0.961 . S
H1980 C1965 0.961 . S
H1981 C1965 0.961 . S
H1982 C1966 0.931 . S
H1983 C1971 0.930 . S
H1984 C1972 0.956 . S
H1985 C1972 0.961 . S
H1986 C1972 0.961 . S
H1987 C1973 0.958 . S
H1988 C1973 0.961 . S
H1989 C1973 0.960 . S
C1990 C1991 1.391 . S
C1990 C1992 1.394 . S
C1990 H2006 0.931 . S
C1991 C1990 1.391 . S
C1991 C1995 1.376 . S
C1992 C1990 1.394 . S
C1992 C1993 1.369 . S
C1992 C1996 1.531 . S
C1993 C1992 1.369 . S
C1993 C1994 1.410 . S
C1993 C2001 1.503 . S
C1994 C1993 1.410 . S
C1994 C1995 1.392 . S
C1994 C1997 1.511 . S
C1995 C1991 1.376 . S
C1995 C1994 1.392 . S
C1995 H2007 0.929 . S
C1996 C1992 1.531 . S
C1996 H2008 0.960 . S
C1996 H2009 0.962 . S
C1996 H2010 0.960 . S
C1997 C1994 1.511 . S
C1997 H2011 0.961 . S
C1997 H2012 0.961 . S
C1997 H2013 0.961 . S
C1998 C1999 1.370 . S
C1998 C2000 1.363 . S
C1998 H2014 0.931 . S
C1999 C1998 1.370 . S
C1999 C2003 1.408 . S
C2000 C1998 1.363 . S
C2000 C2001 1.370 . S
C2000 C2004 1.524 . S
C2001 C1993 1.503 . S
C2001 C2000 1.370 . S
C2001 C2002 1.403 . S
C2002 C2001 1.403 . S
C2002 C2003 1.404 . S
C2002 C2005 1.539 . S
C2003 C1999 1.408 . S
C2003 C2002 1.404 . S
C2003 H2015 0.930 . S
C2004 C2000 1.524 . S
C2004 H2016 0.956 . S
C2004 H2017 0.961 . S
C2004 H2018 0.961 . S
C2005 C2002 1.539 . S
C2005 H2019 0.958 . S
C2005 H2020 0.961 . S
C2005 H2021 0.960 . S
H2006 C1990 0.931 . S
H2007 C1995 0.929 . S
H2008 C1996 0.960 . S
H2009 C1996 0.962 . S
H2010 C1996 0.960 . S
H2011 C1997 0.961 . S
H2012 C1997 0.961 . S
H2013 C1997 0.961 . S
H2014 C1998 0.931 . S
H2015 C2003 0.930 . S
H2016 C2004 0.956 . S
H2017 C2004 0.961 . S
H2018 C2004 0.961 . S
H2019 C2005 0.958 . S
H2020 C2005 0.961 . S
H2021 C2005 0.960 . S
C2022 C2023 1.391 . S
C2022 C2024 1.394 1_455 S
C2022 H2038 0.931 . S
C2023 C2022 1.391 . S
C2023 C2027 1.376 . S
C2024 C2022 1.394 1_655 S
C2024 C2025 1.369 . S
C2024 C2028 1.531 . S
C2025 C2024 1.369 . S
C2025 C2026 1.410 . S
C2025 C2033 1.503 . S
C2026 C2025 1.410 . S
C2026 C2027 1.392 1_655 S
C2026 C2029 1.511 . S
C2027 C2023 1.376 . S
C2027 C2026 1.392 1_455 S
C2027 H2039 0.929 . S
C2028 C2024 1.531 . S
C2028 H2040 0.960 . S
C2028 H2041 0.962 . S
C2028 H2042 0.960 1_655 S
C2029 C2026 1.511 . S
C2029 H2043 0.961 . S
C2029 H2044 0.961 . S
C2029 H2045 0.961 . S
C2030 C2031 1.370 . S
C2030 C2032 1.363 . S
C2030 H2046 0.931 . S
C2031 C2030 1.370 . S
C2031 C2035 1.408 . S
C2032 C2030 1.363 . S
C2032 C2033 1.370 . S
C2032 C2036 1.524 . S
C2033 C2025 1.503 . S
C2033 C2032 1.370 . S
C2033 C2034 1.403 . S
C2034 C2033 1.403 . S
C2034 C2035 1.404 . S
C2034 C2037 1.539 . S
C2035 C2031 1.408 . S
C2035 C2034 1.404 . S
C2035 H2047 0.930 . S
C2036 C2032 1.524 . S
C2036 H2048 0.956 . S
C2036 H2049 0.961 . S
C2036 H2050 0.961 . S
C2037 C2034 1.539 . S
C2037 H2051 0.958 . S
C2037 H2052 0.961 . S
C2037 H2053 0.960 . S
H2038 C2022 0.931 . S
H2039 C2027 0.929 . S
H2040 C2028 0.960 . S
H2041 C2028 0.962 . S
H2042 C2028 0.960 1_455 S
H2043 C2029 0.961 . S
H2044 C2029 0.961 . S
H2045 C2029 0.961 . S
H2046 C2030 0.931 . S
H2047 C2035 0.930 . S
H2048 C2036 0.956 . S
H2049 C2036 0.961 . S
H2050 C2036 0.961 . S
H2051 C2037 0.958 . S
H2052 C2037 0.961 . S
H2053 C2037 0.960 . S
C2054 C2055 1.391 . S
C2054 C2056 1.394 . S
C2054 H2070 0.931 . S
C2055 C2054 1.391 . S
C2055 C2059 1.376 . S
C2056 C2054 1.394 . S
C2056 C2057 1.369 . S
C2056 C2060 1.531 . S
C2057 C2056 1.369 . S
C2057 C2058 1.410 . S
C2057 C2065 1.503 . S
C2058 C2057 1.410 . S
C2058 C2059 1.392 . S
C2058 C2061 1.511 . S
C2059 C2055 1.376 . S
C2059 C2058 1.392 . S
C2059 H2071 0.929 . S
C2060 C2056 1.531 . S
C2060 H2072 0.960 . S
C2060 H2073 0.962 . S
C2060 H2074 0.960 . S
C2061 C2058 1.511 . S
C2061 H2075 0.961 . S
C2061 H2076 0.961 . S
C2061 H2077 0.961 . S
C2062 C2063 1.370 . S
C2062 C2064 1.363 . S
C2062 H2078 0.931 . S
C2063 C2062 1.370 . S
C2063 C2067 1.408 . S
C2064 C2062 1.363 . S
C2064 C2065 1.370 . S
C2064 C2068 1.524 . S
C2065 C2057 1.503 . S
C2065 C2064 1.370 . S
C2065 C2066 1.403 . S
C2066 C2065 1.403 . S
C2066 C2067 1.404 . S
C2066 C2069 1.539 . S
C2067 C2063 1.408 . S
C2067 C2066 1.404 . S
C2067 H2079 0.930 . S
C2068 C2064 1.524 . S
C2068 H2080 0.956 . S
C2068 H2081 0.961 . S
C2068 H2082 0.961 . S
C2069 C2066 1.539 . S
C2069 H2083 0.958 . S
C2069 H2084 0.961 . S
C2069 H2085 0.960 . S
H2070 C2054 0.931 . S
H2071 C2059 0.929 . S
H2072 C2060 0.960 . S
H2073 C2060 0.962 . S
H2074 C2060 0.960 . S
H2075 C2061 0.961 . S
H2076 C2061 0.961 . S
H2077 C2061 0.961 . S
H2078 C2062 0.931 . S
H2079 C2067 0.930 . S
H2080 C2068 0.956 . S
H2081 C2068 0.961 . S
H2082 C2068 0.961 . S
H2083 C2069 0.958 . S
H2084 C2069 0.961 . S
H2085 C2069 0.960 . S
C2086 C2087 1.391 . S
C2086 C2088 1.394 . S
C2086 H2102 0.931 . S
C2087 C2086 1.391 . S
C2087 C2091 1.376 . S
C2088 C2086 1.394 . S
C2088 C2089 1.369 1_565 S
C2088 C2092 1.531 1_565 S
C2089 C2088 1.369 1_545 S
C2089 C2090 1.410 1_545 S
C2089 C2097 1.503 . S
C2090 C2089 1.410 1_565 S
C2090 C2091 1.392 . S
C2090 C2093 1.511 1_565 S
C2091 C2087 1.376 . S
C2091 C2090 1.392 . S
C2091 H2103 0.929 . S
C2092 C2088 1.531 1_545 S
C2092 H2104 0.960 . S
C2092 H2105 0.962 . S
C2092 H2106 0.958 1_545 S
C2093 C2090 1.511 1_545 S
C2093 H2107 0.961 . S
C2093 H2108 0.961 . S
C2093 H2109 0.961 . S
C2094 C2095 1.370 . S
C2094 C2096 1.363 . S
C2094 H2110 0.931 . S
C2095 C2094 1.370 . S
C2095 C2099 1.408 . S
C2096 C2094 1.363 . S
C2096 C2097 1.370 . S
C2096 C2100 1.524 . S
C2097 C2089 1.503 . S
C2097 C2096 1.370 . S
C2097 C2098 1.403 . S
C2098 C2097 1.403 . S
C2098 C2099 1.404 . S
C2098 C2101 1.539 . S
C2099 C2095 1.408 . S
C2099 C2098 1.404 . S
C2099 H2111 0.930 . S
C2100 C2096 1.524 . S
C2100 H2112 0.956 . S
C2100 H2113 0.961 . S
C2100 H2114 0.961 . S
C2101 C2098 1.539 . S
C2101 H2115 0.958 . S
C2101 H2116 0.961 . S
C2101 H2117 0.960 . S
H2102 C2086 0.931 . S
H2103 C2091 0.929 . S
H2104 C2092 0.960 . S
H2105 C2092 0.962 . S
H2106 C2092 0.958 1_565 S
H2107 C2093 0.961 . S
H2108 C2093 0.961 . S
H2109 C2093 0.961 . S
H2110 C2094 0.931 . S
H2111 C2099 0.930 . S
H2112 C2100 0.956 . S
H2113 C2100 0.961 . S
H2114 C2100 0.961 . S
H2115 C2101 0.958 . S
H2116 C2101 0.961 . S
H2117 C2101 0.960 . S
C2118 C2119 1.391 . S
C2118 C2120 1.394 . S
C2118 H2134 0.931 . S
C2119 C2118 1.391 . S
C2119 C2123 1.376 . S
C2120 C2118 1.394 . S
C2120 C2121 1.369 . S
C2120 C2124 1.531 . S
C2121 C2120 1.369 . S
C2121 C2122 1.410 . S
C2121 C2129 1.503 . S
C2122 C2121 1.410 . S
C2122 C2123 1.392 . S
C2122 C2125 1.511 . S
C2123 C2119 1.376 . S
C2123 C2122 1.392 . S
C2123 H2135 0.929 . S
C2124 C2120 1.531 . S
C2124 H2136 0.960 . S
C2124 H2137 0.962 . S
C2124 H2138 0.960 . S
C2125 C2122 1.511 . S
C2125 H2139 0.961 . S
C2125 H2140 0.961 . S
C2125 H2141 0.961 . S
C2126 C2127 1.370 . S
C2126 C2128 1.363 . S
C2126 H2142 0.931 . S
C2127 C2126 1.370 . S
C2127 C2131 1.408 . S
C2128 C2126 1.363 . S
C2128 C2129 1.370 . S
C2128 C2132 1.524 . S
C2129 C2121 1.503 . S
C2129 C2128 1.370 . S
C2129 C2130 1.403 . S
C2130 C2129 1.403 . S
C2130 C2131 1.404 . S
C2130 C2133 1.539 . S
C2131 C2127 1.408 . S
C2131 C2130 1.404 . S
C2131 H2143 0.930 . S
C2132 C2128 1.524 . S
C2132 H2144 0.956 . S
C2132 H2145 0.961 . S
C2132 H2146 0.961 . S
C2133 C2130 1.539 . S
C2133 H2147 0.958 . S
C2133 H2148 0.961 . S
C2133 H2149 0.960 . S
H2134 C2118 0.931 . S
H2135 C2123 0.929 . S
H2136 C2124 0.960 . S
H2137 C2124 0.962 . S
H2138 C2124 0.960 . S
H2139 C2125 0.961 . S
H2140 C2125 0.961 . S
H2141 C2125 0.961 . S
H2142 C2126 0.931 . S
H2143 C2131 0.930 . S
H2144 C2132 0.956 . S
H2145 C2132 0.961 . S
H2146 C2132 0.961 . S
H2147 C2133 0.958 . S
H2148 C2133 0.961 . S
H2149 C2133 0.960 . S
C2150 C2151 1.391 . S
C2150 C2152 1.394 . S
C2150 H2166 0.931 . S
C2151 C2150 1.391 . S
C2151 C2155 1.376 . S
C2152 C2150 1.394 . S
C2152 C2153 1.369 . S
C2152 C2156 1.531 . S
C2153 C2152 1.369 . S
C2153 C2154 1.410 . S
C2153 C2161 1.503 . S
C2154 C2153 1.410 . S
C2154 C2155 1.392 . S
C2154 C2157 1.511 . S
C2155 C2151 1.376 . S
C2155 C2154 1.392 . S
C2155 H2167 0.929 . S
C2156 C2152 1.531 . S
C2156 H2168 0.960 . S
C2156 H2169 0.962 . S
C2156 H2170 0.960 . S
C2157 C2154 1.511 . S
C2157 H2171 0.961 . S
C2157 H2172 0.961 . S
C2157 H2173 0.961 . S
C2158 C2159 1.370 . S
C2158 C2160 1.363 . S
C2158 H2174 0.931 . S
C2159 C2158 1.370 . S
C2159 C2163 1.408 . S
C2160 C2158 1.363 . S
C2160 C2161 1.370 . S
C2160 C2164 1.524 . S
C2161 C2153 1.503 . S
C2161 C2160 1.370 . S
C2161 C2162 1.403 . S
C2162 C2161 1.403 . S
C2162 C2163 1.404 . S
C2162 C2165 1.539 . S
C2163 C2159 1.408 . S
C2163 C2162 1.404 . S
C2163 H2175 0.930 . S
C2164 C2160 1.524 . S
C2164 H2176 0.956 . S
C2164 H2177 0.961 . S
C2164 H2178 0.961 . S
C2165 C2162 1.539 . S
C2165 H2179 0.958 . S
C2165 H2180 0.961 . S
C2165 H2181 0.960 . S
H2166 C2150 0.931 . S
H2167 C2155 0.929 . S
H2168 C2156 0.960 . S
H2169 C2156 0.962 . S
H2170 C2156 0.960 . S
H2171 C2157 0.961 . S
H2172 C2157 0.961 . S
H2173 C2157 0.961 . S
H2174 C2158 0.931 . S
H2175 C2163 0.930 . S
H2176 C2164 0.956 . S
H2177 C2164 0.961 . S
H2178 C2164 0.961 . S
H2179 C2165 0.958 . S
H2180 C2165 0.961 . S
H2181 C2165 0.960 . S
C2182 C2183 1.391 . S
C2182 C2184 1.394 . S
C2182 H2198 0.931 . S
C2183 C2182 1.391 . S
C2183 C2187 1.376 . S
C2184 C2182 1.394 . S
C2184 C2185 1.369 . S
C2184 C2188 1.531 . S
C2185 C2184 1.369 . S
C2185 C2186 1.410 . S
C2185 C2193 1.503 . S
C2186 C2185 1.410 . S
C2186 C2187 1.392 . S
C2186 C2189 1.511 . S
C2187 C2183 1.376 . S
C2187 C2186 1.392 . S
C2187 H2199 0.929 . S
C2188 C2184 1.531 . S
C2188 H2200 0.960 . S
C2188 H2201 0.962 . S
C2188 H2202 0.960 . S
C2189 C2186 1.511 . S
C2189 H2203 0.961 . S
C2189 H2204 0.961 . S
C2189 H2205 0.961 . S
C2190 C2191 1.370 . S
C2190 C2192 1.363 . S
C2190 H2206 0.931 . S
C2191 C2190 1.370 . S
C2191 C2195 1.408 . S
C2192 C2190 1.363 . S
C2192 C2193 1.370 . S
C2192 C2196 1.524 . S
C2193 C2185 1.503 . S
C2193 C2192 1.370 . S
C2193 C2194 1.403 . S
C2194 C2193 1.403 . S
C2194 C2195 1.404 . S
C2194 C2197 1.539 . S
C2195 C2191 1.408 . S
C2195 C2194 1.404 . S
C2195 H2207 0.930 . S
C2196 C2192 1.524 . S
C2196 H2208 0.956 . S
C2196 H2209 0.961 . S
C2196 H2210 0.961 . S
C2197 C2194 1.539 . S
C2197 H2211 0.958 . S
C2197 H2212 0.961 . S
C2197 H2213 0.960 . S
H2198 C2182 0.931 . S
H2199 C2187 0.929 . S
H2200 C2188 0.960 . S
H2201 C2188 0.962 . S
H2202 C2188 0.960 . S
H2203 C2189 0.961 . S
H2204 C2189 0.961 . S
H2205 C2189 0.961 . S
H2206 C2190 0.931 . S
H2207 C2195 0.930 . S
H2208 C2196 0.956 . S
H2209 C2196 0.961 . S
H2210 C2196 0.961 . S
H2211 C2197 0.958 . S
H2212 C2197 0.961 . S
H2213 C2197 0.960 . S
C2214 C2215 1.391 . S
C2214 C2216 1.394 . S
C2214 H2230 0.931 . S
C2215 C2214 1.391 . S
C2215 C2219 1.376 . S
C2216 C2214 1.394 . S
C2216 C2217 1.369 . S
C2216 C2220 1.531 1_565 S
C2217 C2216 1.369 . S
C2217 C2218 1.410 . S
C2217 C2225 1.503 . S
C2218 C2217 1.410 . S
C2218 C2219 1.392 . S
C2218 C2221 1.511 . S
C2219 C2215 1.376 . S
C2219 C2218 1.392 . S
C2219 H2231 0.929 . S
C2220 C2216 1.531 1_545 S
C2220 H2232 0.960 . S
C2220 H2233 0.962 . S
C2220 H2234 0.960 . S
C2221 C2218 1.511 . S
C2221 H2235 0.961 . S
C2221 H2236 0.961 . S
C2221 H2237 0.961 . S
C2222 C2223 1.370 . S
C2222 C2224 1.363 . S
C2222 H2238 0.931 . S
C2223 C2222 1.370 . S
C2223 C2227 1.408 1_565 S
C2224 C2222 1.363 . S
C2224 C2225 1.370 . S
C2224 C2228 1.524 . S
C2225 C2217 1.503 . S
C2225 C2224 1.370 . S
C2225 C2226 1.403 1_565 S
C2226 C2225 1.403 1_545 S
C2226 C2227 1.404 . S
C2226 C2229 1.539 . S
C2227 C2223 1.408 1_545 S
C2227 C2226 1.404 . S
C2227 H2239 0.930 . S
C2228 C2224 1.524 . S
C2228 H2240 0.956 . S
C2228 H2241 0.961 . S
C2228 H2242 0.961 . S
C2229 C2226 1.539 . S
C2229 H2243 0.958 . S
C2229 H2244 0.961 . S
C2229 H2245 0.960 . S
H2230 C2214 0.931 . S
H2231 C2219 0.929 . S
H2232 C2220 0.960 . S
H2233 C2220 0.962 . S
H2234 C2220 0.960 . S
H2235 C2221 0.961 . S
H2236 C2221 0.961 . S
H2237 C2221 0.961 . S
H2238 C2222 0.931 . S
H2239 C2227 0.930 . S
H2240 C2228 0.956 . S
H2241 C2228 0.961 . S
H2242 C2228 0.961 . S
H2243 C2229 0.958 . S
H2244 C2229 0.961 . S
H2245 C2229 0.960 . S
C2246 C2247 1.391 1_655 S
C2246 C2248 1.394 . S
C2246 H2262 0.931 . S
C2247 C2246 1.391 1_455 S
C2247 C2251 1.376 . S
C2248 C2246 1.394 . S
C2248 C2249 1.369 1_655 S
C2248 C2252 1.531 . S
C2249 C2248 1.369 1_455 S
C2249 C2250 1.410 . S
C2249 C2257 1.503 . S
C2250 C2249 1.410 . S
C2250 C2251 1.392 . S
C2250 C2253 1.511 . S
C2251 C2247 1.376 . S
C2251 C2250 1.392 . S
C2251 H2263 0.929 . S
C2252 C2248 1.531 . S
C2252 H2264 0.960 . S
C2252 H2265 0.962 . S
C2252 H2266 0.960 . S
C2253 C2250 1.511 . S
C2253 H2267 0.961 . S
C2253 H2268 0.961 . S
C2253 H2269 0.961 . S
C2254 C2255 1.370 . S
C2254 C2256 1.363 . S
C2254 H2270 0.931 1_455 S
C2255 C2254 1.370 . S
C2255 C2259 1.408 . S
C2256 C2254 1.363 . S
C2256 C2257 1.370 . S
C2256 C2260 1.524 1_455 S
C2257 C2249 1.503 . S
C2257 C2256 1.370 . S
C2257 C2258 1.403 . S
C2258 C2257 1.403 . S
C2258 C2259 1.404 . S
C2258 C2261 1.539 . S
C2259 C2255 1.408 . S
C2259 C2258 1.404 . S
C2259 H2271 0.930 . S
C2260 C2256 1.524 1_655 S
C2260 H2272 0.956 . S
C2260 H2273 0.961 1_655 S
C2260 H2274 0.961 . S
C2261 C2258 1.539 . S
C2261 H2275 0.958 . S
C2261 H2276 0.961 . S
C2261 H2277 0.960 . S
H2262 C2246 0.931 . S
H2263 C2251 0.929 . S
H2264 C2252 0.960 . S
H2265 C2252 0.962 . S
H2266 C2252 0.960 . S
H2267 C2253 0.961 . S
H2268 C2253 0.961 . S
H2269 C2253 0.961 . S
H2270 C2254 0.931 1_655 S
H2271 C2259 0.930 . S
H2272 C2260 0.956 . S
H2273 C2260 0.961 1_455 S
H2274 C2260 0.961 . S
H2275 C2261 0.958 . S
H2276 C2261 0.961 . S
H2277 C2261 0.960 . S
C2278 C2279 1.391 . S
C2278 C2280 1.394 . S
C2278 H2294 0.931 . S
C2279 C2278 1.391 . S
C2279 C2283 1.376 . S
C2280 C2278 1.394 . S
C2280 C2281 1.369 . S
C2280 C2284 1.531 . S
C2281 C2280 1.369 . S
C2281 C2282 1.410 . S
C2281 C2289 1.503 . S
C2282 C2281 1.410 . S
C2282 C2283 1.392 . S
C2282 C2285 1.511 . S
C2283 C2279 1.376 . S
C2283 C2282 1.392 . S
C2283 H2295 0.929 . S
C2284 C2280 1.531 . S
C2284 H2296 0.960 . S
C2284 H2297 0.962 . S
C2284 H2298 0.960 . S
C2285 C2282 1.511 . S
C2285 H2299 0.961 . S
C2285 H2300 0.961 . S
C2285 H2301 0.961 . S
C2286 C2287 1.370 . S
C2286 C2288 1.363 . S
C2286 H2302 0.931 . S
C2287 C2286 1.370 . S
C2287 C2291 1.408 . S
C2288 C2286 1.363 . S
C2288 C2289 1.370 . S
C2288 C2292 1.524 . S
C2289 C2281 1.503 . S
C2289 C2288 1.370 . S
C2289 C2290 1.403 . S
C2290 C2289 1.403 . S
C2290 C2291 1.404 . S
C2290 C2293 1.539 . S
C2291 C2287 1.408 . S
C2291 C2290 1.404 . S
C2291 H2303 0.930 . S
C2292 C2288 1.524 . S
C2292 H2304 0.956 . S
C2292 H2305 0.961 . S
C2292 H2306 0.961 . S
C2293 C2290 1.539 . S
C2293 H2307 0.958 . S
C2293 H2308 0.961 . S
C2293 H2309 0.960 . S
H2294 C2278 0.931 . S
H2295 C2283 0.929 . S
H2296 C2284 0.960 . S
H2297 C2284 0.962 . S
H2298 C2284 0.960 . S
H2299 C2285 0.961 . S
H2300 C2285 0.961 . S
H2301 C2285 0.961 . S
H2302 C2286 0.931 . S
H2303 C2291 0.930 . S
H2304 C2292 0.956 . S
H2305 C2292 0.961 . S
H2306 C2292 0.961 . S
H2307 C2293 0.958 . S
H2308 C2293 0.961 . S
H2309 C2293 0.960 . S
C2310 C2311 1.391 . S
C2310 C2312 1.394 . S
C2310 H2326 0.931 . S
C2311 C2310 1.391 . S
C2311 C2315 1.376 1_655 S
C2312 C2310 1.394 . S
C2312 C2313 1.369 . S
C2312 C2316 1.531 . S
C2313 C2312 1.369 . S
C2313 C2314 1.410 1_655 S
C2313 C2321 1.503 . S
C2314 C2313 1.410 1_455 S
C2314 C2315 1.392 . S
C2314 C2317 1.511 . S
C2315 C2311 1.376 1_455 S
C2315 C2314 1.392 . S
C2315 H2327 0.929 . S
C2316 C2312 1.531 . S
C2316 H2328 0.960 . S
C2316 H2329 0.962 . S
C2316 H2330 0.960 . S
C2317 C2314 1.511 . S
C2317 H2331 0.961 . S
C2317 H2332 0.961 . S
C2317 H2333 0.961 . S
C2318 C2319 1.370 . S
C2318 C2320 1.363 . S
C2318 H2334 0.931 . S
C2319 C2318 1.370 . S
C2319 C2323 1.408 . S
C2320 C2318 1.363 . S
C2320 C2321 1.370 . S
C2320 C2324 1.524 . S
C2321 C2313 1.503 . S
C2321 C2320 1.370 . S
C2321 C2322 1.403 . S
C2322 C2321 1.403 . S
C2322 C2323 1.404 . S
C2322 C2325 1.530 1_655 S
C2323 C2319 1.408 . S
C2323 C2322 1.404 . S
C2323 H2335 0.930 . S
C2324 C2320 1.524 . S
C2324 H2336 0.956 . S
C2324 H2337 0.961 . S
C2324 H2338 0.961 . S
C2325 C2322 1.530 1_455 S
C2325 H2339 0.952 1_455 S
C2325 H2340 0.971 . S
C2325 H2341 0.965 . S
H2326 C2310 0.931 . S
H2327 C2315 0.929 . S
H2328 C2316 0.960 . S
H2329 C2316 0.962 . S
H2330 C2316 0.960 . S
H2331 C2317 0.961 . S
H2332 C2317 0.961 . S
H2333 C2317 0.961 . S
H2334 C2318 0.931 . S
H2335 C2323 0.930 . S
H2336 C2324 0.956 . S
H2337 C2324 0.961 . S
H2338 C2324 0.961 . S
H2339 C2325 0.952 1_655 S
H2340 C2325 0.971 . S
H2341 C2325 0.965 . S
C2342 C2343 1.391 . S
C2342 C2344 1.394 . S
C2342 H2358 0.931 . S
C2343 C2342 1.391 . S
C2343 C2347 1.376 . S
C2344 C2342 1.394 . S
C2344 C2345 1.369 . S
C2344 C2348 1.531 . S
C2345 C2344 1.369 . S
C2345 C2346 1.410 . S
C2345 C2353 1.503 . S
C2346 C2345 1.410 . S
C2346 C2347 1.392 . S
C2346 C2349 1.511 . S
C2347 C2343 1.376 . S
C2347 C2346 1.392 . S
C2347 H2359 0.929 . S
C2348 C2344 1.531 . S
C2348 H2360 0.960 . S
C2348 H2361 0.962 . S
C2348 H2362 0.960 . S
C2349 C2346 1.511 . S
C2349 H2363 0.961 . S
C2349 H2364 0.961 . S
C2349 H2365 0.961 . S
C2350 C2351 1.370 . S
C2350 C2352 1.363 . S
C2350 H2366 0.931 . S
C2351 C2350 1.370 . S
C2351 C2355 1.408 . S
C2352 C2350 1.363 . S
C2352 C2353 1.370 . S
C2352 C2356 1.524 . S
C2353 C2345 1.503 . S
C2353 C2352 1.370 . S
C2353 C2354 1.403 . S
C2354 C2353 1.403 . S
C2354 C2355 1.404 . S
C2354 C2357 1.539 . S
C2355 C2351 1.408 . S
C2355 C2354 1.404 . S
C2355 H2367 0.930 . S
C2356 C2352 1.524 . S
C2356 H2368 0.956 . S
C2356 H2369 0.961 . S
C2356 H2370 0.961 . S
C2357 C2354 1.539 . S
C2357 H2371 0.958 . S
C2357 H2372 0.961 . S
C2357 H2373 0.960 . S
H2358 C2342 0.931 . S
H2359 C2347 0.929 . S
H2360 C2348 0.960 . S
H2361 C2348 0.962 . S
H2362 C2348 0.960 . S
H2363 C2349 0.961 . S
H2364 C2349 0.961 . S
H2365 C2349 0.961 . S
H2366 C2350 0.931 . S
H2367 C2355 0.930 . S
H2368 C2356 0.956 . S
H2369 C2356 0.961 . S
H2370 C2356 0.961 . S
H2371 C2357 0.958 . S
H2372 C2357 0.961 . S
H2373 C2357 0.960 . S
C2374 C2375 1.391 . S
C2374 C2376 1.394 . S
C2374 H2390 0.931 . S
C2375 C2374 1.391 . S
C2375 C2379 1.376 . S
C2376 C2374 1.394 . S
C2376 C2377 1.369 . S
C2376 C2380 1.531 . S
C2377 C2376 1.369 . S
C2377 C2378 1.410 . S
C2377 C2385 1.503 . S
C2378 C2377 1.410 . S
C2378 C2379 1.392 . S
C2378 C2381 1.511 . S
C2379 C2375 1.376 . S
C2379 C2378 1.392 . S
C2379 H2391 0.929 . S
C2380 C2376 1.531 . S
C2380 H2392 0.960 . S
C2380 H2393 0.962 . S
C2380 H2394 0.960 . S
C2381 C2378 1.511 . S
C2381 H2395 0.961 . S
C2381 H2396 0.961 . S
C2381 H2397 0.961 1_545 S
C2382 C2383 1.370 . S
C2382 C2384 1.363 . S
C2382 H2398 0.931 . S
C2383 C2382 1.370 . S
C2383 C2387 1.408 1_545 S
C2384 C2382 1.363 . S
C2384 C2385 1.370 . S
C2384 C2388 1.524 . S
C2385 C2377 1.503 . S
C2385 C2384 1.370 . S
C2385 C2386 1.403 1_545 S
C2386 C2385 1.403 1_565 S
C2386 C2387 1.404 . S
C2386 C2389 1.539 . S
C2387 C2383 1.408 1_565 S
C2387 C2386 1.404 . S
C2387 H2399 0.930 . S
C2388 C2384 1.524 . S
C2388 H2400 0.956 . S
C2388 H2401 0.961 . S
C2388 H2402 0.961 . S
C2389 C2386 1.539 . S
C2389 H2403 0.958 . S
C2389 H2404 0.961 . S
C2389 H2405 0.960 . S
H2390 C2374 0.931 . S
H2391 C2379 0.929 . S
H2392 C2380 0.960 . S
H2393 C2380 0.962 . S
H2394 C2380 0.960 . S
H2395 C2381 0.961 . S
H2396 C2381 0.961 . S
H2397 C2381 0.961 1_565 S
H2398 C2382 0.931 . S
H2399 C2387 0.930 . S
H2400 C2388 0.956 . S
H2401 C2388 0.961 . S
H2402 C2388 0.961 . S
H2403 C2389 0.958 . S
H2404 C2389 0.961 . S
H2405 C2389 0.960 . S
C2406 C2407 1.391 . S
C2406 C2408 1.394 . S
C2406 H2422 0.931 . S
C2407 C2406 1.391 . S
C2407 C2411 1.376 . S
C2408 C2406 1.394 . S
C2408 C2409 1.369 . S
C2408 C2412 1.531 . S
C2409 C2408 1.369 . S
C2409 C2410 1.410 . S
C2409 C2417 1.503 . S
C2410 C2409 1.410 . S
C2410 C2411 1.392 . S
C2410 C2413 1.511 . S
C2411 C2407 1.376 . S
C2411 C2410 1.392 . S
C2411 H2423 0.929 . S
C2412 C2408 1.531 . S
C2412 H2424 0.960 . S
C2412 H2425 0.962 . S
C2412 H2426 0.960 . S
C2413 C2410 1.511 . S
C2413 H2427 0.961 . S
C2413 H2428 0.961 . S
C2413 H2429 0.961 . S
C2414 C2415 1.370 . S
C2414 C2416 1.363 . S
C2414 H2430 0.931 . S
C2415 C2414 1.370 . S
C2415 C2419 1.408 . S
C2416 C2414 1.363 . S
C2416 C2417 1.370 . S
C2416 C2420 1.524 . S
C2417 C2409 1.503 . S
C2417 C2416 1.370 . S
C2417 C2418 1.403 . S
C2418 C2417 1.403 . S
C2418 C2419 1.404 . S
C2418 C2421 1.539 . S
C2419 C2415 1.408 . S
C2419 C2418 1.404 . S
C2419 H2431 0.930 . S
C2420 C2416 1.524 . S
C2420 H2432 0.956 . S
C2420 H2433 0.961 . S
C2420 H2434 0.961 . S
C2421 C2418 1.539 . S
C2421 H2435 0.958 . S
C2421 H2436 0.961 . S
C2421 H2437 0.960 . S
H2422 C2406 0.931 . S
H2423 C2411 0.929 . S
H2424 C2412 0.960 . S
H2425 C2412 0.962 . S
H2426 C2412 0.960 . S
H2427 C2413 0.961 . S
H2428 C2413 0.961 . S
H2429 C2413 0.961 . S
H2430 C2414 0.931 . S
H2431 C2419 0.930 . S
H2432 C2420 0.956 . S
H2433 C2420 0.961 . S
H2434 C2420 0.961 . S
H2435 C2421 0.958 . S
H2436 C2421 0.961 . S
H2437 C2421 0.960 . S
C2438 C2439 1.391 . S
C2438 C2440 1.394 . S
C2438 H2454 0.931 . S
C2439 C2438 1.391 . S
C2439 C2443 1.376 . S
C2440 C2438 1.394 . S
C2440 C2441 1.369 . S
C2440 C2444 1.531 . S
C2441 C2440 1.369 . S
C2441 C2442 1.410 . S
C2441 C2449 1.503 . S
C2442 C2441 1.410 . S
C2442 C2443 1.392 . S
C2442 C2445 1.511 . S
C2443 C2439 1.376 . S
C2443 C2442 1.392 . S
C2443 H2455 0.929 . S
C2444 C2440 1.531 . S
C2444 H2456 0.960 . S
C2444 H2457 0.962 . S
C2444 H2458 0.960 . S
C2445 C2442 1.511 . S
C2445 H2459 0.961 . S
C2445 H2460 0.961 . S
C2445 H2461 0.961 . S
C2446 C2447 1.370 . S
C2446 C2448 1.363 . S
C2446 H2462 0.931 . S
C2447 C2446 1.370 . S
C2447 C2451 1.408 . S
C2448 C2446 1.363 . S
C2448 C2449 1.370 . S
C2448 C2452 1.524 . S
C2449 C2441 1.503 . S
C2449 C2448 1.370 . S
C2449 C2450 1.403 . S
C2450 C2449 1.403 . S
C2450 C2451 1.404 . S
C2450 C2453 1.539 . S
C2451 C2447 1.408 . S
C2451 C2450 1.404 . S
C2451 H2463 0.930 . S
C2452 C2448 1.524 . S
C2452 H2464 0.956 . S
C2452 H2465 0.961 . S
C2452 H2466 0.961 . S
C2453 C2450 1.539 . S
C2453 H2467 0.958 . S
C2453 H2468 0.961 . S
C2453 H2469 0.960 . S
H2454 C2438 0.931 . S
H2455 C2443 0.929 . S
H2456 C2444 0.960 . S
H2457 C2444 0.962 . S
H2458 C2444 0.960 . S
H2459 C2445 0.961 . S
H2460 C2445 0.961 . S
H2461 C2445 0.961 . S
H2462 C2446 0.931 . S
H2463 C2451 0.930 . S
H2464 C2452 0.956 . S
H2465 C2452 0.961 . S
H2466 C2452 0.961 . S
H2467 C2453 0.958 . S
H2468 C2453 0.961 . S
H2469 C2453 0.960 . S
C2470 C2471 1.391 . S
C2470 C2472 1.394 . S
C2470 H2486 0.931 . S
C2471 C2470 1.391 . S
C2471 C2475 1.376 . S
C2472 C2470 1.394 . S
C2472 C2473 1.369 . S
C2472 C2476 1.531 . S
C2473 C2472 1.369 . S
C2473 C2474 1.410 . S
C2473 C2481 1.503 . S
C2474 C2473 1.410 . S
C2474 C2475 1.392 . S
C2474 C2477 1.511 . S
C2475 C2471 1.376 . S
C2475 C2474 1.392 . S
C2475 H2487 0.929 . S
C2476 C2472 1.531 . S
C2476 H2488 0.960 . S
C2476 H2489 0.962 . S
C2476 H2490 0.960 . S
C2477 C2474 1.511 . S
C2477 H2491 0.961 . S
C2477 H2492 0.961 . S
C2477 H2493 0.961 . S
C2478 C2479 1.370 . S
C2478 C2480 1.363 . S
C2478 H2494 0.931 . S
C2479 C2478 1.370 . S
C2479 C2483 1.408 . S
C2480 C2478 1.363 . S
C2480 C2481 1.370 . S
C2480 C2484 1.524 . S
C2481 C2473 1.503 . S
C2481 C2480 1.370 . S
C2481 C2482 1.403 . S
C2482 C2481 1.403 . S
C2482 C2483 1.404 . S
C2482 C2485 1.539 . S
C2483 C2479 1.408 . S
C2483 C2482 1.404 . S
C2483 H2495 0.930 . S
C2484 C2480 1.524 . S
C2484 H2496 0.956 . S
C2484 H2497 0.961 . S
C2484 H2498 0.961 . S
C2485 C2482 1.539 . S
C2485 H2499 0.958 . S
C2485 H2500 0.961 . S
C2485 H2501 0.960 . S
H2486 C2470 0.931 . S
H2487 C2475 0.929 . S
H2488 C2476 0.960 . S
H2489 C2476 0.962 . S
H2490 C2476 0.960 . S
H2491 C2477 0.961 . S
H2492 C2477 0.961 . S
H2493 C2477 0.961 . S
H2494 C2478 0.931 . S
H2495 C2483 0.930 . S
H2496 C2484 0.956 . S
H2497 C2484 0.961 . S
H2498 C2484 0.961 . S
H2499 C2485 0.958 . S
H2500 C2485 0.961 . S
H2501 C2485 0.960 . S
C2502 C2503 1.391 . S
C2502 C2504 1.394 . S
C2502 H2518 0.931 . S
C2503 C2502 1.391 . S
C2503 C2507 1.376 . S
C2504 C2502 1.394 . S
C2504 C2505 1.369 . S
C2504 C2508 1.531 . S
C2505 C2504 1.369 . S
C2505 C2506 1.410 . S
C2505 C2513 1.503 . S
C2506 C2505 1.410 . S
C2506 C2507 1.392 . S
C2506 C2509 1.511 . S
C2507 C2503 1.376 . S
C2507 C2506 1.392 . S
C2507 H2519 0.929 . S
C2508 C2504 1.531 . S
C2508 H2520 0.960 . S
C2508 H2521 0.962 . S
C2508 H2522 0.960 . S
C2509 C2506 1.511 . S
C2509 H2523 0.961 . S
C2509 H2524 0.961 . S
C2509 H2525 0.961 . S
C2510 C2511 1.370 . S
C2510 C2512 1.363 . S
C2510 H2526 0.931 . S
C2511 C2510 1.370 . S
C2511 C2515 1.408 . S
C2512 C2510 1.363 . S
C2512 C2513 1.370 . S
C2512 C2516 1.524 . S
C2513 C2505 1.503 . S
C2513 C2512 1.370 . S
C2513 C2514 1.403 . S
C2514 C2513 1.403 . S
C2514 C2515 1.404 . S
C2514 C2517 1.539 . S
C2515 C2511 1.408 . S
C2515 C2514 1.404 . S
C2515 H2527 0.930 . S
C2516 C2512 1.524 . S
C2516 H2528 0.956 . S
C2516 H2529 0.961 . S
C2516 H2530 0.961 . S
C2517 C2514 1.539 . S
C2517 H2531 0.958 . S
C2517 H2532 0.961 . S
C2517 H2533 0.960 . S
H2518 C2502 0.931 . S
H2519 C2507 0.929 . S
H2520 C2508 0.960 . S
H2521 C2508 0.962 . S
H2522 C2508 0.960 . S
H2523 C2509 0.961 . S
H2524 C2509 0.961 . S
H2525 C2509 0.961 . S
H2526 C2510 0.931 . S
H2527 C2515 0.930 . S
H2528 C2516 0.956 . S
H2529 C2516 0.961 . S
H2530 C2516 0.961 . S
H2531 C2517 0.958 . S
H2532 C2517 0.961 . S
H2533 C2517 0.960 . S
C2534 C2535 1.391 . S
C2534 C2536 1.394 . S
C2534 H2550 0.931 . S
C2535 C2534 1.391 . S
C2535 C2539 1.376 . S
C2536 C2534 1.394 . S
C2536 C2537 1.369 . S
C2536 C2540 1.531 . S
C2537 C2536 1.369 . S
C2537 C2538 1.410 . S
C2537 C2545 1.503 . S
C2538 C2537 1.410 . S
C2538 C2539 1.392 . S
C2538 C2541 1.511 . S
C2539 C2535 1.376 . S
C2539 C2538 1.392 . S
C2539 H2551 0.929 . S
C2540 C2536 1.531 . S
C2540 H2552 0.960 . S
C2540 H2553 0.962 . S
C2540 H2554 0.960 . S
C2541 C2538 1.511 . S
C2541 H2555 0.961 . S
C2541 H2556 0.961 . S
C2541 H2557 0.961 . S
C2542 C2543 1.370 . S
C2542 C2544 1.363 . S
C2542 H2558 0.931 . S
C2543 C2542 1.370 . S
C2543 C2547 1.408 . S
C2544 C2542 1.363 . S
C2544 C2545 1.370 . S
C2544 C2548 1.524 . S
C2545 C2537 1.503 . S
C2545 C2544 1.370 . S
C2545 C2546 1.403 . S
C2546 C2545 1.403 . S
C2546 C2547 1.404 . S
C2546 C2549 1.539 . S
C2547 C2543 1.408 . S
C2547 C2546 1.404 . S
C2547 H2559 0.930 . S
C2548 C2544 1.524 . S
C2548 H2560 0.956 . S
C2548 H2561 0.961 . S
C2548 H2562 0.961 . S
C2549 C2546 1.539 . S
C2549 H2563 0.958 . S
C2549 H2564 0.961 . S
C2549 H2565 0.960 . S
H2550 C2534 0.931 . S
H2551 C2539 0.929 . S
H2552 C2540 0.960 . S
H2553 C2540 0.962 . S
H2554 C2540 0.960 . S
H2555 C2541 0.961 . S
H2556 C2541 0.961 . S
H2557 C2541 0.961 . S
H2558 C2542 0.931 . S
H2559 C2547 0.930 . S
H2560 C2548 0.956 . S
H2561 C2548 0.961 . S
H2562 C2548 0.961 . S
H2563 C2549 0.958 . S
H2564 C2549 0.961 . S
H2565 C2549 0.960 . S
C2566 C2567 1.391 . S
C2566 C2568 1.394 . S
C2566 H2582 0.931 . S
C2567 C2566 1.391 . S
C2567 C2571 1.376 . S
C2568 C2566 1.394 . S
C2568 C2569 1.369 . S
C2568 C2572 1.531 . S
C2569 C2568 1.369 . S
C2569 C2570 1.410 . S
C2569 C2577 1.503 . S
C2570 C2569 1.410 . S
C2570 C2571 1.392 . S
C2570 C2573 1.511 . S
C2571 C2567 1.376 . S
C2571 C2570 1.392 . S
C2571 H2583 0.929 . S
C2572 C2568 1.531 . S
C2572 H2584 0.960 . S
C2572 H2585 0.962 . S
C2572 H2586 0.960 . S
C2573 C2570 1.511 . S
C2573 H2587 0.961 . S
C2573 H2588 0.961 . S
C2573 H2589 0.961 . S
C2574 C2575 1.370 . S
C2574 C2576 1.363 . S
C2574 H2590 0.931 . S
C2575 C2574 1.370 . S
C2575 C2579 1.408 . S
C2576 C2574 1.363 . S
C2576 C2577 1.370 . S
C2576 C2580 1.524 . S
C2577 C2569 1.503 . S
C2577 C2576 1.370 . S
C2577 C2578 1.403 . S
C2578 C2577 1.403 . S
C2578 C2579 1.404 . S
C2578 C2581 1.539 . S
C2579 C2575 1.408 . S
C2579 C2578 1.404 . S
C2579 H2591 0.930 . S
C2580 C2576 1.524 . S
C2580 H2592 0.956 . S
C2580 H2593 0.961 . S
C2580 H2594 0.961 . S
C2581 C2578 1.539 . S
C2581 H2595 0.958 . S
C2581 H2596 0.961 . S
C2581 H2597 0.960 . S
H2582 C2566 0.931 . S
H2583 C2571 0.929 . S
H2584 C2572 0.960 . S
H2585 C2572 0.962 . S
H2586 C2572 0.960 . S
H2587 C2573 0.961 . S
H2588 C2573 0.961 . S
H2589 C2573 0.961 . S
H2590 C2574 0.931 . S
H2591 C2579 0.930 . S
H2592 C2580 0.956 . S
H2593 C2580 0.961 . S
H2594 C2580 0.961 . S
H2595 C2581 0.958 . S
H2596 C2581 0.961 . S
H2597 C2581 0.960 . S
C2598 C2599 1.391 . S
C2598 C2600 1.394 . S
C2598 H2614 0.931 . S
C2599 C2598 1.391 . S
C2599 C2603 1.376 . S
C2600 C2598 1.394 . S
C2600 C2601 1.369 . S
C2600 C2604 1.531 . S
C2601 C2600 1.369 . S
C2601 C2602 1.410 . S
C2601 C2609 1.503 . S
C2602 C2601 1.410 . S
C2602 C2603 1.392 . S
C2602 C2605 1.511 . S
C2603 C2599 1.376 . S
C2603 C2602 1.392 . S
C2603 H2615 0.929 . S
C2604 C2600 1.531 . S
C2604 H2616 0.960 . S
C2604 H2617 0.962 . S
C2604 H2618 0.960 . S
C2605 C2602 1.511 . S
C2605 H2619 0.961 . S
C2605 H2620 0.961 . S
C2605 H2621 0.961 . S
C2606 C2607 1.370 . S
C2606 C2608 1.363 . S
C2606 H2622 0.931 . S
C2607 C2606 1.370 . S
C2607 C2611 1.408 . S
C2608 C2606 1.363 . S
C2608 C2609 1.370 . S
C2608 C2612 1.524 . S
C2609 C2601 1.503 . S
C2609 C2608 1.370 . S
C2609 C2610 1.403 . S
C2610 C2609 1.403 . S
C2610 C2611 1.404 . S
C2610 C2613 1.539 . S
C2611 C2607 1.408 . S
C2611 C2610 1.404 . S
C2611 H2623 0.930 . S
C2612 C2608 1.524 . S
C2612 H2624 0.956 . S
C2612 H2625 0.961 . S
C2612 H2626 0.961 . S
C2613 C2610 1.539 . S
C2613 H2627 0.958 . S
C2613 H2628 0.961 . S
C2613 H2629 0.960 . S
H2614 C2598 0.931 . S
H2615 C2603 0.929 . S
H2616 C2604 0.960 . S
H2617 C2604 0.962 . S
H2618 C2604 0.960 . S
H2619 C2605 0.961 . S
H2620 C2605 0.961 . S
H2621 C2605 0.961 . S
H2622 C2606 0.931 . S
H2623 C2611 0.930 . S
H2624 C2612 0.956 . S
H2625 C2612 0.961 . S
H2626 C2612 0.961 . S
H2627 C2613 0.958 . S
H2628 C2613 0.961 . S
H2629 C2613 0.960 . S
C2630 C2631 1.391 . S
C2630 C2632 1.394 . S
C2630 H2646 0.931 . S
C2631 C2630 1.391 . S
C2631 C2635 1.376 . S
C2632 C2630 1.394 . S
C2632 C2633 1.369 . S
C2632 C2636 1.531 . S
C2633 C2632 1.369 . S
C2633 C2634 1.410 . S
C2633 C2641 1.503 . S
C2634 C2633 1.410 . S
C2634 C2635 1.392 . S
C2634 C2637 1.511 . S
C2635 C2631 1.376 . S
C2635 C2634 1.392 . S
C2635 H2647 0.929 . S
C2636 C2632 1.531 . S
C2636 H2648 0.960 . S
C2636 H2649 0.962 . S
C2636 H2650 0.960 . S
C2637 C2634 1.511 . S
C2637 H2651 0.961 . S
C2637 H2652 0.961 . S
C2637 H2653 0.961 . S
C2638 C2639 1.370 . S
C2638 C2640 1.363 . S
C2638 H2654 0.931 . S
C2639 C2638 1.370 . S
C2639 C2643 1.408 . S
C2640 C2638 1.363 . S
C2640 C2641 1.370 . S
C2640 C2644 1.524 . S
C2641 C2633 1.503 . S
C2641 C2640 1.370 . S
C2641 C2642 1.403 . S
C2642 C2641 1.403 . S
C2642 C2643 1.404 . S
C2642 C2645 1.539 . S
C2643 C2639 1.408 . S
C2643 C2642 1.404 . S
C2643 H2655 0.930 . S
C2644 C2640 1.524 . S
C2644 H2656 0.956 . S
C2644 H2657 0.961 . S
C2644 H2658 0.961 . S
C2645 C2642 1.539 . S
C2645 H2659 0.958 . S
C2645 H2660 0.961 . S
C2645 H2661 0.960 . S
H2646 C2630 0.931 . S
H2647 C2635 0.929 . S
H2648 C2636 0.960 . S
H2649 C2636 0.962 . S
H2650 C2636 0.960 . S
H2651 C2637 0.961 . S
H2652 C2637 0.961 . S
H2653 C2637 0.961 . S
H2654 C2638 0.931 . S
H2655 C2643 0.930 . S
H2656 C2644 0.956 . S
H2657 C2644 0.961 . S
H2658 C2644 0.961 . S
H2659 C2645 0.958 . S
H2660 C2645 0.961 . S
H2661 C2645 0.960 . S
C2662 C2663 1.391 . S
C2662 C2664 1.394 . S
C2662 H2678 0.931 . S
C2663 C2662 1.391 . S
C2663 C2667 1.376 . S
C2664 C2662 1.394 . S
C2664 C2665 1.369 . S
C2664 C2668 1.531 . S
C2665 C2664 1.369 . S
C2665 C2666 1.410 . S
C2665 C2673 1.503 . S
C2666 C2665 1.410 . S
C2666 C2667 1.392 . S
C2666 C2669 1.511 . S
C2667 C2663 1.376 . S
C2667 C2666 1.392 . S
C2667 H2679 0.929 . S
C2668 C2664 1.531 . S
C2668 H2680 0.960 . S
C2668 H2681 0.962 . S
C2668 H2682 0.960 . S
C2669 C2666 1.511 . S
C2669 H2683 0.961 . S
C2669 H2684 0.961 . S
C2669 H2685 0.961 . S
C2670 C2671 1.370 . S
C2670 C2672 1.363 . S
C2670 H2686 0.931 . S
C2671 C2670 1.370 . S
C2671 C2675 1.408 . S
C2672 C2670 1.363 . S
C2672 C2673 1.370 . S
C2672 C2676 1.524 . S
C2673 C2665 1.503 . S
C2673 C2672 1.370 . S
C2673 C2674 1.403 . S
C2674 C2673 1.403 . S
C2674 C2675 1.404 . S
C2674 C2677 1.539 . S
C2675 C2671 1.408 . S
C2675 C2674 1.404 . S
C2675 H2687 0.930 . S
C2676 C2672 1.524 . S
C2676 H2688 0.956 . S
C2676 H2689 0.961 . S
C2676 H2690 0.961 . S
C2677 C2674 1.539 . S
C2677 H2691 0.958 . S
C2677 H2692 0.961 . S
C2677 H2693 0.960 . S
H2678 C2662 0.931 . S
H2679 C2667 0.929 . S
H2680 C2668 0.960 . S
H2681 C2668 0.962 . S
H2682 C2668 0.960 . S
H2683 C2669 0.961 . S
H2684 C2669 0.961 . S
H2685 C2669 0.961 . S
H2686 C2670 0.931 . S
H2687 C2675 0.930 . S
H2688 C2676 0.956 . S
H2689 C2676 0.961 . S
H2690 C2676 0.961 . S
H2691 C2677 0.958 . S
H2692 C2677 0.961 . S
H2693 C2677 0.960 . S
C2694 C2695 1.391 . S
C2694 C2696 1.394 . S
C2694 H2710 0.931 . S
C2695 C2694 1.391 . S
C2695 C2699 1.376 . S
C2696 C2694 1.394 . S
C2696 C2697 1.369 . S
C2696 C2700 1.531 . S
C2697 C2696 1.369 . S
C2697 C2698 1.410 . S
C2697 C2705 1.503 . S
C2698 C2697 1.410 . S
C2698 C2699 1.392 . S
C2698 C2701 1.511 . S
C2699 C2695 1.376 . S
C2699 C2698 1.392 . S
C2699 H2711 0.929 . S
C2700 C2696 1.531 . S
C2700 H2712 0.960 . S
C2700 H2713 0.962 . S
C2700 H2714 0.960 . S
C2701 C2698 1.511 . S
C2701 H2715 0.961 . S
C2701 H2716 0.961 . S
C2701 H2717 0.961 . S
C2702 C2703 1.370 . S
C2702 C2704 1.363 . S
C2702 H2718 0.931 . S
C2703 C2702 1.370 . S
C2703 C2707 1.408 . S
C2704 C2702 1.363 . S
C2704 C2705 1.370 . S
C2704 C2708 1.524 . S
C2705 C2697 1.503 . S
C2705 C2704 1.370 . S
C2705 C2706 1.403 . S
C2706 C2705 1.403 . S
C2706 C2707 1.404 . S
C2706 C2709 1.539 . S
C2707 C2703 1.408 . S
C2707 C2706 1.404 . S
C2707 H2719 0.930 . S
C2708 C2704 1.524 . S
C2708 H2720 0.956 . S
C2708 H2721 0.961 . S
C2708 H2722 0.961 . S
C2709 C2706 1.539 . S
C2709 H2723 0.958 . S
C2709 H2724 0.961 . S
C2709 H2725 0.960 . S
H2710 C2694 0.931 . S
H2711 C2699 0.929 . S
H2712 C2700 0.960 . S
H2713 C2700 0.962 . S
H2714 C2700 0.960 . S
H2715 C2701 0.961 . S
H2716 C2701 0.961 . S
H2717 C2701 0.961 . S
H2718 C2702 0.931 . S
H2719 C2707 0.930 . S
H2720 C2708 0.956 . S
H2721 C2708 0.961 . S
H2722 C2708 0.961 . S
H2723 C2709 0.958 . S
H2724 C2709 0.961 . S
H2725 C2709 0.960 . S
C2726 C2727 1.391 . S
C2726 C2728 1.394 . S
C2726 H2742 0.931 . S
C2727 C2726 1.391 . S
C2727 C2731 1.376 . S
C2728 C2726 1.394 . S
C2728 C2729 1.369 . S
C2728 C2732 1.531 . S
C2729 C2728 1.369 . S
C2729 C2730 1.410 . S
C2729 C2737 1.503 . S
C2730 C2729 1.410 . S
C2730 C2731 1.392 . S
C2730 C2733 1.511 . S
C2731 C2727 1.376 . S
C2731 C2730 1.392 . S
C2731 H2743 0.929 . S
C2732 C2728 1.531 . S
C2732 H2744 0.960 . S
C2732 H2745 0.962 . S
C2732 H2746 0.960 . S
C2733 C2730 1.511 . S
C2733 H2747 0.961 . S
C2733 H2748 0.961 . S
C2733 H2749 0.961 . S
C2734 C2735 1.370 . S
C2734 C2736 1.363 . S
C2734 H2750 0.931 . S
C2735 C2734 1.370 . S
C2735 C2739 1.408 . S
C2736 C2734 1.363 . S
C2736 C2737 1.370 . S
C2736 C2740 1.524 . S
C2737 C2729 1.503 . S
C2737 C2736 1.370 . S
C2737 C2738 1.403 . S
C2738 C2737 1.403 . S
C2738 C2739 1.404 . S
C2738 C2741 1.539 . S
C2739 C2735 1.408 . S
C2739 C2738 1.404 . S
C2739 H2751 0.930 . S
C2740 C2736 1.524 . S
C2740 H2752 0.956 . S
C2740 H2753 0.961 . S
C2740 H2754 0.961 . S
C2741 C2738 1.539 . S
C2741 H2755 0.958 . S
C2741 H2756 0.961 . S
C2741 H2757 0.960 . S
H2742 C2726 0.931 . S
H2743 C2731 0.929 . S
H2744 C2732 0.960 . S
H2745 C2732 0.962 . S
H2746 C2732 0.960 . S
H2747 C2733 0.961 . S
H2748 C2733 0.961 . S
H2749 C2733 0.961 . S
H2750 C2734 0.931 . S
H2751 C2739 0.930 . S
H2752 C2740 0.956 . S
H2753 C2740 0.961 . S
H2754 C2740 0.961 . S
H2755 C2741 0.958 . S
H2756 C2741 0.961 . S
H2757 C2741 0.960 . S
C2758 C2759 1.391 . S
C2758 C2760 1.394 . S
C2758 H2774 0.931 . S
C2759 C2758 1.391 . S
C2759 C2763 1.376 . S
C2760 C2758 1.394 . S
C2760 C2761 1.369 . S
C2760 C2764 1.531 . S
C2761 C2760 1.369 . S
C2761 C2762 1.410 . S
C2761 C2769 1.503 . S
C2762 C2761 1.410 . S
C2762 C2763 1.392 . S
C2762 C2765 1.511 . S
C2763 C2759 1.376 . S
C2763 C2762 1.392 . S
C2763 H2775 0.929 . S
C2764 C2760 1.531 . S
C2764 H2776 0.960 . S
C2764 H2777 0.962 . S
C2764 H2778 0.960 . S
C2765 C2762 1.511 . S
C2765 H2779 0.961 . S
C2765 H2780 0.961 . S
C2765 H2781 0.961 . S
C2766 C2767 1.370 . S
C2766 C2768 1.363 . S
C2766 H2782 0.931 . S
C2767 C2766 1.370 . S
C2767 C2771 1.408 . S
C2768 C2766 1.363 . S
C2768 C2769 1.370 . S
C2768 C2772 1.524 . S
C2769 C2761 1.503 . S
C2769 C2768 1.370 . S
C2769 C2770 1.403 . S
C2770 C2769 1.403 . S
C2770 C2771 1.404 . S
C2770 C2773 1.539 . S
C2771 C2767 1.408 . S
C2771 C2770 1.404 . S
C2771 H2783 0.930 . S
C2772 C2768 1.524 . S
C2772 H2784 0.956 . S
C2772 H2785 0.961 . S
C2772 H2786 0.961 . S
C2773 C2770 1.539 . S
C2773 H2787 0.958 . S
C2773 H2788 0.961 . S
C2773 H2789 0.960 . S
H2774 C2758 0.931 . S
H2775 C2763 0.929 . S
H2776 C2764 0.960 . S
H2777 C2764 0.962 . S
H2778 C2764 0.960 . S
H2779 C2765 0.961 . S
H2780 C2765 0.961 . S
H2781 C2765 0.961 . S
H2782 C2766 0.931 . S
H2783 C2771 0.930 . S
H2784 C2772 0.956 . S
H2785 C2772 0.961 . S
H2786 C2772 0.961 . S
H2787 C2773 0.958 . S
H2788 C2773 0.961 . S
H2789 C2773 0.960 . S
C1063 C528 1.667 . S
C1071 C714 1.674 . S
C1095 C562 1.810 . S
C1103 C754 1.821 . S
C1127 C484 1.750 . S
C1135 C784 1.746 . S
C1159 C445 1.591 . S
C1167 C744 1.562 . S
C1199 C794 1.502 . S
C1191 C367 1.478 . S
C1223 C411 1.428 . S
C1231 C704 1.395 1_556 S
C1263 C733 1.696 . S
C1255 C450 1.658 . S
C1295 C773 1.798 . S
C1287 C372 1.782 . S
C1319 C406 1.742 . S
C1327 C799 1.761 . S
C1351 C523 1.560 . S
C1359 C759 1.576 . S
C1383 C567 1.474 . S
C1391 C813 1.475 . S
C1423 C719 1.458 . S
C1415 C489 1.384 . S
C1455 C834 1.673 . S
C1447 C60 1.670 . S
C1479 C94 1.821 . S
C1487 C874 1.814 . S
C1511 C16 1.766 . S
C1519 C904 1.749 . S
C1543 C679 1.589 . S
C1551 C864 1.561 . S
C1575 C601 1.502 . S
C1583 C914 1.495 . S
C1607 C645 1.399 . S
C1615 C824 1.438 . S
C1639 C684 1.642 . S
C1647 C853 1.702 . S
C1671 C606 1.776 . S
C1679 C893 1.801 . S
C1711 C919 1.753 . S
C1703 C640 1.730 . S
C1735 C55 1.572 . S
C1743 C879 1.558 . S
C1775 C933 1.474 . S
C1767 C99 1.480 . S
C1799 C21 1.413 . S
C1807 C839 1.454 . S
C1839 C954 1.683 . S
C1831 C294 1.644 . S
C1863 C328 1.800 . S
C1871 C994 1.823 . S
C1903 C1024 1.752 . S
C1895 C250 1.765 . S
C1935 C984 1.578 . S
C1927 C211 1.552 . S
C1967 C1034 1.495 . S
C1959 C133 1.503 . S
C1991 C177 1.383 . S
C1999 C944 1.437 . S
C2023 C216 1.640 . S
C2031 C973 1.702 . S
C2055 C138 1.772 . S
C2063 C1013 1.804 . S
C2095 C1039 1.750 . S
C2087 C172 1.737 . S
C2119 C289 1.571 . S
C2127 C999 1.559 . S
C2151 C333 1.453 . S
C2159 C1053 1.480 . S
C2183 C255 1.417 . S
C2191 C959 1.453 . S
C2215 C586 1.333 . S
C2223 C731 1.319 . S
C2255 C771 1.847 . S
C2247 C625 1.847 . S
C2279 C664 1.567 . S
C2287 C790 1.583 . S
C2311 C235 1.864 . S
C2319 C750 1.853 . S
C2343 C274 1.571 . S
C2351 C811 1.561 . S
C2383 C710 1.322 . S
C2375 C313 1.334 . S
C2407 C118 1.332 . S
C2415 C851 1.332 . S
C2439 C157 1.869 . S
C2447 C891 1.841 . S
C2471 C196 1.560 . S
C2479 C910 1.584 . S
C2503 C469 1.860 . S
C2511 C870 1.864 . S
C2543 C931 1.566 . S
C2535 C508 1.547 . S
C2567 C547 1.333 . S
C2575 C830 1.318 . S
C2599 C352 1.336 . S
C2607 C971 1.322 . S
C2631 C391 1.837 . S
C2639 C1011 1.855 . S
C2671 C1030 1.575 . S
C2663 C430 1.566 . S
C2695 C1 1.864 . S
C2703 C990 1.862 . S
C2727 C40 1.570 . S
C2735 C1051 1.562 . S
C2759 C79 1.333 . S
C2767 C950 1.323 . S
