# Generated by pormake.
# Topology bwt, (3,3)-cn, num edge types: 1
# Building blocks:
#     Node 0, Type 0, BuildingBlock: OLANEW_clean_sbu_2, # of connection points: 3
#     Node 1, Type 0, BuildingBlock: OLANEW_clean_sbu_2, # of connection points: 3
#     Node 2, Type 0, BuildingBlock: OLANEW_clean_sbu_2, # of connection points: 3
#     Node 3, Type 0, BuildingBlock: OLANEW_clean_sbu_2, # of connection points: 3
#     Node 4, Type 0, BuildingBlock: OLANEW_clean_sbu_2, # of connection points: 3
#     Node 5, Type 0, BuildingBlock: OLANEW_clean_sbu_2, # of connection points: 3
#     Node 6, Type 0, BuildingBlock: OLANEW_clean_sbu_2, # of connection points: 3
#     Node 7, Type 0, BuildingBlock: OLANEW_clean_sbu_2, # of connection points: 3
#     Node 8, Type 0, BuildingBlock: OLANEW_clean_sbu_2, # of connection points: 3
#     Node 9, Type 0, BuildingBlock: OLANEW_clean_sbu_2, # of connection points: 3
#     Node 10, Type 0, BuildingBlock: OLANEW_clean_sbu_2, # of connection points: 3
#     Node 11, Type 0, BuildingBlock: OLANEW_clean_sbu_2, # of connection points: 3
#     Node 12, Type 0, BuildingBlock: OLANEW_clean_sbu_2, # of connection points: 3
#     Node 13, Type 0, BuildingBlock: OLANEW_clean_sbu_2, # of connection points: 3
#     Node 14, Type 0, BuildingBlock: OLANEW_clean_sbu_2, # of connection points: 3
#     Node 15, Type 0, BuildingBlock: OLANEW_clean_sbu_2, # of connection points: 3
#     Node 16, Type 0, BuildingBlock: OLANEW_clean_sbu_2, # of connection points: 3
#     Node 17, Type 0, BuildingBlock: OLANEW_clean_sbu_2, # of connection points: 3
#     Node 18, Type 0, BuildingBlock: OLANEW_clean_sbu_2, # of connection points: 3
#     Node 19, Type 0, BuildingBlock: OLANEW_clean_sbu_2, # of connection points: 3
#     Node 20, Type 0, BuildingBlock: OLANEW_clean_sbu_2, # of connection points: 3
#     Node 21, Type 0, BuildingBlock: OLANEW_clean_sbu_2, # of connection points: 3
#     Node 22, Type 0, BuildingBlock: OLANEW_clean_sbu_2, # of connection points: 3
#     Node 23, Type 0, BuildingBlock: OLANEW_clean_sbu_2, # of connection points: 3
#     Node 24, Type 1, BuildingBlock: BETDAH_clean_linker_0, # of connection points: 3
#     Node 25, Type 1, BuildingBlock: BETDAH_clean_linker_0, # of connection points: 3
#     Node 26, Type 1, BuildingBlock: BETDAH_clean_linker_0, # of connection points: 3
#     Node 27, Type 1, BuildingBlock: BETDAH_clean_linker_0, # of connection points: 3
#     Node 28, Type 1, BuildingBlock: BETDAH_clean_linker_0, # of connection points: 3
#     Node 29, Type 1, BuildingBlock: BETDAH_clean_linker_0, # of connection points: 3
#     Node 30, Type 1, BuildingBlock: BETDAH_clean_linker_0, # of connection points: 3
#     Node 31, Type 1, BuildingBlock: BETDAH_clean_linker_0, # of connection points: 3
#     Node 32, Type 1, BuildingBlock: BETDAH_clean_linker_0, # of connection points: 3
#     Node 33, Type 1, BuildingBlock: BETDAH_clean_linker_0, # of connection points: 3
#     Node 34, Type 1, BuildingBlock: BETDAH_clean_linker_0, # of connection points: 3
#     Node 35, Type 1, BuildingBlock: BETDAH_clean_linker_0, # of connection points: 3
#     Node 36, Type 1, BuildingBlock: BETDAH_clean_linker_0, # of connection points: 3
#     Node 37, Type 1, BuildingBlock: BETDAH_clean_linker_0, # of connection points: 3
#     Node 38, Type 1, BuildingBlock: BETDAH_clean_linker_0, # of connection points: 3
#     Node 39, Type 1, BuildingBlock: BETDAH_clean_linker_0, # of connection points: 3
#     Node 40, Type 1, BuildingBlock: BETDAH_clean_linker_0, # of connection points: 3
#     Node 41, Type 1, BuildingBlock: BETDAH_clean_linker_0, # of connection points: 3
#     Node 42, Type 1, BuildingBlock: BETDAH_clean_linker_0, # of connection points: 3
#     Node 43, Type 1, BuildingBlock: BETDAH_clean_linker_0, # of connection points: 3
#     Node 44, Type 1, BuildingBlock: BETDAH_clean_linker_0, # of connection points: 3
#     Node 45, Type 1, BuildingBlock: BETDAH_clean_linker_0, # of connection points: 3
#     Node 46, Type 1, BuildingBlock: BETDAH_clean_linker_0, # of connection points: 3
#     Node 47, Type 1, BuildingBlock: BETDAH_clean_linker_0, # of connection points: 3
#     Edge 48, Type (0, 1), None
#     Edge 49, Type (0, 1), None
#     Edge 50, Type (0, 1), None
#     Edge 51, Type (0, 1), None
#     Edge 52, Type (0, 1), None
#     Edge 53, Type (0, 1), None
#     Edge 54, Type (0, 1), None
#     Edge 55, Type (0, 1), None
#     Edge 56, Type (0, 1), None
#     Edge 57, Type (0, 1), None
#     Edge 58, Type (0, 1), None
#     Edge 59, Type (0, 1), None
#     Edge 60, Type (0, 1), None
#     Edge 61, Type (0, 1), None
#     Edge 62, Type (0, 1), None
#     Edge 63, Type (0, 1), None
#     Edge 64, Type (0, 1), None
#     Edge 65, Type (0, 1), None
#     Edge 66, Type (0, 1), None
#     Edge 67, Type (0, 1), None
#     Edge 68, Type (0, 1), None
#     Edge 69, Type (0, 1), None
#     Edge 70, Type (0, 1), None
#     Edge 71, Type (0, 1), None
#     Edge 72, Type (0, 1), None
#     Edge 73, Type (0, 1), None
#     Edge 74, Type (0, 1), None
#     Edge 75, Type (0, 1), None
#     Edge 76, Type (0, 1), None
#     Edge 77, Type (0, 1), None
#     Edge 78, Type (0, 1), None
#     Edge 79, Type (0, 1), None
#     Edge 80, Type (0, 1), None
#     Edge 81, Type (0, 1), None
#     Edge 82, Type (0, 1), None
#     Edge 83, Type (0, 1), None
#     Edge 84, Type (0, 1), None
#     Edge 85, Type (0, 1), None
#     Edge 86, Type (0, 1), None
#     Edge 87, Type (0, 1), None
#     Edge 88, Type (0, 1), None
#     Edge 89, Type (0, 1), None
#     Edge 90, Type (0, 1), None
#     Edge 91, Type (0, 1), None
#     Edge 92, Type (0, 1), None
#     Edge 93, Type (0, 1), None
#     Edge 94, Type (0, 1), None
#     Edge 95, Type (0, 1), None
#     Edge 96, Type (0, 1), None
#     Edge 97, Type (0, 1), None
#     Edge 98, Type (0, 1), None
#     Edge 99, Type (0, 1), None
#     Edge 100, Type (0, 1), None
#     Edge 101, Type (0, 1), None
#     Edge 102, Type (0, 1), None
#     Edge 103, Type (0, 1), None
#     Edge 104, Type (0, 1), None
#     Edge 105, Type (0, 1), None
#     Edge 106, Type (0, 1), None
#     Edge 107, Type (0, 1), None
#     Edge 108, Type (0, 1), None
#     Edge 109, Type (0, 1), None
#     Edge 110, Type (0, 1), None
#     Edge 111, Type (0, 1), None
#     Edge 112, Type (0, 1), None
#     Edge 113, Type (0, 1), None
#     Edge 114, Type (0, 1), None
#     Edge 115, Type (0, 1), None
#     Edge 116, Type (0, 1), None
#     Edge 117, Type (0, 1), None
#     Edge 118, Type (0, 1), None
#     Edge 119, Type (0, 1), None
# Relax obj value: 0.039
# Max RMSD: 0.117
# Mean RMSD: 0.070
data_MOF--net-bwt--node1-OLANEW_clean_sbu_2--node2-BETDAH_clean_linker_0--edge1-none
_symmetry_space_group_name_H-M    P1
_symmetry_Int_Tables_number       1
_symmetry_cell_setting            triclinic
loop_
_symmetry_equiv_pos_as_xyz
'x, y, z'
_cell_length_a     29.108066
_cell_length_b     29.117653
_cell_length_c     29.109097
_cell_angle_alpha  92.473974
_cell_angle_beta   92.548552
_cell_angle_gamma 92.625647
loop_
_atom_site_label
_atom_site_type_symbol
_atom_site_fract_x
_atom_site_fract_y
_atom_site_fract_z
_atom_type_partial_charge
O0 O 0.21315 0.52449 0.34918 0.0
Cd1 Cd 0.18729 0.55314 0.27435 0.0
O2 O 0.26461 0.58085 0.36837 0.0
Cd3 Cd 0.27717 0.59635 0.29761 0.0
O4 O 0.33042 0.56423 0.25857 0.0
C5 C 0.36923 0.55901 0.279 0.0
O6 O 0.37709 0.57551 0.32144 0.0
C7 C 0.24105 0.54527 0.3788 0.0
C8 C 0.09676 0.51825 0.25563 0.0
O9 O 0.1318 0.4952 0.24601 0.0
O10 O 0.10391 0.5594 0.27267 0.0
O11 O 0.25021 0.4374 0.78169 0.0
Cd12 Cd 0.27216 0.39652 0.71159 0.0
O13 O 0.21494 0.37659 0.80842 0.0
Cd14 Cd 0.18882 0.35623 0.73853 0.0
O15 O 0.12794 0.3937 0.71898 0.0
C16 C 0.0944 0.38994 0.74528 0.0
O17 O 0.0955 0.35926 0.77698 0.0
C18 C 0.23349 0.41686 0.81511 0.0
C19 C 0.36054 0.43448 0.70318 0.0
O20 O 0.35529 0.39575 0.72207 0.0
O21 O 0.32491 0.45249 0.68554 0.0
O22 O 0.69564 0.96898 0.62063 0.0
Cd23 Cd 0.67482 0.9492 0.69805 0.0
O24 O 0.72984 0.90437 0.60636 0.0
Cd25 Cd 0.75118 0.90114 0.67852 0.0
O26 O 0.80895 0.94323 0.71014 0.0
C27 C 0.84611 0.94669 0.68892 0.0
O28 O 0.84998 0.92267 0.65021 0.0
C29 C 0.71294 0.94102 0.59233 0.0
C30 C 0.59545 -0.00364 0.71412 0.0
O31 O 0.59197 0.95467 0.69787 0.0
O32 O 0.63582 0.01412 0.72472 0.0
O33 O 0.76098 -0.01498 0.17761 0.0
Cd34 Cd 0.79318 -0.01113 0.25627 0.0
O35 O 0.72018 0.04695 0.17427 0.0
Cd36 Cd 0.70803 0.04295 0.2472 0.0
O37 O 0.65508 -0.00679 0.26807 0.0
C38 C 0.61461 -0.00612 0.24983 0.0
O39 O 0.60415 0.02666 0.22218 0.0
C40 C 0.73794 0.01279 0.15445 0.0
C41 C 0.88039 0.95249 0.25229 0.0
O42 O 0.84401 0.9264 0.25463 0.0
O43 O 0.87596 -0.00389 0.25318 0.0
O44 O 0.34716 0.22446 0.52252 0.0
Cd45 Cd 0.27284 0.19677 0.54944 0.0
O46 O 0.369 0.26533 0.58577 0.0
Cd47 Cd 0.29792 0.27805 0.59957 0.0
O48 O 0.2581 0.32911 0.56467 0.0
C49 C 0.27811 0.36774 0.55765 0.0
O50 O 0.32055 0.37672 0.57379 0.0
C51 C 0.37827 0.24723 0.54696 0.0
C52 C 0.26079 0.10521 0.51674 0.0
O53 O 0.25018 0.13878 0.49195 0.0
O54 O 0.27553 0.11436 0.55841 0.0
O55 O 0.17656 0.76189 -0.01357 0.0
Cd56 Cd 0.25523 0.79417 -0.01048 0.0
O57 O 0.17397 0.72079 0.04833 0.0
Cd58 Cd 0.24677 0.70829 0.04382 0.0
O59 O 0.2703 0.65388 -0.0026 0.0
C60 C 0.24792 0.61523 -0.00465 0.0
O61 O 0.21378 0.60843 0.02261 0.0
C62 C 0.15375 0.73873 0.01444 0.0
C63 C 0.25107 0.88124 0.95269 0.0
O64 O 0.25321 0.8448 0.92676 0.0
O65 O 0.25222 0.87693 -0.00364 0.0
O66 O 0.78255 0.25013 0.4334 0.0
Cd67 Cd 0.71225 0.27237 0.39292 0.0
O68 O 0.8118 0.21518 0.37368 0.0
Cd69 Cd 0.74334 0.18945 0.34878 0.0
O70 O 0.71062 0.13301 0.38434 0.0
C71 C 0.73088 0.09546 0.38767 0.0
O72 O 0.7686 0.08939 0.36555 0.0
C73 C 0.81675 0.23348 0.41418 0.0
C74 C 0.70259 0.36012 0.43212 0.0
O75 O 0.72137 0.35573 0.39328 0.0
O76 O 0.68578 0.3239 0.44986 0.0
O77 O 0.61774 0.69429 0.96713 0.0
Cd78 Cd 0.69386 0.67264 0.94417 0.0
O79 O 0.60351 0.73192 0.90449 0.0
Cd80 Cd 0.67594 0.75201 0.90073 0.0
O81 O 0.70857 0.80889 0.94328 0.0
C82 C 0.68756 0.84605 0.94759 0.0
O83 O 0.6485 0.85038 0.92424 0.0
C84 C 0.5896 0.71366 0.94056 0.0
C85 C 0.71317 0.59525 -0.00667 0.0
O86 O 0.69436 0.59013 0.95267 0.0
O87 O 0.72453 0.63621 0.00896 0.0
O88 O 0.5221 0.34918 0.22492 0.0
Cd89 Cd 0.54774 0.27421 0.19801 0.0
O90 O 0.58594 0.37081 0.265 0.0
Cd91 Cd 0.59999 0.29978 0.27749 0.0
O92 O 0.55904 0.26589 0.32821 0.0
C93 C 0.55781 0.28388 0.36868 0.0
O94 O 0.58461 0.32017 0.38114 0.0
C95 C 0.54702 0.38028 0.24719 0.0
C96 C 0.51489 0.26197 0.10643 0.0
O97 O 0.48996 0.25188 0.14008 0.0
O98 O 0.55674 0.27625 0.11554 0.0
O99 O -0.01517 0.17679 0.76217 0.0
Cd100 Cd -0.01173 0.25534 0.79445 0.0
O101 O 0.04694 0.17406 0.72151 0.0
Cd102 Cd 0.04214 0.24687 0.70925 0.0
O103 O -0.00801 0.26726 0.65651 0.0
C104 C -0.00749 0.24886 0.61611 0.0
O105 O 0.02531 0.22132 0.60562 0.0
C106 C 0.01283 0.15392 0.7392 0.0
C107 C 0.95138 0.2508 0.88144 0.0
O108 O 0.92548 0.25319 0.84497 0.0
O109 O -0.00494 0.25192 0.87721 0.0
O110 O 0.43248 0.78343 0.25076 0.0
Cd111 Cd 0.39273 0.71278 0.27319 0.0
O112 O 0.37236 0.81239 0.21615 0.0
Cd113 Cd 0.34762 0.74393 0.19052 0.0
O114 O 0.38304 0.71114 0.13417 0.0
C115 C 0.38643 0.73136 0.09654 0.0
O116 O 0.3645 0.76915 0.09033 0.0
C117 C 0.41296 0.81754 0.23425 0.0
C118 C 0.43248 0.70374 0.3609 0.0
O119 O 0.39335 0.72194 0.35653 0.0
O120 O 0.45028 0.68715 0.32469 0.0
O121 O 0.97198 0.61655 0.69556 0.0
Cd122 Cd 0.95118 0.69392 0.67578 0.0
O123 O 0.90546 0.60312 0.72675 0.0
Cd124 Cd 0.90435 0.67466 0.75098 0.0
O125 O 0.94519 0.7065 0.80957 0.0
C126 C 0.94712 0.68637 0.84747 0.0
O127 O 0.92218 0.64826 0.85189 0.0
C128 C 0.94229 0.58854 0.71079 0.0
C129 C -0.00275 0.71202 0.59627 0.0
O130 O 0.95581 0.69491 0.59296 0.0
O131 O 0.01517 0.72247 0.63658 0.0
O132 O 0.77073 0.40447 0.58923 0.0
Cd133 Cd 0.80066 0.37823 0.6632 0.0
O134 O 0.73759 0.4664 0.61449 0.0
Cd135 Cd 0.68562 0.51829 0.61351 0.0
O136 O 0.62096 0.51848 0.64889 0.0
C137 C 0.60642 0.47756 0.65516 0.0
O138 O 0.62913 0.44309 0.63869 0.0
C139 C 0.74648 0.43889 0.5813 0.0
C140 C 0.88046 0.42884 0.69154 0.0
O141 O 0.88375 0.38904 0.67177 0.0
O142 O 0.84021 0.44306 0.69853 0.0
O143 O 0.68021 0.57436 0.15712 0.0
Cd144 Cd 0.65725 0.60525 0.23189 0.0
O145 O 0.7262 0.52336 0.18405 0.0
Cd146 Cd 0.78048 0.47447 0.18586 0.0
O147 O 0.81772 0.44643 0.24404 0.0
C148 C 0.84767 0.46991 0.26933 0.0
O149 O 0.85371 0.51364 0.26259 0.0
C150 C 0.70733 0.54197 0.1499 0.0
C151 C 0.58521 0.54707 0.25583 0.0
O152 O 0.57668 0.58382 0.23497 0.0
O153 O 0.62717 0.54002 0.26763 0.0
O154 O 0.31686 0.03592 0.3694 0.0
Cd155 Cd 0.34442 0.05165 0.29315 0.0
O156 O 0.27501 0.97211 0.35271 0.0
Cd157 Cd 0.21782 0.92177 0.36009 0.0
O158 O 0.14788 0.91198 0.3293 0.0
C159 C 0.13441 0.94972 0.31453 0.0
O160 O 0.16133 -0.01298 0.32123 0.0
C161 C 0.28948 0.00388 0.38187 0.0
C162 C 0.4025 -0.0151 0.2639 0.0
O163 O 0.41929 0.02171 0.28528 0.0
O164 O 0.35881 0.98071 0.25585 0.0
O165 O 0.17176 0.94296 0.80817 0.0
Cd166 Cd 0.13668 0.93581 0.72986 0.0
O167 O 0.21167 0.00608 0.79415 0.0
Cd168 Cd 0.26992 0.0563 0.80329 0.0
O169 O 0.33887 0.06404 0.77706 0.0
C170 C 0.34468 0.03357 0.74563 0.0
O171 O 0.31059 0.00401 0.73298 0.0
C172 C 0.20129 0.97486 0.82166 0.0
C173 C 0.06371 -0.00658 0.72037 0.0
O174 O 0.05606 0.95104 0.72903 0.0
O175 O 0.10542 0.0078 0.71551 0.0
O176 O 0.58891 0.77457 0.40536 0.0
Cd177 Cd 0.66259 0.80468 0.37838 0.0
O178 O 0.61502 0.74035 0.46638 0.0
Cd179 Cd 0.61459 0.687 0.51695 0.0
O180 O 0.6484 0.62149 0.51631 0.0
C181 C 0.65397 0.60698 0.47528 0.0
O182 O 0.63803 0.63037 0.44099 0.0
C183 C 0.58147 0.74968 0.43948 0.0
C184 C 0.69317 0.88252 0.43084 0.0
O185 O 0.67056 0.88691 0.39262 0.0
O186 O 0.70203 0.84187 0.44278 0.0
O187 O 0.80662 0.17125 0.9427 0.0
Cd188 Cd 0.72835 0.13593 0.93556 0.0
O189 O 0.79281 0.21057 0.00612 0.0
Cd190 Cd 0.80188 0.268 0.05726 0.0
O191 O 0.77407 0.33582 0.06869 0.0
C192 C 0.75425 0.34844 0.03195 0.0
O193 O 0.7539 0.32148 -0.0054 0.0
C194 C 0.82022 0.20052 0.97476 0.0
C195 C 0.71897 0.06311 -0.00643 0.0
O196 O 0.72774 0.05541 0.95125 0.0
O197 O 0.71394 0.1048 0.00772 0.0
O198 O 0.15956 0.67724 0.57168 0.0
Cd199 Cd 0.2337 0.65392 0.60347 0.0
O200 O 0.18278 0.70996 0.50952 0.0
Cd201 Cd 0.17611 0.75954 0.45591 0.0
O202 O 0.19669 0.83258 0.45999 0.0
C203 C 0.21442 0.8452 0.49942 0.0
O204 O 0.21784 0.81501 0.53144 0.0
C205 C 0.1504 0.69834 0.53514 0.0
C206 C 0.25563 0.58164 0.54557 0.0
O207 O 0.23489 0.57342 0.58247 0.0
O208 O 0.26861 0.62331 0.53854 0.0
O209 O 0.36712 0.31679 0.03614 0.0
Cd210 Cd 0.28983 0.34266 0.04931 0.0
O211 O 0.35117 0.27525 0.97215 0.0
Cd212 Cd 0.35844 0.21866 0.92134 0.0
O213 O 0.32616 0.14938 0.91115 0.0
C214 C 0.31664 0.13339 0.94964 0.0
O215 O 0.3288 0.15765 -0.01238 0.0
C216 C 0.38005 0.28966 0.00423 0.0
C217 C 0.26224 0.40173 0.98256 0.0
O218 O 0.28208 0.41796 0.02039 0.0
O219 O 0.25495 0.35803 0.97724 0.0
O220 O 0.40427 0.59002 0.77551 0.0
Cd221 Cd 0.37576 0.66292 0.80555 0.0
O222 O 0.46556 0.61663 0.74193 0.0
Cd223 Cd 0.51652 0.61641 0.68896 0.0
O224 O 0.51679 0.65034 0.6234 0.0
C225 C 0.47593 0.65488 0.60776 0.0
O226 O 0.44139 0.63768 0.63004 0.0
C227 C 0.43872 0.5829 0.75103 0.0
C228 C 0.42791 0.69432 0.88329 0.0
O229 O 0.39018 0.67084 0.88777 0.0
O230 O 0.43942 0.70369 0.84262 0.0
O231 O 0.94266 0.8083 0.17341 0.0
Cd232 Cd 0.93569 0.72981 0.13884 0.0
O233 O 0.0059 0.79474 0.21325 0.0
Cd234 Cd 0.05616 0.80414 0.27137 0.0
O235 O 0.06354 0.77774 0.34025 0.0
C236 C 0.0342 0.74497 0.34541 0.0
O237 O 0.00591 0.73109 0.3107 0.0
C238 C 0.97458 0.82205 0.20281 0.0
C239 C -0.00675 0.72003 0.06578 0.0
O240 O 0.95082 0.72842 0.05814 0.0
O241 O 0.0077 0.7156 0.10752 0.0
O242 O 0.57132 0.15819 0.6758 0.0
Cd243 Cd 0.60438 0.23166 0.65176 0.0
O244 O 0.51018 0.18233 0.70961 0.0
Cd245 Cd 0.45716 0.17649 0.75997 0.0
O246 O 0.45973 0.19726 0.83298 0.0
C247 C 0.49912 0.21462 0.84638 0.0
O248 O 0.53185 0.21752 0.81691 0.0
C249 C 0.53511 0.14958 0.69762 0.0
C250 C 0.5457 0.25687 0.5813 0.0
O251 O 0.58155 0.23503 0.57173 0.0
O252 O 0.53999 0.26904 0.62343 0.0
O253 O 0.03541 0.36994 0.31713 0.0
Cd254 Cd 0.05166 0.29487 0.34724 0.0
O255 O 0.97152 0.34934 0.27693 0.0
Cd256 Cd 0.91946 0.35286 0.22051 0.0
O257 O 0.909 0.32135 0.15101 0.0
C258 C 0.9476 0.31468 0.13391 0.0
O259 O -0.01451 0.32894 0.15737 0.0
C260 C 0.00265 0.38002 0.28945 0.0
C261 C -0.01586 0.26511 0.40462 0.0
O262 O 0.02041 0.28734 0.42165 0.0
O263 O 0.98068 0.25663 0.36098 0.0
H264 H 0.2571 0.59676 0.45617 0.0
H265 H 0.23433 0.45661 0.40579 0.0
H266 H 0.25451 0.48758 0.55144 0.0
C267 C 0.25491 0.56036 0.46277 0.0
C268 C 0.25685 0.54609 0.50817 0.0
C269 C 0.24589 0.52861 0.42581 0.0
C270 C 0.24104 0.48161 0.43425 0.0
C271 C 0.24596 0.46633 0.47919 0.0
C272 C 0.25324 0.49881 0.51642 0.0
N273 N 0.24115 0.41831 0.48556 0.0
C274 C 0.25858 0.39642 0.52365 0.0
H275 H 0.23961 0.37456 0.89493 0.0
H276 H 0.24067 0.50851 0.83878 0.0
H277 H 0.2625 0.49592 -0.01538 0.0
C278 C 0.24177 0.41171 0.9001 0.0
C279 C 0.25155 0.43183 0.94436 0.0
C280 C 0.23839 0.43891 0.86182 0.0
C281 C 0.24298 0.48701 0.86822 0.0
C282 C 0.25044 0.50792 0.91236 0.0
C283 C 0.25498 0.48015 0.95057 0.0
N284 N 0.25529 0.55675 0.91642 0.0
C285 C 0.25337 0.58316 0.95723 0.0
H286 H 0.70508 0.87919 0.52175 0.0
H287 H 0.71823 0.02439 0.55381 0.0
H288 H 0.70417 0.97438 0.41232 0.0
C289 C 0.70806 0.9141 0.51028 0.0
C290 C 0.70418 0.92224 0.46317 0.0
C291 C 0.71235 0.95056 0.54308 0.0
C292 C 0.71465 -0.00419 0.52857 0.0
C293 C 0.71293 0.00479 0.48165 0.0
C294 C 0.70714 0.96783 0.44866 0.0
N295 N 0.71531 0.05157 0.46978 0.0
C296 C 0.7214 0.0679 0.4262 0.0
H297 H 0.72953 0.07247 0.08597 0.0
H298 H 0.72531 0.92883 0.11348 0.0
H299 H 0.70673 0.97 0.97435 0.0
C300 C 0.72483 0.03683 0.07361 0.0
C301 C 0.71782 0.02566 0.0262 0.0
C302 C 0.72845 0.00209 0.10503 0.0
C303 C 0.72322 0.95603 0.08925 0.0
C304 C 0.71474 0.94409 0.04268 0.0
C305 C 0.71238 0.97897 0.01072 0.0
N306 N 0.70997 0.89642 0.03024 0.0
C307 C 0.69961 0.87663 -0.01339 0.0
H308 H 0.45682 0.25798 0.5982 0.0
H309 H 0.40377 0.24691 0.45813 0.0
H310 H 0.55004 0.26129 0.48729 0.0
C311 C 0.46274 0.25841 0.56168 0.0
C312 C 0.50786 0.26057 0.54664 0.0
C313 C 0.42514 0.25269 0.5302 0.0
C314 C 0.43272 0.25116 0.48295 0.0
C315 C 0.47737 0.25584 0.46714 0.0
C316 C 0.51527 0.26 0.49914 0.0
N317 N 0.48247 0.25357 0.41887 0.0
C318 C 0.52052 0.27048 0.39664 0.0
H319 H 0.0856 0.73159 0.0746 0.0
H320 H 0.1125 0.72394 0.9309 0.0
H321 H 0.97357 0.70584 0.9728 0.0
C322 C 0.07307 0.72605 0.03907 0.0
C323 C 0.02564 0.71853 0.02817 0.0
C324 C 0.10431 0.72896 0.00413 0.0
C325 C 0.08837 0.72251 0.9582 0.0
C326 C 0.04178 0.71356 0.94654 0.0
C327 C 0.00995 0.71197 0.98158 0.0
N328 N 0.02935 0.70723 0.89896 0.0
C329 C -0.0144 0.69769 0.87904 0.0
H330 H 0.8978 0.24079 0.37474 0.0
H331 H 0.83732 0.24031 0.50655 0.0
H332 H -0.01648 0.26445 0.49883 0.0
C333 C 0.9018 0.24273 0.412 0.0
C334 C 0.94532 0.25321 0.43351 0.0
C335 C 0.86266 0.23867 0.43787 0.0
C336 C 0.86746 0.24311 0.48609 0.0
C337 C 0.91094 0.251 0.50841 0.0
C338 C 0.95003 0.25637 0.48195 0.0
N339 N 0.91345 0.25577 0.55725 0.0
C340 C 0.95302 0.25142 0.58501 0.0
H341 H 0.51862 0.70695 0.87936 0.0
H342 H 0.55197 0.71823 0.02441 0.0
H343 H 0.41004 0.70466 0.97538 0.0
C344 C 0.50743 0.70958 0.91439 0.0
C345 C 0.46043 0.70543 0.92285 0.0
C346 C 0.54053 0.71335 0.95062 0.0
C347 C 0.52645 0.71508 -0.00398 0.0
C348 C 0.47961 0.7133 0.00534 0.0
C349 C 0.44631 0.70786 0.96857 0.0
N350 N 0.4681 0.71508 0.05223 0.0
C351 C 0.42475 0.72157 0.06887 0.0
H352 H 0.59957 0.45778 0.26101 0.0
H353 H 0.45879 0.40788 0.24107 0.0
H354 H 0.4911 0.55353 0.25494 0.0
C355 C 0.56322 0.46453 0.25888 0.0
C356 C 0.54937 0.51004 0.25897 0.0
C357 C 0.53107 0.42756 0.2516 0.0
C358 C 0.48414 0.43624 0.24674 0.0
C359 C 0.4693 0.48133 0.24962 0.0
C360 C 0.5021 0.51849 0.25528 0.0
N361 N 0.4214 0.48773 0.24364 0.0
C362 C 0.39911 0.52578 0.2603 0.0
H363 H 0.07281 0.08577 0.73142 0.0
H364 H 0.92907 0.11267 0.72541 0.0
H365 H 0.97064 0.97379 0.70727 0.0
C366 C 0.03721 0.07326 0.72631 0.0
C367 C 0.02617 0.02584 0.71908 0.0
C368 C 0.00235 0.1045 0.72955 0.0
C369 C 0.95634 0.08856 0.72369 0.0
C370 C 0.94454 0.04198 0.71506 0.0
C371 C 0.97952 0.01017 0.71313 0.0
N372 N 0.8969 0.02946 0.70947 0.0
C373 C 0.87709 -0.01434 0.70006 0.0
H374 H 0.37319 0.89836 0.24017 0.0
H375 H 0.50529 0.83859 0.24209 0.0
H376 H 0.49684 -0.01519 0.2643 0.0
C377 C 0.41044 0.90256 0.24252 0.0
C378 C 0.43171 0.94624 0.2527 0.0
C379 C 0.43648 0.86356 0.23926 0.0
C380 C 0.48468 0.86862 0.24425 0.0
C381 C 0.50679 0.91223 0.25188 0.0
C382 C 0.48014 0.95121 0.25639 0.0
N383 N 0.5556 0.91497 0.25734 0.0
C384 C 0.58335 0.95451 0.25265 0.0
H385 H 0.8824 0.51928 0.68618 0.0
H386 H 0.01996 0.5494 0.74049 0.0
H387 H 0.96801 0.4085 0.72424 0.0
C388 C 0.91517 0.50723 0.69879 0.0
C389 C 0.92102 0.46004 0.70259 0.0
C390 C 0.95083 0.53934 0.71135 0.0
C391 C -0.00709 0.52436 0.72839 0.0
C392 C -0.00045 0.47744 0.73317 0.0
C393 C 0.96379 0.44474 0.71918 0.0
N394 N 0.03926 0.46615 0.75939 0.0
C395 C 0.06651 0.42883 0.75223 0.0
H396 H 0.72355 0.3695 0.5213 0.0
H397 H 0.72451 0.51731 0.53577 0.0
H398 H 0.69417 0.44817 0.40326 0.0
C399 C 0.71833 0.40256 0.50655 0.0
C400 C 0.70653 0.40394 0.45959 0.0
C401 C 0.72613 0.44298 0.53423 0.0
C402 C 0.71842 0.48568 0.515 0.0
C403 C 0.70631 0.4874 0.46762 0.0
C404 C 0.70208 0.4466 0.43989 0.0
N405 N 0.70115 0.52968 0.44613 0.0
C406 C 0.67889 0.5666 0.46523 0.0
H407 H 0.72059 0.60036 0.08486 0.0
H408 H 0.71358 0.45542 0.10787 0.0
H409 H 0.70987 0.50265 0.9697 0.0
C410 C 0.72001 0.56504 0.07128 0.0
C411 C 0.71737 0.55607 0.02365 0.0
C412 C 0.71762 0.52939 0.1019 0.0
C413 C 0.71666 0.48337 0.08463 0.0
C414 C 0.71448 0.47385 0.0366 0.0
C415 C 0.71373 0.51025 0.00649 0.0
N416 N 0.70656 0.42848 0.01745 0.0
C417 C 0.73131 0.391 0.03012 0.0
H418 H 0.27854 0.08178 0.43037 0.0
H419 H 0.26206 0.93481 0.43823 0.0
H420 H 0.24283 0.0236 0.55762 0.0
C421 C 0.27026 0.0518 0.44982 0.0
C422 C 0.25983 0.05798 0.49602 0.0
C423 C 0.27206 0.00769 0.42881 0.0
C424 C 0.26058 0.96901 0.45407 0.0
C425 C 0.24957 0.97487 0.5007 0.0
C426 C 0.25049 0.01929 0.52162 0.0
N427 N 0.23826 0.93716 0.52802 0.0
C428 C 0.22737 0.89256 0.51085 0.0
H429 H 0.2179 0.89881 0.86744 0.0
H430 H 0.23639 0.04671 0.87936 0.0
H431 H 0.27284 0.96544 -0.00607 0.0
C432 C 0.22919 0.92998 0.88729 0.0
C433 C 0.24692 0.92676 0.93258 0.0
C434 C 0.22481 0.97299 0.86769 0.0
C435 C 0.24029 0.01325 0.8935 0.0
C436 C 0.25778 0.01023 0.93911 0.0
C437 C 0.2599 0.96722 0.95858 0.0
N438 N 0.27092 0.04968 0.96764 0.0
C439 C 0.29268 0.08955 0.95304 0.0
H440 H 0.52142 0.72642 0.37014 0.0
H441 H 0.53645 0.72679 0.51797 0.0
H442 H 0.40407 0.6946 0.44898 0.0
C443 C 0.50686 0.72078 0.40322 0.0
C444 C 0.46008 0.7081 0.40466 0.0
C445 C 0.5346 0.72878 0.44362 0.0
C446 C 0.51563 0.72054 0.48635 0.0
C447 C 0.4684 0.70769 0.48813 0.0
C448 C 0.4406 0.70312 0.44736 0.0
N449 N 0.44702 0.7023 0.53044 0.0
C450 C 0.46622 0.68014 0.56745 0.0
H451 H 0.8661 0.21744 0.89879 0.0
H452 H 0.87791 0.2353 0.04674 0.0
H453 H -0.00744 0.27228 0.96574 0.0
C454 C 0.88592 0.22861 0.93001 0.0
C455 C 0.93123 0.2464 0.92692 0.0
C456 C 0.86629 0.22404 0.97299 0.0
C457 C 0.89209 0.23935 0.01332 0.0
C458 C 0.9377 0.25693 0.0104 0.0
C459 C 0.95721 0.25925 0.96744 0.0
N460 N 0.96615 0.27015 0.04992 0.0
C461 C 0.95128 0.291 0.09004 0.0
H462 H 0.0888 0.71548 0.59703 0.0
H463 H 0.104 0.705 0.45066 0.0
H464 H 0.96921 0.71027 0.50487 0.0
C465 C 0.07367 0.715 0.56228 0.0
C466 C 0.02578 0.7148 0.55564 0.0
C467 C 0.10223 0.71029 0.52505 0.0
C468 C 0.08263 0.70978 0.47985 0.0
C469 C 0.03442 0.71062 0.47273 0.0
C470 C 0.00631 0.71189 0.51065 0.0
N471 N 0.01271 0.70465 0.42823 0.0
C472 C 0.02707 0.72693 0.38978 0.0
H473 H 0.42848 0.27948 0.0825 0.0
H474 H 0.43674 0.26222 0.93562 0.0
H475 H 0.55595 0.24375 0.02509 0.0
C476 C 0.44803 0.2711 0.05265 0.0
C477 C 0.49424 0.2608 0.05911 0.0
C478 C 0.4271 0.27258 0.00841 0.0
C479 C 0.45249 0.26098 0.96991 0.0
C480 C 0.49914 0.25015 0.97606 0.0
C481 C 0.51995 0.25132 0.02058 0.0
N482 N 0.52661 0.23875 0.93855 0.0
C483 C 0.50973 0.22772 0.89386 0.0
H484 H 0.36967 0.52302 0.72646 0.0
H485 H 0.51758 0.53812 0.72923 0.0
H486 H 0.4488 0.40592 0.69547 0.0
C487 C 0.40283 0.50852 0.72131 0.0
C488 C 0.40439 0.46186 0.70843 0.0
C489 C 0.44317 0.5362 0.73007 0.0
C490 C 0.486 0.51732 0.72244 0.0
C491 C 0.48789 0.47019 0.70945 0.0
C492 C 0.44713 0.44237 0.70412 0.0
N493 N 0.53031 0.44902 0.70463 0.0
C494 C 0.56672 0.46783 0.68127 0.0
H495 H 0.89832 0.86747 0.21907 0.0
H496 H 0.04621 0.88008 0.23814 0.0
H497 H 0.96436 -0.00599 0.2746 0.0
C498 C 0.92941 0.88743 0.23046 0.0
C499 C 0.926 0.93263 0.24824 0.0
C500 C 0.97253 0.86809 0.22622 0.0
C501 C 0.01269 0.89407 0.24187 0.0
C502 C 0.00944 0.93957 0.25954 0.0
C503 C 0.96633 0.95877 0.26149 0.0
N504 N 0.04864 0.96822 0.27358 0.0
C505 C 0.08974 0.95337 0.29242 0.0
H506 H 0.59671 0.08794 0.71569 0.0
H507 H 0.45043 0.10375 0.70477 0.0
H508 H 0.50387 0.96884 0.71208 0.0
C509 C 0.56188 0.07298 0.71536 0.0
C510 C 0.55497 0.02516 0.71597 0.0
C511 C 0.52479 0.10163 0.71018 0.0
C512 C 0.47949 0.08228 0.70987 0.0
C513 C 0.4721 0.03415 0.71132 0.0
C514 C 0.50986 0.0059 0.71315 0.0
N515 N 0.4275 0.0126 0.7053 0.0
C516 C 0.3891 0.02701 0.72753 0.0
H517 H 0.07807 0.43234 0.27664 0.0
H518 H 0.93111 0.43041 0.26038 0.0
H519 H 0.01224 0.55326 0.23292 0.0
C520 C 0.04698 0.44942 0.26695 0.0
C521 C 0.05045 0.49502 0.2537 0.0
C522 C 0.00417 0.42613 0.26998 0.0
C523 C 0.96408 0.44848 0.25784 0.0
C524 C 0.96665 0.49453 0.24431 0.0
C525 C 0.01006 0.51768 0.24244 0.0
N526 N 0.92609 0.51854 0.23445 0.0
C527 C 0.88196 0.50359 0.25082 0.0
loop_
_geom_bond_atom_site_label_1
_geom_bond_atom_site_label_2
_geom_bond_distance
_geom_bond_site_symmetry_2
_ccdc_geom_bond_type
O0 Cd1 2.300 . S
O0 C7 1.275 . S
Cd1 O0 2.300 . S
Cd1 O9 2.381 . S
Cd1 O10 2.378 . S
O2 Cd3 2.385 . S
O2 C7 1.255 . S
Cd3 O2 2.385 . S
Cd3 O4 2.317 . S
O4 Cd3 2.317 . S
O4 C5 1.232 . S
C5 O4 1.232 . S
C5 O6 1.218 . S
O6 C5 1.218 . S
C7 O0 1.275 . S
C7 O2 1.255 . S
C8 O9 1.258 . S
C8 O10 1.256 . S
O9 Cd1 2.381 . S
O9 C8 1.258 . S
O10 Cd1 2.378 . S
O10 C8 1.256 . S
O11 Cd12 2.300 . S
O11 C18 1.275 . S
Cd12 O11 2.300 . S
Cd12 O20 2.381 . S
Cd12 O21 2.378 . S
O13 Cd14 2.385 . S
O13 C18 1.255 . S
Cd14 O13 2.385 . S
Cd14 O15 2.317 . S
O15 Cd14 2.317 . S
O15 C16 1.232 . S
C16 O15 1.232 . S
C16 O17 1.218 . S
O17 C16 1.218 . S
C18 O11 1.275 . S
C18 O13 1.255 . S
C19 O20 1.258 . S
C19 O21 1.256 . S
O20 Cd12 2.381 . S
O20 C19 1.258 . S
O21 Cd12 2.378 . S
O21 C19 1.256 . S
O22 Cd23 2.300 . S
O22 C29 1.275 . S
Cd23 O22 2.300 . S
Cd23 O31 2.381 1_565 S
Cd23 O32 2.378 . S
O24 Cd25 2.385 . S
O24 C29 1.255 . S
Cd25 O24 2.385 . S
Cd25 O26 2.317 . S
O26 Cd25 2.317 . S
O26 C27 1.232 . S
C27 O26 1.232 . S
C27 O28 1.218 . S
O28 C27 1.218 . S
C29 O22 1.275 . S
C29 O24 1.255 . S
C30 O31 1.258 . S
C30 O32 1.256 1_545 S
O31 Cd23 2.381 1_545 S
O31 C30 1.258 . S
O32 Cd23 2.378 . S
O32 C30 1.256 1_565 S
O33 Cd34 2.307 . S
O33 C40 1.286 . S
Cd34 O33 2.307 . S
Cd34 O42 2.381 1_545 S
Cd34 O43 2.378 . S
O35 Cd36 2.385 . S
O35 C40 1.255 . S
Cd36 O35 2.385 . S
Cd36 O37 2.317 . S
O37 Cd36 2.317 . S
O37 C38 1.232 . S
C38 O37 1.232 . S
C38 O39 1.218 . S
O39 C38 1.218 . S
C40 O33 1.286 . S
C40 O35 1.255 . S
C41 O42 1.264 . S
C41 O43 1.244 1_565 S
O42 Cd34 2.381 1_565 S
O42 C41 1.264 . S
O43 Cd34 2.378 . S
O43 C41 1.244 1_545 S
O44 Cd45 2.300 . S
O44 C51 1.275 . S
Cd45 O44 2.300 . S
Cd45 O53 2.381 . S
Cd45 O54 2.378 . S
O46 Cd47 2.385 . S
O46 C51 1.255 . S
Cd47 O46 2.385 . S
Cd47 O48 2.317 . S
O48 Cd47 2.317 . S
O48 C49 1.232 . S
C49 O48 1.232 . S
C49 O50 1.218 . S
O50 C49 1.218 . S
C51 O44 1.275 . S
C51 O46 1.255 . S
C52 O53 1.258 . S
C52 O54 1.256 . S
O53 Cd45 2.381 . S
O53 C52 1.258 . S
O54 Cd45 2.378 . S
O54 C52 1.256 . S
O55 Cd56 2.307 . S
O55 C62 1.286 . S
Cd56 O55 2.307 . S
Cd56 O64 2.381 1_554 S
Cd56 O65 2.378 . S
O57 Cd58 2.385 . S
O57 C62 1.255 . S
Cd58 O57 2.385 . S
Cd58 O59 2.317 . S
O59 Cd58 2.317 . S
O59 C60 1.232 . S
C60 O59 1.232 . S
C60 O61 1.218 . S
O61 C60 1.218 . S
C62 O55 1.286 . S
C62 O57 1.255 . S
C63 O64 1.264 . S
C63 O65 1.244 1_556 S
O64 Cd56 2.381 1_556 S
O64 C63 1.264 . S
O65 Cd56 2.378 . S
O65 C63 1.244 1_554 S
O66 Cd67 2.300 . S
O66 C73 1.275 . S
Cd67 O66 2.300 . S
Cd67 O75 2.381 . S
Cd67 O76 2.378 . S
O68 Cd69 2.385 . S
O68 C73 1.255 . S
Cd69 O68 2.385 . S
Cd69 O70 2.317 . S
O70 Cd69 2.317 . S
O70 C71 1.232 . S
C71 O70 1.232 . S
C71 O72 1.218 . S
O72 C71 1.218 . S
C73 O66 1.275 . S
C73 O68 1.255 . S
C74 O75 1.258 . S
C74 O76 1.256 . S
O75 Cd67 2.381 . S
O75 C74 1.258 . S
O76 Cd67 2.378 . S
O76 C74 1.256 . S
O77 Cd78 2.300 . S
O77 C84 1.275 . S
Cd78 O77 2.300 . S
Cd78 O86 2.381 1_556 S
Cd78 O87 2.378 . S
O79 Cd80 2.385 . S
O79 C84 1.255 . S
Cd80 O79 2.385 . S
Cd80 O81 2.317 . S
O81 Cd80 2.317 . S
O81 C82 1.232 . S
C82 O81 1.232 . S
C82 O83 1.218 . S
O83 C82 1.218 . S
C84 O77 1.275 . S
C84 O79 1.255 . S
C85 O86 1.258 . S
C85 O87 1.256 1_554 S
O86 Cd78 2.381 1_554 S
O86 C85 1.258 . S
O87 Cd78 2.378 . S
O87 C85 1.256 1_556 S
O88 Cd89 2.300 . S
O88 C95 1.275 . S
Cd89 O88 2.300 . S
Cd89 O97 2.381 . S
Cd89 O98 2.378 . S
O90 Cd91 2.385 . S
O90 C95 1.255 . S
Cd91 O90 2.385 . S
Cd91 O92 2.317 . S
O92 Cd91 2.317 . S
O92 C93 1.232 . S
C93 O92 1.232 . S
C93 O94 1.218 . S
O94 C93 1.218 . S
C95 O88 1.275 . S
C95 O90 1.255 . S
C96 O97 1.258 . S
C96 O98 1.256 . S
O97 Cd89 2.381 . S
O97 C96 1.258 . S
O98 Cd89 2.378 . S
O98 C96 1.256 . S
O99 Cd100 2.307 . S
O99 C106 1.286 . S
Cd100 O99 2.307 . S
Cd100 O108 2.381 1_455 S
Cd100 O109 2.378 . S
O101 Cd102 2.385 . S
O101 C106 1.255 . S
Cd102 O101 2.385 . S
Cd102 O103 2.317 . S
O103 Cd102 2.317 . S
O103 C104 1.232 . S
C104 O103 1.232 . S
C104 O105 1.218 . S
O105 C104 1.218 . S
C106 O99 1.286 . S
C106 O101 1.255 . S
C107 O108 1.264 . S
C107 O109 1.244 1_655 S
O108 Cd100 2.381 1_655 S
O108 C107 1.264 . S
O109 Cd100 2.378 . S
O109 C107 1.244 1_455 S
O110 Cd111 2.300 . S
O110 C117 1.275 . S
Cd111 O110 2.300 . S
Cd111 O119 2.381 . S
Cd111 O120 2.378 . S
O112 Cd113 2.385 . S
O112 C117 1.255 . S
Cd113 O112 2.385 . S
Cd113 O114 2.317 . S
O114 Cd113 2.317 . S
O114 C115 1.232 . S
C115 O114 1.232 . S
C115 O116 1.218 . S
O116 C115 1.218 . S
C117 O110 1.275 . S
C117 O112 1.255 . S
C118 O119 1.258 . S
C118 O120 1.256 . S
O119 Cd111 2.381 . S
O119 C118 1.258 . S
O120 Cd111 2.378 . S
O120 C118 1.256 . S
O121 Cd122 2.300 . S
O121 C128 1.275 . S
Cd122 O121 2.300 . S
Cd122 O130 2.381 1_655 S
Cd122 O131 2.378 . S
O123 Cd124 2.385 . S
O123 C128 1.255 . S
Cd124 O123 2.385 . S
Cd124 O125 2.317 . S
O125 Cd124 2.317 . S
O125 C126 1.232 . S
C126 O125 1.232 . S
C126 O127 1.218 . S
O127 C126 1.218 . S
C128 O121 1.275 . S
C128 O123 1.255 . S
C129 O130 1.258 . S
C129 O131 1.256 1_455 S
O130 Cd122 2.381 1_455 S
O130 C129 1.258 . S
O131 Cd122 2.378 . S
O131 C129 1.256 1_655 S
O132 Cd133 2.300 . S
O132 C139 1.275 . S
Cd133 O132 2.300 . S
Cd133 O141 2.381 . S
Cd133 O142 2.378 . S
O134 Cd135 2.385 . S
O134 C139 1.255 . S
Cd135 O134 2.385 . S
Cd135 O136 2.317 . S
O136 Cd135 2.317 . S
O136 C137 1.232 . S
C137 O136 1.232 . S
C137 O138 1.218 . S
O138 C137 1.218 . S
C139 O132 1.275 . S
C139 O134 1.255 . S
C140 O141 1.258 . S
C140 O142 1.256 . S
O141 Cd133 2.381 . S
O141 C140 1.258 . S
O142 Cd133 2.378 . S
O142 C140 1.256 . S
O143 Cd144 2.300 . S
O143 C150 1.275 . S
Cd144 O143 2.300 . S
Cd144 O152 2.381 . S
Cd144 O153 2.378 . S
O145 Cd146 2.385 . S
O145 C150 1.255 . S
Cd146 O145 2.385 . S
Cd146 O147 2.317 . S
O147 Cd146 2.317 . S
O147 C148 1.232 . S
C148 O147 1.232 . S
C148 O149 1.218 . S
O149 C148 1.218 . S
C150 O143 1.275 . S
C150 O145 1.255 . S
C151 O152 1.258 . S
C151 O153 1.256 . S
O152 Cd144 2.381 . S
O152 C151 1.258 . S
O153 Cd144 2.378 . S
O153 C151 1.256 . S
O154 Cd155 2.300 1_545 S
O154 C161 1.275 . S
Cd155 O154 2.300 1_565 S
Cd155 O163 2.381 1_565 S
Cd155 O164 2.378 . S
O156 Cd157 2.385 . S
O156 C161 1.255 1_565 S
Cd157 O156 2.385 . S
Cd157 O158 2.317 . S
O158 Cd157 2.317 . S
O158 C159 1.232 . S
C159 O158 1.232 . S
C159 O160 1.218 . S
O160 C159 1.218 . S
C161 O154 1.275 . S
C161 O156 1.255 1_545 S
C162 O163 1.258 1_565 S
C162 O164 1.256 . S
O163 Cd155 2.381 1_545 S
O163 C162 1.258 1_545 S
O164 Cd155 2.378 . S
O164 C162 1.256 . S
O165 Cd166 2.300 1_565 S
O165 C172 1.275 . S
Cd166 O165 2.300 1_545 S
Cd166 O174 2.381 1_545 S
Cd166 O175 2.378 . S
O167 Cd168 2.385 . S
O167 C172 1.255 1_545 S
Cd168 O167 2.385 . S
Cd168 O169 2.317 . S
O169 Cd168 2.317 . S
O169 C170 1.232 . S
C170 O169 1.232 . S
C170 O171 1.218 . S
O171 C170 1.218 . S
C172 O165 1.275 . S
C172 O167 1.255 1_565 S
C173 O174 1.258 1_545 S
C173 O175 1.256 . S
O174 Cd166 2.381 1_565 S
O174 C173 1.258 1_565 S
O175 Cd166 2.378 . S
O175 C173 1.256 . S
O176 Cd177 2.300 . S
O176 C183 1.275 . S
Cd177 O176 2.300 . S
Cd177 O185 2.381 . S
Cd177 O186 2.378 . S
O178 Cd179 2.385 . S
O178 C183 1.255 . S
Cd179 O178 2.385 . S
Cd179 O180 2.317 . S
O180 Cd179 2.317 . S
O180 C181 1.232 . S
C181 O180 1.232 . S
C181 O182 1.218 . S
O182 C181 1.218 . S
C183 O176 1.275 . S
C183 O178 1.255 . S
C184 O185 1.258 . S
C184 O186 1.256 . S
O185 Cd177 2.381 . S
O185 C184 1.258 . S
O186 Cd177 2.378 . S
O186 C184 1.256 . S
O187 Cd188 2.300 1_556 S
O187 C194 1.275 . S
Cd188 O187 2.300 1_554 S
Cd188 O196 2.381 1_554 S
Cd188 O197 2.378 . S
O189 Cd190 2.385 . S
O189 C194 1.255 1_554 S
Cd190 O189 2.385 . S
Cd190 O191 2.317 . S
O191 Cd190 2.317 . S
O191 C192 1.232 . S
C192 O191 1.232 . S
C192 O193 1.218 . S
O193 C192 1.218 . S
C194 O187 1.275 . S
C194 O189 1.255 1_556 S
C195 O196 1.258 1_554 S
C195 O197 1.256 . S
O196 Cd188 2.381 1_556 S
O196 C195 1.258 1_556 S
O197 Cd188 2.378 . S
O197 C195 1.256 . S
O198 Cd199 2.300 . S
O198 C205 1.275 . S
Cd199 O198 2.300 . S
Cd199 O207 2.381 . S
Cd199 O208 2.378 . S
O200 Cd201 2.385 . S
O200 C205 1.255 . S
Cd201 O200 2.385 . S
Cd201 O202 2.317 . S
O202 Cd201 2.317 . S
O202 C203 1.232 . S
C203 O202 1.232 . S
C203 O204 1.218 . S
O204 C203 1.218 . S
C205 O198 1.275 . S
C205 O200 1.255 . S
C206 O207 1.258 . S
C206 O208 1.256 . S
O207 Cd199 2.381 . S
O207 C206 1.258 . S
O208 Cd199 2.378 . S
O208 C206 1.256 . S
O209 Cd210 2.300 1_554 S
O209 C216 1.275 . S
Cd210 O209 2.300 1_556 S
Cd210 O218 2.381 1_556 S
Cd210 O219 2.378 . S
O211 Cd212 2.385 . S
O211 C216 1.255 1_556 S
Cd212 O211 2.385 . S
Cd212 O213 2.317 . S
O213 Cd212 2.317 . S
O213 C214 1.232 . S
C214 O213 1.232 . S
C214 O215 1.218 . S
O215 C214 1.218 . S
C216 O209 1.275 . S
C216 O211 1.255 1_554 S
C217 O218 1.258 1_556 S
C217 O219 1.256 . S
O218 Cd210 2.381 1_554 S
O218 C217 1.258 1_554 S
O219 Cd210 2.378 . S
O219 C217 1.256 . S
O220 Cd221 2.300 . S
O220 C227 1.275 . S
Cd221 O220 2.300 . S
Cd221 O229 2.381 . S
Cd221 O230 2.378 . S
O222 Cd223 2.385 . S
O222 C227 1.255 . S
Cd223 O222 2.385 . S
Cd223 O224 2.317 . S
O224 Cd223 2.317 . S
O224 C225 1.232 . S
C225 O224 1.232 . S
C225 O226 1.218 . S
O226 C225 1.218 . S
C227 O220 1.275 . S
C227 O222 1.255 . S
C228 O229 1.258 . S
C228 O230 1.256 . S
O229 Cd221 2.381 . S
O229 C228 1.258 . S
O230 Cd221 2.378 . S
O230 C228 1.256 . S
O231 Cd232 2.300 1_655 S
O231 C238 1.275 . S
Cd232 O231 2.300 1_455 S
Cd232 O240 2.381 1_455 S
Cd232 O241 2.378 . S
O233 Cd234 2.385 . S
O233 C238 1.255 1_455 S
Cd234 O233 2.385 . S
Cd234 O235 2.317 . S
O235 Cd234 2.317 . S
O235 C236 1.232 . S
C236 O235 1.232 . S
C236 O237 1.218 . S
O237 C236 1.218 . S
C238 O231 1.275 . S
C238 O233 1.255 1_655 S
C239 O240 1.258 1_455 S
C239 O241 1.256 . S
O240 Cd232 2.381 1_655 S
O240 C239 1.258 1_655 S
O241 Cd232 2.378 . S
O241 C239 1.256 . S
O242 Cd243 2.300 . S
O242 C249 1.275 . S
Cd243 O242 2.300 . S
Cd243 O251 2.381 . S
Cd243 O252 2.378 . S
O244 Cd245 2.385 . S
O244 C249 1.255 . S
Cd245 O244 2.385 . S
Cd245 O246 2.317 . S
O246 Cd245 2.317 . S
O246 C247 1.232 . S
C247 O246 1.232 . S
C247 O248 1.218 . S
O248 C247 1.218 . S
C249 O242 1.275 . S
C249 O244 1.255 . S
C250 O251 1.258 . S
C250 O252 1.256 . S
O251 Cd243 2.381 . S
O251 C250 1.258 . S
O252 Cd243 2.378 . S
O252 C250 1.256 . S
O253 Cd254 2.300 1_455 S
O253 C260 1.275 . S
Cd254 O253 2.300 1_655 S
Cd254 O262 2.381 1_655 S
Cd254 O263 2.378 . S
O255 Cd256 2.385 . S
O255 C260 1.255 1_655 S
Cd256 O255 2.385 . S
Cd256 O257 2.317 . S
O257 Cd256 2.317 . S
O257 C258 1.232 . S
C258 O257 1.232 . S
C258 O259 1.218 . S
O259 C258 1.218 . S
C260 O253 1.275 . S
C260 O255 1.255 1_455 S
C261 O262 1.258 1_655 S
C261 O263 1.256 . S
O262 Cd254 2.381 1_455 S
O262 C261 1.258 1_455 S
O263 Cd254 2.378 . S
O263 C261 1.256 . S
H264 C267 0.929 . S
H265 C270 0.929 . S
H266 C272 0.930 . S
C267 H264 0.929 . S
C267 C268 1.398 . S
C267 C269 1.396 . S
C268 C267 1.398 . S
C268 C272 1.407 . S
C269 C267 1.396 . S
C269 C270 1.394 . S
C270 H265 0.929 . S
C270 C269 1.394 . S
C270 C271 1.382 . S
C271 C270 1.382 . S
C271 C272 1.392 . S
C271 N273 1.420 . S
C272 H266 0.930 . S
C272 C268 1.407 . S
C272 C271 1.392 . S
N273 C271 1.420 . S
N273 C274 1.244 . S
C274 N273 1.244 . S
H275 C278 0.929 . S
H276 C281 0.929 . S
H277 C283 0.930 1_554 S
C278 H275 0.929 . S
C278 C279 1.398 . S
C278 C280 1.396 . S
C279 C278 1.398 . S
C279 C283 1.407 . S
C280 C278 1.396 . S
C280 C281 1.394 . S
C281 H276 0.929 . S
C281 C280 1.394 . S
C281 C282 1.382 . S
C282 C281 1.382 . S
C282 C283 1.392 . S
C282 N284 1.420 . S
C283 H277 0.930 1_556 S
C283 C279 1.407 . S
C283 C282 1.392 . S
N284 C282 1.420 . S
N284 C285 1.244 . S
C285 N284 1.244 . S
H286 C289 0.929 . S
H287 C292 0.929 . S
H288 C294 0.930 . S
C289 H286 0.929 . S
C289 C290 1.398 . S
C289 C291 1.396 . S
C290 C289 1.398 . S
C290 C294 1.407 . S
C291 C289 1.396 . S
C291 C292 1.394 1_565 S
C292 H287 0.929 . S
C292 C291 1.394 1_545 S
C292 C293 1.382 . S
C293 C292 1.382 . S
C293 C294 1.392 1_545 S
C293 N295 1.420 . S
C294 H288 0.930 . S
C294 C290 1.407 . S
C294 C293 1.392 1_565 S
N295 C293 1.420 . S
N295 C296 1.244 . S
C296 N295 1.244 . S
H297 C300 0.929 . S
H298 C303 0.929 . S
H299 C305 0.930 1_556 S
C300 H297 0.929 . S
C300 C301 1.398 . S
C300 C302 1.396 1_545 S
C301 C300 1.398 . S
C301 C305 1.407 . S
C302 C300 1.396 1_565 S
C302 C303 1.394 . S
C303 H298 0.929 . S
C303 C302 1.394 . S
C303 C304 1.382 . S
C304 C303 1.382 . S
C304 C305 1.392 1_565 S
C304 N306 1.420 . S
C305 H299 0.930 1_554 S
C305 C301 1.407 . S
C305 C304 1.392 1_545 S
N306 C304 1.420 . S
N306 C307 1.244 . S
C307 N306 1.244 . S
H308 C311 0.929 . S
H309 C314 0.929 . S
H310 C316 0.930 . S
C311 H308 0.929 . S
C311 C312 1.398 . S
C311 C313 1.396 . S
C312 C311 1.398 . S
C312 C316 1.407 . S
C313 C311 1.396 . S
C313 C314 1.394 . S
C314 H309 0.929 . S
C314 C313 1.394 . S
C314 C315 1.382 . S
C315 C314 1.382 . S
C315 C316 1.392 . S
C315 N317 1.420 . S
C316 H310 0.930 . S
C316 C312 1.407 . S
C316 C315 1.392 . S
N317 C315 1.420 . S
N317 C318 1.244 . S
C318 N317 1.244 . S
H319 C322 0.929 . S
H320 C325 0.929 . S
H321 C327 0.930 1_655 S
C322 H319 0.929 . S
C322 C323 1.398 . S
C322 C324 1.396 1_554 S
C323 C322 1.398 . S
C323 C327 1.407 . S
C324 C322 1.396 1_556 S
C324 C325 1.394 . S
C325 H320 0.929 . S
C325 C324 1.394 . S
C325 C326 1.382 . S
C326 C325 1.382 . S
C326 C327 1.392 1_556 S
C326 N328 1.420 . S
C327 H321 0.930 1_455 S
C327 C323 1.407 . S
C327 C326 1.392 1_554 S
N328 C326 1.420 . S
N328 C329 1.244 . S
C329 N328 1.244 . S
H330 C333 0.929 . S
H331 C336 0.929 . S
H332 C338 0.930 1_455 S
C333 H330 0.929 . S
C333 C334 1.398 . S
C333 C335 1.396 . S
C334 C333 1.398 . S
C334 C338 1.407 . S
C335 C333 1.396 . S
C335 C336 1.394 . S
C336 H331 0.929 . S
C336 C335 1.394 . S
C336 C337 1.382 . S
C337 C336 1.382 . S
C337 C338 1.392 . S
C337 N339 1.420 . S
C338 H332 0.930 1_655 S
C338 C334 1.407 . S
C338 C337 1.392 . S
N339 C337 1.420 . S
N339 C340 1.244 . S
C340 N339 1.244 . S
H341 C344 0.929 . S
H342 C347 0.929 . S
H343 C349 0.930 . S
C344 H341 0.929 . S
C344 C345 1.398 . S
C344 C346 1.396 . S
C345 C344 1.398 . S
C345 C349 1.407 . S
C346 C344 1.396 . S
C346 C347 1.394 1_556 S
C347 H342 0.929 . S
C347 C346 1.394 1_554 S
C347 C348 1.382 . S
C348 C347 1.382 . S
C348 C349 1.392 1_554 S
C348 N350 1.420 . S
C349 H343 0.930 . S
C349 C345 1.407 . S
C349 C348 1.392 1_556 S
N350 C348 1.420 . S
N350 C351 1.244 . S
C351 N350 1.244 . S
H352 C355 0.929 . S
H353 C358 0.929 . S
H354 C360 0.930 . S
C355 H352 0.929 . S
C355 C356 1.398 . S
C355 C357 1.396 . S
C356 C355 1.398 . S
C356 C360 1.407 . S
C357 C355 1.396 . S
C357 C358 1.394 . S
C358 H353 0.929 . S
C358 C357 1.394 . S
C358 C359 1.382 . S
C359 C358 1.382 . S
C359 C360 1.392 . S
C359 N361 1.420 . S
C360 H354 0.930 . S
C360 C356 1.407 . S
C360 C359 1.392 . S
N361 C359 1.420 . S
N361 C362 1.244 . S
C362 N361 1.244 . S
H363 C366 0.929 . S
H364 C369 0.929 . S
H365 C371 0.930 1_565 S
C366 H363 0.929 . S
C366 C367 1.398 . S
C366 C368 1.396 1_455 S
C367 C366 1.398 . S
C367 C371 1.407 . S
C368 C366 1.396 1_655 S
C368 C369 1.394 . S
C369 H364 0.929 . S
C369 C368 1.394 . S
C369 C370 1.382 . S
C370 C369 1.382 . S
C370 C371 1.392 1_655 S
C370 N372 1.420 . S
C371 H365 0.930 1_545 S
C371 C367 1.407 . S
C371 C370 1.392 1_455 S
N372 C370 1.420 . S
N372 C373 1.244 . S
C373 N372 1.244 . S
H374 C377 0.929 . S
H375 C380 0.929 . S
H376 C382 0.930 1_545 S
C377 H374 0.929 . S
C377 C378 1.398 . S
C377 C379 1.396 . S
C378 C377 1.398 . S
C378 C382 1.407 . S
C379 C377 1.396 . S
C379 C380 1.394 . S
C380 H375 0.929 . S
C380 C379 1.394 . S
C380 C381 1.382 . S
C381 C380 1.382 . S
C381 C382 1.392 . S
C381 N383 1.420 . S
C382 H376 0.930 1_565 S
C382 C378 1.407 . S
C382 C381 1.392 . S
N383 C381 1.420 . S
N383 C384 1.244 . S
C384 N383 1.244 . S
H385 C388 0.929 . S
H386 C391 0.929 . S
H387 C393 0.930 . S
C388 H385 0.929 . S
C388 C389 1.398 . S
C388 C390 1.396 . S
C389 C388 1.398 . S
C389 C393 1.407 . S
C390 C388 1.396 . S
C390 C391 1.394 1_655 S
C391 H386 0.929 . S
C391 C390 1.394 1_455 S
C391 C392 1.382 . S
C392 C391 1.382 . S
C392 C393 1.392 1_455 S
C392 N394 1.420 . S
C393 H387 0.930 . S
C393 C389 1.407 . S
C393 C392 1.392 1_655 S
N394 C392 1.420 . S
N394 C395 1.244 . S
C395 N394 1.244 . S
H396 C399 0.929 . S
H397 C402 0.929 . S
H398 C404 0.930 . S
C399 H396 0.929 . S
C399 C400 1.398 . S
C399 C401 1.396 . S
C400 C399 1.398 . S
C400 C404 1.407 . S
C401 C399 1.396 . S
C401 C402 1.394 . S
C402 H397 0.929 . S
C402 C401 1.394 . S
C402 C403 1.382 . S
C403 C402 1.382 . S
C403 C404 1.392 . S
C403 N405 1.420 . S
C404 H398 0.930 . S
C404 C400 1.407 . S
C404 C403 1.392 . S
N405 C403 1.420 . S
N405 C406 1.244 . S
C406 N405 1.244 . S
H407 C410 0.929 . S
H408 C413 0.929 . S
H409 C415 0.930 1_556 S
C410 H407 0.929 . S
C410 C411 1.398 . S
C410 C412 1.396 . S
C411 C410 1.398 . S
C411 C415 1.407 . S
C412 C410 1.396 . S
C412 C413 1.394 . S
C413 H408 0.929 . S
C413 C412 1.394 . S
C413 C414 1.382 . S
C414 C413 1.382 . S
C414 C415 1.392 . S
C414 N416 1.420 . S
C415 H409 0.930 1_554 S
C415 C411 1.407 . S
C415 C414 1.392 . S
N416 C414 1.420 . S
N416 C417 1.244 . S
C417 N416 1.244 . S
H418 C421 0.929 . S
H419 C424 0.929 . S
H420 C426 0.930 . S
C421 H418 0.929 . S
C421 C422 1.398 . S
C421 C423 1.396 . S
C422 C421 1.398 . S
C422 C426 1.407 . S
C423 C421 1.396 . S
C423 C424 1.394 1_545 S
C424 H419 0.929 . S
C424 C423 1.394 1_565 S
C424 C425 1.382 . S
C425 C424 1.382 . S
C425 C426 1.392 1_565 S
C425 N427 1.420 . S
C426 H420 0.930 . S
C426 C422 1.407 . S
C426 C425 1.392 1_545 S
N427 C425 1.420 . S
N427 C428 1.244 . S
C428 N427 1.244 . S
H429 C432 0.929 . S
H430 C435 0.929 . S
H431 C437 0.930 1_554 S
C432 H429 0.929 . S
C432 C433 1.398 . S
C432 C434 1.396 1_565 S
C433 C432 1.398 . S
C433 C437 1.407 1_565 S
C434 C432 1.396 1_545 S
C434 C435 1.394 . S
C435 H430 0.929 . S
C435 C434 1.394 . S
C435 C436 1.382 . S
C436 C435 1.382 . S
C436 C437 1.392 . S
C436 N438 1.420 . S
C437 H431 0.930 1_556 S
C437 C433 1.407 1_545 S
C437 C436 1.392 . S
N438 C436 1.420 . S
N438 C439 1.244 . S
C439 N438 1.244 . S
H440 C443 0.929 . S
H441 C446 0.929 . S
H442 C448 0.930 . S
C443 H440 0.929 . S
C443 C444 1.398 . S
C443 C445 1.396 . S
C444 C443 1.398 . S
C444 C448 1.407 . S
C445 C443 1.396 . S
C445 C446 1.394 . S
C446 H441 0.929 . S
C446 C445 1.394 . S
C446 C447 1.382 . S
C447 C446 1.382 . S
C447 C448 1.392 . S
C447 N449 1.420 . S
C448 H442 0.930 . S
C448 C444 1.407 . S
C448 C447 1.392 . S
N449 C447 1.420 . S
N449 C450 1.244 . S
C450 N449 1.244 . S
H451 C454 0.929 . S
H452 C457 0.929 . S
H453 C459 0.930 1_455 S
C454 H451 0.929 . S
C454 C455 1.398 . S
C454 C456 1.396 1_556 S
C455 C454 1.398 . S
C455 C459 1.407 1_556 S
C456 C454 1.396 1_554 S
C456 C457 1.394 . S
C457 H452 0.929 . S
C457 C456 1.394 . S
C457 C458 1.382 . S
C458 C457 1.382 . S
C458 C459 1.392 . S
C458 N460 1.420 . S
C459 H453 0.930 1_655 S
C459 C455 1.407 1_554 S
C459 C458 1.392 . S
N460 C458 1.420 . S
N460 C461 1.244 . S
C461 N460 1.244 . S
H462 C465 0.929 . S
H463 C468 0.929 . S
H464 C470 0.930 1_655 S
C465 H462 0.929 . S
C465 C466 1.398 . S
C465 C467 1.396 . S
C466 C465 1.398 . S
C466 C470 1.407 . S
C467 C465 1.396 . S
C467 C468 1.394 . S
C468 H463 0.929 . S
C468 C467 1.394 . S
C468 C469 1.382 . S
C469 C468 1.382 . S
C469 C470 1.392 . S
C469 N471 1.420 . S
C470 H464 0.930 1_455 S
C470 C466 1.407 . S
C470 C469 1.392 . S
N471 C469 1.420 . S
N471 C472 1.244 . S
C472 N471 1.244 . S
H473 C476 0.929 . S
H474 C479 0.929 . S
H475 C481 0.930 . S
C476 H473 0.929 . S
C476 C477 1.398 . S
C476 C478 1.396 . S
C477 C476 1.398 . S
C477 C481 1.407 . S
C478 C476 1.396 . S
C478 C479 1.394 1_554 S
C479 H474 0.929 . S
C479 C478 1.394 1_556 S
C479 C480 1.382 . S
C480 C479 1.382 . S
C480 C481 1.392 1_556 S
C480 N482 1.420 . S
C481 H475 0.930 . S
C481 C477 1.407 . S
C481 C480 1.392 1_554 S
N482 C480 1.420 . S
N482 C483 1.244 . S
C483 N482 1.244 . S
H484 C487 0.929 . S
H485 C490 0.929 . S
H486 C492 0.930 . S
C487 H484 0.929 . S
C487 C488 1.398 . S
C487 C489 1.396 . S
C488 C487 1.398 . S
C488 C492 1.407 . S
C489 C487 1.396 . S
C489 C490 1.394 . S
C490 H485 0.929 . S
C490 C489 1.394 . S
C490 C491 1.382 . S
C491 C490 1.382 . S
C491 C492 1.392 . S
C491 N493 1.420 . S
C492 H486 0.930 . S
C492 C488 1.407 . S
C492 C491 1.392 . S
N493 C491 1.420 . S
N493 C494 1.244 . S
C494 N493 1.244 . S
H495 C498 0.929 . S
H496 C501 0.929 . S
H497 C503 0.930 1_545 S
C498 H495 0.929 . S
C498 C499 1.398 . S
C498 C500 1.396 1_655 S
C499 C498 1.398 . S
C499 C503 1.407 1_655 S
C500 C498 1.396 1_455 S
C500 C501 1.394 . S
C501 H496 0.929 . S
C501 C500 1.394 . S
C501 C502 1.382 . S
C502 C501 1.382 . S
C502 C503 1.392 . S
C502 N504 1.420 . S
C503 H497 0.930 1_565 S
C503 C499 1.407 1_455 S
C503 C502 1.392 . S
N504 C502 1.420 . S
N504 C505 1.244 . S
C505 N504 1.244 . S
H506 C509 0.929 . S
H507 C512 0.929 . S
H508 C514 0.930 1_565 S
C509 H506 0.929 . S
C509 C510 1.398 . S
C509 C511 1.396 . S
C510 C509 1.398 . S
C510 C514 1.407 . S
C511 C509 1.396 . S
C511 C512 1.394 . S
C512 H507 0.929 . S
C512 C511 1.394 . S
C512 C513 1.382 . S
C513 C512 1.382 . S
C513 C514 1.392 . S
C513 N515 1.420 . S
C514 H508 0.930 1_545 S
C514 C510 1.407 . S
C514 C513 1.392 . S
N515 C513 1.420 . S
N515 C516 1.244 . S
C516 N515 1.244 . S
H517 C520 0.929 . S
H518 C523 0.929 . S
H519 C525 0.930 . S
C520 H517 0.929 . S
C520 C521 1.398 . S
C520 C522 1.396 . S
C521 C520 1.398 . S
C521 C525 1.407 . S
C522 C520 1.396 . S
C522 C523 1.394 1_455 S
C523 H518 0.929 . S
C523 C522 1.394 1_655 S
C523 C524 1.382 . S
C524 C523 1.382 . S
C524 C525 1.392 1_655 S
C524 N526 1.420 . S
C525 H519 0.930 . S
C525 C521 1.407 . S
C525 C524 1.392 1_455 S
N526 C524 1.420 . S
N526 C527 1.244 . S
C527 N526 1.244 . S
C521 C8 1.785 . S
C488 C19 1.962 . S
C510 C30 1.574 . S
C499 C41 1.943 . S
C422 C52 1.785 . S
C63 C433 1.943 . S
C400 C74 1.962 . S
C85 C411 1.574 . S
C477 C96 1.785 . S
C107 C455 1.943 . S
C118 C444 1.962 . S
C466 C129 1.574 . S
C389 C140 1.611 . S
C151 C356 1.735 . S
C378 C162 1.398 . S
C173 C367 1.721 . S
C290 C184 1.611 . S
C301 C195 1.721 . S
C206 C268 1.735 . S
C217 C279 1.398 . S
C228 C345 1.611 . S
C239 C323 1.721 . S
C312 C250 1.735 . S
C261 C334 1.398 . S
C269 C7 1.633 . S
C280 C18 1.785 . S
C29 C291 1.530 . S
C40 C302 1.481 1_545 S
C313 C51 1.633 . S
C62 C324 1.481 1_554 S
C335 C73 1.785 . S
C346 C84 1.530 . S
C357 C95 1.633 . S
C106 C368 1.481 1_455 S
C117 C379 1.785 . S
C128 C390 1.530 . S
C139 C401 1.375 . S
C150 C412 1.404 . S
C161 C423 1.328 . S
C172 C434 1.251 1_565 S
C183 C445 1.374 . S
C456 C194 1.251 1_554 S
C467 C205 1.404 . S
C478 C216 1.328 . S
C489 C227 1.374 . S
C238 C500 1.251 1_655 S
C249 C511 1.404 . S
C260 C522 1.328 . S
C5 C362 1.605 . S
C395 C16 1.763 . S
C27 C373 1.482 1_565 S
C384 C38 1.852 1_565 S
C49 C274 1.605 . S
C60 C285 1.852 1_554 S
C71 C296 1.762 . S
C82 C307 1.482 1_556 S
C318 C93 1.605 . S
C340 C104 1.852 1_655 S
C115 C351 1.762 . S
C126 C329 1.482 1_655 S
C494 C137 1.082 . S
C527 C148 1.141 . S
C159 C505 1.058 . S
C516 C170 1.220 . S
C181 C406 1.082 . S
C192 C417 1.220 . S
C203 C428 1.141 . S
C439 C214 1.058 . S
C450 C225 1.082 . S
C472 C236 1.220 . S
C247 C483 1.141 . S
C461 C258 1.058 . S
