# Generated by pormake.
# Topology ctn, (3,4)-cn, num edge types: 1
# Building blocks:
#     Node 0, Type 0, BuildingBlock: MIDCAF_clean_linker_0, # of connection points: 3
#     Node 1, Type 0, BuildingBlock: MIDCAF_clean_linker_0, # of connection points: 3
#     Node 2, Type 0, BuildingBlock: MIDCAF_clean_linker_0, # of connection points: 3
#     Node 3, Type 0, BuildingBlock: MIDCAF_clean_linker_0, # of connection points: 3
#     Node 4, Type 0, BuildingBlock: MIDCAF_clean_linker_0, # of connection points: 3
#     Node 5, Type 0, BuildingBlock: MIDCAF_clean_linker_0, # of connection points: 3
#     Node 6, Type 0, BuildingBlock: MIDCAF_clean_linker_0, # of connection points: 3
#     Node 7, Type 0, BuildingBlock: MIDCAF_clean_linker_0, # of connection points: 3
#     Node 8, Type 0, BuildingBlock: MIDCAF_clean_linker_0, # of connection points: 3
#     Node 9, Type 0, BuildingBlock: MIDCAF_clean_linker_0, # of connection points: 3
#     Node 10, Type 0, BuildingBlock: MIDCAF_clean_linker_0, # of connection points: 3
#     Node 11, Type 0, BuildingBlock: MIDCAF_clean_linker_0, # of connection points: 3
#     Node 12, Type 0, BuildingBlock: MIDCAF_clean_linker_0, # of connection points: 3
#     Node 13, Type 0, BuildingBlock: MIDCAF_clean_linker_0, # of connection points: 3
#     Node 14, Type 0, BuildingBlock: MIDCAF_clean_linker_0, # of connection points: 3
#     Node 15, Type 0, BuildingBlock: MIDCAF_clean_linker_0, # of connection points: 3
#     Node 16, Type 1, BuildingBlock: UXUYUI_clean_sbu_0, # of connection points: 4
#     Node 17, Type 1, BuildingBlock: UXUYUI_clean_sbu_0, # of connection points: 4
#     Node 18, Type 1, BuildingBlock: UXUYUI_clean_sbu_0, # of connection points: 4
#     Node 19, Type 1, BuildingBlock: UXUYUI_clean_sbu_0, # of connection points: 4
#     Node 20, Type 1, BuildingBlock: UXUYUI_clean_sbu_0, # of connection points: 4
#     Node 21, Type 1, BuildingBlock: UXUYUI_clean_sbu_0, # of connection points: 4
#     Node 22, Type 1, BuildingBlock: UXUYUI_clean_sbu_0, # of connection points: 4
#     Node 23, Type 1, BuildingBlock: UXUYUI_clean_sbu_0, # of connection points: 4
#     Node 24, Type 1, BuildingBlock: UXUYUI_clean_sbu_0, # of connection points: 4
#     Node 25, Type 1, BuildingBlock: UXUYUI_clean_sbu_0, # of connection points: 4
#     Node 26, Type 1, BuildingBlock: UXUYUI_clean_sbu_0, # of connection points: 4
#     Node 27, Type 1, BuildingBlock: UXUYUI_clean_sbu_0, # of connection points: 4
#     Edge 28, Type (0, 1), BuildingBlock: MIFKUJ_clean_linker_0, # of connection points: 2
#     Edge 29, Type (0, 1), BuildingBlock: MIFKUJ_clean_linker_0, # of connection points: 2
#     Edge 30, Type (0, 1), BuildingBlock: MIFKUJ_clean_linker_0, # of connection points: 2
#     Edge 31, Type (0, 1), BuildingBlock: MIFKUJ_clean_linker_0, # of connection points: 2
#     Edge 32, Type (0, 1), BuildingBlock: MIFKUJ_clean_linker_0, # of connection points: 2
#     Edge 33, Type (0, 1), BuildingBlock: MIFKUJ_clean_linker_0, # of connection points: 2
#     Edge 34, Type (0, 1), BuildingBlock: MIFKUJ_clean_linker_0, # of connection points: 2
#     Edge 35, Type (0, 1), BuildingBlock: MIFKUJ_clean_linker_0, # of connection points: 2
#     Edge 36, Type (0, 1), BuildingBlock: MIFKUJ_clean_linker_0, # of connection points: 2
#     Edge 37, Type (0, 1), BuildingBlock: MIFKUJ_clean_linker_0, # of connection points: 2
#     Edge 38, Type (0, 1), BuildingBlock: MIFKUJ_clean_linker_0, # of connection points: 2
#     Edge 39, Type (0, 1), BuildingBlock: MIFKUJ_clean_linker_0, # of connection points: 2
#     Edge 40, Type (0, 1), BuildingBlock: MIFKUJ_clean_linker_0, # of connection points: 2
#     Edge 41, Type (0, 1), BuildingBlock: MIFKUJ_clean_linker_0, # of connection points: 2
#     Edge 42, Type (0, 1), BuildingBlock: MIFKUJ_clean_linker_0, # of connection points: 2
#     Edge 43, Type (0, 1), BuildingBlock: MIFKUJ_clean_linker_0, # of connection points: 2
#     Edge 44, Type (0, 1), BuildingBlock: MIFKUJ_clean_linker_0, # of connection points: 2
#     Edge 45, Type (0, 1), BuildingBlock: MIFKUJ_clean_linker_0, # of connection points: 2
#     Edge 46, Type (0, 1), BuildingBlock: MIFKUJ_clean_linker_0, # of connection points: 2
#     Edge 47, Type (0, 1), BuildingBlock: MIFKUJ_clean_linker_0, # of connection points: 2
#     Edge 48, Type (0, 1), BuildingBlock: MIFKUJ_clean_linker_0, # of connection points: 2
#     Edge 49, Type (0, 1), BuildingBlock: MIFKUJ_clean_linker_0, # of connection points: 2
#     Edge 50, Type (0, 1), BuildingBlock: MIFKUJ_clean_linker_0, # of connection points: 2
#     Edge 51, Type (0, 1), BuildingBlock: MIFKUJ_clean_linker_0, # of connection points: 2
#     Edge 52, Type (0, 1), BuildingBlock: MIFKUJ_clean_linker_0, # of connection points: 2
#     Edge 53, Type (0, 1), BuildingBlock: MIFKUJ_clean_linker_0, # of connection points: 2
#     Edge 54, Type (0, 1), BuildingBlock: MIFKUJ_clean_linker_0, # of connection points: 2
#     Edge 55, Type (0, 1), BuildingBlock: MIFKUJ_clean_linker_0, # of connection points: 2
#     Edge 56, Type (0, 1), BuildingBlock: MIFKUJ_clean_linker_0, # of connection points: 2
#     Edge 57, Type (0, 1), BuildingBlock: MIFKUJ_clean_linker_0, # of connection points: 2
#     Edge 58, Type (0, 1), BuildingBlock: MIFKUJ_clean_linker_0, # of connection points: 2
#     Edge 59, Type (0, 1), BuildingBlock: MIFKUJ_clean_linker_0, # of connection points: 2
#     Edge 60, Type (0, 1), BuildingBlock: MIFKUJ_clean_linker_0, # of connection points: 2
#     Edge 61, Type (0, 1), BuildingBlock: MIFKUJ_clean_linker_0, # of connection points: 2
#     Edge 62, Type (0, 1), BuildingBlock: MIFKUJ_clean_linker_0, # of connection points: 2
#     Edge 63, Type (0, 1), BuildingBlock: MIFKUJ_clean_linker_0, # of connection points: 2
#     Edge 64, Type (0, 1), BuildingBlock: MIFKUJ_clean_linker_0, # of connection points: 2
#     Edge 65, Type (0, 1), BuildingBlock: MIFKUJ_clean_linker_0, # of connection points: 2
#     Edge 66, Type (0, 1), BuildingBlock: MIFKUJ_clean_linker_0, # of connection points: 2
#     Edge 67, Type (0, 1), BuildingBlock: MIFKUJ_clean_linker_0, # of connection points: 2
#     Edge 68, Type (0, 1), BuildingBlock: MIFKUJ_clean_linker_0, # of connection points: 2
#     Edge 69, Type (0, 1), BuildingBlock: MIFKUJ_clean_linker_0, # of connection points: 2
#     Edge 70, Type (0, 1), BuildingBlock: MIFKUJ_clean_linker_0, # of connection points: 2
#     Edge 71, Type (0, 1), BuildingBlock: MIFKUJ_clean_linker_0, # of connection points: 2
#     Edge 72, Type (0, 1), BuildingBlock: MIFKUJ_clean_linker_0, # of connection points: 2
#     Edge 73, Type (0, 1), BuildingBlock: MIFKUJ_clean_linker_0, # of connection points: 2
#     Edge 74, Type (0, 1), BuildingBlock: MIFKUJ_clean_linker_0, # of connection points: 2
#     Edge 75, Type (0, 1), BuildingBlock: MIFKUJ_clean_linker_0, # of connection points: 2
# Relax obj value: 0.000
# Max RMSD: 0.004
# Mean RMSD: 0.003
data_MOF--net-ctn--node1-UXUYUI_clean_sbu_0--node2-MIDCAF_clean_linker_0--edge1-MIFKUJ_clean_linker_0
_symmetry_space_group_name_H-M    P1
_symmetry_Int_Tables_number       1
_symmetry_cell_setting            triclinic
loop_
_symmetry_equiv_pos_as_xyz
'x, y, z'
_cell_length_a     97.305459
_cell_length_b     97.295146
_cell_length_c     97.280001
_cell_angle_alpha  90.039651
_cell_angle_beta   90.025972
_cell_angle_gamma 90.075363
loop_
_atom_site_label
_atom_site_type_symbol
_atom_site_fract_x
_atom_site_fract_y
_atom_site_fract_z
_atom_type_partial_charge
C0 C 0.9975 0.03682 0.0707 0.0
C1 C 1.00068 0.02707 0.08086 0.0
C2 C 0.01284 0.01941 0.0796 0.0
C3 C 0.02166 0.02147 0.06845 0.0
H4 H 0.05427 0.00395 0.04809 0.0
H5 H 0.07404 0.98898 0.04481 0.0
H6 H 0.08871 0.01532 0.01226 0.0
H7 H 0.06905 0.03044 0.01558 0.0
H8 H 0.05109 0.0555 0.00601 0.0
H9 H 0.04729 0.0749 0.99066 0.0
H10 H 0.00937 0.08418 0.01175 0.0
H11 H 0.01301 0.06469 0.02699 0.0
H12 H 0.00362 0.04662 0.052 0.0
H13 H 0.98827 0.04298 0.07145 0.0
H14 H 0.01549 0.01171 0.08719 0.0
H15 H 0.03095 0.01538 0.06785 0.0
N16 N 0.03913 0.0254 0.0447 0.0
N17 N 0.04573 0.03833 0.02548 0.0
N18 N 0.02595 0.04434 0.03784 0.0
C19 C 0.048 0.02761 0.03414 0.0
C20 C 0.03472 0.04674 0.02724 0.0
C21 C 0.02809 0.03371 0.04664 0.0
C22 C 0.06003 0.01845 0.03211 0.0
C23 C 0.0617 0.0066 0.04023 0.0
C24 C 0.07299 0.99795 0.03831 0.0
C25 C 0.08293 0.00096 0.02827 0.0
C26 C 0.0813 0.0128 0.02018 0.0
C27 C 0.06997 0.02142 0.02204 0.0
C28 C 0.03237 0.05849 0.01778 0.0
C29 C 0.04191 0.06163 0.00738 0.0
C30 C 0.03978 0.07282 0.99862 0.0
C31 C 0.02803 0.0811 0.99999 0.0
C32 C 0.01845 0.07791 0.01032 0.0
C33 C 0.02059 0.06677 0.01912 0.0
C34 C 0.01857 0.03132 0.05833 0.0
C35 C 0.00636 0.03895 0.05958 0.0
C36 C 0.26098 0.67344 0.23554 0.0
C37 C 0.25167 0.66916 0.22533 0.0
C38 C 0.25125 0.67645 0.21285 0.0
C39 C 0.25992 0.68771 0.21064 0.0
H40 H 0.26432 0.72221 0.18626 0.0
H41 H 0.26083 0.73725 0.16656 0.0
H42 H 0.29776 0.7596 0.17701 0.0
H43 H 0.30141 0.74449 0.1966 0.0
H44 H 0.31741 0.73736 0.22353 0.0
H45 H 0.33678 0.74128 0.23888 0.0
H46 H 0.32494 0.70586 0.26288 0.0
H47 H 0.3054 0.70205 0.24772 0.0
H48 H 0.27674 0.68761 0.24141 0.0
H49 H 0.26144 0.66824 0.24536 0.0
H50 H 0.24438 0.67334 0.20466 0.0
H51 H 0.25936 0.69301 0.20087 0.0
N52 N 0.27676 0.71213 0.2074 0.0
N53 N 0.29597 0.72519 0.21386 0.0
N54 N 0.28933 0.70619 0.22709 0.0
C55 C 0.28534 0.72291 0.20507 0.0
C56 C 0.29805 0.71689 0.22489 0.0
C57 C 0.27867 0.70372 0.21839 0.0
C58 C 0.28316 0.73209 0.19307 0.0
C59 C 0.27173 0.73031 0.18438 0.0
C60 C 0.26967 0.73899 0.17312 0.0
C61 C 0.27901 0.74963 0.17022 0.0
C62 C 0.29045 0.7514 0.17887 0.0
C63 C 0.29249 0.74276 0.19016 0.0
C64 C 0.3098 0.71937 0.23434 0.0
C65 C 0.31889 0.73041 0.23209 0.0
C66 C 0.33006 0.73262 0.24085 0.0
C67 C 0.33244 0.72387 0.2521 0.0
C68 C 0.32332 0.7129 0.25441 0.0
C69 C 0.31214 0.71067 0.24565 0.0
C70 C 0.2693 0.69191 0.22081 0.0
C71 C 0.26972 0.68463 0.23329 0.0
C72 C 0.98071 0.42018 0.01491 0.0
C73 C 0.97369 0.41918 0.0023 0.0
C74 C 0.96451 0.42972 0.99865 0.0
C75 C 0.96227 0.44086 0.00745 0.0
H76 H 0.93538 0.47247 0.01426 0.0
H77 H 0.91604 0.48773 0.01012 0.0
H78 H 0.9249 0.5093 0.04793 0.0
H79 H 0.94443 0.49423 0.05199 0.0
H80 H 0.96775 0.48275 0.07182 0.0
H81 H 0.98261 0.48629 0.09173 0.0
H82 H 0.01205 0.45775 0.07485 0.0
H83 H 0.99728 0.45419 0.05492 0.0
H84 H 0.98405 0.43169 0.03334 0.0
H85 H 0.9877 0.41216 0.01817 0.0
H86 H 0.95909 0.42944 0.98893 0.0
H87 H 0.95509 0.44876 0.00429 0.0
N88 N 0.95594 0.46216 0.02727 0.0
N89 N 0.96153 0.47458 0.04718 0.0
N90 N 0.97478 0.45551 0.04074 0.0
C91 C 0.9533 0.47273 0.03603 0.0
C92 C 0.97231 0.46604 0.04959 0.0
C93 C 0.96663 0.45349 0.02956 0.0
C94 C 0.94151 0.48208 0.03348 0.0
C95 C 0.93324 0.48046 0.02171 0.0
C96 C 0.92208 0.48917 0.01936 0.0
C97 C 0.91889 0.49973 0.0287 0.0
C98 C 0.92717 0.50139 0.04043 0.0
C99 C 0.93834 0.49268 0.04279 0.0
C100 C 0.9813 0.46818 0.06174 0.0
C101 C 0.97739 0.47723 0.07232 0.0
C102 C 0.98586 0.4792 0.08378 0.0
C103 C 0.99849 0.4723 0.08484 0.0
C104 C 0.00243 0.46331 0.07425 0.0
C105 C 0.99391 0.46121 0.06287 0.0
C106 C 0.96923 0.44181 0.02009 0.0
C107 C 0.97855 0.43137 0.02367 0.0
C108 C 0.73435 0.76159 0.17177 0.0
C109 C 0.72527 0.75074 0.16876 0.0
C110 C 0.71373 0.74879 0.17724 0.0
C111 C 0.71127 0.75754 0.18837 0.0
H112 H 0.69038 0.76054 0.22669 0.0
H113 H 0.67104 0.75651 0.24201 0.0
H114 H 0.6701 0.79981 0.25206 0.0
H115 H 0.68988 0.80366 0.23729 0.0
H116 H 0.71993 0.81876 0.23443 0.0
H117 H 0.73489 0.83848 0.23826 0.0
H118 H 0.76106 0.82515 0.20499 0.0
H119 H 0.74628 0.80529 0.20125 0.0
H120 H 0.73908 0.77863 0.18483 0.0
H121 H 0.74345 0.76326 0.16558 0.0
H122 H 0.70643 0.74065 0.17513 0.0
H123 H 0.70219 0.75579 0.19458 0.0
N124 N 0.70651 0.7759 0.2113 0.0
N125 N 0.71183 0.79599 0.22356 0.0
N126 N 0.72555 0.78924 0.20494 0.0
C127 C 0.70364 0.78482 0.22166 0.0
C128 C 0.72285 0.79825 0.21528 0.0
C129 C 0.71742 0.77806 0.20285 0.0
C130 C 0.6917 0.78241 0.23079 0.0
C131 C 0.68603 0.76919 0.23218 0.0
C132 C 0.67486 0.7669 0.24092 0.0
C133 C 0.66891 0.77782 0.24833 0.0
C134 C 0.67453 0.79107 0.24679 0.0
C135 C 0.68585 0.79332 0.23823 0.0
C136 C 0.73187 0.81038 0.21753 0.0
C137 C 0.72887 0.82 0.22791 0.0
C138 C 0.73741 0.83137 0.23007 0.0
C139 C 0.74917 0.83339 0.22193 0.0
C140 C 0.75217 0.8238 0.21155 0.0
C141 C 0.74362 0.81244 0.20936 0.0
C142 C 0.72026 0.7685 0.19129 0.0
C143 C 0.73187 0.77036 0.18288 0.0
C144 C 0.03721 0.92993 0.50298 0.0
C145 C 0.02856 0.91901 0.49904 0.0
C146 C 0.02195 0.9197 0.48619 0.0
C147 C 0.02389 0.93101 0.47755 0.0
H148 H 0.00742 0.94997 0.44363 0.0
H149 H 0.99224 0.95354 0.42406 0.0
H150 H 0.01293 0.99176 0.41496 0.0
H151 H 0.02802 0.98835 0.43463 0.0
H152 H 0.05375 0.99713 0.4518 0.0
H153 H 0.07285 0.0128 0.45577 0.0
H154 H 0.0859 0.98823 0.49035 0.0
H155 H 0.06664 0.97269 0.48661 0.0
H156 H 0.04594 0.94941 0.4977 0.0
H157 H 0.04229 0.92989 0.51288 0.0
H158 H 0.01541 0.91139 0.48269 0.0
H159 H 0.01867 0.93113 0.46771 0.0
N160 N 0.02636 0.95582 0.46123 0.0
N161 N 0.03861 0.97572 0.45535 0.0
N162 N 0.04506 0.96292 0.47471 0.0
C163 C 0.0282 0.96675 0.45274 0.0
C164 C 0.0471 0.97388 0.46629 0.0
C165 C 0.03471 0.95384 0.47225 0.0
C166 C 0.01898 0.96887 0.44076 0.0
C167 C 0.00876 0.95916 0.43749 0.0
C168 C 1.00008 0.96116 0.42621 0.0
C169 C 0.00138 0.97293 0.41795 0.0
C170 C 0.01156 0.98266 0.42121 0.0
C171 C 0.02027 0.98065 0.43246 0.0
C172 C 0.05861 0.98359 0.46886 0.0
C173 C 0.06064 0.99505 0.46029 0.0
C174 C 0.07166 0.00402 0.46251 0.0
C175 C 0.08094 0.00175 0.47335 0.0
C176 C 0.07885 0.99037 0.48201 0.0
C177 C 0.06783 0.98141 0.4798 0.0
C178 C 0.03259 0.94187 0.48147 0.0
C179 C 0.03925 0.94118 0.49428 0.0
C180 C 0.231 0.73869 0.83084 0.0
C181 C 0.22295 0.75055 0.83261 0.0
C182 C 0.21261 0.75342 0.82292 0.0
C183 C 0.21034 0.74462 0.81178 0.0
H184 H 0.18737 0.74041 0.77612 0.0
H185 H 0.16772 0.74416 0.76099 0.0
H186 H 0.1723 0.70317 0.74464 0.0
H187 H 0.19195 0.69934 0.75972 0.0
H188 H 0.22523 0.68847 0.76193 0.0
H189 H 0.24041 0.669 0.75821 0.0
H190 H 0.25404 0.67162 0.80044 0.0
H191 H 0.2393 0.69148 0.80397 0.0
H192 H 0.23512 0.72084 0.81872 0.0
H193 H 0.23893 0.73607 0.8382 0.0
H194 H 0.20635 0.76256 0.82386 0.0
H195 H 0.2023 0.7472 0.80453 0.0
N196 N 0.20538 0.72571 0.78935 0.0
N197 N 0.21136 0.70609 0.77669 0.0
N198 N 0.22413 0.71223 0.7962 0.0
C199 C 0.203 0.71711 0.77858 0.0
C200 C 0.22196 0.70359 0.78543 0.0
C201 C 0.21592 0.72334 0.79822 0.0
C202 C 0.19126 0.71956 0.76917 0.0
C203 C 0.18422 0.73218 0.7693 0.0
C204 C 0.173 0.73438 0.76058 0.0
C205 C 0.16847 0.72395 0.75167 0.0
C206 C 0.1755 0.71135 0.75151 0.0
C207 C 0.18681 0.7092 0.7601 0.0
C208 C 0.23105 0.69157 0.78324 0.0
C209 C 0.23146 0.68489 0.77043 0.0
C210 C 0.24014 0.67364 0.76832 0.0
C211 C 0.24849 0.66865 0.77902 0.0
C212 C 0.24798 0.67529 0.79187 0.0
C213 C 0.23944 0.68666 0.79393 0.0
C214 C 0.21838 0.73274 0.81002 0.0
C215 C 0.22875 0.7299 0.81968 0.0
C216 C 0.98447 0.57809 0.49218 0.0
C217 C 0.97563 0.58046 0.50336 0.0
C218 C 0.96473 0.57124 0.50567 0.0
C219 C 0.96265 0.56 0.49694 0.0
H220 H 0.93744 0.52673 0.49085 0.0
H221 H 0.9177 0.51168 0.49417 0.0
H222 H 0.92777 0.49004 0.45674 0.0
H223 H 0.9474 0.50517 0.45326 0.0
H224 H 0.97365 0.51323 0.43663 0.0
H225 H 0.98891 0.50963 0.41714 0.0
H226 H 0.01364 0.54421 0.43004 0.0
H227 H 0.99854 0.54773 0.44968 0.0
H228 H 0.98943 0.56539 0.47495 0.0
H229 H 0.99307 0.58488 0.49022 0.0
H230 H 0.95764 0.57285 0.51409 0.0
H231 H 0.95408 0.5532 0.499 0.0
N232 N 0.95829 0.53723 0.47827 0.0
N233 N 0.96461 0.52452 0.45879 0.0
N234 N 0.97764 0.54369 0.46543 0.0
C235 C 0.95597 0.52653 0.46958 0.0
C236 C 0.97548 0.53303 0.45665 0.0
C237 C 0.9691 0.54587 0.47627 0.0
C238 C 0.94405 0.51722 0.47176 0.0
C239 C 0.93548 0.51877 0.48331 0.0
C240 C 0.92419 0.51008 0.48527 0.0
C241 C 0.92115 0.49966 0.47572 0.0
C242 C 0.92973 0.49807 0.46421 0.0
C243 C 0.94105 0.50672 0.46226 0.0
C244 C 0.98482 0.53079 0.44478 0.0
C245 C 0.98234 0.52008 0.43536 0.0
C246 C 0.99105 0.51805 0.42412 0.0
C247 C 0.00248 0.52665 0.42201 0.0
C248 C 0.00501 0.5373 0.43145 0.0
C249 C 0.99629 0.53936 0.44268 0.0
C250 C 0.97144 0.55768 0.48569 0.0
C251 C 0.98241 0.56684 0.48346 0.0
C252 C 0.82872 0.76727 0.76054 0.0
C253 C 0.83385 0.77789 0.75223 0.0
C254 C 0.82746 0.79083 0.75265 0.0
C255 C 0.81611 0.79307 0.76118 0.0
H256 H 0.78322 0.81939 0.76685 0.0
H257 H 0.76817 0.83905 0.76316 0.0
H258 H 0.74074 0.82403 0.79464 0.0
H259 H 0.75563 0.80428 0.79827 0.0
H260 H 0.7638 0.77865 0.81577 0.0
H261 H 0.75957 0.76337 0.83509 0.0
H262 H 0.79675 0.74107 0.82562 0.0
H263 H 0.80085 0.75613 0.80609 0.0
H264 H 0.81383 0.76115 0.77552 0.0
H265 H 0.83352 0.75723 0.76049 0.0
H266 H 0.83115 0.79917 0.74627 0.0
H267 H 0.81141 0.80316 0.76124 0.0
N268 N 0.79078 0.79594 0.7768 0.0
N269 N 0.77719 0.78923 0.79553 0.0
N270 N 0.79632 0.77605 0.78922 0.0
C271 C 0.77977 0.79817 0.78511 0.0
C272 C 0.78542 0.77817 0.79769 0.0
C273 C 0.79908 0.78488 0.77876 0.0
C274 C 0.77067 0.8102 0.78286 0.0
C275 C 0.77398 0.82024 0.77299 0.0
C276 C 0.76539 0.83157 0.77091 0.0
C277 C 0.75326 0.83309 0.7786 0.0
C278 C 0.74993 0.82306 0.78844 0.0
C279 C 0.75854 0.81178 0.79057 0.0
C280 C 0.78269 0.76867 0.80933 0.0
C281 C 0.77107 0.77048 0.81775 0.0
C282 C 0.76868 0.76175 0.82891 0.0
C283 C 0.77784 0.75101 0.83195 0.0
C284 C 0.78938 0.74913 0.82347 0.0
C285 C 0.79177 0.75783 0.81229 0.0
C286 C 0.81102 0.78248 0.7696 0.0
C287 C 0.81749 0.76956 0.76921 0.0
C288 C 0.3279 0.26829 0.26051 0.0
C289 C 0.33362 0.27924 0.25298 0.0
C290 C 0.32769 0.29236 0.25428 0.0
C291 C 0.31628 0.29445 0.26277 0.0
H292 H 0.28479 0.32218 0.27086 0.0
H293 H 0.27001 0.34214 0.26746 0.0
H294 H 0.23862 0.32322 0.29245 0.0
H295 H 0.25333 0.30324 0.2959 0.0
H296 H 0.26237 0.27836 0.31528 0.0
H297 H 0.25786 0.26262 0.33419 0.0
H298 H 0.29516 0.24052 0.32472 0.0
H299 H 0.29954 0.25603 0.30561 0.0
H300 H 0.31245 0.26173 0.27472 0.0
H301 H 0.33198 0.25798 0.2596 0.0
H302 H 0.33194 0.30111 0.24888 0.0
H303 H 0.31201 0.3047 0.26353 0.0
N304 N 0.29041 0.29693 0.27761 0.0
N305 N 0.27626 0.28959 0.29569 0.0
N306 N 0.29545 0.2765 0.28936 0.0
C307 C 0.2792 0.2989 0.28571 0.0
C308 C 0.28436 0.27838 0.29764 0.0
C309 C 0.29855 0.28571 0.27933 0.0
C310 C 0.27027 0.31108 0.28366 0.0
C311 C 0.27474 0.32225 0.27564 0.0
C312 C 0.26631 0.33372 0.27374 0.0
C313 C 0.25317 0.33423 0.27969 0.0
C314 C 0.24866 0.32306 0.28765 0.0
C315 C 0.25714 0.31165 0.28969 0.0
C316 C 0.28135 0.26852 0.3089 0.0
C317 C 0.2696 0.27012 0.31717 0.0
C318 C 0.26704 0.26113 0.32808 0.0
C319 C 0.27617 0.25033 0.33102 0.0
C320 C 0.28781 0.24862 0.32265 0.0
C321 C 0.29037 0.25758 0.31171 0.0
C322 C 0.31064 0.28351 0.27032 0.0
C323 C 0.31662 0.27042 0.26914 0.0
C324 C 0.48282 0.92332 0.51257 0.0
C325 C 0.47452 0.92139 0.50089 0.0
C326 C 0.46389 0.9308 0.49828 0.0
C327 C 0.46149 0.94178 0.50724 0.0
H328 H 0.43541 0.97414 0.51393 0.0
H329 H 0.41565 0.98907 0.5104 0.0
H330 H 0.42334 0.0086 0.54953 0.0
H331 H 0.443 0.99358 0.55322 0.0
H332 H 0.46613 0.97981 0.57338 0.0
H333 H 0.48087 0.98287 0.59336 0.0
H334 H 0.51425 0.96316 0.57163 0.0
H335 H 0.49925 0.95948 0.55196 0.0
H336 H 0.48703 0.93542 0.53042 0.0
H337 H 0.4912 0.91634 0.51477 0.0
H338 H 0.45723 0.92952 0.48945 0.0
H339 H 0.45311 0.94873 0.50496 0.0
N340 N 0.45581 0.96335 0.52693 0.0
N341 N 0.46126 0.97539 0.5471 0.0
N342 N 0.47518 0.95712 0.53983 0.0
C343 C 0.45293 0.97356 0.53603 0.0
C344 C 0.47243 0.96726 0.54904 0.0
C345 C 0.46689 0.95505 0.52877 0.0
C346 C 0.44085 0.98262 0.53387 0.0
C347 C 0.43291 0.98159 0.52182 0.0
C348 C 0.42161 0.99021 0.51974 0.0
C349 C 0.41794 1.00003 0.52968 0.0
C350 C 0.42582 0.00104 0.54175 0.0
C351 C 0.43715 0.99246 0.54381 0.0
C352 C 0.4815 0.96937 0.56109 0.0
C353 C 0.47662 0.97613 0.57288 0.0
C354 C 0.48513 0.97796 0.58433 0.0
C355 C 0.49882 0.97328 0.58419 0.0
C356 C 0.50371 0.96665 0.57229 0.0
C357 C 0.49513 0.96462 0.56094 0.0
C358 C 0.4697 0.94365 0.51901 0.0
C359 C 0.48046 0.93432 0.5215 0.0
C360 C 0.23282 0.2633 0.67222 0.0
C361 C 0.2248 0.2514 0.67048 0.0
C362 C 0.21451 0.24845 0.68019 0.0
C363 C 0.2122 0.25729 0.69129 0.0
H364 H 0.19005 0.26147 0.72803 0.0
H365 H 0.17058 0.25759 0.74322 0.0
H366 H 0.17127 0.30047 0.75494 0.0
H367 H 0.19113 0.30416 0.74024 0.0
H368 H 0.222 0.31806 0.73774 0.0
H369 H 0.23696 0.33784 0.74129 0.0
H370 H 0.25992 0.32706 0.70487 0.0
H371 H 0.24489 0.30738 0.70116 0.0
H372 H 0.23691 0.2812 0.6843 0.0
H373 H 0.24094 0.26577 0.66501 0.0
H374 H 0.20806 0.23945 0.67906 0.0
H375 H 0.2041 0.25473 0.69849 0.0
N376 N 0.20675 0.27661 0.71325 0.0
N377 N 0.21229 0.29664 0.72549 0.0
N378 N 0.22563 0.29002 0.70656 0.0
C379 C 0.20406 0.28549 0.72369 0.0
C380 C 0.22314 0.29896 0.717 0.0
C381 C 0.21749 0.27882 0.70459 0.0
C382 C 0.19217 0.28312 0.73292 0.0
C383 C 0.18606 0.27007 0.73387 0.0
C384 C 0.17481 0.26786 0.74254 0.0
C385 C 0.16926 0.27871 0.75034 0.0
C386 C 0.17538 0.29179 0.74932 0.0
C387 C 0.18675 0.29394 0.74081 0.0
C388 C 0.2322 0.31107 0.71915 0.0
C389 C 0.23021 0.31989 0.73045 0.0
C390 C 0.23884 0.3312 0.73255 0.0
C391 C 0.24963 0.33402 0.72337 0.0
C392 C 0.2516 0.32526 0.71204 0.0
C393 C 0.24301 0.31392 0.70997 0.0
C394 C 0.22015 0.26926 0.69299 0.0
C395 C 0.23055 0.27211 0.68334 0.0
C396 C 0.76166 0.17374 0.73402 0.0
C397 C 0.75091 0.17079 0.72482 0.0
C398 C 0.74922 0.1792 0.7132 0.0
C399 C 0.75814 0.19021 0.71076 0.0
H400 H 0.76248 0.22627 0.68796 0.0
H401 H 0.75897 0.24114 0.66808 0.0
H402 H 0.80089 0.25538 0.67124 0.0
H403 H 0.80446 0.24054 0.69115 0.0
H404 H 0.82049 0.23469 0.71919 0.0
H405 H 0.84033 0.23802 0.73408 0.0
H406 H 0.82459 0.20722 0.76193 0.0
H407 H 0.80493 0.20362 0.74691 0.0
H408 H 0.77879 0.18663 0.73889 0.0
H409 H 0.76313 0.16761 0.74319 0.0
H410 H 0.74115 0.17713 0.7058 0.0
H411 H 0.75659 0.19636 0.70162 0.0
N412 N 0.77686 0.21286 0.70606 0.0
N413 N 0.79698 0.22497 0.71158 0.0
N414 N 0.78984 0.20653 0.72534 0.0
C415 C 0.78591 0.22313 0.70324 0.0
C416 C 0.799 0.21675 0.72269 0.0
C417 C 0.77876 0.20448 0.71707 0.0
C418 C 0.78376 0.23219 0.69117 0.0
C419 C 0.77097 0.23255 0.68443 0.0
C420 C 0.76892 0.24112 0.67309 0.0
C421 C 0.77966 0.24941 0.66812 0.0
C422 C 0.79246 0.24901 0.67479 0.0
C423 C 0.79447 0.24057 0.68624 0.0
C424 C 0.81107 0.21887 0.73181 0.0
C425 C 0.82123 0.22861 0.72848 0.0
C426 C 0.8326 0.23058 0.73707 0.0
C427 C 0.83407 0.2229 0.74922 0.0
C428 C 0.8239 0.21318 0.75255 0.0
C429 C 0.81256 0.21117 0.74395 0.0
C430 C 0.76901 0.19306 0.71988 0.0
C431 C 0.77061 0.18473 0.73158 0.0
C432 C 0.49913 0.53894 0.57273 0.0
C433 C 0.50084 0.52739 0.58123 0.0
C434 C 0.5116 0.51819 0.57835 0.0
C435 C 0.52048 0.52053 0.5673 0.0
H436 H 0.55291 0.50342 0.54591 0.0
H437 H 0.57262 0.48838 0.54233 0.0
H438 H 0.59044 0.51819 0.51471 0.0
H439 H 0.57078 0.53329 0.51827 0.0
H440 H 0.55132 0.55682 0.50669 0.0
H441 H 0.54763 0.57642 0.49161 0.0
H442 H 0.51105 0.58707 0.51435 0.0
H443 H 0.51455 0.56735 0.52932 0.0
H444 H 0.50641 0.55036 0.55544 0.0
H445 H 0.49107 0.54633 0.57476 0.0
H446 H 0.51309 0.50908 0.58456 0.0
H447 H 0.52865 0.51322 0.56543 0.0
N448 N 0.53932 0.52633 0.54505 0.0
N449 N 0.54628 0.53989 0.52639 0.0
N450 N 0.52656 0.5458 0.53889 0.0
C451 C 0.5483 0.52881 0.53465 0.0
C452 C 0.53541 0.54842 0.5284 0.0
C453 C 0.52844 0.53479 0.54728 0.0
C454 C 0.56023 0.51959 0.53239 0.0
C455 C 0.56101 0.5068 0.53908 0.0
C456 C 0.57227 0.49813 0.53697 0.0
C457 C 0.58307 0.50212 0.52825 0.0
C458 C 0.58232 0.5149 0.52159 0.0
C459 C 0.57101 0.52351 0.52358 0.0
C460 C 0.53324 0.56044 0.51926 0.0
C461 C 0.54247 0.56331 0.50851 0.0
C462 C 0.54041 0.57461 0.49988 0.0
C463 C 0.52905 0.58332 0.50177 0.0
C464 C 0.51981 0.58047 0.51251 0.0
C465 C 0.52188 0.56918 0.52115 0.0
C466 C 0.51883 0.53214 0.55885 0.0
C467 C 0.508 0.54129 0.56167 0.0
C468 C 0.53757 0.4297 0.00405 0.0
C469 C 0.52755 0.41977 0.00089 0.0
C470 C 0.51968 0.42138 0.98889 0.0
C471 C 0.5218 0.43263 0.98021 0.0
H472 H 0.5037 0.45451 0.94862 0.0
H473 H 0.48861 0.45829 0.92898 0.0
H474 H 0.51654 0.48905 0.91338 0.0
H475 H 0.53173 0.48526 0.93292 0.0
H476 H 0.55589 0.49565 0.95188 0.0
H477 H 0.57568 0.51053 0.95553 0.0
H478 H 0.58638 0.48748 0.99192 0.0
H479 H 0.56675 0.47241 0.98817 0.0
H480 H 0.54765 0.44829 0.99806 0.0
H481 H 0.5439 0.42868 0.01316 0.0
H482 H 0.51177 0.41398 0.98626 0.0
H483 H 0.51555 0.4335 0.97104 0.0
N484 N 0.52594 0.45656 0.96302 0.0
N485 N 0.53917 0.47564 0.95653 0.0
N486 N 0.54525 0.46285 0.97602 0.0
C487 C 0.52824 0.46721 0.95428 0.0
C488 C 0.54772 0.47355 0.96738 0.0
C489 C 0.5344 0.4543 0.97391 0.0
C490 C 0.51897 0.46957 0.94238 0.0
C491 C 0.50666 0.46209 0.94102 0.0
C492 C 0.49795 0.4643 0.9298 0.0
C493 C 0.50139 0.47396 0.91963 0.0
C494 C 0.51368 0.48143 0.92097 0.0
C495 C 0.52235 0.4793 0.93224 0.0
C496 C 0.55968 0.48277 0.96971 0.0
C497 C 0.56243 0.49372 0.96067 0.0
C498 C 0.57375 0.50233 0.96281 0.0
C499 C 0.58262 0.5002 0.97402 0.0
C500 C 0.57986 0.48929 0.98308 0.0
C501 C 0.56853 0.48069 0.98096 0.0
C502 C 0.53193 0.4425 0.98328 0.0
C503 C 0.53977 0.4409 0.99533 0.0
C504 C 0.73528 0.24277 0.32764 0.0
C505 C 0.72463 0.251 0.33283 0.0
C506 C 0.7117 0.25057 0.32641 0.0
C507 C 0.70947 0.24211 0.315 0.0
H508 H 0.68552 0.23912 0.27965 0.0
H509 H 0.66593 0.2429 0.26457 0.0
H510 H 0.67572 0.20571 0.24237 0.0
H511 H 0.69551 0.20208 0.2572 0.0
H512 H 0.72325 0.18684 0.26326 0.0
H513 H 0.73865 0.16762 0.25901 0.0
H514 H 0.76202 0.17832 0.29524 0.0
H515 H 0.74683 0.19773 0.29937 0.0
H516 H 0.74143 0.22788 0.31266 0.0
H517 H 0.74532 0.24283 0.33245 0.0
H518 H 0.70334 0.25689 0.33014 0.0
H519 H 0.69938 0.24202 0.3103 0.0
N520 N 0.70657 0.22648 0.28966 0.0
N521 N 0.71311 0.20759 0.27621 0.0
N522 N 0.72644 0.21406 0.29523 0.0
C523 C 0.70424 0.21806 0.27874 0.0
C524 C 0.72424 0.20549 0.2844 0.0
C525 C 0.71765 0.22456 0.29794 0.0
C526 C 0.69216 0.22029 0.26966 0.0
C527 C 0.68353 0.23173 0.27156 0.0
C528 C 0.67222 0.23386 0.26295 0.0
C529 C 0.66923 0.22461 0.25224 0.0
C530 C 0.67783 0.21316 0.25037 0.0
C531 C 0.68916 0.21104 0.25895 0.0
C532 C 0.73375 0.19388 0.28168 0.0
C533 C 0.73168 0.18515 0.27032 0.0
C534 C 0.74048 0.17406 0.26791 0.0
C535 C 0.75156 0.17139 0.2768 0.0
C536 C 0.75369 0.18017 0.28809 0.0
C537 C 0.74491 0.19127 0.2905 0.0
C538 C 0.72008 0.23374 0.30988 0.0
C539 C 0.73301 0.23415 0.31635 0.0
C540 C 0.48474 0.07814 0.99075 0.0
C541 C 0.47587 0.08061 0.00188 0.0
C542 C 0.46471 0.07167 0.00398 0.0
C543 C 0.46239 0.0606 0.9951 0.0
H544 H 0.43701 0.02747 0.989 0.0
H545 H 0.41725 0.01247 0.99244 0.0
H546 H 0.42602 0.99192 0.95408 0.0
H547 H 0.44568 0.007 0.95048 0.0
H548 H 0.47058 0.01685 0.93234 0.0
H549 H 0.48571 0.01328 0.91271 0.0
H550 H 0.51453 0.0426 0.9295 0.0
H551 H 0.49948 0.04617 0.94921 0.0
H552 H 0.48949 0.06553 0.97339 0.0
H553 H 0.49354 0.08472 0.98894 0.0
H554 H 0.45758 0.07336 0.01237 0.0
H555 H 0.45362 0.05401 0.997 0.0
N556 N 0.45761 0.03814 0.97617 0.0
N557 N 0.46351 0.02571 0.95638 0.0
N558 N 0.47701 0.04444 0.96334 0.0
C559 C 0.455 0.02767 0.96729 0.0
C560 C 0.47455 0.03403 0.95435 0.0
C561 C 0.46858 0.0466 0.97427 0.0
C562 C 0.44298 0.01849 0.96945 0.0
C563 C 0.43475 0.01977 0.98127 0.0
C564 C 0.42345 0.01112 0.9833 0.0
C565 C 0.42006 0.001 0.97354 0.0
C566 C 0.42826 0.99972 0.96172 0.0
C567 C 0.4396 0.00833 0.95971 0.0
C568 C 0.48378 0.03181 0.9424 0.0
C569 C 0.48014 0.02254 0.93189 0.0
C570 C 0.48877 0.02054 0.92058 0.0
C571 C 0.5013 0.02767 0.91956 0.0
C572 C 0.505 0.03687 0.93007 0.0
C573 C 0.49632 0.03896 0.94133 0.0
C574 C 0.4712 0.05818 0.98389 0.0
C575 C 0.48244 0.06707 0.98186 0.0
Li576 Li 0.26437 0.88405 1.00001 0.0
Li577 Li 0.25321 0.86675 0.01466 0.0
Li578 Li 0.24935 0.86675 0.98894 0.0
Li579 Li 0.23862 0.884 0.00401 0.0
C580 C 0.27962 0.86014 0.99547 0.0
N581 N 0.30586 0.85304 0.98728 0.0
C582 C 0.28896 0.85481 0.00499 0.0
C583 C 0.28355 0.86162 0.98174 0.0
C584 C 0.3022 0.85135 1.00066 0.0
C585 C 0.29688 0.85804 0.97781 0.0
C586 C 0.25639 0.88884 0.03104 0.0
C587 C 0.2487 0.88858 0.05461 0.0
N588 N 0.26159 0.89198 0.0588 0.0
C589 C 0.26953 0.89249 0.03557 0.0
C590 C 0.24585 0.88701 0.04062 0.0
C591 C 0.27197 0.89398 0.04965 0.0
C592 C 0.27882 0.90726 0.99032 0.0
N593 N 0.28022 0.89542 0.9976 0.0
C594 C 0.30402 0.9002 0.00152 0.0
C595 C 0.29247 0.89185 0.00329 0.0
C596 C 0.30295 0.91239 0.99386 0.0
C597 C 0.29011 0.9159 0.98825 0.0
H598 H 0.2689 0.91005 0.98618 0.0
H599 H 0.29326 0.8826 0.00936 0.0
C600 C 0.24592 0.84586 0.03358 0.0
N601 N 0.25569 0.85536 0.03048 0.0
C602 C 0.24744 0.83738 0.04506 0.0
C603 C 0.26913 0.84849 0.04987 0.0
C604 C 0.26719 0.85674 0.03829 0.0
C605 C 0.25917 0.83863 0.0534 0.0
H606 H 0.23698 0.84477 0.02708 0.0
H607 H 0.27491 0.86424 0.03552 0.0
C608 C 0.24837 0.89092 0.97321 0.0
N609 N 0.24692 0.89866 0.94591 0.0
C610 C 0.23598 0.89565 0.96768 0.0
C611 C 0.26007 0.89039 0.96491 0.0
C612 C 0.23544 0.89944 0.95384 0.0
C613 C 0.25912 0.89428 0.95112 0.0
C614 C 0.22215 0.86161 0.00586 0.0
C615 C 0.21408 0.85693 0.99492 0.0
C616 C 0.21604 0.86418 0.0186 0.0
C617 C 0.19996 0.85514 0.99685 0.0
C618 C 0.20189 0.86229 0.02012 0.0
N619 N 0.19421 0.85786 0.0093 0.0
C620 C 0.25449 0.84388 0.97171 0.0
C621 C 0.23735 0.85899 0.96336 0.0
C622 C 0.25295 0.83541 0.96021 0.0
N623 N 0.24685 0.8555 0.97299 0.0
C624 C 0.23543 0.85079 0.95172 0.0
C625 C 0.24332 0.83883 0.95 0.0
H626 H 0.26173 0.84113 0.97967 0.0
H627 H 0.23109 0.86802 0.96479 0.0
C628 C 0.22351 0.90578 0.01583 0.0
N629 N 0.22287 0.89547 0.00641 0.0
C630 C 0.21225 0.91444 0.01786 0.0
C631 C 0.19987 0.90174 1.00044 0.0
C632 C 0.2114 0.89341 0.99867 0.0
C633 C 0.2002 0.91245 0.01013 0.0
H634 H 0.23279 0.90733 0.02173 0.0
H635 H 0.21124 0.88535 0.99103 0.0
O636 O 0.26663 0.86366 0.99957 0.0
O637 O 0.25385 0.88718 0.0173 0.0
O638 O 0.24907 0.88714 0.98675 0.0
O639 O 0.23598 0.86356 0.00411 0.0
H640 H 0.28606 0.85342 0.01562 0.0
H641 H 0.27635 0.86534 0.97417 0.0
H642 H 0.30957 0.84731 0.00794 0.0
H643 H 0.30006 0.85918 0.96722 0.0
H644 H 0.24064 0.88711 0.06213 0.0
H645 H 0.27779 0.89407 0.02831 0.0
H646 H 0.23558 0.88442 0.03729 0.0
H647 H 0.28212 0.8967 0.0533 0.0
H648 H 0.31372 0.89707 0.00599 0.0
H649 H 0.28875 0.92533 0.9825 0.0
H650 H 0.23961 0.82976 0.04724 0.0
H651 H 0.27828 0.84992 0.05606 0.0
H652 H 0.22686 0.8963 0.97397 0.0
H653 H 0.26984 0.88719 0.96909 0.0
H654 H 0.22589 0.903 0.94941 0.0
H655 H 0.2681 0.89388 0.94458 0.0
H656 H 0.21864 0.85474 0.98504 0.0
H657 H 0.22215 0.86761 0.02722 0.0
H658 H 0.19359 0.8516 0.98846 0.0
H659 H 0.19702 0.86432 0.0299 0.0
H660 H 0.25906 0.82614 0.95944 0.0
H661 H 0.22791 0.85385 0.94411 0.0
H662 H 0.21291 0.92253 0.02549 0.0
H663 H 0.19087 0.89999 0.99412 0.0
Li664 Li 0.11648 0.50276 0.26407 0.0
Li665 Li 0.13479 0.48856 0.25357 0.0
Li666 Li 0.13413 0.5134 0.24973 0.0
Li667 Li 0.11686 0.49799 0.23971 0.0
C668 C 0.13984 0.51282 0.2775 0.0
N669 N 0.14614 0.53151 0.29795 0.0
C670 C 0.15073 0.51027 0.28651 0.0
C671 C 0.13217 0.52488 0.27887 0.0
C672 C 0.15374 0.51985 0.29679 0.0
C673 C 0.13551 0.5342 0.28927 0.0
C674 C 0.10371 0.4773 0.25065 0.0
C675 C 0.09374 0.45871 0.23759 0.0
N676 N 0.08097 0.46326 0.24096 0.0
C677 C 0.09049 0.48173 0.25408 0.0
C678 C 0.10537 0.46564 0.24243 0.0
C679 C 0.07912 0.47452 0.24905 0.0
C680 C 0.09383 0.51291 0.2792 0.0
N681 N 0.1054 0.50514 0.27999 0.0
C682 C 0.10131 0.50062 0.30379 0.0
C683 C 0.10927 0.49903 0.29194 0.0
C684 C 0.08922 0.50851 0.30328 0.0
C685 C 0.08553 0.51471 0.29077 0.0
H686 H 0.09101 0.51762 0.26955 0.0
H687 H 0.11853 0.49291 0.29224 0.0
C688 C 0.16056 0.47513 0.25479 0.0
N689 N 0.14682 0.47346 0.25667 0.0
C690 C 0.1695 0.46404 0.25657 0.0
C691 C 0.15002 0.44988 0.26269 0.0
C692 C 0.14145 0.4612 0.26064 0.0
C693 C 0.16427 0.45116 0.26056 0.0
H694 H 0.16455 0.48503 0.25168 0.0
H695 H 0.13049 0.46022 0.26223 0.0
C696 C 0.1104 0.52588 0.23944 0.0
N697 N 0.1037 0.54562 0.22015 0.0
C698 C 0.11733 0.52636 0.22685 0.0
C699 C 0.10006 0.53546 0.24219 0.0
C700 C 0.11379 0.53641 0.21724 0.0
C701 C 0.09683 0.54535 0.23231 0.0
C702 C 0.14572 0.49141 0.22785 0.0
C703 C 0.15715 0.49789 0.22204 0.0
C704 C 0.1435 0.47742 0.2254 0.0
C705 C 0.1663 0.49021 0.21409 0.0
C706 C 0.1529 0.47009 0.21741 0.0
N707 N 0.16402 0.47658 0.21198 0.0
C708 C 0.15926 0.5273 0.24645 0.0
C709 C 0.14016 0.54223 0.24843 0.0
C710 C 0.16816 0.53849 0.24498 0.0
N711 N 0.14552 0.52934 0.24785 0.0
C712 C 0.14867 0.5537 0.24703 0.0
C713 C 0.16288 0.55193 0.24515 0.0
H714 H 0.16331 0.51696 0.24649 0.0
H715 H 0.12929 0.54366 0.25013 0.0
C716 C 0.09196 0.4999 0.2249 0.0
N717 N 0.10506 0.49511 0.22415 0.0
C718 C 0.08295 0.4982 0.21384 0.0
C719 C 0.10108 0.4867 0.2014 0.0
C720 C 0.10974 0.48865 0.21269 0.0
C721 C 0.08748 0.49153 0.20185 0.0
H722 H 0.0885 0.50508 0.23411 0.0
H723 H 0.12018 0.48502 0.21225 0.0
O724 O 0.13684 0.50355 0.26735 0.0
O725 O 0.11494 0.48447 0.25518 0.0
O726 O 0.11357 0.51609 0.24903 0.0
O727 O 0.13675 0.49875 0.23583 0.0
H728 H 0.15678 0.50098 0.28556 0.0
H729 H 0.12373 0.52705 0.27197 0.0
H730 H 0.16214 0.51801 0.30385 0.0
H731 H 0.12966 0.54357 0.29045 0.0
H732 H 0.09488 0.44971 0.23115 0.0
H733 H 0.089 0.49076 0.26038 0.0
H734 H 0.1155 0.46197 0.23978 0.0
H735 H 0.06883 0.4779 0.25153 0.0
H736 H 0.10446 0.49555 0.31317 0.0
H737 H 0.07639 0.521 0.28995 0.0
H738 H 0.18035 0.46552 0.25462 0.0
H739 H 0.14551 0.44027 0.26604 0.0
H740 H 0.12536 0.51908 0.22447 0.0
H741 H 0.0946 0.53526 0.25187 0.0
H742 H 0.11907 0.53689 0.20747 0.0
H743 H 0.08885 0.55283 0.23432 0.0
H744 H 0.15888 0.50877 0.22353 0.0
H745 H 0.13469 0.47226 0.22974 0.0
H746 H 0.17521 0.4951 0.20956 0.0
H747 H 0.15135 0.45923 0.21555 0.0
H748 H 0.17903 0.5366 0.24354 0.0
H749 H 0.14418 0.56387 0.24761 0.0
H750 H 0.07263 0.50227 0.2146 0.0
H751 H 0.10499 0.48135 0.19246 0.0
Li752 Li 0.73898 0.61678 0.99863 0.0
Li753 Li 0.74989 0.63412 0.0126 0.0
Li754 Li 0.75283 0.63423 0.98783 0.0
Li755 Li 0.76374 0.61679 0.0016 0.0
C756 C 0.72518 0.64026 0.98949 0.0
N757 N 0.70425 0.64704 0.97153 0.0
C758 C 0.71673 0.65154 0.99221 0.0
C759 C 0.72297 0.63241 0.97765 0.0
C760 C 0.70621 0.6548 0.983 0.0
C761 C 0.71234 0.63601 0.9687 0.0
C762 C 0.74059 0.61056 0.02625 0.0
C763 C 0.73395 0.5958 0.04502 0.0
N764 N 0.72258 0.60366 0.0471 0.0
C765 C 0.72885 0.6185 0.02858 0.0
C766 C 0.74318 0.59913 0.03454 0.0
C767 C 0.71987 0.61483 0.03916 0.0
C768 C 0.72499 0.59249 0.99134 0.0
N769 N 0.72321 0.60524 0.99674 0.0
C770 C 0.69906 0.60135 0.99904 0.0
C771 C 0.71057 0.60977 1.00061 0.0
C772 C 0.70053 0.58813 0.99339 0.0
C773 C 0.71374 0.58372 0.98954 0.0
H774 H 0.73516 0.58916 0.98835 0.0
H775 H 0.70941 0.61996 0.0049 0.0
C776 C 0.74308 0.6585 0.0266 0.0
N777 N 0.74812 0.64561 0.02841 0.0
C778 C 0.74142 0.66728 0.03786 0.0
C779 C 0.75027 0.64937 0.0526 0.0
C780 C 0.75175 0.64095 0.04108 0.0
C781 C 0.74501 0.66273 0.0511 0.0
H782 H 0.7403 0.66194 0.01641 0.0
H783 H 0.75578 0.63067 0.04225 0.0
C784 C 0.76216 0.6109 0.97392 0.0
N785 N 0.78023 0.6044 0.953 0.0
C786 C 0.77397 0.61884 0.97184 0.0
C787 C 0.75955 0.59967 0.96534 0.0
C788 C 0.78298 0.61539 0.96121 0.0
C789 C 0.76881 0.59655 0.95482 0.0
C790 C 0.77753 0.64024 0.01101 0.0
C791 C 0.78597 0.65157 0.00841 0.0
C792 C 0.77974 0.63231 0.02278 0.0
C793 C 0.79649 0.6548 0.01765 0.0
C794 C 0.79036 0.63586 0.03177 0.0
N795 N 0.79844 0.64694 0.02904 0.0
C796 C 0.7597 0.65874 0.97406 0.0
C797 C 0.75099 0.6413 0.95943 0.0
C798 C 0.76142 0.66759 0.96289 0.0
N799 N 0.75463 0.64586 0.97214 0.0
C800 C 0.75253 0.6498 0.94797 0.0
C801 C 0.75785 0.66313 0.9496 0.0
H802 H 0.76249 0.66209 0.9843 0.0
H803 H 0.74693 0.63103 0.95815 0.0
C804 C 0.7776 0.59237 0.00844 0.0
N805 N 0.77949 0.60525 0.00341 0.0
C806 C 0.78881 0.58359 0.01025 0.0
C807 C 0.80369 0.60148 0.00153 0.0
C808 C 0.7922 0.6099 0.99989 0.0
C809 C 0.8021 0.58814 0.00683 0.0
H810 H 0.76737 0.58895 0.01113 0.0
H811 H 0.79344 0.62018 0.99586 0.0
O812 O 0.73553 0.637 0.99844 0.0
O813 O 0.74956 0.61388 0.01594 0.0
O814 O 0.75316 0.61402 0.98426 0.0
O815 O 0.76719 0.63702 0.00202 0.0
H816 H 0.71829 0.6577 0.00134 0.0
H817 H 0.72935 0.62361 0.97538 0.0
H818 H 0.69959 0.66351 0.98497 0.0
H819 H 0.71052 0.63002 0.9595 0.0
H820 H 0.73582 0.58698 0.05151 0.0
H821 H 0.72669 0.62741 0.02232 0.0
H822 H 0.75224 0.5929 0.03289 0.0
H823 H 0.71075 0.62088 0.04107 0.0
H824 H 0.68913 0.60511 0.00235 0.0
H825 H 0.71536 0.5737 0.98499 0.0
H826 H 0.73718 0.67743 0.03623 0.0
H827 H 0.75335 0.64549 0.06257 0.0
H828 H 0.77616 0.6276 0.97831 0.0
H829 H 0.75044 0.59344 0.96679 0.0
H830 H 0.79214 0.62144 0.95949 0.0
H831 H 0.76691 0.58788 0.94811 0.0
H832 H 0.78441 0.6578 0.99933 0.0
H833 H 0.77336 0.62347 0.02495 0.0
H834 H 0.8031 0.66354 0.01576 0.0
H835 H 0.79217 0.62981 0.04091 0.0
H836 H 0.7657 0.67772 0.96462 0.0
H837 H 0.74945 0.64599 0.93797 0.0
H838 H 0.78711 0.57345 0.01451 0.0
H839 H 0.8137 0.60535 0.99856 0.0
Li840 Li 0.867 0.01469 0.25155 0.0
Li841 Li 0.88408 0.99979 0.26271 0.0
Li842 Li 0.88399 0.00363 0.23697 0.0
Li843 Li 0.86655 0.98893 0.24786 0.0
C844 C 0.88948 0.03067 0.25462 0.0
N845 N 0.89336 0.05833 0.2598 0.0
C846 C 0.89362 0.03508 0.26765 0.0
C847 C 0.88753 0.04031 0.24416 0.0
C848 C 0.89548 0.04912 0.27009 0.0
C849 C 0.88947 0.05425 0.247 0.0
C850 C 0.86012 0.99614 0.2782 0.0
C851 C 0.8575 0.97908 0.29599 0.0
N852 N 0.8529 0.98898 0.30472 0.0
C853 C 0.85519 0.00611 0.28729 0.0
C854 C 0.86113 0.98249 0.28253 0.0
C855 C 0.85167 0.0023 0.30068 0.0
C856 C 0.84606 0.03347 0.24435 0.0
N857 N 0.85586 0.03068 0.25391 0.0
C858 C 0.84958 0.05064 0.26681 0.0
C859 C 0.85767 0.03892 0.26506 0.0
C860 C 0.83941 0.05382 0.25707 0.0
C861 C 0.83769 0.04504 0.24572 0.0
H862 H 0.84469 0.02667 0.23567 0.0
H863 H 0.86534 0.03635 0.27266 0.0
C864 C 0.90715 0.98972 0.27708 0.0
N865 N 0.89549 0.99726 0.27851 0.0
C866 C 0.9158 0.98753 0.28833 0.0
C867 C 0.90049 0.00122 0.30226 0.0
C868 C 0.89212 0.00311 0.29075 0.0
C869 C 0.9125 0.9933 0.30115 0.0
H870 H 0.90978 0.98545 0.26716 0.0
H871 H 0.88303 0.0094 0.29156 0.0
C872 C 0.86169 0.00577 0.22056 0.0
N873 N 0.85813 0.00915 0.19258 0.0
C874 C 0.85706 0.99482 0.21249 0.0
C875 C 0.86429 0.0185 0.21444 0.0
C876 C 0.85537 0.99672 0.19835 0.0
C877 C 0.8625 0.01998 0.20027 0.0
C878 C 0.89029 0.97273 0.24706 0.0
C879 C 0.895 0.96685 0.23483 0.0
C880 C 0.88934 0.96466 0.2589 0.0
C881 C 0.89837 0.95289 0.23457 0.0
C882 C 0.89282 0.95075 0.25823 0.0
N883 N 0.8972 0.9452 0.24618 0.0
C884 C 0.90555 0.01534 0.22144 0.0
C885 C 0.89334 0.99771 0.20986 0.0
C886 C 0.9141 0.01721 0.21006 0.0
N887 N 0.89537 0.00576 0.22111 0.0
C888 C 0.90159 0.99929 0.19822 0.0
C889 C 0.91215 0.00914 0.19823 0.0
H890 H 0.90707 0.0215 0.23056 0.0
H891 H 0.88536 0.98997 0.20994 0.0
C892 C 0.84342 0.97215 0.25327 0.0
N893 N 0.85502 0.97317 0.24554 0.0
C894 C 0.83473 0.9608 0.25187 0.0
C895 C 0.84988 0.95189 0.23434 0.0
C896 C 0.85828 0.9634 0.2361 0.0
C897 C 0.83792 0.95044 0.24231 0.0
H898 H 0.84089 0.98018 0.26052 0.0
H899 H 0.86727 0.96466 0.22973 0.0
O900 O 0.88747 0.01697 0.25209 0.0
O901 O 0.8637 0.99972 0.26506 0.0
O902 O 0.86354 0.00406 0.23441 0.0
O903 O 0.88689 0.98638 0.24747 0.0
H904 H 0.89531 0.02777 0.27583 0.0
H905 H 0.88455 0.03707 0.23396 0.0
H906 H 0.89859 0.05268 0.28015 0.0
H907 H 0.88792 0.06183 0.23902 0.0
H908 H 0.85828 0.96856 0.29948 0.0
H909 H 0.85417 0.01669 0.28409 0.0
H910 H 0.86452 0.97458 0.27553 0.0
H911 H 0.84793 0.00993 0.30785 0.0
H912 H 0.8511 0.05698 0.27584 0.0
H913 H 0.83004 0.04715 0.23792 0.0
H914 H 0.92509 0.98157 0.28693 0.0
H915 H 0.89751 0.00583 0.31195 0.0
H916 H 0.85485 0.98495 0.21706 0.0
H917 H 0.86767 0.02713 0.22056 0.0
H918 H 0.85188 0.9883 0.19196 0.0
H919 H 0.86457 0.02976 0.19539 0.0
H920 H 0.89597 0.97295 0.22561 0.0
H921 H 0.88613 0.96911 0.26854 0.0
H922 H 0.90192 0.94819 0.22515 0.0
H923 H 0.89209 0.94439 0.26732 0.0
H924 H 0.92207 0.02499 0.21047 0.0
H925 H 0.89986 0.99271 0.18941 0.0
H926 H 0.82567 0.96009 0.25829 0.0
H927 H 0.85258 0.94434 0.22662 0.0
Li928 Li 0.24841 0.13513 0.51385 0.0
Li929 Li 0.23745 0.11788 0.49897 0.0
Li930 Li 0.26316 0.11766 0.50271 0.0
Li931 Li 0.25197 0.13495 0.4881 0.0
C932 C 0.24812 0.11089 0.5297 0.0
N933 N 0.24837 0.10297 0.55698 0.0
C934 C 0.23616 0.10588 0.53588 0.0
C935 C 0.26027 0.11162 0.53733 0.0
C936 C 0.23647 0.10201 0.5497 0.0
C937 C 0.26017 0.10763 0.55112 0.0
C938 C 0.22097 0.1399 0.49746 0.0
C939 C 0.20032 0.13876 0.48378 0.0
N940 N 0.19285 0.14285 0.49486 0.0
C941 C 0.21311 0.14422 0.50867 0.0
C942 C 0.21456 0.13727 0.48487 0.0
C943 C 0.1989 0.14561 0.50717 0.0
C944 C 0.25349 0.15841 0.53049 0.0
N945 N 0.2462 0.1465 0.52973 0.0
C946 C 0.23565 0.15112 0.55144 0.0
C947 C 0.23728 0.14283 0.53984 0.0
C948 C 0.24321 0.16339 0.55263 0.0
C949 C 0.25221 0.167 0.54193 0.0
H950 H 0.26032 0.16124 0.5222 0.0
H951 H 0.23122 0.13359 0.53879 0.0
C952 C 0.22145 0.09699 0.4866 0.0
N953 N 0.22154 0.10655 0.49678 0.0
C954 C 0.20998 0.08857 0.48463 0.0
C955 C 0.19891 0.09992 0.50374 0.0
C956 C 0.21062 0.10807 0.50537 0.0
C957 C 0.19847 0.08999 0.49324 0.0
H958 H 0.23034 0.09582 0.48005 0.0
H959 H 0.21098 0.11566 0.51348 0.0
C960 C 0.27853 0.14186 0.507 0.0
N961 N 0.30468 0.14966 0.51497 0.0
C962 C 0.2878 0.14706 0.49733 0.0
C963 C 0.2825 0.14088 0.52077 0.0
C964 C 0.30099 0.15088 0.50154 0.0
C965 C 0.29577 0.14481 0.52459 0.0
C966 C 0.25524 0.11296 0.47182 0.0
C967 C 0.26834 0.10895 0.46752 0.0
C968 C 0.24499 0.11532 0.46204 0.0
C969 C 0.27103 0.10761 0.45348 0.0
C970 C 0.24809 0.11389 0.44809 0.0
N971 N 0.26094 0.11011 0.44414 0.0
C972 C 0.27724 0.09409 0.51191 0.0
C973 C 0.29132 0.10985 0.49981 0.0
C974 C 0.28842 0.08535 0.51402 0.0
N975 N 0.2789 0.10616 0.50507 0.0
C976 C 0.30277 0.1014 0.50164 0.0
C977 C 0.30142 0.08899 0.50889 0.0
H978 H 0.2672 0.09123 0.51572 0.0
H979 H 0.29232 0.11927 0.49405 0.0
C980 C 0.24445 0.15569 0.46919 0.0
N981 N 0.2543 0.14627 0.47221 0.0
C982 C 0.24575 0.16409 0.45762 0.0
C983 C 0.26737 0.15301 0.45251 0.0
C984 C 0.26567 0.14487 0.46421 0.0
C985 C 0.25733 0.16279 0.44908 0.0
H986 H 0.23557 0.15672 0.47578 0.0
H987 H 0.27346 0.13745 0.46694 0.0
O988 O 0.24797 0.11477 0.51617 0.0
O989 O 0.23489 0.13833 0.49879 0.0
O990 O 0.26558 0.13803 0.50302 0.0
O991 O 0.25246 0.11449 0.48552 0.0
H992 H 0.22671 0.10507 0.53011 0.0
H993 H 0.26972 0.11504 0.53263 0.0
H994 H 0.22726 0.09821 0.55464 0.0
H995 H 0.2695 0.10819 0.55715 0.0
H996 H 0.19522 0.13667 0.47412 0.0
H997 H 0.2179 0.14643 0.51845 0.0
H998 H 0.2205 0.13407 0.47606 0.0
H999 H 0.19268 0.14887 0.51578 0.0
H1000 H 0.22835 0.14808 0.55927 0.0
H1001 H 0.25832 0.1763 0.54242 0.0
H1002 H 0.21022 0.08089 0.47657 0.0
H1003 H 0.19025 0.10149 0.51055 0.0
H1004 H 0.28487 0.14807 0.48666 0.0
H1005 H 0.27536 0.13731 0.52847 0.0
H1006 H 0.30829 0.15481 0.49414 0.0
H1007 H 0.29898 0.14407 0.53521 0.0
H1008 H 0.27637 0.10696 0.47494 0.0
H1009 H 0.23476 0.11827 0.46518 0.0
H1010 H 0.28115 0.10459 0.45001 0.0
H1011 H 0.24027 0.11578 0.44041 0.0
H1012 H 0.28685 0.07576 0.51944 0.0
H1013 H 0.3126 0.10464 0.49753 0.0
H1014 H 0.23771 0.17142 0.4553 0.0
H1015 H 0.27655 0.1518 0.44635 0.0
Li1016 Li 0.3851 0.49952 0.76355 0.0
Li1017 Li 0.36788 0.5148 0.75295 0.0
Li1018 Li 0.36749 0.48914 0.74945 0.0
Li1019 Li 0.3849 0.50319 0.73785 0.0
C1020 C 0.36345 0.49947 0.78056 0.0
N1021 N 0.36117 0.49883 0.80885 0.0
C1022 C 0.3599 0.51137 0.78779 0.0
C1023 C 0.3657 0.48722 0.78769 0.0
C1024 C 0.35883 0.51083 0.8021 0.0
C1025 C 0.36455 0.48711 0.80201 0.0
C1026 C 0.39394 0.52948 0.75195 0.0
C1027 C 0.39945 0.54971 0.73872 0.0
N1028 N 0.40546 0.55538 0.75 0.0
C1029 C 0.40028 0.53546 0.76338 0.0
C1030 C 0.3936 0.53662 0.73949 0.0
C1031 C 0.40601 0.54858 0.7622 0.0
C1032 C 0.40587 0.4867 0.77935 0.0
N1033 N 0.39671 0.49724 0.77923 0.0
C1034 C 0.40404 0.50443 0.80157 0.0
C1035 C 0.39577 0.50614 0.78997 0.0
C1036 C 0.41355 0.4936 0.80202 0.0
C1037 C 0.41446 0.4847 0.79068 0.0
H1038 H 0.40652 0.47985 0.77062 0.0
H1039 H 0.3886 0.5146 0.78953 0.0
C1040 C 0.3428 0.52875 0.75326 0.0
N1041 N 0.35649 0.5306 0.75538 0.0
C1042 C 0.33366 0.53968 0.75497 0.0
C1043 C 0.35287 0.55427 0.76089 0.0
C1044 C 0.36161 0.54303 0.75922 0.0
C1045 C 0.33865 0.5527 0.75882 0.0
H1046 H 0.33899 0.51872 0.75033 0.0
H1047 H 0.37246 0.54429 0.76105 0.0
C1048 C 0.38853 0.47223 0.74577 0.0
N1049 N 0.38951 0.44443 0.7401 0.0
C1050 C 0.39194 0.46768 0.73258 0.0
C1051 C 0.38578 0.46266 0.75612 0.0
C1052 C 0.39235 0.45357 0.72991 0.0
C1053 C 0.38627 0.44864 0.75303 0.0
C1054 C 0.35978 0.50945 0.72379 0.0
C1055 C 0.35343 0.50097 0.71407 0.0
C1056 C 0.36091 0.52354 0.72127 0.0
C1057 C 0.34859 0.50671 0.70183 0.0
C1058 C 0.35592 0.52889 0.70891 0.0
N1059 N 0.34993 0.52043 0.69952 0.0
C1060 C 0.34698 0.46994 0.75729 0.0
C1061 C 0.35626 0.46647 0.73505 0.0
C1062 C 0.33834 0.45857 0.75571 0.0
N1063 N 0.35575 0.47361 0.74706 0.0
C1064 C 0.34789 0.45498 0.73306 0.0
C1065 C 0.33873 0.45088 0.74346 0.0
H1066 H 0.34663 0.4759 0.76666 0.0
H1067 H 0.36324 0.46968 0.72703 0.0
C1068 C 0.40903 0.51013 0.72342 0.0
N1069 N 0.39612 0.50502 0.72186 0.0
C1070 C 0.41761 0.51175 0.71203 0.0
C1071 C 0.39959 0.50244 0.69767 0.0
C1072 C 0.39135 0.50102 0.70934 0.0
C1073 C 0.4129 0.50793 0.6989 0.0
H1074 H 0.41265 0.51302 0.73353 0.0
H1075 H 0.38124 0.49656 0.70842 0.0
O1076 O 0.36467 0.49983 0.76656 0.0
O1077 O 0.38827 0.51663 0.75296 0.0
O1078 O 0.38788 0.486 0.74854 0.0
O1079 O 0.36455 0.50398 0.73584 0.0
H1080 H 0.35809 0.52093 0.78243 0.0
H1081 H 0.36839 0.47791 0.78225 0.0
H1082 H 0.35616 0.51997 0.80784 0.0
H1083 H 0.36635 0.47773 0.80767 0.0
H1084 H 0.39925 0.55535 0.72914 0.0
H1085 H 0.40074 0.53006 0.77307 0.0
H1086 H 0.38902 0.53206 0.73045 0.0
H1087 H 0.41089 0.55336 0.77099 0.0
H1088 H 0.40316 0.51164 0.81002 0.0
H1089 H 0.42161 0.47618 0.79065 0.0
H1090 H 0.32278 0.53786 0.75349 0.0
H1091 H 0.35726 0.56412 0.76368 0.0
H1092 H 0.39415 0.47495 0.72448 0.0
H1093 H 0.38319 0.46602 0.76639 0.0
H1094 H 0.3949 0.44989 0.71973 0.0
H1095 H 0.38408 0.44112 0.76091 0.0
H1096 H 0.35232 0.49007 0.71591 0.0
H1097 H 0.36545 0.53032 0.7288 0.0
H1098 H 0.34374 0.50025 0.69417 0.0
H1099 H 0.35677 0.53978 0.70682 0.0
H1100 H 0.33128 0.45598 0.76391 0.0
H1101 H 0.34871 0.4493 0.72352 0.0
H1102 H 0.42775 0.51612 0.71347 0.0
H1103 H 0.39563 0.49908 0.68781 0.0
Li1104 Li 0.76306 0.38558 0.4996 0.0
Li1105 Li 0.75252 0.36746 0.51384 0.0
Li1106 Li 0.74924 0.36741 0.48903 0.0
Li1107 Li 0.73856 0.38474 0.50392 0.0
C1108 C 0.77704 0.36228 0.49034 0.0
N1109 N 0.798 0.35594 0.47228 0.0
C1110 C 0.78621 0.35168 0.49339 0.0
C1111 C 0.77851 0.36965 0.47809 0.0
C1112 C 0.79675 0.34863 0.48413 0.0
C1113 C 0.78917 0.36629 0.4691 0.0
C1114 C 0.74905 0.3991 0.524 0.0
C1115 C 0.73452 0.41032 0.54068 0.0
N1116 N 0.73906 0.42275 0.53618 0.0
C1117 C 0.75362 0.41199 0.5196 0.0
C1118 C 0.73948 0.39825 0.53469 0.0
C1119 C 0.74844 0.42382 0.52587 0.0
C1120 C 0.77843 0.40772 0.48858 0.0
N1121 N 0.77896 0.39673 0.49716 0.0
C1122 C 0.80252 0.40134 0.50238 0.0
C1123 C 0.79066 0.3934 0.50402 0.0
C1124 C 0.80231 0.41283 0.49361 0.0
C1125 C 0.79003 0.41597 0.48667 0.0
H1126 H 0.76896 0.41017 0.48335 0.0
H1127 H 0.79077 0.38453 0.51072 0.0
C1128 C 0.75772 0.34206 0.52677 0.0
N1129 N 0.75563 0.35567 0.52915 0.0
C1130 C 0.75968 0.33303 0.53776 0.0
C1131 C 0.75727 0.3522 0.55341 0.0
C1132 C 0.75549 0.36088 0.54211 0.0
C1133 C 0.75938 0.33808 0.5513 0.0
H1134 H 0.75775 0.33823 0.51633 0.0
H1135 H 0.75392 0.37175 0.54369 0.0
C1136 C 0.73869 0.39082 0.47597 0.0
N1137 N 0.71955 0.39698 0.45589 0.0
C1138 C 0.7263 0.38353 0.47528 0.0
C1139 C 0.74131 0.40125 0.46645 0.0
C1140 C 0.71677 0.3868 0.46505 0.0
C1141 C 0.73151 0.4042 0.45637 0.0
C1142 C 0.72801 0.35529 0.51118 0.0
C1143 C 0.72378 0.34284 0.50538 0.0
C1144 C 0.72492 0.35808 0.52493 0.0
C1145 C 0.7169 0.33323 0.51354 0.0
C1146 C 0.71805 0.34821 0.53277 0.0
N1147 N 0.71423 0.33607 0.52696 0.0
C1148 C 0.74726 0.342 0.47527 0.0
C1149 C 0.74844 0.36108 0.4602 0.0
C1150 C 0.746 0.33299 0.46416 0.0
N1151 N 0.74804 0.35579 0.47315 0.0
C1152 C 0.74735 0.35243 0.44879 0.0
C1153 C 0.7459 0.33821 0.4507 0.0
H1154 H 0.74767 0.33801 0.48563 0.0
H1155 H 0.74966 0.372 0.45868 0.0
C1156 C 0.72349 0.40942 0.5017 0.0
N1157 N 0.72273 0.39621 0.50619 0.0
C1158 C 0.71228 0.41824 0.5032 0.0
C1159 C 0.69964 0.39968 0.51381 0.0
C1160 C 0.71109 0.39121 0.51206 0.0
C1161 C 0.70014 0.41342 0.50937 0.0
H1162 H 0.73284 0.41311 0.49695 0.0
H1163 H 0.71065 0.38066 0.51543 0.0
O1164 O 0.76664 0.3653 0.49929 0.0
O1165 O 0.75373 0.38741 0.51771 0.0
O1166 O 0.74818 0.38794 0.48596 0.0
O1167 O 0.73492 0.36477 0.50338 0.0
H1168 H 0.78518 0.34586 0.50282 0.0
H1169 H 0.77148 0.37787 0.47553 0.0
H1170 H 0.80392 0.34044 0.48635 0.0
H1171 H 0.79043 0.37191 0.45959 0.0
H1172 H 0.72705 0.4098 0.54889 0.0
H1173 H 0.76096 0.41289 0.51134 0.0
H1174 H 0.73581 0.38841 0.53828 0.0
H1175 H 0.75184 0.43386 0.52251 0.0
H1176 H 0.81179 0.39842 0.50779 0.0
H1177 H 0.78931 0.42483 0.47998 0.0
H1178 H 0.76118 0.32219 0.53571 0.0
H1179 H 0.75714 0.35652 0.56367 0.0
H1180 H 0.72402 0.37543 0.48251 0.0
H1181 H 0.75082 0.407 0.4668 0.0
H1182 H 0.70716 0.38124 0.4644 0.0
H1183 H 0.73343 0.41224 0.44894 0.0
H1184 H 0.7256 0.34066 0.49465 0.0
H1185 H 0.72794 0.36772 0.52954 0.0
H1186 H 0.71362 0.32353 0.50918 0.0
H1187 H 0.71576 0.3502 0.54347 0.0
H1188 H 0.74524 0.32204 0.46606 0.0
H1189 H 0.74739 0.35687 0.43858 0.0
H1190 H 0.71308 0.42867 0.49942 0.0
H1191 H 0.69057 0.39554 0.51875 0.0
Li1192 Li 0.63564 0.98831 0.75357 0.0
Li1193 Li 0.61792 0.00311 0.76362 0.0
Li1194 Li 0.61833 0.99891 0.73805 0.0
Li1195 Li 0.63526 0.01393 0.74956 0.0
C1196 C 0.61101 0.97236 0.75198 0.0
N1197 N 0.60205 0.94554 0.74914 0.0
C1198 C 0.60537 0.9654 0.76321 0.0
C1199 C 0.61186 0.96576 0.73925 0.0
C1200 C 0.60097 0.95182 0.76159 0.0
C1201 C 0.60734 0.95218 0.73803 0.0
C1202 C 0.6389 0.00512 0.78087 0.0
C1203 C 0.63608 0.01897 0.80124 0.0
N1204 N 0.63975 0.00802 0.80911 0.0
C1205 C 0.64275 0.99403 0.78914 0.0
C1206 C 0.63565 0.01773 0.78694 0.0
C1207 C 0.64309 0.9957 0.8034 0.0
C1208 C 0.65988 0.97274 0.75055 0.0
N1209 N 0.64722 0.97274 0.75647 0.0
C1210 C 0.65144 0.95071 0.76649 0.0
C1211 C 0.64297 0.96211 0.76448 0.0
C1212 C 0.66447 0.95025 0.76025 0.0
C1213 C 0.66865 0.96151 0.75221 0.0
H1214 H 0.66314 0.98144 0.74446 0.0
H1215 H 0.63308 0.96256 0.76947 0.0
C1216 C 0.59708 0.01588 0.7794 0.0
N1217 N 0.60613 0.00525 0.77914 0.0
C1218 C 0.58844 0.01776 0.79072 0.0
C1219 C 0.59859 0.99771 0.80129 0.0
C1220 C 0.60692 0.99614 0.78971 0.0
C1221 C 0.58919 0.00864 0.80188 0.0
H1222 H 0.59656 0.0229 0.77082 0.0
H1223 H 0.61408 0.98768 0.78917 0.0
C1224 C 0.64429 0.9941 0.72424 0.0
N1225 N 0.65556 0.98458 0.69997 0.0
C1226 C 0.65054 0.00325 0.7151 0.0
C1227 C 0.64391 0.98008 0.72109 0.0
C1228 C 0.65614 0.99824 0.70286 0.0
C1229 C 0.64963 0.97547 0.70876 0.0
C1230 C 0.6134 0.02968 0.74444 0.0
C1231 C 0.61003 0.03288 0.73085 0.0
C1232 C 0.61532 0.04025 0.754 0.0
C1233 C 0.60879 0.04666 0.727 0.0
C1234 C 0.61402 0.05389 0.74973 0.0
N1235 N 0.61082 0.05679 0.73643 0.0
C1236 C 0.59314 0.99522 0.72482 0.0
C1237 C 0.61187 0.99565 0.70926 0.0
C1238 C 0.58388 0.99332 0.714 0.0
N1239 N 0.60684 0.9963 0.72229 0.0
C1240 C 0.603 0.99357 0.69816 0.0
C1241 C 0.58881 0.99239 0.70047 0.0
H1242 H 0.58942 0.99582 0.73528 0.0
H1243 H 0.62271 0.99682 0.70738 0.0
C1244 C 0.65532 0.03348 0.75744 0.0
N1245 N 0.64653 0.02985 0.7472 0.0
C1246 C 0.66367 0.04509 0.75608 0.0
C1247 C 0.65379 0.04901 0.73363 0.0
C1248 C 0.64571 0.03727 0.73538 0.0
C1249 C 0.66294 0.05305 0.74406 0.0
H1250 H 0.65589 0.02734 0.76667 0.0
H1251 H 0.63881 0.03406 0.72729 0.0
O1252 O 0.61532 0.98568 0.75341 0.0
O1253 O 0.6383 0.00363 0.7669 0.0
O1254 O 0.63872 0.99887 0.73625 0.0
O1255 O 0.61479 0.01626 0.74838 0.0
H1256 H 0.60448 0.97039 0.7731 0.0
H1257 H 0.61583 0.97107 0.73036 0.0
H1258 H 0.59669 0.94628 0.77022 0.0
H1259 H 0.60798 0.94694 0.72824 0.0
H1260 H 0.63348 0.02863 0.80609 0.0
H1261 H 0.64536 0.98423 0.7846 0.0
H1262 H 0.6327 0.02642 0.78068 0.0
H1263 H 0.64597 0.98718 0.80994 0.0
H1264 H 0.6479 0.94245 0.77305 0.0
H1265 H 0.67853 0.96161 0.7471 0.0
H1266 H 0.5814 0.02637 0.79081 0.0
H1267 H 0.59936 0.99035 0.80959 0.0
H1268 H 0.65103 0.01411 0.71739 0.0
H1269 H 0.63938 0.9728 0.72814 0.0
H1270 H 0.66095 0.00522 0.69567 0.0
H1271 H 0.6494 0.96465 0.7062 0.0
H1272 H 0.6085 0.02484 0.72333 0.0
H1273 H 0.61788 0.03794 0.76456 0.0
H1274 H 0.60626 0.0493 0.7165 0.0
H1275 H 0.61556 0.06218 0.75699 0.0
H1276 H 0.573 0.99241 0.71619 0.0
H1277 H 0.60717 0.9931 0.68785 0.0
H1278 H 0.67052 0.04788 0.7644 0.0
H1279 H 0.65306 0.05474 0.72411 0.0
Li1280 Li 0.01398 0.25336 0.86819 0.0
Li1281 Li 0.99888 0.2634 0.88537 0.0
Li1282 Li 0.00294 0.23846 0.88526 0.0
Li1283 Li 0.98877 0.24927 0.86732 0.0
C1284 C 0.02944 0.25052 0.89267 0.0
N1285 N 0.05598 0.24455 0.90077 0.0
C1286 C 0.0369 0.25998 0.9005 0.0
C1287 C 0.03544 0.23801 0.88901 0.0
C1288 C 0.05032 0.25678 0.90448 0.0
C1289 C 0.04887 0.23518 0.89319 0.0
C1290 C 0.00466 0.27958 0.86243 0.0
C1291 C 0.00554 0.30047 0.84913 0.0
N1292 N 0.01637 0.30485 0.85682 0.0
C1293 C 0.01579 0.2843 0.87022 0.0
C1294 C 0.99948 0.28773 0.85181 0.0
C1295 C 0.02157 0.2971 0.86722 0.0
C1296 C 0.02833 0.2525 0.84326 0.0
N1297 N 0.02971 0.25599 0.85672 0.0
C1298 C 0.05293 0.26308 0.85293 0.0
C1299 C 0.04165 0.26136 0.86161 0.0
C1300 C 0.05188 0.2595 0.83895 0.0
C1301 C 0.0393 0.2542 0.83416 0.0
H1302 H 0.01864 0.24843 0.8396 0.0
H1303 H 0.04247 0.26441 0.87224 0.0
C1304 C 0.0015 0.27859 0.90987 0.0
N1305 N 0.99602 0.27887 0.89702 0.0
C1306 C 0.99985 0.28979 0.9187 0.0
C1307 C 0.98679 0.30128 0.90097 0.0
C1308 C 0.98876 0.28989 0.89246 0.0
C1309 C 0.99241 0.30135 0.91428 0.0
H1310 H 0.00717 0.26965 0.91324 0.0
H1311 H 0.98454 0.28988 0.88218 0.0
C1312 C 0.00648 0.22344 0.85963 0.0
N1313 N 0.01156 0.19784 0.84842 0.0
C1314 C 0.99556 0.2148 0.85604 0.0
C1315 C 0.01998 0.21916 0.85725 0.0
C1316 C 0.99834 0.20186 0.85047 0.0
C1317 C 0.02234 0.20615 0.85164 0.0
C1318 C 0.97262 0.2537 0.89081 0.0
C1319 C 0.96542 0.24873 0.9022 0.0
C1320 C 0.96701 0.26431 0.88293 0.0
C1321 C 0.95269 0.25448 0.90551 0.0
C1322 C 0.95426 0.26978 0.88658 0.0
N1323 N 0.94742 0.26479 0.8977 0.0
C1324 C 0.01176 0.22368 0.90871 0.0
C1325 C 0.99895 0.21041 0.8928 0.0
C1326 C 0.01358 0.21223 0.91717 0.0
N1327 N 0.00481 0.22252 0.89664 0.0
C1328 C 1.00044 0.19871 0.90098 0.0
C1329 C 0.00795 0.1995 0.91329 0.0
H1330 H 0.01591 0.23351 0.91182 0.0
H1331 H 0.99305 0.20983 0.88343 0.0
C1332 C 0.97303 0.25333 0.8433 0.0
N1333 N 0.97347 0.24651 0.85547 0.0
C1334 C 0.96183 0.25164 0.83447 0.0
C1335 C 0.95181 0.23587 0.85086 0.0
C1336 C 0.96319 0.2379 0.85938 0.0
C1337 C 0.95102 0.2428 0.83821 0.0
H1338 H 0.98141 0.26007 0.84045 0.0
H1339 H 0.96382 0.23264 0.86915 0.0
O1340 O 0.01634 0.25359 0.88859 0.0
O1341 O 0.9988 0.26708 0.86515 0.0
O1342 O 0.00393 0.23621 0.86494 0.0
O1343 O 0.98511 0.24819 0.8875 0.0
H1344 H 0.03241 0.26974 0.90339 0.0
H1345 H 0.02973 0.23051 0.88313 0.0
H1346 H 0.05624 0.26403 0.9105 0.0
H1347 H 0.05363 0.22552 0.89044 0.0
H1348 H 0.00163 0.30688 0.84094 0.0
H1349 H 0.01992 0.2782 0.87853 0.0
H1350 H 0.99084 0.28424 0.84571 0.0
H1351 H 0.03019 0.30087 0.87316 0.0
H1352 H 0.06242 0.26705 0.8572 0.0
H1353 H 0.03785 0.25155 0.82344 0.0
H1354 H 0.00421 0.28935 0.92894 0.0
H1355 H 0.98113 0.31003 0.89709 0.0
H1356 H 0.98505 0.218 0.85767 0.0
H1357 H 0.02856 0.22584 0.85958 0.0
H1358 H 0.98999 0.19503 0.84776 0.0
H1359 H 0.03274 0.2027 0.8498 0.0
H1360 H 0.96964 0.24053 0.90841 0.0
H1361 H 0.97244 0.2683 0.87409 0.0
H1362 H 0.947 0.25073 0.9143 0.0
H1363 H 0.94981 0.278 0.88057 0.0
H1364 H 0.01917 0.21338 0.92673 0.0
H1365 H 0.99592 0.1891 0.89761 0.0
H1366 H 0.96171 0.25706 0.82475 0.0
H1367 H 0.94365 0.22909 0.85422 0.0
Li1368 Li 0.51457 0.75393 0.36774 0.0
Li1369 Li 0.49954 0.76502 0.38495 0.0
Li1370 Li 0.50329 0.73928 0.38531 0.0
Li1371 Li 0.48886 0.75028 0.36787 0.0
C1372 C 0.52994 0.7546 0.39289 0.0
N1373 N 0.55667 0.7549 0.40251 0.0
C1374 C 0.53534 0.76649 0.39893 0.0
C1375 C 0.53809 0.74282 0.39191 0.0
C1376 C 0.54889 0.76644 0.40368 0.0
C1377 C 0.55158 0.74319 0.39679 0.0
C1378 C 0.49889 0.78125 0.36231 0.0
C1379 C 0.48614 0.80249 0.36195 0.0
N1380 N 0.49771 0.80929 0.35803 0.0
C1381 C 0.51062 0.78843 0.35815 0.0
C1382 C 0.48651 0.7883 0.36411 0.0
C1383 C 0.50983 0.80261 0.35608 0.0
C1384 C 0.52934 0.7513 0.34308 0.0
N1385 N 0.53032 0.75609 0.35617 0.0
C1386 C 0.55327 0.76385 0.35206 0.0
C1387 C 0.54192 0.76242 0.36071 0.0
C1388 C 0.55262 0.75899 0.33845 0.0
C1389 C 0.54039 0.75268 0.334 0.0
H1390 H 0.51992 0.74647 0.33967 0.0
H1391 H 0.54239 0.76651 0.371 0.0
C1392 C 0.48764 0.78071 0.40628 0.0
N1393 N 0.49732 0.78096 0.39621 0.0
C1394 C 0.48569 0.79215 0.41474 0.0
C1395 C 0.5037 0.80392 0.40232 0.0
C1396 C 0.50543 0.79219 0.39423 0.0
C1397 C 0.49373 0.80398 0.41274 0.0
H1398 H 0.48146 0.7716 0.40779 0.0
H1399 H 0.51332 0.79201 0.38643 0.0
C1400 C 0.50836 0.72394 0.36132 0.0
N1401 N 0.51755 0.69814 0.35382 0.0
C1402 C 0.49904 0.71395 0.35684 0.0
C1403 C 0.52238 0.72088 0.36173 0.0
C1404 C 0.50388 0.70094 0.35317 0.0
C1405 C 0.52682 0.70777 0.35796 0.0
C1406 C 0.47227 0.74802 0.38967 0.0
C1407 C 0.46714 0.73527 0.39387 0.0
C1408 C 0.46317 0.75877 0.3869 0.0
C1409 C 0.45294 0.73343 0.39501 0.0
C1410 C 0.44904 0.75651 0.38815 0.0
N1411 N 0.44426 0.74399 0.39213 0.0
C1412 C 0.51304 0.7247 0.4085 0.0
C1413 C 0.4992 0.71147 0.39343 0.0
C1414 C 0.515 0.71335 0.41705 0.0
N1415 N 0.50544 0.72352 0.39682 0.0
C1416 C 0.5008 0.69988 0.40174 0.0
C1417 C 0.50888 0.70071 0.41368 0.0
H1418 H 0.51754 0.73449 0.41122 0.0
H1419 H 0.49285 0.71089 0.38434 0.0
C1420 C 0.47013 0.75733 0.34678 0.0
N1421 N 0.47311 0.74771 0.35645 0.0
C1422 C 0.45867 0.75574 0.33827 0.0
C1423 C 0.45355 0.73435 0.34982 0.0
C1424 C 0.46518 0.73629 0.35801 0.0
C1425 C 0.45019 0.74414 0.33977 0.0
H1426 H 0.47668 0.76623 0.34564 0.0
H1427 H 0.46791 0.72867 0.36561 0.0
O1428 O 0.51671 0.75452 0.38811 0.0
O1429 O 0.49949 0.76737 0.36445 0.0
O1430 O 0.50377 0.73672 0.36496 0.0
O1431 O 0.48612 0.74996 0.38831 0.0
H1432 H 0.52916 0.77566 0.39988 0.0
H1433 H 0.534 0.73345 0.38757 0.0
H1434 H 0.55322 0.77559 0.40831 0.0
H1435 H 0.558 0.73415 0.39607 0.0
H1436 H 0.47665 0.80809 0.36339 0.0
H1437 H 0.52026 0.78313 0.35663 0.0
H1438 H 0.47731 0.78289 0.36716 0.0
H1439 H 0.51884 0.80831 0.35294 0.0
H1440 H 0.56248 0.76865 0.35608 0.0
H1441 H 0.53923 0.74901 0.32356 0.0
H1442 H 0.47787 0.79181 0.42265 0.0
H1443 H 0.51027 0.81275 0.40062 0.0
H1444 H 0.48817 0.71618 0.3563 0.0
H1445 H 0.52978 0.72858 0.36479 0.0
H1446 H 0.49676 0.69308 0.34979 0.0
H1447 H 0.53764 0.70526 0.35828 0.0
H1448 H 0.47403 0.72687 0.39615 0.0
H1449 H 0.46698 0.76873 0.38379 0.0
H1450 H 0.44882 0.72359 0.39817 0.0
H1451 H 0.44188 0.76472 0.38595 0.0
H1452 H 0.52108 0.71451 0.42631 0.0
H1453 H 0.49589 0.69033 0.39877 0.0
H1454 H 0.45639 0.76357 0.3307 0.0
H1455 H 0.4474 0.72517 0.35117 0.0
Li1456 Li 0.00351 0.76392 0.61695 0.0
Li1457 Li 0.98872 0.75323 0.63438 0.0
Li1458 Li 0.01354 0.75013 0.63426 0.0
Li1459 Li 0.9993 0.73938 0.61623 0.0
C1460 C 0.01068 0.77454 0.64652 0.0
N1461 N 0.02623 0.78825 0.66601 0.0
C1462 C 0.00477 0.77857 0.65898 0.0
C1463 C 0.02441 0.77783 0.64386 0.0
C1464 C 0.01281 0.78542 0.66872 0.0
C1465 C 0.03213 0.78464 0.65387 0.0
C1466 C 0.97554 0.7635 0.61083 0.0
C1467 C 0.9559 0.77031 0.59732 0.0
N1468 N 0.95531 0.78236 0.6044 0.0
C1469 C 0.97475 0.77597 0.61796 0.0
C1470 C 0.96605 0.76065 0.60042 0.0
C1471 C 0.96445 0.78535 0.61455 0.0
C1472 C 0.00119 0.77893 0.5922 0.0
N1473 N 0.00569 0.77972 0.60542 0.0
C1474 C 0.01347 0.80275 0.60187 0.0
C1475 C 0.01163 0.79135 0.61039 0.0
C1476 C 0.00902 0.80221 0.58814 0.0
C1477 C 0.00275 0.79011 0.58334 0.0
H1478 H 0.99648 0.76955 0.58852 0.0
H1479 H 0.01494 0.79182 0.62096 0.0
C1480 C 0.97512 0.75485 0.65985 0.0
N1481 N 0.97289 0.75433 0.64606 0.0
C1482 C 0.96409 0.75603 0.66896 0.0
C1483 C 0.94856 0.75508 0.64959 0.0
C1484 C 0.9599 0.75408 0.64086 0.0
C1485 C 0.9506 0.75628 0.66383 0.0
H1486 H 0.98551 0.75432 0.66377 0.0
H1487 H 0.95828 0.75305 0.62993 0.0
C1488 C 0.02364 0.75361 0.60265 0.0
N1489 N 0.03579 0.76377 0.57905 0.0
C1490 C 0.01948 0.74884 0.58974 0.0
C1491 C 0.03409 0.76345 0.60354 0.0
C1492 C 0.02573 0.75412 0.57793 0.0
C1493 C 0.04006 0.76849 0.5915 0.0
C1494 C 0.99018 0.72547 0.63965 0.0
C1495 C 0.99333 0.71635 0.65027 0.0
C1496 C 0.9779 0.72391 0.63234 0.0
C1497 C 0.98414 0.70577 0.6534 0.0
C1498 C 0.96897 0.7132 0.63578 0.0
N1499 N 0.97225 0.70442 0.64615 0.0
C1500 C 0.0266 0.74472 0.65958 0.0
C1501 C 0.04186 0.74768 0.64081 0.0
C1502 C 0.03764 0.74281 0.66856 0.0
N1503 N 0.02891 0.74715 0.64601 0.0
C1504 C 0.05319 0.74601 0.64945 0.0
C1505 C 0.05114 0.74354 0.66352 0.0
H1506 H 0.01616 0.74437 0.66341 0.0
H1507 H 0.04338 0.74951 0.62997 0.0
C1508 C 0.98887 0.72405 0.59373 0.0
N1509 N 0.99687 0.72341 0.60516 0.0
C1510 C 0.98704 0.71242 0.5855 0.0
C1511 C 0.00152 0.69963 0.60112 0.0
C1512 C 0.00316 0.71155 0.60898 0.0
C1513 C 0.99342 0.69999 0.58917 0.0
H1514 H 0.98401 0.73363 0.59095 0.0
H1515 H 0.00947 0.71136 0.61814 0.0
O1516 O 0.00299 0.76767 0.6369 0.0
O1517 O 0.98561 0.75415 0.61384 0.0
O1518 O 0.01736 0.74882 0.61431 0.0
O1519 O 0.99907 0.73592 0.63654 0.0
H1520 H 0.99404 0.77664 0.66105 0.0
H1521 H 0.0291 0.77498 0.63422 0.0
H1522 H 0.00836 0.78854 0.67843 0.0
H1523 H 0.04282 0.78706 0.65199 0.0
H1524 H 0.94848 0.76823 0.5893 0.0
H1525 H 0.98196 0.77841 0.62604 0.0
H1526 H 0.96649 0.75107 0.59479 0.0
H1527 H 0.96372 0.79503 0.61999 0.0
H1528 H 0.01817 0.81195 0.60603 0.0
H1529 H 0.99928 0.78921 0.5728 0.0
H1530 H 0.96608 0.7566 0.6799 0.0
H1531 H 0.93832 0.75517 0.64523 0.0
H1532 H 0.01143 0.74127 0.5888 0.0
H1533 H 0.03749 0.76728 0.61339 0.0
H1534 H 0.02254 0.75057 0.56788 0.0
H1535 H 0.04808 0.77619 0.59205 0.0
H1536 H 0.00279 0.71746 0.65604 0.0
H1537 H 0.97526 0.73089 0.62411 0.0
H1538 H 0.98645 0.69862 0.6616 0.0
H1539 H 0.95944 0.71187 0.63022 0.0
H1540 H 0.03564 0.74102 0.67937 0.0
H1541 H 0.06345 0.74647 0.64514 0.0
H1542 H 0.9806 0.7131 0.57645 0.0
H1543 H 0.00671 0.6903 0.60424 0.0
Li1544 Li 0.5034 0.2635 0.11708 0.0
Li1545 Li 0.48821 0.25293 0.13444 0.0
Li1546 Li 0.51389 0.24953 0.13472 0.0
Li1547 Li 0.49979 0.23777 0.11745 0.0
C1548 C 0.50357 0.28061 0.13876 0.0
N1549 N 0.50431 0.3089 0.14115 0.0
C1550 C 0.49174 0.28784 0.14252 0.0
C1551 C 0.51581 0.28775 0.13638 0.0
C1552 C 0.49232 0.30214 0.14364 0.0
C1553 C 0.51596 0.30206 0.13758 0.0
C1554 C 0.47337 0.2519 0.10861 0.0
C1555 C 0.45281 0.23892 0.10368 0.0
N1556 N 0.44726 0.25017 0.09753 0.0
C1557 C 0.46752 0.26329 0.10212 0.0
C1558 C 0.46601 0.23958 0.10931 0.0
C1559 C 0.45429 0.26223 0.09663 0.0
C1560 C 0.51591 0.27912 0.09597 0.0
N1561 N 0.50558 0.27911 0.10538 0.0
C1562 C 0.49846 0.3015 0.0982 0.0
C1563 C 0.49681 0.28993 0.10651 0.0
C1564 C 0.50908 0.30184 0.08844 0.0
C1565 C 0.51783 0.29042 0.08732 0.0
H1566 H 0.52265 0.27034 0.09516 0.0
H1567 H 0.48849 0.28955 0.11386 0.0
C1568 C 0.47365 0.25211 0.15928 0.0
N1569 N 0.47236 0.2554 0.14577 0.0
C1570 C 0.46258 0.25381 0.16826 0.0
C1571 C 0.44901 0.26219 0.14924 0.0
C1572 C 0.46039 0.26047 0.14067 0.0
C1573 C 0.44999 0.25889 0.16328 0.0
H1574 H 0.48335 0.24824 0.16309 0.0
H1575 H 0.45962 0.2633 0.12999 0.0
C1576 C 0.53074 0.24594 0.11357 0.0
N1577 N 0.5586 0.24066 0.11239 0.0
C1578 C 0.53544 0.23279 0.11025 0.0
C1579 C 0.5402 0.25646 0.11612 0.0
C1580 C 0.54957 0.23031 0.10974 0.0
C1581 C 0.55425 0.25357 0.11553 0.0
C1582 C 0.49386 0.22366 0.14245 0.0
C1583 C 0.50258 0.21393 0.1484 0.0
C1584 C 0.47978 0.22095 0.14159 0.0
C1585 C 0.49711 0.20151 0.15309 0.0
C1586 C 0.47469 0.20842 0.14641 0.0
N1587 N 0.4834 0.19902 0.15199 0.0
C1588 C 0.53304 0.25768 0.15514 0.0
C1589 C 0.53685 0.23549 0.14586 0.0
C1590 C 0.54446 0.25632 0.16375 0.0
N1591 N 0.52951 0.24736 0.1464 0.0
C1592 C 0.5484 0.23374 0.15419 0.0
C1593 C 0.55233 0.24424 0.1633 0.0
H1594 H 0.52697 0.26697 0.15547 0.0
H1595 H 0.53371 0.22737 0.13895 0.0
C1596 C 0.49216 0.22305 0.09365 0.0
N1597 N 0.49791 0.2217 0.10632 0.0
C1598 C 0.4905 0.21159 0.08516 0.0
C1599 C 0.5011 0.1976 0.10272 0.0
C1600 C 0.50251 0.20934 0.11088 0.0
C1601 C 0.49497 0.19862 0.08967 0.0
H1602 H 0.48882 0.23305 0.09015 0.0
H1603 H 0.50748 0.2086 0.12078 0.0
O1604 O 0.50317 0.26662 0.1375 0.0
O1605 O 0.48632 0.25281 0.11406 0.0
O1606 O 0.51695 0.24851 0.11432 0.0
O1607 O 0.49908 0.23589 0.13784 0.0
H1608 H 0.4822 0.28247 0.14445 0.0
H1609 H 0.52507 0.28232 0.13355 0.0
H1610 H 0.48323 0.30788 0.14646 0.0
H1611 H 0.52534 0.30773 0.13567 0.0
H1612 H 0.447 0.22945 0.10417 0.0
H1613 H 0.4731 0.27288 0.10137 0.0
H1614 H 0.47048 0.23056 0.11397 0.0
H1615 H 0.44961 0.27099 0.09164 0.0
H1616 H 0.49138 0.31002 0.09925 0.0
H1617 H 0.52618 0.29031 0.07995 0.0
H1618 H 0.46396 0.25136 0.17903 0.0
H1619 H 0.43953 0.26598 0.14484 0.0
H1620 H 0.52825 0.22455 0.10819 0.0
H1621 H 0.53674 0.26671 0.11861 0.0
H1622 H 0.55335 0.22016 0.10727 0.0
H1623 H 0.56169 0.26158 0.11757 0.0
H1624 H 0.51348 0.21591 0.14932 0.0
H1625 H 0.47281 0.22848 0.13738 0.0
H1626 H 0.50376 0.19385 0.15762 0.0
H1627 H 0.46382 0.20618 0.14576 0.0
H1628 H 0.54718 0.2647 0.17057 0.0
H1629 H 0.55407 0.22418 0.15366 0.0
H1630 H 0.48563 0.21287 0.07523 0.0
H1631 H 0.50498 0.18789 0.1065 0.0
H1632 H 0.20363 0.76334 0.84859 0.0
H1633 H 0.20747 0.77864 0.86815 0.0
H1634 H 0.25128 0.77397 0.86339 0.0
H1635 H 0.24754 0.75876 0.84371 0.0
H1636 H 0.24361 0.77163 0.89005 0.0
H1637 H 0.23555 0.80316 0.85306 0.0
H1638 H 0.22294 0.81297 0.8334 0.0
H1639 H 0.18829 0.82117 0.85944 0.0
H1640 H 0.20062 0.81123 0.87923 0.0
H1641 H 0.26315 0.82626 0.9345 0.0
H1642 H 0.25993 0.81141 0.91446 0.0
H1643 H 0.216 0.81636 0.91771 0.0
H1644 H 0.21914 0.83123 0.93774 0.0
H1645 H 0.22411 0.8187 0.89159 0.0
H1646 H 0.23192 0.78686 0.92846 0.0
H1647 H 0.24441 0.77695 0.94816 0.0
H1648 H 0.27937 0.76922 0.92238 0.0
H1649 H 0.26716 0.77926 0.90256 0.0
C1650 C 0.21409 0.76569 0.8516 0.0
C1651 C 0.22528 0.75986 0.84454 0.0
C1652 C 0.21627 0.77441 0.86281 0.0
C1653 C 0.22967 0.77756 0.86715 0.0
C1654 C 0.24086 0.77167 0.86022 0.0
C1655 C 0.23869 0.76294 0.849 0.0
C1656 C 0.232 0.78689 0.87901 0.0
C1657 C 0.23952 0.78199 0.89031 0.0
C1658 C 0.22639 0.8003 0.87948 0.0
C1659 C 0.21897 0.80633 0.8676 0.0
C1660 C 0.2252 0.80695 0.85458 0.0
C1661 C 0.21811 0.81256 0.84341 0.0
C1662 C 0.20481 0.81766 0.84516 0.0
C1663 C 0.19859 0.8172 0.85809 0.0
C1664 C 0.20563 0.81159 0.86929 0.0
C1665 C 0.2528 0.8241 0.93101 0.0
C1666 C 0.2414 0.82989 0.93775 0.0
C1667 C 0.25097 0.81562 0.91955 0.0
C1668 C 0.23771 0.81264 0.91467 0.0
C1669 C 0.22632 0.81853 0.92128 0.0
C1670 C 0.22814 0.82705 0.93271 0.0
C1671 C 0.23569 0.80343 0.90265 0.0
C1672 C 0.22822 0.80834 0.89133 0.0
C1673 C 0.24133 0.79003 0.90217 0.0
C1674 C 0.24868 0.78394 0.91406 0.0
C1675 C 0.24231 0.78314 0.92701 0.0
C1676 C 0.24933 0.77749 0.9382 0.0
C1677 C 0.26269 0.77249 0.93653 0.0
C1678 C 0.26903 0.77311 0.92366 0.0
C1679 C 0.26206 0.77877 0.91245 0.0
H1680 H 0.26811 0.76812 0.9452 0.0
H1681 H 0.19934 0.82199 0.8365 0.0
H1682 H 0.99513 0.52078 0.39549 0.0
H1683 H 0.01022 0.51733 0.37571 0.0
H1684 H 0.04566 0.52442 0.40143 0.0
H1685 H 0.03061 0.52788 0.42128 0.0
H1686 H 0.04804 0.53798 0.37767 0.0
H1687 H 0.03692 0.49197 0.39108 0.0
H1688 H 0.0217 0.47263 0.39716 0.0
H1689 H 0.00297 0.47446 0.35723 0.0
H1690 H 0.01795 0.49395 0.35098 0.0
H1691 H 0.0975 0.51324 0.32979 0.0
H1692 H 0.08304 0.516 0.35018 0.0
H1693 H 0.04676 0.51062 0.32524 0.0
H1694 H 0.06116 0.50753 0.30486 0.0
H1695 H 0.04527 0.49591 0.34894 0.0
H1696 H 0.0563 0.54227 0.33581 0.0
H1697 H 0.07171 0.5615 0.32986 0.0
H1698 H 0.09091 0.55875 0.36951 0.0
H1699 H 0.07573 0.53936 0.37563 0.0
C1700 C 0.00614 0.52147 0.39697 0.0
C1701 C 0.01167 0.52455 0.40998 0.0
C1702 C 0.01476 0.51951 0.38565 0.0
C1703 C 0.02908 0.52045 0.38711 0.0
C1704 C 0.03463 0.52365 0.40005 0.0
C1705 C 0.02602 0.52566 0.41138 0.0
C1706 C 0.03826 0.51826 0.37511 0.0
C1707 C 0.04757 0.52869 0.37151 0.0
C1708 C 0.03747 0.50626 0.3669 0.0
C1709 C 0.02847 0.49451 0.37061 0.0
C1710 C 0.02948 0.48832 0.38363 0.0
C1711 C 0.02091 0.47732 0.3871 0.0
C1712 C 0.01135 0.47234 0.3776 0.0
C1713 C 0.01037 0.47833 0.36459 0.0
C1714 C 0.0189 0.48935 0.36107 0.0
C1715 C 0.08645 0.51254 0.32866 0.0
C1716 C 0.08048 0.51021 0.31569 0.0
C1717 C 0.0782 0.51423 0.3403 0.0
C1718 C 0.06382 0.51365 0.3392 0.0
C1719 C 0.05784 0.51115 0.32631 0.0
C1720 C 0.06608 0.5095 0.31466 0.0
C1721 C 0.05499 0.51564 0.35149 0.0
C1722 C 0.04575 0.50518 0.35513 0.0
C1723 C 0.05588 0.52758 0.35976 0.0
C1724 C 0.06498 0.53927 0.35612 0.0
C1725 C 0.06388 0.54569 0.34322 0.0
C1726 C 0.07256 0.55663 0.33982 0.0
C1727 C 0.08231 0.56132 0.34928 0.0
C1728 C 0.08337 0.55509 0.36218 0.0
C1729 C 0.07473 0.54413 0.36562 0.0
H1730 H 0.08902 0.56979 0.34664 0.0
H1731 H 0.00473 0.46381 0.38031 0.0
H1732 H 0.76871 0.75831 0.85758 0.0
H1733 H 0.76493 0.74341 0.87742 0.0
H1734 H 0.77825 0.70837 0.85375 0.0
H1735 H 0.78155 0.72313 0.83368 0.0
H1736 H 0.75595 0.70217 0.8685 0.0
H1737 H 0.79947 0.72366 0.87741 0.0
H1738 H 0.81555 0.74308 0.88017 0.0
H1739 H 0.79119 0.75885 0.91341 0.0
H1740 H 0.77485 0.73962 0.91072 0.0
H1741 H 0.76734 0.65624 0.92401 0.0
H1742 H 0.77026 0.67123 0.90409 0.0
H1743 H 0.75581 0.70575 0.92785 0.0
H1744 H 0.75273 0.69079 0.94781 0.0
H1745 H 0.77848 0.71231 0.91314 0.0
H1746 H 0.7351 0.69053 0.90433 0.0
H1747 H 0.71918 0.67098 0.90157 0.0
H1748 H 0.74351 0.65557 0.86814 0.0
H1749 H 0.75969 0.67494 0.87083 0.0
C1750 C 0.77069 0.74741 0.85653 0.0
C1751 C 0.77546 0.74193 0.84403 0.0
C1752 C 0.76866 0.73892 0.86794 0.0
C1753 C 0.77149 0.7248 0.86713 0.0
C1754 C 0.77607 0.71925 0.85463 0.0
C1755 C 0.77806 0.72773 0.8432 0.0
C1756 C 0.76966 0.7158 0.87933 0.0
C1757 C 0.76102 0.70428 0.87821 0.0
C1758 C 0.77603 0.71873 0.89209 0.0
C1759 C 0.78586 0.73028 0.89377 0.0
C1760 C 0.79748 0.73133 0.88524 0.0
C1761 C 0.80665 0.74229 0.8868 0.0
C1762 C 0.80437 0.75221 0.89694 0.0
C1763 C 0.79293 0.75117 0.90555 0.0
C1764 C 0.78372 0.74023 0.90402 0.0
C1765 C 0.76463 0.66699 0.92497 0.0
C1766 C 0.75973 0.67229 0.9375 0.0
C1767 C 0.76634 0.67556 0.91358 0.0
C1768 C 0.76311 0.68959 0.91444 0.0
C1769 C 0.75837 0.69496 0.92696 0.0
C1770 C 0.75666 0.68639 0.93837 0.0
C1771 C 0.76479 0.69868 0.9023 0.0
C1772 C 0.7734 0.71021 0.90343 0.0
C1773 C 0.75842 0.69574 0.88954 0.0
C1774 C 0.74868 0.68412 0.88787 0.0
C1775 C 0.73711 0.68292 0.89646 0.0
C1776 C 0.72804 0.67188 0.89489 0.0
C1777 C 0.73035 0.66202 0.88471 0.0
C1778 C 0.74174 0.66321 0.87604 0.0
C1779 C 0.75086 0.67422 0.87757 0.0
H1780 H 0.72331 0.65348 0.88351 0.0
H1781 H 0.81149 0.76069 0.89814 0.0
H1782 H 0.99317 0.95394 0.39885 0.0
H1783 H 0.97797 0.95747 0.37914 0.0
H1784 H 0.97374 1.00024 0.39002 0.0
H1785 H 0.98867 0.99671 0.40996 0.0
H1786 H 0.94914 0.98874 0.38335 0.0
H1787 H 0.99438 0.99092 0.36384 0.0
H1788 H 0.01786 0.98273 0.35905 0.0
H1789 H 0.00152 0.94682 0.33921 0.0
H1790 H 0.97792 0.9547 0.34406 0.0
H1791 H 0.92018 0.01217 0.3206 0.0
H1792 H 0.93508 0.0086 0.34051 0.0
H1793 H 0.94037 0.96612 0.32896 0.0
H1794 H 0.92545 0.96961 0.30903 0.0
H1795 H 0.96444 0.97746 0.33603 0.0
H1796 H 0.91923 0.97519 0.35548 0.0
H1797 H 0.8957 0.98326 0.36029 0.0
H1798 H 0.9119 0.01916 0.38029 0.0
H1799 H 0.93553 0.01139 0.37542 0.0
C1800 C 0.98891 0.96407 0.39711 0.0
C1801 C 0.99215 0.97506 0.40595 0.0
C1802 C 0.98033 0.9661 0.38578 0.0
C1803 C 0.97484 0.97915 0.38303 0.0
C1804 C 0.9779 0.99009 0.39192 0.0
C1805 C 0.98652 0.98809 0.40324 0.0
C1806 C 0.96586 0.98137 0.37089 0.0
C1807 C 0.95254 0.98646 0.37298 0.0
C1808 C 0.9702 0.97808 0.3574 0.0
C1809 C 0.98438 0.97333 0.35444 0.0
C1810 C 0.99579 0.98122 0.35856 0.0
C1811 C 0.00912 0.97664 0.35581 0.0
C1812 C 0.01118 0.96424 0.34886 0.0
C1813 C 0.99991 0.95641 0.34461 0.0
C1814 C 0.98655 0.96093 0.34734 0.0
C1815 C 0.9244 0.00203 0.32237 0.0
C1816 C 0.92158 0.99115 0.31325 0.0
C1817 C 0.93294 1.00001 0.33375 0.0
C1818 C 0.93873 0.98705 0.33632 0.0
C1819 C 0.93603 0.97621 0.32717 0.0
C1820 C 0.92753 0.97823 0.31577 0.0
C1821 C 0.94769 0.98482 0.34848 0.0
C1822 C 0.96102 0.97975 0.34639 0.0
C1823 C 0.94335 0.9881 0.36198 0.0
C1824 C 0.92915 0.99277 0.36497 0.0
C1825 C 0.91777 0.98486 0.36081 0.0
C1826 C 0.90442 0.98937 0.36356 0.0
C1827 C 0.90231 0.00173 0.37056 0.0
C1828 C 0.91355 0.00959 0.37486 0.0
C1829 C 0.92692 0.00514 0.37211 0.0
H1830 H 0.89196 0.0052 0.37269 0.0
H1831 H 0.02151 0.96072 0.34675 0.0
H1832 H 0.22935 0.25875 0.64372 0.0
H1833 H 0.23274 0.24363 0.62394 0.0
H1834 H 0.22836 0.20816 0.65016 0.0
H1835 H 0.22527 0.22325 0.67009 0.0
H1836 H 0.24979 0.20537 0.63229 0.0
H1837 H 0.20217 0.21793 0.62991 0.0
H1838 H 0.18253 0.23392 0.62933 0.0
H1839 H 0.19822 0.25219 0.59235 0.0
H1840 H 0.21806 0.23643 0.59282 0.0
H1841 H 0.24043 0.15569 0.5796 0.0
H1842 H 0.2374 0.17054 0.59963 0.0
H1843 H 0.23973 0.20632 0.57357 0.0
H1844 H 0.24221 0.19153 0.55342 0.0
H1845 H 0.2193 0.20884 0.59154 0.0
H1846 H 0.26694 0.19648 0.59384 0.0
H1847 H 0.28672 0.18067 0.59438 0.0
H1848 H 0.27126 0.16225 0.63138 0.0
H1849 H 0.25128 0.17783 0.63095 0.0
C1850 C 0.22923 0.24773 0.64531 0.0
C1851 C 0.22701 0.2422 0.65848 0.0
C1852 C 0.23106 0.2391 0.63397 0.0
C1853 C 0.23065 0.22477 0.63555 0.0
C1854 C 0.22866 0.2192 0.64871 0.0
C1855 C 0.22679 0.22783 0.66006 0.0
C1856 C 0.23227 0.2156 0.62347 0.0
C1857 C 0.24302 0.20599 0.62345 0.0
C1858 C 0.22362 0.21664 0.61182 0.0
C1859 C 0.21167 0.22609 0.61148 0.0
C1860 C 0.20149 0.22543 0.62172 0.0
C1861 C 0.19031 0.23444 0.6214 0.0
C1862 C 0.18915 0.24409 0.61083 0.0
C1863 C 0.19914 0.24472 0.60054 0.0
C1864 C 0.21035 0.23575 0.60082 0.0
C1865 C 0.24018 0.16672 0.5781 0.0
C1866 C 0.2416 0.17241 0.56488 0.0
C1867 C 0.2386 0.1752 0.58959 0.0
C1868 C 0.23851 0.18956 0.58813 0.0
C1869 C 0.23982 0.19528 0.57496 0.0
C1870 C 0.24137 0.1868 0.56345 0.0
C1871 C 0.23686 0.19862 0.60032 0.0
C1872 C 0.22609 0.20821 0.60037 0.0
C1873 C 0.24552 0.19759 0.61198 0.0
C1874 C 0.25754 0.18823 0.61228 0.0
C1875 C 0.2677 0.18898 0.60203 0.0
C1876 C 0.27896 0.18008 0.60233 0.0
C1877 C 0.28023 0.17044 0.61289 0.0
C1878 C 0.27026 0.16971 0.6232 0.0
C1879 C 0.25897 0.17858 0.62294 0.0
H1880 H 0.28895 0.16355 0.6131 0.0
H1881 H 0.18048 0.25105 0.6106 0.0
H1882 H 0.50771 0.51843 0.60703 0.0
H1883 H 0.49246 0.51467 0.62661 0.0
H1884 H 0.45776 0.52742 0.60217 0.0
H1885 H 0.47294 0.53109 0.58246 0.0
H1886 H 0.45742 0.53928 0.6273 0.0
H1887 H 0.46288 0.49373 0.60929 0.0
H1888 H 0.47575 0.47348 0.60118 0.0
H1889 H 0.49475 0.46944 0.64082 0.0
H1890 H 0.48212 0.4898 0.64911 0.0
H1891 H 0.40546 0.51674 0.67321 0.0
H1892 H 0.42015 0.51959 0.65304 0.0
H1893 H 0.45524 0.50628 0.67663 0.0
H1894 H 0.44053 0.50293 0.69671 0.0
H1895 H 0.45512 0.49456 0.65167 0.0
H1896 H 0.45004 0.54025 0.66959 0.0
H1897 H 0.4373 0.56056 0.67777 0.0
H1898 H 0.41777 0.56441 0.63837 0.0
H1899 H 0.43026 0.54399 0.63001 0.0
C1900 C 0.49682 0.52028 0.60575 0.0
C1901 C 0.49155 0.52502 0.59314 0.0
C1902 C 0.48811 0.51815 0.61697 0.0
C1903 C 0.47395 0.52063 0.61582 0.0
C1904 C 0.46866 0.52545 0.60329 0.0
C1905 C 0.47736 0.52759 0.59206 0.0
C1906 C 0.46469 0.51839 0.62773 0.0
C1907 C 0.45676 0.52945 0.6325 0.0
C1908 C 0.46408 0.50565 0.63473 0.0
C1909 C 0.47165 0.49337 0.62978 0.0
C1910 C 0.46988 0.48859 0.61624 0.0
C1911 C 0.47712 0.47708 0.61162 0.0
C1912 C 0.48609 0.4702 0.62047 0.0
C1913 C 0.48781 0.47479 0.63397 0.0
C1914 C 0.48061 0.48631 0.63864 0.0
C1915 C 0.41628 0.51428 0.67408 0.0
C1916 C 0.42182 0.50965 0.6866 0.0
C1917 C 0.42469 0.51604 0.66257 0.0
C1918 C 0.43884 0.51331 0.66337 0.0
C1919 C 0.44437 0.5085 0.67579 0.0
C1920 C 0.43596 0.50672 0.6873 0.0
C1921 C 0.44787 0.51546 0.65125 0.0
C1922 C 0.45576 0.50439 0.64645 0.0
C1923 C 0.44846 0.52819 0.64424 0.0
C1924 C 0.44098 0.5405 0.64922 0.0
C1925 C 0.44294 0.54536 0.66271 0.0
C1926 C 0.43578 0.5569 0.66737 0.0
C1927 C 0.4267 0.56375 0.6586 0.0
C1928 C 0.4248 0.55908 0.64515 0.0
C1929 C 0.43192 0.54753 0.64044 0.0
H1930 H 0.42117 0.57269 0.66223 0.0
H1931 H 0.49168 0.46129 0.61687 0.0
H1932 H 0.7582 0.26681 0.66324 0.0
H1933 H 0.7547 0.28169 0.6433 0.0
H1934 H 0.79261 0.267 0.6256 0.0
H1935 H 0.79632 0.25238 0.64573 0.0
H1936 H 0.79115 0.29339 0.62228 0.0
H1937 H 0.76009 0.25606 0.61414 0.0
H1938 H 0.74139 0.23981 0.61954 0.0
H1939 H 0.71315 0.2734 0.62389 0.0
H1940 H 0.73172 0.28988 0.6187 0.0
H1941 H 0.77861 0.31784 0.55435 0.0
H1942 H 0.7819 0.3026 0.57412 0.0
H1943 H 0.74778 0.32188 0.59479 0.0
H1944 H 0.74438 0.3371 0.57502 0.0
H1945 H 0.74727 0.29311 0.59627 0.0
H1946 H 0.77906 0.33028 0.60419 0.0
H1947 H 0.798 0.346 0.59812 0.0
H1948 H 0.82522 0.31164 0.59323 0.0
H1949 H 0.80638 0.2957 0.59908 0.0
C1950 C 0.76574 0.26671 0.65505 0.0
C1951 C 0.77751 0.25841 0.656 0.0
C1952 C 0.76372 0.27519 0.64364 0.0
C1953 C 0.77327 0.27532 0.63281 0.0
C1954 C 0.78508 0.26709 0.6338 0.0
C1955 C 0.7872 0.25875 0.6453 0.0
C1956 C 0.77106 0.28417 0.62053 0.0
C1957 C 0.78162 0.29316 0.61649 0.0
C1958 C 0.75854 0.2841 0.61308 0.0
C1959 C 0.74733 0.27421 0.61616 0.0
C1960 C 0.74991 0.25999 0.61635 0.0
C1961 C 0.73933 0.25074 0.61936 0.0
C1962 C 0.7261 0.25557 0.62209 0.0
C1963 C 0.72341 0.26967 0.62179 0.0
C1964 C 0.73395 0.27897 0.6188 0.0
C1965 C 0.77176 0.31876 0.56308 0.0
C1966 C 0.76127 0.32869 0.56317 0.0
C1967 C 0.7737 0.31012 0.57438 0.0
C1968 C 0.76514 0.3112 0.58595 0.0
C1969 C 0.75451 0.32092 0.58597 0.0
C1970 C 0.75264 0.32965 0.57472 0.0
C1971 C 0.76735 0.30224 0.59808 0.0
C1972 C 0.75679 0.29327 0.60208 0.0
C1973 C 0.77991 0.30221 0.6054 0.0
C1974 C 0.79127 0.31179 0.60194 0.0
C1975 C 0.78905 0.32607 0.60171 0.0
C1976 C 0.79978 0.33502 0.59833 0.0
C1977 C 0.8128 0.32982 0.59525 0.0
C1978 C 0.81513 0.31566 0.59559 0.0
C1979 C 0.80443 0.30666 0.59895 0.0
H1980 H 0.82109 0.33677 0.59264 0.0
H1981 H 0.71792 0.24839 0.62442 0.0
H1982 H 0.51899 0.95603 0.59391 0.0
H1983 H 0.5341 0.9595 0.61354 0.0
H1984 H 0.5139 0.99792 0.62251 0.0
H1985 H 0.49948 0.99509 0.60222 0.0
H1986 H 0.53965 0.0013 0.62606 0.0
H1987 H 0.5079 0.96704 0.64126 0.0
H1988 H 0.49487 0.9453 0.64034 0.0
H1989 H 0.53257 0.92243 0.64116 0.0
H1990 H 0.54584 0.94404 0.6419 0.0
H1991 H 0.56498 0.00617 0.69505 0.0
H1992 H 0.54944 0.00291 0.67545 0.0
H1993 H 0.57546 0.97052 0.66008 0.0
H1994 H 0.59109 0.9738 0.67959 0.0
H1995 H 0.5465 0.96425 0.66039 0.0
H1996 H 0.57782 0.99971 0.64519 0.0
H1997 H 0.58989 0.02193 0.64715 0.0
H1998 H 0.5512 0.04311 0.64777 0.0
H1999 H 0.5389 0.02099 0.64602 0.0
C2000 C 0.51786 0.96534 0.59989 0.0
C2001 C 0.50792 0.97526 0.5964 0.0
C2002 C 0.52639 0.9672 0.6113 0.0
C2003 C 0.52498 0.97884 0.61973 0.0
C2004 C 0.51515 0.9888 0.61624 0.0
C2005 C 0.50677 0.98707 0.60469 0.0
C2006 C 0.53389 0.98074 0.63203 0.0
C2007 C 0.54095 0.99325 0.63365 0.0
C2008 C 0.53581 0.97019 0.64191 0.0
C2009 C 0.52787 0.95717 0.64151 0.0
C2010 C 0.51342 0.95738 0.64115 0.0
C2011 C 0.50599 0.94508 0.64067 0.0
C2012 C 0.51289 0.93249 0.64066 0.0
C2013 C 0.52724 0.93218 0.64115 0.0
C2014 C 0.53472 0.94446 0.64161 0.0
C2015 C 0.56733 0.99831 0.68752 0.0
C2016 C 0.57924 0.99026 0.6888 0.0
C2017 C 0.55849 0.99651 0.67632 0.0
C2018 C 0.56136 0.98652 0.66631 0.0
C2019 C 0.5731 0.97829 0.6677 0.0
C2020 C 0.58204 0.98022 0.67879 0.0
C2021 C 0.55216 0.98473 0.6543 0.0
C2022 C 0.54509 0.97226 0.65277 0.0
C2023 C 0.55005 0.99538 0.64465 0.0
C2024 C 0.55744 0.00868 0.64562 0.0
C2025 C 0.57188 0.0091 0.64587 0.0
C2026 C 0.57877 0.02168 0.64692 0.0
C2027 C 0.57132 0.03392 0.64762 0.0
C2028 C 0.55696 0.03362 0.64724 0.0
C2029 C 0.55003 0.02106 0.64621 0.0
H2030 H 0.57666 0.04365 0.64843 0.0
H2031 H 0.50712 0.92298 0.64029 0.0
H2032 H 0.84653 0.2472 0.75627 0.0
H2033 H 0.86647 0.25057 0.7712 0.0
H2034 H 0.8688 0.20685 0.77804 0.0
H2035 H 0.84899 0.20335 0.76297 0.0
H2036 H 0.87143 0.22133 0.80191 0.0
H2037 H 0.89114 0.22229 0.75664 0.0
H2038 H 0.89347 0.23019 0.73267 0.0
H2039 H 0.90176 0.2712 0.74678 0.0
H2040 H 0.89928 0.26358 0.77084 0.0
H2041 H 0.93778 0.21877 0.83192 0.0
H2042 H 0.91788 0.21558 0.81689 0.0
H2043 H 0.91713 0.25913 0.80861 0.0
H2044 H 0.93707 0.26239 0.8236 0.0
H2045 H 0.91357 0.24491 0.7855 0.0
H2046 H 0.89396 0.24422 0.83065 0.0
H2047 H 0.89144 0.23662 0.85469 0.0
H2048 H 0.8827 0.19556 0.841 0.0
H2049 H 0.88536 0.20288 0.81687 0.0
C2050 C 0.85137 0.23828 0.76082 0.0
C2051 C 0.84617 0.225 0.75837 0.0
C2052 C 0.86274 0.24023 0.76939 0.0
C2053 C 0.86919 0.22895 0.77564 0.0
C2054 C 0.86396 0.2157 0.77334 0.0
C2055 C 0.8526 0.21373 0.76476 0.0
C2056 C 0.88135 0.23097 0.78464 0.0
C2057 C 0.88072 0.22632 0.79828 0.0
C2058 C 0.89333 0.2378 0.77999 0.0
C2059 C 0.89489 0.24239 0.76553 0.0
C2060 C 0.89335 0.23302 0.75463 0.0
C2061 C 0.89472 0.23744 0.74103 0.0
C2062 C 0.89773 0.2512 0.7382 0.0
C2063 C 0.89941 0.26055 0.74898 0.0
C2064 C 0.89803 0.25618 0.7626 0.0
C2065 C 0.93331 0.22769 0.82699 0.0
C2066 C 0.93898 0.24084 0.829 0.0
C2067 C 0.92194 0.22585 0.81839 0.0
C2068 C 0.9159 0.23715 0.81175 0.0
C2069 C 0.92163 0.25027 0.81362 0.0
C2070 C 0.93304 0.2521 0.82216 0.0
C2071 C 0.90367 0.23526 0.80279 0.0
C2072 C 0.90429 0.23993 0.78915 0.0
C2073 C 0.89165 0.2285 0.80745 0.0
C2074 C 0.88999 0.22407 0.82196 0.0
C2075 C 0.89161 0.23355 0.83277 0.0
C2076 C 0.89013 0.22929 0.84641 0.0
C2077 C 0.88694 0.21561 0.84937 0.0
C2078 C 0.88518 0.20615 0.83869 0.0
C2079 C 0.88666 0.21035 0.82503 0.0
H2080 H 0.88581 0.21233 0.85994 0.0
H2081 H 0.89879 0.2546 0.72767 0.0
H2082 H 0.47433 0.92109 0.47274 0.0
H2083 H 0.47774 0.90136 0.45752 0.0
H2084 H 0.48321 0.87505 0.49278 0.0
H2085 H 0.47988 0.89475 0.50804 0.0
H2086 H 0.50186 0.86933 0.47383 0.0
H2087 H 0.45301 0.87532 0.47439 0.0
H2088 H 0.43119 0.88794 0.47201 0.0
H2089 H 0.44018 0.89594 0.42954 0.0
H2090 H 0.46216 0.88351 0.43172 0.0
H2091 H 0.49147 0.80485 0.44071 0.0
H2092 H 0.48851 0.82516 0.45531 0.0
H2093 H 0.48875 0.8511 0.41937 0.0
H2094 H 0.49171 0.8308 0.4047 0.0
H2095 H 0.46743 0.85714 0.43819 0.0
H2096 H 0.51631 0.8504 0.43799 0.0
H2097 H 0.53773 0.83718 0.44077 0.0
H2098 H 0.52802 0.82991 0.4832 0.0
H2099 H 0.50642 0.84292 0.48062 0.0
C2100 C 0.47617 0.91108 0.47725 0.0
C2101 C 0.4768 0.90947 0.4916 0.0
C2102 C 0.47812 0.89982 0.46854 0.0
C2103 C 0.48057 0.88668 0.47401 0.0
C2104 C 0.48136 0.88509 0.48833 0.0
C2105 C 0.47949 0.89636 0.49704 0.0
C2106 C 0.48233 0.87461 0.46482 0.0
C2107 C 0.49424 0.86658 0.46616 0.0
C2108 C 0.47252 0.87115 0.45461 0.0
C2109 C 0.4593 0.87861 0.45326 0.0
C2110 C 0.45039 0.87986 0.46457 0.0
C2111 C 0.43798 0.88697 0.46325 0.0
C2112 C 0.43432 0.89277 0.45064 0.0
C2113 C 0.44304 0.89145 0.43931 0.0
C2114 C 0.45547 0.88437 0.44058 0.0
C2115 C 0.49082 0.81488 0.43593 0.0
C2116 C 0.49184 0.81626 0.42158 0.0
C2117 C 0.48921 0.82646 0.44427 0.0
C2118 C 0.4885 0.83962 0.43841 0.0
C2119 C 0.48931 0.84102 0.42408 0.0
C2120 C 0.49108 0.82945 0.41574 0.0
C2121 C 0.4869 0.85191 0.44727 0.0
C2122 C 0.47503 0.85995 0.44586 0.0
C2123 C 0.49668 0.85532 0.45748 0.0
C2124 C 0.50968 0.84752 0.45907 0.0
C2125 C 0.51868 0.84588 0.44788 0.0
C2126 C 0.53086 0.83844 0.44943 0.0
C2127 C 0.53421 0.83268 0.46214 0.0
C2128 C 0.5254 0.83436 0.47335 0.0
C2129 C 0.51319 0.84178 0.47186 0.0
H2130 H 0.54365 0.82693 0.46332 0.0
H2131 H 0.4247 0.89826 0.44964 0.0
H2132 H 0.14706 0.26173 0.74592 0.0
H2133 H 0.12737 0.25791 0.76089 0.0
H2134 H 0.14363 0.28729 0.78991 0.0
H2135 H 0.16387 0.29041 0.77549 0.0
H2136 H 0.1339 0.26685 0.80337 0.0
H2137 H 0.11638 0.29477 0.76689 0.0
H2138 H 0.11161 0.30137 0.74289 0.0
H2139 H 0.08801 0.26449 0.73716 0.0
H2140 H 0.09279 0.25758 0.76109 0.0
H2141 H 0.07129 0.28007 0.83913 0.0
H2142 H 0.0912 0.2826 0.82409 0.0
H2143 H 0.07921 0.2462 0.80183 0.0
H2144 H 0.05958 0.24315 0.8172 0.0
H2145 H 0.08641 0.26977 0.785 0.0
H2146 H 0.10407 0.24273 0.82258 0.0
H2147 H 0.10846 0.23761 0.84701 0.0
H2148 H 0.1315 0.27507 0.851 0.0
H2149 H 0.12707 0.28052 0.82663 0.0
C2150 C 0.1466 0.26724 0.75558 0.0
C2151 C 0.15712 0.27643 0.75942 0.0
C2152 C 0.13519 0.2652 0.76405 0.0
C2153 C 0.13384 0.27251 0.77643 0.0
C2154 C 0.14437 0.28158 0.78038 0.0
C2155 C 0.15589 0.28348 0.77201 0.0
C2156 C 0.12155 0.27063 0.78535 0.0
C2157 C 0.12354 0.26768 0.79935 0.0
C2158 C 0.10797 0.27146 0.78013 0.0
C2159 C 0.10506 0.27559 0.76574 0.0
C2160 C 0.11026 0.28802 0.76048 0.0
C2161 C 0.10754 0.29182 0.74689 0.0
C2162 C 0.09954 0.28333 0.73849 0.0
C2163 C 0.09422 0.27104 0.74367 0.0
C2164 C 0.09692 0.26718 0.75725 0.0
C2165 C 0.07294 0.27245 0.83119 0.0
C2166 C 0.0638 0.26134 0.82949 0.0
C2167 C 0.08429 0.27399 0.82253 0.0
C2168 C 0.08668 0.26455 0.81191 0.0
C2169 C 0.07749 0.25362 0.80996 0.0
C2170 C 0.06623 0.25195 0.81873 0.0
C2171 C 0.09885 0.26608 0.8029 0.0
C2172 C 0.09682 0.26895 0.78893 0.0
C2173 C 0.11237 0.2654 0.80818 0.0
C2174 C 0.11512 0.2621 0.82281 0.0
C2175 C 0.10997 0.24993 0.8287 0.0
C2176 C 0.11249 0.24696 0.84253 0.0
C2177 C 0.12022 0.25603 0.85056 0.0
C2178 C 0.12549 0.26807 0.84477 0.0
C2179 C 0.12299 0.2711 0.83094 0.0
H2180 H 0.12216 0.2537 0.86127 0.0
H2181 H 0.09745 0.2863 0.72798 0.0
H2182 H 0.54832 0.60145 0.49213 0.0
H2183 H 0.5447 0.62119 0.47703 0.0
H2184 H 0.50126 0.61239 0.47583 0.0
H2185 H 0.50485 0.59238 0.49061 0.0
H2186 H 0.51111 0.61844 0.45052 0.0
H2187 H 0.51358 0.63828 0.49568 0.0
H2188 H 0.5239 0.6427 0.51842 0.0
H2189 H 0.55944 0.66041 0.49913 0.0
H2190 H 0.54941 0.65592 0.47626 0.0
H2191 H 0.48953 0.6821 0.42209 0.0
H2192 H 0.49285 0.66208 0.43692 0.0
H2193 H 0.53603 0.67167 0.44023 0.0
H2194 H 0.53273 0.69179 0.42554 0.0
H2195 H 0.52612 0.66514 0.46456 0.0
H2196 H 0.52394 0.64525 0.41945 0.0
H2197 H 0.51387 0.64073 0.39662 0.0
H2198 H 0.47818 0.62299 0.41558 0.0
H2199 H 0.48796 0.62758 0.43854 0.0
C2200 C 0.53801 0.60364 0.48856 0.0
C2201 C 0.52686 0.59535 0.49261 0.0
C2202 C 0.53594 0.615 0.48003 0.0
C2203 C 0.52268 0.61836 0.47543 0.0
C2204 C 0.51156 0.61002 0.4793 0.0
C2205 C 0.51362 0.59866 0.48784 0.0
C2206 C 0.52042 0.63056 0.46655 0.0
C2207 C 0.51422 0.62869 0.45365 0.0
C2208 C 0.52477 0.64387 0.47052 0.0
C2209 C 0.5308 0.64664 0.48426 0.0
C2210 C 0.52364 0.64302 0.49629 0.0
C2211 C 0.52943 0.64556 0.5092 0.0
C2212 C 0.54233 0.6518 0.51022 0.0
C2213 C 0.54945 0.65556 0.49833 0.0
C2214 C 0.54371 0.65303 0.48539 0.0
C2215 C 0.49975 0.67987 0.42589 0.0
C2216 C 0.51088 0.6885 0.42262 0.0
C2217 C 0.50164 0.66843 0.43436 0.0
C2218 C 0.51473 0.66526 0.43956 0.0
C2219 C 0.52584 0.67391 0.43636 0.0
C2220 C 0.52393 0.68542 0.42798 0.0
C2221 C 0.51684 0.65304 0.44848 0.0
C2222 C 0.523 0.6549 0.4614 0.0
C2223 C 0.5125 0.63971 0.44451 0.0
C2224 C 0.50662 0.63688 0.43071 0.0
C2225 C 0.5139 0.64048 0.41875 0.0
C2226 C 0.50825 0.63789 0.40579 0.0
C2227 C 0.49538 0.63161 0.40465 0.0
C2228 C 0.48814 0.62787 0.41648 0.0
C2229 C 0.49373 0.63045 0.42947 0.0
H2230 H 0.49102 0.62961 0.39461 0.0
H2231 H 0.5468 0.65376 0.52022 0.0
H2232 H 0.83809 0.75644 0.73462 0.0
H2233 H 0.85791 0.75251 0.71967 0.0
H2234 H 0.87668 0.78984 0.73469 0.0
H2235 H 0.85667 0.79399 0.74935 0.0
H2236 H 0.88006 0.78852 0.7084 0.0
H2237 H 0.88711 0.75677 0.74531 0.0
H2238 H 0.8811 0.73803 0.76127 0.0
H2239 H 0.87601 0.71035 0.72725 0.0
H2240 H 0.88181 0.72898 0.71106 0.0
H2241 H 0.94791 0.77461 0.68491 0.0
H2242 H 0.92803 0.77791 0.69999 0.0
H2243 H 0.90662 0.74516 0.6791 0.0
H2244 H 0.92649 0.74178 0.66398 0.0
H2245 H 0.90477 0.74394 0.70818 0.0
H2246 H 0.89821 0.77648 0.67147 0.0
H2247 H 0.90506 0.79548 0.65616 0.0
H2248 H 0.91032 0.82203 0.69105 0.0
H2249 H 0.90369 0.80312 0.70659 0.0
C2250 C 0.84649 0.76376 0.73476 0.0
C2251 C 0.84588 0.7755 0.74317 0.0
C2252 C 0.85783 0.76149 0.72625 0.0
C2253 C 0.86893 0.77075 0.7262 0.0
C2254 C 0.86827 0.78254 0.73453 0.0
C2255 C 0.85684 0.78491 0.7429 0.0
C2256 C 0.88114 0.76828 0.71734 0.0
C2257 C 0.88556 0.77883 0.70852 0.0
C2258 C 0.88822 0.75555 0.71725 0.0
C2259 C 0.88476 0.74431 0.72696 0.0
C2260 C 0.88461 0.74671 0.74122 0.0
C2261 C 0.88125 0.73611 0.75031 0.0
C2262 C 0.87814 0.72302 0.74527 0.0
C2263 C 0.8784 0.7205 0.73113 0.0
C2264 C 0.88174 0.73107 0.722 0.0
C2265 C 0.93901 0.76804 0.68361 0.0
C2266 C 0.93873 0.75796 0.67325 0.0
C2267 C 0.92764 0.76999 0.69217 0.0
C2268 C 0.91583 0.76184 0.69058 0.0
C2269 C 0.91563 0.75157 0.68046 0.0
C2270 C 0.92694 0.74971 0.67179 0.0
C2271 C 0.90362 0.76419 0.69937 0.0
C2272 C 0.89923 0.75362 0.70813 0.0
C2273 C 0.89667 0.77694 0.69954 0.0
C2274 C 0.90059 0.78835 0.6902 0.0
C2275 C 0.90094 0.78634 0.67588 0.0
C2276 C 0.90476 0.7971 0.66716 0.0
C2277 C 0.90816 0.80994 0.67263 0.0
C2278 C 0.9077 0.81207 0.68683 0.0
C2279 C 0.9039 0.80134 0.6956 0.0
H2280 H 0.91112 0.81826 0.66586 0.0
H2281 H 0.87554 0.71482 0.75233 0.0
H2282 H 0.00481 0.90438 0.50345 0.0
H2283 H 0.00152 0.88445 0.51829 0.0
H2284 H 0.04397 0.88678 0.53094 0.0
H2285 H 0.04756 0.90623 0.51551 0.0
H2286 H 0.03737 0.86118 0.52646 0.0
H2287 H 0.01693 0.89817 0.55175 0.0
H2288 H 0.00155 0.91793 0.55554 0.0
H2289 H 0.96639 0.89227 0.54803 0.0
H2290 H 0.98158 0.87238 0.54402 0.0
H2291 H 0.03178 0.81851 0.58552 0.0
H2292 H 0.03489 0.83831 0.57033 0.0
H2293 H 0.99384 0.8327 0.55454 0.0
H2294 H 0.99057 0.81301 0.56988 0.0
H2295 H 0.99959 0.8598 0.56066 0.0
H2296 H 0.02064 0.82269 0.53572 0.0
H2297 H 0.0364 0.80311 0.53263 0.0
H2298 H 0.07098 0.82946 0.54037 0.0
H2299 H 0.0554 0.84917 0.54371 0.0
C2300 C 0.01351 0.90058 0.50925 0.0
C2301 C 0.02646 0.90697 0.50827 0.0
C2302 C 0.01156 0.88927 0.51789 0.0
C2303 C 0.02244 0.88423 0.52592 0.0
C2304 C 0.03539 0.89052 0.5249 0.0
C2305 C 0.03739 0.90175 0.51617 0.0
C2306 C 0.02037 0.87231 0.53526 0.0
C2307 C 0.02922 0.86098 0.53407 0.0
C2308 C 0.00957 0.87188 0.54501 0.0
C2309 C 1.0004 0.88382 0.54745 0.0
C2310 C 0.00592 0.89676 0.5508 0.0
C2311 C 0.99724 0.90798 0.55301 0.0
C2312 C 0.983 0.90637 0.55199 0.0
C2313 C 0.97742 0.89351 0.5488 0.0
C2314 C 0.98606 0.88226 0.54657 0.0
C2315 C 0.02338 0.82155 0.57888 0.0
C2316 C 0.01094 0.81419 0.57888 0.0
C2317 C 0.02521 0.83279 0.57014 0.0
C2318 C 0.01463 0.83689 0.56123 0.0
C2319 C 0.00214 0.82967 0.56131 0.0
C2320 C 1.00033 0.81837 0.57 0.0
C2321 C 0.0166 0.84875 0.55186 0.0
C2322 C 0.00773 0.86004 0.55305 0.0
C2323 C 0.02745 0.8492 0.54219 0.0
C2324 C 0.03684 0.83738 0.5401 0.0
C2325 C 0.03159 0.82429 0.53687 0.0
C2326 C 0.0405 0.81317 0.53505 0.0
C2327 C 0.05468 0.81503 0.53633 0.0
C2328 C 0.05999 0.82803 0.5394 0.0
C2329 C 0.05113 0.83918 0.54124 0.0
H2330 H 0.06156 0.80641 0.53492 0.0
H2331 H 0.9763 0.91507 0.5537 0.0
H2332 H 0.14671 0.70667 0.74765 0.0
H2333 H 0.12675 0.71021 0.73281 0.0
H2334 H 0.14299 0.74958 0.72036 0.0
H2335 H 0.16283 0.7462 0.73548 0.0
H2336 H 0.11672 0.75188 0.72468 0.0
H2337 H 0.14461 0.72045 0.69929 0.0
H2338 H 0.15828 0.6995 0.69531 0.0
H2339 H 0.12271 0.67451 0.703 0.0
H2340 H 0.10886 0.69531 0.70722 0.0
H2341 H 0.07433 0.7593 0.6651 0.0
H2342 H 0.09413 0.75611 0.68034 0.0
H2343 H 0.07468 0.72049 0.69819 0.0
H2344 H 0.05484 0.72363 0.68296 0.0
H2345 H 0.10252 0.71641 0.69084 0.0
H2346 H 0.07479 0.74885 0.71593 0.0
H2347 H 0.06164 0.77029 0.71891 0.0
H2348 H 0.09788 0.79401 0.71036 0.0
H2349 H 0.11121 0.7727 0.70712 0.0
C2350 C 0.14605 0.71604 0.74168 0.0
C2351 C 0.15636 0.72613 0.74266 0.0
C2352 C 0.13466 0.71805 0.73318 0.0
C2353 C 0.13346 0.73006 0.72527 0.0
C2354 C 0.14368 0.74022 0.72634 0.0
C2355 C 0.15501 0.73829 0.73498 0.0
C2356 C 0.12149 0.73208 0.71596 0.0
C2357 C 0.11375 0.74419 0.71715 0.0
C2358 C 0.11744 0.72197 0.70626 0.0
C2359 C 0.12573 0.70944 0.7037 0.0
C2360 C 0.13972 0.71048 0.70023 0.0
C2361 C 0.1475 0.69863 0.69792 0.0
C2362 C 0.14137 0.68568 0.69893 0.0
C2363 C 0.12744 0.68455 0.70223 0.0
C2364 C 0.11962 0.69636 0.70458 0.0
C2365 C 0.07431 0.75077 0.67225 0.0
C2366 C 0.06305 0.74171 0.67286 0.0
C2367 C 0.08557 0.74901 0.68099 0.0
C2368 C 0.08582 0.7381 0.69043 0.0
C2369 C 0.07466 0.72898 0.69099 0.0
C2370 C 0.06332 0.73083 0.68236 0.0
C2371 C 0.09781 0.73615 0.69962 0.0
C2372 C 0.10554 0.72406 0.69838 0.0
C2373 C 0.10195 0.74635 0.70913 0.0
C2374 C 0.09397 0.75918 0.71114 0.0
C2375 C 0.07993 0.75863 0.71457 0.0
C2376 C 0.07245 0.77076 0.71633 0.0
C2377 C 0.07891 0.7835 0.71479 0.0
C2378 C 0.09288 0.78414 0.71153 0.0
C2379 C 0.10041 0.77204 0.70974 0.0
H2380 H 0.0731 0.79288 0.71616 0.0
H2381 H 0.14741 0.67652 0.69713 0.0
H2382 H 0.98224 0.60677 0.49591 0.0
H2383 H 0.98561 0.62666 0.51088 0.0
H2384 H 0.97696 0.60155 0.54637 0.0
H2385 H 0.97358 0.58157 0.53144 0.0
H2386 H 0.96378 0.62559 0.54803 0.0
H2387 H 0.0098 0.61119 0.53869 0.0
H2388 H 0.02953 0.60449 0.52429 0.0
H2389 H 0.02917 0.64413 0.50491 0.0
H2390 H 0.0093 0.651 0.51906 0.0
H2391 H 0.98846 0.67363 0.59765 0.0
H2392 H 0.98566 0.65311 0.58333 0.0
H2393 H 0.99154 0.67763 0.54688 0.0
H2394 H 0.99455 0.69816 0.56114 0.0
H2395 H 0.00641 0.65357 0.54623 0.0
H2396 H 0.95999 0.66763 0.55558 0.0
H2397 H 0.94043 0.67415 0.57029 0.0
H2398 H 0.94191 0.63477 0.59014 0.0
H2399 H 0.96162 0.62809 0.57566 0.0
C2400 C 0.98119 0.60543 0.50691 0.0
C2401 C 0.9777 0.59256 0.51248 0.0
C2402 C 0.98311 0.61683 0.51546 0.0
C2403 C 0.9817 0.61557 0.52977 0.0
C2404 C 0.97809 0.60276 0.53536 0.0
C2405 C 0.97613 0.59137 0.52681 0.0
C2406 C 0.98383 0.62766 0.53887 0.0
C2407 C 0.97319 0.63158 0.54778 0.0
C2408 C 0.996 0.63564 0.53836 0.0
C2409 C 0.00797 0.63156 0.52985 0.0
C2410 C 0.01386 0.61844 0.53128 0.0
C2411 C 0.02508 0.61462 0.52318 0.0
C2412 C 0.03058 0.62387 0.51367 0.0
C2413 C 0.02489 0.63697 0.51227 0.0
C2414 C 0.01365 0.64084 0.52034 0.0
C2415 C 0.98924 0.67463 0.58659 0.0
C2416 C 0.99169 0.68752 0.58052 0.0
C2417 C 0.98754 0.66292 0.57842 0.0
C2418 C 0.98828 0.66387 0.56404 0.0
C2419 C 0.9909 0.67668 0.55796 0.0
C2420 C 0.99251 0.68841 0.56611 0.0
C2421 C 0.98635 0.6515 0.55532 0.0
C2422 C 0.99703 0.64754 0.54649 0.0
C2423 C 0.97425 0.64344 0.55595 0.0
C2424 C 0.96238 0.64742 0.56464 0.0
C2425 C 0.95622 0.66041 0.56316 0.0
C2426 C 0.94509 0.66412 0.57144 0.0
C2427 C 0.93995 0.65489 0.58117 0.0
C2428 C 0.94592 0.64192 0.58261 0.0
C2429 C 0.95706 0.63816 0.57436 0.0
H2430 H 0.93133 0.65779 0.58757 0.0
H2431 H 0.03928 0.62089 0.5074 0.0
H2432 H 0.77731 0.83407 0.22197 0.0
H2433 H 0.79226 0.85396 0.22563 0.0
H2434 H 0.75668 0.87978 0.23114 0.0
H2435 H 0.74165 0.86 0.22712 0.0
H2436 H 0.7755 0.8918 0.21461 0.0
H2437 H 0.7755 0.86946 0.25859 0.0
H2438 H 0.77828 0.85005 0.27463 0.0
H2439 H 0.82063 0.84616 0.26288 0.0
H2440 H 0.81805 0.86543 0.24662 0.0
H2441 H 0.80975 0.94983 0.24231 0.0
H2442 H 0.79475 0.92991 0.23926 0.0
H2443 H 0.83024 0.90377 0.23471 0.0
H2444 H 0.84533 0.92357 0.23828 0.0
H2445 H 0.81141 0.8919 0.25084 0.0
H2446 H 0.8115 0.91399 0.20678 0.0
H2447 H 0.80884 0.9333 0.1906 0.0
H2448 H 0.7665 0.93751 0.20226 0.0
H2449 H 0.76896 0.91834 0.21867 0.0
C2450 C 0.77266 0.844 0.22386 0.0
C2451 C 0.75828 0.84545 0.22427 0.0
C2452 C 0.78122 0.85534 0.22607 0.0
C2453 C 0.77559 0.86833 0.22881 0.0
C2454 C 0.76125 0.86984 0.2291 0.0
C2455 C 0.75268 0.85851 0.22691 0.0
C2456 C 0.78465 0.88038 0.23121 0.0
C2457 C 0.78322 0.8919 0.22265 0.0
C2458 C 0.79495 0.88038 0.24149 0.0
C2459 C 0.79654 0.86881 0.25129 0.0
C2460 C 0.78538 0.8644 0.25934 0.0
C2461 C 0.78692 0.85343 0.26849 0.0
C2462 C 0.79962 0.84685 0.26974 0.0
C2463 C 0.8108 0.85125 0.26188 0.0
C2464 C 0.8093 0.8622 0.25271 0.0
C2465 C 0.81438 0.93983 0.24082 0.0
C2466 C 0.82876 0.93832 0.24051 0.0
C2467 C 0.80578 0.92846 0.23893 0.0
C2468 C 0.81137 0.91537 0.23657 0.0
C2469 C 0.8257 0.91379 0.23645 0.0
C2470 C 0.83431 0.92514 0.23837 0.0
C2471 C 0.80226 0.90333 0.23424 0.0
C2472 C 0.80368 0.89181 0.2428 0.0
C2473 C 0.79197 0.90332 0.22394 0.0
C2474 C 0.79045 0.91482 0.21405 0.0
C2475 C 0.80165 0.91911 0.20597 0.0
C2476 C 0.80017 0.93002 0.19675 0.0
C2477 C 0.78752 0.93666 0.19543 0.0
C2478 C 0.7763 0.93237 0.20331 0.0
C2479 C 0.77773 0.92148 0.21256 0.0
H2480 H 0.7864 0.9451 0.18828 0.0
H2481 H 0.80079 0.83836 0.27683 0.0
H2482 H 0.77958 0.17022 0.2796 0.0
H2483 H 0.79456 0.15038 0.27612 0.0
H2484 H 0.75946 0.12575 0.26472 0.0
H2485 H 0.74435 0.1454 0.26867 0.0
H2486 H 0.77573 0.11201 0.28192 0.0
H2487 H 0.78197 0.13794 0.24048 0.0
H2488 H 0.78722 0.15849 0.22661 0.0
H2489 H 0.82775 0.16021 0.24399 0.0
H2490 H 0.82268 0.13977 0.25811 0.0
H2491 H 0.81169 0.0558 0.25275 0.0
H2492 H 0.79705 0.07597 0.25584 0.0
H2493 H 0.83223 0.09969 0.26879 0.0
H2494 H 0.84702 0.07963 0.26539 0.0
H2495 H 0.81611 0.11393 0.25085 0.0
H2496 H 0.80976 0.08787 0.29223 0.0
H2497 H 0.80445 0.06722 0.30592 0.0
H2498 H 0.76396 0.06568 0.28841 0.0
H2499 H 0.7691 0.08623 0.27446 0.0
C2500 C 0.77503 0.16056 0.27645 0.0
C2501 C 0.76076 0.15942 0.27439 0.0
C2502 C 0.78362 0.14926 0.27433 0.0
C2503 C 0.77815 0.13661 0.27 0.0
C2504 C 0.76392 0.13542 0.268 0.0
C2505 C 0.75531 0.1467 0.27015 0.0
C2506 C 0.78724 0.12455 0.26776 0.0
C2507 C 0.78444 0.11238 0.27498 0.0
C2508 C 0.79881 0.12512 0.25895 0.0
C2509 C 0.80189 0.1374 0.25046 0.0
C2510 C 0.79196 0.14276 0.24143 0.0
C2511 C 0.79491 0.15438 0.2335 0.0
C2512 C 0.8078 0.16067 0.23445 0.0
C2513 C 0.81777 0.15533 0.24329 0.0
C2514 C 0.81487 0.14373 0.25124 0.0
C2515 C 0.81634 0.06534 0.25613 0.0
C2516 C 0.83052 0.0661 0.25885 0.0
C2517 C 0.80793 0.07682 0.25801 0.0
C2518 C 0.81352 0.08929 0.26269 0.0
C2519 C 0.8277 0.09016 0.26521 0.0
C2520 C 0.83611 0.07866 0.26337 0.0
C2521 C 0.80456 0.10141 0.26498 0.0
C2522 C 0.80738 0.11358 0.25778 0.0
C2523 C 0.793 0.10084 0.27379 0.0
C2524 C 0.78986 0.08851 0.2822 0.0
C2525 C 0.79976 0.08307 0.29122 0.0
C2526 C 0.79678 0.07139 0.29904 0.0
C2527 C 0.78389 0.06512 0.29801 0.0
C2528 C 0.77395 0.07054 0.28918 0.0
C2529 C 0.77689 0.08221 0.28132 0.0
H2530 H 0.7816 0.05609 0.30407 0.0
H2531 H 0.81006 0.16966 0.2283 0.0
H2532 H 0.41208 0.98819 0.99729 0.0
H2533 H 0.3922 0.97316 1.00075 0.0
H2534 H 0.38108 0.97785 0.95809 0.0
H2535 H 0.40076 0.99314 0.95462 0.0
H2536 H 0.3589 0.98036 0.97494 0.0
H2537 H 0.39633 0.94877 0.96899 0.0
H2538 H 0.41915 0.93889 0.9738 0.0
H2539 H 0.40695 0.93032 0.01534 0.0
H2540 H 0.3841 0.94034 0.01083 0.0
H2541 H 0.31081 0.92572 0.97037 0.0
H2542 H 0.33065 0.9408 0.96711 0.0
H2543 H 0.34244 0.93463 0.00941 0.0
H2544 H 0.3226 0.91953 0.01275 0.0
H2545 H 0.36431 0.93295 0.9929 0.0
H2546 H 0.32699 0.96442 0.99905 0.0
H2547 H 0.30416 0.97441 0.9945 0.0
H2548 H 0.31612 0.98341 0.95299 0.0
H2549 H 0.33896 0.97329 0.95723 0.0
C2550 C 0.40534 0.9861 0.98867 0.0
C2551 C 0.40802 0.99183 0.97567 0.0
C2552 C 0.39405 0.97742 0.99063 0.0
C2553 C 0.38523 0.97428 0.97964 0.0
C2554 C 0.38778 0.98011 0.9667 0.0
C2555 C 0.39909 0.98875 0.96471 0.0
C2556 C 0.3733 0.96498 0.98166 0.0
C2557 C 0.36009 0.96993 0.97869 0.0
C2558 C 0.37483 0.95149 0.98688 0.0
C2559 C 0.38855 0.94543 0.98961 0.0
C2560 C 0.39855 0.94489 0.97918 0.0
C2561 C 0.41148 0.93924 0.98185 0.0
C2562 C 0.41451 0.93402 0.99488 0.0
C2563 C 0.4046 0.93439 0.00526 0.0
C2564 C 0.39165 0.94004 0.00265 0.0
C2565 C 0.31756 0.92766 0.97901 0.0
C2566 C 0.31509 0.92146 0.99183 0.0
C2567 C 0.32891 0.93628 0.97713 0.0
C2568 C 0.33795 0.93898 0.98806 0.0
C2569 C 0.33561 0.93268 0.00082 0.0
C2570 C 0.32429 0.92403 0.0027 0.0
C2571 C 0.34989 0.94832 0.98616 0.0
C2572 C 0.36311 0.94338 0.98915 0.0
C2573 C 0.34836 0.96184 0.981 0.0
C2574 C 0.33464 0.96798 0.97843 0.0
C2575 C 0.32471 0.96843 0.98892 0.0
C2576 C 0.31178 0.97414 0.9864 0.0
C2577 C 0.30868 0.97951 0.97345 0.0
C2578 C 0.31852 0.97923 0.96301 0.0
C2579 C 0.33147 0.97352 0.96547 0.0
H2580 H 0.29866 0.98393 0.97152 0.0
H2581 H 0.42453 0.92965 0.99692 0.0
H2582 H 0.22596 0.33445 0.27273 0.0
H2583 H 0.21113 0.35449 0.2693 0.0
H2584 H 0.24519 0.38138 0.27848 0.0
H2585 H 0.26008 0.36137 0.28195 0.0
H2586 H 0.22069 0.38838 0.29228 0.0
H2587 H 0.23602 0.3779 0.24641 0.0
H2588 H 0.23982 0.36292 0.22632 0.0
H2589 H 0.19641 0.35558 0.2232 0.0
H2590 H 0.19236 0.37037 0.24342 0.0
H2591 H 0.1905 0.45093 0.27106 0.0
H2592 H 0.20576 0.43128 0.27388 0.0
H2593 H 0.17426 0.40438 0.25796 0.0
H2594 H 0.15924 0.42409 0.25428 0.0
H2595 H 0.19774 0.39727 0.24761 0.0
H2596 H 0.18187 0.40689 0.29317 0.0
H2597 H 0.17734 0.42108 0.31368 0.0
H2598 H 0.22053 0.42907 0.31806 0.0
H2599 H 0.22531 0.41507 0.29745 0.0
C2600 C 0.23027 0.34464 0.27407 0.0
C2601 C 0.24418 0.34636 0.27759 0.0
C2602 C 0.22181 0.35606 0.27203 0.0
C2603 C 0.2271 0.36941 0.27356 0.0
C2604 C 0.24094 0.37116 0.27723 0.0
C2605 C 0.24944 0.35974 0.27912 0.0
C2606 C 0.21815 0.38154 0.27139 0.0
C2607 C 0.2158 0.39046 0.28247 0.0
C2608 C 0.21149 0.38398 0.2587 0.0
C2609 C 0.2139 0.37513 0.24651 0.0
C2610 C 0.22729 0.373 0.24152 0.0
C2611 C 0.22949 0.36456 0.23009 0.0
C2612 C 0.21837 0.35828 0.22351 0.0
C2613 C 0.20502 0.36044 0.22832 0.0
C2614 C 0.20276 0.36886 0.23976 0.0
C2615 C 0.18685 0.44087 0.26797 0.0
C2616 C 0.17357 0.43914 0.26247 0.0
C2617 C 0.19554 0.42959 0.26978 0.0
C2618 C 0.19109 0.41628 0.26637 0.0
C2619 C 0.17791 0.41452 0.26075 0.0
C2620 C 0.16926 0.42582 0.2588 0.0
C2621 C 0.2002 0.4042 0.26853 0.0
C2622 C 0.20259 0.39525 0.25744 0.0
C2623 C 0.20677 0.40164 0.28128 0.0
C2624 C 0.20393 0.41005 0.29369 0.0
C2625 C 0.1904 0.41176 0.29844 0.0
C2626 C 0.18778 0.41976 0.3101 0.0
C2627 C 0.19864 0.42601 0.31714 0.0
C2628 C 0.21213 0.42424 0.31257 0.0
C2629 C 0.2148 0.41627 0.30092 0.0
H2630 H 0.19659 0.43219 0.32617 0.0
H2631 H 0.22009 0.35175 0.21466 0.0
H2632 H 0.09125 0.01142 0.49776 0.0
H2633 H 0.11109 0.02647 0.50124 0.0
H2634 H 0.1172 0.02864 0.45738 0.0
H2635 H 0.09769 0.0132 0.45384 0.0
H2636 H 0.14104 0.0247 0.47032 0.0
H2637 H 0.1028 0.05537 0.47518 0.0
H2638 H 0.08074 0.06351 0.4846 0.0
H2639 H 0.09836 0.06528 0.52503 0.0
H2640 H 0.12049 0.05696 0.51589 0.0
H2641 H 0.18665 0.08167 0.46904 0.0
H2642 H 0.16669 0.06672 0.46595 0.0
H2643 H 0.16222 0.06344 0.50993 0.0
H2644 H 0.18232 0.07822 0.51314 0.0
H2645 H 0.13761 0.06794 0.49717 0.0
H2646 H 0.17591 0.03735 0.49214 0.0
H2647 H 0.19797 0.02938 0.48258 0.0
H2648 H 0.18014 0.02763 0.44223 0.0
H2649 H 0.15801 0.03578 0.45152 0.0
C2650 C 0.09687 0.01501 0.48886 0.0
C2651 C 0.09285 0.01112 0.47551 0.0
C2652 C 0.10813 0.02373 0.49086 0.0
C2653 C 0.11554 0.02882 0.47956 0.0
C2654 C 0.11161 0.02488 0.46624 0.0
C2655 C 0.10037 0.01615 0.46423 0.0
C2656 C 0.12751 0.03808 0.48162 0.0
C2657 C 0.14024 0.03425 0.47603 0.0
C2658 C 0.12655 0.05038 0.48935 0.0
C2659 C 0.11326 0.05541 0.49487 0.0
C2660 C 0.10194 0.05739 0.4861 0.0
C2661 C 0.08943 0.06206 0.49139 0.0
C2662 C 0.08814 0.06488 0.50541 0.0
C2663 C 0.09937 0.06307 0.51418 0.0
C2664 C 0.11191 0.05839 0.50895 0.0
C2665 C 0.18152 0.07767 0.47807 0.0
C2666 C 0.18615 0.08111 0.49134 0.0
C2667 C 0.17008 0.06915 0.47628 0.0
C2668 C 0.16305 0.06386 0.48771 0.0
C2669 C 0.16749 0.06744 0.50097 0.0
C2670 C 0.17895 0.07593 0.50277 0.0
C2671 C 0.15109 0.05457 0.48583 0.0
C2672 C 0.13839 0.05839 0.49146 0.0
C2673 C 0.15206 0.04227 0.47811 0.0
C2674 C 0.16534 0.03731 0.47251 0.0
C2675 C 0.17672 0.03538 0.48121 0.0
C2676 C 0.18924 0.0308 0.47584 0.0
C2677 C 0.19047 0.02803 0.4618 0.0
C2678 C 0.17917 0.02979 0.4531 0.0
C2679 C 0.16664 0.03438 0.45841 0.0
H2680 H 0.20016 0.02449 0.45767 0.0
H2681 H 0.07845 0.06849 0.50948 0.0
H2682 H 0.72302 0.16935 0.72084 0.0
H2683 H 0.70796 0.14952 0.72424 0.0
H2684 H 0.74257 0.12552 0.73801 0.0
H2685 H 0.75779 0.14513 0.73411 0.0
H2686 H 0.72732 0.11108 0.72064 0.0
H2687 H 0.71872 0.13836 0.76075 0.0
H2688 H 0.71263 0.1593 0.77367 0.0
H2689 H 0.67304 0.16002 0.75416 0.0
H2690 H 0.67897 0.13918 0.74098 0.0
H2691 H 0.6902 0.05575 0.75035 0.0
H2692 H 0.70481 0.076 0.74728 0.0
H2693 H 0.6704 0.09839 0.73064 0.0
H2694 H 0.65565 0.07822 0.73388 0.0
H2695 H 0.68529 0.11368 0.74938 0.0
H2696 H 0.69411 0.08614 0.7094 0.0
H2697 H 0.70032 0.06501 0.69685 0.0
H2698 H 0.73976 0.06464 0.71666 0.0
H2699 H 0.73371 0.08567 0.72949 0.0
C2700 C 0.72746 0.15983 0.72449 0.0
C2701 C 0.74162 0.15885 0.72722 0.0
C2702 C 0.7188 0.14853 0.72657 0.0
C2703 C 0.7241 0.13607 0.73154 0.0
C2704 C 0.73824 0.13505 0.73422 0.0
C2705 C 0.74691 0.14632 0.73211 0.0
C2706 C 0.71498 0.12401 0.7337 0.0
C2707 C 0.71824 0.11161 0.72708 0.0
C2708 C 0.70294 0.12477 0.74185 0.0
C2709 C 0.69934 0.13729 0.74977 0.0
C2710 C 0.70876 0.14305 0.75913 0.0
C2711 C 0.70533 0.15489 0.76651 0.0
C2712 C 0.69247 0.16101 0.76471 0.0
C2713 C 0.68301 0.15528 0.75553 0.0
C2714 C 0.68639 0.14345 0.74811 0.0
C2715 C 0.68572 0.06502 0.74614 0.0
C2716 C 0.67178 0.06538 0.74233 0.0
C2717 C 0.6941 0.07654 0.7443 0.0
C2718 C 0.68872 0.08865 0.73861 0.0
C2719 C 0.67476 0.08913 0.735 0.0
C2720 C 0.66638 0.07758 0.73677 0.0
C2721 C 0.69769 0.10079 0.73637 0.0
C2722 C 0.69438 0.11318 0.74295 0.0
C2723 C 0.70971 0.10002 0.72824 0.0
C2724 C 0.7134 0.0874 0.7205 0.0
C2725 C 0.70407 0.08149 0.71116 0.0
C2726 C 0.70756 0.06954 0.70399 0.0
C2727 C 0.72041 0.06347 0.70599 0.0
C2728 C 0.7298 0.06935 0.71514 0.0
C2729 C 0.72635 0.08129 0.72236 0.0
H2730 H 0.7231 0.05422 0.70042 0.0
H2731 H 0.68983 0.17017 0.77044 0.0
H2732 H 0.39811 0.00732 0.54824 0.0
H2733 H 0.37841 0.02247 0.54457 0.0
H2734 H 0.39076 0.02844 0.50241 0.0
H2735 H 0.41066 0.01353 0.5061 0.0
H2736 H 0.38356 0.05257 0.5147 0.0
H2737 H 0.36444 0.00734 0.50984 0.0
H2738 H 0.35951 0.98349 0.51681 0.0
H2739 H 0.33825 0.9981 0.55262 0.0
H2740 H 0.34323 0.02206 0.54595 0.0
H2741 H 0.32155 0.08232 0.49038 0.0
H2742 H 0.34138 0.06735 0.49395 0.0
H2743 H 0.32837 0.05992 0.53568 0.0
H2744 H 0.30851 0.07491 0.53219 0.0
H2745 H 0.33597 0.03649 0.52352 0.0
H2746 H 0.35508 0.08166 0.52856 0.0
H2747 H 0.36005 0.10557 0.52176 0.0
H2748 H 0.38138 0.09117 0.48591 0.0
H2749 H 0.37636 0.06717 0.4924 0.0
C2750 C 0.39669 0.01193 0.53822 0.0
C2751 C 0.40593 0.0092 0.52745 0.0
C2752 C 0.38537 0.0205 0.5361 0.0
C2753 C 0.38304 0.02647 0.52317 0.0
C2754 C 0.39233 0.0239 0.51245 0.0
C2755 C 0.40364 0.01529 0.51455 0.0
C2756 C 0.37095 0.03546 0.52086 0.0
C2757 C 0.37314 0.04901 0.51645 0.0
C2758 C 0.35738 0.03089 0.52345 0.0
C2759 C 0.35433 0.01649 0.52746 0.0
C2760 C 0.35882 0.00547 0.51926 0.0
C2761 C 0.35599 0.99193 0.52314 0.0
C2762 C 0.3486 0.98928 0.53517 0.0
C2763 C 0.34399 1.00017 0.54331 0.0
C2764 C 0.3468 0.01373 0.53948 0.0
C2765 C 0.32298 0.07761 0.50036 0.0
C2766 C 0.31347 0.07985 0.51102 0.0
C2767 C 0.33431 0.06903 0.50238 0.0
C2768 C 0.33645 0.06263 0.51513 0.0
C2769 C 0.32692 0.06474 0.52575 0.0
C2770 C 0.31556 0.07328 0.52373 0.0
C2771 C 0.34857 0.05363 0.51738 0.0
C2772 C 0.34638 0.04007 0.52177 0.0
C2773 C 0.36215 0.0582 0.5148 0.0
C2774 C 0.36523 0.07262 0.5109 0.0
C2775 C 0.36074 0.0836 0.51917 0.0
C2776 C 0.36358 0.09716 0.51538 0.0
C2777 C 0.371 0.09989 0.50339 0.0
C2778 C 0.37562 0.08904 0.49518 0.0
C2779 C 0.37279 0.07546 0.49892 0.0
H2780 H 0.37319 0.1104 0.50047 0.0
H2781 H 0.34643 0.97879 0.53816 0.0
H2782 H 0.61026 0.50913 0.52867 0.0
H2783 H 0.63008 0.49408 0.52531 0.0
H2784 H 0.60286 0.45948 0.51953 0.0
H2785 H 0.58302 0.47448 0.52318 0.0
H2786 H 0.62335 0.45224 0.53528 0.0
H2787 H 0.6196 0.47563 0.49214 0.0
H2788 H 0.61789 0.49564 0.47669 0.0
H2789 H 0.65711 0.51021 0.4908 0.0
H2790 H 0.65897 0.49038 0.50648 0.0
H2791 H 0.67286 0.40707 0.50609 0.0
H2792 H 0.65306 0.42214 0.50936 0.0
H2793 H 0.68016 0.45573 0.51958 0.0
H2794 H 0.70004 0.44067 0.5166 0.0
H2795 H 0.65981 0.46334 0.50141 0.0
H2796 H 0.66322 0.43942 0.54456 0.0
H2797 H 0.66472 0.41897 0.55944 0.0
H2798 H 0.62567 0.40486 0.54441 0.0
H2799 H 0.62404 0.42514 0.52928 0.0
C2800 C 0.60851 0.49833 0.52659 0.0
C2801 C 0.59509 0.49299 0.52614 0.0
C2802 C 0.61984 0.48973 0.52465 0.0
C2803 C 0.61798 0.47566 0.52195 0.0
C2804 C 0.60457 0.47029 0.52159 0.0
C2805 C 0.59324 0.47886 0.52369 0.0
C2806 C 0.63 0.46651 0.51969 0.0
C2807 C 0.63121 0.45458 0.52773 0.0
C2808 C 0.64043 0.46967 0.51003 0.0
C2809 C 0.63936 0.48158 0.50058 0.0
C2810 C 0.62781 0.48315 0.49202 0.0
C2811 C 0.62682 0.49446 0.48322 0.0
C2812 C 0.63736 0.50421 0.48279 0.0
C2813 C 0.64894 0.50266 0.49115 0.0
C2814 C 0.64997 0.49138 0.49999 0.0
C2815 C 0.67463 0.41762 0.50918 0.0
C2816 C 0.68807 0.42263 0.51114 0.0
C2817 C 0.66329 0.42623 0.51099 0.0
C2818 C 0.66514 0.44002 0.51482 0.0
C2819 C 0.67852 0.44512 0.5166 0.0
C2820 C 0.68987 0.43651 0.51483 0.0
C2821 C 0.65311 0.44913 0.51698 0.0
C2822 C 0.65192 0.46103 0.50893 0.0
C2823 C 0.64265 0.44589 0.52654 0.0
C2824 C 0.64357 0.43373 0.53569 0.0
C2825 C 0.65501 0.4319 0.54435 0.0
C2826 C 0.65587 0.42035 0.55284 0.0
C2827 C 0.64531 0.4106 0.55285 0.0
C2828 C 0.63385 0.41241 0.54438 0.0
C2829 C 0.63294 0.42393 0.53586 0.0
H2830 H 0.646 0.40167 0.55943 0.0
H2831 H 0.63658 0.51295 0.47597 0.0
H2832 H 0.70859 0.25344 0.3557 0.0
H2833 H 0.71249 0.26811 0.37575 0.0
H2834 H 0.7497 0.28365 0.35723 0.0
H2835 H 0.74602 0.26864 0.33734 0.0
H2836 H 0.75422 0.27916 0.38303 0.0
H2837 H 0.71888 0.30256 0.35821 0.0
H2838 H 0.69669 0.30514 0.34625 0.0
H2839 H 0.67521 0.29479 0.38338 0.0
H2840 H 0.6973 0.29196 0.39553 0.0
H2841 H 0.76041 0.33813 0.42662 0.0
H2842 H 0.75703 0.3231 0.40667 0.0
H2843 H 0.72404 0.30233 0.42778 0.0
H2844 H 0.72733 0.31736 0.44774 0.0
H2845 H 0.71753 0.30983 0.40069 0.0
H2846 H 0.75383 0.28678 0.42526 0.0
H2847 H 0.7764 0.28522 0.43668 0.0
H2848 H 0.7965 0.29641 0.39903 0.0
H2849 H 0.77402 0.29824 0.38742 0.0
C2850 C 0.71756 0.26005 0.3559 0.0
C2851 C 0.72697 0.25996 0.34495 0.0
C2852 C 0.71977 0.26846 0.36734 0.0
C2853 C 0.73128 0.27719 0.36793 0.0
C2854 C 0.74075 0.27702 0.35703 0.0
C2855 C 0.73864 0.26846 0.34567 0.0
C2856 C 0.7335 0.28639 0.37995 0.0
C2857 C 0.74624 0.286 0.38675 0.0
C2858 C 0.72305 0.29519 0.38499 0.0
C2859 C 0.70975 0.29692 0.37774 0.0
C2860 C 0.70943 0.30074 0.3638 0.0
C2861 C 0.69687 0.30226 0.35699 0.0
C2862 C 0.68455 0.3001 0.36404 0.0
C2863 C 0.68477 0.29644 0.37793 0.0
C2864 C 0.6973 0.29489 0.38478 0.0
C2865 C 0.75243 0.33037 0.42699 0.0
C2866 C 0.74414 0.32889 0.43874 0.0
C2867 C 0.75056 0.32175 0.41563 0.0
C2868 C 0.74033 0.31156 0.41579 0.0
C2869 C 0.732 0.31011 0.42747 0.0
C2870 C 0.73396 0.31863 0.43889 0.0
C2871 C 0.73818 0.30253 0.4037 0.0
C2872 C 0.72547 0.30297 0.39691 0.0
C2873 C 0.74871 0.29394 0.39856 0.0
C2874 C 0.76223 0.29278 0.40551 0.0
C2875 C 0.76305 0.28902 0.41944 0.0
C2876 C 0.77583 0.28807 0.42595 0.0
C2877 C 0.78787 0.29075 0.4186 0.0
C2878 C 0.78716 0.29436 0.40471 0.0
C2879 C 0.77441 0.29534 0.39816 0.0
H2880 H 0.79775 0.29 0.42365 0.0
H2881 H 0.67483 0.30128 0.35875 0.0
H2882 H 0.4941 0.02658 0.89242 0.0
H2883 H 0.50916 0.02313 0.87261 0.0
H2884 H 0.5442 0.02041 0.89968 0.0
H2885 H 0.52918 0.02408 0.91952 0.0
H2886 H 0.55041 0.03566 0.87836 0.0
H2887 H 0.52962 0.99152 0.88445 0.0
H2888 H 0.51062 0.97497 0.88723 0.0
H2889 H 0.4947 0.98619 0.84763 0.0
H2890 H 0.51352 0.00295 0.84469 0.0
H2891 H 0.59631 0.0069 0.82902 0.0
H2892 H 0.58143 0.00998 0.84909 0.0
H2893 H 0.54692 0.01771 0.82236 0.0
H2894 H 0.56171 0.0145 0.80225 0.0
H2895 H 0.54075 0.9996 0.84357 0.0
H2896 H 0.56204 0.04393 0.83792 0.0
H2897 H 0.58156 0.05992 0.83542 0.0
H2898 H 0.59718 0.0474 0.87475 0.0
H2899 H 0.57784 0.03118 0.8774 0.0
C2900 C 0.505 0.02515 0.89415 0.0
C2901 C 0.51045 0.02554 0.90753 0.0
C2902 C 0.5136 0.02316 0.88282 0.0
C2903 C 0.5278 0.0213 0.88465 0.0
C2904 C 0.53328 0.02181 0.898 0.0
C2905 C 0.5247 0.02393 0.90933 0.0
C2906 C 0.53696 0.019 0.87263 0.0
C2907 C 0.54839 0.02764 0.87087 0.0
C2908 C 0.53422 0.00869 0.8627 0.0
C2909 C 0.52291 0.99859 0.86441 0.0
C2910 C 0.52201 0.99054 0.87638 0.0
C2911 C 0.51128 0.9811 0.87798 0.0
C2912 C 0.50144 0.97955 0.86763 0.0
C2913 C 0.50233 0.98741 0.85564 0.0
C2914 C 0.51303 0.99687 0.854 0.0
C2915 C 0.58554 0.00917 0.82743 0.0
C2916 C 0.58018 0.01049 0.81406 0.0
C2917 C 0.57707 0.01102 0.83889 0.0
C2918 C 0.5631 0.01417 0.8372 0.0
C2919 C 0.55769 0.01531 0.82388 0.0
C2920 C 0.56616 0.01358 0.81241 0.0
C2921 C 0.55412 0.01627 0.84933 0.0
C2922 C 0.54274 0.00759 0.8511 0.0
C2923 C 0.55697 0.02645 0.85933 0.0
C2924 C 0.56857 0.03624 0.85779 0.0
C2925 C 0.5697 0.04451 0.84598 0.0
C2926 C 0.58072 0.05362 0.84455 0.0
C2927 C 0.59062 0.05465 0.85491 0.0
C2928 C 0.58951 0.04658 0.86673 0.0
C2929 C 0.57852 0.03743 0.86821 0.0
H2930 H 0.59915 0.06171 0.85378 0.0
H2931 H 0.49314 0.97224 0.86888 0.0
H2932 H 0.26681 0.25726 0.35666 0.0
H2933 H 0.2632 0.24216 0.37637 0.0
H2934 H 0.27686 0.20746 0.35239 0.0
H2935 H 0.27999 0.22243 0.33244 0.0
H2936 H 0.25479 0.2008 0.36736 0.0
H2937 H 0.29806 0.22279 0.37592 0.0
H2938 H 0.31399 0.24235 0.37855 0.0
H2939 H 0.28978 0.25791 0.412 0.0
H2940 H 0.27359 0.23853 0.40945 0.0
H2941 H 0.26649 0.15538 0.42351 0.0
H2942 H 0.26945 0.17011 0.40335 0.0
H2943 H 0.25463 0.20489 0.42651 0.0
H2944 H 0.25199 0.19031 0.44681 0.0
H2945 H 0.27741 0.21132 0.41187 0.0
H2946 H 0.23415 0.18909 0.4032 0.0
H2947 H 0.21846 0.16934 0.40054 0.0
H2948 H 0.24301 0.15398 0.36726 0.0
H2949 H 0.25897 0.17354 0.36984 0.0
C2950 C 0.26888 0.24639 0.35551 0.0
C2951 C 0.27373 0.24108 0.34296 0.0
C2952 C 0.26696 0.23779 0.36684 0.0
C2953 C 0.26996 0.22371 0.36592 0.0
C2954 C 0.27455 0.21831 0.35336 0.0
C2955 C 0.27645 0.2269 0.342 0.0
C2956 C 0.26837 0.21463 0.3781 0.0
C2957 C 0.25989 0.203 0.37704 0.0
C2958 C 0.2748 0.21764 0.39082 0.0
C2959 C 0.28454 0.22928 0.3924 0.0
C2960 C 0.29607 0.23044 0.38377 0.0
C2961 C 0.30516 0.24148 0.38525 0.0
C2962 C 0.30288 0.25138 0.39541 0.0
C2963 C 0.29152 0.25024 0.40412 0.0
C2964 C 0.28239 0.23922 0.40267 0.0
C2965 C 0.26395 0.16619 0.42434 0.0
C2966 C 0.25898 0.17167 0.43676 0.0
C2967 C 0.26553 0.17456 0.41277 0.0
C2968 C 0.26213 0.18857 0.41338 0.0
C2969 C 0.25727 0.1941 0.42579 0.0
C2970 C 0.25566 0.18572 0.43735 0.0
C2971 C 0.2638 0.19752 0.40114 0.0
C2972 C 0.27231 0.20912 0.40219 0.0
C2973 C 0.25744 0.19445 0.38841 0.0
C2974 C 0.24783 0.18271 0.38681 0.0
C2975 C 0.23627 0.18144 0.39538 0.0
C2976 C 0.22731 0.17029 0.39388 0.0
C2977 C 0.22976 0.16039 0.38376 0.0
C2978 C 0.24114 0.16164 0.3751 0.0
C2979 C 0.25014 0.17277 0.37658 0.0
H2980 H 0.22281 0.15177 0.38261 0.0
H2981 H 0.30992 0.25993 0.39654 0.0
H2982 H 0.50865 0.4763 0.8926 0.0
H2983 H 0.49355 0.4799 0.87284 0.0
H2984 H 0.45832 0.48034 0.89976 0.0
H2985 H 0.47339 0.47655 0.91955 0.0
H2986 H 0.45282 0.46557 0.87786 0.0
H2987 H 0.47171 0.51025 0.88569 0.0
H2988 H 0.48996 0.5275 0.88925 0.0
H2989 H 0.5066 0.5184 0.8494 0.0
H2990 H 0.48856 0.50094 0.84568 0.0
H2991 H 0.40622 0.49445 0.82912 0.0
H2992 H 0.42106 0.49125 0.84921 0.0
H2993 H 0.45592 0.48514 0.82254 0.0
H2994 H 0.44114 0.48841 0.8024 0.0
H2995 H 0.46125 0.50313 0.84441 0.0
H2996 H 0.4418 0.45816 0.83708 0.0
H2997 H 0.42294 0.44152 0.83386 0.0
H2998 H 0.40654 0.45216 0.87343 0.0
H2999 H 0.42521 0.46903 0.87679 0.0
C3000 C 0.4977 0.47727 0.89431 0.0
C3001 C 0.49221 0.4762 0.90764 0.0
C3002 C 0.48907 0.47934 0.88301 0.0
C3003 C 0.4748 0.48059 0.88482 0.0
C3004 C 0.46929 0.47941 0.89811 0.0
C3005 C 0.47791 0.47723 0.9094 0.0
C3006 C 0.46562 0.48295 0.87283 0.0
C3007 C 0.45456 0.47391 0.87067 0.0
C3008 C 0.468 0.49368 0.86328 0.0
C3009 C 0.47886 0.50419 0.86547 0.0
C3010 C 0.47933 0.51184 0.87773 0.0
C3011 C 0.48962 0.52167 0.87977 0.0
C3012 C 0.49945 0.52402 0.86957 0.0
C3013 C 0.49899 0.51656 0.8573 0.0
C3014 C 0.48872 0.5067 0.85522 0.0
C3015 C 0.41706 0.49249 0.82755 0.0
C3016 C 0.42252 0.49165 0.8142 0.0
C3017 C 0.4255 0.49059 0.83902 0.0
C3018 C 0.43957 0.48787 0.83735 0.0
C3019 C 0.44509 0.48719 0.82404 0.0
C3020 C 0.43662 0.48897 0.81256 0.0
C3021 C 0.44854 0.48574 0.84948 0.0
C3022 C 0.45954 0.49482 0.85165 0.0
C3023 C 0.44602 0.47514 0.8591 0.0
C3024 C 0.43482 0.46496 0.85712 0.0
C3025 C 0.43411 0.45704 0.84504 0.0
C3026 C 0.42347 0.44755 0.8432 0.0
C3027 C 0.41353 0.44581 0.85342 0.0
C3028 C 0.41424 0.45354 0.86552 0.0
C3029 C 0.42485 0.46305 0.8674 0.0
H3030 H 0.4053 0.43846 0.85198 0.0
H3031 H 0.50742 0.53163 0.87117 0.0
H3032 H 0.72167 0.72282 0.1671 0.0
H3033 H 0.72522 0.708 0.14713 0.0
H3034 H 0.73833 0.74304 0.12334 0.0
H3035 H 0.73429 0.75802 0.1431 0.0
H3036 H 0.72114 0.72748 0.10884 0.0
H3037 H 0.76155 0.71959 0.13592 0.0
H3038 H 0.77462 0.71368 0.15681 0.0
H3039 H 0.75583 0.67373 0.1575 0.0
H3040 H 0.7425 0.67947 0.13671 0.0
H3041 H 0.75031 0.69033 0.0531 0.0
H3042 H 0.74709 0.70524 0.07308 0.0
H3043 H 0.73255 0.67063 0.09665 0.0
H3044 H 0.73562 0.65567 0.07669 0.0
H3045 H 0.75066 0.686 0.11121 0.0
H3046 H 0.71017 0.69409 0.08413 0.0
H3047 H 0.69726 0.70005 0.06315 0.0
H3048 H 0.71647 0.73979 0.0624 0.0
H3049 H 0.72965 0.734 0.08328 0.0
C3050 C 0.72521 0.7274 0.15759 0.0
C3051 C 0.72772 0.74162 0.15672 0.0
C3052 C 0.72737 0.71888 0.14622 0.0
C3053 C 0.73221 0.72437 0.13378 0.0
C3054 C 0.73465 0.73856 0.13285 0.0
C3055 C 0.73246 0.74709 0.1442 0.0
C3056 C 0.73451 0.71537 0.12166 0.0
C3057 C 0.72776 0.71852 0.10931 0.0
C3058 C 0.74289 0.7035 0.12234 0.0
C3059 C 0.75092 0.70001 0.13483 0.0
C3060 C 0.76012 0.70958 0.14058 0.0
C3061 C 0.76759 0.70626 0.1524 0.0
C3062 C 0.76603 0.69336 0.1585 0.0
C3063 C 0.75702 0.68373 0.15278 0.0
C3064 C 0.74951 0.68701 0.14097 0.0
C3065 C 0.7463 0.68591 0.06249 0.0
C3066 C 0.74318 0.67181 0.06327 0.0
C3067 C 0.7445 0.69444 0.07391 0.0
C3068 C 0.73946 0.68907 0.08632 0.0
C3069 C 0.73648 0.67498 0.08719 0.0
C3070 C 0.73829 0.66644 0.07578 0.0
C3071 C 0.73729 0.69813 0.09841 0.0
C3072 C 0.74406 0.69498 0.11075 0.0
C3073 C 0.72895 0.71002 0.09771 0.0
C3074 C 0.72099 0.71355 0.08519 0.0
C3075 C 0.71172 0.70406 0.07943 0.0
C3076 C 0.70434 0.70741 0.06757 0.0
C3077 C 0.70607 0.72028 0.06142 0.0
C3078 C 0.71516 0.72983 0.06716 0.0
C3079 C 0.72258 0.72651 0.07901 0.0
H3080 H 0.70035 0.72286 0.05224 0.0
H3081 H 0.77183 0.6908 0.16764 0.0
H3082 H 0.00777 0.0244 0.10792 0.0
H3083 H 0.99251 0.02108 0.12759 0.0
H3084 H 0.95738 0.02169 0.10052 0.0
H3085 H 0.97261 0.02517 0.08081 0.0
H3086 H 0.95241 0.03665 0.12262 0.0
H3087 H 0.96975 0.9914 0.11434 0.0
H3088 H 0.98748 0.97368 0.11069 0.0
H3089 H 0.00427 0.98194 0.15069 0.0
H3090 H 0.98675 0.99986 0.1545 0.0
H3091 H 0.90459 0.00978 0.17114 0.0
H3092 H 0.91949 0.0126 0.15106 0.0
H3093 H 0.95487 0.01547 0.17764 0.0
H3094 H 0.94007 0.01241 0.19775 0.0
H3095 H 0.95935 0.99842 0.15561 0.0
H3096 H 0.94178 0.04394 0.16353 0.0
H3097 H 0.9237 0.06133 0.16698 0.0
H3098 H 0.90683 0.05197 0.12726 0.0
H3099 H 0.92472 0.03437 0.12365 0.0
C3100 C 0.9968 0.02371 0.10615 0.0
C3101 C 0.99139 0.02498 0.0928 0.0
C3102 C 0.98809 0.0218 0.1174 0.0
C3103 C 0.9738 0.02094 0.11553 0.0
C3104 C 0.96836 0.02232 0.10223 0.0
C3105 C 0.97707 0.02433 0.09097 0.0
C3106 C 0.96452 0.01877 0.12747 0.0
C3107 C 0.95381 0.02817 0.12971 0.0
C3108 C 0.96649 0.00786 0.13689 0.0
C3109 C 0.97702 0.99706 0.13465 0.0
C3110 C 0.97729 0.98951 0.12232 0.0
C3111 C 0.98729 0.97942 0.12023 0.0
C3112 C 0.99701 0.97671 0.13044 0.0
C3113 C 0.99674 0.98407 0.14278 0.0
C3114 C 0.98677 0.99418 0.14491 0.0
C3115 C 0.91556 0.01093 0.1727 0.0
C3116 C 0.92115 0.01091 0.18603 0.0
C3117 C 0.92404 0.01264 0.16123 0.0
C3118 C 0.93827 0.01437 0.16288 0.0
C3119 C 0.94391 0.01419 0.17615 0.0
C3120 C 0.93543 0.01256 0.18763 0.0
C3121 C 0.94731 0.01631 0.15075 0.0
C3122 C 0.95796 0.00687 0.14848 0.0
C3123 C 0.94523 0.02713 0.14126 0.0
C3124 C 0.93451 0.03774 0.14338 0.0
C3125 C 0.93415 0.04551 0.15558 0.0
C3126 C 0.92395 0.05542 0.15755 0.0
C3127 C 0.9141 0.05773 0.14736 0.0
C3128 C 0.91446 0.05016 0.13515 0.0
C3129 C 0.92463 0.04022 0.13313 0.0
H3130 H 0.90621 0.06541 0.1489 0.0
H3131 H 0.00475 0.9689 0.1288 0.0
H3132 H 0.25495 0.76132 0.16152 0.0
H3133 H 0.25144 0.77645 0.14178 0.0
H3134 H 0.29462 0.77394 0.13206 0.0
H3135 H 0.2982 0.75883 0.15182 0.0
H3136 H 0.28586 0.79979 0.13015 0.0
H3137 H 0.27043 0.75592 0.11359 0.0
H3138 H 0.25682 0.73452 0.114 0.0
H3139 H 0.21948 0.75795 0.11249 0.0
H3140 H 0.23287 0.7795 0.11226 0.0
H3141 H 0.28288 0.82628 0.06224 0.0
H3142 H 0.286 0.8115 0.08228 0.0
H3143 H 0.24298 0.81552 0.09211 0.0
H3144 H 0.23978 0.83044 0.07214 0.0
H3145 H 0.2514 0.7891 0.09408 0.0
H3146 H 0.26698 0.83299 0.11033 0.0
H3147 H 0.28069 0.85431 0.10976 0.0
H3148 H 0.31791 0.83072 0.11167 0.0
H3149 H 0.30441 0.80924 0.11206 0.0
C3150 C 0.26368 0.76389 0.15511 0.0
C3151 C 0.27685 0.75883 0.15822 0.0
C3152 C 0.26166 0.77255 0.14383 0.0
C3153 C 0.27274 0.77621 0.13533 0.0
C3154 C 0.28592 0.77127 0.13848 0.0
C3155 C 0.28796 0.76266 0.14979 0.0
C3156 C 0.27062 0.78527 0.12322 0.0
C3157 C 0.27845 0.79735 0.12217 0.0
C3158 C 0.26073 0.78227 0.11296 0.0
C3159 C 0.25266 0.76932 0.11305 0.0
C3160 C 0.25932 0.75651 0.11345 0.0
C3161 C 0.25164 0.74435 0.11363 0.0
C3162 C 0.2373 0.74488 0.11331 0.0
C3163 C 0.2306 0.75756 0.11276 0.0
C3164 C 0.23822 0.76975 0.11259 0.0
C3165 C 0.2741 0.82416 0.06874 0.0
C3166 C 0.26109 0.82961 0.0656 0.0
C3167 C 0.2759 0.81567 0.08018 0.0
C3168 C 0.26475 0.81251 0.08878 0.0
C3169 C 0.25172 0.81781 0.08561 0.0
C3170 C 0.24991 0.82631 0.07417 0.0
C3171 C 0.26666 0.80358 0.101 0.0
C3172 C 0.2588 0.79153 0.10207 0.0
C3173 C 0.27654 0.80659 0.11126 0.0
C3174 C 0.28468 0.8195 0.1111 0.0
C3175 C 0.27809 0.83235 0.11052 0.0
C3176 C 0.28582 0.84446 0.11025 0.0
C3177 C 0.30016 0.84387 0.11064 0.0
C3178 C 0.3068 0.83116 0.11135 0.0
C3179 C 0.29911 0.81901 0.11161 0.0
H3180 H 0.30613 0.85326 0.11043 0.0
H3181 H 0.23137 0.73545 0.11344 0.0
H3182 H 0.9912 0.47257 0.11197 0.0
H3183 H 0.00615 0.47595 0.13191 0.0
H3184 H 0.0411 0.48049 0.10497 0.0
H3185 H 0.0262 0.47683 0.08503 0.0
H3186 H 0.04778 0.46487 0.12569 0.0
H3187 H 0.0254 0.50849 0.12121 0.0
H3188 H 0.00573 0.52433 0.11919 0.0
H3189 H 0.99074 0.51109 0.15853 0.0
H3190 H 0.01023 0.49503 0.1607 0.0
H3191 H 0.09371 0.49398 0.17449 0.0
H3192 H 0.07844 0.49062 0.15483 0.0
H3193 H 0.04478 0.4819 0.18231 0.0
H3194 H 0.06004 0.485 0.20206 0.0
H3195 H 0.03742 0.49962 0.16156 0.0
H3196 H 0.06042 0.45609 0.1658 0.0
H3197 H 0.08053 0.44081 0.1676 0.0
H3198 H 0.09489 0.45471 0.12825 0.0
H3199 H 0.07495 0.47023 0.12631 0.0
C3200 C 0.00205 0.47439 0.11031 0.0
C3201 C 0.00753 0.47448 0.09694 0.0
C3202 C 0.01059 0.47634 0.12171 0.0
C3203 C 0.02474 0.47868 0.11996 0.0
C3204 C 0.03023 0.4787 0.1066 0.0
C3205 C 0.02172 0.4766 0.09521 0.0
C3206 C 0.03387 0.48089 0.13203 0.0
C3207 C 0.04559 0.47261 0.13342 0.0
C3208 C 0.0309 0.49078 0.1423 0.0
C3209 C 0.0192 0.50046 0.14105 0.0
C3210 C 0.01785 0.50888 0.12938 0.0
C3211 C 0.00675 0.51791 0.12822 0.0
C3212 C 0.99698 0.51869 0.13871 0.0
C3213 C 0.99831 0.51047 0.15041 0.0
C3214 C 0.00939 0.50141 0.15161 0.0
C3215 C 0.0831 0.4912 0.17637 0.0
C3216 C 0.07814 0.48969 0.18988 0.0
C3217 C 0.07437 0.48933 0.16512 0.0
C3218 C 0.06051 0.48589 0.16711 0.0
C3219 C 0.05545 0.48457 0.18055 0.0
C3220 C 0.06418 0.4864 0.19182 0.0
C3221 C 0.05129 0.48364 0.15515 0.0
C3222 C 0.03956 0.4919 0.1538 0.0
C3223 C 0.05431 0.47381 0.14486 0.0
C3224 C 0.06626 0.46441 0.14597 0.0
C3225 C 0.06792 0.45597 0.15758 0.0
C3226 C 0.07928 0.44725 0.15862 0.0
C3227 C 0.089 0.44681 0.14806 0.0
C3228 C 0.08736 0.45507 0.13643 0.0
C3229 C 0.07603 0.46382 0.13535 0.0
H3230 H 0.09779 0.44006 0.14888 0.0
H3231 H 0.98839 0.52569 0.1378 0.0
H3232 H 0.35869 0.73099 0.24482 0.0
H3233 H 0.37845 0.73457 0.25991 0.0
H3234 H 0.35338 0.72496 0.29519 0.0
H3235 H 0.33343 0.72182 0.28019 0.0
H3236 H 0.36935 0.74687 0.30019 0.0
H3237 H 0.37589 0.70152 0.28233 0.0
H3238 H 0.3779 0.68372 0.26439 0.0
H3239 H 0.41282 0.70462 0.24729 0.0
H3240 H 0.4109 0.72267 0.26502 0.0
H3241 H 0.42439 0.73591 0.34733 0.0
H3242 H 0.40431 0.73259 0.3325 0.0
H3243 H 0.42825 0.74474 0.29723 0.0
H3244 H 0.44841 0.74793 0.31198 0.0
H3245 H 0.4128 0.72137 0.29246 0.0
H3246 H 0.40601 0.76678 0.31061 0.0
H3247 H 0.40394 0.78426 0.32886 0.0
H3248 H 0.36935 0.76271 0.34583 0.0
H3249 H 0.37135 0.74498 0.32779 0.0
C3250 C 0.35733 0.72977 0.2558 0.0
C3251 C 0.34447 0.72609 0.26129 0.0
C3252 C 0.36868 0.73169 0.26441 0.0
C3253 C 0.36744 0.72986 0.27867 0.0
C3254 C 0.35458 0.72637 0.28421 0.0
C3255 C 0.34322 0.72446 0.27561 0.0
C3256 C 0.37955 0.73163 0.2878 0.0
C3257 C 0.37878 0.74115 0.29862 0.0
C3258 C 0.39196 0.72436 0.28559 0.0
C3259 C 0.39316 0.71352 0.27492 0.0
C3260 C 0.38393 0.70238 0.27467 0.0
C3261 C 0.38507 0.69224 0.26456 0.0
C3262 C 0.39546 0.69306 0.25469 0.0
C3263 C 0.40476 0.70401 0.25493 0.0
C3264 C 0.40366 0.7142 0.26502 0.0
C3265 C 0.42538 0.73781 0.33641 0.0
C3266 C 0.43797 0.74221 0.33082 0.0
C3267 C 0.41389 0.736 0.32797 0.0
C3268 C 0.41477 0.73852 0.31379 0.0
C3269 C 0.42735 0.74278 0.30816 0.0
C3270 C 0.43882 0.74469 0.3166 0.0
C3271 C 0.40259 0.73663 0.3048 0.0
C3272 C 0.40335 0.72708 0.29403 0.0
C3273 C 0.39017 0.74382 0.30709 0.0
C3274 C 0.38892 0.75448 0.31793 0.0
C3275 C 0.39804 0.7657 0.3183 0.0
C3276 C 0.39686 0.77567 0.32859 0.0
C3277 C 0.38654 0.77457 0.33852 0.0
C3278 C 0.37735 0.76353 0.33815 0.0
C3279 C 0.3785 0.75353 0.32789 0.0
H3280 H 0.38565 0.7823 0.34647 0.0
H3281 H 0.39633 0.68519 0.24686 0.0
H3282 H 0.95442 0.40554 0.98684 0.0
H3283 H 0.95787 0.38577 0.97181 0.0
H3284 H 0.00094 0.38523 0.98232 0.0
H3285 H 0.99773 0.40548 0.99682 0.0
H3286 H 0.99792 0.381 0.95579 0.0
H3287 H 0.97764 0.36213 0.9965 0.0
H3288 H 0.96042 0.36004 0.01497 0.0
H3289 H 0.92909 0.35136 0.9851 0.0
H3290 H 0.94609 0.35359 0.96642 0.0
H3291 H 0.01154 0.31353 0.93097 0.0
H3292 H 0.00844 0.33349 0.94597 0.0
H3293 H 0.96611 0.33655 0.93318 0.0
H3294 H 0.96904 0.31642 0.91838 0.0
H3295 H 0.96898 0.3393 0.961 0.0
H3296 H 0.98972 0.35824 0.92031 0.0
H3297 H 0.00728 0.36004 0.90213 0.0
H3298 H 0.03825 0.36815 0.93254 0.0
H3299 H 0.0209 0.36621 0.95093 0.0
C3300 C 0.96468 0.40135 0.98583 0.0
C3301 C 0.97579 0.40712 0.9931 0.0
C3302 C 0.96659 0.38992 0.97736 0.0
C3303 C 0.97962 0.38385 0.97611 0.0
C3304 C 0.99078 0.38968 0.98318 0.0
C3305 C 0.98889 0.40118 0.99159 0.0
C3306 C 0.98162 0.37147 0.96737 0.0
C3307 C 0.99172 0.37181 0.95707 0.0
C3308 C 0.97336 0.35956 0.96884 0.0
C3309 C 0.96312 0.35816 0.98005 0.0
C3310 C 0.96706 0.35988 0.99386 0.0
C3311 C 0.95734 0.35865 0.00437 0.0
C3312 C 0.94367 0.3556 0.00121 0.0
C3313 C 0.93968 0.35374 0.98753 0.0
C3314 C 0.94936 0.35497 0.97698 0.0
C3315 C 0.00154 0.31839 0.93144 0.0
C3316 C 0.99054 0.31341 0.92346 0.0
C3317 C 0.99982 0.32985 0.93992 0.0
C3318 C 0.98708 0.33658 0.94058 0.0
C3319 C 0.97603 0.33154 0.93279 0.0
C3320 C 0.97776 0.3201 0.92426 0.0
C3321 C 0.98524 0.34887 0.94944 0.0
C3322 C 0.97518 0.34849 0.95976 0.0
C3323 C 0.99359 0.3607 0.94805 0.0
C3324 C 0.00403 0.36194 0.937 0.0
C3325 C 1.00029 0.3603 0.92313 0.0
C3326 C 0.01021 0.36136 0.91279 0.0
C3327 C 0.02388 0.36417 0.91618 0.0
C3328 C 0.02766 0.36596 0.92993 0.0
C3329 C 0.01779 0.36489 0.94031 0.0
H3330 H 0.03154 0.365 0.90816 0.0
H3331 H 0.93616 0.35466 0.00936 0.0
H3332 H 0.66307 0.79053 0.2729 0.0
H3333 H 0.64328 0.78697 0.28775 0.0
H3334 H 0.62826 0.75539 0.26042 0.0
H3335 H 0.64746 0.75967 0.2449 0.0
H3336 H 0.60781 0.76977 0.26814 0.0
H3337 H 0.64456 0.74832 0.29238 0.0
H3338 H 0.66744 0.74634 0.3031 0.0
H3339 H 0.65746 0.77894 0.33113 0.0
H3340 H 0.63457 0.78124 0.32045 0.0
H3341 H 0.56141 0.7413 0.31819 0.0
H3342 H 0.58091 0.74419 0.30262 0.0
H3343 H 0.59089 0.78278 0.32199 0.0
H3344 H 0.57106 0.7804 0.33715 0.0
H3345 H 0.61371 0.76378 0.31844 0.0
H3346 H 0.57645 0.78463 0.2929 0.0
H3347 H 0.55346 0.78489 0.28224 0.0
H3348 H 0.56463 0.7507 0.25666 0.0
H3349 H 0.58764 0.75011 0.26733 0.0
C3350 C 0.65548 0.78296 0.26989 0.0
C3351 C 0.65696 0.77539 0.25763 0.0
C3352 C 0.64424 0.78077 0.27855 0.0
C3353 C 0.63438 0.7707 0.27539 0.0
C3354 C 0.63576 0.76316 0.26315 0.0
C3355 C 0.64688 0.76551 0.25435 0.0
C3356 C 0.62248 0.76823 0.2847 0.0
C3357 C 0.60916 0.76824 0.2791 0.0
C3358 C 0.62414 0.76639 0.29906 0.0
C3359 C 0.63789 0.76503 0.30553 0.0
C3360 C 0.64728 0.75513 0.30076 0.0
C3361 C 0.66025 0.75394 0.30684 0.0
C3362 C 0.66391 0.76253 0.31776 0.0
C3363 C 0.65461 0.77231 0.32265 0.0
C3364 C 0.64163 0.77355 0.3166 0.0
C3365 C 0.56759 0.75053 0.31904 0.0
C3366 C 0.56458 0.76062 0.32899 0.0
C3367 C 0.5788 0.75209 0.31018 0.0
C3368 C 0.58731 0.76369 0.31119 0.0
C3369 C 0.58447 0.77371 0.32113 0.0
C3370 C 0.57315 0.77227 0.32985 0.0
C3371 C 0.5992 0.76541 0.30184 0.0
C3372 C 0.61246 0.76525 0.30746 0.0
C3373 C 0.59751 0.76684 0.28749 0.0
C3374 C 0.58371 0.76724 0.28102 0.0
C3375 C 0.57397 0.77709 0.2851 0.0
C3376 C 0.56094 0.77731 0.27903 0.0
C3377 C 0.55757 0.76779 0.26881 0.0
C3378 C 0.56724 0.75805 0.2646 0.0
C3379 C 0.58028 0.75778 0.27064 0.0
H3380 H 0.54748 0.76798 0.26412 0.0
H3381 H 0.67396 0.7616 0.32246 0.0
H3382 H 0.04702 0.1001 0.9916 0.0
H3383 H 0.04336 0.11997 0.97668 0.0
H3384 H 1.00048 0.10933 0.97289 0.0
H3385 H 0.00413 0.08923 0.98756 0.0
H3386 H 0.01165 0.11644 0.9482 0.0
H3387 H 0.01017 0.13506 0.99388 0.0
H3388 H 0.01871 0.13933 0.01737 0.0
H3389 H 0.05452 0.15929 0.001 0.0
H3390 H 0.04628 0.15497 0.9774 0.0
H3391 H 0.9889 0.17992 0.92015 0.0
H3392 H 0.99219 0.15967 0.93464 0.0
H3393 H 0.03466 0.17089 0.94075 0.0
H3394 H 0.03142 0.19121 0.92634 0.0
H3395 H 0.02341 0.16338 0.96436 0.0
H3396 H 0.02517 0.14469 0.91874 0.0
H3397 H 0.01687 0.14034 0.89518 0.0
H3398 H 0.9809 0.12043 0.91125 0.0
H3399 H 0.9889 0.12483 0.93492 0.0
C3400 C 0.03683 0.10191 0.98749 0.0
C3401 C 0.02585 0.0931 0.9908 0.0
C3402 C 0.03474 0.11334 0.97906 0.0
C3403 C 0.02161 0.11622 0.9738 0.0
C3404 C 0.01068 0.10733 0.97689 0.0
C3405 C 0.01276 0.09591 0.98536 0.0
C3406 C 0.0193 0.12853 0.9651 0.0
C3407 C 0.01404 0.12673 0.95179 0.0
C3408 C 0.02272 0.14191 0.96969 0.0
C3409 C 0.02767 0.14458 0.98387 0.0
C3410 C 0.01992 0.14027 0.99529 0.0
C3411 C 0.0247 0.14271 0.00862 0.0
C3412 C 0.03717 0.14955 0.01068 0.0
C3413 C 0.04487 0.15398 0.9994 0.0
C3414 C 0.04015 0.15155 0.98604 0.0
C3415 C 0.99897 0.17801 0.92448 0.0
C3416 C 0.00991 0.18715 0.92206 0.0
C3417 C 0.00084 0.16643 0.93277 0.0
C3418 C 0.01372 0.16366 0.93867 0.0
C3419 C 0.02463 0.17282 0.93633 0.0
C3420 C 0.02275 0.18444 0.92812 0.0
C3421 C 0.01581 0.15131 0.94741 0.0
C3422 C 0.02101 0.1531 0.96075 0.0
C3423 C 0.01238 0.13792 0.94283 0.0
C3424 C 0.00757 0.13521 0.9286 0.0
C3425 C 0.01544 0.13947 0.91725 0.0
C3426 C 0.0108 0.13698 0.90387 0.0
C3427 C 0.99835 0.13014 0.90172 0.0
C3428 C 0.99053 0.12574 0.91293 0.0
C3429 C 0.99512 0.12822 0.92633 0.0
H3430 H 0.99477 0.12822 0.89136 0.0
H3431 H 0.04085 0.15143 0.02101 0.0
H3432 H 0.33911 0.29141 0.22807 0.0
H3433 H 0.35895 0.28789 0.21324 0.0
H3434 H 0.37491 0.25776 0.24156 0.0
H3435 H 0.3556 0.26195 0.25696 0.0
H3436 H 0.39495 0.27272 0.23315 0.0
H3437 H 0.35857 0.24895 0.21025 0.0
H3438 H 0.33566 0.24589 0.19983 0.0
H3439 H 0.34469 0.27738 0.17027 0.0
H3440 H 0.36759 0.28076 0.18064 0.0
H3441 H 0.44212 0.24282 0.18516 0.0
H3442 H 0.4226 0.24627 0.20058 0.0
H3443 H 0.41085 0.2824 0.17784 0.0
H3444 H 0.43063 0.27942 0.1627 0.0
H3445 H 0.38886 0.26375 0.1833 0.0
H3446 H 0.42576 0.28697 0.20713 0.0
H3447 H 0.4488 0.2886 0.21757 0.0
H3448 H 0.43867 0.25597 0.24549 0.0
H3449 H 0.41563 0.254 0.23507 0.0
C3450 C 0.34692 0.28417 0.23129 0.0
C3451 C 0.34567 0.27695 0.24376 0.0
C3452 C 0.35819 0.28201 0.22266 0.0
C3453 C 0.36833 0.27235 0.22611 0.0
C3454 C 0.36719 0.26521 0.2386 0.0
C3455 C 0.35602 0.26751 0.24734 0.0
C3456 C 0.38022 0.26985 0.21682 0.0
C3457 C 0.39357 0.27056 0.2223 0.0
C3458 C 0.37851 0.26721 0.20259 0.0
C3459 C 0.36475 0.2652 0.19631 0.0
C3460 C 0.35563 0.25529 0.20159 0.0
C3461 C 0.34265 0.25349 0.19568 0.0
C3462 C 0.33871 0.26146 0.18441 0.0
C3463 C 0.34775 0.27123 0.17901 0.0
C3464 C 0.36073 0.27308 0.18489 0.0
C3465 C 0.43553 0.25163 0.18353 0.0
C3466 C 0.43802 0.26085 0.17265 0.0
C3467 C 0.42432 0.25352 0.19231 0.0
C3468 C 0.41532 0.2646 0.19035 0.0
C3469 C 0.41765 0.27374 0.17947 0.0
C3470 C 0.42894 0.27196 0.17077 0.0
C3471 C 0.40346 0.26668 0.19966 0.0
C3472 C 0.39015 0.26588 0.19418 0.0
C3473 C 0.4052 0.26902 0.21391 0.0
C3474 C 0.41902 0.27024 0.22022 0.0
C3475 C 0.42849 0.28006 0.21541 0.0
C3476 C 0.44154 0.28106 0.22135 0.0
C3477 C 0.44521 0.27237 0.23216 0.0
C3478 C 0.43582 0.26268 0.2371 0.0
C3479 C 0.42276 0.26162 0.23119 0.0
H3480 H 0.45532 0.27316 0.23674 0.0
H3481 H 0.32866 0.26005 0.17985 0.0
H3482 H 0.52417 0.39289 0.99341 0.0
H3483 H 0.5208 0.37303 0.00842 0.0
H3484 H 0.52268 0.39951 0.04398 0.0
H3485 H 0.52621 0.4194 0.029 0.0
H3486 H 0.53727 0.37719 0.04838 0.0
H3487 H 0.49189 0.3863 0.032 0.0
H3488 H 0.47382 0.39049 0.01473 0.0
H3489 H 0.48101 0.35067 0.99711 0.0
H3490 H 0.49928 0.34632 0.01416 0.0
H3491 H 0.5091 0.3289 0.09593 0.0
H3492 H 0.5122 0.34898 0.08106 0.0
H3493 H 0.51639 0.32235 0.04586 0.0
H3494 H 0.51328 0.30221 0.06068 0.0
H3495 H 0.49847 0.34476 0.04156 0.0
H3496 H 0.54412 0.33609 0.05851 0.0
H3497 H 0.56164 0.33224 0.07641 0.0
H3498 H 0.55302 0.37188 0.09379 0.0
H3499 H 0.53529 0.37588 0.07611 0.0
C3500 C 0.52375 0.39449 0.00442 0.0
C3501 C 0.5254 0.40772 0.01002 0.0
C3502 C 0.52181 0.38314 0.01299 0.0
C3503 C 0.5213 0.38479 0.02733 0.0
C3504 C 0.52304 0.39797 0.03295 0.0
C3505 C 0.52508 0.40933 0.02438 0.0
C3506 C 0.51912 0.37273 0.03646 0.0
C3507 C 0.52867 0.37023 0.047 0.0
C3508 C 0.50804 0.36347 0.03454 0.0
C3509 C 0.49705 0.36604 0.02428 0.0
C3510 C 0.4897 0.37848 0.02437 0.0
C3511 C 0.47941 0.38088 0.01464 0.0
C3512 C 0.47629 0.37086 0.00481 0.0
C3513 C 0.48345 0.35842 0.00472 0.0
C3514 C 0.49376 0.35598 0.01443 0.0
C3515 C 0.51063 0.32734 0.08501 0.0
C3516 C 0.51098 0.314 0.07946 0.0
C3517 C 0.51246 0.3388 0.07655 0.0
C3518 C 0.51459 0.33713 0.06238 0.0
C3519 C 0.51478 0.32384 0.05677 0.0
C3520 C 0.5131 0.31237 0.06525 0.0
C3521 C 0.51661 0.34926 0.0534 0.0
C3522 C 0.50704 0.35177 0.04291 0.0
C3523 C 0.52758 0.35859 0.05546 0.0
C3524 C 0.53827 0.35622 0.06607 0.0
C3525 C 0.54587 0.34394 0.06622 0.0
C3526 C 0.55586 0.34174 0.07632 0.0
C3527 C 0.55842 0.35179 0.08625 0.0
C3528 C 0.55101 0.36409 0.0861 0.0
C3529 C 0.541 0.36633 0.07604 0.0
H3530 H 0.56616 0.35007 0.09406 0.0
H3531 H 0.46832 0.37274 0.99728 0.0
H3532 H 0.66766 0.2206 0.22438 0.0
H3533 H 0.64784 0.22408 0.20938 0.0
H3534 H 0.6239 0.23774 0.2441 0.0
H3535 H 0.64352 0.23373 0.25928 0.0
H3536 H 0.60926 0.22074 0.22864 0.0
H3537 H 0.63696 0.2606 0.22042 0.0
H3538 H 0.65805 0.2734 0.21457 0.0
H3539 H 0.65896 0.25411 0.17486 0.0
H3540 H 0.63797 0.24106 0.18055 0.0
H3541 H 0.55456 0.2507 0.19058 0.0
H3542 H 0.57452 0.2476 0.20558 0.0
H3543 H 0.59745 0.23067 0.17163 0.0
H3544 H 0.57757 0.23392 0.15652 0.0
H3545 H 0.61251 0.24951 0.18667 0.0
H3546 H 0.58463 0.20964 0.19523 0.0
H3547 H 0.56334 0.19724 0.20124 0.0
H3548 H 0.56262 0.21719 0.24062 0.0
H3549 H 0.5838 0.22986 0.23476 0.0
C3550 C 0.65815 0.22422 0.22886 0.0
C3551 C 0.65721 0.2269 0.24305 0.0
C3552 C 0.64686 0.22635 0.22024 0.0
C3553 C 0.63442 0.23135 0.22558 0.0
C3554 C 0.63341 0.23394 0.23974 0.0
C3555 C 0.64468 0.23176 0.24838 0.0
C3556 C 0.62242 0.2337 0.21642 0.0
C3557 C 0.60993 0.22719 0.21957 0.0
C3558 C 0.62335 0.24189 0.20442 0.0
C3559 C 0.63596 0.24975 0.20096 0.0
C3560 C 0.64171 0.25901 0.21048 0.0
C3561 C 0.65364 0.26632 0.20719 0.0
C3562 C 0.65986 0.26454 0.19437 0.0
C3563 C 0.65414 0.25547 0.1848 0.0
C3564 C 0.64222 0.24812 0.18804 0.0
C3565 C 0.56389 0.24642 0.18629 0.0
C3566 C 0.56449 0.24252 0.17238 0.0
C3567 C 0.57525 0.24456 0.19488 0.0
C3568 C 0.58742 0.23879 0.18974 0.0
C3569 C 0.58814 0.2351 0.17581 0.0
C3570 C 0.57675 0.23687 0.16722 0.0
C3571 C 0.5994 0.23656 0.19891 0.0
C3572 C 0.61187 0.24308 0.19575 0.0
C3573 C 0.59844 0.22845 0.21094 0.0
C3574 C 0.58572 0.2208 0.2145 0.0
C3575 C 0.57987 0.21147 0.20513 0.0
C3576 C 0.56783 0.20438 0.20851 0.0
C3577 C 0.56161 0.20646 0.22129 0.0
C3578 C 0.56744 0.21561 0.23072 0.0
C3579 C 0.57946 0.22274 0.22738 0.0
H3580 H 0.5523 0.20095 0.22389 0.0
H3581 H 0.66909 0.27022 0.19184 0.0
H3582 H 0.48336 0.10681 0.99484 0.0
H3583 H 0.48704 0.12644 0.01008 0.0
H3584 H 0.47711 0.10119 0.04514 0.0
H3585 H 0.47347 0.08147 0.02995 0.0
H3586 H 0.46438 0.12568 0.04656 0.0
H3587 H 0.51029 0.10995 0.03816 0.0
H3588 H 0.53009 0.10294 0.02398 0.0
H3589 H 0.53115 0.14287 0.00525 0.0
H3590 H 0.51123 0.15007 0.01918 0.0
H3591 H 0.48764 0.17254 0.09746 0.0
H3592 H 0.48488 0.15228 0.08286 0.0
H3593 H 0.49527 0.17647 0.04719 0.0
H3594 H 0.49858 0.19665 0.06179 0.0
H3595 H 0.50797 0.15218 0.04643 0.0
H3596 H 0.46184 0.16778 0.05444 0.0
H3597 H 0.44198 0.17484 0.06849 0.0
H3598 H 0.44126 0.1352 0.08784 0.0
H3599 H 0.46125 0.12796 0.07403 0.0
C3600 C 0.48211 0.10538 0.0058 0.0
C3601 C 0.47818 0.09254 0.01117 0.0
C3602 C 0.4842 0.11662 0.01451 0.0
C3603 C 0.4825 0.11525 0.02877 0.0
C3604 C 0.47847 0.10249 0.03417 0.0
C3605 C 0.47636 0.09124 0.02546 0.0
C3606 C 0.48475 0.12719 0.03804 0.0
C3607 C 0.47398 0.13135 0.04668 0.0
C3608 C 0.49717 0.13478 0.03797 0.0
C3609 C 0.50919 0.1305 0.02962 0.0
C3610 C 0.51468 0.1172 0.03094 0.0
C3611 C 0.52593 0.1132 0.02296 0.0
C3612 C 0.53185 0.12244 0.0137 0.0
C3613 C 0.52654 0.13572 0.01242 0.0
C3614 C 0.51528 0.13977 0.02036 0.0
C3615 C 0.48948 0.17353 0.08653 0.0
C3616 C 0.49329 0.18625 0.0808 0.0
C3617 C 0.48776 0.16196 0.07817 0.0
C3618 C 0.48969 0.16289 0.0639 0.0
C3619 C 0.49367 0.17552 0.05817 0.0
C3620 C 0.49543 0.18708 0.06652 0.0
C3621 C 0.48758 0.1507 0.05492 0.0
C3622 C 0.49838 0.14649 0.04633 0.0
C3623 C 0.47518 0.14307 0.05502 0.0
C3624 C 0.46313 0.14738 0.0633 0.0
C3625 C 0.45751 0.16061 0.06177 0.0
C3626 C 0.44622 0.16463 0.06967 0.0
C3627 C 0.44038 0.15549 0.07908 0.0
C3628 C 0.4458 0.14228 0.08057 0.0
C3629 C 0.45711 0.1382 0.0727 0.0
H3630 H 0.43164 0.15862 0.08519 0.0
H3631 H 0.54056 0.11933 0.00753 0.0
H3632 H 0.25912 0.35231 0.70423 0.0
H3633 H 0.27441 0.37192 0.7079 0.0
H3634 H 0.27624 0.36253 0.7512 0.0
H3635 H 0.2609 0.34291 0.7476 0.0
H3636 H 0.27302 0.38938 0.74746 0.0
H3637 H 0.30304 0.35481 0.72965 0.0
H3638 H 0.31092 0.33708 0.71336 0.0
H3639 H 0.31295 0.3672 0.68118 0.0
H3640 H 0.30489 0.38509 0.69724 0.0
H3641 H 0.33118 0.43151 0.76256 0.0
H3642 H 0.31594 0.41179 0.75933 0.0
H3643 H 0.31061 0.42269 0.71671 0.0
H3644 H 0.32552 0.44266 0.7199 0.0
H3645 H 0.31591 0.39494 0.72043 0.0
H3646 H 0.28565 0.42945 0.73873 0.0
H3647 H 0.27813 0.44696 0.75544 0.0
H3648 H 0.27714 0.41646 0.78731 0.0
H3649 H 0.28485 0.3988 0.77082 0.0
C3650 C 0.26287 0.35435 0.71452 0.0
C3651 C 0.25884 0.34602 0.72562 0.0
C3652 C 0.2716 0.36557 0.71661 0.0
C3653 C 0.27663 0.3686 0.72981 0.0
C3654 C 0.2725 0.3604 0.74093 0.0
C3655 C 0.2637 0.34921 0.73886 0.0
C3656 C 0.2861 0.38039 0.73201 0.0
C3657 C 0.2825 0.39048 0.74169 0.0
C3658 C 0.29835 0.38198 0.72431 0.0
C3659 C 0.30323 0.37126 0.71462 0.0
C3660 C 0.30506 0.35763 0.71907 0.0
C3661 C 0.30958 0.34755 0.70988 0.0
C3662 C 0.3124 0.351 0.69623 0.0
C3663 C 0.31074 0.36454 0.69175 0.0
C3664 C 0.30621 0.37465 0.7009 0.0
C3665 C 0.32665 0.42984 0.75253 0.0
C3666 C 0.32958 0.43874 0.7415 0.0
C3667 C 0.31799 0.41851 0.75069 0.0
C3668 C 0.31209 0.41583 0.7378 0.0
C3669 C 0.3151 0.42456 0.72673 0.0
C3670 C 0.32368 0.43594 0.72858 0.0
C3671 C 0.30279 0.4039 0.73583 0.0
C3672 C 0.30644 0.39379 0.72621 0.0
C3673 C 0.29064 0.40224 0.74364 0.0
C3674 C 0.28597 0.41284 0.75357 0.0
C3675 C 0.28394 0.4265 0.74932 0.0
C3676 C 0.27962 0.43645 0.75875 0.0
C3677 C 0.2772 0.43283 0.77244 0.0
C3678 C 0.27905 0.41925 0.77671 0.0
C3679 C 0.28338 0.40927 0.76732 0.0
H3680 H 0.27385 0.44054 0.77972 0.0
H3681 H 0.3159 0.34318 0.68913 0.0
H3682 H 0.24366 0.64567 0.76326 0.0
H3683 H 0.25889 0.6262 0.75935 0.0
H3684 H 0.28905 0.64428 0.78642 0.0
H3685 H 0.2743 0.66426 0.78961 0.0
H3686 H 0.30153 0.63421 0.76539 0.0
H3687 H 0.26739 0.61676 0.79623 0.0
H3688 H 0.24398 0.61162 0.80447 0.0
H3689 H 0.23669 0.58649 0.76889 0.0
H3690 H 0.26001 0.59164 0.76035 0.0
H3691 H 0.34022 0.57337 0.77802 0.0
H3692 H 0.3249 0.59301 0.78081 0.0
H3693 H 0.2998 0.57836 0.74734 0.0
H3694 H 0.31536 0.55892 0.74406 0.0
H3695 H 0.28479 0.58638 0.77125 0.0
H3696 H 0.31992 0.60394 0.74112 0.0
H3697 H 0.34378 0.60883 0.73411 0.0
H3698 H 0.34962 0.63355 0.77023 0.0
H3699 H 0.32584 0.62863 0.77757 0.0
C3700 C 0.2536 0.64564 0.76824 0.0
C3701 C 0.25769 0.65659 0.77679 0.0
C3702 C 0.26224 0.63437 0.76615 0.0
C3703 C 0.27504 0.63361 0.77279 0.0
C3704 C 0.2792 0.64456 0.78124 0.0
C3705 C 0.27066 0.65593 0.78319 0.0
C3706 C 0.28418 0.62152 0.7708 0.0
C3707 C 0.29788 0.62377 0.76686 0.0
C3708 C 0.27941 0.60784 0.77246 0.0
C3709 C 0.2654 0.6047 0.77759 0.0
C3710 C 0.26076 0.61022 0.79011 0.0
C3711 C 0.24751 0.60729 0.79485 0.0
C3712 C 0.23884 0.59876 0.78719 0.0
C3713 C 0.24341 0.59311 0.7748 0.0
C3714 C 0.25665 0.59602 0.77001 0.0
C3715 C 0.33158 0.57438 0.77109 0.0
C3716 C 0.32912 0.56454 0.76075 0.0
C3717 C 0.32277 0.58559 0.77278 0.0
C3718 C 0.31127 0.58716 0.76423 0.0
C3719 C 0.30861 0.57729 0.75406 0.0
C3720 C 0.31749 0.56614 0.75226 0.0
C3721 C 0.30205 0.59914 0.76592 0.0
C3722 C 0.28836 0.59684 0.76979 0.0
C3723 C 0.30687 0.61277 0.76439 0.0
C3724 C 0.32114 0.61581 0.75996 0.0
C3725 C 0.32633 0.61032 0.74763 0.0
C3726 C 0.33983 0.61312 0.74358 0.0
C3727 C 0.34822 0.62147 0.75174 0.0
C3728 C 0.34311 0.62707 0.76394 0.0
C3729 C 0.32962 0.62429 0.76804 0.0
H3730 H 0.35867 0.62362 0.74859 0.0
H3731 H 0.22859 0.5965 0.79087 0.0
H3732 H 0.90261 0.49114 0.45634 0.0
H3733 H 0.88264 0.47622 0.45959 0.0
H3734 H 0.89207 0.47291 0.5028 0.0
H3735 H 0.91228 0.48757 0.49955 0.0
H3736 H 0.88537 0.44811 0.49177 0.0
H3737 H 0.86646 0.49356 0.49218 0.0
H3738 H 0.86228 0.51695 0.48339 0.0
H3739 H 0.84351 0.50017 0.44711 0.0
H3740 H 0.84776 0.47666 0.45559 0.0
H3741 H 0.82091 0.42089 0.51322 0.0
H3742 H 0.84129 0.43528 0.51017 0.0
H3743 H 0.83222 0.43908 0.46694 0.0
H3744 H 0.81191 0.42456 0.46985 0.0
H3745 H 0.83876 0.46367 0.47821 0.0
H3746 H 0.85773 0.4182 0.47779 0.0
H3747 H 0.86191 0.39482 0.48662 0.0
H3748 H 0.88052 0.41165 0.52296 0.0
H3749 H 0.87628 0.43515 0.51443 0.0
C3750 C 0.90051 0.48714 0.46651 0.0
C3751 C 0.90902 0.49057 0.4777 0.0
C3752 C 0.88902 0.47871 0.46838 0.0
C3753 C 0.88578 0.47357 0.48147 0.0
C3754 C 0.89435 0.47681 0.49262 0.0
C3755 C 0.90583 0.48527 0.49077 0.0
C3756 C 0.87345 0.46481 0.4835 0.0
C3757 C 0.87515 0.45158 0.48898 0.0
C3758 C 0.86015 0.46923 0.47959 0.0
C3759 C 0.85756 0.48335 0.47447 0.0
C3760 C 0.86155 0.49485 0.48228 0.0
C3761 C 0.85914 0.50813 0.47736 0.0
C3762 C 0.85267 0.51004 0.46468 0.0
C3763 C 0.84855 0.49868 0.45691 0.0
C3764 C 0.85094 0.48537 0.46178 0.0
C3765 C 0.82333 0.42464 0.50302 0.0
C3766 C 0.81477 0.42153 0.49177 0.0
C3767 C 0.83497 0.4329 0.50131 0.0
C3768 C 0.83834 0.43816 0.4883 0.0
C3769 C 0.82979 0.43515 0.47707 0.0
C3770 C 0.81816 0.42689 0.47877 0.0
C3771 C 0.85068 0.44696 0.48644 0.0
C3772 C 0.84898 0.4602 0.48099 0.0
C3773 C 0.86397 0.44255 0.49039 0.0
C3774 C 0.86656 0.42843 0.49553 0.0
C3775 C 0.86261 0.41692 0.48772 0.0
C3776 C 0.86501 0.40365 0.49266 0.0
C3777 C 0.87144 0.40175 0.50536 0.0
C3778 C 0.87552 0.41313 0.51313 0.0
C3779 C 0.87313 0.42643 0.50825 0.0
H3780 H 0.87329 0.39147 0.50916 0.0
H3781 H 0.85081 0.52033 0.4609 0.0
H3782 H 0.76066 0.86004 0.7753 0.0
H3783 H 0.74555 0.87985 0.77197 0.0
H3784 H 0.71012 0.85323 0.77383 0.0
H3785 H 0.72519 0.83333 0.7769 0.0
H3786 H 0.70829 0.87187 0.7528 0.0
H3787 H 0.7186 0.87245 0.80115 0.0
H3788 H 0.73374 0.87249 0.82148 0.0
H3789 H 0.75212 0.91032 0.80806 0.0
H3790 H 0.73721 0.9104 0.78754 0.0
H3791 H 0.65725 0.92299 0.76129 0.0
H3792 H 0.67231 0.9032 0.76446 0.0
H3793 H 0.70753 0.93013 0.76601 0.0
H3794 H 0.69248 0.95004 0.76354 0.0
H3795 H 0.70957 0.91125 0.78522 0.0
H3796 H 0.69957 0.91092 0.73697 0.0
H3797 H 0.6848 0.911 0.71637 0.0
H3798 H 0.66636 0.87297 0.7291 0.0
H3799 H 0.68089 0.87276 0.74989 0.0
C3800 C 0.74966 0.85839 0.77489 0.0
C3801 C 0.74411 0.84512 0.77641 0.0
C3802 C 0.74104 0.86973 0.77309 0.0
C3803 C 0.72671 0.86803 0.77279 0.0
C3804 C 0.72115 0.85478 0.77408 0.0
C3805 C 0.72976 0.84344 0.77594 0.0
C3806 C 0.71751 0.88007 0.77119 0.0
C3807 C 0.70843 0.88041 0.75998 0.0
C3808 C 0.71795 0.89135 0.78037 0.0
C3809 C 0.72688 0.89135 0.79274 0.0
C3810 C 0.72594 0.88072 0.80247 0.0
C3811 C 0.73447 0.88073 0.81404 0.0
C3812 C 0.74391 0.89138 0.81604 0.0
C3813 C 0.74481 0.90206 0.80649 0.0
C3814 C 0.73632 0.90209 0.79489 0.0
C3815 C 0.66818 0.92474 0.76247 0.0
C3816 C 0.67364 0.93815 0.76212 0.0
C3817 C 0.67681 0.91338 0.76411 0.0
C3818 C 0.69109 0.91515 0.76526 0.0
C3819 C 0.69655 0.9285 0.76507 0.0
C3820 C 0.68793 0.93988 0.76352 0.0
C3821 C 0.70033 0.90309 0.7668 0.0
C3822 C 0.70942 0.90273 0.77801 0.0
C3823 C 0.69995 0.89182 0.75757 0.0
C3824 C 0.69123 0.8919 0.74505 0.0
C3825 C 0.69229 0.90263 0.73543 0.0
C3826 C 0.68398 0.90269 0.72371 0.0
C3827 C 0.67462 0.89201 0.72144 0.0
C3828 C 0.6736 0.88124 0.73088 0.0
C3829 C 0.68188 0.88114 0.74262 0.0
H3830 H 0.6682 0.89208 0.71236 0.0
H3831 H 0.7505 0.89137 0.82501 0.0
H3832 H 0.58404 0.52819 0.97121 0.0
H3833 H 0.60407 0.54303 0.9745 0.0
H3834 H 0.62858 0.50771 0.9852 0.0
H3835 H 0.60862 0.49278 0.98184 0.0
H3836 H 0.6332 0.52884 0.00262 0.0
H3837 H 0.63134 0.52248 0.95366 0.0
H3838 H 0.62045 0.5227 0.93076 0.0
H3839 H 0.61346 0.56612 0.93431 0.0
H3840 H 0.62414 0.56612 0.95732 0.0
H3841 H 0.69878 0.56029 0.99752 0.0
H3842 H 0.6788 0.54542 0.99417 0.0
H3843 H 0.65462 0.58052 0.98206 0.0
H3844 H 0.6747 0.59536 0.98481 0.0
H3845 H 0.64978 0.55949 0.9654 0.0
H3846 H 0.65151 0.56603 0.01423 0.0
H3847 H 0.66219 0.56598 0.03723 0.0
H3848 H 0.66915 0.52252 0.0341 0.0
H3849 H 0.65868 0.52234 0.011 0.0
C3850 C 0.59372 0.52356 0.97414 0.0
C3851 C 0.59474 0.50928 0.9762 0.0
C3852 C 0.60516 0.53206 0.97605 0.0
C3853 C 0.61786 0.52646 0.97995 0.0
C3854 C 0.61887 0.51225 0.9822 0.0
C3855 C 0.60744 0.50374 0.98031 0.0
C3856 C 0.6301 0.53542 0.98172 0.0
C3857 C 0.63694 0.53541 0.99443 0.0
C3858 C 0.63478 0.54424 0.97113 0.0
C3859 C 0.62842 0.54427 0.95727 0.0
C3860 C 0.62739 0.53205 0.9496 0.0
C3861 C 0.62127 0.53214 0.9366 0.0
C3862 C 0.61623 0.54441 0.9311 0.0
C3863 C 0.61734 0.55662 0.93859 0.0
C3864 C 0.62344 0.55659 0.95161 0.0
C3865 C 0.68925 0.56484 0.99401 0.0
C3866 C 0.68835 0.57904 0.99147 0.0
C3867 C 0.67779 0.55634 0.99224 0.0
C3868 C 0.66515 0.56188 0.98805 0.0
C3869 C 0.66425 0.57602 0.98537 0.0
C3870 C 0.67571 0.58452 0.98708 0.0
C3871 C 0.65289 0.55292 0.98631 0.0
C3872 C 0.64604 0.55293 0.9736 0.0
C3873 C 0.64818 0.54413 0.99691 0.0
C3874 C 0.65443 0.5442 0.01083 0.0
C3875 C 0.65542 0.55648 0.0184 0.0
C3876 C 0.66141 0.55649 0.03147 0.0
C3877 C 0.66638 0.54426 0.03711 0.0
C3878 C 0.66532 0.53199 0.02971 0.0
C3879 C 0.65934 0.53192 0.01664 0.0
H3880 H 0.67102 0.54429 0.04722 0.0
H3881 H 0.6115 0.54446 0.92103 0.0
H3882 H 0.25768 0.64505 0.23868 0.0
H3883 H 0.24261 0.62538 0.24255 0.0
H3884 H 0.21003 0.64586 0.22055 0.0
H3885 H 0.2248 0.6659 0.2173 0.0
H3886 H 0.20002 0.63399 0.24258 0.0
H3887 H 0.22959 0.61969 0.20581 0.0
H3888 H 0.25172 0.61536 0.19427 0.0
H3889 H 0.26285 0.58671 0.22592 0.0
H3890 H 0.24085 0.59101 0.23775 0.0
H3891 H 0.15793 0.57546 0.23052 0.0
H3892 H 0.173 0.59535 0.22771 0.0
H3893 H 0.20386 0.57567 0.25268 0.0
H3894 H 0.18876 0.55579 0.25572 0.0
H3895 H 0.21478 0.58699 0.22943 0.0
H3896 H 0.18466 0.60122 0.26586 0.0
H3897 H 0.16225 0.60548 0.27688 0.0
H3898 H 0.15185 0.63424 0.24508 0.0
H3899 H 0.17414 0.63 0.23376 0.0
C3900 C 0.24726 0.64548 0.23481 0.0
C3901 C 0.2425 0.6571 0.22764 0.0
C3902 C 0.23869 0.63413 0.23688 0.0
C3903 C 0.22524 0.63403 0.23165 0.0
C3904 C 0.22039 0.64566 0.22463 0.0
C3905 C 0.22891 0.65706 0.22265 0.0
C3906 C 0.21619 0.62185 0.23355 0.0
C3907 C 0.20319 0.62374 0.23953 0.0
C3908 C 0.22041 0.60842 0.22986 0.0
C3909 C 0.23363 0.60577 0.22274 0.0
C3910 C 0.2368 0.61254 0.21036 0.0
C3911 C 0.24931 0.61008 0.20376 0.0
C3912 C 0.2587 0.60079 0.20938 0.0
C3913 C 0.25558 0.59392 0.22159 0.0
C3914 C 0.24308 0.59635 0.22824 0.0
C3915 C 0.16785 0.57541 0.23556 0.0
C3916 C 0.1721 0.56402 0.2434 0.0
C3917 C 0.17648 0.58678 0.2339 0.0
C3918 C 0.18951 0.58705 0.24009 0.0
C3919 C 0.19385 0.57567 0.2478 0.0
C3920 C 0.18522 0.56429 0.24948 0.0
C3921 C 0.19865 0.59916 0.23841 0.0
C3922 C 0.21165 0.59724 0.23248 0.0
C3923 C 0.1944 0.61258 0.24207 0.0
C3924 C 0.18102 0.6152 0.2489 0.0
C3925 C 0.17756 0.60838 0.26116 0.0
C3926 C 0.16488 0.6108 0.26747 0.0
C3927 C 0.15562 0.6201 0.26166 0.0
C3928 C 0.15903 0.62702 0.24955 0.0
C3929 C 0.17169 0.62463 0.2432 0.0
H3930 H 0.14581 0.62196 0.26656 0.0
H3931 H 0.26839 0.5989 0.20425 0.0
H3932 H 0.91734 0.52757 0.0327 0.0
H3933 H 0.89756 0.54257 0.02892 0.0
H3934 H 0.87365 0.50779 0.01525 0.0
H3935 H 0.89335 0.49269 0.0191 0.0
H3936 H 0.87016 0.52971 0.99851 0.0
H3937 H 0.86902 0.52105 0.04711 0.0
H3938 H 0.87846 0.52017 0.07062 0.0
H3939 H 0.8857 0.5637 0.06966 0.0
H3940 H 0.87647 0.56482 0.04606 0.0
H3941 H 0.80415 0.5605 0.00172 0.0
H3942 H 0.82406 0.54565 0.00537 0.0
H3943 H 0.8475 0.58042 0.01986 0.0
H3944 H 0.82749 0.59526 0.01669 0.0
H3945 H 0.85135 0.5586 0.0361 0.0
H3946 H 0.85245 0.56739 0.98764 0.0
H3947 H 0.84314 0.5684 0.96408 0.0
H3948 H 0.83617 0.52482 0.96467 0.0
H3949 H 0.84526 0.52358 0.98832 0.0
C3950 C 0.90784 0.52308 0.02901 0.0
C3951 C 0.90692 0.50891 0.02625 0.0
C3952 C 0.89655 0.53168 0.02682 0.0
C3953 C 0.88408 0.52627 0.02193 0.0
C3954 C 0.88318 0.51218 0.019 0.0
C3955 C 0.89447 0.50357 0.02118 0.0
C3956 C 0.87198 0.53532 0.01985 0.0
C3957 C 0.86593 0.53589 0.00677 0.0
C3958 C 0.86667 0.54363 0.03055 0.0
C3959 C 0.87217 0.54299 0.04476 0.0
C3960 C 0.87272 0.53042 0.05187 0.0
C3961 C 0.87802 0.52988 0.06522 0.0
C3962 C 0.88271 0.54186 0.07161 0.0
C3963 C 0.88208 0.55442 0.06468 0.0
C3964 C 0.8768 0.55502 0.05132 0.0
C3965 C 0.81351 0.56498 0.00579 0.0
C3966 C 0.81423 0.57909 0.00888 0.0
C3967 C 0.82492 0.55649 0.00774 0.0
C3968 C 0.83733 0.56195 0.01273 0.0
C3969 C 0.83805 0.576 0.01594 0.0
C3970 C 0.82664 0.58449 0.01401 0.0
C3971 C 0.84951 0.55299 0.01475 0.0
C3972 C 0.85558 0.55243 0.02783 0.0
C3973 C 0.85485 0.54471 0.00404 0.0
C3974 C 0.84941 0.54542 0.9898 0.0
C3975 C 0.84883 0.55804 0.98279 0.0
C3976 C 0.84361 0.55865 0.96941 0.0
C3977 C 0.83903 0.54669 0.9629 0.0
C3978 C 0.8397 0.53408 0.96974 0.0
C3979 C 0.84489 0.53341 0.98312 0.0
H3980 H 0.835 0.54718 0.95254 0.0
H3981 H 0.88681 0.54143 0.08195 0.0
H3982 H 0.10982 0.00833 0.02459 0.0
H3983 H 0.12962 0.99322 0.02136 0.0
H3984 H 0.10309 0.95776 0.0242 0.0
H3985 H 0.08326 0.97284 0.02754 0.0
H3986 H 0.12564 0.95376 0.03879 0.0
H3987 H 0.11582 0.96903 0.99308 0.0
H3988 H 0.11146 0.98592 0.97471 0.0
H3989 H 0.15149 0.00347 0.98101 0.0
H3990 H 0.15602 0.98679 0.99956 0.0
H3991 H 0.17314 0.90502 0.01187 0.0
H3992 H 0.15322 0.92008 0.01491 0.0
H3993 H 0.18001 0.95542 0.0159 0.0
H3994 H 0.19996 0.94044 0.01268 0.0
H3995 H 0.15733 0.9593 0.99923 0.0
H3996 H 0.16687 0.94361 0.04511 0.0
H3997 H 0.17099 0.92626 0.0631 0.0
H3998 H 0.13103 0.90892 0.05588 0.0
H3999 H 0.12675 0.92605 0.03769 0.0
C4000 C 0.10819 0.99732 0.02441 0.0
C4001 C 0.09497 0.99178 0.02627 0.0
C4002 C 0.11951 0.98868 0.02256 0.0
C4003 C 0.11783 0.97434 0.02236 0.0
C4004 C 0.10465 0.96879 0.02433 0.0
C4005 C 0.09333 0.97741 0.02626 0.0
C4006 C 0.12982 0.96513 0.02026 0.0
C4007 C 0.13245 0.95486 0.03003 0.0
C4008 C 0.13888 0.96672 0.00897 0.0
C4009 C 0.1362 0.97674 0.9978 0.0
C4010 C 0.12365 0.97656 0.99062 0.0
C4011 C 0.12116 0.98608 0.98017 0.0
C4012 C 0.13118 0.99579 0.97672 0.0
C4013 C 0.14373 0.99596 0.9837 0.0
C4014 C 0.14627 0.98646 0.99418 0.0
C4015 C 0.17477 0.91601 0.01266 0.0
C4016 C 0.18812 0.92155 0.01207 0.0
C4017 C 0.1634 0.92458 0.01449 0.0
C4018 C 0.16516 0.93885 0.01574 0.0
C4019 C 0.17844 0.94443 0.015 0.0
C4020 C 0.18983 0.93586 0.01326 0.0
C4021 C 0.15312 0.94798 0.01776 0.0
C4022 C 0.15049 0.95822 0.00797 0.0
C4023 C 0.14401 0.9463 0.02897 0.0
C4024 C 0.14655 0.93603 0.03994 0.0
C4025 C 0.15901 0.93602 0.04727 0.0
C4026 C 0.16136 0.92624 0.05753 0.0
C4027 C 0.15129 0.91647 0.06061 0.0
C4028 C 0.13883 0.91648 0.05347 0.0
C4029 C 0.13643 0.92623 0.0432 0.0
H4030 H 0.15313 0.90891 0.06855 0.0
H4031 H 0.12922 0.00315 0.96862 0.0
loop_
_geom_bond_atom_site_label_1
_geom_bond_atom_site_label_2
_geom_bond_distance
_geom_bond_site_symmetry_2
_ccdc_geom_bond_type
C0 C1 1.384 . S
C0 H13 0.947 . S
C0 C35 1.382 1_655 S
C1 C0 1.384 . S
C1 C2 1.378 1_655 S
C2 C1 1.378 1_455 S
C2 C3 1.378 . S
C2 H14 0.952 . S
C3 C2 1.378 . S
C3 H15 0.950 . S
C3 C34 1.383 . S
H4 C23 0.947 . S
H5 C24 0.946 . S
H6 C26 0.953 . S
H7 C27 0.945 . S
H8 C29 0.952 . S
H9 C30 0.949 . S
H10 C32 0.950 . S
H11 C33 0.948 . S
H12 C35 0.951 . S
H13 C0 0.947 . S
H14 C2 0.952 . S
H15 C3 0.950 . S
N16 C19 1.382 . S
N16 C21 1.363 . S
N17 C19 1.371 . S
N17 C20 1.372 . S
N18 C20 1.361 . S
N18 C21 1.377 . S
C19 N16 1.382 . S
C19 N17 1.371 . S
C19 C22 1.480 . S
C20 N17 1.372 . S
C20 N18 1.361 . S
C20 C28 1.457 . S
C21 N16 1.363 . S
C21 N18 1.377 . S
C21 C34 1.479 . S
C22 C19 1.480 . S
C22 C23 1.383 . S
C22 C27 1.385 . S
C23 H4 0.947 . S
C23 C22 1.383 . S
C23 C24 1.388 1_545 S
C24 H5 0.946 . S
C24 C23 1.388 1_565 S
C24 C25 1.384 . S
C25 C24 1.384 . S
C25 C26 1.377 1_565 S
C26 H6 0.953 . S
C26 C25 1.377 1_545 S
C26 C27 1.369 . S
C27 H7 0.945 . S
C27 C22 1.385 . S
C27 C26 1.369 . S
C28 C20 1.457 . S
C28 C29 1.372 . S
C28 C33 1.364 . S
C29 H8 0.952 . S
C29 C28 1.372 . S
C29 C30 1.389 1_554 S
C30 H9 0.949 . S
C30 C29 1.389 1_556 S
C30 C31 1.387 . S
C31 C30 1.387 . S
C31 C32 1.372 1_556 S
C32 H10 0.950 . S
C32 C31 1.372 1_554 S
C32 C33 1.379 . S
C33 H11 0.948 . S
C33 C28 1.364 . S
C33 C32 1.379 . S
C34 C3 1.383 . S
C34 C21 1.479 . S
C34 C35 1.398 . S
C35 C0 1.382 1_455 S
C35 H12 0.951 . S
C35 C34 1.398 . S
C36 C37 1.384 . S
C36 H49 0.947 . S
C36 C71 1.382 . S
C37 C36 1.384 . S
C37 C38 1.378 . S
C38 C37 1.378 . S
C38 C39 1.378 . S
C38 H50 0.952 . S
C39 C38 1.378 . S
C39 H51 0.950 . S
C39 C70 1.383 . S
H40 C59 0.947 . S
H41 C60 0.946 . S
H42 C62 0.953 . S
H43 C63 0.945 . S
H44 C65 0.952 . S
H45 C66 0.949 . S
H46 C68 0.950 . S
H47 C69 0.948 . S
H48 C71 0.951 . S
H49 C36 0.947 . S
H50 C38 0.952 . S
H51 C39 0.950 . S
N52 C55 1.382 . S
N52 C57 1.363 . S
N53 C55 1.371 . S
N53 C56 1.372 . S
N54 C56 1.361 . S
N54 C57 1.377 . S
C55 N52 1.382 . S
C55 N53 1.371 . S
C55 C58 1.480 . S
C56 N53 1.372 . S
C56 N54 1.361 . S
C56 C64 1.457 . S
C57 N52 1.363 . S
C57 N54 1.377 . S
C57 C70 1.479 . S
C58 C55 1.480 . S
C58 C59 1.383 . S
C58 C63 1.385 . S
C59 H40 0.947 . S
C59 C58 1.383 . S
C59 C60 1.388 . S
C60 H41 0.946 . S
C60 C59 1.388 . S
C60 C61 1.384 . S
C61 C60 1.384 . S
C61 C62 1.377 . S
C62 H42 0.953 . S
C62 C61 1.377 . S
C62 C63 1.369 . S
C63 H43 0.945 . S
C63 C58 1.385 . S
C63 C62 1.369 . S
C64 C56 1.457 . S
C64 C65 1.372 . S
C64 C69 1.364 . S
C65 H44 0.952 . S
C65 C64 1.372 . S
C65 C66 1.389 . S
C66 H45 0.949 . S
C66 C65 1.389 . S
C66 C67 1.387 . S
C67 C66 1.387 . S
C67 C68 1.372 . S
C68 H46 0.950 . S
C68 C67 1.372 . S
C68 C69 1.379 . S
C69 H47 0.948 . S
C69 C64 1.364 . S
C69 C68 1.379 . S
C70 C39 1.383 . S
C70 C57 1.479 . S
C70 C71 1.398 . S
C71 C36 1.382 . S
C71 H48 0.951 . S
C71 C70 1.398 . S
C72 C73 1.384 1_554 S
C72 H85 0.947 . S
C72 C107 1.382 . S
C73 C72 1.384 1_556 S
C73 C74 1.378 . S
C74 C73 1.378 . S
C74 C75 1.378 1_556 S
C74 H86 0.952 . S
C75 C74 1.378 1_554 S
C75 H87 0.950 1_554 S
C75 C106 1.383 . S
H76 C95 0.947 . S
H77 C96 0.946 . S
H78 C98 0.953 . S
H79 C99 0.945 . S
H80 C101 0.952 . S
H81 C102 0.949 . S
H82 C104 0.950 . S
H83 C105 0.941 1_455 S
H84 C107 0.951 . S
H85 C72 0.947 . S
H86 C74 0.952 . S
H87 C75 0.950 1_556 S
N88 C91 1.382 . S
N88 C93 1.363 . S
N89 C91 1.371 . S
N89 C92 1.372 . S
N90 C92 1.361 . S
N90 C93 1.377 . S
C91 N88 1.382 . S
C91 N89 1.371 . S
C91 C94 1.480 . S
C92 N89 1.372 . S
C92 N90 1.361 . S
C92 C100 1.457 . S
C93 N88 1.363 . S
C93 N90 1.377 . S
C93 C106 1.479 . S
C94 C91 1.480 . S
C94 C95 1.383 . S
C94 C99 1.385 . S
C95 H76 0.947 . S
C95 C94 1.383 . S
C95 C96 1.388 . S
C96 H77 0.946 . S
C96 C95 1.388 . S
C96 C97 1.384 . S
C97 C96 1.384 . S
C97 C98 1.377 . S
C98 H78 0.953 . S
C98 C97 1.377 . S
C98 C99 1.369 . S
C99 H79 0.945 . S
C99 C94 1.385 . S
C99 C98 1.369 . S
C100 C92 1.457 . S
C100 C101 1.372 . S
C100 C105 1.393 . S
C101 H80 0.952 . S
C101 C100 1.372 . S
C101 C102 1.389 . S
C102 H81 0.949 . S
C102 C101 1.389 . S
C102 C103 1.387 1_655 S
C103 C102 1.387 1_455 S
C103 C104 1.372 . S
C104 H82 0.950 . S
C104 C103 1.372 . S
C104 C105 1.358 1_455 S
C105 H83 0.941 1_655 S
C105 C100 1.393 . S
C105 C104 1.358 1_655 S
C106 C75 1.383 . S
C106 C93 1.479 . S
C106 C107 1.398 . S
C107 C72 1.382 . S
C107 H84 0.951 . S
C107 C106 1.398 . S
C108 C109 1.384 . S
C108 H121 0.947 . S
C108 C143 1.382 . S
C109 C108 1.384 . S
C109 C110 1.378 . S
C110 C109 1.378 . S
C110 C111 1.378 . S
C110 H122 0.952 . S
C111 C110 1.378 . S
C111 H123 0.950 . S
C111 C142 1.383 . S
H112 C131 0.947 . S
H113 C132 0.946 . S
H114 C134 0.953 . S
H115 C135 0.945 . S
H116 C137 0.952 . S
H117 C138 0.949 . S
H118 C140 0.950 . S
H119 C141 0.948 . S
H120 C143 0.951 . S
H121 C108 0.947 . S
H122 C110 0.952 . S
H123 C111 0.950 . S
N124 C127 1.382 . S
N124 C129 1.363 . S
N125 C127 1.371 . S
N125 C128 1.372 . S
N126 C128 1.361 . S
N126 C129 1.377 . S
C127 N124 1.382 . S
C127 N125 1.371 . S
C127 C130 1.480 . S
C128 N125 1.372 . S
C128 N126 1.361 . S
C128 C136 1.457 . S
C129 N124 1.363 . S
C129 N126 1.377 . S
C129 C142 1.479 . S
C130 C127 1.480 . S
C130 C131 1.383 . S
C130 C135 1.385 . S
C131 H112 0.947 . S
C131 C130 1.383 . S
C131 C132 1.388 . S
C132 H113 0.946 . S
C132 C131 1.388 . S
C132 C133 1.384 . S
C133 C132 1.384 . S
C133 C134 1.377 . S
C134 H114 0.953 . S
C134 C133 1.377 . S
C134 C135 1.369 . S
C135 H115 0.945 . S
C135 C130 1.385 . S
C135 C134 1.369 . S
C136 C128 1.457 . S
C136 C137 1.372 . S
C136 C141 1.364 . S
C137 H116 0.952 . S
C137 C136 1.372 . S
C137 C138 1.389 . S
C138 H117 0.949 . S
C138 C137 1.389 . S
C138 C139 1.387 . S
C139 C138 1.387 . S
C139 C140 1.372 . S
C140 H118 0.950 . S
C140 C139 1.372 . S
C140 C141 1.379 . S
C141 H119 0.948 . S
C141 C136 1.364 . S
C141 C140 1.379 . S
C142 C111 1.383 . S
C142 C129 1.479 . S
C142 C143 1.398 . S
C143 C108 1.382 . S
C143 H120 0.951 . S
C143 C142 1.398 . S
C144 C145 1.384 . S
C144 H157 0.947 . S
C144 C179 1.382 . S
C145 C144 1.384 . S
C145 C146 1.378 . S
C146 C145 1.378 . S
C146 C147 1.378 . S
C146 H158 0.952 . S
C147 C146 1.378 . S
C147 H159 0.950 . S
C147 C178 1.383 . S
H148 C167 0.947 . S
H149 C168 0.946 . S
H150 C170 0.953 . S
H151 C171 0.945 . S
H152 C173 0.967 . S
H153 C174 0.949 . S
H154 C176 0.950 . S
H155 C177 0.948 . S
H156 C179 0.951 . S
H157 C144 0.947 . S
H158 C146 0.952 . S
H159 C147 0.950 . S
N160 C163 1.382 . S
N160 C165 1.363 . S
N161 C163 1.371 . S
N161 C164 1.372 . S
N162 C164 1.361 . S
N162 C165 1.377 . S
C163 N160 1.382 . S
C163 N161 1.371 . S
C163 C166 1.480 . S
C164 N161 1.372 . S
C164 N162 1.361 . S
C164 C172 1.457 . S
C165 N160 1.363 . S
C165 N162 1.377 . S
C165 C178 1.479 . S
C166 C163 1.480 . S
C166 C167 1.383 . S
C166 C171 1.385 . S
C167 H148 0.947 . S
C167 C166 1.383 . S
C167 C168 1.388 1_455 S
C168 H149 0.946 . S
C168 C167 1.388 1_655 S
C168 C169 1.384 . S
C169 C168 1.384 . S
C169 C170 1.377 1_655 S
C170 H150 0.953 . S
C170 C169 1.377 1_455 S
C170 C171 1.369 . S
C171 H151 0.945 . S
C171 C166 1.385 . S
C171 C170 1.369 . S
C172 C164 1.457 . S
C172 C173 1.372 . S
C172 C177 1.364 . S
C173 H152 0.967 . S
C173 C172 1.372 . S
C173 C174 1.389 1_565 S
C174 H153 0.949 . S
C174 C173 1.389 1_545 S
C174 C175 1.387 . S
C175 C174 1.387 . S
C175 C176 1.372 1_545 S
C176 H154 0.950 . S
C176 C175 1.372 1_565 S
C176 C177 1.379 . S
C177 H155 0.948 . S
C177 C172 1.364 . S
C177 C176 1.379 . S
C178 C147 1.383 . S
C178 C165 1.479 . S
C178 C179 1.398 . S
C179 C144 1.382 . S
C179 H156 0.951 . S
C179 C178 1.398 . S
C180 C181 1.384 . S
C180 H193 0.947 . S
C180 C215 1.382 . S
C181 C180 1.384 . S
C181 C182 1.378 . S
C182 C181 1.378 . S
C182 C183 1.378 . S
C182 H194 0.952 . S
C183 C182 1.378 . S
C183 H195 0.950 . S
C183 C214 1.383 . S
H184 C203 0.947 . S
H185 C204 0.946 . S
H186 C206 0.953 . S
H187 C207 0.945 . S
H188 C209 0.952 . S
H189 C210 0.949 . S
H190 C212 0.950 . S
H191 C213 0.948 . S
H192 C215 0.951 . S
H193 C180 0.947 . S
H194 C182 0.952 . S
H195 C183 0.950 . S
N196 C199 1.382 . S
N196 C201 1.363 . S
N197 C199 1.371 . S
N197 C200 1.372 . S
N198 C200 1.361 . S
N198 C201 1.377 . S
C199 N196 1.382 . S
C199 N197 1.371 . S
C199 C202 1.480 . S
C200 N197 1.372 . S
C200 N198 1.361 . S
C200 C208 1.457 . S
C201 N196 1.363 . S
C201 N198 1.377 . S
C201 C214 1.479 . S
C202 C199 1.480 . S
C202 C203 1.383 . S
C202 C207 1.385 . S
C203 H184 0.947 . S
C203 C202 1.383 . S
C203 C204 1.388 . S
C204 H185 0.946 . S
C204 C203 1.388 . S
C204 C205 1.384 . S
C205 C204 1.384 . S
C205 C206 1.377 . S
C206 H186 0.953 . S
C206 C205 1.377 . S
C206 C207 1.369 . S
C207 H187 0.945 . S
C207 C202 1.385 . S
C207 C206 1.369 . S
C208 C200 1.457 . S
C208 C209 1.372 . S
C208 C213 1.364 . S
C209 H188 0.952 . S
C209 C208 1.372 . S
C209 C210 1.389 . S
C210 H189 0.949 . S
C210 C209 1.389 . S
C210 C211 1.387 . S
C211 C210 1.387 . S
C211 C212 1.372 . S
C212 H190 0.950 . S
C212 C211 1.372 . S
C212 C213 1.379 . S
C213 H191 0.948 . S
C213 C208 1.364 . S
C213 C212 1.379 . S
C214 C183 1.383 . S
C214 C201 1.479 . S
C214 C215 1.398 . S
C215 C180 1.382 . S
C215 H192 0.951 . S
C215 C214 1.398 . S
C216 C217 1.384 . S
C216 H229 0.947 . S
C216 C251 1.382 . S
C217 C216 1.384 . S
C217 C218 1.378 . S
C218 C217 1.378 . S
C218 C219 1.378 . S
C218 H230 0.952 . S
C219 C218 1.378 . S
C219 H231 0.950 . S
C219 C250 1.383 . S
H220 C239 0.947 . S
H221 C240 0.946 . S
H222 C242 0.953 . S
H223 C243 0.945 . S
H224 C245 0.952 . S
H225 C246 0.949 . S
H226 C248 0.950 . S
H227 C249 0.950 . S
H228 C251 0.951 . S
H229 C216 0.947 . S
H230 C218 0.952 . S
H231 C219 0.950 . S
N232 C235 1.382 . S
N232 C237 1.363 . S
N233 C235 1.371 . S
N233 C236 1.372 . S
N234 C236 1.361 . S
N234 C237 1.377 . S
C235 N232 1.382 . S
C235 N233 1.371 . S
C235 C238 1.480 . S
C236 N233 1.372 . S
C236 N234 1.361 . S
C236 C244 1.457 . S
C237 N232 1.363 . S
C237 N234 1.377 . S
C237 C250 1.479 . S
C238 C235 1.480 . S
C238 C239 1.383 . S
C238 C243 1.385 . S
C239 H220 0.947 . S
C239 C238 1.383 . S
C239 C240 1.388 . S
C240 H221 0.946 . S
C240 C239 1.388 . S
C240 C241 1.384 . S
C241 C240 1.384 . S
C241 C242 1.377 . S
C242 H222 0.953 . S
C242 C241 1.377 . S
C242 C243 1.369 . S
C243 H223 0.945 . S
C243 C238 1.385 . S
C243 C242 1.369 . S
C244 C236 1.457 . S
C244 C245 1.372 . S
C244 C249 1.356 1_655 S
C245 H224 0.952 . S
C245 C244 1.372 . S
C245 C246 1.389 . S
C246 H225 0.949 . S
C246 C245 1.389 . S
C246 C247 1.387 1_655 S
C247 C246 1.387 1_455 S
C247 C248 1.372 . S
C248 H226 0.950 . S
C248 C247 1.372 . S
C248 C249 1.385 . S
C249 H227 0.950 . S
C249 C244 1.356 1_455 S
C249 C248 1.385 . S
C250 C219 1.383 . S
C250 C237 1.479 . S
C250 C251 1.398 . S
C251 C216 1.382 . S
C251 H228 0.951 . S
C251 C250 1.398 . S
C252 C253 1.384 . S
C252 H265 0.947 . S
C252 C287 1.382 . S
C253 C252 1.384 . S
C253 C254 1.378 . S
C254 C253 1.378 . S
C254 C255 1.378 . S
C254 H266 0.952 . S
C255 C254 1.378 . S
C255 H267 0.950 . S
C255 C286 1.383 . S
H256 C275 0.947 . S
H257 C276 0.946 . S
H258 C278 0.953 . S
H259 C279 0.945 . S
H260 C281 0.952 . S
H261 C282 0.949 . S
H262 C284 0.950 . S
H263 C285 0.948 . S
H264 C287 0.951 . S
H265 C252 0.947 . S
H266 C254 0.952 . S
H267 C255 0.950 . S
N268 C271 1.382 . S
N268 C273 1.363 . S
N269 C271 1.371 . S
N269 C272 1.372 . S
N270 C272 1.361 . S
N270 C273 1.377 . S
C271 N268 1.382 . S
C271 N269 1.371 . S
C271 C274 1.480 . S
C272 N269 1.372 . S
C272 N270 1.361 . S
C272 C280 1.457 . S
C273 N268 1.363 . S
C273 N270 1.377 . S
C273 C286 1.479 . S
C274 C271 1.480 . S
C274 C275 1.383 . S
C274 C279 1.385 . S
C275 H256 0.947 . S
C275 C274 1.383 . S
C275 C276 1.388 . S
C276 H257 0.946 . S
C276 C275 1.388 . S
C276 C277 1.384 . S
C277 C276 1.384 . S
C277 C278 1.377 . S
C278 H258 0.953 . S
C278 C277 1.377 . S
C278 C279 1.369 . S
C279 H259 0.945 . S
C279 C274 1.385 . S
C279 C278 1.369 . S
C280 C272 1.457 . S
C280 C281 1.372 . S
C280 C285 1.364 . S
C281 H260 0.952 . S
C281 C280 1.372 . S
C281 C282 1.389 . S
C282 H261 0.949 . S
C282 C281 1.389 . S
C282 C283 1.387 . S
C283 C282 1.387 . S
C283 C284 1.372 . S
C284 H262 0.950 . S
C284 C283 1.372 . S
C284 C285 1.379 . S
C285 H263 0.948 . S
C285 C280 1.364 . S
C285 C284 1.379 . S
C286 C255 1.383 . S
C286 C273 1.479 . S
C286 C287 1.398 . S
C287 C252 1.382 . S
C287 H264 0.951 . S
C287 C286 1.398 . S
C288 C289 1.384 . S
C288 H301 0.947 . S
C288 C323 1.382 . S
C289 C288 1.384 . S
C289 C290 1.378 . S
C290 C289 1.378 . S
C290 C291 1.378 . S
C290 H302 0.952 . S
C291 C290 1.378 . S
C291 H303 0.950 . S
C291 C322 1.383 . S
H292 C311 0.947 . S
H293 C312 0.946 . S
H294 C314 0.953 . S
H295 C315 0.945 . S
H296 C317 0.952 . S
H297 C318 0.949 . S
H298 C320 0.950 . S
H299 C321 0.948 . S
H300 C323 0.951 . S
H301 C288 0.947 . S
H302 C290 0.952 . S
H303 C291 0.950 . S
N304 C307 1.382 . S
N304 C309 1.363 . S
N305 C307 1.371 . S
N305 C308 1.372 . S
N306 C308 1.361 . S
N306 C309 1.377 . S
C307 N304 1.382 . S
C307 N305 1.371 . S
C307 C310 1.480 . S
C308 N305 1.372 . S
C308 N306 1.361 . S
C308 C316 1.457 . S
C309 N304 1.363 . S
C309 N306 1.377 . S
C309 C322 1.479 . S
C310 C307 1.480 . S
C310 C311 1.383 . S
C310 C315 1.385 . S
C311 H292 0.947 . S
C311 C310 1.383 . S
C311 C312 1.388 . S
C312 H293 0.946 . S
C312 C311 1.388 . S
C312 C313 1.384 . S
C313 C312 1.384 . S
C313 C314 1.377 . S
C314 H294 0.953 . S
C314 C313 1.377 . S
C314 C315 1.369 . S
C315 H295 0.945 . S
C315 C310 1.385 . S
C315 C314 1.369 . S
C316 C308 1.457 . S
C316 C317 1.372 . S
C316 C321 1.364 . S
C317 H296 0.952 . S
C317 C316 1.372 . S
C317 C318 1.389 . S
C318 H297 0.949 . S
C318 C317 1.389 . S
C318 C319 1.387 . S
C319 C318 1.387 . S
C319 C320 1.372 . S
C320 H298 0.950 . S
C320 C319 1.372 . S
C320 C321 1.379 . S
C321 H299 0.948 . S
C321 C316 1.364 . S
C321 C320 1.379 . S
C322 C291 1.383 . S
C322 C309 1.479 . S
C322 C323 1.398 . S
C323 C288 1.382 . S
C323 H300 0.951 . S
C323 C322 1.398 . S
C324 C325 1.384 . S
C324 H337 0.947 . S
C324 C359 1.382 . S
C325 C324 1.384 . S
C325 C326 1.378 . S
C326 C325 1.378 . S
C326 C327 1.378 . S
C326 H338 0.952 . S
C327 C326 1.378 . S
C327 H339 0.950 . S
C327 C358 1.383 . S
H328 C347 0.947 . S
H329 C348 0.946 . S
H330 C350 0.953 . S
H331 C351 0.946 1_545 S
H332 C353 0.952 . S
H333 C354 0.949 . S
H334 C356 0.950 . S
H335 C357 0.948 . S
H336 C359 0.951 . S
H337 C324 0.947 . S
H338 C326 0.952 . S
H339 C327 0.950 . S
N340 C343 1.382 . S
N340 C345 1.363 . S
N341 C343 1.371 . S
N341 C344 1.372 . S
N342 C344 1.361 . S
N342 C345 1.377 . S
C343 N340 1.382 . S
C343 N341 1.371 . S
C343 C346 1.480 . S
C344 N341 1.372 . S
C344 N342 1.361 . S
C344 C352 1.457 . S
C345 N340 1.363 . S
C345 N342 1.377 . S
C345 C358 1.479 . S
C346 C343 1.480 . S
C346 C347 1.383 . S
C346 C351 1.380 . S
C347 H328 0.947 . S
C347 C346 1.383 . S
C347 C348 1.388 . S
C348 H329 0.946 . S
C348 C347 1.388 . S
C348 C349 1.384 1_565 S
C349 C348 1.384 1_545 S
C349 C350 1.377 . S
C350 H330 0.953 . S
C350 C349 1.377 . S
C350 C351 1.373 1_545 S
C351 H331 0.946 1_565 S
C351 C346 1.380 . S
C351 C350 1.373 1_565 S
C352 C344 1.457 . S
C352 C353 1.372 . S
C352 C357 1.364 . S
C353 H332 0.952 . S
C353 C352 1.372 . S
C353 C354 1.389 . S
C354 H333 0.949 . S
C354 C353 1.389 . S
C354 C355 1.387 . S
C355 C354 1.387 . S
C355 C356 1.372 . S
C356 H334 0.950 . S
C356 C355 1.372 . S
C356 C357 1.379 . S
C357 H335 0.948 . S
C357 C352 1.364 . S
C357 C356 1.379 . S
C358 C327 1.383 . S
C358 C345 1.479 . S
C358 C359 1.398 . S
C359 C324 1.382 . S
C359 H336 0.951 . S
C359 C358 1.398 . S
C360 C361 1.384 . S
C360 H373 0.947 . S
C360 C395 1.382 . S
C361 C360 1.384 . S
C361 C362 1.378 . S
C362 C361 1.378 . S
C362 C363 1.378 . S
C362 H374 0.952 . S
C363 C362 1.378 . S
C363 H375 0.950 . S
C363 C394 1.383 . S
H364 C383 0.947 . S
H365 C384 0.946 . S
H366 C386 0.953 . S
H367 C387 0.945 . S
H368 C389 0.952 . S
H369 C390 0.949 . S
H370 C392 0.950 . S
H371 C393 0.948 . S
H372 C395 0.951 . S
H373 C360 0.947 . S
H374 C362 0.952 . S
H375 C363 0.950 . S
N376 C379 1.382 . S
N376 C381 1.363 . S
N377 C379 1.371 . S
N377 C380 1.372 . S
N378 C380 1.361 . S
N378 C381 1.377 . S
C379 N376 1.382 . S
C379 N377 1.371 . S
C379 C382 1.480 . S
C380 N377 1.372 . S
C380 N378 1.361 . S
C380 C388 1.457 . S
C381 N376 1.363 . S
C381 N378 1.377 . S
C381 C394 1.479 . S
C382 C379 1.480 . S
C382 C383 1.383 . S
C382 C387 1.385 . S
C383 H364 0.947 . S
C383 C382 1.383 . S
C383 C384 1.388 . S
C384 H365 0.946 . S
C384 C383 1.388 . S
C384 C385 1.384 . S
C385 C384 1.384 . S
C385 C386 1.377 . S
C386 H366 0.953 . S
C386 C385 1.377 . S
C386 C387 1.369 . S
C387 H367 0.945 . S
C387 C382 1.385 . S
C387 C386 1.369 . S
C388 C380 1.457 . S
C388 C389 1.372 . S
C388 C393 1.364 . S
C389 H368 0.952 . S
C389 C388 1.372 . S
C389 C390 1.389 . S
C390 H369 0.949 . S
C390 C389 1.389 . S
C390 C391 1.387 . S
C391 C390 1.387 . S
C391 C392 1.372 . S
C392 H370 0.950 . S
C392 C391 1.372 . S
C392 C393 1.379 . S
C393 H371 0.948 . S
C393 C388 1.364 . S
C393 C392 1.379 . S
C394 C363 1.383 . S
C394 C381 1.479 . S
C394 C395 1.398 . S
C395 C360 1.382 . S
C395 H372 0.951 . S
C395 C394 1.398 . S
C396 C397 1.384 . S
C396 H409 0.947 . S
C396 C431 1.382 . S
C397 C396 1.384 . S
C397 C398 1.378 . S
C398 C397 1.378 . S
C398 C399 1.378 . S
C398 H410 0.952 . S
C399 C398 1.378 . S
C399 H411 0.950 . S
C399 C430 1.383 . S
H400 C419 0.947 . S
H401 C420 0.946 . S
H402 C422 0.953 . S
H403 C423 0.945 . S
H404 C425 0.952 . S
H405 C426 0.949 . S
H406 C428 0.950 . S
H407 C429 0.948 . S
H408 C431 0.951 . S
H409 C396 0.947 . S
H410 C398 0.952 . S
H411 C399 0.950 . S
N412 C415 1.382 . S
N412 C417 1.363 . S
N413 C415 1.371 . S
N413 C416 1.372 . S
N414 C416 1.361 . S
N414 C417 1.377 . S
C415 N412 1.382 . S
C415 N413 1.371 . S
C415 C418 1.480 . S
C416 N413 1.372 . S
C416 N414 1.361 . S
C416 C424 1.457 . S
C417 N412 1.363 . S
C417 N414 1.377 . S
C417 C430 1.479 . S
C418 C415 1.480 . S
C418 C419 1.383 . S
C418 C423 1.385 . S
C419 H400 0.947 . S
C419 C418 1.383 . S
C419 C420 1.388 . S
C420 H401 0.946 . S
C420 C419 1.388 . S
C420 C421 1.384 . S
C421 C420 1.384 . S
C421 C422 1.377 . S
C422 H402 0.953 . S
C422 C421 1.377 . S
C422 C423 1.369 . S
C423 H403 0.945 . S
C423 C418 1.385 . S
C423 C422 1.369 . S
C424 C416 1.457 . S
C424 C425 1.372 . S
C424 C429 1.364 . S
C425 H404 0.952 . S
C425 C424 1.372 . S
C425 C426 1.389 . S
C426 H405 0.949 . S
C426 C425 1.389 . S
C426 C427 1.387 . S
C427 C426 1.387 . S
C427 C428 1.372 . S
C428 H406 0.950 . S
C428 C427 1.372 . S
C428 C429 1.379 . S
C429 H407 0.948 . S
C429 C424 1.364 . S
C429 C428 1.379 . S
C430 C399 1.383 . S
C430 C417 1.479 . S
C430 C431 1.398 . S
C431 C396 1.382 . S
C431 H408 0.951 . S
C431 C430 1.398 . S
C432 C433 1.384 . S
C432 H445 0.947 . S
C432 C467 1.382 . S
C433 C432 1.384 . S
C433 C434 1.378 . S
C434 C433 1.378 . S
C434 C435 1.378 . S
C434 H446 0.952 . S
C435 C434 1.378 . S
C435 H447 0.950 . S
C435 C466 1.383 . S
H436 C455 0.947 . S
H437 C456 0.946 . S
H438 C458 0.953 . S
H439 C459 0.945 . S
H440 C461 0.952 . S
H441 C462 0.949 . S
H442 C464 0.950 . S
H443 C465 0.948 . S
H444 C467 0.951 . S
H445 C432 0.947 . S
H446 C434 0.952 . S
H447 C435 0.950 . S
N448 C451 1.382 . S
N448 C453 1.363 . S
N449 C451 1.371 . S
N449 C452 1.372 . S
N450 C452 1.361 . S
N450 C453 1.377 . S
C451 N448 1.382 . S
C451 N449 1.371 . S
C451 C454 1.480 . S
C452 N449 1.372 . S
C452 N450 1.361 . S
C452 C460 1.457 . S
C453 N448 1.363 . S
C453 N450 1.377 . S
C453 C466 1.479 . S
C454 C451 1.480 . S
C454 C455 1.383 . S
C454 C459 1.385 . S
C455 H436 0.947 . S
C455 C454 1.383 . S
C455 C456 1.388 . S
C456 H437 0.946 . S
C456 C455 1.388 . S
C456 C457 1.384 . S
C457 C456 1.384 . S
C457 C458 1.377 . S
C458 H438 0.953 . S
C458 C457 1.377 . S
C458 C459 1.369 . S
C459 H439 0.945 . S
C459 C454 1.385 . S
C459 C458 1.369 . S
C460 C452 1.457 . S
C460 C461 1.372 . S
C460 C465 1.364 . S
C461 H440 0.952 . S
C461 C460 1.372 . S
C461 C462 1.389 . S
C462 H441 0.949 . S
C462 C461 1.389 . S
C462 C463 1.387 . S
C463 C462 1.387 . S
C463 C464 1.372 . S
C464 H442 0.950 . S
C464 C463 1.372 . S
C464 C465 1.379 . S
C465 H443 0.948 . S
C465 C460 1.364 . S
C465 C464 1.379 . S
C466 C435 1.383 . S
C466 C453 1.479 . S
C466 C467 1.398 . S
C467 C432 1.382 . S
C467 H444 0.951 . S
C467 C466 1.398 . S
C468 C469 1.384 . S
C468 H481 0.947 . S
C468 C503 1.382 1_554 S
C469 C468 1.384 . S
C469 C470 1.378 1_554 S
C470 C469 1.378 1_556 S
C470 C471 1.378 . S
C470 H482 0.952 . S
C471 C470 1.378 . S
C471 H483 0.950 . S
C471 C502 1.383 . S
H472 C491 0.947 . S
H473 C492 0.946 . S
H474 C494 0.953 . S
H475 C495 0.945 . S
H476 C497 0.952 . S
H477 C498 0.949 . S
H478 C500 0.950 . S
H479 C501 0.948 . S
H480 C503 0.951 . S
H481 C468 0.947 . S
H482 C470 0.952 . S
H483 C471 0.950 . S
N484 C487 1.382 . S
N484 C489 1.363 . S
N485 C487 1.371 . S
N485 C488 1.372 . S
N486 C488 1.361 . S
N486 C489 1.377 . S
C487 N484 1.382 . S
C487 N485 1.371 . S
C487 C490 1.480 . S
C488 N485 1.372 . S
C488 N486 1.361 . S
C488 C496 1.457 . S
C489 N484 1.363 . S
C489 N486 1.377 . S
C489 C502 1.479 . S
C490 C487 1.480 . S
C490 C491 1.383 . S
C490 C495 1.385 . S
C491 H472 0.947 . S
C491 C490 1.383 . S
C491 C492 1.388 . S
C492 H473 0.946 . S
C492 C491 1.388 . S
C492 C493 1.384 . S
C493 C492 1.384 . S
C493 C494 1.377 . S
C494 H474 0.953 . S
C494 C493 1.377 . S
C494 C495 1.369 . S
C495 H475 0.945 . S
C495 C490 1.385 . S
C495 C494 1.369 . S
C496 C488 1.457 . S
C496 C497 1.372 . S
C496 C501 1.364 . S
C497 H476 0.952 . S
C497 C496 1.372 . S
C497 C498 1.389 . S
C498 H477 0.949 . S
C498 C497 1.389 . S
C498 C499 1.387 . S
C499 C498 1.387 . S
C499 C500 1.372 . S
C500 H478 0.950 . S
C500 C499 1.372 . S
C500 C501 1.379 . S
C501 H479 0.948 . S
C501 C496 1.364 . S
C501 C500 1.379 . S
C502 C471 1.383 . S
C502 C489 1.479 . S
C502 C503 1.398 . S
C503 C468 1.382 1_556 S
C503 H480 0.951 . S
C503 C502 1.398 . S
C504 C505 1.384 . S
C504 H517 0.947 . S
C504 C539 1.382 . S
C505 C504 1.384 . S
C505 C506 1.378 . S
C506 C505 1.378 . S
C506 C507 1.378 . S
C506 H518 0.952 . S
C507 C506 1.378 . S
C507 H519 0.950 . S
C507 C538 1.383 . S
H508 C527 0.947 . S
H509 C528 0.946 . S
H510 C530 0.953 . S
H511 C531 0.945 . S
H512 C533 0.952 . S
H513 C534 0.949 . S
H514 C536 0.950 . S
H515 C537 0.948 . S
H516 C539 0.951 . S
H517 C504 0.947 . S
H518 C506 0.952 . S
H519 C507 0.950 . S
N520 C523 1.382 . S
N520 C525 1.363 . S
N521 C523 1.371 . S
N521 C524 1.372 . S
N522 C524 1.361 . S
N522 C525 1.377 . S
C523 N520 1.382 . S
C523 N521 1.371 . S
C523 C526 1.480 . S
C524 N521 1.372 . S
C524 N522 1.361 . S
C524 C532 1.457 . S
C525 N520 1.363 . S
C525 N522 1.377 . S
C525 C538 1.479 . S
C526 C523 1.480 . S
C526 C527 1.383 . S
C526 C531 1.385 . S
C527 H508 0.947 . S
C527 C526 1.383 . S
C527 C528 1.388 . S
C528 H509 0.946 . S
C528 C527 1.388 . S
C528 C529 1.384 . S
C529 C528 1.384 . S
C529 C530 1.377 . S
C530 H510 0.953 . S
C530 C529 1.377 . S
C530 C531 1.369 . S
C531 H511 0.945 . S
C531 C526 1.385 . S
C531 C530 1.369 . S
C532 C524 1.457 . S
C532 C533 1.372 . S
C532 C537 1.364 . S
C533 H512 0.952 . S
C533 C532 1.372 . S
C533 C534 1.389 . S
C534 H513 0.949 . S
C534 C533 1.389 . S
C534 C535 1.387 . S
C535 C534 1.387 . S
C535 C536 1.372 . S
C536 H514 0.950 . S
C536 C535 1.372 . S
C536 C537 1.379 . S
C537 H515 0.948 . S
C537 C532 1.364 . S
C537 C536 1.379 . S
C538 C507 1.383 . S
C538 C525 1.479 . S
C538 C539 1.398 . S
C539 C504 1.382 . S
C539 H516 0.951 . S
C539 C538 1.398 . S
C540 C541 1.384 1_556 S
C540 H553 0.947 . S
C540 C575 1.382 . S
C541 C540 1.384 1_554 S
C541 C542 1.378 . S
C542 C541 1.378 . S
C542 C543 1.377 . S
C542 H554 0.952 . S
C543 C542 1.377 . S
C543 H555 0.949 . S
C543 C574 1.385 1_554 S
H544 C563 0.947 . S
H545 C564 0.946 . S
H546 C566 0.953 . S
H547 C567 0.946 1_565 S
H548 C569 0.952 . S
H549 C570 0.949 . S
H550 C572 0.950 . S
H551 C573 0.948 . S
H552 C575 0.951 . S
H553 C540 0.947 . S
H554 C542 0.952 . S
H555 C543 0.949 . S
N556 C559 1.382 . S
N556 C561 1.363 . S
N557 C559 1.371 . S
N557 C560 1.372 . S
N558 C560 1.361 . S
N558 C561 1.377 . S
C559 N556 1.382 . S
C559 N557 1.371 . S
C559 C562 1.480 . S
C560 N557 1.372 . S
C560 N558 1.361 . S
C560 C568 1.457 . S
C561 N556 1.363 . S
C561 N558 1.377 . S
C561 C574 1.479 . S
C562 C559 1.480 . S
C562 C563 1.383 . S
C562 C567 1.383 . S
C563 H544 0.947 . S
C563 C562 1.383 . S
C563 C564 1.388 . S
C564 H545 0.946 . S
C564 C563 1.388 . S
C564 C565 1.384 1_545 S
C565 C564 1.384 1_565 S
C565 C566 1.377 . S
C566 H546 0.953 . S
C566 C565 1.377 . S
C566 C567 1.370 1_565 S
C567 H547 0.946 1_545 S
C567 C562 1.383 . S
C567 C566 1.370 1_545 S
C568 C560 1.457 . S
C568 C569 1.372 . S
C568 C573 1.364 . S
C569 H548 0.952 . S
C569 C568 1.372 . S
C569 C570 1.389 . S
C570 H549 0.949 . S
C570 C569 1.389 . S
C570 C571 1.387 . S
C571 C570 1.387 . S
C571 C572 1.372 . S
C572 H550 0.950 . S
C572 C571 1.372 . S
C572 C573 1.379 . S
C573 H551 0.948 . S
C573 C568 1.364 . S
C573 C572 1.379 . S
C574 C543 1.385 1_556 S
C574 C561 1.479 . S
C574 C575 1.398 . S
C575 C540 1.382 . S
C575 H552 0.951 . S
C575 C574 1.398 . S
Li576 N593 1.990 . S
Li576 O636 1.956 . S
Li576 O637 1.970 1_556 S
Li576 O638 1.961 . S
Li577 N601 1.990 . S
Li577 O636 1.970 1_554 S
Li577 O637 1.956 . S
Li577 O639 1.961 . S
Li578 N623 1.990 . S
Li578 O636 1.961 . S
Li578 O638 1.956 . S
Li578 O639 1.970 1_556 S
Li579 N629 1.990 . S
Li579 O637 1.961 . S
Li579 O638 1.970 1_554 S
Li579 O639 1.956 . S
C580 C582 1.348 1_556 S
C580 C583 1.356 . S
C580 O636 1.325 . S
N581 C584 1.314 1_556 S
N581 C585 1.279 . S
C582 C580 1.348 1_554 S
C582 C584 1.353 . S
C582 H640 0.929 . S
C583 C580 1.356 . S
C583 C585 1.358 . S
C583 H641 0.930 . S
C584 N581 1.314 1_554 S
C584 C582 1.353 . S
C584 H642 0.930 . S
C585 N581 1.279 . S
C585 C583 1.358 . S
C585 H643 0.930 . S
C586 C589 1.348 . S
C586 C590 1.356 . S
C586 O637 1.325 . S
C587 N588 1.279 . S
C587 C590 1.358 . S
C587 H644 0.930 . S
N588 C587 1.279 . S
N588 C591 1.314 . S
C589 C586 1.348 . S
C589 C591 1.353 . S
C589 H645 0.929 . S
C590 C586 1.356 . S
C590 C587 1.358 . S
C590 H646 0.930 . S
C591 N588 1.314 . S
C591 C589 1.353 . S
C591 H647 0.930 . S
C592 N593 1.314 . S
C592 C597 1.353 . S
C592 H598 0.930 . S
N593 Li576 1.990 . S
N593 C592 1.314 . S
N593 C595 1.279 . S
C594 C595 1.358 . S
C594 C596 1.356 . S
C594 H648 0.930 . S
C595 N593 1.279 . S
C595 C594 1.358 . S
C595 H599 0.930 . S
C596 C594 1.356 . S
C596 C597 1.348 . S
C597 C592 1.353 . S
C597 C596 1.348 . S
C597 H649 0.929 . S
H598 C592 0.930 . S
H599 C595 0.930 . S
C600 N601 1.314 . S
C600 C602 1.353 . S
C600 H606 0.930 . S
N601 Li577 1.990 . S
N601 C600 1.314 . S
N601 C604 1.279 . S
C602 C600 1.353 . S
C602 C605 1.348 . S
C602 H650 0.929 . S
C603 C604 1.358 . S
C603 C605 1.356 . S
C603 H651 0.930 . S
C604 N601 1.279 . S
C604 C603 1.358 . S
C604 H607 0.930 . S
C605 C602 1.348 . S
C605 C603 1.356 . S
H606 C600 0.930 . S
H607 C604 0.930 . S
C608 C610 1.348 . S
C608 C611 1.356 . S
C608 O638 1.325 . S
N609 C612 1.314 . S
N609 C613 1.279 . S
C610 C608 1.348 . S
C610 C612 1.353 . S
C610 H652 0.929 . S
C611 C608 1.356 . S
C611 C613 1.358 . S
C611 H653 0.930 . S
C612 N609 1.314 . S
C612 C610 1.353 . S
C612 H654 0.930 . S
C613 N609 1.279 . S
C613 C611 1.358 . S
C613 H655 0.930 . S
C614 C615 1.348 1_554 S
C614 C616 1.356 . S
C614 O639 1.325 . S
C615 C614 1.348 1_556 S
C615 C617 1.353 . S
C615 H656 0.929 . S
C616 C614 1.356 . S
C616 C618 1.358 . S
C616 H657 0.930 . S
C617 C615 1.353 . S
C617 N619 1.314 1_556 S
C617 H658 0.930 . S
C618 C616 1.358 . S
C618 N619 1.279 . S
C618 H659 0.930 . S
N619 C617 1.314 1_554 S
N619 C618 1.279 . S
C620 C622 1.353 . S
C620 N623 1.314 . S
C620 H626 0.930 . S
C621 N623 1.279 . S
C621 C624 1.358 . S
C621 H627 0.930 . S
C622 C620 1.353 . S
C622 C625 1.348 . S
C622 H660 0.929 . S
N623 Li578 1.990 . S
N623 C620 1.314 . S
N623 C621 1.279 . S
C624 C621 1.358 . S
C624 C625 1.356 . S
C624 H661 0.930 . S
C625 C622 1.348 . S
C625 C624 1.356 . S
H626 C620 0.930 . S
H627 C621 0.930 . S
C628 N629 1.314 . S
C628 C630 1.353 . S
C628 H634 0.930 . S
N629 Li579 1.990 . S
N629 C628 1.314 . S
N629 C632 1.279 . S
C630 C628 1.353 . S
C630 C633 1.348 . S
C630 H662 0.929 . S
C631 C632 1.358 . S
C631 C633 1.356 . S
C631 H663 0.930 . S
C632 N629 1.279 . S
C632 C631 1.358 . S
C632 H635 0.930 . S
C633 C630 1.348 . S
C633 C631 1.356 . S
H634 C628 0.930 . S
H635 C632 0.930 . S
O636 Li576 1.956 . S
O636 Li577 1.970 1_556 S
O636 Li578 1.961 . S
O636 C580 1.325 . S
O637 Li576 1.970 1_554 S
O637 Li577 1.956 . S
O637 Li579 1.961 . S
O637 C586 1.325 . S
O638 Li576 1.961 . S
O638 Li578 1.956 . S
O638 Li579 1.970 1_556 S
O638 C608 1.325 . S
O639 Li577 1.961 . S
O639 Li578 1.970 1_554 S
O639 Li579 1.956 . S
O639 C614 1.325 . S
H640 C582 0.929 . S
H641 C583 0.930 . S
H642 C584 0.930 . S
H643 C585 0.930 . S
H644 C587 0.930 . S
H645 C589 0.929 . S
H646 C590 0.930 . S
H647 C591 0.930 . S
H648 C594 0.930 . S
H649 C597 0.929 . S
H650 C602 0.929 . S
H651 C603 0.930 . S
H652 C610 0.929 . S
H653 C611 0.930 . S
H654 C612 0.930 . S
H655 C613 0.930 . S
H656 C615 0.929 . S
H657 C616 0.930 . S
H658 C617 0.930 . S
H659 C618 0.930 . S
H660 C622 0.929 . S
H661 C624 0.930 . S
H662 C630 0.929 . S
H663 C631 0.930 . S
Li664 N681 1.990 . S
Li664 O724 1.956 . S
Li664 O725 1.970 . S
Li664 O726 1.961 . S
Li665 N689 1.990 . S
Li665 O724 1.970 . S
Li665 O725 1.956 . S
Li665 O727 1.961 . S
Li666 N711 1.990 . S
Li666 O724 1.961 . S
Li666 O726 1.956 . S
Li666 O727 1.970 . S
Li667 N717 1.990 . S
Li667 O725 1.961 . S
Li667 O726 1.970 . S
Li667 O727 1.956 . S
C668 C670 1.348 . S
C668 C671 1.356 . S
C668 O724 1.325 . S
N669 C672 1.314 . S
N669 C673 1.279 . S
C670 C668 1.348 . S
C670 C672 1.353 . S
C670 H728 0.929 . S
C671 C668 1.356 . S
C671 C673 1.358 . S
C671 H729 0.930 . S
C672 N669 1.314 . S
C672 C670 1.353 . S
C672 H730 0.930 . S
C673 N669 1.279 . S
C673 C671 1.358 . S
C673 H731 0.930 . S
C674 C677 1.348 . S
C674 C678 1.356 . S
C674 O725 1.325 . S
C675 N676 1.279 . S
C675 C678 1.358 . S
C675 H732 0.930 . S
N676 C675 1.279 . S
N676 C679 1.314 . S
C677 C674 1.348 . S
C677 C679 1.353 . S
C677 H733 0.929 . S
C678 C674 1.356 . S
C678 C675 1.358 . S
C678 H734 0.930 . S
C679 N676 1.314 . S
C679 C677 1.353 . S
C679 H735 0.930 . S
C680 N681 1.314 . S
C680 C685 1.353 . S
C680 H686 0.930 . S
N681 Li664 1.990 . S
N681 C680 1.314 . S
N681 C683 1.279 . S
C682 C683 1.358 . S
C682 C684 1.356 . S
C682 H736 0.930 . S
C683 N681 1.279 . S
C683 C682 1.358 . S
C683 H687 0.930 . S
C684 C682 1.356 . S
C684 C685 1.348 . S
C685 C680 1.353 . S
C685 C684 1.348 . S
C685 H737 0.929 . S
H686 C680 0.930 . S
H687 C683 0.930 . S
C688 N689 1.314 . S
C688 C690 1.353 . S
C688 H694 0.930 . S
N689 Li665 1.990 . S
N689 C688 1.314 . S
N689 C692 1.279 . S
C690 C688 1.353 . S
C690 C693 1.348 . S
C690 H738 0.929 . S
C691 C692 1.358 . S
C691 C693 1.356 . S
C691 H739 0.930 . S
C692 N689 1.279 . S
C692 C691 1.358 . S
C692 H695 0.930 . S
C693 C690 1.348 . S
C693 C691 1.356 . S
H694 C688 0.930 . S
H695 C692 0.930 . S
C696 C698 1.348 . S
C696 C699 1.356 . S
C696 O726 1.325 . S
N697 C700 1.314 . S
N697 C701 1.279 . S
C698 C696 1.348 . S
C698 C700 1.353 . S
C698 H740 0.929 . S
C699 C696 1.356 . S
C699 C701 1.358 . S
C699 H741 0.930 . S
C700 N697 1.314 . S
C700 C698 1.353 . S
C700 H742 0.930 . S
C701 N697 1.279 . S
C701 C699 1.358 . S
C701 H743 0.930 . S
C702 C703 1.348 . S
C702 C704 1.356 . S
C702 O727 1.325 . S
C703 C702 1.348 . S
C703 C705 1.353 . S
C703 H744 0.929 . S
C704 C702 1.356 . S
C704 C706 1.358 . S
C704 H745 0.930 . S
C705 C703 1.353 . S
C705 N707 1.314 . S
C705 H746 0.930 . S
C706 C704 1.358 . S
C706 N707 1.279 . S
C706 H747 0.930 . S
N707 C705 1.314 . S
N707 C706 1.279 . S
C708 C710 1.353 . S
C708 N711 1.314 . S
C708 H714 0.930 . S
C709 N711 1.279 . S
C709 C712 1.358 . S
C709 H715 0.930 . S
C710 C708 1.353 . S
C710 C713 1.348 . S
C710 H748 0.929 . S
N711 Li666 1.990 . S
N711 C708 1.314 . S
N711 C709 1.279 . S
C712 C709 1.358 . S
C712 C713 1.356 . S
C712 H749 0.930 . S
C713 C710 1.348 . S
C713 C712 1.356 . S
H714 C708 0.930 . S
H715 C709 0.930 . S
C716 N717 1.314 . S
C716 C718 1.353 . S
C716 H722 0.930 . S
N717 Li667 1.990 . S
N717 C716 1.314 . S
N717 C720 1.279 . S
C718 C716 1.353 . S
C718 C721 1.348 . S
C718 H750 0.929 . S
C719 C720 1.358 . S
C719 C721 1.356 . S
C719 H751 0.930 . S
C720 N717 1.279 . S
C720 C719 1.358 . S
C720 H723 0.930 . S
C721 C718 1.348 . S
C721 C719 1.356 . S
H722 C716 0.930 . S
H723 C720 0.930 . S
O724 Li664 1.956 . S
O724 Li665 1.970 . S
O724 Li666 1.961 . S
O724 C668 1.325 . S
O725 Li664 1.970 . S
O725 Li665 1.956 . S
O725 Li667 1.961 . S
O725 C674 1.325 . S
O726 Li664 1.961 . S
O726 Li666 1.956 . S
O726 Li667 1.970 . S
O726 C696 1.325 . S
O727 Li665 1.961 . S
O727 Li666 1.970 . S
O727 Li667 1.956 . S
O727 C702 1.325 . S
H728 C670 0.929 . S
H729 C671 0.930 . S
H730 C672 0.930 . S
H731 C673 0.930 . S
H732 C675 0.930 . S
H733 C677 0.929 . S
H734 C678 0.930 . S
H735 C679 0.930 . S
H736 C682 0.930 . S
H737 C685 0.929 . S
H738 C690 0.929 . S
H739 C691 0.930 . S
H740 C698 0.929 . S
H741 C699 0.930 . S
H742 C700 0.930 . S
H743 C701 0.930 . S
H744 C703 0.929 . S
H745 C704 0.930 . S
H746 C705 0.930 . S
H747 C706 0.930 . S
H748 C710 0.929 . S
H749 C712 0.930 . S
H750 C718 0.929 . S
H751 C719 0.930 . S
Li752 N769 1.990 . S
Li752 O812 1.956 . S
Li752 O813 1.970 1_556 S
Li752 O814 1.961 . S
Li753 N777 1.990 . S
Li753 O812 1.970 1_554 S
Li753 O813 1.956 . S
Li753 O815 1.961 . S
Li754 N799 1.990 . S
Li754 O812 1.961 . S
Li754 O814 1.956 . S
Li754 O815 1.970 1_556 S
Li755 N805 1.990 . S
Li755 O813 1.961 . S
Li755 O814 1.970 1_554 S
Li755 O815 1.956 . S
C756 C758 1.348 1_556 S
C756 C759 1.356 . S
C756 O812 1.325 . S
N757 C760 1.314 1_556 S
N757 C761 1.279 . S
C758 C756 1.348 1_554 S
C758 C760 1.353 . S
C758 H816 0.929 . S
C759 C756 1.356 . S
C759 C761 1.358 . S
C759 H817 0.930 . S
C760 N757 1.314 1_554 S
C760 C758 1.353 . S
C760 H818 0.930 . S
C761 N757 1.279 . S
C761 C759 1.358 . S
C761 H819 0.930 . S
C762 C765 1.348 . S
C762 C766 1.356 . S
C762 O813 1.325 . S
C763 N764 1.279 . S
C763 C766 1.358 . S
C763 H820 0.930 . S
N764 C763 1.279 . S
N764 C767 1.314 . S
C765 C762 1.348 . S
C765 C767 1.353 . S
C765 H821 0.929 . S
C766 C762 1.356 . S
C766 C763 1.358 . S
C766 H822 0.930 . S
C767 N764 1.314 . S
C767 C765 1.353 . S
C767 H823 0.930 . S
C768 N769 1.314 . S
C768 C773 1.353 . S
C768 H774 0.930 . S
N769 Li752 1.990 . S
N769 C768 1.314 . S
N769 C771 1.279 . S
C770 C771 1.358 . S
C770 C772 1.356 . S
C770 H824 0.930 . S
C771 N769 1.279 . S
C771 C770 1.358 . S
C771 H775 0.930 . S
C772 C770 1.356 . S
C772 C773 1.348 . S
C773 C768 1.353 . S
C773 C772 1.348 . S
C773 H825 0.929 . S
H774 C768 0.930 . S
H775 C771 0.930 . S
C776 N777 1.314 . S
C776 C778 1.353 . S
C776 H782 0.930 . S
N777 Li753 1.990 . S
N777 C776 1.314 . S
N777 C780 1.279 . S
C778 C776 1.353 . S
C778 C781 1.348 . S
C778 H826 0.929 . S
C779 C780 1.358 . S
C779 C781 1.356 . S
C779 H827 0.930 . S
C780 N777 1.279 . S
C780 C779 1.358 . S
C780 H783 0.930 . S
C781 C778 1.348 . S
C781 C779 1.356 . S
H782 C776 0.930 . S
H783 C780 0.930 . S
C784 C786 1.348 . S
C784 C787 1.356 . S
C784 O814 1.325 . S
N785 C788 1.314 . S
N785 C789 1.279 . S
C786 C784 1.348 . S
C786 C788 1.353 . S
C786 H828 0.929 . S
C787 C784 1.356 . S
C787 C789 1.358 . S
C787 H829 0.930 . S
C788 N785 1.314 . S
C788 C786 1.353 . S
C788 H830 0.930 . S
C789 N785 1.279 . S
C789 C787 1.358 . S
C789 H831 0.930 . S
C790 C791 1.348 1_554 S
C790 C792 1.356 . S
C790 O815 1.325 . S
C791 C790 1.348 1_556 S
C791 C793 1.353 . S
C791 H832 0.929 . S
C792 C790 1.356 . S
C792 C794 1.358 . S
C792 H833 0.930 . S
C793 C791 1.353 . S
C793 N795 1.314 1_556 S
C793 H834 0.930 . S
C794 C792 1.358 . S
C794 N795 1.279 . S
C794 H835 0.930 . S
N795 C793 1.314 1_554 S
N795 C794 1.279 . S
C796 C798 1.353 . S
C796 N799 1.314 . S
C796 H802 0.930 . S
C797 N799 1.279 . S
C797 C800 1.358 . S
C797 H803 0.930 . S
C798 C796 1.353 . S
C798 C801 1.348 . S
C798 H836 0.929 . S
N799 Li754 1.990 . S
N799 C796 1.314 . S
N799 C797 1.279 . S
C800 C797 1.358 . S
C800 C801 1.356 . S
C800 H837 0.930 . S
C801 C798 1.348 . S
C801 C800 1.356 . S
H802 C796 0.930 . S
H803 C797 0.930 . S
C804 N805 1.314 . S
C804 C806 1.353 . S
C804 H810 0.930 . S
N805 Li755 1.990 . S
N805 C804 1.314 . S
N805 C808 1.279 . S
C806 C804 1.353 . S
C806 C809 1.348 . S
C806 H838 0.929 . S
C807 C808 1.358 . S
C807 C809 1.356 . S
C807 H839 0.930 . S
C808 N805 1.279 . S
C808 C807 1.358 . S
C808 H811 0.930 . S
C809 C806 1.348 . S
C809 C807 1.356 . S
H810 C804 0.930 . S
H811 C808 0.930 . S
O812 Li752 1.956 . S
O812 Li753 1.970 1_556 S
O812 Li754 1.961 . S
O812 C756 1.325 . S
O813 Li752 1.970 1_554 S
O813 Li753 1.956 . S
O813 Li755 1.961 . S
O813 C762 1.325 . S
O814 Li752 1.961 . S
O814 Li754 1.956 . S
O814 Li755 1.970 1_556 S
O814 C784 1.325 . S
O815 Li753 1.961 . S
O815 Li754 1.970 1_554 S
O815 Li755 1.956 . S
O815 C790 1.325 . S
H816 C758 0.929 . S
H817 C759 0.930 . S
H818 C760 0.930 . S
H819 C761 0.930 . S
H820 C763 0.930 . S
H821 C765 0.929 . S
H822 C766 0.930 . S
H823 C767 0.930 . S
H824 C770 0.930 . S
H825 C773 0.929 . S
H826 C778 0.929 . S
H827 C779 0.930 . S
H828 C786 0.929 . S
H829 C787 0.930 . S
H830 C788 0.930 . S
H831 C789 0.930 . S
H832 C791 0.929 . S
H833 C792 0.930 . S
H834 C793 0.930 . S
H835 C794 0.930 . S
H836 C798 0.929 . S
H837 C800 0.930 . S
H838 C806 0.929 . S
H839 C807 0.930 . S
Li840 N857 1.990 . S
Li840 O900 1.956 . S
Li840 O901 1.970 1_545 S
Li840 O902 1.961 . S
Li841 N865 1.990 . S
Li841 O900 1.970 1_565 S
Li841 O901 1.956 . S
Li841 O903 1.961 . S
Li842 N887 1.990 . S
Li842 O900 1.961 . S
Li842 O902 1.956 . S
Li842 O903 1.970 1_545 S
Li843 N893 1.990 . S
Li843 O901 1.961 . S
Li843 O902 1.970 1_565 S
Li843 O903 1.956 . S
C844 C846 1.348 . S
C844 C847 1.356 . S
C844 O900 1.325 . S
N845 C848 1.314 . S
N845 C849 1.279 . S
C846 C844 1.348 . S
C846 C848 1.353 . S
C846 H904 0.929 . S
C847 C844 1.356 . S
C847 C849 1.358 . S
C847 H905 0.930 . S
C848 N845 1.314 . S
C848 C846 1.353 . S
C848 H906 0.930 . S
C849 N845 1.279 . S
C849 C847 1.358 . S
C849 H907 0.930 . S
C850 C853 1.348 1_565 S
C850 C854 1.356 . S
C850 O901 1.325 . S
C851 N852 1.279 . S
C851 C854 1.358 . S
C851 H908 0.930 . S
N852 C851 1.279 . S
N852 C855 1.314 1_565 S
C853 C850 1.348 1_545 S
C853 C855 1.353 . S
C853 H909 0.929 . S
C854 C850 1.356 . S
C854 C851 1.358 . S
C854 H910 0.930 . S
C855 N852 1.314 1_545 S
C855 C853 1.353 . S
C855 H911 0.930 . S
C856 N857 1.314 . S
C856 C861 1.353 . S
C856 H862 0.930 . S
N857 Li840 1.990 . S
N857 C856 1.314 . S
N857 C859 1.279 . S
C858 C859 1.358 . S
C858 C860 1.356 . S
C858 H912 0.930 . S
C859 N857 1.279 . S
C859 C858 1.358 . S
C859 H863 0.930 . S
C860 C858 1.356 . S
C860 C861 1.348 . S
C861 C856 1.353 . S
C861 C860 1.348 . S
C861 H913 0.929 . S
H862 C856 0.930 . S
H863 C859 0.930 . S
C864 N865 1.314 . S
C864 C866 1.353 . S
C864 H870 0.930 . S
N865 Li841 1.990 . S
N865 C864 1.314 . S
N865 C868 1.279 . S
C866 C864 1.353 . S
C866 C869 1.348 . S
C866 H914 0.929 . S
C867 C868 1.358 . S
C867 C869 1.356 . S
C867 H915 0.930 . S
C868 N865 1.279 . S
C868 C867 1.358 . S
C868 H871 0.930 . S
C869 C866 1.348 . S
C869 C867 1.356 . S
H870 C864 0.930 . S
H871 C868 0.930 . S
C872 C874 1.348 1_545 S
C872 C875 1.356 . S
C872 O902 1.325 . S
N873 C876 1.314 1_545 S
N873 C877 1.279 . S
C874 C872 1.348 1_565 S
C874 C876 1.353 . S
C874 H916 0.929 . S
C875 C872 1.356 . S
C875 C877 1.358 . S
C875 H917 0.930 . S
C876 N873 1.314 1_565 S
C876 C874 1.353 . S
C876 H918 0.930 . S
C877 N873 1.279 . S
C877 C875 1.358 . S
C877 H919 0.930 . S
C878 C879 1.348 . S
C878 C880 1.356 . S
C878 O903 1.325 . S
C879 C878 1.348 . S
C879 C881 1.353 . S
C879 H920 0.929 . S
C880 C878 1.356 . S
C880 C882 1.358 . S
C880 H921 0.930 . S
C881 C879 1.353 . S
C881 N883 1.314 . S
C881 H922 0.930 . S
C882 C880 1.358 . S
C882 N883 1.279 . S
C882 H923 0.930 . S
N883 C881 1.314 . S
N883 C882 1.279 . S
C884 C886 1.353 . S
C884 N887 1.314 . S
C884 H890 0.930 . S
C885 N887 1.279 . S
C885 C888 1.358 . S
C885 H891 0.930 . S
C886 C884 1.353 . S
C886 C889 1.348 . S
C886 H924 0.929 . S
N887 Li842 1.990 . S
N887 C884 1.314 . S
N887 C885 1.279 . S
C888 C885 1.358 . S
C888 C889 1.356 . S
C888 H925 0.930 . S
C889 C886 1.348 . S
C889 C888 1.356 . S
H890 C884 0.930 . S
H891 C885 0.930 . S
C892 N893 1.314 . S
C892 C894 1.353 . S
C892 H898 0.930 . S
N893 Li843 1.990 . S
N893 C892 1.314 . S
N893 C896 1.279 . S
C894 C892 1.353 . S
C894 C897 1.348 . S
C894 H926 0.929 . S
C895 C896 1.358 . S
C895 C897 1.356 . S
C895 H927 0.930 . S
C896 N893 1.279 . S
C896 C895 1.358 . S
C896 H899 0.930 . S
C897 C894 1.348 . S
C897 C895 1.356 . S
H898 C892 0.930 . S
H899 C896 0.930 . S
O900 Li840 1.956 . S
O900 Li841 1.970 1_545 S
O900 Li842 1.961 . S
O900 C844 1.325 . S
O901 Li840 1.970 1_565 S
O901 Li841 1.956 . S
O901 Li843 1.961 . S
O901 C850 1.325 . S
O902 Li840 1.961 . S
O902 Li842 1.956 . S
O902 Li843 1.970 1_545 S
O902 C872 1.325 . S
O903 Li841 1.961 . S
O903 Li842 1.970 1_565 S
O903 Li843 1.956 . S
O903 C878 1.325 . S
H904 C846 0.929 . S
H905 C847 0.930 . S
H906 C848 0.930 . S
H907 C849 0.930 . S
H908 C851 0.930 . S
H909 C853 0.929 . S
H910 C854 0.930 . S
H911 C855 0.930 . S
H912 C858 0.930 . S
H913 C861 0.929 . S
H914 C866 0.929 . S
H915 C867 0.930 . S
H916 C874 0.929 . S
H917 C875 0.930 . S
H918 C876 0.930 . S
H919 C877 0.930 . S
H920 C879 0.929 . S
H921 C880 0.930 . S
H922 C881 0.930 . S
H923 C882 0.930 . S
H924 C886 0.929 . S
H925 C888 0.930 . S
H926 C894 0.929 . S
H927 C895 0.930 . S
Li928 N945 1.990 . S
Li928 O988 1.956 . S
Li928 O989 1.970 . S
Li928 O990 1.961 . S
Li929 N953 1.990 . S
Li929 O988 1.970 . S
Li929 O989 1.956 . S
Li929 O991 1.961 . S
Li930 N975 1.990 . S
Li930 O988 1.961 . S
Li930 O990 1.956 . S
Li930 O991 1.970 . S
Li931 N981 1.990 . S
Li931 O989 1.961 . S
Li931 O990 1.970 . S
Li931 O991 1.956 . S
C932 C934 1.348 . S
C932 C935 1.356 . S
C932 O988 1.325 . S
N933 C936 1.314 . S
N933 C937 1.279 . S
C934 C932 1.348 . S
C934 C936 1.353 . S
C934 H992 0.929 . S
C935 C932 1.356 . S
C935 C937 1.358 . S
C935 H993 0.930 . S
C936 N933 1.314 . S
C936 C934 1.353 . S
C936 H994 0.930 . S
C937 N933 1.279 . S
C937 C935 1.358 . S
C937 H995 0.930 . S
C938 C941 1.348 . S
C938 C942 1.356 . S
C938 O989 1.325 . S
C939 N940 1.279 . S
C939 C942 1.358 . S
C939 H996 0.930 . S
N940 C939 1.279 . S
N940 C943 1.314 . S
C941 C938 1.348 . S
C941 C943 1.353 . S
C941 H997 0.929 . S
C942 C938 1.356 . S
C942 C939 1.358 . S
C942 H998 0.930 . S
C943 N940 1.314 . S
C943 C941 1.353 . S
C943 H999 0.930 . S
C944 N945 1.314 . S
C944 C949 1.353 . S
C944 H950 0.930 . S
N945 Li928 1.990 . S
N945 C944 1.314 . S
N945 C947 1.279 . S
C946 C947 1.358 . S
C946 C948 1.356 . S
C946 H1000 0.930 . S
C947 N945 1.279 . S
C947 C946 1.358 . S
C947 H951 0.930 . S
C948 C946 1.356 . S
C948 C949 1.348 . S
C949 C944 1.353 . S
C949 C948 1.348 . S
C949 H1001 0.929 . S
H950 C944 0.930 . S
H951 C947 0.930 . S
C952 N953 1.314 . S
C952 C954 1.353 . S
C952 H958 0.930 . S
N953 Li929 1.990 . S
N953 C952 1.314 . S
N953 C956 1.279 . S
C954 C952 1.353 . S
C954 C957 1.348 . S
C954 H1002 0.929 . S
C955 C956 1.358 . S
C955 C957 1.356 . S
C955 H1003 0.930 . S
C956 N953 1.279 . S
C956 C955 1.358 . S
C956 H959 0.930 . S
C957 C954 1.348 . S
C957 C955 1.356 . S
H958 C952 0.930 . S
H959 C956 0.930 . S
C960 C962 1.348 . S
C960 C963 1.356 . S
C960 O990 1.325 . S
N961 C964 1.314 . S
N961 C965 1.279 . S
C962 C960 1.348 . S
C962 C964 1.353 . S
C962 H1004 0.929 . S
C963 C960 1.356 . S
C963 C965 1.358 . S
C963 H1005 0.930 . S
C964 N961 1.314 . S
C964 C962 1.353 . S
C964 H1006 0.930 . S
C965 N961 1.279 . S
C965 C963 1.358 . S
C965 H1007 0.930 . S
C966 C967 1.348 . S
C966 C968 1.356 . S
C966 O991 1.325 . S
C967 C966 1.348 . S
C967 C969 1.353 . S
C967 H1008 0.929 . S
C968 C966 1.356 . S
C968 C970 1.358 . S
C968 H1009 0.930 . S
C969 C967 1.353 . S
C969 N971 1.314 . S
C969 H1010 0.930 . S
C970 C968 1.358 . S
C970 N971 1.279 . S
C970 H1011 0.930 . S
N971 C969 1.314 . S
N971 C970 1.279 . S
C972 C974 1.353 . S
C972 N975 1.314 . S
C972 H978 0.930 . S
C973 N975 1.279 . S
C973 C976 1.358 . S
C973 H979 0.930 . S
C974 C972 1.353 . S
C974 C977 1.348 . S
C974 H1012 0.929 . S
N975 Li930 1.990 . S
N975 C972 1.314 . S
N975 C973 1.279 . S
C976 C973 1.358 . S
C976 C977 1.356 . S
C976 H1013 0.930 . S
C977 C974 1.348 . S
C977 C976 1.356 . S
H978 C972 0.930 . S
H979 C973 0.930 . S
C980 N981 1.314 . S
C980 C982 1.353 . S
C980 H986 0.930 . S
N981 Li931 1.990 . S
N981 C980 1.314 . S
N981 C984 1.279 . S
C982 C980 1.353 . S
C982 C985 1.348 . S
C982 H1014 0.929 . S
C983 C984 1.358 . S
C983 C985 1.356 . S
C983 H1015 0.930 . S
C984 N981 1.279 . S
C984 C983 1.358 . S
C984 H987 0.930 . S
C985 C982 1.348 . S
C985 C983 1.356 . S
H986 C980 0.930 . S
H987 C984 0.930 . S
O988 Li928 1.956 . S
O988 Li929 1.970 . S
O988 Li930 1.961 . S
O988 C932 1.325 . S
O989 Li928 1.970 . S
O989 Li929 1.956 . S
O989 Li931 1.961 . S
O989 C938 1.325 . S
O990 Li928 1.961 . S
O990 Li930 1.956 . S
O990 Li931 1.970 . S
O990 C960 1.325 . S
O991 Li929 1.961 . S
O991 Li930 1.970 . S
O991 Li931 1.956 . S
O991 C966 1.325 . S
H992 C934 0.929 . S
H993 C935 0.930 . S
H994 C936 0.930 . S
H995 C937 0.930 . S
H996 C939 0.930 . S
H997 C941 0.929 . S
H998 C942 0.930 . S
H999 C943 0.930 . S
H1000 C946 0.930 . S
H1001 C949 0.929 . S
H1002 C954 0.929 . S
H1003 C955 0.930 . S
H1004 C962 0.929 . S
H1005 C963 0.930 . S
H1006 C964 0.930 . S
H1007 C965 0.930 . S
H1008 C967 0.929 . S
H1009 C968 0.930 . S
H1010 C969 0.930 . S
H1011 C970 0.930 . S
H1012 C974 0.929 . S
H1013 C976 0.930 . S
H1014 C982 0.929 . S
H1015 C983 0.930 . S
Li1016 N1033 1.990 . S
Li1016 O1076 1.956 . S
Li1016 O1077 1.970 . S
Li1016 O1078 1.961 . S
Li1017 N1041 1.990 . S
Li1017 O1076 1.970 . S
Li1017 O1077 1.956 . S
Li1017 O1079 1.961 . S
Li1018 N1063 1.990 . S
Li1018 O1076 1.961 . S
Li1018 O1078 1.956 . S
Li1018 O1079 1.970 . S
Li1019 N1069 1.990 . S
Li1019 O1077 1.961 . S
Li1019 O1078 1.970 . S
Li1019 O1079 1.956 . S
C1020 C1022 1.348 . S
C1020 C1023 1.356 . S
C1020 O1076 1.325 . S
N1021 C1024 1.314 . S
N1021 C1025 1.279 . S
C1022 C1020 1.348 . S
C1022 C1024 1.353 . S
C1022 H1080 0.929 . S
C1023 C1020 1.356 . S
C1023 C1025 1.358 . S
C1023 H1081 0.930 . S
C1024 N1021 1.314 . S
C1024 C1022 1.353 . S
C1024 H1082 0.930 . S
C1025 N1021 1.279 . S
C1025 C1023 1.358 . S
C1025 H1083 0.930 . S
C1026 C1029 1.348 . S
C1026 C1030 1.356 . S
C1026 O1077 1.325 . S
C1027 N1028 1.279 . S
C1027 C1030 1.358 . S
C1027 H1084 0.930 . S
N1028 C1027 1.279 . S
N1028 C1031 1.314 . S
C1029 C1026 1.348 . S
C1029 C1031 1.353 . S
C1029 H1085 0.929 . S
C1030 C1026 1.356 . S
C1030 C1027 1.358 . S
C1030 H1086 0.930 . S
C1031 N1028 1.314 . S
C1031 C1029 1.353 . S
C1031 H1087 0.930 . S
C1032 N1033 1.314 . S
C1032 C1037 1.353 . S
C1032 H1038 0.930 . S
N1033 Li1016 1.990 . S
N1033 C1032 1.314 . S
N1033 C1035 1.279 . S
C1034 C1035 1.358 . S
C1034 C1036 1.356 . S
C1034 H1088 0.930 . S
C1035 N1033 1.279 . S
C1035 C1034 1.358 . S
C1035 H1039 0.930 . S
C1036 C1034 1.356 . S
C1036 C1037 1.348 . S
C1037 C1032 1.353 . S
C1037 C1036 1.348 . S
C1037 H1089 0.929 . S
H1038 C1032 0.930 . S
H1039 C1035 0.930 . S
C1040 N1041 1.314 . S
C1040 C1042 1.353 . S
C1040 H1046 0.930 . S
N1041 Li1017 1.990 . S
N1041 C1040 1.314 . S
N1041 C1044 1.279 . S
C1042 C1040 1.353 . S
C1042 C1045 1.348 . S
C1042 H1090 0.929 . S
C1043 C1044 1.358 . S
C1043 C1045 1.356 . S
C1043 H1091 0.930 . S
C1044 N1041 1.279 . S
C1044 C1043 1.358 . S
C1044 H1047 0.930 . S
C1045 C1042 1.348 . S
C1045 C1043 1.356 . S
H1046 C1040 0.930 . S
H1047 C1044 0.930 . S
C1048 C1050 1.348 . S
C1048 C1051 1.356 . S
C1048 O1078 1.325 . S
N1049 C1052 1.314 . S
N1049 C1053 1.279 . S
C1050 C1048 1.348 . S
C1050 C1052 1.353 . S
C1050 H1092 0.929 . S
C1051 C1048 1.356 . S
C1051 C1053 1.358 . S
C1051 H1093 0.930 . S
C1052 N1049 1.314 . S
C1052 C1050 1.353 . S
C1052 H1094 0.930 . S
C1053 N1049 1.279 . S
C1053 C1051 1.358 . S
C1053 H1095 0.930 . S
C1054 C1055 1.348 . S
C1054 C1056 1.356 . S
C1054 O1079 1.325 . S
C1055 C1054 1.348 . S
C1055 C1057 1.353 . S
C1055 H1096 0.929 . S
C1056 C1054 1.356 . S
C1056 C1058 1.358 . S
C1056 H1097 0.930 . S
C1057 C1055 1.353 . S
C1057 N1059 1.314 . S
C1057 H1098 0.930 . S
C1058 C1056 1.358 . S
C1058 N1059 1.279 . S
C1058 H1099 0.930 . S
N1059 C1057 1.314 . S
N1059 C1058 1.279 . S
C1060 C1062 1.353 . S
C1060 N1063 1.314 . S
C1060 H1066 0.930 . S
C1061 N1063 1.279 . S
C1061 C1064 1.358 . S
C1061 H1067 0.930 . S
C1062 C1060 1.353 . S
C1062 C1065 1.348 . S
C1062 H1100 0.929 . S
N1063 Li1018 1.990 . S
N1063 C1060 1.314 . S
N1063 C1061 1.279 . S
C1064 C1061 1.358 . S
C1064 C1065 1.356 . S
C1064 H1101 0.930 . S
C1065 C1062 1.348 . S
C1065 C1064 1.356 . S
H1066 C1060 0.930 . S
H1067 C1061 0.930 . S
C1068 N1069 1.314 . S
C1068 C1070 1.353 . S
C1068 H1074 0.930 . S
N1069 Li1019 1.990 . S
N1069 C1068 1.314 . S
N1069 C1072 1.279 . S
C1070 C1068 1.353 . S
C1070 C1073 1.348 . S
C1070 H1102 0.929 . S
C1071 C1072 1.358 . S
C1071 C1073 1.356 . S
C1071 H1103 0.930 . S
C1072 N1069 1.279 . S
C1072 C1071 1.358 . S
C1072 H1075 0.930 . S
C1073 C1070 1.348 . S
C1073 C1071 1.356 . S
H1074 C1068 0.930 . S
H1075 C1072 0.930 . S
O1076 Li1016 1.956 . S
O1076 Li1017 1.970 . S
O1076 Li1018 1.961 . S
O1076 C1020 1.325 . S
O1077 Li1016 1.970 . S
O1077 Li1017 1.956 . S
O1077 Li1019 1.961 . S
O1077 C1026 1.325 . S
O1078 Li1016 1.961 . S
O1078 Li1018 1.956 . S
O1078 Li1019 1.970 . S
O1078 C1048 1.325 . S
O1079 Li1017 1.961 . S
O1079 Li1018 1.970 . S
O1079 Li1019 1.956 . S
O1079 C1054 1.325 . S
H1080 C1022 0.929 . S
H1081 C1023 0.930 . S
H1082 C1024 0.930 . S
H1083 C1025 0.930 . S
H1084 C1027 0.930 . S
H1085 C1029 0.929 . S
H1086 C1030 0.930 . S
H1087 C1031 0.930 . S
H1088 C1034 0.930 . S
H1089 C1037 0.929 . S
H1090 C1042 0.929 . S
H1091 C1043 0.930 . S
H1092 C1050 0.929 . S
H1093 C1051 0.930 . S
H1094 C1052 0.930 . S
H1095 C1053 0.930 . S
H1096 C1055 0.929 . S
H1097 C1056 0.930 . S
H1098 C1057 0.930 . S
H1099 C1058 0.930 . S
H1100 C1062 0.929 . S
H1101 C1064 0.930 . S
H1102 C1070 0.929 . S
H1103 C1071 0.930 . S
Li1104 N1121 1.990 . S
Li1104 O1164 1.956 . S
Li1104 O1165 1.970 . S
Li1104 O1166 1.961 . S
Li1105 N1129 1.990 . S
Li1105 O1164 1.970 . S
Li1105 O1165 1.956 . S
Li1105 O1167 1.961 . S
Li1106 N1151 1.990 . S
Li1106 O1164 1.961 . S
Li1106 O1166 1.956 . S
Li1106 O1167 1.970 . S
Li1107 N1157 1.990 . S
Li1107 O1165 1.961 . S
Li1107 O1166 1.970 . S
Li1107 O1167 1.956 . S
C1108 C1110 1.348 . S
C1108 C1111 1.356 . S
C1108 O1164 1.325 . S
N1109 C1112 1.314 . S
N1109 C1113 1.279 . S
C1110 C1108 1.348 . S
C1110 C1112 1.353 . S
C1110 H1168 0.929 . S
C1111 C1108 1.356 . S
C1111 C1113 1.358 . S
C1111 H1169 0.930 . S
C1112 N1109 1.314 . S
C1112 C1110 1.353 . S
C1112 H1170 0.930 . S
C1113 N1109 1.279 . S
C1113 C1111 1.358 . S
C1113 H1171 0.930 . S
C1114 C1117 1.348 . S
C1114 C1118 1.356 . S
C1114 O1165 1.325 . S
C1115 N1116 1.279 . S
C1115 C1118 1.358 . S
C1115 H1172 0.930 . S
N1116 C1115 1.279 . S
N1116 C1119 1.314 . S
C1117 C1114 1.348 . S
C1117 C1119 1.353 . S
C1117 H1173 0.929 . S
C1118 C1114 1.356 . S
C1118 C1115 1.358 . S
C1118 H1174 0.930 . S
C1119 N1116 1.314 . S
C1119 C1117 1.353 . S
C1119 H1175 0.930 . S
C1120 N1121 1.314 . S
C1120 C1125 1.353 . S
C1120 H1126 0.930 . S
N1121 Li1104 1.990 . S
N1121 C1120 1.314 . S
N1121 C1123 1.279 . S
C1122 C1123 1.358 . S
C1122 C1124 1.356 . S
C1122 H1176 0.930 . S
C1123 N1121 1.279 . S
C1123 C1122 1.358 . S
C1123 H1127 0.930 . S
C1124 C1122 1.356 . S
C1124 C1125 1.348 . S
C1125 C1120 1.353 . S
C1125 C1124 1.348 . S
C1125 H1177 0.929 . S
H1126 C1120 0.930 . S
H1127 C1123 0.930 . S
C1128 N1129 1.314 . S
C1128 C1130 1.353 . S
C1128 H1134 0.930 . S
N1129 Li1105 1.990 . S
N1129 C1128 1.314 . S
N1129 C1132 1.279 . S
C1130 C1128 1.353 . S
C1130 C1133 1.348 . S
C1130 H1178 0.929 . S
C1131 C1132 1.358 . S
C1131 C1133 1.356 . S
C1131 H1179 0.930 . S
C1132 N1129 1.279 . S
C1132 C1131 1.358 . S
C1132 H1135 0.930 . S
C1133 C1130 1.348 . S
C1133 C1131 1.356 . S
H1134 C1128 0.930 . S
H1135 C1132 0.930 . S
C1136 C1138 1.348 . S
C1136 C1139 1.356 . S
C1136 O1166 1.325 . S
N1137 C1140 1.314 . S
N1137 C1141 1.279 . S
C1138 C1136 1.348 . S
C1138 C1140 1.353 . S
C1138 H1180 0.929 . S
C1139 C1136 1.356 . S
C1139 C1141 1.358 . S
C1139 H1181 0.930 . S
C1140 N1137 1.314 . S
C1140 C1138 1.353 . S
C1140 H1182 0.930 . S
C1141 N1137 1.279 . S
C1141 C1139 1.358 . S
C1141 H1183 0.930 . S
C1142 C1143 1.348 . S
C1142 C1144 1.356 . S
C1142 O1167 1.325 . S
C1143 C1142 1.348 . S
C1143 C1145 1.353 . S
C1143 H1184 0.929 . S
C1144 C1142 1.356 . S
C1144 C1146 1.358 . S
C1144 H1185 0.930 . S
C1145 C1143 1.353 . S
C1145 N1147 1.314 . S
C1145 H1186 0.930 . S
C1146 C1144 1.358 . S
C1146 N1147 1.279 . S
C1146 H1187 0.930 . S
N1147 C1145 1.314 . S
N1147 C1146 1.279 . S
C1148 C1150 1.353 . S
C1148 N1151 1.314 . S
C1148 H1154 0.930 . S
C1149 N1151 1.279 . S
C1149 C1152 1.358 . S
C1149 H1155 0.930 . S
C1150 C1148 1.353 . S
C1150 C1153 1.348 . S
C1150 H1188 0.929 . S
N1151 Li1106 1.990 . S
N1151 C1148 1.314 . S
N1151 C1149 1.279 . S
C1152 C1149 1.358 . S
C1152 C1153 1.356 . S
C1152 H1189 0.930 . S
C1153 C1150 1.348 . S
C1153 C1152 1.356 . S
H1154 C1148 0.930 . S
H1155 C1149 0.930 . S
C1156 N1157 1.314 . S
C1156 C1158 1.353 . S
C1156 H1162 0.930 . S
N1157 Li1107 1.990 . S
N1157 C1156 1.314 . S
N1157 C1160 1.279 . S
C1158 C1156 1.353 . S
C1158 C1161 1.348 . S
C1158 H1190 0.929 . S
C1159 C1160 1.358 . S
C1159 C1161 1.356 . S
C1159 H1191 0.930 . S
C1160 N1157 1.279 . S
C1160 C1159 1.358 . S
C1160 H1163 0.930 . S
C1161 C1158 1.348 . S
C1161 C1159 1.356 . S
H1162 C1156 0.930 . S
H1163 C1160 0.930 . S
O1164 Li1104 1.956 . S
O1164 Li1105 1.970 . S
O1164 Li1106 1.961 . S
O1164 C1108 1.325 . S
O1165 Li1104 1.970 . S
O1165 Li1105 1.956 . S
O1165 Li1107 1.961 . S
O1165 C1114 1.325 . S
O1166 Li1104 1.961 . S
O1166 Li1106 1.956 . S
O1166 Li1107 1.970 . S
O1166 C1136 1.325 . S
O1167 Li1105 1.961 . S
O1167 Li1106 1.970 . S
O1167 Li1107 1.956 . S
O1167 C1142 1.325 . S
H1168 C1110 0.929 . S
H1169 C1111 0.930 . S
H1170 C1112 0.930 . S
H1171 C1113 0.930 . S
H1172 C1115 0.930 . S
H1173 C1117 0.929 . S
H1174 C1118 0.930 . S
H1175 C1119 0.930 . S
H1176 C1122 0.930 . S
H1177 C1125 0.929 . S
H1178 C1130 0.929 . S
H1179 C1131 0.930 . S
H1180 C1138 0.929 . S
H1181 C1139 0.930 . S
H1182 C1140 0.930 . S
H1183 C1141 0.930 . S
H1184 C1143 0.929 . S
H1185 C1144 0.930 . S
H1186 C1145 0.930 . S
H1187 C1146 0.930 . S
H1188 C1150 0.929 . S
H1189 C1152 0.930 . S
H1190 C1158 0.929 . S
H1191 C1159 0.930 . S
Li1192 N1209 1.990 . S
Li1192 O1252 1.956 . S
Li1192 O1253 1.970 1_565 S
Li1192 O1254 1.961 . S
Li1193 N1217 1.990 . S
Li1193 O1252 1.970 1_545 S
Li1193 O1253 1.956 . S
Li1193 O1255 1.961 . S
Li1194 N1239 1.990 . S
Li1194 O1252 1.961 . S
Li1194 O1254 1.956 . S
Li1194 O1255 1.970 1_565 S
Li1195 N1245 1.990 . S
Li1195 O1253 1.961 . S
Li1195 O1254 1.970 1_545 S
Li1195 O1255 1.956 . S
C1196 C1198 1.348 . S
C1196 C1199 1.356 . S
C1196 O1252 1.325 . S
N1197 C1200 1.314 . S
N1197 C1201 1.279 . S
C1198 C1196 1.348 . S
C1198 C1200 1.353 . S
C1198 H1256 0.929 . S
C1199 C1196 1.356 . S
C1199 C1201 1.358 . S
C1199 H1257 0.930 . S
C1200 N1197 1.314 . S
C1200 C1198 1.353 . S
C1200 H1258 0.930 . S
C1201 N1197 1.279 . S
C1201 C1199 1.358 . S
C1201 H1259 0.930 . S
C1202 C1205 1.348 1_545 S
C1202 C1206 1.356 . S
C1202 O1253 1.325 . S
C1203 N1204 1.279 . S
C1203 C1206 1.358 . S
C1203 H1260 0.930 . S
N1204 C1203 1.279 . S
N1204 C1207 1.314 1_545 S
C1205 C1202 1.348 1_565 S
C1205 C1207 1.353 . S
C1205 H1261 0.929 . S
C1206 C1202 1.356 . S
C1206 C1203 1.358 . S
C1206 H1262 0.930 . S
C1207 N1204 1.314 1_565 S
C1207 C1205 1.353 . S
C1207 H1263 0.930 . S
C1208 N1209 1.314 . S
C1208 C1213 1.353 . S
C1208 H1214 0.930 . S
N1209 Li1192 1.990 . S
N1209 C1208 1.314 . S
N1209 C1211 1.279 . S
C1210 C1211 1.358 . S
C1210 C1212 1.356 . S
C1210 H1264 0.930 . S
C1211 N1209 1.279 . S
C1211 C1210 1.358 . S
C1211 H1215 0.930 . S
C1212 C1210 1.356 . S
C1212 C1213 1.348 . S
C1213 C1208 1.353 . S
C1213 C1212 1.348 . S
C1213 H1265 0.929 . S
H1214 C1208 0.930 . S
H1215 C1211 0.930 . S
C1216 N1217 1.314 . S
C1216 C1218 1.353 . S
C1216 H1222 0.930 . S
N1217 Li1193 1.990 . S
N1217 C1216 1.314 . S
N1217 C1220 1.279 . S
C1218 C1216 1.353 . S
C1218 C1221 1.348 . S
C1218 H1266 0.929 . S
C1219 C1220 1.358 . S
C1219 C1221 1.356 . S
C1219 H1267 0.930 . S
C1220 N1217 1.279 . S
C1220 C1219 1.358 . S
C1220 H1223 0.930 . S
C1221 C1218 1.348 . S
C1221 C1219 1.356 . S
H1222 C1216 0.930 . S
H1223 C1220 0.930 . S
C1224 C1226 1.348 1_565 S
C1224 C1227 1.356 . S
C1224 O1254 1.325 . S
N1225 C1228 1.314 1_565 S
N1225 C1229 1.279 . S
C1226 C1224 1.348 1_545 S
C1226 C1228 1.353 . S
C1226 H1268 0.929 . S
C1227 C1224 1.356 . S
C1227 C1229 1.358 . S
C1227 H1269 0.930 . S
C1228 N1225 1.314 1_545 S
C1228 C1226 1.353 . S
C1228 H1270 0.930 . S
C1229 N1225 1.279 . S
C1229 C1227 1.358 . S
C1229 H1271 0.930 . S
C1230 C1231 1.348 . S
C1230 C1232 1.356 . S
C1230 O1255 1.325 . S
C1231 C1230 1.348 . S
C1231 C1233 1.353 . S
C1231 H1272 0.929 . S
C1232 C1230 1.356 . S
C1232 C1234 1.358 . S
C1232 H1273 0.930 . S
C1233 C1231 1.353 . S
C1233 N1235 1.314 . S
C1233 H1274 0.930 . S
C1234 C1232 1.358 . S
C1234 N1235 1.279 . S
C1234 H1275 0.930 . S
N1235 C1233 1.314 . S
N1235 C1234 1.279 . S
C1236 C1238 1.353 . S
C1236 N1239 1.314 . S
C1236 H1242 0.930 . S
C1237 N1239 1.279 . S
C1237 C1240 1.358 . S
C1237 H1243 0.930 . S
C1238 C1236 1.353 . S
C1238 C1241 1.348 . S
C1238 H1276 0.929 . S
N1239 Li1194 1.990 . S
N1239 C1236 1.314 . S
N1239 C1237 1.279 . S
C1240 C1237 1.358 . S
C1240 C1241 1.356 . S
C1240 H1277 0.930 . S
C1241 C1238 1.348 . S
C1241 C1240 1.356 . S
H1242 C1236 0.930 . S
H1243 C1237 0.930 . S
C1244 N1245 1.314 . S
C1244 C1246 1.353 . S
C1244 H1250 0.930 . S
N1245 Li1195 1.990 . S
N1245 C1244 1.314 . S
N1245 C1248 1.279 . S
C1246 C1244 1.353 . S
C1246 C1249 1.348 . S
C1246 H1278 0.929 . S
C1247 C1248 1.358 . S
C1247 C1249 1.356 . S
C1247 H1279 0.930 . S
C1248 N1245 1.279 . S
C1248 C1247 1.358 . S
C1248 H1251 0.930 . S
C1249 C1246 1.348 . S
C1249 C1247 1.356 . S
H1250 C1244 0.930 . S
H1251 C1248 0.930 . S
O1252 Li1192 1.956 . S
O1252 Li1193 1.970 1_565 S
O1252 Li1194 1.961 . S
O1252 C1196 1.325 . S
O1253 Li1192 1.970 1_545 S
O1253 Li1193 1.956 . S
O1253 Li1195 1.961 . S
O1253 C1202 1.325 . S
O1254 Li1192 1.961 . S
O1254 Li1194 1.956 . S
O1254 Li1195 1.970 1_565 S
O1254 C1224 1.325 . S
O1255 Li1193 1.961 . S
O1255 Li1194 1.970 1_545 S
O1255 Li1195 1.956 . S
O1255 C1230 1.325 . S
H1256 C1198 0.929 . S
H1257 C1199 0.930 . S
H1258 C1200 0.930 . S
H1259 C1201 0.930 . S
H1260 C1203 0.930 . S
H1261 C1205 0.929 . S
H1262 C1206 0.930 . S
H1263 C1207 0.930 . S
H1264 C1210 0.930 . S
H1265 C1213 0.929 . S
H1266 C1218 0.929 . S
H1267 C1219 0.930 . S
H1268 C1226 0.929 . S
H1269 C1227 0.930 . S
H1270 C1228 0.930 . S
H1271 C1229 0.930 . S
H1272 C1231 0.929 . S
H1273 C1232 0.930 . S
H1274 C1233 0.930 . S
H1275 C1234 0.930 . S
H1276 C1238 0.929 . S
H1277 C1240 0.930 . S
H1278 C1246 0.929 . S
H1279 C1247 0.930 . S
Li1280 N1297 1.990 . S
Li1280 O1340 1.956 . S
Li1280 O1341 1.970 1_455 S
Li1280 O1342 1.961 . S
Li1281 N1305 1.990 . S
Li1281 O1340 1.970 1_655 S
Li1281 O1341 1.956 . S
Li1281 O1343 1.961 . S
Li1282 N1327 1.990 . S
Li1282 O1340 1.961 . S
Li1282 O1342 1.956 . S
Li1282 O1343 1.970 1_455 S
Li1283 N1333 1.990 . S
Li1283 O1341 1.961 . S
Li1283 O1342 1.970 1_655 S
Li1283 O1343 1.956 . S
C1284 C1286 1.348 . S
C1284 C1287 1.356 . S
C1284 O1340 1.325 . S
N1285 C1288 1.314 . S
N1285 C1289 1.279 . S
C1286 C1284 1.348 . S
C1286 C1288 1.353 . S
C1286 H1344 0.929 . S
C1287 C1284 1.356 . S
C1287 C1289 1.358 . S
C1287 H1345 0.930 . S
C1288 N1285 1.314 . S
C1288 C1286 1.353 . S
C1288 H1346 0.930 . S
C1289 N1285 1.279 . S
C1289 C1287 1.358 . S
C1289 H1347 0.930 . S
C1290 C1293 1.348 1_655 S
C1290 C1294 1.356 . S
C1290 O1341 1.325 . S
C1291 N1292 1.279 . S
C1291 C1294 1.358 . S
C1291 H1348 0.930 . S
N1292 C1291 1.279 . S
N1292 C1295 1.314 1_655 S
C1293 C1290 1.348 1_455 S
C1293 C1295 1.353 . S
C1293 H1349 0.929 . S
C1294 C1290 1.356 . S
C1294 C1291 1.358 . S
C1294 H1350 0.930 . S
C1295 N1292 1.314 1_455 S
C1295 C1293 1.353 . S
C1295 H1351 0.930 . S
C1296 N1297 1.314 . S
C1296 C1301 1.353 . S
C1296 H1302 0.930 . S
N1297 Li1280 1.990 . S
N1297 C1296 1.314 . S
N1297 C1299 1.279 . S
C1298 C1299 1.358 . S
C1298 C1300 1.356 . S
C1298 H1352 0.930 . S
C1299 N1297 1.279 . S
C1299 C1298 1.358 . S
C1299 H1303 0.930 . S
C1300 C1298 1.356 . S
C1300 C1301 1.348 . S
C1301 C1296 1.353 . S
C1301 C1300 1.348 . S
C1301 H1353 0.929 . S
H1302 C1296 0.930 . S
H1303 C1299 0.930 . S
C1304 N1305 1.314 . S
C1304 C1306 1.353 . S
C1304 H1310 0.930 . S
N1305 Li1281 1.990 . S
N1305 C1304 1.314 . S
N1305 C1308 1.279 . S
C1306 C1304 1.353 . S
C1306 C1309 1.348 . S
C1306 H1354 0.929 . S
C1307 C1308 1.358 . S
C1307 C1309 1.356 . S
C1307 H1355 0.930 . S
C1308 N1305 1.279 . S
C1308 C1307 1.358 . S
C1308 H1311 0.930 . S
C1309 C1306 1.348 . S
C1309 C1307 1.356 . S
H1310 C1304 0.930 . S
H1311 C1308 0.930 . S
C1312 C1314 1.348 1_455 S
C1312 C1315 1.356 . S
C1312 O1342 1.325 . S
N1313 C1316 1.314 1_455 S
N1313 C1317 1.279 . S
C1314 C1312 1.348 1_655 S
C1314 C1316 1.353 . S
C1314 H1356 0.929 . S
C1315 C1312 1.356 . S
C1315 C1317 1.358 . S
C1315 H1357 0.930 . S
C1316 N1313 1.314 1_655 S
C1316 C1314 1.353 . S
C1316 H1358 0.930 . S
C1317 N1313 1.279 . S
C1317 C1315 1.358 . S
C1317 H1359 0.930 . S
C1318 C1319 1.348 . S
C1318 C1320 1.356 . S
C1318 O1343 1.325 . S
C1319 C1318 1.348 . S
C1319 C1321 1.353 . S
C1319 H1360 0.929 . S
C1320 C1318 1.356 . S
C1320 C1322 1.358 . S
C1320 H1361 0.930 . S
C1321 C1319 1.353 . S
C1321 N1323 1.314 . S
C1321 H1362 0.930 . S
C1322 C1320 1.358 . S
C1322 N1323 1.279 . S
C1322 H1363 0.930 . S
N1323 C1321 1.314 . S
N1323 C1322 1.279 . S
C1324 C1326 1.353 . S
C1324 N1327 1.314 . S
C1324 H1330 0.930 . S
C1325 N1327 1.279 . S
C1325 C1328 1.358 . S
C1325 H1331 0.930 . S
C1326 C1324 1.353 . S
C1326 C1329 1.348 . S
C1326 H1364 0.929 . S
N1327 Li1282 1.990 . S
N1327 C1324 1.314 . S
N1327 C1325 1.279 . S
C1328 C1325 1.358 . S
C1328 C1329 1.356 . S
C1328 H1365 0.930 . S
C1329 C1326 1.348 . S
C1329 C1328 1.356 . S
H1330 C1324 0.930 . S
H1331 C1325 0.930 . S
C1332 N1333 1.314 . S
C1332 C1334 1.353 . S
C1332 H1338 0.930 . S
N1333 Li1283 1.990 . S
N1333 C1332 1.314 . S
N1333 C1336 1.279 . S
C1334 C1332 1.353 . S
C1334 C1337 1.348 . S
C1334 H1366 0.929 . S
C1335 C1336 1.358 . S
C1335 C1337 1.356 . S
C1335 H1367 0.930 . S
C1336 N1333 1.279 . S
C1336 C1335 1.358 . S
C1336 H1339 0.930 . S
C1337 C1334 1.348 . S
C1337 C1335 1.356 . S
H1338 C1332 0.930 . S
H1339 C1336 0.930 . S
O1340 Li1280 1.956 . S
O1340 Li1281 1.970 1_455 S
O1340 Li1282 1.961 . S
O1340 C1284 1.325 . S
O1341 Li1280 1.970 1_655 S
O1341 Li1281 1.956 . S
O1341 Li1283 1.961 . S
O1341 C1290 1.325 . S
O1342 Li1280 1.961 . S
O1342 Li1282 1.956 . S
O1342 Li1283 1.970 1_455 S
O1342 C1312 1.325 . S
O1343 Li1281 1.961 . S
O1343 Li1282 1.970 1_655 S
O1343 Li1283 1.956 . S
O1343 C1318 1.325 . S
H1344 C1286 0.929 . S
H1345 C1287 0.930 . S
H1346 C1288 0.930 . S
H1347 C1289 0.930 . S
H1348 C1291 0.930 . S
H1349 C1293 0.929 . S
H1350 C1294 0.930 . S
H1351 C1295 0.930 . S
H1352 C1298 0.930 . S
H1353 C1301 0.929 . S
H1354 C1306 0.929 . S
H1355 C1307 0.930 . S
H1356 C1314 0.929 . S
H1357 C1315 0.930 . S
H1358 C1316 0.930 . S
H1359 C1317 0.930 . S
H1360 C1319 0.929 . S
H1361 C1320 0.930 . S
H1362 C1321 0.930 . S
H1363 C1322 0.930 . S
H1364 C1326 0.929 . S
H1365 C1328 0.930 . S
H1366 C1334 0.929 . S
H1367 C1335 0.930 . S
Li1368 N1385 1.990 . S
Li1368 O1428 1.956 . S
Li1368 O1429 1.970 . S
Li1368 O1430 1.961 . S
Li1369 N1393 1.990 . S
Li1369 O1428 1.970 . S
Li1369 O1429 1.956 . S
Li1369 O1431 1.961 . S
Li1370 N1415 1.990 . S
Li1370 O1428 1.961 . S
Li1370 O1430 1.956 . S
Li1370 O1431 1.970 . S
Li1371 N1421 1.990 . S
Li1371 O1429 1.961 . S
Li1371 O1430 1.970 . S
Li1371 O1431 1.956 . S
C1372 C1374 1.348 . S
C1372 C1375 1.356 . S
C1372 O1428 1.325 . S
N1373 C1376 1.314 . S
N1373 C1377 1.279 . S
C1374 C1372 1.348 . S
C1374 C1376 1.353 . S
C1374 H1432 0.929 . S
C1375 C1372 1.356 . S
C1375 C1377 1.358 . S
C1375 H1433 0.930 . S
C1376 N1373 1.314 . S
C1376 C1374 1.353 . S
C1376 H1434 0.930 . S
C1377 N1373 1.279 . S
C1377 C1375 1.358 . S
C1377 H1435 0.930 . S
C1378 C1381 1.348 . S
C1378 C1382 1.356 . S
C1378 O1429 1.325 . S
C1379 N1380 1.279 . S
C1379 C1382 1.358 . S
C1379 H1436 0.930 . S
N1380 C1379 1.279 . S
N1380 C1383 1.314 . S
C1381 C1378 1.348 . S
C1381 C1383 1.353 . S
C1381 H1437 0.929 . S
C1382 C1378 1.356 . S
C1382 C1379 1.358 . S
C1382 H1438 0.930 . S
C1383 N1380 1.314 . S
C1383 C1381 1.353 . S
C1383 H1439 0.930 . S
C1384 N1385 1.314 . S
C1384 C1389 1.353 . S
C1384 H1390 0.930 . S
N1385 Li1368 1.990 . S
N1385 C1384 1.314 . S
N1385 C1387 1.279 . S
C1386 C1387 1.358 . S
C1386 C1388 1.356 . S
C1386 H1440 0.930 . S
C1387 N1385 1.279 . S
C1387 C1386 1.358 . S
C1387 H1391 0.930 . S
C1388 C1386 1.356 . S
C1388 C1389 1.348 . S
C1389 C1384 1.353 . S
C1389 C1388 1.348 . S
C1389 H1441 0.929 . S
H1390 C1384 0.930 . S
H1391 C1387 0.930 . S
C1392 N1393 1.314 . S
C1392 C1394 1.353 . S
C1392 H1398 0.930 . S
N1393 Li1369 1.990 . S
N1393 C1392 1.314 . S
N1393 C1396 1.279 . S
C1394 C1392 1.353 . S
C1394 C1397 1.348 . S
C1394 H1442 0.929 . S
C1395 C1396 1.358 . S
C1395 C1397 1.356 . S
C1395 H1443 0.930 . S
C1396 N1393 1.279 . S
C1396 C1395 1.358 . S
C1396 H1399 0.930 . S
C1397 C1394 1.348 . S
C1397 C1395 1.356 . S
H1398 C1392 0.930 . S
H1399 C1396 0.930 . S
C1400 C1402 1.348 . S
C1400 C1403 1.356 . S
C1400 O1430 1.325 . S
N1401 C1404 1.314 . S
N1401 C1405 1.279 . S
C1402 C1400 1.348 . S
C1402 C1404 1.353 . S
C1402 H1444 0.929 . S
C1403 C1400 1.356 . S
C1403 C1405 1.358 . S
C1403 H1445 0.930 . S
C1404 N1401 1.314 . S
C1404 C1402 1.353 . S
C1404 H1446 0.930 . S
C1405 N1401 1.279 . S
C1405 C1403 1.358 . S
C1405 H1447 0.930 . S
C1406 C1407 1.348 . S
C1406 C1408 1.356 . S
C1406 O1431 1.325 . S
C1407 C1406 1.348 . S
C1407 C1409 1.353 . S
C1407 H1448 0.929 . S
C1408 C1406 1.356 . S
C1408 C1410 1.358 . S
C1408 H1449 0.930 . S
C1409 C1407 1.353 . S
C1409 N1411 1.314 . S
C1409 H1450 0.930 . S
C1410 C1408 1.358 . S
C1410 N1411 1.279 . S
C1410 H1451 0.930 . S
N1411 C1409 1.314 . S
N1411 C1410 1.279 . S
C1412 C1414 1.353 . S
C1412 N1415 1.314 . S
C1412 H1418 0.930 . S
C1413 N1415 1.279 . S
C1413 C1416 1.358 . S
C1413 H1419 0.930 . S
C1414 C1412 1.353 . S
C1414 C1417 1.348 . S
C1414 H1452 0.929 . S
N1415 Li1370 1.990 . S
N1415 C1412 1.314 . S
N1415 C1413 1.279 . S
C1416 C1413 1.358 . S
C1416 C1417 1.356 . S
C1416 H1453 0.930 . S
C1417 C1414 1.348 . S
C1417 C1416 1.356 . S
H1418 C1412 0.930 . S
H1419 C1413 0.930 . S
C1420 N1421 1.314 . S
C1420 C1422 1.353 . S
C1420 H1426 0.930 . S
N1421 Li1371 1.990 . S
N1421 C1420 1.314 . S
N1421 C1424 1.279 . S
C1422 C1420 1.353 . S
C1422 C1425 1.348 . S
C1422 H1454 0.929 . S
C1423 C1424 1.358 . S
C1423 C1425 1.356 . S
C1423 H1455 0.930 . S
C1424 N1421 1.279 . S
C1424 C1423 1.358 . S
C1424 H1427 0.930 . S
C1425 C1422 1.348 . S
C1425 C1423 1.356 . S
H1426 C1420 0.930 . S
H1427 C1424 0.930 . S
O1428 Li1368 1.956 . S
O1428 Li1369 1.970 . S
O1428 Li1370 1.961 . S
O1428 C1372 1.325 . S
O1429 Li1368 1.970 . S
O1429 Li1369 1.956 . S
O1429 Li1371 1.961 . S
O1429 C1378 1.325 . S
O1430 Li1368 1.961 . S
O1430 Li1370 1.956 . S
O1430 Li1371 1.970 . S
O1430 C1400 1.325 . S
O1431 Li1369 1.961 . S
O1431 Li1370 1.970 . S
O1431 Li1371 1.956 . S
O1431 C1406 1.325 . S
H1432 C1374 0.929 . S
H1433 C1375 0.930 . S
H1434 C1376 0.930 . S
H1435 C1377 0.930 . S
H1436 C1379 0.930 . S
H1437 C1381 0.929 . S
H1438 C1382 0.930 . S
H1439 C1383 0.930 . S
H1440 C1386 0.930 . S
H1441 C1389 0.929 . S
H1442 C1394 0.929 . S
H1443 C1395 0.930 . S
H1444 C1402 0.929 . S
H1445 C1403 0.930 . S
H1446 C1404 0.930 . S
H1447 C1405 0.930 . S
H1448 C1407 0.929 . S
H1449 C1408 0.930 . S
H1450 C1409 0.930 . S
H1451 C1410 0.930 . S
H1452 C1414 0.929 . S
H1453 C1416 0.930 . S
H1454 C1422 0.929 . S
H1455 C1423 0.930 . S
Li1456 N1473 1.990 . S
Li1456 O1516 1.956 . S
Li1456 O1517 1.970 1_455 S
Li1456 O1518 1.961 . S
Li1457 N1481 1.990 . S
Li1457 O1516 1.970 1_655 S
Li1457 O1517 1.956 . S
Li1457 O1519 1.961 . S
Li1458 N1503 1.990 . S
Li1458 O1516 1.961 . S
Li1458 O1518 1.956 . S
Li1458 O1519 1.970 1_455 S
Li1459 N1509 1.990 . S
Li1459 O1517 1.961 . S
Li1459 O1518 1.970 1_655 S
Li1459 O1519 1.956 . S
C1460 C1462 1.348 1_455 S
C1460 C1463 1.356 . S
C1460 O1516 1.325 . S
N1461 C1464 1.314 1_455 S
N1461 C1465 1.279 . S
C1462 C1460 1.348 1_655 S
C1462 C1464 1.353 . S
C1462 H1520 0.929 . S
C1463 C1460 1.356 . S
C1463 C1465 1.358 . S
C1463 H1521 0.930 . S
C1464 N1461 1.314 1_655 S
C1464 C1462 1.353 . S
C1464 H1522 0.930 . S
C1465 N1461 1.279 . S
C1465 C1463 1.358 . S
C1465 H1523 0.930 . S
C1466 C1469 1.348 . S
C1466 C1470 1.356 . S
C1466 O1517 1.325 . S
C1467 N1468 1.279 . S
C1467 C1470 1.358 . S
C1467 H1524 0.930 . S
N1468 C1467 1.279 . S
N1468 C1471 1.314 . S
C1469 C1466 1.348 . S
C1469 C1471 1.353 . S
C1469 H1525 0.929 . S
C1470 C1466 1.356 . S
C1470 C1467 1.358 . S
C1470 H1526 0.930 . S
C1471 N1468 1.314 . S
C1471 C1469 1.353 . S
C1471 H1527 0.930 . S
C1472 N1473 1.314 . S
C1472 C1477 1.353 . S
C1472 H1478 0.930 . S
N1473 Li1456 1.990 . S
N1473 C1472 1.314 . S
N1473 C1475 1.279 . S
C1474 C1475 1.358 . S
C1474 C1476 1.356 . S
C1474 H1528 0.930 . S
C1475 N1473 1.279 . S
C1475 C1474 1.358 . S
C1475 H1479 0.930 . S
C1476 C1474 1.356 . S
C1476 C1477 1.348 . S
C1477 C1472 1.353 . S
C1477 C1476 1.348 . S
C1477 H1529 0.929 . S
H1478 C1472 0.930 . S
H1479 C1475 0.930 . S
C1480 N1481 1.314 . S
C1480 C1482 1.353 . S
C1480 H1486 0.930 . S
N1481 Li1457 1.990 . S
N1481 C1480 1.314 . S
N1481 C1484 1.279 . S
C1482 C1480 1.353 . S
C1482 C1485 1.348 . S
C1482 H1530 0.929 . S
C1483 C1484 1.358 . S
C1483 C1485 1.356 . S
C1483 H1531 0.930 . S
C1484 N1481 1.279 . S
C1484 C1483 1.358 . S
C1484 H1487 0.930 . S
C1485 C1482 1.348 . S
C1485 C1483 1.356 . S
H1486 C1480 0.930 . S
H1487 C1484 0.930 . S
C1488 C1490 1.348 . S
C1488 C1491 1.356 . S
C1488 O1518 1.325 . S
N1489 C1492 1.314 . S
N1489 C1493 1.279 . S
C1490 C1488 1.348 . S
C1490 C1492 1.353 . S
C1490 H1532 0.929 . S
C1491 C1488 1.356 . S
C1491 C1493 1.358 . S
C1491 H1533 0.930 . S
C1492 N1489 1.314 . S
C1492 C1490 1.353 . S
C1492 H1534 0.930 . S
C1493 N1489 1.279 . S
C1493 C1491 1.358 . S
C1493 H1535 0.930 . S
C1494 C1495 1.348 1_655 S
C1494 C1496 1.356 . S
C1494 O1519 1.325 . S
C1495 C1494 1.348 1_455 S
C1495 C1497 1.353 . S
C1495 H1536 0.929 . S
C1496 C1494 1.356 . S
C1496 C1498 1.358 . S
C1496 H1537 0.930 . S
C1497 C1495 1.353 . S
C1497 N1499 1.314 1_455 S
C1497 H1538 0.930 . S
C1498 C1496 1.358 . S
C1498 N1499 1.279 . S
C1498 H1539 0.930 . S
N1499 C1497 1.314 1_655 S
N1499 C1498 1.279 . S
C1500 C1502 1.353 . S
C1500 N1503 1.314 . S
C1500 H1506 0.930 . S
C1501 N1503 1.279 . S
C1501 C1504 1.358 . S
C1501 H1507 0.930 . S
C1502 C1500 1.353 . S
C1502 C1505 1.348 . S
C1502 H1540 0.929 . S
N1503 Li1458 1.990 . S
N1503 C1500 1.314 . S
N1503 C1501 1.279 . S
C1504 C1501 1.358 . S
C1504 C1505 1.356 . S
C1504 H1541 0.930 . S
C1505 C1502 1.348 . S
C1505 C1504 1.356 . S
H1506 C1500 0.930 . S
H1507 C1501 0.930 . S
C1508 N1509 1.314 . S
C1508 C1510 1.353 . S
C1508 H1514 0.930 . S
N1509 Li1459 1.990 . S
N1509 C1508 1.314 . S
N1509 C1512 1.279 . S
C1510 C1508 1.353 . S
C1510 C1513 1.348 . S
C1510 H1542 0.929 . S
C1511 C1512 1.358 . S
C1511 C1513 1.356 . S
C1511 H1543 0.930 . S
C1512 N1509 1.279 . S
C1512 C1511 1.358 . S
C1512 H1515 0.930 . S
C1513 C1510 1.348 . S
C1513 C1511 1.356 . S
H1514 C1508 0.930 . S
H1515 C1512 0.930 . S
O1516 Li1456 1.956 . S
O1516 Li1457 1.970 1_455 S
O1516 Li1458 1.961 . S
O1516 C1460 1.325 . S
O1517 Li1456 1.970 1_655 S
O1517 Li1457 1.956 . S
O1517 Li1459 1.961 . S
O1517 C1466 1.325 . S
O1518 Li1456 1.961 . S
O1518 Li1458 1.956 . S
O1518 Li1459 1.970 1_455 S
O1518 C1488 1.325 . S
O1519 Li1457 1.961 . S
O1519 Li1458 1.970 1_655 S
O1519 Li1459 1.956 . S
O1519 C1494 1.325 . S
H1520 C1462 0.929 . S
H1521 C1463 0.930 . S
H1522 C1464 0.930 . S
H1523 C1465 0.930 . S
H1524 C1467 0.930 . S
H1525 C1469 0.929 . S
H1526 C1470 0.930 . S
H1527 C1471 0.930 . S
H1528 C1474 0.930 . S
H1529 C1477 0.929 . S
H1530 C1482 0.929 . S
H1531 C1483 0.930 . S
H1532 C1490 0.929 . S
H1533 C1491 0.930 . S
H1534 C1492 0.930 . S
H1535 C1493 0.930 . S
H1536 C1495 0.929 . S
H1537 C1496 0.930 . S
H1538 C1497 0.930 . S
H1539 C1498 0.930 . S
H1540 C1502 0.929 . S
H1541 C1504 0.930 . S
H1542 C1510 0.929 . S
H1543 C1511 0.930 . S
Li1544 N1561 1.990 . S
Li1544 O1604 1.956 . S
Li1544 O1605 1.970 . S
Li1544 O1606 1.961 . S
Li1545 N1569 1.990 . S
Li1545 O1604 1.970 . S
Li1545 O1605 1.956 . S
Li1545 O1607 1.961 . S
Li1546 N1591 1.990 . S
Li1546 O1604 1.961 . S
Li1546 O1606 1.956 . S
Li1546 O1607 1.970 . S
Li1547 N1597 1.990 . S
Li1547 O1605 1.961 . S
Li1547 O1606 1.970 . S
Li1547 O1607 1.956 . S
C1548 C1550 1.348 . S
C1548 C1551 1.356 . S
C1548 O1604 1.325 . S
N1549 C1552 1.314 . S
N1549 C1553 1.279 . S
C1550 C1548 1.348 . S
C1550 C1552 1.353 . S
C1550 H1608 0.929 . S
C1551 C1548 1.356 . S
C1551 C1553 1.358 . S
C1551 H1609 0.930 . S
C1552 N1549 1.314 . S
C1552 C1550 1.353 . S
C1552 H1610 0.930 . S
C1553 N1549 1.279 . S
C1553 C1551 1.358 . S
C1553 H1611 0.930 . S
C1554 C1557 1.348 . S
C1554 C1558 1.356 . S
C1554 O1605 1.325 . S
C1555 N1556 1.279 . S
C1555 C1558 1.358 . S
C1555 H1612 0.930 . S
N1556 C1555 1.279 . S
N1556 C1559 1.314 . S
C1557 C1554 1.348 . S
C1557 C1559 1.353 . S
C1557 H1613 0.929 . S
C1558 C1554 1.356 . S
C1558 C1555 1.358 . S
C1558 H1614 0.930 . S
C1559 N1556 1.314 . S
C1559 C1557 1.353 . S
C1559 H1615 0.930 . S
C1560 N1561 1.314 . S
C1560 C1565 1.353 . S
C1560 H1566 0.930 . S
N1561 Li1544 1.990 . S
N1561 C1560 1.314 . S
N1561 C1563 1.279 . S
C1562 C1563 1.358 . S
C1562 C1564 1.356 . S
C1562 H1616 0.930 . S
C1563 N1561 1.279 . S
C1563 C1562 1.358 . S
C1563 H1567 0.930 . S
C1564 C1562 1.356 . S
C1564 C1565 1.348 . S
C1565 C1560 1.353 . S
C1565 C1564 1.348 . S
C1565 H1617 0.929 . S
H1566 C1560 0.930 . S
H1567 C1563 0.930 . S
C1568 N1569 1.314 . S
C1568 C1570 1.353 . S
C1568 H1574 0.930 . S
N1569 Li1545 1.990 . S
N1569 C1568 1.314 . S
N1569 C1572 1.279 . S
C1570 C1568 1.353 . S
C1570 C1573 1.348 . S
C1570 H1618 0.929 . S
C1571 C1572 1.358 . S
C1571 C1573 1.356 . S
C1571 H1619 0.930 . S
C1572 N1569 1.279 . S
C1572 C1571 1.358 . S
C1572 H1575 0.930 . S
C1573 C1570 1.348 . S
C1573 C1571 1.356 . S
H1574 C1568 0.930 . S
H1575 C1572 0.930 . S
C1576 C1578 1.348 . S
C1576 C1579 1.356 . S
C1576 O1606 1.325 . S
N1577 C1580 1.314 . S
N1577 C1581 1.279 . S
C1578 C1576 1.348 . S
C1578 C1580 1.353 . S
C1578 H1620 0.929 . S
C1579 C1576 1.356 . S
C1579 C1581 1.358 . S
C1579 H1621 0.930 . S
C1580 N1577 1.314 . S
C1580 C1578 1.353 . S
C1580 H1622 0.930 . S
C1581 N1577 1.279 . S
C1581 C1579 1.358 . S
C1581 H1623 0.930 . S
C1582 C1583 1.348 . S
C1582 C1584 1.356 . S
C1582 O1607 1.325 . S
C1583 C1582 1.348 . S
C1583 C1585 1.353 . S
C1583 H1624 0.929 . S
C1584 C1582 1.356 . S
C1584 C1586 1.358 . S
C1584 H1625 0.930 . S
C1585 C1583 1.353 . S
C1585 N1587 1.314 . S
C1585 H1626 0.930 . S
C1586 C1584 1.358 . S
C1586 N1587 1.279 . S
C1586 H1627 0.930 . S
N1587 C1585 1.314 . S
N1587 C1586 1.279 . S
C1588 C1590 1.353 . S
C1588 N1591 1.314 . S
C1588 H1594 0.930 . S
C1589 N1591 1.279 . S
C1589 C1592 1.358 . S
C1589 H1595 0.930 . S
C1590 C1588 1.353 . S
C1590 C1593 1.348 . S
C1590 H1628 0.929 . S
N1591 Li1546 1.990 . S
N1591 C1588 1.314 . S
N1591 C1589 1.279 . S
C1592 C1589 1.358 . S
C1592 C1593 1.356 . S
C1592 H1629 0.930 . S
C1593 C1590 1.348 . S
C1593 C1592 1.356 . S
H1594 C1588 0.930 . S
H1595 C1589 0.930 . S
C1596 N1597 1.314 . S
C1596 C1598 1.353 . S
C1596 H1602 0.930 . S
N1597 Li1547 1.990 . S
N1597 C1596 1.314 . S
N1597 C1600 1.279 . S
C1598 C1596 1.353 . S
C1598 C1601 1.348 . S
C1598 H1630 0.929 . S
C1599 C1600 1.358 . S
C1599 C1601 1.356 . S
C1599 H1631 0.930 . S
C1600 N1597 1.279 . S
C1600 C1599 1.358 . S
C1600 H1603 0.930 . S
C1601 C1598 1.348 . S
C1601 C1599 1.356 . S
H1602 C1596 0.930 . S
H1603 C1600 0.930 . S
O1604 Li1544 1.956 . S
O1604 Li1545 1.970 . S
O1604 Li1546 1.961 . S
O1604 C1548 1.325 . S
O1605 Li1544 1.970 . S
O1605 Li1545 1.956 . S
O1605 Li1547 1.961 . S
O1605 C1554 1.325 . S
O1606 Li1544 1.961 . S
O1606 Li1546 1.956 . S
O1606 Li1547 1.970 . S
O1606 C1576 1.325 . S
O1607 Li1545 1.961 . S
O1607 Li1546 1.970 . S
O1607 Li1547 1.956 . S
O1607 C1582 1.325 . S
H1608 C1550 0.929 . S
H1609 C1551 0.930 . S
H1610 C1552 0.930 . S
H1611 C1553 0.930 . S
H1612 C1555 0.930 . S
H1613 C1557 0.929 . S
H1614 C1558 0.930 . S
H1615 C1559 0.930 . S
H1616 C1562 0.930 . S
H1617 C1565 0.929 . S
H1618 C1570 0.929 . S
H1619 C1571 0.930 . S
H1620 C1578 0.929 . S
H1621 C1579 0.930 . S
H1622 C1580 0.930 . S
H1623 C1581 0.930 . S
H1624 C1583 0.929 . S
H1625 C1584 0.930 . S
H1626 C1585 0.930 . S
H1627 C1586 0.930 . S
H1628 C1590 0.929 . S
H1629 C1592 0.930 . S
H1630 C1598 0.929 . S
H1631 C1599 0.930 . S
H1632 C1650 0.951 . S
H1633 C1652 0.951 . S
H1634 C1654 0.950 . S
H1635 C1655 0.950 . S
H1636 C1657 0.950 . S
H1637 C1660 0.950 . S
H1638 C1661 0.950 . S
H1639 C1663 0.950 . S
H1640 C1664 0.950 . S
H1641 C1665 0.951 . S
H1642 C1667 0.951 . S
H1643 C1669 0.950 . S
H1644 C1670 0.950 . S
H1645 C1672 0.950 . S
H1646 C1675 0.950 . S
H1647 C1676 0.950 . S
H1648 C1678 0.950 . S
H1649 C1679 0.950 . S
C1650 H1632 0.951 . S
C1650 C1651 1.366 . S
C1650 C1652 1.388 . S
C1651 C1650 1.366 . S
C1651 C1655 1.385 . S
C1652 H1633 0.951 . S
C1652 C1650 1.388 . S
C1652 C1653 1.366 . S
C1653 C1652 1.366 . S
C1653 C1654 1.414 . S
C1653 C1656 1.499 . S
C1654 H1634 0.950 . S
C1654 C1653 1.414 . S
C1654 C1655 1.374 . S
C1655 H1635 0.950 . S
C1655 C1651 1.385 . S
C1655 C1654 1.374 . S
C1656 C1653 1.499 . S
C1656 C1657 1.373 . S
C1656 C1658 1.389 . S
C1657 H1636 0.950 . S
C1657 C1656 1.373 . S
C1657 C1673 1.377 . S
C1658 C1656 1.389 . S
C1658 C1659 1.524 . S
C1658 C1672 1.377 . S
C1659 C1658 1.524 . S
C1659 C1660 1.397 . S
C1659 C1664 1.363 . S
C1660 H1637 0.950 . S
C1660 C1659 1.397 . S
C1660 C1661 1.334 . S
C1661 H1638 0.950 . S
C1661 C1660 1.334 . S
C1661 C1662 1.287 . S
C1662 C1661 1.287 . S
C1662 C1663 1.524 . S
C1662 H1681 0.913 . S
C1663 H1639 0.950 . S
C1663 C1662 1.524 . S
C1663 C1664 1.415 . S
C1664 H1640 0.950 . S
C1664 C1659 1.363 . S
C1664 C1663 1.415 . S
C1665 H1641 0.951 . S
C1665 C1666 1.366 . S
C1665 C1667 1.388 . S
C1666 C1665 1.366 . S
C1666 C1670 1.385 . S
C1667 H1642 0.951 . S
C1667 C1665 1.388 . S
C1667 C1668 1.366 . S
C1668 C1667 1.366 . S
C1668 C1669 1.414 . S
C1668 C1671 1.499 . S
C1669 H1643 0.950 . S
C1669 C1668 1.414 . S
C1669 C1670 1.374 . S
C1670 H1644 0.950 . S
C1670 C1666 1.385 . S
C1670 C1669 1.374 . S
C1671 C1668 1.499 . S
C1671 C1672 1.373 . S
C1671 C1673 1.389 . S
C1672 H1645 0.950 . S
C1672 C1658 1.377 . S
C1672 C1671 1.373 . S
C1673 C1657 1.377 . S
C1673 C1671 1.389 . S
C1673 C1674 1.524 . S
C1674 C1673 1.524 . S
C1674 C1675 1.397 . S
C1674 C1679 1.363 . S
C1675 H1646 0.950 . S
C1675 C1674 1.397 . S
C1675 C1676 1.334 . S
C1676 H1647 0.950 . S
C1676 C1675 1.334 . S
C1676 C1677 1.287 . S
C1677 C1676 1.287 . S
C1677 C1678 1.524 . S
C1677 H1680 0.999 . S
C1678 H1648 0.950 . S
C1678 C1677 1.524 . S
C1678 C1679 1.415 . S
C1679 H1649 0.950 . S
C1679 C1674 1.363 . S
C1679 C1678 1.415 . S
H1680 C1677 0.999 . S
H1681 C1662 0.913 . S
H1682 C1700 0.951 1_655 S
H1683 C1702 0.951 . S
H1684 C1704 0.950 . S
H1685 C1705 0.950 . S
H1686 C1707 0.950 . S
H1687 C1710 0.950 . S
H1688 C1711 0.950 . S
H1689 C1713 0.926 1_655 S
H1690 C1714 0.950 . S
H1691 C1715 0.951 . S
H1692 C1717 0.951 . S
H1693 C1719 0.950 . S
H1694 C1720 0.950 . S
H1695 C1722 0.950 . S
H1696 C1725 0.950 . S
H1697 C1726 0.950 . S
H1698 C1728 0.950 . S
H1699 C1729 0.950 . S
C1700 H1682 0.951 1_455 S
C1700 C1701 1.366 . S
C1700 C1702 1.388 . S
C1701 C1700 1.366 . S
C1701 C1705 1.385 . S
C1702 H1683 0.951 . S
C1702 C1700 1.388 . S
C1702 C1703 1.366 . S
C1703 C1702 1.366 . S
C1703 C1704 1.414 . S
C1703 C1706 1.499 . S
C1704 H1684 0.950 . S
C1704 C1703 1.414 . S
C1704 C1705 1.374 . S
C1705 H1685 0.950 . S
C1705 C1701 1.385 . S
C1705 C1704 1.374 . S
C1706 C1703 1.499 . S
C1706 C1707 1.373 . S
C1706 C1708 1.389 . S
C1707 H1686 0.950 . S
C1707 C1706 1.373 . S
C1707 C1723 1.377 . S
C1708 C1706 1.389 . S
C1708 C1709 1.524 . S
C1708 C1722 1.377 . S
C1709 C1708 1.524 . S
C1709 C1710 1.397 . S
C1709 C1714 1.363 . S
C1710 H1687 0.950 . S
C1710 C1709 1.397 . S
C1710 C1711 1.334 . S
C1711 H1688 0.950 . S
C1711 C1710 1.334 . S
C1711 C1712 1.287 . S
C1712 C1711 1.287 . S
C1712 C1713 1.524 . S
C1712 H1731 0.913 . S
C1713 H1689 0.926 1_455 S
C1713 C1712 1.524 . S
C1713 C1714 1.415 . S
C1714 H1690 0.950 . S
C1714 C1709 1.363 . S
C1714 C1713 1.415 . S
C1715 H1691 0.951 . S
C1715 C1716 1.366 . S
C1715 C1717 1.388 . S
C1716 C1715 1.366 . S
C1716 C1720 1.385 . S
C1717 H1692 0.951 . S
C1717 C1715 1.388 . S
C1717 C1718 1.366 . S
C1718 C1717 1.366 . S
C1718 C1719 1.414 . S
C1718 C1721 1.499 . S
C1719 H1693 0.950 . S
C1719 C1718 1.414 . S
C1719 C1720 1.374 . S
C1720 H1694 0.950 . S
C1720 C1716 1.385 . S
C1720 C1719 1.374 . S
C1721 C1718 1.499 . S
C1721 C1722 1.373 . S
C1721 C1723 1.389 . S
C1722 H1695 0.950 . S
C1722 C1708 1.377 . S
C1722 C1721 1.373 . S
C1723 C1707 1.377 . S
C1723 C1721 1.389 . S
C1723 C1724 1.524 . S
C1724 C1723 1.524 . S
C1724 C1725 1.397 . S
C1724 C1729 1.363 . S
C1725 H1696 0.950 . S
C1725 C1724 1.397 . S
C1725 C1726 1.334 . S
C1726 H1697 0.950 . S
C1726 C1725 1.334 . S
C1726 C1727 1.287 . S
C1727 C1726 1.287 . S
C1727 C1728 1.524 . S
C1727 H1730 0.999 . S
C1728 H1698 0.950 . S
C1728 C1727 1.524 . S
C1728 C1729 1.415 . S
C1729 H1699 0.950 . S
C1729 C1724 1.363 . S
C1729 C1728 1.415 . S
H1730 C1727 0.999 . S
H1731 C1712 0.913 . S
H1732 C1750 0.951 . S
H1733 C1752 0.951 . S
H1734 C1754 0.950 . S
H1735 C1755 0.950 . S
H1736 C1757 0.950 . S
H1737 C1760 0.950 . S
H1738 C1761 0.950 . S
H1739 C1763 0.950 . S
H1740 C1764 0.950 . S
H1741 C1765 0.951 . S
H1742 C1767 0.951 . S
H1743 C1769 0.950 . S
H1744 C1770 0.950 . S
H1745 C1772 0.950 . S
H1746 C1775 0.950 . S
H1747 C1776 0.950 . S
H1748 C1778 0.950 . S
H1749 C1779 0.950 . S
C1750 H1732 0.951 . S
C1750 C1751 1.366 . S
C1750 C1752 1.388 . S
C1751 C1750 1.366 . S
C1751 C1755 1.385 . S
C1752 H1733 0.951 . S
C1752 C1750 1.388 . S
C1752 C1753 1.366 . S
C1753 C1752 1.366 . S
C1753 C1754 1.414 . S
C1753 C1756 1.499 . S
C1754 H1734 0.950 . S
C1754 C1753 1.414 . S
C1754 C1755 1.374 . S
C1755 H1735 0.950 . S
C1755 C1751 1.385 . S
C1755 C1754 1.374 . S
C1756 C1753 1.499 . S
C1756 C1757 1.373 . S
C1756 C1758 1.389 . S
C1757 H1736 0.950 . S
C1757 C1756 1.373 . S
C1757 C1773 1.377 . S
C1758 C1756 1.389 . S
C1758 C1759 1.524 . S
C1758 C1772 1.377 . S
C1759 C1758 1.524 . S
C1759 C1760 1.397 . S
C1759 C1764 1.363 . S
C1760 H1737 0.950 . S
C1760 C1759 1.397 . S
C1760 C1761 1.334 . S
C1761 H1738 0.950 . S
C1761 C1760 1.334 . S
C1761 C1762 1.287 . S
C1762 C1761 1.287 . S
C1762 C1763 1.524 . S
C1762 H1781 0.913 . S
C1763 H1739 0.950 . S
C1763 C1762 1.524 . S
C1763 C1764 1.415 . S
C1764 H1740 0.950 . S
C1764 C1759 1.363 . S
C1764 C1763 1.415 . S
C1765 H1741 0.951 . S
C1765 C1766 1.366 . S
C1765 C1767 1.388 . S
C1766 C1765 1.366 . S
C1766 C1770 1.385 . S
C1767 H1742 0.951 . S
C1767 C1765 1.388 . S
C1767 C1768 1.366 . S
C1768 C1767 1.366 . S
C1768 C1769 1.414 . S
C1768 C1771 1.499 . S
C1769 H1743 0.950 . S
C1769 C1768 1.414 . S
C1769 C1770 1.374 . S
C1770 H1744 0.950 . S
C1770 C1766 1.385 . S
C1770 C1769 1.374 . S
C1771 C1768 1.499 . S
C1771 C1772 1.373 . S
C1771 C1773 1.389 . S
C1772 H1745 0.950 . S
C1772 C1758 1.377 . S
C1772 C1771 1.373 . S
C1773 C1757 1.377 . S
C1773 C1771 1.389 . S
C1773 C1774 1.524 . S
C1774 C1773 1.524 . S
C1774 C1775 1.397 . S
C1774 C1779 1.363 . S
C1775 H1746 0.950 . S
C1775 C1774 1.397 . S
C1775 C1776 1.334 . S
C1776 H1747 0.950 . S
C1776 C1775 1.334 . S
C1776 C1777 1.287 . S
C1777 C1776 1.287 . S
C1777 C1778 1.524 . S
C1777 H1780 0.999 . S
C1778 H1748 0.950 . S
C1778 C1777 1.524 . S
C1778 C1779 1.415 . S
C1779 H1749 0.950 . S
C1779 C1774 1.363 . S
C1779 C1778 1.415 . S
H1780 C1777 0.999 . S
H1781 C1762 0.913 . S
H1782 C1800 0.951 . S
H1783 C1802 0.951 . S
H1784 C1804 0.946 1_545 S
H1785 C1805 0.950 . S
H1786 C1807 0.950 . S
H1787 C1810 0.974 . S
H1788 C1811 0.998 . S
H1789 C1813 0.950 . S
H1790 C1814 0.950 . S
H1791 C1815 1.001 . S
H1792 C1817 0.901 1_545 S
H1793 C1819 0.950 . S
H1794 C1820 0.950 . S
H1795 C1822 0.950 . S
H1796 C1825 0.950 . S
H1797 C1826 0.950 . S
H1798 C1828 0.912 1_545 S
H1799 C1829 0.950 1_545 S
C1800 H1782 0.951 . S
C1800 C1801 1.366 . S
C1800 C1802 1.388 . S
C1801 C1800 1.366 . S
C1801 C1805 1.385 . S
C1802 H1783 0.951 . S
C1802 C1800 1.388 . S
C1802 C1803 1.366 . S
C1803 C1802 1.366 . S
C1803 C1804 1.414 . S
C1803 C1806 1.499 . S
C1804 H1784 0.946 1_565 S
C1804 C1803 1.414 . S
C1804 C1805 1.374 . S
C1805 H1785 0.950 . S
C1805 C1801 1.385 . S
C1805 C1804 1.374 . S
C1806 C1803 1.499 . S
C1806 C1807 1.373 . S
C1806 C1808 1.389 . S
C1807 H1786 0.950 . S
C1807 C1806 1.373 . S
C1807 C1823 1.377 . S
C1808 C1806 1.389 . S
C1808 C1809 1.524 . S
C1808 C1822 1.377 . S
C1809 C1808 1.524 . S
C1809 C1810 1.397 . S
C1809 C1814 1.363 . S
C1810 H1787 0.974 . S
C1810 C1809 1.397 . S
C1810 C1811 1.334 1_655 S
C1811 H1788 0.998 . S
C1811 C1810 1.334 1_455 S
C1811 C1812 1.287 . S
C1812 C1811 1.287 . S
C1812 C1813 1.524 . S
C1812 H1831 0.913 . S
C1813 H1789 0.950 . S
C1813 C1812 1.524 . S
C1813 C1814 1.415 1_455 S
C1814 H1790 0.950 . S
C1814 C1809 1.363 . S
C1814 C1813 1.415 1_655 S
C1815 H1791 1.001 . S
C1815 C1816 1.325 1_545 S
C1815 C1817 1.379 1_545 S
C1816 C1815 1.325 1_565 S
C1816 C1820 1.385 . S
C1817 H1792 0.901 1_565 S
C1817 C1815 1.379 1_565 S
C1817 C1818 1.425 . S
C1818 C1817 1.425 . S
C1818 C1819 1.414 . S
C1818 C1821 1.499 . S
C1819 H1793 0.950 . S
C1819 C1818 1.414 . S
C1819 C1820 1.374 . S
C1820 H1794 0.950 . S
C1820 C1816 1.385 . S
C1820 C1819 1.374 . S
C1821 C1818 1.499 . S
C1821 C1822 1.373 . S
C1821 C1823 1.389 . S
C1822 H1795 0.950 . S
C1822 C1808 1.377 . S
C1822 C1821 1.373 . S
C1823 C1807 1.377 . S
C1823 C1821 1.389 . S
C1823 C1824 1.524 . S
C1824 C1823 1.524 . S
C1824 C1825 1.397 . S
C1824 C1829 1.363 . S
C1825 H1796 0.950 . S
C1825 C1824 1.397 . S
C1825 C1826 1.334 . S
C1826 H1797 0.950 . S
C1826 C1825 1.334 . S
C1826 C1827 1.287 . S
C1827 C1826 1.287 . S
C1827 C1828 1.565 . S
C1827 H1830 0.999 . S
C1828 H1798 0.912 1_565 S
C1828 C1827 1.565 . S
C1828 C1829 1.419 . S
C1829 H1799 0.950 1_565 S
C1829 C1824 1.363 . S
C1829 C1828 1.419 . S
H1830 C1827 0.999 . S
H1831 C1812 0.913 . S
H1832 C1850 0.951 . S
H1833 C1852 0.951 . S
H1834 C1854 0.950 . S
H1835 C1855 0.950 . S
H1836 C1857 0.950 . S
H1837 C1860 0.950 . S
H1838 C1861 0.950 . S
H1839 C1863 0.950 . S
H1840 C1864 0.950 . S
H1841 C1865 0.951 . S
H1842 C1867 0.951 . S
H1843 C1869 0.950 . S
H1844 C1870 0.950 . S
H1845 C1872 0.950 . S
H1846 C1875 0.950 . S
H1847 C1876 0.950 . S
H1848 C1878 0.950 . S
H1849 C1879 0.950 . S
C1850 H1832 0.951 . S
C1850 C1851 1.366 . S
C1850 C1852 1.388 . S
C1851 C1850 1.366 . S
C1851 C1855 1.385 . S
C1852 H1833 0.951 . S
C1852 C1850 1.388 . S
C1852 C1853 1.366 . S
C1853 C1852 1.366 . S
C1853 C1854 1.414 . S
C1853 C1856 1.499 . S
C1854 H1834 0.950 . S
C1854 C1853 1.414 . S
C1854 C1855 1.374 . S
C1855 H1835 0.950 . S
C1855 C1851 1.385 . S
C1855 C1854 1.374 . S
C1856 C1853 1.499 . S
C1856 C1857 1.373 . S
C1856 C1858 1.389 . S
C1857 H1836 0.950 . S
C1857 C1856 1.373 . S
C1857 C1873 1.377 . S
C1858 C1856 1.389 . S
C1858 C1859 1.524 . S
C1858 C1872 1.377 . S
C1859 C1858 1.524 . S
C1859 C1860 1.397 . S
C1859 C1864 1.363 . S
C1860 H1837 0.950 . S
C1860 C1859 1.397 . S
C1860 C1861 1.334 . S
C1861 H1838 0.950 . S
C1861 C1860 1.334 . S
C1861 C1862 1.287 . S
C1862 C1861 1.287 . S
C1862 C1863 1.524 . S
C1862 H1881 0.913 . S
C1863 H1839 0.950 . S
C1863 C1862 1.524 . S
C1863 C1864 1.415 . S
C1864 H1840 0.950 . S
C1864 C1859 1.363 . S
C1864 C1863 1.415 . S
C1865 H1841 0.951 . S
C1865 C1866 1.366 . S
C1865 C1867 1.388 . S
C1866 C1865 1.366 . S
C1866 C1870 1.385 . S
C1867 H1842 0.951 . S
C1867 C1865 1.388 . S
C1867 C1868 1.366 . S
C1868 C1867 1.366 . S
C1868 C1869 1.414 . S
C1868 C1871 1.499 . S
C1869 H1843 0.950 . S
C1869 C1868 1.414 . S
C1869 C1870 1.374 . S
C1870 H1844 0.950 . S
C1870 C1866 1.385 . S
C1870 C1869 1.374 . S
C1871 C1868 1.499 . S
C1871 C1872 1.373 . S
C1871 C1873 1.389 . S
C1872 H1845 0.950 . S
C1872 C1858 1.377 . S
C1872 C1871 1.373 . S
C1873 C1857 1.377 . S
C1873 C1871 1.389 . S
C1873 C1874 1.524 . S
C1874 C1873 1.524 . S
C1874 C1875 1.397 . S
C1874 C1879 1.363 . S
C1875 H1846 0.950 . S
C1875 C1874 1.397 . S
C1875 C1876 1.334 . S
C1876 H1847 0.950 . S
C1876 C1875 1.334 . S
C1876 C1877 1.287 . S
C1877 C1876 1.287 . S
C1877 C1878 1.524 . S
C1877 H1880 0.999 . S
C1878 H1848 0.950 . S
C1878 C1877 1.524 . S
C1878 C1879 1.415 . S
C1879 H1849 0.950 . S
C1879 C1874 1.363 . S
C1879 C1878 1.415 . S
H1880 C1877 0.999 . S
H1881 C1862 0.913 . S
H1882 C1900 0.951 . S
H1883 C1902 0.951 . S
H1884 C1904 0.950 . S
H1885 C1905 0.950 . S
H1886 C1907 0.950 . S
H1887 C1910 0.950 . S
H1888 C1911 0.950 . S
H1889 C1913 0.950 . S
H1890 C1914 0.950 . S
H1891 C1915 0.951 . S
H1892 C1917 0.951 . S
H1893 C1919 0.950 . S
H1894 C1920 0.950 . S
H1895 C1922 0.950 . S
H1896 C1925 0.950 . S
H1897 C1926 0.950 . S
H1898 C1928 0.950 . S
H1899 C1929 0.950 . S
C1900 H1882 0.951 . S
C1900 C1901 1.366 . S
C1900 C1902 1.388 . S
C1901 C1900 1.366 . S
C1901 C1905 1.385 . S
C1902 H1883 0.951 . S
C1902 C1900 1.388 . S
C1902 C1903 1.366 . S
C1903 C1902 1.366 . S
C1903 C1904 1.414 . S
C1903 C1906 1.499 . S
C1904 H1884 0.950 . S
C1904 C1903 1.414 . S
C1904 C1905 1.374 . S
C1905 H1885 0.950 . S
C1905 C1901 1.385 . S
C1905 C1904 1.374 . S
C1906 C1903 1.499 . S
C1906 C1907 1.373 . S
C1906 C1908 1.389 . S
C1907 H1886 0.950 . S
C1907 C1906 1.373 . S
C1907 C1923 1.377 . S
C1908 C1906 1.389 . S
C1908 C1909 1.524 . S
C1908 C1922 1.377 . S
C1909 C1908 1.524 . S
C1909 C1910 1.397 . S
C1909 C1914 1.363 . S
C1910 H1887 0.950 . S
C1910 C1909 1.397 . S
C1910 C1911 1.334 . S
C1911 H1888 0.950 . S
C1911 C1910 1.334 . S
C1911 C1912 1.287 . S
C1912 C1911 1.287 . S
C1912 C1913 1.524 . S
C1912 H1931 0.913 . S
C1913 H1889 0.950 . S
C1913 C1912 1.524 . S
C1913 C1914 1.415 . S
C1914 H1890 0.950 . S
C1914 C1909 1.363 . S
C1914 C1913 1.415 . S
C1915 H1891 0.951 . S
C1915 C1916 1.366 . S
C1915 C1917 1.388 . S
C1916 C1915 1.366 . S
C1916 C1920 1.385 . S
C1917 H1892 0.951 . S
C1917 C1915 1.388 . S
C1917 C1918 1.366 . S
C1918 C1917 1.366 . S
C1918 C1919 1.414 . S
C1918 C1921 1.499 . S
C1919 H1893 0.950 . S
C1919 C1918 1.414 . S
C1919 C1920 1.374 . S
C1920 H1894 0.950 . S
C1920 C1916 1.385 . S
C1920 C1919 1.374 . S
C1921 C1918 1.499 . S
C1921 C1922 1.373 . S
C1921 C1923 1.389 . S
C1922 H1895 0.950 . S
C1922 C1908 1.377 . S
C1922 C1921 1.373 . S
C1923 C1907 1.377 . S
C1923 C1921 1.389 . S
C1923 C1924 1.524 . S
C1924 C1923 1.524 . S
C1924 C1925 1.397 . S
C1924 C1929 1.363 . S
C1925 H1896 0.950 . S
C1925 C1924 1.397 . S
C1925 C1926 1.334 . S
C1926 H1897 0.950 . S
C1926 C1925 1.334 . S
C1926 C1927 1.287 . S
C1927 C1926 1.287 . S
C1927 C1928 1.524 . S
C1927 H1930 0.999 . S
C1928 H1898 0.950 . S
C1928 C1927 1.524 . S
C1928 C1929 1.415 . S
C1929 H1899 0.950 . S
C1929 C1924 1.363 . S
C1929 C1928 1.415 . S
H1930 C1927 0.999 . S
H1931 C1912 0.913 . S
H1932 C1950 0.951 . S
H1933 C1952 0.951 . S
H1934 C1954 0.950 . S
H1935 C1955 0.950 . S
H1936 C1957 0.950 . S
H1937 C1960 0.950 . S
H1938 C1961 0.950 . S
H1939 C1963 0.950 . S
H1940 C1964 0.950 . S
H1941 C1965 0.951 . S
H1942 C1967 0.951 . S
H1943 C1969 0.950 . S
H1944 C1970 0.950 . S
H1945 C1972 0.950 . S
H1946 C1975 0.950 . S
H1947 C1976 0.950 . S
H1948 C1978 0.950 . S
H1949 C1979 0.950 . S
C1950 H1932 0.951 . S
C1950 C1951 1.366 . S
C1950 C1952 1.388 . S
C1951 C1950 1.366 . S
C1951 C1955 1.385 . S
C1952 H1933 0.951 . S
C1952 C1950 1.388 . S
C1952 C1953 1.366 . S
C1953 C1952 1.366 . S
C1953 C1954 1.414 . S
C1953 C1956 1.499 . S
C1954 H1934 0.950 . S
C1954 C1953 1.414 . S
C1954 C1955 1.374 . S
C1955 H1935 0.950 . S
C1955 C1951 1.385 . S
C1955 C1954 1.374 . S
C1956 C1953 1.499 . S
C1956 C1957 1.373 . S
C1956 C1958 1.389 . S
C1957 H1936 0.950 . S
C1957 C1956 1.373 . S
C1957 C1973 1.377 . S
C1958 C1956 1.389 . S
C1958 C1959 1.524 . S
C1958 C1972 1.377 . S
C1959 C1958 1.524 . S
C1959 C1960 1.397 . S
C1959 C1964 1.363 . S
C1960 H1937 0.950 . S
C1960 C1959 1.397 . S
C1960 C1961 1.334 . S
C1961 H1938 0.950 . S
C1961 C1960 1.334 . S
C1961 C1962 1.287 . S
C1962 C1961 1.287 . S
C1962 C1963 1.524 . S
C1962 H1981 0.913 . S
C1963 H1939 0.950 . S
C1963 C1962 1.524 . S
C1963 C1964 1.415 . S
C1964 H1940 0.950 . S
C1964 C1959 1.363 . S
C1964 C1963 1.415 . S
C1965 H1941 0.951 . S
C1965 C1966 1.366 . S
C1965 C1967 1.388 . S
C1966 C1965 1.366 . S
C1966 C1970 1.385 . S
C1967 H1942 0.951 . S
C1967 C1965 1.388 . S
C1967 C1968 1.366 . S
C1968 C1967 1.366 . S
C1968 C1969 1.414 . S
C1968 C1971 1.499 . S
C1969 H1943 0.950 . S
C1969 C1968 1.414 . S
C1969 C1970 1.374 . S
C1970 H1944 0.950 . S
C1970 C1966 1.385 . S
C1970 C1969 1.374 . S
C1971 C1968 1.499 . S
C1971 C1972 1.373 . S
C1971 C1973 1.389 . S
C1972 H1945 0.950 . S
C1972 C1958 1.377 . S
C1972 C1971 1.373 . S
C1973 C1957 1.377 . S
C1973 C1971 1.389 . S
C1973 C1974 1.524 . S
C1974 C1973 1.524 . S
C1974 C1975 1.397 . S
C1974 C1979 1.363 . S
C1975 H1946 0.950 . S
C1975 C1974 1.397 . S
C1975 C1976 1.334 . S
C1976 H1947 0.950 . S
C1976 C1975 1.334 . S
C1976 C1977 1.287 . S
C1977 C1976 1.287 . S
C1977 C1978 1.524 . S
C1977 H1980 0.999 . S
C1978 H1948 0.950 . S
C1978 C1977 1.524 . S
C1978 C1979 1.415 . S
C1979 H1949 0.950 . S
C1979 C1974 1.363 . S
C1979 C1978 1.415 . S
H1980 C1977 0.999 . S
H1981 C1962 0.913 . S
H1982 C2000 0.951 . S
H1983 C2002 0.951 . S
H1984 C2004 0.950 . S
H1985 C2005 0.950 . S
H1986 C2007 0.950 1_545 S
H1987 C2010 0.950 . S
H1988 C2011 0.950 . S
H1989 C2013 0.950 . S
H1990 C2014 0.950 . S
H1991 C2015 0.905 1_545 S
H1992 C2017 0.951 1_545 S
H1993 C2019 0.950 . S
H1994 C2020 0.950 . S
H1995 C2022 0.950 . S
H1996 C2025 0.950 . S
H1997 C2026 0.950 . S
H1998 C2028 0.950 . S
H1999 C2029 0.950 . S
C2000 H1982 0.951 . S
C2000 C2001 1.366 . S
C2000 C2002 1.388 . S
C2001 C2000 1.366 . S
C2001 C2005 1.385 . S
C2002 H1983 0.951 . S
C2002 C2000 1.388 . S
C2002 C2003 1.366 . S
C2003 C2002 1.366 . S
C2003 C2004 1.414 . S
C2003 C2006 1.499 . S
C2004 H1984 0.950 . S
C2004 C2003 1.414 . S
C2004 C2005 1.374 . S
C2005 H1985 0.950 . S
C2005 C2001 1.385 . S
C2005 C2004 1.374 . S
C2006 C2003 1.499 . S
C2006 C2007 1.373 . S
C2006 C2008 1.389 . S
C2007 H1986 0.950 1_565 S
C2007 C2006 1.373 . S
C2007 C2023 1.377 . S
C2008 C2006 1.389 . S
C2008 C2009 1.524 . S
C2008 C2022 1.377 . S
C2009 C2008 1.524 . S
C2009 C2010 1.397 . S
C2009 C2014 1.363 . S
C2010 H1987 0.950 . S
C2010 C2009 1.397 . S
C2010 C2011 1.334 . S
C2011 H1988 0.950 . S
C2011 C2010 1.334 . S
C2011 C2012 1.287 . S
C2012 C2011 1.287 . S
C2012 C2013 1.524 . S
C2012 H2031 0.913 . S
C2013 H1989 0.950 . S
C2013 C2012 1.524 . S
C2013 C2014 1.415 . S
C2014 H1990 0.950 . S
C2014 C2009 1.363 . S
C2014 C2013 1.415 . S
C2015 H1991 0.905 1_565 S
C2015 C2016 1.408 . S
C2015 C2017 1.395 . S
C2016 C2015 1.408 . S
C2016 C2020 1.385 . S
C2017 H1992 0.951 1_565 S
C2017 C2015 1.395 . S
C2017 C2018 1.366 . S
C2018 C2017 1.366 . S
C2018 C2019 1.414 . S
C2018 C2021 1.499 . S
C2019 H1993 0.950 . S
C2019 C2018 1.414 . S
C2019 C2020 1.374 . S
C2020 H1994 0.950 . S
C2020 C2016 1.385 . S
C2020 C2019 1.374 . S
C2021 C2018 1.499 . S
C2021 C2022 1.373 . S
C2021 C2023 1.389 . S
C2022 H1995 0.950 . S
C2022 C2008 1.377 . S
C2022 C2021 1.373 . S
C2023 C2007 1.377 . S
C2023 C2021 1.389 . S
C2023 C2024 1.524 1_565 S
C2024 C2023 1.524 1_545 S
C2024 C2025 1.397 . S
C2024 C2029 1.363 . S
C2025 H1996 0.950 . S
C2025 C2024 1.397 . S
C2025 C2026 1.334 . S
C2026 H1997 0.950 . S
C2026 C2025 1.334 . S
C2026 C2027 1.287 . S
C2027 C2026 1.287 . S
C2027 C2028 1.524 . S
C2027 H2030 0.999 . S
C2028 H1998 0.950 . S
C2028 C2027 1.524 . S
C2028 C2029 1.415 . S
C2029 H1999 0.950 . S
C2029 C2024 1.363 . S
C2029 C2028 1.415 . S
H2030 C2027 0.999 . S
H2031 C2012 0.913 . S
H2032 C2050 0.951 . S
H2033 C2052 0.951 . S
H2034 C2054 0.950 . S
H2035 C2055 0.950 . S
H2036 C2057 0.950 . S
H2037 C2060 0.950 . S
H2038 C2061 0.950 . S
H2039 C2063 0.950 . S
H2040 C2064 0.950 . S
H2041 C2065 0.951 . S
H2042 C2067 0.951 . S
H2043 C2069 0.950 . S
H2044 C2070 0.950 . S
H2045 C2072 0.950 . S
H2046 C2075 0.950 . S
H2047 C2076 0.950 . S
H2048 C2078 0.950 . S
H2049 C2079 0.950 . S
C2050 H2032 0.951 . S
C2050 C2051 1.366 . S
C2050 C2052 1.388 . S
C2051 C2050 1.366 . S
C2051 C2055 1.385 . S
C2052 H2033 0.951 . S
C2052 C2050 1.388 . S
C2052 C2053 1.366 . S
C2053 C2052 1.366 . S
C2053 C2054 1.414 . S
C2053 C2056 1.499 . S
C2054 H2034 0.950 . S
C2054 C2053 1.414 . S
C2054 C2055 1.374 . S
C2055 H2035 0.950 . S
C2055 C2051 1.385 . S
C2055 C2054 1.374 . S
C2056 C2053 1.499 . S
C2056 C2057 1.373 . S
C2056 C2058 1.389 . S
C2057 H2036 0.950 . S
C2057 C2056 1.373 . S
C2057 C2073 1.377 . S
C2058 C2056 1.389 . S
C2058 C2059 1.524 . S
C2058 C2072 1.377 . S
C2059 C2058 1.524 . S
C2059 C2060 1.397 . S
C2059 C2064 1.363 . S
C2060 H2037 0.950 . S
C2060 C2059 1.397 . S
C2060 C2061 1.334 . S
C2061 H2038 0.950 . S
C2061 C2060 1.334 . S
C2061 C2062 1.287 . S
C2062 C2061 1.287 . S
C2062 C2063 1.524 . S
C2062 H2081 0.913 . S
C2063 H2039 0.950 . S
C2063 C2062 1.524 . S
C2063 C2064 1.415 . S
C2064 H2040 0.950 . S
C2064 C2059 1.363 . S
C2064 C2063 1.415 . S
C2065 H2041 0.951 . S
C2065 C2066 1.366 . S
C2065 C2067 1.388 . S
C2066 C2065 1.366 . S
C2066 C2070 1.385 . S
C2067 H2042 0.951 . S
C2067 C2065 1.388 . S
C2067 C2068 1.366 . S
C2068 C2067 1.366 . S
C2068 C2069 1.414 . S
C2068 C2071 1.499 . S
C2069 H2043 0.950 . S
C2069 C2068 1.414 . S
C2069 C2070 1.374 . S
C2070 H2044 0.950 . S
C2070 C2066 1.385 . S
C2070 C2069 1.374 . S
C2071 C2068 1.499 . S
C2071 C2072 1.373 . S
C2071 C2073 1.389 . S
C2072 H2045 0.950 . S
C2072 C2058 1.377 . S
C2072 C2071 1.373 . S
C2073 C2057 1.377 . S
C2073 C2071 1.389 . S
C2073 C2074 1.524 . S
C2074 C2073 1.524 . S
C2074 C2075 1.397 . S
C2074 C2079 1.363 . S
C2075 H2046 0.950 . S
C2075 C2074 1.397 . S
C2075 C2076 1.334 . S
C2076 H2047 0.950 . S
C2076 C2075 1.334 . S
C2076 C2077 1.287 . S
C2077 C2076 1.287 . S
C2077 C2078 1.524 . S
C2077 H2080 0.999 . S
C2078 H2048 0.950 . S
C2078 C2077 1.524 . S
C2078 C2079 1.415 . S
C2079 H2049 0.950 . S
C2079 C2074 1.363 . S
C2079 C2078 1.415 . S
H2080 C2077 0.999 . S
H2081 C2062 0.913 . S
H2082 C2100 0.951 . S
H2083 C2102 0.951 . S
H2084 C2104 0.950 . S
H2085 C2105 0.950 . S
H2086 C2107 0.950 . S
H2087 C2110 0.950 . S
H2088 C2111 0.950 . S
H2089 C2113 0.950 . S
H2090 C2114 0.950 . S
H2091 C2115 0.951 . S
H2092 C2117 0.951 . S
H2093 C2119 0.950 . S
H2094 C2120 0.950 . S
H2095 C2122 0.950 . S
H2096 C2125 0.950 . S
H2097 C2126 0.950 . S
H2098 C2128 0.950 . S
H2099 C2129 0.950 . S
C2100 H2082 0.951 . S
C2100 C2101 1.366 . S
C2100 C2102 1.388 . S
C2101 C2100 1.366 . S
C2101 C2105 1.385 . S
C2102 H2083 0.951 . S
C2102 C2100 1.388 . S
C2102 C2103 1.366 . S
C2103 C2102 1.366 . S
C2103 C2104 1.414 . S
C2103 C2106 1.499 . S
C2104 H2084 0.950 . S
C2104 C2103 1.414 . S
C2104 C2105 1.374 . S
C2105 H2085 0.950 . S
C2105 C2101 1.385 . S
C2105 C2104 1.374 . S
C2106 C2103 1.499 . S
C2106 C2107 1.373 . S
C2106 C2108 1.389 . S
C2107 H2086 0.950 . S
C2107 C2106 1.373 . S
C2107 C2123 1.377 . S
C2108 C2106 1.389 . S
C2108 C2109 1.524 . S
C2108 C2122 1.377 . S
C2109 C2108 1.524 . S
C2109 C2110 1.397 . S
C2109 C2114 1.363 . S
C2110 H2087 0.950 . S
C2110 C2109 1.397 . S
C2110 C2111 1.334 . S
C2111 H2088 0.950 . S
C2111 C2110 1.334 . S
C2111 C2112 1.287 . S
C2112 C2111 1.287 . S
C2112 C2113 1.524 . S
C2112 H2131 0.913 . S
C2113 H2089 0.950 . S
C2113 C2112 1.524 . S
C2113 C2114 1.415 . S
C2114 H2090 0.950 . S
C2114 C2109 1.363 . S
C2114 C2113 1.415 . S
C2115 H2091 0.951 . S
C2115 C2116 1.366 . S
C2115 C2117 1.388 . S
C2116 C2115 1.366 . S
C2116 C2120 1.385 . S
C2117 H2092 0.951 . S
C2117 C2115 1.388 . S
C2117 C2118 1.366 . S
C2118 C2117 1.366 . S
C2118 C2119 1.414 . S
C2118 C2121 1.499 . S
C2119 H2093 0.950 . S
C2119 C2118 1.414 . S
C2119 C2120 1.374 . S
C2120 H2094 0.950 . S
C2120 C2116 1.385 . S
C2120 C2119 1.374 . S
C2121 C2118 1.499 . S
C2121 C2122 1.373 . S
C2121 C2123 1.389 . S
C2122 H2095 0.950 . S
C2122 C2108 1.377 . S
C2122 C2121 1.373 . S
C2123 C2107 1.377 . S
C2123 C2121 1.389 . S
C2123 C2124 1.524 . S
C2124 C2123 1.524 . S
C2124 C2125 1.397 . S
C2124 C2129 1.363 . S
C2125 H2096 0.950 . S
C2125 C2124 1.397 . S
C2125 C2126 1.334 . S
C2126 H2097 0.950 . S
C2126 C2125 1.334 . S
C2126 C2127 1.287 . S
C2127 C2126 1.287 . S
C2127 C2128 1.524 . S
C2127 H2130 0.999 . S
C2128 H2098 0.950 . S
C2128 C2127 1.524 . S
C2128 C2129 1.415 . S
C2129 H2099 0.950 . S
C2129 C2124 1.363 . S
C2129 C2128 1.415 . S
H2130 C2127 0.999 . S
H2131 C2112 0.913 . S
H2132 C2150 0.951 . S
H2133 C2152 0.951 . S
H2134 C2154 0.950 . S
H2135 C2155 0.950 . S
H2136 C2157 0.950 . S
H2137 C2160 0.950 . S
H2138 C2161 0.950 . S
H2139 C2163 0.950 . S
H2140 C2164 0.950 . S
H2141 C2165 0.951 . S
H2142 C2167 0.951 . S
H2143 C2169 0.950 . S
H2144 C2170 0.950 . S
H2145 C2172 0.950 . S
H2146 C2175 0.950 . S
H2147 C2176 0.950 . S
H2148 C2178 0.950 . S
H2149 C2179 0.950 . S
C2150 H2132 0.951 . S
C2150 C2151 1.366 . S
C2150 C2152 1.388 . S
C2151 C2150 1.366 . S
C2151 C2155 1.385 . S
C2152 H2133 0.951 . S
C2152 C2150 1.388 . S
C2152 C2153 1.366 . S
C2153 C2152 1.366 . S
C2153 C2154 1.414 . S
C2153 C2156 1.499 . S
C2154 H2134 0.950 . S
C2154 C2153 1.414 . S
C2154 C2155 1.374 . S
C2155 H2135 0.950 . S
C2155 C2151 1.385 . S
C2155 C2154 1.374 . S
C2156 C2153 1.499 . S
C2156 C2157 1.373 . S
C2156 C2158 1.389 . S
C2157 H2136 0.950 . S
C2157 C2156 1.373 . S
C2157 C2173 1.377 . S
C2158 C2156 1.389 . S
C2158 C2159 1.524 . S
C2158 C2172 1.377 . S
C2159 C2158 1.524 . S
C2159 C2160 1.397 . S
C2159 C2164 1.363 . S
C2160 H2137 0.950 . S
C2160 C2159 1.397 . S
C2160 C2161 1.334 . S
C2161 H2138 0.950 . S
C2161 C2160 1.334 . S
C2161 C2162 1.287 . S
C2162 C2161 1.287 . S
C2162 C2163 1.524 . S
C2162 H2181 0.913 . S
C2163 H2139 0.950 . S
C2163 C2162 1.524 . S
C2163 C2164 1.415 . S
C2164 H2140 0.950 . S
C2164 C2159 1.363 . S
C2164 C2163 1.415 . S
C2165 H2141 0.951 . S
C2165 C2166 1.366 . S
C2165 C2167 1.388 . S
C2166 C2165 1.366 . S
C2166 C2170 1.385 . S
C2167 H2142 0.951 . S
C2167 C2165 1.388 . S
C2167 C2168 1.366 . S
C2168 C2167 1.366 . S
C2168 C2169 1.414 . S
C2168 C2171 1.499 . S
C2169 H2143 0.950 . S
C2169 C2168 1.414 . S
C2169 C2170 1.374 . S
C2170 H2144 0.950 . S
C2170 C2166 1.385 . S
C2170 C2169 1.374 . S
C2171 C2168 1.499 . S
C2171 C2172 1.373 . S
C2171 C2173 1.389 . S
C2172 H2145 0.950 . S
C2172 C2158 1.377 . S
C2172 C2171 1.373 . S
C2173 C2157 1.377 . S
C2173 C2171 1.389 . S
C2173 C2174 1.524 . S
C2174 C2173 1.524 . S
C2174 C2175 1.397 . S
C2174 C2179 1.363 . S
C2175 H2146 0.950 . S
C2175 C2174 1.397 . S
C2175 C2176 1.334 . S
C2176 H2147 0.950 . S
C2176 C2175 1.334 . S
C2176 C2177 1.287 . S
C2177 C2176 1.287 . S
C2177 C2178 1.524 . S
C2177 H2180 0.999 . S
C2178 H2148 0.950 . S
C2178 C2177 1.524 . S
C2178 C2179 1.415 . S
C2179 H2149 0.950 . S
C2179 C2174 1.363 . S
C2179 C2178 1.415 . S
H2180 C2177 0.999 . S
H2181 C2162 0.913 . S
H2182 C2200 0.951 . S
H2183 C2202 0.951 . S
H2184 C2204 0.950 . S
H2185 C2205 0.950 . S
H2186 C2207 0.950 . S
H2187 C2210 0.950 . S
H2188 C2211 0.950 . S
H2189 C2213 0.950 . S
H2190 C2214 0.950 . S
H2191 C2215 0.951 . S
H2192 C2217 0.951 . S
H2193 C2219 0.950 . S
H2194 C2220 0.950 . S
H2195 C2222 0.950 . S
H2196 C2225 0.950 . S
H2197 C2226 0.950 . S
H2198 C2228 0.950 . S
H2199 C2229 0.950 . S
C2200 H2182 0.951 . S
C2200 C2201 1.366 . S
C2200 C2202 1.388 . S
C2201 C2200 1.366 . S
C2201 C2205 1.385 . S
C2202 H2183 0.951 . S
C2202 C2200 1.388 . S
C2202 C2203 1.366 . S
C2203 C2202 1.366 . S
C2203 C2204 1.414 . S
C2203 C2206 1.499 . S
C2204 H2184 0.950 . S
C2204 C2203 1.414 . S
C2204 C2205 1.374 . S
C2205 H2185 0.950 . S
C2205 C2201 1.385 . S
C2205 C2204 1.374 . S
C2206 C2203 1.499 . S
C2206 C2207 1.373 . S
C2206 C2208 1.389 . S
C2207 H2186 0.950 . S
C2207 C2206 1.373 . S
C2207 C2223 1.377 . S
C2208 C2206 1.389 . S
C2208 C2209 1.524 . S
C2208 C2222 1.377 . S
C2209 C2208 1.524 . S
C2209 C2210 1.397 . S
C2209 C2214 1.363 . S
C2210 H2187 0.950 . S
C2210 C2209 1.397 . S
C2210 C2211 1.334 . S
C2211 H2188 0.950 . S
C2211 C2210 1.334 . S
C2211 C2212 1.287 . S
C2212 C2211 1.287 . S
C2212 C2213 1.524 . S
C2212 H2231 0.913 . S
C2213 H2189 0.950 . S
C2213 C2212 1.524 . S
C2213 C2214 1.415 . S
C2214 H2190 0.950 . S
C2214 C2209 1.363 . S
C2214 C2213 1.415 . S
C2215 H2191 0.951 . S
C2215 C2216 1.366 . S
C2215 C2217 1.388 . S
C2216 C2215 1.366 . S
C2216 C2220 1.385 . S
C2217 H2192 0.951 . S
C2217 C2215 1.388 . S
C2217 C2218 1.366 . S
C2218 C2217 1.366 . S
C2218 C2219 1.414 . S
C2218 C2221 1.499 . S
C2219 H2193 0.950 . S
C2219 C2218 1.414 . S
C2219 C2220 1.374 . S
C2220 H2194 0.950 . S
C2220 C2216 1.385 . S
C2220 C2219 1.374 . S
C2221 C2218 1.499 . S
C2221 C2222 1.373 . S
C2221 C2223 1.389 . S
C2222 H2195 0.950 . S
C2222 C2208 1.377 . S
C2222 C2221 1.373 . S
C2223 C2207 1.377 . S
C2223 C2221 1.389 . S
C2223 C2224 1.524 . S
C2224 C2223 1.524 . S
C2224 C2225 1.397 . S
C2224 C2229 1.363 . S
C2225 H2196 0.950 . S
C2225 C2224 1.397 . S
C2225 C2226 1.334 . S
C2226 H2197 0.950 . S
C2226 C2225 1.334 . S
C2226 C2227 1.287 . S
C2227 C2226 1.287 . S
C2227 C2228 1.524 . S
C2227 H2230 0.999 . S
C2228 H2198 0.950 . S
C2228 C2227 1.524 . S
C2228 C2229 1.415 . S
C2229 H2199 0.950 . S
C2229 C2224 1.363 . S
C2229 C2228 1.415 . S
H2230 C2227 0.999 . S
H2231 C2212 0.913 . S
H2232 C2250 0.951 . S
H2233 C2252 0.951 . S
H2234 C2254 0.950 . S
H2235 C2255 0.950 . S
H2236 C2257 0.950 . S
H2237 C2260 0.950 . S
H2238 C2261 0.950 . S
H2239 C2263 0.950 . S
H2240 C2264 0.950 . S
H2241 C2265 0.951 . S
H2242 C2267 0.951 . S
H2243 C2269 0.950 . S
H2244 C2270 0.950 . S
H2245 C2272 0.950 . S
H2246 C2275 0.950 . S
H2247 C2276 0.950 . S
H2248 C2278 0.950 . S
H2249 C2279 0.950 . S
C2250 H2232 0.951 . S
C2250 C2251 1.366 . S
C2250 C2252 1.388 . S
C2251 C2250 1.366 . S
C2251 C2255 1.385 . S
C2252 H2233 0.951 . S
C2252 C2250 1.388 . S
C2252 C2253 1.366 . S
C2253 C2252 1.366 . S
C2253 C2254 1.414 . S
C2253 C2256 1.499 . S
C2254 H2234 0.950 . S
C2254 C2253 1.414 . S
C2254 C2255 1.374 . S
C2255 H2235 0.950 . S
C2255 C2251 1.385 . S
C2255 C2254 1.374 . S
C2256 C2253 1.499 . S
C2256 C2257 1.373 . S
C2256 C2258 1.389 . S
C2257 H2236 0.950 . S
C2257 C2256 1.373 . S
C2257 C2273 1.377 . S
C2258 C2256 1.389 . S
C2258 C2259 1.524 . S
C2258 C2272 1.377 . S
C2259 C2258 1.524 . S
C2259 C2260 1.397 . S
C2259 C2264 1.363 . S
C2260 H2237 0.950 . S
C2260 C2259 1.397 . S
C2260 C2261 1.334 . S
C2261 H2238 0.950 . S
C2261 C2260 1.334 . S
C2261 C2262 1.287 . S
C2262 C2261 1.287 . S
C2262 C2263 1.524 . S
C2262 H2281 0.913 . S
C2263 H2239 0.950 . S
C2263 C2262 1.524 . S
C2263 C2264 1.415 . S
C2264 H2240 0.950 . S
C2264 C2259 1.363 . S
C2264 C2263 1.415 . S
C2265 H2241 0.951 . S
C2265 C2266 1.366 . S
C2265 C2267 1.388 . S
C2266 C2265 1.366 . S
C2266 C2270 1.385 . S
C2267 H2242 0.951 . S
C2267 C2265 1.388 . S
C2267 C2268 1.366 . S
C2268 C2267 1.366 . S
C2268 C2269 1.414 . S
C2268 C2271 1.499 . S
C2269 H2243 0.950 . S
C2269 C2268 1.414 . S
C2269 C2270 1.374 . S
C2270 H2244 0.950 . S
C2270 C2266 1.385 . S
C2270 C2269 1.374 . S
C2271 C2268 1.499 . S
C2271 C2272 1.373 . S
C2271 C2273 1.389 . S
C2272 H2245 0.950 . S
C2272 C2258 1.377 . S
C2272 C2271 1.373 . S
C2273 C2257 1.377 . S
C2273 C2271 1.389 . S
C2273 C2274 1.524 . S
C2274 C2273 1.524 . S
C2274 C2275 1.397 . S
C2274 C2279 1.363 . S
C2275 H2246 0.950 . S
C2275 C2274 1.397 . S
C2275 C2276 1.334 . S
C2276 H2247 0.950 . S
C2276 C2275 1.334 . S
C2276 C2277 1.287 . S
C2277 C2276 1.287 . S
C2277 C2278 1.524 . S
C2277 H2280 0.999 . S
C2278 H2248 0.950 . S
C2278 C2277 1.524 . S
C2278 C2279 1.415 . S
C2279 H2249 0.950 . S
C2279 C2274 1.363 . S
C2279 C2278 1.415 . S
H2280 C2277 0.999 . S
H2281 C2262 0.913 . S
H2282 C2300 0.951 . S
H2283 C2302 0.951 . S
H2284 C2304 0.950 . S
H2285 C2305 0.950 . S
H2286 C2307 0.950 . S
H2287 C2310 0.950 1_455 S
H2288 C2311 0.950 . S
H2289 C2313 0.950 . S
H2290 C2314 0.950 . S
H2291 C2315 0.951 . S
H2292 C2317 0.951 . S
H2293 C2319 0.950 1_655 S
H2294 C2320 0.918 1_655 S
H2295 C2322 0.950 1_655 S
H2296 C2325 0.950 . S
H2297 C2326 0.950 . S
H2298 C2328 0.950 . S
H2299 C2329 0.950 . S
C2300 H2282 0.951 . S
C2300 C2301 1.366 . S
C2300 C2302 1.388 . S
C2301 C2300 1.366 . S
C2301 C2305 1.385 . S
C2302 H2283 0.951 . S
C2302 C2300 1.388 . S
C2302 C2303 1.366 . S
C2303 C2302 1.366 . S
C2303 C2304 1.414 . S
C2303 C2306 1.499 . S
C2304 H2284 0.950 . S
C2304 C2303 1.414 . S
C2304 C2305 1.374 . S
C2305 H2285 0.950 . S
C2305 C2301 1.385 . S
C2305 C2304 1.374 . S
C2306 C2303 1.499 . S
C2306 C2307 1.373 . S
C2306 C2308 1.389 . S
C2307 H2286 0.950 . S
C2307 C2306 1.373 . S
C2307 C2323 1.377 . S
C2308 C2306 1.389 . S
C2308 C2309 1.524 1_455 S
C2308 C2322 1.377 . S
C2309 C2308 1.524 1_655 S
C2309 C2310 1.397 . S
C2309 C2314 1.363 . S
C2310 H2287 0.950 1_655 S
C2310 C2309 1.397 . S
C2310 C2311 1.334 . S
C2311 H2288 0.950 . S
C2311 C2310 1.334 . S
C2311 C2312 1.287 . S
C2312 C2311 1.287 . S
C2312 C2313 1.524 . S
C2312 H2331 0.913 . S
C2313 H2289 0.950 . S
C2313 C2312 1.524 . S
C2313 C2314 1.415 . S
C2314 H2290 0.950 . S
C2314 C2309 1.363 . S
C2314 C2313 1.415 . S
C2315 H2291 0.951 . S
C2315 C2316 1.366 . S
C2315 C2317 1.388 . S
C2316 C2315 1.366 . S
C2316 C2320 1.414 . S
C2317 H2292 0.951 . S
C2317 C2315 1.388 . S
C2317 C2318 1.366 . S
C2318 C2317 1.366 . S
C2318 C2319 1.414 . S
C2318 C2321 1.499 . S
C2319 H2293 0.950 1_455 S
C2319 C2318 1.414 . S
C2319 C2320 1.379 . S
C2320 H2294 0.918 1_455 S
C2320 C2316 1.414 . S
C2320 C2319 1.379 . S
C2321 C2318 1.499 . S
C2321 C2322 1.373 . S
C2321 C2323 1.389 . S
C2322 H2295 0.950 1_455 S
C2322 C2308 1.377 . S
C2322 C2321 1.373 . S
C2323 C2307 1.377 . S
C2323 C2321 1.389 . S
C2323 C2324 1.524 . S
C2324 C2323 1.524 . S
C2324 C2325 1.397 . S
C2324 C2329 1.363 . S
C2325 H2296 0.950 . S
C2325 C2324 1.397 . S
C2325 C2326 1.334 . S
C2326 H2297 0.950 . S
C2326 C2325 1.334 . S
C2326 C2327 1.287 . S
C2327 C2326 1.287 . S
C2327 C2328 1.524 . S
C2327 H2330 0.999 . S
C2328 H2298 0.950 . S
C2328 C2327 1.524 . S
C2328 C2329 1.415 . S
C2329 H2299 0.950 . S
C2329 C2324 1.363 . S
C2329 C2328 1.415 . S
H2330 C2327 0.999 . S
H2331 C2312 0.913 . S
H2332 C2350 0.951 . S
H2333 C2352 0.951 . S
H2334 C2354 0.950 . S
H2335 C2355 0.950 . S
H2336 C2357 0.950 . S
H2337 C2360 0.950 . S
H2338 C2361 0.950 . S
H2339 C2363 0.950 . S
H2340 C2364 0.950 . S
H2341 C2365 0.951 . S
H2342 C2367 0.951 . S
H2343 C2369 0.950 . S
H2344 C2370 0.950 . S
H2345 C2372 0.950 . S
H2346 C2375 0.950 . S
H2347 C2376 0.950 . S
H2348 C2378 0.950 . S
H2349 C2379 0.950 . S
C2350 H2332 0.951 . S
C2350 C2351 1.366 . S
C2350 C2352 1.388 . S
C2351 C2350 1.366 . S
C2351 C2355 1.385 . S
C2352 H2333 0.951 . S
C2352 C2350 1.388 . S
C2352 C2353 1.366 . S
C2353 C2352 1.366 . S
C2353 C2354 1.414 . S
C2353 C2356 1.499 . S
C2354 H2334 0.950 . S
C2354 C2353 1.414 . S
C2354 C2355 1.374 . S
C2355 H2335 0.950 . S
C2355 C2351 1.385 . S
C2355 C2354 1.374 . S
C2356 C2353 1.499 . S
C2356 C2357 1.373 . S
C2356 C2358 1.389 . S
C2357 H2336 0.950 . S
C2357 C2356 1.373 . S
C2357 C2373 1.377 . S
C2358 C2356 1.389 . S
C2358 C2359 1.524 . S
C2358 C2372 1.377 . S
C2359 C2358 1.524 . S
C2359 C2360 1.397 . S
C2359 C2364 1.363 . S
C2360 H2337 0.950 . S
C2360 C2359 1.397 . S
C2360 C2361 1.334 . S
C2361 H2338 0.950 . S
C2361 C2360 1.334 . S
C2361 C2362 1.287 . S
C2362 C2361 1.287 . S
C2362 C2363 1.524 . S
C2362 H2381 0.913 . S
C2363 H2339 0.950 . S
C2363 C2362 1.524 . S
C2363 C2364 1.415 . S
C2364 H2340 0.950 . S
C2364 C2359 1.363 . S
C2364 C2363 1.415 . S
C2365 H2341 0.951 . S
C2365 C2366 1.366 . S
C2365 C2367 1.388 . S
C2366 C2365 1.366 . S
C2366 C2370 1.385 . S
C2367 H2342 0.951 . S
C2367 C2365 1.388 . S
C2367 C2368 1.366 . S
C2368 C2367 1.366 . S
C2368 C2369 1.414 . S
C2368 C2371 1.499 . S
C2369 H2343 0.950 . S
C2369 C2368 1.414 . S
C2369 C2370 1.374 . S
C2370 H2344 0.950 . S
C2370 C2366 1.385 . S
C2370 C2369 1.374 . S
C2371 C2368 1.499 . S
C2371 C2372 1.373 . S
C2371 C2373 1.389 . S
C2372 H2345 0.950 . S
C2372 C2358 1.377 . S
C2372 C2371 1.373 . S
C2373 C2357 1.377 . S
C2373 C2371 1.389 . S
C2373 C2374 1.524 . S
C2374 C2373 1.524 . S
C2374 C2375 1.397 . S
C2374 C2379 1.363 . S
C2375 H2346 0.950 . S
C2375 C2374 1.397 . S
C2375 C2376 1.334 . S
C2376 H2347 0.950 . S
C2376 C2375 1.334 . S
C2376 C2377 1.287 . S
C2377 C2376 1.287 . S
C2377 C2378 1.524 . S
C2377 H2380 0.999 . S
C2378 H2348 0.950 . S
C2378 C2377 1.524 . S
C2378 C2379 1.415 . S
C2379 H2349 0.950 . S
C2379 C2374 1.363 . S
C2379 C2378 1.415 . S
H2380 C2377 0.999 . S
H2381 C2362 0.913 . S
H2382 C2400 0.951 . S
H2383 C2402 0.951 . S
H2384 C2404 0.950 . S
H2385 C2405 0.950 . S
H2386 C2407 0.950 . S
H2387 C2410 0.950 . S
H2388 C2411 0.950 . S
H2389 C2413 0.950 . S
H2390 C2414 0.950 . S
H2391 C2415 0.951 . S
H2392 C2417 0.951 . S
H2393 C2419 0.950 1_455 S
H2394 C2420 0.923 1_455 S
H2395 C2422 0.950 1_455 S
H2396 C2425 0.950 . S
H2397 C2426 0.950 . S
H2398 C2428 0.950 . S
H2399 C2429 0.950 . S
C2400 H2382 0.951 . S
C2400 C2401 1.366 . S
C2400 C2402 1.388 . S
C2401 C2400 1.366 . S
C2401 C2405 1.385 . S
C2402 H2383 0.951 . S
C2402 C2400 1.388 . S
C2402 C2403 1.366 . S
C2403 C2402 1.366 . S
C2403 C2404 1.414 . S
C2403 C2406 1.499 . S
C2404 H2384 0.950 . S
C2404 C2403 1.414 . S
C2404 C2405 1.374 . S
C2405 H2385 0.950 . S
C2405 C2401 1.385 . S
C2405 C2404 1.374 . S
C2406 C2403 1.499 . S
C2406 C2407 1.373 . S
C2406 C2408 1.389 . S
C2407 H2386 0.950 . S
C2407 C2406 1.373 . S
C2407 C2423 1.377 . S
C2408 C2406 1.389 . S
C2408 C2409 1.524 1_655 S
C2408 C2422 1.377 . S
C2409 C2408 1.524 1_455 S
C2409 C2410 1.397 . S
C2409 C2414 1.363 . S
C2410 H2387 0.950 . S
C2410 C2409 1.397 . S
C2410 C2411 1.334 . S
C2411 H2388 0.950 . S
C2411 C2410 1.334 . S
C2411 C2412 1.287 . S
C2412 C2411 1.287 . S
C2412 C2413 1.524 . S
C2412 H2431 0.913 . S
C2413 H2389 0.950 . S
C2413 C2412 1.524 . S
C2413 C2414 1.415 . S
C2414 H2390 0.950 . S
C2414 C2409 1.363 . S
C2414 C2413 1.415 . S
C2415 H2391 0.951 . S
C2415 C2416 1.366 . S
C2415 C2417 1.388 . S
C2416 C2415 1.366 . S
C2416 C2420 1.408 . S
C2417 H2392 0.951 . S
C2417 C2415 1.388 . S
C2417 C2418 1.366 . S
C2418 C2417 1.366 . S
C2418 C2419 1.414 . S
C2418 C2421 1.499 . S
C2419 H2393 0.950 1_655 S
C2419 C2418 1.414 . S
C2419 C2420 1.378 . S
C2420 H2394 0.923 1_655 S
C2420 C2416 1.408 . S
C2420 C2419 1.378 . S
C2421 C2418 1.499 . S
C2421 C2422 1.373 . S
C2421 C2423 1.389 . S
C2422 H2395 0.950 1_655 S
C2422 C2408 1.377 . S
C2422 C2421 1.373 . S
C2423 C2407 1.377 . S
C2423 C2421 1.389 . S
C2423 C2424 1.524 . S
C2424 C2423 1.524 . S
C2424 C2425 1.397 . S
C2424 C2429 1.363 . S
C2425 H2396 0.950 . S
C2425 C2424 1.397 . S
C2425 C2426 1.334 . S
C2426 H2397 0.950 . S
C2426 C2425 1.334 . S
C2426 C2427 1.287 . S
C2427 C2426 1.287 . S
C2427 C2428 1.524 . S
C2427 H2430 0.999 . S
C2428 H2398 0.950 . S
C2428 C2427 1.524 . S
C2428 C2429 1.415 . S
C2429 H2399 0.950 . S
C2429 C2424 1.363 . S
C2429 C2428 1.415 . S
H2430 C2427 0.999 . S
H2431 C2412 0.913 . S
H2432 C2450 0.951 . S
H2433 C2452 0.951 . S
H2434 C2454 0.950 . S
H2435 C2455 0.950 . S
H2436 C2457 0.950 . S
H2437 C2460 0.950 . S
H2438 C2461 0.950 . S
H2439 C2463 0.950 . S
H2440 C2464 0.950 . S
H2441 C2465 0.951 . S
H2442 C2467 0.951 . S
H2443 C2469 0.950 . S
H2444 C2470 0.950 . S
H2445 C2472 0.950 . S
H2446 C2475 0.950 . S
H2447 C2476 0.950 . S
H2448 C2478 0.950 . S
H2449 C2479 0.950 . S
C2450 H2432 0.951 . S
C2450 C2451 1.366 . S
C2450 C2452 1.388 . S
C2451 C2450 1.366 . S
C2451 C2455 1.385 . S
C2452 H2433 0.951 . S
C2452 C2450 1.388 . S
C2452 C2453 1.366 . S
C2453 C2452 1.366 . S
C2453 C2454 1.414 . S
C2453 C2456 1.499 . S
C2454 H2434 0.950 . S
C2454 C2453 1.414 . S
C2454 C2455 1.374 . S
C2455 H2435 0.950 . S
C2455 C2451 1.385 . S
C2455 C2454 1.374 . S
C2456 C2453 1.499 . S
C2456 C2457 1.373 . S
C2456 C2458 1.389 . S
C2457 H2436 0.950 . S
C2457 C2456 1.373 . S
C2457 C2473 1.377 . S
C2458 C2456 1.389 . S
C2458 C2459 1.524 . S
C2458 C2472 1.377 . S
C2459 C2458 1.524 . S
C2459 C2460 1.397 . S
C2459 C2464 1.363 . S
C2460 H2437 0.950 . S
C2460 C2459 1.397 . S
C2460 C2461 1.334 . S
C2461 H2438 0.950 . S
C2461 C2460 1.334 . S
C2461 C2462 1.287 . S
C2462 C2461 1.287 . S
C2462 C2463 1.524 . S
C2462 H2481 0.913 . S
C2463 H2439 0.950 . S
C2463 C2462 1.524 . S
C2463 C2464 1.415 . S
C2464 H2440 0.950 . S
C2464 C2459 1.363 . S
C2464 C2463 1.415 . S
C2465 H2441 0.951 . S
C2465 C2466 1.366 . S
C2465 C2467 1.388 . S
C2466 C2465 1.366 . S
C2466 C2470 1.385 . S
C2467 H2442 0.951 . S
C2467 C2465 1.388 . S
C2467 C2468 1.366 . S
C2468 C2467 1.366 . S
C2468 C2469 1.414 . S
C2468 C2471 1.499 . S
C2469 H2443 0.950 . S
C2469 C2468 1.414 . S
C2469 C2470 1.374 . S
C2470 H2444 0.950 . S
C2470 C2466 1.385 . S
C2470 C2469 1.374 . S
C2471 C2468 1.499 . S
C2471 C2472 1.373 . S
C2471 C2473 1.389 . S
C2472 H2445 0.950 . S
C2472 C2458 1.377 . S
C2472 C2471 1.373 . S
C2473 C2457 1.377 . S
C2473 C2471 1.389 . S
C2473 C2474 1.524 . S
C2474 C2473 1.524 . S
C2474 C2475 1.397 . S
C2474 C2479 1.363 . S
C2475 H2446 0.950 . S
C2475 C2474 1.397 . S
C2475 C2476 1.334 . S
C2476 H2447 0.950 . S
C2476 C2475 1.334 . S
C2476 C2477 1.287 . S
C2477 C2476 1.287 . S
C2477 C2478 1.524 . S
C2477 H2480 0.999 . S
C2478 H2448 0.950 . S
C2478 C2477 1.524 . S
C2478 C2479 1.415 . S
C2479 H2449 0.950 . S
C2479 C2474 1.363 . S
C2479 C2478 1.415 . S
H2480 C2477 0.999 . S
H2481 C2462 0.913 . S
H2482 C2500 0.951 . S
H2483 C2502 0.951 . S
H2484 C2504 0.950 . S
H2485 C2505 0.950 . S
H2486 C2507 0.950 . S
H2487 C2510 0.950 . S
H2488 C2511 0.950 . S
H2489 C2513 0.950 . S
H2490 C2514 0.950 . S
H2491 C2515 0.951 . S
H2492 C2517 0.951 . S
H2493 C2519 0.950 . S
H2494 C2520 0.950 . S
H2495 C2522 0.950 . S
H2496 C2525 0.950 . S
H2497 C2526 0.950 . S
H2498 C2528 0.950 . S
H2499 C2529 0.950 . S
C2500 H2482 0.951 . S
C2500 C2501 1.366 . S
C2500 C2502 1.388 . S
C2501 C2500 1.366 . S
C2501 C2505 1.385 . S
C2502 H2483 0.951 . S
C2502 C2500 1.388 . S
C2502 C2503 1.366 . S
C2503 C2502 1.366 . S
C2503 C2504 1.414 . S
C2503 C2506 1.499 . S
C2504 H2484 0.950 . S
C2504 C2503 1.414 . S
C2504 C2505 1.374 . S
C2505 H2485 0.950 . S
C2505 C2501 1.385 . S
C2505 C2504 1.374 . S
C2506 C2503 1.499 . S
C2506 C2507 1.373 . S
C2506 C2508 1.389 . S
C2507 H2486 0.950 . S
C2507 C2506 1.373 . S
C2507 C2523 1.377 . S
C2508 C2506 1.389 . S
C2508 C2509 1.524 . S
C2508 C2522 1.377 . S
C2509 C2508 1.524 . S
C2509 C2510 1.397 . S
C2509 C2514 1.363 . S
C2510 H2487 0.950 . S
C2510 C2509 1.397 . S
C2510 C2511 1.334 . S
C2511 H2488 0.950 . S
C2511 C2510 1.334 . S
C2511 C2512 1.287 . S
C2512 C2511 1.287 . S
C2512 C2513 1.524 . S
C2512 H2531 0.913 . S
C2513 H2489 0.950 . S
C2513 C2512 1.524 . S
C2513 C2514 1.415 . S
C2514 H2490 0.950 . S
C2514 C2509 1.363 . S
C2514 C2513 1.415 . S
C2515 H2491 0.951 . S
C2515 C2516 1.366 . S
C2515 C2517 1.388 . S
C2516 C2515 1.366 . S
C2516 C2520 1.385 . S
C2517 H2492 0.951 . S
C2517 C2515 1.388 . S
C2517 C2518 1.366 . S
C2518 C2517 1.366 . S
C2518 C2519 1.414 . S
C2518 C2521 1.499 . S
C2519 H2493 0.950 . S
C2519 C2518 1.414 . S
C2519 C2520 1.374 . S
C2520 H2494 0.950 . S
C2520 C2516 1.385 . S
C2520 C2519 1.374 . S
C2521 C2518 1.499 . S
C2521 C2522 1.373 . S
C2521 C2523 1.389 . S
C2522 H2495 0.950 . S
C2522 C2508 1.377 . S
C2522 C2521 1.373 . S
C2523 C2507 1.377 . S
C2523 C2521 1.389 . S
C2523 C2524 1.524 . S
C2524 C2523 1.524 . S
C2524 C2525 1.397 . S
C2524 C2529 1.363 . S
C2525 H2496 0.950 . S
C2525 C2524 1.397 . S
C2525 C2526 1.334 . S
C2526 H2497 0.950 . S
C2526 C2525 1.334 . S
C2526 C2527 1.287 . S
C2527 C2526 1.287 . S
C2527 C2528 1.524 . S
C2527 H2530 0.999 . S
C2528 H2498 0.950 . S
C2528 C2527 1.524 . S
C2528 C2529 1.415 . S
C2529 H2499 0.950 . S
C2529 C2524 1.363 . S
C2529 C2528 1.415 . S
H2530 C2527 0.999 . S
H2531 C2512 0.913 . S
H2532 C2550 0.951 . S
H2533 C2552 0.951 . S
H2534 C2554 0.950 . S
H2535 C2555 0.950 . S
H2536 C2557 0.950 . S
H2537 C2560 0.950 . S
H2538 C2561 0.950 . S
H2539 C2563 0.950 . S
H2540 C2564 0.936 1_554 S
H2541 C2565 0.951 . S
H2542 C2567 0.951 . S
H2543 C2569 0.950 1_554 S
H2544 C2570 0.953 . S
H2545 C2572 0.950 . S
H2546 C2575 0.944 . S
H2547 C2576 0.950 . S
H2548 C2578 0.950 . S
H2549 C2579 0.950 . S
C2550 H2532 0.951 . S
C2550 C2551 1.366 . S
C2550 C2552 1.388 . S
C2551 C2550 1.366 . S
C2551 C2555 1.385 . S
C2552 H2533 0.951 . S
C2552 C2550 1.388 . S
C2552 C2553 1.366 . S
C2553 C2552 1.366 . S
C2553 C2554 1.414 . S
C2553 C2556 1.499 . S
C2554 H2534 0.950 . S
C2554 C2553 1.414 . S
C2554 C2555 1.374 . S
C2555 H2535 0.950 . S
C2555 C2551 1.385 . S
C2555 C2554 1.374 . S
C2556 C2553 1.499 . S
C2556 C2557 1.373 . S
C2556 C2558 1.389 . S
C2557 H2536 0.950 . S
C2557 C2556 1.373 . S
C2557 C2573 1.377 . S
C2558 C2556 1.389 . S
C2558 C2559 1.524 . S
C2558 C2572 1.377 . S
C2559 C2558 1.524 . S
C2559 C2560 1.397 . S
C2559 C2564 1.363 . S
C2560 H2537 0.950 . S
C2560 C2559 1.397 . S
C2560 C2561 1.334 . S
C2561 H2538 0.950 . S
C2561 C2560 1.334 . S
C2561 C2562 1.287 . S
C2562 C2561 1.287 . S
C2562 C2563 1.524 . S
C2562 H2581 0.913 . S
C2563 H2539 0.950 . S
C2563 C2562 1.524 . S
C2563 C2564 1.415 . S
C2564 H2540 0.936 1_556 S
C2564 C2559 1.363 . S
C2564 C2563 1.415 . S
C2565 H2541 0.951 . S
C2565 C2566 1.366 . S
C2565 C2567 1.388 . S
C2566 C2565 1.366 . S
C2566 C2570 1.382 1_556 S
C2567 H2542 0.951 . S
C2567 C2565 1.388 . S
C2567 C2568 1.366 . S
C2568 C2567 1.366 . S
C2568 C2569 1.414 . S
C2568 C2571 1.499 . S
C2569 H2543 0.950 1_556 S
C2569 C2568 1.414 . S
C2569 C2570 1.373 1_556 S
C2570 H2544 0.953 . S
C2570 C2566 1.382 1_554 S
C2570 C2569 1.373 1_554 S
C2571 C2568 1.499 . S
C2571 C2572 1.373 . S
C2571 C2573 1.389 . S
C2572 H2545 0.950 . S
C2572 C2558 1.377 . S
C2572 C2571 1.373 . S
C2573 C2557 1.377 . S
C2573 C2571 1.389 . S
C2573 C2574 1.524 . S
C2574 C2573 1.524 . S
C2574 C2575 1.404 1_556 S
C2574 C2579 1.363 . S
C2575 H2546 0.944 . S
C2575 C2574 1.404 1_554 S
C2575 C2576 1.332 . S
C2576 H2547 0.950 . S
C2576 C2575 1.332 . S
C2576 C2577 1.287 1_554 S
C2577 C2576 1.287 1_556 S
C2577 C2578 1.524 . S
C2577 H2580 0.999 . S
C2578 H2548 0.950 . S
C2578 C2577 1.524 . S
C2578 C2579 1.415 . S
C2579 H2549 0.950 . S
C2579 C2574 1.363 . S
C2579 C2578 1.415 . S
H2580 C2577 0.999 . S
H2581 C2562 0.913 . S
H2582 C2600 0.951 . S
H2583 C2602 0.951 . S
H2584 C2604 0.950 . S
H2585 C2605 0.950 . S
H2586 C2607 0.950 . S
H2587 C2610 0.950 . S
H2588 C2611 0.950 . S
H2589 C2613 0.950 . S
H2590 C2614 0.950 . S
H2591 C2615 0.951 . S
H2592 C2617 0.951 . S
H2593 C2619 0.950 . S
H2594 C2620 0.950 . S
H2595 C2622 0.950 . S
H2596 C2625 0.950 . S
H2597 C2626 0.950 . S
H2598 C2628 0.950 . S
H2599 C2629 0.950 . S
C2600 H2582 0.951 . S
C2600 C2601 1.366 . S
C2600 C2602 1.388 . S
C2601 C2600 1.366 . S
C2601 C2605 1.385 . S
C2602 H2583 0.951 . S
C2602 C2600 1.388 . S
C2602 C2603 1.366 . S
C2603 C2602 1.366 . S
C2603 C2604 1.414 . S
C2603 C2606 1.499 . S
C2604 H2584 0.950 . S
C2604 C2603 1.414 . S
C2604 C2605 1.374 . S
C2605 H2585 0.950 . S
C2605 C2601 1.385 . S
C2605 C2604 1.374 . S
C2606 C2603 1.499 . S
C2606 C2607 1.373 . S
C2606 C2608 1.389 . S
C2607 H2586 0.950 . S
C2607 C2606 1.373 . S
C2607 C2623 1.377 . S
C2608 C2606 1.389 . S
C2608 C2609 1.524 . S
C2608 C2622 1.377 . S
C2609 C2608 1.524 . S
C2609 C2610 1.397 . S
C2609 C2614 1.363 . S
C2610 H2587 0.950 . S
C2610 C2609 1.397 . S
C2610 C2611 1.334 . S
C2611 H2588 0.950 . S
C2611 C2610 1.334 . S
C2611 C2612 1.287 . S
C2612 C2611 1.287 . S
C2612 C2613 1.524 . S
C2612 H2631 0.913 . S
C2613 H2589 0.950 . S
C2613 C2612 1.524 . S
C2613 C2614 1.415 . S
C2614 H2590 0.950 . S
C2614 C2609 1.363 . S
C2614 C2613 1.415 . S
C2615 H2591 0.951 . S
C2615 C2616 1.366 . S
C2615 C2617 1.388 . S
C2616 C2615 1.366 . S
C2616 C2620 1.385 . S
C2617 H2592 0.951 . S
C2617 C2615 1.388 . S
C2617 C2618 1.366 . S
C2618 C2617 1.366 . S
C2618 C2619 1.414 . S
C2618 C2621 1.499 . S
C2619 H2593 0.950 . S
C2619 C2618 1.414 . S
C2619 C2620 1.374 . S
C2620 H2594 0.950 . S
C2620 C2616 1.385 . S
C2620 C2619 1.374 . S
C2621 C2618 1.499 . S
C2621 C2622 1.373 . S
C2621 C2623 1.389 . S
C2622 H2595 0.950 . S
C2622 C2608 1.377 . S
C2622 C2621 1.373 . S
C2623 C2607 1.377 . S
C2623 C2621 1.389 . S
C2623 C2624 1.524 . S
C2624 C2623 1.524 . S
C2624 C2625 1.397 . S
C2624 C2629 1.363 . S
C2625 H2596 0.950 . S
C2625 C2624 1.397 . S
C2625 C2626 1.334 . S
C2626 H2597 0.950 . S
C2626 C2625 1.334 . S
C2626 C2627 1.287 . S
C2627 C2626 1.287 . S
C2627 C2628 1.524 . S
C2627 H2630 0.999 . S
C2628 H2598 0.950 . S
C2628 C2627 1.524 . S
C2628 C2629 1.415 . S
C2629 H2599 0.950 . S
C2629 C2624 1.363 . S
C2629 C2628 1.415 . S
H2630 C2627 0.999 . S
H2631 C2612 0.913 . S
H2632 C2650 0.951 . S
H2633 C2652 0.951 . S
H2634 C2654 0.950 . S
H2635 C2655 0.950 . S
H2636 C2657 0.950 . S
H2637 C2660 0.950 . S
H2638 C2661 0.950 . S
H2639 C2663 0.950 . S
H2640 C2664 0.950 . S
H2641 C2665 0.951 . S
H2642 C2667 0.951 . S
H2643 C2669 0.950 . S
H2644 C2670 0.950 . S
H2645 C2672 0.950 . S
H2646 C2675 0.950 . S
H2647 C2676 0.950 . S
H2648 C2678 0.950 . S
H2649 C2679 0.950 . S
C2650 H2632 0.951 . S
C2650 C2651 1.366 . S
C2650 C2652 1.388 . S
C2651 C2650 1.366 . S
C2651 C2655 1.385 . S
C2652 H2633 0.951 . S
C2652 C2650 1.388 . S
C2652 C2653 1.366 . S
C2653 C2652 1.366 . S
C2653 C2654 1.414 . S
C2653 C2656 1.499 . S
C2654 H2634 0.950 . S
C2654 C2653 1.414 . S
C2654 C2655 1.374 . S
C2655 H2635 0.950 . S
C2655 C2651 1.385 . S
C2655 C2654 1.374 . S
C2656 C2653 1.499 . S
C2656 C2657 1.373 . S
C2656 C2658 1.389 . S
C2657 H2636 0.950 . S
C2657 C2656 1.373 . S
C2657 C2673 1.377 . S
C2658 C2656 1.389 . S
C2658 C2659 1.524 . S
C2658 C2672 1.377 . S
C2659 C2658 1.524 . S
C2659 C2660 1.397 . S
C2659 C2664 1.363 . S
C2660 H2637 0.950 . S
C2660 C2659 1.397 . S
C2660 C2661 1.334 . S
C2661 H2638 0.950 . S
C2661 C2660 1.334 . S
C2661 C2662 1.287 . S
C2662 C2661 1.287 . S
C2662 C2663 1.524 . S
C2662 H2681 0.913 . S
C2663 H2639 0.950 . S
C2663 C2662 1.524 . S
C2663 C2664 1.415 . S
C2664 H2640 0.950 . S
C2664 C2659 1.363 . S
C2664 C2663 1.415 . S
C2665 H2641 0.951 . S
C2665 C2666 1.366 . S
C2665 C2667 1.388 . S
C2666 C2665 1.366 . S
C2666 C2670 1.385 . S
C2667 H2642 0.951 . S
C2667 C2665 1.388 . S
C2667 C2668 1.366 . S
C2668 C2667 1.366 . S
C2668 C2669 1.414 . S
C2668 C2671 1.499 . S
C2669 H2643 0.950 . S
C2669 C2668 1.414 . S
C2669 C2670 1.374 . S
C2670 H2644 0.950 . S
C2670 C2666 1.385 . S
C2670 C2669 1.374 . S
C2671 C2668 1.499 . S
C2671 C2672 1.373 . S
C2671 C2673 1.389 . S
C2672 H2645 0.950 . S
C2672 C2658 1.377 . S
C2672 C2671 1.373 . S
C2673 C2657 1.377 . S
C2673 C2671 1.389 . S
C2673 C2674 1.524 . S
C2674 C2673 1.524 . S
C2674 C2675 1.397 . S
C2674 C2679 1.363 . S
C2675 H2646 0.950 . S
C2675 C2674 1.397 . S
C2675 C2676 1.334 . S
C2676 H2647 0.950 . S
C2676 C2675 1.334 . S
C2676 C2677 1.287 . S
C2677 C2676 1.287 . S
C2677 C2678 1.524 . S
C2677 H2680 0.999 . S
C2678 H2648 0.950 . S
C2678 C2677 1.524 . S
C2678 C2679 1.415 . S
C2679 H2649 0.950 . S
C2679 C2674 1.363 . S
C2679 C2678 1.415 . S
H2680 C2677 0.999 . S
H2681 C2662 0.913 . S
H2682 C2700 0.951 . S
H2683 C2702 0.951 . S
H2684 C2704 0.950 . S
H2685 C2705 0.950 . S
H2686 C2707 0.950 . S
H2687 C2710 0.950 . S
H2688 C2711 0.950 . S
H2689 C2713 0.950 . S
H2690 C2714 0.950 . S
H2691 C2715 0.951 . S
H2692 C2717 0.951 . S
H2693 C2719 0.950 . S
H2694 C2720 0.950 . S
H2695 C2722 0.950 . S
H2696 C2725 0.950 . S
H2697 C2726 0.950 . S
H2698 C2728 0.950 . S
H2699 C2729 0.950 . S
C2700 H2682 0.951 . S
C2700 C2701 1.366 . S
C2700 C2702 1.388 . S
C2701 C2700 1.366 . S
C2701 C2705 1.385 . S
C2702 H2683 0.951 . S
C2702 C2700 1.388 . S
C2702 C2703 1.366 . S
C2703 C2702 1.366 . S
C2703 C2704 1.414 . S
C2703 C2706 1.499 . S
C2704 H2684 0.950 . S
C2704 C2703 1.414 . S
C2704 C2705 1.374 . S
C2705 H2685 0.950 . S
C2705 C2701 1.385 . S
C2705 C2704 1.374 . S
C2706 C2703 1.499 . S
C2706 C2707 1.373 . S
C2706 C2708 1.389 . S
C2707 H2686 0.950 . S
C2707 C2706 1.373 . S
C2707 C2723 1.377 . S
C2708 C2706 1.389 . S
C2708 C2709 1.524 . S
C2708 C2722 1.377 . S
C2709 C2708 1.524 . S
C2709 C2710 1.397 . S
C2709 C2714 1.363 . S
C2710 H2687 0.950 . S
C2710 C2709 1.397 . S
C2710 C2711 1.334 . S
C2711 H2688 0.950 . S
C2711 C2710 1.334 . S
C2711 C2712 1.287 . S
C2712 C2711 1.287 . S
C2712 C2713 1.524 . S
C2712 H2731 0.913 . S
C2713 H2689 0.950 . S
C2713 C2712 1.524 . S
C2713 C2714 1.415 . S
C2714 H2690 0.950 . S
C2714 C2709 1.363 . S
C2714 C2713 1.415 . S
C2715 H2691 0.951 . S
C2715 C2716 1.366 . S
C2715 C2717 1.388 . S
C2716 C2715 1.366 . S
C2716 C2720 1.385 . S
C2717 H2692 0.951 . S
C2717 C2715 1.388 . S
C2717 C2718 1.366 . S
C2718 C2717 1.366 . S
C2718 C2719 1.414 . S
C2718 C2721 1.499 . S
C2719 H2693 0.950 . S
C2719 C2718 1.414 . S
C2719 C2720 1.374 . S
C2720 H2694 0.950 . S
C2720 C2716 1.385 . S
C2720 C2719 1.374 . S
C2721 C2718 1.499 . S
C2721 C2722 1.373 . S
C2721 C2723 1.389 . S
C2722 H2695 0.950 . S
C2722 C2708 1.377 . S
C2722 C2721 1.373 . S
C2723 C2707 1.377 . S
C2723 C2721 1.389 . S
C2723 C2724 1.524 . S
C2724 C2723 1.524 . S
C2724 C2725 1.397 . S
C2724 C2729 1.363 . S
C2725 H2696 0.950 . S
C2725 C2724 1.397 . S
C2725 C2726 1.334 . S
C2726 H2697 0.950 . S
C2726 C2725 1.334 . S
C2726 C2727 1.287 . S
C2727 C2726 1.287 . S
C2727 C2728 1.524 . S
C2727 H2730 0.999 . S
C2728 H2698 0.950 . S
C2728 C2727 1.524 . S
C2728 C2729 1.415 . S
C2729 H2699 0.950 . S
C2729 C2724 1.363 . S
C2729 C2728 1.415 . S
H2730 C2727 0.999 . S
H2731 C2712 0.913 . S
H2732 C2750 0.951 . S
H2733 C2752 0.951 . S
H2734 C2754 0.950 . S
H2735 C2755 0.950 . S
H2736 C2757 0.950 . S
H2737 C2760 0.950 . S
H2738 C2761 0.950 . S
H2739 C2763 0.950 . S
H2740 C2764 0.950 . S
H2741 C2765 0.951 . S
H2742 C2767 0.951 . S
H2743 C2769 0.950 . S
H2744 C2770 0.950 . S
H2745 C2772 0.950 . S
H2746 C2775 0.950 . S
H2747 C2776 0.950 . S
H2748 C2778 0.950 . S
H2749 C2779 0.950 . S
C2750 H2732 0.951 . S
C2750 C2751 1.366 . S
C2750 C2752 1.388 . S
C2751 C2750 1.366 . S
C2751 C2755 1.385 . S
C2752 H2733 0.951 . S
C2752 C2750 1.388 . S
C2752 C2753 1.366 . S
C2753 C2752 1.366 . S
C2753 C2754 1.414 . S
C2753 C2756 1.499 . S
C2754 H2734 0.950 . S
C2754 C2753 1.414 . S
C2754 C2755 1.374 . S
C2755 H2735 0.950 . S
C2755 C2751 1.385 . S
C2755 C2754 1.374 . S
C2756 C2753 1.499 . S
C2756 C2757 1.373 . S
C2756 C2758 1.389 . S
C2757 H2736 0.950 . S
C2757 C2756 1.373 . S
C2757 C2773 1.377 . S
C2758 C2756 1.389 . S
C2758 C2759 1.524 . S
C2758 C2772 1.377 . S
C2759 C2758 1.524 . S
C2759 C2760 1.397 . S
C2759 C2764 1.363 . S
C2760 H2737 0.950 . S
C2760 C2759 1.397 . S
C2760 C2761 1.334 1_545 S
C2761 H2738 0.950 . S
C2761 C2760 1.334 1_565 S
C2761 C2762 1.287 . S
C2762 C2761 1.287 . S
C2762 C2763 1.524 . S
C2762 H2781 0.913 . S
C2763 H2739 0.950 . S
C2763 C2762 1.524 . S
C2763 C2764 1.415 1_565 S
C2764 H2740 0.950 . S
C2764 C2759 1.363 . S
C2764 C2763 1.415 1_545 S
C2765 H2741 0.951 . S
C2765 C2766 1.366 . S
C2765 C2767 1.388 . S
C2766 C2765 1.366 . S
C2766 C2770 1.385 . S
C2767 H2742 0.951 . S
C2767 C2765 1.388 . S
C2767 C2768 1.366 . S
C2768 C2767 1.366 . S
C2768 C2769 1.414 . S
C2768 C2771 1.499 . S
C2769 H2743 0.950 . S
C2769 C2768 1.414 . S
C2769 C2770 1.374 . S
C2770 H2744 0.950 . S
C2770 C2766 1.385 . S
C2770 C2769 1.374 . S
C2771 C2768 1.499 . S
C2771 C2772 1.373 . S
C2771 C2773 1.389 . S
C2772 H2745 0.950 . S
C2772 C2758 1.377 . S
C2772 C2771 1.373 . S
C2773 C2757 1.377 . S
C2773 C2771 1.389 . S
C2773 C2774 1.524 . S
C2774 C2773 1.524 . S
C2774 C2775 1.397 . S
C2774 C2779 1.363 . S
C2775 H2746 0.950 . S
C2775 C2774 1.397 . S
C2775 C2776 1.334 . S
C2776 H2747 0.950 . S
C2776 C2775 1.334 . S
C2776 C2777 1.287 . S
C2777 C2776 1.287 . S
C2777 C2778 1.524 . S
C2777 H2780 0.999 . S
C2778 H2748 0.950 . S
C2778 C2777 1.524 . S
C2778 C2779 1.415 . S
C2779 H2749 0.950 . S
C2779 C2774 1.363 . S
C2779 C2778 1.415 . S
H2780 C2777 0.999 . S
H2781 C2762 0.913 . S
H2782 C2800 0.951 . S
H2783 C2802 0.951 . S
H2784 C2804 0.950 . S
H2785 C2805 0.950 . S
H2786 C2807 0.950 . S
H2787 C2810 0.950 . S
H2788 C2811 0.950 . S
H2789 C2813 0.950 . S
H2790 C2814 0.950 . S
H2791 C2815 0.951 . S
H2792 C2817 0.951 . S
H2793 C2819 0.950 . S
H2794 C2820 0.950 . S
H2795 C2822 0.950 . S
H2796 C2825 0.950 . S
H2797 C2826 0.950 . S
H2798 C2828 0.950 . S
H2799 C2829 0.950 . S
C2800 H2782 0.951 . S
C2800 C2801 1.366 . S
C2800 C2802 1.388 . S
C2801 C2800 1.366 . S
C2801 C2805 1.385 . S
C2802 H2783 0.951 . S
C2802 C2800 1.388 . S
C2802 C2803 1.366 . S
C2803 C2802 1.366 . S
C2803 C2804 1.414 . S
C2803 C2806 1.499 . S
C2804 H2784 0.950 . S
C2804 C2803 1.414 . S
C2804 C2805 1.374 . S
C2805 H2785 0.950 . S
C2805 C2801 1.385 . S
C2805 C2804 1.374 . S
C2806 C2803 1.499 . S
C2806 C2807 1.373 . S
C2806 C2808 1.389 . S
C2807 H2786 0.950 . S
C2807 C2806 1.373 . S
C2807 C2823 1.377 . S
C2808 C2806 1.389 . S
C2808 C2809 1.524 . S
C2808 C2822 1.377 . S
C2809 C2808 1.524 . S
C2809 C2810 1.397 . S
C2809 C2814 1.363 . S
C2810 H2787 0.950 . S
C2810 C2809 1.397 . S
C2810 C2811 1.334 . S
C2811 H2788 0.950 . S
C2811 C2810 1.334 . S
C2811 C2812 1.287 . S
C2812 C2811 1.287 . S
C2812 C2813 1.524 . S
C2812 H2831 0.913 . S
C2813 H2789 0.950 . S
C2813 C2812 1.524 . S
C2813 C2814 1.415 . S
C2814 H2790 0.950 . S
C2814 C2809 1.363 . S
C2814 C2813 1.415 . S
C2815 H2791 0.951 . S
C2815 C2816 1.366 . S
C2815 C2817 1.388 . S
C2816 C2815 1.366 . S
C2816 C2820 1.385 . S
C2817 H2792 0.951 . S
C2817 C2815 1.388 . S
C2817 C2818 1.366 . S
C2818 C2817 1.366 . S
C2818 C2819 1.414 . S
C2818 C2821 1.499 . S
C2819 H2793 0.950 . S
C2819 C2818 1.414 . S
C2819 C2820 1.374 . S
C2820 H2794 0.950 . S
C2820 C2816 1.385 . S
C2820 C2819 1.374 . S
C2821 C2818 1.499 . S
C2821 C2822 1.373 . S
C2821 C2823 1.389 . S
C2822 H2795 0.950 . S
C2822 C2808 1.377 . S
C2822 C2821 1.373 . S
C2823 C2807 1.377 . S
C2823 C2821 1.389 . S
C2823 C2824 1.524 . S
C2824 C2823 1.524 . S
C2824 C2825 1.397 . S
C2824 C2829 1.363 . S
C2825 H2796 0.950 . S
C2825 C2824 1.397 . S
C2825 C2826 1.334 . S
C2826 H2797 0.950 . S
C2826 C2825 1.334 . S
C2826 C2827 1.287 . S
C2827 C2826 1.287 . S
C2827 C2828 1.524 . S
C2827 H2830 0.999 . S
C2828 H2798 0.950 . S
C2828 C2827 1.524 . S
C2828 C2829 1.415 . S
C2829 H2799 0.950 . S
C2829 C2824 1.363 . S
C2829 C2828 1.415 . S
H2830 C2827 0.999 . S
H2831 C2812 0.913 . S
H2832 C2850 0.951 . S
H2833 C2852 0.951 . S
H2834 C2854 0.950 . S
H2835 C2855 0.950 . S
H2836 C2857 0.950 . S
H2837 C2860 0.950 . S
H2838 C2861 0.950 . S
H2839 C2863 0.950 . S
H2840 C2864 0.950 . S
H2841 C2865 0.951 . S
H2842 C2867 0.951 . S
H2843 C2869 0.950 . S
H2844 C2870 0.950 . S
H2845 C2872 0.950 . S
H2846 C2875 0.950 . S
H2847 C2876 0.950 . S
H2848 C2878 0.950 . S
H2849 C2879 0.950 . S
C2850 H2832 0.951 . S
C2850 C2851 1.366 . S
C2850 C2852 1.388 . S
C2851 C2850 1.366 . S
C2851 C2855 1.385 . S
C2852 H2833 0.951 . S
C2852 C2850 1.388 . S
C2852 C2853 1.366 . S
C2853 C2852 1.366 . S
C2853 C2854 1.414 . S
C2853 C2856 1.499 . S
C2854 H2834 0.950 . S
C2854 C2853 1.414 . S
C2854 C2855 1.374 . S
C2855 H2835 0.950 . S
C2855 C2851 1.385 . S
C2855 C2854 1.374 . S
C2856 C2853 1.499 . S
C2856 C2857 1.373 . S
C2856 C2858 1.389 . S
C2857 H2836 0.950 . S
C2857 C2856 1.373 . S
C2857 C2873 1.377 . S
C2858 C2856 1.389 . S
C2858 C2859 1.524 . S
C2858 C2872 1.377 . S
C2859 C2858 1.524 . S
C2859 C2860 1.397 . S
C2859 C2864 1.363 . S
C2860 H2837 0.950 . S
C2860 C2859 1.397 . S
C2860 C2861 1.334 . S
C2861 H2838 0.950 . S
C2861 C2860 1.334 . S
C2861 C2862 1.287 . S
C2862 C2861 1.287 . S
C2862 C2863 1.524 . S
C2862 H2881 0.913 . S
C2863 H2839 0.950 . S
C2863 C2862 1.524 . S
C2863 C2864 1.415 . S
C2864 H2840 0.950 . S
C2864 C2859 1.363 . S
C2864 C2863 1.415 . S
C2865 H2841 0.951 . S
C2865 C2866 1.366 . S
C2865 C2867 1.388 . S
C2866 C2865 1.366 . S
C2866 C2870 1.385 . S
C2867 H2842 0.951 . S
C2867 C2865 1.388 . S
C2867 C2868 1.366 . S
C2868 C2867 1.366 . S
C2868 C2869 1.414 . S
C2868 C2871 1.499 . S
C2869 H2843 0.950 . S
C2869 C2868 1.414 . S
C2869 C2870 1.374 . S
C2870 H2844 0.950 . S
C2870 C2866 1.385 . S
C2870 C2869 1.374 . S
C2871 C2868 1.499 . S
C2871 C2872 1.373 . S
C2871 C2873 1.389 . S
C2872 H2845 0.950 . S
C2872 C2858 1.377 . S
C2872 C2871 1.373 . S
C2873 C2857 1.377 . S
C2873 C2871 1.389 . S
C2873 C2874 1.524 . S
C2874 C2873 1.524 . S
C2874 C2875 1.397 . S
C2874 C2879 1.363 . S
C2875 H2846 0.950 . S
C2875 C2874 1.397 . S
C2875 C2876 1.334 . S
C2876 H2847 0.950 . S
C2876 C2875 1.334 . S
C2876 C2877 1.287 . S
C2877 C2876 1.287 . S
C2877 C2878 1.524 . S
C2877 H2880 0.999 . S
C2878 H2848 0.950 . S
C2878 C2877 1.524 . S
C2878 C2879 1.415 . S
C2879 H2849 0.950 . S
C2879 C2874 1.363 . S
C2879 C2878 1.415 . S
H2880 C2877 0.999 . S
H2881 C2862 0.913 . S
H2882 C2900 0.951 . S
H2883 C2902 0.951 . S
H2884 C2904 0.950 . S
H2885 C2905 0.950 . S
H2886 C2907 0.950 . S
H2887 C2910 0.950 . S
H2888 C2911 0.950 . S
H2889 C2913 0.950 . S
H2890 C2914 0.950 1_545 S
H2891 C2915 0.951 . S
H2892 C2917 0.951 . S
H2893 C2919 0.950 . S
H2894 C2920 0.950 . S
H2895 C2922 1.003 . S
H2896 C2925 0.950 . S
H2897 C2926 0.950 . S
H2898 C2928 0.950 . S
H2899 C2929 0.950 . S
C2900 H2882 0.951 . S
C2900 C2901 1.366 . S
C2900 C2902 1.388 . S
C2901 C2900 1.366 . S
C2901 C2905 1.385 . S
C2902 H2883 0.951 . S
C2902 C2900 1.388 . S
C2902 C2903 1.366 . S
C2903 C2902 1.366 . S
C2903 C2904 1.414 . S
C2903 C2906 1.499 . S
C2904 H2884 0.950 . S
C2904 C2903 1.414 . S
C2904 C2905 1.374 . S
C2905 H2885 0.950 . S
C2905 C2901 1.385 . S
C2905 C2904 1.374 . S
C2906 C2903 1.499 . S
C2906 C2907 1.373 . S
C2906 C2908 1.389 . S
C2907 H2886 0.950 . S
C2907 C2906 1.373 . S
C2907 C2923 1.377 . S
C2908 C2906 1.389 . S
C2908 C2909 1.524 1_545 S
C2908 C2922 1.377 . S
C2909 C2908 1.524 1_565 S
C2909 C2910 1.397 . S
C2909 C2914 1.363 . S
C2910 H2887 0.950 . S
C2910 C2909 1.397 . S
C2910 C2911 1.334 . S
C2911 H2888 0.950 . S
C2911 C2910 1.334 . S
C2911 C2912 1.287 . S
C2912 C2911 1.287 . S
C2912 C2913 1.524 . S
C2912 H2931 0.913 . S
C2913 H2889 0.950 . S
C2913 C2912 1.524 . S
C2913 C2914 1.415 . S
C2914 H2890 0.950 1_565 S
C2914 C2909 1.363 . S
C2914 C2913 1.415 . S
C2915 H2891 0.951 . S
C2915 C2916 1.366 . S
C2915 C2917 1.388 . S
C2916 C2915 1.366 . S
C2916 C2920 1.385 . S
C2917 H2892 0.951 . S
C2917 C2915 1.388 . S
C2917 C2918 1.366 . S
C2918 C2917 1.366 . S
C2918 C2919 1.414 . S
C2918 C2921 1.499 . S
C2919 H2893 0.950 . S
C2919 C2918 1.414 . S
C2919 C2920 1.374 . S
C2920 H2894 0.950 . S
C2920 C2916 1.385 . S
C2920 C2919 1.374 . S
C2921 C2918 1.499 . S
C2921 C2922 1.373 . S
C2921 C2923 1.389 . S
C2922 H2895 1.003 . S
C2922 C2908 1.377 . S
C2922 C2921 1.373 . S
C2923 C2907 1.377 . S
C2923 C2921 1.389 . S
C2923 C2924 1.524 . S
C2924 C2923 1.524 . S
C2924 C2925 1.397 . S
C2924 C2929 1.363 . S
C2925 H2896 0.950 . S
C2925 C2924 1.397 . S
C2925 C2926 1.334 . S
C2926 H2897 0.950 . S
C2926 C2925 1.334 . S
C2926 C2927 1.287 . S
C2927 C2926 1.287 . S
C2927 C2928 1.524 . S
C2927 H2930 0.999 . S
C2928 H2898 0.950 . S
C2928 C2927 1.524 . S
C2928 C2929 1.415 . S
C2929 H2899 0.950 . S
C2929 C2924 1.363 . S
C2929 C2928 1.415 . S
H2930 C2927 0.999 . S
H2931 C2912 0.913 . S
H2932 C2950 0.951 . S
H2933 C2952 0.951 . S
H2934 C2954 0.950 . S
H2935 C2955 0.950 . S
H2936 C2957 0.950 . S
H2937 C2960 0.950 . S
H2938 C2961 0.950 . S
H2939 C2963 0.950 . S
H2940 C2964 0.950 . S
H2941 C2965 0.951 . S
H2942 C2967 0.951 . S
H2943 C2969 0.950 . S
H2944 C2970 0.950 . S
H2945 C2972 0.950 . S
H2946 C2975 0.950 . S
H2947 C2976 0.950 . S
H2948 C2978 0.950 . S
H2949 C2979 0.950 . S
C2950 H2932 0.951 . S
C2950 C2951 1.366 . S
C2950 C2952 1.388 . S
C2951 C2950 1.366 . S
C2951 C2955 1.385 . S
C2952 H2933 0.951 . S
C2952 C2950 1.388 . S
C2952 C2953 1.366 . S
C2953 C2952 1.366 . S
C2953 C2954 1.414 . S
C2953 C2956 1.499 . S
C2954 H2934 0.950 . S
C2954 C2953 1.414 . S
C2954 C2955 1.374 . S
C2955 H2935 0.950 . S
C2955 C2951 1.385 . S
C2955 C2954 1.374 . S
C2956 C2953 1.499 . S
C2956 C2957 1.373 . S
C2956 C2958 1.389 . S
C2957 H2936 0.950 . S
C2957 C2956 1.373 . S
C2957 C2973 1.377 . S
C2958 C2956 1.389 . S
C2958 C2959 1.524 . S
C2958 C2972 1.377 . S
C2959 C2958 1.524 . S
C2959 C2960 1.397 . S
C2959 C2964 1.363 . S
C2960 H2937 0.950 . S
C2960 C2959 1.397 . S
C2960 C2961 1.334 . S
C2961 H2938 0.950 . S
C2961 C2960 1.334 . S
C2961 C2962 1.287 . S
C2962 C2961 1.287 . S
C2962 C2963 1.524 . S
C2962 H2981 0.913 . S
C2963 H2939 0.950 . S
C2963 C2962 1.524 . S
C2963 C2964 1.415 . S
C2964 H2940 0.950 . S
C2964 C2959 1.363 . S
C2964 C2963 1.415 . S
C2965 H2941 0.951 . S
C2965 C2966 1.366 . S
C2965 C2967 1.388 . S
C2966 C2965 1.366 . S
C2966 C2970 1.385 . S
C2967 H2942 0.951 . S
C2967 C2965 1.388 . S
C2967 C2968 1.366 . S
C2968 C2967 1.366 . S
C2968 C2969 1.414 . S
C2968 C2971 1.499 . S
C2969 H2943 0.950 . S
C2969 C2968 1.414 . S
C2969 C2970 1.374 . S
C2970 H2944 0.950 . S
C2970 C2966 1.385 . S
C2970 C2969 1.374 . S
C2971 C2968 1.499 . S
C2971 C2972 1.373 . S
C2971 C2973 1.389 . S
C2972 H2945 0.950 . S
C2972 C2958 1.377 . S
C2972 C2971 1.373 . S
C2973 C2957 1.377 . S
C2973 C2971 1.389 . S
C2973 C2974 1.524 . S
C2974 C2973 1.524 . S
C2974 C2975 1.397 . S
C2974 C2979 1.363 . S
C2975 H2946 0.950 . S
C2975 C2974 1.397 . S
C2975 C2976 1.334 . S
C2976 H2947 0.950 . S
C2976 C2975 1.334 . S
C2976 C2977 1.287 . S
C2977 C2976 1.287 . S
C2977 C2978 1.524 . S
C2977 H2980 0.999 . S
C2978 H2948 0.950 . S
C2978 C2977 1.524 . S
C2978 C2979 1.415 . S
C2979 H2949 0.950 . S
C2979 C2974 1.363 . S
C2979 C2978 1.415 . S
H2980 C2977 0.999 . S
H2981 C2962 0.913 . S
H2982 C3000 0.951 . S
H2983 C3002 0.951 . S
H2984 C3004 0.950 . S
H2985 C3005 0.950 . S
H2986 C3007 0.950 . S
H2987 C3010 0.950 . S
H2988 C3011 0.950 . S
H2989 C3013 0.950 . S
H2990 C3014 0.950 . S
H2991 C3015 0.951 . S
H2992 C3017 0.951 . S
H2993 C3019 0.950 . S
H2994 C3020 0.950 . S
H2995 C3022 0.950 . S
H2996 C3025 0.950 . S
H2997 C3026 0.950 . S
H2998 C3028 0.950 . S
H2999 C3029 0.950 . S
C3000 H2982 0.951 . S
C3000 C3001 1.366 . S
C3000 C3002 1.388 . S
C3001 C3000 1.366 . S
C3001 C3005 1.385 . S
C3002 H2983 0.951 . S
C3002 C3000 1.388 . S
C3002 C3003 1.366 . S
C3003 C3002 1.366 . S
C3003 C3004 1.414 . S
C3003 C3006 1.499 . S
C3004 H2984 0.950 . S
C3004 C3003 1.414 . S
C3004 C3005 1.374 . S
C3005 H2985 0.950 . S
C3005 C3001 1.385 . S
C3005 C3004 1.374 . S
C3006 C3003 1.499 . S
C3006 C3007 1.373 . S
C3006 C3008 1.389 . S
C3007 H2986 0.950 . S
C3007 C3006 1.373 . S
C3007 C3023 1.377 . S
C3008 C3006 1.389 . S
C3008 C3009 1.524 . S
C3008 C3022 1.377 . S
C3009 C3008 1.524 . S
C3009 C3010 1.397 . S
C3009 C3014 1.363 . S
C3010 H2987 0.950 . S
C3010 C3009 1.397 . S
C3010 C3011 1.334 . S
C3011 H2988 0.950 . S
C3011 C3010 1.334 . S
C3011 C3012 1.287 . S
C3012 C3011 1.287 . S
C3012 C3013 1.524 . S
C3012 H3031 0.913 . S
C3013 H2989 0.950 . S
C3013 C3012 1.524 . S
C3013 C3014 1.415 . S
C3014 H2990 0.950 . S
C3014 C3009 1.363 . S
C3014 C3013 1.415 . S
C3015 H2991 0.951 . S
C3015 C3016 1.366 . S
C3015 C3017 1.388 . S
C3016 C3015 1.366 . S
C3016 C3020 1.385 . S
C3017 H2992 0.951 . S
C3017 C3015 1.388 . S
C3017 C3018 1.366 . S
C3018 C3017 1.366 . S
C3018 C3019 1.414 . S
C3018 C3021 1.499 . S
C3019 H2993 0.950 . S
C3019 C3018 1.414 . S
C3019 C3020 1.374 . S
C3020 H2994 0.950 . S
C3020 C3016 1.385 . S
C3020 C3019 1.374 . S
C3021 C3018 1.499 . S
C3021 C3022 1.373 . S
C3021 C3023 1.389 . S
C3022 H2995 0.950 . S
C3022 C3008 1.377 . S
C3022 C3021 1.373 . S
C3023 C3007 1.377 . S
C3023 C3021 1.389 . S
C3023 C3024 1.524 . S
C3024 C3023 1.524 . S
C3024 C3025 1.397 . S
C3024 C3029 1.363 . S
C3025 H2996 0.950 . S
C3025 C3024 1.397 . S
C3025 C3026 1.334 . S
C3026 H2997 0.950 . S
C3026 C3025 1.334 . S
C3026 C3027 1.287 . S
C3027 C3026 1.287 . S
C3027 C3028 1.524 . S
C3027 H3030 0.999 . S
C3028 H2998 0.950 . S
C3028 C3027 1.524 . S
C3028 C3029 1.415 . S
C3029 H2999 0.950 . S
C3029 C3024 1.363 . S
C3029 C3028 1.415 . S
H3030 C3027 0.999 . S
H3031 C3012 0.913 . S
H3032 C3050 0.951 . S
H3033 C3052 0.951 . S
H3034 C3054 0.950 . S
H3035 C3055 0.950 . S
H3036 C3057 0.950 . S
H3037 C3060 0.950 . S
H3038 C3061 0.950 . S
H3039 C3063 0.950 . S
H3040 C3064 0.950 . S
H3041 C3065 0.951 . S
H3042 C3067 0.951 . S
H3043 C3069 0.950 . S
H3044 C3070 0.950 . S
H3045 C3072 0.950 . S
H3046 C3075 0.950 . S
H3047 C3076 0.950 . S
H3048 C3078 0.950 . S
H3049 C3079 0.950 . S
C3050 H3032 0.951 . S
C3050 C3051 1.366 . S
C3050 C3052 1.388 . S
C3051 C3050 1.366 . S
C3051 C3055 1.385 . S
C3052 H3033 0.951 . S
C3052 C3050 1.388 . S
C3052 C3053 1.366 . S
C3053 C3052 1.366 . S
C3053 C3054 1.414 . S
C3053 C3056 1.499 . S
C3054 H3034 0.950 . S
C3054 C3053 1.414 . S
C3054 C3055 1.374 . S
C3055 H3035 0.950 . S
C3055 C3051 1.385 . S
C3055 C3054 1.374 . S
C3056 C3053 1.499 . S
C3056 C3057 1.373 . S
C3056 C3058 1.389 . S
C3057 H3036 0.950 . S
C3057 C3056 1.373 . S
C3057 C3073 1.377 . S
C3058 C3056 1.389 . S
C3058 C3059 1.524 . S
C3058 C3072 1.377 . S
C3059 C3058 1.524 . S
C3059 C3060 1.397 . S
C3059 C3064 1.363 . S
C3060 H3037 0.950 . S
C3060 C3059 1.397 . S
C3060 C3061 1.334 . S
C3061 H3038 0.950 . S
C3061 C3060 1.334 . S
C3061 C3062 1.287 . S
C3062 C3061 1.287 . S
C3062 C3063 1.524 . S
C3062 H3081 0.913 . S
C3063 H3039 0.950 . S
C3063 C3062 1.524 . S
C3063 C3064 1.415 . S
C3064 H3040 0.950 . S
C3064 C3059 1.363 . S
C3064 C3063 1.415 . S
C3065 H3041 0.951 . S
C3065 C3066 1.366 . S
C3065 C3067 1.388 . S
C3066 C3065 1.366 . S
C3066 C3070 1.385 . S
C3067 H3042 0.951 . S
C3067 C3065 1.388 . S
C3067 C3068 1.366 . S
C3068 C3067 1.366 . S
C3068 C3069 1.414 . S
C3068 C3071 1.499 . S
C3069 H3043 0.950 . S
C3069 C3068 1.414 . S
C3069 C3070 1.374 . S
C3070 H3044 0.950 . S
C3070 C3066 1.385 . S
C3070 C3069 1.374 . S
C3071 C3068 1.499 . S
C3071 C3072 1.373 . S
C3071 C3073 1.389 . S
C3072 H3045 0.950 . S
C3072 C3058 1.377 . S
C3072 C3071 1.373 . S
C3073 C3057 1.377 . S
C3073 C3071 1.389 . S
C3073 C3074 1.524 . S
C3074 C3073 1.524 . S
C3074 C3075 1.397 . S
C3074 C3079 1.363 . S
C3075 H3046 0.950 . S
C3075 C3074 1.397 . S
C3075 C3076 1.334 . S
C3076 H3047 0.950 . S
C3076 C3075 1.334 . S
C3076 C3077 1.287 . S
C3077 C3076 1.287 . S
C3077 C3078 1.524 . S
C3077 H3080 0.999 . S
C3078 H3048 0.950 . S
C3078 C3077 1.524 . S
C3078 C3079 1.415 . S
C3079 H3049 0.950 . S
C3079 C3074 1.363 . S
C3079 C3078 1.415 . S
H3080 C3077 0.999 . S
H3081 C3062 0.913 . S
H3082 C3100 0.951 1_455 S
H3083 C3102 0.951 . S
H3084 C3104 0.950 . S
H3085 C3105 0.950 . S
H3086 C3107 0.950 . S
H3087 C3110 0.950 . S
H3088 C3111 0.950 . S
H3089 C3113 0.950 1_455 S
H3090 C3114 0.947 . S
H3091 C3115 0.951 . S
H3092 C3117 0.951 . S
H3093 C3119 0.950 . S
H3094 C3120 0.950 . S
H3095 C3122 0.947 . S
H3096 C3125 0.950 . S
H3097 C3126 0.950 . S
H3098 C3128 0.950 . S
H3099 C3129 0.950 . S
C3100 H3082 0.951 1_655 S
C3100 C3101 1.366 . S
C3100 C3102 1.388 . S
C3101 C3100 1.366 . S
C3101 C3105 1.385 . S
C3102 H3083 0.951 . S
C3102 C3100 1.388 . S
C3102 C3103 1.366 . S
C3103 C3102 1.366 . S
C3103 C3104 1.414 . S
C3103 C3106 1.499 . S
C3104 H3084 0.950 . S
C3104 C3103 1.414 . S
C3104 C3105 1.374 . S
C3105 H3085 0.950 . S
C3105 C3101 1.385 . S
C3105 C3104 1.374 . S
C3106 C3103 1.499 . S
C3106 C3107 1.373 . S
C3106 C3108 1.389 . S
C3107 H3086 0.950 . S
C3107 C3106 1.373 . S
C3107 C3123 1.377 . S
C3108 C3106 1.389 . S
C3108 C3109 1.524 1_545 S
C3108 C3122 1.377 . S
C3109 C3108 1.524 1_565 S
C3109 C3110 1.397 . S
C3109 C3114 1.363 . S
C3110 H3087 0.950 . S
C3110 C3109 1.397 . S
C3110 C3111 1.334 . S
C3111 H3088 0.950 . S
C3111 C3110 1.334 . S
C3111 C3112 1.287 . S
C3112 C3111 1.287 . S
C3112 C3113 1.524 . S
C3112 H3131 0.866 1_655 S
C3113 H3089 0.950 1_655 S
C3113 C3112 1.524 . S
C3113 C3114 1.415 . S
C3114 H3090 0.947 . S
C3114 C3109 1.363 . S
C3114 C3113 1.415 . S
C3115 H3091 0.951 . S
C3115 C3116 1.366 . S
C3115 C3117 1.388 . S
C3116 C3115 1.366 . S
C3116 C3120 1.385 . S
C3117 H3092 0.951 . S
C3117 C3115 1.388 . S
C3117 C3118 1.366 . S
C3118 C3117 1.366 . S
C3118 C3119 1.414 . S
C3118 C3121 1.499 . S
C3119 H3093 0.950 . S
C3119 C3118 1.414 . S
C3119 C3120 1.374 . S
C3120 H3094 0.950 . S
C3120 C3116 1.385 . S
C3120 C3119 1.374 . S
C3121 C3118 1.499 . S
C3121 C3122 1.373 . S
C3121 C3123 1.389 . S
C3122 H3095 0.947 . S
C3122 C3108 1.377 . S
C3122 C3121 1.373 . S
C3123 C3107 1.377 . S
C3123 C3121 1.389 . S
C3123 C3124 1.524 . S
C3124 C3123 1.524 . S
C3124 C3125 1.397 . S
C3124 C3129 1.363 . S
C3125 H3096 0.950 . S
C3125 C3124 1.397 . S
C3125 C3126 1.334 . S
C3126 H3097 0.950 . S
C3126 C3125 1.334 . S
C3126 C3127 1.287 . S
C3127 C3126 1.287 . S
C3127 C3128 1.524 . S
C3127 H3130 0.999 . S
C3128 H3098 0.950 . S
C3128 C3127 1.524 . S
C3128 C3129 1.415 . S
C3129 H3099 0.950 . S
C3129 C3124 1.363 . S
C3129 C3128 1.415 . S
H3130 C3127 0.999 . S
H3131 C3112 0.866 1_455 S
H3132 C3150 0.951 . S
H3133 C3152 0.951 . S
H3134 C3154 0.950 . S
H3135 C3155 0.950 . S
H3136 C3157 0.950 . S
H3137 C3160 0.950 . S
H3138 C3161 0.950 . S
H3139 C3163 0.950 . S
H3140 C3164 0.950 . S
H3141 C3165 0.951 . S
H3142 C3167 0.951 . S
H3143 C3169 0.950 . S
H3144 C3170 0.950 . S
H3145 C3172 0.950 . S
H3146 C3175 0.950 . S
H3147 C3176 0.950 . S
H3148 C3178 0.950 . S
H3149 C3179 0.950 . S
C3150 H3132 0.951 . S
C3150 C3151 1.366 . S
C3150 C3152 1.388 . S
C3151 C3150 1.366 . S
C3151 C3155 1.385 . S
C3152 H3133 0.951 . S
C3152 C3150 1.388 . S
C3152 C3153 1.366 . S
C3153 C3152 1.366 . S
C3153 C3154 1.414 . S
C3153 C3156 1.499 . S
C3154 H3134 0.950 . S
C3154 C3153 1.414 . S
C3154 C3155 1.374 . S
C3155 H3135 0.950 . S
C3155 C3151 1.385 . S
C3155 C3154 1.374 . S
C3156 C3153 1.499 . S
C3156 C3157 1.373 . S
C3156 C3158 1.389 . S
C3157 H3136 0.950 . S
C3157 C3156 1.373 . S
C3157 C3173 1.377 . S
C3158 C3156 1.389 . S
C3158 C3159 1.524 . S
C3158 C3172 1.377 . S
C3159 C3158 1.524 . S
C3159 C3160 1.397 . S
C3159 C3164 1.363 . S
C3160 H3137 0.950 . S
C3160 C3159 1.397 . S
C3160 C3161 1.334 . S
C3161 H3138 0.950 . S
C3161 C3160 1.334 . S
C3161 C3162 1.287 . S
C3162 C3161 1.287 . S
C3162 C3163 1.524 . S
C3162 H3181 0.913 . S
C3163 H3139 0.950 . S
C3163 C3162 1.524 . S
C3163 C3164 1.415 . S
C3164 H3140 0.950 . S
C3164 C3159 1.363 . S
C3164 C3163 1.415 . S
C3165 H3141 0.951 . S
C3165 C3166 1.366 . S
C3165 C3167 1.388 . S
C3166 C3165 1.366 . S
C3166 C3170 1.385 . S
C3167 H3142 0.951 . S
C3167 C3165 1.388 . S
C3167 C3168 1.366 . S
C3168 C3167 1.366 . S
C3168 C3169 1.414 . S
C3168 C3171 1.499 . S
C3169 H3143 0.950 . S
C3169 C3168 1.414 . S
C3169 C3170 1.374 . S
C3170 H3144 0.950 . S
C3170 C3166 1.385 . S
C3170 C3169 1.374 . S
C3171 C3168 1.499 . S
C3171 C3172 1.373 . S
C3171 C3173 1.389 . S
C3172 H3145 0.950 . S
C3172 C3158 1.377 . S
C3172 C3171 1.373 . S
C3173 C3157 1.377 . S
C3173 C3171 1.389 . S
C3173 C3174 1.524 . S
C3174 C3173 1.524 . S
C3174 C3175 1.397 . S
C3174 C3179 1.363 . S
C3175 H3146 0.950 . S
C3175 C3174 1.397 . S
C3175 C3176 1.334 . S
C3176 H3147 0.950 . S
C3176 C3175 1.334 . S
C3176 C3177 1.287 . S
C3177 C3176 1.287 . S
C3177 C3178 1.524 . S
C3177 H3180 0.999 . S
C3178 H3148 0.950 . S
C3178 C3177 1.524 . S
C3178 C3179 1.415 . S
C3179 H3149 0.950 . S
C3179 C3174 1.363 . S
C3179 C3178 1.415 . S
H3180 C3177 0.999 . S
H3181 C3162 0.913 . S
H3182 C3200 0.951 1_655 S
H3183 C3202 0.951 . S
H3184 C3204 0.950 . S
H3185 C3205 0.950 . S
H3186 C3207 0.950 . S
H3187 C3210 0.950 . S
H3188 C3211 0.950 . S
H3189 C3213 0.950 . S
H3190 C3214 0.950 . S
H3191 C3215 0.951 . S
H3192 C3217 0.951 . S
H3193 C3219 0.950 . S
H3194 C3220 0.950 . S
H3195 C3222 0.950 . S
H3196 C3225 0.950 . S
H3197 C3226 0.950 . S
H3198 C3228 0.950 . S
H3199 C3229 0.950 . S
C3200 H3182 0.951 1_455 S
C3200 C3201 1.366 . S
C3200 C3202 1.388 . S
C3201 C3200 1.366 . S
C3201 C3205 1.385 . S
C3202 H3183 0.951 . S
C3202 C3200 1.388 . S
C3202 C3203 1.366 . S
C3203 C3202 1.366 . S
C3203 C3204 1.414 . S
C3203 C3206 1.499 . S
C3204 H3184 0.950 . S
C3204 C3203 1.414 . S
C3204 C3205 1.374 . S
C3205 H3185 0.950 . S
C3205 C3201 1.385 . S
C3205 C3204 1.374 . S
C3206 C3203 1.499 . S
C3206 C3207 1.373 . S
C3206 C3208 1.389 . S
C3207 H3186 0.950 . S
C3207 C3206 1.373 . S
C3207 C3223 1.377 . S
C3208 C3206 1.389 . S
C3208 C3209 1.524 . S
C3208 C3222 1.377 . S
C3209 C3208 1.524 . S
C3209 C3210 1.397 . S
C3209 C3214 1.363 . S
C3210 H3187 0.950 . S
C3210 C3209 1.397 . S
C3210 C3211 1.334 . S
C3211 H3188 0.950 . S
C3211 C3210 1.334 . S
C3211 C3212 1.287 1_455 S
C3212 C3211 1.287 1_655 S
C3212 C3213 1.524 . S
C3212 H3231 0.913 . S
C3213 H3189 0.950 . S
C3213 C3212 1.524 . S
C3213 C3214 1.415 1_655 S
C3214 H3190 0.950 . S
C3214 C3209 1.363 . S
C3214 C3213 1.415 1_455 S
C3215 H3191 0.951 . S
C3215 C3216 1.366 . S
C3215 C3217 1.388 . S
C3216 C3215 1.366 . S
C3216 C3220 1.385 . S
C3217 H3192 0.951 . S
C3217 C3215 1.388 . S
C3217 C3218 1.366 . S
C3218 C3217 1.366 . S
C3218 C3219 1.414 . S
C3218 C3221 1.499 . S
C3219 H3193 0.950 . S
C3219 C3218 1.414 . S
C3219 C3220 1.374 . S
C3220 H3194 0.950 . S
C3220 C3216 1.385 . S
C3220 C3219 1.374 . S
C3221 C3218 1.499 . S
C3221 C3222 1.373 . S
C3221 C3223 1.389 . S
C3222 H3195 0.950 . S
C3222 C3208 1.377 . S
C3222 C3221 1.373 . S
C3223 C3207 1.377 . S
C3223 C3221 1.389 . S
C3223 C3224 1.524 . S
C3224 C3223 1.524 . S
C3224 C3225 1.397 . S
C3224 C3229 1.363 . S
C3225 H3196 0.950 . S
C3225 C3224 1.397 . S
C3225 C3226 1.334 . S
C3226 H3197 0.950 . S
C3226 C3225 1.334 . S
C3226 C3227 1.287 . S
C3227 C3226 1.287 . S
C3227 C3228 1.524 . S
C3227 H3230 0.999 . S
C3228 H3198 0.950 . S
C3228 C3227 1.524 . S
C3228 C3229 1.415 . S
C3229 H3199 0.950 . S
C3229 C3224 1.363 . S
C3229 C3228 1.415 . S
H3230 C3227 0.999 . S
H3231 C3212 0.913 . S
H3232 C3250 0.951 . S
H3233 C3252 0.951 . S
H3234 C3254 0.950 . S
H3235 C3255 0.950 . S
H3236 C3257 0.950 . S
H3237 C3260 0.950 . S
H3238 C3261 0.950 . S
H3239 C3263 0.950 . S
H3240 C3264 0.950 . S
H3241 C3265 0.951 . S
H3242 C3267 0.951 . S
H3243 C3269 0.950 . S
H3244 C3270 0.950 . S
H3245 C3272 0.950 . S
H3246 C3275 0.950 . S
H3247 C3276 0.950 . S
H3248 C3278 0.950 . S
H3249 C3279 0.950 . S
C3250 H3232 0.951 . S
C3250 C3251 1.366 . S
C3250 C3252 1.388 . S
C3251 C3250 1.366 . S
C3251 C3255 1.385 . S
C3252 H3233 0.951 . S
C3252 C3250 1.388 . S
C3252 C3253 1.366 . S
C3253 C3252 1.366 . S
C3253 C3254 1.414 . S
C3253 C3256 1.499 . S
C3254 H3234 0.950 . S
C3254 C3253 1.414 . S
C3254 C3255 1.374 . S
C3255 H3235 0.950 . S
C3255 C3251 1.385 . S
C3255 C3254 1.374 . S
C3256 C3253 1.499 . S
C3256 C3257 1.373 . S
C3256 C3258 1.389 . S
C3257 H3236 0.950 . S
C3257 C3256 1.373 . S
C3257 C3273 1.377 . S
C3258 C3256 1.389 . S
C3258 C3259 1.524 . S
C3258 C3272 1.377 . S
C3259 C3258 1.524 . S
C3259 C3260 1.397 . S
C3259 C3264 1.363 . S
C3260 H3237 0.950 . S
C3260 C3259 1.397 . S
C3260 C3261 1.334 . S
C3261 H3238 0.950 . S
C3261 C3260 1.334 . S
C3261 C3262 1.287 . S
C3262 C3261 1.287 . S
C3262 C3263 1.524 . S
C3262 H3281 0.913 . S
C3263 H3239 0.950 . S
C3263 C3262 1.524 . S
C3263 C3264 1.415 . S
C3264 H3240 0.950 . S
C3264 C3259 1.363 . S
C3264 C3263 1.415 . S
C3265 H3241 0.951 . S
C3265 C3266 1.366 . S
C3265 C3267 1.388 . S
C3266 C3265 1.366 . S
C3266 C3270 1.385 . S
C3267 H3242 0.951 . S
C3267 C3265 1.388 . S
C3267 C3268 1.366 . S
C3268 C3267 1.366 . S
C3268 C3269 1.414 . S
C3268 C3271 1.499 . S
C3269 H3243 0.950 . S
C3269 C3268 1.414 . S
C3269 C3270 1.374 . S
C3270 H3244 0.950 . S
C3270 C3266 1.385 . S
C3270 C3269 1.374 . S
C3271 C3268 1.499 . S
C3271 C3272 1.373 . S
C3271 C3273 1.389 . S
C3272 H3245 0.950 . S
C3272 C3258 1.377 . S
C3272 C3271 1.373 . S
C3273 C3257 1.377 . S
C3273 C3271 1.389 . S
C3273 C3274 1.524 . S
C3274 C3273 1.524 . S
C3274 C3275 1.397 . S
C3274 C3279 1.363 . S
C3275 H3246 0.950 . S
C3275 C3274 1.397 . S
C3275 C3276 1.334 . S
C3276 H3247 0.950 . S
C3276 C3275 1.334 . S
C3276 C3277 1.287 . S
C3277 C3276 1.287 . S
C3277 C3278 1.524 . S
C3277 H3280 0.999 . S
C3278 H3248 0.950 . S
C3278 C3277 1.524 . S
C3278 C3279 1.415 . S
C3279 H3249 0.950 . S
C3279 C3274 1.363 . S
C3279 C3278 1.415 . S
H3280 C3277 0.999 . S
H3281 C3262 0.913 . S
H3282 C3300 0.951 . S
H3283 C3302 0.951 . S
H3284 C3304 0.922 1_455 S
H3285 C3305 0.950 . S
H3286 C3307 0.950 1_455 S
H3287 C3310 0.950 . S
H3288 C3311 0.950 1_554 S
H3289 C3313 0.950 . S
H3290 C3314 0.950 . S
H3291 C3315 1.014 . S
H3292 C3317 0.930 1_455 S
H3293 C3319 0.950 . S
H3294 C3320 0.950 . S
H3295 C3322 0.950 . S
H3296 C3325 0.917 1_655 S
H3297 C3326 0.950 . S
H3298 C3328 0.950 . S
H3299 C3329 0.950 . S
C3300 H3282 0.951 . S
C3300 C3301 1.366 . S
C3300 C3302 1.388 . S
C3301 C3300 1.366 . S
C3301 C3305 1.385 . S
C3302 H3283 0.951 . S
C3302 C3300 1.388 . S
C3302 C3303 1.366 . S
C3303 C3302 1.366 . S
C3303 C3304 1.414 . S
C3303 C3306 1.499 . S
C3304 H3284 0.922 1_655 S
C3304 C3303 1.414 . S
C3304 C3305 1.374 . S
C3305 H3285 0.950 . S
C3305 C3301 1.385 . S
C3305 C3304 1.374 . S
C3306 C3303 1.499 . S
C3306 C3307 1.373 . S
C3306 C3308 1.389 . S
C3307 H3286 0.950 1_655 S
C3307 C3306 1.373 . S
C3307 C3323 1.377 . S
C3308 C3306 1.389 . S
C3308 C3309 1.524 . S
C3308 C3322 1.377 . S
C3309 C3308 1.524 . S
C3309 C3310 1.397 . S
C3309 C3314 1.363 . S
C3310 H3287 0.950 . S
C3310 C3309 1.397 . S
C3310 C3311 1.334 . S
C3311 H3288 0.950 1_556 S
C3311 C3310 1.334 . S
C3311 C3312 1.287 . S
C3312 C3311 1.287 . S
C3312 C3313 1.524 . S
C3312 H3331 0.913 . S
C3313 H3289 0.950 . S
C3313 C3312 1.524 . S
C3313 C3314 1.415 . S
C3314 H3290 0.950 . S
C3314 C3309 1.363 . S
C3314 C3313 1.415 . S
C3315 H3291 1.014 . S
C3315 C3316 1.313 1_455 S
C3315 C3317 1.382 1_455 S
C3316 C3315 1.313 1_655 S
C3316 C3320 1.385 . S
C3317 H3292 0.930 1_655 S
C3317 C3315 1.382 1_655 S
C3317 C3318 1.389 . S
C3318 C3317 1.389 . S
C3318 C3319 1.414 . S
C3318 C3321 1.499 . S
C3319 H3293 0.950 . S
C3319 C3318 1.414 . S
C3319 C3320 1.374 . S
C3320 H3294 0.950 . S
C3320 C3316 1.385 . S
C3320 C3319 1.374 . S
C3321 C3318 1.499 . S
C3321 C3322 1.373 . S
C3321 C3323 1.389 . S
C3322 H3295 0.950 . S
C3322 C3308 1.377 . S
C3322 C3321 1.373 . S
C3323 C3307 1.377 . S
C3323 C3321 1.389 . S
C3323 C3324 1.524 1_655 S
C3324 C3323 1.524 1_455 S
C3324 C3325 1.397 . S
C3324 C3329 1.363 . S
C3325 H3296 0.917 1_455 S
C3325 C3324 1.397 . S
C3325 C3326 1.334 . S
C3326 H3297 0.950 . S
C3326 C3325 1.334 . S
C3326 C3327 1.287 . S
C3327 C3326 1.287 . S
C3327 C3328 1.524 . S
C3327 H3330 0.999 . S
C3328 H3298 0.950 . S
C3328 C3327 1.524 . S
C3328 C3329 1.415 . S
C3329 H3299 0.950 . S
C3329 C3324 1.363 . S
C3329 C3328 1.415 . S
H3330 C3327 0.999 . S
H3331 C3312 0.913 . S
H3332 C3350 0.951 . S
H3333 C3352 0.951 . S
H3334 C3354 0.950 . S
H3335 C3355 0.950 . S
H3336 C3357 0.950 . S
H3337 C3360 0.950 . S
H3338 C3361 0.950 . S
H3339 C3363 0.950 . S
H3340 C3364 0.950 . S
H3341 C3365 0.951 . S
H3342 C3367 0.951 . S
H3343 C3369 0.950 . S
H3344 C3370 0.950 . S
H3345 C3372 0.950 . S
H3346 C3375 0.950 . S
H3347 C3376 0.950 . S
H3348 C3378 0.950 . S
H3349 C3379 0.950 . S
C3350 H3332 0.951 . S
C3350 C3351 1.366 . S
C3350 C3352 1.388 . S
C3351 C3350 1.366 . S
C3351 C3355 1.385 . S
C3352 H3333 0.951 . S
C3352 C3350 1.388 . S
C3352 C3353 1.366 . S
C3353 C3352 1.366 . S
C3353 C3354 1.414 . S
C3353 C3356 1.499 . S
C3354 H3334 0.950 . S
C3354 C3353 1.414 . S
C3354 C3355 1.374 . S
C3355 H3335 0.950 . S
C3355 C3351 1.385 . S
C3355 C3354 1.374 . S
C3356 C3353 1.499 . S
C3356 C3357 1.373 . S
C3356 C3358 1.389 . S
C3357 H3336 0.950 . S
C3357 C3356 1.373 . S
C3357 C3373 1.377 . S
C3358 C3356 1.389 . S
C3358 C3359 1.524 . S
C3358 C3372 1.377 . S
C3359 C3358 1.524 . S
C3359 C3360 1.397 . S
C3359 C3364 1.363 . S
C3360 H3337 0.950 . S
C3360 C3359 1.397 . S
C3360 C3361 1.334 . S
C3361 H3338 0.950 . S
C3361 C3360 1.334 . S
C3361 C3362 1.287 . S
C3362 C3361 1.287 . S
C3362 C3363 1.524 . S
C3362 H3381 0.913 . S
C3363 H3339 0.950 . S
C3363 C3362 1.524 . S
C3363 C3364 1.415 . S
C3364 H3340 0.950 . S
C3364 C3359 1.363 . S
C3364 C3363 1.415 . S
C3365 H3341 0.951 . S
C3365 C3366 1.366 . S
C3365 C3367 1.388 . S
C3366 C3365 1.366 . S
C3366 C3370 1.385 . S
C3367 H3342 0.951 . S
C3367 C3365 1.388 . S
C3367 C3368 1.366 . S
C3368 C3367 1.366 . S
C3368 C3369 1.414 . S
C3368 C3371 1.499 . S
C3369 H3343 0.950 . S
C3369 C3368 1.414 . S
C3369 C3370 1.374 . S
C3370 H3344 0.950 . S
C3370 C3366 1.385 . S
C3370 C3369 1.374 . S
C3371 C3368 1.499 . S
C3371 C3372 1.373 . S
C3371 C3373 1.389 . S
C3372 H3345 0.950 . S
C3372 C3358 1.377 . S
C3372 C3371 1.373 . S
C3373 C3357 1.377 . S
C3373 C3371 1.389 . S
C3373 C3374 1.524 . S
C3374 C3373 1.524 . S
C3374 C3375 1.397 . S
C3374 C3379 1.363 . S
C3375 H3346 0.950 . S
C3375 C3374 1.397 . S
C3375 C3376 1.334 . S
C3376 H3347 0.950 . S
C3376 C3375 1.334 . S
C3376 C3377 1.287 . S
C3377 C3376 1.287 . S
C3377 C3378 1.524 . S
C3377 H3380 0.999 . S
C3378 H3348 0.950 . S
C3378 C3377 1.524 . S
C3378 C3379 1.415 . S
C3379 H3349 0.950 . S
C3379 C3374 1.363 . S
C3379 C3378 1.415 . S
H3380 C3377 0.999 . S
H3381 C3362 0.913 . S
H3382 C3400 0.951 . S
H3383 C3402 0.951 . S
H3384 C3404 0.950 1_655 S
H3385 C3405 0.950 . S
H3386 C3407 0.950 . S
H3387 C3410 0.950 . S
H3388 C3411 0.950 . S
H3389 C3413 0.934 1_554 S
H3390 C3414 0.950 . S
H3391 C3415 0.951 . S
H3392 C3417 0.927 1_655 S
H3393 C3419 0.950 . S
H3394 C3420 0.950 . S
H3395 C3422 0.950 . S
H3396 C3425 0.950 . S
H3397 C3426 0.950 . S
H3398 C3428 0.950 . S
H3399 C3429 0.950 . S
C3400 H3382 0.951 . S
C3400 C3401 1.366 . S
C3400 C3402 1.388 . S
C3401 C3400 1.366 . S
C3401 C3405 1.385 . S
C3402 H3383 0.951 . S
C3402 C3400 1.388 . S
C3402 C3403 1.366 . S
C3403 C3402 1.366 . S
C3403 C3404 1.414 . S
C3403 C3406 1.499 . S
C3404 H3384 0.950 1_455 S
C3404 C3403 1.414 . S
C3404 C3405 1.374 . S
C3405 H3385 0.950 . S
C3405 C3401 1.385 . S
C3405 C3404 1.374 . S
C3406 C3403 1.499 . S
C3406 C3407 1.373 . S
C3406 C3408 1.389 . S
C3407 H3386 0.950 . S
C3407 C3406 1.373 . S
C3407 C3423 1.377 . S
C3408 C3406 1.389 . S
C3408 C3409 1.524 . S
C3408 C3422 1.377 . S
C3409 C3408 1.524 . S
C3409 C3410 1.397 . S
C3409 C3414 1.363 . S
C3410 H3387 0.950 . S
C3410 C3409 1.397 . S
C3410 C3411 1.334 1_556 S
C3411 H3388 0.950 . S
C3411 C3410 1.334 1_554 S
C3411 C3412 1.287 . S
C3412 C3411 1.287 . S
C3412 C3413 1.479 1_554 S
C3412 H3431 0.913 . S
C3413 H3389 0.934 1_556 S
C3413 C3412 1.479 1_556 S
C3413 C3414 1.481 . S
C3414 H3390 0.950 . S
C3414 C3409 1.363 . S
C3414 C3413 1.481 . S
C3415 H3391 0.951 . S
C3415 C3416 1.366 1_655 S
C3415 C3417 1.385 1_655 S
C3416 C3415 1.366 1_455 S
C3416 C3420 1.385 . S
C3417 H3392 0.927 1_455 S
C3417 C3415 1.385 1_455 S
C3417 C3418 1.393 . S
C3418 C3417 1.393 . S
C3418 C3419 1.414 . S
C3418 C3421 1.499 . S
C3419 H3393 0.950 . S
C3419 C3418 1.414 . S
C3419 C3420 1.374 . S
C3420 H3394 0.950 . S
C3420 C3416 1.385 . S
C3420 C3419 1.374 . S
C3421 C3418 1.499 . S
C3421 C3422 1.373 . S
C3421 C3423 1.389 . S
C3422 H3395 0.950 . S
C3422 C3408 1.377 . S
C3422 C3421 1.373 . S
C3423 C3407 1.377 . S
C3423 C3421 1.389 . S
C3423 C3424 1.524 . S
C3424 C3423 1.524 . S
C3424 C3425 1.397 . S
C3424 C3429 1.363 1_455 S
C3425 H3396 0.950 . S
C3425 C3424 1.397 . S
C3425 C3426 1.334 . S
C3426 H3397 0.950 . S
C3426 C3425 1.334 . S
C3426 C3427 1.342 . S
C3427 C3426 1.342 . S
C3427 C3428 1.479 1_455 S
C3427 H3430 0.982 1_455 S
C3428 H3398 0.950 . S
C3428 C3427 1.479 1_655 S
C3428 C3429 1.415 . S
C3429 H3399 0.950 . S
C3429 C3424 1.363 1_655 S
C3429 C3428 1.415 . S
H3430 C3427 0.982 1_655 S
H3431 C3412 0.913 . S
H3432 C3450 0.951 . S
H3433 C3452 0.951 . S
H3434 C3454 0.950 . S
H3435 C3455 0.950 . S
H3436 C3457 0.950 . S
H3437 C3460 0.950 . S
H3438 C3461 0.950 . S
H3439 C3463 0.950 . S
H3440 C3464 0.950 . S
H3441 C3465 0.951 . S
H3442 C3467 0.951 . S
H3443 C3469 0.950 . S
H3444 C3470 0.950 . S
H3445 C3472 0.950 . S
H3446 C3475 0.950 . S
H3447 C3476 0.950 . S
H3448 C3478 0.950 . S
H3449 C3479 0.950 . S
C3450 H3432 0.951 . S
C3450 C3451 1.366 . S
C3450 C3452 1.388 . S
C3451 C3450 1.366 . S
C3451 C3455 1.385 . S
C3452 H3433 0.951 . S
C3452 C3450 1.388 . S
C3452 C3453 1.366 . S
C3453 C3452 1.366 . S
C3453 C3454 1.414 . S
C3453 C3456 1.499 . S
C3454 H3434 0.950 . S
C3454 C3453 1.414 . S
C3454 C3455 1.374 . S
C3455 H3435 0.950 . S
C3455 C3451 1.385 . S
C3455 C3454 1.374 . S
C3456 C3453 1.499 . S
C3456 C3457 1.373 . S
C3456 C3458 1.389 . S
C3457 H3436 0.950 . S
C3457 C3456 1.373 . S
C3457 C3473 1.377 . S
C3458 C3456 1.389 . S
C3458 C3459 1.524 . S
C3458 C3472 1.377 . S
C3459 C3458 1.524 . S
C3459 C3460 1.397 . S
C3459 C3464 1.363 . S
C3460 H3437 0.950 . S
C3460 C3459 1.397 . S
C3460 C3461 1.334 . S
C3461 H3438 0.950 . S
C3461 C3460 1.334 . S
C3461 C3462 1.287 . S
C3462 C3461 1.287 . S
C3462 C3463 1.524 . S
C3462 H3481 0.913 . S
C3463 H3439 0.950 . S
C3463 C3462 1.524 . S
C3463 C3464 1.415 . S
C3464 H3440 0.950 . S
C3464 C3459 1.363 . S
C3464 C3463 1.415 . S
C3465 H3441 0.951 . S
C3465 C3466 1.366 . S
C3465 C3467 1.388 . S
C3466 C3465 1.366 . S
C3466 C3470 1.385 . S
C3467 H3442 0.951 . S
C3467 C3465 1.388 . S
C3467 C3468 1.366 . S
C3468 C3467 1.366 . S
C3468 C3469 1.414 . S
C3468 C3471 1.499 . S
C3469 H3443 0.950 . S
C3469 C3468 1.414 . S
C3469 C3470 1.374 . S
C3470 H3444 0.950 . S
C3470 C3466 1.385 . S
C3470 C3469 1.374 . S
C3471 C3468 1.499 . S
C3471 C3472 1.373 . S
C3471 C3473 1.389 . S
C3472 H3445 0.950 . S
C3472 C3458 1.377 . S
C3472 C3471 1.373 . S
C3473 C3457 1.377 . S
C3473 C3471 1.389 . S
C3473 C3474 1.524 . S
C3474 C3473 1.524 . S
C3474 C3475 1.397 . S
C3474 C3479 1.363 . S
C3475 H3446 0.950 . S
C3475 C3474 1.397 . S
C3475 C3476 1.334 . S
C3476 H3447 0.950 . S
C3476 C3475 1.334 . S
C3476 C3477 1.287 . S
C3477 C3476 1.287 . S
C3477 C3478 1.524 . S
C3477 H3480 0.999 . S
C3478 H3448 0.950 . S
C3478 C3477 1.524 . S
C3478 C3479 1.415 . S
C3479 H3449 0.950 . S
C3479 C3474 1.363 . S
C3479 C3478 1.415 . S
H3480 C3477 0.999 . S
H3481 C3462 0.913 . S
H3482 C3500 0.924 1_556 S
H3483 C3502 0.951 . S
H3484 C3504 0.950 . S
H3485 C3505 0.950 . S
H3486 C3507 0.950 . S
H3487 C3510 0.950 . S
H3488 C3511 0.950 . S
H3489 C3513 0.950 . S
H3490 C3514 0.950 . S
H3491 C3515 0.951 . S
H3492 C3517 0.951 . S
H3493 C3519 0.950 . S
H3494 C3520 0.950 . S
H3495 C3522 0.950 . S
H3496 C3525 0.950 . S
H3497 C3526 0.950 . S
H3498 C3528 0.950 . S
H3499 C3529 0.950 . S
C3500 H3482 0.924 1_554 S
C3500 C3501 1.366 . S
C3500 C3502 1.388 . S
C3501 C3500 1.366 . S
C3501 C3505 1.385 . S
C3502 H3483 0.951 . S
C3502 C3500 1.388 . S
C3502 C3503 1.366 . S
C3503 C3502 1.366 . S
C3503 C3504 1.414 . S
C3503 C3506 1.499 . S
C3504 H3484 0.950 . S
C3504 C3503 1.414 . S
C3504 C3505 1.374 . S
C3505 H3485 0.950 . S
C3505 C3501 1.385 . S
C3505 C3504 1.374 . S
C3506 C3503 1.499 . S
C3506 C3507 1.373 . S
C3506 C3508 1.389 . S
C3507 H3486 0.950 . S
C3507 C3506 1.373 . S
C3507 C3523 1.377 . S
C3508 C3506 1.389 . S
C3508 C3509 1.524 . S
C3508 C3522 1.377 . S
C3509 C3508 1.524 . S
C3509 C3510 1.397 . S
C3509 C3514 1.363 . S
C3510 H3487 0.950 . S
C3510 C3509 1.397 . S
C3510 C3511 1.334 . S
C3511 H3488 0.950 . S
C3511 C3510 1.334 . S
C3511 C3512 1.287 . S
C3512 C3511 1.287 . S
C3512 C3513 1.524 . S
C3512 H3531 0.913 . S
C3513 H3489 0.950 . S
C3513 C3512 1.524 . S
C3513 C3514 1.415 . S
C3514 H3490 0.950 . S
C3514 C3509 1.363 . S
C3514 C3513 1.415 . S
C3515 H3491 0.951 . S
C3515 C3516 1.366 . S
C3515 C3517 1.388 . S
C3516 C3515 1.366 . S
C3516 C3520 1.385 . S
C3517 H3492 0.951 . S
C3517 C3515 1.388 . S
C3517 C3518 1.366 . S
C3518 C3517 1.366 . S
C3518 C3519 1.414 . S
C3518 C3521 1.499 . S
C3519 H3493 0.950 . S
C3519 C3518 1.414 . S
C3519 C3520 1.374 . S
C3520 H3494 0.950 . S
C3520 C3516 1.385 . S
C3520 C3519 1.374 . S
C3521 C3518 1.499 . S
C3521 C3522 1.373 . S
C3521 C3523 1.389 . S
C3522 H3495 0.950 . S
C3522 C3508 1.377 . S
C3522 C3521 1.373 . S
C3523 C3507 1.377 . S
C3523 C3521 1.389 . S
C3523 C3524 1.524 . S
C3524 C3523 1.524 . S
C3524 C3525 1.397 . S
C3524 C3529 1.363 . S
C3525 H3496 0.950 . S
C3525 C3524 1.397 . S
C3525 C3526 1.334 . S
C3526 H3497 0.950 . S
C3526 C3525 1.334 . S
C3526 C3527 1.287 . S
C3527 C3526 1.287 . S
C3527 C3528 1.524 . S
C3527 H3530 0.999 . S
C3528 H3498 0.950 . S
C3528 C3527 1.524 . S
C3528 C3529 1.415 . S
C3529 H3499 0.950 . S
C3529 C3524 1.363 . S
C3529 C3528 1.415 . S
H3530 C3527 0.999 . S
H3531 C3512 0.913 . S
H3532 C3550 0.951 . S
H3533 C3552 0.951 . S
H3534 C3554 0.950 . S
H3535 C3555 0.950 . S
H3536 C3557 0.950 . S
H3537 C3560 0.950 . S
H3538 C3561 0.950 . S
H3539 C3563 0.950 . S
H3540 C3564 0.950 . S
H3541 C3565 0.951 . S
H3542 C3567 0.951 . S
H3543 C3569 0.950 . S
H3544 C3570 0.950 . S
H3545 C3572 0.950 . S
H3546 C3575 0.950 . S
H3547 C3576 0.950 . S
H3548 C3578 0.950 . S
H3549 C3579 0.950 . S
C3550 H3532 0.951 . S
C3550 C3551 1.366 . S
C3550 C3552 1.388 . S
C3551 C3550 1.366 . S
C3551 C3555 1.385 . S
C3552 H3533 0.951 . S
C3552 C3550 1.388 . S
C3552 C3553 1.366 . S
C3553 C3552 1.366 . S
C3553 C3554 1.414 . S
C3553 C3556 1.499 . S
C3554 H3534 0.950 . S
C3554 C3553 1.414 . S
C3554 C3555 1.374 . S
C3555 H3535 0.950 . S
C3555 C3551 1.385 . S
C3555 C3554 1.374 . S
C3556 C3553 1.499 . S
C3556 C3557 1.373 . S
C3556 C3558 1.389 . S
C3557 H3536 0.950 . S
C3557 C3556 1.373 . S
C3557 C3573 1.377 . S
C3558 C3556 1.389 . S
C3558 C3559 1.524 . S
C3558 C3572 1.377 . S
C3559 C3558 1.524 . S
C3559 C3560 1.397 . S
C3559 C3564 1.363 . S
C3560 H3537 0.950 . S
C3560 C3559 1.397 . S
C3560 C3561 1.334 . S
C3561 H3538 0.950 . S
C3561 C3560 1.334 . S
C3561 C3562 1.287 . S
C3562 C3561 1.287 . S
C3562 C3563 1.524 . S
C3562 H3581 0.913 . S
C3563 H3539 0.950 . S
C3563 C3562 1.524 . S
C3563 C3564 1.415 . S
C3564 H3540 0.950 . S
C3564 C3559 1.363 . S
C3564 C3563 1.415 . S
C3565 H3541 0.951 . S
C3565 C3566 1.366 . S
C3565 C3567 1.388 . S
C3566 C3565 1.366 . S
C3566 C3570 1.385 . S
C3567 H3542 0.951 . S
C3567 C3565 1.388 . S
C3567 C3568 1.366 . S
C3568 C3567 1.366 . S
C3568 C3569 1.414 . S
C3568 C3571 1.499 . S
C3569 H3543 0.950 . S
C3569 C3568 1.414 . S
C3569 C3570 1.374 . S
C3570 H3544 0.950 . S
C3570 C3566 1.385 . S
C3570 C3569 1.374 . S
C3571 C3568 1.499 . S
C3571 C3572 1.373 . S
C3571 C3573 1.389 . S
C3572 H3545 0.950 . S
C3572 C3558 1.377 . S
C3572 C3571 1.373 . S
C3573 C3557 1.377 . S
C3573 C3571 1.389 . S
C3573 C3574 1.524 . S
C3574 C3573 1.524 . S
C3574 C3575 1.397 . S
C3574 C3579 1.363 . S
C3575 H3546 0.950 . S
C3575 C3574 1.397 . S
C3575 C3576 1.334 . S
C3576 H3547 0.950 . S
C3576 C3575 1.334 . S
C3576 C3577 1.287 . S
C3577 C3576 1.287 . S
C3577 C3578 1.524 . S
C3577 H3580 0.999 . S
C3578 H3548 0.950 . S
C3578 C3577 1.524 . S
C3578 C3579 1.415 . S
C3579 H3549 0.950 . S
C3579 C3574 1.363 . S
C3579 C3578 1.415 . S
H3580 C3577 0.999 . S
H3581 C3562 0.913 . S
H3582 C3600 0.951 1_556 S
H3583 C3602 0.951 . S
H3584 C3604 0.950 . S
H3585 C3605 0.950 . S
H3586 C3607 0.950 . S
H3587 C3610 0.950 . S
H3588 C3611 0.950 . S
H3589 C3613 0.950 . S
H3590 C3614 0.950 . S
H3591 C3615 0.951 . S
H3592 C3617 0.951 . S
H3593 C3619 0.950 . S
H3594 C3620 0.950 . S
H3595 C3622 0.950 . S
H3596 C3625 0.950 . S
H3597 C3626 0.950 . S
H3598 C3628 0.950 . S
H3599 C3629 0.950 . S
C3600 H3582 0.951 1_554 S
C3600 C3601 1.366 . S
C3600 C3602 1.388 . S
C3601 C3600 1.366 . S
C3601 C3605 1.385 . S
C3602 H3583 0.951 . S
C3602 C3600 1.388 . S
C3602 C3603 1.366 . S
C3603 C3602 1.366 . S
C3603 C3604 1.414 . S
C3603 C3606 1.499 . S
C3604 H3584 0.950 . S
C3604 C3603 1.414 . S
C3604 C3605 1.374 . S
C3605 H3585 0.950 . S
C3605 C3601 1.385 . S
C3605 C3604 1.374 . S
C3606 C3603 1.499 . S
C3606 C3607 1.373 . S
C3606 C3608 1.389 . S
C3607 H3586 0.950 . S
C3607 C3606 1.373 . S
C3607 C3623 1.377 . S
C3608 C3606 1.389 . S
C3608 C3609 1.524 . S
C3608 C3622 1.377 . S
C3609 C3608 1.524 . S
C3609 C3610 1.397 . S
C3609 C3614 1.363 . S
C3610 H3587 0.950 . S
C3610 C3609 1.397 . S
C3610 C3611 1.334 . S
C3611 H3588 0.950 . S
C3611 C3610 1.334 . S
C3611 C3612 1.287 . S
C3612 C3611 1.287 . S
C3612 C3613 1.524 . S
C3612 H3631 0.913 . S
C3613 H3589 0.950 . S
C3613 C3612 1.524 . S
C3613 C3614 1.415 . S
C3614 H3590 0.950 . S
C3614 C3609 1.363 . S
C3614 C3613 1.415 . S
C3615 H3591 0.951 . S
C3615 C3616 1.366 . S
C3615 C3617 1.388 . S
C3616 C3615 1.366 . S
C3616 C3620 1.385 . S
C3617 H3592 0.951 . S
C3617 C3615 1.388 . S
C3617 C3618 1.366 . S
C3618 C3617 1.366 . S
C3618 C3619 1.414 . S
C3618 C3621 1.499 . S
C3619 H3593 0.950 . S
C3619 C3618 1.414 . S
C3619 C3620 1.374 . S
C3620 H3594 0.950 . S
C3620 C3616 1.385 . S
C3620 C3619 1.374 . S
C3621 C3618 1.499 . S
C3621 C3622 1.373 . S
C3621 C3623 1.389 . S
C3622 H3595 0.950 . S
C3622 C3608 1.377 . S
C3622 C3621 1.373 . S
C3623 C3607 1.377 . S
C3623 C3621 1.389 . S
C3623 C3624 1.524 . S
C3624 C3623 1.524 . S
C3624 C3625 1.397 . S
C3624 C3629 1.363 . S
C3625 H3596 0.950 . S
C3625 C3624 1.397 . S
C3625 C3626 1.334 . S
C3626 H3597 0.950 . S
C3626 C3625 1.334 . S
C3626 C3627 1.287 . S
C3627 C3626 1.287 . S
C3627 C3628 1.524 . S
C3627 H3630 0.999 . S
C3628 H3598 0.950 . S
C3628 C3627 1.524 . S
C3628 C3629 1.415 . S
C3629 H3599 0.950 . S
C3629 C3624 1.363 . S
C3629 C3628 1.415 . S
H3630 C3627 0.999 . S
H3631 C3612 0.913 . S
H3632 C3650 0.951 . S
H3633 C3652 0.951 . S
H3634 C3654 0.950 . S
H3635 C3655 0.950 . S
H3636 C3657 0.950 . S
H3637 C3660 0.950 . S
H3638 C3661 0.950 . S
H3639 C3663 0.950 . S
H3640 C3664 0.950 . S
H3641 C3665 0.951 . S
H3642 C3667 0.951 . S
H3643 C3669 0.950 . S
H3644 C3670 0.950 . S
H3645 C3672 0.950 . S
H3646 C3675 0.950 . S
H3647 C3676 0.950 . S
H3648 C3678 0.950 . S
H3649 C3679 0.950 . S
C3650 H3632 0.951 . S
C3650 C3651 1.366 . S
C3650 C3652 1.388 . S
C3651 C3650 1.366 . S
C3651 C3655 1.385 . S
C3652 H3633 0.951 . S
C3652 C3650 1.388 . S
C3652 C3653 1.366 . S
C3653 C3652 1.366 . S
C3653 C3654 1.414 . S
C3653 C3656 1.499 . S
C3654 H3634 0.950 . S
C3654 C3653 1.414 . S
C3654 C3655 1.374 . S
C3655 H3635 0.950 . S
C3655 C3651 1.385 . S
C3655 C3654 1.374 . S
C3656 C3653 1.499 . S
C3656 C3657 1.373 . S
C3656 C3658 1.389 . S
C3657 H3636 0.950 . S
C3657 C3656 1.373 . S
C3657 C3673 1.377 . S
C3658 C3656 1.389 . S
C3658 C3659 1.524 . S
C3658 C3672 1.377 . S
C3659 C3658 1.524 . S
C3659 C3660 1.397 . S
C3659 C3664 1.363 . S
C3660 H3637 0.950 . S
C3660 C3659 1.397 . S
C3660 C3661 1.334 . S
C3661 H3638 0.950 . S
C3661 C3660 1.334 . S
C3661 C3662 1.287 . S
C3662 C3661 1.287 . S
C3662 C3663 1.524 . S
C3662 H3681 0.913 . S
C3663 H3639 0.950 . S
C3663 C3662 1.524 . S
C3663 C3664 1.415 . S
C3664 H3640 0.950 . S
C3664 C3659 1.363 . S
C3664 C3663 1.415 . S
C3665 H3641 0.951 . S
C3665 C3666 1.366 . S
C3665 C3667 1.388 . S
C3666 C3665 1.366 . S
C3666 C3670 1.385 . S
C3667 H3642 0.951 . S
C3667 C3665 1.388 . S
C3667 C3668 1.366 . S
C3668 C3667 1.366 . S
C3668 C3669 1.414 . S
C3668 C3671 1.499 . S
C3669 H3643 0.950 . S
C3669 C3668 1.414 . S
C3669 C3670 1.374 . S
C3670 H3644 0.950 . S
C3670 C3666 1.385 . S
C3670 C3669 1.374 . S
C3671 C3668 1.499 . S
C3671 C3672 1.373 . S
C3671 C3673 1.389 . S
C3672 H3645 0.950 . S
C3672 C3658 1.377 . S
C3672 C3671 1.373 . S
C3673 C3657 1.377 . S
C3673 C3671 1.389 . S
C3673 C3674 1.524 . S
C3674 C3673 1.524 . S
C3674 C3675 1.397 . S
C3674 C3679 1.363 . S
C3675 H3646 0.950 . S
C3675 C3674 1.397 . S
C3675 C3676 1.334 . S
C3676 H3647 0.950 . S
C3676 C3675 1.334 . S
C3676 C3677 1.287 . S
C3677 C3676 1.287 . S
C3677 C3678 1.524 . S
C3677 H3680 0.999 . S
C3678 H3648 0.950 . S
C3678 C3677 1.524 . S
C3678 C3679 1.415 . S
C3679 H3649 0.950 . S
C3679 C3674 1.363 . S
C3679 C3678 1.415 . S
H3680 C3677 0.999 . S
H3681 C3662 0.913 . S
H3682 C3700 0.951 . S
H3683 C3702 0.951 . S
H3684 C3704 0.950 . S
H3685 C3705 0.950 . S
H3686 C3707 0.950 . S
H3687 C3710 0.950 . S
H3688 C3711 0.950 . S
H3689 C3713 0.950 . S
H3690 C3714 0.950 . S
H3691 C3715 0.951 . S
H3692 C3717 0.951 . S
H3693 C3719 0.950 . S
H3694 C3720 0.950 . S
H3695 C3722 0.950 . S
H3696 C3725 0.950 . S
H3697 C3726 0.950 . S
H3698 C3728 0.950 . S
H3699 C3729 0.950 . S
C3700 H3682 0.951 . S
C3700 C3701 1.366 . S
C3700 C3702 1.388 . S
C3701 C3700 1.366 . S
C3701 C3705 1.385 . S
C3702 H3683 0.951 . S
C3702 C3700 1.388 . S
C3702 C3703 1.366 . S
C3703 C3702 1.366 . S
C3703 C3704 1.414 . S
C3703 C3706 1.499 . S
C3704 H3684 0.950 . S
C3704 C3703 1.414 . S
C3704 C3705 1.374 . S
C3705 H3685 0.950 . S
C3705 C3701 1.385 . S
C3705 C3704 1.374 . S
C3706 C3703 1.499 . S
C3706 C3707 1.373 . S
C3706 C3708 1.389 . S
C3707 H3686 0.950 . S
C3707 C3706 1.373 . S
C3707 C3723 1.377 . S
C3708 C3706 1.389 . S
C3708 C3709 1.524 . S
C3708 C3722 1.377 . S
C3709 C3708 1.524 . S
C3709 C3710 1.397 . S
C3709 C3714 1.363 . S
C3710 H3687 0.950 . S
C3710 C3709 1.397 . S
C3710 C3711 1.334 . S
C3711 H3688 0.950 . S
C3711 C3710 1.334 . S
C3711 C3712 1.287 . S
C3712 C3711 1.287 . S
C3712 C3713 1.524 . S
C3712 H3731 0.913 . S
C3713 H3689 0.950 . S
C3713 C3712 1.524 . S
C3713 C3714 1.415 . S
C3714 H3690 0.950 . S
C3714 C3709 1.363 . S
C3714 C3713 1.415 . S
C3715 H3691 0.951 . S
C3715 C3716 1.366 . S
C3715 C3717 1.388 . S
C3716 C3715 1.366 . S
C3716 C3720 1.385 . S
C3717 H3692 0.951 . S
C3717 C3715 1.388 . S
C3717 C3718 1.366 . S
C3718 C3717 1.366 . S
C3718 C3719 1.414 . S
C3718 C3721 1.499 . S
C3719 H3693 0.950 . S
C3719 C3718 1.414 . S
C3719 C3720 1.374 . S
C3720 H3694 0.950 . S
C3720 C3716 1.385 . S
C3720 C3719 1.374 . S
C3721 C3718 1.499 . S
C3721 C3722 1.373 . S
C3721 C3723 1.389 . S
C3722 H3695 0.950 . S
C3722 C3708 1.377 . S
C3722 C3721 1.373 . S
C3723 C3707 1.377 . S
C3723 C3721 1.389 . S
C3723 C3724 1.524 . S
C3724 C3723 1.524 . S
C3724 C3725 1.397 . S
C3724 C3729 1.363 . S
C3725 H3696 0.950 . S
C3725 C3724 1.397 . S
C3725 C3726 1.334 . S
C3726 H3697 0.950 . S
C3726 C3725 1.334 . S
C3726 C3727 1.287 . S
C3727 C3726 1.287 . S
C3727 C3728 1.524 . S
C3727 H3730 0.999 . S
C3728 H3698 0.950 . S
C3728 C3727 1.524 . S
C3728 C3729 1.415 . S
C3729 H3699 0.950 . S
C3729 C3724 1.363 . S
C3729 C3728 1.415 . S
H3730 C3727 0.999 . S
H3731 C3712 0.913 . S
H3732 C3750 0.951 . S
H3733 C3752 0.951 . S
H3734 C3754 0.950 . S
H3735 C3755 0.950 . S
H3736 C3757 0.950 . S
H3737 C3760 0.950 . S
H3738 C3761 0.950 . S
H3739 C3763 0.950 . S
H3740 C3764 0.950 . S
H3741 C3765 0.951 . S
H3742 C3767 0.951 . S
H3743 C3769 0.950 . S
H3744 C3770 0.950 . S
H3745 C3772 0.950 . S
H3746 C3775 0.950 . S
H3747 C3776 0.950 . S
H3748 C3778 0.950 . S
H3749 C3779 0.950 . S
C3750 H3732 0.951 . S
C3750 C3751 1.366 . S
C3750 C3752 1.388 . S
C3751 C3750 1.366 . S
C3751 C3755 1.385 . S
C3752 H3733 0.951 . S
C3752 C3750 1.388 . S
C3752 C3753 1.366 . S
C3753 C3752 1.366 . S
C3753 C3754 1.414 . S
C3753 C3756 1.499 . S
C3754 H3734 0.950 . S
C3754 C3753 1.414 . S
C3754 C3755 1.374 . S
C3755 H3735 0.950 . S
C3755 C3751 1.385 . S
C3755 C3754 1.374 . S
C3756 C3753 1.499 . S
C3756 C3757 1.373 . S
C3756 C3758 1.389 . S
C3757 H3736 0.950 . S
C3757 C3756 1.373 . S
C3757 C3773 1.377 . S
C3758 C3756 1.389 . S
C3758 C3759 1.524 . S
C3758 C3772 1.377 . S
C3759 C3758 1.524 . S
C3759 C3760 1.397 . S
C3759 C3764 1.363 . S
C3760 H3737 0.950 . S
C3760 C3759 1.397 . S
C3760 C3761 1.334 . S
C3761 H3738 0.950 . S
C3761 C3760 1.334 . S
C3761 C3762 1.287 . S
C3762 C3761 1.287 . S
C3762 C3763 1.524 . S
C3762 H3781 0.913 . S
C3763 H3739 0.950 . S
C3763 C3762 1.524 . S
C3763 C3764 1.415 . S
C3764 H3740 0.950 . S
C3764 C3759 1.363 . S
C3764 C3763 1.415 . S
C3765 H3741 0.951 . S
C3765 C3766 1.366 . S
C3765 C3767 1.388 . S
C3766 C3765 1.366 . S
C3766 C3770 1.385 . S
C3767 H3742 0.951 . S
C3767 C3765 1.388 . S
C3767 C3768 1.366 . S
C3768 C3767 1.366 . S
C3768 C3769 1.414 . S
C3768 C3771 1.499 . S
C3769 H3743 0.950 . S
C3769 C3768 1.414 . S
C3769 C3770 1.374 . S
C3770 H3744 0.950 . S
C3770 C3766 1.385 . S
C3770 C3769 1.374 . S
C3771 C3768 1.499 . S
C3771 C3772 1.373 . S
C3771 C3773 1.389 . S
C3772 H3745 0.950 . S
C3772 C3758 1.377 . S
C3772 C3771 1.373 . S
C3773 C3757 1.377 . S
C3773 C3771 1.389 . S
C3773 C3774 1.524 . S
C3774 C3773 1.524 . S
C3774 C3775 1.397 . S
C3774 C3779 1.363 . S
C3775 H3746 0.950 . S
C3775 C3774 1.397 . S
C3775 C3776 1.334 . S
C3776 H3747 0.950 . S
C3776 C3775 1.334 . S
C3776 C3777 1.287 . S
C3777 C3776 1.287 . S
C3777 C3778 1.524 . S
C3777 H3780 0.999 . S
C3778 H3748 0.950 . S
C3778 C3777 1.524 . S
C3778 C3779 1.415 . S
C3779 H3749 0.950 . S
C3779 C3774 1.363 . S
C3779 C3778 1.415 . S
H3780 C3777 0.999 . S
H3781 C3762 0.913 . S
H3782 C3800 0.951 . S
H3783 C3802 0.951 . S
H3784 C3804 0.950 . S
H3785 C3805 0.950 . S
H3786 C3807 0.950 . S
H3787 C3810 0.950 . S
H3788 C3811 0.950 . S
H3789 C3813 0.950 . S
H3790 C3814 0.950 . S
H3791 C3815 0.951 . S
H3792 C3817 0.951 . S
H3793 C3819 0.950 . S
H3794 C3820 0.950 . S
H3795 C3822 0.950 . S
H3796 C3825 0.950 . S
H3797 C3826 0.950 . S
H3798 C3828 0.950 . S
H3799 C3829 0.950 . S
C3800 H3782 0.951 . S
C3800 C3801 1.366 . S
C3800 C3802 1.388 . S
C3801 C3800 1.366 . S
C3801 C3805 1.385 . S
C3802 H3783 0.951 . S
C3802 C3800 1.388 . S
C3802 C3803 1.366 . S
C3803 C3802 1.366 . S
C3803 C3804 1.414 . S
C3803 C3806 1.499 . S
C3804 H3784 0.950 . S
C3804 C3803 1.414 . S
C3804 C3805 1.374 . S
C3805 H3785 0.950 . S
C3805 C3801 1.385 . S
C3805 C3804 1.374 . S
C3806 C3803 1.499 . S
C3806 C3807 1.373 . S
C3806 C3808 1.389 . S
C3807 H3786 0.950 . S
C3807 C3806 1.373 . S
C3807 C3823 1.377 . S
C3808 C3806 1.389 . S
C3808 C3809 1.524 . S
C3808 C3822 1.377 . S
C3809 C3808 1.524 . S
C3809 C3810 1.397 . S
C3809 C3814 1.363 . S
C3810 H3787 0.950 . S
C3810 C3809 1.397 . S
C3810 C3811 1.334 . S
C3811 H3788 0.950 . S
C3811 C3810 1.334 . S
C3811 C3812 1.287 . S
C3812 C3811 1.287 . S
C3812 C3813 1.524 . S
C3812 H3831 0.913 . S
C3813 H3789 0.950 . S
C3813 C3812 1.524 . S
C3813 C3814 1.415 . S
C3814 H3790 0.950 . S
C3814 C3809 1.363 . S
C3814 C3813 1.415 . S
C3815 H3791 0.951 . S
C3815 C3816 1.366 . S
C3815 C3817 1.388 . S
C3816 C3815 1.366 . S
C3816 C3820 1.385 . S
C3817 H3792 0.951 . S
C3817 C3815 1.388 . S
C3817 C3818 1.366 . S
C3818 C3817 1.366 . S
C3818 C3819 1.414 . S
C3818 C3821 1.499 . S
C3819 H3793 0.950 . S
C3819 C3818 1.414 . S
C3819 C3820 1.374 . S
C3820 H3794 0.950 . S
C3820 C3816 1.385 . S
C3820 C3819 1.374 . S
C3821 C3818 1.499 . S
C3821 C3822 1.373 . S
C3821 C3823 1.389 . S
C3822 H3795 0.950 . S
C3822 C3808 1.377 . S
C3822 C3821 1.373 . S
C3823 C3807 1.377 . S
C3823 C3821 1.389 . S
C3823 C3824 1.524 . S
C3824 C3823 1.524 . S
C3824 C3825 1.397 . S
C3824 C3829 1.363 . S
C3825 H3796 0.950 . S
C3825 C3824 1.397 . S
C3825 C3826 1.334 . S
C3826 H3797 0.950 . S
C3826 C3825 1.334 . S
C3826 C3827 1.287 . S
C3827 C3826 1.287 . S
C3827 C3828 1.524 . S
C3827 H3830 0.999 . S
C3828 H3798 0.950 . S
C3828 C3827 1.524 . S
C3828 C3829 1.415 . S
C3829 H3799 0.950 . S
C3829 C3824 1.363 . S
C3829 C3828 1.415 . S
H3830 C3827 0.999 . S
H3831 C3812 0.913 . S
H3832 C3850 0.951 . S
H3833 C3852 0.951 . S
H3834 C3854 0.950 . S
H3835 C3855 0.950 . S
H3836 C3857 0.950 . S
H3837 C3860 0.950 . S
H3838 C3861 0.950 . S
H3839 C3863 0.950 . S
H3840 C3864 0.950 . S
H3841 C3865 0.951 . S
H3842 C3867 0.951 . S
H3843 C3869 0.950 . S
H3844 C3870 0.950 . S
H3845 C3872 0.950 . S
H3846 C3875 0.950 . S
H3847 C3876 0.950 . S
H3848 C3878 0.950 . S
H3849 C3879 0.950 1_556 S
C3850 H3832 0.951 . S
C3850 C3851 1.366 . S
C3850 C3852 1.388 . S
C3851 C3850 1.366 . S
C3851 C3855 1.385 . S
C3852 H3833 0.951 . S
C3852 C3850 1.388 . S
C3852 C3853 1.366 . S
C3853 C3852 1.366 . S
C3853 C3854 1.414 . S
C3853 C3856 1.499 . S
C3854 H3834 0.950 . S
C3854 C3853 1.414 . S
C3854 C3855 1.374 . S
C3855 H3835 0.950 . S
C3855 C3851 1.385 . S
C3855 C3854 1.374 . S
C3856 C3853 1.499 . S
C3856 C3857 1.373 . S
C3856 C3858 1.389 . S
C3857 H3836 0.950 . S
C3857 C3856 1.373 . S
C3857 C3873 1.377 . S
C3858 C3856 1.389 . S
C3858 C3859 1.524 . S
C3858 C3872 1.377 . S
C3859 C3858 1.524 . S
C3859 C3860 1.397 . S
C3859 C3864 1.363 . S
C3860 H3837 0.950 . S
C3860 C3859 1.397 . S
C3860 C3861 1.334 . S
C3861 H3838 0.950 . S
C3861 C3860 1.334 . S
C3861 C3862 1.287 . S
C3862 C3861 1.287 . S
C3862 C3863 1.524 . S
C3862 H3881 0.913 . S
C3863 H3839 0.950 . S
C3863 C3862 1.524 . S
C3863 C3864 1.415 . S
C3864 H3840 0.950 . S
C3864 C3859 1.363 . S
C3864 C3863 1.415 . S
C3865 H3841 0.951 . S
C3865 C3866 1.366 . S
C3865 C3867 1.388 . S
C3866 C3865 1.366 . S
C3866 C3870 1.385 . S
C3867 H3842 0.951 . S
C3867 C3865 1.388 . S
C3867 C3868 1.366 . S
C3868 C3867 1.366 . S
C3868 C3869 1.414 . S
C3868 C3871 1.499 . S
C3869 H3843 0.950 . S
C3869 C3868 1.414 . S
C3869 C3870 1.374 . S
C3870 H3844 0.950 . S
C3870 C3866 1.385 . S
C3870 C3869 1.374 . S
C3871 C3868 1.499 . S
C3871 C3872 1.373 . S
C3871 C3873 1.389 . S
C3872 H3845 0.950 . S
C3872 C3858 1.377 . S
C3872 C3871 1.373 . S
C3873 C3857 1.377 . S
C3873 C3871 1.389 . S
C3873 C3874 1.524 1_556 S
C3874 C3873 1.524 1_554 S
C3874 C3875 1.397 . S
C3874 C3879 1.363 . S
C3875 H3846 0.950 . S
C3875 C3874 1.397 . S
C3875 C3876 1.334 . S
C3876 H3847 0.950 . S
C3876 C3875 1.334 . S
C3876 C3877 1.287 . S
C3877 C3876 1.287 . S
C3877 C3878 1.524 . S
C3877 H3880 0.999 . S
C3878 H3848 0.950 . S
C3878 C3877 1.524 . S
C3878 C3879 1.415 . S
C3879 H3849 0.950 1_554 S
C3879 C3874 1.363 . S
C3879 C3878 1.415 . S
H3880 C3877 0.999 . S
H3881 C3862 0.913 . S
H3882 C3900 0.951 . S
H3883 C3902 0.951 . S
H3884 C3904 0.950 . S
H3885 C3905 0.950 . S
H3886 C3907 0.950 . S
H3887 C3910 0.950 . S
H3888 C3911 0.950 . S
H3889 C3913 0.950 . S
H3890 C3914 0.950 . S
H3891 C3915 0.951 . S
H3892 C3917 0.951 . S
H3893 C3919 0.950 . S
H3894 C3920 0.950 . S
H3895 C3922 0.950 . S
H3896 C3925 0.950 . S
H3897 C3926 0.950 . S
H3898 C3928 0.950 . S
H3899 C3929 0.950 . S
C3900 H3882 0.951 . S
C3900 C3901 1.366 . S
C3900 C3902 1.388 . S
C3901 C3900 1.366 . S
C3901 C3905 1.385 . S
C3902 H3883 0.951 . S
C3902 C3900 1.388 . S
C3902 C3903 1.366 . S
C3903 C3902 1.366 . S
C3903 C3904 1.414 . S
C3903 C3906 1.499 . S
C3904 H3884 0.950 . S
C3904 C3903 1.414 . S
C3904 C3905 1.374 . S
C3905 H3885 0.950 . S
C3905 C3901 1.385 . S
C3905 C3904 1.374 . S
C3906 C3903 1.499 . S
C3906 C3907 1.373 . S
C3906 C3908 1.389 . S
C3907 H3886 0.950 . S
C3907 C3906 1.373 . S
C3907 C3923 1.377 . S
C3908 C3906 1.389 . S
C3908 C3909 1.524 . S
C3908 C3922 1.377 . S
C3909 C3908 1.524 . S
C3909 C3910 1.397 . S
C3909 C3914 1.363 . S
C3910 H3887 0.950 . S
C3910 C3909 1.397 . S
C3910 C3911 1.334 . S
C3911 H3888 0.950 . S
C3911 C3910 1.334 . S
C3911 C3912 1.287 . S
C3912 C3911 1.287 . S
C3912 C3913 1.524 . S
C3912 H3931 0.913 . S
C3913 H3889 0.950 . S
C3913 C3912 1.524 . S
C3913 C3914 1.415 . S
C3914 H3890 0.950 . S
C3914 C3909 1.363 . S
C3914 C3913 1.415 . S
C3915 H3891 0.951 . S
C3915 C3916 1.366 . S
C3915 C3917 1.388 . S
C3916 C3915 1.366 . S
C3916 C3920 1.385 . S
C3917 H3892 0.951 . S
C3917 C3915 1.388 . S
C3917 C3918 1.366 . S
C3918 C3917 1.366 . S
C3918 C3919 1.414 . S
C3918 C3921 1.499 . S
C3919 H3893 0.950 . S
C3919 C3918 1.414 . S
C3919 C3920 1.374 . S
C3920 H3894 0.950 . S
C3920 C3916 1.385 . S
C3920 C3919 1.374 . S
C3921 C3918 1.499 . S
C3921 C3922 1.373 . S
C3921 C3923 1.389 . S
C3922 H3895 0.950 . S
C3922 C3908 1.377 . S
C3922 C3921 1.373 . S
C3923 C3907 1.377 . S
C3923 C3921 1.389 . S
C3923 C3924 1.524 . S
C3924 C3923 1.524 . S
C3924 C3925 1.397 . S
C3924 C3929 1.363 . S
C3925 H3896 0.950 . S
C3925 C3924 1.397 . S
C3925 C3926 1.334 . S
C3926 H3897 0.950 . S
C3926 C3925 1.334 . S
C3926 C3927 1.287 . S
C3927 C3926 1.287 . S
C3927 C3928 1.524 . S
C3927 H3930 0.999 . S
C3928 H3898 0.950 . S
C3928 C3927 1.524 . S
C3928 C3929 1.415 . S
C3929 H3899 0.950 . S
C3929 C3924 1.363 . S
C3929 C3928 1.415 . S
H3930 C3927 0.999 . S
H3931 C3912 0.913 . S
H3932 C3950 0.951 . S
H3933 C3952 0.951 . S
H3934 C3954 0.950 . S
H3935 C3955 0.950 . S
H3936 C3957 0.950 1_556 S
H3937 C3960 0.950 . S
H3938 C3961 0.950 . S
H3939 C3963 0.950 . S
H3940 C3964 0.950 . S
H3941 C3965 0.929 1_556 S
H3942 C3967 0.951 . S
H3943 C3969 0.950 . S
H3944 C3970 0.950 . S
H3945 C3972 0.950 . S
H3946 C3975 0.950 . S
H3947 C3976 0.950 . S
H3948 C3978 0.950 . S
H3949 C3979 0.950 . S
C3950 H3932 0.951 . S
C3950 C3951 1.366 . S
C3950 C3952 1.388 . S
C3951 C3950 1.366 . S
C3951 C3955 1.385 . S
C3952 H3933 0.951 . S
C3952 C3950 1.388 . S
C3952 C3953 1.366 . S
C3953 C3952 1.366 . S
C3953 C3954 1.414 . S
C3953 C3956 1.499 . S
C3954 H3934 0.950 . S
C3954 C3953 1.414 . S
C3954 C3955 1.374 . S
C3955 H3935 0.950 . S
C3955 C3951 1.385 . S
C3955 C3954 1.374 . S
C3956 C3953 1.499 . S
C3956 C3957 1.373 . S
C3956 C3958 1.389 . S
C3957 H3936 0.950 1_554 S
C3957 C3956 1.373 . S
C3957 C3973 1.377 . S
C3958 C3956 1.389 . S
C3958 C3959 1.524 . S
C3958 C3972 1.377 . S
C3959 C3958 1.524 . S
C3959 C3960 1.397 . S
C3959 C3964 1.363 . S
C3960 H3937 0.950 . S
C3960 C3959 1.397 . S
C3960 C3961 1.334 . S
C3961 H3938 0.950 . S
C3961 C3960 1.334 . S
C3961 C3962 1.287 . S
C3962 C3961 1.287 . S
C3962 C3963 1.524 . S
C3962 H3981 0.913 . S
C3963 H3939 0.950 . S
C3963 C3962 1.524 . S
C3963 C3964 1.415 . S
C3964 H3940 0.950 . S
C3964 C3959 1.363 . S
C3964 C3963 1.415 . S
C3965 H3941 0.929 1_554 S
C3965 C3966 1.366 . S
C3965 C3967 1.388 . S
C3966 C3965 1.366 . S
C3966 C3970 1.385 . S
C3967 H3942 0.951 . S
C3967 C3965 1.388 . S
C3967 C3968 1.366 . S
C3968 C3967 1.366 . S
C3968 C3969 1.414 . S
C3968 C3971 1.499 . S
C3969 H3943 0.950 . S
C3969 C3968 1.414 . S
C3969 C3970 1.374 . S
C3970 H3944 0.950 . S
C3970 C3966 1.385 . S
C3970 C3969 1.374 . S
C3971 C3968 1.499 . S
C3971 C3972 1.373 . S
C3971 C3973 1.389 . S
C3972 H3945 0.950 . S
C3972 C3958 1.377 . S
C3972 C3971 1.373 . S
C3973 C3957 1.377 . S
C3973 C3971 1.389 . S
C3973 C3974 1.524 1_554 S
C3974 C3973 1.524 1_556 S
C3974 C3975 1.397 . S
C3974 C3979 1.363 . S
C3975 H3946 0.950 . S
C3975 C3974 1.397 . S
C3975 C3976 1.334 . S
C3976 H3947 0.950 . S
C3976 C3975 1.334 . S
C3976 C3977 1.287 . S
C3977 C3976 1.287 . S
C3977 C3978 1.524 . S
C3977 H3980 0.999 . S
C3978 H3948 0.950 . S
C3978 C3977 1.524 . S
C3978 C3979 1.415 . S
C3979 H3949 0.950 . S
C3979 C3974 1.363 . S
C3979 C3978 1.415 . S
H3980 C3977 0.999 . S
H3981 C3962 0.913 . S
H3982 C4000 0.951 1_545 S
H3983 C4002 0.951 . S
H3984 C4004 0.950 . S
H3985 C4005 0.950 . S
H3986 C4007 0.950 . S
H3987 C4010 0.950 . S
H3988 C4011 0.950 . S
H3989 C4013 0.950 . S
H3990 C4014 0.950 . S
H3991 C4015 0.951 . S
H3992 C4017 0.951 . S
H3993 C4019 0.950 . S
H3994 C4020 0.950 . S
H3995 C4022 0.950 1_556 S
H3996 C4025 0.950 . S
H3997 C4026 0.950 . S
H3998 C4028 0.950 . S
H3999 C4029 0.950 . S
C4000 H3982 0.951 1_565 S
C4000 C4001 1.366 . S
C4000 C4002 1.388 . S
C4001 C4000 1.366 . S
C4001 C4005 1.385 . S
C4002 H3983 0.951 . S
C4002 C4000 1.388 . S
C4002 C4003 1.366 . S
C4003 C4002 1.366 . S
C4003 C4004 1.414 . S
C4003 C4006 1.499 . S
C4004 H3984 0.950 . S
C4004 C4003 1.414 . S
C4004 C4005 1.374 . S
C4005 H3985 0.950 . S
C4005 C4001 1.385 . S
C4005 C4004 1.374 . S
C4006 C4003 1.499 . S
C4006 C4007 1.373 . S
C4006 C4008 1.389 . S
C4007 H3986 0.950 . S
C4007 C4006 1.373 . S
C4007 C4023 1.377 . S
C4008 C4006 1.389 . S
C4008 C4009 1.524 1_554 S
C4008 C4022 1.377 . S
C4009 C4008 1.524 1_556 S
C4009 C4010 1.397 . S
C4009 C4014 1.363 . S
C4010 H3987 0.950 . S
C4010 C4009 1.397 . S
C4010 C4011 1.334 . S
C4011 H3988 0.950 . S
C4011 C4010 1.334 . S
C4011 C4012 1.287 . S
C4012 C4011 1.287 . S
C4012 C4013 1.524 . S
C4012 H4031 0.913 . S
C4013 H3989 0.950 . S
C4013 C4012 1.524 . S
C4013 C4014 1.415 . S
C4014 H3990 0.950 . S
C4014 C4009 1.363 . S
C4014 C4013 1.415 . S
C4015 H3991 0.951 . S
C4015 C4016 1.366 . S
C4015 C4017 1.388 . S
C4016 C4015 1.366 . S
C4016 C4020 1.385 . S
C4017 H3992 0.951 . S
C4017 C4015 1.388 . S
C4017 C4018 1.366 . S
C4018 C4017 1.366 . S
C4018 C4019 1.414 . S
C4018 C4021 1.499 . S
C4019 H3993 0.950 . S
C4019 C4018 1.414 . S
C4019 C4020 1.374 . S
C4020 H3994 0.950 . S
C4020 C4016 1.385 . S
C4020 C4019 1.374 . S
C4021 C4018 1.499 . S
C4021 C4022 1.373 . S
C4021 C4023 1.389 . S
C4022 H3995 0.950 1_554 S
C4022 C4008 1.377 . S
C4022 C4021 1.373 . S
C4023 C4007 1.377 . S
C4023 C4021 1.389 . S
C4023 C4024 1.524 . S
C4024 C4023 1.524 . S
C4024 C4025 1.397 . S
C4024 C4029 1.363 . S
C4025 H3996 0.950 . S
C4025 C4024 1.397 . S
C4025 C4026 1.334 . S
C4026 H3997 0.950 . S
C4026 C4025 1.334 . S
C4026 C4027 1.287 . S
C4027 C4026 1.287 . S
C4027 C4028 1.524 . S
C4027 H4030 0.999 . S
C4028 H3998 0.950 . S
C4028 C4027 1.524 . S
C4028 C4029 1.415 . S
C4029 H3999 0.950 . S
C4029 C4024 1.363 . S
C4029 C4028 1.415 . S
H4030 C4027 0.999 . S
H4031 C4012 0.913 . S
C1666 C625 1.497 . S
C1651 C181 1.489 . S
C1716 C684 1.520 . S
C1701 C247 1.520 . S
C1751 C283 1.509 . S
C1766 C801 1.524 . S
C1816 C869 1.520 . S
C1801 C169 1.510 . S
C1866 C948 1.512 . S
C1851 C361 1.505 . S
C1916 C1073 1.521 . S
C1901 C433 1.513 . S
C1951 C421 1.496 . S
C1966 C1133 1.506 . S
C2016 C1241 1.535 . S
C2001 C355 1.536 . S
C2051 C427 1.516 . S
C2066 C1337 1.525 . S
C2116 C1397 1.524 . S
C2101 C325 1.523 . S
C2151 C385 1.499 . S
C2166 C1300 1.509 . S
C2216 C1417 1.527 . S
C2201 C463 1.517 . S
C2251 C253 1.515 . S
C2266 C1485 1.522 . S
C2301 C145 1.517 . S
C2316 C1476 1.525 . S
C2351 C205 1.478 . S
C2366 C1505 1.488 . S
C2401 C217 1.510 . S
C2416 C1513 1.511 . S
C2451 C139 1.512 . S
C2466 C897 1.521 . S
C2501 C535 1.499 . S
C2516 C860 1.509 . S
C2566 C596 1.498 . S
C2551 C565 1.498 . S
C2616 C693 1.509 . S
C2601 C313 1.498 . S
C2651 C175 1.528 . S
C2666 C957 1.539 . S
C2716 C1249 1.505 . S
C2701 C397 1.490 . S
C2766 C977 1.521 . S
C2751 C349 1.520 . S
C2816 C1161 1.532 . S
C2801 C457 1.521 . S
C2866 C1153 1.497 . S
C2851 C505 1.490 . S
C2901 C571 1.520 . S
C2916 C1221 1.519 . S
C2951 C319 1.509 . S
C2966 C985 1.518 . S
C3016 C1036 1.520 . S
C3001 C493 1.509 . S
C3051 C109 1.504 . S
C3066 C781 1.505 . S
C3116 C889 1.521 . S
C3101 C1 1.513 . S
C3166 C605 1.506 . S
C3151 C61 1.496 . S
C3216 C721 1.535 . S
C3201 C103 1.535 . S
C3251 C67 1.516 . S
C3266 C1425 1.525 . S
C3301 C73 1.523 . S
C3316 C1309 1.524 . S
C3351 C133 1.499 . S
C3366 C1388 1.509 . S
C3401 C31 1.517 . S
C3416 C1329 1.527 . S
C3466 C1573 1.522 . S
C3451 C289 1.515 . S
C3516 C1564 1.525 . S
C3501 C469 1.517 . S
C3566 C1593 1.487 . S
C3551 C529 1.477 . S
C3601 C541 1.510 . S
C3616 C1601 1.511 . S
C3651 C391 1.511 . S
C3666 C1065 1.520 . S
C3716 C1045 1.509 . S
C3701 C211 1.500 . S
C3766 C1124 1.499 . S
C3751 C241 1.498 . S
C3816 C1212 1.509 . S
C3801 C277 1.506 . S
C3851 C499 1.528 . S
C3866 C772 1.539 . S
C3916 C713 1.505 . S
C3901 C37 1.497 . S
C3951 C97 1.520 . S
C3966 C809 1.520 . S
C4016 C633 1.532 . S
C4001 C25 1.520 . S
