# Generated by pormake.
# Topology pyr, (3,6)-cn, num edge types: 1
# Building blocks:
#     Node 0, Type 0, BuildingBlock: CUQRIR_clean_linker_1, # of connection points: 3
#     Node 1, Type 0, BuildingBlock: CUQRIR_clean_linker_1, # of connection points: 3
#     Node 2, Type 0, BuildingBlock: CUQRIR_clean_linker_1, # of connection points: 3
#     Node 3, Type 0, BuildingBlock: CUQRIR_clean_linker_1, # of connection points: 3
#     Node 4, Type 0, BuildingBlock: CUQRIR_clean_linker_1, # of connection points: 3
#     Node 5, Type 0, BuildingBlock: CUQRIR_clean_linker_1, # of connection points: 3
#     Node 6, Type 0, BuildingBlock: CUQRIR_clean_linker_1, # of connection points: 3
#     Node 7, Type 0, BuildingBlock: CUQRIR_clean_linker_1, # of connection points: 3
#     Node 8, Type 1, BuildingBlock: JUFBIX_clean_sbu_0, # of connection points: 6
#     Node 9, Type 1, BuildingBlock: JUFBIX_clean_sbu_0, # of connection points: 6
#     Node 10, Type 1, BuildingBlock: JUFBIX_clean_sbu_0, # of connection points: 6
#     Node 11, Type 1, BuildingBlock: JUFBIX_clean_sbu_0, # of connection points: 6
#     Edge 12, Type (0, 1), BuildingBlock: XIVTED_clean_linker_0, # of connection points: 2
#     Edge 13, Type (0, 1), BuildingBlock: XIVTED_clean_linker_0, # of connection points: 2
#     Edge 14, Type (0, 1), BuildingBlock: XIVTED_clean_linker_0, # of connection points: 2
#     Edge 15, Type (0, 1), BuildingBlock: XIVTED_clean_linker_0, # of connection points: 2
#     Edge 16, Type (0, 1), BuildingBlock: XIVTED_clean_linker_0, # of connection points: 2
#     Edge 17, Type (0, 1), BuildingBlock: XIVTED_clean_linker_0, # of connection points: 2
#     Edge 18, Type (0, 1), BuildingBlock: XIVTED_clean_linker_0, # of connection points: 2
#     Edge 19, Type (0, 1), BuildingBlock: XIVTED_clean_linker_0, # of connection points: 2
#     Edge 20, Type (0, 1), BuildingBlock: XIVTED_clean_linker_0, # of connection points: 2
#     Edge 21, Type (0, 1), BuildingBlock: XIVTED_clean_linker_0, # of connection points: 2
#     Edge 22, Type (0, 1), BuildingBlock: XIVTED_clean_linker_0, # of connection points: 2
#     Edge 23, Type (0, 1), BuildingBlock: XIVTED_clean_linker_0, # of connection points: 2
#     Edge 24, Type (0, 1), BuildingBlock: XIVTED_clean_linker_0, # of connection points: 2
#     Edge 25, Type (0, 1), BuildingBlock: XIVTED_clean_linker_0, # of connection points: 2
#     Edge 26, Type (0, 1), BuildingBlock: XIVTED_clean_linker_0, # of connection points: 2
#     Edge 27, Type (0, 1), BuildingBlock: XIVTED_clean_linker_0, # of connection points: 2
#     Edge 28, Type (0, 1), BuildingBlock: XIVTED_clean_linker_0, # of connection points: 2
#     Edge 29, Type (0, 1), BuildingBlock: XIVTED_clean_linker_0, # of connection points: 2
#     Edge 30, Type (0, 1), BuildingBlock: XIVTED_clean_linker_0, # of connection points: 2
#     Edge 31, Type (0, 1), BuildingBlock: XIVTED_clean_linker_0, # of connection points: 2
#     Edge 32, Type (0, 1), BuildingBlock: XIVTED_clean_linker_0, # of connection points: 2
#     Edge 33, Type (0, 1), BuildingBlock: XIVTED_clean_linker_0, # of connection points: 2
#     Edge 34, Type (0, 1), BuildingBlock: XIVTED_clean_linker_0, # of connection points: 2
#     Edge 35, Type (0, 1), BuildingBlock: XIVTED_clean_linker_0, # of connection points: 2
# Relax obj value: 0.142
# Max RMSD: 0.221
# Mean RMSD: 0.152
data_MOF--net-pyr--node1-JUFBIX_clean_sbu_0--node2-CUQRIR_clean_linker_1--edge1-XIVTED_clean_linker_0
_symmetry_space_group_name_H-M    P1
_symmetry_Int_Tables_number       1
_symmetry_cell_setting            triclinic
loop_
_symmetry_equiv_pos_as_xyz
'x, y, z'
_cell_length_a     34.758889
_cell_length_b     33.265506
_cell_length_c     33.812796
_cell_angle_alpha  79.447297
_cell_angle_beta   88.9965
_cell_angle_gamma 93.413502
loop_
_atom_site_label
_atom_site_type_symbol
_atom_site_fract_x
_atom_site_fract_y
_atom_site_fract_z
_atom_type_partial_charge
C0 C 0.19078 0.20484 0.21253 0.0
N1 N 0.21599 0.17504 0.22119 0.0
N2 N 0.19999 0.22933 0.17653 0.0
C3 C 0.15583 0.2087 0.23825 0.0
C4 C 0.23172 0.21308 0.16354 0.0
N5 N 0.24141 0.17996 0.19052 0.0
C6 C 0.25435 0.23071 0.12535 0.0
H7 H 0.13173 0.22043 0.21931 0.0
H8 H 0.16337 0.23072 0.25832 0.0
H9 H 0.14597 0.17906 0.25743 0.0
H10 H 0.25085 0.26406 0.11652 0.0
H11 H 0.24368 0.21529 0.10085 0.0
H12 H 0.28543 0.22546 0.12897 0.0
C13 C 0.45878 0.88707 0.62068 0.0
N14 N 0.44985 0.91322 0.64534 0.0
N15 N 0.48711 0.86322 0.63614 0.0
C16 C 0.43505 0.87981 0.5854 0.0
C17 C 0.49504 0.87557 0.6712 0.0
N18 N 0.47256 0.90601 0.67677 0.0
C19 C 0.52284 0.85583 0.70113 0.0
H20 H 0.4456 0.8551 0.57093 0.0
H21 H 0.43577 0.90841 0.56254 0.0
H22 H 0.40456 0.87171 0.59551 0.0
H23 H 0.54595 0.84236 0.68569 0.0
H24 H 0.50713 0.83083 0.72268 0.0
H25 H 0.53578 0.87844 0.71825 0.0
C26 C 0.65112 0.38949 0.87463 0.0
N27 N 0.67651 0.37615 0.90319 0.0
N28 N 0.66787 0.41916 0.84565 0.0
C29 C 0.61059 0.37111 0.87352 0.0
C30 C 0.70456 0.42363 0.85769 0.0
N31 N 0.70989 0.39713 0.8924 0.0
C32 C 0.73592 0.45168 0.8342 0.0
H33 H 0.61125 0.34279 0.86061 0.0
H34 H 0.5922 0.3928 0.85482 0.0
H35 H 0.59778 0.3626 0.90443 0.0
H36 H 0.72412 0.47755 0.81368 0.0
H37 H 0.75258 0.43397 0.81582 0.0
H38 H 0.75597 0.46404 0.85487 0.0
C39 C 0.9532 0.60225 0.43045 0.0
N40 N 0.98567 0.62602 0.41806 0.0
N41 N 0.94001 0.60905 0.46638 0.0
C42 C 0.93064 0.57761 0.40441 0.0
C43 C 0.96662 0.63693 0.4759 0.0
N44 N 0.99433 0.64763 0.44647 0.0
C45 C 0.96223 0.65832 0.51119 0.0
H46 H 0.9071 0.59585 0.39031 0.0
H47 H 0.91741 0.549 0.42291 0.0
H48 H 0.94902 0.56947 0.3803 0.0
H49 H 0.93883 0.64306 0.53241 0.0
H50 H 0.95584 0.69069 0.50018 0.0
H51 H 0.9896 0.65835 0.52756 0.0
C52 C 0.82348 0.85588 0.90891 0.0
N53 N 0.84954 0.84651 0.88225 0.0
N54 N 0.80294 0.88766 0.89186 0.0
C55 C 0.8202 0.83566 0.9526 0.0
C56 C 0.81792 0.8976 0.85365 0.0
N57 N 0.84623 0.87261 0.84776 0.0
C58 C 0.80466 0.93147 0.822 0.0
H59 H 0.79877 0.80908 0.95625 0.0
H60 H 0.81072 0.85734 0.97158 0.0
H61 H 0.84827 0.82425 0.96326 0.0
H62 H 0.82108 0.96049 0.82448 0.0
H63 H 0.77351 0.93548 0.82632 0.0
H64 H 0.80975 0.9255 0.79125 0.0
C65 C 0.66035 0.17908 0.48178 0.0
N66 N 0.66819 0.14775 0.46294 0.0
N67 N 0.62618 0.19418 0.47028 0.0
C68 C 0.68544 0.19454 0.51232 0.0
C69 C 0.61319 0.17078 0.44391 0.0
N70 N 0.63844 0.14215 0.43983 0.0
C71 C 0.57872 0.17964 0.41799 0.0
H72 H 0.66756 0.20684 0.53431 0.0
H73 H 0.70571 0.21976 0.49686 0.0
H74 H 0.70238 0.16974 0.52852 0.0
H75 H 0.58395 0.17294 0.38747 0.0
H76 H 0.57147 0.21204 0.41492 0.0
H77 H 0.55352 0.15983 0.4321 0.0
C78 C 0.33817 0.63237 0.17399 0.0
N79 N 0.3674 0.65572 0.18576 0.0
N80 N 0.32494 0.65061 0.13822 0.0
C81 C 0.32151 0.59235 0.19796 0.0
C82 C 0.34714 0.68594 0.12863 0.0
N83 N 0.3731 0.68907 0.15748 0.0
C84 C 0.34031 0.71952 0.09359 0.0
H85 H 0.30794 0.57303 0.17786 0.0
H86 H 0.29905 0.59853 0.21939 0.0
H87 H 0.3442 0.57553 0.21544 0.0
H88 H 0.3165 0.73749 0.10179 0.0
H89 H 0.33165 0.70645 0.06694 0.0
H90 H 0.36652 0.74039 0.08566 0.0
C91 C 0.06505 0.35459 0.6211 0.0
N92 N 0.09217 0.3431 0.59699 0.0
N93 N 0.07669 0.39016 0.63258 0.0
C94 C 0.02904 0.32892 0.63674 0.0
C95 C 0.11195 0.39984 0.61454 0.0
N96 N 0.12148 0.37119 0.59296 0.0
C97 C 0.13923 0.43389 0.62325 0.0
H98 H 1.00834 0.34707 0.65022 0.0
H99 H 0.03688 0.30278 0.65995 0.0
H100 H 1.01508 0.31618 0.61207 0.0
H101 H 0.16656 0.43697 0.60527 0.0
H102 H 0.14583 0.42802 0.65572 0.0
H103 H 0.12518 0.46336 0.61669 0.0
Co104 Co 0.02248 0.99333 0.51379 0.0
C105 C 0.05066 0.9159 0.51272 0.0
Co106 Co 0.07524 0.98013 0.54804 0.0
C107 C 0.94771 0.02141 0.49168 0.0
C108 C 0.97042 0.98805 0.44908 0.0
N109 N 0.97899 0.00203 0.48311 0.0
N110 N 0.91984 0.01971 0.46464 0.0
C111 C 0.93394 -0.00133 0.43779 0.0
H112 H 0.94496 0.03548 0.51796 0.0
H113 H 0.98925 0.97074 0.43378 0.0
C114 C 0.04867 0.0584 0.54712 0.0
N115 N 0.11742 0.9725 0.58105 0.0
C116 C 0.15454 0.96499 0.57417 0.0
C117 C 0.11601 0.97771 0.61974 0.0
N118 N 0.17581 0.96481 0.60738 0.0
C119 C 0.15151 0.97276 0.63593 0.0
C120 C 0.0919 0.01558 0.46861 0.0
O121 O 0.02223 0.04747 0.52511 0.0
O122 O 0.07321 0.03306 0.56071 0.0
O123 O 0.10773 0.00292 0.50194 0.0
O124 O 0.0552 0.01374 0.4673 0.0
O125 O 0.07741 0.92695 0.53449 0.0
H126 H 0.091 0.98616 0.63503 0.0
H127 H 0.16579 0.96025 0.54544 0.0
O128 O 0.02388 0.93977 0.5022 0.0
O129 O 0.98982 0.97245 0.56071 0.0
O130 O 0.0421 0.95746 0.59358 0.0
C131 C 1.00561 0.95753 0.59332 0.0
H132 H 0.91903 0.99171 0.41177 0.0
H133 H 0.15923 0.97634 0.66604 0.0
Co134 Co 0.51518 0.03411 0.03187 0.0
C135 C 0.50544 0.96233 0.09142 0.0
Co136 Co 0.54857 0.0334 0.08721 0.0
C137 C 0.4927 0.02687 0.95052 0.0
C138 C 0.44451 0.02384 0.99143 0.0
N139 N 0.48321 0.03082 0.98857 0.0
N140 N 0.46155 0.01697 0.93006 0.0
C141 C 0.43119 0.01534 0.95567 0.0
H142 H 0.52207 0.02796 0.93902 0.0
H143 H 0.42721 0.02204 1.01865 0.0
C144 C 0.55874 0.10537 0.02825 0.0
N145 N 0.58119 0.03636 0.12958 0.0
C146 C 0.57452 0.03163 0.16973 0.0
C147 C 0.61925 0.04686 0.12423 0.0
N148 N 0.60713 0.0387 0.1895 0.0
C149 C 0.63515 0.04826 0.16068 0.0
C150 C 0.58617 0.00354 1.02441 0.0
O151 O 0.53551 0.08745 1.0074 0.0
O152 O 0.56706 0.08725 0.06314 0.0
O153 O 0.58916 0.01061 0.05996 0.0
O154 O 0.55524 0.01124 1.00601 0.0
O155 O 0.53006 0.97989 0.11096 0.0
H156 H 0.63439 0.05448 0.09536 0.0
H157 H 0.54625 0.02395 0.18393 0.0
O158 O 0.49532 0.98063 0.05712 0.0
O159 O 0.47548 0.05727 0.05819 0.0
O160 O 0.50697 0.05565 0.114 0.0
C161 C 0.47656 0.06355 0.09415 0.0
H162 H 0.40171 0.00644 0.9497 0.0
H163 H 0.66483 0.05771 0.16517 0.0
Co164 Co 0.54709 0.54789 0.5011 0.0
C165 C 0.48667 0.55652 0.44808 0.0
Co166 Co 0.49091 0.52156 0.52817 0.0
C167 C 0.62947 0.56127 0.48776 0.0
C168 C 0.59818 0.60488 0.44847 0.0
N169 N 0.59342 0.57104 0.47738 0.0
N170 N 0.65647 0.58808 0.46693 0.0
C171 C 0.63686 0.61539 0.44197 0.0
H172 H 0.63572 0.53625 0.51159 0.0
H173 H 0.57498 0.62182 0.43415 0.0
C174 C 0.55158 0.51371 0.58106 0.0
N175 N 0.44443 0.49884 0.55253 0.0
C176 C 0.416 0.47617 0.53847 0.0
C177 C 0.43329 0.49977 0.59075 0.0
N178 N 0.388 0.46247 0.56676 0.0
C179 C 0.3988 0.47731 0.59962 0.0
C180 C 0.53331 0.4664 0.49626 0.0
O181 O 0.57097 0.53424 0.55124 0.0
O182 O 0.5162 0.5039 0.57712 0.0
O183 O 0.50077 0.4708 0.51228 0.0
O184 O 0.558 0.49675 0.48879 0.0
O185 O 0.46601 0.53955 0.47871 0.0
H186 H 0.44954 0.51534 0.6111 0.0
H187 H 0.41634 0.46894 0.50853 0.0
O188 O 0.52284 0.56158 0.45146 0.0
O189 O 0.53639 0.59866 0.5137 0.0
O190 O 0.48207 0.57265 0.54448 0.0
C191 C 0.50654 0.60296 0.53419 0.0
H192 H 0.6495 0.64165 0.42111 0.0
H193 H 0.3827 0.47245 0.62798 0.0
Co194 Co 0.02603 0.52547 0.98842 0.0
C195 C 0.95256 0.48591 1.00319 0.0
Co196 Co 1.00025 0.52823 0.04798 0.0
C197 C 0.0385 0.49869 0.9125 0.0
C198 C 0.06557 0.55792 0.9138 0.0
N199 N 0.04516 0.52613 0.93688 0.0
N200 N 0.05353 0.51244 0.87501 0.0
C201 C 0.07079 0.5496 0.87586 0.0
H202 H 0.02142 0.47007 0.92152 0.0
H203 H 0.07485 0.58609 0.9235 0.0
C204 C 0.07378 0.5668 0.03327 0.0
N205 N 0.982 0.52851 0.09997 0.0
C206 C 0.99071 0.5565 0.12343 0.0
C207 C 0.96441 0.49629 0.1252 0.0
N208 N 0.9802 0.54248 0.16234 0.0
C209 C 0.96344 0.50471 0.16354 0.0
C210 C 0.04565 0.46077 0.04579 0.0
O211 O 0.07157 0.55457 0.99998 0.0
O212 O 0.04533 0.55926 0.05806 0.0
O213 O 0.02535 0.47908 0.06778 0.0
O214 O 0.0492 0.47516 1.00823 0.0
O215 O 0.95517 0.49683 0.03724 0.0
H216 H 0.95543 0.46737 0.11683 0.0
H217 H 1.00725 0.5852 0.11289 0.0
O218 O 0.98019 0.49581 0.97744 0.0
O219 O 1.00313 0.57605 0.96905 0.0
O220 O 0.97564 0.57748 0.02765 0.0
C221 C 0.98186 0.59361 0.99076 0.0
H222 H 0.08566 0.56965 0.8507 0.0
H223 H 0.95294 0.48392 0.19055 0.0
H224 H 0.24442 0.17308 0.29502 0.0
H225 H 0.07053 0.02184 0.39045 0.0
H226 H 0.1742 0.10385 0.22472 0.0
H227 H 0.16707 0.04807 0.46211 0.0
H228 H 0.10826 0.05263 0.32959 0.0
H229 H 0.21887 0.12753 0.35681 0.0
C230 C 0.22486 0.1471 0.29269 0.0
C231 C 0.21188 0.14153 0.25494 0.0
C232 C 0.12139 0.05133 0.35857 0.0
C233 C 0.18091 0.09081 0.32513 0.0
C234 C 0.09975 0.03398 0.3934 0.0
C235 C 0.11554 0.03253 0.43153 0.0
C236 C 0.15898 0.06829 0.36168 0.0
C237 C 0.15372 0.04853 0.43336 0.0
C238 C 0.20989 0.12146 0.32785 0.0
C239 C 0.18542 0.10843 0.25334 0.0
N240 N 0.17393 0.06627 0.39899 0.0
N241 N 0.17022 0.08483 0.2879 0.0
H242 H 0.48619 0.98548 0.68184 0.0
H243 H 0.4181 0.95317 0.91188 0.0
H244 H 0.45231 0.86684 0.75192 0.0
H245 H 0.50524 0.04758 0.86273 0.0
H246 H 0.4197 0.9273 0.84874 0.0
H247 H 0.48322 0.01507 0.74365 0.0
C248 C 0.47806 0.96588 0.71034 0.0
C249 C 0.46985 0.92384 0.71232 0.0
C250 C 0.43836 0.95378 0.8517 0.0
C251 C 0.4657 0.95699 0.78223 0.0
C252 C 0.43725 0.96875 0.88755 0.0
C253 C 0.46149 0.00266 0.89237 0.0
C254 C 0.46341 0.97323 0.82009 0.0
C255 C 0.48625 0.02127 0.86012 0.0
C256 C 0.47651 0.98257 0.7454 0.0
C257 C 0.45929 0.89933 0.74959 0.0
N258 N 0.48644 0.00647 0.82511 0.0
N259 N 0.45726 0.9163 0.78311 0.0
H260 H 0.64392 0.3728 0.79253 0.0
H261 H 0.61233 0.55258 0.61184 0.0
H262 H 0.6583 0.49768 0.81027 0.0
H263 H 0.53245 0.44614 0.63803 0.0
H264 H 0.64213 0.53055 0.67709 0.0
H265 H 0.61534 0.39669 0.72723 0.0
C266 C 0.64105 0.40528 0.78244 0.0
C267 C 0.65316 0.43344 0.80651 0.0
C268 C 0.61805 0.51222 0.66836 0.0
C269 C 0.62178 0.46088 0.73202 0.0
C270 C 0.60123 0.52455 0.63128 0.0
C271 C 0.56993 0.50108 0.61981 0.0
C272 C 0.6041 0.47566 0.69329 0.0
C273 C 0.55641 0.46514 0.64597 0.0
C274 C 0.62491 0.41882 0.7454 0.0
C275 C 0.64956 0.47526 0.79215 0.0
N276 N 0.57389 0.45323 0.6814 0.0
N277 N 0.63434 0.48791 0.75551 0.0
H278 H 0.96254 0.67464 0.35137 0.0
H279 H 1.00799 0.50448 0.23244 0.0
H280 H 0.04255 0.58412 0.39443 0.0
H281 H 0.97696 0.62212 0.16941 0.0
H282 H 0.02278 0.53485 0.29146 0.0
H283 H 0.97145 0.66107 0.28323 0.0
C284 C 0.98386 0.65374 0.34592 0.0
C285 C 1.00263 0.63116 0.37825 0.0
C286 C 1.01322 0.55424 0.26461 0.0
C287 C 1.01079 0.61313 0.30112 0.0
C288 C 1.00434 0.53679 0.23114 0.0
C289 C 0.99069 0.56078 0.19637 0.0
C290 C 1.00757 0.59585 0.26372 0.0
C291 C 0.98721 0.60267 0.19584 0.0
C292 C 0.98837 0.64533 0.30717 0.0
C293 C 0.02825 0.60263 0.37004 0.0
N294 N 0.99488 0.6188 0.22933 0.0
N295 N 0.03083 0.59359 0.33248 0.0
H296 H 0.30608 0.16864 0.23414 0.0
H297 H 0.40655 0.07401 0.06027 0.0
H298 H 0.24782 0.13477 0.13289 0.0
H299 H 0.46587 0.08593 0.16899 0.0
H300 H 0.3486 0.09608 0.08831 0.0
H301 H 0.36427 0.13695 0.21425 0.0
C302 C 0.30531 0.15346 0.20841 0.0
C303 C 0.27223 0.15398 0.18516 0.0
C304 C 0.37411 0.09386 0.10632 0.0
C305 C 0.33854 0.11888 0.16154 0.0
C306 C 0.40755 0.08132 0.09016 0.0
C307 C 0.44154 0.07808 0.11212 0.0
C308 C 0.37411 0.10384 0.14491 0.0
C309 C 0.44047 0.08804 0.15085 0.0
C310 C 0.33854 0.13579 0.19681 0.0
C311 C 0.27276 0.13477 0.15162 0.0
N312 N 0.40738 0.10069 0.16594 0.0
N313 N 0.30534 0.11843 0.14066 0.0
H314 H 0.39276 0.89219 0.70103 0.0
H315 H 0.23401 0.98839 0.55153 0.0
H316 H 0.42291 0.97194 0.5882 0.0
H317 H 0.20988 0.92976 0.67482 0.0
H318 H 0.30335 0.98315 0.56328 0.0
H319 H 0.32579 0.90899 0.69294 0.0
C320 C 0.38537 0.91454 0.67527 0.0
C321 C 0.41324 0.93117 0.64548 0.0
C322 C 0.28279 0.97164 0.58775 0.0
C323 C 0.33629 0.9488 0.63459 0.0
C324 C 0.24332 0.97416 0.58089 0.0
C325 C 0.2163 0.95952 0.61228 0.0
C326 C 0.29503 0.95398 0.62612 0.0
C327 C 0.22978 0.94183 0.64994 0.0
C328 C 0.34702 0.9236 0.6702 0.0
C329 C 0.402 0.95869 0.61178 0.0
N330 N 0.26809 0.93948 0.65576 0.0
N331 N 0.36417 0.96621 0.60684 0.0
H332 H 0.78003 0.3787 0.86807 0.0
H333 H 0.88344 0.46908 0.04554 0.0
H334 H 0.71818 0.41111 0.96771 0.0
H335 H 0.94152 0.45074 0.93695 0.0
H336 H 0.82429 0.43618 1.02434 0.0
H337 H 0.84101 0.39154 0.90037 0.0
C338 C 0.77949 0.3877 0.89726 0.0
C339 C 0.74446 0.39448 0.9152 0.0
C340 C 0.85011 0.43902 1.00538 0.0
C341 C 0.81366 0.40987 0.95209 0.0
C342 C 0.88388 0.4578 1.01746 0.0
C343 C 0.91738 0.46315 0.99275 0.0
C344 C 0.8499 0.42534 0.96844 0.0
C345 C 0.9163 0.44775 0.95677 0.0
C346 C 0.81415 0.39525 0.91561 0.0
C347 C 0.74486 0.40572 0.95312 0.0
N348 N 0.8831 0.42983 0.94562 0.0
N349 N 0.779 0.41375 0.97011 0.0
H350 H 0.8937 0.67116 0.4614 0.0
H351 H 0.70109 0.52447 0.49231 0.0
H352 H 0.89492 0.54002 0.49474 0.0
H353 H 0.70504 0.65599 0.45642 0.0
H354 H 0.77104 0.52882 0.50116 0.0
H355 H 0.82371 0.66585 0.46886 0.0
C356 C 0.87904 0.64127 0.47137 0.0
C357 C 0.8998 0.60598 0.47781 0.0
C358 C 0.75648 0.55668 0.49153 0.0
C359 C 0.81956 0.59925 0.48476 0.0
C360 C 0.71663 0.55423 0.48653 0.0
C361 C 0.69733 0.58988 0.47306 0.0
C362 C 0.77699 0.5951 0.48319 0.0
C363 C 0.7188 0.62765 0.4659 0.0
C364 C 0.83908 0.63811 0.47517 0.0
C365 C 0.87962 0.56781 0.4896 0.0
N366 N 0.75741 0.62921 0.47092 0.0
N367 N 0.8404 0.56533 0.49228 0.0
H368 H 0.17525 0.24107 0.09977 0.0
H369 H 0.05533 0.43276 0.12596 0.0
H370 H 0.17697 0.29441 0.20657 0.0
H371 H 0.08533 0.40756 1.00891 0.0
H372 H 0.09359 0.37684 0.15695 0.0
H373 H 0.13753 0.29727 0.06653 0.0
C374 C 0.16796 0.26485 0.11604 0.0
C375 C 0.17921 0.26313 0.15597 0.0
C376 C 0.0918 0.38346 0.12449 0.0
C377 C 0.13529 0.32685 0.11863 0.0
C378 C 0.06972 0.41528 0.1067 0.0
C379 C 0.06702 0.42501 0.06465 0.0
C380 C 0.11114 0.36059 0.10025 0.0
C381 C 0.08658 0.40124 0.04141 0.0
C382 C 0.14627 0.29674 0.09719 0.0
C383 C 0.16843 0.29431 0.17598 0.0
N384 N 0.1077 0.37007 0.05951 0.0
N385 N 0.14691 0.32467 0.15724 0.0
H386 H 0.69386 0.30564 0.88258 0.0
H387 H 0.58441 0.16329 0.07063 0.0
H388 H 0.64543 0.35707 0.97853 0.0
H389 H 0.57737 0.13928 0.94975 0.0
H390 H 0.62011 0.22889 0.04429 0.0
H391 H 0.66715 0.23739 0.91541 0.0
C392 C 0.67892 0.30201 0.91152 0.0
C393 C 0.67208 0.33642 0.92838 0.0
C394 C 0.61068 0.20922 1.02364 0.0
C395 C 0.6408 0.25941 0.96539 0.0
C396 C 0.59029 0.17194 0.03852 0.0
C397 C 0.5777 0.14608 1.01219 0.0
C398 C 0.61942 0.22012 0.98232 0.0
C399 C 0.58617 0.15859 0.97094 0.0
C400 C 0.66315 0.26345 0.92979 0.0
C401 C 0.65165 0.33089 0.96521 0.0
N402 N 0.60684 0.19462 0.95727 0.0
N403 N 0.63643 0.29297 0.98254 0.0
H404 H 0.98148 0.71752 0.39636 0.0
H405 H 0.09497 0.84985 0.5367 0.0
H406 H 0.05667 0.6645 0.48849 0.0
H407 H 1.00734 0.89323 0.45336 0.0
H408 H 0.0923 0.78507 0.51113 0.0
H409 H 1.00438 0.78569 0.40564 0.0
C410 C 1.0044 0.72037 0.41706 0.0
C411 C 1.01768 0.68549 0.44123 0.0
C412 C 0.07396 0.80901 0.4983 0.0
C413 C 0.04221 0.7634 0.45433 0.0
C414 C 0.07536 0.84587 0.51297 0.0
C415 C 0.05091 0.87678 0.49763 0.0
C416 C 0.04824 0.80336 0.46782 0.0
C417 C 0.02631 0.87012 0.46664 0.0
C418 C 1.01685 0.75931 0.42317 0.0
C419 C 0.04613 0.69088 0.46906 0.0
N420 N 0.02554 0.83423 0.45296 0.0
N421 N 0.05691 0.72912 0.47554 0.0
H422 H 0.45953 0.78889 0.67407 0.0
H423 H 0.54673 0.67575 0.50666 0.0
H424 H 0.53035 0.85098 0.57317 0.0
H425 H 0.45831 0.61911 0.59383 0.0
H426 H 0.54493 0.73866 0.53367 0.0
H427 H 0.46405 0.7242 0.64949 0.0
C428 C 0.47676 0.7884 0.64719 0.0
C429 C 0.49503 0.82465 0.62566 0.0
C430 C 0.52578 0.71259 0.54681 0.0
C431 C 0.49965 0.75175 0.59684 0.0
C432 C 0.52669 0.67664 0.53135 0.0
C433 C 0.50256 0.64213 0.54802 0.0
C434 C 0.50077 0.71407 0.57944 0.0
C435 C 0.47722 0.64509 0.57995 0.0
C436 C 0.47898 0.75182 0.6329 0.0
C437 C 0.51637 0.82326 0.59058 0.0
N438 N 0.47714 0.68043 0.5948 0.0
N439 N 0.51803 0.78734 0.57711 0.0
H440 H 0.82728 0.85393 0.77561 0.0
H441 H 0.03145 0.93993 0.6701 0.0
H442 H 0.91986 0.90355 0.83839 0.0
H443 H 0.92715 0.93785 0.60297 0.0
H444 H 0.99376 0.91465 0.73228 0.0
H445 H 0.86629 0.87206 0.71244 0.0
C446 C 0.85624 0.86773 0.7761 0.0
C447 C 0.87081 0.87664 0.81217 0.0
C448 C 0.9791 0.91962 0.70396 0.0
C449 C 0.91537 0.89772 0.74045 0.0
C450 C 1.00061 0.93401 0.66833 0.0
C451 C 0.9825 0.94128 0.63106 0.0
C452 C 0.93907 0.9117 0.70261 0.0
C453 C 0.94235 0.93294 0.63095 0.0
C454 C 0.87829 0.8784 0.74016 0.0
C455 C 0.90812 0.89525 0.81136 0.0
N456 N 0.92202 0.91847 0.66612 0.0
N457 N 0.92913 0.90512 0.77616 0.0
H458 H 0.57979 0.08823 0.43053 0.0
H459 H 0.67306 0.03363 0.23171 0.0
H460 H 0.69137 0.13785 0.38129 0.0
H461 H 0.55114 0.04894 0.24394 0.0
H462 H 0.68207 0.05023 0.2983 0.0
H463 H 0.57141 0.05272 0.37315 0.0
C464 C 0.6028 0.09079 0.40804 0.0
C465 C 0.6363 0.11579 0.41047 0.0
C466 C 0.65332 0.04945 0.28648 0.0
C467 C 0.62732 0.07514 0.34572 0.0
C468 C 0.64807 0.04023 0.24834 0.0
C469 C 0.61139 0.04112 0.23142 0.0
C470 C 0.62161 0.05886 0.30835 0.0
C471 C 0.57997 0.04823 0.2554 0.0
C472 C 0.598 0.07073 0.37548 0.0
C473 C 0.66544 0.11831 0.38082 0.0
N474 N 0.58586 0.05725 0.29259 0.0
N475 N 0.66025 0.09829 0.34955 0.0
H476 H 0.33281 0.64928 0.25869 0.0
H477 H 0.52405 0.58573 0.37608 0.0
H478 H 0.44226 0.6436 0.19931 0.0
H479 H 0.40999 0.5635 0.43142 0.0
H480 H 0.49575 0.61435 0.31245 0.0
H481 H 0.36195 0.62634 0.32394 0.0
C482 C 0.36319 0.64371 0.2597 0.0
C483 C 0.38543 0.64833 0.22404 0.0
C484 C 0.47689 0.60316 0.33846 0.0
C485 C 0.41884 0.62201 0.29786 0.0
C486 C 0.49299 0.58674 0.37484 0.0
C487 C 0.46931 0.57205 0.40913 0.0
C488 C 0.43679 0.60524 0.3363 0.0
C489 C 0.42929 0.57426 0.40569 0.0
C490 C 0.37974 0.63049 0.29671 0.0
C491 C 0.42455 0.64094 0.22639 0.0
N492 N 0.41427 0.59068 0.36989 0.0
N493 N 0.44007 0.62793 0.26275 0.0
H494 H 0.05473 0.46634 0.63318 0.0
H495 H 0.04729 0.43088 0.87411 0.0
H496 H 0.06887 0.34976 0.7092 0.0
H497 H 0.05093 0.54974 0.79695 0.0
H498 H 0.04443 0.39887 0.81438 0.0
H499 H 0.04207 0.49581 0.69325 0.0
C500 C 0.05439 0.44693 0.66264 0.0
C501 C 0.06268 0.40579 0.66661 0.0
C502 C 0.04566 0.43197 0.81058 0.0
C503 C 0.04886 0.43886 0.73519 0.0
C504 C 0.04716 0.4502 0.84464 0.0
C505 C 0.04992 0.49302 0.84044 0.0
C506 C 0.04666 0.45678 0.77211 0.0
C507 C 0.04975 0.51665 0.80154 0.0
C508 C 0.04736 0.46361 0.69684 0.0
C509 C 0.06211 0.38156 0.70517 0.0
N510 N 0.04833 0.49823 0.76891 0.0
N511 N 0.05566 0.39853 0.73809 0.0
H512 H 0.74213 0.84608 0.93552 0.0
H513 H 0.61007 0.02419 0.94558 0.0
H514 H 0.7906 0.96836 0.88952 0.0
H515 H 0.63566 0.94634 0.05735 0.0
H516 H 0.66412 0.99729 0.91251 0.0
H517 H 0.6903 0.87509 0.96939 0.0
C518 C 0.74199 0.879 0.93265 0.0
C519 C 0.77109 0.90478 0.90998 0.0
C520 C 0.65777 0.98624 0.94426 0.0
C521 C 0.71083 0.93801 0.947 0.0
C522 C 0.62697 0.00132 0.96307 0.0
C523 C 0.61852 0.98745 1.00425 0.0
C524 C 0.6793 0.95605 0.96648 0.0
C525 C 0.64139 0.95793 1.0256 0.0
C526 C 0.71232 0.89543 0.95176 0.0
C527 C 0.7686 0.94735 0.90621 0.0
N528 N 0.67041 0.94269 1.00633 0.0
N529 N 0.73877 0.9627 0.92421 0.0
H530 H 0.73931 0.18566 0.45077 0.0
H531 H 0.85175 0.98671 0.44355 0.0
H532 H 0.67926 0.06632 0.4732 0.0
H533 H 0.9035 0.09145 0.48573 0.0
H534 H 0.7888 0.01692 0.4434 0.0
H535 H 0.80074 0.15335 0.45247 0.0
C536 C 0.73918 0.15257 0.45664 0.0
C537 C 0.70434 0.12852 0.46297 0.0
C538 C 0.81397 0.03312 0.45279 0.0
C539 C 0.77437 0.09137 0.46327 0.0
C540 C 0.8498 0.01611 0.45263 0.0
C541 C 0.88273 0.03672 0.46467 0.0
C542 C 0.81138 0.07141 0.46415 0.0
C543 C 0.87873 0.07451 0.47654 0.0
C544 C 0.77416 0.13418 0.45729 0.0
C545 C 0.70562 0.08579 0.46853 0.0
N546 N 0.84377 0.09084 0.47562 0.0
N547 N 0.74016 0.06845 0.46842 0.0
H548 H 0.25541 0.6511 0.17342 0.0
H549 H 0.1427 0.58045 0.99095 0.0
H550 H 0.3123 0.6306 0.06554 0.0
H551 H 0.08779 0.59637 0.10215 0.0
H552 H 0.20437 0.60469 1.01464 0.0
H553 H 0.19293 0.63592 0.14532 0.0
C554 C 0.25443 0.64318 0.14377 0.0
C555 C 0.2885 0.6416 0.12167 0.0
C556 C 0.17875 0.60317 0.03368 0.0
C557 C 0.21772 0.62463 0.08908 0.0
C558 C 0.14352 0.58949 1.02013 0.0
C559 C 0.11014 0.58607 0.04478 0.0
C560 C 0.18051 0.61345 0.0721 0.0
C561 C 0.11285 0.59826 0.08225 0.0
C562 C 0.21897 0.63475 0.12762 0.0
C563 C 0.28631 0.6319 0.08323 0.0
N564 N 0.14749 0.61113 0.09487 0.0
N565 N 0.25138 0.62358 0.06807 0.0
H566 H 0.15383 0.40655 0.52119 0.0
H567 H 0.35676 0.40078 0.62304 0.0
H568 H 0.17663 0.33052 0.63429 0.0
H569 H 0.34039 0.46749 0.50346 0.0
H570 H 0.29344 0.36529 0.62189 0.0
H571 H 0.22362 0.41919 0.50733 0.0
C572 C 0.17371 0.39097 0.54211 0.0
C573 C 0.15983 0.3669 0.57851 0.0
C574 C 0.30371 0.38723 0.59556 0.0
C575 C 0.23921 0.38235 0.56405 0.0
C576 C 0.33981 0.40757 0.59635 0.0
C577 C 0.3534 0.43745 0.56356 0.0
C578 C 0.2805 0.39741 0.56202 0.0
C579 C 0.33073 0.4447 0.52937 0.0
C580 C 0.21345 0.39852 0.53454 0.0
C581 C 0.18641 0.34836 0.60548 0.0
N582 N 0.29499 0.4254 0.52976 0.0
N583 N 0.2248 0.35699 0.59804 0.0
H584 H 0.81807 0.76962 0.89873 0.0
H585 H 1.01063 0.65321 0.92881 0.0
H586 H 0.92738 0.83924 0.88284 0.0
H587 H 0.91266 0.62089 1.01091 0.0
H588 H 0.97977 0.71549 0.89752 0.0
H589 H 0.85141 0.70751 0.92422 0.0
C590 C 0.84925 0.77149 0.89963 0.0
C591 C 0.87005 0.80945 0.88836 0.0
C592 C 0.9652 0.69472 0.92242 0.0
C593 C 0.90835 0.73872 0.91739 0.0
C594 C 0.98264 0.65923 0.94023 0.0
C595 C 0.96419 0.63195 0.97263 0.0
C596 C 0.92852 0.70224 0.93625 0.0
C597 C 0.928 0.64123 0.98624 0.0
C598 C 0.86814 0.73626 0.91448 0.0
C599 C 0.91039 0.81049 0.89036 0.0
N600 N 0.91113 0.67532 0.96767 0.0
N601 N 0.92834 0.77555 0.90466 0.0
H602 H 0.34394 0.75703 0.17384 0.0
H603 H 0.53881 0.89811 0.13783 0.0
H604 H 0.45011 0.70557 0.14806 0.0
H605 H 0.43161 0.93429 0.08407 0.0
H606 H 0.50811 0.82923 0.16357 0.0
H607 H 0.37801 0.82511 0.16483 0.0
C608 C 0.37474 0.76012 0.16759 0.0
C609 C 0.39453 0.72614 0.16182 0.0
C610 C 0.49145 0.85253 0.14643 0.0
C611 C 0.43339 0.80303 0.15149 0.0
C612 C 0.50878 0.89161 0.13186 0.0
C613 C 0.48764 0.92153 0.10862 0.0
C614 C 0.45256 0.84417 0.13871 0.0
C615 C 0.44891 0.91182 0.10154 0.0
C616 C 0.39401 0.7987 0.16219 0.0
C617 C 0.43426 0.7312 0.15327 0.0
N618 N 0.43251 0.874 0.11676 0.0
N619 N 0.45255 0.76921 0.14806 0.0
H620 H 0.12709 0.27706 0.63366 0.0
H621 H 1.01162 0.12606 0.51157 0.0
H622 H 0.05367 0.31981 0.5359 0.0
H623 H 0.09742 0.08759 0.59896 0.0
H624 H 0.02509 0.197 0.52063 0.0
H625 H 0.11703 0.20723 0.62063 0.0
C626 C 0.10987 0.27169 0.60858 0.0
C627 C 0.09203 0.30392 0.585 0.0
C628 C 0.04089 0.17296 0.53783 0.0
C629 C 0.07865 0.22425 0.57097 0.0
C630 C 0.03299 0.13246 0.5329 0.0
C631 C 0.0534 0.10085 0.55454 0.0
C632 C 0.06923 0.18179 0.56472 0.0
C633 C 0.081 0.11094 0.58157 0.0
C634 C 0.10358 0.23187 0.60146 0.0
C635 C 0.06842 0.29551 0.55402 0.0
N636 N 0.08807 0.15044 0.58585 0.0
N637 N 0.06216 0.25636 0.54797 0.0
H638 H 0.66505 0.26756 0.45103 0.0
H639 H 0.49156 0.39223 0.51582 0.0
H640 H 0.55635 0.20871 0.49939 0.0
H641 H 0.59988 0.44801 0.46171 0.0
H642 H 0.5134 0.32482 0.50973 0.0
H643 H 0.64109 0.3341 0.45581 0.0
C644 C 0.63625 0.26886 0.46326 0.0
C645 C 0.61272 0.23296 0.47543 0.0
C646 C 0.53223 0.35189 0.49901 0.0
C647 C 0.58456 0.3088 0.4802 0.0
C648 C 0.51973 0.39037 0.50231 0.0
C649 C 0.54397 0.42583 0.48936 0.0
C650 C 0.56921 0.34895 0.48273 0.0
C651 C 0.58022 0.42157 0.47222 0.0
C652 C 0.62238 0.30676 0.46563 0.0
C653 C 0.57525 0.23598 0.49005 0.0
N654 N 0.59174 0.38389 0.46959 0.0
N655 N 0.56222 0.27336 0.49209 0.0
loop_
_geom_bond_atom_site_label_1
_geom_bond_atom_site_label_2
_geom_bond_distance
_geom_bond_site_symmetry_2
_ccdc_geom_bond_type
C0 N1 1.317 . S
C0 N2 1.348 . S
C0 C3 1.485 . S
N1 C0 1.317 . S
N1 N5 1.370 . S
N2 C0 1.348 . S
N2 C4 1.346 . S
C3 C0 1.485 . S
C3 H7 0.960 . S
C3 H8 0.961 . S
C3 H9 0.960 . S
C4 N2 1.346 . S
C4 N5 1.307 . S
C4 C6 1.486 . S
N5 N1 1.370 . S
N5 C4 1.307 . S
C6 C4 1.486 . S
C6 H10 0.960 . S
C6 H11 0.960 . S
C6 H12 0.959 . S
H7 C3 0.960 . S
H8 C3 0.961 . S
H9 C3 0.960 . S
H10 C6 0.960 . S
H11 C6 0.960 . S
H12 C6 0.959 . S
C13 N14 1.317 . S
C13 N15 1.348 . S
C13 C16 1.485 . S
N14 C13 1.317 . S
N14 N18 1.370 . S
N15 C13 1.348 . S
N15 C17 1.346 . S
C16 C13 1.485 . S
C16 H20 0.960 . S
C16 H21 0.961 . S
C16 H22 0.960 . S
C17 N15 1.346 . S
C17 N18 1.307 . S
C17 C19 1.486 . S
N18 N14 1.370 . S
N18 C17 1.307 . S
C19 C17 1.486 . S
C19 H23 0.960 . S
C19 H24 0.960 . S
C19 H25 0.959 . S
H20 C16 0.960 . S
H21 C16 0.961 . S
H22 C16 0.960 . S
H23 C19 0.960 . S
H24 C19 0.960 . S
H25 C19 0.959 . S
C26 N27 1.317 . S
C26 N28 1.348 . S
C26 C29 1.485 . S
N27 C26 1.317 . S
N27 N31 1.370 . S
N28 C26 1.348 . S
N28 C30 1.346 . S
C29 C26 1.485 . S
C29 H33 0.960 . S
C29 H34 0.961 . S
C29 H35 0.960 . S
C30 N28 1.346 . S
C30 N31 1.307 . S
C30 C32 1.486 . S
N31 N27 1.370 . S
N31 C30 1.307 . S
C32 C30 1.486 . S
C32 H36 0.960 . S
C32 H37 0.960 . S
C32 H38 0.959 . S
H33 C29 0.960 . S
H34 C29 0.961 . S
H35 C29 0.960 . S
H36 C32 0.960 . S
H37 C32 0.960 . S
H38 C32 0.959 . S
C39 N40 1.317 . S
C39 N41 1.348 . S
C39 C42 1.485 . S
N40 C39 1.317 . S
N40 N44 1.370 . S
N41 C39 1.348 . S
N41 C43 1.346 . S
C42 C39 1.485 . S
C42 H46 0.960 . S
C42 H47 0.961 . S
C42 H48 0.960 . S
C43 N41 1.346 . S
C43 N44 1.307 . S
C43 C45 1.486 . S
N44 N40 1.370 . S
N44 C43 1.307 . S
C45 C43 1.486 . S
C45 H49 0.960 . S
C45 H50 0.960 . S
C45 H51 0.959 . S
H46 C42 0.960 . S
H47 C42 0.961 . S
H48 C42 0.960 . S
H49 C45 0.960 . S
H50 C45 0.960 . S
H51 C45 0.959 . S
C52 N53 1.317 . S
C52 N54 1.348 . S
C52 C55 1.485 . S
N53 C52 1.317 . S
N53 N57 1.370 . S
N54 C52 1.348 . S
N54 C56 1.346 . S
C55 C52 1.485 . S
C55 H59 0.960 . S
C55 H60 0.961 . S
C55 H61 0.960 . S
C56 N54 1.346 . S
C56 N57 1.307 . S
C56 C58 1.486 . S
N57 N53 1.370 . S
N57 C56 1.307 . S
C58 C56 1.486 . S
C58 H62 0.960 1_565 S
C58 H63 0.960 . S
C58 H64 0.959 . S
H59 C55 0.960 . S
H60 C55 0.961 . S
H61 C55 0.960 . S
H62 C58 0.960 1_545 S
H63 C58 0.960 . S
H64 C58 0.959 . S
C65 N66 1.317 . S
C65 N67 1.348 . S
C65 C68 1.485 . S
N66 C65 1.317 . S
N66 N70 1.370 . S
N67 C65 1.348 . S
N67 C69 1.346 . S
C68 C65 1.485 . S
C68 H72 0.960 . S
C68 H73 0.961 . S
C68 H74 0.960 . S
C69 N67 1.346 . S
C69 N70 1.307 . S
C69 C71 1.486 . S
N70 N66 1.370 . S
N70 C69 1.307 . S
C71 C69 1.486 . S
C71 H75 0.960 . S
C71 H76 0.960 . S
C71 H77 0.959 . S
H72 C68 0.960 . S
H73 C68 0.961 . S
H74 C68 0.960 . S
H75 C71 0.960 . S
H76 C71 0.960 . S
H77 C71 0.959 . S
C78 N79 1.317 . S
C78 N80 1.348 . S
C78 C81 1.485 . S
N79 C78 1.317 . S
N79 N83 1.370 . S
N80 C78 1.348 . S
N80 C82 1.346 . S
C81 C78 1.485 . S
C81 H85 0.960 . S
C81 H86 0.961 . S
C81 H87 0.960 . S
C82 N80 1.346 . S
C82 N83 1.307 . S
C82 C84 1.486 . S
N83 N79 1.370 . S
N83 C82 1.307 . S
C84 C82 1.486 . S
C84 H88 0.960 . S
C84 H89 0.960 . S
C84 H90 0.959 . S
H85 C81 0.960 . S
H86 C81 0.961 . S
H87 C81 0.960 . S
H88 C84 0.960 . S
H89 C84 0.960 . S
H90 C84 0.959 . S
C91 N92 1.317 . S
C91 N93 1.348 . S
C91 C94 1.485 . S
N92 C91 1.317 . S
N92 N96 1.370 . S
N93 C91 1.348 . S
N93 C95 1.346 . S
C94 C91 1.485 . S
C94 H98 0.960 . S
C94 H99 0.961 . S
C94 H100 0.960 . S
C95 N93 1.346 . S
C95 N96 1.307 . S
C95 C97 1.486 . S
N96 N92 1.370 . S
N96 C95 1.307 . S
C97 C95 1.486 . S
C97 H101 0.960 . S
C97 H102 0.960 . S
C97 H103 0.959 . S
H98 C94 0.960 . S
H99 C94 0.961 . S
H100 C94 0.960 . S
H101 C97 0.960 . S
H102 C97 0.960 . S
H103 C97 0.959 . S
Co104 N109 2.057 1_455 S
Co104 O121 2.021 . S
Co104 O124 2.062 . S
Co104 O128 2.117 1_445 S
Co104 O129 2.020 1_455 S
C105 O125 1.259 . S
C105 O128 1.258 1_455 S
Co106 N115 2.057 . S
Co106 O122 2.117 1_565 S
Co106 O123 2.020 1_565 S
Co106 O125 2.021 . S
Co106 O130 2.062 . S
C107 N109 1.316 . S
C107 N110 1.347 . S
C107 H112 0.931 . S
C108 N109 1.375 . S
C108 C111 1.350 . S
C108 H113 0.930 1_545 S
N109 Co104 2.057 1_655 S
N109 C107 1.316 . S
N109 C108 1.375 . S
N110 C107 1.347 . S
N110 C111 1.373 . S
C111 C108 1.350 . S
C111 N110 1.373 . S
C111 H132 0.931 . S
H112 C107 0.931 . S
H113 C108 0.930 1_565 S
C114 O121 1.259 . S
C114 O122 1.258 . S
N115 Co106 2.057 . S
N115 C116 1.316 . S
N115 C117 1.375 1_565 S
C116 N115 1.316 . S
C116 N118 1.347 . S
C116 H127 0.931 . S
C117 N115 1.375 1_545 S
C117 C119 1.350 . S
C117 H126 0.930 . S
N118 C116 1.347 . S
N118 C119 1.373 1_565 S
C119 C117 1.350 . S
C119 N118 1.373 1_545 S
C119 H133 0.931 . S
C120 O123 1.256 . S
C120 O124 1.255 . S
O121 Co104 2.021 . S
O121 C114 1.259 . S
O122 Co106 2.117 1_545 S
O122 C114 1.258 . S
O123 Co106 2.020 1_545 S
O123 C120 1.256 . S
O124 Co104 2.062 . S
O124 C120 1.255 . S
O125 C105 1.259 . S
O125 Co106 2.021 . S
H126 C117 0.930 . S
H127 C116 0.931 . S
O128 Co104 2.117 1_665 S
O128 C105 1.258 1_655 S
O129 Co104 2.020 1_655 S
O129 C131 1.256 1_645 S
O130 Co106 2.062 . S
O130 C131 1.255 . S
C131 O129 1.256 1_465 S
C131 O130 1.255 . S
H132 C111 0.931 . S
H133 C119 0.931 . S
Co134 N139 2.057 1_545 S
Co134 O151 2.021 . S
Co134 O154 2.062 . S
Co134 O158 2.117 1_546 S
Co134 O159 2.020 1_556 S
C135 O155 1.259 . S
C135 O158 1.258 . S
Co136 N145 2.057 . S
Co136 O152 2.117 . S
Co136 O153 2.020 . S
Co136 O155 2.021 1_545 S
Co136 O160 2.062 . S
C137 N139 1.317 . S
C137 N140 1.348 . S
C137 H142 0.929 1_565 S
C138 N139 1.375 . S
C138 C141 1.350 . S
C138 H143 0.930 . S
N139 Co134 2.057 1_565 S
N139 C137 1.317 . S
N139 C138 1.375 . S
N140 C137 1.348 . S
N140 C141 1.373 . S
C141 C138 1.350 . S
C141 N140 1.373 . S
C141 H162 0.931 . S
H142 C137 0.929 1_545 S
H143 C138 0.930 . S
C144 O151 1.259 . S
C144 O152 1.258 1_556 S
N145 Co136 2.057 . S
N145 C146 1.316 . S
N145 C147 1.375 . S
C146 N145 1.316 . S
C146 N148 1.347 . S
C146 H157 0.931 . S
C147 N145 1.375 . S
C147 C149 1.350 . S
C147 H156 0.930 . S
N148 C146 1.347 . S
N148 C149 1.373 . S
C149 C147 1.350 . S
C149 N148 1.373 . S
C149 H163 0.931 . S
C150 O153 1.251 1_565 S
C150 O154 1.254 1_564 S
O151 Co134 2.021 . S
O151 C144 1.259 . S
O152 Co136 2.117 . S
O152 C144 1.258 1_554 S
O153 Co136 2.020 . S
O153 C150 1.251 1_545 S
O154 Co134 2.062 . S
O154 C150 1.254 1_546 S
O155 C135 1.259 . S
O155 Co136 2.021 1_565 S
H156 C147 0.930 . S
H157 C146 0.931 . S
O158 Co134 2.117 1_564 S
O158 C135 1.258 . S
O159 Co134 2.020 1_554 S
O159 C161 1.256 . S
O160 Co136 2.062 . S
O160 C161 1.255 . S
C161 O159 1.256 . S
C161 O160 1.255 . S
H162 C141 0.931 . S
H163 C149 0.931 . S
Co164 N169 2.057 . S
Co164 O181 2.021 . S
Co164 O184 2.062 . S
Co164 O188 2.117 . S
Co164 O189 2.020 . S
C165 O185 1.259 . S
C165 O188 1.258 . S
Co166 N175 2.057 . S
Co166 O182 2.117 . S
Co166 O183 2.020 . S
Co166 O185 2.021 . S
Co166 O190 2.062 . S
C167 N169 1.316 . S
C167 N170 1.347 . S
C167 H172 0.931 . S
C168 N169 1.375 . S
C168 C171 1.350 . S
C168 H173 0.930 . S
N169 Co164 2.057 . S
N169 C167 1.316 . S
N169 C168 1.375 . S
N170 C167 1.347 . S
N170 C171 1.373 . S
C171 C168 1.350 . S
C171 N170 1.373 . S
C171 H192 0.931 . S
H172 C167 0.931 . S
H173 C168 0.930 . S
C174 O181 1.259 . S
C174 O182 1.258 . S
N175 Co166 2.057 . S
N175 C176 1.316 . S
N175 C177 1.375 . S
C176 N175 1.316 . S
C176 N178 1.347 . S
C176 H187 0.931 . S
C177 N175 1.375 . S
C177 C179 1.350 . S
C177 H186 0.930 . S
N178 C176 1.347 . S
N178 C179 1.373 . S
C179 C177 1.350 . S
C179 N178 1.373 . S
C179 H193 0.931 . S
C180 O183 1.256 . S
C180 O184 1.255 . S
O181 Co164 2.021 . S
O181 C174 1.259 . S
O182 Co166 2.117 . S
O182 C174 1.258 . S
O183 Co166 2.020 . S
O183 C180 1.256 . S
O184 Co164 2.062 . S
O184 C180 1.255 . S
O185 C165 1.259 . S
O185 Co166 2.021 . S
H186 C177 0.930 . S
H187 C176 0.931 . S
O188 Co164 2.117 . S
O188 C165 1.258 . S
O189 Co164 2.020 . S
O189 C191 1.256 . S
O190 Co166 2.062 . S
O190 C191 1.255 . S
C191 O189 1.256 . S
C191 O190 1.255 . S
H192 C171 0.931 . S
H193 C179 0.931 . S
Co194 N199 2.057 . S
Co194 O211 2.021 . S
Co194 O214 2.062 . S
Co194 O218 2.117 1_455 S
Co194 O219 2.020 1_455 S
C195 O215 1.259 1_556 S
C195 O218 1.258 . S
Co196 N205 2.057 . S
Co196 O212 2.117 1_655 S
Co196 O213 2.020 1_655 S
Co196 O215 2.021 . S
Co196 O220 2.062 . S
C197 N199 1.316 . S
C197 N200 1.347 . S
C197 H202 0.931 . S
C198 N199 1.375 1_655 S
C198 C201 1.350 1_655 S
C198 H203 0.930 . S
N199 Co194 2.057 . S
N199 C197 1.316 . S
N199 C198 1.375 1_455 S
N200 C197 1.347 . S
N200 C201 1.373 . S
C201 C198 1.350 1_455 S
C201 N200 1.373 . S
C201 H222 0.931 1_455 S
H202 C197 0.931 . S
H203 C198 0.930 . S
C204 O211 1.259 1_554 S
C204 O212 1.258 . S
N205 Co196 2.057 . S
N205 C206 1.316 . S
N205 C207 1.375 1_655 S
C206 N205 1.316 . S
C206 N208 1.347 . S
C206 H217 0.931 . S
C207 N205 1.375 1_455 S
C207 C209 1.350 . S
C207 H216 0.930 . S
N208 C206 1.347 . S
N208 C209 1.373 1_655 S
C209 C207 1.350 . S
C209 N208 1.373 1_455 S
C209 H223 0.931 . S
C210 O213 1.256 . S
C210 O214 1.255 1_554 S
O211 Co194 2.021 . S
O211 C204 1.259 1_556 S
O212 Co196 2.117 1_455 S
O212 C204 1.258 . S
O213 Co196 2.020 1_455 S
O213 C210 1.256 . S
O214 Co194 2.062 . S
O214 C210 1.255 1_556 S
O215 C195 1.259 1_554 S
O215 Co196 2.021 . S
H216 C207 0.930 . S
H217 C206 0.931 . S
O218 Co194 2.117 1_655 S
O218 C195 1.258 . S
O219 Co194 2.020 1_655 S
O219 C221 1.256 . S
O220 Co196 2.062 . S
O220 C221 1.255 1_554 S
C221 O219 1.256 . S
C221 O220 1.255 1_556 S
H222 C201 0.931 1_655 S
H223 C209 0.931 . S
H224 C230 0.930 . S
H225 C234 0.930 . S
H226 C239 0.929 . S
H227 C237 0.929 . S
H228 C232 0.929 . S
H229 C238 0.929 . S
C230 H224 0.930 . S
C230 C231 1.367 . S
C230 C238 1.378 . S
C231 C230 1.367 . S
C231 C239 1.433 . S
C232 H228 0.929 . S
C232 C234 1.378 . S
C232 C236 1.350 . S
C233 C236 1.463 . S
C233 C238 1.350 . S
C233 N241 1.427 . S
C234 H225 0.930 . S
C234 C232 1.378 . S
C234 C235 1.367 . S
C235 C234 1.367 . S
C235 C237 1.433 . S
C236 C232 1.350 . S
C236 C233 1.463 . S
C236 N240 1.427 . S
C237 H227 0.929 . S
C237 C235 1.433 . S
C237 N240 1.384 . S
C238 H229 0.929 . S
C238 C230 1.378 . S
C238 C233 1.350 . S
C239 H226 0.929 . S
C239 C231 1.433 . S
C239 N241 1.384 . S
N240 C236 1.427 . S
N240 C237 1.384 . S
N241 C233 1.427 . S
N241 C239 1.384 . S
H242 C248 0.930 . S
H243 C252 0.930 . S
H244 C257 0.929 . S
H245 C255 0.929 1_545 S
H246 C250 0.929 . S
H247 C256 0.929 . S
C248 H242 0.930 . S
C248 C249 1.367 . S
C248 C256 1.378 . S
C249 C248 1.367 . S
C249 C257 1.433 . S
C250 H246 0.929 . S
C250 C252 1.378 . S
C250 C254 1.350 . S
C251 C254 1.463 . S
C251 C256 1.350 . S
C251 N259 1.427 . S
C252 H243 0.930 . S
C252 C250 1.378 . S
C252 C253 1.367 . S
C253 C252 1.367 . S
C253 C255 1.433 . S
C254 C250 1.350 . S
C254 C251 1.463 . S
C254 N258 1.427 . S
C255 H245 0.929 1_565 S
C255 C253 1.433 . S
C255 N258 1.384 . S
C256 H247 0.929 . S
C256 C248 1.378 . S
C256 C251 1.350 . S
C257 H244 0.929 . S
C257 C249 1.433 . S
C257 N259 1.384 . S
N258 C254 1.427 . S
N258 C255 1.384 . S
N259 C251 1.427 . S
N259 C257 1.384 . S
H260 C266 0.930 . S
H261 C270 0.930 . S
H262 C275 0.929 . S
H263 C273 0.929 . S
H264 C268 0.929 . S
H265 C274 0.929 . S
C266 H260 0.930 . S
C266 C267 1.367 . S
C266 C274 1.378 . S
C267 C266 1.367 . S
C267 C275 1.433 . S
C268 H264 0.929 . S
C268 C270 1.378 . S
C268 C272 1.350 . S
C269 C272 1.463 . S
C269 C274 1.350 . S
C269 N277 1.427 . S
C270 H261 0.930 . S
C270 C268 1.378 . S
C270 C271 1.367 . S
C271 C270 1.367 . S
C271 C273 1.433 . S
C272 C268 1.350 . S
C272 C269 1.463 . S
C272 N276 1.427 . S
C273 H263 0.929 . S
C273 C271 1.433 . S
C273 N276 1.384 . S
C274 H265 0.929 . S
C274 C266 1.378 . S
C274 C269 1.350 . S
C275 H262 0.929 . S
C275 C267 1.433 . S
C275 N277 1.384 . S
N276 C272 1.427 . S
N276 C273 1.384 . S
N277 C269 1.427 . S
N277 C275 1.384 . S
H278 C284 0.930 . S
H279 C288 0.930 . S
H280 C293 0.929 . S
H281 C291 0.929 . S
H282 C286 0.929 . S
H283 C292 0.929 . S
C284 H278 0.930 . S
C284 C285 1.367 . S
C284 C292 1.378 . S
C285 C284 1.367 . S
C285 C293 1.433 . S
C286 H282 0.929 . S
C286 C288 1.378 . S
C286 C290 1.350 . S
C287 C290 1.463 . S
C287 C292 1.350 . S
C287 N295 1.427 . S
C288 H279 0.930 . S
C288 C286 1.378 . S
C288 C289 1.367 . S
C289 C288 1.367 . S
C289 C291 1.433 . S
C290 C286 1.350 . S
C290 C287 1.463 . S
C290 N294 1.427 . S
C291 H281 0.929 . S
C291 C289 1.433 . S
C291 N294 1.384 . S
C292 H283 0.929 . S
C292 C284 1.378 . S
C292 C287 1.350 . S
C293 H280 0.929 . S
C293 C285 1.433 . S
C293 N295 1.384 . S
N294 C290 1.427 . S
N294 C291 1.384 . S
N295 C287 1.427 . S
N295 C293 1.384 . S
H296 C302 0.930 . S
H297 C306 0.930 . S
H298 C311 0.929 . S
H299 C309 0.929 . S
H300 C304 0.929 . S
H301 C310 0.929 . S
C302 H296 0.930 . S
C302 C303 1.367 . S
C302 C310 1.378 . S
C303 C302 1.367 . S
C303 C311 1.433 . S
C304 H300 0.929 . S
C304 C306 1.378 . S
C304 C308 1.350 . S
C305 C308 1.463 . S
C305 C310 1.350 . S
C305 N313 1.427 . S
C306 H297 0.930 . S
C306 C304 1.378 . S
C306 C307 1.367 . S
C307 C306 1.367 . S
C307 C309 1.433 . S
C308 C304 1.350 . S
C308 C305 1.463 . S
C308 N312 1.427 . S
C309 H299 0.929 . S
C309 C307 1.433 . S
C309 N312 1.384 . S
C310 H301 0.929 . S
C310 C302 1.378 . S
C310 C305 1.350 . S
C311 H298 0.929 . S
C311 C303 1.433 . S
C311 N313 1.384 . S
N312 C308 1.427 . S
N312 C309 1.384 . S
N313 C305 1.427 . S
N313 C311 1.384 . S
H314 C320 0.930 . S
H315 C324 0.930 . S
H316 C329 0.929 . S
H317 C327 0.929 . S
H318 C322 0.929 . S
H319 C328 0.929 . S
C320 H314 0.930 . S
C320 C321 1.367 . S
C320 C328 1.378 . S
C321 C320 1.367 . S
C321 C329 1.433 . S
C322 H318 0.929 . S
C322 C324 1.378 . S
C322 C326 1.350 . S
C323 C326 1.463 . S
C323 C328 1.350 . S
C323 N331 1.427 . S
C324 H315 0.930 . S
C324 C322 1.378 . S
C324 C325 1.367 . S
C325 C324 1.367 . S
C325 C327 1.433 . S
C326 C322 1.350 . S
C326 C323 1.463 . S
C326 N330 1.427 . S
C327 H317 0.929 . S
C327 C325 1.433 . S
C327 N330 1.384 . S
C328 H319 0.929 . S
C328 C320 1.378 . S
C328 C323 1.350 . S
C329 H316 0.929 . S
C329 C321 1.433 . S
C329 N331 1.384 . S
N330 C326 1.427 . S
N330 C327 1.384 . S
N331 C323 1.427 . S
N331 C329 1.384 . S
H332 C338 0.930 . S
H333 C342 0.930 . S
H334 C347 0.929 . S
H335 C345 0.929 1_554 S
H336 C340 0.929 . S
H337 C346 0.929 . S
C338 H332 0.930 . S
C338 C339 1.367 . S
C338 C346 1.378 . S
C339 C338 1.367 . S
C339 C347 1.433 . S
C340 H336 0.929 . S
C340 C342 1.378 . S
C340 C344 1.350 . S
C341 C344 1.463 . S
C341 C346 1.350 . S
C341 N349 1.427 . S
C342 H333 0.930 . S
C342 C340 1.378 . S
C342 C343 1.367 . S
C343 C342 1.367 . S
C343 C345 1.433 . S
C344 C340 1.350 . S
C344 C341 1.463 . S
C344 N348 1.427 . S
C345 H335 0.929 1_556 S
C345 C343 1.433 . S
C345 N348 1.384 . S
C346 H337 0.929 . S
C346 C338 1.378 . S
C346 C341 1.350 . S
C347 H334 0.929 . S
C347 C339 1.433 . S
C347 N349 1.384 . S
N348 C344 1.427 . S
N348 C345 1.384 . S
N349 C341 1.427 . S
N349 C347 1.384 . S
H350 C356 0.930 . S
H351 C360 0.930 . S
H352 C365 0.929 . S
H353 C363 0.929 . S
H354 C358 0.929 . S
H355 C364 0.929 . S
C356 H350 0.930 . S
C356 C357 1.367 . S
C356 C364 1.378 . S
C357 C356 1.367 . S
C357 C365 1.433 . S
C358 H354 0.929 . S
C358 C360 1.378 . S
C358 C362 1.350 . S
C359 C362 1.463 . S
C359 C364 1.350 . S
C359 N367 1.427 . S
C360 H351 0.930 . S
C360 C358 1.378 . S
C360 C361 1.367 . S
C361 C360 1.367 . S
C361 C363 1.433 . S
C362 C358 1.350 . S
C362 C359 1.463 . S
C362 N366 1.427 . S
C363 H353 0.929 . S
C363 C361 1.433 . S
C363 N366 1.384 . S
C364 H355 0.929 . S
C364 C356 1.378 . S
C364 C359 1.350 . S
C365 H352 0.929 . S
C365 C357 1.433 . S
C365 N367 1.384 . S
N366 C362 1.427 . S
N366 C363 1.384 . S
N367 C359 1.427 . S
N367 C365 1.384 . S
H368 C374 0.930 . S
H369 C378 0.930 . S
H370 C383 0.929 . S
H371 C381 0.929 1_556 S
H372 C376 0.929 . S
H373 C382 0.929 . S
C374 H368 0.930 . S
C374 C375 1.367 . S
C374 C382 1.378 . S
C375 C374 1.367 . S
C375 C383 1.433 . S
C376 H372 0.929 . S
C376 C378 1.378 . S
C376 C380 1.350 . S
C377 C380 1.463 . S
C377 C382 1.350 . S
C377 N385 1.427 . S
C378 H369 0.930 . S
C378 C376 1.378 . S
C378 C379 1.367 . S
C379 C378 1.367 . S
C379 C381 1.433 . S
C380 C376 1.350 . S
C380 C377 1.463 . S
C380 N384 1.427 . S
C381 H371 0.929 1_554 S
C381 C379 1.433 . S
C381 N384 1.384 . S
C382 H373 0.929 . S
C382 C374 1.378 . S
C382 C377 1.350 . S
C383 H370 0.929 . S
C383 C375 1.433 . S
C383 N385 1.384 . S
N384 C380 1.427 . S
N384 C381 1.384 . S
N385 C377 1.427 . S
N385 C383 1.384 . S
H386 C392 0.930 . S
H387 C396 0.930 1_554 S
H388 C401 0.929 . S
H389 C399 0.929 . S
H390 C394 0.929 . S
H391 C400 0.929 . S
C392 H386 0.930 . S
C392 C393 1.367 . S
C392 C400 1.378 . S
C393 C392 1.367 . S
C393 C401 1.433 . S
C394 H390 0.929 . S
C394 C396 1.378 . S
C394 C398 1.350 . S
C395 C398 1.463 . S
C395 C400 1.350 . S
C395 N403 1.427 . S
C396 H387 0.930 1_556 S
C396 C394 1.378 . S
C396 C397 1.367 . S
C397 C396 1.367 . S
C397 C399 1.433 . S
C398 C394 1.350 . S
C398 C395 1.463 . S
C398 N402 1.427 . S
C399 H389 0.929 . S
C399 C397 1.433 . S
C399 N402 1.384 . S
C400 H391 0.929 . S
C400 C392 1.378 . S
C400 C395 1.350 . S
C401 H388 0.929 . S
C401 C393 1.433 . S
C401 N403 1.384 . S
N402 C398 1.427 . S
N402 C399 1.384 . S
N403 C395 1.427 . S
N403 C401 1.384 . S
H404 C410 0.930 . S
H405 C414 0.930 . S
H406 C419 0.929 . S
H407 C417 0.931 . S
H408 C412 0.929 . S
H409 C418 0.929 . S
C410 H404 0.930 . S
C410 C411 1.367 . S
C410 C418 1.378 . S
C411 C410 1.367 . S
C411 C419 1.433 . S
C412 H408 0.929 . S
C412 C414 1.378 . S
C412 C416 1.350 . S
C413 C416 1.463 . S
C413 C418 1.350 . S
C413 N421 1.427 . S
C414 H405 0.930 . S
C414 C412 1.378 . S
C414 C415 1.367 1_655 S
C415 C414 1.367 1_455 S
C415 C417 1.433 . S
C416 C412 1.350 . S
C416 C413 1.463 . S
C416 N420 1.427 . S
C417 H407 0.931 . S
C417 C415 1.433 . S
C417 N420 1.382 1_455 S
C418 H409 0.929 . S
C418 C410 1.378 . S
C418 C413 1.350 . S
C419 H406 0.929 . S
C419 C411 1.433 . S
C419 N421 1.384 . S
N420 C416 1.427 . S
N420 C417 1.382 1_655 S
N421 C413 1.427 . S
N421 C419 1.384 . S
H422 C428 0.930 . S
H423 C432 0.930 . S
H424 C437 0.929 . S
H425 C435 0.929 . S
H426 C430 0.929 . S
H427 C436 0.929 . S
C428 H422 0.930 . S
C428 C429 1.367 . S
C428 C436 1.378 . S
C429 C428 1.367 . S
C429 C437 1.433 . S
C430 H426 0.929 . S
C430 C432 1.378 . S
C430 C434 1.350 . S
C431 C434 1.463 . S
C431 C436 1.350 . S
C431 N439 1.427 . S
C432 H423 0.930 . S
C432 C430 1.378 . S
C432 C433 1.367 . S
C433 C432 1.367 . S
C433 C435 1.433 . S
C434 C430 1.350 . S
C434 C431 1.463 . S
C434 N438 1.427 . S
C435 H425 0.929 . S
C435 C433 1.433 . S
C435 N438 1.384 . S
C436 H427 0.929 . S
C436 C428 1.378 . S
C436 C431 1.350 . S
C437 H424 0.929 . S
C437 C429 1.433 . S
C437 N439 1.384 . S
N438 C434 1.427 . S
N438 C435 1.384 . S
N439 C431 1.427 . S
N439 C437 1.384 . S
H440 C446 0.930 . S
H441 C450 0.930 1_545 S
H442 C455 0.929 . S
H443 C453 0.929 . S
H444 C448 0.929 1_445 S
H445 C454 0.929 . S
C446 H440 0.930 . S
C446 C447 1.367 . S
C446 C454 1.378 . S
C447 C446 1.367 . S
C447 C455 1.433 . S
C448 H444 0.929 1_665 S
C448 C450 1.378 1_655 S
C448 C452 1.350 . S
C449 C452 1.463 . S
C449 C454 1.350 . S
C449 N457 1.427 . S
C450 H441 0.930 1_565 S
C450 C448 1.378 1_455 S
C450 C451 1.367 . S
C451 C450 1.367 . S
C451 C453 1.433 1_455 S
C452 C448 1.350 . S
C452 C449 1.463 . S
C452 N456 1.427 . S
C453 H443 0.929 . S
C453 C451 1.433 1_655 S
C453 N456 1.384 . S
C454 H445 0.929 . S
C454 C446 1.378 . S
C454 C449 1.350 . S
C455 H442 0.929 . S
C455 C447 1.433 . S
C455 N457 1.384 . S
N456 C452 1.427 . S
N456 C453 1.384 . S
N457 C449 1.427 . S
N457 C455 1.384 . S
H458 C464 0.930 . S
H459 C468 0.930 . S
H460 C473 0.929 . S
H461 C471 0.929 . S
H462 C466 0.929 . S
H463 C472 0.929 . S
C464 H458 0.930 . S
C464 C465 1.367 . S
C464 C472 1.378 . S
C465 C464 1.367 . S
C465 C473 1.433 . S
C466 H462 0.929 . S
C466 C468 1.378 . S
C466 C470 1.350 . S
C467 C470 1.463 . S
C467 C472 1.350 . S
C467 N475 1.427 . S
C468 H459 0.930 . S
C468 C466 1.378 . S
C468 C469 1.367 . S
C469 C468 1.367 . S
C469 C471 1.433 . S
C470 C466 1.350 . S
C470 C467 1.463 . S
C470 N474 1.427 . S
C471 H461 0.929 . S
C471 C469 1.433 . S
C471 N474 1.384 . S
C472 H463 0.929 . S
C472 C464 1.378 . S
C472 C467 1.350 . S
C473 H460 0.929 . S
C473 C465 1.433 . S
C473 N475 1.384 . S
N474 C470 1.427 . S
N474 C471 1.384 . S
N475 C467 1.427 . S
N475 C473 1.384 . S
H476 C482 0.930 . S
H477 C486 0.930 . S
H478 C491 0.929 . S
H479 C489 0.929 . S
H480 C484 0.929 . S
H481 C490 0.929 . S
C482 H476 0.930 . S
C482 C483 1.367 . S
C482 C490 1.378 . S
C483 C482 1.367 . S
C483 C491 1.433 . S
C484 H480 0.929 . S
C484 C486 1.378 . S
C484 C488 1.350 . S
C485 C488 1.463 . S
C485 C490 1.350 . S
C485 N493 1.427 . S
C486 H477 0.930 . S
C486 C484 1.378 . S
C486 C487 1.367 . S
C487 C486 1.367 . S
C487 C489 1.433 . S
C488 C484 1.350 . S
C488 C485 1.463 . S
C488 N492 1.427 . S
C489 H479 0.929 . S
C489 C487 1.433 . S
C489 N492 1.384 . S
C490 H481 0.929 . S
C490 C482 1.378 . S
C490 C485 1.350 . S
C491 H478 0.929 . S
C491 C483 1.433 . S
C491 N493 1.384 . S
N492 C488 1.427 . S
N492 C489 1.384 . S
N493 C485 1.427 . S
N493 C491 1.384 . S
H494 C500 0.930 . S
H495 C504 0.930 . S
H496 C509 0.929 . S
H497 C507 0.929 . S
H498 C502 0.929 . S
H499 C508 0.929 . S
C500 H494 0.930 . S
C500 C501 1.367 . S
C500 C508 1.378 . S
C501 C500 1.367 . S
C501 C509 1.433 . S
C502 H498 0.929 . S
C502 C504 1.378 . S
C502 C506 1.350 . S
C503 C506 1.463 . S
C503 C508 1.350 . S
C503 N511 1.427 . S
C504 H495 0.930 . S
C504 C502 1.378 . S
C504 C505 1.367 . S
C505 C504 1.367 . S
C505 C507 1.433 . S
C506 C502 1.350 . S
C506 C503 1.463 . S
C506 N510 1.427 . S
C507 H497 0.929 . S
C507 C505 1.433 . S
C507 N510 1.384 . S
C508 H499 0.929 . S
C508 C500 1.378 . S
C508 C503 1.350 . S
C509 H496 0.929 . S
C509 C501 1.433 . S
C509 N511 1.384 . S
N510 C506 1.427 . S
N510 C507 1.384 . S
N511 C503 1.427 . S
N511 C509 1.384 . S
H512 C518 0.930 . S
H513 C522 0.930 . S
H514 C527 0.929 . S
H515 C525 0.929 . S
H516 C520 0.929 . S
H517 C526 0.929 . S
C518 H512 0.930 . S
C518 C519 1.367 . S
C518 C526 1.378 . S
C519 C518 1.367 . S
C519 C527 1.433 . S
C520 H516 0.929 . S
C520 C522 1.378 . S
C520 C524 1.350 1_545 S
C521 C524 1.463 . S
C521 C526 1.350 . S
C521 N529 1.427 . S
C522 H513 0.930 . S
C522 C520 1.378 . S
C522 C523 1.367 1_545 S
C523 C522 1.367 1_565 S
C523 C525 1.433 1_556 S
C524 C520 1.350 1_565 S
C524 C521 1.463 . S
C524 N528 1.427 . S
C525 H515 0.929 . S
C525 C523 1.433 1_554 S
C525 N528 1.384 1_554 S
C526 H517 0.929 . S
C526 C518 1.378 . S
C526 C521 1.350 . S
C527 H514 0.929 . S
C527 C519 1.433 . S
C527 N529 1.384 . S
N528 C524 1.427 . S
N528 C525 1.384 1_556 S
N529 C521 1.427 . S
N529 C527 1.384 . S
H530 C536 0.930 . S
H531 C540 0.930 . S
H532 C545 0.929 . S
H533 C543 0.929 . S
H534 C538 0.929 . S
H535 C544 0.929 . S
C536 H530 0.930 . S
C536 C537 1.367 . S
C536 C544 1.378 . S
C537 C536 1.367 . S
C537 C545 1.433 . S
C538 H534 0.929 . S
C538 C540 1.378 . S
C538 C542 1.350 . S
C539 C542 1.463 . S
C539 C544 1.350 . S
C539 N547 1.427 . S
C540 H531 0.930 . S
C540 C538 1.378 . S
C540 C541 1.367 . S
C541 C540 1.367 . S
C541 C543 1.433 . S
C542 C538 1.350 . S
C542 C539 1.463 . S
C542 N546 1.427 . S
C543 H533 0.929 . S
C543 C541 1.433 . S
C543 N546 1.384 . S
C544 H535 0.929 . S
C544 C536 1.378 . S
C544 C539 1.350 . S
C545 H532 0.929 . S
C545 C537 1.433 . S
C545 N547 1.384 . S
N546 C542 1.427 . S
N546 C543 1.384 . S
N547 C539 1.427 . S
N547 C545 1.384 . S
H548 C554 0.930 . S
H549 C558 0.930 . S
H550 C563 0.929 . S
H551 C561 0.929 1_556 S
H552 C556 0.929 . S
H553 C562 0.929 . S
C554 H548 0.930 . S
C554 C555 1.367 . S
C554 C562 1.378 . S
C555 C554 1.367 . S
C555 C563 1.433 . S
C556 H552 0.929 . S
C556 C558 1.378 . S
C556 C560 1.350 . S
C557 C560 1.463 . S
C557 C562 1.350 . S
C557 N565 1.427 . S
C558 H549 0.930 . S
C558 C556 1.378 . S
C558 C559 1.367 . S
C559 C558 1.367 . S
C559 C561 1.433 . S
C560 C556 1.350 . S
C560 C557 1.463 . S
C560 N564 1.427 . S
C561 H551 0.929 1_554 S
C561 C559 1.433 . S
C561 N564 1.384 . S
C562 H553 0.929 . S
C562 C554 1.378 . S
C562 C557 1.350 . S
C563 H550 0.929 . S
C563 C555 1.433 . S
C563 N565 1.384 . S
N564 C560 1.427 . S
N564 C561 1.384 . S
N565 C557 1.427 . S
N565 C563 1.384 . S
H566 C572 0.930 . S
H567 C576 0.930 . S
H568 C581 0.929 . S
H569 C579 0.929 . S
H570 C574 0.929 . S
H571 C580 0.929 . S
C572 H566 0.930 . S
C572 C573 1.367 . S
C572 C580 1.378 . S
C573 C572 1.367 . S
C573 C581 1.433 . S
C574 H570 0.929 . S
C574 C576 1.378 . S
C574 C578 1.350 . S
C575 C578 1.463 . S
C575 C580 1.350 . S
C575 N583 1.427 . S
C576 H567 0.930 . S
C576 C574 1.378 . S
C576 C577 1.367 . S
C577 C576 1.367 . S
C577 C579 1.433 . S
C578 C574 1.350 . S
C578 C575 1.463 . S
C578 N582 1.427 . S
C579 H569 0.929 . S
C579 C577 1.433 . S
C579 N582 1.384 . S
C580 H571 0.929 . S
C580 C572 1.378 . S
C580 C575 1.350 . S
C581 H568 0.929 . S
C581 C573 1.433 . S
C581 N583 1.384 . S
N582 C578 1.427 . S
N582 C579 1.384 . S
N583 C575 1.427 . S
N583 C581 1.384 . S
H584 C590 0.930 . S
H585 C594 0.930 . S
H586 C599 0.929 . S
H587 C597 0.929 1_554 S
H588 C592 0.929 . S
H589 C598 0.929 . S
C590 H584 0.930 . S
C590 C591 1.367 . S
C590 C598 1.378 . S
C591 C590 1.367 . S
C591 C599 1.433 . S
C592 H588 0.929 . S
C592 C594 1.378 . S
C592 C596 1.350 . S
C593 C596 1.463 . S
C593 C598 1.350 . S
C593 N601 1.427 . S
C594 H585 0.930 . S
C594 C592 1.378 . S
C594 C595 1.367 . S
C595 C594 1.367 . S
C595 C597 1.433 . S
C596 C592 1.350 . S
C596 C593 1.463 . S
C596 N600 1.427 . S
C597 H587 0.929 1_556 S
C597 C595 1.433 . S
C597 N600 1.384 . S
C598 H589 0.929 . S
C598 C590 1.378 . S
C598 C593 1.350 . S
C599 H586 0.929 . S
C599 C591 1.433 . S
C599 N601 1.384 . S
N600 C596 1.427 . S
N600 C597 1.384 . S
N601 C593 1.427 . S
N601 C599 1.384 . S
H602 C608 0.930 . S
H603 C612 0.930 . S
H604 C617 0.929 . S
H605 C615 0.929 . S
H606 C610 0.929 . S
H607 C616 0.929 . S
C608 H602 0.930 . S
C608 C609 1.367 . S
C608 C616 1.378 . S
C609 C608 1.367 . S
C609 C617 1.433 . S
C610 H606 0.929 . S
C610 C612 1.378 . S
C610 C614 1.350 . S
C611 C614 1.463 . S
C611 C616 1.350 . S
C611 N619 1.427 . S
C612 H603 0.930 . S
C612 C610 1.378 . S
C612 C613 1.367 . S
C613 C612 1.367 . S
C613 C615 1.433 . S
C614 C610 1.350 . S
C614 C611 1.463 . S
C614 N618 1.427 . S
C615 H605 0.929 . S
C615 C613 1.433 . S
C615 N618 1.384 . S
C616 H607 0.929 . S
C616 C608 1.378 . S
C616 C611 1.350 . S
C617 H604 0.929 . S
C617 C609 1.433 . S
C617 N619 1.384 . S
N618 C614 1.427 . S
N618 C615 1.384 . S
N619 C611 1.427 . S
N619 C617 1.384 . S
H620 C626 0.930 . S
H621 C630 0.930 . S
H622 C635 0.929 . S
H623 C633 0.929 . S
H624 C628 0.929 . S
H625 C634 0.929 . S
C626 H620 0.930 . S
C626 C627 1.367 . S
C626 C634 1.378 . S
C627 C626 1.367 . S
C627 C635 1.433 . S
C628 H624 0.929 . S
C628 C630 1.378 . S
C628 C632 1.350 . S
C629 C632 1.463 . S
C629 C634 1.350 . S
C629 N637 1.427 . S
C630 H621 0.930 . S
C630 C628 1.378 . S
C630 C631 1.367 . S
C631 C630 1.367 . S
C631 C633 1.433 . S
C632 C628 1.350 . S
C632 C629 1.463 . S
C632 N636 1.427 . S
C633 H623 0.929 . S
C633 C631 1.433 . S
C633 N636 1.384 . S
C634 H625 0.929 . S
C634 C626 1.378 . S
C634 C629 1.350 . S
C635 H622 0.929 . S
C635 C627 1.433 . S
C635 N637 1.384 . S
N636 C632 1.427 . S
N636 C633 1.384 . S
N637 C629 1.427 . S
N637 C635 1.384 . S
H638 C644 0.930 . S
H639 C648 0.930 . S
H640 C653 0.929 . S
H641 C651 0.929 . S
H642 C646 0.929 . S
H643 C652 0.929 . S
C644 H638 0.930 . S
C644 C645 1.367 . S
C644 C652 1.378 . S
C645 C644 1.367 . S
C645 C653 1.433 . S
C646 H642 0.929 . S
C646 C648 1.378 . S
C646 C650 1.350 . S
C647 C650 1.463 . S
C647 C652 1.350 . S
C647 N655 1.427 . S
C648 H639 0.930 . S
C648 C646 1.378 . S
C648 C649 1.367 . S
C649 C648 1.367 . S
C649 C651 1.433 . S
C650 C646 1.350 . S
C650 C647 1.463 . S
C650 N654 1.427 . S
C651 H641 0.929 . S
C651 C649 1.433 . S
C651 N654 1.384 . S
C652 H643 0.929 . S
C652 C644 1.378 . S
C652 C647 1.350 . S
C653 H640 0.929 . S
C653 C645 1.433 . S
C653 N655 1.384 . S
N654 C650 1.427 . S
N654 C651 1.384 . S
N655 C647 1.427 . S
N655 C653 1.384 . S
C231 N1 2.027 . S
C235 C120 2.106 . S
C249 N18 1.395 . S
C253 N140 1.357 . S
C271 C174 1.509 . S
C267 N28 1.509 . S
C285 N40 1.374 . S
C289 N208 1.351 . S
C307 C161 2.625 . S
C303 N5 2.580 . S
C325 N118 1.164 . S
C321 N14 1.193 . S
C343 C195 1.938 . S
C339 N31 1.905 . S
C361 N170 0.714 . S
C357 N41 0.695 . S
C375 N2 1.705 . S
C379 C210 1.719 . S
C397 C144 1.741 . S
C393 N27 1.704 . S
C411 N44 1.510 . S
C415 C105 1.557 . S
C429 N15 1.211 . S
C433 C191 1.219 . S
C451 C131 2.424 . S
C447 N57 2.411 . S
C465 N70 0.983 . S
C469 N148 0.955 . S
C483 N79 1.769 . S
C487 C165 1.826 . S
C501 N93 1.110 . S
C505 N200 1.083 . S
C519 N54 2.230 . S
C523 C150 2.239 1_556 S
C541 N110 1.519 . S
C537 N66 1.554 . S
C559 C204 1.452 . S
C555 N80 1.441 . S
C577 N178 0.970 . S
C573 N96 0.979 . S
C591 N53 1.740 . S
C595 C221 1.772 . S
C613 C135 1.632 . S
C609 N83 1.591 . S
C631 C114 1.565 . S
C627 N92 1.535 . S
C645 N67 1.218 . S
C649 C180 1.228 . S
