# Generated by pormake.
# Topology anh, (6,3)-cn, num edge types: 1
# Building blocks:
#     Node 0, Type 0, BuildingBlock: HISSIN_clean_sbu_0, # of connection points: 6
#     Node 1, Type 0, BuildingBlock: HISSIN_clean_sbu_0, # of connection points: 6
#     Node 2, Type 0, BuildingBlock: HISSIN_clean_sbu_0, # of connection points: 6
#     Node 3, Type 1, BuildingBlock: BETDIP_clean_linker_0, # of connection points: 3
#     Node 4, Type 1, BuildingBlock: BETDIP_clean_linker_0, # of connection points: 3
#     Node 5, Type 1, BuildingBlock: BETDIP_clean_linker_0, # of connection points: 3
#     Node 6, Type 1, BuildingBlock: BETDIP_clean_linker_0, # of connection points: 3
#     Node 7, Type 1, BuildingBlock: BETDIP_clean_linker_0, # of connection points: 3
#     Node 8, Type 1, BuildingBlock: BETDIP_clean_linker_0, # of connection points: 3
#     Edge 9, Type (0, 1), BuildingBlock: AJUNOK_clean_linker_0, # of connection points: 2
#     Edge 10, Type (0, 1), BuildingBlock: AJUNOK_clean_linker_0, # of connection points: 2
#     Edge 11, Type (0, 1), BuildingBlock: AJUNOK_clean_linker_0, # of connection points: 2
#     Edge 12, Type (0, 1), BuildingBlock: AJUNOK_clean_linker_0, # of connection points: 2
#     Edge 13, Type (0, 1), BuildingBlock: AJUNOK_clean_linker_0, # of connection points: 2
#     Edge 14, Type (0, 1), BuildingBlock: AJUNOK_clean_linker_0, # of connection points: 2
#     Edge 15, Type (0, 1), BuildingBlock: AJUNOK_clean_linker_0, # of connection points: 2
#     Edge 16, Type (0, 1), BuildingBlock: AJUNOK_clean_linker_0, # of connection points: 2
#     Edge 17, Type (0, 1), BuildingBlock: AJUNOK_clean_linker_0, # of connection points: 2
#     Edge 18, Type (0, 1), BuildingBlock: AJUNOK_clean_linker_0, # of connection points: 2
#     Edge 19, Type (0, 1), BuildingBlock: AJUNOK_clean_linker_0, # of connection points: 2
#     Edge 20, Type (0, 1), BuildingBlock: AJUNOK_clean_linker_0, # of connection points: 2
#     Edge 21, Type (0, 1), BuildingBlock: AJUNOK_clean_linker_0, # of connection points: 2
#     Edge 22, Type (0, 1), BuildingBlock: AJUNOK_clean_linker_0, # of connection points: 2
#     Edge 23, Type (0, 1), BuildingBlock: AJUNOK_clean_linker_0, # of connection points: 2
#     Edge 24, Type (0, 1), BuildingBlock: AJUNOK_clean_linker_0, # of connection points: 2
#     Edge 25, Type (0, 1), BuildingBlock: AJUNOK_clean_linker_0, # of connection points: 2
#     Edge 26, Type (0, 1), BuildingBlock: AJUNOK_clean_linker_0, # of connection points: 2
# Relax obj value: 0.370
# Max RMSD: 0.198
# Mean RMSD: 0.133
data_MOF--net-anh--node1-HISSIN_clean_sbu_0--node2-BETDIP_clean_linker_0--edge1-AJUNOK_clean_linker_0
_symmetry_space_group_name_H-M    P1
_symmetry_Int_Tables_number       1
_symmetry_cell_setting            triclinic
loop_
_symmetry_equiv_pos_as_xyz
'x, y, z'
_cell_length_a     21.780817
_cell_length_b     21.480759
_cell_length_c     37.27804
_cell_angle_alpha  96.998921
_cell_angle_beta   88.34548
_cell_angle_gamma 120.32036
loop_
_atom_site_label
_atom_site_type_symbol
_atom_site_fract_x
_atom_site_fract_y
_atom_site_fract_z
_atom_type_partial_charge
Eu0 Eu 1.18946 0.58817 0.12617 0.0
Eu1 Eu 0.2579 0.76135 0.1489 0.0
C2 C 1.19944 0.65564 0.21009 0.0
C3 C 1.0464 0.40896 0.1331 0.0
C4 C 1.04961 0.40357 0.17015 0.0
C5 C 0.93418 0.40645 0.14177 0.0
C6 C 1.00096 0.40966 0.1933 0.0
C7 C 0.98425 0.40268 0.11868 0.0
C8 C 0.94559 0.41658 0.17953 0.0
C9 C 1.11423 0.44813 0.11444 0.0
O10 O 0.35427 0.74687 0.13882 0.0
O11 O 0.30259 0.62479 0.14321 0.0
C12 C 0.35957 0.68902 0.14178 0.0
O13 O 0.25865 0.6377 0.07944 0.0
O14 O 0.33145 0.86677 0.17834 0.0
O15 O 0.25257 0.85705 0.14025 0.0
O16 O 0.25172 0.74088 0.0884 0.0
C17 C 0.27083 0.69897 0.0689 0.0
O18 O 1.108 0.61821 0.11151 0.0
O19 O 1.13873 0.71211 0.15569 0.0
O20 O 0.24776 0.71974 0.20208 0.0
O21 O 1.11505 0.48956 0.09125 0.0
O22 O 1.17151 0.48195 0.13558 0.0
O23 O 1.16208 0.60131 0.18483 0.0
C24 C 0.36094 0.96792 0.14821 0.0
C25 C 0.41498 0.97023 0.12599 0.0
C26 C 0.41747 1.09853 0.15319 0.0
C27 C 0.47174 1.03724 0.11845 0.0
C28 C 0.3608 1.03188 0.1603 0.0
C29 C 0.47544 1.10251 0.13355 0.0
C30 C 0.30752 0.90086 0.16177 0.0
C31 C 1.09105 0.66092 0.13217 0.0
H32 H 1.09553 0.40579 0.18211 0.0
H33 H 0.89038 0.40861 0.13015 0.0
H34 H 1.012 0.41704 0.22205 0.0
H35 H 0.97884 0.40454 0.09009 0.0
H36 H 0.41534 0.9208 0.11626 0.0
H37 H 0.41852 1.1469 0.16628 0.0
H38 H 0.51526 1.03824 0.10321 0.0
H39 H 0.31917 1.03075 0.17736 0.0
Eu40 Eu 0.66971 1.06597 0.46356 0.0
Eu41 Eu 0.57613 1.14486 0.48653 0.0
C42 C 0.64569 1.10109 0.54887 0.0
C43 C 0.79482 0.9908 0.45893 0.0
C44 C 0.83513 1.03814 0.48937 0.0
C45 C 0.8587 0.92593 0.46033 0.0
C46 C 0.88676 1.02904 0.50539 0.0
C47 C 0.80731 0.93526 0.44425 0.0
C48 C 0.89807 0.97201 0.49137 0.0
C49 C 0.73717 0.9965 0.44352 0.0
O50 O 0.68446 0.22953 0.46896 0.0
O51 O 0.75417 0.18271 0.48108 0.0
C52 C 0.74781 0.23701 0.47295 0.0
O53 O 0.66166 1.11418 0.41458 0.0
O54 O 0.56195 0.22388 0.52277 0.0
O55 O 0.49543 0.17194 0.47403 0.0
O56 O 0.55689 1.10999 0.42686 0.0
C57 C 0.60778 1.12017 0.40466 0.0
O58 O 0.55298 0.9829 0.45099 0.0
O59 O 0.49668 1.02642 0.49031 0.0
O60 O 0.61044 1.13214 0.5401 0.0
O61 O 0.67821 0.96874 0.46092 0.0
O62 O 0.75446 1.0595 0.4339 0.0
O63 O 0.67127 1.07144 0.52449 0.0
C64 C 0.5442 0.29862 0.48946 0.0
C65 C 0.58422 0.31916 0.45834 0.0
C66 C 0.58662 0.42552 0.51033 0.0
C67 C 0.62728 0.39255 0.45398 0.0
C68 C 0.5428 0.35209 0.51442 0.0
C69 C 0.63253 0.44647 0.4812 0.0
C70 C 0.51888 0.22595 0.50003 0.0
C71 C 0.49673 0.97244 0.46944 0.0
H72 H 0.82582 1.08127 0.50103 0.0
H73 H 0.86612 0.88129 0.44918 0.0
H74 H 0.91721 1.06598 0.52895 0.0
H75 H 0.77626 0.89815 0.42085 0.0
H76 H 0.58711 0.27902 0.43896 0.0
H77 H 0.58966 0.46575 0.5319 0.0
H78 H 0.6611 0.40716 0.43097 0.0
H79 H 0.51295 0.33748 0.53876 0.0
Eu80 Eu 0.60833 0.53802 0.80558 0.0
Eu81 Eu 0.77236 0.63387 0.83619 0.0
C82 C 0.65094 0.5893 0.88896 0.0
C83 C 0.44426 0.51909 0.77456 0.0
C84 C 0.40037 0.53059 0.79956 0.0
C85 C 0.4872 0.63919 0.75699 0.0
C86 C 0.40747 0.5994 0.80635 0.0
C87 C 0.48018 0.5705 0.75017 0.0
C88 C 0.45791 0.65619 0.78789 0.0
C89 C 0.47573 0.47612 0.78432 0.0
O90 O 0.75873 0.5259 0.81069 0.0
O91 O 0.63876 0.4561 0.81773 0.0
C92 C 0.70122 0.46177 0.81193 0.0
O93 O 0.67237 0.55829 0.75477 0.0
O94 O 0.86027 0.64404 0.86771 0.0
O95 O 0.86777 0.73952 0.84926 0.0
O96 O 0.78774 0.63587 0.77737 0.0
C97 C 0.74113 0.60033 0.75046 0.0
O98 O 0.64454 0.65009 0.79174 0.0
O99 O 0.73237 0.71397 0.83561 0.0
O100 O 0.70336 0.57871 0.8804 0.0
O101 O 0.52436 0.47549 0.76327 0.0
O102 O 0.49604 0.48879 0.81833 0.0
O103 O 0.61248 0.59096 0.86311 0.0
C104 C 0.97299 0.73646 0.85314 0.0
C105 C 0.98623 0.69906 0.82319 0.0
C106 C 1.09922 0.81784 0.86397 0.0
C107 C 1.05628 0.71992 0.81432 0.0
C108 C 1.02956 0.79686 0.87285 0.0
C109 C 1.11338 0.77882 0.83507 0.0
C110 C 0.90082 0.71301 0.86472 0.0
C111 C 0.69059 0.71202 0.81011 0.0
H112 H 0.37054 0.49126 0.81808 0.0
H113 H 0.52384 0.6815 0.74141 0.0
H114 H 0.38208 0.61091 0.82957 0.0
H115 H 0.51254 0.56255 0.72957 0.0
H116 H 0.94259 0.65263 0.80746 0.0
H117 H 1.14199 0.86203 0.88118 0.0
H118 H 1.06592 0.68864 0.79218 0.0
H119 H 1.0199 0.82633 0.8959 0.0
H120 H 0.70635 0.4301 0.218 0.0
H121 H 0.68783 0.39277 0.32956 0.0
H122 H 0.62054 0.21325 0.24589 0.0
H123 H 0.82284 0.60065 0.27257 0.0
C124 C 0.80622 0.5435 0.27121 0.0
C125 C 0.6909 0.39295 0.23813 0.0
C126 C 0.6617 0.31837 0.22724 0.0
C127 C 0.70169 0.41997 0.27515 0.0
C128 C 0.67962 0.37167 0.30115 0.0
C129 C 0.653 0.29737 0.29048 0.0
C130 C 0.64382 0.27124 0.25374 0.0
N131 N 0.74069 0.49595 0.28653 0.0
H132 H 0.95056 0.76371 0.52365 0.0
H133 H 0.97167 0.77963 0.63929 0.0
H134 H 0.76923 0.63376 0.5842 0.0
H135 H 1.12938 0.90357 0.55035 0.0
C136 C 1.07494 0.88511 0.55799 0.0
C137 C 0.92675 0.74975 0.54951 0.0
C138 C 0.85402 0.69858 0.55062 0.0
C139 C 0.96911 0.77975 0.58179 0.0
C140 C 0.93862 0.75638 0.61467 0.0
C141 C 0.86617 0.70388 0.61584 0.0
C142 C 0.82436 0.67676 0.58381 0.0
N143 N 1.04327 0.83078 0.58171 0.0
H144 H 0.46394 0.91316 0.85286 0.0
H145 H 0.52399 0.88917 0.95706 0.0
H146 H 0.30644 0.76001 0.91731 0.0
H147 H 0.64611 0.99614 0.85299 0.0
C148 C 0.60425 0.94817 0.86353 0.0
C149 C 0.44974 0.88662 0.87717 0.0
C150 C 0.37909 0.83386 0.88165 0.0
C151 C 0.5025 0.9058 0.90392 0.0
C152 C 0.48369 0.87338 0.93604 0.0
C153 C 0.41304 0.81868 0.94028 0.0
C154 C 0.36156 0.79914 0.91296 0.0
N155 N 0.57493 0.955 0.89744 0.0
H156 H 1.18293 0.64806 0.47024 0.0
H157 H 1.07747 0.53951 0.36611 0.0
H158 H 0.27811 0.73846 0.37267 0.0
H159 H 0.98181 0.5145 0.40063 0.0
C160 C 0.99335 0.49288 0.4227 0.0
C161 C 1.18123 0.64534 0.44105 0.0
C162 C 0.23765 0.70035 0.4237 0.0
C163 C 1.12223 0.58701 0.42052 0.0
C164 C 1.12148 0.58411 0.38242 0.0
C165 C 1.17703 0.63887 0.36504 0.0
C166 C 0.23463 0.69633 0.38594 0.0
N167 N 1.06424 0.53187 0.43814 0.0
H168 H 0.71728 0.15311 0.80996 0.0
H169 H 0.68958 1.02188 0.70766 0.0
H170 H 0.69888 0.2267 0.71067 0.0
H171 H 0.75827 0.99126 0.7367 0.0
C172 C 0.73477 0.98203 0.76301 0.0
C173 C 0.71127 1.14494 0.78073 0.0
C174 C 0.70869 0.19756 0.76247 0.0
C175 C 0.7078 1.08251 0.76112 0.0
C176 C 0.69751 1.07162 0.72304 0.0
C177 C 0.69407 1.12326 0.70465 0.0
C178 C 0.70096 0.18632 0.72465 0.0
N179 N 0.71255 1.03047 0.77991 0.0
H180 H 0.67365 0.6861 0.14965 0.0
H181 H 0.75281 0.64557 0.04728 0.0
H182 H 0.56973 0.67093 0.04948 0.0
H183 H 0.77586 0.57606 0.08303 0.0
C184 C 0.80665 0.62022 0.10428 0.0
C185 C 0.67021 0.67809 0.12037 0.0
C186 C 0.61541 0.68035 0.10184 0.0
C187 C 0.72022 0.6648 0.10084 0.0
C188 C 0.7147 0.65485 0.06274 0.0
C189 C 0.66079 0.65725 0.04418 0.0
C190 C 0.61157 0.66961 0.06388 0.0
N191 N 0.77666 0.66338 0.11921 0.0
C192 C 0.48647 0.74958 0.12178 0.0
C193 C 0.43059 0.69353 0.13865 0.0
C194 C 0.54897 0.74805 0.11264 0.0
C195 C 0.5591 0.69117 0.12049 0.0
H196 H 0.48029 0.79282 0.11354 0.0
H197 H 0.58823 0.78981 0.09753 0.0
S198 S 0.43348 0.53554 0.16798 0.0
N199 N 0.39295 0.58251 0.16565 0.0
N200 N 0.51033 0.58041 0.14852 0.0
C201 C 0.50605 0.63753 0.13948 0.0
C202 C 0.44195 0.63849 0.1485 0.0
C203 C 0.88032 0.33124 0.47633 0.0
C204 C 0.8112 0.30292 0.46118 0.0
C205 C 0.93982 0.39292 0.46436 0.0
C206 C 0.93244 0.4273 0.43621 0.0
H207 H 0.88834 0.30612 0.49783 0.0
H208 H 0.99167 0.41346 0.4771 0.0
S209 S 0.76451 0.37178 0.38593 0.0
N210 N 0.74038 0.31342 0.41565 0.0
N211 N 0.85103 0.42623 0.39272 0.0
C212 C 0.86405 0.39804 0.42033 0.0
C213 C 0.80381 0.3369 0.43294 0.0
C214 C 0.72172 0.84413 0.82398 0.0
C215 C 0.69887 0.78068 0.79918 0.0
C216 C 0.73056 0.90895 0.81293 0.0
C217 C 0.71826 0.91282 0.77657 0.0
H218 H 0.73249 0.84362 0.85209 0.0
H219 H 0.74885 0.95664 0.83271 0.0
S220 S 0.66192 0.76435 0.70068 0.0
N221 N 0.66632 0.72792 0.73632 0.0
N222 N 0.68394 0.84865 0.71594 0.0
C223 C 0.69612 0.85023 0.7517 0.0
C224 C 0.68609 0.78451 0.76288 0.0
C225 C 0.96917 0.59687 0.10142 0.0
C226 C 1.01826 0.65187 0.12748 0.0
C227 C 0.90148 0.58748 0.09511 0.0
C228 C 0.87874 0.63246 0.11435 0.0
H229 H 0.98305 0.56052 0.08537 0.0
H230 H 0.86666 0.54458 0.07442 0.0
S231 S 0.98413 0.78233 0.18715 0.0
N232 N 1.03729 0.75055 0.174 0.0
N233 N 0.91017 0.73277 0.16183 0.0
C234 C 0.92627 0.68685 0.14107 0.0
C235 C 0.99573 0.69649 0.14767 0.0
C236 C 0.36264 0.8912 0.47004 0.0
C237 C 0.43034 0.89929 0.46354 0.0
C238 C 0.29949 0.82445 0.45994 0.0
C239 C 0.30171 0.76309 0.44344 0.0
H240 H 0.35821 0.93766 0.48125 0.0
H241 H 0.24876 0.82201 0.46313 0.0
S242 S 0.46409 0.75197 0.42463 0.0
N243 N 0.49457 0.83691 0.44267 0.0
N244 N 0.37649 0.71287 0.42377 0.0
C245 C 0.36866 0.76919 0.43889 0.0
C246 C 0.43271 0.83678 0.44894 0.0
C247 C 0.76508 0.39691 0.78619 0.0
C248 C 0.7061 0.3943 0.80417 0.0
C249 C 0.76758 0.33332 0.77485 0.0
C250 C 0.71202 0.26445 0.78163 0.0
H251 H 0.80839 0.44813 0.77929 0.0
H252 H 0.8122 0.33771 0.75938 0.0
S253 S 0.54825 0.22717 0.83007 0.0
N254 N 0.59237 0.31626 0.83 0.0
N255 N 0.59804 0.19752 0.80893 0.0
C256 C 0.65449 0.26115 0.80108 0.0
C257 C 0.65129 0.32576 0.81226 0.0
C258 C 0.99787 0.94597 0.48981 0.0
C259 C 0.94813 0.95778 0.50985 0.0
C260 C 1.04122 0.92574 0.50614 0.0
C261 C 1.03534 0.91563 0.54281 0.0
H262 H 1.00239 0.95117 0.46117 0.0
H263 H 1.07739 0.91497 0.48964 0.0
S264 S 0.91815 0.94588 0.60788 0.0
N265 N 0.89826 0.9615 0.56879 0.0
N266 N 0.98145 0.92578 0.59963 0.0
C267 C 0.98854 0.93081 0.56359 0.0
C268 C 0.94434 0.95121 0.54702 0.0
C269 C 1.19863 0.73454 0.83506 0.0
C270 C 1.18665 0.79208 0.83178 0.0
C271 C 0.26506 0.74839 0.84711 0.0
C272 C 0.32111 0.8201 0.85644 0.0
H273 H 1.15473 0.67894 0.83227 0.0
H274 H 0.2705 0.70294 0.85254 0.0
S275 S 0.3213 0.98836 0.84258 0.0
N276 N 0.23974 0.92195 0.83043 0.0
N277 N 0.36425 0.9486 0.85451 0.0
C278 C 0.31256 0.87751 0.84817 0.0
C279 C 0.24514 0.86324 0.83546 0.0
C280 C 0.60369 0.17065 0.15155 0.0
C281 C 0.54471 0.17209 0.13809 0.0
C282 C 0.65247 0.22752 0.17647 0.0
C283 C 0.64254 0.28621 0.18892 0.0
H284 H 0.60636 1.1213 0.14762 0.0
H285 H 0.69106 0.21997 0.19015 0.0
S286 S 0.51912 0.33104 0.14768 0.0
N287 N 0.49747 0.24957 0.12721 0.0
N288 N 0.58612 0.35462 0.1762 0.0
C289 C 0.59469 0.29595 0.1692 0.0
C290 C 0.54637 0.23893 0.14297 0.0
C291 C 0.68624 0.58108 0.49617 0.0
C292 C 0.69503 0.5214 0.48425 0.0
C293 C 0.74315 0.64642 0.51282 0.0
C294 C 0.81044 0.65392 0.51785 0.0
H295 H 0.6336 0.57465 0.49611 0.0
H296 H 0.73233 0.68768 0.52578 0.0
S297 S 0.86439 0.51966 0.48615 0.0
N298 N 0.7791 0.4784 0.47424 0.0
N299 N 0.88569 0.60193 0.50477 0.0
C300 C 0.8223 0.59901 0.50137 0.0
C301 C 0.76446 0.53219 0.48483 0.0
C302 C 0.50839 0.79105 0.78911 0.0
C303 C 0.4958 0.73139 0.80662 0.0
C304 C 0.54749 0.86243 0.80682 0.0
C305 C 0.57513 0.87566 0.84231 0.0
H306 H 0.48703 0.78232 0.7619 0.0
H307 H 0.55377 0.90707 0.79331 0.0
S308 S 0.56936 0.74009 0.89697 0.0
N309 N 0.52326 0.69185 0.85937 0.0
N310 N 0.59536 0.82533 0.89247 0.0
C311 C 0.56655 0.81706 0.85912 0.0
C312 C 0.52717 0.74502 0.84131 0.0
C313 C 0.89862 0.50171 0.19273 0.0
C314 C 0.90863 0.4467 0.20375 0.0
C315 C 0.86861 0.53531 0.21544 0.0
C316 C 0.84768 0.51539 0.25006 0.0
H317 H 0.91483 0.5198 0.16644 0.0
H318 H 0.85989 0.57564 0.20544 0.0
S319 S 0.86895 0.38131 0.29402 0.0
N320 N 0.89707 0.3764 0.25275 0.0
N321 N 0.84592 0.44397 0.29622 0.0
C322 C 0.86054 0.46356 0.26232 0.0
C323 C 0.88946 0.42793 0.23894 0.0
C324 C 0.35333 0.80256 0.03599 0.0
C325 C 0.3128 0.72675 0.03671 0.0
C326 C 0.39101 0.83216 0.0056 0.0
C327 C 0.38891 0.78708 0.97458 0.0
H328 H 0.35494 0.83966 0.05888 0.0
H329 H 0.41855 0.89059 0.00563 0.0
S330 S 0.29609 0.58573 0.96325 0.0
N331 N 0.27756 0.60749 0.00456 0.0
N332 N 0.3471 0.66338 0.9468 0.0
C333 C 0.35139 0.71139 0.97535 0.0
C334 C 0.31376 0.68114 0.00661 0.0
C335 C 0.5723 0.18939 0.36926 0.0
C336 C 0.61244 0.15505 0.37193 0.0
C337 C 0.58558 0.23542 0.34285 0.0
C338 C 0.6378 0.24685 0.31744 0.0
H339 H 0.53237 0.18347 0.38869 0.0
H340 H 0.55527 0.26274 0.34248 0.0
S341 S 0.7523 0.16439 0.3098 0.0
N342 N 0.7038 1.13265 0.34513 0.0
N343 N 0.72621 0.21661 0.29449 0.0
C344 C 0.67535 0.20972 0.3183 0.0
C345 C 0.66318 0.16428 0.34573 0.0
C346 C 0.73211 0.63023 0.68926 0.0
C347 C 0.76827 0.61494 0.71411 0.0
C348 C 0.76468 0.66009 0.65787 0.0
C349 C 0.83371 0.67359 0.64975 0.0
H350 H 0.67982 0.62243 0.69494 0.0
H351 H 0.73603 0.67405 0.64021 0.0
S352 S 0.94507 0.63048 0.70368 0.0
N353 N 0.87336 0.60866 0.72742 0.0
N354 N 0.93302 0.66039 0.66727 0.0
C355 C 0.86838 0.65398 0.67345 0.0
C356 C 0.83586 0.62535 0.70581 0.0
C357 C 0.61703 1.11866 0.61351 0.0
C358 C 0.65678 1.10085 0.58819 0.0
C359 C 0.62828 1.12357 0.65079 0.0
C360 C 0.68 1.11118 0.66469 0.0
H361 H 0.57691 1.12964 0.6046 0.0
H362 H 0.5964 1.13792 0.66896 0.0
S363 S 0.79779 1.06114 0.61046 0.0
N364 N 0.74915 1.06871 0.57998 0.0
N365 N 0.77073 1.07887 0.65024 0.0
C366 C 0.71907 1.09145 0.63987 0.0
C367 C 0.70745 1.08617 0.60165 0.0
C368 C 0.58785 0.57868 0.94727 0.0
C369 C 0.64861 0.61535 0.92713 0.0
C370 C 0.59137 0.59413 0.98522 0.0
C371 C 0.65576 0.64654 0.00398 0.0
H372 H 0.53867 0.53531 0.9339 0.0
H373 H 0.54431 0.56268 9e-05 0.0
S374 S 0.82627 0.76514 0.96257 0.0
N375 N 0.77235 0.71157 0.928 0.0
N376 N 0.77874 0.7409 -0.00107 0.0
C377 C 0.71531 0.68657 0.98372 0.0
C378 C 0.71173 0.67091 0.94537 0.0
C379 C 1.19678 0.70634 0.27352 0.0
C380 C 1.18633 0.64648 0.24887 0.0
C381 C 1.19109 0.70226 0.31076 0.0
C382 C 1.17533 0.63831 0.32506 0.0
H383 H 1.21026 0.75729 0.26399 0.0
H384 H 1.20022 0.75012 0.32862 0.0
S385 S 1.14425 0.46639 0.27215 0.0
N386 N 1.15923 0.52111 0.24132 0.0
N387 N 1.14919 0.51351 0.31154 0.0
C388 C 1.1631 0.57737 0.30069 0.0
C389 C 1.1685 0.58145 0.26257 0.0
loop_
_geom_bond_atom_site_label_1
_geom_bond_atom_site_label_2
_geom_bond_distance
_geom_bond_site_symmetry_2
_ccdc_geom_bond_type
Eu0 C9 2.828 . S
Eu0 O11 2.392 1_655 S
Eu0 O13 2.418 . S
Eu0 O18 2.373 . S
Eu0 O21 2.488 . S
Eu0 O22 2.471 . S
Eu0 O23 2.349 1_655 S
Eu1 O10 2.373 . S
Eu1 O14 2.488 . S
Eu1 O15 2.471 . S
Eu1 O16 2.349 . S
Eu1 O19 2.392 1_455 S
Eu1 O20 2.418 . S
Eu1 C30 2.828 . S
C2 O20 1.244 . S
C2 O23 1.265 . S
C3 C4 1.379 . S
C3 C7 1.373 . S
C3 C9 1.505 . S
C4 C3 1.379 . S
C4 C6 1.369 . S
C4 H32 0.930 . S
C5 C7 1.383 . S
C5 C8 1.382 . S
C5 H33 0.930 . S
C6 C4 1.369 . S
C6 C8 1.392 . S
C6 H34 0.930 . S
C7 C3 1.373 . S
C7 C5 1.383 . S
C7 H35 0.931 . S
C8 C5 1.382 . S
C8 C6 1.392 . S
C9 Eu0 2.828 . S
C9 C3 1.505 . S
C9 O21 1.249 . S
C9 O22 1.244 . S
O10 Eu1 2.373 . S
O10 C12 1.258 . S
O11 Eu0 2.392 1_455 S
O11 C12 1.242 . S
C12 O10 1.258 . S
C12 O11 1.242 . S
O13 Eu0 2.418 . S
O13 C17 1.244 1_655 S
O14 Eu1 2.488 . S
O14 C30 1.249 . S
O15 Eu1 2.471 . S
O15 C30 1.244 . S
O16 Eu1 2.349 . S
O16 C17 1.265 . S
C17 O13 1.244 1_455 S
C17 O16 1.265 . S
O18 Eu0 2.373 . S
O18 C31 1.258 . S
O19 Eu1 2.392 1_655 S
O19 C31 1.242 . S
O20 Eu1 2.418 . S
O20 C2 1.244 . S
O21 Eu0 2.488 . S
O21 C9 1.249 . S
O22 Eu0 2.471 . S
O22 C9 1.244 . S
O23 Eu0 2.349 1_455 S
O23 C2 1.265 . S
C24 C25 1.379 . S
C24 C28 1.373 . S
C24 C30 1.505 . S
C25 C24 1.379 . S
C25 C27 1.369 . S
C25 H36 0.930 . S
C26 C28 1.383 . S
C26 C29 1.382 . S
C26 H37 0.930 . S
C27 C25 1.369 . S
C27 C29 1.392 . S
C27 H38 0.930 . S
C28 C24 1.373 . S
C28 C26 1.383 . S
C28 H39 0.931 . S
C29 C26 1.382 . S
C29 C27 1.392 . S
C30 Eu1 2.828 . S
C30 O14 1.249 . S
C30 O15 1.244 . S
C30 C24 1.505 . S
C31 O18 1.258 . S
C31 O19 1.242 . S
H32 C4 0.930 . S
H33 C5 0.930 . S
H34 C6 0.930 . S
H35 C7 0.931 . S
H36 C25 0.930 . S
H37 C26 0.930 . S
H38 C27 0.930 . S
H39 C28 0.931 . S
Eu40 C49 2.828 . S
Eu40 O51 2.392 1_565 S
Eu40 O53 2.418 . S
Eu40 O58 2.373 . S
Eu40 O61 2.488 . S
Eu40 O62 2.471 . S
Eu40 O63 2.349 1_565 S
Eu41 O50 2.373 . S
Eu41 O54 2.488 . S
Eu41 O55 2.471 . S
Eu41 O56 2.349 . S
Eu41 O59 2.392 1_545 S
Eu41 O60 2.418 . S
Eu41 C70 2.828 . S
C42 O60 1.244 . S
C42 O63 1.265 . S
C43 C44 1.379 . S
C43 C47 1.373 . S
C43 C49 1.505 . S
C44 C43 1.379 . S
C44 C46 1.369 . S
C44 H72 0.930 . S
C45 C47 1.383 . S
C45 C48 1.382 . S
C45 H73 0.930 . S
C46 C44 1.369 . S
C46 C48 1.392 . S
C46 H74 0.930 . S
C47 C43 1.373 . S
C47 C45 1.383 . S
C47 H75 0.931 . S
C48 C45 1.382 . S
C48 C46 1.392 . S
C49 Eu40 2.828 . S
C49 C43 1.505 . S
C49 O61 1.249 . S
C49 O62 1.244 . S
O50 Eu41 2.373 . S
O50 C52 1.258 . S
O51 Eu40 2.392 1_545 S
O51 C52 1.242 . S
C52 O50 1.258 . S
C52 O51 1.242 . S
O53 Eu40 2.418 . S
O53 C57 1.244 1_565 S
O54 Eu41 2.488 . S
O54 C70 1.249 . S
O55 Eu41 2.471 . S
O55 C70 1.244 . S
O56 Eu41 2.349 . S
O56 C57 1.265 . S
C57 O53 1.244 1_545 S
C57 O56 1.265 . S
O58 Eu40 2.373 . S
O58 C71 1.258 . S
O59 Eu41 2.392 1_565 S
O59 C71 1.242 . S
O60 Eu41 2.418 . S
O60 C42 1.244 . S
O61 Eu40 2.488 . S
O61 C49 1.249 . S
O62 Eu40 2.471 . S
O62 C49 1.244 . S
O63 Eu40 2.349 1_545 S
O63 C42 1.265 . S
C64 C65 1.379 . S
C64 C68 1.373 . S
C64 C70 1.505 . S
C65 C64 1.379 . S
C65 C67 1.369 . S
C65 H76 0.930 . S
C66 C68 1.383 . S
C66 C69 1.382 . S
C66 H77 0.930 . S
C67 C65 1.369 . S
C67 C69 1.392 . S
C67 H78 0.930 . S
C68 C64 1.373 . S
C68 C66 1.383 . S
C68 H79 0.931 . S
C69 C66 1.382 . S
C69 C67 1.392 . S
C70 Eu41 2.828 . S
C70 O54 1.249 . S
C70 O55 1.244 . S
C70 C64 1.505 . S
C71 O58 1.258 . S
C71 O59 1.242 . S
H72 C44 0.930 . S
H73 C45 0.930 . S
H74 C46 0.930 . S
H75 C47 0.931 . S
H76 C65 0.930 . S
H77 C66 0.930 . S
H78 C67 0.930 . S
H79 C68 0.931 . S
Eu80 C89 2.828 . S
Eu80 O91 2.392 . S
Eu80 O93 2.418 . S
Eu80 O98 2.373 . S
Eu80 O101 2.488 . S
Eu80 O102 2.471 . S
Eu80 O103 2.349 . S
Eu81 O90 2.373 . S
Eu81 O94 2.488 . S
Eu81 O95 2.471 . S
Eu81 O96 2.349 . S
Eu81 O99 2.392 . S
Eu81 O100 2.418 . S
Eu81 C110 2.828 . S
C82 O100 1.244 . S
C82 O103 1.265 . S
C83 C84 1.379 . S
C83 C87 1.373 . S
C83 C89 1.505 . S
C84 C83 1.379 . S
C84 C86 1.369 . S
C84 H112 0.930 . S
C85 C87 1.383 . S
C85 C88 1.382 . S
C85 H113 0.930 . S
C86 C84 1.369 . S
C86 C88 1.392 . S
C86 H114 0.930 . S
C87 C83 1.373 . S
C87 C85 1.383 . S
C87 H115 0.931 . S
C88 C85 1.382 . S
C88 C86 1.392 . S
C89 Eu80 2.828 . S
C89 C83 1.505 . S
C89 O101 1.249 . S
C89 O102 1.244 . S
O90 Eu81 2.373 . S
O90 C92 1.258 . S
O91 Eu80 2.392 . S
O91 C92 1.242 . S
C92 O90 1.258 . S
C92 O91 1.242 . S
O93 Eu80 2.418 . S
O93 C97 1.244 . S
O94 Eu81 2.488 . S
O94 C110 1.249 . S
O95 Eu81 2.471 . S
O95 C110 1.244 . S
O96 Eu81 2.349 . S
O96 C97 1.265 . S
C97 O93 1.244 . S
C97 O96 1.265 . S
O98 Eu80 2.373 . S
O98 C111 1.258 . S
O99 Eu81 2.392 . S
O99 C111 1.242 . S
O100 Eu81 2.418 . S
O100 C82 1.244 . S
O101 Eu80 2.488 . S
O101 C89 1.249 . S
O102 Eu80 2.471 . S
O102 C89 1.244 . S
O103 Eu80 2.349 . S
O103 C82 1.265 . S
C104 C105 1.379 . S
C104 C108 1.373 . S
C104 C110 1.505 . S
C105 C104 1.379 . S
C105 C107 1.369 . S
C105 H116 0.930 . S
C106 C108 1.383 . S
C106 C109 1.382 . S
C106 H117 0.930 . S
C107 C105 1.369 . S
C107 C109 1.392 . S
C107 H118 0.930 . S
C108 C104 1.373 . S
C108 C106 1.383 . S
C108 H119 0.931 . S
C109 C106 1.382 . S
C109 C107 1.392 . S
C110 Eu81 2.828 . S
C110 O94 1.249 . S
C110 O95 1.244 . S
C110 C104 1.505 . S
C111 O98 1.258 . S
C111 O99 1.242 . S
H112 C84 0.930 . S
H113 C85 0.930 . S
H114 C86 0.930 . S
H115 C87 0.931 . S
H116 C105 0.930 . S
H117 C106 0.930 . S
H118 C107 0.930 . S
H119 C108 0.931 . S
H120 C125 0.930 . S
H121 C128 0.930 . S
H122 C130 0.930 . S
H123 C124 1.016 . S
C124 H123 1.016 . S
C124 N131 1.286 . S
C125 H120 0.930 . S
C125 C126 1.397 1_545 S
C125 C127 1.361 . S
C126 C125 1.397 1_565 S
C126 C130 1.390 . S
C127 C125 1.361 . S
C127 C128 1.393 . S
C127 N131 1.413 . S
C128 H121 0.930 . S
C128 C127 1.393 . S
C128 C129 1.399 . S
C129 C128 1.399 . S
C129 C130 1.381 1_545 S
C130 H122 0.930 . S
C130 C126 1.390 . S
C130 C129 1.381 1_565 S
N131 C124 1.286 . S
N131 C127 1.413 . S
H132 C137 0.930 . S
H133 C140 0.930 . S
H134 C142 0.930 . S
H135 C136 1.016 . S
C136 H135 1.016 . S
C136 N143 1.286 . S
C137 H132 0.930 . S
C137 C138 1.397 . S
C137 C139 1.361 . S
C138 C137 1.397 . S
C138 C142 1.390 . S
C139 C137 1.361 . S
C139 C140 1.393 . S
C139 N143 1.413 . S
C140 H133 0.930 . S
C140 C139 1.393 . S
C140 C141 1.399 . S
C141 C140 1.399 . S
C141 C142 1.381 . S
C142 H134 0.930 . S
C142 C138 1.390 . S
C142 C141 1.381 . S
N143 C136 1.286 . S
N143 C139 1.413 . S
H144 C149 0.930 . S
H145 C152 0.930 . S
H146 C154 0.930 . S
H147 C148 1.016 . S
C148 H147 1.016 . S
C148 N155 1.286 . S
C149 H144 0.930 . S
C149 C150 1.397 1_455 S
C149 C151 1.361 . S
C150 C149 1.397 1_655 S
C150 C154 1.390 . S
C151 C149 1.361 . S
C151 C152 1.393 . S
C151 N155 1.413 . S
C152 H145 0.930 . S
C152 C151 1.393 . S
C152 C153 1.399 . S
C153 C152 1.399 . S
C153 C154 1.381 1_455 S
C154 H146 0.930 . S
C154 C150 1.390 . S
C154 C153 1.381 1_655 S
N155 C148 1.286 . S
N155 C151 1.413 . S
H156 C161 0.930 . S
H157 C164 0.930 . S
H158 C166 0.930 . S
H159 C160 1.016 . S
C160 H159 1.016 . S
C160 N167 1.286 . S
C161 H156 0.930 . S
C161 C162 1.397 . S
C161 C163 1.361 1_455 S
C162 C161 1.397 . S
C162 C166 1.390 . S
C163 C161 1.361 1_655 S
C163 C164 1.393 . S
C163 N167 1.413 . S
C164 H157 0.930 . S
C164 C163 1.393 . S
C164 C165 1.399 1_655 S
C165 C164 1.399 1_455 S
C165 C166 1.381 . S
C166 H158 0.930 . S
C166 C162 1.390 . S
C166 C165 1.381 . S
N167 C160 1.286 . S
N167 C163 1.413 . S
H168 C173 0.930 . S
H169 C176 0.930 . S
H170 C178 0.930 . S
H171 C172 1.016 . S
C172 H171 1.016 . S
C172 N179 1.286 . S
C173 H168 0.930 . S
C173 C174 1.397 . S
C173 C175 1.361 . S
C174 C173 1.397 . S
C174 C178 1.390 . S
C175 C173 1.361 . S
C175 C176 1.393 1_545 S
C175 N179 1.413 1_545 S
C176 H169 0.930 . S
C176 C175 1.393 1_565 S
C176 C177 1.399 1_565 S
C177 C176 1.399 1_545 S
C177 C178 1.381 . S
C178 H170 0.930 . S
C178 C174 1.390 . S
C178 C177 1.381 . S
N179 C172 1.286 . S
N179 C175 1.413 1_565 S
H180 C185 0.930 . S
H181 C188 0.930 . S
H182 C190 0.930 . S
H183 C184 1.016 . S
C184 H183 1.016 . S
C184 N191 1.286 . S
C185 H180 0.930 . S
C185 C186 1.397 . S
C185 C187 1.361 . S
C186 C185 1.397 . S
C186 C190 1.390 . S
C187 C185 1.361 . S
C187 C188 1.393 . S
C187 N191 1.413 . S
C188 H181 0.930 . S
C188 C187 1.393 . S
C188 C189 1.399 . S
C189 C188 1.399 . S
C189 C190 1.381 . S
C190 H182 0.930 . S
C190 C186 1.390 . S
C190 C189 1.381 . S
N191 C184 1.286 . S
N191 C187 1.413 . S
C192 C193 1.369 . S
C192 C194 1.419 . S
C192 H196 0.930 . S
C193 C192 1.369 . S
C193 C202 1.429 . S
C194 C192 1.419 . S
C194 C195 1.363 . S
C194 H197 0.929 . S
C195 C194 1.363 . S
C195 C201 1.428 . S
H196 C192 0.930 . S
H197 C194 0.929 . S
S198 N199 1.613 . S
S198 N200 1.610 . S
N199 S198 1.613 . S
N199 C202 1.350 . S
N200 S198 1.610 . S
N200 C201 1.351 . S
C201 C195 1.428 . S
C201 N200 1.351 . S
C201 C202 1.434 . S
C202 C193 1.429 . S
C202 N199 1.350 . S
C202 C201 1.434 . S
C203 C204 1.369 . S
C203 C205 1.419 . S
C203 H207 0.930 . S
C204 C203 1.369 . S
C204 C213 1.429 . S
C205 C203 1.419 . S
C205 C206 1.363 . S
C205 H208 0.929 . S
C206 C205 1.363 . S
C206 C212 1.428 . S
H207 C203 0.930 . S
H208 C205 0.929 . S
S209 N210 1.613 . S
S209 N211 1.610 . S
N210 S209 1.613 . S
N210 C213 1.350 . S
N211 S209 1.610 . S
N211 C212 1.351 . S
C212 C206 1.428 . S
C212 N211 1.351 . S
C212 C213 1.434 . S
C213 C204 1.429 . S
C213 N210 1.350 . S
C213 C212 1.434 . S
C214 C215 1.369 . S
C214 C216 1.419 . S
C214 H218 0.930 . S
C215 C214 1.369 . S
C215 C224 1.429 . S
C216 C214 1.419 . S
C216 C217 1.363 . S
C216 H219 0.929 . S
C217 C216 1.363 . S
C217 C223 1.428 . S
H218 C214 0.930 . S
H219 C216 0.929 . S
S220 N221 1.613 . S
S220 N222 1.610 . S
N221 S220 1.613 . S
N221 C224 1.350 . S
N222 S220 1.610 . S
N222 C223 1.351 . S
C223 C217 1.428 . S
C223 N222 1.351 . S
C223 C224 1.434 . S
C224 C215 1.429 . S
C224 N221 1.350 . S
C224 C223 1.434 . S
C225 C226 1.369 . S
C225 C227 1.419 . S
C225 H229 0.930 . S
C226 C225 1.369 . S
C226 C235 1.429 . S
C227 C225 1.419 . S
C227 C228 1.363 . S
C227 H230 0.929 . S
C228 C227 1.363 . S
C228 C234 1.428 . S
H229 C225 0.930 . S
H230 C227 0.929 . S
S231 N232 1.613 . S
S231 N233 1.610 . S
N232 S231 1.613 . S
N232 C235 1.350 . S
N233 S231 1.610 . S
N233 C234 1.351 . S
C234 C228 1.428 . S
C234 N233 1.351 . S
C234 C235 1.434 . S
C235 C226 1.429 . S
C235 N232 1.350 . S
C235 C234 1.434 . S
C236 C237 1.369 . S
C236 C238 1.419 . S
C236 H240 0.930 . S
C237 C236 1.369 . S
C237 C246 1.429 . S
C238 C236 1.419 . S
C238 C239 1.363 . S
C238 H241 0.929 . S
C239 C238 1.363 . S
C239 C245 1.428 . S
H240 C236 0.930 . S
H241 C238 0.929 . S
S242 N243 1.613 . S
S242 N244 1.610 . S
N243 S242 1.613 . S
N243 C246 1.350 . S
N244 S242 1.610 . S
N244 C245 1.351 . S
C245 C239 1.428 . S
C245 N244 1.351 . S
C245 C246 1.434 . S
C246 C237 1.429 . S
C246 N243 1.350 . S
C246 C245 1.434 . S
C247 C248 1.369 . S
C247 C249 1.419 . S
C247 H251 0.930 . S
C248 C247 1.369 . S
C248 C257 1.429 . S
C249 C247 1.419 . S
C249 C250 1.363 . S
C249 H252 0.929 . S
C250 C249 1.363 . S
C250 C256 1.428 . S
H251 C247 0.930 . S
H252 C249 0.929 . S
S253 N254 1.613 . S
S253 N255 1.610 . S
N254 S253 1.613 . S
N254 C257 1.350 . S
N255 S253 1.610 . S
N255 C256 1.351 . S
C256 C250 1.428 . S
C256 N255 1.351 . S
C256 C257 1.434 . S
C257 C248 1.429 . S
C257 N254 1.350 . S
C257 C256 1.434 . S
C258 C259 1.369 . S
C258 C260 1.419 . S
C258 H262 0.930 . S
C259 C258 1.369 . S
C259 C268 1.429 . S
C260 C258 1.419 . S
C260 C261 1.363 . S
C260 H263 0.929 . S
C261 C260 1.363 . S
C261 C267 1.428 . S
H262 C258 0.930 . S
H263 C260 0.929 . S
S264 N265 1.613 . S
S264 N266 1.610 . S
N265 S264 1.613 . S
N265 C268 1.350 . S
N266 S264 1.610 . S
N266 C267 1.351 . S
C267 C261 1.428 . S
C267 N266 1.351 . S
C267 C268 1.434 . S
C268 C259 1.429 . S
C268 N265 1.350 . S
C268 C267 1.434 . S
C269 C270 1.369 . S
C269 C271 1.419 . S
C269 H273 0.930 . S
C270 C269 1.369 . S
C270 C279 1.429 . S
C271 C269 1.419 . S
C271 C272 1.363 . S
C271 H274 0.929 . S
C272 C271 1.363 . S
C272 C278 1.428 . S
H273 C269 0.930 . S
H274 C271 0.929 . S
S275 N276 1.613 . S
S275 N277 1.610 . S
N276 S275 1.613 . S
N276 C279 1.350 . S
N277 S275 1.610 . S
N277 C278 1.351 . S
C278 C272 1.428 . S
C278 N277 1.351 . S
C278 C279 1.434 . S
C279 C270 1.429 . S
C279 N276 1.350 . S
C279 C278 1.434 . S
C280 C281 1.369 . S
C280 C282 1.419 . S
C280 H284 0.930 . S
C281 C280 1.369 . S
C281 C290 1.429 . S
C282 C280 1.419 . S
C282 C283 1.363 . S
C282 H285 0.929 . S
C283 C282 1.363 . S
C283 C289 1.428 . S
H284 C280 0.930 . S
H285 C282 0.929 . S
S286 N287 1.613 1_545 S
S286 N288 1.610 . S
N287 S286 1.613 1_565 S
N287 C290 1.350 . S
N288 S286 1.610 . S
N288 C289 1.351 1_545 S
C289 C283 1.428 . S
C289 N288 1.351 1_565 S
C289 C290 1.434 . S
C290 C281 1.429 . S
C290 N287 1.350 . S
C290 C289 1.434 . S
C291 C292 1.369 . S
C291 C293 1.419 . S
C291 H295 0.930 . S
C292 C291 1.369 . S
C292 C301 1.429 . S
C293 C291 1.419 . S
C293 C294 1.363 . S
C293 H296 0.929 . S
C294 C293 1.363 . S
C294 C300 1.428 . S
H295 C291 0.930 . S
H296 C293 0.929 . S
S297 N298 1.613 . S
S297 N299 1.610 . S
N298 S297 1.613 . S
N298 C301 1.350 . S
N299 S297 1.610 . S
N299 C300 1.351 . S
C300 C294 1.428 . S
C300 N299 1.351 . S
C300 C301 1.434 . S
C301 C292 1.429 . S
C301 N298 1.350 . S
C301 C300 1.434 . S
C302 C303 1.369 . S
C302 C304 1.419 . S
C302 H306 0.930 . S
C303 C302 1.369 . S
C303 C312 1.429 . S
C304 C302 1.419 . S
C304 C305 1.363 . S
C304 H307 0.929 . S
C305 C304 1.363 . S
C305 C311 1.428 . S
H306 C302 0.930 . S
H307 C304 0.929 . S
S308 N309 1.613 . S
S308 N310 1.610 . S
N309 S308 1.613 . S
N309 C312 1.350 . S
N310 S308 1.610 . S
N310 C311 1.351 . S
C311 C305 1.428 . S
C311 N310 1.351 . S
C311 C312 1.434 . S
C312 C303 1.429 . S
C312 N309 1.350 . S
C312 C311 1.434 . S
C313 C314 1.369 . S
C313 C315 1.419 . S
C313 H317 0.930 . S
C314 C313 1.369 . S
C314 C323 1.429 . S
C315 C313 1.419 . S
C315 C316 1.363 . S
C315 H318 0.929 . S
C316 C315 1.363 . S
C316 C322 1.428 . S
H317 C313 0.930 . S
H318 C315 0.929 . S
S319 N320 1.613 . S
S319 N321 1.610 . S
N320 S319 1.613 . S
N320 C323 1.350 . S
N321 S319 1.610 . S
N321 C322 1.351 . S
C322 C316 1.428 . S
C322 N321 1.351 . S
C322 C323 1.434 . S
C323 C314 1.429 . S
C323 N320 1.350 . S
C323 C322 1.434 . S
C324 C325 1.369 . S
C324 C326 1.419 . S
C324 H328 0.930 . S
C325 C324 1.369 . S
C325 C334 1.429 1_455 S
C326 C324 1.419 . S
C326 C327 1.363 1_554 S
C326 H329 0.934 . S
C327 C326 1.363 1_556 S
C327 C333 1.428 1_455 S
H328 C324 0.930 . S
H329 C326 0.934 . S
S330 N331 1.613 1_556 S
S330 N332 1.610 . S
N331 S330 1.613 1_554 S
N331 C334 1.350 . S
N332 S330 1.610 . S
N332 C333 1.351 . S
C333 C327 1.428 1_655 S
C333 N332 1.351 . S
C333 C334 1.434 1_556 S
C334 C325 1.429 1_655 S
C334 N331 1.350 . S
C334 C333 1.434 1_554 S
C335 C336 1.369 . S
C335 C337 1.419 . S
C335 H339 0.930 1_545 S
C336 C335 1.369 . S
C336 C345 1.429 . S
C337 C335 1.419 . S
C337 C338 1.363 . S
C337 H340 0.929 1_545 S
C338 C337 1.363 . S
C338 C344 1.428 . S
H339 C335 0.930 1_565 S
H340 C337 0.929 1_565 S
S341 N342 1.613 . S
S341 N343 1.610 . S
N342 S341 1.613 . S
N342 C345 1.350 . S
N343 S341 1.610 . S
N343 C344 1.351 . S
C344 C338 1.428 . S
C344 N343 1.351 . S
C344 C345 1.434 . S
C345 C336 1.429 . S
C345 N342 1.350 . S
C345 C344 1.434 . S
C346 C347 1.369 . S
C346 C348 1.419 . S
C346 H350 0.930 . S
C347 C346 1.369 . S
C347 C356 1.429 . S
C348 C346 1.419 . S
C348 C349 1.363 . S
C348 H351 0.929 . S
C349 C348 1.363 . S
C349 C355 1.428 . S
H350 C346 0.930 . S
H351 C348 0.929 . S
S352 N353 1.613 . S
S352 N354 1.610 . S
N353 S352 1.613 . S
N353 C356 1.350 . S
N354 S352 1.610 . S
N354 C355 1.351 . S
C355 C349 1.428 . S
C355 N354 1.351 . S
C355 C356 1.434 . S
C356 C347 1.429 . S
C356 N353 1.350 . S
C356 C355 1.434 . S
C357 C358 1.369 . S
C357 C359 1.419 . S
C357 H361 0.930 . S
C358 C357 1.369 . S
C358 C367 1.429 . S
C359 C357 1.419 . S
C359 C360 1.363 . S
C359 H362 0.929 . S
C360 C359 1.363 . S
C360 C366 1.428 . S
H361 C357 0.930 . S
H362 C359 0.929 . S
S363 N364 1.613 . S
S363 N365 1.610 . S
N364 S363 1.613 . S
N364 C367 1.350 1_565 S
N365 S363 1.610 . S
N365 C366 1.351 1_565 S
C366 C360 1.428 . S
C366 N365 1.351 1_545 S
C366 C367 1.434 . S
C367 C358 1.429 . S
C367 N364 1.350 1_545 S
C367 C366 1.434 . S
C368 C369 1.369 . S
C368 C370 1.419 . S
C368 H372 0.930 . S
C369 C368 1.369 . S
C369 C378 1.429 . S
C370 C368 1.419 . S
C370 C371 1.363 1_556 S
C370 H373 0.929 1_556 S
C371 C370 1.363 1_554 S
C371 C377 1.414 1_554 S
H372 C368 0.930 . S
H373 C370 0.929 1_554 S
S374 N375 1.613 . S
S374 N376 1.610 1_556 S
N375 S374 1.613 . S
N375 C378 1.350 . S
N376 S374 1.610 1_554 S
N376 C377 1.343 1_554 S
C377 C371 1.414 1_556 S
C377 N376 1.343 1_556 S
C377 C378 1.459 . S
C378 C369 1.429 . S
C378 N375 1.350 . S
C378 C377 1.459 . S
C379 C380 1.369 1_655 S
C379 C381 1.419 . S
C379 H383 0.930 . S
C380 C379 1.369 1_455 S
C380 C389 1.429 . S
C381 C379 1.419 . S
C381 C382 1.363 1_655 S
C381 H384 0.929 . S
C382 C381 1.363 1_455 S
C382 C388 1.428 . S
H383 C379 0.930 . S
H384 C381 0.929 . S
S385 N386 1.613 . S
S385 N387 1.610 . S
N386 S385 1.613 . S
N386 C389 1.350 . S
N387 S385 1.610 . S
N387 C388 1.351 . S
C388 C382 1.428 . S
C388 N387 1.351 . S
C388 C389 1.434 . S
C389 C380 1.429 . S
C389 N386 1.350 . S
C389 C388 1.434 . S
C193 C12 3.226 . S
C195 C186 3.215 . S
C204 C52 3.074 . S
C206 C160 2.994 . S
C215 C111 3.094 . S
C217 C172 2.999 . S
C226 C31 2.971 . S
C228 C184 2.825 . S
C239 C162 3.007 . S
C237 C71 3.067 . S
C250 C174 2.981 . S
C248 C92 3.033 . S
C259 C48 0.861 . S
C261 C136 0.911 . S
C270 C109 0.913 . S
C272 C150 1.007 . S
C281 C29 0.655 . S
C283 C126 0.529 . S
C294 C138 0.688 . S
C292 C69 0.691 . S
C305 C148 0.423 . S
C303 C88 0.488 . S
C314 C8 0.626 . S
C316 C124 0.585 . S
C327 C153 1.108 . S
C325 C17 1.095 . S
C336 C57 1.084 . S
C338 C129 1.112 . S
C347 C97 1.171 . S
C349 C141 1.167 . S
C360 C177 1.764 . S
C358 C42 1.733 . S
C371 C189 1.842 . S
C369 C82 1.799 . S
C380 C2 1.748 . S
C382 C165 1.776 . S
