# Generated by pormake.
# Topology anh, (6,3)-cn, num edge types: 1
# Building blocks:
#     Node 0, Type 0, BuildingBlock: CUKXOW_clean_sbu_0, # of connection points: 6
#     Node 1, Type 0, BuildingBlock: CUKXOW_clean_sbu_0, # of connection points: 6
#     Node 2, Type 0, BuildingBlock: CUKXOW_clean_sbu_0, # of connection points: 6
#     Node 3, Type 1, BuildingBlock: BETDAH_clean_linker_0, # of connection points: 3
#     Node 4, Type 1, BuildingBlock: BETDAH_clean_linker_0, # of connection points: 3
#     Node 5, Type 1, BuildingBlock: BETDAH_clean_linker_0, # of connection points: 3
#     Node 6, Type 1, BuildingBlock: BETDAH_clean_linker_0, # of connection points: 3
#     Node 7, Type 1, BuildingBlock: BETDAH_clean_linker_0, # of connection points: 3
#     Node 8, Type 1, BuildingBlock: BETDAH_clean_linker_0, # of connection points: 3
#     Edge 9, Type (0, 1), BuildingBlock: TEMPAE_clean_linker_10, # of connection points: 2
#     Edge 10, Type (0, 1), BuildingBlock: TEMPAE_clean_linker_10, # of connection points: 2
#     Edge 11, Type (0, 1), BuildingBlock: TEMPAE_clean_linker_10, # of connection points: 2
#     Edge 12, Type (0, 1), BuildingBlock: TEMPAE_clean_linker_10, # of connection points: 2
#     Edge 13, Type (0, 1), BuildingBlock: TEMPAE_clean_linker_10, # of connection points: 2
#     Edge 14, Type (0, 1), BuildingBlock: TEMPAE_clean_linker_10, # of connection points: 2
#     Edge 15, Type (0, 1), BuildingBlock: TEMPAE_clean_linker_10, # of connection points: 2
#     Edge 16, Type (0, 1), BuildingBlock: TEMPAE_clean_linker_10, # of connection points: 2
#     Edge 17, Type (0, 1), BuildingBlock: TEMPAE_clean_linker_10, # of connection points: 2
#     Edge 18, Type (0, 1), BuildingBlock: TEMPAE_clean_linker_10, # of connection points: 2
#     Edge 19, Type (0, 1), BuildingBlock: TEMPAE_clean_linker_10, # of connection points: 2
#     Edge 20, Type (0, 1), BuildingBlock: TEMPAE_clean_linker_10, # of connection points: 2
#     Edge 21, Type (0, 1), BuildingBlock: TEMPAE_clean_linker_10, # of connection points: 2
#     Edge 22, Type (0, 1), BuildingBlock: TEMPAE_clean_linker_10, # of connection points: 2
#     Edge 23, Type (0, 1), BuildingBlock: TEMPAE_clean_linker_10, # of connection points: 2
#     Edge 24, Type (0, 1), BuildingBlock: TEMPAE_clean_linker_10, # of connection points: 2
#     Edge 25, Type (0, 1), BuildingBlock: TEMPAE_clean_linker_10, # of connection points: 2
#     Edge 26, Type (0, 1), BuildingBlock: TEMPAE_clean_linker_10, # of connection points: 2
# Relax obj value: 0.070
# Max RMSD: 0.140
# Mean RMSD: 0.087
data_MOF--net-anh--node1-CUKXOW_clean_sbu_0--node2-BETDAH_clean_linker_0--edge1-TEMPAE_clean_linker_10
_symmetry_space_group_name_H-M    P1
_symmetry_Int_Tables_number       1
_symmetry_cell_setting            triclinic
loop_
_symmetry_equiv_pos_as_xyz
'x, y, z'
_cell_length_a     29.60552
_cell_length_b     28.948256
_cell_length_c     48.648355
_cell_angle_alpha  98.341027
_cell_angle_beta   92.46874
_cell_angle_gamma 113.35348
loop_
_atom_site_label
_atom_site_type_symbol
_atom_site_fract_x
_atom_site_fract_y
_atom_site_fract_z
_atom_type_partial_charge
Tb0 Tb 0.07252 0.54789 0.15165 0.0
C1 C 0.03916 0.50439 0.20675 0.0
Tb2 Tb 1.00574 0.43233 0.14765 0.0
O3 O 1.01293 0.5752 0.14577 0.0
O4 O 0.99694 0.50037 0.14703 0.0
O5 O 0.0728 0.54044 0.19557 0.0
C6 C 0.92866 0.3452 0.14823 0.0
O7 O 1.00605 0.4614 0.19156 0.0
C8 C 0.10105 0.45502 0.14394 0.0
C9 C 0.03444 0.47602 0.09266 0.0
O10 O 0.97108 0.3604 0.16318 0.0
O11 O 0.93028 0.37848 0.13269 0.0
O12 O 0.0654 0.41118 0.13323 0.0
O13 O 0.08242 0.48136 0.15862 0.0
O14 O 1.00096 0.44055 0.10418 0.0
O15 O 0.06952 0.51824 0.10744 0.0
C16 C 0.15262 0.63476 0.15787 0.0
O17 O 0.144 0.59474 0.13901 0.0
O18 O 0.11585 0.62609 0.17283 0.0
C19 C 0.97668 0.53076 0.14483 0.0
Tb20 Tb 0.55769 0.0294 0.50689 0.0
C21 C 0.60672 0.05406 0.45095 0.0
Tb22 Tb 0.66741 0.10254 0.5109 0.0
O23 O 0.53952 0.09191 0.52717 0.0
O24 O 0.5985 0.10657 0.50338 0.0
O25 O 0.568 0.02525 0.46264 0.0
C26 C 0.74659 0.18839 0.51104 0.0
O27 O 0.64865 0.08788 0.46567 0.0
C28 C 0.65113 0.00851 0.51626 0.0
C29 C 0.61868 0.07379 0.56563 0.0
O30 O 0.74076 0.14344 0.49805 0.0
O31 O 0.70864 0.1844 0.52443 0.0
O32 O 0.69178 0.04789 0.52665 0.0
O33 O 0.62532 0.02272 0.5011 0.0
O34 O 0.65313 0.10927 0.55461 0.0
O35 O 0.58117 0.03462 0.5505 0.0
C36 C 0.4706 0.94975 0.49723 0.0
O37 O 0.50901 0.95241 0.51241 0.0
O38 O 0.48117 0.99197 0.48761 0.0
C39 C 0.57717 0.12745 0.51937 0.0
Tb40 Tb 0.5305 0.61971 0.83461 0.0
C41 C 0.57947 0.6276 0.89604 0.0
Tb42 Tb 0.64199 0.63665 0.84399 0.0
O43 O 0.51035 0.53939 0.81494 0.0
O44 O 0.57153 0.5776 0.84387 0.0
O45 O 0.54113 0.62714 0.8803 0.0
C46 C 0.71233 0.6021 0.83892 0.0
O47 O 0.62074 0.62794 0.88593 0.0
C48 C 0.63396 0.7245 0.84443 0.0
C49 C 0.59389 0.63724 0.78478 0.0
O50 O 0.71176 0.63526 0.86001 0.0
O51 O 0.67405 0.5895 0.82094 0.0
O52 O 0.67638 0.72099 0.84815 0.0
O53 O 0.60075 0.67998 0.84115 0.0
O54 O 0.62575 0.62501 0.79878 0.0
O55 O 0.55873 0.64744 0.79685 0.0
C56 C 0.44034 0.61964 0.83144 0.0
O57 O 0.45997 0.6031 0.81115 0.0
O58 O 0.47205 0.63737 0.85371 0.0
C59 C 0.54933 0.53715 0.82668 0.0
H60 H 0.47819 0.93602 0.24922 0.0
H61 H 0.58787 0.07536 0.23114 0.0
H62 H 0.47112 0.97537 0.1676 0.0
C63 C 0.49365 0.96125 0.23444 0.0
C64 C 0.46953 0.94965 0.20726 0.0
C65 C 0.53629 0.00648 0.24321 0.0
C66 C 0.5552 0.04021 0.22441 0.0
C67 C 0.53133 0.02866 0.19709 0.0
C68 C 0.48868 0.98388 0.18882 0.0
N69 N 0.54882 0.06142 0.17741 0.0
C70 C 0.59801 0.09436 0.17822 0.0
H71 H 0.60199 0.4887 0.58802 0.0
H72 H 0.59801 0.62282 0.56193 0.0
H73 H 0.61034 0.50496 0.50171 0.0
C74 C 0.60271 0.51063 0.57165 0.0
C75 C 0.60666 0.49096 0.54418 0.0
C76 C 0.59918 0.55792 0.57823 0.0
C77 C 0.60087 0.58646 0.55697 0.0
C78 C 0.60497 0.56747 0.52929 0.0
C79 C 0.60727 0.51953 0.52304 0.0
N80 N 0.60659 0.59533 0.50726 0.0
C81 C 0.60918 0.64502 0.51101 0.0
H82 H 0.92501 0.43588 0.88844 0.0
H83 H 0.04784 0.39649 0.87071 0.0
H84 H 0.95082 0.39992 0.80345 0.0
C85 C 0.94604 0.42351 0.87361 0.0
C86 C 0.93301 0.41831 0.845 0.0
C87 C 0.98771 0.41631 0.88325 0.0
C88 C 1.01496 0.40123 0.86368 0.0
C89 C 1.00092 0.39422 0.83485 0.0
C90 C 0.95993 0.40266 0.82562 0.0
N91 N 0.03053 0.38373 0.81497 0.0
C92 C 0.08095 0.41354 0.81791 0.0
H93 H 0.14937 0.63861 0.40809 0.0
H94 H 1.00973 0.53793 0.43008 0.0
H95 H 0.11695 0.65262 0.49356 0.0
C96 C 0.125 0.62547 0.42394 0.0
C97 C 0.13952 0.65041 0.45186 0.0
C98 C 0.07843 0.58494 0.41595 0.0
C99 C 0.04588 0.56898 0.43619 0.0
C100 C 0.06007 0.59374 0.46425 0.0
C101 C 0.1064 0.63442 0.47181 0.0
N102 N 0.02852 0.57921 0.4854 0.0
C103 C 0.99407 0.52968 0.48474 0.0
H104 H 0.60975 0.21579 0.76347 0.0
H105 H 0.62061 0.08392 0.78856 0.0
H106 H 0.6013 0.19651 0.84927 0.0
C107 C 0.61162 0.19462 0.77979 0.0
C108 C 0.60672 0.2131 0.80729 0.0
C109 C 0.61773 0.14877 0.77281 0.0
C110 C 0.61599 0.11931 0.79367 0.0
C111 C 0.60907 0.13611 0.8212 0.0
C112 C 0.6052 0.18321 0.82788 0.0
N113 N 0.60615 0.10703 0.84278 0.0
C114 C 0.60658 0.05857 0.83914 0.0
H115 H 0.64313 0.52649 0.07756 0.0
H116 H 0.50328 0.5253 0.09818 0.0
H117 H 0.59228 0.48792 0.15628 0.0
C118 C 0.61527 0.51957 0.09201 0.0
C119 C 0.62362 0.5055 0.11764 0.0
C120 C 0.57228 0.52679 0.08498 0.0
C121 C 0.53643 0.51989 0.10378 0.0
C122 C 0.5431 0.50552 0.12953 0.0
C123 C 0.58708 0.49895 0.13644 0.0
N124 N 0.50659 0.49741 0.14883 0.0
C125 C 0.45984 0.49874 0.14442 0.0
C126 C 0.1924 0.51229 0.15769 0.0
C127 C 0.15506 0.46669 0.14305 0.0
C128 C 0.24318 0.52171 0.15743 0.0
C129 C 0.25729 0.48443 0.14246 0.0
C130 C 0.21958 0.43882 0.12727 0.0
C131 C 0.16936 0.43069 0.12768 0.0
C132 C 0.28167 0.57121 0.17366 0.0
C133 C 0.23219 0.39785 0.11095 0.0
C134 C 0.39032 0.51604 0.12359 0.0
C135 C 0.40955 0.49703 0.14397 0.0
C136 C 0.34147 0.51352 0.12322 0.0
C137 C 0.31089 0.49138 0.14369 0.0
C138 C 0.33082 0.47288 0.16451 0.0
C139 C 0.37964 0.47594 0.16438 0.0
C140 C 0.32229 0.53392 0.10067 0.0
C141 C 0.30017 0.44894 0.18675 0.0
H142 H 0.18195 0.5404 0.16965 0.0
H143 H 0.14101 0.39541 0.11618 0.0
H144 H 0.30042 0.56321 0.19147 0.0
H145 H 0.31045 0.58998 0.16024 0.0
H146 H 0.26534 0.59827 0.18194 0.0
H147 H 0.19892 0.3655 0.09932 0.0
H148 H 0.25851 0.41421 0.09583 0.0
H149 H 0.25069 0.38275 0.1254 0.0
H150 H 0.41334 0.53258 0.10782 0.0
H151 H 0.39439 0.46136 0.18024 0.0
H152 H 0.30843 0.5623 0.11018 0.0
H153 H 0.29064 0.50231 0.08736 0.0
H154 H 0.35116 0.55226 0.08716 0.0
H155 H 0.28624 0.47583 0.19812 0.0
H156 H 0.32146 0.43821 0.20211 0.0
H157 H 0.26742 0.41413 0.17687 0.0
C158 C 0.78371 0.28319 0.52019 0.0
C159 C 0.78604 0.23741 0.50795 0.0
C160 C 0.81845 0.33043 0.51583 0.0
C161 C 0.85646 0.3318 0.49886 0.0
C162 C 0.85932 0.28564 0.4867 0.0
C163 C 0.8239 0.23882 0.49138 0.0
C164 C 0.81402 0.37878 0.52907 0.0
C165 C 0.89939 0.28574 0.46851 0.0
C166 C 0.91791 0.45243 0.46828 0.0
C167 C 0.96053 0.47888 0.48712 0.0
C168 C 0.88399 0.40378 0.47148 0.0
C169 C 0.89335 0.38171 0.49407 0.0
C170 C 0.93706 0.40834 0.51283 0.0
C171 C 0.97023 0.45682 0.50908 0.0
C172 C 0.83777 0.37647 0.45109 0.0
C173 C 0.94819 0.38616 0.53719 0.0
H174 H 0.7541 0.2821 0.53281 0.0
H175 H 0.82543 0.20334 0.48177 0.0
H176 H 0.849 0.40503 0.54208 0.0
H177 H 0.80767 0.39892 0.51255 0.0
H178 H 0.78316 0.37108 0.54237 0.0
H179 H 0.8967 0.24658 0.46084 0.0
H180 H 0.89697 0.30385 0.45022 0.0
H181 H 0.93636 0.30878 0.48036 0.0
H182 H 0.91084 0.47004 0.45131 0.0
H183 H 1.00346 0.47783 0.52359 0.0
H184 H 0.80458 0.37076 0.46226 0.0
H185 H 0.835 0.33805 0.44165 0.0
H186 H 0.83701 0.39799 0.43406 0.0
H187 H 0.91916 0.38106 0.55157 0.0
H188 H 0.98476 0.4109 0.54916 0.0
H189 H 0.94766 0.34786 0.52967 0.0
C190 C 0.57992 0.77115 0.83761 0.0
C191 C 0.62718 0.77206 0.84298 0.0
C192 C 0.57372 0.81647 0.83591 0.0
C193 C 0.61581 0.86369 0.8397 0.0
C194 C 0.66359 0.86455 0.84501 0.0
C195 C 0.66865 0.81876 0.84657 0.0
C196 C 0.52219 0.81388 0.8302 0.0
C197 C 0.70943 0.91395 0.84924 0.0
C198 C 0.61044 0.97986 0.81381 0.0
C199 C 0.60682 0.00859 0.83866 0.0
C200 C 0.61212 0.93188 0.81365 0.0
C201 C 0.6102 0.91257 0.83897 0.0
C202 C 0.60563 0.94143 0.864 0.0
C203 C 0.60402 0.98917 0.86352 0.0
C204 C 0.61696 0.90235 0.78653 0.0
C205 C 0.60352 0.92241 0.89143 0.0
H206 H 0.5478 0.73501 0.83473 0.0
H207 H 0.70526 0.81955 0.85065 0.0
H208 H 0.51412 0.83726 0.84787 0.0
H209 H 0.51952 0.83016 0.81122 0.0
H210 H 0.49344 0.77411 0.82719 0.0
H211 H 0.74392 0.90797 0.85268 0.0
H212 H 0.71157 0.93277 0.83073 0.0
H213 H 0.70756 0.94063 0.86754 0.0
H214 H 0.61246 0.99508 0.79459 0.0
H215 H 0.60111 0.01164 0.8827 0.0
H216 H 0.58703 0.86323 0.78246 0.0
H217 H 0.65268 0.89831 0.78806 0.0
H218 H 0.61534 0.92132 0.76845 0.0
H219 H 0.57313 0.88382 0.88942 0.0
H220 H 0.59767 0.94831 0.90874 0.0
H221 H 0.63858 0.9189 0.89709 0.0
C222 C 0.90861 0.55813 0.13376 0.0
C223 C 0.92272 0.52038 0.14138 0.0
C224 C 0.85867 0.55145 0.13117 0.0
C225 C 0.82103 0.50591 0.13664 0.0
C226 C 0.835 0.46748 0.14446 0.0
C227 C 0.88553 0.47513 0.14669 0.0
C228 C 0.8462 0.59335 0.1224 0.0
C229 C 0.79661 0.41842 0.15069 0.0
C230 C 0.69861 0.51785 0.15061 0.0
C231 C 0.67108 0.499 0.12409 0.0
C232 C 0.7462 0.51783 0.15543 0.0
C233 C 0.76738 0.49872 0.13326 0.0
C234 C 0.73869 0.47731 0.10689 0.0
C235 C 0.69123 0.47739 0.10273 0.0
C236 C 0.77477 0.54043 0.18402 0.0
C237 C 0.75912 0.45649 0.0825 0.0
H238 H 0.93691 0.59332 0.12968 0.0
H239 H 0.89598 0.44614 0.15312 0.0
H240 H 0.8204 0.57819 0.10285 0.0
H241 H 0.82715 0.60716 0.13868 0.0
H242 H 0.87956 0.62639 0.11884 0.0
H243 H 0.81322 0.39255 0.15679 0.0
H244 H 0.77613 0.42709 0.16786 0.0
H245 H 0.76917 0.39794 0.13208 0.0
H246 H 0.68395 0.53474 0.16735 0.0
H247 H 0.67021 0.46143 0.0823 0.0
H248 H 0.80642 0.57696 0.18307 0.0
H249 H 0.79022 0.51433 0.19103 0.0
H250 H 0.75144 0.54803 0.19983 0.0
H251 H 0.79082 0.48818 0.07639 0.0
H252 H 0.73098 0.43742 0.06402 0.0
H253 H 0.7732 0.42869 0.0885 0.0
C254 C 0.41217 0.86548 0.50656 0.0
C255 C 0.42261 0.90548 0.49145 0.0
C256 C 0.36631 0.82324 0.50132 0.0
C257 C 0.33073 0.8208 0.48011 0.0
C258 C 0.34144 0.86097 0.46461 0.0
C259 C 0.3872 0.90314 0.47067 0.0
C260 C 0.35579 0.78147 0.51854 0.0
C261 C 0.30475 0.8592 0.44149 0.0
C262 C 0.23047 0.69176 0.44764 0.0
C263 C 0.18899 0.69333 0.46 0.0
C264 C 0.27692 0.73286 0.45414 0.0
C265 C 0.28229 0.77613 0.47394 0.0
C266 C 0.24103 0.77746 0.4871 0.0
C267 C 0.19476 0.73627 0.47976 0.0
C268 C 0.32004 0.73037 0.43945 0.0
C269 C 0.2456 0.82277 0.50859 0.0
H270 H 0.43967 0.86745 0.52267 0.0
H271 H 0.39551 0.93405 0.45889 0.0
H272 H 0.32227 0.77671 0.52923 0.0
H273 H 0.3481 0.74453 0.50477 0.0
H274 H 0.38715 0.78963 0.53455 0.0
H275 H 0.31923 0.89317 0.43111 0.0
H276 H 0.29527 0.82433 0.4255 0.0
H277 H 0.26995 0.85708 0.44999 0.0
H278 H 0.22665 0.65834 0.43279 0.0
H279 H 0.16288 0.73822 0.48915 0.0
H280 H 0.35072 0.73495 0.45498 0.0
H281 H 0.33437 0.76228 0.42758 0.0
H282 H 0.30972 0.69375 0.42473 0.0
H283 H 0.27568 0.83101 0.52541 0.0
H284 H 0.21072 0.8164 0.51819 0.0
H285 H 0.25559 0.85721 0.49871 0.0
C286 C 0.53102 0.44667 0.80587 0.0
C287 C 0.55966 0.49097 0.82509 0.0
C288 C 0.53982 0.40219 0.80461 0.0
C289 C 0.57806 0.40199 0.82311 0.0
C290 C 0.60706 0.44678 0.84261 0.0
C291 C 0.59751 0.49071 0.84331 0.0
C292 C 0.50853 0.35554 0.78324 0.0
C293 C 0.64915 0.44928 0.86228 0.0
C294 C 0.56991 0.27047 0.83226 0.0
C295 C 0.60269 0.26332 0.8138 0.0
C296 C 0.56291 0.31622 0.83633 0.0
C297 C 0.58854 0.35536 0.82122 0.0
C298 C 0.62279 0.34906 0.80332 0.0
C299 C 0.63001 0.30362 0.80017 0.0
C300 C 0.52731 0.32235 0.85635 0.0
C301 C 0.65057 0.38964 0.78671 0.0
H302 H 0.50174 0.44682 0.79176 0.0
H303 H 0.61969 0.5249 0.85827 0.0
H304 H 0.53247 0.34476 0.76905 0.0
H305 H 0.48949 0.32269 0.79386 0.0
H306 H 0.48019 0.36186 0.77046 0.0
H307 H 0.65731 0.47931 0.88109 0.0
H308 H 0.64127 0.41218 0.86913 0.0
H309 H 0.68294 0.45921 0.85134 0.0
H310 H 0.54853 0.23976 0.84289 0.0
H311 H 0.65658 0.29931 0.78651 0.0
H312 H 0.49584 0.32546 0.84474 0.0
H313 H 0.54611 0.35821 0.87181 0.0
H314 H 0.51246 0.28977 0.86775 0.0
H315 H 0.62402 0.39493 0.77201 0.0
H316 H 0.67729 0.37971 0.77449 0.0
H317 H 0.67078 0.42675 0.8009 0.0
C318 C 0.601 0.91449 0.50132 0.0
C319 C 0.64158 0.95469 0.51756 0.0
C320 C 0.59301 0.86326 0.50136 0.0
C321 C 0.62675 0.852 0.51782 0.0
C322 C 0.66718 0.89255 0.53473 0.0
C323 C 0.67404 0.94338 0.53442 0.0
C324 C 0.54923 0.82128 0.48319 0.0
C325 C 0.70395 0.8823 0.55261 0.0
C326 C 0.59001 0.71677 0.53292 0.0
C327 C 0.61332 0.69692 0.513 0.0
C328 C 0.59379 0.76719 0.53471 0.0
C329 C 0.62154 0.79814 0.5161 0.0
C330 C 0.64501 0.77778 0.49592 0.0
C331 C 0.64058 0.72734 0.49463 0.0
C332 C 0.56817 0.78737 0.55647 0.0
C333 C 0.67493 0.80934 0.4757 0.0
H334 H 0.576 0.92306 0.4881 0.0
H335 H 0.70536 0.97438 0.54709 0.0
H336 H 0.56249 0.80142 0.46628 0.0
H337 H 0.52761 0.79241 0.49563 0.0
H338 H 0.52422 0.83613 0.47353 0.0
H339 H 0.73179 0.91781 0.5657 0.0
H340 H 0.68444 0.85531 0.56652 0.0
H341 H 0.72367 0.86402 0.53908 0.0
H342 H 0.56883 0.69289 0.54707 0.0
H343 H 0.65848 0.71163 0.47921 0.0
H344 H 0.54162 0.79961 0.54621 0.0
H345 H 0.59573 0.82151 0.57061 0.0
H346 H 0.54784 0.75841 0.56924 0.0
H347 H 0.65139 0.82222 0.46319 0.0
H348 H 0.69062 0.78778 0.46119 0.0
H349 H 0.7058 0.84409 0.4874 0.0
C350 C 0.74433 0.54453 0.81178 0.0
C351 C 0.74705 0.57731 0.83662 0.0
C352 C 0.77387 0.51682 0.80966 0.0
C353 C 0.80653 0.52185 0.83304 0.0
C354 C 0.81021 0.5558 0.858 0.0
C355 C 0.78037 0.58332 0.85948 0.0
C356 C 0.77007 0.48215 0.78247 0.0
C357 C 0.84496 0.56227 0.88331 0.0
C358 C 0.84876 0.41768 0.84357 0.0
C359 C 0.89707 0.43816 0.83629 0.0
C360 C 0.81769 0.4432 0.84104 0.0
C361 C 0.83616 0.49082 0.83176 0.0
C362 C 0.88416 0.51026 0.82307 0.0
C363 C 0.914 0.48334 0.82525 0.0
C364 C 0.76595 0.42037 0.84943 0.0
C365 C 0.90532 0.56114 0.81337 0.0
H366 H 0.71857 0.54002 0.79403 0.0
H367 H 0.78221 0.6085 0.8787 0.0
H368 H 0.80473 0.49813 0.77258 0.0
H369 H 0.76561 0.44379 0.78629 0.0
H370 H 0.73866 0.47778 0.76748 0.0
H371 H 0.84492 0.59178 0.90066 0.0
H372 H 0.83407 0.52543 0.89093 0.0
H373 H 0.88326 0.57317 0.87762 0.0
H374 H 0.8361 0.38279 0.85224 0.0
H375 H 0.95181 0.49939 0.82012 0.0
H376 H 0.73869 0.41704 0.83207 0.0
H377 H 0.76216 0.44586 0.8677 0.0
H378 H 0.75651 0.38192 0.85491 0.0
H379 H 0.87889 0.56339 0.79731 0.0
H380 H 0.94098 0.56809 0.80456 0.0
H381 H 0.91171 0.59227 0.8313 0.0
C382 C 0.20651 0.71794 0.18711 0.0
C383 C 0.19878 0.6811 0.16329 0.0
C384 C 0.25127 0.76119 0.19357 0.0
C385 C 0.28871 0.76786 0.17551 0.0
C386 C 0.28081 0.73102 0.15119 0.0
C387 C 0.23586 0.68769 0.14545 0.0
C388 C 0.2587 0.79939 0.21989 0.0
C389 C 0.31981 0.73735 0.13133 0.0
C390 C 0.38441 0.90345 0.18168 0.0
C391 C 0.42384 0.90244 0.19829 0.0
C392 C 0.34077 0.8594 0.17332 0.0
C393 C 0.33612 0.81353 0.18225 0.0
C394 C 0.37579 0.812 0.19882 0.0
C395 C 0.41938 0.85645 0.20647 0.0
C396 C 0.29928 0.8622 0.15541 0.0
C397 C 0.37178 0.76374 0.20895 0.0
H398 H 0.17785 0.71255 0.20099 0.0
H399 H 0.22977 0.65896 0.12707 0.0
H400 H 0.29141 0.8033 0.2336 0.0
H401 H 0.26616 0.83757 0.2146 0.0
H402 H 0.226 0.78815 0.23183 0.0
H403 H 0.30736 0.70571 0.11304 0.0
H404 H 0.32962 0.77406 0.12369 0.0
H405 H 0.35402 0.73879 0.1424 0.0
H406 H 0.38722 0.93899 0.17563 0.0
H407 H 0.45001 0.85517 0.2189 0.0
H408 H 0.26674 0.8556 0.16725 0.0
H409 H 0.28744 0.83178 0.13657 0.0
H410 H 0.31017 0.89981 0.1486 0.0
H411 H 0.34134 0.75212 0.22245 0.0
H412 H 0.40656 0.76861 0.22104 0.0
H413 H 0.36251 0.73202 0.19097 0.0
C414 C 0.62073 0.21527 0.50823 0.0
C415 C 0.58592 0.18212 0.52289 0.0
C416 C 0.62822 0.26688 0.51074 0.0
C417 C 0.59944 0.28553 0.52788 0.0
C418 C 0.56439 0.25217 0.5428 0.0
C419 C 0.55821 0.20095 0.54021 0.0
C420 C 0.66651 0.30124 0.49482 0.0
C421 C 0.533 0.27046 0.56133 0.0
C422 C 0.63964 0.42743 0.55543 0.0
C423 C 0.60886 0.43998 0.53793 0.0
C424 C 0.63842 0.37787 0.5517 0.0
C425 C 0.60531 0.33967 0.53008 0.0
C426 C 0.57554 0.35261 0.51167 0.0
C427 C 0.57781 0.40265 0.51575 0.0
C428 C 0.67132 0.36598 0.57154 0.0
C429 C 0.53982 0.31305 0.48832 0.0
H430 H 0.6417 0.20071 0.49445 0.0
H431 H 0.53123 0.17545 0.55154 0.0
H432 H 0.64817 0.31462 0.47931 0.0
H433 H 0.69294 0.33564 0.50929 0.0
H434 H 0.68773 0.28161 0.48366 0.0
H435 H 0.50768 0.23986 0.57167 0.0
H436 H 0.55706 0.30298 0.57772 0.0
H437 H 0.51051 0.28449 0.5488 0.0
H438 H 0.66425 0.45633 0.57238 0.0
H439 H 0.55373 0.41199 0.50227 0.0
H440 H 0.6919 0.34642 0.55974 0.0
H441 H 0.64824 0.33957 0.58475 0.0
H442 H 0.69838 0.40092 0.58544 0.0
H443 H 0.55936 0.29395 0.47521 0.0
H444 H 0.52163 0.32988 0.47475 0.0
H445 H 0.51074 0.28313 0.49727 0.0
C446 C 0.36455 0.60396 0.8556 0.0
C447 C 0.38691 0.60613 0.83076 0.0
C448 C 0.31301 0.57848 0.855 0.0
C449 C 0.28369 0.55516 0.82896 0.0
C450 C 0.30589 0.56137 0.80381 0.0
C451 C 0.35737 0.58677 0.80503 0.0
C452 C 0.29053 0.57299 0.88225 0.0
C453 C 0.27584 0.53761 0.77561 0.0
C454 C 0.1694 0.43195 0.82421 0.0
C455 C 0.13185 0.44914 0.82166 0.0
C456 C 0.2192 0.46651 0.82736 0.0
C457 C 0.23115 0.51921 0.8279 0.0
C458 C 0.19294 0.53664 0.82585 0.0
C459 C 0.14346 0.50115 0.82273 0.0
C460 C 0.25898 0.44651 0.82953 0.0
C461 C 0.2043 0.59242 0.82635 0.0
H462 H 0.38748 0.6189 0.87551 0.0
H463 H 0.37476 0.58877 0.78581 0.0
H464 H 0.25641 0.58016 0.88143 0.0
H465 H 0.27995 0.53327 0.88593 0.0
H466 H 0.31676 0.59956 0.90026 0.0
H467 H 0.29766 0.55126 0.75818 0.0
H468 H 0.26285 0.49543 0.77268 0.0
H469 H 0.24259 0.54626 0.77436 0.0
H470 H 0.1598 0.3915 0.8235 0.0
H471 H 0.11381 0.51396 0.82087 0.0
H472 H 0.28484 0.46695 0.84877 0.0
H473 H 0.2809 0.45375 0.81147 0.0
H474 H 0.24345 0.40484 0.82992 0.0
H475 H 0.22992 0.61615 0.84518 0.0
H476 H 0.17037 0.60007 0.82626 0.0
H477 H 0.22319 0.60489 0.80785 0.0
C478 C 0.83903 0.29291 0.13564 0.0
C479 C 0.8831 0.30202 0.15164 0.0
C480 C 0.79388 0.25624 0.14071 0.0
C481 C 0.79299 0.22809 0.16231 0.0
C482 C 0.83766 0.23599 0.17797 0.0
C483 C 0.88242 0.27305 0.17241 0.0
C484 C 0.74697 0.24887 0.12357 0.0
C485 C 0.83791 0.20661 0.20116 0.0
C486 C 0.6696 0.1765 0.19141 0.0
C487 C 0.6487 0.12653 0.17656 0.0
C488 C 0.71774 0.20959 0.18787 0.0
C489 C 0.74487 0.19181 0.16898 0.0
C490 C 0.72417 0.14053 0.15474 0.0
C491 C 0.67601 0.10836 0.15872 0.0
C492 C 0.73874 0.26405 0.20343 0.0
C493 C 0.75198 0.12038 0.13441 0.0
H494 H 0.8396 0.31554 0.11963 0.0
H495 H 0.9166 0.28041 0.18487 0.0
H496 H 0.72643 0.20804 0.11394 0.0
H497 H 0.72249 0.25969 0.1373 0.0
H498 H 0.75444 0.2722 0.10672 0.0
H499 H 0.87604 0.21503 0.21017 0.0
H500 H 0.81763 0.2165 0.21809 0.0
H501 H 0.81845 0.16492 0.19332 0.0
H502 H 0.64789 0.19002 0.2052 0.0
H503 H 0.65919 0.0694 0.14732 0.0
H504 H 0.74358 0.29055 0.18836 0.0
H505 H 0.77579 0.27394 0.2145 0.0
H506 H 0.71442 0.27061 0.21889 0.0
H507 H 0.75682 0.13997 0.11607 0.0
H508 H 0.73234 0.07853 0.1269 0.0
H509 H 0.78948 0.12865 0.14429 0.0
C510 C 0.98816 0.43513 0.0455 0.0
C511 C 0.03258 0.46761 0.06192 0.0
C512 C 0.98535 0.42696 0.01628 0.0
C513 C 0.02825 0.45117 0.00318 0.0
C514 C 0.07355 0.48303 0.01964 0.0
C515 C 0.07507 0.49131 0.04889 0.0
C516 C 0.93612 0.39345 -0.00058 0.0
C517 C 0.12019 0.50873 0.00636 0.0
C518 C 1.01862 0.39505 0.92654 0.0
C519 C 1.00383 0.42787 0.91368 0.0
C520 C 0.02924 0.40357 0.95573 0.0
C521 C 0.02445 0.44554 0.97227 0.0
C522 C 1.01184 0.48008 0.95925 0.0
C523 C 1.00218 0.47109 0.93013 0.0
C524 C 0.04349 0.36649 0.96893 0.0
C525 C 1.00617 0.5252 0.97614 0.0
H526 H 0.95517 0.41687 0.0555 0.0
H527 H 0.10965 0.51595 0.06155 0.0
H528 H 0.92444 0.41622 0.9865 0.0
H529 H 0.9396 0.36203 0.98492 0.0
H530 H 0.90658 0.37647 0.01284 0.0
H531 H 0.15311 0.52932 0.0221 0.0
H532 H 0.12718 0.47999 0.99152 0.0
H533 H 0.11571 0.53649 0.99418 0.0
H534 H 1.0201 0.3617 0.91392 0.0
H535 H 0.99222 0.49746 0.92022 0.0
H536 H 1.01288 0.34386 0.98025 0.0
H537 H 0.07659 0.38742 0.98446 0.0
H538 H 0.05141 0.33964 0.95316 0.0
H539 H 0.97502 0.51136 0.989 0.0
H540 H 0.99882 0.54996 0.96272 0.0
H541 H 0.04007 0.54874 0.9907 0.0
C542 C 0.6441 0.0693 0.40601 0.0
C543 C 0.60215 0.04902 0.42012 0.0
C544 C 0.6397 0.0652 0.37679 0.0
C545 C 0.59219 0.04094 0.36144 0.0
C546 C 0.54975 0.02067 0.37559 0.0
C547 C 0.55528 0.02464 0.40469 0.0
C548 C 0.68578 0.08657 0.36233 0.0
C549 C 0.49835 0.995 0.36 0.0
C550 C 0.56493 0.06529 0.28932 0.0
C551 C 0.55871 0.0191 0.27257 0.0
C552 C 0.57832 0.07413 0.31825 0.0
C553 C 0.58624 0.03609 0.33051 0.0
C554 C 0.58318 0.99083 0.31334 0.0
C555 C 0.56902 0.98269 0.28457 0.0
C556 C 0.58074 0.12265 0.33589 0.0
C557 C 0.59217 0.94975 0.32554 0.0
H558 H 0.68047 0.08805 0.41777 0.0
H559 H 0.5226 0.00923 0.4154 0.0
H560 H 0.68839 0.05577 0.34687 0.0
H561 H 0.68385 0.11602 0.35063 0.0
H562 H 0.72001 0.10398 0.37726 0.0
H563 H 0.46913 0.98222 0.3742 0.0
H564 H 0.49113 0.0217 0.34806 0.0
H565 H 0.49532 0.96125 0.34469 0.0
H566 H 0.55658 0.09326 0.28003 0.0
H567 H 0.56456 0.94713 0.27151 0.0
H568 H 0.6154 0.14099 0.35039 0.0
H569 H 0.54939 0.11333 0.34883 0.0
H570 H 0.57876 0.15057 0.32295 0.0
H571 H 0.62699 0.96667 0.33994 0.0
H572 H 0.59443 0.92005 0.30909 0.0
H573 H 0.56155 0.93094 0.3379 0.0
C574 C 0.56278 0.64708 0.738 0.0
C575 C 0.59645 0.63639 0.75435 0.0
C576 C 0.56208 0.64098 0.70874 0.0
C577 C 0.5955 0.62338 0.69563 0.0
C578 C 0.63091 0.61469 0.71214 0.0
C579 C 0.63108 0.6215 0.74124 0.0
C580 C 0.52428 0.65132 0.69182 0.0
C581 C 0.66713 0.59572 0.699 0.0
C582 C 0.56239 0.54309 0.62317 0.0
C583 C 0.59382 0.57695 0.60744 0.0
C584 C 0.56081 0.55855 0.65163 0.0
C585 C 0.59101 0.60936 0.66469 0.0
C586 C 0.62057 0.64465 0.64859 0.0
C587 C 0.62178 0.62796 0.62013 0.0
C588 C 0.52873 0.51969 0.66802 0.0
C589 C 0.65282 0.69928 0.66171 0.0
H590 H 0.5361 0.65893 0.74793 0.0
H591 H 0.65749 0.61339 0.75361 0.0
H592 H 0.54207 0.67523 0.67621 0.0
H593 H 0.49594 0.61468 0.68013 0.0
H594 H 0.50532 0.67087 0.70519 0.0
H595 H 0.69425 0.59384 0.71484 0.0
H596 H 0.64668 0.55692 0.68643 0.0
H597 H 0.68774 0.62102 0.68461 0.0
H598 H 0.53975 0.50396 0.61331 0.0
H599 H 0.6462 0.65434 0.60812 0.0
H600 H 0.50491 0.53476 0.67994 0.0
H601 H 0.55255 0.51204 0.68339 0.0
H602 H 0.50472 0.48291 0.65436 0.0
H603 H 0.63168 0.71601 0.67504 0.0
H604 H 0.66787 0.72355 0.64575 0.0
H605 H 0.68433 0.70032 0.67536 0.0
C606 C 0.5821 0.08571 0.60941 0.0
C607 C 0.62064 0.07928 0.59612 0.0
C608 C 0.58401 0.09331 0.63862 0.0
C609 C 0.62467 0.09256 0.65475 0.0
C610 C 0.66271 0.08382 0.6412 0.0
C611 C 0.66072 0.07829 0.61194 0.0
C612 C 0.54345 0.10404 0.65224 0.0
C613 C 0.70566 0.08091 0.6576 0.0
C614 C 0.65286 0.16929 0.72799 0.0
C615 C 0.62518 0.13239 0.74348 0.0
C616 C 0.65421 0.1565 0.69925 0.0
C617 C 0.62895 0.10506 0.68575 0.0
C618 C 0.60437 0.06683 0.70161 0.0
C619 C 0.6022 0.08102 0.73026 0.0
C620 C 0.68026 0.19864 0.68311 0.0
C621 C 0.5785 0.01129 0.6881 0.0
H622 H 0.55123 0.08649 0.59692 0.0
H623 H 0.69015 0.07266 0.60138 0.0
H624 H 0.52591 0.07567 0.66582 0.0
H625 H 0.55946 0.14235 0.66576 0.0
H626 H 0.5143 0.10292 0.63667 0.0
H627 H 0.72907 0.06825 0.64381 0.0
H628 H 0.72915 0.11896 0.67012 0.0
H629 H 0.69193 0.05402 0.67247 0.0
H630 H 0.67226 0.20882 0.73817 0.0
H631 H 0.58081 0.05211 0.74196 0.0
H632 H 0.65289 0.20139 0.66782 0.0
H633 H 0.70775 0.18993 0.67109 0.0
H634 H 0.69957 0.23645 0.69693 0.0
H635 H 0.54419 0.00522 0.67517 0.0
H636 H 0.56834 0.98568 0.70384 0.0
H637 H 0.60238 1.00012 0.67402 0.0
C638 C 0.61637 0.63657 0.94468 0.0
C639 C 0.57414 0.62115 0.92555 0.0
C640 C 0.61266 0.62443 0.97162 0.0
C641 C 0.56563 0.59522 0.97948 0.0
C642 C 0.52263 0.58138 0.96067 0.0
C643 C 0.52736 0.59493 0.93399 0.0
C644 C 0.65937 0.64088 0.99122 0.0
C645 C 0.47189 0.54966 0.96808 0.0
C646 C 0.57007 0.51346 0.03301 0.0
C647 C 0.56559 0.54197 0.05777 0.0
C648 C 0.568 0.52933 0.00725 0.0
C649 C 0.56226 0.57542 0.00629 0.0
C650 C 0.55647 0.60373 0.03118 0.0
C651 C 0.55777 0.58638 0.05664 0.0
C652 C 0.57339 0.49747 0.98116 0.0
C653 C 0.55102 0.65338 0.0311 0.0
H654 H 0.6526 0.6572 0.93835 0.0
H655 H 0.49458 0.58255 0.91923 0.0
H656 H 0.6553 0.65941 0.01202 0.0
H657 H 0.66619 0.60684 0.99426 0.0
H658 H 0.69228 0.66788 0.98312 0.0
H659 H 0.44191 0.54652 0.95242 0.0
H660 H 0.46899 0.51061 0.96929 0.0
H661 H 0.46594 0.56629 0.98891 0.0
H662 H 0.57572 0.47889 0.03388 0.0
H663 H 0.55465 0.6086 0.07585 0.0
H664 H 0.60848 0.51909 0.9728 0.0
H665 H 0.54267 0.48913 0.96473 0.0
H666 H 0.57359 0.46071 0.98512 0.0
H667 H 0.58563 0.68217 0.0255 0.0
H668 H 0.54327 0.66885 0.05176 0.0
H669 H 0.52072 0.64805 0.0151 0.0
C670 C 1.01305 0.47082 0.2508 0.0
C671 C 0.03936 0.51196 0.23754 0.0
C672 C 1.01438 0.47726 0.28005 0.0
C673 C 0.04222 0.52609 0.29636 0.0
C674 C 0.06787 0.56798 0.28306 0.0
C675 C 0.06637 0.56035 0.25385 0.0
C676 C 0.98701 0.43161 0.29351 0.0
C677 C 0.09757 0.62082 0.29973 0.0
C678 C 1.02217 0.56173 0.37172 0.0
C679 C 0.06406 0.56146 0.38607 0.0
C680 C 1.01322 0.54811 0.34245 0.0
C681 C 0.04672 0.53336 0.32742 0.0
C682 C 0.08731 0.52993 0.34208 0.0
C683 C 0.09569 0.54441 0.37124 0.0
C684 C 0.96974 0.55258 0.32755 0.0
C685 C 0.12342 0.51359 0.32689 0.0
H686 H 0.99215 0.43324 0.23838 0.0
H687 H 0.08643 0.59245 0.24379 0.0
H688 H 1.01381 0.42365 0.30658 0.0
H689 H 0.96155 0.43983 0.30755 0.0
H690 H 0.96524 0.39674 0.27784 0.0
H691 H 0.11331 0.64979 0.28615 0.0
H692 H 0.07395 0.63284 0.31361 0.0
H693 H 0.12845 0.62037 0.31329 0.0
H694 H 0.99799 0.57537 0.38323 0.0
H695 H 0.12797 0.54402 0.38244 0.0
H696 H 0.94844 0.51747 0.31201 0.0
H697 H 0.98342 0.58494 0.31595 0.0
H698 H 0.94441 0.55927 0.34227 0.0
H699 H 0.10333 0.47759 0.31175 0.0
H700 H 0.14983 0.50774 0.34146 0.0
H701 H 0.1449 0.54327 0.31484 0.0
loop_
_geom_bond_atom_site_label_1
_geom_bond_atom_site_label_2
_geom_bond_distance
_geom_bond_site_symmetry_2
_ccdc_geom_bond_type
Tb0 O3 2.453 1_455 S
Tb0 O4 2.596 1_455 S
Tb0 O5 2.374 . S
Tb0 O13 2.343 . S
Tb0 O15 2.353 . S
Tb0 O17 2.427 . S
Tb0 O18 2.513 . S
C1 O5 1.251 . S
C1 O7 1.263 . S
Tb2 O4 2.343 1_455 S
Tb2 O7 2.353 . S
Tb2 O10 2.427 1_455 S
Tb2 O11 2.513 1_455 S
Tb2 O12 2.453 . S
Tb2 O13 2.596 . S
Tb2 O14 2.374 . S
O3 Tb0 2.453 1_655 S
O3 C19 1.245 . S
O4 Tb0 2.596 1_655 S
O4 Tb2 2.343 1_655 S
O4 C19 1.259 . S
O5 Tb0 2.374 . S
O5 C1 1.251 . S
C6 O10 1.275 . S
C6 O11 1.246 . S
O7 C1 1.263 . S
O7 Tb2 2.353 . S
C8 O12 1.245 . S
C8 O13 1.259 . S
C9 O14 1.250 . S
C9 O15 1.263 . S
O10 Tb2 2.427 1_655 S
O10 C6 1.275 . S
O11 Tb2 2.513 1_655 S
O11 C6 1.246 . S
O12 Tb2 2.453 . S
O12 C8 1.245 . S
O13 Tb0 2.343 . S
O13 Tb2 2.596 . S
O13 C8 1.259 . S
O14 Tb2 2.374 . S
O14 C9 1.250 . S
O15 Tb0 2.353 . S
O15 C9 1.263 . S
C16 O17 1.275 . S
C16 O18 1.246 . S
O17 Tb0 2.427 . S
O17 C16 1.275 . S
O18 Tb0 2.513 . S
O18 C16 1.246 . S
C19 O3 1.245 . S
C19 O4 1.259 . S
Tb20 O23 2.453 . S
Tb20 O24 2.596 . S
Tb20 O25 2.374 . S
Tb20 O33 2.343 . S
Tb20 O35 2.353 . S
Tb20 O37 2.427 1_545 S
Tb20 O38 2.513 1_545 S
C21 O25 1.251 . S
C21 O27 1.263 . S
Tb22 O24 2.343 . S
Tb22 O27 2.353 . S
Tb22 O30 2.427 . S
Tb22 O31 2.513 . S
Tb22 O32 2.453 1_545 S
Tb22 O33 2.596 . S
Tb22 O34 2.374 . S
O23 Tb20 2.453 . S
O23 C39 1.245 . S
O24 Tb20 2.596 . S
O24 Tb22 2.343 . S
O24 C39 1.259 . S
O25 Tb20 2.374 . S
O25 C21 1.251 . S
C26 O30 1.275 . S
C26 O31 1.246 . S
O27 C21 1.263 . S
O27 Tb22 2.353 . S
C28 O32 1.245 . S
C28 O33 1.259 1_565 S
C29 O34 1.250 . S
C29 O35 1.263 . S
O30 Tb22 2.427 . S
O30 C26 1.275 . S
O31 Tb22 2.513 . S
O31 C26 1.246 . S
O32 Tb22 2.453 1_565 S
O32 C28 1.245 . S
O33 Tb20 2.343 . S
O33 Tb22 2.596 . S
O33 C28 1.259 1_545 S
O34 Tb22 2.374 . S
O34 C29 1.250 . S
O35 Tb20 2.353 . S
O35 C29 1.263 . S
C36 O37 1.275 . S
C36 O38 1.246 . S
O37 Tb20 2.427 1_565 S
O37 C36 1.275 . S
O38 Tb20 2.513 1_565 S
O38 C36 1.246 . S
C39 O23 1.245 . S
C39 O24 1.259 . S
Tb40 O43 2.453 . S
Tb40 O44 2.596 . S
Tb40 O45 2.374 . S
Tb40 O53 2.343 . S
Tb40 O55 2.353 . S
Tb40 O57 2.427 . S
Tb40 O58 2.513 . S
C41 O45 1.251 . S
C41 O47 1.263 . S
Tb42 O44 2.343 . S
Tb42 O47 2.353 . S
Tb42 O50 2.427 . S
Tb42 O51 2.513 . S
Tb42 O52 2.453 . S
Tb42 O53 2.596 . S
Tb42 O54 2.374 . S
O43 Tb40 2.453 . S
O43 C59 1.245 . S
O44 Tb40 2.596 . S
O44 Tb42 2.343 . S
O44 C59 1.259 . S
O45 Tb40 2.374 . S
O45 C41 1.251 . S
C46 O50 1.275 . S
C46 O51 1.246 . S
O47 C41 1.263 . S
O47 Tb42 2.353 . S
C48 O52 1.245 . S
C48 O53 1.259 . S
C49 O54 1.250 . S
C49 O55 1.263 . S
O50 Tb42 2.427 . S
O50 C46 1.275 . S
O51 Tb42 2.513 . S
O51 C46 1.246 . S
O52 Tb42 2.453 . S
O52 C48 1.245 . S
O53 Tb40 2.343 . S
O53 Tb42 2.596 . S
O53 C48 1.259 . S
O54 Tb42 2.374 . S
O54 C49 1.250 . S
O55 Tb40 2.353 . S
O55 C49 1.263 . S
C56 O57 1.275 . S
C56 O58 1.246 . S
O57 Tb40 2.427 . S
O57 C56 1.275 . S
O58 Tb40 2.513 . S
O58 C56 1.246 . S
C59 O43 1.245 . S
C59 O44 1.259 . S
H60 C63 0.929 . S
H61 C66 0.929 . S
H62 C68 0.930 . S
C63 H60 0.929 . S
C63 C64 1.398 . S
C63 C65 1.396 . S
C64 C63 1.398 . S
C64 C68 1.407 . S
C65 C63 1.396 . S
C65 C66 1.394 . S
C66 H61 0.929 . S
C66 C65 1.394 . S
C66 C67 1.382 . S
C67 C66 1.382 . S
C67 C68 1.392 . S
C67 N69 1.420 . S
C68 H62 0.930 . S
C68 C64 1.407 . S
C68 C67 1.392 . S
N69 C67 1.420 . S
N69 C70 1.244 . S
C70 N69 1.244 . S
H71 C74 0.929 . S
H72 C77 0.929 . S
H73 C79 0.930 . S
C74 H71 0.929 . S
C74 C75 1.398 . S
C74 C76 1.396 . S
C75 C74 1.398 . S
C75 C79 1.407 . S
C76 C74 1.396 . S
C76 C77 1.394 . S
C77 H72 0.929 . S
C77 C76 1.394 . S
C77 C78 1.382 . S
C78 C77 1.382 . S
C78 C79 1.392 . S
C78 N80 1.420 . S
C79 H73 0.930 . S
C79 C75 1.407 . S
C79 C78 1.392 . S
N80 C78 1.420 . S
N80 C81 1.244 . S
C81 N80 1.244 . S
H82 C85 0.929 . S
H83 C88 0.929 . S
H84 C90 0.930 . S
C85 H82 0.929 . S
C85 C86 1.398 . S
C85 C87 1.396 . S
C86 C85 1.398 . S
C86 C90 1.407 . S
C87 C85 1.396 . S
C87 C88 1.394 . S
C88 H83 0.929 . S
C88 C87 1.394 . S
C88 C89 1.382 . S
C89 C88 1.382 . S
C89 C90 1.392 . S
C89 N91 1.420 . S
C90 H84 0.930 . S
C90 C86 1.407 . S
C90 C89 1.392 . S
N91 C89 1.420 . S
N91 C92 1.244 . S
C92 N91 1.244 . S
H93 C96 0.929 . S
H94 C99 0.929 . S
H95 C101 0.930 . S
C96 H93 0.929 . S
C96 C97 1.398 . S
C96 C98 1.396 . S
C97 C96 1.398 . S
C97 C101 1.407 . S
C98 C96 1.396 . S
C98 C99 1.394 1_455 S
C99 H94 0.929 . S
C99 C98 1.394 1_655 S
C99 C100 1.382 . S
C100 C99 1.382 . S
C100 C101 1.392 1_655 S
C100 N102 1.420 . S
C101 H95 0.930 . S
C101 C97 1.407 . S
C101 C100 1.392 1_455 S
N102 C100 1.420 . S
N102 C103 1.244 . S
C103 N102 1.244 . S
H104 C107 0.929 . S
H105 C110 0.929 1_565 S
H106 C112 0.930 . S
C107 H104 0.929 . S
C107 C108 1.398 . S
C107 C109 1.396 . S
C108 C107 1.398 . S
C108 C112 1.407 . S
C109 C107 1.396 . S
C109 C110 1.394 . S
C110 H105 0.929 1_545 S
C110 C109 1.394 . S
C110 C111 1.382 . S
C111 C110 1.382 . S
C111 C112 1.392 . S
C111 N113 1.420 1_545 S
C112 H106 0.930 . S
C112 C108 1.407 . S
C112 C111 1.392 . S
N113 C111 1.420 1_565 S
N113 C114 1.244 . S
C114 N113 1.244 . S
H115 C118 0.929 . S
H116 C121 0.929 . S
H117 C123 0.930 . S
C118 H115 0.929 . S
C118 C119 1.398 . S
C118 C120 1.396 . S
C119 C118 1.398 . S
C119 C123 1.407 . S
C120 C118 1.396 . S
C120 C121 1.394 . S
C121 H116 0.929 . S
C121 C120 1.394 . S
C121 C122 1.382 . S
C122 C121 1.382 . S
C122 C123 1.392 . S
C122 N124 1.420 . S
C123 H117 0.930 . S
C123 C119 1.407 . S
C123 C122 1.392 . S
N124 C122 1.420 . S
N124 C125 1.244 . S
C125 N124 1.244 . S
C126 C127 1.391 . S
C126 C128 1.394 . S
C126 H142 0.931 . S
C127 C126 1.391 . S
C127 C131 1.376 . S
C128 C126 1.394 . S
C128 C129 1.369 . S
C128 C132 1.531 . S
C129 C128 1.369 . S
C129 C130 1.410 . S
C129 C137 1.503 . S
C130 C129 1.410 . S
C130 C131 1.392 . S
C130 C133 1.511 . S
C131 C127 1.376 . S
C131 C130 1.392 . S
C131 H143 0.929 . S
C132 C128 1.531 . S
C132 H144 0.960 . S
C132 H145 0.962 . S
C132 H146 0.960 . S
C133 C130 1.511 . S
C133 H147 0.961 . S
C133 H148 0.961 . S
C133 H149 0.961 . S
C134 C135 1.370 . S
C134 C136 1.363 . S
C134 H150 0.931 . S
C135 C134 1.370 . S
C135 C139 1.408 . S
C136 C134 1.363 . S
C136 C137 1.370 . S
C136 C140 1.524 . S
C137 C129 1.503 . S
C137 C136 1.370 . S
C137 C138 1.403 . S
C138 C137 1.403 . S
C138 C139 1.404 . S
C138 C141 1.539 . S
C139 C135 1.408 . S
C139 C138 1.404 . S
C139 H151 0.930 . S
C140 C136 1.524 . S
C140 H152 0.956 . S
C140 H153 0.961 . S
C140 H154 0.961 . S
C141 C138 1.539 . S
C141 H155 0.958 . S
C141 H156 0.961 . S
C141 H157 0.960 . S
H142 C126 0.931 . S
H143 C131 0.929 . S
H144 C132 0.960 . S
H145 C132 0.962 . S
H146 C132 0.960 . S
H147 C133 0.961 . S
H148 C133 0.961 . S
H149 C133 0.961 . S
H150 C134 0.931 . S
H151 C139 0.930 . S
H152 C140 0.956 . S
H153 C140 0.961 . S
H154 C140 0.961 . S
H155 C141 0.958 . S
H156 C141 0.961 . S
H157 C141 0.960 . S
C158 C159 1.391 . S
C158 C160 1.394 . S
C158 H174 0.931 . S
C159 C158 1.391 . S
C159 C163 1.376 . S
C160 C158 1.394 . S
C160 C161 1.369 . S
C160 C164 1.531 . S
C161 C160 1.369 . S
C161 C162 1.410 . S
C161 C169 1.503 . S
C162 C161 1.410 . S
C162 C163 1.392 . S
C162 C165 1.511 . S
C163 C159 1.376 . S
C163 C162 1.392 . S
C163 H175 0.929 . S
C164 C160 1.531 . S
C164 H176 0.960 . S
C164 H177 0.962 . S
C164 H178 0.960 . S
C165 C162 1.511 . S
C165 H179 0.961 . S
C165 H180 0.961 . S
C165 H181 0.961 . S
C166 C167 1.370 . S
C166 C168 1.363 . S
C166 H182 0.931 . S
C167 C166 1.370 . S
C167 C171 1.408 . S
C168 C166 1.363 . S
C168 C169 1.370 . S
C168 C172 1.524 . S
C169 C161 1.503 . S
C169 C168 1.370 . S
C169 C170 1.403 . S
C170 C169 1.403 . S
C170 C171 1.404 . S
C170 C173 1.539 . S
C171 C167 1.408 . S
C171 C170 1.404 . S
C171 H183 0.930 . S
C172 C168 1.524 . S
C172 H184 0.956 . S
C172 H185 0.961 . S
C172 H186 0.961 . S
C173 C170 1.539 . S
C173 H187 0.958 . S
C173 H188 0.961 . S
C173 H189 0.960 . S
H174 C158 0.931 . S
H175 C163 0.929 . S
H176 C164 0.960 . S
H177 C164 0.962 . S
H178 C164 0.960 . S
H179 C165 0.961 . S
H180 C165 0.961 . S
H181 C165 0.961 . S
H182 C166 0.931 . S
H183 C171 0.930 . S
H184 C172 0.956 . S
H185 C172 0.961 . S
H186 C172 0.961 . S
H187 C173 0.958 . S
H188 C173 0.961 . S
H189 C173 0.960 . S
C190 C191 1.391 . S
C190 C192 1.394 . S
C190 H206 0.931 . S
C191 C190 1.391 . S
C191 C195 1.376 . S
C192 C190 1.394 . S
C192 C193 1.369 . S
C192 C196 1.531 . S
C193 C192 1.369 . S
C193 C194 1.410 . S
C193 C201 1.503 . S
C194 C193 1.410 . S
C194 C195 1.392 . S
C194 C197 1.511 . S
C195 C191 1.376 . S
C195 C194 1.392 . S
C195 H207 0.929 . S
C196 C192 1.531 . S
C196 H208 0.960 . S
C196 H209 0.962 . S
C196 H210 0.960 . S
C197 C194 1.511 . S
C197 H211 0.961 . S
C197 H212 0.961 . S
C197 H213 0.961 . S
C198 C199 1.370 . S
C198 C200 1.363 . S
C198 H214 0.931 . S
C199 C198 1.370 . S
C199 C203 1.408 . S
C200 C198 1.363 . S
C200 C201 1.370 . S
C200 C204 1.524 . S
C201 C193 1.503 . S
C201 C200 1.370 . S
C201 C202 1.403 . S
C202 C201 1.403 . S
C202 C203 1.404 . S
C202 C205 1.539 . S
C203 C199 1.408 . S
C203 C202 1.404 . S
C203 H215 0.930 . S
C204 C200 1.524 . S
C204 H216 0.956 . S
C204 H217 0.961 . S
C204 H218 0.961 . S
C205 C202 1.539 . S
C205 H219 0.958 . S
C205 H220 0.961 . S
C205 H221 0.960 . S
H206 C190 0.931 . S
H207 C195 0.929 . S
H208 C196 0.960 . S
H209 C196 0.962 . S
H210 C196 0.960 . S
H211 C197 0.961 . S
H212 C197 0.961 . S
H213 C197 0.961 . S
H214 C198 0.931 . S
H215 C203 0.930 . S
H216 C204 0.956 . S
H217 C204 0.961 . S
H218 C204 0.961 . S
H219 C205 0.958 . S
H220 C205 0.961 . S
H221 C205 0.960 . S
C222 C223 1.391 . S
C222 C224 1.394 . S
C222 H238 0.931 . S
C223 C222 1.391 . S
C223 C227 1.376 . S
C224 C222 1.394 . S
C224 C225 1.369 . S
C224 C228 1.531 . S
C225 C224 1.369 . S
C225 C226 1.410 . S
C225 C233 1.503 . S
C226 C225 1.410 . S
C226 C227 1.392 . S
C226 C229 1.511 . S
C227 C223 1.376 . S
C227 C226 1.392 . S
C227 H239 0.929 . S
C228 C224 1.531 . S
C228 H240 0.960 . S
C228 H241 0.962 . S
C228 H242 0.960 . S
C229 C226 1.511 . S
C229 H243 0.961 . S
C229 H244 0.961 . S
C229 H245 0.961 . S
C230 C231 1.370 . S
C230 C232 1.363 . S
C230 H246 0.931 . S
C231 C230 1.370 . S
C231 C235 1.408 . S
C232 C230 1.363 . S
C232 C233 1.370 . S
C232 C236 1.524 . S
C233 C225 1.503 . S
C233 C232 1.370 . S
C233 C234 1.403 . S
C234 C233 1.403 . S
C234 C235 1.404 . S
C234 C237 1.539 . S
C235 C231 1.408 . S
C235 C234 1.404 . S
C235 H247 0.930 . S
C236 C232 1.524 . S
C236 H248 0.956 . S
C236 H249 0.961 . S
C236 H250 0.961 . S
C237 C234 1.539 . S
C237 H251 0.958 . S
C237 H252 0.961 . S
C237 H253 0.960 . S
H238 C222 0.931 . S
H239 C227 0.929 . S
H240 C228 0.960 . S
H241 C228 0.962 . S
H242 C228 0.960 . S
H243 C229 0.961 . S
H244 C229 0.961 . S
H245 C229 0.961 . S
H246 C230 0.931 . S
H247 C235 0.930 . S
H248 C236 0.956 . S
H249 C236 0.961 . S
H250 C236 0.961 . S
H251 C237 0.958 . S
H252 C237 0.961 . S
H253 C237 0.960 . S
C254 C255 1.391 . S
C254 C256 1.394 . S
C254 H270 0.931 . S
C255 C254 1.391 . S
C255 C259 1.376 . S
C256 C254 1.394 . S
C256 C257 1.369 . S
C256 C260 1.531 . S
C257 C256 1.369 . S
C257 C258 1.410 . S
C257 C265 1.503 . S
C258 C257 1.410 . S
C258 C259 1.392 . S
C258 C261 1.511 . S
C259 C255 1.376 . S
C259 C258 1.392 . S
C259 H271 0.929 . S
C260 C256 1.531 . S
C260 H272 0.960 . S
C260 H273 0.962 . S
C260 H274 0.960 . S
C261 C258 1.511 . S
C261 H275 0.961 . S
C261 H276 0.961 . S
C261 H277 0.961 . S
C262 C263 1.370 . S
C262 C264 1.363 . S
C262 H278 0.931 . S
C263 C262 1.370 . S
C263 C267 1.408 . S
C264 C262 1.363 . S
C264 C265 1.370 . S
C264 C268 1.524 . S
C265 C257 1.503 . S
C265 C264 1.370 . S
C265 C266 1.403 . S
C266 C265 1.403 . S
C266 C267 1.404 . S
C266 C269 1.539 . S
C267 C263 1.408 . S
C267 C266 1.404 . S
C267 H279 0.930 . S
C268 C264 1.524 . S
C268 H280 0.956 . S
C268 H281 0.961 . S
C268 H282 0.961 . S
C269 C266 1.539 . S
C269 H283 0.958 . S
C269 H284 0.961 . S
C269 H285 0.960 . S
H270 C254 0.931 . S
H271 C259 0.929 . S
H272 C260 0.960 . S
H273 C260 0.962 . S
H274 C260 0.960 . S
H275 C261 0.961 . S
H276 C261 0.961 . S
H277 C261 0.961 . S
H278 C262 0.931 . S
H279 C267 0.930 . S
H280 C268 0.956 . S
H281 C268 0.961 . S
H282 C268 0.961 . S
H283 C269 0.958 . S
H284 C269 0.961 . S
H285 C269 0.960 . S
C286 C287 1.391 . S
C286 C288 1.394 . S
C286 H302 0.931 . S
C287 C286 1.391 . S
C287 C291 1.376 . S
C288 C286 1.394 . S
C288 C289 1.369 . S
C288 C292 1.531 . S
C289 C288 1.369 . S
C289 C290 1.410 . S
C289 C297 1.503 . S
C290 C289 1.410 . S
C290 C291 1.392 . S
C290 C293 1.511 . S
C291 C287 1.376 . S
C291 C290 1.392 . S
C291 H303 0.929 . S
C292 C288 1.531 . S
C292 H304 0.960 . S
C292 H305 0.962 . S
C292 H306 0.960 . S
C293 C290 1.511 . S
C293 H307 0.961 . S
C293 H308 0.961 . S
C293 H309 0.961 . S
C294 C295 1.370 . S
C294 C296 1.363 . S
C294 H310 0.931 . S
C295 C294 1.370 . S
C295 C299 1.408 . S
C296 C294 1.363 . S
C296 C297 1.370 . S
C296 C300 1.524 . S
C297 C289 1.503 . S
C297 C296 1.370 . S
C297 C298 1.403 . S
C298 C297 1.403 . S
C298 C299 1.404 . S
C298 C301 1.539 . S
C299 C295 1.408 . S
C299 C298 1.404 . S
C299 H311 0.930 . S
C300 C296 1.524 . S
C300 H312 0.956 . S
C300 H313 0.961 . S
C300 H314 0.961 . S
C301 C298 1.539 . S
C301 H315 0.958 . S
C301 H316 0.961 . S
C301 H317 0.960 . S
H302 C286 0.931 . S
H303 C291 0.929 . S
H304 C292 0.960 . S
H305 C292 0.962 . S
H306 C292 0.960 . S
H307 C293 0.961 . S
H308 C293 0.961 . S
H309 C293 0.961 . S
H310 C294 0.931 . S
H311 C299 0.930 . S
H312 C300 0.956 . S
H313 C300 0.961 . S
H314 C300 0.961 . S
H315 C301 0.958 . S
H316 C301 0.961 . S
H317 C301 0.960 . S
C318 C319 1.391 . S
C318 C320 1.394 . S
C318 H334 0.931 . S
C319 C318 1.391 . S
C319 C323 1.376 . S
C320 C318 1.394 . S
C320 C321 1.369 . S
C320 C324 1.531 . S
C321 C320 1.369 . S
C321 C322 1.410 . S
C321 C329 1.503 . S
C322 C321 1.410 . S
C322 C323 1.392 . S
C322 C325 1.511 . S
C323 C319 1.376 . S
C323 C322 1.392 . S
C323 H335 0.929 . S
C324 C320 1.531 . S
C324 H336 0.960 . S
C324 H337 0.962 . S
C324 H338 0.960 . S
C325 C322 1.511 . S
C325 H339 0.961 . S
C325 H340 0.961 . S
C325 H341 0.961 . S
C326 C327 1.370 . S
C326 C328 1.363 . S
C326 H342 0.931 . S
C327 C326 1.370 . S
C327 C331 1.408 . S
C328 C326 1.363 . S
C328 C329 1.370 . S
C328 C332 1.524 . S
C329 C321 1.503 . S
C329 C328 1.370 . S
C329 C330 1.403 . S
C330 C329 1.403 . S
C330 C331 1.404 . S
C330 C333 1.539 . S
C331 C327 1.408 . S
C331 C330 1.404 . S
C331 H343 0.930 . S
C332 C328 1.524 . S
C332 H344 0.956 . S
C332 H345 0.961 . S
C332 H346 0.961 . S
C333 C330 1.539 . S
C333 H347 0.958 . S
C333 H348 0.961 . S
C333 H349 0.960 . S
H334 C318 0.931 . S
H335 C323 0.929 . S
H336 C324 0.960 . S
H337 C324 0.962 . S
H338 C324 0.960 . S
H339 C325 0.961 . S
H340 C325 0.961 . S
H341 C325 0.961 . S
H342 C326 0.931 . S
H343 C331 0.930 . S
H344 C332 0.956 . S
H345 C332 0.961 . S
H346 C332 0.961 . S
H347 C333 0.958 . S
H348 C333 0.961 . S
H349 C333 0.960 . S
C350 C351 1.391 . S
C350 C352 1.394 . S
C350 H366 0.931 . S
C351 C350 1.391 . S
C351 C355 1.376 . S
C352 C350 1.394 . S
C352 C353 1.369 . S
C352 C356 1.531 . S
C353 C352 1.369 . S
C353 C354 1.410 . S
C353 C361 1.503 . S
C354 C353 1.410 . S
C354 C355 1.392 . S
C354 C357 1.511 . S
C355 C351 1.376 . S
C355 C354 1.392 . S
C355 H367 0.929 . S
C356 C352 1.531 . S
C356 H368 0.960 . S
C356 H369 0.962 . S
C356 H370 0.960 . S
C357 C354 1.511 . S
C357 H371 0.961 . S
C357 H372 0.961 . S
C357 H373 0.961 . S
C358 C359 1.370 . S
C358 C360 1.363 . S
C358 H374 0.931 . S
C359 C358 1.370 . S
C359 C363 1.408 . S
C360 C358 1.363 . S
C360 C361 1.370 . S
C360 C364 1.524 . S
C361 C353 1.503 . S
C361 C360 1.370 . S
C361 C362 1.403 . S
C362 C361 1.403 . S
C362 C363 1.404 . S
C362 C365 1.539 . S
C363 C359 1.408 . S
C363 C362 1.404 . S
C363 H375 0.930 1_655 S
C364 C360 1.524 . S
C364 H376 0.956 . S
C364 H377 0.961 . S
C364 H378 0.961 . S
C365 C362 1.539 . S
C365 H379 0.958 . S
C365 H380 0.961 . S
C365 H381 0.960 . S
H366 C350 0.931 . S
H367 C355 0.929 . S
H368 C356 0.960 . S
H369 C356 0.962 . S
H370 C356 0.960 . S
H371 C357 0.961 . S
H372 C357 0.961 . S
H373 C357 0.961 . S
H374 C358 0.931 . S
H375 C363 0.930 1_455 S
H376 C364 0.956 . S
H377 C364 0.961 . S
H378 C364 0.961 . S
H379 C365 0.958 . S
H380 C365 0.961 . S
H381 C365 0.960 . S
C382 C383 1.391 . S
C382 C384 1.394 . S
C382 H398 0.931 . S
C383 C382 1.391 . S
C383 C387 1.376 . S
C384 C382 1.394 . S
C384 C385 1.369 . S
C384 C388 1.531 . S
C385 C384 1.369 . S
C385 C386 1.410 . S
C385 C393 1.503 . S
C386 C385 1.410 . S
C386 C387 1.392 . S
C386 C389 1.511 . S
C387 C383 1.376 . S
C387 C386 1.392 . S
C387 H399 0.929 . S
C388 C384 1.531 . S
C388 H400 0.960 . S
C388 H401 0.962 . S
C388 H402 0.960 . S
C389 C386 1.511 . S
C389 H403 0.961 . S
C389 H404 0.961 . S
C389 H405 0.961 . S
C390 C391 1.370 . S
C390 C392 1.363 . S
C390 H406 0.931 . S
C391 C390 1.370 . S
C391 C395 1.408 . S
C392 C390 1.363 . S
C392 C393 1.370 . S
C392 C396 1.524 . S
C393 C385 1.503 . S
C393 C392 1.370 . S
C393 C394 1.403 . S
C394 C393 1.403 . S
C394 C395 1.404 . S
C394 C397 1.539 . S
C395 C391 1.408 . S
C395 C394 1.404 . S
C395 H407 0.930 . S
C396 C392 1.524 . S
C396 H408 0.956 . S
C396 H409 0.961 . S
C396 H410 0.961 . S
C397 C394 1.539 . S
C397 H411 0.958 . S
C397 H412 0.961 . S
C397 H413 0.960 . S
H398 C382 0.931 . S
H399 C387 0.929 . S
H400 C388 0.960 . S
H401 C388 0.962 . S
H402 C388 0.960 . S
H403 C389 0.961 . S
H404 C389 0.961 . S
H405 C389 0.961 . S
H406 C390 0.931 . S
H407 C395 0.930 . S
H408 C396 0.956 . S
H409 C396 0.961 . S
H410 C396 0.961 . S
H411 C397 0.958 . S
H412 C397 0.961 . S
H413 C397 0.960 . S
C414 C415 1.391 . S
C414 C416 1.394 . S
C414 H430 0.931 . S
C415 C414 1.391 . S
C415 C419 1.376 . S
C416 C414 1.394 . S
C416 C417 1.369 . S
C416 C420 1.531 . S
C417 C416 1.369 . S
C417 C418 1.410 . S
C417 C425 1.503 . S
C418 C417 1.410 . S
C418 C419 1.392 . S
C418 C421 1.511 . S
C419 C415 1.376 . S
C419 C418 1.392 . S
C419 H431 0.929 . S
C420 C416 1.531 . S
C420 H432 0.960 . S
C420 H433 0.962 . S
C420 H434 0.960 . S
C421 C418 1.511 . S
C421 H435 0.961 . S
C421 H436 0.961 . S
C421 H437 0.961 . S
C422 C423 1.370 . S
C422 C424 1.363 . S
C422 H438 0.931 . S
C423 C422 1.370 . S
C423 C427 1.408 . S
C424 C422 1.363 . S
C424 C425 1.370 . S
C424 C428 1.524 . S
C425 C417 1.503 . S
C425 C424 1.370 . S
C425 C426 1.403 . S
C426 C425 1.403 . S
C426 C427 1.404 . S
C426 C429 1.539 . S
C427 C423 1.408 . S
C427 C426 1.404 . S
C427 H439 0.930 . S
C428 C424 1.524 . S
C428 H440 0.956 . S
C428 H441 0.961 . S
C428 H442 0.961 . S
C429 C426 1.539 . S
C429 H443 0.958 . S
C429 H444 0.961 . S
C429 H445 0.960 . S
H430 C414 0.931 . S
H431 C419 0.929 . S
H432 C420 0.960 . S
H433 C420 0.962 . S
H434 C420 0.960 . S
H435 C421 0.961 . S
H436 C421 0.961 . S
H437 C421 0.961 . S
H438 C422 0.931 . S
H439 C427 0.930 . S
H440 C428 0.956 . S
H441 C428 0.961 . S
H442 C428 0.961 . S
H443 C429 0.958 . S
H444 C429 0.961 . S
H445 C429 0.960 . S
C446 C447 1.391 . S
C446 C448 1.394 . S
C446 H462 0.931 . S
C447 C446 1.391 . S
C447 C451 1.376 . S
C448 C446 1.394 . S
C448 C449 1.369 . S
C448 C452 1.531 . S
C449 C448 1.369 . S
C449 C450 1.410 . S
C449 C457 1.503 . S
C450 C449 1.410 . S
C450 C451 1.392 . S
C450 C453 1.511 . S
C451 C447 1.376 . S
C451 C450 1.392 . S
C451 H463 0.929 . S
C452 C448 1.531 . S
C452 H464 0.960 . S
C452 H465 0.962 . S
C452 H466 0.960 . S
C453 C450 1.511 . S
C453 H467 0.961 . S
C453 H468 0.961 . S
C453 H469 0.961 . S
C454 C455 1.370 . S
C454 C456 1.363 . S
C454 H470 0.931 . S
C455 C454 1.370 . S
C455 C459 1.408 . S
C456 C454 1.363 . S
C456 C457 1.370 . S
C456 C460 1.524 . S
C457 C449 1.503 . S
C457 C456 1.370 . S
C457 C458 1.403 . S
C458 C457 1.403 . S
C458 C459 1.404 . S
C458 C461 1.539 . S
C459 C455 1.408 . S
C459 C458 1.404 . S
C459 H471 0.930 . S
C460 C456 1.524 . S
C460 H472 0.956 . S
C460 H473 0.961 . S
C460 H474 0.961 . S
C461 C458 1.539 . S
C461 H475 0.958 . S
C461 H476 0.961 . S
C461 H477 0.960 . S
H462 C446 0.931 . S
H463 C451 0.929 . S
H464 C452 0.960 . S
H465 C452 0.962 . S
H466 C452 0.960 . S
H467 C453 0.961 . S
H468 C453 0.961 . S
H469 C453 0.961 . S
H470 C454 0.931 . S
H471 C459 0.930 . S
H472 C460 0.956 . S
H473 C460 0.961 . S
H474 C460 0.961 . S
H475 C461 0.958 . S
H476 C461 0.961 . S
H477 C461 0.960 . S
C478 C479 1.391 . S
C478 C480 1.394 . S
C478 H494 0.931 . S
C479 C478 1.391 . S
C479 C483 1.376 . S
C480 C478 1.394 . S
C480 C481 1.369 . S
C480 C484 1.531 . S
C481 C480 1.369 . S
C481 C482 1.410 . S
C481 C489 1.503 . S
C482 C481 1.410 . S
C482 C483 1.392 . S
C482 C485 1.511 . S
C483 C479 1.376 . S
C483 C482 1.392 . S
C483 H495 0.929 . S
C484 C480 1.531 . S
C484 H496 0.960 . S
C484 H497 0.962 . S
C484 H498 0.960 . S
C485 C482 1.511 . S
C485 H499 0.961 . S
C485 H500 0.961 . S
C485 H501 0.961 . S
C486 C487 1.370 . S
C486 C488 1.363 . S
C486 H502 0.931 . S
C487 C486 1.370 . S
C487 C491 1.408 . S
C488 C486 1.363 . S
C488 C489 1.370 . S
C488 C492 1.524 . S
C489 C481 1.503 . S
C489 C488 1.370 . S
C489 C490 1.403 . S
C490 C489 1.403 . S
C490 C491 1.404 . S
C490 C493 1.539 . S
C491 C487 1.408 . S
C491 C490 1.404 . S
C491 H503 0.930 . S
C492 C488 1.524 . S
C492 H504 0.956 . S
C492 H505 0.961 . S
C492 H506 0.961 . S
C493 C490 1.539 . S
C493 H507 0.958 . S
C493 H508 0.961 . S
C493 H509 0.960 . S
H494 C478 0.931 . S
H495 C483 0.929 . S
H496 C484 0.960 . S
H497 C484 0.962 . S
H498 C484 0.960 . S
H499 C485 0.961 . S
H500 C485 0.961 . S
H501 C485 0.961 . S
H502 C486 0.931 . S
H503 C491 0.930 . S
H504 C492 0.956 . S
H505 C492 0.961 . S
H506 C492 0.961 . S
H507 C493 0.958 . S
H508 C493 0.961 . S
H509 C493 0.960 . S
C510 C511 1.391 . S
C510 C512 1.394 . S
C510 H526 0.931 . S
C511 C510 1.391 . S
C511 C515 1.376 . S
C512 C510 1.394 . S
C512 C513 1.369 . S
C512 C516 1.552 . S
C513 C512 1.369 . S
C513 C514 1.410 . S
C513 C521 1.503 1_554 S
C514 C513 1.410 . S
C514 C515 1.392 . S
C514 C517 1.511 . S
C515 C511 1.376 . S
C515 C514 1.392 . S
C515 H527 0.929 . S
C516 C512 1.552 . S
C516 H528 0.970 . S
C516 H529 0.949 1_455 S
C516 H530 0.943 1_455 S
C517 C514 1.511 . S
C517 H531 0.961 . S
C517 H532 0.961 . S
C517 H533 0.961 . S
C518 C519 1.370 . S
C518 C520 1.363 . S
C518 H534 0.931 . S
C519 C518 1.370 . S
C519 C523 1.408 . S
C520 C518 1.363 . S
C520 C521 1.370 . S
C520 C524 1.524 . S
C521 C513 1.503 1_556 S
C521 C520 1.370 . S
C521 C522 1.403 . S
C522 C521 1.403 . S
C522 C523 1.404 . S
C522 C525 1.539 1_556 S
C523 C519 1.408 . S
C523 C522 1.404 . S
C523 H535 0.930 . S
C524 C520 1.524 . S
C524 H536 0.956 1_455 S
C524 H537 0.961 1_556 S
C524 H538 0.961 1_455 S
C525 C522 1.539 1_554 S
C525 H539 0.958 . S
C525 H540 0.961 1_554 S
C525 H541 0.960 . S
H526 C510 0.931 . S
H527 C515 0.929 . S
H528 C516 0.970 . S
H529 C516 0.949 1_655 S
H530 C516 0.943 1_655 S
H531 C517 0.961 . S
H532 C517 0.961 . S
H533 C517 0.961 . S
H534 C518 0.931 . S
H535 C523 0.930 . S
H536 C524 0.956 1_655 S
H537 C524 0.961 1_554 S
H538 C524 0.961 1_655 S
H539 C525 0.958 . S
H540 C525 0.961 1_556 S
H541 C525 0.960 . S
C542 C543 1.391 . S
C542 C544 1.394 . S
C542 H558 0.931 . S
C543 C542 1.391 . S
C543 C547 1.376 . S
C544 C542 1.394 . S
C544 C545 1.369 . S
C544 C548 1.531 . S
C545 C544 1.369 . S
C545 C546 1.410 . S
C545 C553 1.503 . S
C546 C545 1.410 . S
C546 C547 1.392 . S
C546 C549 1.511 . S
C547 C543 1.376 . S
C547 C546 1.392 . S
C547 H559 0.929 . S
C548 C544 1.531 . S
C548 H560 0.960 . S
C548 H561 0.962 . S
C548 H562 0.960 1_545 S
C549 C546 1.511 . S
C549 H563 0.961 . S
C549 H564 0.961 . S
C549 H565 0.961 . S
C550 C551 1.370 . S
C550 C552 1.363 . S
C550 H566 0.931 . S
C551 C550 1.370 . S
C551 C555 1.408 . S
C552 C550 1.363 . S
C552 C553 1.370 . S
C552 C556 1.524 . S
C553 C545 1.503 . S
C553 C552 1.370 . S
C553 C554 1.403 . S
C554 C553 1.403 . S
C554 C555 1.404 . S
C554 C557 1.539 1_545 S
C555 C551 1.408 . S
C555 C554 1.404 . S
C555 H567 0.930 1_545 S
C556 C552 1.524 . S
C556 H568 0.956 . S
C556 H569 0.961 . S
C556 H570 0.961 . S
C557 C554 1.539 1_565 S
C557 H571 0.958 . S
C557 H572 0.961 . S
C557 H573 0.960 . S
H558 C542 0.931 . S
H559 C547 0.929 . S
H560 C548 0.960 . S
H561 C548 0.962 . S
H562 C548 0.960 1_565 S
H563 C549 0.961 . S
H564 C549 0.961 . S
H565 C549 0.961 . S
H566 C550 0.931 . S
H567 C555 0.930 1_565 S
H568 C556 0.956 . S
H569 C556 0.961 . S
H570 C556 0.961 . S
H571 C557 0.958 . S
H572 C557 0.961 . S
H573 C557 0.960 . S
C574 C575 1.391 . S
C574 C576 1.394 . S
C574 H590 0.931 . S
C575 C574 1.391 . S
C575 C579 1.376 . S
C576 C574 1.394 . S
C576 C577 1.369 . S
C576 C580 1.531 . S
C577 C576 1.369 . S
C577 C578 1.410 . S
C577 C585 1.503 . S
C578 C577 1.410 . S
C578 C579 1.392 . S
C578 C581 1.511 . S
C579 C575 1.376 . S
C579 C578 1.392 . S
C579 H591 0.929 . S
C580 C576 1.531 . S
C580 H592 0.960 . S
C580 H593 0.962 . S
C580 H594 0.960 . S
C581 C578 1.511 . S
C581 H595 0.961 . S
C581 H596 0.961 . S
C581 H597 0.961 . S
C582 C583 1.370 . S
C582 C584 1.363 . S
C582 H598 0.931 . S
C583 C582 1.370 . S
C583 C587 1.408 . S
C584 C582 1.363 . S
C584 C585 1.370 . S
C584 C588 1.524 . S
C585 C577 1.503 . S
C585 C584 1.370 . S
C585 C586 1.403 . S
C586 C585 1.403 . S
C586 C587 1.404 . S
C586 C589 1.539 . S
C587 C583 1.408 . S
C587 C586 1.404 . S
C587 H599 0.930 . S
C588 C584 1.524 . S
C588 H600 0.956 . S
C588 H601 0.961 . S
C588 H602 0.961 . S
C589 C586 1.539 . S
C589 H603 0.958 . S
C589 H604 0.961 . S
C589 H605 0.960 . S
H590 C574 0.931 . S
H591 C579 0.929 . S
H592 C580 0.960 . S
H593 C580 0.962 . S
H594 C580 0.960 . S
H595 C581 0.961 . S
H596 C581 0.961 . S
H597 C581 0.961 . S
H598 C582 0.931 . S
H599 C587 0.930 . S
H600 C588 0.956 . S
H601 C588 0.961 . S
H602 C588 0.961 . S
H603 C589 0.958 . S
H604 C589 0.961 . S
H605 C589 0.960 . S
C606 C607 1.391 . S
C606 C608 1.394 . S
C606 H622 0.931 . S
C607 C606 1.391 . S
C607 C611 1.376 . S
C608 C606 1.394 . S
C608 C609 1.369 . S
C608 C612 1.531 . S
C609 C608 1.369 . S
C609 C610 1.410 . S
C609 C617 1.503 . S
C610 C609 1.410 . S
C610 C611 1.392 . S
C610 C613 1.511 . S
C611 C607 1.376 . S
C611 C610 1.392 . S
C611 H623 0.929 . S
C612 C608 1.531 . S
C612 H624 0.960 . S
C612 H625 0.962 . S
C612 H626 0.960 . S
C613 C610 1.511 . S
C613 H627 0.961 . S
C613 H628 0.961 . S
C613 H629 0.961 . S
C614 C615 1.370 . S
C614 C616 1.363 . S
C614 H630 0.931 . S
C615 C614 1.370 . S
C615 C619 1.408 1_545 S
C616 C614 1.363 . S
C616 C617 1.370 . S
C616 C620 1.524 . S
C617 C609 1.503 . S
C617 C616 1.370 . S
C617 C618 1.403 1_545 S
C618 C617 1.403 1_565 S
C618 C619 1.404 . S
C618 C621 1.539 . S
C619 C615 1.408 1_565 S
C619 C618 1.404 . S
C619 H631 0.930 . S
C620 C616 1.524 . S
C620 H632 0.956 . S
C620 H633 0.961 . S
C620 H634 0.961 . S
C621 C618 1.539 . S
C621 H635 0.958 . S
C621 H636 0.961 . S
C621 H637 0.960 . S
H622 C606 0.931 . S
H623 C611 0.929 . S
H624 C612 0.960 . S
H625 C612 0.962 . S
H626 C612 0.960 . S
H627 C613 0.961 . S
H628 C613 0.961 . S
H629 C613 0.961 . S
H630 C614 0.931 . S
H631 C619 0.930 . S
H632 C620 0.956 . S
H633 C620 0.961 . S
H634 C620 0.961 . S
H635 C621 0.958 . S
H636 C621 0.961 . S
H637 C621 0.960 . S
C638 C639 1.391 . S
C638 C640 1.394 . S
C638 H654 0.931 . S
C639 C638 1.391 . S
C639 C643 1.376 . S
C640 C638 1.394 . S
C640 C641 1.369 . S
C640 C644 1.531 . S
C641 C640 1.369 . S
C641 C642 1.410 . S
C641 C649 1.503 1_556 S
C642 C641 1.410 . S
C642 C643 1.392 . S
C642 C645 1.511 . S
C643 C639 1.376 . S
C643 C642 1.392 . S
C643 H655 0.929 . S
C644 C640 1.531 . S
C644 H656 0.960 1_556 S
C644 H657 0.962 . S
C644 H658 0.960 . S
C645 C642 1.511 . S
C645 H659 0.961 . S
C645 H660 0.961 . S
C645 H661 0.961 . S
C646 C647 1.370 . S
C646 C648 1.363 . S
C646 H662 0.931 . S
C647 C646 1.370 . S
C647 C651 1.408 . S
C648 C646 1.363 . S
C648 C649 1.370 . S
C648 C652 1.524 1_554 S
C649 C641 1.503 1_554 S
C649 C648 1.370 . S
C649 C650 1.403 . S
C650 C649 1.403 . S
C650 C651 1.404 . S
C650 C653 1.539 . S
C651 C647 1.408 . S
C651 C650 1.404 . S
C651 H663 0.930 . S
C652 C648 1.524 1_556 S
C652 H664 0.956 . S
C652 H665 0.961 . S
C652 H666 0.986 . S
C653 C650 1.539 . S
C653 H667 0.958 . S
C653 H668 0.961 . S
C653 H669 0.960 1_554 S
H654 C638 0.931 . S
H655 C643 0.929 . S
H656 C644 0.960 1_554 S
H657 C644 0.962 . S
H658 C644 0.960 . S
H659 C645 0.961 . S
H660 C645 0.961 . S
H661 C645 0.961 . S
H662 C646 0.931 . S
H663 C651 0.930 . S
H664 C652 0.956 . S
H665 C652 0.961 . S
H666 C652 0.986 . S
H667 C653 0.958 . S
H668 C653 0.961 . S
H669 C653 0.960 1_556 S
C670 C671 1.390 . S
C670 C672 1.394 1_455 S
C670 H686 0.931 1_455 S
C671 C670 1.390 . S
C671 C675 1.376 . S
C672 C670 1.394 1_655 S
C672 C673 1.369 1_655 S
C672 C676 1.531 . S
C673 C672 1.369 1_455 S
C673 C674 1.410 . S
C673 C681 1.503 . S
C674 C673 1.410 . S
C674 C675 1.392 . S
C674 C677 1.511 . S
C675 C671 1.376 . S
C675 C674 1.392 . S
C675 H687 0.929 . S
C676 C672 1.531 . S
C676 H688 0.960 . S
C676 H689 0.962 . S
C676 H690 0.960 . S
C677 C674 1.511 . S
C677 H691 0.961 . S
C677 H692 0.961 . S
C677 H693 0.961 . S
C678 C679 1.370 1_655 S
C678 C680 1.363 . S
C678 H694 0.931 . S
C679 C678 1.370 1_455 S
C679 C683 1.408 . S
C680 C678 1.363 . S
C680 C681 1.370 1_655 S
C680 C684 1.524 . S
C681 C673 1.503 . S
C681 C680 1.370 1_455 S
C681 C682 1.403 . S
C682 C681 1.403 . S
C682 C683 1.404 . S
C682 C685 1.539 . S
C683 C679 1.408 . S
C683 C682 1.404 . S
C683 H695 0.930 . S
C684 C680 1.524 . S
C684 H696 0.956 . S
C684 H697 0.961 . S
C684 H698 0.961 . S
C685 C682 1.539 . S
C685 H699 0.958 . S
C685 H700 0.961 . S
C685 H701 0.960 . S
H686 C670 0.931 1_655 S
H687 C675 0.929 . S
H688 C676 0.960 . S
H689 C676 0.962 . S
H690 C676 0.960 . S
H691 C677 0.961 . S
H692 C677 0.961 . S
H693 C677 0.961 . S
H694 C678 0.931 . S
H695 C683 0.930 . S
H696 C684 0.956 . S
H697 C684 0.961 . S
H698 C684 0.961 . S
H699 C685 0.958 . S
H700 C685 0.961 . S
H701 C685 0.960 . S
C127 C8 1.997 . S
C135 C125 2.072 . S
C159 C26 1.361 . S
C167 C103 1.380 . S
C191 C48 1.561 . S
C199 C114 1.593 . S
C223 C19 1.725 . S
C231 C119 1.752 . S
C263 C97 1.365 . S
C255 C36 1.337 . S
C295 C108 1.563 . S
C287 C59 1.536 . S
C319 C28 1.552 . S
C327 C81 1.614 . S
C351 C46 1.064 . S
C359 C86 1.108 1_655 S
C383 C16 1.382 . S
C391 C64 1.352 1_565 S
C423 C75 1.553 . S
C415 C39 1.508 . S
C455 C92 1.066 . S
C447 C56 1.094 . S
C479 C6 1.407 . S
C487 C70 1.409 . S
C519 C87 1.454 . S
C511 C9 1.440 . S
C543 C21 1.511 . S
C551 C65 1.529 . S
C575 C49 1.513 . S
C583 C76 1.505 . S
C615 C109 1.504 . S
C607 C29 1.511 . S
C647 C120 1.609 . S
C639 C41 1.557 . S
C671 C1 1.476 . S
C679 C98 1.504 . S
