# Generated by pormake.
# Topology anh, (6,3)-cn, num edge types: 1
# Building blocks:
#     Node 0, Type 0, BuildingBlock: MIFKUJ_clean_sbu_0, # of connection points: 6
#     Node 1, Type 0, BuildingBlock: MIFKUJ_clean_sbu_0, # of connection points: 6
#     Node 2, Type 0, BuildingBlock: MIFKUJ_clean_sbu_0, # of connection points: 6
#     Node 3, Type 1, BuildingBlock: INOVEN_clean_linker_0, # of connection points: 3
#     Node 4, Type 1, BuildingBlock: INOVEN_clean_linker_0, # of connection points: 3
#     Node 5, Type 1, BuildingBlock: INOVEN_clean_linker_0, # of connection points: 3
#     Node 6, Type 1, BuildingBlock: INOVEN_clean_linker_0, # of connection points: 3
#     Node 7, Type 1, BuildingBlock: INOVEN_clean_linker_0, # of connection points: 3
#     Node 8, Type 1, BuildingBlock: INOVEN_clean_linker_0, # of connection points: 3
#     Edge 9, Type (0, 1), BuildingBlock: XUDNAN_clean_linker_2, # of connection points: 2
#     Edge 10, Type (0, 1), BuildingBlock: XUDNAN_clean_linker_2, # of connection points: 2
#     Edge 11, Type (0, 1), BuildingBlock: XUDNAN_clean_linker_2, # of connection points: 2
#     Edge 12, Type (0, 1), BuildingBlock: XUDNAN_clean_linker_2, # of connection points: 2
#     Edge 13, Type (0, 1), BuildingBlock: XUDNAN_clean_linker_2, # of connection points: 2
#     Edge 14, Type (0, 1), BuildingBlock: XUDNAN_clean_linker_2, # of connection points: 2
#     Edge 15, Type (0, 1), BuildingBlock: XUDNAN_clean_linker_2, # of connection points: 2
#     Edge 16, Type (0, 1), BuildingBlock: XUDNAN_clean_linker_2, # of connection points: 2
#     Edge 17, Type (0, 1), BuildingBlock: XUDNAN_clean_linker_2, # of connection points: 2
#     Edge 18, Type (0, 1), BuildingBlock: XUDNAN_clean_linker_2, # of connection points: 2
#     Edge 19, Type (0, 1), BuildingBlock: XUDNAN_clean_linker_2, # of connection points: 2
#     Edge 20, Type (0, 1), BuildingBlock: XUDNAN_clean_linker_2, # of connection points: 2
#     Edge 21, Type (0, 1), BuildingBlock: XUDNAN_clean_linker_2, # of connection points: 2
#     Edge 22, Type (0, 1), BuildingBlock: XUDNAN_clean_linker_2, # of connection points: 2
#     Edge 23, Type (0, 1), BuildingBlock: XUDNAN_clean_linker_2, # of connection points: 2
#     Edge 24, Type (0, 1), BuildingBlock: XUDNAN_clean_linker_2, # of connection points: 2
#     Edge 25, Type (0, 1), BuildingBlock: XUDNAN_clean_linker_2, # of connection points: 2
#     Edge 26, Type (0, 1), BuildingBlock: XUDNAN_clean_linker_2, # of connection points: 2
# Relax obj value: 0.067
# Max RMSD: 0.134
# Mean RMSD: 0.093
data_MOF--net-anh--node1-MIFKUJ_clean_sbu_0--node2-INOVEN_clean_linker_0--edge1-XUDNAN_clean_linker_2
_symmetry_space_group_name_H-M    P1
_symmetry_Int_Tables_number       1
_symmetry_cell_setting            triclinic
loop_
_symmetry_equiv_pos_as_xyz
'x, y, z'
_cell_length_a     31.822549
_cell_length_b     31.915154
_cell_length_c     46.624944
_cell_angle_alpha  96.489533
_cell_angle_beta   93.383319
_cell_angle_gamma 119.88392
loop_
_atom_site_label
_atom_site_type_symbol
_atom_site_fract_x
_atom_site_fract_y
_atom_site_fract_z
_atom_type_partial_charge
Zn0 Zn 0.06165 0.60054 0.16843 0.0
Zn1 Zn 0.93229 0.4965 0.15633 0.0
C2 C 0.15132 0.59852 0.1697 0.0
O3 O 0.16643 0.63993 0.18726 0.0
C4 C 0.87469 0.54763 0.14668 0.0
O5 O 0.89325 0.55967 0.12243 0.0
O6 O 0.10252 0.67337 0.17397 0.0
O7 O 0.01125 0.58706 0.13484 0.0
O8 O 0.96794 0.50774 0.12179 0.0
C9 C 0.12331 0.68972 0.152 0.0
O10 O 0.1175 0.65873 0.12889 0.0
O11 O 0.1067 0.57354 0.15807 0.0
C12 C 0.85914 0.4082 0.16781 0.0
O13 O 0.86959 0.43623 0.19316 0.0
O14 O 0.88308 0.42598 0.14724 0.0
O15 O 0.96992 0.5062 0.19502 0.0
O16 O 0.03887 0.57857 0.20672 0.0
O17 O 0.8888 0.52568 0.16231 0.0
C18 C 0.99716 0.54947 0.11595 0.0
C19 C 0.00615 0.53827 0.21332 0.0
Zn20 Zn 0.55565 0.1072 0.50673 0.0
Zn21 Zn 0.50214 0.95952 0.49636 0.0
C22 C 0.65057 0.18185 0.53229 0.0
O23 O 0.62423 0.18647 0.55171 0.0
C24 C 0.39649 0.90231 0.49343 0.0
O25 O 0.39818 0.91858 0.46862 0.0
O26 O 0.53393 0.15395 0.49819 0.0
O27 O 0.52691 0.05181 0.47264 0.0
O28 O 0.4942 0.9735 0.456 0.0
C29 C 0.55598 0.17957 0.4791 0.0
O30 O 0.58911 0.17291 0.46726 0.0
O31 O 0.6294 0.14672 0.51091 0.0
C32 C 0.54247 0.90454 0.51513 0.0
O33 O 0.53074 0.91631 0.54007 0.0
O34 O 0.53425 0.91995 0.49284 0.0
O35 O 0.54681 0.0236 0.52316 0.0
O36 O 0.53587 0.08106 0.54406 0.0
O37 O 0.4363 0.91731 0.50986 0.0
C38 C 0.50877 0.01675 0.45127 0.0
C39 C 0.5345 0.04079 0.54483 0.0
Zn40 Zn 0.60036 0.48038 0.83613 0.0
Zn41 Zn 0.52589 0.55778 0.82863 0.0
C42 C 0.57623 0.38846 0.84954 0.0
O43 O 0.61404 0.41758 0.86938 0.0
C44 C 0.53225 0.65028 0.84915 0.0
O45 O 0.48541 0.62281 0.85091 0.0
O46 O 0.66945 0.49904 0.83301 0.0
O47 O 0.58003 0.5071 0.80277 0.0
O48 O 0.54352 0.54695 0.78968 0.0
C49 C 0.67811 0.47431 0.81345 0.0
O50 O 0.6414 0.4367 0.79621 0.0
O51 O 0.56145 0.4072 0.83167 0.0
C52 C 0.4282 0.50752 0.84474 0.0
O53 O 0.4504 0.5097 0.86999 0.0
O54 O 0.45321 0.52367 0.82428 0.0
O55 O 0.55656 0.53153 0.8525 0.0
O56 O 0.59577 0.50601 0.87722 0.0
O57 O 0.55632 0.6301 0.84113 0.0
C58 C 0.56631 0.52455 0.78328 0.0
C59 C 0.57186 0.52783 0.87704 0.0
H60 H 0.45399 0.00963 0.15752 0.0
H61 H 0.40387 0.97334 0.24011 0.0
H62 H 0.55539 0.07198 0.23695 0.0
N63 N 0.54719 0.07226 0.17906 0.0
N64 N 0.58985 0.09834 0.19166 0.0
C65 C 0.46158 0.01251 0.18086 0.0
C66 C 0.42326 0.98776 0.19714 0.0
C67 C 0.50951 0.04282 0.19498 0.0
C68 C 0.51884 0.04765 0.22547 0.0
C69 C 0.48091 0.02263 0.24161 0.0
C70 C 0.43333 0.99237 0.22742 0.0
H71 H 0.56926 0.52138 0.49108 0.0
H72 H 0.56962 0.44592 0.56186 0.0
H73 H 0.60601 0.59606 0.57956 0.0
N74 N 0.59189 0.60478 0.52328 0.0
N75 N 0.60198 0.64282 0.54001 0.0
C76 C 0.57489 0.5212 0.51422 0.0
C77 C 0.56791 0.47861 0.52413 0.0
C78 C 0.58811 0.56341 0.53405 0.0
C79 C 0.59529 0.56328 0.56413 0.0
C80 C 0.58876 0.52098 0.57437 0.0
C81 C 0.57492 0.47882 0.55418 0.0
H82 H 0.04962 0.55801 0.82883 0.0
H83 H 0.98349 0.5639 0.9062 0.0
H84 H 0.12522 0.57894 0.91336 0.0
N85 N 0.1274 0.56217 0.85582 0.0
N86 N 0.16112 0.56268 0.87112 0.0
C87 C 0.05164 0.56371 0.85235 0.0
C88 C 0.01265 0.56281 0.8655 0.0
C89 C 0.09223 0.56934 0.86941 0.0
C90 C 0.0943 0.57538 0.8999 0.0
C91 C 0.05511 0.57287 0.91329 0.0
C92 C 0.01477 0.56781 0.89606 0.0
H93 H 0.05794 0.57232 0.50921 0.0
H94 H 0.10784 0.60381 0.42623 0.0
H95 H 0.97189 0.47356 0.43056 0.0
N96 N 0.97845 0.48585 0.48901 0.0
N97 N 0.94621 0.44318 0.4779 0.0
C98 C 0.0531 0.56265 0.48573 0.0
C99 C 0.08719 0.5947 0.46922 0.0
C100 C 0.01224 0.51809 0.47194 0.0
C101 C 0.00469 0.50651 0.44129 0.0
C102 C 0.03838 0.53789 0.42447 0.0
C103 C 0.08018 0.58086 0.43883 0.0
H104 H 0.54958 0.04793 0.83733 0.0
H105 H 0.54053 0.09185 0.75438 0.0
H106 H 0.57622 0.97966 0.76129 0.0
N107 N 0.57159 0.98016 0.81817 0.0
N108 N 0.60096 0.96631 0.81239 0.0
C109 C 0.5526 0.0448 0.81425 0.0
C110 C 0.54345 0.07372 0.79724 0.0
C111 C 0.56535 0.01152 0.80138 0.0
C112 C 0.56836 0.00686 0.77131 0.0
C113 C 0.5585 0.03493 0.75396 0.0
C114 C 0.54668 0.06871 0.76728 0.0
H115 H 0.53309 0.54591 0.15946 0.0
H116 H 0.6074 0.57234 0.08311 0.0
H117 H 0.46903 0.56397 0.08107 0.0
N118 N 0.45531 0.5486 0.13586 0.0
N119 N 0.43534 0.5723 0.12976 0.0
C120 C 0.53474 0.55211 0.13709 0.0
C121 C 0.57628 0.56031 0.12355 0.0
C122 C 0.49618 0.55426 0.12201 0.0
C123 C 0.4986 0.56277 0.093 0.0
C124 C 0.539 0.56991 0.0793 0.0
C125 C 0.57714 0.56824 0.09447 0.0
H126 H 0.24491 0.65614 0.15996 0.0
H127 H 0.13837 0.50599 0.16593 0.0
H128 H 0.20173 0.48286 0.15999 0.0
H129 H 0.30199 0.62557 0.10345 0.0
H130 H 0.36207 0.67698 0.11718 0.0
H131 H 0.30873 0.68088 0.12334 0.0
H132 H 0.33788 0.7033 0.17882 0.0
H133 H 0.39102 0.69877 0.17296 0.0
H134 H 0.35014 0.66288 0.19708 0.0
H135 H 0.2801 0.47812 0.15523 0.0
H136 H 0.36037 0.48932 0.14438 0.0
H137 H 0.41144 0.64078 0.13741 0.0
C138 C 0.23491 0.61834 0.15996 0.0
C139 C 0.18695 0.58282 0.16353 0.0
C140 C 0.17494 0.53363 0.16305 0.0
C141 C 0.2108 0.52035 0.15995 0.0
C142 C 0.25814 0.55656 0.15681 0.0
C143 C 0.26975 0.60435 0.15616 0.0
C144 C 0.32203 0.63595 0.15063 0.0
C145 C 0.32379 0.656 0.12194 0.0
C146 C 0.35202 0.67768 0.17642 0.0
C147 C 0.33842 0.59874 0.14838 0.0
C148 C 0.30156 0.55329 0.15256 0.0
C149 C 0.30901 0.51354 0.15182 0.0
C150 C 0.35476 0.52024 0.14591 0.0
C151 C 0.39197 0.56615 0.14038 0.0
C152 C 0.38356 0.6056 0.14186 0.0
H153 H 0.70884 0.19468 0.48921 0.0
H154 H 0.7069 0.26046 0.57545 0.0
H155 H 0.78711 0.333 0.57287 0.0
H156 H 0.84289 0.24443 0.49559 0.0
H157 H 0.84465 0.25368 0.45814 0.0
H158 H 0.79057 0.20448 0.46867 0.0
H159 H 0.73859 0.23764 0.44657 0.0
H160 H 0.79235 0.2872 0.43624 0.0
H161 H 0.75476 0.30009 0.45882 0.0
H162 H 0.8638 0.40229 0.55857 0.0
H163 H 0.93038 0.46119 0.53394 0.0
H164 H 0.88098 0.3505 0.45702 0.0
C165 C 0.72585 0.2237 0.5079 0.0
C166 C 0.70168 0.2217 0.5326 0.0
C167 C 0.72482 0.26101 0.55633 0.0
C168 C 0.77043 0.3024 0.55508 0.0
C169 C 0.79258 0.30387 0.53001 0.0
C170 C 0.77118 0.26532 0.50695 0.0
C171 C 0.80047 0.27732 0.48159 0.0
C172 C 0.82086 0.24294 0.47566 0.0
C173 C 0.7697 0.27547 0.4542 0.0
C174 C 0.84091 0.32918 0.4936 0.0
C175 C 0.8362 0.34373 0.5217 0.0
C176 C 0.86821 0.39103 0.53672 0.0
C177 C 0.90586 0.42427 0.52258 0.0
C178 C 0.9107 0.40994 0.49364 0.0
C179 C 0.87805 0.36185 0.47924 0.0
H180 H 0.4874 0.70445 0.85528 0.0
H181 H 0.62865 0.71725 0.84839 0.0
H182 H 0.66454 0.80489 0.84538 0.0
H183 H 0.49375 0.7746 0.80368 0.0
H184 H 0.46365 0.80336 0.82153 0.0
H185 H 0.45092 0.74414 0.82842 0.0
H186 H 0.47532 0.77707 0.88378 0.0
H187 H 0.48792 0.83656 0.87714 0.0
H188 H 0.53443 0.83043 0.89695 0.0
H189 H 0.68134 0.88581 0.83417 0.0
H190 H 0.67852 0.95593 0.81817 0.0
H191 H 0.52801 0.8925 0.83436 0.0
C192 C 0.52622 0.72602 0.85408 0.0
C193 C 0.55523 0.70404 0.85213 0.0
C194 C 0.6057 0.73332 0.84997 0.0
C195 C 0.62648 0.7832 0.84834 0.0
C196 C 0.59647 0.80338 0.84924 0.0
C197 C 0.54754 0.77588 0.85242 0.0
C198 C 0.52219 0.80504 0.84987 0.0
C199 C 0.48018 0.78032 0.82436 0.0
C200 C 0.5039 0.81274 0.87866 0.0
C201 C 0.56408 0.85267 0.84375 0.0
C202 C 0.60671 0.85105 0.84366 0.0
C203 C 0.64871 0.88824 0.8351 0.0
C204 C 0.64688 0.9278 0.82607 0.0
C205 C 0.60377 0.93011 0.826 0.0
C206 C 0.56209 0.8925 0.83543 0.0
H207 H 0.8453 0.60866 0.12759 0.0
H208 H 0.80551 0.49394 0.18023 0.0
H209 H 0.72783 0.49163 0.18601 0.0
H210 H 0.78777 0.67039 0.16944 0.0
H211 H 0.76919 0.68561 0.1368 0.0
H212 H 0.82414 0.68225 0.13989 0.0
H213 H 0.79117 0.61934 0.09204 0.0
H214 H 0.73621 0.62233 0.08887 0.0
H215 H 0.73242 0.5641 0.08906 0.0
H216 H 0.64811 0.49236 0.17883 0.0
H217 H 0.57744 0.50005 0.16164 0.0
H218 H 0.67309 0.62058 0.11883 0.0
C219 C 0.82074 0.58389 0.14089 0.0
C220 C 0.83155 0.5515 0.15339 0.0
C221 C 0.79829 0.51942 0.17056 0.0
C222 C 0.75395 0.51778 0.17398 0.0
C223 C 0.74378 0.54935 0.16075 0.0
C224 C 0.77682 0.58259 0.14509 0.0
C225 C 0.75631 0.61095 0.13191 0.0
C226 C 0.78613 0.66554 0.14532 0.0
C227 C 0.75388 0.60371 0.09851 0.0
C228 C 0.70571 0.58666 0.14119 0.0
C229 C 0.69903 0.55139 0.15797 0.0
C230 C 0.65334 0.52076 0.16631 0.0
C231 C 0.61335 0.52552 0.15656 0.0
C232 C 0.61932 0.56065 0.13866 0.0
C233 C 0.6668 0.59281 0.13213 0.0
H234 H 0.30629 0.85948 0.46118 0.0
H235 H 0.38126 0.85142 0.53932 0.0
H236 H 0.30591 0.77596 0.54546 0.0
H237 H 0.18344 0.80947 0.48557 0.0
H238 H 0.15307 0.77642 0.44962 0.0
H239 H 0.21059 0.83328 0.45393 0.0
H240 H 0.24694 0.78969 0.42287 0.0
H241 H 0.1898 0.73277 0.41862 0.0
H242 H 0.24526 0.73637 0.43356 0.0
H243 H 0.2255 0.69456 0.53879 0.0
H244 H 0.14788 0.61702 0.52047 0.0
H245 H 0.12517 0.68144 0.4483 0.0
C246 C 0.30663 0.84267 0.48004 0.0
C247 C 0.34975 0.86154 0.4998 0.0
C248 C 0.34864 0.83787 0.52395 0.0
C249 C 0.30595 0.79494 0.52763 0.0
C250 C 0.26449 0.77644 0.50718 0.0
C251 C 0.26443 0.8 0.48404 0.0
C252 C 0.2167 0.77089 0.46377 0.0
C253 C 0.18933 0.79921 0.46321 0.0
C254 C 0.22521 0.7566 0.4329 0.0
C255 C 0.19043 0.72655 0.47858 0.0
C256 C 0.21826 0.73034 0.50368 0.0
C257 C 0.20299 0.69166 0.51948 0.0
C258 C 0.15872 0.64777 0.50898 0.0
C259 C 0.13038 0.64288 0.48287 0.0
C260 C 0.14606 0.68361 0.46818 0.0
H261 H 0.61656 0.33873 0.87168 0.0
H262 H 0.48904 0.31769 0.81832 0.0
H263 H 0.45885 0.22918 0.80689 0.0
H264 H 0.63907 0.26555 0.82522 0.0
H265 H 0.65875 0.24012 0.85198 0.0
H266 H 0.66489 0.29918 0.86162 0.0
H267 H 0.61463 0.26947 0.90425 0.0
H268 H 0.60845 0.21009 0.89486 0.0
H269 H 0.55477 0.21514 0.89725 0.0
H270 H 0.44975 0.14773 0.79434 0.0
H271 H 0.46331 0.07889 0.78042 0.0
H272 H 0.59686 0.15136 0.8413 0.0
C273 C 0.58145 0.31519 0.8584 0.0
C274 C 0.55493 0.33491 0.84598 0.0
C275 C 0.50983 0.30326 0.82809 0.0
C276 C 0.49224 0.25289 0.82166 0.0
C277 C 0.52006 0.23476 0.83341 0.0
C278 C 0.56361 0.26485 0.85157 0.0
C279 C 0.58966 0.23742 0.85812 0.0
C280 C 0.6411 0.26202 0.84865 0.0
C281 C 0.59199 0.23275 0.89055 0.0
C282 C 0.55548 0.18811 0.83933 0.0
C283 C 0.51491 0.18705 0.82592 0.0
C284 C 0.48065 0.14757 0.80523 0.0
C285 C 0.48867 0.10874 0.7974 0.0
C286 C 0.53072 0.10978 0.81011 0.0
C287 C 0.56375 0.14924 0.83194 0.0
H288 H 0.57695 0.87567 0.55913 0.0
H289 H 0.54764 0.85491 0.46493 0.0
H290 H 0.56964 0.79067 0.46065 0.0
H291 H 0.68064 0.85213 0.56109 0.0
H292 H 0.66267 0.82127 0.59213 0.0
H293 H 0.65087 0.86996 0.58747 0.0
H294 H 0.55891 0.81187 0.59034 0.0
H295 H 0.5702 0.76301 0.59488 0.0
H296 H 0.52559 0.75446 0.56564 0.0
H297 H 0.5837 0.72157 0.46692 0.0
H298 H 0.59103 0.65425 0.48336 0.0
H299 H 0.61342 0.72151 0.57322 0.0
C300 C 0.57611 0.85829 0.53759 0.0
C301 C 0.56065 0.87016 0.5124 0.0
C302 C 0.55973 0.84652 0.48455 0.0
C303 C 0.57223 0.81006 0.48189 0.0
C304 C 0.58632 0.79841 0.50724 0.0
C305 C 0.5889 0.82223 0.53454 0.0
C306 C 0.60184 0.80067 0.55841 0.0
C307 C 0.652 0.83825 0.5758 0.0
C308 C 0.56174 0.78134 0.57848 0.0
C309 C 0.60375 0.7594 0.54031 0.0
C310 C 0.59537 0.75909 0.51083 0.0
C311 C 0.59135 0.72199 0.48991 0.0
C312 C 0.59539 0.68387 0.49943 0.0
C313 C 0.60317 0.68334 0.52962 0.0
C314 C 0.60834 0.72197 0.55011 0.0
H315 H 0.76163 0.55387 0.84256 0.0
H316 H 0.70866 0.42066 0.78027 0.0
H317 H 0.79304 0.43653 0.78102 0.0
H318 H 0.88289 0.62618 0.81583 0.0
H319 H 0.91305 0.65492 0.85243 0.0
H320 H 0.85014 0.63774 0.84291 0.0
H321 H 0.82565 0.58668 0.88487 0.0
H322 H 0.88818 0.60345 0.89442 0.0
H323 H 0.84115 0.53967 0.8862 0.0
H324 H 0.88028 0.46033 0.79404 0.0
H325 H 0.96284 0.4891 0.81903 0.0
H326 H 0.95861 0.60697 0.87246 0.0
C327 C 0.76788 0.5286 0.82855 0.0
C328 C 0.72872 0.48608 0.81136 0.0
C329 C 0.73826 0.45364 0.79351 0.0
C330 C 0.78607 0.46247 0.79369 0.0
C331 C 0.82378 0.50421 0.81148 0.0
C332 C 0.81522 0.53695 0.8284 0.0
C333 C 0.86097 0.57623 0.84788 0.0
C334 C 0.87775 0.62676 0.83924 0.0
C335 C 0.85351 0.57646 0.88024 0.0
C336 C 0.89593 0.55883 0.84059 0.0
C337 C 0.87421 0.51796 0.81903 0.0
C338 C 0.89809 0.49299 0.81042 0.0
C339 C 0.94498 0.50966 0.82467 0.0
C340 C 0.96705 0.55049 0.84745 0.0
C341 C 0.9426 0.57593 0.85494 0.0
H342 H 0.20612 0.73149 0.12662 0.0
H343 H 0.1192 0.76536 0.18239 0.0
H344 H 0.18245 0.85312 0.18967 0.0
H345 H 0.31182 0.80181 0.17028 0.0
H346 H 0.35118 0.82194 0.14239 0.0
H347 H 0.29401 0.76512 0.13457 0.0
H348 H 0.26839 0.79506 0.091 0.0
H349 H 0.32578 0.85233 0.09882 0.0
H350 H 0.26896 0.85216 0.09678 0.0
H351 H 0.25874 0.93224 0.19812 0.0
H352 H 0.34578 0.99515 0.21185 0.0
H353 H 0.38625 0.91031 0.15289 0.0
C354 C 0.19969 0.7578 0.13938 0.0
C355 C 0.15775 0.74224 0.1536 0.0
C356 C 0.1511 0.77698 0.17116 0.0
C357 C 0.18654 0.82683 0.17514 0.0
C358 C 0.22839 0.84106 0.16151 0.0
C359 C 0.23528 0.80751 0.14408 0.0
C360 C 0.28703 0.83052 0.13659 0.0
C361 C 0.31247 0.80325 0.14658 0.0
C362 C 0.28755 0.83265 0.10385 0.0
C363 C 0.3091 0.88128 0.15423 0.0
C364 C 0.27407 0.88713 0.16744 0.0
C365 C 0.2863 0.9286 0.18743 0.0
C366 C 0.33573 0.964 0.19517 0.0
C367 C 0.37219 0.95725 0.18325 0.0
C368 C 0.35872 0.91657 0.16165 0.0
H369 H 0.49349 0.20604 0.50126 0.0
H370 H 0.60287 0.24415 0.44232 0.0
H371 H 0.60135 0.31942 0.43778 0.0
H372 H 0.42908 0.26839 0.46736 0.0
H373 H 0.41939 0.2873 0.50306 0.0
H374 H 0.41792 0.22994 0.49484 0.0
H375 H 0.4843 0.25701 0.539 0.0
H376 H 0.48613 0.31412 0.54726 0.0
H377 H 0.5415 0.31382 0.54143 0.0
H378 H 0.60408 0.39798 0.44922 0.0
H379 H 0.61123 0.47283 0.47619 0.0
H380 H 0.49865 0.38452 0.52673 0.0
C381 C 0.51568 0.22932 0.48653 0.0
C382 C 0.54835 0.21943 0.47225 0.0
C383 C 0.57745 0.251 0.45348 0.0
C384 C 0.57655 0.29371 0.45055 0.0
C385 C 0.5457 0.30382 0.4661 0.0
C386 C 0.51512 0.27207 0.48338 0.0
C387 C 0.49135 0.29478 0.50139 0.0
C388 C 0.43616 0.26855 0.49104 0.0
C389 C 0.5015 0.29497 0.53418 0.0
C390 C 0.51731 0.34593 0.4939 0.0
C391 C 0.54704 0.3499 0.47264 0.0
C392 C 0.57977 0.39509 0.46515 0.0
C393 C 0.58364 0.43745 0.48057 0.0
C394 C 0.55543 0.43417 0.50345 0.0
C395 C 0.52036 0.38775 0.50917 0.0
H396 H 0.38104 0.51848 0.88897 0.0
H397 H 0.36565 0.48387 0.7949 0.0
H398 H 0.29156 0.49082 0.79067 0.0
H399 H 0.24971 0.45989 0.89728 0.0
H400 H 0.26113 0.50893 0.92574 0.0
H401 H 0.30718 0.49256 0.92096 0.0
H402 H 0.36927 0.58268 0.91664 0.0
H403 H 0.32318 0.5991 0.92053 0.0
H404 H 0.35517 0.61077 0.88907 0.0
H405 H 0.22387 0.51042 0.797 0.0
H406 H 0.16635 0.53629 0.81388 0.0
H407 H 0.23105 0.56232 0.90308 0.0
C408 C 0.36105 0.51045 0.86754 0.0
C409 C 0.37859 0.50012 0.8423 0.0
C410 C 0.35236 0.49144 0.81454 0.0
C411 C 0.31042 0.49547 0.81192 0.0
C412 C 0.29557 0.50837 0.83727 0.0
C413 C 0.31991 0.51524 0.86454 0.0
C414 C 0.29993 0.53351 0.88825 0.0
C415 C 0.27818 0.4965 0.90929 0.0
C416 C 0.33923 0.58453 0.90456 0.0
C417 C 0.26071 0.53608 0.87014 0.0
C418 C 0.25835 0.5213 0.84078 0.0
C419 C 0.22519 0.52173 0.81997 0.0
C420 C 0.19301 0.53675 0.82966 0.0
C421 C 0.19509 0.55141 0.85979 0.0
C422 C 0.22946 0.55143 0.87999 0.0
H423 H 0.83024 0.34904 0.20839 0.0
H424 H 0.79925 0.35295 0.11727 0.0
H425 H 0.72914 0.26781 0.11114 0.0
H426 H 0.79948 0.221 0.19854 0.0
H427 H 0.77365 0.21128 0.23225 0.0
H428 H 0.82269 0.27108 0.22852 0.0
H429 H 0.76964 0.30894 0.24268 0.0
H430 H 0.72066 0.24952 0.24669 0.0
H431 H 0.70995 0.2844 0.22245 0.0
H432 H 0.65629 0.18605 0.11737 0.0
H433 H 0.59025 0.11422 0.13496 0.0
H434 H 0.675 0.16287 0.22038 0.0
C435 C 0.809 0.3317 0.18708 0.0
C436 C 0.81969 0.35702 0.16331 0.0
C437 C 0.79146 0.33355 0.13567 0.0
C438 C 0.75174 0.28539 0.13201 0.0
C439 C 0.74189 0.26133 0.15607 0.0
C440 C 0.77022 0.28364 0.18295 0.0
C441 C 0.75148 0.25106 0.20568 0.0
C442 C 0.78907 0.23782 0.21689 0.0
C443 C 0.73706 0.2749 0.23084 0.0
C444 C 0.70731 0.20727 0.18769 0.0
C445 C 0.70203 0.21364 0.15912 0.0
C446 C 0.66068 0.18005 0.13946 0.0
C447 C 0.62347 0.13947 0.14955 0.0
C448 C 0.62868 0.13326 0.1789 0.0
C449 C 0.67144 0.16665 0.1977 0.0
H450 H 0.0037 0.61127 0.0778 0.0
H451 H 0.03131 0.49425 0.0907 0.0
H452 H 0.05534 0.49281 0.0414 0.0
H453 H 0.94699 0.56182 0.00578 0.0
H454 H 0.97119 0.61931 0.99248 0.0
H455 H 0.96327 0.61709 0.0303 0.0
H456 H 0.0547 0.68282 0.04557 0.0
H457 H 0.06281 0.68566 0.00776 0.0
H458 H 0.10094 0.673 0.03108 0.0
H459 H 0.06966 0.4987 0.99051 0.0
H460 H 0.07289 0.51066 0.93934 0.0
H461 H 0.03228 0.62134 0.95705 0.0
C462 C 0.01607 0.58637 0.07036 0.0
C463 C 0.01632 0.55318 0.0879 0.0
C464 C 0.0312 0.51998 0.07743 0.0
C465 C 0.04501 0.51904 0.04958 0.0
C466 C 0.04316 0.55119 0.03241 0.0
C467 C 0.02905 0.58424 0.04223 0.0
C468 C 0.02596 0.61136 0.01818 0.0
C469 C 0.97375 0.6018 0.01128 0.0
C470 C 0.06334 0.66649 0.02613 0.0
C471 C 0.03957 0.58757 0.99325 0.0
C472 C 0.05003 0.55355 0.00223 0.0
C473 C 0.06224 0.52569 0.98326 0.0
C474 C 0.06408 0.53285 0.95427 0.0
C475 C 0.05353 0.56741 0.9444 0.0
C476 C 0.04082 0.59494 0.96413 0.0
H477 H 0.48907 0.95419 0.4002 0.0
H478 H 0.51901 0.09993 0.43414 0.0
H479 H 0.51998 0.1188 0.38432 0.0
H480 H 0.56137 0.98585 0.34118 0.0
H481 H 0.51796 0.93158 0.31603 0.0
H482 H 0.52187 0.93012 0.35458 0.0
H483 H 0.42942 0.90002 0.35274 0.0
H484 H 0.42519 0.90102 0.31417 0.0
H485 H 0.40567 0.93493 0.33777 0.0
H486 H 0.51989 0.12256 0.33117 0.0
H487 H 0.50931 0.10777 0.27723 0.0
H488 H 0.47278 0.9576 0.27737 0.0
C489 C 0.49577 0.99006 0.39716 0.0
C490 C 0.50557 0.02633 0.42118 0.0
C491 C 0.51345 0.07247 0.41621 0.0
C492 C 0.51364 0.08331 0.38795 0.0
C493 C 0.50505 0.04721 0.36483 0.0
C494 C 0.49546 0.00124 0.36903 0.0
C495 C 0.48527 0.96839 0.34028 0.0
C496 C 0.52393 0.9531 0.33789 0.0
C497 C 0.43329 0.92344 0.33599 0.0
C498 C 0.4902 0.003 0.3193 0.0
C499 C 0.50245 0.04854 0.33398 0.0
C500 C 0.51001 0.087 0.31939 0.0
C501 C 0.50412 0.07841 0.28891 0.0
C502 C 0.49015 0.03166 0.27357 0.0
C503 C 0.48329 0.99356 0.28887 0.0
H504 H 0.54563 0.56246 0.73865 0.0
H505 H 0.61308 0.47844 0.75969 0.0
H506 H 0.63043 0.4719 0.70883 0.0
H507 H 0.48652 0.49518 0.66911 0.0
H508 H 0.49636 0.54779 0.65324 0.0
H509 H 0.49222 0.54806 0.69157 0.0
H510 H 0.57683 0.62793 0.70341 0.0
H511 H 0.58127 0.62794 0.66507 0.0
H512 H 0.62894 0.62974 0.689 0.0
H513 H 0.6373 0.47234 0.65495 0.0
H514 H 0.63233 0.47853 0.60265 0.0
H515 H 0.55847 0.56081 0.61777 0.0
C516 C 0.5643 0.54282 0.73274 0.0
C517 C 0.57794 0.5208 0.75319 0.0
C518 C 0.60229 0.49553 0.74441 0.0
C519 C 0.61238 0.49177 0.7156 0.0
C520 C 0.59807 0.51372 0.69601 0.0
C521 C 0.57464 0.53883 0.70428 0.0
C522 C 0.56153 0.55787 0.67904 0.0
C523 C 0.50586 0.53589 0.67288 0.0
C524 C 0.58878 0.61421 0.68446 0.0
C525 C 0.58033 0.53869 0.65497 0.0
C526 C 0.6017 0.51372 0.66519 0.0
C527 C 0.62074 0.49189 0.64674 0.0
C528 C 0.61745 0.49534 0.61706 0.0
C529 C 0.59494 0.52011 0.60608 0.0
C530 C 0.5766 0.54234 0.62548 0.0
H531 H 0.48127 0.03927 0.58899 0.0
H532 H 0.5974 0.01363 0.56574 0.0
H533 H 0.61325 0.00403 0.61638 0.0
H534 H 0.53763 0.11009 0.65624 0.0
H535 H 0.48414 0.08499 0.67469 0.0
H536 H 0.47766 0.08391 0.63599 0.0
H537 H 0.4193 0.98971 0.62747 0.0
H538 H 0.42498 0.99061 0.66627 0.0
H539 H 0.43884 0.95169 0.6426 0.0
H540 H 0.62358 0.0084 0.67081 0.0
H541 H 0.62249 0.01872 0.72401 0.0
H542 H 0.49624 0.03638 0.71119 0.0
C543 C 0.50902 0.03021 0.59447 0.0
C544 C 0.53754 0.02632 0.57346 0.0
C545 C 0.5743 0.01548 0.5814 0.0
C546 C 0.58381 0.01033 0.61014 0.0
C547 C 0.55576 0.01546 0.63056 0.0
C548 C 0.51841 0.02413 0.62296 0.0
C549 C 0.49481 0.02974 0.64925 0.0
C550 C 0.49884 0.08019 0.65433 0.0
C551 C 0.44131 0.98794 0.64621 0.0
C552 C 0.52619 0.02525 0.67297 0.0
C553 C 0.56096 0.01672 0.66177 0.0
C554 C 0.5958 0.01399 0.67976 0.0
C555 C 0.59481 0.01978 0.70996 0.0
C556 C 0.55917 0.02818 0.7219 0.0
C557 C 0.52431 0.03051 0.70293 0.0
H558 H 0.50071 0.48262 0.91029 0.0
H559 H 0.63045 0.62081 0.90576 0.0
H560 H 0.62826 0.65239 0.95641 0.0
H561 H 0.44144 0.53587 0.96002 0.0
H562 H 0.41795 0.48355 0.97852 0.0
H563 H 0.42442 0.47651 0.94039 0.0
H564 H 0.47712 0.43774 0.95139 0.0
H565 H 0.47185 0.44562 0.9895 0.0
H566 H 0.53149 0.47162 0.9777 0.0
H567 H 0.62139 0.66197 0.00945 0.0
H568 H 0.60775 0.65103 0.06044 0.0
H569 H 0.47999 0.50787 0.0303 0.0
C570 C 0.52728 0.52022 0.91969 0.0
C571 C 0.56515 0.54989 0.90433 0.0
C572 C 0.60065 0.59821 0.91727 0.0
C573 C 0.59958 0.61631 0.94592 0.0
C574 C 0.56235 0.58566 0.96095 0.0
C575 C 0.52624 0.53891 0.94808 0.0
C576 C 0.49338 0.5115 0.96976 0.0
C577 C 0.4412 0.50127 0.96169 0.0
C578 C 0.49352 0.46384 0.97223 0.0
C579 C 0.51846 0.54887 0.99728 0.0
C580 C 0.55773 0.59171 0.99165 0.0
C581 C 0.58986 0.62933 0.01402 0.0
C582 C 0.58199 0.62281 0.04285 0.0
C583 C 0.54227 0.57915 0.04899 0.0
C584 C 0.50961 0.54219 0.02595 0.0
H585 H 0.05026 0.60492 0.26386 0.0
H586 H 0.96666 0.4489 0.23068 0.0
H587 H 0.96761 0.43133 0.28087 0.0
H588 H 0.12556 0.60072 0.32388 0.0
H589 H 0.12331 0.64734 0.3483 0.0
H590 H 0.11887 0.6476 0.30963 0.0
H591 H 0.03693 0.64646 0.31064 0.0
H592 H 0.04118 0.64621 0.34928 0.0
H593 H 0.98762 0.59874 0.32555 0.0
H594 H 0.97817 0.43088 0.3349 0.0
H595 H 0.99367 0.44764 0.3886 0.0
H596 H 0.06313 0.60377 0.38618 0.0
C597 C 0.03274 0.56709 0.26715 0.0
C598 C 0.00877 0.52829 0.24338 0.0
C599 C 0.98533 0.47923 0.24861 0.0
C600 C 0.98577 0.46885 0.27701 0.0
C601 C 0.00931 0.50793 0.3 0.0
C602 C 0.03204 0.55606 0.29541 0.0
C603 C 0.05239 0.59127 0.32396 0.0
C604 C 0.10835 0.62364 0.32659 0.0
C605 C 0.02806 0.62249 0.32756 0.0
C606 C 0.03751 0.55545 0.34527 0.0
C607 C 0.01326 0.50759 0.33107 0.0
C608 C 0.99682 0.46826 0.34629 0.0
C609 C 0.00544 0.47818 0.37685 0.0
C610 C 0.02964 0.52708 0.39195 0.0
C611 C 0.04546 0.56596 0.37564 0.0
loop_
_geom_bond_atom_site_label_1
_geom_bond_atom_site_label_2
_geom_bond_distance
_geom_bond_site_symmetry_2
_ccdc_geom_bond_type
Zn0 O6 1.969 . S
Zn0 O7 1.965 . S
Zn0 O11 2.024 . S
Zn0 O16 1.969 . S
Zn1 O8 1.969 . S
Zn1 O14 1.969 . S
Zn1 O15 1.965 . S
Zn1 O17 2.024 . S
C2 O3 1.229 . S
C2 O11 1.058 . S
O3 C2 1.229 . S
C4 O5 1.229 . S
C4 O17 1.058 . S
O5 C4 1.229 . S
O6 Zn0 1.969 . S
O6 C9 1.267 . S
O7 Zn0 1.965 . S
O7 C18 1.260 . S
O8 Zn1 1.969 . S
O8 C18 1.258 1_655 S
C9 O6 1.267 . S
C9 O10 1.228 . S
O10 C9 1.228 . S
O11 Zn0 2.024 . S
O11 C2 1.058 . S
C12 O13 1.228 . S
C12 O14 1.267 . S
O13 C12 1.228 . S
O14 Zn1 1.969 . S
O14 C12 1.267 . S
O15 Zn1 1.965 . S
O15 C19 1.260 1_655 S
O16 Zn0 1.969 . S
O16 C19 1.258 . S
O17 Zn1 2.024 . S
O17 C4 1.058 . S
C18 O7 1.260 . S
C18 O8 1.258 1_455 S
C19 O15 1.260 1_455 S
C19 O16 1.258 . S
Zn20 O26 1.969 . S
Zn20 O27 1.965 . S
Zn20 O31 2.024 . S
Zn20 O36 1.969 . S
Zn21 O28 1.969 . S
Zn21 O34 1.969 . S
Zn21 O35 1.965 1_565 S
Zn21 O37 2.024 . S
C22 O23 1.229 . S
C22 O31 1.058 . S
O23 C22 1.229 . S
C24 O25 1.229 . S
C24 O37 1.058 . S
O25 C24 1.229 . S
O26 Zn20 1.969 . S
O26 C29 1.267 . S
O27 Zn20 1.965 . S
O27 C38 1.260 . S
O28 Zn21 1.969 . S
O28 C38 1.258 1_565 S
C29 O26 1.267 . S
C29 O30 1.228 . S
O30 C29 1.228 . S
O31 Zn20 2.024 . S
O31 C22 1.058 . S
C32 O33 1.228 . S
C32 O34 1.267 . S
O33 C32 1.228 . S
O34 Zn21 1.969 . S
O34 C32 1.267 . S
O35 Zn21 1.965 1_545 S
O35 C39 1.260 . S
O36 Zn20 1.969 . S
O36 C39 1.258 . S
O37 Zn21 2.024 . S
O37 C24 1.058 . S
C38 O27 1.260 . S
C38 O28 1.258 1_545 S
C39 O35 1.260 . S
C39 O36 1.258 . S
Zn40 O46 1.969 . S
Zn40 O47 1.965 . S
Zn40 O51 2.024 . S
Zn40 O56 1.969 . S
Zn41 O48 1.969 . S
Zn41 O54 1.969 . S
Zn41 O55 1.965 . S
Zn41 O57 2.024 . S
C42 O43 1.229 . S
C42 O51 1.058 . S
O43 C42 1.229 . S
C44 O45 1.229 . S
C44 O57 1.058 . S
O45 C44 1.229 . S
O46 Zn40 1.969 . S
O46 C49 1.267 . S
O47 Zn40 1.965 . S
O47 C58 1.260 . S
O48 Zn41 1.969 . S
O48 C58 1.258 . S
C49 O46 1.267 . S
C49 O50 1.228 . S
O50 C49 1.228 . S
O51 Zn40 2.024 . S
O51 C42 1.058 . S
C52 O53 1.228 . S
C52 O54 1.267 . S
O53 C52 1.228 . S
O54 Zn41 1.969 . S
O54 C52 1.267 . S
O55 Zn41 1.965 . S
O55 C59 1.260 . S
O56 Zn40 1.969 . S
O56 C59 1.258 . S
O57 Zn41 2.024 . S
O57 C44 1.058 . S
C58 O47 1.260 . S
C58 O48 1.258 . S
C59 O55 1.260 . S
C59 O56 1.258 . S
H60 C65 0.929 . S
H61 C70 0.931 1_565 S
H62 C68 0.930 . S
N63 N64 1.234 . S
N63 C67 1.453 . S
N64 N63 1.234 . S
C65 H60 0.929 . S
C65 C66 1.373 1_545 S
C65 C67 1.368 . S
C66 C65 1.373 1_565 S
C66 C70 1.397 1_565 S
C67 N63 1.453 . S
C67 C65 1.368 . S
C67 C68 1.373 . S
C68 H62 0.930 . S
C68 C67 1.373 . S
C68 C69 1.371 . S
C69 C68 1.371 . S
C69 C70 1.383 . S
C70 H61 0.931 1_545 S
C70 C66 1.397 1_545 S
C70 C69 1.383 . S
H71 C76 0.929 . S
H72 C81 0.931 . S
H73 C79 0.930 . S
N74 N75 1.234 . S
N74 C78 1.453 . S
N75 N74 1.234 . S
C76 H71 0.929 . S
C76 C77 1.373 . S
C76 C78 1.368 . S
C77 C76 1.373 . S
C77 C81 1.397 . S
C78 N74 1.453 . S
C78 C76 1.368 . S
C78 C79 1.373 . S
C79 H73 0.930 . S
C79 C78 1.373 . S
C79 C80 1.371 . S
C80 C79 1.371 . S
C80 C81 1.383 . S
C81 H72 0.931 . S
C81 C77 1.397 . S
C81 C80 1.383 . S
H82 C87 0.929 . S
H83 C92 0.931 1_655 S
H84 C90 0.930 . S
N85 N86 1.234 . S
N85 C89 1.453 . S
N86 N85 1.234 . S
C87 H82 0.929 . S
C87 C88 1.373 1_455 S
C87 C89 1.368 . S
C88 C87 1.373 1_655 S
C88 C92 1.397 1_655 S
C89 N85 1.453 . S
C89 C87 1.368 . S
C89 C90 1.373 . S
C90 H84 0.930 . S
C90 C89 1.373 . S
C90 C91 1.371 . S
C91 C90 1.371 . S
C91 C92 1.383 . S
C92 H83 0.931 1_455 S
C92 C88 1.397 1_455 S
C92 C91 1.383 . S
H93 C98 0.929 . S
H94 C103 0.931 . S
H95 C101 0.930 1_655 S
N96 N97 1.234 . S
N96 C100 1.453 1_655 S
N97 N96 1.234 . S
C98 H93 0.929 . S
C98 C99 1.373 . S
C98 C100 1.368 . S
C99 C98 1.373 . S
C99 C103 1.397 . S
C100 N96 1.453 1_455 S
C100 C98 1.368 . S
C100 C101 1.373 . S
C101 H95 0.930 1_455 S
C101 C100 1.373 . S
C101 C102 1.371 . S
C102 C101 1.371 . S
C102 C103 1.383 . S
C103 H94 0.931 . S
C103 C99 1.397 . S
C103 C102 1.383 . S
H104 C109 0.929 . S
H105 C114 0.931 . S
H106 C112 0.930 1_565 S
N107 N108 1.234 . S
N107 C111 1.453 1_565 S
N108 N107 1.234 . S
C109 H104 0.929 . S
C109 C110 1.373 . S
C109 C111 1.368 . S
C110 C109 1.373 . S
C110 C114 1.397 . S
C111 N107 1.453 1_545 S
C111 C109 1.368 . S
C111 C112 1.373 . S
C112 H106 0.930 1_545 S
C112 C111 1.373 . S
C112 C113 1.371 . S
C113 C112 1.371 . S
C113 C114 1.383 . S
C114 H105 0.931 . S
C114 C110 1.397 . S
C114 C113 1.383 . S
H115 C120 0.929 . S
H116 C125 0.931 . S
H117 C123 0.930 . S
N118 N119 1.234 . S
N118 C122 1.453 . S
N119 N118 1.234 . S
C120 H115 0.929 . S
C120 C121 1.373 . S
C120 C122 1.368 . S
C121 C120 1.373 . S
C121 C125 1.397 . S
C122 N118 1.453 . S
C122 C120 1.368 . S
C122 C123 1.373 . S
C123 H117 0.930 . S
C123 C122 1.373 . S
C123 C124 1.371 . S
C124 C123 1.371 . S
C124 C125 1.383 . S
C125 H116 0.931 . S
C125 C121 1.397 . S
C125 C124 1.383 . S
H126 C138 0.930 . S
H127 C140 0.930 . S
H128 C141 0.930 . S
H129 C145 0.959 . S
H130 C145 0.959 . S
H131 C145 0.961 . S
H132 C146 0.960 . S
H133 C146 0.961 . S
H134 C146 0.959 . S
H135 C149 0.929 . S
H136 C150 0.931 . S
H137 C152 0.930 . S
C138 H126 0.930 . S
C138 C139 1.399 . S
C138 C143 1.399 . S
C139 C138 1.399 . S
C139 C140 1.376 . S
C140 H127 0.930 . S
C140 C139 1.376 . S
C140 C141 1.388 . S
C141 H128 0.930 . S
C141 C140 1.388 . S
C141 C142 1.390 . S
C142 C141 1.390 . S
C142 C143 1.394 . S
C142 C148 1.465 . S
C143 C138 1.399 . S
C143 C142 1.394 . S
C143 C144 1.516 . S
C144 C143 1.516 . S
C144 C145 1.502 . S
C144 C146 1.561 . S
C144 C147 1.526 . S
C145 H129 0.959 . S
C145 H130 0.959 . S
C145 H131 0.961 . S
C145 C144 1.502 . S
C146 H132 0.960 . S
C146 H133 0.961 . S
C146 H134 0.959 . S
C146 C144 1.561 . S
C147 C144 1.526 . S
C147 C148 1.396 . S
C147 C152 1.390 . S
C148 C142 1.465 . S
C148 C147 1.396 . S
C148 C149 1.399 . S
C149 H135 0.929 . S
C149 C148 1.399 . S
C149 C150 1.385 . S
C150 H136 0.931 . S
C150 C149 1.385 . S
C150 C151 1.389 . S
C151 C150 1.389 . S
C151 C152 1.387 . S
C152 H137 0.930 . S
C152 C147 1.390 . S
C152 C151 1.387 . S
H153 C165 0.930 . S
H154 C167 0.930 . S
H155 C168 0.930 . S
H156 C172 0.959 . S
H157 C172 0.959 . S
H158 C172 0.961 . S
H159 C173 0.960 . S
H160 C173 0.961 . S
H161 C173 0.959 . S
H162 C176 0.929 . S
H163 C177 0.931 . S
H164 C179 0.930 . S
C165 H153 0.930 . S
C165 C166 1.399 . S
C165 C170 1.399 . S
C166 C165 1.399 . S
C166 C167 1.376 . S
C167 H154 0.930 . S
C167 C166 1.376 . S
C167 C168 1.388 . S
C168 H155 0.930 . S
C168 C167 1.388 . S
C168 C169 1.390 . S
C169 C168 1.390 . S
C169 C170 1.394 . S
C169 C175 1.465 . S
C170 C165 1.399 . S
C170 C169 1.394 . S
C170 C171 1.516 . S
C171 C170 1.516 . S
C171 C172 1.502 . S
C171 C173 1.561 . S
C171 C174 1.526 . S
C172 H156 0.959 . S
C172 H157 0.959 . S
C172 H158 0.961 . S
C172 C171 1.502 . S
C173 H159 0.960 . S
C173 H160 0.961 . S
C173 H161 0.959 . S
C173 C171 1.561 . S
C174 C171 1.526 . S
C174 C175 1.396 . S
C174 C179 1.390 . S
C175 C169 1.465 . S
C175 C174 1.396 . S
C175 C176 1.399 . S
C176 H162 0.929 . S
C176 C175 1.399 . S
C176 C177 1.385 . S
C177 H163 0.931 . S
C177 C176 1.385 . S
C177 C178 1.389 . S
C178 C177 1.389 . S
C178 C179 1.387 . S
C179 H164 0.930 . S
C179 C174 1.390 . S
C179 C178 1.387 . S
H180 C192 0.930 . S
H181 C194 0.930 . S
H182 C195 0.930 . S
H183 C199 0.959 . S
H184 C199 0.959 . S
H185 C199 0.961 . S
H186 C200 0.960 . S
H187 C200 0.961 . S
H188 C200 0.959 . S
H189 C203 0.929 . S
H190 C204 0.931 . S
H191 C206 0.930 . S
C192 H180 0.930 . S
C192 C193 1.399 . S
C192 C197 1.399 . S
C193 C192 1.399 . S
C193 C194 1.376 . S
C194 H181 0.930 . S
C194 C193 1.376 . S
C194 C195 1.388 . S
C195 H182 0.930 . S
C195 C194 1.388 . S
C195 C196 1.390 . S
C196 C195 1.390 . S
C196 C197 1.394 . S
C196 C202 1.465 . S
C197 C192 1.399 . S
C197 C196 1.394 . S
C197 C198 1.516 . S
C198 C197 1.516 . S
C198 C199 1.502 . S
C198 C200 1.561 . S
C198 C201 1.526 . S
C199 H183 0.959 . S
C199 H184 0.959 . S
C199 H185 0.961 . S
C199 C198 1.502 . S
C200 H186 0.960 . S
C200 H187 0.961 . S
C200 H188 0.959 . S
C200 C198 1.561 . S
C201 C198 1.526 . S
C201 C202 1.396 . S
C201 C206 1.390 . S
C202 C196 1.465 . S
C202 C201 1.396 . S
C202 C203 1.399 . S
C203 H189 0.929 . S
C203 C202 1.399 . S
C203 C204 1.385 . S
C204 H190 0.931 . S
C204 C203 1.385 . S
C204 C205 1.389 . S
C205 C204 1.389 . S
C205 C206 1.387 . S
C206 H191 0.930 . S
C206 C201 1.390 . S
C206 C205 1.387 . S
H207 C219 0.930 . S
H208 C221 0.930 . S
H209 C222 0.930 . S
H210 C226 0.959 . S
H211 C226 0.959 . S
H212 C226 0.961 . S
H213 C227 0.960 . S
H214 C227 0.961 . S
H215 C227 0.959 . S
H216 C230 0.929 . S
H217 C231 0.931 . S
H218 C233 0.930 . S
C219 H207 0.930 . S
C219 C220 1.399 . S
C219 C224 1.399 . S
C220 C219 1.399 . S
C220 C221 1.376 . S
C221 H208 0.930 . S
C221 C220 1.376 . S
C221 C222 1.388 . S
C222 H209 0.930 . S
C222 C221 1.388 . S
C222 C223 1.390 . S
C223 C222 1.390 . S
C223 C224 1.394 . S
C223 C229 1.465 . S
C224 C219 1.399 . S
C224 C223 1.394 . S
C224 C225 1.516 . S
C225 C224 1.516 . S
C225 C226 1.502 . S
C225 C227 1.561 . S
C225 C228 1.526 . S
C226 H210 0.959 . S
C226 H211 0.959 . S
C226 H212 0.961 . S
C226 C225 1.502 . S
C227 H213 0.960 . S
C227 H214 0.961 . S
C227 H215 0.959 . S
C227 C225 1.561 . S
C228 C225 1.526 . S
C228 C229 1.396 . S
C228 C233 1.390 . S
C229 C223 1.465 . S
C229 C228 1.396 . S
C229 C230 1.399 . S
C230 H216 0.929 . S
C230 C229 1.399 . S
C230 C231 1.385 . S
C231 H217 0.931 . S
C231 C230 1.385 . S
C231 C232 1.389 . S
C232 C231 1.389 . S
C232 C233 1.387 . S
C233 H218 0.930 . S
C233 C228 1.390 . S
C233 C232 1.387 . S
H234 C246 0.930 . S
H235 C248 0.930 . S
H236 C249 0.930 . S
H237 C253 0.959 . S
H238 C253 0.959 . S
H239 C253 0.961 . S
H240 C254 0.960 . S
H241 C254 0.961 . S
H242 C254 0.959 . S
H243 C257 0.929 . S
H244 C258 0.931 . S
H245 C260 0.930 . S
C246 H234 0.930 . S
C246 C247 1.399 . S
C246 C251 1.399 . S
C247 C246 1.399 . S
C247 C248 1.376 . S
C248 H235 0.930 . S
C248 C247 1.376 . S
C248 C249 1.388 . S
C249 H236 0.930 . S
C249 C248 1.388 . S
C249 C250 1.390 . S
C250 C249 1.390 . S
C250 C251 1.394 . S
C250 C256 1.465 . S
C251 C246 1.399 . S
C251 C250 1.394 . S
C251 C252 1.516 . S
C252 C251 1.516 . S
C252 C253 1.502 . S
C252 C254 1.561 . S
C252 C255 1.526 . S
C253 H237 0.959 . S
C253 H238 0.959 . S
C253 H239 0.961 . S
C253 C252 1.502 . S
C254 H240 0.960 . S
C254 H241 0.961 . S
C254 H242 0.959 . S
C254 C252 1.561 . S
C255 C252 1.526 . S
C255 C256 1.396 . S
C255 C260 1.390 . S
C256 C250 1.465 . S
C256 C255 1.396 . S
C256 C257 1.399 . S
C257 H243 0.929 . S
C257 C256 1.399 . S
C257 C258 1.385 . S
C258 H244 0.931 . S
C258 C257 1.385 . S
C258 C259 1.389 . S
C259 C258 1.389 . S
C259 C260 1.387 . S
C260 H245 0.930 . S
C260 C255 1.390 . S
C260 C259 1.387 . S
H261 C273 0.930 . S
H262 C275 0.930 . S
H263 C276 0.930 . S
H264 C280 0.959 . S
H265 C280 0.959 . S
H266 C280 0.961 . S
H267 C281 0.960 . S
H268 C281 0.961 . S
H269 C281 0.959 . S
H270 C284 0.929 . S
H271 C285 0.931 . S
H272 C287 0.930 . S
C273 H261 0.930 . S
C273 C274 1.399 . S
C273 C278 1.399 . S
C274 C273 1.399 . S
C274 C275 1.376 . S
C275 H262 0.930 . S
C275 C274 1.376 . S
C275 C276 1.388 . S
C276 H263 0.930 . S
C276 C275 1.388 . S
C276 C277 1.390 . S
C277 C276 1.390 . S
C277 C278 1.394 . S
C277 C283 1.465 . S
C278 C273 1.399 . S
C278 C277 1.394 . S
C278 C279 1.516 . S
C279 C278 1.516 . S
C279 C280 1.502 . S
C279 C281 1.561 . S
C279 C282 1.526 . S
C280 H264 0.959 . S
C280 H265 0.959 . S
C280 H266 0.961 . S
C280 C279 1.502 . S
C281 H267 0.960 . S
C281 H268 0.961 . S
C281 H269 0.959 . S
C281 C279 1.561 . S
C282 C279 1.526 . S
C282 C283 1.396 . S
C282 C287 1.390 . S
C283 C277 1.465 . S
C283 C282 1.396 . S
C283 C284 1.399 . S
C284 H270 0.929 . S
C284 C283 1.399 . S
C284 C285 1.385 . S
C285 H271 0.931 . S
C285 C284 1.385 . S
C285 C286 1.389 . S
C286 C285 1.389 . S
C286 C287 1.387 . S
C287 H272 0.930 . S
C287 C282 1.390 . S
C287 C286 1.387 . S
H288 C300 0.930 . S
H289 C302 0.930 . S
H290 C303 0.930 . S
H291 C307 0.959 . S
H292 C307 0.959 . S
H293 C307 0.961 . S
H294 C308 0.960 . S
H295 C308 0.961 . S
H296 C308 0.959 . S
H297 C311 0.929 . S
H298 C312 0.931 . S
H299 C314 0.930 . S
C300 H288 0.930 . S
C300 C301 1.399 . S
C300 C305 1.399 . S
C301 C300 1.399 . S
C301 C302 1.376 . S
C302 H289 0.930 . S
C302 C301 1.376 . S
C302 C303 1.388 . S
C303 H290 0.930 . S
C303 C302 1.388 . S
C303 C304 1.390 . S
C304 C303 1.390 . S
C304 C305 1.394 . S
C304 C310 1.465 . S
C305 C300 1.399 . S
C305 C304 1.394 . S
C305 C306 1.516 . S
C306 C305 1.516 . S
C306 C307 1.502 . S
C306 C308 1.561 . S
C306 C309 1.526 . S
C307 H291 0.959 . S
C307 H292 0.959 . S
C307 H293 0.961 . S
C307 C306 1.502 . S
C308 H294 0.960 . S
C308 H295 0.961 . S
C308 H296 0.959 . S
C308 C306 1.561 . S
C309 C306 1.526 . S
C309 C310 1.396 . S
C309 C314 1.390 . S
C310 C304 1.465 . S
C310 C309 1.396 . S
C310 C311 1.399 . S
C311 H297 0.929 . S
C311 C310 1.399 . S
C311 C312 1.385 . S
C312 H298 0.931 . S
C312 C311 1.385 . S
C312 C313 1.389 . S
C313 C312 1.389 . S
C313 C314 1.387 . S
C314 H299 0.930 . S
C314 C309 1.390 . S
C314 C313 1.387 . S
H315 C327 0.930 . S
H316 C329 0.930 . S
H317 C330 0.930 . S
H318 C334 0.959 . S
H319 C334 0.959 . S
H320 C334 0.961 . S
H321 C335 0.960 . S
H322 C335 0.961 . S
H323 C335 0.959 . S
H324 C338 0.929 . S
H325 C339 0.931 . S
H326 C341 0.930 . S
C327 H315 0.930 . S
C327 C328 1.399 . S
C327 C332 1.399 . S
C328 C327 1.399 . S
C328 C329 1.376 . S
C329 H316 0.930 . S
C329 C328 1.376 . S
C329 C330 1.388 . S
C330 H317 0.930 . S
C330 C329 1.388 . S
C330 C331 1.390 . S
C331 C330 1.390 . S
C331 C332 1.394 . S
C331 C337 1.465 . S
C332 C327 1.399 . S
C332 C331 1.394 . S
C332 C333 1.516 . S
C333 C332 1.516 . S
C333 C334 1.502 . S
C333 C335 1.561 . S
C333 C336 1.526 . S
C334 H318 0.959 . S
C334 H319 0.959 . S
C334 H320 0.961 . S
C334 C333 1.502 . S
C335 H321 0.960 . S
C335 H322 0.961 . S
C335 H323 0.959 . S
C335 C333 1.561 . S
C336 C333 1.526 . S
C336 C337 1.396 . S
C336 C341 1.390 . S
C337 C331 1.465 . S
C337 C336 1.396 . S
C337 C338 1.399 . S
C338 H324 0.929 . S
C338 C337 1.399 . S
C338 C339 1.385 . S
C339 H325 0.931 . S
C339 C338 1.385 . S
C339 C340 1.389 . S
C340 C339 1.389 . S
C340 C341 1.387 . S
C341 H326 0.930 . S
C341 C336 1.390 . S
C341 C340 1.387 . S
H342 C354 0.930 . S
H343 C356 0.930 . S
H344 C357 0.930 . S
H345 C361 0.959 . S
H346 C361 0.959 . S
H347 C361 0.961 . S
H348 C362 0.960 . S
H349 C362 0.961 . S
H350 C362 0.959 . S
H351 C365 0.929 . S
H352 C366 0.931 . S
H353 C368 0.930 . S
C354 H342 0.930 . S
C354 C355 1.399 . S
C354 C359 1.399 . S
C355 C354 1.399 . S
C355 C356 1.376 . S
C356 H343 0.930 . S
C356 C355 1.376 . S
C356 C357 1.388 . S
C357 H344 0.930 . S
C357 C356 1.388 . S
C357 C358 1.390 . S
C358 C357 1.390 . S
C358 C359 1.394 . S
C358 C364 1.465 . S
C359 C354 1.399 . S
C359 C358 1.394 . S
C359 C360 1.516 . S
C360 C359 1.516 . S
C360 C361 1.502 . S
C360 C362 1.561 . S
C360 C363 1.526 . S
C361 H345 0.959 . S
C361 H346 0.959 . S
C361 H347 0.961 . S
C361 C360 1.502 . S
C362 H348 0.960 . S
C362 H349 0.961 . S
C362 H350 0.959 . S
C362 C360 1.561 . S
C363 C360 1.526 . S
C363 C364 1.396 . S
C363 C368 1.390 . S
C364 C358 1.465 . S
C364 C363 1.396 . S
C364 C365 1.399 . S
C365 H351 0.929 . S
C365 C364 1.399 . S
C365 C366 1.385 . S
C366 H352 0.931 . S
C366 C365 1.385 . S
C366 C367 1.389 . S
C367 C366 1.389 . S
C367 C368 1.387 . S
C368 H353 0.930 . S
C368 C363 1.390 . S
C368 C367 1.387 . S
H369 C381 0.930 . S
H370 C383 0.930 . S
H371 C384 0.930 . S
H372 C388 0.959 . S
H373 C388 0.959 . S
H374 C388 0.961 . S
H375 C389 0.960 . S
H376 C389 0.961 . S
H377 C389 0.959 . S
H378 C392 0.929 . S
H379 C393 0.931 . S
H380 C395 0.930 . S
C381 H369 0.930 . S
C381 C382 1.399 . S
C381 C386 1.399 . S
C382 C381 1.399 . S
C382 C383 1.376 . S
C383 H370 0.930 . S
C383 C382 1.376 . S
C383 C384 1.388 . S
C384 H371 0.930 . S
C384 C383 1.388 . S
C384 C385 1.390 . S
C385 C384 1.390 . S
C385 C386 1.394 . S
C385 C391 1.465 . S
C386 C381 1.399 . S
C386 C385 1.394 . S
C386 C387 1.516 . S
C387 C386 1.516 . S
C387 C388 1.502 . S
C387 C389 1.561 . S
C387 C390 1.526 . S
C388 H372 0.959 . S
C388 H373 0.959 . S
C388 H374 0.961 . S
C388 C387 1.502 . S
C389 H375 0.960 . S
C389 H376 0.961 . S
C389 H377 0.959 . S
C389 C387 1.561 . S
C390 C387 1.526 . S
C390 C391 1.396 . S
C390 C395 1.390 . S
C391 C385 1.465 . S
C391 C390 1.396 . S
C391 C392 1.399 . S
C392 H378 0.929 . S
C392 C391 1.399 . S
C392 C393 1.385 . S
C393 H379 0.931 . S
C393 C392 1.385 . S
C393 C394 1.389 . S
C394 C393 1.389 . S
C394 C395 1.387 . S
C395 H380 0.930 . S
C395 C390 1.390 . S
C395 C394 1.387 . S
H396 C408 0.930 . S
H397 C410 0.930 . S
H398 C411 0.930 . S
H399 C415 0.959 . S
H400 C415 0.959 . S
H401 C415 0.961 . S
H402 C416 0.960 . S
H403 C416 0.961 . S
H404 C416 0.959 . S
H405 C419 0.929 . S
H406 C420 0.931 . S
H407 C422 0.930 . S
C408 H396 0.930 . S
C408 C409 1.399 . S
C408 C413 1.399 . S
C409 C408 1.399 . S
C409 C410 1.376 . S
C410 H397 0.930 . S
C410 C409 1.376 . S
C410 C411 1.388 . S
C411 H398 0.930 . S
C411 C410 1.388 . S
C411 C412 1.390 . S
C412 C411 1.390 . S
C412 C413 1.394 . S
C412 C418 1.465 . S
C413 C408 1.399 . S
C413 C412 1.394 . S
C413 C414 1.516 . S
C414 C413 1.516 . S
C414 C415 1.502 . S
C414 C416 1.561 . S
C414 C417 1.526 . S
C415 H399 0.959 . S
C415 H400 0.959 . S
C415 H401 0.961 . S
C415 C414 1.502 . S
C416 H402 0.960 . S
C416 H403 0.961 . S
C416 H404 0.959 . S
C416 C414 1.561 . S
C417 C414 1.526 . S
C417 C418 1.396 . S
C417 C422 1.390 . S
C418 C412 1.465 . S
C418 C417 1.396 . S
C418 C419 1.399 . S
C419 H405 0.929 . S
C419 C418 1.399 . S
C419 C420 1.385 . S
C420 H406 0.931 . S
C420 C419 1.385 . S
C420 C421 1.389 . S
C421 C420 1.389 . S
C421 C422 1.387 . S
C422 H407 0.930 . S
C422 C417 1.390 . S
C422 C421 1.387 . S
H423 C435 0.930 . S
H424 C437 0.930 . S
H425 C438 0.930 . S
H426 C442 0.959 . S
H427 C442 0.959 . S
H428 C442 0.961 . S
H429 C443 0.960 . S
H430 C443 0.961 . S
H431 C443 0.959 . S
H432 C446 0.929 . S
H433 C447 0.931 . S
H434 C449 0.930 . S
C435 H423 0.930 . S
C435 C436 1.399 . S
C435 C440 1.399 . S
C436 C435 1.399 . S
C436 C437 1.376 . S
C437 H424 0.930 . S
C437 C436 1.376 . S
C437 C438 1.388 . S
C438 H425 0.930 . S
C438 C437 1.388 . S
C438 C439 1.390 . S
C439 C438 1.390 . S
C439 C440 1.394 . S
C439 C445 1.465 . S
C440 C435 1.399 . S
C440 C439 1.394 . S
C440 C441 1.516 . S
C441 C440 1.516 . S
C441 C442 1.502 . S
C441 C443 1.561 . S
C441 C444 1.526 . S
C442 H426 0.959 . S
C442 H427 0.959 . S
C442 H428 0.961 . S
C442 C441 1.502 . S
C443 H429 0.960 . S
C443 H430 0.961 . S
C443 H431 0.959 . S
C443 C441 1.561 . S
C444 C441 1.526 . S
C444 C445 1.396 . S
C444 C449 1.390 . S
C445 C439 1.465 . S
C445 C444 1.396 . S
C445 C446 1.399 . S
C446 H432 0.929 . S
C446 C445 1.399 . S
C446 C447 1.385 . S
C447 H433 0.931 . S
C447 C446 1.385 . S
C447 C448 1.389 . S
C448 C447 1.389 . S
C448 C449 1.387 . S
C449 H434 0.930 . S
C449 C444 1.390 . S
C449 C448 1.387 . S
H450 C462 0.930 . S
H451 C464 0.930 . S
H452 C465 0.930 . S
H453 C469 0.959 . S
H454 C469 0.959 1_556 S
H455 C469 0.961 . S
H456 C470 0.960 . S
H457 C470 0.961 . S
H458 C470 0.959 . S
H459 C473 0.929 . S
H460 C474 0.931 . S
H461 C476 0.930 . S
C462 H450 0.930 . S
C462 C463 1.399 . S
C462 C467 1.399 . S
C463 C462 1.399 . S
C463 C464 1.376 . S
C464 H451 0.930 . S
C464 C463 1.376 . S
C464 C465 1.388 . S
C465 H452 0.930 . S
C465 C464 1.388 . S
C465 C466 1.390 . S
C466 C465 1.390 . S
C466 C467 1.394 . S
C466 C472 1.465 . S
C467 C462 1.399 . S
C467 C466 1.394 . S
C467 C468 1.516 . S
C468 C467 1.516 . S
C468 C469 1.502 1_455 S
C468 C470 1.561 . S
C468 C471 1.526 1_554 S
C469 H453 0.959 . S
C469 H454 0.959 1_554 S
C469 H455 0.961 . S
C469 C468 1.502 1_655 S
C470 H456 0.960 . S
C470 H457 0.961 . S
C470 H458 0.959 . S
C470 C468 1.561 . S
C471 C468 1.526 1_556 S
C471 C472 1.396 1_556 S
C471 C476 1.390 . S
C472 C466 1.465 . S
C472 C471 1.396 1_554 S
C472 C473 1.399 1_554 S
C473 H459 0.929 . S
C473 C472 1.399 1_556 S
C473 C474 1.385 . S
C474 H460 0.931 . S
C474 C473 1.385 . S
C474 C475 1.389 . S
C475 C474 1.389 . S
C475 C476 1.387 . S
C476 H461 0.930 . S
C476 C471 1.390 . S
C476 C475 1.387 . S
H477 C489 0.930 1_565 S
H478 C491 0.930 . S
H479 C492 0.930 . S
H480 C496 0.959 . S
H481 C496 0.959 . S
H482 C496 0.961 . S
H483 C497 0.960 . S
H484 C497 0.961 . S
H485 C497 0.959 . S
H486 C500 0.929 . S
H487 C501 0.931 . S
H488 C503 0.930 1_565 S
C489 H477 0.930 1_545 S
C489 C490 1.399 . S
C489 C494 1.399 . S
C490 C489 1.399 . S
C490 C491 1.376 . S
C491 H478 0.930 . S
C491 C490 1.376 . S
C491 C492 1.388 . S
C492 H479 0.930 . S
C492 C491 1.388 . S
C492 C493 1.390 . S
C493 C492 1.390 . S
C493 C494 1.394 . S
C493 C499 1.465 . S
C494 C489 1.399 . S
C494 C493 1.394 . S
C494 C495 1.516 1_545 S
C495 C494 1.516 1_565 S
C495 C496 1.502 . S
C495 C497 1.561 . S
C495 C498 1.526 1_565 S
C496 H480 0.959 . S
C496 H481 0.959 . S
C496 H482 0.961 . S
C496 C495 1.502 . S
C497 H483 0.960 . S
C497 H484 0.961 . S
C497 H485 0.959 . S
C497 C495 1.561 . S
C498 C495 1.526 1_545 S
C498 C499 1.396 . S
C498 C503 1.390 . S
C499 C493 1.465 . S
C499 C498 1.396 . S
C499 C500 1.399 . S
C500 H486 0.929 . S
C500 C499 1.399 . S
C500 C501 1.385 . S
C501 H487 0.931 . S
C501 C500 1.385 . S
C501 C502 1.389 . S
C502 C501 1.389 . S
C502 C503 1.387 . S
C503 H488 0.930 1_545 S
C503 C498 1.390 . S
C503 C502 1.387 . S
H504 C516 0.930 . S
H505 C518 0.930 . S
H506 C519 0.930 . S
H507 C523 0.959 . S
H508 C523 0.959 . S
H509 C523 0.961 . S
H510 C524 0.960 . S
H511 C524 0.961 . S
H512 C524 0.959 . S
H513 C527 0.929 . S
H514 C528 0.931 . S
H515 C530 0.930 . S
C516 H504 0.930 . S
C516 C517 1.399 . S
C516 C521 1.399 . S
C517 C516 1.399 . S
C517 C518 1.376 . S
C518 H505 0.930 . S
C518 C517 1.376 . S
C518 C519 1.388 . S
C519 H506 0.930 . S
C519 C518 1.388 . S
C519 C520 1.390 . S
C520 C519 1.390 . S
C520 C521 1.394 . S
C520 C526 1.465 . S
C521 C516 1.399 . S
C521 C520 1.394 . S
C521 C522 1.516 . S
C522 C521 1.516 . S
C522 C523 1.502 . S
C522 C524 1.561 . S
C522 C525 1.526 . S
C523 H507 0.959 . S
C523 H508 0.959 . S
C523 H509 0.961 . S
C523 C522 1.502 . S
C524 H510 0.960 . S
C524 H511 0.961 . S
C524 H512 0.959 . S
C524 C522 1.561 . S
C525 C522 1.526 . S
C525 C526 1.396 . S
C525 C530 1.390 . S
C526 C520 1.465 . S
C526 C525 1.396 . S
C526 C527 1.399 . S
C527 H513 0.929 . S
C527 C526 1.399 . S
C527 C528 1.385 . S
C528 H514 0.931 . S
C528 C527 1.385 . S
C528 C529 1.389 . S
C529 C528 1.389 . S
C529 C530 1.387 . S
C530 H515 0.930 . S
C530 C525 1.390 . S
C530 C529 1.387 . S
H531 C543 0.930 . S
H532 C545 0.930 . S
H533 C546 0.930 . S
H534 C550 0.959 . S
H535 C550 0.959 . S
H536 C550 0.961 . S
H537 C551 0.960 . S
H538 C551 0.961 . S
H539 C551 0.959 . S
H540 C554 0.929 . S
H541 C555 0.931 . S
H542 C557 0.930 . S
C543 H531 0.930 . S
C543 C544 1.399 . S
C543 C548 1.399 . S
C544 C543 1.399 . S
C544 C545 1.376 . S
C545 H532 0.930 . S
C545 C544 1.376 . S
C545 C546 1.388 . S
C546 H533 0.930 . S
C546 C545 1.388 . S
C546 C547 1.390 . S
C547 C546 1.390 . S
C547 C548 1.394 . S
C547 C553 1.465 . S
C548 C543 1.399 . S
C548 C547 1.394 . S
C548 C549 1.516 . S
C549 C548 1.516 . S
C549 C550 1.502 . S
C549 C551 1.561 1_545 S
C549 C552 1.526 . S
C550 H534 0.959 . S
C550 H535 0.959 . S
C550 H536 0.961 . S
C550 C549 1.502 . S
C551 H537 0.960 . S
C551 H538 0.961 . S
C551 H539 0.959 . S
C551 C549 1.561 1_565 S
C552 C549 1.526 . S
C552 C553 1.396 . S
C552 C557 1.390 . S
C553 C547 1.465 . S
C553 C552 1.396 . S
C553 C554 1.399 . S
C554 H540 0.929 . S
C554 C553 1.399 . S
C554 C555 1.385 . S
C555 H541 0.931 . S
C555 C554 1.385 . S
C555 C556 1.389 . S
C556 C555 1.389 . S
C556 C557 1.387 . S
C557 H542 0.930 . S
C557 C552 1.390 . S
C557 C556 1.387 . S
H558 C570 0.930 . S
H559 C572 0.930 . S
H560 C573 0.930 . S
H561 C577 0.959 . S
H562 C577 0.959 . S
H563 C577 0.961 . S
H564 C578 0.960 . S
H565 C578 0.961 . S
H566 C578 0.959 . S
H567 C581 0.929 . S
H568 C582 0.931 . S
H569 C584 0.930 . S
C570 H558 0.930 . S
C570 C571 1.399 . S
C570 C575 1.399 . S
C571 C570 1.399 . S
C571 C572 1.376 . S
C572 H559 0.930 . S
C572 C571 1.376 . S
C572 C573 1.388 . S
C573 H560 0.930 . S
C573 C572 1.388 . S
C573 C574 1.390 . S
C574 C573 1.390 . S
C574 C575 1.394 . S
C574 C580 1.466 . S
C575 C570 1.399 . S
C575 C574 1.394 . S
C575 C576 1.516 . S
C576 C575 1.516 . S
C576 C577 1.502 . S
C576 C578 1.561 . S
C576 C579 1.526 1_556 S
C577 H561 0.959 . S
C577 H562 0.959 . S
C577 H563 0.961 . S
C577 C576 1.502 . S
C578 H564 0.960 . S
C578 H565 0.961 . S
C578 H566 0.959 . S
C578 C576 1.561 . S
C579 C576 1.526 1_554 S
C579 C580 1.396 1_554 S
C579 C584 1.390 . S
C580 C574 1.466 . S
C580 C579 1.396 1_556 S
C580 C581 1.398 1_556 S
C581 H567 0.929 . S
C581 C580 1.398 1_554 S
C581 C582 1.385 . S
C582 H568 0.931 . S
C582 C581 1.385 . S
C582 C583 1.389 . S
C583 C582 1.389 . S
C583 C584 1.387 . S
C584 H569 0.930 . S
C584 C579 1.390 . S
C584 C583 1.387 . S
H585 C597 0.930 . S
H586 C599 0.930 . S
H587 C600 0.930 . S
H588 C604 0.959 . S
H589 C604 0.959 . S
H590 C604 0.961 . S
H591 C605 0.960 . S
H592 C605 0.961 . S
H593 C605 0.959 . S
H594 C608 0.929 . S
H595 C609 0.931 . S
H596 C611 0.930 . S
C597 H585 0.930 . S
C597 C598 1.399 . S
C597 C602 1.399 . S
C598 C597 1.399 . S
C598 C599 1.376 1_455 S
C599 H586 0.930 . S
C599 C598 1.376 1_655 S
C599 C600 1.388 . S
C600 H587 0.930 . S
C600 C599 1.388 . S
C600 C601 1.390 . S
C601 C600 1.390 . S
C601 C602 1.394 1_655 S
C601 C607 1.465 . S
C602 C597 1.399 . S
C602 C601 1.394 1_455 S
C602 C603 1.516 . S
C603 C602 1.516 . S
C603 C604 1.502 . S
C603 C605 1.561 . S
C603 C606 1.526 . S
C604 H588 0.959 . S
C604 H589 0.959 . S
C604 H590 0.961 . S
C604 C603 1.502 . S
C605 H591 0.960 . S
C605 H592 0.961 . S
C605 H593 0.959 . S
C605 C603 1.561 . S
C606 C603 1.526 . S
C606 C607 1.393 1_455 S
C606 C611 1.390 . S
C607 C601 1.465 . S
C607 C606 1.393 1_655 S
C607 C608 1.401 . S
C608 H594 0.929 . S
C608 C607 1.401 . S
C608 C609 1.385 . S
C609 H595 0.931 . S
C609 C608 1.385 . S
C609 C610 1.389 1_655 S
C610 C609 1.389 1_455 S
C610 C611 1.387 . S
C611 H596 0.930 . S
C611 C606 1.390 . S
C611 C610 1.387 . S
C139 C2 1.479 . S
C151 N119 1.507 . S
C166 C22 1.387 . S
C178 N97 1.502 . S
C193 C44 1.489 . S
C205 N108 1.489 . S
C220 C4 1.363 . S
C232 C121 1.516 . S
C259 C99 1.537 . S
C247 C24 1.397 . S
C286 C110 1.467 . S
C274 C42 1.445 . S
C301 C32 1.380 . S
C313 N75 1.396 . S
C328 C49 1.124 . S
C340 C88 1.180 . S
C355 C9 1.187 . S
C367 C66 1.152 . S
C394 C77 1.199 . S
C382 C29 1.098 . S
C421 N86 1.354 . S
C409 C52 1.299 . S
C436 C12 1.290 . S
C448 N64 1.350 . S
C475 C91 1.495 . S
C463 C18 1.499 . S
C490 C38 1.467 . S
C502 C69 1.470 . S
C517 C58 1.486 . S
C529 C80 1.470 . S
C556 C113 1.511 . S
C544 C39 1.487 . S
C583 C124 1.507 . S
C571 C59 1.515 . S
C598 C19 1.521 . S
C610 C102 1.541 . S
