# Generated by pormake.
# Topology pth, (4,4)-cn, num edge types: 1
# Building blocks:
#     Node 0, Type 0, BuildingBlock: QUQFOY_clean_sbu_1, # of connection points: 4
#     Node 1, Type 0, BuildingBlock: QUQFOY_clean_sbu_1, # of connection points: 4
#     Node 2, Type 0, BuildingBlock: QUQFOY_clean_sbu_1, # of connection points: 4
#     Node 3, Type 1, BuildingBlock: NAHDIM_clean_linker_0, # of connection points: 4
#     Node 4, Type 1, BuildingBlock: NAHDIM_clean_linker_0, # of connection points: 4
#     Node 5, Type 1, BuildingBlock: NAHDIM_clean_linker_0, # of connection points: 4
#     Edge 6, Type (0, 1), BuildingBlock: AJUNOK_clean_linker_0, # of connection points: 2
#     Edge 7, Type (0, 1), BuildingBlock: AJUNOK_clean_linker_0, # of connection points: 2
#     Edge 8, Type (0, 1), BuildingBlock: AJUNOK_clean_linker_0, # of connection points: 2
#     Edge 9, Type (0, 1), BuildingBlock: AJUNOK_clean_linker_0, # of connection points: 2
#     Edge 10, Type (0, 1), BuildingBlock: AJUNOK_clean_linker_0, # of connection points: 2
#     Edge 11, Type (0, 1), BuildingBlock: AJUNOK_clean_linker_0, # of connection points: 2
#     Edge 12, Type (0, 1), BuildingBlock: AJUNOK_clean_linker_0, # of connection points: 2
#     Edge 13, Type (0, 1), BuildingBlock: AJUNOK_clean_linker_0, # of connection points: 2
#     Edge 14, Type (0, 1), BuildingBlock: AJUNOK_clean_linker_0, # of connection points: 2
#     Edge 15, Type (0, 1), BuildingBlock: AJUNOK_clean_linker_0, # of connection points: 2
#     Edge 16, Type (0, 1), BuildingBlock: AJUNOK_clean_linker_0, # of connection points: 2
#     Edge 17, Type (0, 1), BuildingBlock: AJUNOK_clean_linker_0, # of connection points: 2
# Relax obj value: 0.030
# Max RMSD: 0.122
# Mean RMSD: 0.078
data_MOF--net-pth--node1-QUQFOY_clean_sbu_1--node2-NAHDIM_clean_linker_0--edge1-AJUNOK_clean_linker_0
_symmetry_space_group_name_H-M    P1
_symmetry_Int_Tables_number       1
_symmetry_cell_setting            triclinic
loop_
_symmetry_equiv_pos_as_xyz
'x, y, z'
_cell_length_a     24.87672
_cell_length_b     27.225217
_cell_length_c     67.751097
_cell_angle_alpha  89.591552
_cell_angle_beta   90.834602
_cell_angle_gamma 120.09444
loop_
_atom_site_label
_atom_site_type_symbol
_atom_site_fract_x
_atom_site_fract_y
_atom_site_fract_z
_atom_type_partial_charge
O0 O 0.09097 0.12652 0.04345 0.0
Cd1 Cd 0.01276 0.07545 0.05965 0.0
Cd2 Cd 0.06034 0.00664 0.05795 0.0
O3 O 0.13703 0.0755 0.04599 0.0
O4 O 0.98263 0.12659 0.0689 0.0
O5 O 0.01648 0.08379 0.08923 0.0
C6 C 0.99466 0.11763 0.08668 0.0
C7 C 0.06791 0.95329 0.08365 0.0
C8 C 0.13709 0.11992 0.04002 0.0
C9 C 0.94019 0.97065 0.03595 0.0
O10 O 0.98588 0.96296 0.03901 0.0
O11 O 0.93859 0.0115 0.04432 0.0
O12 O 0.08247 0.94839 0.06588 0.0
O13 O 0.05169 0.99065 0.08711 0.0
O14 O 0.97248 0.06535 0.41998 0.0
Cd15 Cd 0.05181 0.08463 0.40503 0.0
Cd16 Cd 0.99406 0.97372 0.3999 0.0
O17 O 0.91771 0.97687 0.40989 0.0
O18 O 0.08621 0.1646 0.39616 0.0
O19 O 0.04822 0.09145 0.37568 0.0
C20 C 0.06986 0.14513 0.37843 0.0
C21 C 0.98311 0.91605 0.37293 0.0
C22 C 0.92124 0.01889 0.41913 0.0
C23 C 0.10498 0.02693 0.42786 0.0
O24 O 0.05752 0.98215 0.42147 0.0
O25 O 0.1166 0.07528 0.42145 0.0
O26 O 0.95938 0.89478 0.38981 0.0
O27 O 0.01251 0.97065 0.37119 0.0
O28 O 0.98113 0.02505 0.6951 0.0
Cd29 Cd 0.01492 0.99518 0.71729 0.0
Cd30 Cd 0.0908 0.10715 0.72538 0.0
O31 O 0.03869 0.11544 0.70303 0.0
O32 O 0.95173 0.9141 0.72206 0.0
O33 O 0.97818 0.98153 0.74439 0.0
C34 C 0.94505 0.92863 0.73954 0.0
C35 C 0.10629 0.15789 0.75449 0.0
C36 C 0.99705 0.07675 0.69221 0.0
C37 C 0.15244 0.04119 0.71367 0.0
O38 O 0.1594 0.08933 0.71807 0.0
O39 O 0.0983 0.99773 0.71286 0.0
O40 O 0.13435 0.18284 0.73848 0.0
O41 O 0.06848 0.10373 0.75393 0.0
C42 C 0.93017 0.7724 0.29055 0.0
C43 C 0.95496 0.75914 0.3095 0.0
C44 C 0.01865 0.71898 0.29807 0.0
C45 C 0.07934 0.7292 0.2963 0.0
C46 C 0.09137 0.68869 0.2879 0.0
C47 C 0.04125 0.63656 0.2811 0.0
C48 C 0.97961 0.62544 0.28308 0.0
C49 C 0.96889 0.66673 0.29146 0.0
C50 C 0.15763 0.70188 0.28598 0.0
C51 C 0.92502 0.57017 0.27601 0.0
C52 C 0.96447 0.28497 0.33941 0.0
C53 C 0.01474 0.28488 0.32648 0.0
C54 C 0.06091 0.37941 0.31091 0.0
C55 C 0.0085 0.36837 0.29938 0.0
C56 C 0.00798 0.41112 0.28781 0.0
C57 C 0.06212 0.46538 0.28689 0.0
C58 C 0.11542 0.47634 0.29812 0.0
C59 C 0.11381 0.43334 0.31013 0.0
C60 C 0.94937 0.39794 0.27656 0.0
C61 C 0.17419 0.5334 0.29738 0.0
C62 C 0.03034 0.34018 0.16359 0.0
C63 C 0.9814 0.3445 0.17196 0.0
C64 C 0.99184 0.39557 0.18034 0.0
C65 C 0.05263 0.44329 0.18073 0.0
C66 C 0.10198 0.43931 0.17231 0.0
C67 C 0.0901 0.38778 0.16382 0.0
C68 C 0.93777 0.39825 0.18903 0.0
C69 C 0.16731 0.48922 0.1726 0.0
C70 C 0.99885 0.78878 0.1598 0.0
C71 C 0.05372 0.79953 0.14683 0.0
C72 C 0.05089 0.70971 0.15134 0.0
C73 C -0.00023 0.65508 0.153 0.0
C74 C 0.00279 0.61403 0.16485 0.0
C75 C 0.05937 0.62756 0.17459 0.0
C76 C 0.11219 0.68226 0.17215 0.0
C77 C 0.10702 0.72311 0.16077 0.0
C78 C 0.94523 0.55655 0.16712 0.0
C79 C 0.17401 0.69774 0.18159 0.0
C80 C 0.05309 0.59454 0.27108 0.0
C81 C 0.05619 0.55312 0.28259 0.0
C82 C 0.06314 0.51016 0.27389 0.0
C83 C 0.06726 0.50842 0.25311 0.0
C84 C 0.07385 0.46571 0.24383 0.0
C85 C 0.07331 0.46192 0.22336 0.0
C86 C 0.06802 0.50168 0.21137 0.0
C87 C 0.06405 0.49637 0.19058 0.0
C88 C 0.06325 0.53878 0.17902 0.0
C89 C 0.0627 0.58506 0.18771 0.0
C90 C 0.06187 0.58865 0.20855 0.0
C91 C 0.0563 0.63192 0.21783 0.0
C92 C 0.05415 0.63433 0.23829 0.0
C93 C 0.0574 0.59353 0.2503 0.0
C94 C 0.06389 0.55 0.2413 0.0
C95 C 0.06534 0.54717 0.22039 0.0
C96 C 0.951 0.20517 0.17196 0.0
C97 C 0.96707 0.24037 0.15292 0.0
O98 O 0.01064 0.76073 0.30601 0.0
O99 O 0.04553 0.74829 0.14003 0.0
O100 O 0.02235 0.29134 0.15535 0.0
O101 O 0.06239 0.33997 0.3231 0.0
H102 H 0.91984 0.716 0.31462 0.0
H103 H 0.91989 0.73968 0.27915 0.0
H104 H 0.96462 0.81431 0.28441 0.0
H105 H 0.88645 0.77251 0.29358 0.0
H106 H 0.11751 0.76946 0.30141 0.0
H107 H 0.92152 0.65775 0.29255 0.0
H108 H 0.16369 0.66875 0.29364 0.0
H109 H 0.19148 0.74402 0.29226 0.0
H110 H 0.16828 0.70116 0.27016 0.0
H111 H 0.87974 0.56664 0.27955 0.0
H112 H 0.92689 0.53388 0.28287 0.0
H113 H 0.92749 0.56656 0.25978 0.0
H114 H 0.99373 0.26434 0.3121 0.0
H115 H 0.92718 0.2407 0.34241 0.0
H116 H 0.94262 0.30717 0.33205 0.0
H117 H 0.98473 0.30666 0.35369 0.0
H118 H 0.96742 0.32673 0.29936 0.0
H119 H 0.15417 0.4416 0.31896 0.0
H120 H 0.94003 0.43367 0.27766 0.0
H121 H 0.90826 0.35874 0.28206 0.0
H122 H 0.95501 0.39167 0.26073 0.0
H123 H 0.21342 0.5334 0.30543 0.0
H124 H 0.16577 0.56599 0.30408 0.0
H125 H 0.1878 0.54595 0.28181 0.0
H126 H 0.92856 0.24874 0.14966 0.0
H127 H 0.93488 0.30834 0.17223 0.0
H128 H 0.12769 0.38428 0.1574 0.0
H129 H 0.9435 0.40241 0.20532 0.0
H130 H 0.89246 0.35979 0.18557 0.0
H131 H 0.93661 0.4361 0.18337 0.0
H132 H 0.20098 0.47894 0.16589 0.0
H133 H 0.18216 0.50345 0.18805 0.0
H134 H 0.16861 0.52524 0.16439 0.0
H135 H 0.09722 0.82143 0.15586 0.0
H136 H 0.00474 0.8295 0.16537 0.0
H137 H 0.99614 0.76247 0.17277 0.0
H138 H 0.95449 0.76612 0.15128 0.0
H139 H 0.95689 0.64522 0.14538 0.0
H140 H 0.14697 0.76514 0.15895 0.0
H141 H 0.93733 0.54433 0.18294 0.0
H142 H 0.95161 0.52418 0.15931 0.0
H143 H 0.90313 0.55564 0.16094 0.0
H144 H 0.21255 0.73753 0.17536 0.0
H145 H 0.18454 0.66299 0.17957 0.0
H146 H 0.17213 0.70391 0.19768 0.0
H147 H 0.05169 0.55357 0.29848 0.0
H148 H 0.07828 0.43399 0.25228 0.0
H149 H 0.07716 0.42742 0.21703 0.0
H150 H 0.06079 0.53468 0.16307 0.0
H151 H 0.05274 0.66409 0.20939 0.0
H152 H 0.04947 0.66845 0.24455 0.0
H153 H 0.98986 0.19878 0.17683 0.0
H154 H 0.90861 0.16311 0.16964 0.0
H155 H 0.94169 0.22717 0.18402 0.0
C156 C 0.36766 0.97528 0.71942 0.0
C157 C 0.36504 0.00829 0.70142 0.0
C158 C 0.39246 0.99528 0.66798 0.0
C159 C 0.42359 0.05252 0.66209 0.0
C160 C 0.46208 0.07014 0.64548 0.0
C161 C 0.46908 0.02969 0.63453 0.0
C162 C 0.43547 0.97167 0.63994 0.0
C163 C 0.39707 0.95524 0.65649 0.0
C164 C 0.49604 0.13204 0.6398 0.0
C165 C 0.4416 0.9272 0.62862 0.0
C166 C 0.97026 0.18267 0.61015 0.0
C167 C 0.91131 0.14214 0.62133 0.0
C168 C 0.81469 0.14541 0.62257 0.0
C169 C 0.77346 0.08651 0.62331 0.0
C170 C 0.70963 0.06399 0.61967 0.0
C171 C 0.68675 0.10115 0.61536 0.0
C172 C 0.72767 0.16054 0.61574 0.0
C173 C 0.79117 0.18187 0.61945 0.0
C174 C 0.66685 1.0005 0.61984 0.0
C175 C 0.70458 0.20138 0.6116 0.0
C176 C 0.66599 0.02134 0.48705 0.0
C177 C 0.62087 0.97271 0.49689 0.0
C178 C 0.58065 0.97627 0.51032 0.0
C179 C 0.58474 0.02927 0.51369 0.0
C180 C 0.62777 0.07769 0.50304 0.0
C181 C 0.66798 0.07304 0.48984 0.0
C182 C 0.5345 0.92354 0.52121 0.0
C183 C 0.63225 0.13448 0.506 0.0
C184 C 0.11714 0.97474 0.51631 0.0
C185 C 0.18068 0.00094 0.50652 0.0
C186 C 0.2629 0.97979 0.51599 0.0
C187 C 0.27231 0.93664 0.52338 0.0
C188 C 0.33072 0.94833 0.53055 0.0
C189 C 0.3808 0.00489 0.53042 0.0
C190 C 0.37201 0.04871 0.52258 0.0
C191 C 0.31332 0.03564 0.5152 0.0
C192 C 0.33899 0.90026 0.53815 0.0
C193 C 0.42487 0.10931 0.52185 0.0
C194 C 0.51473 0.048 0.61832 0.0
C195 C 0.5768 0.06715 0.6235 0.0
C196 C 0.62105 0.0782 0.60909 0.0
C197 C 0.60281 0.06805 0.58899 0.0
C198 C 0.64505 0.07422 0.57427 0.0
C199 C 0.62622 0.06255 0.55461 0.0
C200 C 0.56503 0.04633 0.54882 0.0
C201 C 0.54526 0.03384 0.52891 0.0
C202 C 0.48525 0.02086 0.52346 0.0
C203 C 0.44324 0.01798 0.53752 0.0
C204 C 0.46083 0.02687 0.55772 0.0
C205 C 0.4187 0.02101 0.57245 0.0
C206 C 0.43603 0.02759 0.59235 0.0
C207 C 0.49676 0.04224 0.59818 0.0
C208 C 0.54069 0.05095 0.5835 0.0
C209 C 0.52226 0.04169 0.56332 0.0
C210 C 0.75479 0.97442 0.49363 0.0
C211 C 0.72519 0.97873 0.47407 0.0
O212 O 0.35775 0.97686 0.68456 0.0
O213 O 0.20482 0.96533 0.50958 0.0
O214 O 0.70903 0.02056 0.47511 0.0
O215 O 0.8772 0.16878 0.62462 0.0
H216 H 0.41029 0.04872 0.70128 0.0
H217 H 0.40786 0.96835 0.71822 0.0
H218 H 0.32455 0.93323 0.72043 0.0
H219 H 0.3735 0.9996 0.73317 0.0
H220 H 0.41804 0.0835 0.67038 0.0
H221 H 0.37198 0.91108 0.66097 0.0
H222 H 0.54669 0.14995 0.64229 0.0
H223 H 0.48072 0.15721 0.64847 0.0
H224 H 0.48864 0.13667 0.62384 0.0
H225 H 0.41425 0.88426 0.63523 0.0
H226 H 0.49116 0.93866 0.62815 0.0
H227 H 0.42537 0.92551 0.61316 0.0
H228 H 0.88493 0.10473 0.61147 0.0
H229 H 0.99838 0.16213 0.60735 0.0
H230 H 0.99902 0.22251 0.61859 0.0
H231 H 0.95753 0.19379 0.59569 0.0
H232 H 0.79086 0.05797 0.62657 0.0
H233 H 0.8232 0.22726 0.61928 0.0
H234 H 0.62791 0.98922 0.63009 0.0
H235 H 0.69126 0.97739 0.62438 0.0
H236 H 0.64642 0.98592 0.60487 0.0
H237 H 0.74166 0.24636 0.61358 0.0
H238 H 0.66558 0.19232 0.62155 0.0
H239 H 0.6865 0.1955 0.5962 0.0
H240 H 0.68287 0.93723 0.47081 0.0
H241 H 0.61731 0.93199 0.49443 0.0
H242 H 0.70232 0.11017 0.48198 0.0
H243 H 0.54256 0.93041 0.53738 0.0
H244 H 0.53765 0.88564 0.5171 0.0
H245 H 0.4866 0.91475 0.51797 0.0
H246 H 0.66549 0.16728 0.49571 0.0
H247 H 0.64757 0.14911 0.52138 0.0
H248 H 0.5858 0.1303 0.50382 0.0
H249 H 0.20991 0.04253 0.51395 0.0
H250 H 0.09672 0.00257 0.51418 0.0
H251 H 0.12231 0.97 0.53241 0.0
H252 H 0.0847 0.93215 0.51003 0.0
H253 H 0.23338 0.89355 0.5236 0.0
H254 H 0.3076 0.06911 0.50865 0.0
H255 H 0.35193 0.90685 0.55405 0.0
H256 H 0.37744 0.89969 0.53023 0.0
H257 H 0.29615 0.85828 0.5363 0.0
H258 H 0.40934 0.13922 0.51685 0.0
H259 H 0.46075 0.11237 0.51156 0.0
H260 H 0.44707 0.12272 0.53667 0.0
H261 H 0.59066 0.07271 0.63895 0.0
H262 H 0.69289 0.08703 0.57781 0.0
H263 H 0.66045 0.06698 0.54398 0.0
H264 H 0.47068 0.01191 0.5081 0.0
H265 H 0.37151 0.01016 0.56878 0.0
H266 H 0.4015 0.02157 0.60312 0.0
H267 H 0.77028 0.94275 0.49229 0.0
H268 H 0.79549 0.01616 0.49768 0.0
H269 H 0.72109 0.96046 0.50584 0.0
C270 C 0.82727 0.75839 0.81368 0.0
C271 C 0.78593 0.75196 0.79569 0.0
C272 C 0.68276 0.7125 0.81077 0.0
C273 C 0.63732 0.72491 0.81679 0.0
C274 C 0.58541 0.68539 0.82752 0.0
C275 C 0.57905 0.63215 0.83243 0.0
C276 C 0.62356 0.61842 0.8258 0.0
C277 C 0.67471 0.65849 0.81499 0.0
C278 C 0.53833 0.70107 0.83413 0.0
C279 C 0.61792 0.5618 0.83063 0.0
C280 C 0.08795 0.2787 0.83426 0.0
C281 C 0.15119 0.29315 0.82605 0.0
C282 C 0.24397 0.38813 0.82721 0.0
C283 C 0.28943 0.37213 0.82902 0.0
C284 C 0.35035 0.41167 0.83515 0.0
C285 C 0.3655 0.46785 0.83984 0.0
C286 C 0.32034 0.48448 0.83713 0.0
C287 C 0.26039 0.44447 0.83059 0.0
C288 C 0.39801 0.39312 0.83715 0.0
C289 C 0.33483 0.5441 0.84173 0.0
C290 C 0.35527 0.36454 0.9683 0.0
C291 C 0.40845 0.3702 0.95914 0.0
C292 C 0.44515 0.41716 0.94713 0.0
C293 C 0.42887 0.45966 0.9444 0.0
C294 C 0.37635 0.45487 0.95397 0.0
C295 C 0.34015 0.4072 0.96578 0.0
C296 C 0.50136 0.42135 0.93727 0.0
C297 C 0.35831 0.49987 0.95157 0.0
C298 C 0.76701 0.88158 0.95779 0.0
C299 C 0.74974 0.84238 0.97583 0.0
C300 C 0.7009 0.74733 0.96053 0.0
C301 C 0.71014 0.70215 0.95598 0.0
C302 C 0.66522 0.65483 0.9454 0.0
C303 C 0.60954 0.65275 0.93931 0.0
C304 C 0.59973 0.69828 0.94385 0.0
C305 C 0.64551 0.74517 0.95439 0.0
C306 C 0.67707 0.60697 0.94079 0.0
C307 C 0.54049 0.69709 0.93772 0.0
C308 C 0.52876 0.59228 0.84573 0.0
C309 C 0.4732 0.5495 0.83734 0.0
C310 C 0.42642 0.50812 0.84914 0.0
C311 C 0.43623 0.5079 0.86977 0.0
C312 C 0.39216 0.4648 0.88196 0.0
C313 C 0.40284 0.46444 0.90216 0.0
C314 C 0.45648 0.50868 0.91111 0.0
C315 C 0.46753 0.50922 0.93165 0.0
C316 C 0.51822 0.55635 0.94033 0.0
C317 C 0.56022 0.60212 0.92888 0.0
C318 C 0.55323 0.59995 0.90811 0.0
C319 C 0.59768 0.64279 0.896 0.0
C320 C 0.59039 0.63989 0.87555 0.0
C321 C 0.53716 0.59519 0.86648 0.0
C322 C 0.49127 0.5522 0.87847 0.0
C323 C 0.50032 0.55362 0.89924 0.0
C324 C 0.29661 0.23289 0.96327 0.0
C325 C 0.31866 0.26898 0.98215 0.0
O326 O 0.7336 0.75391 0.80133 0.0
O327 O 0.74658 0.7917 0.97082 0.0
O328 O 0.31705 0.31882 0.9795 0.0
O329 O 0.18408 0.35091 0.82208 0.0
H330 H 0.77121 0.71035 0.78856 0.0
H331 H 0.80261 0.72239 0.82405 0.0
H332 H 0.84072 0.79823 0.82183 0.0
H333 H 0.87005 0.75882 0.80891 0.0
H334 H 0.64332 0.7663 0.81336 0.0
H335 H 0.70847 0.64731 0.81024 0.0
H336 H 0.4909 0.66759 0.82958 0.0
H337 H 0.54742 0.74241 0.82795 0.0
H338 H 0.53927 0.70368 0.85049 0.0
H339 H 0.65528 0.55674 0.82387 0.0
H340 H 0.57224 0.52687 0.82534 0.0
H341 H 0.62001 0.55732 0.84688 0.0
H342 H 0.17549 0.28221 0.8377 0.0
H343 H 0.0606 0.2331 0.83834 0.0
H344 H 0.06109 0.2883 0.82319 0.0
H345 H 0.09464 0.3043 0.84773 0.0
H346 H 0.27752 0.32897 0.82566 0.0
H347 H 0.22519 0.45655 0.82876 0.0
H348 H 0.44214 0.4247 0.83013 0.0
H349 H 0.38173 0.35085 0.83037 0.0
H350 H 0.40815 0.39077 0.85303 0.0
H351 H 0.29417 0.54994 0.83918 0.0
H352 H 0.37358 0.57479 0.83237 0.0
H353 H 0.35017 0.55441 0.85738 0.0
H354 H 0.36687 0.27949 0.98599 0.0
H355 H 0.42159 0.33818 0.96117 0.0
H356 H 0.29934 0.40272 0.97301 0.0
H357 H 0.49691 0.42393 0.92101 0.0
H358 H 0.50752 0.38451 0.94072 0.0
H359 H 0.54378 0.46079 0.9421 0.0
H360 H 0.31645 0.49018 0.96018 0.0
H361 H 0.34893 0.50386 0.93574 0.0
H362 H 0.39743 0.54159 0.95643 0.0
H363 H 0.70399 0.83363 0.98147 0.0
H364 H 0.77024 0.92241 0.96192 0.0
H365 H 0.73117 0.86176 0.94597 0.0
H366 H 0.81231 0.89042 0.95177 0.0
H367 H 0.75295 0.70414 0.96077 0.0
H368 H 0.63733 0.77959 0.9578 0.0
H369 H 0.67079 0.59773 0.92471 0.0
H370 H 0.64273 0.56795 0.94859 0.0
H371 H 0.72456 0.61684 0.94531 0.0
H372 H 0.5391 0.73507 0.94288 0.0
H373 H 0.49981 0.65851 0.94373 0.0
H374 H 0.53585 0.69493 0.92138 0.0
H375 H 0.46617 0.54857 0.82148 0.0
H376 H 0.34935 0.43023 0.876 0.0
H377 H 0.3679 0.42963 0.91074 0.0
H378 H 0.52516 0.55734 0.95621 0.0
H379 H 0.63909 0.67853 0.9022 0.0
H380 H 0.62657 0.67368 0.86697 0.0
H381 H 0.24869 0.22273 0.95918 0.0
H382 H 0.32751 0.25565 0.95075 0.0
H383 H 0.29701 0.1926 0.96551 0.0
C384 C 0.02238 0.15902 0.1207 0.0
C385 C 0.98546 0.14692 0.10352 0.0
C386 C 0.01681 0.18959 0.13636 0.0
C387 C 0.97292 0.20793 0.13567 0.0
H388 H 0.05692 0.14599 0.12187 0.0
H389 H 0.04724 0.19905 0.14909 0.0
S390 S 0.86414 0.18577 0.09406 0.0
N391 N 0.90349 0.15537 0.0867 0.0
N392 N 0.89178 0.21138 0.11625 0.0
C393 C 0.93543 0.19563 0.11858 0.0
C394 C 0.94187 0.16538 0.10252 0.0
C395 C 0.81508 0.95753 0.43298 0.0
C396 C 0.86764 0.01185 0.43075 0.0
C397 C 0.76808 0.94795 0.44623 0.0
C398 C 0.7713 0.99235 0.45763 0.0
H399 H 0.81131 0.92144 0.42509 0.0
H400 H 0.72998 0.90496 0.44811 0.0
S401 S 0.89638 0.14346 0.45628 0.0
N402 N 0.91785 0.1116 0.44017 0.0
N403 N 0.82984 0.09324 0.46519 0.0
C404 C 0.82222 0.04736 0.45495 0.0
C405 C 0.87009 0.05721 0.44144 0.0
C406 C 0.88113 0.82739 0.75 0.0
C407 C 0.90202 0.88508 0.75364 0.0
C408 C 0.84281 0.78512 0.76335 0.0
C409 C 0.82276 0.79852 0.78077 0.0
H410 H 0.89568 0.81467 0.73694 0.0
H411 H 0.82954 0.74154 0.76012 0.0
S412 S 0.86126 0.94282 0.79675 0.0
N413 N 0.89818 0.95335 0.7757 0.0
N414 N 0.82488 0.8736 0.80059 0.0
C415 C 0.84194 0.85593 0.78437 0.0
C416 C 0.88179 0.8992 0.77087 0.0
C417 C 0.08994 0.9344 0.11817 0.0
C418 C 0.06566 0.9142 0.09923 0.0
C419 C 0.08727 0.89715 0.13307 0.0
C420 C 0.05902 0.8382 0.1297 0.0
H421 H 0.1116 0.97931 0.12144 0.0
H422 H 0.10669 0.91445 0.14748 0.0
S423 S 0.9825 0.76408 0.08284 0.0
N424 N 0.01015 0.83198 0.07794 0.0
N425 N 0.00179 0.76145 0.10607 0.0
C426 C 0.03273 0.81749 0.11086 0.0
C427 C 0.03709 0.85567 0.09558 0.0
C428 C 0.16854 0.0693 0.45852 0.0
C429 C 0.1385 0.0228 0.44554 0.0
C430 C 0.18562 0.06257 0.47773 0.0
C431 C 0.17416 0.00933 0.48462 0.0
H432 H 0.17484 0.11036 0.45439 0.0
H433 H 0.20491 0.09869 0.48763 0.0
S434 S 0.10612 0.87616 0.45541 0.0
N435 N 0.10524 0.92324 0.44012 0.0
N436 N 0.1371 0.91064 0.47621 0.0
C437 C 0.14877 0.96354 0.47127 0.0
C438 C 0.13126 0.97034 0.45172 0.0
C439 C 0.13559 0.24889 0.7716 0.0
C440 C 0.11756 0.19105 0.77281 0.0
C441 C 0.14681 0.28171 0.78862 0.0
C442 C 0.14231 0.25839 0.80758 0.0
H443 H 0.14001 0.26882 0.75735 0.0
H444 H 0.15885 0.32559 0.78683 0.0
S445 S 0.09784 0.10918 0.81876 0.0
N446 N 0.09551 0.11165 0.79442 0.0
N447 N 0.11876 0.17383 0.82647 0.0
C448 C 0.12482 0.20065 0.80895 0.0
C449 C 0.11201 0.1669 0.79159 0.0
C450 C 0.94207 0.05452 0.65944 0.0
C451 C 0.97004 0.09246 0.67532 0.0
C452 C 0.92177 0.07033 0.64242 0.0
C453 C 0.92777 0.12436 0.64071 0.0
H454 H 0.93774 0.0129 0.65982 0.0
H455 H 0.90242 0.04041 0.63031 0.0
S456 S 0.99281 0.23782 0.67872 0.0
N457 N 0.99927 0.18548 0.68868 0.0
N458 N 0.9606 0.21484 0.65675 0.0
C459 C 0.95351 0.16198 0.65676 0.0
C460 C 0.97465 0.1461 0.67404 0.0
C461 C 0.83366 0.93302 0.02123 0.0
C462 C 0.89099 0.93443 0.02147 0.0
C463 C 0.78813 0.90219 0.00682 0.0
C464 C 0.7981 0.87159 0.99206 0.0
H465 H 0.82401 0.95638 0.03214 0.0
H466 H 0.74507 0.90302 0.00704 0.0
S467 S 0.94146 0.8636 0.98551 0.0
N468 N 0.95567 0.90326 0.00536 0.0
N469 N 0.87066 0.84641 0.97814 0.0
C470 C 0.8554 0.87291 0.99206 0.0
C471 C 0.90151 0.9038 0.00683 0.0
C472 C 0.92998 0.82076 0.35683 0.0
C473 C 0.9768 0.87825 0.35632 0.0
C474 C 0.92348 0.78318 0.34176 0.0
C475 C 0.96417 0.80118 0.32567 0.0
H476 H 0.89765 0.80454 0.36895 0.0
H477 H 0.88626 0.73948 0.34277 0.0
S478 S 0.09539 0.94723 0.31743 0.0
N479 N 0.06468 0.95158 0.33833 0.0
N480 N 0.05335 0.8805 0.31019 0.0
C481 C 0.01136 0.85861 0.32496 0.0
C482 C 0.01744 0.89719 0.34022 0.0
C483 C 0.19919 0.98279 0.70317 0.0
C484 C 0.20755 0.03519 0.70973 0.0
C485 C 0.24996 0.97501 0.70003 0.0
C486 C 0.31131 0.01933 0.70324 0.0
H487 H 0.15296 0.94707 0.7006 0.0
H488 H 0.24109 0.9336 0.69536 0.0
S489 S 0.35926 0.16485 0.72039 0.0
N490 N 0.28268 0.13242 0.71921 0.0
N491 N 0.37782 0.11737 0.71338 0.0
C492 C 0.32056 0.07203 0.70964 0.0
C493 C 0.26886 0.08011 0.71282 0.0
C494 C 0.17811 0.20064 0.01618 0.0
C495 C 0.18762 0.16159 0.02724 0.0
C496 C 0.22108 0.23609 0.00218 0.0
C497 C 0.27628 0.23509 0.99895 0.0
H498 H 0.13586 0.20246 0.01771 0.0
H499 H 0.21006 0.26347 0.99347 0.0
S500 S 0.32515 0.14268 0.02457 0.0
N501 N 0.25753 0.1253 0.0344 0.0
N502 N 0.33879 0.19269 0.00819 0.0
C503 C 0.2873 0.1974 0.01026 0.0
C504 C 0.2431 0.16073 0.02442 0.0
C505 C 0.09277 0.2405 0.36617 0.0
C506 C 0.06751 0.18205 0.36257 0.0
C507 C 0.07935 0.27432 0.35366 0.0
C508 C 0.04014 0.25115 0.33702 0.0
H509 H 0.12045 0.25982 0.37934 0.0
H510 H 0.09691 0.31826 0.3577 0.0
S511 S 0.96805 0.10209 0.31965 0.0
N512 N 0.00638 0.10378 0.33997 0.0
N513 N 0.98054 0.16721 0.31667 0.0
C514 C 0.01797 0.19368 0.33251 0.0
C515 C 0.032 0.15925 0.34518 0.0
loop_
_geom_bond_atom_site_label_1
_geom_bond_atom_site_label_2
_geom_bond_distance
_geom_bond_site_symmetry_2
_ccdc_geom_bond_type
O0 Cd1 2.223 1_455 S
O0 C8 1.315 . S
Cd1 O0 2.223 1_655 S
Cd1 O4 2.297 . S
Cd1 O5 2.439 1_655 S
Cd1 O11 2.240 1_545 S
Cd2 O3 2.240 1_565 S
Cd2 O10 2.223 . S
Cd2 O12 2.297 . S
Cd2 O13 2.439 . S
O3 Cd2 2.240 1_545 S
O3 C8 1.279 . S
O4 Cd1 2.297 . S
O4 C6 1.247 1_655 S
O5 Cd1 2.439 1_455 S
O5 C6 1.208 . S
C6 O4 1.247 1_455 S
C6 O5 1.208 . S
C7 O12 1.247 . S
C7 O13 1.208 . S
C8 O0 1.315 . S
C8 O3 1.279 . S
C9 O10 1.315 1_655 S
C9 O11 1.279 . S
O10 Cd2 2.223 . S
O10 C9 1.315 1_455 S
O11 Cd1 2.240 1_565 S
O11 C9 1.279 . S
O12 Cd2 2.297 . S
O12 C7 1.247 . S
O13 Cd2 2.439 . S
O13 C7 1.208 . S
O14 Cd15 2.223 . S
O14 C22 1.315 1_455 S
Cd15 O14 2.223 . S
Cd15 O18 2.297 . S
Cd15 O19 2.439 . S
Cd15 O25 2.240 . S
Cd16 O17 2.240 1_565 S
Cd16 O24 2.223 1_655 S
Cd16 O26 2.297 1_655 S
Cd16 O27 2.439 1_655 S
O17 Cd16 2.240 1_545 S
O17 C22 1.279 . S
O18 Cd15 2.297 . S
O18 C20 1.247 . S
O19 Cd15 2.439 . S
O19 C20 1.208 . S
C20 O18 1.247 . S
C20 O19 1.208 . S
C21 O26 1.247 . S
C21 O27 1.208 . S
C22 O14 1.315 1_655 S
C22 O17 1.279 . S
C23 O24 1.315 1_545 S
C23 O25 1.279 . S
O24 Cd16 2.223 1_455 S
O24 C23 1.315 1_565 S
O25 Cd15 2.240 . S
O25 C23 1.279 . S
O26 Cd16 2.297 1_455 S
O26 C21 1.247 . S
O27 Cd16 2.439 1_455 S
O27 C21 1.208 . S
O28 Cd29 2.223 . S
O28 C36 1.315 1_565 S
Cd29 O28 2.223 . S
Cd29 O32 2.297 . S
Cd29 O33 2.439 . S
Cd29 O39 2.240 1_665 S
Cd30 O31 2.240 1_455 S
Cd30 O38 2.223 . S
Cd30 O40 2.297 . S
Cd30 O41 2.439 . S
O31 Cd30 2.240 1_655 S
O31 C36 1.279 . S
O32 Cd29 2.297 . S
O32 C34 1.247 . S
O33 Cd29 2.439 . S
O33 C34 1.208 . S
C34 O32 1.247 . S
C34 O33 1.208 . S
C35 O40 1.247 . S
C35 O41 1.208 . S
C36 O28 1.315 1_545 S
C36 O31 1.279 . S
C37 O38 1.315 . S
C37 O39 1.279 . S
O38 Cd30 2.223 . S
O38 C37 1.315 . S
O39 Cd29 2.240 1_445 S
O39 C37 1.279 . S
O40 Cd30 2.297 . S
O40 C35 1.247 . S
O41 Cd30 2.439 . S
O41 C35 1.208 . S
C42 C43 1.560 . S
C42 H103 0.959 . S
C42 H104 0.959 . S
C42 H105 0.960 . S
C43 C42 1.560 . S
C43 O98 1.426 . S
C43 H102 0.980 1_655 S
C44 C45 1.407 1_655 S
C44 C49 1.418 . S
C44 O98 1.334 . S
C45 C44 1.407 1_455 S
C45 C46 1.360 . S
C45 H106 0.929 . S
C46 C45 1.360 . S
C46 C47 1.401 . S
C46 C50 1.527 . S
C47 C46 1.401 . S
C47 C48 1.405 1_455 S
C47 C80 1.587 . S
C48 C47 1.405 1_655 S
C48 C49 1.332 . S
C48 C51 1.496 . S
C49 C44 1.418 . S
C49 C48 1.332 . S
C49 H107 0.929 . S
C50 C46 1.527 . S
C50 H108 0.959 . S
C50 H109 0.961 . S
C50 H110 0.961 . S
C51 C48 1.496 . S
C51 H111 0.960 . S
C51 H112 0.960 . S
C51 H113 0.961 . S
C52 C53 1.517 . S
C52 H115 0.961 . S
C52 H116 0.960 . S
C52 H117 0.959 . S
C53 C52 1.517 . S
C53 O101 1.468 . S
C53 H114 0.980 . S
C54 C55 1.349 . S
C54 C59 1.367 . S
C54 O101 1.408 . S
C55 C54 1.349 . S
C55 C56 1.407 . S
C55 H118 0.930 . S
C56 C55 1.407 . S
C56 C57 1.449 . S
C56 C60 1.535 1_455 S
C57 C56 1.449 . S
C57 C58 1.384 . S
C57 C82 1.553 . S
C58 C57 1.384 . S
C58 C59 1.364 . S
C58 C61 1.450 . S
C59 C54 1.367 . S
C59 C58 1.364 . S
C59 H119 0.931 . S
C60 C56 1.535 1_655 S
C60 H120 0.959 . S
C60 H121 0.961 . S
C60 H122 0.959 . S
C61 C58 1.450 . S
C61 H123 0.960 . S
C61 H124 0.960 . S
C61 H125 0.960 . S
C62 C63 1.309 . S
C62 C67 1.304 . S
C62 O100 1.435 . S
C63 C62 1.309 . S
C63 C64 1.476 . S
C63 H127 0.930 1_455 S
C64 C63 1.476 . S
C64 C65 1.400 . S
C64 C68 1.567 1_455 S
C65 C64 1.400 . S
C65 C66 1.373 . S
C65 C87 1.432 . S
C66 C65 1.373 . S
C66 C67 1.339 . S
C66 C69 1.530 . S
C67 C62 1.304 . S
C67 C66 1.339 . S
C67 H128 0.930 . S
C68 C64 1.567 1_655 S
C68 H129 0.961 . S
C68 H130 0.960 . S
C68 H131 0.958 . S
C69 C66 1.530 . S
C69 H132 0.961 . S
C69 H133 0.960 . S
C69 H134 0.960 . S
C70 C71 1.530 1_655 S
C70 H136 0.961 . S
C70 H137 0.961 . S
C70 H138 0.959 . S
C71 C70 1.530 1_455 S
C71 O99 1.412 1_455 S
C71 H135 0.980 . S
C72 C73 1.288 . S
C72 C77 1.377 1_655 S
C72 O99 1.393 . S
C73 C72 1.288 . S
C73 C74 1.369 . S
C73 H139 0.932 . S
C74 C73 1.369 . S
C74 C75 1.398 1_655 S
C74 C78 1.527 . S
C75 C74 1.398 1_455 S
C75 C76 1.380 . S
C75 C89 1.497 . S
C76 C75 1.380 . S
C76 C77 1.383 . S
C76 C79 1.603 . S
C77 C72 1.377 1_455 S
C77 C76 1.383 . S
C77 H140 0.929 . S
C78 C74 1.527 . S
C78 H141 0.961 . S
C78 H142 0.959 . S
C78 H143 0.959 . S
C79 C76 1.603 . S
C79 H144 0.960 . S
C79 H145 0.962 . S
C79 H146 0.961 . S
C80 C47 1.587 . S
C80 C81 1.360 . S
C80 C93 1.412 . S
C81 C80 1.360 . S
C81 C82 1.365 . S
C81 H147 0.929 . S
C82 C57 1.553 . S
C82 C81 1.365 . S
C82 C83 1.404 . S
C83 C82 1.404 . S
C83 C84 1.395 . S
C83 C94 1.451 . S
C84 C83 1.395 . S
C84 C85 1.322 . S
C84 H148 0.930 . S
C85 C84 1.322 . S
C85 C86 1.459 . S
C85 H149 0.929 . S
C86 C85 1.459 . S
C86 C87 1.445 . S
C86 C95 1.395 . S
C87 C65 1.432 . S
C87 C86 1.445 . S
C87 C88 1.370 . S
C88 C87 1.370 . S
C88 C89 1.438 . S
C88 H150 0.930 . S
C89 C75 1.497 . S
C89 C88 1.438 . S
C89 C90 1.360 . S
C90 C89 1.360 . S
C90 C91 1.401 . S
C90 C95 1.446 . S
C91 C90 1.401 . S
C91 C92 1.347 . S
C91 H151 0.929 . S
C92 C91 1.347 . S
C92 C93 1.455 . S
C92 H152 0.930 . S
C93 C80 1.412 . S
C93 C92 1.455 . S
C93 C94 1.331 . S
C94 C83 1.451 . S
C94 C93 1.331 . S
C94 C95 1.497 . S
C95 C86 1.395 . S
C95 C90 1.446 . S
C95 C94 1.497 . S
C96 C97 1.582 . S
C96 H153 0.962 . S
C96 H154 0.959 . S
C96 H155 0.958 . S
C97 C96 1.582 . S
C97 O100 1.458 . S
C97 H126 0.980 . S
O98 C43 1.426 . S
O98 C44 1.334 . S
O99 C71 1.412 1_655 S
O99 C72 1.393 . S
O100 C62 1.435 . S
O100 C97 1.458 . S
O101 C53 1.468 . S
O101 C54 1.408 . S
H102 C43 0.980 1_455 S
H103 C42 0.959 . S
H104 C42 0.959 . S
H105 C42 0.960 . S
H106 C45 0.929 . S
H107 C49 0.929 . S
H108 C50 0.959 . S
H109 C50 0.961 . S
H110 C50 0.961 . S
H111 C51 0.960 . S
H112 C51 0.960 . S
H113 C51 0.961 . S
H114 C53 0.980 . S
H115 C52 0.961 . S
H116 C52 0.960 . S
H117 C52 0.959 . S
H118 C55 0.930 . S
H119 C59 0.931 . S
H120 C60 0.959 . S
H121 C60 0.961 . S
H122 C60 0.959 . S
H123 C61 0.960 . S
H124 C61 0.960 . S
H125 C61 0.960 . S
H126 C97 0.980 . S
H127 C63 0.930 1_655 S
H128 C67 0.930 . S
H129 C68 0.961 . S
H130 C68 0.960 . S
H131 C68 0.958 . S
H132 C69 0.961 . S
H133 C69 0.960 . S
H134 C69 0.960 . S
H135 C71 0.980 . S
H136 C70 0.961 . S
H137 C70 0.961 . S
H138 C70 0.959 . S
H139 C73 0.932 . S
H140 C77 0.929 . S
H141 C78 0.961 . S
H142 C78 0.959 . S
H143 C78 0.959 . S
H144 C79 0.960 . S
H145 C79 0.962 . S
H146 C79 0.961 . S
H147 C81 0.929 . S
H148 C84 0.930 . S
H149 C85 0.929 . S
H150 C88 0.930 . S
H151 C91 0.929 . S
H152 C92 0.930 . S
H153 C96 0.962 . S
H154 C96 0.959 . S
H155 C96 0.958 . S
C156 C157 1.560 1_565 S
C156 H217 0.959 . S
C156 H218 0.959 . S
C156 H219 0.960 . S
C157 C156 1.560 1_545 S
C157 O212 1.426 1_545 S
C157 H216 0.980 . S
C158 C159 1.407 . S
C158 C163 1.418 1_545 S
C158 O212 1.334 1_545 S
C159 C158 1.407 . S
C159 C160 1.360 . S
C159 H220 0.929 . S
C160 C159 1.360 . S
C160 C161 1.401 . S
C160 C164 1.527 . S
C161 C160 1.401 . S
C161 C162 1.405 1_545 S
C161 C194 1.587 . S
C162 C161 1.405 1_565 S
C162 C163 1.332 . S
C162 C165 1.496 . S
C163 C158 1.418 1_565 S
C163 C162 1.332 . S
C163 H221 0.929 . S
C164 C160 1.527 . S
C164 H222 0.959 . S
C164 H223 0.961 . S
C164 H224 0.961 . S
C165 C162 1.496 . S
C165 H225 0.960 . S
C165 H226 0.960 . S
C165 H227 0.961 . S
C166 C167 1.517 . S
C166 H229 0.961 . S
C166 H230 0.960 . S
C166 H231 0.959 . S
C167 C166 1.517 . S
C167 O215 1.468 . S
C167 H228 0.980 . S
C168 C169 1.349 . S
C168 C173 1.367 . S
C168 O215 1.408 . S
C169 C168 1.349 . S
C169 C170 1.407 . S
C169 H232 0.930 . S
C170 C169 1.407 . S
C170 C171 1.449 . S
C170 C174 1.535 1_545 S
C171 C170 1.449 . S
C171 C172 1.384 . S
C171 C196 1.553 . S
C172 C171 1.384 . S
C172 C173 1.364 . S
C172 C175 1.450 . S
C173 C168 1.367 . S
C173 C172 1.364 . S
C173 H233 0.931 . S
C174 C170 1.535 1_565 S
C174 H234 0.959 . S
C174 H235 0.961 . S
C174 H236 0.959 . S
C175 C172 1.450 . S
C175 H237 0.960 . S
C175 H238 0.960 . S
C175 H239 0.960 . S
C176 C177 1.309 . S
C176 C181 1.304 . S
C176 O214 1.435 . S
C177 C176 1.309 . S
C177 C178 1.476 . S
C177 H241 0.930 . S
C178 C177 1.476 . S
C178 C179 1.400 . S
C178 C182 1.567 1_545 S
C179 C178 1.400 . S
C179 C180 1.373 . S
C179 C201 1.432 . S
C180 C179 1.373 . S
C180 C181 1.339 . S
C180 C183 1.530 . S
C181 C176 1.304 . S
C181 C180 1.339 . S
C181 H242 0.930 . S
C182 C178 1.567 1_565 S
C182 H243 0.961 . S
C182 H244 0.960 . S
C182 H245 0.958 . S
C183 C180 1.530 . S
C183 H246 0.961 . S
C183 H247 0.960 . S
C183 H248 0.960 . S
C184 C185 1.530 1_565 S
C184 H250 0.961 1_565 S
C184 H251 0.961 . S
C184 H252 0.959 . S
C185 C184 1.530 1_545 S
C185 O213 1.412 1_545 S
C185 H249 0.980 . S
C186 C187 1.288 1_545 S
C186 C191 1.377 . S
C186 O213 1.393 1_545 S
C187 C186 1.288 1_565 S
C187 C188 1.369 . S
C187 H253 0.932 . S
C188 C187 1.369 . S
C188 C189 1.398 1_565 S
C188 C192 1.527 . S
C189 C188 1.398 1_545 S
C189 C190 1.380 . S
C189 C203 1.497 . S
C190 C189 1.380 . S
C190 C191 1.383 . S
C190 C193 1.603 . S
C191 C186 1.377 . S
C191 C190 1.383 . S
C191 H254 0.929 . S
C192 C188 1.527 . S
C192 H255 0.961 . S
C192 H256 0.959 . S
C192 H257 0.959 . S
C193 C190 1.603 . S
C193 H258 0.960 . S
C193 H259 0.962 . S
C193 H260 0.961 . S
C194 C161 1.587 . S
C194 C195 1.360 . S
C194 C207 1.412 . S
C195 C194 1.360 . S
C195 C196 1.365 . S
C195 H261 0.929 . S
C196 C171 1.553 . S
C196 C195 1.365 . S
C196 C197 1.404 . S
C197 C196 1.404 . S
C197 C198 1.395 . S
C197 C208 1.451 . S
C198 C197 1.395 . S
C198 C199 1.322 . S
C198 H262 0.930 . S
C199 C198 1.322 . S
C199 C200 1.459 . S
C199 H263 0.929 . S
C200 C199 1.459 . S
C200 C201 1.445 . S
C200 C209 1.395 . S
C201 C179 1.432 . S
C201 C200 1.445 . S
C201 C202 1.370 . S
C202 C201 1.370 . S
C202 C203 1.438 . S
C202 H264 0.930 . S
C203 C189 1.497 . S
C203 C202 1.438 . S
C203 C204 1.360 . S
C204 C203 1.360 . S
C204 C205 1.401 . S
C204 C209 1.446 . S
C205 C204 1.401 . S
C205 C206 1.347 . S
C205 H265 0.929 . S
C206 C205 1.347 . S
C206 C207 1.455 . S
C206 H266 0.930 . S
C207 C194 1.412 . S
C207 C206 1.455 . S
C207 C208 1.331 . S
C208 C197 1.451 . S
C208 C207 1.331 . S
C208 C209 1.497 . S
C209 C200 1.395 . S
C209 C204 1.446 . S
C209 C208 1.497 . S
C210 C211 1.582 . S
C210 H267 0.962 . S
C210 H268 0.959 . S
C210 H269 0.958 . S
C211 C210 1.582 . S
C211 O214 1.458 . S
C211 H240 0.980 . S
O212 C157 1.426 1_565 S
O212 C158 1.334 1_565 S
O213 C185 1.412 1_565 S
O213 C186 1.393 1_565 S
O214 C176 1.435 . S
O214 C211 1.458 . S
O215 C167 1.468 . S
O215 C168 1.408 . S
H216 C157 0.980 . S
H217 C156 0.959 . S
H218 C156 0.959 . S
H219 C156 0.960 . S
H220 C159 0.929 . S
H221 C163 0.929 . S
H222 C164 0.959 . S
H223 C164 0.961 . S
H224 C164 0.961 . S
H225 C165 0.960 . S
H226 C165 0.960 . S
H227 C165 0.961 . S
H228 C167 0.980 . S
H229 C166 0.961 . S
H230 C166 0.960 . S
H231 C166 0.959 . S
H232 C169 0.930 . S
H233 C173 0.931 . S
H234 C174 0.959 . S
H235 C174 0.961 . S
H236 C174 0.959 . S
H237 C175 0.960 . S
H238 C175 0.960 . S
H239 C175 0.960 . S
H240 C211 0.980 . S
H241 C177 0.930 . S
H242 C181 0.930 . S
H243 C182 0.961 . S
H244 C182 0.960 . S
H245 C182 0.958 . S
H246 C183 0.961 . S
H247 C183 0.960 . S
H248 C183 0.960 . S
H249 C185 0.980 . S
H250 C184 0.961 1_545 S
H251 C184 0.961 . S
H252 C184 0.959 . S
H253 C187 0.932 . S
H254 C191 0.929 . S
H255 C192 0.961 . S
H256 C192 0.959 . S
H257 C192 0.959 . S
H258 C193 0.960 . S
H259 C193 0.962 . S
H260 C193 0.961 . S
H261 C195 0.929 . S
H262 C198 0.930 . S
H263 C199 0.929 . S
H264 C202 0.930 . S
H265 C205 0.929 . S
H266 C206 0.930 . S
H267 C210 0.962 . S
H268 C210 0.959 . S
H269 C210 0.958 . S
C270 C271 1.560 . S
C270 H331 0.959 . S
C270 H332 0.959 . S
C270 H333 0.960 . S
C271 C270 1.560 . S
C271 O326 1.426 . S
C271 H330 0.980 . S
C272 C273 1.407 . S
C272 C277 1.418 . S
C272 O326 1.334 . S
C273 C272 1.407 . S
C273 C274 1.360 . S
C273 H334 0.929 . S
C274 C273 1.360 . S
C274 C275 1.401 . S
C274 C278 1.527 . S
C275 C274 1.401 . S
C275 C276 1.405 . S
C275 C308 1.587 . S
C276 C275 1.405 . S
C276 C277 1.332 . S
C276 C279 1.496 . S
C277 C272 1.418 . S
C277 C276 1.332 . S
C277 H335 0.929 . S
C278 C274 1.527 . S
C278 H336 0.959 . S
C278 H337 0.961 . S
C278 H338 0.961 . S
C279 C276 1.496 . S
C279 H339 0.960 . S
C279 H340 0.960 . S
C279 H341 0.961 . S
C280 C281 1.517 . S
C280 H343 0.961 . S
C280 H344 0.960 . S
C280 H345 0.959 . S
C281 C280 1.517 . S
C281 O329 1.468 . S
C281 H342 0.980 . S
C282 C283 1.349 . S
C282 C287 1.367 . S
C282 O329 1.408 . S
C283 C282 1.349 . S
C283 C284 1.407 . S
C283 H346 0.930 . S
C284 C283 1.407 . S
C284 C285 1.449 . S
C284 C288 1.535 . S
C285 C284 1.449 . S
C285 C286 1.384 . S
C285 C310 1.553 . S
C286 C285 1.384 . S
C286 C287 1.364 . S
C286 C289 1.450 . S
C287 C282 1.367 . S
C287 C286 1.364 . S
C287 H347 0.931 . S
C288 C284 1.535 . S
C288 H348 0.959 . S
C288 H349 0.961 . S
C288 H350 0.959 . S
C289 C286 1.450 . S
C289 H351 0.960 . S
C289 H352 0.960 . S
C289 H353 0.960 . S
C290 C291 1.309 . S
C290 C295 1.304 . S
C290 O328 1.435 . S
C291 C290 1.309 . S
C291 C292 1.476 . S
C291 H355 0.930 . S
C292 C291 1.476 . S
C292 C293 1.400 . S
C292 C296 1.567 . S
C293 C292 1.400 . S
C293 C294 1.373 . S
C293 C315 1.432 . S
C294 C293 1.373 . S
C294 C295 1.339 . S
C294 C297 1.530 . S
C295 C290 1.304 . S
C295 C294 1.339 . S
C295 H356 0.930 . S
C296 C292 1.567 . S
C296 H357 0.961 . S
C296 H358 0.960 . S
C296 H359 0.958 . S
C297 C294 1.530 . S
C297 H360 0.961 . S
C297 H361 0.960 . S
C297 H362 0.960 . S
C298 C299 1.530 . S
C298 H364 0.961 . S
C298 H365 0.961 . S
C298 H366 0.959 1_556 S
C299 C298 1.530 . S
C299 O327 1.412 . S
C299 H363 0.980 . S
C300 C301 1.288 . S
C300 C305 1.377 . S
C300 O327 1.393 . S
C301 C300 1.288 . S
C301 C302 1.369 . S
C301 H367 0.932 . S
C302 C301 1.369 . S
C302 C303 1.398 . S
C302 C306 1.527 . S
C303 C302 1.398 . S
C303 C304 1.380 . S
C303 C317 1.497 . S
C304 C303 1.380 . S
C304 C305 1.383 . S
C304 C307 1.603 . S
C305 C300 1.377 . S
C305 C304 1.383 . S
C305 H368 0.929 . S
C306 C302 1.527 . S
C306 H369 0.961 . S
C306 H370 0.959 . S
C306 H371 0.959 . S
C307 C304 1.603 . S
C307 H372 0.960 . S
C307 H373 0.962 . S
C307 H374 0.961 . S
C308 C275 1.587 . S
C308 C309 1.360 . S
C308 C321 1.412 . S
C309 C308 1.360 . S
C309 C310 1.365 . S
C309 H375 0.929 . S
C310 C285 1.553 . S
C310 C309 1.365 . S
C310 C311 1.404 . S
C311 C310 1.404 . S
C311 C312 1.395 . S
C311 C322 1.451 . S
C312 C311 1.395 . S
C312 C313 1.322 . S
C312 H376 0.930 . S
C313 C312 1.322 . S
C313 C314 1.459 . S
C313 H377 0.929 . S
C314 C313 1.459 . S
C314 C315 1.445 . S
C314 C323 1.395 . S
C315 C293 1.432 . S
C315 C314 1.445 . S
C315 C316 1.370 . S
C316 C315 1.370 . S
C316 C317 1.438 . S
C316 H378 0.930 . S
C317 C303 1.497 . S
C317 C316 1.438 . S
C317 C318 1.360 . S
C318 C317 1.360 . S
C318 C319 1.401 . S
C318 C323 1.446 . S
C319 C318 1.401 . S
C319 C320 1.347 . S
C319 H379 0.929 . S
C320 C319 1.347 . S
C320 C321 1.455 . S
C320 H380 0.930 . S
C321 C308 1.412 . S
C321 C320 1.455 . S
C321 C322 1.331 . S
C322 C311 1.451 . S
C322 C321 1.331 . S
C322 C323 1.497 . S
C323 C314 1.395 . S
C323 C318 1.446 . S
C323 C322 1.497 . S
C324 C325 1.582 . S
C324 H381 0.962 1_556 S
C324 H382 0.959 . S
C324 H383 0.958 . S
C325 C324 1.582 . S
C325 O328 1.458 . S
C325 H354 0.980 . S
O326 C271 1.426 . S
O326 C272 1.334 . S
O327 C299 1.412 . S
O327 C300 1.393 . S
O328 C290 1.435 . S
O328 C325 1.458 . S
O329 C281 1.468 . S
O329 C282 1.408 . S
H330 C271 0.980 . S
H331 C270 0.959 . S
H332 C270 0.959 . S
H333 C270 0.960 . S
H334 C273 0.929 . S
H335 C277 0.929 . S
H336 C278 0.959 . S
H337 C278 0.961 . S
H338 C278 0.961 . S
H339 C279 0.960 . S
H340 C279 0.960 . S
H341 C279 0.961 . S
H342 C281 0.980 . S
H343 C280 0.961 . S
H344 C280 0.960 . S
H345 C280 0.959 . S
H346 C283 0.930 . S
H347 C287 0.931 . S
H348 C288 0.959 . S
H349 C288 0.961 . S
H350 C288 0.959 . S
H351 C289 0.960 . S
H352 C289 0.960 . S
H353 C289 0.960 . S
H354 C325 0.980 . S
H355 C291 0.930 . S
H356 C295 0.930 . S
H357 C296 0.961 . S
H358 C296 0.960 . S
H359 C296 0.958 . S
H360 C297 0.961 . S
H361 C297 0.960 . S
H362 C297 0.960 . S
H363 C299 0.980 . S
H364 C298 0.961 . S
H365 C298 0.961 . S
H366 C298 0.959 1_554 S
H367 C301 0.932 . S
H368 C305 0.929 . S
H369 C306 0.961 . S
H370 C306 0.959 . S
H371 C306 0.959 . S
H372 C307 0.960 . S
H373 C307 0.962 . S
H374 C307 0.961 . S
H375 C309 0.929 . S
H376 C312 0.930 . S
H377 C313 0.929 . S
H378 C316 0.930 . S
H379 C319 0.929 . S
H380 C320 0.930 . S
H381 C324 0.962 1_554 S
H382 C324 0.959 . S
H383 C324 0.958 . S
C384 C385 1.369 . S
C384 C386 1.419 . S
C384 H388 0.930 . S
C385 C384 1.369 . S
C385 C394 1.429 1_455 S
C386 C384 1.419 . S
C386 C387 1.363 . S
C386 H389 0.929 . S
C387 C386 1.363 . S
C387 C393 1.428 1_455 S
H388 C384 0.930 . S
H389 C386 0.929 . S
S390 N391 1.613 . S
S390 N392 1.610 . S
N391 S390 1.613 . S
N391 C394 1.350 . S
N392 S390 1.610 . S
N392 C393 1.351 . S
C393 C387 1.428 1_655 S
C393 N392 1.351 . S
C393 C394 1.434 . S
C394 C385 1.429 1_655 S
C394 N391 1.350 . S
C394 C393 1.434 . S
C395 C396 1.369 1_565 S
C395 C397 1.419 . S
C395 H399 0.930 . S
C396 C395 1.369 1_545 S
C396 C405 1.429 . S
C397 C395 1.419 . S
C397 C398 1.363 1_565 S
C397 H400 0.929 . S
C398 C397 1.363 1_545 S
C398 C404 1.428 . S
H399 C395 0.930 . S
H400 C397 0.929 . S
S401 N402 1.613 . S
S401 N403 1.610 . S
N402 S401 1.613 . S
N402 C405 1.350 . S
N403 S401 1.610 . S
N403 C404 1.351 . S
C404 C398 1.428 . S
C404 N403 1.351 . S
C404 C405 1.434 . S
C405 C396 1.429 . S
C405 N402 1.350 . S
C405 C404 1.434 . S
C406 C407 1.369 . S
C406 C408 1.419 . S
C406 H410 0.930 . S
C407 C406 1.369 . S
C407 C416 1.429 . S
C408 C406 1.419 . S
C408 C409 1.363 . S
C408 H411 0.929 . S
C409 C408 1.363 . S
C409 C415 1.428 . S
H410 C406 0.930 . S
H411 C408 0.929 . S
S412 N413 1.613 . S
S412 N414 1.610 . S
N413 S412 1.613 . S
N413 C416 1.350 . S
N414 S412 1.610 . S
N414 C415 1.351 . S
C415 C409 1.428 . S
C415 N414 1.351 . S
C415 C416 1.434 . S
C416 C407 1.429 . S
C416 N413 1.350 . S
C416 C415 1.434 . S
C417 C418 1.369 1_655 S
C417 C419 1.409 1_655 S
C417 H421 0.930 . S
C418 C417 1.369 1_455 S
C418 C427 1.429 . S
C419 C417 1.409 1_455 S
C419 C420 1.379 . S
C419 H422 0.923 1_455 S
C420 C419 1.379 . S
C420 C426 1.428 . S
H421 C417 0.930 . S
H422 C419 0.923 1_655 S
S423 N424 1.613 . S
S423 N425 1.610 . S
N424 S423 1.613 . S
N424 C427 1.350 . S
N425 S423 1.610 . S
N425 C426 1.351 . S
C426 C420 1.428 . S
C426 N425 1.351 . S
C426 C427 1.434 . S
C427 C418 1.429 . S
C427 N424 1.350 . S
C427 C426 1.434 . S
C428 C429 1.369 . S
C428 C430 1.419 . S
C428 H432 0.930 . S
C429 C428 1.369 . S
C429 C438 1.429 . S
C430 C428 1.419 . S
C430 C431 1.363 . S
C430 H433 0.929 . S
C431 C430 1.363 . S
C431 C437 1.428 . S
H432 C428 0.930 . S
H433 C430 0.929 . S
S434 N435 1.613 . S
S434 N436 1.610 . S
N435 S434 1.613 . S
N435 C438 1.350 1_565 S
N436 S434 1.610 . S
N436 C437 1.351 1_565 S
C437 C431 1.428 . S
C437 N436 1.351 1_545 S
C437 C438 1.434 . S
C438 C429 1.429 . S
C438 N435 1.350 1_545 S
C438 C437 1.434 . S
C439 C440 1.369 . S
C439 C441 1.419 . S
C439 H443 0.930 . S
C440 C439 1.369 . S
C440 C449 1.429 . S
C441 C439 1.419 . S
C441 C442 1.363 . S
C441 H444 0.929 . S
C442 C441 1.363 . S
C442 C448 1.428 . S
H443 C439 0.930 . S
H444 C441 0.929 . S
S445 N446 1.613 . S
S445 N447 1.610 . S
N446 S445 1.613 . S
N446 C449 1.350 . S
N447 S445 1.610 . S
N447 C448 1.351 . S
C448 C442 1.428 . S
C448 N447 1.351 . S
C448 C449 1.434 . S
C449 C440 1.429 . S
C449 N446 1.350 . S
C449 C448 1.434 . S
C450 C451 1.369 . S
C450 C452 1.419 . S
C450 H454 0.930 1_545 S
C451 C450 1.369 . S
C451 C460 1.429 . S
C452 C450 1.419 . S
C452 C453 1.363 . S
C452 H455 0.933 . S
C453 C452 1.363 . S
C453 C459 1.428 . S
H454 C450 0.930 1_565 S
H455 C452 0.933 . S
S456 N457 1.613 . S
S456 N458 1.610 . S
N457 S456 1.613 . S
N457 C460 1.350 . S
N458 S456 1.610 . S
N458 C459 1.351 . S
C459 C453 1.428 . S
C459 N458 1.351 . S
C459 C460 1.434 . S
C460 C451 1.429 . S
C460 N457 1.350 . S
C460 C459 1.434 . S
C461 C462 1.369 . S
C461 C463 1.419 1_554 S
C461 H465 0.930 . S
C462 C461 1.369 . S
C462 C471 1.429 . S
C463 C461 1.419 1_556 S
C463 C464 1.363 1_556 S
C463 H466 0.929 . S
C464 C463 1.363 1_554 S
C464 C470 1.428 . S
H465 C461 0.930 . S
H466 C463 0.929 . S
S467 N468 1.613 . S
S467 N469 1.610 . S
N468 S467 1.613 . S
N468 C471 1.350 . S
N469 S467 1.610 . S
N469 C470 1.351 . S
C470 C464 1.428 . S
C470 N469 1.351 . S
C470 C471 1.434 . S
C471 C462 1.429 . S
C471 N468 1.350 . S
C471 C470 1.434 . S
C472 C473 1.369 . S
C472 C474 1.419 . S
C472 H476 0.930 . S
C473 C472 1.369 . S
C473 C482 1.429 . S
C474 C472 1.419 . S
C474 C475 1.363 . S
C474 H477 0.929 . S
C475 C474 1.363 . S
C475 C481 1.428 . S
H476 C472 0.930 . S
H477 C474 0.929 . S
S478 N479 1.613 1_655 S
S478 N480 1.610 . S
N479 S478 1.613 1_455 S
N479 C482 1.350 . S
N480 S478 1.610 . S
N480 C481 1.351 1_655 S
C481 C475 1.428 . S
C481 N480 1.351 1_455 S
C481 C482 1.434 . S
C482 C473 1.429 . S
C482 N479 1.350 . S
C482 C481 1.434 . S
C483 C484 1.369 . S
C483 C485 1.419 . S
C483 H487 0.930 . S
C484 C483 1.369 . S
C484 C493 1.429 . S
C485 C483 1.419 . S
C485 C486 1.363 . S
C485 H488 0.929 . S
C486 C485 1.363 . S
C486 C492 1.428 . S
H487 C483 0.930 . S
H488 C485 0.929 . S
S489 N490 1.613 . S
S489 N491 1.610 . S
N490 S489 1.613 . S
N490 C493 1.350 . S
N491 S489 1.610 . S
N491 C492 1.351 . S
C492 C486 1.428 . S
C492 N491 1.351 . S
C492 C493 1.434 . S
C493 C484 1.429 . S
C493 N490 1.350 . S
C493 C492 1.434 . S
C494 C495 1.369 . S
C494 C496 1.419 . S
C494 H498 0.930 . S
C495 C494 1.369 . S
C495 C504 1.429 . S
C496 C494 1.419 . S
C496 C497 1.363 1_554 S
C496 H499 0.929 . S
C497 C496 1.363 1_556 S
C497 C503 1.428 . S
H498 C494 0.930 . S
H499 C496 0.929 . S
S500 N501 1.615 1_556 S
S500 N502 1.610 . S
N501 S500 1.615 1_554 S
N501 C504 1.349 . S
N502 S500 1.610 . S
N502 C503 1.351 . S
C503 C497 1.428 . S
C503 N502 1.351 . S
C503 C504 1.434 1_556 S
C504 C495 1.429 . S
C504 N501 1.349 . S
C504 C503 1.434 1_554 S
C505 C506 1.369 . S
C505 C507 1.419 . S
C505 H509 0.930 . S
C506 C505 1.369 . S
C506 C515 1.429 1_455 S
C507 C505 1.419 . S
C507 C508 1.363 . S
C507 H510 0.929 . S
C508 C507 1.363 . S
C508 C514 1.428 1_455 S
H509 C505 0.930 . S
H510 C507 0.929 . S
S511 N512 1.613 . S
S511 N513 1.610 . S
N512 S511 1.613 . S
N512 C515 1.350 . S
N513 S511 1.610 . S
N513 C514 1.351 . S
C514 C508 1.428 1_655 S
C514 N513 1.351 . S
C514 C515 1.434 . S
C515 C506 1.429 1_655 S
C515 N512 1.350 . S
C515 C514 1.434 . S
C387 C97 1.150 . S
C385 C6 1.553 . S
C396 C22 1.641 . S
C398 C211 1.213 . S
C407 C34 1.153 . S
C409 C271 0.948 . S
C418 C7 1.423 . S
C420 C71 1.135 . S
C431 C185 1.190 . S
C429 C23 1.536 . S
C440 C35 1.321 . S
C442 C281 0.825 . S
C453 C167 0.999 . S
C451 C36 1.613 . S
C462 C9 1.746 . S
C464 C299 1.362 1_554 S
C475 C43 1.123 1_455 S
C473 C21 1.340 . S
C486 C157 1.166 . S
C484 C37 1.448 . S
C497 C325 1.361 . S
C495 C8 1.847 . S
C506 C20 1.484 . S
C508 C53 0.926 . S
