# Generated by pormake.
# Topology wbl, (4,4)-cn, num edge types: 1
# Building blocks:
#     Node 0, Type 0, BuildingBlock: MUDLON_clean_linker_0, # of connection points: 4
#     Node 1, Type 0, BuildingBlock: MUDLON_clean_linker_0, # of connection points: 4
#     Node 2, Type 0, BuildingBlock: MUDLON_clean_linker_0, # of connection points: 4
#     Node 3, Type 0, BuildingBlock: MUDLON_clean_linker_0, # of connection points: 4
#     Node 4, Type 0, BuildingBlock: MUDLON_clean_linker_0, # of connection points: 4
#     Node 5, Type 0, BuildingBlock: MUDLON_clean_linker_0, # of connection points: 4
#     Node 6, Type 0, BuildingBlock: MUDLON_clean_linker_0, # of connection points: 4
#     Node 7, Type 0, BuildingBlock: MUDLON_clean_linker_0, # of connection points: 4
#     Node 8, Type 1, BuildingBlock: TATPOV_clean_sbu_0, # of connection points: 4
#     Node 9, Type 1, BuildingBlock: TATPOV_clean_sbu_0, # of connection points: 4
#     Node 10, Type 1, BuildingBlock: TATPOV_clean_sbu_0, # of connection points: 4
#     Node 11, Type 1, BuildingBlock: TATPOV_clean_sbu_0, # of connection points: 4
#     Node 12, Type 1, BuildingBlock: TATPOV_clean_sbu_0, # of connection points: 4
#     Node 13, Type 1, BuildingBlock: TATPOV_clean_sbu_0, # of connection points: 4
#     Node 14, Type 1, BuildingBlock: TATPOV_clean_sbu_0, # of connection points: 4
#     Node 15, Type 1, BuildingBlock: TATPOV_clean_sbu_0, # of connection points: 4
#     Edge 16, Type (0, 1), BuildingBlock: EZIPEK_clean_linker_0, # of connection points: 2
#     Edge 17, Type (0, 1), BuildingBlock: EZIPEK_clean_linker_0, # of connection points: 2
#     Edge 18, Type (0, 1), BuildingBlock: EZIPEK_clean_linker_0, # of connection points: 2
#     Edge 19, Type (0, 1), BuildingBlock: EZIPEK_clean_linker_0, # of connection points: 2
#     Edge 20, Type (0, 1), BuildingBlock: EZIPEK_clean_linker_0, # of connection points: 2
#     Edge 21, Type (0, 1), BuildingBlock: EZIPEK_clean_linker_0, # of connection points: 2
#     Edge 22, Type (0, 1), BuildingBlock: EZIPEK_clean_linker_0, # of connection points: 2
#     Edge 23, Type (0, 1), BuildingBlock: EZIPEK_clean_linker_0, # of connection points: 2
#     Edge 24, Type (0, 1), BuildingBlock: EZIPEK_clean_linker_0, # of connection points: 2
#     Edge 25, Type (0, 1), BuildingBlock: EZIPEK_clean_linker_0, # of connection points: 2
#     Edge 26, Type (0, 1), BuildingBlock: EZIPEK_clean_linker_0, # of connection points: 2
#     Edge 27, Type (0, 1), BuildingBlock: EZIPEK_clean_linker_0, # of connection points: 2
#     Edge 28, Type (0, 1), BuildingBlock: EZIPEK_clean_linker_0, # of connection points: 2
#     Edge 29, Type (0, 1), BuildingBlock: EZIPEK_clean_linker_0, # of connection points: 2
#     Edge 30, Type (0, 1), BuildingBlock: EZIPEK_clean_linker_0, # of connection points: 2
#     Edge 31, Type (0, 1), BuildingBlock: EZIPEK_clean_linker_0, # of connection points: 2
#     Edge 32, Type (0, 1), BuildingBlock: EZIPEK_clean_linker_0, # of connection points: 2
#     Edge 33, Type (0, 1), BuildingBlock: EZIPEK_clean_linker_0, # of connection points: 2
#     Edge 34, Type (0, 1), BuildingBlock: EZIPEK_clean_linker_0, # of connection points: 2
#     Edge 35, Type (0, 1), BuildingBlock: EZIPEK_clean_linker_0, # of connection points: 2
#     Edge 36, Type (0, 1), BuildingBlock: EZIPEK_clean_linker_0, # of connection points: 2
#     Edge 37, Type (0, 1), BuildingBlock: EZIPEK_clean_linker_0, # of connection points: 2
#     Edge 38, Type (0, 1), BuildingBlock: EZIPEK_clean_linker_0, # of connection points: 2
#     Edge 39, Type (0, 1), BuildingBlock: EZIPEK_clean_linker_0, # of connection points: 2
#     Edge 40, Type (0, 1), BuildingBlock: EZIPEK_clean_linker_0, # of connection points: 2
#     Edge 41, Type (0, 1), BuildingBlock: EZIPEK_clean_linker_0, # of connection points: 2
#     Edge 42, Type (0, 1), BuildingBlock: EZIPEK_clean_linker_0, # of connection points: 2
#     Edge 43, Type (0, 1), BuildingBlock: EZIPEK_clean_linker_0, # of connection points: 2
#     Edge 44, Type (0, 1), BuildingBlock: EZIPEK_clean_linker_0, # of connection points: 2
#     Edge 45, Type (0, 1), BuildingBlock: EZIPEK_clean_linker_0, # of connection points: 2
#     Edge 46, Type (0, 1), BuildingBlock: EZIPEK_clean_linker_0, # of connection points: 2
#     Edge 47, Type (0, 1), BuildingBlock: EZIPEK_clean_linker_0, # of connection points: 2
# Relax obj value: 0.124
# Max RMSD: 0.129
# Mean RMSD: 0.121
data_MOF--net-wbl--node1-TATPOV_clean_sbu_0--node2-MUDLON_clean_linker_0--edge1-EZIPEK_clean_linker_0
_symmetry_space_group_name_H-M    P1
_symmetry_Int_Tables_number       1
_symmetry_cell_setting            triclinic
loop_
_symmetry_equiv_pos_as_xyz
'x, y, z'
_cell_length_a     43.016274
_cell_length_b     43.026068
_cell_length_c     59.99256
_cell_angle_alpha  91.583265
_cell_angle_beta   91.584759
_cell_angle_gamma 89.991647
loop_
_atom_site_label
_atom_site_type_symbol
_atom_site_fract_x
_atom_site_fract_y
_atom_site_fract_z
_atom_type_partial_charge
H0 H 0.19734 0.99824 0.36312 0.0
N1 N 0.14463 0.00522 0.33982 0.0
H2 H 0.20643 0.96512 0.39533 0.0
H3 H 0.09964 0.97549 0.36318 0.0
H4 H 0.10861 0.94339 0.3957 0.0
H5 H 0.12166 0.9485 0.3259 0.0
H6 H 0.151 0.91062 0.30365 0.0
H7 H 0.18806 0.01958 0.31131 0.0
H8 H 0.21685 0.98197 0.28841 0.0
H9 H 0.14969 0.066 0.34592 0.0
H10 H 0.08376 0.99382 0.32772 0.0
H11 H 0.10813 0.10453 0.34561 0.0
H12 H 0.04136 0.03164 0.32909 0.0
H13 H 0.96292 0.21173 0.37497 0.0
H14 H 0.93444 0.21526 0.40993 0.0
H15 H 0.92437 0.11552 0.40874 0.0
H16 H 0.95307 0.11194 0.3739 0.0
H17 H 0.92253 0.12332 0.3403 0.0
H18 H 0.87815 0.13554 0.31568 0.0
H19 H 0.92423 0.21907 0.29614 0.0
H20 H 0.96857 0.20727 0.32137 0.0
H21 H 0.02677 0.15819 0.37212 0.0
H22 H 0.068 0.12008 0.36806 0.0
H23 H 0.01552 0.07445 0.31402 0.0
N24 N 0.97279 0.16108 0.34986 0.0
H25 H 0.9736 0.1113 0.31907 0.0
C26 C 0.1479 0.98974 0.36079 0.0
C27 C 0.17778 0.98684 0.37043 0.0
C28 C 0.18296 0.9679 0.38868 0.0
C29 C 0.15819 0.95173 0.39774 0.0
C30 C 0.12798 0.95569 0.38886 0.0
C31 C 0.12288 0.97425 0.37034 0.0
C32 C 0.15324 0.98669 0.32063 0.0
C33 C 0.14156 0.95637 0.31696 0.0
C34 C 0.15825 0.93475 0.30421 0.0
C35 C 0.18626 0.9435 0.29469 0.0
C36 C 0.19525 0.97487 0.29564 0.0
C37 C 0.17886 0.9963 0.30866 0.0
C38 C 0.1197 0.02717 0.33731 0.0
C39 C 0.12609 0.05857 0.34191 0.0
C40 C 0.10218 0.08043 0.34199 0.0
C41 C 0.0711 0.07121 0.33792 0.0
C42 C 0.06492 0.03973 0.33229 0.0
C43 C 0.0891 0.01794 0.33172 0.0
C44 C 0.96006 0.16172 0.37187 0.0
C45 C 0.95515 0.19063 0.38253 0.0
C46 C 0.93893 0.19262 0.40233 0.0
C47 C 0.92733 0.16565 0.4117 0.0
C48 C 0.93325 0.13652 0.40165 0.0
C49 C 0.94957 0.13452 0.38184 0.0
C50 C 0.94889 0.16461 0.33275 0.0
C51 C 0.92333 0.14413 0.33064 0.0
C52 C 0.89802 0.15103 0.31661 0.0
C53 C 0.89799 0.17827 0.30435 0.0
C54 C 0.92398 0.19797 0.30558 0.0
C55 C 0.94922 0.19119 0.31979 0.0
C56 C 0.99669 0.13785 0.34626 0.0
C57 C 0.02404 0.13984 0.35949 0.0
C58 C 0.04783 0.11815 0.35692 0.0
C59 C 0.04537 0.09417 0.34054 0.0
C60 C 0.01812 0.09226 0.32704 0.0
C61 C 0.99397 0.1137 0.32991 0.0
H62 H 0.97872 0.39246 0.6216 0.0
N63 N 0.96069 0.42525 0.58674 0.0
H64 H 0.94988 0.38537 0.65592 0.0
H65 H 0.91135 0.46053 0.60041 0.0
H66 H 0.88311 0.45403 0.63485 0.0
H67 H 0.95491 0.36529 0.57666 0.0
H68 H 0.91233 0.34018 0.55492 0.0
H69 H 0.91895 0.45536 0.55975 0.0
H70 H 0.87619 0.43018 0.5378 0.0
H71 H 0.01328 0.41574 0.56578 0.0
H72 H 0.95565 0.48889 0.59259 0.0
H73 H 0.05247 0.45404 0.5566 0.0
H74 H 0.9953 0.52704 0.58478 0.0
H75 H 0.18367 0.58317 0.58877 0.0
H76 H 0.19858 0.6077 0.62497 0.0
H77 H 0.10242 0.62955 0.6365 0.0
H78 H 0.08755 0.6054 0.60024 0.0
H79 H 0.09562 0.63704 0.5665 0.0
H80 H 0.11262 0.68247 0.54648 0.0
H81 H 0.18652 0.62849 0.51767 0.0
H82 H 0.16918 0.58263 0.53748 0.0
H83 H 0.13189 0.52164 0.57506 0.0
H84 H 0.08991 0.48389 0.57643 0.0
H85 H 0.02361 0.55526 0.5587 0.0
N86 N 0.12757 0.58198 0.56924 0.0
H87 H 0.06573 0.59309 0.5583 0.0
C88 C 0.94755 0.42722 0.60858 0.0
C89 C 0.95845 0.40668 0.62474 0.0
C90 C 0.94196 0.40253 0.64418 0.0
C91 C 0.91441 0.41912 0.64776 0.0
C92 C 0.90445 0.44118 0.63234 0.0
C93 C 0.92074 0.44503 0.61277 0.0
C94 C 0.93997 0.41201 0.56983 0.0
C95 C 0.93835 0.37956 0.56766 0.0
C96 C 0.91406 0.36532 0.55541 0.0
C97 C 0.89104 0.3834 0.54508 0.0
C98 C 0.89377 0.41595 0.5458 0.0
C99 C 0.91811 0.43025 0.55822 0.0
C100 C 0.98184 0.44916 0.58026 0.0
C101 C 0.00912 0.44009 0.56969 0.0
C102 C 0.03158 0.46203 0.56462 0.0
C103 C 0.02743 0.49369 0.57031 0.0
C104 C -0.00068 0.50295 0.58001 0.0
C105 C 0.97662 0.48096 0.58477 0.0
C106 C 0.13464 0.59236 0.59185 0.0
C107 C 0.16579 0.59269 0.59932 0.0
C108 C 0.17424 0.60667 0.61985 0.0
C109 C 0.15156 0.62045 0.63323 0.0
C110 C 0.12016 0.61896 0.62632 0.0
C111 C 0.11172 0.60514 0.60568 0.0
C112 C 0.13095 0.60611 0.55326 0.0
C113 C 0.11451 0.63437 0.55509 0.0
C114 C 0.12437 0.66046 0.54382 0.0
C115 C 0.15085 0.65874 0.53073 0.0
C116 C 0.16594 0.63013 0.52764 0.0
C117 C 0.15594 0.60399 0.53878 0.0
C118 C 0.10223 0.56013 0.56651 0.0
C119 C 0.10833 0.52896 0.57109 0.0
C120 C 0.08421 0.50738 0.57176 0.0
C121 C 0.05318 0.5164 0.56765 0.0
C122 C 0.04713 0.54753 0.56226 0.0
C123 C 0.07137 0.56925 0.56181 0.0
H124 H 0.61359 0.41508 0.8509 0.0
N125 N 0.56339 0.39315 0.82607 0.0
H126 H 0.62794 0.40147 0.88916 0.0
H127 H 0.53183 0.35729 0.85317 0.0
H128 H 0.5464 0.34359 0.89172 0.0
H129 H 0.60634 0.34658 0.82888 0.0
H130 H 0.65049 0.33738 0.80528 0.0
H131 H 0.57447 0.4193 0.78529 0.0
H132 H 0.61901 0.40942 0.76169 0.0
H133 H 0.59257 0.44994 0.8257 0.0
H134 H 0.50284 0.40528 0.82436 0.0
H135 H 0.56765 0.50069 0.82626 0.0
H136 H 0.4775 0.45611 0.82599 0.0
H137 H 0.46856 0.6563 0.85812 0.0
H138 H 0.44185 0.67314 0.89201 0.0
H139 H 0.40397 0.58101 0.89764 0.0
H140 H 0.43055 0.56416 0.86371 0.0
H141 H 0.40091 0.58267 0.83057 0.0
H142 H 0.35998 0.60836 0.80889 0.0
H143 H 0.42758 0.67121 0.78344 0.0
H144 H 0.46887 0.6457 0.80558 0.0
H145 H 0.51556 0.58493 0.85344 0.0
H146 H 0.54074 0.53432 0.85028 0.0
H147 H 0.46554 0.50148 0.80648 0.0
N148 N 0.46136 0.60248 0.8359 0.0
H149 H 0.43988 0.55118 0.81053 0.0
C150 C 0.57152 0.38709 0.84913 0.0
C151 C 0.59841 0.39996 0.85973 0.0
C152 C 0.60671 0.39211 0.88151 0.0
C153 C 0.58819 0.3716 0.89312 0.0
C154 C 0.56087 0.35953 0.88293 0.0
C155 C 0.55263 0.36725 0.86105 0.0
C156 C 0.58831 0.3861 0.81059 0.0
C157 C 0.60892 0.36117 0.81464 0.0
C158 C 0.63404 0.35547 0.80096 0.0
C159 C 0.63856 0.37355 0.78231 0.0
C160 C 0.61634 0.39594 0.7765 0.0
C161 C 0.59114 0.40184 0.79031 0.0
C162 C 0.54946 0.42367 0.82472 0.0
C163 C 0.56745 0.45104 0.82556 0.0
C164 C 0.5531 0.48015 0.82604 0.0
C165 C 0.52048 0.48265 0.82628 0.0
C166 C 0.50261 0.45521 0.8254 0.0
C167 C 0.517 0.4261 0.82456 0.0
C168 C 0.45153 0.60914 0.85835 0.0
C169 C 0.45532 0.63951 0.86706 0.0
C170 C 0.44002 0.6491 0.88626 0.0
C171 C 0.42079 0.62834 0.89705 0.0
C172 C 0.41872 0.59728 0.88941 0.0
C173 C 0.43396 0.5877 0.87013 0.0
C174 C 0.43816 0.6123 0.81968 0.0
C175 C 0.40722 0.60151 0.82003 0.0
C176 C 0.38381 0.61617 0.80771 0.0
C177 C 0.39088 0.6417 0.7948 0.0
C178 C 0.42185 0.65146 0.79337 0.0
C179 C 0.44533 0.63684 0.80581 0.0
C180 C 0.47567 0.57228 0.83253 0.0
C181 C 0.5045 0.56677 0.84319 0.0
C182 C 0.51899 0.53784 0.84118 0.0
C183 C 0.50523 0.51368 0.82808 0.0
C184 C 0.47658 0.5193 0.81705 0.0
C185 C 0.46185 0.54813 0.81932 0.0
H186 H 0.49269 0.85388 0.1351 0.0
N187 N 0.49384 0.89735 0.10488 0.0
H188 H 0.46204 0.8541 0.16899 0.0
H189 H 0.46476 0.94835 0.1232 0.0
H190 H 0.43435 0.94873 0.15739 0.0
H191 H 0.43653 0.91887 0.09153 0.0
H192 H 0.3989 0.89128 0.06682 0.0
H193 H 0.50275 0.84474 0.08184 0.0
H194 H 0.46477 0.81685 0.05727 0.0
H195 H 0.55436 0.90054 0.11348 0.0
H196 H 0.47938 0.94852 0.07997 0.0
H197 H 0.5913 0.93839 0.10025 0.0
H198 H 0.51619 0.98528 0.06548 0.0
H199 H 0.71154 0.06218 0.07292 0.0
H200 H 0.73374 0.08764 0.10698 0.0
H201 H 0.6435 0.08722 0.13637 0.0
H202 H 0.62133 0.06227 0.10292 0.0
H203 H 0.62212 0.1077 0.07423 0.0
H204 H 0.6311 0.15719 0.05694 0.0
H205 H 0.68076 0.11049 0.00431 0.0
H206 H 0.67309 0.0605 0.02241 0.0
H207 H 0.65644 0.99161 0.06062 0.0
H208 H 0.61654 0.95331 0.06821 0.0
H209 H 0.54909 0.0273 0.07497 0.0
N210 N 0.65141 0.05284 0.06312 0.0
H211 H 0.58851 0.06491 0.066 0.0
C212 C 0.48105 0.90099 0.12671 0.0
C213 C 0.48069 0.87493 0.1402 0.0
C214 C 0.46314 0.87501 0.15938 0.0
C215 C 0.44582 0.90131 0.16545 0.0
C216 C 0.44762 0.92824 0.15283 0.0
C217 C 0.46503 0.92804 0.13344 0.0
C218 C 0.47259 0.88379 0.0884 0.0
C219 C 0.44321 0.89697 0.08379 0.0
C220 C 0.42169 0.88124 0.06979 0.0
C221 C 0.42913 0.85206 0.06045 0.0
C222 C 0.45873 0.83938 0.06442 0.0
C223 C 0.48033 0.85522 0.0783 0.0
C224 C 0.51425 0.92136 0.09761 0.0
C225 C 0.54594 0.91918 0.10316 0.0
C226 C 0.56703 0.94062 0.09527 0.0
C227 C 0.5569 0.96464 0.08135 0.0
C228 C 0.5249 0.9672 0.07618 0.0
C229 C 0.50373 0.94595 0.08438 0.0
C230 C 0.66479 0.06025 0.08505 0.0
C231 C 0.69681 0.06651 0.08702 0.0
C232 C 0.70943 0.081 0.10636 0.0
C233 C 0.69009 0.08925 0.12399 0.0
C234 C 0.65869 0.08081 0.12288 0.0
C235 C 0.64608 0.06643 0.10362 0.0
C236 C 0.6475 0.08019 0.04983 0.0
C237 C 0.63419 0.10767 0.05867 0.0
C238 C 0.63937 0.13609 0.0488 0.0
C239 C 0.65728 0.13756 0.02968 0.0
C240 C 0.66726 0.10981 0.01927 0.0
C241 C 0.66271 0.08134 0.02948 0.0
C242 C 0.6258 0.03112 0.06297 0.0
C243 C 0.6328 -0.00063 0.06309 0.0
C244 C 0.61003 0.97761 0.06781 0.0
C245 C 0.57971 0.98724 0.0729 0.0
C246 C 0.57211 0.01892 0.07115 0.0
C247 C 0.59483 0.04063 0.06601 0.0
H248 H 0.14636 0.55364 0.88635 0.0
N249 N 0.11696 0.57459 0.92206 0.0
H250 H 0.15239 0.58051 0.85108 0.0
H251 H 0.0845 0.62607 0.90895 0.0
H252 H 0.09024 0.65266 0.87369 0.0
H253 H 0.17679 0.58217 0.93181 0.0
H254 H 0.2008 0.62231 0.95648 0.0
H255 H 0.08579 0.61437 0.95 0.0
H256 H 0.10989 0.65446 0.97504 0.0
H257 H 0.12488 0.52276 0.94416 0.0
H258 H 0.05367 0.58088 0.91528 0.0
H259 H 0.08532 0.48554 0.95454 0.0
H260 H 0.01425 0.54308 0.92427 0.0
H261 H 0.94868 0.35901 0.92249 0.0
H262 H 0.92626 0.34585 0.8853 0.0
H263 H 0.91684 0.44338 0.87188 0.0
H264 H 0.93878 0.45659 0.90903 0.0
H265 H 0.90025 0.44902 0.93946 0.0
H266 H 0.85246 0.43646 0.95847 0.0
H267 H 0.90142 0.36624 0.99537 0.0
H268 H 0.94939 0.37847 0.97604 0.0
H269 H 0.01476 0.40781 0.93737 0.0
H270 H 0.05427 0.44806 0.93573 0.0
H271 H 0.98533 0.51786 0.95155 0.0
N272 N 0.95439 0.41519 0.94154 0.0
H273 H 0.94571 0.47745 0.95217 0.0
C274 C 0.11499 0.58768 0.90021 0.0
C275 C 0.13339 0.57478 0.88342 0.0
C276 C 0.13687 0.5901 0.86342 0.0
C277 C 0.12187 0.61857 0.85994 0.0
C278 C 0.10193 0.63066 0.87614 0.0
C279 C 0.09861 0.61541 0.8962 0.0
C280 C 0.12971 0.59536 0.93911 0.0
C281 C 0.16209 0.5975 0.94151 0.0
C282 C 0.17568 0.62034 0.95548 0.0
C283 C 0.15702 0.64134 0.96733 0.0
C284 C 0.12453 0.63839 0.96591 0.0
C285 C 0.11087 0.61558 0.95171 0.0
C286 C 0.09247 0.55418 0.92852 0.0
C287 C 0.10068 0.52737 0.93998 0.0
C288 C 0.07804 0.50609 0.94578 0.0
C289 C 0.04656 0.51099 0.93994 0.0
C290 C 0.03819 0.53859 0.92921 0.0
C291 C 0.06088 0.56015 0.92374 0.0
C292 C 0.94546 0.40861 0.91855 0.0
C293 C 0.94238 0.3775 0.91134 0.0
C294 C 0.92965 0.37005 0.89024 0.0
C295 C 0.91991 0.39371 0.87605 0.0
C296 C 0.92436 0.42491 0.8827 0.0
C297 C 0.9369 0.43237 0.90388 0.0
C298 C 0.92855 0.41454 0.95634 0.0
C299 C 0.90114 0.43164 0.95213 0.0
C300 C 0.87378 0.42443 0.9629 0.0
C301 C 0.87354 0.40034 0.97814 0.0
C302 C 0.90132 0.38496 0.98366 0.0
C303 C 0.92863 0.39203 0.97278 0.0
C304 C 0.97735 0.43938 0.94488 0.0
C305 C 0.00837 0.43175 0.94094 0.0
C306 C 0.03094 0.45487 0.94009 0.0
C307 C 0.02304 0.48635 0.94342 0.0
C308 C 0.99215 0.49392 0.94853 0.0
C309 C 0.96944 0.47069 0.94914 0.0
H310 H 0.54966 0.38885 0.16315 0.0
N311 N 0.56778 0.43901 0.18964 0.0
H312 H 0.5719 0.37278 0.12791 0.0
H313 H 0.60779 0.47061 0.16599 0.0
H314 H 0.63197 0.45307 0.13114 0.0
H315 H 0.62337 0.44297 0.20945 0.0
H316 H 0.65282 0.39979 0.2254 0.0
H317 H 0.54132 0.38528 0.20475 0.0
H318 H 0.57061 0.3425 0.2209 0.0
H319 H 0.51075 0.41099 0.18029 0.0
H320 H 0.55484 0.49574 0.20482 0.0
H321 H 0.46048 0.43601 0.18112 0.0
H322 H 0.50402 0.52141 0.20523 0.0
H323 H 0.31001 0.54455 0.1578 0.0
H324 H 0.29681 0.56506 0.1208 0.0
H325 H 0.39167 0.59513 0.1145 0.0
H326 H 0.40496 0.57457 0.15119 0.0
H327 H 0.40356 0.59974 0.18636 0.0
H328 H 0.39241 0.64847 0.20662 0.0
H329 H 0.30383 0.61192 0.22529 0.0
H330 H 0.31495 0.56285 0.20489 0.0
H331 H 0.38691 0.50358 0.15393 0.0
H332 H 0.43506 0.47498 0.1589 0.0
H333 H 0.4524 0.52287 0.22219 0.0
N334 N 0.36414 0.54988 0.18031 0.0
H335 H 0.40447 0.55178 0.21732 0.0
C336 C 0.57645 0.43157 0.16706 0.0
C337 C 0.56618 0.40414 0.15584 0.0
C338 C 0.5792 0.39467 0.13575 0.0
C339 C 0.60359 0.41171 0.12695 0.0
C340 C 0.613 0.43976 0.13757 0.0
C341 C 0.59927 0.44971 0.15739 0.0
C342 C 0.58025 0.41751 0.2056 0.0
C343 C 0.61132 0.42158 0.21283 0.0
C344 C 0.62813 0.39696 0.22186 0.0
C345 C 0.61391 0.36795 0.22403 0.0
C346 C 0.58191 0.3648 0.2193 0.0
C347 C 0.56517 0.38937 0.21 0.0
C348 C 0.53699 0.45151 0.19251 0.0
C349 C 0.50988 0.43484 0.18614 0.0
C350 C 0.48085 0.44933 0.18645 0.0
C351 C 0.47823 0.48081 0.19298 0.0
C352 C 0.50517 0.49705 0.20027 0.0
C353 C 0.53421 0.48248 0.2 0.0
C354 C 0.35832 0.55802 0.15731 0.0
C355 C 0.32805 0.55497 0.14821 0.0
C356 C 0.32055 0.56666 0.12724 0.0
C357 C 0.34331 0.5816 0.11511 0.0
C358 C 0.37389 0.58361 0.1237 0.0
C359 C 0.38138 0.57198 0.14465 0.0
C360 C 0.36006 0.57745 0.19427 0.0
C361 C 0.38183 0.602 0.1949 0.0
C362 C 0.37552 0.62977 0.20644 0.0
C363 C 0.3473 0.63363 0.21727 0.0
C364 C 0.32572 0.60919 0.21695 0.0
C365 C 0.33212 0.58128 0.20551 0.0
C366 C 0.39271 0.53222 0.18416 0.0
C367 C 0.40121 0.50861 0.16873 0.0
C368 C 0.42864 0.49176 0.17176 0.0
C369 C 0.44795 0.49718 0.19072 0.0
C370 C 0.43854 0.51895 0.20702 0.0
C371 C 0.41101 0.53581 0.20403 0.0
H372 H 0.42789 0.91674 0.42583 0.0
N373 N 0.48266 0.89916 0.44601 0.0
H374 H 0.40685 0.89784 0.38982 0.0
H375 H 0.51135 0.86302 0.41591 0.0
H376 H 0.49029 0.84448 0.37924 0.0
H377 H 0.44639 0.84802 0.44794 0.0
H378 H 0.40122 0.84119 0.47061 0.0
H379 H 0.46975 0.93255 0.48541 0.0
H380 H 0.42493 0.9244 0.50888 0.0
H381 H 0.45315 0.95604 0.44694 0.0
H382 H 0.54259 0.91152 0.44255 0.0
H383 H 0.47658 0.00579 0.43902 0.0
H384 H 0.56606 0.9608 0.43312 0.0
H385 H 0.56384 0.14661 0.37547 0.0
H386 H 0.58825 0.15328 0.33938 0.0
H387 H 0.63369 0.06454 0.34576 0.0
H388 H 0.60936 0.05784 0.38185 0.0
H389 H 0.63833 0.09541 0.4088 0.0
H390 H 0.67305 0.12584 0.43371 0.0
H391 H 0.59458 0.17602 0.45964 0.0
H392 H 0.55938 0.14573 0.43417 0.0
H393 H 0.51781 0.08022 0.39648 0.0
H394 H 0.49542 0.03182 0.40898 0.0
H395 H 0.58253 0.01035 0.44294 0.0
N396 N 0.57494 0.10193 0.40421 0.0
H397 H 0.60517 0.05725 0.42899 0.0
C398 C 0.47119 0.89096 0.42369 0.0
C399 C 0.44201 0.90143 0.41571 0.0
C400 C 0.42991 0.89055 0.3952 0.0
C401 C 0.44687 0.86949 0.3821 0.0
C402 C 0.4768 0.8605 0.3893 0.0
C403 C 0.48877 0.87103 0.41009 0.0
C404 C 0.45978 0.89284 0.46293 0.0
C405 C 0.44187 0.86535 0.46088 0.0
C406 C 0.41616 0.86114 0.47402 0.0
C407 C 0.40873 0.88325 0.49055 0.0
C408 C 0.4295 0.90788 0.49542 0.0
C409 C 0.45491 0.91269 0.48171 0.0
C410 C 0.49628 0.9299 0.44577 0.0
C411 C 0.47797 0.957 0.44461 0.0
C412 C 0.49141 0.98549 0.43969 0.0
C413 C 0.52326 0.9875 0.43506 0.0
C414 C 0.54161 0.96053 0.43691 0.0
C415 C 0.52826 0.93222 0.44233 0.0
C416 C 0.5847 0.10186 0.38136 0.0
C417 C 0.57835 0.12821 0.36878 0.0
C418 C 0.5923 0.13204 0.3483 0.0
C419 C 0.61284 0.10947 0.34008 0.0
C420 C 0.61783 0.08214 0.35191 0.0
C421 C 0.60385 0.07831 0.37244 0.0
C422 C 0.59605 0.11849 0.41947 0.0
C423 C 0.62838 0.113 0.41964 0.0
C424 C 0.64827 0.1303 0.43388 0.0
C425 C 0.63628 0.15318 0.44829 0.0
C426 C 0.60411 0.15848 0.44848 0.0
C427 C 0.58415 0.14123 0.43409 0.0
C428 C 0.56297 0.0728 0.41187 0.0
C429 C 0.53203 0.06491 0.40654 0.0
C430 C 0.51919 0.03735 0.41398 0.0
C431 C 0.53695 0.01711 0.42731 0.0
C432 C 0.56811 0.02502 0.43255 0.0
C433 C 0.58111 0.05227 0.4247 0.0
H434 H 0.05706 0.88041 0.63603 0.0
N435 N 0.06488 0.90789 0.67588 0.0
H436 H 0.09326 0.88046 0.60501 0.0
H437 H 0.11788 0.94282 0.67404 0.0
H438 H 0.15368 0.94343 0.64286 0.0
H439 H 0.07411 0.8478 0.68082 0.0
H440 H 0.10878 0.82323 0.70821 0.0
H441 H 0.091 0.93705 0.71341 0.0
H442 H 0.12476 0.91224 0.74132 0.0
H443 H 0.00408 0.89872 0.67381 0.0
H444 H 0.07326 0.97028 0.68491 0.0
H445 H 0.96301 0.93791 0.67514 0.0
H446 H 0.03251 0.00949 0.68722 0.0
H447 H 0.84652 0.05092 0.64903 0.0
H448 H 0.82454 0.0806 0.61789 0.0
H449 H 0.90431 0.14131 0.62157 0.0
H450 H 0.92532 0.11306 0.65307 0.0
H451 H 0.9384 0.10828 0.6923 0.0
H452 H 0.92586 0.15484 0.71484 0.0
H453 H 0.83141 0.12273 0.71962 0.0
H454 H 0.84382 0.0764 0.69681 0.0
H455 H 0.89387 0.01226 0.69419 0.0
H456 H 0.93566 0.97403 0.69789 0.0
H457 H 0.99667 0.0345 0.66282 0.0
N458 N 0.8955 0.06662 0.67476 0.0
H459 H 0.95559 0.07277 0.66015 0.0
C460 C 0.08462 0.9117 0.65718 0.0
C461 C 0.07784 0.89462 0.63744 0.0
C462 C 0.09842 0.89461 0.61987 0.0
C463 C 0.12603 0.91189 0.62178 0.0
C464 C 0.13237 0.93007 0.64115 0.0
C465 C 0.11187 0.92984 0.65884 0.0
C466 C 0.07992 0.89415 0.69496 0.0
C467 C 0.0845 0.86191 0.69428 0.0
C468 C 0.10429 0.84796 0.70983 0.0
C469 C 0.11959 0.86603 0.72654 0.0
C470 C 0.11324 0.89801 0.7284 0.0
C471 C 0.09388 0.91212 0.71248 0.0
C472 C 0.04161 0.93143 0.67935 0.0
C473 C 0.0103 0.92286 0.67703 0.0
C474 C 0.9869 0.94531 0.6779 0.0
C475 C 0.9944 0.97696 0.68124 0.0
C476 C 0.02588 0.98542 0.68426 0.0
C477 C 0.04929 0.96291 0.6832 0.0
C478 C 0.88786 0.0791 0.65321 0.0
C479 C 0.85976 0.06993 0.64258 0.0
C480 C 0.84718 0.08692 0.62496 0.0
C481 C 0.86284 0.11313 0.61754 0.0
C482 C 0.89203 0.12101 0.62702 0.0
C483 C 0.90426 0.10445 0.64489 0.0
C484 C 0.89184 0.08898 0.69277 0.0
C485 C 0.91528 0.11071 0.69876 0.0
C486 C 0.90816 0.13727 0.71158 0.0
C487 C 0.87769 0.14215 0.71865 0.0
C488 C 0.85504 0.11922 0.71428 0.0
C489 C 0.86213 0.09281 0.70144 0.0
C490 C 0.92116 0.04521 0.67664 0.0
C491 C 0.91636 0.01722 0.6874 0.0
C492 C 0.94023 0.99537 0.68939 0.0
C493 C 0.96955 0.00103 0.68051 0.0
C494 C 0.97454 0.02945 0.6701 0.0
C495 C 0.9507 0.05139 0.6683 0.0
Zn496 Zn 0.3073 0.74384 0.97513 0.0
Zn497 Zn 0.32085 0.70363 0.00852 0.0
O498 O 0.2735 0.70373 0.00597 0.0
O499 O 0.26134 0.73613 0.97963 0.0
O500 O 0.32914 0.67596 0.03433 0.0
O501 O 0.33029 0.77803 0.99267 0.0
O502 O 0.34198 0.74416 0.01856 0.0
C503 C 0.25287 0.71775 0.99445 0.0
C504 C 0.34498 0.68989 0.96237 0.0
O505 O 0.3423 0.68218 0.98255 0.0
O506 O 0.33222 0.71441 0.95524 0.0
C507 C 0.31812 0.64859 0.03458 0.0
O508 O 0.30131 0.63773 0.01748 0.0
C509 C 0.34397 0.77133 0.01087 0.0
Zn510 Zn 0.30932 0.7951 0.29627 0.0
Zn511 Zn 0.33935 0.82271 0.26283 0.0
O512 O 0.29938 0.84865 0.2657 0.0
O513 O 0.27348 0.82465 0.29141 0.0
O514 O 0.36218 0.84217 0.23801 0.0
O515 O 0.31208 0.75365 0.27982 0.0
O516 O 0.33556 0.7769 0.25259 0.0
C517 C 0.2755 0.84628 0.27763 0.0
C518 C 0.36785 0.82399 0.30988 0.0
O519 O 0.36946 0.82983 0.28928 0.0
O520 O 0.34468 0.80955 0.3171 0.0
C521 C 0.36709 0.87127 0.23759 0.0
O522 O 0.35565 0.88977 0.2531 0.0
C523 C 0.32487 0.75242 0.26107 0.0
Zn524 Zn 0.24071 0.81332 0.47443 0.0
Zn525 Zn 0.2161 0.8429 0.51021 0.0
O526 O 0.26258 0.85371 0.51419 0.0
O527 O 0.28325 0.82689 0.48642 0.0
O528 O 0.19604 0.86161 0.53725 0.0
O529 O 0.22141 0.77232 0.48273 0.0
O530 O 0.20356 0.79699 0.51241 0.0
C531 C 0.28623 0.84512 0.50328 0.0
C532 C 0.19946 0.86438 0.4634 0.0
O533 O 0.19572 0.86618 0.48437 0.0
O534 O 0.21707 0.84378 0.45504 0.0
C535 C 0.2033 0.8875 0.54667 0.0
O536 O 0.226 0.90421 0.53901 0.0
C537 C 0.2065 0.77215 0.50062 0.0
Zn538 Zn 0.24588 0.7379 0.72666 0.0
Zn539 Zn 0.21256 0.70866 0.75755 0.0
O540 O 0.19875 0.75416 0.76109 0.0
O541 O 0.22681 0.77855 0.73717 0.0
O542 O 0.19101 0.68733 0.78216 0.0
O543 O 0.28637 0.72251 0.74012 0.0
O544 O 0.2583 0.69795 0.76433 0.0
C545 C 0.20671 0.7794 0.75224 0.0
C546 C 0.20218 0.69111 0.70871 0.0
O547 O 0.19533 0.68765 0.72899 0.0
O548 O 0.22258 0.7107 0.7035 0.0
C549 C 0.16168 0.6848 0.78332 0.0
O550 O 0.14346 0.69679 0.76787 0.0
C551 C 0.28457 0.70458 0.7564 0.0
Zn552 Zn 0.76097 0.24547 0.54103 0.0
Zn553 Zn 0.80101 0.22433 0.50927 0.0
O554 O 0.81002 0.27089 0.51189 0.0
O555 O 0.77951 0.28871 0.53784 0.0
O556 O 0.82983 0.20998 0.48516 0.0
O557 O 0.72476 0.23079 0.52106 0.0
O558 O 0.75801 0.21158 0.4969 0.0
C559 C 0.79986 0.29373 0.52348 0.0
C560 C 0.80429 0.19815 0.55606 0.0
O561 O 0.81477 0.20034 0.53656 0.0
O562 O 0.78123 0.2144 0.56208 0.0
C563 C 0.84778 0.18658 0.48645 0.0
O564 O 0.84801 0.16944 0.50421 0.0
C565 C 0.73024 0.21581 0.50313 0.0
Zn566 Zn 0.80307 0.29819 0.78668 0.0
Zn567 Zn 0.82811 0.33044 0.75306 0.0
O568 O 0.78183 0.34281 0.75071 0.0
O569 O 0.76156 0.3164 0.77783 0.0
O570 O 0.84842 0.35143 0.72765 0.0
O571 O 0.81793 0.25765 0.7733 0.0
O572 O 0.83863 0.28453 0.74665 0.0
C573 C 0.75857 0.33535 0.76215 0.0
C574 C 0.84948 0.34331 0.80127 0.0
O575 O 0.8507 0.34925 0.78065 0.0
O576 O 0.83125 0.32269 0.80801 0.0
C577 C 0.8431 0.37922 0.72202 0.0
O578 O 0.82261 0.39611 0.73277 0.0
C579 C 0.83347 0.25869 0.75574 0.0
Zn580 Zn 0.72799 0.3154 0.0444 0.0
Zn581 Zn 0.69131 0.33263 0.01019 0.0
O582 O 0.68696 0.28499 0.00854 0.0
O583 O 0.71376 0.27103 0.03844 0.0
O584 O 0.66656 0.34592 0.98315 0.0
O585 O 0.76618 0.33231 0.03038 0.0
O586 O 0.73476 0.35043 0.00415 0.0
C587 C 0.69626 0.26401 0.02173 0.0
C588 C 0.67733 0.35509 0.05751 0.0
O589 O 0.66896 0.35225 0.03701 0.0
O590 O 0.70263 0.34322 0.06445 0.0
C591 C 0.63831 0.33834 0.97946 0.0
O592 O 0.62369 0.32177 0.99394 0.0
C593 C 0.76191 0.34782 0.01296 0.0
Zn594 Zn 0.75248 0.23166 0.2154 0.0
Zn595 Zn 0.71732 0.19831 0.24381 0.0
O596 O 0.69482 0.24038 0.24216 0.0
O597 O 0.72248 0.26754 0.21914 0.0
O598 O 0.69256 0.17589 0.26653 0.0
O599 O 0.79004 0.22659 0.23591 0.0
O600 O 0.76164 0.19757 0.25731 0.0
C601 C 0.69943 0.2652 0.23167 0.0
C602 C 0.72479 0.17536 0.19576 0.0
O603 O 0.71291 0.17251 0.21481 0.0
O604 O 0.74255 0.19799 0.19195 0.0
C605 C 0.68177 0.14841 0.26447 0.0
O606 O 0.68664 0.13165 0.24628 0.0
C607 C 0.78764 0.20959 0.25266 0.0
C608 C 0.23431 0.91393 0.30468 0.0
C609 C 0.20962 0.91934 0.28905 0.0
C610 C 0.22847 0.87677 0.26489 0.0
C611 C 0.25406 0.87288 0.27995 0.0
N612 N 0.28557 0.89243 0.31117 0.0
N613 N 0.18499 0.90918 0.25307 0.0
C614 C 0.25829 0.89299 0.29888 0.0
C615 C 0.20722 0.90171 0.26872 0.0
N616 N 0.2341 0.9276 0.32556 0.0
N617 N 0.22412 0.85614 0.24735 0.0
H618 H 0.16897 0.92705 0.25563 0.0
H619 H 0.1837 0.89922 0.23706 0.0
H620 H 0.23986 0.83832 0.24386 0.0
H621 H 0.20426 0.85558 0.23704 0.0
H622 H 0.24959 0.92165 0.33839 0.0
H623 H 0.21669 0.94271 0.33089 0.0
H624 H 0.29129 0.90892 0.32364 0.0
H625 H 0.30386 0.87737 0.30749 0.0
C626 C 0.18763 0.70356 0.53657 0.0
C627 C 0.16516 0.68763 0.52273 0.0
C628 C 0.16835 0.72818 0.49495 0.0
C629 C 0.19251 0.74283 0.50802 0.0
N630 N 0.22899 0.74184 0.53925 0.0
N631 N 0.13689 0.68195 0.48765 0.0
C632 C 0.20316 0.72985 0.52833 0.0
C633 C 0.15635 0.6991 0.50155 0.0
N634 N 0.1937 0.69387 0.55778 0.0
N635 N 0.15592 0.74275 0.4768 0.0
H636 H 0.12703 0.66099 0.49225 0.0
H637 H 0.13228 0.68722 0.47106 0.0
H638 H 0.16387 0.76418 0.47154 0.0
H639 H 0.13609 0.73498 0.46799 0.0
H640 H 0.20695 0.70664 0.56958 0.0
H641 H 0.18364 0.67412 0.56425 0.0
H642 H 0.23998 0.73135 0.55277 0.0
H643 H 0.24124 0.76089 0.53364 0.0
C644 C 0.35125 0.6842 0.79636 0.0
C645 C 0.36528 0.65946 0.78413 0.0
C646 C 0.32852 0.66676 0.75276 0.0
C647 C 0.31304 0.68994 0.76564 0.0
N648 N 0.30782 0.7199 0.79989 0.0
N649 N 0.36689 0.62529 0.75174 0.0
C650 C 0.32393 0.69847 0.78751 0.0
C651 C 0.35395 0.65036 0.76252 0.0
N652 N 0.36444 0.69429 0.81629 0.0
N653 N 0.31878 0.66035 0.73121 0.0
H654 H 0.38627 0.61351 0.75806 0.0
H655 H 0.35765 0.61494 0.73715 0.0
H656 H 0.29895 0.67015 0.72391 0.0
H657 H 0.33109 0.64651 0.72003 0.0
H658 H 0.35753 0.71423 0.82501 0.0
H659 H 0.38392 0.68383 0.82361 0.0
H660 H 0.31207 0.7245 0.81681 0.0
H661 H 0.28889 0.73229 0.79349 0.0
C662 C 0.40875 0.82969 0.02399 0.0
C663 C 0.40549 0.83388 0.04731 0.0
C664 C 0.35813 0.80229 0.04551 0.0
C665 C 0.36386 0.79462 0.02286 0.0
N666 N 0.39759 0.79699 0.99134 0.0
N667 N 0.37967 0.82095 0.08109 0.0
C668 C 0.38982 0.80742 0.01219 0.0
C669 C 0.38078 0.81944 0.05832 0.0
N670 N 0.42968 0.84725 0.01311 0.0
N671 N 0.33068 0.79385 0.05459 0.0
H672 H 0.39588 0.83318 0.09116 0.0
H673 H 0.36422 0.80794 0.09011 0.0
H674 H 0.3133 0.78172 0.04554 0.0
H675 H 0.32388 0.80147 0.07035 0.0
H676 H 0.43083 0.84749 0.99579 0.0
H677 H 0.44397 0.86379 0.02129 0.0
H678 H 0.41823 0.80302 0.98386 0.0
H679 H 0.38498 0.78004 0.98224 0.0
C680 C 0.18831 0.66129 0.00043 0.0
C681 C 0.17232 0.66736 0.98001 0.0
C682 C 0.19802 0.7179 0.97878 0.0
C683 C 0.21959 0.70776 0.99522 0.0
N684 N 0.22444 0.68054 0.02955 0.0
N685 N 0.15928 0.70267 0.95056 0.0
C686 C 0.21123 0.68277 0.00871 0.0
C687 C 0.17566 0.69648 0.96976 0.0
N688 N 0.1827 0.63428 0.01106 0.0
N689 N 0.19847 0.7481 0.97245 0.0
H690 H 0.14225 0.68779 0.94366 0.0
H691 H 0.16369 0.72181 0.94086 0.0
H692 H 0.21311 0.76451 0.98046 0.0
H693 H 0.18196 0.75759 0.96159 0.0
H694 H 0.19598 0.6266 0.02459 0.0
H695 H 0.16497 0.61899 0.00578 0.0
H696 H 0.21845 0.66376 0.04083 0.0
H697 H 0.2389 0.69801 0.0364 0.0
C698 C 0.35224 0.66945 0.25073 0.0
C699 C 0.34033 0.66362 0.22876 0.0
C700 C 0.31563 0.71499 0.22875 0.0
C701 C 0.32989 0.72184 0.24992 0.0
N702 N 0.36622 0.70799 0.27942 0.0
N703 N 0.31406 0.68157 0.19549 0.0
C704 C 0.34931 0.69967 0.26054 0.0
C705 C 0.32292 0.6866 0.21736 0.0
N706 N 0.36592 0.64594 0.26233 0.0
N707 N 0.29432 0.73513 0.21992 0.0
H708 H 0.31832 0.66076 0.18677 0.0
H709 H 0.30446 0.6987 0.1855 0.0
H710 H 0.2884 0.75611 0.22783 0.0
H711 H 0.28065 0.73 0.2057 0.0
H712 H 0.37191 0.64778 0.27925 0.0
H713 H 0.36899 0.62362 0.25551 0.0
H714 H 0.38334 0.69396 0.28651 0.0
H715 H 0.36528 0.73008 0.28697 0.0
C716 C 0.37233 0.8549 0.51484 0.0
C717 C 0.378 0.88066 0.50121 0.0
C718 C 0.32192 0.88891 0.49579 0.0
C719 C 0.31649 0.861 0.50712 0.0
N720 N 0.33428 0.82151 0.53183 0.0
N721 N 0.35894 0.92698 0.48357 0.0
C722 C 0.34109 0.84545 0.51828 0.0
C723 C 0.35298 0.89949 0.49354 0.0
N724 N 0.39706 0.83897 0.52363 0.0
N725 N 0.29743 0.90397 0.48582 0.0
H726 H 0.38126 0.93488 0.48061 0.0
H727 H 0.34199 0.94329 0.47958 0.0
H728 H 0.27433 0.89763 0.48795 0.0
H729 H 0.29967 0.92202 0.4748 0.0
H730 H 0.39529 0.81834 0.53213 0.0
H731 H 0.41993 0.84664 0.52221 0.0
H732 H 0.35066 0.80962 0.54139 0.0
H733 H 0.31143 0.81471 0.53456 0.0
C734 C 0.17592 0.85591 0.73594 0.0
C735 C 0.14406 0.85123 0.74062 0.0
C736 C 0.15848 0.80816 0.76483 0.0
C737 C 0.18866 0.8088 0.75597 0.0
N738 N 0.2295 0.84267 0.74519 0.0
N739 N 0.10504 0.82649 0.76204 0.0
C740 C 0.19852 0.83597 0.74553 0.0
C741 C 0.13543 0.82879 0.75627 0.0
N742 N 0.18439 0.87742 0.72089 0.0
N743 N 0.15257 0.78909 0.78202 0.0
H744 H 0.08821 0.84247 0.75694 0.0
H745 H 0.09629 0.8085 0.77127 0.0
H746 H 0.17028 0.77691 0.79017 0.0
H747 H 0.13145 0.78828 0.79001 0.0
H748 H 0.2068 0.87897 0.71486 0.0
H749 H 0.16872 0.89247 0.71324 0.0
H750 H 0.23827 0.86341 0.73935 0.0
H751 H 0.24601 0.82888 0.75332 0.0
C752 C 0.69332 0.38947 0.77492 0.0
C753 C 0.66771 0.36943 0.76988 0.0
C754 C 0.70206 0.33151 0.75198 0.0
C755 C 0.72788 0.35025 0.7588 0.0
N756 N 0.74802 0.40063 0.77013 0.0
N757 N 0.64579 0.32646 0.74842 0.0
C758 C 0.72339 0.38065 0.7678 0.0
C759 C 0.6715 0.34216 0.75647 0.0
N760 N 0.6893 0.41568 0.78793 0.0
N761 N 0.70709 0.30301 0.74213 0.0
H762 H 0.62326 0.33415 0.75155 0.0
H763 H 0.64657 0.30753 0.73728 0.0
H764 H 0.72922 0.29562 0.73761 0.0
H765 H 0.68976 0.28647 0.73897 0.0
H766 H 0.70756 0.42911 0.79465 0.0
H767 H 0.66758 0.42329 0.79309 0.0
H768 H 0.74586 0.42402 0.77473 0.0
H769 H 0.77041 0.39458 0.76543 0.0
C770 C 0.64579 0.19096 0.01588 0.0
C771 C 0.66806 0.16847 0.02243 0.0
C772 C 0.70914 0.20751 0.01998 0.0
C773 C 0.68631 0.23112 0.01828 0.0
N774 N 0.63178 0.24534 0.01707 0.0
N775 N 0.72115 0.15671 0.03387 0.0
C776 C 0.65427 0.22292 0.01647 0.0
C777 C 0.69993 0.17692 0.02503 0.0
N778 N 0.61648 0.18174 0.00932 0.0
N779 N 0.73967 0.21433 0.01672 0.0
H780 H 0.71554 0.13443 0.03879 0.0
H781 H 0.74388 0.16319 0.03832 0.0
H782 H 0.74703 0.23643 0.01239 0.0
H783 H 0.75694 0.19738 0.01584 0.0
H784 H 0.60006 0.19678 0.00246 0.0
H785 H 0.60978 0.15841 0.00865 0.0
H786 H 0.60821 0.24031 0.01827 0.0
H787 H 0.63658 0.26903 0.01846 0.0
C788 C 0.86567 0.17401 0.26902 0.0
C789 C 0.86999 0.18676 0.29093 0.0
C790 C 0.8195 0.21321 0.28825 0.0
C791 C 0.81587 0.20172 0.26594 0.0
N792 N 0.83536 0.17262 0.23428 0.0
N793 N 0.85321 0.22024 0.32117 0.0
C794 C 0.83899 0.18257 0.25607 0.0
C795 C 0.84747 0.20684 0.3005 0.0
N796 N 0.88678 0.15306 0.2609 0.0
N797 N 0.796 0.22994 0.29775 0.0
H798 H 0.87281 0.21514 0.33103 0.0
H799 H 0.83963 0.23772 0.32821 0.0
H800 H 0.77598 0.2366 0.28892 0.0
H801 H 0.79536 0.23598 0.31464 0.0
H802 H 0.88353 0.14004 0.24615 0.0
H803 H 0.90723 0.14725 0.26956 0.0
H804 H 0.85277 0.16191 0.22516 0.0
H805 H 0.81509 0.17615 0.22475 0.0
C806 C 0.83537 0.36674 0.54783 0.0
C807 C 0.86292 0.36774 0.53535 0.0
C808 C 0.84069 0.32955 0.50841 0.0
C809 C 0.81576 0.3248 0.52295 0.0
N810 N 0.7811 0.35179 0.54771 0.0
N811 N 0.88895 0.35417 0.50106 0.0
C812 C 0.81036 0.34752 0.53996 0.0
C813 C 0.86456 0.35084 0.51478 0.0
N814 N 0.83368 0.38258 0.56782 0.0
N815 N 0.84134 0.31444 0.48813 0.0
H816 H 0.90731 0.36966 0.5043 0.0
H817 H 0.90731 0.36966 0.5043 0.0
H818 H 0.82228 0.30199 0.48148 0.0
H819 H 0.85979 0.31671 0.47734 0.0
H820 H 0.8156 0.37954 0.57877 0.0
H821 H 0.85133 0.39712 0.57423 0.0
H822 H 0.77542 0.36954 0.55904 0.0
H823 H 0.76183 0.34053 0.54028 0.0
C824 C 0.6662 0.15928 0.48451 0.0
C825 C 0.65782 0.17118 0.46337 0.0
C826 C 0.69622 0.21305 0.46856 0.0
C827 C 0.70426 0.20149 0.48989 0.0
N828 N 0.695 0.16623 0.51964 0.0
N829 N 0.66068 0.21138 0.43635 0.0
C830 C 0.6885 0.1755 0.49837 0.0
C831 C 0.67159 0.19874 0.45573 0.0
N832 N 0.65368 0.13178 0.49089 0.0
N833 N 0.71254 0.2374 0.46049 0.0
H834 H 0.64306 0.20113 0.42636 0.0
H835 H 0.66737 0.23303 0.43084 0.0
H836 H 0.72946 0.24963 0.46993 0.0
H837 H 0.71054 0.24469 0.44412 0.0
H838 H 0.66143 0.11967 0.50474 0.0
H839 H 0.63638 0.11991 0.48157 0.0
H840 H 0.68187 0.14999 0.52781 0.0
H841 H 0.71266 0.17599 0.52981 0.0
C842 C 0.85153 0.1935 0.71408 0.0
C843 C 0.86827 0.17283 0.72799 0.0
C844 C 0.8663 0.2108 0.75903 0.0
C845 C 0.84613 0.22959 0.74595 0.0
N846 N 0.81546 0.23654 0.71212 0.0
N847 N 0.88893 0.15979 0.76427 0.0
C848 C 0.83774 0.22044 0.7237 0.0
C849 C 0.87499 0.18092 0.75065 0.0
N850 N 0.84938 0.18771 0.69156 0.0
N851 N 0.87817 0.22201 0.77905 0.0
H852 H 0.89612 0.13789 0.75855 0.0
H853 H 0.89125 0.16303 0.7815 0.0
H854 H 0.87303 0.24412 0.7855 0.0
H855 H 0.8954 0.21067 0.78826 0.0
H856 H 0.84038 0.20365 0.68034 0.0
H857 H 0.85927 0.16822 0.68385 0.0
H858 H 0.806 0.22888 0.69677 0.0
H859 H 0.80422 0.25607 0.7187 0.0
C860 C 0.82819 0.36395 0.97426 0.0
C861 C 0.84361 0.38862 0.98629 0.0
C862 C 0.80437 0.38779 0.01514 0.0
C863 C 0.78882 0.36322 0.00305 0.0
N864 N 0.78293 0.3304 0.96993 0.0
N865 N 0.84488 0.42729 0.01604 0.0
C866 C 0.79975 0.35218 0.98217 0.0
C867 C 0.83122 0.40153 0.00613 0.0
N868 N 0.84141 0.35111 0.95566 0.0
N869 N 0.79354 0.39772 0.03535 0.0
H870 H 0.86498 0.4374 0.01011 0.0
H871 H 0.83548 0.43996 0.02924 0.0
H872 H 0.77268 0.38995 0.04169 0.0
H873 H 0.80562 0.41276 0.04635 0.0
H874 H 0.83366 0.33073 0.94759 0.0
H875 H 0.86148 0.3599 0.94876 0.0
H876 H 0.78742 0.32403 0.95348 0.0
H877 H 0.76309 0.31969 0.97572 0.0
C878 C 0.63939 0.32027 0.20819 0.0
C879 C 0.63365 0.33996 0.22703 0.0
C880 C 0.67071 0.30996 0.24967 0.0
C881 C 0.67521 0.28958 0.23105 0.0
N882 N 0.65808 0.27041 0.19461 0.0
N883 N 0.63949 0.35102 0.26648 0.0
C884 C 0.65773 0.29324 0.21093 0.0
C885 C 0.64799 0.334 0.24807 0.0
N886 N 0.62866 0.32815 0.18742 0.0
N887 N 0.68892 0.307 0.26853 0.0
H888 H 0.62304 0.36881 0.26571 0.0
H889 H 0.64682 0.34602 0.28267 0.0
H890 H 0.70529 0.28929 0.27031 0.0
H891 H 0.68923 0.32309 0.28181 0.0
H892 H 0.63512 0.31646 0.17284 0.0
H893 H 0.61549 0.34801 0.18438 0.0
H894 H 0.64324 0.2702 0.18059 0.0
H895 H 0.67096 0.25001 0.19615 0.0
C896 C 0.16164 0.89702 0.41144 0.0
C897 C 0.16451 0.9295 0.41583 0.0
C898 C 0.18892 0.91967 0.45231 0.0
C899 C 0.18444 0.88718 0.44844 0.0
N900 N 0.15869 0.84589 0.42711 0.0
N901 N 0.17327 0.97175 0.44246 0.0
C902 C 0.16826 0.87617 0.42887 0.0
C903 C 0.17562 0.94081 0.43698 0.0
N904 N 0.15426 0.8859 0.39039 0.0
N905 N 0.20756 0.93044 0.46967 0.0
H906 H 0.16345 0.98782 0.43162 0.0
H907 H 0.17817 0.98085 0.45844 0.0
H908 H 0.21874 0.91604 0.48102 0.0
H909 H 0.21432 0.95363 0.47163 0.0
H910 H 0.15527 0.86239 0.38583 0.0
H911 H 0.14987 0.90025 0.37694 0.0
H912 H 0.14429 0.83733 0.41411 0.0
H913 H 0.16233 0.8302 0.43988 0.0
C914 C 0.17275 0.62248 0.67258 0.0
C915 C 0.16125 0.63837 0.65369 0.0
C916 C 0.17029 0.68829 0.67332 0.0
C917 C 0.18601 0.6726 0.69078 0.0
N918 N 0.20572 0.62478 0.70596 0.0
N919 N 0.15291 0.68655 0.63463 0.0
C920 C 0.18795 0.63964 0.69029 0.0
C921 C 0.16087 0.67135 0.65368 0.0
N922 N 0.16882 0.59104 0.67367 0.0
N923 N 0.16362 0.71925 0.67576 0.0
H924 H 0.14603 0.67509 0.61976 0.0
H925 H 0.15569 0.71042 0.633 0.0
H926 H 0.16951 0.73229 0.69018 0.0
H927 H 0.1495 0.7312 0.66451 0.0
H928 H 0.17387 0.57857 0.68796 0.0
H929 H 0.15779 0.57781 0.66093 0.0
H930 H 0.21076 0.60112 0.70496 0.0
H931 H 0.21771 0.63643 0.71901 0.0
C932 C 0.41367 0.64816 0.93623 0.0
C933 C 0.40051 0.64026 0.91492 0.0
C934 C 0.34958 0.65852 0.92697 0.0
C935 C 0.3637 0.67057 0.94701 0.0
N936 N 0.4101 0.68036 0.96979 0.0
N937 N 0.35683 0.64133 0.88873 0.0
C938 C 0.39596 0.66605 0.95156 0.0
C939 C 0.36862 0.64615 0.90996 0.0
N940 N 0.44302 0.63835 0.9418 0.0
N941 N 0.31789 0.65824 0.92443 0.0
H942 H 0.3699 0.63229 0.87569 0.0
H943 H 0.33475 0.64866 0.8836 0.0
H944 H 0.30318 0.66663 0.93676 0.0
H945 H 0.30616 0.64693 0.91112 0.0
H946 H 0.45275 0.64065 0.95786 0.0
H947 H 0.4566 0.62532 0.93084 0.0
H948 H 0.43411 0.68073 0.97254 0.0
H949 H 0.39822 0.69419 0.98126 0.0
C950 C 0.39276 0.89025 0.17937 0.0
C951 C 0.42405 0.89926 0.18412 0.0
C952 C 0.41567 0.89628 0.22431 0.0
C953 C 0.3855 0.88397 0.21944 0.0
N954 N 0.34438 0.86984 0.19302 0.0
N955 N 0.46592 0.91126 0.21035 0.0
C956 C 0.37368 0.88141 0.19714 0.0
C957 C 0.43555 0.90281 0.20643 0.0
N958 N 0.3814 0.89023 0.15783 0.0
N959 N 0.42537 0.90131 0.24603 0.0
H960 H 0.48055 0.91767 0.19767 0.0
H961 H 0.47721 0.91086 0.22589 0.0
H962 H 0.41226 0.89515 0.25958 0.0
H963 H 0.44566 0.91311 0.25086 0.0
H964 H 0.35814 0.88685 0.15323 0.0
H965 H 0.39497 0.89552 0.14431 0.0
H966 H 0.33543 0.86364 0.17724 0.0
H967 H 0.32894 0.86538 0.20565 0.0
C968 C 0.11818 0.62773 0.81875 0.0
C969 C 0.12955 0.63708 0.84031 0.0
C970 C 0.1562 0.68133 0.82451 0.0
C971 C 0.14842 0.66958 0.80275 0.0
N972 N 0.12499 0.62952 0.77883 0.0
N973 N 0.16313 0.67012 0.86361 0.0
C974 C 0.12994 0.64235 0.79973 0.0
C975 C 0.14948 0.66326 0.84321 0.0
N976 N 0.09584 0.6052 0.81651 0.0
N977 N 0.16921 0.71022 0.82734 0.0
H978 H 0.15906 0.65743 0.8778 0.0
H979 H 0.18059 0.68673 0.86609 0.0
H980 H 0.17382 0.72447 0.81403 0.0
H981 H 0.17246 0.72133 0.84287 0.0
H982 H 0.08429 0.59957 0.80146 0.0
H983 H 0.08687 0.59396 0.83013 0.0
H984 H 0.11471 0.60784 0.77584 0.0
H985 H 0.13339 0.63933 0.76449 0.0
C986 C 0.34269 0.58381 0.07335 0.0
C987 C 0.33477 0.59746 0.09421 0.0
C988 C 0.3112 0.64173 0.07536 0.0
C989 C 0.3225 0.63 0.05479 0.0
N990 N 0.35214 0.59176 0.03426 0.0
N991 N 0.31531 0.64124 0.11566 0.0
C992 C 0.3389 0.60138 0.05373 0.0
C993 C 0.31997 0.6269 0.09539 0.0
N994 N 0.35339 0.5539 0.07231 0.0
N995 N 0.29119 0.66644 0.07565 0.0
H996 H 0.32114 0.6311 0.13081 0.0
H997 H 0.308 0.66423 0.11747 0.0
H998 H 0.28377 0.67762 0.06125 0.0
H999 H 0.27958 0.67393 0.08982 0.0
H1000 H 0.35651 0.54147 0.0574 0.0
H1001 H 0.35669 0.54052 0.08643 0.0
H1002 H 0.36727 0.57293 0.03307 0.0
H1003 H 0.35004 0.60406 0.01956 0.0
C1004 C 0.42429 0.87615 0.34371 0.0
C1005 C 0.43209 0.85613 0.36136 0.0
C1006 C 0.40553 0.81324 0.34113 0.0
C1007 C 0.3927 0.83465 0.32587 0.0
N1008 N 0.38695 0.88795 0.31435 0.0
N1009 N 0.42699 0.80606 0.37827 0.0
C1010 C 0.40161 0.86648 0.32734 0.0
C1011 C 0.4222 0.82464 0.36038 0.0
N1012 N 0.43851 0.90446 0.3427 0.0
N1013 N 0.4022 0.78199 0.33705 0.0
H1014 H 0.43862 0.81347 0.39293 0.0
H1015 H 0.41707 0.78407 0.37928 0.0
H1016 H 0.39089 0.77283 0.32272 0.0
H1017 H 0.41351 0.76532 0.34659 0.0
H1018 H 0.43589 0.91885 0.32909 0.0
H1019 H 0.45539 0.91204 0.35445 0.0
H1020 H 0.39034 0.91182 0.31657 0.0
H1021 H 0.36918 0.88242 0.30278 0.0
C1022 C 0.14553 0.92748 0.58465 0.0
C1023 C 0.14905 0.90917 0.60387 0.0
C1024 C 0.19125 0.87961 0.58664 0.0
C1025 C 0.18723 0.89738 0.56717 0.0
N1026 N 0.16484 0.94132 0.54853 0.0
N1027 N 0.17802 0.87171 0.62518 0.0
C1028 C 0.16583 0.92248 0.56653 0.0
C1029 C 0.1729 0.88649 0.6055 0.0
N1030 N 0.122 0.94882 0.58349 0.0
N1031 N 0.21221 0.85567 0.58681 0.0
H1032 H 0.16436 0.87536 0.6391 0.0
H1033 H 0.19691 0.85727 0.6284 0.0
H1034 H 0.22773 0.85149 0.574 0.0
H1035 H 0.21371 0.83918 0.59914 0.0
H1036 H 0.1156 0.96052 0.56913 0.0
H1037 H 0.10766 0.95398 0.59684 0.0
H1038 H 0.15208 0.96182 0.54782 0.0
H1039 H 0.17843 0.93756 0.53459 0.0
C1040 C 0.58937 0.37825 0.93488 0.0
C1041 C 0.59868 0.36141 0.91552 0.0
C1042 C 0.63292 0.3286 0.93824 0.0
C1043 C 0.62328 0.34514 0.95766 0.0
N1044 N 0.58924 0.38219 0.97537 0.0
N1045 N 0.62497 0.31771 0.89855 0.0
C1046 C 0.60041 0.36883 0.95625 0.0
C1047 C 0.61918 0.33568 0.91716 0.0
N1048 N 0.57084 0.40389 0.93269 0.0
N1049 N 0.65561 0.30642 0.93996 0.0
H1050 H 0.61586 0.3226 0.88274 0.0
H1051 H 0.63693 0.2967 0.89886 0.0
H1052 H 0.6647 0.299 0.95521 0.0
H1053 H 0.6666 0.29628 0.92635 0.0
H1054 H 0.56597 0.41937 0.94576 0.0
H1055 H 0.56158 0.41082 0.91736 0.0
H1056 H 0.57031 0.39723 0.97571 0.0
H1057 H 0.59766 0.37667 0.99125 0.0
C1058 C 0.69582 0.14332 0.13945 0.0
C1059 C 0.70109 0.11105 0.14199 0.0
C1060 C 0.72457 0.12114 0.17914 0.0
C1061 C 0.71655 0.15302 0.17741 0.0
N1062 N 0.68965 0.19367 0.15771 0.0
N1063 N 0.71716 0.06831 0.16468 0.0
C1064 C 0.70098 0.16396 0.158 0.0
C1065 C 0.71456 0.09965 0.16198 0.0
N1066 N 0.68617 0.15428 0.11921 0.0
N1067 N 0.74273 0.11166 0.19675 0.0
H1068 H 0.71101 0.05203 0.15211 0.0
H1069 H 0.72347 0.05836 0.17976 0.0
H1070 H 0.75069 0.12679 0.20954 0.0
H1071 H 0.75204 0.0894 0.19781 0.0
H1072 H 0.68542 0.17783 0.11566 0.0
H1073 H 0.68134 0.13987 0.10528 0.0
H1074 H 0.67503 0.20185 0.14505 0.0
H1075 H 0.69237 0.20946 0.17111 0.0
C1076 C 0.87427 0.16831 0.42778 0.0
C1077 C 0.90704 0.16835 0.4312 0.0
C1078 C 0.9011 0.18038 0.47099 0.0
C1079 C 0.86831 0.17874 0.46777 0.0
N1080 N 0.8237 0.16485 0.44437 0.0
N1081 N 0.95186 0.16873 0.45617 0.0
C1082 C 0.85487 0.17087 0.4465 0.0
C1083 C 0.92053 0.17257 0.45289 0.0
N1084 N 0.86169 0.16688 0.40658 0.0
N1085 N 0.91365 0.19091 0.49099 0.0
H1086 H 0.96677 0.16342 0.44318 0.0
H1087 H 0.96271 0.16824 0.47188 0.0
H1088 H 0.90023 0.19708 0.50463 0.0
H1089 H 0.93716 0.19595 0.49358 0.0
H1090 H 0.83819 0.17049 0.4029 0.0
H1091 H 0.87506 0.16436 0.3924 0.0
H1092 H 0.81306 0.15582 0.42979 0.0
H1093 H 0.8088 0.16613 0.45779 0.0
C1094 C 0.86998 0.38919 0.66272 0.0
C1095 C 0.89445 0.41103 0.66656 0.0
C1096 C 0.88196 0.41556 0.70621 0.0
C1097 C 0.85924 0.39182 0.70272 0.0
N1098 N 0.83143 0.3554 0.67828 0.0
N1099 N 0.92516 0.44429 0.69142 0.0
C1100 C 0.85311 0.37856 0.6811 0.0
C1101 C 0.90068 0.42421 0.68815 0.0
N1102 N 0.86269 0.37895 0.6414 0.0
N1103 N 0.88565 0.42972 0.72681 0.0
H1104 H 0.93848 0.45205 0.67841 0.0
H1105 H 0.93343 0.45219 0.70701 0.0
H1106 H 0.87363 0.42288 0.74071 0.0
H1107 H 0.89929 0.44936 0.73007 0.0
H1108 H 0.84305 0.36586 0.63695 0.0
H1109 H 0.87538 0.385 0.6276 0.0
H1110 H 0.82849 0.34181 0.66376 0.0
H1111 H 0.81683 0.34873 0.69089 0.0
C1112 C 0.61723 0.11415 0.29864 0.0
C1113 C 0.63137 0.11616 0.32026 0.0
C1114 C 0.68018 0.13314 0.30433 0.0
C1115 C 0.66486 0.13512 0.28317 0.0
N1116 N 0.61785 0.13081 0.26038 0.0
N1117 N 0.67502 0.13129 0.34434 0.0
C1118 C 0.63318 0.12621 0.28028 0.0
C1119 C 0.66258 0.12651 0.3233 0.0
N1120 N 0.58873 0.10039 0.29568 0.0
N1121 N 0.71175 0.13669 0.30617 0.0
H1122 H 0.66307 0.12654 0.35875 0.0
H1123 H 0.69629 0.1423 0.3476 0.0
H1124 H 0.72552 0.141 0.29254 0.0
H1125 H 0.72463 0.13233 0.3207 0.0
H1126 H 0.57852 0.09531 0.28006 0.0
H1127 H 0.5764 0.09157 0.30884 0.0
H1128 H 0.59392 0.12808 0.25803 0.0
H1129 H 0.62859 0.13976 0.24657 0.0
C1130 C 0.83863 0.1647 0.60928 0.0
C1131 C 0.84726 0.13445 0.6017 0.0
C1132 C 0.8238 0.14463 0.56499 0.0
C1133 C 0.81902 0.17618 0.57176 0.0
N1134 N 0.82847 0.21772 0.59907 0.0
N1135 N 0.85274 0.09722 0.57127 0.0
C1136 C 0.82823 0.18667 0.59357 0.0
C1137 C 0.84121 0.12484 0.57922 0.0
N1138 N 0.83934 0.17219 0.63158 0.0
N1139 N 0.81047 0.13311 0.54553 0.0
H1140 H 0.86572 0.08217 0.5812 0.0
H1141 H 0.85182 0.09061 0.55443 0.0
H1142 H 0.79632 0.14637 0.53508 0.0
H1143 H 0.81074 0.10959 0.54092 0.0
H1144 H 0.83029 0.1929 0.63807 0.0
H1145 H 0.84587 0.15644 0.64375 0.0
H1146 H 0.83796 0.22666 0.61408 0.0
H1147 H 0.82234 0.23483 0.58779 0.0
C1148 C 0.91855 0.37256 0.83675 0.0
C1149 C 0.90251 0.38549 0.85512 0.0
C1150 C 0.85296 0.37874 0.83461 0.0
C1151 C 0.86843 0.3612 0.81796 0.0
N1152 N 0.91572 0.33952 0.80337 0.0
N1153 N 0.85416 0.39849 0.87274 0.0
C1154 C 0.90127 0.35795 0.81885 0.0
C1155 C 0.86963 0.38829 0.85431 0.0
N1156 N 0.95025 0.37445 0.83644 0.0
N1157 N 0.8224 0.38662 0.83136 0.0
H1158 H 0.86539 0.40574 0.88761 0.0
H1159 H 0.83007 0.39749 0.87391 0.0
H1160 H 0.80966 0.38031 0.81688 0.0
H1161 H 0.81065 0.40194 0.84191 0.0
H1162 H 0.96316 0.36816 0.8226 0.0
H1163 H 0.96349 0.38496 0.8494 0.0
H1164 H 0.93908 0.33332 0.80464 0.0
H1165 H 0.90389 0.32859 0.78992 0.0
C1166 C 0.62327 0.41206 0.0876 0.0
C1167 C 0.62198 0.39778 0.1086 0.0
C1168 C 0.65104 0.35336 0.09396 0.0
C1169 C 0.6564 0.36947 0.07412 0.0
N1170 N 0.65147 0.41673 0.05343 0.0
N1171 N 0.64193 0.35856 0.13332 0.0
C1172 C 0.64345 0.39953 0.07119 0.0
C1173 C 0.63799 0.3695 0.11225 0.0
N1174 N 0.60478 0.43707 0.08314 0.0
N1175 N 0.65722 0.32227 0.09513 0.0
H1176 H 0.63411 0.37045 0.14747 0.0
H1177 H 0.65607 0.33956 0.13691 0.0
H1178 H 0.66494 0.30893 0.08159 0.0
H1179 H 0.65108 0.30908 0.10866 0.0
H1180 H 0.60248 0.44646 0.06735 0.0
H1181 H 0.58963 0.44668 0.09472 0.0
H1182 H 0.64517 0.43995 0.05177 0.0
H1183 H 0.66679 0.4088 0.04137 0.0
loop_
_geom_bond_atom_site_label_1
_geom_bond_atom_site_label_2
_geom_bond_distance
_geom_bond_site_symmetry_2
_ccdc_geom_bond_type
H0 C27 0.929 . S
N1 C26 1.433 . S
N1 C32 1.435 . S
N1 C38 1.423 . S
H2 C28 0.930 . S
H3 C31 0.931 . S
H4 C30 0.929 . S
H5 C33 0.930 . S
H6 C34 0.932 . S
H7 C37 0.929 . S
H8 C36 0.931 . S
H9 C39 0.926 1_545 S
H10 C43 0.932 . S
H11 C40 0.931 . S
H12 C42 0.929 . S
H13 C45 0.929 . S
H14 C46 0.930 . S
H15 C48 0.929 . S
H16 C49 0.931 . S
H17 C51 0.930 . S
H18 C52 0.932 . S
H19 C54 0.931 . S
H20 C55 0.929 . S
H21 C57 0.929 . S
H22 C58 0.931 . S
H23 C60 0.929 . S
N24 C44 1.433 . S
N24 C50 1.435 . S
N24 C56 1.423 . S
H25 C61 0.932 . S
C26 N1 1.433 . S
C26 C27 1.363 . S
C26 C31 1.370 . S
C27 H0 0.929 . S
C27 C26 1.363 . S
C27 C28 1.385 . S
C28 H2 0.930 . S
C28 C27 1.385 . S
C28 C29 1.357 . S
C29 C28 1.357 . S
C29 C30 1.406 . S
C30 H4 0.929 . S
C30 C29 1.406 . S
C30 C31 1.391 . S
C31 H3 0.931 . S
C31 C26 1.370 . S
C31 C30 1.391 . S
C32 N1 1.435 . S
C32 C33 1.358 . S
C32 C37 1.371 . S
C33 H5 0.930 . S
C33 C32 1.358 . S
C33 C34 1.405 . S
C34 H6 0.932 . S
C34 C33 1.405 . S
C34 C35 1.383 . S
C35 C34 1.383 . S
C35 C36 1.393 . S
C36 H8 0.931 . S
C36 C35 1.393 . S
C36 C37 1.382 . S
C37 H7 0.929 . S
C37 C32 1.371 . S
C37 C36 1.382 . S
C38 N1 1.423 . S
C38 C39 1.386 . S
C38 C43 1.388 . S
C39 H9 0.926 1_565 S
C39 C38 1.386 . S
C39 C40 1.357 1_565 S
C40 H11 0.931 . S
C40 C39 1.357 1_545 S
C40 C41 1.396 . S
C41 C40 1.396 . S
C41 C42 1.348 1_545 S
C41 C59 1.472 . S
C42 H12 0.929 . S
C42 C41 1.348 1_565 S
C42 C43 1.443 . S
C43 H10 0.932 . S
C43 C38 1.388 . S
C43 C42 1.443 . S
C44 N24 1.433 . S
C44 C45 1.363 . S
C44 C49 1.370 . S
C45 H13 0.929 . S
C45 C44 1.363 . S
C45 C46 1.385 . S
C46 H14 0.930 . S
C46 C45 1.385 . S
C46 C47 1.357 . S
C47 C46 1.357 . S
C47 C48 1.406 . S
C48 H15 0.929 . S
C48 C47 1.406 . S
C48 C49 1.391 . S
C49 H16 0.931 . S
C49 C44 1.370 . S
C49 C48 1.391 . S
C50 N24 1.435 . S
C50 C51 1.358 . S
C50 C55 1.371 . S
C51 H17 0.930 . S
C51 C50 1.358 . S
C51 C52 1.405 . S
C52 H18 0.932 . S
C52 C51 1.405 . S
C52 C53 1.383 . S
C53 C52 1.383 . S
C53 C54 1.393 . S
C54 H19 0.931 . S
C54 C53 1.393 . S
C54 C55 1.382 . S
C55 H20 0.929 . S
C55 C50 1.371 . S
C55 C54 1.382 . S
C56 N24 1.423 . S
C56 C57 1.362 1_655 S
C56 C61 1.388 . S
C57 H21 0.929 . S
C57 C56 1.362 1_455 S
C57 C58 1.376 . S
C58 H22 0.931 . S
C58 C57 1.376 . S
C58 C59 1.396 . S
C59 C41 1.472 . S
C59 C58 1.396 . S
C59 C60 1.348 . S
C60 H23 0.929 . S
C60 C59 1.348 . S
C60 C61 1.443 1_455 S
C61 H25 0.932 . S
C61 C56 1.388 . S
C61 C60 1.443 1_655 S
H62 C89 0.929 . S
N63 C88 1.433 . S
N63 C94 1.435 . S
N63 C100 1.423 . S
H64 C90 0.930 . S
H65 C93 0.931 . S
H66 C92 0.929 . S
H67 C95 0.930 . S
H68 C96 0.932 . S
H69 C99 0.929 . S
H70 C98 0.931 . S
H71 C101 0.929 . S
H72 C105 0.932 . S
H73 C102 0.931 . S
H74 C104 0.929 . S
H75 C107 0.929 . S
H76 C108 0.930 . S
H77 C110 0.929 . S
H78 C111 0.931 . S
H79 C113 0.930 . S
H80 C114 0.932 . S
H81 C116 0.931 . S
H82 C117 0.929 . S
H83 C119 0.929 . S
H84 C120 0.931 . S
H85 C122 0.929 . S
N86 C106 1.433 . S
N86 C112 1.435 . S
N86 C118 1.423 . S
H87 C123 0.932 . S
C88 N63 1.433 . S
C88 C89 1.363 . S
C88 C93 1.370 . S
C89 H62 0.929 . S
C89 C88 1.363 . S
C89 C90 1.385 . S
C90 H64 0.930 . S
C90 C89 1.385 . S
C90 C91 1.357 . S
C91 C90 1.357 . S
C91 C92 1.406 . S
C92 H66 0.929 . S
C92 C91 1.406 . S
C92 C93 1.391 . S
C93 H65 0.931 . S
C93 C88 1.370 . S
C93 C92 1.391 . S
C94 N63 1.435 . S
C94 C95 1.358 . S
C94 C99 1.371 . S
C95 H67 0.930 . S
C95 C94 1.358 . S
C95 C96 1.405 . S
C96 H68 0.932 . S
C96 C95 1.405 . S
C96 C97 1.383 . S
C97 C96 1.383 . S
C97 C98 1.393 . S
C98 H70 0.931 . S
C98 C97 1.393 . S
C98 C99 1.382 . S
C99 H69 0.929 . S
C99 C94 1.371 . S
C99 C98 1.382 . S
C100 N63 1.423 . S
C100 C101 1.362 . S
C100 C105 1.388 . S
C101 H71 0.929 . S
C101 C100 1.362 . S
C101 C102 1.376 1_655 S
C102 H73 0.931 . S
C102 C101 1.376 1_455 S
C102 C103 1.396 . S
C103 C102 1.396 . S
C103 C104 1.348 1_455 S
C103 C121 1.472 . S
C104 H74 0.929 . S
C104 C103 1.348 1_655 S
C104 C105 1.443 . S
C105 H72 0.932 . S
C105 C100 1.388 . S
C105 C104 1.443 . S
C106 N86 1.433 . S
C106 C107 1.363 . S
C106 C111 1.370 . S
C107 H75 0.929 . S
C107 C106 1.363 . S
C107 C108 1.385 . S
C108 H76 0.930 . S
C108 C107 1.385 . S
C108 C109 1.357 . S
C109 C108 1.357 . S
C109 C110 1.406 . S
C110 H77 0.929 . S
C110 C109 1.406 . S
C110 C111 1.391 . S
C111 H78 0.931 . S
C111 C106 1.370 . S
C111 C110 1.391 . S
C112 N86 1.435 . S
C112 C113 1.358 . S
C112 C117 1.371 . S
C113 H79 0.930 . S
C113 C112 1.358 . S
C113 C114 1.405 . S
C114 H80 0.932 . S
C114 C113 1.405 . S
C114 C115 1.383 . S
C115 C114 1.383 . S
C115 C116 1.393 . S
C116 H81 0.931 . S
C116 C115 1.393 . S
C116 C117 1.382 . S
C117 H82 0.929 . S
C117 C112 1.371 . S
C117 C116 1.382 . S
C118 N86 1.423 . S
C118 C119 1.362 . S
C118 C123 1.388 . S
C119 H83 0.929 . S
C119 C118 1.362 . S
C119 C120 1.376 . S
C120 H84 0.931 . S
C120 C119 1.376 . S
C120 C121 1.396 . S
C121 C103 1.472 . S
C121 C120 1.396 . S
C121 C122 1.348 . S
C122 H85 0.929 . S
C122 C121 1.348 . S
C122 C123 1.443 . S
C123 H87 0.932 . S
C123 C118 1.388 . S
C123 C122 1.443 . S
H124 C151 0.929 . S
N125 C150 1.433 . S
N125 C156 1.435 . S
N125 C162 1.423 . S
H126 C152 0.930 . S
H127 C155 0.931 . S
H128 C154 0.929 . S
H129 C157 0.930 . S
H130 C158 0.932 . S
H131 C161 0.929 . S
H132 C160 0.931 . S
H133 C163 0.929 . S
H134 C167 0.932 . S
H135 C164 0.931 . S
H136 C166 0.929 . S
H137 C169 0.929 . S
H138 C170 0.930 . S
H139 C172 0.929 . S
H140 C173 0.931 . S
H141 C175 0.930 . S
H142 C176 0.932 . S
H143 C178 0.931 . S
H144 C179 0.929 . S
H145 C181 0.929 . S
H146 C182 0.931 . S
H147 C184 0.929 . S
N148 C168 1.433 . S
N148 C174 1.435 . S
N148 C180 1.423 . S
H149 C185 0.932 . S
C150 N125 1.433 . S
C150 C151 1.363 . S
C150 C155 1.370 . S
C151 H124 0.929 . S
C151 C150 1.363 . S
C151 C152 1.385 . S
C152 H126 0.930 . S
C152 C151 1.385 . S
C152 C153 1.357 . S
C153 C152 1.357 . S
C153 C154 1.406 . S
C154 H128 0.929 . S
C154 C153 1.406 . S
C154 C155 1.391 . S
C155 H127 0.931 . S
C155 C150 1.370 . S
C155 C154 1.391 . S
C156 N125 1.435 . S
C156 C157 1.358 . S
C156 C161 1.371 . S
C157 H129 0.930 . S
C157 C156 1.358 . S
C157 C158 1.405 . S
C158 H130 0.932 . S
C158 C157 1.405 . S
C158 C159 1.383 . S
C159 C158 1.383 . S
C159 C160 1.393 . S
C160 H132 0.931 . S
C160 C159 1.393 . S
C160 C161 1.382 . S
C161 H131 0.929 . S
C161 C156 1.371 . S
C161 C160 1.382 . S
C162 N125 1.423 . S
C162 C163 1.362 . S
C162 C167 1.388 . S
C163 H133 0.929 . S
C163 C162 1.362 . S
C163 C164 1.376 . S
C164 H135 0.931 . S
C164 C163 1.376 . S
C164 C165 1.396 . S
C165 C164 1.396 . S
C165 C166 1.348 . S
C165 C183 1.472 . S
C166 H136 0.929 . S
C166 C165 1.348 . S
C166 C167 1.443 . S
C167 H134 0.932 . S
C167 C162 1.388 . S
C167 C166 1.443 . S
C168 N148 1.433 . S
C168 C169 1.363 . S
C168 C173 1.370 . S
C169 H137 0.929 . S
C169 C168 1.363 . S
C169 C170 1.385 . S
C170 H138 0.930 . S
C170 C169 1.385 . S
C170 C171 1.357 . S
C171 C170 1.357 . S
C171 C172 1.406 . S
C172 H139 0.929 . S
C172 C171 1.406 . S
C172 C173 1.391 . S
C173 H140 0.931 . S
C173 C168 1.370 . S
C173 C172 1.391 . S
C174 N148 1.435 . S
C174 C175 1.358 . S
C174 C179 1.371 . S
C175 H141 0.930 . S
C175 C174 1.358 . S
C175 C176 1.405 . S
C176 H142 0.932 . S
C176 C175 1.405 . S
C176 C177 1.383 . S
C177 C176 1.383 . S
C177 C178 1.393 . S
C178 H143 0.931 . S
C178 C177 1.393 . S
C178 C179 1.382 . S
C179 H144 0.929 . S
C179 C174 1.371 . S
C179 C178 1.382 . S
C180 N148 1.423 . S
C180 C181 1.362 . S
C180 C185 1.388 . S
C181 H145 0.929 . S
C181 C180 1.362 . S
C181 C182 1.376 . S
C182 H146 0.931 . S
C182 C181 1.376 . S
C182 C183 1.396 . S
C183 C165 1.472 . S
C183 C182 1.396 . S
C183 C184 1.348 . S
C184 H147 0.929 . S
C184 C183 1.348 . S
C184 C185 1.443 . S
C185 H149 0.932 . S
C185 C180 1.388 . S
C185 C184 1.443 . S
H186 C213 0.929 . S
N187 C212 1.433 . S
N187 C218 1.435 . S
N187 C224 1.423 . S
H188 C214 0.930 . S
H189 C217 0.931 . S
H190 C216 0.929 . S
H191 C219 0.930 . S
H192 C220 0.932 . S
H193 C223 0.929 . S
H194 C222 0.931 1_556 S
H195 C225 0.929 . S
H196 C229 0.932 . S
H197 C226 0.931 . S
H198 C228 0.929 . S
H199 C231 0.929 . S
H200 C232 0.930 . S
H201 C234 0.929 . S
H202 C235 0.931 . S
H203 C237 0.930 . S
H204 C238 0.932 . S
H205 C240 0.889 1_556 S
H206 C241 0.929 . S
H207 C243 0.929 . S
H208 C244 0.931 1_565 S
H209 C246 0.929 . S
N210 C230 1.433 . S
N210 C236 1.435 . S
N210 C242 1.423 . S
H211 C247 0.932 . S
C212 N187 1.433 . S
C212 C213 1.363 . S
C212 C217 1.370 . S
C213 H186 0.929 . S
C213 C212 1.363 . S
C213 C214 1.385 . S
C214 H188 0.930 . S
C214 C213 1.385 . S
C214 C215 1.357 . S
C215 C214 1.357 . S
C215 C216 1.406 . S
C216 H190 0.929 . S
C216 C215 1.406 . S
C216 C217 1.391 . S
C217 H189 0.931 . S
C217 C212 1.370 . S
C217 C216 1.391 . S
C218 N187 1.435 . S
C218 C219 1.358 . S
C218 C223 1.371 . S
C219 H191 0.930 . S
C219 C218 1.358 . S
C219 C220 1.405 . S
C220 H192 0.932 . S
C220 C219 1.405 . S
C220 C221 1.383 . S
C221 C220 1.383 . S
C221 C222 1.393 . S
C222 H194 0.931 1_554 S
C222 C221 1.393 . S
C222 C223 1.382 . S
C223 H193 0.929 . S
C223 C218 1.371 . S
C223 C222 1.382 . S
C224 N187 1.423 . S
C224 C225 1.362 . S
C224 C229 1.388 . S
C225 H195 0.929 . S
C225 C224 1.362 . S
C225 C226 1.376 . S
C226 H197 0.931 . S
C226 C225 1.376 . S
C226 C227 1.396 . S
C227 C226 1.396 . S
C227 C228 1.348 . S
C227 C245 1.472 1_565 S
C228 H198 0.929 . S
C228 C227 1.348 . S
C228 C229 1.443 . S
C229 H196 0.932 . S
C229 C224 1.388 . S
C229 C228 1.443 . S
C230 N210 1.433 . S
C230 C231 1.363 . S
C230 C235 1.370 . S
C231 H199 0.929 . S
C231 C230 1.363 . S
C231 C232 1.385 . S
C232 H200 0.930 . S
C232 C231 1.385 . S
C232 C233 1.357 . S
C233 C232 1.357 . S
C233 C234 1.406 . S
C234 H201 0.929 . S
C234 C233 1.406 . S
C234 C235 1.391 . S
C235 H202 0.931 . S
C235 C230 1.370 . S
C235 C234 1.391 . S
C236 N210 1.435 . S
C236 C237 1.358 . S
C236 C241 1.371 . S
C237 H203 0.930 . S
C237 C236 1.358 . S
C237 C238 1.405 . S
C238 H204 0.932 . S
C238 C237 1.405 . S
C238 C239 1.383 . S
C239 C238 1.383 . S
C239 C240 1.393 . S
C240 H205 0.889 1_554 S
C240 C239 1.393 . S
C240 C241 1.382 . S
C241 H206 0.929 . S
C241 C236 1.371 . S
C241 C240 1.382 . S
C242 N210 1.423 . S
C242 C243 1.362 . S
C242 C247 1.388 . S
C243 H207 0.929 . S
C243 C242 1.362 . S
C243 C244 1.376 . S
C244 H208 0.931 1_545 S
C244 C243 1.376 . S
C244 C245 1.396 . S
C245 C227 1.472 1_545 S
C245 C244 1.396 . S
C245 C246 1.348 . S
C246 H209 0.929 . S
C246 C245 1.348 . S
C246 C247 1.443 . S
C247 H211 0.932 . S
C247 C242 1.388 . S
C247 C246 1.443 . S
H248 C275 0.929 . S
N249 C274 1.433 . S
N249 C280 1.435 . S
N249 C286 1.423 . S
H250 C276 0.930 . S
H251 C279 0.931 . S
H252 C278 0.929 . S
H253 C281 0.930 . S
H254 C282 0.932 . S
H255 C285 0.929 . S
H256 C284 0.931 . S
H257 C287 0.929 . S
H258 C291 0.932 . S
H259 C288 0.931 . S
H260 C290 0.929 . S
H261 C293 0.929 . S
H262 C294 0.930 . S
H263 C296 0.929 . S
H264 C297 0.931 . S
H265 C299 0.930 . S
H266 C300 0.932 . S
H267 C302 0.931 1_554 S
H268 C303 0.929 . S
H269 C305 0.929 . S
H270 C306 0.931 1_455 S
H271 C308 0.929 . S
N272 C292 1.433 . S
N272 C298 1.435 . S
N272 C304 1.423 . S
H273 C309 0.932 . S
C274 N249 1.433 . S
C274 C275 1.363 . S
C274 C279 1.370 . S
C275 H248 0.929 . S
C275 C274 1.363 . S
C275 C276 1.385 . S
C276 H250 0.930 . S
C276 C275 1.385 . S
C276 C277 1.357 . S
C277 C276 1.357 . S
C277 C278 1.406 . S
C278 H252 0.929 . S
C278 C277 1.406 . S
C278 C279 1.391 . S
C279 H251 0.931 . S
C279 C274 1.370 . S
C279 C278 1.391 . S
C280 N249 1.435 . S
C280 C281 1.358 . S
C280 C285 1.371 . S
C281 H253 0.930 . S
C281 C280 1.358 . S
C281 C282 1.405 . S
C282 H254 0.932 . S
C282 C281 1.405 . S
C282 C283 1.383 1_556 S
C283 C282 1.383 1_554 S
C283 C284 1.393 . S
C284 H256 0.931 . S
C284 C283 1.393 . S
C284 C285 1.382 1_554 S
C285 H255 0.929 . S
C285 C280 1.371 . S
C285 C284 1.382 1_556 S
C286 N249 1.423 . S
C286 C287 1.362 . S
C286 C291 1.388 . S
C287 H257 0.929 . S
C287 C286 1.362 . S
C287 C288 1.376 . S
C288 H259 0.931 . S
C288 C287 1.376 . S
C288 C289 1.396 . S
C289 C288 1.396 . S
C289 C290 1.348 . S
C289 C307 1.500 . S
C290 H260 0.929 . S
C290 C289 1.348 . S
C290 C291 1.443 . S
C291 H258 0.932 . S
C291 C286 1.388 . S
C291 C290 1.443 . S
C292 N272 1.433 . S
C292 C293 1.363 . S
C292 C297 1.370 . S
C293 H261 0.929 . S
C293 C292 1.363 . S
C293 C294 1.385 . S
C294 H262 0.930 . S
C294 C293 1.385 . S
C294 C295 1.357 . S
C295 C294 1.357 . S
C295 C296 1.406 . S
C296 H263 0.929 . S
C296 C295 1.406 . S
C296 C297 1.391 . S
C297 H264 0.931 . S
C297 C292 1.370 . S
C297 C296 1.391 . S
C298 N272 1.435 . S
C298 C299 1.358 . S
C298 C303 1.371 . S
C299 H265 0.930 . S
C299 C298 1.358 . S
C299 C300 1.405 . S
C300 H266 0.932 . S
C300 C299 1.405 . S
C300 C301 1.383 . S
C301 C300 1.383 . S
C301 C302 1.393 . S
C302 H267 0.931 1_556 S
C302 C301 1.393 . S
C302 C303 1.382 . S
C303 H268 0.929 . S
C303 C298 1.371 . S
C303 C302 1.382 . S
C304 N272 1.423 . S
C304 C305 1.362 . S
C304 C309 1.388 . S
C305 H269 0.929 . S
C305 C304 1.362 . S
C305 C306 1.376 . S
C306 H270 0.931 1_655 S
C306 C305 1.376 . S
C306 C307 1.392 1_655 S
C307 C289 1.500 . S
C307 C306 1.392 1_455 S
C307 C308 1.322 1_455 S
C308 H271 0.929 . S
C308 C307 1.322 1_655 S
C308 C309 1.443 . S
C309 H273 0.932 . S
C309 C304 1.388 . S
C309 C308 1.443 . S
H310 C337 0.929 . S
N311 C336 1.433 . S
N311 C342 1.435 . S
N311 C348 1.423 . S
H312 C338 0.930 . S
H313 C341 0.931 . S
H314 C340 0.929 . S
H315 C343 0.930 . S
H316 C344 0.932 . S
H317 C347 0.929 . S
H318 C346 0.931 . S
H319 C349 0.929 . S
H320 C353 0.932 . S
H321 C350 0.931 . S
H322 C352 0.929 . S
H323 C355 0.929 . S
H324 C356 0.930 . S
H325 C358 0.929 . S
H326 C359 0.931 . S
H327 C361 0.930 . S
H328 C362 0.932 . S
H329 C364 0.931 . S
H330 C365 0.929 . S
H331 C367 0.929 . S
H332 C368 0.931 . S
H333 C370 0.929 . S
N334 C354 1.433 . S
N334 C360 1.435 . S
N334 C366 1.423 . S
H335 C371 0.932 . S
C336 N311 1.433 . S
C336 C337 1.363 . S
C336 C341 1.370 . S
C337 H310 0.929 . S
C337 C336 1.363 . S
C337 C338 1.385 . S
C338 H312 0.930 . S
C338 C337 1.385 . S
C338 C339 1.357 . S
C339 C338 1.357 . S
C339 C340 1.406 . S
C340 H314 0.929 . S
C340 C339 1.406 . S
C340 C341 1.391 . S
C341 H313 0.931 . S
C341 C336 1.370 . S
C341 C340 1.391 . S
C342 N311 1.435 . S
C342 C343 1.358 . S
C342 C347 1.371 . S
C343 H315 0.930 . S
C343 C342 1.358 . S
C343 C344 1.405 . S
C344 H316 0.932 . S
C344 C343 1.405 . S
C344 C345 1.383 . S
C345 C344 1.383 . S
C345 C346 1.393 . S
C346 H318 0.931 . S
C346 C345 1.393 . S
C346 C347 1.382 . S
C347 H317 0.929 . S
C347 C342 1.371 . S
C347 C346 1.382 . S
C348 N311 1.423 . S
C348 C349 1.362 . S
C348 C353 1.388 . S
C349 H319 0.929 . S
C349 C348 1.362 . S
C349 C350 1.376 . S
C350 H321 0.931 . S
C350 C349 1.376 . S
C350 C351 1.396 . S
C351 C350 1.396 . S
C351 C352 1.348 . S
C351 C369 1.472 . S
C352 H322 0.929 . S
C352 C351 1.348 . S
C352 C353 1.443 . S
C353 H320 0.932 . S
C353 C348 1.388 . S
C353 C352 1.443 . S
C354 N334 1.433 . S
C354 C355 1.363 . S
C354 C359 1.370 . S
C355 H323 0.929 . S
C355 C354 1.363 . S
C355 C356 1.385 . S
C356 H324 0.930 . S
C356 C355 1.385 . S
C356 C357 1.357 . S
C357 C356 1.357 . S
C357 C358 1.406 . S
C358 H325 0.929 . S
C358 C357 1.406 . S
C358 C359 1.391 . S
C359 H326 0.931 . S
C359 C354 1.370 . S
C359 C358 1.391 . S
C360 N334 1.435 . S
C360 C361 1.358 . S
C360 C365 1.371 . S
C361 H327 0.930 . S
C361 C360 1.358 . S
C361 C362 1.405 . S
C362 H328 0.932 . S
C362 C361 1.405 . S
C362 C363 1.383 . S
C363 C362 1.383 . S
C363 C364 1.393 . S
C364 H329 0.931 . S
C364 C363 1.393 . S
C364 C365 1.382 . S
C365 H330 0.929 . S
C365 C360 1.371 . S
C365 C364 1.382 . S
C366 N334 1.423 . S
C366 C367 1.362 . S
C366 C371 1.388 . S
C367 H331 0.929 . S
C367 C366 1.362 . S
C367 C368 1.376 . S
C368 H332 0.931 . S
C368 C367 1.376 . S
C368 C369 1.396 . S
C369 C351 1.472 . S
C369 C368 1.396 . S
C369 C370 1.348 . S
C370 H333 0.929 . S
C370 C369 1.348 . S
C370 C371 1.443 . S
C371 H335 0.932 . S
C371 C366 1.388 . S
C371 C370 1.443 . S
H372 C399 0.929 . S
N373 C398 1.433 . S
N373 C404 1.435 . S
N373 C410 1.423 . S
H374 C400 0.930 . S
H375 C403 0.931 . S
H376 C402 0.929 . S
H377 C405 0.930 . S
H378 C406 0.932 . S
H379 C409 0.929 . S
H380 C408 0.931 . S
H381 C411 0.927 1_545 S
H382 C415 0.932 . S
H383 C412 0.931 . S
H384 C414 0.929 . S
H385 C417 0.929 . S
H386 C418 0.930 . S
H387 C420 0.929 . S
H388 C421 0.931 . S
H389 C423 0.930 . S
H390 C424 0.932 . S
H391 C426 0.931 . S
H392 C427 0.929 . S
H393 C429 0.929 . S
H394 C430 0.931 . S
H395 C432 0.929 . S
N396 C416 1.433 . S
N396 C422 1.435 . S
N396 C428 1.423 . S
H397 C433 0.932 . S
C398 N373 1.433 . S
C398 C399 1.363 . S
C398 C403 1.370 . S
C399 H372 0.929 . S
C399 C398 1.363 . S
C399 C400 1.385 . S
C400 H374 0.930 . S
C400 C399 1.385 . S
C400 C401 1.357 . S
C401 C400 1.357 . S
C401 C402 1.406 . S
C402 H376 0.929 . S
C402 C401 1.406 . S
C402 C403 1.391 . S
C403 H375 0.931 . S
C403 C398 1.370 . S
C403 C402 1.391 . S
C404 N373 1.435 . S
C404 C405 1.358 . S
C404 C409 1.371 . S
C405 H377 0.930 . S
C405 C404 1.358 . S
C405 C406 1.405 . S
C406 H378 0.932 . S
C406 C405 1.405 . S
C406 C407 1.383 . S
C407 C406 1.383 . S
C407 C408 1.393 . S
C408 H380 0.931 . S
C408 C407 1.393 . S
C408 C409 1.382 . S
C409 H379 0.929 . S
C409 C404 1.371 . S
C409 C408 1.382 . S
C410 N373 1.423 . S
C410 C411 1.362 . S
C410 C415 1.388 . S
C411 H381 0.927 1_565 S
C411 C410 1.362 . S
C411 C412 1.376 1_565 S
C412 H383 0.931 . S
C412 C411 1.376 1_545 S
C412 C413 1.396 . S
C413 C412 1.396 . S
C413 C414 1.348 1_545 S
C413 C431 1.472 . S
C414 H384 0.929 . S
C414 C413 1.348 1_565 S
C414 C415 1.443 . S
C415 H382 0.932 . S
C415 C410 1.388 . S
C415 C414 1.443 . S
C416 N396 1.433 . S
C416 C417 1.363 . S
C416 C421 1.370 . S
C417 H385 0.929 . S
C417 C416 1.363 . S
C417 C418 1.385 . S
C418 H386 0.930 . S
C418 C417 1.385 . S
C418 C419 1.357 . S
C419 C418 1.357 . S
C419 C420 1.406 . S
C420 H387 0.929 . S
C420 C419 1.406 . S
C420 C421 1.391 . S
C421 H388 0.931 . S
C421 C416 1.370 . S
C421 C420 1.391 . S
C422 N396 1.435 . S
C422 C423 1.358 . S
C422 C427 1.371 . S
C423 H389 0.930 . S
C423 C422 1.358 . S
C423 C424 1.405 . S
C424 H390 0.932 . S
C424 C423 1.405 . S
C424 C425 1.383 . S
C425 C424 1.383 . S
C425 C426 1.393 . S
C426 H391 0.931 . S
C426 C425 1.393 . S
C426 C427 1.382 . S
C427 H392 0.929 . S
C427 C422 1.371 . S
C427 C426 1.382 . S
C428 N396 1.423 . S
C428 C429 1.362 . S
C428 C433 1.388 . S
C429 H393 0.929 . S
C429 C428 1.362 . S
C429 C430 1.376 . S
C430 H394 0.931 . S
C430 C429 1.376 . S
C430 C431 1.396 . S
C431 C413 1.472 . S
C431 C430 1.396 . S
C431 C432 1.348 . S
C432 H395 0.929 . S
C432 C431 1.348 . S
C432 C433 1.443 . S
C433 H397 0.932 . S
C433 C428 1.388 . S
C433 C432 1.443 . S
H434 C461 0.929 . S
N435 C460 1.433 . S
N435 C466 1.435 . S
N435 C472 1.423 . S
H436 C462 0.930 . S
H437 C465 0.931 . S
H438 C464 0.929 . S
H439 C467 0.930 . S
H440 C468 0.932 . S
H441 C471 0.929 . S
H442 C470 0.931 . S
H443 C473 0.929 . S
H444 C477 0.932 . S
H445 C474 0.931 1_655 S
H446 C476 0.929 . S
H447 C479 0.929 . S
H448 C480 0.930 . S
H449 C482 0.929 . S
H450 C483 0.931 . S
H451 C485 0.930 . S
H452 C486 0.932 . S
H453 C488 0.931 . S
H454 C489 0.929 . S
H455 C491 0.929 . S
H456 C492 0.931 . S
H457 C494 0.929 1_455 S
N458 C478 1.433 . S
N458 C484 1.435 . S
N458 C490 1.423 . S
H459 C495 0.932 . S
C460 N435 1.433 . S
C460 C461 1.363 . S
C460 C465 1.370 . S
C461 H434 0.929 . S
C461 C460 1.363 . S
C461 C462 1.385 . S
C462 H436 0.930 . S
C462 C461 1.385 . S
C462 C463 1.357 . S
C463 C462 1.357 . S
C463 C464 1.406 . S
C464 H438 0.929 . S
C464 C463 1.406 . S
C464 C465 1.391 . S
C465 H437 0.931 . S
C465 C460 1.370 . S
C465 C464 1.391 . S
C466 N435 1.435 . S
C466 C467 1.358 . S
C466 C471 1.371 . S
C467 H439 0.930 . S
C467 C466 1.358 . S
C467 C468 1.405 . S
C468 H440 0.932 . S
C468 C467 1.405 . S
C468 C469 1.383 . S
C469 C468 1.383 . S
C469 C470 1.393 . S
C470 H442 0.931 . S
C470 C469 1.393 . S
C470 C471 1.382 . S
C471 H441 0.929 . S
C471 C466 1.371 . S
C471 C470 1.382 . S
C472 N435 1.423 . S
C472 C473 1.362 . S
C472 C477 1.388 . S
C473 H443 0.929 . S
C473 C472 1.362 . S
C473 C474 1.376 . S
C474 H445 0.931 1_455 S
C474 C473 1.376 . S
C474 C475 1.396 1_565 S
C475 C474 1.396 1_545 S
C475 C476 1.348 . S
C475 C493 1.472 1_455 S
C476 H446 0.929 . S
C476 C475 1.348 . S
C476 C477 1.443 1_545 S
C477 H444 0.932 . S
C477 C472 1.388 . S
C477 C476 1.443 1_565 S
C478 N458 1.433 . S
C478 C479 1.363 . S
C478 C483 1.370 . S
C479 H447 0.929 . S
C479 C478 1.363 . S
C479 C480 1.385 . S
C480 H448 0.930 . S
C480 C479 1.385 . S
C480 C481 1.357 . S
C481 C480 1.357 . S
C481 C482 1.406 . S
C482 H449 0.929 . S
C482 C481 1.406 . S
C482 C483 1.391 . S
C483 H450 0.931 . S
C483 C478 1.370 . S
C483 C482 1.391 . S
C484 N458 1.435 . S
C484 C485 1.358 . S
C484 C489 1.371 . S
C485 H451 0.930 . S
C485 C484 1.358 . S
C485 C486 1.405 . S
C486 H452 0.932 . S
C486 C485 1.405 . S
C486 C487 1.383 . S
C487 C486 1.383 . S
C487 C488 1.393 . S
C488 H453 0.931 . S
C488 C487 1.393 . S
C488 C489 1.382 . S
C489 H454 0.929 . S
C489 C484 1.371 . S
C489 C488 1.382 . S
C490 N458 1.423 . S
C490 C491 1.362 . S
C490 C495 1.388 . S
C491 H455 0.929 . S
C491 C490 1.362 . S
C491 C492 1.376 . S
C492 H456 0.931 . S
C492 C491 1.376 . S
C492 C493 1.396 . S
C493 C475 1.472 1_655 S
C493 C492 1.396 . S
C493 C494 1.348 . S
C494 H457 0.929 1_655 S
C494 C493 1.348 . S
C494 C495 1.443 . S
C495 H459 0.932 . S
C495 C490 1.388 . S
C495 C494 1.443 . S
Zn496 O499 2.031 . S
Zn496 O501 2.049 . S
Zn496 O506 2.067 . S
Zn497 O498 1.962 . S
Zn497 O500 1.986 . S
Zn497 O502 1.996 . S
Zn497 O505 1.943 1_554 S
O498 Zn497 1.962 . S
O498 C503 1.254 . S
O499 Zn496 2.031 . S
O499 C503 1.269 1_556 S
O500 Zn497 1.986 . S
O500 C507 1.262 . S
O501 Zn496 2.049 . S
O501 C509 1.260 1_556 S
O502 Zn497 1.996 . S
O502 C509 1.257 . S
C503 O498 1.254 . S
C503 O499 1.269 1_554 S
C504 O505 1.249 . S
C504 O506 1.270 . S
O505 Zn497 1.943 1_556 S
O505 C504 1.249 . S
O506 Zn496 2.067 . S
O506 C504 1.270 . S
C507 O500 1.262 . S
C507 O508 1.232 . S
O508 C507 1.232 . S
C509 O501 1.260 1_554 S
C509 O502 1.257 . S
Zn510 O513 2.031 . S
Zn510 O515 2.049 . S
Zn510 O520 2.067 . S
Zn511 O512 1.962 . S
Zn511 O514 1.986 . S
Zn511 O516 1.996 . S
Zn511 O519 1.943 . S
O512 Zn511 1.962 . S
O512 C517 1.254 . S
O513 Zn510 2.031 . S
O513 C517 1.269 . S
O514 Zn511 1.986 . S
O514 C521 1.262 . S
O515 Zn510 2.049 . S
O515 C523 1.260 . S
O516 Zn511 1.996 . S
O516 C523 1.257 . S
C517 O512 1.254 . S
C517 O513 1.269 . S
C518 O519 1.249 . S
C518 O520 1.270 . S
O519 Zn511 1.943 . S
O519 C518 1.249 . S
O520 Zn510 2.067 . S
O520 C518 1.270 . S
C521 O514 1.262 . S
C521 O522 1.232 . S
O522 C521 1.232 . S
C523 O515 1.260 . S
C523 O516 1.257 . S
Zn524 O527 2.031 . S
Zn524 O529 2.049 . S
Zn524 O534 2.067 . S
Zn525 O526 1.962 . S
Zn525 O528 1.986 . S
Zn525 O530 1.996 . S
Zn525 O533 1.943 . S
O526 Zn525 1.962 . S
O526 C531 1.254 . S
O527 Zn524 2.031 . S
O527 C531 1.269 . S
O528 Zn525 1.986 . S
O528 C535 1.262 . S
O529 Zn524 2.049 . S
O529 C537 1.260 . S
O530 Zn525 1.996 . S
O530 C537 1.257 . S
C531 O526 1.254 . S
C531 O527 1.269 . S
C532 O533 1.249 . S
C532 O534 1.270 . S
O533 Zn525 1.943 . S
O533 C532 1.249 . S
O534 Zn524 2.067 . S
O534 C532 1.270 . S
C535 O528 1.262 . S
C535 O536 1.232 . S
O536 C535 1.232 . S
C537 O529 1.260 . S
C537 O530 1.257 . S
Zn538 O541 2.031 . S
Zn538 O543 2.049 . S
Zn538 O548 2.067 . S
Zn539 O540 1.962 . S
Zn539 O542 1.986 . S
Zn539 O544 1.996 . S
Zn539 O547 1.943 . S
O540 Zn539 1.962 . S
O540 C545 1.254 . S
O541 Zn538 2.031 . S
O541 C545 1.269 . S
O542 Zn539 1.986 . S
O542 C549 1.262 . S
O543 Zn538 2.049 . S
O543 C551 1.260 . S
O544 Zn539 1.996 . S
O544 C551 1.257 . S
C545 O540 1.254 . S
C545 O541 1.269 . S
C546 O547 1.249 . S
C546 O548 1.270 . S
O547 Zn539 1.943 . S
O547 C546 1.249 . S
O548 Zn538 2.067 . S
O548 C546 1.270 . S
C549 O542 1.262 . S
C549 O550 1.232 . S
O550 C549 1.232 . S
C551 O543 1.260 . S
C551 O544 1.257 . S
Zn552 O555 2.031 . S
Zn552 O557 2.049 . S
Zn552 O562 2.067 . S
Zn553 O554 1.962 . S
Zn553 O556 1.986 . S
Zn553 O558 1.996 . S
Zn553 O561 1.943 . S
O554 Zn553 1.962 . S
O554 C559 1.254 . S
O555 Zn552 2.031 . S
O555 C559 1.269 . S
O556 Zn553 1.986 . S
O556 C563 1.262 . S
O557 Zn552 2.049 . S
O557 C565 1.260 . S
O558 Zn553 1.996 . S
O558 C565 1.257 . S
C559 O554 1.254 . S
C559 O555 1.269 . S
C560 O561 1.249 . S
C560 O562 1.270 . S
O561 Zn553 1.943 . S
O561 C560 1.249 . S
O562 Zn552 2.067 . S
O562 C560 1.270 . S
C563 O556 1.262 . S
C563 O564 1.232 . S
O564 C563 1.232 . S
C565 O557 1.260 . S
C565 O558 1.257 . S
Zn566 O569 2.031 . S
Zn566 O571 2.049 . S
Zn566 O576 2.067 . S
Zn567 O568 1.962 . S
Zn567 O570 1.986 . S
Zn567 O572 1.996 . S
Zn567 O575 1.943 . S
O568 Zn567 1.962 . S
O568 C573 1.254 . S
O569 Zn566 2.031 . S
O569 C573 1.269 . S
O570 Zn567 1.986 . S
O570 C577 1.262 . S
O571 Zn566 2.049 . S
O571 C579 1.260 . S
O572 Zn567 1.996 . S
O572 C579 1.257 . S
C573 O568 1.254 . S
C573 O569 1.269 . S
C574 O575 1.249 . S
C574 O576 1.270 . S
O575 Zn567 1.943 . S
O575 C574 1.249 . S
O576 Zn566 2.067 . S
O576 C574 1.270 . S
C577 O570 1.262 . S
C577 O578 1.232 . S
O578 C577 1.232 . S
C579 O571 1.260 . S
C579 O572 1.257 . S
Zn580 O583 2.031 . S
Zn580 O585 2.049 . S
Zn580 O590 2.067 . S
Zn581 O582 1.962 . S
Zn581 O584 1.986 . S
Zn581 O586 1.996 . S
Zn581 O589 1.943 1_556 S
O582 Zn581 1.962 . S
O582 C587 1.254 1_556 S
O583 Zn580 2.031 . S
O583 C587 1.269 . S
O584 Zn581 1.986 . S
O584 C591 1.262 . S
O585 Zn580 2.049 . S
O585 C593 1.260 . S
O586 Zn581 1.996 . S
O586 C593 1.257 1_556 S
C587 O582 1.254 1_554 S
C587 O583 1.269 . S
C588 O589 1.249 . S
C588 O590 1.270 . S
O589 Zn581 1.943 1_554 S
O589 C588 1.249 . S
O590 Zn580 2.067 . S
O590 C588 1.270 . S
C591 O584 1.262 . S
C591 O592 1.232 . S
O592 C591 1.232 . S
C593 O585 1.260 . S
C593 O586 1.257 1_554 S
Zn594 O597 2.031 . S
Zn594 O599 2.049 . S
Zn594 O604 2.067 . S
Zn595 O596 1.962 . S
Zn595 O598 1.986 . S
Zn595 O600 1.996 . S
Zn595 O603 1.943 . S
O596 Zn595 1.962 . S
O596 C601 1.254 . S
O597 Zn594 2.031 . S
O597 C601 1.269 . S
O598 Zn595 1.986 . S
O598 C605 1.262 . S
O599 Zn594 2.049 . S
O599 C607 1.260 . S
O600 Zn595 1.996 . S
O600 C607 1.257 . S
C601 O596 1.254 . S
C601 O597 1.269 . S
C602 O603 1.249 . S
C602 O604 1.270 . S
O603 Zn595 1.943 . S
O603 C602 1.249 . S
O604 Zn594 2.067 . S
O604 C602 1.270 . S
C605 O598 1.262 . S
C605 O606 1.232 . S
O606 C605 1.232 . S
C607 O599 1.260 . S
C607 O600 1.257 . S
C608 C609 1.363 . S
C608 C614 1.379 . S
C608 N616 1.356 . S
C609 C608 1.363 . S
C609 C615 1.363 . S
C610 C611 1.363 . S
C610 C615 1.379 . S
C610 N617 1.356 . S
C611 C610 1.363 . S
C611 C614 1.363 . S
N612 C614 1.356 . S
N612 H624 0.984 . S
N612 H625 0.985 . S
N613 C615 1.356 . S
N613 H618 0.984 . S
N613 H619 0.985 . S
C614 C608 1.379 . S
C614 C611 1.363 . S
C614 N612 1.356 . S
C615 C609 1.363 . S
C615 C610 1.379 . S
C615 N613 1.356 . S
N616 C608 1.356 . S
N616 H622 0.984 . S
N616 H623 0.984 . S
N617 C610 1.356 . S
N617 H620 0.984 . S
N617 H621 0.985 . S
H618 N613 0.984 . S
H619 N613 0.985 . S
H620 N617 0.984 . S
H621 N617 0.985 . S
H622 N616 0.984 . S
H623 N616 0.984 . S
H624 N612 0.984 . S
H625 N612 0.985 . S
C626 C627 1.363 . S
C626 C632 1.379 . S
C626 N634 1.356 . S
C627 C626 1.363 . S
C627 C633 1.363 . S
C628 C629 1.363 . S
C628 C633 1.379 . S
C628 N635 1.356 . S
C629 C628 1.363 . S
C629 C632 1.363 . S
N630 C632 1.356 . S
N630 H642 0.984 . S
N630 H643 0.985 . S
N631 C633 1.356 . S
N631 H636 0.984 . S
N631 H637 0.985 . S
C632 C626 1.379 . S
C632 C629 1.363 . S
C632 N630 1.356 . S
C633 C627 1.363 . S
C633 C628 1.379 . S
C633 N631 1.356 . S
N634 C626 1.356 . S
N634 H640 0.984 . S
N634 H641 0.984 . S
N635 C628 1.356 . S
N635 H638 0.984 . S
N635 H639 0.985 . S
H636 N631 0.984 . S
H637 N631 0.985 . S
H638 N635 0.984 . S
H639 N635 0.985 . S
H640 N634 0.984 . S
H641 N634 0.984 . S
H642 N630 0.984 . S
H643 N630 0.985 . S
C644 C645 1.363 . S
C644 C650 1.379 . S
C644 N652 1.356 . S
C645 C644 1.363 . S
C645 C651 1.363 . S
C646 C647 1.363 . S
C646 C651 1.379 . S
C646 N653 1.356 . S
C647 C646 1.363 . S
C647 C650 1.363 . S
N648 C650 1.356 . S
N648 H660 0.984 . S
N648 H661 0.985 . S
N649 C651 1.356 . S
N649 H654 0.984 . S
N649 H655 0.985 . S
C650 C644 1.379 . S
C650 C647 1.363 . S
C650 N648 1.356 . S
C651 C645 1.363 . S
C651 C646 1.379 . S
C651 N649 1.356 . S
N652 C644 1.356 . S
N652 H658 0.984 . S
N652 H659 0.984 . S
N653 C646 1.356 . S
N653 H656 0.984 . S
N653 H657 0.985 . S
H654 N649 0.984 . S
H655 N649 0.985 . S
H656 N653 0.984 . S
H657 N653 0.985 . S
H658 N652 0.984 . S
H659 N652 0.984 . S
H660 N648 0.984 . S
H661 N648 0.985 . S
C662 C663 1.363 1_556 S
C662 C668 1.379 . S
C662 N670 1.356 . S
C663 C662 1.363 1_554 S
C663 C669 1.363 . S
C664 C665 1.363 . S
C664 C669 1.379 . S
C664 N671 1.356 . S
C665 C664 1.363 . S
C665 C668 1.363 1_554 S
N666 C668 1.356 . S
N666 H678 0.984 . S
N666 H679 0.985 . S
N667 C669 1.356 . S
N667 H672 0.984 . S
N667 H673 0.985 . S
C668 C662 1.379 . S
C668 C665 1.363 1_556 S
C668 N666 1.356 . S
C669 C663 1.363 . S
C669 C664 1.379 . S
C669 N667 1.356 . S
N670 C662 1.356 . S
N670 H676 0.984 . S
N670 H677 0.984 . S
N671 C664 1.356 . S
N671 H674 0.984 . S
N671 H675 0.985 . S
H672 N667 0.984 . S
H673 N667 0.985 . S
H674 N671 0.984 . S
H675 N671 0.985 . S
H676 N670 0.984 . S
H677 N670 0.984 . S
H678 N666 0.984 . S
H679 N666 0.985 . S
C680 C681 1.363 . S
C680 C686 1.379 1_554 S
C680 N688 1.356 1_554 S
C681 C680 1.363 . S
C681 C687 1.363 . S
C682 C683 1.363 . S
C682 C687 1.379 . S
C682 N689 1.356 . S
C683 C682 1.363 . S
C683 C686 1.363 1_554 S
N684 C686 1.356 . S
N684 H696 0.984 . S
N684 H697 0.985 . S
N685 C687 1.356 . S
N685 H690 0.984 . S
N685 H691 0.985 . S
C686 C680 1.379 1_556 S
C686 C683 1.363 1_556 S
C686 N684 1.356 . S
C687 C681 1.363 . S
C687 C682 1.379 . S
C687 N685 1.356 . S
N688 C680 1.356 1_556 S
N688 H694 0.984 . S
N688 H695 0.984 1_556 S
N689 C682 1.356 . S
N689 H692 0.984 . S
N689 H693 0.985 . S
H690 N685 0.984 . S
H691 N685 0.985 . S
H692 N689 0.984 . S
H693 N689 0.985 . S
H694 N688 0.984 . S
H695 N688 0.984 1_554 S
H696 N684 0.984 . S
H697 N684 0.985 . S
C698 C699 1.363 . S
C698 C704 1.379 . S
C698 N706 1.356 . S
C699 C698 1.363 . S
C699 C705 1.363 . S
C700 C701 1.363 . S
C700 C705 1.379 . S
C700 N707 1.356 . S
C701 C700 1.363 . S
C701 C704 1.363 . S
N702 C704 1.356 . S
N702 H714 0.984 . S
N702 H715 0.985 . S
N703 C705 1.356 . S
N703 H708 0.984 . S
N703 H709 0.985 . S
C704 C698 1.379 . S
C704 C701 1.363 . S
C704 N702 1.356 . S
C705 C699 1.363 . S
C705 C700 1.379 . S
C705 N703 1.356 . S
N706 C698 1.356 . S
N706 H712 0.984 . S
N706 H713 0.984 . S
N707 C700 1.356 . S
N707 H710 0.984 . S
N707 H711 0.985 . S
H708 N703 0.984 . S
H709 N703 0.985 . S
H710 N707 0.984 . S
H711 N707 0.985 . S
H712 N706 0.984 . S
H713 N706 0.984 . S
H714 N702 0.984 . S
H715 N702 0.985 . S
C716 C717 1.363 . S
C716 C722 1.379 . S
C716 N724 1.356 . S
C717 C716 1.363 . S
C717 C723 1.363 . S
C718 C719 1.363 . S
C718 C723 1.379 . S
C718 N725 1.356 . S
C719 C718 1.363 . S
C719 C722 1.363 . S
N720 C722 1.356 . S
N720 H732 0.984 . S
N720 H733 0.985 . S
N721 C723 1.356 . S
N721 H726 0.984 . S
N721 H727 0.985 . S
C722 C716 1.379 . S
C722 C719 1.363 . S
C722 N720 1.356 . S
C723 C717 1.363 . S
C723 C718 1.379 . S
C723 N721 1.356 . S
N724 C716 1.356 . S
N724 H730 0.984 . S
N724 H731 0.984 . S
N725 C718 1.356 . S
N725 H728 0.984 . S
N725 H729 0.985 . S
H726 N721 0.984 . S
H727 N721 0.985 . S
H728 N725 0.984 . S
H729 N725 0.985 . S
H730 N724 0.984 . S
H731 N724 0.984 . S
H732 N720 0.984 . S
H733 N720 0.985 . S
C734 C735 1.363 . S
C734 C740 1.379 . S
C734 N742 1.356 . S
C735 C734 1.363 . S
C735 C741 1.363 . S
C736 C737 1.363 . S
C736 C741 1.379 . S
C736 N743 1.356 . S
C737 C736 1.363 . S
C737 C740 1.363 . S
N738 C740 1.356 . S
N738 H750 0.984 . S
N738 H751 0.985 . S
N739 C741 1.356 . S
N739 H744 0.984 . S
N739 H745 0.985 . S
C740 C734 1.379 . S
C740 C737 1.363 . S
C740 N738 1.356 . S
C741 C735 1.363 . S
C741 C736 1.379 . S
C741 N739 1.356 . S
N742 C734 1.356 . S
N742 H748 0.984 . S
N742 H749 0.984 . S
N743 C736 1.356 . S
N743 H746 0.984 . S
N743 H747 0.985 . S
H744 N739 0.984 . S
H745 N739 0.985 . S
H746 N743 0.984 . S
H747 N743 0.985 . S
H748 N742 0.984 . S
H749 N742 0.984 . S
H750 N738 0.984 . S
H751 N738 0.985 . S
C752 C753 1.363 . S
C752 C758 1.379 . S
C752 N760 1.356 . S
C753 C752 1.363 . S
C753 C759 1.363 . S
C754 C755 1.363 . S
C754 C759 1.379 . S
C754 N761 1.356 . S
C755 C754 1.363 . S
C755 C758 1.363 . S
N756 C758 1.356 . S
N756 H768 0.984 . S
N756 H769 0.985 . S
N757 C759 1.356 . S
N757 H762 0.984 . S
N757 H763 0.985 . S
C758 C752 1.379 . S
C758 C755 1.363 . S
C758 N756 1.356 . S
C759 C753 1.363 . S
C759 C754 1.379 . S
C759 N757 1.356 . S
N760 C752 1.356 . S
N760 H766 0.984 . S
N760 H767 0.984 . S
N761 C754 1.356 . S
N761 H764 0.984 . S
N761 H765 0.985 . S
H762 N757 0.984 . S
H763 N757 0.985 . S
H764 N761 0.984 . S
H765 N761 0.985 . S
H766 N760 0.984 . S
H767 N760 0.984 . S
H768 N756 0.984 . S
H769 N756 0.985 . S
C770 C771 1.363 . S
C770 C776 1.379 . S
C770 N778 1.356 . S
C771 C770 1.363 . S
C771 C777 1.363 1_554 S
C772 C773 1.363 1_556 S
C772 C777 1.379 . S
C772 N779 1.356 . S
C773 C772 1.363 1_554 S
C773 C776 1.363 . S
N774 C776 1.356 . S
N774 H786 0.984 . S
N774 H787 0.985 . S
N775 C777 1.356 . S
N775 H780 0.984 . S
N775 H781 0.985 . S
C776 C770 1.379 . S
C776 C773 1.363 . S
C776 N774 1.356 . S
C777 C771 1.363 1_556 S
C777 C772 1.379 . S
C777 N775 1.356 . S
N778 C770 1.356 . S
N778 H784 0.984 . S
N778 H785 0.984 . S
N779 C772 1.356 . S
N779 H782 0.984 . S
N779 H783 0.985 . S
H780 N775 0.984 . S
H781 N775 0.985 . S
H782 N779 0.984 . S
H783 N779 0.985 . S
H784 N778 0.984 . S
H785 N778 0.984 . S
H786 N774 0.984 . S
H787 N774 0.985 . S
C788 C789 1.363 . S
C788 C794 1.379 . S
C788 N796 1.356 . S
C789 C788 1.363 . S
C789 C795 1.363 . S
C790 C791 1.363 . S
C790 C795 1.379 . S
C790 N797 1.356 . S
C791 C790 1.363 . S
C791 C794 1.363 . S
N792 C794 1.356 . S
N792 H804 0.984 . S
N792 H805 0.985 . S
N793 C795 1.356 . S
N793 H798 0.984 . S
N793 H799 0.985 . S
C794 C788 1.379 . S
C794 C791 1.363 . S
C794 N792 1.356 . S
C795 C789 1.363 . S
C795 C790 1.379 . S
C795 N793 1.356 . S
N796 C788 1.356 . S
N796 H802 0.984 . S
N796 H803 0.984 . S
N797 C790 1.356 . S
N797 H800 0.984 . S
N797 H801 0.985 . S
H798 N793 0.984 . S
H799 N793 0.985 . S
H800 N797 0.984 . S
H801 N797 0.985 . S
H802 N796 0.984 . S
H803 N796 0.984 . S
H804 N792 0.984 . S
H805 N792 0.985 . S
C806 C807 1.363 . S
C806 C812 1.379 . S
C806 N814 1.356 . S
C807 C806 1.363 . S
C807 C813 1.363 . S
C808 C809 1.363 . S
C808 C813 1.379 . S
C808 N815 1.356 . S
C809 C808 1.363 . S
C809 C812 1.363 . S
N810 C812 1.356 . S
N810 H822 0.984 . S
N810 H823 0.985 . S
N811 C813 1.356 . S
N811 H816 0.984 . S
N811 H817 0.985 . S
C812 C806 1.379 . S
C812 C809 1.363 . S
C812 N810 1.356 . S
C813 C807 1.363 . S
C813 C808 1.379 . S
C813 N811 1.356 . S
N814 C806 1.356 . S
N814 H820 0.984 . S
N814 H821 0.984 . S
N815 C808 1.356 . S
N815 H818 0.984 . S
N815 H819 0.985 . S
H816 N811 0.984 . S
H817 N811 0.985 . S
H818 N815 0.984 . S
H819 N815 0.985 . S
H820 N814 0.984 . S
H821 N814 0.984 . S
H822 N810 0.984 . S
H823 N810 0.985 . S
C824 C825 1.363 . S
C824 C830 1.379 . S
C824 N832 1.356 . S
C825 C824 1.363 . S
C825 C831 1.363 . S
C826 C827 1.363 . S
C826 C831 1.379 . S
C826 N833 1.356 . S
C827 C826 1.363 . S
C827 C830 1.363 . S
N828 C830 1.356 . S
N828 H840 0.984 . S
N828 H841 0.985 . S
N829 C831 1.356 . S
N829 H834 0.984 . S
N829 H835 0.985 . S
C830 C824 1.379 . S
C830 C827 1.363 . S
C830 N828 1.356 . S
C831 C825 1.363 . S
C831 C826 1.379 . S
C831 N829 1.356 . S
N832 C824 1.356 . S
N832 H838 0.984 . S
N832 H839 0.984 . S
N833 C826 1.356 . S
N833 H836 0.984 . S
N833 H837 0.985 . S
H834 N829 0.984 . S
H835 N829 0.985 . S
H836 N833 0.984 . S
H837 N833 0.985 . S
H838 N832 0.984 . S
H839 N832 0.984 . S
H840 N828 0.984 . S
H841 N828 0.985 . S
C842 C843 1.363 . S
C842 C848 1.379 . S
C842 N850 1.356 . S
C843 C842 1.363 . S
C843 C849 1.363 . S
C844 C845 1.363 . S
C844 C849 1.379 . S
C844 N851 1.356 . S
C845 C844 1.363 . S
C845 C848 1.363 . S
N846 C848 1.356 . S
N846 H858 0.984 . S
N846 H859 0.985 . S
N847 C849 1.356 . S
N847 H852 0.984 . S
N847 H853 0.985 . S
C848 C842 1.379 . S
C848 C845 1.363 . S
C848 N846 1.356 . S
C849 C843 1.363 . S
C849 C844 1.379 . S
C849 N847 1.356 . S
N850 C842 1.356 . S
N850 H856 0.984 . S
N850 H857 0.984 . S
N851 C844 1.356 . S
N851 H854 0.984 . S
N851 H855 0.985 . S
H852 N847 0.984 . S
H853 N847 0.985 . S
H854 N851 0.984 . S
H855 N851 0.985 . S
H856 N850 0.984 . S
H857 N850 0.984 . S
H858 N846 0.984 . S
H859 N846 0.985 . S
C860 C861 1.363 . S
C860 C866 1.379 . S
C860 N868 1.356 . S
C861 C860 1.363 . S
C861 C867 1.363 1_554 S
C862 C863 1.363 . S
C862 C867 1.379 . S
C862 N869 1.356 . S
C863 C862 1.363 . S
C863 C866 1.363 1_556 S
N864 C866 1.356 . S
N864 H876 0.984 . S
N864 H877 0.985 . S
N865 C867 1.356 . S
N865 H870 0.976 1_556 S
N865 H871 0.985 . S
C866 C860 1.379 . S
C866 C863 1.363 1_554 S
C866 N864 1.356 . S
C867 C861 1.363 1_556 S
C867 C862 1.379 . S
C867 N865 1.356 . S
N868 C860 1.356 . S
N868 H874 0.984 . S
N868 H875 0.984 . S
N869 C862 1.356 . S
N869 H872 0.984 . S
N869 H873 0.985 . S
H870 N865 0.976 1_554 S
H871 N865 0.985 . S
H872 N869 0.984 . S
H873 N869 0.985 . S
H874 N868 0.984 . S
H875 N868 0.984 . S
H876 N864 0.984 . S
H877 N864 0.985 . S
C878 C879 1.363 . S
C878 C884 1.379 . S
C878 N886 1.356 . S
C879 C878 1.363 . S
C879 C885 1.363 . S
C880 C881 1.363 . S
C880 C885 1.379 . S
C880 N887 1.356 . S
C881 C880 1.363 . S
C881 C884 1.363 . S
N882 C884 1.356 . S
N882 H894 0.984 . S
N882 H895 0.985 . S
N883 C885 1.356 . S
N883 H888 0.984 . S
N883 H889 0.985 . S
C884 C878 1.379 . S
C884 C881 1.363 . S
C884 N882 1.356 . S
C885 C879 1.363 . S
C885 C880 1.379 . S
C885 N883 1.356 . S
N886 C878 1.356 . S
N886 H892 0.984 . S
N886 H893 0.984 . S
N887 C880 1.356 . S
N887 H890 0.984 . S
N887 H891 0.985 . S
H888 N883 0.984 . S
H889 N883 0.985 . S
H890 N887 0.984 . S
H891 N887 0.985 . S
H892 N886 0.984 . S
H893 N886 0.984 . S
H894 N882 0.984 . S
H895 N882 0.985 . S
C896 C897 1.363 . S
C896 C902 1.379 . S
C896 N904 1.356 . S
C897 C896 1.363 . S
C897 C903 1.363 . S
C898 C899 1.363 . S
C898 C903 1.379 . S
C898 N905 1.356 . S
C899 C898 1.363 . S
C899 C902 1.363 . S
N900 C902 1.356 . S
N900 H912 0.984 . S
N900 H913 0.985 . S
N901 C903 1.356 . S
N901 H906 0.984 . S
N901 H907 0.985 . S
C902 C896 1.379 . S
C902 C899 1.363 . S
C902 N900 1.356 . S
C903 C897 1.363 . S
C903 C898 1.379 . S
C903 N901 1.356 . S
N904 C896 1.356 . S
N904 H910 0.984 . S
N904 H911 0.984 . S
N905 C898 1.356 . S
N905 H908 0.984 . S
N905 H909 0.985 . S
H906 N901 0.984 . S
H907 N901 0.985 . S
H908 N905 0.984 . S
H909 N905 0.985 . S
H910 N904 0.984 . S
H911 N904 0.984 . S
H912 N900 0.984 . S
H913 N900 0.985 . S
C914 C915 1.363 . S
C914 C920 1.379 . S
C914 N922 1.356 . S
C915 C914 1.363 . S
C915 C921 1.363 . S
C916 C917 1.363 . S
C916 C921 1.379 . S
C916 N923 1.356 . S
C917 C916 1.363 . S
C917 C920 1.363 . S
N918 C920 1.356 . S
N918 H930 0.984 . S
N918 H931 0.985 . S
N919 C921 1.356 . S
N919 H924 0.984 . S
N919 H925 0.985 . S
C920 C914 1.379 . S
C920 C917 1.363 . S
C920 N918 1.356 . S
C921 C915 1.363 . S
C921 C916 1.379 . S
C921 N919 1.356 . S
N922 C914 1.356 . S
N922 H928 0.984 . S
N922 H929 0.984 . S
N923 C916 1.356 . S
N923 H926 0.984 . S
N923 H927 0.985 . S
H924 N919 0.984 . S
H925 N919 0.985 . S
H926 N923 0.984 . S
H927 N923 0.985 . S
H928 N922 0.984 . S
H929 N922 0.984 . S
H930 N918 0.984 . S
H931 N918 0.985 . S
C932 C933 1.363 . S
C932 C938 1.379 . S
C932 N940 1.356 . S
C933 C932 1.363 . S
C933 C939 1.363 . S
C934 C935 1.363 . S
C934 C939 1.379 . S
C934 N941 1.356 . S
C935 C934 1.363 . S
C935 C938 1.363 . S
N936 C938 1.356 . S
N936 H948 0.984 . S
N936 H949 0.985 . S
N937 C939 1.356 . S
N937 H942 0.984 . S
N937 H943 0.985 . S
C938 C932 1.379 . S
C938 C935 1.363 . S
C938 N936 1.356 . S
C939 C933 1.363 . S
C939 C934 1.379 . S
C939 N937 1.356 . S
N940 C932 1.356 . S
N940 H946 0.984 . S
N940 H947 0.984 . S
N941 C934 1.356 . S
N941 H944 0.984 . S
N941 H945 0.985 . S
H942 N937 0.984 . S
H943 N937 0.985 . S
H944 N941 0.984 . S
H945 N941 0.985 . S
H946 N940 0.984 . S
H947 N940 0.984 . S
H948 N936 0.984 . S
H949 N936 0.985 . S
C950 C951 1.363 . S
C950 C956 1.379 . S
C950 N958 1.356 . S
C951 C950 1.363 . S
C951 C957 1.363 . S
C952 C953 1.363 . S
C952 C957 1.379 . S
C952 N959 1.356 . S
C953 C952 1.363 . S
C953 C956 1.363 . S
N954 C956 1.356 . S
N954 H966 0.984 . S
N954 H967 0.985 . S
N955 C957 1.356 . S
N955 H960 0.984 . S
N955 H961 0.985 . S
C956 C950 1.379 . S
C956 C953 1.363 . S
C956 N954 1.356 . S
C957 C951 1.363 . S
C957 C952 1.379 . S
C957 N955 1.356 . S
N958 C950 1.356 . S
N958 H964 0.984 . S
N958 H965 0.984 . S
N959 C952 1.356 . S
N959 H962 0.984 . S
N959 H963 0.985 . S
H960 N955 0.984 . S
H961 N955 0.985 . S
H962 N959 0.984 . S
H963 N959 0.985 . S
H964 N958 0.984 . S
H965 N958 0.984 . S
H966 N954 0.984 . S
H967 N954 0.985 . S
C968 C969 1.363 . S
C968 C974 1.379 . S
C968 N976 1.356 . S
C969 C968 1.363 . S
C969 C975 1.363 . S
C970 C971 1.363 . S
C970 C975 1.379 . S
C970 N977 1.356 . S
C971 C970 1.363 . S
C971 C974 1.363 . S
N972 C974 1.356 . S
N972 H984 0.984 . S
N972 H985 0.985 . S
N973 C975 1.356 . S
N973 H978 0.984 . S
N973 H979 0.985 . S
C974 C968 1.379 . S
C974 C971 1.363 . S
C974 N972 1.356 . S
C975 C969 1.363 . S
C975 C970 1.379 . S
C975 N973 1.356 . S
N976 C968 1.356 . S
N976 H982 0.984 . S
N976 H983 0.984 . S
N977 C970 1.356 . S
N977 H980 0.984 . S
N977 H981 0.985 . S
H978 N973 0.984 . S
H979 N973 0.985 . S
H980 N977 0.984 . S
H981 N977 0.985 . S
H982 N976 0.984 . S
H983 N976 0.984 . S
H984 N972 0.984 . S
H985 N972 0.985 . S
C986 C987 1.363 . S
C986 C992 1.379 . S
C986 N994 1.356 . S
C987 C986 1.363 . S
C987 C993 1.363 . S
C988 C989 1.363 . S
C988 C993 1.379 . S
C988 N995 1.356 . S
C989 C988 1.363 . S
C989 C992 1.363 . S
N990 C992 1.356 . S
N990 H1002 0.984 . S
N990 H1003 0.985 . S
N991 C993 1.356 . S
N991 H996 0.984 . S
N991 H997 0.985 . S
C992 C986 1.379 . S
C992 C989 1.363 . S
C992 N990 1.356 . S
C993 C987 1.363 . S
C993 C988 1.379 . S
C993 N991 1.356 . S
N994 C986 1.356 . S
N994 H1000 0.984 . S
N994 H1001 0.984 . S
N995 C988 1.356 . S
N995 H998 0.984 . S
N995 H999 0.985 . S
H996 N991 0.984 . S
H997 N991 0.985 . S
H998 N995 0.984 . S
H999 N995 0.985 . S
H1000 N994 0.984 . S
H1001 N994 0.984 . S
H1002 N990 0.984 . S
H1003 N990 0.985 . S
C1004 C1005 1.363 . S
C1004 C1010 1.379 . S
C1004 N1012 1.356 . S
C1005 C1004 1.363 . S
C1005 C1011 1.363 . S
C1006 C1007 1.363 . S
C1006 C1011 1.379 . S
C1006 N1013 1.356 . S
C1007 C1006 1.363 . S
C1007 C1010 1.363 . S
N1008 C1010 1.356 . S
N1008 H1020 0.984 . S
N1008 H1021 0.985 . S
N1009 C1011 1.356 . S
N1009 H1014 0.984 . S
N1009 H1015 0.985 . S
C1010 C1004 1.379 . S
C1010 C1007 1.363 . S
C1010 N1008 1.356 . S
C1011 C1005 1.363 . S
C1011 C1006 1.379 . S
C1011 N1009 1.356 . S
N1012 C1004 1.356 . S
N1012 H1018 0.984 . S
N1012 H1019 0.984 . S
N1013 C1006 1.356 . S
N1013 H1016 0.984 . S
N1013 H1017 0.985 . S
H1014 N1009 0.984 . S
H1015 N1009 0.985 . S
H1016 N1013 0.984 . S
H1017 N1013 0.985 . S
H1018 N1012 0.984 . S
H1019 N1012 0.984 . S
H1020 N1008 0.984 . S
H1021 N1008 0.985 . S
C1022 C1023 1.363 . S
C1022 C1028 1.379 . S
C1022 N1030 1.356 . S
C1023 C1022 1.363 . S
C1023 C1029 1.363 . S
C1024 C1025 1.363 . S
C1024 C1029 1.379 . S
C1024 N1031 1.356 . S
C1025 C1024 1.363 . S
C1025 C1028 1.363 . S
N1026 C1028 1.356 . S
N1026 H1038 0.984 . S
N1026 H1039 0.985 . S
N1027 C1029 1.356 . S
N1027 H1032 0.984 . S
N1027 H1033 0.985 . S
C1028 C1022 1.379 . S
C1028 C1025 1.363 . S
C1028 N1026 1.356 . S
C1029 C1023 1.363 . S
C1029 C1024 1.379 . S
C1029 N1027 1.356 . S
N1030 C1022 1.356 . S
N1030 H1036 0.984 . S
N1030 H1037 0.984 . S
N1031 C1024 1.356 . S
N1031 H1034 0.984 . S
N1031 H1035 0.985 . S
H1032 N1027 0.984 . S
H1033 N1027 0.985 . S
H1034 N1031 0.984 . S
H1035 N1031 0.985 . S
H1036 N1030 0.984 . S
H1037 N1030 0.984 . S
H1038 N1026 0.984 . S
H1039 N1026 0.985 . S
C1040 C1041 1.363 . S
C1040 C1046 1.379 . S
C1040 N1048 1.356 . S
C1041 C1040 1.363 . S
C1041 C1047 1.363 . S
C1042 C1043 1.363 . S
C1042 C1047 1.379 . S
C1042 N1049 1.356 . S
C1043 C1042 1.363 . S
C1043 C1046 1.363 . S
N1044 C1046 1.356 . S
N1044 H1056 0.984 . S
N1044 H1057 0.985 . S
N1045 C1047 1.356 . S
N1045 H1050 0.984 . S
N1045 H1051 0.985 . S
C1046 C1040 1.379 . S
C1046 C1043 1.363 . S
C1046 N1044 1.356 . S
C1047 C1041 1.363 . S
C1047 C1042 1.379 . S
C1047 N1045 1.356 . S
N1048 C1040 1.356 . S
N1048 H1054 0.984 . S
N1048 H1055 0.984 . S
N1049 C1042 1.356 . S
N1049 H1052 0.984 . S
N1049 H1053 0.985 . S
H1050 N1045 0.984 . S
H1051 N1045 0.985 . S
H1052 N1049 0.984 . S
H1053 N1049 0.985 . S
H1054 N1048 0.984 . S
H1055 N1048 0.984 . S
H1056 N1044 0.984 . S
H1057 N1044 0.985 . S
C1058 C1059 1.363 . S
C1058 C1064 1.379 . S
C1058 N1066 1.356 . S
C1059 C1058 1.363 . S
C1059 C1065 1.363 . S
C1060 C1061 1.363 . S
C1060 C1065 1.379 . S
C1060 N1067 1.356 . S
C1061 C1060 1.363 . S
C1061 C1064 1.363 . S
N1062 C1064 1.356 . S
N1062 H1074 0.984 . S
N1062 H1075 0.985 . S
N1063 C1065 1.356 . S
N1063 H1068 0.984 . S
N1063 H1069 0.985 . S
C1064 C1058 1.379 . S
C1064 C1061 1.363 . S
C1064 N1062 1.356 . S
C1065 C1059 1.363 . S
C1065 C1060 1.379 . S
C1065 N1063 1.356 . S
N1066 C1058 1.356 . S
N1066 H1072 0.984 . S
N1066 H1073 0.984 . S
N1067 C1060 1.356 . S
N1067 H1070 0.984 . S
N1067 H1071 0.985 . S
H1068 N1063 0.984 . S
H1069 N1063 0.985 . S
H1070 N1067 0.984 . S
H1071 N1067 0.985 . S
H1072 N1066 0.984 . S
H1073 N1066 0.984 . S
H1074 N1062 0.984 . S
H1075 N1062 0.985 . S
C1076 C1077 1.363 . S
C1076 C1082 1.379 . S
C1076 N1084 1.356 . S
C1077 C1076 1.363 . S
C1077 C1083 1.363 . S
C1078 C1079 1.363 . S
C1078 C1083 1.379 . S
C1078 N1085 1.356 . S
C1079 C1078 1.363 . S
C1079 C1082 1.363 . S
N1080 C1082 1.356 . S
N1080 H1092 0.984 . S
N1080 H1093 0.985 . S
N1081 C1083 1.356 . S
N1081 H1086 0.984 . S
N1081 H1087 0.985 . S
C1082 C1076 1.379 . S
C1082 C1079 1.363 . S
C1082 N1080 1.356 . S
C1083 C1077 1.363 . S
C1083 C1078 1.379 . S
C1083 N1081 1.356 . S
N1084 C1076 1.356 . S
N1084 H1090 0.984 . S
N1084 H1091 0.984 . S
N1085 C1078 1.356 . S
N1085 H1088 0.984 . S
N1085 H1089 0.985 . S
H1086 N1081 0.984 . S
H1087 N1081 0.985 . S
H1088 N1085 0.984 . S
H1089 N1085 0.985 . S
H1090 N1084 0.984 . S
H1091 N1084 0.984 . S
H1092 N1080 0.984 . S
H1093 N1080 0.985 . S
C1094 C1095 1.363 . S
C1094 C1100 1.379 . S
C1094 N1102 1.356 . S
C1095 C1094 1.363 . S
C1095 C1101 1.363 . S
C1096 C1097 1.363 . S
C1096 C1101 1.379 . S
C1096 N1103 1.356 . S
C1097 C1096 1.363 . S
C1097 C1100 1.363 . S
N1098 C1100 1.356 . S
N1098 H1110 0.984 . S
N1098 H1111 0.985 . S
N1099 C1101 1.356 . S
N1099 H1104 0.984 . S
N1099 H1105 0.985 . S
C1100 C1094 1.379 . S
C1100 C1097 1.363 . S
C1100 N1098 1.356 . S
C1101 C1095 1.363 . S
C1101 C1096 1.379 . S
C1101 N1099 1.356 . S
N1102 C1094 1.356 . S
N1102 H1108 0.984 . S
N1102 H1109 0.984 . S
N1103 C1096 1.356 . S
N1103 H1106 0.984 . S
N1103 H1107 0.985 . S
H1104 N1099 0.984 . S
H1105 N1099 0.985 . S
H1106 N1103 0.984 . S
H1107 N1103 0.985 . S
H1108 N1102 0.984 . S
H1109 N1102 0.984 . S
H1110 N1098 0.984 . S
H1111 N1098 0.985 . S
C1112 C1113 1.363 . S
C1112 C1118 1.379 . S
C1112 N1120 1.356 . S
C1113 C1112 1.363 . S
C1113 C1119 1.363 . S
C1114 C1115 1.363 . S
C1114 C1119 1.379 . S
C1114 N1121 1.356 . S
C1115 C1114 1.363 . S
C1115 C1118 1.363 . S
N1116 C1118 1.356 . S
N1116 H1128 0.984 . S
N1116 H1129 0.985 . S
N1117 C1119 1.356 . S
N1117 H1122 0.984 . S
N1117 H1123 0.985 . S
C1118 C1112 1.379 . S
C1118 C1115 1.363 . S
C1118 N1116 1.356 . S
C1119 C1113 1.363 . S
C1119 C1114 1.379 . S
C1119 N1117 1.356 . S
N1120 C1112 1.356 . S
N1120 H1126 0.984 . S
N1120 H1127 0.984 . S
N1121 C1114 1.356 . S
N1121 H1124 0.984 . S
N1121 H1125 0.985 . S
H1122 N1117 0.984 . S
H1123 N1117 0.985 . S
H1124 N1121 0.984 . S
H1125 N1121 0.985 . S
H1126 N1120 0.984 . S
H1127 N1120 0.984 . S
H1128 N1116 0.984 . S
H1129 N1116 0.985 . S
C1130 C1131 1.363 . S
C1130 C1136 1.379 . S
C1130 N1138 1.356 . S
C1131 C1130 1.363 . S
C1131 C1137 1.363 . S
C1132 C1133 1.363 . S
C1132 C1137 1.379 . S
C1132 N1139 1.356 . S
C1133 C1132 1.363 . S
C1133 C1136 1.363 . S
N1134 C1136 1.356 . S
N1134 H1146 0.984 . S
N1134 H1147 0.985 . S
N1135 C1137 1.356 . S
N1135 H1140 0.984 . S
N1135 H1141 0.985 . S
C1136 C1130 1.379 . S
C1136 C1133 1.363 . S
C1136 N1134 1.356 . S
C1137 C1131 1.363 . S
C1137 C1132 1.379 . S
C1137 N1135 1.356 . S
N1138 C1130 1.356 . S
N1138 H1144 0.984 . S
N1138 H1145 0.984 . S
N1139 C1132 1.356 . S
N1139 H1142 0.984 . S
N1139 H1143 0.985 . S
H1140 N1135 0.984 . S
H1141 N1135 0.985 . S
H1142 N1139 0.984 . S
H1143 N1139 0.985 . S
H1144 N1138 0.984 . S
H1145 N1138 0.984 . S
H1146 N1134 0.984 . S
H1147 N1134 0.985 . S
C1148 C1149 1.363 . S
C1148 C1154 1.379 . S
C1148 N1156 1.356 . S
C1149 C1148 1.363 . S
C1149 C1155 1.363 . S
C1150 C1151 1.363 . S
C1150 C1155 1.379 . S
C1150 N1157 1.356 . S
C1151 C1150 1.363 . S
C1151 C1154 1.363 . S
N1152 C1154 1.356 . S
N1152 H1164 0.984 . S
N1152 H1165 0.985 . S
N1153 C1155 1.356 . S
N1153 H1158 0.984 . S
N1153 H1159 0.985 . S
C1154 C1148 1.379 . S
C1154 C1151 1.363 . S
C1154 N1152 1.356 . S
C1155 C1149 1.363 . S
C1155 C1150 1.379 . S
C1155 N1153 1.356 . S
N1156 C1148 1.356 . S
N1156 H1162 0.984 . S
N1156 H1163 0.984 . S
N1157 C1150 1.356 . S
N1157 H1160 0.984 . S
N1157 H1161 0.985 . S
H1158 N1153 0.984 . S
H1159 N1153 0.985 . S
H1160 N1157 0.984 . S
H1161 N1157 0.985 . S
H1162 N1156 0.984 . S
H1163 N1156 0.984 . S
H1164 N1152 0.984 . S
H1165 N1152 0.985 . S
C1166 C1167 1.363 . S
C1166 C1172 1.379 . S
C1166 N1174 1.356 . S
C1167 C1166 1.363 . S
C1167 C1173 1.363 . S
C1168 C1169 1.363 . S
C1168 C1173 1.379 . S
C1168 N1175 1.356 . S
C1169 C1168 1.363 . S
C1169 C1172 1.363 . S
N1170 C1172 1.356 . S
N1170 H1182 0.984 . S
N1170 H1183 0.985 . S
N1171 C1173 1.356 . S
N1171 H1176 0.984 . S
N1171 H1177 0.985 . S
C1172 C1166 1.379 . S
C1172 C1169 1.363 . S
C1172 N1170 1.356 . S
C1173 C1167 1.363 . S
C1173 C1168 1.379 . S
C1173 N1171 1.356 . S
N1174 C1166 1.356 . S
N1174 H1180 0.984 . S
N1174 H1181 0.984 . S
N1175 C1168 1.356 . S
N1175 H1178 0.984 . S
N1175 H1179 0.985 . S
H1176 N1171 0.984 . S
H1177 N1171 0.985 . S
H1178 N1175 0.984 . S
H1179 N1175 0.985 . S
H1180 N1174 0.984 . S
H1181 N1174 0.984 . S
H1182 N1170 0.984 . S
H1183 N1170 0.985 . S
C611 C517 1.570 . S
C609 C35 1.356 . S
C629 C537 1.462 . S
C627 C115 1.361 . S
C647 C551 1.488 . S
C645 C177 1.386 . S
C663 C221 1.444 . S
C665 C509 1.568 . S
C681 C283 1.506 . S
C683 C503 1.798 . S
C699 C363 1.471 . S
C701 C523 1.592 . S
C719 C531 1.594 . S
C717 C407 1.378 . S
C737 C545 1.736 . S
C735 C469 1.464 . S
C753 C159 1.463 . S
C755 C573 1.736 . S
C773 C587 1.594 . S
C771 C239 1.390 . S
C789 C53 1.472 . S
C791 C607 1.592 . S
C809 C559 1.802 . S
C807 C97 1.506 . S
C825 C425 1.453 . S
C827 C565 1.567 . S
C843 C487 1.386 . S
C845 C579 1.488 . S
C863 C593 1.462 1_556 S
C861 C301 1.364 1_554 S
C879 C345 1.356 . S
C881 C601 1.570 . S
C899 C532 1.927 . S
C897 C29 1.934 . S
C917 C546 1.942 . S
C915 C109 1.867 . S
C933 C171 1.799 . S
C935 C504 1.871 . S
C951 C215 1.665 . S
C953 C521 1.687 . S
C969 C277 1.612 . S
C971 C549 1.620 . S
C989 C507 1.615 . S
C987 C357 1.551 . S
C1007 C518 1.850 . S
C1005 C401 1.861 . S
C1025 C535 1.684 . S
C1023 C463 1.676 . S
C1043 C591 1.684 . S
C1041 C153 1.676 . S
C1061 C602 1.850 . S
C1059 C233 1.813 . S
C1077 C47 1.551 . S
C1079 C563 1.615 . S
C1097 C577 1.621 . S
C1095 C91 1.612 . S
C1115 C605 1.687 . S
C1113 C419 1.613 . S
C1131 C481 1.799 . S
C1133 C560 1.872 . S
C1151 C574 1.942 . S
C1149 C295 1.868 . S
C1169 C588 1.927 . S
C1167 C339 1.934 . S
