# Generated by pormake.
# Topology dag, (6,3)-cn, num edge types: 1
# Building blocks:
#     Node 0, Type 0, BuildingBlock: OJICUG_clean_sbu_0, # of connection points: 6
#     Node 1, Type 0, BuildingBlock: OJICUG_clean_sbu_0, # of connection points: 6
#     Node 2, Type 0, BuildingBlock: OJICUG_clean_sbu_0, # of connection points: 6
#     Node 3, Type 0, BuildingBlock: OJICUG_clean_sbu_0, # of connection points: 6
#     Node 4, Type 1, BuildingBlock: BETDIP_clean_linker_0, # of connection points: 3
#     Node 5, Type 1, BuildingBlock: BETDIP_clean_linker_0, # of connection points: 3
#     Node 6, Type 1, BuildingBlock: BETDIP_clean_linker_0, # of connection points: 3
#     Node 7, Type 1, BuildingBlock: BETDIP_clean_linker_0, # of connection points: 3
#     Node 8, Type 1, BuildingBlock: BETDIP_clean_linker_0, # of connection points: 3
#     Node 9, Type 1, BuildingBlock: BETDIP_clean_linker_0, # of connection points: 3
#     Node 10, Type 1, BuildingBlock: BETDIP_clean_linker_0, # of connection points: 3
#     Node 11, Type 1, BuildingBlock: BETDIP_clean_linker_0, # of connection points: 3
#     Edge 12, Type (0, 1), BuildingBlock: KIFKEQ_clean_linker_1, # of connection points: 2
#     Edge 13, Type (0, 1), BuildingBlock: KIFKEQ_clean_linker_1, # of connection points: 2
#     Edge 14, Type (0, 1), BuildingBlock: KIFKEQ_clean_linker_1, # of connection points: 2
#     Edge 15, Type (0, 1), BuildingBlock: KIFKEQ_clean_linker_1, # of connection points: 2
#     Edge 16, Type (0, 1), BuildingBlock: KIFKEQ_clean_linker_1, # of connection points: 2
#     Edge 17, Type (0, 1), BuildingBlock: KIFKEQ_clean_linker_1, # of connection points: 2
#     Edge 18, Type (0, 1), BuildingBlock: KIFKEQ_clean_linker_1, # of connection points: 2
#     Edge 19, Type (0, 1), BuildingBlock: KIFKEQ_clean_linker_1, # of connection points: 2
#     Edge 20, Type (0, 1), BuildingBlock: KIFKEQ_clean_linker_1, # of connection points: 2
#     Edge 21, Type (0, 1), BuildingBlock: KIFKEQ_clean_linker_1, # of connection points: 2
#     Edge 22, Type (0, 1), BuildingBlock: KIFKEQ_clean_linker_1, # of connection points: 2
#     Edge 23, Type (0, 1), BuildingBlock: KIFKEQ_clean_linker_1, # of connection points: 2
#     Edge 24, Type (0, 1), BuildingBlock: KIFKEQ_clean_linker_1, # of connection points: 2
#     Edge 25, Type (0, 1), BuildingBlock: KIFKEQ_clean_linker_1, # of connection points: 2
#     Edge 26, Type (0, 1), BuildingBlock: KIFKEQ_clean_linker_1, # of connection points: 2
#     Edge 27, Type (0, 1), BuildingBlock: KIFKEQ_clean_linker_1, # of connection points: 2
#     Edge 28, Type (0, 1), BuildingBlock: KIFKEQ_clean_linker_1, # of connection points: 2
#     Edge 29, Type (0, 1), BuildingBlock: KIFKEQ_clean_linker_1, # of connection points: 2
#     Edge 30, Type (0, 1), BuildingBlock: KIFKEQ_clean_linker_1, # of connection points: 2
#     Edge 31, Type (0, 1), BuildingBlock: KIFKEQ_clean_linker_1, # of connection points: 2
#     Edge 32, Type (0, 1), BuildingBlock: KIFKEQ_clean_linker_1, # of connection points: 2
#     Edge 33, Type (0, 1), BuildingBlock: KIFKEQ_clean_linker_1, # of connection points: 2
#     Edge 34, Type (0, 1), BuildingBlock: KIFKEQ_clean_linker_1, # of connection points: 2
#     Edge 35, Type (0, 1), BuildingBlock: KIFKEQ_clean_linker_1, # of connection points: 2
# Relax obj value: 0.093
# Max RMSD: 0.109
# Mean RMSD: 0.091
data_MOF--net-dag--node1-OJICUG_clean_sbu_0--node2-BETDIP_clean_linker_0--edge1-KIFKEQ_clean_linker_1
_symmetry_space_group_name_H-M    P1
_symmetry_Int_Tables_number       1
_symmetry_cell_setting            triclinic
loop_
_symmetry_equiv_pos_as_xyz
'x, y, z'
_cell_length_a     39.097374
_cell_length_b     38.309606
_cell_length_c     40.020246
_cell_angle_alpha  85.831399
_cell_angle_beta   89.957283
_cell_angle_gamma 89.965869
loop_
_atom_site_label
_atom_site_type_symbol
_atom_site_fract_x
_atom_site_fract_y
_atom_site_fract_z
_atom_type_partial_charge
Sc0 Sc 0.11905 0.88245 0.01497 0.0
Sc1 Sc 0.1409 0.79667 0.99772 0.0
Sc2 Sc 0.19972 0.86625 0.981 0.0
O3 O 0.15325 0.84841 0.99781 0.0
C4 C 0.1478 0.92351 0.94839 0.0
C5 C 0.07005 0.83124 0.97642 0.0
C6 C 0.18408 0.80769 0.93014 0.0
C7 C 0.10962 0.81766 0.06772 0.0
C8 C 0.1883 0.91534 0.04077 0.0
C9 C 0.21797 0.79592 0.02514 0.0
O10 O 0.12505 0.91716 0.97079 0.0
O11 O 0.09167 0.80665 0.97457 0.0
O12 O 0.19959 0.83441 0.9393 0.0
O13 O 0.11064 0.85042 0.06022 0.0
O14 O 0.20735 0.90117 0.01999 0.0
O15 O 0.18884 0.7819 0.02118 0.0
O16 O 0.15621 0.91066 0.04188 0.0
O17 O 0.11787 0.79507 0.04729 0.0
O18 O 0.22583 0.82634 0.0124 0.0
O19 O 0.07648 0.85886 0.99104 0.0
O20 O 0.1765 0.90759 0.94855 0.0
O21 O 0.16171 0.79136 0.94825 0.0
Sc22 Sc 0.6961 0.63612 0.56143 0.0
Sc23 Sc 0.64007 0.70507 0.53314 0.0
Sc24 Sc 0.61695 0.61742 0.52561 0.0
O25 O 0.65111 0.65294 0.54012 0.0
C26 C 0.6872 0.58078 0.50677 0.0
C27 C 0.71892 0.70198 0.51252 0.0
C28 C 0.6123 0.67545 0.46526 0.0
C29 C 0.67779 0.70079 0.60406 0.0
C30 C 0.64172 0.58263 0.59626 0.0
C31 C 0.56738 0.67487 0.5547 0.0
O32 O 0.70584 0.59761 0.52596 0.0
O33 O 0.68941 0.716 0.51144 0.0
O34 O 0.6116 0.6438 0.47706 0.0
O35 O 0.69225 0.67175 0.60005 0.0
O36 O 0.61958 0.58783 0.57316 0.0
O37 O 0.58941 0.69927 0.55436 0.0
O38 O 0.67091 0.5975 0.59532 0.0
O39 O 0.6587 0.71645 0.58204 0.0
O40 O 0.57383 0.64504 0.54419 0.0
O41 O 0.72546 0.67331 0.52954 0.0
O42 O 0.6551 0.58517 0.5045 0.0
O43 O 0.62023 0.70068 0.48282 0.0
Sc44 Sc 0.85126 0.20132 0.03714 0.0
Sc45 Sc 0.79112 0.13588 0.06465 0.0
Sc46 Sc 0.86917 0.1126 0.02898 0.0
O47 O 0.83715 0.15 0.04365 0.0
C48 C 0.87871 0.17176 0.96946 0.0
C49 C 0.77235 0.20225 0.01531 0.0
C50 C 0.79766 0.08105 0.0087 0.0
C51 C 0.81323 0.19957 0.10757 0.0
C52 C 0.92142 0.16525 0.06066 0.0
C53 C 0.8411 0.07855 0.09933 0.0
O54 O 0.86926 0.19699 0.98631 0.0
O55 O 0.76448 0.17297 0.03055 0.0
O56 O 0.82952 0.08566 0.00437 0.0
O57 O 0.83546 0.21215 0.0869 0.0
O58 O 0.91272 0.13535 0.05175 0.0
O59 O 0.81419 0.09728 0.10023 0.0
O60 O 0.90202 0.1919 0.05702 0.0
O61 O 0.79499 0.17316 0.10211 0.0
O62 O 0.86197 0.08095 0.07489 0.0
O63 O 0.802 0.2158 0.01667 0.0
O64 O 0.87969 0.14028 0.98174 0.0
O65 O 0.78059 0.09618 0.03045 0.0
Sc66 Sc 0.38499 0.36983 0.51111 0.0
Sc67 Sc 0.30364 0.3558 0.47774 0.0
Sc68 Sc 0.35799 0.28371 0.50016 0.0
O69 O 0.34889 0.3364 0.49632 0.0
C70 C 0.43078 0.31355 0.47648 0.0
C71 C 0.35718 0.4101 0.44362 0.0
C72 C 0.31937 0.29407 0.43016 0.0
C73 C 0.3174 0.40633 0.53618 0.0
C74 C 0.38953 0.30726 0.5682 0.0
C75 C 0.27997 0.28893 0.52394 0.0
O76 O 0.42515 0.34411 0.4856 0.0
O77 O 0.32856 0.39424 0.44363 0.0
O78 O 0.34047 0.27772 0.44976 0.0
O79 O 0.34916 0.39955 0.53829 0.0
O80 O 0.37689 0.2839 0.55091 0.0
O81 O 0.27464 0.31953 0.51039 0.0
O82 O 0.39416 0.3388 0.55708 0.0
O83 O 0.29798 0.3932 0.51499 0.0
O84 O 0.30805 0.27265 0.52091 0.0
O85 O 0.37931 0.40433 0.46664 0.0
O86 O 0.40933 0.28869 0.48056 0.0
O87 O 0.30362 0.32137 0.43781 0.0
H88 H 0.16873 0.21701 0.17038 0.0
H89 H 0.25677 0.14892 0.16907 0.0
H90 H 0.16467 0.12253 0.11895 0.0
H91 H 0.28467 0.19211 0.19142 0.0
C92 C 0.26559 0.20627 0.20479 0.0
C93 C 0.18129 0.19406 0.1618 0.0
C94 C 0.16282 0.17071 0.14342 0.0
C95 C 0.21532 0.18678 0.17108 0.0
C96 C 0.23106 0.15596 0.16128 0.0
C97 C 0.21292 0.13328 0.14189 0.0
C98 C 0.17898 0.14078 0.13305 0.0
N99 N 0.23145 0.20933 0.19286 0.0
H100 H 0.2483 0.62859 0.67795 0.0
H101 H 0.32094 0.7134 0.67291 0.0
H102 H 0.32991 0.63113 0.60603 0.0
H103 H 0.27325 0.74304 0.69147 0.0
C104 C 0.26328 0.72375 0.71022 0.0
C105 C 0.27032 0.64166 0.66627 0.0
C106 C 0.28729 0.62676 0.63998 0.0
C107 C 0.28141 0.67358 0.67742 0.0
C108 C 0.31099 0.68975 0.66329 0.0
C109 C 0.32847 0.67468 0.63725 0.0
C110 C 0.31597 0.64359 0.62538 0.0
N111 N 0.2633 0.68775 0.70402 0.0
H112 H 0.94781 0.78695 0.2889 0.0
H113 H 0.87852 0.87309 0.30018 0.0
H114 H 0.94298 0.87255 0.21341 0.0
H115 H 0.88821 0.85627 0.35635 0.0
C116 C 0.88602 0.82804 0.35578 0.0
C117 C 0.93721 0.81198 0.27969 0.0
C118 C 0.94805 0.82776 0.24882 0.0
C119 C 0.91249 0.82827 0.29868 0.0
C120 C 0.89828 0.86055 0.28633 0.0
C121 C 0.90957 0.87672 0.25575 0.0
C122 C 0.93434 0.86016 0.23716 0.0
N123 N 0.90141 0.81087 0.32932 0.0
H124 H 0.53948 0.29517 0.79482 0.0
H125 H 0.61333 0.37861 0.79542 0.0
H126 H 0.52891 0.38719 0.72724 0.0
H127 H 0.64819 0.33151 0.80858 0.0
C128 C 0.63293 0.317 0.82757 0.0
C129 C 0.54828 0.32083 0.78537 0.0
C130 C 0.52995 0.3399 0.75997 0.0
C131 C 0.57864 0.33429 0.79797 0.0
C132 C 0.59033 0.36753 0.78551 0.0
C133 C 0.57213 0.3869 0.76035 0.0
C134 C 0.54201 0.37296 0.74787 0.0
N135 N 0.59707 0.31388 0.82298 0.0
H136 H 0.68185 0.27466 0.36955 0.0
H137 H 0.76013 0.35289 0.37662 0.0
H138 H 0.6715 0.35342 0.43997 0.0
H139 H 0.76909 0.34117 0.32269 0.0
C140 C 0.76398 0.31346 0.32136 0.0
C141 C 0.69213 0.2969 0.38147 0.0
C142 C 0.67336 0.31187 0.40662 0.0
C143 C 0.72338 0.31143 0.37042 0.0
C144 C 0.73613 0.34119 0.38493 0.0
C145 C 0.71769 0.3561 0.41043 0.0
C146 C 0.68664 0.34095 0.42148 0.0
N147 N 0.74055 0.29597 0.34396 0.0
H148 H 0.04507 0.21286 0.74977 0.0
H149 H 0.1212 0.13111 0.75251 0.0
H150 H 0.03301 0.12049 0.81626 0.0
H151 H 0.15531 0.17861 0.73889 0.0
C152 C 0.14007 0.1919 0.71913 0.0
C153 C 0.05418 0.18738 0.75946 0.0
C154 C 0.03516 0.16769 0.7838 0.0
C155 C 0.08543 0.17456 0.74815 0.0
C156 C 0.09746 0.14168 0.76138 0.0
C157 C 0.07859 0.12192 0.78582 0.0
C158 C 0.0473 0.13501 0.79659 0.0
N159 N 0.10413 0.19493 0.7233 0.0
H160 H 0.44848 0.70384 0.24409 0.0
H161 H 0.37857 0.61658 0.2467 0.0
H162 H 0.46531 0.61385 0.31248 0.0
H163 H 0.34161 0.65934 0.22918 0.0
C164 C 0.35647 0.67547 0.21106 0.0
C165 C 0.44099 0.67789 0.25402 0.0
C166 C 0.46064 0.66014 0.27909 0.0
C167 C 0.41113 0.66259 0.24232 0.0
C168 C 0.40116 0.62909 0.25586 0.0
C169 C 0.42069 0.61122 0.28107 0.0
C170 C 0.45058 0.62686 0.29226 0.0
N171 N 0.39175 0.68141 0.21694 0.0
H172 H 0.73604 0.85694 0.87011 0.0
H173 H 0.82429 0.7915 0.85944 0.0
H174 H 0.82207 0.86485 0.93579 0.0
H175 H 0.80657 0.80915 0.80142 0.0
C176 C 0.77999 0.80124 0.80456 0.0
C177 C 0.76103 0.84799 0.87878 0.0
C178 C 0.77677 0.8634 0.90547 0.0
C179 C 0.77817 0.82242 0.86193 0.0
C180 C 0.81109 0.81144 0.87236 0.0
C181 C 0.8268 0.82601 0.89967 0.0
C182 C 0.80933 0.8519 0.91605 0.0
N183 N 0.76205 0.80886 0.83396 0.0
H184 H 0.24936 0.94993 0.0327 0.0
H185 H 0.16123 0.93869 0.09788 0.0
H186 H 0.26877 -0.00041 0.06273 0.0
H187 H 0.18064 0.98808 0.1277 0.0
H188 H 0.22037 0.07378 0.18195 0.0
H189 H 0.22568 0.01467 0.1628 0.0
H190 H 0.24034 0.05892 0.0614 0.0
H191 H 0.23487 0.11766 0.0807 0.0
C192 C 0.2346 0.95744 0.05394 0.0
C193 C 0.20344 0.94078 0.06258 0.0
C194 C 0.24572 0.98589 0.07107 0.0
C195 C 0.22617 0.99778 0.09742 0.0
C196 C 0.19647 0.97932 0.10771 0.0
C197 C 0.18515 0.95122 0.09038 0.0
C198 C 0.2263 0.07068 0.15588 0.0
C199 C 0.22742 0.0999 0.1327 0.0
C200 C 0.22906 0.03699 0.14488 0.0
C201 C 0.23309 0.03223 0.11059 0.0
C202 C 0.23759 0.06174 0.08801 0.0
C203 C 0.23448 0.09535 0.09897 0.0
H204 H 0.51013 0.63801 0.54191 0.0
H205 H 0.5448 0.72651 0.5939 0.0
H206 H 0.45213 0.64771 0.5606 0.0
H207 H 0.48597 0.73608 0.61293 0.0
H208 H 0.38429 0.69306 0.67314 0.0
H209 H 0.44282 0.70059 0.65196 0.0
H210 H 0.40605 0.69386 0.55095 0.0
H211 H 0.34774 0.68642 0.57204 0.0
C212 C 0.5054 0.65959 0.55736 0.0
C213 C 0.53218 0.68142 0.56649 0.0
C214 C 0.47203 0.66536 0.56778 0.0
C215 C 0.46449 0.69291 0.58788 0.0
C216 C 0.49114 0.71474 0.59732 0.0
C217 C 0.5247 0.70926 0.58641 0.0
C218 C 0.38861 0.6945 0.64633 0.0
C219 C 0.36163 0.68863 0.62423 0.0
C220 C 0.42209 0.69874 0.63423 0.0
C221 C 0.42896 0.69709 0.59991 0.0
C222 C 0.4015 0.69457 0.5776 0.0
C223 C 0.36817 0.69041 0.58964 0.0
H224 H 0.80005 0.05474 0.15252 0.0
H225 H 0.90088 0.04332 0.11016 0.0
H226 H 0.81425 0.00975 0.19722 0.0
H227 H 0.91449 -0.00134 0.15373 0.0
H228 H 0.94487 0.93703 0.24446 0.0
H229 H 0.92606 0.99031 0.21263 0.0
H230 H 0.82534 0.94567 0.2031 0.0
H231 H 0.84417 0.89273 0.23623 0.0
C232 C 0.8252 0.04288 0.15281 0.0
C233 C 0.84922 0.05261 0.12762 0.0
C234 C 0.83327 0.01704 0.1783 0.0
C235 C 0.86561 0.00081 0.17923 0.0
C236 C 0.88961 0.01106 0.1543 0.0
C237 C 0.88159 0.03654 0.12897 0.0
C238 C 0.91849 0.9391 0.23627 0.0
C239 C 0.89597 0.91092 0.24247 0.0
C240 C 0.90773 0.96943 0.21786 0.0
C241 C 0.87439 0.97195 0.20469 0.0
C242 C 0.85113 0.94463 0.21297 0.0
C243 C 0.86186 0.91433 0.23183 0.0
H244 H 0.35909 0.3235 0.62577 0.0
H245 H 0.44673 0.27153 0.58692 0.0
H246 H 0.38508 0.32029 0.68143 0.0
H247 H 0.47396 0.27004 0.64172 0.0
H248 H 0.52346 0.27384 0.73872 0.0
H249 H 0.48121 0.25444 0.69919 0.0
H250 H 0.42882 0.35371 0.7019 0.0
H251 H 0.46966 0.37187 0.74257 0.0
C252 C 0.3836 0.31059 0.62953 0.0
C253 C 0.40105 0.29768 0.60245 0.0
C254 C 0.3987 0.30904 0.66124 0.0
C255 C 0.43201 0.29558 0.6661 0.0
C256 C 0.4482 0.28026 0.63927 0.0
C257 C 0.43275 0.28121 0.60774 0.0
C258 C 0.50209 0.29086 0.73182 0.0
C259 C 0.50021 0.32466 0.74319 0.0
C260 C 0.4781 0.27995 0.70881 0.0
C261 C 0.45195 0.30274 0.6966 0.0
C262 C 0.44835 0.3352 0.71062 0.0
C263 C 0.47207 0.3459 0.73376 0.0
H264 H 0.66544 0.55719 0.44796 0.0
H265 H 0.74331 0.54084 0.52402 0.0
H266 H 0.68457 0.50486 0.42219 0.0
H267 H 0.7622 0.48797 0.49832 0.0
H268 H 0.72473 0.37188 0.47534 0.0
H269 H 0.72783 0.43039 0.49576 0.0
H270 H 0.73497 0.47534 0.39389 0.0
H271 H 0.73209 0.41668 0.3735 0.0
C272 C 0.6871 0.54277 0.45876 0.0
C273 C 0.70269 0.55288 0.48814 0.0
C274 C 0.69822 0.51297 0.44386 0.0
C275 C 0.72482 0.49238 0.45834 0.0
C276 C 0.74162 0.50343 0.48673 0.0
C277 C 0.73088 0.53369 0.50132 0.0
C278 C 0.72808 0.39423 0.45745 0.0
C279 C 0.728 0.38992 0.42291 0.0
C280 C 0.73002 0.42766 0.46909 0.0
C281 C 0.7314 0.45734 0.44634 0.0
C282 C 0.7338 0.45284 0.41189 0.0
C283 C 0.73236 0.41934 0.40026 0.0
H284 H 0.89922 0.2346 0.93789 0.0
H285 H 0.88727 0.12481 0.92241 0.0
H286 H 0.92899 0.24324 0.88409 0.0
H287 H 0.91751 0.13306 0.86985 0.0
H288 H 0.96967 0.14647 0.776 0.0
H289 H 0.92206 0.15623 0.8138 0.0
H290 H 0.98519 0.22697 0.86636 0.0
H291 H 0.03188 0.21833 0.82737 0.0
C292 C 0.90235 0.21248 0.92278 0.0
C293 C 0.8914 0.1789 0.93473 0.0
C294 C 0.91956 0.21738 0.89204 0.0
C295 C 0.92595 0.18884 0.87264 0.0
C296 C 0.91278 0.15584 0.88368 0.0
C297 C 0.89573 0.15097 0.91422 0.0
C298 C 0.97262 0.16529 0.79473 0.0
C299 C 0.00418 0.18171 0.79895 0.0
C300 C 0.94559 0.17061 0.81663 0.0
C301 C 0.95003 0.19169 0.84371 0.0
C302 C 0.98067 0.21072 0.84578 0.0
C303 C 0.00751 0.20579 0.82348 0.0
H304 H 0.31648 0.43415 0.39064 0.0
H305 H 0.41681 0.44639 0.4337 0.0
H306 H 0.33047 0.4791 0.34618 0.0
H307 H 0.43029 0.49134 0.39004 0.0
H308 H 0.45858 0.55228 0.29582 0.0
H309 H 0.44199 0.50034 0.33092 0.0
H310 H 0.34014 0.54248 0.34008 0.0
H311 H 0.35671 0.5942 0.30446 0.0
C312 C 0.34148 0.44629 0.39063 0.0
C313 C 0.36543 0.43665 0.41589 0.0
C314 C 0.34944 0.47213 0.36522 0.0
C315 C 0.38157 0.48871 0.36443 0.0
C316 C 0.40555 0.4787 0.38945 0.0
C317 C 0.39763 0.45305 0.41476 0.0
C318 C 0.43253 0.55018 0.30498 0.0
C319 C 0.40905 0.57742 0.29772 0.0
C320 C 0.42304 0.52052 0.32518 0.0
C321 C 0.3899 0.51752 0.33879 0.0
C322 C 0.3658 0.54384 0.32986 0.0
C323 C 0.37528 0.57349 0.30946 0.0
H324 H 0.04734 0.78379 0.93281 0.0
H325 H 0.0134 0.86907 0.98977 0.0
H326 H 0.98846 0.77606 0.91322 0.0
H327 H 0.95528 0.86102 0.97056 0.0
H328 H 0.85141 0.81398 0.96317 0.0
H329 H 0.91116 0.81108 0.98052 0.0
H330 H 0.94279 0.81443 0.87702 0.0
H331 H 0.88276 0.81803 0.85942 0.0
C332 C 0.02745 0.80086 0.94109 0.0
C333 C 0.03511 0.82702 0.9629 0.0
C334 C 0.99386 0.79644 0.92985 0.0
C335 C 0.96737 0.81765 0.94077 0.0
C336 C 0.97514 0.84395 0.96219 0.0
C337 C 0.00856 0.84871 0.97297 0.0
C338 C 0.87106 0.81366 0.94409 0.0
C339 C 0.8624 0.81687 0.90992 0.0
C340 C 0.90521 0.81197 0.95403 0.0
C341 C 0.9315 0.81311 0.93007 0.0
C342 C 0.92294 0.81348 0.89596 0.0
C343 C 0.88861 0.81544 0.88593 0.0
H344 H 0.74365 0.03893 0.02794 0.0
H345 H 0.8143 0.06277 0.94644 0.0
H346 H 0.72419 0.98715 0.00085 0.0
H347 H 0.79472 0.01156 0.91939 0.0
H348 H 0.75389 0.92264 0.87107 0.0
H349 H 0.74562 0.97966 0.8936 0.0
H350 H 0.76009 0.93228 0.99383 0.0
H351 H 0.76821 0.87535 0.97129 0.0
C352 C 0.75423 0.03372 0.00378 0.0
C353 C 0.78078 0.05454 0.98945 0.0
C354 C 0.74316 0.0041 0.98837 0.0
C355 C 0.75801 0.99533 0.9581 0.0
C356 C 0.78253 0.01785 0.94252 0.0
C357 C 0.79397 0.04701 0.95815 0.0
C358 C 0.75388 0.92421 0.89799 0.0
C359 C 0.76207 0.89478 0.91949 0.0
C360 C 0.74935 0.95684 0.91084 0.0
C361 C 0.75263 0.96042 0.94538 0.0
C362 C 0.75722 0.93029 0.96712 0.0
C363 C 0.76209 0.89775 0.95425 0.0
H364 H 0.4685 0.35796 0.43541 0.0
H365 H 0.46903 0.2539 0.48481 0.0
H366 H 0.52668 0.34904 0.41525 0.0
H367 H 0.52791 0.24545 0.46539 0.0
H368 H 0.64597 0.29195 0.46774 0.0
H369 H 0.58502 0.2851 0.48133 0.0
H370 H 0.55985 0.30278 0.37652 0.0
H371 H 0.62077 0.30875 0.36284 0.0
C372 C 0.48099 0.33307 0.44164 0.0
C373 C 0.4644 0.30663 0.46166 0.0
C374 C 0.51411 0.32792 0.42998 0.0
C375 C 0.53152 0.29655 0.43878 0.0
C376 C 0.5148 0.26978 0.45825 0.0
C377 C 0.48124 0.27459 0.46921 0.0
C378 C 0.62741 0.29325 0.44761 0.0
C379 C 0.63788 0.30075 0.41429 0.0
C380 C 0.59269 0.28927 0.45533 0.0
C381 C 0.56799 0.2935 0.42991 0.0
C382 C 0.57855 0.29932 0.39645 0.0
C383 C 0.61329 0.30255 0.38866 0.0
H384 H 0.08737 0.95778 0.93711 0.0
H385 H 0.18975 0.95019 0.89723 0.0
H386 H 0.07344 0.00217 0.89319 0.0
H387 H 0.17532 0.99484 0.85247 0.0
H388 H 0.04488 0.06005 0.79807 0.0
H389 H 0.06387 0.009 0.83315 0.0
H390 H 0.16175 0.05839 0.84644 0.0
H391 H 0.14281 0.10932 0.81084 0.0
C392 C 0.10696 0.96541 0.91887 0.0
C393 C 0.13979 0.95036 0.92088 0.0
C394 C 0.09878 0.99072 0.89339 0.0
C395 C 0.12314 0.00179 0.86909 0.0
C396 C 0.15603 0.98686 0.87091 0.0
C397 C 0.16425 0.96126 0.89648 0.0
C398 C 0.07063 0.05973 0.80809 0.0
C399 C 0.09222 0.08878 0.80211 0.0
C400 C 0.08149 0.03059 0.82824 0.0
C401 C 0.1141 0.02994 0.84308 0.0
C402 C 0.13654 0.05802 0.83527 0.0
C403 C 0.1257 0.08719 0.81491 0.0
H404 H 0.58723 0.73698 0.43483 0.0
H405 H 0.61097 0.62989 0.41646 0.0
H406 H 0.55816 0.74422 0.38058 0.0
H407 H 0.58144 0.6366 0.36346 0.0
H408 H 0.52797 0.64621 0.27039 0.0
H409 H 0.5744 0.66041 0.30797 0.0
H410 H 0.50419 0.72242 0.36267 0.0
H411 H 0.45862 0.70948 0.32393 0.0
C412 C 0.58692 0.71527 0.41893 0.0
C413 C 0.6008 0.68266 0.4302 0.0
C414 C 0.5701 0.71934 0.38796 0.0
C415 C 0.56705 0.69092 0.3677 0.0
C416 C 0.58346 0.65927 0.37799 0.0
C417 C 0.60011 0.65524 0.40875 0.0
C418 C 0.5231 0.66414 0.28958 0.0
C419 C 0.49 0.67684 0.29448 0.0
C420 C 0.54948 0.67201 0.31133 0.0
C421 C 0.54289 0.69187 0.3389 0.0
C422 C 0.51038 0.70726 0.34168 0.0
C423 C 0.48417 0.69982 0.31957 0.0
H424 H 0.25765 0.44313 0.52741 0.0
H425 H 0.34519 0.42964 0.59304 0.0
H426 H 0.23937 0.49337 0.55721 0.0
H427 H 0.32686 0.47972 0.62263 0.0
H428 H 0.28322 0.56523 0.67821 0.0
H429 H 0.2811 0.50647 0.65775 0.0
H430 H 0.2689 0.55219 0.55657 0.0
H431 H 0.27117 0.6106 0.57706 0.0
C432 C 0.27257 0.45035 0.54863 0.0
C433 C 0.30319 0.43276 0.55753 0.0
C434 C 0.2621 0.47913 0.56562 0.0
C435 C 0.28178 0.49051 0.59208 0.0
C436 C 0.311 0.47136 0.60252 0.0
C437 C 0.32169 0.44287 0.58533 0.0
C438 C 0.27889 0.56252 0.65179 0.0
C439 C 0.2775 0.59219 0.62909 0.0
C440 C 0.27791 0.52903 0.64008 0.0
C441 C 0.27508 0.52483 0.60558 0.0
C442 C 0.27078 0.55459 0.58331 0.0
C443 C 0.27223 0.58799 0.59495 0.0
H444 H 0.06959 0.76029 0.08327 0.0
H445 H 0.11497 0.84975 0.12575 0.0
H446 H 0.0335 0.75029 0.13314 0.0
H447 H 0.07936 0.83964 0.17542 0.0
H448 H 0.01474 0.81446 0.26463 0.0
H449 H 0.06029 0.79996 0.22568 0.0
H450 H 0.98499 0.79101 0.14784 0.0
H451 H 0.93989 0.8058 0.1866 0.0
C452 C 0.07274 0.77699 0.10376 0.0
C453 C 0.09471 0.80604 0.10055 0.0
C454 C 0.05201 0.77138 0.13218 0.0
C455 C 0.05346 0.79434 0.15801 0.0
C456 C 0.07783 0.82133 0.15608 0.0
C457 C 0.09807 0.82728 0.12752 0.0
C458 C 0.00802 0.80823 0.23949 0.0
C459 C 0.97406 0.81131 0.22837 0.0
C460 C 0.03397 0.80008 0.21723 0.0
C461 C 0.02617 0.79443 0.18374 0.0
C462 C 0.99176 0.79477 0.17358 0.0
C463 C 0.96598 0.80343 0.19563 0.0
H464 H 0.58045 0.55042 0.60905 0.0
H465 H 0.68276 0.55821 0.64887 0.0
H466 H 0.56606 0.50735 0.65404 0.0
H467 H 0.66787 0.51513 0.69474 0.0
H468 H 0.63664 0.40093 0.7369 0.0
H469 H 0.65515 0.45221 0.70162 0.0
H470 H 0.55601 0.49972 0.7135 0.0
H471 H 0.53743 0.44814 0.74809 0.0
C472 C 0.59987 0.54323 0.62759 0.0
C473 C 0.63289 0.55773 0.62512 0.0
C474 C 0.59145 0.51869 0.65368 0.0
C475 C 0.61573 0.50792 0.67816 0.0
C476 C 0.64864 0.52275 0.67614 0.0
C477 C 0.65712 0.54751 0.64994 0.0
C478 C 0.61917 0.42276 0.73262 0.0
C479 C 0.58548 0.42046 0.74482 0.0
C480 C 0.62975 0.45214 0.71244 0.0
C481 C 0.60685 0.47979 0.70427 0.0
C482 C 0.574 0.4785 0.71866 0.0
C483 C 0.56339 0.44908 0.73857 0.0
H484 H 0.96928 0.11412 0.07255 0.0
H485 H 0.95171 0.22439 0.08253 0.0
H486 H 0.02593 0.11926 0.0959 0.0
H487 H 0.00883 0.22928 0.10679 0.0
H488 H 0.13026 0.2245 0.10758 0.0
H489 H 0.06999 0.22597 0.09017 0.0
H490 H 0.05257 0.12839 0.1489 0.0
H491 H 0.1126 0.12662 0.16519 0.0
C492 C 0.97735 0.13948 0.07994 0.0
C493 C 0.9558 0.16883 0.07565 0.0
C494 C 0.00986 0.14236 0.09362 0.0
C495 C 0.02176 0.17461 0.10356 0.0
C496 C 0.00039 0.20411 0.09925 0.0
C497 C 0.96765 0.20123 0.08549 0.0
C498 C 0.11321 0.20383 0.1171 0.0
C499 C 0.12585 0.17523 0.13726 0.0
C500 C 0.0788 0.20465 0.10726 0.0
C501 C 0.0567 0.17694 0.11768 0.0
C502 C 0.06912 0.14966 0.13976 0.0
C503 C 0.10337 0.14871 0.14925 0.0
H504 H 0.21629 0.72691 0.04751 0.0
H505 H 0.2753 0.82152 0.0544 0.0
H506 H 0.25231 0.69699 0.08999 0.0
H507 H 0.3109 0.79167 0.09762 0.0
H508 H 0.3836 0.71794 0.15919 0.0
H509 H 0.35292 0.74562 0.11104 0.0
H510 H 0.25844 0.70001 0.14957 0.0
H511 H 0.28923 0.67184 0.19708 0.0
C512 C 0.23709 0.74131 0.05793 0.0
C513 C 0.24267 0.77675 0.04776 0.0
C514 C 0.25762 0.72418 0.08246 0.0
C515 C 0.28412 0.74209 0.09761 0.0
C516 C 0.2908 0.77706 0.08634 0.0
C517 C 0.27033 0.79419 0.0616 0.0
C518 C 0.35629 0.71383 0.15727 0.0
C519 C 0.33868 0.69276 0.18181 0.0
C520 C 0.33872 0.72977 0.12977 0.0
C521 C 0.30327 0.72487 0.12634 0.0
C522 C 0.28583 0.7038 0.15105 0.0
C523 C 0.30337 0.68788 0.17842 0.0
H524 H 0.68558 0.77052 0.6118 0.0
H525 H 0.6885 0.66883 0.66593 0.0
H526 H 0.70737 0.79716 0.66151 0.0
H527 H 0.7094 0.69557 0.71566 0.0
H528 H 0.71891 0.76634 0.80526 0.0
H529 H 0.68912 0.74413 0.7573 0.0
H530 H 0.76921 0.78534 0.69148 0.0
H531 H 0.79948 0.80682 0.73952 0.0
C532 C 0.69007 0.75406 0.63454 0.0
C533 C 0.68553 0.71766 0.63509 0.0
C534 C 0.70269 0.76922 0.66279 0.0
C535 C 0.71008 0.74828 0.69218 0.0
C536 C 0.70371 0.7122 0.69329 0.0
C537 C 0.69189 0.69696 0.66487 0.0
C538 C 0.73003 0.77077 0.78052 0.0
C539 C 0.76145 0.78824 0.77592 0.0
C540 C 0.71302 0.7581 0.7532 0.0
C541 C 0.72681 0.76339 0.72084 0.0
C542 C 0.75792 0.78139 0.7162 0.0
C543 C 0.77529 0.79339 0.7436 0.0
H544 H 0.76224 0.18691 0.15346 0.0
H545 H 0.85275 0.24999 0.134 0.0
H546 H 0.75338 0.21418 0.2056 0.0
H547 H 0.84434 0.27666 0.18695 0.0
H548 H 0.76188 0.24366 0.31126 0.0
H549 H 0.77684 0.21589 0.26047 0.0
H550 H 0.80665 0.31638 0.21327 0.0
H551 H 0.79263 0.34398 0.26476 0.0
C552 C 0.78045 0.2064 0.16041 0.0
C553 C 0.80821 0.21623 0.13948 0.0
C554 C 0.77549 0.22189 0.1905 0.0
C555 C 0.79829 0.24743 0.20062 0.0
C556 C 0.82611 0.25731 0.17974 0.0
C557 C 0.83098 0.24192 0.14945 0.0
C558 C 0.77187 0.25978 0.29013 0.0
C559 C 0.77576 0.29604 0.29172 0.0
C560 C 0.78027 0.2439 0.26094 0.0
C561 C 0.79246 0.26397 0.23259 0.0
C562 C 0.79754 0.30011 0.23468 0.0
C563 C 0.78939 0.31596 0.26406 0.0
H564 H 0.22308 0.31954 0.54957 0.0
H565 H 0.27816 0.2215 0.55119 0.0
H566 H 0.18638 0.29526 0.59486 0.0
H567 H 0.24123 0.19731 0.59594 0.0
H568 H 0.11237 0.22849 0.6637 0.0
H569 H 0.14269 0.25035 0.61281 0.0
H570 H 0.2375 0.20946 0.65507 0.0
H571 H 0.20722 0.1874 0.70546 0.0
C572 C 0.22692 0.29262 0.55903 0.0
C573 C 0.25392 0.27266 0.54705 0.0
C574 C 0.20583 0.27871 0.58496 0.0
C575 C 0.21134 0.2446 0.59934 0.0
C576 C 0.23689 0.22397 0.58588 0.0
C577 C 0.25794 0.23782 0.56009 0.0
C578 C 0.13968 0.22422 0.66202 0.0
C579 C 0.15756 0.20623 0.68843 0.0
C580 C 0.15702 0.23679 0.63296 0.0
C581 C 0.19241 0.23132 0.6298 0.0
C582 C 0.21013 0.21349 0.65643 0.0
C583 C 0.19288 0.20111 0.68539 0.0
H584 H 0.71694 0.76749 0.48109 0.0
H585 H 0.78335 0.67771 0.49871 0.0
H586 H 0.76046 0.7968 0.44628 0.0
H587 H 0.82743 0.70767 0.4639 0.0
H588 H 0.87296 0.75734 0.3626 0.0
H589 H 0.8355 0.72649 0.40367 0.0
H590 H 0.817 0.82326 0.44982 0.0
H591 H 0.85401 0.85419 0.40834 0.0
C592 C 0.74093 0.75402 0.47776 0.0
C593 C 0.74653 0.7201 0.49265 0.0
C594 C 0.76604 0.77104 0.45798 0.0
C595 C 0.79745 0.75464 0.45245 0.0
C596 C 0.80336 0.72087 0.46757 0.0
C597 C 0.77819 0.70381 0.48762 0.0
C598 C 0.86116 0.77195 0.38171 0.0
C599 C 0.86608 0.80825 0.38217 0.0
C600 C 0.83988 0.75422 0.40537 0.0
C601 C 0.8231 0.77249 0.42982 0.0
C602 C 0.82917 0.80856 0.43097 0.0
C603 C 0.85042 0.82624 0.40736 0.0
H604 H 0.77362 0.27037 0.99056 0.0
H605 H 0.71395 0.17556 0.98883 0.0
H606 H 0.73705 0.29857 0.94761 0.0
H607 H 0.6776 0.20378 0.94511 0.0
H608 H 0.70046 0.31806 0.8401 0.0
H609 H 0.73104 0.29107 0.88825 0.0
H610 H 0.63573 0.25088 0.93005 0.0
H611 H 0.60512 0.27754 0.88126 0.0
C612 C 0.75253 0.25559 0.98119 0.0
C613 C 0.74699 0.22054 0.99283 0.0
C614 C 0.73166 0.27173 0.95643 0.0
C615 C 0.70485 0.25319 0.94249 0.0
C616 C 0.69803 0.21877 0.9554 0.0
C617 C 0.71888 0.2026 0.98042 0.0
C618 C 0.68607 0.30344 0.85958 0.0
C619 C 0.65053 0.29991 0.857 0.0
C620 C 0.70351 0.28821 0.8873 0.0
C621 C 0.68575 0.26915 0.91318 0.0
C622 C 0.65011 0.26529 0.91046 0.0
C623 C 0.6326 0.28063 0.8826 0.0
H624 H 0.34155 0.23303 0.40513 0.0
H625 H 0.28347 0.32715 0.37872 0.0
H626 H 0.33001 0.21272 0.34977 0.0
H627 H 0.27278 0.30726 0.32356 0.0
H628 H 0.22443 0.24175 0.24608 0.0
H629 H 0.23899 0.26263 0.30006 0.0
H630 H 0.34244 0.22501 0.28987 0.0
H631 H 0.32746 0.20316 0.23572 0.0
C632 C 0.3265 0.24946 0.38753 0.0
C633 C 0.31314 0.28154 0.39655 0.0
C634 C 0.3201 0.23792 0.35575 0.0
C635 C 0.30031 0.2583 0.33237 0.0
C636 C 0.28757 0.29064 0.34121 0.0
C637 C 0.29381 0.30207 0.37289 0.0
C638 C 0.25035 0.23804 0.25518 0.0
C639 C 0.27491 0.22085 0.23669 0.0
C640 C 0.25874 0.25019 0.28611 0.0
C641 C 0.2919 0.24557 0.29923 0.0
C642 C 0.31658 0.22862 0.28058 0.0
C643 C 0.30813 0.21639 0.24954 0.0
H644 H 0.23391 0.83319 0.88741 0.0
H645 H 0.15505 0.75399 0.89783 0.0
H646 H 0.25031 0.8127 0.83392 0.0
H647 H 0.17113 0.73395 0.84335 0.0
H648 H 0.23958 0.68361 0.76503 0.0
H649 H 0.21797 0.70409 0.81733 0.0
H650 H 0.23071 0.81119 0.77736 0.0
H651 H 0.25329 0.79057 0.72543 0.0
C652 C 0.21981 0.81157 0.8782 0.0
C653 C 0.19313 0.79523 0.89706 0.0
C654 C 0.2291 0.79997 0.84729 0.0
C655 C 0.21191 0.77184 0.83421 0.0
C656 C 0.18509 0.75551 0.85289 0.0
C657 C 0.17579 0.76709 0.88402 0.0
C658 C 0.23758 0.71152 0.76737 0.0
C659 C 0.24829 0.7356 0.7413 0.0
C660 C 0.22498 0.72325 0.79726 0.0
C661 C 0.22276 0.75927 0.8016 0.0
C662 C 0.23264 0.78327 0.77506 0.0
C663 C 0.2454 0.77152 0.74528 0.0
loop_
_geom_bond_atom_site_label_1
_geom_bond_atom_site_label_2
_geom_bond_distance
_geom_bond_site_symmetry_2
_ccdc_geom_bond_type
Sc0 O3 2.025 . S
Sc0 O10 2.105 1_554 S
Sc0 O13 2.105 . S
Sc0 O16 2.105 . S
Sc0 O19 2.105 1_554 S
Sc1 O3 2.025 . S
Sc1 O11 2.105 1_554 S
Sc1 O15 2.105 . S
Sc1 O17 2.105 . S
Sc1 O21 2.105 1_554 S
Sc2 O3 2.025 1_556 S
Sc2 O12 2.105 . S
Sc2 O14 2.105 1_556 S
Sc2 O18 2.105 1_556 S
Sc2 O20 2.105 . S
O3 Sc0 2.025 . S
O3 Sc1 2.025 . S
O3 Sc2 2.025 1_554 S
C4 O10 1.268 . S
C4 O20 1.268 . S
C5 O11 1.268 . S
C5 O19 1.268 . S
C6 O12 1.268 . S
C6 O21 1.268 . S
C7 O13 1.268 . S
C7 O17 1.268 . S
C8 O14 1.268 . S
C8 O16 1.268 . S
C9 O15 1.268 . S
C9 O18 1.268 . S
O10 Sc0 2.105 1_556 S
O10 C4 1.268 . S
O11 Sc1 2.105 1_556 S
O11 C5 1.268 . S
O12 Sc2 2.105 . S
O12 C6 1.268 . S
O13 Sc0 2.105 . S
O13 C7 1.268 . S
O14 Sc2 2.105 1_554 S
O14 C8 1.268 . S
O15 Sc1 2.105 . S
O15 C9 1.268 . S
O16 Sc0 2.105 . S
O16 C8 1.268 . S
O17 Sc1 2.105 . S
O17 C7 1.268 . S
O18 Sc2 2.105 1_554 S
O18 C9 1.268 . S
O19 Sc0 2.105 1_556 S
O19 C5 1.268 . S
O20 Sc2 2.105 . S
O20 C4 1.268 . S
O21 Sc1 2.105 1_556 S
O21 C6 1.268 . S
Sc22 O25 2.025 . S
Sc22 O32 2.105 . S
Sc22 O35 2.105 . S
Sc22 O38 2.105 . S
Sc22 O41 2.105 . S
Sc23 O25 2.025 . S
Sc23 O33 2.105 . S
Sc23 O37 2.105 . S
Sc23 O39 2.105 . S
Sc23 O43 2.105 . S
Sc24 O25 2.025 . S
Sc24 O34 2.105 . S
Sc24 O36 2.105 . S
Sc24 O40 2.105 . S
Sc24 O42 2.105 . S
O25 Sc22 2.025 . S
O25 Sc23 2.025 . S
O25 Sc24 2.025 . S
C26 O32 1.268 . S
C26 O42 1.268 . S
C27 O33 1.268 . S
C27 O41 1.268 . S
C28 O34 1.268 . S
C28 O43 1.268 . S
C29 O35 1.268 . S
C29 O39 1.268 . S
C30 O36 1.268 . S
C30 O38 1.268 . S
C31 O37 1.268 . S
C31 O40 1.268 . S
O32 Sc22 2.105 . S
O32 C26 1.268 . S
O33 Sc23 2.105 . S
O33 C27 1.268 . S
O34 Sc24 2.105 . S
O34 C28 1.268 . S
O35 Sc22 2.105 . S
O35 C29 1.268 . S
O36 Sc24 2.105 . S
O36 C30 1.268 . S
O37 Sc23 2.105 . S
O37 C31 1.268 . S
O38 Sc22 2.105 . S
O38 C30 1.268 . S
O39 Sc23 2.105 . S
O39 C29 1.268 . S
O40 Sc24 2.105 . S
O40 C31 1.268 . S
O41 Sc22 2.105 . S
O41 C27 1.268 . S
O42 Sc24 2.105 . S
O42 C26 1.268 . S
O43 Sc23 2.105 . S
O43 C28 1.268 . S
Sc44 O47 2.025 . S
Sc44 O54 2.105 1_554 S
Sc44 O57 2.105 . S
Sc44 O60 2.105 . S
Sc44 O63 2.105 . S
Sc45 O47 2.025 . S
Sc45 O55 2.105 . S
Sc45 O59 2.105 . S
Sc45 O61 2.105 . S
Sc45 O65 2.105 . S
Sc46 O47 2.025 . S
Sc46 O56 2.105 . S
Sc46 O58 2.105 . S
Sc46 O62 2.105 . S
Sc46 O64 2.105 1_554 S
O47 Sc44 2.025 . S
O47 Sc45 2.025 . S
O47 Sc46 2.025 . S
C48 O54 1.268 . S
C48 O64 1.268 . S
C49 O55 1.268 1_556 S
C49 O63 1.268 1_556 S
C50 O56 1.268 1_556 S
C50 O65 1.268 1_556 S
C51 O57 1.268 . S
C51 O61 1.268 . S
C52 O58 1.268 . S
C52 O60 1.268 . S
C53 O59 1.268 . S
C53 O62 1.268 . S
O54 Sc44 2.105 1_556 S
O54 C48 1.268 . S
O55 Sc45 2.105 . S
O55 C49 1.268 1_554 S
O56 Sc46 2.105 . S
O56 C50 1.268 1_554 S
O57 Sc44 2.105 . S
O57 C51 1.268 . S
O58 Sc46 2.105 . S
O58 C52 1.268 . S
O59 Sc45 2.105 . S
O59 C53 1.268 . S
O60 Sc44 2.105 . S
O60 C52 1.268 . S
O61 Sc45 2.105 . S
O61 C51 1.268 . S
O62 Sc46 2.105 . S
O62 C53 1.268 . S
O63 Sc44 2.105 . S
O63 C49 1.268 1_554 S
O64 Sc46 2.105 1_556 S
O64 C48 1.268 . S
O65 Sc45 2.105 . S
O65 C50 1.268 1_554 S
Sc66 O69 2.025 . S
Sc66 O76 2.105 . S
Sc66 O79 2.105 . S
Sc66 O82 2.105 . S
Sc66 O85 2.105 . S
Sc67 O69 2.025 . S
Sc67 O77 2.105 . S
Sc67 O81 2.105 . S
Sc67 O83 2.105 . S
Sc67 O87 2.105 . S
Sc68 O69 2.025 . S
Sc68 O78 2.105 . S
Sc68 O80 2.105 . S
Sc68 O84 2.105 . S
Sc68 O86 2.105 . S
O69 Sc66 2.025 . S
O69 Sc67 2.025 . S
O69 Sc68 2.025 . S
C70 O76 1.268 . S
C70 O86 1.268 . S
C71 O77 1.268 . S
C71 O85 1.268 . S
C72 O78 1.268 . S
C72 O87 1.268 . S
C73 O79 1.268 . S
C73 O83 1.268 . S
C74 O80 1.268 . S
C74 O82 1.268 . S
C75 O81 1.268 . S
C75 O84 1.268 . S
O76 Sc66 2.105 . S
O76 C70 1.268 . S
O77 Sc67 2.105 . S
O77 C71 1.268 . S
O78 Sc68 2.105 . S
O78 C72 1.268 . S
O79 Sc66 2.105 . S
O79 C73 1.268 . S
O80 Sc68 2.105 . S
O80 C74 1.268 . S
O81 Sc67 2.105 . S
O81 C75 1.268 . S
O82 Sc66 2.105 . S
O82 C74 1.268 . S
O83 Sc67 2.105 . S
O83 C73 1.268 . S
O84 Sc68 2.105 . S
O84 C75 1.268 . S
O85 Sc66 2.105 . S
O85 C71 1.268 . S
O86 Sc68 2.105 . S
O86 C70 1.268 . S
O87 Sc67 2.105 . S
O87 C72 1.268 . S
H88 C93 0.930 . S
H89 C96 0.930 . S
H90 C98 0.930 . S
H91 C92 1.016 . S
C92 H91 1.016 . S
C92 N99 1.286 . S
C93 H88 0.930 . S
C93 C94 1.397 . S
C93 C95 1.361 . S
C94 C93 1.397 . S
C94 C98 1.390 . S
C95 C93 1.361 . S
C95 C96 1.393 . S
C95 N99 1.413 . S
C96 H89 0.930 . S
C96 C95 1.393 . S
C96 C97 1.399 . S
C97 C96 1.399 . S
C97 C98 1.381 . S
C98 H90 0.930 . S
C98 C94 1.390 . S
C98 C97 1.381 . S
N99 C92 1.286 . S
N99 C95 1.413 . S
H100 C105 0.930 . S
H101 C108 0.930 . S
H102 C110 0.930 . S
H103 C104 1.016 . S
C104 H103 1.016 . S
C104 N111 1.286 . S
C105 H100 0.930 . S
C105 C106 1.397 . S
C105 C107 1.361 . S
C106 C105 1.397 . S
C106 C110 1.390 . S
C107 C105 1.361 . S
C107 C108 1.393 . S
C107 N111 1.413 . S
C108 H101 0.930 . S
C108 C107 1.393 . S
C108 C109 1.399 . S
C109 C108 1.399 . S
C109 C110 1.381 . S
C110 H102 0.930 . S
C110 C106 1.390 . S
C110 C109 1.381 . S
N111 C104 1.286 . S
N111 C107 1.413 . S
H112 C117 0.930 . S
H113 C120 0.930 . S
H114 C122 0.930 . S
H115 C116 1.016 . S
C116 H115 1.016 . S
C116 N123 1.286 . S
C117 H112 0.930 . S
C117 C118 1.397 . S
C117 C119 1.361 . S
C118 C117 1.397 . S
C118 C122 1.390 . S
C119 C117 1.361 . S
C119 C120 1.393 . S
C119 N123 1.413 . S
C120 H113 0.930 . S
C120 C119 1.393 . S
C120 C121 1.399 . S
C121 C120 1.399 . S
C121 C122 1.381 . S
C122 H114 0.930 . S
C122 C118 1.390 . S
C122 C121 1.381 . S
N123 C116 1.286 . S
N123 C119 1.413 . S
H124 C129 0.930 . S
H125 C132 0.930 . S
H126 C134 0.930 . S
H127 C128 1.016 . S
C128 H127 1.016 . S
C128 N135 1.286 . S
C129 H124 0.930 . S
C129 C130 1.397 . S
C129 C131 1.361 . S
C130 C129 1.397 . S
C130 C134 1.390 . S
C131 C129 1.361 . S
C131 C132 1.393 . S
C131 N135 1.413 . S
C132 H125 0.930 . S
C132 C131 1.393 . S
C132 C133 1.399 . S
C133 C132 1.399 . S
C133 C134 1.381 . S
C134 H126 0.930 . S
C134 C130 1.390 . S
C134 C133 1.381 . S
N135 C128 1.286 . S
N135 C131 1.413 . S
H136 C141 0.930 . S
H137 C144 0.930 . S
H138 C146 0.930 . S
H139 C140 1.016 . S
C140 H139 1.016 . S
C140 N147 1.286 . S
C141 H136 0.930 . S
C141 C142 1.397 . S
C141 C143 1.361 . S
C142 C141 1.397 . S
C142 C146 1.390 . S
C143 C141 1.361 . S
C143 C144 1.393 . S
C143 N147 1.413 . S
C144 H137 0.930 . S
C144 C143 1.393 . S
C144 C145 1.399 . S
C145 C144 1.399 . S
C145 C146 1.381 . S
C146 H138 0.930 . S
C146 C142 1.390 . S
C146 C145 1.381 . S
N147 C140 1.286 . S
N147 C143 1.413 . S
H148 C153 0.930 . S
H149 C156 0.930 . S
H150 C158 0.930 . S
H151 C152 1.016 . S
C152 H151 1.016 . S
C152 N159 1.286 . S
C153 H148 0.930 . S
C153 C154 1.397 . S
C153 C155 1.361 . S
C154 C153 1.397 . S
C154 C158 1.390 . S
C155 C153 1.361 . S
C155 C156 1.393 . S
C155 N159 1.413 . S
C156 H149 0.930 . S
C156 C155 1.393 . S
C156 C157 1.399 . S
C157 C156 1.399 . S
C157 C158 1.381 . S
C158 H150 0.930 . S
C158 C154 1.390 . S
C158 C157 1.381 . S
N159 C152 1.286 . S
N159 C155 1.413 . S
H160 C165 0.930 . S
H161 C168 0.930 . S
H162 C170 0.930 . S
H163 C164 1.016 . S
C164 H163 1.016 . S
C164 N171 1.286 . S
C165 H160 0.930 . S
C165 C166 1.397 . S
C165 C167 1.361 . S
C166 C165 1.397 . S
C166 C170 1.390 . S
C167 C165 1.361 . S
C167 C168 1.393 . S
C167 N171 1.413 . S
C168 H161 0.930 . S
C168 C167 1.393 . S
C168 C169 1.399 . S
C169 C168 1.399 . S
C169 C170 1.381 . S
C170 H162 0.930 . S
C170 C166 1.390 . S
C170 C169 1.381 . S
N171 C164 1.286 . S
N171 C167 1.413 . S
H172 C177 0.930 . S
H173 C180 0.930 . S
H174 C182 0.930 . S
H175 C176 1.016 . S
C176 H175 1.016 . S
C176 N183 1.286 . S
C177 H172 0.930 . S
C177 C178 1.397 . S
C177 C179 1.361 . S
C178 C177 1.397 . S
C178 C182 1.390 . S
C179 C177 1.361 . S
C179 C180 1.393 . S
C179 N183 1.413 . S
C180 H173 0.930 . S
C180 C179 1.393 . S
C180 C181 1.399 . S
C181 C180 1.399 . S
C181 C182 1.381 . S
C182 H174 0.930 . S
C182 C178 1.390 . S
C182 C181 1.381 . S
N183 C176 1.286 . S
N183 C179 1.413 . S
H184 C192 0.950 . S
H185 C197 0.950 . S
H186 C194 0.950 . S
H187 C196 0.950 . S
H188 C198 0.950 . S
H189 C200 0.950 . S
H190 C202 0.950 . S
H191 C203 0.950 . S
C192 H184 0.950 . S
C192 C193 1.386 . S
C192 C194 1.391 1_565 S
C193 C192 1.386 . S
C193 C197 1.393 . S
C194 H186 0.950 . S
C194 C192 1.391 1_545 S
C194 C195 1.400 . S
C195 C194 1.400 . S
C195 C196 1.398 . S
C195 C201 1.491 . S
C196 H187 0.950 . S
C196 C195 1.398 . S
C196 C197 1.391 1_545 S
C197 H185 0.950 . S
C197 C193 1.393 . S
C197 C196 1.391 1_565 S
C198 H188 0.950 . S
C198 C199 1.386 . S
C198 C200 1.391 . S
C199 C198 1.386 . S
C199 C203 1.393 . S
C200 H189 0.950 . S
C200 C198 1.391 . S
C200 C201 1.400 . S
C201 C195 1.491 . S
C201 C200 1.400 . S
C201 C202 1.398 . S
C202 H190 0.950 . S
C202 C201 1.398 . S
C202 C203 1.391 . S
C203 H191 0.950 . S
C203 C199 1.393 . S
C203 C202 1.391 . S
H204 C212 0.950 . S
H205 C217 0.950 . S
H206 C214 0.950 . S
H207 C216 0.950 . S
H208 C218 0.950 . S
H209 C220 0.950 . S
H210 C222 0.950 . S
H211 C223 0.950 . S
C212 H204 0.950 . S
C212 C213 1.386 . S
C212 C214 1.391 . S
C213 C212 1.386 . S
C213 C217 1.393 . S
C214 H206 0.950 . S
C214 C212 1.391 . S
C214 C215 1.400 . S
C215 C214 1.400 . S
C215 C216 1.398 . S
C215 C221 1.491 . S
C216 H207 0.950 . S
C216 C215 1.398 . S
C216 C217 1.391 . S
C217 H205 0.950 . S
C217 C213 1.393 . S
C217 C216 1.391 . S
C218 H208 0.950 . S
C218 C219 1.386 . S
C218 C220 1.391 . S
C219 C218 1.386 . S
C219 C223 1.393 . S
C220 H209 0.950 . S
C220 C218 1.391 . S
C220 C221 1.400 . S
C221 C215 1.491 . S
C221 C220 1.400 . S
C221 C222 1.398 . S
C222 H210 0.950 . S
C222 C221 1.398 . S
C222 C223 1.391 . S
C223 H211 0.950 . S
C223 C219 1.393 . S
C223 C222 1.391 . S
H224 C232 0.950 . S
H225 C237 0.950 . S
H226 C234 0.950 . S
H227 C236 0.950 . S
H228 C238 0.950 . S
H229 C240 0.950 . S
H230 C242 0.950 . S
H231 C243 0.950 . S
C232 H224 0.950 . S
C232 C233 1.386 . S
C232 C234 1.391 1_545 S
C233 C232 1.386 . S
C233 C237 1.393 . S
C234 H226 0.950 . S
C234 C232 1.391 1_565 S
C234 C235 1.400 . S
C235 C234 1.400 . S
C235 C236 1.398 1_565 S
C235 C241 1.491 . S
C236 H227 0.950 . S
C236 C235 1.398 1_545 S
C236 C237 1.391 . S
C237 H225 0.950 . S
C237 C233 1.393 . S
C237 C236 1.391 . S
C238 H228 0.950 . S
C238 C239 1.386 . S
C238 C240 1.391 . S
C239 C238 1.386 . S
C239 C243 1.393 . S
C240 H229 0.950 . S
C240 C238 1.391 . S
C240 C241 1.400 . S
C241 C235 1.491 . S
C241 C240 1.400 . S
C241 C242 1.398 . S
C242 H230 0.950 . S
C242 C241 1.398 . S
C242 C243 1.391 . S
C243 H231 0.950 . S
C243 C239 1.393 . S
C243 C242 1.391 . S
H244 C252 0.950 . S
H245 C257 0.950 . S
H246 C254 0.950 . S
H247 C256 0.950 . S
H248 C258 0.950 . S
H249 C260 0.950 . S
H250 C262 0.950 . S
H251 C263 0.950 . S
C252 H244 0.950 . S
C252 C253 1.386 . S
C252 C254 1.391 . S
C253 C252 1.386 . S
C253 C257 1.393 . S
C254 H246 0.950 . S
C254 C252 1.391 . S
C254 C255 1.400 . S
C255 C254 1.400 . S
C255 C256 1.398 . S
C255 C261 1.491 . S
C256 H247 0.950 . S
C256 C255 1.398 . S
C256 C257 1.391 . S
C257 H245 0.950 . S
C257 C253 1.393 . S
C257 C256 1.391 . S
C258 H248 0.950 . S
C258 C259 1.386 . S
C258 C260 1.391 . S
C259 C258 1.386 . S
C259 C263 1.393 . S
C260 H249 0.950 . S
C260 C258 1.391 . S
C260 C261 1.400 . S
C261 C255 1.491 . S
C261 C260 1.400 . S
C261 C262 1.398 . S
C262 H250 0.950 . S
C262 C261 1.398 . S
C262 C263 1.391 . S
C263 H251 0.950 . S
C263 C259 1.393 . S
C263 C262 1.391 . S
H264 C272 0.950 . S
H265 C277 0.950 . S
H266 C274 0.950 . S
H267 C276 0.950 . S
H268 C278 0.950 . S
H269 C280 0.950 . S
H270 C282 0.950 . S
H271 C283 0.950 . S
C272 H264 0.950 . S
C272 C273 1.386 . S
C272 C274 1.391 . S
C273 C272 1.386 . S
C273 C277 1.393 . S
C274 H266 0.950 . S
C274 C272 1.391 . S
C274 C275 1.400 . S
C275 C274 1.400 . S
C275 C276 1.398 . S
C275 C281 1.491 . S
C276 H267 0.950 . S
C276 C275 1.398 . S
C276 C277 1.391 . S
C277 H265 0.950 . S
C277 C273 1.393 . S
C277 C276 1.391 . S
C278 H268 0.950 . S
C278 C279 1.386 . S
C278 C280 1.391 . S
C279 C278 1.386 . S
C279 C283 1.393 . S
C280 H269 0.950 . S
C280 C278 1.391 . S
C280 C281 1.400 . S
C281 C275 1.491 . S
C281 C280 1.400 . S
C281 C282 1.398 . S
C282 H270 0.950 . S
C282 C281 1.398 . S
C282 C283 1.391 . S
C283 H271 0.950 . S
C283 C279 1.393 . S
C283 C282 1.391 . S
H284 C292 0.950 . S
H285 C297 0.950 . S
H286 C294 0.950 . S
H287 C296 0.950 . S
H288 C298 0.950 . S
H289 C300 0.944 1_655 S
H290 C302 0.950 . S
H291 C303 0.950 . S
C292 H284 0.950 . S
C292 C293 1.386 . S
C292 C294 1.391 . S
C293 C292 1.386 . S
C293 C297 1.393 . S
C294 H286 0.950 . S
C294 C292 1.391 . S
C294 C295 1.400 . S
C295 C294 1.400 . S
C295 C296 1.398 . S
C295 C301 1.491 . S
C296 H287 0.950 . S
C296 C295 1.398 . S
C296 C297 1.391 . S
C297 H285 0.950 . S
C297 C293 1.393 . S
C297 C296 1.391 . S
C298 H288 0.950 . S
C298 C299 1.386 . S
C298 C300 1.410 . S
C299 C298 1.386 . S
C299 C303 1.393 . S
C300 H289 0.944 1_455 S
C300 C298 1.410 . S
C300 C301 1.389 1_455 S
C301 C295 1.491 . S
C301 C300 1.389 1_655 S
C301 C302 1.398 . S
C302 H290 0.950 . S
C302 C301 1.398 . S
C302 C303 1.391 1_655 S
C303 H291 0.950 . S
C303 C299 1.393 . S
C303 C302 1.391 1_455 S
H304 C312 0.950 . S
H305 C317 0.950 . S
H306 C314 0.950 . S
H307 C316 0.950 . S
H308 C318 0.950 . S
H309 C320 0.950 . S
H310 C322 0.950 . S
H311 C323 0.950 . S
C312 H304 0.950 . S
C312 C313 1.386 . S
C312 C314 1.391 . S
C313 C312 1.386 . S
C313 C317 1.393 . S
C314 H306 0.950 . S
C314 C312 1.391 . S
C314 C315 1.400 . S
C315 C314 1.400 . S
C315 C316 1.398 . S
C315 C321 1.491 . S
C316 H307 0.950 . S
C316 C315 1.398 . S
C316 C317 1.391 . S
C317 H305 0.950 . S
C317 C313 1.393 . S
C317 C316 1.391 . S
C318 H308 0.950 . S
C318 C319 1.386 . S
C318 C320 1.391 . S
C319 C318 1.386 . S
C319 C323 1.393 . S
C320 H309 0.950 . S
C320 C318 1.391 . S
C320 C321 1.400 . S
C321 C315 1.491 . S
C321 C320 1.400 . S
C321 C322 1.398 . S
C322 H310 0.950 . S
C322 C321 1.398 . S
C322 C323 1.391 . S
C323 H311 0.950 . S
C323 C319 1.393 . S
C323 C322 1.391 . S
H324 C332 0.950 . S
H325 C337 0.950 . S
H326 C334 0.952 . S
H327 C336 0.950 . S
H328 C338 0.950 . S
H329 C340 0.950 . S
H330 C342 0.950 . S
H331 C343 0.950 . S
C332 H324 0.950 . S
C332 C333 1.386 . S
C332 C334 1.391 . S
C333 C332 1.386 . S
C333 C337 1.393 . S
C334 H326 0.952 . S
C334 C332 1.391 . S
C334 C335 1.400 1_455 S
C335 C334 1.400 1_655 S
C335 C336 1.398 . S
C335 C341 1.491 . S
C336 H327 0.950 . S
C336 C335 1.398 . S
C336 C337 1.391 1_655 S
C337 H325 0.950 . S
C337 C333 1.393 . S
C337 C336 1.391 1_455 S
C338 H328 0.950 . S
C338 C339 1.386 . S
C338 C340 1.391 . S
C339 C338 1.386 . S
C339 C343 1.393 . S
C340 H329 0.950 . S
C340 C338 1.391 . S
C340 C341 1.400 . S
C341 C335 1.491 . S
C341 C340 1.400 . S
C341 C342 1.398 . S
C342 H330 0.950 . S
C342 C341 1.398 . S
C342 C343 1.391 . S
C343 H331 0.950 . S
C343 C339 1.393 . S
C343 C342 1.391 . S
H344 C352 0.949 . S
H345 C357 0.950 . S
H346 C354 0.950 . S
H347 C356 0.958 . S
H348 C358 0.950 . S
H349 C360 0.950 . S
H350 C362 0.950 . S
H351 C363 0.950 . S
C352 H344 0.949 . S
C352 C353 1.386 . S
C352 C354 1.391 1_545 S
C353 C352 1.386 . S
C353 C357 1.393 . S
C354 H346 0.950 . S
C354 C352 1.391 1_565 S
C354 C355 1.400 . S
C355 C354 1.400 . S
C355 C356 1.398 1_565 S
C355 C361 1.491 . S
C356 H347 0.958 . S
C356 C355 1.398 1_545 S
C356 C357 1.391 . S
C357 H345 0.950 . S
C357 C353 1.393 . S
C357 C356 1.391 . S
C358 H348 0.950 . S
C358 C359 1.386 . S
C358 C360 1.391 . S
C359 C358 1.386 . S
C359 C363 1.393 . S
C360 H349 0.950 . S
C360 C358 1.391 . S
C360 C361 1.400 . S
C361 C355 1.491 . S
C361 C360 1.400 . S
C361 C362 1.398 . S
C362 H350 0.950 . S
C362 C361 1.398 . S
C362 C363 1.391 . S
C363 H351 0.950 . S
C363 C359 1.393 . S
C363 C362 1.391 . S
H364 C372 0.950 . S
H365 C377 0.950 . S
H366 C374 0.950 . S
H367 C376 0.950 . S
H368 C378 0.950 . S
H369 C380 0.950 . S
H370 C382 0.950 . S
H371 C383 0.950 . S
C372 H364 0.950 . S
C372 C373 1.386 . S
C372 C374 1.391 . S
C373 C372 1.386 . S
C373 C377 1.393 . S
C374 H366 0.950 . S
C374 C372 1.391 . S
C374 C375 1.400 . S
C375 C374 1.400 . S
C375 C376 1.398 . S
C375 C381 1.491 . S
C376 H367 0.950 . S
C376 C375 1.398 . S
C376 C377 1.391 . S
C377 H365 0.950 . S
C377 C373 1.393 . S
C377 C376 1.391 . S
C378 H368 0.950 . S
C378 C379 1.386 . S
C378 C380 1.391 . S
C379 C378 1.386 . S
C379 C383 1.393 . S
C380 H369 0.950 . S
C380 C378 1.391 . S
C380 C381 1.400 . S
C381 C375 1.491 . S
C381 C380 1.400 . S
C381 C382 1.398 . S
C382 H370 0.950 . S
C382 C381 1.398 . S
C382 C383 1.391 . S
C383 H371 0.950 . S
C383 C379 1.393 . S
C383 C382 1.391 . S
H384 C392 0.950 . S
H385 C397 0.950 . S
H386 C394 0.950 . S
H387 C396 0.950 . S
H388 C398 0.950 . S
H389 C400 0.950 . S
H390 C402 0.950 . S
H391 C403 0.950 . S
C392 H384 0.950 . S
C392 C393 1.386 . S
C392 C394 1.391 1_565 S
C393 C392 1.386 . S
C393 C397 1.393 . S
C394 H386 0.950 . S
C394 C392 1.391 1_545 S
C394 C395 1.400 . S
C395 C394 1.400 . S
C395 C396 1.398 1_545 S
C395 C401 1.491 . S
C396 H387 0.950 . S
C396 C395 1.398 1_565 S
C396 C397 1.391 . S
C397 H385 0.950 . S
C397 C393 1.393 . S
C397 C396 1.391 . S
C398 H388 0.950 . S
C398 C399 1.386 . S
C398 C400 1.391 . S
C399 C398 1.386 . S
C399 C403 1.393 . S
C400 H389 0.950 . S
C400 C398 1.391 . S
C400 C401 1.400 . S
C401 C395 1.491 . S
C401 C400 1.400 . S
C401 C402 1.398 . S
C402 H390 0.950 . S
C402 C401 1.398 . S
C402 C403 1.391 . S
C403 H391 0.950 . S
C403 C399 1.393 . S
C403 C402 1.391 . S
H404 C412 0.950 . S
H405 C417 0.950 . S
H406 C414 0.950 . S
H407 C416 0.950 . S
H408 C418 0.950 . S
H409 C420 0.950 . S
H410 C422 0.950 . S
H411 C423 0.950 . S
C412 H404 0.950 . S
C412 C413 1.386 . S
C412 C414 1.391 . S
C413 C412 1.386 . S
C413 C417 1.393 . S
C414 H406 0.950 . S
C414 C412 1.391 . S
C414 C415 1.400 . S
C415 C414 1.400 . S
C415 C416 1.398 . S
C415 C421 1.491 . S
C416 H407 0.950 . S
C416 C415 1.398 . S
C416 C417 1.391 . S
C417 H405 0.950 . S
C417 C413 1.393 . S
C417 C416 1.391 . S
C418 H408 0.950 . S
C418 C419 1.386 . S
C418 C420 1.391 . S
C419 C418 1.386 . S
C419 C423 1.393 . S
C420 H409 0.950 . S
C420 C418 1.391 . S
C420 C421 1.400 . S
C421 C415 1.491 . S
C421 C420 1.400 . S
C421 C422 1.398 . S
C422 H410 0.950 . S
C422 C421 1.398 . S
C422 C423 1.391 . S
C423 H411 0.950 . S
C423 C419 1.393 . S
C423 C422 1.391 . S
H424 C432 0.950 . S
H425 C437 0.950 . S
H426 C434 0.950 . S
H427 C436 0.950 . S
H428 C438 0.950 . S
H429 C440 0.950 . S
H430 C442 0.950 . S
H431 C443 0.950 . S
C432 H424 0.950 . S
C432 C433 1.386 . S
C432 C434 1.391 . S
C433 C432 1.386 . S
C433 C437 1.393 . S
C434 H426 0.950 . S
C434 C432 1.391 . S
C434 C435 1.400 . S
C435 C434 1.400 . S
C435 C436 1.398 . S
C435 C441 1.491 . S
C436 H427 0.950 . S
C436 C435 1.398 . S
C436 C437 1.391 . S
C437 H425 0.950 . S
C437 C433 1.393 . S
C437 C436 1.391 . S
C438 H428 0.950 . S
C438 C439 1.386 . S
C438 C440 1.391 . S
C439 C438 1.386 . S
C439 C443 1.393 . S
C440 H429 0.950 . S
C440 C438 1.391 . S
C440 C441 1.400 . S
C441 C435 1.491 . S
C441 C440 1.400 . S
C441 C442 1.398 . S
C442 H430 0.950 . S
C442 C441 1.398 . S
C442 C443 1.391 . S
C443 H431 0.950 . S
C443 C439 1.393 . S
C443 C442 1.391 . S
H444 C452 0.950 . S
H445 C457 0.950 . S
H446 C454 0.950 . S
H447 C456 0.950 . S
H448 C458 0.950 . S
H449 C460 0.950 . S
H450 C462 0.950 . S
H451 C463 0.950 . S
C452 H444 0.950 . S
C452 C453 1.386 . S
C452 C454 1.391 . S
C453 C452 1.386 . S
C453 C457 1.393 . S
C454 H446 0.950 . S
C454 C452 1.391 . S
C454 C455 1.400 . S
C455 C454 1.400 . S
C455 C456 1.398 . S
C455 C461 1.491 . S
C456 H447 0.950 . S
C456 C455 1.398 . S
C456 C457 1.391 . S
C457 H445 0.950 . S
C457 C453 1.393 . S
C457 C456 1.391 . S
C458 H448 0.950 . S
C458 C459 1.386 . S
C458 C460 1.391 . S
C459 C458 1.386 . S
C459 C463 1.393 . S
C460 H449 0.950 . S
C460 C458 1.391 . S
C460 C461 1.400 1_655 S
C461 C455 1.491 . S
C461 C460 1.400 1_455 S
C461 C462 1.398 . S
C462 H450 0.950 . S
C462 C461 1.398 . S
C462 C463 1.391 1_455 S
C463 H451 0.950 . S
C463 C459 1.393 . S
C463 C462 1.391 1_655 S
H464 C472 0.950 . S
H465 C477 0.950 . S
H466 C474 0.950 . S
H467 C476 0.950 . S
H468 C478 0.950 . S
H469 C480 0.950 . S
H470 C482 0.950 . S
H471 C483 0.950 . S
C472 H464 0.950 . S
C472 C473 1.386 . S
C472 C474 1.391 . S
C473 C472 1.386 . S
C473 C477 1.393 . S
C474 H466 0.950 . S
C474 C472 1.391 . S
C474 C475 1.400 . S
C475 C474 1.400 . S
C475 C476 1.398 . S
C475 C481 1.491 . S
C476 H467 0.950 . S
C476 C475 1.398 . S
C476 C477 1.391 . S
C477 H465 0.950 . S
C477 C473 1.393 . S
C477 C476 1.391 . S
C478 H468 0.950 . S
C478 C479 1.386 . S
C478 C480 1.391 . S
C479 C478 1.386 . S
C479 C483 1.393 . S
C480 H469 0.950 . S
C480 C478 1.391 . S
C480 C481 1.400 . S
C481 C475 1.491 . S
C481 C480 1.400 . S
C481 C482 1.398 . S
C482 H470 0.950 . S
C482 C481 1.398 . S
C482 C483 1.391 . S
C483 H471 0.950 . S
C483 C479 1.393 . S
C483 C482 1.391 . S
H484 C492 0.950 . S
H485 C497 0.950 . S
H486 C494 0.950 . S
H487 C496 0.950 . S
H488 C498 0.950 . S
H489 C500 0.950 . S
H490 C502 0.950 . S
H491 C503 0.950 . S
C492 H484 0.950 . S
C492 C493 1.386 . S
C492 C494 1.391 1_655 S
C493 C492 1.386 . S
C493 C497 1.393 . S
C494 H486 0.950 . S
C494 C492 1.391 1_455 S
C494 C495 1.400 . S
C495 C494 1.400 . S
C495 C496 1.398 . S
C495 C501 1.491 . S
C496 H487 0.950 . S
C496 C495 1.398 . S
C496 C497 1.391 1_455 S
C497 H485 0.950 . S
C497 C493 1.393 . S
C497 C496 1.391 1_655 S
C498 H488 0.950 . S
C498 C499 1.386 . S
C498 C500 1.391 . S
C499 C498 1.386 . S
C499 C503 1.393 . S
C500 H489 0.950 . S
C500 C498 1.391 . S
C500 C501 1.400 . S
C501 C495 1.491 . S
C501 C500 1.400 . S
C501 C502 1.398 . S
C502 H490 0.950 . S
C502 C501 1.398 . S
C502 C503 1.391 . S
C503 H491 0.950 . S
C503 C499 1.393 . S
C503 C502 1.391 . S
H504 C512 0.950 . S
H505 C517 0.950 . S
H506 C514 0.950 . S
H507 C516 0.950 . S
H508 C518 0.950 . S
H509 C520 0.950 . S
H510 C522 0.950 . S
H511 C523 0.950 . S
C512 H504 0.950 . S
C512 C513 1.386 . S
C512 C514 1.391 . S
C513 C512 1.386 . S
C513 C517 1.393 . S
C514 H506 0.950 . S
C514 C512 1.391 . S
C514 C515 1.400 . S
C515 C514 1.400 . S
C515 C516 1.398 . S
C515 C521 1.491 . S
C516 H507 0.950 . S
C516 C515 1.398 . S
C516 C517 1.391 . S
C517 H505 0.950 . S
C517 C513 1.393 . S
C517 C516 1.391 . S
C518 H508 0.950 . S
C518 C519 1.386 . S
C518 C520 1.391 . S
C519 C518 1.386 . S
C519 C523 1.393 . S
C520 H509 0.950 . S
C520 C518 1.391 . S
C520 C521 1.400 . S
C521 C515 1.491 . S
C521 C520 1.400 . S
C521 C522 1.398 . S
C522 H510 0.950 . S
C522 C521 1.398 . S
C522 C523 1.391 . S
C523 H511 0.950 . S
C523 C519 1.393 . S
C523 C522 1.391 . S
H524 C532 0.950 . S
H525 C537 0.950 . S
H526 C534 0.950 . S
H527 C536 0.950 . S
H528 C538 0.950 . S
H529 C540 0.950 . S
H530 C542 0.950 . S
H531 C543 0.950 . S
C532 H524 0.950 . S
C532 C533 1.386 . S
C532 C534 1.391 . S
C533 C532 1.386 . S
C533 C537 1.393 . S
C534 H526 0.950 . S
C534 C532 1.391 . S
C534 C535 1.400 . S
C535 C534 1.400 . S
C535 C536 1.398 . S
C535 C541 1.491 . S
C536 H527 0.950 . S
C536 C535 1.398 . S
C536 C537 1.391 . S
C537 H525 0.950 . S
C537 C533 1.393 . S
C537 C536 1.391 . S
C538 H528 0.950 . S
C538 C539 1.386 . S
C538 C540 1.391 . S
C539 C538 1.386 . S
C539 C543 1.393 . S
C540 H529 0.950 . S
C540 C538 1.391 . S
C540 C541 1.400 . S
C541 C535 1.491 . S
C541 C540 1.400 . S
C541 C542 1.398 . S
C542 H530 0.950 . S
C542 C541 1.398 . S
C542 C543 1.391 . S
C543 H531 0.950 . S
C543 C539 1.393 . S
C543 C542 1.391 . S
H544 C552 0.950 . S
H545 C557 0.950 . S
H546 C554 0.950 . S
H547 C556 0.950 . S
H548 C558 0.950 . S
H549 C560 0.950 . S
H550 C562 0.950 . S
H551 C563 0.950 . S
C552 H544 0.950 . S
C552 C553 1.386 . S
C552 C554 1.391 . S
C553 C552 1.386 . S
C553 C557 1.393 . S
C554 H546 0.950 . S
C554 C552 1.391 . S
C554 C555 1.400 . S
C555 C554 1.400 . S
C555 C556 1.398 . S
C555 C561 1.491 . S
C556 H547 0.950 . S
C556 C555 1.398 . S
C556 C557 1.391 . S
C557 H545 0.950 . S
C557 C553 1.393 . S
C557 C556 1.391 . S
C558 H548 0.950 . S
C558 C559 1.386 . S
C558 C560 1.391 . S
C559 C558 1.386 . S
C559 C563 1.393 . S
C560 H549 0.950 . S
C560 C558 1.391 . S
C560 C561 1.400 . S
C561 C555 1.491 . S
C561 C560 1.400 . S
C561 C562 1.398 . S
C562 H550 0.950 . S
C562 C561 1.398 . S
C562 C563 1.391 . S
C563 H551 0.950 . S
C563 C559 1.393 . S
C563 C562 1.391 . S
H564 C572 0.950 . S
H565 C577 0.950 . S
H566 C574 0.950 . S
H567 C576 0.950 . S
H568 C578 0.950 . S
H569 C580 0.950 . S
H570 C582 0.950 . S
H571 C583 0.950 . S
C572 H564 0.950 . S
C572 C573 1.386 . S
C572 C574 1.391 . S
C573 C572 1.386 . S
C573 C577 1.393 . S
C574 H566 0.950 . S
C574 C572 1.391 . S
C574 C575 1.400 . S
C575 C574 1.400 . S
C575 C576 1.398 . S
C575 C581 1.491 . S
C576 H567 0.950 . S
C576 C575 1.398 . S
C576 C577 1.391 . S
C577 H565 0.950 . S
C577 C573 1.393 . S
C577 C576 1.391 . S
C578 H568 0.950 . S
C578 C579 1.386 . S
C578 C580 1.391 . S
C579 C578 1.386 . S
C579 C583 1.393 . S
C580 H569 0.950 . S
C580 C578 1.391 . S
C580 C581 1.400 . S
C581 C575 1.491 . S
C581 C580 1.400 . S
C581 C582 1.398 . S
C582 H570 0.950 . S
C582 C581 1.398 . S
C582 C583 1.391 . S
C583 H571 0.950 . S
C583 C579 1.393 . S
C583 C582 1.391 . S
H584 C592 0.950 . S
H585 C597 0.950 . S
H586 C594 0.950 . S
H587 C596 0.950 . S
H588 C598 0.950 . S
H589 C600 0.950 . S
H590 C602 0.950 . S
H591 C603 0.950 . S
C592 H584 0.950 . S
C592 C593 1.386 . S
C592 C594 1.391 . S
C593 C592 1.386 . S
C593 C597 1.393 . S
C594 H586 0.950 . S
C594 C592 1.391 . S
C594 C595 1.400 . S
C595 C594 1.400 . S
C595 C596 1.398 . S
C595 C601 1.491 . S
C596 H587 0.950 . S
C596 C595 1.398 . S
C596 C597 1.391 . S
C597 H585 0.950 . S
C597 C593 1.393 . S
C597 C596 1.391 . S
C598 H588 0.950 . S
C598 C599 1.386 . S
C598 C600 1.391 . S
C599 C598 1.386 . S
C599 C603 1.393 . S
C600 H589 0.950 . S
C600 C598 1.391 . S
C600 C601 1.400 . S
C601 C595 1.491 . S
C601 C600 1.400 . S
C601 C602 1.398 . S
C602 H590 0.950 . S
C602 C601 1.398 . S
C602 C603 1.391 . S
C603 H591 0.950 . S
C603 C599 1.393 . S
C603 C602 1.391 . S
H604 C612 0.950 1_554 S
H605 C617 0.950 . S
H606 C614 0.950 . S
H607 C616 0.950 . S
H608 C618 0.950 . S
H609 C620 0.950 . S
H610 C622 0.950 . S
H611 C623 0.950 . S
C612 H604 0.950 1_556 S
C612 C613 1.386 . S
C612 C614 1.391 . S
C613 C612 1.386 . S
C613 C617 1.393 . S
C614 H606 0.950 . S
C614 C612 1.391 . S
C614 C615 1.400 . S
C615 C614 1.400 . S
C615 C616 1.398 . S
C615 C621 1.491 . S
C616 H607 0.950 . S
C616 C615 1.398 . S
C616 C617 1.391 . S
C617 H605 0.950 . S
C617 C613 1.393 . S
C617 C616 1.391 . S
C618 H608 0.950 . S
C618 C619 1.386 . S
C618 C620 1.391 . S
C619 C618 1.386 . S
C619 C623 1.393 . S
C620 H609 0.950 . S
C620 C618 1.391 . S
C620 C621 1.400 . S
C621 C615 1.491 . S
C621 C620 1.400 . S
C621 C622 1.398 . S
C622 H610 0.950 . S
C622 C621 1.398 . S
C622 C623 1.391 . S
C623 H611 0.950 . S
C623 C619 1.393 . S
C623 C622 1.391 . S
H624 C632 0.950 . S
H625 C637 0.950 . S
H626 C634 0.950 . S
H627 C636 0.950 . S
H628 C638 0.950 . S
H629 C640 0.950 . S
H630 C642 0.950 . S
H631 C643 0.950 . S
C632 H624 0.950 . S
C632 C633 1.386 . S
C632 C634 1.391 . S
C633 C632 1.386 . S
C633 C637 1.393 . S
C634 H626 0.950 . S
C634 C632 1.391 . S
C634 C635 1.400 . S
C635 C634 1.400 . S
C635 C636 1.398 . S
C635 C641 1.491 . S
C636 H627 0.950 . S
C636 C635 1.398 . S
C636 C637 1.391 . S
C637 H625 0.950 . S
C637 C633 1.393 . S
C637 C636 1.391 . S
C638 H628 0.950 . S
C638 C639 1.386 . S
C638 C640 1.391 . S
C639 C638 1.386 . S
C639 C643 1.393 . S
C640 H629 0.950 . S
C640 C638 1.391 . S
C640 C641 1.400 . S
C641 C635 1.491 . S
C641 C640 1.400 . S
C641 C642 1.398 . S
C642 H630 0.950 . S
C642 C641 1.398 . S
C642 C643 1.391 . S
C643 H631 0.950 . S
C643 C639 1.393 . S
C643 C642 1.391 . S
H644 C652 0.950 . S
H645 C657 0.950 . S
H646 C654 0.950 . S
H647 C656 0.950 . S
H648 C658 0.950 . S
H649 C660 0.950 . S
H650 C662 0.950 . S
H651 C663 0.950 . S
C652 H644 0.950 . S
C652 C653 1.386 . S
C652 C654 1.391 . S
C653 C652 1.386 . S
C653 C657 1.393 . S
C654 H646 0.950 . S
C654 C652 1.391 . S
C654 C655 1.400 . S
C655 C654 1.400 . S
C655 C656 1.398 . S
C655 C661 1.491 . S
C656 H647 0.950 . S
C656 C655 1.398 . S
C656 C657 1.391 . S
C657 H645 0.950 . S
C657 C653 1.393 . S
C657 C656 1.391 . S
C658 H648 0.950 . S
C658 C659 1.386 . S
C658 C660 1.391 . S
C659 C658 1.386 . S
C659 C663 1.393 . S
C660 H649 0.950 . S
C660 C658 1.391 . S
C660 C661 1.400 . S
C661 C655 1.491 . S
C661 C660 1.400 . S
C661 C662 1.398 . S
C662 H650 0.950 . S
C662 C661 1.398 . S
C662 C663 1.391 . S
C663 H651 0.950 . S
C663 C659 1.393 . S
C663 C662 1.391 . S
C193 C8 1.363 . S
C199 C97 1.334 . S
C213 C31 1.418 . S
C219 C109 1.404 . S
C233 C53 1.363 . S
C239 C121 1.357 . S
C259 C130 1.245 . S
C253 C74 1.283 . S
C279 C145 1.319 . S
C273 C26 1.384 . S
C293 C48 1.273 . S
C299 C154 1.266 . S
C313 C71 1.363 . S
C319 C169 1.355 . S
C333 C5 1.412 . S
C339 C181 1.387 . S
C353 C50 1.267 . S
C359 C178 1.236 . S
C379 C142 1.280 . S
C373 C70 1.248 . S
C399 C157 1.325 . S
C393 C4 1.361 . S
C413 C28 1.301 . S
C419 C166 1.235 . S
C439 C106 1.234 . S
C433 C73 1.266 . S
C453 C7 1.300 . S
C459 C118 1.241 . S
C479 C133 1.344 . S
C473 C30 1.348 . S
C499 C94 1.277 . S
C493 C52 1.248 . S
C519 C164 1.382 . S
C513 C9 1.376 . S
C539 C176 1.363 . S
C533 C29 1.393 . S
C553 C51 1.376 . S
C559 C140 1.362 . S
C579 C152 1.337 . S
C573 C75 1.355 . S
C599 C116 1.372 . S
C593 C27 1.381 . S
C613 C49 1.362 . S
C619 C128 1.358 . S
C639 C92 1.373 . S
C633 C72 1.373 . S
C659 C104 1.378 . S
C653 C6 1.384 . S
