# Generated by pormake.
# Topology pyr, (3,6)-cn, num edge types: 1
# Building blocks:
#     Node 0, Type 0, BuildingBlock: KAKCAD_clean_linker_0, # of connection points: 3
#     Node 1, Type 0, BuildingBlock: KAKCAD_clean_linker_0, # of connection points: 3
#     Node 2, Type 0, BuildingBlock: KAKCAD_clean_linker_0, # of connection points: 3
#     Node 3, Type 0, BuildingBlock: KAKCAD_clean_linker_0, # of connection points: 3
#     Node 4, Type 0, BuildingBlock: KAKCAD_clean_linker_0, # of connection points: 3
#     Node 5, Type 0, BuildingBlock: KAKCAD_clean_linker_0, # of connection points: 3
#     Node 6, Type 0, BuildingBlock: KAKCAD_clean_linker_0, # of connection points: 3
#     Node 7, Type 0, BuildingBlock: KAKCAD_clean_linker_0, # of connection points: 3
#     Node 8, Type 1, BuildingBlock: BETDIP_clean_sbu_0, # of connection points: 6
#     Node 9, Type 1, BuildingBlock: BETDIP_clean_sbu_0, # of connection points: 6
#     Node 10, Type 1, BuildingBlock: BETDIP_clean_sbu_0, # of connection points: 6
#     Node 11, Type 1, BuildingBlock: BETDIP_clean_sbu_0, # of connection points: 6
#     Edge 12, Type (0, 1), BuildingBlock: KIFKEQ_clean_linker_1, # of connection points: 2
#     Edge 13, Type (0, 1), BuildingBlock: KIFKEQ_clean_linker_1, # of connection points: 2
#     Edge 14, Type (0, 1), BuildingBlock: KIFKEQ_clean_linker_1, # of connection points: 2
#     Edge 15, Type (0, 1), BuildingBlock: KIFKEQ_clean_linker_1, # of connection points: 2
#     Edge 16, Type (0, 1), BuildingBlock: KIFKEQ_clean_linker_1, # of connection points: 2
#     Edge 17, Type (0, 1), BuildingBlock: KIFKEQ_clean_linker_1, # of connection points: 2
#     Edge 18, Type (0, 1), BuildingBlock: KIFKEQ_clean_linker_1, # of connection points: 2
#     Edge 19, Type (0, 1), BuildingBlock: KIFKEQ_clean_linker_1, # of connection points: 2
#     Edge 20, Type (0, 1), BuildingBlock: KIFKEQ_clean_linker_1, # of connection points: 2
#     Edge 21, Type (0, 1), BuildingBlock: KIFKEQ_clean_linker_1, # of connection points: 2
#     Edge 22, Type (0, 1), BuildingBlock: KIFKEQ_clean_linker_1, # of connection points: 2
#     Edge 23, Type (0, 1), BuildingBlock: KIFKEQ_clean_linker_1, # of connection points: 2
#     Edge 24, Type (0, 1), BuildingBlock: KIFKEQ_clean_linker_1, # of connection points: 2
#     Edge 25, Type (0, 1), BuildingBlock: KIFKEQ_clean_linker_1, # of connection points: 2
#     Edge 26, Type (0, 1), BuildingBlock: KIFKEQ_clean_linker_1, # of connection points: 2
#     Edge 27, Type (0, 1), BuildingBlock: KIFKEQ_clean_linker_1, # of connection points: 2
#     Edge 28, Type (0, 1), BuildingBlock: KIFKEQ_clean_linker_1, # of connection points: 2
#     Edge 29, Type (0, 1), BuildingBlock: KIFKEQ_clean_linker_1, # of connection points: 2
#     Edge 30, Type (0, 1), BuildingBlock: KIFKEQ_clean_linker_1, # of connection points: 2
#     Edge 31, Type (0, 1), BuildingBlock: KIFKEQ_clean_linker_1, # of connection points: 2
#     Edge 32, Type (0, 1), BuildingBlock: KIFKEQ_clean_linker_1, # of connection points: 2
#     Edge 33, Type (0, 1), BuildingBlock: KIFKEQ_clean_linker_1, # of connection points: 2
#     Edge 34, Type (0, 1), BuildingBlock: KIFKEQ_clean_linker_1, # of connection points: 2
#     Edge 35, Type (0, 1), BuildingBlock: KIFKEQ_clean_linker_1, # of connection points: 2
# Relax obj value: 0.117
# Max RMSD: 0.191
# Mean RMSD: 0.087
data_MOF--net-pyr--node1-BETDIP_clean_sbu_0--node2-KAKCAD_clean_linker_0--edge1-KIFKEQ_clean_linker_1
_symmetry_space_group_name_H-M    P1
_symmetry_Int_Tables_number       1
_symmetry_cell_setting            triclinic
loop_
_symmetry_equiv_pos_as_xyz
'x, y, z'
_cell_length_a     43.916448
_cell_length_b     49.058931
_cell_length_c     48.829591
_cell_angle_alpha  88.78482
_cell_angle_beta   92.955686
_cell_angle_gamma 101.90731
loop_
_atom_site_label
_atom_site_type_symbol
_atom_site_fract_x
_atom_site_fract_y
_atom_site_fract_z
_atom_type_partial_charge
C0 C 0.25018 0.2023 0.26516 0.0
C1 C 0.2652 0.1937 0.28881 0.0
C2 C 0.26745 0.21793 0.24513 0.0
C3 C 0.30005 0.22545 0.2485 0.0
C4 C 0.31514 0.21665 0.27209 0.0
C5 C 0.2978 0.20083 0.29213 0.0
C6 C 0.31808 0.24143 0.22673 0.0
C7 C 0.30669 0.2627 0.21273 0.0
C8 C 0.32049 0.27476 0.18903 0.0
C9 C 0.34704 0.26671 0.18016 0.0
C10 C 0.35887 0.2456 0.1942 0.0
C11 C 0.34449 0.23322 0.21764 0.0
C12 C 0.38254 0.23303 0.18196 0.0
C13 C 0.37883 0.2257 0.15422 0.0
C14 C 0.4067 0.22541 0.19837 0.0
C15 C 0.42634 0.20998 0.1873 0.0
C16 C 0.4219 0.20181 0.15974 0.0
C17 C 0.30422 0.29243 0.1715 0.0
C18 C 0.27269 0.28267 0.16385 0.0
C19 C 0.31969 0.31862 0.1622 0.0
C20 C 0.3034 0.33528 0.14612 0.0
C21 C 0.27171 0.3256 0.13877 0.0
C22 C 0.2566 0.29908 0.1476 0.0
C23 C 0.39824 0.21018 0.14323 0.0
H24 H 0.22508 0.19657 0.26196 0.0
H25 H 0.25525 0.2237 0.22676 0.0
H26 H 0.34025 0.22219 0.27513 0.0
H27 H 0.3098 0.19453 0.31037 0.0
H28 H 0.28607 0.26903 0.2195 0.0
H29 H 0.3523 0.21567 0.22744 0.0
H30 H 0.3572 0.27552 0.16134 0.0
H31 H 0.35984 0.23065 0.14132 0.0
H32 H 0.40988 0.2308 0.21987 0.0
H33 H 0.44453 0.20396 0.20043 0.0
H34 H 0.26044 0.26232 0.17053 0.0
H35 H 0.34407 0.32637 0.16788 0.0
H36 H 0.39364 0.20359 0.12213 0.0
H37 H 0.23205 0.29132 0.1426 0.0
H38 H 0.31544 0.35573 0.13955 0.0
C39 C 0.20784 0.8005 0.80855 0.0
C40 C 0.24015 0.80307 0.81302 0.0
C41 C 0.19259 0.78685 0.78538 0.0
C42 C 0.20952 0.77579 0.76632 0.0
C43 C 0.24178 0.778 0.77125 0.0
C44 C 0.25687 0.79134 0.79443 0.0
C45 C 0.19462 0.76404 0.74015 0.0
C46 C 0.17389 0.77736 0.72495 0.0
C47 C 0.16496 0.76986 0.69768 0.0
C48 C 0.17734 0.7491 0.68547 0.0
C49 C 0.19792 0.73559 0.70071 0.0
C50 C 0.20499 0.74213 0.72835 0.0
C51 C 0.21572 0.71754 0.68747 0.0
C52 C 0.20107 0.69593 0.66998 0.0
C53 C 0.24807 0.72194 0.69292 0.0
C54 C 0.26534 0.70448 0.68197 0.0
C55 C 0.25072 0.68228 0.66517 0.0
C56 C 0.1463 0.78667 0.68128 0.0
C57 C 0.11935 0.79291 0.69173 0.0
C58 C 0.15734 0.79918 0.65661 0.0
C59 C 0.14256 0.81868 0.64332 0.0
C60 C 0.11635 0.82574 0.65436 0.0
C61 C 0.10433 0.81218 0.67824 0.0
C62 C 0.2185 0.67835 0.65888 0.0
H63 H 0.19453 0.80944 0.82272 0.0
H64 H 0.16773 0.78537 0.78215 0.0
H65 H 0.25577 0.77053 0.7566 0.0
H66 H 0.28193 0.79366 0.79706 0.0
H67 H 0.16657 0.79504 0.73355 0.0
H68 H 0.2205 0.73133 0.74022 0.0
H69 H 0.17215 0.74444 0.66392 0.0
H70 H 0.17617 0.69227 0.66544 0.0
H71 H 0.26013 0.73898 0.70572 0.0
H72 H 0.29028 0.70856 0.68648 0.0
H73 H 0.11051 0.78353 0.71079 0.0
H74 H 0.17832 0.79499 0.64835 0.0
H75 H 0.20675 0.66142 0.64585 0.0
H76 H 0.08425 0.81746 0.68718 0.0
H77 H 0.1521 0.82883 0.62482 0.0
C78 C 0.74592 0.41929 0.88004 0.0
C79 C 0.76694 0.40455 0.89332 0.0
C80 C 0.71944 0.40529 0.86475 0.0
C81 C 0.71311 0.37607 0.86213 0.0
C82 C 0.73457 0.36145 0.8749 0.0
C83 C 0.7609 0.37541 0.89025 0.0
C84 C 0.68383 0.36075 0.84709 0.0
C85 C 0.67124 0.37207 0.82331 0.0
C86 C 0.64311 0.35836 0.80958 0.0
C87 C 0.62812 0.33188 0.82017 0.0
C88 C 0.64086 0.31963 0.84362 0.0
C89 C 0.66826 0.33467 0.85686 0.0
C90 C 0.6264 0.29128 0.85521 0.0
C91 C 0.59439 0.28353 0.86001 0.0
C92 C 0.64548 0.27256 0.86402 0.0
C93 C 0.63335 0.24752 0.87784 0.0
C94 C 0.60156 0.2401 0.88355 0.0
C95 C 0.63021 0.37206 0.7843 0.0
C96 C 0.63617 0.4014 0.78118 0.0
C97 C 0.61273 0.35645 0.76263 0.0
C98 C 0.60245 0.36963 0.73877 0.0
C99 C 0.60953 0.39892 0.73544 0.0
C100 C 0.62637 0.41445 0.75729 0.0
C101 C 0.58222 0.25846 0.87408 0.0
H102 H 0.7494 0.44167 0.88206 0.0
H103 H 0.70347 0.4174 0.85562 0.0
H104 H 0.73117 0.33907 0.87299 0.0
H105 H 0.77671 0.36324 0.89957 0.0
H106 H 0.68405 0.39149 0.81514 0.0
H107 H 0.67717 0.32614 0.87553 0.0
H108 H 0.60669 0.32073 0.81026 0.0
H109 H 0.57892 0.29733 0.85378 0.0
H110 H 0.67021 0.27754 0.86064 0.0
H111 H 0.64926 0.23439 0.88483 0.0
H112 H 0.6484 0.41468 0.79735 0.0
H113 H 0.60756 0.33393 0.76367 0.0
H114 H 0.55755 0.25352 0.87764 0.0
H115 H 0.63177 0.43698 0.75613 0.0
H116 H 0.58965 0.35673 0.72256 0.0
C117 C 0.88153 0.63419 0.24547 0.0
C118 C 0.91161 0.64312 0.2354 0.0
C119 C 0.87153 0.64683 0.26831 0.0
C120 C 0.89116 0.66895 0.28301 0.0
C121 C 0.92127 0.67812 0.2727 0.0
C122 C 0.93112 0.66567 0.24947 0.0
C123 C 0.88007 0.68192 0.30854 0.0
C124 C 0.85452 0.66679 0.32335 0.0
C125 C 0.84252 0.67818 0.34603 0.0
C126 C 0.85687 0.70546 0.35408 0.0
C127 C 0.88293 0.72121 0.34127 0.0
C128 C 0.89441 0.70918 0.3185 0.0
C129 C 0.89711 0.75013 0.35266 0.0
C130 C 0.87769 0.76822 0.35995 0.0
C131 C 0.92921 0.75877 0.35954 0.0
C132 C 0.94108 0.78385 0.37408 0.0
C133 C 0.92143 0.80163 0.38218 0.0
C134 C 0.815 0.6621 0.36167 0.0
C135 C 0.79071 0.64229 0.34889 0.0
C136 C 0.81217 0.66719 0.38978 0.0
C137 C 0.78592 0.65413 0.40404 0.0
C138 C 0.76154 0.63473 0.39119 0.0
C139 C 0.76463 0.62871 0.36343 0.0
C140 C 0.88949 0.79328 0.37416 0.0
H141 H 0.8651 0.61753 0.23532 0.0
H142 H 0.84781 0.63916 0.27396 0.0
H143 H 0.93778 0.69474 0.28275 0.0
H144 H 0.95453 0.67347 0.24295 0.0
H145 H 0.84423 0.64558 0.31782 0.0
H146 H 0.91386 0.72154 0.30819 0.0
H147 H 0.84772 0.7148 0.37088 0.0
H148 H 0.85289 0.76279 0.35492 0.0
H149 H 0.94507 0.74553 0.35475 0.0
H150 H 0.96573 0.78867 0.37967 0.0
H151 H 0.79133 0.63765 0.32738 0.0
H152 H 0.8304 0.68128 0.40115 0.0
H153 H 0.87316 0.80609 0.37878 0.0
H154 H 0.74642 0.61399 0.35266 0.0
H155 H 0.78497 0.659 0.42547 0.0
C156 C 0.74683 0.7936 0.75199 0.0
C157 C 0.76016 0.82214 0.75172 0.0
C158 C 0.72615 0.78258 0.77207 0.0
C159 C 0.71831 0.80014 0.79168 0.0
C160 C 0.731 0.82883 0.79077 0.0
C161 C 0.7518 0.83974 0.77096 0.0
C162 C 0.69922 0.78864 0.81468 0.0
C163 C 0.70755 0.76731 0.83099 0.0
C164 C 0.69421 0.76046 0.85635 0.0
C165 C 0.67169 0.77452 0.86491 0.0
C166 C 0.66297 0.7956 0.84839 0.0
C167 C 0.67631 0.80215 0.82308 0.0
C168 C 0.64345 0.8135 0.85909 0.0
C169 C 0.61531 0.80194 0.87109 0.0
C170 C 0.65373 0.84253 0.85809 0.0
C171 C 0.63621 0.85979 0.86904 0.0
C172 C 0.60796 0.84836 0.88103 0.0
C173 C 0.708 0.74227 0.87548 0.0
C174 C 0.71319 0.71668 0.86662 0.0
C175 C 0.72005 0.75232 0.90138 0.0
C176 C 0.73859 0.73776 0.91749 0.0
C177 C 0.74498 0.71281 0.90806 0.0
C178 C 0.7314 0.70192 0.8829 0.0
C179 C 0.59756 0.81928 0.88188 0.0
H180 H 0.75309 0.77979 0.73721 0.0
H181 H 0.71662 0.76039 0.77255 0.0
H182 H 0.72569 0.84272 0.80597 0.0
H183 H 0.76161 0.86191 0.77081 0.0
H184 H 0.72648 0.75785 0.82518 0.0
H185 H 0.6701 0.8189 0.81055 0.0
H186 H 0.66242 0.77021 0.88506 0.0
H187 H 0.60705 0.77957 0.872 0.0
H188 H 0.67576 0.85189 0.84947 0.0
H189 H 0.64526 0.88207 0.86875 0.0
H190 H 0.70424 0.70871 0.84662 0.0
H191 H 0.71675 0.77225 0.90843 0.0
H192 H 0.57575 0.80995 0.89085 0.0
H193 H 0.73632 0.68285 0.87513 0.0
H194 H 0.74887 0.74647 0.93685 0.0
C195 C 0.7779 0.2166 0.26685 0.0
C196 C 0.76818 0.23277 0.24547 0.0
C197 C 0.79819 0.22916 0.28774 0.0
C198 C 0.80922 0.25816 0.28759 0.0
C199 C 0.80027 0.27428 0.26569 0.0
C200 C 0.77996 0.26159 0.24458 0.0
C201 C 0.82689 0.27128 0.31201 0.0
C202 C 0.84904 0.25845 0.32553 0.0
C203 C 0.85878 0.26474 0.35287 0.0
C204 C 0.84884 0.28663 0.36562 0.0
C205 C 0.82838 0.3012 0.35134 0.0
C206 C 0.81732 0.29312 0.32465 0.0
C207 C 0.81466 0.32218 0.3649 0.0
C208 C 0.80246 0.31672 0.39094 0.0
C209 C 0.80952 0.34583 0.35009 0.0
C210 C 0.79063 0.36251 0.36018 0.0
C211 C 0.7768 0.35603 0.38539 0.0
C212 C 0.876 0.24595 0.36848 0.0
C213 C 0.86822 0.21712 0.36348 0.0
C214 C 0.89991 0.25614 0.38817 0.0
C215 C 0.91623 0.23786 0.40198 0.0
C216 C 0.90907 0.20933 0.39592 0.0
C217 C 0.88484 0.19912 0.37676 0.0
C218 C 0.78372 0.33358 0.40115 0.0
H219 H 0.76929 0.19425 0.26767 0.0
H220 H 0.80413 0.21625 0.30464 0.0
H221 H 0.80842 0.29668 0.26524 0.0
H222 H 0.77263 0.27431 0.22813 0.0
H223 H 0.85691 0.24197 0.31525 0.0
H224 H 0.79918 0.30229 0.31459 0.0
H225 H 0.85584 0.29153 0.38684 0.0
H226 H 0.80564 0.29842 0.40263 0.0
H227 H 0.81892 0.35066 0.33007 0.0
H228 H 0.78599 0.37995 0.34783 0.0
H229 H 0.84911 0.20828 0.34933 0.0
H230 H 0.90634 0.27819 0.39254 0.0
H231 H 0.77311 0.32802 0.42057 0.0
H232 H 0.87847 0.17707 0.37232 0.0
H233 H 0.93476 0.246 0.41695 0.0
C234 C 0.26373 0.62872 0.18306 0.0
C235 C 0.25901 0.63408 0.15475 0.0
C236 C 0.29011 0.64311 0.19827 0.0
C237 C 0.31322 0.663 0.18569 0.0
C238 C 0.3088 0.66782 0.15731 0.0
C239 C 0.28211 0.65416 0.14236 0.0
C240 C 0.34155 0.67902 0.20173 0.0
C241 C 0.35471 0.66763 0.22519 0.0
C242 C 0.38122 0.68265 0.24028 0.0
C243 C 0.396 0.70923 0.22967 0.0
C244 C 0.38385 0.72081 0.20549 0.0
C245 C 0.35583 0.70594 0.19307 0.0
C246 C 0.3995 0.74802 0.19202 0.0
C247 C 0.41487 0.77155 0.20709 0.0
C248 C 0.39744 0.75102 0.16314 0.0
C249 C 0.40855 0.7766 0.14998 0.0
C250 C 0.42293 0.80035 0.16496 0.0
C251 C 0.39287 0.66988 0.26669 0.0
C252 C 0.37202 0.65118 0.28286 0.0
C253 C 0.42455 0.67537 0.27596 0.0
C254 C 0.43481 0.66236 0.29995 0.0
C255 C 0.41393 0.64305 0.31568 0.0
C256 C 0.38228 0.63788 0.30639 0.0
C257 C 0.42653 0.79726 0.19375 0.0
H258 H 0.24723 0.61323 0.19373 0.0
H259 H 0.29206 0.63872 0.22003 0.0
H260 H 0.32606 0.68222 0.14625 0.0
H261 H 0.27977 0.65986 0.12097 0.0
H262 H 0.3446 0.64656 0.23137 0.0
H263 H 0.34485 0.7157 0.17631 0.0
H264 H 0.41683 0.72086 0.24008 0.0
H265 H 0.41709 0.7704 0.22924 0.0
H266 H 0.38694 0.73346 0.15039 0.0
H267 H 0.40603 0.77766 0.12782 0.0
H268 H 0.3473 0.64662 0.27748 0.0
H269 H 0.44173 0.68941 0.26449 0.0
H270 H 0.43756 0.81497 0.20611 0.0
H271 H 0.36497 0.62309 0.31697 0.0
H272 H 0.4593 0.66771 0.30609 0.0
C273 C 0.13827 0.2561 0.67073 0.0
C274 C 0.10646 0.24351 0.67047 0.0
C275 C 0.1502 0.28109 0.68478 0.0
C276 C 0.13079 0.29556 0.69857 0.0
C277 C 0.09895 0.28243 0.6992 0.0
C278 C 0.08706 0.25676 0.68559 0.0
C279 C 0.14417 0.32468 0.71022 0.0
C280 C 0.16913 0.34162 0.69687 0.0
C281 C 0.18503 0.36762 0.70691 0.0
C282 C 0.17349 0.37827 0.73018 0.0
C283 C 0.14749 0.36293 0.74435 0.0
C284 C 0.13334 0.33579 0.73391 0.0
C285 C 0.13587 0.37536 0.76992 0.0
C286 C 0.15513 0.39716 0.7853 0.0
C287 C 0.10535 0.36618 0.77935 0.0
C288 C 0.09477 0.37832 0.8024 0.0
C289 C 0.11393 0.40056 0.81715 0.0
C290 C 0.21399 0.38275 0.69268 0.0
C291 C 0.23402 0.36748 0.68105 0.0
C292 C 0.22164 0.412 0.68952 0.0
C293 C 0.24772 0.42523 0.67477 0.0
C294 C 0.26724 0.40977 0.6625 0.0
C295 C 0.25971 0.38057 0.66615 0.0
C296 C 0.14442 0.4095 0.80796 0.0
H297 H 0.15425 0.24646 0.66005 0.0
H298 H 0.17504 0.28916 0.68452 0.0
H299 H 0.08294 0.29236 0.70947 0.0
H300 H 0.06242 0.24776 0.6861 0.0
H301 H 0.17624 0.33461 0.67781 0.0
H302 H 0.11445 0.32294 0.7445 0.0
H303 H 0.18508 0.3987 0.7371 0.0
H304 H 0.17908 0.40483 0.78033 0.0
H305 H 0.08905 0.34985 0.76868 0.0
H306 H 0.07108 0.37055 0.80824 0.0
H307 H 0.22986 0.34503 0.68332 0.0
H308 H 0.20711 0.42476 0.69795 0.0
H309 H 0.16059 0.42594 0.81866 0.0
H310 H 0.27327 0.3674 0.65702 0.0
H311 H 0.25254 0.44772 0.67313 0.0
Tb312 Tb 0.98486 1.01816 0.54203 0.0
Tb313 Tb 0.04403 0.02804 0.51811 0.0
C314 C 0.93453 1.00441 0.56548 0.0
C315 C 0.91714 0.98093 0.58034 0.0
C316 C 0.92791 0.95603 0.58381 0.0
C317 C 0.91272 0.93519 0.60111 0.0
C318 C 0.8869 0.93935 0.61504 0.0
C319 C 0.87559 0.9639 0.61052 0.0
C320 C 0.89072 0.9846 0.5933 0.0
C321 C 0.02229 0.06635 0.55706 0.0
C322 C 0.03397 0.98368 0.56355 0.0
C323 C 0.0985 0.05169 0.5085 0.0
C324 C 0.1156 0.06215 0.48456 0.0
C325 C 0.14239 0.08294 0.48824 0.0
C326 C 0.15749 0.09563 0.46561 0.0
C327 C 0.14588 0.08759 0.43905 0.0
C328 C 0.11944 0.06616 0.43535 0.0
C329 C 0.10416 0.05356 0.4581 0.0
C330 C 1.01063 0.9843 0.4902 0.0
C331 C 0.99064 0.0542 0.4899 0.0
O332 O 0.93703 1.00104 0.53927 0.0
O333 O 0.96069 1.01671 0.57781 0.0
O334 O 0.02963 0.04271 0.55568 0.0
O335 O 0.99357 0.06335 0.54862 0.0
O336 O 1.00403 0.98378 0.56021 0.0
O337 O 0.05481 1.00293 0.55219 0.0
O338 O 0.07673 0.06508 0.51406 0.0
O339 O 0.08954 0.02461 0.51066 0.0
O340 O 1.00096 0.9969 0.50954 0.0
O341 O 0.03861 0.99728 0.48551 0.0
O342 O 0.02093 0.05619 0.49365 0.0
O343 O 0.97092 0.03648 0.50424 0.0
H344 H 0.94846 0.9531 0.57387 0.0
H345 H 0.92183 0.91642 0.60447 0.0
H346 H 0.85543 0.96731 0.62079 0.0
H347 H 0.88235 1.00385 0.59076 0.0
H348 H 0.15116 0.08985 0.50863 0.0
H349 H 0.17806 0.11195 0.46884 0.0
H350 H 0.11007 0.05986 0.41496 0.0
H351 H 0.08311 0.03773 0.45508 0.0
Tb352 Tb 0.54185 0.02473 0.03491 0.0
Tb353 Tb 0.47949 1.01595 1.01396 0.0
C354 C 0.59641 0.04456 0.05236 0.0
C355 C 0.60996 0.06627 0.07197 0.0
C356 C 0.63589 0.0864 0.06476 0.0
C357 C 0.64904 0.10749 0.08298 0.0
C358 C 0.63645 0.10853 0.10866 0.0
C359 C 0.61004 0.0887 0.11565 0.0
C360 C 0.59674 0.06775 0.09734 0.0
C361 C 0.50825 0.97666 0.05285 0.0
C362 C 0.49399 0.05303 0.06385 0.0
C363 C 0.42484 0.99956 0.99474 0.0
C364 C 0.40791 0.97748 0.97707 0.0
C365 C 0.41682 0.95169 0.97578 0.0
C366 C 0.40035 0.93125 0.95813 0.0
C367 C 0.37512 0.93663 0.94154 0.0
C368 C 0.36651 0.96256 0.9429 0.0
C369 C 0.38286 0.98285 0.96054 0.0
C370 C 0.51375 0.06422 0.9969 0.0
C371 C 0.52634 0.98645 0.98615 0.0
O372 O 0.58378 0.05334 0.03 0.0
O373 O 0.57929 0.02197 0.06236 0.0
O374 O 0.49926 0.99965 0.05037 0.0
O375 O 0.53672 0.98064 0.0455 0.0
O376 O 0.52343 0.05415 0.05896 0.0
O377 O 0.47155 0.03579 0.05069 0.0
O378 O 0.43477 0.99201 1.01884 0.0
O379 O 0.44567 1.01809 0.98271 0.0
O380 O 0.52207 0.04094 0.99857 0.0
O381 O 0.48563 0.06052 1.00493 0.0
O382 O 0.49723 0.98432 0.99262 0.0
O383 O 0.54874 1.00512 0.99766 0.0
H384 H 0.64605 0.08568 0.04509 0.0
H385 H 0.66956 0.1225 0.07731 0.0
H386 H 0.59982 0.08938 0.13529 0.0
H387 H 0.57628 0.05271 0.10308 0.0
H388 H 0.43644 0.94742 0.98828 0.0
H389 H 0.40748 0.91144 0.95722 0.0
H390 H 0.34687 0.96704 0.93057 0.0
H391 H 0.37595 1.00279 0.96128 0.0
Tb392 Tb 0.51605 0.54533 0.53934 0.0
Tb393 Tb 0.5096 0.49568 0.50988 0.0
C394 C 0.50409 0.5885 0.55891 0.0
C395 C 0.47488 0.59419 0.56875 0.0
C396 C 0.44844 0.59281 0.55086 0.0
C397 C 0.4207 0.59751 0.56055 0.0
C398 C 0.41877 0.60342 0.58831 0.0
C399 C 0.44498 0.60437 0.60629 0.0
C400 C 0.47285 0.5999 0.59655 0.0
C401 C 0.54428 0.50887 0.56641 0.0
C402 C 0.45496 0.49694 0.54739 0.0
C403 C 0.52089 0.45226 0.49011 0.0
C404 C 0.54837 0.44627 0.4772 0.0
C405 C 0.57719 0.44912 0.49195 0.0
C406 C 0.60283 0.44278 0.47976 0.0
C407 C 0.60035 0.43372 0.45248 0.0
C408 C 0.57172 0.43163 0.43752 0.0
C409 C 0.54594 0.43771 0.44983 0.0
C410 C 0.4815 0.53252 0.48318 0.0
C411 C 0.57095 0.54426 0.50194 0.0
O412 O 0.50446 0.58424 0.53262 0.0
O413 O 0.51669 0.57076 0.57354 0.0
O414 O 0.51819 0.50359 0.55303 0.0
O415 O 0.5552 0.5355 0.56454 0.0
O416 O 0.46778 0.52388 0.54888 0.0
O417 O 0.46883 0.48031 0.53391 0.0
O418 O 0.52452 0.4582 0.51618 0.0
O419 O 0.50548 0.46864 0.4764 0.0
O420 O 0.50776 0.53736 0.49621 0.0
O421 O 0.47003 0.50598 0.48526 0.0
O422 O 0.55705 0.51772 0.49863 0.0
O423 O 0.55818 0.5605 0.51698 0.0
H424 H 0.44903 0.58804 0.52937 0.0
H425 H 0.4007 0.59639 0.54636 0.0
H426 H 0.44411 0.60914 0.62776 0.0
H427 H 0.49283 0.60085 0.61074 0.0
H428 H 0.57997 0.4559 0.51306 0.0
H429 H 0.62435 0.44425 0.49203 0.0
H430 H 0.56918 0.42518 0.41631 0.0
H431 H 0.52404 0.43563 0.43798 0.0
Tb432 Tb 0.01226 0.54529 1.00892 0.0
Tb433 Tb 1.00834 0.4964 0.0424 0.0
C434 C 0.99926 0.58558 0.98155 0.0
C435 C 0.9726 0.59926 0.98129 0.0
C436 C 0.9431 0.58406 0.98792 0.0
C437 C 0.91719 0.59635 0.98516 0.0
C438 C 0.92052 0.62412 0.97621 0.0
C439 C 0.95028 0.63971 0.97092 0.0
C440 C 0.97619 0.62727 0.97333 0.0
C441 C 0.06545 0.54386 0.03701 0.0
C442 C 0.98308 0.54465 0.06893 0.0
C443 C 0.02104 0.45647 0.07074 0.0
C444 C 0.04616 0.44104 0.07127 0.0
C445 C 0.0714 0.44922 0.05434 0.0
C446 C 0.09735 0.437 0.05764 0.0
C447 C 0.09852 0.41675 0.07819 0.0
C448 C 0.0727 0.40789 0.0944 0.0
C449 C 0.04665 0.41997 0.09092 0.0
C450 C 0.95484 0.49758 1.01471 0.0
C451 C 0.03747 0.4972 0.98222 0.0
O452 O 0.99279 0.55987 0.97307 0.0
O453 O 0.01751 0.58867 1.00373 0.0
O454 O 0.03819 0.53661 0.04527 0.0
O455 O 0.06337 0.55311 1.01208 0.0
O456 O 0.98539 0.55589 0.04382 0.0
O457 O 0.99228 0.52091 0.0738 0.0
O458 O 0.02999 0.48259 0.07752 0.0
O459 O 1.00178 0.45316 0.04921 0.0
O460 O 0.982 0.50508 1.00614 0.0
O461 O 0.9574 0.48851 0.03968 0.0
O462 O 0.03442 0.48554 1.0071 0.0
O463 O 0.02876 0.52117 0.97748 0.0
H464 H 0.93995 0.56245 0.99448 0.0
H465 H 0.89447 0.58405 0.98957 0.0
H466 H 0.9533 0.66114 0.96385 0.0
H467 H 0.99884 0.63927 0.9683 0.0
H468 H 0.0717 0.46587 0.03943 0.0
H469 H 0.11709 0.44435 0.04509 0.0
H470 H 0.07298 0.39209 0.1102 0.0
H471 H 0.0274 0.41361 0.10424 0.0
H472 H 0.27588 0.14693 0.31522 0.0
H473 H 0.21285 0.20409 0.30984 0.0
H474 H 0.24494 0.12025 0.35069 0.0
H475 H 0.18142 0.17694 0.34452 0.0
H476 H 0.16171 0.14338 0.43166 0.0
H477 H 0.19002 0.16851 0.39416 0.0
H478 H 0.19158 0.09038 0.35549 0.0
H479 H 0.16379 0.06511 0.39358 0.0
C480 C 0.25542 0.1537 0.32165 0.0
C481 C 0.24667 0.17749 0.30999 0.0
C482 C 0.23757 0.13831 0.34159 0.0
C483 C 0.21087 0.1466 0.35012 0.0
C484 C 0.20206 0.17029 0.33833 0.0
C485 C 0.21986 0.18565 0.31843 0.0
C486 C 0.16816 0.13164 0.41512 0.0
C487 C 0.16095 0.10243 0.41541 0.0
C488 C 0.18405 0.14596 0.39363 0.0
C489 C 0.1929 0.13127 0.3721 0.0
C490 C 0.18516 0.10205 0.37208 0.0
C491 C 0.16912 0.08768 0.39361 0.0
H492 H 0.23351 0.85447 0.82761 0.0
H493 H 0.2858 0.7906 0.84798 0.0
H494 H 0.26659 0.88568 0.8602 0.0
H495 H 0.31964 0.82222 0.87996 0.0
H496 H 0.35344 0.8817 0.95313 0.0
H497 H 0.3191 0.84755 0.92373 0.0
H498 H 0.32214 0.9097 0.85929 0.0
H499 H 0.35638 0.94368 0.88854 0.0
C500 C 0.25169 0.84696 0.83948 0.0
C501 C 0.25718 0.82021 0.83541 0.0
C502 C 0.27085 0.8649 0.85778 0.0
C503 C 0.2958 0.85635 0.87222 0.0
C504 C 0.30045 0.82919 0.86909 0.0
C505 C 0.28127 0.81122 0.85077 0.0
C506 C 0.34709 0.88783 0.93253 0.0
C507 C 0.35718 0.91527 0.92309 0.0
C508 C 0.32743 0.8684 0.91582 0.0
C509 C 0.31768 0.87625 0.88954 0.0
C510 C 0.32876 0.9034 0.87977 0.0
C511 C 0.34838 0.92275 0.89641 0.0
H512 H 0.55417 0.38713 0.70336 0.0
H513 H 0.64322 0.44396 0.70789 0.0
H514 H 0.53844 0.41222 0.6631 0.0
H515 H 0.62847 0.46824 0.66724 0.0
H516 H 0.58875 0.52492 0.60754 0.0
H517 H 0.60317 0.49873 0.64695 0.0
H518 H 0.53742 0.42568 0.61808 0.0
H519 H 0.52174 0.45296 0.57921 0.0
C520 C 0.57064 0.4048 0.69564 0.0
C521 C 0.59997 0.41347 0.70948 0.0
C522 C 0.56162 0.41934 0.6722 0.0
C523 C 0.58173 0.44298 0.66128 0.0
C524 C 0.61143 0.45099 0.67486 0.0
C525 C 0.62018 0.43677 0.69844 0.0
C526 C 0.57733 0.50323 0.60946 0.0
C527 C 0.55403 0.49127 0.58984 0.0
C528 C 0.58589 0.48783 0.63227 0.0
C529 C 0.572 0.45944 0.63639 0.0
C530 C 0.54874 0.44738 0.61645 0.0
C531 C 0.53981 0.46303 0.59375 0.0
H532 H 0.95197 0.66584 0.19421 0.0
H533 H 0.89571 0.58749 0.2193 0.0
H534 H 0.96828 0.64306 0.15499 0.0
H535 H 0.91131 0.56496 0.1799 0.0
H536 H 0.96658 0.52396 0.12056 0.0
H537 H 0.9502 0.5472 0.15923 0.0
H538 H 0.9564 0.62244 0.11071 0.0
H539 H 0.97298 0.59898 0.0719 0.0
C540 C 0.94299 0.64374 0.19162 0.0
C541 C 0.9222 0.62894 0.21064 0.0
C542 C 0.9522 0.63054 0.16862 0.0
C543 C 0.9414 0.60173 0.16352 0.0
C544 C 0.92076 0.58696 0.18265 0.0
C545 C 0.91137 0.60017 0.20545 0.0
C546 C 0.96433 0.54543 0.11788 0.0
C547 C 0.97117 0.5592 0.0925 0.0
C548 C 0.95467 0.55894 0.14034 0.0
C549 C 0.95162 0.58713 0.13884 0.0
C550 C 0.95853 0.60095 0.11339 0.0
C551 C 0.96788 0.58728 0.09075 0.0
H552 H 0.43872 0.15673 0.18539 0.0
H553 H 0.44469 0.20304 0.10871 0.0
H554 H 0.4605 0.12073 0.16428 0.0
H555 H 0.46492 0.16622 0.08756 0.0
H556 H 0.43922 0.07016 0.06242 0.0
H557 H 0.42695 0.1083 0.08794 0.0
H558 H 0.5174 0.12119 0.13024 0.0
H559 H 0.53032 0.08315 0.10419 0.0
C560 C 0.44544 0.15963 0.16433 0.0
C561 C 0.4398 0.1826 0.1486 0.0
C562 C 0.4577 0.139 0.15234 0.0
C563 C 0.46407 0.14105 0.12453 0.0
C564 C 0.46001 0.16451 0.10913 0.0
C565 C 0.44827 0.18534 0.12117 0.0
C566 C 0.45637 0.0808 0.07743 0.0
C567 C 0.4857 0.07376 0.08151 0.0
C568 C 0.44939 0.10265 0.09178 0.0
C569 C 0.47143 0.11738 0.11067 0.0
C570 C 0.50029 0.10987 0.1156 0.0
C571 C 0.50756 0.08825 0.10082 0.0
H572 H 0.14766 0.87775 0.64257 0.0
H573 H 0.0555 0.82568 0.63948 0.0
H574 H 0.12679 0.91634 0.62284 0.0
H575 H 0.03444 0.86397 0.61831 0.0
H576 H 1.00326 0.94651 0.60082 0.0
H577 H 0.02255 0.90844 0.62443 0.0
H578 H 0.10759 0.93005 0.58072 0.0
H579 H 0.08917 0.96846 0.55859 0.0
C580 C 0.12292 0.87455 0.63726 0.0
C581 C 0.10318 0.84877 0.64214 0.0
C582 C 0.11091 0.8966 0.62587 0.0
C583 C 0.07894 0.89321 0.61859 0.0
C584 C 0.0591 0.86742 0.6239 0.0
C585 C 0.07112 0.84544 0.63579 0.0
C586 C 0.02615 0.94313 0.59655 0.0
C587 C 0.04486 0.96067 0.57822 0.0
C588 C 0.03714 0.92124 0.60988 0.0
C589 C 0.0668 0.91631 0.60471 0.0
C590 C 0.08507 0.93365 0.5859 0.0
C591 C 0.07439 0.95567 0.57306 0.0
H592 H 0.7917 0.38681 0.94184 0.0
H593 H 0.80539 0.45592 0.88447 0.0
H594 H 0.83649 0.41017 0.96987 0.0
H595 H 0.84966 0.47987 0.91319 0.0
H596 H 0.94776 0.50158 0.95838 0.0
H597 H 0.90286 0.4799 0.92879 0.0
H598 H 0.85293 0.44805 1.00048 0.0
H599 H 0.89779 0.46928 0.02976 0.0
C600 C 0.80426 0.40697 0.93507 0.0
C601 C 0.79464 0.41929 0.91066 0.0
C602 C 0.82987 0.42064 0.95145 0.0
C603 C 0.84688 0.44717 0.94409 0.0
C604 C 0.83745 0.45944 0.91958 0.0
C605 C 0.81171 0.44577 0.90319 0.0
C606 C 0.92706 0.49017 0.96778 0.0
C607 C 0.92652 0.48713 0.9965 0.0
C608 C 0.9012 0.47773 0.9508 0.0
C609 C 0.8741 0.46182 0.96205 0.0
C610 C 0.87343 0.45955 0.99085 0.0
C611 C 0.89915 0.47201 1.00776 0.0
H612 H 0.73066 0.57947 0.39205 0.0
H613 H 0.72784 0.65907 0.42613 0.0
H614 H 0.68701 0.55746 0.41893 0.0
H615 H 0.68301 0.63788 0.45169 0.0
H616 H 0.61285 0.59388 0.51092 0.0
H617 H 0.65803 0.61457 0.48549 0.0
H618 H 0.63828 0.54427 0.43063 0.0
H619 H 0.59456 0.52295 0.45762 0.0
C620 C 0.7204 0.59243 0.40502 0.0
C621 C 0.73324 0.62116 0.40684 0.0
C622 C 0.69488 0.57975 0.42058 0.0
C623 C 0.68048 0.59536 0.43824 0.0
C624 C 0.69316 0.62434 0.4394 0.0
C625 C 0.7191 0.63683 0.42434 0.0
C626 C 0.61837 0.58268 0.49359 0.0
C627 C 0.59983 0.55651 0.48666 0.0
C628 C 0.64441 0.59483 0.47847 0.0
C629 C 0.65273 0.58171 0.45518 0.0
C630 C 0.63391 0.55539 0.44839 0.0
C631 C 0.6083 0.54297 0.46395 0.0
H632 H 0.23132 0.31188 0.09475 0.0
H633 H 0.2701 0.37933 0.14979 0.0
H634 H 0.19268 0.33775 0.07676 0.0
H635 H 0.23183 0.40552 0.1314 0.0
H636 H 0.12763 0.4125 0.12792 0.0
H637 H 0.17468 0.3946 0.13835 0.0
H638 H 0.18233 0.38058 0.05213 0.0
H639 H 0.13466 0.3982 0.0417 0.0
C640 C 0.23202 0.33257 0.10244 0.0
C641 C 0.25335 0.34357 0.1238 0.0
C642 C 0.2101 0.34743 0.09204 0.0
C643 C 0.20913 0.37346 0.10294 0.0
C644 C 0.23194 0.38533 0.1229 0.0
C645 C 0.25397 0.3705 0.13322 0.0
C646 C 0.13933 0.40552 0.11122 0.0
C647 C 0.1274 0.40636 0.08407 0.0
C648 C 0.1665 0.3957 0.11712 0.0
C649 C 0.18223 0.38644 0.09599 0.0
C650 C 0.17058 0.38763 0.06875 0.0
C651 C 0.14344 0.3977 0.06281 0.0
H652 H 0.61779 0.18836 0.88231 0.0
H653 H 0.55723 0.23193 0.92268 0.0
H654 H 0.59815 0.14652 0.90907 0.0
H655 H 0.5383 0.19066 0.95005 0.0
H656 H 0.48708 0.10741 0.98029 0.0
H657 H 0.50768 0.14795 0.95287 0.0
H658 H 0.59467 0.12028 0.94906 0.0
H659 H 0.57275 0.07833 0.97552 0.0
C660 C 0.60042 0.1892 0.89705 0.0
C661 C 0.58907 0.21387 0.89992 0.0
C662 C 0.58914 0.16499 0.91266 0.0
C663 C 0.56618 0.16446 0.93202 0.0
C664 C 0.55521 0.18936 0.93505 0.0
C665 C 0.56622 0.2134 0.91923 0.0
C666 C 0.51065 0.10983 0.97364 0.0
C667 C 0.52815 0.08938 0.98032 0.0
C668 C 0.52278 0.13355 0.95795 0.0
C669 C 0.55332 0.13829 0.9486 0.0
C670 C 0.57098 0.1177 0.95535 0.0
C671 C 0.55851 0.09356 0.97081 0.0
H672 H 0.89014 0.83022 0.41714 0.0
H673 H 0.98148 0.83503 0.38627 0.0
H674 H 0.90914 0.87321 0.44187 0.0
H675 H 1.00102 0.87648 0.41282 0.0
H676 H 0.02885 0.96429 0.44367 0.0
H677 H 1.00729 0.92226 0.41859 0.0
H678 H 0.93503 0.90071 0.47675 0.0
H679 H 0.95638 0.9443 0.5013 0.0
C680 C 0.91432 0.84021 0.41533 0.0
C681 C 0.93378 0.82836 0.39881 0.0
C682 C 0.92553 0.86511 0.43022 0.0
C683 C 0.95695 0.87944 0.42974 0.0
C684 C 0.97652 0.86723 0.4137 0.0
C685 C 0.96523 0.8426 0.39853 0.0
C686 C 1.00819 0.95078 0.45118 0.0
C687 C 0.99458 0.95819 0.47475 0.0
C688 C 0.99582 0.92603 0.43678 0.0
C689 C 0.9693 0.90684 0.44534 0.0
C690 C 0.95526 0.91446 0.46887 0.0
C691 C 0.96758 0.93967 0.48322 0.0
H692 H 0.24886 0.6635 0.61272 0.0
H693 H 0.29557 0.66006 0.69239 0.0
H694 H 0.28525 0.63869 0.59312 0.0
H695 H 0.33281 0.63674 0.67272 0.0
H696 H 0.38856 0.58301 0.63419 0.0
H697 H 0.34274 0.59615 0.65204 0.0
H698 H 0.33903 0.65208 0.58283 0.0
H699 H 0.38416 0.63836 0.5648 0.0
C700 C 0.26658 0.65703 0.62609 0.0
C701 C 0.26968 0.66396 0.65396 0.0
C702 C 0.28763 0.64313 0.61484 0.0
C703 C 0.31214 0.63603 0.63129 0.0
C704 C 0.31408 0.64165 0.65949 0.0
C705 C 0.29297 0.65534 0.67071 0.0
C706 C 0.3777 0.59794 0.62277 0.0
C707 C 0.38987 0.60979 0.59823 0.0
C708 C 0.35152 0.60546 0.63295 0.0
C709 C 0.33728 0.62521 0.61889 0.0
C710 C 0.34903 0.63642 0.59391 0.0
C711 C 0.37499 0.6287 0.58364 0.0
H712 H 0.81726 0.85413 0.76241 0.0
H713 H 0.75437 0.81669 0.69635 0.0
H714 H 0.85274 0.87908 0.72923 0.0
H715 H 0.78952 0.84218 0.66297 0.0
H716 H 0.86867 0.883 0.60975 0.0
H717 H 0.84192 0.85009 0.64354 0.0
H718 H 0.84591 0.91806 0.69948 0.0
H719 H 0.8733 0.9504 0.66636 0.0
C720 C 0.81131 0.85108 0.74072 0.0
C721 C 0.78314 0.8339 0.73171 0.0
C722 C 0.83149 0.8653 0.72181 0.0
C723 C 0.82361 0.86273 0.69364 0.0
C724 C 0.79624 0.84427 0.6846 0.0
C725 C 0.77613 0.82982 0.70359 0.0
C726 C 0.86419 0.89062 0.6295 0.0
C727 C 0.87264 0.91909 0.63553 0.0
C728 C 0.8488 0.87195 0.64865 0.0
C729 C 0.84202 0.88159 0.67405 0.0
C730 C 0.8513 0.90999 0.68023 0.0
C731 C 0.86657 0.92854 0.66118 0.0
H732 H 0.77227 0.23569 0.1901 0.0
H733 H 0.71254 0.19931 0.25452 0.0
H734 H 0.73707 0.20752 0.15627 0.0
H735 H 0.67691 0.17179 0.22087 0.0
H736 H 0.65231 0.09887 0.16164 0.0
H737 H 0.68163 0.13212 0.19436 0.0
H738 H 0.68524 0.19801 0.13357 0.0
H739 H 0.6563 0.16433 0.10054 0.0
C740 C 0.7512 0.22214 0.19681 0.0
C741 C 0.74509 0.21923 0.2247 0.0
C742 C 0.73106 0.20613 0.17756 0.0
C743 C 0.70451 0.18728 0.18608 0.0
C744 C 0.69756 0.18574 0.21386 0.0
C745 C 0.71779 0.20149 0.23305 0.0
C746 C 0.65895 0.12055 0.15548 0.0
C747 C 0.65205 0.12921 0.12877 0.0
C748 C 0.67564 0.13959 0.17416 0.0
C749 C 0.68546 0.16767 0.1665 0.0
C750 C 0.67812 0.17643 0.13987 0.0
C751 C 0.66157 0.15728 0.12108 0.0
H752 H 0.38019 0.62044 0.3608 0.0
H753 H 0.47268 0.63154 0.33033 0.0
H754 H 0.39627 0.59507 0.40019 0.0
H755 H 0.48894 0.60708 0.3707 0.0
H756 H 0.51507 0.58098 0.46007 0.0
H757 H 0.49976 0.60803 0.42069 0.0
H758 H 0.41042 0.5515 0.41404 0.0
H759 H 0.42583 0.5246 0.45317 0.0
C760 C 0.40392 0.61744 0.36201 0.0
C761 C 0.4247 0.62826 0.34132 0.0
C762 C 0.41327 0.6028 0.3851 0.0
C763 C 0.44403 0.59861 0.38903 0.0
C764 C 0.46511 0.60991 0.36884 0.0
C765 C 0.45563 0.62422 0.34545 0.0
C766 C 0.49206 0.57442 0.45034 0.0
C767 C 0.47172 0.55048 0.4601 0.0
C768 C 0.48331 0.58987 0.42747 0.0
C769 C 0.45369 0.58223 0.41375 0.0
C770 C 0.43326 0.55851 0.42393 0.0
C771 C 0.44217 0.54289 0.44648 0.0
H772 H 0.07211 0.37742 0.85709 0.0
H773 H 0.12948 0.45596 0.83393 0.0
H774 H 0.05457 0.39978 0.89599 0.0
H775 H 0.11263 0.47806 0.87302 0.0
H776 H 0.05532 0.51842 0.93107 0.0
H777 H 0.07288 0.49559 0.8927 0.0
H778 H 0.06534 0.41987 0.94064 0.0
H779 H 0.0476 0.44291 0.97915 0.0
C780 C 0.08108 0.39947 0.86004 0.0
C781 C 0.10256 0.41447 0.84168 0.0
C782 C 0.07115 0.41242 0.88285 0.0
C783 C 0.08187 0.44115 0.88838 0.0
C784 C 0.1032 0.45611 0.8699 0.0
C785 C 0.11332 0.44315 0.8473 0.0
C786 C 0.05749 0.49692 0.93368 0.0
C787 C 0.0499 0.48288 0.95879 0.0
C788 C 0.06785 0.48366 0.91141 0.0
C789 C 0.07088 0.45546 0.91285 0.0
C790 C 0.06324 0.44138 0.93803 0.0
C791 C 0.0532 0.45479 0.96048 0.0
H792 H 0.57865 0.84034 0.92938 0.0
H793 H 0.59798 0.89838 0.86143 0.0
H794 H 0.55469 0.87352 0.95265 0.0
H795 H 0.57507 0.9318 0.88532 0.0
H796 H 0.5799 0.99175 0.95958 0.0
H797 H 0.59569 0.95681 0.93193 0.0
H798 H 0.50795 0.90043 0.94458 0.0
H799 H 0.49182 0.93553 0.97226 0.0
C800 C 0.57721 0.85988 0.91918 0.0
C801 C 0.59036 0.86689 0.89369 0.0
C802 C 0.56362 0.87881 0.93252 0.0
C803 C 0.56333 0.90501 0.92066 0.0
C804 C 0.57537 0.91167 0.8948 0.0
C805 C 0.58856 0.89266 0.8813 0.0
C806 C 0.56382 0.97204 0.95619 0.0
C807 C 0.53458 0.9663 0.96779 0.0
C808 C 0.57281 0.95218 0.94034 0.0
C809 C 0.55282 0.92624 0.93616 0.0
C810 C 0.52355 0.92045 0.94762 0.0
C811 C 0.51434 0.9405 0.9632 0.0
H812 H 0.93989 0.17453 0.37187 0.0
H813 H 0.915 0.19919 0.45063 0.0
H814 H 0.96105 0.13669 0.39386 0.0
H815 H 0.93599 0.16115 0.47273 0.0
H816 H 0.93384 0.06807 0.49146 0.0
H817 H 0.9172 0.10774 0.46906 0.0
H818 H 1.00449 0.12903 0.42904 0.0
H819 H 0.02146 0.08935 0.45164 0.0
C820 C 0.93951 0.17205 0.39397 0.0
C821 C 0.926 0.18961 0.4097 0.0
C822 C 0.95158 0.15051 0.40649 0.0
C823 C 0.94985 0.14597 0.43487 0.0
C824 C 0.93728 0.16415 0.45074 0.0
C825 C 0.92562 0.18598 0.43823 0.0
C826 C 0.94934 0.0809 0.47755 0.0
C827 C 0.97894 0.07553 0.47318 0.0
C828 C 0.93994 0.10381 0.46505 0.0
C829 C 0.95978 0.12154 0.44767 0.0
C830 C 0.98886 0.11562 0.44243 0.0
C831 C 0.99848 0.09291 0.45526 0.0
H832 H 0.25186 0.6242 0.09862 0.0
H833 H 0.20021 0.60898 0.17238 0.0
H834 H 0.20612 0.60343 0.07181 0.0
H835 H 0.15544 0.58452 0.14584 0.0
H836 H 0.06783 0.56154 0.09013 0.0
H837 H 0.11341 0.58279 0.11828 0.0
H838 H 0.17255 0.56785 0.05427 0.0
H839 H 0.12651 0.54915 0.02551 0.0
C840 C 0.23091 0.61645 0.10944 0.0
C841 C 0.23048 0.61906 0.13815 0.0
C842 C 0.20432 0.60356 0.09379 0.0
C843 C 0.17621 0.59164 0.10613 0.0
C844 C 0.17595 0.59364 0.13495 0.0
C845 C 0.20232 0.60738 0.15054 0.0
C846 C 0.09067 0.56277 0.0822 0.0
C847 C 0.09352 0.55371 0.05551 0.0
C848 C 0.11716 0.5749 0.09851 0.0
C849 C 0.14756 0.57766 0.089 0.0
C850 C 0.15008 0.56734 0.06253 0.0
C851 C 0.12353 0.55607 0.04594 0.0
H852 H 0.32251 0.39206 0.65462 0.0
H853 H 0.27622 0.45946 0.63209 0.0
H854 H 0.36556 0.41277 0.62672 0.0
H855 H 0.31999 0.48055 0.60466 0.0
H856 H 0.41805 0.52437 0.57665 0.0
H857 H 0.37362 0.50432 0.6041 0.0
H858 H 0.38196 0.42178 0.58123 0.0
H859 H 0.42644 0.44179 0.55418 0.0
C860 C 0.32105 0.41115 0.6436 0.0
C861 C 0.29496 0.42359 0.64587 0.0
C862 C 0.34618 0.42321 0.62744 0.0
C863 C 0.3467 0.44848 0.61295 0.0
C864 C 0.32098 0.46128 0.61555 0.0
C865 C 0.29564 0.44906 0.63155 0.0
C866 C 0.41033 0.50194 0.57729 0.0
C867 C 0.42615 0.48487 0.5629 0.0
C868 C 0.38458 0.49033 0.59308 0.0
C869 C 0.37379 0.46119 0.59531 0.0
C870 C 0.38951 0.44422 0.58064 0.0
C871 C 0.41506 0.45581 0.56475 0.0
H872 H 0.73924 0.65843 0.92375 0.0
H873 H 0.80358 0.73784 0.92478 0.0
H874 H 0.77985 0.6363 0.94464 0.0
H875 H 0.84463 0.71583 0.94427 0.0
H876 H 0.90984 0.67342 0.99409 0.0
H877 H 0.86497 0.6943 0.98207 0.0
H878 H 0.82511 0.62312 0.93157 0.0
H879 H 0.86912 0.60193 0.94481 0.0
C880 C 0.7621 0.67108 0.92861 0.0
C881 C 0.76839 0.69974 0.92287 0.0
C882 C 0.78543 0.65846 0.94036 0.0
C883 C 0.81564 0.67422 0.94603 0.0
C884 C 0.82156 0.70308 0.94075 0.0
C885 C 0.7981 0.71573 0.92947 0.0
C886 C 0.8912 0.66225 0.98069 0.0
C887 C 0.89274 0.63614 0.97039 0.0
C888 C 0.86561 0.6742 0.97365 0.0
C889 C 0.8414 0.66047 0.95574 0.0
C890 C 0.84289 0.63408 0.94585 0.0
C891 C 0.86819 0.62197 0.95328 0.0
H892 H 0.39359 0.82402 0.12206 0.0
H893 H 0.47757 0.83944 0.17412 0.0
H894 H 0.41268 0.86689 0.09629 0.0
H895 H 0.49655 0.8825 0.14852 0.0
H896 H 0.53719 0.93709 0.07568 0.0
H897 H 0.51604 0.89658 0.10352 0.0
H898 H 0.42576 0.91865 0.09732 0.0
H899 H 0.44735 0.95985 0.06935 0.0
C900 C 0.41615 0.83655 0.12812 0.0
C901 C 0.43403 0.82787 0.15026 0.0
C902 C 0.427 0.86141 0.11341 0.0
C903 C 0.45634 0.87842 0.12002 0.0
C904 C 0.474 0.86998 0.14245 0.0
C905 C 0.46296 0.84528 0.15739 0.0
C906 C 0.5128 0.93349 0.08024 0.0
C907 C 0.49408 0.95197 0.07015 0.0
C908 C 0.50065 0.91019 0.0965 0.0
C909 C 0.46909 0.90408 0.10303 0.0
C910 C 0.45014 0.92244 0.09274 0.0
C911 C 0.46253 0.94619 0.07675 0.0
H912 H 0.11796 0.23275 0.61726 0.0
H913 H 0.06733 0.19397 0.68593 0.0
H914 H 0.09997 0.1903 0.59055 0.0
H915 H 0.04986 0.151 0.65929 0.0
H916 H 0.0527 0.06929 0.60875 0.0
H917 H 0.07242 0.11126 0.63659 0.0
H918 H 0.04829 0.16266 0.5696 0.0
H919 H 0.02766 0.12088 0.54245 0.0
C920 C 0.10304 0.21515 0.62679 0.0
C921 C 0.09417 0.21717 0.65395 0.0
C922 C 0.09261 0.19067 0.61134 0.0
C923 C 0.07345 0.16682 0.62257 0.0
C924 C 0.06475 0.16867 0.64985 0.0
C925 C 0.07459 0.1935 0.66512 0.0
C926 C 0.05208 0.08958 0.59983 0.0
C927 C 0.03893 0.09157 0.57307 0.0
C928 C 0.06307 0.11372 0.61594 0.0
C929 C 0.06205 0.14068 0.60555 0.0
C930 C 0.04975 0.14252 0.57846 0.0
C931 C 0.03797 0.11845 0.56277 0.0
H932 H 0.77109 0.37647 0.43608 0.0
H933 H 0.72838 0.36847 0.35415 0.0
H934 H 0.72895 0.39769 0.45086 0.0
H935 H 0.68662 0.38995 0.36881 0.0
H936 H 0.59897 0.38987 0.41853 0.0
H937 H 0.64299 0.37388 0.40092 0.0
H938 H 0.70648 0.44127 0.44207 0.0
H939 H 0.6624 0.45797 0.45908 0.0
C940 C 0.75286 0.37952 0.42123 0.0
C941 C 0.75298 0.37095 0.394 0.0
C942 C 0.72894 0.3918 0.4296 0.0
C943 C 0.70461 0.39539 0.41093 0.0
C944 C 0.70504 0.38726 0.3836 0.0
C945 C 0.72906 0.37523 0.37519 0.0
C946 C 0.62224 0.40171 0.42334 0.0
C947 C 0.62713 0.4252 0.44026 0.0
C948 C 0.64744 0.39245 0.41334 0.0
C949 C 0.67805 0.40633 0.42024 0.0
C950 C 0.68306 0.43005 0.43674 0.0
C951 C 0.65783 0.43952 0.44651 0.0
loop_
_geom_bond_atom_site_label_1
_geom_bond_atom_site_label_2
_geom_bond_distance
_geom_bond_site_symmetry_2
_ccdc_geom_bond_type
C0 C1 1.386 . S
C0 C2 1.397 . S
C0 H24 0.931 . S
C1 C0 1.386 . S
C1 C5 1.397 . S
C2 C0 1.397 . S
C2 C3 1.384 . S
C2 H25 0.930 . S
C3 C2 1.384 . S
C3 C4 1.377 . S
C3 C6 1.481 . S
C4 C3 1.377 . S
C4 C5 1.389 . S
C4 H26 0.929 . S
C5 C1 1.397 . S
C5 C4 1.389 . S
C5 H27 0.931 . S
C6 C3 1.481 . S
C6 C7 1.387 . S
C6 C11 1.390 . S
C7 C6 1.387 . S
C7 C8 1.401 . S
C7 H28 0.930 . S
C8 C7 1.401 . S
C8 C9 1.376 . S
C8 C17 1.511 . S
C9 C8 1.376 . S
C9 C10 1.392 . S
C9 H30 0.931 . S
C10 C9 1.392 . S
C10 C11 1.361 . S
C10 C12 1.500 . S
C11 C6 1.390 . S
C11 C10 1.361 . S
C11 H29 0.931 . S
C12 C10 1.500 . S
C12 C13 1.371 . S
C12 C14 1.365 . S
C13 C12 1.371 . S
C13 C23 1.386 . S
C13 H31 0.931 . S
C14 C12 1.365 . S
C14 C15 1.409 . S
C14 H32 0.929 . S
C15 C14 1.409 . S
C15 C16 1.380 . S
C15 H33 0.930 . S
C16 C15 1.380 . S
C16 C23 1.357 . S
C17 C8 1.511 . S
C17 C18 1.341 . S
C17 C19 1.371 . S
C18 C17 1.341 . S
C18 C22 1.394 . S
C18 H34 0.930 . S
C19 C17 1.371 . S
C19 C20 1.392 . S
C19 H35 0.931 . S
C20 C19 1.392 . S
C20 C21 1.331 . S
C20 H38 0.932 . S
C21 C20 1.331 . S
C21 C22 1.336 . S
C22 C18 1.394 . S
C22 C21 1.336 . S
C22 H37 0.929 . S
C23 C13 1.386 . S
C23 C16 1.357 . S
C23 H36 0.928 . S
H24 C0 0.931 . S
H25 C2 0.930 . S
H26 C4 0.929 . S
H27 C5 0.931 . S
H28 C7 0.930 . S
H29 C11 0.931 . S
H30 C9 0.931 . S
H31 C13 0.931 . S
H32 C14 0.929 . S
H33 C15 0.930 . S
H34 C18 0.930 . S
H35 C19 0.931 . S
H36 C23 0.928 . S
H37 C22 0.929 . S
H38 C20 0.932 . S
C39 C40 1.386 . S
C39 C41 1.397 . S
C39 H63 0.931 . S
C40 C39 1.386 . S
C40 C44 1.397 . S
C41 C39 1.397 . S
C41 C42 1.384 . S
C41 H64 0.930 . S
C42 C41 1.384 . S
C42 C43 1.377 . S
C42 C45 1.481 . S
C43 C42 1.377 . S
C43 C44 1.389 . S
C43 H65 0.929 . S
C44 C40 1.397 . S
C44 C43 1.389 . S
C44 H66 0.931 . S
C45 C42 1.481 . S
C45 C46 1.387 . S
C45 C50 1.390 . S
C46 C45 1.387 . S
C46 C47 1.401 . S
C46 H67 0.930 . S
C47 C46 1.401 . S
C47 C48 1.376 . S
C47 C56 1.511 . S
C48 C47 1.376 . S
C48 C49 1.392 . S
C48 H69 0.931 . S
C49 C48 1.392 . S
C49 C50 1.361 . S
C49 C51 1.500 . S
C50 C45 1.390 . S
C50 C49 1.361 . S
C50 H68 0.931 . S
C51 C49 1.500 . S
C51 C52 1.371 . S
C51 C53 1.365 . S
C52 C51 1.371 . S
C52 C62 1.386 . S
C52 H70 0.931 . S
C53 C51 1.365 . S
C53 C54 1.409 . S
C53 H71 0.929 . S
C54 C53 1.409 . S
C54 C55 1.380 . S
C54 H72 0.930 . S
C55 C54 1.380 . S
C55 C62 1.357 . S
C56 C47 1.511 . S
C56 C57 1.341 . S
C56 C58 1.371 . S
C57 C56 1.341 . S
C57 C61 1.394 . S
C57 H73 0.930 . S
C58 C56 1.371 . S
C58 C59 1.392 . S
C58 H74 0.931 . S
C59 C58 1.392 . S
C59 C60 1.331 . S
C59 H77 0.932 . S
C60 C59 1.331 . S
C60 C61 1.336 . S
C61 C57 1.394 . S
C61 C60 1.336 . S
C61 H76 0.929 . S
C62 C52 1.386 . S
C62 C55 1.357 . S
C62 H75 0.928 . S
H63 C39 0.931 . S
H64 C41 0.930 . S
H65 C43 0.929 . S
H66 C44 0.931 . S
H67 C46 0.930 . S
H68 C50 0.931 . S
H69 C48 0.931 . S
H70 C52 0.931 . S
H71 C53 0.929 . S
H72 C54 0.930 . S
H73 C57 0.930 . S
H74 C58 0.931 . S
H75 C62 0.928 . S
H76 C61 0.929 . S
H77 C59 0.932 . S
C78 C79 1.386 . S
C78 C80 1.397 . S
C78 H102 0.931 . S
C79 C78 1.386 . S
C79 C83 1.397 . S
C80 C78 1.397 . S
C80 C81 1.384 . S
C80 H103 0.930 . S
C81 C80 1.384 . S
C81 C82 1.377 . S
C81 C84 1.481 . S
C82 C81 1.377 . S
C82 C83 1.389 . S
C82 H104 0.929 . S
C83 C79 1.397 . S
C83 C82 1.389 . S
C83 H105 0.931 . S
C84 C81 1.481 . S
C84 C85 1.387 . S
C84 C89 1.390 . S
C85 C84 1.387 . S
C85 C86 1.401 . S
C85 H106 0.930 . S
C86 C85 1.401 . S
C86 C87 1.376 . S
C86 C95 1.511 . S
C87 C86 1.376 . S
C87 C88 1.392 . S
C87 H108 0.931 . S
C88 C87 1.392 . S
C88 C89 1.361 . S
C88 C90 1.500 . S
C89 C84 1.390 . S
C89 C88 1.361 . S
C89 H107 0.931 . S
C90 C88 1.500 . S
C90 C91 1.371 . S
C90 C92 1.365 . S
C91 C90 1.371 . S
C91 C101 1.386 . S
C91 H109 0.931 . S
C92 C90 1.365 . S
C92 C93 1.409 . S
C92 H110 0.929 . S
C93 C92 1.409 . S
C93 C94 1.380 . S
C93 H111 0.930 . S
C94 C93 1.380 . S
C94 C101 1.357 . S
C95 C86 1.511 . S
C95 C96 1.341 . S
C95 C97 1.371 . S
C96 C95 1.341 . S
C96 C100 1.394 . S
C96 H112 0.930 . S
C97 C95 1.371 . S
C97 C98 1.392 . S
C97 H113 0.931 . S
C98 C97 1.392 . S
C98 C99 1.331 . S
C98 H116 0.932 . S
C99 C98 1.331 . S
C99 C100 1.336 . S
C100 C96 1.394 . S
C100 C99 1.336 . S
C100 H115 0.929 . S
C101 C91 1.386 . S
C101 C94 1.357 . S
C101 H114 0.928 . S
H102 C78 0.931 . S
H103 C80 0.930 . S
H104 C82 0.929 . S
H105 C83 0.931 . S
H106 C85 0.930 . S
H107 C89 0.931 . S
H108 C87 0.931 . S
H109 C91 0.931 . S
H110 C92 0.929 . S
H111 C93 0.930 . S
H112 C96 0.930 . S
H113 C97 0.931 . S
H114 C101 0.928 . S
H115 C100 0.929 . S
H116 C98 0.932 . S
C117 C118 1.386 . S
C117 C119 1.397 . S
C117 H141 0.931 . S
C118 C117 1.386 . S
C118 C122 1.397 . S
C119 C117 1.397 . S
C119 C120 1.384 . S
C119 H142 0.930 . S
C120 C119 1.384 . S
C120 C121 1.377 . S
C120 C123 1.481 . S
C121 C120 1.377 . S
C121 C122 1.389 . S
C121 H143 0.929 . S
C122 C118 1.397 . S
C122 C121 1.389 . S
C122 H144 0.931 . S
C123 C120 1.481 . S
C123 C124 1.387 . S
C123 C128 1.390 . S
C124 C123 1.387 . S
C124 C125 1.401 . S
C124 H145 0.930 . S
C125 C124 1.401 . S
C125 C126 1.376 . S
C125 C134 1.511 . S
C126 C125 1.376 . S
C126 C127 1.392 . S
C126 H147 0.931 . S
C127 C126 1.392 . S
C127 C128 1.361 . S
C127 C129 1.500 . S
C128 C123 1.390 . S
C128 C127 1.361 . S
C128 H146 0.931 . S
C129 C127 1.500 . S
C129 C130 1.371 . S
C129 C131 1.365 . S
C130 C129 1.371 . S
C130 C140 1.386 . S
C130 H148 0.931 . S
C131 C129 1.365 . S
C131 C132 1.409 . S
C131 H149 0.929 . S
C132 C131 1.409 . S
C132 C133 1.380 . S
C132 H150 0.930 . S
C133 C132 1.380 . S
C133 C140 1.357 . S
C134 C125 1.511 . S
C134 C135 1.341 . S
C134 C136 1.371 . S
C135 C134 1.341 . S
C135 C139 1.394 . S
C135 H151 0.930 . S
C136 C134 1.371 . S
C136 C137 1.392 . S
C136 H152 0.931 . S
C137 C136 1.392 . S
C137 C138 1.331 . S
C137 H155 0.932 . S
C138 C137 1.331 . S
C138 C139 1.336 . S
C139 C135 1.394 . S
C139 C138 1.336 . S
C139 H154 0.929 . S
C140 C130 1.386 . S
C140 C133 1.357 . S
C140 H153 0.928 . S
H141 C117 0.931 . S
H142 C119 0.930 . S
H143 C121 0.929 . S
H144 C122 0.931 . S
H145 C124 0.930 . S
H146 C128 0.931 . S
H147 C126 0.931 . S
H148 C130 0.931 . S
H149 C131 0.929 . S
H150 C132 0.930 . S
H151 C135 0.930 . S
H152 C136 0.931 . S
H153 C140 0.928 . S
H154 C139 0.929 . S
H155 C137 0.932 . S
C156 C157 1.386 . S
C156 C158 1.397 . S
C156 H180 0.931 . S
C157 C156 1.386 . S
C157 C161 1.397 . S
C158 C156 1.397 . S
C158 C159 1.384 . S
C158 H181 0.930 . S
C159 C158 1.384 . S
C159 C160 1.377 . S
C159 C162 1.481 . S
C160 C159 1.377 . S
C160 C161 1.389 . S
C160 H182 0.929 . S
C161 C157 1.397 . S
C161 C160 1.389 . S
C161 H183 0.931 . S
C162 C159 1.481 . S
C162 C163 1.387 . S
C162 C167 1.390 . S
C163 C162 1.387 . S
C163 C164 1.401 . S
C163 H184 0.930 . S
C164 C163 1.401 . S
C164 C165 1.376 . S
C164 C173 1.511 . S
C165 C164 1.376 . S
C165 C166 1.392 . S
C165 H186 0.931 . S
C166 C165 1.392 . S
C166 C167 1.361 . S
C166 C168 1.500 . S
C167 C162 1.390 . S
C167 C166 1.361 . S
C167 H185 0.931 . S
C168 C166 1.500 . S
C168 C169 1.371 . S
C168 C170 1.365 . S
C169 C168 1.371 . S
C169 C179 1.386 . S
C169 H187 0.931 . S
C170 C168 1.365 . S
C170 C171 1.409 . S
C170 H188 0.929 . S
C171 C170 1.409 . S
C171 C172 1.380 . S
C171 H189 0.930 . S
C172 C171 1.380 . S
C172 C179 1.357 . S
C173 C164 1.511 . S
C173 C174 1.341 . S
C173 C175 1.371 . S
C174 C173 1.341 . S
C174 C178 1.394 . S
C174 H190 0.930 . S
C175 C173 1.371 . S
C175 C176 1.392 . S
C175 H191 0.931 . S
C176 C175 1.392 . S
C176 C177 1.331 . S
C176 H194 0.932 . S
C177 C176 1.331 . S
C177 C178 1.336 . S
C178 C174 1.394 . S
C178 C177 1.336 . S
C178 H193 0.929 . S
C179 C169 1.386 . S
C179 C172 1.357 . S
C179 H192 0.928 . S
H180 C156 0.931 . S
H181 C158 0.930 . S
H182 C160 0.929 . S
H183 C161 0.931 . S
H184 C163 0.930 . S
H185 C167 0.931 . S
H186 C165 0.931 . S
H187 C169 0.931 . S
H188 C170 0.929 . S
H189 C171 0.930 . S
H190 C174 0.930 . S
H191 C175 0.931 . S
H192 C179 0.928 . S
H193 C178 0.929 . S
H194 C176 0.932 . S
C195 C196 1.386 . S
C195 C197 1.397 . S
C195 H219 0.931 . S
C196 C195 1.386 . S
C196 C200 1.397 . S
C197 C195 1.397 . S
C197 C198 1.384 . S
C197 H220 0.930 . S
C198 C197 1.384 . S
C198 C199 1.377 . S
C198 C201 1.481 . S
C199 C198 1.377 . S
C199 C200 1.389 . S
C199 H221 0.929 . S
C200 C196 1.397 . S
C200 C199 1.389 . S
C200 H222 0.931 . S
C201 C198 1.481 . S
C201 C202 1.387 . S
C201 C206 1.390 . S
C202 C201 1.387 . S
C202 C203 1.401 . S
C202 H223 0.930 . S
C203 C202 1.401 . S
C203 C204 1.376 . S
C203 C212 1.511 . S
C204 C203 1.376 . S
C204 C205 1.392 . S
C204 H225 0.931 . S
C205 C204 1.392 . S
C205 C206 1.361 . S
C205 C207 1.500 . S
C206 C201 1.390 . S
C206 C205 1.361 . S
C206 H224 0.931 . S
C207 C205 1.500 . S
C207 C208 1.371 . S
C207 C209 1.365 . S
C208 C207 1.371 . S
C208 C218 1.386 . S
C208 H226 0.931 . S
C209 C207 1.365 . S
C209 C210 1.409 . S
C209 H227 0.929 . S
C210 C209 1.409 . S
C210 C211 1.380 . S
C210 H228 0.930 . S
C211 C210 1.380 . S
C211 C218 1.357 . S
C212 C203 1.511 . S
C212 C213 1.341 . S
C212 C214 1.371 . S
C213 C212 1.341 . S
C213 C217 1.394 . S
C213 H229 0.930 . S
C214 C212 1.371 . S
C214 C215 1.392 . S
C214 H230 0.931 . S
C215 C214 1.392 . S
C215 C216 1.331 . S
C215 H233 0.932 . S
C216 C215 1.331 . S
C216 C217 1.336 . S
C217 C213 1.394 . S
C217 C216 1.336 . S
C217 H232 0.929 . S
C218 C208 1.386 . S
C218 C211 1.357 . S
C218 H231 0.928 . S
H219 C195 0.931 . S
H220 C197 0.930 . S
H221 C199 0.929 . S
H222 C200 0.931 . S
H223 C202 0.930 . S
H224 C206 0.931 . S
H225 C204 0.931 . S
H226 C208 0.931 . S
H227 C209 0.929 . S
H228 C210 0.930 . S
H229 C213 0.930 . S
H230 C214 0.931 . S
H231 C218 0.928 . S
H232 C217 0.929 . S
H233 C215 0.932 . S
C234 C235 1.386 . S
C234 C236 1.397 . S
C234 H258 0.931 . S
C235 C234 1.386 . S
C235 C239 1.397 . S
C236 C234 1.397 . S
C236 C237 1.384 . S
C236 H259 0.930 . S
C237 C236 1.384 . S
C237 C238 1.377 . S
C237 C240 1.481 . S
C238 C237 1.377 . S
C238 C239 1.389 . S
C238 H260 0.929 . S
C239 C235 1.397 . S
C239 C238 1.389 . S
C239 H261 0.931 . S
C240 C237 1.481 . S
C240 C241 1.387 . S
C240 C245 1.390 . S
C241 C240 1.387 . S
C241 C242 1.401 . S
C241 H262 0.930 . S
C242 C241 1.401 . S
C242 C243 1.376 . S
C242 C251 1.511 . S
C243 C242 1.376 . S
C243 C244 1.392 . S
C243 H264 0.931 . S
C244 C243 1.392 . S
C244 C245 1.361 . S
C244 C246 1.500 . S
C245 C240 1.390 . S
C245 C244 1.361 . S
C245 H263 0.931 . S
C246 C244 1.500 . S
C246 C247 1.371 . S
C246 C248 1.365 . S
C247 C246 1.371 . S
C247 C257 1.386 . S
C247 H265 0.931 . S
C248 C246 1.365 . S
C248 C249 1.409 . S
C248 H266 0.929 . S
C249 C248 1.409 . S
C249 C250 1.380 . S
C249 H267 0.930 . S
C250 C249 1.380 . S
C250 C257 1.357 . S
C251 C242 1.511 . S
C251 C252 1.341 . S
C251 C253 1.371 . S
C252 C251 1.341 . S
C252 C256 1.394 . S
C252 H268 0.930 . S
C253 C251 1.371 . S
C253 C254 1.392 . S
C253 H269 0.931 . S
C254 C253 1.392 . S
C254 C255 1.331 . S
C254 H272 0.932 . S
C255 C254 1.331 . S
C255 C256 1.336 . S
C256 C252 1.394 . S
C256 C255 1.336 . S
C256 H271 0.929 . S
C257 C247 1.386 . S
C257 C250 1.357 . S
C257 H270 0.928 . S
H258 C234 0.931 . S
H259 C236 0.930 . S
H260 C238 0.929 . S
H261 C239 0.931 . S
H262 C241 0.930 . S
H263 C245 0.931 . S
H264 C243 0.931 . S
H265 C247 0.931 . S
H266 C248 0.929 . S
H267 C249 0.930 . S
H268 C252 0.930 . S
H269 C253 0.931 . S
H270 C257 0.928 . S
H271 C256 0.929 . S
H272 C254 0.932 . S
C273 C274 1.386 . S
C273 C275 1.397 . S
C273 H297 0.931 . S
C274 C273 1.386 . S
C274 C278 1.397 . S
C275 C273 1.397 . S
C275 C276 1.384 . S
C275 H298 0.930 . S
C276 C275 1.384 . S
C276 C277 1.377 . S
C276 C279 1.481 . S
C277 C276 1.377 . S
C277 C278 1.389 . S
C277 H299 0.929 . S
C278 C274 1.397 . S
C278 C277 1.389 . S
C278 H300 0.931 . S
C279 C276 1.481 . S
C279 C280 1.387 . S
C279 C284 1.390 . S
C280 C279 1.387 . S
C280 C281 1.401 . S
C280 H301 0.930 . S
C281 C280 1.401 . S
C281 C282 1.376 . S
C281 C290 1.511 . S
C282 C281 1.376 . S
C282 C283 1.392 . S
C282 H303 0.931 . S
C283 C282 1.392 . S
C283 C284 1.361 . S
C283 C285 1.500 . S
C284 C279 1.390 . S
C284 C283 1.361 . S
C284 H302 0.931 . S
C285 C283 1.500 . S
C285 C286 1.371 . S
C285 C287 1.365 . S
C286 C285 1.371 . S
C286 C296 1.386 . S
C286 H304 0.931 . S
C287 C285 1.365 . S
C287 C288 1.409 . S
C287 H305 0.929 . S
C288 C287 1.409 . S
C288 C289 1.380 . S
C288 H306 0.930 . S
C289 C288 1.380 . S
C289 C296 1.357 . S
C290 C281 1.511 . S
C290 C291 1.341 . S
C290 C292 1.371 . S
C291 C290 1.341 . S
C291 C295 1.394 . S
C291 H307 0.930 . S
C292 C290 1.371 . S
C292 C293 1.392 . S
C292 H308 0.931 . S
C293 C292 1.392 . S
C293 C294 1.331 . S
C293 H311 0.932 . S
C294 C293 1.331 . S
C294 C295 1.336 . S
C295 C291 1.394 . S
C295 C294 1.336 . S
C295 H310 0.929 . S
C296 C286 1.386 . S
C296 C289 1.357 . S
C296 H309 0.928 . S
H297 C273 0.931 . S
H298 C275 0.930 . S
H299 C277 0.929 . S
H300 C278 0.931 . S
H301 C280 0.930 . S
H302 C284 0.931 . S
H303 C282 0.931 . S
H304 C286 0.931 . S
H305 C287 0.929 . S
H306 C288 0.930 . S
H307 C291 0.930 . S
H308 C292 0.931 . S
H309 C296 0.928 . S
H310 C295 0.929 . S
H311 C293 0.932 . S
Tb312 C314 2.820 . S
Tb312 O332 2.501 . S
Tb312 O333 2.443 . S
Tb312 O334 2.651 1_665 S
Tb312 O335 2.396 1_565 S
Tb312 O336 2.389 1_655 S
Tb312 O340 2.337 . S
Tb312 O343 2.330 1_565 S
Tb313 C323 2.809 . S
Tb313 O334 2.325 . S
Tb313 O337 2.341 1_545 S
Tb313 O338 2.484 . S
Tb313 O339 2.440 . S
Tb313 O340 2.658 1_445 S
Tb313 O341 2.409 1_545 S
Tb313 O342 2.378 1_455 S
C314 Tb312 2.820 . S
C314 C315 1.514 . S
C314 O332 1.248 . S
C314 O333 1.266 . S
C315 C314 1.514 . S
C315 C316 1.359 . S
C315 C320 1.348 . S
C316 C315 1.359 . S
C316 C317 1.380 . S
C316 H344 0.929 . S
C317 C316 1.380 . S
C317 C318 1.347 . S
C317 H345 0.931 . S
C318 C317 1.347 . S
C318 C319 1.369 . S
C319 C318 1.369 . S
C319 C320 1.408 . S
C319 H346 0.930 . S
C320 C315 1.348 . S
C320 C319 1.408 . S
C320 H347 0.930 . S
C321 O334 1.281 . S
C321 O335 1.254 1_455 S
C322 O336 1.236 . S
C322 O337 1.266 . S
C323 Tb313 2.809 . S
C323 C324 1.514 . S
C323 O338 1.248 . S
C323 O339 1.266 . S
C324 C323 1.514 . S
C324 C325 1.359 . S
C324 C329 1.348 . S
C325 C324 1.359 . S
C325 C326 1.380 . S
C325 H348 0.929 . S
C326 C325 1.380 . S
C326 C327 1.347 . S
C326 H349 0.931 . S
C327 C326 1.347 . S
C327 C328 1.369 . S
C328 C327 1.369 . S
C328 C329 1.408 . S
C328 H350 0.930 . S
C329 C324 1.348 . S
C329 C328 1.408 . S
C329 H351 0.930 . S
C330 O340 1.281 . S
C330 O341 1.254 1_655 S
C331 O342 1.236 . S
C331 O343 1.266 . S
O332 Tb312 2.501 . S
O332 C314 1.248 . S
O333 Tb312 2.443 . S
O333 C314 1.266 . S
O334 Tb312 2.651 1_445 S
O334 Tb313 2.325 . S
O334 C321 1.281 . S
O335 Tb312 2.396 1_545 S
O335 C321 1.254 1_655 S
O336 Tb312 2.389 1_455 S
O336 C322 1.236 . S
O337 Tb313 2.341 1_565 S
O337 C322 1.266 . S
O338 Tb313 2.484 . S
O338 C323 1.248 . S
O339 Tb313 2.440 . S
O339 C323 1.266 . S
O340 Tb312 2.337 . S
O340 Tb313 2.658 1_665 S
O340 C330 1.281 . S
O341 Tb313 2.409 1_565 S
O341 C330 1.254 1_455 S
O342 Tb313 2.378 1_655 S
O342 C331 1.236 . S
O343 Tb312 2.330 1_545 S
O343 C331 1.266 . S
H344 C316 0.929 . S
H345 C317 0.931 . S
H346 C319 0.930 . S
H347 C320 0.930 . S
H348 C325 0.929 . S
H349 C326 0.931 . S
H350 C328 0.930 . S
H351 C329 0.930 . S
Tb352 C354 2.809 . S
Tb352 O372 2.484 . S
Tb352 O373 2.440 . S
Tb352 O374 2.658 1_545 S
Tb352 O375 2.409 1_545 S
Tb352 O376 2.378 . S
Tb352 O380 2.325 1_554 S
Tb352 O383 2.341 1_544 S
Tb353 C363 2.809 . S
Tb353 O374 2.325 1_556 S
Tb353 O377 2.341 1_566 S
Tb353 O378 2.484 . S
Tb353 O379 2.440 . S
Tb353 O380 2.658 1_565 S
Tb353 O381 2.409 1_565 S
Tb353 O382 2.378 . S
C354 Tb352 2.809 . S
C354 C355 1.514 . S
C354 O372 1.248 . S
C354 O373 1.266 . S
C355 C354 1.514 . S
C355 C356 1.359 . S
C355 C360 1.348 . S
C356 C355 1.359 . S
C356 C357 1.380 . S
C356 H384 0.929 . S
C357 C356 1.380 . S
C357 C358 1.347 . S
C357 H385 0.931 . S
C358 C357 1.347 . S
C358 C359 1.369 . S
C359 C358 1.369 . S
C359 C360 1.408 . S
C359 H386 0.930 . S
C360 C355 1.348 . S
C360 C359 1.408 . S
C360 H387 0.930 . S
C361 O374 1.281 . S
C361 O375 1.254 . S
C362 O376 1.236 . S
C362 O377 1.266 . S
C363 Tb353 2.809 . S
C363 C364 1.514 . S
C363 O378 1.248 . S
C363 O379 1.266 . S
C364 C363 1.514 . S
C364 C365 1.359 . S
C364 C369 1.348 . S
C365 C364 1.359 . S
C365 C366 1.380 . S
C365 H388 0.929 . S
C366 C365 1.380 . S
C366 C367 1.347 . S
C366 H389 0.931 . S
C367 C366 1.347 . S
C367 C368 1.369 . S
C368 C367 1.369 . S
C368 C369 1.408 . S
C368 H390 0.930 . S
C369 C364 1.348 . S
C369 C368 1.408 . S
C369 H391 0.930 . S
C370 O380 1.281 . S
C370 O381 1.254 . S
C371 O382 1.236 . S
C371 O383 1.266 . S
O372 Tb352 2.484 . S
O372 C354 1.248 . S
O373 Tb352 2.440 . S
O373 C354 1.266 . S
O374 Tb352 2.658 1_565 S
O374 Tb353 2.325 1_554 S
O374 C361 1.281 . S
O375 Tb352 2.409 1_565 S
O375 C361 1.254 . S
O376 Tb352 2.378 . S
O376 C362 1.236 . S
O377 Tb353 2.341 1_544 S
O377 C362 1.266 . S
O378 Tb353 2.484 . S
O378 C363 1.248 . S
O379 Tb353 2.440 . S
O379 C363 1.266 . S
O380 Tb352 2.325 1_556 S
O380 Tb353 2.658 1_545 S
O380 C370 1.281 . S
O381 Tb353 2.409 1_545 S
O381 C370 1.254 . S
O382 Tb353 2.378 . S
O382 C371 1.236 . S
O383 Tb352 2.341 1_566 S
O383 C371 1.266 . S
H384 C356 0.929 . S
H385 C357 0.931 . S
H386 C359 0.930 . S
H387 C360 0.930 . S
H388 C365 0.929 . S
H389 C366 0.931 . S
H390 C368 0.930 . S
H391 C369 0.930 . S
Tb392 C394 2.809 . S
Tb392 O412 2.484 . S
Tb392 O413 2.440 . S
Tb392 O414 2.658 . S
Tb392 O415 2.409 . S
Tb392 O416 2.378 . S
Tb392 O420 2.325 . S
Tb392 O423 2.341 . S
Tb393 C403 2.809 . S
Tb393 O414 2.325 . S
Tb393 O417 2.341 . S
Tb393 O418 2.484 . S
Tb393 O419 2.440 . S
Tb393 O420 2.658 . S
Tb393 O421 2.409 . S
Tb393 O422 2.378 . S
C394 Tb392 2.809 . S
C394 C395 1.514 . S
C394 O412 1.248 . S
C394 O413 1.266 . S
C395 C394 1.514 . S
C395 C396 1.359 . S
C395 C400 1.348 . S
C396 C395 1.359 . S
C396 C397 1.380 . S
C396 H424 0.929 . S
C397 C396 1.380 . S
C397 C398 1.347 . S
C397 H425 0.931 . S
C398 C397 1.347 . S
C398 C399 1.369 . S
C399 C398 1.369 . S
C399 C400 1.408 . S
C399 H426 0.930 . S
C400 C395 1.348 . S
C400 C399 1.408 . S
C400 H427 0.930 . S
C401 O414 1.281 . S
C401 O415 1.254 . S
C402 O416 1.236 . S
C402 O417 1.266 . S
C403 Tb393 2.809 . S
C403 C404 1.514 . S
C403 O418 1.248 . S
C403 O419 1.266 . S
C404 C403 1.514 . S
C404 C405 1.359 . S
C404 C409 1.348 . S
C405 C404 1.359 . S
C405 C406 1.380 . S
C405 H428 0.929 . S
C406 C405 1.380 . S
C406 C407 1.347 . S
C406 H429 0.931 . S
C407 C406 1.347 . S
C407 C408 1.369 . S
C408 C407 1.369 . S
C408 C409 1.408 . S
C408 H430 0.930 . S
C409 C404 1.348 . S
C409 C408 1.408 . S
C409 H431 0.930 . S
C410 O420 1.281 . S
C410 O421 1.254 . S
C411 O422 1.236 . S
C411 O423 1.266 . S
O412 Tb392 2.484 . S
O412 C394 1.248 . S
O413 Tb392 2.440 . S
O413 C394 1.266 . S
O414 Tb392 2.658 . S
O414 Tb393 2.325 . S
O414 C401 1.281 . S
O415 Tb392 2.409 . S
O415 C401 1.254 . S
O416 Tb392 2.378 . S
O416 C402 1.236 . S
O417 Tb393 2.341 . S
O417 C402 1.266 . S
O418 Tb393 2.484 . S
O418 C403 1.248 . S
O419 Tb393 2.440 . S
O419 C403 1.266 . S
O420 Tb392 2.325 . S
O420 Tb393 2.658 . S
O420 C410 1.281 . S
O421 Tb393 2.409 . S
O421 C410 1.254 . S
O422 Tb393 2.378 . S
O422 C411 1.236 . S
O423 Tb392 2.341 . S
O423 C411 1.266 . S
H424 C396 0.929 . S
H425 C397 0.931 . S
H426 C399 0.930 . S
H427 C400 0.930 . S
H428 C405 0.929 . S
H429 C406 0.931 . S
H430 C408 0.930 . S
H431 C409 0.930 . S
Tb432 C434 2.809 . S
Tb432 O452 2.484 . S
Tb432 O453 2.440 . S
Tb432 O454 2.658 1_656 S
Tb432 O455 2.409 1_656 S
Tb432 O456 2.378 1_556 S
Tb432 O460 2.325 . S
Tb432 O463 2.341 1_655 S
Tb433 C443 2.809 . S
Tb433 O454 2.325 . S
Tb433 O457 2.341 1_455 S
Tb433 O458 2.484 . S
Tb433 O459 2.440 . S
Tb433 O460 2.658 1_454 S
Tb433 O461 2.430 1_455 S
Tb433 O462 2.378 1_554 S
C434 Tb432 2.809 . S
C434 C435 1.514 . S
C434 O452 1.248 . S
C434 O453 1.266 . S
C435 C434 1.514 . S
C435 C436 1.359 . S
C435 C440 1.348 . S
C436 C435 1.359 . S
C436 C437 1.380 . S
C436 H464 0.929 . S
C437 C436 1.380 . S
C437 C438 1.347 . S
C437 H465 0.931 . S
C438 C437 1.347 . S
C438 C439 1.369 . S
C439 C438 1.369 . S
C439 C440 1.408 . S
C439 H466 0.930 . S
C440 C435 1.348 . S
C440 C439 1.408 . S
C440 H467 0.930 . S
C441 O454 1.281 . S
C441 O455 1.254 . S
C442 O456 1.236 . S
C442 O457 1.266 . S
C443 Tb433 2.809 . S
C443 C444 1.514 . S
C443 O458 1.248 . S
C443 O459 1.266 . S
C444 C443 1.514 . S
C444 C445 1.359 . S
C444 C449 1.348 . S
C445 C444 1.359 . S
C445 C446 1.380 . S
C445 H468 0.929 . S
C446 C445 1.380 . S
C446 C447 1.347 . S
C446 H469 0.931 . S
C447 C446 1.347 . S
C447 C448 1.369 . S
C448 C447 1.369 . S
C448 C449 1.408 . S
C448 H470 0.930 . S
C449 C444 1.348 . S
C449 C448 1.408 . S
C449 H471 0.930 . S
C450 O460 1.281 . S
C450 O461 1.230 1_556 S
C451 O462 1.236 . S
C451 O463 1.266 . S
O452 Tb432 2.484 . S
O452 C434 1.248 . S
O453 Tb432 2.440 . S
O453 C434 1.266 . S
O454 Tb432 2.658 1_454 S
O454 Tb433 2.325 . S
O454 C441 1.281 . S
O455 Tb432 2.409 1_454 S
O455 C441 1.254 . S
O456 Tb432 2.378 1_554 S
O456 C442 1.236 . S
O457 Tb433 2.341 1_655 S
O457 C442 1.266 . S
O458 Tb433 2.484 . S
O458 C443 1.248 . S
O459 Tb433 2.440 . S
O459 C443 1.266 . S
O460 Tb432 2.325 . S
O460 Tb433 2.658 1_656 S
O460 C450 1.281 . S
O461 Tb433 2.430 1_655 S
O461 C450 1.230 1_554 S
O462 Tb433 2.378 1_556 S
O462 C451 1.236 . S
O463 Tb432 2.341 1_455 S
O463 C451 1.266 . S
H464 C436 0.929 . S
H465 C437 0.931 . S
H466 C439 0.930 . S
H467 C440 0.930 . S
H468 C445 0.929 . S
H469 C446 0.931 . S
H470 C448 0.930 . S
H471 C449 0.930 . S
H472 C480 0.950 . S
H473 C485 0.950 . S
H474 C482 0.950 . S
H475 C484 0.950 . S
H476 C486 0.950 . S
H477 C488 0.950 . S
H478 C490 0.950 . S
H479 C491 0.950 . S
C480 H472 0.950 . S
C480 C481 1.386 . S
C480 C482 1.391 . S
C481 C480 1.386 . S
C481 C485 1.393 . S
C482 H474 0.950 . S
C482 C480 1.391 . S
C482 C483 1.400 . S
C483 C482 1.400 . S
C483 C484 1.398 . S
C483 C489 1.491 . S
C484 H475 0.950 . S
C484 C483 1.398 . S
C484 C485 1.391 . S
C485 H473 0.950 . S
C485 C481 1.393 . S
C485 C484 1.391 . S
C486 H476 0.950 . S
C486 C487 1.386 . S
C486 C488 1.391 . S
C487 C486 1.386 . S
C487 C491 1.393 . S
C488 H477 0.950 . S
C488 C486 1.391 . S
C488 C489 1.400 . S
C489 C483 1.491 . S
C489 C488 1.400 . S
C489 C490 1.398 . S
C490 H478 0.950 . S
C490 C489 1.398 . S
C490 C491 1.391 . S
C491 H479 0.950 . S
C491 C487 1.393 . S
C491 C490 1.391 . S
H492 C500 0.950 . S
H493 C505 0.950 . S
H494 C502 0.950 . S
H495 C504 0.950 . S
H496 C506 0.950 . S
H497 C508 0.950 . S
H498 C510 0.950 . S
H499 C511 0.950 . S
C500 H492 0.950 . S
C500 C501 1.386 . S
C500 C502 1.391 . S
C501 C500 1.386 . S
C501 C505 1.393 . S
C502 H494 0.950 . S
C502 C500 1.391 . S
C502 C503 1.400 . S
C503 C502 1.400 . S
C503 C504 1.398 . S
C503 C509 1.491 . S
C504 H495 0.950 . S
C504 C503 1.398 . S
C504 C505 1.391 . S
C505 H493 0.950 . S
C505 C501 1.393 . S
C505 C504 1.391 . S
C506 H496 0.950 . S
C506 C507 1.386 . S
C506 C508 1.391 . S
C507 C506 1.386 . S
C507 C511 1.393 . S
C508 H497 0.950 . S
C508 C506 1.391 . S
C508 C509 1.400 . S
C509 C503 1.491 . S
C509 C508 1.400 . S
C509 C510 1.398 . S
C510 H498 0.950 . S
C510 C509 1.398 . S
C510 C511 1.391 . S
C511 H499 0.950 . S
C511 C507 1.393 . S
C511 C510 1.391 . S
H512 C520 0.950 . S
H513 C525 0.950 . S
H514 C522 0.950 . S
H515 C524 0.950 . S
H516 C526 0.950 . S
H517 C528 0.950 . S
H518 C530 0.950 . S
H519 C531 0.950 . S
C520 H512 0.950 . S
C520 C521 1.386 . S
C520 C522 1.391 . S
C521 C520 1.386 . S
C521 C525 1.393 . S
C522 H514 0.950 . S
C522 C520 1.391 . S
C522 C523 1.400 . S
C523 C522 1.400 . S
C523 C524 1.398 . S
C523 C529 1.491 . S
C524 H515 0.950 . S
C524 C523 1.398 . S
C524 C525 1.391 . S
C525 H513 0.950 . S
C525 C521 1.393 . S
C525 C524 1.391 . S
C526 H516 0.950 . S
C526 C527 1.386 . S
C526 C528 1.391 . S
C527 C526 1.386 . S
C527 C531 1.393 . S
C528 H517 0.950 . S
C528 C526 1.391 . S
C528 C529 1.400 . S
C529 C523 1.491 . S
C529 C528 1.400 . S
C529 C530 1.398 . S
C530 H518 0.950 . S
C530 C529 1.398 . S
C530 C531 1.391 . S
C531 H519 0.950 . S
C531 C527 1.393 . S
C531 C530 1.391 . S
H532 C540 0.950 . S
H533 C545 0.950 . S
H534 C542 0.950 . S
H535 C544 0.950 . S
H536 C546 0.950 . S
H537 C548 0.950 . S
H538 C550 0.950 . S
H539 C551 0.950 . S
C540 H532 0.950 . S
C540 C541 1.386 . S
C540 C542 1.391 . S
C541 C540 1.386 . S
C541 C545 1.393 . S
C542 H534 0.950 . S
C542 C540 1.391 . S
C542 C543 1.400 . S
C543 C542 1.400 . S
C543 C544 1.398 . S
C543 C549 1.491 . S
C544 H535 0.950 . S
C544 C543 1.398 . S
C544 C545 1.391 . S
C545 H533 0.950 . S
C545 C541 1.393 . S
C545 C544 1.391 . S
C546 H536 0.950 . S
C546 C547 1.386 . S
C546 C548 1.391 . S
C547 C546 1.386 . S
C547 C551 1.393 . S
C548 H537 0.950 . S
C548 C546 1.391 . S
C548 C549 1.400 . S
C549 C543 1.491 . S
C549 C548 1.400 . S
C549 C550 1.398 . S
C550 H538 0.950 . S
C550 C549 1.398 . S
C550 C551 1.391 . S
C551 H539 0.950 . S
C551 C547 1.393 . S
C551 C550 1.391 . S
H552 C560 0.950 . S
H553 C565 0.950 . S
H554 C562 0.950 . S
H555 C564 0.950 . S
H556 C566 0.950 . S
H557 C568 0.950 . S
H558 C570 0.950 . S
H559 C571 0.950 . S
C560 H552 0.950 . S
C560 C561 1.386 . S
C560 C562 1.391 . S
C561 C560 1.386 . S
C561 C565 1.393 . S
C562 H554 0.950 . S
C562 C560 1.391 . S
C562 C563 1.400 . S
C563 C562 1.400 . S
C563 C564 1.398 . S
C563 C569 1.491 . S
C564 H555 0.950 . S
C564 C563 1.398 . S
C564 C565 1.391 . S
C565 H553 0.950 . S
C565 C561 1.393 . S
C565 C564 1.391 . S
C566 H556 0.950 . S
C566 C567 1.386 . S
C566 C568 1.391 . S
C567 C566 1.386 . S
C567 C571 1.393 . S
C568 H557 0.950 . S
C568 C566 1.391 . S
C568 C569 1.400 . S
C569 C563 1.491 . S
C569 C568 1.400 . S
C569 C570 1.398 . S
C570 H558 0.950 . S
C570 C569 1.398 . S
C570 C571 1.391 . S
C571 H559 0.950 . S
C571 C567 1.393 . S
C571 C570 1.391 . S
H572 C580 0.950 . S
H573 C585 0.950 . S
H574 C582 0.950 . S
H575 C584 0.950 . S
H576 C586 0.950 1_655 S
H577 C588 0.950 1_655 S
H578 C590 0.950 . S
H579 C591 0.950 . S
C580 H572 0.950 . S
C580 C581 1.386 . S
C580 C582 1.391 . S
C581 C580 1.386 . S
C581 C585 1.393 . S
C582 H574 0.950 . S
C582 C580 1.391 . S
C582 C583 1.400 . S
C583 C582 1.400 . S
C583 C584 1.398 . S
C583 C589 1.491 . S
C584 H575 0.950 . S
C584 C583 1.398 . S
C584 C585 1.391 . S
C585 H573 0.950 . S
C585 C581 1.393 . S
C585 C584 1.391 . S
C586 H576 0.950 1_455 S
C586 C587 1.386 . S
C586 C588 1.391 . S
C587 C586 1.386 . S
C587 C591 1.393 . S
C588 H577 0.950 1_455 S
C588 C586 1.391 . S
C588 C589 1.400 . S
C589 C583 1.491 . S
C589 C588 1.400 . S
C589 C590 1.398 . S
C590 H578 0.950 . S
C590 C589 1.398 . S
C590 C591 1.391 . S
C591 H579 0.950 . S
C591 C587 1.393 . S
C591 C590 1.391 . S
H592 C600 0.950 . S
H593 C605 0.950 . S
H594 C602 0.950 . S
H595 C604 0.950 . S
H596 C606 0.950 . S
H597 C608 0.950 . S
H598 C610 0.950 . S
H599 C611 0.950 . S
C600 H592 0.950 . S
C600 C601 1.386 . S
C600 C602 1.391 . S
C601 C600 1.386 . S
C601 C605 1.393 . S
C602 H594 0.950 . S
C602 C600 1.391 . S
C602 C603 1.400 . S
C603 C602 1.400 . S
C603 C604 1.398 . S
C603 C609 1.491 . S
C604 H595 0.950 . S
C604 C603 1.398 . S
C604 C605 1.391 . S
C605 H593 0.950 . S
C605 C601 1.393 . S
C605 C604 1.391 . S
C606 H596 0.950 . S
C606 C607 1.386 . S
C606 C608 1.391 . S
C607 C606 1.386 . S
C607 C611 1.393 . S
C608 H597 0.950 . S
C608 C606 1.391 . S
C608 C609 1.400 . S
C609 C603 1.491 . S
C609 C608 1.400 . S
C609 C610 1.398 . S
C610 H598 0.950 . S
C610 C609 1.398 . S
C610 C611 1.391 . S
C611 H599 0.950 . S
C611 C607 1.393 . S
C611 C610 1.391 . S
H612 C620 0.950 . S
H613 C625 0.950 . S
H614 C622 0.950 . S
H615 C624 0.950 . S
H616 C626 0.950 . S
H617 C628 0.950 . S
H618 C630 0.950 . S
H619 C631 0.950 . S
C620 H612 0.950 . S
C620 C621 1.386 . S
C620 C622 1.391 . S
C621 C620 1.386 . S
C621 C625 1.393 . S
C622 H614 0.950 . S
C622 C620 1.391 . S
C622 C623 1.400 . S
C623 C622 1.400 . S
C623 C624 1.398 . S
C623 C629 1.491 . S
C624 H615 0.950 . S
C624 C623 1.398 . S
C624 C625 1.391 . S
C625 H613 0.950 . S
C625 C621 1.393 . S
C625 C624 1.391 . S
C626 H616 0.950 . S
C626 C627 1.386 . S
C626 C628 1.391 . S
C627 C626 1.386 . S
C627 C631 1.393 . S
C628 H617 0.950 . S
C628 C626 1.391 . S
C628 C629 1.400 . S
C629 C623 1.491 . S
C629 C628 1.400 . S
C629 C630 1.398 . S
C630 H618 0.950 . S
C630 C629 1.398 . S
C630 C631 1.391 . S
C631 H619 0.950 . S
C631 C627 1.393 . S
C631 C630 1.391 . S
H632 C640 0.950 . S
H633 C645 0.950 . S
H634 C642 0.950 . S
H635 C644 0.950 . S
H636 C646 0.950 . S
H637 C648 0.950 . S
H638 C650 0.950 . S
H639 C651 0.950 . S
C640 H632 0.950 . S
C640 C641 1.386 . S
C640 C642 1.391 . S
C641 C640 1.386 . S
C641 C645 1.393 . S
C642 H634 0.950 . S
C642 C640 1.391 . S
C642 C643 1.400 . S
C643 C642 1.400 . S
C643 C644 1.398 . S
C643 C649 1.491 . S
C644 H635 0.950 . S
C644 C643 1.398 . S
C644 C645 1.391 . S
C645 H633 0.950 . S
C645 C641 1.393 . S
C645 C644 1.391 . S
C646 H636 0.950 . S
C646 C647 1.386 . S
C646 C648 1.391 . S
C647 C646 1.386 . S
C647 C651 1.393 . S
C648 H637 0.950 . S
C648 C646 1.391 . S
C648 C649 1.400 . S
C649 C643 1.491 . S
C649 C648 1.400 . S
C649 C650 1.398 . S
C650 H638 0.950 . S
C650 C649 1.398 . S
C650 C651 1.391 . S
C651 H639 0.950 . S
C651 C647 1.393 . S
C651 C650 1.391 . S
H652 C660 0.950 . S
H653 C665 0.950 . S
H654 C662 0.950 . S
H655 C664 0.950 . S
H656 C666 0.950 . S
H657 C668 0.950 . S
H658 C670 0.950 . S
H659 C671 0.950 . S
C660 H652 0.950 . S
C660 C661 1.386 . S
C660 C662 1.391 . S
C661 C660 1.386 . S
C661 C665 1.393 . S
C662 H654 0.950 . S
C662 C660 1.391 . S
C662 C663 1.400 . S
C663 C662 1.400 . S
C663 C664 1.398 . S
C663 C669 1.491 . S
C664 H655 0.950 . S
C664 C663 1.398 . S
C664 C665 1.391 . S
C665 H653 0.950 . S
C665 C661 1.393 . S
C665 C664 1.391 . S
C666 H656 0.950 . S
C666 C667 1.386 . S
C666 C668 1.391 . S
C667 C666 1.386 . S
C667 C671 1.393 . S
C668 H657 0.950 . S
C668 C666 1.391 . S
C668 C669 1.400 . S
C669 C663 1.491 . S
C669 C668 1.400 . S
C669 C670 1.398 . S
C670 H658 0.950 . S
C670 C669 1.398 . S
C670 C671 1.391 . S
C671 H659 0.950 . S
C671 C667 1.393 . S
C671 C670 1.391 . S
H672 C680 0.950 . S
H673 C685 0.950 . S
H674 C682 0.950 . S
H675 C684 0.950 . S
H676 C686 0.950 . S
H677 C688 0.950 . S
H678 C690 0.950 . S
H679 C691 0.950 . S
C680 H672 0.950 . S
C680 C681 1.386 . S
C680 C682 1.391 . S
C681 C680 1.386 . S
C681 C685 1.393 . S
C682 H674 0.950 . S
C682 C680 1.391 . S
C682 C683 1.400 . S
C683 C682 1.400 . S
C683 C684 1.398 . S
C683 C689 1.491 . S
C684 H675 0.950 . S
C684 C683 1.398 . S
C684 C685 1.391 . S
C685 H673 0.950 . S
C685 C681 1.393 . S
C685 C684 1.391 . S
C686 H676 0.950 . S
C686 C687 1.386 . S
C686 C688 1.391 . S
C687 C686 1.386 . S
C687 C691 1.393 . S
C688 H677 0.950 . S
C688 C686 1.391 . S
C688 C689 1.400 . S
C689 C683 1.491 . S
C689 C688 1.400 . S
C689 C690 1.398 . S
C690 H678 0.950 . S
C690 C689 1.398 . S
C690 C691 1.391 . S
C691 H679 0.950 . S
C691 C687 1.393 . S
C691 C690 1.391 . S
H692 C700 0.950 . S
H693 C705 0.950 . S
H694 C702 0.950 . S
H695 C704 0.950 . S
H696 C706 0.950 . S
H697 C708 0.950 . S
H698 C710 0.950 . S
H699 C711 0.950 . S
C700 H692 0.950 . S
C700 C701 1.386 . S
C700 C702 1.391 . S
C701 C700 1.386 . S
C701 C705 1.393 . S
C702 H694 0.950 . S
C702 C700 1.391 . S
C702 C703 1.400 . S
C703 C702 1.400 . S
C703 C704 1.398 . S
C703 C709 1.491 . S
C704 H695 0.950 . S
C704 C703 1.398 . S
C704 C705 1.391 . S
C705 H693 0.950 . S
C705 C701 1.393 . S
C705 C704 1.391 . S
C706 H696 0.950 . S
C706 C707 1.386 . S
C706 C708 1.391 . S
C707 C706 1.386 . S
C707 C711 1.393 . S
C708 H697 0.950 . S
C708 C706 1.391 . S
C708 C709 1.400 . S
C709 C703 1.491 . S
C709 C708 1.400 . S
C709 C710 1.398 . S
C710 H698 0.950 . S
C710 C709 1.398 . S
C710 C711 1.391 . S
C711 H699 0.950 . S
C711 C707 1.393 . S
C711 C710 1.391 . S
H712 C720 0.950 . S
H713 C725 0.950 . S
H714 C722 0.950 . S
H715 C724 0.950 . S
H716 C726 0.950 . S
H717 C728 0.950 . S
H718 C730 0.950 . S
H719 C731 0.950 . S
C720 H712 0.950 . S
C720 C721 1.386 . S
C720 C722 1.391 . S
C721 C720 1.386 . S
C721 C725 1.393 . S
C722 H714 0.950 . S
C722 C720 1.391 . S
C722 C723 1.400 . S
C723 C722 1.400 . S
C723 C724 1.398 . S
C723 C729 1.491 . S
C724 H715 0.950 . S
C724 C723 1.398 . S
C724 C725 1.391 . S
C725 H713 0.950 . S
C725 C721 1.393 . S
C725 C724 1.391 . S
C726 H716 0.950 . S
C726 C727 1.386 . S
C726 C728 1.391 . S
C727 C726 1.386 . S
C727 C731 1.393 . S
C728 H717 0.950 . S
C728 C726 1.391 . S
C728 C729 1.400 . S
C729 C723 1.491 . S
C729 C728 1.400 . S
C729 C730 1.398 . S
C730 H718 0.950 . S
C730 C729 1.398 . S
C730 C731 1.391 . S
C731 H719 0.950 . S
C731 C727 1.393 . S
C731 C730 1.391 . S
H732 C740 0.950 . S
H733 C745 0.950 . S
H734 C742 0.950 . S
H735 C744 0.950 . S
H736 C746 0.950 . S
H737 C748 0.950 . S
H738 C750 0.950 . S
H739 C751 0.950 . S
C740 H732 0.950 . S
C740 C741 1.386 . S
C740 C742 1.391 . S
C741 C740 1.386 . S
C741 C745 1.393 . S
C742 H734 0.950 . S
C742 C740 1.391 . S
C742 C743 1.400 . S
C743 C742 1.400 . S
C743 C744 1.398 . S
C743 C749 1.491 . S
C744 H735 0.950 . S
C744 C743 1.398 . S
C744 C745 1.391 . S
C745 H733 0.950 . S
C745 C741 1.393 . S
C745 C744 1.391 . S
C746 H736 0.950 . S
C746 C747 1.386 . S
C746 C748 1.391 . S
C747 C746 1.386 . S
C747 C751 1.393 . S
C748 H737 0.950 . S
C748 C746 1.391 . S
C748 C749 1.400 . S
C749 C743 1.491 . S
C749 C748 1.400 . S
C749 C750 1.398 . S
C750 H738 0.950 . S
C750 C749 1.398 . S
C750 C751 1.391 . S
C751 H739 0.950 . S
C751 C747 1.393 . S
C751 C750 1.391 . S
H752 C760 0.950 . S
H753 C765 0.950 . S
H754 C762 0.950 . S
H755 C764 0.950 . S
H756 C766 0.950 . S
H757 C768 0.950 . S
H758 C770 0.950 . S
H759 C771 0.950 . S
C760 H752 0.950 . S
C760 C761 1.386 . S
C760 C762 1.391 . S
C761 C760 1.386 . S
C761 C765 1.393 . S
C762 H754 0.950 . S
C762 C760 1.391 . S
C762 C763 1.400 . S
C763 C762 1.400 . S
C763 C764 1.398 . S
C763 C769 1.491 . S
C764 H755 0.950 . S
C764 C763 1.398 . S
C764 C765 1.391 . S
C765 H753 0.950 . S
C765 C761 1.393 . S
C765 C764 1.391 . S
C766 H756 0.950 . S
C766 C767 1.386 . S
C766 C768 1.391 . S
C767 C766 1.386 . S
C767 C771 1.393 . S
C768 H757 0.950 . S
C768 C766 1.391 . S
C768 C769 1.400 . S
C769 C763 1.491 . S
C769 C768 1.400 . S
C769 C770 1.398 . S
C770 H758 0.950 . S
C770 C769 1.398 . S
C770 C771 1.391 . S
C771 H759 0.950 . S
C771 C767 1.393 . S
C771 C770 1.391 . S
H772 C780 0.950 . S
H773 C785 0.950 . S
H774 C782 0.950 . S
H775 C784 0.950 . S
H776 C786 0.950 . S
H777 C788 0.950 . S
H778 C790 0.950 . S
H779 C791 0.950 . S
C780 H772 0.950 . S
C780 C781 1.386 . S
C780 C782 1.391 . S
C781 C780 1.386 . S
C781 C785 1.393 . S
C782 H774 0.950 . S
C782 C780 1.391 . S
C782 C783 1.400 . S
C783 C782 1.400 . S
C783 C784 1.398 . S
C783 C789 1.491 . S
C784 H775 0.950 . S
C784 C783 1.398 . S
C784 C785 1.391 . S
C785 H773 0.950 . S
C785 C781 1.393 . S
C785 C784 1.391 . S
C786 H776 0.950 . S
C786 C787 1.386 . S
C786 C788 1.391 . S
C787 C786 1.386 . S
C787 C791 1.393 . S
C788 H777 0.950 . S
C788 C786 1.391 . S
C788 C789 1.400 . S
C789 C783 1.491 . S
C789 C788 1.400 . S
C789 C790 1.398 . S
C790 H778 0.950 . S
C790 C789 1.398 . S
C790 C791 1.391 . S
C791 H779 0.950 . S
C791 C787 1.393 . S
C791 C790 1.391 . S
H792 C800 0.950 . S
H793 C805 0.950 . S
H794 C802 0.950 . S
H795 C804 0.950 . S
H796 C806 0.950 . S
H797 C808 0.950 . S
H798 C810 0.950 . S
H799 C811 0.950 . S
C800 H792 0.950 . S
C800 C801 1.386 . S
C800 C802 1.391 . S
C801 C800 1.386 . S
C801 C805 1.393 . S
C802 H794 0.950 . S
C802 C800 1.391 . S
C802 C803 1.400 . S
C803 C802 1.400 . S
C803 C804 1.398 . S
C803 C809 1.491 . S
C804 H795 0.950 . S
C804 C803 1.398 . S
C804 C805 1.391 . S
C805 H793 0.950 . S
C805 C801 1.393 . S
C805 C804 1.391 . S
C806 H796 0.950 . S
C806 C807 1.386 . S
C806 C808 1.391 . S
C807 C806 1.386 . S
C807 C811 1.393 . S
C808 H797 0.950 . S
C808 C806 1.391 . S
C808 C809 1.400 . S
C809 C803 1.491 . S
C809 C808 1.400 . S
C809 C810 1.398 . S
C810 H798 0.950 . S
C810 C809 1.398 . S
C810 C811 1.391 . S
C811 H799 0.950 . S
C811 C807 1.393 . S
C811 C810 1.391 . S
H812 C820 0.950 . S
H813 C825 0.950 . S
H814 C822 0.928 1_455 S
H815 C824 0.950 . S
H816 C826 0.950 . S
H817 C828 0.950 . S
H818 C830 0.950 1_455 S
H819 C831 0.950 1_455 S
C820 H812 0.950 . S
C820 C821 1.386 . S
C820 C822 1.391 . S
C821 C820 1.386 . S
C821 C825 1.393 . S
C822 H814 0.928 1_655 S
C822 C820 1.391 . S
C822 C823 1.400 . S
C823 C822 1.400 . S
C823 C824 1.398 . S
C823 C829 1.491 . S
C824 H815 0.950 . S
C824 C823 1.398 . S
C824 C825 1.391 . S
C825 H813 0.950 . S
C825 C821 1.393 . S
C825 C824 1.391 . S
C826 H816 0.950 . S
C826 C827 1.386 . S
C826 C828 1.391 . S
C827 C826 1.386 . S
C827 C831 1.393 . S
C828 H817 0.950 . S
C828 C826 1.391 . S
C828 C829 1.400 . S
C829 C823 1.491 . S
C829 C828 1.400 . S
C829 C830 1.398 . S
C830 H818 0.950 1_655 S
C830 C829 1.398 . S
C830 C831 1.391 . S
C831 H819 0.950 1_655 S
C831 C827 1.393 . S
C831 C830 1.391 . S
H832 C840 0.950 . S
H833 C845 0.950 . S
H834 C842 0.950 . S
H835 C844 0.950 . S
H836 C846 0.950 . S
H837 C848 0.950 . S
H838 C850 0.950 . S
H839 C851 0.950 . S
C840 H832 0.950 . S
C840 C841 1.386 . S
C840 C842 1.391 . S
C841 C840 1.386 . S
C841 C845 1.393 . S
C842 H834 0.950 . S
C842 C840 1.391 . S
C842 C843 1.400 . S
C843 C842 1.400 . S
C843 C844 1.398 . S
C843 C849 1.491 . S
C844 H835 0.950 . S
C844 C843 1.398 . S
C844 C845 1.391 . S
C845 H833 0.950 . S
C845 C841 1.393 . S
C845 C844 1.391 . S
C846 H836 0.950 . S
C846 C847 1.386 . S
C846 C848 1.391 . S
C847 C846 1.386 . S
C847 C851 1.393 . S
C848 H837 0.950 . S
C848 C846 1.391 . S
C848 C849 1.400 . S
C849 C843 1.491 . S
C849 C848 1.400 . S
C849 C850 1.398 . S
C850 H838 0.950 . S
C850 C849 1.398 . S
C850 C851 1.391 . S
C851 H839 0.950 . S
C851 C847 1.393 . S
C851 C850 1.391 . S
H852 C860 0.950 . S
H853 C865 0.950 . S
H854 C862 0.950 . S
H855 C864 0.950 . S
H856 C866 0.950 . S
H857 C868 0.950 . S
H858 C870 0.950 . S
H859 C871 0.950 . S
C860 H852 0.950 . S
C860 C861 1.386 . S
C860 C862 1.391 . S
C861 C860 1.386 . S
C861 C865 1.393 . S
C862 H854 0.950 . S
C862 C860 1.391 . S
C862 C863 1.400 . S
C863 C862 1.400 . S
C863 C864 1.398 . S
C863 C869 1.491 . S
C864 H855 0.950 . S
C864 C863 1.398 . S
C864 C865 1.391 . S
C865 H853 0.950 . S
C865 C861 1.393 . S
C865 C864 1.391 . S
C866 H856 0.950 . S
C866 C867 1.386 . S
C866 C868 1.391 . S
C867 C866 1.386 . S
C867 C871 1.393 . S
C868 H857 0.950 . S
C868 C866 1.391 . S
C868 C869 1.400 . S
C869 C863 1.491 . S
C869 C868 1.400 . S
C869 C870 1.398 . S
C870 H858 0.950 . S
C870 C869 1.398 . S
C870 C871 1.391 . S
C871 H859 0.950 . S
C871 C867 1.393 . S
C871 C870 1.391 . S
H872 C880 0.950 . S
H873 C885 0.950 . S
H874 C882 0.950 . S
H875 C884 0.950 . S
H876 C886 0.950 . S
H877 C888 0.950 . S
H878 C890 0.950 . S
H879 C891 0.950 . S
C880 H872 0.950 . S
C880 C881 1.386 . S
C880 C882 1.391 . S
C881 C880 1.386 . S
C881 C885 1.393 . S
C882 H874 0.950 . S
C882 C880 1.391 . S
C882 C883 1.400 . S
C883 C882 1.400 . S
C883 C884 1.398 . S
C883 C889 1.491 . S
C884 H875 0.950 . S
C884 C883 1.398 . S
C884 C885 1.391 . S
C885 H873 0.950 . S
C885 C881 1.393 . S
C885 C884 1.391 . S
C886 H876 0.950 . S
C886 C887 1.386 . S
C886 C888 1.391 . S
C887 C886 1.386 . S
C887 C891 1.393 . S
C888 H877 0.950 . S
C888 C886 1.391 . S
C888 C889 1.400 . S
C889 C883 1.491 . S
C889 C888 1.400 . S
C889 C890 1.398 . S
C890 H878 0.950 . S
C890 C889 1.398 . S
C890 C891 1.391 . S
C891 H879 0.950 . S
C891 C887 1.393 . S
C891 C890 1.391 . S
H892 C900 0.950 . S
H893 C905 0.950 . S
H894 C902 0.950 . S
H895 C904 0.950 . S
H896 C906 0.950 . S
H897 C908 0.950 . S
H898 C910 0.950 . S
H899 C911 0.950 . S
C900 H892 0.950 . S
C900 C901 1.386 . S
C900 C902 1.391 . S
C901 C900 1.386 . S
C901 C905 1.393 . S
C902 H894 0.950 . S
C902 C900 1.391 . S
C902 C903 1.400 . S
C903 C902 1.400 . S
C903 C904 1.398 . S
C903 C909 1.491 . S
C904 H895 0.950 . S
C904 C903 1.398 . S
C904 C905 1.391 . S
C905 H893 0.950 . S
C905 C901 1.393 . S
C905 C904 1.391 . S
C906 H896 0.950 . S
C906 C907 1.386 . S
C906 C908 1.391 . S
C907 C906 1.386 . S
C907 C911 1.393 . S
C908 H897 0.950 . S
C908 C906 1.391 . S
C908 C909 1.400 . S
C909 C903 1.491 . S
C909 C908 1.400 . S
C909 C910 1.398 . S
C910 H898 0.950 . S
C910 C909 1.398 . S
C910 C911 1.391 . S
C911 H899 0.950 . S
C911 C907 1.393 . S
C911 C910 1.391 . S
H912 C920 0.950 . S
H913 C925 0.950 . S
H914 C922 0.950 . S
H915 C924 0.950 . S
H916 C926 0.950 . S
H917 C928 0.950 . S
H918 C930 0.950 . S
H919 C931 0.950 . S
C920 H912 0.950 . S
C920 C921 1.386 . S
C920 C922 1.391 . S
C921 C920 1.386 . S
C921 C925 1.393 . S
C922 H914 0.950 . S
C922 C920 1.391 . S
C922 C923 1.400 . S
C923 C922 1.400 . S
C923 C924 1.398 . S
C923 C929 1.491 . S
C924 H915 0.950 . S
C924 C923 1.398 . S
C924 C925 1.391 . S
C925 H913 0.950 . S
C925 C921 1.393 . S
C925 C924 1.391 . S
C926 H916 0.950 . S
C926 C927 1.386 . S
C926 C928 1.391 . S
C927 C926 1.386 . S
C927 C931 1.393 . S
C928 H917 0.950 . S
C928 C926 1.391 . S
C928 C929 1.400 . S
C929 C923 1.491 . S
C929 C928 1.400 . S
C929 C930 1.398 . S
C930 H918 0.950 . S
C930 C929 1.398 . S
C930 C931 1.391 . S
C931 H919 0.950 . S
C931 C927 1.393 . S
C931 C930 1.391 . S
H932 C940 0.950 . S
H933 C945 0.950 . S
H934 C942 0.950 . S
H935 C944 0.950 . S
H936 C946 0.950 . S
H937 C948 0.950 . S
H938 C950 0.950 . S
H939 C951 0.950 . S
C940 H932 0.950 . S
C940 C941 1.386 . S
C940 C942 1.391 . S
C941 C940 1.386 . S
C941 C945 1.393 . S
C942 H934 0.950 . S
C942 C940 1.391 . S
C942 C943 1.400 . S
C943 C942 1.400 . S
C943 C944 1.398 . S
C943 C949 1.491 . S
C944 H935 0.950 . S
C944 C943 1.398 . S
C944 C945 1.391 . S
C945 H933 0.950 . S
C945 C941 1.393 . S
C945 C944 1.391 . S
C946 H936 0.950 . S
C946 C947 1.386 . S
C946 C948 1.391 . S
C947 C946 1.386 . S
C947 C951 1.393 . S
C948 H937 0.950 . S
C948 C946 1.391 . S
C948 C949 1.400 . S
C949 C943 1.491 . S
C949 C948 1.400 . S
C949 C950 1.398 . S
C950 H938 0.950 . S
C950 C949 1.398 . S
C950 C951 1.391 . S
C951 H939 0.950 . S
C951 C947 1.393 . S
C951 C950 1.391 . S
C481 C1 1.334 . S
C487 C327 1.347 . S
C501 C40 1.317 . S
C507 C367 1.351 . S
C527 C401 2.263 . S
C521 C99 2.271 . S
C541 C118 2.647 . S
C547 C442 2.600 . S
C567 C362 1.460 . S
C561 C16 1.406 . S
C587 C322 2.212 . S
C581 C60 2.110 . S
C607 C450 1.574 . S
C601 C79 1.580 . S
C627 C411 1.794 . S
C621 C138 1.859 . S
C641 C21 1.348 . S
C647 C447 1.384 . S
C667 C370 1.992 . S
C661 C94 2.044 . S
C681 C133 2.457 . S
C687 C330 2.391 . S
C701 C55 1.567 . S
C707 C398 1.630 . S
C727 C318 1.335 . S
C721 C157 1.324 . S
C741 C196 1.310 . S
C747 C358 1.352 . S
C761 C255 2.276 . S
C767 C410 2.262 . S
C781 C289 2.643 . S
C787 C451 2.585 . S
C801 C172 1.398 . S
C807 C371 1.457 . S
C827 C331 2.212 . S
C821 C216 2.085 . S
C847 C441 1.567 . S
C841 C235 1.583 . S
C867 C402 1.796 . S
C861 C294 1.861 . S
C881 C177 1.369 . S
C887 C438 1.386 . S
C907 C361 2.004 . S
C901 C250 2.052 . S
C927 C321 2.381 . S
C921 C274 2.461 . S
C941 C211 1.588 . S
C947 C407 1.633 . S
