# Generated by pormake.
# Topology eea, (3,6)-cn, num edge types: 1
# Building blocks:
#     Node 0, Type 0, BuildingBlock: VETTIZ_charged_linker_0, # of connection points: 3
#     Node 1, Type 0, BuildingBlock: VETTIZ_charged_linker_0, # of connection points: 3
#     Node 2, Type 0, BuildingBlock: VETTIZ_charged_linker_0, # of connection points: 3
#     Node 3, Type 0, BuildingBlock: VETTIZ_charged_linker_0, # of connection points: 3
#     Node 4, Type 0, BuildingBlock: VETTIZ_charged_linker_0, # of connection points: 3
#     Node 5, Type 0, BuildingBlock: VETTIZ_charged_linker_0, # of connection points: 3
#     Node 6, Type 0, BuildingBlock: VETTIZ_charged_linker_0, # of connection points: 3
#     Node 7, Type 0, BuildingBlock: VETTIZ_charged_linker_0, # of connection points: 3
#     Node 8, Type 0, BuildingBlock: VETTIZ_charged_linker_0, # of connection points: 3
#     Node 9, Type 0, BuildingBlock: VETTIZ_charged_linker_0, # of connection points: 3
#     Node 10, Type 0, BuildingBlock: VETTIZ_charged_linker_0, # of connection points: 3
#     Node 11, Type 0, BuildingBlock: VETTIZ_charged_linker_0, # of connection points: 3
#     Node 12, Type 0, BuildingBlock: VETTIZ_charged_linker_0, # of connection points: 3
#     Node 13, Type 0, BuildingBlock: VETTIZ_charged_linker_0, # of connection points: 3
#     Node 14, Type 0, BuildingBlock: VETTIZ_charged_linker_0, # of connection points: 3
#     Node 15, Type 0, BuildingBlock: VETTIZ_charged_linker_0, # of connection points: 3
#     Node 16, Type 0, BuildingBlock: VETTIZ_charged_linker_0, # of connection points: 3
#     Node 17, Type 0, BuildingBlock: VETTIZ_charged_linker_0, # of connection points: 3
#     Node 18, Type 1, BuildingBlock: CUKXOW_clean_sbu_0, # of connection points: 6
#     Node 19, Type 1, BuildingBlock: CUKXOW_clean_sbu_0, # of connection points: 6
#     Node 20, Type 1, BuildingBlock: CUKXOW_clean_sbu_0, # of connection points: 6
#     Node 21, Type 1, BuildingBlock: CUKXOW_clean_sbu_0, # of connection points: 6
#     Node 22, Type 1, BuildingBlock: CUKXOW_clean_sbu_0, # of connection points: 6
#     Node 23, Type 1, BuildingBlock: CUKXOW_clean_sbu_0, # of connection points: 6
#     Node 24, Type 1, BuildingBlock: CUKXOW_clean_sbu_0, # of connection points: 6
#     Node 25, Type 1, BuildingBlock: CUKXOW_clean_sbu_0, # of connection points: 6
#     Node 26, Type 1, BuildingBlock: CUKXOW_clean_sbu_0, # of connection points: 6
#     Edge 27, Type (0, 1), BuildingBlock: AJUNOK_clean_linker_0, # of connection points: 2
#     Edge 28, Type (0, 1), BuildingBlock: AJUNOK_clean_linker_0, # of connection points: 2
#     Edge 29, Type (0, 1), BuildingBlock: AJUNOK_clean_linker_0, # of connection points: 2
#     Edge 30, Type (0, 1), BuildingBlock: AJUNOK_clean_linker_0, # of connection points: 2
#     Edge 31, Type (0, 1), BuildingBlock: AJUNOK_clean_linker_0, # of connection points: 2
#     Edge 32, Type (0, 1), BuildingBlock: AJUNOK_clean_linker_0, # of connection points: 2
#     Edge 33, Type (0, 1), BuildingBlock: AJUNOK_clean_linker_0, # of connection points: 2
#     Edge 34, Type (0, 1), BuildingBlock: AJUNOK_clean_linker_0, # of connection points: 2
#     Edge 35, Type (0, 1), BuildingBlock: AJUNOK_clean_linker_0, # of connection points: 2
#     Edge 36, Type (0, 1), BuildingBlock: AJUNOK_clean_linker_0, # of connection points: 2
#     Edge 37, Type (0, 1), BuildingBlock: AJUNOK_clean_linker_0, # of connection points: 2
#     Edge 38, Type (0, 1), BuildingBlock: AJUNOK_clean_linker_0, # of connection points: 2
#     Edge 39, Type (0, 1), BuildingBlock: AJUNOK_clean_linker_0, # of connection points: 2
#     Edge 40, Type (0, 1), BuildingBlock: AJUNOK_clean_linker_0, # of connection points: 2
#     Edge 41, Type (0, 1), BuildingBlock: AJUNOK_clean_linker_0, # of connection points: 2
#     Edge 42, Type (0, 1), BuildingBlock: AJUNOK_clean_linker_0, # of connection points: 2
#     Edge 43, Type (0, 1), BuildingBlock: AJUNOK_clean_linker_0, # of connection points: 2
#     Edge 44, Type (0, 1), BuildingBlock: AJUNOK_clean_linker_0, # of connection points: 2
#     Edge 45, Type (0, 1), BuildingBlock: AJUNOK_clean_linker_0, # of connection points: 2
#     Edge 46, Type (0, 1), BuildingBlock: AJUNOK_clean_linker_0, # of connection points: 2
#     Edge 47, Type (0, 1), BuildingBlock: AJUNOK_clean_linker_0, # of connection points: 2
#     Edge 48, Type (0, 1), BuildingBlock: AJUNOK_clean_linker_0, # of connection points: 2
#     Edge 49, Type (0, 1), BuildingBlock: AJUNOK_clean_linker_0, # of connection points: 2
#     Edge 50, Type (0, 1), BuildingBlock: AJUNOK_clean_linker_0, # of connection points: 2
#     Edge 51, Type (0, 1), BuildingBlock: AJUNOK_clean_linker_0, # of connection points: 2
#     Edge 52, Type (0, 1), BuildingBlock: AJUNOK_clean_linker_0, # of connection points: 2
#     Edge 53, Type (0, 1), BuildingBlock: AJUNOK_clean_linker_0, # of connection points: 2
#     Edge 54, Type (0, 1), BuildingBlock: AJUNOK_clean_linker_0, # of connection points: 2
#     Edge 55, Type (0, 1), BuildingBlock: AJUNOK_clean_linker_0, # of connection points: 2
#     Edge 56, Type (0, 1), BuildingBlock: AJUNOK_clean_linker_0, # of connection points: 2
#     Edge 57, Type (0, 1), BuildingBlock: AJUNOK_clean_linker_0, # of connection points: 2
#     Edge 58, Type (0, 1), BuildingBlock: AJUNOK_clean_linker_0, # of connection points: 2
#     Edge 59, Type (0, 1), BuildingBlock: AJUNOK_clean_linker_0, # of connection points: 2
#     Edge 60, Type (0, 1), BuildingBlock: AJUNOK_clean_linker_0, # of connection points: 2
#     Edge 61, Type (0, 1), BuildingBlock: AJUNOK_clean_linker_0, # of connection points: 2
#     Edge 62, Type (0, 1), BuildingBlock: AJUNOK_clean_linker_0, # of connection points: 2
#     Edge 63, Type (0, 1), BuildingBlock: AJUNOK_clean_linker_0, # of connection points: 2
#     Edge 64, Type (0, 1), BuildingBlock: AJUNOK_clean_linker_0, # of connection points: 2
#     Edge 65, Type (0, 1), BuildingBlock: AJUNOK_clean_linker_0, # of connection points: 2
#     Edge 66, Type (0, 1), BuildingBlock: AJUNOK_clean_linker_0, # of connection points: 2
#     Edge 67, Type (0, 1), BuildingBlock: AJUNOK_clean_linker_0, # of connection points: 2
#     Edge 68, Type (0, 1), BuildingBlock: AJUNOK_clean_linker_0, # of connection points: 2
#     Edge 69, Type (0, 1), BuildingBlock: AJUNOK_clean_linker_0, # of connection points: 2
#     Edge 70, Type (0, 1), BuildingBlock: AJUNOK_clean_linker_0, # of connection points: 2
#     Edge 71, Type (0, 1), BuildingBlock: AJUNOK_clean_linker_0, # of connection points: 2
#     Edge 72, Type (0, 1), BuildingBlock: AJUNOK_clean_linker_0, # of connection points: 2
#     Edge 73, Type (0, 1), BuildingBlock: AJUNOK_clean_linker_0, # of connection points: 2
#     Edge 74, Type (0, 1), BuildingBlock: AJUNOK_clean_linker_0, # of connection points: 2
#     Edge 75, Type (0, 1), BuildingBlock: AJUNOK_clean_linker_0, # of connection points: 2
#     Edge 76, Type (0, 1), BuildingBlock: AJUNOK_clean_linker_0, # of connection points: 2
#     Edge 77, Type (0, 1), BuildingBlock: AJUNOK_clean_linker_0, # of connection points: 2
#     Edge 78, Type (0, 1), BuildingBlock: AJUNOK_clean_linker_0, # of connection points: 2
#     Edge 79, Type (0, 1), BuildingBlock: AJUNOK_clean_linker_0, # of connection points: 2
#     Edge 80, Type (0, 1), BuildingBlock: AJUNOK_clean_linker_0, # of connection points: 2
# Relax obj value: 0.018
# Max RMSD: 0.126
# Mean RMSD: 0.060
data_MOF--net-eea--node1-CUKXOW_clean_sbu_0--node2-VETTIZ_charged_linker_0--edge1-AJUNOK_clean_linker_0
_symmetry_space_group_name_H-M    P1
_symmetry_Int_Tables_number       1
_symmetry_cell_setting            triclinic
loop_
_symmetry_equiv_pos_as_xyz
'x, y, z'
_cell_length_a     52.969805
_cell_length_b     49.676896
_cell_length_c     56.587445
_cell_angle_alpha  92.949233
_cell_angle_beta   92.938206
_cell_angle_gamma 119.9658
loop_
_atom_site_label
_atom_site_type_symbol
_atom_site_fract_x
_atom_site_fract_y
_atom_site_fract_z
_atom_type_partial_charge
C0 C 0.2256 0.19803 0.39951 0.0
C1 C 0.23086 0.22651 0.41062 0.0
C2 C 0.2436 0.2354 0.43425 0.0
C3 C 0.24505 0.18739 0.43544 0.0
C4 C 0.23259 0.17882 0.41224 0.0
C5 C 0.22676 0.14699 0.40344 0.0
H6 H 0.23025 0.01566 0.42368 0.0
C7 C 0.24797 0.16131 0.44401 0.0
C8 C 0.23689 0.13741 0.42538 0.0
H9 H 0.20118 0.03809 0.35883 0.0
H10 H 0.212 0.0878 0.37787 0.0
H11 H 0.2886 0.08882 0.44076 0.0
H12 H 0.19882 0.03568 0.45642 0.0
H13 H 0.21717 0.06317 0.48104 0.0
H14 H 0.22723 0.0341 0.47377 0.0
H15 H 0.27214 0.05206 0.4536 0.0
H16 H 0.28565 0.08781 0.47184 0.0
C17 C 0.24603 0.15084 0.38272 0.0
C18 C 0.19341 0.12581 0.39671 0.0
C19 C 0.29723 0.17096 0.52653 0.0
C20 C 0.29849 0.14881 0.54061 0.0
C21 C 0.28329 0.11717 0.53115 0.0
C22 C 0.26954 0.10824 0.50805 0.0
C23 C 0.26966 0.13076 0.49414 0.0
C24 C 0.28181 0.16117 0.50384 0.0
C25 C 0.27474 0.18038 0.48784 0.0
C26 C 0.25877 0.15706 0.46621 0.0
C27 C 0.25665 0.12828 0.46986 0.0
C28 C 0.30367 0.20857 0.48175 0.0
C29 C 0.25444 0.18954 0.50048 0.0
C30 C 0.22666 0.0316 0.41361 0.0
C31 C 0.2151 0.02325 0.38973 0.0
C32 C 0.21006 0.04415 0.37725 0.0
C33 C 0.2164 0.07298 0.38835 0.0
C34 C 0.22773 0.08101 0.41231 0.0
C35 C 0.23264 0.06045 0.42457 0.0
C36 C 0.24377 0.07249 0.45015 0.0
C37 C 0.24578 0.10421 0.45093 0.0
C38 C 0.23625 0.10894 0.42874 0.0
C39 C 0.27415 0.07546 0.4545 0.0
C40 C 0.22077 0.05025 0.46628 0.0
H41 H 0.26078 0.22417 0.46454 0.0
H42 H 0.21537 0.19038 0.3815 0.0
H43 H 0.18071 0.13147 0.40908 0.0
H44 H 0.18563 0.10083 0.39813 0.0
H45 H 0.18721 0.12895 0.37844 0.0
H46 H 0.26733 0.1731 0.38569 0.0
H47 H 0.23505 0.15116 0.36557 0.0
H48 H 0.25203 0.13254 0.38099 0.0
H49 H 0.30813 0.19543 0.5325 0.0
H50 H 0.28186 0.09889 0.54158 0.0
H51 H 0.25907 0.084 0.50194 0.0
H52 H 0.31899 0.20083 0.47603 0.0
H53 H 0.31458 0.22585 0.49746 0.0
H54 H 0.30045 0.22059 0.46703 0.0
H55 H 0.24262 0.17329 0.51403 0.0
H56 H 0.23688 0.18813 0.48808 0.0
H57 H 0.26705 0.21339 0.50974 0.0
H58 H 0.24781 0.25729 0.44311 0.0
C59 C 0.25095 0.21612 0.44666 0.0
C60 C 0.96664 0.18577 0.41477 0.0
C61 C 0.98984 0.21442 0.42494 0.0
C62 C 0.98726 0.22681 0.44707 0.0
C63 C 0.93818 0.18253 0.44798 0.0
C64 C 0.94129 0.17026 0.42656 0.0
C65 C 0.9151 0.13924 0.41816 0.0
H66 H 0.77896 0.02335 0.43292 0.0
C67 C 0.90854 0.16076 0.45496 0.0
C68 C 0.8951 0.13537 0.43751 0.0
H69 H 0.83506 0.02773 0.37864 0.0
H70 H 0.8726 0.0786 0.3957 0.0
H71 H 0.83114 0.05316 0.47719 0.0
H72 H 0.79177 0.09217 0.43241 0.0
H73 H 0.80083 0.11331 0.46035 0.0
H74 H 0.77452 0.07198 0.45747 0.0
H75 H 0.79366 0.04358 0.47734 0.0
H76 H 0.82243 0.07692 0.49513 0.0
C77 C 0.92465 0.11431 0.4178 0.0
C78 C 0.9024 0.14225 0.39379 0.0
C79 C 0.87299 0.18393 0.53134 0.0
C80 C 0.84596 0.16855 0.54127 0.0
C81 C 0.82227 0.14224 0.52842 0.0
C82 C 0.82568 0.13058 0.50648 0.0
C83 C 0.85308 0.14539 0.49718 0.0
C84 C 0.87593 0.17222 0.50916 0.0
C85 C 0.90293 0.18575 0.49575 0.0
C86 C 0.89283 0.16191 0.4743 0.0
C87 C 0.86372 0.13805 0.4755 0.0
C88 C 0.92815 0.18658 0.51145 0.0
C89 C 0.90928 0.21809 0.48866 0.0
C90 C 0.79934 0.03547 0.42473 0.0
C91 C 0.80416 0.02171 0.40439 0.0
C92 C 0.83103 0.03788 0.39439 0.0
C93 C 0.85275 0.06743 0.40432 0.0
C94 C 0.84772 0.08096 0.42465 0.0
C95 C 0.82143 0.065 0.43459 0.0
C96 C 0.82033 0.0829 0.45645 0.0
C97 C 0.85047 0.11205 0.4581 0.0
C98 C 0.86622 0.11072 0.43935 0.0
C99 C 0.81653 0.06323 0.47775 0.0
C100 C 0.7955 0.0904 0.45166 0.0
H101 H 0.96069 0.22163 0.47539 0.0
H102 H 0.96828 0.1755 0.39797 0.0
H103 H 0.90299 0.16495 0.39376 0.0
H104 H 0.8792 0.12432 0.38937 0.0
H105 H 0.91526 0.14109 0.37927 0.0
H106 H 0.94429 0.12165 0.43034 0.0
H107 H 0.93013 0.11001 0.39983 0.0
H108 H 0.90782 0.0919 0.42375 0.0
H109 H 0.89152 0.20426 0.54087 0.0
H110 H 0.8014 0.12987 0.53588 0.0
H111 H 0.80699 0.11005 0.49783 0.0
H112 H 0.91999 0.16497 0.5208 0.0
H113 H 0.93792 0.20677 0.52514 0.0
H114 H 0.94563 0.18754 0.5011 0.0
H115 H 0.88856 0.21783 0.48366 0.0
H116 H 0.92177 0.2252 0.47291 0.0
H117 H 0.92126 0.23636 0.50363 0.0
H118 H 0.00498 0.24893 0.4552 0.0
C119 C 0.96149 0.21104 0.45864 0.0
C120 C 0.95823 0.75889 0.40418 0.0
C121 C 0.98216 0.75706 0.41385 0.0
C122 C 0.98031 0.74407 0.43571 0.0
C123 C 0.93089 0.7349 0.43781 0.0
C124 C 0.93315 0.74813 0.41652 0.0
C125 C 0.90688 0.75084 0.40943 0.0
H126 H 0.781 0.74192 0.43732 0.0
C127 C 0.90187 0.72653 0.44607 0.0
C128 C 0.88795 0.73616 0.42951 0.0
H129 H 0.82762 0.77675 0.37509 0.0
H130 H 0.86232 0.76167 0.38792 0.0
H131 H 0.78108 0.67955 0.43182 0.0
H132 H 0.83694 0.76342 0.47685 0.0
H133 H 0.82359 0.73051 0.49357 0.0
H134 H 0.79818 0.73879 0.47818 0.0
H135 H 0.77226 0.68494 0.46116 0.0
H136 H 0.79465 0.66766 0.45565 0.0
C137 C 0.89257 0.7314 0.38526 0.0
C138 C 0.91712 0.78607 0.40927 0.0
C139 C 0.86947 0.67449 0.52318 0.0
C140 C 0.84336 0.6637 0.53438 0.0
C141 C 0.81982 0.66498 0.52296 0.0
C142 C 0.82259 0.67821 0.50128 0.0
C143 C 0.84918 0.69022 0.49079 0.0
C144 C 0.87173 0.68721 0.50121 0.0
C145 C 0.89786 0.70016 0.48673 0.0
C146 C 0.88728 0.71164 0.46611 0.0
C147 C 0.85901 0.70646 0.46904 0.0
C148 C 0.90277 0.6731 0.47848 0.0
C149 C 0.92426 0.72735 0.502 0.0
C150 C 0.7984 0.74591 0.42624 0.0
C151 C 0.80166 0.76108 0.40526 0.0
C152 C 0.82489 0.76589 0.39161 0.0
C153 C 0.84501 0.75693 0.39902 0.0
C154 C 0.84197 0.74272 0.42032 0.0
C155 C 0.81848 0.73654 0.43319 0.0
C156 C 0.81773 0.71911 0.45443 0.0
C157 C 0.84575 0.71781 0.45296 0.0
C158 C 0.85995 0.73205 0.43311 0.0
C159 C 0.78999 0.68617 0.45077 0.0
C160 C 0.81907 0.73881 0.47706 0.0
H161 H 0.95461 0.72321 0.46428 0.0
H162 H 0.95935 0.76937 0.38765 0.0
H163 H 0.93545 0.80028 0.42316 0.0
H164 H 0.90005 0.79164 0.41355 0.0
H165 H 0.92494 0.79472 0.39187 0.0
H166 H 0.89469 0.71019 0.38394 0.0
H167 H 0.90313 0.74515 0.37019 0.0
H168 H 0.86877 0.72243 0.38283 0.0
H169 H 0.88801 0.67409 0.53179 0.0
H170 H 0.79977 0.65731 0.53153 0.0
H171 H 0.80424 0.67951 0.49389 0.0
H172 H 0.88152 0.65167 0.47264 0.0
H173 H 0.91364 0.66749 0.49315 0.0
H174 H 0.9158 0.678 0.46303 0.0
H175 H 0.91718 0.74132 0.51283 0.0
H176 H 0.94091 0.7441 0.4912 0.0
H177 H 0.9348 0.71848 0.51438 0.0
H178 H 0.99869 0.74266 0.4435 0.0
C179 C 0.95473 0.73279 0.44768 0.0
C180 C 0.17947 0.22058 0.59867 0.0
C181 C 0.20346 0.2217 0.58841 0.0
C182 C 0.20937 0.23178 0.56546 0.0
C183 C 0.16841 0.241 0.56405 0.0
C184 C 0.16231 0.23017 0.58624 0.0
C185 C 0.13606 0.23026 0.59485 0.0
H186 H 0.02116 0.25191 0.57534 0.0
C187 C 0.14703 0.25059 0.55668 0.0
C188 C 0.12799 0.24414 0.57459 0.0
H189 H 0.04323 0.21363 0.63463 0.0
H190 H 0.08763 0.22391 0.61842 0.0
H191 H 0.08636 0.31069 0.57695 0.0
H192 H 0.04571 0.22521 0.53074 0.0
H193 H 0.06146 0.25906 0.51475 0.0
H194 H 0.03242 0.25217 0.53286 0.0
H195 H 0.06431 0.30604 0.55024 0.0
H196 H 0.10283 0.31898 0.55007 0.0
C197 C 0.14597 0.25204 0.61821 0.0
C198 C 0.11218 0.19588 0.59721 0.0
C199 C 0.15645 0.30218 0.48018 0.0
C200 C 0.14469 0.3198 0.47089 0.0
C201 C 0.12296 0.3218 0.4832 0.0
C202 C 0.11287 0.30604 0.50372 0.0
C203 C 0.12537 0.2891 0.51274 0.0
C204 C 0.14735 0.28817 0.50128 0.0
C205 C 0.16146 0.2734 0.51513 0.0
C206 C 0.14396 0.26505 0.53662 0.0
C207 C 0.12214 0.27335 0.53485 0.0
C208 C 0.19412 0.29828 0.52175 0.0
C209 C 0.15652 0.24396 0.50013 0.0
C210 C 0.03562 0.24567 0.58462 0.0
C211 C 0.02798 0.23052 0.60575 0.0
C212 C 0.04785 0.22385 0.6178 0.0
C213 C 0.07384 0.23008 0.60842 0.0
C214 C 0.08054 0.24359 0.58679 0.0
C215 C 0.06211 0.252 0.57544 0.0
C216 C 0.0746 0.26831 0.55343 0.0
C217 C 0.10195 0.26547 0.55256 0.0
C218 C 0.10512 0.25108 0.57228 0.0
C219 C 0.08231 0.30276 0.55768 0.0
C220 C 0.05239 0.25035 0.53168 0.0
H221 H 0.19752 0.24905 0.53584 0.0
H222 H 0.17418 0.21246 0.61614 0.0
H223 H 0.11497 0.17925 0.58523 0.0
H224 H 0.08984 0.19107 0.59183 0.0
H225 H 0.11296 0.18943 0.61562 0.0
H226 H 0.16826 0.2725 0.61749 0.0
H227 H 0.1467 0.23961 0.63376 0.0
H228 H 0.13197 0.26224 0.62149 0.0
H229 H 0.17298 0.29965 0.47152 0.0
H230 H 0.11416 0.33612 0.47754 0.0
H231 H 0.0962 0.30819 0.51215 0.0
H232 H 0.19731 0.32222 0.52362 0.0
H233 H 0.20805 0.29779 0.50791 0.0
H234 H 0.2027 0.29564 0.53914 0.0
H235 H 0.13382 0.23072 0.49139 0.0
H236 H 0.159 0.22739 0.51092 0.0
H237 H 0.1718 0.25033 0.48596 0.0
H238 H 0.22787 0.2329 0.55727 0.0
C239 C 0.1919 0.24138 0.55318 0.0
C240 C 0.7885 0.8171 0.61925 0.0
C241 C 0.78338 0.78866 0.6083 0.0
C242 C 0.76936 0.77881 0.58508 0.0
C243 C 0.76648 0.82605 0.58399 0.0
C244 C 0.77984 0.83523 0.60691 0.0
C245 C 0.78374 0.86598 0.6163 0.0
H246 H 0.7684 0.9909 0.60016 0.0
C247 C 0.76003 0.8503 0.57646 0.0
C248 C 0.76986 0.87351 0.59552 0.0
H249 H 0.81133 0.97523 0.66042 0.0
H250 H 0.79824 0.92447 0.64208 0.0
H251 H 0.79361 0.96245 0.55971 0.0
H252 H 0.71313 0.92536 0.59304 0.0
H253 H 0.70381 0.90462 0.56488 0.0
H254 H 0.71841 0.94633 0.56718 0.0
H255 H 0.76804 0.97611 0.55671 0.0
H256 H 0.76388 0.94392 0.53768 0.0
C257 C 0.81705 0.88957 0.62096 0.0
C258 C 0.76638 0.8607 0.6385 0.0
C259 C 0.71657 0.84434 0.4922 0.0
C260 C 0.70607 0.86237 0.48145 0.0
C261 C 0.70584 0.88644 0.49571 0.0
C262 C 0.7172 0.89364 0.51947 0.0
C263 C 0.72868 0.87643 0.52956 0.0
C264 C 0.72715 0.85139 0.51638 0.0
C265 C 0.73719 0.83356 0.53134 0.0
C266 C 0.74674 0.85342 0.55505 0.0
C267 C 0.74219 0.87886 0.5536 0.0
C268 C 0.76318 0.83342 0.52025 0.0
C269 C 0.71064 0.8006 0.53312 0.0
C270 C 0.7747 0.97629 0.60939 0.0
C271 C 0.79104 0.98695 0.63162 0.0
C272 C 0.79902 0.96751 0.64314 0.0
C273 C 0.79138 0.93808 0.63244 0.0
C274 C 0.77576 0.92801 0.60987 0.0
C275 C 0.76756 0.94695 0.59877 0.0
C276 C 0.75178 0.93276 0.57456 0.0
C277 C 0.75229 0.90236 0.57284 0.0
C278 C 0.76623 0.89974 0.5936 0.0
C279 C 0.77005 0.95487 0.55606 0.0
C280 C 0.7202 0.92708 0.57472 0.0
H281 H 0.75086 0.78908 0.55502 0.0
H282 H 0.79893 0.82503 0.63719 0.0
H283 H 0.74531 0.83816 0.63592 0.0
H284 H 0.76015 0.87855 0.64217 0.0
H285 H 0.77898 0.85998 0.65452 0.0
H286 H 0.82985 0.88362 0.6089 0.0
H287 H 0.82522 0.8898 0.63948 0.0
H288 H 0.82287 0.91356 0.61734 0.0
H289 H 0.71711 0.82559 0.4821 0.0
H290 H 0.69689 0.89998 0.48846 0.0
H291 H 0.7167 0.91251 0.52907 0.0
H292 H 0.77935 0.85726 0.51582 0.0
H293 H 0.75563 0.81762 0.50361 0.0
H294 H 0.77524 0.8262 0.53237 0.0
H295 H 0.68977 0.80095 0.5321 0.0
H296 H 0.7114 0.79134 0.55032 0.0
H297 H 0.70891 0.78387 0.51844 0.0
H298 H 0.76529 0.75692 0.57633 0.0
C299 C 0.76103 0.79747 0.57279 0.0
C300 C 0.0464 0.82097 0.61096 0.0
C301 C 0.02241 0.79379 0.59963 0.0
C302 C 0.02444 0.78315 0.57657 0.0
C303 C 0.07277 0.82856 0.57579 0.0
C304 C 0.07096 0.8381 0.59872 0.0
C305 C 0.09714 0.86871 0.6079 0.0
H306 H 0.22555 0.99459 0.58915 0.0
C307 C 0.1002 0.85336 0.56751 0.0
C308 C 0.11421 0.87707 0.58621 0.0
H309 H 0.18342 0.97186 0.6544 0.0
H310 H 0.1433 0.92433 0.63454 0.0
H311 H 0.20846 0.91953 0.56918 0.0
H312 H 0.17499 0.98107 0.55754 0.0
H313 H 0.15934 0.9525 0.53321 0.0
H314 H 0.19859 0.97768 0.53761 0.0
H315 H 0.22774 0.958 0.55916 0.0
H316 H 0.20487 0.92511 0.53862 0.0
C317 C 0.11343 0.86288 0.62882 0.0
C318 C 0.08663 0.89201 0.61445 0.0
C319 C 0.13416 0.84261 0.48638 0.0
C320 C 0.15512 0.86496 0.47263 0.0
C321 C 0.16874 0.89679 0.48139 0.0
C322 C 0.16473 0.90574 0.50399 0.0
C323 C 0.14586 0.88302 0.51796 0.0
C324 C 0.12907 0.85248 0.50849 0.0
C325 C 0.1048 0.83364 0.52395 0.0
C326 C 0.11267 0.85719 0.54538 0.0
C327 C 0.13747 0.88569 0.54187 0.0
C328 C 0.10673 0.80498 0.53073 0.0
C329 C 0.0752 0.82514 0.5104 0.0
C330 C 0.20791 0.97891 0.59916 0.0
C331 C 0.20771 0.98643 0.62338 0.0
C332 C 0.18399 0.96623 0.63575 0.0
C333 C 0.16078 0.93869 0.62417 0.0
C334 C 0.16119 0.93141 0.5999 0.0
C335 C 0.1845 0.95132 0.5878 0.0
C336 C 0.18082 0.94011 0.56195 0.0
C337 C 0.15202 0.90933 0.56091 0.0
C338 C 0.14064 0.90468 0.58308 0.0
C339 C 0.20681 0.93538 0.55681 0.0
C340 C 0.17843 0.96402 0.54671 0.0
H341 H 0.05009 0.79145 0.54704 0.0
H342 H 0.04589 0.82916 0.62896 0.0
H343 H 0.06891 0.88891 0.6012 0.0
H344 H 0.10391 0.91665 0.61439 0.0
H345 H 0.07784 0.88836 0.63214 0.0
H346 H 0.10934 0.83857 0.62725 0.0
H347 H 0.10625 0.86666 0.64617 0.0
H348 H 0.13749 0.87766 0.62926 0.0
H349 H 0.12217 0.81804 0.48071 0.0
H350 H 0.18286 0.91524 0.47089 0.0
H351 H 0.17635 0.93012 0.50974 0.0
H352 H 0.12938 0.81222 0.53789 0.0
H353 H 0.1008 0.78799 0.51499 0.0
H354 H 0.09218 0.79281 0.54459 0.0
H355 H 0.07807 0.84179 0.49694 0.0
H356 H 0.05984 0.82652 0.52224 0.0
H357 H 0.0646 0.80145 0.50087 0.0
H358 H 0.00631 0.76194 0.56763 0.0
C359 C 0.04961 0.80041 0.56459 0.0
C360 C 0.88848 0.52991 0.73184 0.0
C361 C 0.89194 0.55778 0.74256 0.0
C362 C 0.90496 0.56782 0.76609 0.0
C363 C 0.91021 0.522 0.76785 0.0
C364 C 0.89783 0.51262 0.74463 0.0
C365 C 0.8959 0.48272 0.73543 0.0
H366 H 0.91309 0.35967 0.75513 0.0
C367 C 0.91781 0.49869 0.77587 0.0
C368 C 0.90972 0.47589 0.75667 0.0
H369 H 0.8756 0.37509 0.69138 0.0
H370 H 0.88698 0.42589 0.70889 0.0
H371 H 0.96761 0.4237 0.76227 0.0
H372 H 0.88602 0.38798 0.7933 0.0
H373 H 0.91501 0.40655 0.81598 0.0
H374 H 0.91164 0.37453 0.79733 0.0
H375 H 0.9625 0.40617 0.78978 0.0
H376 H 0.97636 0.44754 0.78893 0.0
C377 C 0.91434 0.48921 0.71381 0.0
C378 C 0.86308 0.45787 0.72991 0.0
C379 C 0.95745 0.50374 0.86184 0.0
C380 C 0.9673 0.48526 0.87278 0.0
C381 C 0.97006 0.46303 0.85837 0.0
C382 C 0.96058 0.45692 0.83427 0.0
C383 C 0.94858 0.47352 0.82399 0.0
C384 C 0.94847 0.49761 0.83724 0.0
C385 C 0.93835 0.51509 0.82182 0.0
C386 C 0.93052 0.4959 0.79782 0.0
C387 C 0.93609 0.4712 0.7996 0.0
C388 C 0.96439 0.54857 0.82097 0.0
C389 C 0.91129 0.51389 0.8319 0.0
C390 C 0.90742 0.37413 0.74501 0.0
C391 C 0.8933 0.3635 0.72201 0.0
C392 C 0.88661 0.38298 0.70913 0.0
C393 C 0.89306 0.41231 0.71942 0.0
C394 C 0.90637 0.42225 0.74283 0.0
C395 C 0.91383 0.40345 0.75499 0.0
C396 C 0.92847 0.41788 0.7794 0.0
C397 C 0.92745 0.44798 0.78035 0.0
C398 C 0.91442 0.45036 0.75897 0.0
C399 C 0.96031 0.42405 0.78032 0.0
C400 C 0.90951 0.39569 0.7976 0.0
H401 H 0.92326 0.55848 0.79682 0.0
H402 H 0.87887 0.52184 0.71369 0.0
H403 H 0.84962 0.46094 0.74308 0.0
H404 H 0.85855 0.43378 0.73113 0.0
H405 H 0.85472 0.4597 0.71202 0.0
H406 H 0.93404 0.51296 0.71627 0.0
H407 H 0.90147 0.48778 0.69719 0.0
H408 H 0.92305 0.47326 0.71133 0.0
H409 H 0.95623 0.52194 0.87219 0.0
H410 H 0.97928 0.44985 0.86587 0.0
H411 H 0.96258 0.43907 0.82466 0.0
H412 H 0.98549 0.54873 0.82154 0.0
H413 H 0.96568 0.56421 0.83632 0.0
H414 H 0.96339 0.55877 0.80432 0.0
H415 H 0.8952 0.48963 0.83551 0.0
H416 H 0.89962 0.52122 0.81946 0.0
H417 H 0.91758 0.52896 0.84884 0.0
H418 H 0.90776 0.58925 0.77469 0.0
C419 C 0.91393 0.54997 0.77886 0.0
C420 C 0.62264 0.52468 0.73338 0.0
C421 C 0.64702 0.55227 0.74381 0.0
C422 C 0.64617 0.56338 0.76707 0.0
C423 C 0.59671 0.51996 0.76865 0.0
C424 C 0.59801 0.50898 0.74602 0.0
C425 C 0.57101 0.47867 0.73754 0.0
H426 H 0.44029 0.35785 0.75868 0.0
C427 C 0.5677 0.49781 0.77668 0.0
C428 C 0.55275 0.4736 0.75839 0.0
H429 H 0.48811 0.36878 0.69695 0.0
H430 H 0.52542 0.42038 0.71313 0.0
H431 H 0.49679 0.38979 0.79879 0.0
H432 H 0.44697 0.42315 0.76114 0.0
H433 H 0.46148 0.44776 0.78762 0.0
H434 H 0.43655 0.4065 0.78881 0.0
H435 H 0.45888 0.37701 0.80159 0.0
H436 H 0.4873 0.41071 0.81915 0.0
C437 C 0.5799 0.4534 0.734 0.0
C438 C 0.55672 0.48371 0.71486 0.0
C439 C 0.53793 0.51468 0.85851 0.0
C440 C 0.51151 0.49827 0.86925 0.0
C441 C 0.4873 0.47278 0.85624 0.0
C442 C 0.48949 0.46281 0.83327 0.0
C443 C 0.51617 0.47854 0.82301 0.0
C444 C 0.53959 0.5047 0.83517 0.0
C445 C 0.56545 0.51949 0.8204 0.0
C446 C 0.55382 0.49734 0.79777 0.0
C447 C 0.52513 0.47303 0.79981 0.0
C448 C 0.59159 0.51918 0.83358 0.0
C449 C 0.57139 0.55249 0.81581 0.0
C450 C 0.45889 0.3715 0.74877 0.0
C451 C 0.4615 0.3594 0.72664 0.0
C452 C 0.48567 0.37782 0.71399 0.0
C453 C 0.50737 0.40767 0.72351 0.0
C454 C 0.50489 0.41927 0.74595 0.0
C455 C 0.48068 0.4015 0.75799 0.0
C456 C 0.4813 0.41805 0.78123 0.0
C457 C 0.51061 0.44809 0.78166 0.0
C458 C 0.5243 0.44853 0.76102 0.0
C459 C 0.48092 0.39794 0.80138 0.0
C460 C 0.45521 0.4241 0.77983 0.0
H461 H 0.62176 0.55702 0.79711 0.0
H462 H 0.62295 0.51504 0.71585 0.0
H463 H 0.55883 0.50718 0.71634 0.0
H464 H 0.53295 0.46713 0.71186 0.0
H465 H 0.56736 0.48206 0.69887 0.0
H466 H 0.59913 0.45868 0.74639 0.0
H467 H 0.58585 0.4519 0.71564 0.0
H468 H 0.5627 0.43005 0.73802 0.0
H469 H 0.55683 0.53446 0.86817 0.0
H470 H 0.46689 0.45979 0.86428 0.0
H471 H 0.47044 0.44276 0.82458 0.0
H472 H 0.58421 0.4965 0.84124 0.0
H473 H 0.60196 0.53796 0.84839 0.0
H474 H 0.60844 0.52175 0.82176 0.0
H475 H 0.55048 0.55227 0.81193 0.0
H476 H 0.58376 0.56148 0.80021 0.0
H477 H 0.58342 0.56929 0.8316 0.0
H478 H 0.66488 0.58448 0.77556 0.0
C479 C 0.62111 0.54747 0.7795 0.0
C480 C 0.63206 0.09839 0.74243 0.0
C481 C 0.65471 0.09467 0.75246 0.0
C482 C 0.65126 0.08046 0.7739 0.0
C483 C 0.60269 0.07385 0.77488 0.0
C484 C 0.60655 0.08822 0.75399 0.0
C485 C 0.58146 0.09269 0.74642 0.0
H486 H 0.4544 0.08461 0.7693 0.0
C487 C 0.57367 0.06652 0.78233 0.0
C488 C 0.56137 0.07781 0.76577 0.0
H489 H 0.50729 0.12486 0.71115 0.0
H490 H 0.54055 0.10823 0.7249 0.0
H491 H 0.45547 0.0224 0.76399 0.0
H492 H 0.5083 0.10526 0.81113 0.0
H493 H 0.49454 0.07205 0.8274 0.0
H494 H 0.46944 0.08031 0.81141 0.0
H495 H 0.44351 0.02803 0.79193 0.0
H496 H 0.46573 0.00996 0.78937 0.0
C497 C 0.56771 0.07436 0.7218 0.0
C498 C 0.5931 0.12832 0.74698 0.0
C499 C 0.53654 0.01194 0.85739 0.0
C500 C 0.51026 1.00199 0.86808 0.0
C501 C 0.4877 0.00489 0.85652 0.0
C502 C 0.49172 0.01892 0.83511 0.0
C503 C 0.51858 0.03013 0.82516 0.0
C504 C 0.5401 0.02562 0.83581 0.0
C505 C 0.56679 0.03809 0.8221 0.0
C506 C 0.55782 0.05115 0.80167 0.0
C507 C 0.5298 0.047 0.80391 0.0
C508 C 0.5706 0.01037 0.81348 0.0
C509 C 0.5932 0.06404 0.83823 0.0
C510 C 0.47321 0.08982 0.7596 0.0
C511 C 0.4788 0.10701 0.73957 0.0
C512 C 0.50313 0.11276 0.72714 0.0
C513 C 0.52231 0.10282 0.73506 0.0
C514 C 0.51709 0.08671 0.75557 0.0
C515 C 0.49258 0.07988 0.76724 0.0
C516 C 0.49015 0.06144 0.7882 0.0
C517 C 0.518 0.05969 0.78773 0.0
C518 C 0.53365 0.07471 0.76867 0.0
C519 C 0.46224 0.02881 0.78334 0.0
C520 C 0.49048 0.08054 0.81083 0.0
H521 H 0.62383 0.05926 0.80143 0.0
H522 H 0.6345 0.10984 0.72621 0.0
H523 H 0.61235 0.14177 0.76024 0.0
H524 H 0.57703 0.13481 0.7526 0.0
H525 H 0.60001 0.13707 0.72942 0.0
H526 H 0.56788 0.05202 0.72061 0.0
H527 H 0.58007 0.08803 0.70728 0.0
H528 H 0.54445 0.06747 0.71833 0.0
H529 H 0.55425 0.01009 0.86607 0.0
H530 H 0.46749 0.99771 0.8647 0.0
H531 H 0.47407 0.02132 0.8275 0.0
H532 H 0.54902 0.98949 0.80743 0.0
H533 H 0.5809 0.0039 0.82802 0.0
H534 H 0.58363 0.01503 0.79804 0.0
H535 H 0.58642 0.07808 0.84933 0.0
H536 H 0.61058 0.08104 0.82808 0.0
H537 H 0.60274 0.05395 0.85041 0.0
H538 H 0.66869 0.07759 0.78192 0.0
C539 C 0.62525 0.06985 0.78512 0.0
C540 C 0.84882 0.56171 0.93768 0.0
C541 C 0.8734 0.56387 0.92766 0.0
C542 C 0.87834 0.5723 0.90423 0.0
C543 C 0.83581 0.57859 0.90196 0.0
C544 C 0.83056 0.56939 0.92465 0.0
C545 C 0.8041 0.56932 0.93306 0.0
H546 H 0.6869 0.5862 0.90979 0.0
C547 C 0.81361 0.58658 0.89391 0.0
C548 C 0.7951 0.58139 0.91206 0.0
H549 H 0.7108 0.55439 0.97232 0.0
H550 H 0.75553 0.56441 0.95661 0.0
H551 H 0.74951 0.64567 0.90956 0.0
H552 H 0.71169 0.55717 0.86784 0.0
H553 H 0.72608 0.58941 0.85009 0.0
H554 H 0.69729 0.58319 0.86822 0.0
H555 H 0.7295 0.63893 0.88131 0.0
H556 H 0.76824 0.65246 0.88376 0.0
C557 C 0.81394 0.59237 0.95569 0.0
C558 C 0.78096 0.53511 0.93662 0.0
C559 C 0.81794 0.62798 0.81364 0.0
C560 C 0.80637 0.64535 0.80362 0.0
C561 C 0.78547 0.64901 0.81588 0.0
C562 C 0.77629 0.6354 0.83732 0.0
C563 C 0.78897 0.61909 0.8472 0.0
C564 C 0.81011 0.61655 0.83568 0.0
C565 C 0.82558 0.60422 0.85071 0.0
C566 C 0.80938 0.59856 0.87284 0.0
C567 C 0.78724 0.60624 0.87041 0.0
C568 C 0.8583 0.63003 0.85555 0.0
C569 C 0.82049 0.5734 0.83792 0.0
C570 C 0.70196 0.58174 0.92015 0.0
C571 C 0.69497 0.56884 0.94215 0.0
C572 C 0.71526 0.56352 0.95509 0.0
C573 C 0.74133 0.56945 0.94597 0.0
C574 C 0.74751 0.58111 0.92366 0.0
C575 C 0.72849 0.58792 0.91133 0.0
C576 C 0.74011 0.60217 0.88853 0.0
C577 C 0.76775 0.59993 0.88842 0.0
C578 C 0.77184 0.58765 0.90911 0.0
C579 C 0.7471 0.63652 0.89071 0.0
C580 C 0.71762 0.582 0.86744 0.0
H581 H 0.86453 0.58593 0.87357 0.0
H582 H 0.84393 0.55432 0.95538 0.0
H583 H 0.78281 0.51833 0.92404 0.0
H584 H 0.75824 0.52998 0.93287 0.0
H585 H 0.78374 0.52928 0.9549 0.0
H586 H 0.83615 0.61277 0.95456 0.0
H587 H 0.81482 0.58097 0.97185 0.0
H588 H 0.79979 0.60256 0.95819 0.0
H589 H 0.83389 0.62428 0.80508 0.0
H590 H 0.77689 0.66329 0.80961 0.0
H591 H 0.76041 0.63891 0.84585 0.0
H592 H 0.86157 0.65368 0.8534 0.0
H593 H 0.87208 0.62627 0.84316 0.0
H594 H 0.86714 0.63167 0.87405 0.0
H595 H 0.79724 0.55853 0.83071 0.0
H596 H 0.82493 0.55909 0.84988 0.0
H597 H 0.83431 0.57806 0.82282 0.0
H598 H 0.89705 0.57384 0.89609 0.0
C599 C 0.8596 0.57956 0.89129 0.0
C600 C 0.45138 0.14333 0.95245 0.0
C601 C 0.44414 0.11361 0.94248 0.0
C602 C 0.42741 0.10241 0.92023 0.0
C603 C 0.42736 0.15105 0.91773 0.0
C604 C 0.44274 0.16142 0.93993 0.0
C605 C 0.44868 0.19336 0.94834 0.0
H606 H 0.43528 0.31907 0.93023 0.0
C607 C 0.42242 0.17604 0.90937 0.0
C608 C 0.4347 0.20069 0.9275 0.0
H609 H 0.4768 0.30383 0.99166 0.0
H610 H 0.46561 0.25367 0.9731 0.0
H611 H 0.46293 0.29637 0.89306 0.0
H612 H 0.37954 0.24929 0.92162 0.0
H613 H 0.37324 0.23831 0.89092 0.0
H614 H 0.38909 0.27888 0.90136 0.0
H615 H 0.43288 0.30064 0.8821 0.0
H616 H 0.43874 0.27016 0.86968 0.0
C617 C 0.4823 0.21557 0.95165 0.0
C618 C 0.43284 0.19065 0.97116 0.0
C619 C 0.3733 0.16609 0.8263 0.0
C620 C 0.36653 0.18637 0.81451 0.0
C621 C 0.374 0.21535 0.82635 0.0
C622 C 0.38744 0.22394 0.84951 0.0
C623 C 0.39381 0.20351 0.8612 0.0
C624 C 0.38683 0.17509 0.84971 0.0
C625 C 0.39537 0.15661 0.86538 0.0
C626 C 0.40912 0.179 0.88781 0.0
C627 C 0.40794 0.20632 0.8851 0.0
C628 C 0.41789 0.15094 0.85307 0.0
C629 C 0.36721 0.12636 0.87001 0.0
C630 C 0.44158 0.30466 0.93975 0.0
C631 C 0.45645 0.31496 0.96255 0.0
C632 C 0.46515 0.29613 0.97413 0.0
C633 C 0.45855 0.26704 0.96332 0.0
C634 C 0.44331 0.25681 0.94058 0.0
C635 C 0.43534 0.2757 0.92914 0.0
C636 C 0.42019 0.26164 0.9048 0.0
C637 C 0.41975 0.2308 0.90368 0.0
C638 C 0.43321 0.22808 0.92467 0.0
C639 C 0.43939 0.28324 0.88634 0.0
C640 C 0.38891 0.25687 0.9044 0.0
H641 H 0.40679 0.11132 0.89085 0.0
H642 H 0.46408 0.15266 0.96949 0.0
H643 H 0.41195 0.16799 0.97034 0.0
H644 H 0.42635 0.20848 0.97366 0.0
H645 H 0.44659 0.19206 0.9872 0.0
H646 H 0.49329 0.20931 0.93795 0.0
H647 H 0.49152 0.21429 0.96935 0.0
H648 H 0.48888 0.24011 0.94937 0.0
H649 H 0.36792 0.1437 0.8176 0.0
H650 H 0.36973 0.23169 0.8175 0.0
H651 H 0.39242 0.24632 0.85737 0.0
H652 H 0.4347 0.17274 0.8461 0.0
H653 H 0.40705 0.1328 0.83786 0.0
H654 H 0.43004 0.14387 0.86521 0.0
H655 H 0.34872 0.13076 0.87179 0.0
H656 H 0.36943 0.11712 0.88683 0.0
H657 H 0.36061 0.10799 0.85515 0.0
H658 H 0.42062 0.07919 0.91242 0.0
C659 C 0.41917 0.12101 0.90777 0.0
C660 C 0.71089 0.1445 0.94855 0.0
C661 C 0.69311 0.11258 0.94085 0.0
C662 C 0.70152 0.10076 0.92127 0.0
C663 C 0.74205 0.15255 0.91642 0.0
C664 C 0.73543 0.16349 0.93674 0.0
C665 C 0.75833 0.19641 0.9451 0.0
H666 H 0.87985 0.33016 0.92564 0.0
C667 C 0.76811 0.17919 0.90773 0.0
C668 C 0.77775 0.20477 0.92481 0.0
H669 H 0.83749 0.30581 0.99062 0.0
H670 H 0.80036 0.25572 0.97128 0.0
H671 H 0.87405 0.26069 0.91046 0.0
H672 H 0.82675 0.30688 0.89204 0.0
H673 H 0.81543 0.27695 0.86897 0.0
H674 H 0.85339 0.30743 0.87362 0.0
H675 H 0.88775 0.29694 0.89705 0.0
H676 H 0.86893 0.26065 0.87919 0.0
C677 C 0.77433 0.19587 0.96874 0.0
C678 C 0.74365 0.21656 0.94717 0.0
C679 C 0.80615 0.17221 0.82711 0.0
C680 C 0.8251 0.19567 0.81294 0.0
C681 C 0.83555 0.22714 0.82116 0.0
C682 C 0.82998 0.23524 0.84345 0.0
C683 C 0.81288 0.21183 0.85779 0.0
C684 C 0.79951 0.18095 0.84905 0.0
C685 C 0.77751 0.16001 0.86544 0.0
C686 C 0.7818 0.18352 0.88603 0.0
C687 C 0.80355 0.21364 0.88156 0.0
C688 C 0.78592 0.13604 0.87334 0.0
C689 C 0.74678 0.14502 0.85202 0.0
C690 C 0.86265 0.31373 0.93564 0.0
C691 C 0.86146 0.32145 0.9596 0.0
C692 C 0.83883 0.29993 0.9722 0.0
C693 C 0.81748 0.27088 0.96098 0.0
C694 C 0.81921 0.2631 0.93708 0.0
C695 C 0.84157 0.28436 0.92484 0.0
C696 C 0.84016 0.27198 0.89969 0.0
C697 C 0.8144 0.23887 0.89944 0.0
C698 C 0.80192 0.23418 0.92114 0.0
C699 C 0.86923 0.27256 0.89625 0.0
C700 C 0.83374 0.29179 0.88263 0.0
H701 H 0.73068 0.11025 0.89415 0.0
H702 H 0.70607 0.15492 0.9636 0.0
H703 H 0.72872 0.21196 0.931 0.0
H704 H 0.75961 0.24183 0.94882 0.0
H705 H 0.73056 0.21121 0.96277 0.0
H706 H 0.77018 0.17207 0.97172 0.0
H707 H 0.76716 0.20398 0.98431 0.0
H708 H 0.79845 0.21024 0.96887 0.0
H709 H 0.79703 0.14772 0.82179 0.0
H710 H 0.84836 0.24595 0.81041 0.0
H711 H 0.83925 0.25954 0.84869 0.0
H712 H 0.80992 0.14756 0.87806 0.0
H713 H 0.77986 0.11732 0.85887 0.0
H714 H 0.77553 0.12523 0.88934 0.0
H715 H 0.74362 0.16305 0.84367 0.0
H716 H 0.72898 0.13378 0.86367 0.0
H717 H 0.74392 0.12733 0.83768 0.0
H718 H 0.69012 0.07611 0.91567 0.0
C719 C 0.72547 0.1206 0.90883 0.0
C720 C 0.55661 0.8578 0.06388 0.0
C721 C 0.55985 0.8857 0.07439 0.0
C722 C 0.57368 0.8964 0.09771 0.0
C723 C 0.57912 0.85083 0.09993 0.0
C724 C 0.56636 0.84092 0.07684 0.0
C725 C 0.564 0.81061 0.06817 0.0
H726 H 0.57875 0.68673 0.09032 0.0
C727 C 0.58636 0.8275 0.10844 0.0
C728 C 0.57777 0.8041 0.08965 0.0
H729 H 0.54212 0.70178 0.02587 0.0
H730 H 0.55459 0.75323 0.04257 0.0
H731 H 0.63423 0.75133 0.0975 0.0
H732 H 0.5517 0.716 0.12706 0.0
H733 H 0.57986 0.73546 0.15024 0.0
H734 H 0.57729 0.70288 0.13279 0.0
H735 H 0.62765 0.73232 0.12442 0.0
H736 H 0.64245 0.77397 0.12469 0.0
C737 C 0.58223 0.81625 0.04649 0.0
C738 C 0.53106 0.78599 0.06295 0.0
C739 C 0.62729 0.83562 0.19445 0.0
C740 C 0.637 0.81747 0.20616 0.0
C741 C 0.63719 0.79286 0.19269 0.0
C742 C 0.62666 0.78529 0.16877 0.0
C743 C 0.61597 0.8026 0.15766 0.0
C744 C 0.61732 0.82802 0.17008 0.0
C745 C 0.60754 0.84529 0.15413 0.0
C746 C 0.59883 0.82497 0.13062 0.0
C747 C 0.60341 0.79971 0.13315 0.0
C748 C 0.63404 0.87824 0.15236 0.0
C749 C 0.58108 0.84543 0.16428 0.0
C750 C 0.57346 0.70122 0.07988 0.0
C751 C 0.55907 0.69022 0.05697 0.0
C752 C 0.55313 0.70987 0.04361 0.0
C753 C 0.56022 0.7396 0.05343 0.0
C754 C 0.57344 0.74977 0.07684 0.0
C755 C 0.58037 0.73089 0.08943 0.0
C756 C 0.59473 0.74553 0.11388 0.0
C757 C 0.59442 0.77598 0.11423 0.0
C758 C 0.58182 0.77826 0.09257 0.0
C759 C 0.62633 0.75097 0.1154 0.0
C760 C 0.57511 0.72394 0.1321 0.0
H761 H 0.59312 0.88822 0.12827 0.0
H762 H 0.54609 0.84886 0.04606 0.0
H763 H 0.51787 0.78959 0.07611 0.0
H764 H 0.52626 0.76186 0.06445 0.0
H765 H 0.5226 0.78756 0.04501 0.0
H766 H 0.60187 0.84005 0.04843 0.0
H767 H 0.56917 0.81408 0.02976 0.0
H768 H 0.59104 0.80033 0.04455 0.0
H769 H 0.62693 0.85485 0.20398 0.0
H770 H 0.6455 0.77916 0.20071 0.0
H771 H 0.62707 0.76597 0.15991 0.0
H772 H 0.65481 0.8777 0.15294 0.0
H773 H 0.63606 0.89479 0.16731 0.0
H774 H 0.63299 0.88778 0.13537 0.0
H775 H 0.56494 0.82172 0.16896 0.0
H776 H 0.56912 0.85201 0.1515 0.0
H777 H 0.58809 0.86169 0.18063 0.0
H778 H 0.5772 0.91825 0.10606 0.0
C779 C 0.58316 0.87908 0.11054 0.0
C780 C 0.29309 0.85298 0.07162 0.0
C781 C 0.31083 0.88559 0.07574 0.0
C782 C 0.30452 0.90087 0.0944 0.0
C783 C 0.26283 0.8517 0.10294 0.0
C784 C 0.26886 0.83694 0.08458 0.0
C785 C 0.24553 0.80339 0.07924 0.0
H786 H 0.11233 0.68392 0.0965 0.0
C787 C 0.23506 0.82825 0.11198 0.0
C788 C 0.22452 0.80023 0.09753 0.0
H789 H 0.17049 0.68749 0.04437 0.0
H790 H 0.20713 0.73916 0.06092 0.0
H791 H 0.16408 0.7156 0.14015 0.0
H792 H 0.12322 0.75226 0.09458 0.0
H793 H 0.1278 0.76988 0.12343 0.0
H794 H 0.105 0.72811 0.11774 0.0
H795 H 0.12794 0.70883 0.14355 0.0
H796 H 0.15999 0.74288 0.15793 0.0
C797 C 0.25946 0.78293 0.08387 0.0
C798 C 0.23182 0.79914 0.0534 0.0
C799 C 0.20012 0.8511 0.18912 0.0
C800 C 0.17482 0.83325 0.20088 0.0
C801 C 0.15262 0.80442 0.18978 0.0
C802 C 0.15595 0.79271 0.16785 0.0
C803 C 0.18174 0.81005 0.1567 0.0
C804 C 0.20293 0.83924 0.16684 0.0
C805 C 0.22771 0.85512 0.15114 0.0
C806 C 0.2192 0.82936 0.13129 0.0
C807 C 0.19221 0.80303 0.13477 0.0
C808 C 0.25683 0.86372 0.1653 0.0
C809 C 0.22702 0.88359 0.14189 0.0
C810 C 0.13296 0.69603 0.08865 0.0
C811 C 0.13847 0.682 0.06887 0.0
C812 C 0.1658 0.69798 0.05952 0.0
C813 C 0.18692 0.72806 0.06908 0.0
C814 C 0.18071 0.74236 0.08823 0.0
C815 C 0.15439 0.7261 0.09807 0.0
C816 C 0.15229 0.74456 0.11908 0.0
C817 C 0.18106 0.77518 0.11941 0.0
C818 C 0.19745 0.77369 0.10123 0.0
C819 C 0.15078 0.72718 0.14142 0.0
C820 C 0.12561 0.74888 0.11368 0.0
H821 H 0.27733 0.89693 0.12212 0.0
H822 H 0.29753 0.8398 0.05836 0.0
H823 H 0.23336 0.82112 0.04804 0.0
H824 H 0.20814 0.78199 0.05114 0.0
H825 H 0.24312 0.79222 0.04051 0.0
H826 H 0.27571 0.79295 0.0997 0.0
H827 H 0.271 0.78139 0.06847 0.0
H828 H 0.24336 0.75912 0.08794 0.0
H829 H 0.21734 0.87352 0.19724 0.0
H830 H 0.13309 0.79032 0.19859 0.0
H831 H 0.13846 0.77029 0.1606 0.0
H832 H 0.25504 0.84303 0.17351 0.0
H833 H 0.26261 0.88238 0.17974 0.0
H834 H 0.27524 0.87193 0.15402 0.0
H835 H 0.20458 0.88023 0.14119 0.0
H836 H 0.23313 0.88722 0.12344 0.0
H837 H 0.24162 0.90525 0.15354 0.0
H838 H 0.31749 0.92593 0.0982 0.0
C839 C 0.28093 0.88408 0.10817 0.0
C840 C 0.3029 0.4459 0.08347 0.0
C841 C 0.32602 0.44253 0.09295 0.0
C842 C 0.32374 0.42998 0.11511 0.0
C843 C 0.2756 0.42441 0.11756 0.0
C844 C 0.27828 0.43698 0.09596 0.0
C845 C 0.25234 0.43968 0.0879 0.0
H846 H 0.11477 0.40811 0.1005 0.0
C847 C 0.24625 0.41613 0.12502 0.0
C848 C 0.23265 0.42491 0.10745 0.0
H849 H 0.17361 0.46364 0.04972 0.0
H850 H 0.21084 0.45466 0.06665 0.0
H851 H 0.12839 0.35582 0.10102 0.0
H852 H 0.1667 0.44138 0.14616 0.0
H853 H 0.15688 0.40999 0.16388 0.0
H854 H 0.12913 0.41082 0.14495 0.0
H855 H 0.11231 0.35871 0.12744 0.0
H856 H 0.13998 0.34751 0.12791 0.0
C857 C 0.23907 0.42035 0.06355 0.0
C858 C 0.26245 0.4749 0.08762 0.0
C859 C 0.21059 0.36792 0.20322 0.0
C860 C 0.18273 0.35425 0.21217 0.0
C861 C 0.15895 0.35133 0.19749 0.0
C862 C 0.16289 0.36351 0.17544 0.0
C863 C 0.19083 0.37838 0.16737 0.0
C864 C 0.21392 0.37913 0.18051 0.0
C865 C 0.24091 0.39186 0.16694 0.0
C866 C 0.23066 0.40103 0.14463 0.0
C867 C 0.20135 0.39348 0.1454 0.0
C868 C 0.24721 0.3651 0.16124 0.0
C869 C 0.26634 0.42045 0.18175 0.0
C870 C 0.13572 0.4184 0.09308 0.0
C871 C 0.14076 0.43575 0.07316 0.0
C872 C 0.16853 0.44901 0.06432 0.0
C873 C 0.19044 0.44425 0.0745 0.0
C874 C 0.18499 0.42662 0.09417 0.0
C875 C 0.15821 0.41449 0.10342 0.0
C876 C 0.15715 0.39816 0.12536 0.0
C877 C 0.18781 0.40257 0.12766 0.0
C878 C 0.2037 0.4188 0.10913 0.0
C879 C 0.13315 0.36329 0.12038 0.0
C880 C 0.15207 0.41574 0.1463 0.0
H881 H 0.29828 0.41209 0.14447 0.0
H882 H 0.30368 0.45493 0.06633 0.0
H883 H 0.28291 0.48985 0.09935 0.0
H884 H 0.24636 0.48062 0.0946 0.0
H885 H 0.26677 0.48262 0.06944 0.0
H886 H 0.23866 0.39773 0.06357 0.0
H887 H 0.2522 0.43307 0.04901 0.0
H888 H 0.21618 0.41413 0.05908 0.0
H889 H 0.22945 0.37042 0.21363 0.0
H890 H 0.13699 0.33966 0.20309 0.0
H891 H 0.14391 0.36088 0.16552 0.0
H892 H 0.22649 0.34239 0.15738 0.0
H893 H 0.25988 0.36279 0.17648 0.0
H894 H 0.25899 0.36805 0.14519 0.0
H895 H 0.25895 0.43653 0.18858 0.0
H896 H 0.28489 0.43424 0.17124 0.0
H897 H 0.2745 0.41318 0.19723 0.0
H898 H 0.34139 0.42728 0.12284 0.0
C899 C 0.2987 0.42108 0.12755 0.0
C900 C 0.52408 0.91155 0.27492 0.0
C901 C 0.54892 0.91434 0.26492 0.0
C902 C 0.55682 0.92873 0.24355 0.0
C903 C 0.51464 0.93576 0.24209 0.0
C904 C 0.50709 0.9218 0.26306 0.0
C905 C 0.47874 0.91802 0.27042 0.0
H906 H 0.35564 0.92293 0.24408 0.0
C907 C 0.4917 0.94276 0.23402 0.0
C908 C 0.47049 0.9321 0.2504 0.0
H909 H 0.38052 0.89238 0.30682 0.0
H910 H 0.42737 0.90763 0.2928 0.0
H911 H 0.4194 0.98752 0.24596 0.0
H912 H 0.38467 0.89856 0.20517 0.0
H913 H 0.40163 0.92873 0.18632 0.0
H914 H 0.37048 0.92427 0.20082 0.0
H915 H 0.39226 0.97552 0.2213 0.0
H916 H 0.43079 0.99448 0.21718 0.0
C917 C 0.48499 0.93727 0.29466 0.0
C918 C 0.45691 0.88256 0.27059 0.0
C919 C 0.50018 0.99485 0.15779 0.0
C920 C 0.48112 1.00123 0.14436 0.0
C921 C 0.45455 0.99518 0.15316 0.0
C922 C 0.44682 0.98232 0.17499 0.0
C923 C 0.46566 0.97495 0.18789 0.0
C924 C 0.49197 0.98154 0.17929 0.0
C925 C 0.50839 0.9703 0.19436 0.0
C926 C 0.48815 0.9568 0.21387 0.0
C927 C 0.463 0.95935 0.20999 0.0
C928 C 0.53815 0.99891 0.20397 0.0
C929 C 0.51082 0.94485 0.1792 0.0
C930 C 0.37124 0.91951 0.25471 0.0
C931 C 0.36385 0.90515 0.27613 0.0
C932 C 0.38507 0.90196 0.28976 0.0
C933 C 0.41244 0.91112 0.28168 0.0
C934 C 0.419 0.92393 0.25976 0.0
C935 C 0.399 0.92888 0.24696 0.0
C936 C 0.41098 0.94483 0.22482 0.0
C937 C 0.44091 0.94741 0.22614 0.0
C938 C 0.4451 0.9346 0.24648 0.0
C939 C 0.41338 0.97724 0.22718 0.0
C940 C 0.39092 0.92321 0.20302 0.0
H941 H 0.54696 0.95015 0.21589 0.0
H942 H 0.51779 0.90143 0.29164 0.0
H943 H 0.4594 0.8692 0.25539 0.0
H944 H 0.43378 0.87638 0.26849 0.0
H945 H 0.46077 0.87363 0.28718 0.0
H946 H 0.50771 0.95753 0.29691 0.0
H947 H 0.48234 0.92284 0.30971 0.0
H948 H 0.47092 0.94775 0.29632 0.0
H949 H 0.52019 0.99823 0.1509 0.0
H950 H 0.43931 0.99927 0.14265 0.0
H951 H 0.42605 0.97761 0.18058 0.0
H952 H 0.53529 0.01884 0.20996 0.0
H953 H 0.55368 0.00665 0.18997 0.0
H954 H 0.54843 0.99453 0.21962 0.0
H955 H 0.49244 0.9327 0.16502 0.0
H956 H 0.50927 0.92598 0.18969 0.0
H957 H 0.53151 0.95508 0.17039 0.0
H958 H 0.57586 0.93117 0.23545 0.0
C959 C 0.5399 0.93957 0.23215 0.0
C960 C 0.11514 0.47774 0.28831 0.0
C961 C 0.10926 0.44875 0.2778 0.0
C962 C 0.094 0.43804 0.25506 0.0
C963 C 0.09219 0.48584 0.25318 0.0
C964 C 0.10639 0.49575 0.27581 0.0
C965 C 0.11116 0.52714 0.28457 0.0
H966 H 0.10514 0.65642 0.26266 0.0
C967 C 0.08699 0.51065 0.24488 0.0
C968 C 0.09796 0.5348 0.26338 0.0
H969 H 0.13682 0.63749 0.32789 0.0
H970 H 0.12348 0.58593 0.31056 0.0
H971 H 0.13065 0.62548 0.22667 0.0
H972 H 0.04764 0.5926 0.25501 0.0
H973 H 0.03931 0.57287 0.2266 0.0
H974 H 0.05698 0.61494 0.22972 0.0
H975 H 0.10564 0.63861 0.21859 0.0
H976 H 0.10353 0.60488 0.20307 0.0
C977 C 0.14456 0.54991 0.28919 0.0
C978 C 0.09391 0.52323 0.3067 0.0
C979 C 0.04049 0.50104 0.16099 0.0
C980 C 0.03315 0.52083 0.14919 0.0
C981 C 0.03949 0.5494 0.16104 0.0
C982 C 0.0527 0.5582 0.18427 0.0
C983 C 0.05981 0.53831 0.19597 0.0
C984 C 0.05357 0.51014 0.18449 0.0
C985 C 0.06218 0.49189 0.20029 0.0
C986 C 0.07465 0.51389 0.22297 0.0
C987 C 0.07336 0.5411 0.22009 0.0
C988 C 0.08579 0.48752 0.18858 0.0
C989 C 0.03423 0.46097 0.20416 0.0
C990 C 0.10918 0.64107 0.27313 0.0
C991 C 0.12216 0.65081 0.2965 0.0
C992 C 0.12677 0.63024 0.30982 0.0
C993 C 0.1191 0.60045 0.29968 0.0
C994 C 0.10655 0.59115 0.27603 0.0
C995 C 0.10134 0.6112 0.26338 0.0
C996 C 0.08675 0.59711 0.23891 0.0
C997 C 0.08457 0.56545 0.23871 0.0
C998 C 0.09649 0.56219 0.26034 0.0
C999 C 0.10745 0.61752 0.2207 0.0
C1000 C 0.05616 0.59433 0.23724 0.0
H1001 H 0.07436 0.44731 0.22525 0.0
H1002 H 0.12645 0.48629 0.30593 0.0
H1003 H 0.07399 0.49969 0.30571 0.0
H1004 H 0.08558 0.53964 0.30821 0.0
H1005 H 0.10749 0.5261 0.32329 0.0
H1006 H 0.15633 0.54616 0.27481 0.0
H1007 H 0.15327 0.54631 0.30627 0.0
H1008 H 0.15067 0.57465 0.28937 0.0
H1009 H 0.03586 0.47895 0.15224 0.0
H1010 H 0.03454 0.56523 0.15214 0.0
H1011 H 0.05699 0.58033 0.19213 0.0
H1012 H 0.10203 0.50952 0.18146 0.0
H1013 H 0.07582 0.46903 0.17356 0.0
H1014 H 0.0986 0.48173 0.20115 0.0
H1015 H 0.0152 0.46456 0.20538 0.0
H1016 H 0.03606 0.45159 0.22103 0.0
H1017 H 0.02868 0.44299 0.18922 0.0
H1018 H 0.08925 0.41571 0.24669 0.0
C1019 C 0.08553 0.45648 0.24264 0.0
C1020 C 0.37211 0.49347 0.27247 0.0
C1021 C 0.35054 0.46391 0.26214 0.0
C1022 C 0.35414 0.45335 0.23962 0.0
C1023 C 0.40136 0.50058 0.23917 0.0
C1024 C 0.39729 0.51106 0.26096 0.0
C1025 C 0.4229 0.54195 0.2706 0.0
H1026 H 0.55953 0.66067 0.26033 0.0
C1027 C 0.4306 0.52417 0.23265 0.0
C1028 C 0.44327 0.54832 0.25116 0.0
H1029 H 0.5039 0.65021 0.31647 0.0
H1030 H 0.46571 0.60115 0.29667 0.0
H1031 H 0.54355 0.58838 0.25375 0.0
H1032 H 0.51154 0.64173 0.21915 0.0
H1033 H 0.50992 0.61499 0.19683 0.0
H1034 H 0.54486 0.64335 0.2121 0.0
H1035 H 0.56404 0.61713 0.23391 0.0
H1036 H 0.53885 0.57704 0.22319 0.0
C1037 C 0.43561 0.53735 0.29436 0.0
C1038 C 0.41247 0.56605 0.27268 0.0
C1039 C 0.46858 0.50934 0.15471 0.0
C1040 C 0.49534 0.52743 0.14491 0.0
C1041 C 0.51695 0.55553 0.15744 0.0
C1042 C 0.51234 0.56536 0.17953 0.0
C1043 C 0.48574 0.54703 0.1893 0.0
C1044 C 0.46432 0.51952 0.177 0.0
C1045 C 0.43758 0.50315 0.19054 0.0
C1046 C 0.44644 0.52573 0.21269 0.0
C1047 C 0.47472 0.55128 0.21176 0.0
C1048 C 0.43381 0.47131 0.19639 0.0
C1049 C 0.41118 0.5007 0.17549 0.0
C1050 C 0.5392 0.64752 0.26842 0.0
C1051 C 0.53459 0.65901 0.28995 0.0
C1052 C 0.50775 0.64168 0.29982 0.0
C1053 C 0.48568 0.61325 0.28829 0.0
C1054 C 0.49047 0.60209 0.26661 0.0
C1055 C 0.51684 0.61926 0.25701 0.0
C1056 C 0.51768 0.6045 0.23343 0.0
C1057 C 0.48756 0.57543 0.23057 0.0
C1058 C 0.47183 0.57404 0.25008 0.0
C1059 C 0.54238 0.59644 0.23594 0.0
C1060 C 0.52139 0.62721 0.21429 0.0
H1061 H 0.38113 0.46215 0.21111 0.0
H1062 H 0.36965 0.5027 0.28941 0.0
H1063 H 0.39505 0.56086 0.25836 0.0
H1064 H 0.42998 0.59005 0.27044 0.0
H1065 H 0.40336 0.5658 0.28997 0.0
H1066 H 0.43438 0.51429 0.29349 0.0
H1067 H 0.42324 0.53828 0.30935 0.0
H1068 H 0.45903 0.55454 0.2987 0.0
H1069 H 0.45157 0.48769 0.14535 0.0
H1070 H 0.5374 0.5702 0.14996 0.0
H1071 H 0.52972 0.58698 0.18809 0.0
H1072 H 0.45545 0.47322 0.20048 0.0
H1073 H 0.42223 0.45339 0.18115 0.0
H1074 H 0.42206 0.46271 0.21235 0.0
H1075 H 0.4176 0.5228 0.16719 0.0
H1076 H 0.39299 0.49694 0.18612 0.0
H1077 H 0.40286 0.48158 0.16098 0.0
H1078 H 0.3377 0.43071 0.23122 0.0
C1079 C 0.37943 0.47154 0.22807 0.0
Tb1080 Tb 0.53379 0.02194 1.00618 0.0
C1081 C 0.51496 0.95402 0.02249 0.0
Tb1082 Tb 0.46763 0.97343 1.00756 0.0
O1083 O 0.53565 0.04499 0.04124 0.0
O1084 O 0.50486 0.99873 0.03187 0.0
O1085 O 0.53551 0.9799 0.01425 0.0
C1086 C 0.41411 0.94877 0.02303 0.0
O1087 O 0.48754 0.94807 0.02369 0.0
C1088 C 0.48935 0.97536 0.96605 0.0
C1089 C 0.48658 0.04178 0.99227 0.0
O1090 O 0.42253 0.93437 0.00831 0.0
O1091 O 0.43572 0.97684 0.02874 0.0
O1092 O 0.46582 0.95117 0.97209 0.0
O1093 O 0.49647 0.99702 0.98195 0.0
O1094 O 0.46602 0.01576 1.00034 0.0
O1095 O 0.51389 0.0476 0.99064 0.0
C1096 C 0.58677 0.04556 0.98977 0.0
O1097 O 0.57925 0.06012 1.00519 0.0
O1098 O 0.56458 0.01788 0.98394 0.0
C1099 C 0.51203 0.02093 0.04732 0.0
Tb1100 Tb 0.9841 0.51686 1.00577 0.0
C1101 C 0.04913 0.5608 0.0237 0.0
Tb1102 Tb 0.02195 0.48716 0.0152 0.0
O1103 O 0.98456 0.52957 0.04342 0.0
O1104 O 0.99017 0.49211 0.03284 0.0
O1105 O 0.02693 0.55836 0.00994 0.0
C1106 C 0.05674 0.46684 0.03222 0.0
O1107 O 0.05054 0.53596 0.02958 0.0
C1108 C 0.01167 0.49349 0.97054 0.0
C1109 C 0.9547 0.4428 1.00003 0.0
O1110 O 0.06056 0.48207 0.01353 0.0
O1111 O 0.03336 0.46305 0.04139 0.0
O1112 O 0.01582 0.47143 0.97755 0.0
O1113 O 0.01608 0.51229 0.98825 0.0
O1114 O 0.97911 0.44459 0.00944 0.0
O1115 O 0.95234 0.46775 0.99695 0.0
C1116 C 0.95075 0.5342 0.98185 0.0
O1117 O 0.95917 0.54114 1.00438 0.0
O1118 O 0.96109 0.51757 0.97293 0.0
C1119 C 0.99197 0.50979 0.05048 0.0
Tb1120 Tb 0.46994 0.49188 0.01105 0.0
C1121 C 0.48716 0.43992 0.99921 0.0
Tb1122 Tb 0.5369 0.51239 1.00561 0.0
O1123 O 0.46493 0.5044 0.97471 0.0
O1124 O 0.49698 0.49413 0.98425 0.0
O1125 O 0.46663 0.44634 1.00539 0.0
C1126 C 0.58659 0.53191 0.9854 0.0
O1127 O 0.51485 0.46175 0.997 0.0
C1128 C 0.52378 0.50861 0.05035 0.0
C1129 C 0.51964 0.56258 0.02059 0.0
O1130 O 0.57584 0.50953 0.99942 0.0
O1131 O 0.56929 0.54324 0.98274 0.0
O1132 O 0.54985 0.51648 0.0443 0.0
O1133 O 0.5084 0.50378 0.03142 0.0
O1134 O 0.53773 0.55695 0.00866 0.0
O1135 O 0.49404 0.54009 0.02632 0.0
C1136 C 0.42031 0.47194 0.03211 0.0
O1137 O 0.4313 0.49495 0.01871 0.0
O1138 O 0.43662 0.45926 0.0327 0.0
C1139 C 0.48827 0.50461 0.96806 0.0
Tb1140 Tb 0.20143 0.35954 0.33723 0.0
C1141 C 0.18995 0.29939 0.36105 0.0
Tb1142 Tb 0.13815 0.313 0.34789 0.0
O1143 O 0.21422 0.37512 0.3752 0.0
O1144 O 0.17145 0.35793 0.36135 0.0
O1145 O 0.207 0.32085 0.34716 0.0
C1146 C 0.09151 0.27785 0.37142 0.0
O1147 O 0.16334 0.29402 0.36493 0.0
C1148 C 0.15156 0.30593 0.3046 0.0
C1149 C 0.15063 0.37495 0.32544 0.0
O1150 O 0.11861 0.29024 0.3796 0.0
O1151 O 0.09059 0.28512 0.3498 0.0
O1152 O 0.12506 0.29605 0.31026 0.0
O1153 O 0.16788 0.31476 0.32366 0.0
O1154 O 0.13298 0.35234 0.33839 0.0
O1155 O 0.17739 0.38059 0.32176 0.0
C1156 C 0.24865 0.39258 0.31391 0.0
O1157 O 0.24843 0.39205 0.33682 0.0
O1158 O 0.2222 0.3749 0.3042 0.0
C1159 C 0.18776 0.36652 0.38041 0.0
Tb1160 Tb 0.65286 0.85411 0.33771 0.0
C1161 C 0.71633 0.89969 0.35971 0.0
Tb1162 Tb 0.69218 0.82655 0.34974 0.0
O1163 O 0.65402 0.86862 0.3751 0.0
O1164 O 0.65875 0.83037 0.36564 0.0
O1165 O 0.694 0.89705 0.34604 0.0
C1166 C 0.72627 0.80725 0.37011 0.0
O1167 O 0.71871 0.8752 0.36504 0.0
C1168 C 0.68404 0.83236 0.3044 0.0
C1169 C 0.62729 0.78089 0.33003 0.0
O1170 O 0.73388 0.82736 0.3543 0.0
O1171 O 0.69951 0.79816 0.37454 0.0
O1172 O 0.68951 0.81147 0.31211 0.0
O1173 O 0.68621 0.85031 0.32187 0.0
O1174 O 0.65028 0.78352 0.34281 0.0
O1175 O 0.62566 0.80539 0.32378 0.0
C1176 C 0.61968 0.87236 0.31477 0.0
O1177 O 0.61135 0.85313 0.33122 0.0
O1178 O 0.64676 0.8816 0.31146 0.0
C1179 C 0.66013 0.8482 0.38294 0.0
Tb1180 Tb 0.13714 0.82787 0.3423 0.0
C1181 C 0.15596 0.77784 0.32948 0.0
Tb1182 Tb 0.20311 0.85059 0.33522 0.0
O1183 O 0.13158 0.8447 0.30779 0.0
O1184 O 0.16348 0.83352 0.31427 0.0
O1185 O 0.13589 0.78315 0.33848 0.0
C1186 C 0.25289 0.8664 0.31585 0.0
O1187 O 0.18232 0.80052 0.32492 0.0
C1188 C 0.19008 0.84751 0.37953 0.0
C1189 C 0.184 0.89957 0.34918 0.0
O1190 O 0.24156 0.84578 0.33121 0.0
O1191 O 0.23633 0.8783 0.31165 0.0
O1192 O 0.21631 0.86508 0.37323 0.0
O1193 O 0.17388 0.83068 0.36153 0.0
O1194 O 0.2027 0.89445 0.33777 0.0
O1195 O 0.1589 0.87679 0.35528 0.0
C1196 C 0.08716 0.80812 0.36295 0.0
O1197 O 0.11269 0.83093 0.37122 0.0
O1198 O 0.08962 0.79638 0.34263 0.0
C1199 C 0.15454 0.84556 0.29964 0.0
Tb1200 Tb 0.86982 0.69576 0.67124 0.0
C1201 C 0.85323 0.63054 0.68982 0.0
Tb1202 Tb 0.80342 0.6455 0.67463 0.0
O1203 O 0.87942 0.70326 0.70992 0.0
O1204 O 0.8371 0.68629 0.6944 0.0
O1205 O 0.87246 0.65454 0.67899 0.0
C1206 C 0.75225 0.61265 0.69331 0.0
O1207 O 0.82616 0.62451 0.69193 0.0
C1208 C 0.82601 0.64297 0.634 0.0
C1209 C 0.81981 0.7123 0.65817 0.0
O1210 O 0.77782 0.62028 0.70322 0.0
O1211 O 0.75535 0.62334 0.67244 0.0
O1212 O 0.80282 0.61933 0.6411 0.0
O1213 O 0.83244 0.66549 0.64873 0.0
O1214 O 0.7993 0.68574 0.66592 0.0
O1215 O 0.84786 0.72013 0.65801 0.0
C1216 C 0.91994 0.72794 0.65176 0.0
O1217 O 0.90859 0.74011 0.6656 0.0
O1218 O 0.90318 0.69781 0.64921 0.0
C1219 C 0.85201 0.69145 0.71386 0.0
Tb1220 Tb 0.31581 0.18027 0.67064 0.0
C1221 C 0.37825 0.23151 0.69041 0.0
Tb1222 Tb 0.36192 0.1613 0.68202 0.0
O1223 O 0.31107 0.18886 0.70812 0.0
O1224 O 0.32555 0.15839 0.69803 0.0
O1225 O 0.35601 0.22524 0.67482 0.0
C1226 C 0.39991 0.14701 0.70215 0.0
O1227 O 0.38206 0.20909 0.69866 0.0
C1228 C 0.35414 0.16873 0.63699 0.0
C1229 C 0.29776 0.10879 0.66371 0.0
O1230 O 0.40679 0.17117 0.69039 0.0
O1231 O 0.37175 0.13103 0.70254 0.0
O1232 O 0.36403 0.15111 0.64427 0.0
O1233 O 0.35255 0.1838 0.65486 0.0
O1234 O 0.3237 0.1151 0.67339 0.0
O1235 O 0.29046 0.13038 0.66072 0.0
C1236 C 0.27736 0.18987 0.64556 0.0
O1237 O 0.28591 0.17053 0.63914 0.0
O1238 O 0.29037 0.20379 0.6663 0.0
C1239 C 0.32276 0.17293 0.71569 0.0
Tb1240 Tb 0.81017 0.1646 0.68267 0.0
C1241 C 0.82736 0.11361 0.6684 0.0
Tb1242 Tb 0.87551 0.18611 0.67512 0.0
O1243 O 0.80475 0.18229 0.6486 0.0
O1244 O 0.83584 0.16965 0.65442 0.0
O1245 O 0.80747 0.11931 0.67728 0.0
C1246 C 0.92424 0.20103 0.65421 0.0
O1247 O 0.85413 0.13606 0.66454 0.0
C1248 C 0.86259 0.18297 0.71963 0.0
C1249 C 0.85753 0.23587 0.68836 0.0
O1250 O 0.91289 0.1799 0.6692 0.0
O1251 O 0.90854 0.21418 0.65149 0.0
O1252 O 0.88878 0.20078 0.71327 0.0
O1253 O 0.84647 0.16624 0.70159 0.0
O1254 O 0.87502 0.22982 0.67604 0.0
O1255 O 0.83302 0.2136 0.69574 0.0
C1256 C 0.76055 0.14494 0.70344 0.0
O1257 O 0.78627 0.16681 0.71222 0.0
O1258 O 0.76262 0.13418 0.68259 0.0
C1259 C 0.82714 0.18223 0.64011 0.0
C1260 C 0.36202 0.92953 0.07129 0.0
C1261 C 0.33595 0.90328 0.06094 0.0
C1262 C 0.38653 0.94511 0.05837 0.0
C1263 C 0.38663 0.93424 0.03495 0.0
H1264 H 0.36399 0.93773 0.08975 0.0
H1265 H 0.40605 0.96502 0.06724 0.0
S1266 S 0.32306 0.8707 0.99783 0.0
N1267 N 0.3106 0.87103 0.02393 0.0
N1268 N 0.35788 0.89823 1.00087 0.0
C1269 C 0.36064 0.90903 0.02396 0.0
C1270 C 0.3351 0.89404 0.03666 0.0
C1271 C 0.10084 0.44873 0.07667 0.0
C1272 C 0.11774 0.44124 0.06219 0.0
C1273 C 0.08046 0.45612 0.06678 0.0
C1274 C 0.07669 0.45688 0.04212 0.0
H1275 H 0.10393 0.44977 0.09583 0.0
H1276 H 0.06831 0.46231 0.07857 0.0
S1277 S 0.11253 0.43553 0.99619 0.0
N1278 N 0.12666 0.43173 0.02163 0.0
N1279 N 0.08958 0.44738 1.0033 0.0
C1280 C 0.09272 0.44868 0.02739 0.0
C1281 C 0.11294 0.44043 0.03736 0.0
C1282 C 0.55724 0.65116 0.02595 0.0
C1283 C 0.54875 0.65766 0.04768 0.0
C1284 C 0.54795 0.62032 0.01729 0.0
C1285 C 0.52933 0.595 0.02981 0.0
H1286 H 0.57148 0.67007 0.01579 0.0
H1287 H 0.55514 0.61626 1.00058 0.0
S1288 S 0.50085 0.59988 0.08757 0.0
N1289 N 0.52079 0.63649 0.08148 0.0
N1290 N 0.50305 0.57869 0.06521 0.0
C1291 C 0.52055 0.60132 0.05148 0.0
C1292 C 0.53034 0.63262 0.06041 0.0
C1293 C 0.90432 0.35489 0.98905 0.0
C1294 C 0.88361 0.35227 0.97117 0.0
C1295 C 0.92701 0.38427 0.99874 0.0
C1296 C 0.92934 0.41192 0.99116 0.0
H1297 H 0.90345 0.3341 0.99505 0.0
H1298 H 0.94297 0.38529 0.01206 0.0
S1299 S 0.87946 0.41686 0.94502 0.0
N1300 N 0.86623 0.37911 0.94646 0.0
N1301 N 0.90815 0.43432 0.9648 0.0
C1302 C 0.90799 0.40933 0.97371 0.0
C1303 C 0.88534 0.37948 0.96365 0.0
C1304 C 0.65135 0.53083 0.96159 0.0
C1305 C 0.6664 0.55961 0.95166 0.0
C1306 C 0.62556 0.52215 0.97241 0.0
C1307 C 0.6135 0.54165 0.97341 0.0
H1308 H 0.6597 0.51487 0.96115 0.0
H1309 H 0.61497 0.49991 0.98001 0.0
S1310 S 0.64363 0.61906 0.9497 0.0
N1311 N 0.66712 0.60759 0.94351 0.0
N1312 N 0.61784 0.59063 0.96313 0.0
C1313 C 0.62768 0.57006 0.96299 0.0
C1314 C 0.65429 0.57917 0.95223 0.0
C1315 C 0.45303 0.09241 0.97971 0.0
C1316 C 0.45484 0.09497 0.95503 0.0
C1317 C 0.46357 0.07544 0.99184 0.0
C1318 C 0.47684 0.06099 0.97983 0.0
H1319 H 0.44304 0.10326 0.98967 0.0
H1320 H 0.46141 0.07368 0.01072 0.0
S1321 S 0.48566 0.05915 0.91526 0.0
N1322 N 0.47058 0.08098 0.91915 0.0
N1323 N 0.48941 0.04859 0.9418 0.0
C1324 C 0.47842 0.06304 0.95523 0.0
C1325 C 0.46768 0.08014 0.94287 0.0
C1326 C 0.66567 0.10003 0.9779 0.0
C1327 C 0.66638 0.09249 0.95354 0.0
C1328 C 0.64004 0.0846 0.98957 0.0
C1329 C 0.61434 0.05967 0.9779 0.0
H1330 H 0.68495 0.11839 0.98822 0.0
H1331 H 0.64037 0.09226 0.00792 0.0
S1332 S 0.60419 0.02758 0.91524 0.0
N1333 N 0.63802 0.05734 0.91847 0.0
N1334 N 0.59155 0.0257 0.94152 0.0
C1335 C 0.61509 0.05003 0.95426 0.0
C1336 C 0.64064 0.06695 0.94184 0.0
C1337 C 0.90274 0.53733 0.9316 0.0
C1338 C 0.89384 0.55738 0.94164 0.0
C1339 C 0.92141 0.53019 0.94475 0.0
C1340 C 0.93175 0.54283 0.96839 0.0
H1341 H 0.89483 0.52665 0.9136 0.0
H1342 H 0.92748 0.51437 0.9364 0.0
S1343 S 0.91672 0.59843 1.00225 0.0
N1344 N 0.8982 0.59129 0.97611 0.0
N1345 N 0.93288 0.57736 1.00098 0.0
C1346 C 0.92346 0.56332 0.97852 0.0
C1347 C 0.90458 0.57071 0.9651 0.0
C1348 C 0.49252 0.3683 0.98131 0.0
C1349 C 0.4634 0.34568 0.97387 0.0
C1350 C 0.49987 0.39846 0.99009 0.0
C1351 C 0.47832 0.407 0.99205 0.0
H1352 H 0.50985 0.36294 0.97957 0.0
H1353 H 0.52272 0.41533 0.99502 0.0
S1354 S 0.3984 0.35501 0.97652 0.0
N1355 N 0.41269 0.33291 0.97016 0.0
N1356 N 0.42622 0.38943 0.98677 0.0
C1357 C 0.4489 0.38404 0.98549 0.0
C1358 C 0.44153 0.35345 0.97634 0.0
C1359 C 0.12132 0.62675 0.05361 0.0
C1360 C 0.11551 0.65128 0.05733 0.0
C1361 C 0.09985 0.59761 0.04251 0.0
C1362 C 0.07202 0.59219 0.03428 0.0
H1363 H 0.1425 0.63001 0.0596 0.0
H1364 H 0.10515 0.57925 0.04031 0.0
S1365 S 0.04628 0.64932 0.03942 0.0
N1366 N 0.08026 0.66856 0.05175 0.0
N1367 N 0.03996 0.61409 0.03076 0.0
C1368 C 0.06614 0.61677 0.03769 0.0
C1369 C 0.08785 0.64622 0.04927 0.0
C1370 C 0.36169 0.43035 0.07432 0.0
C1371 C 0.35177 0.45143 0.07906 0.0
C1372 C 0.38374 0.43702 0.05894 0.0
C1373 C 0.39643 0.46485 0.0476 0.0
H1374 H 0.3518 0.40819 0.08202 0.0
H1375 H 0.39063 0.42008 0.05568 0.0
S1376 S 0.38064 0.52935 0.05628 0.0
N1377 N 0.35832 0.50255 0.07289 0.0
N1378 N 0.39905 0.51465 0.04363 0.0
C1379 C 0.3873 0.48649 0.05273 0.0
C1380 C 0.36519 0.4799 0.06856 0.0
C1381 C 0.55326 0.90851 0.03727 0.0
C1382 C 0.54802 0.90291 0.06123 0.0
C1383 C 0.54213 0.9246 0.02462 0.0
C1384 C 0.52475 0.935 0.03527 0.0
H1385 H 0.56651 0.90088 0.02835 0.0
H1386 H 0.54718 0.92897 1.00641 0.0
S1387 S 0.50553 0.92741 0.0977 0.0
N1388 N 0.52453 0.90952 0.09504 0.0
N1389 N 0.50424 0.93999 0.07147 0.0
C1390 C 0.51947 0.92962 0.05915 0.0
C1391 C 0.53093 0.91354 0.07207 0.0
C1392 C 0.01345 0.23776 0.38843 0.0
C1393 C 0.01629 0.23123 0.412 0.0
C1394 C 0.03787 0.25253 0.37535 0.0
C1395 C 0.06599 0.26103 0.38529 0.0
H1396 H 0.99214 0.23153 0.38008 0.0
H1397 H 0.03468 0.25747 0.35737 0.0
S1398 S 0.08477 0.24709 0.44584 0.0
N1399 N 0.04913 0.23328 0.44449 0.0
N1400 N 0.0951 0.26062 0.41986 0.0
C1401 C 0.06908 0.25419 0.40875 0.0
C1402 C 0.04422 0.23945 0.42214 0.0
C1403 C 0.79334 0.80195 0.3882 0.0
C1404 C 0.78169 0.77271 0.39759 0.0
C1405 C 0.77525 0.813 0.37959 0.0
C1406 C 0.74481 0.79562 0.38045 0.0
H1407 H 0.81672 0.81649 0.38741 0.0
H1408 H 0.78523 0.83539 0.37221 0.0
S1409 S 0.7029 0.71781 0.40314 0.0
N1410 N 0.73733 0.72636 0.40673 0.0
N1411 N 0.70357 0.74799 0.3916 0.0
C1412 C 0.73278 0.76678 0.39029 0.0
C1413 C 0.75115 0.75515 0.39864 0.0
C1414 C 0.22857 0.98357 0.37603 0.0
C1415 C 0.20721 0.9923 0.37808 0.0
C1416 C 0.22119 0.95399 0.36554 0.0
C1417 C 0.1921 0.93194 0.35724 0.0
H1418 H 0.25108 0.99969 0.38267 0.0
H1419 H 0.23817 0.94795 0.36474 0.0
S1420 S 0.12825 0.9437 0.35827 0.0
N1421 N 0.15605 0.97696 0.37054 0.0
N1422 N 0.14202 0.92125 0.35133 0.0
C1423 C 0.17067 0.94061 0.35899 0.0
C1424 C 0.17827 0.97082 0.36928 0.0
C1425 C 0.58581 0.69516 0.30753 0.0
C1426 C 0.55742 0.68961 0.30155 0.0
C1427 C 0.60813 0.72452 0.31749 0.0
C1428 C 0.60291 0.74946 0.32138 0.0
H1429 H 0.59081 0.6767 0.30435 0.0
H1430 H 0.62979 0.72791 0.32151 0.0
S1431 S 0.53204 0.74659 0.30883 0.0
N1432 N 0.52507 0.71104 0.30043 0.0
N1433 N 0.56692 0.76633 0.31891 0.0
C1434 C 0.57445 0.74402 0.31566 0.0
C1435 C 0.55171 0.71405 0.30582 0.0
C1436 C 0.32172 0.91287 0.28475 0.0
C1437 C 0.33443 0.89386 0.28474 0.0
C1438 C 0.29503 0.90356 0.29452 0.0
C1439 C 0.28031 0.87509 0.30484 0.0
H1440 H 0.33284 0.93548 0.27776 0.0
H1441 H 0.28625 0.91912 0.29451 0.0
S1442 S 0.30229 0.81508 0.30658 0.0
N1443 N 0.32854 0.84372 0.29367 0.0
N1444 N 0.27903 0.82686 0.31276 0.0
C1445 C 0.29223 0.85543 0.30427 0.0
C1446 C 0.31912 0.86465 0.29403 0.0
C1447 C 0.10038 0.39978 0.2956 0.0
C1448 C 0.11998 0.43035 0.29029 0.0
C1449 C 0.11034 0.38234 0.3077 0.0
C1450 C 0.14031 0.39466 0.31449 0.0
H1451 H 0.07719 0.38938 0.29049 0.0
H1452 H 0.09453 0.35877 0.31121 0.0
S1453 S 0.20042 0.47368 0.30448 0.0
N1454 N 0.17055 0.47227 0.29274 0.0
N1455 N 0.18939 0.43955 0.31507 0.0
C1456 C 0.16007 0.42524 0.30922 0.0
C1457 C 0.14987 0.44307 0.29724 0.0
C1458 C 0.29626 0.4296 0.26378 0.0
C1459 C 0.32477 0.44421 0.27521 0.0
C1460 C 0.27169 0.41265 0.27638 0.0
C1461 C 0.2748 0.4099 0.30086 0.0
H1462 H 0.29288 0.43187 0.24511 0.0
H1463 H 0.25012 0.40205 0.26696 0.0
S1464 S 0.34466 0.44062 0.33839 0.0
N1465 N 0.35463 0.45222 0.3119 0.0
N1466 N 0.30854 0.42122 0.33563 0.0
C1467 C 0.30314 0.42358 0.31231 0.0
C1468 C 0.32809 0.44051 0.29947 0.0
C1469 C 0.59733 0.92065 0.27919 0.0
C1470 C 0.56659 0.90246 0.27684 0.0
C1471 C 0.6144 0.9105 0.29124 0.0
C1472 C 0.6013 0.88209 0.30169 0.0
H1473 H 0.60831 0.94319 0.27208 0.0
H1474 H 0.63799 0.92533 0.29282 0.0
S1475 S 0.52209 0.8241 0.29835 0.0
N1476 N 0.524 0.85311 0.28402 0.0
N1477 N 0.55615 0.83485 0.30758 0.0
C1478 C 0.57073 0.86334 0.29908 0.0
C1479 C 0.55335 0.87334 0.28643 0.0
C1480 C 0.15268 0.70831 0.29546 0.0
C1481 C 0.13166 0.68285 0.30645 0.0
C1482 C 0.16096 0.73896 0.30354 0.0
C1483 C 0.14809 0.74524 0.32262 0.0
H1484 H 0.16263 0.70445 0.28036 0.0
H1485 H 0.17697 0.7578 0.29427 0.0
S1486 S 0.09235 0.68644 0.35771 0.0
N1487 N 0.09866 0.66561 0.33769 0.0
N1488 N 0.11374 0.7233 0.35272 0.0
C1489 C 0.12722 0.7199 0.33395 0.0
C1490 C 0.11916 0.68868 0.32592 0.0
C1491 C 0.78802 0.96689 0.38895 0.0
C1492 C 0.78132 0.99066 0.39334 0.0
C1493 C 0.76689 0.9375 0.37808 0.0
C1494 C 0.73847 0.93104 0.3708 0.0
H1495 H 0.80973 0.971 0.39413 0.0
H1496 H 0.77298 0.91984 0.37516 0.0
S1497 S 0.71001 0.98553 0.37849 0.0
N1498 N 0.74441 0.0059 0.38978 0.0
N1499 N 0.70465 0.95084 0.36927 0.0
C1500 C 0.73154 0.9547 0.37513 0.0
C1501 C 0.75296 0.98444 0.38645 0.0
C1502 C 0.00879 0.75734 0.37839 0.0
C1503 C 0.00927 0.76989 0.40139 0.0
C1504 C 0.03399 0.76994 0.36594 0.0
C1505 C 0.06039 0.79595 0.37586 0.0
H1506 H 0.98881 0.73748 0.37005 0.0
H1507 H 0.03279 0.7592 0.34845 0.0
S1508 S 0.07232 0.83863 0.43504 0.0
N1509 N 0.0379 0.8101 0.43336 0.0
N1510 N 0.0849 0.83471 0.40975 0.0
C1511 C 0.06085 0.80917 0.39866 0.0
C1512 C 0.03541 0.79587 0.4115 0.0
C1513 C 0.20184 0.25356 0.40769 0.0
C1514 C 0.22165 0.24604 0.39793 0.0
C1515 C 0.19149 0.27049 0.39545 0.0
C1516 C 0.20096 0.28101 0.37317 0.0
H1517 H 0.19386 0.2458 0.42473 0.0
H1518 H 0.17619 0.27567 0.40367 0.0
S1519 S 0.25333 0.26803 0.34029 0.0
N1520 N 0.25062 0.25056 0.36487 0.0
N1521 N 0.23166 0.28294 0.34203 0.0
C1522 C 0.22115 0.27405 0.3634 0.0
C1523 C 0.23131 0.25637 0.37571 0.0
C1524 C 0.70088 0.57489 0.74117 0.0
C1525 C 0.67359 0.56848 0.73071 0.0
C1526 C 0.72594 0.58851 0.72865 0.0
C1527 C 0.72483 0.59677 0.70531 0.0
H1528 H 0.70279 0.56881 0.75902 0.0
H1529 H 0.74645 0.5929 0.73748 0.0
S1530 S 0.65881 0.58586 0.67023 0.0
N1531 N 0.64695 0.57182 0.69577 0.0
N1532 N 0.69417 0.59793 0.67241 0.0
C1533 C 0.69773 0.59072 0.6947 0.0
C1534 C 0.67211 0.57649 0.70737 0.0
C1535 C 0.42858 0.0982 0.72904 0.0
C1536 C 0.45906 0.11841 0.73123 0.0
C1537 C 0.40961 0.10792 0.71997 0.0
C1538 C 0.42044 0.13809 0.71263 0.0
H1539 H 0.41933 0.07446 0.73382 0.0
H1540 H 0.38631 0.09141 0.71824 0.0
S1541 S 0.49817 0.20096 0.71696 0.0
N1542 N 0.49903 0.17086 0.72717 0.0
N1543 N 0.46333 0.18876 0.70953 0.0
C1544 C 0.45076 0.1588 0.71529 0.0
C1545 C 0.47009 0.14903 0.72473 0.0
C1546 C 0.86579 0.30617 0.72513 0.0
C1547 C 0.88395 0.33132 0.71234 0.0
C1548 C 0.85701 0.27544 0.71692 0.0
C1549 C 0.86643 0.26867 0.69577 0.0
H1550 H 0.85828 0.31032 0.74164 0.0
H1551 H 0.8432 0.25691 0.72756 0.0
S1552 S 0.91417 0.32639 0.6557 0.0
N1553 N 0.91087 0.34767 0.67741 0.0
N1554 N 0.89477 0.28978 0.66205 0.0
C1555 C 0.8846 0.29364 0.68276 0.0
C1556 C 0.8932 0.32499 0.69099 0.0
C1557 C 0.22394 0.03722 0.6464 0.0
C1558 C 0.2312 0.01634 0.63536 0.0
C1559 C 0.24574 0.0668 0.65617 0.0
C1560 C 0.27555 0.07632 0.6556 0.0
H1561 H 0.20125 0.03105 0.64676 0.0
H1562 H 0.23916 0.08249 0.66393 0.0
S1563 S 0.30587 0.0295 0.62978 0.0
N1564 N 0.27003 0.0065 0.6251 0.0
N1565 N 0.3112 0.06218 0.64378 0.0
C1566 C 0.2831 0.05524 0.64535 0.0
C1567 C 0.26086 0.02523 0.63508 0.0
C1568 C 0.99039 0.24347 0.61909 0.0
C1569 C 0.99976 0.22166 0.61589 0.0
C1570 C 0.96566 0.23649 0.6313 0.0
C1571 C 0.94976 0.20767 0.64096 0.0
H1572 H 1.00277 0.26641 0.61282 0.0
H1573 H 0.95941 0.25409 0.63372 0.0
S1574 S 0.96257 0.14095 0.63439 0.0
N1575 N 0.98894 0.16866 0.6209 0.0
N1576 N 0.94332 0.15616 0.64453 0.0
C1577 C 0.95816 0.18526 0.63707 0.0
C1578 C 0.98293 0.1921 0.62433 0.0
C1579 C 0.77273 0.73868 0.62509 0.0
C1580 C 0.79298 0.76962 0.62119 0.0
C1581 C 0.78135 0.7207 0.63791 0.0
C1582 C 0.81066 0.73288 0.64701 0.0
H1583 H 0.75001 0.72838 0.61833 0.0
H1584 H 0.76502 0.69682 0.64015 0.0
S1585 S 0.87211 0.81291 0.64133 0.0
N1586 N 0.84345 0.81181 0.62733 0.0
N1587 N 0.85985 0.77822 0.65124 0.0
C1588 C 0.83107 0.76395 0.64324 0.0
C1589 C 0.82219 0.78226 0.63039 0.0
C1590 C 0.98228 0.74484 0.6138 0.0
C1591 C 0.99542 0.77711 0.61204 0.0
C1592 C 0.95796 0.72919 0.62686 0.0
C1593 C 0.94603 0.7453 0.63871 0.0
H1594 H 0.99121 0.7317 0.60543 0.0
H1595 H 0.94858 0.70432 0.62784 0.0
S1596 S 0.97045 0.8293 0.63755 0.0
N1597 N 0.99323 0.82419 0.62164 0.0
N1598 N 0.94792 0.79484 0.64657 0.0
C1599 C 0.95851 0.77741 0.63665 0.0
C1600 C 0.98309 0.79329 0.62321 0.0
C1601 C 0.23388 0.2274 0.6255 0.0
C1602 C 0.22265 0.21337 0.60226 0.0
C1603 C 0.25134 0.21942 0.63944 0.0
C1604 C 0.25795 0.19687 0.63075 0.0
H1605 H 0.22929 0.2449 0.6329 0.0
H1606 H 0.25978 0.2311 0.65713 0.0
S1607 S 0.23315 0.15257 0.57126 0.0
N1608 N 0.21903 0.17565 0.57122 0.0
N1609 N 0.25139 0.16005 0.59759 0.0
C1610 C 0.24661 0.18238 0.60761 0.0
C1611 C 0.22914 0.19085 0.59329 0.0
C1612 C 0.78 0.02807 0.64607 0.0
C1613 C 0.80064 0.01875 0.64234 0.0
C1614 C 0.78879 0.0585 0.65533 0.0
C1615 C 0.8186 0.08087 0.66079 0.0
H1616 H 0.75689 0.01173 0.6417 0.0
H1617 H 0.7721 0.06471 0.65754 0.0
S1618 S 0.88118 0.06775 0.65433 0.0
N1619 N 0.85201 0.03386 0.645 0.0
N1620 N 0.86871 0.09112 0.66222 0.0
C1621 C 0.83943 0.07162 0.65737 0.0
C1622 C 0.8304 0.04054 0.6482 0.0
C1623 C 0.43436 0.30211 0.73061 0.0
C1624 C 0.4397 0.32715 0.71715 0.0
C1625 C 0.41467 0.27124 0.72168 0.0
C1626 C 0.39925 0.26434 0.69913 0.0
H1627 H 0.44584 0.30643 0.74803 0.0
H1628 H 0.41129 0.25267 0.73266 0.0
S1629 S 0.40512 0.32186 0.65718 0.0
N1630 N 0.42798 0.34328 0.68038 0.0
N1631 N 0.39059 0.28528 0.66361 0.0
C1632 C 0.40417 0.28927 0.68562 0.0
C1633 C 0.42453 0.32067 0.69461 0.0
C1634 C 0.68171 0.09541 0.71737 0.0
C1635 C 0.68218 0.10679 0.74076 0.0
C1636 C 0.70717 0.10795 0.70535 0.0
C1637 C 0.73379 0.1327 0.71616 0.0
H1638 H 0.66149 0.07664 0.70835 0.0
H1639 H 0.70594 0.09824 0.68746 0.0
S1640 S 0.74591 0.17186 0.7768 0.0
N1641 N 0.71104 0.14442 0.77415 0.0
N1642 N 0.75871 0.16891 0.75137 0.0
C1643 C 0.73435 0.14463 0.73944 0.0
C1644 C 0.70858 0.1314 0.75181 0.0
C1645 C 0.90142 0.6071 0.72499 0.0
C1646 C 0.88175 0.57602 0.7291 0.0
C1647 C 0.89228 0.62422 0.71151 0.0
C1648 C 0.863 0.61105 0.702 0.0
H1649 H 0.92409 0.61815 0.73206 0.0
H1650 H 0.90812 0.6482 0.70905 0.0
S1651 S 0.80296 0.53045 0.70795 0.0
N1652 N 0.83183 0.53271 0.72259 0.0
N1653 N 0.81447 0.56485 0.69768 0.0
C1654 C 0.84315 0.57997 0.70608 0.0
C1655 C 0.85257 0.56247 0.71949 0.0
C1656 C 0.50874 0.03679 0.11343 0.0
C1657 C 0.48636 0.00785 0.11941 0.0
C1658 C 0.51611 0.04132 0.08982 0.0
C1659 C 0.50179 0.01682 0.07161 0.0
H1660 H 0.521 0.05574 0.12715 0.0
H1661 H 0.5338 0.06381 0.08599 0.0
S1662 S 0.44236 0.93607 0.07913 0.0
N1663 N 0.45014 0.95455 0.10585 0.0
N1664 N 0.46427 0.96228 0.06194 0.0
C1665 C 0.47913 0.98787 0.07765 0.0
C1666 C 0.4714 0.98356 0.10146 0.0
C1667 C 0.03447 0.5081 0.10601 0.0
C1668 C 0.01977 0.51289 0.1243 0.0
C1669 C 0.02477 0.50597 0.08203 0.0
C1670 C 0.99985 0.50803 0.07556 0.0
H1671 H 0.05453 0.50783 0.11022 0.0
H1672 H 0.03802 0.50487 0.06863 0.0
S1673 S 0.95235 0.51796 0.11675 0.0
N1674 N 0.97811 0.51778 0.13436 0.0
N1675 N 0.95991 0.51359 0.08935 0.0
C1676 C 0.98442 0.51169 0.0937 0.0
C1677 C 0.99429 0.51399 0.11805 0.0
C1678 C 0.48149 0.51238 0.10131 0.0
C1679 C 0.50089 0.51812 0.12131 0.0
C1680 C 0.48858 0.50817 0.07838 0.0
C1681 C 0.51523 0.50947 0.0747 0.0
H1682 H 0.46137 0.51265 0.10327 0.0
H1683 H 0.47367 0.50531 0.06345 0.0
S1684 S 0.57177 0.51996 0.12151 0.0
N1685 N 0.54653 0.52194 0.13622 0.0
N1686 N 0.5599 0.51423 0.09313 0.0
C1687 C 0.53409 0.51361 0.09465 0.0
C1688 C 0.5269 0.51787 0.11796 0.0
C1689 C 0.99358 0.51718 0.91174 0.0
C1690 C 0.97471 0.48805 0.89897 0.0
C1691 C 0.00462 0.51911 0.9354 0.0
C1692 C 0.99752 0.49197 0.94682 0.0
H1693 H 1.00094 0.53847 0.90307 0.0
H1694 H 0.01984 0.54184 0.9444 0.0
S1695 S 0.94533 0.41049 0.92261 0.0
N1696 N 0.94597 0.43188 0.90105 0.0
N1697 N 0.96826 0.43545 0.94444 0.0
C1698 C 0.97747 0.46295 0.93469 0.0
C1699 C 0.96561 0.46102 0.91109 0.0
C1700 C 0.48971 0.51438 0.90162 0.0
C1701 C 0.50943 0.50488 0.89471 0.0
C1702 C 0.48384 0.51547 0.92554 0.0
C1703 C 0.497 0.50645 0.9433 0.0
H1704 H 0.47817 0.52017 0.88833 0.0
H1705 H 0.46817 0.52245 0.93002 0.0
S1706 S 0.54907 0.47808 0.93378 0.0
N1707 N 0.54187 0.48614 0.90721 0.0
N1708 N 0.53009 0.48676 0.95176 0.0
C1709 C 0.51694 0.49713 0.93646 0.0
C1710 C 0.52332 0.49668 0.91227 0.0
C1711 C 0.4862 0.96406 0.89863 0.0
C1712 C 0.50795 0.99349 0.89285 0.0
C1713 C 0.48141 0.95771 0.92248 0.0
C1714 C 0.49776 0.98083 0.94126 0.0
H1715 H 0.47233 0.94616 0.88463 0.0
H1716 H 0.46395 0.93499 0.92614 0.0
S1717 S 0.55641 0.06234 0.93476 0.0
N1718 N 0.54576 0.04584 0.90733 0.0
N1719 N 0.53652 0.03465 0.9518 0.0
C1720 C 0.52001 0.01017 0.93544 0.0
C1721 C 0.52511 0.01634 0.9113 0.0
C1722 C 0.1853 0.34692 0.44428 0.0
C1723 C 0.15588 0.33601 0.4488 0.0
C1724 C 0.19571 0.35793 0.42249 0.0
C1725 C 0.17745 0.35937 0.40439 0.0
H1726 H 0.20054 0.3464 0.45749 0.0
H1727 H 0.21802 0.36441 0.4196 0.0
S1728 S 0.10092 0.34111 0.40845 0.0
N1729 N 0.10974 0.33145 0.43376 0.0
N1730 N 0.13031 0.35452 0.39363 0.0
C1731 C 0.14899 0.3517 0.40931 0.0
C1732 C 0.13798 0.33956 0.4313 0.0
C1733 C 0.70192 0.88346 0.443 0.0
C1734 C 0.69583 0.85735 0.45557 0.0
C1735 C 0.69033 0.88011 0.41956 0.0
C1736 C 0.67302 0.85056 0.40726 0.0
H1737 H 0.71555 0.90692 0.45141 0.0
H1738 H 0.69509 0.90095 0.41098 0.0
S1739 S 0.65167 0.77452 0.43071 0.0
N1740 N 0.67132 0.80055 0.45324 0.0
N1741 N 0.65129 0.79464 0.40849 0.0
C1742 C 0.66785 0.82422 0.41889 0.0
C1743 C 0.67891 0.82751 0.44316 0.0
C1744 C 0.19198 0.87714 0.44261 0.0
C1745 C 0.16374 0.85674 0.44951 0.0
C1746 C 0.2002 0.87361 0.42015 0.0
C1747 C 0.18116 0.84865 0.4037 0.0
H1748 H 0.20825 0.89658 0.45453 0.0
H1749 H 0.22161 0.89092 0.41557 0.0
S1750 S 0.10892 0.7824 0.41465 0.0
N1751 N 0.11867 0.80693 0.43865 0.0
N1752 N 0.13583 0.799 0.39734 0.0
C1753 C 0.15432 0.82589 0.41096 0.0
C1754 C 0.14526 0.83006 0.43366 0.0
C1755 C 0.63942 0.79692 0.24531 0.0
C1756 C 0.64671 0.82289 0.2322 0.0
C1757 C 0.65136 0.80038 0.26866 0.0
C1758 C 0.67033 0.82999 0.28035 0.0
H1759 H 0.6248 0.77345 0.23727 0.0
H1760 H 0.64575 0.77958 0.27761 0.0
S1761 S 0.69468 0.90584 0.25548 0.0
N1762 N 0.67353 0.87963 0.2335 0.0
N1763 N 0.69452 0.88595 0.27804 0.0
C1764 C 0.67649 0.85631 0.26825 0.0
C1765 C 0.66494 0.85283 0.24408 0.0
C1766 C 0.1898 0.84003 0.24418 0.0
C1767 C 0.17241 0.8423 0.22573 0.0
C1768 C 0.18431 0.8422 0.26798 0.0
C1769 C 0.1617 0.84752 0.27444 0.0
H1770 H 0.20666 0.83467 0.2401 0.0
H1771 H 0.19707 0.83812 0.28132 0.0
S1772 S 0.11106 0.85709 0.23264 0.0
N1773 N 0.13221 0.85101 0.21528 0.0
N1774 N 0.12266 0.85646 0.26017 0.0
C1775 C 0.14499 0.85127 0.25616 0.0
C1776 C 0.15017 0.84833 0.23179 0.0
C1777 C 0.15702 0.3473 0.24931 0.0
C1778 C 0.17748 0.34347 0.23667 0.0
C1779 C 0.14862 0.33465 0.27098 0.0
C1780 C 0.16123 0.3188 0.28167 0.0
H1781 H 0.14698 0.35995 0.24232 0.0
H1782 H 0.13223 0.33762 0.27954 0.0
S1783 S 0.21734 0.30403 0.2577 0.0
N1784 N 0.21066 0.32278 0.23724 0.0
N1785 N 0.19629 0.30118 0.27911 0.0
C1786 C 0.18271 0.31597 0.27012 0.0
C1787 C 0.19066 0.32796 0.24746 0.0
C1788 C 0.84721 0.6706 0.77718 0.0
C1789 C 0.81784 0.66058 0.78133 0.0
C1790 C 0.85808 0.68112 0.75549 0.0
C1791 C 0.84048 0.68318 0.7372 0.0
H1792 H 0.86212 0.66999 0.79066 0.0
H1793 H 0.88035 0.68705 0.75292 0.0
S1794 S 0.76513 0.66889 0.74067 0.0
N1795 N 0.77272 0.65805 0.7659 0.0
N1796 N 0.79456 0.68094 0.72602 0.0
C1797 C 0.81221 0.67656 0.74171 0.0
C1798 C 0.80059 0.66468 0.76359 0.0
C1799 C 0.36507 0.17045 0.7713 0.0
C1800 C 0.35251 0.17847 0.78972 0.0
C1801 C 0.35474 0.16768 0.74738 0.0
C1802 C 0.33148 0.17267 0.741 0.0
H1803 H 0.38389 0.16781 0.77532 0.0
H1804 H 0.36604 0.16323 0.73381 0.0
S1805 S 0.28901 0.1907 0.78264 0.0
N1806 N 0.31392 0.18871 0.80003 0.0
N1807 N 0.29485 0.18379 0.75519 0.0
C1808 C 0.31801 0.17943 0.7593 0.0
C1809 C 0.32839 0.18215 0.7836 0.0
C1810 C 0.86267 0.21086 0.78313 0.0
C1811 C 0.8348 0.18894 0.78986 0.0
C1812 C 0.8715 0.20836 0.76063 0.0
C1813 C 0.85336 0.18328 0.74391 0.0
H1814 H 0.87799 0.23068 0.79523 0.0
H1815 H 0.89258 0.22662 0.7562 0.0
S1816 S 0.78186 0.11494 0.75389 0.0
N1817 N 0.79089 0.13853 0.77837 0.0
N1818 N 0.80884 0.13286 0.73683 0.0
C1819 C 0.82677 0.15951 0.7509 0.0
C1820 C 0.81724 0.16244 0.7737 0.0
C1821 C 0.32698 0.13897 0.57265 0.0
C1822 C 0.31531 0.15743 0.5648 0.0
C1823 C 0.33985 0.14334 0.59576 0.0
C1824 C 0.34278 0.16712 0.61212 0.0
H1825 H 0.32606 0.12052 0.56094 0.0
H1826 H 0.3472 0.12751 0.60091 0.0
S1827 S 0.32326 0.22735 0.5998 0.0
N1828 N 0.31138 0.20352 0.57524 0.0
N1829 N 0.33823 0.21318 0.61793 0.0
C1830 C 0.33402 0.18779 0.60418 0.0
C1831 C 0.31983 0.18273 0.58073 0.0
C1832 C 0.86089 0.17503 0.58447 0.0
C1833 C 0.84327 0.17711 0.56613 0.0
C1834 C 0.85596 0.17786 0.60828 0.0
C1835 C 0.83374 0.18372 0.61486 0.0
H1836 H 0.87758 0.16941 0.58034 0.0
H1837 H 0.86886 0.17388 0.62155 0.0
S1838 S 0.78296 0.19353 0.57343 0.0
N1839 N 0.80347 0.18661 0.55589 0.0
N1840 N 0.79488 0.19314 0.60091 0.0
C1841 C 0.81681 0.18734 0.59671 0.0
C1842 C 0.82142 0.18374 0.57229 0.0
C1843 C 0.82404 0.62709 0.56678 0.0
C1844 C 0.84232 0.65713 0.55968 0.0
C1845 C 0.81992 0.6222 0.591 0.0
C1846 C 0.83342 0.64731 0.60881 0.0
H1847 H 0.81231 0.60746 0.5535 0.0
H1848 H 0.80524 0.59885 0.5957 0.0
S1849 S 0.88172 0.73084 0.59855 0.0
N1850 N 0.87353 0.71209 0.57189 0.0
N1851 N 0.86493 0.70363 0.61679 0.0
C1852 C 0.85182 0.6774 0.60158 0.0
C1853 C 0.85644 0.68213 0.57719 0.0
loop_
_geom_bond_atom_site_label_1
_geom_bond_atom_site_label_2
_geom_bond_distance
_geom_bond_site_symmetry_2
_ccdc_geom_bond_type
C0 C1 1.391 . S
C0 C4 1.391 . S
C0 H42 0.948 . S
C1 C0 1.391 . S
C1 C2 1.391 . S
C2 C1 1.391 . S
C2 H58 0.947 . S
C2 C59 1.392 . S
C3 C4 1.391 . S
C3 C7 1.397 . S
C3 C59 1.419 . S
C4 C0 1.391 . S
C4 C3 1.391 . S
C4 C5 1.399 . S
C5 C4 1.399 . S
C5 C8 1.396 . S
C5 C17 1.453 . S
C5 C18 1.684 . S
H6 C30 0.948 . S
C7 C3 1.397 . S
C7 C8 1.394 . S
C7 C26 1.723 . S
C8 C5 1.396 . S
C8 C7 1.394 . S
C8 C38 1.723 . S
H9 C32 0.947 . S
H10 C33 0.948 . S
H11 C39 0.982 . S
H12 C40 0.979 . S
H13 C40 0.980 . S
H14 C40 0.983 . S
H15 C39 0.979 . S
H16 C39 0.977 . S
C17 C5 1.453 . S
C17 H46 0.982 . S
C17 H47 0.979 . S
C17 H48 0.977 . S
C18 C5 1.684 . S
C18 H43 0.979 . S
C18 H44 0.980 . S
C18 H45 0.983 . S
C19 C20 1.391 . S
C19 C24 1.391 . S
C19 H49 0.948 . S
C20 C19 1.391 . S
C20 C21 1.391 . S
C21 C20 1.391 . S
C21 C22 1.392 . S
C21 H50 0.947 . S
C22 C21 1.392 . S
C22 C23 1.419 . S
C22 H51 0.948 . S
C23 C22 1.419 . S
C23 C24 1.391 . S
C23 C27 1.397 . S
C24 C19 1.391 . S
C24 C23 1.391 . S
C24 C25 1.399 . S
C25 C24 1.399 . S
C25 C26 1.396 . S
C25 C28 1.453 . S
C25 C29 1.684 . S
C26 C7 1.723 . S
C26 C25 1.396 . S
C26 C27 1.394 . S
C27 C23 1.397 . S
C27 C26 1.394 . S
C27 C37 1.723 . S
C28 C25 1.453 . S
C28 H52 0.982 . S
C28 H53 0.979 . S
C28 H54 0.977 . S
C29 C25 1.684 . S
C29 H55 0.979 . S
C29 H56 0.980 . S
C29 H57 0.983 . S
C30 H6 0.948 . S
C30 C31 1.391 . S
C30 C35 1.391 . S
C31 C30 1.391 . S
C31 C32 1.391 . S
C32 H9 0.947 . S
C32 C31 1.391 . S
C32 C33 1.392 . S
C33 H10 0.948 . S
C33 C32 1.392 . S
C33 C34 1.419 . S
C34 C33 1.419 . S
C34 C35 1.391 . S
C34 C38 1.397 . S
C35 C30 1.391 . S
C35 C34 1.391 . S
C35 C36 1.399 . S
C36 C35 1.399 . S
C36 C37 1.396 . S
C36 C39 1.453 . S
C36 C40 1.684 . S
C37 C27 1.723 . S
C37 C36 1.396 . S
C37 C38 1.394 . S
C38 C8 1.723 . S
C38 C34 1.397 . S
C38 C37 1.394 . S
C39 H11 0.982 . S
C39 H15 0.979 . S
C39 H16 0.977 . S
C39 C36 1.453 . S
C40 H12 0.979 . S
C40 H13 0.980 . S
C40 H14 0.983 . S
C40 C36 1.684 . S
H41 C59 0.948 . S
H42 C0 0.948 . S
H43 C18 0.979 . S
H44 C18 0.980 . S
H45 C18 0.983 . S
H46 C17 0.982 . S
H47 C17 0.979 . S
H48 C17 0.977 . S
H49 C19 0.948 . S
H50 C21 0.947 . S
H51 C22 0.948 . S
H52 C28 0.982 . S
H53 C28 0.979 . S
H54 C28 0.977 . S
H55 C29 0.979 . S
H56 C29 0.980 . S
H57 C29 0.983 . S
H58 C2 0.947 . S
C59 C2 1.392 . S
C59 C3 1.419 . S
C59 H41 0.948 . S
C60 C61 1.391 . S
C60 C64 1.391 . S
C60 H102 0.948 . S
C61 C60 1.391 . S
C61 C62 1.391 . S
C62 C61 1.391 . S
C62 H118 0.947 . S
C62 C119 1.392 . S
C63 C64 1.391 . S
C63 C67 1.397 . S
C63 C119 1.419 . S
C64 C60 1.391 . S
C64 C63 1.391 . S
C64 C65 1.399 . S
C65 C64 1.399 . S
C65 C68 1.396 . S
C65 C77 1.453 . S
C65 C78 1.684 . S
H66 C90 0.948 . S
C67 C63 1.397 . S
C67 C68 1.394 . S
C67 C86 1.723 . S
C68 C65 1.396 . S
C68 C67 1.394 . S
C68 C98 1.723 . S
H69 C92 0.947 . S
H70 C93 0.948 . S
H71 C99 0.982 . S
H72 C100 0.979 . S
H73 C100 0.980 . S
H74 C100 0.983 . S
H75 C99 0.979 . S
H76 C99 0.977 . S
C77 C65 1.453 . S
C77 H106 0.982 . S
C77 H107 0.979 . S
C77 H108 0.977 . S
C78 C65 1.684 . S
C78 H103 0.979 . S
C78 H104 0.980 . S
C78 H105 0.983 . S
C79 C80 1.391 . S
C79 C84 1.391 . S
C79 H109 0.948 . S
C80 C79 1.391 . S
C80 C81 1.391 . S
C81 C80 1.391 . S
C81 C82 1.392 . S
C81 H110 0.947 . S
C82 C81 1.392 . S
C82 C83 1.419 . S
C82 H111 0.948 . S
C83 C82 1.419 . S
C83 C84 1.391 . S
C83 C87 1.397 . S
C84 C79 1.391 . S
C84 C83 1.391 . S
C84 C85 1.399 . S
C85 C84 1.399 . S
C85 C86 1.396 . S
C85 C88 1.453 . S
C85 C89 1.684 . S
C86 C67 1.723 . S
C86 C85 1.396 . S
C86 C87 1.394 . S
C87 C83 1.397 . S
C87 C86 1.394 . S
C87 C97 1.723 . S
C88 C85 1.453 . S
C88 H112 0.982 . S
C88 H113 0.979 . S
C88 H114 0.977 . S
C89 C85 1.684 . S
C89 H115 0.979 . S
C89 H116 0.980 . S
C89 H117 0.983 . S
C90 H66 0.948 . S
C90 C91 1.391 . S
C90 C95 1.391 . S
C91 C90 1.391 . S
C91 C92 1.391 . S
C92 H69 0.947 . S
C92 C91 1.391 . S
C92 C93 1.392 . S
C93 H70 0.948 . S
C93 C92 1.392 . S
C93 C94 1.419 . S
C94 C93 1.419 . S
C94 C95 1.391 . S
C94 C98 1.397 . S
C95 C90 1.391 . S
C95 C94 1.391 . S
C95 C96 1.399 . S
C96 C95 1.399 . S
C96 C97 1.396 . S
C96 C99 1.453 . S
C96 C100 1.684 . S
C97 C87 1.723 . S
C97 C96 1.396 . S
C97 C98 1.394 . S
C98 C68 1.723 . S
C98 C94 1.397 . S
C98 C97 1.394 . S
C99 H71 0.982 . S
C99 H75 0.979 . S
C99 H76 0.977 . S
C99 C96 1.453 . S
C100 H72 0.979 . S
C100 H73 0.980 . S
C100 H74 0.983 . S
C100 C96 1.684 . S
H101 C119 0.948 . S
H102 C60 0.948 . S
H103 C78 0.979 . S
H104 C78 0.980 . S
H105 C78 0.983 . S
H106 C77 0.982 . S
H107 C77 0.979 . S
H108 C77 0.977 . S
H109 C79 0.948 . S
H110 C81 0.947 . S
H111 C82 0.948 . S
H112 C88 0.982 . S
H113 C88 0.979 . S
H114 C88 0.977 . S
H115 C89 0.979 . S
H116 C89 0.980 . S
H117 C89 0.983 . S
H118 C62 0.947 . S
C119 C62 1.392 . S
C119 C63 1.419 . S
C119 H101 0.948 . S
C120 C121 1.391 . S
C120 C124 1.391 . S
C120 H162 0.948 . S
C121 C120 1.391 . S
C121 C122 1.391 . S
C122 C121 1.391 . S
C122 H178 0.947 . S
C122 C179 1.392 . S
C123 C124 1.391 . S
C123 C127 1.397 . S
C123 C179 1.419 . S
C124 C120 1.391 . S
C124 C123 1.391 . S
C124 C125 1.399 . S
C125 C124 1.399 . S
C125 C128 1.396 . S
C125 C137 1.453 . S
C125 C138 1.684 . S
H126 C150 0.948 . S
C127 C123 1.397 . S
C127 C128 1.394 . S
C127 C146 1.723 . S
C128 C125 1.396 . S
C128 C127 1.394 . S
C128 C158 1.723 . S
H129 C152 0.947 . S
H130 C153 0.948 . S
H131 C159 0.982 . S
H132 C160 0.979 . S
H133 C160 0.980 . S
H134 C160 0.983 . S
H135 C159 0.979 . S
H136 C159 0.977 . S
C137 C125 1.453 . S
C137 H166 0.982 . S
C137 H167 0.979 . S
C137 H168 0.977 . S
C138 C125 1.684 . S
C138 H163 0.979 . S
C138 H164 0.980 . S
C138 H165 0.983 . S
C139 C140 1.391 . S
C139 C144 1.391 . S
C139 H169 0.948 . S
C140 C139 1.391 . S
C140 C141 1.391 . S
C141 C140 1.391 . S
C141 C142 1.392 . S
C141 H170 0.947 . S
C142 C141 1.392 . S
C142 C143 1.419 . S
C142 H171 0.948 . S
C143 C142 1.419 . S
C143 C144 1.391 . S
C143 C147 1.397 . S
C144 C139 1.391 . S
C144 C143 1.391 . S
C144 C145 1.399 . S
C145 C144 1.399 . S
C145 C146 1.396 . S
C145 C148 1.453 . S
C145 C149 1.684 . S
C146 C127 1.723 . S
C146 C145 1.396 . S
C146 C147 1.394 . S
C147 C143 1.397 . S
C147 C146 1.394 . S
C147 C157 1.723 . S
C148 C145 1.453 . S
C148 H172 0.982 . S
C148 H173 0.979 . S
C148 H174 0.977 . S
C149 C145 1.684 . S
C149 H175 0.979 . S
C149 H176 0.980 . S
C149 H177 0.983 . S
C150 H126 0.948 . S
C150 C151 1.391 . S
C150 C155 1.391 . S
C151 C150 1.391 . S
C151 C152 1.391 . S
C152 H129 0.947 . S
C152 C151 1.391 . S
C152 C153 1.392 . S
C153 H130 0.948 . S
C153 C152 1.392 . S
C153 C154 1.419 . S
C154 C153 1.419 . S
C154 C155 1.391 . S
C154 C158 1.397 . S
C155 C150 1.391 . S
C155 C154 1.391 . S
C155 C156 1.399 . S
C156 C155 1.399 . S
C156 C157 1.396 . S
C156 C159 1.453 . S
C156 C160 1.684 . S
C157 C147 1.723 . S
C157 C156 1.396 . S
C157 C158 1.394 . S
C158 C128 1.723 . S
C158 C154 1.397 . S
C158 C157 1.394 . S
C159 H131 0.982 . S
C159 H135 0.979 . S
C159 H136 0.977 . S
C159 C156 1.453 . S
C160 H132 0.979 . S
C160 H133 0.980 . S
C160 H134 0.983 . S
C160 C156 1.684 . S
H161 C179 0.948 . S
H162 C120 0.948 . S
H163 C138 0.979 . S
H164 C138 0.980 . S
H165 C138 0.983 . S
H166 C137 0.982 . S
H167 C137 0.979 . S
H168 C137 0.977 . S
H169 C139 0.948 . S
H170 C141 0.947 . S
H171 C142 0.948 . S
H172 C148 0.982 . S
H173 C148 0.979 . S
H174 C148 0.977 . S
H175 C149 0.979 . S
H176 C149 0.980 . S
H177 C149 0.983 . S
H178 C122 0.947 . S
C179 C122 1.392 . S
C179 C123 1.419 . S
C179 H161 0.948 . S
C180 C181 1.391 . S
C180 C184 1.391 . S
C180 H222 0.948 . S
C181 C180 1.391 . S
C181 C182 1.391 . S
C182 C181 1.391 . S
C182 H238 0.947 . S
C182 C239 1.392 . S
C183 C184 1.391 . S
C183 C187 1.397 . S
C183 C239 1.419 . S
C184 C180 1.391 . S
C184 C183 1.391 . S
C184 C185 1.399 . S
C185 C184 1.399 . S
C185 C188 1.396 . S
C185 C197 1.453 . S
C185 C198 1.684 . S
H186 C210 0.948 . S
C187 C183 1.397 . S
C187 C188 1.394 . S
C187 C206 1.723 . S
C188 C185 1.396 . S
C188 C187 1.394 . S
C188 C218 1.723 . S
H189 C212 0.947 . S
H190 C213 0.948 . S
H191 C219 0.982 . S
H192 C220 0.979 . S
H193 C220 0.980 . S
H194 C220 0.983 . S
H195 C219 0.979 . S
H196 C219 0.977 . S
C197 C185 1.453 . S
C197 H226 0.982 . S
C197 H227 0.979 . S
C197 H228 0.977 . S
C198 C185 1.684 . S
C198 H223 0.979 . S
C198 H224 0.980 . S
C198 H225 0.983 . S
C199 C200 1.391 . S
C199 C204 1.391 . S
C199 H229 0.948 . S
C200 C199 1.391 . S
C200 C201 1.391 . S
C201 C200 1.391 . S
C201 C202 1.392 . S
C201 H230 0.947 . S
C202 C201 1.392 . S
C202 C203 1.419 . S
C202 H231 0.948 . S
C203 C202 1.419 . S
C203 C204 1.391 . S
C203 C207 1.397 . S
C204 C199 1.391 . S
C204 C203 1.391 . S
C204 C205 1.399 . S
C205 C204 1.399 . S
C205 C206 1.396 . S
C205 C208 1.453 . S
C205 C209 1.684 . S
C206 C187 1.723 . S
C206 C205 1.396 . S
C206 C207 1.394 . S
C207 C203 1.397 . S
C207 C206 1.394 . S
C207 C217 1.723 . S
C208 C205 1.453 . S
C208 H232 0.982 . S
C208 H233 0.979 . S
C208 H234 0.977 . S
C209 C205 1.684 . S
C209 H235 0.979 . S
C209 H236 0.980 . S
C209 H237 0.983 . S
C210 H186 0.948 . S
C210 C211 1.391 . S
C210 C215 1.391 . S
C211 C210 1.391 . S
C211 C212 1.391 . S
C212 H189 0.947 . S
C212 C211 1.391 . S
C212 C213 1.392 . S
C213 H190 0.948 . S
C213 C212 1.392 . S
C213 C214 1.419 . S
C214 C213 1.419 . S
C214 C215 1.391 . S
C214 C218 1.397 . S
C215 C210 1.391 . S
C215 C214 1.391 . S
C215 C216 1.399 . S
C216 C215 1.399 . S
C216 C217 1.396 . S
C216 C219 1.453 . S
C216 C220 1.684 . S
C217 C207 1.723 . S
C217 C216 1.396 . S
C217 C218 1.394 . S
C218 C188 1.723 . S
C218 C214 1.397 . S
C218 C217 1.394 . S
C219 H191 0.982 . S
C219 H195 0.979 . S
C219 H196 0.977 . S
C219 C216 1.453 . S
C220 H192 0.979 . S
C220 H193 0.980 . S
C220 H194 0.983 . S
C220 C216 1.684 . S
H221 C239 0.948 . S
H222 C180 0.948 . S
H223 C198 0.979 . S
H224 C198 0.980 . S
H225 C198 0.983 . S
H226 C197 0.982 . S
H227 C197 0.979 . S
H228 C197 0.977 . S
H229 C199 0.948 . S
H230 C201 0.947 . S
H231 C202 0.948 . S
H232 C208 0.982 . S
H233 C208 0.979 . S
H234 C208 0.977 . S
H235 C209 0.979 . S
H236 C209 0.980 . S
H237 C209 0.983 . S
H238 C182 0.947 . S
C239 C182 1.392 . S
C239 C183 1.419 . S
C239 H221 0.948 . S
C240 C241 1.391 . S
C240 C244 1.391 . S
C240 H282 0.948 . S
C241 C240 1.391 . S
C241 C242 1.391 . S
C242 C241 1.391 . S
C242 H298 0.947 . S
C242 C299 1.392 . S
C243 C244 1.391 . S
C243 C247 1.397 . S
C243 C299 1.419 . S
C244 C240 1.391 . S
C244 C243 1.391 . S
C244 C245 1.399 . S
C245 C244 1.399 . S
C245 C248 1.396 . S
C245 C257 1.453 . S
C245 C258 1.684 . S
H246 C270 0.948 . S
C247 C243 1.397 . S
C247 C248 1.394 . S
C247 C266 1.723 . S
C248 C245 1.396 . S
C248 C247 1.394 . S
C248 C278 1.723 . S
H249 C272 0.947 . S
H250 C273 0.948 . S
H251 C279 0.982 . S
H252 C280 0.979 . S
H253 C280 0.980 . S
H254 C280 0.983 . S
H255 C279 0.979 . S
H256 C279 0.977 . S
C257 C245 1.453 . S
C257 H286 0.982 . S
C257 H287 0.979 . S
C257 H288 0.977 . S
C258 C245 1.684 . S
C258 H283 0.979 . S
C258 H284 0.980 . S
C258 H285 0.983 . S
C259 C260 1.391 . S
C259 C264 1.391 . S
C259 H289 0.948 . S
C260 C259 1.391 . S
C260 C261 1.391 . S
C261 C260 1.391 . S
C261 C262 1.392 . S
C261 H290 0.947 . S
C262 C261 1.392 . S
C262 C263 1.419 . S
C262 H291 0.948 . S
C263 C262 1.419 . S
C263 C264 1.391 . S
C263 C267 1.397 . S
C264 C259 1.391 . S
C264 C263 1.391 . S
C264 C265 1.399 . S
C265 C264 1.399 . S
C265 C266 1.396 . S
C265 C268 1.453 . S
C265 C269 1.684 . S
C266 C247 1.723 . S
C266 C265 1.396 . S
C266 C267 1.394 . S
C267 C263 1.397 . S
C267 C266 1.394 . S
C267 C277 1.723 . S
C268 C265 1.453 . S
C268 H292 0.982 . S
C268 H293 0.979 . S
C268 H294 0.977 . S
C269 C265 1.684 . S
C269 H295 0.979 . S
C269 H296 0.980 . S
C269 H297 0.983 . S
C270 H246 0.948 . S
C270 C271 1.391 . S
C270 C275 1.391 . S
C271 C270 1.391 . S
C271 C272 1.391 . S
C272 H249 0.947 . S
C272 C271 1.391 . S
C272 C273 1.392 . S
C273 H250 0.948 . S
C273 C272 1.392 . S
C273 C274 1.419 . S
C274 C273 1.419 . S
C274 C275 1.391 . S
C274 C278 1.397 . S
C275 C270 1.391 . S
C275 C274 1.391 . S
C275 C276 1.399 . S
C276 C275 1.399 . S
C276 C277 1.396 . S
C276 C279 1.453 . S
C276 C280 1.684 . S
C277 C267 1.723 . S
C277 C276 1.396 . S
C277 C278 1.394 . S
C278 C248 1.723 . S
C278 C274 1.397 . S
C278 C277 1.394 . S
C279 H251 0.982 . S
C279 H255 0.979 . S
C279 H256 0.977 . S
C279 C276 1.453 . S
C280 H252 0.979 . S
C280 H253 0.980 . S
C280 H254 0.983 . S
C280 C276 1.684 . S
H281 C299 0.948 . S
H282 C240 0.948 . S
H283 C258 0.979 . S
H284 C258 0.980 . S
H285 C258 0.983 . S
H286 C257 0.982 . S
H287 C257 0.979 . S
H288 C257 0.977 . S
H289 C259 0.948 . S
H290 C261 0.947 . S
H291 C262 0.948 . S
H292 C268 0.982 . S
H293 C268 0.979 . S
H294 C268 0.977 . S
H295 C269 0.979 . S
H296 C269 0.980 . S
H297 C269 0.983 . S
H298 C242 0.947 . S
C299 C242 1.392 . S
C299 C243 1.419 . S
C299 H281 0.948 . S
C300 C301 1.391 . S
C300 C304 1.391 . S
C300 H342 0.948 . S
C301 C300 1.391 . S
C301 C302 1.391 . S
C302 C301 1.391 . S
C302 H358 0.947 . S
C302 C359 1.392 . S
C303 C304 1.391 . S
C303 C307 1.397 . S
C303 C359 1.419 . S
C304 C300 1.391 . S
C304 C303 1.391 . S
C304 C305 1.399 . S
C305 C304 1.399 . S
C305 C308 1.396 . S
C305 C317 1.453 . S
C305 C318 1.684 . S
H306 C330 0.948 . S
C307 C303 1.397 . S
C307 C308 1.394 . S
C307 C326 1.723 . S
C308 C305 1.396 . S
C308 C307 1.394 . S
C308 C338 1.723 . S
H309 C332 0.947 . S
H310 C333 0.948 . S
H311 C339 0.982 . S
H312 C340 0.979 . S
H313 C340 0.980 . S
H314 C340 0.983 . S
H315 C339 0.979 . S
H316 C339 0.977 . S
C317 C305 1.453 . S
C317 H346 0.982 . S
C317 H347 0.979 . S
C317 H348 0.977 . S
C318 C305 1.684 . S
C318 H343 0.979 . S
C318 H344 0.980 . S
C318 H345 0.983 . S
C319 C320 1.391 . S
C319 C324 1.391 . S
C319 H349 0.948 . S
C320 C319 1.391 . S
C320 C321 1.391 . S
C321 C320 1.391 . S
C321 C322 1.392 . S
C321 H350 0.947 . S
C322 C321 1.392 . S
C322 C323 1.419 . S
C322 H351 0.948 . S
C323 C322 1.419 . S
C323 C324 1.391 . S
C323 C327 1.397 . S
C324 C319 1.391 . S
C324 C323 1.391 . S
C324 C325 1.399 . S
C325 C324 1.399 . S
C325 C326 1.396 . S
C325 C328 1.453 . S
C325 C329 1.684 . S
C326 C307 1.723 . S
C326 C325 1.396 . S
C326 C327 1.394 . S
C327 C323 1.397 . S
C327 C326 1.394 . S
C327 C337 1.723 . S
C328 C325 1.453 . S
C328 H352 0.982 . S
C328 H353 0.979 . S
C328 H354 0.977 . S
C329 C325 1.684 . S
C329 H355 0.979 . S
C329 H356 0.980 . S
C329 H357 0.983 . S
C330 H306 0.948 . S
C330 C331 1.391 . S
C330 C335 1.391 . S
C331 C330 1.391 . S
C331 C332 1.391 . S
C332 H309 0.947 . S
C332 C331 1.391 . S
C332 C333 1.392 . S
C333 H310 0.948 . S
C333 C332 1.392 . S
C333 C334 1.419 . S
C334 C333 1.419 . S
C334 C335 1.391 . S
C334 C338 1.397 . S
C335 C330 1.391 . S
C335 C334 1.391 . S
C335 C336 1.399 . S
C336 C335 1.399 . S
C336 C337 1.396 . S
C336 C339 1.453 . S
C336 C340 1.684 . S
C337 C327 1.723 . S
C337 C336 1.396 . S
C337 C338 1.394 . S
C338 C308 1.723 . S
C338 C334 1.397 . S
C338 C337 1.394 . S
C339 H311 0.982 . S
C339 H315 0.979 . S
C339 H316 0.977 . S
C339 C336 1.453 . S
C340 H312 0.979 . S
C340 H313 0.980 . S
C340 H314 0.983 . S
C340 C336 1.684 . S
H341 C359 0.948 . S
H342 C300 0.948 . S
H343 C318 0.979 . S
H344 C318 0.980 . S
H345 C318 0.983 . S
H346 C317 0.982 . S
H347 C317 0.979 . S
H348 C317 0.977 . S
H349 C319 0.948 . S
H350 C321 0.947 . S
H351 C322 0.948 . S
H352 C328 0.982 . S
H353 C328 0.979 . S
H354 C328 0.977 . S
H355 C329 0.979 . S
H356 C329 0.980 . S
H357 C329 0.983 . S
H358 C302 0.947 . S
C359 C302 1.392 . S
C359 C303 1.419 . S
C359 H341 0.948 . S
C360 C361 1.391 . S
C360 C364 1.391 . S
C360 H402 0.948 . S
C361 C360 1.391 . S
C361 C362 1.391 . S
C362 C361 1.391 . S
C362 H418 0.947 . S
C362 C419 1.392 . S
C363 C364 1.391 . S
C363 C367 1.397 . S
C363 C419 1.419 . S
C364 C360 1.391 . S
C364 C363 1.391 . S
C364 C365 1.399 . S
C365 C364 1.399 . S
C365 C368 1.396 . S
C365 C377 1.453 . S
C365 C378 1.684 . S
H366 C390 0.948 . S
C367 C363 1.397 . S
C367 C368 1.394 . S
C367 C386 1.723 . S
C368 C365 1.396 . S
C368 C367 1.394 . S
C368 C398 1.723 . S
H369 C392 0.947 . S
H370 C393 0.948 . S
H371 C399 0.982 . S
H372 C400 0.979 . S
H373 C400 0.980 . S
H374 C400 0.983 . S
H375 C399 0.979 . S
H376 C399 0.977 . S
C377 C365 1.453 . S
C377 H406 0.982 . S
C377 H407 0.979 . S
C377 H408 0.977 . S
C378 C365 1.684 . S
C378 H403 0.979 . S
C378 H404 0.980 . S
C378 H405 0.983 . S
C379 C380 1.391 . S
C379 C384 1.391 . S
C379 H409 0.948 . S
C380 C379 1.391 . S
C380 C381 1.391 . S
C381 C380 1.391 . S
C381 C382 1.392 . S
C381 H410 0.947 . S
C382 C381 1.392 . S
C382 C383 1.419 . S
C382 H411 0.948 . S
C383 C382 1.419 . S
C383 C384 1.391 . S
C383 C387 1.397 . S
C384 C379 1.391 . S
C384 C383 1.391 . S
C384 C385 1.399 . S
C385 C384 1.399 . S
C385 C386 1.396 . S
C385 C388 1.453 . S
C385 C389 1.684 . S
C386 C367 1.723 . S
C386 C385 1.396 . S
C386 C387 1.394 . S
C387 C383 1.397 . S
C387 C386 1.394 . S
C387 C397 1.723 . S
C388 C385 1.453 . S
C388 H412 0.982 . S
C388 H413 0.979 . S
C388 H414 0.977 . S
C389 C385 1.684 . S
C389 H415 0.979 . S
C389 H416 0.980 . S
C389 H417 0.983 . S
C390 H366 0.948 . S
C390 C391 1.391 . S
C390 C395 1.391 . S
C391 C390 1.391 . S
C391 C392 1.391 . S
C392 H369 0.947 . S
C392 C391 1.391 . S
C392 C393 1.392 . S
C393 H370 0.948 . S
C393 C392 1.392 . S
C393 C394 1.419 . S
C394 C393 1.419 . S
C394 C395 1.391 . S
C394 C398 1.397 . S
C395 C390 1.391 . S
C395 C394 1.391 . S
C395 C396 1.399 . S
C396 C395 1.399 . S
C396 C397 1.396 . S
C396 C399 1.453 . S
C396 C400 1.684 . S
C397 C387 1.723 . S
C397 C396 1.396 . S
C397 C398 1.394 . S
C398 C368 1.723 . S
C398 C394 1.397 . S
C398 C397 1.394 . S
C399 H371 0.982 . S
C399 H375 0.979 . S
C399 H376 0.977 . S
C399 C396 1.453 . S
C400 H372 0.979 . S
C400 H373 0.980 . S
C400 H374 0.983 . S
C400 C396 1.684 . S
H401 C419 0.948 . S
H402 C360 0.948 . S
H403 C378 0.979 . S
H404 C378 0.980 . S
H405 C378 0.983 . S
H406 C377 0.982 . S
H407 C377 0.979 . S
H408 C377 0.977 . S
H409 C379 0.948 . S
H410 C381 0.947 . S
H411 C382 0.948 . S
H412 C388 0.982 . S
H413 C388 0.979 . S
H414 C388 0.977 . S
H415 C389 0.979 . S
H416 C389 0.980 . S
H417 C389 0.983 . S
H418 C362 0.947 . S
C419 C362 1.392 . S
C419 C363 1.419 . S
C419 H401 0.948 . S
C420 C421 1.391 . S
C420 C424 1.391 . S
C420 H462 0.948 . S
C421 C420 1.391 . S
C421 C422 1.391 . S
C422 C421 1.391 . S
C422 H478 0.947 . S
C422 C479 1.392 . S
C423 C424 1.391 . S
C423 C427 1.397 . S
C423 C479 1.419 . S
C424 C420 1.391 . S
C424 C423 1.391 . S
C424 C425 1.399 . S
C425 C424 1.399 . S
C425 C428 1.396 . S
C425 C437 1.453 . S
C425 C438 1.684 . S
H426 C450 0.948 . S
C427 C423 1.397 . S
C427 C428 1.394 . S
C427 C446 1.723 . S
C428 C425 1.396 . S
C428 C427 1.394 . S
C428 C458 1.723 . S
H429 C452 0.947 . S
H430 C453 0.948 . S
H431 C459 0.982 . S
H432 C460 0.979 . S
H433 C460 0.980 . S
H434 C460 0.983 . S
H435 C459 0.979 . S
H436 C459 0.977 . S
C437 C425 1.453 . S
C437 H466 0.982 . S
C437 H467 0.979 . S
C437 H468 0.977 . S
C438 C425 1.684 . S
C438 H463 0.979 . S
C438 H464 0.980 . S
C438 H465 0.983 . S
C439 C440 1.391 . S
C439 C444 1.391 . S
C439 H469 0.948 . S
C440 C439 1.391 . S
C440 C441 1.391 . S
C441 C440 1.391 . S
C441 C442 1.392 . S
C441 H470 0.947 . S
C442 C441 1.392 . S
C442 C443 1.419 . S
C442 H471 0.948 . S
C443 C442 1.419 . S
C443 C444 1.391 . S
C443 C447 1.397 . S
C444 C439 1.391 . S
C444 C443 1.391 . S
C444 C445 1.399 . S
C445 C444 1.399 . S
C445 C446 1.396 . S
C445 C448 1.453 . S
C445 C449 1.684 . S
C446 C427 1.723 . S
C446 C445 1.396 . S
C446 C447 1.394 . S
C447 C443 1.397 . S
C447 C446 1.394 . S
C447 C457 1.723 . S
C448 C445 1.453 . S
C448 H472 0.982 . S
C448 H473 0.979 . S
C448 H474 0.977 . S
C449 C445 1.684 . S
C449 H475 0.979 . S
C449 H476 0.980 . S
C449 H477 0.983 . S
C450 H426 0.948 . S
C450 C451 1.391 . S
C450 C455 1.391 . S
C451 C450 1.391 . S
C451 C452 1.391 . S
C452 H429 0.947 . S
C452 C451 1.391 . S
C452 C453 1.392 . S
C453 H430 0.948 . S
C453 C452 1.392 . S
C453 C454 1.419 . S
C454 C453 1.419 . S
C454 C455 1.391 . S
C454 C458 1.397 . S
C455 C450 1.391 . S
C455 C454 1.391 . S
C455 C456 1.399 . S
C456 C455 1.399 . S
C456 C457 1.396 . S
C456 C459 1.453 . S
C456 C460 1.684 . S
C457 C447 1.723 . S
C457 C456 1.396 . S
C457 C458 1.394 . S
C458 C428 1.723 . S
C458 C454 1.397 . S
C458 C457 1.394 . S
C459 H431 0.982 . S
C459 H435 0.979 . S
C459 H436 0.977 . S
C459 C456 1.453 . S
C460 H432 0.979 . S
C460 H433 0.980 . S
C460 H434 0.983 . S
C460 C456 1.684 . S
H461 C479 0.948 . S
H462 C420 0.948 . S
H463 C438 0.979 . S
H464 C438 0.980 . S
H465 C438 0.983 . S
H466 C437 0.982 . S
H467 C437 0.979 . S
H468 C437 0.977 . S
H469 C439 0.948 . S
H470 C441 0.947 . S
H471 C442 0.948 . S
H472 C448 0.982 . S
H473 C448 0.979 . S
H474 C448 0.977 . S
H475 C449 0.979 . S
H476 C449 0.980 . S
H477 C449 0.983 . S
H478 C422 0.947 . S
C479 C422 1.392 . S
C479 C423 1.419 . S
C479 H461 0.948 . S
C480 C481 1.391 . S
C480 C484 1.391 . S
C480 H522 0.948 . S
C481 C480 1.391 . S
C481 C482 1.391 . S
C482 C481 1.391 . S
C482 H538 0.947 . S
C482 C539 1.392 . S
C483 C484 1.391 . S
C483 C487 1.397 . S
C483 C539 1.419 . S
C484 C480 1.391 . S
C484 C483 1.391 . S
C484 C485 1.399 . S
C485 C484 1.399 . S
C485 C488 1.396 . S
C485 C497 1.453 . S
C485 C498 1.684 . S
H486 C510 0.948 . S
C487 C483 1.397 . S
C487 C488 1.394 . S
C487 C506 1.723 . S
C488 C485 1.396 . S
C488 C487 1.394 . S
C488 C518 1.723 . S
H489 C512 0.947 . S
H490 C513 0.948 . S
H491 C519 0.982 . S
H492 C520 0.979 . S
H493 C520 0.980 . S
H494 C520 0.983 . S
H495 C519 0.979 . S
H496 C519 0.977 . S
C497 C485 1.453 . S
C497 H526 0.982 . S
C497 H527 0.979 . S
C497 H528 0.977 . S
C498 C485 1.684 . S
C498 H523 0.979 . S
C498 H524 0.980 . S
C498 H525 0.983 . S
C499 C500 1.391 . S
C499 C504 1.391 . S
C499 H529 0.948 . S
C500 C499 1.391 . S
C500 C501 1.391 . S
C501 C500 1.391 . S
C501 C502 1.392 . S
C501 H530 0.947 . S
C502 C501 1.392 . S
C502 C503 1.419 . S
C502 H531 0.948 . S
C503 C502 1.419 . S
C503 C504 1.391 . S
C503 C507 1.397 . S
C504 C499 1.391 . S
C504 C503 1.391 . S
C504 C505 1.399 . S
C505 C504 1.399 . S
C505 C506 1.396 . S
C505 C508 1.453 . S
C505 C509 1.684 . S
C506 C487 1.723 . S
C506 C505 1.396 . S
C506 C507 1.394 . S
C507 C503 1.397 . S
C507 C506 1.394 . S
C507 C517 1.723 . S
C508 C505 1.453 . S
C508 H532 0.982 . S
C508 H533 0.979 . S
C508 H534 0.977 . S
C509 C505 1.684 . S
C509 H535 0.979 . S
C509 H536 0.980 . S
C509 H537 0.983 . S
C510 H486 0.948 . S
C510 C511 1.391 . S
C510 C515 1.391 . S
C511 C510 1.391 . S
C511 C512 1.391 . S
C512 H489 0.947 . S
C512 C511 1.391 . S
C512 C513 1.392 . S
C513 H490 0.948 . S
C513 C512 1.392 . S
C513 C514 1.419 . S
C514 C513 1.419 . S
C514 C515 1.391 . S
C514 C518 1.397 . S
C515 C510 1.391 . S
C515 C514 1.391 . S
C515 C516 1.399 . S
C516 C515 1.399 . S
C516 C517 1.396 . S
C516 C519 1.453 . S
C516 C520 1.684 . S
C517 C507 1.723 . S
C517 C516 1.396 . S
C517 C518 1.394 . S
C518 C488 1.723 . S
C518 C514 1.397 . S
C518 C517 1.394 . S
C519 H491 0.982 . S
C519 H495 0.979 . S
C519 H496 0.977 . S
C519 C516 1.453 . S
C520 H492 0.979 . S
C520 H493 0.980 . S
C520 H494 0.983 . S
C520 C516 1.684 . S
H521 C539 0.948 . S
H522 C480 0.948 . S
H523 C498 0.979 . S
H524 C498 0.980 . S
H525 C498 0.983 . S
H526 C497 0.982 . S
H527 C497 0.979 . S
H528 C497 0.977 . S
H529 C499 0.948 . S
H530 C501 0.947 . S
H531 C502 0.948 . S
H532 C508 0.982 . S
H533 C508 0.979 . S
H534 C508 0.977 . S
H535 C509 0.979 . S
H536 C509 0.980 . S
H537 C509 0.983 . S
H538 C482 0.947 . S
C539 C482 1.392 . S
C539 C483 1.419 . S
C539 H521 0.948 . S
C540 C541 1.391 . S
C540 C544 1.391 . S
C540 H582 0.948 . S
C541 C540 1.391 . S
C541 C542 1.391 . S
C542 C541 1.391 . S
C542 H598 0.947 . S
C542 C599 1.392 . S
C543 C544 1.391 . S
C543 C547 1.397 . S
C543 C599 1.419 . S
C544 C540 1.391 . S
C544 C543 1.391 . S
C544 C545 1.399 . S
C545 C544 1.399 . S
C545 C548 1.396 . S
C545 C557 1.453 . S
C545 C558 1.684 . S
H546 C570 0.948 . S
C547 C543 1.397 . S
C547 C548 1.394 . S
C547 C566 1.723 . S
C548 C545 1.396 . S
C548 C547 1.394 . S
C548 C578 1.723 . S
H549 C572 0.947 . S
H550 C573 0.948 . S
H551 C579 0.982 . S
H552 C580 0.979 . S
H553 C580 0.980 . S
H554 C580 0.983 . S
H555 C579 0.979 . S
H556 C579 0.977 . S
C557 C545 1.453 . S
C557 H586 0.982 . S
C557 H587 0.979 . S
C557 H588 0.977 . S
C558 C545 1.684 . S
C558 H583 0.979 . S
C558 H584 0.980 . S
C558 H585 0.983 . S
C559 C560 1.391 . S
C559 C564 1.391 . S
C559 H589 0.948 . S
C560 C559 1.391 . S
C560 C561 1.391 . S
C561 C560 1.391 . S
C561 C562 1.392 . S
C561 H590 0.947 . S
C562 C561 1.392 . S
C562 C563 1.419 . S
C562 H591 0.948 . S
C563 C562 1.419 . S
C563 C564 1.391 . S
C563 C567 1.397 . S
C564 C559 1.391 . S
C564 C563 1.391 . S
C564 C565 1.399 . S
C565 C564 1.399 . S
C565 C566 1.396 . S
C565 C568 1.453 . S
C565 C569 1.684 . S
C566 C547 1.723 . S
C566 C565 1.396 . S
C566 C567 1.394 . S
C567 C563 1.397 . S
C567 C566 1.394 . S
C567 C577 1.723 . S
C568 C565 1.453 . S
C568 H592 0.982 . S
C568 H593 0.979 . S
C568 H594 0.977 . S
C569 C565 1.684 . S
C569 H595 0.979 . S
C569 H596 0.980 . S
C569 H597 0.983 . S
C570 H546 0.948 . S
C570 C571 1.391 . S
C570 C575 1.391 . S
C571 C570 1.391 . S
C571 C572 1.391 . S
C572 H549 0.947 . S
C572 C571 1.391 . S
C572 C573 1.392 . S
C573 H550 0.948 . S
C573 C572 1.392 . S
C573 C574 1.419 . S
C574 C573 1.419 . S
C574 C575 1.391 . S
C574 C578 1.397 . S
C575 C570 1.391 . S
C575 C574 1.391 . S
C575 C576 1.399 . S
C576 C575 1.399 . S
C576 C577 1.396 . S
C576 C579 1.453 . S
C576 C580 1.684 . S
C577 C567 1.723 . S
C577 C576 1.396 . S
C577 C578 1.394 . S
C578 C548 1.723 . S
C578 C574 1.397 . S
C578 C577 1.394 . S
C579 H551 0.982 . S
C579 H555 0.979 . S
C579 H556 0.977 . S
C579 C576 1.453 . S
C580 H552 0.979 . S
C580 H553 0.980 . S
C580 H554 0.983 . S
C580 C576 1.684 . S
H581 C599 0.948 . S
H582 C540 0.948 . S
H583 C558 0.979 . S
H584 C558 0.980 . S
H585 C558 0.983 . S
H586 C557 0.982 . S
H587 C557 0.979 . S
H588 C557 0.977 . S
H589 C559 0.948 . S
H590 C561 0.947 . S
H591 C562 0.948 . S
H592 C568 0.982 . S
H593 C568 0.979 . S
H594 C568 0.977 . S
H595 C569 0.979 . S
H596 C569 0.980 . S
H597 C569 0.983 . S
H598 C542 0.947 . S
C599 C542 1.392 . S
C599 C543 1.419 . S
C599 H581 0.948 . S
C600 C601 1.391 . S
C600 C604 1.391 . S
C600 H642 0.948 . S
C601 C600 1.391 . S
C601 C602 1.391 . S
C602 C601 1.391 . S
C602 H658 0.947 . S
C602 C659 1.392 . S
C603 C604 1.391 . S
C603 C607 1.397 . S
C603 C659 1.419 . S
C604 C600 1.391 . S
C604 C603 1.391 . S
C604 C605 1.399 . S
C605 C604 1.399 . S
C605 C608 1.396 . S
C605 C617 1.453 . S
C605 C618 1.684 . S
H606 C630 0.948 . S
C607 C603 1.397 . S
C607 C608 1.394 . S
C607 C626 1.723 . S
C608 C605 1.396 . S
C608 C607 1.394 . S
C608 C638 1.723 . S
H609 C632 0.947 . S
H610 C633 0.948 . S
H611 C639 0.982 . S
H612 C640 0.979 . S
H613 C640 0.980 . S
H614 C640 0.983 . S
H615 C639 0.979 . S
H616 C639 0.977 . S
C617 C605 1.453 . S
C617 H646 0.982 . S
C617 H647 0.979 . S
C617 H648 0.977 . S
C618 C605 1.684 . S
C618 H643 0.979 . S
C618 H644 0.980 . S
C618 H645 0.983 . S
C619 C620 1.391 . S
C619 C624 1.391 . S
C619 H649 0.948 . S
C620 C619 1.391 . S
C620 C621 1.391 . S
C621 C620 1.391 . S
C621 C622 1.392 . S
C621 H650 0.947 . S
C622 C621 1.392 . S
C622 C623 1.419 . S
C622 H651 0.948 . S
C623 C622 1.419 . S
C623 C624 1.391 . S
C623 C627 1.397 . S
C624 C619 1.391 . S
C624 C623 1.391 . S
C624 C625 1.399 . S
C625 C624 1.399 . S
C625 C626 1.396 . S
C625 C628 1.453 . S
C625 C629 1.684 . S
C626 C607 1.723 . S
C626 C625 1.396 . S
C626 C627 1.394 . S
C627 C623 1.397 . S
C627 C626 1.394 . S
C627 C637 1.723 . S
C628 C625 1.453 . S
C628 H652 0.982 . S
C628 H653 0.979 . S
C628 H654 0.977 . S
C629 C625 1.684 . S
C629 H655 0.979 . S
C629 H656 0.980 . S
C629 H657 0.983 . S
C630 H606 0.948 . S
C630 C631 1.391 . S
C630 C635 1.391 . S
C631 C630 1.391 . S
C631 C632 1.391 . S
C632 H609 0.947 . S
C632 C631 1.391 . S
C632 C633 1.392 . S
C633 H610 0.948 . S
C633 C632 1.392 . S
C633 C634 1.419 . S
C634 C633 1.419 . S
C634 C635 1.391 . S
C634 C638 1.397 . S
C635 C630 1.391 . S
C635 C634 1.391 . S
C635 C636 1.399 . S
C636 C635 1.399 . S
C636 C637 1.396 . S
C636 C639 1.453 . S
C636 C640 1.684 . S
C637 C627 1.723 . S
C637 C636 1.396 . S
C637 C638 1.394 . S
C638 C608 1.723 . S
C638 C634 1.397 . S
C638 C637 1.394 . S
C639 H611 0.982 . S
C639 H615 0.979 . S
C639 H616 0.977 . S
C639 C636 1.453 . S
C640 H612 0.979 . S
C640 H613 0.980 . S
C640 H614 0.983 . S
C640 C636 1.684 . S
H641 C659 0.948 . S
H642 C600 0.948 . S
H643 C618 0.979 . S
H644 C618 0.980 . S
H645 C618 0.983 . S
H646 C617 0.982 . S
H647 C617 0.979 . S
H648 C617 0.977 . S
H649 C619 0.948 . S
H650 C621 0.947 . S
H651 C622 0.948 . S
H652 C628 0.982 . S
H653 C628 0.979 . S
H654 C628 0.977 . S
H655 C629 0.979 . S
H656 C629 0.980 . S
H657 C629 0.983 . S
H658 C602 0.947 . S
C659 C602 1.392 . S
C659 C603 1.419 . S
C659 H641 0.948 . S
C660 C661 1.391 . S
C660 C664 1.391 . S
C660 H702 0.948 . S
C661 C660 1.391 . S
C661 C662 1.391 . S
C662 C661 1.391 . S
C662 H718 0.947 . S
C662 C719 1.392 . S
C663 C664 1.391 . S
C663 C667 1.397 . S
C663 C719 1.419 . S
C664 C660 1.391 . S
C664 C663 1.391 . S
C664 C665 1.399 . S
C665 C664 1.399 . S
C665 C668 1.396 . S
C665 C677 1.453 . S
C665 C678 1.684 . S
H666 C690 0.948 . S
C667 C663 1.397 . S
C667 C668 1.394 . S
C667 C686 1.723 . S
C668 C665 1.396 . S
C668 C667 1.394 . S
C668 C698 1.723 . S
H669 C692 0.947 . S
H670 C693 0.948 . S
H671 C699 0.982 . S
H672 C700 0.979 . S
H673 C700 0.980 . S
H674 C700 0.983 . S
H675 C699 0.979 . S
H676 C699 0.977 . S
C677 C665 1.453 . S
C677 H706 0.982 . S
C677 H707 0.979 . S
C677 H708 0.977 . S
C678 C665 1.684 . S
C678 H703 0.979 . S
C678 H704 0.980 . S
C678 H705 0.983 . S
C679 C680 1.391 . S
C679 C684 1.391 . S
C679 H709 0.948 . S
C680 C679 1.391 . S
C680 C681 1.391 . S
C681 C680 1.391 . S
C681 C682 1.392 . S
C681 H710 0.947 . S
C682 C681 1.392 . S
C682 C683 1.419 . S
C682 H711 0.948 . S
C683 C682 1.419 . S
C683 C684 1.391 . S
C683 C687 1.397 . S
C684 C679 1.391 . S
C684 C683 1.391 . S
C684 C685 1.399 . S
C685 C684 1.399 . S
C685 C686 1.396 . S
C685 C688 1.453 . S
C685 C689 1.684 . S
C686 C667 1.723 . S
C686 C685 1.396 . S
C686 C687 1.394 . S
C687 C683 1.397 . S
C687 C686 1.394 . S
C687 C697 1.723 . S
C688 C685 1.453 . S
C688 H712 0.982 . S
C688 H713 0.979 . S
C688 H714 0.977 . S
C689 C685 1.684 . S
C689 H715 0.979 . S
C689 H716 0.980 . S
C689 H717 0.983 . S
C690 H666 0.948 . S
C690 C691 1.391 . S
C690 C695 1.391 . S
C691 C690 1.391 . S
C691 C692 1.391 . S
C692 H669 0.947 . S
C692 C691 1.391 . S
C692 C693 1.392 . S
C693 H670 0.948 . S
C693 C692 1.392 . S
C693 C694 1.419 . S
C694 C693 1.419 . S
C694 C695 1.391 . S
C694 C698 1.397 . S
C695 C690 1.391 . S
C695 C694 1.391 . S
C695 C696 1.399 . S
C696 C695 1.399 . S
C696 C697 1.396 . S
C696 C699 1.453 . S
C696 C700 1.684 . S
C697 C687 1.723 . S
C697 C696 1.396 . S
C697 C698 1.394 . S
C698 C668 1.723 . S
C698 C694 1.397 . S
C698 C697 1.394 . S
C699 H671 0.982 . S
C699 H675 0.979 . S
C699 H676 0.977 . S
C699 C696 1.453 . S
C700 H672 0.979 . S
C700 H673 0.980 . S
C700 H674 0.983 . S
C700 C696 1.684 . S
H701 C719 0.948 . S
H702 C660 0.948 . S
H703 C678 0.979 . S
H704 C678 0.980 . S
H705 C678 0.983 . S
H706 C677 0.982 . S
H707 C677 0.979 . S
H708 C677 0.977 . S
H709 C679 0.948 . S
H710 C681 0.947 . S
H711 C682 0.948 . S
H712 C688 0.982 . S
H713 C688 0.979 . S
H714 C688 0.977 . S
H715 C689 0.979 . S
H716 C689 0.980 . S
H717 C689 0.983 . S
H718 C662 0.947 . S
C719 C662 1.392 . S
C719 C663 1.419 . S
C719 H701 0.948 . S
C720 C721 1.391 . S
C720 C724 1.391 . S
C720 H762 0.948 . S
C721 C720 1.391 . S
C721 C722 1.391 . S
C722 C721 1.391 . S
C722 H778 0.947 . S
C722 C779 1.392 . S
C723 C724 1.391 . S
C723 C727 1.397 . S
C723 C779 1.419 . S
C724 C720 1.391 . S
C724 C723 1.391 . S
C724 C725 1.399 . S
C725 C724 1.399 . S
C725 C728 1.396 . S
C725 C737 1.453 . S
C725 C738 1.684 . S
H726 C750 0.948 . S
C727 C723 1.397 . S
C727 C728 1.394 . S
C727 C746 1.723 . S
C728 C725 1.396 . S
C728 C727 1.394 . S
C728 C758 1.723 . S
H729 C752 0.947 . S
H730 C753 0.948 . S
H731 C759 0.982 . S
H732 C760 0.979 . S
H733 C760 0.980 . S
H734 C760 0.983 . S
H735 C759 0.979 . S
H736 C759 0.977 . S
C737 C725 1.453 . S
C737 H766 0.982 . S
C737 H767 0.979 . S
C737 H768 0.977 . S
C738 C725 1.684 . S
C738 H763 0.979 . S
C738 H764 0.980 . S
C738 H765 0.983 . S
C739 C740 1.391 . S
C739 C744 1.391 . S
C739 H769 0.948 . S
C740 C739 1.391 . S
C740 C741 1.391 . S
C741 C740 1.391 . S
C741 C742 1.392 . S
C741 H770 0.947 . S
C742 C741 1.392 . S
C742 C743 1.419 . S
C742 H771 0.948 . S
C743 C742 1.419 . S
C743 C744 1.391 . S
C743 C747 1.397 . S
C744 C739 1.391 . S
C744 C743 1.391 . S
C744 C745 1.399 . S
C745 C744 1.399 . S
C745 C746 1.396 . S
C745 C748 1.453 . S
C745 C749 1.684 . S
C746 C727 1.723 . S
C746 C745 1.396 . S
C746 C747 1.394 . S
C747 C743 1.397 . S
C747 C746 1.394 . S
C747 C757 1.723 . S
C748 C745 1.453 . S
C748 H772 0.982 . S
C748 H773 0.979 . S
C748 H774 0.977 . S
C749 C745 1.684 . S
C749 H775 0.979 . S
C749 H776 0.980 . S
C749 H777 0.983 . S
C750 H726 0.948 . S
C750 C751 1.391 . S
C750 C755 1.391 . S
C751 C750 1.391 . S
C751 C752 1.391 . S
C752 H729 0.947 . S
C752 C751 1.391 . S
C752 C753 1.392 . S
C753 H730 0.948 . S
C753 C752 1.392 . S
C753 C754 1.419 . S
C754 C753 1.419 . S
C754 C755 1.391 . S
C754 C758 1.397 . S
C755 C750 1.391 . S
C755 C754 1.391 . S
C755 C756 1.399 . S
C756 C755 1.399 . S
C756 C757 1.396 . S
C756 C759 1.453 . S
C756 C760 1.684 . S
C757 C747 1.723 . S
C757 C756 1.396 . S
C757 C758 1.394 . S
C758 C728 1.723 . S
C758 C754 1.397 . S
C758 C757 1.394 . S
C759 H731 0.982 . S
C759 H735 0.979 . S
C759 H736 0.977 . S
C759 C756 1.453 . S
C760 H732 0.979 . S
C760 H733 0.980 . S
C760 H734 0.983 . S
C760 C756 1.684 . S
H761 C779 0.948 . S
H762 C720 0.948 . S
H763 C738 0.979 . S
H764 C738 0.980 . S
H765 C738 0.983 . S
H766 C737 0.982 . S
H767 C737 0.979 . S
H768 C737 0.977 . S
H769 C739 0.948 . S
H770 C741 0.947 . S
H771 C742 0.948 . S
H772 C748 0.982 . S
H773 C748 0.979 . S
H774 C748 0.977 . S
H775 C749 0.979 . S
H776 C749 0.980 . S
H777 C749 0.983 . S
H778 C722 0.947 . S
C779 C722 1.392 . S
C779 C723 1.419 . S
C779 H761 0.948 . S
C780 C781 1.391 . S
C780 C784 1.391 . S
C780 H822 0.948 . S
C781 C780 1.391 . S
C781 C782 1.391 . S
C782 C781 1.391 . S
C782 H838 0.947 . S
C782 C839 1.392 . S
C783 C784 1.391 . S
C783 C787 1.397 . S
C783 C839 1.419 . S
C784 C780 1.391 . S
C784 C783 1.391 . S
C784 C785 1.399 . S
C785 C784 1.399 . S
C785 C788 1.396 . S
C785 C797 1.453 . S
C785 C798 1.684 . S
H786 C810 0.948 . S
C787 C783 1.397 . S
C787 C788 1.394 . S
C787 C806 1.723 . S
C788 C785 1.396 . S
C788 C787 1.394 . S
C788 C818 1.723 . S
H789 C812 0.947 . S
H790 C813 0.948 . S
H791 C819 0.982 . S
H792 C820 0.979 . S
H793 C820 0.980 . S
H794 C820 0.983 . S
H795 C819 0.979 . S
H796 C819 0.977 . S
C797 C785 1.453 . S
C797 H826 0.982 . S
C797 H827 0.979 . S
C797 H828 0.977 . S
C798 C785 1.684 . S
C798 H823 0.979 . S
C798 H824 0.980 . S
C798 H825 0.983 . S
C799 C800 1.391 . S
C799 C804 1.391 . S
C799 H829 0.948 . S
C800 C799 1.391 . S
C800 C801 1.391 . S
C801 C800 1.391 . S
C801 C802 1.392 . S
C801 H830 0.947 . S
C802 C801 1.392 . S
C802 C803 1.419 . S
C802 H831 0.948 . S
C803 C802 1.419 . S
C803 C804 1.391 . S
C803 C807 1.397 . S
C804 C799 1.391 . S
C804 C803 1.391 . S
C804 C805 1.399 . S
C805 C804 1.399 . S
C805 C806 1.396 . S
C805 C808 1.453 . S
C805 C809 1.684 . S
C806 C787 1.723 . S
C806 C805 1.396 . S
C806 C807 1.394 . S
C807 C803 1.397 . S
C807 C806 1.394 . S
C807 C817 1.723 . S
C808 C805 1.453 . S
C808 H832 0.982 . S
C808 H833 0.979 . S
C808 H834 0.977 . S
C809 C805 1.684 . S
C809 H835 0.979 . S
C809 H836 0.980 . S
C809 H837 0.983 . S
C810 H786 0.948 . S
C810 C811 1.391 . S
C810 C815 1.391 . S
C811 C810 1.391 . S
C811 C812 1.391 . S
C812 H789 0.947 . S
C812 C811 1.391 . S
C812 C813 1.392 . S
C813 H790 0.948 . S
C813 C812 1.392 . S
C813 C814 1.419 . S
C814 C813 1.419 . S
C814 C815 1.391 . S
C814 C818 1.397 . S
C815 C810 1.391 . S
C815 C814 1.391 . S
C815 C816 1.399 . S
C816 C815 1.399 . S
C816 C817 1.396 . S
C816 C819 1.453 . S
C816 C820 1.684 . S
C817 C807 1.723 . S
C817 C816 1.396 . S
C817 C818 1.394 . S
C818 C788 1.723 . S
C818 C814 1.397 . S
C818 C817 1.394 . S
C819 H791 0.982 . S
C819 H795 0.979 . S
C819 H796 0.977 . S
C819 C816 1.453 . S
C820 H792 0.979 . S
C820 H793 0.980 . S
C820 H794 0.983 . S
C820 C816 1.684 . S
H821 C839 0.948 . S
H822 C780 0.948 . S
H823 C798 0.979 . S
H824 C798 0.980 . S
H825 C798 0.983 . S
H826 C797 0.982 . S
H827 C797 0.979 . S
H828 C797 0.977 . S
H829 C799 0.948 . S
H830 C801 0.947 . S
H831 C802 0.948 . S
H832 C808 0.982 . S
H833 C808 0.979 . S
H834 C808 0.977 . S
H835 C809 0.979 . S
H836 C809 0.980 . S
H837 C809 0.983 . S
H838 C782 0.947 . S
C839 C782 1.392 . S
C839 C783 1.419 . S
C839 H821 0.948 . S
C840 C841 1.391 . S
C840 C844 1.391 . S
C840 H882 0.948 . S
C841 C840 1.391 . S
C841 C842 1.391 . S
C842 C841 1.391 . S
C842 H898 0.947 . S
C842 C899 1.392 . S
C843 C844 1.391 . S
C843 C847 1.397 . S
C843 C899 1.419 . S
C844 C840 1.391 . S
C844 C843 1.391 . S
C844 C845 1.399 . S
C845 C844 1.399 . S
C845 C848 1.396 . S
C845 C857 1.453 . S
C845 C858 1.684 . S
H846 C870 0.948 . S
C847 C843 1.397 . S
C847 C848 1.394 . S
C847 C866 1.723 . S
C848 C845 1.396 . S
C848 C847 1.394 . S
C848 C878 1.723 . S
H849 C872 0.947 . S
H850 C873 0.948 . S
H851 C879 0.982 . S
H852 C880 0.979 . S
H853 C880 0.980 . S
H854 C880 0.983 . S
H855 C879 0.979 . S
H856 C879 0.977 . S
C857 C845 1.453 . S
C857 H886 0.982 . S
C857 H887 0.979 . S
C857 H888 0.977 . S
C858 C845 1.684 . S
C858 H883 0.979 . S
C858 H884 0.980 . S
C858 H885 0.983 . S
C859 C860 1.391 . S
C859 C864 1.391 . S
C859 H889 0.948 . S
C860 C859 1.391 . S
C860 C861 1.391 . S
C861 C860 1.391 . S
C861 C862 1.392 . S
C861 H890 0.947 . S
C862 C861 1.392 . S
C862 C863 1.419 . S
C862 H891 0.948 . S
C863 C862 1.419 . S
C863 C864 1.391 . S
C863 C867 1.397 . S
C864 C859 1.391 . S
C864 C863 1.391 . S
C864 C865 1.399 . S
C865 C864 1.399 . S
C865 C866 1.396 . S
C865 C868 1.453 . S
C865 C869 1.684 . S
C866 C847 1.723 . S
C866 C865 1.396 . S
C866 C867 1.394 . S
C867 C863 1.397 . S
C867 C866 1.394 . S
C867 C877 1.723 . S
C868 C865 1.453 . S
C868 H892 0.982 . S
C868 H893 0.979 . S
C868 H894 0.977 . S
C869 C865 1.684 . S
C869 H895 0.979 . S
C869 H896 0.980 . S
C869 H897 0.983 . S
C870 H846 0.948 . S
C870 C871 1.391 . S
C870 C875 1.391 . S
C871 C870 1.391 . S
C871 C872 1.391 . S
C872 H849 0.947 . S
C872 C871 1.391 . S
C872 C873 1.392 . S
C873 H850 0.948 . S
C873 C872 1.392 . S
C873 C874 1.419 . S
C874 C873 1.419 . S
C874 C875 1.391 . S
C874 C878 1.397 . S
C875 C870 1.391 . S
C875 C874 1.391 . S
C875 C876 1.399 . S
C876 C875 1.399 . S
C876 C877 1.396 . S
C876 C879 1.453 . S
C876 C880 1.684 . S
C877 C867 1.723 . S
C877 C876 1.396 . S
C877 C878 1.394 . S
C878 C848 1.723 . S
C878 C874 1.397 . S
C878 C877 1.394 . S
C879 H851 0.982 . S
C879 H855 0.979 . S
C879 H856 0.977 . S
C879 C876 1.453 . S
C880 H852 0.979 . S
C880 H853 0.980 . S
C880 H854 0.983 . S
C880 C876 1.684 . S
H881 C899 0.948 . S
H882 C840 0.948 . S
H883 C858 0.979 . S
H884 C858 0.980 . S
H885 C858 0.983 . S
H886 C857 0.982 . S
H887 C857 0.979 . S
H888 C857 0.977 . S
H889 C859 0.948 . S
H890 C861 0.947 . S
H891 C862 0.948 . S
H892 C868 0.982 . S
H893 C868 0.979 . S
H894 C868 0.977 . S
H895 C869 0.979 . S
H896 C869 0.980 . S
H897 C869 0.983 . S
H898 C842 0.947 . S
C899 C842 1.392 . S
C899 C843 1.419 . S
C899 H881 0.948 . S
C900 C901 1.391 . S
C900 C904 1.391 . S
C900 H942 0.948 . S
C901 C900 1.391 . S
C901 C902 1.391 . S
C902 C901 1.391 . S
C902 H958 0.947 . S
C902 C959 1.392 . S
C903 C904 1.391 . S
C903 C907 1.397 . S
C903 C959 1.419 . S
C904 C900 1.391 . S
C904 C903 1.391 . S
C904 C905 1.399 . S
C905 C904 1.399 . S
C905 C908 1.396 . S
C905 C917 1.453 . S
C905 C918 1.684 . S
H906 C930 0.948 . S
C907 C903 1.397 . S
C907 C908 1.394 . S
C907 C926 1.723 . S
C908 C905 1.396 . S
C908 C907 1.394 . S
C908 C938 1.723 . S
H909 C932 0.947 . S
H910 C933 0.948 . S
H911 C939 0.982 . S
H912 C940 0.979 . S
H913 C940 0.980 . S
H914 C940 0.983 . S
H915 C939 0.979 . S
H916 C939 0.977 . S
C917 C905 1.453 . S
C917 H946 0.982 . S
C917 H947 0.979 . S
C917 H948 0.977 . S
C918 C905 1.684 . S
C918 H943 0.979 . S
C918 H944 0.980 . S
C918 H945 0.983 . S
C919 C920 1.391 . S
C919 C924 1.391 . S
C919 H949 0.948 . S
C920 C919 1.391 . S
C920 C921 1.391 . S
C921 C920 1.391 . S
C921 C922 1.392 . S
C921 H950 0.947 . S
C922 C921 1.392 . S
C922 C923 1.419 . S
C922 H951 0.948 . S
C923 C922 1.419 . S
C923 C924 1.391 . S
C923 C927 1.397 . S
C924 C919 1.391 . S
C924 C923 1.391 . S
C924 C925 1.399 . S
C925 C924 1.399 . S
C925 C926 1.396 . S
C925 C928 1.453 . S
C925 C929 1.684 . S
C926 C907 1.723 . S
C926 C925 1.396 . S
C926 C927 1.394 . S
C927 C923 1.397 . S
C927 C926 1.394 . S
C927 C937 1.723 . S
C928 C925 1.453 . S
C928 H952 0.982 . S
C928 H953 0.979 . S
C928 H954 0.977 . S
C929 C925 1.684 . S
C929 H955 0.979 . S
C929 H956 0.980 . S
C929 H957 0.983 . S
C930 H906 0.948 . S
C930 C931 1.391 . S
C930 C935 1.391 . S
C931 C930 1.391 . S
C931 C932 1.391 . S
C932 H909 0.947 . S
C932 C931 1.391 . S
C932 C933 1.392 . S
C933 H910 0.948 . S
C933 C932 1.392 . S
C933 C934 1.419 . S
C934 C933 1.419 . S
C934 C935 1.391 . S
C934 C938 1.397 . S
C935 C930 1.391 . S
C935 C934 1.391 . S
C935 C936 1.399 . S
C936 C935 1.399 . S
C936 C937 1.396 . S
C936 C939 1.453 . S
C936 C940 1.684 . S
C937 C927 1.723 . S
C937 C936 1.396 . S
C937 C938 1.394 . S
C938 C908 1.723 . S
C938 C934 1.397 . S
C938 C937 1.394 . S
C939 H911 0.982 . S
C939 H915 0.979 . S
C939 H916 0.977 . S
C939 C936 1.453 . S
C940 H912 0.979 . S
C940 H913 0.980 . S
C940 H914 0.983 . S
C940 C936 1.684 . S
H941 C959 0.948 . S
H942 C900 0.948 . S
H943 C918 0.979 . S
H944 C918 0.980 . S
H945 C918 0.983 . S
H946 C917 0.982 . S
H947 C917 0.979 . S
H948 C917 0.977 . S
H949 C919 0.948 . S
H950 C921 0.947 . S
H951 C922 0.948 . S
H952 C928 0.982 . S
H953 C928 0.979 . S
H954 C928 0.977 . S
H955 C929 0.979 . S
H956 C929 0.980 . S
H957 C929 0.983 . S
H958 C902 0.947 . S
C959 C902 1.392 . S
C959 C903 1.419 . S
C959 H941 0.948 . S
C960 C961 1.391 . S
C960 C964 1.391 . S
C960 H1002 0.948 . S
C961 C960 1.391 . S
C961 C962 1.391 . S
C962 C961 1.391 . S
C962 H1018 0.947 . S
C962 C1019 1.392 . S
C963 C964 1.391 . S
C963 C967 1.397 . S
C963 C1019 1.419 . S
C964 C960 1.391 . S
C964 C963 1.391 . S
C964 C965 1.399 . S
C965 C964 1.399 . S
C965 C968 1.396 . S
C965 C977 1.453 . S
C965 C978 1.684 . S
H966 C990 0.948 . S
C967 C963 1.397 . S
C967 C968 1.394 . S
C967 C986 1.723 . S
C968 C965 1.396 . S
C968 C967 1.394 . S
C968 C998 1.723 . S
H969 C992 0.947 . S
H970 C993 0.948 . S
H971 C999 0.982 . S
H972 C1000 0.979 . S
H973 C1000 0.980 . S
H974 C1000 0.983 . S
H975 C999 0.979 . S
H976 C999 0.977 . S
C977 C965 1.453 . S
C977 H1006 0.982 . S
C977 H1007 0.979 . S
C977 H1008 0.977 . S
C978 C965 1.684 . S
C978 H1003 0.979 . S
C978 H1004 0.980 . S
C978 H1005 0.983 . S
C979 C980 1.391 . S
C979 C984 1.391 . S
C979 H1009 0.948 . S
C980 C979 1.391 . S
C980 C981 1.391 . S
C981 C980 1.391 . S
C981 C982 1.392 . S
C981 H1010 0.947 . S
C982 C981 1.392 . S
C982 C983 1.419 . S
C982 H1011 0.948 . S
C983 C982 1.419 . S
C983 C984 1.391 . S
C983 C987 1.397 . S
C984 C979 1.391 . S
C984 C983 1.391 . S
C984 C985 1.399 . S
C985 C984 1.399 . S
C985 C986 1.396 . S
C985 C988 1.453 . S
C985 C989 1.684 . S
C986 C967 1.723 . S
C986 C985 1.396 . S
C986 C987 1.394 . S
C987 C983 1.397 . S
C987 C986 1.394 . S
C987 C997 1.723 . S
C988 C985 1.453 . S
C988 H1012 0.982 . S
C988 H1013 0.979 . S
C988 H1014 0.977 . S
C989 C985 1.684 . S
C989 H1015 0.979 . S
C989 H1016 0.980 . S
C989 H1017 0.983 . S
C990 H966 0.948 . S
C990 C991 1.391 . S
C990 C995 1.391 . S
C991 C990 1.391 . S
C991 C992 1.391 . S
C992 H969 0.947 . S
C992 C991 1.391 . S
C992 C993 1.392 . S
C993 H970 0.948 . S
C993 C992 1.392 . S
C993 C994 1.419 . S
C994 C993 1.419 . S
C994 C995 1.391 . S
C994 C998 1.397 . S
C995 C990 1.391 . S
C995 C994 1.391 . S
C995 C996 1.399 . S
C996 C995 1.399 . S
C996 C997 1.396 . S
C996 C999 1.453 . S
C996 C1000 1.684 . S
C997 C987 1.723 . S
C997 C996 1.396 . S
C997 C998 1.394 . S
C998 C968 1.723 . S
C998 C994 1.397 . S
C998 C997 1.394 . S
C999 H971 0.982 . S
C999 H975 0.979 . S
C999 H976 0.977 . S
C999 C996 1.453 . S
C1000 H972 0.979 . S
C1000 H973 0.980 . S
C1000 H974 0.983 . S
C1000 C996 1.684 . S
H1001 C1019 0.948 . S
H1002 C960 0.948 . S
H1003 C978 0.979 . S
H1004 C978 0.980 . S
H1005 C978 0.983 . S
H1006 C977 0.982 . S
H1007 C977 0.979 . S
H1008 C977 0.977 . S
H1009 C979 0.948 . S
H1010 C981 0.947 . S
H1011 C982 0.948 . S
H1012 C988 0.982 . S
H1013 C988 0.979 . S
H1014 C988 0.977 . S
H1015 C989 0.979 . S
H1016 C989 0.980 . S
H1017 C989 0.983 . S
H1018 C962 0.947 . S
C1019 C962 1.392 . S
C1019 C963 1.419 . S
C1019 H1001 0.948 . S
C1020 C1021 1.391 . S
C1020 C1024 1.391 . S
C1020 H1062 0.948 . S
C1021 C1020 1.391 . S
C1021 C1022 1.391 . S
C1022 C1021 1.391 . S
C1022 H1078 0.947 . S
C1022 C1079 1.392 . S
C1023 C1024 1.391 . S
C1023 C1027 1.397 . S
C1023 C1079 1.419 . S
C1024 C1020 1.391 . S
C1024 C1023 1.391 . S
C1024 C1025 1.399 . S
C1025 C1024 1.399 . S
C1025 C1028 1.396 . S
C1025 C1037 1.453 . S
C1025 C1038 1.684 . S
H1026 C1050 0.948 . S
C1027 C1023 1.397 . S
C1027 C1028 1.394 . S
C1027 C1046 1.723 . S
C1028 C1025 1.396 . S
C1028 C1027 1.394 . S
C1028 C1058 1.723 . S
H1029 C1052 0.947 . S
H1030 C1053 0.948 . S
H1031 C1059 0.982 . S
H1032 C1060 0.979 . S
H1033 C1060 0.980 . S
H1034 C1060 0.983 . S
H1035 C1059 0.979 . S
H1036 C1059 0.977 . S
C1037 C1025 1.453 . S
C1037 H1066 0.982 . S
C1037 H1067 0.979 . S
C1037 H1068 0.977 . S
C1038 C1025 1.684 . S
C1038 H1063 0.979 . S
C1038 H1064 0.980 . S
C1038 H1065 0.983 . S
C1039 C1040 1.391 . S
C1039 C1044 1.391 . S
C1039 H1069 0.948 . S
C1040 C1039 1.391 . S
C1040 C1041 1.391 . S
C1041 C1040 1.391 . S
C1041 C1042 1.392 . S
C1041 H1070 0.947 . S
C1042 C1041 1.392 . S
C1042 C1043 1.419 . S
C1042 H1071 0.948 . S
C1043 C1042 1.419 . S
C1043 C1044 1.391 . S
C1043 C1047 1.397 . S
C1044 C1039 1.391 . S
C1044 C1043 1.391 . S
C1044 C1045 1.399 . S
C1045 C1044 1.399 . S
C1045 C1046 1.396 . S
C1045 C1048 1.453 . S
C1045 C1049 1.684 . S
C1046 C1027 1.723 . S
C1046 C1045 1.396 . S
C1046 C1047 1.394 . S
C1047 C1043 1.397 . S
C1047 C1046 1.394 . S
C1047 C1057 1.723 . S
C1048 C1045 1.453 . S
C1048 H1072 0.982 . S
C1048 H1073 0.979 . S
C1048 H1074 0.977 . S
C1049 C1045 1.684 . S
C1049 H1075 0.979 . S
C1049 H1076 0.980 . S
C1049 H1077 0.983 . S
C1050 H1026 0.948 . S
C1050 C1051 1.391 . S
C1050 C1055 1.391 . S
C1051 C1050 1.391 . S
C1051 C1052 1.391 . S
C1052 H1029 0.947 . S
C1052 C1051 1.391 . S
C1052 C1053 1.392 . S
C1053 H1030 0.948 . S
C1053 C1052 1.392 . S
C1053 C1054 1.419 . S
C1054 C1053 1.419 . S
C1054 C1055 1.391 . S
C1054 C1058 1.397 . S
C1055 C1050 1.391 . S
C1055 C1054 1.391 . S
C1055 C1056 1.399 . S
C1056 C1055 1.399 . S
C1056 C1057 1.396 . S
C1056 C1059 1.453 . S
C1056 C1060 1.684 . S
C1057 C1047 1.723 . S
C1057 C1056 1.396 . S
C1057 C1058 1.394 . S
C1058 C1028 1.723 . S
C1058 C1054 1.397 . S
C1058 C1057 1.394 . S
C1059 H1031 0.982 . S
C1059 H1035 0.979 . S
C1059 H1036 0.977 . S
C1059 C1056 1.453 . S
C1060 H1032 0.979 . S
C1060 H1033 0.980 . S
C1060 H1034 0.983 . S
C1060 C1056 1.684 . S
H1061 C1079 0.948 . S
H1062 C1020 0.948 . S
H1063 C1038 0.979 . S
H1064 C1038 0.980 . S
H1065 C1038 0.983 . S
H1066 C1037 0.982 . S
H1067 C1037 0.979 . S
H1068 C1037 0.977 . S
H1069 C1039 0.948 . S
H1070 C1041 0.947 . S
H1071 C1042 0.948 . S
H1072 C1048 0.982 . S
H1073 C1048 0.979 . S
H1074 C1048 0.977 . S
H1075 C1049 0.979 . S
H1076 C1049 0.980 . S
H1077 C1049 0.983 . S
H1078 C1022 0.947 . S
C1079 C1022 1.392 . S
C1079 C1023 1.419 . S
C1079 H1061 0.948 . S
Tb1080 O1083 2.453 . S
Tb1080 O1084 2.596 1_545 S
Tb1080 O1085 2.374 1_545 S
Tb1080 O1093 2.343 1_554 S
Tb1080 O1095 2.353 . S
Tb1080 O1097 2.427 1_554 S
Tb1080 O1098 2.513 1_554 S
C1081 O1085 1.251 . S
C1081 O1087 1.263 1_554 S
Tb1082 O1084 2.343 1_556 S
Tb1082 O1087 2.353 . S
Tb1082 O1090 2.427 1_556 S
Tb1082 O1091 2.513 1_556 S
Tb1082 O1092 2.453 . S
Tb1082 O1093 2.596 1_565 S
Tb1082 O1094 2.374 1_565 S
O1083 Tb1080 2.453 . S
O1083 C1099 1.245 . S
O1084 Tb1080 2.596 1_565 S
O1084 Tb1082 2.343 1_554 S
O1084 C1099 1.259 1_565 S
O1085 Tb1080 2.374 1_565 S
O1085 C1081 1.251 . S
C1086 O1090 1.275 . S
C1086 O1091 1.246 . S
O1087 C1081 1.263 1_556 S
O1087 Tb1082 2.353 . S
C1088 O1092 1.245 . S
C1088 O1093 1.259 1_565 S
C1089 O1094 1.250 . S
C1089 O1095 1.263 1_556 S
O1090 Tb1082 2.427 1_554 S
O1090 C1086 1.275 . S
O1091 Tb1082 2.513 1_554 S
O1091 C1086 1.246 . S
O1092 Tb1082 2.453 . S
O1092 C1088 1.245 . S
O1093 Tb1080 2.343 1_556 S
O1093 Tb1082 2.596 1_545 S
O1093 C1088 1.259 1_545 S
O1094 Tb1082 2.374 1_545 S
O1094 C1089 1.250 . S
O1095 Tb1080 2.353 . S
O1095 C1089 1.263 1_554 S
C1096 O1097 1.275 . S
C1096 O1098 1.246 . S
O1097 Tb1080 2.427 1_556 S
O1097 C1096 1.275 . S
O1098 Tb1080 2.513 1_556 S
O1098 C1096 1.246 . S
C1099 O1083 1.245 . S
C1099 O1084 1.259 1_545 S
Tb1100 O1103 2.453 . S
Tb1100 O1104 2.596 1_655 S
Tb1100 O1105 2.374 1_655 S
Tb1100 O1113 2.343 1_554 S
Tb1100 O1115 2.353 1_554 S
Tb1100 O1117 2.427 1_554 S
Tb1100 O1118 2.513 1_554 S
C1101 O1105 1.251 . S
C1101 O1107 1.263 . S
Tb1102 O1104 2.343 1_556 S
Tb1102 O1107 2.353 1_556 S
Tb1102 O1110 2.427 1_556 S
Tb1102 O1111 2.513 1_556 S
Tb1102 O1112 2.453 . S
Tb1102 O1113 2.596 1_455 S
Tb1102 O1114 2.374 1_455 S
O1103 Tb1100 2.453 . S
O1103 C1119 1.245 1_655 S
O1104 Tb1100 2.596 1_455 S
O1104 Tb1102 2.343 1_554 S
O1104 C1119 1.259 . S
O1105 Tb1100 2.374 1_455 S
O1105 C1101 1.251 . S
C1106 O1110 1.275 . S
C1106 O1111 1.246 . S
O1107 C1101 1.263 . S
O1107 Tb1102 2.353 1_554 S
C1108 O1112 1.245 1_655 S
C1108 O1113 1.259 . S
C1109 O1114 1.250 . S
C1109 O1115 1.263 . S
O1110 Tb1102 2.427 1_554 S
O1110 C1106 1.275 . S
O1111 Tb1102 2.513 1_554 S
O1111 C1106 1.246 . S
O1112 Tb1102 2.453 . S
O1112 C1108 1.245 1_455 S
O1113 Tb1100 2.343 1_556 S
O1113 Tb1102 2.596 1_655 S
O1113 C1108 1.259 . S
O1114 Tb1102 2.374 1_655 S
O1114 C1109 1.250 . S
O1115 Tb1100 2.353 1_556 S
O1115 C1109 1.263 . S
C1116 O1117 1.275 . S
C1116 O1118 1.246 . S
O1117 Tb1100 2.427 1_556 S
O1117 C1116 1.275 . S
O1118 Tb1100 2.513 1_556 S
O1118 C1116 1.246 . S
C1119 O1103 1.245 1_455 S
C1119 O1104 1.259 . S
Tb1120 O1123 2.453 . S
Tb1120 O1124 2.596 . S
Tb1120 O1125 2.374 . S
Tb1120 O1133 2.343 1_556 S
Tb1120 O1135 2.350 1_556 S
Tb1120 O1137 2.427 1_556 S
Tb1120 O1138 2.513 1_556 S
C1121 O1125 1.251 . S
C1121 O1127 1.250 1_556 S
Tb1122 O1124 2.343 1_554 S
Tb1122 O1127 2.357 . S
Tb1122 O1130 2.427 1_554 S
Tb1122 O1131 2.513 1_554 S
Tb1122 O1132 2.453 . S
Tb1122 O1133 2.596 . S
Tb1122 O1134 2.374 . S
O1123 Tb1120 2.453 . S
O1123 C1139 1.245 . S
O1124 Tb1120 2.596 . S
O1124 Tb1122 2.343 1_556 S
O1124 C1139 1.259 . S
O1125 Tb1120 2.374 . S
O1125 C1121 1.251 . S
C1126 O1130 1.275 . S
C1126 O1131 1.246 . S
O1127 C1121 1.250 1_554 S
O1127 Tb1122 2.357 . S
C1128 O1132 1.245 . S
C1128 O1133 1.259 . S
C1129 O1134 1.250 . S
C1129 O1135 1.275 . S
O1130 Tb1122 2.427 1_556 S
O1130 C1126 1.275 . S
O1131 Tb1122 2.513 1_556 S
O1131 C1126 1.246 . S
O1132 Tb1122 2.453 . S
O1132 C1128 1.245 . S
O1133 Tb1120 2.343 1_554 S
O1133 Tb1122 2.596 . S
O1133 C1128 1.259 . S
O1134 Tb1122 2.374 . S
O1134 C1129 1.250 . S
O1135 Tb1120 2.350 1_554 S
O1135 C1129 1.275 . S
C1136 O1137 1.275 . S
C1136 O1138 1.246 . S
O1137 Tb1120 2.427 1_554 S
O1137 C1136 1.275 . S
O1138 Tb1120 2.513 1_554 S
O1138 C1136 1.246 . S
C1139 O1123 1.245 . S
C1139 O1124 1.259 . S
Tb1140 O1143 2.453 . S
Tb1140 O1144 2.596 . S
Tb1140 O1145 2.374 . S
Tb1140 O1153 2.343 . S
Tb1140 O1155 2.353 . S
Tb1140 O1157 2.427 . S
Tb1140 O1158 2.513 . S
C1141 O1145 1.251 . S
C1141 O1147 1.263 . S
Tb1142 O1144 2.343 . S
Tb1142 O1147 2.353 . S
Tb1142 O1150 2.427 . S
Tb1142 O1151 2.513 . S
Tb1142 O1152 2.453 . S
Tb1142 O1153 2.596 . S
Tb1142 O1154 2.374 . S
O1143 Tb1140 2.453 . S
O1143 C1159 1.245 . S
O1144 Tb1140 2.596 . S
O1144 Tb1142 2.343 . S
O1144 C1159 1.259 . S
O1145 Tb1140 2.374 . S
O1145 C1141 1.251 . S
C1146 O1150 1.275 . S
C1146 O1151 1.246 . S
O1147 C1141 1.263 . S
O1147 Tb1142 2.353 . S
C1148 O1152 1.245 . S
C1148 O1153 1.259 . S
C1149 O1154 1.250 . S
C1149 O1155 1.263 . S
O1150 Tb1142 2.427 . S
O1150 C1146 1.275 . S
O1151 Tb1142 2.513 . S
O1151 C1146 1.246 . S
O1152 Tb1142 2.453 . S
O1152 C1148 1.245 . S
O1153 Tb1140 2.343 . S
O1153 Tb1142 2.596 . S
O1153 C1148 1.259 . S
O1154 Tb1142 2.374 . S
O1154 C1149 1.250 . S
O1155 Tb1140 2.353 . S
O1155 C1149 1.263 . S
C1156 O1157 1.275 . S
C1156 O1158 1.246 . S
O1157 Tb1140 2.427 . S
O1157 C1156 1.275 . S
O1158 Tb1140 2.513 . S
O1158 C1156 1.246 . S
C1159 O1143 1.245 . S
C1159 O1144 1.259 . S
Tb1160 O1163 2.453 . S
Tb1160 O1164 2.596 . S
Tb1160 O1165 2.374 . S
Tb1160 O1173 2.343 . S
Tb1160 O1175 2.353 . S
Tb1160 O1177 2.427 . S
Tb1160 O1178 2.513 . S
C1161 O1165 1.251 . S
C1161 O1167 1.263 . S
Tb1162 O1164 2.343 . S
Tb1162 O1167 2.353 . S
Tb1162 O1170 2.427 . S
Tb1162 O1171 2.513 . S
Tb1162 O1172 2.453 . S
Tb1162 O1173 2.596 . S
Tb1162 O1174 2.374 . S
O1163 Tb1160 2.453 . S
O1163 C1179 1.245 . S
O1164 Tb1160 2.596 . S
O1164 Tb1162 2.343 . S
O1164 C1179 1.259 . S
O1165 Tb1160 2.374 . S
O1165 C1161 1.251 . S
C1166 O1170 1.275 . S
C1166 O1171 1.246 . S
O1167 C1161 1.263 . S
O1167 Tb1162 2.353 . S
C1168 O1172 1.245 . S
C1168 O1173 1.259 . S
C1169 O1174 1.250 . S
C1169 O1175 1.263 . S
O1170 Tb1162 2.427 . S
O1170 C1166 1.275 . S
O1171 Tb1162 2.513 . S
O1171 C1166 1.246 . S
O1172 Tb1162 2.453 . S
O1172 C1168 1.245 . S
O1173 Tb1160 2.343 . S
O1173 Tb1162 2.596 . S
O1173 C1168 1.259 . S
O1174 Tb1162 2.374 . S
O1174 C1169 1.250 . S
O1175 Tb1160 2.353 . S
O1175 C1169 1.263 . S
C1176 O1177 1.275 . S
C1176 O1178 1.246 . S
O1177 Tb1160 2.427 . S
O1177 C1176 1.275 . S
O1178 Tb1160 2.513 . S
O1178 C1176 1.246 . S
C1179 O1163 1.245 . S
C1179 O1164 1.259 . S
Tb1180 O1183 2.453 . S
Tb1180 O1184 2.596 . S
Tb1180 O1185 2.374 . S
Tb1180 O1193 2.343 . S
Tb1180 O1195 2.353 . S
Tb1180 O1197 2.427 . S
Tb1180 O1198 2.513 . S
C1181 O1185 1.251 . S
C1181 O1187 1.263 . S
Tb1182 O1184 2.343 . S
Tb1182 O1187 2.353 . S
Tb1182 O1190 2.427 . S
Tb1182 O1191 2.513 . S
Tb1182 O1192 2.453 . S
Tb1182 O1193 2.596 . S
Tb1182 O1194 2.374 . S
O1183 Tb1180 2.453 . S
O1183 C1199 1.245 . S
O1184 Tb1180 2.596 . S
O1184 Tb1182 2.343 . S
O1184 C1199 1.259 . S
O1185 Tb1180 2.374 . S
O1185 C1181 1.251 . S
C1186 O1190 1.275 . S
C1186 O1191 1.246 . S
O1187 C1181 1.263 . S
O1187 Tb1182 2.353 . S
C1188 O1192 1.245 . S
C1188 O1193 1.259 . S
C1189 O1194 1.250 . S
C1189 O1195 1.263 . S
O1190 Tb1182 2.427 . S
O1190 C1186 1.275 . S
O1191 Tb1182 2.513 . S
O1191 C1186 1.246 . S
O1192 Tb1182 2.453 . S
O1192 C1188 1.245 . S
O1193 Tb1180 2.343 . S
O1193 Tb1182 2.596 . S
O1193 C1188 1.259 . S
O1194 Tb1182 2.374 . S
O1194 C1189 1.250 . S
O1195 Tb1180 2.353 . S
O1195 C1189 1.263 . S
C1196 O1197 1.275 . S
C1196 O1198 1.246 . S
O1197 Tb1180 2.427 . S
O1197 C1196 1.275 . S
O1198 Tb1180 2.513 . S
O1198 C1196 1.246 . S
C1199 O1183 1.245 . S
C1199 O1184 1.259 . S
Tb1200 O1203 2.453 . S
Tb1200 O1204 2.596 . S
Tb1200 O1205 2.374 . S
Tb1200 O1213 2.343 . S
Tb1200 O1215 2.353 . S
Tb1200 O1217 2.427 . S
Tb1200 O1218 2.513 . S
C1201 O1205 1.251 . S
C1201 O1207 1.263 . S
Tb1202 O1204 2.343 . S
Tb1202 O1207 2.353 . S
Tb1202 O1210 2.427 . S
Tb1202 O1211 2.513 . S
Tb1202 O1212 2.453 . S
Tb1202 O1213 2.596 . S
Tb1202 O1214 2.374 . S
O1203 Tb1200 2.453 . S
O1203 C1219 1.245 . S
O1204 Tb1200 2.596 . S
O1204 Tb1202 2.343 . S
O1204 C1219 1.259 . S
O1205 Tb1200 2.374 . S
O1205 C1201 1.251 . S
C1206 O1210 1.275 . S
C1206 O1211 1.246 . S
O1207 C1201 1.263 . S
O1207 Tb1202 2.353 . S
C1208 O1212 1.245 . S
C1208 O1213 1.259 . S
C1209 O1214 1.250 . S
C1209 O1215 1.263 . S
O1210 Tb1202 2.427 . S
O1210 C1206 1.275 . S
O1211 Tb1202 2.513 . S
O1211 C1206 1.246 . S
O1212 Tb1202 2.453 . S
O1212 C1208 1.245 . S
O1213 Tb1200 2.343 . S
O1213 Tb1202 2.596 . S
O1213 C1208 1.259 . S
O1214 Tb1202 2.374 . S
O1214 C1209 1.250 . S
O1215 Tb1200 2.353 . S
O1215 C1209 1.263 . S
C1216 O1217 1.275 . S
C1216 O1218 1.246 . S
O1217 Tb1200 2.427 . S
O1217 C1216 1.275 . S
O1218 Tb1200 2.513 . S
O1218 C1216 1.246 . S
C1219 O1203 1.245 . S
C1219 O1204 1.259 . S
Tb1220 O1223 2.453 . S
Tb1220 O1224 2.596 . S
Tb1220 O1225 2.374 . S
Tb1220 O1233 2.343 . S
Tb1220 O1235 2.353 . S
Tb1220 O1237 2.427 . S
Tb1220 O1238 2.513 . S
C1221 O1225 1.251 . S
C1221 O1227 1.263 . S
Tb1222 O1224 2.343 . S
Tb1222 O1227 2.353 . S
Tb1222 O1230 2.427 . S
Tb1222 O1231 2.513 . S
Tb1222 O1232 2.453 . S
Tb1222 O1233 2.596 . S
Tb1222 O1234 2.374 . S
O1223 Tb1220 2.453 . S
O1223 C1239 1.245 . S
O1224 Tb1220 2.596 . S
O1224 Tb1222 2.343 . S
O1224 C1239 1.259 . S
O1225 Tb1220 2.374 . S
O1225 C1221 1.251 . S
C1226 O1230 1.275 . S
C1226 O1231 1.246 . S
O1227 C1221 1.263 . S
O1227 Tb1222 2.353 . S
C1228 O1232 1.245 . S
C1228 O1233 1.259 . S
C1229 O1234 1.250 . S
C1229 O1235 1.263 . S
O1230 Tb1222 2.427 . S
O1230 C1226 1.275 . S
O1231 Tb1222 2.513 . S
O1231 C1226 1.246 . S
O1232 Tb1222 2.453 . S
O1232 C1228 1.245 . S
O1233 Tb1220 2.343 . S
O1233 Tb1222 2.596 . S
O1233 C1228 1.259 . S
O1234 Tb1222 2.374 . S
O1234 C1229 1.250 . S
O1235 Tb1220 2.353 . S
O1235 C1229 1.263 . S
C1236 O1237 1.275 . S
C1236 O1238 1.246 . S
O1237 Tb1220 2.427 . S
O1237 C1236 1.275 . S
O1238 Tb1220 2.513 . S
O1238 C1236 1.246 . S
C1239 O1223 1.245 . S
C1239 O1224 1.259 . S
Tb1240 O1243 2.453 . S
Tb1240 O1244 2.596 . S
Tb1240 O1245 2.374 . S
Tb1240 O1253 2.343 . S
Tb1240 O1255 2.353 . S
Tb1240 O1257 2.427 . S
Tb1240 O1258 2.513 . S
C1241 O1245 1.251 . S
C1241 O1247 1.263 . S
Tb1242 O1244 2.343 . S
Tb1242 O1247 2.353 . S
Tb1242 O1250 2.427 . S
Tb1242 O1251 2.513 . S
Tb1242 O1252 2.453 . S
Tb1242 O1253 2.596 . S
Tb1242 O1254 2.374 . S
O1243 Tb1240 2.453 . S
O1243 C1259 1.245 . S
O1244 Tb1240 2.596 . S
O1244 Tb1242 2.343 . S
O1244 C1259 1.259 . S
O1245 Tb1240 2.374 . S
O1245 C1241 1.251 . S
C1246 O1250 1.275 . S
C1246 O1251 1.246 . S
O1247 C1241 1.263 . S
O1247 Tb1242 2.353 . S
C1248 O1252 1.245 . S
C1248 O1253 1.259 . S
C1249 O1254 1.250 . S
C1249 O1255 1.263 . S
O1250 Tb1242 2.427 . S
O1250 C1246 1.275 . S
O1251 Tb1242 2.513 . S
O1251 C1246 1.246 . S
O1252 Tb1242 2.453 . S
O1252 C1248 1.245 . S
O1253 Tb1240 2.343 . S
O1253 Tb1242 2.596 . S
O1253 C1248 1.259 . S
O1254 Tb1242 2.374 . S
O1254 C1249 1.250 . S
O1255 Tb1240 2.353 . S
O1255 C1249 1.263 . S
C1256 O1257 1.275 . S
C1256 O1258 1.246 . S
O1257 Tb1240 2.427 . S
O1257 C1256 1.275 . S
O1258 Tb1240 2.513 . S
O1258 C1256 1.246 . S
C1259 O1243 1.245 . S
C1259 O1244 1.259 . S
C1260 C1261 1.369 . S
C1260 C1262 1.419 . S
C1260 H1264 0.930 . S
C1261 C1260 1.369 . S
C1261 C1270 1.429 . S
C1262 C1260 1.419 . S
C1262 C1263 1.363 . S
C1262 H1265 0.929 . S
C1263 C1262 1.363 . S
C1263 C1269 1.428 . S
H1264 C1260 0.930 . S
H1265 C1262 0.929 . S
S1266 N1267 1.613 1_556 S
S1266 N1268 1.610 . S
N1267 S1266 1.613 1_554 S
N1267 C1270 1.350 . S
N1268 S1266 1.610 . S
N1268 C1269 1.351 1_556 S
C1269 C1263 1.428 . S
C1269 N1268 1.351 1_554 S
C1269 C1270 1.434 . S
C1270 C1261 1.429 . S
C1270 N1267 1.350 . S
C1270 C1269 1.434 . S
C1271 C1272 1.369 . S
C1271 C1273 1.419 . S
C1271 H1275 0.930 . S
C1272 C1271 1.369 . S
C1272 C1281 1.429 . S
C1273 C1271 1.419 . S
C1273 C1274 1.363 . S
C1273 H1276 0.929 . S
C1274 C1273 1.363 . S
C1274 C1280 1.428 . S
H1275 C1271 0.930 . S
H1276 C1273 0.929 . S
S1277 N1278 1.613 1_556 S
S1277 N1279 1.610 1_556 S
N1278 S1277 1.613 1_554 S
N1278 C1281 1.350 . S
N1279 S1277 1.610 1_554 S
N1279 C1280 1.351 . S
C1280 C1274 1.428 . S
C1280 N1279 1.351 . S
C1280 C1281 1.434 . S
C1281 C1272 1.429 . S
C1281 N1278 1.350 . S
C1281 C1280 1.434 . S
C1282 C1283 1.369 . S
C1282 C1284 1.419 . S
C1282 H1286 0.930 1_554 S
C1283 C1282 1.369 . S
C1283 C1292 1.429 . S
C1284 C1282 1.419 . S
C1284 C1285 1.363 . S
C1284 H1287 0.929 1_554 S
C1285 C1284 1.363 . S
C1285 C1291 1.428 . S
H1286 C1282 0.930 1_556 S
H1287 C1284 0.929 1_556 S
S1288 N1289 1.613 . S
S1288 N1290 1.610 . S
N1289 S1288 1.613 . S
N1289 C1292 1.350 . S
N1290 S1288 1.610 . S
N1290 C1291 1.351 . S
C1291 C1285 1.428 . S
C1291 N1290 1.351 . S
C1291 C1292 1.434 . S
C1292 C1283 1.429 . S
C1292 N1289 1.350 . S
C1292 C1291 1.434 . S
C1293 C1294 1.369 . S
C1293 C1295 1.419 . S
C1293 H1297 0.930 . S
C1294 C1293 1.369 . S
C1294 C1303 1.429 . S
C1295 C1293 1.419 . S
C1295 C1296 1.363 . S
C1295 H1298 0.929 1_556 S
C1296 C1295 1.363 . S
C1296 C1302 1.428 . S
H1297 C1293 0.930 . S
H1298 C1295 0.929 1_554 S
S1299 N1300 1.613 . S
S1299 N1301 1.610 . S
N1300 S1299 1.613 . S
N1300 C1303 1.350 . S
N1301 S1299 1.610 . S
N1301 C1302 1.351 . S
C1302 C1296 1.428 . S
C1302 N1301 1.351 . S
C1302 C1303 1.434 . S
C1303 C1294 1.429 . S
C1303 N1300 1.350 . S
C1303 C1302 1.434 . S
C1304 C1305 1.369 . S
C1304 C1306 1.419 . S
C1304 H1308 0.930 . S
C1305 C1304 1.369 . S
C1305 C1314 1.429 . S
C1306 C1304 1.419 . S
C1306 C1307 1.363 . S
C1306 H1309 0.929 . S
C1307 C1306 1.363 . S
C1307 C1313 1.428 . S
H1308 C1304 0.930 . S
H1309 C1306 0.929 . S
S1310 N1311 1.613 . S
S1310 N1312 1.610 . S
N1311 S1310 1.613 . S
N1311 C1314 1.350 . S
N1312 S1310 1.610 . S
N1312 C1313 1.351 . S
C1313 C1307 1.428 . S
C1313 N1312 1.351 . S
C1313 C1314 1.434 . S
C1314 C1305 1.429 . S
C1314 N1311 1.350 . S
C1314 C1313 1.434 . S
C1315 C1316 1.369 . S
C1315 C1317 1.419 . S
C1315 H1319 0.930 . S
C1316 C1315 1.369 . S
C1316 C1325 1.429 . S
C1317 C1315 1.419 . S
C1317 C1318 1.363 . S
C1317 H1320 0.929 1_556 S
C1318 C1317 1.363 . S
C1318 C1324 1.428 . S
H1319 C1315 0.930 . S
H1320 C1317 0.929 1_554 S
S1321 N1322 1.613 . S
S1321 N1323 1.610 . S
N1322 S1321 1.613 . S
N1322 C1325 1.350 . S
N1323 S1321 1.610 . S
N1323 C1324 1.351 . S
C1324 C1318 1.428 . S
C1324 N1323 1.351 . S
C1324 C1325 1.434 . S
C1325 C1316 1.429 . S
C1325 N1322 1.350 . S
C1325 C1324 1.434 . S
C1326 C1327 1.369 . S
C1326 C1328 1.419 . S
C1326 H1330 0.930 . S
C1327 C1326 1.369 . S
C1327 C1336 1.429 . S
C1328 C1326 1.419 . S
C1328 C1329 1.363 . S
C1328 H1331 0.929 . S
C1329 C1328 1.363 . S
C1329 C1335 1.428 . S
H1330 C1326 0.930 . S
H1331 C1328 0.929 . S
S1332 N1333 1.613 . S
S1332 N1334 1.610 . S
N1333 S1332 1.613 . S
N1333 C1336 1.350 . S
N1334 S1332 1.610 . S
N1334 C1335 1.351 . S
C1335 C1329 1.428 . S
C1335 N1334 1.351 . S
C1335 C1336 1.434 . S
C1336 C1327 1.429 . S
C1336 N1333 1.350 . S
C1336 C1335 1.434 . S
C1337 C1338 1.369 . S
C1337 C1339 1.419 . S
C1337 H1341 0.930 . S
C1338 C1337 1.369 . S
C1338 C1347 1.429 . S
C1339 C1337 1.419 . S
C1339 C1340 1.363 . S
C1339 H1342 0.929 . S
C1340 C1339 1.363 . S
C1340 C1346 1.428 . S
H1341 C1337 0.930 . S
H1342 C1339 0.929 . S
S1343 N1344 1.613 1_554 S
S1343 N1345 1.622 . S
N1344 S1343 1.613 1_556 S
N1344 C1347 1.350 . S
N1345 S1343 1.622 . S
N1345 C1346 1.321 1_554 S
C1346 C1340 1.428 . S
C1346 N1345 1.321 1_556 S
C1346 C1347 1.434 . S
C1347 C1338 1.429 . S
C1347 N1344 1.350 . S
C1347 C1346 1.434 . S
C1348 C1349 1.369 . S
C1348 C1350 1.419 . S
C1348 H1352 0.930 . S
C1349 C1348 1.369 . S
C1349 C1358 1.429 . S
C1350 C1348 1.419 . S
C1350 C1351 1.363 . S
C1350 H1353 0.929 . S
C1351 C1350 1.363 . S
C1351 C1357 1.428 . S
H1352 C1348 0.930 . S
H1353 C1350 0.929 . S
S1354 N1355 1.613 . S
S1354 N1356 1.610 . S
N1355 S1354 1.613 . S
N1355 C1358 1.350 . S
N1356 S1354 1.610 . S
N1356 C1357 1.351 . S
C1357 C1351 1.428 . S
C1357 N1356 1.351 . S
C1357 C1358 1.434 . S
C1358 C1349 1.429 . S
C1358 N1355 1.350 . S
C1358 C1357 1.434 . S
C1359 C1360 1.369 . S
C1359 C1361 1.419 . S
C1359 H1363 0.930 . S
C1360 C1359 1.369 . S
C1360 C1369 1.429 . S
C1361 C1359 1.419 . S
C1361 C1362 1.363 . S
C1361 H1364 0.929 . S
C1362 C1361 1.363 . S
C1362 C1368 1.428 . S
H1363 C1359 0.930 . S
H1364 C1361 0.929 . S
S1365 N1366 1.613 . S
S1365 N1367 1.610 . S
N1366 S1365 1.613 . S
N1366 C1369 1.350 . S
N1367 S1365 1.610 . S
N1367 C1368 1.351 . S
C1368 C1362 1.428 . S
C1368 N1367 1.351 . S
C1368 C1369 1.434 . S
C1369 C1360 1.429 . S
C1369 N1366 1.350 . S
C1369 C1368 1.434 . S
C1370 C1371 1.369 . S
C1370 C1372 1.419 . S
C1370 H1374 0.930 . S
C1371 C1370 1.369 . S
C1371 C1380 1.429 . S
C1372 C1370 1.419 . S
C1372 C1373 1.363 . S
C1372 H1375 0.929 . S
C1373 C1372 1.363 . S
C1373 C1379 1.428 . S
H1374 C1370 0.930 . S
H1375 C1372 0.929 . S
S1376 N1377 1.613 . S
S1376 N1378 1.610 . S
N1377 S1376 1.613 . S
N1377 C1380 1.350 . S
N1378 S1376 1.610 . S
N1378 C1379 1.351 . S
C1379 C1373 1.428 . S
C1379 N1378 1.351 . S
C1379 C1380 1.434 . S
C1380 C1371 1.429 . S
C1380 N1377 1.350 . S
C1380 C1379 1.434 . S
C1381 C1382 1.369 . S
C1381 C1383 1.419 . S
C1381 H1385 0.930 . S
C1382 C1381 1.369 . S
C1382 C1391 1.429 . S
C1383 C1381 1.419 . S
C1383 C1384 1.363 . S
C1383 H1386 0.929 1_554 S
C1384 C1383 1.363 . S
C1384 C1390 1.428 . S
H1385 C1381 0.930 . S
H1386 C1383 0.929 1_556 S
S1387 N1388 1.613 . S
S1387 N1389 1.610 . S
N1388 S1387 1.613 . S
N1388 C1391 1.350 . S
N1389 S1387 1.610 . S
N1389 C1390 1.351 . S
C1390 C1384 1.428 . S
C1390 N1389 1.351 . S
C1390 C1391 1.434 . S
C1391 C1382 1.429 . S
C1391 N1388 1.350 . S
C1391 C1390 1.434 . S
C1392 C1393 1.364 1_455 S
C1392 C1394 1.419 . S
C1392 H1396 0.930 1_455 S
C1393 C1392 1.364 1_655 S
C1393 C1402 1.394 1_655 S
C1394 C1392 1.419 . S
C1394 C1395 1.363 . S
C1394 H1397 0.929 . S
C1395 C1394 1.363 . S
C1395 C1401 1.428 . S
H1396 C1392 0.930 1_655 S
H1397 C1394 0.929 . S
S1398 N1399 1.613 . S
S1398 N1400 1.610 . S
N1399 S1398 1.613 . S
N1399 C1402 1.350 . S
N1400 S1398 1.610 . S
N1400 C1401 1.351 . S
C1401 C1395 1.428 . S
C1401 N1400 1.351 . S
C1401 C1402 1.434 . S
C1402 C1393 1.394 1_455 S
C1402 N1399 1.350 . S
C1402 C1401 1.434 . S
C1403 C1404 1.369 . S
C1403 C1405 1.419 . S
C1403 H1407 0.930 . S
C1404 C1403 1.369 . S
C1404 C1413 1.429 . S
C1405 C1403 1.419 . S
C1405 C1406 1.363 . S
C1405 H1408 0.929 . S
C1406 C1405 1.363 . S
C1406 C1412 1.428 . S
H1407 C1403 0.930 . S
H1408 C1405 0.929 . S
S1409 N1410 1.613 . S
S1409 N1411 1.610 . S
N1410 S1409 1.613 . S
N1410 C1413 1.350 . S
N1411 S1409 1.610 . S
N1411 C1412 1.351 . S
C1412 C1406 1.428 . S
C1412 N1411 1.351 . S
C1412 C1413 1.434 . S
C1413 C1404 1.429 . S
C1413 N1410 1.350 . S
C1413 C1412 1.434 . S
C1414 C1415 1.369 . S
C1414 C1416 1.419 . S
C1414 H1418 0.930 . S
C1415 C1414 1.369 . S
C1415 C1424 1.429 . S
C1416 C1414 1.419 . S
C1416 C1417 1.363 . S
C1416 H1419 0.929 . S
C1417 C1416 1.363 . S
C1417 C1423 1.428 . S
H1418 C1414 0.930 . S
H1419 C1416 0.929 . S
S1420 N1421 1.613 . S
S1420 N1422 1.610 . S
N1421 S1420 1.613 . S
N1421 C1424 1.350 . S
N1422 S1420 1.610 . S
N1422 C1423 1.351 . S
C1423 C1417 1.428 . S
C1423 N1422 1.351 . S
C1423 C1424 1.434 . S
C1424 C1415 1.429 . S
C1424 N1421 1.350 . S
C1424 C1423 1.434 . S
C1425 C1426 1.369 . S
C1425 C1427 1.419 . S
C1425 H1429 0.930 . S
C1426 C1425 1.369 . S
C1426 C1435 1.429 . S
C1427 C1425 1.419 . S
C1427 C1428 1.363 . S
C1427 H1430 0.929 . S
C1428 C1427 1.363 . S
C1428 C1434 1.428 . S
H1429 C1425 0.930 . S
H1430 C1427 0.929 . S
S1431 N1432 1.613 . S
S1431 N1433 1.610 . S
N1432 S1431 1.613 . S
N1432 C1435 1.350 . S
N1433 S1431 1.610 . S
N1433 C1434 1.351 . S
C1434 C1428 1.428 . S
C1434 N1433 1.351 . S
C1434 C1435 1.434 . S
C1435 C1426 1.429 . S
C1435 N1432 1.350 . S
C1435 C1434 1.434 . S
C1436 C1437 1.369 . S
C1436 C1438 1.419 . S
C1436 H1440 0.930 . S
C1437 C1436 1.369 . S
C1437 C1446 1.429 . S
C1438 C1436 1.419 . S
C1438 C1439 1.363 . S
C1438 H1441 0.929 . S
C1439 C1438 1.363 . S
C1439 C1445 1.428 . S
H1440 C1436 0.930 . S
H1441 C1438 0.929 . S
S1442 N1443 1.613 . S
S1442 N1444 1.610 . S
N1443 S1442 1.613 . S
N1443 C1446 1.350 . S
N1444 S1442 1.610 . S
N1444 C1445 1.351 . S
C1445 C1439 1.428 . S
C1445 N1444 1.351 . S
C1445 C1446 1.434 . S
C1446 C1437 1.429 . S
C1446 N1443 1.350 . S
C1446 C1445 1.434 . S
C1447 C1448 1.369 . S
C1447 C1449 1.419 . S
C1447 H1451 0.930 . S
C1448 C1447 1.369 . S
C1448 C1457 1.429 . S
C1449 C1447 1.419 . S
C1449 C1450 1.363 . S
C1449 H1452 0.929 . S
C1450 C1449 1.363 . S
C1450 C1456 1.428 . S
H1451 C1447 0.930 . S
H1452 C1449 0.929 . S
S1453 N1454 1.613 . S
S1453 N1455 1.610 . S
N1454 S1453 1.613 . S
N1454 C1457 1.350 . S
N1455 S1453 1.610 . S
N1455 C1456 1.351 . S
C1456 C1450 1.428 . S
C1456 N1455 1.351 . S
C1456 C1457 1.434 . S
C1457 C1448 1.429 . S
C1457 N1454 1.350 . S
C1457 C1456 1.434 . S
C1458 C1459 1.369 . S
C1458 C1460 1.419 . S
C1458 H1462 0.930 . S
C1459 C1458 1.369 . S
C1459 C1468 1.429 . S
C1460 C1458 1.419 . S
C1460 C1461 1.363 . S
C1460 H1463 0.929 . S
C1461 C1460 1.363 . S
C1461 C1467 1.428 . S
H1462 C1458 0.930 . S
H1463 C1460 0.929 . S
S1464 N1465 1.613 . S
S1464 N1466 1.610 . S
N1465 S1464 1.613 . S
N1465 C1468 1.350 . S
N1466 S1464 1.610 . S
N1466 C1467 1.351 . S
C1467 C1461 1.428 . S
C1467 N1466 1.351 . S
C1467 C1468 1.434 . S
C1468 C1459 1.429 . S
C1468 N1465 1.350 . S
C1468 C1467 1.434 . S
C1469 C1470 1.369 . S
C1469 C1471 1.419 . S
C1469 H1473 0.930 . S
C1470 C1469 1.369 . S
C1470 C1479 1.429 . S
C1471 C1469 1.419 . S
C1471 C1472 1.363 . S
C1471 H1474 0.929 . S
C1472 C1471 1.363 . S
C1472 C1478 1.428 . S
H1473 C1469 0.930 . S
H1474 C1471 0.929 . S
S1475 N1476 1.613 . S
S1475 N1477 1.610 . S
N1476 S1475 1.613 . S
N1476 C1479 1.350 . S
N1477 S1475 1.610 . S
N1477 C1478 1.351 . S
C1478 C1472 1.428 . S
C1478 N1477 1.351 . S
C1478 C1479 1.434 . S
C1479 C1470 1.429 . S
C1479 N1476 1.350 . S
C1479 C1478 1.434 . S
C1480 C1481 1.369 . S
C1480 C1482 1.419 . S
C1480 H1484 0.930 . S
C1481 C1480 1.369 . S
C1481 C1490 1.429 . S
C1482 C1480 1.419 . S
C1482 C1483 1.363 . S
C1482 H1485 0.929 . S
C1483 C1482 1.363 . S
C1483 C1489 1.428 . S
H1484 C1480 0.930 . S
H1485 C1482 0.929 . S
S1486 N1487 1.613 . S
S1486 N1488 1.610 . S
N1487 S1486 1.613 . S
N1487 C1490 1.350 . S
N1488 S1486 1.610 . S
N1488 C1489 1.351 . S
C1489 C1483 1.428 . S
C1489 N1488 1.351 . S
C1489 C1490 1.434 . S
C1490 C1481 1.429 . S
C1490 N1487 1.350 . S
C1490 C1489 1.434 . S
C1491 C1492 1.369 . S
C1491 C1493 1.419 . S
C1491 H1495 0.930 . S
C1492 C1491 1.369 . S
C1492 C1501 1.429 . S
C1493 C1491 1.419 . S
C1493 C1494 1.363 . S
C1493 H1496 0.929 . S
C1494 C1493 1.363 . S
C1494 C1500 1.428 . S
H1495 C1491 0.930 . S
H1496 C1493 0.929 . S
S1497 N1498 1.613 . S
S1497 N1499 1.610 . S
N1498 S1497 1.613 . S
N1498 C1501 1.350 . S
N1499 S1497 1.610 . S
N1499 C1500 1.351 . S
C1500 C1494 1.428 . S
C1500 N1499 1.351 . S
C1500 C1501 1.434 . S
C1501 C1492 1.429 . S
C1501 N1498 1.350 . S
C1501 C1500 1.434 . S
C1502 C1503 1.369 . S
C1502 C1504 1.419 . S
C1502 H1506 0.930 1_455 S
C1503 C1502 1.369 . S
C1503 C1512 1.429 . S
C1504 C1502 1.419 . S
C1504 C1505 1.363 . S
C1504 H1507 0.929 . S
C1505 C1504 1.363 . S
C1505 C1511 1.428 . S
H1506 C1502 0.930 1_655 S
H1507 C1504 0.929 . S
S1508 N1509 1.613 . S
S1508 N1510 1.610 . S
N1509 S1508 1.613 . S
N1509 C1512 1.350 . S
N1510 S1508 1.610 . S
N1510 C1511 1.351 . S
C1511 C1505 1.428 . S
C1511 N1510 1.351 . S
C1511 C1512 1.434 . S
C1512 C1503 1.429 . S
C1512 N1509 1.350 . S
C1512 C1511 1.434 . S
C1513 C1514 1.369 . S
C1513 C1515 1.419 . S
C1513 H1517 0.930 . S
C1514 C1513 1.369 . S
C1514 C1523 1.429 . S
C1515 C1513 1.419 . S
C1515 C1516 1.363 . S
C1515 H1518 0.929 . S
C1516 C1515 1.363 . S
C1516 C1522 1.428 . S
H1517 C1513 0.930 . S
H1518 C1515 0.929 . S
S1519 N1520 1.613 . S
S1519 N1521 1.610 . S
N1520 S1519 1.613 . S
N1520 C1523 1.350 . S
N1521 S1519 1.610 . S
N1521 C1522 1.351 . S
C1522 C1516 1.428 . S
C1522 N1521 1.351 . S
C1522 C1523 1.434 . S
C1523 C1514 1.429 . S
C1523 N1520 1.350 . S
C1523 C1522 1.434 . S
C1524 C1525 1.369 . S
C1524 C1526 1.419 . S
C1524 H1528 0.930 . S
C1525 C1524 1.369 . S
C1525 C1534 1.429 . S
C1526 C1524 1.419 . S
C1526 C1527 1.363 . S
C1526 H1529 0.929 . S
C1527 C1526 1.363 . S
C1527 C1533 1.428 . S
H1528 C1524 0.930 . S
H1529 C1526 0.929 . S
S1530 N1531 1.613 . S
S1530 N1532 1.610 . S
N1531 S1530 1.613 . S
N1531 C1534 1.350 . S
N1532 S1530 1.610 . S
N1532 C1533 1.351 . S
C1533 C1527 1.428 . S
C1533 N1532 1.351 . S
C1533 C1534 1.434 . S
C1534 C1525 1.429 . S
C1534 N1531 1.350 . S
C1534 C1533 1.434 . S
C1535 C1536 1.369 . S
C1535 C1537 1.419 . S
C1535 H1539 0.930 . S
C1536 C1535 1.369 . S
C1536 C1545 1.429 . S
C1537 C1535 1.419 . S
C1537 C1538 1.363 . S
C1537 H1540 0.929 . S
C1538 C1537 1.363 . S
C1538 C1544 1.428 . S
H1539 C1535 0.930 . S
H1540 C1537 0.929 . S
S1541 N1542 1.613 . S
S1541 N1543 1.610 . S
N1542 S1541 1.613 . S
N1542 C1545 1.350 . S
N1543 S1541 1.610 . S
N1543 C1544 1.351 . S
C1544 C1538 1.428 . S
C1544 N1543 1.351 . S
C1544 C1545 1.434 . S
C1545 C1536 1.429 . S
C1545 N1542 1.350 . S
C1545 C1544 1.434 . S
C1546 C1547 1.369 . S
C1546 C1548 1.419 . S
C1546 H1550 0.930 . S
C1547 C1546 1.369 . S
C1547 C1556 1.429 . S
C1548 C1546 1.419 . S
C1548 C1549 1.363 . S
C1548 H1551 0.929 . S
C1549 C1548 1.363 . S
C1549 C1555 1.428 . S
H1550 C1546 0.930 . S
H1551 C1548 0.929 . S
S1552 N1553 1.613 . S
S1552 N1554 1.610 . S
N1553 S1552 1.613 . S
N1553 C1556 1.350 . S
N1554 S1552 1.610 . S
N1554 C1555 1.351 . S
C1555 C1549 1.428 . S
C1555 N1554 1.351 . S
C1555 C1556 1.434 . S
C1556 C1547 1.429 . S
C1556 N1553 1.350 . S
C1556 C1555 1.434 . S
C1557 C1558 1.369 . S
C1557 C1559 1.419 . S
C1557 H1561 0.930 . S
C1558 C1557 1.369 . S
C1558 C1567 1.429 . S
C1559 C1557 1.419 . S
C1559 C1560 1.363 . S
C1559 H1562 0.929 . S
C1560 C1559 1.363 . S
C1560 C1566 1.428 . S
H1561 C1557 0.930 . S
H1562 C1559 0.929 . S
S1563 N1564 1.613 . S
S1563 N1565 1.610 . S
N1564 S1563 1.613 . S
N1564 C1567 1.350 . S
N1565 S1563 1.610 . S
N1565 C1566 1.351 . S
C1566 C1560 1.428 . S
C1566 N1565 1.351 . S
C1566 C1567 1.434 . S
C1567 C1558 1.429 . S
C1567 N1564 1.350 . S
C1567 C1566 1.434 . S
C1568 C1569 1.369 . S
C1568 C1570 1.419 . S
C1568 H1572 0.930 . S
C1569 C1568 1.369 . S
C1569 C1578 1.429 . S
C1570 C1568 1.419 . S
C1570 C1571 1.363 . S
C1570 H1573 0.929 . S
C1571 C1570 1.363 . S
C1571 C1577 1.428 . S
H1572 C1568 0.930 . S
H1573 C1570 0.929 . S
S1574 N1575 1.613 . S
S1574 N1576 1.610 . S
N1575 S1574 1.613 . S
N1575 C1578 1.350 . S
N1576 S1574 1.610 . S
N1576 C1577 1.351 . S
C1577 C1571 1.428 . S
C1577 N1576 1.351 . S
C1577 C1578 1.434 . S
C1578 C1569 1.429 . S
C1578 N1575 1.350 . S
C1578 C1577 1.434 . S
C1579 C1580 1.369 . S
C1579 C1581 1.419 . S
C1579 H1583 0.930 . S
C1580 C1579 1.369 . S
C1580 C1589 1.429 . S
C1581 C1579 1.419 . S
C1581 C1582 1.363 . S
C1581 H1584 0.929 . S
C1582 C1581 1.363 . S
C1582 C1588 1.428 . S
H1583 C1579 0.930 . S
H1584 C1581 0.929 . S
S1585 N1586 1.613 . S
S1585 N1587 1.610 . S
N1586 S1585 1.613 . S
N1586 C1589 1.350 . S
N1587 S1585 1.610 . S
N1587 C1588 1.351 . S
C1588 C1582 1.428 . S
C1588 N1587 1.351 . S
C1588 C1589 1.434 . S
C1589 C1580 1.429 . S
C1589 N1586 1.350 . S
C1589 C1588 1.434 . S
C1590 C1591 1.369 1_655 S
C1590 C1592 1.419 . S
C1590 H1594 0.891 1_655 S
C1591 C1590 1.369 1_455 S
C1591 C1600 1.429 1_455 S
C1592 C1590 1.419 . S
C1592 C1593 1.363 . S
C1592 H1595 0.929 . S
C1593 C1592 1.363 . S
C1593 C1599 1.428 . S
H1594 C1590 0.891 1_455 S
H1595 C1592 0.929 . S
S1596 N1597 1.613 . S
S1596 N1598 1.610 . S
N1597 S1596 1.613 . S
N1597 C1600 1.350 . S
N1598 S1596 1.610 . S
N1598 C1599 1.351 . S
C1599 C1593 1.428 . S
C1599 N1598 1.351 . S
C1599 C1600 1.434 . S
C1600 C1591 1.429 1_655 S
C1600 N1597 1.350 . S
C1600 C1599 1.434 . S
C1601 C1602 1.369 . S
C1601 C1603 1.419 . S
C1601 H1605 0.930 . S
C1602 C1601 1.369 . S
C1602 C1611 1.429 . S
C1603 C1601 1.419 . S
C1603 C1604 1.363 . S
C1603 H1606 0.929 . S
C1604 C1603 1.363 . S
C1604 C1610 1.428 . S
H1605 C1601 0.930 . S
H1606 C1603 0.929 . S
S1607 N1608 1.613 . S
S1607 N1609 1.610 . S
N1608 S1607 1.613 . S
N1608 C1611 1.350 . S
N1609 S1607 1.610 . S
N1609 C1610 1.351 . S
C1610 C1604 1.428 . S
C1610 N1609 1.351 . S
C1610 C1611 1.434 . S
C1611 C1602 1.429 . S
C1611 N1608 1.350 . S
C1611 C1610 1.434 . S
C1612 C1613 1.369 . S
C1612 C1614 1.419 . S
C1612 H1616 0.930 . S
C1613 C1612 1.369 . S
C1613 C1622 1.429 . S
C1614 C1612 1.419 . S
C1614 C1615 1.363 . S
C1614 H1617 0.929 . S
C1615 C1614 1.363 . S
C1615 C1621 1.428 . S
H1616 C1612 0.930 . S
H1617 C1614 0.929 . S
S1618 N1619 1.613 . S
S1618 N1620 1.610 . S
N1619 S1618 1.613 . S
N1619 C1622 1.350 . S
N1620 S1618 1.610 . S
N1620 C1621 1.351 . S
C1621 C1615 1.428 . S
C1621 N1620 1.351 . S
C1621 C1622 1.434 . S
C1622 C1613 1.429 . S
C1622 N1619 1.350 . S
C1622 C1621 1.434 . S
C1623 C1624 1.369 . S
C1623 C1625 1.419 . S
C1623 H1627 0.930 . S
C1624 C1623 1.369 . S
C1624 C1633 1.429 . S
C1625 C1623 1.419 . S
C1625 C1626 1.363 . S
C1625 H1628 0.929 . S
C1626 C1625 1.363 . S
C1626 C1632 1.428 . S
H1627 C1623 0.930 . S
H1628 C1625 0.929 . S
S1629 N1630 1.613 . S
S1629 N1631 1.610 . S
N1630 S1629 1.613 . S
N1630 C1633 1.350 . S
N1631 S1629 1.610 . S
N1631 C1632 1.351 . S
C1632 C1626 1.428 . S
C1632 N1631 1.351 . S
C1632 C1633 1.434 . S
C1633 C1624 1.429 . S
C1633 N1630 1.350 . S
C1633 C1632 1.434 . S
C1634 C1635 1.369 . S
C1634 C1636 1.419 . S
C1634 H1638 0.930 . S
C1635 C1634 1.369 . S
C1635 C1644 1.429 . S
C1636 C1634 1.419 . S
C1636 C1637 1.363 . S
C1636 H1639 0.929 . S
C1637 C1636 1.363 . S
C1637 C1643 1.428 . S
H1638 C1634 0.930 . S
H1639 C1636 0.929 . S
S1640 N1641 1.613 . S
S1640 N1642 1.610 . S
N1641 S1640 1.613 . S
N1641 C1644 1.350 . S
N1642 S1640 1.610 . S
N1642 C1643 1.351 . S
C1643 C1637 1.428 . S
C1643 N1642 1.351 . S
C1643 C1644 1.434 . S
C1644 C1635 1.429 . S
C1644 N1641 1.350 . S
C1644 C1643 1.434 . S
C1645 C1646 1.369 . S
C1645 C1647 1.419 . S
C1645 H1649 0.930 . S
C1646 C1645 1.369 . S
C1646 C1655 1.429 . S
C1647 C1645 1.419 . S
C1647 C1648 1.363 . S
C1647 H1650 0.929 . S
C1648 C1647 1.363 . S
C1648 C1654 1.428 . S
H1649 C1645 0.930 . S
H1650 C1647 0.929 . S
S1651 N1652 1.613 . S
S1651 N1653 1.610 . S
N1652 S1651 1.613 . S
N1652 C1655 1.350 . S
N1653 S1651 1.610 . S
N1653 C1654 1.351 . S
C1654 C1648 1.428 . S
C1654 N1653 1.351 . S
C1654 C1655 1.434 . S
C1655 C1646 1.429 . S
C1655 N1652 1.350 . S
C1655 C1654 1.434 . S
C1656 C1657 1.369 1_545 S
C1656 C1658 1.419 . S
C1656 H1660 0.930 . S
C1657 C1656 1.369 1_565 S
C1657 C1666 1.429 . S
C1658 C1656 1.419 . S
C1658 C1659 1.363 1_545 S
C1658 H1661 0.929 . S
C1659 C1658 1.363 1_565 S
C1659 C1665 1.428 . S
H1660 C1656 0.930 . S
H1661 C1658 0.929 . S
S1662 N1663 1.613 . S
S1662 N1664 1.610 . S
N1663 S1662 1.613 . S
N1663 C1666 1.350 . S
N1664 S1662 1.610 . S
N1664 C1665 1.351 . S
C1665 C1659 1.428 . S
C1665 N1664 1.351 . S
C1665 C1666 1.434 . S
C1666 C1657 1.429 . S
C1666 N1663 1.350 . S
C1666 C1665 1.434 . S
C1667 C1668 1.369 . S
C1667 C1669 1.419 . S
C1667 H1671 0.930 . S
C1668 C1667 1.369 . S
C1668 C1677 1.429 . S
C1669 C1667 1.419 . S
C1669 C1670 1.363 . S
C1669 H1672 0.929 . S
C1670 C1669 1.363 . S
C1670 C1676 1.428 . S
H1671 C1667 0.930 . S
H1672 C1669 0.929 . S
S1673 N1674 1.613 . S
S1673 N1675 1.610 . S
N1674 S1673 1.613 . S
N1674 C1677 1.350 1_655 S
N1675 S1673 1.610 . S
N1675 C1676 1.351 1_655 S
C1676 C1670 1.428 . S
C1676 N1675 1.351 1_455 S
C1676 C1677 1.434 . S
C1677 C1668 1.429 . S
C1677 N1674 1.350 1_455 S
C1677 C1676 1.434 . S
C1678 C1679 1.369 . S
C1678 C1680 1.419 . S
C1678 H1682 0.930 . S
C1679 C1678 1.369 . S
C1679 C1688 1.429 . S
C1680 C1678 1.419 . S
C1680 C1681 1.363 . S
C1680 H1683 0.929 . S
C1681 C1680 1.363 . S
C1681 C1687 1.428 . S
H1682 C1678 0.930 . S
H1683 C1680 0.929 . S
S1684 N1685 1.613 . S
S1684 N1686 1.610 . S
N1685 S1684 1.613 . S
N1685 C1688 1.350 . S
N1686 S1684 1.610 . S
N1686 C1687 1.351 . S
C1687 C1681 1.428 . S
C1687 N1686 1.351 . S
C1687 C1688 1.434 . S
C1688 C1679 1.429 . S
C1688 N1685 1.350 . S
C1688 C1687 1.434 . S
C1689 C1690 1.369 . S
C1689 C1691 1.419 . S
C1689 H1693 0.930 . S
C1690 C1689 1.369 . S
C1690 C1699 1.429 . S
C1691 C1689 1.419 . S
C1691 C1692 1.363 . S
C1691 H1694 0.929 . S
C1692 C1691 1.363 . S
C1692 C1698 1.428 . S
H1693 C1689 0.930 . S
H1694 C1691 0.929 . S
S1695 N1696 1.613 . S
S1695 N1697 1.610 . S
N1696 S1695 1.613 . S
N1696 C1699 1.350 . S
N1697 S1695 1.610 . S
N1697 C1698 1.351 . S
C1698 C1692 1.428 . S
C1698 N1697 1.351 . S
C1698 C1699 1.434 . S
C1699 C1690 1.429 . S
C1699 N1696 1.350 . S
C1699 C1698 1.434 . S
C1700 C1701 1.369 . S
C1700 C1702 1.419 . S
C1700 H1704 0.930 . S
C1701 C1700 1.369 . S
C1701 C1710 1.429 . S
C1702 C1700 1.419 . S
C1702 C1703 1.363 . S
C1702 H1705 0.929 . S
C1703 C1702 1.363 . S
C1703 C1709 1.428 . S
H1704 C1700 0.930 . S
H1705 C1702 0.929 . S
S1706 N1707 1.613 . S
S1706 N1708 1.610 . S
N1707 S1706 1.613 . S
N1707 C1710 1.350 . S
N1708 S1706 1.610 . S
N1708 C1709 1.351 . S
C1709 C1703 1.428 . S
C1709 N1708 1.351 . S
C1709 C1710 1.434 . S
C1710 C1701 1.429 . S
C1710 N1707 1.350 . S
C1710 C1709 1.434 . S
C1711 C1712 1.369 1_565 S
C1711 C1713 1.419 . S
C1711 H1715 0.930 . S
C1712 C1711 1.369 1_545 S
C1712 C1721 1.429 . S
C1713 C1711 1.419 . S
C1713 C1714 1.363 1_565 S
C1713 H1716 0.929 . S
C1714 C1713 1.363 1_545 S
C1714 C1720 1.428 . S
H1715 C1711 0.930 . S
H1716 C1713 0.929 . S
S1717 N1718 1.613 . S
S1717 N1719 1.610 . S
N1718 S1717 1.613 . S
N1718 C1721 1.350 . S
N1719 S1717 1.610 . S
N1719 C1720 1.351 . S
C1720 C1714 1.428 . S
C1720 N1719 1.351 . S
C1720 C1721 1.434 . S
C1721 C1712 1.429 . S
C1721 N1718 1.350 . S
C1721 C1720 1.434 . S
C1722 C1723 1.369 . S
C1722 C1724 1.419 . S
C1722 H1726 0.930 . S
C1723 C1722 1.369 . S
C1723 C1732 1.429 . S
C1724 C1722 1.419 . S
C1724 C1725 1.363 . S
C1724 H1727 0.929 . S
C1725 C1724 1.363 . S
C1725 C1731 1.428 . S
H1726 C1722 0.930 . S
H1727 C1724 0.929 . S
S1728 N1729 1.613 . S
S1728 N1730 1.610 . S
N1729 S1728 1.613 . S
N1729 C1732 1.350 . S
N1730 S1728 1.610 . S
N1730 C1731 1.351 . S
C1731 C1725 1.428 . S
C1731 N1730 1.351 . S
C1731 C1732 1.434 . S
C1732 C1723 1.429 . S
C1732 N1729 1.350 . S
C1732 C1731 1.434 . S
C1733 C1734 1.369 . S
C1733 C1735 1.419 . S
C1733 H1737 0.930 . S
C1734 C1733 1.369 . S
C1734 C1743 1.429 . S
C1735 C1733 1.419 . S
C1735 C1736 1.363 . S
C1735 H1738 0.929 . S
C1736 C1735 1.363 . S
C1736 C1742 1.428 . S
H1737 C1733 0.930 . S
H1738 C1735 0.929 . S
S1739 N1740 1.613 . S
S1739 N1741 1.610 . S
N1740 S1739 1.613 . S
N1740 C1743 1.350 . S
N1741 S1739 1.610 . S
N1741 C1742 1.351 . S
C1742 C1736 1.428 . S
C1742 N1741 1.351 . S
C1742 C1743 1.434 . S
C1743 C1734 1.429 . S
C1743 N1740 1.350 . S
C1743 C1742 1.434 . S
C1744 C1745 1.369 . S
C1744 C1746 1.419 . S
C1744 H1748 0.930 . S
C1745 C1744 1.369 . S
C1745 C1754 1.429 . S
C1746 C1744 1.419 . S
C1746 C1747 1.363 . S
C1746 H1749 0.929 . S
C1747 C1746 1.363 . S
C1747 C1753 1.428 . S
H1748 C1744 0.930 . S
H1749 C1746 0.929 . S
S1750 N1751 1.613 . S
S1750 N1752 1.610 . S
N1751 S1750 1.613 . S
N1751 C1754 1.350 . S
N1752 S1750 1.610 . S
N1752 C1753 1.351 . S
C1753 C1747 1.428 . S
C1753 N1752 1.351 . S
C1753 C1754 1.434 . S
C1754 C1745 1.429 . S
C1754 N1751 1.350 . S
C1754 C1753 1.434 . S
C1755 C1756 1.369 . S
C1755 C1757 1.419 . S
C1755 H1759 0.930 . S
C1756 C1755 1.369 . S
C1756 C1765 1.429 . S
C1757 C1755 1.419 . S
C1757 C1758 1.363 . S
C1757 H1760 0.929 . S
C1758 C1757 1.363 . S
C1758 C1764 1.428 . S
H1759 C1755 0.930 . S
H1760 C1757 0.929 . S
S1761 N1762 1.613 . S
S1761 N1763 1.610 . S
N1762 S1761 1.613 . S
N1762 C1765 1.350 . S
N1763 S1761 1.610 . S
N1763 C1764 1.351 . S
C1764 C1758 1.428 . S
C1764 N1763 1.351 . S
C1764 C1765 1.434 . S
C1765 C1756 1.429 . S
C1765 N1762 1.350 . S
C1765 C1764 1.434 . S
C1766 C1767 1.369 . S
C1766 C1768 1.419 . S
C1766 H1770 0.930 . S
C1767 C1766 1.369 . S
C1767 C1776 1.429 . S
C1768 C1766 1.419 . S
C1768 C1769 1.363 . S
C1768 H1771 0.929 . S
C1769 C1768 1.363 . S
C1769 C1775 1.428 . S
H1770 C1766 0.930 . S
H1771 C1768 0.929 . S
S1772 N1773 1.613 . S
S1772 N1774 1.610 . S
N1773 S1772 1.613 . S
N1773 C1776 1.350 . S
N1774 S1772 1.610 . S
N1774 C1775 1.351 . S
C1775 C1769 1.428 . S
C1775 N1774 1.351 . S
C1775 C1776 1.434 . S
C1776 C1767 1.429 . S
C1776 N1773 1.350 . S
C1776 C1775 1.434 . S
C1777 C1778 1.369 . S
C1777 C1779 1.419 . S
C1777 H1781 0.930 . S
C1778 C1777 1.369 . S
C1778 C1787 1.429 . S
C1779 C1777 1.419 . S
C1779 C1780 1.363 . S
C1779 H1782 0.929 . S
C1780 C1779 1.363 . S
C1780 C1786 1.428 . S
H1781 C1777 0.930 . S
H1782 C1779 0.929 . S
S1783 N1784 1.613 . S
S1783 N1785 1.610 . S
N1784 S1783 1.613 . S
N1784 C1787 1.350 . S
N1785 S1783 1.610 . S
N1785 C1786 1.351 . S
C1786 C1780 1.428 . S
C1786 N1785 1.351 . S
C1786 C1787 1.434 . S
C1787 C1778 1.429 . S
C1787 N1784 1.350 . S
C1787 C1786 1.434 . S
C1788 C1789 1.369 . S
C1788 C1790 1.419 . S
C1788 H1792 0.930 . S
C1789 C1788 1.369 . S
C1789 C1798 1.429 . S
C1790 C1788 1.419 . S
C1790 C1791 1.363 . S
C1790 H1793 0.929 . S
C1791 C1790 1.363 . S
C1791 C1797 1.428 . S
H1792 C1788 0.930 . S
H1793 C1790 0.929 . S
S1794 N1795 1.613 . S
S1794 N1796 1.610 . S
N1795 S1794 1.613 . S
N1795 C1798 1.350 . S
N1796 S1794 1.610 . S
N1796 C1797 1.351 . S
C1797 C1791 1.428 . S
C1797 N1796 1.351 . S
C1797 C1798 1.434 . S
C1798 C1789 1.429 . S
C1798 N1795 1.350 . S
C1798 C1797 1.434 . S
C1799 C1800 1.369 . S
C1799 C1801 1.419 . S
C1799 H1803 0.930 . S
C1800 C1799 1.369 . S
C1800 C1809 1.429 . S
C1801 C1799 1.419 . S
C1801 C1802 1.363 . S
C1801 H1804 0.929 . S
C1802 C1801 1.363 . S
C1802 C1808 1.428 . S
H1803 C1799 0.930 . S
H1804 C1801 0.929 . S
S1805 N1806 1.613 . S
S1805 N1807 1.610 . S
N1806 S1805 1.613 . S
N1806 C1809 1.350 . S
N1807 S1805 1.610 . S
N1807 C1808 1.351 . S
C1808 C1802 1.428 . S
C1808 N1807 1.351 . S
C1808 C1809 1.434 . S
C1809 C1800 1.429 . S
C1809 N1806 1.350 . S
C1809 C1808 1.434 . S
C1810 C1811 1.369 . S
C1810 C1812 1.419 . S
C1810 H1814 0.930 . S
C1811 C1810 1.369 . S
C1811 C1820 1.429 . S
C1812 C1810 1.419 . S
C1812 C1813 1.363 . S
C1812 H1815 0.929 . S
C1813 C1812 1.363 . S
C1813 C1819 1.428 . S
H1814 C1810 0.930 . S
H1815 C1812 0.929 . S
S1816 N1817 1.613 . S
S1816 N1818 1.610 . S
N1817 S1816 1.613 . S
N1817 C1820 1.350 . S
N1818 S1816 1.610 . S
N1818 C1819 1.351 . S
C1819 C1813 1.428 . S
C1819 N1818 1.351 . S
C1819 C1820 1.434 . S
C1820 C1811 1.429 . S
C1820 N1817 1.350 . S
C1820 C1819 1.434 . S
C1821 C1822 1.369 . S
C1821 C1823 1.419 . S
C1821 H1825 0.930 . S
C1822 C1821 1.369 . S
C1822 C1831 1.429 . S
C1823 C1821 1.419 . S
C1823 C1824 1.363 . S
C1823 H1826 0.929 . S
C1824 C1823 1.363 . S
C1824 C1830 1.428 . S
H1825 C1821 0.930 . S
H1826 C1823 0.929 . S
S1827 N1828 1.613 . S
S1827 N1829 1.610 . S
N1828 S1827 1.613 . S
N1828 C1831 1.350 . S
N1829 S1827 1.610 . S
N1829 C1830 1.351 . S
C1830 C1824 1.428 . S
C1830 N1829 1.351 . S
C1830 C1831 1.434 . S
C1831 C1822 1.429 . S
C1831 N1828 1.350 . S
C1831 C1830 1.434 . S
C1832 C1833 1.369 . S
C1832 C1834 1.419 . S
C1832 H1836 0.930 . S
C1833 C1832 1.369 . S
C1833 C1842 1.429 . S
C1834 C1832 1.419 . S
C1834 C1835 1.363 . S
C1834 H1837 0.929 . S
C1835 C1834 1.363 . S
C1835 C1841 1.428 . S
H1836 C1832 0.930 . S
H1837 C1834 0.929 . S
S1838 N1839 1.613 . S
S1838 N1840 1.610 . S
N1839 S1838 1.613 . S
N1839 C1842 1.350 . S
N1840 S1838 1.610 . S
N1840 C1841 1.351 . S
C1841 C1835 1.428 . S
C1841 N1840 1.351 . S
C1841 C1842 1.434 . S
C1842 C1833 1.429 . S
C1842 N1839 1.350 . S
C1842 C1841 1.434 . S
C1843 C1844 1.369 . S
C1843 C1845 1.419 . S
C1843 H1847 0.930 . S
C1844 C1843 1.369 . S
C1844 C1853 1.429 . S
C1845 C1843 1.419 . S
C1845 C1846 1.363 . S
C1845 H1848 0.929 . S
C1846 C1845 1.363 . S
C1846 C1852 1.428 . S
H1847 C1843 0.930 . S
H1848 C1845 0.929 . S
S1849 N1850 1.613 . S
S1849 N1851 1.610 . S
N1850 S1849 1.613 . S
N1850 C1853 1.350 . S
N1851 S1849 1.610 . S
N1851 C1852 1.351 . S
C1852 C1846 1.428 . S
C1852 N1851 1.351 . S
C1852 C1853 1.434 . S
C1853 C1844 1.429 . S
C1853 N1850 1.350 . S
C1853 C1852 1.434 . S
C1261 C781 1.610 . S
C1263 C1086 1.571 . S
C1272 C871 1.478 . S
C1274 C1106 1.483 . S
C1283 C751 1.546 . S
C1285 C1129 1.574 . S
C1294 C691 1.461 . S
C1296 C1109 1.496 . S
C1307 C1126 1.466 . S
C1305 C571 1.422 . S
C1316 C601 1.529 . S
C1318 C1089 1.521 . S
C1329 C1096 1.576 . S
C1327 C661 1.543 . S
C1340 C1116 1.482 . S
C1338 C541 1.474 . S
C1349 C631 1.605 . S
C1351 C1121 1.573 . S
C1360 C811 1.515 . S
C1362 C1101 1.493 . S
C1371 C841 1.454 . S
C1373 C1136 1.471 . S
C1384 C1081 1.522 . S
C1382 C721 1.469 . S
C1395 C1146 1.576 . S
C1393 C61 1.642 . S
C1404 C151 1.485 . S
C1406 C1166 1.486 . S
C1415 C31 1.542 1_565 S
C1417 C1189 1.574 . S
C1426 C1051 1.458 . S
C1428 C1169 1.496 . S
C1437 C931 1.415 . S
C1439 C1186 1.470 . S
C1448 C961 1.533 . S
C1450 C1149 1.521 . S
C1459 C1021 1.553 . S
C1461 C1156 1.570 . S
C1470 C901 1.469 . S
C1472 C1176 1.486 . S
C1483 C1181 1.569 . S
C1481 C991 1.604 . S
C1492 C91 1.514 1_565 S
C1494 C1161 1.494 . S
C1505 C1196 1.472 . S
C1503 C121 1.453 1_455 S
C1514 C1 1.480 . S
C1516 C1141 1.517 . S
C1527 C1206 1.570 . S
C1525 C421 1.610 . S
C1536 C511 1.478 . S
C1538 C1226 1.489 . S
C1549 C1249 1.569 . S
C1547 C391 1.548 . S
C1560 C1229 1.491 . S
C1558 C331 1.466 1_545 S
C1571 C1246 1.472 . S
C1569 C211 1.417 1_655 S
C1580 C241 1.531 . S
C1582 C1209 1.522 . S
C1591 C301 1.544 . S
C1593 C1216 1.576 . S
C1602 C181 1.464 . S
C1604 C1236 1.489 . S
C1615 C1241 1.570 . S
C1613 C271 1.604 1_545 S
C1624 C451 1.513 . S
C1626 C1221 1.491 . S
C1635 C481 1.452 . S
C1637 C1256 1.471 . S
C1646 C361 1.478 . S
C1648 C1201 1.519 . S
C1657 C920 1.310 . S
C1659 C1099 1.305 1_565 S
C1670 C1119 1.589 . S
C1668 C980 1.643 . S
C1679 C1040 1.452 . S
C1681 C1128 1.471 . S
C1690 C380 1.585 . S
C1692 C1108 1.593 . S
C1701 C440 1.496 . S
C1703 C1139 1.474 . S
C1714 C1088 1.305 1_545 S
C1712 C500 1.283 . S
C1723 C200 1.310 . S
C1725 C1159 1.305 . S
C1734 C260 1.647 . S
C1736 C1179 1.591 . S
C1745 C320 1.459 . S
C1747 C1188 1.475 . S
C1756 C740 1.595 . S
C1758 C1168 1.592 . S
C1769 C1199 1.471 . S
C1767 C800 1.503 . S
C1778 C860 1.289 . S
C1780 C1148 1.298 . S
C1789 C560 1.310 . S
C1791 C1219 1.305 . S
C1800 C620 1.647 . S
C1802 C1239 1.589 . S
C1813 C1248 1.473 . S
C1811 C680 1.459 . S
C1822 C20 1.594 . S
C1824 C1228 1.594 . S
C1833 C80 1.503 . S
C1835 C1259 1.470 . S
C1844 C140 1.282 . S
C1846 C1208 1.304 . S
