# Generated by pormake.
# Topology pto, (3,4)-cn, num edge types: 1
# Building blocks:
#     Node 0, Type 0, BuildingBlock: BELTOD_clean_linker_0, # of connection points: 3
#     Node 1, Type 0, BuildingBlock: BELTOD_clean_linker_0, # of connection points: 3
#     Node 2, Type 0, BuildingBlock: BELTOD_clean_linker_0, # of connection points: 3
#     Node 3, Type 0, BuildingBlock: BELTOD_clean_linker_0, # of connection points: 3
#     Node 4, Type 0, BuildingBlock: BELTOD_clean_linker_0, # of connection points: 3
#     Node 5, Type 0, BuildingBlock: BELTOD_clean_linker_0, # of connection points: 3
#     Node 6, Type 0, BuildingBlock: BELTOD_clean_linker_0, # of connection points: 3
#     Node 7, Type 0, BuildingBlock: BELTOD_clean_linker_0, # of connection points: 3
#     Node 8, Type 1, BuildingBlock: KOZSID_clean_sbu_0, # of connection points: 4
#     Node 9, Type 1, BuildingBlock: KOZSID_clean_sbu_0, # of connection points: 4
#     Node 10, Type 1, BuildingBlock: KOZSID_clean_sbu_0, # of connection points: 4
#     Node 11, Type 1, BuildingBlock: KOZSID_clean_sbu_0, # of connection points: 4
#     Node 12, Type 1, BuildingBlock: KOZSID_clean_sbu_0, # of connection points: 4
#     Node 13, Type 1, BuildingBlock: KOZSID_clean_sbu_0, # of connection points: 4
#     Edge 14, Type (0, 1), BuildingBlock: OJICUG_clean_linker_0, # of connection points: 2
#     Edge 15, Type (0, 1), BuildingBlock: OJICUG_clean_linker_0, # of connection points: 2
#     Edge 16, Type (0, 1), BuildingBlock: OJICUG_clean_linker_0, # of connection points: 2
#     Edge 17, Type (0, 1), BuildingBlock: OJICUG_clean_linker_0, # of connection points: 2
#     Edge 18, Type (0, 1), BuildingBlock: OJICUG_clean_linker_0, # of connection points: 2
#     Edge 19, Type (0, 1), BuildingBlock: OJICUG_clean_linker_0, # of connection points: 2
#     Edge 20, Type (0, 1), BuildingBlock: OJICUG_clean_linker_0, # of connection points: 2
#     Edge 21, Type (0, 1), BuildingBlock: OJICUG_clean_linker_0, # of connection points: 2
#     Edge 22, Type (0, 1), BuildingBlock: OJICUG_clean_linker_0, # of connection points: 2
#     Edge 23, Type (0, 1), BuildingBlock: OJICUG_clean_linker_0, # of connection points: 2
#     Edge 24, Type (0, 1), BuildingBlock: OJICUG_clean_linker_0, # of connection points: 2
#     Edge 25, Type (0, 1), BuildingBlock: OJICUG_clean_linker_0, # of connection points: 2
#     Edge 26, Type (0, 1), BuildingBlock: OJICUG_clean_linker_0, # of connection points: 2
#     Edge 27, Type (0, 1), BuildingBlock: OJICUG_clean_linker_0, # of connection points: 2
#     Edge 28, Type (0, 1), BuildingBlock: OJICUG_clean_linker_0, # of connection points: 2
#     Edge 29, Type (0, 1), BuildingBlock: OJICUG_clean_linker_0, # of connection points: 2
#     Edge 30, Type (0, 1), BuildingBlock: OJICUG_clean_linker_0, # of connection points: 2
#     Edge 31, Type (0, 1), BuildingBlock: OJICUG_clean_linker_0, # of connection points: 2
#     Edge 32, Type (0, 1), BuildingBlock: OJICUG_clean_linker_0, # of connection points: 2
#     Edge 33, Type (0, 1), BuildingBlock: OJICUG_clean_linker_0, # of connection points: 2
#     Edge 34, Type (0, 1), BuildingBlock: OJICUG_clean_linker_0, # of connection points: 2
#     Edge 35, Type (0, 1), BuildingBlock: OJICUG_clean_linker_0, # of connection points: 2
#     Edge 36, Type (0, 1), BuildingBlock: OJICUG_clean_linker_0, # of connection points: 2
#     Edge 37, Type (0, 1), BuildingBlock: OJICUG_clean_linker_0, # of connection points: 2
# Relax obj value: 0.000
# Max RMSD: 0.034
# Mean RMSD: 0.013
data_MOF--net-pto--node1-KOZSID_clean_sbu_0--node2-BELTOD_clean_linker_0--edge1-OJICUG_clean_linker_0
_symmetry_space_group_name_H-M    P1
_symmetry_Int_Tables_number       1
_symmetry_cell_setting            triclinic
loop_
_symmetry_equiv_pos_as_xyz
'x, y, z'
_cell_length_a     33.809433
_cell_length_b     45.815842
_cell_length_c     39.740249
_cell_angle_alpha  86.213824
_cell_angle_beta   88.599967
_cell_angle_gamma 96.092109
loop_
_atom_site_label
_atom_site_type_symbol
_atom_site_fract_x
_atom_site_fract_y
_atom_site_fract_z
_atom_type_partial_charge
P0 P 0.33014 0.28948 0.34319 0.0
H1 H 0.39559 0.32367 0.30418 0.0
H2 H 0.42121 0.32201 0.24635 0.0
H3 H 0.32934 0.25176 0.22995 0.0
H4 H 0.30345 0.25403 0.28763 0.0
H5 H 0.29219 0.31253 0.40074 0.0
H6 H 0.24318 0.34789 0.40574 0.0
H7 H 0.23715 0.35691 0.29716 0.0
H8 H 0.28581 0.32152 0.29231 0.0
H9 H 0.36931 0.2363 0.34912 0.0
H10 H 0.25306 0.26143 0.37321 0.0
O11 O 0.36814 0.3016 0.36641 0.0
H12 H 0.34882 0.18653 0.37367 0.0
H13 H 0.23246 0.21168 0.39801 0.0
C14 C 0.34824 0.28853 0.30034 0.0
C15 C 0.38105 0.30788 0.28813 0.0
C16 C 0.39573 0.30684 0.25511 0.0
C17 C 0.37758 0.28654 0.23362 0.0
C18 C 0.34389 0.26775 0.24575 0.0
C19 C 0.32927 0.26884 0.27881 0.0
C20 C 0.29273 0.31447 0.34622 0.0
C21 C 0.28013 0.32204 0.37804 0.0
C22 C 0.25207 0.34213 0.38087 0.0
C23 C 0.23651 0.35524 0.35182 0.0
C24 C 0.24901 0.34741 0.31995 0.0
C25 C 0.27674 0.32707 0.31718 0.0
C26 C 0.3129 0.25262 0.35955 0.0
C27 C 0.33928 0.23103 0.3595 0.0
C28 C 0.32744 0.20255 0.37334 0.0
C29 C 0.289 0.19519 0.38776 0.0
C30 C 0.26237 0.2168 0.38733 0.0
C31 C 0.27417 0.24527 0.37316 0.0
P32 P 0.28292 0.76362 0.70537 0.0
H33 H 0.23521 0.73716 0.65279 0.0
H34 H 0.18394 0.69482 0.6538 0.0
H35 H 0.19146 0.68321 0.76197 0.0
H36 H 0.24113 0.726 0.76122 0.0
H37 H 0.32931 0.82052 0.69635 0.0
H38 H 0.31543 0.86849 0.67157 0.0
H39 H 0.19587 0.83235 0.65145 0.0
H40 H 0.20942 0.78452 0.6773 0.0
H41 H 0.33246 0.72664 0.74425 0.0
H42 H 0.27794 0.80626 0.75755 0.0
O43 O 0.31807 0.75378 0.67955 0.0
H44 H 0.36094 0.7296 0.8002 0.0
H45 H 0.3075 0.80979 0.81301 0.0
C46 C 0.242 0.73485 0.70686 0.0
C47 C 0.22524 0.72584 0.67678 0.0
C48 C 0.19612 0.70169 0.67733 0.0
C49 C 0.18417 0.6858 0.70794 0.0
C50 C 0.20051 0.69507 0.73806 0.0
C51 C 0.22891 0.71958 0.73758 0.0
C52 C 0.27047 0.79894 0.68876 0.0
C53 C 0.29992 0.82298 0.68703 0.0
C54 C 0.29194 0.85038 0.67299 0.0
C55 C 0.25454 0.85408 0.65973 0.0
C56 C 0.22496 0.82999 0.66146 0.0
C57 C 0.23276 0.80264 0.67617 0.0
C58 C 0.30392 0.76657 0.74641 0.0
C59 C 0.32694 0.74488 0.75907 0.0
C60 C 0.34295 0.74649 0.79105 0.0
C61 C 0.33654 0.77002 0.81071 0.0
C62 C 0.31319 0.79162 0.79812 0.0
C63 C 0.29647 0.78966 0.76639 0.0
P64 P 0.8343 0.78626 0.28407 0.0
H65 H 0.89244 0.81842 0.32437 0.0
H66 H 0.88649 0.85311 0.3679 0.0
H67 H 0.75831 0.83825 0.36427 0.0
H68 H 0.76458 0.80304 0.32128 0.0
H69 H 0.8609 0.7405 0.2451 0.0
H70 H 0.88187 0.69215 0.26027 0.0
H71 H 0.85691 0.70365 0.36548 0.0
H72 H 0.83631 0.75236 0.34998 0.0
H73 H 0.7992 0.83074 0.24281 0.0
H74 H 0.77213 0.73818 0.27143 0.0
O75 O 0.87156 0.80299 0.25921 0.0
H76 H 0.74195 0.82886 0.20622 0.0
H77 H 0.71491 0.73613 0.23486 0.0
C78 C 0.82901 0.80864 0.31916 0.0
C79 C 0.86307 0.82245 0.33319 0.0
C80 C 0.8596 0.84242 0.35791 0.0
C81 C 0.82192 0.84887 0.36916 0.0
C82 C 0.78777 0.83378 0.35622 0.0
C83 C 0.79132 0.81375 0.33147 0.0
C84 C 0.84741 0.75007 0.29639 0.0
C85 C 0.85979 0.73255 0.27143 0.0
C86 C 0.87147 0.7048 0.28014 0.0
C87 C 0.87103 0.69396 0.31412 0.0
C88 C 0.85797 0.71147 0.33912 0.0
C89 C 0.84608 0.73928 0.3303 0.0
C90 C 0.79029 0.78455 0.25935 0.0
C91 C 0.78079 0.81005 0.24132 0.0
C92 C 0.74795 0.80898 0.22059 0.0
C93 C 0.72409 0.78229 0.21748 0.0
C94 C 0.73311 0.75691 0.23636 0.0
C95 C 0.76582 0.75807 0.2573 0.0
P96 P 0.81565 0.24412 0.8012 0.0
H97 H 0.79594 0.21229 0.86667 0.0
H98 H 0.74027 0.21236 0.90704 0.0
H99 H 0.68408 0.27 0.83703 0.0
H100 H 0.73975 0.2695 0.79657 0.0
H101 H 0.87257 0.21416 0.76437 0.0
H102 H 0.86609 0.17957 0.72027 0.0
H103 H 0.73922 0.18483 0.72027 0.0
H104 H 0.74596 0.21935 0.76489 0.0
H105 H 0.81235 0.2999 0.83152 0.0
H106 H 0.84772 0.27098 0.73522 0.0
O107 O 0.85404 0.23551 0.82408 0.0
H108 H 0.83444 0.35071 0.812 0.0
H109 H 0.86995 0.32195 0.71549 0.0
C110 C 0.77223 0.24129 0.82891 0.0
C111 C 0.7715 0.22475 0.85989 0.0
C112 C 0.73975 0.22493 0.88302 0.0
C113 C 0.70799 0.24149 0.87543 0.0
C114 C 0.70798 0.25692 0.84361 0.0
C115 C 0.73984 0.25677 0.82052 0.0
C116 C 0.8097 0.21893 0.76831 0.0
C117 C 0.84332 0.20781 0.75498 0.0
C118 C 0.8396 0.18822 0.72953 0.0
C119 C 0.80211 0.17942 0.71673 0.0
C120 C 0.76843 0.19091 0.72988 0.0
C121 C 0.77226 0.2107 0.75533 0.0
C122 C 0.82753 0.28167 0.78463 0.0
C123 C 0.82404 0.30454 0.80589 0.0
C124 C 0.83665 0.33363 0.79467 0.0
C125 C 0.8537 0.34039 0.7621 0.0
C126 C 0.857 0.31742 0.74073 0.0
C127 C 0.84406 0.28827 0.75194 0.0
P128 P 0.82167 0.79791 0.79697 0.0
H129 H 0.81644 0.80109 0.87015 0.0
H130 H 0.76069 0.79665 0.91056 0.0
H131 H 0.67951 0.77905 0.82997 0.0
H132 H 0.73566 0.78572 0.78937 0.0
H133 H 0.89156 0.78012 0.76366 0.0
H134 H 0.90842 0.7332 0.745 0.0
H135 H 0.78956 0.69356 0.77368 0.0
H136 H 0.77353 0.74023 0.79343 0.0
H137 H 0.83344 0.8617 0.79232 0.0
H138 H 0.78958 0.79324 0.7291 0.0
O139 O 0.86236 0.81075 0.81659 0.0
H140 H 0.82409 0.8989 0.74727 0.0
H141 H 0.77923 0.83045 0.68392 0.0
C142 C 0.78017 0.79371 0.82676 0.0
C143 C 0.78663 0.79642 0.86113 0.0
C144 C 0.75457 0.79353 0.88436 0.0
C145 C 0.7153 0.78726 0.87378 0.0
C146 C 0.7091 0.78435 0.83916 0.0
C147 C 0.74122 0.78788 0.81586 0.0
C148 C 0.8316 0.76362 0.78052 0.0
C149 C 0.8691 0.76133 0.76582 0.0
C150 C 0.87855 0.7345 0.75483 0.0
C151 C 0.85041 0.70945 0.75798 0.0
C152 C 0.8122 0.71222 0.77144 0.0
C153 C 0.80289 0.73906 0.78262 0.0
C154 C 0.81307 0.82478 0.76371 0.0
C155 C 0.82169 0.85471 0.76869 0.0
C156 C 0.81593 0.87598 0.743 0.0
C157 C 0.80102 0.86768 0.71189 0.0
C158 C 0.79137 0.83756 0.70736 0.0
C159 C 0.79719 0.81627 0.73316 0.0
P160 P 0.82867 0.24833 0.29316 0.0
H161 H 0.90804 0.27768 0.30196 0.0
H162 H 0.93203 0.32592 0.32019 0.0
H163 H 0.81081 0.34306 0.34091 0.0
H164 H 0.78697 0.29461 0.32187 0.0
H165 H 0.81817 0.18496 0.28953 0.0
H166 H 0.81087 0.14383 0.33204 0.0
H167 H 0.82166 0.20506 0.41055 0.0
H168 H 0.82627 0.24602 0.36772 0.0
H169 H 0.80759 0.29364 0.24439 0.0
H170 H 0.75237 0.21047 0.28936 0.0
O171 O 0.86333 0.24053 0.26554 0.0
H172 H 0.75124 0.2968 0.20738 0.0
H173 H 0.69657 0.21326 0.2519 0.0
C174 C 0.84576 0.28287 0.3099 0.0
C175 C 0.88661 0.29174 0.31055 0.0
C176 C 0.90029 0.3193 0.32128 0.0
C177 C 0.87333 0.33847 0.33195 0.0
C178 C 0.83232 0.32902 0.3324 0.0
C179 C 0.81866 0.30133 0.32165 0.0
C180 C 0.82265 0.21852 0.32541 0.0
C181 C 0.8186 0.18948 0.31595 0.0
C182 C 0.81485 0.16594 0.34038 0.0
C183 C 0.816 0.17092 0.37494 0.0
C184 C 0.82002 0.20022 0.38429 0.0
C185 C 0.82302 0.22379 0.35975 0.0
C186 C 0.78422 0.25195 0.26983 0.0
C187 C 0.78309 0.27629 0.24671 0.0
C188 C 0.75091 0.27809 0.22558 0.0
C189 C 0.71964 0.25522 0.22676 0.0
C190 C 0.72047 0.23107 0.25033 0.0
C191 C 0.75243 0.22951 0.27181 0.0
P192 P 0.30118 0.30209 0.70392 0.0
H193 H 0.28752 0.2855 0.63548 0.0
H194 H 0.26883 0.23827 0.61186 0.0
H195 H 0.25416 0.19617 0.71264 0.0
H196 H 0.27341 0.24346 0.73601 0.0
H197 H 0.3068 0.36576 0.70287 0.0
H198 H 0.25713 0.40054 0.70606 0.0
H199 H 0.16361 0.32813 0.71277 0.0
H200 H 0.21367 0.29347 0.70889 0.0
H201 H 0.37739 0.28561 0.7266 0.0
H202 H 0.26625 0.30347 0.77224 0.0
O203 O 0.33867 0.31765 0.67849 0.0
H204 H 0.40425 0.27714 0.78248 0.0
H205 H 0.29263 0.29455 0.82831 0.0
C206 C 0.28272 0.26783 0.68738 0.0
C207 C 0.27997 0.26612 0.65246 0.0
C208 C 0.26897 0.23913 0.63902 0.0
C209 C 0.26034 0.21338 0.66038 0.0
C210 C 0.26131 0.21551 0.69551 0.0
C211 C 0.27225 0.24255 0.70891 0.0
C212 C 0.26383 0.32717 0.70495 0.0
C213 C 0.27557 0.35742 0.70468 0.0
C214 C 0.24714 0.37724 0.70683 0.0
C215 C 0.20636 0.36712 0.70964 0.0
C216 C 0.19473 0.33666 0.7101 0.0
C217 C 0.22329 0.31683 0.70794 0.0
C218 C 0.32024 0.29584 0.74533 0.0
C219 C 0.35881 0.28776 0.7487 0.0
C220 C 0.37396 0.28264 0.78067 0.0
C221 C 0.35062 0.28528 0.80989 0.0
C222 C 0.31159 0.29282 0.80633 0.0
C223 C 0.29646 0.2979 0.77429 0.0
P224 P 0.31214 0.75109 0.34138 0.0
H225 H 0.38841 0.7785 0.31344 0.0
H226 H 0.41659 0.78625 0.25592 0.0
H227 H 0.30508 0.74883 0.21783 0.0
H228 H 0.27685 0.74198 0.27535 0.0
H229 H 0.30262 0.76491 0.41102 0.0
H230 H 0.28838 0.80946 0.43742 0.0
H231 H 0.27691 0.85307 0.33889 0.0
H232 H 0.29055 0.80809 0.31265 0.0
H233 H 0.30958 0.68979 0.32759 0.0
H234 H 0.22618 0.74849 0.35874 0.0
O235 O 0.34883 0.73882 0.36381 0.0
H236 H 0.25653 0.64912 0.33083 0.0
H237 H 0.17297 0.70765 0.36299 0.0
C238 C 0.33092 0.75908 0.29866 0.0
C239 C 0.37001 0.77214 0.29265 0.0
C240 C 0.38612 0.7764 0.25977 0.0
C241 C 0.3633 0.76773 0.23228 0.0
C242 C 0.32346 0.75583 0.23838 0.0
C243 C 0.30735 0.75167 0.27131 0.0
C244 C 0.2985 0.78347 0.35995 0.0
C245 C 0.2969 0.78404 0.39512 0.0
C246 C 0.28889 0.80954 0.41015 0.0
C247 C 0.28212 0.83494 0.39023 0.0
C248 C 0.28196 0.83385 0.35492 0.0
C249 C 0.29004 0.80824 0.33988 0.0
C250 C 0.27192 0.72197 0.34335 0.0
C251 C 0.27982 0.69384 0.33533 0.0
C252 C 0.24949 0.67059 0.33739 0.0
C253 C 0.21057 0.67504 0.34761 0.0
C254 C 0.20256 0.70352 0.35492 0.0
C255 C 0.23303 0.72684 0.35273 0.0
C256 C 0.07698 0.55857 0.38695 0.0
C257 C 0.08832 0.56718 0.41848 0.0
C258 C 0.0719 0.54556 0.44162 0.0
C259 C 0.05134 0.52513 0.42306 0.0
N260 N 0.05362 0.53256 0.38966 0.0
Co261 Co 0.02731 0.50975 0.35394 0.0
N262 N 0.99074 0.48562 0.38755 0.0
C263 C 0.99458 0.48396 0.42128 0.0
C264 C 0.96493 0.46562 0.43826 0.0
C265 C 0.94124 0.45452 0.4137 0.0
C266 C 0.95805 0.4666 0.38298 0.0
N267 N 0.00135 0.48683 0.31805 0.0
C268 C 0.96802 0.46742 0.31939 0.0
C269 C 0.96187 0.45559 0.28834 0.0
C270 C 0.99273 0.46746 0.26722 0.0
C271 C 0.01597 0.48584 0.28631 0.0
N272 N 0.06383 0.53392 0.32045 0.0
C273 C 0.0721 0.52731 0.28872 0.0
C274 C 0.09875 0.54803 0.27155 0.0
C275 C 0.10803 0.56898 0.29394 0.0
C276 C 0.08633 0.5598 0.3236 0.0
N277 N 0.06625 0.48112 0.35905 0.0
C278 C 0.1226 0.44047 0.3609 0.0
C279 C 0.13451 0.47068 0.36098 0.0
C280 C 0.10592 0.49058 0.36032 0.0
C281 C 0.08187 0.43099 0.36094 0.0
C282 C 0.0543 0.45161 0.3599 0.0
N283 N 0.98886 0.53863 0.3486 0.0
C284 C 0.95728 0.57283 0.31248 0.0
C285 C 0.94176 0.58526 0.34057 0.0
C286 C 0.94897 0.57295 0.37277 0.0
C287 C 0.97237 0.54958 0.37622 0.0
C288 C 0.98061 0.5496 0.31704 0.0
H289 H 0.97803 0.54099 0.40131 0.0
H290 H 0.99313 0.54124 0.29493 0.0
H291 H 0.11608 0.51368 0.3602 0.0
H292 H 0.02338 0.44357 0.35901 0.0
C293 C 0.02402 0.50202 0.43626 0.0
C294 C 0.09071 0.57475 0.35499 0.0
C295 C 0.94553 0.45593 0.35045 0.0
C296 C 0.04957 0.50432 0.27442 0.0
H297 H 0.1064 0.58705 0.42421 0.0
H298 H 0.07325 0.54547 0.46881 0.0
H299 H 0.96084 0.46101 0.46526 0.0
H300 H 0.91537 0.43849 0.41781 0.0
H301 H 0.93847 0.43917 0.28182 0.0
H302 H 0.99761 0.4632 0.24105 0.0
H303 H 0.10915 0.54841 0.24554 0.0
H304 H 0.12873 0.58859 0.28907 0.0
H305 H 0.16572 0.47892 0.36142 0.0
H306 H 0.07136 0.40783 0.36065 0.0
H307 H 0.95287 0.58173 0.28709 0.0
H308 H 0.93706 0.58152 0.3952 0.0
C309 C 0.05916 0.56861 0.75039 0.0
C310 C 0.07433 0.57976 0.77971 0.0
C311 C 0.05599 0.56264 0.80608 0.0
C312 C 0.03042 0.54231 0.79156 0.0
N313 N 0.03143 0.54521 0.75742 0.0
Co314 Co 0.99617 0.52203 0.72651 0.0
N315 N 0.96898 0.49704 0.76555 0.0
C316 C 0.97647 0.49895 0.79867 0.0
C317 C 0.955 0.47765 0.81944 0.0
C318 C 0.93294 0.4607 0.79833 0.0
C319 C 0.94212 0.47284 0.76575 0.0
N320 N 0.9603 0.49928 0.69572 0.0
C321 C 0.93377 0.47518 0.70266 0.0
C322 C 0.91539 0.46582 0.67385 0.0
C323 C 0.93148 0.48435 0.64759 0.0
C324 C 0.95851 0.50393 0.66186 0.0
N325 N 0.02408 0.54643 0.6874 0.0
C326 C 0.01713 0.54392 0.65427 0.0
C327 C 0.04167 0.56309 0.63318 0.0
C328 C 0.06559 0.57898 0.65405 0.0
C329 C 0.05392 0.56875 0.68685 0.0
N330 N 0.03548 0.49306 0.72325 0.0
C331 C 0.09055 0.45127 0.71902 0.0
C332 C 0.07085 0.46086 0.69053 0.0
C333 C 0.0437 0.48162 0.69317 0.0
C334 C 0.08215 0.46297 0.74966 0.0
C335 C 0.05479 0.48365 0.75119 0.0
N336 N 0.95697 0.55127 0.7298 0.0
C337 C 0.92106 0.58924 0.70347 0.0
C338 C 0.91089 0.59876 0.73492 0.0
C339 C 0.92216 0.58292 0.7637 0.0
C340 C 0.94467 0.55939 0.76059 0.0
C341 C 0.9437 0.56552 0.70151 0.0
H342 H 0.95268 0.54876 0.78357 0.0
H343 H 0.95085 0.55962 0.67682 0.0
H344 H 0.02974 0.4881 0.67054 0.0
H345 H 0.04963 0.49163 0.77529 0.0
C346 C 0.0049 0.5204 0.80938 0.0
C347 C 0.07141 0.58144 0.71657 0.0
C348 C 0.92637 0.45965 0.73575 0.0
C349 C 0.98597 0.52441 0.64383 0.0
H350 H 0.09599 0.5986 0.78201 0.0
H351 H 0.06034 0.56501 0.83269 0.0
H352 H 0.9561 0.47435 0.84661 0.0
H353 H 0.91314 0.44118 0.80609 0.0
H354 H 0.89347 0.44704 0.67195 0.0
H355 H 0.92545 0.48292 0.62108 0.0
H356 H 0.04174 0.56553 0.6059 0.0
H357 H 0.08868 0.5964 0.64599 0.0
H358 H 0.07673 0.45275 0.66611 0.0
H359 H 0.09624 0.45597 0.77256 0.0
H360 H 0.91216 0.60029 0.68038 0.0
H361 H 0.9152 0.58935 0.78873 0.0
C362 C 0.28585 0.98167 0.57731 0.0
C363 C 0.32117 0.97338 0.59021 0.0
C364 C 0.3513 0.99163 0.5743 0.0
C365 C 0.33291 0.00977 0.55246 0.0
N366 N 0.2927 0.00461 0.55378 0.0
Co367 Co 0.25465 0.02389 0.52374 0.0
N368 N 0.29939 0.04936 0.49878 0.0
C369 C 0.33868 0.05021 0.50493 0.0
C370 C 0.3621 0.07124 0.48528 0.0
C371 C 0.33624 0.08508 0.46574 0.0
C372 C 0.29834 0.07147 0.4745 0.0
N373 N 0.21674 0.04249 0.49307 0.0
C374 C 0.22365 0.06478 0.46877 0.0
C375 C 0.18884 0.07121 0.4535 0.0
C376 C 0.15868 0.0527 0.46918 0.0
C377 C 0.17677 0.036 0.4929 0.0
N378 N 0.2099 0.99907 0.54934 0.0
C379 C 0.17048 0.99969 0.54474 0.0
C380 C 0.14691 0.97999 0.56603 0.0
C381 C 0.17281 0.96565 0.5851 0.0
C382 C 0.21082 0.97736 0.57412 0.0
N383 N 0.25079 0.05531 0.55545 0.0
C384 C 0.24745 0.10361 0.59549 0.0
C385 C 0.21337 0.09098 0.58057 0.0
C386 C 0.21561 0.06688 0.56103 0.0
C387 C 0.28285 0.09098 0.59099 0.0
C388 C 0.28384 0.06708 0.57112 0.0
N389 N 0.25859 0.99245 0.49209 0.0
C390 C 0.22785 0.95131 0.46338 0.0
C391 C 0.26512 0.94327 0.45413 0.0
C392 C 0.29889 0.96123 0.46255 0.0
C393 C 0.29498 0.98553 0.48122 0.0
C394 C 0.22529 0.97587 0.48214 0.0
H395 H 0.32195 0.99797 0.48715 0.0
H396 H 0.19608 0.98055 0.48901 0.0
H397 H 0.18864 0.05831 0.55028 0.0
H398 H 0.31194 0.05896 0.56825 0.0
C399 C 0.35264 0.03127 0.52974 0.0
C400 C 0.24677 0.96615 0.58686 0.0
C401 C 0.2622 0.08135 0.46039 0.0
C402 C 0.15676 0.0166 0.51781 0.0
H403 H 0.3251 0.95553 0.60858 0.0
H404 H 0.38292 0.9912 0.57761 0.0
H405 H 0.39408 0.07633 0.48566 0.0
H406 H 0.34444 0.10357 0.44768 0.0
H407 H 0.18553 0.08809 0.43371 0.0
H408 H 0.12717 0.05228 0.46474 0.0
H409 H 0.11477 0.97576 0.5667 0.0
H410 H 0.16471 0.94799 0.60428 0.0
H411 H 0.18508 0.09972 0.58381 0.0
H412 H 0.31018 0.1001 0.6018 0.0
H413 H 0.20078 0.93813 0.45731 0.0
H414 H 0.32841 0.95636 0.45514 0.0
C415 C 0.44887 0.80276 0.0803 0.0
C416 C 0.43832 0.82943 0.09028 0.0
C417 C 0.45958 0.8509 0.06984 0.0
C418 C 0.48195 0.83618 0.04882 0.0
N419 N 0.4757 0.80656 0.05404 0.0
Co420 Co 0.50477 0.77682 0.03141 0.0
N421 N 0.53955 0.80849 0.00425 0.0
C422 C 0.53723 0.83783 0.00379 0.0
C423 C 0.56511 0.85421 0.98285 0.0
C424 C 0.58634 0.83419 0.96879 0.0
C425 C 0.5699 0.80654 0.98183 0.0
N426 N 0.53487 0.74703 0.00992 0.0
C427 C 0.56593 0.75083 0.98722 0.0
C428 C 0.57767 0.72403 0.97871 0.0
C429 C 0.55358 0.70261 0.99693 0.0
C430 C 0.52844 0.7174 0.01536 0.0
N431 N 0.46915 0.74518 0.05777 0.0
C432 C 0.46791 0.71581 0.05527 0.0
C433 C 0.44055 0.69966 0.077 0.0
C434 C 0.42373 0.71991 0.09479 0.0
C435 C 0.44206 0.7473 0.08291 0.0
N436 N 0.46644 0.77576 0.99405 0.0
C437 C 0.41749 0.77486 0.9373 0.0
C438 C 0.43222 0.74932 0.95063 0.0
C439 C 0.45592 0.7502 0.97885 0.0
C440 C 0.42671 0.80071 0.95367 0.0
C441 C 0.45108 0.80069 0.98162 0.0
N442 N 0.54308 0.77782 0.06837 0.0
C443 C 0.57883 0.75237 0.11111 0.0
C444 C 0.59933 0.77885 0.11965 0.0
C445 C 0.59051 0.80488 0.10242 0.0
C446 C 0.5624 0.80388 0.0772 0.0
C447 C 0.55117 0.75235 0.0856 0.0
H448 H 0.55699 0.82444 0.06496 0.0
H449 H 0.53678 0.73143 0.08013 0.0
H450 H 0.46585 0.72988 0.98739 0.0
H451 H 0.45736 0.82124 0.9924 0.0
C452 C 0.5104 0.84947 0.02504 0.0
C453 C 0.43455 0.7745 0.09771 0.0
C454 C 0.58431 0.77918 0.97226 0.0
C455 C 0.4966 0.70406 0.03595 0.0
H456 H 0.41817 0.8331 0.11075 0.0
H457 H 0.45968 0.87446 0.0709 0.0
H458 H 0.56991 0.87794 0.97877 0.0
H459 H 0.61134 0.83948 0.95115 0.0
H460 H 0.60078 0.72023 0.96072 0.0
H461 H 0.55373 0.67905 0.99621 0.0
H462 H 0.43494 0.67594 0.08067 0.0
H463 H 0.40151 0.71509 0.11503 0.0
H464 H 0.42655 0.72869 0.93889 0.0
H465 H 0.41539 0.82103 0.94496 0.0
H466 H 0.58393 0.73164 0.1241 0.0
H467 H 0.60578 0.82597 0.10779 0.0
C468 C 0.83566 0.97414 0.59337 0.0
C469 C 0.87137 0.96687 0.60642 0.0
C470 C 0.90096 0.98454 0.58898 0.0
C471 C 0.88178 0.0016 0.56648 0.0
N472 N 0.84162 0.99611 0.5686 0.0
Co473 Co 0.80227 0.01572 0.54031 0.0
N474 N 0.84601 0.04166 0.51453 0.0
C475 C 0.8856 0.04234 0.51932 0.0
C476 C 0.90826 0.06354 0.49932 0.0
C477 C 0.88164 0.07744 0.48068 0.0
C478 C 0.84406 0.06363 0.49019 0.0
N479 N 0.76301 0.03502 0.51165 0.0
C480 C 0.76894 0.05689 0.48674 0.0
C481 C 0.73334 0.06311 0.4726 0.0
C482 C 0.70384 0.04502 0.48963 0.0
C483 C 0.72297 0.02866 0.51288 0.0
N484 N 0.75854 0.99016 0.56648 0.0
C485 C 0.71892 0.99005 0.56236 0.0
C486 C 0.69617 0.96998 0.58377 0.0
C487 C 0.72279 0.95636 0.60274 0.0
C488 C 0.76042 0.96904 0.59179 0.0
N489 N 0.79964 0.04623 0.57339 0.0
C490 C 0.79684 0.09092 0.61875 0.0
C491 C 0.76204 0.07783 0.60527 0.0
C492 C 0.76411 0.05573 0.58277 0.0
C493 C 0.83288 0.08088 0.60952 0.0
C494 C 0.83358 0.05876 0.58712 0.0
N495 N 0.80496 0.98517 0.50723 0.0
C496 C 0.77266 0.94797 0.47352 0.0
C497 C 0.8094 0.94059 0.46186 0.0
C498 C 0.84381 0.95605 0.47321 0.0
C499 C 0.84094 0.97802 0.49558 0.0
C500 C 0.77114 0.97017 0.49592 0.0
H501 H 0.86833 0.98876 0.50325 0.0
H502 H 0.74225 0.97475 0.50375 0.0
H503 H 0.73663 0.0468 0.57313 0.0
H504 H 0.86204 0.05225 0.58128 0.0
C505 C 0.90062 0.02326 0.54343 0.0
C506 C 0.79698 0.95959 0.60548 0.0
C507 C 0.80745 0.07263 0.47588 0.0
C508 C 0.70406 0.00801 0.53703 0.0
H509 H 0.87565 0.9505 0.62652 0.0
H510 H 0.93268 0.98495 0.59235 0.0
H511 H 0.94028 0.06864 0.49878 0.0
H512 H 0.88919 0.09594 0.46251 0.0
H513 H 0.72903 0.07921 0.45222 0.0
H514 H 0.67216 0.04412 0.48576 0.0
H515 H 0.66407 0.96541 0.58501 0.0
H516 H 0.71533 0.93876 0.6221 0.0
H517 H 0.73338 0.08493 0.61156 0.0
H518 H 0.86061 0.08984 0.61981 0.0
H519 H 0.74509 0.93694 0.46512 0.0
H520 H 0.87304 0.95096 0.46529 0.0
C521 C 0.46397 0.30184 0.08064 0.0
C522 C 0.46032 0.33048 0.0886 0.0
C523 C 0.48576 0.34834 0.06709 0.0
C524 C 0.50337 0.32962 0.04735 0.0
N525 N 0.49007 0.30091 0.05441 0.0
Co526 Co 0.50984 0.26607 0.03398 0.0
N527 N 0.55087 0.29199 0.00529 0.0
C528 C 0.55616 0.32177 0.00291 0.0
C529 C 0.58587 0.33344 0.98037 0.0
C530 C 0.60032 0.30974 0.96735 0.0
C531 C 0.57855 0.28487 0.98288 0.0
N532 N 0.5305 0.23112 0.01447 0.0
C533 C 0.56073 0.22975 0.99177 0.0
C534 C 0.5658 0.2009 0.98554 0.0
C535 C 0.53759 0.18339 0.00482 0.0
C536 C 0.51711 0.20245 0.02175 0.0
N537 N 0.46809 0.24026 0.062 0.0
C538 C 0.4598 0.21074 0.06169 0.0
C539 C 0.43031 0.1991 0.08448 0.0
C540 C 0.41952 0.22251 0.10071 0.0
C541 C 0.44315 0.24717 0.08677 0.0
N542 N 0.47188 0.26877 0.99665 0.0
C543 C 0.42488 0.27247 0.9391 0.0
C544 C 0.43012 0.24527 0.9554 0.0
C545 C 0.45334 0.24394 0.98395 0.0
C546 C 0.44205 0.29781 0.95302 0.0
C547 C 0.46505 0.29548 0.98158 0.0
N548 N 0.54777 0.26341 0.07101 0.0
C549 C 0.57532 0.23556 0.11686 0.0
C550 C 0.60111 0.26009 0.12425 0.0
C551 C 0.59959 0.28629 0.10442 0.0
C552 C 0.57281 0.2875 0.07833 0.0
C553 C 0.5493 0.23764 0.09024 0.0
H554 H 0.57295 0.30818 0.06437 0.0
H555 H 0.53058 0.21815 0.08574 0.0
H556 H 0.4563 0.22253 0.99488 0.0
H557 H 0.47762 0.31566 0.99043 0.0
C558 C 0.53378 0.33814 0.02316 0.0
C559 C 0.44333 0.27622 0.09966 0.0
C560 C 0.58502 0.25504 0.97515 0.0
C561 C 0.48394 0.19422 0.04326 0.0
H562 H 0.44183 0.33761 0.10843 0.0
H563 H 0.49159 0.37206 0.06657 0.0
H564 H 0.59595 0.35644 0.97424 0.0
H565 H 0.62416 0.31065 0.94849 0.0
H566 H 0.58743 0.19332 0.96855 0.0
H567 H 0.53229 0.15962 0.00601 0.0
H568 H 0.41947 0.17614 0.08993 0.0
H569 H 0.39784 0.22133 0.12136 0.0
H570 H 0.41664 0.22499 0.94604 0.0
H571 H 0.43901 0.31945 0.94131 0.0
H572 H 0.57482 0.21482 0.13168 0.0
H573 H 0.61937 0.30582 0.10856 0.0
C574 C 0.1752 0.37207 0.37785 0.0
C575 C 0.20767 0.37727 0.35469 0.0
H576 H 0.1228 0.38802 0.39799 0.0
C577 C 0.21244 0.40366 0.33419 0.0
H578 H 0.1707 0.35184 0.39385 0.0
C579 C 0.18521 0.42439 0.33668 0.0
C580 C 0.15242 0.41902 0.35948 0.0
H581 H 0.2374 0.40837 0.31634 0.0
H582 H 0.18939 0.44438 0.32027 0.0
C583 C 0.1477 0.39266 0.38007 0.0
C584 C 0.11727 0.6601 0.69645 0.0
C585 C 0.15577 0.65894 0.70853 0.0
H586 H 0.05996 0.6363 0.69023 0.0
C587 C 0.16696 0.632 0.72192 0.0
H588 H 0.10808 0.68069 0.68606 0.0
C589 C 0.13995 0.60664 0.72351 0.0
C590 C 0.101 0.60798 0.71256 0.0
H591 H 0.19666 0.63062 0.73112 0.0
H592 H 0.14914 0.58607 0.73396 0.0
C593 C 0.08991 0.63484 0.69878 0.0
C594 C 0.91088 0.66168 0.3505 0.0
C595 C 0.88572 0.66504 0.32318 0.0
H596 H 0.94853 0.63402 0.37723 0.0
C597 C 0.87674 0.6411 0.30326 0.0
H598 H 0.91877 0.67977 0.36613 0.0
C599 C 0.89379 0.61487 0.30962 0.0
C600 C 0.92023 0.6119 0.33608 0.0
H601 H 0.85688 0.64276 0.2824 0.0
H602 H 0.88663 0.59701 0.2935 0.0
C603 C 0.92794 0.63541 0.35688 0.0
C604 C 0.84954 0.39492 0.75957 0.0
C605 C 0.87022 0.37107 0.75156 0.0
H606 H 0.85116 0.44187 0.76032 0.0
C607 C 0.90814 0.37684 0.73565 0.0
H608 H 0.82009 0.39119 0.77143 0.0
C609 C 0.92574 0.40577 0.72937 0.0
C610 C 0.90568 0.42935 0.73878 0.0
H611 H 0.92497 0.35897 0.72945 0.0
H612 H 0.95559 0.40971 0.71828 0.0
C613 C 0.8671 0.42383 0.75311 0.0
C614 C 0.25882 0.16231 0.43678 0.0
C615 C 0.27774 0.16548 0.40463 0.0
H616 H 0.23923 0.13286 0.47966 0.0
C617 C 0.28829 0.14025 0.38977 0.0
H618 H 0.25063 0.18135 0.44898 0.0
C619 C 0.28157 0.11262 0.40728 0.0
C620 C 0.26455 0.10983 0.44001 0.0
H621 H 0.30243 0.14197 0.36486 0.0
H622 H 0.29092 0.09357 0.39581 0.0
C623 C 0.25238 0.13469 0.45437 0.0
C624 C 0.34991 0.74802 0.86801 0.0
C625 C 0.35476 0.77211 0.84406 0.0
H626 H 0.36425 0.73038 0.91672 0.0
C627 C 0.37839 0.79777 0.85159 0.0
H628 H 0.33139 0.72812 0.8629 0.0
C629 C 0.39811 0.79891 0.88208 0.0
C630 C 0.39408 0.77455 0.90594 0.0
H631 H 0.38278 0.81657 0.83336 0.0
H632 H 0.41756 0.81856 0.88635 0.0
C633 C 0.369 0.74932 0.89874 0.0
C634 C 0.78935 0.86863 0.4194 0.0
C635 C 0.81844 0.87219 0.39311 0.0
H636 H 0.76398 0.88719 0.46196 0.0
C637 C 0.84401 0.89856 0.38939 0.0
H638 H 0.7694 0.8485 0.42314 0.0
C639 C 0.84086 0.9207 0.41151 0.0
C640 C 0.81204 0.9171 0.43799 0.0
H641 H 0.86617 0.90232 0.36898 0.0
H642 H 0.86073 0.94086 0.40757 0.0
C643 C 0.7862 0.89083 0.4416 0.0
C644 C 0.68567 0.2478 0.93495 0.0
C645 C 0.67605 0.24379 0.90118 0.0
H646 H 0.66407 0.25462 0.9848 0.0
C647 C 0.63597 0.24291 0.89215 0.0
H648 H 0.71629 0.24902 0.94263 0.0
C649 C 0.60628 0.24617 0.91633 0.0
C650 C 0.61623 0.25049 0.9498 0.0
H651 H 0.62758 0.23961 0.86644 0.0
H652 H 0.57561 0.2456 0.90889 0.0
C653 C 0.656 0.25117 0.95903 0.0
C654 C 0.23358 0.88412 0.60968 0.0
C655 C 0.24752 0.88272 0.64271 0.0
H656 H 0.22288 0.91198 0.56597 0.0
C657 C 0.25777 0.909 0.65832 0.0
H658 H 0.22571 0.86417 0.59705 0.0
C659 C 0.25557 0.9362 0.64075 0.0
C660 C 0.24396 0.93752 0.60709 0.0
H661 H 0.26827 0.90848 0.68387 0.0
H662 H 0.26447 0.95622 0.65294 0.0
C663 C 0.23203 0.91134 0.59193 0.0
C664 C 0.66507 0.80287 0.19137 0.0
C665 C 0.69092 0.78078 0.19361 0.0
H666 H 0.61538 0.81926 0.16695 0.0
C667 C 0.68581 0.75771 0.17199 0.0
H668 H 0.66799 0.82074 0.20797 0.0
C669 C 0.65597 0.75699 0.14826 0.0
C670 C 0.63029 0.77923 0.14571 0.0
H671 H 0.70564 0.74061 0.17275 0.0
H672 H 0.65373 0.73936 0.13133 0.0
C673 C 0.63502 0.80205 0.16777 0.0
C674 C 0.82695 0.16012 0.66343 0.0
C675 C 0.79853 0.15802 0.69012 0.0
H676 H 0.84822 0.14104 0.61973 0.0
C677 C 0.76792 0.13458 0.69198 0.0
H678 H 0.85042 0.17823 0.66085 0.0
C679 C 0.76668 0.11316 0.66835 0.0
C680 C 0.79601 0.11474 0.64238 0.0
H681 H 0.74576 0.13221 0.71239 0.0
H682 H 0.74357 0.09482 0.67113 0.0
C683 C 0.8257 0.13878 0.63987 0.0
C684 C 0.4357 0.28627 0.19311 0.0
C685 C 0.39427 0.28454 0.19898 0.0
H686 H 0.48346 0.28486 0.15683 0.0
C687 C 0.36904 0.28045 0.17163 0.0
H688 H 0.45594 0.28903 0.21364 0.0
C689 C 0.3849 0.27794 0.13925 0.0
C690 C 0.42618 0.27935 0.13373 0.0
H691 H 0.33705 0.27941 0.17521 0.0
H692 H 0.36502 0.27479 0.11851 0.0
C693 C 0.45149 0.28373 0.16075 0.0
C694 C 0.84906 0.65483 0.77013 0.0
C695 C 0.86189 0.68029 0.74936 0.0
H696 H 0.85351 0.60902 0.78136 0.0
C697 C 0.88797 0.67793 0.72178 0.0
H698 H 0.82923 0.65579 0.79174 0.0
C699 C 0.90252 0.65115 0.71621 0.0
C700 C 0.89118 0.62604 0.73799 0.0
H701 H 0.89794 0.69696 0.70491 0.0
H702 H 0.92403 0.65051 0.6957 0.0
C703 C 0.86341 0.62803 0.76444 0.0
C704 C 0.86934 0.3932 0.32984 0.0
C705 C 0.88834 0.36858 0.34104 0.0
H706 H 0.87252 0.44044 0.32441 0.0
C707 C 0.92376 0.37314 0.35868 0.0
H708 H 0.84219 0.3905 0.31596 0.0
C709 C 0.9411 0.40157 0.36311 0.0
C710 C 0.92322 0.42611 0.35037 0.0
H711 H 0.93876 0.3547 0.36825 0.0
H712 H 0.96934 0.40438 0.37544 0.0
C713 C 0.88664 0.42176 0.33454 0.0
C714 C 0.18323 0.41245 0.73238 0.0
C715 C 0.17628 0.38834 0.71239 0.0
H716 H 0.16202 0.45131 0.7498 0.0
C717 C 0.14068 0.38489 0.69482 0.0
H718 H 0.21012 0.41557 0.74657 0.0
C719 C 0.11284 0.40525 0.69697 0.0
C720 C 0.11993 0.42946 0.71682 0.0
H721 H 0.13457 0.36669 0.67899 0.0
H722 H 0.0856 0.40189 0.68329 0.0
C723 C 0.15542 0.43277 0.73455 0.0
C724 C 0.14014 0.65287 0.34005 0.0
C725 C 0.17887 0.64983 0.35102 0.0
H726 H 0.08165 0.63118 0.33282 0.0
C727 C 0.18756 0.6222 0.36466 0.0
H728 H 0.13263 0.67376 0.32907 0.0
C729 C 0.15859 0.59806 0.36656 0.0
C730 C 0.12018 0.6011 0.35531 0.0
H731 H 0.21687 0.61917 0.37379 0.0
H732 H 0.16629 0.57684 0.37642 0.0
C733 C 0.11104 0.62862 0.34208 0.0
C734 C 0.80832 0.88576 0.65072 0.0
C735 C 0.79694 0.89042 0.68408 0.0
H736 H 0.81709 0.90423 0.59965 0.0
C737 C 0.78353 0.91755 0.6909 0.0
H738 H 0.81924 0.8653 0.64465 0.0
C739 C 0.7827 0.93979 0.6652 0.0
C740 C 0.79505 0.93526 0.63222 0.0
H741 H 0.77399 0.9217 0.71619 0.0
H742 H 0.77307 0.96073 0.67113 0.0
C743 C 0.80736 0.90801 0.62502 0.0
C744 C 0.67688 0.23137 0.1836 0.0
C745 C 0.68748 0.2559 0.20215 0.0
H746 H 0.6423 0.21366 0.14397 0.0
C747 C 0.66853 0.28143 0.19589 0.0
H748 H 0.69144 0.21153 0.18763 0.0
C749 C 0.63985 0.28256 0.17123 0.0
C750 C 0.62992 0.2583 0.15191 0.0
H751 H 0.67591 0.30055 0.2101 0.0
H752 H 0.62552 0.30249 0.16734 0.0
C753 C 0.6486 0.2326 0.15864 0.0
C754 C 0.27148 0.16018 0.6595 0.0
C755 C 0.25315 0.18427 0.64588 0.0
H756 H 0.28359 0.11573 0.65457 0.0
C757 C 0.23031 0.18079 0.61703 0.0
H758 H 0.28958 0.16217 0.68152 0.0
C759 C 0.22715 0.15421 0.60141 0.0
C760 C 0.24691 0.13056 0.61424 0.0
H761 H 0.21547 0.19883 0.60614 0.0
H762 H 0.21055 0.15259 0.57852 0.0
C763 C 0.26842 0.13366 0.64384 0.0
C764 C 0.35999 0.77882 0.16953 0.0
C765 C 0.38151 0.77003 0.19764 0.0
H766 H 0.36009 0.78707 0.11564 0.0
C767 C 0.42052 0.76277 0.19239 0.0
H768 H 0.33003 0.78475 0.1727 0.0
C769 C 0.4376 0.76435 0.1599 0.0
C770 C 0.41609 0.77322 0.13205 0.0
H771 H 0.43766 0.75538 0.21335 0.0
H772 H 0.46763 0.75857 0.15643 0.0
C773 C 0.37714 0.78033 0.13698 0.0
C774 C 0.83051 0.11973 0.39431 0.0
C775 C 0.81358 0.14566 0.40093 0.0
H776 H 0.8411 0.07622 0.41262 0.0
C777 C 0.79443 0.14716 0.43256 0.0
H778 H 0.84621 0.11782 0.37063 0.0
C779 C 0.79263 0.12353 0.45691 0.0
C780 C 0.80939 0.09777 0.45 0.0
H781 H 0.7804 0.16645 0.43848 0.0
H782 H 0.77798 0.12529 0.48114 0.0
C783 C 0.82804 0.09596 0.41844 0.0
C784 C 0.36059 0.29981 0.8692 0.0
C785 C 0.36736 0.28077 0.84383 0.0
H786 H 0.37293 0.3119 0.91931 0.0
C787 C 0.39145 0.25804 0.85074 0.0
H788 H 0.34242 0.31767 0.86462 0.0
C789 C 0.40924 0.25492 0.88194 0.0
C790 C 0.40337 0.27445 0.907 0.0
H791 H 0.39683 0.24276 0.83191 0.0
H792 H 0.42858 0.23771 0.88604 0.0
C793 C 0.37842 0.2967 0.90041 0.0
C794 C 0.24829 0.88093 0.39565 0.0
C795 C 0.27722 0.86274 0.40633 0.0
H796 H 0.22169 0.92073 0.40236 0.0
C797 C 0.30203 0.87136 0.43258 0.0
H798 H 0.2286 0.87478 0.3756 0.0
C799 C 0.29802 0.89746 0.44787 0.0
C800 C 0.2691 0.91567 0.43732 0.0
H801 H 0.32495 0.85805 0.44112 0.0
H802 H 0.31737 0.90322 0.46828 0.0
C803 C 0.24413 0.90709 0.41113 0.0
C804 C 0.68538 0.77241 0.93197 0.0
C805 C 0.68113 0.78417 0.89873 0.0
H806 H 0.65825 0.76216 0.98131 0.0
C807 C 0.64416 0.79348 0.88981 0.0
H808 H 0.71294 0.76435 0.93972 0.0
C809 C 0.61253 0.79124 0.91347 0.0
C810 C 0.61739 0.78025 0.94671 0.0
H811 H 0.63974 0.8031 0.86475 0.0
H812 H 0.58442 0.79861 0.90601 0.0
C813 C 0.65399 0.7708 0.95577 0.0
loop_
_geom_bond_atom_site_label_1
_geom_bond_atom_site_label_2
_geom_bond_distance
_geom_bond_site_symmetry_2
_ccdc_geom_bond_type
P0 O11 1.490 . S
P0 C14 1.812 . S
P0 C20 1.803 . S
P0 C26 1.819 . S
H1 C15 0.941 . S
H2 C16 0.939 . S
H3 C18 0.940 . S
H4 C19 0.940 . S
H5 C21 0.939 . S
H6 C22 0.942 . S
H7 C24 0.940 . S
H8 C25 0.939 . S
H9 C27 0.941 . S
H10 C31 0.939 . S
O11 P0 1.490 . S
H12 C28 0.939 . S
H13 C30 0.940 . S
C14 P0 1.812 . S
C14 C15 1.389 . S
C14 C19 1.391 . S
C15 H1 0.941 . S
C15 C14 1.389 . S
C15 C16 1.397 . S
C16 H2 0.939 . S
C16 C15 1.397 . S
C16 C17 1.378 . S
C17 C16 1.378 . S
C17 C18 1.378 . S
C18 H3 0.940 . S
C18 C17 1.378 . S
C18 C19 1.396 . S
C19 H4 0.940 . S
C19 C14 1.391 . S
C19 C18 1.396 . S
C20 P0 1.803 . S
C20 C21 1.378 . S
C20 C25 1.400 . S
C21 H5 0.939 . S
C21 C20 1.378 . S
C21 C22 1.361 . S
C22 H6 0.942 . S
C22 C21 1.361 . S
C22 C23 1.369 . S
C23 C22 1.369 . S
C23 C24 1.404 . S
C24 H7 0.940 . S
C24 C23 1.404 . S
C24 C25 1.389 . S
C25 H8 0.939 . S
C25 C20 1.400 . S
C25 C24 1.389 . S
C26 P0 1.819 . S
C26 C27 1.391 . S
C26 C31 1.391 . S
C27 H9 0.941 . S
C27 C26 1.391 . S
C27 C28 1.396 . S
C28 H12 0.939 . S
C28 C27 1.396 . S
C28 C29 1.397 . S
C29 C28 1.397 . S
C29 C30 1.385 . S
C30 H13 0.940 . S
C30 C29 1.385 . S
C30 C31 1.388 . S
C31 H10 0.939 . S
C31 C26 1.391 . S
C31 C30 1.388 . S
P32 O43 1.490 . S
P32 C46 1.812 . S
P32 C52 1.803 . S
P32 C58 1.819 . S
H33 C47 0.941 . S
H34 C48 0.939 . S
H35 C50 0.940 . S
H36 C51 0.940 . S
H37 C53 0.939 . S
H38 C54 0.942 . S
H39 C56 0.940 . S
H40 C57 0.939 . S
H41 C59 0.941 . S
H42 C63 0.939 . S
O43 P32 1.490 . S
H44 C60 0.939 . S
H45 C62 0.940 . S
C46 P32 1.812 . S
C46 C47 1.389 . S
C46 C51 1.391 . S
C47 H33 0.941 . S
C47 C46 1.389 . S
C47 C48 1.397 . S
C48 H34 0.939 . S
C48 C47 1.397 . S
C48 C49 1.378 . S
C49 C48 1.378 . S
C49 C50 1.378 . S
C50 H35 0.940 . S
C50 C49 1.378 . S
C50 C51 1.396 . S
C51 H36 0.940 . S
C51 C46 1.391 . S
C51 C50 1.396 . S
C52 P32 1.803 . S
C52 C53 1.378 . S
C52 C57 1.400 . S
C53 H37 0.939 . S
C53 C52 1.378 . S
C53 C54 1.361 . S
C54 H38 0.942 . S
C54 C53 1.361 . S
C54 C55 1.369 . S
C55 C54 1.369 . S
C55 C56 1.404 . S
C56 H39 0.940 . S
C56 C55 1.404 . S
C56 C57 1.389 . S
C57 H40 0.939 . S
C57 C52 1.400 . S
C57 C56 1.389 . S
C58 P32 1.819 . S
C58 C59 1.391 . S
C58 C63 1.391 . S
C59 H41 0.941 . S
C59 C58 1.391 . S
C59 C60 1.396 . S
C60 H44 0.939 . S
C60 C59 1.396 . S
C60 C61 1.397 . S
C61 C60 1.397 . S
C61 C62 1.385 . S
C62 H45 0.940 . S
C62 C61 1.385 . S
C62 C63 1.388 . S
C63 H42 0.939 . S
C63 C58 1.391 . S
C63 C62 1.388 . S
P64 O75 1.490 . S
P64 C78 1.812 . S
P64 C84 1.803 . S
P64 C90 1.819 . S
H65 C79 0.941 . S
H66 C80 0.939 . S
H67 C82 0.940 . S
H68 C83 0.940 . S
H69 C85 0.939 . S
H70 C86 0.942 . S
H71 C88 0.940 . S
H72 C89 0.939 . S
H73 C91 0.941 . S
H74 C95 0.939 . S
O75 P64 1.490 . S
H76 C92 0.939 . S
H77 C94 0.940 . S
C78 P64 1.812 . S
C78 C79 1.389 . S
C78 C83 1.391 . S
C79 H65 0.941 . S
C79 C78 1.389 . S
C79 C80 1.397 . S
C80 H66 0.939 . S
C80 C79 1.397 . S
C80 C81 1.378 . S
C81 C80 1.378 . S
C81 C82 1.378 . S
C82 H67 0.940 . S
C82 C81 1.378 . S
C82 C83 1.396 . S
C83 H68 0.940 . S
C83 C78 1.391 . S
C83 C82 1.396 . S
C84 P64 1.803 . S
C84 C85 1.378 . S
C84 C89 1.400 . S
C85 H69 0.939 . S
C85 C84 1.378 . S
C85 C86 1.361 . S
C86 H70 0.942 . S
C86 C85 1.361 . S
C86 C87 1.369 . S
C87 C86 1.369 . S
C87 C88 1.404 . S
C88 H71 0.940 . S
C88 C87 1.404 . S
C88 C89 1.389 . S
C89 H72 0.939 . S
C89 C84 1.400 . S
C89 C88 1.389 . S
C90 P64 1.819 . S
C90 C91 1.391 . S
C90 C95 1.391 . S
C91 H73 0.941 . S
C91 C90 1.391 . S
C91 C92 1.396 . S
C92 H76 0.939 . S
C92 C91 1.396 . S
C92 C93 1.397 . S
C93 C92 1.397 . S
C93 C94 1.385 . S
C94 H77 0.940 . S
C94 C93 1.385 . S
C94 C95 1.388 . S
C95 H74 0.939 . S
C95 C90 1.391 . S
C95 C94 1.388 . S
P96 O107 1.490 . S
P96 C110 1.812 . S
P96 C116 1.803 . S
P96 C122 1.819 . S
H97 C111 0.941 . S
H98 C112 0.939 . S
H99 C114 0.940 . S
H100 C115 0.940 . S
H101 C117 0.939 . S
H102 C118 0.942 . S
H103 C120 0.940 . S
H104 C121 0.939 . S
H105 C123 0.941 . S
H106 C127 0.939 . S
O107 P96 1.490 . S
H108 C124 0.939 . S
H109 C126 0.940 . S
C110 P96 1.812 . S
C110 C111 1.389 . S
C110 C115 1.391 . S
C111 H97 0.941 . S
C111 C110 1.389 . S
C111 C112 1.397 . S
C112 H98 0.939 . S
C112 C111 1.397 . S
C112 C113 1.378 . S
C113 C112 1.378 . S
C113 C114 1.378 . S
C114 H99 0.940 . S
C114 C113 1.378 . S
C114 C115 1.396 . S
C115 H100 0.940 . S
C115 C110 1.391 . S
C115 C114 1.396 . S
C116 P96 1.803 . S
C116 C117 1.378 . S
C116 C121 1.400 . S
C117 H101 0.939 . S
C117 C116 1.378 . S
C117 C118 1.361 . S
C118 H102 0.942 . S
C118 C117 1.361 . S
C118 C119 1.369 . S
C119 C118 1.369 . S
C119 C120 1.404 . S
C120 H103 0.940 . S
C120 C119 1.404 . S
C120 C121 1.389 . S
C121 H104 0.939 . S
C121 C116 1.400 . S
C121 C120 1.389 . S
C122 P96 1.819 . S
C122 C123 1.391 . S
C122 C127 1.391 . S
C123 H105 0.941 . S
C123 C122 1.391 . S
C123 C124 1.396 . S
C124 H108 0.939 . S
C124 C123 1.396 . S
C124 C125 1.397 . S
C125 C124 1.397 . S
C125 C126 1.385 . S
C126 H109 0.940 . S
C126 C125 1.385 . S
C126 C127 1.388 . S
C127 H106 0.939 . S
C127 C122 1.391 . S
C127 C126 1.388 . S
P128 O139 1.490 . S
P128 C142 1.812 . S
P128 C148 1.803 . S
P128 C154 1.819 . S
H129 C143 0.941 . S
H130 C144 0.939 . S
H131 C146 0.940 . S
H132 C147 0.940 . S
H133 C149 0.939 . S
H134 C150 0.942 . S
H135 C152 0.940 . S
H136 C153 0.939 . S
H137 C155 0.941 . S
H138 C159 0.939 . S
O139 P128 1.490 . S
H140 C156 0.939 . S
H141 C158 0.940 . S
C142 P128 1.812 . S
C142 C143 1.389 . S
C142 C147 1.391 . S
C143 H129 0.941 . S
C143 C142 1.389 . S
C143 C144 1.397 . S
C144 H130 0.939 . S
C144 C143 1.397 . S
C144 C145 1.378 . S
C145 C144 1.378 . S
C145 C146 1.378 . S
C146 H131 0.940 . S
C146 C145 1.378 . S
C146 C147 1.396 . S
C147 H132 0.940 . S
C147 C142 1.391 . S
C147 C146 1.396 . S
C148 P128 1.803 . S
C148 C149 1.378 . S
C148 C153 1.400 . S
C149 H133 0.939 . S
C149 C148 1.378 . S
C149 C150 1.361 . S
C150 H134 0.942 . S
C150 C149 1.361 . S
C150 C151 1.369 . S
C151 C150 1.369 . S
C151 C152 1.404 . S
C152 H135 0.940 . S
C152 C151 1.404 . S
C152 C153 1.389 . S
C153 H136 0.939 . S
C153 C148 1.400 . S
C153 C152 1.389 . S
C154 P128 1.819 . S
C154 C155 1.391 . S
C154 C159 1.391 . S
C155 H137 0.941 . S
C155 C154 1.391 . S
C155 C156 1.396 . S
C156 H140 0.939 . S
C156 C155 1.396 . S
C156 C157 1.397 . S
C157 C156 1.397 . S
C157 C158 1.385 . S
C158 H141 0.940 . S
C158 C157 1.385 . S
C158 C159 1.388 . S
C159 H138 0.939 . S
C159 C154 1.391 . S
C159 C158 1.388 . S
P160 O171 1.490 . S
P160 C174 1.812 . S
P160 C180 1.803 . S
P160 C186 1.819 . S
H161 C175 0.941 . S
H162 C176 0.939 . S
H163 C178 0.940 . S
H164 C179 0.940 . S
H165 C181 0.939 . S
H166 C182 0.942 . S
H167 C184 0.940 . S
H168 C185 0.939 . S
H169 C187 0.941 . S
H170 C191 0.939 . S
O171 P160 1.490 . S
H172 C188 0.939 . S
H173 C190 0.940 . S
C174 P160 1.812 . S
C174 C175 1.389 . S
C174 C179 1.391 . S
C175 H161 0.941 . S
C175 C174 1.389 . S
C175 C176 1.397 . S
C176 H162 0.939 . S
C176 C175 1.397 . S
C176 C177 1.378 . S
C177 C176 1.378 . S
C177 C178 1.378 . S
C178 H163 0.940 . S
C178 C177 1.378 . S
C178 C179 1.396 . S
C179 H164 0.940 . S
C179 C174 1.391 . S
C179 C178 1.396 . S
C180 P160 1.803 . S
C180 C181 1.378 . S
C180 C185 1.400 . S
C181 H165 0.939 . S
C181 C180 1.378 . S
C181 C182 1.361 . S
C182 H166 0.942 . S
C182 C181 1.361 . S
C182 C183 1.369 . S
C183 C182 1.369 . S
C183 C184 1.404 . S
C184 H167 0.940 . S
C184 C183 1.404 . S
C184 C185 1.389 . S
C185 H168 0.939 . S
C185 C180 1.400 . S
C185 C184 1.389 . S
C186 P160 1.819 . S
C186 C187 1.391 . S
C186 C191 1.391 . S
C187 H169 0.941 . S
C187 C186 1.391 . S
C187 C188 1.396 . S
C188 H172 0.939 . S
C188 C187 1.396 . S
C188 C189 1.397 . S
C189 C188 1.397 . S
C189 C190 1.385 . S
C190 H173 0.940 . S
C190 C189 1.385 . S
C190 C191 1.388 . S
C191 H170 0.939 . S
C191 C186 1.391 . S
C191 C190 1.388 . S
P192 O203 1.490 . S
P192 C206 1.812 . S
P192 C212 1.803 . S
P192 C218 1.819 . S
H193 C207 0.941 . S
H194 C208 0.939 . S
H195 C210 0.940 . S
H196 C211 0.940 . S
H197 C213 0.939 . S
H198 C214 0.942 . S
H199 C216 0.940 . S
H200 C217 0.939 . S
H201 C219 0.941 . S
H202 C223 0.939 . S
O203 P192 1.490 . S
H204 C220 0.939 . S
H205 C222 0.940 . S
C206 P192 1.812 . S
C206 C207 1.389 . S
C206 C211 1.391 . S
C207 H193 0.941 . S
C207 C206 1.389 . S
C207 C208 1.397 . S
C208 H194 0.939 . S
C208 C207 1.397 . S
C208 C209 1.378 . S
C209 C208 1.378 . S
C209 C210 1.378 . S
C210 H195 0.940 . S
C210 C209 1.378 . S
C210 C211 1.396 . S
C211 H196 0.940 . S
C211 C206 1.391 . S
C211 C210 1.396 . S
C212 P192 1.803 . S
C212 C213 1.378 . S
C212 C217 1.400 . S
C213 H197 0.939 . S
C213 C212 1.378 . S
C213 C214 1.361 . S
C214 H198 0.942 . S
C214 C213 1.361 . S
C214 C215 1.369 . S
C215 C214 1.369 . S
C215 C216 1.404 . S
C216 H199 0.940 . S
C216 C215 1.404 . S
C216 C217 1.389 . S
C217 H200 0.939 . S
C217 C212 1.400 . S
C217 C216 1.389 . S
C218 P192 1.819 . S
C218 C219 1.391 . S
C218 C223 1.391 . S
C219 H201 0.941 . S
C219 C218 1.391 . S
C219 C220 1.396 . S
C220 H204 0.939 . S
C220 C219 1.396 . S
C220 C221 1.397 . S
C221 C220 1.397 . S
C221 C222 1.385 . S
C222 H205 0.940 . S
C222 C221 1.385 . S
C222 C223 1.388 . S
C223 H202 0.939 . S
C223 C218 1.391 . S
C223 C222 1.388 . S
P224 O235 1.490 . S
P224 C238 1.812 . S
P224 C244 1.803 . S
P224 C250 1.819 . S
H225 C239 0.941 . S
H226 C240 0.939 . S
H227 C242 0.940 . S
H228 C243 0.940 . S
H229 C245 0.939 . S
H230 C246 0.942 . S
H231 C248 0.940 . S
H232 C249 0.939 . S
H233 C251 0.941 . S
H234 C255 0.939 . S
O235 P224 1.490 . S
H236 C252 0.939 . S
H237 C254 0.940 . S
C238 P224 1.812 . S
C238 C239 1.389 . S
C238 C243 1.391 . S
C239 H225 0.941 . S
C239 C238 1.389 . S
C239 C240 1.397 . S
C240 H226 0.939 . S
C240 C239 1.397 . S
C240 C241 1.378 . S
C241 C240 1.378 . S
C241 C242 1.378 . S
C242 H227 0.940 . S
C242 C241 1.378 . S
C242 C243 1.396 . S
C243 H228 0.940 . S
C243 C238 1.391 . S
C243 C242 1.396 . S
C244 P224 1.803 . S
C244 C245 1.378 . S
C244 C249 1.400 . S
C245 H229 0.939 . S
C245 C244 1.378 . S
C245 C246 1.361 . S
C246 H230 0.942 . S
C246 C245 1.361 . S
C246 C247 1.369 . S
C247 C246 1.369 . S
C247 C248 1.404 . S
C248 H231 0.940 . S
C248 C247 1.404 . S
C248 C249 1.389 . S
C249 H232 0.939 . S
C249 C244 1.400 . S
C249 C248 1.389 . S
C250 P224 1.819 . S
C250 C251 1.391 . S
C250 C255 1.391 . S
C251 H233 0.941 . S
C251 C250 1.391 . S
C251 C252 1.396 . S
C252 H236 0.939 . S
C252 C251 1.396 . S
C252 C253 1.397 . S
C253 C252 1.397 . S
C253 C254 1.385 . S
C254 H237 0.940 . S
C254 C253 1.385 . S
C254 C255 1.388 . S
C255 H234 0.939 . S
C255 C250 1.391 . S
C255 C254 1.388 . S
C256 C257 1.443 . S
C256 N260 1.376 . S
C256 C294 1.389 . S
C257 C256 1.443 . S
C257 C258 1.340 . S
C257 H297 0.951 . S
C258 C257 1.340 . S
C258 C259 1.439 . S
C258 H298 0.950 . S
C259 C258 1.439 . S
C259 N260 1.374 . S
C259 C293 1.395 . S
N260 C256 1.376 . S
N260 C259 1.374 . S
N260 Co261 2.008 . S
Co261 N260 2.008 . S
Co261 N262 1.995 . S
Co261 N267 2.008 . S
Co261 N272 1.995 . S
Co261 N277 2.282 . S
Co261 N283 2.282 1_455 S
N262 Co261 1.995 . S
N262 C263 1.376 . S
N262 C266 1.383 1_455 S
C263 N262 1.376 . S
C263 C264 1.446 1_455 S
C263 C293 1.391 . S
C264 C263 1.446 1_655 S
C264 C265 1.339 . S
C264 H299 0.949 . S
C265 C264 1.339 . S
C265 C266 1.439 . S
C265 H300 0.950 . S
C266 N262 1.383 1_655 S
C266 C265 1.439 . S
C266 C295 1.392 . S
N267 Co261 2.008 . S
N267 C268 1.376 1_455 S
N267 C271 1.374 . S
C268 N267 1.376 1_655 S
C268 C269 1.443 . S
C268 C295 1.389 . S
C269 C268 1.443 . S
C269 C270 1.345 . S
C269 H301 0.951 . S
C270 C269 1.345 . S
C270 C271 1.434 1_655 S
C270 H302 0.950 . S
C271 N267 1.374 . S
C271 C270 1.434 1_455 S
C271 C296 1.395 . S
N272 Co261 1.995 . S
N272 C273 1.376 . S
N272 C276 1.383 . S
C273 N272 1.376 . S
C273 C274 1.446 . S
C273 C296 1.391 . S
C274 C273 1.446 . S
C274 C275 1.339 . S
C274 H303 0.949 . S
C275 C274 1.339 . S
C275 C276 1.439 . S
C275 H304 0.950 . S
C276 N272 1.383 . S
C276 C275 1.439 . S
C276 C294 1.392 . S
N277 Co261 2.282 . S
N277 C280 1.332 . S
N277 C282 1.332 . S
C278 C279 1.386 . S
C278 C281 1.388 . S
C279 C278 1.386 . S
C279 C280 1.382 . S
C279 H305 0.950 . S
C280 N277 1.332 . S
C280 C279 1.382 . S
C280 H291 0.952 . S
C281 C278 1.388 . S
C281 C282 1.382 . S
C281 H306 0.950 . S
C282 N277 1.332 . S
C282 C281 1.382 . S
C282 H292 0.948 . S
N283 Co261 2.282 1_655 S
N283 C287 1.332 . S
N283 C288 1.332 . S
C284 C285 1.388 . S
C284 C288 1.382 . S
C284 H307 0.950 . S
C285 C284 1.388 . S
C285 C286 1.386 . S
C286 C285 1.386 . S
C286 C287 1.382 . S
C286 H308 0.950 . S
C287 N283 1.332 . S
C287 C286 1.382 . S
C287 H289 0.952 . S
C288 N283 1.332 . S
C288 C284 1.382 . S
C288 H290 0.948 1_655 S
H289 C287 0.952 . S
H290 C288 0.948 1_455 S
H291 C280 0.952 . S
H292 C282 0.948 . S
C293 C259 1.395 . S
C293 C263 1.391 . S
C294 C256 1.389 . S
C294 C276 1.392 . S
C295 C266 1.392 . S
C295 C268 1.389 . S
C296 C271 1.395 . S
C296 C273 1.391 . S
H297 C257 0.951 . S
H298 C258 0.950 . S
H299 C264 0.949 . S
H300 C265 0.950 . S
H301 C269 0.951 . S
H302 C270 0.950 . S
H303 C274 0.949 . S
H304 C275 0.950 . S
H305 C279 0.950 . S
H306 C281 0.950 . S
H307 C284 0.950 . S
H308 C286 0.950 . S
C309 C310 1.443 . S
C309 N313 1.376 . S
C309 C347 1.389 . S
C310 C309 1.443 . S
C310 C311 1.340 . S
C310 H350 0.951 . S
C311 C310 1.340 . S
C311 C312 1.439 . S
C311 H351 0.950 . S
C312 C311 1.439 . S
C312 N313 1.374 . S
C312 C346 1.395 . S
N313 C309 1.376 . S
N313 C312 1.374 . S
N313 Co314 2.008 . S
Co314 N313 2.008 . S
Co314 N315 1.995 1_455 S
Co314 N320 2.008 1_455 S
Co314 N325 1.995 . S
Co314 N330 2.282 . S
Co314 N336 2.282 1_455 S
N315 Co314 1.995 1_655 S
N315 C316 1.376 . S
N315 C319 1.383 . S
C316 N315 1.376 . S
C316 C317 1.446 . S
C316 C346 1.391 1_655 S
C317 C316 1.446 . S
C317 C318 1.339 . S
C317 H352 0.949 . S
C318 C317 1.339 . S
C318 C319 1.439 . S
C318 H353 0.950 . S
C319 N315 1.383 . S
C319 C318 1.439 . S
C319 C348 1.392 . S
N320 Co314 2.008 1_655 S
N320 C321 1.376 . S
N320 C324 1.374 . S
C321 N320 1.376 . S
C321 C322 1.443 . S
C321 C348 1.389 . S
C322 C321 1.443 . S
C322 C323 1.340 . S
C322 H354 0.951 . S
C323 C322 1.340 . S
C323 C324 1.439 . S
C323 H355 0.950 . S
C324 N320 1.374 . S
C324 C323 1.439 . S
C324 C349 1.395 1_655 S
N325 Co314 1.995 . S
N325 C326 1.376 . S
N325 C329 1.383 . S
C326 N325 1.376 . S
C326 C327 1.446 . S
C326 C349 1.391 . S
C327 C326 1.446 . S
C327 C328 1.339 . S
C327 H356 0.949 . S
C328 C327 1.339 . S
C328 C329 1.439 . S
C328 H357 0.950 . S
C329 N325 1.383 . S
C329 C328 1.439 . S
C329 C347 1.392 . S
N330 Co314 2.282 . S
N330 C333 1.332 . S
N330 C335 1.332 . S
C331 C332 1.386 . S
C331 C334 1.388 . S
C332 C331 1.386 . S
C332 C333 1.382 . S
C332 H358 0.950 . S
C333 N330 1.332 . S
C333 C332 1.382 . S
C333 H344 0.952 . S
C334 C331 1.388 . S
C334 C335 1.382 . S
C334 H359 0.950 . S
C335 N330 1.332 . S
C335 C334 1.382 . S
C335 H345 0.948 . S
N336 Co314 2.282 1_655 S
N336 C340 1.332 . S
N336 C341 1.332 . S
C337 C338 1.388 . S
C337 C341 1.382 . S
C337 H360 0.950 . S
C338 C337 1.388 . S
C338 C339 1.386 . S
C339 C338 1.386 . S
C339 C340 1.382 . S
C339 H361 0.950 . S
C340 N336 1.332 . S
C340 C339 1.382 . S
C340 H342 0.952 . S
C341 N336 1.332 . S
C341 C337 1.382 . S
C341 H343 0.948 . S
H342 C340 0.952 . S
H343 C341 0.948 . S
H344 C333 0.952 . S
H345 C335 0.948 . S
C346 C312 1.395 . S
C346 C316 1.391 1_455 S
C347 C309 1.389 . S
C347 C329 1.392 . S
C348 C319 1.392 . S
C348 C321 1.389 . S
C349 C324 1.395 1_455 S
C349 C326 1.391 . S
H350 C310 0.951 . S
H351 C311 0.950 . S
H352 C317 0.949 . S
H353 C318 0.950 . S
H354 C322 0.951 . S
H355 C323 0.950 . S
H356 C327 0.949 . S
H357 C328 0.950 . S
H358 C332 0.950 . S
H359 C334 0.950 . S
H360 C337 0.950 . S
H361 C339 0.950 . S
C362 C363 1.443 . S
C362 N366 1.376 . S
C362 C400 1.389 . S
C363 C362 1.443 . S
C363 C364 1.340 . S
C363 H403 0.951 . S
C364 C363 1.340 . S
C364 C365 1.464 . S
C364 H404 0.950 . S
C365 C364 1.464 . S
C365 N366 1.374 . S
C365 C399 1.375 1_565 S
N366 C362 1.376 . S
N366 C365 1.374 . S
N366 Co367 2.008 1_565 S
Co367 N366 2.008 1_545 S
Co367 N368 1.995 . S
Co367 N373 2.008 . S
Co367 N378 1.995 1_545 S
Co367 N383 2.282 . S
Co367 N389 2.282 1_545 S
N368 Co367 1.995 . S
N368 C369 1.376 . S
N368 C372 1.383 . S
C369 N368 1.376 . S
C369 C370 1.446 . S
C369 C399 1.391 . S
C370 C369 1.446 . S
C370 C371 1.339 . S
C370 H405 0.949 . S
C371 C370 1.339 . S
C371 C372 1.439 . S
C371 H406 0.950 . S
C372 N368 1.383 . S
C372 C371 1.439 . S
C372 C401 1.392 . S
N373 Co367 2.008 . S
N373 C374 1.376 . S
N373 C377 1.374 . S
C374 N373 1.376 . S
C374 C375 1.443 . S
C374 C401 1.389 . S
C375 C374 1.443 . S
C375 C376 1.340 . S
C375 H407 0.951 . S
C376 C375 1.340 . S
C376 C377 1.439 . S
C376 H408 0.950 . S
C377 N373 1.374 . S
C377 C376 1.439 . S
C377 C402 1.395 . S
N378 Co367 1.995 1_565 S
N378 C379 1.376 . S
N378 C382 1.383 . S
C379 N378 1.376 . S
C379 C380 1.446 . S
C379 C402 1.391 1_565 S
C380 C379 1.446 . S
C380 C381 1.339 . S
C380 H409 0.949 . S
C381 C380 1.339 . S
C381 C382 1.439 . S
C381 H410 0.950 . S
C382 N378 1.383 . S
C382 C381 1.439 . S
C382 C400 1.392 . S
N383 Co367 2.282 . S
N383 C386 1.332 . S
N383 C388 1.332 . S
C384 C385 1.386 . S
C384 C387 1.388 . S
C385 C384 1.386 . S
C385 C386 1.382 . S
C385 H411 0.950 . S
C386 N383 1.332 . S
C386 C385 1.382 . S
C386 H397 0.952 . S
C387 C384 1.388 . S
C387 C388 1.382 . S
C387 H412 0.950 . S
C388 N383 1.332 . S
C388 C387 1.382 . S
C388 H398 0.948 . S
N389 Co367 2.282 1_565 S
N389 C393 1.332 . S
N389 C394 1.332 . S
C390 C391 1.388 . S
C390 C394 1.382 . S
C390 H413 0.950 . S
C391 C390 1.388 . S
C391 C392 1.386 . S
C392 C391 1.386 . S
C392 C393 1.382 . S
C392 H414 0.950 . S
C393 N389 1.332 . S
C393 C392 1.382 . S
C393 H395 0.952 . S
C394 N389 1.332 . S
C394 C390 1.382 . S
C394 H396 0.948 . S
H395 C393 0.952 . S
H396 C394 0.948 . S
H397 C386 0.952 . S
H398 C388 0.948 . S
C399 C365 1.375 1_545 S
C399 C369 1.391 . S
C400 C362 1.389 . S
C400 C382 1.392 . S
C401 C372 1.392 . S
C401 C374 1.389 . S
C402 C377 1.395 . S
C402 C379 1.391 1_545 S
H403 C363 0.951 . S
H404 C364 0.950 . S
H405 C370 0.949 . S
H406 C371 0.950 . S
H407 C375 0.951 . S
H408 C376 0.950 . S
H409 C380 0.949 . S
H410 C381 0.950 . S
H411 C385 0.950 . S
H412 C387 0.950 . S
H413 C390 0.950 . S
H414 C392 0.950 . S
C415 C416 1.443 . S
C415 N419 1.376 . S
C415 C453 1.389 . S
C416 C415 1.443 . S
C416 C417 1.340 . S
C416 H456 0.951 . S
C417 C416 1.340 . S
C417 C418 1.439 . S
C417 H457 0.950 . S
C418 C417 1.439 . S
C418 N419 1.374 . S
C418 C452 1.395 . S
N419 C415 1.376 . S
N419 C418 1.374 . S
N419 Co420 2.008 . S
Co420 N419 2.008 . S
Co420 N421 1.995 1_554 S
Co420 N426 2.002 1_554 S
Co420 N431 1.995 . S
Co420 N436 2.282 1_554 S
Co420 N442 2.282 . S
N421 Co420 1.995 1_556 S
N421 C422 1.376 1_556 S
N421 C425 1.382 . S
C422 N421 1.376 1_554 S
C422 C423 1.446 1_554 S
C422 C452 1.391 . S
C423 C422 1.446 1_556 S
C423 C424 1.339 . S
C423 H458 0.949 . S
C424 C423 1.339 . S
C424 C425 1.439 . S
C424 H459 0.950 . S
C425 N421 1.382 . S
C425 C424 1.439 . S
C425 C454 1.392 . S
N426 Co420 2.002 1_556 S
N426 C427 1.385 . S
N426 C430 1.374 1_556 S
C427 N426 1.385 . S
C427 C428 1.443 . S
C427 C454 1.389 . S
C428 C427 1.443 . S
C428 C429 1.340 . S
C428 H460 0.951 . S
C429 C428 1.340 . S
C429 C430 1.439 1_556 S
C429 H461 0.950 . S
C430 N426 1.374 1_554 S
C430 C429 1.439 1_554 S
C430 C455 1.395 . S
N431 Co420 1.995 . S
N431 C432 1.376 . S
N431 C435 1.383 . S
C432 N431 1.376 . S
C432 C433 1.446 . S
C432 C455 1.391 . S
C433 C432 1.446 . S
C433 C434 1.339 . S
C433 H462 0.949 . S
C434 C433 1.339 . S
C434 C435 1.439 . S
C434 H463 0.950 . S
C435 N431 1.383 . S
C435 C434 1.439 . S
C435 C453 1.392 . S
N436 Co420 2.282 1_556 S
N436 C439 1.332 . S
N436 C441 1.332 . S
C437 C438 1.386 . S
C437 C440 1.388 . S
C438 C437 1.386 . S
C438 C439 1.382 . S
C438 H464 0.950 . S
C439 N436 1.332 . S
C439 C438 1.382 . S
C439 H450 0.952 . S
C440 C437 1.388 . S
C440 C441 1.382 . S
C440 H465 0.950 . S
C441 N436 1.332 . S
C441 C440 1.382 . S
C441 H451 0.948 . S
N442 Co420 2.282 . S
N442 C446 1.332 . S
N442 C447 1.332 . S
C443 C444 1.388 . S
C443 C447 1.382 . S
C443 H466 0.950 . S
C444 C443 1.388 . S
C444 C445 1.386 . S
C445 C444 1.386 . S
C445 C446 1.382 . S
C445 H467 0.950 . S
C446 N442 1.332 . S
C446 C445 1.382 . S
C446 H448 0.952 . S
C447 N442 1.332 . S
C447 C443 1.382 . S
C447 H449 0.948 . S
H448 C446 0.952 . S
H449 C447 0.948 . S
H450 C439 0.952 . S
H451 C441 0.948 . S
C452 C418 1.395 . S
C452 C422 1.391 . S
C453 C415 1.389 . S
C453 C435 1.392 . S
C454 C425 1.392 . S
C454 C427 1.389 . S
C455 C430 1.395 . S
C455 C432 1.391 . S
H456 C416 0.951 . S
H457 C417 0.950 . S
H458 C423 0.949 . S
H459 C424 0.950 . S
H460 C428 0.951 . S
H461 C429 0.950 . S
H462 C433 0.949 . S
H463 C434 0.950 . S
H464 C438 0.950 . S
H465 C440 0.950 . S
H466 C443 0.950 . S
H467 C445 0.950 . S
C468 C469 1.443 . S
C468 N472 1.376 . S
C468 C506 1.389 . S
C469 C468 1.443 . S
C469 C470 1.340 . S
C469 H509 0.951 . S
C470 C469 1.340 . S
C470 C471 1.452 . S
C470 H510 0.950 . S
C471 C470 1.452 . S
C471 N472 1.374 . S
C471 C505 1.385 1_565 S
N472 C468 1.376 . S
N472 C471 1.374 . S
N472 Co473 2.008 1_565 S
Co473 N472 2.008 1_545 S
Co473 N474 1.995 . S
Co473 N479 2.008 . S
Co473 N484 1.995 1_545 S
Co473 N489 2.282 . S
Co473 N495 2.282 1_545 S
N474 Co473 1.995 . S
N474 C475 1.376 . S
N474 C478 1.383 . S
C475 N474 1.376 . S
C475 C476 1.446 . S
C475 C505 1.391 . S
C476 C475 1.446 . S
C476 C477 1.339 . S
C476 H511 0.949 . S
C477 C476 1.339 . S
C477 C478 1.439 . S
C477 H512 0.950 . S
C478 N474 1.383 . S
C478 C477 1.439 . S
C478 C507 1.392 . S
N479 Co473 2.008 . S
N479 C480 1.376 . S
N479 C483 1.374 . S
C480 N479 1.376 . S
C480 C481 1.443 . S
C480 C507 1.389 . S
C481 C480 1.443 . S
C481 C482 1.340 . S
C481 H513 0.951 . S
C482 C481 1.340 . S
C482 C483 1.439 . S
C482 H514 0.950 . S
C483 N479 1.374 . S
C483 C482 1.439 . S
C483 C508 1.395 . S
N484 Co473 1.995 1_565 S
N484 C485 1.376 . S
N484 C488 1.383 . S
C485 N484 1.376 . S
C485 C486 1.446 . S
C485 C508 1.391 1_565 S
C486 C485 1.446 . S
C486 C487 1.339 . S
C486 H515 0.949 . S
C487 C486 1.339 . S
C487 C488 1.439 . S
C487 H516 0.950 . S
C488 N484 1.383 . S
C488 C487 1.439 . S
C488 C506 1.392 . S
N489 Co473 2.282 . S
N489 C492 1.332 . S
N489 C494 1.332 . S
C490 C491 1.386 . S
C490 C493 1.388 . S
C491 C490 1.386 . S
C491 C492 1.382 . S
C491 H517 0.950 . S
C492 N489 1.332 . S
C492 C491 1.382 . S
C492 H503 0.952 . S
C493 C490 1.388 . S
C493 C494 1.382 . S
C493 H518 0.950 . S
C494 N489 1.332 . S
C494 C493 1.382 . S
C494 H504 0.948 . S
N495 Co473 2.282 1_565 S
N495 C499 1.332 . S
N495 C500 1.332 . S
C496 C497 1.388 . S
C496 C500 1.382 . S
C496 H519 0.950 . S
C497 C496 1.388 . S
C497 C498 1.386 . S
C498 C497 1.386 . S
C498 C499 1.382 . S
C498 H520 0.950 . S
C499 N495 1.332 . S
C499 C498 1.382 . S
C499 H501 0.952 . S
C500 N495 1.332 . S
C500 C496 1.382 . S
C500 H502 0.948 . S
H501 C499 0.952 . S
H502 C500 0.948 . S
H503 C492 0.952 . S
H504 C494 0.948 . S
C505 C471 1.385 1_545 S
C505 C475 1.391 . S
C506 C468 1.389 . S
C506 C488 1.392 . S
C507 C478 1.392 . S
C507 C480 1.389 . S
C508 C483 1.395 . S
C508 C485 1.391 1_545 S
H509 C469 0.951 . S
H510 C470 0.950 . S
H511 C476 0.949 . S
H512 C477 0.950 . S
H513 C481 0.951 . S
H514 C482 0.950 . S
H515 C486 0.949 . S
H516 C487 0.950 . S
H517 C491 0.950 . S
H518 C493 0.950 . S
H519 C496 0.950 . S
H520 C498 0.950 . S
C521 C522 1.443 . S
C521 N525 1.376 . S
C521 C559 1.389 . S
C522 C521 1.443 . S
C522 C523 1.340 . S
C522 H562 0.951 . S
C523 C522 1.340 . S
C523 C524 1.439 . S
C523 H563 0.950 . S
C524 C523 1.439 . S
C524 N525 1.374 . S
C524 C558 1.395 . S
N525 C521 1.376 . S
N525 C524 1.374 . S
N525 Co526 2.008 . S
Co526 N525 2.008 . S
Co526 N527 1.995 . S
Co526 N532 2.008 . S
Co526 N537 1.995 . S
Co526 N542 2.282 . S
Co526 N548 2.282 . S
N527 Co526 1.995 . S
N527 C528 1.376 . S
N527 C531 1.383 1_554 S
C528 N527 1.376 . S
C528 C529 1.446 1_554 S
C528 C558 1.391 . S
C529 C528 1.446 1_556 S
C529 C530 1.339 . S
C529 H564 0.949 . S
C530 C529 1.339 . S
C530 C531 1.439 . S
C530 H565 0.950 . S
C531 N527 1.383 1_556 S
C531 C530 1.439 . S
C531 C560 1.392 . S
N532 Co526 2.008 . S
N532 C533 1.376 1_554 S
N532 C536 1.374 . S
C533 N532 1.376 1_556 S
C533 C534 1.443 . S
C533 C560 1.389 . S
C534 C533 1.443 . S
C534 C535 1.340 . S
C534 H566 0.951 . S
C535 C534 1.340 . S
C535 C536 1.439 1_556 S
C535 H567 0.950 . S
C536 N532 1.374 . S
C536 C535 1.439 1_554 S
C536 C561 1.395 . S
N537 Co526 1.995 . S
N537 C538 1.376 . S
N537 C541 1.383 . S
C538 N537 1.376 . S
C538 C539 1.446 . S
C538 C561 1.391 . S
C539 C538 1.446 . S
C539 C540 1.339 . S
C539 H568 0.949 . S
C540 C539 1.339 . S
C540 C541 1.439 . S
C540 H569 0.950 . S
C541 N537 1.383 . S
C541 C540 1.439 . S
C541 C559 1.392 . S
N542 Co526 2.282 . S
N542 C545 1.332 1_554 S
N542 C547 1.332 1_554 S
C543 C544 1.386 . S
C543 C546 1.388 . S
C544 C543 1.386 . S
C544 C545 1.382 . S
C544 H570 0.950 . S
C545 N542 1.332 1_556 S
C545 C544 1.382 . S
C545 H556 0.952 1_556 S
C546 C543 1.388 . S
C546 C547 1.382 . S
C546 H571 0.950 . S
C547 N542 1.332 1_556 S
C547 C546 1.382 . S
C547 H557 0.948 . S
N548 Co526 2.282 . S
N548 C552 1.332 . S
N548 C553 1.332 . S
C549 C550 1.388 . S
C549 C553 1.382 . S
C549 H572 0.950 . S
C550 C549 1.388 . S
C550 C551 1.386 . S
C551 C550 1.386 . S
C551 C552 1.382 . S
C551 H573 0.950 . S
C552 N548 1.332 . S
C552 C551 1.382 . S
C552 H554 0.952 . S
C553 N548 1.332 . S
C553 C549 1.382 . S
C553 H555 0.948 . S
H554 C552 0.952 . S
H555 C553 0.948 . S
H556 C545 0.952 1_554 S
H557 C547 0.948 . S
C558 C524 1.395 . S
C558 C528 1.391 . S
C559 C521 1.389 . S
C559 C541 1.392 . S
C560 C531 1.392 . S
C560 C533 1.389 . S
C561 C536 1.395 . S
C561 C538 1.391 . S
H562 C522 0.951 . S
H563 C523 0.950 . S
H564 C529 0.949 . S
H565 C530 0.950 . S
H566 C534 0.951 . S
H567 C535 0.950 . S
H568 C539 0.949 . S
H569 C540 0.950 . S
H570 C544 0.950 . S
H571 C546 0.950 . S
H572 C549 0.950 . S
H573 C551 0.950 . S
C574 C575 1.387 . S
C574 H578 0.950 . S
C574 C583 1.390 . S
C575 C574 1.387 . S
C575 C577 1.387 . S
H576 C583 0.950 . S
C577 C575 1.387 . S
C577 C579 1.390 . S
C577 H581 0.950 . S
H578 C574 0.950 . S
C579 C577 1.390 . S
C579 C580 1.387 . S
C579 H582 0.950 . S
C580 C579 1.387 . S
C580 C583 1.387 . S
H581 C577 0.950 . S
H582 C579 0.950 . S
C583 C574 1.390 . S
C583 H576 0.950 . S
C583 C580 1.387 . S
C584 C585 1.387 . S
C584 H588 0.950 . S
C584 C593 1.390 . S
C585 C584 1.387 . S
C585 C587 1.387 . S
H586 C593 0.950 . S
C587 C585 1.387 . S
C587 C589 1.390 . S
C587 H591 0.950 . S
H588 C584 0.950 . S
C589 C587 1.390 . S
C589 C590 1.387 . S
C589 H592 0.950 . S
C590 C589 1.387 . S
C590 C593 1.387 . S
H591 C587 0.950 . S
H592 C589 0.950 . S
C593 C584 1.390 . S
C593 H586 0.950 . S
C593 C590 1.387 . S
C594 C595 1.387 . S
C594 H598 0.950 . S
C594 C603 1.390 . S
C595 C594 1.387 . S
C595 C597 1.387 . S
H596 C603 0.950 . S
C597 C595 1.387 . S
C597 C599 1.390 . S
C597 H601 0.950 . S
H598 C594 0.950 . S
C599 C597 1.390 . S
C599 C600 1.387 . S
C599 H602 0.950 . S
C600 C599 1.387 . S
C600 C603 1.387 . S
H601 C597 0.950 . S
H602 C599 0.950 . S
C603 C594 1.390 . S
C603 H596 0.950 . S
C603 C600 1.387 . S
C604 C605 1.387 . S
C604 H608 0.950 . S
C604 C613 1.390 . S
C605 C604 1.387 . S
C605 C607 1.387 . S
H606 C613 0.950 . S
C607 C605 1.387 . S
C607 C609 1.390 . S
C607 H611 0.950 . S
H608 C604 0.950 . S
C609 C607 1.390 . S
C609 C610 1.387 . S
C609 H612 0.950 . S
C610 C609 1.387 . S
C610 C613 1.387 . S
H611 C607 0.950 . S
H612 C609 0.950 . S
C613 C604 1.390 . S
C613 H606 0.950 . S
C613 C610 1.387 . S
C614 C615 1.387 . S
C614 H618 0.950 . S
C614 C623 1.390 . S
C615 C614 1.387 . S
C615 C617 1.387 . S
H616 C623 0.950 . S
C617 C615 1.387 . S
C617 C619 1.390 . S
C617 H621 0.950 . S
H618 C614 0.950 . S
C619 C617 1.390 . S
C619 C620 1.387 . S
C619 H622 0.950 . S
C620 C619 1.387 . S
C620 C623 1.387 . S
H621 C617 0.950 . S
H622 C619 0.950 . S
C623 C614 1.390 . S
C623 H616 0.950 . S
C623 C620 1.387 . S
C624 C625 1.387 . S
C624 H628 0.950 . S
C624 C633 1.390 . S
C625 C624 1.387 . S
C625 C627 1.387 . S
H626 C633 0.950 . S
C627 C625 1.387 . S
C627 C629 1.390 . S
C627 H631 0.950 . S
H628 C624 0.950 . S
C629 C627 1.390 . S
C629 C630 1.387 . S
C629 H632 0.950 . S
C630 C629 1.387 . S
C630 C633 1.387 . S
H631 C627 0.950 . S
H632 C629 0.950 . S
C633 C624 1.390 . S
C633 H626 0.950 . S
C633 C630 1.387 . S
C634 C635 1.387 . S
C634 H638 0.950 . S
C634 C643 1.390 . S
C635 C634 1.387 . S
C635 C637 1.387 . S
H636 C643 0.950 . S
C637 C635 1.387 . S
C637 C639 1.390 . S
C637 H641 0.950 . S
H638 C634 0.950 . S
C639 C637 1.390 . S
C639 C640 1.387 . S
C639 H642 0.950 . S
C640 C639 1.387 . S
C640 C643 1.387 . S
H641 C637 0.950 . S
H642 C639 0.950 . S
C643 C634 1.390 . S
C643 H636 0.950 . S
C643 C640 1.387 . S
C644 C645 1.387 . S
C644 H648 0.950 . S
C644 C653 1.390 . S
C645 C644 1.387 . S
C645 C647 1.387 . S
H646 C653 0.950 . S
C647 C645 1.387 . S
C647 C649 1.390 . S
C647 H651 0.950 . S
H648 C644 0.950 . S
C649 C647 1.390 . S
C649 C650 1.387 . S
C649 H652 0.950 . S
C650 C649 1.387 . S
C650 C653 1.387 . S
H651 C647 0.950 . S
H652 C649 0.950 . S
C653 C644 1.390 . S
C653 H646 0.950 . S
C653 C650 1.387 . S
C654 C655 1.387 . S
C654 H658 0.950 . S
C654 C663 1.390 . S
C655 C654 1.387 . S
C655 C657 1.387 . S
H656 C663 0.950 . S
C657 C655 1.387 . S
C657 C659 1.390 . S
C657 H661 0.950 . S
H658 C654 0.950 . S
C659 C657 1.390 . S
C659 C660 1.387 . S
C659 H662 0.950 . S
C660 C659 1.387 . S
C660 C663 1.387 . S
H661 C657 0.950 . S
H662 C659 0.950 . S
C663 C654 1.390 . S
C663 H656 0.950 . S
C663 C660 1.387 . S
C664 C665 1.387 . S
C664 H668 0.950 . S
C664 C673 1.390 . S
C665 C664 1.387 . S
C665 C667 1.387 . S
H666 C673 0.950 . S
C667 C665 1.387 . S
C667 C669 1.390 . S
C667 H671 0.950 . S
H668 C664 0.950 . S
C669 C667 1.390 . S
C669 C670 1.387 . S
C669 H672 0.950 . S
C670 C669 1.387 . S
C670 C673 1.387 . S
H671 C667 0.950 . S
H672 C669 0.950 . S
C673 C664 1.390 . S
C673 H666 0.950 . S
C673 C670 1.387 . S
C674 C675 1.387 . S
C674 H678 0.950 . S
C674 C683 1.390 . S
C675 C674 1.387 . S
C675 C677 1.387 . S
H676 C683 0.950 . S
C677 C675 1.387 . S
C677 C679 1.390 . S
C677 H681 0.950 . S
H678 C674 0.950 . S
C679 C677 1.390 . S
C679 C680 1.387 . S
C679 H682 0.950 . S
C680 C679 1.387 . S
C680 C683 1.387 . S
H681 C677 0.950 . S
H682 C679 0.950 . S
C683 C674 1.390 . S
C683 H676 0.950 . S
C683 C680 1.387 . S
C684 C685 1.387 . S
C684 H688 0.950 . S
C684 C693 1.390 . S
C685 C684 1.387 . S
C685 C687 1.387 . S
H686 C693 0.950 . S
C687 C685 1.387 . S
C687 C689 1.390 . S
C687 H691 0.950 . S
H688 C684 0.950 . S
C689 C687 1.390 . S
C689 C690 1.387 . S
C689 H692 0.950 . S
C690 C689 1.387 . S
C690 C693 1.387 . S
H691 C687 0.950 . S
H692 C689 0.950 . S
C693 C684 1.390 . S
C693 H686 0.950 . S
C693 C690 1.387 . S
C694 C695 1.387 . S
C694 H698 0.950 . S
C694 C703 1.390 . S
C695 C694 1.387 . S
C695 C697 1.387 . S
H696 C703 0.950 . S
C697 C695 1.387 . S
C697 C699 1.390 . S
C697 H701 0.950 . S
H698 C694 0.950 . S
C699 C697 1.390 . S
C699 C700 1.387 . S
C699 H702 0.950 . S
C700 C699 1.387 . S
C700 C703 1.387 . S
H701 C697 0.950 . S
H702 C699 0.950 . S
C703 C694 1.390 . S
C703 H696 0.950 . S
C703 C700 1.387 . S
C704 C705 1.387 . S
C704 H708 0.950 . S
C704 C713 1.390 . S
C705 C704 1.387 . S
C705 C707 1.387 . S
H706 C713 0.950 . S
C707 C705 1.387 . S
C707 C709 1.390 . S
C707 H711 0.950 . S
H708 C704 0.950 . S
C709 C707 1.390 . S
C709 C710 1.387 . S
C709 H712 0.950 . S
C710 C709 1.387 . S
C710 C713 1.387 . S
H711 C707 0.950 . S
H712 C709 0.950 . S
C713 C704 1.390 . S
C713 H706 0.950 . S
C713 C710 1.387 . S
C714 C715 1.387 . S
C714 H718 0.950 . S
C714 C723 1.390 . S
C715 C714 1.387 . S
C715 C717 1.387 . S
H716 C723 0.950 . S
C717 C715 1.387 . S
C717 C719 1.390 . S
C717 H721 0.950 . S
H718 C714 0.950 . S
C719 C717 1.390 . S
C719 C720 1.387 . S
C719 H722 0.950 . S
C720 C719 1.387 . S
C720 C723 1.387 . S
H721 C717 0.950 . S
H722 C719 0.950 . S
C723 C714 1.390 . S
C723 H716 0.950 . S
C723 C720 1.387 . S
C724 C725 1.387 . S
C724 H728 0.950 . S
C724 C733 1.390 . S
C725 C724 1.387 . S
C725 C727 1.387 . S
H726 C733 0.950 . S
C727 C725 1.387 . S
C727 C729 1.390 . S
C727 H731 0.950 . S
H728 C724 0.950 . S
C729 C727 1.390 . S
C729 C730 1.387 . S
C729 H732 0.950 . S
C730 C729 1.387 . S
C730 C733 1.387 . S
H731 C727 0.950 . S
H732 C729 0.950 . S
C733 C724 1.390 . S
C733 H726 0.950 . S
C733 C730 1.387 . S
C734 C735 1.387 . S
C734 H738 0.950 . S
C734 C743 1.390 . S
C735 C734 1.387 . S
C735 C737 1.387 . S
H736 C743 0.950 . S
C737 C735 1.387 . S
C737 C739 1.390 . S
C737 H741 0.950 . S
H738 C734 0.950 . S
C739 C737 1.390 . S
C739 C740 1.387 . S
C739 H742 0.950 . S
C740 C739 1.387 . S
C740 C743 1.387 . S
H741 C737 0.950 . S
H742 C739 0.950 . S
C743 C734 1.390 . S
C743 H736 0.950 . S
C743 C740 1.387 . S
C744 C745 1.387 . S
C744 H748 0.950 . S
C744 C753 1.390 . S
C745 C744 1.387 . S
C745 C747 1.387 . S
H746 C753 0.950 . S
C747 C745 1.387 . S
C747 C749 1.390 . S
C747 H751 0.950 . S
H748 C744 0.950 . S
C749 C747 1.390 . S
C749 C750 1.387 . S
C749 H752 0.950 . S
C750 C749 1.387 . S
C750 C753 1.387 . S
H751 C747 0.950 . S
H752 C749 0.950 . S
C753 C744 1.390 . S
C753 H746 0.950 . S
C753 C750 1.387 . S
C754 C755 1.387 . S
C754 H758 0.950 . S
C754 C763 1.390 . S
C755 C754 1.387 . S
C755 C757 1.387 . S
H756 C763 0.950 . S
C757 C755 1.387 . S
C757 C759 1.390 . S
C757 H761 0.950 . S
H758 C754 0.950 . S
C759 C757 1.390 . S
C759 C760 1.387 . S
C759 H762 0.950 . S
C760 C759 1.387 . S
C760 C763 1.387 . S
H761 C757 0.950 . S
H762 C759 0.950 . S
C763 C754 1.390 . S
C763 H756 0.950 . S
C763 C760 1.387 . S
C764 C765 1.387 . S
C764 H768 0.950 . S
C764 C773 1.390 . S
C765 C764 1.387 . S
C765 C767 1.387 . S
H766 C773 0.950 . S
C767 C765 1.387 . S
C767 C769 1.390 . S
C767 H771 0.950 . S
H768 C764 0.950 . S
C769 C767 1.390 . S
C769 C770 1.387 . S
C769 H772 0.950 . S
C770 C769 1.387 . S
C770 C773 1.387 . S
H771 C767 0.950 . S
H772 C769 0.950 . S
C773 C764 1.390 . S
C773 H766 0.950 . S
C773 C770 1.387 . S
C774 C775 1.387 . S
C774 H778 0.950 . S
C774 C783 1.390 . S
C775 C774 1.387 . S
C775 C777 1.387 . S
H776 C783 0.950 . S
C777 C775 1.387 . S
C777 C779 1.390 . S
C777 H781 0.950 . S
H778 C774 0.950 . S
C779 C777 1.390 . S
C779 C780 1.387 . S
C779 H782 0.950 . S
C780 C779 1.387 . S
C780 C783 1.387 . S
H781 C777 0.950 . S
H782 C779 0.950 . S
C783 C774 1.390 . S
C783 H776 0.950 . S
C783 C780 1.387 . S
C784 C785 1.387 . S
C784 H788 0.950 . S
C784 C793 1.390 . S
C785 C784 1.387 . S
C785 C787 1.387 . S
H786 C793 0.950 . S
C787 C785 1.387 . S
C787 C789 1.390 . S
C787 H791 0.950 . S
H788 C784 0.950 . S
C789 C787 1.390 . S
C789 C790 1.387 . S
C789 H792 0.950 . S
C790 C789 1.387 . S
C790 C793 1.387 . S
H791 C787 0.950 . S
H792 C789 0.950 . S
C793 C784 1.390 . S
C793 H786 0.950 . S
C793 C790 1.387 . S
C794 C795 1.387 . S
C794 H798 0.950 . S
C794 C803 1.390 . S
C795 C794 1.387 . S
C795 C797 1.387 . S
H796 C803 0.950 . S
C797 C795 1.387 . S
C797 C799 1.390 . S
C797 H801 0.950 . S
H798 C794 0.950 . S
C799 C797 1.390 . S
C799 C800 1.387 . S
C799 H802 0.950 . S
C800 C799 1.387 . S
C800 C803 1.387 . S
H801 C797 0.950 . S
H802 C799 0.950 . S
C803 C794 1.390 . S
C803 H796 0.950 . S
C803 C800 1.387 . S
C804 C805 1.387 . S
C804 H808 0.950 . S
C804 C813 1.390 . S
C805 C804 1.387 . S
C805 C807 1.387 . S
H806 C813 0.950 . S
C807 C805 1.387 . S
C807 C809 1.390 . S
C807 H811 0.950 . S
H808 C804 0.950 . S
C809 C807 1.390 . S
C809 C810 1.387 . S
C809 H812 0.950 . S
C810 C809 1.387 . S
C810 C813 1.387 . S
H811 C807 0.950 . S
H812 C809 0.950 . S
C813 C804 1.390 . S
C813 H806 0.950 . S
C813 C810 1.387 . S
C580 C278 1.544 . S
C575 C23 1.533 . S
C590 C347 1.525 . S
C585 C49 1.511 . S
C600 C285 1.534 . S
C595 C87 1.505 . S
C610 C348 1.542 . S
C605 C125 1.510 . S
C620 C401 1.565 . S
C615 C29 1.564 . S
C630 C437 1.516 . S
C625 C61 1.498 . S
C635 C81 1.495 . S
C640 C497 1.543 . S
C650 C560 1.517 . S
C645 C113 1.475 . S
C660 C400 1.522 . S
C655 C55 1.521 . S
C665 C93 1.477 . S
C670 C444 1.528 . S
C680 C490 1.541 . S
C675 C119 1.495 . S
C690 C559 1.535 . S
C685 C17 1.536 . S
C695 C151 1.514 . S
C700 C338 1.544 . S
C710 C295 1.525 . S
C705 C177 1.503 . S
C715 C215 1.519 . S
C720 C331 1.534 . S
C725 C253 1.515 . S
C730 C294 1.542 . S
C740 C506 1.563 . S
C735 C157 1.491 . S
C750 C550 1.516 . S
C745 C189 1.465 . S
C760 C384 1.543 . S
C755 C209 1.544 . S
C765 C241 1.506 . S
C770 C453 1.517 . S
C780 C507 1.522 . S
C775 C183 1.479 . S
C790 C543 1.528 . S
C785 C221 1.520 . S
C800 C391 1.542 . S
C795 C247 1.543 . S
C805 C145 1.488 . S
C810 C454 1.535 . S
