# Generated by pormake.
# Topology pth, (4,4)-cn, num edge types: 1
# Building blocks:
#     Node 0, Type 0, BuildingBlock: KUFVIS_clean_sbu_0, # of connection points: 4
#     Node 1, Type 0, BuildingBlock: KUFVIS_clean_sbu_0, # of connection points: 4
#     Node 2, Type 0, BuildingBlock: KUFVIS_clean_sbu_0, # of connection points: 4
#     Node 3, Type 1, BuildingBlock: NAWXER_clean_linker_0, # of connection points: 4
#     Node 4, Type 1, BuildingBlock: NAWXER_clean_linker_0, # of connection points: 4
#     Node 5, Type 1, BuildingBlock: NAWXER_clean_linker_0, # of connection points: 4
#     Edge 6, Type (0, 1), BuildingBlock: FUNLAD_clean_linker_0, # of connection points: 2
#     Edge 7, Type (0, 1), BuildingBlock: FUNLAD_clean_linker_0, # of connection points: 2
#     Edge 8, Type (0, 1), BuildingBlock: FUNLAD_clean_linker_0, # of connection points: 2
#     Edge 9, Type (0, 1), BuildingBlock: FUNLAD_clean_linker_0, # of connection points: 2
#     Edge 10, Type (0, 1), BuildingBlock: FUNLAD_clean_linker_0, # of connection points: 2
#     Edge 11, Type (0, 1), BuildingBlock: FUNLAD_clean_linker_0, # of connection points: 2
#     Edge 12, Type (0, 1), BuildingBlock: FUNLAD_clean_linker_0, # of connection points: 2
#     Edge 13, Type (0, 1), BuildingBlock: FUNLAD_clean_linker_0, # of connection points: 2
#     Edge 14, Type (0, 1), BuildingBlock: FUNLAD_clean_linker_0, # of connection points: 2
#     Edge 15, Type (0, 1), BuildingBlock: FUNLAD_clean_linker_0, # of connection points: 2
#     Edge 16, Type (0, 1), BuildingBlock: FUNLAD_clean_linker_0, # of connection points: 2
#     Edge 17, Type (0, 1), BuildingBlock: FUNLAD_clean_linker_0, # of connection points: 2
# Relax obj value: 0.011
# Max RMSD: 0.077
# Mean RMSD: 0.050
data_MOF--net-pth--node1-KUFVIS_clean_sbu_0--node2-NAWXER_clean_linker_0--edge1-FUNLAD_clean_linker_0
_symmetry_space_group_name_H-M    P1
_symmetry_Int_Tables_number       1
_symmetry_cell_setting            triclinic
loop_
_symmetry_equiv_pos_as_xyz
'x, y, z'
_cell_length_a     32.505176
_cell_length_b     32.592742
_cell_length_c     75.090943
_cell_angle_alpha  90.398288
_cell_angle_beta   91.741063
_cell_angle_gamma 120.20468
loop_
_atom_site_label
_atom_site_type_symbol
_atom_site_fract_x
_atom_site_fract_y
_atom_site_fract_z
_atom_type_partial_charge
Mn0 Mn 0.04219 0.06116 0.05208 0.0
Mn1 Mn 0.98121 0.10052 0.02735 0.0
C2 C 0.99164 0.0143 0.02892 0.0
C3 C 0.04769 0.0226 0.07727 0.0
C4 C 0.0864 0.13557 0.02346 0.0
O5 O 0.04786 0.11607 0.06716 0.0
O6 O 1.00059 0.13487 0.05084 0.0
C7 C 0.89562 0.06494 0.0489 0.0
N8 N 0.91552 0.06656 0.03304 0.0
C9 C 0.83865 0.01482 0.01888 0.0
C10 C 0.81729 0.01286 0.03504 0.0
C11 C 0.84592 0.03795 0.05012 0.0
C12 C 0.88833 0.04249 0.01845 0.0
H13 H 0.91753 0.08402 0.06054 0.0
C14 C 0.02688 0.13991 0.06471 0.0
O15 O 0.08547 0.05238 0.06903 0.0
O16 O 0.0071 0.016 0.07106 0.0
N17 N 0.96 0.07001 0.00434 0.0
C18 C 0.98634 0.07377 0.99001 0.0
C19 C 0.96316 0.04972 0.97396 0.0
C20 C 0.9132 0.02239 0.97276 0.0
C21 C 0.88684 0.01954 0.98761 0.0
C22 C 0.91188 0.04458 0.00321 0.0
H23 H 0.02474 0.09469 0.99086 0.0
O24 O 0.02491 0.00687 0.03516 0.0
O25 O 0.98845 0.04837 0.03665 0.0
O26 O 0.08964 0.10775 0.03457 0.0
O27 O 0.04815 0.13675 0.0203 0.0
C28 C 0.83676 0.99211 0.98765 0.0
C29 C 0.81269 0.9897 0.00328 0.0
H30 H 0.77899 0.99188 0.03607 0.0
H31 H 0.82971 0.03641 0.06267 0.0
H32 H 0.98375 0.05209 0.96256 0.0
H33 H 0.89548 0.00347 0.96042 0.0
H34 H 0.81645 0.97219 0.97581 0.0
H35 H 0.77423 0.96797 0.00322 0.0
Mn36 Mn 0.01792 0.06108 0.38373 0.0
Mn37 Mn 0.08178 0.16189 0.40849 0.0
C38 C 0.05827 0.06063 0.4095 0.0
C39 C 0.01458 0.01179 0.36036 0.0
C40 C 0.97378 0.10192 0.40846 0.0
O41 O 0.02404 0.11248 0.36691 0.0
O42 O 0.07224 0.17788 0.38375 0.0
C43 C 0.1733 0.2013 0.39044 0.0
N44 N 0.14825 0.18625 0.40556 0.0
C45 C 0.21885 0.20397 0.42301 0.0
C46 C 0.24547 0.21997 0.40765 0.0
C47 C 0.22256 0.21854 0.39129 0.0
C48 C 0.16991 0.18743 0.42137 0.0
H49 H 0.15577 0.20003 0.37782 0.0
C50 C 0.0489 0.15752 0.36918 0.0
O51 O 0.97605 0.00947 0.36599 0.0
O52 O 0.0546 0.04372 0.36785 0.0
N53 N 0.094 0.15166 0.43267 0.0
C54 C 0.0628 0.13262 0.44603 0.0
C55 C 0.07982 0.13022 0.46318 0.0
C56 C 0.12869 0.14766 0.46645 0.0
C57 C 0.16018 0.16757 0.45254 0.0
C58 C 0.14122 0.1694 0.43576 0.0
H59 H 0.02519 0.11911 0.44361 0.0
O60 O 0.0234 0.02129 0.40273 0.0
O61 O 0.06883 0.09888 0.40083 0.0
O62 O 0.96914 0.06853 0.39806 0.0
O63 O 0.01394 0.13868 0.41268 0.0
C64 C 0.20948 0.1848 0.45458 0.0
C65 C 0.23878 0.2029 0.43982 0.0
H66 H 0.28342 0.23302 0.40823 0.0
H67 H 0.24283 0.23059 0.37936 0.0
H68 H 0.05528 0.11477 0.47385 0.0
H69 H 0.14161 0.14527 0.47965 0.0
H70 H 0.22512 0.18362 0.46737 0.0
H71 H 0.27651 0.21537 0.44149 0.0
Mn72 Mn 0.03385 0.05744 0.71643 0.0
Mn73 Mn 0.00304 0.12653 0.73949 0.0
C74 C 0.07951 0.10063 0.74116 0.0
C75 C 0.07379 0.04832 0.6928 0.0
C76 C 0.95249 0.01913 0.74218 0.0
O77 O 0.98641 0.0623 0.69953 0.0
O78 O 0.97417 0.11457 0.7149 0.0
C79 C 0.05478 0.215 0.71938 0.0
N80 N 0.04607 0.19195 0.73508 0.0
C81 C 0.10108 0.26418 0.75116 0.0
C82 C 0.11044 0.28877 0.73517 0.0
C83 C 0.08728 0.26404 0.71921 0.0
C84 C 0.06828 0.21536 0.75051 0.0
H85 H 0.03708 0.19608 0.70708 0.0
C86 C 0.96801 0.08869 0.70101 0.0
O87 O 0.03833 0.0118 0.69983 0.0
O88 O 0.08519 0.08985 0.69927 0.0
N89 N 0.02867 0.1413 0.76348 0.0
C90 C 0.01756 0.1119 0.77757 0.0
C91 C 0.03875 0.13086 0.79446 0.0
C92 C 0.07071 0.17983 0.79672 0.0
C93 C 0.08113 0.20945 0.78207 0.0
C94 C 0.05879 0.18858 0.76558 0.0
H95 H 0.99291 0.07426 0.77593 0.0
O96 O 0.082 0.06453 0.73519 0.0
O97 O 0.05112 0.11097 0.73224 0.0
O98 O 0.97949 0.01223 0.7321 0.0
O99 O 0.95743 0.06003 0.74523 0.0
C100 C 0.11344 0.25873 0.78312 0.0
C101 C 0.12356 0.28605 0.76767 0.0
H102 H 0.1356 0.32656 0.73497 0.0
H103 H 0.09448 0.28273 0.7068 0.0
H104 H 0.03052 0.10776 0.8057 0.0
H105 H 0.08728 0.19426 0.80974 0.0
H106 H 0.13129 0.27585 0.7957 0.0
H107 H 0.14906 0.32377 0.76859 0.0
C108 C 0.98186 0.40562 0.24322 0.0
C109 C 0.01606 0.41686 0.25716 0.0
C110 C 0.98155 0.44157 0.23326 0.0
C111 C 0.01563 0.48944 0.23695 0.0
C112 C 0.04969 0.46488 0.26096 0.0
C113 C 0.04926 0.50076 0.25102 0.0
C114 C 0.01568 0.52806 0.22667 0.0
C115 C 0.05029 0.44566 0.18644 0.0
C116 C 0.01572 0.42493 0.17241 0.0
C117 C 0.04963 0.47858 0.19834 0.0
C118 C 0.01429 0.49115 0.19645 0.0
C119 C 0.97984 0.43697 0.17089 0.0
C120 C 0.97944 0.47002 0.18267 0.0
C121 C 0.01488 0.52859 0.20786 0.0
C122 C 0.05985 0.72811 0.19337 0.0
C123 C 0.03489 0.71966 0.1769 0.0
C124 C 0.05335 0.6902 0.20388 0.0
C125 C 0.02085 0.64309 0.19833 0.0
C126 C 0.00262 0.67259 0.17131 0.0
C127 C 0.99571 0.63473 0.18191 0.0
C128 C 0.01595 0.60234 0.2087 0.0
C129 C 0.96624 0.67745 0.24445 0.0
C130 C 0.99758 0.70166 0.2591 0.0
C131 C 0.97164 0.64463 0.23421 0.0
C132 C 0.00843 0.6352 0.23839 0.0
C133 C 0.03403 0.69155 0.26336 0.0
C134 C 0.03907 0.6583 0.25321 0.0
C135 C 0.01434 0.60066 0.22748 0.0
H136 H 0.95554 0.369 0.23993 0.0
H137 H 0.95445 0.43195 0.22275 0.0
H138 H 0.07595 0.4748 0.27181 0.0
H139 H 0.07551 0.53746 0.25425 0.0
H140 H 0.07873 0.43763 0.18788 0.0
H141 H 0.07743 0.49516 0.2087 0.0
H142 H 0.95204 0.42101 0.16052 0.0
H143 H 0.95186 0.47924 0.18098 0.0
H144 H 0.08558 0.76398 0.19786 0.0
H145 H 0.07482 0.69783 0.21608 0.0
H146 H 0.98271 0.66506 0.15871 0.0
H147 H 0.97084 0.59879 0.17722 0.0
H148 H 0.9371 0.68337 0.24098 0.0
H149 H 0.94684 0.62634 0.22307 0.0
H150 H 0.05925 0.70986 0.27437 0.0
H151 H 0.06756 0.65138 0.2567 0.0
N152 N 0.01515 0.56406 0.23577 0.0
N153 N 0.01533 0.56581 0.19965 0.0
C154 C 0.66115 0.07816 0.51824 0.0
C155 C 0.64646 0.04492 0.50398 0.0
C156 C 0.62801 0.0774 0.52986 0.0
C157 C 0.57954 0.04291 0.52765 0.0
C158 C 0.59784 0.01066 0.50173 0.0
C159 C 0.56474 0.00985 0.51339 0.0
C160 C 0.54366 0.04299 0.53934 0.0
C161 C 0.63931 0.01329 0.5749 0.0
C162 C 0.66474 0.0486 0.58818 0.0
C163 C 0.60166 0.01246 0.56505 0.0
C164 C 0.58895 0.0471 0.56823 0.0
C165 C 0.65151 0.08286 0.59144 0.0
C166 C 0.61384 0.08193 0.58164 0.0
C167 C 0.54883 0.04657 0.55815 0.0
C168 C 0.35822 0.01785 0.57922 0.0
C169 C 0.37301 0.05177 0.59323 0.0
C170 C 0.39163 0.01623 0.56839 0.0
C171 C 0.4405 0.04887 0.57119 0.0
C172 C 0.42207 0.08358 0.59628 0.0
C173 C 0.45543 0.08199 0.58542 0.0
C174 C 0.4763 0.04806 0.55964 0.0
C175 C 0.39034 0.09013 0.52433 0.0
C176 C 0.36407 0.05728 0.51042 0.0
C177 C 0.42498 0.08607 0.53435 0.0
C178 C 0.43372 0.04883 0.53077 0.0
C179 C 0.37312 0.0202 0.50681 0.0
C180 C 0.40784 0.01623 0.51681 0.0
C181 C 0.47159 0.04528 0.54084 0.0
H182 H 0.69833 0.10483 0.52045 0.0
H183 H 0.64025 0.10426 0.54041 0.0
H184 H 0.58518 0.98504 0.49073 0.0
H185 H 0.52743 0.98338 0.51126 0.0
H186 H 0.64869 0.98647 0.57205 0.0
H187 H 0.58228 0.98457 0.55505 0.0
H188 H 0.6698 0.11001 0.60179 0.0
H189 H 0.60431 0.10868 0.58446 0.0
H190 H 0.32076 0.99292 0.57646 0.0
H191 H 0.37921 0.98941 0.55782 0.0
H192 H 0.43477 0.10954 0.60717 0.0
H193 H 0.49295 0.1071 0.588 0.0
H194 H 0.3841 0.11898 0.52748 0.0
H195 H 0.44536 0.11242 0.54475 0.0
H196 H 0.35407 0.99481 0.49598 0.0
H197 H 0.41449 0.98763 0.51367 0.0
N198 N 0.50515 0.04236 0.53145 0.0
N199 N 0.515 0.04908 0.56755 0.0
C200 C 0.40497 0.39821 0.85771 0.0
C201 C 0.382 0.40996 0.84419 0.0
C202 C 0.44336 0.43387 0.86784 0.0
C203 C 0.45897 0.48193 0.86484 0.0
C204 C 0.39828 0.45817 0.8411 0.0
C205 C 0.43635 0.49368 0.85129 0.0
C206 C 0.50043 0.52049 0.87494 0.0
C207 C 0.38958 0.43992 0.91524 0.0
C208 C 0.4052 0.42447 0.92999 0.0
C209 C 0.42234 0.47175 0.90343 0.0
C210 C 0.47117 0.48725 0.90577 0.0
C211 C 0.454 0.44091 0.93266 0.0
C212 C 0.48664 0.47183 0.92062 0.0
C213 C 0.5069 0.52206 0.89372 0.0
C214 C 0.67215 0.71835 0.90873 0.0
C215 C 0.69704 0.70873 0.92215 0.0
C216 C 0.63494 0.6813 0.89867 0.0
C217 C 0.62228 0.63395 0.90169 0.0
C218 C 0.68419 0.66126 0.92513 0.0
C219 C 0.64701 0.62427 0.91508 0.0
C220 C 0.58147 0.59421 0.89178 0.0
C221 C 0.6914 0.67403 0.85116 0.0
C222 C 0.67646 0.69444 0.83787 0.0
C223 C 0.65864 0.64104 0.86268 0.0
C224 C 0.61038 0.62809 0.86122 0.0
C225 C 0.62798 0.6808 0.83628 0.0
C226 C 0.59527 0.64776 0.84777 0.0
C227 C 0.57496 0.59257 0.87307 0.0
H228 H 0.39327 0.36147 0.86049 0.0
H229 H 0.46106 0.42387 0.87789 0.0
H230 H 0.38227 0.46862 0.83054 0.0
H231 H 0.44821 0.53051 0.84855 0.0
H232 H 0.35215 0.42838 0.91313 0.0
H233 H 0.40943 0.48473 0.89266 0.0
H234 H 0.46682 0.42958 0.94401 0.0
H235 H 0.52411 0.48378 0.92293 0.0
H236 H 0.68056 0.75443 0.90631 0.0
H237 H 0.61543 0.68963 0.8888 0.0
H238 H 0.70297 0.65265 0.93523 0.0
H239 H 0.63761 0.58799 0.91772 0.0
H240 H 0.72852 0.68393 0.85277 0.0
H241 H 0.67099 0.62543 0.87265 0.0
H242 H 0.6152 0.69527 0.82601 0.0
H243 H 0.55812 0.63781 0.84623 0.0
N244 N 0.5346 0.55596 0.86543 0.0
N245 N 0.54737 0.55879 0.90133 0.0
C246 C 0.01926 0.20902 0.07474 0.0
C247 C 0.03232 0.17491 0.07865 0.0
C248 C 0.02263 0.24121 0.08786 0.0
C249 C 0.03835 0.23961 0.10539 0.0
C250 C 0.05264 0.20635 0.10919 0.0
C251 C 0.04968 0.17432 0.09597 0.0
C252 C 0.04099 0.27245 0.1199 0.0
C253 C 0.0157 0.29493 0.11927 0.0
C254 C 0.01839 0.32877 0.13324 0.0
C255 C 0.00623 0.36284 0.1283 0.0
C256 C 0.00622 0.39436 0.14094 0.0
C257 C 0.01762 0.39215 0.15899 0.0
H258 H 0.03895 0.30022 0.15566 0.0
C259 C 0.03015 0.3582 0.16399 0.0
C260 C 0.03053 0.32676 0.15125 0.0
H261 H 0.03851 0.3551 0.17781 0.0
H262 H 0.0066 0.21115 0.06146 0.0
H263 H 0.01333 0.26749 0.08399 0.0
H264 H 0.06549 0.20464 0.12249 0.0
H265 H 0.0602 0.14859 0.09943 0.0
H266 H 0.06419 0.27775 0.13145 0.0
H267 H 0.99213 0.28931 0.10782 0.0
H268 H 0.99678 0.36524 0.11453 0.0
H269 H 0.9974 0.42065 0.1365 0.0
C270 C 0.88944 0.05335 0.41825 0.0
C271 C 0.93104 0.09774 0.41671 0.0
C272 C 0.85077 0.04953 0.42741 0.0
C273 C 0.85291 0.09017 0.43506 0.0
C274 C 0.89367 0.1346 0.43284 0.0
C275 C 0.93243 0.13835 0.42394 0.0
C276 C 0.81381 0.08807 0.44549 0.0
C277 C 0.78465 0.05054 0.45524 0.0
C278 C 0.74884 0.05025 0.46727 0.0
C279 C 0.71206 0.00649 0.47302 0.0
C280 C 0.67873 0.00465 0.48483 0.0
C281 C 0.68159 0.04664 0.4913 0.0
H282 H 0.78024 0.12694 0.47031 0.0
C283 C 0.71847 0.09044 0.48561 0.0
C284 C 0.75181 0.09231 0.47384 0.0
H285 H 0.72155 0.12348 0.49021 0.0
H286 H 0.88719 0.02142 0.41278 0.0
H287 H 0.81936 0.01483 0.4284 0.0
H288 H 0.89608 0.16652 0.43843 0.0
H289 H 0.96371 0.17317 0.42286 0.0
H290 H 0.81117 0.11993 0.44585 0.0
H291 H 0.7876 0.01881 0.45477 0.0
H292 H 0.70916 0.97353 0.4684 0.0
H293 H 0.65119 0.9703 0.48913 0.0
C294 C 0.91396 0.93515 0.7528 0.0
C295 C 0.91408 0.97821 0.75133 0.0
C296 C 0.87904 0.89781 0.76242 0.0
C297 C 0.8434 0.90279 0.77066 0.0
C298 C 0.8427 0.94518 0.76865 0.0
C299 C 0.87776 0.98256 0.75925 0.0
C300 C 0.80617 0.86489 0.78138 0.0
C301 C 0.81262 0.83288 0.79046 0.0
C302 C 0.77669 0.79756 0.80241 0.0
C303 C 0.77931 0.75712 0.80685 0.0
C304 C 0.74689 0.72362 0.81834 0.0
C305 C 0.71118 0.72996 0.82573 0.0
H306 H 0.73902 0.83567 0.80765 0.0
C307 C 0.70889 0.77069 0.82148 0.0
C308 C 0.74133 0.80421 0.81005 0.0
H309 H 0.6825 0.77716 0.82728 0.0
H310 H 0.94129 0.93053 0.74679 0.0
H311 H 0.87994 0.86513 0.76322 0.0
H312 H 0.81542 0.94982 0.77471 0.0
H313 H 0.87644 0.01503 0.75827 0.0
H314 H 0.77311 0.8652 0.7824 0.0
H315 H 0.84571 0.83262 0.78934 0.0
H316 H 0.80639 0.75125 0.80133 0.0
H317 H 0.74944 0.69247 0.82127 0.0
C318 C 0.09022 0.99056 0.09574 0.0
C319 C 0.05001 0.99526 0.09249 0.0
C320 C 0.0902 0.96075 0.10908 0.0
C321 C 0.05009 0.93552 0.1195 0.0
C322 C 0.01096 0.94215 0.11682 0.0
C323 C 0.01067 0.97129 0.10332 0.0
C324 C 0.04745 0.90135 0.13302 0.0
C325 C 0.06708 0.87392 0.13076 0.0
C326 C 0.05951 0.83537 0.14302 0.0
C327 C 0.05924 0.79513 0.13609 0.0
C328 C 0.05095 0.7575 0.14707 0.0
C329 C 0.04358 0.7597 0.16531 0.0
H330 H 0.05393 0.86892 0.16721 0.0
C331 C 0.04503 0.80047 0.17237 0.0
C332 C 0.05277 0.83792 0.16133 0.0
H333 H 0.03958 0.80313 0.1864 0.0
H334 H 0.12113 0.00878 0.08765 0.0
H335 H 0.12145 0.95736 0.11114 0.0
H336 H 0.97983 0.92348 0.12478 0.0
H337 H 0.97931 0.97453 0.10122 0.0
H338 H 0.02461 0.89521 0.14416 0.0
H339 H 0.08572 0.8768 0.11864 0.0
H340 H 0.06476 0.79246 0.12207 0.0
H341 H 0.05079 0.72685 0.14132 0.0
C342 C 0.13846 0.07774 0.42006 0.0
C343 C 0.09013 0.05895 0.42336 0.0
C344 C 0.16885 0.07445 0.43275 0.0
C345 C 0.15123 0.05188 0.44897 0.0
C346 C 0.10235 0.0314 0.45189 0.0
C347 C 0.07194 0.03466 0.43913 0.0
C348 C 0.18243 0.04691 0.46258 0.0
C349 C 0.22958 0.07787 0.46444 0.0
C350 C 0.26194 0.0718 0.47715 0.0
C351 C 0.30572 0.11178 0.48237 0.0
C352 C 0.33846 0.10721 0.49343 0.0
C353 C 0.32831 0.06239 0.49937 0.0
H354 H 0.21885 0.99503 0.47912 0.0
C355 C 0.2844 0.02235 0.49423 0.0
C356 C 0.25157 0.02693 0.48322 0.0
H357 H 0.27546 0.98737 0.49866 0.0
H358 H 0.15266 0.09465 0.40757 0.0
H359 H 0.20582 0.08884 0.42963 0.0
H360 H 0.0877 0.01299 0.4641 0.0
H361 H 0.03437 0.01869 0.44164 0.0
H362 H 0.1656 0.01756 0.4716 0.0
H363 H 0.24532 0.10971 0.45658 0.0
H364 H 0.31486 0.14667 0.47774 0.0
H365 H 0.37226 0.13866 0.49695 0.0
C366 C 0.14432 0.18065 0.75117 0.0
C367 C 0.11445 0.1326 0.75482 0.0
C368 C 0.17861 0.21115 0.76388 0.0
C369 C 0.18391 0.19387 0.7804 0.0
C370 C 0.15553 0.1452 0.78363 0.0
C371 C 0.12116 0.11471 0.77089 0.0
C372 C 0.21978 0.22553 0.79421 0.0
C373 C 0.23303 0.2717 0.79616 0.0
C374 C 0.26965 0.30443 0.80954 0.0
C375 C 0.26795 0.34435 0.81557 0.0
C376 C 0.30356 0.37777 0.82723 0.0
C377 C 0.34221 0.37243 0.83291 0.0
H378 H 0.31087 0.26872 0.81074 0.0
C379 C 0.34356 0.33205 0.82705 0.0
C380 C 0.30768 0.29839 0.81549 0.0
H381 H 0.37321 0.32723 0.83088 0.0
H382 H 0.14116 0.19458 0.73847 0.0
H383 H 0.20119 0.24804 0.76061 0.0
H384 H 0.15956 0.13087 0.79611 0.0
H385 H 0.09932 0.07735 0.77368 0.0
H386 H 0.23387 0.2098 0.80349 0.0
H387 H 0.21537 0.28609 0.78798 0.0
H388 H 0.23907 0.34986 0.81116 0.0
H389 H 0.30093 0.408 0.8317 0.0
C390 C 0.9238 0.0574 0.67142 0.0
C391 C 0.93737 0.08931 0.68607 0.0
C392 C 0.89342 0.05713 0.65773 0.0
C393 C 0.87591 0.08879 0.65844 0.0
C394 C 0.89058 0.12146 0.67281 0.0
C395 C 0.9207 0.12162 0.68649 0.0
C396 C 0.84268 0.08939 0.64452 0.0
C397 C 0.81342 0.05175 0.63384 0.0
C398 C 0.77716 0.05172 0.62124 0.0
C399 C 0.73608 0.00836 0.6165 0.0
C400 C 0.69996 0.00715 0.60551 0.0
C401 C 0.7043 0.04936 0.59891 0.0
H402 H 0.81425 0.12772 0.61675 0.0
C403 C 0.74622 0.09258 0.60308 0.0
C404 C 0.78235 0.09378 0.61404 0.0
H405 H 0.75115 0.12557 0.59784 0.0
H406 H 0.93629 0.0323 0.67057 0.0
H407 H 0.88418 0.03237 0.64661 0.0
H408 H 0.87809 0.14659 0.67363 0.0
H409 H 0.9307 0.14707 0.69745 0.0
H410 H 0.83974 0.12111 0.6441 0.0
H411 H 0.81307 0.01848 0.63535 0.0
H412 H 0.73131 0.97538 0.62171 0.0
H413 H 0.66803 0.97329 0.6026 0.0
C414 C 0.96621 0.96528 0.00085 0.0
C415 C 0.95429 0.97897 0.01671 0.0
C416 C 0.93065 0.92996 0.98966 0.0
C417 C 0.88259 0.9072 0.99438 0.0
C418 C 0.87126 0.91986 0.01065 0.0
C419 C 0.90679 0.95533 0.02174 0.0
C420 C 0.84367 0.86851 0.98323 0.0
C421 C 0.84637 0.86238 0.96563 0.0
C422 C 0.80749 0.82266 0.95479 0.0
C423 C 0.80427 0.8277 0.93633 0.0
C424 C 0.76847 0.79086 0.92571 0.0
C425 C 0.73536 0.74792 0.93333 0.0
H426 H 0.7768 0.77338 0.97643 0.0
C427 C 0.73899 0.74264 0.95177 0.0
C428 C 0.77471 0.77942 0.96237 0.0
H429 H 0.7139 0.71014 0.95808 0.0
H430 H 0.003 0.98214 0.99707 0.0
H431 H 0.9412 0.92001 0.9776 0.0
H432 H 0.83475 0.90239 0.01479 0.0
H433 H 0.8972 0.96415 0.0343 0.0
H434 H 0.81083 0.84527 0.98979 0.0
H435 H 0.87724 0.88824 0.95866 0.0
H436 H 0.82941 0.86035 0.9301 0.0
H437 H 0.76709 0.79581 0.9115 0.0
C438 C 0.9706 0.94277 0.33861 0.0
C439 C 0.01347 0.97731 0.34713 0.0
C440 C 0.96981 0.90781 0.32736 0.0
C441 C 0.01191 0.90671 0.32458 0.0
C442 C 0.05468 0.94172 0.33289 0.0
C443 C 0.05558 0.97682 0.34389 0.0
C444 C 0.01244 0.86813 0.31414 0.0
C445 C 0.98174 0.84399 0.30043 0.0
C446 C 0.98474 0.80657 0.29013 0.0
C447 C 0.97396 0.80114 0.27174 0.0
C448 C 0.97817 0.76725 0.26166 0.0
C449 C 0.99235 0.73733 0.26984 0.0
H450 H 0.00517 0.77843 0.31266 0.0
C451 C 0.00171 0.74193 0.28839 0.0
C452 C 0.99807 0.77619 0.2984 0.0
H453 H 0.01143 0.71875 0.29525 0.0
H454 H 0.93754 0.94209 0.34093 0.0
H455 H 0.93602 0.88079 0.32144 0.0
H456 H 0.08756 0.94162 0.33102 0.0
H457 H 0.08922 0.00276 0.35028 0.0
H458 H 0.04107 0.86104 0.31737 0.0
H459 H 0.95599 0.85395 0.29588 0.0
H460 H 0.96338 0.82396 0.26507 0.0
H461 H 0.97116 0.76521 0.2474 0.0
C462 C 0.13843 0.08383 0.67093 0.0
C463 C 0.10182 0.04324 0.67868 0.0
C464 C 0.16743 0.07982 0.65852 0.0
C465 C 0.16085 0.03502 0.65369 0.0
C466 C 0.12302 0.99433 0.66093 0.0
C467 C 0.09386 0.99835 0.67334 0.0
C468 C 0.19248 0.0294 0.64117 0.0
C469 C 0.23778 0.06388 0.63862 0.0
C470 C 0.27069 0.05909 0.62654 0.0
C471 C 0.31074 0.10064 0.62095 0.0
C472 C 0.34362 0.09826 0.61007 0.0
C473 C 0.33751 0.05413 0.60461 0.0
H474 H 0.23501 0.98188 0.62549 0.0
C475 C 0.29747 0.01244 0.61021 0.0
C476 C 0.26447 0.01481 0.62108 0.0
H477 H 0.29214 0.97787 0.60651 0.0
H478 H 0.14507 0.11893 0.67456 0.0
H479 H 0.19472 0.112 0.65273 0.0
H480 H 0.11668 0.95933 0.65728 0.0
H481 H 0.06578 0.96638 0.67901 0.0
H482 H 0.17808 0.99526 0.6343 0.0
H483 H 0.25206 0.09773 0.64571 0.0
H484 H 0.31661 0.13523 0.62497 0.0
H485 H 0.37368 0.13108 0.60582 0.0
C486 C 0.13388 0.21047 0.00698 0.0
C487 C 0.12853 0.1676 0.01327 0.0
C488 C 0.17218 0.23984 0.99655 0.0
C489 C 0.20559 0.2266 0.99197 0.0
C490 C 0.20024 0.18374 0.9982 0.0
C491 C 0.16244 0.1548 0.00899 0.0
C492 C 0.24437 0.25561 0.97981 0.0
C493 C 0.26708 0.30338 0.9802 0.0
C494 C 0.30362 0.33263 0.96733 0.0
C495 C 0.34236 0.37668 0.97302 0.0
C496 C 0.37605 0.40603 0.96095 0.0
C497 C 0.37075 0.39239 0.94287 0.0
H498 H 0.26862 0.28535 0.94442 0.0
C499 C 0.33182 0.34852 0.93711 0.0
C500 C 0.29873 0.31865 0.94926 0.0
H501 H 0.32704 0.33741 0.9232 0.0
H502 H 0.10826 0.22123 0.01003 0.0
H503 H 0.1747 0.27214 0.99161 0.0
H504 H 0.22532 0.17262 0.9947 0.0
H505 H 0.15894 0.12173 0.01351 0.0
H506 H 0.25518 0.23721 0.97061 0.0
H507 H 0.25964 0.32185 0.99059 0.0
H508 H 0.34656 0.38839 0.98684 0.0
H509 H 0.40563 0.43991 0.96564 0.0
C510 C 0.02004 0.1695 0.3392 0.0
C511 C 0.05065 0.18838 0.35442 0.0
C512 C 0.02065 0.19935 0.32574 0.0
C513 C 0.05195 0.24877 0.32725 0.0
C514 C 0.08339 0.2673 0.34219 0.0
C515 C 0.08263 0.23763 0.35564 0.0
C516 C 0.0535 0.28238 0.3136 0.0
C517 C 0.01664 0.27339 0.30234 0.0
C518 C 0.01744 0.30936 0.29 0.0
C519 C 0.97416 0.306 0.28447 0.0
C520 C 0.97357 0.34041 0.27362 0.0
C521 C 0.01634 0.37889 0.26794 0.0
H522 H 0.09417 0.34986 0.28709 0.0
C523 C 0.05958 0.38137 0.27294 0.0
C524 C 0.06017 0.34693 0.28376 0.0
H525 H 0.09306 0.4099 0.26842 0.0
H526 H 0.9952 0.1317 0.33775 0.0
H527 H 0.99684 0.18344 0.31419 0.0
H528 H 0.10824 0.30512 0.34363 0.0
H529 H 0.10711 0.25351 0.36705 0.0
H530 H 0.08519 0.31737 0.3139 0.0
H531 H 0.98329 0.24006 0.30311 0.0
H532 H 0.94069 0.27726 0.28893 0.0
H533 H 0.93965 0.33754 0.27007 0.0
loop_
_geom_bond_atom_site_label_1
_geom_bond_atom_site_label_2
_geom_bond_distance
_geom_bond_site_symmetry_2
_ccdc_geom_bond_type
Mn0 O5 2.095 . S
Mn0 O15 2.162 . S
Mn0 O16 2.297 . S
Mn0 O24 2.385 1_545 S
Mn0 O25 2.209 1_455 S
Mn0 O26 2.094 . S
Mn1 O6 2.119 . S
Mn1 N8 2.240 1_455 S
Mn1 N17 2.219 1_454 S
Mn1 O25 2.220 1_455 S
Mn1 O27 2.133 . S
C2 O24 1.234 1_645 S
C2 O25 1.283 . S
C3 O15 1.281 1_565 S
C3 O16 1.236 1_565 S
C4 O26 1.240 . S
C4 O27 1.264 . S
O5 Mn0 2.095 . S
O5 C14 1.250 . S
O6 Mn1 2.119 . S
O6 C14 1.258 . S
C7 N8 1.326 . S
C7 C11 1.460 . S
C7 H13 0.929 . S
N8 Mn1 2.240 1_655 S
N8 C7 1.326 . S
N8 C12 1.362 . S
C9 C10 1.258 . S
C9 C12 1.431 . S
C9 C29 1.449 1_554 S
C10 C9 1.258 . S
C10 C11 1.477 . S
C10 H30 0.931 . S
C11 C7 1.460 . S
C11 C10 1.477 . S
C11 H31 0.930 . S
C12 N8 1.362 . S
C12 C9 1.431 . S
C12 C22 1.476 1_554 S
H13 C7 0.929 . S
C14 O5 1.250 . S
C14 O6 1.258 . S
O15 Mn0 2.162 . S
O15 C3 1.281 1_545 S
O16 Mn0 2.297 . S
O16 C3 1.236 1_545 S
N17 Mn1 2.219 1_656 S
N17 C18 1.374 1_655 S
N17 C22 1.334 . S
C18 N17 1.374 1_455 S
C18 C19 1.457 1_455 S
C18 H23 0.929 . S
C19 C18 1.457 1_655 S
C19 C20 1.291 . S
C19 H32 0.942 . S
C20 C19 1.291 . S
C20 C21 1.373 . S
C20 H33 0.929 . S
C21 C20 1.373 . S
C21 C22 1.396 . S
C21 C28 1.403 . S
C22 C12 1.476 1_556 S
C22 N17 1.334 . S
C22 C21 1.396 . S
H23 C18 0.929 . S
O24 Mn0 2.385 1_565 S
O24 C2 1.234 1_465 S
O25 Mn0 2.209 1_655 S
O25 Mn1 2.220 1_655 S
O25 C2 1.283 . S
O26 Mn0 2.094 . S
O26 C4 1.240 . S
O27 Mn1 2.133 . S
O27 C4 1.264 . S
C28 C21 1.403 . S
C28 C29 1.399 . S
C28 H34 0.929 . S
C29 C9 1.449 1_556 S
C29 C28 1.399 . S
C29 H35 0.930 . S
H30 C10 0.931 . S
H31 C11 0.930 . S
H32 C19 0.942 . S
H33 C20 0.929 . S
H34 C28 0.929 . S
H35 C29 0.930 . S
Mn36 O41 2.095 . S
Mn36 O51 2.162 1_545 S
Mn36 O52 2.297 1_655 S
Mn36 O60 2.385 1_655 S
Mn36 O61 2.209 1_655 S
Mn36 O62 2.094 . S
Mn37 O42 2.121 . S
Mn37 N44 2.257 . S
Mn37 N53 2.282 . S
Mn37 O61 2.215 . S
Mn37 O63 2.117 1_455 S
C38 O60 1.234 . S
C38 O61 1.283 . S
C39 O51 1.281 1_455 S
C39 O52 1.236 1_565 S
C40 O62 1.240 . S
C40 O63 1.264 . S
O41 Mn36 2.095 . S
O41 C50 1.250 1_655 S
O42 Mn37 2.121 . S
O42 C50 1.258 . S
C43 N44 1.326 . S
C43 C47 1.460 . S
C43 H49 0.929 . S
N44 Mn37 2.257 . S
N44 C43 1.326 . S
N44 C48 1.362 . S
C45 C46 1.258 . S
C45 C48 1.431 . S
C45 C65 1.449 . S
C46 C45 1.258 . S
C46 C47 1.477 . S
C46 H66 0.931 . S
C47 C43 1.460 . S
C47 C46 1.477 . S
C47 H67 0.930 . S
C48 N44 1.362 . S
C48 C45 1.431 . S
C48 C58 1.476 . S
H49 C43 0.929 . S
C50 O41 1.250 1_455 S
C50 O42 1.258 . S
O51 Mn36 2.162 1_565 S
O51 C39 1.281 1_655 S
O52 Mn36 2.297 1_455 S
O52 C39 1.236 1_545 S
N53 Mn37 2.282 . S
N53 C54 1.328 . S
N53 C58 1.318 . S
C54 N53 1.328 . S
C54 C55 1.457 . S
C54 H59 0.929 . S
C55 C54 1.457 . S
C55 C56 1.291 . S
C55 H68 0.931 . S
C56 C55 1.291 . S
C56 C57 1.373 . S
C56 H69 0.929 . S
C57 C56 1.373 . S
C57 C58 1.396 . S
C57 C64 1.403 . S
C58 C48 1.476 . S
C58 N53 1.318 . S
C58 C57 1.396 . S
H59 C54 0.929 . S
O60 Mn36 2.385 1_455 S
O60 C38 1.234 . S
O61 Mn36 2.209 1_455 S
O61 Mn37 2.215 . S
O61 C38 1.283 . S
O62 Mn36 2.094 . S
O62 C40 1.240 . S
O63 Mn37 2.117 1_655 S
O63 C40 1.264 . S
C64 C57 1.403 . S
C64 C65 1.399 . S
C64 H70 0.929 . S
C65 C45 1.449 . S
C65 C64 1.399 . S
C65 H71 0.930 . S
H66 C46 0.931 . S
H67 C47 0.930 . S
H68 C55 0.931 . S
H69 C56 0.929 . S
H70 C64 0.929 . S
H71 C65 0.930 . S
Mn72 O77 2.095 1_455 S
Mn72 O87 2.162 . S
Mn72 O88 2.297 . S
Mn72 O96 2.385 . S
Mn72 O97 2.209 . S
Mn72 O98 2.094 1_445 S
Mn73 O78 2.121 . S
Mn73 N80 2.257 . S
Mn73 N89 2.282 1_655 S
Mn73 O97 2.215 1_655 S
Mn73 O99 2.117 . S
C74 O96 1.234 . S
C74 O97 1.283 . S
C75 O87 1.281 . S
C75 O88 1.236 . S
C76 O98 1.240 . S
C76 O99 1.264 1_565 S
O77 Mn72 2.095 1_655 S
O77 C86 1.250 . S
O78 Mn73 2.121 . S
O78 C86 1.258 . S
C79 N80 1.326 . S
C79 C83 1.460 1_655 S
C79 H85 0.929 . S
N80 Mn73 2.257 . S
N80 C79 1.326 . S
N80 C84 1.362 1_655 S
C81 C82 1.258 . S
C81 C84 1.431 . S
C81 C101 1.449 . S
C82 C81 1.258 . S
C82 C83 1.477 . S
C82 H102 0.931 . S
C83 C79 1.460 1_455 S
C83 C82 1.477 . S
C83 H103 0.929 1_455 S
C84 N80 1.362 1_455 S
C84 C81 1.431 . S
C84 C94 1.476 . S
H85 C79 0.929 . S
C86 O77 1.250 . S
C86 O78 1.258 . S
O87 Mn72 2.162 . S
O87 C75 1.281 . S
O88 Mn72 2.297 . S
O88 C75 1.236 . S
N89 Mn73 2.282 1_455 S
N89 C90 1.328 . S
N89 C94 1.318 . S
C90 N89 1.328 . S
C90 C91 1.457 . S
C90 H95 0.929 1_455 S
C91 C90 1.457 . S
C91 C92 1.291 . S
C91 H104 0.931 . S
C92 C91 1.291 . S
C92 C93 1.373 . S
C92 H105 0.929 . S
C93 C92 1.373 . S
C93 C94 1.396 . S
C93 C100 1.403 . S
C94 C84 1.476 . S
C94 N89 1.318 . S
C94 C93 1.396 . S
H95 C90 0.929 1_655 S
O96 Mn72 2.385 . S
O96 C74 1.234 . S
O97 Mn72 2.209 . S
O97 Mn73 2.215 1_455 S
O97 C74 1.283 . S
O98 Mn72 2.094 1_665 S
O98 C76 1.240 . S
O99 Mn73 2.117 . S
O99 C76 1.264 1_545 S
C100 C93 1.403 . S
C100 C101 1.399 . S
C100 H106 0.929 . S
C101 C81 1.449 . S
C101 C100 1.399 . S
C101 H107 0.930 . S
H102 C82 0.931 . S
H103 C83 0.929 1_655 S
H104 C91 0.931 . S
H105 C92 0.929 . S
H106 C100 0.929 . S
H107 C101 0.930 . S
C108 C109 1.384 1_655 S
C108 C110 1.384 . S
C108 H136 0.931 . S
C109 C108 1.384 1_455 S
C109 C112 1.382 . S
C110 C108 1.384 . S
C110 C111 1.381 1_655 S
C110 H137 0.930 . S
C111 C110 1.381 1_455 S
C111 C113 1.381 . S
C111 C114 1.487 . S
C112 C109 1.382 . S
C112 C113 1.387 . S
C112 H138 0.930 . S
C113 C111 1.381 . S
C113 C112 1.387 . S
C113 H139 0.931 . S
C114 C111 1.487 . S
C114 C121 1.399 . S
C114 N152 1.343 . S
C115 C116 1.384 . S
C115 C117 1.384 . S
C115 H140 0.931 . S
C116 C115 1.384 . S
C116 C119 1.382 1_455 S
C117 C115 1.384 . S
C117 C118 1.381 . S
C117 H141 0.930 . S
C118 C117 1.381 . S
C118 C120 1.381 1_455 S
C118 C121 1.487 . S
C119 C116 1.382 1_655 S
C119 C120 1.387 . S
C119 H142 0.930 . S
C120 C118 1.381 1_655 S
C120 C119 1.387 . S
C120 H143 0.931 . S
C121 C114 1.399 . S
C121 C118 1.487 . S
C121 N153 1.343 . S
C122 C123 1.384 . S
C122 C124 1.384 . S
C122 H144 0.931 . S
C123 C122 1.384 . S
C123 C126 1.382 1_455 S
C124 C122 1.384 . S
C124 C125 1.381 . S
C124 H145 0.930 . S
C125 C124 1.381 . S
C125 C127 1.381 1_455 S
C125 C128 1.487 . S
C126 C123 1.382 1_655 S
C126 C127 1.387 . S
C126 H146 0.930 . S
C127 C125 1.381 1_655 S
C127 C126 1.387 . S
C127 H147 0.931 . S
C128 C125 1.487 . S
C128 C135 1.399 . S
C128 N153 1.343 . S
C129 C130 1.384 1_655 S
C129 C131 1.384 . S
C129 H148 0.931 . S
C130 C129 1.384 1_455 S
C130 C133 1.382 . S
C131 C129 1.384 . S
C131 C132 1.381 1_655 S
C131 H149 0.930 . S
C132 C131 1.381 1_455 S
C132 C134 1.381 . S
C132 C135 1.487 . S
C133 C130 1.382 . S
C133 C134 1.387 . S
C133 H150 0.930 . S
C134 C132 1.381 . S
C134 C133 1.387 . S
C134 H151 0.931 . S
C135 C128 1.399 . S
C135 C132 1.487 . S
C135 N152 1.343 . S
H136 C108 0.931 . S
H137 C110 0.930 . S
H138 C112 0.930 . S
H139 C113 0.931 . S
H140 C115 0.931 . S
H141 C117 0.930 . S
H142 C119 0.930 . S
H143 C120 0.931 . S
H144 C122 0.931 . S
H145 C124 0.930 . S
H146 C126 0.930 . S
H147 C127 0.931 . S
H148 C129 0.931 . S
H149 C131 0.930 . S
H150 C133 0.930 . S
H151 C134 0.931 . S
N152 C114 1.343 . S
N152 C135 1.343 . S
N153 C121 1.343 . S
N153 C128 1.343 . S
C154 C155 1.384 . S
C154 C156 1.384 . S
C154 H182 0.931 . S
C155 C154 1.384 . S
C155 C158 1.382 . S
C156 C154 1.384 . S
C156 C157 1.381 . S
C156 H183 0.930 . S
C157 C156 1.381 . S
C157 C159 1.381 . S
C157 C160 1.487 . S
C158 C155 1.382 . S
C158 C159 1.387 . S
C158 H184 0.930 . S
C159 C157 1.381 . S
C159 C158 1.387 . S
C159 H185 0.931 . S
C160 C157 1.487 . S
C160 C167 1.399 . S
C160 N198 1.343 . S
C161 C162 1.384 . S
C161 C163 1.384 . S
C161 H186 0.931 . S
C162 C161 1.384 . S
C162 C165 1.382 . S
C163 C161 1.384 . S
C163 C164 1.381 . S
C163 H187 0.930 . S
C164 C163 1.381 . S
C164 C166 1.381 . S
C164 C167 1.487 . S
C165 C162 1.382 . S
C165 C166 1.387 . S
C165 H188 0.930 . S
C166 C164 1.381 . S
C166 C165 1.387 . S
C166 H189 0.931 . S
C167 C160 1.399 . S
C167 C164 1.487 . S
C167 N199 1.343 . S
C168 C169 1.384 . S
C168 C170 1.384 . S
C168 H190 0.931 . S
C169 C168 1.384 . S
C169 C172 1.382 . S
C170 C168 1.384 . S
C170 C171 1.381 . S
C170 H191 0.930 . S
C171 C170 1.381 . S
C171 C173 1.381 . S
C171 C174 1.487 . S
C172 C169 1.382 . S
C172 C173 1.387 . S
C172 H192 0.930 . S
C173 C171 1.381 . S
C173 C172 1.387 . S
C173 H193 0.931 . S
C174 C171 1.487 . S
C174 C181 1.399 . S
C174 N199 1.343 . S
C175 C176 1.384 . S
C175 C177 1.384 . S
C175 H194 0.931 . S
C176 C175 1.384 . S
C176 C179 1.382 . S
C177 C175 1.384 . S
C177 C178 1.381 . S
C177 H195 0.930 . S
C178 C177 1.381 . S
C178 C180 1.381 . S
C178 C181 1.487 . S
C179 C176 1.382 . S
C179 C180 1.387 . S
C179 H196 0.930 . S
C180 C178 1.381 . S
C180 C179 1.387 . S
C180 H197 0.931 . S
C181 C174 1.399 . S
C181 C178 1.487 . S
C181 N198 1.343 . S
H182 C154 0.931 . S
H183 C156 0.930 . S
H184 C158 0.930 . S
H185 C159 0.931 . S
H186 C161 0.931 . S
H187 C163 0.930 . S
H188 C165 0.930 . S
H189 C166 0.931 . S
H190 C168 0.931 . S
H191 C170 0.930 . S
H192 C172 0.930 . S
H193 C173 0.931 . S
H194 C175 0.931 . S
H195 C177 0.930 . S
H196 C179 0.930 . S
H197 C180 0.931 . S
N198 C160 1.343 . S
N198 C181 1.343 . S
N199 C167 1.343 . S
N199 C174 1.343 . S
C200 C201 1.384 . S
C200 C202 1.384 . S
C200 H228 0.931 . S
C201 C200 1.384 . S
C201 C204 1.382 . S
C202 C200 1.384 . S
C202 C203 1.381 . S
C202 H229 0.930 . S
C203 C202 1.381 . S
C203 C205 1.381 . S
C203 C206 1.487 . S
C204 C201 1.382 . S
C204 C205 1.387 . S
C204 H230 0.930 . S
C205 C203 1.381 . S
C205 C204 1.387 . S
C205 H231 0.931 . S
C206 C203 1.487 . S
C206 C213 1.399 . S
C206 N244 1.343 . S
C207 C208 1.384 . S
C207 C209 1.384 . S
C207 H232 0.931 . S
C208 C207 1.384 . S
C208 C211 1.382 . S
C209 C207 1.384 . S
C209 C210 1.381 . S
C209 H233 0.930 . S
C210 C209 1.381 . S
C210 C212 1.381 . S
C210 C213 1.487 . S
C211 C208 1.382 . S
C211 C212 1.387 . S
C211 H234 0.930 . S
C212 C210 1.381 . S
C212 C211 1.387 . S
C212 H235 0.931 . S
C213 C206 1.399 . S
C213 C210 1.487 . S
C213 N245 1.343 . S
C214 C215 1.384 . S
C214 C216 1.384 . S
C214 H236 0.931 . S
C215 C214 1.384 . S
C215 C218 1.382 . S
C216 C214 1.384 . S
C216 C217 1.381 . S
C216 H237 0.930 . S
C217 C216 1.381 . S
C217 C219 1.381 . S
C217 C220 1.487 . S
C218 C215 1.382 . S
C218 C219 1.387 . S
C218 H238 0.930 . S
C219 C217 1.381 . S
C219 C218 1.387 . S
C219 H239 0.931 . S
C220 C217 1.487 . S
C220 C227 1.399 . S
C220 N245 1.343 . S
C221 C222 1.384 . S
C221 C223 1.384 . S
C221 H240 0.931 . S
C222 C221 1.384 . S
C222 C225 1.382 . S
C223 C221 1.384 . S
C223 C224 1.381 . S
C223 H241 0.930 . S
C224 C223 1.381 . S
C224 C226 1.381 . S
C224 C227 1.487 . S
C225 C222 1.382 . S
C225 C226 1.387 . S
C225 H242 0.930 . S
C226 C224 1.381 . S
C226 C225 1.387 . S
C226 H243 0.931 . S
C227 C220 1.399 . S
C227 C224 1.487 . S
C227 N244 1.343 . S
H228 C200 0.931 . S
H229 C202 0.930 . S
H230 C204 0.930 . S
H231 C205 0.931 . S
H232 C207 0.931 . S
H233 C209 0.930 . S
H234 C211 0.930 . S
H235 C212 0.931 . S
H236 C214 0.931 . S
H237 C216 0.930 . S
H238 C218 0.930 . S
H239 C219 0.931 . S
H240 C221 0.931 . S
H241 C223 0.930 . S
H242 C225 0.930 . S
H243 C226 0.931 . S
N244 C206 1.343 . S
N244 C227 1.343 . S
N245 C213 1.343 . S
N245 C220 1.343 . S
C246 C247 1.386 . S
C246 C248 1.383 . S
C246 H262 0.951 . S
C247 C246 1.386 . S
C247 C251 1.383 . S
C248 C246 1.383 . S
C248 C249 1.402 . S
C248 H263 0.971 . S
C249 C248 1.402 . S
C249 C250 1.375 . S
C249 C252 1.481 . S
C250 C249 1.375 . S
C250 C251 1.367 . S
C250 H264 0.951 . S
C251 C247 1.383 . S
C251 C250 1.367 . S
C251 H265 0.950 . S
C252 C249 1.481 . S
C252 C253 1.297 . S
C252 H266 0.950 . S
C253 C252 1.297 . S
C253 C254 1.479 . S
C253 H267 0.950 1_455 S
C254 C253 1.479 . S
C254 C255 1.377 . S
C254 C260 1.404 . S
C255 C254 1.377 . S
C255 C256 1.368 . S
C255 H268 0.950 1_455 S
C256 C255 1.368 . S
C256 C257 1.392 . S
C256 H269 0.951 . S
C257 C256 1.392 . S
C257 C259 1.384 . S
H258 C260 0.949 . S
C259 C257 1.384 . S
C259 C260 1.385 . S
C259 H261 0.950 . S
C260 C254 1.404 . S
C260 H258 0.949 . S
C260 C259 1.385 . S
H261 C259 0.950 . S
H262 C246 0.951 . S
H263 C248 0.971 . S
H264 C250 0.951 . S
H265 C251 0.950 . S
H266 C252 0.950 . S
H267 C253 0.950 1_655 S
H268 C255 0.950 1_655 S
H269 C256 0.951 . S
C270 C271 1.386 . S
C270 C272 1.383 . S
C270 H286 0.951 1_545 S
C271 C270 1.386 . S
C271 C275 1.383 . S
C272 C270 1.383 . S
C272 C273 1.402 . S
C272 H287 0.951 . S
C273 C272 1.402 . S
C273 C274 1.375 . S
C273 C276 1.481 . S
C274 C273 1.375 . S
C274 C275 1.367 . S
C274 H288 0.951 . S
C275 C271 1.383 . S
C275 C274 1.367 . S
C275 H289 0.950 . S
C276 C273 1.481 . S
C276 C277 1.297 . S
C276 H290 0.950 . S
C277 C276 1.297 . S
C277 C278 1.479 . S
C277 H291 0.950 . S
C278 C277 1.479 . S
C278 C279 1.375 . S
C278 C284 1.404 . S
C279 C278 1.375 . S
C279 C280 1.369 . S
C279 H292 0.950 1_545 S
C280 C279 1.369 . S
C280 C281 1.392 . S
C280 H293 0.951 . S
C281 C280 1.392 . S
C281 C283 1.384 . S
H282 C284 0.949 . S
C283 C281 1.384 . S
C283 C284 1.385 . S
C283 H285 0.950 . S
C284 C278 1.404 . S
C284 H282 0.949 . S
C284 C283 1.385 . S
H285 C283 0.950 . S
H286 C270 0.951 1_565 S
H287 C272 0.951 . S
H288 C274 0.951 . S
H289 C275 0.950 . S
H290 C276 0.950 . S
H291 C277 0.950 . S
H292 C279 0.950 1_565 S
H293 C280 0.951 . S
C294 C295 1.386 . S
C294 C296 1.383 . S
C294 H310 0.951 . S
C295 C294 1.386 . S
C295 C299 1.383 . S
C296 C294 1.383 . S
C296 C297 1.402 . S
C296 H311 0.951 . S
C297 C296 1.402 . S
C297 C298 1.375 . S
C297 C300 1.481 . S
C298 C297 1.375 . S
C298 C299 1.367 . S
C298 H312 0.951 . S
C299 C295 1.383 . S
C299 C298 1.367 . S
C299 H313 0.950 1_565 S
C300 C297 1.481 . S
C300 C301 1.297 . S
C300 H314 0.950 . S
C301 C300 1.297 . S
C301 C302 1.479 . S
C301 H315 0.950 . S
C302 C301 1.479 . S
C302 C303 1.375 . S
C302 C308 1.404 . S
C303 C302 1.375 . S
C303 C304 1.369 . S
C303 H316 0.950 . S
C304 C303 1.369 . S
C304 C305 1.392 . S
C304 H317 0.951 . S
C305 C304 1.392 . S
C305 C307 1.384 . S
H306 C308 0.949 . S
C307 C305 1.384 . S
C307 C308 1.385 . S
C307 H309 0.950 . S
C308 C302 1.404 . S
C308 H306 0.949 . S
C308 C307 1.385 . S
H309 C307 0.950 . S
H310 C294 0.951 . S
H311 C296 0.951 . S
H312 C298 0.951 . S
H313 C299 0.950 1_545 S
H314 C300 0.950 . S
H315 C301 0.950 . S
H316 C303 0.950 . S
H317 C304 0.951 . S
C318 C319 1.386 . S
C318 C320 1.383 . S
C318 H334 0.951 . S
C319 C318 1.386 . S
C319 C323 1.383 . S
C320 C318 1.383 . S
C320 C321 1.402 . S
C320 H335 0.951 . S
C321 C320 1.402 . S
C321 C322 1.375 . S
C321 C324 1.481 . S
C322 C321 1.375 . S
C322 C323 1.367 . S
C322 H336 0.951 . S
C323 C319 1.383 . S
C323 C322 1.367 . S
C323 H337 0.950 1_565 S
C324 C321 1.481 . S
C324 C325 1.297 . S
C324 H338 0.950 . S
C325 C324 1.297 . S
C325 C326 1.479 . S
C325 H339 0.950 . S
C326 C325 1.479 . S
C326 C327 1.375 . S
C326 C332 1.404 . S
C327 C326 1.375 . S
C327 C328 1.369 . S
C327 H340 0.950 . S
C328 C327 1.369 . S
C328 C329 1.392 . S
C328 H341 0.951 . S
C329 C328 1.392 . S
C329 C331 1.384 . S
H330 C332 0.949 . S
C331 C329 1.384 . S
C331 C332 1.385 . S
C331 H333 0.950 . S
C332 C326 1.404 . S
C332 H330 0.949 . S
C332 C331 1.385 . S
H333 C331 0.950 . S
H334 C318 0.951 . S
H335 C320 0.951 . S
H336 C322 0.951 . S
H337 C323 0.950 1_545 S
H338 C324 0.950 . S
H339 C325 0.950 . S
H340 C327 0.950 . S
H341 C328 0.951 . S
C342 C343 1.386 . S
C342 C344 1.383 . S
C342 H358 0.951 . S
C343 C342 1.386 . S
C343 C347 1.383 . S
C344 C342 1.383 . S
C344 C345 1.402 . S
C344 H359 0.951 . S
C345 C344 1.402 . S
C345 C346 1.375 . S
C345 C348 1.481 . S
C346 C345 1.375 . S
C346 C347 1.367 . S
C346 H360 0.951 1_545 S
C347 C343 1.383 . S
C347 C346 1.367 . S
C347 H361 0.950 1_545 S
C348 C345 1.481 . S
C348 C349 1.297 . S
C348 H362 0.950 . S
C349 C348 1.297 . S
C349 C350 1.479 . S
C349 H363 0.950 . S
C350 C349 1.479 . S
C350 C351 1.375 . S
C350 C356 1.404 . S
C351 C350 1.375 . S
C351 C352 1.369 . S
C351 H364 0.950 . S
C352 C351 1.369 . S
C352 C353 1.392 . S
C352 H365 0.951 . S
C353 C352 1.392 . S
C353 C355 1.384 . S
H354 C356 0.949 . S
C355 C353 1.384 . S
C355 C356 1.385 . S
C355 H357 0.950 . S
C356 C350 1.404 . S
C356 H354 0.949 . S
C356 C355 1.385 . S
H357 C355 0.950 . S
H358 C342 0.951 . S
H359 C344 0.951 . S
H360 C346 0.951 1_565 S
H361 C347 0.950 1_565 S
H362 C348 0.950 . S
H363 C349 0.950 . S
H364 C351 0.950 . S
H365 C352 0.951 . S
C366 C367 1.386 . S
C366 C368 1.383 . S
C366 H382 0.951 . S
C367 C366 1.386 . S
C367 C371 1.383 . S
C368 C366 1.383 . S
C368 C369 1.402 . S
C368 H383 0.951 . S
C369 C368 1.402 . S
C369 C370 1.375 . S
C369 C372 1.481 . S
C370 C369 1.375 . S
C370 C371 1.367 . S
C370 H384 0.951 . S
C371 C367 1.383 . S
C371 C370 1.367 . S
C371 H385 0.950 . S
C372 C369 1.481 . S
C372 C373 1.297 . S
C372 H386 0.950 . S
C373 C372 1.297 . S
C373 C374 1.479 . S
C373 H387 0.950 . S
C374 C373 1.479 . S
C374 C375 1.375 . S
C374 C380 1.404 . S
C375 C374 1.375 . S
C375 C376 1.369 . S
C375 H388 0.950 . S
C376 C375 1.369 . S
C376 C377 1.392 . S
C376 H389 0.951 . S
C377 C376 1.392 . S
C377 C379 1.384 . S
H378 C380 0.949 . S
C379 C377 1.384 . S
C379 C380 1.385 . S
C379 H381 0.950 . S
C380 C374 1.404 . S
C380 H378 0.949 . S
C380 C379 1.385 . S
H381 C379 0.950 . S
H382 C366 0.951 . S
H383 C368 0.951 . S
H384 C370 0.951 . S
H385 C371 0.950 . S
H386 C372 0.950 . S
H387 C373 0.950 . S
H388 C375 0.950 . S
H389 C376 0.951 . S
C390 C391 1.386 . S
C390 C392 1.383 . S
C390 H406 0.951 . S
C391 C390 1.386 . S
C391 C395 1.383 . S
C392 C390 1.383 . S
C392 C393 1.402 . S
C392 H407 0.951 . S
C393 C392 1.402 . S
C393 C394 1.375 . S
C393 C396 1.481 . S
C394 C393 1.375 . S
C394 C395 1.367 . S
C394 H408 0.951 . S
C395 C391 1.383 . S
C395 C394 1.367 . S
C395 H409 0.950 . S
C396 C393 1.481 . S
C396 C397 1.297 . S
C396 H410 0.950 . S
C397 C396 1.297 . S
C397 C398 1.479 . S
C397 H411 0.950 . S
C398 C397 1.479 . S
C398 C399 1.375 . S
C398 C404 1.404 . S
C399 C398 1.375 . S
C399 C400 1.369 . S
C399 H412 0.950 . S
C400 C399 1.369 . S
C400 C401 1.392 . S
C400 H413 0.951 . S
C401 C400 1.392 . S
C401 C403 1.384 . S
H402 C404 0.949 . S
C403 C401 1.384 . S
C403 C404 1.385 . S
C403 H405 0.950 . S
C404 C398 1.404 . S
C404 H402 0.949 . S
C404 C403 1.385 . S
H405 C403 0.950 . S
H406 C390 0.951 . S
H407 C392 0.951 . S
H408 C394 0.951 . S
H409 C395 0.950 . S
H410 C396 0.950 . S
H411 C397 0.950 . S
H412 C399 0.950 . S
H413 C400 0.951 . S
C414 C415 1.391 1_556 S
C414 C416 1.380 . S
C414 H430 0.948 . S
C415 C414 1.391 1_554 S
C415 C419 1.383 . S
C416 C414 1.380 . S
C416 C417 1.402 . S
C416 H431 0.951 . S
C417 C416 1.402 . S
C417 C418 1.375 1_556 S
C417 C420 1.481 . S
C418 C417 1.375 1_554 S
C418 C419 1.367 . S
C418 H432 0.951 . S
C419 C415 1.383 . S
C419 C418 1.367 . S
C419 H433 0.950 . S
C420 C417 1.481 . S
C420 C421 1.297 . S
C420 H434 0.950 . S
C421 C420 1.297 . S
C421 C422 1.479 . S
C421 H435 0.950 . S
C422 C421 1.479 . S
C422 C423 1.375 . S
C422 C428 1.404 . S
C423 C422 1.375 . S
C423 C424 1.369 . S
C423 H436 0.950 . S
C424 C423 1.369 . S
C424 C425 1.392 . S
C424 H437 0.951 . S
C425 C424 1.392 . S
C425 C427 1.384 . S
H426 C428 0.949 . S
C427 C425 1.384 . S
C427 C428 1.385 . S
C427 H429 0.950 . S
C428 C422 1.404 . S
C428 H426 0.949 . S
C428 C427 1.385 . S
H429 C427 0.950 . S
H430 C414 0.948 . S
H431 C416 0.951 . S
H432 C418 0.951 . S
H433 C419 0.950 . S
H434 C420 0.950 . S
H435 C421 0.950 . S
H436 C423 0.950 . S
H437 C424 0.951 . S
C438 C439 1.386 . S
C438 C440 1.383 . S
C438 H454 0.951 1_455 S
C439 C438 1.386 . S
C439 C443 1.383 . S
C440 C438 1.383 . S
C440 C441 1.402 . S
C440 H455 0.951 . S
C441 C440 1.402 . S
C441 C442 1.375 . S
C441 C444 1.481 . S
C442 C441 1.375 . S
C442 C443 1.367 . S
C442 H456 0.951 . S
C443 C439 1.383 . S
C443 C442 1.367 . S
C443 H457 0.950 . S
C444 C441 1.481 . S
C444 C445 1.297 . S
C444 H458 0.950 . S
C445 C444 1.297 . S
C445 C446 1.479 . S
C445 H459 0.950 . S
C446 C445 1.479 . S
C446 C447 1.375 . S
C446 C452 1.404 . S
C447 C446 1.375 . S
C447 C448 1.369 . S
C447 H460 0.950 . S
C448 C447 1.369 . S
C448 C449 1.392 . S
C448 H461 0.951 . S
C449 C448 1.392 . S
C449 C451 1.384 . S
H450 C452 0.949 . S
C451 C449 1.384 . S
C451 C452 1.385 . S
C451 H453 0.950 . S
C452 C446 1.404 . S
C452 H450 0.949 . S
C452 C451 1.385 . S
H453 C451 0.950 . S
H454 C438 0.951 1_655 S
H455 C440 0.951 . S
H456 C442 0.951 . S
H457 C443 0.950 . S
H458 C444 0.950 . S
H459 C445 0.950 . S
H460 C447 0.950 . S
H461 C448 0.951 . S
C462 C463 1.386 . S
C462 C464 1.383 . S
C462 H478 0.951 . S
C463 C462 1.386 . S
C463 C467 1.383 . S
C464 C462 1.383 . S
C464 C465 1.402 . S
C464 H479 0.951 . S
C465 C464 1.402 . S
C465 C466 1.375 . S
C465 C468 1.481 . S
C466 C465 1.375 . S
C466 C467 1.367 . S
C466 H480 0.951 1_545 S
C467 C463 1.383 . S
C467 C466 1.367 . S
C467 H481 0.950 1_545 S
C468 C465 1.481 . S
C468 C469 1.297 . S
C468 H482 0.950 . S
C469 C468 1.297 . S
C469 C470 1.479 . S
C469 H483 0.950 . S
C470 C469 1.479 . S
C470 C471 1.375 . S
C470 C476 1.404 . S
C471 C470 1.375 . S
C471 C472 1.369 . S
C471 H484 0.950 . S
C472 C471 1.369 . S
C472 C473 1.392 . S
C472 H485 0.951 . S
C473 C472 1.392 . S
C473 C475 1.384 . S
H474 C476 0.949 . S
C475 C473 1.384 . S
C475 C476 1.385 . S
C475 H477 0.950 . S
C476 C470 1.404 . S
C476 H474 0.949 . S
C476 C475 1.385 . S
H477 C475 0.950 . S
H478 C462 0.951 . S
H479 C464 0.951 . S
H480 C466 0.951 1_565 S
H481 C467 0.950 1_565 S
H482 C468 0.950 . S
H483 C469 0.950 . S
H484 C471 0.950 . S
H485 C472 0.951 . S
C486 C487 1.386 . S
C486 C488 1.383 . S
C486 H502 0.951 . S
C487 C486 1.386 . S
C487 C491 1.383 1_554 S
C488 C486 1.383 . S
C488 C489 1.402 1_554 S
C488 H503 0.951 . S
C489 C488 1.402 1_556 S
C489 C490 1.375 . S
C489 C492 1.481 . S
C490 C489 1.375 . S
C490 C491 1.367 . S
C490 H504 0.951 . S
C491 C487 1.383 1_556 S
C491 C490 1.367 . S
C491 H505 0.950 . S
C492 C489 1.481 . S
C492 C493 1.297 . S
C492 H506 0.950 . S
C493 C492 1.297 . S
C493 C494 1.479 . S
C493 H507 0.950 . S
C494 C493 1.479 . S
C494 C495 1.375 . S
C494 C500 1.404 . S
C495 C494 1.375 . S
C495 C496 1.369 . S
C495 H508 0.950 . S
C496 C495 1.369 . S
C496 C497 1.392 . S
C496 H509 0.951 . S
C497 C496 1.392 . S
C497 C499 1.384 . S
H498 C500 0.949 . S
C499 C497 1.384 . S
C499 C500 1.385 . S
C499 H501 0.950 . S
C500 C494 1.404 . S
C500 H498 0.949 . S
C500 C499 1.385 . S
H501 C499 0.950 . S
H502 C486 0.951 . S
H503 C488 0.951 . S
H504 C490 0.951 . S
H505 C491 0.950 . S
H506 C492 0.950 . S
H507 C493 0.950 . S
H508 C495 0.950 . S
H509 C496 0.951 . S
C510 C511 1.386 1_655 S
C510 C512 1.383 . S
C510 H526 0.951 . S
C511 C510 1.386 1_455 S
C511 C515 1.383 . S
C512 C510 1.383 . S
C512 C513 1.402 1_655 S
C512 H527 0.951 . S
C513 C512 1.402 1_455 S
C513 C514 1.375 . S
C513 C516 1.481 . S
C514 C513 1.375 . S
C514 C515 1.367 . S
C514 H528 0.951 . S
C515 C511 1.383 . S
C515 C514 1.367 . S
C515 H529 0.950 . S
C516 C513 1.481 . S
C516 C517 1.297 . S
C516 H530 0.950 . S
C517 C516 1.297 . S
C517 C518 1.479 . S
C517 H531 0.950 1_455 S
C518 C517 1.479 . S
C518 C519 1.375 1_455 S
C518 C524 1.404 . S
C519 C518 1.375 1_655 S
C519 C520 1.369 . S
C519 H532 0.950 . S
C520 C519 1.369 . S
C520 C521 1.392 1_655 S
C520 H533 0.951 . S
C521 C520 1.392 1_455 S
C521 C523 1.384 . S
H522 C524 0.949 . S
C523 C521 1.384 . S
C523 C524 1.385 . S
C523 H525 0.950 . S
C524 C518 1.404 . S
C524 H522 0.949 . S
C524 C523 1.385 . S
H525 C523 0.950 . S
H526 C510 0.951 . S
H527 C512 0.951 . S
H528 C514 0.951 . S
H529 C515 0.950 . S
H530 C516 0.950 . S
H531 C517 0.950 1_655 S
H532 C519 0.950 . S
H533 C520 0.951 . S
C257 C116 1.457 . S
C247 C14 1.452 . S
C271 C40 1.466 . S
C281 C155 1.484 . S
C295 C76 1.453 . S
C305 C222 1.467 . S
C319 C3 1.456 . S
C329 C123 1.451 . S
C353 C176 1.480 . S
C343 C38 1.464 . S
C367 C74 1.445 . S
C377 C201 1.458 . S
C401 C162 1.442 . S
C391 C86 1.375 . S
C415 C2 1.456 1_565 S
C425 C215 1.458 . S
C449 C130 1.445 . S
C439 C39 1.456 . S
C473 C169 1.454 . S
C463 C75 1.462 . S
C497 C208 1.458 . S
C487 C4 1.467 . S
C511 C50 1.401 . S
C521 C109 1.469 . S
