# Generated by pormake.
# Topology scu, (8,4)-cn, num edge types: 1
# Building blocks:
#     Node 0, Type 0, BuildingBlock: VETTIZ_charged_sbu_0, # of connection points: 8
#     Node 1, Type 1, BuildingBlock: IZENUY_clean_linker_0, # of connection points: 4
#     Node 2, Type 1, BuildingBlock: IZENUY_clean_linker_0, # of connection points: 4
#     Edge 3, Type (0, 1), BuildingBlock: MIFKUJ_clean_linker_0, # of connection points: 2
#     Edge 4, Type (0, 1), BuildingBlock: MIFKUJ_clean_linker_0, # of connection points: 2
#     Edge 5, Type (0, 1), BuildingBlock: MIFKUJ_clean_linker_0, # of connection points: 2
#     Edge 6, Type (0, 1), BuildingBlock: MIFKUJ_clean_linker_0, # of connection points: 2
#     Edge 7, Type (0, 1), BuildingBlock: MIFKUJ_clean_linker_0, # of connection points: 2
#     Edge 8, Type (0, 1), BuildingBlock: MIFKUJ_clean_linker_0, # of connection points: 2
#     Edge 9, Type (0, 1), BuildingBlock: MIFKUJ_clean_linker_0, # of connection points: 2
#     Edge 10, Type (0, 1), BuildingBlock: MIFKUJ_clean_linker_0, # of connection points: 2
# Relax obj value: 0.029
# Max RMSD: 0.128
# Mean RMSD: 0.109
data_MOF--net-scu--node1-VETTIZ_charged_sbu_0--node2-IZENUY_clean_linker_0--edge1-MIFKUJ_clean_linker_0
_symmetry_space_group_name_H-M    P1
_symmetry_Int_Tables_number       1
_symmetry_cell_setting            triclinic
loop_
_symmetry_equiv_pos_as_xyz
'x, y, z'
_cell_length_a     36.720646
_cell_length_b     36.724623
_cell_length_c     22.869131
_cell_angle_alpha  90.113702
_cell_angle_beta   87.718463
_cell_angle_gamma 92.261605
loop_
_atom_site_label
_atom_site_type_symbol
_atom_site_fract_x
_atom_site_fract_y
_atom_site_fract_z
_atom_type_partial_charge
Fe0 Fe 0.0259 0.02599 0.1367 0.0
O1 O 0.02673 0.0281 0.05084 0.0
Fe2 Fe 0.04097 0.9809 1.00424 0.0
Fe3 Fe 0.98377 0.04137 1.00533 0.0
O4 O 0.02927 0.02543 0.05072 0.0
O5 O 0.99782 0.99396 0.95918 0.0
O6 O 0.99528 0.99665 0.95929 0.0
Fe7 Fe 0.99851 0.99624 0.87334 0.0
C8 C 0.94344 0.0148 0.11442 0.0
O9 O 0.0236 0.08184 0.1266 0.0
O10 O 0.97841 0.08751 0.05983 0.0
O11 O 0.05487 0.99767 0.8629 0.0
O12 O 0.07628 1.01146 0.95047 0.0
O13 O 0.08555 0.97426 0.05772 0.0
O14 O 0.08171 0.02114 0.12541 0.0
O15 O 0.01748 0.07371 0.95099 0.0
O16 O 0.99976 0.05219 0.86536 0.0
C17 C 0.09908 0.99583 0.09741 0.0
O18 O 1.00151 0.94059 0.88277 0.0
O19 O 0.04653 0.93493 0.94949 0.0
O20 O 0.96933 0.02544 0.14674 0.0
O21 O 0.94805 1.01128 0.05933 0.0
C22 C 1.00028 0.10055 0.09907 0.0
C23 C 1.01293 0.07783 0.89661 0.0
C24 C 0.92533 0.02595 0.91234 0.0
O25 O 0.93919 0.04807 0.95122 0.0
O26 O 0.94295 1.00038 0.88543 0.0
C27 C 0.08045 1.00895 0.89522 0.0
O28 O 1.00795 0.9481 0.05852 0.0
O29 O 0.0243 0.96985 0.14476 0.0
C30 C 0.02494 0.92183 0.90989 0.0
C31 C 1.01309 0.94365 0.11265 0.0
H32 H 1.01076 0.46429 0.42614 0.0
H33 H 0.01528 0.45237 0.61346 0.0
H34 H 1.00256 0.35782 0.5036 0.0
H35 H 0.01587 0.55915 0.59288 0.0
H36 H 0.02248 0.57425 0.40567 0.0
H37 H 0.01616 0.66678 0.52139 0.0
N38 N 0.01589 0.50144 0.52951 0.0
N39 N 0.01705 0.52365 0.4881 0.0
C40 C 1.01025 0.44726 0.46481 0.0
C41 C 1.00592 0.40927 0.45893 0.0
C42 C 1.01334 0.46302 0.52094 0.0
C43 C 1.01287 0.44029 0.57044 0.0
C44 C 1.00856 0.40226 0.56476 0.0
C45 C 1.00506 0.38719 0.50878 0.0
C46 C 0.01699 0.57683 0.55494 0.0
C47 C 0.01612 0.61464 0.56309 0.0
C48 C 0.01838 0.56203 0.49785 0.0
C49 C 0.02046 0.58569 0.44931 0.0
C50 C 0.02055 0.62379 0.45711 0.0
C51 C 0.01735 0.63764 0.51431 0.0
H52 H 0.57111 0.0196 0.43585 0.0
H53 H 0.55975 0.04121 0.62122 0.0
H54 H 0.66611 0.03276 0.53991 0.0
H55 H 0.45806 0.03333 0.5779 0.0
H56 H 0.46321 1.00502 0.39415 0.0
H57 H 0.35956 1.01276 0.48652 0.0
N58 N 0.52192 0.02932 0.52798 0.0
N59 N 0.50447 0.02149 0.48364 0.0
C60 C 0.58325 0.0251 0.4775 0.0
C61 C 0.62161 0.02529 0.48142 0.0
C62 C 0.56073 0.03094 0.52828 0.0
C63 C 0.57686 0.03738 0.58213 0.0
C64 C 0.61472 0.03766 0.58615 0.0
C65 C 0.63675 0.03207 0.536 0.0
C66 C 0.44471 0.02616 0.53785 0.0
C67 C 0.40637 0.02419 0.5379 0.0
C68 C 0.46555 0.01952 0.48558 0.0
C69 C 0.44746 1.01033 0.43413 0.0
C70 C 0.4092 1.0072 0.43463 0.0
C71 C 0.38915 0.01452 0.48636 0.0
H72 H 0.05757 0.14835 0.1083 0.0
H73 H 0.05738 0.20951 0.15041 0.0
H74 H 0.94006 0.20093 0.17177 0.0
H75 H 0.94016 0.14009 0.1265 0.0
H76 H 0.96102 0.2699 0.15058 0.0
H77 H 0.99591 0.17841 0.28371 0.0
H78 H 0.03124 0.12723 0.31729 0.0
H79 H 0.12976 0.19412 0.30292 0.0
H80 H 0.09506 0.24558 0.26843 0.0
H81 H 0.94547 0.37731 0.41372 0.0
H82 H 0.94376 0.33342 0.33283 0.0
H83 H 0.05908 0.35355 0.29775 0.0
H84 H 0.06063 0.39779 0.37844 0.0
H85 H 0.03984 0.28138 0.32143 0.0
H86 H 1.00068 0.37559 0.19657 0.0
H87 H 0.9622 0.4255 0.16766 0.0
H88 H 0.86796 0.35237 0.17355 0.0
H89 H 0.90578 0.30211 0.20334 0.0
C90 C 0.03169 0.15987 0.12085 0.0
C91 C 0.99891 0.13945 0.11497 0.0
C92 C 0.03159 0.19475 0.14516 0.0
C93 C 0.99882 0.20941 0.16615 0.0
C94 C 0.96574 0.19008 0.15647 0.0
C95 C 0.96577 0.15537 0.13066 0.0
C96 C 0.99963 0.24312 0.20258 0.0
C97 C 0.9781 0.27233 0.1881 0.0
C98 C 0.02203 0.24652 0.25157 0.0
C99 C 0.04294 0.21572 0.27288 0.0
C100 C 0.02514 0.18213 0.28735 0.0
C101 C 0.04505 0.15308 0.30657 0.0
C102 C 0.08274 0.15738 0.31206 0.0
C103 C 0.10057 0.1908 0.29854 0.0
C104 C 0.0808 0.21993 0.27918 0.0
C105 C 0.97006 0.37341 0.38704 0.0
C106 C 1.00306 0.3912 0.40143 0.0
C107 C 0.96912 0.34829 0.341 0.0
C108 C 1.00128 0.34024 0.30911 0.0
C109 C 0.03392 0.3595 0.32156 0.0
C110 C 0.03476 0.38494 0.36723 0.0
C111 C 1.00176 0.30841 0.26886 0.0
C112 C 0.02326 0.27925 0.28323 0.0
C113 C 0.97887 0.30495 0.22061 0.0
C114 C 0.95604 0.33514 0.20272 0.0
C115 C 0.97169 0.37021 0.19224 0.0
C116 C 0.95001 0.39856 0.17556 0.0
C117 C 0.91265 0.39213 0.1689 0.0
C118 C 0.8969 0.35732 0.17877 0.0
C119 C 0.91846 0.32888 0.19549 0.0
H120 H 0.89591 0.41412 0.15598 0.0
H121 H 0.09811 0.13485 0.3269 0.0
H122 H 0.924 0.99269 0.22592 0.0
H123 H 0.8626 0.98878 0.2725 0.0
H124 H 0.81711 0.02313 0.11176 0.0
H125 H 0.87831 0.02581 0.06416 0.0
H126 H 0.79795 0.06483 0.22248 0.0
H127 H 0.79473 0.94521 0.1395 0.0
H128 H 0.81202 0.88237 0.11677 0.0
H129 H 0.81098 0.85734 0.30013 0.0
H130 H 0.79424 0.92016 0.32406 0.0
H131 H 0.62141 0.05238 0.36868 0.0
H132 H 0.66912 0.04631 0.29102 0.0
H133 H 0.7276 0.97687 0.40347 0.0
H134 H 0.6796 0.98126 0.47897 0.0
H135 H 0.73443 0.95227 0.29966 0.0
H136 H 0.74696 0.07294 0.38443 0.0
H137 H 0.72636 0.13418 0.41064 0.0
H138 H 0.71115 0.15732 0.22941 0.0
H139 H 0.73126 0.09598 0.2022 0.0
C140 C 0.90087 0.9989 0.20024 0.0
C141 C 0.90606 1.00947 0.14133 0.0
C142 C 0.8658 0.99658 0.22686 0.0
C143 C 0.83526 1.00558 0.19557 0.0
C144 C 0.84025 0.01587 0.13661 0.0
C145 C 0.87524 0.01727 0.10947 0.0
C146 C 0.79864 1.00631 0.2259 0.0
C147 C 0.78367 0.04018 0.2385 0.0
C148 C 0.78034 0.97427 0.24768 0.0
C149 C 0.79347 0.9375 0.23356 0.0
C150 C 0.79884 0.92652 0.17501 0.0
C151 C 0.80833 0.89084 0.1619 0.0
C152 C 0.81233 0.86587 0.207 0.0
C153 C 0.80767 0.87669 0.26528 0.0
C154 C 0.79822 0.91233 0.27863 0.0
C155 C 0.64404 0.03516 0.37611 0.0
C156 C 0.6469 0.01776 0.43039 0.0
C157 C 0.67158 0.03206 0.33199 0.0
C158 C 0.7026 1.01178 0.34162 0.0
C159 C 0.70426 0.99285 0.39465 0.0
C160 C 0.67678 0.99562 0.43816 0.0
C161 C 0.73424 1.01088 0.29832 0.0
C162 C 0.74839 0.97698 0.28319 0.0
C163 C 0.75211 0.04294 0.2751 0.0
C164 C 0.74016 0.07977 0.29138 0.0
C165 C 0.73898 0.09101 0.35023 0.0
C166 C 0.72743 0.12574 0.36525 0.0
C167 C 0.71734 0.14959 0.32173 0.0
C168 C 0.71889 0.13879 0.26307 0.0
C169 C 0.73036 0.10406 0.24782 0.0
H170 H 0.70841 0.17647 0.33344 0.0
H171 H 0.81884 0.83807 0.19685 0.0
H172 H 0.99534 0.87861 0.05782 0.0
H173 H 0.99868 0.81689 0.09799 0.0
H174 H 0.03112 0.86225 0.26281 0.0
H175 H 0.02768 0.92354 0.22381 0.0
H176 H 0.07621 0.80579 0.21693 0.0
H177 H 0.94663 0.8335 0.24143 0.0
H178 H 0.88827 0.84734 0.19902 0.0
H179 H 0.88719 0.74504 0.1076 0.0
H180 H 0.94668 0.73149 0.14701 0.0
H181 H 0.05817 0.68954 0.45242 0.0
H182 H 0.05755 0.73593 0.37784 0.0
H183 H 0.99406 0.66332 0.26942 0.0
H184 H 0.99146 0.61748 0.34749 0.0
H185 H 0.9675 0.72464 0.26125 0.0
H186 H 0.08874 0.69046 0.23651 0.0
H187 H 0.1503 0.67346 0.26262 0.0
H188 H 0.17025 0.77971 0.33614 0.0
H189 H 0.10862 0.79722 0.31129 0.0
C190 C 1.00271 0.87546 0.10287 0.0
C191 C 1.01109 0.90621 0.1376 0.0
C192 C 1.00477 0.84015 0.1256 0.0
C193 C 0.01533 0.83502 0.18328 0.0
C194 C 0.02317 0.86559 0.21807 0.0
C195 C 0.02089 0.9007 0.19571 0.0
C196 C 0.01832 0.7981 0.20866 0.0
C197 C 0.05251 0.78796 0.22682 0.0
C198 C 0.98774 0.77392 0.21835 0.0
C199 C 0.95143 0.78176 0.19642 0.0
C200 C 0.93421 0.81416 0.21169 0.0
C201 C 0.90091 0.82198 0.18806 0.0
C202 C 0.88407 0.79717 0.15027 0.0
C203 C 0.9004 0.76438 0.13642 0.0
C204 C 0.934 0.7567 0.15918 0.0
C205 C 0.04368 0.6833 0.41308 0.0
C206 C 0.02423 0.6498 0.40679 0.0
C207 C 0.04405 0.70979 0.36954 0.0
C208 C 0.0264 0.70318 0.31698 0.0
C209 C 1.00803 0.66922 0.30937 0.0
C210 C 1.00689 0.64281 0.35386 0.0
C211 C 0.02532 0.73293 0.2726 0.0
C212 C 0.99155 0.74179 0.25056 0.0
C213 C 0.05662 0.75533 0.25734 0.0
C214 C 0.09392 0.7451 0.27217 0.0
C215 C 0.10617 0.71016 0.25853 0.0
C216 C 0.1411 0.70043 0.27309 0.0
C217 C 0.16416 0.72548 0.30106 0.0
C218 C 0.15236 0.76034 0.31443 0.0
C219 C 0.11745 0.77021 0.29999 0.0
H220 H 0.19118 0.71789 0.31233 0.0
H221 H 0.85835 0.80327 0.13173 0.0
H222 H 0.11745 0.95534 0.18878 0.0
H223 H 0.17761 0.95307 0.23099 0.0
H224 H 0.22353 0.02218 0.09216 0.0
H225 H 0.16311 0.02387 0.04931 0.0
H226 H 0.27186 0.97028 0.12438 0.0
H227 H 0.20036 0.06049 0.21638 0.0
H228 H 0.14625 0.0866 0.26507 0.0
H229 H 0.15291 1.01192 0.40813 0.0
H230 H 0.20674 0.98492 0.3598 0.0
H231 H 0.41305 0.03971 0.3265 0.0
H232 H 0.36732 0.0326 0.2509 0.0
H233 H 0.31252 0.94598 0.35118 0.0
H234 H 0.35809 0.95256 0.42579 0.0
H235 H 0.27219 1.01262 0.33054 0.0
H236 H 0.346 0.92274 0.23169 0.0
H237 H 0.4016 0.90144 0.18065 0.0
H238 H 0.39294 0.98308 0.0483 0.0
H239 H 0.33759 1.0053 0.09914 0.0
C240 C 0.14065 0.96926 0.16667 0.0
C241 C 0.13606 0.98968 0.11604 0.0
C242 C 0.17489 0.96814 0.19081 0.0
C243 C 0.20493 0.98795 0.16521 0.0
C244 C 0.20073 1.00675 0.11261 0.0
C245 C 0.16636 1.00774 0.08825 0.0
C246 C 0.23954 0.9914 0.19654 0.0
C247 C 0.27209 0.97996 0.16921 0.0
C248 C 0.23989 1.00436 0.25486 0.0
C249 C 0.20741 0.02043 0.28414 0.0
C250 C 0.1901 0.04939 0.25796 0.0
C251 C 0.1595 0.0644 0.28553 0.0
C252 C 0.14609 0.05086 0.33957 0.0
C253 C 0.1633 0.02233 0.3662 0.0
C254 C 0.19387 1.00718 0.33875 0.0
C255 C 0.39207 0.01822 0.33102 0.0
C256 C 0.38881 0.99688 0.38206 0.0
C257 C 0.36593 0.01428 0.28806 0.0
C258 C 0.33645 0.98896 0.29588 0.0
C259 C 0.33502 0.9657 0.34448 0.0
C260 C 0.36106 0.96947 0.38698 0.0
C261 C 0.30417 0.9902 0.25926 0.0
C262 C 0.27201 1.00301 0.28564 0.0
C263 C 0.30454 0.97924 0.19996 0.0
C264 C 0.33794 0.96602 0.1697 0.0
C265 C 0.3562 0.93648 0.19213 0.0
C266 C 0.38762 0.92415 0.16313 0.0
C267 C 0.40088 0.94099 0.11139 0.0
C268 C 0.3827 0.97013 0.08847 0.0
C269 C 0.3513 0.98259 0.11735 0.0
H270 H 0.42518 0.93138 0.08897 0.0
H271 H 0.12242 0.06255 0.36088 0.0
H272 H 0.97395 0.88098 0.8533 0.0
H273 H 0.97724 0.81853 0.81964 0.0
H274 H 0.08259 0.8106 0.89448 0.0
H275 H 0.0797 0.8741 0.92849 0.0
H276 H 0.08069 0.78619 0.77877 0.0
H277 H 1.01165 0.76288 0.95669 0.0
H278 H 0.9631 0.77433 0.03131 0.0
H279 H 0.88167 0.75205 0.90508 0.0
H280 H 0.92966 0.74091 0.82948 0.0
H281 H 0.06726 0.61213 0.64614 0.0
H282 H 0.07261 0.6529 0.73108 0.0
H283 H 0.96878 0.69719 0.69481 0.0
H284 H 0.96354 0.65667 0.61032 0.0
H285 H 0.97934 0.69435 0.81334 0.0
H286 H 0.04441 0.73522 0.63504 0.0
H287 H 0.08949 0.7291 0.55313 0.0
H288 H 0.1752 0.72271 0.67471 0.0
H289 H 0.13041 0.72817 0.75744 0.0
C290 C 0.99787 0.86612 0.86309 0.0
C291 C 0.02671 0.88278 0.89337 0.0
C292 C 0.99952 0.83015 0.84417 0.0
C293 C 0.02992 0.80968 0.85515 0.0
C294 C 0.05873 0.82588 0.88592 0.0
C295 C 0.05701 0.86209 0.9054 0.0
C296 C 0.03188 0.7723 0.83055 0.0
C297 C 0.05924 0.76557 0.78777 0.0
C298 C 1.00338 0.74573 0.84133 0.0
C299 C 0.97434 0.75111 0.88731 0.0
C300 C 0.9834 0.76048 0.94479 0.0
C301 C 0.95596 0.76694 0.98727 0.0
C302 C 0.91935 0.764 0.97288 0.0
C303 C 0.91006 0.75429 0.91615 0.0
C304 C 0.93737 0.7478 0.8735 0.0
C305 C 0.04505 0.62965 0.65782 0.0
C306 C 0.015 0.63141 0.62197 0.0
C307 C 0.0482 0.65305 0.706 0.0
C308 C 0.02128 0.67839 0.71885 0.0
C309 C 0.98983 0.67785 0.68587 0.0
C310 C 0.98685 0.65475 0.6376 0.0
C311 C 0.02762 0.70876 0.76072 0.0
C312 C 1.00166 0.71428 0.80626 0.0
C313 C 0.05709 0.73451 0.75198 0.0
C314 C 0.08405 0.73158 0.70238 0.0
C315 C 0.07283 0.73221 0.6443 0.0
C316 C 0.09832 0.7289 0.59773 0.0
C317 C 0.13518 0.7254 0.60872 0.0
C318 C 0.14662 0.72532 0.66629 0.0
C319 C 0.1212 0.72849 0.71303 0.0
H320 H 0.15489 0.72286 0.57262 0.0
H321 H 0.89813 0.76932 1.00559 0.0
H322 H 0.09786 0.04828 0.79662 0.0
H323 H 0.15786 0.05685 0.7471 0.0
H324 H 0.20504 0.99206 0.87991 0.0
H325 H 0.14548 0.98631 0.932 0.0
H326 H 0.25315 0.03821 0.84974 0.0
H327 H 0.17896 0.95869 0.73539 0.0
H328 H 0.12546 0.93793 0.68063 0.0
H329 H 0.14379 0.02739 0.56105 0.0
H330 H 0.19709 0.04901 0.61563 0.0
H331 H 0.40149 0.98793 0.64292 0.0
H332 H 0.35077 0.99035 0.71648 0.0
H333 H 0.30615 0.07858 0.62185 0.0
H334 H 0.35649 0.07622 0.54893 0.0
H335 H 0.25904 0.01762 0.63534 0.0
H336 H 0.33853 0.09269 0.75502 0.0
H337 H 0.39396 0.1055 0.81016 0.0
H338 H 0.36791 1.01253 0.91974 0.0
H339 H 0.31262 0.9988 0.86464 0.0
C340 C 0.12121 0.0363 0.81544 0.0
C341 C 0.11709 0.01642 0.86774 0.0
C342 C 0.1555 0.04084 0.78686 0.0
C343 C 0.1861 0.024 0.80832 0.0
C344 C 0.18208 1.00518 0.8619 0.0
C345 C 0.148 1.0018 0.89165 0.0
C346 C 0.2218 0.02513 0.7741 0.0
C347 C 0.25434 0.03325 0.80295 0.0
C348 C 0.2239 0.01857 0.71289 0.0
C349 C 0.19181 1.00566 0.67997 0.0
C350 C 0.17143 0.97408 0.69766 0.0
C351 C 0.14115 0.96215 0.66663 0.0
C352 C 0.13118 0.98139 0.61749 0.0
C353 C 0.15151 1.01256 0.59919 0.0
C354 C 0.18176 0.02465 0.63014 0.0
C355 C 0.3816 1.00874 0.63933 0.0
C356 C 0.38285 0.03194 0.59041 0.0
C357 C 0.35254 1.00999 0.68111 0.0
C358 C 0.32449 0.0345 0.67442 0.0
C359 C 0.32735 0.05938 0.62783 0.0
C360 C 0.35622 0.05816 0.58638 0.0
C361 C 0.28993 0.03147 0.71075 0.0
C362 C 0.25766 0.02263 0.68215 0.0
C363 C 0.28838 0.03615 0.77219 0.0
C364 C 0.32162 0.0445 0.80526 0.0
C365 C 0.3448 0.07476 0.79048 0.0
C366 C 0.37617 0.08223 0.82182 0.0
C367 C 0.38451 0.05978 0.8683 0.0
C368 C 0.36146 0.02986 0.88366 0.0
C369 C 0.33009 0.02224 0.85241 0.0
H370 H 0.40879 0.06563 0.89252 0.0
H371 H 0.10774 0.9721 0.59352 0.0
H372 H 0.05115 0.13792 0.93876 0.0
H373 H 0.05825 0.19858 0.89377 0.0
H374 H 0.99358 0.161 0.7504 0.0
H375 H 0.9879 0.10065 0.79321 0.0
H376 H 0.04641 0.20028 0.70813 0.0
H377 H 0.96028 0.21361 0.87317 0.0
H378 H 0.94228 0.21018 0.97819 0.0
H379 H 0.0288 0.28731 0.01745 0.0
H380 H 0.04765 0.29082 0.91264 0.0
H381 H 0.96124 0.34504 0.58993 0.0
H382 H 0.96831 0.2966 0.66104 0.0
H383 H 0.06265 0.35423 0.72692 0.0
H384 H 0.05608 0.4029 0.6547 0.0
H385 H 1.00716 0.31065 0.81517 0.0
H386 H 0.08727 0.30017 0.64161 0.0
H387 H 0.09922 0.30274 0.53477 0.0
H388 H 0.01709 0.21814 0.51084 0.0
H389 H 1.00415 0.21557 0.61752 0.0
C390 C 0.03876 0.14262 0.89738 0.0
C391 C 0.01904 0.11436 0.86957 0.0
C392 C 0.04264 0.17737 0.87187 0.0
C393 C 0.02611 0.18464 0.81886 0.0
C394 C 1.00681 0.15623 0.79104 0.0
C395 C 1.00352 0.12158 0.81578 0.0
C396 C 0.028 0.22157 0.7917 0.0
C397 C 0.03788 0.22431 0.73184 0.0
C398 C 0.01764 0.25336 0.82255 0.0
C399 C 1.00561 0.25218 0.8852 0.0
C400 C 0.97554 0.22975 0.90424 0.0
C401 C 0.9652 0.22777 0.96369 0.0
C402 C 0.98447 0.24842 1.00445 0.0
C403 C 0.01397 0.27127 0.9858 0.0
C404 C 0.02448 0.27328 0.92639 0.0
C405 C 0.98311 0.34779 0.62024 0.0
C406 C 1.00849 0.37745 0.61608 0.0
C407 C 0.98696 0.32022 0.66109 0.0
C408 C 0.01614 0.32176 0.69882 0.0
C409 C 0.03986 0.3527 0.69827 0.0
C410 C 0.03607 0.38043 0.65703 0.0
C411 C 0.0244 0.28858 0.73179 0.0
C412 C 0.01648 0.28665 0.79226 0.0
C413 C 0.03599 0.25722 0.70152 0.0
C414 C 0.0446 0.25786 0.63752 0.0
C415 C 0.07161 0.28227 0.61354 0.0
C416 C 0.07856 0.28373 0.55301 0.0
C417 C 0.05888 0.26066 0.51602 0.0
C418 C 0.0323 0.236 0.53954 0.0
C419 C 0.02518 0.23451 0.60003 0.0
H420 H 0.06426 0.26186 0.46917 0.0
H421 H 0.97649 0.24675 0.05042 0.0
H422 H 0.88107 0.08393 0.93457 0.0
H423 H 0.82081 0.09314 0.89513 0.0
H424 H 0.82395 0.98808 0.8109 0.0
H425 H 0.88344 0.97867 0.84943 0.0
H426 H 0.80891 0.04112 0.73504 0.0
H427 H 0.76916 1.00044 0.92874 0.0
H428 H 0.76703 1.00334 0.03655 0.0
H429 H 0.72391 0.11021 0.0306 0.0
H430 H 0.72621 0.10809 0.92259 0.0
H431 H 0.64087 0.98332 0.64885 0.0
H432 H 0.68535 0.98964 0.72543 0.0
H433 H 0.6751 0.10617 0.72445 0.0
H434 H 0.63037 0.09982 0.64727 0.0
H435 H 0.69205 0.05879 0.84637 0.0
H436 H 0.73475 0.09773 0.64751 0.0
H437 H 0.73396 0.08915 0.54046 0.0
H438 H 0.77053 0.98031 0.55897 0.0
H439 H 0.771 0.98812 0.66625 0.0
C440 C 0.86868 0.06264 0.90823 0.0
C441 C 0.8874 0.03079 0.89454 0.0
C442 C 0.83427 0.06794 0.88578 0.0
C443 C 0.81809 0.04139 0.84968 0.0
C444 C 0.83611 1.0091 0.83808 0.0
C445 C 0.87024 1.0038 0.86027 0.0
C446 C 0.78335 0.04738 0.82088 0.0
C447 C 0.7835 0.04524 0.75958 0.0
C448 C 0.75019 0.05319 0.8527 0.0
C449 C 0.74828 0.0543 0.91758 0.0
C450 C 0.7595 0.02468 0.9504 0.0
C451 C 0.75821 0.02615 0.01155 0.0
C452 C 0.7455 0.05701 0.04043 0.0
C453 C 0.73384 0.08636 0.00817 0.0
C454 C 0.73509 0.08502 0.94699 0.0
C455 C 0.64691 1.01008 0.66694 0.0
C456 C 0.6323 0.04109 0.64278 0.0
C457 C 0.67218 1.01367 0.71069 0.0
C458 C 0.68336 0.04834 0.73056 0.0
C459 C 0.66636 0.07919 0.7102 0.0
C460 C 0.64097 0.07558 0.66616 0.0
C461 C 0.71801 0.05218 0.76112 0.0
C462 C 0.71779 0.05584 0.82222 0.0
C463 C 0.75132 0.04761 0.72942 0.0
C464 C 0.75272 0.04345 0.66481 0.0
C465 C 0.74252 0.07194 0.62871 0.0
C466 C 0.74214 0.06723 0.56803 0.0
C467 C 0.75216 0.03419 0.54294 0.0
C468 C 0.76278 1.00588 0.57847 0.0
C469 C 0.76317 1.01046 0.63919 0.0
H470 H 0.75172 0.03055 0.49598 0.0
H471 H 0.74459 0.05812 0.08778 0.0
loop_
_geom_bond_atom_site_label_1
_geom_bond_atom_site_label_2
_geom_bond_distance
_geom_bond_site_symmetry_2
_ccdc_geom_bond_type
Fe0 O1 1.886 . S
Fe0 O4 1.715 1_645 S
Fe0 O9 2.077 1_655 S
Fe0 O14 1.935 1_655 S
Fe0 O20 2.077 1_545 S
Fe0 O29 1.935 1_545 S
O1 Fe0 1.886 . S
O1 Fe3 1.714 1_554 S
Fe2 O4 1.890 . S
Fe2 O5 1.710 1_554 S
Fe2 O12 1.932 1_554 S
Fe2 O13 2.081 . S
Fe2 O19 1.932 1_554 S
Fe2 O28 2.081 . S
Fe3 O1 1.714 1_556 S
Fe3 O6 1.887 . S
Fe3 O10 1.934 1_556 S
Fe3 O15 2.078 . S
Fe3 O21 1.934 1_556 S
Fe3 O25 2.078 . S
O4 Fe0 1.715 1_465 S
O4 Fe2 1.890 . S
O5 Fe2 1.710 1_556 S
O5 Fe7 1.886 . S
O6 Fe3 1.887 . S
O6 Fe7 1.715 1_645 S
Fe7 O5 1.886 . S
Fe7 O6 1.715 1_465 S
Fe7 O11 2.077 1_565 S
Fe7 O16 1.935 1_565 S
Fe7 O18 2.077 1_455 S
Fe7 O26 1.935 1_455 S
C8 O20 1.375 1_545 S
C8 O21 1.421 . S
O9 Fe0 2.077 1_455 S
O9 C22 1.373 1_455 S
O10 Fe3 1.934 1_554 S
O10 C22 1.421 . S
O11 Fe7 2.077 1_545 S
O11 C27 1.373 1_545 S
O12 Fe2 1.932 1_556 S
O12 C27 1.421 . S
O13 Fe2 2.081 . S
O13 C17 1.381 . S
O14 Fe0 1.935 1_455 S
O14 C17 1.421 1_545 S
O15 Fe3 2.078 . S
O15 C23 1.381 . S
O16 Fe7 1.935 1_545 S
O16 C23 1.421 1_455 S
C17 O13 1.381 . S
C17 O14 1.421 1_565 S
O18 Fe7 2.077 1_655 S
O18 C30 1.375 1_655 S
O19 Fe2 1.932 1_556 S
O19 C30 1.421 . S
O20 Fe0 2.077 1_565 S
O20 C8 1.375 1_565 S
O21 Fe3 1.934 1_554 S
O21 C8 1.421 . S
C22 O9 1.373 1_655 S
C22 O10 1.421 . S
C23 O15 1.381 . S
C23 O16 1.421 1_655 S
C24 O25 1.381 . S
C24 O26 1.421 1_545 S
O25 Fe3 2.078 . S
O25 C24 1.381 . S
O26 Fe7 1.935 1_655 S
O26 C24 1.421 1_565 S
C27 O11 1.373 1_565 S
C27 O12 1.421 . S
O28 Fe2 2.081 . S
O28 C31 1.381 . S
O29 Fe0 1.935 1_565 S
O29 C31 1.421 1_655 S
C30 O18 1.375 1_455 S
C30 O19 1.421 . S
C31 O28 1.381 . S
C31 O29 1.421 1_455 S
H32 C40 0.940 . S
H33 C43 0.940 . S
H34 C45 0.940 . S
H35 C46 0.940 . S
H36 C49 0.940 . S
H37 C51 0.940 . S
N38 N39 1.190 . S
N38 C42 1.477 . S
N39 N38 1.190 . S
N39 C48 1.477 . S
C40 H32 0.940 . S
C40 C41 1.390 1_455 S
C40 C42 1.322 . S
C41 C40 1.390 1_655 S
C41 C45 1.370 . S
C42 N38 1.477 . S
C42 C40 1.322 . S
C42 C43 1.447 . S
C43 H33 0.940 . S
C43 C42 1.447 . S
C43 C44 1.373 . S
C44 C43 1.373 . S
C44 C45 1.417 1_455 S
C45 H34 0.940 . S
C45 C41 1.370 . S
C45 C44 1.417 1_655 S
C46 H35 0.940 . S
C46 C47 1.390 1_455 S
C46 C48 1.322 . S
C47 C46 1.390 1_655 S
C47 C51 1.370 . S
C48 N39 1.477 . S
C48 C46 1.322 . S
C48 C49 1.447 . S
C49 H36 0.940 . S
C49 C48 1.447 . S
C49 C50 1.373 . S
C50 C49 1.373 . S
C50 C51 1.417 1_455 S
C51 H37 0.940 . S
C51 C47 1.370 . S
C51 C50 1.417 1_655 S
H52 C60 0.940 . S
H53 C63 0.940 . S
H54 C65 0.940 . S
H55 C66 0.940 . S
H56 C69 0.940 . S
H57 C71 0.940 . S
N58 N59 1.190 . S
N58 C62 1.477 . S
N59 N58 1.190 . S
N59 C68 1.477 . S
C60 H52 0.940 . S
C60 C61 1.390 1_545 S
C60 C62 1.322 . S
C61 C60 1.390 1_565 S
C61 C65 1.370 . S
C62 N58 1.477 . S
C62 C60 1.322 . S
C62 C63 1.447 . S
C63 H53 0.940 . S
C63 C62 1.447 . S
C63 C64 1.373 . S
C64 C63 1.373 . S
C64 C65 1.417 1_545 S
C65 H54 0.940 . S
C65 C61 1.370 . S
C65 C64 1.417 1_565 S
C66 H55 0.940 . S
C66 C67 1.390 1_545 S
C66 C68 1.322 . S
C67 C66 1.390 1_565 S
C67 C71 1.370 . S
C68 N59 1.477 . S
C68 C66 1.322 . S
C68 C69 1.447 . S
C69 H56 0.940 . S
C69 C68 1.447 . S
C69 C70 1.373 . S
C70 C69 1.373 . S
C70 C71 1.417 1_545 S
C71 H57 0.940 . S
C71 C67 1.370 . S
C71 C70 1.417 1_565 S
H72 C90 0.951 . S
H73 C92 0.951 . S
H74 C94 0.950 . S
H75 C95 0.950 . S
H76 C97 0.950 . S
H77 C100 0.950 . S
H78 C101 0.950 . S
H79 C103 0.950 . S
H80 C104 0.950 . S
H81 C105 0.951 . S
H82 C107 0.951 . S
H83 C109 0.950 . S
H84 C110 0.950 . S
H85 C112 0.950 . S
H86 C115 0.950 . S
H87 C116 0.950 . S
H88 C118 0.950 . S
H89 C119 0.950 . S
C90 H72 0.951 . S
C90 C91 1.342 1_455 S
C90 C92 1.388 . S
C91 C90 1.342 1_655 S
C91 C95 1.409 . S
C92 H73 0.951 . S
C92 C90 1.388 . S
C92 C93 1.343 1_455 S
C93 C92 1.343 1_655 S
C93 C94 1.437 . S
C93 C96 1.500 . S
C94 H74 0.950 . S
C94 C93 1.437 . S
C94 C95 1.374 . S
C95 H75 0.950 . S
C95 C91 1.409 . S
C95 C94 1.374 . S
C96 C93 1.500 . S
C96 C97 1.373 . S
C96 C98 1.389 1_655 S
C97 H76 0.950 . S
C97 C96 1.373 . S
C97 C113 1.377 . S
C98 C96 1.389 1_455 S
C98 C99 1.524 . S
C98 C112 1.377 . S
C99 C98 1.524 . S
C99 C100 1.397 . S
C99 C104 1.363 . S
C100 H77 0.950 . S
C100 C99 1.397 . S
C100 C101 1.334 . S
C101 H78 0.950 . S
C101 C100 1.334 . S
C101 C102 1.287 . S
C102 C101 1.287 . S
C102 C103 1.524 . S
C102 H121 0.913 . S
C103 H79 0.950 . S
C103 C102 1.524 . S
C103 C104 1.415 . S
C104 H80 0.950 . S
C104 C99 1.363 . S
C104 C103 1.415 . S
C105 H81 0.951 . S
C105 C106 1.366 . S
C105 C107 1.388 . S
C106 C105 1.366 . S
C106 C110 1.385 1_655 S
C107 H82 0.951 . S
C107 C105 1.388 . S
C107 C108 1.366 . S
C108 C107 1.366 . S
C108 C109 1.414 1_655 S
C108 C111 1.499 . S
C109 H83 0.950 . S
C109 C108 1.414 1_455 S
C109 C110 1.374 . S
C110 H84 0.950 . S
C110 C106 1.385 1_455 S
C110 C109 1.374 . S
C111 C108 1.499 . S
C111 C112 1.373 1_655 S
C111 C113 1.389 . S
C112 H85 0.950 . S
C112 C98 1.377 . S
C112 C111 1.373 1_455 S
C113 C97 1.377 . S
C113 C111 1.389 . S
C113 C114 1.524 . S
C114 C113 1.524 . S
C114 C115 1.397 . S
C114 C119 1.363 . S
C115 H86 0.950 . S
C115 C114 1.397 . S
C115 C116 1.334 . S
C116 H87 0.950 . S
C116 C115 1.334 . S
C116 C117 1.287 . S
C117 C116 1.287 . S
C117 C118 1.524 . S
C117 H120 0.999 . S
C118 H88 0.950 . S
C118 C117 1.524 . S
C118 C119 1.415 . S
C119 H89 0.950 . S
C119 C114 1.363 . S
C119 C118 1.415 . S
H120 C117 0.999 . S
H121 C102 0.913 . S
H122 C140 0.951 . S
H123 C142 0.951 . S
H124 C144 0.950 . S
H125 C145 0.950 . S
H126 C147 0.950 . S
H127 C150 0.950 . S
H128 C151 0.950 . S
H129 C153 0.950 . S
H130 C154 0.950 . S
H131 C155 0.951 . S
H132 C157 0.951 . S
H133 C159 0.950 . S
H134 C160 0.950 . S
H135 C162 0.950 . S
H136 C165 0.950 . S
H137 C166 0.950 . S
H138 C168 0.950 . S
H139 C169 0.950 . S
C140 H122 0.951 . S
C140 C141 1.362 1_565 S
C140 C142 1.388 . S
C141 C140 1.362 1_545 S
C141 C145 1.388 . S
C142 H123 0.951 . S
C142 C140 1.388 . S
C142 C143 1.366 . S
C143 C142 1.366 . S
C143 C144 1.414 1_565 S
C143 C146 1.499 . S
C144 H124 0.950 . S
C144 C143 1.414 1_545 S
C144 C145 1.374 . S
C145 H125 0.950 . S
C145 C141 1.388 . S
C145 C144 1.374 . S
C146 C143 1.499 . S
C146 C147 1.373 1_565 S
C146 C148 1.389 . S
C147 H126 0.950 . S
C147 C146 1.373 1_545 S
C147 C163 1.377 . S
C148 C146 1.389 . S
C148 C149 1.524 . S
C148 C162 1.377 . S
C149 C148 1.524 . S
C149 C150 1.397 . S
C149 C154 1.363 . S
C150 H127 0.950 . S
C150 C149 1.397 . S
C150 C151 1.334 . S
C151 H128 0.950 . S
C151 C150 1.334 . S
C151 C152 1.287 . S
C152 C151 1.287 . S
C152 C153 1.524 . S
C152 H171 0.913 . S
C153 H129 0.950 . S
C153 C152 1.524 . S
C153 C154 1.415 . S
C154 H130 0.950 . S
C154 C149 1.363 . S
C154 C153 1.415 . S
C155 H131 0.951 . S
C155 C156 1.366 1_545 S
C155 C157 1.388 . S
C156 C155 1.366 1_565 S
C156 C160 1.385 . S
C157 H132 0.951 . S
C157 C155 1.388 . S
C157 C158 1.362 1_545 S
C158 C157 1.362 1_565 S
C158 C159 1.419 . S
C158 C161 1.499 . S
C159 H133 0.950 . S
C159 C158 1.419 . S
C159 C160 1.374 . S
C160 H134 0.950 . S
C160 C156 1.385 . S
C160 C159 1.374 . S
C161 C158 1.499 . S
C161 C162 1.377 . S
C161 C163 1.386 1_565 S
C162 H135 0.950 . S
C162 C148 1.377 . S
C162 C161 1.377 . S
C163 C147 1.377 . S
C163 C161 1.386 1_545 S
C163 C164 1.524 . S
C164 C163 1.524 . S
C164 C165 1.397 . S
C164 C169 1.363 . S
C165 H136 0.950 . S
C165 C164 1.397 . S
C165 C166 1.334 . S
C166 H137 0.950 . S
C166 C165 1.334 . S
C166 C167 1.287 . S
C167 C166 1.287 . S
C167 C168 1.524 . S
C167 H170 0.999 . S
C168 H138 0.950 . S
C168 C167 1.524 . S
C168 C169 1.415 . S
C169 H139 0.950 . S
C169 C164 1.363 . S
C169 C168 1.415 . S
H170 C167 0.999 . S
H171 C152 0.913 . S
H172 C190 0.951 1_455 S
H173 C192 0.951 . S
H174 C194 0.950 1_455 S
H175 C195 0.950 . S
H176 C197 0.950 . S
H177 C200 0.950 . S
H178 C201 0.950 . S
H179 C203 0.950 . S
H180 C204 0.950 . S
H181 C205 0.951 . S
H182 C207 0.951 . S
H183 C209 0.950 . S
H184 C210 0.950 . S
H185 C212 0.950 . S
H186 C215 0.950 . S
H187 C216 0.950 . S
H188 C218 0.950 . S
H189 C219 0.950 . S
C190 H172 0.951 1_655 S
C190 C191 1.366 . S
C190 C192 1.388 . S
C191 C190 1.366 . S
C191 C195 1.385 . S
C192 H173 0.951 . S
C192 C190 1.388 . S
C192 C193 1.366 . S
C193 C192 1.366 . S
C193 C194 1.414 . S
C193 C196 1.500 . S
C194 H174 0.950 1_655 S
C194 C193 1.414 . S
C194 C195 1.374 . S
C195 H175 0.950 . S
C195 C191 1.385 . S
C195 C194 1.374 . S
C196 C193 1.500 . S
C196 C197 1.356 1_655 S
C196 C198 1.404 . S
C197 H176 0.950 . S
C197 C196 1.356 1_455 S
C197 C213 1.377 . S
C198 C196 1.404 . S
C198 C199 1.524 . S
C198 C212 1.377 . S
C199 C198 1.524 . S
C199 C200 1.397 . S
C199 C204 1.363 . S
C200 H177 0.950 . S
C200 C199 1.397 . S
C200 C201 1.334 . S
C201 H178 0.950 . S
C201 C200 1.334 . S
C201 C202 1.287 . S
C202 C201 1.287 . S
C202 C203 1.524 . S
C202 H221 0.913 . S
C203 H179 0.950 . S
C203 C202 1.524 . S
C203 C204 1.415 . S
C204 H180 0.950 . S
C204 C199 1.363 . S
C204 C203 1.415 . S
C205 H181 0.951 . S
C205 C206 1.366 . S
C205 C207 1.388 . S
C206 C205 1.366 . S
C206 C210 1.385 . S
C207 H182 0.951 . S
C207 C205 1.388 . S
C207 C208 1.366 . S
C208 C207 1.366 . S
C208 C209 1.414 . S
C208 C211 1.499 . S
C209 H183 0.950 . S
C209 C208 1.414 . S
C209 C210 1.374 . S
C210 H184 0.950 . S
C210 C206 1.385 . S
C210 C209 1.374 . S
C211 C208 1.499 . S
C211 C212 1.373 1_455 S
C211 C213 1.389 . S
C212 H185 0.950 . S
C212 C198 1.377 . S
C212 C211 1.373 1_655 S
C213 C197 1.377 . S
C213 C211 1.389 . S
C213 C214 1.524 . S
C214 C213 1.524 . S
C214 C215 1.397 . S
C214 C219 1.363 . S
C215 H186 0.950 . S
C215 C214 1.397 . S
C215 C216 1.334 . S
C216 H187 0.950 . S
C216 C215 1.334 . S
C216 C217 1.287 . S
C217 C216 1.287 . S
C217 C218 1.524 . S
C217 H220 0.999 . S
C218 H188 0.950 . S
C218 C217 1.524 . S
C218 C219 1.415 . S
C219 H189 0.950 . S
C219 C214 1.363 . S
C219 C218 1.415 . S
H220 C217 0.999 . S
H221 C202 0.913 . S
H222 C240 0.951 . S
H223 C242 0.951 . S
H224 C244 0.950 . S
H225 C245 0.950 . S
H226 C247 0.950 . S
H227 C250 0.950 . S
H228 C251 0.950 . S
H229 C253 0.950 . S
H230 C254 0.950 . S
H231 C255 0.951 . S
H232 C257 0.951 . S
H233 C259 0.950 . S
H234 C260 0.950 . S
H235 C262 0.950 . S
H236 C265 0.950 . S
H237 C266 0.950 . S
H238 C268 0.950 . S
H239 C269 0.950 . S
C240 H222 0.951 . S
C240 C241 1.358 1_565 S
C240 C242 1.388 . S
C241 C240 1.358 1_545 S
C241 C245 1.393 . S
C242 H223 0.951 . S
C242 C240 1.388 . S
C242 C243 1.366 1_565 S
C243 C242 1.366 1_545 S
C243 C244 1.414 . S
C243 C246 1.499 . S
C244 H224 0.950 . S
C244 C243 1.414 . S
C244 C245 1.374 . S
C245 H225 0.950 . S
C245 C241 1.393 . S
C245 C244 1.374 . S
C246 C243 1.499 . S
C246 C247 1.373 1_545 S
C246 C248 1.389 . S
C247 H226 0.950 . S
C247 C246 1.373 1_565 S
C247 C263 1.377 . S
C248 C246 1.389 . S
C248 C249 1.524 . S
C248 C262 1.377 . S
C249 C248 1.524 . S
C249 C250 1.397 . S
C249 C254 1.363 . S
C250 H227 0.950 . S
C250 C249 1.397 . S
C250 C251 1.334 . S
C251 H228 0.950 . S
C251 C250 1.334 . S
C251 C252 1.287 . S
C252 C251 1.287 . S
C252 C253 1.524 . S
C252 H271 0.913 . S
C253 H229 0.950 . S
C253 C252 1.524 . S
C253 C254 1.415 . S
C254 H230 0.950 . S
C254 C249 1.363 . S
C254 C253 1.415 . S
C255 H231 0.951 . S
C255 C256 1.366 . S
C255 C257 1.388 . S
C256 C255 1.366 . S
C256 C260 1.385 1_545 S
C257 H232 0.951 . S
C257 C255 1.388 . S
C257 C258 1.366 . S
C258 C257 1.366 . S
C258 C259 1.414 1_545 S
C258 C261 1.499 . S
C259 H233 0.950 . S
C259 C258 1.414 1_565 S
C259 C260 1.374 . S
C260 H234 0.950 . S
C260 C256 1.385 1_565 S
C260 C259 1.374 . S
C261 C258 1.499 . S
C261 C262 1.377 . S
C261 C263 1.386 1_545 S
C262 H235 0.950 . S
C262 C248 1.377 . S
C262 C261 1.377 . S
C263 C247 1.377 . S
C263 C261 1.386 1_565 S
C263 C264 1.524 . S
C264 C263 1.524 . S
C264 C265 1.397 . S
C264 C269 1.363 . S
C265 H236 0.950 . S
C265 C264 1.397 . S
C265 C266 1.334 . S
C266 H237 0.950 . S
C266 C265 1.334 . S
C266 C267 1.287 . S
C267 C266 1.287 . S
C267 C268 1.524 . S
C267 H270 0.999 . S
C268 H238 0.950 . S
C268 C267 1.524 . S
C268 C269 1.415 . S
C269 H239 0.950 . S
C269 C264 1.363 . S
C269 C268 1.415 . S
H270 C267 0.999 . S
H271 C252 0.913 . S
H272 C290 0.951 . S
H273 C292 0.951 . S
H274 C294 0.950 . S
H275 C295 0.950 . S
H276 C297 0.950 . S
H277 C300 0.950 . S
H278 C301 0.950 . S
H279 C303 0.950 . S
H280 C304 0.950 . S
H281 C305 0.951 . S
H282 C307 0.951 . S
H283 C309 0.950 . S
H284 C310 0.950 . S
H285 C312 0.950 . S
H286 C315 0.950 . S
H287 C316 0.950 . S
H288 C318 0.950 . S
H289 C319 0.950 . S
C290 H272 0.951 . S
C290 C291 1.354 1_655 S
C290 C292 1.388 . S
C291 C290 1.354 1_455 S
C291 C295 1.397 . S
C292 H273 0.951 . S
C292 C290 1.388 . S
C292 C293 1.366 . S
C293 C292 1.366 . S
C293 C294 1.414 1_655 S
C293 C296 1.499 . S
C294 H274 0.950 . S
C294 C293 1.414 1_455 S
C294 C295 1.374 . S
C295 H275 0.950 . S
C295 C291 1.397 . S
C295 C294 1.374 . S
C296 C293 1.499 . S
C296 C297 1.373 1_655 S
C296 C298 1.389 . S
C297 H276 0.950 . S
C297 C296 1.373 1_455 S
C297 C313 1.377 . S
C298 C296 1.389 . S
C298 C299 1.524 . S
C298 C312 1.377 . S
C299 C298 1.524 . S
C299 C300 1.397 . S
C299 C304 1.363 . S
C300 H277 0.950 . S
C300 C299 1.397 . S
C300 C301 1.334 . S
C301 H278 0.950 . S
C301 C300 1.334 . S
C301 C302 1.287 . S
C302 C301 1.287 . S
C302 C303 1.524 . S
C302 H321 0.913 . S
C303 H279 0.950 . S
C303 C302 1.524 . S
C303 C304 1.415 . S
C304 H280 0.950 . S
C304 C299 1.363 . S
C304 C303 1.415 . S
C305 H281 0.951 . S
C305 C306 1.366 1_455 S
C305 C307 1.388 . S
C306 C305 1.366 1_655 S
C306 C310 1.385 . S
C307 H282 0.951 . S
C307 C305 1.388 . S
C307 C308 1.366 1_455 S
C308 C307 1.366 1_655 S
C308 C309 1.414 . S
C308 C311 1.499 . S
C309 H283 0.950 . S
C309 C308 1.414 . S
C309 C310 1.374 . S
C310 H284 0.950 . S
C310 C306 1.385 . S
C310 C309 1.374 . S
C311 C308 1.499 . S
C311 C312 1.373 . S
C311 C313 1.389 1_655 S
C312 H285 0.950 . S
C312 C298 1.377 . S
C312 C311 1.373 . S
C313 C297 1.377 . S
C313 C311 1.389 1_455 S
C313 C314 1.524 . S
C314 C313 1.524 . S
C314 C315 1.397 . S
C314 C319 1.363 . S
C315 H286 0.950 . S
C315 C314 1.397 . S
C315 C316 1.334 . S
C316 H287 0.950 . S
C316 C315 1.334 . S
C316 C317 1.287 . S
C317 C316 1.287 . S
C317 C318 1.524 . S
C317 H320 0.999 . S
C318 H288 0.950 . S
C318 C317 1.524 . S
C318 C319 1.415 . S
C319 H289 0.950 . S
C319 C314 1.363 . S
C319 C318 1.415 . S
H320 C317 0.999 . S
H321 C302 0.913 . S
H322 C340 0.951 . S
H323 C342 0.951 . S
H324 C344 0.950 . S
H325 C345 0.950 . S
H326 C347 0.950 . S
H327 C350 0.950 . S
H328 C351 0.950 1_565 S
H329 C353 0.950 . S
H330 C354 0.950 . S
H331 C355 0.951 . S
H332 C357 0.951 . S
H333 C359 0.950 . S
H334 C360 0.950 . S
H335 C362 0.950 . S
H336 C365 0.950 1_545 S
H337 C366 0.950 1_545 S
H338 C368 0.950 . S
H339 C369 0.950 . S
C340 H322 0.951 . S
C340 C341 1.342 1_545 S
C340 C342 1.388 . S
C341 C340 1.342 1_565 S
C341 C345 1.409 . S
C342 H323 0.951 . S
C342 C340 1.388 . S
C342 C343 1.366 1_545 S
C343 C342 1.366 1_565 S
C343 C344 1.414 . S
C343 C346 1.499 . S
C344 H324 0.950 . S
C344 C343 1.414 . S
C344 C345 1.374 . S
C345 H325 0.950 . S
C345 C341 1.409 . S
C345 C344 1.374 . S
C346 C343 1.499 . S
C346 C347 1.373 . S
C346 C348 1.389 1_565 S
C347 H326 0.950 . S
C347 C346 1.373 . S
C347 C363 1.377 . S
C348 C346 1.389 1_545 S
C348 C349 1.524 . S
C348 C362 1.377 . S
C349 C348 1.524 . S
C349 C350 1.397 1_545 S
C349 C354 1.363 . S
C350 H327 0.950 . S
C350 C349 1.397 1_565 S
C350 C351 1.334 1_565 S
C351 H328 0.950 1_545 S
C351 C350 1.334 1_545 S
C351 C352 1.287 . S
C352 C351 1.287 . S
C352 C353 1.524 . S
C352 H371 0.913 . S
C353 H329 0.950 . S
C353 C352 1.524 . S
C353 C354 1.415 . S
C354 H330 0.950 . S
C354 C349 1.363 . S
C354 C353 1.415 . S
C355 H331 0.951 . S
C355 C356 1.366 . S
C355 C357 1.388 . S
C356 C355 1.366 . S
C356 C360 1.385 1_565 S
C357 H332 0.951 . S
C357 C355 1.388 . S
C357 C358 1.366 . S
C358 C357 1.366 . S
C358 C359 1.414 1_565 S
C358 C361 1.500 . S
C359 H333 0.950 . S
C359 C358 1.414 1_545 S
C359 C360 1.374 . S
C360 H334 0.950 . S
C360 C356 1.385 1_545 S
C360 C359 1.374 . S
C361 C358 1.500 . S
C361 C362 1.363 1_565 S
C361 C363 1.401 . S
C362 H335 0.950 . S
C362 C348 1.377 . S
C362 C361 1.363 1_545 S
C363 C347 1.377 . S
C363 C361 1.401 . S
C363 C364 1.524 . S
C364 C363 1.524 . S
C364 C365 1.397 . S
C364 C369 1.363 . S
C365 H336 0.950 1_565 S
C365 C364 1.397 . S
C365 C366 1.334 . S
C366 H337 0.950 1_565 S
C366 C365 1.334 . S
C366 C367 1.287 . S
C367 C366 1.287 . S
C367 C368 1.524 . S
C367 H370 0.999 . S
C368 H338 0.950 . S
C368 C367 1.524 . S
C368 C369 1.415 . S
C369 H339 0.950 . S
C369 C364 1.363 . S
C369 C368 1.415 . S
H370 C367 0.999 . S
H371 C352 0.913 . S
H372 C390 0.951 . S
H373 C392 0.951 . S
H374 C394 0.950 . S
H375 C395 0.950 . S
H376 C397 0.950 . S
H377 C400 0.950 . S
H378 C401 0.950 . S
H379 C403 0.950 . S
H380 C404 0.950 1_455 S
H381 C405 0.951 . S
H382 C407 0.951 . S
H383 C409 0.950 . S
H384 C410 0.950 . S
H385 C412 0.950 . S
H386 C415 0.950 . S
H387 C416 0.950 . S
H388 C418 0.950 . S
H389 C419 0.950 1_655 S
C390 H372 0.951 . S
C390 C391 1.380 . S
C390 C392 1.388 . S
C391 C390 1.380 . S
C391 C395 1.370 1_455 S
C392 H373 0.951 . S
C392 C390 1.388 . S
C392 C393 1.366 1_455 S
C393 C392 1.366 1_655 S
C393 C394 1.413 . S
C393 C396 1.498 . S
C394 H374 0.950 . S
C394 C393 1.413 . S
C394 C395 1.374 . S
C395 H375 0.950 . S
C395 C391 1.370 1_655 S
C395 C394 1.374 . S
C396 C393 1.498 . S
C396 C397 1.370 1_655 S
C396 C398 1.392 . S
C397 H376 0.950 . S
C397 C396 1.370 1_455 S
C397 C413 1.377 . S
C398 C396 1.392 . S
C398 C399 1.524 . S
C398 C412 1.377 . S
C399 C398 1.524 . S
C399 C400 1.397 . S
C399 C404 1.363 . S
C400 H377 0.950 . S
C400 C399 1.397 . S
C400 C401 1.334 . S
C401 H378 0.950 . S
C401 C400 1.334 . S
C401 C402 1.287 . S
C402 C401 1.287 . S
C402 C403 1.524 . S
C402 H421 0.913 . S
C403 H379 0.950 . S
C403 C402 1.524 . S
C403 C404 1.415 . S
C404 H380 0.950 1_655 S
C404 C399 1.363 . S
C404 C403 1.415 . S
C405 H381 0.951 . S
C405 C406 1.366 1_655 S
C405 C407 1.388 . S
C406 C405 1.366 1_455 S
C406 C410 1.385 . S
C407 H382 0.951 . S
C407 C405 1.388 . S
C407 C408 1.366 1_655 S
C408 C407 1.366 1_455 S
C408 C409 1.414 . S
C408 C411 1.499 . S
C409 H383 0.950 . S
C409 C408 1.414 . S
C409 C410 1.374 . S
C410 H384 0.950 . S
C410 C406 1.385 . S
C410 C409 1.374 . S
C411 C408 1.499 . S
C411 C412 1.373 1_455 S
C411 C413 1.389 . S
C412 H385 0.950 . S
C412 C398 1.377 . S
C412 C411 1.373 1_655 S
C413 C397 1.377 . S
C413 C411 1.389 . S
C413 C414 1.524 . S
C414 C413 1.524 . S
C414 C415 1.397 . S
C414 C419 1.363 . S
C415 H386 0.950 . S
C415 C414 1.397 . S
C415 C416 1.334 . S
C416 H387 0.950 . S
C416 C415 1.334 . S
C416 C417 1.287 . S
C417 C416 1.287 . S
C417 C418 1.524 . S
C417 H420 0.999 . S
C418 H388 0.950 . S
C418 C417 1.524 . S
C418 C419 1.415 . S
C419 H389 0.950 1_455 S
C419 C414 1.363 . S
C419 C418 1.415 . S
H420 C417 0.999 . S
H421 C402 0.913 . S
H422 C440 0.951 . S
H423 C442 0.951 . S
H424 C444 0.950 . S
H425 C445 0.950 . S
H426 C447 0.952 . S
H427 C450 0.950 . S
H428 C451 0.950 . S
H429 C453 0.950 . S
H430 C454 0.950 . S
H431 C455 0.951 . S
H432 C457 0.951 . S
H433 C459 0.950 . S
H434 C460 0.950 . S
H435 C462 0.950 . S
H436 C465 0.950 . S
H437 C466 0.950 . S
H438 C468 0.950 . S
H439 C469 0.950 . S
C440 H422 0.951 . S
C440 C441 1.366 1_545 S
C440 C442 1.388 . S
C441 C440 1.366 1_565 S
C441 C445 1.385 . S
C442 H423 0.951 . S
C442 C440 1.388 . S
C442 C443 1.357 1_545 S
C443 C442 1.357 1_565 S
C443 C444 1.423 . S
C443 C446 1.499 . S
C444 H424 0.950 . S
C444 C443 1.423 . S
C444 C445 1.374 . S
C445 H425 0.950 . S
C445 C441 1.385 . S
C445 C444 1.374 . S
C446 C443 1.499 . S
C446 C447 1.373 . S
C446 C448 1.388 1_565 S
C447 H426 0.952 . S
C447 C446 1.373 . S
C447 C463 1.375 1_565 S
C448 C446 1.388 1_545 S
C448 C449 1.524 1_545 S
C448 C462 1.377 . S
C449 C448 1.524 1_565 S
C449 C450 1.397 . S
C449 C454 1.363 1_565 S
C450 H427 0.950 . S
C450 C449 1.397 . S
C450 C451 1.334 . S
C451 H428 0.950 . S
C451 C450 1.334 . S
C451 C452 1.287 . S
C452 C451 1.287 . S
C452 C453 1.524 1_565 S
C452 H471 0.913 1_556 S
C453 H429 0.950 . S
C453 C452 1.524 1_545 S
C453 C454 1.415 . S
C454 H430 0.950 . S
C454 C449 1.363 1_545 S
C454 C453 1.415 . S
C455 H431 0.951 . S
C455 C456 1.366 1_565 S
C455 C457 1.388 . S
C456 C455 1.366 1_545 S
C456 C460 1.385 . S
C457 H432 0.951 . S
C457 C455 1.388 . S
C457 C458 1.366 1_565 S
C458 C457 1.366 1_545 S
C458 C459 1.414 . S
C458 C461 1.499 . S
C459 H433 0.950 . S
C459 C458 1.414 . S
C459 C460 1.374 . S
C460 H434 0.950 . S
C460 C456 1.385 . S
C460 C459 1.374 . S
C461 C458 1.499 . S
C461 C462 1.373 . S
C461 C463 1.389 . S
C462 H435 0.950 . S
C462 C448 1.377 . S
C462 C461 1.373 . S
C463 C447 1.375 1_545 S
C463 C461 1.389 . S
C463 C464 1.524 . S
C464 C463 1.524 . S
C464 C465 1.397 . S
C464 C469 1.363 1_545 S
C465 H436 0.950 . S
C465 C464 1.397 . S
C465 C466 1.334 . S
C466 H437 0.950 . S
C466 C465 1.334 . S
C466 C467 1.287 . S
C467 C466 1.287 . S
C467 C468 1.524 1_545 S
C467 H470 0.999 . S
C468 H438 0.950 . S
C468 C467 1.524 1_565 S
C468 C469 1.415 . S
C469 H439 0.950 . S
C469 C464 1.363 1_565 S
C469 C468 1.415 . S
H470 C467 0.999 . S
H471 C452 0.913 1_554 S
C91 C22 1.601 . S
C106 C41 1.558 . S
C141 C8 1.603 . S
C156 C61 1.564 . S
C191 C31 1.564 1_655 S
C206 C50 1.577 . S
C241 C17 1.564 1_545 S
C256 C70 1.572 . S
C291 C30 1.603 . S
C306 C47 1.567 . S
C341 C27 1.601 . S
C356 C67 1.562 . S
C406 C44 1.576 . S
C391 C23 1.561 1_455 S
C441 C24 1.564 1_565 S
C456 C64 1.581 . S
