# Generated by pormake.
# Topology tbo, (3,4)-cn, num edge types: 1
# Building blocks:
#     Node 0, Type 0, BuildingBlock: WUSLED_clean_sbu_0, # of connection points: 3
#     Node 1, Type 0, BuildingBlock: WUSLED_clean_sbu_0, # of connection points: 3
#     Node 2, Type 0, BuildingBlock: WUSLED_clean_sbu_0, # of connection points: 3
#     Node 3, Type 0, BuildingBlock: WUSLED_clean_sbu_0, # of connection points: 3
#     Node 4, Type 0, BuildingBlock: WUSLED_clean_sbu_0, # of connection points: 3
#     Node 5, Type 0, BuildingBlock: WUSLED_clean_sbu_0, # of connection points: 3
#     Node 6, Type 0, BuildingBlock: WUSLED_clean_sbu_0, # of connection points: 3
#     Node 7, Type 0, BuildingBlock: WUSLED_clean_sbu_0, # of connection points: 3
#     Node 8, Type 0, BuildingBlock: WUSLED_clean_sbu_0, # of connection points: 3
#     Node 9, Type 0, BuildingBlock: WUSLED_clean_sbu_0, # of connection points: 3
#     Node 10, Type 0, BuildingBlock: WUSLED_clean_sbu_0, # of connection points: 3
#     Node 11, Type 0, BuildingBlock: WUSLED_clean_sbu_0, # of connection points: 3
#     Node 12, Type 0, BuildingBlock: WUSLED_clean_sbu_0, # of connection points: 3
#     Node 13, Type 0, BuildingBlock: WUSLED_clean_sbu_0, # of connection points: 3
#     Node 14, Type 0, BuildingBlock: WUSLED_clean_sbu_0, # of connection points: 3
#     Node 15, Type 0, BuildingBlock: WUSLED_clean_sbu_0, # of connection points: 3
#     Node 16, Type 0, BuildingBlock: WUSLED_clean_sbu_0, # of connection points: 3
#     Node 17, Type 0, BuildingBlock: WUSLED_clean_sbu_0, # of connection points: 3
#     Node 18, Type 0, BuildingBlock: WUSLED_clean_sbu_0, # of connection points: 3
#     Node 19, Type 0, BuildingBlock: WUSLED_clean_sbu_0, # of connection points: 3
#     Node 20, Type 0, BuildingBlock: WUSLED_clean_sbu_0, # of connection points: 3
#     Node 21, Type 0, BuildingBlock: WUSLED_clean_sbu_0, # of connection points: 3
#     Node 22, Type 0, BuildingBlock: WUSLED_clean_sbu_0, # of connection points: 3
#     Node 23, Type 0, BuildingBlock: WUSLED_clean_sbu_0, # of connection points: 3
#     Node 24, Type 0, BuildingBlock: WUSLED_clean_sbu_0, # of connection points: 3
#     Node 25, Type 0, BuildingBlock: WUSLED_clean_sbu_0, # of connection points: 3
#     Node 26, Type 0, BuildingBlock: WUSLED_clean_sbu_0, # of connection points: 3
#     Node 27, Type 0, BuildingBlock: WUSLED_clean_sbu_0, # of connection points: 3
#     Node 28, Type 0, BuildingBlock: WUSLED_clean_sbu_0, # of connection points: 3
#     Node 29, Type 0, BuildingBlock: WUSLED_clean_sbu_0, # of connection points: 3
#     Node 30, Type 0, BuildingBlock: WUSLED_clean_sbu_0, # of connection points: 3
#     Node 31, Type 0, BuildingBlock: WUSLED_clean_sbu_0, # of connection points: 3
#     Node 32, Type 1, BuildingBlock: MUDLON_clean_linker_0, # of connection points: 4
#     Node 33, Type 1, BuildingBlock: MUDLON_clean_linker_0, # of connection points: 4
#     Node 34, Type 1, BuildingBlock: MUDLON_clean_linker_0, # of connection points: 4
#     Node 35, Type 1, BuildingBlock: MUDLON_clean_linker_0, # of connection points: 4
#     Node 36, Type 1, BuildingBlock: MUDLON_clean_linker_0, # of connection points: 4
#     Node 37, Type 1, BuildingBlock: MUDLON_clean_linker_0, # of connection points: 4
#     Node 38, Type 1, BuildingBlock: MUDLON_clean_linker_0, # of connection points: 4
#     Node 39, Type 1, BuildingBlock: MUDLON_clean_linker_0, # of connection points: 4
#     Node 40, Type 1, BuildingBlock: MUDLON_clean_linker_0, # of connection points: 4
#     Node 41, Type 1, BuildingBlock: MUDLON_clean_linker_0, # of connection points: 4
#     Node 42, Type 1, BuildingBlock: MUDLON_clean_linker_0, # of connection points: 4
#     Node 43, Type 1, BuildingBlock: MUDLON_clean_linker_0, # of connection points: 4
#     Node 44, Type 1, BuildingBlock: MUDLON_clean_linker_0, # of connection points: 4
#     Node 45, Type 1, BuildingBlock: MUDLON_clean_linker_0, # of connection points: 4
#     Node 46, Type 1, BuildingBlock: MUDLON_clean_linker_0, # of connection points: 4
#     Node 47, Type 1, BuildingBlock: MUDLON_clean_linker_0, # of connection points: 4
#     Node 48, Type 1, BuildingBlock: MUDLON_clean_linker_0, # of connection points: 4
#     Node 49, Type 1, BuildingBlock: MUDLON_clean_linker_0, # of connection points: 4
#     Node 50, Type 1, BuildingBlock: MUDLON_clean_linker_0, # of connection points: 4
#     Node 51, Type 1, BuildingBlock: MUDLON_clean_linker_0, # of connection points: 4
#     Node 52, Type 1, BuildingBlock: MUDLON_clean_linker_0, # of connection points: 4
#     Node 53, Type 1, BuildingBlock: MUDLON_clean_linker_0, # of connection points: 4
#     Node 54, Type 1, BuildingBlock: MUDLON_clean_linker_0, # of connection points: 4
#     Node 55, Type 1, BuildingBlock: MUDLON_clean_linker_0, # of connection points: 4
#     Edge 56, Type (0, 1), BuildingBlock: AJUNOK_clean_linker_0, # of connection points: 2
#     Edge 57, Type (0, 1), BuildingBlock: AJUNOK_clean_linker_0, # of connection points: 2
#     Edge 58, Type (0, 1), BuildingBlock: AJUNOK_clean_linker_0, # of connection points: 2
#     Edge 59, Type (0, 1), BuildingBlock: AJUNOK_clean_linker_0, # of connection points: 2
#     Edge 60, Type (0, 1), BuildingBlock: AJUNOK_clean_linker_0, # of connection points: 2
#     Edge 61, Type (0, 1), BuildingBlock: AJUNOK_clean_linker_0, # of connection points: 2
#     Edge 62, Type (0, 1), BuildingBlock: AJUNOK_clean_linker_0, # of connection points: 2
#     Edge 63, Type (0, 1), BuildingBlock: AJUNOK_clean_linker_0, # of connection points: 2
#     Edge 64, Type (0, 1), BuildingBlock: AJUNOK_clean_linker_0, # of connection points: 2
#     Edge 65, Type (0, 1), BuildingBlock: AJUNOK_clean_linker_0, # of connection points: 2
#     Edge 66, Type (0, 1), BuildingBlock: AJUNOK_clean_linker_0, # of connection points: 2
#     Edge 67, Type (0, 1), BuildingBlock: AJUNOK_clean_linker_0, # of connection points: 2
#     Edge 68, Type (0, 1), BuildingBlock: AJUNOK_clean_linker_0, # of connection points: 2
#     Edge 69, Type (0, 1), BuildingBlock: AJUNOK_clean_linker_0, # of connection points: 2
#     Edge 70, Type (0, 1), BuildingBlock: AJUNOK_clean_linker_0, # of connection points: 2
#     Edge 71, Type (0, 1), BuildingBlock: AJUNOK_clean_linker_0, # of connection points: 2
#     Edge 72, Type (0, 1), BuildingBlock: AJUNOK_clean_linker_0, # of connection points: 2
#     Edge 73, Type (0, 1), BuildingBlock: AJUNOK_clean_linker_0, # of connection points: 2
#     Edge 74, Type (0, 1), BuildingBlock: AJUNOK_clean_linker_0, # of connection points: 2
#     Edge 75, Type (0, 1), BuildingBlock: AJUNOK_clean_linker_0, # of connection points: 2
#     Edge 76, Type (0, 1), BuildingBlock: AJUNOK_clean_linker_0, # of connection points: 2
#     Edge 77, Type (0, 1), BuildingBlock: AJUNOK_clean_linker_0, # of connection points: 2
#     Edge 78, Type (0, 1), BuildingBlock: AJUNOK_clean_linker_0, # of connection points: 2
#     Edge 79, Type (0, 1), BuildingBlock: AJUNOK_clean_linker_0, # of connection points: 2
#     Edge 80, Type (0, 1), BuildingBlock: AJUNOK_clean_linker_0, # of connection points: 2
#     Edge 81, Type (0, 1), BuildingBlock: AJUNOK_clean_linker_0, # of connection points: 2
#     Edge 82, Type (0, 1), BuildingBlock: AJUNOK_clean_linker_0, # of connection points: 2
#     Edge 83, Type (0, 1), BuildingBlock: AJUNOK_clean_linker_0, # of connection points: 2
#     Edge 84, Type (0, 1), BuildingBlock: AJUNOK_clean_linker_0, # of connection points: 2
#     Edge 85, Type (0, 1), BuildingBlock: AJUNOK_clean_linker_0, # of connection points: 2
#     Edge 86, Type (0, 1), BuildingBlock: AJUNOK_clean_linker_0, # of connection points: 2
#     Edge 87, Type (0, 1), BuildingBlock: AJUNOK_clean_linker_0, # of connection points: 2
#     Edge 88, Type (0, 1), BuildingBlock: AJUNOK_clean_linker_0, # of connection points: 2
#     Edge 89, Type (0, 1), BuildingBlock: AJUNOK_clean_linker_0, # of connection points: 2
#     Edge 90, Type (0, 1), BuildingBlock: AJUNOK_clean_linker_0, # of connection points: 2
#     Edge 91, Type (0, 1), BuildingBlock: AJUNOK_clean_linker_0, # of connection points: 2
#     Edge 92, Type (0, 1), BuildingBlock: AJUNOK_clean_linker_0, # of connection points: 2
#     Edge 93, Type (0, 1), BuildingBlock: AJUNOK_clean_linker_0, # of connection points: 2
#     Edge 94, Type (0, 1), BuildingBlock: AJUNOK_clean_linker_0, # of connection points: 2
#     Edge 95, Type (0, 1), BuildingBlock: AJUNOK_clean_linker_0, # of connection points: 2
#     Edge 96, Type (0, 1), BuildingBlock: AJUNOK_clean_linker_0, # of connection points: 2
#     Edge 97, Type (0, 1), BuildingBlock: AJUNOK_clean_linker_0, # of connection points: 2
#     Edge 98, Type (0, 1), BuildingBlock: AJUNOK_clean_linker_0, # of connection points: 2
#     Edge 99, Type (0, 1), BuildingBlock: AJUNOK_clean_linker_0, # of connection points: 2
#     Edge 100, Type (0, 1), BuildingBlock: AJUNOK_clean_linker_0, # of connection points: 2
#     Edge 101, Type (0, 1), BuildingBlock: AJUNOK_clean_linker_0, # of connection points: 2
#     Edge 102, Type (0, 1), BuildingBlock: AJUNOK_clean_linker_0, # of connection points: 2
#     Edge 103, Type (0, 1), BuildingBlock: AJUNOK_clean_linker_0, # of connection points: 2
#     Edge 104, Type (0, 1), BuildingBlock: AJUNOK_clean_linker_0, # of connection points: 2
#     Edge 105, Type (0, 1), BuildingBlock: AJUNOK_clean_linker_0, # of connection points: 2
#     Edge 106, Type (0, 1), BuildingBlock: AJUNOK_clean_linker_0, # of connection points: 2
#     Edge 107, Type (0, 1), BuildingBlock: AJUNOK_clean_linker_0, # of connection points: 2
#     Edge 108, Type (0, 1), BuildingBlock: AJUNOK_clean_linker_0, # of connection points: 2
#     Edge 109, Type (0, 1), BuildingBlock: AJUNOK_clean_linker_0, # of connection points: 2
#     Edge 110, Type (0, 1), BuildingBlock: AJUNOK_clean_linker_0, # of connection points: 2
#     Edge 111, Type (0, 1), BuildingBlock: AJUNOK_clean_linker_0, # of connection points: 2
#     Edge 112, Type (0, 1), BuildingBlock: AJUNOK_clean_linker_0, # of connection points: 2
#     Edge 113, Type (0, 1), BuildingBlock: AJUNOK_clean_linker_0, # of connection points: 2
#     Edge 114, Type (0, 1), BuildingBlock: AJUNOK_clean_linker_0, # of connection points: 2
#     Edge 115, Type (0, 1), BuildingBlock: AJUNOK_clean_linker_0, # of connection points: 2
#     Edge 116, Type (0, 1), BuildingBlock: AJUNOK_clean_linker_0, # of connection points: 2
#     Edge 117, Type (0, 1), BuildingBlock: AJUNOK_clean_linker_0, # of connection points: 2
#     Edge 118, Type (0, 1), BuildingBlock: AJUNOK_clean_linker_0, # of connection points: 2
#     Edge 119, Type (0, 1), BuildingBlock: AJUNOK_clean_linker_0, # of connection points: 2
#     Edge 120, Type (0, 1), BuildingBlock: AJUNOK_clean_linker_0, # of connection points: 2
#     Edge 121, Type (0, 1), BuildingBlock: AJUNOK_clean_linker_0, # of connection points: 2
#     Edge 122, Type (0, 1), BuildingBlock: AJUNOK_clean_linker_0, # of connection points: 2
#     Edge 123, Type (0, 1), BuildingBlock: AJUNOK_clean_linker_0, # of connection points: 2
#     Edge 124, Type (0, 1), BuildingBlock: AJUNOK_clean_linker_0, # of connection points: 2
#     Edge 125, Type (0, 1), BuildingBlock: AJUNOK_clean_linker_0, # of connection points: 2
#     Edge 126, Type (0, 1), BuildingBlock: AJUNOK_clean_linker_0, # of connection points: 2
#     Edge 127, Type (0, 1), BuildingBlock: AJUNOK_clean_linker_0, # of connection points: 2
#     Edge 128, Type (0, 1), BuildingBlock: AJUNOK_clean_linker_0, # of connection points: 2
#     Edge 129, Type (0, 1), BuildingBlock: AJUNOK_clean_linker_0, # of connection points: 2
#     Edge 130, Type (0, 1), BuildingBlock: AJUNOK_clean_linker_0, # of connection points: 2
#     Edge 131, Type (0, 1), BuildingBlock: AJUNOK_clean_linker_0, # of connection points: 2
#     Edge 132, Type (0, 1), BuildingBlock: AJUNOK_clean_linker_0, # of connection points: 2
#     Edge 133, Type (0, 1), BuildingBlock: AJUNOK_clean_linker_0, # of connection points: 2
#     Edge 134, Type (0, 1), BuildingBlock: AJUNOK_clean_linker_0, # of connection points: 2
#     Edge 135, Type (0, 1), BuildingBlock: AJUNOK_clean_linker_0, # of connection points: 2
#     Edge 136, Type (0, 1), BuildingBlock: AJUNOK_clean_linker_0, # of connection points: 2
#     Edge 137, Type (0, 1), BuildingBlock: AJUNOK_clean_linker_0, # of connection points: 2
#     Edge 138, Type (0, 1), BuildingBlock: AJUNOK_clean_linker_0, # of connection points: 2
#     Edge 139, Type (0, 1), BuildingBlock: AJUNOK_clean_linker_0, # of connection points: 2
#     Edge 140, Type (0, 1), BuildingBlock: AJUNOK_clean_linker_0, # of connection points: 2
#     Edge 141, Type (0, 1), BuildingBlock: AJUNOK_clean_linker_0, # of connection points: 2
#     Edge 142, Type (0, 1), BuildingBlock: AJUNOK_clean_linker_0, # of connection points: 2
#     Edge 143, Type (0, 1), BuildingBlock: AJUNOK_clean_linker_0, # of connection points: 2
#     Edge 144, Type (0, 1), BuildingBlock: AJUNOK_clean_linker_0, # of connection points: 2
#     Edge 145, Type (0, 1), BuildingBlock: AJUNOK_clean_linker_0, # of connection points: 2
#     Edge 146, Type (0, 1), BuildingBlock: AJUNOK_clean_linker_0, # of connection points: 2
#     Edge 147, Type (0, 1), BuildingBlock: AJUNOK_clean_linker_0, # of connection points: 2
#     Edge 148, Type (0, 1), BuildingBlock: AJUNOK_clean_linker_0, # of connection points: 2
#     Edge 149, Type (0, 1), BuildingBlock: AJUNOK_clean_linker_0, # of connection points: 2
#     Edge 150, Type (0, 1), BuildingBlock: AJUNOK_clean_linker_0, # of connection points: 2
#     Edge 151, Type (0, 1), BuildingBlock: AJUNOK_clean_linker_0, # of connection points: 2
# Relax obj value: 0.002
# Max RMSD: 0.047
# Mean RMSD: 0.021
data_MOF--net-tbo--node1-WUSLED_clean_sbu_0--node2-MUDLON_clean_linker_0--edge1-AJUNOK_clean_linker_0
_symmetry_space_group_name_H-M    P1
_symmetry_Int_Tables_number       1
_symmetry_cell_setting            triclinic
loop_
_symmetry_equiv_pos_as_xyz
'x, y, z'
_cell_length_a     98.914219
_cell_length_b     99.291149
_cell_length_c     99.101767
_cell_angle_alpha  89.591841
_cell_angle_beta   90.399887
_cell_angle_gamma 90.966491
loop_
_atom_site_label
_atom_site_type_symbol
_atom_site_fract_x
_atom_site_fract_y
_atom_site_fract_z
_atom_type_partial_charge
C0 C 0.20039 0.1531 0.20754 0.0
C1 C 0.2074 0.15384 0.2199 0.0
C2 C 0.21618 0.13132 0.21675 0.0
C3 C 0.21527 0.14311 0.22441 0.0
C4 C 0.20912 0.13051 0.20441 0.0
C5 C 0.2013 0.14129 0.19984 0.0
U6 U 0.19222 0.18274 0.18373 0.0
O7 O 0.17261 0.18975 0.17599 0.0
O8 O 0.18528 0.20308 0.18852 0.0
C9 C 0.17353 0.20123 0.18249 0.0
C10 C 0.19194 0.16456 0.20313 0.0
C11 C 0.16164 0.20478 0.19048 0.0
C12 C 0.14724 0.20152 0.21006 0.0
C13 C 0.15838 0.19775 0.20239 0.0
C14 C 0.14244 0.2193 0.19394 0.0
C15 C 0.13915 0.21235 0.20592 0.0
C16 C 0.15358 0.21553 0.18629 0.0
C17 C 0.21604 0.1903 0.15392 0.0
C18 C 0.21483 0.21012 0.13942 0.0
C19 C 0.23149 0.19308 0.13513 0.0
C20 C 0.22672 0.18559 0.14615 0.0
C21 C 0.22561 0.20543 0.13162 0.0
C22 C 0.21005 0.20258 0.15047 0.0
C23 C 0.21167 0.18242 0.1658 0.0
O24 O 0.19747 0.17662 0.20449 0.0
O25 O 0.18512 0.16317 0.19177 0.0
O26 O 0.20029 0.17551 0.16447 0.0
O27 O 0.21278 0.18859 0.17745 0.0
H28 H 0.20678 0.16274 0.22611 0.0
H29 H 0.22056 0.14399 0.23398 0.0
H30 H 0.20981 0.12163 0.19819 0.0
H31 H 0.19601 0.14034 0.19028 0.0
H32 H 0.14494 0.19597 0.21924 0.0
H33 H 0.16451 0.18942 0.20578 0.0
H34 H 0.13659 0.22785 0.19064 0.0
H35 H 0.156 0.22112 0.17717 0.0
H36 H 0.21013 0.21961 0.13697 0.0
H37 H 0.24001 0.18936 0.12955 0.0
H38 H 0.23153 0.17618 0.14873 0.0
H39 H 0.2018 0.20638 0.1564 0.0
C40 C 0.81781 0.18973 0.16003 0.0
C41 C 0.82261 0.18788 0.14684 0.0
C42 C 0.80644 0.20401 0.13799 0.0
C43 C 0.81699 0.19495 0.13595 0.0
C44 C 0.80166 0.20586 0.15116 0.0
C45 C 0.80725 0.19879 0.16203 0.0
U46 U 0.84362 0.1823 0.18844 0.0
O47 O 0.84002 0.17562 0.20933 0.0
O48 O 0.8514 0.16285 0.19564 0.0
C49 C 0.84553 0.16384 0.20744 0.0
C50 C 0.82302 0.18164 0.17155 0.0
C51 C 0.83719 0.15214 0.21157 0.0
C52 C 0.8164 0.13882 0.20996 0.0
C53 C 0.82443 0.14976 0.2057 0.0
C54 C 0.83387 0.13242 0.22591 0.0
C55 C 0.82104 0.13001 0.2201 0.0
C56 C 0.84187 0.14338 0.22166 0.0
C57 C 0.87426 0.2062 0.19336 0.0
C58 C 0.89183 0.20304 0.21033 0.0
C59 C 0.89175 0.22334 0.19661 0.0
C60 C 0.88015 0.21866 0.18989 0.0
C61 C 0.89769 0.21564 0.20696 0.0
C62 C 0.88017 0.19837 0.20359 0.0
C63 C 0.86185 0.20175 0.18632 0.0
O64 O 0.83422 0.17498 0.16961 0.0
O65 O 0.82257 0.18729 0.1835 0.0
O66 O 0.8506 0.20289 0.19317 0.0
O67 O 0.86253 0.19034 0.17972 0.0
H68 H 0.83056 0.1808 0.14487 0.0
H69 H 0.82068 0.19307 0.12589 0.0
H70 H 0.79354 0.21278 0.15304 0.0
H71 H 0.80316 0.2003 0.17201 0.0
H72 H 0.80645 0.13742 0.20551 0.0
H73 H 0.82062 0.15647 0.19794 0.0
H74 H 0.83771 0.1258 0.23373 0.0
H75 H 0.8517 0.14508 0.2263 0.0
H76 H 0.8963 0.19679 0.2181 0.0
H77 H 0.89595 0.23311 0.19385 0.0
H78 H 0.87569 0.22484 0.18204 0.0
H79 H 0.87575 0.18869 0.20639 0.0
C80 C 0.81854 0.83998 0.15547 0.0
C81 C 0.82417 0.82745 0.15256 0.0
C82 C 0.80846 0.82457 0.13367 0.0
C83 C 0.81917 0.81981 0.14173 0.0
C84 C 0.80312 0.83728 0.13646 0.0
C85 C 0.8081 0.84489 0.14728 0.0
U86 U 0.84262 0.84715 0.1853 0.0
O87 O 0.85001 0.86661 0.1932 0.0
O88 O 0.83769 0.85318 0.20598 0.0
C89 C 0.84354 0.86509 0.20467 0.0
C90 C 0.82305 0.84788 0.16723 0.0
C91 C 0.83536 0.87655 0.20889 0.0
C92 C 0.81638 0.89151 0.20558 0.0
C93 C 0.8243 0.88087 0.20113 0.0
C94 C 0.83053 0.89363 0.22553 0.0
C95 C 0.8194 0.89798 0.21786 0.0
C96 C 0.83844 0.88302 0.22107 0.0
C97 C 0.87294 0.82422 0.19265 0.0
C98 C 0.8833 0.80837 0.20833 0.0
C99 C 0.8966 0.82701 0.19938 0.0
C100 C 0.88536 0.83134 0.19195 0.0
C101 C 0.89569 0.81547 0.20764 0.0
C102 C 0.8721 0.81264 0.20086 0.0
C103 C 0.86099 0.82835 0.18454 0.0
O104 O 0.8219 0.84176 0.17898 0.0
O105 O 0.83454 0.85458 0.1659 0.0
O106 O 0.86201 0.83976 0.17776 0.0
O107 O 0.84915 0.82662 0.1903 0.0
H108 H 0.83229 0.82354 0.15875 0.0
H109 H 0.82364 0.81016 0.13968 0.0
H110 H 0.79484 0.84118 0.13047 0.0
H111 H 0.80363 0.85453 0.14939 0.0
H112 H 0.80772 0.89447 0.19958 0.0
H113 H 0.82171 0.8759 0.19174 0.0
H114 H 0.83311 0.89843 0.23501 0.0
H115 H 0.84693 0.8798 0.2272 0.0
H116 H 0.88232 0.79939 0.21455 0.0
H117 H 0.90595 0.83281 0.19881 0.0
H118 H 0.88642 0.84025 0.18566 0.0
H119 H 0.86275 0.80682 0.20148 0.0
C120 C 0.16229 0.81806 0.19119 0.0
C121 C 0.1578 0.82644 0.20153 0.0
C122 C 0.13929 0.81066 0.2064 0.0
C123 C 0.14637 0.82277 0.20908 0.0
C124 C 0.14383 0.80235 0.19599 0.0
C125 C 0.15521 0.80604 0.18844 0.0
U126 U 0.19358 0.84023 0.18463 0.0
O127 O 0.21431 0.83445 0.17963 0.0
O128 O 0.20275 0.84694 0.16549 0.0
C129 C 0.21378 0.83996 0.16754 0.0
C130 C 0.17454 0.82149 0.18346 0.0
C131 C 0.21856 0.83161 0.15619 0.0
C132 C 0.21921 0.8265 0.13215 0.0
C133 C 0.21383 0.83369 0.14292 0.0
C134 C 0.23414 0.81497 0.14766 0.0
C135 C 0.22948 0.8171 0.1344 0.0
C136 C 0.22878 0.82215 0.15841 0.0
C137 C 0.20093 0.87042 0.20769 0.0
C138 C 0.21975 0.88617 0.20447 0.0
C139 C 0.2063 0.88713 0.22477 0.0
C140 C 0.19824 0.87641 0.22012 0.0
C141 C 0.21723 0.89203 0.21707 0.0
C142 C 0.2117 0.87539 0.19984 0.0
C143 C 0.19258 0.85883 0.2033 0.0
O144 O 0.17415 0.83274 0.17641 0.0
O145 O 0.18601 0.81995 0.19001 0.0
O146 O 0.19793 0.84697 0.20533 0.0
O147 O 0.18668 0.86 0.19143 0.0
H148 H 0.16322 0.83572 0.20385 0.0
H149 H 0.14328 0.82924 0.2172 0.0
H150 H 0.13856 0.79298 0.19369 0.0
H151 H 0.15856 0.79944 0.18052 0.0
H152 H 0.21562 0.82859 0.12202 0.0
H153 H 0.20615 0.84107 0.14078 0.0
H154 H 0.24203 0.80779 0.14972 0.0
H155 H 0.23282 0.82044 0.16845 0.0
H156 H 0.22812 0.88974 0.19836 0.0
H157 H 0.20398 0.8916 0.23441 0.0
H158 H 0.18995 0.87273 0.2263 0.0
H159 H 0.21394 0.87085 0.19022 0.0
C160 C 0.16235 0.81069 0.83966 0.0
C161 C 0.15076 0.81859 0.83808 0.0
C162 C 0.13954 0.80067 0.82535 0.0
C163 C 0.13945 0.81361 0.83101 0.0
C164 C 0.1512 0.79288 0.82676 0.0
C165 C 0.16245 0.79782 0.83389 0.0
U166 U 0.19187 0.83537 0.84761 0.0
O167 O 0.19971 0.84224 0.86728 0.0
O168 O 0.21273 0.83091 0.85378 0.0
C169 C 0.2113 0.83614 0.86581 0.0
C170 C 0.17422 0.81531 0.84768 0.0
C171 C 0.21546 0.82749 0.87715 0.0
C172 C 0.2126 0.80725 0.89085 0.0
C173 C 0.20826 0.81559 0.88028 0.0
C174 C 0.23127 0.82272 0.89537 0.0
C175 C 0.22423 0.81066 0.89843 0.0
C176 C 0.22692 0.83104 0.8848 0.0
C177 C 0.19803 0.86661 0.82538 0.0
C178 C 0.21508 0.88384 0.83031 0.0
C179 C 0.2032 0.8841 0.80886 0.0
C180 C 0.19583 0.87259 0.81273 0.0
C181 C 0.21286 0.88991 0.81763 0.0
C182 C 0.20772 0.87227 0.83416 0.0
C183 C 0.19032 0.85434 0.82906 0.0
O184 O 0.18598 0.81475 0.84165 0.0
O185 O 0.17283 0.82627 0.85489 0.0
O186 O 0.18377 0.85471 0.84056 0.0
O187 O 0.19662 0.84296 0.82724 0.0
H188 H 0.15037 0.82858 0.84237 0.0
H189 H 0.13067 0.81989 0.8299 0.0
H190 H 0.15152 0.78286 0.82254 0.0
H191 H 0.17121 0.79149 0.83503 0.0
H192 H 0.20683 0.79815 0.89313 0.0
H193 H 0.19934 0.81272 0.8745 0.0
H194 H 0.24029 0.82558 0.90098 0.0
H195 H 0.2326 0.84019 0.88251 0.0
H196 H 0.22248 0.88806 0.83727 0.0
H197 H 0.2015 0.88831 0.79889 0.0
H198 H 0.18848 0.86827 0.80577 0.0
H199 H 0.20961 0.86773 0.84395 0.0
C200 C 0.15687 0.18745 0.82702 0.0
C201 C 0.15454 0.20061 0.83145 0.0
C202 C 0.13402 0.20152 0.81769 0.0
C203 C 0.14322 0.20761 0.82678 0.0
C204 C 0.13636 0.18829 0.81343 0.0
C205 C 0.14767 0.18133 0.81807 0.0
U206 U 0.18841 0.18246 0.84933 0.0
O207 O 0.19694 0.16366 0.85732 0.0
O208 O 0.20878 0.17632 0.84338 0.0
C209 C 0.20792 0.16481 0.84997 0.0
C210 C 0.16903 0.1801 0.83118 0.0
C211 C 0.21152 0.15284 0.84217 0.0
C212 C 0.20635 0.1361 0.82502 0.0
C213 C 0.20255 0.14723 0.83263 0.0
C214 C 0.22807 0.13602 0.83647 0.0
C215 C 0.21922 0.13046 0.82675 0.0
C216 C 0.22425 0.14712 0.84409 0.0
C217 C 0.19737 0.20775 0.87766 0.0
C218 C 0.20348 0.20857 0.90155 0.0
C219 C 0.21451 0.22374 0.88573 0.0
C220 C 0.20683 0.2182 0.87518 0.0
C221 C 0.21282 0.21911 0.89905 0.0
C222 C 0.19578 0.203 0.89099 0.0
C223 C 0.18866 0.20253 0.86651 0.0
O224 O 0.18063 0.18631 0.82887 0.0
O225 O 0.16854 0.17418 0.84308 0.0
O226 O 0.18212 0.19108 0.86868 0.0
O227 O 0.19365 0.20348 0.85426 0.0
H228 H 0.16156 0.2055 0.83837 0.0
H229 H 0.14168 0.21779 0.83022 0.0
H230 H 0.12965 0.18344 0.8062 0.0
H231 H 0.14935 0.17122 0.81448 0.0
H232 H 0.19922 0.13189 0.81779 0.0
H233 H 0.19266 0.15151 0.83103 0.0
H234 H 0.23806 0.13196 0.83799 0.0
H235 H 0.23131 0.15134 0.85139 0.0
H236 H 0.20195 0.20481 0.91172 0.0
H237 H 0.22183 0.23165 0.88343 0.0
H238 H 0.20823 0.2222 0.86508 0.0
H239 H 0.18848 0.19509 0.89332 0.0
C240 C 0.81923 0.15508 0.84096 0.0
C241 C 0.82487 0.14227 0.84281 0.0
C242 C 0.80951 0.13272 0.82593 0.0
C243 C 0.8201 0.13123 0.83532 0.0
C244 C 0.80399 0.14554 0.82398 0.0
C245 C 0.80871 0.15655 0.83147 0.0
U246 U 0.84282 0.18532 0.84951 0.0
O247 O 0.83743 0.20576 0.85574 0.0
O248 O 0.84967 0.19313 0.86918 0.0
C249 C 0.84302 0.20442 0.86774 0.0
C250 C 0.82357 0.16674 0.84936 0.0
C251 C 0.83488 0.20893 0.87932 0.0
C252 C 0.8216 0.2265 0.88961 0.0
C253 C 0.82858 0.22149 0.87856 0.0
C254 C 0.827 0.20646 0.90248 0.0
C255 C 0.82087 0.21912 0.90174 0.0
C256 C 0.83395 0.20141 0.89138 0.0
C257 C 0.87333 0.19435 0.82719 0.0
C258 C 0.88266 0.21498 0.81724 0.0
C259 C 0.89773 0.19767 0.82523 0.0
C260 C 0.88656 0.18972 0.82912 0.0
C261 C 0.89589 0.21041 0.81927 0.0
C262 C 0.87151 0.20708 0.82117 0.0
C263 C 0.86158 0.1856 0.83087 0.0
O264 O 0.83485 0.16559 0.85637 0.0
O265 O 0.82226 0.17872 0.84382 0.0
O266 O 0.84953 0.19074 0.82907 0.0
O267 O 0.86263 0.1787 0.84221 0.0
H268 H 0.83287 0.14071 0.85015 0.0
H269 H 0.82455 0.12146 0.83704 0.0
H270 H 0.79603 0.14709 0.8166 0.0
H271 H 0.80404 0.16623 0.82986 0.0
H272 H 0.81705 0.23632 0.88877 0.0
H273 H 0.82926 0.22757 0.86946 0.0
H274 H 0.82642 0.20047 0.91164 0.0
H275 H 0.83871 0.1917 0.89233 0.0
H276 H 0.88088 0.22457 0.81232 0.0
H277 H 0.9078 0.19385 0.82688 0.0
H278 H 0.88829 0.1799 0.83357 0.0
H279 H 0.86148 0.21092 0.81933 0.0
C280 C 0.84081 0.8736 0.8234 0.0
C281 C 0.82849 0.87705 0.8293 0.0
C282 C 0.82664 0.89632 0.81402 0.0
C283 C 0.82143 0.88831 0.82461 0.0
C284 C 0.83902 0.89281 0.80822 0.0
C285 C 0.84604 0.88159 0.81289 0.0
U286 U 0.84615 0.84282 0.84651 0.0
O287 O 0.85194 0.82227 0.84103 0.0
O288 O 0.86512 0.83436 0.85428 0.0
C289 C 0.86361 0.82315 0.84741 0.0
C290 C 0.84819 0.86154 0.82771 0.0
C291 C 0.87546 0.8189 0.83972 0.0
C292 C 0.89261 0.8229 0.82261 0.0
C293 C 0.88142 0.82729 0.82988 0.0
C294 C 0.89192 0.80173 0.83491 0.0
C295 C 0.89797 0.81006 0.82505 0.0
C296 C 0.88079 0.80613 0.84219 0.0
C297 C 0.82206 0.83484 0.87585 0.0
C298 C 0.8145 0.81329 0.88526 0.0
C299 C 0.81484 0.83317 0.89926 0.0
C300 C 0.81973 0.84085 0.88839 0.0
C301 C 0.8121 0.81933 0.89778 0.0
C302 C 0.81951 0.82094 0.87442 0.0
C303 C 0.82666 0.84331 0.86435 0.0
O304 O 0.85449 0.86231 0.8394 0.0
O305 O 0.84175 0.84999 0.82593 0.0
O306 O 0.82518 0.83811 0.85225 0.0
O307 O 0.83828 0.84974 0.866 0.0
H308 H 0.82429 0.87096 0.83742 0.0
H309 H 0.81191 0.89075 0.82926 0.0
H310 H 0.84313 0.89856 0.79982 0.0
H311 H 0.85548 0.87901 0.80815 0.0
H312 H 0.8969 0.82945 0.81491 0.0
H313 H 0.87736 0.83716 0.82779 0.0
H314 H 0.89585 0.79181 0.83702 0.0
H315 H 0.87631 0.79951 0.84973 0.0
H316 H 0.81251 0.80263 0.88386 0.0
H317 H 0.81288 0.83812 0.90874 0.0
H318 H 0.82155 0.85156 0.88972 0.0
H319 H 0.82124 0.81598 0.8649 0.0
C320 C 0.19173 0.65278 0.70701 0.0
C321 C 0.2041 0.65063 0.70059 0.0
C322 C 0.20823 0.63123 0.71518 0.0
C323 C 0.21228 0.63994 0.70463 0.0
C324 C 0.19566 0.63323 0.72133 0.0
C325 C 0.1875 0.64394 0.7173 0.0
U326 U 0.18406 0.68298 0.68433 0.0
O327 O 0.16455 0.69076 0.67709 0.0
O328 O 0.1779 0.70343 0.68962 0.0
C329 C 0.166 0.70211 0.68374 0.0
C330 C 0.18336 0.66438 0.70332 0.0
C331 C 0.15439 0.7061 0.69191 0.0
C332 C 0.14097 0.70439 0.71234 0.0
C333 C 0.15169 0.69997 0.70443 0.0
C334 C 0.13538 0.72091 0.69516 0.0
C335 C 0.13282 0.71505 0.70788 0.0
C336 C 0.14609 0.71649 0.68728 0.0
C337 C 0.20763 0.69069 0.65445 0.0
C338 C 0.20655 0.71096 0.64059 0.0
C339 C 0.22297 0.6939 0.63561 0.0
C340 C 0.21818 0.68609 0.64642 0.0
C341 C 0.21733 0.7065 0.63267 0.0
C342 C 0.20174 0.70312 0.65141 0.0
C343 C 0.20325 0.68253 0.66613 0.0
O344 O 0.18923 0.67624 0.70487 0.0
O345 O 0.17659 0.66332 0.69191 0.0
O346 O 0.19164 0.67601 0.66477 0.0
O347 O 0.20472 0.6883 0.67795 0.0
H348 H 0.20749 0.6573 0.69255 0.0
H349 H 0.2218 0.6385 0.69955 0.0
H350 H 0.1923 0.6267 0.72949 0.0
H351 H 0.17797 0.64544 0.72235 0.0
H352 H 0.13925 0.6997 0.72209 0.0
H353 H 0.15799 0.69191 0.70816 0.0
H354 H 0.12911 0.72893 0.69133 0.0
H355 H 0.14798 0.72129 0.67761 0.0
H356 H 0.20185 0.72052 0.63843 0.0
H357 H 0.23133 0.69023 0.62975 0.0
H358 H 0.22285 0.67652 0.64862 0.0
H359 H 0.19353 0.70679 0.65748 0.0
C360 C 0.82198 0.69243 0.65955 0.0
C361 C 0.83104 0.70206 0.65418 0.0
C362 C 0.81404 0.70905 0.63776 0.0
C363 C 0.82713 0.71024 0.64333 0.0
C364 C 0.80507 0.69926 0.64308 0.0
C365 C 0.80901 0.69104 0.6539 0.0
U366 U 0.84498 0.6855 0.68967 0.0
O367 O 0.84005 0.6789 0.7103 0.0
O368 O 0.85291 0.66642 0.69769 0.0
C369 C 0.84622 0.66736 0.70905 0.0
C370 C 0.82579 0.68408 0.67126 0.0
C371 C 0.83825 0.65533 0.71301 0.0
C372 C 0.81786 0.64139 0.71146 0.0
C373 C 0.82548 0.65265 0.70727 0.0
C374 C 0.83578 0.63526 0.72701 0.0
C375 C 0.82293 0.63256 0.72138 0.0
C376 C 0.84337 0.64654 0.72284 0.0
C377 C 0.87419 0.71093 0.69624 0.0
C378 C 0.89061 0.70944 0.71457 0.0
C379 C 0.8902 0.72929 0.70021 0.0
C380 C 0.87952 0.72363 0.69278 0.0
C381 C 0.89574 0.72234 0.71129 0.0
C382 C 0.87984 0.70378 0.70712 0.0
C383 C 0.86253 0.70563 0.68854 0.0
O384 O 0.83732 0.67777 0.67027 0.0
O385 O 0.82418 0.68975 0.68306 0.0
O386 O 0.85078 0.70638 0.69456 0.0
O387 O 0.86423 0.69414 0.68233 0.0
H388 H 0.8411 0.70329 0.65843 0.0
H389 H 0.83435 0.71749 0.63928 0.0
H390 H 0.79491 0.69814 0.63905 0.0
H391 H 0.80187 0.6837 0.65795 0.0
H392 H 0.80789 0.63976 0.70715 0.0
H393 H 0.82135 0.65937 0.69969 0.0
H394 H 0.83996 0.62863 0.73463 0.0
H395 H 0.85321 0.64844 0.72737 0.0
H396 H 0.89472 0.70388 0.72306 0.0
H397 H 0.89412 0.73914 0.69732 0.0
H398 H 0.87531 0.72927 0.68438 0.0
H399 H 0.87582 0.69395 0.70994 0.0
C400 C 0.82456 0.3353 0.65936 0.0
C401 C 0.83157 0.3237 0.65577 0.0
C402 C 0.81564 0.31961 0.63729 0.0
C403 C 0.82716 0.31593 0.64477 0.0
C404 C 0.80887 0.33142 0.64077 0.0
C405 C 0.81328 0.33917 0.65173 0.0
U406 U 0.84785 0.3428 0.68962 0.0
O407 O 0.85475 0.36241 0.69774 0.0
O408 O 0.84269 0.34851 0.7103 0.0
C409 C 0.84808 0.36066 0.70907 0.0
C410 C 0.82859 0.3433 0.67122 0.0
C411 C 0.83978 0.37207 0.71358 0.0
C412 C 0.83837 0.39576 0.71965 0.0
C413 C 0.8456 0.38506 0.71428 0.0
C414 C 0.81924 0.38075 0.72354 0.0
C415 C 0.82523 0.39364 0.72461 0.0
C416 C 0.82643 0.37007 0.71809 0.0
C417 C 0.87816 0.32008 0.69686 0.0
C418 C 0.89123 0.32046 0.71774 0.0
C419 C 0.89774 0.30581 0.69953 0.0
C420 C 0.88696 0.31051 0.6917 0.0
C421 C 0.89986 0.31056 0.71273 0.0
C422 C 0.88044 0.32516 0.70987 0.0
C423 C 0.86642 0.32421 0.68871 0.0
O424 O 0.8273 0.33713 0.68293 0.0
O425 O 0.83997 0.35024 0.67015 0.0
O426 O 0.86757 0.33587 0.68242 0.0
O427 O 0.85458 0.32234 0.69442 0.0
H428 H 0.84031 0.32057 0.66156 0.0
H429 H 0.83256 0.30688 0.64232 0.0
H430 H 0.80014 0.33465 0.63503 0.0
H431 H 0.8078 0.34813 0.65432 0.0
H432 H 0.84323 0.40559 0.72038 0.0
H433 H 0.85588 0.38688 0.71095 0.0
H434 H 0.80904 0.37888 0.72709 0.0
H435 H 0.82159 0.36022 0.71767 0.0
H436 H 0.89262 0.3243 0.72787 0.0
H437 H 0.90438 0.29842 0.69529 0.0
H438 H 0.88539 0.30652 0.68164 0.0
H439 H 0.87375 0.33259 0.71402 0.0
C440 C 0.15772 0.31085 0.69406 0.0
C441 C 0.15301 0.31816 0.7051 0.0
C442 C 0.13481 0.30161 0.70844 0.0
C443 C 0.14165 0.31355 0.71227 0.0
C444 C 0.13968 0.29432 0.69742 0.0
C445 C 0.151 0.29893 0.69029 0.0
U446 U 0.18717 0.33556 0.68704 0.0
O447 O 0.20818 0.33137 0.68156 0.0
O448 O 0.1953 0.34268 0.66758 0.0
C449 C 0.20685 0.33653 0.66937 0.0
C450 C 0.16969 0.31535 0.68641 0.0
C451 C 0.21169 0.32826 0.65799 0.0
C452 C 0.21303 0.32403 0.63381 0.0
C453 C 0.20779 0.33124 0.64462 0.0
C454 C 0.2262 0.31069 0.64944 0.0
C455 C 0.22233 0.31371 0.6361 0.0
C456 C 0.22097 0.31788 0.66025 0.0
C457 C 0.1923 0.3668 0.70925 0.0
C458 C 0.21135 0.38246 0.7071 0.0
C459 C 0.19417 0.38626 0.7239 0.0
C460 C 0.18724 0.37462 0.71972 0.0
C461 C 0.20629 0.39034 0.71762 0.0
C462 C 0.20438 0.37079 0.70292 0.0
C463 C 0.18495 0.35441 0.70534 0.0
O464 O 0.16829 0.32642 0.67923 0.0
O465 O 0.18126 0.31491 0.69298 0.0
O466 O 0.19141 0.34313 0.70747 0.0
O467 O 0.1787 0.35479 0.69359 0.0
H468 H 0.15812 0.32739 0.70816 0.0
H469 H 0.13815 0.31934 0.72074 0.0
H470 H 0.13486 0.28492 0.69445 0.0
H471 H 0.15456 0.29311 0.68186 0.0
H472 H 0.21009 0.3268 0.62363 0.0
H473 H 0.20087 0.33934 0.64248 0.0
H474 H 0.23337 0.3028 0.65151 0.0
H475 H 0.22436 0.31541 0.67037 0.0
H476 H 0.22068 0.38534 0.7021 0.0
H477 H 0.19019 0.39191 0.73225 0.0
H478 H 0.17798 0.37163 0.72479 0.0
H479 H 0.20844 0.36484 0.69482 0.0
C480 C 0.15781 0.31069 0.34059 0.0
C481 C 0.15508 0.31601 0.32772 0.0
C482 C 0.13576 0.30061 0.32528 0.0
C483 C 0.14416 0.31096 0.32009 0.0
C484 C 0.1385 0.29543 0.33824 0.0
C485 C 0.14941 0.30045 0.34582 0.0
U486 U 0.18717 0.33546 0.34792 0.0
O487 O 0.19494 0.34271 0.3675 0.0
O488 O 0.20803 0.3312 0.35421 0.0
C489 C 0.20655 0.33661 0.36616 0.0
C490 C 0.16956 0.31536 0.34857 0.0
C491 C 0.21069 0.32814 0.37766 0.0
C492 C 0.20928 0.30716 0.39039 0.0
C493 C 0.20491 0.31529 0.37967 0.0
C494 C 0.22509 0.32474 0.39731 0.0
C495 C 0.21943 0.31179 0.39931 0.0
C496 C 0.22075 0.33284 0.38657 0.0
C497 C 0.19364 0.36621 0.32537 0.0
C498 C 0.21362 0.38054 0.32804 0.0
C499 C 0.197 0.38575 0.31079 0.0
C500 C 0.18922 0.37453 0.3148 0.0
C501 C 0.20938 0.38876 0.31724 0.0
C502 C 0.20583 0.36934 0.33206 0.0
C503 C 0.18566 0.35411 0.32905 0.0
O504 O 0.18131 0.31473 0.34252 0.0
O505 O 0.168 0.32659 0.35528 0.0
O506 O 0.17912 0.35472 0.34052 0.0
O507 O 0.19182 0.34261 0.3274 0.0
H508 H 0.16147 0.32393 0.32352 0.0
H509 H 0.14229 0.31513 0.31014 0.0
H510 H 0.1324 0.28726 0.34239 0.0
H511 H 0.15143 0.29618 0.35571 0.0
H512 H 0.20473 0.29724 0.39171 0.0
H513 H 0.19711 0.31151 0.37289 0.0
H514 H 0.2331 0.32847 0.40386 0.0
H515 H 0.22535 0.34272 0.38512 0.0
H516 H 0.223 0.38276 0.33335 0.0
H517 H 0.1935 0.39188 0.30243 0.0
H518 H 0.17983 0.37226 0.30953 0.0
H519 H 0.20936 0.36305 0.3403 0.0
C520 C 0.15272 0.69295 0.32104 0.0
C521 C 0.15119 0.7061 0.32584 0.0
C522 C 0.13166 0.70915 0.31103 0.0
C523 C 0.14073 0.71413 0.32088 0.0
C524 C 0.13306 0.69584 0.30653 0.0
C525 C 0.14352 0.68784 0.31147 0.0
U526 U 0.18242 0.68562 0.34487 0.0
O527 O 0.18929 0.66624 0.3532 0.0
O528 O 0.20271 0.67836 0.34024 0.0
C529 C 0.20077 0.66684 0.3466 0.0
C530 C 0.16402 0.68457 0.32562 0.0
C531 C 0.20417 0.65477 0.33886 0.0
C532 C 0.20179 0.64095 0.3188 0.0
C533 C 0.19786 0.65201 0.32643 0.0
C534 C 0.21812 0.63506 0.33611 0.0
C535 C 0.21212 0.63248 0.32346 0.0
C536 C 0.2142 0.64615 0.34371 0.0
C537 C 0.19093 0.71074 0.37363 0.0
C538 C 0.19552 0.71162 0.39784 0.0
C539 C 0.20732 0.72694 0.38272 0.0
C540 C 0.2004 0.72129 0.37173 0.0
C541 C 0.20491 0.72224 0.39591 0.0
C542 C 0.18859 0.70594 0.38683 0.0
C543 C 0.18276 0.70573 0.36201 0.0
O544 O 0.17615 0.68992 0.32399 0.0
O545 O 0.16249 0.6786 0.33741 0.0
O546 O 0.17554 0.69462 0.36383 0.0
O547 O 0.18856 0.70634 0.35011 0.0
H548 H 0.15818 0.7102 0.33326 0.0
H549 H 0.13992 0.72434 0.32452 0.0
H550 H 0.12606 0.69162 0.29918 0.0
H551 H 0.1445 0.67768 0.30772 0.0
H552 H 0.19682 0.63906 0.30921 0.0
H553 H 0.19003 0.65853 0.32256 0.0
H554 H 0.22611 0.62873 0.33993 0.0
H555 H 0.21917 0.64812 0.35329 0.0
H556 H 0.19322 0.70797 0.4079 0.0
H557 H 0.2145 0.7351 0.38091 0.0
H558 H 0.20229 0.72538 0.36175 0.0
H559 H 0.18119 0.698 0.38872 0.0
C560 C 0.82601 0.65851 0.33854 0.0
C561 C 0.83462 0.65354 0.32861 0.0
C562 C 0.81793 0.63611 0.32289 0.0
C563 C 0.83062 0.6424 0.32085 0.0
C564 C 0.8094 0.64113 0.3329 0.0
C565 C 0.81342 0.65221 0.34066 0.0
U566 U 0.84849 0.68952 0.34554 0.0
O567 O 0.84276 0.70993 0.35145 0.0
O568 O 0.85556 0.69793 0.36492 0.0
C569 C 0.84832 0.70886 0.36349 0.0
C570 C 0.82977 0.67045 0.34653 0.0
C571 C 0.83979 0.7126 0.37514 0.0
C572 C 0.83595 0.71319 0.39942 0.0
C573 C 0.84379 0.70939 0.38841 0.0
C574 C 0.82004 0.72372 0.38417 0.0
C575 C 0.82394 0.72031 0.39741 0.0
C576 C 0.82786 0.71991 0.37317 0.0
C577 C 0.87809 0.69758 0.3216 0.0
C578 C 0.89244 0.71766 0.32307 0.0
C579 C 0.89549 0.70184 0.30488 0.0
C580 C 0.88502 0.69374 0.31001 0.0
C581 C 0.89918 0.71398 0.31123 0.0
C582 C 0.88191 0.70954 0.3282 0.0
C583 C 0.86662 0.68921 0.32629 0.0
O584 O 0.84128 0.66983 0.35321 0.0
O585 O 0.82802 0.68208 0.34042 0.0
O586 O 0.85465 0.69458 0.32483 0.0
O587 O 0.86822 0.68306 0.33797 0.0
H588 H 0.84435 0.65836 0.32676 0.0
H589 H 0.8373 0.63889 0.31306 0.0
H590 H 0.79959 0.63647 0.33471 0.0
H591 H 0.80664 0.65594 0.34826 0.0
H592 H 0.83924 0.7105 0.40952 0.0
H593 H 0.85303 0.70396 0.39031 0.0
H594 H 0.81104 0.72953 0.38231 0.0
H595 H 0.82458 0.72282 0.36313 0.0
H596 H 0.89508 0.72697 0.32815 0.0
H597 H 0.90068 0.69864 0.29589 0.0
H598 H 0.88223 0.68452 0.30483 0.0
H599 H 0.87664 0.71266 0.33716 0.0
C600 C 0.84662 0.37211 0.32103 0.0
C601 C 0.83248 0.37135 0.31951 0.0
C602 C 0.83201 0.39486 0.31237 0.0
C603 C 0.82527 0.38259 0.31515 0.0
C604 C 0.84611 0.3957 0.31413 0.0
C605 C 0.85334 0.38441 0.31838 0.0
U606 U 0.8534 0.34139 0.34367 0.0
O607 O 0.85881 0.32075 0.33822 0.0
O608 O 0.87265 0.3329 0.35075 0.0
C609 C 0.87072 0.32159 0.34413 0.0
C610 C 0.85456 0.36015 0.32488 0.0
C611 C 0.88212 0.31692 0.33605 0.0
C612 C 0.89843 0.32 0.31797 0.0
C613 C 0.888 0.32501 0.32592 0.0
C614 C 0.89726 0.29885 0.33029 0.0
C615 C 0.90301 0.30678 0.31995 0.0
C616 C 0.8869 0.30387 0.33824 0.0
C617 C 0.82928 0.33391 0.37355 0.0
C618 C 0.83004 0.32795 0.39747 0.0
C619 C 0.81195 0.31919 0.38333 0.0
C620 C 0.81744 0.32601 0.3722 0.0
C621 C 0.81811 0.32016 0.39611 0.0
C622 C 0.83557 0.33476 0.38631 0.0
C623 C 0.83422 0.34203 0.36187 0.0
O624 O 0.86139 0.36097 0.33628 0.0
O625 O 0.84858 0.34836 0.32314 0.0
O626 O 0.83254 0.33663 0.34989 0.0
O627 O 0.84593 0.34838 0.36325 0.0
H628 H 0.82699 0.36203 0.32154 0.0
H629 H 0.8144 0.3817 0.31392 0.0
H630 H 0.85157 0.40498 0.31189 0.0
H631 H 0.86424 0.38523 0.31942 0.0
H632 H 0.90269 0.32631 0.31006 0.0
H633 H 0.88439 0.3351 0.32405 0.0
H634 H 0.90074 0.28872 0.33219 0.0
H635 H 0.88251 0.2975 0.34603 0.0
H636 H 0.83487 0.32913 0.40724 0.0
H637 H 0.80276 0.31325 0.38196 0.0
H638 H 0.81224 0.32529 0.36257 0.0
H639 H 0.84459 0.34093 0.38779 0.0
C640 C 0.6944 0.15379 0.71118 0.0
C641 C 0.70514 0.14913 0.7034 0.0
C642 C 0.70956 0.13152 0.72009 0.0
C643 C 0.71266 0.13809 0.70783 0.0
C644 C 0.69879 0.13628 0.72783 0.0
C645 C 0.69127 0.14729 0.72339 0.0
U646 U 0.6889 0.18415 0.68795 0.0
O647 O 0.67012 0.19218 0.67921 0.0
O648 O 0.68254 0.20466 0.69282 0.0
C649 C 0.67121 0.20354 0.68588 0.0
C650 C 0.68659 0.16558 0.70687 0.0
C651 C 0.65893 0.20798 0.69275 0.0
C652 C 0.64358 0.20745 0.71183 0.0
C653 C 0.65505 0.20262 0.70532 0.0
C654 C 0.6397 0.22287 0.6932 0.0
C655 C 0.63577 0.21763 0.70583 0.0
C656 C 0.65115 0.21806 0.68673 0.0
C657 C 0.71463 0.19178 0.65957 0.0
C658 C 0.71898 0.1941 0.63545 0.0
C659 C 0.7284 0.2105 0.65099 0.0
C660 C 0.72234 0.20361 0.66178 0.0
C661 C 0.72698 0.2057 0.63774 0.0
C662 C 0.71295 0.18716 0.64626 0.0
C663 C 0.70925 0.18367 0.67106 0.0
O664 O 0.69259 0.17732 0.70881 0.0
O665 O 0.6806 0.16466 0.69501 0.0
O666 O 0.69779 0.17705 0.669 0.0
O667 O 0.71004 0.18916 0.68308 0.0
H668 H 0.70774 0.15407 0.69397 0.0
H669 H 0.72089 0.13467 0.70165 0.0
H670 H 0.69636 0.13168 0.73747 0.0
H671 H 0.68309 0.15083 0.72957 0.0
H672 H 0.64081 0.20325 0.72156 0.0
H673 H 0.66096 0.19483 0.71013 0.0
H674 H 0.63411 0.23093 0.68846 0.0
H675 H 0.65404 0.22238 0.67708 0.0
H676 H 0.71775 0.19017 0.62534 0.0
H677 H 0.73433 0.21954 0.65302 0.0
H678 H 0.72393 0.20745 0.67188 0.0
H679 H 0.70721 0.17801 0.64422 0.0
C680 C 0.31978 0.18615 0.66022 0.0
C681 C 0.32329 0.18252 0.64701 0.0
C682 C 0.30968 0.20062 0.63769 0.0
C683 C 0.31837 0.18974 0.63587 0.0
C684 C 0.30624 0.2043 0.65087 0.0
C685 C 0.31115 0.19711 0.66199 0.0
U686 U 0.34475 0.17948 0.68937 0.0
O687 O 0.34082 0.17365 0.71043 0.0
O688 O 0.3524 0.16031 0.69748 0.0
C689 C 0.34635 0.16179 0.70913 0.0
C690 C 0.32456 0.17819 0.67202 0.0
C691 C 0.33792 0.1503 0.71366 0.0
C692 C 0.31694 0.13725 0.71263 0.0
C693 C 0.3252 0.14775 0.70776 0.0
C694 C 0.33414 0.13153 0.72913 0.0
C695 C 0.32124 0.12916 0.7235 0.0
C696 C 0.34239 0.14206 0.72427 0.0
C697 C 0.37485 0.2043 0.69391 0.0
C698 C 0.39065 0.20418 0.71283 0.0
C699 C 0.39254 0.22145 0.69551 0.0
C700 C 0.3815 0.21573 0.68868 0.0
C701 C 0.39717 0.21583 0.70772 0.0
C702 C 0.37953 0.19846 0.70597 0.0
C703 C 0.36273 0.19911 0.68688 0.0
O704 O 0.33585 0.17155 0.67052 0.0
O705 O 0.32374 0.18399 0.68387 0.0
O706 O 0.35129 0.20033 0.69339 0.0
O707 O 0.36385 0.1874 0.6809 0.0
H708 H 0.32977 0.17403 0.64525 0.0
H709 H 0.32116 0.18667 0.62581 0.0
H710 H 0.29978 0.21281 0.6526 0.0
H711 H 0.30813 0.20015 0.67199 0.0
H712 H 0.30714 0.13549 0.70795 0.0
H713 H 0.32162 0.15398 0.6995 0.0
H714 H 0.3377 0.12546 0.73752 0.0
H715 H 0.35218 0.14389 0.72894 0.0
H716 H 0.39388 0.19975 0.72231 0.0
H717 H 0.39741 0.23037 0.69131 0.0
H718 H 0.37801 0.22037 0.67939 0.0
H719 H 0.37445 0.18965 0.71018 0.0
C720 C 0.31871 0.8362 0.65919 0.0
C721 C 0.3067 0.82851 0.66027 0.0
C722 C 0.30909 0.82057 0.63724 0.0
C723 C 0.30196 0.82076 0.64945 0.0
C724 C 0.32092 0.82849 0.63599 0.0
C725 C 0.32572 0.8362 0.64687 0.0
U726 U 0.34345 0.84349 0.68846 0.0
O727 O 0.35155 0.86272 0.69626 0.0
O728 O 0.33933 0.84948 0.70934 0.0
C729 C 0.34558 0.86118 0.708 0.0
C730 C 0.32348 0.84434 0.67085 0.0
C731 C 0.33825 0.87288 0.71302 0.0
C732 C 0.32064 0.88961 0.71091 0.0
C733 C 0.32758 0.87862 0.70568 0.0
C734 C 0.33502 0.88921 0.7308 0.0
C735 C 0.32424 0.89497 0.72358 0.0
C736 C 0.34193 0.87828 0.72557 0.0
C737 C 0.37319 0.81982 0.6945 0.0
C738 C 0.39029 0.82338 0.71194 0.0
C739 C 0.38965 0.80254 0.69936 0.0
C740 C 0.37855 0.80713 0.69195 0.0
C741 C 0.39565 0.81059 0.70945 0.0
C742 C 0.37912 0.82795 0.70454 0.0
C743 C 0.36122 0.8242 0.68684 0.0
O744 O 0.32241 0.83851 0.68276 0.0
O745 O 0.33488 0.85121 0.66941 0.0
O746 O 0.36244 0.83574 0.68035 0.0
O747 O 0.34964 0.82279 0.69315 0.0
H748 H 0.30095 0.82849 0.66954 0.0
H749 H 0.29265 0.81498 0.65059 0.0
H750 H 0.32659 0.82855 0.62668 0.0
H751 H 0.33493 0.84211 0.6456 0.0
H752 H 0.31253 0.89396 0.70501 0.0
H753 H 0.32461 0.87458 0.69595 0.0
H754 H 0.33796 0.89301 0.74062 0.0
H755 H 0.35012 0.87396 0.73139 0.0
H756 H 0.39454 0.8297 0.71981 0.0
H757 H 0.39358 0.79267 0.6972 0.0
H758 H 0.37408 0.80071 0.68427 0.0
H759 H 0.37504 0.83775 0.70672 0.0
C760 C 0.65847 0.81803 0.69119 0.0
C761 C 0.65542 0.82266 0.70416 0.0
C762 C 0.63549 0.80788 0.70489 0.0
C763 C 0.64405 0.81758 0.71098 0.0
C764 C 0.63856 0.80339 0.69186 0.0
C765 C 0.64993 0.80843 0.68508 0.0
U766 U 0.68868 0.84235 0.68674 0.0
O767 O 0.70967 0.83802 0.68123 0.0
O768 O 0.6974 0.85097 0.66816 0.0
C769 C 0.70889 0.84468 0.66975 0.0
C770 C 0.67064 0.82281 0.68403 0.0
C771 C 0.71393 0.83763 0.65783 0.0
C772 C 0.71164 0.82055 0.64045 0.0
C773 C 0.70651 0.8271 0.65176 0.0
C774 C 0.73164 0.83496 0.64126 0.0
C775 C 0.72423 0.82448 0.63502 0.0
C776 C 0.72651 0.84148 0.65252 0.0
C777 C 0.69485 0.87134 0.71122 0.0
C778 C 0.71464 0.88608 0.7095 0.0
C779 C 0.6982 0.8897 0.72706 0.0
C780 C 0.69051 0.87872 0.72234 0.0
C781 C 0.71036 0.8935 0.72069 0.0
C782 C 0.70693 0.87511 0.70478 0.0
C783 C 0.68681 0.85964 0.70657 0.0
O784 O 0.66966 0.83451 0.67785 0.0
O785 O 0.68213 0.82142 0.69059 0.0
O786 O 0.69273 0.84794 0.70784 0.0
O787 O 0.68064 0.86115 0.69488 0.0
H788 H 0.66191 0.83009 0.70904 0.0
H789 H 0.64193 0.82122 0.72101 0.0
H790 H 0.63233 0.79572 0.68703 0.0
H791 H 0.65216 0.8047 0.67511 0.0
H792 H 0.70574 0.81247 0.63588 0.0
H793 H 0.69679 0.82395 0.65578 0.0
H794 H 0.74152 0.83798 0.63757 0.0
H795 H 0.73242 0.84952 0.65715 0.0
H796 H 0.72395 0.88878 0.70438 0.0
H797 H 0.69478 0.89504 0.73586 0.0
H798 H 0.68123 0.8759 0.72747 0.0
H799 H 0.71044 0.86952 0.69617 0.0
C800 C 0.6587 0.81495 0.34115 0.0
C801 C 0.655 0.82121 0.32896 0.0
C802 C 0.63719 0.8043 0.32548 0.0
C803 C 0.6443 0.81594 0.3212 0.0
C804 C 0.64076 0.79827 0.33786 0.0
C805 C 0.65145 0.80354 0.3456 0.0
U806 U 0.68732 0.84051 0.34785 0.0
O807 O 0.69499 0.8486 0.36714 0.0
O808 O 0.70836 0.83714 0.3541 0.0
C809 C 0.70676 0.84281 0.36592 0.0
C810 C 0.67027 0.81997 0.34917 0.0
C811 C 0.71117 0.83469 0.37757 0.0
C812 C 0.71009 0.81399 0.39079 0.0
C813 C 0.70534 0.82195 0.38012 0.0
C814 C 0.72633 0.83156 0.39671 0.0
C815 C 0.72077 0.81864 0.39907 0.0
C816 C 0.72159 0.8395 0.386 0.0
C817 C 0.69206 0.87044 0.32333 0.0
C818 C 0.70964 0.88773 0.32551 0.0
C819 C 0.69487 0.88754 0.30591 0.0
C820 C 0.68809 0.87617 0.31101 0.0
C821 C 0.70578 0.89341 0.31304 0.0
C822 C 0.70284 0.8763 0.33061 0.0
C823 C 0.68498 0.85821 0.32816 0.0
O824 O 0.68207 0.81944 0.34322 0.0
O825 O 0.66844 0.83135 0.35555 0.0
O826 O 0.67866 0.8592 0.33973 0.0
O827 O 0.69167 0.84696 0.32703 0.0
H828 H 0.66049 0.83006 0.32539 0.0
H829 H 0.64177 0.82078 0.3117 0.0
H830 H 0.63529 0.78947 0.34155 0.0
H831 H 0.65413 0.79863 0.35502 0.0
H832 H 0.70547 0.80417 0.39253 0.0
H833 H 0.69722 0.81811 0.37374 0.0
H834 H 0.73457 0.83537 0.40292 0.0
H835 H 0.72619 0.84932 0.38418 0.0
H836 H 0.71786 0.89215 0.33134 0.0
H837 H 0.69173 0.8916 0.29623 0.0
H838 H 0.67982 0.87175 0.30523 0.0
H839 H 0.70602 0.872 0.34017 0.0
C840 C 0.65708 0.19438 0.32341 0.0
C841 C 0.64428 0.19256 0.32934 0.0
C842 C 0.63495 0.21022 0.315 0.0
C843 C 0.63335 0.20041 0.32519 0.0
C844 C 0.64769 0.21193 0.30898 0.0
C845 C 0.6586 0.20409 0.3131 0.0
U846 U 0.68768 0.18558 0.34597 0.0
O847 O 0.69489 0.16588 0.35304 0.0
O848 O 0.70783 0.17866 0.3402 0.0
C849 C 0.7062 0.16691 0.3462 0.0
C850 C 0.66864 0.18576 0.32733 0.0
C851 C 0.70971 0.15512 0.33809 0.0
C852 C 0.7053 0.13976 0.3195 0.0
C853 C 0.70153 0.15081 0.32727 0.0
C854 C 0.7254 0.13723 0.33335 0.0
C855 C 0.7173 0.13287 0.32246 0.0
C856 C 0.72161 0.14824 0.3411 0.0
C857 C 0.69721 0.20872 0.3758 0.0
C858 C 0.71917 0.21512 0.38523 0.0
C859 C 0.69898 0.21759 0.39859 0.0
C860 C 0.69114 0.21242 0.38795 0.0
C861 C 0.71303 0.21929 0.39721 0.0
C862 C 0.71135 0.20985 0.37462 0.0
C863 C 0.68854 0.20459 0.36427 0.0
O864 O 0.68079 0.19104 0.32554 0.0
O865 O 0.66757 0.17891 0.3387 0.0
O866 O 0.68149 0.19334 0.36578 0.0
O867 O 0.69383 0.20597 0.35219 0.0
H868 H 0.64266 0.185 0.33712 0.0
H869 H 0.62358 0.19863 0.32981 0.0
H870 H 0.64924 0.21941 0.30111 0.0
H871 H 0.66824 0.20561 0.30814 0.0
H872 H 0.69899 0.13678 0.31103 0.0
H873 H 0.69233 0.15608 0.32475 0.0
H874 H 0.73467 0.13211 0.33589 0.0
H875 H 0.72805 0.15144 0.34941 0.0
H876 H 0.73002 0.21616 0.38399 0.0
H877 H 0.69399 0.22075 0.40771 0.0
H878 H 0.68027 0.21165 0.38909 0.0
H879 H 0.71634 0.20697 0.36541 0.0
C880 C 0.32588 0.15233 0.3371 0.0
C881 C 0.33365 0.14877 0.32592 0.0
C882 C 0.31778 0.13043 0.32076 0.0
C883 C 0.32963 0.1379 0.31781 0.0
C884 C 0.3101 0.13403 0.33203 0.0
C885 C 0.31414 0.14486 0.34013 0.0
U886 U 0.34851 0.18292 0.34536 0.0
O887 O 0.34281 0.20306 0.35223 0.0
O888 O 0.35567 0.19043 0.36504 0.0
C889 C 0.34874 0.20158 0.36403 0.0
C890 C 0.32965 0.16396 0.34552 0.0
C891 C 0.34046 0.20492 0.37578 0.0
C892 C 0.32259 0.19943 0.39174 0.0
C893 C 0.33048 0.19595 0.38065 0.0
C894 C 0.33454 0.22089 0.39314 0.0
C895 C 0.32458 0.21193 0.39815 0.0
C896 C 0.34242 0.21739 0.38209 0.0
C897 C 0.37853 0.19215 0.32274 0.0
C898 C 0.39328 0.21153 0.32695 0.0
C899 C 0.3966 0.19786 0.30713 0.0
C900 C 0.38572 0.18954 0.31094 0.0
C901 C 0.40054 0.20894 0.3151 0.0
C902 C 0.38237 0.20319 0.33075 0.0
C903 C 0.36692 0.18344 0.32636 0.0
O904 O 0.34111 0.16301 0.35224 0.0
O905 O 0.32805 0.17582 0.33981 0.0
O906 O 0.355 0.18895 0.32497 0.0
O907 O 0.36819 0.17652 0.33764 0.0
H908 H 0.34272 0.1545 0.32339 0.0
H909 H 0.33562 0.13552 0.30906 0.0
H910 H 0.30095 0.12845 0.33456 0.0
H911 H 0.30801 0.14748 0.34871 0.0
H912 H 0.31498 0.19234 0.39536 0.0
H913 H 0.32878 0.18629 0.37585 0.0
H914 H 0.33608 0.23072 0.39761 0.0
H915 H 0.35 0.22448 0.37839 0.0
H916 H 0.39607 0.21999 0.33328 0.0
H917 H 0.40176 0.19579 0.29778 0.0
H918 H 0.38282 0.18112 0.30458 0.0
H919 H 0.37689 0.20538 0.33988 0.0
C920 C 0.32664 0.8714 0.33446 0.0
C921 C 0.31605 0.87026 0.32497 0.0
C922 C 0.31891 0.89387 0.31856 0.0
C923 C 0.31226 0.88134 0.3171 0.0
C924 C 0.32943 0.89508 0.32812 0.0
C925 C 0.33324 0.88398 0.33599 0.0
U926 U 0.34842 0.84087 0.34425 0.0
O927 O 0.35538 0.83476 0.32419 0.0
O928 O 0.36849 0.84738 0.33702 0.0
C929 C 0.36736 0.84045 0.32579 0.0
C930 C 0.33008 0.85971 0.3432 0.0
C931 C 0.37894 0.83203 0.32236 0.0
C932 C 0.39583 0.82564 0.30603 0.0
C933 C 0.38492 0.83358 0.30966 0.0
C934 C 0.39493 0.81443 0.32781 0.0
C935 C 0.40103 0.81603 0.31508 0.0
C936 C 0.38397 0.82238 0.33142 0.0
C937 C 0.33863 0.8191 0.37477 0.0
C938 C 0.33331 0.80494 0.39419 0.0
C939 C 0.31797 0.82253 0.38735 0.0
C940 C 0.32664 0.82616 0.37677 0.0
C941 C 0.32113 0.81177 0.39607 0.0
C942 C 0.34196 0.80856 0.3836 0.0
C943 C 0.34754 0.82236 0.36333 0.0
O944 O 0.34121 0.86072 0.35049 0.0
O945 O 0.3283 0.84771 0.33787 0.0
O946 O 0.34208 0.82071 0.35132 0.0
O947 O 0.35467 0.83361 0.36437 0.0
H948 H 0.3106 0.8608 0.32368 0.0
H949 H 0.30414 0.88009 0.30981 0.0
H950 H 0.33454 0.90467 0.32971 0.0
H951 H 0.34126 0.88532 0.34337 0.0
H952 H 0.40004 0.82686 0.29603 0.0
H953 H 0.38108 0.84089 0.30249 0.0
H954 H 0.39869 0.80708 0.33497 0.0
H955 H 0.37942 0.821 0.34126 0.0
H956 H 0.33599 0.7966 0.40072 0.0
H957 H 0.30878 0.82813 0.3887 0.0
H958 H 0.32395 0.83438 0.37008 0.0
H959 H 0.35118 0.80301 0.38221 0.0
C960 C 0.69853 0.65215 0.21194 0.0
C961 C 0.71117 0.65038 0.20589 0.0
C962 C 0.71512 0.63066 0.2201 0.0
C963 C 0.71941 0.63976 0.20998 0.0
C964 C 0.7024 0.63243 0.22603 0.0
C965 C 0.69419 0.64308 0.22197 0.0
U966 U 0.69004 0.68189 0.18886 0.0
O967 O 0.67034 0.68884 0.18132 0.0
O968 O 0.68302 0.70213 0.1939 0.0
C969 C 0.67132 0.70035 0.18775 0.0
C970 C 0.68992 0.66352 0.20808 0.0
C971 C 0.65932 0.70429 0.19539 0.0
C972 C 0.64472 0.70249 0.215 0.0
C973 C 0.65603 0.69824 0.20781 0.0
C974 C 0.6399 0.71877 0.19736 0.0
C975 C 0.63651 0.71278 0.20981 0.0
C976 C 0.65118 0.71454 0.19022 0.0
C977 C 0.71266 0.69034 0.1587 0.0
C978 C 0.70934 0.71016 0.14461 0.0
C979 C 0.72696 0.69446 0.13921 0.0
C980 C 0.72329 0.68651 0.15035 0.0
C981 C 0.72003 0.70638 0.13621 0.0
C982 C 0.70566 0.70218 0.15574 0.0
C983 C 0.70913 0.68198 0.17053 0.0
O984 O 0.6955 0.67555 0.20946 0.0
O985 O 0.68317 0.66213 0.19669 0.0
O986 O 0.69788 0.67482 0.16945 0.0
O987 O 0.71047 0.68793 0.18228 0.0
H988 H 0.71468 0.65729 0.19811 0.0
H989 H 0.72915 0.63863 0.20522 0.0
H990 H 0.69893 0.62575 0.23402 0.0
H991 H 0.68449 0.64432 0.22678 0.0
H992 H 0.64237 0.69772 0.22458 0.0
H993 H 0.66224 0.69031 0.21197 0.0
H994 H 0.634 0.72695 0.19326 0.0
H995 H 0.65363 0.71939 0.18069 0.0
H996 H 0.70382 0.71928 0.14253 0.0
H997 H 0.73541 0.69143 0.1331 0.0
H998 H 0.72884 0.67743 0.15253 0.0
H999 H 0.69741 0.70529 0.16208 0.0
C1000 C 0.3221 0.68665 0.16171 0.0
C1001 C 0.32683 0.68345 0.14877 0.0
C1002 C 0.31327 0.70119 0.13869 0.0
C1003 C 0.32252 0.6907 0.1374 0.0
C1004 C 0.30864 0.70447 0.15161 0.0
C1005 C 0.31293 0.69724 0.16296 0.0
U1006 U 0.34503 0.67871 0.19236 0.0
O1007 O 0.33926 0.67274 0.21298 0.0
O1008 O 0.35129 0.65916 0.2007 0.0
C1009 C 0.34453 0.66074 0.21194 0.0
C1010 C 0.326 0.67852 0.17372 0.0
C1011 C 0.3356 0.64942 0.21595 0.0
C1012 C 0.31711 0.63366 0.21122 0.0
C1013 C 0.32574 0.64421 0.20707 0.0
C1014 C 0.32813 0.63345 0.23313 0.0
C1015 C 0.31813 0.62825 0.22436 0.0
C1016 C 0.33677 0.64394 0.22896 0.0
C1017 C 0.37593 0.70112 0.2002 0.0
C1018 C 0.38854 0.69966 0.22128 0.0
C1019 C 0.39593 0.71524 0.20379 0.0
C1020 C 0.38514 0.71096 0.19557 0.0
C1021 C 0.39762 0.70979 0.21681 0.0
C1022 C 0.37777 0.69537 0.21304 0.0
C1023 C 0.36422 0.69733 0.19171 0.0
O1024 O 0.33708 0.67145 0.17285 0.0
O1025 O 0.3247 0.68432 0.18552 0.0
O1026 O 0.35234 0.69914 0.19721 0.0
O1027 O 0.36505 0.68579 0.18538 0.0
H1028 H 0.33375 0.67524 0.1474 0.0
H1029 H 0.32624 0.68795 0.12756 0.0
H1030 H 0.30173 0.71269 0.15296 0.0
H1031 H 0.30897 0.69991 0.17273 0.0
H1032 H 0.30968 0.62971 0.20415 0.0
H1033 H 0.32469 0.64832 0.19697 0.0
H1034 H 0.32912 0.62955 0.24332 0.0
H1035 H 0.3443 0.64787 0.23596 0.0
H1036 H 0.38974 0.69511 0.23117 0.0
H1037 H 0.40274 0.72306 0.2001 0.0
H1038 H 0.38387 0.71551 0.18568 0.0
H1039 H 0.37079 0.68769 0.21674 0.0
C1040 C 0.32187 0.3412 0.16017 0.0
C1041 C 0.32815 0.32906 0.15701 0.0
C1042 C 0.31312 0.32611 0.13759 0.0
C1043 C 0.32383 0.32159 0.14579 0.0
C1044 C 0.30706 0.33841 0.14068 0.0
C1045 C 0.31138 0.34586 0.15188 0.0
U1046 U 0.34473 0.34757 0.19097 0.0
O1047 O 0.3524 0.36675 0.19936 0.0
O1048 O 0.33928 0.35349 0.21153 0.0
C1049 C 0.3456 0.36521 0.21063 0.0
C1050 C 0.3259 0.34897 0.17218 0.0
C1051 C 0.3379 0.37692 0.21507 0.0
C1052 C 0.3175 0.39027 0.21503 0.0
C1053 C 0.32486 0.37945 0.21007 0.0
C1054 C 0.33622 0.39625 0.22983 0.0
C1055 C 0.3231 0.39878 0.22499 0.0
C1056 C 0.34354 0.38544 0.2249 0.0
C1057 C 0.37414 0.32387 0.1992 0.0
C1058 C 0.38373 0.30718 0.21448 0.0
C1059 C 0.39712 0.32675 0.20796 0.0
C1060 C 0.38637 0.33132 0.19996 0.0
C1061 C 0.39585 0.31471 0.21541 0.0
C1062 C 0.37302 0.31169 0.20645 0.0
C1063 C 0.36264 0.32832 0.19065 0.0
O1064 O 0.32413 0.34277 0.18381 0.0
O1065 O 0.33756 0.35547 0.17142 0.0
O1066 O 0.36418 0.33978 0.18403 0.0
O1067 O 0.35056 0.32681 0.19595 0.0
H1068 H 0.33628 0.32531 0.1633 0.0
H1069 H 0.32867 0.31214 0.14369 0.0
H1070 H 0.29898 0.3423 0.1344 0.0
H1071 H 0.30646 0.35525 0.15413 0.0
H1072 H 0.30741 0.39197 0.21113 0.0
H1073 H 0.32034 0.37297 0.20248 0.0
H1074 H 0.34069 0.40241 0.23771 0.0
H1075 H 0.35355 0.38359 0.22894 0.0
H1076 H 0.38257 0.29771 0.21989 0.0
H1077 H 0.40637 0.33273 0.20848 0.0
H1078 H 0.38765 0.34068 0.19441 0.0
H1079 H 0.36384 0.30561 0.20588 0.0
C1080 C 0.66009 0.32272 0.19814 0.0
C1081 C 0.65547 0.331 0.2085 0.0
C1082 C 0.63745 0.31474 0.21363 0.0
C1083 C 0.64424 0.32703 0.21619 0.0
C1084 C 0.64218 0.30647 0.20326 0.0
C1085 C 0.65337 0.31046 0.19558 0.0
U1086 U 0.69089 0.34548 0.19108 0.0
O1087 O 0.71137 0.34011 0.1848 0.0
O1088 O 0.69897 0.35288 0.17168 0.0
C1089 C 0.71013 0.34597 0.17293 0.0
C1090 C 0.672 0.32657 0.19009 0.0
C1091 C 0.71353 0.33752 0.16134 0.0
C1092 C 0.70983 0.31737 0.14795 0.0
C1093 C 0.70617 0.32563 0.15866 0.0
C1094 C 0.72808 0.33295 0.1423 0.0
C1095 C 0.72094 0.32086 0.13976 0.0
C1096 C 0.72442 0.34119 0.15304 0.0
C1097 C 0.69865 0.375 0.21511 0.0
C1098 C 0.71618 0.39215 0.2117 0.0
C1099 C 0.7042 0.39085 0.23293 0.0
C1100 C 0.69655 0.37993 0.22811 0.0
C1101 C 0.71414 0.39708 0.22481 0.0
C1102 C 0.70852 0.38116 0.2069 0.0
C1103 C 0.69048 0.36339 0.21046 0.0
O1104 O 0.67121 0.33804 0.18346 0.0
O1105 O 0.68374 0.32496 0.19613 0.0
O1106 O 0.69618 0.35159 0.21178 0.0
O1107 O 0.68407 0.36489 0.19889 0.0
H1108 H 0.66058 0.34049 0.21066 0.0
H1109 H 0.64084 0.3336 0.22412 0.0
H1110 H 0.63739 0.2968 0.20127 0.0
H1111 H 0.65687 0.30389 0.18769 0.0
H1112 H 0.70399 0.30824 0.14607 0.0
H1113 H 0.69767 0.32268 0.16493 0.0
H1114 H 0.73669 0.33587 0.13618 0.0
H1115 H 0.73021 0.35035 0.15496 0.0
H1116 H 0.72361 0.39686 0.20514 0.0
H1117 H 0.70247 0.39432 0.2431 0.0
H1118 H 0.68901 0.37528 0.2346 0.0
H1119 H 0.71027 0.37748 0.1968 0.0
C1120 C 0.65744 0.318 0.83776 0.0
C1121 C 0.65506 0.32376 0.82501 0.0
C1122 C 0.63567 0.30865 0.82162 0.0
C1123 C 0.64425 0.31913 0.81701 0.0
C1124 C 0.63793 0.30315 0.83455 0.0
C1125 C 0.64875 0.30777 0.84252 0.0
U1126 U 0.68718 0.34198 0.84537 0.0
O1127 O 0.69489 0.34941 0.86494 0.0
O1128 O 0.7079 0.33754 0.85188 0.0
C1129 C 0.70637 0.34303 0.8638 0.0
C1130 C 0.66909 0.32231 0.84607 0.0
C1131 C 0.71078 0.335 0.87568 0.0
C1132 C 0.71501 0.33352 0.89991 0.0
C1133 C 0.70991 0.34047 0.88869 0.0
C1134 C 0.72187 0.31542 0.88538 0.0
C1135 C 0.72117 0.32099 0.89835 0.0
C1136 C 0.71671 0.32232 0.87417 0.0
C1137 C 0.69433 0.37206 0.82188 0.0
C1138 C 0.71268 0.38823 0.82569 0.0
C1139 C 0.69956 0.38916 0.80498 0.0
C1140 C 0.69172 0.37815 0.80936 0.0
C1141 C 0.71013 0.39431 0.81308 0.0
C1142 C 0.70485 0.37716 0.83005 0.0
C1143 C 0.68625 0.36018 0.82602 0.0
O1144 O 0.68096 0.32126 0.84033 0.0
O1145 O 0.66772 0.33367 0.85259 0.0
O1146 O 0.67966 0.36124 0.83743 0.0
O1147 O 0.69225 0.34855 0.82475 0.0
H1148 H 0.66166 0.33171 0.82119 0.0
H1149 H 0.64276 0.32355 0.80709 0.0
H1150 H 0.63133 0.29527 0.83849 0.0
H1151 H 0.65039 0.30327 0.85238 0.0
H1152 H 0.71457 0.33818 0.90974 0.0
H1153 H 0.70556 0.35029 0.89014 0.0
H1154 H 0.72657 0.30577 0.88389 0.0
H1155 H 0.71763 0.31781 0.86431 0.0
H1156 H 0.72091 0.39183 0.83204 0.0
H1157 H 0.69736 0.39367 0.79524 0.0
H1158 H 0.68366 0.37432 0.80291 0.0
H1159 H 0.70707 0.37249 0.83972 0.0
C1160 C 0.65558 0.68868 0.82022 0.0
C1161 C 0.65064 0.69969 0.82737 0.0
C1162 C 0.63333 0.70316 0.81008 0.0
C1163 C 0.63957 0.70687 0.82235 0.0
C1164 C 0.63826 0.692 0.80309 0.0
C1165 C 0.64927 0.68485 0.80811 0.0
U1166 U 0.68531 0.68266 0.84468 0.0
O1167 O 0.69355 0.66351 0.8521 0.0
O1168 O 0.70622 0.67724 0.83999 0.0
C1169 C 0.70511 0.66535 0.84583 0.0
C1170 C 0.66747 0.68123 0.82494 0.0
C1171 C 0.70983 0.65395 0.83781 0.0
C1172 C 0.70678 0.63768 0.81975 0.0
C1173 C 0.70183 0.64827 0.82749 0.0
C1174 C 0.72769 0.63835 0.83263 0.0
C1175 C 0.71984 0.63274 0.82213 0.0
C1176 C 0.72273 0.64886 0.84038 0.0
C1177 C 0.69216 0.70562 0.87478 0.0
C1178 C 0.71292 0.7044 0.88797 0.0
C1179 C 0.69557 0.72005 0.89427 0.0
C1180 C 0.68752 0.7156 0.88346 0.0
C1181 C 0.70845 0.71466 0.89651 0.0
C1182 C 0.70485 0.69993 0.87719 0.0
C1183 C 0.68391 0.70157 0.86302 0.0
O1184 O 0.67911 0.68772 0.82393 0.0
O1185 O 0.66612 0.67461 0.8364 0.0
O1186 O 0.67754 0.68989 0.86408 0.0
O1187 O 0.68974 0.70337 0.85125 0.0
H1188 H 0.65539 0.70277 0.83677 0.0
H1189 H 0.63588 0.71528 0.82808 0.0
H1190 H 0.63375 0.68895 0.79358 0.0
H1191 H 0.65297 0.6764 0.80244 0.0
H1192 H 0.70054 0.63356 0.81171 0.0
H1193 H 0.69185 0.6521 0.82535 0.0
H1194 H 0.73768 0.63459 0.83485 0.0
H1195 H 0.72902 0.65309 0.84833 0.0
H1196 H 0.7227 0.69989 0.88961 0.0
H1197 H 0.69188 0.72798 0.90066 0.0
H1198 H 0.67774 0.7201 0.88175 0.0
H1199 H 0.70857 0.69215 0.87064 0.0
C1200 C 0.32335 0.65 0.83251 0.0
C1201 C 0.33182 0.64527 0.82235 0.0
C1202 C 0.31453 0.62881 0.81558 0.0
C1203 C 0.32747 0.63472 0.81398 0.0
C1204 C 0.30617 0.63353 0.82588 0.0
C1205 C 0.31054 0.64404 0.83425 0.0
U1206 U 0.34709 0.67954 0.84142 0.0
O1207 O 0.34225 0.6998 0.84858 0.0
O1208 O 0.35452 0.68646 0.86124 0.0
C1209 C 0.3479 0.69783 0.86047 0.0
C1210 C 0.32754 0.6613 0.8412 0.0
C1211 C 0.33982 0.70156 0.87243 0.0
C1212 C 0.32225 0.71505 0.88256 0.0
C1213 C 0.32937 0.71094 0.87121 0.0
C1214 C 0.33585 0.70056 0.8967 0.0
C1215 C 0.32548 0.71 0.89544 0.0
C1216 C 0.34299 0.69644 0.88533 0.0
C1217 C 0.37727 0.68817 0.81879 0.0
C1218 C 0.39071 0.70875 0.82115 0.0
C1219 C 0.39687 0.69216 0.80458 0.0
C1220 C 0.38593 0.684 0.80856 0.0
C1221 C 0.39935 0.70466 0.81079 0.0
C1222 C 0.37978 0.70056 0.82515 0.0
C1223 C 0.36545 0.67973 0.82237 0.0
O1224 O 0.33894 0.6598 0.8479 0.0
O1225 O 0.32637 0.67333 0.83577 0.0
O1226 O 0.35368 0.68558 0.82109 0.0
O1227 O 0.36656 0.67264 0.83356 0.0
H1228 H 0.34177 0.64976 0.82087 0.0
H1229 H 0.33424 0.63114 0.8063 0.0
H1230 H 0.29613 0.62925 0.82732 0.0
H1231 H 0.30385 0.6476 0.84202 0.0
H1232 H 0.31436 0.7224 0.88129 0.0
H1233 H 0.32678 0.71527 0.86148 0.0
H1234 H 0.33843 0.69632 0.90646 0.0
H1235 H 0.35106 0.68931 0.88669 0.0
H1236 H 0.39239 0.71833 0.82612 0.0
H1237 H 0.40319 0.68886 0.79639 0.0
H1238 H 0.38409 0.6745 0.80349 0.0
H1239 H 0.37319 0.70394 0.83309 0.0
C1240 C 0.33946 0.37301 0.81627 0.0
C1241 C 0.32754 0.37653 0.82289 0.0
C1242 C 0.32355 0.39422 0.80621 0.0
C1243 C 0.31966 0.38709 0.81792 0.0
C1244 C 0.33567 0.39083 0.79982 0.0
C1245 C 0.34352 0.38029 0.8048 0.0
U1246 U 0.34684 0.34442 0.84128 0.0
O1247 O 0.35298 0.32363 0.83741 0.0
O1248 O 0.36633 0.33713 0.84904 0.0
C1249 C 0.36485 0.32533 0.84323 0.0
C1250 C 0.34759 0.36159 0.82098 0.0
C1251 C 0.37648 0.32068 0.83544 0.0
C1252 C 0.39112 0.32209 0.81584 0.0
C1253 C 0.38036 0.32707 0.82336 0.0
C1254 C 0.39429 0.30444 0.83251 0.0
C1255 C 0.39807 0.3106 0.82025 0.0
C1256 C 0.38358 0.30943 0.84001 0.0
C1257 C 0.32371 0.33856 0.8717 0.0
C1258 C 0.32726 0.32068 0.88817 0.0
C1259 C 0.30746 0.33462 0.88963 0.0
C1260 C 0.31171 0.34187 0.87823 0.0
C1261 C 0.31517 0.32394 0.89473 0.0
C1262 C 0.33149 0.32794 0.87674 0.0
C1263 C 0.32775 0.34608 0.85948 0.0
O1264 O 0.35435 0.36346 0.8323 0.0
O1265 O 0.34156 0.34972 0.82034 0.0
O1266 O 0.32619 0.33954 0.84808 0.0
O1267 O 0.3393 0.35278 0.86026 0.0
H1268 H 0.32426 0.37101 0.83179 0.0
H1269 H 0.31037 0.38948 0.82304 0.0
H1270 H 0.33907 0.39632 0.79096 0.0
H1271 H 0.35273 0.37775 0.79961 0.0
H1272 H 0.3938 0.32703 0.80643 0.0
H1273 H 0.37497 0.33579 0.81968 0.0
H1274 H 0.39963 0.29574 0.8363 0.0
H1275 H 0.38076 0.30441 0.84935 0.0
H1276 H 0.33327 0.31234 0.89171 0.0
H1277 H 0.29813 0.33737 0.89447 0.0
H1278 H 0.30556 0.35003 0.87445 0.0
H1279 H 0.34075 0.32518 0.87175 0.0
H1280 H 0.28068 0.23965 0.9502 0.0
N1281 N 0.27764 0.26119 0.96547 0.0
H1282 H 0.26382 0.22907 0.93528 0.0
H1283 H 0.25071 0.26688 0.96467 0.0
H1284 H 0.23366 0.25623 0.94991 0.0
H1285 H 0.26649 0.28505 0.95771 0.0
H1286 H 0.27633 0.30149 0.94195 0.0
H1287 H 0.30258 0.2615 0.95572 0.0
H1288 H 0.3124 0.27773 0.93967 0.0
H1289 H 0.28842 0.2437 0.98252 0.0
H1290 H 0.26558 0.28021 0.98116 0.0
H1291 H 0.28853 0.24427 1.00714 0.0
H1292 H 0.26603 0.28122 1.00585 0.0
H1293 H 0.28275 0.23561 0.07324 0.0
H1294 H 0.26786 0.22177 0.08756 0.0
H1295 H 0.24006 0.25471 0.09005 0.0
H1296 H 0.25506 0.26849 0.07575 0.0
H1297 H 0.27063 0.287 0.06906 0.0
H1298 H 0.2789 0.30403 0.08515 0.0
H1299 H 0.31007 0.27693 0.09846 0.0
H1300 H 0.3018 0.2601 0.0823 0.0
H1301 H 0.29946 0.25551 0.04967 0.0
H1302 H 0.29876 0.25632 0.02504 0.0
H1303 H 0.25787 0.27095 0.02645 0.0
N1304 N 0.27996 0.26141 0.06671 0.0
H1305 H 0.25897 0.27059 0.05119 0.0
C1306 C 0.26697 0.25402 0.95849 0.0
C1307 C 0.27037 0.24314 0.95034 0.0
C1308 C 0.26073 0.23713 0.94184 0.0
C1309 C 0.24746 0.24195 0.94127 0.0
C1310 C 0.24388 0.25249 0.94992 0.0
C1311 C 0.25357 0.25851 0.95845 0.0
C1312 C 0.28391 0.2721 0.95802 0.0
C1313 C 0.27666 0.28358 0.95416 0.0
C1314 C 0.28226 0.29291 0.94503 0.0
C1315 C 0.29517 0.29095 0.93959 0.0
C1316 C 0.30256 0.27971 0.94387 0.0
C1317 C 0.29697 0.27041 0.95301 0.0
C1318 C 0.27714 0.26193 0.97999 0.0
C1319 C 0.28349 0.25189 0.98758 0.0
C1320 C 0.28363 0.25232 1.00167 0.0
C1321 C 0.27747 0.26291 0.00858 0.0
C1322 C 0.27084 0.27288 1.00092 0.0
C1323 C 0.27064 0.27238 0.98676 0.0
C1324 C 0.27002 0.25301 0.0734 0.0
C1325 C 0.27329 0.2397 0.07662 0.0
C1326 C 0.26476 0.23182 0.08476 0.0
C1327 C 0.25275 0.23714 0.08986 0.0
C1328 C 0.24926 0.25037 0.08627 0.0
C1329 C 0.25778 0.25823 0.07805 0.0
C1330 C 0.28564 0.27229 0.07455 0.0
C1331 C 0.27935 0.28484 0.07531 0.0
C1332 C 0.28402 0.2945 0.08458 0.0
C1333 C 0.29502 0.29173 0.09321 0.0
C1334 C 0.30162 0.27939 0.09194 0.0
C1335 C 0.29693 0.26977 0.08273 0.0
C1336 C 0.27927 0.26283 0.05224 0.0
C1337 C 0.29041 0.25899 0.04463 0.0
C1338 C 0.28991 0.25935 0.03054 0.0
C1339 C 0.27816 0.26348 0.02366 0.0
C1340 C 0.26711 0.26776 0.03135 0.0
C1341 C 0.26767 0.26748 0.04553 0.0
H1342 H 0.8 0.2733 0.96595 0.0
N1343 N 0.7737 0.27359 0.97107 0.0
H1344 H 0.81173 0.25839 0.95048 0.0
H1345 H 0.76288 0.25096 0.95921 0.0
H1346 H 0.77456 0.23584 0.94405 0.0
H1347 H 0.7471 0.26821 0.965 0.0
H1348 H 0.73346 0.28003 0.94806 0.0
H1349 H 0.77996 0.29648 0.95853 0.0
H1350 H 0.76628 0.3086 0.94187 0.0
H1351 H 0.7816 0.28886 0.99158 0.0
H1352 H 0.7582 0.25316 0.98209 0.0
H1353 H 0.77671 0.28561 0.01556 0.0
H1354 H 0.75369 0.24947 1.00601 0.0
H1355 H 0.77779 0.26523 0.08213 0.0
H1356 H 0.79131 0.2516 0.09748 0.0
H1357 H 0.76583 0.21696 0.08877 0.0
H1358 H 0.75206 0.23085 0.07357 0.0
H1359 H 0.73174 0.25463 0.08329 0.0
H1360 H 0.72269 0.27045 0.09966 0.0
H1361 H 0.75475 0.29888 0.09001 0.0
H1362 H 0.76351 0.28314 0.07337 0.0
H1363 H 0.77762 0.26805 0.05828 0.0
H1364 H 0.78203 0.27184 0.03437 0.0
H1365 H 0.74158 0.25757 0.02473 0.0
N1366 N 0.75438 0.25724 0.06929 0.0
H1367 H 0.73752 0.25329 0.04872 0.0
C1368 C 0.78064 0.26322 0.96388 0.0
C1369 C 0.7945 0.26491 0.96148 0.0
C1370 C 0.80118 0.25636 0.95267 0.0
C1371 C 0.79409 0.24586 0.94612 0.0
C1372 C 0.78029 0.24384 0.94895 0.0
C1373 C 0.77361 0.25243 0.95774 0.0
C1374 C 0.76459 0.28149 0.96299 0.0
C1375 C 0.75127 0.27713 0.96017 0.0
C1376 C 0.74345 0.28395 0.95053 0.0
C1377 C 0.74881 0.29524 0.94362 0.0
C1378 C 0.76192 0.29988 0.94694 0.0
C1379 C 0.7697 0.29305 0.95651 0.0
C1380 C 0.77038 0.27126 0.98504 0.0
C1381 C 0.77546 0.28027 0.99471 0.0
C1382 C 0.77274 0.27832 1.00843 0.0
C1383 C 0.76487 0.26721 0.01282 0.0
C1384 C 0.75966 0.25823 1.00304 0.0
C1385 C 0.76233 0.26026 0.9893 0.0
C1386 C 0.76387 0.24903 0.07663 0.0
C1387 C 0.77525 0.25466 0.08324 0.0
C1388 C 0.78305 0.24681 0.092 0.0
C1389 C 0.77968 0.23317 0.09429 0.0
C1390 C 0.76864 0.22745 0.08724 0.0
C1391 C 0.76083 0.23532 0.0785 0.0
C1392 C 0.74829 0.26765 0.07717 0.0
C1393 C 0.73663 0.26439 0.08453 0.0
C1394 C 0.73159 0.27336 0.09397 0.0
C1395 C 0.7382 0.28576 0.09634 0.0
C1396 C 0.74948 0.28936 0.08843 0.0
C1397 C 0.7545 0.28037 0.07893 0.0
C1398 C 0.75723 0.26023 0.05531 0.0
C1399 C 0.76971 0.26569 0.05106 0.0
C1400 C 0.77218 0.26796 0.03732 0.0
C1401 C 0.76219 0.26497 0.02752 0.0
C1402 C 0.74963 0.25976 0.03189 0.0
C1403 C 0.74722 0.25741 0.04561 0.0
H1404 H 0.75753 0.77889 0.95422 0.0
N1405 N 0.76957 0.75719 0.96633 0.0
H1406 H 0.7683 0.79494 0.93874 0.0
H1407 H 0.79584 0.75989 0.96117 0.0
H1408 H 0.80672 0.77603 0.94563 0.0
H1409 H 0.77483 0.7355 0.95194 0.0
H1410 H 0.75981 0.72397 0.93583 0.0
H1411 H 0.74242 0.76153 0.96313 0.0
H1412 H 0.72745 0.75036 0.94669 0.0
H1413 H 0.75586 0.77778 0.97823 0.0
H1414 H 0.7771 0.74106 0.98636 0.0
H1415 H 0.75256 0.78096 1.00236 0.0
H1416 H 0.7734 0.74383 0.01055 0.0
H1417 H 0.75337 0.79703 0.0714 0.0
H1418 H 0.76776 0.81002 0.087 0.0
H1419 H 0.79356 0.77568 0.09207 0.0
H1420 H 0.779 0.76271 0.07679 0.0
H1421 H 0.76343 0.74509 0.06928 0.0
H1422 H 0.75424 0.72883 0.08564 0.0
H1423 H 0.7232 0.75693 0.09607 0.0
H1424 H 0.73273 0.77328 0.07996 0.0
H1425 H 0.73785 0.77644 0.04573 0.0
H1426 H 0.7407 0.77284 0.02152 0.0
H1427 H 0.78041 0.75685 0.02931 0.0
N1428 N 0.75508 0.77103 0.06558 0.0
H1429 H 0.77719 0.76 0.05344 0.0
C1430 C 0.77591 0.76813 0.95891 0.0
C1431 C 0.7683 0.77831 0.95267 0.0
C1432 C 0.77446 0.78747 0.94375 0.0
C1433 C 0.78834 0.78674 0.94099 0.0
C1434 C 0.79604 0.77696 0.9477 0.0
C1435 C 0.78986 0.76774 0.95656 0.0
C1436 C 0.75981 0.74939 0.95866 0.0
C1437 C 0.76441 0.73859 0.95103 0.0
C1438 C 0.75587 0.73214 0.94173 0.0
C1439 C 0.74255 0.73649 0.93974 0.0
C1440 C 0.73769 0.74683 0.94795 0.0
C1441 C 0.74624 0.75324 0.95734 0.0
C1442 C 0.76688 0.7592 0.98047 0.0
C1443 C 0.75976 0.77034 0.98519 0.0
C1444 C 0.75778 0.77209 0.99906 0.0
C1445 C 0.76276 0.76269 0.00852 0.0
C1446 C 0.76965 0.75144 1.00367 0.0
C1447 C 0.77169 0.74976 0.98983 0.0
C1448 C 0.76506 0.77894 0.07286 0.0
C1449 C 0.76229 0.79242 0.07567 0.0
C1450 C 0.77051 0.7998 0.08459 0.0
C1451 C 0.78167 0.79379 0.09093 0.0
C1452 C 0.78487 0.78049 0.08755 0.0
C1453 C 0.77662 0.77311 0.07865 0.0
C1454 C 0.74872 0.76042 0.0734 0.0
C1455 C 0.75452 0.74766 0.07491 0.0
C1456 C 0.74921 0.73834 0.08423 0.0
C1457 C 0.73797 0.74159 0.09214 0.0
C1458 C 0.73191 0.75417 0.0902 0.0
C1459 C 0.73725 0.76346 0.08094 0.0
C1460 C 0.75728 0.76861 0.05142 0.0
C1461 C 0.74714 0.77213 0.04217 0.0
C1462 C 0.74885 0.77015 0.02832 0.0
C1463 C 0.76083 0.76462 0.02335 0.0
C1464 C 0.77097 0.76098 0.03271 0.0
C1465 C 0.76919 0.76289 0.04658 0.0
H1466 H 0.2921 0.75939 0.95873 0.0
N1467 N 0.26741 0.74967 0.96704 0.0
H1468 H 0.30693 0.74877 0.94254 0.0
H1469 H 0.26534 0.72472 0.95772 0.0
H1470 H 0.2804 0.71379 0.94173 0.0
H1471 H 0.24297 0.74578 0.95637 0.0
H1472 H 0.23101 0.76063 0.94056 0.0
H1473 H 0.27499 0.77554 0.96009 0.0
H1474 H 0.26324 0.79024 0.94431 0.0
H1475 H 0.28476 0.76789 0.97922 0.0
H1476 H 0.2555 0.73623 0.98704 0.0
H1477 H 0.28762 0.77146 1.00329 0.0
H1478 H 0.25884 0.73917 0.01133 0.0
H1479 H 0.30295 0.76662 0.08248 0.0
H1480 H 0.31094 0.74989 0.09884 0.0
H1481 H 0.28017 0.72179 0.08495 0.0
H1482 H 0.27209 0.7387 0.06878 0.0
H1483 H 0.25765 0.75671 0.07831 0.0
H1484 H 0.24408 0.77009 0.09352 0.0
H1485 H 0.27012 0.80463 0.08601 0.0
H1486 H 0.28392 0.79101 0.07101 0.0
H1487 H 0.29984 0.76654 0.04717 0.0
H1488 H 0.29688 0.76244 0.02305 0.0
H1489 H 0.25453 0.75327 0.02965 0.0
N1490 N 0.28144 0.76474 0.06645 0.0
H1491 H 0.25782 0.75669 0.05379 0.0
C1492 C 0.27758 0.74281 0.95949 0.0
C1493 C 0.28958 0.74934 0.95534 0.0
C1494 C 0.29812 0.74321 0.9461 0.0
C1495 C 0.29487 0.7304 0.94089 0.0
C1496 C 0.28315 0.72368 0.94551 0.0
C1497 C 0.27461 0.72984 0.95471 0.0
C1498 C 0.25983 0.75949 0.9595 0.0
C1499 C 0.24729 0.7556 0.95397 0.0
C1500 C 0.24056 0.76401 0.94486 0.0
C1501 C 0.2463 0.7765 0.94106 0.0
C1502 C 0.25856 0.78068 0.94708 0.0
C1503 C 0.2653 0.77224 0.95617 0.0
C1504 C 0.26974 0.75186 0.98125 0.0
C1505 C 0.27894 0.76166 0.98607 0.0
C1506 C 0.2807 0.76358 0.99997 0.0
C1507 C 0.27347 0.75562 0.0094 0.0
C1508 C 0.26441 0.7457 1.00447 0.0
C1509 C 0.26256 0.7439 0.99058 0.0
C1510 C 0.28697 0.75394 0.07445 0.0
C1511 C 0.2981 0.75676 0.08283 0.0
C1512 C 0.30264 0.7472 0.09215 0.0
C1513 C 0.29606 0.7346 0.09331 0.0
C1514 C 0.28526 0.73152 0.08447 0.0
C1515 C 0.28071 0.74113 0.07514 0.0
C1516 C 0.27184 0.7729 0.07347 0.0
C1517 C 0.26029 0.76723 0.07966 0.0
C1518 C 0.25247 0.77492 0.08834 0.0
C1519 C 0.256 0.78844 0.09094 0.0
C1520 C 0.26719 0.79423 0.08425 0.0
C1521 C 0.27501 0.78652 0.07561 0.0
C1522 C 0.27909 0.7621 0.0523 0.0
C1523 C 0.28994 0.7636 0.04337 0.0
C1524 C 0.28817 0.76136 0.02955 0.0
C1525 C 0.27541 0.75765 0.02425 0.0
C1526 C 0.26454 0.75598 0.03329 0.0
C1527 C 0.26638 0.75807 0.04717 0.0
H1528 H 0.95941 0.2545 0.27878 0.0
N1529 N 0.97033 0.26703 0.2565 0.0
H1530 H 0.94423 0.2645 0.29498 0.0
H1531 H 0.96425 0.29291 0.25868 0.0
H1532 H 0.94853 0.30293 0.27468 0.0
H1533 H 0.95667 0.27346 0.23433 0.0
H1534 H 0.94024 0.25939 0.222 0.0
H1535 H 0.96565 0.24003 0.26066 0.0
H1536 H 0.94916 0.22589 0.24842 0.0
H1537 H 0.98227 0.2519 0.27657 0.0
H1538 H 0.99031 0.275 0.24047 0.0
H1539 H 1.00626 0.24746 0.27913 0.0
H1540 H 0.01439 0.2701 0.24257 0.0
H1541 H 0.07373 0.24558 0.29536 0.0
H1542 H 0.08882 0.25966 0.30927 0.0
H1543 H 0.09677 0.28541 0.27484 0.0
H1544 H 0.08193 0.27118 0.26098 0.0
H1545 H 0.07329 0.25658 0.24306 0.0
H1546 H 0.08948 0.24735 0.22712 0.0
H1547 H 0.09869 0.21563 0.25561 0.0
H1548 H 0.08276 0.22517 0.27162 0.0
H1549 H 0.04842 0.2311 0.27366 0.0
H1550 H 0.02432 0.23523 0.27025 0.0
H1551 H 0.03409 0.27518 0.25519 0.0
N1552 N 0.06911 0.24779 0.269 0.0
H1553 H 0.05809 0.27067 0.25807 0.0
C1554 C 0.96313 0.27301 0.26751 0.0
C1555 C 0.95748 0.26515 0.27798 0.0
C1556 C 0.94858 0.27085 0.28715 0.0
C1557 C 0.94494 0.28443 0.28593 0.0
C1558 C 0.95113 0.29243 0.27588 0.0
C1559 C 0.96011 0.28674 0.26676 0.0
C1560 C 0.96232 0.25785 0.24841 0.0
C1561 C 0.95525 0.26301 0.23728 0.0
C1562 C 0.94589 0.25497 0.23027 0.0
C1563 C 0.94331 0.2416 0.23436 0.0
C1564 C 0.9508 0.23623 0.2452 0.0
C1565 C 0.96027 0.24428 0.25215 0.0
C1566 C 0.98445 0.26398 0.25837 0.0
C1567 C 0.98915 0.25602 0.26915 0.0
C1568 C 1.00296 0.25335 0.27053 0.0
C1569 C 0.01239 0.25842 0.26107 0.0
C1570 C 1.00755 0.26622 0.25021 0.0
C1571 C 0.99377 0.26897 0.24892 0.0
C1572 C 0.07661 0.25732 0.27719 0.0
C1573 C 0.07853 0.25442 0.29091 0.0
C1574 C 0.0871 0.26251 0.29884 0.0
C1575 C 0.09391 0.27371 0.29316 0.0
C1576 C 0.09168 0.27683 0.27947 0.0
C1577 C 0.08311 0.26873 0.27156 0.0
C1578 C 0.07683 0.24152 0.25856 0.0
C1579 C 0.07862 0.24752 0.24578 0.0
C1580 C 0.08784 0.24219 0.23665 0.0
C1581 C 0.09536 0.23074 0.24011 0.0
C1582 C 0.09312 0.2245 0.25269 0.0
C1583 C 0.08396 0.22986 0.26179 0.0
C1584 C 0.05507 0.25055 0.26625 0.0
C1585 C 0.04531 0.2407 0.26953 0.0
C1586 C 0.03153 0.24315 0.26769 0.0
C1587 C 0.02715 0.25562 0.26257 0.0
C1588 C 0.03702 0.26541 0.25903 0.0
C1589 C 0.05082 0.26289 0.26077 0.0
H1590 H 0.77997 0.06474 0.26528 0.0
N1591 N 0.75314 0.0643 0.25852 0.0
H1592 H 0.79751 0.07943 0.25525 0.0
H1593 H 0.75065 0.0803 0.23715 0.0
H1594 H 0.76806 0.09496 0.22706 0.0
H1595 H 0.72823 0.07388 0.25862 0.0
H1596 H 0.71866 0.08948 0.27491 0.0
H1597 H 0.76451 0.07143 0.28275 0.0
H1598 H 0.7549 0.08665 0.29924 0.0
H1599 H 0.76298 0.0481 0.27888 0.0
H1600 H 0.74517 0.04775 0.23911 0.0
H1601 H 0.76315 0.0235 0.27911 0.0
H1602 H 0.74595 0.02322 0.23887 0.0
H1603 H 0.77818 0.95631 0.26802 0.0
H1604 H 0.79505 0.94188 0.25785 0.0
H1605 H 0.77063 0.93922 0.22164 0.0
H1606 H 0.75398 0.954 0.2318 0.0
H1607 H 0.73111 0.94946 0.25228 0.0
H1608 H 0.71936 0.93385 0.26767 0.0
H1609 H 0.74829 0.94365 0.29908 0.0
H1610 H 0.75993 0.95938 0.28357 0.0
H1611 H 0.77267 0.97922 0.26978 0.0
H1612 H 0.773 1.00386 0.27038 0.0
H1613 H 0.73534 1.00418 0.24793 0.0
N1614 N 0.75388 0.96316 0.25692 0.0
H1615 H 0.73559 0.97965 0.2468 0.0
C1616 C 0.76402 0.07147 0.2519 0.0
C1617 C 0.77736 0.07119 0.25684 0.0
C1618 C 0.78735 0.07958 0.25112 0.0
C1619 C 0.78417 0.08826 0.24031 0.0
C1620 C 0.77088 0.0882 0.2352 0.0
C1621 C 0.76093 0.07989 0.24095 0.0
C1622 C 0.74698 0.07136 0.26949 0.0
C1623 C 0.73393 0.07636 0.26766 0.0
C1624 C 0.72848 0.08525 0.27699 0.0
C1625 C 0.736 0.08926 0.28841 0.0
C1626 C 0.74888 0.08379 0.29052 0.0
C1627 C 0.75434 0.07495 0.28115 0.0
C1628 C 0.75379 0.04979 0.25903 0.0
C1629 C 0.75912 0.04276 0.27017 0.0
C1630 C 0.75934 0.02862 0.27022 0.0
C1631 C 0.75442 0.02124 0.25906 0.0
C1632 C 0.74947 0.02843 0.24781 0.0
C1633 C 0.74911 0.04249 0.24786 0.0
C1634 C 0.76488 0.95638 0.25057 0.0
C1635 C 0.77663 0.95296 0.25777 0.0
C1636 C 0.78622 0.94459 0.25198 0.0
C1637 C 0.78423 0.93945 0.23891 0.0
C1638 C 0.77264 0.94324 0.2316 0.0
C1639 C 0.7631 0.95164 0.23738 0.0
C1640 C 0.74637 0.95546 0.26677 0.0
C1641 C 0.73475 0.94839 0.26256 0.0
C1642 C 0.72808 0.93951 0.27135 0.0
C1643 C 0.733 0.93744 0.28452 0.0
C1644 C 0.7444 0.94491 0.28891 0.0
C1645 C 0.75102 0.95391 0.2801 0.0
C1646 C 0.7542 0.97762 0.258 0.0
C1647 C 0.76457 0.98461 0.26489 0.0
C1648 C 0.76465 0.99875 0.26534 0.0
C1649 C 0.75427 1.00615 0.25906 0.0
C1650 C 0.74372 0.99896 0.25256 0.0
C1651 C 0.74376 0.98491 0.25198 0.0
H1652 H 0.08497 0.77937 0.29175 0.0
N1653 N 0.06832 0.77678 0.27081 0.0
H1654 H 0.09915 0.76199 0.30196 0.0
H1655 H 0.06686 0.74985 0.26528 0.0
H1656 H 0.08097 0.73233 0.2755 0.0
H1657 H 0.07559 0.76458 0.24732 0.0
H1658 H 0.09144 0.77358 0.23061 0.0
H1659 H 0.07875 0.8016 0.26961 0.0
H1660 H 0.09495 0.81058 0.25311 0.0
H1661 H 0.05157 0.7842 0.29 0.0
H1662 H 0.05207 0.76781 0.24989 0.0
H1663 H 0.02692 0.78406 0.28951 0.0
H1664 H 0.02743 0.76833 0.24893 0.0
H1665 H 0.95636 0.77957 0.29426 0.0
H1666 H 0.94061 0.76333 0.30476 0.0
H1667 H 0.94487 0.73699 0.27062 0.0
H1668 H 0.9601 0.75343 0.26003 0.0
H1669 H 0.963 0.77101 0.24338 0.0
H1670 H 0.94669 0.78079 0.2275 0.0
H1671 H 0.93733 0.81122 0.25676 0.0
H1672 H 0.95334 0.8011 0.27268 0.0
H1673 H 0.98409 0.79589 0.28053 0.0
H1674 H 1.00875 0.79548 0.28016 0.0
H1675 H 1.00683 0.75894 0.25668 0.0
N1676 N 0.96675 0.77845 0.26964 0.0
H1677 H 0.98217 0.75996 0.2565 0.0
C1678 C 0.07494 0.76592 0.27777 0.0
C1679 C 0.0839 0.76906 0.28834 0.0
C1680 C 0.09197 0.75914 0.29414 0.0
C1681 C 0.0913 0.74584 0.2894 0.0
C1682 C 0.08188 0.74255 0.27918 0.0
C1683 C 0.07375 0.75252 0.2734 0.0
C1684 C 0.07584 0.78252 0.25968 0.0
C1685 C 0.07943 0.77477 0.24847 0.0
C1686 C 0.0886 0.77988 0.23897 0.0
C1687 C 0.09443 0.79281 0.2405 0.0
C1688 C 0.09045 0.80071 0.25146 0.0
C1689 C 0.08122 0.79559 0.26092 0.0
C1690 C 0.05373 0.77623 0.26998 0.0
C1691 C 0.04633 0.78068 0.28103 0.0
C1692 C 0.03221 0.7807 0.28065 0.0
C1693 C 0.02505 0.7764 0.26908 0.0
C1694 C 0.03251 0.77165 0.25806 0.0
C1695 C 0.04669 0.77147 0.25854 0.0
C1696 C 0.95949 0.76771 0.27644 0.0
C1697 C 0.95407 0.77016 0.2892 0.0
C1698 C 0.94508 0.7609 0.29516 0.0
C1699 C 0.94132 0.74899 0.28841 0.0
C1700 C 0.94733 0.74622 0.27593 0.0
C1701 C 0.95624 0.75554 0.26994 0.0
C1702 C 0.95933 0.78535 0.25922 0.0
C1703 C 0.95762 0.77992 0.24626 0.0
C1704 C 0.94834 0.78558 0.23717 0.0
C1705 C 0.9407 0.79678 0.24089 0.0
C1706 C 0.94298 0.80254 0.25364 0.0
C1707 C 0.95219 0.79687 0.26269 0.0
C1708 C 0.98127 0.77791 0.26874 0.0
C1709 C 0.98904 0.78785 0.27525 0.0
C1710 C 1.00316 0.78749 0.27512 0.0
C1711 C 0.00992 0.77703 0.26858 0.0
C1712 C 1.00206 0.76719 0.26177 0.0
C1713 C 0.98788 0.76768 0.26177 0.0
H1714 H 0.30263 0.9457 0.25016 0.0
N1715 N 0.28203 0.96202 0.25357 0.0
H1716 H 0.31265 0.93052 0.26686 0.0
H1717 H 0.27682 0.96188 0.28064 0.0
H1718 H 0.28693 0.9468 0.29755 0.0
H1719 H 0.25853 0.95369 0.26569 0.0
H1720 H 0.24185 0.93781 0.25644 0.0
H1721 H 0.28064 0.95295 0.22841 0.0
H1722 H 0.26414 0.93667 0.21917 0.0
H1723 H 0.30099 0.97957 0.24601 0.0
H1724 H 0.26138 0.97717 0.26373 0.0
H1725 H 0.30044 1.00411 0.24681 0.0
H1726 H 0.26037 1.00171 0.26393 0.0
H1727 H 0.30529 0.07374 0.25467 0.0
H1728 H 0.31516 0.08908 0.27145 0.0
H1729 H 0.27941 0.08411 0.29588 0.0
H1730 H 0.26946 0.06924 0.27885 0.0
H1731 H 0.25361 0.06433 0.26064 0.0
H1732 H 0.23727 0.08001 0.25079 0.0
H1733 H 0.26762 0.09426 0.22275 0.0
H1734 H 0.28393 0.0788 0.23289 0.0
H1735 H 0.2907 0.04702 0.23616 0.0
H1736 H 0.29049 0.02244 0.23606 0.0
H1737 H 0.26851 0.022 0.27364 0.0
N1738 N 0.28043 0.06319 0.25443 0.0
H1739 H 0.2682 0.0466 0.27319 0.0
C1740 C 0.28908 0.95493 0.26415 0.0
C1741 C 0.29942 0.94621 0.26057 0.0
C1742 C 0.30515 0.93759 0.27013 0.0
C1743 C 0.30067 0.93755 0.28356 0.0
C1744 C 0.29057 0.94662 0.28727 0.0
C1745 C 0.28484 0.95527 0.27765 0.0
C1746 C 0.27083 0.9546 0.24768 0.0
C1747 C 0.25966 0.95035 0.25541 0.0
C1748 C 0.25022 0.9411 0.25017 0.0
C1749 C 0.25185 0.93577 0.23718 0.0
C1750 C 0.26261 0.94059 0.22921 0.0
C1751 C 0.27202 0.9499 0.23444 0.0
C1752 C 0.28122 0.97648 0.2546 0.0
C1753 C 0.29212 0.98437 0.24998 0.0
C1754 C 0.29171 0.99843 0.25034 0.0
C1755 C 0.28025 1.00503 0.25523 0.0
C1756 C 0.2694 0.99706 0.26016 0.0
C1757 C 0.26991 0.98294 0.25994 0.0
C1758 C 0.28676 0.07019 0.26555 0.0
C1759 C 0.29976 0.07571 0.26382 0.0
C1760 C 0.30539 0.08444 0.27344 0.0
C1761 C 0.29811 0.08774 0.28507 0.0
C1762 C 0.28526 0.08179 0.28702 0.0
C1763 C 0.27961 0.07314 0.27735 0.0
C1764 C 0.26998 0.07044 0.24746 0.0
C1765 C 0.25664 0.07065 0.25222 0.0
C1766 C 0.24731 0.07958 0.24654 0.0
C1767 C 0.25118 0.08838 0.23599 0.0
C1768 C 0.26438 0.08767 0.23091 0.0
C1769 C 0.27366 0.0788 0.2366 0.0
C1770 C 0.27966 0.04867 0.25472 0.0
C1771 C 0.28579 0.04158 0.24433 0.0
C1772 C 0.28576 0.0275 0.24438 0.0
C1773 C 0.27968 0.0201 0.25497 0.0
C1774 C 0.27324 0.02727 0.26528 0.0
C1775 C 0.27316 0.04142 0.26511 0.0
H1776 H 0.08116 0.72862 0.7763 0.0
N1777 N 0.06656 0.75075 0.77466 0.0
H1778 H 0.09617 0.71958 0.75913 0.0
H1779 H 0.06805 0.75919 0.74829 0.0
H1780 H 0.0829 0.75011 0.731 0.0
H1781 H 0.08005 0.77333 0.76544 0.0
H1782 H 0.09655 0.78688 0.77809 0.0
H1783 H 0.07211 0.7492 0.80093 0.0
H1784 H 0.0887 0.76276 0.81367 0.0
H1785 H 0.04565 0.7341 0.77855 0.0
H1786 H 0.05569 0.77461 0.76584 0.0
H1787 H 0.0216 0.73875 0.77572 0.0
H1788 H 0.03175 0.7796 0.76362 0.0
H1789 H 0.96127 0.74514 0.76753 0.0
H1790 H 0.944 0.73248 0.7547 0.0
H1791 H 0.93907 0.76667 0.72807 0.0
H1792 H 0.95598 0.77936 0.74119 0.0
H1793 H 0.96151 0.79759 0.7657 0.0
H1794 H 0.94556 0.80759 0.78139 0.0
H1795 H 0.94175 0.76945 0.80234 0.0
H1796 H 0.95721 0.75945 0.78637 0.0
H1797 H 0.9795 0.75503 0.7828 0.0
H1798 H 1.00347 0.75026 0.78525 0.0
H1799 H 0.01212 0.77577 0.75071 0.0
N1800 N 0.96793 0.7718 0.76395 0.0
H1801 H 0.98811 0.78097 0.74882 0.0
C1802 C 0.0735 0.74454 0.76362 0.0
C1803 C 0.08131 0.73318 0.76634 0.0
C1804 C 0.08987 0.72805 0.75653 0.0
C1805 C 0.09086 0.73426 0.74379 0.0
C1806 C 0.08255 0.74528 0.74083 0.0
C1807 C 0.07395 0.7504 0.75066 0.0
C1808 C 0.0748 0.7602 0.78227 0.0
C1809 C 0.08164 0.77109 0.77601 0.0
C1810 C 0.09112 0.77881 0.78324 0.0
C1811 C 0.09389 0.7759 0.79686 0.0
C1812 C 0.08663 0.76538 0.80324 0.0
C1813 C 0.07719 0.75762 0.79599 0.0
C1814 C 0.05251 0.75397 0.77255 0.0
C1815 C 0.04264 0.74403 0.77522 0.0
C1816 C 0.02888 0.74677 0.77371 0.0
C1817 C 0.02461 0.75961 0.76955 0.0
C1818 C 0.03457 0.76954 0.7667 0.0
C1819 C 0.04835 0.76673 0.76809 0.0
C1820 C 0.95978 0.76326 0.75535 0.0
C1821 C 0.95658 0.74984 0.75885 0.0
C1822 C 0.94674 0.74261 0.7515 0.0
C1823 C 0.93997 0.74871 0.74059 0.0
C1824 C 0.94385 0.76183 0.73665 0.0
C1825 C 0.9536 0.76904 0.74401 0.0
C1826 C 0.96076 0.77786 0.77492 0.0
C1827 C 0.95752 0.79152 0.77392 0.0
C1828 C 0.94842 0.79721 0.78292 0.0
C1829 C 0.94243 0.78933 0.79318 0.0
C1830 C 0.94615 0.77578 0.79452 0.0
C1831 C 0.95518 0.77007 0.78547 0.0
C1832 C 0.982 0.76854 0.7657 0.0
C1833 C 0.98652 0.7597 0.77583 0.0
C1834 C 1.00031 0.75686 0.77712 0.0
C1835 C 0.00987 0.76263 0.7682 0.0
C1836 C 1.0052 0.77133 0.75796 0.0
C1837 C 0.99145 0.77425 0.75678 0.0
H1838 H 0.28545 0.06414 0.77201 0.0
N1839 N 0.25849 0.06064 0.76628 0.0
H1840 H 0.30086 0.08036 0.76102 0.0
H1841 H 0.25384 0.07478 0.74398 0.0
H1842 H 0.26929 0.09069 0.73267 0.0
H1843 H 0.23241 0.06661 0.76705 0.0
H1844 H 0.22145 0.08236 0.78233 0.0
H1845 H 0.2699 0.07193 0.78894 0.0
H1846 H 0.25909 0.08768 0.80409 0.0
H1847 H 0.27077 0.04835 0.78804 0.0
H1848 H 0.25244 0.04101 0.74917 0.0
H1849 H 0.27439 0.02431 0.79102 0.0
H1850 H 0.25662 0.01694 0.75171 0.0
H1851 H 0.29742 0.94879 0.7844 0.0
H1852 H 0.30964 0.93396 0.76923 0.0
H1853 H 0.28162 0.94348 0.73709 0.0
H1854 H 0.2695 0.95838 0.75234 0.0
H1855 H 0.2523 0.94999 0.76735 0.0
H1856 H 0.23658 0.93394 0.77776 0.0
H1857 H 0.25779 0.93812 0.81574 0.0
H1858 H 0.2736 0.95433 0.80521 0.0
H1859 H 0.29055 0.98186 0.7873 0.0
H1860 H 0.28722 1.006 0.784 0.0
H1861 H 0.24957 0.99733 0.7631 0.0
N1862 N 0.27464 0.96161 0.77936 0.0
H1863 H 0.25339 0.97332 0.76587 0.0
C1864 C 0.26844 0.06837 0.75885 0.0
C1865 C 0.2819 0.06979 0.76336 0.0
C1866 C 0.2907 0.07904 0.75705 0.0
C1867 C 0.28618 0.087 0.74617 0.0
C1868 C 0.27295 0.08496 0.74124 0.0
C1869 C 0.26417 0.07579 0.74758 0.0
C1870 C 0.25192 0.068 0.77683 0.0
C1871 C 0.23818 0.07094 0.77532 0.0
C1872 C 0.232 0.08004 0.78395 0.0
C1873 C 0.23948 0.08641 0.79427 0.0
C1874 C 0.25306 0.0829 0.79624 0.0
C1875 C 0.25925 0.07384 0.78758 0.0
C1876 C 0.26112 0.04651 0.76841 0.0
C1877 C 0.26754 0.0416 0.7801 0.0
C1878 C 0.26974 0.02777 0.78173 0.0
C1879 C 0.26577 0.01854 0.77163 0.0
C1880 C 0.25957 0.0236 0.75986 0.0
C1881 C 0.25725 0.03738 0.75832 0.0
C1882 C 0.28256 0.95462 0.76955 0.0
C1883 C 0.29409 0.94787 0.77401 0.0
C1884 C 0.30103 0.93941 0.76534 0.0
C1885 C 0.29648 0.93745 0.75203 0.0
C1886 C 0.28522 0.94464 0.74737 0.0
C1887 C 0.27833 0.95321 0.75605 0.0
C1888 C 0.26409 0.95355 0.78557 0.0
C1889 C 0.25341 0.94781 0.77799 0.0
C1890 C 0.24439 0.93858 0.78396 0.0
C1891 C 0.2459 0.93485 0.79759 0.0
C1892 C 0.25638 0.94083 0.80523 0.0
C1893 C 0.26535 0.95013 0.79927 0.0
C1894 C 0.27223 0.97574 0.77698 0.0
C1895 C 0.28162 0.98522 0.78196 0.0
C1896 C 0.27961 0.99903 0.78016 0.0
C1897 C 0.26805 1.00375 0.77336 0.0
C1898 C 0.25869 0.99417 0.76825 0.0
C1899 C 0.26079 0.98033 0.76994 0.0
H1900 H 0.95342 0.24918 0.76631 0.0
N1901 N 0.96711 0.27064 0.77758 0.0
H1902 H 0.93733 0.23421 0.77768 0.0
H1903 H 0.9625 0.2689 0.80399 0.0
H1904 H 0.94667 0.25353 0.8156 0.0
H1905 H 0.95171 0.29198 0.78096 0.0
H1906 H 0.93635 0.30222 0.76446 0.0
H1907 H 0.96584 0.26492 0.75053 0.0
H1908 H 0.95067 0.27523 0.73394 0.0
H1909 H 0.9779 0.24778 0.76673 0.0
H1910 H 0.98806 0.28696 0.78264 0.0
H1911 H 1.00177 0.24326 0.76361 0.0
H1912 H 0.01207 0.28281 0.77895 0.0
H1913 H 0.06968 0.22488 0.76364 0.0
H1914 H 0.08511 0.21279 0.7787 0.0
H1915 H 0.09356 0.24966 0.80025 0.0
H1916 H 0.07827 0.26168 0.78504 0.0
H1917 H 0.07249 0.27744 0.76767 0.0
H1918 H 0.08823 0.29134 0.75416 0.0
H1919 H 0.09171 0.25884 0.72575 0.0
H1920 H 0.07613 0.24502 0.73936 0.0
H1921 H 0.04459 0.2438 0.74739 0.0
H1922 H 0.02069 0.24875 0.75041 0.0
H1923 H 0.03074 0.27047 0.7869 0.0
N1924 N 0.06534 0.25118 0.76287 0.0
H1925 H 0.05466 0.26595 0.78336 0.0
C1926 C 0.95912 0.26032 0.7843 0.0
C1927 C 0.95216 0.25016 0.77708 0.0
C1928 C 0.94295 0.24154 0.78362 0.0
C1929 C 0.94051 0.24285 0.7975 0.0
C1930 C 0.94805 0.2525 0.80483 0.0
C1931 C 0.9572 0.26118 0.79826 0.0
C1932 C 0.95992 0.27772 0.76704 0.0
C1933 C 0.95171 0.28847 0.77064 0.0
C1934 C 0.94295 0.29428 0.76122 0.0
C1935 C 0.94216 0.28939 0.74796 0.0
C1936 C 0.95087 0.27903 0.74416 0.0
C1937 C 0.95965 0.27322 0.75361 0.0
C1938 C 0.98114 0.26771 0.77509 0.0
C1939 C 0.98524 0.25546 0.76951 0.0
C1940 C 0.99898 0.25294 0.7676 0.0
C1941 C 0.00897 0.26264 0.77104 0.0
C1942 C 1.00477 0.27496 0.77642 0.0
C1943 C 0.99103 0.27742 0.77843 0.0
C1944 C 0.07274 0.24412 0.77322 0.0
C1945 C 0.07461 0.23025 0.77183 0.0
C1946 C 0.0834 0.22337 0.78046 0.0
C1947 C 0.09049 0.23026 0.79073 0.0
C1948 C 0.08824 0.2441 0.79242 0.0
C1949 C 0.07943 0.25096 0.78378 0.0
C1950 C 0.07319 0.26019 0.75447 0.0
C1951 C 0.07655 0.27338 0.75847 0.0
C1952 C 0.08553 0.28129 0.75077 0.0
C1953 C 0.0911 0.27619 0.73887 0.0
C1954 C 0.08739 0.26313 0.73474 0.0
C1955 C 0.07854 0.25522 0.74249 0.0
C1956 C 0.05138 0.25437 0.76517 0.0
C1957 C 0.04158 0.24965 0.75601 0.0
C1958 C 0.02791 0.25241 0.75784 0.0
C1959 C 0.02366 0.25993 0.76899 0.0
C1960 C 0.03358 0.26478 0.77812 0.0
C1961 C 0.04731 0.2621 0.77619 0.0
H1962 H 0.79952 0.95651 0.75759 0.0
N1963 N 0.77378 0.96317 0.76028 0.0
H1964 H 0.81264 0.94169 0.77239 0.0
H1965 H 0.76597 0.9538 0.78498 0.0
H1966 H 0.77902 0.93897 0.79989 0.0
H1967 H 0.74795 0.9584 0.76855 0.0
H1968 H 0.73181 0.94217 0.75857 0.0
H1969 H 0.77651 0.95002 0.73727 0.0
H1970 H 0.76035 0.9341 0.72696 0.0
H1971 H 0.78218 0.98042 0.74148 0.0
H1972 H 0.7627 0.9783 0.78013 0.0
H1973 H 0.78127 1.00497 0.7418 0.0
H1974 H 0.76218 1.00302 0.78091 0.0
H1975 H 0.79378 0.08116 0.75816 0.0
H1976 H 0.80306 0.09648 0.77526 0.0
H1977 H 0.77565 0.07925 0.80468 0.0
H1978 H 0.76624 0.06414 0.78737 0.0
H1979 H 0.74861 0.07159 0.77099 0.0
H1980 H 0.73242 0.08671 0.76027 0.0
H1981 H 0.7569 0.08808 0.72437 0.0
H1982 H 0.77318 0.07305 0.73529 0.0
H1983 H 0.79192 0.04792 0.75218 0.0
H1984 H 0.79188 0.02334 0.75273 0.0
H1985 H 0.75252 0.02315 0.77143 0.0
N1986 N 0.77292 0.06423 0.76065 0.0
H1987 H 0.75297 0.04783 0.7713 0.0
C1988 C 0.78185 0.95628 0.77021 0.0
C1989 C 0.79515 0.95298 0.76699 0.0
C1990 C 0.80261 0.94454 0.77547 0.0
C1991 C 0.79688 0.93923 0.78735 0.0
C1992 C 0.78368 0.94291 0.7908 0.0
C1993 C 0.77624 0.95144 0.78233 0.0
C1994 C 0.7634 0.95534 0.75361 0.0
C1995 C 0.75061 0.95326 0.75938 0.0
C1996 C 0.74139 0.94405 0.75361 0.0
C1997 C 0.74481 0.93685 0.74196 0.0
C1998 C 0.75746 0.9394 0.73598 0.0
C1999 C 0.76664 0.94854 0.74177 0.0
C2000 C 0.77265 0.97759 0.76079 0.0
C2001 C 0.77775 0.98532 0.75007 0.0
C2002 C 0.77731 0.99937 0.75036 0.0
C2003 C 0.77184 1.00608 0.76149 0.0
C2004 C 0.76642 0.99824 0.77215 0.0
C2005 C 0.76678 0.98411 0.77178 0.0
C2006 C 0.77935 0.07156 0.77148 0.0
C2007 C 0.78995 0.08056 0.76836 0.0
C2008 C 0.79523 0.08928 0.77814 0.0
C2009 C 0.78996 0.08921 0.79127 0.0
C2010 C 0.77972 0.07974 0.79457 0.0
C2011 C 0.77442 0.07101 0.78474 0.0
C2012 C 0.76208 0.0711 0.75386 0.0
C2013 C 0.75032 0.07483 0.7607 0.0
C2014 C 0.74106 0.08348 0.75454 0.0
C2015 C 0.74337 0.08856 0.74145 0.0
C2016 C 0.75487 0.08438 0.73448 0.0
C2017 C 0.76411 0.07572 0.74063 0.0
C2018 C 0.77244 0.04972 0.76152 0.0
C2019 C 0.78332 0.04255 0.75643 0.0
C2020 C 0.7832 0.02848 0.75667 0.0
C2021 C 0.77209 0.02116 0.76193 0.0
C2022 C 0.76127 0.0284 0.76734 0.0
C2023 C 0.76146 0.04255 0.76718 0.0
H2024 H 0.26405 0.75308 0.45387 0.0
N2025 N 0.25553 0.7764 0.46552 0.0
H2026 H 0.25105 0.73897 0.43829 0.0
H2027 H 0.22924 0.77775 0.46007 0.0
H2028 H 0.21599 0.76341 0.44463 0.0
H2029 H 0.25303 0.7988 0.45105 0.0
H2030 H 0.26923 0.80847 0.43491 0.0
H2031 H 0.28169 0.7684 0.46219 0.0
H2032 H 0.2978 0.77778 0.44579 0.0
H2033 H 0.26675 0.75421 0.47766 0.0
H2034 H 0.25021 0.79323 0.48539 0.0
H2035 H 0.2701 0.75061 0.50182 0.0
H2036 H 0.25397 0.78998 0.50961 0.0
H2037 H 0.27202 0.73468 0.57095 0.0
H2038 H 0.25761 0.72162 0.58646 0.0
H2039 H 0.23172 0.75589 0.59069 0.0
H2040 H 0.24634 0.76894 0.57553 0.0
H2041 H 0.26272 0.78654 0.57007 0.0
H2042 H 0.27297 0.80145 0.58708 0.0
H2043 H 0.30388 0.77214 0.59476 0.0
H2044 H 0.29339 0.75717 0.57799 0.0
H2045 H 0.28636 0.75353 0.54493 0.0
H2046 H 0.28334 0.75746 0.5207 0.0
H2047 H 0.24588 0.77768 0.52864 0.0
N2048 N 0.27028 0.76067 0.56484 0.0
H2049 H 0.2493 0.77411 0.55279 0.0
C2050 C 0.24758 0.7665 0.45822 0.0
C2051 C 0.2535 0.75525 0.45222 0.0
C2052 C 0.24602 0.74712 0.44331 0.0
C2053 C 0.23246 0.75004 0.44026 0.0
C2054 C 0.22643 0.76094 0.44674 0.0
C2055 C 0.23393 0.76907 0.45562 0.0
C2056 C 0.26609 0.78289 0.45776 0.0
C2057 C 0.2629 0.79434 0.45013 0.0
C2058 C 0.27209 0.79974 0.44082 0.0
C2059 C 0.28466 0.79369 0.43887 0.0
C2060 C 0.28817 0.78262 0.44705 0.0
C2061 C 0.27896 0.77724 0.45641 0.0
C2062 C 0.2581 0.774 0.47969 0.0
C2063 C 0.26389 0.76205 0.48453 0.0
C2064 C 0.2659 0.76005 0.49842 0.0
C2065 C 0.26227 0.76998 0.50777 0.0
C2066 C 0.25666 0.78199 0.50281 0.0
C2067 C 0.2546 0.78393 0.48895 0.0
C2068 C 0.26028 0.75273 0.57201 0.0
C2069 C 0.26307 0.73925 0.57501 0.0
C2070 C 0.25484 0.73183 0.58388 0.0
C2071 C 0.24365 0.7378 0.58996 0.0
C2072 C 0.24044 0.75111 0.58638 0.0
C2073 C 0.2487 0.75853 0.57754 0.0
C2074 C 0.27729 0.77068 0.57284 0.0
C2075 C 0.27181 0.78341 0.57526 0.0
C2076 C 0.27768 0.79193 0.58497 0.0
C2077 C 0.28906 0.78782 0.59243 0.0
C2078 C 0.29494 0.77543 0.58939 0.0
C2079 C 0.28907 0.76695 0.57973 0.0
C2080 C 0.26808 0.76343 0.55069 0.0
C2081 C 0.27754 0.75885 0.54139 0.0
C2082 C 0.27572 0.76102 0.52754 0.0
C2083 C 0.26431 0.76783 0.52261 0.0
C2084 C 0.25487 0.77254 0.53201 0.0
C2085 C 0.25676 0.77041 0.5459 0.0
H2086 H 0.78383 0.79557 0.5804 0.0
N2087 N 0.77745 0.7729 0.56774 0.0
H2088 H 0.76944 0.80868 0.59524 0.0
H2089 H 0.7503 0.76876 0.57156 0.0
H2090 H 0.73583 0.78175 0.58657 0.0
H2091 H 0.76455 0.75105 0.57923 0.0
H2092 H 0.77441 0.73513 0.59524 0.0
H2093 H 0.80337 0.77084 0.57458 0.0
H2094 H 0.81335 0.75482 0.59063 0.0
H2095 H 0.78569 0.78888 0.54777 0.0
H2096 H 0.76324 0.75216 0.55567 0.0
H2097 H 0.78206 0.78596 0.52354 0.0
H2098 H 0.76018 0.74871 0.53154 0.0
H2099 H 0.76871 0.78489 0.46514 0.0
H2100 H 0.75765 0.79986 0.44878 0.0
H2101 H 0.72988 0.76762 0.43801 0.0
H2102 H 0.74128 0.75263 0.45401 0.0
H2103 H 0.76497 0.73185 0.46246 0.0
H2104 H 0.78043 0.72132 0.44655 0.0
H2105 H 0.801 0.75959 0.44074 0.0
H2106 H 0.78578 0.76994 0.45677 0.0
H2107 H 0.78541 0.7701 0.48071 0.0
H2108 H 0.78857 0.77348 0.50484 0.0
H2109 H 0.74893 0.75597 0.51209 0.0
N2110 N 0.76348 0.75788 0.46831 0.0
H2111 H 0.74624 0.75197 0.48792 0.0
C2112 C 0.76817 0.78124 0.5749 0.0
C2113 C 0.77328 0.79269 0.58148 0.0
C2114 C 0.76505 0.80015 0.58992 0.0
C2115 C 0.7515 0.79626 0.59199 0.0
C2116 C 0.74625 0.78494 0.58515 0.0
C2117 C 0.75449 0.77754 0.57657 0.0
C2118 C 0.78327 0.76216 0.57562 0.0
C2119 C 0.77526 0.75181 0.58139 0.0
C2120 C 0.7809 0.74271 0.59059 0.0
C2121 C 0.7946 0.74385 0.59431 0.0
C2122 C 0.80271 0.75384 0.58811 0.0
C2123 C 0.79707 0.7629 0.57886 0.0
C2124 C 0.7749 0.77073 0.55356 0.0
C2125 C 0.78006 0.78012 0.54424 0.0
C2126 C 0.77807 0.77835 0.53037 0.0
C2127 C 0.77091 0.76702 0.52544 0.0
C2128 C 0.7656 0.75765 0.53487 0.0
C2129 C 0.76747 0.75954 0.54876 0.0
C2130 C 0.75586 0.76759 0.46066 0.0
C2131 C 0.76015 0.78111 0.45936 0.0
C2132 C 0.75381 0.78966 0.45004 0.0
C2133 C 0.7431 0.78481 0.4419 0.0
C2134 C 0.73833 0.77153 0.44387 0.0
C2135 C 0.74471 0.76301 0.4531 0.0
C2136 C 0.77416 0.75164 0.46085 0.0
C2137 C 0.77303 0.73787 0.45799 0.0
C2138 C 0.78175 0.73192 0.44879 0.0
C2139 C 0.79174 0.73971 0.4422 0.0
C2140 C 0.79339 0.75334 0.44565 0.0
C2141 C 0.78467 0.75927 0.45486 0.0
C2142 C 0.76562 0.76056 0.48247 0.0
C2143 C 0.77744 0.76689 0.48745 0.0
C2144 C 0.77917 0.76895 0.50134 0.0
C2145 C 0.76904 0.76495 0.51057 0.0
C2146 C 0.75711 0.75891 0.50544 0.0
C2147 C 0.75548 0.75671 0.49159 0.0
H2148 H 0.80285 0.25534 0.579 0.0
N2149 N 0.77904 0.25643 0.56652 0.0
H2150 H 0.81224 0.27136 0.59545 0.0
H2151 H 0.76924 0.28158 0.57184 0.0
H2152 H 0.77869 0.29768 0.58789 0.0
H2153 H 0.75402 0.2627 0.57613 0.0
H2154 H 0.7409 0.2495 0.59253 0.0
H2155 H 0.78357 0.23137 0.57462 0.0
H2156 H 0.77038 0.21801 0.59095 0.0
H2157 H 0.79288 0.24601 0.54639 0.0
H2158 H 0.75882 0.27108 0.55451 0.0
H2159 H 0.78896 0.2487 0.52216 0.0
H2160 H 0.75542 0.27473 0.53051 0.0
H2161 H 0.78437 0.26261 0.45415 0.0
H2162 H 0.79904 0.27441 0.43802 0.0
H2163 H 0.78007 0.31194 0.44777 0.0
H2164 H 0.76511 0.29993 0.4636 0.0
H2165 H 0.74207 0.28022 0.45229 0.0
H2166 H 0.73008 0.26627 0.43559 0.0
H2167 H 0.75425 0.23226 0.44716 0.0
H2168 H 0.76637 0.24638 0.46384 0.0
H2169 H 0.7873 0.26715 0.4799 0.0
H2170 H 0.79089 0.26301 0.50382 0.0
H2171 H 0.74785 0.26576 0.5105 0.0
N2172 N 0.76307 0.27344 0.46748 0.0
H2173 H 0.74451 0.27091 0.48664 0.0
C2174 C 0.78538 0.26719 0.5741 0.0
C2175 C 0.7977 0.26471 0.58069 0.0
C2176 C 0.80302 0.27385 0.5901 0.0
C2177 C 0.79607 0.28566 0.59314 0.0
C2178 C 0.78412 0.28851 0.58598 0.0
C2179 C 0.77877 0.27934 0.57663 0.0
C2180 C 0.76982 0.24799 0.57413 0.0
C2181 C 0.75753 0.25285 0.57903 0.0
C2182 C 0.75003 0.2453 0.58845 0.0
C2183 C 0.75476 0.23284 0.59319 0.0
C2184 C 0.76664 0.22769 0.58767 0.0
C2185 C 0.7741 0.23522 0.57826 0.0
C2186 C 0.77634 0.25847 0.55233 0.0
C2187 C 0.78466 0.25225 0.54292 0.0
C2188 C 0.78245 0.25392 0.52904 0.0
C2189 C 0.7719 0.26204 0.52418 0.0
C2190 C 0.76352 0.26823 0.53371 0.0
C2191 C 0.76561 0.26634 0.54759 0.0
C2192 C 0.77361 0.28043 0.46008 0.0
C2193 C 0.78357 0.27341 0.45304 0.0
C2194 C 0.79201 0.2802 0.44387 0.0
C2195 C 0.79073 0.29413 0.44163 0.0
C2196 C 0.78125 0.3012 0.44922 0.0
C2197 C 0.77278 0.2944 0.45834 0.0
C2198 C 0.75503 0.26434 0.45931 0.0
C2199 C 0.74461 0.2697 0.45139 0.0
C2200 C 0.73786 0.26177 0.44182 0.0
C2201 C 0.74137 0.24827 0.44003 0.0
C2202 C 0.75139 0.24266 0.44838 0.0
C2203 C 0.75827 0.25068 0.4579 0.0
C2204 C 0.76557 0.26953 0.48138 0.0
C2205 C 0.7786 0.2669 0.48645 0.0
C2206 C 0.78064 0.26439 0.50025 0.0
C2207 C 0.7697 0.26415 0.50931 0.0
C2208 C 0.75663 0.26623 0.50404 0.0
C2209 C 0.75464 0.269 0.49032 0.0
H2210 H 0.28311 0.25992 0.45694 0.0
N2211 N 0.26014 0.24763 0.46672 0.0
H2212 H 0.29927 0.25018 0.44143 0.0
H2213 H 0.26113 0.22211 0.45872 0.0
H2214 H 0.27745 0.21221 0.44322 0.0
H2215 H 0.23874 0.24323 0.45094 0.0
H2216 H 0.22783 0.25923 0.43558 0.0
H2217 H 0.26574 0.27467 0.465 0.0
H2218 H 0.2552 0.29067 0.44935 0.0
H2219 H 0.28441 0.25092 0.4808 0.0
H2220 H 0.241 0.25062 0.48516 0.0
H2221 H 0.28711 0.25438 0.50477 0.0
H2222 H 0.24367 0.25491 0.50924 0.0
H2223 H 0.2963 0.26483 0.58028 0.0
H2224 H 0.30543 0.24857 0.59654 0.0
H2225 H 0.27328 0.22045 0.58624 0.0
H2226 H 0.26408 0.23682 0.57029 0.0
H2227 H 0.24902 0.25492 0.57707 0.0
H2228 H 0.23563 0.2678 0.59293 0.0
H2229 H 0.2633 0.30161 0.58843 0.0
H2230 H 0.27684 0.28849 0.57277 0.0
H2231 H 0.28871 0.27238 0.54659 0.0
H2232 H 0.28551 0.2696 0.52231 0.0
H2233 H 0.24961 0.24528 0.52987 0.0
N2234 N 0.27337 0.26277 0.56636 0.0
H2235 H 0.25249 0.24893 0.55401 0.0
C2236 C 0.27093 0.24168 0.45911 0.0
C2237 C 0.28189 0.24945 0.4542 0.0
C2238 C 0.29119 0.24384 0.44538 0.0
C2239 C 0.28968 0.2304 0.44119 0.0
C2240 C 0.27886 0.22259 0.44629 0.0
C2241 C 0.26961 0.22818 0.4552 0.0
C2242 C 0.253 0.25774 0.45909 0.0
C2243 C 0.24217 0.25364 0.45082 0.0
C2244 C 0.23604 0.26276 0.442 0.0
C2245 C 0.24065 0.27621 0.44125 0.0
C2246 C 0.25127 0.28043 0.44984 0.0
C2247 C 0.25737 0.27129 0.45873 0.0
C2248 C 0.26238 0.25051 0.48092 0.0
C2249 C 0.27538 0.25179 0.48676 0.0
C2250 C 0.27695 0.25389 0.50065 0.0
C2251 C 0.26563 0.25497 0.5091 0.0
C2252 C 0.25267 0.25389 0.5032 0.0
C2253 C 0.25111 0.25159 0.48936 0.0
C2254 C 0.27955 0.2521 0.57405 0.0
C2255 C 0.29139 0.25505 0.58137 0.0
C2256 C 0.29657 0.24577 0.59064 0.0
C2257 C 0.28994 0.23332 0.59282 0.0
C2258 C 0.27844 0.23008 0.58499 0.0
C2259 C 0.27324 0.23941 0.57573 0.0
C2260 C 0.26395 0.27079 0.5737 0.0
C2261 C 0.25203 0.2652 0.57921 0.0
C2262 C 0.24435 0.2726 0.58827 0.0
C2263 C 0.2484 0.28574 0.59192 0.0
C2264 C 0.25997 0.29149 0.58588 0.0
C2265 C 0.26764 0.28408 0.57686 0.0
C2266 C 0.27099 0.26075 0.55214 0.0
C2267 C 0.28014 0.26649 0.54295 0.0
C2268 C 0.27833 0.26477 0.52905 0.0
C2269 C 0.26735 0.25709 0.52398 0.0
C2270 C 0.25811 0.2514 0.53328 0.0
C2271 C 0.25984 0.25331 0.5472 0.0
H2272 H 0.77311 0.45603 0.80045 0.0
N2273 N 0.77443 0.46404 0.77485 0.0
H2274 H 0.75693 0.43994 0.81039 0.0
H2275 H 0.75164 0.45383 0.76254 0.0
H2276 H 0.7351 0.43833 0.77252 0.0
H2277 H 0.77081 0.45797 0.74814 0.0
H2278 H 0.78373 0.44144 0.73543 0.0
H2279 H 0.79745 0.45281 0.78228 0.0
H2280 H 0.81058 0.43654 0.76957 0.0
H2281 H 0.78853 0.48419 0.78575 0.0
H2282 H 0.75621 0.47582 0.75756 0.0
H2283 H 0.78564 0.50836 0.78221 0.0
H2284 H 0.75265 0.49985 0.75451 0.0
H2285 H 0.77141 0.57381 0.78385 0.0
H2286 H 0.76135 0.58966 0.79935 0.0
H2287 H 0.72357 0.58668 0.77743 0.0
H2288 H 0.73364 0.57038 0.7621 0.0
H2289 H 0.75542 0.5789 0.7397 0.0
H2290 H 0.77162 0.59456 0.72913 0.0
H2291 H 0.80286 0.58067 0.75623 0.0
H2292 H 0.78654 0.56503 0.7668 0.0
H2293 H 0.76821 0.55024 0.78431 0.0
H2294 H 0.77167 0.52627 0.78714 0.0
H2295 H 0.76088 0.51999 0.74527 0.0
N2296 N 0.75944 0.56324 0.76112 0.0
H2297 H 0.75667 0.54405 0.74276 0.0
C2298 C 0.7635 0.45636 0.78085 0.0
C2299 C 0.76464 0.45243 0.79442 0.0
C2300 C 0.75535 0.44327 0.80008 0.0
C2301 C 0.74462 0.43793 0.79228 0.0
C2302 C 0.74325 0.44223 0.77879 0.0
C2303 C 0.75263 0.45128 0.7731 0.0
C2304 C 0.78315 0.45652 0.76622 0.0
C2305 C 0.77959 0.4535 0.7528 0.0
C2306 C 0.78698 0.44407 0.74555 0.0
C2307 C 0.79797 0.4375 0.75163 0.0
C2308 C 0.80198 0.44121 0.76474 0.0
C2309 C 0.7946 0.45059 0.77195 0.0
C2310 C 0.77254 0.47817 0.77208 0.0
C2311 C 0.78074 0.4876 0.77885 0.0
C2312 C 0.77896 0.50143 0.7769 0.0
C2313 C 0.76878 0.50621 0.76817 0.0
C2314 C 0.76069 0.49666 0.76121 0.0
C2315 C 0.76261 0.48281 0.76305 0.0
C2316 C 0.75323 0.57078 0.77179 0.0
C2317 C 0.76087 0.57624 0.78253 0.0
C2318 C 0.75515 0.58548 0.79131 0.0
C2319 C 0.74175 0.58965 0.78943 0.0
C2320 C 0.73392 0.58368 0.77913 0.0
C2321 C 0.73963 0.57435 0.77039 0.0
C2322 C 0.76975 0.5708 0.75397 0.0
C2323 C 0.76584 0.57903 0.74314 0.0
C2324 C 0.77511 0.58793 0.7371 0.0
C2325 C 0.78853 0.58878 0.7418 0.0
C2326 C 0.79257 0.58023 0.75243 0.0
C2327 C 0.78328 0.57127 0.75843 0.0
C2328 C 0.76195 0.54906 0.76329 0.0
C2329 C 0.76646 0.5438 0.77573 0.0
C2330 C 0.7686 0.52996 0.7773 0.0
C2331 C 0.76656 0.52102 0.76645 0.0
C2332 C 0.7623 0.5264 0.75397 0.0
C2333 C 0.75998 0.5402 0.75246 0.0
H2334 H 0.2609 0.57222 0.77579 0.0
N2335 N 0.27115 0.5615 0.75268 0.0
H2336 H 0.27268 0.58757 0.79119 0.0
H2337 H 0.29735 0.56818 0.75269 0.0
H2338 H 0.30929 0.58353 0.76824 0.0
H2339 H 0.27494 0.57641 0.73067 0.0
H2340 H 0.25931 0.59255 0.72057 0.0
H2341 H 0.24451 0.56415 0.75932 0.0
H2342 H 0.22891 0.58065 0.74955 0.0
H2343 H 0.26504 0.54819 0.77657 0.0
H2344 H 0.27063 0.54255 0.73389 0.0
H2345 H 0.2623 0.52411 0.77972 0.0
H2346 H 0.26692 0.51834 0.73678 0.0
H2347 H 0.25765 0.44924 0.79088 0.0
H2348 H 0.27404 0.43368 0.80077 0.0
H2349 H 0.30107 0.44186 0.76757 0.0
H2350 H 0.2846 0.45708 0.75766 0.0
H2351 H 0.2663 0.45192 0.74239 0.0
H2352 H 0.25318 0.43595 0.72859 0.0
H2353 H 0.2205 0.43736 0.75716 0.0
H2354 H 0.23368 0.45334 0.77089 0.0
H2355 H 0.24718 0.48086 0.78079 0.0
H2356 H 0.24886 0.50517 0.77715 0.0
H2357 H 0.27663 0.49873 0.74436 0.0
N2358 N 0.25902 0.46157 0.76706 0.0
H2359 H 0.27398 0.47452 0.74749 0.0
C2360 C 0.27828 0.56897 0.76306 0.0
C2361 C 0.2715 0.57442 0.77415 0.0
C2362 C 0.27825 0.58321 0.78298 0.0
C2363 C 0.29186 0.58687 0.78082 0.0
C2364 C 0.29875 0.58104 0.77002 0.0
C2365 C 0.292 0.57219 0.76123 0.0
C2366 C 0.26094 0.56919 0.74577 0.0
C2367 C 0.2648 0.5771 0.73465 0.0
C2368 C 0.25593 0.58641 0.72901 0.0
C2369 C 0.24301 0.58811 0.7345 0.0
C2370 C 0.23883 0.57961 0.74517 0.0
C2371 C 0.24773 0.57021 0.75077 0.0
C2372 C 0.26826 0.54732 0.75492 0.0
C2373 C 0.26553 0.54186 0.76779 0.0
C2374 C 0.26381 0.52792 0.76958 0.0
C2375 C 0.26446 0.51907 0.75854 0.0
C2376 C 0.26669 0.52466 0.74563 0.0
C2377 C 0.26866 0.53856 0.7439 0.0
C2378 C 0.26983 0.45438 0.77357 0.0
C2379 C 0.26723 0.44786 0.7859 0.0
C2380 C 0.27659 0.43898 0.79151 0.0
C2381 C 0.28874 0.43638 0.78483 0.0
C2382 C 0.29165 0.44343 0.77281 0.0
C2383 C 0.28227 0.4523 0.76719 0.0
C2384 C 0.25091 0.45385 0.75769 0.0
C2385 C 0.25622 0.44902 0.74555 0.0
C2386 C 0.24874 0.43984 0.7377 0.0
C2387 C 0.23579 0.43546 0.74176 0.0
C2388 C 0.23034 0.44073 0.75363 0.0
C2389 C 0.23784 0.44982 0.7615 0.0
C2390 C 0.26061 0.47585 0.76463 0.0
C2391 C 0.25361 0.48476 0.77282 0.0
C2392 C 0.25469 0.49869 0.77076 0.0
C2393 C 0.263 0.50411 0.76052 0.0
C2394 C 0.26999 0.49507 0.75225 0.0
C2395 C 0.26868 0.48111 0.75418 0.0
H2396 H 0.27511 0.57296 0.27673 0.0
N2397 N 0.25251 0.56134 0.26518 0.0
H2398 H 0.2913 0.58805 0.26562 0.0
H2399 H 0.254 0.56709 0.23897 0.0
H2400 H 0.2703 0.58229 0.22773 0.0
H2401 H 0.23038 0.57506 0.25958 0.0
H2402 H 0.21924 0.59144 0.27395 0.0
H2403 H 0.25774 0.56535 0.29209 0.0
H2404 H 0.24697 0.58206 0.30639 0.0
H2405 H 0.27326 0.54984 0.27961 0.0
H2406 H 0.23646 0.54102 0.25766 0.0
H2407 H 0.27684 0.52589 0.2831 0.0
H2408 H 0.23959 0.51692 0.26163 0.0
H2409 H 0.29585 0.45896 0.28083 0.0
H2410 H 0.30909 0.44472 0.26595 0.0
H2411 H 0.27348 0.43705 0.24157 0.0
H2412 H 0.2603 0.45108 0.25658 0.0
H2413 H 0.24309 0.45749 0.27256 0.0
H2414 H 0.22825 0.43993 0.28227 0.0
H2415 H 0.25871 0.43135 0.31241 0.0
H2416 H 0.27361 0.44861 0.30238 0.0
H2417 H 0.27411 0.48248 0.29743 0.0
H2418 H 0.26941 0.50644 0.29471 0.0
H2419 H 0.25282 0.49858 0.255 0.0
N2420 N 0.26934 0.46278 0.28003 0.0
H2421 H 0.25699 0.47463 0.25814 0.0
C2422 C 0.26332 0.56877 0.25863 0.0
C2423 C 0.2741 0.57463 0.26599 0.0
C2424 C 0.28337 0.58332 0.25963 0.0
C2425 C 0.28197 0.58646 0.24585 0.0
C2426 C 0.2715 0.58021 0.23841 0.0
C2427 C 0.26228 0.57145 0.24476 0.0
C2428 C 0.24491 0.56906 0.27469 0.0
C2429 C 0.23384 0.57634 0.26989 0.0
C2430 C 0.22762 0.58579 0.27805 0.0
C2431 C 0.23246 0.58828 0.29118 0.0
C2432 C 0.24306 0.58041 0.29629 0.0
C2433 C 0.24925 0.57087 0.28811 0.0
C2434 C 0.25462 0.54728 0.26821 0.0
C2435 C 0.26587 0.54278 0.27561 0.0
C2436 C 0.26784 0.52898 0.27771 0.0
C2437 C 0.25854 0.51934 0.27261 0.0
C2438 C 0.24713 0.52395 0.26549 0.0
C2439 C 0.24524 0.53774 0.26331 0.0
C2440 C 0.27715 0.45619 0.26983 0.0
C2441 C 0.29101 0.45447 0.27208 0.0
C2442 C 0.29854 0.44636 0.26354 0.0
C2443 C 0.29233 0.43982 0.25253 0.0
C2444 C 0.27853 0.44194 0.24999 0.0
C2445 C 0.271 0.45006 0.25853 0.0
C2446 C 0.25951 0.45425 0.28672 0.0
C2447 C 0.2465 0.45193 0.28134 0.0
C2448 C 0.23803 0.44192 0.28691 0.0
C2449 C 0.24245 0.43408 0.29792 0.0
C2450 C 0.25516 0.43699 0.30372 0.0
C2451 C 0.26361 0.44693 0.29812 0.0
C2452 C 0.26606 0.47676 0.278 0.0
C2453 C 0.26939 0.48597 0.28818 0.0
C2454 C 0.26679 0.49969 0.28654 0.0
C2455 C 0.26083 0.50458 0.27457 0.0
C2456 C 0.25728 0.49525 0.26442 0.0
C2457 C 0.25978 0.48148 0.26615 0.0
H2458 H 0.7903 0.45366 0.26195 0.0
N2459 N 0.76977 0.46519 0.27602 0.0
H2460 H 0.80676 0.43785 0.27103 0.0
H2461 H 0.77452 0.45951 0.30187 0.0
H2462 H 0.79107 0.44368 0.31105 0.0
H2463 H 0.74816 0.45091 0.28343 0.0
H2464 H 0.73438 0.4356 0.2695 0.0
H2465 H 0.77172 0.46229 0.24865 0.0
H2466 H 0.75802 0.44687 0.23462 0.0
H2467 H 0.79004 0.47811 0.26184 0.0
H2468 H 0.75322 0.48435 0.28368 0.0
H2469 H 0.79259 0.50235 0.25823 0.0
H2470 H 0.75521 0.50856 0.27952 0.0
H2471 H 0.80628 0.57344 0.26166 0.0
H2472 H 0.81622 0.58991 0.27733 0.0
H2473 H 0.77832 0.5913 0.2986 0.0
H2474 H 0.76838 0.57534 0.2827 0.0
H2475 H 0.75349 0.56572 0.2657 0.0
H2476 H 0.73714 0.58079 0.25508 0.0
H2477 H 0.76794 0.59503 0.22752 0.0
H2478 H 0.78433 0.58027 0.23853 0.0
H2479 H 0.78727 0.54559 0.24351 0.0
H2480 H 0.78447 0.52124 0.24659 0.0
H2481 H 0.76714 0.52794 0.28587 0.0
N2482 N 0.78061 0.56504 0.26033 0.0
H2483 H 0.7693 0.55208 0.28235 0.0
C2484 C 0.78113 0.45781 0.28127 0.0
C2485 C 0.79055 0.45181 0.2727 0.0
C2486 C 0.79994 0.44271 0.27789 0.0
C2487 C 0.8002 0.43954 0.29174 0.0
C2488 C 0.79124 0.44607 0.30037 0.0
C2489 C 0.78179 0.4551 0.29515 0.0
C2490 C 0.76094 0.45766 0.26711 0.0
C2491 C 0.7502 0.45023 0.27273 0.0
C2492 C 0.74237 0.44151 0.26477 0.0
C2493 C 0.74523 0.43995 0.25101 0.0
C2494 C 0.75574 0.44774 0.24524 0.0
C2495 C 0.76351 0.45658 0.25322 0.0
C2496 C 0.77151 0.47941 0.27326 0.0
C2497 C 0.78246 0.48468 0.26583 0.0
C2498 C 0.78382 0.49861 0.26365 0.0
C2499 C 0.77416 0.50757 0.26865 0.0
C2500 C 0.76305 0.50213 0.27578 0.0
C2501 C 0.76181 0.48826 0.27809 0.0
C2502 C 0.78666 0.57297 0.27103 0.0
C2503 C 0.80024 0.57708 0.2699 0.0
C2504 C 0.80591 0.58646 0.27888 0.0
C2505 C 0.79807 0.59187 0.28926 0.0
C2506 C 0.7846 0.58737 0.29068 0.0
C2507 C 0.77893 0.57808 0.28164 0.0
C2508 C 0.77016 0.5719 0.25289 0.0
C2509 C 0.75666 0.57191 0.25723 0.0
C2510 C 0.7473 0.58048 0.25109 0.0
C2511 C 0.75124 0.58911 0.24043 0.0
C2512 C 0.76461 0.5886 0.23576 0.0
C2513 C 0.77394 0.5801 0.24194 0.0
C2514 C 0.77865 0.55075 0.26267 0.0
C2515 C 0.78282 0.54175 0.25275 0.0
C2516 C 0.78131 0.52781 0.2546 0.0
C2517 C 0.77564 0.52248 0.26653 0.0
C2518 C 0.77137 0.53157 0.27645 0.0
C2519 C 0.77274 0.54551 0.27451 0.0
H2520 H 0.58457 0.29409 0.75216 0.0
N2521 N 0.56801 0.27289 0.7541 0.0
H2522 H 0.59999 0.303 0.76951 0.0
H2523 H 0.56893 0.26475 0.78048 0.0
H2524 H 0.58428 0.27367 0.79799 0.0
H2525 H 0.57711 0.24869 0.7636 0.0
H2526 H 0.59202 0.23342 0.75166 0.0
H2527 H 0.57485 0.27408 0.72826 0.0
H2528 H 0.58983 0.2589 0.71626 0.0
H2529 H 0.55094 0.29275 0.74985 0.0
H2530 H 0.55241 0.2511 0.7621 0.0
H2531 H 0.52638 0.29221 0.75183 0.0
H2532 H 0.52773 0.25016 0.7634 0.0
H2533 H 0.45508 0.29443 0.75623 0.0
H2534 H 0.43925 0.30458 0.77201 0.0
H2535 H 0.44581 0.27181 0.80006 0.0
H2536 H 0.46135 0.26162 0.78407 0.0
H2537 H 0.4589 0.245 0.76545 0.0
H2538 H 0.44274 0.23066 0.75298 0.0
H2539 H 0.44132 0.26052 0.72109 0.0
H2540 H 0.45706 0.27493 0.7339 0.0
H2541 H 0.48251 0.28409 0.7417 0.0
H2542 H 0.50716 0.28412 0.74075 0.0
H2543 H 0.50812 0.25682 0.77497 0.0
N2544 N 0.46662 0.27046 0.75866 0.0
H2545 H 0.48332 0.25637 0.77524 0.0
C2546 C 0.57568 0.27879 0.76502 0.0
C2547 C 0.58434 0.28974 0.76221 0.0
C2548 C 0.59311 0.2948 0.77212 0.0
C2549 C 0.59345 0.28893 0.78505 0.0
C2550 C 0.5844 0.27824 0.78803 0.0
C2551 C 0.57558 0.27319 0.77809 0.0
C2552 C 0.57481 0.26254 0.74676 0.0
C2553 C 0.57956 0.25083 0.75318 0.0
C2554 C 0.58815 0.24214 0.74637 0.0
C2555 C 0.59206 0.24493 0.73301 0.0
C2556 C 0.58681 0.25633 0.72646 0.0
C2557 C 0.57828 0.26503 0.73328 0.0
C2558 C 0.55352 0.27197 0.75561 0.0
C2559 C 0.54591 0.28344 0.75286 0.0
C2560 C 0.53183 0.28305 0.75389 0.0
C2561 C 0.52492 0.27107 0.75756 0.0
C2562 C 0.53263 0.2596 0.76061 0.0
C2563 C 0.5468 0.26007 0.75975 0.0
C2564 C 0.4594 0.27734 0.76901 0.0
C2565 C 0.45329 0.28963 0.76592 0.0
C2566 C 0.44425 0.29538 0.77492 0.0
C2567 C 0.44111 0.28887 0.78718 0.0
C2568 C 0.44781 0.27691 0.79056 0.0
C2569 C 0.45683 0.27115 0.78152 0.0
C2570 C 0.4591 0.261 0.75055 0.0
C2571 C 0.45526 0.2483 0.75567 0.0
C2572 C 0.44609 0.2401 0.74849 0.0
C2573 C 0.44073 0.24447 0.73604 0.0
C2574 C 0.44516 0.25693 0.7307 0.0
C2575 C 0.45422 0.26512 0.73792 0.0
C2576 C 0.48115 0.27038 0.75861 0.0
C2577 C 0.48809 0.27813 0.74897 0.0
C2578 C 0.50221 0.27819 0.74855 0.0
C2579 C 0.50978 0.27061 0.75791 0.0
C2580 C 0.50271 0.26272 0.76753 0.0
C2581 C 0.48852 0.26255 0.76782 0.0
H2582 H 0.46396 0.74302 0.76393 0.0
N2583 N 0.46649 0.76988 0.76985 0.0
H2584 H 0.44855 0.72681 0.77477 0.0
H2585 H 0.45213 0.77352 0.79199 0.0
H2586 H 0.43698 0.75724 0.8032 0.0
H2587 H 0.45964 0.79566 0.76917 0.0
H2588 H 0.4433 0.80635 0.75395 0.0
H2589 H 0.45487 0.75848 0.74732 0.0
H2590 H 0.43901 0.76917 0.73187 0.0
H2591 H 0.47827 0.75811 0.74782 0.0
H2592 H 0.48677 0.7761 0.78646 0.0
H2593 H 0.50227 0.75464 0.74443 0.0
H2594 H 0.5109 0.77212 0.78345 0.0
H2595 H 0.57697 0.73025 0.75043 0.0
H2596 H 0.59226 0.718 0.76551 0.0
H2597 H 0.58605 0.74756 0.79651 0.0
H2598 H 0.5707 0.75974 0.78132 0.0
H2599 H 0.57815 0.77618 0.76483 0.0
H2600 H 0.59384 0.79098 0.75253 0.0
H2601 H 0.58657 0.76792 0.71635 0.0
H2602 H 0.57067 0.75328 0.72869 0.0
H2603 H 0.54461 0.73787 0.74784 0.0
H2604 H 0.52055 0.74148 0.75161 0.0
H2605 H 0.53037 0.7791 0.77141 0.0
N2606 N 0.56533 0.75362 0.75491 0.0
H2607 H 0.5544 0.77503 0.7681 0.0
C2608 C 0.45918 0.75952 0.77718 0.0
C2609 C 0.45828 0.74615 0.77261 0.0
C2610 C 0.44951 0.73686 0.77889 0.0
C2611 C 0.44156 0.74073 0.78988 0.0
C2612 C 0.4429 0.75397 0.79471 0.0
C2613 C 0.45161 0.76324 0.78841 0.0
C2614 C 0.45866 0.77635 0.75936 0.0
C2615 C 0.4554 0.78994 0.76084 0.0
C2616 C 0.44609 0.79603 0.75211 0.0
C2617 C 0.4399 0.78862 0.74165 0.0
C2618 C 0.44356 0.77513 0.73987 0.0
C2619 C 0.45279 0.76904 0.74864 0.0
C2620 C 0.48065 0.76755 0.76739 0.0
C2621 C 0.48525 0.76132 0.75561 0.0
C2622 C 0.49908 0.7592 0.75374 0.0
C2623 C 0.50864 0.76309 0.76365 0.0
C2624 C 0.50394 0.7692 0.77546 0.0
C2625 C 0.49013 0.77141 0.77726 0.0
C2626 C 0.57277 0.74588 0.76471 0.0
C2627 C 0.57874 0.73394 0.76056 0.0
C2628 C 0.58746 0.72698 0.76918 0.0
C2629 C 0.59046 0.73191 0.78213 0.0
C2630 C 0.58408 0.74365 0.7865 0.0
C2631 C 0.57526 0.75058 0.77787 0.0
C2632 C 0.57313 0.76365 0.74762 0.0
C2633 C 0.57964 0.77449 0.75419 0.0
C2634 C 0.5887 0.7829 0.74717 0.0
C2635 C 0.59139 0.78067 0.73345 0.0
C2636 C 0.58451 0.77009 0.72682 0.0
C2637 C 0.57547 0.76169 0.73385 0.0
C2638 C 0.55129 0.75618 0.75756 0.0
C2639 C 0.54152 0.74686 0.75304 0.0
C2640 C 0.52776 0.74903 0.75511 0.0
C2641 C 0.5234 0.76067 0.76171 0.0
C2642 C 0.53329 0.76995 0.7664 0.0
C2643 C 0.54709 0.7677 0.76442 0.0
H2644 H 0.58095 0.78689 0.25985 0.0
N2645 N 0.56803 0.76336 0.26231 0.0
H2646 H 0.59703 0.79718 0.27585 0.0
H2647 H 0.57307 0.75463 0.28818 0.0
H2648 H 0.58887 0.76493 0.30423 0.0
H2649 H 0.57812 0.73907 0.27045 0.0
H2650 H 0.59339 0.72496 0.25755 0.0
H2651 H 0.57485 0.76632 0.23661 0.0
H2652 H 0.59014 0.75229 0.22364 0.0
H2653 H 0.54836 0.77759 0.25125 0.0
H2654 H 0.55545 0.74373 0.27758 0.0
H2655 H 0.52399 0.7745 0.25403 0.0
H2656 H 0.53123 0.74109 0.28126 0.0
H2657 H 0.45803 0.77363 0.2659 0.0
H2658 H 0.44297 0.78995 0.27593 0.0
H2659 H 0.44608 0.7693 0.31427 0.0
H2660 H 0.46115 0.75283 0.30408 0.0
H2661 H 0.45261 0.72971 0.28368 0.0
H2662 H 0.43622 0.71856 0.26865 0.0
H2663 H 0.44858 0.74506 0.2361 0.0
H2664 H 0.4653 0.75587 0.25114 0.0
H2665 H 0.48218 0.77488 0.27238 0.0
H2666 H 0.50622 0.77737 0.26867 0.0
H2667 H 0.51058 0.73423 0.27229 0.0
N2668 N 0.46812 0.75111 0.27824 0.0
H2669 H 0.48646 0.7319 0.27688 0.0
C2670 C 0.57578 0.77003 0.27275 0.0
C2671 C 0.58247 0.78219 0.26962 0.0
C2672 C 0.59165 0.78804 0.27875 0.0
C2673 C 0.59436 0.78174 0.2912 0.0
C2674 C 0.58719 0.76986 0.29459 0.0
C2675 C 0.57802 0.76402 0.28544 0.0
C2676 C 0.5753 0.75376 0.25443 0.0
C2677 C 0.58045 0.74188 0.26016 0.0
C2678 C 0.58924 0.73386 0.2528 0.0
C2679 C 0.59291 0.73748 0.23956 0.0
C2680 C 0.58731 0.74908 0.23372 0.0
C2681 C 0.57861 0.75712 0.2411 0.0
C2682 C 0.55375 0.76108 0.26433 0.0
C2683 C 0.54462 0.76959 0.25778 0.0
C2684 C 0.53067 0.76785 0.2595 0.0
C2685 C 0.52547 0.75761 0.26801 0.0
C2686 C 0.53472 0.749 0.2745 0.0
C2687 C 0.54869 0.75062 0.27257 0.0
C2688 C 0.46087 0.76204 0.28431 0.0
C2689 C 0.45571 0.77272 0.27652 0.0
C2690 C 0.44713 0.7821 0.28228 0.0
C2691 C 0.44343 0.78095 0.29592 0.0
C2692 C 0.44878 0.77043 0.30375 0.0
C2693 C 0.45746 0.7611 0.29799 0.0
C2694 C 0.46007 0.74364 0.26858 0.0
C2695 C 0.45194 0.73292 0.27324 0.0
C2696 C 0.4425 0.72669 0.26469 0.0
C2697 C 0.44089 0.73116 0.25129 0.0
C2698 C 0.44955 0.74145 0.2464 0.0
C2699 C 0.45907 0.74765 0.25497 0.0
C2700 C 0.48231 0.7531 0.27503 0.0
C2701 C 0.48816 0.76589 0.2724 0.0
C2702 C 0.50208 0.76732 0.27014 0.0
C2703 C 0.51053 0.75603 0.27018 0.0
C2704 C 0.50457 0.74324 0.27246 0.0
C2705 C 0.4907 0.74185 0.27495 0.0
H2706 H 0.58508 0.27911 0.29867 0.0
N2707 N 0.56852 0.27631 0.2777 0.0
H2708 H 0.59983 0.26211 0.30861 0.0
H2709 H 0.56826 0.24954 0.27148 0.0
H2710 H 0.58293 0.23232 0.28149 0.0
H2711 H 0.57657 0.26528 0.25393 0.0
H2712 H 0.59207 0.27561 0.23762 0.0
H2713 H 0.57757 0.30167 0.27735 0.0
H2714 H 0.59303 0.31219 0.26094 0.0
H2715 H 0.55158 0.28317 0.29694 0.0
H2716 H 0.55259 0.26702 0.25676 0.0
H2717 H 0.52692 0.28255 0.29635 0.0
H2718 H 0.5279 0.26704 0.2557 0.0
H2719 H 0.45746 0.27622 0.30152 0.0
H2720 H 0.44253 0.25928 0.31216 0.0
H2721 H 0.44512 0.23459 0.27662 0.0
H2722 H 0.45998 0.25149 0.26612 0.0
H2723 H 0.46288 0.26968 0.25003 0.0
H2724 H 0.44618 0.27998 0.23482 0.0
H2725 H 0.43717 0.30913 0.26545 0.0
H2726 H 0.45354 0.29853 0.28068 0.0
H2727 H 0.48404 0.29388 0.28724 0.0
H2728 H 0.50871 0.29385 0.28684 0.0
H2729 H 0.50734 0.25726 0.26341 0.0
N2730 N 0.46698 0.27606 0.2765 0.0
H2731 H 0.48263 0.25789 0.26329 0.0
C2732 C 0.57557 0.26558 0.28443 0.0
C2733 C 0.58436 0.26884 0.29509 0.0
C2734 C 0.59273 0.2591 0.30078 0.0
C2735 C 0.59244 0.24583 0.29593 0.0
C2736 C 0.58335 0.24247 0.28543 0.0
C2737 C 0.57495 0.25226 0.27975 0.0
C2738 C 0.57581 0.28278 0.26683 0.0
C2739 C 0.57982 0.27562 0.25537 0.0
C2740 C 0.58868 0.28156 0.24603 0.0
C2741 C 0.59372 0.29474 0.24797 0.0
C2742 C 0.58933 0.30201 0.2592 0.0
C2743 C 0.58044 0.29608 0.2685 0.0
C2744 C 0.55396 0.27535 0.27689 0.0
C2745 C 0.54644 0.27957 0.28794 0.0
C2746 C 0.53231 0.27933 0.2875 0.0
C2747 C 0.52528 0.27497 0.27587 0.0
C2748 C 0.53288 0.27041 0.26486 0.0
C2749 C 0.54707 0.2705 0.2654 0.0
C2750 C 0.45998 0.26507 0.28314 0.0
C2751 C 0.45505 0.26699 0.29619 0.0
C2752 C 0.44647 0.25738 0.30219 0.0
C2753 C 0.44273 0.24559 0.29524 0.0
C2754 C 0.44804 0.24346 0.28232 0.0
C2755 C 0.45656 0.25312 0.2763 0.0
C2756 C 0.45931 0.2833 0.26652 0.0
C2757 C 0.45743 0.27838 0.25337 0.0
C2758 C 0.44791 0.28429 0.2447 0.0
C2759 C 0.44016 0.29516 0.24908 0.0
C2760 C 0.44275 0.30056 0.26193 0.0
C2761 C 0.45218 0.29463 0.27057 0.0
C2762 C 0.48149 0.27585 0.27548 0.0
C2763 C 0.48911 0.28592 0.28195 0.0
C2764 C 0.50323 0.28578 0.28181 0.0
C2765 C 0.51015 0.2754 0.2753 0.0
C2766 C 0.50244 0.26545 0.26849 0.0
C2767 C 0.48825 0.26571 0.26851 0.0
C2768 C 0.23454 0.22736 0.12225 0.0
C2769 C 0.23122 0.21367 0.12029 0.0
C2770 C 0.24106 0.23501 0.11217 0.0
C2771 C 0.24452 0.22925 0.09975 0.0
H2772 H 0.23254 0.23209 0.13183 0.0
H2773 H 0.24387 0.24536 0.11432 0.0
S2774 S 0.23644 0.19435 0.08889 0.0
N2775 N 0.23071 0.19505 0.10448 0.0
N2776 N 0.24302 0.2094 0.08559 0.0
C2777 C 0.24073 0.21574 0.09744 0.0
C2778 C 0.23407 0.20797 0.10768 0.0
C2779 C 0.78581 0.2112 0.12521 0.0
C2780 C 0.8 0.21116 0.12643 0.0
C2781 C 0.7794 0.21808 0.11463 0.0
C2782 C 0.78689 0.22526 0.10484 0.0
H2783 H 0.7796 0.20586 0.13252 0.0
H2784 H 0.76844 0.21801 0.11429 0.0
S2785 S 0.8243 0.22811 0.10326 0.0
N2786 N 0.82137 0.21884 0.11686 0.0
N2787 N 0.8093 0.23159 0.09682 0.0
C2788 C 0.80109 0.22517 0.10582 0.0
C2789 C 0.80764 0.21814 0.11661 0.0
C2790 C 0.80013 0.82197 0.1098 0.0
C2791 C 0.80251 0.81623 0.12262 0.0
C2792 C 0.79368 0.81457 0.09951 0.0
C2793 C 0.78937 0.80114 0.10163 0.0
H2794 H 0.80319 0.8323 0.10774 0.0
H2795 H 0.79197 0.81943 0.08984 0.0
S2796 S 0.79255 0.78169 0.13359 0.0
N2797 N 0.79969 0.79645 0.13696 0.0
N2798 N 0.78757 0.78257 0.11768 0.0
C2799 C 0.79177 0.79526 0.11438 0.0
C2800 C 0.79834 0.80279 0.12484 0.0
C2801 C 0.25003 0.80968 0.12204 0.0
C2802 C 0.23585 0.80999 0.12296 0.0
C2803 C 0.25639 0.80293 0.11152 0.0
C2804 C 0.24884 0.79613 0.1015 0.0
H2805 H 0.2563 0.81474 0.12951 0.0
H2806 H 0.26734 0.80281 0.1114 0.0
S2807 S 0.21141 0.79402 0.09915 0.0
N2808 N 0.21442 0.80293 0.11289 0.0
N2809 N 0.22638 0.7904 0.09299 0.0
C2810 C 0.23464 0.79645 0.10221 0.0
C2811 C 0.22815 0.80337 0.11293 0.0
C2812 C 0.23281 0.80695 0.92205 0.0
C2813 C 0.22922 0.80163 0.90936 0.0
C2814 C 0.23809 0.79874 0.93233 0.0
C2815 C 0.23997 0.78488 0.93032 0.0
H2816 H 0.23154 0.81757 0.92405 0.0
H2817 H 0.24076 0.80327 0.94191 0.0
S2818 S 0.23299 0.76616 0.89868 0.0
N2819 N 0.22842 0.78173 0.89522 0.0
N2820 N 0.23831 0.76631 0.91451 0.0
C2821 C 0.23641 0.77943 0.91769 0.0
C2822 C 0.23105 0.78779 0.90723 0.0
C2823 C 0.22789 0.21683 0.91942 0.0
C2824 C 0.22089 0.22516 0.91029 0.0
C2825 C 0.2362 0.22233 0.9296 0.0
C2826 C 0.23772 0.23636 0.93115 0.0
H2827 H 0.22723 0.20598 0.91846 0.0
H2828 H 0.24158 0.21553 0.93624 0.0
S2829 S 0.22106 0.26254 0.91026 0.0
N2830 N 0.21554 0.24814 0.90385 0.0
N2831 N 0.23131 0.25846 0.9228 0.0
C2832 C 0.23051 0.24479 0.92229 0.0
C2833 C 0.22209 0.2392 0.91191 0.0
C2834 C 0.80086 0.23021 0.91199 0.0
C2835 C 0.81387 0.22487 0.91357 0.0
C2836 C 0.79439 0.23656 0.9227 0.0
C2837 C 0.80072 0.23793 0.9354 0.0
H2838 H 0.79569 0.2296 0.90233 0.0
H2839 H 0.78453 0.24081 0.92088 0.0
S2840 S 0.83457 0.22529 0.94493 0.0
N2841 N 0.83274 0.22113 0.92891 0.0
N2842 N 0.82051 0.23292 0.9491 0.0
C2843 C 0.8136 0.23237 0.93721 0.0
C2844 C 0.82017 0.22585 0.9263 0.0
C2845 C 0.79434 0.80357 0.90694 0.0
C2846 C 0.80624 0.81126 0.90907 0.0
C2847 C 0.78854 0.79588 0.91739 0.0
C2848 C 0.79449 0.79545 0.93033 0.0
H2849 H 0.78943 0.80357 0.89714 0.0
H2850 H 0.77942 0.79005 0.91526 0.0
S2851 S 0.82569 0.81371 0.94111 0.0
N2852 N 0.82378 0.81796 0.92507 0.0
N2853 N 0.81288 0.80345 0.94471 0.0
C2854 C 0.80638 0.80307 0.93259 0.0
C2855 C 0.81223 0.81101 0.92198 0.0
C2856 C 0.12959 0.21865 0.22832 0.0
C2857 C 0.12766 0.21671 0.21439 0.0
C2858 C 0.11908 0.2231 0.23651 0.0
C2859 C 0.10619 0.22579 0.23111 0.0
H2860 H 0.13939 0.21694 0.23291 0.0
H2861 H 0.12116 0.22468 0.24714 0.0
S2862 S 0.09555 0.2213 0.19544 0.0
N2863 N 0.11166 0.21716 0.19566 0.0
N2864 N 0.0919 0.22552 0.21107 0.0
C2865 C 0.10405 0.22371 0.21723 0.0
C2866 C 0.11477 0.21918 0.20888 0.0
C2867 C 0.81037 0.11668 0.23895 0.0
C2868 C 0.81231 0.11866 0.225 0.0
C2869 C 0.80157 0.10655 0.24382 0.0
C2870 C 0.79437 0.09803 0.23494 0.0
H2871 H 0.81537 0.12326 0.24615 0.0
H2872 H 0.80007 0.10568 0.25461 0.0
S2873 S 0.79707 0.09797 0.19763 0.0
N2874 N 0.80716 0.11048 0.20245 0.0
N2875 N 0.79058 0.09152 0.21161 0.0
C2876 C 0.79657 0.09959 0.22101 0.0
C2877 C 0.80554 0.10988 0.21604 0.0
C2878 C 0.90585 0.80817 0.22966 0.0
C2879 C 0.90747 0.81094 0.21582 0.0
C2880 C 0.91668 0.80375 0.23763 0.0
C2881 C 0.92957 0.80181 0.2321 0.0
H2882 H 0.89613 0.8095 0.23439 0.0
H2883 H 0.91488 0.80163 0.24822 0.0
S2884 S 0.93913 0.80756 0.19636 0.0
N2885 N 0.92294 0.81133 0.19686 0.0
N2886 N 0.94336 0.80312 0.21191 0.0
C2887 C 0.93135 0.80454 0.21827 0.0
C2888 C 0.9203 0.80912 0.21014 0.0
C2889 C 0.22895 0.91454 0.21432 0.0
C2890 C 0.22609 0.90309 0.22232 0.0
C2891 C 0.23718 0.92512 0.2192 0.0
C2892 C 0.24287 0.92463 0.23226 0.0
H2893 H 0.22466 0.91539 0.20426 0.0
H2894 H 0.23902 0.93381 0.21275 0.0
S2895 S 0.23959 0.89624 0.25665 0.0
N2896 N 0.23029 0.89151 0.24358 0.0
N2897 N 0.2458 0.91128 0.25271 0.0
C2898 C 0.24028 0.91311 0.24024 0.0
C2899 C 0.23189 0.90237 0.23529 0.0
C2900 C 0.12903 0.78966 0.80509 0.0
C2901 C 0.12753 0.79515 0.81803 0.0
C2902 C 0.11801 0.7838 0.7982 0.0
C2903 C 0.10509 0.78306 0.80405 0.0
H2904 H 0.13883 0.78984 0.80027 0.0
H2905 H 0.1197 0.7795 0.78835 0.0
S2906 S 0.09574 0.79616 0.83761 0.0
N2907 N 0.11208 0.79964 0.83636 0.0
N2908 N 0.09135 0.78863 0.82339 0.0
C2909 C 0.10341 0.78866 0.81691 0.0
C2910 C 0.11462 0.79473 0.82388 0.0
C2911 C 0.22993 0.10782 0.82437 0.0
C2912 C 0.22361 0.11897 0.81833 0.0
C2913 C 0.23479 0.0972 0.81657 0.0
C2914 C 0.23347 0.0973 0.80243 0.0
H2915 H 0.23118 0.10731 0.83523 0.0
H2916 H 0.23967 0.08888 0.82165 0.0
S2917 S 0.21845 0.12448 0.78158 0.0
N2918 N 0.21677 0.12965 0.79727 0.0
N2919 N 0.22582 0.10971 0.78265 0.0
C2920 C 0.22713 0.10835 0.79626 0.0
C2921 C 0.22222 0.11917 0.80419 0.0
C2922 C 0.91784 0.21287 0.80684 0.0
C2923 C 0.90771 0.21869 0.81469 0.0
C2924 C 0.92857 0.22067 0.80157 0.0
C2925 C 0.92964 0.2346 0.80404 0.0
H2926 H 0.91728 0.20224 0.8044 0.0
H2927 H 0.936 0.21578 0.79542 0.0
S2928 S 0.90608 0.25462 0.82452 0.0
N2929 N 0.89981 0.23912 0.82523 0.0
N2930 N 0.91972 0.25384 0.81507 0.0
C2931 C 0.91975 0.24049 0.81215 0.0
C2932 C 0.90884 0.23254 0.81751 0.0
C2933 C 0.80514 0.90625 0.8051 0.0
C2934 C 0.81891 0.9079 0.80851 0.0
C2935 C 0.79797 0.91661 0.79871 0.0
C2936 C 0.80428 0.92902 0.79547 0.0
H2937 H 0.79999 0.8967 0.80693 0.0
H2938 H 0.78753 0.91469 0.79582 0.0
S2939 S 0.8396 0.9391 0.80388 0.0
N2940 N 0.83819 0.92339 0.80936 0.0
N2941 N 0.82473 0.94281 0.79729 0.0
C2942 C 0.81786 0.93101 0.79936 0.0
C2943 C 0.82516 0.92048 0.80589 0.0
C2944 C 0.23826 0.12277 0.2255 0.0
C2945 C 0.22481 0.12009 0.22151 0.0
C2946 C 0.24666 0.11244 0.23006 0.0
C2947 C 0.24195 0.09901 0.23093 0.0
H2948 H 0.24235 0.13295 0.22499 0.0
H2949 H 0.25692 0.11504 0.23308 0.0
S2950 S 0.2075 0.08665 0.22186 0.0
N2951 N 0.20709 0.10302 0.21887 0.0
N2952 N 0.22295 0.08357 0.22738 0.0
C2953 C 0.22851 0.09617 0.22703 0.0
C2954 C 0.21995 0.1067 0.2223 0.0
C2955 C 0.23512 0.90212 0.81487 0.0
C2956 C 0.22096 0.90195 0.81331 0.0
C2957 C 0.24306 0.91296 0.81008 0.0
C2958 C 0.23716 0.92404 0.80352 0.0
H2959 H 0.24015 0.89362 0.81948 0.0
H2960 H 0.25395 0.91246 0.81116 0.0
S2961 S 0.20046 0.92928 0.79827 0.0
N2962 N 0.2013 0.9144 0.80575 0.0
N2963 N 0.21626 0.93468 0.79664 0.0
C2964 C 0.223 0.92422 0.80228 0.0
C2965 C 0.2149 0.91321 0.8072 0.0
C2966 C 0.12457 0.22211 0.80653 0.0
C2967 C 0.12242 0.20916 0.81205 0.0
C2968 C 0.11408 0.22903 0.80005 0.0
C2969 C 0.10102 0.22327 0.79884 0.0
H2970 H 0.13456 0.22674 0.80679 0.0
H2971 H 0.11635 0.23876 0.79551 0.0
S2972 S 0.08969 0.19038 0.81312 0.0
N2973 N 0.10595 0.19138 0.81697 0.0
N2974 N 0.08625 0.20438 0.80479 0.0
C2975 C 0.0986 0.21057 0.80481 0.0
C2976 C 0.10928 0.20353 0.81141 0.0
C2977 C 0.81337 0.1127 0.81118 0.0
C2978 C 0.80432 0.121 0.81801 0.0
C2979 C 0.80867 0.10221 0.80285 0.0
C2980 C 0.79473 0.09953 0.80114 0.0
H2981 H 0.82417 0.11458 0.81194 0.0
H2982 H 0.816 0.09626 0.79757 0.0
S2983 S 0.76688 0.11785 0.81742 0.0
N2984 N 0.7808 0.12536 0.8231 0.0
N2985 N 0.77196 0.10587 0.80726 0.0
C2986 C 0.7856 0.10751 0.80823 0.0
C2987 C 0.79039 0.1182 0.81669 0.0
C2988 C 0.9087 0.7923 0.81107 0.0
C2989 C 0.90955 0.80509 0.81708 0.0
C2990 C 0.91941 0.78729 0.80351 0.0
C2991 C 0.93146 0.79483 0.80168 0.0
H2992 H 0.89959 0.78618 0.81205 0.0
H2993 H 0.91814 0.77751 0.79885 0.0
S2994 S 0.93916 0.82849 0.81615 0.0
N2995 N 0.92362 0.82495 0.82121 0.0
N2996 N 0.94382 0.8155 0.80708 0.0
C2997 C 0.93251 0.80757 0.80778 0.0
C2998 C 0.92156 0.8127 0.81545 0.0
C2999 C 0.80595 0.90832 0.23633 0.0
C3000 C 0.81071 0.9089 0.22298 0.0
C3001 C 0.79758 0.91833 0.2414 0.0
C3002 C 0.79364 0.92935 0.23336 0.0
H3003 H 0.80852 0.89993 0.24284 0.0
H3004 H 0.79393 0.91726 0.25165 0.0
S3005 S 0.80428 0.93618 0.1981 0.0
N3006 N 0.81147 0.92176 0.20204 0.0
N3007 N 0.79579 0.94063 0.2116 0.0
C3008 C 0.79853 0.93018 0.22007 0.0
C3009 C 0.80704 0.91996 0.21488 0.0
C3010 C 0.12699 0.79326 0.22029 0.0
C3011 C 0.12753 0.80635 0.21478 0.0
C3012 C 0.11618 0.78896 0.22841 0.0
C3013 C 0.10542 0.79755 0.23133 0.0
H3014 H 0.13513 0.78634 0.21852 0.0
H3015 H 0.1164 0.77888 0.23267 0.0
S3016 S 0.10143 0.83245 0.21844 0.0
N3017 N 0.11601 0.82766 0.21221 0.0
N3018 N 0.09564 0.81955 0.22743 0.0
C3019 C 0.10571 0.8106 0.22569 0.0
C3020 C 0.11675 0.815 0.21743 0.0
C3021 C 0.92065 0.22676 0.20694 0.0
C3022 C 0.90983 0.221 0.21425 0.0
C3023 C 0.93166 0.233 0.21352 0.0
C3024 C 0.93232 0.23366 0.22768 0.0
H3025 H 0.92052 0.22663 0.19601 0.0
H3026 H 0.93963 0.23752 0.20747 0.0
S3027 S 0.90653 0.22036 0.25153 0.0
N3028 N 0.90045 0.21647 0.23647 0.0
N3029 N 0.92119 0.22809 0.24883 0.0
C3030 C 0.92174 0.22767 0.23514 0.0
C3031 C 0.91049 0.22136 0.22843 0.0
C3032 C 0.2255 0.70936 0.60887 0.0
C3033 C 0.22304 0.71501 0.62159 0.0
C3034 C 0.23182 0.71689 0.59858 0.0
C3035 C 0.23593 0.73037 0.6006 0.0
H3036 H 0.22262 0.69898 0.60688 0.0
H3037 H 0.23362 0.71207 0.58899 0.0
S3038 S 0.23236 0.74969 0.63227 0.0
N3039 N 0.22547 0.73481 0.63572 0.0
N3040 N 0.23737 0.74894 0.61644 0.0
C3041 C 0.2334 0.73618 0.61323 0.0
C3042 C 0.22695 0.72852 0.6237 0.0
C3043 C 0.8028 0.71269 0.61523 0.0
C3044 C 0.80961 0.71807 0.62655 0.0
C3045 C 0.79814 0.72105 0.60475 0.0
C3046 C 0.80017 0.7351 0.60517 0.0
H3047 H 0.80106 0.70192 0.61444 0.0
H3048 H 0.79291 0.71648 0.59625 0.0
S3049 S 0.81657 0.75432 0.63296 0.0
N3050 N 0.81757 0.73842 0.6378 0.0
N3051 N 0.80893 0.75407 0.61809 0.0
C3052 C 0.80694 0.74061 0.61643 0.0
C3053 C 0.81164 0.73212 0.62711 0.0
C3054 C 0.81927 0.30671 0.6159 0.0
C3055 C 0.81049 0.31102 0.62606 0.0
C3056 C 0.81454 0.29862 0.60522 0.0
C3057 C 0.80086 0.29455 0.60431 0.0
H3058 H 0.82985 0.30971 0.61614 0.0
H3059 H 0.82163 0.29561 0.59757 0.0
S3060 S 0.77407 0.30204 0.62906 0.0
N3061 N 0.78767 0.30992 0.63497 0.0
N3062 N 0.77882 0.29472 0.615 0.0
C3063 C 0.79205 0.29862 0.61453 0.0
C3064 C 0.79685 0.30685 0.62537 0.0
C3065 C 0.24273 0.30532 0.62416 0.0
C3066 C 0.22859 0.30656 0.62463 0.0
C3067 C 0.24899 0.29873 0.61348 0.0
C3068 C 0.24137 0.29302 0.60285 0.0
H3069 H 0.24904 0.30959 0.63207 0.0
H3070 H 0.2599 0.29794 0.61365 0.0
S3071 S 0.20402 0.29342 0.59929 0.0
N3072 N 0.20712 0.30142 0.61357 0.0
N3073 N 0.21891 0.28914 0.59339 0.0
C3074 C 0.22722 0.29417 0.60317 0.0
C3075 C 0.22084 0.30094 0.61405 0.0
C3076 C 0.22825 0.28964 0.4074 0.0
C3077 C 0.2245 0.3029 0.41032 0.0
C3078 C 0.23338 0.28112 0.41747 0.0
C3079 C 0.23493 0.28549 0.43089 0.0
H3080 H 0.22745 0.28589 0.39718 0.0
H3081 H 0.23637 0.27108 0.41466 0.0
S3082 S 0.22557 0.31894 0.44401 0.0
N3083 N 0.22204 0.3198 0.42772 0.0
N3084 N 0.23161 0.30374 0.44668 0.0
C3085 C 0.23102 0.29866 0.434 0.0
C3086 C 0.22582 0.30736 0.42371 0.0
C3087 C 0.21186 0.74308 0.40847 0.0
C3088 C 0.21171 0.72893 0.40759 0.0
C3089 C 0.21834 0.74973 0.4192 0.0
C3090 C 0.22502 0.74254 0.42948 0.0
H3091 H 0.20688 0.74907 0.40079 0.0
H3092 H 0.21835 0.76065 0.41927 0.0
S3093 S 0.22743 0.70536 0.43207 0.0
N3094 N 0.21877 0.70792 0.41801 0.0
N3095 N 0.2308 0.72045 0.43829 0.0
C3096 C 0.22484 0.72839 0.42882 0.0
C3097 C 0.2182 0.72159 0.41789 0.0
C3098 C 0.82175 0.73119 0.42009 0.0
C3099 C 0.81564 0.72449 0.4091 0.0
C3100 C 0.81401 0.7359 0.43086 0.0
C3101 C 0.79988 0.73393 0.43112 0.0
H3102 H 0.83256 0.73312 0.42022 0.0
H3103 H 0.81911 0.74118 0.43901 0.0
S3104 S 0.77905 0.71661 0.40499 0.0
N3105 N 0.79468 0.71573 0.39937 0.0
N3106 N 0.78013 0.72474 0.41944 0.0
C3107 C 0.79369 0.72703 0.4203 0.0
C3108 C 0.80156 0.72229 0.40933 0.0
C3109 C 0.79768 0.31526 0.41023 0.0
C3110 C 0.8116 0.31363 0.40805 0.0
C3111 C 0.79115 0.30913 0.42123 0.0
C3112 C 0.79824 0.30105 0.43051 0.0
H3113 H 0.79177 0.32137 0.40337 0.0
H3114 H 0.78037 0.31052 0.4223 0.0
S3115 S 0.83487 0.29371 0.42954 0.0
N3116 N 0.8323 0.30337 0.41616 0.0
N3117 N 0.82005 0.29199 0.43698 0.0
C3118 C 0.81219 0.29942 0.42855 0.0
C3119 C 0.81887 0.3057 0.41733 0.0
C3120 C 0.11258 0.7112 0.7227 0.0
C3121 C 0.12186 0.7202 0.71658 0.0
C3122 C 0.1024 0.71583 0.73123 0.0
C3123 C 0.10111 0.72965 0.73398 0.0
H3124 H 0.11317 0.70049 0.72086 0.0
H3125 H 0.09551 0.70854 0.73575 0.0
S3126 S 0.12344 0.75725 0.72124 0.0
N3127 N 0.12944 0.74352 0.71433 0.0
N3128 N 0.11037 0.7522 0.73035 0.0
C3129 C 0.11034 0.73874 0.72794 0.0
C3130 C 0.1207 0.73403 0.71926 0.0
C3131 C 0.81315 0.61856 0.74022 0.0
C3132 C 0.81465 0.62086 0.72627 0.0
C3133 C 0.80498 0.60795 0.74513 0.0
C3134 C 0.79796 0.59924 0.73629 0.0
H3135 H 0.81807 0.62521 0.74742 0.0
H3136 H 0.80384 0.60681 0.75595 0.0
S3137 S 0.79955 0.60005 0.69891 0.0
N3138 N 0.8092 0.61291 0.7037 0.0
N3139 N 0.79378 0.59304 0.71294 0.0
C3140 C 0.79965 0.6012 0.72233 0.0
C3141 C 0.808 0.61198 0.71732 0.0
C3142 C 0.91973 0.31366 0.72843 0.0
C3143 C 0.91084 0.30498 0.72135 0.0
C3144 C 0.92998 0.30857 0.73682 0.0
C3145 C 0.93174 0.2946 0.73845 0.0
H3146 H 0.91879 0.32448 0.72744 0.0
H3147 H 0.93659 0.31562 0.74208 0.0
S3148 S 0.91047 0.26762 0.72299 0.0
N3149 N 0.90407 0.28175 0.71706 0.0
N3150 N 0.92328 0.27221 0.73279 0.0
C3151 C 0.92287 0.28583 0.73149 0.0
C3152 C 0.91244 0.29101 0.72296 0.0
C3153 C 0.22778 0.40163 0.72555 0.0
C3154 C 0.2139 0.40244 0.72251 0.0
C3155 C 0.2349 0.41253 0.73133 0.0
C3156 C 0.22839 0.42465 0.73429 0.0
H3157 H 0.23309 0.39233 0.72392 0.0
H3158 H 0.24545 0.41127 0.73397 0.0
S3159 S 0.19264 0.43257 0.72661 0.0
N3160 N 0.19425 0.41682 0.72168 0.0
N3161 N 0.2076 0.43725 0.7326 0.0
C3162 C 0.21467 0.4258 0.73076 0.0
C3163 C 0.20743 0.41472 0.72486 0.0
C3164 C 0.1271 0.29057 0.30369 0.0
C3165 C 0.1246 0.29472 0.31697 0.0
C3166 C 0.11703 0.28408 0.29597 0.0
C3167 C 0.10404 0.28151 0.30123 0.0
H3168 H 0.13706 0.29196 0.29937 0.0
H3169 H 0.11956 0.28068 0.28596 0.0
S3170 S 0.09185 0.29178 0.33487 0.0
N3171 N 0.10786 0.29678 0.33465 0.0
N3172 N 0.08891 0.28461 0.32013 0.0
C3173 C 0.10126 0.28603 0.31432 0.0
C3174 C 0.11153 0.29263 0.32218 0.0
C3175 C 0.21841 0.60823 0.32055 0.0
C3176 C 0.21697 0.62123 0.31501 0.0
C3177 C 0.22332 0.59759 0.3128 0.0
C3178 C 0.22699 0.59956 0.29922 0.0
H3179 H 0.21565 0.60625 0.33094 0.0
H3180 H 0.22419 0.58773 0.31744 0.0
S3181 S 0.22633 0.63198 0.28034 0.0
N3182 N 0.22035 0.63564 0.29536 0.0
N3183 N 0.22963 0.61574 0.28084 0.0
C3184 C 0.22577 0.61257 0.29363 0.0
C3185 C 0.22075 0.62336 0.3015 0.0
C3186 C 0.92068 0.72771 0.31327 0.0
C3187 C 0.90984 0.72291 0.30529 0.0
C3188 C 0.93089 0.73604 0.30775 0.0
C3189 C 0.9306 0.73989 0.29404 0.0
H3190 H 0.92137 0.72488 0.32383 0.0
H3191 H 0.93912 0.73939 0.31423 0.0
S3192 S 0.90363 0.73113 0.26922 0.0
N3193 N 0.89897 0.7233 0.28323 0.0
N3194 N 0.91801 0.739 0.27289 0.0
C3195 C 0.91965 0.73536 0.28604 0.0
C3196 C 0.90931 0.72686 0.29165 0.0
C3197 C 0.81579 0.40503 0.29586 0.0
C3198 C 0.82432 0.40657 0.30717 0.0
C3199 C 0.8083 0.41583 0.29078 0.0
C3200 C 0.80891 0.42857 0.29693 0.0
H3201 H 0.81493 0.39538 0.29085 0.0
H3202 H 0.80174 0.41412 0.28214 0.0
S3203 S 0.82978 0.43791 0.32676 0.0
N3204 N 0.83304 0.42185 0.32432 0.0
N3205 N 0.81889 0.44216 0.31481 0.0
C3206 C 0.81745 0.43027 0.30821 0.0
C3207 C 0.82519 0.41929 0.3133 0.0
C3208 C 0.2122 0.60706 0.72164 0.0
C3209 C 0.21723 0.62032 0.72002 0.0
C3210 C 0.22056 0.59667 0.72631 0.0
C3211 C 0.23425 0.59918 0.72954 0.0
H3212 H 0.20176 0.60466 0.71915 0.0
H3213 H 0.21631 0.58659 0.72727 0.0
S3214 S 0.25194 0.63244 0.7284 0.0
N3215 N 0.23652 0.63554 0.72287 0.0
N3216 N 0.25216 0.61612 0.73169 0.0
C3217 C 0.23931 0.61246 0.72822 0.0
C3218 C 0.23083 0.62299 0.72344 0.0
C3219 C 0.21239 0.41306 0.31042 0.0
C3220 C 0.21798 0.40025 0.31246 0.0
C3221 C 0.22034 0.42397 0.30575 0.0
C3222 C 0.23415 0.42247 0.30294 0.0
H3223 H 0.20182 0.4147 0.31257 0.0
H3224 H 0.21566 0.43369 0.30444 0.0
S3225 S 0.25329 0.39069 0.30532 0.0
N3226 N 0.23795 0.3865 0.31049 0.0
N3227 N 0.25283 0.40692 0.30168 0.0
C3228 C 0.23978 0.40964 0.30471 0.0
C3229 C 0.23172 0.39857 0.30948 0.0
C3230 C 0.11278 0.72548 0.31391 0.0
C3231 C 0.12095 0.71792 0.3053 0.0
C3232 C 0.10298 0.73422 0.30871 0.0
C3233 C 0.10095 0.73572 0.29471 0.0
H3234 H 0.11399 0.72466 0.32475 0.0
H3235 H 0.09699 0.7399 0.31571 0.0
S3236 S 0.12022 0.71884 0.26786 0.0
N3237 N 0.12666 0.7129 0.28207 0.0
N3238 N 0.10825 0.72927 0.27233 0.0
C3239 C 0.10901 0.72819 0.286 0.0
C3240 C 0.119 0.71931 0.29128 0.0
C3241 C 0.80045 0.62506 0.30812 0.0
C3242 C 0.81328 0.62468 0.31432 0.0
C3243 C 0.79568 0.61441 0.30009 0.0
C3244 C 0.8035 0.60291 0.29796 0.0
H3245 H 0.7941 0.63374 0.30937 0.0
H3246 H 0.78582 0.61529 0.29537 0.0
S3247 S 0.83747 0.59662 0.31258 0.0
N3248 N 0.83356 0.61168 0.31817 0.0
N3249 N 0.82454 0.59159 0.30315 0.0
C3250 C 0.81632 0.60236 0.30417 0.0
C3251 C 0.82122 0.61325 0.31232 0.0
C3252 C 0.9259 0.30801 0.30906 0.0
C3253 C 0.91353 0.3011 0.31109 0.0
C3254 C 0.93604 0.30257 0.30096 0.0
C3255 C 0.93417 0.29004 0.29458 0.0
H3256 H 0.92783 0.31759 0.31393 0.0
H3257 H 0.94548 0.30814 0.29981 0.0
S3258 S 0.90299 0.26871 0.29548 0.0
N3259 N 0.89962 0.28156 0.30531 0.0
N3260 N 0.91854 0.27142 0.29003 0.0
C3261 C 0.9217 0.28322 0.29628 0.0
C3262 C 0.91143 0.28872 0.30454 0.0
C3263 C 0.81649 0.41729 0.72511 0.0
C3264 C 0.81805 0.40468 0.73147 0.0
C3265 C 0.80984 0.42784 0.73158 0.0
C3266 C 0.80475 0.42622 0.74473 0.0
H3267 H 0.82037 0.41898 0.71503 0.0
H3268 H 0.80886 0.4374 0.72635 0.0
S3269 S 0.80624 0.39518 0.76574 0.0
N3270 N 0.81398 0.39121 0.75165 0.0
N3271 N 0.80148 0.41093 0.76374 0.0
C3272 C 0.80623 0.41364 0.75116 0.0
C3273 C 0.81287 0.40291 0.74455 0.0
C3274 C 0.12361 0.29527 0.73032 0.0
C3275 C 0.12293 0.29644 0.71616 0.0
C3276 C 0.11303 0.28919 0.73767 0.0
C3277 C 0.10139 0.28405 0.73112 0.0
H3278 H 0.13261 0.29861 0.73571 0.0
H3279 H 0.1142 0.28803 0.74849 0.0
S3280 S 0.0938 0.28632 0.69449 0.0
N3281 N 0.10904 0.29321 0.69607 0.0
N3282 N 0.08924 0.28171 0.70987 0.0
C3283 C 0.10031 0.28573 0.71707 0.0
C3284 C 0.11105 0.29194 0.70959 0.0
C3285 C 0.91889 0.72213 0.72196 0.0
C3286 C 0.90666 0.72879 0.71949 0.0
C3287 C 0.9296 0.72852 0.72897 0.0
C3288 C 0.92841 0.74178 0.73373 0.0
H3289 H 0.92032 0.71206 0.71816 0.0
H3290 H 0.93897 0.72318 0.73038 0.0
S3291 S 0.89781 0.76281 0.73146 0.0
N3292 N 0.89356 0.74884 0.72343 0.0
N3293 N 0.91355 0.76079 0.73661 0.0
C3294 C 0.91603 0.7483 0.73178 0.0
C3295 C 0.90519 0.74182 0.72465 0.0
C3296 C 0.72715 0.21637 0.61464 0.0
C3297 C 0.7342 0.2125 0.6264 0.0
C3298 C 0.73382 0.22296 0.60393 0.0
C3299 C 0.74782 0.2257 0.6045 0.0
H3300 H 0.71636 0.21445 0.61381 0.0
H3301 H 0.72801 0.22585 0.5951 0.0
S3302 S 0.77091 0.21748 0.63295 0.0
N3303 N 0.75597 0.21174 0.63788 0.0
N3304 N 0.76846 0.22415 0.61784 0.0
C3305 C 0.75498 0.2218 0.61616 0.0
C3306 C 0.74818 0.21521 0.62709 0.0
C3307 C 0.31317 0.21321 0.61589 0.0
C3308 C 0.30432 0.20823 0.62588 0.0
C3309 C 0.30842 0.2211 0.60509 0.0
C3310 C 0.29463 0.22418 0.6038 0.0
H3311 H 0.32389 0.21127 0.6166 0.0
H3312 H 0.31562 0.2249 0.59775 0.0
S3313 S 0.26724 0.21312 0.62699 0.0
N3314 N 0.28105 0.20649 0.6335 0.0
N3315 N 0.27217 0.22148 0.61338 0.0
C3316 C 0.28564 0.21901 0.61357 0.0
C3317 C 0.29048 0.21103 0.62457 0.0
C3318 C 0.30231 0.81768 0.61291 0.0
C3319 C 0.30419 0.81206 0.62586 0.0
C3320 C 0.29736 0.80984 0.60214 0.0
C3321 C 0.29432 0.79604 0.60388 0.0
H3322 H 0.3045 0.82827 0.61114 0.0
H3323 H 0.296 0.81457 0.59235 0.0
S3324 S 0.2976 0.77647 0.63576 0.0
N3325 N 0.30277 0.79183 0.63975 0.0
N3326 N 0.2934 0.77714 0.61962 0.0
C3327 C 0.29623 0.7903 0.61677 0.0
C3328 C 0.30116 0.79829 0.62772 0.0
C3329 C 0.73035 0.80325 0.62299 0.0
C3330 C 0.72994 0.81742 0.62319 0.0
C3331 C 0.73687 0.79644 0.61257 0.0
C3332 C 0.74323 0.80355 0.60197 0.0
H3333 H 0.72605 0.7974 0.63122 0.0
H3334 H 0.7374 0.78556 0.6131 0.0
S3335 S 0.74338 0.84057 0.59675 0.0
N3336 N 0.73524 0.83822 0.61109 0.0
N3337 N 0.74758 0.82543 0.59162 0.0
C3338 C 0.74234 0.81766 0.60171 0.0
C3339 C 0.73568 0.82459 0.61228 0.0
C3340 C 0.72818 0.8148 0.42311 0.0
C3341 C 0.72638 0.80988 0.40991 0.0
C3342 C 0.73356 0.80667 0.43342 0.0
C3343 C 0.73736 0.79332 0.43091 0.0
H3344 H 0.72527 0.82497 0.4255 0.0
H3345 H 0.73463 0.81081 0.44346 0.0
S3346 S 0.73603 0.77614 0.39776 0.0
N3347 N 0.72967 0.79114 0.39472 0.0
N3348 N 0.73983 0.77591 0.41401 0.0
C3349 C 0.73586 0.78839 0.41769 0.0
C3350 C 0.73036 0.79664 0.40723 0.0
C3351 C 0.72039 0.22172 0.42144 0.0
C3352 C 0.72107 0.22619 0.40793 0.0
C3353 C 0.72735 0.22863 0.43178 0.0
C3354 C 0.73498 0.24038 0.42897 0.0
H3355 H 0.71438 0.21286 0.42402 0.0
H3356 H 0.72645 0.22499 0.44207 0.0
S3357 S 0.74014 0.25615 0.39534 0.0
N3358 N 0.73018 0.24298 0.39235 0.0
N3359 N 0.74312 0.25597 0.41175 0.0
C3360 C 0.73587 0.24483 0.41551 0.0
C3361 C 0.72896 0.23773 0.405 0.0
C3362 C 0.30182 0.21427 0.40885 0.0
C3363 C 0.31597 0.21585 0.4097 0.0
C3364 C 0.29342 0.21869 0.41923 0.0
C3365 C 0.29885 0.22486 0.43086 0.0
H3366 H 0.29716 0.20996 0.39992 0.0
H3367 H 0.28257 0.21763 0.41796 0.0
S3368 S 0.33528 0.22992 0.43875 0.0
N3369 N 0.33507 0.22298 0.42365 0.0
N3370 N 0.31928 0.23135 0.44309 0.0
C3371 C 0.31299 0.22609 0.43204 0.0
C3372 C 0.32154 0.22157 0.42149 0.0
C3373 C 0.31639 0.80533 0.42019 0.0
C3374 C 0.31164 0.80742 0.40691 0.0
C3375 C 0.30763 0.80095 0.43049 0.0
C3376 C 0.29379 0.79851 0.42791 0.0
H3377 H 0.32694 0.80717 0.42265 0.0
H3378 H 0.31169 0.79957 0.44057 0.0
S3379 S 0.27659 0.80125 0.39461 0.0
N3380 N 0.29238 0.80594 0.39161 0.0
N3381 N 0.27596 0.79771 0.4109 0.0
C3382 C 0.28898 0.80038 0.41463 0.0
C3383 C 0.29788 0.80484 0.40417 0.0
C3384 C 0.62529 0.22746 0.72646 0.0
C3385 C 0.62397 0.22331 0.71295 0.0
C3386 C 0.61474 0.23402 0.733 0.0
C3387 C 0.60247 0.23669 0.7263 0.0
H3388 H 0.63473 0.22608 0.73186 0.0
H3389 H 0.61642 0.23748 0.74323 0.0
S3390 S 0.59324 0.2263 0.69152 0.0
N3391 N 0.60894 0.2212 0.69354 0.0
N3392 N 0.58916 0.23356 0.70583 0.0
C3393 C 0.6008 0.23208 0.713 0.0
C3394 C 0.61153 0.22539 0.70634 0.0
C3395 C 0.31687 0.10534 0.7313 0.0
C3396 C 0.31216 0.1185 0.7292 0.0
C3397 C 0.30844 0.09518 0.73677 0.0
C3398 C 0.295 0.09783 0.74035 0.0
H3399 H 0.32711 0.10284 0.72857 0.0
H3400 H 0.31243 0.08516 0.73808 0.0
S3401 S 0.27827 0.13097 0.73816 0.0
N3402 N 0.2935 0.13382 0.73195 0.0
N3403 N 0.27772 0.11483 0.74227 0.0
C3404 C 0.29028 0.11102 0.73854 0.0
C3405 C 0.29883 0.12132 0.73296 0.0
C3406 C 0.40616 0.79243 0.72346 0.0
C3407 C 0.40712 0.80536 0.71762 0.0
C3408 C 0.41681 0.78714 0.73113 0.0
C3409 C 0.42891 0.79453 0.73324 0.0
H3410 H 0.39701 0.78639 0.72223 0.0
H3411 H 0.41546 0.77723 0.73561 0.0
S3412 S 0.43687 0.82855 0.71938 0.0
N3413 N 0.42133 0.82525 0.71402 0.0
N3414 N 0.44141 0.81527 0.72836 0.0
C3415 C 0.43006 0.80745 0.72736 0.0
C3416 C 0.41916 0.81286 0.71957 0.0
C3417 C 0.73276 0.90301 0.72823 0.0
C3418 C 0.71885 0.90483 0.72599 0.0
C3419 C 0.74101 0.91341 0.73337 0.0
C3420 C 0.73571 0.92609 0.73647 0.0
H3421 H 0.73729 0.89338 0.72617 0.0
H3422 H 0.75162 0.91143 0.73511 0.0
S3423 S 0.7001 0.93634 0.73159 0.0
N3424 N 0.70022 0.92047 0.72672 0.0
N3425 N 0.71575 0.94004 0.73637 0.0
C3426 C 0.72183 0.92809 0.73417 0.0
C3427 C 0.71341 0.91747 0.72894 0.0
C3428 C 0.61594 0.80649 0.31163 0.0
C3429 C 0.62622 0.79833 0.31695 0.0
C3430 C 0.60558 0.80105 0.30345 0.0
C3431 C 0.60512 0.78724 0.30029 0.0
H3432 H 0.61584 0.81714 0.31389 0.0
H3433 H 0.59785 0.80768 0.29962 0.0
S3434 S 0.63027 0.76182 0.31072 0.0
N3435 N 0.63568 0.7759 0.31785 0.0
N3436 N 0.61628 0.76571 0.3025 0.0
C3437 C 0.61542 0.77902 0.30543 0.0
C3438 C 0.62594 0.78455 0.31374 0.0
C3439 C 0.73507 0.12138 0.30906 0.0
C3440 C 0.72175 0.12149 0.31395 0.0
C3441 C 0.73958 0.11085 0.30098 0.0
C3442 C 0.73098 0.09997 0.29747 0.0
H3443 H 0.74202 0.12962 0.31132 0.0
H3444 H 0.74984 0.11139 0.29723 0.0
S3445 S 0.69547 0.09494 0.30852 0.0
N3446 N 0.70018 0.10948 0.31524 0.0
N3447 N 0.70868 0.08964 0.30009 0.0
C3448 C 0.71768 0.09985 0.30244 0.0
C3449 C 0.71307 0.11061 0.31066 0.0
C3450 C 0.41001 0.23212 0.31057 0.0
C3451 C 0.4118 0.21808 0.31076 0.0
C3452 C 0.42017 0.24092 0.30581 0.0
C3453 C 0.43252 0.23605 0.30103 0.0
H3454 H 0.40054 0.23632 0.31378 0.0
H3455 H 0.41819 0.25162 0.30552 0.0
S3456 S 0.44285 0.20033 0.30073 0.0
N3457 N 0.42731 0.19981 0.30672 0.0
N3458 N 0.44635 0.21638 0.29768 0.0
C3459 C 0.4346 0.22209 0.30151 0.0
C3460 C 0.42427 0.21311 0.30639 0.0
C3461 C 0.30085 0.90865 0.30895 0.0
C3462 C 0.31466 0.90564 0.31023 0.0
C3463 C 0.29648 0.91929 0.30069 0.0
C3464 C 0.30573 0.92729 0.29331 0.0
H3465 H 0.29333 0.90268 0.31431 0.0
H3466 H 0.28572 0.92098 0.29977 0.0
S3467 S 0.34304 0.92393 0.29352 0.0
N3468 N 0.3376 0.91173 0.30361 0.0
N3469 N 0.3294 0.93185 0.28829 0.0
C3470 C 0.31959 0.92459 0.29474 0.0
C3471 C 0.32405 0.91377 0.30317 0.0
C3472 C 0.7321 0.12126 0.72496 0.0
C3473 C 0.71789 0.12012 0.72505 0.0
C3474 C 0.74021 0.11093 0.73008 0.0
C3475 C 0.73446 0.09902 0.7355 0.0
H3476 H 0.73699 0.13036 0.72119 0.0
H3477 H 0.75108 0.11243 0.73007 0.0
S3478 S 0.69785 0.09046 0.73695 0.0
N3479 N 0.69845 0.10572 0.73021 0.0
N3480 N 0.71371 0.08634 0.73989 0.0
C3481 C 0.72029 0.09761 0.73539 0.0
C3482 C 0.71201 0.10813 0.73015 0.0
C3483 C 0.70583 0.91605 0.30163 0.0
C3484 C 0.71314 0.90526 0.30717 0.0
C3485 C 0.71238 0.92668 0.29479 0.0
C3486 C 0.72651 0.92699 0.29326 0.0
H3487 H 0.69491 0.91615 0.30238 0.0
H3488 H 0.70631 0.9346 0.29043 0.0
S3489 S 0.75034 0.90123 0.30579 0.0
N3490 N 0.73533 0.8956 0.31067 0.0
N3491 N 0.74763 0.91564 0.29789 0.0
C3492 C 0.73399 0.91649 0.29908 0.0
C3493 C 0.72732 0.90562 0.30601 0.0
C3494 C 0.62068 0.2203 0.29661 0.0
C3495 C 0.6234 0.21863 0.31048 0.0
C3496 C 0.61033 0.22872 0.29203 0.0
C3497 C 0.60235 0.23588 0.30113 0.0
H3498 H 0.62667 0.21514 0.28922 0.0
H3499 H 0.60886 0.22996 0.28125 0.0
S3500 S 0.60497 0.23461 0.33848 0.0
N3501 N 0.61703 0.22462 0.33329 0.0
N3502 N 0.59745 0.24026 0.32468 0.0
C3503 C 0.60473 0.23405 0.31503 0.0
C3504 C 0.61526 0.22545 0.3197 0.0
C3505 C 0.2996 0.11887 0.30722 0.0
C3506 C 0.31307 0.11926 0.31187 0.0
C3507 C 0.29486 0.10858 0.29872 0.0
C3508 C 0.30338 0.0982 0.29455 0.0
H3509 H 0.2927 0.12674 0.30999 0.0
H3510 H 0.28449 0.10891 0.29517 0.0
S3511 S 0.33924 0.09399 0.30478 0.0
N3512 N 0.3347 0.10802 0.31224 0.0
N3513 N 0.32578 0.08858 0.29633 0.0
C3514 C 0.31682 0.09834 0.29931 0.0
C3515 C 0.32167 0.10888 0.30794 0.0
C3516 C 0.41163 0.79334 0.31292 0.0
C3517 C 0.41247 0.80739 0.31103 0.0
C3518 C 0.42186 0.7849 0.30833 0.0
C3519 C 0.43331 0.79019 0.30166 0.0
H3520 H 0.4028 0.78877 0.31761 0.0
H3521 H 0.42058 0.77412 0.30964 0.0
S3522 S 0.44118 0.82638 0.29564 0.0
N3523 N 0.42629 0.82629 0.30309 0.0
N3524 N 0.44542 0.81042 0.29438 0.0
C3525 C 0.43451 0.80425 0.30013 0.0
C3526 C 0.42412 0.81284 0.30483 0.0
C3527 C 0.32401 0.91721 0.73544 0.0
C3528 C 0.31679 0.9064 0.72953 0.0
C3529 C 0.31734 0.92746 0.74227 0.0
C3530 C 0.30317 0.92736 0.74341 0.0
H3531 H 0.33495 0.91765 0.73497 0.0
H3532 H 0.32334 0.93543 0.74689 0.0
S3533 S 0.27954 0.90128 0.72989 0.0
N3534 N 0.29465 0.89622 0.72533 0.0
N3535 N 0.28212 0.91554 0.73807 0.0
C3536 C 0.29579 0.91681 0.73726 0.0
C3537 C 0.30259 0.90632 0.73034 0.0
C3538 C 0.62555 0.79694 0.72553 0.0
C3539 C 0.62377 0.80197 0.71234 0.0
C3540 C 0.61493 0.7904 0.7324 0.0
C3541 C 0.6021 0.78866 0.72636 0.0
H3542 H 0.63536 0.79768 0.73043 0.0
H3543 H 0.61692 0.7863 0.74236 0.0
S3544 S 0.59174 0.80142 0.69263 0.0
N3545 N 0.60789 0.80575 0.69393 0.0
N3546 N 0.58792 0.7935 0.70685 0.0
C3547 C 0.60005 0.79408 0.71337 0.0
C3548 C 0.61087 0.80072 0.70636 0.0
C3549 C 0.40775 0.23656 0.71764 0.0
C3550 C 0.40834 0.22263 0.7153 0.0
C3551 C 0.41823 0.24344 0.72439 0.0
C3552 C 0.42978 0.23669 0.72906 0.0
H3553 H 0.39906 0.24221 0.71429 0.0
H3554 H 0.41721 0.25414 0.72606 0.0
S3555 S 0.43649 0.20029 0.72506 0.0
N3556 N 0.4215 0.20233 0.71796 0.0
N3557 N 0.44129 0.21528 0.73061 0.0
C3558 C 0.43049 0.22273 0.72684 0.0
C3559 C 0.41976 0.2157 0.71998 0.0
C3560 C 0.72643 0.72901 0.12662 0.0
C3561 C 0.72426 0.71512 0.12466 0.0
C3562 C 0.73076 0.73744 0.11604 0.0
C3563 C 0.73308 0.73235 0.10304 0.0
H3564 H 0.72501 0.73336 0.13649 0.0
H3565 H 0.73255 0.74802 0.11813 0.0
S3566 S 0.72782 0.69691 0.09234 0.0
N3567 N 0.72406 0.69676 0.10856 0.0
N3568 N 0.73217 0.71263 0.08865 0.0
C3569 C 0.73074 0.71852 0.10088 0.0
C3570 C 0.72634 0.70991 0.11168 0.0
C3571 C 0.318 0.71428 0.11743 0.0
C3572 C 0.30857 0.70884 0.12662 0.0
C3573 C 0.31386 0.72231 0.10649 0.0
C3574 C 0.30011 0.72509 0.10424 0.0
H3575 H 0.32871 0.71264 0.11892 0.0
H3576 H 0.3215 0.72651 0.09982 0.0
S3577 S 0.27134 0.71267 0.12499 0.0
N3578 N 0.28481 0.70625 0.13238 0.0
N3579 N 0.27705 0.72152 0.112 0.0
C3580 C 0.29055 0.71941 0.11316 0.0
C3581 C 0.29477 0.71127 0.12431 0.0
C3582 C 0.31745 0.31268 0.11671 0.0
C3583 C 0.3082 0.3179 0.12597 0.0
C3584 C 0.31308 0.30453 0.10595 0.0
C3585 C 0.29929 0.30129 0.10401 0.0
H3586 H 0.32816 0.31489 0.1178 0.0
H3587 H 0.32058 0.30068 0.09913 0.0
S3588 S 0.27108 0.31177 0.12586 0.0
N3589 N 0.28466 0.31886 0.13273 0.0
N3590 N 0.27647 0.30358 0.11255 0.0
C3591 C 0.28994 0.30649 0.11317 0.0
C3592 C 0.29438 0.31477 0.12412 0.0
C3593 C 0.72765 0.31688 0.1157 0.0
C3594 C 0.72527 0.31177 0.12878 0.0
C3595 C 0.73181 0.30844 0.10524 0.0
C3596 C 0.73374 0.29459 0.10748 0.0
H3597 H 0.72615 0.32745 0.1135 0.0
H3598 H 0.73339 0.31276 0.0953 0.0
S3599 S 0.73022 0.27654 0.14023 0.0
N3600 N 0.72602 0.29218 0.14358 0.0
N3601 N 0.73386 0.27637 0.124 0.0
C3602 C 0.73165 0.28943 0.12058 0.0
C3603 C 0.7274 0.298 0.1312 0.0
C3604 C 0.74121 0.31003 0.90898 0.0
C3605 C 0.72772 0.31414 0.91001 0.0
C3606 C 0.74787 0.30395 0.9199 0.0
C3607 C 0.7413 0.30165 0.93228 0.0
H3608 H 0.74674 0.3117 0.89971 0.0
H3609 H 0.75826 0.30095 0.91859 0.0
S3610 S 0.70587 0.31025 0.9401 0.0
N3611 N 0.70791 0.31524 0.9243 0.0
N3612 N 0.72048 0.30388 0.94489 0.0
C3613 C 0.72776 0.30557 0.93341 0.0
C3614 C 0.72098 0.31184 0.92229 0.0
C3615 C 0.71237 0.72134 0.92068 0.0
C3616 C 0.71733 0.72002 0.90748 0.0
C3617 C 0.72057 0.7266 0.93109 0.0
C3618 C 0.73402 0.73075 0.92868 0.0
H3619 H 0.70211 0.71819 0.923 0.0
H3620 H 0.71638 0.72733 0.94112 0.0
S3621 S 0.75138 0.73063 0.89557 0.0
N3622 N 0.73625 0.72406 0.8924 0.0
N3623 N 0.7516 0.734 0.91186 0.0
C3624 C 0.73901 0.72968 0.91546 0.0
C3625 C 0.73069 0.72431 0.9049 0.0
C3626 C 0.30375 0.71487 0.90719 0.0
C3627 C 0.31797 0.71465 0.90747 0.0
C3628 C 0.29641 0.71969 0.91815 0.0
C3629 C 0.30298 0.72456 0.92983 0.0
H3630 H 0.29824 0.71133 0.89838 0.0
H3631 H 0.28549 0.71989 0.91733 0.0
S3632 S 0.34005 0.72594 0.93579 0.0
N3633 N 0.33836 0.71965 0.92047 0.0
N3634 N 0.32454 0.7285 0.94117 0.0
C3635 C 0.31719 0.72423 0.93033 0.0
C3636 C 0.32468 0.71929 0.91916 0.0
C3637 C 0.29687 0.31099 0.90677 0.0
C3638 C 0.31029 0.31592 0.90653 0.0
C3639 C 0.29204 0.30316 0.91759 0.0
C3640 C 0.30042 0.29996 0.92866 0.0
H3641 H 0.2901 0.31297 0.89837 0.0
H3642 H 0.28173 0.29932 0.91713 0.0
S3643 S 0.336 0.31143 0.93355 0.0
N3644 N 0.33165 0.31772 0.9187 0.0
N3645 N 0.32257 0.30304 0.93909 0.0
C3646 C 0.31378 0.30506 0.9287 0.0
C3647 C 0.31871 0.31303 0.91764 0.0
C3648 C 0.62637 0.72122 0.23126 0.0
C3649 C 0.62478 0.71776 0.21758 0.0
C3650 C 0.61584 0.72714 0.23843 0.0
C3651 C 0.60333 0.72983 0.2322 0.0
H3652 H 0.63598 0.71981 0.23632 0.0
H3653 H 0.61769 0.73011 0.24879 0.0
S3654 S 0.59339 0.721 0.19717 0.0
N3655 N 0.60927 0.71623 0.19849 0.0
N3656 N 0.58953 0.72741 0.21195 0.0
C3657 C 0.60141 0.72587 0.21872 0.0
C3658 C 0.61211 0.71982 0.21143 0.0
C3659 C 0.31382 0.60606 0.23601 0.0
C3660 C 0.30874 0.61733 0.22905 0.0
C3661 C 0.30514 0.59599 0.24117 0.0
C3662 C 0.29103 0.59676 0.23952 0.0
H3663 H 0.32461 0.60504 0.23753 0.0
H3664 H 0.30949 0.58755 0.24655 0.0
S3665 S 0.27253 0.6245 0.22274 0.0
N3666 N 0.28863 0.62886 0.22121 0.0
N3667 N 0.27234 0.60989 0.23081 0.0
C3668 C 0.28581 0.60792 0.23252 0.0
C3669 C 0.29465 0.6182 0.22731 0.0
C3670 C 0.42024 0.30874 0.21897 0.0
C3671 C 0.40711 0.30999 0.22418 0.0
C3672 C 0.43089 0.3039 0.22703 0.0
C3673 C 0.42884 0.30035 0.24064 0.0
H3674 H 0.42224 0.31132 0.20852 0.0
H3675 H 0.44082 0.30303 0.2226 0.0
S3676 S 0.39641 0.30193 0.25915 0.0
N3677 N 0.39273 0.30747 0.24384 0.0
N3678 N 0.41263 0.29829 0.25891 0.0
C3679 C 0.41578 0.30164 0.24597 0.0
C3680 C 0.40495 0.30647 0.23777 0.0
C3681 C 0.71586 0.41905 0.23709 0.0
C3682 C 0.7223 0.4086 0.23023 0.0
C3683 C 0.72333 0.4294 0.24338 0.0
C3684 C 0.73754 0.42975 0.243 0.0
H3685 H 0.70494 0.41913 0.23777 0.0
H3686 H 0.71794 0.43708 0.24876 0.0
S3687 S 0.75935 0.40476 0.22655 0.0
N3688 N 0.74378 0.39925 0.22352 0.0
N3689 N 0.7578 0.41877 0.23524 0.0
C3690 C 0.74412 0.41957 0.23591 0.0
C3691 C 0.73651 0.40899 0.22955 0.0
C3692 C 0.61576 0.31227 0.80624 0.0
C3693 C 0.62455 0.30335 0.81286 0.0
C3694 C 0.60553 0.30752 0.79753 0.0
C3695 C 0.60367 0.29366 0.79511 0.0
H3696 H 0.61681 0.32303 0.8078 0.0
H3697 H 0.59904 0.31477 0.79259 0.0
S3698 S 0.62447 0.26616 0.80931 0.0
N3699 N 0.63101 0.28001 0.816 0.0
N3700 N 0.61178 0.2711 0.79967 0.0
C3701 C 0.61235 0.28462 0.80169 0.0
C3702 C 0.62278 0.28946 0.81054 0.0
C3703 C 0.71806 0.60987 0.81143 0.0
C3704 C 0.72542 0.62194 0.81357 0.0
C3705 C 0.72338 0.59946 0.80364 0.0
C3706 C 0.73623 0.60074 0.79769 0.0
H3707 H 0.70822 0.60839 0.81599 0.0
H3708 H 0.71746 0.59027 0.8024 0.0
S3709 S 0.75883 0.63096 0.79899 0.0
N3710 N 0.74575 0.63495 0.80832 0.0
N3711 N 0.75567 0.61551 0.79363 0.0
C3712 C 0.74351 0.61291 0.79949 0.0
C3713 C 0.73812 0.62347 0.80743 0.0
C3714 C 0.40782 0.72724 0.80284 0.0
C3715 C 0.41049 0.71371 0.80601 0.0
C3716 C 0.41796 0.73589 0.79779 0.0
C3717 C 0.4312 0.73137 0.79572 0.0
H3718 H 0.39772 0.73112 0.804 0.0
H3719 H 0.41531 0.74614 0.7952 0.0
S3720 S 0.44372 0.69716 0.80357 0.0
N3721 N 0.42752 0.69639 0.80746 0.0
N3722 N 0.44661 0.71267 0.79802 0.0
C3723 C 0.43408 0.71793 0.79911 0.0
C3724 C 0.42373 0.70911 0.80424 0.0
C3725 C 0.30999 0.41522 0.80892 0.0
C3726 C 0.31488 0.40502 0.80055 0.0
C3727 C 0.3017 0.42542 0.80376 0.0
C3728 C 0.29797 0.4258 0.79003 0.0
H3729 H 0.31269 0.41538 0.81954 0.0
H3730 H 0.29822 0.4331 0.81057 0.0
S3731 S 0.30709 0.40077 0.76413 0.0
N3732 N 0.31475 0.39553 0.77801 0.0
N3733 N 0.29917 0.41462 0.76833 0.0
C3734 C 0.30266 0.41557 0.78159 0.0
C3735 C 0.3111 0.40521 0.78684 0.0
C3736 C 0.73767 0.62278 0.22833 0.0
C3737 C 0.72415 0.61974 0.22485 0.0
C3738 C 0.74632 0.6128 0.23324 0.0
C3739 C 0.74183 0.59934 0.23483 0.0
H3740 H 0.74153 0.63302 0.22751 0.0
H3741 H 0.75655 0.61572 0.23606 0.0
S3742 S 0.70768 0.58591 0.22611 0.0
N3743 N 0.70688 0.60218 0.22266 0.0
N3744 N 0.72317 0.58339 0.23182 0.0
C3745 C 0.72841 0.59611 0.23117 0.0
C3746 C 0.71957 0.6063 0.2262 0.0
C3747 C 0.72437 0.40511 0.79509 0.0
C3748 C 0.71876 0.40568 0.80807 0.0
C3749 C 0.7326 0.41561 0.79009 0.0
C3750 C 0.7355 0.42717 0.79782 0.0
H3751 H 0.72257 0.39637 0.78882 0.0
H3752 H 0.73692 0.41454 0.78014 0.0
S3753 S 0.72243 0.43402 0.83207 0.0
N3754 N 0.71617 0.41896 0.82836 0.0
N3755 N 0.7315 0.43881 0.8189 0.0
C3756 C 0.72979 0.42795 0.81076 0.0
C3757 C 0.72145 0.41719 0.81589 0.0
C3758 C 0.6104 0.70407 0.79916 0.0
C3759 C 0.62188 0.71093 0.80429 0.0
C3760 C 0.60005 0.71099 0.79246 0.0
C3761 C 0.60074 0.72505 0.79065 0.0
H3762 H 0.60949 0.69322 0.80016 0.0
H3763 H 0.59153 0.70525 0.78845 0.0
S3764 S 0.62869 0.74774 0.80198 0.0
N3765 N 0.63332 0.73261 0.80704 0.0
N3766 N 0.61384 0.7456 0.79451 0.0
C3767 C 0.61199 0.73208 0.79601 0.0
C3768 C 0.62256 0.72503 0.80282 0.0
C3769 C 0.30323 0.60627 0.81197 0.0
C3770 C 0.30959 0.61786 0.80651 0.0
C3771 C 0.29779 0.59617 0.80362 0.0
C3772 C 0.29854 0.59722 0.78948 0.0
H3773 H 0.3024 0.60503 0.8228 0.0
H3774 H 0.29289 0.58748 0.80826 0.0
S3775 S 0.31352 0.6258 0.77008 0.0
N3776 N 0.31593 0.62996 0.78603 0.0
N3777 N 0.30579 0.61093 0.77036 0.0
C3778 C 0.30495 0.60869 0.78388 0.0
C3779 C 0.31046 0.619 0.79238 0.0
C3780 C 0.41961 0.3132 0.80708 0.0
C3781 C 0.40905 0.30487 0.81198 0.0
C3782 C 0.43003 0.30795 0.79923 0.0
C3783 C 0.43029 0.29418 0.79597 0.0
H3784 H 0.41987 0.32384 0.80943 0.0
H3785 H 0.43799 0.31472 0.79573 0.0
S3786 S 0.40435 0.26837 0.80528 0.0
N3787 N 0.3991 0.28233 0.81235 0.0
N3788 N 0.41859 0.27249 0.79759 0.0
C3789 C 0.41969 0.28579 0.80067 0.0
C3790 C 0.40911 0.29112 0.80866 0.0
C3791 C 0.30185 0.40711 0.23553 0.0
C3792 C 0.31505 0.40979 0.2309 0.0
C3793 C 0.29445 0.41699 0.24216 0.0
C3794 C 0.29996 0.42996 0.24442 0.0
H3795 H 0.29736 0.39714 0.23442 0.0
H3796 H 0.28452 0.4143 0.24595 0.0
S3797 S 0.33344 0.44261 0.23283 0.0
N3798 N 0.33286 0.42672 0.22802 0.0
N3799 N 0.31896 0.44528 0.24048 0.0
C3800 C 0.31294 0.43293 0.23939 0.0
C3801 C 0.32047 0.42286 0.23264 0.0
C3802 C 0.62679 0.31088 0.23626 0.0
C3803 C 0.6258 0.31027 0.2221 0.0
C3804 C 0.61626 0.30609 0.24451 0.0
C3805 C 0.60432 0.3005 0.23893 0.0
H3806 H 0.63593 0.31476 0.24103 0.0
H3807 H 0.61764 0.30645 0.25536 0.0
S3808 S 0.59608 0.29786 0.20247 0.0
N3809 N 0.61148 0.30455 0.20286 0.0
N3810 N 0.59174 0.29549 0.21838 0.0
C3811 C 0.60304 0.30016 0.2248 0.0
C3812 C 0.61375 0.30506 0.21639 0.0
C3813 C 0.42196 0.71618 0.22114 0.0
C3814 C 0.40858 0.71498 0.22582 0.0
C3815 C 0.43238 0.72135 0.22942 0.0
C3816 C 0.4298 0.72554 0.24268 0.0
H3817 H 0.42441 0.71301 0.21102 0.0
H3818 H 0.44254 0.722 0.22544 0.0
S3819 S 0.39627 0.72567 0.25929 0.0
N3820 N 0.3932 0.71914 0.24428 0.0
N3821 N 0.41269 0.72891 0.25979 0.0
C3822 C 0.41642 0.72457 0.2474 0.0
C3823 C 0.40585 0.71928 0.23899 0.0
loop_
_geom_bond_atom_site_label_1
_geom_bond_atom_site_label_2
_geom_bond_distance
_geom_bond_site_symmetry_2
_ccdc_geom_bond_type
C0 C1 1.264 . S
C0 C5 1.479 . S
C0 C10 1.465 . S
C1 C0 1.264 . S
C1 C3 1.339 . S
C1 H28 0.931 . S
C2 C3 1.395 . S
C2 C4 1.320 . S
C3 C1 1.339 . S
C3 C2 1.395 . S
C3 H29 0.929 . S
C4 C2 1.320 . S
C4 C5 1.405 . S
C4 H30 0.930 . S
C5 C0 1.479 . S
C5 C4 1.405 . S
C5 H31 0.931 . S
U6 O7 2.454 . S
U6 O8 2.458 . S
U6 C9 2.984 . S
U6 C10 2.847 . S
U6 C23 2.882 . S
U6 O24 2.441 . S
U6 O25 2.420 . S
U6 O26 2.455 . S
U6 O27 2.449 . S
O7 U6 2.454 . S
O7 C9 1.353 . S
O8 U6 2.458 . S
O8 C9 1.286 . S
C9 U6 2.984 . S
C9 O7 1.353 . S
C9 O8 1.286 . S
C9 C11 1.363 . S
C10 C0 1.465 . S
C10 U6 2.847 . S
C10 O24 1.249 . S
C10 O25 1.202 . S
C11 C9 1.363 . S
C11 C13 1.408 . S
C11 C16 1.342 . S
C12 C13 1.310 . S
C12 C15 1.461 . S
C12 H32 0.932 . S
C13 C11 1.408 . S
C13 C12 1.310 . S
C13 H33 0.930 . S
C14 C15 1.474 . S
C14 C16 1.285 . S
C14 H34 0.929 . S
C15 C12 1.461 . S
C15 C14 1.474 . S
C16 C11 1.342 . S
C16 C14 1.285 . S
C16 H35 0.930 . S
C17 C20 1.424 . S
C17 C22 1.245 . S
C17 C23 1.428 . S
C18 C21 1.260 . S
C18 C22 1.477 . S
C18 H36 0.932 . S
C19 C20 1.384 . S
C19 C21 1.479 . S
C19 H37 0.929 . S
C20 C17 1.424 . S
C20 C19 1.384 . S
C20 H38 0.928 . S
C21 C18 1.260 . S
C21 C19 1.479 . S
C22 C17 1.245 . S
C22 C18 1.477 . S
C22 H39 0.932 . S
C23 U6 2.882 . S
C23 C17 1.428 . S
C23 O26 1.301 . S
C23 O27 1.282 . S
O24 U6 2.441 . S
O24 C10 1.249 . S
O25 U6 2.420 . S
O25 C10 1.202 . S
O26 U6 2.455 . S
O26 C23 1.301 . S
O27 U6 2.449 . S
O27 C23 1.282 . S
H28 C1 0.931 . S
H29 C3 0.929 . S
H30 C4 0.930 . S
H31 C5 0.931 . S
H32 C12 0.932 . S
H33 C13 0.930 . S
H34 C14 0.929 . S
H35 C16 0.930 . S
H36 C18 0.932 . S
H37 C19 0.929 . S
H38 C20 0.928 . S
H39 C22 0.932 . S
C40 C41 1.264 . S
C40 C45 1.479 . S
C40 C50 1.465 . S
C41 C40 1.264 . S
C41 C43 1.339 . S
C41 H68 0.931 . S
C42 C43 1.395 . S
C42 C44 1.320 . S
C43 C41 1.339 . S
C43 C42 1.395 . S
C43 H69 0.929 . S
C44 C42 1.320 . S
C44 C45 1.405 . S
C44 H70 0.930 . S
C45 C40 1.479 . S
C45 C44 1.405 . S
C45 H71 0.931 . S
U46 O47 2.454 . S
U46 O48 2.458 . S
U46 C49 2.984 . S
U46 C50 2.847 . S
U46 C63 2.882 . S
U46 O64 2.441 . S
U46 O65 2.420 . S
U46 O66 2.455 . S
U46 O67 2.449 . S
O47 U46 2.454 . S
O47 C49 1.353 . S
O48 U46 2.458 . S
O48 C49 1.286 . S
C49 U46 2.984 . S
C49 O47 1.353 . S
C49 O48 1.286 . S
C49 C51 1.363 . S
C50 C40 1.465 . S
C50 U46 2.847 . S
C50 O64 1.249 . S
C50 O65 1.202 . S
C51 C49 1.363 . S
C51 C53 1.408 . S
C51 C56 1.342 . S
C52 C53 1.310 . S
C52 C55 1.461 . S
C52 H72 0.932 . S
C53 C51 1.408 . S
C53 C52 1.310 . S
C53 H73 0.930 . S
C54 C55 1.474 . S
C54 C56 1.285 . S
C54 H74 0.929 . S
C55 C52 1.461 . S
C55 C54 1.474 . S
C56 C51 1.342 . S
C56 C54 1.285 . S
C56 H75 0.930 . S
C57 C60 1.424 . S
C57 C62 1.245 . S
C57 C63 1.428 . S
C58 C61 1.260 . S
C58 C62 1.477 . S
C58 H76 0.932 . S
C59 C60 1.384 . S
C59 C61 1.479 . S
C59 H77 0.929 . S
C60 C57 1.424 . S
C60 C59 1.384 . S
C60 H78 0.928 . S
C61 C58 1.260 . S
C61 C59 1.479 . S
C62 C57 1.245 . S
C62 C58 1.477 . S
C62 H79 0.932 . S
C63 U46 2.882 . S
C63 C57 1.428 . S
C63 O66 1.301 . S
C63 O67 1.282 . S
O64 U46 2.441 . S
O64 C50 1.249 . S
O65 U46 2.420 . S
O65 C50 1.202 . S
O66 U46 2.455 . S
O66 C63 1.301 . S
O67 U46 2.449 . S
O67 C63 1.282 . S
H68 C41 0.931 . S
H69 C43 0.929 . S
H70 C44 0.930 . S
H71 C45 0.931 . S
H72 C52 0.932 . S
H73 C53 0.930 . S
H74 C54 0.929 . S
H75 C56 0.930 . S
H76 C58 0.932 . S
H77 C59 0.929 . S
H78 C60 0.928 . S
H79 C62 0.932 . S
C80 C81 1.264 . S
C80 C85 1.479 . S
C80 C90 1.465 . S
C81 C80 1.264 . S
C81 C83 1.339 . S
C81 H108 0.931 . S
C82 C83 1.395 . S
C82 C84 1.320 . S
C83 C81 1.339 . S
C83 C82 1.395 . S
C83 H109 0.929 . S
C84 C82 1.320 . S
C84 C85 1.405 . S
C84 H110 0.930 . S
C85 C80 1.479 . S
C85 C84 1.405 . S
C85 H111 0.931 . S
U86 O87 2.454 . S
U86 O88 2.458 . S
U86 C89 2.984 . S
U86 C90 2.847 . S
U86 C103 2.882 . S
U86 O104 2.441 . S
U86 O105 2.420 . S
U86 O106 2.455 . S
U86 O107 2.449 . S
O87 U86 2.454 . S
O87 C89 1.353 . S
O88 U86 2.458 . S
O88 C89 1.286 . S
C89 U86 2.984 . S
C89 O87 1.353 . S
C89 O88 1.286 . S
C89 C91 1.363 . S
C90 C80 1.465 . S
C90 U86 2.847 . S
C90 O104 1.249 . S
C90 O105 1.202 . S
C91 C89 1.363 . S
C91 C93 1.408 . S
C91 C96 1.342 . S
C92 C93 1.310 . S
C92 C95 1.461 . S
C92 H112 0.932 . S
C93 C91 1.408 . S
C93 C92 1.310 . S
C93 H113 0.930 . S
C94 C95 1.474 . S
C94 C96 1.285 . S
C94 H114 0.929 . S
C95 C92 1.461 . S
C95 C94 1.474 . S
C96 C91 1.342 . S
C96 C94 1.285 . S
C96 H115 0.930 . S
C97 C100 1.424 . S
C97 C102 1.245 . S
C97 C103 1.428 . S
C98 C101 1.260 . S
C98 C102 1.477 . S
C98 H116 0.932 . S
C99 C100 1.384 . S
C99 C101 1.479 . S
C99 H117 0.929 . S
C100 C97 1.424 . S
C100 C99 1.384 . S
C100 H118 0.928 . S
C101 C98 1.260 . S
C101 C99 1.479 . S
C102 C97 1.245 . S
C102 C98 1.477 . S
C102 H119 0.932 . S
C103 U86 2.882 . S
C103 C97 1.428 . S
C103 O106 1.301 . S
C103 O107 1.282 . S
O104 U86 2.441 . S
O104 C90 1.249 . S
O105 U86 2.420 . S
O105 C90 1.202 . S
O106 U86 2.455 . S
O106 C103 1.301 . S
O107 U86 2.449 . S
O107 C103 1.282 . S
H108 C81 0.931 . S
H109 C83 0.929 . S
H110 C84 0.930 . S
H111 C85 0.931 . S
H112 C92 0.932 . S
H113 C93 0.930 . S
H114 C94 0.929 . S
H115 C96 0.930 . S
H116 C98 0.932 . S
H117 C99 0.929 . S
H118 C100 0.928 . S
H119 C102 0.932 . S
C120 C121 1.264 . S
C120 C125 1.479 . S
C120 C130 1.465 . S
C121 C120 1.264 . S
C121 C123 1.339 . S
C121 H148 0.931 . S
C122 C123 1.395 . S
C122 C124 1.320 . S
C123 C121 1.339 . S
C123 C122 1.395 . S
C123 H149 0.929 . S
C124 C122 1.320 . S
C124 C125 1.405 . S
C124 H150 0.930 . S
C125 C120 1.479 . S
C125 C124 1.405 . S
C125 H151 0.931 . S
U126 O127 2.454 . S
U126 O128 2.458 . S
U126 C129 2.984 . S
U126 C130 2.847 . S
U126 C143 2.882 . S
U126 O144 2.441 . S
U126 O145 2.420 . S
U126 O146 2.455 . S
U126 O147 2.449 . S
O127 U126 2.454 . S
O127 C129 1.353 . S
O128 U126 2.458 . S
O128 C129 1.286 . S
C129 U126 2.984 . S
C129 O127 1.353 . S
C129 O128 1.286 . S
C129 C131 1.363 . S
C130 C120 1.465 . S
C130 U126 2.847 . S
C130 O144 1.249 . S
C130 O145 1.202 . S
C131 C129 1.363 . S
C131 C133 1.408 . S
C131 C136 1.342 . S
C132 C133 1.310 . S
C132 C135 1.461 . S
C132 H152 0.932 . S
C133 C131 1.408 . S
C133 C132 1.310 . S
C133 H153 0.930 . S
C134 C135 1.474 . S
C134 C136 1.285 . S
C134 H154 0.929 . S
C135 C132 1.461 . S
C135 C134 1.474 . S
C136 C131 1.342 . S
C136 C134 1.285 . S
C136 H155 0.930 . S
C137 C140 1.424 . S
C137 C142 1.245 . S
C137 C143 1.428 . S
C138 C141 1.260 . S
C138 C142 1.477 . S
C138 H156 0.932 . S
C139 C140 1.384 . S
C139 C141 1.479 . S
C139 H157 0.929 . S
C140 C137 1.424 . S
C140 C139 1.384 . S
C140 H158 0.928 . S
C141 C138 1.260 . S
C141 C139 1.479 . S
C142 C137 1.245 . S
C142 C138 1.477 . S
C142 H159 0.932 . S
C143 U126 2.882 . S
C143 C137 1.428 . S
C143 O146 1.301 . S
C143 O147 1.282 . S
O144 U126 2.441 . S
O144 C130 1.249 . S
O145 U126 2.420 . S
O145 C130 1.202 . S
O146 U126 2.455 . S
O146 C143 1.301 . S
O147 U126 2.449 . S
O147 C143 1.282 . S
H148 C121 0.931 . S
H149 C123 0.929 . S
H150 C124 0.930 . S
H151 C125 0.931 . S
H152 C132 0.932 . S
H153 C133 0.930 . S
H154 C134 0.929 . S
H155 C136 0.930 . S
H156 C138 0.932 . S
H157 C139 0.929 . S
H158 C140 0.928 . S
H159 C142 0.932 . S
C160 C161 1.264 . S
C160 C165 1.479 . S
C160 C170 1.465 . S
C161 C160 1.264 . S
C161 C163 1.339 . S
C161 H188 0.931 . S
C162 C163 1.395 . S
C162 C164 1.320 . S
C163 C161 1.339 . S
C163 C162 1.395 . S
C163 H189 0.929 . S
C164 C162 1.320 . S
C164 C165 1.405 . S
C164 H190 0.930 . S
C165 C160 1.479 . S
C165 C164 1.405 . S
C165 H191 0.931 . S
U166 O167 2.454 . S
U166 O168 2.458 . S
U166 C169 2.984 . S
U166 C170 2.847 . S
U166 C183 2.882 . S
U166 O184 2.441 . S
U166 O185 2.420 . S
U166 O186 2.455 . S
U166 O187 2.449 . S
O167 U166 2.454 . S
O167 C169 1.353 . S
O168 U166 2.458 . S
O168 C169 1.286 . S
C169 U166 2.984 . S
C169 O167 1.353 . S
C169 O168 1.286 . S
C169 C171 1.363 . S
C170 C160 1.465 . S
C170 U166 2.847 . S
C170 O184 1.249 . S
C170 O185 1.202 . S
C171 C169 1.363 . S
C171 C173 1.408 . S
C171 C176 1.342 . S
C172 C173 1.310 . S
C172 C175 1.461 . S
C172 H192 0.932 . S
C173 C171 1.408 . S
C173 C172 1.310 . S
C173 H193 0.930 . S
C174 C175 1.474 . S
C174 C176 1.285 . S
C174 H194 0.929 . S
C175 C172 1.461 . S
C175 C174 1.474 . S
C176 C171 1.342 . S
C176 C174 1.285 . S
C176 H195 0.930 . S
C177 C180 1.424 . S
C177 C182 1.245 . S
C177 C183 1.428 . S
C178 C181 1.260 . S
C178 C182 1.477 . S
C178 H196 0.932 . S
C179 C180 1.384 . S
C179 C181 1.479 . S
C179 H197 0.929 . S
C180 C177 1.424 . S
C180 C179 1.384 . S
C180 H198 0.928 . S
C181 C178 1.260 . S
C181 C179 1.479 . S
C182 C177 1.245 . S
C182 C178 1.477 . S
C182 H199 0.932 . S
C183 U166 2.882 . S
C183 C177 1.428 . S
C183 O186 1.301 . S
C183 O187 1.282 . S
O184 U166 2.441 . S
O184 C170 1.249 . S
O185 U166 2.420 . S
O185 C170 1.202 . S
O186 U166 2.455 . S
O186 C183 1.301 . S
O187 U166 2.449 . S
O187 C183 1.282 . S
H188 C161 0.931 . S
H189 C163 0.929 . S
H190 C164 0.930 . S
H191 C165 0.931 . S
H192 C172 0.932 . S
H193 C173 0.930 . S
H194 C174 0.929 . S
H195 C176 0.930 . S
H196 C178 0.932 . S
H197 C179 0.929 . S
H198 C180 0.928 . S
H199 C182 0.932 . S
C200 C201 1.264 . S
C200 C205 1.479 . S
C200 C210 1.465 . S
C201 C200 1.264 . S
C201 C203 1.339 . S
C201 H228 0.931 . S
C202 C203 1.395 . S
C202 C204 1.320 . S
C203 C201 1.339 . S
C203 C202 1.395 . S
C203 H229 0.929 . S
C204 C202 1.320 . S
C204 C205 1.405 . S
C204 H230 0.930 . S
C205 C200 1.479 . S
C205 C204 1.405 . S
C205 H231 0.931 . S
U206 O207 2.454 . S
U206 O208 2.458 . S
U206 C209 2.984 . S
U206 C210 2.847 . S
U206 C223 2.882 . S
U206 O224 2.441 . S
U206 O225 2.420 . S
U206 O226 2.455 . S
U206 O227 2.449 . S
O207 U206 2.454 . S
O207 C209 1.353 . S
O208 U206 2.458 . S
O208 C209 1.286 . S
C209 U206 2.984 . S
C209 O207 1.353 . S
C209 O208 1.286 . S
C209 C211 1.363 . S
C210 C200 1.465 . S
C210 U206 2.847 . S
C210 O224 1.249 . S
C210 O225 1.202 . S
C211 C209 1.363 . S
C211 C213 1.408 . S
C211 C216 1.342 . S
C212 C213 1.310 . S
C212 C215 1.461 . S
C212 H232 0.932 . S
C213 C211 1.408 . S
C213 C212 1.310 . S
C213 H233 0.930 . S
C214 C215 1.474 . S
C214 C216 1.285 . S
C214 H234 0.929 . S
C215 C212 1.461 . S
C215 C214 1.474 . S
C216 C211 1.342 . S
C216 C214 1.285 . S
C216 H235 0.930 . S
C217 C220 1.424 . S
C217 C222 1.245 . S
C217 C223 1.428 . S
C218 C221 1.260 . S
C218 C222 1.477 . S
C218 H236 0.932 . S
C219 C220 1.384 . S
C219 C221 1.479 . S
C219 H237 0.929 . S
C220 C217 1.424 . S
C220 C219 1.384 . S
C220 H238 0.928 . S
C221 C218 1.260 . S
C221 C219 1.479 . S
C222 C217 1.245 . S
C222 C218 1.477 . S
C222 H239 0.932 . S
C223 U206 2.882 . S
C223 C217 1.428 . S
C223 O226 1.301 . S
C223 O227 1.282 . S
O224 U206 2.441 . S
O224 C210 1.249 . S
O225 U206 2.420 . S
O225 C210 1.202 . S
O226 U206 2.455 . S
O226 C223 1.301 . S
O227 U206 2.449 . S
O227 C223 1.282 . S
H228 C201 0.931 . S
H229 C203 0.929 . S
H230 C204 0.930 . S
H231 C205 0.931 . S
H232 C212 0.932 . S
H233 C213 0.930 . S
H234 C214 0.929 . S
H235 C216 0.930 . S
H236 C218 0.932 . S
H237 C219 0.929 . S
H238 C220 0.928 . S
H239 C222 0.932 . S
C240 C241 1.264 . S
C240 C245 1.479 . S
C240 C250 1.465 . S
C241 C240 1.264 . S
C241 C243 1.339 . S
C241 H268 0.931 . S
C242 C243 1.395 . S
C242 C244 1.320 . S
C243 C241 1.339 . S
C243 C242 1.395 . S
C243 H269 0.929 . S
C244 C242 1.320 . S
C244 C245 1.405 . S
C244 H270 0.930 . S
C245 C240 1.479 . S
C245 C244 1.405 . S
C245 H271 0.931 . S
U246 O247 2.454 . S
U246 O248 2.458 . S
U246 C249 2.984 . S
U246 C250 2.847 . S
U246 C263 2.882 . S
U246 O264 2.441 . S
U246 O265 2.420 . S
U246 O266 2.455 . S
U246 O267 2.449 . S
O247 U246 2.454 . S
O247 C249 1.353 . S
O248 U246 2.458 . S
O248 C249 1.286 . S
C249 U246 2.984 . S
C249 O247 1.353 . S
C249 O248 1.286 . S
C249 C251 1.363 . S
C250 C240 1.465 . S
C250 U246 2.847 . S
C250 O264 1.249 . S
C250 O265 1.202 . S
C251 C249 1.363 . S
C251 C253 1.408 . S
C251 C256 1.342 . S
C252 C253 1.310 . S
C252 C255 1.461 . S
C252 H272 0.932 . S
C253 C251 1.408 . S
C253 C252 1.310 . S
C253 H273 0.930 . S
C254 C255 1.474 . S
C254 C256 1.285 . S
C254 H274 0.929 . S
C255 C252 1.461 . S
C255 C254 1.474 . S
C256 C251 1.342 . S
C256 C254 1.285 . S
C256 H275 0.930 . S
C257 C260 1.424 . S
C257 C262 1.245 . S
C257 C263 1.428 . S
C258 C261 1.260 . S
C258 C262 1.477 . S
C258 H276 0.932 . S
C259 C260 1.384 . S
C259 C261 1.479 . S
C259 H277 0.929 . S
C260 C257 1.424 . S
C260 C259 1.384 . S
C260 H278 0.928 . S
C261 C258 1.260 . S
C261 C259 1.479 . S
C262 C257 1.245 . S
C262 C258 1.477 . S
C262 H279 0.932 . S
C263 U246 2.882 . S
C263 C257 1.428 . S
C263 O266 1.301 . S
C263 O267 1.282 . S
O264 U246 2.441 . S
O264 C250 1.249 . S
O265 U246 2.420 . S
O265 C250 1.202 . S
O266 U246 2.455 . S
O266 C263 1.301 . S
O267 U246 2.449 . S
O267 C263 1.282 . S
H268 C241 0.931 . S
H269 C243 0.929 . S
H270 C244 0.930 . S
H271 C245 0.931 . S
H272 C252 0.932 . S
H273 C253 0.930 . S
H274 C254 0.929 . S
H275 C256 0.930 . S
H276 C258 0.932 . S
H277 C259 0.929 . S
H278 C260 0.928 . S
H279 C262 0.932 . S
C280 C281 1.264 . S
C280 C285 1.479 . S
C280 C290 1.465 . S
C281 C280 1.264 . S
C281 C283 1.339 . S
C281 H308 0.931 . S
C282 C283 1.395 . S
C282 C284 1.320 . S
C283 C281 1.339 . S
C283 C282 1.395 . S
C283 H309 0.929 . S
C284 C282 1.320 . S
C284 C285 1.405 . S
C284 H310 0.930 . S
C285 C280 1.479 . S
C285 C284 1.405 . S
C285 H311 0.931 . S
U286 O287 2.454 . S
U286 O288 2.458 . S
U286 C289 2.984 . S
U286 C290 2.847 . S
U286 C303 2.882 . S
U286 O304 2.441 . S
U286 O305 2.420 . S
U286 O306 2.455 . S
U286 O307 2.449 . S
O287 U286 2.454 . S
O287 C289 1.353 . S
O288 U286 2.458 . S
O288 C289 1.286 . S
C289 U286 2.984 . S
C289 O287 1.353 . S
C289 O288 1.286 . S
C289 C291 1.363 . S
C290 C280 1.465 . S
C290 U286 2.847 . S
C290 O304 1.249 . S
C290 O305 1.202 . S
C291 C289 1.363 . S
C291 C293 1.408 . S
C291 C296 1.342 . S
C292 C293 1.310 . S
C292 C295 1.461 . S
C292 H312 0.932 . S
C293 C291 1.408 . S
C293 C292 1.310 . S
C293 H313 0.930 . S
C294 C295 1.474 . S
C294 C296 1.285 . S
C294 H314 0.929 . S
C295 C292 1.461 . S
C295 C294 1.474 . S
C296 C291 1.342 . S
C296 C294 1.285 . S
C296 H315 0.930 . S
C297 C300 1.424 . S
C297 C302 1.245 . S
C297 C303 1.428 . S
C298 C301 1.260 . S
C298 C302 1.477 . S
C298 H316 0.932 . S
C299 C300 1.384 . S
C299 C301 1.479 . S
C299 H317 0.929 . S
C300 C297 1.424 . S
C300 C299 1.384 . S
C300 H318 0.928 . S
C301 C298 1.260 . S
C301 C299 1.479 . S
C302 C297 1.245 . S
C302 C298 1.477 . S
C302 H319 0.932 . S
C303 U286 2.882 . S
C303 C297 1.428 . S
C303 O306 1.301 . S
C303 O307 1.282 . S
O304 U286 2.441 . S
O304 C290 1.249 . S
O305 U286 2.420 . S
O305 C290 1.202 . S
O306 U286 2.455 . S
O306 C303 1.301 . S
O307 U286 2.449 . S
O307 C303 1.282 . S
H308 C281 0.931 . S
H309 C283 0.929 . S
H310 C284 0.930 . S
H311 C285 0.931 . S
H312 C292 0.932 . S
H313 C293 0.930 . S
H314 C294 0.929 . S
H315 C296 0.930 . S
H316 C298 0.932 . S
H317 C299 0.929 . S
H318 C300 0.928 . S
H319 C302 0.932 . S
C320 C321 1.264 . S
C320 C325 1.479 . S
C320 C330 1.465 . S
C321 C320 1.264 . S
C321 C323 1.339 . S
C321 H348 0.931 . S
C322 C323 1.395 . S
C322 C324 1.320 . S
C323 C321 1.339 . S
C323 C322 1.395 . S
C323 H349 0.929 . S
C324 C322 1.320 . S
C324 C325 1.405 . S
C324 H350 0.930 . S
C325 C320 1.479 . S
C325 C324 1.405 . S
C325 H351 0.931 . S
U326 O327 2.454 . S
U326 O328 2.458 . S
U326 C329 2.984 . S
U326 C330 2.847 . S
U326 C343 2.882 . S
U326 O344 2.441 . S
U326 O345 2.420 . S
U326 O346 2.455 . S
U326 O347 2.449 . S
O327 U326 2.454 . S
O327 C329 1.353 . S
O328 U326 2.458 . S
O328 C329 1.286 . S
C329 U326 2.984 . S
C329 O327 1.353 . S
C329 O328 1.286 . S
C329 C331 1.363 . S
C330 C320 1.465 . S
C330 U326 2.847 . S
C330 O344 1.249 . S
C330 O345 1.202 . S
C331 C329 1.363 . S
C331 C333 1.408 . S
C331 C336 1.342 . S
C332 C333 1.310 . S
C332 C335 1.461 . S
C332 H352 0.932 . S
C333 C331 1.408 . S
C333 C332 1.310 . S
C333 H353 0.930 . S
C334 C335 1.474 . S
C334 C336 1.285 . S
C334 H354 0.929 . S
C335 C332 1.461 . S
C335 C334 1.474 . S
C336 C331 1.342 . S
C336 C334 1.285 . S
C336 H355 0.930 . S
C337 C340 1.424 . S
C337 C342 1.245 . S
C337 C343 1.428 . S
C338 C341 1.260 . S
C338 C342 1.477 . S
C338 H356 0.932 . S
C339 C340 1.384 . S
C339 C341 1.479 . S
C339 H357 0.929 . S
C340 C337 1.424 . S
C340 C339 1.384 . S
C340 H358 0.928 . S
C341 C338 1.260 . S
C341 C339 1.479 . S
C342 C337 1.245 . S
C342 C338 1.477 . S
C342 H359 0.932 . S
C343 U326 2.882 . S
C343 C337 1.428 . S
C343 O346 1.301 . S
C343 O347 1.282 . S
O344 U326 2.441 . S
O344 C330 1.249 . S
O345 U326 2.420 . S
O345 C330 1.202 . S
O346 U326 2.455 . S
O346 C343 1.301 . S
O347 U326 2.449 . S
O347 C343 1.282 . S
H348 C321 0.931 . S
H349 C323 0.929 . S
H350 C324 0.930 . S
H351 C325 0.931 . S
H352 C332 0.932 . S
H353 C333 0.930 . S
H354 C334 0.929 . S
H355 C336 0.930 . S
H356 C338 0.932 . S
H357 C339 0.929 . S
H358 C340 0.928 . S
H359 C342 0.932 . S
C360 C361 1.264 . S
C360 C365 1.479 . S
C360 C370 1.465 . S
C361 C360 1.264 . S
C361 C363 1.339 . S
C361 H388 0.931 . S
C362 C363 1.395 . S
C362 C364 1.320 . S
C363 C361 1.339 . S
C363 C362 1.395 . S
C363 H389 0.929 . S
C364 C362 1.320 . S
C364 C365 1.405 . S
C364 H390 0.930 . S
C365 C360 1.479 . S
C365 C364 1.405 . S
C365 H391 0.931 . S
U366 O367 2.454 . S
U366 O368 2.458 . S
U366 C369 2.984 . S
U366 C370 2.847 . S
U366 C383 2.882 . S
U366 O384 2.441 . S
U366 O385 2.420 . S
U366 O386 2.455 . S
U366 O387 2.449 . S
O367 U366 2.454 . S
O367 C369 1.353 . S
O368 U366 2.458 . S
O368 C369 1.286 . S
C369 U366 2.984 . S
C369 O367 1.353 . S
C369 O368 1.286 . S
C369 C371 1.363 . S
C370 C360 1.465 . S
C370 U366 2.847 . S
C370 O384 1.249 . S
C370 O385 1.202 . S
C371 C369 1.363 . S
C371 C373 1.408 . S
C371 C376 1.342 . S
C372 C373 1.310 . S
C372 C375 1.461 . S
C372 H392 0.932 . S
C373 C371 1.408 . S
C373 C372 1.310 . S
C373 H393 0.930 . S
C374 C375 1.474 . S
C374 C376 1.285 . S
C374 H394 0.929 . S
C375 C372 1.461 . S
C375 C374 1.474 . S
C376 C371 1.342 . S
C376 C374 1.285 . S
C376 H395 0.930 . S
C377 C380 1.424 . S
C377 C382 1.245 . S
C377 C383 1.428 . S
C378 C381 1.260 . S
C378 C382 1.477 . S
C378 H396 0.932 . S
C379 C380 1.384 . S
C379 C381 1.479 . S
C379 H397 0.929 . S
C380 C377 1.424 . S
C380 C379 1.384 . S
C380 H398 0.928 . S
C381 C378 1.260 . S
C381 C379 1.479 . S
C382 C377 1.245 . S
C382 C378 1.477 . S
C382 H399 0.932 . S
C383 U366 2.882 . S
C383 C377 1.428 . S
C383 O386 1.301 . S
C383 O387 1.282 . S
O384 U366 2.441 . S
O384 C370 1.249 . S
O385 U366 2.420 . S
O385 C370 1.202 . S
O386 U366 2.455 . S
O386 C383 1.301 . S
O387 U366 2.449 . S
O387 C383 1.282 . S
H388 C361 0.931 . S
H389 C363 0.929 . S
H390 C364 0.930 . S
H391 C365 0.931 . S
H392 C372 0.932 . S
H393 C373 0.930 . S
H394 C374 0.929 . S
H395 C376 0.930 . S
H396 C378 0.932 . S
H397 C379 0.929 . S
H398 C380 0.928 . S
H399 C382 0.932 . S
C400 C401 1.264 . S
C400 C405 1.479 . S
C400 C410 1.465 . S
C401 C400 1.264 . S
C401 C403 1.339 . S
C401 H428 0.931 . S
C402 C403 1.395 . S
C402 C404 1.320 . S
C403 C401 1.339 . S
C403 C402 1.395 . S
C403 H429 0.929 . S
C404 C402 1.320 . S
C404 C405 1.405 . S
C404 H430 0.930 . S
C405 C400 1.479 . S
C405 C404 1.405 . S
C405 H431 0.931 . S
U406 O407 2.454 . S
U406 O408 2.458 . S
U406 C409 2.984 . S
U406 C410 2.847 . S
U406 C423 2.882 . S
U406 O424 2.441 . S
U406 O425 2.420 . S
U406 O426 2.455 . S
U406 O427 2.449 . S
O407 U406 2.454 . S
O407 C409 1.353 . S
O408 U406 2.458 . S
O408 C409 1.286 . S
C409 U406 2.984 . S
C409 O407 1.353 . S
C409 O408 1.286 . S
C409 C411 1.363 . S
C410 C400 1.465 . S
C410 U406 2.847 . S
C410 O424 1.249 . S
C410 O425 1.202 . S
C411 C409 1.363 . S
C411 C413 1.408 . S
C411 C416 1.342 . S
C412 C413 1.310 . S
C412 C415 1.461 . S
C412 H432 0.932 . S
C413 C411 1.408 . S
C413 C412 1.310 . S
C413 H433 0.930 . S
C414 C415 1.474 . S
C414 C416 1.285 . S
C414 H434 0.929 . S
C415 C412 1.461 . S
C415 C414 1.474 . S
C416 C411 1.342 . S
C416 C414 1.285 . S
C416 H435 0.930 . S
C417 C420 1.424 . S
C417 C422 1.245 . S
C417 C423 1.428 . S
C418 C421 1.260 . S
C418 C422 1.477 . S
C418 H436 0.932 . S
C419 C420 1.384 . S
C419 C421 1.479 . S
C419 H437 0.929 . S
C420 C417 1.424 . S
C420 C419 1.384 . S
C420 H438 0.928 . S
C421 C418 1.260 . S
C421 C419 1.479 . S
C422 C417 1.245 . S
C422 C418 1.477 . S
C422 H439 0.932 . S
C423 U406 2.882 . S
C423 C417 1.428 . S
C423 O426 1.301 . S
C423 O427 1.282 . S
O424 U406 2.441 . S
O424 C410 1.249 . S
O425 U406 2.420 . S
O425 C410 1.202 . S
O426 U406 2.455 . S
O426 C423 1.301 . S
O427 U406 2.449 . S
O427 C423 1.282 . S
H428 C401 0.931 . S
H429 C403 0.929 . S
H430 C404 0.930 . S
H431 C405 0.931 . S
H432 C412 0.932 . S
H433 C413 0.930 . S
H434 C414 0.929 . S
H435 C416 0.930 . S
H436 C418 0.932 . S
H437 C419 0.929 . S
H438 C420 0.928 . S
H439 C422 0.932 . S
C440 C441 1.264 . S
C440 C445 1.479 . S
C440 C450 1.465 . S
C441 C440 1.264 . S
C441 C443 1.339 . S
C441 H468 0.931 . S
C442 C443 1.395 . S
C442 C444 1.320 . S
C443 C441 1.339 . S
C443 C442 1.395 . S
C443 H469 0.929 . S
C444 C442 1.320 . S
C444 C445 1.405 . S
C444 H470 0.930 . S
C445 C440 1.479 . S
C445 C444 1.405 . S
C445 H471 0.931 . S
U446 O447 2.454 . S
U446 O448 2.458 . S
U446 C449 2.984 . S
U446 C450 2.847 . S
U446 C463 2.882 . S
U446 O464 2.441 . S
U446 O465 2.420 . S
U446 O466 2.455 . S
U446 O467 2.449 . S
O447 U446 2.454 . S
O447 C449 1.353 . S
O448 U446 2.458 . S
O448 C449 1.286 . S
C449 U446 2.984 . S
C449 O447 1.353 . S
C449 O448 1.286 . S
C449 C451 1.363 . S
C450 C440 1.465 . S
C450 U446 2.847 . S
C450 O464 1.249 . S
C450 O465 1.202 . S
C451 C449 1.363 . S
C451 C453 1.408 . S
C451 C456 1.342 . S
C452 C453 1.310 . S
C452 C455 1.461 . S
C452 H472 0.932 . S
C453 C451 1.408 . S
C453 C452 1.310 . S
C453 H473 0.930 . S
C454 C455 1.474 . S
C454 C456 1.285 . S
C454 H474 0.929 . S
C455 C452 1.461 . S
C455 C454 1.474 . S
C456 C451 1.342 . S
C456 C454 1.285 . S
C456 H475 0.930 . S
C457 C460 1.424 . S
C457 C462 1.245 . S
C457 C463 1.428 . S
C458 C461 1.260 . S
C458 C462 1.477 . S
C458 H476 0.932 . S
C459 C460 1.384 . S
C459 C461 1.479 . S
C459 H477 0.929 . S
C460 C457 1.424 . S
C460 C459 1.384 . S
C460 H478 0.928 . S
C461 C458 1.260 . S
C461 C459 1.479 . S
C462 C457 1.245 . S
C462 C458 1.477 . S
C462 H479 0.932 . S
C463 U446 2.882 . S
C463 C457 1.428 . S
C463 O466 1.301 . S
C463 O467 1.282 . S
O464 U446 2.441 . S
O464 C450 1.249 . S
O465 U446 2.420 . S
O465 C450 1.202 . S
O466 U446 2.455 . S
O466 C463 1.301 . S
O467 U446 2.449 . S
O467 C463 1.282 . S
H468 C441 0.931 . S
H469 C443 0.929 . S
H470 C444 0.930 . S
H471 C445 0.931 . S
H472 C452 0.932 . S
H473 C453 0.930 . S
H474 C454 0.929 . S
H475 C456 0.930 . S
H476 C458 0.932 . S
H477 C459 0.929 . S
H478 C460 0.928 . S
H479 C462 0.932 . S
C480 C481 1.264 . S
C480 C485 1.479 . S
C480 C490 1.465 . S
C481 C480 1.264 . S
C481 C483 1.339 . S
C481 H508 0.931 . S
C482 C483 1.395 . S
C482 C484 1.320 . S
C483 C481 1.339 . S
C483 C482 1.395 . S
C483 H509 0.929 . S
C484 C482 1.320 . S
C484 C485 1.405 . S
C484 H510 0.930 . S
C485 C480 1.479 . S
C485 C484 1.405 . S
C485 H511 0.931 . S
U486 O487 2.454 . S
U486 O488 2.458 . S
U486 C489 2.984 . S
U486 C490 2.847 . S
U486 C503 2.882 . S
U486 O504 2.441 . S
U486 O505 2.420 . S
U486 O506 2.455 . S
U486 O507 2.449 . S
O487 U486 2.454 . S
O487 C489 1.353 . S
O488 U486 2.458 . S
O488 C489 1.286 . S
C489 U486 2.984 . S
C489 O487 1.353 . S
C489 O488 1.286 . S
C489 C491 1.363 . S
C490 C480 1.465 . S
C490 U486 2.847 . S
C490 O504 1.249 . S
C490 O505 1.202 . S
C491 C489 1.363 . S
C491 C493 1.408 . S
C491 C496 1.342 . S
C492 C493 1.310 . S
C492 C495 1.461 . S
C492 H512 0.932 . S
C493 C491 1.408 . S
C493 C492 1.310 . S
C493 H513 0.930 . S
C494 C495 1.474 . S
C494 C496 1.285 . S
C494 H514 0.929 . S
C495 C492 1.461 . S
C495 C494 1.474 . S
C496 C491 1.342 . S
C496 C494 1.285 . S
C496 H515 0.930 . S
C497 C500 1.424 . S
C497 C502 1.245 . S
C497 C503 1.428 . S
C498 C501 1.260 . S
C498 C502 1.477 . S
C498 H516 0.932 . S
C499 C500 1.384 . S
C499 C501 1.479 . S
C499 H517 0.929 . S
C500 C497 1.424 . S
C500 C499 1.384 . S
C500 H518 0.928 . S
C501 C498 1.260 . S
C501 C499 1.479 . S
C502 C497 1.245 . S
C502 C498 1.477 . S
C502 H519 0.932 . S
C503 U486 2.882 . S
C503 C497 1.428 . S
C503 O506 1.301 . S
C503 O507 1.282 . S
O504 U486 2.441 . S
O504 C490 1.249 . S
O505 U486 2.420 . S
O505 C490 1.202 . S
O506 U486 2.455 . S
O506 C503 1.301 . S
O507 U486 2.449 . S
O507 C503 1.282 . S
H508 C481 0.931 . S
H509 C483 0.929 . S
H510 C484 0.930 . S
H511 C485 0.931 . S
H512 C492 0.932 . S
H513 C493 0.930 . S
H514 C494 0.929 . S
H515 C496 0.930 . S
H516 C498 0.932 . S
H517 C499 0.929 . S
H518 C500 0.928 . S
H519 C502 0.932 . S
C520 C521 1.264 . S
C520 C525 1.479 . S
C520 C530 1.465 . S
C521 C520 1.264 . S
C521 C523 1.339 . S
C521 H548 0.931 . S
C522 C523 1.395 . S
C522 C524 1.320 . S
C523 C521 1.339 . S
C523 C522 1.395 . S
C523 H549 0.929 . S
C524 C522 1.320 . S
C524 C525 1.405 . S
C524 H550 0.930 . S
C525 C520 1.479 . S
C525 C524 1.405 . S
C525 H551 0.931 . S
U526 O527 2.454 . S
U526 O528 2.458 . S
U526 C529 2.984 . S
U526 C530 2.847 . S
U526 C543 2.882 . S
U526 O544 2.441 . S
U526 O545 2.420 . S
U526 O546 2.455 . S
U526 O547 2.449 . S
O527 U526 2.454 . S
O527 C529 1.353 . S
O528 U526 2.458 . S
O528 C529 1.286 . S
C529 U526 2.984 . S
C529 O527 1.353 . S
C529 O528 1.286 . S
C529 C531 1.363 . S
C530 C520 1.465 . S
C530 U526 2.847 . S
C530 O544 1.249 . S
C530 O545 1.202 . S
C531 C529 1.363 . S
C531 C533 1.408 . S
C531 C536 1.342 . S
C532 C533 1.310 . S
C532 C535 1.461 . S
C532 H552 0.932 . S
C533 C531 1.408 . S
C533 C532 1.310 . S
C533 H553 0.930 . S
C534 C535 1.474 . S
C534 C536 1.285 . S
C534 H554 0.929 . S
C535 C532 1.461 . S
C535 C534 1.474 . S
C536 C531 1.342 . S
C536 C534 1.285 . S
C536 H555 0.930 . S
C537 C540 1.424 . S
C537 C542 1.245 . S
C537 C543 1.428 . S
C538 C541 1.260 . S
C538 C542 1.477 . S
C538 H556 0.932 . S
C539 C540 1.384 . S
C539 C541 1.479 . S
C539 H557 0.929 . S
C540 C537 1.424 . S
C540 C539 1.384 . S
C540 H558 0.928 . S
C541 C538 1.260 . S
C541 C539 1.479 . S
C542 C537 1.245 . S
C542 C538 1.477 . S
C542 H559 0.932 . S
C543 U526 2.882 . S
C543 C537 1.428 . S
C543 O546 1.301 . S
C543 O547 1.282 . S
O544 U526 2.441 . S
O544 C530 1.249 . S
O545 U526 2.420 . S
O545 C530 1.202 . S
O546 U526 2.455 . S
O546 C543 1.301 . S
O547 U526 2.449 . S
O547 C543 1.282 . S
H548 C521 0.931 . S
H549 C523 0.929 . S
H550 C524 0.930 . S
H551 C525 0.931 . S
H552 C532 0.932 . S
H553 C533 0.930 . S
H554 C534 0.929 . S
H555 C536 0.930 . S
H556 C538 0.932 . S
H557 C539 0.929 . S
H558 C540 0.928 . S
H559 C542 0.932 . S
C560 C561 1.264 . S
C560 C565 1.479 . S
C560 C570 1.465 . S
C561 C560 1.264 . S
C561 C563 1.339 . S
C561 H588 0.931 . S
C562 C563 1.395 . S
C562 C564 1.320 . S
C563 C561 1.339 . S
C563 C562 1.395 . S
C563 H589 0.929 . S
C564 C562 1.320 . S
C564 C565 1.405 . S
C564 H590 0.930 . S
C565 C560 1.479 . S
C565 C564 1.405 . S
C565 H591 0.931 . S
U566 O567 2.454 . S
U566 O568 2.458 . S
U566 C569 2.984 . S
U566 C570 2.847 . S
U566 C583 2.882 . S
U566 O584 2.441 . S
U566 O585 2.420 . S
U566 O586 2.455 . S
U566 O587 2.449 . S
O567 U566 2.454 . S
O567 C569 1.353 . S
O568 U566 2.458 . S
O568 C569 1.286 . S
C569 U566 2.984 . S
C569 O567 1.353 . S
C569 O568 1.286 . S
C569 C571 1.363 . S
C570 C560 1.465 . S
C570 U566 2.847 . S
C570 O584 1.249 . S
C570 O585 1.202 . S
C571 C569 1.363 . S
C571 C573 1.408 . S
C571 C576 1.342 . S
C572 C573 1.310 . S
C572 C575 1.461 . S
C572 H592 0.932 . S
C573 C571 1.408 . S
C573 C572 1.310 . S
C573 H593 0.930 . S
C574 C575 1.474 . S
C574 C576 1.285 . S
C574 H594 0.929 . S
C575 C572 1.461 . S
C575 C574 1.474 . S
C576 C571 1.342 . S
C576 C574 1.285 . S
C576 H595 0.930 . S
C577 C580 1.424 . S
C577 C582 1.245 . S
C577 C583 1.428 . S
C578 C581 1.260 . S
C578 C582 1.477 . S
C578 H596 0.932 . S
C579 C580 1.384 . S
C579 C581 1.479 . S
C579 H597 0.929 . S
C580 C577 1.424 . S
C580 C579 1.384 . S
C580 H598 0.928 . S
C581 C578 1.260 . S
C581 C579 1.479 . S
C582 C577 1.245 . S
C582 C578 1.477 . S
C582 H599 0.932 . S
C583 U566 2.882 . S
C583 C577 1.428 . S
C583 O586 1.301 . S
C583 O587 1.282 . S
O584 U566 2.441 . S
O584 C570 1.249 . S
O585 U566 2.420 . S
O585 C570 1.202 . S
O586 U566 2.455 . S
O586 C583 1.301 . S
O587 U566 2.449 . S
O587 C583 1.282 . S
H588 C561 0.931 . S
H589 C563 0.929 . S
H590 C564 0.930 . S
H591 C565 0.931 . S
H592 C572 0.932 . S
H593 C573 0.930 . S
H594 C574 0.929 . S
H595 C576 0.930 . S
H596 C578 0.932 . S
H597 C579 0.929 . S
H598 C580 0.928 . S
H599 C582 0.932 . S
C600 C601 1.264 . S
C600 C605 1.479 . S
C600 C610 1.465 . S
C601 C600 1.264 . S
C601 C603 1.339 . S
C601 H628 0.931 . S
C602 C603 1.395 . S
C602 C604 1.320 . S
C603 C601 1.339 . S
C603 C602 1.395 . S
C603 H629 0.929 . S
C604 C602 1.320 . S
C604 C605 1.405 . S
C604 H630 0.930 . S
C605 C600 1.479 . S
C605 C604 1.405 . S
C605 H631 0.931 . S
U606 O607 2.454 . S
U606 O608 2.458 . S
U606 C609 2.984 . S
U606 C610 2.847 . S
U606 C623 2.882 . S
U606 O624 2.441 . S
U606 O625 2.420 . S
U606 O626 2.455 . S
U606 O627 2.449 . S
O607 U606 2.454 . S
O607 C609 1.353 . S
O608 U606 2.458 . S
O608 C609 1.286 . S
C609 U606 2.984 . S
C609 O607 1.353 . S
C609 O608 1.286 . S
C609 C611 1.363 . S
C610 C600 1.465 . S
C610 U606 2.847 . S
C610 O624 1.249 . S
C610 O625 1.202 . S
C611 C609 1.363 . S
C611 C613 1.408 . S
C611 C616 1.342 . S
C612 C613 1.310 . S
C612 C615 1.461 . S
C612 H632 0.932 . S
C613 C611 1.408 . S
C613 C612 1.310 . S
C613 H633 0.930 . S
C614 C615 1.474 . S
C614 C616 1.285 . S
C614 H634 0.929 . S
C615 C612 1.461 . S
C615 C614 1.474 . S
C616 C611 1.342 . S
C616 C614 1.285 . S
C616 H635 0.930 . S
C617 C620 1.424 . S
C617 C622 1.245 . S
C617 C623 1.428 . S
C618 C621 1.260 . S
C618 C622 1.477 . S
C618 H636 0.932 . S
C619 C620 1.384 . S
C619 C621 1.479 . S
C619 H637 0.929 . S
C620 C617 1.424 . S
C620 C619 1.384 . S
C620 H638 0.928 . S
C621 C618 1.260 . S
C621 C619 1.479 . S
C622 C617 1.245 . S
C622 C618 1.477 . S
C622 H639 0.932 . S
C623 U606 2.882 . S
C623 C617 1.428 . S
C623 O626 1.301 . S
C623 O627 1.282 . S
O624 U606 2.441 . S
O624 C610 1.249 . S
O625 U606 2.420 . S
O625 C610 1.202 . S
O626 U606 2.455 . S
O626 C623 1.301 . S
O627 U606 2.449 . S
O627 C623 1.282 . S
H628 C601 0.931 . S
H629 C603 0.929 . S
H630 C604 0.930 . S
H631 C605 0.931 . S
H632 C612 0.932 . S
H633 C613 0.930 . S
H634 C614 0.929 . S
H635 C616 0.930 . S
H636 C618 0.932 . S
H637 C619 0.929 . S
H638 C620 0.928 . S
H639 C622 0.932 . S
C640 C641 1.264 . S
C640 C645 1.479 . S
C640 C650 1.465 . S
C641 C640 1.264 . S
C641 C643 1.339 . S
C641 H668 0.931 . S
C642 C643 1.395 . S
C642 C644 1.320 . S
C643 C641 1.339 . S
C643 C642 1.395 . S
C643 H669 0.929 . S
C644 C642 1.320 . S
C644 C645 1.405 . S
C644 H670 0.930 . S
C645 C640 1.479 . S
C645 C644 1.405 . S
C645 H671 0.931 . S
U646 O647 2.454 . S
U646 O648 2.458 . S
U646 C649 2.984 . S
U646 C650 2.847 . S
U646 C663 2.882 . S
U646 O664 2.441 . S
U646 O665 2.420 . S
U646 O666 2.455 . S
U646 O667 2.449 . S
O647 U646 2.454 . S
O647 C649 1.353 . S
O648 U646 2.458 . S
O648 C649 1.286 . S
C649 U646 2.984 . S
C649 O647 1.353 . S
C649 O648 1.286 . S
C649 C651 1.363 . S
C650 C640 1.465 . S
C650 U646 2.847 . S
C650 O664 1.249 . S
C650 O665 1.202 . S
C651 C649 1.363 . S
C651 C653 1.408 . S
C651 C656 1.342 . S
C652 C653 1.310 . S
C652 C655 1.461 . S
C652 H672 0.932 . S
C653 C651 1.408 . S
C653 C652 1.310 . S
C653 H673 0.930 . S
C654 C655 1.474 . S
C654 C656 1.285 . S
C654 H674 0.929 . S
C655 C652 1.461 . S
C655 C654 1.474 . S
C656 C651 1.342 . S
C656 C654 1.285 . S
C656 H675 0.930 . S
C657 C660 1.424 . S
C657 C662 1.245 . S
C657 C663 1.428 . S
C658 C661 1.260 . S
C658 C662 1.477 . S
C658 H676 0.932 . S
C659 C660 1.384 . S
C659 C661 1.479 . S
C659 H677 0.929 . S
C660 C657 1.424 . S
C660 C659 1.384 . S
C660 H678 0.928 . S
C661 C658 1.260 . S
C661 C659 1.479 . S
C662 C657 1.245 . S
C662 C658 1.477 . S
C662 H679 0.932 . S
C663 U646 2.882 . S
C663 C657 1.428 . S
C663 O666 1.301 . S
C663 O667 1.282 . S
O664 U646 2.441 . S
O664 C650 1.249 . S
O665 U646 2.420 . S
O665 C650 1.202 . S
O666 U646 2.455 . S
O666 C663 1.301 . S
O667 U646 2.449 . S
O667 C663 1.282 . S
H668 C641 0.931 . S
H669 C643 0.929 . S
H670 C644 0.930 . S
H671 C645 0.931 . S
H672 C652 0.932 . S
H673 C653 0.930 . S
H674 C654 0.929 . S
H675 C656 0.930 . S
H676 C658 0.932 . S
H677 C659 0.929 . S
H678 C660 0.928 . S
H679 C662 0.932 . S
C680 C681 1.264 . S
C680 C685 1.479 . S
C680 C690 1.465 . S
C681 C680 1.264 . S
C681 C683 1.339 . S
C681 H708 0.931 . S
C682 C683 1.395 . S
C682 C684 1.320 . S
C683 C681 1.339 . S
C683 C682 1.395 . S
C683 H709 0.929 . S
C684 C682 1.320 . S
C684 C685 1.405 . S
C684 H710 0.930 . S
C685 C680 1.479 . S
C685 C684 1.405 . S
C685 H711 0.931 . S
U686 O687 2.454 . S
U686 O688 2.458 . S
U686 C689 2.984 . S
U686 C690 2.847 . S
U686 C703 2.882 . S
U686 O704 2.441 . S
U686 O705 2.420 . S
U686 O706 2.455 . S
U686 O707 2.449 . S
O687 U686 2.454 . S
O687 C689 1.353 . S
O688 U686 2.458 . S
O688 C689 1.286 . S
C689 U686 2.984 . S
C689 O687 1.353 . S
C689 O688 1.286 . S
C689 C691 1.363 . S
C690 C680 1.465 . S
C690 U686 2.847 . S
C690 O704 1.249 . S
C690 O705 1.202 . S
C691 C689 1.363 . S
C691 C693 1.408 . S
C691 C696 1.342 . S
C692 C693 1.310 . S
C692 C695 1.461 . S
C692 H712 0.932 . S
C693 C691 1.408 . S
C693 C692 1.310 . S
C693 H713 0.930 . S
C694 C695 1.474 . S
C694 C696 1.285 . S
C694 H714 0.929 . S
C695 C692 1.461 . S
C695 C694 1.474 . S
C696 C691 1.342 . S
C696 C694 1.285 . S
C696 H715 0.930 . S
C697 C700 1.424 . S
C697 C702 1.245 . S
C697 C703 1.428 . S
C698 C701 1.260 . S
C698 C702 1.477 . S
C698 H716 0.932 . S
C699 C700 1.384 . S
C699 C701 1.479 . S
C699 H717 0.929 . S
C700 C697 1.424 . S
C700 C699 1.384 . S
C700 H718 0.928 . S
C701 C698 1.260 . S
C701 C699 1.479 . S
C702 C697 1.245 . S
C702 C698 1.477 . S
C702 H719 0.932 . S
C703 U686 2.882 . S
C703 C697 1.428 . S
C703 O706 1.301 . S
C703 O707 1.282 . S
O704 U686 2.441 . S
O704 C690 1.249 . S
O705 U686 2.420 . S
O705 C690 1.202 . S
O706 U686 2.455 . S
O706 C703 1.301 . S
O707 U686 2.449 . S
O707 C703 1.282 . S
H708 C681 0.931 . S
H709 C683 0.929 . S
H710 C684 0.930 . S
H711 C685 0.931 . S
H712 C692 0.932 . S
H713 C693 0.930 . S
H714 C694 0.929 . S
H715 C696 0.930 . S
H716 C698 0.932 . S
H717 C699 0.929 . S
H718 C700 0.928 . S
H719 C702 0.932 . S
C720 C721 1.264 . S
C720 C725 1.479 . S
C720 C730 1.465 . S
C721 C720 1.264 . S
C721 C723 1.339 . S
C721 H748 0.931 . S
C722 C723 1.395 . S
C722 C724 1.320 . S
C723 C721 1.339 . S
C723 C722 1.395 . S
C723 H749 0.929 . S
C724 C722 1.320 . S
C724 C725 1.405 . S
C724 H750 0.930 . S
C725 C720 1.479 . S
C725 C724 1.405 . S
C725 H751 0.931 . S
U726 O727 2.454 . S
U726 O728 2.458 . S
U726 C729 2.984 . S
U726 C730 2.847 . S
U726 C743 2.882 . S
U726 O744 2.441 . S
U726 O745 2.420 . S
U726 O746 2.455 . S
U726 O747 2.449 . S
O727 U726 2.454 . S
O727 C729 1.353 . S
O728 U726 2.458 . S
O728 C729 1.286 . S
C729 U726 2.984 . S
C729 O727 1.353 . S
C729 O728 1.286 . S
C729 C731 1.363 . S
C730 C720 1.465 . S
C730 U726 2.847 . S
C730 O744 1.249 . S
C730 O745 1.202 . S
C731 C729 1.363 . S
C731 C733 1.408 . S
C731 C736 1.342 . S
C732 C733 1.310 . S
C732 C735 1.461 . S
C732 H752 0.932 . S
C733 C731 1.408 . S
C733 C732 1.310 . S
C733 H753 0.930 . S
C734 C735 1.474 . S
C734 C736 1.285 . S
C734 H754 0.929 . S
C735 C732 1.461 . S
C735 C734 1.474 . S
C736 C731 1.342 . S
C736 C734 1.285 . S
C736 H755 0.930 . S
C737 C740 1.424 . S
C737 C742 1.245 . S
C737 C743 1.428 . S
C738 C741 1.260 . S
C738 C742 1.477 . S
C738 H756 0.932 . S
C739 C740 1.384 . S
C739 C741 1.479 . S
C739 H757 0.929 . S
C740 C737 1.424 . S
C740 C739 1.384 . S
C740 H758 0.928 . S
C741 C738 1.260 . S
C741 C739 1.479 . S
C742 C737 1.245 . S
C742 C738 1.477 . S
C742 H759 0.932 . S
C743 U726 2.882 . S
C743 C737 1.428 . S
C743 O746 1.301 . S
C743 O747 1.282 . S
O744 U726 2.441 . S
O744 C730 1.249 . S
O745 U726 2.420 . S
O745 C730 1.202 . S
O746 U726 2.455 . S
O746 C743 1.301 . S
O747 U726 2.449 . S
O747 C743 1.282 . S
H748 C721 0.931 . S
H749 C723 0.929 . S
H750 C724 0.930 . S
H751 C725 0.931 . S
H752 C732 0.932 . S
H753 C733 0.930 . S
H754 C734 0.929 . S
H755 C736 0.930 . S
H756 C738 0.932 . S
H757 C739 0.929 . S
H758 C740 0.928 . S
H759 C742 0.932 . S
C760 C761 1.264 . S
C760 C765 1.479 . S
C760 C770 1.465 . S
C761 C760 1.264 . S
C761 C763 1.339 . S
C761 H788 0.931 . S
C762 C763 1.395 . S
C762 C764 1.320 . S
C763 C761 1.339 . S
C763 C762 1.395 . S
C763 H789 0.929 . S
C764 C762 1.320 . S
C764 C765 1.405 . S
C764 H790 0.930 . S
C765 C760 1.479 . S
C765 C764 1.405 . S
C765 H791 0.931 . S
U766 O767 2.454 . S
U766 O768 2.458 . S
U766 C769 2.984 . S
U766 C770 2.847 . S
U766 C783 2.882 . S
U766 O784 2.441 . S
U766 O785 2.420 . S
U766 O786 2.455 . S
U766 O787 2.449 . S
O767 U766 2.454 . S
O767 C769 1.353 . S
O768 U766 2.458 . S
O768 C769 1.286 . S
C769 U766 2.984 . S
C769 O767 1.353 . S
C769 O768 1.286 . S
C769 C771 1.363 . S
C770 C760 1.465 . S
C770 U766 2.847 . S
C770 O784 1.249 . S
C770 O785 1.202 . S
C771 C769 1.363 . S
C771 C773 1.408 . S
C771 C776 1.342 . S
C772 C773 1.310 . S
C772 C775 1.461 . S
C772 H792 0.932 . S
C773 C771 1.408 . S
C773 C772 1.310 . S
C773 H793 0.930 . S
C774 C775 1.474 . S
C774 C776 1.285 . S
C774 H794 0.929 . S
C775 C772 1.461 . S
C775 C774 1.474 . S
C776 C771 1.342 . S
C776 C774 1.285 . S
C776 H795 0.930 . S
C777 C780 1.424 . S
C777 C782 1.245 . S
C777 C783 1.428 . S
C778 C781 1.260 . S
C778 C782 1.477 . S
C778 H796 0.932 . S
C779 C780 1.384 . S
C779 C781 1.479 . S
C779 H797 0.929 . S
C780 C777 1.424 . S
C780 C779 1.384 . S
C780 H798 0.928 . S
C781 C778 1.260 . S
C781 C779 1.479 . S
C782 C777 1.245 . S
C782 C778 1.477 . S
C782 H799 0.932 . S
C783 U766 2.882 . S
C783 C777 1.428 . S
C783 O786 1.301 . S
C783 O787 1.282 . S
O784 U766 2.441 . S
O784 C770 1.249 . S
O785 U766 2.420 . S
O785 C770 1.202 . S
O786 U766 2.455 . S
O786 C783 1.301 . S
O787 U766 2.449 . S
O787 C783 1.282 . S
H788 C761 0.931 . S
H789 C763 0.929 . S
H790 C764 0.930 . S
H791 C765 0.931 . S
H792 C772 0.932 . S
H793 C773 0.930 . S
H794 C774 0.929 . S
H795 C776 0.930 . S
H796 C778 0.932 . S
H797 C779 0.929 . S
H798 C780 0.928 . S
H799 C782 0.932 . S
C800 C801 1.264 . S
C800 C805 1.479 . S
C800 C810 1.465 . S
C801 C800 1.264 . S
C801 C803 1.339 . S
C801 H828 0.931 . S
C802 C803 1.395 . S
C802 C804 1.320 . S
C803 C801 1.339 . S
C803 C802 1.395 . S
C803 H829 0.929 . S
C804 C802 1.320 . S
C804 C805 1.405 . S
C804 H830 0.930 . S
C805 C800 1.479 . S
C805 C804 1.405 . S
C805 H831 0.931 . S
U806 O807 2.454 . S
U806 O808 2.458 . S
U806 C809 2.984 . S
U806 C810 2.847 . S
U806 C823 2.882 . S
U806 O824 2.441 . S
U806 O825 2.420 . S
U806 O826 2.455 . S
U806 O827 2.449 . S
O807 U806 2.454 . S
O807 C809 1.353 . S
O808 U806 2.458 . S
O808 C809 1.286 . S
C809 U806 2.984 . S
C809 O807 1.353 . S
C809 O808 1.286 . S
C809 C811 1.363 . S
C810 C800 1.465 . S
C810 U806 2.847 . S
C810 O824 1.249 . S
C810 O825 1.202 . S
C811 C809 1.363 . S
C811 C813 1.408 . S
C811 C816 1.342 . S
C812 C813 1.310 . S
C812 C815 1.461 . S
C812 H832 0.932 . S
C813 C811 1.408 . S
C813 C812 1.310 . S
C813 H833 0.930 . S
C814 C815 1.474 . S
C814 C816 1.285 . S
C814 H834 0.929 . S
C815 C812 1.461 . S
C815 C814 1.474 . S
C816 C811 1.342 . S
C816 C814 1.285 . S
C816 H835 0.930 . S
C817 C820 1.424 . S
C817 C822 1.245 . S
C817 C823 1.428 . S
C818 C821 1.260 . S
C818 C822 1.477 . S
C818 H836 0.932 . S
C819 C820 1.384 . S
C819 C821 1.479 . S
C819 H837 0.929 . S
C820 C817 1.424 . S
C820 C819 1.384 . S
C820 H838 0.928 . S
C821 C818 1.260 . S
C821 C819 1.479 . S
C822 C817 1.245 . S
C822 C818 1.477 . S
C822 H839 0.932 . S
C823 U806 2.882 . S
C823 C817 1.428 . S
C823 O826 1.301 . S
C823 O827 1.282 . S
O824 U806 2.441 . S
O824 C810 1.249 . S
O825 U806 2.420 . S
O825 C810 1.202 . S
O826 U806 2.455 . S
O826 C823 1.301 . S
O827 U806 2.449 . S
O827 C823 1.282 . S
H828 C801 0.931 . S
H829 C803 0.929 . S
H830 C804 0.930 . S
H831 C805 0.931 . S
H832 C812 0.932 . S
H833 C813 0.930 . S
H834 C814 0.929 . S
H835 C816 0.930 . S
H836 C818 0.932 . S
H837 C819 0.929 . S
H838 C820 0.928 . S
H839 C822 0.932 . S
C840 C841 1.264 . S
C840 C845 1.479 . S
C840 C850 1.465 . S
C841 C840 1.264 . S
C841 C843 1.339 . S
C841 H868 0.931 . S
C842 C843 1.395 . S
C842 C844 1.320 . S
C843 C841 1.339 . S
C843 C842 1.395 . S
C843 H869 0.929 . S
C844 C842 1.320 . S
C844 C845 1.405 . S
C844 H870 0.930 . S
C845 C840 1.479 . S
C845 C844 1.405 . S
C845 H871 0.931 . S
U846 O847 2.454 . S
U846 O848 2.458 . S
U846 C849 2.984 . S
U846 C850 2.847 . S
U846 C863 2.882 . S
U846 O864 2.441 . S
U846 O865 2.420 . S
U846 O866 2.455 . S
U846 O867 2.449 . S
O847 U846 2.454 . S
O847 C849 1.353 . S
O848 U846 2.458 . S
O848 C849 1.286 . S
C849 U846 2.984 . S
C849 O847 1.353 . S
C849 O848 1.286 . S
C849 C851 1.363 . S
C850 C840 1.465 . S
C850 U846 2.847 . S
C850 O864 1.249 . S
C850 O865 1.202 . S
C851 C849 1.363 . S
C851 C853 1.408 . S
C851 C856 1.342 . S
C852 C853 1.310 . S
C852 C855 1.461 . S
C852 H872 0.932 . S
C853 C851 1.408 . S
C853 C852 1.310 . S
C853 H873 0.930 . S
C854 C855 1.474 . S
C854 C856 1.285 . S
C854 H874 0.929 . S
C855 C852 1.461 . S
C855 C854 1.474 . S
C856 C851 1.342 . S
C856 C854 1.285 . S
C856 H875 0.930 . S
C857 C860 1.424 . S
C857 C862 1.245 . S
C857 C863 1.428 . S
C858 C861 1.260 . S
C858 C862 1.477 . S
C858 H876 0.932 . S
C859 C860 1.384 . S
C859 C861 1.479 . S
C859 H877 0.929 . S
C860 C857 1.424 . S
C860 C859 1.384 . S
C860 H878 0.928 . S
C861 C858 1.260 . S
C861 C859 1.479 . S
C862 C857 1.245 . S
C862 C858 1.477 . S
C862 H879 0.932 . S
C863 U846 2.882 . S
C863 C857 1.428 . S
C863 O866 1.301 . S
C863 O867 1.282 . S
O864 U846 2.441 . S
O864 C850 1.249 . S
O865 U846 2.420 . S
O865 C850 1.202 . S
O866 U846 2.455 . S
O866 C863 1.301 . S
O867 U846 2.449 . S
O867 C863 1.282 . S
H868 C841 0.931 . S
H869 C843 0.929 . S
H870 C844 0.930 . S
H871 C845 0.931 . S
H872 C852 0.932 . S
H873 C853 0.930 . S
H874 C854 0.929 . S
H875 C856 0.930 . S
H876 C858 0.932 . S
H877 C859 0.929 . S
H878 C860 0.928 . S
H879 C862 0.932 . S
C880 C881 1.264 . S
C880 C885 1.479 . S
C880 C890 1.465 . S
C881 C880 1.264 . S
C881 C883 1.339 . S
C881 H908 0.931 . S
C882 C883 1.395 . S
C882 C884 1.320 . S
C883 C881 1.339 . S
C883 C882 1.395 . S
C883 H909 0.929 . S
C884 C882 1.320 . S
C884 C885 1.405 . S
C884 H910 0.930 . S
C885 C880 1.479 . S
C885 C884 1.405 . S
C885 H911 0.931 . S
U886 O887 2.454 . S
U886 O888 2.458 . S
U886 C889 2.984 . S
U886 C890 2.847 . S
U886 C903 2.882 . S
U886 O904 2.441 . S
U886 O905 2.420 . S
U886 O906 2.455 . S
U886 O907 2.449 . S
O887 U886 2.454 . S
O887 C889 1.353 . S
O888 U886 2.458 . S
O888 C889 1.286 . S
C889 U886 2.984 . S
C889 O887 1.353 . S
C889 O888 1.286 . S
C889 C891 1.363 . S
C890 C880 1.465 . S
C890 U886 2.847 . S
C890 O904 1.249 . S
C890 O905 1.202 . S
C891 C889 1.363 . S
C891 C893 1.408 . S
C891 C896 1.342 . S
C892 C893 1.310 . S
C892 C895 1.461 . S
C892 H912 0.932 . S
C893 C891 1.408 . S
C893 C892 1.310 . S
C893 H913 0.930 . S
C894 C895 1.474 . S
C894 C896 1.285 . S
C894 H914 0.929 . S
C895 C892 1.461 . S
C895 C894 1.474 . S
C896 C891 1.342 . S
C896 C894 1.285 . S
C896 H915 0.930 . S
C897 C900 1.424 . S
C897 C902 1.245 . S
C897 C903 1.428 . S
C898 C901 1.260 . S
C898 C902 1.477 . S
C898 H916 0.932 . S
C899 C900 1.384 . S
C899 C901 1.479 . S
C899 H917 0.929 . S
C900 C897 1.424 . S
C900 C899 1.384 . S
C900 H918 0.928 . S
C901 C898 1.260 . S
C901 C899 1.479 . S
C902 C897 1.245 . S
C902 C898 1.477 . S
C902 H919 0.932 . S
C903 U886 2.882 . S
C903 C897 1.428 . S
C903 O906 1.301 . S
C903 O907 1.282 . S
O904 U886 2.441 . S
O904 C890 1.249 . S
O905 U886 2.420 . S
O905 C890 1.202 . S
O906 U886 2.455 . S
O906 C903 1.301 . S
O907 U886 2.449 . S
O907 C903 1.282 . S
H908 C881 0.931 . S
H909 C883 0.929 . S
H910 C884 0.930 . S
H911 C885 0.931 . S
H912 C892 0.932 . S
H913 C893 0.930 . S
H914 C894 0.929 . S
H915 C896 0.930 . S
H916 C898 0.932 . S
H917 C899 0.929 . S
H918 C900 0.928 . S
H919 C902 0.932 . S
C920 C921 1.264 . S
C920 C925 1.479 . S
C920 C930 1.465 . S
C921 C920 1.264 . S
C921 C923 1.339 . S
C921 H948 0.931 . S
C922 C923 1.395 . S
C922 C924 1.320 . S
C923 C921 1.339 . S
C923 C922 1.395 . S
C923 H949 0.929 . S
C924 C922 1.320 . S
C924 C925 1.405 . S
C924 H950 0.930 . S
C925 C920 1.479 . S
C925 C924 1.405 . S
C925 H951 0.931 . S
U926 O927 2.454 . S
U926 O928 2.458 . S
U926 C929 2.984 . S
U926 C930 2.847 . S
U926 C943 2.882 . S
U926 O944 2.441 . S
U926 O945 2.420 . S
U926 O946 2.455 . S
U926 O947 2.449 . S
O927 U926 2.454 . S
O927 C929 1.353 . S
O928 U926 2.458 . S
O928 C929 1.286 . S
C929 U926 2.984 . S
C929 O927 1.353 . S
C929 O928 1.286 . S
C929 C931 1.363 . S
C930 C920 1.465 . S
C930 U926 2.847 . S
C930 O944 1.249 . S
C930 O945 1.202 . S
C931 C929 1.363 . S
C931 C933 1.408 . S
C931 C936 1.342 . S
C932 C933 1.310 . S
C932 C935 1.461 . S
C932 H952 0.932 . S
C933 C931 1.408 . S
C933 C932 1.310 . S
C933 H953 0.930 . S
C934 C935 1.474 . S
C934 C936 1.285 . S
C934 H954 0.929 . S
C935 C932 1.461 . S
C935 C934 1.474 . S
C936 C931 1.342 . S
C936 C934 1.285 . S
C936 H955 0.930 . S
C937 C940 1.424 . S
C937 C942 1.245 . S
C937 C943 1.428 . S
C938 C941 1.260 . S
C938 C942 1.477 . S
C938 H956 0.932 . S
C939 C940 1.384 . S
C939 C941 1.479 . S
C939 H957 0.929 . S
C940 C937 1.424 . S
C940 C939 1.384 . S
C940 H958 0.928 . S
C941 C938 1.260 . S
C941 C939 1.479 . S
C942 C937 1.245 . S
C942 C938 1.477 . S
C942 H959 0.932 . S
C943 U926 2.882 . S
C943 C937 1.428 . S
C943 O946 1.301 . S
C943 O947 1.282 . S
O944 U926 2.441 . S
O944 C930 1.249 . S
O945 U926 2.420 . S
O945 C930 1.202 . S
O946 U926 2.455 . S
O946 C943 1.301 . S
O947 U926 2.449 . S
O947 C943 1.282 . S
H948 C921 0.931 . S
H949 C923 0.929 . S
H950 C924 0.930 . S
H951 C925 0.931 . S
H952 C932 0.932 . S
H953 C933 0.930 . S
H954 C934 0.929 . S
H955 C936 0.930 . S
H956 C938 0.932 . S
H957 C939 0.929 . S
H958 C940 0.928 . S
H959 C942 0.932 . S
C960 C961 1.264 . S
C960 C965 1.479 . S
C960 C970 1.465 . S
C961 C960 1.264 . S
C961 C963 1.339 . S
C961 H988 0.931 . S
C962 C963 1.395 . S
C962 C964 1.320 . S
C963 C961 1.339 . S
C963 C962 1.395 . S
C963 H989 0.929 . S
C964 C962 1.320 . S
C964 C965 1.405 . S
C964 H990 0.930 . S
C965 C960 1.479 . S
C965 C964 1.405 . S
C965 H991 0.931 . S
U966 O967 2.454 . S
U966 O968 2.458 . S
U966 C969 2.984 . S
U966 C970 2.847 . S
U966 C983 2.882 . S
U966 O984 2.441 . S
U966 O985 2.420 . S
U966 O986 2.455 . S
U966 O987 2.449 . S
O967 U966 2.454 . S
O967 C969 1.353 . S
O968 U966 2.458 . S
O968 C969 1.286 . S
C969 U966 2.984 . S
C969 O967 1.353 . S
C969 O968 1.286 . S
C969 C971 1.363 . S
C970 C960 1.465 . S
C970 U966 2.847 . S
C970 O984 1.249 . S
C970 O985 1.202 . S
C971 C969 1.363 . S
C971 C973 1.408 . S
C971 C976 1.342 . S
C972 C973 1.310 . S
C972 C975 1.461 . S
C972 H992 0.932 . S
C973 C971 1.408 . S
C973 C972 1.310 . S
C973 H993 0.930 . S
C974 C975 1.474 . S
C974 C976 1.285 . S
C974 H994 0.929 . S
C975 C972 1.461 . S
C975 C974 1.474 . S
C976 C971 1.342 . S
C976 C974 1.285 . S
C976 H995 0.930 . S
C977 C980 1.424 . S
C977 C982 1.245 . S
C977 C983 1.428 . S
C978 C981 1.260 . S
C978 C982 1.477 . S
C978 H996 0.932 . S
C979 C980 1.384 . S
C979 C981 1.479 . S
C979 H997 0.929 . S
C980 C977 1.424 . S
C980 C979 1.384 . S
C980 H998 0.928 . S
C981 C978 1.260 . S
C981 C979 1.479 . S
C982 C977 1.245 . S
C982 C978 1.477 . S
C982 H999 0.932 . S
C983 U966 2.882 . S
C983 C977 1.428 . S
C983 O986 1.301 . S
C983 O987 1.282 . S
O984 U966 2.441 . S
O984 C970 1.249 . S
O985 U966 2.420 . S
O985 C970 1.202 . S
O986 U966 2.455 . S
O986 C983 1.301 . S
O987 U966 2.449 . S
O987 C983 1.282 . S
H988 C961 0.931 . S
H989 C963 0.929 . S
H990 C964 0.930 . S
H991 C965 0.931 . S
H992 C972 0.932 . S
H993 C973 0.930 . S
H994 C974 0.929 . S
H995 C976 0.930 . S
H996 C978 0.932 . S
H997 C979 0.929 . S
H998 C980 0.928 . S
H999 C982 0.932 . S
C1000 C1001 1.264 . S
C1000 C1005 1.479 . S
C1000 C1010 1.465 . S
C1001 C1000 1.264 . S
C1001 C1003 1.339 . S
C1001 H1028 0.931 . S
C1002 C1003 1.395 . S
C1002 C1004 1.320 . S
C1003 C1001 1.339 . S
C1003 C1002 1.395 . S
C1003 H1029 0.929 . S
C1004 C1002 1.320 . S
C1004 C1005 1.405 . S
C1004 H1030 0.930 . S
C1005 C1000 1.479 . S
C1005 C1004 1.405 . S
C1005 H1031 0.931 . S
U1006 O1007 2.454 . S
U1006 O1008 2.458 . S
U1006 C1009 2.984 . S
U1006 C1010 2.847 . S
U1006 C1023 2.882 . S
U1006 O1024 2.441 . S
U1006 O1025 2.420 . S
U1006 O1026 2.455 . S
U1006 O1027 2.449 . S
O1007 U1006 2.454 . S
O1007 C1009 1.353 . S
O1008 U1006 2.458 . S
O1008 C1009 1.286 . S
C1009 U1006 2.984 . S
C1009 O1007 1.353 . S
C1009 O1008 1.286 . S
C1009 C1011 1.363 . S
C1010 C1000 1.465 . S
C1010 U1006 2.847 . S
C1010 O1024 1.249 . S
C1010 O1025 1.202 . S
C1011 C1009 1.363 . S
C1011 C1013 1.408 . S
C1011 C1016 1.342 . S
C1012 C1013 1.310 . S
C1012 C1015 1.461 . S
C1012 H1032 0.932 . S
C1013 C1011 1.408 . S
C1013 C1012 1.310 . S
C1013 H1033 0.930 . S
C1014 C1015 1.474 . S
C1014 C1016 1.285 . S
C1014 H1034 0.929 . S
C1015 C1012 1.461 . S
C1015 C1014 1.474 . S
C1016 C1011 1.342 . S
C1016 C1014 1.285 . S
C1016 H1035 0.930 . S
C1017 C1020 1.424 . S
C1017 C1022 1.245 . S
C1017 C1023 1.428 . S
C1018 C1021 1.260 . S
C1018 C1022 1.477 . S
C1018 H1036 0.932 . S
C1019 C1020 1.384 . S
C1019 C1021 1.479 . S
C1019 H1037 0.929 . S
C1020 C1017 1.424 . S
C1020 C1019 1.384 . S
C1020 H1038 0.928 . S
C1021 C1018 1.260 . S
C1021 C1019 1.479 . S
C1022 C1017 1.245 . S
C1022 C1018 1.477 . S
C1022 H1039 0.932 . S
C1023 U1006 2.882 . S
C1023 C1017 1.428 . S
C1023 O1026 1.301 . S
C1023 O1027 1.282 . S
O1024 U1006 2.441 . S
O1024 C1010 1.249 . S
O1025 U1006 2.420 . S
O1025 C1010 1.202 . S
O1026 U1006 2.455 . S
O1026 C1023 1.301 . S
O1027 U1006 2.449 . S
O1027 C1023 1.282 . S
H1028 C1001 0.931 . S
H1029 C1003 0.929 . S
H1030 C1004 0.930 . S
H1031 C1005 0.931 . S
H1032 C1012 0.932 . S
H1033 C1013 0.930 . S
H1034 C1014 0.929 . S
H1035 C1016 0.930 . S
H1036 C1018 0.932 . S
H1037 C1019 0.929 . S
H1038 C1020 0.928 . S
H1039 C1022 0.932 . S
C1040 C1041 1.264 . S
C1040 C1045 1.479 . S
C1040 C1050 1.465 . S
C1041 C1040 1.264 . S
C1041 C1043 1.339 . S
C1041 H1068 0.931 . S
C1042 C1043 1.395 . S
C1042 C1044 1.320 . S
C1043 C1041 1.339 . S
C1043 C1042 1.395 . S
C1043 H1069 0.929 . S
C1044 C1042 1.320 . S
C1044 C1045 1.405 . S
C1044 H1070 0.930 . S
C1045 C1040 1.479 . S
C1045 C1044 1.405 . S
C1045 H1071 0.931 . S
U1046 O1047 2.454 . S
U1046 O1048 2.458 . S
U1046 C1049 2.984 . S
U1046 C1050 2.847 . S
U1046 C1063 2.882 . S
U1046 O1064 2.441 . S
U1046 O1065 2.420 . S
U1046 O1066 2.455 . S
U1046 O1067 2.449 . S
O1047 U1046 2.454 . S
O1047 C1049 1.353 . S
O1048 U1046 2.458 . S
O1048 C1049 1.286 . S
C1049 U1046 2.984 . S
C1049 O1047 1.353 . S
C1049 O1048 1.286 . S
C1049 C1051 1.363 . S
C1050 C1040 1.465 . S
C1050 U1046 2.847 . S
C1050 O1064 1.249 . S
C1050 O1065 1.202 . S
C1051 C1049 1.363 . S
C1051 C1053 1.408 . S
C1051 C1056 1.342 . S
C1052 C1053 1.310 . S
C1052 C1055 1.461 . S
C1052 H1072 0.932 . S
C1053 C1051 1.408 . S
C1053 C1052 1.310 . S
C1053 H1073 0.930 . S
C1054 C1055 1.474 . S
C1054 C1056 1.285 . S
C1054 H1074 0.929 . S
C1055 C1052 1.461 . S
C1055 C1054 1.474 . S
C1056 C1051 1.342 . S
C1056 C1054 1.285 . S
C1056 H1075 0.930 . S
C1057 C1060 1.424 . S
C1057 C1062 1.245 . S
C1057 C1063 1.428 . S
C1058 C1061 1.260 . S
C1058 C1062 1.477 . S
C1058 H1076 0.932 . S
C1059 C1060 1.384 . S
C1059 C1061 1.479 . S
C1059 H1077 0.929 . S
C1060 C1057 1.424 . S
C1060 C1059 1.384 . S
C1060 H1078 0.928 . S
C1061 C1058 1.260 . S
C1061 C1059 1.479 . S
C1062 C1057 1.245 . S
C1062 C1058 1.477 . S
C1062 H1079 0.932 . S
C1063 U1046 2.882 . S
C1063 C1057 1.428 . S
C1063 O1066 1.301 . S
C1063 O1067 1.282 . S
O1064 U1046 2.441 . S
O1064 C1050 1.249 . S
O1065 U1046 2.420 . S
O1065 C1050 1.202 . S
O1066 U1046 2.455 . S
O1066 C1063 1.301 . S
O1067 U1046 2.449 . S
O1067 C1063 1.282 . S
H1068 C1041 0.931 . S
H1069 C1043 0.929 . S
H1070 C1044 0.930 . S
H1071 C1045 0.931 . S
H1072 C1052 0.932 . S
H1073 C1053 0.930 . S
H1074 C1054 0.929 . S
H1075 C1056 0.930 . S
H1076 C1058 0.932 . S
H1077 C1059 0.929 . S
H1078 C1060 0.928 . S
H1079 C1062 0.932 . S
C1080 C1081 1.264 . S
C1080 C1085 1.479 . S
C1080 C1090 1.465 . S
C1081 C1080 1.264 . S
C1081 C1083 1.339 . S
C1081 H1108 0.931 . S
C1082 C1083 1.395 . S
C1082 C1084 1.320 . S
C1083 C1081 1.339 . S
C1083 C1082 1.395 . S
C1083 H1109 0.929 . S
C1084 C1082 1.320 . S
C1084 C1085 1.405 . S
C1084 H1110 0.930 . S
C1085 C1080 1.479 . S
C1085 C1084 1.405 . S
C1085 H1111 0.931 . S
U1086 O1087 2.454 . S
U1086 O1088 2.458 . S
U1086 C1089 2.984 . S
U1086 C1090 2.847 . S
U1086 C1103 2.882 . S
U1086 O1104 2.441 . S
U1086 O1105 2.420 . S
U1086 O1106 2.455 . S
U1086 O1107 2.449 . S
O1087 U1086 2.454 . S
O1087 C1089 1.353 . S
O1088 U1086 2.458 . S
O1088 C1089 1.286 . S
C1089 U1086 2.984 . S
C1089 O1087 1.353 . S
C1089 O1088 1.286 . S
C1089 C1091 1.363 . S
C1090 C1080 1.465 . S
C1090 U1086 2.847 . S
C1090 O1104 1.249 . S
C1090 O1105 1.202 . S
C1091 C1089 1.363 . S
C1091 C1093 1.408 . S
C1091 C1096 1.342 . S
C1092 C1093 1.310 . S
C1092 C1095 1.461 . S
C1092 H1112 0.932 . S
C1093 C1091 1.408 . S
C1093 C1092 1.310 . S
C1093 H1113 0.930 . S
C1094 C1095 1.474 . S
C1094 C1096 1.285 . S
C1094 H1114 0.929 . S
C1095 C1092 1.461 . S
C1095 C1094 1.474 . S
C1096 C1091 1.342 . S
C1096 C1094 1.285 . S
C1096 H1115 0.930 . S
C1097 C1100 1.424 . S
C1097 C1102 1.245 . S
C1097 C1103 1.428 . S
C1098 C1101 1.260 . S
C1098 C1102 1.477 . S
C1098 H1116 0.932 . S
C1099 C1100 1.384 . S
C1099 C1101 1.479 . S
C1099 H1117 0.929 . S
C1100 C1097 1.424 . S
C1100 C1099 1.384 . S
C1100 H1118 0.928 . S
C1101 C1098 1.260 . S
C1101 C1099 1.479 . S
C1102 C1097 1.245 . S
C1102 C1098 1.477 . S
C1102 H1119 0.932 . S
C1103 U1086 2.882 . S
C1103 C1097 1.428 . S
C1103 O1106 1.301 . S
C1103 O1107 1.282 . S
O1104 U1086 2.441 . S
O1104 C1090 1.249 . S
O1105 U1086 2.420 . S
O1105 C1090 1.202 . S
O1106 U1086 2.455 . S
O1106 C1103 1.301 . S
O1107 U1086 2.449 . S
O1107 C1103 1.282 . S
H1108 C1081 0.931 . S
H1109 C1083 0.929 . S
H1110 C1084 0.930 . S
H1111 C1085 0.931 . S
H1112 C1092 0.932 . S
H1113 C1093 0.930 . S
H1114 C1094 0.929 . S
H1115 C1096 0.930 . S
H1116 C1098 0.932 . S
H1117 C1099 0.929 . S
H1118 C1100 0.928 . S
H1119 C1102 0.932 . S
C1120 C1121 1.264 . S
C1120 C1125 1.479 . S
C1120 C1130 1.465 . S
C1121 C1120 1.264 . S
C1121 C1123 1.339 . S
C1121 H1148 0.931 . S
C1122 C1123 1.395 . S
C1122 C1124 1.320 . S
C1123 C1121 1.339 . S
C1123 C1122 1.395 . S
C1123 H1149 0.929 . S
C1124 C1122 1.320 . S
C1124 C1125 1.405 . S
C1124 H1150 0.930 . S
C1125 C1120 1.479 . S
C1125 C1124 1.405 . S
C1125 H1151 0.931 . S
U1126 O1127 2.454 . S
U1126 O1128 2.458 . S
U1126 C1129 2.984 . S
U1126 C1130 2.847 . S
U1126 C1143 2.882 . S
U1126 O1144 2.441 . S
U1126 O1145 2.420 . S
U1126 O1146 2.455 . S
U1126 O1147 2.449 . S
O1127 U1126 2.454 . S
O1127 C1129 1.353 . S
O1128 U1126 2.458 . S
O1128 C1129 1.286 . S
C1129 U1126 2.984 . S
C1129 O1127 1.353 . S
C1129 O1128 1.286 . S
C1129 C1131 1.363 . S
C1130 C1120 1.465 . S
C1130 U1126 2.847 . S
C1130 O1144 1.249 . S
C1130 O1145 1.202 . S
C1131 C1129 1.363 . S
C1131 C1133 1.408 . S
C1131 C1136 1.342 . S
C1132 C1133 1.310 . S
C1132 C1135 1.461 . S
C1132 H1152 0.932 . S
C1133 C1131 1.408 . S
C1133 C1132 1.310 . S
C1133 H1153 0.930 . S
C1134 C1135 1.474 . S
C1134 C1136 1.285 . S
C1134 H1154 0.929 . S
C1135 C1132 1.461 . S
C1135 C1134 1.474 . S
C1136 C1131 1.342 . S
C1136 C1134 1.285 . S
C1136 H1155 0.930 . S
C1137 C1140 1.424 . S
C1137 C1142 1.245 . S
C1137 C1143 1.428 . S
C1138 C1141 1.260 . S
C1138 C1142 1.477 . S
C1138 H1156 0.932 . S
C1139 C1140 1.384 . S
C1139 C1141 1.479 . S
C1139 H1157 0.929 . S
C1140 C1137 1.424 . S
C1140 C1139 1.384 . S
C1140 H1158 0.928 . S
C1141 C1138 1.260 . S
C1141 C1139 1.479 . S
C1142 C1137 1.245 . S
C1142 C1138 1.477 . S
C1142 H1159 0.932 . S
C1143 U1126 2.882 . S
C1143 C1137 1.428 . S
C1143 O1146 1.301 . S
C1143 O1147 1.282 . S
O1144 U1126 2.441 . S
O1144 C1130 1.249 . S
O1145 U1126 2.420 . S
O1145 C1130 1.202 . S
O1146 U1126 2.455 . S
O1146 C1143 1.301 . S
O1147 U1126 2.449 . S
O1147 C1143 1.282 . S
H1148 C1121 0.931 . S
H1149 C1123 0.929 . S
H1150 C1124 0.930 . S
H1151 C1125 0.931 . S
H1152 C1132 0.932 . S
H1153 C1133 0.930 . S
H1154 C1134 0.929 . S
H1155 C1136 0.930 . S
H1156 C1138 0.932 . S
H1157 C1139 0.929 . S
H1158 C1140 0.928 . S
H1159 C1142 0.932 . S
C1160 C1161 1.264 . S
C1160 C1165 1.479 . S
C1160 C1170 1.465 . S
C1161 C1160 1.264 . S
C1161 C1163 1.339 . S
C1161 H1188 0.931 . S
C1162 C1163 1.395 . S
C1162 C1164 1.320 . S
C1163 C1161 1.339 . S
C1163 C1162 1.395 . S
C1163 H1189 0.929 . S
C1164 C1162 1.320 . S
C1164 C1165 1.405 . S
C1164 H1190 0.930 . S
C1165 C1160 1.479 . S
C1165 C1164 1.405 . S
C1165 H1191 0.931 . S
U1166 O1167 2.454 . S
U1166 O1168 2.458 . S
U1166 C1169 2.984 . S
U1166 C1170 2.847 . S
U1166 C1183 2.882 . S
U1166 O1184 2.441 . S
U1166 O1185 2.420 . S
U1166 O1186 2.455 . S
U1166 O1187 2.449 . S
O1167 U1166 2.454 . S
O1167 C1169 1.353 . S
O1168 U1166 2.458 . S
O1168 C1169 1.286 . S
C1169 U1166 2.984 . S
C1169 O1167 1.353 . S
C1169 O1168 1.286 . S
C1169 C1171 1.363 . S
C1170 C1160 1.465 . S
C1170 U1166 2.847 . S
C1170 O1184 1.249 . S
C1170 O1185 1.202 . S
C1171 C1169 1.363 . S
C1171 C1173 1.408 . S
C1171 C1176 1.342 . S
C1172 C1173 1.310 . S
C1172 C1175 1.461 . S
C1172 H1192 0.932 . S
C1173 C1171 1.408 . S
C1173 C1172 1.310 . S
C1173 H1193 0.930 . S
C1174 C1175 1.474 . S
C1174 C1176 1.285 . S
C1174 H1194 0.929 . S
C1175 C1172 1.461 . S
C1175 C1174 1.474 . S
C1176 C1171 1.342 . S
C1176 C1174 1.285 . S
C1176 H1195 0.930 . S
C1177 C1180 1.424 . S
C1177 C1182 1.245 . S
C1177 C1183 1.428 . S
C1178 C1181 1.260 . S
C1178 C1182 1.477 . S
C1178 H1196 0.932 . S
C1179 C1180 1.384 . S
C1179 C1181 1.479 . S
C1179 H1197 0.929 . S
C1180 C1177 1.424 . S
C1180 C1179 1.384 . S
C1180 H1198 0.928 . S
C1181 C1178 1.260 . S
C1181 C1179 1.479 . S
C1182 C1177 1.245 . S
C1182 C1178 1.477 . S
C1182 H1199 0.932 . S
C1183 U1166 2.882 . S
C1183 C1177 1.428 . S
C1183 O1186 1.301 . S
C1183 O1187 1.282 . S
O1184 U1166 2.441 . S
O1184 C1170 1.249 . S
O1185 U1166 2.420 . S
O1185 C1170 1.202 . S
O1186 U1166 2.455 . S
O1186 C1183 1.301 . S
O1187 U1166 2.449 . S
O1187 C1183 1.282 . S
H1188 C1161 0.931 . S
H1189 C1163 0.929 . S
H1190 C1164 0.930 . S
H1191 C1165 0.931 . S
H1192 C1172 0.932 . S
H1193 C1173 0.930 . S
H1194 C1174 0.929 . S
H1195 C1176 0.930 . S
H1196 C1178 0.932 . S
H1197 C1179 0.929 . S
H1198 C1180 0.928 . S
H1199 C1182 0.932 . S
C1200 C1201 1.264 . S
C1200 C1205 1.479 . S
C1200 C1210 1.465 . S
C1201 C1200 1.264 . S
C1201 C1203 1.339 . S
C1201 H1228 0.931 . S
C1202 C1203 1.395 . S
C1202 C1204 1.320 . S
C1203 C1201 1.339 . S
C1203 C1202 1.395 . S
C1203 H1229 0.929 . S
C1204 C1202 1.320 . S
C1204 C1205 1.405 . S
C1204 H1230 0.930 . S
C1205 C1200 1.479 . S
C1205 C1204 1.405 . S
C1205 H1231 0.931 . S
U1206 O1207 2.454 . S
U1206 O1208 2.458 . S
U1206 C1209 2.984 . S
U1206 C1210 2.847 . S
U1206 C1223 2.882 . S
U1206 O1224 2.441 . S
U1206 O1225 2.420 . S
U1206 O1226 2.455 . S
U1206 O1227 2.449 . S
O1207 U1206 2.454 . S
O1207 C1209 1.353 . S
O1208 U1206 2.458 . S
O1208 C1209 1.286 . S
C1209 U1206 2.984 . S
C1209 O1207 1.353 . S
C1209 O1208 1.286 . S
C1209 C1211 1.363 . S
C1210 C1200 1.465 . S
C1210 U1206 2.847 . S
C1210 O1224 1.249 . S
C1210 O1225 1.202 . S
C1211 C1209 1.363 . S
C1211 C1213 1.408 . S
C1211 C1216 1.342 . S
C1212 C1213 1.310 . S
C1212 C1215 1.461 . S
C1212 H1232 0.932 . S
C1213 C1211 1.408 . S
C1213 C1212 1.310 . S
C1213 H1233 0.930 . S
C1214 C1215 1.474 . S
C1214 C1216 1.285 . S
C1214 H1234 0.929 . S
C1215 C1212 1.461 . S
C1215 C1214 1.474 . S
C1216 C1211 1.342 . S
C1216 C1214 1.285 . S
C1216 H1235 0.930 . S
C1217 C1220 1.424 . S
C1217 C1222 1.245 . S
C1217 C1223 1.428 . S
C1218 C1221 1.260 . S
C1218 C1222 1.477 . S
C1218 H1236 0.932 . S
C1219 C1220 1.384 . S
C1219 C1221 1.479 . S
C1219 H1237 0.929 . S
C1220 C1217 1.424 . S
C1220 C1219 1.384 . S
C1220 H1238 0.928 . S
C1221 C1218 1.260 . S
C1221 C1219 1.479 . S
C1222 C1217 1.245 . S
C1222 C1218 1.477 . S
C1222 H1239 0.932 . S
C1223 U1206 2.882 . S
C1223 C1217 1.428 . S
C1223 O1226 1.301 . S
C1223 O1227 1.282 . S
O1224 U1206 2.441 . S
O1224 C1210 1.249 . S
O1225 U1206 2.420 . S
O1225 C1210 1.202 . S
O1226 U1206 2.455 . S
O1226 C1223 1.301 . S
O1227 U1206 2.449 . S
O1227 C1223 1.282 . S
H1228 C1201 0.931 . S
H1229 C1203 0.929 . S
H1230 C1204 0.930 . S
H1231 C1205 0.931 . S
H1232 C1212 0.932 . S
H1233 C1213 0.930 . S
H1234 C1214 0.929 . S
H1235 C1216 0.930 . S
H1236 C1218 0.932 . S
H1237 C1219 0.929 . S
H1238 C1220 0.928 . S
H1239 C1222 0.932 . S
C1240 C1241 1.264 . S
C1240 C1245 1.479 . S
C1240 C1250 1.465 . S
C1241 C1240 1.264 . S
C1241 C1243 1.339 . S
C1241 H1268 0.931 . S
C1242 C1243 1.395 . S
C1242 C1244 1.320 . S
C1243 C1241 1.339 . S
C1243 C1242 1.395 . S
C1243 H1269 0.929 . S
C1244 C1242 1.320 . S
C1244 C1245 1.405 . S
C1244 H1270 0.930 . S
C1245 C1240 1.479 . S
C1245 C1244 1.405 . S
C1245 H1271 0.931 . S
U1246 O1247 2.454 . S
U1246 O1248 2.458 . S
U1246 C1249 2.984 . S
U1246 C1250 2.847 . S
U1246 C1263 2.882 . S
U1246 O1264 2.441 . S
U1246 O1265 2.420 . S
U1246 O1266 2.455 . S
U1246 O1267 2.449 . S
O1247 U1246 2.454 . S
O1247 C1249 1.353 . S
O1248 U1246 2.458 . S
O1248 C1249 1.286 . S
C1249 U1246 2.984 . S
C1249 O1247 1.353 . S
C1249 O1248 1.286 . S
C1249 C1251 1.363 . S
C1250 C1240 1.465 . S
C1250 U1246 2.847 . S
C1250 O1264 1.249 . S
C1250 O1265 1.202 . S
C1251 C1249 1.363 . S
C1251 C1253 1.408 . S
C1251 C1256 1.342 . S
C1252 C1253 1.310 . S
C1252 C1255 1.461 . S
C1252 H1272 0.932 . S
C1253 C1251 1.408 . S
C1253 C1252 1.310 . S
C1253 H1273 0.930 . S
C1254 C1255 1.474 . S
C1254 C1256 1.285 . S
C1254 H1274 0.929 . S
C1255 C1252 1.461 . S
C1255 C1254 1.474 . S
C1256 C1251 1.342 . S
C1256 C1254 1.285 . S
C1256 H1275 0.930 . S
C1257 C1260 1.424 . S
C1257 C1262 1.245 . S
C1257 C1263 1.428 . S
C1258 C1261 1.260 . S
C1258 C1262 1.477 . S
C1258 H1276 0.932 . S
C1259 C1260 1.384 . S
C1259 C1261 1.479 . S
C1259 H1277 0.929 . S
C1260 C1257 1.424 . S
C1260 C1259 1.384 . S
C1260 H1278 0.928 . S
C1261 C1258 1.260 . S
C1261 C1259 1.479 . S
C1262 C1257 1.245 . S
C1262 C1258 1.477 . S
C1262 H1279 0.932 . S
C1263 U1246 2.882 . S
C1263 C1257 1.428 . S
C1263 O1266 1.301 . S
C1263 O1267 1.282 . S
O1264 U1246 2.441 . S
O1264 C1250 1.249 . S
O1265 U1246 2.420 . S
O1265 C1250 1.202 . S
O1266 U1246 2.455 . S
O1266 C1263 1.301 . S
O1267 U1246 2.449 . S
O1267 C1263 1.282 . S
H1268 C1241 0.931 . S
H1269 C1243 0.929 . S
H1270 C1244 0.930 . S
H1271 C1245 0.931 . S
H1272 C1252 0.932 . S
H1273 C1253 0.930 . S
H1274 C1254 0.929 . S
H1275 C1256 0.930 . S
H1276 C1258 0.932 . S
H1277 C1259 0.929 . S
H1278 C1260 0.928 . S
H1279 C1262 0.932 . S
H1280 C1307 0.929 . S
N1281 C1306 1.433 . S
N1281 C1312 1.435 . S
N1281 C1318 1.423 . S
H1282 C1308 0.930 . S
H1283 C1311 0.931 . S
H1284 C1310 0.929 . S
H1285 C1313 0.930 . S
H1286 C1314 0.932 . S
H1287 C1317 0.929 . S
H1288 C1316 0.931 . S
H1289 C1319 0.929 . S
H1290 C1323 0.932 . S
H1291 C1320 0.931 . S
H1292 C1322 0.929 . S
H1293 C1325 0.929 . S
H1294 C1326 0.930 . S
H1295 C1328 0.929 . S
H1296 C1329 0.931 . S
H1297 C1331 0.930 . S
H1298 C1332 0.932 . S
H1299 C1334 0.931 . S
H1300 C1335 0.929 . S
H1301 C1337 0.929 . S
H1302 C1338 0.931 . S
H1303 C1340 0.929 . S
N1304 C1324 1.433 . S
N1304 C1330 1.435 . S
N1304 C1336 1.423 . S
H1305 C1341 0.932 . S
C1306 N1281 1.433 . S
C1306 C1307 1.363 . S
C1306 C1311 1.370 . S
C1307 H1280 0.929 . S
C1307 C1306 1.363 . S
C1307 C1308 1.385 . S
C1308 H1282 0.930 . S
C1308 C1307 1.385 . S
C1308 C1309 1.357 . S
C1309 C1308 1.357 . S
C1309 C1310 1.406 . S
C1310 H1284 0.929 . S
C1310 C1309 1.406 . S
C1310 C1311 1.391 . S
C1311 H1283 0.931 . S
C1311 C1306 1.370 . S
C1311 C1310 1.391 . S
C1312 N1281 1.435 . S
C1312 C1313 1.358 . S
C1312 C1317 1.371 . S
C1313 H1285 0.930 . S
C1313 C1312 1.358 . S
C1313 C1314 1.405 . S
C1314 H1286 0.932 . S
C1314 C1313 1.405 . S
C1314 C1315 1.383 . S
C1315 C1314 1.383 . S
C1315 C1316 1.393 . S
C1316 H1288 0.931 . S
C1316 C1315 1.393 . S
C1316 C1317 1.382 . S
C1317 H1287 0.929 . S
C1317 C1312 1.371 . S
C1317 C1316 1.382 . S
C1318 N1281 1.423 . S
C1318 C1319 1.362 . S
C1318 C1323 1.388 . S
C1319 H1289 0.929 . S
C1319 C1318 1.362 . S
C1319 C1320 1.376 . S
C1320 H1291 0.931 . S
C1320 C1319 1.376 . S
C1320 C1321 1.396 . S
C1321 C1320 1.396 . S
C1321 C1322 1.348 . S
C1321 C1339 1.472 1_556 S
C1322 H1292 0.929 . S
C1322 C1321 1.348 . S
C1322 C1323 1.443 . S
C1323 H1290 0.932 . S
C1323 C1318 1.388 . S
C1323 C1322 1.443 . S
C1324 N1304 1.433 . S
C1324 C1325 1.363 . S
C1324 C1329 1.370 . S
C1325 H1293 0.929 . S
C1325 C1324 1.363 . S
C1325 C1326 1.385 . S
C1326 H1294 0.930 . S
C1326 C1325 1.385 . S
C1326 C1327 1.357 . S
C1327 C1326 1.357 . S
C1327 C1328 1.406 . S
C1328 H1295 0.929 . S
C1328 C1327 1.406 . S
C1328 C1329 1.391 . S
C1329 H1296 0.931 . S
C1329 C1324 1.370 . S
C1329 C1328 1.391 . S
C1330 N1304 1.435 . S
C1330 C1331 1.358 . S
C1330 C1335 1.371 . S
C1331 H1297 0.930 . S
C1331 C1330 1.358 . S
C1331 C1332 1.405 . S
C1332 H1298 0.932 . S
C1332 C1331 1.405 . S
C1332 C1333 1.383 . S
C1333 C1332 1.383 . S
C1333 C1334 1.393 . S
C1334 H1299 0.931 . S
C1334 C1333 1.393 . S
C1334 C1335 1.382 . S
C1335 H1300 0.929 . S
C1335 C1330 1.371 . S
C1335 C1334 1.382 . S
C1336 N1304 1.423 . S
C1336 C1337 1.362 . S
C1336 C1341 1.388 . S
C1337 H1301 0.929 . S
C1337 C1336 1.362 . S
C1337 C1338 1.376 . S
C1338 H1302 0.931 . S
C1338 C1337 1.376 . S
C1338 C1339 1.396 . S
C1339 C1321 1.472 1_554 S
C1339 C1338 1.396 . S
C1339 C1340 1.348 . S
C1340 H1303 0.929 . S
C1340 C1339 1.348 . S
C1340 C1341 1.443 . S
C1341 H1305 0.932 . S
C1341 C1336 1.388 . S
C1341 C1340 1.443 . S
H1342 C1369 0.929 . S
N1343 C1368 1.433 . S
N1343 C1374 1.435 . S
N1343 C1380 1.423 . S
H1344 C1370 0.930 . S
H1345 C1373 0.931 . S
H1346 C1372 0.929 . S
H1347 C1375 0.930 . S
H1348 C1376 0.932 . S
H1349 C1379 0.929 . S
H1350 C1378 0.931 . S
H1351 C1381 0.929 . S
H1352 C1385 0.932 . S
H1353 C1382 0.931 . S
H1354 C1384 0.929 . S
H1355 C1387 0.929 . S
H1356 C1388 0.930 . S
H1357 C1390 0.929 . S
H1358 C1391 0.931 . S
H1359 C1393 0.930 . S
H1360 C1394 0.932 . S
H1361 C1396 0.931 . S
H1362 C1397 0.929 . S
H1363 C1399 0.929 . S
H1364 C1400 0.931 . S
H1365 C1402 0.929 . S
N1366 C1386 1.433 . S
N1366 C1392 1.435 . S
N1366 C1398 1.423 . S
H1367 C1403 0.932 . S
C1368 N1343 1.433 . S
C1368 C1369 1.363 . S
C1368 C1373 1.370 . S
C1369 H1342 0.929 . S
C1369 C1368 1.363 . S
C1369 C1370 1.385 . S
C1370 H1344 0.930 . S
C1370 C1369 1.385 . S
C1370 C1371 1.357 . S
C1371 C1370 1.357 . S
C1371 C1372 1.406 . S
C1372 H1346 0.929 . S
C1372 C1371 1.406 . S
C1372 C1373 1.391 . S
C1373 H1345 0.931 . S
C1373 C1368 1.370 . S
C1373 C1372 1.391 . S
C1374 N1343 1.435 . S
C1374 C1375 1.358 . S
C1374 C1379 1.371 . S
C1375 H1347 0.930 . S
C1375 C1374 1.358 . S
C1375 C1376 1.405 . S
C1376 H1348 0.932 . S
C1376 C1375 1.405 . S
C1376 C1377 1.383 . S
C1377 C1376 1.383 . S
C1377 C1378 1.393 . S
C1378 H1350 0.931 . S
C1378 C1377 1.393 . S
C1378 C1379 1.382 . S
C1379 H1349 0.929 . S
C1379 C1374 1.371 . S
C1379 C1378 1.382 . S
C1380 N1343 1.423 . S
C1380 C1381 1.362 . S
C1380 C1385 1.388 . S
C1381 H1351 0.929 . S
C1381 C1380 1.362 . S
C1381 C1382 1.376 . S
C1382 H1353 0.931 . S
C1382 C1381 1.376 . S
C1382 C1383 1.396 1_556 S
C1383 C1382 1.396 1_554 S
C1383 C1384 1.348 1_554 S
C1383 C1401 1.472 . S
C1384 H1354 0.929 . S
C1384 C1383 1.348 1_556 S
C1384 C1385 1.443 . S
C1385 H1352 0.932 . S
C1385 C1380 1.388 . S
C1385 C1384 1.443 . S
C1386 N1366 1.433 . S
C1386 C1387 1.363 . S
C1386 C1391 1.370 . S
C1387 H1355 0.929 . S
C1387 C1386 1.363 . S
C1387 C1388 1.385 . S
C1388 H1356 0.930 . S
C1388 C1387 1.385 . S
C1388 C1389 1.357 . S
C1389 C1388 1.357 . S
C1389 C1390 1.406 . S
C1390 H1357 0.929 . S
C1390 C1389 1.406 . S
C1390 C1391 1.391 . S
C1391 H1358 0.931 . S
C1391 C1386 1.370 . S
C1391 C1390 1.391 . S
C1392 N1366 1.435 . S
C1392 C1393 1.358 . S
C1392 C1397 1.371 . S
C1393 H1359 0.930 . S
C1393 C1392 1.358 . S
C1393 C1394 1.405 . S
C1394 H1360 0.932 . S
C1394 C1393 1.405 . S
C1394 C1395 1.383 . S
C1395 C1394 1.383 . S
C1395 C1396 1.393 . S
C1396 H1361 0.931 . S
C1396 C1395 1.393 . S
C1396 C1397 1.382 . S
C1397 H1362 0.929 . S
C1397 C1392 1.371 . S
C1397 C1396 1.382 . S
C1398 N1366 1.423 . S
C1398 C1399 1.362 . S
C1398 C1403 1.388 . S
C1399 H1363 0.929 . S
C1399 C1398 1.362 . S
C1399 C1400 1.376 . S
C1400 H1364 0.931 . S
C1400 C1399 1.376 . S
C1400 C1401 1.396 . S
C1401 C1383 1.472 . S
C1401 C1400 1.396 . S
C1401 C1402 1.348 . S
C1402 H1365 0.929 . S
C1402 C1401 1.348 . S
C1402 C1403 1.443 . S
C1403 H1367 0.932 . S
C1403 C1398 1.388 . S
C1403 C1402 1.443 . S
H1404 C1431 0.929 . S
N1405 C1430 1.433 . S
N1405 C1436 1.435 . S
N1405 C1442 1.423 . S
H1406 C1432 0.930 . S
H1407 C1435 0.931 . S
H1408 C1434 0.929 . S
H1409 C1437 0.930 . S
H1410 C1438 0.932 . S
H1411 C1441 0.929 . S
H1412 C1440 0.931 . S
H1413 C1443 0.929 . S
H1414 C1447 0.932 . S
H1415 C1444 0.931 . S
H1416 C1446 0.929 . S
H1417 C1449 0.929 . S
H1418 C1450 0.930 . S
H1419 C1452 0.929 . S
H1420 C1453 0.931 . S
H1421 C1455 0.930 . S
H1422 C1456 0.932 . S
H1423 C1458 0.931 . S
H1424 C1459 0.929 . S
H1425 C1461 0.929 . S
H1426 C1462 0.931 . S
H1427 C1464 0.929 . S
N1428 C1448 1.433 . S
N1428 C1454 1.435 . S
N1428 C1460 1.423 . S
H1429 C1465 0.932 . S
C1430 N1405 1.433 . S
C1430 C1431 1.363 . S
C1430 C1435 1.370 . S
C1431 H1404 0.929 . S
C1431 C1430 1.363 . S
C1431 C1432 1.385 . S
C1432 H1406 0.930 . S
C1432 C1431 1.385 . S
C1432 C1433 1.357 . S
C1433 C1432 1.357 . S
C1433 C1434 1.406 . S
C1434 H1408 0.929 . S
C1434 C1433 1.406 . S
C1434 C1435 1.391 . S
C1435 H1407 0.931 . S
C1435 C1430 1.370 . S
C1435 C1434 1.391 . S
C1436 N1405 1.435 . S
C1436 C1437 1.358 . S
C1436 C1441 1.371 . S
C1437 H1409 0.930 . S
C1437 C1436 1.358 . S
C1437 C1438 1.405 . S
C1438 H1410 0.932 . S
C1438 C1437 1.405 . S
C1438 C1439 1.383 . S
C1439 C1438 1.383 . S
C1439 C1440 1.393 . S
C1440 H1412 0.931 . S
C1440 C1439 1.393 . S
C1440 C1441 1.382 . S
C1441 H1411 0.929 . S
C1441 C1436 1.371 . S
C1441 C1440 1.382 . S
C1442 N1405 1.423 . S
C1442 C1443 1.362 . S
C1442 C1447 1.388 . S
C1443 H1413 0.929 . S
C1443 C1442 1.362 . S
C1443 C1444 1.376 . S
C1444 H1415 0.931 . S
C1444 C1443 1.376 . S
C1444 C1445 1.396 . S
C1445 C1444 1.396 . S
C1445 C1446 1.348 . S
C1445 C1463 1.472 1_556 S
C1446 H1416 0.929 . S
C1446 C1445 1.348 . S
C1446 C1447 1.443 . S
C1447 H1414 0.932 . S
C1447 C1442 1.388 . S
C1447 C1446 1.443 . S
C1448 N1428 1.433 . S
C1448 C1449 1.363 . S
C1448 C1453 1.370 . S
C1449 H1417 0.929 . S
C1449 C1448 1.363 . S
C1449 C1450 1.385 . S
C1450 H1418 0.930 . S
C1450 C1449 1.385 . S
C1450 C1451 1.357 . S
C1451 C1450 1.357 . S
C1451 C1452 1.406 . S
C1452 H1419 0.929 . S
C1452 C1451 1.406 . S
C1452 C1453 1.391 . S
C1453 H1420 0.931 . S
C1453 C1448 1.370 . S
C1453 C1452 1.391 . S
C1454 N1428 1.435 . S
C1454 C1455 1.358 . S
C1454 C1459 1.371 . S
C1455 H1421 0.930 . S
C1455 C1454 1.358 . S
C1455 C1456 1.405 . S
C1456 H1422 0.932 . S
C1456 C1455 1.405 . S
C1456 C1457 1.383 . S
C1457 C1456 1.383 . S
C1457 C1458 1.393 . S
C1458 H1423 0.931 . S
C1458 C1457 1.393 . S
C1458 C1459 1.382 . S
C1459 H1424 0.929 . S
C1459 C1454 1.371 . S
C1459 C1458 1.382 . S
C1460 N1428 1.423 . S
C1460 C1461 1.362 . S
C1460 C1465 1.388 . S
C1461 H1425 0.929 . S
C1461 C1460 1.362 . S
C1461 C1462 1.376 . S
C1462 H1426 0.931 . S
C1462 C1461 1.376 . S
C1462 C1463 1.396 . S
C1463 C1445 1.472 1_554 S
C1463 C1462 1.396 . S
C1463 C1464 1.348 . S
C1464 H1427 0.929 . S
C1464 C1463 1.348 . S
C1464 C1465 1.443 . S
C1465 H1429 0.932 . S
C1465 C1460 1.388 . S
C1465 C1464 1.443 . S
H1466 C1493 0.929 . S
N1467 C1492 1.433 . S
N1467 C1498 1.435 . S
N1467 C1504 1.423 . S
H1468 C1494 0.930 . S
H1469 C1497 0.931 . S
H1470 C1496 0.929 . S
H1471 C1499 0.930 . S
H1472 C1500 0.932 . S
H1473 C1503 0.929 . S
H1474 C1502 0.931 . S
H1475 C1505 0.929 . S
H1476 C1509 0.932 . S
H1477 C1506 0.931 . S
H1478 C1508 0.929 . S
H1479 C1511 0.929 . S
H1480 C1512 0.930 . S
H1481 C1514 0.929 . S
H1482 C1515 0.931 . S
H1483 C1517 0.930 . S
H1484 C1518 0.932 . S
H1485 C1520 0.931 . S
H1486 C1521 0.929 . S
H1487 C1523 0.929 . S
H1488 C1524 0.931 . S
H1489 C1526 0.929 . S
N1490 C1510 1.433 . S
N1490 C1516 1.435 . S
N1490 C1522 1.423 . S
H1491 C1527 0.932 . S
C1492 N1467 1.433 . S
C1492 C1493 1.363 . S
C1492 C1497 1.370 . S
C1493 H1466 0.929 . S
C1493 C1492 1.363 . S
C1493 C1494 1.385 . S
C1494 H1468 0.930 . S
C1494 C1493 1.385 . S
C1494 C1495 1.357 . S
C1495 C1494 1.357 . S
C1495 C1496 1.406 . S
C1496 H1470 0.929 . S
C1496 C1495 1.406 . S
C1496 C1497 1.391 . S
C1497 H1469 0.931 . S
C1497 C1492 1.370 . S
C1497 C1496 1.391 . S
C1498 N1467 1.435 . S
C1498 C1499 1.358 . S
C1498 C1503 1.371 . S
C1499 H1471 0.930 . S
C1499 C1498 1.358 . S
C1499 C1500 1.405 . S
C1500 H1472 0.932 . S
C1500 C1499 1.405 . S
C1500 C1501 1.383 . S
C1501 C1500 1.383 . S
C1501 C1502 1.393 . S
C1502 H1474 0.931 . S
C1502 C1501 1.393 . S
C1502 C1503 1.382 . S
C1503 H1473 0.929 . S
C1503 C1498 1.371 . S
C1503 C1502 1.382 . S
C1504 N1467 1.423 . S
C1504 C1505 1.362 . S
C1504 C1509 1.388 . S
C1505 H1475 0.929 . S
C1505 C1504 1.362 . S
C1505 C1506 1.376 . S
C1506 H1477 0.931 . S
C1506 C1505 1.376 . S
C1506 C1507 1.384 1_556 S
C1507 C1506 1.384 1_554 S
C1507 C1508 1.335 1_554 S
C1507 C1525 1.496 . S
C1508 H1478 0.929 . S
C1508 C1507 1.335 1_556 S
C1508 C1509 1.443 . S
C1509 H1476 0.932 . S
C1509 C1504 1.388 . S
C1509 C1508 1.443 . S
C1510 N1490 1.433 . S
C1510 C1511 1.363 . S
C1510 C1515 1.370 . S
C1511 H1479 0.929 . S
C1511 C1510 1.363 . S
C1511 C1512 1.385 . S
C1512 H1480 0.930 . S
C1512 C1511 1.385 . S
C1512 C1513 1.357 . S
C1513 C1512 1.357 . S
C1513 C1514 1.406 . S
C1514 H1481 0.929 . S
C1514 C1513 1.406 . S
C1514 C1515 1.391 . S
C1515 H1482 0.931 . S
C1515 C1510 1.370 . S
C1515 C1514 1.391 . S
C1516 N1490 1.435 . S
C1516 C1517 1.358 . S
C1516 C1521 1.371 . S
C1517 H1483 0.930 . S
C1517 C1516 1.358 . S
C1517 C1518 1.405 . S
C1518 H1484 0.932 . S
C1518 C1517 1.405 . S
C1518 C1519 1.383 . S
C1519 C1518 1.383 . S
C1519 C1520 1.393 . S
C1520 H1485 0.931 . S
C1520 C1519 1.393 . S
C1520 C1521 1.382 . S
C1521 H1486 0.929 . S
C1521 C1516 1.371 . S
C1521 C1520 1.382 . S
C1522 N1490 1.423 . S
C1522 C1523 1.362 . S
C1522 C1527 1.388 . S
C1523 H1487 0.929 . S
C1523 C1522 1.362 . S
C1523 C1524 1.376 . S
C1524 H1488 0.931 . S
C1524 C1523 1.376 . S
C1524 C1525 1.396 . S
C1525 C1507 1.496 . S
C1525 C1524 1.396 . S
C1525 C1526 1.348 . S
C1526 H1489 0.929 . S
C1526 C1525 1.348 . S
C1526 C1527 1.443 . S
C1527 H1491 0.932 . S
C1527 C1522 1.388 . S
C1527 C1526 1.443 . S
H1528 C1555 0.929 . S
N1529 C1554 1.433 . S
N1529 C1560 1.435 . S
N1529 C1566 1.423 . S
H1530 C1556 0.930 . S
H1531 C1559 0.931 . S
H1532 C1558 0.929 . S
H1533 C1561 0.930 . S
H1534 C1562 0.932 . S
H1535 C1565 0.929 . S
H1536 C1564 0.931 . S
H1537 C1567 0.929 . S
H1538 C1571 0.932 . S
H1539 C1568 0.931 . S
H1540 C1570 0.929 . S
H1541 C1573 0.929 . S
H1542 C1574 0.930 . S
H1543 C1576 0.929 . S
H1544 C1577 0.931 . S
H1545 C1579 0.930 . S
H1546 C1580 0.932 . S
H1547 C1582 0.931 . S
H1548 C1583 0.929 . S
H1549 C1585 0.929 . S
H1550 C1586 0.931 . S
H1551 C1588 0.929 . S
N1552 C1572 1.433 . S
N1552 C1578 1.435 . S
N1552 C1584 1.423 . S
H1553 C1589 0.932 . S
C1554 N1529 1.433 . S
C1554 C1555 1.363 . S
C1554 C1559 1.370 . S
C1555 H1528 0.929 . S
C1555 C1554 1.363 . S
C1555 C1556 1.385 . S
C1556 H1530 0.930 . S
C1556 C1555 1.385 . S
C1556 C1557 1.357 . S
C1557 C1556 1.357 . S
C1557 C1558 1.406 . S
C1558 H1532 0.929 . S
C1558 C1557 1.406 . S
C1558 C1559 1.391 . S
C1559 H1531 0.931 . S
C1559 C1554 1.370 . S
C1559 C1558 1.391 . S
C1560 N1529 1.435 . S
C1560 C1561 1.358 . S
C1560 C1565 1.371 . S
C1561 H1533 0.930 . S
C1561 C1560 1.358 . S
C1561 C1562 1.405 . S
C1562 H1534 0.932 . S
C1562 C1561 1.405 . S
C1562 C1563 1.383 . S
C1563 C1562 1.383 . S
C1563 C1564 1.393 . S
C1564 H1536 0.931 . S
C1564 C1563 1.393 . S
C1564 C1565 1.382 . S
C1565 H1535 0.929 . S
C1565 C1560 1.371 . S
C1565 C1564 1.382 . S
C1566 N1529 1.423 . S
C1566 C1567 1.362 . S
C1566 C1571 1.388 . S
C1567 H1537 0.929 . S
C1567 C1566 1.362 . S
C1567 C1568 1.376 . S
C1568 H1539 0.931 . S
C1568 C1567 1.376 . S
C1568 C1569 1.420 . S
C1569 C1568 1.420 . S
C1569 C1570 1.374 . S
C1569 C1587 1.426 1_655 S
C1570 H1540 0.929 . S
C1570 C1569 1.374 . S
C1570 C1571 1.443 . S
C1571 H1538 0.932 . S
C1571 C1566 1.388 . S
C1571 C1570 1.443 . S
C1572 N1552 1.433 . S
C1572 C1573 1.363 . S
C1572 C1577 1.370 . S
C1573 H1541 0.929 . S
C1573 C1572 1.363 . S
C1573 C1574 1.385 . S
C1574 H1542 0.930 . S
C1574 C1573 1.385 . S
C1574 C1575 1.357 . S
C1575 C1574 1.357 . S
C1575 C1576 1.406 . S
C1576 H1543 0.929 . S
C1576 C1575 1.406 . S
C1576 C1577 1.391 . S
C1577 H1544 0.931 . S
C1577 C1572 1.370 . S
C1577 C1576 1.391 . S
C1578 N1552 1.435 . S
C1578 C1579 1.358 . S
C1578 C1583 1.371 . S
C1579 H1545 0.930 . S
C1579 C1578 1.358 . S
C1579 C1580 1.405 . S
C1580 H1546 0.932 . S
C1580 C1579 1.405 . S
C1580 C1581 1.383 . S
C1581 C1580 1.383 . S
C1581 C1582 1.393 . S
C1582 H1547 0.931 . S
C1582 C1581 1.393 . S
C1582 C1583 1.382 . S
C1583 H1548 0.929 . S
C1583 C1578 1.371 . S
C1583 C1582 1.382 . S
C1584 N1552 1.423 . S
C1584 C1585 1.362 . S
C1584 C1589 1.388 . S
C1585 H1549 0.929 . S
C1585 C1584 1.362 . S
C1585 C1586 1.376 . S
C1586 H1550 0.931 . S
C1586 C1585 1.376 . S
C1586 C1587 1.396 . S
C1587 C1569 1.426 1_455 S
C1587 C1586 1.396 . S
C1587 C1588 1.348 . S
C1588 H1551 0.929 . S
C1588 C1587 1.348 . S
C1588 C1589 1.443 . S
C1589 H1553 0.932 . S
C1589 C1584 1.388 . S
C1589 C1588 1.443 . S
H1590 C1617 0.929 . S
N1591 C1616 1.433 . S
N1591 C1622 1.435 . S
N1591 C1628 1.423 . S
H1592 C1618 0.930 . S
H1593 C1621 0.931 . S
H1594 C1620 0.929 . S
H1595 C1623 0.930 . S
H1596 C1624 0.932 . S
H1597 C1627 0.929 . S
H1598 C1626 0.931 . S
H1599 C1629 0.929 . S
H1600 C1633 0.932 . S
H1601 C1630 0.931 . S
H1602 C1632 0.929 . S
H1603 C1635 0.929 . S
H1604 C1636 0.930 . S
H1605 C1638 0.929 . S
H1606 C1639 0.931 . S
H1607 C1641 0.930 . S
H1608 C1642 0.932 . S
H1609 C1644 0.931 . S
H1610 C1645 0.929 . S
H1611 C1647 0.929 . S
H1612 C1648 0.931 . S
H1613 C1650 0.929 . S
N1614 C1634 1.433 . S
N1614 C1640 1.435 . S
N1614 C1646 1.423 . S
H1615 C1651 0.932 . S
C1616 N1591 1.433 . S
C1616 C1617 1.363 . S
C1616 C1621 1.370 . S
C1617 H1590 0.929 . S
C1617 C1616 1.363 . S
C1617 C1618 1.385 . S
C1618 H1592 0.930 . S
C1618 C1617 1.385 . S
C1618 C1619 1.357 . S
C1619 C1618 1.357 . S
C1619 C1620 1.406 . S
C1620 H1594 0.929 . S
C1620 C1619 1.406 . S
C1620 C1621 1.391 . S
C1621 H1593 0.931 . S
C1621 C1616 1.370 . S
C1621 C1620 1.391 . S
C1622 N1591 1.435 . S
C1622 C1623 1.358 . S
C1622 C1627 1.371 . S
C1623 H1595 0.930 . S
C1623 C1622 1.358 . S
C1623 C1624 1.405 . S
C1624 H1596 0.932 . S
C1624 C1623 1.405 . S
C1624 C1625 1.383 . S
C1625 C1624 1.383 . S
C1625 C1626 1.393 . S
C1626 H1598 0.931 . S
C1626 C1625 1.393 . S
C1626 C1627 1.382 . S
C1627 H1597 0.929 . S
C1627 C1622 1.371 . S
C1627 C1626 1.382 . S
C1628 N1591 1.423 . S
C1628 C1629 1.362 . S
C1628 C1633 1.388 . S
C1629 H1599 0.929 . S
C1629 C1628 1.362 . S
C1629 C1630 1.376 . S
C1630 H1601 0.931 . S
C1630 C1629 1.376 . S
C1630 C1631 1.396 . S
C1631 C1630 1.396 . S
C1631 C1632 1.348 . S
C1631 C1649 1.472 1_545 S
C1632 H1602 0.929 . S
C1632 C1631 1.348 . S
C1632 C1633 1.443 . S
C1633 H1600 0.932 . S
C1633 C1628 1.388 . S
C1633 C1632 1.443 . S
C1634 N1614 1.433 . S
C1634 C1635 1.363 . S
C1634 C1639 1.370 . S
C1635 H1603 0.929 . S
C1635 C1634 1.363 . S
C1635 C1636 1.385 . S
C1636 H1604 0.930 . S
C1636 C1635 1.385 . S
C1636 C1637 1.357 . S
C1637 C1636 1.357 . S
C1637 C1638 1.406 . S
C1638 H1605 0.929 . S
C1638 C1637 1.406 . S
C1638 C1639 1.391 . S
C1639 H1606 0.931 . S
C1639 C1634 1.370 . S
C1639 C1638 1.391 . S
C1640 N1614 1.435 . S
C1640 C1641 1.358 . S
C1640 C1645 1.371 . S
C1641 H1607 0.930 . S
C1641 C1640 1.358 . S
C1641 C1642 1.405 . S
C1642 H1608 0.932 . S
C1642 C1641 1.405 . S
C1642 C1643 1.383 . S
C1643 C1642 1.383 . S
C1643 C1644 1.393 . S
C1644 H1609 0.931 . S
C1644 C1643 1.393 . S
C1644 C1645 1.382 . S
C1645 H1610 0.929 . S
C1645 C1640 1.371 . S
C1645 C1644 1.382 . S
C1646 N1614 1.423 . S
C1646 C1647 1.362 . S
C1646 C1651 1.388 . S
C1647 H1611 0.929 . S
C1647 C1646 1.362 . S
C1647 C1648 1.376 . S
C1648 H1612 0.931 . S
C1648 C1647 1.376 . S
C1648 C1649 1.396 . S
C1649 C1631 1.472 1_565 S
C1649 C1648 1.396 . S
C1649 C1650 1.348 . S
C1650 H1613 0.929 . S
C1650 C1649 1.348 . S
C1650 C1651 1.443 . S
C1651 H1615 0.932 . S
C1651 C1646 1.388 . S
C1651 C1650 1.443 . S
H1652 C1679 0.929 . S
N1653 C1678 1.433 . S
N1653 C1684 1.435 . S
N1653 C1690 1.423 . S
H1654 C1680 0.930 . S
H1655 C1683 0.931 . S
H1656 C1682 0.929 . S
H1657 C1685 0.930 . S
H1658 C1686 0.932 . S
H1659 C1689 0.929 . S
H1660 C1688 0.931 . S
H1661 C1691 0.929 . S
H1662 C1695 0.932 . S
H1663 C1692 0.931 . S
H1664 C1694 0.929 . S
H1665 C1697 0.929 . S
H1666 C1698 0.930 . S
H1667 C1700 0.929 . S
H1668 C1701 0.931 . S
H1669 C1703 0.930 . S
H1670 C1704 0.932 . S
H1671 C1706 0.931 . S
H1672 C1707 0.929 . S
H1673 C1709 0.929 . S
H1674 C1710 0.931 . S
H1675 C1712 0.929 . S
N1676 C1696 1.433 . S
N1676 C1702 1.435 . S
N1676 C1708 1.423 . S
H1677 C1713 0.932 . S
C1678 N1653 1.433 . S
C1678 C1679 1.363 . S
C1678 C1683 1.370 . S
C1679 H1652 0.929 . S
C1679 C1678 1.363 . S
C1679 C1680 1.385 . S
C1680 H1654 0.930 . S
C1680 C1679 1.385 . S
C1680 C1681 1.357 . S
C1681 C1680 1.357 . S
C1681 C1682 1.406 . S
C1682 H1656 0.929 . S
C1682 C1681 1.406 . S
C1682 C1683 1.391 . S
C1683 H1655 0.931 . S
C1683 C1678 1.370 . S
C1683 C1682 1.391 . S
C1684 N1653 1.435 . S
C1684 C1685 1.358 . S
C1684 C1689 1.371 . S
C1685 H1657 0.930 . S
C1685 C1684 1.358 . S
C1685 C1686 1.405 . S
C1686 H1658 0.932 . S
C1686 C1685 1.405 . S
C1686 C1687 1.383 . S
C1687 C1686 1.383 . S
C1687 C1688 1.393 . S
C1688 H1660 0.931 . S
C1688 C1687 1.393 . S
C1688 C1689 1.382 . S
C1689 H1659 0.929 . S
C1689 C1684 1.371 . S
C1689 C1688 1.382 . S
C1690 N1653 1.423 . S
C1690 C1691 1.362 . S
C1690 C1695 1.388 . S
C1691 H1661 0.929 . S
C1691 C1690 1.362 . S
C1691 C1692 1.376 . S
C1692 H1663 0.931 . S
C1692 C1691 1.376 . S
C1692 C1693 1.396 . S
C1693 C1692 1.396 . S
C1693 C1694 1.348 . S
C1693 C1711 1.424 1_455 S
C1694 H1664 0.929 . S
C1694 C1693 1.348 . S
C1694 C1695 1.443 . S
C1695 H1662 0.932 . S
C1695 C1690 1.388 . S
C1695 C1694 1.443 . S
C1696 N1676 1.433 . S
C1696 C1697 1.363 . S
C1696 C1701 1.370 . S
C1697 H1665 0.929 . S
C1697 C1696 1.363 . S
C1697 C1698 1.385 . S
C1698 H1666 0.930 . S
C1698 C1697 1.385 . S
C1698 C1699 1.357 . S
C1699 C1698 1.357 . S
C1699 C1700 1.406 . S
C1700 H1667 0.929 . S
C1700 C1699 1.406 . S
C1700 C1701 1.391 . S
C1701 H1668 0.931 . S
C1701 C1696 1.370 . S
C1701 C1700 1.391 . S
C1702 N1676 1.435 . S
C1702 C1703 1.358 . S
C1702 C1707 1.371 . S
C1703 H1669 0.930 . S
C1703 C1702 1.358 . S
C1703 C1704 1.405 . S
C1704 H1670 0.932 . S
C1704 C1703 1.405 . S
C1704 C1705 1.383 . S
C1705 C1704 1.383 . S
C1705 C1706 1.393 . S
C1706 H1671 0.931 . S
C1706 C1705 1.393 . S
C1706 C1707 1.382 . S
C1707 H1672 0.929 . S
C1707 C1702 1.371 . S
C1707 C1706 1.382 . S
C1708 N1676 1.423 . S
C1708 C1709 1.362 . S
C1708 C1713 1.388 . S
C1709 H1673 0.929 . S
C1709 C1708 1.362 . S
C1709 C1710 1.376 . S
C1710 H1674 0.931 . S
C1710 C1709 1.376 . S
C1710 C1711 1.424 . S
C1711 C1693 1.424 1_655 S
C1711 C1710 1.424 . S
C1711 C1712 1.373 . S
C1712 H1675 0.929 . S
C1712 C1711 1.373 . S
C1712 C1713 1.443 . S
C1713 H1677 0.932 . S
C1713 C1708 1.388 . S
C1713 C1712 1.443 . S
H1714 C1741 0.929 . S
N1715 C1740 1.433 . S
N1715 C1746 1.435 . S
N1715 C1752 1.423 . S
H1716 C1742 0.930 . S
H1717 C1745 0.931 . S
H1718 C1744 0.929 . S
H1719 C1747 0.930 . S
H1720 C1748 0.932 . S
H1721 C1751 0.929 . S
H1722 C1750 0.931 . S
H1723 C1753 0.929 . S
H1724 C1757 0.932 . S
H1725 C1754 0.931 . S
H1726 C1756 0.929 . S
H1727 C1759 0.929 . S
H1728 C1760 0.930 . S
H1729 C1762 0.929 . S
H1730 C1763 0.931 . S
H1731 C1765 0.930 . S
H1732 C1766 0.932 . S
H1733 C1768 0.931 . S
H1734 C1769 0.929 . S
H1735 C1771 0.929 . S
H1736 C1772 0.931 . S
H1737 C1774 0.929 . S
N1738 C1758 1.433 . S
N1738 C1764 1.435 . S
N1738 C1770 1.423 . S
H1739 C1775 0.932 . S
C1740 N1715 1.433 . S
C1740 C1741 1.363 . S
C1740 C1745 1.370 . S
C1741 H1714 0.929 . S
C1741 C1740 1.363 . S
C1741 C1742 1.385 . S
C1742 H1716 0.930 . S
C1742 C1741 1.385 . S
C1742 C1743 1.357 . S
C1743 C1742 1.357 . S
C1743 C1744 1.406 . S
C1744 H1718 0.929 . S
C1744 C1743 1.406 . S
C1744 C1745 1.391 . S
C1745 H1717 0.931 . S
C1745 C1740 1.370 . S
C1745 C1744 1.391 . S
C1746 N1715 1.435 . S
C1746 C1747 1.358 . S
C1746 C1751 1.371 . S
C1747 H1719 0.930 . S
C1747 C1746 1.358 . S
C1747 C1748 1.405 . S
C1748 H1720 0.932 . S
C1748 C1747 1.405 . S
C1748 C1749 1.383 . S
C1749 C1748 1.383 . S
C1749 C1750 1.393 . S
C1750 H1722 0.931 . S
C1750 C1749 1.393 . S
C1750 C1751 1.382 . S
C1751 H1721 0.929 . S
C1751 C1746 1.371 . S
C1751 C1750 1.382 . S
C1752 N1715 1.423 . S
C1752 C1753 1.362 . S
C1752 C1757 1.388 . S
C1753 H1723 0.929 . S
C1753 C1752 1.362 . S
C1753 C1754 1.376 . S
C1754 H1725 0.931 . S
C1754 C1753 1.376 . S
C1754 C1755 1.396 . S
C1755 C1754 1.396 . S
C1755 C1756 1.348 . S
C1755 C1773 1.472 1_565 S
C1756 H1726 0.929 . S
C1756 C1755 1.348 . S
C1756 C1757 1.443 . S
C1757 H1724 0.932 . S
C1757 C1752 1.388 . S
C1757 C1756 1.443 . S
C1758 N1738 1.433 . S
C1758 C1759 1.363 . S
C1758 C1763 1.370 . S
C1759 H1727 0.929 . S
C1759 C1758 1.363 . S
C1759 C1760 1.385 . S
C1760 H1728 0.930 . S
C1760 C1759 1.385 . S
C1760 C1761 1.357 . S
C1761 C1760 1.357 . S
C1761 C1762 1.406 . S
C1762 H1729 0.929 . S
C1762 C1761 1.406 . S
C1762 C1763 1.391 . S
C1763 H1730 0.931 . S
C1763 C1758 1.370 . S
C1763 C1762 1.391 . S
C1764 N1738 1.435 . S
C1764 C1765 1.358 . S
C1764 C1769 1.371 . S
C1765 H1731 0.930 . S
C1765 C1764 1.358 . S
C1765 C1766 1.405 . S
C1766 H1732 0.932 . S
C1766 C1765 1.405 . S
C1766 C1767 1.383 . S
C1767 C1766 1.383 . S
C1767 C1768 1.393 . S
C1768 H1733 0.931 . S
C1768 C1767 1.393 . S
C1768 C1769 1.382 . S
C1769 H1734 0.929 . S
C1769 C1764 1.371 . S
C1769 C1768 1.382 . S
C1770 N1738 1.423 . S
C1770 C1771 1.362 . S
C1770 C1775 1.388 . S
C1771 H1735 0.929 . S
C1771 C1770 1.362 . S
C1771 C1772 1.376 . S
C1772 H1736 0.931 . S
C1772 C1771 1.376 . S
C1772 C1773 1.396 . S
C1773 C1755 1.472 1_545 S
C1773 C1772 1.396 . S
C1773 C1774 1.348 . S
C1774 H1737 0.929 . S
C1774 C1773 1.348 . S
C1774 C1775 1.443 . S
C1775 H1739 0.932 . S
C1775 C1770 1.388 . S
C1775 C1774 1.443 . S
H1776 C1803 0.929 . S
N1777 C1802 1.433 . S
N1777 C1808 1.435 . S
N1777 C1814 1.423 . S
H1778 C1804 0.930 . S
H1779 C1807 0.931 . S
H1780 C1806 0.929 . S
H1781 C1809 0.930 . S
H1782 C1810 0.932 . S
H1783 C1813 0.929 . S
H1784 C1812 0.931 . S
H1785 C1815 0.929 . S
H1786 C1819 0.932 . S
H1787 C1816 0.931 . S
H1788 C1818 0.929 . S
H1789 C1821 0.929 . S
H1790 C1822 0.930 . S
H1791 C1824 0.929 . S
H1792 C1825 0.931 . S
H1793 C1827 0.930 . S
H1794 C1828 0.932 . S
H1795 C1830 0.931 . S
H1796 C1831 0.929 . S
H1797 C1833 0.929 . S
H1798 C1834 0.931 . S
H1799 C1836 0.929 . S
N1800 C1820 1.433 . S
N1800 C1826 1.435 . S
N1800 C1832 1.423 . S
H1801 C1837 0.932 . S
C1802 N1777 1.433 . S
C1802 C1803 1.363 . S
C1802 C1807 1.370 . S
C1803 H1776 0.929 . S
C1803 C1802 1.363 . S
C1803 C1804 1.385 . S
C1804 H1778 0.930 . S
C1804 C1803 1.385 . S
C1804 C1805 1.357 . S
C1805 C1804 1.357 . S
C1805 C1806 1.406 . S
C1806 H1780 0.929 . S
C1806 C1805 1.406 . S
C1806 C1807 1.391 . S
C1807 H1779 0.931 . S
C1807 C1802 1.370 . S
C1807 C1806 1.391 . S
C1808 N1777 1.435 . S
C1808 C1809 1.358 . S
C1808 C1813 1.371 . S
C1809 H1781 0.930 . S
C1809 C1808 1.358 . S
C1809 C1810 1.405 . S
C1810 H1782 0.932 . S
C1810 C1809 1.405 . S
C1810 C1811 1.383 . S
C1811 C1810 1.383 . S
C1811 C1812 1.393 . S
C1812 H1784 0.931 . S
C1812 C1811 1.393 . S
C1812 C1813 1.382 . S
C1813 H1783 0.929 . S
C1813 C1808 1.371 . S
C1813 C1812 1.382 . S
C1814 N1777 1.423 . S
C1814 C1815 1.362 . S
C1814 C1819 1.388 . S
C1815 H1785 0.929 . S
C1815 C1814 1.362 . S
C1815 C1816 1.376 . S
C1816 H1787 0.931 . S
C1816 C1815 1.376 . S
C1816 C1817 1.396 . S
C1817 C1816 1.396 . S
C1817 C1818 1.348 . S
C1817 C1835 1.493 . S
C1818 H1788 0.929 . S
C1818 C1817 1.348 . S
C1818 C1819 1.443 . S
C1819 H1786 0.932 . S
C1819 C1814 1.388 . S
C1819 C1818 1.443 . S
C1820 N1800 1.433 . S
C1820 C1821 1.363 . S
C1820 C1825 1.370 . S
C1821 H1789 0.929 . S
C1821 C1820 1.363 . S
C1821 C1822 1.385 . S
C1822 H1790 0.930 . S
C1822 C1821 1.385 . S
C1822 C1823 1.357 . S
C1823 C1822 1.357 . S
C1823 C1824 1.406 . S
C1824 H1791 0.929 . S
C1824 C1823 1.406 . S
C1824 C1825 1.391 . S
C1825 H1792 0.931 . S
C1825 C1820 1.370 . S
C1825 C1824 1.391 . S
C1826 N1800 1.435 . S
C1826 C1827 1.358 . S
C1826 C1831 1.371 . S
C1827 H1793 0.930 . S
C1827 C1826 1.358 . S
C1827 C1828 1.405 . S
C1828 H1794 0.932 . S
C1828 C1827 1.405 . S
C1828 C1829 1.383 . S
C1829 C1828 1.383 . S
C1829 C1830 1.393 . S
C1830 H1795 0.931 . S
C1830 C1829 1.393 . S
C1830 C1831 1.382 . S
C1831 H1796 0.929 . S
C1831 C1826 1.371 . S
C1831 C1830 1.382 . S
C1832 N1800 1.423 . S
C1832 C1833 1.362 . S
C1832 C1837 1.388 . S
C1833 H1797 0.929 . S
C1833 C1832 1.362 . S
C1833 C1834 1.376 . S
C1834 H1798 0.931 . S
C1834 C1833 1.376 . S
C1834 C1835 1.384 1_655 S
C1835 C1817 1.493 . S
C1835 C1834 1.384 1_455 S
C1835 C1836 1.338 1_455 S
C1836 H1799 0.929 . S
C1836 C1835 1.338 1_655 S
C1836 C1837 1.443 . S
C1837 H1801 0.932 . S
C1837 C1832 1.388 . S
C1837 C1836 1.443 . S
H1838 C1865 0.929 . S
N1839 C1864 1.433 . S
N1839 C1870 1.435 . S
N1839 C1876 1.423 . S
H1840 C1866 0.930 . S
H1841 C1869 0.931 . S
H1842 C1868 0.929 . S
H1843 C1871 0.930 . S
H1844 C1872 0.932 . S
H1845 C1875 0.929 . S
H1846 C1874 0.931 . S
H1847 C1877 0.929 . S
H1848 C1881 0.932 . S
H1849 C1878 0.931 . S
H1850 C1880 0.929 . S
H1851 C1883 0.929 . S
H1852 C1884 0.930 . S
H1853 C1886 0.929 . S
H1854 C1887 0.931 . S
H1855 C1889 0.930 . S
H1856 C1890 0.932 . S
H1857 C1892 0.931 . S
H1858 C1893 0.929 . S
H1859 C1895 0.929 . S
H1860 C1896 0.931 . S
H1861 C1898 0.929 . S
N1862 C1882 1.433 . S
N1862 C1888 1.435 . S
N1862 C1894 1.423 . S
H1863 C1899 0.932 . S
C1864 N1839 1.433 . S
C1864 C1865 1.363 . S
C1864 C1869 1.370 . S
C1865 H1838 0.929 . S
C1865 C1864 1.363 . S
C1865 C1866 1.385 . S
C1866 H1840 0.930 . S
C1866 C1865 1.385 . S
C1866 C1867 1.357 . S
C1867 C1866 1.357 . S
C1867 C1868 1.406 . S
C1868 H1842 0.929 . S
C1868 C1867 1.406 . S
C1868 C1869 1.391 . S
C1869 H1841 0.931 . S
C1869 C1864 1.370 . S
C1869 C1868 1.391 . S
C1870 N1839 1.435 . S
C1870 C1871 1.358 . S
C1870 C1875 1.371 . S
C1871 H1843 0.930 . S
C1871 C1870 1.358 . S
C1871 C1872 1.405 . S
C1872 H1844 0.932 . S
C1872 C1871 1.405 . S
C1872 C1873 1.383 . S
C1873 C1872 1.383 . S
C1873 C1874 1.393 . S
C1874 H1846 0.931 . S
C1874 C1873 1.393 . S
C1874 C1875 1.382 . S
C1875 H1845 0.929 . S
C1875 C1870 1.371 . S
C1875 C1874 1.382 . S
C1876 N1839 1.423 . S
C1876 C1877 1.362 . S
C1876 C1881 1.388 . S
C1877 H1847 0.929 . S
C1877 C1876 1.362 . S
C1877 C1878 1.376 . S
C1878 H1849 0.931 . S
C1878 C1877 1.376 . S
C1878 C1879 1.396 . S
C1879 C1878 1.396 . S
C1879 C1880 1.348 . S
C1879 C1897 1.472 1_545 S
C1880 H1850 0.929 . S
C1880 C1879 1.348 . S
C1880 C1881 1.443 . S
C1881 H1848 0.932 . S
C1881 C1876 1.388 . S
C1881 C1880 1.443 . S
C1882 N1862 1.433 . S
C1882 C1883 1.363 . S
C1882 C1887 1.370 . S
C1883 H1851 0.929 . S
C1883 C1882 1.363 . S
C1883 C1884 1.385 . S
C1884 H1852 0.930 . S
C1884 C1883 1.385 . S
C1884 C1885 1.357 . S
C1885 C1884 1.357 . S
C1885 C1886 1.406 . S
C1886 H1853 0.929 . S
C1886 C1885 1.406 . S
C1886 C1887 1.391 . S
C1887 H1854 0.931 . S
C1887 C1882 1.370 . S
C1887 C1886 1.391 . S
C1888 N1862 1.435 . S
C1888 C1889 1.358 . S
C1888 C1893 1.371 . S
C1889 H1855 0.930 . S
C1889 C1888 1.358 . S
C1889 C1890 1.405 . S
C1890 H1856 0.932 . S
C1890 C1889 1.405 . S
C1890 C1891 1.383 . S
C1891 C1890 1.383 . S
C1891 C1892 1.393 . S
C1892 H1857 0.931 . S
C1892 C1891 1.393 . S
C1892 C1893 1.382 . S
C1893 H1858 0.929 . S
C1893 C1888 1.371 . S
C1893 C1892 1.382 . S
C1894 N1862 1.423 . S
C1894 C1895 1.362 . S
C1894 C1899 1.388 . S
C1895 H1859 0.929 . S
C1895 C1894 1.362 . S
C1895 C1896 1.376 . S
C1896 H1860 0.931 . S
C1896 C1895 1.376 . S
C1896 C1897 1.396 . S
C1897 C1879 1.472 1_565 S
C1897 C1896 1.396 . S
C1897 C1898 1.348 . S
C1898 H1861 0.929 . S
C1898 C1897 1.348 . S
C1898 C1899 1.443 . S
C1899 H1863 0.932 . S
C1899 C1894 1.388 . S
C1899 C1898 1.443 . S
H1900 C1927 0.929 . S
N1901 C1926 1.433 . S
N1901 C1932 1.435 . S
N1901 C1938 1.423 . S
H1902 C1928 0.930 . S
H1903 C1931 0.931 . S
H1904 C1930 0.929 . S
H1905 C1933 0.930 . S
H1906 C1934 0.932 . S
H1907 C1937 0.929 . S
H1908 C1936 0.931 . S
H1909 C1939 0.929 . S
H1910 C1943 0.932 . S
H1911 C1940 0.931 . S
H1912 C1942 0.929 . S
H1913 C1945 0.929 . S
H1914 C1946 0.930 . S
H1915 C1948 0.929 . S
H1916 C1949 0.931 . S
H1917 C1951 0.930 . S
H1918 C1952 0.932 . S
H1919 C1954 0.931 . S
H1920 C1955 0.929 . S
H1921 C1957 0.929 . S
H1922 C1958 0.931 . S
H1923 C1960 0.929 . S
N1924 C1944 1.433 . S
N1924 C1950 1.435 . S
N1924 C1956 1.423 . S
H1925 C1961 0.932 . S
C1926 N1901 1.433 . S
C1926 C1927 1.363 . S
C1926 C1931 1.370 . S
C1927 H1900 0.929 . S
C1927 C1926 1.363 . S
C1927 C1928 1.385 . S
C1928 H1902 0.930 . S
C1928 C1927 1.385 . S
C1928 C1929 1.357 . S
C1929 C1928 1.357 . S
C1929 C1930 1.406 . S
C1930 H1904 0.929 . S
C1930 C1929 1.406 . S
C1930 C1931 1.391 . S
C1931 H1903 0.931 . S
C1931 C1926 1.370 . S
C1931 C1930 1.391 . S
C1932 N1901 1.435 . S
C1932 C1933 1.358 . S
C1932 C1937 1.371 . S
C1933 H1905 0.930 . S
C1933 C1932 1.358 . S
C1933 C1934 1.405 . S
C1934 H1906 0.932 . S
C1934 C1933 1.405 . S
C1934 C1935 1.383 . S
C1935 C1934 1.383 . S
C1935 C1936 1.393 . S
C1936 H1908 0.931 . S
C1936 C1935 1.393 . S
C1936 C1937 1.382 . S
C1937 H1907 0.929 . S
C1937 C1932 1.371 . S
C1937 C1936 1.382 . S
C1938 N1901 1.423 . S
C1938 C1939 1.362 . S
C1938 C1943 1.388 . S
C1939 H1909 0.929 . S
C1939 C1938 1.362 . S
C1939 C1940 1.376 . S
C1940 H1911 0.931 . S
C1940 C1939 1.376 . S
C1940 C1941 1.396 . S
C1941 C1940 1.396 . S
C1941 C1942 1.348 . S
C1941 C1959 1.472 1_655 S
C1942 H1912 0.929 . S
C1942 C1941 1.348 . S
C1942 C1943 1.443 . S
C1943 H1910 0.932 . S
C1943 C1938 1.388 . S
C1943 C1942 1.443 . S
C1944 N1924 1.433 . S
C1944 C1945 1.363 . S
C1944 C1949 1.370 . S
C1945 H1913 0.929 . S
C1945 C1944 1.363 . S
C1945 C1946 1.385 . S
C1946 H1914 0.930 . S
C1946 C1945 1.385 . S
C1946 C1947 1.357 . S
C1947 C1946 1.357 . S
C1947 C1948 1.406 . S
C1948 H1915 0.929 . S
C1948 C1947 1.406 . S
C1948 C1949 1.391 . S
C1949 H1916 0.931 . S
C1949 C1944 1.370 . S
C1949 C1948 1.391 . S
C1950 N1924 1.435 . S
C1950 C1951 1.358 . S
C1950 C1955 1.371 . S
C1951 H1917 0.930 . S
C1951 C1950 1.358 . S
C1951 C1952 1.405 . S
C1952 H1918 0.932 . S
C1952 C1951 1.405 . S
C1952 C1953 1.383 . S
C1953 C1952 1.383 . S
C1953 C1954 1.393 . S
C1954 H1919 0.931 . S
C1954 C1953 1.393 . S
C1954 C1955 1.382 . S
C1955 H1920 0.929 . S
C1955 C1950 1.371 . S
C1955 C1954 1.382 . S
C1956 N1924 1.423 . S
C1956 C1957 1.362 . S
C1956 C1961 1.388 . S
C1957 H1921 0.929 . S
C1957 C1956 1.362 . S
C1957 C1958 1.376 . S
C1958 H1922 0.931 . S
C1958 C1957 1.376 . S
C1958 C1959 1.396 . S
C1959 C1941 1.472 1_455 S
C1959 C1958 1.396 . S
C1959 C1960 1.348 . S
C1960 H1923 0.929 . S
C1960 C1959 1.348 . S
C1960 C1961 1.443 . S
C1961 H1925 0.932 . S
C1961 C1956 1.388 . S
C1961 C1960 1.443 . S
H1962 C1989 0.929 . S
N1963 C1988 1.433 . S
N1963 C1994 1.435 . S
N1963 C2000 1.423 . S
H1964 C1990 0.930 . S
H1965 C1993 0.931 . S
H1966 C1992 0.929 . S
H1967 C1995 0.930 . S
H1968 C1996 0.932 . S
H1969 C1999 0.929 . S
H1970 C1998 0.931 . S
H1971 C2001 0.929 . S
H1972 C2005 0.932 . S
H1973 C2002 0.931 . S
H1974 C2004 0.929 . S
H1975 C2007 0.929 . S
H1976 C2008 0.930 . S
H1977 C2010 0.929 . S
H1978 C2011 0.931 . S
H1979 C2013 0.930 . S
H1980 C2014 0.932 . S
H1981 C2016 0.931 . S
H1982 C2017 0.929 . S
H1983 C2019 0.929 . S
H1984 C2020 0.931 . S
H1985 C2022 0.929 . S
N1986 C2006 1.433 . S
N1986 C2012 1.435 . S
N1986 C2018 1.423 . S
H1987 C2023 0.932 . S
C1988 N1963 1.433 . S
C1988 C1989 1.363 . S
C1988 C1993 1.370 . S
C1989 H1962 0.929 . S
C1989 C1988 1.363 . S
C1989 C1990 1.385 . S
C1990 H1964 0.930 . S
C1990 C1989 1.385 . S
C1990 C1991 1.357 . S
C1991 C1990 1.357 . S
C1991 C1992 1.406 . S
C1992 H1966 0.929 . S
C1992 C1991 1.406 . S
C1992 C1993 1.391 . S
C1993 H1965 0.931 . S
C1993 C1988 1.370 . S
C1993 C1992 1.391 . S
C1994 N1963 1.435 . S
C1994 C1995 1.358 . S
C1994 C1999 1.371 . S
C1995 H1967 0.930 . S
C1995 C1994 1.358 . S
C1995 C1996 1.405 . S
C1996 H1968 0.932 . S
C1996 C1995 1.405 . S
C1996 C1997 1.383 . S
C1997 C1996 1.383 . S
C1997 C1998 1.393 . S
C1998 H1970 0.931 . S
C1998 C1997 1.393 . S
C1998 C1999 1.382 . S
C1999 H1969 0.929 . S
C1999 C1994 1.371 . S
C1999 C1998 1.382 . S
C2000 N1963 1.423 . S
C2000 C2001 1.362 . S
C2000 C2005 1.388 . S
C2001 H1971 0.929 . S
C2001 C2000 1.362 . S
C2001 C2002 1.376 . S
C2002 H1973 0.931 . S
C2002 C2001 1.376 . S
C2002 C2003 1.396 . S
C2003 C2002 1.396 . S
C2003 C2004 1.348 . S
C2003 C2021 1.472 1_565 S
C2004 H1974 0.929 . S
C2004 C2003 1.348 . S
C2004 C2005 1.443 . S
C2005 H1972 0.932 . S
C2005 C2000 1.388 . S
C2005 C2004 1.443 . S
C2006 N1986 1.433 . S
C2006 C2007 1.363 . S
C2006 C2011 1.370 . S
C2007 H1975 0.929 . S
C2007 C2006 1.363 . S
C2007 C2008 1.385 . S
C2008 H1976 0.930 . S
C2008 C2007 1.385 . S
C2008 C2009 1.357 . S
C2009 C2008 1.357 . S
C2009 C2010 1.406 . S
C2010 H1977 0.929 . S
C2010 C2009 1.406 . S
C2010 C2011 1.391 . S
C2011 H1978 0.931 . S
C2011 C2006 1.370 . S
C2011 C2010 1.391 . S
C2012 N1986 1.435 . S
C2012 C2013 1.358 . S
C2012 C2017 1.371 . S
C2013 H1979 0.930 . S
C2013 C2012 1.358 . S
C2013 C2014 1.405 . S
C2014 H1980 0.932 . S
C2014 C2013 1.405 . S
C2014 C2015 1.383 . S
C2015 C2014 1.383 . S
C2015 C2016 1.393 . S
C2016 H1981 0.931 . S
C2016 C2015 1.393 . S
C2016 C2017 1.382 . S
C2017 H1982 0.929 . S
C2017 C2012 1.371 . S
C2017 C2016 1.382 . S
C2018 N1986 1.423 . S
C2018 C2019 1.362 . S
C2018 C2023 1.388 . S
C2019 H1983 0.929 . S
C2019 C2018 1.362 . S
C2019 C2020 1.376 . S
C2020 H1984 0.931 . S
C2020 C2019 1.376 . S
C2020 C2021 1.396 . S
C2021 C2003 1.472 1_545 S
C2021 C2020 1.396 . S
C2021 C2022 1.348 . S
C2022 H1985 0.929 . S
C2022 C2021 1.348 . S
C2022 C2023 1.443 . S
C2023 H1987 0.932 . S
C2023 C2018 1.388 . S
C2023 C2022 1.443 . S
H2024 C2051 0.929 . S
N2025 C2050 1.433 . S
N2025 C2056 1.435 . S
N2025 C2062 1.423 . S
H2026 C2052 0.930 . S
H2027 C2055 0.931 . S
H2028 C2054 0.929 . S
H2029 C2057 0.930 . S
H2030 C2058 0.932 . S
H2031 C2061 0.929 . S
H2032 C2060 0.931 . S
H2033 C2063 0.929 . S
H2034 C2067 0.932 . S
H2035 C2064 0.931 . S
H2036 C2066 0.929 . S
H2037 C2069 0.929 . S
H2038 C2070 0.930 . S
H2039 C2072 0.929 . S
H2040 C2073 0.931 . S
H2041 C2075 0.930 . S
H2042 C2076 0.932 . S
H2043 C2078 0.931 . S
H2044 C2079 0.929 . S
H2045 C2081 0.929 . S
H2046 C2082 0.931 . S
H2047 C2084 0.929 . S
N2048 C2068 1.433 . S
N2048 C2074 1.435 . S
N2048 C2080 1.423 . S
H2049 C2085 0.932 . S
C2050 N2025 1.433 . S
C2050 C2051 1.363 . S
C2050 C2055 1.370 . S
C2051 H2024 0.929 . S
C2051 C2050 1.363 . S
C2051 C2052 1.385 . S
C2052 H2026 0.930 . S
C2052 C2051 1.385 . S
C2052 C2053 1.357 . S
C2053 C2052 1.357 . S
C2053 C2054 1.406 . S
C2054 H2028 0.929 . S
C2054 C2053 1.406 . S
C2054 C2055 1.391 . S
C2055 H2027 0.931 . S
C2055 C2050 1.370 . S
C2055 C2054 1.391 . S
C2056 N2025 1.435 . S
C2056 C2057 1.358 . S
C2056 C2061 1.371 . S
C2057 H2029 0.930 . S
C2057 C2056 1.358 . S
C2057 C2058 1.405 . S
C2058 H2030 0.932 . S
C2058 C2057 1.405 . S
C2058 C2059 1.383 . S
C2059 C2058 1.383 . S
C2059 C2060 1.393 . S
C2060 H2032 0.931 . S
C2060 C2059 1.393 . S
C2060 C2061 1.382 . S
C2061 H2031 0.929 . S
C2061 C2056 1.371 . S
C2061 C2060 1.382 . S
C2062 N2025 1.423 . S
C2062 C2063 1.362 . S
C2062 C2067 1.388 . S
C2063 H2033 0.929 . S
C2063 C2062 1.362 . S
C2063 C2064 1.376 . S
C2064 H2035 0.931 . S
C2064 C2063 1.376 . S
C2064 C2065 1.396 . S
C2065 C2064 1.396 . S
C2065 C2066 1.348 . S
C2065 C2083 1.472 . S
C2066 H2036 0.929 . S
C2066 C2065 1.348 . S
C2066 C2067 1.443 . S
C2067 H2034 0.932 . S
C2067 C2062 1.388 . S
C2067 C2066 1.443 . S
C2068 N2048 1.433 . S
C2068 C2069 1.363 . S
C2068 C2073 1.370 . S
C2069 H2037 0.929 . S
C2069 C2068 1.363 . S
C2069 C2070 1.385 . S
C2070 H2038 0.930 . S
C2070 C2069 1.385 . S
C2070 C2071 1.357 . S
C2071 C2070 1.357 . S
C2071 C2072 1.406 . S
C2072 H2039 0.929 . S
C2072 C2071 1.406 . S
C2072 C2073 1.391 . S
C2073 H2040 0.931 . S
C2073 C2068 1.370 . S
C2073 C2072 1.391 . S
C2074 N2048 1.435 . S
C2074 C2075 1.358 . S
C2074 C2079 1.371 . S
C2075 H2041 0.930 . S
C2075 C2074 1.358 . S
C2075 C2076 1.405 . S
C2076 H2042 0.932 . S
C2076 C2075 1.405 . S
C2076 C2077 1.383 . S
C2077 C2076 1.383 . S
C2077 C2078 1.393 . S
C2078 H2043 0.931 . S
C2078 C2077 1.393 . S
C2078 C2079 1.382 . S
C2079 H2044 0.929 . S
C2079 C2074 1.371 . S
C2079 C2078 1.382 . S
C2080 N2048 1.423 . S
C2080 C2081 1.362 . S
C2080 C2085 1.388 . S
C2081 H2045 0.929 . S
C2081 C2080 1.362 . S
C2081 C2082 1.376 . S
C2082 H2046 0.931 . S
C2082 C2081 1.376 . S
C2082 C2083 1.396 . S
C2083 C2065 1.472 . S
C2083 C2082 1.396 . S
C2083 C2084 1.348 . S
C2084 H2047 0.929 . S
C2084 C2083 1.348 . S
C2084 C2085 1.443 . S
C2085 H2049 0.932 . S
C2085 C2080 1.388 . S
C2085 C2084 1.443 . S
H2086 C2113 0.929 . S
N2087 C2112 1.433 . S
N2087 C2118 1.435 . S
N2087 C2124 1.423 . S
H2088 C2114 0.930 . S
H2089 C2117 0.931 . S
H2090 C2116 0.929 . S
H2091 C2119 0.930 . S
H2092 C2120 0.932 . S
H2093 C2123 0.929 . S
H2094 C2122 0.931 . S
H2095 C2125 0.929 . S
H2096 C2129 0.932 . S
H2097 C2126 0.931 . S
H2098 C2128 0.929 . S
H2099 C2131 0.929 . S
H2100 C2132 0.930 . S
H2101 C2134 0.929 . S
H2102 C2135 0.931 . S
H2103 C2137 0.930 . S
H2104 C2138 0.932 . S
H2105 C2140 0.931 . S
H2106 C2141 0.929 . S
H2107 C2143 0.929 . S
H2108 C2144 0.931 . S
H2109 C2146 0.929 . S
N2110 C2130 1.433 . S
N2110 C2136 1.435 . S
N2110 C2142 1.423 . S
H2111 C2147 0.932 . S
C2112 N2087 1.433 . S
C2112 C2113 1.363 . S
C2112 C2117 1.370 . S
C2113 H2086 0.929 . S
C2113 C2112 1.363 . S
C2113 C2114 1.385 . S
C2114 H2088 0.930 . S
C2114 C2113 1.385 . S
C2114 C2115 1.357 . S
C2115 C2114 1.357 . S
C2115 C2116 1.406 . S
C2116 H2090 0.929 . S
C2116 C2115 1.406 . S
C2116 C2117 1.391 . S
C2117 H2089 0.931 . S
C2117 C2112 1.370 . S
C2117 C2116 1.391 . S
C2118 N2087 1.435 . S
C2118 C2119 1.358 . S
C2118 C2123 1.371 . S
C2119 H2091 0.930 . S
C2119 C2118 1.358 . S
C2119 C2120 1.405 . S
C2120 H2092 0.932 . S
C2120 C2119 1.405 . S
C2120 C2121 1.383 . S
C2121 C2120 1.383 . S
C2121 C2122 1.393 . S
C2122 H2094 0.931 . S
C2122 C2121 1.393 . S
C2122 C2123 1.382 . S
C2123 H2093 0.929 . S
C2123 C2118 1.371 . S
C2123 C2122 1.382 . S
C2124 N2087 1.423 . S
C2124 C2125 1.362 . S
C2124 C2129 1.388 . S
C2125 H2095 0.929 . S
C2125 C2124 1.362 . S
C2125 C2126 1.376 . S
C2126 H2097 0.931 . S
C2126 C2125 1.376 . S
C2126 C2127 1.396 . S
C2127 C2126 1.396 . S
C2127 C2128 1.348 . S
C2127 C2145 1.472 . S
C2128 H2098 0.929 . S
C2128 C2127 1.348 . S
C2128 C2129 1.443 . S
C2129 H2096 0.932 . S
C2129 C2124 1.388 . S
C2129 C2128 1.443 . S
C2130 N2110 1.433 . S
C2130 C2131 1.363 . S
C2130 C2135 1.370 . S
C2131 H2099 0.929 . S
C2131 C2130 1.363 . S
C2131 C2132 1.385 . S
C2132 H2100 0.930 . S
C2132 C2131 1.385 . S
C2132 C2133 1.357 . S
C2133 C2132 1.357 . S
C2133 C2134 1.406 . S
C2134 H2101 0.929 . S
C2134 C2133 1.406 . S
C2134 C2135 1.391 . S
C2135 H2102 0.931 . S
C2135 C2130 1.370 . S
C2135 C2134 1.391 . S
C2136 N2110 1.435 . S
C2136 C2137 1.358 . S
C2136 C2141 1.371 . S
C2137 H2103 0.930 . S
C2137 C2136 1.358 . S
C2137 C2138 1.405 . S
C2138 H2104 0.932 . S
C2138 C2137 1.405 . S
C2138 C2139 1.383 . S
C2139 C2138 1.383 . S
C2139 C2140 1.393 . S
C2140 H2105 0.931 . S
C2140 C2139 1.393 . S
C2140 C2141 1.382 . S
C2141 H2106 0.929 . S
C2141 C2136 1.371 . S
C2141 C2140 1.382 . S
C2142 N2110 1.423 . S
C2142 C2143 1.362 . S
C2142 C2147 1.388 . S
C2143 H2107 0.929 . S
C2143 C2142 1.362 . S
C2143 C2144 1.376 . S
C2144 H2108 0.931 . S
C2144 C2143 1.376 . S
C2144 C2145 1.396 . S
C2145 C2127 1.472 . S
C2145 C2144 1.396 . S
C2145 C2146 1.348 . S
C2146 H2109 0.929 . S
C2146 C2145 1.348 . S
C2146 C2147 1.443 . S
C2147 H2111 0.932 . S
C2147 C2142 1.388 . S
C2147 C2146 1.443 . S
H2148 C2175 0.929 . S
N2149 C2174 1.433 . S
N2149 C2180 1.435 . S
N2149 C2186 1.423 . S
H2150 C2176 0.930 . S
H2151 C2179 0.931 . S
H2152 C2178 0.929 . S
H2153 C2181 0.930 . S
H2154 C2182 0.932 . S
H2155 C2185 0.929 . S
H2156 C2184 0.931 . S
H2157 C2187 0.929 . S
H2158 C2191 0.932 . S
H2159 C2188 0.931 . S
H2160 C2190 0.929 . S
H2161 C2193 0.929 . S
H2162 C2194 0.930 . S
H2163 C2196 0.929 . S
H2164 C2197 0.931 . S
H2165 C2199 0.930 . S
H2166 C2200 0.932 . S
H2167 C2202 0.931 . S
H2168 C2203 0.929 . S
H2169 C2205 0.929 . S
H2170 C2206 0.931 . S
H2171 C2208 0.929 . S
N2172 C2192 1.433 . S
N2172 C2198 1.435 . S
N2172 C2204 1.423 . S
H2173 C2209 0.932 . S
C2174 N2149 1.433 . S
C2174 C2175 1.363 . S
C2174 C2179 1.370 . S
C2175 H2148 0.929 . S
C2175 C2174 1.363 . S
C2175 C2176 1.385 . S
C2176 H2150 0.930 . S
C2176 C2175 1.385 . S
C2176 C2177 1.357 . S
C2177 C2176 1.357 . S
C2177 C2178 1.406 . S
C2178 H2152 0.929 . S
C2178 C2177 1.406 . S
C2178 C2179 1.391 . S
C2179 H2151 0.931 . S
C2179 C2174 1.370 . S
C2179 C2178 1.391 . S
C2180 N2149 1.435 . S
C2180 C2181 1.358 . S
C2180 C2185 1.371 . S
C2181 H2153 0.930 . S
C2181 C2180 1.358 . S
C2181 C2182 1.405 . S
C2182 H2154 0.932 . S
C2182 C2181 1.405 . S
C2182 C2183 1.383 . S
C2183 C2182 1.383 . S
C2183 C2184 1.393 . S
C2184 H2156 0.931 . S
C2184 C2183 1.393 . S
C2184 C2185 1.382 . S
C2185 H2155 0.929 . S
C2185 C2180 1.371 . S
C2185 C2184 1.382 . S
C2186 N2149 1.423 . S
C2186 C2187 1.362 . S
C2186 C2191 1.388 . S
C2187 H2157 0.929 . S
C2187 C2186 1.362 . S
C2187 C2188 1.376 . S
C2188 H2159 0.931 . S
C2188 C2187 1.376 . S
C2188 C2189 1.396 . S
C2189 C2188 1.396 . S
C2189 C2190 1.348 . S
C2189 C2207 1.472 . S
C2190 H2160 0.929 . S
C2190 C2189 1.348 . S
C2190 C2191 1.443 . S
C2191 H2158 0.932 . S
C2191 C2186 1.388 . S
C2191 C2190 1.443 . S
C2192 N2172 1.433 . S
C2192 C2193 1.363 . S
C2192 C2197 1.370 . S
C2193 H2161 0.929 . S
C2193 C2192 1.363 . S
C2193 C2194 1.385 . S
C2194 H2162 0.930 . S
C2194 C2193 1.385 . S
C2194 C2195 1.357 . S
C2195 C2194 1.357 . S
C2195 C2196 1.406 . S
C2196 H2163 0.929 . S
C2196 C2195 1.406 . S
C2196 C2197 1.391 . S
C2197 H2164 0.931 . S
C2197 C2192 1.370 . S
C2197 C2196 1.391 . S
C2198 N2172 1.435 . S
C2198 C2199 1.358 . S
C2198 C2203 1.371 . S
C2199 H2165 0.930 . S
C2199 C2198 1.358 . S
C2199 C2200 1.405 . S
C2200 H2166 0.932 . S
C2200 C2199 1.405 . S
C2200 C2201 1.383 . S
C2201 C2200 1.383 . S
C2201 C2202 1.393 . S
C2202 H2167 0.931 . S
C2202 C2201 1.393 . S
C2202 C2203 1.382 . S
C2203 H2168 0.929 . S
C2203 C2198 1.371 . S
C2203 C2202 1.382 . S
C2204 N2172 1.423 . S
C2204 C2205 1.362 . S
C2204 C2209 1.388 . S
C2205 H2169 0.929 . S
C2205 C2204 1.362 . S
C2205 C2206 1.376 . S
C2206 H2170 0.931 . S
C2206 C2205 1.376 . S
C2206 C2207 1.396 . S
C2207 C2189 1.472 . S
C2207 C2206 1.396 . S
C2207 C2208 1.348 . S
C2208 H2171 0.929 . S
C2208 C2207 1.348 . S
C2208 C2209 1.443 . S
C2209 H2173 0.932 . S
C2209 C2204 1.388 . S
C2209 C2208 1.443 . S
H2210 C2237 0.929 . S
N2211 C2236 1.433 . S
N2211 C2242 1.435 . S
N2211 C2248 1.423 . S
H2212 C2238 0.930 . S
H2213 C2241 0.931 . S
H2214 C2240 0.929 . S
H2215 C2243 0.930 . S
H2216 C2244 0.932 . S
H2217 C2247 0.929 . S
H2218 C2246 0.931 . S
H2219 C2249 0.929 . S
H2220 C2253 0.932 . S
H2221 C2250 0.931 . S
H2222 C2252 0.929 . S
H2223 C2255 0.929 . S
H2224 C2256 0.930 . S
H2225 C2258 0.929 . S
H2226 C2259 0.931 . S
H2227 C2261 0.930 . S
H2228 C2262 0.932 . S
H2229 C2264 0.931 . S
H2230 C2265 0.929 . S
H2231 C2267 0.929 . S
H2232 C2268 0.931 . S
H2233 C2270 0.929 . S
N2234 C2254 1.433 . S
N2234 C2260 1.435 . S
N2234 C2266 1.423 . S
H2235 C2271 0.932 . S
C2236 N2211 1.433 . S
C2236 C2237 1.363 . S
C2236 C2241 1.370 . S
C2237 H2210 0.929 . S
C2237 C2236 1.363 . S
C2237 C2238 1.385 . S
C2238 H2212 0.930 . S
C2238 C2237 1.385 . S
C2238 C2239 1.357 . S
C2239 C2238 1.357 . S
C2239 C2240 1.406 . S
C2240 H2214 0.929 . S
C2240 C2239 1.406 . S
C2240 C2241 1.391 . S
C2241 H2213 0.931 . S
C2241 C2236 1.370 . S
C2241 C2240 1.391 . S
C2242 N2211 1.435 . S
C2242 C2243 1.358 . S
C2242 C2247 1.371 . S
C2243 H2215 0.930 . S
C2243 C2242 1.358 . S
C2243 C2244 1.405 . S
C2244 H2216 0.932 . S
C2244 C2243 1.405 . S
C2244 C2245 1.383 . S
C2245 C2244 1.383 . S
C2245 C2246 1.393 . S
C2246 H2218 0.931 . S
C2246 C2245 1.393 . S
C2246 C2247 1.382 . S
C2247 H2217 0.929 . S
C2247 C2242 1.371 . S
C2247 C2246 1.382 . S
C2248 N2211 1.423 . S
C2248 C2249 1.362 . S
C2248 C2253 1.388 . S
C2249 H2219 0.929 . S
C2249 C2248 1.362 . S
C2249 C2250 1.376 . S
C2250 H2221 0.931 . S
C2250 C2249 1.376 . S
C2250 C2251 1.396 . S
C2251 C2250 1.396 . S
C2251 C2252 1.348 . S
C2251 C2269 1.472 . S
C2252 H2222 0.929 . S
C2252 C2251 1.348 . S
C2252 C2253 1.443 . S
C2253 H2220 0.932 . S
C2253 C2248 1.388 . S
C2253 C2252 1.443 . S
C2254 N2234 1.433 . S
C2254 C2255 1.363 . S
C2254 C2259 1.370 . S
C2255 H2223 0.929 . S
C2255 C2254 1.363 . S
C2255 C2256 1.385 . S
C2256 H2224 0.930 . S
C2256 C2255 1.385 . S
C2256 C2257 1.357 . S
C2257 C2256 1.357 . S
C2257 C2258 1.406 . S
C2258 H2225 0.929 . S
C2258 C2257 1.406 . S
C2258 C2259 1.391 . S
C2259 H2226 0.931 . S
C2259 C2254 1.370 . S
C2259 C2258 1.391 . S
C2260 N2234 1.435 . S
C2260 C2261 1.358 . S
C2260 C2265 1.371 . S
C2261 H2227 0.930 . S
C2261 C2260 1.358 . S
C2261 C2262 1.405 . S
C2262 H2228 0.932 . S
C2262 C2261 1.405 . S
C2262 C2263 1.383 . S
C2263 C2262 1.383 . S
C2263 C2264 1.393 . S
C2264 H2229 0.931 . S
C2264 C2263 1.393 . S
C2264 C2265 1.382 . S
C2265 H2230 0.929 . S
C2265 C2260 1.371 . S
C2265 C2264 1.382 . S
C2266 N2234 1.423 . S
C2266 C2267 1.362 . S
C2266 C2271 1.388 . S
C2267 H2231 0.929 . S
C2267 C2266 1.362 . S
C2267 C2268 1.376 . S
C2268 H2232 0.931 . S
C2268 C2267 1.376 . S
C2268 C2269 1.396 . S
C2269 C2251 1.472 . S
C2269 C2268 1.396 . S
C2269 C2270 1.348 . S
C2270 H2233 0.929 . S
C2270 C2269 1.348 . S
C2270 C2271 1.443 . S
C2271 H2235 0.932 . S
C2271 C2266 1.388 . S
C2271 C2270 1.443 . S
H2272 C2299 0.929 . S
N2273 C2298 1.433 . S
N2273 C2304 1.435 . S
N2273 C2310 1.423 . S
H2274 C2300 0.930 . S
H2275 C2303 0.931 . S
H2276 C2302 0.929 . S
H2277 C2305 0.930 . S
H2278 C2306 0.932 . S
H2279 C2309 0.929 . S
H2280 C2308 0.931 . S
H2281 C2311 0.929 . S
H2282 C2315 0.932 . S
H2283 C2312 0.931 . S
H2284 C2314 0.929 . S
H2285 C2317 0.929 . S
H2286 C2318 0.930 . S
H2287 C2320 0.929 . S
H2288 C2321 0.931 . S
H2289 C2323 0.930 . S
H2290 C2324 0.932 . S
H2291 C2326 0.931 . S
H2292 C2327 0.929 . S
H2293 C2329 0.929 . S
H2294 C2330 0.931 . S
H2295 C2332 0.929 . S
N2296 C2316 1.433 . S
N2296 C2322 1.435 . S
N2296 C2328 1.423 . S
H2297 C2333 0.932 . S
C2298 N2273 1.433 . S
C2298 C2299 1.363 . S
C2298 C2303 1.370 . S
C2299 H2272 0.929 . S
C2299 C2298 1.363 . S
C2299 C2300 1.385 . S
C2300 H2274 0.930 . S
C2300 C2299 1.385 . S
C2300 C2301 1.357 . S
C2301 C2300 1.357 . S
C2301 C2302 1.406 . S
C2302 H2276 0.929 . S
C2302 C2301 1.406 . S
C2302 C2303 1.391 . S
C2303 H2275 0.931 . S
C2303 C2298 1.370 . S
C2303 C2302 1.391 . S
C2304 N2273 1.435 . S
C2304 C2305 1.358 . S
C2304 C2309 1.371 . S
C2305 H2277 0.930 . S
C2305 C2304 1.358 . S
C2305 C2306 1.405 . S
C2306 H2278 0.932 . S
C2306 C2305 1.405 . S
C2306 C2307 1.383 . S
C2307 C2306 1.383 . S
C2307 C2308 1.393 . S
C2308 H2280 0.931 . S
C2308 C2307 1.393 . S
C2308 C2309 1.382 . S
C2309 H2279 0.929 . S
C2309 C2304 1.371 . S
C2309 C2308 1.382 . S
C2310 N2273 1.423 . S
C2310 C2311 1.362 . S
C2310 C2315 1.388 . S
C2311 H2281 0.929 . S
C2311 C2310 1.362 . S
C2311 C2312 1.376 . S
C2312 H2283 0.931 . S
C2312 C2311 1.376 . S
C2312 C2313 1.396 . S
C2313 C2312 1.396 . S
C2313 C2314 1.348 . S
C2313 C2331 1.472 . S
C2314 H2284 0.929 . S
C2314 C2313 1.348 . S
C2314 C2315 1.443 . S
C2315 H2282 0.932 . S
C2315 C2310 1.388 . S
C2315 C2314 1.443 . S
C2316 N2296 1.433 . S
C2316 C2317 1.363 . S
C2316 C2321 1.370 . S
C2317 H2285 0.929 . S
C2317 C2316 1.363 . S
C2317 C2318 1.385 . S
C2318 H2286 0.930 . S
C2318 C2317 1.385 . S
C2318 C2319 1.357 . S
C2319 C2318 1.357 . S
C2319 C2320 1.406 . S
C2320 H2287 0.929 . S
C2320 C2319 1.406 . S
C2320 C2321 1.391 . S
C2321 H2288 0.931 . S
C2321 C2316 1.370 . S
C2321 C2320 1.391 . S
C2322 N2296 1.435 . S
C2322 C2323 1.358 . S
C2322 C2327 1.371 . S
C2323 H2289 0.930 . S
C2323 C2322 1.358 . S
C2323 C2324 1.405 . S
C2324 H2290 0.932 . S
C2324 C2323 1.405 . S
C2324 C2325 1.383 . S
C2325 C2324 1.383 . S
C2325 C2326 1.393 . S
C2326 H2291 0.931 . S
C2326 C2325 1.393 . S
C2326 C2327 1.382 . S
C2327 H2292 0.929 . S
C2327 C2322 1.371 . S
C2327 C2326 1.382 . S
C2328 N2296 1.423 . S
C2328 C2329 1.362 . S
C2328 C2333 1.388 . S
C2329 H2293 0.929 . S
C2329 C2328 1.362 . S
C2329 C2330 1.376 . S
C2330 H2294 0.931 . S
C2330 C2329 1.376 . S
C2330 C2331 1.396 . S
C2331 C2313 1.472 . S
C2331 C2330 1.396 . S
C2331 C2332 1.348 . S
C2332 H2295 0.929 . S
C2332 C2331 1.348 . S
C2332 C2333 1.443 . S
C2333 H2297 0.932 . S
C2333 C2328 1.388 . S
C2333 C2332 1.443 . S
H2334 C2361 0.929 . S
N2335 C2360 1.433 . S
N2335 C2366 1.435 . S
N2335 C2372 1.423 . S
H2336 C2362 0.930 . S
H2337 C2365 0.931 . S
H2338 C2364 0.929 . S
H2339 C2367 0.930 . S
H2340 C2368 0.932 . S
H2341 C2371 0.929 . S
H2342 C2370 0.931 . S
H2343 C2373 0.929 . S
H2344 C2377 0.932 . S
H2345 C2374 0.931 . S
H2346 C2376 0.929 . S
H2347 C2379 0.929 . S
H2348 C2380 0.930 . S
H2349 C2382 0.929 . S
H2350 C2383 0.931 . S
H2351 C2385 0.930 . S
H2352 C2386 0.932 . S
H2353 C2388 0.931 . S
H2354 C2389 0.929 . S
H2355 C2391 0.929 . S
H2356 C2392 0.931 . S
H2357 C2394 0.929 . S
N2358 C2378 1.433 . S
N2358 C2384 1.435 . S
N2358 C2390 1.423 . S
H2359 C2395 0.932 . S
C2360 N2335 1.433 . S
C2360 C2361 1.363 . S
C2360 C2365 1.370 . S
C2361 H2334 0.929 . S
C2361 C2360 1.363 . S
C2361 C2362 1.385 . S
C2362 H2336 0.930 . S
C2362 C2361 1.385 . S
C2362 C2363 1.357 . S
C2363 C2362 1.357 . S
C2363 C2364 1.406 . S
C2364 H2338 0.929 . S
C2364 C2363 1.406 . S
C2364 C2365 1.391 . S
C2365 H2337 0.931 . S
C2365 C2360 1.370 . S
C2365 C2364 1.391 . S
C2366 N2335 1.435 . S
C2366 C2367 1.358 . S
C2366 C2371 1.371 . S
C2367 H2339 0.930 . S
C2367 C2366 1.358 . S
C2367 C2368 1.405 . S
C2368 H2340 0.932 . S
C2368 C2367 1.405 . S
C2368 C2369 1.383 . S
C2369 C2368 1.383 . S
C2369 C2370 1.393 . S
C2370 H2342 0.931 . S
C2370 C2369 1.393 . S
C2370 C2371 1.382 . S
C2371 H2341 0.929 . S
C2371 C2366 1.371 . S
C2371 C2370 1.382 . S
C2372 N2335 1.423 . S
C2372 C2373 1.362 . S
C2372 C2377 1.388 . S
C2373 H2343 0.929 . S
C2373 C2372 1.362 . S
C2373 C2374 1.376 . S
C2374 H2345 0.931 . S
C2374 C2373 1.376 . S
C2374 C2375 1.396 . S
C2375 C2374 1.396 . S
C2375 C2376 1.348 . S
C2375 C2393 1.472 . S
C2376 H2346 0.929 . S
C2376 C2375 1.348 . S
C2376 C2377 1.443 . S
C2377 H2344 0.932 . S
C2377 C2372 1.388 . S
C2377 C2376 1.443 . S
C2378 N2358 1.433 . S
C2378 C2379 1.363 . S
C2378 C2383 1.370 . S
C2379 H2347 0.929 . S
C2379 C2378 1.363 . S
C2379 C2380 1.385 . S
C2380 H2348 0.930 . S
C2380 C2379 1.385 . S
C2380 C2381 1.357 . S
C2381 C2380 1.357 . S
C2381 C2382 1.406 . S
C2382 H2349 0.929 . S
C2382 C2381 1.406 . S
C2382 C2383 1.391 . S
C2383 H2350 0.931 . S
C2383 C2378 1.370 . S
C2383 C2382 1.391 . S
C2384 N2358 1.435 . S
C2384 C2385 1.358 . S
C2384 C2389 1.371 . S
C2385 H2351 0.930 . S
C2385 C2384 1.358 . S
C2385 C2386 1.405 . S
C2386 H2352 0.932 . S
C2386 C2385 1.405 . S
C2386 C2387 1.383 . S
C2387 C2386 1.383 . S
C2387 C2388 1.393 . S
C2388 H2353 0.931 . S
C2388 C2387 1.393 . S
C2388 C2389 1.382 . S
C2389 H2354 0.929 . S
C2389 C2384 1.371 . S
C2389 C2388 1.382 . S
C2390 N2358 1.423 . S
C2390 C2391 1.362 . S
C2390 C2395 1.388 . S
C2391 H2355 0.929 . S
C2391 C2390 1.362 . S
C2391 C2392 1.376 . S
C2392 H2356 0.931 . S
C2392 C2391 1.376 . S
C2392 C2393 1.396 . S
C2393 C2375 1.472 . S
C2393 C2392 1.396 . S
C2393 C2394 1.348 . S
C2394 H2357 0.929 . S
C2394 C2393 1.348 . S
C2394 C2395 1.443 . S
C2395 H2359 0.932 . S
C2395 C2390 1.388 . S
C2395 C2394 1.443 . S
H2396 C2423 0.929 . S
N2397 C2422 1.433 . S
N2397 C2428 1.435 . S
N2397 C2434 1.423 . S
H2398 C2424 0.930 . S
H2399 C2427 0.931 . S
H2400 C2426 0.929 . S
H2401 C2429 0.930 . S
H2402 C2430 0.932 . S
H2403 C2433 0.929 . S
H2404 C2432 0.931 . S
H2405 C2435 0.929 . S
H2406 C2439 0.932 . S
H2407 C2436 0.931 . S
H2408 C2438 0.929 . S
H2409 C2441 0.929 . S
H2410 C2442 0.930 . S
H2411 C2444 0.929 . S
H2412 C2445 0.931 . S
H2413 C2447 0.930 . S
H2414 C2448 0.932 . S
H2415 C2450 0.931 . S
H2416 C2451 0.929 . S
H2417 C2453 0.929 . S
H2418 C2454 0.931 . S
H2419 C2456 0.929 . S
N2420 C2440 1.433 . S
N2420 C2446 1.435 . S
N2420 C2452 1.423 . S
H2421 C2457 0.932 . S
C2422 N2397 1.433 . S
C2422 C2423 1.363 . S
C2422 C2427 1.370 . S
C2423 H2396 0.929 . S
C2423 C2422 1.363 . S
C2423 C2424 1.385 . S
C2424 H2398 0.930 . S
C2424 C2423 1.385 . S
C2424 C2425 1.357 . S
C2425 C2424 1.357 . S
C2425 C2426 1.406 . S
C2426 H2400 0.929 . S
C2426 C2425 1.406 . S
C2426 C2427 1.391 . S
C2427 H2399 0.931 . S
C2427 C2422 1.370 . S
C2427 C2426 1.391 . S
C2428 N2397 1.435 . S
C2428 C2429 1.358 . S
C2428 C2433 1.371 . S
C2429 H2401 0.930 . S
C2429 C2428 1.358 . S
C2429 C2430 1.405 . S
C2430 H2402 0.932 . S
C2430 C2429 1.405 . S
C2430 C2431 1.383 . S
C2431 C2430 1.383 . S
C2431 C2432 1.393 . S
C2432 H2404 0.931 . S
C2432 C2431 1.393 . S
C2432 C2433 1.382 . S
C2433 H2403 0.929 . S
C2433 C2428 1.371 . S
C2433 C2432 1.382 . S
C2434 N2397 1.423 . S
C2434 C2435 1.362 . S
C2434 C2439 1.388 . S
C2435 H2405 0.929 . S
C2435 C2434 1.362 . S
C2435 C2436 1.376 . S
C2436 H2407 0.931 . S
C2436 C2435 1.376 . S
C2436 C2437 1.396 . S
C2437 C2436 1.396 . S
C2437 C2438 1.348 . S
C2437 C2455 1.472 . S
C2438 H2408 0.929 . S
C2438 C2437 1.348 . S
C2438 C2439 1.443 . S
C2439 H2406 0.932 . S
C2439 C2434 1.388 . S
C2439 C2438 1.443 . S
C2440 N2420 1.433 . S
C2440 C2441 1.363 . S
C2440 C2445 1.370 . S
C2441 H2409 0.929 . S
C2441 C2440 1.363 . S
C2441 C2442 1.385 . S
C2442 H2410 0.930 . S
C2442 C2441 1.385 . S
C2442 C2443 1.357 . S
C2443 C2442 1.357 . S
C2443 C2444 1.406 . S
C2444 H2411 0.929 . S
C2444 C2443 1.406 . S
C2444 C2445 1.391 . S
C2445 H2412 0.931 . S
C2445 C2440 1.370 . S
C2445 C2444 1.391 . S
C2446 N2420 1.435 . S
C2446 C2447 1.358 . S
C2446 C2451 1.371 . S
C2447 H2413 0.930 . S
C2447 C2446 1.358 . S
C2447 C2448 1.405 . S
C2448 H2414 0.932 . S
C2448 C2447 1.405 . S
C2448 C2449 1.383 . S
C2449 C2448 1.383 . S
C2449 C2450 1.393 . S
C2450 H2415 0.931 . S
C2450 C2449 1.393 . S
C2450 C2451 1.382 . S
C2451 H2416 0.929 . S
C2451 C2446 1.371 . S
C2451 C2450 1.382 . S
C2452 N2420 1.423 . S
C2452 C2453 1.362 . S
C2452 C2457 1.388 . S
C2453 H2417 0.929 . S
C2453 C2452 1.362 . S
C2453 C2454 1.376 . S
C2454 H2418 0.931 . S
C2454 C2453 1.376 . S
C2454 C2455 1.396 . S
C2455 C2437 1.472 . S
C2455 C2454 1.396 . S
C2455 C2456 1.348 . S
C2456 H2419 0.929 . S
C2456 C2455 1.348 . S
C2456 C2457 1.443 . S
C2457 H2421 0.932 . S
C2457 C2452 1.388 . S
C2457 C2456 1.443 . S
H2458 C2485 0.929 . S
N2459 C2484 1.433 . S
N2459 C2490 1.435 . S
N2459 C2496 1.423 . S
H2460 C2486 0.930 . S
H2461 C2489 0.931 . S
H2462 C2488 0.929 . S
H2463 C2491 0.930 . S
H2464 C2492 0.932 . S
H2465 C2495 0.929 . S
H2466 C2494 0.931 . S
H2467 C2497 0.929 . S
H2468 C2501 0.932 . S
H2469 C2498 0.931 . S
H2470 C2500 0.929 . S
H2471 C2503 0.929 . S
H2472 C2504 0.930 . S
H2473 C2506 0.929 . S
H2474 C2507 0.931 . S
H2475 C2509 0.930 . S
H2476 C2510 0.932 . S
H2477 C2512 0.931 . S
H2478 C2513 0.929 . S
H2479 C2515 0.929 . S
H2480 C2516 0.931 . S
H2481 C2518 0.929 . S
N2482 C2502 1.433 . S
N2482 C2508 1.435 . S
N2482 C2514 1.423 . S
H2483 C2519 0.932 . S
C2484 N2459 1.433 . S
C2484 C2485 1.363 . S
C2484 C2489 1.370 . S
C2485 H2458 0.929 . S
C2485 C2484 1.363 . S
C2485 C2486 1.385 . S
C2486 H2460 0.930 . S
C2486 C2485 1.385 . S
C2486 C2487 1.357 . S
C2487 C2486 1.357 . S
C2487 C2488 1.406 . S
C2488 H2462 0.929 . S
C2488 C2487 1.406 . S
C2488 C2489 1.391 . S
C2489 H2461 0.931 . S
C2489 C2484 1.370 . S
C2489 C2488 1.391 . S
C2490 N2459 1.435 . S
C2490 C2491 1.358 . S
C2490 C2495 1.371 . S
C2491 H2463 0.930 . S
C2491 C2490 1.358 . S
C2491 C2492 1.405 . S
C2492 H2464 0.932 . S
C2492 C2491 1.405 . S
C2492 C2493 1.383 . S
C2493 C2492 1.383 . S
C2493 C2494 1.393 . S
C2494 H2466 0.931 . S
C2494 C2493 1.393 . S
C2494 C2495 1.382 . S
C2495 H2465 0.929 . S
C2495 C2490 1.371 . S
C2495 C2494 1.382 . S
C2496 N2459 1.423 . S
C2496 C2497 1.362 . S
C2496 C2501 1.388 . S
C2497 H2467 0.929 . S
C2497 C2496 1.362 . S
C2497 C2498 1.376 . S
C2498 H2469 0.931 . S
C2498 C2497 1.376 . S
C2498 C2499 1.396 . S
C2499 C2498 1.396 . S
C2499 C2500 1.348 . S
C2499 C2517 1.472 . S
C2500 H2470 0.929 . S
C2500 C2499 1.348 . S
C2500 C2501 1.443 . S
C2501 H2468 0.932 . S
C2501 C2496 1.388 . S
C2501 C2500 1.443 . S
C2502 N2482 1.433 . S
C2502 C2503 1.363 . S
C2502 C2507 1.370 . S
C2503 H2471 0.929 . S
C2503 C2502 1.363 . S
C2503 C2504 1.385 . S
C2504 H2472 0.930 . S
C2504 C2503 1.385 . S
C2504 C2505 1.357 . S
C2505 C2504 1.357 . S
C2505 C2506 1.406 . S
C2506 H2473 0.929 . S
C2506 C2505 1.406 . S
C2506 C2507 1.391 . S
C2507 H2474 0.931 . S
C2507 C2502 1.370 . S
C2507 C2506 1.391 . S
C2508 N2482 1.435 . S
C2508 C2509 1.358 . S
C2508 C2513 1.371 . S
C2509 H2475 0.930 . S
C2509 C2508 1.358 . S
C2509 C2510 1.405 . S
C2510 H2476 0.932 . S
C2510 C2509 1.405 . S
C2510 C2511 1.383 . S
C2511 C2510 1.383 . S
C2511 C2512 1.393 . S
C2512 H2477 0.931 . S
C2512 C2511 1.393 . S
C2512 C2513 1.382 . S
C2513 H2478 0.929 . S
C2513 C2508 1.371 . S
C2513 C2512 1.382 . S
C2514 N2482 1.423 . S
C2514 C2515 1.362 . S
C2514 C2519 1.388 . S
C2515 H2479 0.929 . S
C2515 C2514 1.362 . S
C2515 C2516 1.376 . S
C2516 H2480 0.931 . S
C2516 C2515 1.376 . S
C2516 C2517 1.396 . S
C2517 C2499 1.472 . S
C2517 C2516 1.396 . S
C2517 C2518 1.348 . S
C2518 H2481 0.929 . S
C2518 C2517 1.348 . S
C2518 C2519 1.443 . S
C2519 H2483 0.932 . S
C2519 C2514 1.388 . S
C2519 C2518 1.443 . S
H2520 C2547 0.929 . S
N2521 C2546 1.433 . S
N2521 C2552 1.435 . S
N2521 C2558 1.423 . S
H2522 C2548 0.930 . S
H2523 C2551 0.931 . S
H2524 C2550 0.929 . S
H2525 C2553 0.930 . S
H2526 C2554 0.932 . S
H2527 C2557 0.929 . S
H2528 C2556 0.931 . S
H2529 C2559 0.929 . S
H2530 C2563 0.932 . S
H2531 C2560 0.931 . S
H2532 C2562 0.929 . S
H2533 C2565 0.929 . S
H2534 C2566 0.930 . S
H2535 C2568 0.929 . S
H2536 C2569 0.931 . S
H2537 C2571 0.930 . S
H2538 C2572 0.932 . S
H2539 C2574 0.931 . S
H2540 C2575 0.929 . S
H2541 C2577 0.929 . S
H2542 C2578 0.931 . S
H2543 C2580 0.929 . S
N2544 C2564 1.433 . S
N2544 C2570 1.435 . S
N2544 C2576 1.423 . S
H2545 C2581 0.932 . S
C2546 N2521 1.433 . S
C2546 C2547 1.363 . S
C2546 C2551 1.370 . S
C2547 H2520 0.929 . S
C2547 C2546 1.363 . S
C2547 C2548 1.385 . S
C2548 H2522 0.930 . S
C2548 C2547 1.385 . S
C2548 C2549 1.357 . S
C2549 C2548 1.357 . S
C2549 C2550 1.406 . S
C2550 H2524 0.929 . S
C2550 C2549 1.406 . S
C2550 C2551 1.391 . S
C2551 H2523 0.931 . S
C2551 C2546 1.370 . S
C2551 C2550 1.391 . S
C2552 N2521 1.435 . S
C2552 C2553 1.358 . S
C2552 C2557 1.371 . S
C2553 H2525 0.930 . S
C2553 C2552 1.358 . S
C2553 C2554 1.405 . S
C2554 H2526 0.932 . S
C2554 C2553 1.405 . S
C2554 C2555 1.383 . S
C2555 C2554 1.383 . S
C2555 C2556 1.393 . S
C2556 H2528 0.931 . S
C2556 C2555 1.393 . S
C2556 C2557 1.382 . S
C2557 H2527 0.929 . S
C2557 C2552 1.371 . S
C2557 C2556 1.382 . S
C2558 N2521 1.423 . S
C2558 C2559 1.362 . S
C2558 C2563 1.388 . S
C2559 H2529 0.929 . S
C2559 C2558 1.362 . S
C2559 C2560 1.376 . S
C2560 H2531 0.931 . S
C2560 C2559 1.376 . S
C2560 C2561 1.396 . S
C2561 C2560 1.396 . S
C2561 C2562 1.348 . S
C2561 C2579 1.472 . S
C2562 H2532 0.929 . S
C2562 C2561 1.348 . S
C2562 C2563 1.443 . S
C2563 H2530 0.932 . S
C2563 C2558 1.388 . S
C2563 C2562 1.443 . S
C2564 N2544 1.433 . S
C2564 C2565 1.363 . S
C2564 C2569 1.370 . S
C2565 H2533 0.929 . S
C2565 C2564 1.363 . S
C2565 C2566 1.385 . S
C2566 H2534 0.930 . S
C2566 C2565 1.385 . S
C2566 C2567 1.357 . S
C2567 C2566 1.357 . S
C2567 C2568 1.406 . S
C2568 H2535 0.929 . S
C2568 C2567 1.406 . S
C2568 C2569 1.391 . S
C2569 H2536 0.931 . S
C2569 C2564 1.370 . S
C2569 C2568 1.391 . S
C2570 N2544 1.435 . S
C2570 C2571 1.358 . S
C2570 C2575 1.371 . S
C2571 H2537 0.930 . S
C2571 C2570 1.358 . S
C2571 C2572 1.405 . S
C2572 H2538 0.932 . S
C2572 C2571 1.405 . S
C2572 C2573 1.383 . S
C2573 C2572 1.383 . S
C2573 C2574 1.393 . S
C2574 H2539 0.931 . S
C2574 C2573 1.393 . S
C2574 C2575 1.382 . S
C2575 H2540 0.929 . S
C2575 C2570 1.371 . S
C2575 C2574 1.382 . S
C2576 N2544 1.423 . S
C2576 C2577 1.362 . S
C2576 C2581 1.388 . S
C2577 H2541 0.929 . S
C2577 C2576 1.362 . S
C2577 C2578 1.376 . S
C2578 H2542 0.931 . S
C2578 C2577 1.376 . S
C2578 C2579 1.396 . S
C2579 C2561 1.472 . S
C2579 C2578 1.396 . S
C2579 C2580 1.348 . S
C2580 H2543 0.929 . S
C2580 C2579 1.348 . S
C2580 C2581 1.443 . S
C2581 H2545 0.932 . S
C2581 C2576 1.388 . S
C2581 C2580 1.443 . S
H2582 C2609 0.929 . S
N2583 C2608 1.433 . S
N2583 C2614 1.435 . S
N2583 C2620 1.423 . S
H2584 C2610 0.930 . S
H2585 C2613 0.931 . S
H2586 C2612 0.929 . S
H2587 C2615 0.930 . S
H2588 C2616 0.932 . S
H2589 C2619 0.929 . S
H2590 C2618 0.931 . S
H2591 C2621 0.929 . S
H2592 C2625 0.932 . S
H2593 C2622 0.931 . S
H2594 C2624 0.929 . S
H2595 C2627 0.929 . S
H2596 C2628 0.930 . S
H2597 C2630 0.929 . S
H2598 C2631 0.931 . S
H2599 C2633 0.930 . S
H2600 C2634 0.932 . S
H2601 C2636 0.931 . S
H2602 C2637 0.929 . S
H2603 C2639 0.929 . S
H2604 C2640 0.931 . S
H2605 C2642 0.929 . S
N2606 C2626 1.433 . S
N2606 C2632 1.435 . S
N2606 C2638 1.423 . S
H2607 C2643 0.932 . S
C2608 N2583 1.433 . S
C2608 C2609 1.363 . S
C2608 C2613 1.370 . S
C2609 H2582 0.929 . S
C2609 C2608 1.363 . S
C2609 C2610 1.385 . S
C2610 H2584 0.930 . S
C2610 C2609 1.385 . S
C2610 C2611 1.357 . S
C2611 C2610 1.357 . S
C2611 C2612 1.406 . S
C2612 H2586 0.929 . S
C2612 C2611 1.406 . S
C2612 C2613 1.391 . S
C2613 H2585 0.931 . S
C2613 C2608 1.370 . S
C2613 C2612 1.391 . S
C2614 N2583 1.435 . S
C2614 C2615 1.358 . S
C2614 C2619 1.371 . S
C2615 H2587 0.930 . S
C2615 C2614 1.358 . S
C2615 C2616 1.405 . S
C2616 H2588 0.932 . S
C2616 C2615 1.405 . S
C2616 C2617 1.383 . S
C2617 C2616 1.383 . S
C2617 C2618 1.393 . S
C2618 H2590 0.931 . S
C2618 C2617 1.393 . S
C2618 C2619 1.382 . S
C2619 H2589 0.929 . S
C2619 C2614 1.371 . S
C2619 C2618 1.382 . S
C2620 N2583 1.423 . S
C2620 C2621 1.362 . S
C2620 C2625 1.388 . S
C2621 H2591 0.929 . S
C2621 C2620 1.362 . S
C2621 C2622 1.376 . S
C2622 H2593 0.931 . S
C2622 C2621 1.376 . S
C2622 C2623 1.396 . S
C2623 C2622 1.396 . S
C2623 C2624 1.348 . S
C2623 C2641 1.472 . S
C2624 H2594 0.929 . S
C2624 C2623 1.348 . S
C2624 C2625 1.443 . S
C2625 H2592 0.932 . S
C2625 C2620 1.388 . S
C2625 C2624 1.443 . S
C2626 N2606 1.433 . S
C2626 C2627 1.363 . S
C2626 C2631 1.370 . S
C2627 H2595 0.929 . S
C2627 C2626 1.363 . S
C2627 C2628 1.385 . S
C2628 H2596 0.930 . S
C2628 C2627 1.385 . S
C2628 C2629 1.357 . S
C2629 C2628 1.357 . S
C2629 C2630 1.406 . S
C2630 H2597 0.929 . S
C2630 C2629 1.406 . S
C2630 C2631 1.391 . S
C2631 H2598 0.931 . S
C2631 C2626 1.370 . S
C2631 C2630 1.391 . S
C2632 N2606 1.435 . S
C2632 C2633 1.358 . S
C2632 C2637 1.371 . S
C2633 H2599 0.930 . S
C2633 C2632 1.358 . S
C2633 C2634 1.405 . S
C2634 H2600 0.932 . S
C2634 C2633 1.405 . S
C2634 C2635 1.383 . S
C2635 C2634 1.383 . S
C2635 C2636 1.393 . S
C2636 H2601 0.931 . S
C2636 C2635 1.393 . S
C2636 C2637 1.382 . S
C2637 H2602 0.929 . S
C2637 C2632 1.371 . S
C2637 C2636 1.382 . S
C2638 N2606 1.423 . S
C2638 C2639 1.362 . S
C2638 C2643 1.388 . S
C2639 H2603 0.929 . S
C2639 C2638 1.362 . S
C2639 C2640 1.376 . S
C2640 H2604 0.931 . S
C2640 C2639 1.376 . S
C2640 C2641 1.396 . S
C2641 C2623 1.472 . S
C2641 C2640 1.396 . S
C2641 C2642 1.348 . S
C2642 H2605 0.929 . S
C2642 C2641 1.348 . S
C2642 C2643 1.443 . S
C2643 H2607 0.932 . S
C2643 C2638 1.388 . S
C2643 C2642 1.443 . S
H2644 C2671 0.929 . S
N2645 C2670 1.433 . S
N2645 C2676 1.435 . S
N2645 C2682 1.423 . S
H2646 C2672 0.930 . S
H2647 C2675 0.931 . S
H2648 C2674 0.929 . S
H2649 C2677 0.930 . S
H2650 C2678 0.932 . S
H2651 C2681 0.929 . S
H2652 C2680 0.931 . S
H2653 C2683 0.929 . S
H2654 C2687 0.932 . S
H2655 C2684 0.931 . S
H2656 C2686 0.929 . S
H2657 C2689 0.929 . S
H2658 C2690 0.930 . S
H2659 C2692 0.929 . S
H2660 C2693 0.931 . S
H2661 C2695 0.930 . S
H2662 C2696 0.932 . S
H2663 C2698 0.931 . S
H2664 C2699 0.929 . S
H2665 C2701 0.929 . S
H2666 C2702 0.931 . S
H2667 C2704 0.929 . S
N2668 C2688 1.433 . S
N2668 C2694 1.435 . S
N2668 C2700 1.423 . S
H2669 C2705 0.932 . S
C2670 N2645 1.433 . S
C2670 C2671 1.363 . S
C2670 C2675 1.370 . S
C2671 H2644 0.929 . S
C2671 C2670 1.363 . S
C2671 C2672 1.385 . S
C2672 H2646 0.930 . S
C2672 C2671 1.385 . S
C2672 C2673 1.357 . S
C2673 C2672 1.357 . S
C2673 C2674 1.406 . S
C2674 H2648 0.929 . S
C2674 C2673 1.406 . S
C2674 C2675 1.391 . S
C2675 H2647 0.931 . S
C2675 C2670 1.370 . S
C2675 C2674 1.391 . S
C2676 N2645 1.435 . S
C2676 C2677 1.358 . S
C2676 C2681 1.371 . S
C2677 H2649 0.930 . S
C2677 C2676 1.358 . S
C2677 C2678 1.405 . S
C2678 H2650 0.932 . S
C2678 C2677 1.405 . S
C2678 C2679 1.383 . S
C2679 C2678 1.383 . S
C2679 C2680 1.393 . S
C2680 H2652 0.931 . S
C2680 C2679 1.393 . S
C2680 C2681 1.382 . S
C2681 H2651 0.929 . S
C2681 C2676 1.371 . S
C2681 C2680 1.382 . S
C2682 N2645 1.423 . S
C2682 C2683 1.362 . S
C2682 C2687 1.388 . S
C2683 H2653 0.929 . S
C2683 C2682 1.362 . S
C2683 C2684 1.376 . S
C2684 H2655 0.931 . S
C2684 C2683 1.376 . S
C2684 C2685 1.396 . S
C2685 C2684 1.396 . S
C2685 C2686 1.348 . S
C2685 C2703 1.472 . S
C2686 H2656 0.929 . S
C2686 C2685 1.348 . S
C2686 C2687 1.443 . S
C2687 H2654 0.932 . S
C2687 C2682 1.388 . S
C2687 C2686 1.443 . S
C2688 N2668 1.433 . S
C2688 C2689 1.363 . S
C2688 C2693 1.370 . S
C2689 H2657 0.929 . S
C2689 C2688 1.363 . S
C2689 C2690 1.385 . S
C2690 H2658 0.930 . S
C2690 C2689 1.385 . S
C2690 C2691 1.357 . S
C2691 C2690 1.357 . S
C2691 C2692 1.406 . S
C2692 H2659 0.929 . S
C2692 C2691 1.406 . S
C2692 C2693 1.391 . S
C2693 H2660 0.931 . S
C2693 C2688 1.370 . S
C2693 C2692 1.391 . S
C2694 N2668 1.435 . S
C2694 C2695 1.358 . S
C2694 C2699 1.371 . S
C2695 H2661 0.930 . S
C2695 C2694 1.358 . S
C2695 C2696 1.405 . S
C2696 H2662 0.932 . S
C2696 C2695 1.405 . S
C2696 C2697 1.383 . S
C2697 C2696 1.383 . S
C2697 C2698 1.393 . S
C2698 H2663 0.931 . S
C2698 C2697 1.393 . S
C2698 C2699 1.382 . S
C2699 H2664 0.929 . S
C2699 C2694 1.371 . S
C2699 C2698 1.382 . S
C2700 N2668 1.423 . S
C2700 C2701 1.362 . S
C2700 C2705 1.388 . S
C2701 H2665 0.929 . S
C2701 C2700 1.362 . S
C2701 C2702 1.376 . S
C2702 H2666 0.931 . S
C2702 C2701 1.376 . S
C2702 C2703 1.396 . S
C2703 C2685 1.472 . S
C2703 C2702 1.396 . S
C2703 C2704 1.348 . S
C2704 H2667 0.929 . S
C2704 C2703 1.348 . S
C2704 C2705 1.443 . S
C2705 H2669 0.932 . S
C2705 C2700 1.388 . S
C2705 C2704 1.443 . S
H2706 C2733 0.929 . S
N2707 C2732 1.433 . S
N2707 C2738 1.435 . S
N2707 C2744 1.423 . S
H2708 C2734 0.930 . S
H2709 C2737 0.931 . S
H2710 C2736 0.929 . S
H2711 C2739 0.930 . S
H2712 C2740 0.932 . S
H2713 C2743 0.929 . S
H2714 C2742 0.931 . S
H2715 C2745 0.929 . S
H2716 C2749 0.932 . S
H2717 C2746 0.931 . S
H2718 C2748 0.929 . S
H2719 C2751 0.929 . S
H2720 C2752 0.930 . S
H2721 C2754 0.929 . S
H2722 C2755 0.931 . S
H2723 C2757 0.930 . S
H2724 C2758 0.932 . S
H2725 C2760 0.931 . S
H2726 C2761 0.929 . S
H2727 C2763 0.929 . S
H2728 C2764 0.931 . S
H2729 C2766 0.929 . S
N2730 C2750 1.433 . S
N2730 C2756 1.435 . S
N2730 C2762 1.423 . S
H2731 C2767 0.932 . S
C2732 N2707 1.433 . S
C2732 C2733 1.363 . S
C2732 C2737 1.370 . S
C2733 H2706 0.929 . S
C2733 C2732 1.363 . S
C2733 C2734 1.385 . S
C2734 H2708 0.930 . S
C2734 C2733 1.385 . S
C2734 C2735 1.357 . S
C2735 C2734 1.357 . S
C2735 C2736 1.406 . S
C2736 H2710 0.929 . S
C2736 C2735 1.406 . S
C2736 C2737 1.391 . S
C2737 H2709 0.931 . S
C2737 C2732 1.370 . S
C2737 C2736 1.391 . S
C2738 N2707 1.435 . S
C2738 C2739 1.358 . S
C2738 C2743 1.371 . S
C2739 H2711 0.930 . S
C2739 C2738 1.358 . S
C2739 C2740 1.405 . S
C2740 H2712 0.932 . S
C2740 C2739 1.405 . S
C2740 C2741 1.383 . S
C2741 C2740 1.383 . S
C2741 C2742 1.393 . S
C2742 H2714 0.931 . S
C2742 C2741 1.393 . S
C2742 C2743 1.382 . S
C2743 H2713 0.929 . S
C2743 C2738 1.371 . S
C2743 C2742 1.382 . S
C2744 N2707 1.423 . S
C2744 C2745 1.362 . S
C2744 C2749 1.388 . S
C2745 H2715 0.929 . S
C2745 C2744 1.362 . S
C2745 C2746 1.376 . S
C2746 H2717 0.931 . S
C2746 C2745 1.376 . S
C2746 C2747 1.396 . S
C2747 C2746 1.396 . S
C2747 C2748 1.348 . S
C2747 C2765 1.472 . S
C2748 H2718 0.929 . S
C2748 C2747 1.348 . S
C2748 C2749 1.443 . S
C2749 H2716 0.932 . S
C2749 C2744 1.388 . S
C2749 C2748 1.443 . S
C2750 N2730 1.433 . S
C2750 C2751 1.363 . S
C2750 C2755 1.370 . S
C2751 H2719 0.929 . S
C2751 C2750 1.363 . S
C2751 C2752 1.385 . S
C2752 H2720 0.930 . S
C2752 C2751 1.385 . S
C2752 C2753 1.357 . S
C2753 C2752 1.357 . S
C2753 C2754 1.406 . S
C2754 H2721 0.929 . S
C2754 C2753 1.406 . S
C2754 C2755 1.391 . S
C2755 H2722 0.931 . S
C2755 C2750 1.370 . S
C2755 C2754 1.391 . S
C2756 N2730 1.435 . S
C2756 C2757 1.358 . S
C2756 C2761 1.371 . S
C2757 H2723 0.930 . S
C2757 C2756 1.358 . S
C2757 C2758 1.405 . S
C2758 H2724 0.932 . S
C2758 C2757 1.405 . S
C2758 C2759 1.383 . S
C2759 C2758 1.383 . S
C2759 C2760 1.393 . S
C2760 H2725 0.931 . S
C2760 C2759 1.393 . S
C2760 C2761 1.382 . S
C2761 H2726 0.929 . S
C2761 C2756 1.371 . S
C2761 C2760 1.382 . S
C2762 N2730 1.423 . S
C2762 C2763 1.362 . S
C2762 C2767 1.388 . S
C2763 H2727 0.929 . S
C2763 C2762 1.362 . S
C2763 C2764 1.376 . S
C2764 H2728 0.931 . S
C2764 C2763 1.376 . S
C2764 C2765 1.396 . S
C2765 C2747 1.472 . S
C2765 C2764 1.396 . S
C2765 C2766 1.348 . S
C2766 H2729 0.929 . S
C2766 C2765 1.348 . S
C2766 C2767 1.443 . S
C2767 H2731 0.932 . S
C2767 C2762 1.388 . S
C2767 C2766 1.443 . S
C2768 C2769 1.369 . S
C2768 C2770 1.419 . S
C2768 H2772 0.930 . S
C2769 C2768 1.369 . S
C2769 C2778 1.429 . S
C2770 C2768 1.419 . S
C2770 C2771 1.363 . S
C2770 H2773 0.929 . S
C2771 C2770 1.363 . S
C2771 C2777 1.428 . S
H2772 C2768 0.930 . S
H2773 C2770 0.929 . S
S2774 N2775 1.613 . S
S2774 N2776 1.610 . S
N2775 S2774 1.613 . S
N2775 C2778 1.350 . S
N2776 S2774 1.610 . S
N2776 C2777 1.351 . S
C2777 C2771 1.428 . S
C2777 N2776 1.351 . S
C2777 C2778 1.434 . S
C2778 C2769 1.429 . S
C2778 N2775 1.350 . S
C2778 C2777 1.434 . S
C2779 C2780 1.369 . S
C2779 C2781 1.419 . S
C2779 H2783 0.930 . S
C2780 C2779 1.369 . S
C2780 C2789 1.429 . S
C2781 C2779 1.419 . S
C2781 C2782 1.363 . S
C2781 H2784 0.929 . S
C2782 C2781 1.363 . S
C2782 C2788 1.428 . S
H2783 C2779 0.930 . S
H2784 C2781 0.929 . S
S2785 N2786 1.613 . S
S2785 N2787 1.610 . S
N2786 S2785 1.613 . S
N2786 C2789 1.350 . S
N2787 S2785 1.610 . S
N2787 C2788 1.351 . S
C2788 C2782 1.428 . S
C2788 N2787 1.351 . S
C2788 C2789 1.434 . S
C2789 C2780 1.429 . S
C2789 N2786 1.350 . S
C2789 C2788 1.434 . S
C2790 C2791 1.369 . S
C2790 C2792 1.419 . S
C2790 H2794 0.930 . S
C2791 C2790 1.369 . S
C2791 C2800 1.429 . S
C2792 C2790 1.419 . S
C2792 C2793 1.363 . S
C2792 H2795 0.929 . S
C2793 C2792 1.363 . S
C2793 C2799 1.428 . S
H2794 C2790 0.930 . S
H2795 C2792 0.929 . S
S2796 N2797 1.613 . S
S2796 N2798 1.610 . S
N2797 S2796 1.613 . S
N2797 C2800 1.350 . S
N2798 S2796 1.610 . S
N2798 C2799 1.351 . S
C2799 C2793 1.428 . S
C2799 N2798 1.351 . S
C2799 C2800 1.434 . S
C2800 C2791 1.429 . S
C2800 N2797 1.350 . S
C2800 C2799 1.434 . S
C2801 C2802 1.369 . S
C2801 C2803 1.419 . S
C2801 H2805 0.930 . S
C2802 C2801 1.369 . S
C2802 C2811 1.429 . S
C2803 C2801 1.419 . S
C2803 C2804 1.363 . S
C2803 H2806 0.929 . S
C2804 C2803 1.363 . S
C2804 C2810 1.428 . S
H2805 C2801 0.930 . S
H2806 C2803 0.929 . S
S2807 N2808 1.613 . S
S2807 N2809 1.610 . S
N2808 S2807 1.613 . S
N2808 C2811 1.350 . S
N2809 S2807 1.610 . S
N2809 C2810 1.351 . S
C2810 C2804 1.428 . S
C2810 N2809 1.351 . S
C2810 C2811 1.434 . S
C2811 C2802 1.429 . S
C2811 N2808 1.350 . S
C2811 C2810 1.434 . S
C2812 C2813 1.369 . S
C2812 C2814 1.419 . S
C2812 H2816 0.930 . S
C2813 C2812 1.369 . S
C2813 C2822 1.429 . S
C2814 C2812 1.419 . S
C2814 C2815 1.363 . S
C2814 H2817 0.929 . S
C2815 C2814 1.363 . S
C2815 C2821 1.428 . S
H2816 C2812 0.930 . S
H2817 C2814 0.929 . S
S2818 N2819 1.613 . S
S2818 N2820 1.610 . S
N2819 S2818 1.613 . S
N2819 C2822 1.350 . S
N2820 S2818 1.610 . S
N2820 C2821 1.351 . S
C2821 C2815 1.428 . S
C2821 N2820 1.351 . S
C2821 C2822 1.434 . S
C2822 C2813 1.429 . S
C2822 N2819 1.350 . S
C2822 C2821 1.434 . S
C2823 C2824 1.369 . S
C2823 C2825 1.419 . S
C2823 H2827 0.930 . S
C2824 C2823 1.369 . S
C2824 C2833 1.429 . S
C2825 C2823 1.419 . S
C2825 C2826 1.363 . S
C2825 H2828 0.929 . S
C2826 C2825 1.363 . S
C2826 C2832 1.428 . S
H2827 C2823 0.930 . S
H2828 C2825 0.929 . S
S2829 N2830 1.613 . S
S2829 N2831 1.610 . S
N2830 S2829 1.613 . S
N2830 C2833 1.350 . S
N2831 S2829 1.610 . S
N2831 C2832 1.351 . S
C2832 C2826 1.428 . S
C2832 N2831 1.351 . S
C2832 C2833 1.434 . S
C2833 C2824 1.429 . S
C2833 N2830 1.350 . S
C2833 C2832 1.434 . S
C2834 C2835 1.369 . S
C2834 C2836 1.419 . S
C2834 H2838 0.930 . S
C2835 C2834 1.369 . S
C2835 C2844 1.429 . S
C2836 C2834 1.419 . S
C2836 C2837 1.363 . S
C2836 H2839 0.929 . S
C2837 C2836 1.363 . S
C2837 C2843 1.428 . S
H2838 C2834 0.930 . S
H2839 C2836 0.929 . S
S2840 N2841 1.613 . S
S2840 N2842 1.610 . S
N2841 S2840 1.613 . S
N2841 C2844 1.350 . S
N2842 S2840 1.610 . S
N2842 C2843 1.351 . S
C2843 C2837 1.428 . S
C2843 N2842 1.351 . S
C2843 C2844 1.434 . S
C2844 C2835 1.429 . S
C2844 N2841 1.350 . S
C2844 C2843 1.434 . S
C2845 C2846 1.369 . S
C2845 C2847 1.419 . S
C2845 H2849 0.930 . S
C2846 C2845 1.369 . S
C2846 C2855 1.429 . S
C2847 C2845 1.419 . S
C2847 C2848 1.363 . S
C2847 H2850 0.929 . S
C2848 C2847 1.363 . S
C2848 C2854 1.428 . S
H2849 C2845 0.930 . S
H2850 C2847 0.929 . S
S2851 N2852 1.613 . S
S2851 N2853 1.610 . S
N2852 S2851 1.613 . S
N2852 C2855 1.350 . S
N2853 S2851 1.610 . S
N2853 C2854 1.351 . S
C2854 C2848 1.428 . S
C2854 N2853 1.351 . S
C2854 C2855 1.434 . S
C2855 C2846 1.429 . S
C2855 N2852 1.350 . S
C2855 C2854 1.434 . S
C2856 C2857 1.369 . S
C2856 C2858 1.419 . S
C2856 H2860 0.930 . S
C2857 C2856 1.369 . S
C2857 C2866 1.429 . S
C2858 C2856 1.419 . S
C2858 C2859 1.363 . S
C2858 H2861 0.929 . S
C2859 C2858 1.363 . S
C2859 C2865 1.428 . S
H2860 C2856 0.930 . S
H2861 C2858 0.929 . S
S2862 N2863 1.613 . S
S2862 N2864 1.610 . S
N2863 S2862 1.613 . S
N2863 C2866 1.350 . S
N2864 S2862 1.610 . S
N2864 C2865 1.351 . S
C2865 C2859 1.428 . S
C2865 N2864 1.351 . S
C2865 C2866 1.434 . S
C2866 C2857 1.429 . S
C2866 N2863 1.350 . S
C2866 C2865 1.434 . S
C2867 C2868 1.369 . S
C2867 C2869 1.419 . S
C2867 H2871 0.930 . S
C2868 C2867 1.369 . S
C2868 C2877 1.429 . S
C2869 C2867 1.419 . S
C2869 C2870 1.363 . S
C2869 H2872 0.929 . S
C2870 C2869 1.363 . S
C2870 C2876 1.428 . S
H2871 C2867 0.930 . S
H2872 C2869 0.929 . S
S2873 N2874 1.613 . S
S2873 N2875 1.610 . S
N2874 S2873 1.613 . S
N2874 C2877 1.350 . S
N2875 S2873 1.610 . S
N2875 C2876 1.351 . S
C2876 C2870 1.428 . S
C2876 N2875 1.351 . S
C2876 C2877 1.434 . S
C2877 C2868 1.429 . S
C2877 N2874 1.350 . S
C2877 C2876 1.434 . S
C2878 C2879 1.369 . S
C2878 C2880 1.419 . S
C2878 H2882 0.930 . S
C2879 C2878 1.369 . S
C2879 C2888 1.429 . S
C2880 C2878 1.419 . S
C2880 C2881 1.363 . S
C2880 H2883 0.929 . S
C2881 C2880 1.363 . S
C2881 C2887 1.428 . S
H2882 C2878 0.930 . S
H2883 C2880 0.929 . S
S2884 N2885 1.613 . S
S2884 N2886 1.610 . S
N2885 S2884 1.613 . S
N2885 C2888 1.350 . S
N2886 S2884 1.610 . S
N2886 C2887 1.351 . S
C2887 C2881 1.428 . S
C2887 N2886 1.351 . S
C2887 C2888 1.434 . S
C2888 C2879 1.429 . S
C2888 N2885 1.350 . S
C2888 C2887 1.434 . S
C2889 C2890 1.369 . S
C2889 C2891 1.419 . S
C2889 H2893 0.930 . S
C2890 C2889 1.369 . S
C2890 C2899 1.429 . S
C2891 C2889 1.419 . S
C2891 C2892 1.363 . S
C2891 H2894 0.929 . S
C2892 C2891 1.363 . S
C2892 C2898 1.428 . S
H2893 C2889 0.930 . S
H2894 C2891 0.929 . S
S2895 N2896 1.613 . S
S2895 N2897 1.610 . S
N2896 S2895 1.613 . S
N2896 C2899 1.350 . S
N2897 S2895 1.610 . S
N2897 C2898 1.351 . S
C2898 C2892 1.428 . S
C2898 N2897 1.351 . S
C2898 C2899 1.434 . S
C2899 C2890 1.429 . S
C2899 N2896 1.350 . S
C2899 C2898 1.434 . S
C2900 C2901 1.369 . S
C2900 C2902 1.419 . S
C2900 H2904 0.930 . S
C2901 C2900 1.369 . S
C2901 C2910 1.429 . S
C2902 C2900 1.419 . S
C2902 C2903 1.363 . S
C2902 H2905 0.929 . S
C2903 C2902 1.363 . S
C2903 C2909 1.428 . S
H2904 C2900 0.930 . S
H2905 C2902 0.929 . S
S2906 N2907 1.613 . S
S2906 N2908 1.610 . S
N2907 S2906 1.613 . S
N2907 C2910 1.350 . S
N2908 S2906 1.610 . S
N2908 C2909 1.351 . S
C2909 C2903 1.428 . S
C2909 N2908 1.351 . S
C2909 C2910 1.434 . S
C2910 C2901 1.429 . S
C2910 N2907 1.350 . S
C2910 C2909 1.434 . S
C2911 C2912 1.369 . S
C2911 C2913 1.419 . S
C2911 H2915 0.930 . S
C2912 C2911 1.369 . S
C2912 C2921 1.429 . S
C2913 C2911 1.419 . S
C2913 C2914 1.363 . S
C2913 H2916 0.929 . S
C2914 C2913 1.363 . S
C2914 C2920 1.428 . S
H2915 C2911 0.930 . S
H2916 C2913 0.929 . S
S2917 N2918 1.613 . S
S2917 N2919 1.610 . S
N2918 S2917 1.613 . S
N2918 C2921 1.350 . S
N2919 S2917 1.610 . S
N2919 C2920 1.351 . S
C2920 C2914 1.428 . S
C2920 N2919 1.351 . S
C2920 C2921 1.434 . S
C2921 C2912 1.429 . S
C2921 N2918 1.350 . S
C2921 C2920 1.434 . S
C2922 C2923 1.369 . S
C2922 C2924 1.419 . S
C2922 H2926 0.930 . S
C2923 C2922 1.369 . S
C2923 C2932 1.429 . S
C2924 C2922 1.419 . S
C2924 C2925 1.363 . S
C2924 H2927 0.929 . S
C2925 C2924 1.363 . S
C2925 C2931 1.428 . S
H2926 C2922 0.930 . S
H2927 C2924 0.929 . S
S2928 N2929 1.613 . S
S2928 N2930 1.610 . S
N2929 S2928 1.613 . S
N2929 C2932 1.350 . S
N2930 S2928 1.610 . S
N2930 C2931 1.351 . S
C2931 C2925 1.428 . S
C2931 N2930 1.351 . S
C2931 C2932 1.434 . S
C2932 C2923 1.429 . S
C2932 N2929 1.350 . S
C2932 C2931 1.434 . S
C2933 C2934 1.369 . S
C2933 C2935 1.419 . S
C2933 H2937 0.930 . S
C2934 C2933 1.369 . S
C2934 C2943 1.429 . S
C2935 C2933 1.419 . S
C2935 C2936 1.363 . S
C2935 H2938 0.929 . S
C2936 C2935 1.363 . S
C2936 C2942 1.428 . S
H2937 C2933 0.930 . S
H2938 C2935 0.929 . S
S2939 N2940 1.613 . S
S2939 N2941 1.610 . S
N2940 S2939 1.613 . S
N2940 C2943 1.350 . S
N2941 S2939 1.610 . S
N2941 C2942 1.351 . S
C2942 C2936 1.428 . S
C2942 N2941 1.351 . S
C2942 C2943 1.434 . S
C2943 C2934 1.429 . S
C2943 N2940 1.350 . S
C2943 C2942 1.434 . S
C2944 C2945 1.369 . S
C2944 C2946 1.419 . S
C2944 H2948 0.930 . S
C2945 C2944 1.369 . S
C2945 C2954 1.429 . S
C2946 C2944 1.419 . S
C2946 C2947 1.363 . S
C2946 H2949 0.929 . S
C2947 C2946 1.363 . S
C2947 C2953 1.428 . S
H2948 C2944 0.930 . S
H2949 C2946 0.929 . S
S2950 N2951 1.613 . S
S2950 N2952 1.610 . S
N2951 S2950 1.613 . S
N2951 C2954 1.350 . S
N2952 S2950 1.610 . S
N2952 C2953 1.351 . S
C2953 C2947 1.428 . S
C2953 N2952 1.351 . S
C2953 C2954 1.434 . S
C2954 C2945 1.429 . S
C2954 N2951 1.350 . S
C2954 C2953 1.434 . S
C2955 C2956 1.369 . S
C2955 C2957 1.419 . S
C2955 H2959 0.930 . S
C2956 C2955 1.369 . S
C2956 C2965 1.429 . S
C2957 C2955 1.419 . S
C2957 C2958 1.363 . S
C2957 H2960 0.929 . S
C2958 C2957 1.363 . S
C2958 C2964 1.428 . S
H2959 C2955 0.930 . S
H2960 C2957 0.929 . S
S2961 N2962 1.613 . S
S2961 N2963 1.610 . S
N2962 S2961 1.613 . S
N2962 C2965 1.350 . S
N2963 S2961 1.610 . S
N2963 C2964 1.351 . S
C2964 C2958 1.428 . S
C2964 N2963 1.351 . S
C2964 C2965 1.434 . S
C2965 C2956 1.429 . S
C2965 N2962 1.350 . S
C2965 C2964 1.434 . S
C2966 C2967 1.369 . S
C2966 C2968 1.419 . S
C2966 H2970 0.930 . S
C2967 C2966 1.369 . S
C2967 C2976 1.429 . S
C2968 C2966 1.419 . S
C2968 C2969 1.363 . S
C2968 H2971 0.929 . S
C2969 C2968 1.363 . S
C2969 C2975 1.428 . S
H2970 C2966 0.930 . S
H2971 C2968 0.929 . S
S2972 N2973 1.613 . S
S2972 N2974 1.610 . S
N2973 S2972 1.613 . S
N2973 C2976 1.350 . S
N2974 S2972 1.610 . S
N2974 C2975 1.351 . S
C2975 C2969 1.428 . S
C2975 N2974 1.351 . S
C2975 C2976 1.434 . S
C2976 C2967 1.429 . S
C2976 N2973 1.350 . S
C2976 C2975 1.434 . S
C2977 C2978 1.369 . S
C2977 C2979 1.419 . S
C2977 H2981 0.930 . S
C2978 C2977 1.369 . S
C2978 C2987 1.429 . S
C2979 C2977 1.419 . S
C2979 C2980 1.363 . S
C2979 H2982 0.929 . S
C2980 C2979 1.363 . S
C2980 C2986 1.428 . S
H2981 C2977 0.930 . S
H2982 C2979 0.929 . S
S2983 N2984 1.613 . S
S2983 N2985 1.610 . S
N2984 S2983 1.613 . S
N2984 C2987 1.350 . S
N2985 S2983 1.610 . S
N2985 C2986 1.351 . S
C2986 C2980 1.428 . S
C2986 N2985 1.351 . S
C2986 C2987 1.434 . S
C2987 C2978 1.429 . S
C2987 N2984 1.350 . S
C2987 C2986 1.434 . S
C2988 C2989 1.369 . S
C2988 C2990 1.419 . S
C2988 H2992 0.930 . S
C2989 C2988 1.369 . S
C2989 C2998 1.429 . S
C2990 C2988 1.419 . S
C2990 C2991 1.363 . S
C2990 H2993 0.929 . S
C2991 C2990 1.363 . S
C2991 C2997 1.428 . S
H2992 C2988 0.930 . S
H2993 C2990 0.929 . S
S2994 N2995 1.613 . S
S2994 N2996 1.610 . S
N2995 S2994 1.613 . S
N2995 C2998 1.350 . S
N2996 S2994 1.610 . S
N2996 C2997 1.351 . S
C2997 C2991 1.428 . S
C2997 N2996 1.351 . S
C2997 C2998 1.434 . S
C2998 C2989 1.429 . S
C2998 N2995 1.350 . S
C2998 C2997 1.434 . S
C2999 C3000 1.369 . S
C2999 C3001 1.419 . S
C2999 H3003 0.930 . S
C3000 C2999 1.369 . S
C3000 C3009 1.429 . S
C3001 C2999 1.419 . S
C3001 C3002 1.363 . S
C3001 H3004 0.929 . S
C3002 C3001 1.363 . S
C3002 C3008 1.428 . S
H3003 C2999 0.930 . S
H3004 C3001 0.929 . S
S3005 N3006 1.613 . S
S3005 N3007 1.610 . S
N3006 S3005 1.613 . S
N3006 C3009 1.350 . S
N3007 S3005 1.610 . S
N3007 C3008 1.351 . S
C3008 C3002 1.428 . S
C3008 N3007 1.351 . S
C3008 C3009 1.434 . S
C3009 C3000 1.429 . S
C3009 N3006 1.350 . S
C3009 C3008 1.434 . S
C3010 C3011 1.369 . S
C3010 C3012 1.419 . S
C3010 H3014 0.930 . S
C3011 C3010 1.369 . S
C3011 C3020 1.429 . S
C3012 C3010 1.419 . S
C3012 C3013 1.363 . S
C3012 H3015 0.929 . S
C3013 C3012 1.363 . S
C3013 C3019 1.428 . S
H3014 C3010 0.930 . S
H3015 C3012 0.929 . S
S3016 N3017 1.613 . S
S3016 N3018 1.610 . S
N3017 S3016 1.613 . S
N3017 C3020 1.350 . S
N3018 S3016 1.610 . S
N3018 C3019 1.351 . S
C3019 C3013 1.428 . S
C3019 N3018 1.351 . S
C3019 C3020 1.434 . S
C3020 C3011 1.429 . S
C3020 N3017 1.350 . S
C3020 C3019 1.434 . S
C3021 C3022 1.369 . S
C3021 C3023 1.419 . S
C3021 H3025 0.930 . S
C3022 C3021 1.369 . S
C3022 C3031 1.429 . S
C3023 C3021 1.419 . S
C3023 C3024 1.363 . S
C3023 H3026 0.929 . S
C3024 C3023 1.363 . S
C3024 C3030 1.428 . S
H3025 C3021 0.930 . S
H3026 C3023 0.929 . S
S3027 N3028 1.613 . S
S3027 N3029 1.610 . S
N3028 S3027 1.613 . S
N3028 C3031 1.350 . S
N3029 S3027 1.610 . S
N3029 C3030 1.351 . S
C3030 C3024 1.428 . S
C3030 N3029 1.351 . S
C3030 C3031 1.434 . S
C3031 C3022 1.429 . S
C3031 N3028 1.350 . S
C3031 C3030 1.434 . S
C3032 C3033 1.369 . S
C3032 C3034 1.419 . S
C3032 H3036 0.930 . S
C3033 C3032 1.369 . S
C3033 C3042 1.429 . S
C3034 C3032 1.419 . S
C3034 C3035 1.363 . S
C3034 H3037 0.929 . S
C3035 C3034 1.363 . S
C3035 C3041 1.428 . S
H3036 C3032 0.930 . S
H3037 C3034 0.929 . S
S3038 N3039 1.613 . S
S3038 N3040 1.610 . S
N3039 S3038 1.613 . S
N3039 C3042 1.350 . S
N3040 S3038 1.610 . S
N3040 C3041 1.351 . S
C3041 C3035 1.428 . S
C3041 N3040 1.351 . S
C3041 C3042 1.434 . S
C3042 C3033 1.429 . S
C3042 N3039 1.350 . S
C3042 C3041 1.434 . S
C3043 C3044 1.369 . S
C3043 C3045 1.419 . S
C3043 H3047 0.930 . S
C3044 C3043 1.369 . S
C3044 C3053 1.429 . S
C3045 C3043 1.419 . S
C3045 C3046 1.363 . S
C3045 H3048 0.929 . S
C3046 C3045 1.363 . S
C3046 C3052 1.428 . S
H3047 C3043 0.930 . S
H3048 C3045 0.929 . S
S3049 N3050 1.613 . S
S3049 N3051 1.610 . S
N3050 S3049 1.613 . S
N3050 C3053 1.350 . S
N3051 S3049 1.610 . S
N3051 C3052 1.351 . S
C3052 C3046 1.428 . S
C3052 N3051 1.351 . S
C3052 C3053 1.434 . S
C3053 C3044 1.429 . S
C3053 N3050 1.350 . S
C3053 C3052 1.434 . S
C3054 C3055 1.369 . S
C3054 C3056 1.419 . S
C3054 H3058 0.930 . S
C3055 C3054 1.369 . S
C3055 C3064 1.429 . S
C3056 C3054 1.419 . S
C3056 C3057 1.363 . S
C3056 H3059 0.929 . S
C3057 C3056 1.363 . S
C3057 C3063 1.428 . S
H3058 C3054 0.930 . S
H3059 C3056 0.929 . S
S3060 N3061 1.613 . S
S3060 N3062 1.610 . S
N3061 S3060 1.613 . S
N3061 C3064 1.350 . S
N3062 S3060 1.610 . S
N3062 C3063 1.351 . S
C3063 C3057 1.428 . S
C3063 N3062 1.351 . S
C3063 C3064 1.434 . S
C3064 C3055 1.429 . S
C3064 N3061 1.350 . S
C3064 C3063 1.434 . S
C3065 C3066 1.369 . S
C3065 C3067 1.419 . S
C3065 H3069 0.930 . S
C3066 C3065 1.369 . S
C3066 C3075 1.429 . S
C3067 C3065 1.419 . S
C3067 C3068 1.363 . S
C3067 H3070 0.929 . S
C3068 C3067 1.363 . S
C3068 C3074 1.428 . S
H3069 C3065 0.930 . S
H3070 C3067 0.929 . S
S3071 N3072 1.613 . S
S3071 N3073 1.610 . S
N3072 S3071 1.613 . S
N3072 C3075 1.350 . S
N3073 S3071 1.610 . S
N3073 C3074 1.351 . S
C3074 C3068 1.428 . S
C3074 N3073 1.351 . S
C3074 C3075 1.434 . S
C3075 C3066 1.429 . S
C3075 N3072 1.350 . S
C3075 C3074 1.434 . S
C3076 C3077 1.369 . S
C3076 C3078 1.419 . S
C3076 H3080 0.930 . S
C3077 C3076 1.369 . S
C3077 C3086 1.429 . S
C3078 C3076 1.419 . S
C3078 C3079 1.363 . S
C3078 H3081 0.929 . S
C3079 C3078 1.363 . S
C3079 C3085 1.428 . S
H3080 C3076 0.930 . S
H3081 C3078 0.929 . S
S3082 N3083 1.613 . S
S3082 N3084 1.610 . S
N3083 S3082 1.613 . S
N3083 C3086 1.350 . S
N3084 S3082 1.610 . S
N3084 C3085 1.351 . S
C3085 C3079 1.428 . S
C3085 N3084 1.351 . S
C3085 C3086 1.434 . S
C3086 C3077 1.429 . S
C3086 N3083 1.350 . S
C3086 C3085 1.434 . S
C3087 C3088 1.369 . S
C3087 C3089 1.419 . S
C3087 H3091 0.930 . S
C3088 C3087 1.369 . S
C3088 C3097 1.429 . S
C3089 C3087 1.419 . S
C3089 C3090 1.363 . S
C3089 H3092 0.929 . S
C3090 C3089 1.363 . S
C3090 C3096 1.428 . S
H3091 C3087 0.930 . S
H3092 C3089 0.929 . S
S3093 N3094 1.613 . S
S3093 N3095 1.610 . S
N3094 S3093 1.613 . S
N3094 C3097 1.350 . S
N3095 S3093 1.610 . S
N3095 C3096 1.351 . S
C3096 C3090 1.428 . S
C3096 N3095 1.351 . S
C3096 C3097 1.434 . S
C3097 C3088 1.429 . S
C3097 N3094 1.350 . S
C3097 C3096 1.434 . S
C3098 C3099 1.369 . S
C3098 C3100 1.419 . S
C3098 H3102 0.930 . S
C3099 C3098 1.369 . S
C3099 C3108 1.429 . S
C3100 C3098 1.419 . S
C3100 C3101 1.363 . S
C3100 H3103 0.929 . S
C3101 C3100 1.363 . S
C3101 C3107 1.428 . S
H3102 C3098 0.930 . S
H3103 C3100 0.929 . S
S3104 N3105 1.613 . S
S3104 N3106 1.610 . S
N3105 S3104 1.613 . S
N3105 C3108 1.350 . S
N3106 S3104 1.610 . S
N3106 C3107 1.351 . S
C3107 C3101 1.428 . S
C3107 N3106 1.351 . S
C3107 C3108 1.434 . S
C3108 C3099 1.429 . S
C3108 N3105 1.350 . S
C3108 C3107 1.434 . S
C3109 C3110 1.369 . S
C3109 C3111 1.419 . S
C3109 H3113 0.930 . S
C3110 C3109 1.369 . S
C3110 C3119 1.429 . S
C3111 C3109 1.419 . S
C3111 C3112 1.363 . S
C3111 H3114 0.929 . S
C3112 C3111 1.363 . S
C3112 C3118 1.428 . S
H3113 C3109 0.930 . S
H3114 C3111 0.929 . S
S3115 N3116 1.613 . S
S3115 N3117 1.610 . S
N3116 S3115 1.613 . S
N3116 C3119 1.350 . S
N3117 S3115 1.610 . S
N3117 C3118 1.351 . S
C3118 C3112 1.428 . S
C3118 N3117 1.351 . S
C3118 C3119 1.434 . S
C3119 C3110 1.429 . S
C3119 N3116 1.350 . S
C3119 C3118 1.434 . S
C3120 C3121 1.369 . S
C3120 C3122 1.419 . S
C3120 H3124 0.930 . S
C3121 C3120 1.369 . S
C3121 C3130 1.429 . S
C3122 C3120 1.419 . S
C3122 C3123 1.363 . S
C3122 H3125 0.929 . S
C3123 C3122 1.363 . S
C3123 C3129 1.428 . S
H3124 C3120 0.930 . S
H3125 C3122 0.929 . S
S3126 N3127 1.613 . S
S3126 N3128 1.610 . S
N3127 S3126 1.613 . S
N3127 C3130 1.350 . S
N3128 S3126 1.610 . S
N3128 C3129 1.351 . S
C3129 C3123 1.428 . S
C3129 N3128 1.351 . S
C3129 C3130 1.434 . S
C3130 C3121 1.429 . S
C3130 N3127 1.350 . S
C3130 C3129 1.434 . S
C3131 C3132 1.369 . S
C3131 C3133 1.419 . S
C3131 H3135 0.930 . S
C3132 C3131 1.369 . S
C3132 C3141 1.429 . S
C3133 C3131 1.419 . S
C3133 C3134 1.363 . S
C3133 H3136 0.929 . S
C3134 C3133 1.363 . S
C3134 C3140 1.428 . S
H3135 C3131 0.930 . S
H3136 C3133 0.929 . S
S3137 N3138 1.613 . S
S3137 N3139 1.610 . S
N3138 S3137 1.613 . S
N3138 C3141 1.350 . S
N3139 S3137 1.610 . S
N3139 C3140 1.351 . S
C3140 C3134 1.428 . S
C3140 N3139 1.351 . S
C3140 C3141 1.434 . S
C3141 C3132 1.429 . S
C3141 N3138 1.350 . S
C3141 C3140 1.434 . S
C3142 C3143 1.369 . S
C3142 C3144 1.419 . S
C3142 H3146 0.930 . S
C3143 C3142 1.369 . S
C3143 C3152 1.429 . S
C3144 C3142 1.419 . S
C3144 C3145 1.363 . S
C3144 H3147 0.929 . S
C3145 C3144 1.363 . S
C3145 C3151 1.428 . S
H3146 C3142 0.930 . S
H3147 C3144 0.929 . S
S3148 N3149 1.613 . S
S3148 N3150 1.610 . S
N3149 S3148 1.613 . S
N3149 C3152 1.350 . S
N3150 S3148 1.610 . S
N3150 C3151 1.351 . S
C3151 C3145 1.428 . S
C3151 N3150 1.351 . S
C3151 C3152 1.434 . S
C3152 C3143 1.429 . S
C3152 N3149 1.350 . S
C3152 C3151 1.434 . S
C3153 C3154 1.369 . S
C3153 C3155 1.419 . S
C3153 H3157 0.930 . S
C3154 C3153 1.369 . S
C3154 C3163 1.429 . S
C3155 C3153 1.419 . S
C3155 C3156 1.363 . S
C3155 H3158 0.929 . S
C3156 C3155 1.363 . S
C3156 C3162 1.428 . S
H3157 C3153 0.930 . S
H3158 C3155 0.929 . S
S3159 N3160 1.613 . S
S3159 N3161 1.610 . S
N3160 S3159 1.613 . S
N3160 C3163 1.350 . S
N3161 S3159 1.610 . S
N3161 C3162 1.351 . S
C3162 C3156 1.428 . S
C3162 N3161 1.351 . S
C3162 C3163 1.434 . S
C3163 C3154 1.429 . S
C3163 N3160 1.350 . S
C3163 C3162 1.434 . S
C3164 C3165 1.369 . S
C3164 C3166 1.419 . S
C3164 H3168 0.930 . S
C3165 C3164 1.369 . S
C3165 C3174 1.429 . S
C3166 C3164 1.419 . S
C3166 C3167 1.363 . S
C3166 H3169 0.929 . S
C3167 C3166 1.363 . S
C3167 C3173 1.428 . S
H3168 C3164 0.930 . S
H3169 C3166 0.929 . S
S3170 N3171 1.613 . S
S3170 N3172 1.610 . S
N3171 S3170 1.613 . S
N3171 C3174 1.350 . S
N3172 S3170 1.610 . S
N3172 C3173 1.351 . S
C3173 C3167 1.428 . S
C3173 N3172 1.351 . S
C3173 C3174 1.434 . S
C3174 C3165 1.429 . S
C3174 N3171 1.350 . S
C3174 C3173 1.434 . S
C3175 C3176 1.369 . S
C3175 C3177 1.419 . S
C3175 H3179 0.930 . S
C3176 C3175 1.369 . S
C3176 C3185 1.429 . S
C3177 C3175 1.419 . S
C3177 C3178 1.363 . S
C3177 H3180 0.929 . S
C3178 C3177 1.363 . S
C3178 C3184 1.428 . S
H3179 C3175 0.930 . S
H3180 C3177 0.929 . S
S3181 N3182 1.613 . S
S3181 N3183 1.610 . S
N3182 S3181 1.613 . S
N3182 C3185 1.350 . S
N3183 S3181 1.610 . S
N3183 C3184 1.351 . S
C3184 C3178 1.428 . S
C3184 N3183 1.351 . S
C3184 C3185 1.434 . S
C3185 C3176 1.429 . S
C3185 N3182 1.350 . S
C3185 C3184 1.434 . S
C3186 C3187 1.369 . S
C3186 C3188 1.419 . S
C3186 H3190 0.930 . S
C3187 C3186 1.369 . S
C3187 C3196 1.429 . S
C3188 C3186 1.419 . S
C3188 C3189 1.363 . S
C3188 H3191 0.929 . S
C3189 C3188 1.363 . S
C3189 C3195 1.428 . S
H3190 C3186 0.930 . S
H3191 C3188 0.929 . S
S3192 N3193 1.613 . S
S3192 N3194 1.610 . S
N3193 S3192 1.613 . S
N3193 C3196 1.350 . S
N3194 S3192 1.610 . S
N3194 C3195 1.351 . S
C3195 C3189 1.428 . S
C3195 N3194 1.351 . S
C3195 C3196 1.434 . S
C3196 C3187 1.429 . S
C3196 N3193 1.350 . S
C3196 C3195 1.434 . S
C3197 C3198 1.369 . S
C3197 C3199 1.419 . S
C3197 H3201 0.930 . S
C3198 C3197 1.369 . S
C3198 C3207 1.429 . S
C3199 C3197 1.419 . S
C3199 C3200 1.363 . S
C3199 H3202 0.929 . S
C3200 C3199 1.363 . S
C3200 C3206 1.428 . S
H3201 C3197 0.930 . S
H3202 C3199 0.929 . S
S3203 N3204 1.613 . S
S3203 N3205 1.610 . S
N3204 S3203 1.613 . S
N3204 C3207 1.350 . S
N3205 S3203 1.610 . S
N3205 C3206 1.351 . S
C3206 C3200 1.428 . S
C3206 N3205 1.351 . S
C3206 C3207 1.434 . S
C3207 C3198 1.429 . S
C3207 N3204 1.350 . S
C3207 C3206 1.434 . S
C3208 C3209 1.369 . S
C3208 C3210 1.419 . S
C3208 H3212 0.930 . S
C3209 C3208 1.369 . S
C3209 C3218 1.429 . S
C3210 C3208 1.419 . S
C3210 C3211 1.363 . S
C3210 H3213 0.929 . S
C3211 C3210 1.363 . S
C3211 C3217 1.428 . S
H3212 C3208 0.930 . S
H3213 C3210 0.929 . S
S3214 N3215 1.613 . S
S3214 N3216 1.610 . S
N3215 S3214 1.613 . S
N3215 C3218 1.350 . S
N3216 S3214 1.610 . S
N3216 C3217 1.351 . S
C3217 C3211 1.428 . S
C3217 N3216 1.351 . S
C3217 C3218 1.434 . S
C3218 C3209 1.429 . S
C3218 N3215 1.350 . S
C3218 C3217 1.434 . S
C3219 C3220 1.369 . S
C3219 C3221 1.419 . S
C3219 H3223 0.930 . S
C3220 C3219 1.369 . S
C3220 C3229 1.429 . S
C3221 C3219 1.419 . S
C3221 C3222 1.363 . S
C3221 H3224 0.929 . S
C3222 C3221 1.363 . S
C3222 C3228 1.428 . S
H3223 C3219 0.930 . S
H3224 C3221 0.929 . S
S3225 N3226 1.613 . S
S3225 N3227 1.610 . S
N3226 S3225 1.613 . S
N3226 C3229 1.350 . S
N3227 S3225 1.610 . S
N3227 C3228 1.351 . S
C3228 C3222 1.428 . S
C3228 N3227 1.351 . S
C3228 C3229 1.434 . S
C3229 C3220 1.429 . S
C3229 N3226 1.350 . S
C3229 C3228 1.434 . S
C3230 C3231 1.369 . S
C3230 C3232 1.419 . S
C3230 H3234 0.930 . S
C3231 C3230 1.369 . S
C3231 C3240 1.429 . S
C3232 C3230 1.419 . S
C3232 C3233 1.363 . S
C3232 H3235 0.929 . S
C3233 C3232 1.363 . S
C3233 C3239 1.428 . S
H3234 C3230 0.930 . S
H3235 C3232 0.929 . S
S3236 N3237 1.613 . S
S3236 N3238 1.610 . S
N3237 S3236 1.613 . S
N3237 C3240 1.350 . S
N3238 S3236 1.610 . S
N3238 C3239 1.351 . S
C3239 C3233 1.428 . S
C3239 N3238 1.351 . S
C3239 C3240 1.434 . S
C3240 C3231 1.429 . S
C3240 N3237 1.350 . S
C3240 C3239 1.434 . S
C3241 C3242 1.369 . S
C3241 C3243 1.419 . S
C3241 H3245 0.930 . S
C3242 C3241 1.369 . S
C3242 C3251 1.429 . S
C3243 C3241 1.419 . S
C3243 C3244 1.363 . S
C3243 H3246 0.929 . S
C3244 C3243 1.363 . S
C3244 C3250 1.428 . S
H3245 C3241 0.930 . S
H3246 C3243 0.929 . S
S3247 N3248 1.613 . S
S3247 N3249 1.610 . S
N3248 S3247 1.613 . S
N3248 C3251 1.350 . S
N3249 S3247 1.610 . S
N3249 C3250 1.351 . S
C3250 C3244 1.428 . S
C3250 N3249 1.351 . S
C3250 C3251 1.434 . S
C3251 C3242 1.429 . S
C3251 N3248 1.350 . S
C3251 C3250 1.434 . S
C3252 C3253 1.369 . S
C3252 C3254 1.419 . S
C3252 H3256 0.930 . S
C3253 C3252 1.369 . S
C3253 C3262 1.429 . S
C3254 C3252 1.419 . S
C3254 C3255 1.363 . S
C3254 H3257 0.929 . S
C3255 C3254 1.363 . S
C3255 C3261 1.428 . S
H3256 C3252 0.930 . S
H3257 C3254 0.929 . S
S3258 N3259 1.613 . S
S3258 N3260 1.610 . S
N3259 S3258 1.613 . S
N3259 C3262 1.350 . S
N3260 S3258 1.610 . S
N3260 C3261 1.351 . S
C3261 C3255 1.428 . S
C3261 N3260 1.351 . S
C3261 C3262 1.434 . S
C3262 C3253 1.429 . S
C3262 N3259 1.350 . S
C3262 C3261 1.434 . S
C3263 C3264 1.369 . S
C3263 C3265 1.419 . S
C3263 H3267 0.930 . S
C3264 C3263 1.369 . S
C3264 C3273 1.429 . S
C3265 C3263 1.419 . S
C3265 C3266 1.363 . S
C3265 H3268 0.929 . S
C3266 C3265 1.363 . S
C3266 C3272 1.428 . S
H3267 C3263 0.930 . S
H3268 C3265 0.929 . S
S3269 N3270 1.613 . S
S3269 N3271 1.610 . S
N3270 S3269 1.613 . S
N3270 C3273 1.350 . S
N3271 S3269 1.610 . S
N3271 C3272 1.351 . S
C3272 C3266 1.428 . S
C3272 N3271 1.351 . S
C3272 C3273 1.434 . S
C3273 C3264 1.429 . S
C3273 N3270 1.350 . S
C3273 C3272 1.434 . S
C3274 C3275 1.369 . S
C3274 C3276 1.419 . S
C3274 H3278 0.930 . S
C3275 C3274 1.369 . S
C3275 C3284 1.429 . S
C3276 C3274 1.419 . S
C3276 C3277 1.363 . S
C3276 H3279 0.929 . S
C3277 C3276 1.363 . S
C3277 C3283 1.428 . S
H3278 C3274 0.930 . S
H3279 C3276 0.929 . S
S3280 N3281 1.613 . S
S3280 N3282 1.610 . S
N3281 S3280 1.613 . S
N3281 C3284 1.350 . S
N3282 S3280 1.610 . S
N3282 C3283 1.351 . S
C3283 C3277 1.428 . S
C3283 N3282 1.351 . S
C3283 C3284 1.434 . S
C3284 C3275 1.429 . S
C3284 N3281 1.350 . S
C3284 C3283 1.434 . S
C3285 C3286 1.369 . S
C3285 C3287 1.419 . S
C3285 H3289 0.930 . S
C3286 C3285 1.369 . S
C3286 C3295 1.429 . S
C3287 C3285 1.419 . S
C3287 C3288 1.363 . S
C3287 H3290 0.929 . S
C3288 C3287 1.363 . S
C3288 C3294 1.428 . S
H3289 C3285 0.930 . S
H3290 C3287 0.929 . S
S3291 N3292 1.613 . S
S3291 N3293 1.610 . S
N3292 S3291 1.613 . S
N3292 C3295 1.350 . S
N3293 S3291 1.610 . S
N3293 C3294 1.351 . S
C3294 C3288 1.428 . S
C3294 N3293 1.351 . S
C3294 C3295 1.434 . S
C3295 C3286 1.429 . S
C3295 N3292 1.350 . S
C3295 C3294 1.434 . S
C3296 C3297 1.369 . S
C3296 C3298 1.419 . S
C3296 H3300 0.930 . S
C3297 C3296 1.369 . S
C3297 C3306 1.429 . S
C3298 C3296 1.419 . S
C3298 C3299 1.363 . S
C3298 H3301 0.929 . S
C3299 C3298 1.363 . S
C3299 C3305 1.428 . S
H3300 C3296 0.930 . S
H3301 C3298 0.929 . S
S3302 N3303 1.613 . S
S3302 N3304 1.610 . S
N3303 S3302 1.613 . S
N3303 C3306 1.350 . S
N3304 S3302 1.610 . S
N3304 C3305 1.351 . S
C3305 C3299 1.428 . S
C3305 N3304 1.351 . S
C3305 C3306 1.434 . S
C3306 C3297 1.429 . S
C3306 N3303 1.350 . S
C3306 C3305 1.434 . S
C3307 C3308 1.369 . S
C3307 C3309 1.419 . S
C3307 H3311 0.930 . S
C3308 C3307 1.369 . S
C3308 C3317 1.429 . S
C3309 C3307 1.419 . S
C3309 C3310 1.363 . S
C3309 H3312 0.929 . S
C3310 C3309 1.363 . S
C3310 C3316 1.428 . S
H3311 C3307 0.930 . S
H3312 C3309 0.929 . S
S3313 N3314 1.613 . S
S3313 N3315 1.610 . S
N3314 S3313 1.613 . S
N3314 C3317 1.350 . S
N3315 S3313 1.610 . S
N3315 C3316 1.351 . S
C3316 C3310 1.428 . S
C3316 N3315 1.351 . S
C3316 C3317 1.434 . S
C3317 C3308 1.429 . S
C3317 N3314 1.350 . S
C3317 C3316 1.434 . S
C3318 C3319 1.369 . S
C3318 C3320 1.419 . S
C3318 H3322 0.930 . S
C3319 C3318 1.369 . S
C3319 C3328 1.429 . S
C3320 C3318 1.419 . S
C3320 C3321 1.363 . S
C3320 H3323 0.929 . S
C3321 C3320 1.363 . S
C3321 C3327 1.428 . S
H3322 C3318 0.930 . S
H3323 C3320 0.929 . S
S3324 N3325 1.613 . S
S3324 N3326 1.610 . S
N3325 S3324 1.613 . S
N3325 C3328 1.350 . S
N3326 S3324 1.610 . S
N3326 C3327 1.351 . S
C3327 C3321 1.428 . S
C3327 N3326 1.351 . S
C3327 C3328 1.434 . S
C3328 C3319 1.429 . S
C3328 N3325 1.350 . S
C3328 C3327 1.434 . S
C3329 C3330 1.369 . S
C3329 C3331 1.419 . S
C3329 H3333 0.930 . S
C3330 C3329 1.369 . S
C3330 C3339 1.429 . S
C3331 C3329 1.419 . S
C3331 C3332 1.363 . S
C3331 H3334 0.929 . S
C3332 C3331 1.363 . S
C3332 C3338 1.428 . S
H3333 C3329 0.930 . S
H3334 C3331 0.929 . S
S3335 N3336 1.613 . S
S3335 N3337 1.610 . S
N3336 S3335 1.613 . S
N3336 C3339 1.350 . S
N3337 S3335 1.610 . S
N3337 C3338 1.351 . S
C3338 C3332 1.428 . S
C3338 N3337 1.351 . S
C3338 C3339 1.434 . S
C3339 C3330 1.429 . S
C3339 N3336 1.350 . S
C3339 C3338 1.434 . S
C3340 C3341 1.369 . S
C3340 C3342 1.419 . S
C3340 H3344 0.930 . S
C3341 C3340 1.369 . S
C3341 C3350 1.429 . S
C3342 C3340 1.419 . S
C3342 C3343 1.363 . S
C3342 H3345 0.929 . S
C3343 C3342 1.363 . S
C3343 C3349 1.428 . S
H3344 C3340 0.930 . S
H3345 C3342 0.929 . S
S3346 N3347 1.613 . S
S3346 N3348 1.610 . S
N3347 S3346 1.613 . S
N3347 C3350 1.350 . S
N3348 S3346 1.610 . S
N3348 C3349 1.351 . S
C3349 C3343 1.428 . S
C3349 N3348 1.351 . S
C3349 C3350 1.434 . S
C3350 C3341 1.429 . S
C3350 N3347 1.350 . S
C3350 C3349 1.434 . S
C3351 C3352 1.369 . S
C3351 C3353 1.419 . S
C3351 H3355 0.930 . S
C3352 C3351 1.369 . S
C3352 C3361 1.429 . S
C3353 C3351 1.419 . S
C3353 C3354 1.363 . S
C3353 H3356 0.929 . S
C3354 C3353 1.363 . S
C3354 C3360 1.428 . S
H3355 C3351 0.930 . S
H3356 C3353 0.929 . S
S3357 N3358 1.613 . S
S3357 N3359 1.610 . S
N3358 S3357 1.613 . S
N3358 C3361 1.350 . S
N3359 S3357 1.610 . S
N3359 C3360 1.351 . S
C3360 C3354 1.428 . S
C3360 N3359 1.351 . S
C3360 C3361 1.434 . S
C3361 C3352 1.429 . S
C3361 N3358 1.350 . S
C3361 C3360 1.434 . S
C3362 C3363 1.369 . S
C3362 C3364 1.419 . S
C3362 H3366 0.930 . S
C3363 C3362 1.369 . S
C3363 C3372 1.429 . S
C3364 C3362 1.419 . S
C3364 C3365 1.363 . S
C3364 H3367 0.929 . S
C3365 C3364 1.363 . S
C3365 C3371 1.428 . S
H3366 C3362 0.930 . S
H3367 C3364 0.929 . S
S3368 N3369 1.613 . S
S3368 N3370 1.610 . S
N3369 S3368 1.613 . S
N3369 C3372 1.350 . S
N3370 S3368 1.610 . S
N3370 C3371 1.351 . S
C3371 C3365 1.428 . S
C3371 N3370 1.351 . S
C3371 C3372 1.434 . S
C3372 C3363 1.429 . S
C3372 N3369 1.350 . S
C3372 C3371 1.434 . S
C3373 C3374 1.369 . S
C3373 C3375 1.419 . S
C3373 H3377 0.930 . S
C3374 C3373 1.369 . S
C3374 C3383 1.429 . S
C3375 C3373 1.419 . S
C3375 C3376 1.363 . S
C3375 H3378 0.929 . S
C3376 C3375 1.363 . S
C3376 C3382 1.428 . S
H3377 C3373 0.930 . S
H3378 C3375 0.929 . S
S3379 N3380 1.613 . S
S3379 N3381 1.610 . S
N3380 S3379 1.613 . S
N3380 C3383 1.350 . S
N3381 S3379 1.610 . S
N3381 C3382 1.351 . S
C3382 C3376 1.428 . S
C3382 N3381 1.351 . S
C3382 C3383 1.434 . S
C3383 C3374 1.429 . S
C3383 N3380 1.350 . S
C3383 C3382 1.434 . S
C3384 C3385 1.369 . S
C3384 C3386 1.419 . S
C3384 H3388 0.930 . S
C3385 C3384 1.369 . S
C3385 C3394 1.429 . S
C3386 C3384 1.419 . S
C3386 C3387 1.363 . S
C3386 H3389 0.929 . S
C3387 C3386 1.363 . S
C3387 C3393 1.428 . S
H3388 C3384 0.930 . S
H3389 C3386 0.929 . S
S3390 N3391 1.613 . S
S3390 N3392 1.610 . S
N3391 S3390 1.613 . S
N3391 C3394 1.350 . S
N3392 S3390 1.610 . S
N3392 C3393 1.351 . S
C3393 C3387 1.428 . S
C3393 N3392 1.351 . S
C3393 C3394 1.434 . S
C3394 C3385 1.429 . S
C3394 N3391 1.350 . S
C3394 C3393 1.434 . S
C3395 C3396 1.369 . S
C3395 C3397 1.419 . S
C3395 H3399 0.930 . S
C3396 C3395 1.369 . S
C3396 C3405 1.429 . S
C3397 C3395 1.419 . S
C3397 C3398 1.363 . S
C3397 H3400 0.929 . S
C3398 C3397 1.363 . S
C3398 C3404 1.428 . S
H3399 C3395 0.930 . S
H3400 C3397 0.929 . S
S3401 N3402 1.613 . S
S3401 N3403 1.610 . S
N3402 S3401 1.613 . S
N3402 C3405 1.350 . S
N3403 S3401 1.610 . S
N3403 C3404 1.351 . S
C3404 C3398 1.428 . S
C3404 N3403 1.351 . S
C3404 C3405 1.434 . S
C3405 C3396 1.429 . S
C3405 N3402 1.350 . S
C3405 C3404 1.434 . S
C3406 C3407 1.369 . S
C3406 C3408 1.419 . S
C3406 H3410 0.930 . S
C3407 C3406 1.369 . S
C3407 C3416 1.429 . S
C3408 C3406 1.419 . S
C3408 C3409 1.363 . S
C3408 H3411 0.929 . S
C3409 C3408 1.363 . S
C3409 C3415 1.428 . S
H3410 C3406 0.930 . S
H3411 C3408 0.929 . S
S3412 N3413 1.613 . S
S3412 N3414 1.610 . S
N3413 S3412 1.613 . S
N3413 C3416 1.350 . S
N3414 S3412 1.610 . S
N3414 C3415 1.351 . S
C3415 C3409 1.428 . S
C3415 N3414 1.351 . S
C3415 C3416 1.434 . S
C3416 C3407 1.429 . S
C3416 N3413 1.350 . S
C3416 C3415 1.434 . S
C3417 C3418 1.369 . S
C3417 C3419 1.419 . S
C3417 H3421 0.930 . S
C3418 C3417 1.369 . S
C3418 C3427 1.429 . S
C3419 C3417 1.419 . S
C3419 C3420 1.363 . S
C3419 H3422 0.929 . S
C3420 C3419 1.363 . S
C3420 C3426 1.428 . S
H3421 C3417 0.930 . S
H3422 C3419 0.929 . S
S3423 N3424 1.613 . S
S3423 N3425 1.610 . S
N3424 S3423 1.613 . S
N3424 C3427 1.350 . S
N3425 S3423 1.610 . S
N3425 C3426 1.351 . S
C3426 C3420 1.428 . S
C3426 N3425 1.351 . S
C3426 C3427 1.434 . S
C3427 C3418 1.429 . S
C3427 N3424 1.350 . S
C3427 C3426 1.434 . S
C3428 C3429 1.369 . S
C3428 C3430 1.419 . S
C3428 H3432 0.930 . S
C3429 C3428 1.369 . S
C3429 C3438 1.429 . S
C3430 C3428 1.419 . S
C3430 C3431 1.363 . S
C3430 H3433 0.929 . S
C3431 C3430 1.363 . S
C3431 C3437 1.428 . S
H3432 C3428 0.930 . S
H3433 C3430 0.929 . S
S3434 N3435 1.613 . S
S3434 N3436 1.610 . S
N3435 S3434 1.613 . S
N3435 C3438 1.350 . S
N3436 S3434 1.610 . S
N3436 C3437 1.351 . S
C3437 C3431 1.428 . S
C3437 N3436 1.351 . S
C3437 C3438 1.434 . S
C3438 C3429 1.429 . S
C3438 N3435 1.350 . S
C3438 C3437 1.434 . S
C3439 C3440 1.369 . S
C3439 C3441 1.419 . S
C3439 H3443 0.930 . S
C3440 C3439 1.369 . S
C3440 C3449 1.429 . S
C3441 C3439 1.419 . S
C3441 C3442 1.363 . S
C3441 H3444 0.929 . S
C3442 C3441 1.363 . S
C3442 C3448 1.428 . S
H3443 C3439 0.930 . S
H3444 C3441 0.929 . S
S3445 N3446 1.613 . S
S3445 N3447 1.610 . S
N3446 S3445 1.613 . S
N3446 C3449 1.350 . S
N3447 S3445 1.610 . S
N3447 C3448 1.351 . S
C3448 C3442 1.428 . S
C3448 N3447 1.351 . S
C3448 C3449 1.434 . S
C3449 C3440 1.429 . S
C3449 N3446 1.350 . S
C3449 C3448 1.434 . S
C3450 C3451 1.369 . S
C3450 C3452 1.419 . S
C3450 H3454 0.930 . S
C3451 C3450 1.369 . S
C3451 C3460 1.429 . S
C3452 C3450 1.419 . S
C3452 C3453 1.363 . S
C3452 H3455 0.929 . S
C3453 C3452 1.363 . S
C3453 C3459 1.428 . S
H3454 C3450 0.930 . S
H3455 C3452 0.929 . S
S3456 N3457 1.613 . S
S3456 N3458 1.610 . S
N3457 S3456 1.613 . S
N3457 C3460 1.350 . S
N3458 S3456 1.610 . S
N3458 C3459 1.351 . S
C3459 C3453 1.428 . S
C3459 N3458 1.351 . S
C3459 C3460 1.434 . S
C3460 C3451 1.429 . S
C3460 N3457 1.350 . S
C3460 C3459 1.434 . S
C3461 C3462 1.369 . S
C3461 C3463 1.419 . S
C3461 H3465 0.930 . S
C3462 C3461 1.369 . S
C3462 C3471 1.429 . S
C3463 C3461 1.419 . S
C3463 C3464 1.363 . S
C3463 H3466 0.929 . S
C3464 C3463 1.363 . S
C3464 C3470 1.428 . S
H3465 C3461 0.930 . S
H3466 C3463 0.929 . S
S3467 N3468 1.613 . S
S3467 N3469 1.610 . S
N3468 S3467 1.613 . S
N3468 C3471 1.350 . S
N3469 S3467 1.610 . S
N3469 C3470 1.351 . S
C3470 C3464 1.428 . S
C3470 N3469 1.351 . S
C3470 C3471 1.434 . S
C3471 C3462 1.429 . S
C3471 N3468 1.350 . S
C3471 C3470 1.434 . S
C3472 C3473 1.369 . S
C3472 C3474 1.419 . S
C3472 H3476 0.930 . S
C3473 C3472 1.369 . S
C3473 C3482 1.429 . S
C3474 C3472 1.419 . S
C3474 C3475 1.363 . S
C3474 H3477 0.929 . S
C3475 C3474 1.363 . S
C3475 C3481 1.428 . S
H3476 C3472 0.930 . S
H3477 C3474 0.929 . S
S3478 N3479 1.613 . S
S3478 N3480 1.610 . S
N3479 S3478 1.613 . S
N3479 C3482 1.350 . S
N3480 S3478 1.610 . S
N3480 C3481 1.351 . S
C3481 C3475 1.428 . S
C3481 N3480 1.351 . S
C3481 C3482 1.434 . S
C3482 C3473 1.429 . S
C3482 N3479 1.350 . S
C3482 C3481 1.434 . S
C3483 C3484 1.369 . S
C3483 C3485 1.419 . S
C3483 H3487 0.930 . S
C3484 C3483 1.369 . S
C3484 C3493 1.429 . S
C3485 C3483 1.419 . S
C3485 C3486 1.363 . S
C3485 H3488 0.929 . S
C3486 C3485 1.363 . S
C3486 C3492 1.428 . S
H3487 C3483 0.930 . S
H3488 C3485 0.929 . S
S3489 N3490 1.613 . S
S3489 N3491 1.610 . S
N3490 S3489 1.613 . S
N3490 C3493 1.350 . S
N3491 S3489 1.610 . S
N3491 C3492 1.351 . S
C3492 C3486 1.428 . S
C3492 N3491 1.351 . S
C3492 C3493 1.434 . S
C3493 C3484 1.429 . S
C3493 N3490 1.350 . S
C3493 C3492 1.434 . S
C3494 C3495 1.369 . S
C3494 C3496 1.419 . S
C3494 H3498 0.930 . S
C3495 C3494 1.369 . S
C3495 C3504 1.429 . S
C3496 C3494 1.419 . S
C3496 C3497 1.363 . S
C3496 H3499 0.929 . S
C3497 C3496 1.363 . S
C3497 C3503 1.428 . S
H3498 C3494 0.930 . S
H3499 C3496 0.929 . S
S3500 N3501 1.613 . S
S3500 N3502 1.610 . S
N3501 S3500 1.613 . S
N3501 C3504 1.350 . S
N3502 S3500 1.610 . S
N3502 C3503 1.351 . S
C3503 C3497 1.428 . S
C3503 N3502 1.351 . S
C3503 C3504 1.434 . S
C3504 C3495 1.429 . S
C3504 N3501 1.350 . S
C3504 C3503 1.434 . S
C3505 C3506 1.369 . S
C3505 C3507 1.419 . S
C3505 H3509 0.930 . S
C3506 C3505 1.369 . S
C3506 C3515 1.429 . S
C3507 C3505 1.419 . S
C3507 C3508 1.363 . S
C3507 H3510 0.929 . S
C3508 C3507 1.363 . S
C3508 C3514 1.428 . S
H3509 C3505 0.930 . S
H3510 C3507 0.929 . S
S3511 N3512 1.613 . S
S3511 N3513 1.610 . S
N3512 S3511 1.613 . S
N3512 C3515 1.350 . S
N3513 S3511 1.610 . S
N3513 C3514 1.351 . S
C3514 C3508 1.428 . S
C3514 N3513 1.351 . S
C3514 C3515 1.434 . S
C3515 C3506 1.429 . S
C3515 N3512 1.350 . S
C3515 C3514 1.434 . S
C3516 C3517 1.369 . S
C3516 C3518 1.419 . S
C3516 H3520 0.930 . S
C3517 C3516 1.369 . S
C3517 C3526 1.429 . S
C3518 C3516 1.419 . S
C3518 C3519 1.363 . S
C3518 H3521 0.929 . S
C3519 C3518 1.363 . S
C3519 C3525 1.428 . S
H3520 C3516 0.930 . S
H3521 C3518 0.929 . S
S3522 N3523 1.613 . S
S3522 N3524 1.610 . S
N3523 S3522 1.613 . S
N3523 C3526 1.350 . S
N3524 S3522 1.610 . S
N3524 C3525 1.351 . S
C3525 C3519 1.428 . S
C3525 N3524 1.351 . S
C3525 C3526 1.434 . S
C3526 C3517 1.429 . S
C3526 N3523 1.350 . S
C3526 C3525 1.434 . S
C3527 C3528 1.369 . S
C3527 C3529 1.419 . S
C3527 H3531 0.930 . S
C3528 C3527 1.369 . S
C3528 C3537 1.429 . S
C3529 C3527 1.419 . S
C3529 C3530 1.363 . S
C3529 H3532 0.929 . S
C3530 C3529 1.363 . S
C3530 C3536 1.428 . S
H3531 C3527 0.930 . S
H3532 C3529 0.929 . S
S3533 N3534 1.613 . S
S3533 N3535 1.610 . S
N3534 S3533 1.613 . S
N3534 C3537 1.350 . S
N3535 S3533 1.610 . S
N3535 C3536 1.351 . S
C3536 C3530 1.428 . S
C3536 N3535 1.351 . S
C3536 C3537 1.434 . S
C3537 C3528 1.429 . S
C3537 N3534 1.350 . S
C3537 C3536 1.434 . S
C3538 C3539 1.369 . S
C3538 C3540 1.419 . S
C3538 H3542 0.930 . S
C3539 C3538 1.369 . S
C3539 C3548 1.429 . S
C3540 C3538 1.419 . S
C3540 C3541 1.363 . S
C3540 H3543 0.929 . S
C3541 C3540 1.363 . S
C3541 C3547 1.428 . S
H3542 C3538 0.930 . S
H3543 C3540 0.929 . S
S3544 N3545 1.613 . S
S3544 N3546 1.610 . S
N3545 S3544 1.613 . S
N3545 C3548 1.350 . S
N3546 S3544 1.610 . S
N3546 C3547 1.351 . S
C3547 C3541 1.428 . S
C3547 N3546 1.351 . S
C3547 C3548 1.434 . S
C3548 C3539 1.429 . S
C3548 N3545 1.350 . S
C3548 C3547 1.434 . S
C3549 C3550 1.369 . S
C3549 C3551 1.419 . S
C3549 H3553 0.930 . S
C3550 C3549 1.369 . S
C3550 C3559 1.429 . S
C3551 C3549 1.419 . S
C3551 C3552 1.363 . S
C3551 H3554 0.929 . S
C3552 C3551 1.363 . S
C3552 C3558 1.428 . S
H3553 C3549 0.930 . S
H3554 C3551 0.929 . S
S3555 N3556 1.613 . S
S3555 N3557 1.610 . S
N3556 S3555 1.613 . S
N3556 C3559 1.350 . S
N3557 S3555 1.610 . S
N3557 C3558 1.351 . S
C3558 C3552 1.428 . S
C3558 N3557 1.351 . S
C3558 C3559 1.434 . S
C3559 C3550 1.429 . S
C3559 N3556 1.350 . S
C3559 C3558 1.434 . S
C3560 C3561 1.369 . S
C3560 C3562 1.419 . S
C3560 H3564 0.930 . S
C3561 C3560 1.369 . S
C3561 C3570 1.429 . S
C3562 C3560 1.419 . S
C3562 C3563 1.363 . S
C3562 H3565 0.929 . S
C3563 C3562 1.363 . S
C3563 C3569 1.428 . S
H3564 C3560 0.930 . S
H3565 C3562 0.929 . S
S3566 N3567 1.613 . S
S3566 N3568 1.610 . S
N3567 S3566 1.613 . S
N3567 C3570 1.350 . S
N3568 S3566 1.610 . S
N3568 C3569 1.351 . S
C3569 C3563 1.428 . S
C3569 N3568 1.351 . S
C3569 C3570 1.434 . S
C3570 C3561 1.429 . S
C3570 N3567 1.350 . S
C3570 C3569 1.434 . S
C3571 C3572 1.369 . S
C3571 C3573 1.419 . S
C3571 H3575 0.930 . S
C3572 C3571 1.369 . S
C3572 C3581 1.429 . S
C3573 C3571 1.419 . S
C3573 C3574 1.363 . S
C3573 H3576 0.929 . S
C3574 C3573 1.363 . S
C3574 C3580 1.428 . S
H3575 C3571 0.930 . S
H3576 C3573 0.929 . S
S3577 N3578 1.613 . S
S3577 N3579 1.610 . S
N3578 S3577 1.613 . S
N3578 C3581 1.350 . S
N3579 S3577 1.610 . S
N3579 C3580 1.351 . S
C3580 C3574 1.428 . S
C3580 N3579 1.351 . S
C3580 C3581 1.434 . S
C3581 C3572 1.429 . S
C3581 N3578 1.350 . S
C3581 C3580 1.434 . S
C3582 C3583 1.369 . S
C3582 C3584 1.419 . S
C3582 H3586 0.930 . S
C3583 C3582 1.369 . S
C3583 C3592 1.429 . S
C3584 C3582 1.419 . S
C3584 C3585 1.363 . S
C3584 H3587 0.929 . S
C3585 C3584 1.363 . S
C3585 C3591 1.428 . S
H3586 C3582 0.930 . S
H3587 C3584 0.929 . S
S3588 N3589 1.613 . S
S3588 N3590 1.610 . S
N3589 S3588 1.613 . S
N3589 C3592 1.350 . S
N3590 S3588 1.610 . S
N3590 C3591 1.351 . S
C3591 C3585 1.428 . S
C3591 N3590 1.351 . S
C3591 C3592 1.434 . S
C3592 C3583 1.429 . S
C3592 N3589 1.350 . S
C3592 C3591 1.434 . S
C3593 C3594 1.369 . S
C3593 C3595 1.419 . S
C3593 H3597 0.930 . S
C3594 C3593 1.369 . S
C3594 C3603 1.429 . S
C3595 C3593 1.419 . S
C3595 C3596 1.363 . S
C3595 H3598 0.929 . S
C3596 C3595 1.363 . S
C3596 C3602 1.428 . S
H3597 C3593 0.930 . S
H3598 C3595 0.929 . S
S3599 N3600 1.613 . S
S3599 N3601 1.610 . S
N3600 S3599 1.613 . S
N3600 C3603 1.350 . S
N3601 S3599 1.610 . S
N3601 C3602 1.351 . S
C3602 C3596 1.428 . S
C3602 N3601 1.351 . S
C3602 C3603 1.434 . S
C3603 C3594 1.429 . S
C3603 N3600 1.350 . S
C3603 C3602 1.434 . S
C3604 C3605 1.369 . S
C3604 C3606 1.419 . S
C3604 H3608 0.930 . S
C3605 C3604 1.369 . S
C3605 C3614 1.429 . S
C3606 C3604 1.419 . S
C3606 C3607 1.363 . S
C3606 H3609 0.929 . S
C3607 C3606 1.363 . S
C3607 C3613 1.428 . S
H3608 C3604 0.930 . S
H3609 C3606 0.929 . S
S3610 N3611 1.613 . S
S3610 N3612 1.610 . S
N3611 S3610 1.613 . S
N3611 C3614 1.350 . S
N3612 S3610 1.610 . S
N3612 C3613 1.351 . S
C3613 C3607 1.428 . S
C3613 N3612 1.351 . S
C3613 C3614 1.434 . S
C3614 C3605 1.429 . S
C3614 N3611 1.350 . S
C3614 C3613 1.434 . S
C3615 C3616 1.369 . S
C3615 C3617 1.419 . S
C3615 H3619 0.930 . S
C3616 C3615 1.369 . S
C3616 C3625 1.429 . S
C3617 C3615 1.419 . S
C3617 C3618 1.363 . S
C3617 H3620 0.929 . S
C3618 C3617 1.363 . S
C3618 C3624 1.428 . S
H3619 C3615 0.930 . S
H3620 C3617 0.929 . S
S3621 N3622 1.613 . S
S3621 N3623 1.610 . S
N3622 S3621 1.613 . S
N3622 C3625 1.350 . S
N3623 S3621 1.610 . S
N3623 C3624 1.351 . S
C3624 C3618 1.428 . S
C3624 N3623 1.351 . S
C3624 C3625 1.434 . S
C3625 C3616 1.429 . S
C3625 N3622 1.350 . S
C3625 C3624 1.434 . S
C3626 C3627 1.369 . S
C3626 C3628 1.419 . S
C3626 H3630 0.930 . S
C3627 C3626 1.369 . S
C3627 C3636 1.429 . S
C3628 C3626 1.419 . S
C3628 C3629 1.363 . S
C3628 H3631 0.929 . S
C3629 C3628 1.363 . S
C3629 C3635 1.428 . S
H3630 C3626 0.930 . S
H3631 C3628 0.929 . S
S3632 N3633 1.613 . S
S3632 N3634 1.610 . S
N3633 S3632 1.613 . S
N3633 C3636 1.350 . S
N3634 S3632 1.610 . S
N3634 C3635 1.351 . S
C3635 C3629 1.428 . S
C3635 N3634 1.351 . S
C3635 C3636 1.434 . S
C3636 C3627 1.429 . S
C3636 N3633 1.350 . S
C3636 C3635 1.434 . S
C3637 C3638 1.369 . S
C3637 C3639 1.419 . S
C3637 H3641 0.930 . S
C3638 C3637 1.369 . S
C3638 C3647 1.429 . S
C3639 C3637 1.419 . S
C3639 C3640 1.363 . S
C3639 H3642 0.929 . S
C3640 C3639 1.363 . S
C3640 C3646 1.428 . S
H3641 C3637 0.930 . S
H3642 C3639 0.929 . S
S3643 N3644 1.613 . S
S3643 N3645 1.610 . S
N3644 S3643 1.613 . S
N3644 C3647 1.350 . S
N3645 S3643 1.610 . S
N3645 C3646 1.351 . S
C3646 C3640 1.428 . S
C3646 N3645 1.351 . S
C3646 C3647 1.434 . S
C3647 C3638 1.429 . S
C3647 N3644 1.350 . S
C3647 C3646 1.434 . S
C3648 C3649 1.369 . S
C3648 C3650 1.419 . S
C3648 H3652 0.930 . S
C3649 C3648 1.369 . S
C3649 C3658 1.429 . S
C3650 C3648 1.419 . S
C3650 C3651 1.363 . S
C3650 H3653 0.929 . S
C3651 C3650 1.363 . S
C3651 C3657 1.428 . S
H3652 C3648 0.930 . S
H3653 C3650 0.929 . S
S3654 N3655 1.613 . S
S3654 N3656 1.610 . S
N3655 S3654 1.613 . S
N3655 C3658 1.350 . S
N3656 S3654 1.610 . S
N3656 C3657 1.351 . S
C3657 C3651 1.428 . S
C3657 N3656 1.351 . S
C3657 C3658 1.434 . S
C3658 C3649 1.429 . S
C3658 N3655 1.350 . S
C3658 C3657 1.434 . S
C3659 C3660 1.369 . S
C3659 C3661 1.419 . S
C3659 H3663 0.930 . S
C3660 C3659 1.369 . S
C3660 C3669 1.429 . S
C3661 C3659 1.419 . S
C3661 C3662 1.363 . S
C3661 H3664 0.929 . S
C3662 C3661 1.363 . S
C3662 C3668 1.428 . S
H3663 C3659 0.930 . S
H3664 C3661 0.929 . S
S3665 N3666 1.613 . S
S3665 N3667 1.610 . S
N3666 S3665 1.613 . S
N3666 C3669 1.350 . S
N3667 S3665 1.610 . S
N3667 C3668 1.351 . S
C3668 C3662 1.428 . S
C3668 N3667 1.351 . S
C3668 C3669 1.434 . S
C3669 C3660 1.429 . S
C3669 N3666 1.350 . S
C3669 C3668 1.434 . S
C3670 C3671 1.369 . S
C3670 C3672 1.419 . S
C3670 H3674 0.930 . S
C3671 C3670 1.369 . S
C3671 C3680 1.429 . S
C3672 C3670 1.419 . S
C3672 C3673 1.363 . S
C3672 H3675 0.929 . S
C3673 C3672 1.363 . S
C3673 C3679 1.428 . S
H3674 C3670 0.930 . S
H3675 C3672 0.929 . S
S3676 N3677 1.613 . S
S3676 N3678 1.610 . S
N3677 S3676 1.613 . S
N3677 C3680 1.350 . S
N3678 S3676 1.610 . S
N3678 C3679 1.351 . S
C3679 C3673 1.428 . S
C3679 N3678 1.351 . S
C3679 C3680 1.434 . S
C3680 C3671 1.429 . S
C3680 N3677 1.350 . S
C3680 C3679 1.434 . S
C3681 C3682 1.369 . S
C3681 C3683 1.419 . S
C3681 H3685 0.930 . S
C3682 C3681 1.369 . S
C3682 C3691 1.429 . S
C3683 C3681 1.419 . S
C3683 C3684 1.363 . S
C3683 H3686 0.929 . S
C3684 C3683 1.363 . S
C3684 C3690 1.428 . S
H3685 C3681 0.930 . S
H3686 C3683 0.929 . S
S3687 N3688 1.613 . S
S3687 N3689 1.610 . S
N3688 S3687 1.613 . S
N3688 C3691 1.350 . S
N3689 S3687 1.610 . S
N3689 C3690 1.351 . S
C3690 C3684 1.428 . S
C3690 N3689 1.351 . S
C3690 C3691 1.434 . S
C3691 C3682 1.429 . S
C3691 N3688 1.350 . S
C3691 C3690 1.434 . S
C3692 C3693 1.369 . S
C3692 C3694 1.419 . S
C3692 H3696 0.930 . S
C3693 C3692 1.369 . S
C3693 C3702 1.429 . S
C3694 C3692 1.419 . S
C3694 C3695 1.363 . S
C3694 H3697 0.929 . S
C3695 C3694 1.363 . S
C3695 C3701 1.428 . S
H3696 C3692 0.930 . S
H3697 C3694 0.929 . S
S3698 N3699 1.613 . S
S3698 N3700 1.610 . S
N3699 S3698 1.613 . S
N3699 C3702 1.350 . S
N3700 S3698 1.610 . S
N3700 C3701 1.351 . S
C3701 C3695 1.428 . S
C3701 N3700 1.351 . S
C3701 C3702 1.434 . S
C3702 C3693 1.429 . S
C3702 N3699 1.350 . S
C3702 C3701 1.434 . S
C3703 C3704 1.369 . S
C3703 C3705 1.419 . S
C3703 H3707 0.930 . S
C3704 C3703 1.369 . S
C3704 C3713 1.429 . S
C3705 C3703 1.419 . S
C3705 C3706 1.363 . S
C3705 H3708 0.929 . S
C3706 C3705 1.363 . S
C3706 C3712 1.428 . S
H3707 C3703 0.930 . S
H3708 C3705 0.929 . S
S3709 N3710 1.613 . S
S3709 N3711 1.610 . S
N3710 S3709 1.613 . S
N3710 C3713 1.350 . S
N3711 S3709 1.610 . S
N3711 C3712 1.351 . S
C3712 C3706 1.428 . S
C3712 N3711 1.351 . S
C3712 C3713 1.434 . S
C3713 C3704 1.429 . S
C3713 N3710 1.350 . S
C3713 C3712 1.434 . S
C3714 C3715 1.369 . S
C3714 C3716 1.419 . S
C3714 H3718 0.930 . S
C3715 C3714 1.369 . S
C3715 C3724 1.429 . S
C3716 C3714 1.419 . S
C3716 C3717 1.363 . S
C3716 H3719 0.929 . S
C3717 C3716 1.363 . S
C3717 C3723 1.428 . S
H3718 C3714 0.930 . S
H3719 C3716 0.929 . S
S3720 N3721 1.613 . S
S3720 N3722 1.610 . S
N3721 S3720 1.613 . S
N3721 C3724 1.350 . S
N3722 S3720 1.610 . S
N3722 C3723 1.351 . S
C3723 C3717 1.428 . S
C3723 N3722 1.351 . S
C3723 C3724 1.434 . S
C3724 C3715 1.429 . S
C3724 N3721 1.350 . S
C3724 C3723 1.434 . S
C3725 C3726 1.369 . S
C3725 C3727 1.419 . S
C3725 H3729 0.930 . S
C3726 C3725 1.369 . S
C3726 C3735 1.429 . S
C3727 C3725 1.419 . S
C3727 C3728 1.363 . S
C3727 H3730 0.929 . S
C3728 C3727 1.363 . S
C3728 C3734 1.428 . S
H3729 C3725 0.930 . S
H3730 C3727 0.929 . S
S3731 N3732 1.613 . S
S3731 N3733 1.610 . S
N3732 S3731 1.613 . S
N3732 C3735 1.350 . S
N3733 S3731 1.610 . S
N3733 C3734 1.351 . S
C3734 C3728 1.428 . S
C3734 N3733 1.351 . S
C3734 C3735 1.434 . S
C3735 C3726 1.429 . S
C3735 N3732 1.350 . S
C3735 C3734 1.434 . S
C3736 C3737 1.369 . S
C3736 C3738 1.419 . S
C3736 H3740 0.930 . S
C3737 C3736 1.369 . S
C3737 C3746 1.429 . S
C3738 C3736 1.419 . S
C3738 C3739 1.363 . S
C3738 H3741 0.929 . S
C3739 C3738 1.363 . S
C3739 C3745 1.428 . S
H3740 C3736 0.930 . S
H3741 C3738 0.929 . S
S3742 N3743 1.613 . S
S3742 N3744 1.610 . S
N3743 S3742 1.613 . S
N3743 C3746 1.350 . S
N3744 S3742 1.610 . S
N3744 C3745 1.351 . S
C3745 C3739 1.428 . S
C3745 N3744 1.351 . S
C3745 C3746 1.434 . S
C3746 C3737 1.429 . S
C3746 N3743 1.350 . S
C3746 C3745 1.434 . S
C3747 C3748 1.369 . S
C3747 C3749 1.419 . S
C3747 H3751 0.930 . S
C3748 C3747 1.369 . S
C3748 C3757 1.429 . S
C3749 C3747 1.419 . S
C3749 C3750 1.363 . S
C3749 H3752 0.929 . S
C3750 C3749 1.363 . S
C3750 C3756 1.428 . S
H3751 C3747 0.930 . S
H3752 C3749 0.929 . S
S3753 N3754 1.613 . S
S3753 N3755 1.610 . S
N3754 S3753 1.613 . S
N3754 C3757 1.350 . S
N3755 S3753 1.610 . S
N3755 C3756 1.351 . S
C3756 C3750 1.428 . S
C3756 N3755 1.351 . S
C3756 C3757 1.434 . S
C3757 C3748 1.429 . S
C3757 N3754 1.350 . S
C3757 C3756 1.434 . S
C3758 C3759 1.369 . S
C3758 C3760 1.419 . S
C3758 H3762 0.930 . S
C3759 C3758 1.369 . S
C3759 C3768 1.429 . S
C3760 C3758 1.419 . S
C3760 C3761 1.363 . S
C3760 H3763 0.929 . S
C3761 C3760 1.363 . S
C3761 C3767 1.428 . S
H3762 C3758 0.930 . S
H3763 C3760 0.929 . S
S3764 N3765 1.613 . S
S3764 N3766 1.610 . S
N3765 S3764 1.613 . S
N3765 C3768 1.350 . S
N3766 S3764 1.610 . S
N3766 C3767 1.351 . S
C3767 C3761 1.428 . S
C3767 N3766 1.351 . S
C3767 C3768 1.434 . S
C3768 C3759 1.429 . S
C3768 N3765 1.350 . S
C3768 C3767 1.434 . S
C3769 C3770 1.369 . S
C3769 C3771 1.419 . S
C3769 H3773 0.930 . S
C3770 C3769 1.369 . S
C3770 C3779 1.429 . S
C3771 C3769 1.419 . S
C3771 C3772 1.363 . S
C3771 H3774 0.929 . S
C3772 C3771 1.363 . S
C3772 C3778 1.428 . S
H3773 C3769 0.930 . S
H3774 C3771 0.929 . S
S3775 N3776 1.613 . S
S3775 N3777 1.610 . S
N3776 S3775 1.613 . S
N3776 C3779 1.350 . S
N3777 S3775 1.610 . S
N3777 C3778 1.351 . S
C3778 C3772 1.428 . S
C3778 N3777 1.351 . S
C3778 C3779 1.434 . S
C3779 C3770 1.429 . S
C3779 N3776 1.350 . S
C3779 C3778 1.434 . S
C3780 C3781 1.369 . S
C3780 C3782 1.419 . S
C3780 H3784 0.930 . S
C3781 C3780 1.369 . S
C3781 C3790 1.429 . S
C3782 C3780 1.419 . S
C3782 C3783 1.363 . S
C3782 H3785 0.929 . S
C3783 C3782 1.363 . S
C3783 C3789 1.428 . S
H3784 C3780 0.930 . S
H3785 C3782 0.929 . S
S3786 N3787 1.613 . S
S3786 N3788 1.610 . S
N3787 S3786 1.613 . S
N3787 C3790 1.350 . S
N3788 S3786 1.610 . S
N3788 C3789 1.351 . S
C3789 C3783 1.428 . S
C3789 N3788 1.351 . S
C3789 C3790 1.434 . S
C3790 C3781 1.429 . S
C3790 N3787 1.350 . S
C3790 C3789 1.434 . S
C3791 C3792 1.369 . S
C3791 C3793 1.419 . S
C3791 H3795 0.930 . S
C3792 C3791 1.369 . S
C3792 C3801 1.429 . S
C3793 C3791 1.419 . S
C3793 C3794 1.363 . S
C3793 H3796 0.929 . S
C3794 C3793 1.363 . S
C3794 C3800 1.428 . S
H3795 C3791 0.930 . S
H3796 C3793 0.929 . S
S3797 N3798 1.613 . S
S3797 N3799 1.610 . S
N3798 S3797 1.613 . S
N3798 C3801 1.350 . S
N3799 S3797 1.610 . S
N3799 C3800 1.351 . S
C3800 C3794 1.428 . S
C3800 N3799 1.351 . S
C3800 C3801 1.434 . S
C3801 C3792 1.429 . S
C3801 N3798 1.350 . S
C3801 C3800 1.434 . S
C3802 C3803 1.369 . S
C3802 C3804 1.419 . S
C3802 H3806 0.930 . S
C3803 C3802 1.369 . S
C3803 C3812 1.429 . S
C3804 C3802 1.419 . S
C3804 C3805 1.363 . S
C3804 H3807 0.929 . S
C3805 C3804 1.363 . S
C3805 C3811 1.428 . S
H3806 C3802 0.930 . S
H3807 C3804 0.929 . S
S3808 N3809 1.613 . S
S3808 N3810 1.610 . S
N3809 S3808 1.613 . S
N3809 C3812 1.350 . S
N3810 S3808 1.610 . S
N3810 C3811 1.351 . S
C3811 C3805 1.428 . S
C3811 N3810 1.351 . S
C3811 C3812 1.434 . S
C3812 C3803 1.429 . S
C3812 N3809 1.350 . S
C3812 C3811 1.434 . S
C3813 C3814 1.369 . S
C3813 C3815 1.419 . S
C3813 H3817 0.930 . S
C3814 C3813 1.369 . S
C3814 C3823 1.429 . S
C3815 C3813 1.419 . S
C3815 C3816 1.363 . S
C3815 H3818 0.929 . S
C3816 C3815 1.363 . S
C3816 C3822 1.428 . S
H3817 C3813 0.930 . S
H3818 C3815 0.929 . S
S3819 N3820 1.613 . S
S3819 N3821 1.610 . S
N3820 S3819 1.613 . S
N3820 C3823 1.350 . S
N3821 S3819 1.610 . S
N3821 C3822 1.351 . S
C3822 C3816 1.428 . S
C3822 N3821 1.351 . S
C3822 C3823 1.434 . S
C3823 C3814 1.429 . S
C3823 N3820 1.350 . S
C3823 C3822 1.434 . S
C2771 C1327 1.413 . S
C2769 C21 1.535 . S
C2782 C1389 1.352 . S
C2780 C42 1.542 . S
C2791 C82 1.539 . S
C2793 C1451 1.412 . S
C2804 C1519 1.429 . S
C2802 C135 1.488 . S
C2813 C175 1.450 . S
C2815 C1501 1.399 . S
C2824 C221 1.591 . S
C2826 C1309 1.512 . S
C2835 C255 1.615 . S
C2837 C1371 1.506 . S
C2848 C1433 1.501 . S
C2846 C301 1.617 . S
C2859 C1581 1.480 . S
C2857 C15 1.550 . S
C2868 C55 1.548 . S
C2870 C1619 1.388 . S
C2879 C101 1.602 . S
C2881 C1705 1.578 . S
C2892 C1749 1.492 . S
C2890 C141 1.589 . S
C2901 C162 1.419 . S
C2903 C1811 1.415 . S
C2914 C1873 1.547 . S
C2912 C215 1.581 . S
C2923 C261 1.611 . S
C2925 C1929 1.483 . S
C2936 C1991 1.430 . S
C2934 C282 1.559 . S
C2945 C2 1.570 . S
C2947 C1767 1.553 . S
C2956 C181 1.443 . S
C2958 C1891 1.415 . S
C2969 C1947 1.413 . S
C2967 C202 1.541 . S
C2978 C242 1.573 . S
C2980 C2009 1.440 . S
C2991 C1829 1.469 . S
C2989 C295 1.517 . S
C3002 C1637 1.501 . S
C3000 C95 1.615 . S
C3011 C122 1.565 . S
C3013 C1687 1.471 . S
C3024 C1563 1.529 . S
C3022 C61 1.572 . S
C3035 C2071 1.495 . S
C3033 C341 1.619 . S
C3044 C362 1.477 . S
C3046 C2121 1.397 . S
C3055 C402 1.537 . S
C3057 C2177 1.376 . S
C3068 C2263 1.468 . S
C3066 C455 1.549 . S
C3077 C495 1.501 . S
C3079 C2245 1.460 . S
C3088 C541 1.594 . S
C3090 C2053 1.488 . S
C3099 C575 1.524 . S
C3101 C2139 1.485 . S
C3110 C621 1.654 . S
C3112 C2195 1.553 . S
C3123 C1805 1.433 . S
C3121 C335 1.582 . S
C3132 C375 1.475 . S
C3134 C2325 1.423 . S
C3145 C1935 1.540 . S
C3143 C421 1.560 . S
C3154 C461 1.600 . S
C3156 C2387 1.488 . S
C3165 C482 1.460 . S
C3167 C1575 1.346 . S
C3178 C2431 1.527 . S
C3176 C535 1.576 . S
C3187 C581 1.580 . S
C3189 C1699 1.465 . S
C3200 C2487 1.487 . S
C3198 C602 1.596 . S
C3209 C322 1.644 . S
C3211 C2369 1.628 . S
C3222 C2449 1.439 . S
C3220 C501 1.466 . S
C3231 C522 1.532 . S
C3233 C1681 1.415 . S
C3244 C2505 1.383 . S
C3242 C562 1.576 . S
C3253 C615 1.657 . S
C3255 C1557 1.576 . S
C3264 C415 1.519 . S
C3266 C2307 1.478 . S
C3275 C442 1.535 . S
C3277 C1953 1.455 . S
C3286 C381 1.566 . S
C3288 C1823 1.368 . S
C3297 C661 1.468 . S
C3299 C2183 1.443 . S
C3310 C2257 1.331 . S
C3308 C682 1.504 . S
C3319 C722 1.504 . S
C3321 C2077 1.490 . S
C3330 C775 1.570 . S
C3332 C2115 1.402 . S
C3341 C815 1.574 . S
C3343 C2133 1.446 . S
C3352 C861 1.559 . S
C3354 C2201 1.549 . S
C3365 C2239 1.456 . S
C3363 C895 1.593 . S
C3374 C941 1.614 . S
C3376 C2059 1.573 . S
C3387 C2555 1.451 . S
C3385 C655 1.508 . S
C3396 C695 1.554 . S
C3398 C1867 1.435 . S
C3409 C2617 1.553 . S
C3407 C741 1.557 . S
C3418 C781 1.553 . S
C3420 C1997 1.500 . S
C3429 C802 1.498 . S
C3431 C2673 1.364 . S
C3440 C855 1.518 . S
C3442 C1625 1.463 . S
C3453 C2753 1.545 . S
C3451 C901 1.634 . S
C3462 C922 1.589 . S
C3464 C1743 1.421 . S
C3475 C2015 1.477 . S
C3473 C642 1.489 . S
C3486 C1643 1.494 . S
C3484 C821 1.513 . S
C3495 C842 1.526 . S
C3497 C2735 1.386 . S
C3506 C882 1.638 . S
C3508 C1761 1.535 . S
C3519 C2691 1.471 . S
C3517 C935 1.617 . S
C3530 C1885 1.379 . S
C3528 C735 1.565 . S
C3541 C2635 1.491 . S
C3539 C762 1.544 . S
C3552 C2573 1.503 . S
C3550 C701 1.536 . S
C3561 C981 1.492 . S
C3563 C1457 1.480 . S
C3572 C1002 1.534 . S
C3574 C1513 1.348 . S
C3585 C1333 1.453 . S
C3583 C1042 1.492 . S
C3596 C1395 1.434 . S
C3594 C1095 1.516 . S
C3607 C1377 1.520 . S
C3605 C1135 1.550 . S
C3618 C1439 1.564 . S
C3616 C1181 1.584 . S
C3629 C1495 1.403 . S
C3627 C1215 1.576 . S
C3638 C1261 1.605 . S
C3640 C1315 1.564 . S
C3649 C975 1.532 . S
C3651 C2679 1.463 . S
C3662 C2425 1.415 . S
C3660 C1015 1.528 . S
C3673 C2759 1.558 . S
C3671 C1061 1.565 . S
C3684 C2493 1.474 . S
C3682 C1101 1.535 . S
C3693 C1122 1.503 . S
C3695 C2549 1.379 . S
C3706 C2319 1.434 . S
C3704 C1175 1.589 . S
C3717 C2611 1.492 . S
C3715 C1221 1.600 . S
C3726 C1242 1.550 . S
C3728 C2381 1.382 . S
C3739 C2511 1.457 . S
C3737 C962 1.468 . S
C3750 C2301 1.397 . S
C3748 C1141 1.500 . S
C3761 C2629 1.458 . S
C3759 C1162 1.565 . S
C3770 C1202 1.644 . S
C3772 C2363 1.548 . S
C3781 C1255 1.588 . S
C3783 C2567 1.461 . S
C3792 C1055 1.517 . S
C3794 C2443 1.367 . S
C3803 C1082 1.575 . S
C3805 C2741 1.467 . S
C3816 C2697 1.483 . S
C3814 C1021 1.525 . S
