# Generated by pormake.
# Topology anh, (6,3)-cn, num edge types: 1
# Building blocks:
#     Node 0, Type 0, BuildingBlock: BETGAK_clean_sbu_0, # of connection points: 6
#     Node 1, Type 0, BuildingBlock: BETGAK_clean_sbu_0, # of connection points: 6
#     Node 2, Type 0, BuildingBlock: BETGAK_clean_sbu_0, # of connection points: 6
#     Node 3, Type 1, BuildingBlock: BETDAH_clean_linker_0, # of connection points: 3
#     Node 4, Type 1, BuildingBlock: BETDAH_clean_linker_0, # of connection points: 3
#     Node 5, Type 1, BuildingBlock: BETDAH_clean_linker_0, # of connection points: 3
#     Node 6, Type 1, BuildingBlock: BETDAH_clean_linker_0, # of connection points: 3
#     Node 7, Type 1, BuildingBlock: BETDAH_clean_linker_0, # of connection points: 3
#     Node 8, Type 1, BuildingBlock: BETDAH_clean_linker_0, # of connection points: 3
#     Edge 9, Type (0, 1), BuildingBlock: ZUJKAS_clean_linker_0, # of connection points: 2
#     Edge 10, Type (0, 1), BuildingBlock: ZUJKAS_clean_linker_0, # of connection points: 2
#     Edge 11, Type (0, 1), BuildingBlock: ZUJKAS_clean_linker_0, # of connection points: 2
#     Edge 12, Type (0, 1), BuildingBlock: ZUJKAS_clean_linker_0, # of connection points: 2
#     Edge 13, Type (0, 1), BuildingBlock: ZUJKAS_clean_linker_0, # of connection points: 2
#     Edge 14, Type (0, 1), BuildingBlock: ZUJKAS_clean_linker_0, # of connection points: 2
#     Edge 15, Type (0, 1), BuildingBlock: ZUJKAS_clean_linker_0, # of connection points: 2
#     Edge 16, Type (0, 1), BuildingBlock: ZUJKAS_clean_linker_0, # of connection points: 2
#     Edge 17, Type (0, 1), BuildingBlock: ZUJKAS_clean_linker_0, # of connection points: 2
#     Edge 18, Type (0, 1), BuildingBlock: ZUJKAS_clean_linker_0, # of connection points: 2
#     Edge 19, Type (0, 1), BuildingBlock: ZUJKAS_clean_linker_0, # of connection points: 2
#     Edge 20, Type (0, 1), BuildingBlock: ZUJKAS_clean_linker_0, # of connection points: 2
#     Edge 21, Type (0, 1), BuildingBlock: ZUJKAS_clean_linker_0, # of connection points: 2
#     Edge 22, Type (0, 1), BuildingBlock: ZUJKAS_clean_linker_0, # of connection points: 2
#     Edge 23, Type (0, 1), BuildingBlock: ZUJKAS_clean_linker_0, # of connection points: 2
#     Edge 24, Type (0, 1), BuildingBlock: ZUJKAS_clean_linker_0, # of connection points: 2
#     Edge 25, Type (0, 1), BuildingBlock: ZUJKAS_clean_linker_0, # of connection points: 2
#     Edge 26, Type (0, 1), BuildingBlock: ZUJKAS_clean_linker_0, # of connection points: 2
# Relax obj value: 0.120
# Max RMSD: 0.164
# Mean RMSD: 0.106
data_MOF--net-anh--node1-BETGAK_clean_sbu_0--node2-BETDAH_clean_linker_0--edge1-ZUJKAS_clean_linker_0
_symmetry_space_group_name_H-M    P1
_symmetry_Int_Tables_number       1
_symmetry_cell_setting            triclinic
loop_
_symmetry_equiv_pos_as_xyz
'x, y, z'
_cell_length_a     39.616892
_cell_length_b     47.016064
_cell_length_c     64.038638
_cell_angle_alpha  94.235521
_cell_angle_beta   91.091357
_cell_angle_gamma 127.70418
loop_
_atom_site_label
_atom_site_type_symbol
_atom_site_fract_x
_atom_site_fract_y
_atom_site_fract_z
_atom_type_partial_charge
La0 La 0.12453 0.55084 0.1538 0.0
La1 La 0.07977 0.58039 0.17022 0.0
C2 C 0.16549 0.53609 0.13225 0.0
C3 C 0.20644 0.54244 0.13475 0.0
C4 C 0.23052 0.55609 0.15425 0.0
C5 C 0.26514 0.55557 0.15748 0.0
C6 C 0.27602 0.54138 0.14123 0.0
C7 C 0.2534 0.53006 0.12133 0.0
C8 C 0.21887 0.53057 0.11815 0.0
C9 C 0.12203 0.55417 0.19485 0.0
C10 C 0.17648 0.63683 0.16443 0.0
C11 C 1.03542 0.59337 0.19018 0.0
C12 C 0.9922 0.57081 0.19739 0.0
C13 C 0.96271 0.53449 0.18913 0.0
C14 C 0.92095 0.51348 0.19506 0.0
C15 C 0.90762 0.52864 0.20906 0.0
C16 C 0.93742 0.56488 0.21766 0.0
C17 C 0.97962 0.58578 0.21196 0.0
C18 C 0.08467 0.5768 0.12908 0.0
C19 C 1.02917 0.49569 0.1612 0.0
O20 O 0.13751 0.51492 0.14514 0.0
O21 O 0.16698 0.56433 0.13028 0.0
O22 O 0.12431 0.53134 0.1838 0.0
O23 O 0.12666 0.57663 0.18329 0.0
O24 O 0.17476 0.60988 0.15481 0.0
O25 O 0.14378 0.63108 0.17392 0.0
O26 O 1.03721 0.59283 0.1698 0.0
O27 O 1.063 0.59058 0.19921 0.0
O28 O 0.08654 0.60215 0.13995 0.0
O29 O 0.0776 0.55395 0.14096 0.0
O30 O 1.0343 0.52231 0.17328 0.0
O31 O 1.05817 0.50246 0.14817 0.0
H32 H 0.22121 0.56541 0.16723 0.0
H33 H 0.2822 0.56479 0.1729 0.0
H34 H 0.26039 0.51845 0.10854 0.0
H35 H 0.20041 0.5198 0.10304 0.0
H36 H 0.97144 0.52269 0.17748 0.0
H37 H 0.89844 0.48592 0.18777 0.0
H38 H 0.92779 0.57722 0.22836 0.0
H39 H 1.00203 0.61384 0.21846 0.0
La40 La 0.66332 0.06567 0.48678 0.0
La41 La 0.6041 0.08347 0.47702 0.0
C42 C 0.69908 0.04111 0.50177 0.0
C43 C 0.6868 0.00687 0.50853 0.0
C44 C 0.71547 0.99891 0.50671 0.0
C45 C 0.70482 0.96656 0.51276 0.0
C46 C 0.66517 0.94138 0.52082 0.0
C47 C 0.63634 0.94941 0.52257 0.0
C48 C 0.64709 0.98191 0.51649 0.0
C49 C 0.65854 0.07686 0.44759 0.0
C50 C 0.56322 1.00283 0.47592 0.0
C51 C 0.56957 0.10962 0.463 0.0
C52 C 0.57601 0.14364 0.46856 0.0
C53 C 0.59956 0.16532 0.48734 0.0
C54 C 0.60415 0.19687 0.49305 0.0
C55 C 0.58552 0.20754 0.48002 0.0
C56 C 0.56267 0.18599 0.46098 0.0
C57 C 0.55791 0.1543 0.45534 0.0
C58 C 0.61058 0.07426 0.51657 0.0
C59 C 0.70552 0.14719 0.48646 0.0
O60 O 0.69282 0.04112 0.48165 0.0
O61 O 0.6881 0.05811 0.51321 0.0
O62 O 0.69299 0.08558 0.45752 0.0
O63 O 0.62776 0.06026 0.45902 0.0
O64 O 0.59881 0.01377 0.48676 0.0
O65 O 0.56085 0.02597 0.46684 0.0
O66 O 0.55413 0.08733 0.47745 0.0
O67 O 0.60133 0.11264 0.45458 0.0
O68 O 0.57627 0.06626 0.50705 0.0
O69 O 0.64039 0.08972 0.5046 0.0
O70 O 0.66735 0.13674 0.47956 0.0
O71 O 0.71129 0.12402 0.49249 0.0
H72 H 0.74614 0.01773 0.50048 0.0
H73 H 0.72746 0.96103 0.51079 0.0
H74 H 0.60569 0.93079 0.52884 0.0
H75 H 0.62445 0.98753 0.51802 0.0
H76 H 0.61385 0.15753 0.49774 0.0
H77 H 0.62145 0.2124 0.50794 0.0
H78 H 0.54851 0.19363 0.45037 0.0
H79 H 0.53984 0.13798 0.44072 0.0
La80 La 0.63395 0.59194 0.84766 0.0
La81 La 0.5736 0.51155 0.84747 0.0
C82 C 0.67288 0.65619 0.83936 0.0
C83 C 0.66262 0.67955 0.83275 0.0
C84 C 0.69231 0.71695 0.83809 0.0
C85 C 0.68418 0.74001 0.83146 0.0
C86 C 0.64617 0.72607 0.81925 0.0
C87 C 0.61613 0.68838 0.81415 0.0
C88 C 0.62427 0.66529 0.82086 0.0
C89 C 0.62383 0.56768 0.88449 0.0
C90 C 0.53256 0.5509 0.84937 0.0
C91 C 0.53823 0.44758 0.85521 0.0
C92 C 0.54783 0.42242 0.84982 0.0
C93 C 0.57486 0.42889 0.83389 0.0
C94 C 0.58362 0.40478 0.82857 0.0
C95 C 0.56575 0.37391 0.83918 0.0
C96 C 0.53932 0.36791 0.85542 0.0
C97 C 0.53037 0.39199 0.86066 0.0
C98 C 0.58393 0.53471 0.81016 0.0
C99 C 0.67603 0.55308 0.84718 0.0
O100 O 0.6638 0.64636 0.85831 0.0
O101 O 0.66266 0.62953 0.82559 0.0
O102 O 0.66001 0.59581 0.87924 0.0
O103 O 0.59526 0.55573 0.8699 0.0
O104 O 0.56974 0.57907 0.84345 0.0
O105 O 0.5286 0.52247 0.85504 0.0
O106 O 0.52576 0.45597 0.83933 0.0
O107 O 0.56673 0.47602 0.86824 0.0
O108 O 0.54867 0.50586 0.81545 0.0
O109 O 0.61253 0.54757 0.82494 0.0
O110 O 0.63708 0.52299 0.84944 0.0
O111 O 0.68222 0.58356 0.84434 0.0
H112 H 0.72197 0.72838 0.84734 0.0
H113 H 0.70761 0.76878 0.83604 0.0
H114 H 0.58669 0.67675 0.80466 0.0
H115 H 0.60089 0.63641 0.81659 0.0
H116 H 0.58903 0.45251 0.8255 0.0
H117 H 0.60459 0.41041 0.81621 0.0
H118 H 0.52489 0.34425 0.86378 0.0
H119 H 0.50963 0.38674 0.87308 0.0
H120 H 0.54798 1.00097 0.23035 0.0
H121 H 0.6452 0.10907 0.21526 0.0
H122 H 0.5659 0.02248 0.16582 0.0
C123 C 0.56472 0.01988 0.21876 0.0
C124 C 0.55303 0.00724 0.19735 0.0
C125 C 0.59762 0.05655 0.22541 0.0
C126 C 0.61976 0.08077 0.21025 0.0
C127 C 0.60813 0.06844 0.18867 0.0
C128 C 0.57457 0.03186 0.18243 0.0
N129 N 0.62907 0.0918 0.17274 0.0
C130 C 0.66558 0.12769 0.17613 0.0
H131 H 0.61869 0.50864 0.59064 0.0
H132 H 0.61086 0.59472 0.58283 0.0
H133 H 0.59684 0.52719 0.52886 0.0
C134 C 0.61534 0.52439 0.58051 0.0
C135 C 0.60823 0.51466 0.55871 0.0
C136 C 0.61611 0.55309 0.58942 0.0
C137 C 0.6101 0.57248 0.57613 0.0
C138 C 0.60319 0.5631 0.55423 0.0
C139 C 0.60207 0.53417 0.54574 0.0
N140 N 0.5969 0.58172 0.54013 0.0
C141 C 0.59981 0.61237 0.54568 0.0
H142 H 1.02618 0.55074 0.90625 0.0
H143 H 0.13417 0.55162 0.89646 0.0
H144 H 1.06553 0.55316 0.84404 0.0
C145 C 1.04719 0.55049 0.89579 0.0
C146 C 1.04075 0.55083 0.87423 0.0
C147 C 0.08056 0.55072 0.9041 0.0
C148 C 0.10878 0.55198 0.89035 0.0
C149 C 0.10389 0.55312 0.86865 0.0
C150 C 0.06981 0.55271 0.86074 0.0
N151 N 0.13205 0.55424 0.85434 0.0
C152 C 0.1673 0.55478 0.8592 0.0
H153 H 0.20054 0.63196 0.41392 0.0
H154 H 0.08254 0.5342 0.42905 0.0
H155 H 0.1694 0.61884 0.4782 0.0
C156 C 0.17936 0.61555 0.42561 0.0
C157 C 0.19004 0.62949 0.44684 0.0
C158 C 0.14064 0.58143 0.41908 0.0
C159 C 0.11246 0.56053 0.4341 0.0
C160 C 0.12314 0.57389 0.45556 0.0
C161 C 0.16151 0.60853 0.46171 0.0
N162 N 0.09612 0.55364 0.4714 0.0
C163 C 1.06147 0.517 0.46849 0.0
H164 H 0.63076 0.12335 0.73729 0.0
H165 H 0.62023 0.02838 0.74599 0.0
H166 H 0.60444 0.08218 0.79751 0.0
C167 C 0.62579 0.10379 0.74739 0.0
C168 C 0.61791 0.10657 0.76844 0.0
C169 C 0.62653 0.07563 0.73909 0.0
C170 C 0.61967 0.05011 0.75224 0.0
C171 C 0.61219 0.05286 0.77344 0.0
C172 C 0.61127 0.08092 0.78131 0.0
N173 N 0.60481 0.02779 0.78737 0.0
C174 C 0.60576 0.99906 0.7823 0.0
H175 H 0.57975 0.39969 0.08065 0.0
H176 H 0.45065 0.34246 0.05359 0.0
H177 H 0.47281 0.32616 0.11572 0.0
C178 C 0.54552 0.38033 0.08169 0.0
C179 C 0.52986 0.36339 0.10014 0.0
C180 C 0.51732 0.37286 0.06468 0.0
C181 C 0.47301 0.3474 0.0661 0.0
C182 C 0.45718 0.33041 0.08441 0.0
C183 C 0.48554 0.33824 0.1013 0.0
N184 N 0.41316 0.31043 0.08723 0.0
C185 C 0.39992 0.32851 0.09765 0.0
H186 H 0.33587 0.54926 0.11609 0.0
H187 H 0.36923 0.51974 0.11855 0.0
H188 H 0.31858 0.48619 0.17854 0.0
H189 H 0.28348 0.51418 0.1758 0.0
H190 H 0.42376 0.51801 0.14728 0.0
H191 H 0.25536 0.39109 0.13974 0.0
H192 H 0.26837 0.43432 0.13601 0.0
H193 H 0.27054 0.42331 0.16203 0.0
C194 C 0.33248 0.53617 0.13 0.0
C195 C 0.30613 0.53326 0.14548 0.0
C196 C 0.35184 0.51957 0.13146 0.0
C197 C 0.34537 0.50003 0.14846 0.0
C198 C 0.32321 0.50059 0.1651 0.0
H199 H 0.36761 0.3245 0.13516 0.0
H200 H 0.35919 0.36828 0.15232 0.0
C201 C 0.30352 0.51695 0.16358 0.0
C202 C 0.35614 0.47493 0.147 0.0
H203 H 0.30941 0.3852 0.13675 0.0
C204 C 0.3989 0.48895 0.14534 0.0
C205 C 0.32355 0.437 0.14451 0.0
C206 C 0.27682 0.42036 0.14551 0.0
C207 C 0.40977 0.46602 0.14041 0.0
C208 C 0.37687 0.42827 0.13668 0.0
C209 C 0.33449 0.41417 0.1396 0.0
C210 C 0.38475 0.40325 0.12738 0.0
C211 C 0.45622 0.48247 0.13877 0.0
C212 C 0.40111 0.40815 0.10759 0.0
C213 C 0.40553 0.3832 0.09783 0.0
C214 C 0.39322 0.35288 0.10762 0.0
C215 C 0.37686 0.34772 0.12736 0.0
C216 C 0.37239 0.37274 0.13717 0.0
H217 H 0.47754 0.50862 0.14887 0.0
H218 H 0.46303 0.464 0.14333 0.0
H219 H 0.46413 0.48789 0.12229 0.0
H220 H 0.40969 0.43091 0.0995 0.0
H221 H 0.41849 0.38758 0.08262 0.0
H222 H 0.70505 0.20296 0.47752 0.0
H223 H 0.76652 0.26547 0.47442 0.0
H224 H 0.85203 0.24211 0.49231 0.0
H225 H 0.79065 0.17919 0.49522 0.0
H226 H 0.83348 0.31837 0.50392 0.0
H227 H 0.89414 0.28527 0.43642 0.0
H228 H 0.84121 0.25304 0.44481 0.0
H229 H 0.88697 0.26216 0.45903 0.0
C230 C 0.73689 0.21102 0.4809 0.0
C231 C 0.74285 0.18588 0.48649 0.0
C232 C 0.77202 0.24685 0.47911 0.0
C233 C 0.81386 0.2583 0.48274 0.0
C234 C 0.82001 0.23365 0.489 0.0
H235 H 1.06535 0.46378 0.47686 0.0
H236 H 1.00461 0.40043 0.47998 0.0
C237 C 0.78485 0.19775 0.49082 0.0
C238 C 0.8509 0.29605 0.47991 0.0
H239 H 0.93711 0.34649 0.45105 0.0
C240 C 0.8561 0.32455 0.49234 0.0
C241 C 0.88033 0.30403 0.46475 0.0
C242 C 0.87534 0.27459 0.45034 0.0
C243 C 0.8903 0.3608 0.49026 0.0
C244 C 0.91966 0.36881 0.47505 0.0
C245 C 0.91455 0.34031 0.46267 0.0
C246 C 0.95623 0.40662 0.47198 0.0
C247 C 0.89522 0.3902 0.5047 0.0
C248 C 0.94921 0.43086 0.4659 0.0
C249 C 0.98385 0.46694 0.46411 0.0
C250 C 1.02587 0.4791 0.46817 0.0
C251 C 1.03304 0.45475 0.47357 0.0
C252 C 0.99845 0.41869 0.47538 0.0
H253 H 0.87704 0.37955 0.5188 0.0
H254 H 0.92941 0.41211 0.50993 0.0
H255 H 0.88271 0.40208 0.49615 0.0
H256 H 0.91695 0.42198 0.46279 0.0
H257 H 0.97778 0.48546 0.45995 0.0
H258 H 0.70357 0.79174 0.80464 0.0
H259 H 0.69168 0.83444 0.79494 0.0
H260 H 0.55859 0.75896 0.80652 0.0
H261 H 0.57056 0.71666 0.81714 0.0
H262 H 0.63744 0.82901 0.76408 0.0
H263 H 0.59794 0.84984 0.84375 0.0
H264 H 0.62122 0.82716 0.83871 0.0
H265 H 0.565 0.80356 0.83239 0.0
C266 C 0.67182 0.78431 0.80534 0.0
C267 C 0.63815 0.75095 0.81198 0.0
C268 C 0.66501 0.80863 0.79959 0.0
C269 C 0.62444 0.80013 0.80035 0.0
C270 C 0.59036 0.76635 0.80621 0.0
H271 H 0.53872 0.9298 0.7848 0.0
H272 H 0.54077 0.87883 0.78637 0.0
C273 C 0.59717 0.74203 0.81206 0.0
C274 C 0.61829 0.82713 0.79552 0.0
H275 H 0.5916 0.87883 0.81717 0.0
C276 C 0.62732 0.83987 0.77565 0.0
C277 C 0.60526 0.84135 0.81069 0.0
C278 C 0.59715 0.83008 0.83265 0.0
C279 C 0.62344 0.86635 0.77052 0.0
C280 C 0.61065 0.88067 0.78573 0.0
C281 C 0.60115 0.86762 0.80549 0.0
C282 C 0.60835 0.91018 0.78193 0.0
C283 C 0.63272 0.8786 0.74882 0.0
C284 C 0.64556 0.94454 0.77866 0.0
C285 C 0.64433 0.97355 0.77774 0.0
C286 C 0.60594 0.96846 0.7801 0.0
C287 C 0.56852 0.93402 0.78272 0.0
C288 C 0.56972 0.90504 0.78367 0.0
H289 H 0.63094 0.85861 0.73745 0.0
H290 H 0.60997 0.88312 0.74295 0.0
H291 H 0.66557 0.90453 0.74946 0.0
H292 H 0.67587 0.94929 0.77774 0.0
H293 H 0.67363 1.00016 0.776 0.0
H294 H 0.85925 0.5511 0.20502 0.0
H295 H 0.78174 0.51264 0.19919 0.0
H296 H 0.77373 0.42037 0.21323 0.0
H297 H 0.85191 0.45892 0.21852 0.0
H298 H 0.7411 0.40989 0.17556 0.0
H299 H 0.67203 0.45877 0.22612 0.0
H300 H 0.71721 0.49639 0.21499 0.0
H301 H 0.72478 0.47186 0.23238 0.0
C302 C 0.84091 0.52296 0.2078 0.0
C303 C 0.8615 0.50787 0.212 0.0
C304 C 0.7964 0.50092 0.20458 0.0
C305 C 0.7717 0.46354 0.20588 0.0
C306 C 0.7921 0.44913 0.21218 0.0
H307 H 0.52783 0.31902 0.12644 0.0
H308 H 0.57881 0.33672 0.15645 0.0
C309 C 0.8367 0.47111 0.21515 0.0
C310 C 0.72712 0.43931 0.19614 0.0
H311 H 0.63725 0.43347 0.18996 0.0
C312 C 0.71774 0.41411 0.1792 0.0
C313 C 0.69656 0.44473 0.20083 0.0
C314 C 0.70311 0.46917 0.21974 0.0
C315 C 0.68065 0.39688 0.16564 0.0
C316 C 0.65205 0.40485 0.16927 0.0
C317 C 0.65956 0.42773 0.18714 0.0
C318 C 0.61802 0.39391 0.15307 0.0
C319 C 0.6741 0.3726 0.14658 0.0
C320 C 0.62282 0.42032 0.14165 0.0
C321 C 0.59395 0.41038 0.12459 0.0
C322 C 0.55966 0.37378 0.11867 0.0
C323 C 0.55402 0.34742 0.13063 0.0
C324 C 0.58306 0.35743 0.14772 0.0
H325 H 0.70178 0.37236 0.1449 0.0
H326 H 0.64521 0.34452 0.14785 0.0
H327 H 0.66883 0.38146 0.13209 0.0
H328 H 0.64969 0.44862 0.14556 0.0
H329 H 0.59857 0.43136 0.11599 0.0
H330 H 0.55814 0.94654 0.48964 0.0
H331 H 0.49614 0.8825 0.48598 0.0
H332 H 0.42112 0.9071 0.45435 0.0
H333 H 0.48306 0.97105 0.45758 0.0
H334 H 0.41616 0.84798 0.50063 0.0
H335 H 0.40327 0.82768 0.41361 0.0
H336 H 0.44969 0.86737 0.42859 0.0
H337 H 0.4023 0.8638 0.42368 0.0
C338 C 0.52852 0.93837 0.48182 0.0
C339 C 0.52572 0.96396 0.47375 0.0
C340 C 0.49307 0.90172 0.47979 0.0
C341 C 0.45417 0.88991 0.46961 0.0
C342 C 0.45107 0.91546 0.46184 0.0
H343 H 0.20154 0.68403 0.47304 0.0
H344 H 0.26667 0.74673 0.48002 0.0
C345 C 0.48652 0.95207 0.46379 0.0
C346 C 0.41674 0.85093 0.46723 0.0
H347 H 0.34521 0.78012 0.43066 0.0
C348 C 0.40073 0.83306 0.48534 0.0
C349 C 0.39701 0.83136 0.44725 0.0
C350 C 0.41416 0.8484 0.42716 0.0
C351 C 0.36501 0.79631 0.48402 0.0
C352 C 0.34433 0.77713 0.46407 0.0
C353 C 0.36084 0.79489 0.44597 0.0
C354 C 0.30573 0.73855 0.46143 0.0
C355 C 0.35023 0.77827 0.50397 0.0
C356 C 0.30587 0.7131 0.44859 0.0
C357 C 0.26868 0.67743 0.44447 0.0
C358 C 0.23047 0.6664 0.45307 0.0
C359 C 0.23063 0.69161 0.46642 0.0
C360 C 0.26786 0.72744 0.47045 0.0
H361 H 0.37609 0.79329 0.51695 0.0
H362 H 0.32308 0.77756 0.50897 0.0
H363 H 0.33917 0.75005 0.50153 0.0
H364 H 0.33467 0.72102 0.44147 0.0
H365 H 0.26963 0.65853 0.43427 0.0
H366 H 0.58593 0.34134 0.86486 0.0
H367 H 0.5996 0.29821 0.85437 0.0
H368 H 0.57681 0.30373 0.78919 0.0
H369 H 0.5637 0.34706 0.79954 0.0
H370 H 0.54751 0.23173 0.83261 0.0
H371 H 0.68979 0.32098 0.78882 0.0
H372 H 0.66861 0.33804 0.80578 0.0
H373 H 0.64477 0.31813 0.77942 0.0
C374 C 0.58389 0.33334 0.8483 0.0
C375 C 0.57408 0.34779 0.83301 0.0
C376 C 0.59184 0.30883 0.84233 0.0
C377 C 0.59012 0.29832 0.82099 0.0
C378 C 0.57963 0.31227 0.80573 0.0
H379 H 0.58122 0.1325 0.74873 0.0
H380 H 0.57687 0.17996 0.76256 0.0
C381 C 0.572 0.33694 0.81166 0.0
C382 C 0.59759 0.27171 0.81462 0.0
H383 H 0.65582 0.25755 0.78316 0.0
C384 C 0.57155 0.23753 0.82201 0.0
C385 C 0.62913 0.27937 0.80085 0.0
C386 C 0.65996 0.31625 0.79343 0.0
C387 C 0.57522 0.21044 0.81541 0.0
C388 C 0.60565 0.21778 0.80111 0.0
C389 C 0.63231 0.25207 0.79404 0.0
C390 C 0.60934 0.1897 0.79281 0.0
C391 C 0.54584 0.17379 0.82327 0.0
C392 C 0.62947 0.17987 0.80524 0.0
C393 C 0.63257 0.15309 0.79731 0.0
C394 C 0.61543 0.1356 0.77681 0.0
C395 C 0.59541 0.14576 0.76443 0.0
C396 C 0.5926 0.17269 0.77233 0.0
H397 H 0.52133 0.1714 0.83288 0.0
H398 H 0.5294 0.15231 0.8098 0.0
H399 H 0.56499 0.16893 0.83301 0.0
H400 H 0.64284 0.19299 0.82105 0.0
H401 H 0.64873 0.14632 0.80716 0.0
H402 H 0.58789 0.87341 0.51417 0.0
H403 H 0.5713 0.81634 0.52261 0.0
H404 H 0.70113 0.87369 0.5489 0.0
H405 H 0.71748 0.93085 0.54132 0.0
H406 H 0.60763 0.7863 0.50723 0.0
H407 H 0.63471 0.80889 0.59397 0.0
H408 H 0.62951 0.83711 0.57883 0.0
H409 H 0.67967 0.8444 0.58145 0.0
C410 C 0.61266 0.87399 0.52218 0.0
C411 C 0.65407 0.90679 0.52703 0.0
C412 C 0.60319 0.84129 0.52688 0.0
C413 C 0.63478 0.84072 0.53666 0.0
C414 C 0.67593 0.87345 0.54178 0.0
H415 H 0.67032 0.68089 0.5571 0.0
H416 H 0.67615 0.736 0.55633 0.0
C417 C 0.68541 0.90611 0.53714 0.0
C418 C 0.62578 0.80579 0.54008 0.0
H419 H 0.63169 0.75998 0.5772 0.0
C420 C 0.61234 0.78035 0.52258 0.0
C421 C 0.63209 0.79807 0.56011 0.0
C422 C 0.64438 0.82341 0.57969 0.0
C423 C 0.60641 0.748 0.52441 0.0
C424 C 0.61352 0.74062 0.54435 0.0
C425 C 0.62634 0.76575 0.56193 0.0
C426 C 0.609 0.70737 0.54702 0.0
C427 C 0.59396 0.72252 0.50485 0.0
C428 C 0.56912 0.67309 0.54269 0.0
C429 C 0.56583 0.64178 0.54318 0.0
C430 C 0.60227 0.64436 0.54817 0.0
C431 C 0.6418 0.67846 0.55337 0.0
C432 C 0.64512 0.70981 0.55289 0.0
H433 H 0.59869 0.73566 0.4903 0.0
H434 H 0.61286 0.71229 0.5047 0.0
H435 H 0.55961 0.69897 0.50458 0.0
H436 H 0.54077 0.6706 0.5384 0.0
H437 H 0.53508 0.61561 0.53902 0.0
H438 H 0.67909 0.49863 0.8575 0.0
H439 H 0.74109 0.49888 0.85977 0.0
H440 H 0.82029 0.60576 0.83968 0.0
H441 H 0.75889 0.60618 0.8381 0.0
H442 H 0.79216 0.50205 0.83277 0.0
H443 H 0.89408 0.62425 0.88976 0.0
H444 H 0.83835 0.603 0.88336 0.0
H445 H 0.87815 0.63328 0.86635 0.0
C446 C 0.70973 0.52233 0.85364 0.0
C447 C 0.71369 0.55255 0.84781 0.0
C448 C 0.74538 0.52242 0.85493 0.0
C449 C 0.78622 0.55269 0.85041 0.0
C450 C 0.78988 0.58245 0.84399 0.0
H451 H 1.03864 0.59655 0.85025 0.0
H452 H 0.9776 0.59696 0.84276 0.0
C453 C 0.75438 0.58252 0.8429 0.0
C454 C 0.82451 0.55281 0.85214 0.0
H455 H 0.92779 0.60112 0.87407 0.0
C456 C 0.82168 0.52375 0.84188 0.0
C457 C 0.86356 0.58097 0.864 0.0
C458 C 0.86867 0.61193 0.87667 0.0
C459 C 0.85627 0.52224 0.84299 0.0
C460 C 0.89521 0.55042 0.85476 0.0
C461 C 0.89831 0.57964 0.86484 0.0
C462 C 0.93202 0.54902 0.85785 0.0
C463 C 0.85098 0.49051 0.83133 0.0
C464 C 0.92714 0.52194 0.8687 0.0
C465 C 0.96196 0.52181 0.87306 0.0
C466 C 1.00288 0.54864 0.86661 0.0
C467 C 1.00758 0.5752 0.85519 0.0
C468 C 0.97269 0.57559 0.85105 0.0
H469 H 0.8242 0.47629 0.81883 0.0
H470 H 0.88082 0.49932 0.8241 0.0
H471 H 0.84386 0.47092 0.84254 0.0
H472 H 0.89657 0.50139 0.87443 0.0
H473 H 0.9571 0.50105 0.88198 0.0
H474 H 0.25502 0.65985 0.15227 0.0
H475 H 0.32195 0.72193 0.15592 0.0
H476 H 0.25572 0.76065 0.18222 0.0
H477 H 0.18915 0.69899 0.179 0.0
H478 H 0.34452 0.78471 0.13991 0.0
H479 H 0.35329 0.80001 0.22691 0.0
H480 H 0.31726 0.75672 0.21144 0.0
H481 H 0.30366 0.78685 0.21496 0.0
C482 C 0.25469 0.68158 0.15881 0.0
C483 C 0.21678 0.67435 0.16558 0.0
C484 C 0.29295 0.71703 0.16086 0.0
C485 C 0.29396 0.7458 0.16972 0.0
C486 C 0.2559 0.73876 0.17581 0.0
H487 H 0.48493 0.97737 0.16831 0.0
H488 H 0.42415 0.91322 0.16013 0.0
C489 C 0.21779 0.70344 0.17388 0.0
C490 C 0.33475 0.78317 0.17289 0.0
H491 H 0.40042 0.85384 0.21061 0.0
C492 C 0.35699 0.7998 0.15537 0.0
C493 C 0.35131 0.8026 0.19311 0.0
C494 C 0.33041 0.78555 0.21271 0.0
C495 C 0.39474 0.83575 0.15748 0.0
C496 C 0.41014 0.85572 0.1776 0.0
C497 C 0.38844 0.83869 0.19515 0.0
C498 C 0.44857 0.89432 0.18101 0.0
C499 C 0.41798 0.85182 0.13818 0.0
C500 C 0.48233 0.90513 0.1956 0.0
C501 C 0.51673 0.94172 0.20046 0.0
C502 C 0.51813 0.96831 0.19083 0.0
C503 C 0.48493 0.95744 0.17579 0.0
C504 C 0.45027 0.92078 0.17105 0.0
H505 H 0.4098 0.83048 0.12559 0.0
H506 H 0.4084 0.86755 0.13195 0.0
H507 H 0.45321 0.8703 0.14191 0.0
H508 H 0.48172 0.88524 0.20349 0.0
H509 H 0.54209 0.94927 0.21195 0.0
H510 H 0.5244 0.21731 0.4747 0.0
H511 H 0.52973 0.27075 0.4861 0.0
H512 H 0.65862 0.32494 0.51278 0.0
H513 H 0.65446 0.27241 0.50045 0.0
H514 H 0.54147 0.30148 0.52526 0.0
H515 H 0.67502 0.40172 0.48003 0.0
H516 H 0.64754 0.35376 0.4747 0.0
H517 H 0.68866 0.37979 0.49599 0.0
C518 C 0.55427 0.24085 0.48257 0.0
C519 C 0.58908 0.24049 0.48653 0.0
C520 C 0.55711 0.27131 0.48925 0.0
C521 C 0.59479 0.30213 0.50003 0.0
C522 C 0.62954 0.30185 0.50408 0.0
H523 H 0.66286 0.49934 0.56815 0.0
H524 H 0.65901 0.44759 0.5536 0.0
C525 C 0.62686 0.27151 0.49727 0.0
C526 C 0.59696 0.33384 0.50785 0.0
H527 H 0.65511 0.42524 0.50718 0.0
C528 C 0.56613 0.32846 0.52115 0.0
C529 C 0.62912 0.36912 0.5025 0.0
C530 C 0.6617 0.37645 0.48735 0.0
C531 C 0.56708 0.35743 0.52954 0.0
C532 C 0.59961 0.39267 0.52445 0.0
C533 C 0.63034 0.39814 0.51111 0.0
C534 C 0.60219 0.42419 0.53291 0.0
C535 C 0.53381 0.35038 0.54411 0.0
C536 C 0.57175 0.42827 0.5259 0.0
C537 C 0.57393 0.45782 0.53411 0.0
C538 C 0.60651 0.48373 0.54957 0.0
C539 C 0.63714 0.47964 0.55643 0.0
C540 C 0.63513 0.45024 0.54807 0.0
H541 H 0.51508 0.32275 0.54915 0.0
H542 H 0.54917 0.37043 0.55828 0.0
H543 H 0.5113 0.35332 0.53594 0.0
H544 H 0.54624 0.40853 0.5141 0.0
H545 H 0.54969 0.46006 0.52864 0.0
H546 H 0.52827 0.60557 0.84089 0.0
H547 H 0.4676 0.60699 0.84364 0.0
H548 H 0.39083 0.49945 0.86279 0.0
H549 H 0.45137 0.49811 0.86046 0.0
H550 H 0.38829 0.56662 0.82374 0.0
H551 H 0.36993 0.54911 0.90828 0.0
H552 H 0.41597 0.55892 0.89586 0.0
H553 H 0.3667 0.51343 0.89359 0.0
C554 C 0.49856 0.58222 0.84578 0.0
C555 C 0.49523 0.55182 0.85059 0.0
C556 C 0.46367 0.58305 0.84734 0.0
C557 C 0.42437 0.55364 0.85389 0.0
C558 C 0.42081 0.52303 0.8583 0.0
H559 H 0.17152 0.5013 0.86875 0.0
H560 H 0.2338 0.50151 0.86755 0.0
C561 C 0.45563 0.52219 0.85678 0.0
C562 C 0.387 0.55462 0.85561 0.0
H563 H 0.31375 0.54343 0.88901 0.0
C564 C 0.37229 0.56179 0.8381 0.0
C565 C 0.36552 0.54826 0.87427 0.0
C566 C 0.38055 0.54235 0.89413 0.0
C567 C 0.33668 0.56196 0.83853 0.0
C568 C 0.3151 0.55546 0.85715 0.0
C569 C 0.32984 0.54834 0.87468 0.0
C570 C 0.27733 0.55588 0.85871 0.0
C571 C 0.32176 0.56808 0.81871 0.0
C572 C 0.28066 0.58657 0.85472 0.0
C573 C 0.24504 0.58646 0.85549 0.0
C574 C 0.20514 0.55581 0.86048 0.0
C575 C 0.20188 0.52543 0.86501 0.0
C576 C 0.23756 0.52554 0.86426 0.0
H577 H 0.33325 0.5623 0.80455 0.0
H578 H 0.28628 0.55088 0.81674 0.0
H579 H 0.3347 0.59681 0.81961 0.0
H580 H 0.31088 0.61073 0.8509 0.0
H581 H 0.24857 0.61026 0.85186 0.0
H582 H 1.00378 0.43404 0.13698 0.0
H583 H 0.94133 0.37171 0.14041 0.0
H584 H 0.90579 0.40956 0.19237 0.0
H585 H 0.96784 0.4717 0.1891 0.0
H586 H 0.92224 0.33362 0.17583 0.0
H587 H 0.79438 0.3445 0.1542 0.0
H588 H 0.84937 0.37777 0.1487 0.0
H589 H 0.83326 0.37789 0.17473 0.0
C590 C 0.98248 0.42915 0.14902 0.0
C591 C 0.9906 0.45798 0.16259 0.0
C592 C 0.94684 0.39351 0.15097 0.0
C593 C 0.91854 0.38604 0.16643 0.0
C594 C 0.92662 0.41473 0.18002 0.0
H595 H 0.68589 0.18552 0.20169 0.0
H596 H 0.74909 0.24898 0.20072 0.0
C597 C 0.96222 0.45031 0.17811 0.0
C598 C 0.88151 0.34814 0.16889 0.0
H599 H 0.77232 0.29014 0.16733 0.0
C600 C 0.88944 0.32405 0.1739 0.0
C601 C 0.83877 0.33583 0.16656 0.0
C602 C 0.82824 0.3602 0.16058 0.0
C603 C 0.85582 0.28802 0.1768 0.0
C604 C 0.81303 0.27554 0.17419 0.0
C605 C 0.80512 0.29975 0.16937 0.0
C606 C 0.77597 0.23716 0.17558 0.0
C607 C 0.86651 0.26385 0.18299 0.0
C608 C 0.77005 0.20956 0.16175 0.0
C609 C 0.73426 0.17356 0.16239 0.0
C610 C 0.70374 0.16464 0.17674 0.0
C611 C 0.70943 0.19199 0.19063 0.0
C612 C 0.74533 0.2281 0.19002 0.0
H613 H 0.89971 0.2798 0.1904 0.0
H614 H 0.84403 0.24504 0.19408 0.0
H615 H 0.86397 0.24753 0.16872 0.0
H616 H 0.79264 0.21594 0.15015 0.0
H617 H 0.73003 0.15276 0.15138 0.0
H618 H 0.09329 0.53061 0.10634 0.0
H619 H 0.10205 0.52725 0.06881 0.0
H620 H 0.0891 0.61102 0.06238 0.0
H621 H 0.08425 0.61658 0.10029 0.0
H622 H 1.05334 0.50759 0.03697 0.0
H623 H 0.18817 0.64977 0.02951 0.0
H624 H 0.17175 0.6333 0.05476 0.0
H625 H 0.14543 0.64741 0.0405 0.0
C626 C 0.09335 0.54889 0.09698 0.0
C627 C 0.08899 0.57437 0.10628 0.0
C628 C 0.09805 0.54679 0.07546 0.0
C629 C 0.09735 0.56948 0.06263 0.0
C630 C 0.09163 0.59422 0.0719 0.0
H631 H 1.01713 0.51449 0.93098 0.0
H632 H 1.02452 0.51898 0.96896 0.0
C633 C 0.08828 0.59709 0.09357 0.0
C634 C 0.10001 0.5657 0.03946 0.0
H635 H 0.14472 0.61385 0.99745 0.0
C636 C 0.07389 0.53089 0.02844 0.0
C637 C 0.12756 0.59578 0.02813 0.0
C638 C 0.16014 0.63355 0.03892 0.0
C639 C 0.07331 0.52547 0.00653 0.0
C640 C 0.09777 0.55581 0.99502 0.0
C641 C 0.12525 0.5905 0.00609 0.0
C642 C 0.09374 0.55238 0.97158 0.0
C643 C 1.04685 0.48711 0.99613 0.0
C644 C 0.13021 0.57073 0.96012 0.0
C645 C 0.12614 0.56961 0.9382 0.0
C646 C 0.08546 0.54987 0.92723 0.0
C647 C 1.04909 0.53067 0.93877 0.0
C648 C 1.05321 0.53253 0.96061 0.0
H649 H 1.04512 0.46881 0.00688 0.0
H650 H 1.01364 0.47724 0.9923 0.0
H651 H 1.06013 0.48508 0.98148 0.0
H652 H 0.16193 0.58645 0.96815 0.0
H653 H 0.15495 0.58511 0.93 0.0
H654 H 0.72299 0.11167 0.42181 0.0
H655 H 0.7175 0.11749 0.38446 0.0
H656 H 0.58114 0.05853 0.38581 0.0
H657 H 0.58658 0.05306 0.4233 0.0
H658 H 0.6711 0.06114 0.35312 0.0
H659 H 0.61582 0.14476 0.3551 0.0
H660 H 0.63858 0.14046 0.37822 0.0
H661 H 0.58365 0.10534 0.3688 0.0
C662 C 0.69191 0.10028 0.41418 0.0
C663 C 0.65518 0.08185 0.42538 0.0
C664 C 0.68883 0.10365 0.39287 0.0
C665 C 0.64902 0.08886 0.3824 0.0
C666 C 0.61233 0.07084 0.39366 0.0
H667 H 0.54243 0.03946 0.2557 0.0
H668 H 0.55893 0.05195 0.29375 0.0
C669 C 0.6154 0.0675 0.41502 0.0
C670 C 0.64555 0.08995 0.35941 0.0
H671 H 0.61059 0.1159 0.32152 0.0
C672 C 0.65838 0.07351 0.34621 0.0
C673 C 0.62887 0.10606 0.35045 0.0
C674 C 0.6163 0.12546 0.36387 0.0
C675 C 0.65357 0.07157 0.32426 0.0
C676 C 0.6362 0.08712 0.31527 0.0
C677 C 0.62408 0.10416 0.32847 0.0
C678 C 0.6274 0.08344 0.29222 0.0
C679 C 0.66545 0.05155 0.31089 0.0
C680 C 0.66058 0.09806 0.27871 0.0
C681 C 0.6512 0.09075 0.25688 0.0
C682 C 0.60848 0.06873 0.24828 0.0
C683 C 0.5756 0.05594 0.26188 0.0
C684 C 0.58498 0.06324 0.28362 0.0
H685 H 0.66985 0.03482 0.32017 0.0
H686 H 0.6405 0.03368 0.29781 0.0
H687 H 0.69599 0.07136 0.30397 0.0
H688 H 0.69362 0.11426 0.28505 0.0
H689 H 0.67718 0.10099 0.2468 0.0
H690 H 0.52472 0.50536 0.77694 0.0
H691 H 0.53719 0.51647 0.74012 0.0
H692 H 0.67261 0.59595 0.75713 0.0
H693 H 0.66038 0.58472 0.79413 0.0
H694 H 0.6305 0.61411 0.72594 0.0
H695 H 0.6006 0.48288 0.70623 0.0
H696 H 0.56113 0.48099 0.72092 0.0
H697 H 0.61456 0.50483 0.73276 0.0
C698 C 0.55712 0.52543 0.77288 0.0
C699 C 0.59162 0.54407 0.78835 0.0
C700 C 0.56417 0.53173 0.75186 0.0
C701 C 0.60581 0.55679 0.74594 0.0
C702 C 0.64024 0.5765 0.76144 0.0
H703 H 0.67214 0.55673 0.6173 0.0
H704 H 0.67452 0.5626 0.65567 0.0
C705 C 0.63321 0.57009 0.78253 0.0
C706 C 0.61326 0.56073 0.72341 0.0
H707 H 0.60593 0.51439 0.67774 0.0
C708 C 0.62546 0.59249 0.71537 0.0
C709 C 0.60709 0.5326 0.70978 0.0
C710 C 0.59544 0.49845 0.7178 0.0
C711 C 0.63043 0.59638 0.69382 0.0
C712 C 0.62266 0.56763 0.68006 0.0
C713 C 0.61168 0.53634 0.68828 0.0
C714 C 0.62476 0.56877 0.65699 0.0
C715 C 0.6441 0.6312 0.68597 0.0
C716 C 0.59636 0.57076 0.64499 0.0
C717 C 0.5948 0.56725 0.62302 0.0
C718 C 0.62137 0.56138 0.61267 0.0
C719 C 0.65085 0.56074 0.62479 0.0
C720 C 0.6524 0.56426 0.64671 0.0
H721 H 0.65974 0.65369 0.69887 0.0
H722 H 0.66653 0.63903 0.6735 0.0
H723 H 0.61547 0.62744 0.67919 0.0
H724 H 0.57411 0.57346 0.65257 0.0
H725 H 0.57137 0.56742 0.61415 0.0
H726 H 0.68411 0.10243 0.54105 0.0
H727 H 0.69065 0.09839 0.57872 0.0
H728 H 0.55363 0.03433 0.58004 0.0
H729 H 0.54692 0.03816 0.54248 0.0
H730 H 0.60109 0.09516 0.61032 0.0
H731 H 0.65755 0.01221 0.61118 0.0
H732 H 0.68674 0.05014 0.59602 0.0
H733 H 0.63177 0.01323 0.58797 0.0
C734 C 0.65539 0.08696 0.54933 0.0
C735 C 0.615 0.0705 0.5389 0.0
C736 C 0.65914 0.08459 0.5708 0.0
C737 C 0.62256 0.0657 0.58209 0.0
C738 C 0.58221 0.04885 0.57158 0.0
H739 H 0.58122 0.01462 0.71097 0.0
H740 H 0.58368 0.01136 0.67268 0.0
C741 C 0.57844 0.05114 0.55016 0.0
C742 C 0.62634 0.06589 0.60517 0.0
H743 H 0.65647 0.03804 0.64426 0.0
C744 C 0.61317 0.08265 0.61774 0.0
C745 C 0.64183 0.04931 0.61474 0.0
C746 C 0.65501 0.02991 0.60184 0.0
C747 C 0.6154 0.0836 0.63966 0.0
C748 C 0.63165 0.06767 0.6493 0.0
C749 C 0.6444 0.05049 0.63677 0.0
C750 C 0.63491 0.06851 0.67242 0.0
C751 C 0.5999 0.1013 0.6524 0.0
C752 C 0.66397 0.10147 0.68489 0.0
C753 C 0.66275 0.1034 0.70669 0.0
C754 C 0.63239 0.07237 0.71642 0.0
C755 C 0.60509 0.03894 0.70396 0.0
C756 C 0.60637 0.03704 0.6821 0.0
H757 H 0.58082 0.10605 0.64247 0.0
H758 H 0.58002 0.08437 0.66479 0.0
H759 H 0.62789 0.1278 0.66026 0.0
H760 H 0.68652 0.12596 0.67767 0.0
H761 H 0.68471 0.12942 0.7159 0.0
H762 H 0.54782 0.51557 0.89899 0.0
H763 H 0.53579 0.48546 0.93068 0.0
H764 H 0.67213 0.55036 0.94542 0.0
H765 H 0.68445 0.58079 0.91359 0.0
H766 H 0.62032 0.47043 0.94692 0.0
H767 H 0.56025 0.53395 0.99286 0.0
H768 H 0.53661 0.51576 0.96635 0.0
H769 H 0.5924 0.55355 0.97094 0.0
C770 C 0.57524 0.52355 0.90904 0.0
C771 C 0.61707 0.55055 0.90394 0.0
C772 C 0.56831 0.5064 0.92712 0.0
C773 C 0.60307 0.51594 0.94041 0.0
C774 C 0.64494 0.54279 0.93535 0.0
H775 H 0.5797 0.44559 0.06487 0.0
H776 H 0.60443 0.48094 0.03481 0.0
C777 C 0.65191 0.56019 0.91727 0.0
C778 C 0.5953 0.49731 0.95942 0.0
H779 H 0.55104 0.48412 0.00636 0.0
C780 C 0.60551 0.47358 0.96002 0.0
C781 C 0.57626 0.50176 0.97647 0.0
C782 C 0.56598 0.52784 0.97682 0.0
C783 C 0.59595 0.45328 0.97707 0.0
C784 C 0.57547 0.45676 0.99378 0.0
C785 C 0.56647 0.48134 0.99343 0.0
C786 C 0.56251 0.43485 0.01169 0.0
C787 C 0.60781 0.42831 0.97712 0.0
C788 C 0.53072 0.39721 0.00861 0.0
C789 C 0.51652 0.37688 0.02575 0.0
C790 C 0.53395 0.39389 0.04627 0.0
C791 C 0.56616 0.43159 0.04923 0.0
C792 C 0.58015 0.45187 0.03211 0.0
H793 H 0.63205 0.43501 0.96582 0.0
H794 H 0.62056 0.42958 0.99304 0.0
H795 H 0.5788 0.4001 0.97254 0.0
H796 H 0.51622 0.38366 0.99298 0.0
H797 H 0.49175 0.3479 0.02298 0.0
H798 H 0.10708 0.5042 0.21991 0.0
H799 H 0.10265 0.50573 0.25791 0.0
H800 H 0.12368 0.60743 0.25942 0.0
H801 H 0.13027 0.60681 0.22142 0.0
H802 H 0.1724 0.61028 0.28925 0.0
H803 H 1.00798 0.48466 0.29243 0.0
H804 H 1.03985 0.47617 0.278 0.0
H805 H 1.02828 0.50461 0.26828 0.0
C806 C 0.11056 0.5268 0.22834 0.0
C807 C 0.11848 0.55518 0.21772 0.0
C808 C 0.10748 0.52743 0.25003 0.0
C809 C 0.11165 0.55619 0.26149 0.0
C810 C 0.11974 0.58469 0.25087 0.0
H811 H 0.07012 0.56181 0.39531 0.0
H812 H 1.06009 0.55408 0.35675 0.0
C813 C 0.12325 0.58424 0.22917 0.0
C814 C 0.11073 0.55775 0.28471 0.0
H815 H 1.05355 0.50863 0.32462 0.0
C816 C 0.14617 0.5882 0.29695 0.0
C817 C 0.07621 0.52923 0.29484 0.0
C818 C 1.03575 0.49703 0.28269 0.0
C819 C 0.14875 0.5904 0.31895 0.0
C820 C 0.1156 0.56081 0.32902 0.0
C821 C 0.07935 0.53094 0.31686 0.0
C822 C 0.1184 0.56062 0.35215 0.0
C823 C 0.18692 0.62462 0.33117 0.0
C824 C 0.15329 0.56503 0.36228 0.0
C825 C 0.15917 0.5697 0.38417 0.0
C826 C 0.12975 0.56926 0.39632 0.0
C827 C 0.09307 0.56204 0.38624 0.0
C828 C 0.08747 0.55781 0.36426 0.0
H829 H 0.20192 0.64805 0.32182 0.0
H830 H 0.17778 0.63113 0.346 0.0
H831 H 0.21137 0.621 0.33514 0.0
H832 H 0.17687 0.5662 0.35324 0.0
H833 H 0.18754 0.57498 0.39163 0.0
loop_
_geom_bond_atom_site_label_1
_geom_bond_atom_site_label_2
_geom_bond_distance
_geom_bond_site_symmetry_2
_ccdc_geom_bond_type
La0 C2 2.928 . S
La0 O20 2.521 . S
La0 O21 2.628 . S
La0 O22 2.554 . S
La0 O23 2.757 . S
La0 O24 2.470 . S
La0 O29 2.482 . S
La0 O31 2.503 1_455 S
La1 C11 2.928 1_455 S
La1 O23 2.482 . S
La1 O25 2.503 . S
La1 O26 2.521 1_455 S
La1 O27 2.628 1_455 S
La1 O28 2.554 . S
La1 O29 2.757 . S
La1 O30 2.470 1_455 S
C2 La0 2.928 . S
C2 C3 1.503 . S
C2 O20 1.261 . S
C2 O21 1.243 . S
C3 C2 1.503 . S
C3 C4 1.394 . S
C3 C8 1.373 . S
C4 C3 1.394 . S
C4 C5 1.380 . S
C4 H32 0.930 . S
C5 C4 1.380 . S
C5 C6 1.376 . S
C5 H33 0.930 . S
C6 C5 1.376 . S
C6 C7 1.370 . S
C7 C6 1.370 . S
C7 C8 1.396 . S
C7 H34 0.929 . S
C8 C3 1.373 . S
C8 C7 1.396 . S
C8 H35 0.929 . S
C9 O22 1.240 . S
C9 O23 1.289 . S
C10 O24 1.258 . S
C10 O25 1.256 . S
C11 La1 2.928 1_655 S
C11 C12 1.503 . S
C11 O26 1.261 . S
C11 O27 1.243 . S
C12 C11 1.503 . S
C12 C13 1.394 . S
C12 C17 1.373 . S
C13 C12 1.394 . S
C13 C14 1.380 . S
C13 H36 0.930 . S
C14 C13 1.380 . S
C14 C15 1.376 . S
C14 H37 0.930 . S
C15 C14 1.376 . S
C15 C16 1.370 . S
C16 C15 1.370 . S
C16 C17 1.396 . S
C16 H38 0.929 . S
C17 C12 1.373 . S
C17 C16 1.396 . S
C17 H39 0.929 . S
C18 O28 1.240 . S
C18 O29 1.289 . S
C19 O30 1.258 . S
C19 O31 1.256 . S
O20 La0 2.521 . S
O20 C2 1.261 . S
O21 La0 2.628 . S
O21 C2 1.243 . S
O22 La0 2.554 . S
O22 C9 1.240 . S
O23 La0 2.757 . S
O23 La1 2.482 . S
O23 C9 1.289 . S
O24 La0 2.470 . S
O24 C10 1.258 . S
O25 La1 2.503 . S
O25 C10 1.256 . S
O26 La1 2.521 1_655 S
O26 C11 1.261 . S
O27 La1 2.628 1_655 S
O27 C11 1.243 . S
O28 La1 2.554 . S
O28 C18 1.240 . S
O29 La0 2.482 . S
O29 La1 2.757 . S
O29 C18 1.289 . S
O30 La1 2.470 1_655 S
O30 C19 1.258 . S
O31 La0 2.503 1_655 S
O31 C19 1.256 . S
H32 C4 0.930 . S
H33 C5 0.930 . S
H34 C7 0.929 . S
H35 C8 0.929 . S
H36 C13 0.930 . S
H37 C14 0.930 . S
H38 C16 0.929 . S
H39 C17 0.929 . S
La40 C42 2.928 1_545 S
La40 O60 2.521 1_545 S
La40 O61 2.628 1_545 S
La40 O62 2.554 . S
La40 O63 2.757 . S
La40 O64 2.470 1_545 S
La40 O69 2.482 . S
La40 O71 2.503 . S
La41 C51 2.928 . S
La41 O63 2.482 . S
La41 O65 2.503 1_545 S
La41 O66 2.521 . S
La41 O67 2.628 . S
La41 O68 2.554 . S
La41 O69 2.757 . S
La41 O70 2.470 . S
C42 La40 2.928 1_565 S
C42 C43 1.503 . S
C42 O60 1.261 . S
C42 O61 1.243 . S
C43 C42 1.503 . S
C43 C44 1.394 . S
C43 C48 1.373 . S
C44 C43 1.394 . S
C44 C45 1.380 . S
C44 H72 0.930 . S
C45 C44 1.380 . S
C45 C46 1.376 . S
C45 H73 0.930 . S
C46 C45 1.376 . S
C46 C47 1.370 . S
C47 C46 1.370 . S
C47 C48 1.396 . S
C47 H74 0.929 . S
C48 C43 1.373 . S
C48 C47 1.396 . S
C48 H75 0.929 . S
C49 O62 1.240 . S
C49 O63 1.289 . S
C50 O64 1.258 . S
C50 O65 1.256 . S
C51 La41 2.928 . S
C51 C52 1.503 . S
C51 O66 1.261 . S
C51 O67 1.243 . S
C52 C51 1.503 . S
C52 C53 1.394 . S
C52 C57 1.373 . S
C53 C52 1.394 . S
C53 C54 1.380 . S
C53 H76 0.930 . S
C54 C53 1.380 . S
C54 C55 1.376 . S
C54 H77 0.930 . S
C55 C54 1.376 . S
C55 C56 1.370 . S
C56 C55 1.370 . S
C56 C57 1.396 . S
C56 H78 0.929 . S
C57 C52 1.373 . S
C57 C56 1.396 . S
C57 H79 0.929 . S
C58 O68 1.240 . S
C58 O69 1.289 . S
C59 O70 1.258 . S
C59 O71 1.256 . S
O60 La40 2.521 1_565 S
O60 C42 1.261 . S
O61 La40 2.628 1_565 S
O61 C42 1.243 . S
O62 La40 2.554 . S
O62 C49 1.240 . S
O63 La40 2.757 . S
O63 La41 2.482 . S
O63 C49 1.289 . S
O64 La40 2.470 1_565 S
O64 C50 1.258 . S
O65 La41 2.503 1_565 S
O65 C50 1.256 . S
O66 La41 2.521 . S
O66 C51 1.261 . S
O67 La41 2.628 . S
O67 C51 1.243 . S
O68 La41 2.554 . S
O68 C58 1.240 . S
O69 La40 2.482 . S
O69 La41 2.757 . S
O69 C58 1.289 . S
O70 La41 2.470 . S
O70 C59 1.258 . S
O71 La40 2.503 . S
O71 C59 1.256 . S
H72 C44 0.930 . S
H73 C45 0.930 . S
H74 C47 0.929 . S
H75 C48 0.929 . S
H76 C53 0.930 . S
H77 C54 0.930 . S
H78 C56 0.929 . S
H79 C57 0.929 . S
La80 C82 2.928 . S
La80 O100 2.521 . S
La80 O101 2.628 . S
La80 O102 2.554 . S
La80 O103 2.757 . S
La80 O104 2.470 . S
La80 O109 2.482 . S
La80 O111 2.503 . S
La81 C91 2.928 . S
La81 O103 2.482 . S
La81 O105 2.503 . S
La81 O106 2.521 . S
La81 O107 2.628 . S
La81 O108 2.554 . S
La81 O109 2.757 . S
La81 O110 2.470 . S
C82 La80 2.928 . S
C82 C83 1.503 . S
C82 O100 1.261 . S
C82 O101 1.243 . S
C83 C82 1.503 . S
C83 C84 1.394 . S
C83 C88 1.373 . S
C84 C83 1.394 . S
C84 C85 1.380 . S
C84 H112 0.930 . S
C85 C84 1.380 . S
C85 C86 1.376 . S
C85 H113 0.930 . S
C86 C85 1.376 . S
C86 C87 1.370 . S
C87 C86 1.370 . S
C87 C88 1.396 . S
C87 H114 0.929 . S
C88 C83 1.373 . S
C88 C87 1.396 . S
C88 H115 0.929 . S
C89 O102 1.240 . S
C89 O103 1.289 . S
C90 O104 1.258 . S
C90 O105 1.256 . S
C91 La81 2.928 . S
C91 C92 1.503 . S
C91 O106 1.261 . S
C91 O107 1.243 . S
C92 C91 1.503 . S
C92 C93 1.394 . S
C92 C97 1.373 . S
C93 C92 1.394 . S
C93 C94 1.380 . S
C93 H116 0.930 . S
C94 C93 1.380 . S
C94 C95 1.376 . S
C94 H117 0.930 . S
C95 C94 1.376 . S
C95 C96 1.370 . S
C96 C95 1.370 . S
C96 C97 1.396 . S
C96 H118 0.929 . S
C97 C92 1.373 . S
C97 C96 1.396 . S
C97 H119 0.929 . S
C98 O108 1.240 . S
C98 O109 1.289 . S
C99 O110 1.258 . S
C99 O111 1.256 . S
O100 La80 2.521 . S
O100 C82 1.261 . S
O101 La80 2.628 . S
O101 C82 1.243 . S
O102 La80 2.554 . S
O102 C89 1.240 . S
O103 La80 2.757 . S
O103 La81 2.482 . S
O103 C89 1.289 . S
O104 La80 2.470 . S
O104 C90 1.258 . S
O105 La81 2.503 . S
O105 C90 1.256 . S
O106 La81 2.521 . S
O106 C91 1.261 . S
O107 La81 2.628 . S
O107 C91 1.243 . S
O108 La81 2.554 . S
O108 C98 1.240 . S
O109 La80 2.482 . S
O109 La81 2.757 . S
O109 C98 1.289 . S
O110 La81 2.470 . S
O110 C99 1.258 . S
O111 La80 2.503 . S
O111 C99 1.256 . S
H112 C84 0.930 . S
H113 C85 0.930 . S
H114 C87 0.929 . S
H115 C88 0.929 . S
H116 C93 0.930 . S
H117 C94 0.930 . S
H118 C96 0.929 . S
H119 C97 0.929 . S
H120 C123 0.929 1_565 S
H121 C126 0.929 . S
H122 C128 0.930 . S
C123 H120 0.929 1_545 S
C123 C124 1.398 . S
C123 C125 1.396 . S
C124 C123 1.398 . S
C124 C128 1.407 . S
C125 C123 1.396 . S
C125 C126 1.394 . S
C126 H121 0.929 . S
C126 C125 1.394 . S
C126 C127 1.382 . S
C127 C126 1.382 . S
C127 C128 1.392 . S
C127 N129 1.420 . S
C128 H122 0.930 . S
C128 C124 1.407 . S
C128 C127 1.392 . S
N129 C127 1.420 . S
N129 C130 1.244 . S
C130 N129 1.244 . S
H131 C134 0.929 . S
H132 C137 0.929 . S
H133 C139 0.930 . S
C134 H131 0.929 . S
C134 C135 1.398 . S
C134 C136 1.396 . S
C135 C134 1.398 . S
C135 C139 1.407 . S
C136 C134 1.396 . S
C136 C137 1.394 . S
C137 H132 0.929 . S
C137 C136 1.394 . S
C137 C138 1.382 . S
C138 C137 1.382 . S
C138 C139 1.392 . S
C138 N140 1.420 . S
C139 H133 0.930 . S
C139 C135 1.407 . S
C139 C138 1.392 . S
N140 C138 1.420 . S
N140 C141 1.244 . S
C141 N140 1.244 . S
H142 C145 0.929 . S
H143 C148 0.929 . S
H144 C150 0.930 . S
C145 H142 0.929 . S
C145 C146 1.398 . S
C145 C147 1.396 . S
C146 C145 1.398 . S
C146 C150 1.407 . S
C147 C145 1.396 . S
C147 C148 1.394 . S
C148 H143 0.929 . S
C148 C147 1.394 . S
C148 C149 1.382 . S
C149 C148 1.382 . S
C149 C150 1.392 . S
C149 N151 1.420 . S
C150 H144 0.930 . S
C150 C146 1.407 . S
C150 C149 1.392 . S
N151 C149 1.420 . S
N151 C152 1.244 . S
C152 N151 1.244 . S
H153 C156 0.929 . S
H154 C159 0.929 . S
H155 C161 0.930 . S
C156 H153 0.929 . S
C156 C157 1.398 . S
C156 C158 1.396 . S
C157 C156 1.398 . S
C157 C161 1.407 . S
C158 C156 1.396 . S
C158 C159 1.394 1_455 S
C159 H154 0.929 . S
C159 C158 1.394 1_655 S
C159 C160 1.382 . S
C160 C159 1.382 . S
C160 C161 1.392 1_655 S
C160 N162 1.420 . S
C161 H155 0.930 . S
C161 C157 1.407 . S
C161 C160 1.392 1_455 S
N162 C160 1.420 . S
N162 C163 1.244 . S
C163 N162 1.244 . S
H164 C167 0.929 . S
H165 C170 0.920 1_565 S
H166 C172 0.930 . S
C167 H164 0.929 . S
C167 C168 1.398 . S
C167 C169 1.396 . S
C168 C167 1.398 . S
C168 C172 1.407 . S
C169 C167 1.396 . S
C169 C170 1.394 . S
C170 H165 0.920 1_545 S
C170 C169 1.394 . S
C170 C171 1.382 . S
C171 C170 1.382 . S
C171 C172 1.392 . S
C171 N173 1.420 . S
C172 H166 0.930 . S
C172 C168 1.407 . S
C172 C171 1.392 . S
N173 C171 1.420 . S
N173 C174 1.244 1_545 S
C174 N173 1.244 1_565 S
H175 C178 0.929 . S
H176 C181 0.929 . S
H177 C183 0.930 . S
C178 H175 0.929 . S
C178 C179 1.398 . S
C178 C180 1.396 . S
C179 C178 1.398 . S
C179 C183 1.407 . S
C180 C178 1.396 . S
C180 C181 1.394 . S
C181 H176 0.929 . S
C181 C180 1.394 . S
C181 C182 1.382 . S
C182 C181 1.382 . S
C182 C183 1.392 . S
C182 N184 1.420 . S
C183 H177 0.930 . S
C183 C179 1.407 . S
C183 C182 1.392 . S
N184 C182 1.420 . S
N184 C185 1.244 . S
C185 N184 1.244 . S
H186 C194 0.929 . S
H187 C196 0.930 . S
H188 C198 0.930 . S
H189 C201 0.929 . S
H190 C204 0.930 . S
H191 C206 0.960 . S
H192 C206 0.960 . S
H193 C206 0.960 . S
C194 H186 0.929 . S
C194 C195 1.377 . S
C194 C196 1.384 . S
C195 C194 1.377 . S
C195 C201 1.390 . S
C196 H187 0.930 . S
C196 C194 1.384 . S
C196 C197 1.372 . S
C197 C196 1.372 . S
C197 C198 1.400 . S
C197 C202 1.490 . S
C198 H188 0.930 . S
C198 C197 1.400 . S
C198 C201 1.386 . S
H199 C215 0.930 . S
H200 C216 0.931 . S
C201 H189 0.929 . S
C201 C195 1.390 . S
C201 C198 1.386 . S
C202 C197 1.490 . S
C202 C204 1.395 . S
C202 C205 1.403 . S
H203 C209 0.930 . S
C204 H190 0.930 . S
C204 C202 1.395 . S
C204 C207 1.403 . S
C205 C202 1.403 . S
C205 C206 1.524 . S
C205 C209 1.400 . S
C206 H191 0.960 . S
C206 H192 0.960 . S
C206 H193 0.960 . S
C206 C205 1.524 . S
C207 C204 1.403 . S
C207 C208 1.392 . S
C207 C211 1.495 . S
C208 C207 1.392 . S
C208 C209 1.385 . S
C208 C210 1.478 . S
C209 H203 0.930 . S
C209 C205 1.400 . S
C209 C208 1.385 . S
C210 C208 1.478 . S
C210 C212 1.381 . S
C210 C216 1.383 . S
C211 C207 1.495 . S
C211 H217 0.959 . S
C211 H218 0.961 . S
C211 H219 0.960 . S
C212 C210 1.381 . S
C212 C213 1.394 . S
C212 H220 0.930 . S
C213 C212 1.394 . S
C213 C214 1.383 . S
C213 H221 0.929 . S
C214 C213 1.383 . S
C214 C215 1.377 . S
C215 H199 0.930 . S
C215 C214 1.377 . S
C215 C216 1.379 . S
C216 H200 0.931 . S
C216 C210 1.383 . S
C216 C215 1.379 . S
H217 C211 0.959 . S
H218 C211 0.961 . S
H219 C211 0.960 . S
H220 C212 0.930 . S
H221 C213 0.929 . S
H222 C230 0.929 . S
H223 C232 0.930 . S
H224 C234 0.930 . S
H225 C237 0.929 . S
H226 C240 0.930 . S
H227 C242 0.960 . S
H228 C242 0.960 . S
H229 C242 0.960 . S
C230 H222 0.929 . S
C230 C231 1.377 . S
C230 C232 1.384 . S
C231 C230 1.377 . S
C231 C237 1.390 . S
C232 H223 0.930 . S
C232 C230 1.384 . S
C232 C233 1.372 . S
C233 C232 1.372 . S
C233 C234 1.400 . S
C233 C238 1.490 . S
C234 H224 0.930 . S
C234 C233 1.400 . S
C234 C237 1.386 . S
H235 C251 0.930 . S
H236 C252 0.931 . S
C237 H225 0.929 . S
C237 C231 1.390 . S
C237 C234 1.386 . S
C238 C233 1.490 . S
C238 C240 1.395 . S
C238 C241 1.403 . S
H239 C245 0.930 . S
C240 H226 0.930 . S
C240 C238 1.395 . S
C240 C243 1.403 . S
C241 C238 1.403 . S
C241 C242 1.524 . S
C241 C245 1.400 . S
C242 H227 0.960 . S
C242 H228 0.960 . S
C242 H229 0.960 . S
C242 C241 1.524 . S
C243 C240 1.403 . S
C243 C244 1.392 . S
C243 C247 1.495 . S
C244 C243 1.392 . S
C244 C245 1.385 . S
C244 C246 1.478 . S
C245 H239 0.930 . S
C245 C241 1.400 . S
C245 C244 1.385 . S
C246 C244 1.478 . S
C246 C248 1.381 . S
C246 C252 1.383 . S
C247 C243 1.495 . S
C247 H253 0.959 . S
C247 H254 0.961 . S
C247 H255 0.960 . S
C248 C246 1.381 . S
C248 C249 1.394 . S
C248 H256 0.930 . S
C249 C248 1.394 . S
C249 C250 1.383 . S
C249 H257 0.929 . S
C250 C249 1.383 . S
C250 C251 1.377 . S
C251 H235 0.930 . S
C251 C250 1.377 . S
C251 C252 1.379 . S
C252 H236 0.931 . S
C252 C246 1.383 . S
C252 C251 1.379 . S
H253 C247 0.959 . S
H254 C247 0.961 . S
H255 C247 0.960 . S
H256 C248 0.930 . S
H257 C249 0.929 . S
H258 C266 0.929 . S
H259 C268 0.930 . S
H260 C270 0.930 . S
H261 C273 0.929 . S
H262 C276 0.930 . S
H263 C278 0.960 . S
H264 C278 0.960 . S
H265 C278 0.960 . S
C266 H258 0.929 . S
C266 C267 1.377 . S
C266 C268 1.384 . S
C267 C266 1.377 . S
C267 C273 1.390 . S
C268 H259 0.930 . S
C268 C266 1.384 . S
C268 C269 1.372 . S
C269 C268 1.372 . S
C269 C270 1.400 . S
C269 C274 1.490 . S
C270 H260 0.930 . S
C270 C269 1.400 . S
C270 C273 1.386 . S
H271 C287 0.930 . S
H272 C288 0.931 . S
C273 H261 0.929 . S
C273 C267 1.390 . S
C273 C270 1.386 . S
C274 C269 1.490 . S
C274 C276 1.395 . S
C274 C277 1.403 . S
H275 C281 0.930 . S
C276 H262 0.930 . S
C276 C274 1.395 . S
C276 C279 1.403 . S
C277 C274 1.403 . S
C277 C278 1.524 . S
C277 C281 1.400 . S
C278 H263 0.960 . S
C278 H264 0.960 . S
C278 H265 0.960 . S
C278 C277 1.524 . S
C279 C276 1.403 . S
C279 C280 1.392 . S
C279 C283 1.495 . S
C280 C279 1.392 . S
C280 C281 1.385 . S
C280 C282 1.478 . S
C281 H275 0.930 . S
C281 C277 1.400 . S
C281 C280 1.385 . S
C282 C280 1.478 . S
C282 C284 1.381 . S
C282 C288 1.383 . S
C283 C279 1.495 . S
C283 H289 0.959 . S
C283 H290 0.961 . S
C283 H291 0.960 . S
C284 C282 1.381 . S
C284 C285 1.394 . S
C284 H292 0.930 . S
C285 C284 1.394 . S
C285 C286 1.383 . S
C285 H293 0.929 . S
C286 C285 1.383 . S
C286 C287 1.377 . S
C287 H271 0.930 . S
C287 C286 1.377 . S
C287 C288 1.379 . S
C288 H272 0.931 . S
C288 C282 1.383 . S
C288 C287 1.379 . S
H289 C283 0.959 . S
H290 C283 0.961 . S
H291 C283 0.960 . S
H292 C284 0.930 . S
H293 C285 0.929 . S
H294 C302 0.929 . S
H295 C304 0.930 . S
H296 C306 0.930 . S
H297 C309 0.929 . S
H298 C312 0.930 . S
H299 C314 0.960 . S
H300 C314 0.960 . S
H301 C314 0.960 . S
C302 H294 0.929 . S
C302 C303 1.377 . S
C302 C304 1.384 . S
C303 C302 1.377 . S
C303 C309 1.390 . S
C304 H295 0.930 . S
C304 C302 1.384 . S
C304 C305 1.372 . S
C305 C304 1.372 . S
C305 C306 1.400 . S
C305 C310 1.490 . S
C306 H296 0.930 . S
C306 C305 1.400 . S
C306 C309 1.386 . S
H307 C323 0.930 . S
H308 C324 0.931 . S
C309 H297 0.929 . S
C309 C303 1.390 . S
C309 C306 1.386 . S
C310 C305 1.490 . S
C310 C312 1.395 . S
C310 C313 1.403 . S
H311 C317 0.930 . S
C312 H298 0.930 . S
C312 C310 1.395 . S
C312 C315 1.403 . S
C313 C310 1.403 . S
C313 C314 1.524 . S
C313 C317 1.400 . S
C314 H299 0.960 . S
C314 H300 0.960 . S
C314 H301 0.960 . S
C314 C313 1.524 . S
C315 C312 1.403 . S
C315 C316 1.392 . S
C315 C319 1.495 . S
C316 C315 1.392 . S
C316 C317 1.385 . S
C316 C318 1.478 . S
C317 H311 0.930 . S
C317 C313 1.400 . S
C317 C316 1.385 . S
C318 C316 1.478 . S
C318 C320 1.381 . S
C318 C324 1.383 . S
C319 C315 1.495 . S
C319 H325 0.959 . S
C319 H326 0.961 . S
C319 H327 0.960 . S
C320 C318 1.381 . S
C320 C321 1.394 . S
C320 H328 0.930 . S
C321 C320 1.394 . S
C321 C322 1.383 . S
C321 H329 0.929 . S
C322 C321 1.383 . S
C322 C323 1.377 . S
C323 H307 0.930 . S
C323 C322 1.377 . S
C323 C324 1.379 . S
C324 H308 0.931 . S
C324 C318 1.383 . S
C324 C323 1.379 . S
H325 C319 0.959 . S
H326 C319 0.961 . S
H327 C319 0.960 . S
H328 C320 0.930 . S
H329 C321 0.929 . S
H330 C338 0.929 . S
H331 C340 0.930 . S
H332 C342 0.930 . S
H333 C345 0.929 . S
H334 C348 0.930 . S
H335 C350 0.960 . S
H336 C350 0.960 . S
H337 C350 0.960 . S
C338 H330 0.929 . S
C338 C339 1.377 . S
C338 C340 1.384 . S
C339 C338 1.377 . S
C339 C345 1.390 . S
C340 H331 0.930 . S
C340 C338 1.384 . S
C340 C341 1.372 . S
C341 C340 1.372 . S
C341 C342 1.400 . S
C341 C346 1.490 . S
C342 H332 0.930 . S
C342 C341 1.400 . S
C342 C345 1.386 . S
H343 C359 0.930 . S
H344 C360 0.931 . S
C345 H333 0.929 . S
C345 C339 1.390 . S
C345 C342 1.386 . S
C346 C341 1.490 . S
C346 C348 1.395 . S
C346 C349 1.403 . S
H347 C353 0.930 . S
C348 H334 0.930 . S
C348 C346 1.395 . S
C348 C351 1.403 . S
C349 C346 1.403 . S
C349 C350 1.524 . S
C349 C353 1.400 . S
C350 H335 0.960 . S
C350 H336 0.960 . S
C350 H337 0.960 . S
C350 C349 1.524 . S
C351 C348 1.403 . S
C351 C352 1.392 . S
C351 C355 1.495 . S
C352 C351 1.392 . S
C352 C353 1.385 . S
C352 C354 1.478 . S
C353 H347 0.930 . S
C353 C349 1.400 . S
C353 C352 1.385 . S
C354 C352 1.478 . S
C354 C356 1.381 . S
C354 C360 1.383 . S
C355 C351 1.495 . S
C355 H361 0.959 . S
C355 H362 0.961 . S
C355 H363 0.960 . S
C356 C354 1.381 . S
C356 C357 1.394 . S
C356 H364 0.930 . S
C357 C356 1.394 . S
C357 C358 1.383 . S
C357 H365 0.929 . S
C358 C357 1.383 . S
C358 C359 1.377 . S
C359 H343 0.930 . S
C359 C358 1.377 . S
C359 C360 1.379 . S
C360 H344 0.931 . S
C360 C354 1.383 . S
C360 C359 1.379 . S
H361 C355 0.959 . S
H362 C355 0.961 . S
H363 C355 0.960 . S
H364 C356 0.930 . S
H365 C357 0.929 . S
H366 C374 0.929 . S
H367 C376 0.930 . S
H368 C378 0.930 . S
H369 C381 0.929 . S
H370 C384 0.930 . S
H371 C386 0.960 . S
H372 C386 0.960 . S
H373 C386 0.960 . S
C374 H366 0.929 . S
C374 C375 1.377 . S
C374 C376 1.384 . S
C375 C374 1.377 . S
C375 C381 1.390 . S
C376 H367 0.930 . S
C376 C374 1.384 . S
C376 C377 1.372 . S
C377 C376 1.372 . S
C377 C378 1.400 . S
C377 C382 1.490 . S
C378 H368 0.930 . S
C378 C377 1.400 . S
C378 C381 1.386 . S
H379 C395 0.930 . S
H380 C396 0.931 . S
C381 H369 0.929 . S
C381 C375 1.390 . S
C381 C378 1.386 . S
C382 C377 1.490 . S
C382 C384 1.395 . S
C382 C385 1.403 . S
H383 C389 0.930 . S
C384 H370 0.930 . S
C384 C382 1.395 . S
C384 C387 1.403 . S
C385 C382 1.403 . S
C385 C386 1.524 . S
C385 C389 1.400 . S
C386 H371 0.960 . S
C386 H372 0.960 . S
C386 H373 0.960 . S
C386 C385 1.524 . S
C387 C384 1.403 . S
C387 C388 1.392 . S
C387 C391 1.495 . S
C388 C387 1.392 . S
C388 C389 1.385 . S
C388 C390 1.478 . S
C389 H383 0.930 . S
C389 C385 1.400 . S
C389 C388 1.385 . S
C390 C388 1.478 . S
C390 C392 1.381 . S
C390 C396 1.383 . S
C391 C387 1.495 . S
C391 H397 0.959 . S
C391 H398 0.961 . S
C391 H399 0.960 . S
C392 C390 1.381 . S
C392 C393 1.394 . S
C392 H400 0.930 . S
C393 C392 1.394 . S
C393 C394 1.383 . S
C393 H401 0.929 . S
C394 C393 1.383 . S
C394 C395 1.377 . S
C395 H379 0.930 . S
C395 C394 1.377 . S
C395 C396 1.379 . S
C396 H380 0.931 . S
C396 C390 1.383 . S
C396 C395 1.379 . S
H397 C391 0.959 . S
H398 C391 0.961 . S
H399 C391 0.960 . S
H400 C392 0.930 . S
H401 C393 0.929 . S
H402 C410 0.929 . S
H403 C412 0.930 . S
H404 C414 0.930 . S
H405 C417 0.929 . S
H406 C420 0.930 . S
H407 C422 0.960 . S
H408 C422 0.960 . S
H409 C422 0.960 . S
C410 H402 0.929 . S
C410 C411 1.377 . S
C410 C412 1.384 . S
C411 C410 1.377 . S
C411 C417 1.390 . S
C412 H403 0.930 . S
C412 C410 1.384 . S
C412 C413 1.372 . S
C413 C412 1.372 . S
C413 C414 1.400 . S
C413 C418 1.490 . S
C414 H404 0.930 . S
C414 C413 1.400 . S
C414 C417 1.386 . S
H415 C431 0.930 . S
H416 C432 0.931 . S
C417 H405 0.929 . S
C417 C411 1.390 . S
C417 C414 1.386 . S
C418 C413 1.490 . S
C418 C420 1.395 . S
C418 C421 1.403 . S
H419 C425 0.930 . S
C420 H406 0.930 . S
C420 C418 1.395 . S
C420 C423 1.403 . S
C421 C418 1.403 . S
C421 C422 1.524 . S
C421 C425 1.400 . S
C422 H407 0.960 . S
C422 H408 0.960 . S
C422 H409 0.960 . S
C422 C421 1.524 . S
C423 C420 1.403 . S
C423 C424 1.392 . S
C423 C427 1.495 . S
C424 C423 1.392 . S
C424 C425 1.385 . S
C424 C426 1.478 . S
C425 H419 0.930 . S
C425 C421 1.400 . S
C425 C424 1.385 . S
C426 C424 1.478 . S
C426 C428 1.381 . S
C426 C432 1.383 . S
C427 C423 1.495 . S
C427 H433 0.959 . S
C427 H434 0.961 . S
C427 H435 0.960 . S
C428 C426 1.381 . S
C428 C429 1.394 . S
C428 H436 0.930 . S
C429 C428 1.394 . S
C429 C430 1.383 . S
C429 H437 0.929 . S
C430 C429 1.383 . S
C430 C431 1.377 . S
C431 H415 0.930 . S
C431 C430 1.377 . S
C431 C432 1.379 . S
C432 H416 0.931 . S
C432 C426 1.383 . S
C432 C431 1.379 . S
H433 C427 0.959 . S
H434 C427 0.961 . S
H435 C427 0.960 . S
H436 C428 0.930 . S
H437 C429 0.929 . S
H438 C446 0.929 . S
H439 C448 0.930 . S
H440 C450 0.930 . S
H441 C453 0.929 . S
H442 C456 0.930 . S
H443 C458 0.960 . S
H444 C458 0.960 . S
H445 C458 0.960 . S
C446 H438 0.929 . S
C446 C447 1.377 . S
C446 C448 1.384 . S
C447 C446 1.377 . S
C447 C453 1.390 . S
C448 H439 0.930 . S
C448 C446 1.384 . S
C448 C449 1.372 . S
C449 C448 1.372 . S
C449 C450 1.400 . S
C449 C454 1.490 . S
C450 H440 0.930 . S
C450 C449 1.400 . S
C450 C453 1.386 . S
H451 C467 0.930 . S
H452 C468 0.931 . S
C453 H441 0.929 . S
C453 C447 1.390 . S
C453 C450 1.386 . S
C454 C449 1.490 . S
C454 C456 1.395 . S
C454 C457 1.403 . S
H455 C461 0.930 . S
C456 H442 0.930 . S
C456 C454 1.395 . S
C456 C459 1.403 . S
C457 C454 1.403 . S
C457 C458 1.524 . S
C457 C461 1.400 . S
C458 H443 0.960 . S
C458 H444 0.960 . S
C458 H445 0.960 . S
C458 C457 1.524 . S
C459 C456 1.403 . S
C459 C460 1.392 . S
C459 C463 1.495 . S
C460 C459 1.392 . S
C460 C461 1.385 . S
C460 C462 1.478 . S
C461 H455 0.930 . S
C461 C457 1.400 . S
C461 C460 1.385 . S
C462 C460 1.478 . S
C462 C464 1.381 . S
C462 C468 1.383 . S
C463 C459 1.495 . S
C463 H469 0.959 . S
C463 H470 0.961 . S
C463 H471 0.960 . S
C464 C462 1.381 . S
C464 C465 1.394 . S
C464 H472 0.930 . S
C465 C464 1.394 . S
C465 C466 1.383 . S
C465 H473 0.929 . S
C466 C465 1.383 . S
C466 C467 1.377 . S
C467 H451 0.930 . S
C467 C466 1.377 . S
C467 C468 1.379 . S
C468 H452 0.931 . S
C468 C462 1.383 . S
C468 C467 1.379 . S
H469 C463 0.959 . S
H470 C463 0.961 . S
H471 C463 0.960 . S
H472 C464 0.930 . S
H473 C465 0.929 . S
H474 C482 0.929 . S
H475 C484 0.930 . S
H476 C486 0.930 . S
H477 C489 0.929 . S
H478 C492 0.930 . S
H479 C494 0.960 . S
H480 C494 0.960 . S
H481 C494 0.960 . S
C482 H474 0.929 . S
C482 C483 1.377 . S
C482 C484 1.384 . S
C483 C482 1.377 . S
C483 C489 1.390 . S
C484 H475 0.930 . S
C484 C482 1.384 . S
C484 C485 1.372 . S
C485 C484 1.372 . S
C485 C486 1.400 . S
C485 C490 1.490 . S
C486 H476 0.930 . S
C486 C485 1.400 . S
C486 C489 1.386 . S
H487 C503 0.930 . S
H488 C504 0.931 . S
C489 H477 0.929 . S
C489 C483 1.390 . S
C489 C486 1.386 . S
C490 C485 1.490 . S
C490 C492 1.395 . S
C490 C493 1.403 . S
H491 C497 0.930 . S
C492 H478 0.930 . S
C492 C490 1.395 . S
C492 C495 1.403 . S
C493 C490 1.403 . S
C493 C494 1.524 . S
C493 C497 1.400 . S
C494 H479 0.960 . S
C494 H480 0.960 . S
C494 H481 0.960 . S
C494 C493 1.524 . S
C495 C492 1.403 . S
C495 C496 1.392 . S
C495 C499 1.495 . S
C496 C495 1.392 . S
C496 C497 1.385 . S
C496 C498 1.478 . S
C497 H491 0.930 . S
C497 C493 1.400 . S
C497 C496 1.385 . S
C498 C496 1.478 . S
C498 C500 1.381 . S
C498 C504 1.383 . S
C499 C495 1.495 . S
C499 H505 0.959 . S
C499 H506 0.961 . S
C499 H507 0.960 . S
C500 C498 1.381 . S
C500 C501 1.394 . S
C500 H508 0.930 . S
C501 C500 1.394 . S
C501 C502 1.383 . S
C501 H509 0.929 . S
C502 C501 1.383 . S
C502 C503 1.377 . S
C503 H487 0.930 . S
C503 C502 1.377 . S
C503 C504 1.379 . S
C504 H488 0.931 . S
C504 C498 1.383 . S
C504 C503 1.379 . S
H505 C499 0.959 . S
H506 C499 0.961 . S
H507 C499 0.960 . S
H508 C500 0.930 . S
H509 C501 0.929 . S
H510 C518 0.929 . S
H511 C520 0.930 . S
H512 C522 0.930 . S
H513 C525 0.929 . S
H514 C528 0.930 . S
H515 C530 0.960 . S
H516 C530 0.960 . S
H517 C530 0.960 . S
C518 H510 0.929 . S
C518 C519 1.377 . S
C518 C520 1.384 . S
C519 C518 1.377 . S
C519 C525 1.390 . S
C520 H511 0.930 . S
C520 C518 1.384 . S
C520 C521 1.372 . S
C521 C520 1.372 . S
C521 C522 1.400 . S
C521 C526 1.490 . S
C522 H512 0.930 . S
C522 C521 1.400 . S
C522 C525 1.386 . S
H523 C539 0.930 . S
H524 C540 0.931 . S
C525 H513 0.929 . S
C525 C519 1.390 . S
C525 C522 1.386 . S
C526 C521 1.490 . S
C526 C528 1.395 . S
C526 C529 1.403 . S
H527 C533 0.930 . S
C528 H514 0.930 . S
C528 C526 1.395 . S
C528 C531 1.403 . S
C529 C526 1.403 . S
C529 C530 1.524 . S
C529 C533 1.400 . S
C530 H515 0.960 . S
C530 H516 0.960 . S
C530 H517 0.960 . S
C530 C529 1.524 . S
C531 C528 1.403 . S
C531 C532 1.392 . S
C531 C535 1.495 . S
C532 C531 1.392 . S
C532 C533 1.385 . S
C532 C534 1.478 . S
C533 H527 0.930 . S
C533 C529 1.400 . S
C533 C532 1.385 . S
C534 C532 1.478 . S
C534 C536 1.381 . S
C534 C540 1.383 . S
C535 C531 1.495 . S
C535 H541 0.959 . S
C535 H542 0.961 . S
C535 H543 0.960 . S
C536 C534 1.381 . S
C536 C537 1.394 . S
C536 H544 0.930 . S
C537 C536 1.394 . S
C537 C538 1.383 . S
C537 H545 0.929 . S
C538 C537 1.383 . S
C538 C539 1.377 . S
C539 H523 0.930 . S
C539 C538 1.377 . S
C539 C540 1.379 . S
C540 H524 0.931 . S
C540 C534 1.383 . S
C540 C539 1.379 . S
H541 C535 0.959 . S
H542 C535 0.961 . S
H543 C535 0.960 . S
H544 C536 0.930 . S
H545 C537 0.929 . S
H546 C554 0.929 . S
H547 C556 0.930 . S
H548 C558 0.930 . S
H549 C561 0.929 . S
H550 C564 0.930 . S
H551 C566 0.960 . S
H552 C566 0.960 . S
H553 C566 0.960 . S
C554 H546 0.929 . S
C554 C555 1.377 . S
C554 C556 1.384 . S
C555 C554 1.377 . S
C555 C561 1.390 . S
C556 H547 0.930 . S
C556 C554 1.384 . S
C556 C557 1.372 . S
C557 C556 1.372 . S
C557 C558 1.400 . S
C557 C562 1.490 . S
C558 H548 0.930 . S
C558 C557 1.400 . S
C558 C561 1.386 . S
H559 C575 0.930 . S
H560 C576 0.931 . S
C561 H549 0.929 . S
C561 C555 1.390 . S
C561 C558 1.386 . S
C562 C557 1.490 . S
C562 C564 1.395 . S
C562 C565 1.403 . S
H563 C569 0.930 . S
C564 H550 0.930 . S
C564 C562 1.395 . S
C564 C567 1.403 . S
C565 C562 1.403 . S
C565 C566 1.524 . S
C565 C569 1.400 . S
C566 H551 0.960 . S
C566 H552 0.960 . S
C566 H553 0.960 . S
C566 C565 1.524 . S
C567 C564 1.403 . S
C567 C568 1.392 . S
C567 C571 1.495 . S
C568 C567 1.392 . S
C568 C569 1.385 . S
C568 C570 1.478 . S
C569 H563 0.930 . S
C569 C565 1.400 . S
C569 C568 1.385 . S
C570 C568 1.478 . S
C570 C572 1.381 . S
C570 C576 1.383 . S
C571 C567 1.495 . S
C571 H577 0.959 . S
C571 H578 0.961 . S
C571 H579 0.960 . S
C572 C570 1.381 . S
C572 C573 1.394 . S
C572 H580 0.930 . S
C573 C572 1.394 . S
C573 C574 1.383 . S
C573 H581 0.929 . S
C574 C573 1.383 . S
C574 C575 1.377 . S
C575 H559 0.930 . S
C575 C574 1.377 . S
C575 C576 1.379 . S
C576 H560 0.931 . S
C576 C570 1.383 . S
C576 C575 1.379 . S
H577 C571 0.959 . S
H578 C571 0.961 . S
H579 C571 0.960 . S
H580 C572 0.930 . S
H581 C573 0.929 . S
H582 C590 0.929 . S
H583 C592 0.930 . S
H584 C594 0.930 . S
H585 C597 0.929 . S
H586 C600 0.930 . S
H587 C602 0.960 . S
H588 C602 0.960 . S
H589 C602 0.960 . S
C590 H582 0.929 . S
C590 C591 1.377 . S
C590 C592 1.384 . S
C591 C590 1.377 . S
C591 C597 1.390 . S
C592 H583 0.930 . S
C592 C590 1.384 . S
C592 C593 1.372 . S
C593 C592 1.372 . S
C593 C594 1.400 . S
C593 C598 1.490 . S
C594 H584 0.930 . S
C594 C593 1.400 . S
C594 C597 1.386 . S
H595 C611 0.930 . S
H596 C612 0.931 . S
C597 H585 0.929 . S
C597 C591 1.390 . S
C597 C594 1.386 . S
C598 C593 1.490 . S
C598 C600 1.395 . S
C598 C601 1.403 . S
H599 C605 0.930 . S
C600 H586 0.930 . S
C600 C598 1.395 . S
C600 C603 1.403 . S
C601 C598 1.403 . S
C601 C602 1.524 . S
C601 C605 1.400 . S
C602 H587 0.960 . S
C602 H588 0.960 . S
C602 H589 0.960 . S
C602 C601 1.524 . S
C603 C600 1.403 . S
C603 C604 1.392 . S
C603 C607 1.495 . S
C604 C603 1.392 . S
C604 C605 1.385 . S
C604 C606 1.478 . S
C605 H599 0.930 . S
C605 C601 1.400 . S
C605 C604 1.385 . S
C606 C604 1.478 . S
C606 C608 1.381 . S
C606 C612 1.383 . S
C607 C603 1.495 . S
C607 H613 0.959 . S
C607 H614 0.961 . S
C607 H615 0.960 . S
C608 C606 1.381 . S
C608 C609 1.394 . S
C608 H616 0.930 . S
C609 C608 1.394 . S
C609 C610 1.383 . S
C609 H617 0.929 . S
C610 C609 1.383 . S
C610 C611 1.377 . S
C611 H595 0.930 . S
C611 C610 1.377 . S
C611 C612 1.379 . S
C612 H596 0.931 . S
C612 C606 1.383 . S
C612 C611 1.379 . S
H613 C607 0.959 . S
H614 C607 0.961 . S
H615 C607 0.960 . S
H616 C608 0.930 . S
H617 C609 0.929 . S
H618 C626 0.929 . S
H619 C628 0.930 . S
H620 C630 0.940 . S
H621 C633 0.929 1_655 S
H622 C636 0.930 . S
H623 C638 0.960 . S
H624 C638 0.960 . S
H625 C638 0.960 . S
C626 H618 0.929 . S
C626 C627 1.377 . S
C626 C628 1.384 . S
C627 C626 1.377 . S
C627 C633 1.390 . S
C628 H619 0.930 . S
C628 C626 1.384 . S
C628 C629 1.372 . S
C629 C628 1.372 . S
C629 C630 1.400 . S
C629 C634 1.490 . S
C630 H620 0.940 . S
C630 C629 1.400 . S
C630 C633 1.386 . S
H631 C647 0.930 . S
H632 C648 0.931 . S
C633 H621 0.929 1_455 S
C633 C627 1.390 . S
C633 C630 1.386 . S
C634 C629 1.490 . S
C634 C636 1.395 . S
C634 C637 1.403 . S
H635 C641 0.930 1_556 S
C636 H622 0.930 . S
C636 C634 1.395 . S
C636 C639 1.403 . S
C637 C634 1.403 . S
C637 C638 1.524 . S
C637 C641 1.400 . S
C638 H623 0.960 . S
C638 H624 0.960 . S
C638 H625 0.960 . S
C638 C637 1.524 . S
C639 C636 1.403 . S
C639 C640 1.392 1_554 S
C639 C643 1.495 1_554 S
C640 C639 1.392 1_556 S
C640 C641 1.385 1_556 S
C640 C642 1.478 . S
C641 H635 0.930 1_554 S
C641 C637 1.400 . S
C641 C640 1.385 1_554 S
C642 C640 1.478 . S
C642 C644 1.381 . S
C642 C648 1.383 . S
C643 C639 1.495 1_556 S
C643 H649 0.959 1_556 S
C643 H650 0.961 . S
C643 H651 0.960 . S
C644 C642 1.381 . S
C644 C645 1.394 . S
C644 H652 0.930 . S
C645 C644 1.394 . S
C645 C646 1.383 . S
C645 H653 0.929 . S
C646 C645 1.383 . S
C646 C647 1.377 . S
C647 H631 0.930 . S
C647 C646 1.377 . S
C647 C648 1.379 . S
C648 H632 0.931 . S
C648 C642 1.383 . S
C648 C647 1.379 . S
H649 C643 0.959 1_554 S
H650 C643 0.961 . S
H651 C643 0.960 . S
H652 C644 0.930 . S
H653 C645 0.929 . S
H654 C662 0.929 . S
H655 C664 0.930 . S
H656 C666 0.930 . S
H657 C669 0.927 1_565 S
H658 C672 0.930 . S
H659 C674 0.960 . S
H660 C674 0.960 . S
H661 C674 0.960 . S
C662 H654 0.929 . S
C662 C663 1.377 . S
C662 C664 1.384 . S
C663 C662 1.377 . S
C663 C669 1.390 . S
C664 H655 0.930 . S
C664 C662 1.384 . S
C664 C665 1.372 . S
C665 C664 1.372 . S
C665 C666 1.400 . S
C665 C670 1.490 . S
C666 H656 0.930 . S
C666 C665 1.400 . S
C666 C669 1.386 . S
H667 C683 0.930 . S
H668 C684 0.931 . S
C669 H657 0.927 1_545 S
C669 C663 1.390 . S
C669 C666 1.386 . S
C670 C665 1.490 . S
C670 C672 1.395 . S
C670 C673 1.403 . S
H671 C677 0.930 . S
C672 H658 0.930 . S
C672 C670 1.395 . S
C672 C675 1.403 . S
C673 C670 1.403 . S
C673 C674 1.524 . S
C673 C677 1.400 . S
C674 H659 0.960 . S
C674 H660 0.960 . S
C674 H661 0.960 . S
C674 C673 1.524 . S
C675 C672 1.403 . S
C675 C676 1.392 . S
C675 C679 1.495 . S
C676 C675 1.392 . S
C676 C677 1.385 . S
C676 C678 1.478 . S
C677 H671 0.930 . S
C677 C673 1.400 . S
C677 C676 1.385 . S
C678 C676 1.478 . S
C678 C680 1.381 . S
C678 C684 1.383 . S
C679 C675 1.495 . S
C679 H685 0.959 . S
C679 H686 0.961 . S
C679 H687 0.960 . S
C680 C678 1.381 . S
C680 C681 1.394 . S
C680 H688 0.930 . S
C681 C680 1.394 . S
C681 C682 1.383 . S
C681 H689 0.929 . S
C682 C681 1.383 . S
C682 C683 1.377 . S
C683 H667 0.930 . S
C683 C682 1.377 . S
C683 C684 1.379 . S
C684 H668 0.931 . S
C684 C678 1.383 . S
C684 C683 1.379 . S
H685 C679 0.959 . S
H686 C679 0.961 . S
H687 C679 0.960 . S
H688 C680 0.930 . S
H689 C681 0.929 . S
H690 C698 0.929 . S
H691 C700 0.930 . S
H692 C702 0.930 . S
H693 C705 0.929 . S
H694 C708 0.930 . S
H695 C710 0.960 . S
H696 C710 0.960 . S
H697 C710 0.960 . S
C698 H690 0.929 . S
C698 C699 1.377 . S
C698 C700 1.384 . S
C699 C698 1.377 . S
C699 C705 1.390 . S
C700 H691 0.930 . S
C700 C698 1.384 . S
C700 C701 1.372 . S
C701 C700 1.372 . S
C701 C702 1.400 . S
C701 C706 1.490 . S
C702 H692 0.930 . S
C702 C701 1.400 . S
C702 C705 1.386 . S
H703 C719 0.930 . S
H704 C720 0.931 . S
C705 H693 0.929 . S
C705 C699 1.390 . S
C705 C702 1.386 . S
C706 C701 1.490 . S
C706 C708 1.395 . S
C706 C709 1.403 . S
H707 C713 0.930 . S
C708 H694 0.930 . S
C708 C706 1.395 . S
C708 C711 1.403 . S
C709 C706 1.403 . S
C709 C710 1.524 . S
C709 C713 1.400 . S
C710 H695 0.960 . S
C710 H696 0.960 . S
C710 H697 0.960 . S
C710 C709 1.524 . S
C711 C708 1.403 . S
C711 C712 1.392 . S
C711 C715 1.495 . S
C712 C711 1.392 . S
C712 C713 1.385 . S
C712 C714 1.478 . S
C713 H707 0.930 . S
C713 C709 1.400 . S
C713 C712 1.385 . S
C714 C712 1.478 . S
C714 C716 1.381 . S
C714 C720 1.383 . S
C715 C711 1.495 . S
C715 H721 0.959 . S
C715 H722 0.961 . S
C715 H723 0.960 . S
C716 C714 1.381 . S
C716 C717 1.394 . S
C716 H724 0.930 . S
C717 C716 1.394 . S
C717 C718 1.383 . S
C717 H725 0.929 . S
C718 C717 1.383 . S
C718 C719 1.377 . S
C719 H703 0.930 . S
C719 C718 1.377 . S
C719 C720 1.379 . S
C720 H704 0.931 . S
C720 C714 1.383 . S
C720 C719 1.379 . S
H721 C715 0.959 . S
H722 C715 0.961 . S
H723 C715 0.960 . S
H724 C716 0.930 . S
H725 C717 0.929 . S
H726 C734 0.929 . S
H727 C736 0.930 . S
H728 C738 0.930 1_565 S
H729 C741 0.929 1_565 S
H730 C744 0.930 . S
H731 C746 0.960 . S
H732 C746 0.960 . S
H733 C746 0.960 1_565 S
C734 H726 0.929 . S
C734 C735 1.377 . S
C734 C736 1.384 . S
C735 C734 1.377 . S
C735 C741 1.390 . S
C736 H727 0.930 . S
C736 C734 1.384 . S
C736 C737 1.372 . S
C737 C736 1.372 . S
C737 C738 1.400 . S
C737 C742 1.490 . S
C738 H728 0.930 1_545 S
C738 C737 1.400 . S
C738 C741 1.386 . S
H739 C755 0.910 1_565 S
H740 C756 0.931 1_565 S
C741 H729 0.929 1_545 S
C741 C735 1.390 . S
C741 C738 1.386 . S
C742 C737 1.490 . S
C742 C744 1.395 . S
C742 C745 1.403 . S
H743 C749 0.930 . S
C744 H730 0.930 . S
C744 C742 1.395 . S
C744 C747 1.403 . S
C745 C742 1.403 . S
C745 C746 1.524 . S
C745 C749 1.400 . S
C746 H731 0.960 . S
C746 H732 0.960 . S
C746 H733 0.960 1_545 S
C746 C745 1.524 . S
C747 C744 1.403 . S
C747 C748 1.392 . S
C747 C751 1.495 . S
C748 C747 1.392 . S
C748 C749 1.385 . S
C748 C750 1.478 . S
C749 H743 0.930 . S
C749 C745 1.400 . S
C749 C748 1.385 . S
C750 C748 1.478 . S
C750 C752 1.381 . S
C750 C756 1.383 . S
C751 C747 1.495 . S
C751 H757 0.959 . S
C751 H758 0.961 . S
C751 H759 0.960 . S
C752 C750 1.381 . S
C752 C753 1.394 . S
C752 H760 0.930 . S
C753 C752 1.394 . S
C753 C754 1.383 . S
C753 H761 0.929 . S
C754 C753 1.383 . S
C754 C755 1.390 . S
C755 H739 0.910 1_545 S
C755 C754 1.390 . S
C755 C756 1.386 . S
C756 H740 0.931 1_545 S
C756 C750 1.383 . S
C756 C755 1.386 . S
H757 C751 0.959 . S
H758 C751 0.961 . S
H759 C751 0.960 . S
H760 C752 0.930 . S
H761 C753 0.929 . S
H762 C770 0.929 . S
H763 C772 0.930 . S
H764 C774 0.930 . S
H765 C777 0.929 . S
H766 C780 0.930 . S
H767 C782 0.960 . S
H768 C782 0.960 . S
H769 C782 0.960 . S
C770 H762 0.929 . S
C770 C771 1.377 . S
C770 C772 1.384 . S
C771 C770 1.377 . S
C771 C777 1.390 . S
C772 H763 0.930 . S
C772 C770 1.384 . S
C772 C773 1.372 . S
C773 C772 1.372 . S
C773 C774 1.400 . S
C773 C778 1.490 . S
C774 H764 0.930 . S
C774 C773 1.400 . S
C774 C777 1.386 . S
H775 C791 0.930 . S
H776 C792 0.931 . S
C777 H765 0.929 . S
C777 C771 1.390 . S
C777 C774 1.386 . S
C778 C773 1.490 . S
C778 C780 1.395 . S
C778 C781 1.403 . S
H779 C785 0.925 1_554 S
C780 H766 0.930 . S
C780 C778 1.395 . S
C780 C783 1.403 . S
C781 C778 1.403 . S
C781 C782 1.524 . S
C781 C785 1.400 . S
C782 H767 0.960 . S
C782 H768 0.960 . S
C782 H769 0.960 . S
C782 C781 1.524 . S
C783 C780 1.403 . S
C783 C784 1.392 1_556 S
C783 C787 1.495 1_556 S
C784 C783 1.392 1_554 S
C784 C785 1.385 1_554 S
C784 C786 1.478 . S
C785 H779 0.925 1_556 S
C785 C781 1.400 . S
C785 C784 1.385 1_556 S
C786 C784 1.478 . S
C786 C788 1.381 . S
C786 C792 1.383 . S
C787 C783 1.495 1_554 S
C787 H793 0.959 1_554 S
C787 H794 0.961 . S
C787 H795 0.960 . S
C788 C786 1.381 . S
C788 C789 1.394 . S
C788 H796 0.930 . S
C789 C788 1.394 . S
C789 C790 1.383 . S
C789 H797 0.929 . S
C790 C789 1.383 . S
C790 C791 1.377 . S
C791 H775 0.930 . S
C791 C790 1.377 . S
C791 C792 1.379 . S
C792 H776 0.931 . S
C792 C786 1.383 . S
C792 C791 1.379 . S
H793 C787 0.959 1_556 S
H794 C787 0.961 . S
H795 C787 0.960 . S
H796 C788 0.930 . S
H797 C789 0.929 . S
H798 C806 0.929 . S
H799 C808 0.930 . S
H800 C810 0.930 1_655 S
H801 C813 0.929 1_655 S
H802 C816 0.930 . S
H803 C818 0.960 . S
H804 C818 0.960 . S
H805 C818 0.960 . S
C806 H798 0.929 . S
C806 C807 1.377 . S
C806 C808 1.384 . S
C807 C806 1.377 . S
C807 C813 1.390 . S
C808 H799 0.930 . S
C808 C806 1.384 . S
C808 C809 1.372 . S
C809 C808 1.372 . S
C809 C810 1.400 . S
C809 C814 1.490 . S
C810 H800 0.930 1_455 S
C810 C809 1.400 . S
C810 C813 1.386 . S
H811 C827 0.930 . S
H812 C828 0.931 1_655 S
C813 H801 0.929 1_455 S
C813 C807 1.390 . S
C813 C810 1.386 . S
C814 C809 1.490 . S
C814 C816 1.395 . S
C814 C817 1.403 1_455 S
H815 C821 0.930 . S
C816 H802 0.930 . S
C816 C814 1.395 . S
C816 C819 1.403 . S
C817 C814 1.403 1_655 S
C817 C818 1.524 . S
C817 C821 1.400 . S
C818 H803 0.960 . S
C818 H804 0.960 . S
C818 H805 0.960 . S
C818 C817 1.524 . S
C819 C816 1.403 . S
C819 C820 1.392 . S
C819 C823 1.495 . S
C820 C819 1.392 . S
C820 C821 1.385 1_455 S
C820 C822 1.478 . S
C821 H815 0.930 . S
C821 C817 1.400 . S
C821 C820 1.385 1_655 S
C822 C820 1.478 . S
C822 C824 1.381 . S
C822 C828 1.383 . S
C823 C819 1.495 . S
C823 H829 0.959 . S
C823 H830 0.961 . S
C823 H831 0.960 . S
C824 C822 1.381 . S
C824 C825 1.394 . S
C824 H832 0.930 . S
C825 C824 1.394 . S
C825 C826 1.383 . S
C825 H833 0.929 . S
C826 C825 1.383 . S
C826 C827 1.377 1_455 S
C827 H811 0.930 . S
C827 C826 1.377 1_655 S
C827 C828 1.379 1_655 S
C828 H812 0.931 1_455 S
C828 C822 1.383 . S
C828 C827 1.379 1_455 S
H829 C823 0.959 . S
H830 C823 0.961 . S
H831 C823 0.960 . S
H832 C824 0.930 . S
H833 C825 0.929 . S
C195 C6 0.545 . S
C214 C185 0.542 . S
C231 C59 1.922 . S
C250 C163 1.895 . S
C267 C86 1.223 . S
C286 C174 1.195 . S
C303 C15 0.249 . S
C322 C179 0.110 . S
C358 C157 1.818 . S
C339 C50 1.822 . S
C394 C168 1.125 . S
C375 C95 1.115 . S
C411 C46 1.257 . S
C430 C141 1.261 . S
C447 C99 3.005 . S
C466 C146 2.969 1_655 S
C483 C10 1.835 . S
C502 C124 1.826 1_565 S
C538 C135 1.093 . S
C519 C55 1.097 . S
C574 C152 2.995 . S
C555 C90 3.013 . S
C591 C19 1.920 . S
C610 C130 1.891 . S
C646 C147 1.717 . S
C627 C18 1.680 . S
C663 C49 1.417 . S
C682 C125 1.475 . S
C699 C98 1.508 . S
C718 C136 1.550 . S
C754 C169 1.517 . S
C735 C58 1.512 . S
C790 C180 1.279 . S
C771 C89 1.262 . S
C807 C9 1.389 . S
C826 C158 1.431 . S
