# Generated by pormake.
# Topology pyr, (3,6)-cn, num edge types: 1
# Building blocks:
#     Node 0, Type 0, BuildingBlock: MIDCAF_clean_linker_0, # of connection points: 3
#     Node 1, Type 0, BuildingBlock: MIDCAF_clean_linker_0, # of connection points: 3
#     Node 2, Type 0, BuildingBlock: MIDCAF_clean_linker_0, # of connection points: 3
#     Node 3, Type 0, BuildingBlock: MIDCAF_clean_linker_0, # of connection points: 3
#     Node 4, Type 0, BuildingBlock: MIDCAF_clean_linker_0, # of connection points: 3
#     Node 5, Type 0, BuildingBlock: MIDCAF_clean_linker_0, # of connection points: 3
#     Node 6, Type 0, BuildingBlock: MIDCAF_clean_linker_0, # of connection points: 3
#     Node 7, Type 0, BuildingBlock: MIDCAF_clean_linker_0, # of connection points: 3
#     Node 8, Type 1, BuildingBlock: VOLQOD_clean_sbu_1, # of connection points: 6
#     Node 9, Type 1, BuildingBlock: VOLQOD_clean_sbu_1, # of connection points: 6
#     Node 10, Type 1, BuildingBlock: VOLQOD_clean_sbu_1, # of connection points: 6
#     Node 11, Type 1, BuildingBlock: VOLQOD_clean_sbu_1, # of connection points: 6
#     Edge 12, Type (0, 1), BuildingBlock: ZUJKAS_clean_linker_0, # of connection points: 2
#     Edge 13, Type (0, 1), BuildingBlock: ZUJKAS_clean_linker_0, # of connection points: 2
#     Edge 14, Type (0, 1), BuildingBlock: ZUJKAS_clean_linker_0, # of connection points: 2
#     Edge 15, Type (0, 1), BuildingBlock: ZUJKAS_clean_linker_0, # of connection points: 2
#     Edge 16, Type (0, 1), BuildingBlock: ZUJKAS_clean_linker_0, # of connection points: 2
#     Edge 17, Type (0, 1), BuildingBlock: ZUJKAS_clean_linker_0, # of connection points: 2
#     Edge 18, Type (0, 1), BuildingBlock: ZUJKAS_clean_linker_0, # of connection points: 2
#     Edge 19, Type (0, 1), BuildingBlock: ZUJKAS_clean_linker_0, # of connection points: 2
#     Edge 20, Type (0, 1), BuildingBlock: ZUJKAS_clean_linker_0, # of connection points: 2
#     Edge 21, Type (0, 1), BuildingBlock: ZUJKAS_clean_linker_0, # of connection points: 2
#     Edge 22, Type (0, 1), BuildingBlock: ZUJKAS_clean_linker_0, # of connection points: 2
#     Edge 23, Type (0, 1), BuildingBlock: ZUJKAS_clean_linker_0, # of connection points: 2
#     Edge 24, Type (0, 1), BuildingBlock: ZUJKAS_clean_linker_0, # of connection points: 2
#     Edge 25, Type (0, 1), BuildingBlock: ZUJKAS_clean_linker_0, # of connection points: 2
#     Edge 26, Type (0, 1), BuildingBlock: ZUJKAS_clean_linker_0, # of connection points: 2
#     Edge 27, Type (0, 1), BuildingBlock: ZUJKAS_clean_linker_0, # of connection points: 2
#     Edge 28, Type (0, 1), BuildingBlock: ZUJKAS_clean_linker_0, # of connection points: 2
#     Edge 29, Type (0, 1), BuildingBlock: ZUJKAS_clean_linker_0, # of connection points: 2
#     Edge 30, Type (0, 1), BuildingBlock: ZUJKAS_clean_linker_0, # of connection points: 2
#     Edge 31, Type (0, 1), BuildingBlock: ZUJKAS_clean_linker_0, # of connection points: 2
#     Edge 32, Type (0, 1), BuildingBlock: ZUJKAS_clean_linker_0, # of connection points: 2
#     Edge 33, Type (0, 1), BuildingBlock: ZUJKAS_clean_linker_0, # of connection points: 2
#     Edge 34, Type (0, 1), BuildingBlock: ZUJKAS_clean_linker_0, # of connection points: 2
#     Edge 35, Type (0, 1), BuildingBlock: ZUJKAS_clean_linker_0, # of connection points: 2
# Relax obj value: 0.035
# Max RMSD: 0.119
# Mean RMSD: 0.044
data_MOF--net-pry--node1-VOLQOD_clean_sbu_1--node2-MIDCAF_clean_linker_0--edge1-ZUJKAS_clean_linker_0
_symmetry_space_group_name_H-M    P1
_symmetry_Int_Tables_number       1
_symmetry_cell_setting            triclinic
loop_
_symmetry_equiv_pos_as_xyz
'x, y, z'
_cell_length_a     55.921494
_cell_length_b     55.967759
_cell_length_c     56.197198
_cell_angle_alpha  90.025277
_cell_angle_beta   90.115608
_cell_angle_gamma 90.184184
loop_
_atom_site_label
_atom_site_type_symbol
_atom_site_fract_x
_atom_site_fract_y
_atom_site_fract_z
_atom_type_partial_charge
C0 C 0.08483 0.12237 0.21412 0.0
C1 C 0.09772 0.10492 0.22668 0.0
C2 C 0.1194 0.09664 0.21726 0.0
C3 C 0.12815 0.10574 0.19584 0.0
H4 H 0.179 0.09366 0.14552 0.0
H5 H 0.21575 0.07739 0.12918 0.0
H6 H 0.2166 0.13282 0.07575 0.0
H7 H 0.17998 0.14943 0.09224 0.0
H8 H 0.13781 0.18582 0.08977 0.0
H9 H 0.12113 0.22215 0.07295 0.0
H10 H 0.06912 0.2248 0.1296 0.0
H11 H 0.086 0.18861 0.14677 0.0
H12 H 0.08339 0.14523 0.18364 0.0
H13 H 0.06815 0.12922 0.22106 0.0
H14 H 0.12959 0.083 0.22641 0.0
H15 H 0.145 0.09899 0.18921 0.0
N16 N 0.14506 0.12397 0.15096 0.0
N17 N 0.14405 0.15275 0.12073 0.0
N18 N 0.11495 0.15301 0.15072 0.0
C19 C 0.15456 0.13337 0.13079 0.0
C20 C 0.12423 0.16267 0.13055 0.0
C21 C 0.12526 0.13363 0.16103 0.0
C22 C 0.17649 0.12295 0.12028 0.0
C23 C 0.18692 0.1024 0.13024 0.0
C24 C 0.20794 0.09295 0.12078 0.0
C25 C 0.21909 0.10381 0.10117 0.0
C26 C 0.20858 0.1242 0.09104 0.0
C27 C 0.1875 0.13364 0.10044 0.0
C28 C 0.11335 0.18425 0.11973 0.0
C29 C 0.12276 0.19403 0.09866 0.0
C30 C 0.1131 0.21482 0.08889 0.0
C31 C 0.09381 0.22638 0.09994 0.0
C32 C 0.08417 0.21647 0.12082 0.0
C33 C 0.09379 0.19563 0.13058 0.0
C34 C 0.11549 0.12348 0.18339 0.0
C35 C 0.09366 0.13162 0.19274 0.0
C36 C 0.31345 0.92193 0.61965 0.0
C37 C 0.30045 0.9091 0.60244 0.0
C38 C 0.30964 0.88736 0.594 0.0
C39 C 0.33124 0.87849 0.60279 0.0
H40 H 0.38191 0.82751 0.59061 0.0
H41 H 0.39819 0.79078 0.57428 0.0
H42 H 0.45176 0.78962 0.62974 0.0
H43 H 0.43529 0.82622 0.64643 0.0
H44 H 0.43672 0.86778 0.68443 0.0
H45 H 0.45233 0.88409 0.72156 0.0
H46 H 0.3954 0.93603 0.72265 0.0
H47 H 0.37951 0.91963 0.68576 0.0
H48 H 0.34435 0.92321 0.64207 0.0
H49 H 0.3067 0.93863 0.62664 0.0
H50 H 0.30012 0.87721 0.58055 0.0
H51 H 0.33767 0.86158 0.59602 0.0
N52 N 0.37655 0.8614 0.62082 0.0
N53 N 0.40645 0.86194 0.65013 0.0
N54 N 0.37644 0.8911 0.6502 0.0
C55 C 0.39663 0.85173 0.63043 0.0
C56 C 0.39648 0.88166 0.66011 0.0
C57 C 0.36638 0.8811 0.63055 0.0
C58 C 0.4072 0.82986 0.61993 0.0
C59 C 0.39722 0.81953 0.59934 0.0
C60 C 0.40664 0.79852 0.58985 0.0
C61 C 0.42626 0.78728 0.60071 0.0
C62 C 0.43645 0.79771 0.62112 0.0
C63 C 0.42706 0.81878 0.63061 0.0
C64 C 0.40675 0.89227 0.68209 0.0
C65 C 0.42754 0.88273 0.69249 0.0
C66 C 0.43659 0.89217 0.71373 0.0
C67 C 0.42504 0.91129 0.72508 0.0
C68 C 0.40451 0.92107 0.7145 0.0
C69 C 0.39549 0.91171 0.69325 0.0
C70 C 0.34405 0.89107 0.62038 0.0
C71 C 0.33497 0.91299 0.62859 0.0
C72 C 0.60125 0.31839 0.9426 0.0
C73 C 0.58233 0.3063 0.93129 0.0
C74 C 0.57184 0.31655 0.91099 0.0
C75 C 0.58047 0.33811 0.90186 0.0
H76 H 0.56798 0.38833 0.84985 0.0
H77 H 0.55255 0.40207 0.81174 0.0
H78 H 0.61487 0.44705 0.80295 0.0
H79 H 0.62998 0.43391 0.84132 0.0
H80 H 0.66455 0.44104 0.88512 0.0
H81 H 0.70256 0.45669 0.89946 0.0
H82 H 0.70483 0.40173 0.95332 0.0
H83 H 0.66695 0.38573 0.93883 0.0
H84 H 0.62488 0.34849 0.94234 0.0
H85 H 0.60985 0.31084 0.95815 0.0
H86 H 0.55701 0.30782 0.90207 0.0
H87 H 0.57214 0.34527 0.88598 0.0
N88 N 0.6004 0.38123 0.88193 0.0
N89 N 0.63032 0.41061 0.88086 0.0
N90 N 0.63012 0.3821 0.9114 0.0
C91 C 0.61035 0.40062 0.87126 0.0
C92 C 0.64028 0.40154 0.90098 0.0
C93 C 0.61014 0.37187 0.90202 0.0
C94 C 0.6003 0.40992 0.84867 0.0
C95 C 0.57835 0.40127 0.83988 0.0
C96 C 0.56954 0.40905 0.81794 0.0
C97 C 0.58252 0.42557 0.80418 0.0
C98 C 0.60423 0.43457 0.81319 0.0
C99 C 0.61297 0.4269 0.83519 0.0
C100 C 0.66268 0.41199 0.9107 0.0
C101 C 0.67303 0.4323 0.9001 0.0
C102 C 0.69478 0.44141 0.90842 0.0
C103 C 0.70674 0.43041 0.92748 0.0
C104 C 0.69619 0.41041 0.9384 0.0
C105 C 0.67439 0.40133 0.93014 0.0
C106 C 0.59988 0.3499 0.91275 0.0
C107 C 0.60995 0.33993 0.93343 0.0
C108 C 0.81557 0.59978 0.43581 0.0
C109 C 0.80716 0.57773 0.42712 0.0
C110 C 0.82101 0.5654 0.41028 0.0
C111 C 0.84242 0.57516 0.40189 0.0
H112 H 0.8832 0.57596 0.34075 0.0
H113 H 0.8985 0.56282 0.3025 0.0
H114 H 0.96036 0.60846 0.31153 0.0
H115 H 0.9447 0.62221 0.34948 0.0
H116 H 0.93741 0.66758 0.38313 0.0
H117 H 0.95165 0.70558 0.39886 0.0
H118 H 0.90221 0.69967 0.45749 0.0
H119 H 0.888 0.66149 0.44198 0.0
H120 H 0.84274 0.6267 0.43434 0.0
H121 H 0.80523 0.60994 0.44853 0.0
H122 H 0.81531 0.54817 0.40352 0.0
H123 H 0.85246 0.56525 0.38873 0.0
N124 N 0.88279 0.59921 0.38042 0.0
N125 N 0.91172 0.62958 0.38091 0.0
N126 N 0.88215 0.62836 0.41039 0.0
C127 C 0.90238 0.60966 0.37062 0.0
C128 C 0.90176 0.63903 0.40082 0.0
C129 C 0.8726 0.60839 0.40035 0.0
C130 C 0.91261 0.60029 0.34817 0.0
C131 C 0.90015 0.5831 0.3347 0.0
C132 C 0.90901 0.57544 0.31277 0.0
C133 C 0.93063 0.58464 0.30384 0.0
C134 C 0.94343 0.60132 0.31764 0.0
C135 C 0.93449 0.60911 0.3395 0.0
C136 C 0.91142 0.66146 0.41119 0.0
C137 C 0.92964 0.67423 0.39947 0.0
C138 C 0.93774 0.69609 0.4084 0.0
C139 C 0.92795 0.70567 0.42932 0.0
C140 C 0.91023 0.69265 0.44142 0.0
C141 C 0.902 0.67082 0.43242 0.0
C142 C 0.85059 0.59743 0.41025 0.0
C143 C 0.83707 0.60947 0.42755 0.0
C144 C 0.842 0.97266 0.94658 0.0
C145 C 0.82686 0.95696 0.95908 0.0
C146 C 0.83465 0.93343 0.96316 0.0
C147 C 0.85662 0.92562 0.95439 0.0
H148 H 0.91114 0.87524 0.96501 0.0
H149 H 0.92462 0.83502 0.97478 0.0
H150 H 0.96838 0.83418 0.91158 0.0
H151 H 0.95493 0.87427 0.90162 0.0
H152 H 0.95866 0.91963 0.87032 0.0
H153 H 0.96938 0.93436 0.83114 0.0
H154 H 0.91425 0.98803 0.83593 0.0
H155 H 0.90309 0.97302 0.87508 0.0
H156 H 0.87479 0.97712 0.92745 0.0
H157 H 0.8369 0.99105 0.94353 0.0
H158 H 0.82339 0.92065 0.97234 0.0
H159 H 0.86167 0.90718 0.95731 0.0
N160 N 0.90306 0.91103 0.93689 0.0
N161 N 0.93098 0.91304 0.90595 0.0
N162 N 0.90231 0.94318 0.91013 0.0
C163 C 0.9221 0.90156 0.9253 0.0
C164 C 0.92128 0.93388 0.89827 0.0
C165 C 0.89315 0.93189 0.9295 0.0
C166 C 0.93178 0.87799 0.93242 0.0
C167 C 0.92378 0.8666 0.95326 0.0
C168 C 0.93159 0.84359 0.95895 0.0
C169 C 0.94741 0.83143 0.94385 0.0
C170 C 0.95593 0.84303 0.92339 0.0
C171 C 0.94829 0.86608 0.91778 0.0
C172 C 0.92978 0.94492 0.87582 0.0
C173 C 0.94894 0.93475 0.86322 0.0
C174 C 0.95523 0.94331 0.84076 0.0
C175 C 0.94256 0.96227 0.83033 0.0
C176 C 0.92412 0.97316 0.84334 0.0
C177 C 0.91782 0.96461 0.86586 0.0
C178 C 0.8712 0.94102 0.94099 0.0
C179 C 0.86383 0.96473 0.93747 0.0
C180 C 0.58941 0.04487 0.34338 0.0
C181 C 0.56945 0.05532 0.33232 0.0
C182 C 0.55622 0.07248 0.34488 0.0
C183 C 0.56338 0.07982 0.36754 0.0
H184 H 0.55399 0.13523 0.41279 0.0
H185 H 0.54079 0.17488 0.42444 0.0
H186 H 0.59379 0.17623 0.48045 0.0
H187 H 0.6074 0.13673 0.46858 0.0
H188 H 0.6463 0.09715 0.47076 0.0
H189 H 0.68594 0.08586 0.48453 0.0
H190 H 0.69115 0.03446 0.42744 0.0
H191 H 0.65132 0.04536 0.41383 0.0
H192 H 0.61251 0.04432 0.37373 0.0
H193 H 0.60007 0.03171 0.33411 0.0
H194 H 0.54049 0.08053 0.33701 0.0
H195 H 0.55305 0.09351 0.37641 0.0
N196 N 0.58275 0.09964 0.41072 0.0
N197 N 0.61204 0.10071 0.44054 0.0
N198 N 0.61315 0.07092 0.41123 0.0
C199 C 0.59204 0.11007 0.43051 0.0
C200 C 0.62266 0.08108 0.4311 0.0
C201 C 0.59311 0.08001 0.40101 0.0
C202 C 0.58199 0.13282 0.43953 0.0
C203 C 0.5627 0.1438 0.42777 0.0
C204 C 0.55501 0.16653 0.43453 0.0
C205 C 0.5664 0.1788 0.45322 0.0
C206 C 0.58494 0.16741 0.46569 0.0
C207 C 0.59264 0.14467 0.45894 0.0
C208 C 0.64564 0.07237 0.44099 0.0
C209 C 0.65573 0.08325 0.46124 0.0
C210 C 0.67854 0.07688 0.4691 0.0
C211 C 0.69181 0.05947 0.45692 0.0
C212 C 0.68133 0.04783 0.43732 0.0
C213 C 0.6585 0.05419 0.42945 0.0
C214 C 0.58398 0.07018 0.37821 0.0
C215 C 0.59659 0.0522 0.36608 0.0
C216 C 0.33084 0.56182 0.08864 0.0
C217 C 0.31975 0.57442 0.07004 0.0
C218 C 0.33217 0.59338 0.05923 0.0
C219 C 0.35484 0.6001 0.06736 0.0
H220 H 0.40613 0.65122 0.05846 0.0
H221 H 0.42134 0.68991 0.04572 0.0
H222 H 0.47207 0.68959 0.10378 0.0
H223 H 0.4573 0.65066 0.1163 0.0
H224 H 0.45857 0.60751 0.15142 0.0
H225 H 0.47243 0.59143 0.1892 0.0
H226 H 0.41453 0.54016 0.18861 0.0
H227 H 0.40083 0.55587 0.15061 0.0
H228 H 0.3613 0.55867 0.11144 0.0
H229 H 0.32189 0.54689 0.09708 0.0
H230 H 0.32404 0.60359 0.045 0.0
H231 H 0.36359 0.61516 0.05895 0.0
N232 N 0.39946 0.61633 0.08751 0.0
N233 N 0.42926 0.6141 0.11678 0.0
N234 N 0.39846 0.58561 0.1158 0.0
C235 C 0.41977 0.62522 0.09748 0.0
C236 C 0.41879 0.59422 0.126 0.0
C237 C 0.38872 0.59651 0.0965 0.0
C238 C 0.43034 0.64783 0.08854 0.0
C239 C 0.42067 0.65925 0.06843 0.0
C240 C 0.4293 0.68152 0.06117 0.0
C241 C 0.44777 0.69294 0.07385 0.0
C242 C 0.45798 0.68119 0.09348 0.0
C243 C 0.44939 0.65889 0.10073 0.0
C244 C 0.42842 0.58315 0.14799 0.0
C245 C 0.44887 0.59267 0.15918 0.0
C246 C 0.45678 0.58353 0.18093 0.0
C247 C 0.44447 0.56466 0.19201 0.0
C248 C 0.42454 0.55458 0.18045 0.0
C249 C 0.41661 0.56371 0.15869 0.0
C250 C 0.36563 0.58801 0.08651 0.0
C251 C 0.35352 0.56852 0.09677 0.0
C252 C 0.08505 0.32862 0.56514 0.0
C253 C 0.06586 0.31849 0.57775 0.0
C254 C 0.05512 0.33183 0.59601 0.0
C255 C 0.06393 0.35442 0.60209 0.0
H256 H 0.0556 0.40964 0.65034 0.0
H257 H 0.04344 0.4262 0.68857 0.0
H258 H 0.10717 0.46991 0.69018 0.0
H259 H 0.11951 0.45338 0.65206 0.0
H260 H 0.15589 0.45109 0.61057 0.0
H261 H 0.19464 0.46208 0.59433 0.0
H262 H 0.18541 0.41022 0.53805 0.0
H263 H 0.14686 0.39874 0.55459 0.0
H264 H 0.10906 0.35812 0.56145 0.0
H265 H 0.0939 0.31874 0.55114 0.0
H266 H 0.04006 0.32468 0.60582 0.0
H267 H 0.05552 0.36396 0.6166 0.0
N268 N 0.08608 0.39857 0.61749 0.0
N269 N 0.117 0.42681 0.61478 0.0
N270 N 0.11448 0.39566 0.58703 0.0
C271 C 0.09711 0.41851 0.62595 0.0
C272 C 0.12573 0.41558 0.59523 0.0
C273 C 0.09462 0.38704 0.59801 0.0
C274 C 0.08864 0.43001 0.64815 0.0
C275 C 0.06696 0.42292 0.65871 0.0
C276 C 0.0599 0.43249 0.68056 0.0
C277 C 0.07444 0.44923 0.69241 0.0
C278 C 0.09576 0.45682 0.68158 0.0
C279 C 0.10274 0.44741 0.65965 0.0
C280 C 0.14828 0.42385 0.58405 0.0
C281 C 0.16197 0.44214 0.59461 0.0
C282 C 0.18418 0.44856 0.58521 0.0
C283 C 0.19321 0.43694 0.56496 0.0
C284 C 0.17916 0.41924 0.55391 0.0
C285 C 0.15698 0.41275 0.56335 0.0
C286 C 0.0837 0.3642 0.59005 0.0
C287 C 0.09384 0.35121 0.57118 0.0
O288 O 0.99664 0.06104 0.53836 0.0
Zn289 Zn 0.98378 0.02745 0.53696 0.0
O290 O 0.00454 0.00675 0.51814 0.0
Zn291 Zn 0.98768 0.99663 0.4893 0.0
Zn292 Zn 0.03351 0.02431 0.50946 0.0
Zn293 Zn 0.0131 0.97867 0.53695 0.0
O294 O 0.98616 0.96072 0.48721 0.0
O295 O 0.00069 0.94835 0.52187 0.0
O296 O 0.95054 0.02852 0.52324 0.0
O297 O 0.95355 0.00803 0.48956 0.0
O298 O 0.00371 0.00938 0.45971 0.0
O299 O 0.03653 0.02674 0.47389 0.0
O300 O 0.06318 0.0083 0.52223 0.0
O301 O 0.98119 0.01572 0.57066 0.0
O302 O 0.04883 0.9757 0.53965 0.0
O303 O 0.00046 0.98113 0.57045 0.0
C304 C 0.01641 0.07043 0.53204 0.0
C305 C 0.99114 0.94397 0.50173 0.0
C306 C 0.02328 0.02064 0.45645 0.0
C307 C 0.94124 0.02017 0.50427 0.0
C308 C 0.0664 0.98882 0.53348 0.0
C309 C 0.98845 0.99704 0.58133 0.0
O310 O 0.0324 0.05819 0.52156 0.0
O311 O 0.50583 0.05702 0.99558 0.0
Zn312 Zn 0.49311 0.02334 0.99849 0.0
O313 O 0.51336 0.0041 0.01953 0.0
Zn314 Zn 0.52793 0.9781 0.00147 0.0
Zn315 Zn 0.53851 0.02428 0.03315 0.0
Zn316 Zn 0.49396 0.99054 0.04511 0.0
O317 O 0.51878 0.94603 0.01482 0.0
O318 O 0.49324 0.95456 0.04374 0.0
O319 O 0.49123 0.00888 0.96559 0.0
O320 O 0.51642 0.97835 0.96756 0.0
O321 O 0.5639 0.98055 0.00149 0.0
O322 O 0.57111 0.01294 0.02321 0.0
O323 O 0.53741 0.02415 0.06902 0.0
O324 O 0.4596 0.02583 0.01151 0.0
O325 O 0.50713 -0.00024 0.07713 0.0
O326 O 0.4602 0.0028 0.04365 0.0
C327 C 0.52243 0.06839 0.00631 0.0
C328 C 0.50448 0.93938 0.03114 0.0
C329 C 0.57846 0.99542 0.01079 0.0
C330 C 0.50172 0.99119 0.95591 0.0
C331 C 0.52413 0.01331 0.08396 0.0
C332 C 0.44917 0.01675 0.02951 0.0
O333 O 0.53572 0.05814 0.02161 0.0
O334 O 0.52681 0.49911 0.55294 0.0
Zn335 Zn 0.52483 0.51218 0.51962 0.0
O336 O 0.50443 0.49219 0.49939 0.0
Zn337 Zn 0.52339 0.47895 0.47326 0.0
Zn338 Zn 0.49107 0.46614 0.5184 0.0
Zn339 Zn 0.47836 0.51148 0.48639 0.0
O340 O 0.50998 0.48879 0.44143 0.0
O341 O 0.47976 0.5127 0.4506 0.0
O342 O 0.5583 0.5143 0.50662 0.0
O343 O 0.55736 0.49109 0.47457 0.0
O344 O 0.52412 0.44288 0.47455 0.0
O345 O 0.50102 0.43425 0.50546 0.0
O346 O 0.45509 0.46706 0.51864 0.0
O347 O 0.51178 0.54554 0.52222 0.0
O348 O 0.44624 0.49792 0.4955 0.0
O349 O 0.47959 0.54518 0.49906 0.0
C350 C 0.51689 0.48151 0.56338 0.0
C351 C 0.49296 0.50252 0.4352 0.0
C352 C 0.51423 0.42767 0.48826 0.0
C353 C 0.5686 0.50498 0.48869 0.0
C354 C 0.43977 0.48049 0.50857 0.0
C355 C 0.49376 0.55606 0.51318 0.0
O356 O 0.50263 0.46761 0.55231 0.0
O357 O 0.98621 0.51175 0.05208 0.0
Zn358 Zn 0.98879 0.4989 0.01868 0.0
O359 O 0.00899 0.5195 0.99889 0.0
Zn360 Zn 0.99012 0.53233 0.97246 0.0
Zn361 Zn 0.02149 0.54585 0.01821 0.0
Zn362 Zn 0.03565 0.5009 0.98621 0.0
O363 O 0.00356 0.5221 0.94083 0.0
O364 O 0.03518 0.50021 0.95038 0.0
O365 O 0.95542 0.49641 0.00524 0.0
O366 O 0.95613 0.52038 0.97378 0.0
O367 O 0.98958 0.56838 0.97312 0.0
O368 O 0.01139 0.57759 0.0049 0.0
O369 O 0.05754 0.5454 0.01954 0.0
O370 O 0.0024 0.4657 0.02109 0.0
O371 O 0.06724 0.51471 0.99654 0.0
O372 O 0.03468 0.467 0.99821 0.0
C373 C 0.99529 0.52977 0.06264 0.0
C374 C 0.02143 0.50942 0.93482 0.0
C375 C 0.99881 0.58384 0.98706 0.0
C376 C 0.94501 0.50609 0.98753 0.0
C377 C 0.07323 0.53212 0.00989 0.0
C378 C 0.02064 0.45564 0.01202 0.0
O379 O 0.00914 0.54419 0.05178 0.0
H380 H 0.12326 0.09808 0.26752 0.0
H381 H 0.10877 0.08274 0.30566 0.0
H382 H 0.03774 0.07589 0.27643 0.0
H383 H 0.05215 0.09104 0.23806 0.0
H384 H 0.0685 0.10352 0.33346 0.0
H385 H 0.05493 0.00865 0.30649 0.0
H386 H 0.07459 0.02861 0.29046 0.0
H387 H 0.0428 0.03141 0.28735 0.0
C388 C 0.10461 0.09309 0.26914 0.0
C389 C 0.08885 0.09565 0.24978 0.0
C390 C 0.09635 0.08446 0.29094 0.0
C391 C 0.07228 0.078 0.29371 0.0
C392 C 0.05645 0.08057 0.2745 0.0
H393 H 0.99679 0.01748 0.41543 0.0
H394 H 0.00788 0.03164 0.37573 0.0
C395 C 0.06466 0.08938 0.2527 0.0
C396 C 0.06373 0.06913 0.31696 0.0
H397 H 0.04456 0.01897 0.3458 0.0
C398 C 0.06322 0.08505 0.33621 0.0
C399 C 0.05671 0.0451 0.32031 0.0
C400 C 0.05735 0.0273 0.30016 0.0
C401 C 0.05584 0.07756 0.35885 0.0
C402 C 0.04945 0.05333 0.36243 0.0
C403 C 0.04958 0.0375 0.34304 0.0
C404 C 0.04304 0.04402 0.38627 0.0
C405 C 0.05464 0.09577 0.37863 0.0
C406 C 0.05935 0.04574 0.40519 0.0
C407 C 0.05305 0.03781 0.42788 0.0
C408 C 0.03038 0.0277 0.43205 0.0
C409 C 0.01437 0.02522 0.41285 0.0
C410 C 0.02066 0.03332 0.39016 0.0
H411 H 0.05306 0.11423 0.37154 0.0
H412 H 0.03925 0.09224 0.39058 0.0
H413 H 0.0713 0.09488 0.38935 0.0
H414 H 0.07697 0.05334 0.40243 0.0
H415 H 0.06593 0.03976 0.44218 0.0
H416 H 0.47143 0.92027 0.73819 0.0
H417 H 0.48602 0.93456 0.77686 0.0
H418 H 0.41353 0.93804 0.80259 0.0
H419 H 0.39883 0.92334 0.76425 0.0
H420 H 0.47371 0.97805 0.80177 0.0
H421 H 0.44937 0.89598 0.85192 0.0
H422 H 0.4514 0.89664 0.81986 0.0
H423 H 0.42558 0.90865 0.83452 0.0
C424 C 0.45862 0.92393 0.75215 0.0
C425 C 0.43399 0.9206 0.7482 0.0
C426 C 0.46697 0.93222 0.77414 0.0
C427 C 0.45085 0.93709 0.79259 0.0
C428 C 0.42625 0.93411 0.78863 0.0
H429 H 0.47097 0.01372 0.9252 0.0
H430 H 0.45995 0.00134 0.88488 0.0
C431 C 0.41789 0.92591 0.76665 0.0
C432 C 0.4597 0.94519 0.81607 0.0
H433 H 0.4621 0.92939 0.87466 0.0
C434 C 0.47128 0.96742 0.81773 0.0
C435 C 0.4567 0.93112 0.83673 0.0
C436 C 0.44528 0.90667 0.83576 0.0
C437 C 0.47953 0.97618 0.83969 0.0
C438 C 0.47588 0.9624 0.86046 0.0
C439 C 0.46471 0.93998 0.8587 0.0
C440 C 0.48355 0.97079 0.88428 0.0
C441 C 0.4923 -6e-05 0.84048 0.0
C442 C 0.50031 0.95758 0.89734 0.0
C443 C 0.50659 0.96453 0.9204 0.0
C444 C 0.49607 0.98474 0.93093 0.0
C445 C 0.47947 0.99811 0.91764 0.0
C446 C 0.47324 0.99115 0.89453 0.0
H447 H 0.49873 0.00545 0.8226 0.0
H448 H 0.47979 0.01382 0.847 0.0
H449 H 0.50779 0.99931 0.85286 0.0
H450 H 0.50838 0.94175 0.88975 0.0
H451 H 0.51941 0.95379 0.93008 0.0
H452 H 0.56122 0.39739 0.77031 0.0
H453 H 0.54849 0.40888 0.73029 0.0
H454 H 0.5722 0.48108 0.74324 0.0
H455 H 0.58442 0.46999 0.78359 0.0
H456 H 0.51538 0.44892 0.71646 0.0
H457 H 0.60815 0.45678 0.68141 0.0
H458 H 0.60111 0.43984 0.70785 0.0
H459 H 0.60173 0.47186 0.70895 0.0
C460 C 0.56339 0.41582 0.76485 0.0
C461 C 0.57391 0.43276 0.78019 0.0
C462 C 0.55623 0.42229 0.74192 0.0
C463 C 0.55965 0.44573 0.73384 0.0
C464 C 0.56972 0.46282 0.74914 0.0
H465 H 0.54171 0.51015 0.59433 0.0
H466 H 0.55078 0.50239 0.63617 0.0
C467 C 0.57677 0.45641 0.77213 0.0
C468 C 0.55301 0.45216 0.70922 0.0
H469 H 0.57674 0.46635 0.65516 0.0
C470 C 0.52873 0.45277 0.70301 0.0
C471 C 0.57055 0.45724 0.69187 0.0
C472 C 0.59689 0.4563 0.69767 0.0
C473 C 0.52146 0.45853 0.67979 0.0
C474 C 0.53902 0.46319 0.66227 0.0
C475 C 0.56332 0.46277 0.66861 0.0
C476 C 0.53268 0.46817 0.63714 0.0
C477 C 0.49506 0.46 0.6744 0.0
C478 C 0.51966 0.45142 0.62375 0.0
C479 C 0.5143 0.45585 0.59987 0.0
C480 C 0.52217 0.47701 0.58882 0.0
C481 C 0.53538 0.49368 0.60226 0.0
C482 C 0.54058 0.48929 0.62619 0.0
H483 H 0.48443 0.46312 0.69078 0.0
H484 H 0.4912 0.47454 0.66152 0.0
H485 H 0.489 0.44284 0.6665 0.0
H486 H 0.51393 0.43472 0.63166 0.0
H487 H 0.50428 0.44253 0.59 0.0
H488 H 0.92884 0.54027 0.28298 0.0
H489 H 0.94112 0.52939 0.24263 0.0
H490 H 0.96458 0.60173 0.23017 0.0
H491 H 0.95177 0.61301 0.27014 0.0
H492 H 0.92368 0.55318 0.19886 0.0
H493 H 0.02235 0.55792 0.21058 0.0
H494 H 0.00205 0.55418 0.2353 0.0
H495 H 0.00563 0.58296 0.22166 0.0
C496 C 0.93653 0.55391 0.27166 0.0
C497 C 0.93932 0.57753 0.27986 0.0
C498 C 0.94366 0.54761 0.24868 0.0
C499 C 0.95396 0.56472 0.2336 0.0
C500 C 0.95703 0.5882 0.24174 0.0
H501 H 0.0059 0.56938 0.08924 0.0
H502 H 0.99546 0.577 0.13074 0.0
C503 C 0.94977 0.59457 0.26463 0.0
C504 C 0.96047 0.55835 0.20894 0.0
H505 H 0.00789 0.55317 0.17122 0.0
C506 C 0.94208 0.55298 0.19279 0.0
C507 C 0.98447 0.55832 0.20118 0.0
C508 C 0.00485 0.56347 0.21806 0.0
C509 C 0.94702 0.54812 0.1688 0.0
C510 C 0.97108 0.54804 0.16098 0.0
C511 C 0.98948 0.55322 0.17725 0.0
C512 C 0.97751 0.5431 0.13589 0.0
C513 C 0.92639 0.54394 0.15193 0.0
C514 C 0.97117 0.52135 0.12512 0.0
C515 C 0.97693 0.517 0.10132 0.0
C516 C 0.98945 0.5342 0.08795 0.0
C517 C 0.99623 0.55575 0.09899 0.0
C518 C 0.9903 0.56015 0.12272 0.0
H519 H 0.90936 0.55105 0.15916 0.0
H520 H 0.92979 0.55241 0.13439 0.0
H521 H 0.92406 0.52444 0.14912 0.0
H522 H 0.96182 0.5077 0.13513 0.0
H523 H 0.97165 0.50011 0.09346 0.0
H524 H 0.23103 0.05702 0.09366 0.0
H525 H 0.26947 0.04122 0.08012 0.0
H526 H 0.29691 0.11298 0.07337 0.0
H527 H 0.25875 0.12892 0.0874 0.0
H528 H 0.29518 0.0506 0.03683 0.0
H529 H 0.34521 0.07869 0.11775 0.0
H530 H 0.31296 0.07737 0.11669 0.0
H531 H 0.32859 0.102 0.10331 0.0
C532 C 0.24529 0.06943 0.0894 0.0
C533 C 0.24191 0.09421 0.09175 0.0
C534 C 0.26715 0.06038 0.08153 0.0
C535 C 0.28606 0.07594 0.07604 0.0
C536 C 0.2826 0.10069 0.07782 0.0
H537 H 0.41991 0.04658 0.00408 0.0
H538 H 0.37963 0.05973 0.01457 0.0
C539 C 0.26073 0.10976 0.08562 0.0
C540 C 0.30953 0.06625 0.06883 0.0
H541 H 0.368 0.06295 0.08596 0.0
C542 C 0.31112 0.05324 0.04754 0.0
C543 C 0.33017 0.06951 0.08305 0.0
C544 C 0.32924 0.08247 0.10659 0.0
C545 C 0.333 0.0437 0.03988 0.0
C546 C 0.35375 0.0475 0.05381 0.0
C547 C 0.35206 0.0602 0.07526 0.0
C548 C 0.37748 0.03839 0.04659 0.0
C549 C 0.33367 0.02936 0.01716 0.0
C550 C 0.38966 0.02217 0.06121 0.0
C551 C 0.4127 0.01467 0.05535 0.0
C552 C 0.4241 0.02341 0.0348 0.0
C553 C 0.41166 0.03942 0.01998 0.0
C554 C 0.38858 0.04688 0.02587 0.0
H555 H 0.31555 0.02322 0.01172 0.0
H556 H 0.34098 0.04067 0.00266 0.0
H557 H 0.34543 0.01353 0.01913 0.0
H558 H 0.3814 0.01549 0.07733 0.0
H559 H 0.42172 0.00236 0.06718 0.0
H560 H 0.2591 0.88371 0.5967 0.0
H561 H 0.22006 0.89863 0.58375 0.0
H562 H 0.24963 0.96946 0.57636 0.0
H563 H 0.28885 0.95465 0.58912 0.0
H564 H 0.19445 0.93913 0.60745 0.0
H565 H 0.21408 0.95356 0.51138 0.0
H566 H 0.23122 0.93321 0.52959 0.0
H567 H 0.23542 0.96484 0.53268 0.0
C568 C 0.25737 0.9024 0.59202 0.0
C569 C 0.27703 0.91801 0.59385 0.0
C570 C 0.23506 0.91089 0.58476 0.0
C571 C 0.23211 0.93506 0.57895 0.0
C572 C 0.25169 0.95069 0.58057 0.0
H573 H 0.10803 0.01444 0.52892 0.0
H574 H 0.14836 0.00213 0.5405 0.0
C575 C 0.27398 0.94225 0.588 0.0
C576 C 0.20827 0.94403 0.57208 0.0
H577 H 0.17588 0.96485 0.52498 0.0
C578 C 0.19032 0.94476 0.58943 0.0
C579 C 0.20315 0.95153 0.54863 0.0
C580 C 0.22187 0.95069 0.52936 0.0
C581 C 0.16727 0.95291 0.58397 0.0
C582 C 0.16191 0.95988 0.56034 0.0
C583 C 0.18001 0.95943 0.54305 0.0
C584 C 0.13752 0.96723 0.55313 0.0
C585 C 0.14901 0.95436 0.60366 0.0
C586 C 0.11814 0.95153 0.556 0.0
C587 C 0.09509 0.95853 0.54957 0.0
C588 C 0.09098 0.98131 0.53982 0.0
C589 C 0.11054 0.9968 0.53642 0.0
C590 C 0.1336 0.98981 0.54302 0.0
H591 H 0.15769 0.95542 0.62144 0.0
H592 H 0.13724 0.97014 0.6014 0.0
H593 H 0.1377 0.93805 0.60333 0.0
H594 H 0.12086 0.93378 0.56317 0.0
H595 H 0.0805 0.94604 0.55219 0.0
H596 H 0.72123 0.47681 0.93368 0.0
H597 H 0.76124 0.49122 0.94446 0.0
H598 H 0.78586 0.41851 0.95012 0.0
H599 H 0.74613 0.40396 0.93886 0.0
H600 H 0.78942 0.48107 0.98612 0.0
H601 H 0.83261 0.45061 0.90254 0.0
H602 H 0.80059 0.4533 0.90557 0.0
H603 H 0.81585 0.42799 0.91797 0.0
C604 C 0.7352 0.4639 0.93712 0.0
C605 C 0.73055 0.43925 0.9353 0.0
C606 C 0.75798 0.47216 0.9434 0.0
C607 C 0.77652 0.45592 0.94776 0.0
C608 C 0.77183 0.43132 0.9465 0.0
H609 H 0.91508 0.47713 0.01324 0.0
H610 H 0.87369 0.46638 0.004 0.0
C611 C 0.74907 0.42305 0.9403 0.0
C612 C 0.80086 0.46466 0.95343 0.0
H613 H 0.85834 0.46463 0.93316 0.0
C614 C 0.80451 0.47758 0.97454 0.0
C615 C 0.82038 0.46032 0.93808 0.0
C616 C 0.81723 0.44749 0.91466 0.0
C617 C 0.82736 0.48581 0.981 0.0
C618 C 0.84701 0.48075 0.96604 0.0
C619 C 0.84325 0.4683 0.94467 0.0
C620 C 0.87171 0.48808 0.97221 0.0
C621 C 0.83027 0.50004 0.00363 0.0
C622 C 0.8844 0.50358 0.9572 0.0
C623 C 0.90809 0.5097 0.96235 0.0
C624 C 0.91961 0.50026 0.98254 0.0
C625 C 0.90676 0.48479 0.99759 0.0
C626 C 0.88305 0.47873 0.99243 0.0
H627 H 0.81296 0.50746 0.00983 0.0
H628 H 0.83735 0.48822 0.01782 0.0
H629 H 0.84313 0.51498 0.00111 0.0
H630 H 0.87598 0.51088 0.94143 0.0
H631 H 0.91743 0.52162 0.95034 0.0
H632 H 0.78751 0.57895 0.47186 0.0
H633 H 0.74788 0.56488 0.48399 0.0
H634 H 0.73408 0.54031 0.41256 0.0
H635 H 0.7733 0.55487 0.40005 0.0
H636 H 0.7027 0.58013 0.46176 0.0
H637 H 0.71779 0.4821 0.45688 0.0
H638 H 0.74201 0.50339 0.45959 0.0
H639 H 0.72733 0.49915 0.43146 0.0
C640 C 0.77604 0.57063 0.45869 0.0
C641 C 0.78365 0.56804 0.43496 0.0
C642 C 0.75348 0.56247 0.4657 0.0
C643 C 0.73825 0.55134 0.44922 0.0
C644 C 0.7458 0.54848 0.42563 0.0
H645 H 0.5946 0.49447 0.44883 0.0
H646 H 0.63592 0.50582 0.44021 0.0
C647 C 0.76827 0.55676 0.41855 0.0
C648 C 0.71393 0.54381 0.45633 0.0
H649 H 0.67788 0.49494 0.46268 0.0
C650 C 0.69725 0.56151 0.46217 0.0
C651 C 0.70697 0.51953 0.45661 0.0
C652 C 0.72445 0.49986 0.45098 0.0
C653 C 0.67352 0.5556 0.46774 0.0
C654 C 0.6665 0.53127 0.46809 0.0
C655 C 0.6833 0.51356 0.46244 0.0
C656 C 0.64169 0.52387 0.4738 0.0
C657 C 0.65601 0.57553 0.4724 0.0
C658 C 0.63137 0.52986 0.49574 0.0
C659 C 0.60769 0.52359 0.50066 0.0
C660 C 0.59397 0.51088 0.48384 0.0
C661 C 0.60462 0.50428 0.46216 0.0
C662 C 0.62825 0.51074 0.4572 0.0
H663 H 0.66244 0.59283 0.46508 0.0
H664 H 0.63824 0.57145 0.46449 0.0
H665 H 0.65374 0.57774 0.49188 0.0
H666 H 0.64162 0.53946 0.50905 0.0
H667 H 0.60014 0.52873 0.51763 0.0
H668 H 0.08524 0.23741 0.05322 0.0
H669 H 0.07173 0.27563 0.03689 0.0
H670 H 0.06682 0.30455 0.10783 0.0
H671 H 0.08088 0.26664 0.12429 0.0
H672 H 0.02899 0.30184 0.04606 0.0
H673 H 0.1109 0.35188 0.07216 0.0
H674 H 0.10956 0.31965 0.07173 0.0
H675 H 0.09663 0.33598 0.09602 0.0
C676 C 0.08141 0.25195 0.06534 0.0
C677 C 0.08429 0.24905 0.09004 0.0
C678 C 0.07355 0.2737 0.05599 0.0
C679 C 0.0686 0.29296 0.07115 0.0
C680 C 0.07088 0.28997 0.09583 0.0
H681 H 0.99557 0.42593 0.04171 0.0
H682 H 0.00655 0.38574 0.05459 0.0
C683 C 0.07869 0.26823 0.1052 0.0
C684 C 0.06138 0.31629 0.06113 0.0
H685 H 0.07864 0.37468 0.05698 0.0
C686 C 0.03984 0.31778 0.04836 0.0
C687 C 0.07577 0.33693 0.06391 0.0
C688 C 0.09962 0.33611 0.07651 0.0
C689 C 0.03205 0.33955 0.03869 0.0
C690 C 0.04609 0.36033 0.04213 0.0
C691 C 0.06784 0.35872 0.05451 0.0
C692 C 0.03859 0.38403 0.03315 0.0
C693 C 0.00905 0.34008 0.02464 0.0
C694 C 0.05309 0.39647 0.01699 0.0
C695 C 0.04696 0.4195 0.00966 0.0
C696 C 0.02626 0.43061 0.01852 0.0
C697 C 0.01158 0.41791 0.03446 0.0
C698 C 0.01775 0.39487 0.04176 0.0
H699 H 0.00372 0.32196 0.01848 0.0
H700 H 0.99453 0.34708 0.0361 0.0
H701 H 0.01069 0.35199 0.00892 0.0
H702 H 0.06932 0.38843 0.01023 0.0
H703 H 0.05869 0.42873 0.99739 0.0
H704 H 0.57472 0.29227 0.97739 0.0
H705 H 0.56341 0.25239 0.9916 0.0
H706 H 0.56013 0.22708 0.91919 0.0
H707 H 0.57183 0.26666 0.90486 0.0
H708 H 0.52144 0.2236 0.97925 0.0
H709 H 0.60759 0.18142 0.95397 0.0
H710 H 0.60409 0.21337 0.95669 0.0
H711 H 0.5931 0.19809 0.93075 0.0
C712 C 0.57166 0.27818 0.96451 0.0
C713 C 0.57425 0.28258 0.94001 0.0
C714 C 0.56507 0.25549 0.97264 0.0
C715 C 0.5612 0.23681 0.95643 0.0
C716 C 0.56329 0.24125 0.93197 0.0
H717 H 0.49743 0.09687 0.97538 0.0
H718 H 0.50608 0.13833 0.96456 0.0
C719 C 0.56977 0.26391 0.92382 0.0
C720 C 0.55537 0.21253 0.96505 0.0
H721 H 0.57663 0.15549 0.96682 0.0
C722 C 0.53349 0.20869 0.97663 0.0
C723 C 0.5713 0.19326 0.9618 0.0
C724 C 0.59544 0.19666 0.95031 0.0
C725 C 0.5269 0.18584 0.98465 0.0
C726 C 0.54255 0.16643 0.98077 0.0
C727 C 0.56462 0.17041 0.96961 0.0
C728 C 0.53648 0.14178 0.9882 0.0
C729 C 0.5034 0.18267 0.99742 0.0
C730 C 0.55088 0.12995 0.00486 0.0
C731 C 0.54607 0.10625 0.01103 0.0
C732 C 0.52684 0.09385 0.00048 0.0
C733 C 0.51233 0.10587 0.98389 0.0
C734 C 0.51715 0.12962 0.97778 0.0
H735 H 0.49624 0.19997 0.00393 0.0
H736 H 0.49011 0.17479 0.98498 0.0
H737 H 0.50538 0.17034 0.01278 0.0
H738 H 0.56596 0.13902 0.013 0.0
H739 H 0.55764 0.09758 0.02384 0.0
H740 H 0.9345 0.74616 0.40311 0.0
H741 H 0.94615 0.78586 0.41732 0.0
H742 H 0.9497 0.75917 0.48919 0.0
H743 H 0.93828 0.71923 0.47508 0.0
H744 H 0.92013 0.81301 0.45442 0.0
H745 H 0.01538 0.79455 0.47673 0.0
H746 H 0.99847 0.77613 0.45629 0.0
H747 H 0.99326 0.77389 0.48769 0.0
C748 C 0.93807 0.74865 0.4219 0.0
C749 C 0.93559 0.72956 0.43797 0.0
C750 C 0.94458 0.77135 0.42999 0.0
C751 C 0.94896 0.77532 0.45423 0.0
C752 C 0.94662 0.75634 0.47036 0.0
H753 H 0.9938 0.90402 0.52982 0.0
H754 H 0.98295 0.86301 0.51912 0.0
C755 C 0.93994 0.73363 0.46231 0.0
C756 C 0.9552 0.79958 0.46263 0.0
H757 H 0.00104 0.83325 0.48491 0.0
C758 C 0.9378 0.81749 0.46112 0.0
C759 C 0.97819 0.80518 0.47152 0.0
C760 C 0.99754 0.78654 0.47309 0.0
C761 C 0.94278 0.84099 0.46829 0.0
C762 C 0.966 0.84681 0.47659 0.0
C763 C 0.98329 0.82876 0.47846 0.0
C764 C 0.9728 0.87162 0.48296 0.0
C765 C 0.923 0.85926 0.46725 0.0
C766 C 0.97112 0.88998 0.46604 0.0
C767 C 0.97715 0.91343 0.47211 0.0
C768 C 0.98531 0.91896 0.49517 0.0
C769 C 0.98754 0.90041 0.51192 0.0
C770 C 0.98135 0.87696 0.50585 0.0
H771 H 0.90508 0.85064 0.46751 0.0
H772 H 0.92421 0.87197 0.48238 0.0
H773 H 0.92452 0.86955 0.45045 0.0
H774 H 0.96517 0.88615 0.44808 0.0
H775 H 0.97545 0.92721 0.45869 0.0
H776 H 0.4398 0.74761 0.62566 0.0
H777 H 0.45367 0.70939 0.60979 0.0
H778 H 0.44673 0.73657 0.53833 0.0
H779 H 0.43345 0.77508 0.55406 0.0
H780 H 0.42791 0.67935 0.57901 0.0
H781 H 0.51434 0.70757 0.53923 0.0
H782 H 0.49853 0.72556 0.56072 0.0
H783 H 0.489 0.72503 0.53018 0.0
C784 C 0.44164 0.74561 0.60659 0.0
C785 C 0.43559 0.76441 0.59112 0.0
C786 C 0.44941 0.72372 0.59755 0.0
C787 C 0.45146 0.72027 0.57292 0.0
C788 C 0.44563 0.73901 0.55742 0.0
H789 H 0.45574 0.58369 0.49959 0.0
H790 H 0.44589 0.62391 0.51335 0.0
C791 C 0.43781 0.7609 0.56643 0.0
C792 C 0.45856 0.69665 0.56345 0.0
H793 H 0.50099 0.66821 0.53035 0.0
C794 C 0.44391 0.67688 0.56841 0.0
C795 C 0.47954 0.69351 0.54981 0.0
C796 C 0.49642 0.71398 0.5448 0.0
C797 C 0.44953 0.65404 0.55985 0.0
C798 C 0.47018 0.65101 0.5457 0.0
C799 C 0.48503 0.6707 0.541 0.0
C800 C 0.47692 0.62733 0.53615 0.0
C801 C 0.43355 0.63328 0.56634 0.0
C802 C 0.49804 0.6163 0.54384 0.0
C803 C 0.50379 0.59334 0.53598 0.0
C804 C 0.48856 0.58105 0.52015 0.0
C805 C 0.46781 0.59255 0.51187 0.0
C806 C 0.46207 0.6155 0.51979 0.0
H807 H 0.42172 0.63758 0.58161 0.0
H808 H 0.42204 0.6287 0.55088 0.0
H809 H 0.44431 0.61728 0.57092 0.0
H810 H 0.50978 0.62523 0.55639 0.0
H811 H 0.51997 0.5851 0.54264 0.0
H812 H 0.91014 0.97284 0.79546 0.0
H813 H 0.91807 0.98085 0.75346 0.0
H814 H 0.99384 0.97481 0.76635 0.0
H815 H 0.98613 0.96749 0.80862 0.0
H816 H 0.98097 0.01327 0.73604 0.0
H817 H 0.93966 0.92738 0.70786 0.0
H818 H 0.92071 0.94603 0.7257 0.0
H819 H 0.94747 0.93368 0.73841 0.0
C820 C 0.92852 0.97367 0.78949 0.0
C821 C 0.94752 0.96939 0.80537 0.0
C822 C 0.93299 0.97798 0.76543 0.0
C823 C 0.95649 0.97795 0.75678 0.0
C824 C 0.97555 0.97469 0.77269 0.0
H825 H 0.00213 0.96037 0.61059 0.0
H826 H 0.99478 0.95636 0.65327 0.0
C827 C 0.97111 0.97038 0.79678 0.0
C828 C 0.96117 0.98061 0.73101 0.0
H829 H 0.95121 0.95403 0.6772 0.0
C830 C 0.9745 0.00035 0.72314 0.0
C831 C 0.95298 0.96349 0.71434 0.0
C832 C 0.93959 0.94132 0.72194 0.0
C833 C 0.97956 0.00362 0.6989 0.0
C834 C 0.97076 0.98686 0.68216 0.0
C835 C 0.95773 0.96695 0.69009 0.0
C836 C 0.97512 0.98945 0.65632 0.0
C837 C 0.99461 0.02475 0.69146 0.0
C838 C 0.96616 0.0092 0.64386 0.0
C839 C 0.97032 0.01157 0.61947 0.0
C840 C 0.98341 0.99413 0.60705 0.0
C841 C 0.99202 0.97415 0.61957 0.0
C842 C 0.98785 0.97183 0.64397 0.0
H843 H 0.00485 0.03233 0.70667 0.0
H844 H 0.00737 0.01966 0.67723 0.0
H845 H 0.98278 0.03896 0.68438 0.0
H846 H 0.95586 0.02274 0.65298 0.0
H847 H 0.96331 0.02712 0.61039 0.0
H848 H 0.56888 0.01126 0.31083 0.0
H849 H 0.56046 0.00227 0.26894 0.0
H850 H 0.54794 0.07704 0.25544 0.0
H851 H 0.55638 0.08619 0.2971 0.0
H852 H 0.51342 0.04716 0.23539 0.0
H853 H 0.60545 0.01738 0.21321 0.0
H854 H 0.59178 0.00201 0.23776 0.0
H855 H 0.59856 0.03332 0.24026 0.0
C856 C 0.56442 0.02578 0.29889 0.0
C857 C 0.56331 0.04944 0.30728 0.0
C858 C 0.55965 0.02062 0.27499 0.0
C859 C 0.5539 0.03905 0.25907 0.0
C860 C 0.55236 0.06258 0.26747 0.0
H861 H 0.55758 0.04194 0.10556 0.0
H862 H 0.56418 0.04754 0.14822 0.0
C863 C 0.55706 0.06774 0.29131 0.0
C864 C 0.5495 0.034 0.23358 0.0
H865 H 0.57626 0.01378 0.1829 0.0
C866 C 0.52711 0.0398 0.2239 0.0
C867 C 0.56754 0.02469 0.21863 0.0
C868 C 0.59227 0.01916 0.22787 0.0
C869 C 0.52224 0.03652 0.19962 0.0
C870 C 0.54014 0.02683 0.18475 0.0
C871 C 0.56254 0.02105 0.19441 0.0
C872 C 0.53616 0.02311 0.15897 0.0
C873 C 0.4982 0.04404 0.18998 0.0
C874 C 0.51841 0.00729 0.15092 0.0
C875 C 0.51452 0.0041 0.12656 0.0
C876 C 0.52845 0.01655 0.10978 0.0
C877 C 0.54648 0.03212 0.11796 0.0
C878 C 0.55032 0.03532 0.14233 0.0
H879 H 0.48885 0.0564 0.2023 0.0
H880 H 0.50013 0.05295 0.17243 0.0
H881 H 0.48677 0.02798 0.18756 0.0
H882 H 0.50761 0.99735 0.16349 0.0
H883 H 0.50059 0.99184 0.12092 0.0
H884 H 0.44692 0.5186 0.20856 0.0
H885 H 0.45656 0.50543 0.24903 0.0
H886 H 0.46765 0.57869 0.27027 0.0
H887 H 0.45795 0.592 0.23002 0.0
H888 H 0.50316 0.54751 0.28671 0.0
H889 H 0.41176 0.51355 0.3064 0.0
H890 H 0.42547 0.5013 0.28022 0.0
H891 H 0.41811 0.53251 0.2812 0.0
C892 C 0.45134 0.5319 0.22188 0.0
C893 C 0.4516 0.55635 0.21609 0.0
C894 C 0.45683 0.52435 0.24497 0.0
C895 C 0.46249 0.54113 0.26268 0.0
C896 C 0.46331 0.56547 0.25683 0.0
H897 H 0.45914 0.53155 0.41521 0.0
H898 H 0.45262 0.53968 0.373 0.0
C899 C 0.45788 0.57302 0.23379 0.0
C900 C 0.46727 0.53352 0.28746 0.0
H901 H 0.44113 0.50805 0.33613 0.0
C902 C 0.48966 0.53877 0.29752 0.0
C903 C 0.44949 0.52239 0.30153 0.0
C904 C 0.42477 0.51725 0.29193 0.0
C905 C 0.49475 0.5333 0.32136 0.0
C906 C 0.47705 0.52195 0.33536 0.0
C907 C 0.45469 0.51659 0.32526 0.0
C908 C 0.48097 0.5165 0.36084 0.0
C909 C 0.51873 0.54036 0.33157 0.0
C910 C 0.49888 0.50052 0.36795 0.0
C911 C 0.50273 0.49586 0.3921 0.0
C912 C 0.4886 0.50701 0.40956 0.0
C913 C 0.4704 0.5227 0.40228 0.0
C914 C 0.46661 0.52735 0.37816 0.0
H915 H 0.52808 0.55365 0.32019 0.0
H916 H 0.51671 0.54798 0.3497 0.0
H917 H 0.53021 0.52428 0.33292 0.0
H918 H 0.50987 0.49162 0.35483 0.0
H919 H 0.5168 0.48357 0.39704 0.0
H920 H 0.10354 0.45305 0.73118 0.0
H921 H 0.09271 0.46543 0.77144 0.0
H922 H 0.02013 0.4775 0.74835 0.0
H923 H 0.0308 0.46471 0.70804 0.0
H924 H 0.07518 0.50719 0.78851 0.0
H925 H 0.01025 0.43367 0.80465 0.0
H926 H 0.03032 0.43374 0.77957 0.0
H927 H 0.00356 0.45148 0.77896 0.0
C928 C 0.08531 0.45851 0.73464 0.0
C929 C 0.06798 0.45783 0.7165 0.0
C930 C 0.07913 0.4655 0.75766 0.0
C931 C 0.05553 0.47199 0.763 0.0
C932 C 0.03831 0.47197 0.74477 0.0
H933 H 0.99234 0.51942 0.89685 0.0
H934 H 0.00019 0.51171 0.85469 0.0
C935 C 0.04443 0.46475 0.72176 0.0
C936 C 0.04912 0.47875 0.78768 0.0
H937 H 0.01354 0.46326 0.8346 0.0
C938 C 0.06169 0.49759 0.79857 0.0
C939 C 0.03154 0.46616 0.8008 0.0
C940 C 0.01828 0.445 0.79052 0.0
C941 C 0.05717 0.50414 0.82223 0.0
C942 C 0.03972 0.49148 0.8353 0.0
C943 C 0.02685 0.47294 0.82438 0.0
C944 C 0.03523 0.49662 0.86068 0.0
C945 C 0.07105 0.52454 0.83317 0.0
C946 C 0.0523 0.49049 0.87789 0.0
C947 C 0.04784 0.49467 0.90198 0.0
C948 C 0.02623 0.50518 0.90925 0.0
C949 C 0.0092 0.51139 0.89187 0.0
C950 C 0.01361 0.50699 0.86779 0.0
H951 H 0.08059 0.5353 0.81953 0.0
H952 H 0.05895 0.53645 0.84335 0.0
H953 H 0.0845 0.51729 0.84577 0.0
H954 H 0.06899 0.48223 0.87269 0.0
H955 H 0.06135 0.48968 0.91488 0.0
H956 H 0.79597 0.98683 0.93561 0.0
H957 H 0.75513 0.99703 0.94645 0.0
H958 H 0.76062 0.9528 0.00905 0.0
H959 H 0.80211 0.94394 0.99936 0.0
H960 H 0.71864 0.96832 0.9487 0.0
H961 H 0.72966 0.01015 0.0372 0.0
H962 H 0.75469 0.0044 0.01785 0.0
H963 H 0.74269 0.98095 0.03631 0.0
C964 C 0.78884 0.97985 0.95211 0.0
C965 C 0.8025 0.96456 0.96661 0.0
C966 C 0.76532 0.98552 0.95814 0.0
C967 C 0.75482 0.97592 0.9787 0.0
C968 C 0.76845 0.9609 0.99339 0.0
H969 H 0.60205 0.95545 0.99583 0.0
H970 H 0.64486 0.95109 0.98848 0.0
C971 C 0.79211 0.95551 0.98757 0.0
C972 C 0.72912 0.98015 0.98371 0.0
H973 H 0.68998 0.99734 0.02696 0.0
C974 C 0.71241 0.97489 0.96575 0.0
C975 C 0.72096 0.98902 0.00584 0.0
C976 C 0.73798 0.9967 0.02529 0.0
C977 C 0.68781 0.97783 0.96941 0.0
C978 C 0.67957 0.98541 0.99197 0.0
C979 C 0.69628 0.99117 0.00979 0.0
C980 C 0.65371 0.98773 0.99735 0.0
C981 C 0.67099 0.97321 0.94885 0.0
C982 C 0.64458 0.00946 0.0058 0.0
C983 C 0.62018 0.01186 0.01051 0.0
C984 C 0.60442 0.99259 0.00669 0.0
C985 C 0.61367 0.97072 0.99863 0.0
C986 C 0.63813 0.96824 0.99428 0.0
H987 H 0.68025 0.97508 0.93147 0.0
H988 H 0.66406 0.95465 0.95004 0.0
H989 H 0.65558 0.98567 0.94914 0.0
H990 H 0.65628 0.0247 0.00843 0.0
H991 H 0.61361 0.02894 0.0167 0.0
H992 H 0.71444 0.01609 0.45944 0.0
H993 H 0.7567 0.00866 0.46829 0.0
H994 H 0.76819 0.08418 0.47867 0.0
H995 H 0.72626 0.09183 0.46925 0.0
H996 H 0.8015 0.06239 0.44825 0.0
H997 H 0.79134 0.01253 0.53317 0.0
H998 H 0.77393 0.00127 0.50867 0.0
H999 H 0.76761 0.03035 0.52058 0.0
C1000 C 0.72597 0.0311 0.46365 0.0
C1001 C 0.71698 0.05454 0.46374 0.0
C1002 C 0.75003 0.0268 0.46891 0.0
C1003 C 0.76545 0.04586 0.47439 0.0
C1004 C 0.75651 0.06923 0.47464 0.0
H1005 H 0.90892 0.04377 0.53219 0.0
H1006 H 0.86636 0.0499 0.52443 0.0
C1007 C 0.7325 0.07354 0.46943 0.0
C1008 C 0.79118 0.04168 0.47886 0.0
H1009 H 0.83035 0.01462 0.51683 0.0
C1010 C 0.80784 0.05196 0.46324 0.0
C1011 C 0.79932 0.02824 0.49855 0.0
C1012 C 0.78218 0.0176 0.51636 0.0
C1013 C 0.8325 0.04902 0.4667 0.0
C1014 C 0.84063 0.03519 0.48612 0.0
C1015 C 0.82399 0.02507 0.50186 0.0
C1016 C 0.86641 0.0314 0.49064 0.0
C1017 C 0.84965 0.0611 0.44981 0.0
C1018 C 0.88044 0.01881 0.47425 0.0
C1019 C 0.90479 0.01529 0.47858 0.0
C1020 C 0.91552 0.02423 0.49945 0.0
C1021 C 0.9013 0.03672 0.51589 0.0
C1022 C 0.87695 0.04019 0.51154 0.0
H1023 H 0.8408 0.07541 0.43934 0.0
H1024 H 0.86502 0.06899 0.45963 0.0
H1025 H 0.85674 0.04766 0.43715 0.0
H1026 H 0.87252 0.01157 0.45818 0.0
H1027 H 0.91515 0.00548 0.46559 0.0
H1028 H 0.3014 0.57208 0.0248 0.0
H1029 H 0.25985 0.56446 0.01311 0.0
H1030 H 0.24042 0.55603 0.08685 0.0
H1031 H 0.2818 0.56376 0.0987 0.0
H1032 H 0.22138 0.52065 0.05705 0.0
H1033 H 0.20443 0.61181 0.02178 0.0
H1034 H 0.22985 0.59693 0.00915 0.0
H1035 H 0.23001 0.60487 0.04014 0.0
C1036 C 0.28825 0.56872 0.03852 0.0
C1037 C 0.29488 0.56859 0.06268 0.0
C1038 C 0.26454 0.56439 0.03182 0.0
C1039 C 0.24704 0.56004 0.04915 0.0
C1040 C 0.25368 0.5594 0.07322 0.0
H1041 H 0.09303 0.56664 0.03845 0.0
H1042 H 0.13539 0.57298 0.04737 0.0
C1043 C 0.27736 0.56368 0.07994 0.0
C1044 C 0.22175 0.55615 0.04232 0.0
H1045 H 0.17359 0.5832 0.01653 0.0
C1046 C 0.21091 0.53429 0.04815 0.0
C1047 C 0.20812 0.57413 0.031 0.0
C1048 C 0.21857 0.59835 0.02531 0.0
C1049 C 0.18678 0.52984 0.04284 0.0
C1050 C 0.17329 0.54763 0.03108 0.0
C1051 C 0.18408 0.56954 0.02537 0.0
C1052 C 0.14774 0.54403 0.02509 0.0
C1053 C 0.17579 0.50637 0.05035 0.0
C1054 C 0.14074 0.5259 0.00929 0.0
C1055 C 0.11655 0.52218 0.00418 0.0
C1056 C 0.09892 0.53663 0.01468 0.0
C1057 C 0.10609 0.55512 0.03011 0.0
C1058 C 0.13029 0.55881 0.03521 0.0
H1059 H 0.18677 0.49722 0.06408 0.0
H1060 H 0.1575 0.50905 0.0575 0.0
H1061 H 0.17446 0.49439 0.03466 0.0
H1062 H 0.15398 0.51461 0.00093 0.0
H1063 H 0.11171 0.50788 0.99209 0.0
H1064 H 0.22685 0.40546 0.5489 0.0
H1065 H 0.26797 0.4141 0.53696 0.0
H1066 H 0.25645 0.48913 0.54976 0.0
H1067 H 0.21507 0.48076 0.56135 0.0
H1068 H 0.28641 0.44616 0.50067 0.0
H1069 H 0.31455 0.47047 0.5926 0.0
H1070 H 0.28723 0.45432 0.5864 0.0
H1071 H 0.28881 0.48593 0.58122 0.0
C1072 C 0.23288 0.42386 0.54879 0.0
C1073 C 0.21767 0.44242 0.55619 0.0
C1074 C 0.25642 0.42873 0.54207 0.0
C1075 C 0.26526 0.45218 0.54278 0.0
C1076 C 0.25001 0.47085 0.54947 0.0
H1077 H 0.40176 0.50387 0.48849 0.0
H1078 H 0.3592 0.49698 0.49586 0.0
C1079 C 0.22642 0.46602 0.55614 0.0
C1080 C 0.29066 0.45692 0.53722 0.0
H1081 H 0.34343 0.47471 0.56229 0.0
C1082 C 0.2989 0.45248 0.51408 0.0
C1083 C 0.30687 0.46486 0.55489 0.0
C1084 C 0.29907 0.46902 0.58024 0.0
C1085 C 0.32303 0.45594 0.50808 0.0
C1086 C 0.33916 0.46419 0.52568 0.0
C1087 C 0.33092 0.46851 0.54884 0.0
C1088 C 0.36484 0.46795 0.52062 0.0
C1089 C 0.3312 0.45027 0.48315 0.0
C1090 C 0.38206 0.45409 0.53235 0.0
C1091 C 0.40638 0.45798 0.52823 0.0
C1092 C 0.41395 0.47597 0.51244 0.0
C1093 C 0.39658 0.48983 0.50071 0.0
C1094 C 0.37224 0.48586 0.5048 0.0
H1095 H 0.31779 0.43942 0.47326 0.0
H1096 H 0.33404 0.4672 0.47326 0.0
H1097 H 0.34843 0.44046 0.48348 0.0
H1098 H 0.37665 0.44025 0.54471 0.0
H1099 H 0.41923 0.447 0.53761 0.0
H1100 H 0.94843 0.79419 0.91261 0.0
H1101 H 0.95819 0.75247 0.92092 0.0
H1102 H 0.97175 0.77029 0.99443 0.0
H1103 H 0.9616 0.81206 0.98628 0.0
H1104 H 0.99897 0.73211 0.9372 0.0
H1105 H 0.9249 0.71552 0.00077 0.0
H1106 H 0.92627 0.7419 0.98238 0.0
H1107 H 0.94395 0.74001 0.00909 0.0
C1108 C 0.95363 0.78923 0.93052 0.0
C1109 C 0.95418 0.80634 0.94884 0.0
C1110 C 0.95912 0.76539 0.93525 0.0
C1111 C 0.96529 0.75819 0.95837 0.0
C1112 C 0.96642 0.77533 0.97659 0.0
H1113 H 0.00934 0.6214 0.01649 0.0
H1114 H 0.00197 0.66386 0.00937 0.0
C1115 C 0.96071 0.79918 0.97191 0.0
C1116 C 0.97072 0.73275 0.96321 0.0
H1117 H 0.9536 0.68466 0.99658 0.0
C1118 C 0.98901 0.72172 0.95014 0.0
C1119 C 0.95763 0.71922 0.98006 0.0
C1120 C 0.93695 0.72967 0.99372 0.0
C1121 C 0.99469 0.69757 0.9536 0.0
C1122 C 0.98169 0.68416 0.9705 0.0
C1123 C 0.96355 0.69514 0.9837 0.0
C1124 C 0.98647 0.65854 0.97449 0.0
C1125 C 0.01465 0.68654 0.93937 0.0
C1126 C 0.97999 0.6416 0.95725 0.0
C1127 C 0.98401 0.6173 0.96128 0.0
C1128 C 0.99468 0.60958 0.98262 0.0
C1129 C 0.00119 0.62671 -0.00018 0.0
C1130 C 0.99697 0.65097 0.99583 0.0
H1131 H 0.02555 0.70023 0.93 0.0
H1132 H 0.02654 0.6759 0.95111 0.0
H1133 H 0.00693 0.67425 0.92587 0.0
H1134 H 0.97165 0.64717 0.94075 0.0
H1135 H 0.97879 0.6046 0.94767 0.0
H1136 H 0.41967 0.73052 0.06061 0.0
H1137 H 0.43215 0.77134 0.05154 0.0
H1138 H 0.50573 0.75214 0.06397 0.0
H1139 H 0.49343 0.71105 0.07284 0.0
H1140 H 0.49134 0.79379 0.08774 0.0
H1141 H 0.46655 0.79679 0.99219 0.0
H1142 H 0.4428 0.78671 0.01119 0.0
H1143 H 0.46951 0.76912 0.00844 0.0
C1144 C 0.43856 0.73482 0.06097 0.0
C1145 C 0.45557 0.71747 0.06732 0.0
C1146 C 0.44565 0.75818 0.05581 0.0
C1147 C 0.46988 0.76465 0.05677 0.0
C1148 C 0.48694 0.74744 0.06305 0.0
H1149 H 0.52472 0.90186 0.00734 0.0
H1150 H 0.51801 0.85921 0.01398 0.0
C1151 C 0.47987 0.72402 0.0682 0.0
C1152 C 0.47718 0.78968 0.05231 0.0
H1153 H 0.47484 0.83421 0.01091 0.0
C1154 C 0.48794 0.8026 0.07089 0.0
C1155 C 0.47294 0.80101 0.03022 0.0
C1156 C 0.46253 0.78765 0.00927 0.0
C1157 C 0.49392 0.82681 0.0682 0.0
C1158 C 0.48866 0.83842 0.04647 0.0
C1159 C 0.47861 0.8253 0.02764 0.0
C1160 C 0.49317 0.86425 0.04299 0.0
C1161 C 0.50586 0.83974 0.0886 0.0
C1162 C 0.48125 0.8812 0.05699 0.0
C1163 C 0.48502 0.9056 0.05327 0.0
C1164 C 0.50071 0.91351 0.03536 0.0
C1165 C 0.51256 0.89643 0.02132 0.0
C1166 C 0.50875 0.87203 0.02506 0.0
H1167 H 0.51439 0.82709 0.10124 0.0
H1168 H 0.51966 0.85242 0.08204 0.0
H1169 H 0.49223 0.85009 0.09852 0.0
H1170 H 0.46878 0.87555 0.07061 0.0
H1171 H 0.47551 0.91823 0.06433 0.0
H1172 H 0.05371 0.2838 0.60984 0.0
H1173 H 0.04355 0.24209 0.60175 0.0
H1174 H 0.05113 0.25471 0.52645 0.0
H1175 H 0.06053 0.29674 0.53431 0.0
H1176 H 0.01098 0.22686 0.53822 0.0
H1177 H 0.09358 0.19276 0.5812 0.0
H1178 H 0.07579 0.21166 0.59992 0.0
H1179 H 0.08958 0.22385 0.57371 0.0
C1180 C 0.05282 0.27784 0.59152 0.0
C1181 C 0.05805 0.29359 0.57271 0.0
C1182 C 0.04729 0.25392 0.58696 0.0
C1183 C 0.04705 0.24525 0.56354 0.0
C1184 C 0.05144 0.26104 0.54467 0.0
H1185 H 0.05544 0.09719 0.51941 0.0
H1186 H 0.06218 0.13976 0.52649 0.0
C1187 C 0.05695 0.28499 0.5492 0.0
C1188 C 0.04266 0.2196 0.55876 0.0
H1189 H 0.06482 0.16385 0.56939 0.0
C1190 C 0.02273 0.21305 0.54499 0.0
C1191 C 0.05827 0.20171 0.56734 0.0
C1192 C 0.08064 0.20778 0.58118 0.0
C1193 C 0.01778 0.18899 0.53986 0.0
C1194 C 0.03298 0.17106 0.54907 0.0
C1195 C 0.05309 0.17765 0.56255 0.0
C1196 C 0.02858 0.14533 0.54466 0.0
C1197 C 0.99658 0.183 0.52428 0.0
C1198 C 0.00758 0.1343 0.55281 0.0
C1199 C 0.00363 0.10997 0.54877 0.0
C1200 C 0.02072 0.09616 0.53665 0.0
C1201 C 0.04189 0.10726 0.52878 0.0
C1202 C 0.04578 0.13159 0.53279 0.0
H1203 H 0.99058 0.1987 0.51378 0.0
H1204 H 0.00088 0.16823 0.51182 0.0
H1205 H 0.98146 0.17715 0.53565 0.0
H1206 H 0.99432 0.14448 0.56246 0.0
H1207 H 0.9872 0.102 0.55521 0.0
H1208 H 0.52163 0.19859 0.45551 0.0
H1209 H 0.51153 0.24066 0.46199 0.0
H1210 H 0.5864 0.2578 0.46954 0.0
H1211 H 0.59666 0.21594 0.46295 0.0
H1212 H 0.55744 0.27894 0.50418 0.0
H1213 H 0.52222 0.29418 0.41292 0.0
H1214 H 0.50862 0.2697 0.4286 0.0
H1215 H 0.53969 0.26824 0.42068 0.0
C1216 C 0.53594 0.21134 0.45848 0.0
C1217 C 0.55995 0.20393 0.45866 0.0
C1218 C 0.53014 0.23534 0.46214 0.0
C1219 C 0.54826 0.25235 0.46587 0.0
C1220 C 0.57217 0.24494 0.46664 0.0
H1221 H 0.54241 0.40647 0.45446 0.0
H1222 H 0.55033 0.3638 0.44938 0.0
C1223 C 0.57798 0.22098 0.46302 0.0
C1224 C 0.54243 0.27794 0.46889 0.0
H1225 H 0.51822 0.32602 0.44038 0.0
C1226 C 0.54884 0.28925 0.49026 0.0
C1227 C 0.53151 0.29137 0.45054 0.0
C1228 C 0.52527 0.28037 0.42679 0.0
C1229 C 0.54445 0.31365 0.49388 0.0
C1230 C 0.53303 0.32694 0.47575 0.0
C1231 C 0.5268 0.31569 0.4543 0.0
C1232 C 0.52775 0.35268 0.47859 0.0
C1233 C 0.55253 0.32509 0.51687 0.0
C1234 C 0.51212 0.36046 0.49644 0.0
C1235 C 0.50758 0.38479 0.49943 0.0
C1236 C 0.51849 0.40182 0.48452 0.0
C1237 C 0.53377 0.39388 0.46631 0.0
C1238 C 0.5383 0.36951 0.46336 0.0
H1239 H 0.56607 0.31404 0.52623 0.0
H1240 H 0.56023 0.3431 0.5136 0.0
H1241 H 0.53691 0.32714 0.52883 0.0
H1242 H 0.50343 0.3477 0.50807 0.0
H1243 H 0.49559 0.39023 0.51353 0.0
loop_
_geom_bond_atom_site_label_1
_geom_bond_atom_site_label_2
_geom_bond_distance
_geom_bond_site_symmetry_2
_ccdc_geom_bond_type
C0 C1 1.384 . S
C0 H13 0.947 . S
C0 C35 1.382 . S
C1 C0 1.384 . S
C1 C2 1.378 . S
C2 C1 1.378 . S
C2 C3 1.378 . S
C2 H14 0.952 . S
C3 C2 1.378 . S
C3 H15 0.950 . S
C3 C34 1.383 . S
H4 C23 0.947 . S
H5 C24 0.946 . S
H6 C26 0.953 . S
H7 C27 0.945 . S
H8 C29 0.952 . S
H9 C30 0.949 . S
H10 C32 0.950 . S
H11 C33 0.948 . S
H12 C35 0.951 . S
H13 C0 0.947 . S
H14 C2 0.952 . S
H15 C3 0.950 . S
N16 C19 1.382 . S
N16 C21 1.363 . S
N17 C19 1.371 . S
N17 C20 1.372 . S
N18 C20 1.361 . S
N18 C21 1.377 . S
C19 N16 1.382 . S
C19 N17 1.371 . S
C19 C22 1.480 . S
C20 N17 1.372 . S
C20 N18 1.361 . S
C20 C28 1.457 . S
C21 N16 1.363 . S
C21 N18 1.377 . S
C21 C34 1.479 . S
C22 C19 1.480 . S
C22 C23 1.383 . S
C22 C27 1.385 . S
C23 H4 0.947 . S
C23 C22 1.383 . S
C23 C24 1.388 . S
C24 H5 0.946 . S
C24 C23 1.388 . S
C24 C25 1.384 . S
C25 C24 1.384 . S
C25 C26 1.377 . S
C26 H6 0.953 . S
C26 C25 1.377 . S
C26 C27 1.369 . S
C27 H7 0.945 . S
C27 C22 1.385 . S
C27 C26 1.369 . S
C28 C20 1.457 . S
C28 C29 1.372 . S
C28 C33 1.364 . S
C29 H8 0.952 . S
C29 C28 1.372 . S
C29 C30 1.389 . S
C30 H9 0.949 . S
C30 C29 1.389 . S
C30 C31 1.387 . S
C31 C30 1.387 . S
C31 C32 1.372 . S
C32 H10 0.950 . S
C32 C31 1.372 . S
C32 C33 1.379 . S
C33 H11 0.948 . S
C33 C28 1.364 . S
C33 C32 1.379 . S
C34 C3 1.383 . S
C34 C21 1.479 . S
C34 C35 1.398 . S
C35 C0 1.382 . S
C35 H12 0.951 . S
C35 C34 1.398 . S
C36 C37 1.384 . S
C36 H49 0.947 . S
C36 C71 1.382 . S
C37 C36 1.384 . S
C37 C38 1.378 . S
C38 C37 1.378 . S
C38 C39 1.378 . S
C38 H50 0.952 . S
C39 C38 1.378 . S
C39 H51 0.950 . S
C39 C70 1.383 . S
H40 C59 0.947 . S
H41 C60 0.946 . S
H42 C62 0.953 . S
H43 C63 0.945 . S
H44 C65 0.952 . S
H45 C66 0.949 . S
H46 C68 0.950 . S
H47 C69 0.948 . S
H48 C71 0.951 . S
H49 C36 0.947 . S
H50 C38 0.952 . S
H51 C39 0.950 . S
N52 C55 1.382 . S
N52 C57 1.363 . S
N53 C55 1.371 . S
N53 C56 1.372 . S
N54 C56 1.361 . S
N54 C57 1.377 . S
C55 N52 1.382 . S
C55 N53 1.371 . S
C55 C58 1.480 . S
C56 N53 1.372 . S
C56 N54 1.361 . S
C56 C64 1.457 . S
C57 N52 1.363 . S
C57 N54 1.377 . S
C57 C70 1.479 . S
C58 C55 1.480 . S
C58 C59 1.383 . S
C58 C63 1.385 . S
C59 H40 0.947 . S
C59 C58 1.383 . S
C59 C60 1.388 . S
C60 H41 0.946 . S
C60 C59 1.388 . S
C60 C61 1.384 . S
C61 C60 1.384 . S
C61 C62 1.377 . S
C62 H42 0.953 . S
C62 C61 1.377 . S
C62 C63 1.369 . S
C63 H43 0.945 . S
C63 C58 1.385 . S
C63 C62 1.369 . S
C64 C56 1.457 . S
C64 C65 1.372 . S
C64 C69 1.364 . S
C65 H44 0.952 . S
C65 C64 1.372 . S
C65 C66 1.389 . S
C66 H45 0.949 . S
C66 C65 1.389 . S
C66 C67 1.387 . S
C67 C66 1.387 . S
C67 C68 1.372 . S
C68 H46 0.950 . S
C68 C67 1.372 . S
C68 C69 1.379 . S
C69 H47 0.948 . S
C69 C64 1.364 . S
C69 C68 1.379 . S
C70 C39 1.383 . S
C70 C57 1.479 . S
C70 C71 1.398 . S
C71 C36 1.382 . S
C71 H48 0.951 . S
C71 C70 1.398 . S
C72 C73 1.384 . S
C72 H85 0.947 . S
C72 C107 1.382 . S
C73 C72 1.384 . S
C73 C74 1.378 . S
C74 C73 1.378 . S
C74 C75 1.378 . S
C74 H86 0.952 . S
C75 C74 1.378 . S
C75 H87 0.950 . S
C75 C106 1.383 . S
H76 C95 0.947 . S
H77 C96 0.946 . S
H78 C98 0.953 . S
H79 C99 0.945 . S
H80 C101 0.952 . S
H81 C102 0.949 . S
H82 C104 0.950 . S
H83 C105 0.948 . S
H84 C107 0.951 . S
H85 C72 0.947 . S
H86 C74 0.952 . S
H87 C75 0.950 . S
N88 C91 1.382 . S
N88 C93 1.363 . S
N89 C91 1.371 . S
N89 C92 1.372 . S
N90 C92 1.361 . S
N90 C93 1.377 . S
C91 N88 1.382 . S
C91 N89 1.371 . S
C91 C94 1.480 . S
C92 N89 1.372 . S
C92 N90 1.361 . S
C92 C100 1.457 . S
C93 N88 1.363 . S
C93 N90 1.377 . S
C93 C106 1.479 . S
C94 C91 1.480 . S
C94 C95 1.383 . S
C94 C99 1.385 . S
C95 H76 0.947 . S
C95 C94 1.383 . S
C95 C96 1.388 . S
C96 H77 0.946 . S
C96 C95 1.388 . S
C96 C97 1.384 . S
C97 C96 1.384 . S
C97 C98 1.377 . S
C98 H78 0.953 . S
C98 C97 1.377 . S
C98 C99 1.369 . S
C99 H79 0.945 . S
C99 C94 1.385 . S
C99 C98 1.369 . S
C100 C92 1.457 . S
C100 C101 1.372 . S
C100 C105 1.364 . S
C101 H80 0.952 . S
C101 C100 1.372 . S
C101 C102 1.389 . S
C102 H81 0.949 . S
C102 C101 1.389 . S
C102 C103 1.387 . S
C103 C102 1.387 . S
C103 C104 1.372 . S
C104 H82 0.950 . S
C104 C103 1.372 . S
C104 C105 1.379 . S
C105 H83 0.948 . S
C105 C100 1.364 . S
C105 C104 1.379 . S
C106 C75 1.383 . S
C106 C93 1.479 . S
C106 C107 1.398 . S
C107 C72 1.382 . S
C107 H84 0.951 . S
C107 C106 1.398 . S
C108 C109 1.384 . S
C108 H121 0.947 . S
C108 C143 1.382 . S
C109 C108 1.384 . S
C109 C110 1.378 . S
C110 C109 1.378 . S
C110 C111 1.378 . S
C110 H122 0.952 . S
C111 C110 1.378 . S
C111 H123 0.950 . S
C111 C142 1.383 . S
H112 C131 0.947 . S
H113 C132 0.946 . S
H114 C134 0.953 . S
H115 C135 0.945 . S
H116 C137 0.952 . S
H117 C138 0.949 . S
H118 C140 0.950 . S
H119 C141 0.948 . S
H120 C143 0.951 . S
H121 C108 0.947 . S
H122 C110 0.952 . S
H123 C111 0.950 . S
N124 C127 1.382 . S
N124 C129 1.363 . S
N125 C127 1.371 . S
N125 C128 1.372 . S
N126 C128 1.361 . S
N126 C129 1.377 . S
C127 N124 1.382 . S
C127 N125 1.371 . S
C127 C130 1.480 . S
C128 N125 1.372 . S
C128 N126 1.361 . S
C128 C136 1.457 . S
C129 N124 1.363 . S
C129 N126 1.377 . S
C129 C142 1.479 . S
C130 C127 1.480 . S
C130 C131 1.383 . S
C130 C135 1.385 . S
C131 H112 0.947 . S
C131 C130 1.383 . S
C131 C132 1.388 . S
C132 H113 0.946 . S
C132 C131 1.388 . S
C132 C133 1.384 . S
C133 C132 1.384 . S
C133 C134 1.377 . S
C134 H114 0.953 . S
C134 C133 1.377 . S
C134 C135 1.369 . S
C135 H115 0.945 . S
C135 C130 1.385 . S
C135 C134 1.369 . S
C136 C128 1.457 . S
C136 C137 1.372 . S
C136 C141 1.364 . S
C137 H116 0.952 . S
C137 C136 1.372 . S
C137 C138 1.389 . S
C138 H117 0.949 . S
C138 C137 1.389 . S
C138 C139 1.387 . S
C139 C138 1.387 . S
C139 C140 1.372 . S
C140 H118 0.950 . S
C140 C139 1.372 . S
C140 C141 1.379 . S
C141 H119 0.948 . S
C141 C136 1.364 . S
C141 C140 1.379 . S
C142 C111 1.383 . S
C142 C129 1.479 . S
C142 C143 1.398 . S
C143 C108 1.382 . S
C143 H120 0.951 . S
C143 C142 1.398 . S
C144 C145 1.384 . S
C144 H157 0.947 . S
C144 C179 1.382 . S
C145 C144 1.384 . S
C145 C146 1.378 . S
C146 C145 1.378 . S
C146 C147 1.378 . S
C146 H158 0.952 . S
C147 C146 1.378 . S
C147 H159 0.950 . S
C147 C178 1.383 . S
H148 C167 0.947 . S
H149 C168 0.946 . S
H150 C170 0.953 . S
H151 C171 0.945 . S
H152 C173 0.952 . S
H153 C174 0.949 . S
H154 C176 0.950 . S
H155 C177 0.948 . S
H156 C179 0.951 . S
H157 C144 0.947 . S
H158 C146 0.952 . S
H159 C147 0.950 . S
N160 C163 1.382 . S
N160 C165 1.363 . S
N161 C163 1.371 . S
N161 C164 1.372 . S
N162 C164 1.361 . S
N162 C165 1.377 . S
C163 N160 1.382 . S
C163 N161 1.371 . S
C163 C166 1.480 . S
C164 N161 1.372 . S
C164 N162 1.361 . S
C164 C172 1.457 . S
C165 N160 1.363 . S
C165 N162 1.377 . S
C165 C178 1.479 . S
C166 C163 1.480 . S
C166 C167 1.383 . S
C166 C171 1.385 . S
C167 H148 0.947 . S
C167 C166 1.383 . S
C167 C168 1.388 . S
C168 H149 0.946 . S
C168 C167 1.388 . S
C168 C169 1.384 . S
C169 C168 1.384 . S
C169 C170 1.377 . S
C170 H150 0.953 . S
C170 C169 1.377 . S
C170 C171 1.369 . S
C171 H151 0.945 . S
C171 C166 1.385 . S
C171 C170 1.369 . S
C172 C164 1.457 . S
C172 C173 1.372 . S
C172 C177 1.364 . S
C173 H152 0.952 . S
C173 C172 1.372 . S
C173 C174 1.389 . S
C174 H153 0.949 . S
C174 C173 1.389 . S
C174 C175 1.387 . S
C175 C174 1.387 . S
C175 C176 1.372 . S
C176 H154 0.950 . S
C176 C175 1.372 . S
C176 C177 1.379 . S
C177 H155 0.948 . S
C177 C172 1.364 . S
C177 C176 1.379 . S
C178 C147 1.383 . S
C178 C165 1.479 . S
C178 C179 1.398 . S
C179 C144 1.382 . S
C179 H156 0.951 . S
C179 C178 1.398 . S
C180 C181 1.384 . S
C180 H193 0.947 . S
C180 C215 1.382 . S
C181 C180 1.384 . S
C181 C182 1.378 . S
C182 C181 1.378 . S
C182 C183 1.378 . S
C182 H194 0.952 . S
C183 C182 1.378 . S
C183 H195 0.950 . S
C183 C214 1.383 . S
H184 C203 0.947 . S
H185 C204 0.946 . S
H186 C206 0.953 . S
H187 C207 0.945 . S
H188 C209 0.952 . S
H189 C210 0.949 . S
H190 C212 0.950 . S
H191 C213 0.948 . S
H192 C215 0.951 . S
H193 C180 0.947 . S
H194 C182 0.952 . S
H195 C183 0.950 . S
N196 C199 1.382 . S
N196 C201 1.363 . S
N197 C199 1.371 . S
N197 C200 1.372 . S
N198 C200 1.361 . S
N198 C201 1.377 . S
C199 N196 1.382 . S
C199 N197 1.371 . S
C199 C202 1.480 . S
C200 N197 1.372 . S
C200 N198 1.361 . S
C200 C208 1.457 . S
C201 N196 1.363 . S
C201 N198 1.377 . S
C201 C214 1.479 . S
C202 C199 1.480 . S
C202 C203 1.383 . S
C202 C207 1.385 . S
C203 H184 0.947 . S
C203 C202 1.383 . S
C203 C204 1.388 . S
C204 H185 0.946 . S
C204 C203 1.388 . S
C204 C205 1.384 . S
C205 C204 1.384 . S
C205 C206 1.377 . S
C206 H186 0.953 . S
C206 C205 1.377 . S
C206 C207 1.369 . S
C207 H187 0.945 . S
C207 C202 1.385 . S
C207 C206 1.369 . S
C208 C200 1.457 . S
C208 C209 1.372 . S
C208 C213 1.364 . S
C209 H188 0.952 . S
C209 C208 1.372 . S
C209 C210 1.389 . S
C210 H189 0.949 . S
C210 C209 1.389 . S
C210 C211 1.387 . S
C211 C210 1.387 . S
C211 C212 1.372 . S
C212 H190 0.950 . S
C212 C211 1.372 . S
C212 C213 1.379 . S
C213 H191 0.948 . S
C213 C208 1.364 . S
C213 C212 1.379 . S
C214 C183 1.383 . S
C214 C201 1.479 . S
C214 C215 1.398 . S
C215 C180 1.382 . S
C215 H192 0.951 . S
C215 C214 1.398 . S
C216 C217 1.384 . S
C216 H229 0.947 . S
C216 C251 1.382 . S
C217 C216 1.384 . S
C217 C218 1.378 . S
C218 C217 1.378 . S
C218 C219 1.378 . S
C218 H230 0.952 . S
C219 C218 1.378 . S
C219 H231 0.950 . S
C219 C250 1.383 . S
H220 C239 0.947 . S
H221 C240 0.946 . S
H222 C242 0.953 . S
H223 C243 0.945 . S
H224 C245 0.952 . S
H225 C246 0.949 . S
H226 C248 0.950 . S
H227 C249 0.948 . S
H228 C251 0.951 . S
H229 C216 0.947 . S
H230 C218 0.952 . S
H231 C219 0.950 . S
N232 C235 1.382 . S
N232 C237 1.363 . S
N233 C235 1.371 . S
N233 C236 1.372 . S
N234 C236 1.361 . S
N234 C237 1.377 . S
C235 N232 1.382 . S
C235 N233 1.371 . S
C235 C238 1.480 . S
C236 N233 1.372 . S
C236 N234 1.361 . S
C236 C244 1.457 . S
C237 N232 1.363 . S
C237 N234 1.377 . S
C237 C250 1.479 . S
C238 C235 1.480 . S
C238 C239 1.383 . S
C238 C243 1.385 . S
C239 H220 0.947 . S
C239 C238 1.383 . S
C239 C240 1.388 . S
C240 H221 0.946 . S
C240 C239 1.388 . S
C240 C241 1.384 . S
C241 C240 1.384 . S
C241 C242 1.377 . S
C242 H222 0.953 . S
C242 C241 1.377 . S
C242 C243 1.369 . S
C243 H223 0.945 . S
C243 C238 1.385 . S
C243 C242 1.369 . S
C244 C236 1.457 . S
C244 C245 1.372 . S
C244 C249 1.364 . S
C245 H224 0.952 . S
C245 C244 1.372 . S
C245 C246 1.389 . S
C246 H225 0.949 . S
C246 C245 1.389 . S
C246 C247 1.387 . S
C247 C246 1.387 . S
C247 C248 1.372 . S
C248 H226 0.950 . S
C248 C247 1.372 . S
C248 C249 1.379 . S
C249 H227 0.948 . S
C249 C244 1.364 . S
C249 C248 1.379 . S
C250 C219 1.383 . S
C250 C237 1.479 . S
C250 C251 1.398 . S
C251 C216 1.382 . S
C251 H228 0.951 . S
C251 C250 1.398 . S
C252 C253 1.384 . S
C252 H265 0.947 . S
C252 C287 1.382 . S
C253 C252 1.384 . S
C253 C254 1.378 . S
C254 C253 1.378 . S
C254 C255 1.378 . S
C254 H266 0.952 . S
C255 C254 1.378 . S
C255 H267 0.950 . S
C255 C286 1.383 . S
H256 C275 0.947 . S
H257 C276 0.946 . S
H258 C278 0.953 . S
H259 C279 0.945 . S
H260 C281 0.952 . S
H261 C282 0.949 . S
H262 C284 0.950 . S
H263 C285 0.948 . S
H264 C287 0.951 . S
H265 C252 0.947 . S
H266 C254 0.952 . S
H267 C255 0.950 . S
N268 C271 1.382 . S
N268 C273 1.363 . S
N269 C271 1.371 . S
N269 C272 1.372 . S
N270 C272 1.361 . S
N270 C273 1.377 . S
C271 N268 1.382 . S
C271 N269 1.371 . S
C271 C274 1.480 . S
C272 N269 1.372 . S
C272 N270 1.361 . S
C272 C280 1.457 . S
C273 N268 1.363 . S
C273 N270 1.377 . S
C273 C286 1.479 . S
C274 C271 1.480 . S
C274 C275 1.383 . S
C274 C279 1.385 . S
C275 H256 0.947 . S
C275 C274 1.383 . S
C275 C276 1.388 . S
C276 H257 0.946 . S
C276 C275 1.388 . S
C276 C277 1.384 . S
C277 C276 1.384 . S
C277 C278 1.377 . S
C278 H258 0.953 . S
C278 C277 1.377 . S
C278 C279 1.369 . S
C279 H259 0.945 . S
C279 C274 1.385 . S
C279 C278 1.369 . S
C280 C272 1.457 . S
C280 C281 1.372 . S
C280 C285 1.364 . S
C281 H260 0.952 . S
C281 C280 1.372 . S
C281 C282 1.389 . S
C282 H261 0.949 . S
C282 C281 1.389 . S
C282 C283 1.387 . S
C283 C282 1.387 . S
C283 C284 1.372 . S
C284 H262 0.950 . S
C284 C283 1.372 . S
C284 C285 1.379 . S
C285 H263 0.948 . S
C285 C280 1.364 . S
C285 C284 1.379 . S
C286 C255 1.383 . S
C286 C273 1.479 . S
C286 C287 1.398 . S
C287 C252 1.382 . S
C287 H264 0.951 . S
C287 C286 1.398 . S
O288 Zn289 1.964 . S
O288 C304 1.200 1_655 S
Zn289 O288 1.964 . S
Zn289 O290 1.949 1_655 S
Zn289 O296 1.919 . S
Zn289 O301 1.924 . S
O290 Zn289 1.949 1_455 S
O290 Zn291 1.923 1_445 S
O290 Zn292 1.950 . S
O290 Zn293 1.945 1_545 S
Zn291 O290 1.923 1_665 S
Zn291 O294 1.933 . S
Zn291 O297 1.941 1_565 S
Zn291 O298 1.965 1_665 S
Zn292 O290 1.950 . S
Zn292 O299 1.938 . S
Zn292 O300 1.911 . S
Zn292 O310 1.953 . S
Zn293 O290 1.945 1_565 S
Zn293 O295 1.932 1_455 S
Zn293 O302 1.977 . S
Zn293 O303 1.910 1_455 S
O294 Zn291 1.933 . S
O294 C305 1.226 . S
O295 Zn293 1.932 1_655 S
O295 C305 1.307 . S
O296 Zn289 1.919 . S
O296 C307 1.253 . S
O297 Zn291 1.941 1_545 S
O297 C307 1.283 . S
O298 Zn291 1.965 1_445 S
O298 C306 1.303 . S
O299 Zn292 1.938 . S
O299 C306 1.247 . S
O300 Zn292 1.911 . S
O300 C308 1.297 1_545 S
O301 Zn289 1.924 . S
O301 C309 1.310 1_545 S
O302 Zn293 1.977 . S
O302 C308 1.272 . S
O303 Zn293 1.910 1_655 S
O303 C309 1.232 . S
C304 O288 1.200 1_455 S
C304 O310 1.298 . S
C305 O294 1.226 . S
C305 O295 1.307 . S
C306 O298 1.303 . S
C306 O299 1.247 . S
C307 O296 1.253 . S
C307 O297 1.283 . S
C308 O300 1.297 1_565 S
C308 O302 1.272 . S
C309 O301 1.310 1_565 S
C309 O303 1.232 . S
O310 Zn292 1.953 . S
O310 C304 1.298 . S
O311 Zn312 1.953 . S
O311 C327 1.225 . S
Zn312 O311 1.953 . S
Zn312 O313 1.949 1_556 S
Zn312 O319 1.919 . S
Zn312 O324 1.924 1_556 S
O313 Zn312 1.949 1_554 S
O313 Zn314 1.923 1_545 S
O313 Zn315 1.950 . S
O313 Zn316 1.935 1_545 S
Zn314 O313 1.923 1_565 S
Zn314 O317 1.933 . S
Zn314 O320 1.941 1_554 S
Zn314 O321 1.965 . S
Zn315 O313 1.950 . S
Zn315 O322 1.938 . S
Zn315 O323 1.906 . S
Zn315 O333 1.953 . S
Zn316 O313 1.935 1_565 S
Zn316 O318 1.976 . S
Zn316 O325 1.965 1_565 S
Zn316 O326 1.886 1_565 S
O317 Zn314 1.933 . S
O317 C328 1.226 . S
O318 Zn316 1.976 . S
O318 C328 1.307 . S
O319 Zn312 1.919 . S
O319 C330 1.253 1_545 S
O320 Zn314 1.941 1_556 S
O320 C330 1.283 . S
O321 Zn314 1.965 . S
O321 C329 1.303 . S
O322 Zn315 1.938 . S
O322 C329 1.247 1_545 S
O323 Zn315 1.906 . S
O323 C331 1.304 . S
O324 Zn312 1.924 1_554 S
O324 C332 1.311 . S
O325 Zn316 1.965 1_545 S
O325 C331 1.272 . S
O326 Zn316 1.886 1_545 S
O326 C332 1.231 . S
C327 O311 1.225 . S
C327 O333 1.298 1_556 S
C328 O317 1.226 . S
C328 O318 1.307 . S
C329 O321 1.303 . S
C329 O322 1.247 1_565 S
C330 O319 1.253 1_565 S
C330 O320 1.283 . S
C331 O323 1.304 . S
C331 O325 1.272 . S
C332 O324 1.311 . S
C332 O326 1.231 . S
O333 Zn315 1.953 . S
O333 C327 1.298 1_554 S
O334 Zn335 1.953 . S
O334 C350 1.225 . S
Zn335 O334 1.953 . S
Zn335 O336 1.949 . S
Zn335 O342 1.919 . S
Zn335 O347 1.924 . S
O336 Zn335 1.949 . S
O336 Zn337 1.923 . S
O336 Zn338 1.950 . S
O336 Zn339 1.945 . S
Zn337 O336 1.923 . S
Zn337 O340 1.933 . S
Zn337 O343 1.941 . S
Zn337 O344 1.965 . S
Zn338 O336 1.950 . S
Zn338 O345 1.938 . S
Zn338 O346 1.906 . S
Zn338 O356 1.953 . S
Zn339 O336 1.945 . S
Zn339 O341 1.932 . S
Zn339 O348 1.977 . S
Zn339 O349 1.910 . S
O340 Zn337 1.933 . S
O340 C351 1.226 . S
O341 Zn339 1.932 . S
O341 C351 1.307 . S
O342 Zn335 1.919 . S
O342 C353 1.253 . S
O343 Zn337 1.941 . S
O343 C353 1.283 . S
O344 Zn337 1.965 . S
O344 C352 1.303 . S
O345 Zn338 1.938 . S
O345 C352 1.247 . S
O346 Zn338 1.906 . S
O346 C354 1.304 . S
O347 Zn335 1.924 . S
O347 C355 1.311 . S
O348 Zn339 1.977 . S
O348 C354 1.272 . S
O349 Zn339 1.910 . S
O349 C355 1.231 . S
C350 O334 1.225 . S
C350 O356 1.298 . S
C351 O340 1.226 . S
C351 O341 1.307 . S
C352 O344 1.303 . S
C352 O345 1.247 . S
C353 O342 1.253 . S
C353 O343 1.283 . S
C354 O346 1.304 . S
C354 O348 1.272 . S
C355 O347 1.311 . S
C355 O349 1.231 . S
O356 Zn338 1.953 . S
O356 C350 1.298 . S
O357 Zn358 1.953 . S
O357 C373 1.225 . S
Zn358 O357 1.953 . S
Zn358 O359 1.949 1_655 S
Zn358 O365 1.919 . S
Zn358 O370 1.938 . S
O359 Zn358 1.949 1_455 S
O359 Zn360 1.923 1_454 S
O359 Zn361 1.950 . S
O359 Zn362 1.945 1_554 S
Zn360 O359 1.923 1_656 S
Zn360 O363 1.933 1_655 S
Zn360 O366 1.941 . S
Zn360 O367 1.965 . S
Zn361 O359 1.950 . S
Zn361 O368 1.938 . S
Zn361 O369 1.906 . S
Zn361 O379 1.953 . S
Zn362 O359 1.945 1_556 S
Zn362 O364 1.932 . S
Zn362 O371 1.977 1_556 S
Zn362 O372 1.910 1_556 S
O363 Zn360 1.933 1_455 S
O363 C374 1.226 . S
O364 Zn362 1.932 . S
O364 C374 1.307 . S
O365 Zn358 1.919 . S
O365 C376 1.253 1_554 S
O366 Zn360 1.941 . S
O366 C376 1.283 . S
O367 Zn360 1.965 . S
O367 C375 1.303 . S
O368 Zn361 1.938 . S
O368 C375 1.247 1_454 S
O369 Zn361 1.906 . S
O369 C377 1.304 . S
O370 Zn358 1.938 . S
O370 C378 1.280 1_655 S
O371 Zn362 1.977 1_554 S
O371 C377 1.272 . S
O372 Zn362 1.910 1_554 S
O372 C378 1.231 . S
C373 O357 1.225 . S
C373 O379 1.298 1_655 S
C374 O363 1.226 . S
C374 O364 1.307 . S
C375 O367 1.303 . S
C375 O368 1.247 1_656 S
C376 O365 1.253 1_556 S
C376 O366 1.283 . S
C377 O369 1.304 . S
C377 O371 1.272 . S
C378 O370 1.280 1_455 S
C378 O372 1.231 . S
O379 Zn361 1.953 . S
O379 C373 1.298 1_455 S
H380 C388 0.929 . S
H381 C390 0.930 . S
H382 C392 0.930 . S
H383 C395 0.929 . S
H384 C398 0.930 . S
H385 C400 0.960 . S
H386 C400 0.960 . S
H387 C400 0.960 . S
C388 H380 0.929 . S
C388 C389 1.377 . S
C388 C390 1.384 . S
C389 C388 1.377 . S
C389 C395 1.390 . S
C390 H381 0.930 . S
C390 C388 1.384 . S
C390 C391 1.372 . S
C391 C390 1.372 . S
C391 C392 1.400 . S
C391 C396 1.490 . S
C392 H382 0.930 . S
C392 C391 1.400 . S
C392 C395 1.386 . S
H393 C409 0.930 . S
H394 C410 0.931 . S
C395 H383 0.929 . S
C395 C389 1.390 . S
C395 C392 1.386 . S
C396 C391 1.490 . S
C396 C398 1.395 . S
C396 C399 1.403 . S
H397 C403 0.930 . S
C398 H384 0.930 . S
C398 C396 1.395 . S
C398 C401 1.403 . S
C399 C396 1.403 . S
C399 C400 1.524 . S
C399 C403 1.400 . S
C400 H385 0.960 . S
C400 H386 0.960 . S
C400 H387 0.960 . S
C400 C399 1.524 . S
C401 C398 1.403 . S
C401 C402 1.392 . S
C401 C405 1.495 . S
C402 C401 1.392 . S
C402 C403 1.385 . S
C402 C404 1.478 . S
C403 H397 0.930 . S
C403 C399 1.400 . S
C403 C402 1.385 . S
C404 C402 1.478 . S
C404 C406 1.381 . S
C404 C410 1.383 . S
C405 C401 1.495 . S
C405 H411 0.959 . S
C405 H412 0.961 . S
C405 H413 0.960 . S
C406 C404 1.381 . S
C406 C407 1.394 . S
C406 H414 0.930 . S
C407 C406 1.394 . S
C407 C408 1.383 . S
C407 H415 0.929 . S
C408 C407 1.383 . S
C408 C409 1.377 . S
C409 H393 0.930 . S
C409 C408 1.377 . S
C409 C410 1.379 . S
C410 H394 0.931 . S
C410 C404 1.383 . S
C410 C409 1.379 . S
H411 C405 0.959 . S
H412 C405 0.961 . S
H413 C405 0.960 . S
H414 C406 0.930 . S
H415 C407 0.929 . S
H416 C424 0.929 . S
H417 C426 0.930 . S
H418 C428 0.930 . S
H419 C431 0.929 . S
H420 C434 0.930 . S
H421 C436 0.960 . S
H422 C436 0.960 . S
H423 C436 0.960 . S
C424 H416 0.929 . S
C424 C425 1.377 . S
C424 C426 1.384 . S
C425 C424 1.377 . S
C425 C431 1.390 . S
C426 H417 0.930 . S
C426 C424 1.384 . S
C426 C427 1.372 . S
C427 C426 1.372 . S
C427 C428 1.400 . S
C427 C432 1.490 . S
C428 H418 0.930 . S
C428 C427 1.400 . S
C428 C431 1.386 . S
H429 C445 0.930 . S
H430 C446 0.931 . S
C431 H419 0.929 . S
C431 C425 1.390 . S
C431 C428 1.386 . S
C432 C427 1.490 . S
C432 C434 1.395 . S
C432 C435 1.403 . S
H433 C439 0.930 . S
C434 H420 0.930 . S
C434 C432 1.395 . S
C434 C437 1.403 . S
C435 C432 1.403 . S
C435 C436 1.524 . S
C435 C439 1.400 . S
C436 H421 0.960 . S
C436 H422 0.960 . S
C436 H423 0.960 . S
C436 C435 1.524 . S
C437 C434 1.403 . S
C437 C438 1.392 . S
C437 C441 1.495 . S
C438 C437 1.392 . S
C438 C439 1.385 . S
C438 C440 1.478 . S
C439 H433 0.930 . S
C439 C435 1.400 . S
C439 C438 1.385 . S
C440 C438 1.478 . S
C440 C442 1.381 . S
C440 C446 1.383 . S
C441 C437 1.495 . S
C441 H447 0.959 . S
C441 H448 0.977 . S
C441 H449 0.960 . S
C442 C440 1.381 . S
C442 C443 1.394 . S
C442 H450 0.930 . S
C443 C442 1.394 . S
C443 C444 1.383 . S
C443 H451 0.929 . S
C444 C443 1.383 . S
C444 C445 1.377 . S
C445 H429 0.930 . S
C445 C444 1.377 . S
C445 C446 1.379 . S
C446 H430 0.931 . S
C446 C440 1.383 . S
C446 C445 1.379 . S
H447 C441 0.959 . S
H448 C441 0.977 . S
H449 C441 0.960 . S
H450 C442 0.930 . S
H451 C443 0.929 . S
H452 C460 0.929 . S
H453 C462 0.930 . S
H454 C464 0.930 . S
H455 C467 0.929 . S
H456 C470 0.930 . S
H457 C472 0.960 . S
H458 C472 0.960 . S
H459 C472 0.960 . S
C460 H452 0.929 . S
C460 C461 1.377 . S
C460 C462 1.384 . S
C461 C460 1.377 . S
C461 C467 1.390 . S
C462 H453 0.930 . S
C462 C460 1.384 . S
C462 C463 1.372 . S
C463 C462 1.372 . S
C463 C464 1.400 . S
C463 C468 1.490 . S
C464 H454 0.930 . S
C464 C463 1.400 . S
C464 C467 1.386 . S
H465 C481 0.930 . S
H466 C482 0.931 . S
C467 H455 0.929 . S
C467 C461 1.390 . S
C467 C464 1.386 . S
C468 C463 1.490 . S
C468 C470 1.395 . S
C468 C471 1.403 . S
H469 C475 0.930 . S
C470 H456 0.930 . S
C470 C468 1.395 . S
C470 C473 1.403 . S
C471 C468 1.403 . S
C471 C472 1.524 . S
C471 C475 1.400 . S
C472 H457 0.960 . S
C472 H458 0.960 . S
C472 H459 0.960 . S
C472 C471 1.524 . S
C473 C470 1.403 . S
C473 C474 1.392 . S
C473 C477 1.495 . S
C474 C473 1.392 . S
C474 C475 1.385 . S
C474 C476 1.478 . S
C475 H469 0.930 . S
C475 C471 1.400 . S
C475 C474 1.385 . S
C476 C474 1.478 . S
C476 C478 1.381 . S
C476 C482 1.383 . S
C477 C473 1.495 . S
C477 H483 0.959 . S
C477 H484 0.961 . S
C477 H485 0.960 . S
C478 C476 1.381 . S
C478 C479 1.394 . S
C478 H486 0.930 . S
C479 C478 1.394 . S
C479 C480 1.383 . S
C479 H487 0.929 . S
C480 C479 1.383 . S
C480 C481 1.377 . S
C481 H465 0.930 . S
C481 C480 1.377 . S
C481 C482 1.379 . S
C482 H466 0.931 . S
C482 C476 1.383 . S
C482 C481 1.379 . S
H483 C477 0.959 . S
H484 C477 0.961 . S
H485 C477 0.960 . S
H486 C478 0.930 . S
H487 C479 0.929 . S
H488 C496 0.929 . S
H489 C498 0.930 . S
H490 C500 0.930 . S
H491 C503 0.929 . S
H492 C506 0.930 . S
H493 C508 0.960 1_455 S
H494 C508 0.960 . S
H495 C508 0.960 . S
C496 H488 0.929 . S
C496 C497 1.377 . S
C496 C498 1.384 . S
C497 C496 1.377 . S
C497 C503 1.390 . S
C498 H489 0.930 . S
C498 C496 1.384 . S
C498 C499 1.372 . S
C499 C498 1.372 . S
C499 C500 1.400 . S
C499 C504 1.490 . S
C500 H490 0.930 . S
C500 C499 1.400 . S
C500 C503 1.386 . S
H501 C517 0.930 . S
H502 C518 0.931 . S
C503 H491 0.929 . S
C503 C497 1.390 . S
C503 C500 1.386 . S
C504 C499 1.490 . S
C504 C506 1.395 . S
C504 C507 1.403 . S
H505 C511 0.930 . S
C506 H492 0.930 . S
C506 C504 1.395 . S
C506 C509 1.403 . S
C507 C504 1.403 . S
C507 C508 1.524 . S
C507 C511 1.400 . S
C508 H493 0.960 1_655 S
C508 H494 0.960 . S
C508 H495 0.960 . S
C508 C507 1.524 . S
C509 C506 1.403 . S
C509 C510 1.392 . S
C509 C513 1.495 . S
C510 C509 1.392 . S
C510 C511 1.385 . S
C510 C512 1.478 . S
C511 H505 0.930 . S
C511 C507 1.400 . S
C511 C510 1.385 . S
C512 C510 1.478 . S
C512 C514 1.381 . S
C512 C518 1.383 . S
C513 C509 1.495 . S
C513 H519 0.959 . S
C513 H520 0.961 . S
C513 H521 0.960 . S
C514 C512 1.381 . S
C514 C515 1.394 . S
C514 H522 0.930 . S
C515 C514 1.394 . S
C515 C516 1.383 . S
C515 H523 0.929 . S
C516 C515 1.383 . S
C516 C517 1.377 . S
C517 H501 0.930 . S
C517 C516 1.377 . S
C517 C518 1.379 . S
C518 H502 0.931 . S
C518 C512 1.383 . S
C518 C517 1.379 . S
H519 C513 0.959 . S
H520 C513 0.961 . S
H521 C513 0.960 . S
H522 C514 0.930 . S
H523 C515 0.929 . S
H524 C532 0.929 . S
H525 C534 0.930 . S
H526 C536 0.930 . S
H527 C539 0.929 . S
H528 C542 0.930 . S
H529 C544 0.960 . S
H530 C544 0.960 . S
H531 C544 0.960 . S
C532 H524 0.929 . S
C532 C533 1.377 . S
C532 C534 1.384 . S
C533 C532 1.377 . S
C533 C539 1.390 . S
C534 H525 0.930 . S
C534 C532 1.384 . S
C534 C535 1.372 . S
C535 C534 1.372 . S
C535 C536 1.400 . S
C535 C540 1.490 . S
C536 H526 0.930 . S
C536 C535 1.400 . S
C536 C539 1.386 . S
H537 C553 0.930 . S
H538 C554 0.931 . S
C539 H527 0.929 . S
C539 C533 1.390 . S
C539 C536 1.386 . S
C540 C535 1.490 . S
C540 C542 1.395 . S
C540 C543 1.403 . S
H541 C547 0.930 . S
C542 H528 0.930 . S
C542 C540 1.395 . S
C542 C545 1.403 . S
C543 C540 1.403 . S
C543 C544 1.524 . S
C543 C547 1.400 . S
C544 H529 0.960 . S
C544 H530 0.960 . S
C544 H531 0.960 . S
C544 C543 1.524 . S
C545 C542 1.403 . S
C545 C546 1.392 . S
C545 C549 1.495 . S
C546 C545 1.392 . S
C546 C547 1.385 . S
C546 C548 1.478 . S
C547 H541 0.930 . S
C547 C543 1.400 . S
C547 C546 1.385 . S
C548 C546 1.478 . S
C548 C550 1.381 . S
C548 C554 1.383 . S
C549 C545 1.495 . S
C549 H555 0.959 . S
C549 H556 0.961 . S
C549 H557 0.960 . S
C550 C548 1.381 . S
C550 C551 1.394 . S
C550 H558 0.930 . S
C551 C550 1.394 . S
C551 C552 1.383 . S
C551 H559 0.929 . S
C552 C551 1.383 . S
C552 C553 1.377 . S
C553 H537 0.930 . S
C553 C552 1.377 . S
C553 C554 1.379 . S
C554 H538 0.931 . S
C554 C548 1.383 . S
C554 C553 1.379 . S
H555 C549 0.959 . S
H556 C549 0.961 . S
H557 C549 0.960 . S
H558 C550 0.930 . S
H559 C551 0.929 . S
H560 C568 0.929 . S
H561 C570 0.930 . S
H562 C572 0.930 . S
H563 C575 0.929 . S
H564 C578 0.930 . S
H565 C580 0.960 . S
H566 C580 0.960 . S
H567 C580 0.960 . S
C568 H560 0.929 . S
C568 C569 1.377 . S
C568 C570 1.384 . S
C569 C568 1.377 . S
C569 C575 1.390 . S
C570 H561 0.930 . S
C570 C568 1.384 . S
C570 C571 1.372 . S
C571 C570 1.372 . S
C571 C572 1.400 . S
C571 C576 1.490 . S
C572 H562 0.930 . S
C572 C571 1.400 . S
C572 C575 1.386 . S
H573 C589 0.930 . S
H574 C590 0.931 . S
C575 H563 0.929 . S
C575 C569 1.390 . S
C575 C572 1.386 . S
C576 C571 1.490 . S
C576 C578 1.395 . S
C576 C579 1.403 . S
H577 C583 0.930 . S
C578 H564 0.930 . S
C578 C576 1.395 . S
C578 C581 1.403 . S
C579 C576 1.403 . S
C579 C580 1.524 . S
C579 C583 1.400 . S
C580 H565 0.960 . S
C580 H566 0.960 . S
C580 H567 0.960 . S
C580 C579 1.524 . S
C581 C578 1.403 . S
C581 C582 1.392 . S
C581 C585 1.495 . S
C582 C581 1.392 . S
C582 C583 1.385 . S
C582 C584 1.478 . S
C583 H577 0.930 . S
C583 C579 1.400 . S
C583 C582 1.385 . S
C584 C582 1.478 . S
C584 C586 1.381 . S
C584 C590 1.383 . S
C585 C581 1.495 . S
C585 H591 0.959 . S
C585 H592 0.961 . S
C585 H593 0.960 . S
C586 C584 1.381 . S
C586 C587 1.394 . S
C586 H594 0.930 . S
C587 C586 1.394 . S
C587 C588 1.383 . S
C587 H595 0.929 . S
C588 C587 1.383 . S
C588 C589 1.377 . S
C589 H573 0.930 . S
C589 C588 1.377 . S
C589 C590 1.379 . S
C590 H574 0.931 . S
C590 C584 1.383 . S
C590 C589 1.379 . S
H591 C585 0.959 . S
H592 C585 0.961 . S
H593 C585 0.960 . S
H594 C586 0.930 . S
H595 C587 0.929 . S
H596 C604 0.929 . S
H597 C606 0.930 . S
H598 C608 0.930 . S
H599 C611 0.929 . S
H600 C614 0.930 . S
H601 C616 0.960 . S
H602 C616 0.960 . S
H603 C616 0.960 . S
C604 H596 0.929 . S
C604 C605 1.377 . S
C604 C606 1.384 . S
C605 C604 1.377 . S
C605 C611 1.390 . S
C606 H597 0.930 . S
C606 C604 1.384 . S
C606 C607 1.372 . S
C607 C606 1.372 . S
C607 C608 1.400 . S
C607 C612 1.490 . S
C608 H598 0.930 . S
C608 C607 1.400 . S
C608 C611 1.386 . S
H609 C625 0.930 . S
H610 C626 0.931 . S
C611 H599 0.929 . S
C611 C605 1.390 . S
C611 C608 1.386 . S
C612 C607 1.490 . S
C612 C614 1.395 . S
C612 C615 1.403 . S
H613 C619 0.930 . S
C614 H600 0.930 . S
C614 C612 1.395 . S
C614 C617 1.403 . S
C615 C612 1.403 . S
C615 C616 1.524 . S
C615 C619 1.400 . S
C616 H601 0.960 . S
C616 H602 0.960 . S
C616 H603 0.960 . S
C616 C615 1.524 . S
C617 C614 1.403 . S
C617 C618 1.392 . S
C617 C621 1.495 1_556 S
C618 C617 1.392 . S
C618 C619 1.385 . S
C618 C620 1.478 . S
C619 H613 0.930 . S
C619 C615 1.400 . S
C619 C618 1.385 . S
C620 C618 1.478 . S
C620 C622 1.381 . S
C620 C626 1.383 . S
C621 C617 1.495 1_554 S
C621 H627 0.959 . S
C621 H628 0.961 . S
C621 H629 0.960 . S
C622 C620 1.381 . S
C622 C623 1.394 . S
C622 H630 0.930 . S
C623 C622 1.394 . S
C623 C624 1.383 . S
C623 H631 0.929 . S
C624 C623 1.383 . S
C624 C625 1.377 . S
C625 H609 0.930 . S
C625 C624 1.377 . S
C625 C626 1.379 . S
C626 H610 0.931 . S
C626 C620 1.383 . S
C626 C625 1.379 . S
H627 C621 0.959 . S
H628 C621 0.961 . S
H629 C621 0.960 . S
H630 C622 0.930 . S
H631 C623 0.929 . S
H632 C640 0.929 . S
H633 C642 0.930 . S
H634 C644 0.930 . S
H635 C647 0.929 . S
H636 C650 0.930 . S
H637 C652 0.960 . S
H638 C652 0.960 . S
H639 C652 0.960 . S
C640 H632 0.929 . S
C640 C641 1.377 . S
C640 C642 1.384 . S
C641 C640 1.377 . S
C641 C647 1.390 . S
C642 H633 0.930 . S
C642 C640 1.384 . S
C642 C643 1.372 . S
C643 C642 1.372 . S
C643 C644 1.400 . S
C643 C648 1.490 . S
C644 H634 0.930 . S
C644 C643 1.400 . S
C644 C647 1.386 . S
H645 C661 0.930 . S
H646 C662 0.931 . S
C647 H635 0.929 . S
C647 C641 1.390 . S
C647 C644 1.386 . S
C648 C643 1.490 . S
C648 C650 1.395 . S
C648 C651 1.403 . S
H649 C655 0.930 . S
C650 H636 0.930 . S
C650 C648 1.395 . S
C650 C653 1.403 . S
C651 C648 1.403 . S
C651 C652 1.524 . S
C651 C655 1.400 . S
C652 H637 0.960 . S
C652 H638 0.960 . S
C652 H639 0.960 . S
C652 C651 1.524 . S
C653 C650 1.403 . S
C653 C654 1.392 . S
C653 C657 1.495 . S
C654 C653 1.392 . S
C654 C655 1.385 . S
C654 C656 1.478 . S
C655 H649 0.930 . S
C655 C651 1.400 . S
C655 C654 1.385 . S
C656 C654 1.478 . S
C656 C658 1.381 . S
C656 C662 1.383 . S
C657 C653 1.495 . S
C657 H663 0.959 . S
C657 H664 0.961 . S
C657 H665 0.960 . S
C658 C656 1.381 . S
C658 C659 1.394 . S
C658 H666 0.930 . S
C659 C658 1.394 . S
C659 C660 1.383 . S
C659 H667 0.929 . S
C660 C659 1.383 . S
C660 C661 1.377 . S
C661 H645 0.930 . S
C661 C660 1.377 . S
C661 C662 1.379 . S
C662 H646 0.931 . S
C662 C656 1.383 . S
C662 C661 1.379 . S
H663 C657 0.959 . S
H664 C657 0.961 . S
H665 C657 0.960 . S
H666 C658 0.930 . S
H667 C659 0.929 . S
H668 C676 0.929 . S
H669 C678 0.930 . S
H670 C680 0.930 . S
H671 C683 0.929 . S
H672 C686 0.930 . S
H673 C688 0.960 . S
H674 C688 0.960 . S
H675 C688 0.960 . S
C676 H668 0.929 . S
C676 C677 1.377 . S
C676 C678 1.384 . S
C677 C676 1.377 . S
C677 C683 1.390 . S
C678 H669 0.930 . S
C678 C676 1.384 . S
C678 C679 1.372 . S
C679 C678 1.372 . S
C679 C680 1.400 . S
C679 C684 1.490 . S
C680 H670 0.930 . S
C680 C679 1.400 . S
C680 C683 1.386 . S
H681 C697 0.930 . S
H682 C698 0.931 . S
C683 H671 0.929 . S
C683 C677 1.390 . S
C683 C680 1.386 . S
C684 C679 1.490 . S
C684 C686 1.395 . S
C684 C687 1.403 . S
H685 C691 0.930 . S
C686 H672 0.930 . S
C686 C684 1.395 . S
C686 C689 1.403 . S
C687 C684 1.403 . S
C687 C688 1.524 . S
C687 C691 1.400 . S
C688 H673 0.960 . S
C688 H674 0.960 . S
C688 H675 0.960 . S
C688 C687 1.524 . S
C689 C686 1.403 . S
C689 C690 1.392 . S
C689 C693 1.495 . S
C690 C689 1.392 . S
C690 C691 1.385 . S
C690 C692 1.478 . S
C691 H685 0.930 . S
C691 C687 1.400 . S
C691 C690 1.385 . S
C692 C690 1.478 . S
C692 C694 1.381 . S
C692 C698 1.383 . S
C693 C689 1.495 . S
C693 H699 0.959 . S
C693 H700 0.961 . S
C693 H701 0.960 . S
C694 C692 1.381 . S
C694 C695 1.394 . S
C694 H702 0.930 . S
C695 C694 1.394 . S
C695 C696 1.383 . S
C695 H703 0.929 . S
C696 C695 1.383 . S
C696 C697 1.377 . S
C697 H681 0.930 . S
C697 C696 1.377 . S
C697 C698 1.379 . S
C698 H682 0.931 . S
C698 C692 1.383 . S
C698 C697 1.379 . S
H699 C693 0.959 . S
H700 C693 0.961 . S
H701 C693 0.960 . S
H702 C694 0.930 . S
H703 C695 0.929 . S
H704 C712 0.929 . S
H705 C714 0.930 . S
H706 C716 0.930 . S
H707 C719 0.929 . S
H708 C722 0.930 . S
H709 C724 0.960 . S
H710 C724 0.960 . S
H711 C724 0.960 . S
C712 H704 0.929 . S
C712 C713 1.377 . S
C712 C714 1.384 . S
C713 C712 1.377 . S
C713 C719 1.390 . S
C714 H705 0.930 . S
C714 C712 1.384 . S
C714 C715 1.372 . S
C715 C714 1.372 . S
C715 C716 1.400 . S
C715 C720 1.490 . S
C716 H706 0.930 . S
C716 C715 1.400 . S
C716 C719 1.386 . S
H717 C733 0.930 . S
H718 C734 0.931 . S
C719 H707 0.929 . S
C719 C713 1.390 . S
C719 C716 1.386 . S
C720 C715 1.490 . S
C720 C722 1.395 . S
C720 C723 1.403 . S
H721 C727 0.930 . S
C722 H708 0.930 . S
C722 C720 1.395 . S
C722 C725 1.403 . S
C723 C720 1.403 . S
C723 C724 1.524 . S
C723 C727 1.400 . S
C724 H709 0.960 . S
C724 H710 0.960 . S
C724 H711 0.960 . S
C724 C723 1.524 . S
C725 C722 1.403 . S
C725 C726 1.392 . S
C725 C729 1.495 . S
C726 C725 1.392 . S
C726 C727 1.385 . S
C726 C728 1.478 . S
C727 H721 0.930 . S
C727 C723 1.400 . S
C727 C726 1.385 . S
C728 C726 1.478 . S
C728 C730 1.349 1_556 S
C728 C734 1.383 . S
C729 C725 1.495 . S
C729 H735 0.959 . S
C729 H736 0.961 . S
C729 H737 0.960 . S
C730 C728 1.349 1_554 S
C730 C731 1.403 . S
C730 H738 0.954 . S
C731 C730 1.403 . S
C731 C732 1.383 1_554 S
C731 H739 0.929 . S
C732 C731 1.383 1_556 S
C732 C733 1.377 . S
C733 H717 0.930 . S
C733 C732 1.377 . S
C733 C734 1.379 . S
C734 H718 0.931 . S
C734 C728 1.383 . S
C734 C733 1.379 . S
H735 C729 0.959 . S
H736 C729 0.961 . S
H737 C729 0.960 . S
H738 C730 0.954 . S
H739 C731 0.929 . S
H740 C748 0.929 . S
H741 C750 0.930 . S
H742 C752 0.930 . S
H743 C755 0.929 . S
H744 C758 0.930 . S
H745 C760 0.960 1_455 S
H746 C760 0.960 . S
H747 C760 0.960 . S
C748 H740 0.929 . S
C748 C749 1.377 . S
C748 C750 1.384 . S
C749 C748 1.377 . S
C749 C755 1.390 . S
C750 H741 0.930 . S
C750 C748 1.384 . S
C750 C751 1.372 . S
C751 C750 1.372 . S
C751 C752 1.400 . S
C751 C756 1.490 . S
C752 H742 0.930 . S
C752 C751 1.400 . S
C752 C755 1.386 . S
H753 C769 0.930 . S
H754 C770 0.931 . S
C755 H743 0.929 . S
C755 C749 1.390 . S
C755 C752 1.386 . S
C756 C751 1.490 . S
C756 C758 1.395 . S
C756 C759 1.403 . S
H757 C763 0.930 . S
C758 H744 0.930 . S
C758 C756 1.395 . S
C758 C761 1.403 . S
C759 C756 1.403 . S
C759 C760 1.524 . S
C759 C763 1.400 . S
C760 H745 0.960 1_655 S
C760 H746 0.960 . S
C760 H747 0.960 . S
C760 C759 1.524 . S
C761 C758 1.403 . S
C761 C762 1.392 . S
C761 C765 1.495 . S
C762 C761 1.392 . S
C762 C763 1.385 . S
C762 C764 1.478 . S
C763 H757 0.930 . S
C763 C759 1.400 . S
C763 C762 1.385 . S
C764 C762 1.478 . S
C764 C766 1.381 . S
C764 C770 1.383 . S
C765 C761 1.495 . S
C765 H771 0.959 . S
C765 H772 0.961 . S
C765 H773 0.960 . S
C766 C764 1.381 . S
C766 C767 1.394 . S
C766 H774 0.930 . S
C767 C766 1.394 . S
C767 C768 1.383 . S
C767 H775 0.929 . S
C768 C767 1.383 . S
C768 C769 1.377 . S
C769 H753 0.930 . S
C769 C768 1.377 . S
C769 C770 1.379 . S
C770 H754 0.931 . S
C770 C764 1.383 . S
C770 C769 1.379 . S
H771 C765 0.959 . S
H772 C765 0.961 . S
H773 C765 0.960 . S
H774 C766 0.930 . S
H775 C767 0.929 . S
H776 C784 0.929 . S
H777 C786 0.930 . S
H778 C788 0.930 . S
H779 C791 0.929 . S
H780 C794 0.930 . S
H781 C796 0.960 . S
H782 C796 0.960 . S
H783 C796 0.960 . S
C784 H776 0.929 . S
C784 C785 1.377 . S
C784 C786 1.384 . S
C785 C784 1.377 . S
C785 C791 1.390 . S
C786 H777 0.930 . S
C786 C784 1.384 . S
C786 C787 1.372 . S
C787 C786 1.372 . S
C787 C788 1.400 . S
C787 C792 1.490 . S
C788 H778 0.930 . S
C788 C787 1.400 . S
C788 C791 1.386 . S
H789 C805 0.930 . S
H790 C806 0.931 . S
C791 H779 0.929 . S
C791 C785 1.390 . S
C791 C788 1.386 . S
C792 C787 1.490 . S
C792 C794 1.395 . S
C792 C795 1.403 . S
H793 C799 0.930 . S
C794 H780 0.930 . S
C794 C792 1.395 . S
C794 C797 1.403 . S
C795 C792 1.403 . S
C795 C796 1.524 . S
C795 C799 1.400 . S
C796 H781 0.960 . S
C796 H782 0.960 . S
C796 H783 0.960 . S
C796 C795 1.524 . S
C797 C794 1.403 . S
C797 C798 1.392 . S
C797 C801 1.495 . S
C798 C797 1.392 . S
C798 C799 1.385 . S
C798 C800 1.478 . S
C799 H793 0.930 . S
C799 C795 1.400 . S
C799 C798 1.385 . S
C800 C798 1.478 . S
C800 C802 1.381 . S
C800 C806 1.383 . S
C801 C797 1.495 . S
C801 H807 0.959 . S
C801 H808 0.961 . S
C801 H809 0.960 . S
C802 C800 1.381 . S
C802 C803 1.394 . S
C802 H810 0.930 . S
C803 C802 1.394 . S
C803 C804 1.383 . S
C803 H811 0.929 . S
C804 C803 1.383 . S
C804 C805 1.377 . S
C805 H789 0.930 . S
C805 C804 1.377 . S
C805 C806 1.379 . S
C806 H790 0.931 . S
C806 C800 1.383 . S
C806 C805 1.379 . S
H807 C801 0.959 . S
H808 C801 0.961 . S
H809 C801 0.960 . S
H810 C802 0.930 . S
H811 C803 0.929 . S
H812 C820 0.929 . S
H813 C822 0.930 . S
H814 C824 0.930 . S
H815 C827 0.929 . S
H816 C830 0.930 . S
H817 C832 0.955 1_455 S
H818 C832 0.960 . S
H819 C832 0.960 1_455 S
C820 H812 0.929 . S
C820 C821 1.377 . S
C820 C822 1.384 . S
C821 C820 1.377 . S
C821 C827 1.390 . S
C822 H813 0.930 . S
C822 C820 1.384 . S
C822 C823 1.372 . S
C823 C822 1.372 . S
C823 C824 1.400 . S
C823 C828 1.490 . S
C824 H814 0.930 . S
C824 C823 1.400 . S
C824 C827 1.386 . S
H825 C841 0.951 . S
H826 C842 0.931 1_455 S
C827 H815 0.929 . S
C827 C821 1.390 . S
C827 C824 1.386 . S
C828 C823 1.490 . S
C828 C830 1.395 1_565 S
C828 C831 1.403 . S
H829 C835 0.930 . S
C830 H816 0.930 . S
C830 C828 1.395 1_545 S
C830 C833 1.403 . S
C831 C828 1.403 . S
C831 C832 1.524 . S
C831 C835 1.400 . S
C832 H817 0.955 1_655 S
C832 H818 0.960 . S
C832 H819 0.960 1_655 S
C832 C831 1.524 . S
C833 C830 1.403 . S
C833 C834 1.392 1_545 S
C833 C837 1.495 . S
C834 C833 1.392 1_565 S
C834 C835 1.385 . S
C834 C836 1.478 . S
C835 H829 0.930 . S
C835 C831 1.400 . S
C835 C834 1.385 . S
C836 C834 1.478 . S
C836 C838 1.381 . S
C836 C842 1.383 1_565 S
C837 C833 1.495 . S
C837 H843 0.959 . S
C837 H844 0.961 . S
C837 H845 0.960 . S
C838 C836 1.381 . S
C838 C839 1.394 . S
C838 H846 0.930 . S
C839 C838 1.394 . S
C839 C840 1.383 1_565 S
C839 H847 0.929 . S
C840 C839 1.383 1_545 S
C840 C841 1.361 1_655 S
C841 H825 0.951 . S
C841 C840 1.361 1_455 S
C841 C842 1.375 1_455 S
C842 H826 0.931 1_655 S
C842 C836 1.383 1_545 S
C842 C841 1.375 1_655 S
H843 C837 0.959 . S
H844 C837 0.961 . S
H845 C837 0.960 . S
H846 C838 0.930 . S
H847 C839 0.929 . S
H848 C856 0.929 . S
H849 C858 0.930 . S
H850 C860 0.930 . S
H851 C863 0.929 . S
H852 C866 0.930 . S
H853 C868 0.960 . S
H854 C868 0.990 . S
H855 C868 0.960 . S
C856 H848 0.929 . S
C856 C857 1.377 . S
C856 C858 1.384 . S
C857 C856 1.377 . S
C857 C863 1.390 . S
C858 H849 0.930 . S
C858 C856 1.384 . S
C858 C859 1.372 . S
C859 C858 1.372 . S
C859 C860 1.400 . S
C859 C864 1.490 . S
C860 H850 0.930 . S
C860 C859 1.400 . S
C860 C863 1.386 . S
H861 C877 0.930 . S
H862 C878 0.931 . S
C863 H851 0.929 . S
C863 C857 1.390 . S
C863 C860 1.386 . S
C864 C859 1.490 . S
C864 C866 1.395 . S
C864 C867 1.403 . S
H865 C871 0.930 . S
C866 H852 0.930 . S
C866 C864 1.395 . S
C866 C869 1.403 . S
C867 C864 1.403 . S
C867 C868 1.524 . S
C867 C871 1.400 . S
C868 H853 0.960 . S
C868 H854 0.990 . S
C868 H855 0.960 . S
C868 C867 1.524 . S
C869 C866 1.403 . S
C869 C870 1.392 . S
C869 C873 1.495 . S
C870 C869 1.392 . S
C870 C871 1.385 . S
C870 C872 1.478 . S
C871 H865 0.930 . S
C871 C867 1.400 . S
C871 C870 1.385 . S
C872 C870 1.478 . S
C872 C874 1.381 . S
C872 C878 1.383 . S
C873 C869 1.495 . S
C873 H879 0.959 . S
C873 H880 0.961 . S
C873 H881 0.960 . S
C874 C872 1.381 . S
C874 C875 1.395 1_545 S
C874 H882 0.930 1_545 S
C875 C874 1.395 1_565 S
C875 C876 1.385 1_565 S
C875 H883 0.927 . S
C876 C875 1.385 1_545 S
C876 C877 1.377 . S
C877 H861 0.930 . S
C877 C876 1.377 . S
C877 C878 1.379 . S
C878 H862 0.931 . S
C878 C872 1.383 . S
C878 C877 1.379 . S
H879 C873 0.959 . S
H880 C873 0.961 . S
H881 C873 0.960 . S
H882 C874 0.930 1_565 S
H883 C875 0.927 . S
H884 C892 0.929 . S
H885 C894 0.930 . S
H886 C896 0.930 . S
H887 C899 0.929 . S
H888 C902 0.930 . S
H889 C904 0.960 . S
H890 C904 0.960 . S
H891 C904 0.960 . S
C892 H884 0.929 . S
C892 C893 1.377 . S
C892 C894 1.384 . S
C893 C892 1.377 . S
C893 C899 1.390 . S
C894 H885 0.930 . S
C894 C892 1.384 . S
C894 C895 1.372 . S
C895 C894 1.372 . S
C895 C896 1.400 . S
C895 C900 1.490 . S
C896 H886 0.930 . S
C896 C895 1.400 . S
C896 C899 1.386 . S
H897 C913 0.930 . S
H898 C914 0.931 . S
C899 H887 0.929 . S
C899 C893 1.390 . S
C899 C896 1.386 . S
C900 C895 1.490 . S
C900 C902 1.395 . S
C900 C903 1.403 . S
H901 C907 0.930 . S
C902 H888 0.930 . S
C902 C900 1.395 . S
C902 C905 1.403 . S
C903 C900 1.403 . S
C903 C904 1.524 . S
C903 C907 1.400 . S
C904 H889 0.960 . S
C904 H890 0.960 . S
C904 H891 0.960 . S
C904 C903 1.524 . S
C905 C902 1.403 . S
C905 C906 1.392 . S
C905 C909 1.495 . S
C906 C905 1.392 . S
C906 C907 1.385 . S
C906 C908 1.478 . S
C907 H901 0.930 . S
C907 C903 1.400 . S
C907 C906 1.385 . S
C908 C906 1.478 . S
C908 C910 1.381 . S
C908 C914 1.383 . S
C909 C905 1.495 . S
C909 H915 0.959 . S
C909 H916 0.961 . S
C909 H917 0.960 . S
C910 C908 1.381 . S
C910 C911 1.394 . S
C910 H918 0.930 . S
C911 C910 1.394 . S
C911 C912 1.383 . S
C911 H919 0.929 . S
C912 C911 1.383 . S
C912 C913 1.377 . S
C913 H897 0.930 . S
C913 C912 1.377 . S
C913 C914 1.379 . S
C914 H898 0.931 . S
C914 C908 1.383 . S
C914 C913 1.379 . S
H915 C909 0.959 . S
H916 C909 0.961 . S
H917 C909 0.960 . S
H918 C910 0.930 . S
H919 C911 0.929 . S
H920 C928 0.929 . S
H921 C930 0.930 . S
H922 C932 0.930 . S
H923 C935 0.929 . S
H924 C938 0.930 . S
H925 C940 0.960 . S
H926 C940 0.960 . S
H927 C940 0.960 . S
C928 H920 0.929 . S
C928 C929 1.377 . S
C928 C930 1.384 . S
C929 C928 1.377 . S
C929 C935 1.390 . S
C930 H921 0.930 . S
C930 C928 1.384 . S
C930 C931 1.372 . S
C931 C930 1.372 . S
C931 C932 1.400 . S
C931 C936 1.490 . S
C932 H922 0.930 . S
C932 C931 1.400 . S
C932 C935 1.386 . S
H933 C949 0.930 . S
H934 C950 0.931 . S
C935 H923 0.929 . S
C935 C929 1.390 . S
C935 C932 1.386 . S
C936 C931 1.490 . S
C936 C938 1.395 . S
C936 C939 1.403 . S
H937 C943 0.930 . S
C938 H924 0.930 . S
C938 C936 1.395 . S
C938 C941 1.403 . S
C939 C936 1.403 . S
C939 C940 1.524 . S
C939 C943 1.400 . S
C940 H925 0.960 . S
C940 H926 0.960 . S
C940 H927 0.960 . S
C940 C939 1.524 . S
C941 C938 1.403 . S
C941 C942 1.392 . S
C941 C945 1.495 . S
C942 C941 1.392 . S
C942 C943 1.385 . S
C942 C944 1.478 . S
C943 H937 0.930 . S
C943 C939 1.400 . S
C943 C942 1.385 . S
C944 C942 1.478 . S
C944 C946 1.381 . S
C944 C950 1.383 . S
C945 C941 1.495 . S
C945 H951 0.959 . S
C945 H952 0.961 . S
C945 H953 0.960 . S
C946 C944 1.381 . S
C946 C947 1.394 . S
C946 H954 0.930 . S
C947 C946 1.394 . S
C947 C948 1.383 . S
C947 H955 0.929 . S
C948 C947 1.383 . S
C948 C949 1.377 . S
C949 H933 0.930 . S
C949 C948 1.377 . S
C949 C950 1.379 . S
C950 H934 0.931 . S
C950 C944 1.383 . S
C950 C949 1.379 . S
H951 C945 0.959 . S
H952 C945 0.961 . S
H953 C945 0.960 . S
H954 C946 0.930 . S
H955 C947 0.929 . S
H956 C964 0.929 . S
H957 C966 0.953 . S
H958 C968 0.930 . S
H959 C971 0.929 . S
H960 C974 0.930 . S
H961 C976 0.960 . S
H962 C976 0.960 . S
H963 C976 0.960 1_565 S
C964 H956 0.929 . S
C964 C965 1.377 . S
C964 C966 1.384 . S
C965 C964 1.377 . S
C965 C971 1.390 . S
C966 H957 0.953 . S
C966 C964 1.384 . S
C966 C967 1.372 . S
C967 C966 1.372 . S
C967 C968 1.400 . S
C967 C972 1.490 . S
C968 H958 0.930 . S
C968 C967 1.400 . S
C968 C971 1.386 . S
H969 C985 0.930 . S
H970 C986 0.931 1_554 S
C971 H959 0.929 . S
C971 C965 1.390 . S
C971 C968 1.386 . S
C972 C967 1.490 . S
C972 C974 1.395 . S
C972 C975 1.403 . S
H973 C979 0.927 1_544 S
C974 H960 0.930 . S
C974 C972 1.395 . S
C974 C977 1.403 . S
C975 C972 1.403 . S
C975 C976 1.524 1_566 S
C975 C979 1.400 . S
C976 H961 0.960 . S
C976 H962 0.960 . S
C976 H963 0.960 1_545 S
C976 C975 1.524 1_544 S
C977 C974 1.403 . S
C977 C978 1.392 . S
C977 C981 1.495 . S
C978 C977 1.392 . S
C978 C979 1.385 . S
C978 C980 1.478 . S
C979 H973 0.927 1_566 S
C979 C975 1.400 . S
C979 C978 1.385 . S
C980 C978 1.478 . S
C980 C982 1.381 1_565 S
C980 C986 1.383 . S
C981 C977 1.495 . S
C981 H987 0.959 . S
C981 H988 0.961 . S
C981 H989 0.960 . S
C982 C980 1.381 1_545 S
C982 C983 1.394 . S
C982 H990 0.930 . S
C983 C982 1.394 . S
C983 C984 1.383 1_545 S
C983 H991 0.929 . S
C984 C983 1.383 1_565 S
C984 C985 1.377 1_556 S
C985 H969 0.930 . S
C985 C984 1.377 1_554 S
C985 C986 1.379 1_554 S
C986 H970 0.931 1_556 S
C986 C980 1.383 . S
C986 C985 1.379 1_556 S
H987 C981 0.959 . S
H988 C981 0.961 . S
H989 C981 0.960 . S
H990 C982 0.930 . S
H991 C983 0.929 . S
H992 C1000 0.929 . S
H993 C1002 0.959 . S
H994 C1004 0.930 . S
H995 C1007 0.929 . S
H996 C1010 0.930 . S
H997 C1012 0.960 . S
H998 C1012 0.960 . S
H999 C1012 0.960 . S
C1000 H992 0.929 . S
C1000 C1001 1.377 . S
C1000 C1002 1.384 . S
C1001 C1000 1.377 . S
C1001 C1007 1.390 . S
C1002 H993 0.959 . S
C1002 C1000 1.384 . S
C1002 C1003 1.372 . S
C1003 C1002 1.372 . S
C1003 C1004 1.400 . S
C1003 C1008 1.490 . S
C1004 H994 0.930 . S
C1004 C1003 1.400 . S
C1004 C1007 1.386 . S
H1005 C1021 0.930 . S
H1006 C1022 0.931 . S
C1007 H995 0.929 . S
C1007 C1001 1.390 . S
C1007 C1004 1.386 . S
C1008 C1003 1.490 . S
C1008 C1010 1.395 . S
C1008 C1011 1.403 . S
H1009 C1015 0.930 . S
C1010 H996 0.930 . S
C1010 C1008 1.395 . S
C1010 C1013 1.403 . S
C1011 C1008 1.403 . S
C1011 C1012 1.524 . S
C1011 C1015 1.400 . S
C1012 H997 0.960 . S
C1012 H998 0.960 . S
C1012 H999 0.960 . S
C1012 C1011 1.524 . S
C1013 C1010 1.403 . S
C1013 C1014 1.392 . S
C1013 C1017 1.495 . S
C1014 C1013 1.392 . S
C1014 C1015 1.385 . S
C1014 C1016 1.478 . S
C1015 H1009 0.930 . S
C1015 C1011 1.400 . S
C1015 C1014 1.385 . S
C1016 C1014 1.478 . S
C1016 C1018 1.412 . S
C1016 C1022 1.383 . S
C1017 C1013 1.495 . S
C1017 H1023 0.959 . S
C1017 H1024 0.961 . S
C1017 H1025 0.960 1_545 S
C1018 C1016 1.412 . S
C1018 C1019 1.392 1_545 S
C1018 H1026 0.902 1_545 S
C1019 C1018 1.392 1_565 S
C1019 C1020 1.383 1_565 S
C1019 H1027 0.929 . S
C1020 C1019 1.383 1_545 S
C1020 C1021 1.377 . S
C1021 H1005 0.930 . S
C1021 C1020 1.377 . S
C1021 C1022 1.379 . S
C1022 H1006 0.931 . S
C1022 C1016 1.383 . S
C1022 C1021 1.379 . S
H1023 C1017 0.959 . S
H1024 C1017 0.961 . S
H1025 C1017 0.960 1_565 S
H1026 C1018 0.902 1_565 S
H1027 C1019 0.929 . S
H1028 C1036 0.929 . S
H1029 C1038 0.930 . S
H1030 C1040 0.930 . S
H1031 C1043 0.929 . S
H1032 C1046 0.930 . S
H1033 C1048 0.960 . S
H1034 C1048 0.960 . S
H1035 C1048 0.960 . S
C1036 H1028 0.929 . S
C1036 C1037 1.377 . S
C1036 C1038 1.384 . S
C1037 C1036 1.377 . S
C1037 C1043 1.390 . S
C1038 H1029 0.930 . S
C1038 C1036 1.384 . S
C1038 C1039 1.372 . S
C1039 C1038 1.372 . S
C1039 C1040 1.400 . S
C1039 C1044 1.490 . S
C1040 H1030 0.930 . S
C1040 C1039 1.400 . S
C1040 C1043 1.386 . S
H1041 C1057 0.930 . S
H1042 C1058 0.931 . S
C1043 H1031 0.929 . S
C1043 C1037 1.390 . S
C1043 C1040 1.386 . S
C1044 C1039 1.490 . S
C1044 C1046 1.395 . S
C1044 C1047 1.403 . S
H1045 C1051 0.930 . S
C1046 H1032 0.930 . S
C1046 C1044 1.395 . S
C1046 C1049 1.403 . S
C1047 C1044 1.403 . S
C1047 C1048 1.524 . S
C1047 C1051 1.400 . S
C1048 H1033 0.960 . S
C1048 H1034 0.960 . S
C1048 H1035 0.960 . S
C1048 C1047 1.524 . S
C1049 C1046 1.403 . S
C1049 C1050 1.392 . S
C1049 C1053 1.495 . S
C1050 C1049 1.392 . S
C1050 C1051 1.385 . S
C1050 C1052 1.478 . S
C1051 H1045 0.930 . S
C1051 C1047 1.400 . S
C1051 C1050 1.385 . S
C1052 C1050 1.478 . S
C1052 C1054 1.420 . S
C1052 C1058 1.383 . S
C1053 C1049 1.495 . S
C1053 H1059 0.959 . S
C1053 H1060 0.961 . S
C1053 H1061 0.960 . S
C1054 C1052 1.420 . S
C1054 C1055 1.385 1_554 S
C1054 H1062 0.902 1_554 S
C1055 C1054 1.385 1_556 S
C1055 C1056 1.383 1_556 S
C1055 H1063 0.929 . S
C1056 C1055 1.383 1_554 S
C1056 C1057 1.377 . S
C1057 H1041 0.930 . S
C1057 C1056 1.377 . S
C1057 C1058 1.379 . S
C1058 H1042 0.931 . S
C1058 C1052 1.383 . S
C1058 C1057 1.379 . S
H1059 C1053 0.959 . S
H1060 C1053 0.961 . S
H1061 C1053 0.960 . S
H1062 C1054 0.902 1_556 S
H1063 C1055 0.929 . S
H1064 C1072 0.929 . S
H1065 C1074 0.930 . S
H1066 C1076 0.930 . S
H1067 C1079 0.929 . S
H1068 C1082 0.930 . S
H1069 C1084 0.960 . S
H1070 C1084 0.960 . S
H1071 C1084 0.960 . S
C1072 H1064 0.929 . S
C1072 C1073 1.377 . S
C1072 C1074 1.384 . S
C1073 C1072 1.377 . S
C1073 C1079 1.390 . S
C1074 H1065 0.930 . S
C1074 C1072 1.384 . S
C1074 C1075 1.372 . S
C1075 C1074 1.372 . S
C1075 C1076 1.400 . S
C1075 C1080 1.490 . S
C1076 H1066 0.930 . S
C1076 C1075 1.400 . S
C1076 C1079 1.386 . S
H1077 C1093 0.930 . S
H1078 C1094 0.931 . S
C1079 H1067 0.929 . S
C1079 C1073 1.390 . S
C1079 C1076 1.386 . S
C1080 C1075 1.490 . S
C1080 C1082 1.395 . S
C1080 C1083 1.403 . S
H1081 C1087 0.930 . S
C1082 H1068 0.930 . S
C1082 C1080 1.395 . S
C1082 C1085 1.403 . S
C1083 C1080 1.403 . S
C1083 C1084 1.524 . S
C1083 C1087 1.400 . S
C1084 H1069 0.960 . S
C1084 H1070 0.960 . S
C1084 H1071 0.960 . S
C1084 C1083 1.524 . S
C1085 C1082 1.403 . S
C1085 C1086 1.392 . S
C1085 C1089 1.495 . S
C1086 C1085 1.392 . S
C1086 C1087 1.385 . S
C1086 C1088 1.478 . S
C1087 H1081 0.930 . S
C1087 C1083 1.400 . S
C1087 C1086 1.385 . S
C1088 C1086 1.478 . S
C1088 C1090 1.381 . S
C1088 C1094 1.383 . S
C1089 C1085 1.495 . S
C1089 H1095 0.959 . S
C1089 H1096 0.961 . S
C1089 H1097 0.960 . S
C1090 C1088 1.381 . S
C1090 C1091 1.394 . S
C1090 H1098 0.930 . S
C1091 C1090 1.394 . S
C1091 C1092 1.383 . S
C1091 H1099 0.929 . S
C1092 C1091 1.383 . S
C1092 C1093 1.377 . S
C1093 H1077 0.930 . S
C1093 C1092 1.377 . S
C1093 C1094 1.379 . S
C1094 H1078 0.931 . S
C1094 C1088 1.383 . S
C1094 C1093 1.379 . S
H1095 C1089 0.959 . S
H1096 C1089 0.961 . S
H1097 C1089 0.960 . S
H1098 C1090 0.930 . S
H1099 C1091 0.929 . S
H1100 C1108 0.929 . S
H1101 C1110 0.930 . S
H1102 C1112 0.930 1_554 S
H1103 C1115 0.929 . S
H1104 C1118 0.930 . S
H1105 C1120 0.960 1_554 S
H1106 C1120 0.960 . S
H1107 C1120 0.960 1_554 S
C1108 H1100 0.929 . S
C1108 C1109 1.377 . S
C1108 C1110 1.384 . S
C1109 C1108 1.377 . S
C1109 C1115 1.390 . S
C1110 H1101 0.930 . S
C1110 C1108 1.384 . S
C1110 C1111 1.372 . S
C1111 C1110 1.372 . S
C1111 C1112 1.400 . S
C1111 C1116 1.490 . S
C1112 H1102 0.930 1_556 S
C1112 C1111 1.400 . S
C1112 C1115 1.386 . S
H1113 C1129 0.930 . S
H1114 C1130 0.931 . S
C1115 H1103 0.929 . S
C1115 C1109 1.390 . S
C1115 C1112 1.386 . S
C1116 C1111 1.490 . S
C1116 C1118 1.395 . S
C1116 C1119 1.403 . S
H1117 C1123 0.930 . S
C1118 H1104 0.930 . S
C1118 C1116 1.395 . S
C1118 C1121 1.403 . S
C1119 C1116 1.403 . S
C1119 C1120 1.524 . S
C1119 C1123 1.400 . S
C1120 H1105 0.960 1_556 S
C1120 H1106 0.960 . S
C1120 H1107 0.960 1_556 S
C1120 C1119 1.524 . S
C1121 C1118 1.403 . S
C1121 C1122 1.392 . S
C1121 C1125 1.495 1_655 S
C1122 C1121 1.392 . S
C1122 C1123 1.385 . S
C1122 C1124 1.478 . S
C1123 H1117 0.930 . S
C1123 C1119 1.400 . S
C1123 C1122 1.385 . S
C1124 C1122 1.478 . S
C1124 C1126 1.381 . S
C1124 C1130 1.383 1_556 S
C1125 C1121 1.495 1_455 S
C1125 H1131 0.959 . S
C1125 H1132 0.961 . S
C1125 H1133 0.960 . S
C1126 C1124 1.381 . S
C1126 C1127 1.394 . S
C1126 H1134 0.930 . S
C1127 C1126 1.394 . S
C1127 C1128 1.383 . S
C1127 H1135 0.929 . S
C1128 C1127 1.383 . S
C1128 C1129 1.377 1_556 S
C1129 H1113 0.930 . S
C1129 C1128 1.377 1_554 S
C1129 C1130 1.379 . S
C1130 H1114 0.931 . S
C1130 C1124 1.383 1_554 S
C1130 C1129 1.379 . S
H1131 C1125 0.959 . S
H1132 C1125 0.961 . S
H1133 C1125 0.960 . S
H1134 C1126 0.930 . S
H1135 C1127 0.929 . S
H1136 C1144 0.929 . S
H1137 C1146 0.930 . S
H1138 C1148 0.930 . S
H1139 C1151 0.929 . S
H1140 C1154 0.930 . S
H1141 C1156 0.960 1_556 S
H1142 C1156 0.960 . S
H1143 C1156 0.960 . S
C1144 H1136 0.929 . S
C1144 C1145 1.377 . S
C1144 C1146 1.384 . S
C1145 C1144 1.377 . S
C1145 C1151 1.390 . S
C1146 H1137 0.930 . S
C1146 C1144 1.384 . S
C1146 C1147 1.372 . S
C1147 C1146 1.372 . S
C1147 C1148 1.400 . S
C1147 C1152 1.490 . S
C1148 H1138 0.930 . S
C1148 C1147 1.400 . S
C1148 C1151 1.386 . S
H1149 C1165 0.930 . S
H1150 C1166 0.931 . S
C1151 H1139 0.929 . S
C1151 C1145 1.390 . S
C1151 C1148 1.386 . S
C1152 C1147 1.490 . S
C1152 C1154 1.395 . S
C1152 C1155 1.403 . S
H1153 C1159 0.930 . S
C1154 H1140 0.930 . S
C1154 C1152 1.395 . S
C1154 C1157 1.403 . S
C1155 C1152 1.403 . S
C1155 C1156 1.524 . S
C1155 C1159 1.400 . S
C1156 H1141 0.960 1_554 S
C1156 H1142 0.960 . S
C1156 H1143 0.960 . S
C1156 C1155 1.524 . S
C1157 C1154 1.403 . S
C1157 C1158 1.392 . S
C1157 C1161 1.495 . S
C1158 C1157 1.392 . S
C1158 C1159 1.385 . S
C1158 C1160 1.478 . S
C1159 H1153 0.930 . S
C1159 C1155 1.400 . S
C1159 C1158 1.385 . S
C1160 C1158 1.478 . S
C1160 C1162 1.381 . S
C1160 C1166 1.383 . S
C1161 C1157 1.495 . S
C1161 H1167 0.959 . S
C1161 H1168 0.961 . S
C1161 H1169 0.960 . S
C1162 C1160 1.381 . S
C1162 C1163 1.394 . S
C1162 H1170 0.930 . S
C1163 C1162 1.394 . S
C1163 C1164 1.383 . S
C1163 H1171 0.929 . S
C1164 C1163 1.383 . S
C1164 C1165 1.377 . S
C1165 H1149 0.930 . S
C1165 C1164 1.377 . S
C1165 C1166 1.379 . S
C1166 H1150 0.931 . S
C1166 C1160 1.383 . S
C1166 C1165 1.379 . S
H1167 C1161 0.959 . S
H1168 C1161 0.961 . S
H1169 C1161 0.960 . S
H1170 C1162 0.930 . S
H1171 C1163 0.929 . S
H1172 C1180 0.929 . S
H1173 C1182 0.930 . S
H1174 C1184 0.930 . S
H1175 C1187 0.929 . S
H1176 C1190 0.930 . S
H1177 C1192 0.960 . S
H1178 C1192 0.960 . S
H1179 C1192 0.960 . S
C1180 H1172 0.929 . S
C1180 C1181 1.377 . S
C1180 C1182 1.384 . S
C1181 C1180 1.377 . S
C1181 C1187 1.390 . S
C1182 H1173 0.930 . S
C1182 C1180 1.384 . S
C1182 C1183 1.372 . S
C1183 C1182 1.372 . S
C1183 C1184 1.400 . S
C1183 C1188 1.490 . S
C1184 H1174 0.930 . S
C1184 C1183 1.400 . S
C1184 C1187 1.386 . S
H1185 C1201 0.930 . S
H1186 C1202 0.931 . S
C1187 H1175 0.929 . S
C1187 C1181 1.390 . S
C1187 C1184 1.386 . S
C1188 C1183 1.490 . S
C1188 C1190 1.395 . S
C1188 C1191 1.403 . S
H1189 C1195 0.930 . S
C1190 H1176 0.930 . S
C1190 C1188 1.395 . S
C1190 C1193 1.403 . S
C1191 C1188 1.403 . S
C1191 C1192 1.524 . S
C1191 C1195 1.400 . S
C1192 H1177 0.960 . S
C1192 H1178 0.960 . S
C1192 H1179 0.960 . S
C1192 C1191 1.524 . S
C1193 C1190 1.403 . S
C1193 C1194 1.392 . S
C1193 C1197 1.495 1_455 S
C1194 C1193 1.392 . S
C1194 C1195 1.385 . S
C1194 C1196 1.478 . S
C1195 H1189 0.930 . S
C1195 C1191 1.400 . S
C1195 C1194 1.385 . S
C1196 C1194 1.478 . S
C1196 C1198 1.381 . S
C1196 C1202 1.383 . S
C1197 C1193 1.495 1_655 S
C1197 H1203 0.959 . S
C1197 H1204 0.961 . S
C1197 H1205 0.960 . S
C1198 C1196 1.381 . S
C1198 C1199 1.394 . S
C1198 H1206 0.930 . S
C1199 C1198 1.394 . S
C1199 C1200 1.383 . S
C1199 H1207 0.929 . S
C1200 C1199 1.383 . S
C1200 C1201 1.377 . S
C1201 H1185 0.930 . S
C1201 C1200 1.377 . S
C1201 C1202 1.379 . S
C1202 H1186 0.931 . S
C1202 C1196 1.383 . S
C1202 C1201 1.379 . S
H1203 C1197 0.959 . S
H1204 C1197 0.961 . S
H1205 C1197 0.960 . S
H1206 C1198 0.930 . S
H1207 C1199 0.929 . S
H1208 C1216 0.929 . S
H1209 C1218 0.930 . S
H1210 C1220 0.930 . S
H1211 C1223 0.929 . S
H1212 C1226 0.930 . S
H1213 C1228 0.960 . S
H1214 C1228 0.960 . S
H1215 C1228 0.960 . S
C1216 H1208 0.929 . S
C1216 C1217 1.377 . S
C1216 C1218 1.384 . S
C1217 C1216 1.377 . S
C1217 C1223 1.390 . S
C1218 H1209 0.930 . S
C1218 C1216 1.384 . S
C1218 C1219 1.372 . S
C1219 C1218 1.372 . S
C1219 C1220 1.400 . S
C1219 C1224 1.490 . S
C1220 H1210 0.930 . S
C1220 C1219 1.400 . S
C1220 C1223 1.386 . S
H1221 C1237 0.930 . S
H1222 C1238 0.931 . S
C1223 H1211 0.929 . S
C1223 C1217 1.390 . S
C1223 C1220 1.386 . S
C1224 C1219 1.490 . S
C1224 C1226 1.395 . S
C1224 C1227 1.403 . S
H1225 C1231 0.930 . S
C1226 H1212 0.930 . S
C1226 C1224 1.395 . S
C1226 C1229 1.403 . S
C1227 C1224 1.403 . S
C1227 C1228 1.524 . S
C1227 C1231 1.400 . S
C1228 H1213 0.960 . S
C1228 H1214 0.960 . S
C1228 H1215 0.960 . S
C1228 C1227 1.524 . S
C1229 C1226 1.403 . S
C1229 C1230 1.392 . S
C1229 C1233 1.495 . S
C1230 C1229 1.392 . S
C1230 C1231 1.385 . S
C1230 C1232 1.478 . S
C1231 H1225 0.930 . S
C1231 C1227 1.400 . S
C1231 C1230 1.385 . S
C1232 C1230 1.478 . S
C1232 C1234 1.381 . S
C1232 C1238 1.383 . S
C1233 C1229 1.495 . S
C1233 H1239 0.959 . S
C1233 H1240 0.961 . S
C1233 H1241 0.960 . S
C1234 C1232 1.381 . S
C1234 C1235 1.394 . S
C1234 H1242 0.930 . S
C1235 C1234 1.394 . S
C1235 C1236 1.383 . S
C1235 H1243 0.929 . S
C1236 C1235 1.383 . S
C1236 C1237 1.377 . S
C1237 H1221 0.930 . S
C1237 C1236 1.377 . S
C1237 C1238 1.379 . S
C1238 H1222 0.931 . S
C1238 C1232 1.383 . S
C1238 C1237 1.379 . S
H1239 C1233 0.959 . S
H1240 C1233 0.961 . S
H1241 C1233 0.960 . S
H1242 C1234 0.930 . S
H1243 C1235 0.929 . S
C389 C1 1.594 . S
C408 C306 1.586 . S
C425 C67 1.597 . S
C444 C330 1.565 . S
C480 C350 1.385 . S
C461 C97 1.357 . S
C497 C133 1.426 . S
C516 C373 1.425 . S
C552 C332 1.685 . S
C533 C25 1.719 . S
C588 C308 1.664 . S
C569 C37 1.709 . S
C624 C376 1.566 . S
C605 C103 1.608 . S
C660 C353 1.552 . S
C641 C109 1.612 . S
C677 C31 1.343 . S
C696 C378 1.309 . S
C732 C327 1.657 . S
C713 C73 1.635 . S
C749 C139 1.673 . S
C768 C305 1.673 . S
C785 C61 1.317 . S
C804 C355 1.302 . S
C840 C309 1.699 1_545 S
C821 C175 1.696 . S
C857 C181 1.610 . S
C876 C331 1.614 . S
C893 C247 1.850 . S
C912 C351 1.848 . S
C929 C277 1.841 . S
C948 C374 1.847 . S
C965 C145 1.587 . S
C984 C329 1.571 1_556 S
C1020 C307 1.591 . S
C1001 C211 1.545 . S
C1056 C377 1.449 . S
C1037 C217 1.496 . S
C1092 C354 1.553 . S
C1073 C283 1.568 . S
C1109 C169 1.983 . S
C1128 C375 1.920 . S
C1164 C328 1.578 . S
C1145 C241 1.568 . S
C1200 C304 1.578 . S
C1181 C253 1.575 . S
C1217 C205 1.910 . S
C1236 C352 1.912 . S
