# Generated by pormake.
# Topology wbl, (4,4)-cn, num edge types: 1
# Building blocks:
#     Node 0, Type 0, BuildingBlock: MUDLON_clean_linker_0, # of connection points: 4
#     Node 1, Type 0, BuildingBlock: MUDLON_clean_linker_0, # of connection points: 4
#     Node 2, Type 0, BuildingBlock: MUDLON_clean_linker_0, # of connection points: 4
#     Node 3, Type 0, BuildingBlock: MUDLON_clean_linker_0, # of connection points: 4
#     Node 4, Type 0, BuildingBlock: MUDLON_clean_linker_0, # of connection points: 4
#     Node 5, Type 0, BuildingBlock: MUDLON_clean_linker_0, # of connection points: 4
#     Node 6, Type 0, BuildingBlock: MUDLON_clean_linker_0, # of connection points: 4
#     Node 7, Type 0, BuildingBlock: MUDLON_clean_linker_0, # of connection points: 4
#     Node 8, Type 1, BuildingBlock: TATPOV_clean_sbu_0, # of connection points: 4
#     Node 9, Type 1, BuildingBlock: TATPOV_clean_sbu_0, # of connection points: 4
#     Node 10, Type 1, BuildingBlock: TATPOV_clean_sbu_0, # of connection points: 4
#     Node 11, Type 1, BuildingBlock: TATPOV_clean_sbu_0, # of connection points: 4
#     Node 12, Type 1, BuildingBlock: TATPOV_clean_sbu_0, # of connection points: 4
#     Node 13, Type 1, BuildingBlock: TATPOV_clean_sbu_0, # of connection points: 4
#     Node 14, Type 1, BuildingBlock: TATPOV_clean_sbu_0, # of connection points: 4
#     Node 15, Type 1, BuildingBlock: TATPOV_clean_sbu_0, # of connection points: 4
#     Edge 16, Type (0, 1), BuildingBlock: XUDNAN_clean_linker_2, # of connection points: 2
#     Edge 17, Type (0, 1), BuildingBlock: XUDNAN_clean_linker_2, # of connection points: 2
#     Edge 18, Type (0, 1), BuildingBlock: XUDNAN_clean_linker_2, # of connection points: 2
#     Edge 19, Type (0, 1), BuildingBlock: XUDNAN_clean_linker_2, # of connection points: 2
#     Edge 20, Type (0, 1), BuildingBlock: XUDNAN_clean_linker_2, # of connection points: 2
#     Edge 21, Type (0, 1), BuildingBlock: XUDNAN_clean_linker_2, # of connection points: 2
#     Edge 22, Type (0, 1), BuildingBlock: XUDNAN_clean_linker_2, # of connection points: 2
#     Edge 23, Type (0, 1), BuildingBlock: XUDNAN_clean_linker_2, # of connection points: 2
#     Edge 24, Type (0, 1), BuildingBlock: XUDNAN_clean_linker_2, # of connection points: 2
#     Edge 25, Type (0, 1), BuildingBlock: XUDNAN_clean_linker_2, # of connection points: 2
#     Edge 26, Type (0, 1), BuildingBlock: XUDNAN_clean_linker_2, # of connection points: 2
#     Edge 27, Type (0, 1), BuildingBlock: XUDNAN_clean_linker_2, # of connection points: 2
#     Edge 28, Type (0, 1), BuildingBlock: XUDNAN_clean_linker_2, # of connection points: 2
#     Edge 29, Type (0, 1), BuildingBlock: XUDNAN_clean_linker_2, # of connection points: 2
#     Edge 30, Type (0, 1), BuildingBlock: XUDNAN_clean_linker_2, # of connection points: 2
#     Edge 31, Type (0, 1), BuildingBlock: XUDNAN_clean_linker_2, # of connection points: 2
#     Edge 32, Type (0, 1), BuildingBlock: XUDNAN_clean_linker_2, # of connection points: 2
#     Edge 33, Type (0, 1), BuildingBlock: XUDNAN_clean_linker_2, # of connection points: 2
#     Edge 34, Type (0, 1), BuildingBlock: XUDNAN_clean_linker_2, # of connection points: 2
#     Edge 35, Type (0, 1), BuildingBlock: XUDNAN_clean_linker_2, # of connection points: 2
#     Edge 36, Type (0, 1), BuildingBlock: XUDNAN_clean_linker_2, # of connection points: 2
#     Edge 37, Type (0, 1), BuildingBlock: XUDNAN_clean_linker_2, # of connection points: 2
#     Edge 38, Type (0, 1), BuildingBlock: XUDNAN_clean_linker_2, # of connection points: 2
#     Edge 39, Type (0, 1), BuildingBlock: XUDNAN_clean_linker_2, # of connection points: 2
#     Edge 40, Type (0, 1), BuildingBlock: XUDNAN_clean_linker_2, # of connection points: 2
#     Edge 41, Type (0, 1), BuildingBlock: XUDNAN_clean_linker_2, # of connection points: 2
#     Edge 42, Type (0, 1), BuildingBlock: XUDNAN_clean_linker_2, # of connection points: 2
#     Edge 43, Type (0, 1), BuildingBlock: XUDNAN_clean_linker_2, # of connection points: 2
#     Edge 44, Type (0, 1), BuildingBlock: XUDNAN_clean_linker_2, # of connection points: 2
#     Edge 45, Type (0, 1), BuildingBlock: XUDNAN_clean_linker_2, # of connection points: 2
#     Edge 46, Type (0, 1), BuildingBlock: XUDNAN_clean_linker_2, # of connection points: 2
#     Edge 47, Type (0, 1), BuildingBlock: XUDNAN_clean_linker_2, # of connection points: 2
# Relax obj value: 0.125
# Max RMSD: 0.127
# Mean RMSD: 0.118
data_MOF--net-wbl--node1-TATPOV_clean_sbu_0--node2-MUDLON_clean_linker_0--edge1-XUDNAN_clean_linker_2
_symmetry_space_group_name_H-M    P1
_symmetry_Int_Tables_number       1
_symmetry_cell_setting            triclinic
loop_
_symmetry_equiv_pos_as_xyz
'x, y, z'
_cell_length_a     53.560127
_cell_length_b     53.577045
_cell_length_c     75.225496
_cell_angle_alpha  91.469239
_cell_angle_beta   91.413231
_cell_angle_gamma 89.934363
loop_
_atom_site_label
_atom_site_type_symbol
_atom_site_fract_x
_atom_site_fract_y
_atom_site_fract_z
_atom_type_partial_charge
H0 H 0.13091 0.95699 0.33536 0.0
N1 N 0.09086 0.94312 0.31409 0.0
H2 H 0.14349 0.93837 0.36353 0.0
H3 H 0.06514 0.91064 0.33249 0.0
H4 H 0.07815 0.89124 0.36046 0.0
H5 H 0.11139 0.89857 0.30807 0.0
H6 H 0.14759 0.88839 0.29097 0.0
H7 H 0.11443 0.97471 0.29063 0.0
H8 H 0.14958 0.96409 0.27228 0.0
H9 H 0.10962 0.98961 0.32297 0.0
H10 H 0.0434 0.95017 0.30471 0.0
H11 H 0.08605 0.02845 0.32467 0.0
H12 H 0.01931 0.98889 0.30686 0.0
H13 H 0.9932 0.14151 0.34812 0.0
H14 H 0.96985 0.14834 0.37534 0.0
H15 H 0.94238 0.07254 0.37102 0.0
H16 H 0.96558 0.06603 0.34368 0.0
H17 H 0.94803 0.07948 0.31563 0.0
H18 H 0.91662 0.09709 0.29557 0.0
H19 H 0.965 0.16007 0.28733 0.0
H20 H 0.99661 0.1419 0.30718 0.0
H21 H 0.03055 0.08555 0.34647 0.0
H22 H 0.05521 0.04769 0.34255 0.0
H23 H 0.01259 0.02902 0.29455 0.0
N24 N 0.99219 0.10145 0.32657 0.0
H25 H 0.98757 0.06612 0.29868 0.0
C26 C 0.09684 0.93536 0.33193 0.0
C27 C 0.11871 0.94346 0.34109 0.0
C28 C 0.12598 0.9327 0.35714 0.0
C29 C 0.11178 0.91339 0.36409 0.0
C30 C 0.0894 0.9061 0.35533 0.0
C31 C 0.08192 0.91716 0.33945 0.0
C32 C 0.11052 0.93766 0.30157 0.0
C33 C 0.11963 0.9131 0.30036 0.0
C34 C 0.1403 0.90718 0.29021 0.0
C35 C 0.152 0.92542 0.28018 0.0
C36 C 0.14171 0.94965 0.28024 0.0
C37 C 0.12132 0.95578 0.29086 0.0
C38 C 0.07823 0.96691 0.3136 0.0
C39 C 0.08999 0.98928 0.31932 0.0
C40 C 0.0764 0.01152 0.32037 0.0
C41 C 0.05069 0.01184 0.31602 0.0
C42 C 0.03913 0.98948 0.31006 0.0
C43 C 0.05281 0.96731 0.30886 0.0
C44 C 0.98111 0.1034 0.34386 0.0
C45 C 0.98251 0.12627 0.35327 0.0
C46 C 0.96921 0.13007 0.36883 0.0
C47 C 0.95414 0.111 0.37529 0.0
C48 C 0.95354 0.0877 0.36624 0.0
C49 C 0.9669 0.08391 0.35067 0.0
C50 C 0.97481 0.1094 0.31285 0.0
C51 C 0.95203 0.0969 0.30933 0.0
C52 C 0.934 0.10709 0.29793 0.0
C53 C 0.93817 0.13012 0.28996 0.0
C54 C 0.96127 0.14216 0.29306 0.0
C55 C 0.97936 0.13185 0.30439 0.0
C56 C 0.00645 0.07874 0.32337 0.0
C57 C 0.02631 0.07319 0.33518 0.0
C58 C 0.04063 0.05163 0.3328 0.0
C59 C 0.03582 0.03516 0.31827 0.0
C60 C 0.01644 0.04097 0.30612 0.0
C61 C 0.00197 0.06246 0.30857 0.0
H62 H 0.98369 0.41195 0.60467 0.0
N63 N 0.97689 0.44657 0.58033 0.0
H64 H 0.96038 0.40663 0.63192 0.0
H65 H 0.94071 0.4779 0.59317 0.0
H66 H 0.91707 0.47256 0.62013 0.0
H67 H 0.92695 0.43519 0.57436 0.0
H68 H 0.91014 0.4069 0.55216 0.0
H69 H 5e-05 0.42811 0.55186 0.0
H70 H 0.98253 0.4017 0.5278 0.0
H71 H 0.0195 0.46475 0.59358 0.0
H72 H 0.95653 0.4832 0.55966 0.0
H73 H 0.03684 0.50623 0.58992 0.0
H74 H 0.97445 0.52441 0.55492 0.0
H75 H 0.09465 0.60576 0.58428 0.0
H76 H 0.1161 0.62221 0.611 0.0
H77 H 0.04959 0.66239 0.62558 0.0
H78 H 0.02745 0.64462 0.59915 0.0
H79 H 0.044 0.66585 0.5656 0.0
H80 H 0.074 0.69016 0.54992 0.0
H81 H 0.10934 0.62199 0.53135 0.0
H82 H 0.08029 0.59798 0.54809 0.0
H83 H 0.07386 0.57376 0.57167 0.0
H84 H 0.05653 0.53219 0.57051 0.0
H85 H 0.98197 0.56331 0.56924 0.0
N86 N 0.04741 0.61805 0.57279 0.0
H87 H -0.00021 0.60529 0.56908 0.0
C88 C 0.96412 0.4453 0.59697 0.0
C89 C 0.96939 0.42538 0.60815 0.0
C90 C 0.95591 0.4223 0.62359 0.0
C91 C 0.93675 0.4391 0.62814 0.0
C92 C 0.9319 0.45947 0.61714 0.0
C93 C 0.94543 0.46256 0.6017 0.0
C94 C 0.96523 0.43327 0.5653 0.0
C95 C 0.93947 0.42804 0.56441 0.0
C96 C 0.92959 0.41193 0.55122 0.0
C97 C 0.94486 0.40137 0.53799 0.0
C98 C 0.97018 0.40853 0.538 0.0
C99 C 0.98027 0.42394 0.55166 0.0
C100 C 0.987 0.47081 0.57679 0.0
C101 C 0.00971 0.4777 0.58505 0.0
C102 C 0.01966 0.50139 0.58277 0.0
C103 C 0.00725 0.51872 0.57192 0.0
C104 C 0.98446 0.51168 0.56349 0.0
C105 C 0.97429 0.48802 0.56602 0.0
C106 C 0.05908 0.62342 0.58993 0.0
C107 C 0.08411 0.61687 0.59364 0.0
C108 C 0.09651 0.62653 0.60882 0.0
C109 C 0.08433 0.64334 0.62024 0.0
C110 C 0.05915 0.6492 0.61697 0.0
C111 C 0.04655 0.63905 0.60199 0.0
C112 C 0.05998 0.6301 0.55855 0.0
C113 C 0.05778 0.65611 0.55771 0.0
C114 C 0.0751 0.67004 0.54864 0.0
C115 C 0.09475 0.65818 0.53963 0.0
C116 C 0.09516 0.6319 0.53872 0.0
C117 C 0.07817 0.61798 0.54825 0.0
C118 C 0.0381 0.59293 0.57018 0.0
C119 C 0.05383 0.57191 0.57063 0.0
C120 C 0.04379 0.54789 0.57025 0.0
C121 C 0.01778 0.54422 0.57004 0.0
C122 C 0.00208 0.56527 0.56916 0.0
C123 C 0.01221 0.58932 0.56914 0.0
H124 H 0.63728 0.45639 0.85636 0.0
N125 N 0.60029 0.46585 0.83343 0.0
H126 H 0.63596 0.43107 0.88288 0.0
H127 H 0.55931 0.44125 0.84549 0.0
H128 H 0.55737 0.41713 0.87238 0.0
H129 H 0.58179 0.42266 0.8179 0.0
H130 H 0.60042 0.3992 0.7931 0.0
H131 H 0.63652 0.48079 0.81292 0.0
H132 H 0.65487 0.45782 0.78794 0.0
H133 H 0.60863 0.51309 0.84268 0.0
H134 H 0.55282 0.46378 0.81932 0.0
H135 H 0.5794 0.54796 0.84119 0.0
H136 H 0.52259 0.498 0.81902 0.0
H137 H 0.47311 0.65285 0.84823 0.0
H138 H 0.45463 0.66472 0.87673 0.0
H139 H 0.44229 0.58685 0.88723 0.0
H140 H 0.46099 0.57518 0.85897 0.0
H141 H 0.43649 0.57635 0.83202 0.0
H142 H 0.39859 0.58293 0.81448 0.0
H143 H 0.43445 0.64348 0.78789 0.0
H144 H 0.47162 0.63807 0.80691 0.0
H145 H 0.51583 0.59796 0.85634 0.0
H146 H 0.54497 0.56348 0.85551 0.0
H147 H 0.50995 0.53576 0.80653 0.0
N148 N 0.47733 0.60716 0.83382 0.0
H149 H 0.47972 0.56923 0.80794 0.0
C150 C 0.59846 0.45101 0.84905 0.0
C151 C 0.61982 0.44783 0.85984 0.0
C152 C 0.61892 0.43352 0.87507 0.0
C153 C 0.59646 0.42221 0.87993 0.0
C154 C 0.57504 0.42534 0.869 0.0
C155 C 0.57606 0.43943 0.85365 0.0
C156 C 0.60819 0.45327 0.81741 0.0
C157 C 0.59753 0.43057 0.81128 0.0
C158 C 0.60812 0.41723 0.7971 0.0
C159 C 0.62909 0.42668 0.78862 0.0
C160 C 0.63855 0.45018 0.79406 0.0
C161 C 0.62822 0.46326 0.80837 0.0
C162 C 0.58273 0.48592 0.83147 0.0
C163 C 0.58991 0.50985 0.83737 0.0
C164 C 0.57304 0.52965 0.83667 0.0
C165 C 0.54834 0.5258 0.83034 0.0
C166 C 0.54141 0.50179 0.82391 0.0
C167 C 0.55856 0.48207 0.82428 0.0
C168 C 0.46855 0.61324 0.85146 0.0
C169 C 0.46672 0.6384 0.85683 0.0
C170 C 0.45601 0.64511 0.87301 0.0
C171 C 0.44694 0.6267 0.88418 0.0
C172 C 0.44934 0.60144 0.87901 0.0
C173 C 0.45993 0.59475 0.8628 0.0
C174 C 0.45665 0.60728 0.82112 0.0
C175 C 0.43619 0.59106 0.82244 0.0
C176 C 0.41454 0.59466 0.81212 0.0
C177 C 0.41308 0.6141 0.79989 0.0
C178 C 0.43446 0.62887 0.79756 0.0
C179 C 0.45588 0.62564 0.80823 0.0
C180 C 0.49433 0.58593 0.83286 0.0
C181 C 0.51389 0.58417 0.84561 0.0
C182 C 0.53097 0.56456 0.84493 0.0
C183 C 0.52985 0.5466 0.83099 0.0
C184 C 0.51101 0.54879 0.81776 0.0
C185 C 0.49355 0.56819 0.81862 0.0
H186 H 0.52363 0.87487 0.11163 0.0
N187 N 0.51277 0.91167 0.08981 0.0
H188 H 0.51243 0.87205 0.14293 0.0
H189 H 0.49564 0.95036 0.11105 0.0
H190 H 0.48398 0.94741 0.142 0.0
H191 H 0.46622 0.9333 0.08994 0.0
H192 H 0.42784 0.9143 0.07777 0.0
H193 H 0.50918 0.87265 0.06749 0.0
H194 H 0.47075 0.85406 0.05464 0.0
H195 H 0.55893 0.90446 0.07916 0.0
H196 H 0.50103 0.96012 0.08209 0.0
H197 H 0.58704 0.93484 0.06666 0.0
H198 H 0.52948 0.99129 0.07126 0.0
H199 H 0.67058 0.07035 0.06406 0.0
H200 H 0.6789 0.09487 0.09109 0.0
H201 H 0.60724 0.07251 0.11098 0.0
H202 H 0.59795 0.05093 0.08302 0.0
H203 H 0.59594 0.08312 0.05051 0.0
H204 H 0.59923 0.11681 0.02941 0.0
H205 H 0.66161 0.07917 0.00519 0.0
H206 H 0.65793 0.04526 0.02627 0.0
H207 H 0.64007 0.00151 0.06864 0.0
H208 H 0.61133 0.96825 0.07546 0.0
H209 H 0.55157 0.00763 0.04838 0.0
N210 N 0.62939 0.0451 0.05465 0.0
H211 H 0.58001 0.04151 0.04278 0.0
C212 C 0.51036 0.91263 0.10887 0.0
C213 C 0.51567 0.89101 0.11836 0.0
C214 C 0.50928 0.88945 0.1362 0.0
C215 C 0.49716 0.90947 0.14478 0.0
C216 C 0.49313 0.93166 0.1356 0.0
C217 C 0.49987 0.93333 0.11785 0.0
C218 C 0.49062 0.90404 0.0799 0.0
C219 C 0.46755 0.91622 0.08209 0.0
C220 C 0.44558 0.90541 0.0751 0.0
C221 C 0.44643 0.88271 0.06541 0.0
C222 C 0.46967 0.87166 0.062 0.0
C223 C 0.49156 0.88219 0.06931 0.0
C224 C 0.52823 0.93015 0.08201 0.0
C225 C 0.55245 0.92339 0.07729 0.0
C226 C 0.56852 0.94089 0.07028 0.0
C227 C 0.56085 0.96582 0.0682 0.0
C228 C 0.53616 0.97233 0.07249 0.0
C229 C 0.5199 0.95458 0.07907 0.0
C230 C 0.6339 0.0584 0.07144 0.0
C231 C 0.65667 0.0709 0.07427 0.0
C232 C 0.66148 0.08471 0.08996 0.0
C233 C 0.64397 0.08564 0.10365 0.0
C234 C 0.62116 0.07286 0.10081 0.0
C235 C 0.61593 0.05995 0.08478 0.0
C236 C 0.62667 0.0616 0.03986 0.0
C237 C 0.60958 0.08156 0.04016 0.0
C238 C 0.6115 0.10081 0.02809 0.0
C239 C 0.63076 0.10061 0.01572 0.0
C240 C 0.64663 0.07977 0.01461 0.0
C241 C 0.64449 0.06037 0.02655 0.0
C242 C 0.61249 0.02411 0.05526 0.0
C243 C 0.62084 0.00273 0.06394 0.0
C244 C 0.60429 0.98363 0.06775 0.0
C245 C 0.57889 0.98515 0.0626 0.0
C246 C 0.5708 0.006 0.05298 0.0
C247 C 0.58729 0.02541 0.04953 0.0
H248 H 0.11549 0.53148 0.90675 0.0
N249 N 0.09179 0.55379 0.93341 0.0
H250 H 0.12405 0.54852 0.87754 0.0
H251 H 0.07336 0.59763 0.92022 0.0
H252 H 0.08205 0.61477 0.89133 0.0
H253 H 0.13665 0.54873 0.94837 0.0
H254 H 0.1571 0.57679 0.97053 0.0
H255 H 0.06975 0.59335 0.95063 0.0
H256 H 0.09069 0.62236 0.9721 0.0
H257 H 0.09145 0.51161 0.95089 0.0
H258 H 0.04275 0.56431 0.92507 0.0
H259 H 0.05572 0.48503 0.95664 0.0
H260 H 0.00713 0.53715 0.9296 0.0
H261 H 0.94765 0.39368 0.92596 0.0
H262 H 0.93421 0.38168 0.8956 0.0
H263 H 0.91854 0.45903 0.88471 0.0
H264 H 0.93251 0.47085 0.915 0.0
H265 H 0.90736 0.47121 0.9415 0.0
H266 H 0.86847 0.4649 0.95656 0.0
H267 H 0.89856 0.39724 0.97895 0.0
H268 H 0.93825 0.40525 0.96513 0.0
H269 H 0.99519 0.42852 0.94006 0.0
H270 H 0.03001 0.45763 0.94022 0.0
H271 H 0.97884 0.51901 0.94895 0.0
N272 N 0.94718 0.4389 0.94102 0.0
H273 H 0.94412 0.48984 0.94787 0.0
C274 C 0.09408 0.56328 0.91576 0.0
C275 C 0.10784 0.5495 0.90331 0.0
C276 C 0.11264 0.55922 0.88667 0.0
C277 C 0.10387 0.58306 0.88225 0.0
C278 C 0.08931 0.59649 0.89449 0.0
C279 C 0.08433 0.58665 0.91105 0.0
C280 C 0.10201 0.56926 0.94767 0.0
C281 C 0.12638 0.56448 0.95378 0.0
C282 C 0.13793 0.5804 0.9664 0.0
C283 C 0.12534 0.60158 0.97288 0.0
C284 C 0.10063 0.60606 0.96721 0.0
C285 C 0.08882 0.58969 0.95488 0.0
C286 C 0.0699 0.53957 0.93724 0.0
C287 C 0.07299 0.51734 0.9464 0.0
C288 C 0.05256 0.50212 0.94954 0.0
C289 C 0.02851 0.50863 0.94329 0.0
C290 C 0.02529 0.53154 0.93472 0.0
C291 C 0.04576 0.54702 0.93189 0.0
C292 C 0.94099 0.433 0.92269 0.0
C293 C 0.94156 0.408 0.91691 0.0
C294 C 0.93374 0.40122 0.89965 0.0
C295 C 0.92512 0.41941 0.88783 0.0
C296 C 0.92525 0.44464 0.89348 0.0
C297 C 0.93308 0.4514 0.9108 0.0
C298 C 0.92609 0.43896 0.95253 0.0
C299 C 0.90615 0.4558 0.95042 0.0
C300 C 0.88353 0.45175 0.95874 0.0
C301 C 0.87995 0.43025 0.96876 0.0
C302 C 0.90045 0.41421 0.9716 0.0
C303 C 0.92327 0.41869 0.96367 0.0
C304 C 0.96704 0.45675 0.94402 0.0
C305 C 0.99159 0.44823 0.94231 0.0
C306 C 0.01149 0.46498 0.94249 0.0
C307 C 0.00734 0.49081 0.94461 0.0
C308 C 0.98273 0.49931 0.947 0.0
C309 C 0.96274 0.48249 0.94657 0.0
H310 H 0.53041 0.35724 0.18459 0.0
N311 N 0.53442 0.4038 0.19702 0.0
H312 H 0.5519 0.33852 0.15913 0.0
H313 H 0.55887 0.42958 0.17154 0.0
H314 H 0.58015 0.41108 0.14617 0.0
H315 H 0.57968 0.42709 0.20166 0.0
H316 H 0.61387 0.41258 0.22075 0.0
H317 H 0.53036 0.37342 0.22399 0.0
H318 H 0.56455 0.35831 0.24286 0.0
H319 H 0.48538 0.40176 0.19928 0.0
H320 H 0.5463 0.45364 0.19567 0.0
H321 H 0.45561 0.4362 0.19808 0.0
H322 H 0.5168 0.48804 0.19311 0.0
H323 H 0.36267 0.54448 0.17752 0.0
H324 H 0.3453 0.55577 0.14831 0.0
H325 H 0.41997 0.56419 0.12897 0.0
H326 H 0.43721 0.55213 0.15801 0.0
H327 H 0.44106 0.58298 0.18079 0.0
H328 H 0.44072 0.62384 0.19539 0.0
H329 H 0.38842 0.59684 0.2334 0.0
H330 H 0.38752 0.5563 0.21767 0.0
H331 H 0.40719 0.49661 0.17555 0.0
H332 H 0.43794 0.46345 0.17792 0.0
H333 H 0.4877 0.51374 0.20739 0.0
N334 N 0.41048 0.54357 0.18782 0.0
H335 H 0.45775 0.54717 0.20403 0.0
C336 C 0.5429 0.39473 0.18001 0.0
C337 C 0.54067 0.36916 0.17594 0.0
C338 C 0.55307 0.35852 0.16151 0.0
C339 C 0.56782 0.37336 0.1508 0.0
C340 C 0.56874 0.39926 0.15414 0.0
C341 C 0.55653 0.40986 0.16871 0.0
C342 C 0.5524 0.40121 0.21139 0.0
C343 C 0.57589 0.41288 0.21117 0.0
C344 C 0.59555 0.40435 0.22198 0.0
C345 C 0.59209 0.38399 0.23311 0.0
C346 C 0.56791 0.37414 0.23457 0.0
C347 C 0.54829 0.38272 0.22379 0.0
C348 C 0.51794 0.425 0.19729 0.0
C349 C 0.49227 0.42064 0.19812 0.0
C350 C 0.47531 0.44036 0.19721 0.0
C351 C 0.48367 0.46499 0.19512 0.0
C352 C 0.50959 0.46941 0.19479 0.0
C353 C 0.52658 0.44963 0.19605 0.0
C354 C 0.4011 0.54771 0.16998 0.0
C355 C 0.37523 0.54834 0.16686 0.0
C356 C 0.36539 0.55475 0.15023 0.0
C357 C 0.38135 0.56098 0.13649 0.0
C358 C 0.40731 0.55968 0.13943 0.0
C359 C 0.41714 0.55284 0.15599 0.0
C360 C 0.41379 0.56668 0.19792 0.0
C361 C 0.42942 0.58582 0.1922 0.0
C362 C 0.42949 0.6092 0.2008 0.0
C363 C 0.41431 0.61389 0.21552 0.0
C364 C 0.39987 0.59419 0.22184 0.0
C365 C 0.39951 0.5709 0.21302 0.0
C366 C 0.42991 0.52476 0.1892 0.0
C367 C 0.42489 0.50064 0.18228 0.0
C368 C 0.44243 0.48154 0.18389 0.0
C369 C 0.46537 0.48575 0.19298 0.0
C370 C 0.47046 0.50984 0.20004 0.0
C371 C 0.45304 0.52913 0.19814 0.0
H372 H 0.4 0.00953 0.41474 0.0
N373 N 0.4249 0.00822 0.44571 0.0
H374 H 0.39342 0.97504 0.39302 0.0
H375 H 0.44616 0.96164 0.44701 0.0
H376 H 0.43944 0.92729 0.42563 0.0
H377 H 0.44765 0.98447 0.47355 0.0
H378 H 0.42539 0.96507 0.49785 0.0
H379 H 0.37929 0.01944 0.45595 0.0
H380 H 0.35732 0.00141 0.48066 0.0
H381 H 0.42281 0.05758 0.44677 0.0
H382 H 0.47456 0.99613 0.44341 0.0
H383 H 0.45664 0.08685 0.44175 0.0
H384 H 0.50814 0.02487 0.43703 0.0
H385 H 0.56268 0.16526 0.39571 0.0
H386 H 0.58497 0.16579 0.36781 0.0
H387 H 0.60214 0.0874 0.37293 0.0
H388 H 0.58 0.08725 0.40105 0.0
H389 H 0.60421 0.10467 0.42677 0.0
H390 H 0.63683 0.12034 0.44714 0.0
H391 H 0.59169 0.18525 0.45921 0.0
H392 H 0.55859 0.16883 0.43913 0.0
H393 H 0.51201 0.12922 0.40991 0.0
H394 H 0.47986 0.09971 0.418 0.0
H395 H 0.5357 0.05648 0.44615 0.0
N396 N 0.56028 0.12822 0.41818 0.0
H397 H 0.56776 0.08504 0.43696 0.0
C398 C 0.42329 0.98821 0.43255 0.0
C399 C 0.40889 0.99169 0.41703 0.0
C400 C 0.40522 0.97204 0.40467 0.0
C401 C 0.4158 0.94847 0.40775 0.0
C402 C 0.43081 0.94518 0.42307 0.0
C403 C 0.43466 0.96489 0.43531 0.0
C404 C 0.41481 0.00281 0.46271 0.0
C405 C 0.42806 0.98857 0.47524 0.0
C406 C 0.41541 0.97766 0.48915 0.0
C407 C 0.38965 0.98168 0.49103 0.0
C408 C 0.37721 0.99817 0.47962 0.0
C409 C 0.38968 0.00846 0.4655 0.0
C410 C 0.446 0.02474 0.44517 0.0
C411 C 0.44155 0.05046 0.44502 0.0
C412 C 0.46088 0.06709 0.44187 0.0
C413 C 0.48512 0.05827 0.43847 0.0
C414 C 0.48981 0.03246 0.43959 0.0
C415 C 0.47049 0.01587 0.44312 0.0
C416 C 0.56971 0.12634 0.40043 0.0
C417 C 0.57076 0.14808 0.39055 0.0
C418 C 0.58346 0.14829 0.3746 0.0
C419 C 0.59546 0.12664 0.36815 0.0
C420 C 0.59337 0.10446 0.37765 0.0
C421 C 0.58057 0.10428 0.39365 0.0
C422 C 0.57882 0.1356 0.43149 0.0
C423 C 0.60107 0.12204 0.434 0.0
C424 C 0.61987 0.13117 0.44555 0.0
C425 C 0.61699 0.15419 0.45467 0.0
C426 C 0.59441 0.16734 0.45254 0.0
C427 C 0.57552 0.15806 0.44106 0.0
C428 C 0.54223 0.10972 0.42294 0.0
C429 C 0.51725 0.11326 0.41774 0.0
C430 C 0.49887 0.09649 0.4226 0.0
C431 C 0.50499 0.07583 0.43306 0.0
C432 C 0.5302 0.07204 0.43803 0.0
C433 C 0.54867 0.08862 0.43287 0.0
H434 H 0.0535 0.87935 0.6626 0.0
N435 N 0.05284 0.91556 0.68739 0.0
H436 H 0.07321 0.87999 0.63358 0.0
H437 H 0.08072 0.95367 0.67459 0.0
H438 H 0.10102 0.95431 0.64597 0.0
H439 H 0.10131 0.92754 0.69733 0.0
H440 H 0.12536 0.90957 0.7215 0.0
H441 H 0.03581 0.88803 0.71329 0.0
H442 H 0.05925 0.8715 0.73861 0.0
H443 H 0.00474 0.90769 0.68085 0.0
H444 H 0.05711 0.96376 0.6998 0.0
H445 H 0.97075 0.93795 0.68264 0.0
H446 H 0.02353 0.99486 0.70056 0.0
H447 H 0.87172 0.04783 0.66905 0.0
H448 H 0.86239 0.06621 0.64009 0.0
H449 H 0.94133 0.07461 0.63159 0.0
H450 H 0.95055 0.05654 0.66054 0.0
H451 H 0.95302 0.07861 0.6891 0.0
H452 H 0.9472 0.12065 0.70161 0.0
H453 H 0.8734 0.10009 0.71805 0.0
H454 H 0.87974 0.05797 0.70595 0.0
H455 H 0.92378 0.00245 0.66426 0.0
H456 H 0.95689 0.97193 0.6663 0.0
H457 H 0.98574 0.00903 0.71416 0.0
N458 N 0.91631 0.04309 0.68506 0.0
H459 H 0.95314 0.04034 0.71176 0.0
C460 C 0.06561 0.91635 0.67075 0.0
C461 C 0.06393 0.8957 0.659 0.0
C462 C 0.07531 0.8961 0.64248 0.0
C463 C 0.08872 0.91723 0.6374 0.0
C464 C 0.09051 0.93789 0.6493 0.0
C465 C 0.079 0.9375 0.66577 0.0
C466 C 0.06681 0.90846 0.7031 0.0
C467 C 0.09189 0.91536 0.7062 0.0
C468 C 0.10564 0.90527 0.72034 0.0
C469 C 0.09447 0.88862 0.73198 0.0
C470 C 0.06879 0.88357 0.72966 0.0
C471 C 0.05526 0.89315 0.71528 0.0
C472 C 0.03333 0.93364 0.68982 0.0
C473 C 0.00881 0.92665 0.68534 0.0
C474 C 0.98951 0.94406 0.68623 0.0
C475 C 0.99444 0.96905 0.69137 0.0
C476 C 0.01902 0.9758 0.69656 0.0
C477 C 0.03831 0.95816 0.69593 0.0
C478 C 0.91171 0.0507 0.66695 0.0
C479 C 0.88696 0.05325 0.66078 0.0
C480 C 0.8817 0.06384 0.64435 0.0
C481 C 0.90117 0.07184 0.6337 0.0
C482 C 0.92601 0.06839 0.6395 0.0
C483 C 0.93127 0.05813 0.65605 0.0
C484 C 0.91669 0.0651 0.69658 0.0
C485 C 0.93595 0.08291 0.69595 0.0
C486 C 0.93248 0.10704 0.70295 0.0
C487 C 0.90964 0.11392 0.71052 0.0
C488 C 0.8913 0.09547 0.71244 0.0
C489 C 0.89487 0.07132 0.70557 0.0
C490 C 0.93647 0.02502 0.68707 0.0
C491 C 0.93747 0.00451 0.67503 0.0
C492 C 0.95629 0.98667 0.67639 0.0
C493 C 0.97422 0.98808 0.69032 0.0
C494 C 0.97266 0.00777 0.70297 0.0
C495 C 0.95388 0.02588 0.7015 0.0
Zn496 Zn 0.30468 0.73189 0.98859 0.0
Zn497 Zn 0.32022 0.70231 0.01625 0.0
O498 O 0.28282 0.69652 0.01403 0.0
O499 O 0.26893 0.71986 0.99228 0.0
O500 O 0.33068 0.67877 0.03551 0.0
O501 O 0.31984 0.76108 0.00309 0.0
O502 O 0.33009 0.73703 0.02556 0.0
C503 C 0.26487 0.70429 0.00429 0.0
C504 C 0.34126 0.69475 0.97873 0.0
O505 O 0.34029 0.68961 0.99512 0.0
O506 O 0.32752 0.71182 0.97241 0.0
C507 C 0.32269 0.65644 0.03406 0.0
O508 O 0.30834 0.64999 0.02029 0.0
C509 C 0.32917 0.75842 0.01858 0.0
Zn510 Zn 0.33245 0.80701 0.28522 0.0
Zn511 Zn 0.36525 0.83632 0.268 0.0
O512 O 0.33129 0.85124 0.26063 0.0
O513 O 0.30447 0.82669 0.27344 0.0
O514 O 0.3913 0.85484 0.25462 0.0
O515 O 0.3459 0.77587 0.27319 0.0
O516 O 0.37297 0.80006 0.2604 0.0
C517 C 0.30887 0.84521 0.26384 0.0
C518 C 0.36567 0.83683 0.30848 0.0
O519 O 0.37371 0.84478 0.29389 0.0
O520 O 0.34866 0.82036 0.30846 0.0
C521 C 0.38696 0.86634 0.2403 0.0
O522 O 0.36393 0.86767 0.23396 0.0
C523 C 0.3643 0.77842 0.26316 0.0
Zn524 Zn 0.2404 0.82087 0.48845 0.0
Zn525 Zn 0.2077 0.84816 0.50772 0.0
O526 O 0.2417 0.8643 0.51375 0.0
O527 O 0.26873 0.84306 0.49784 0.0
O528 O 0.18503 0.86432 0.52559 0.0
O529 O 0.23154 0.78866 0.50031 0.0
O530 O 0.20185 0.81117 0.51253 0.0
C531 C 0.26401 0.86073 0.50876 0.0
C532 C 0.20045 0.8471 0.4682 0.0
O533 O 0.19427 0.85685 0.48307 0.0
O534 O 0.21825 0.83148 0.46737 0.0
C535 C 0.17887 0.88721 0.52646 0.0
O536 O 0.18695 0.90246 0.51447 0.0
C537 C 0.21206 0.79008 0.50946 0.0
Zn538 Zn 0.23143 0.73069 0.74065 0.0
Zn539 Zn 0.19997 0.70015 0.75758 0.0
O540 O 0.19111 0.73587 0.76611 0.0
O541 O 0.21993 0.76026 0.75547 0.0
O542 O 0.17841 0.67782 0.77191 0.0
O543 O 0.26117 0.71024 0.74873 0.0
O544 O 0.23499 0.68598 0.76236 0.0
C545 C 0.2007 0.75747 0.76467 0.0
C546 C 0.1936 0.70481 0.71795 0.0
O547 O 0.18778 0.69414 0.73217 0.0
O548 O 0.21085 0.72106 0.71814 0.0
C549 C 0.17591 0.68209 0.78847 0.0
O550 O 0.18701 0.70165 0.796 0.0
C551 C 0.25713 0.69143 0.75808 0.0
Zn552 Zn 0.81644 0.22877 0.53166 0.0
Zn553 Zn 0.83253 0.20254 0.50266 0.0
O554 O 0.85032 0.23613 0.50073 0.0
O555 O 0.83546 0.25869 0.523 0.0
O556 O 0.84398 0.1829 0.48123 0.0
O557 O 0.78077 0.22298 0.52344 0.0
O558 O 0.79424 0.2026 0.49974 0.0
C559 C 0.84918 0.25667 0.50955 0.0
C560 C 0.84487 0.18433 0.54002 0.0
O561 O 0.84576 0.18191 0.52318 0.0
O562 O 0.83368 0.20282 0.54705 0.0
C563 C 0.8672 0.18107 0.47836 0.0
O564 O 0.88319 0.19231 0.4894 0.0
C565 C 0.77629 0.211 0.50898 0.0
Zn566 Zn 0.80688 0.3028 0.77058 0.0
Zn567 Zn 0.82442 0.33163 0.74441 0.0
O568 O 0.78673 0.3384 0.74323 0.0
O569 O 0.77191 0.31452 0.76389 0.0
O570 O 0.83832 0.35209 0.72492 0.0
O571 O 0.82246 0.27229 0.75884 0.0
O572 O 0.83644 0.29629 0.73796 0.0
C573 C 0.76833 0.33036 0.75185 0.0
C574 C 0.841 0.3417 0.78311 0.0
O575 O 0.8415 0.34672 0.76669 0.0
O576 O 0.82774 0.32381 0.78826 0.0
C577 C 0.8389 0.37579 0.72615 0.0
O578 O 0.8294 0.38708 0.74014 0.0
C579 C 0.83466 0.27487 0.74478 0.0
Zn580 Zn 0.71488 0.30157 0.03044 0.0
Zn581 Zn 0.67818 0.32479 0.01165 0.0
O582 O 0.67505 0.28804 0.00364 0.0
O583 O 0.7065 0.26915 0.01701 0.0
O584 O 0.65393 0.3423 0.99533 0.0
O585 O 0.74096 0.32544 0.02166 0.0
O586 O 0.7107 0.34266 0.00595 0.0
C587 C 0.68751 0.26827 0.00662 0.0
C588 C 0.67468 0.32319 0.05172 0.0
O589 O 0.6659 0.33089 0.03694 0.0
O590 O 0.69473 0.31058 0.05224 0.0
C591 C 0.63418 0.33235 0.98866 0.0
O592 O 0.62766 0.30999 0.99361 0.0
C593 C 0.73365 0.34161 0.01071 0.0
Zn594 Zn 0.74681 0.22383 0.21581 0.0
Zn595 Zn 0.72756 0.19943 0.24352 0.0
O596 O 0.71512 0.23518 0.24779 0.0
O597 O 0.72879 0.25506 0.2247 0.0
O598 O 0.71351 0.18071 0.2639 0.0
O599 O 0.78162 0.21542 0.22464 0.0
O600 O 0.76559 0.19395 0.24616 0.0
C601 C 0.71658 0.25504 0.23894 0.0
C602 C 0.71363 0.18373 0.20506 0.0
O603 O 0.71067 0.18227 0.22174 0.0
O604 O 0.72885 0.19924 0.19899 0.0
C605 C 0.69022 0.18185 0.26672 0.0
O606 O 0.67591 0.1954 0.2563 0.0
C607 C 0.78455 0.20154 0.2379 0.0
H608 H 0.16701 0.8801 0.26561 0.0
H609 H 0.19181 0.95673 0.27439 0.0
H610 H 0.23336 0.94504 0.2639 0.0
H611 H 0.21775 0.85533 0.28607 0.0
H612 H 0.21963 0.82757 0.2721 0.0
H613 H 0.19015 0.84299 0.27481 0.0
H614 H 0.1853 0.84691 0.24062 0.0
H615 H 0.21493 0.83146 0.23781 0.0
H616 H 0.20957 0.86171 0.22849 0.0
H617 H 0.27408 0.92406 0.25748 0.0
H618 H 0.31029 0.89551 0.25888 0.0
H619 H 0.26009 0.83208 0.25814 0.0
C620 C 0.18095 0.89464 0.26515 0.0
C621 C 0.17577 0.91943 0.27091 0.0
C622 C 0.19477 0.93772 0.26972 0.0
C623 C 0.21863 0.93123 0.2638 0.0
C624 C 0.22338 0.90634 0.25919 0.0
C625 C 0.20503 0.88831 0.25986 0.0
C626 C 0.21577 0.86233 0.25743 0.0
C627 C 0.21053 0.84613 0.27356 0.0
C628 C 0.2058 0.84987 0.24005 0.0
C629 C 0.24324 0.86845 0.25628 0.0
C630 C 0.24718 0.89397 0.25658 0.0
C631 C 0.27119 0.90406 0.25694 0.0
C632 C 0.29166 0.88771 0.25769 0.0
C633 C 0.28792 0.86162 0.2586 0.0
C634 C 0.26343 0.85194 0.2573 0.0
H635 H 0.09361 0.70599 0.52655 0.0
H636 H 0.14452 0.64502 0.53843 0.0
H637 H 0.18002 0.67145 0.53093 0.0
H638 H 0.1282 0.73374 0.49123 0.0
H639 H 0.1212 0.76516 0.49868 0.0
H640 H 0.09959 0.74027 0.5026 0.0
H641 H 0.1013 0.75157 0.53633 0.0
H642 H 0.12313 0.77629 0.53256 0.0
H643 H 0.13105 0.75229 0.54808 0.0
H644 H 0.21049 0.70542 0.52318 0.0
H645 H 0.23291 0.74439 0.51638 0.0
H646 H 0.16221 0.78382 0.51344 0.0
C647 C 0.11213 0.698 0.5276 0.0
C648 C 0.11596 0.67316 0.53301 0.0
C649 C 0.14073 0.66366 0.53387 0.0
C650 C 0.16117 0.67866 0.52983 0.0
C651 C 0.15668 0.70326 0.52516 0.0
C652 C 0.13276 0.71286 0.52409 0.0
C653 C 0.13299 0.74036 0.52002 0.0
C654 C 0.11971 0.74515 0.50207 0.0
C655 C 0.12144 0.75604 0.53515 0.0
C656 C 0.16079 0.74477 0.51912 0.0
C657 C 0.17419 0.7231 0.52185 0.0
C658 C 0.20019 0.72254 0.52111 0.0
C659 C 0.21277 0.7447 0.51731 0.0
C660 C 0.19931 0.76711 0.51469 0.0
C661 C 0.17303 0.76707 0.51576 0.0
H662 H 0.39546 0.66053 0.79086 0.0
H663 H 0.37519 0.58192 0.78861 0.0
H664 H 0.33305 0.59317 0.77762 0.0
H665 H 0.33915 0.68484 0.80484 0.0
H666 H 0.33949 0.71186 0.79106 0.0
H667 H 0.36844 0.69773 0.79815 0.0
H668 H 0.38165 0.69225 0.76537 0.0
H669 H 0.35291 0.70676 0.75816 0.0
H670 H 0.36112 0.67621 0.74954 0.0
H671 H 0.29178 0.61351 0.76995 0.0
H672 H 0.25621 0.64099 0.76208 0.0
H673 H 0.30512 0.70544 0.76622 0.0
C674 C 0.38259 0.64546 0.78759 0.0
C675 C 0.38882 0.62028 0.79086 0.0
C676 C 0.37086 0.60142 0.7867 0.0
C677 C 0.34687 0.60759 0.78031 0.0
C678 C 0.34127 0.63264 0.77773 0.0
C679 C 0.35881 0.6512 0.78084 0.0
C680 C 0.34813 0.67672 0.77698 0.0
C681 C 0.34885 0.69378 0.79376 0.0
C682 C 0.36176 0.68868 0.76159 0.0
C683 C 0.32164 0.66966 0.77159 0.0
C684 C 0.31796 0.64417 0.77228 0.0
C685 C 0.29455 0.63344 0.76903 0.0
C686 C 0.27446 0.64917 0.76471 0.0
C687 C 0.27809 0.67522 0.76341 0.0
C688 C 0.30198 0.68552 0.76687 0.0
H689 H 0.43138 0.86406 0.03266 0.0
H690 H 0.41012 0.86949 0.08784 0.0
H691 H 0.37464 0.84096 0.08128 0.0
H692 H 0.36595 0.86024 0.0137 0.0
H693 H 0.37505 0.83867 0.99625 0.0
H694 H 0.39692 0.86174 0.00493 0.0
H695 H 0.42878 0.82667 0.01192 0.0
H696 H 0.407 0.80353 0.00342 0.0
H697 H 0.4197 0.8014 0.02575 0.0
H698 H 0.34662 0.80642 0.0699 0.0
H699 H 0.32442 0.77205 0.05349 0.0
H700 H 0.36108 0.79196 0.00515 0.0
C701 C 0.4188 0.8597 0.0432 0.0
C702 C 0.42323 0.86897 0.0607 0.0
C703 C 0.4067 0.86277 0.07429 0.0
C704 C 0.3866 0.84655 0.0707 0.0
C705 C 0.38304 0.83718 0.05338 0.0
C706 C 0.39833 0.84396 0.03975 0.0
C707 C 0.3911 0.83041 0.02249 0.0
C708 C 0.38169 0.84887 0.00852 0.0
C709 C 0.41294 0.81456 0.0155 0.0
C710 C 0.37009 0.81418 0.02871 0.0
C711 C 0.36576 0.8183 0.04659 0.0
C712 C 0.34925 0.80353 0.05578 0.0
C713 C 0.33684 0.78404 0.04643 0.0
C714 C 0.34073 0.77991 0.02807 0.0
C715 C 0.35726 0.79536 0.01908 0.0
H716 H 0.14059 0.64721 0.96327 0.0
H717 H 0.14327 0.59577 0.00667 0.0
H718 H 0.17441 0.62268 0.02267 0.0
H719 H 0.20227 0.65486 0.96132 0.0
H720 H 0.20248 0.6874 0.95579 0.0
H721 H 0.17562 0.66856 0.95014 0.0
H722 H 0.14735 0.69928 0.96762 0.0
H723 H 0.1742 0.71847 0.97321 0.0
H724 H 0.15493 0.70711 0.99057 0.0
H725 H 0.21034 0.64986 0.03094 0.0
H726 H 0.24913 0.67441 0.0307 0.0
H727 H 0.22448 0.70785 0.98132 0.0
C728 C 0.14688 0.64243 0.97655 0.0
C729 C 0.13923 0.61997 0.98408 0.0
C730 C 0.14863 0.61331 0.001 0.0
C731 C 0.16623 0.62849 0.01014 0.0
C732 C 0.17424 0.65014 0.00207 0.0
C733 C 0.16476 0.6572 0.98567 0.0
C734 C 0.17937 0.67882 0.97855 0.0
C735 C 0.1906 0.67198 0.96039 0.0
C736 C 0.16298 0.70232 0.97743 0.0
C737 C 0.19943 0.68184 0.99297 0.0
C738 C 0.19572 0.66559 0.00665 0.0
C739 C 0.21314 0.66308 0.02053 0.0
C740 C 0.2352 0.67704 0.02022 0.0
C741 C 0.23981 0.69314 0.00601 0.0
C742 C 0.2213 0.69607 0.99253 0.0
H743 H 0.37272 0.63687 0.22915 0.0
H744 H 0.45142 0.64941 0.21978 0.0
H745 H 0.44694 0.69312 0.23028 0.0
H746 H 0.3501 0.69549 0.21623 0.0
H747 H 0.32743 0.69825 0.23348 0.0
H748 H 0.33674 0.66785 0.22531 0.0
H749 H 0.34947 0.65517 0.2573 0.0
H750 H 0.33989 0.68542 0.26562 0.0
H751 H 0.37114 0.67441 0.27021 0.0
H752 H 0.43318 0.73623 0.24016 0.0
H753 H 0.41225 0.77423 0.25177 0.0
H754 H 0.34365 0.73225 0.25686 0.0
C755 C 0.38923 0.64852 0.22963 0.0
C756 C 0.4124 0.63956 0.22346 0.0
C757 C 0.43331 0.65584 0.22405 0.0
C758 C 0.43101 0.6807 0.2301 0.0
C759 C 0.40779 0.68894 0.23577 0.0
C760 C 0.38738 0.67321 0.23588 0.0
C761 C 0.36457 0.68655 0.24286 0.0
C762 C 0.34347 0.68706 0.22862 0.0
C763 C 0.35576 0.67468 0.26002 0.0
C764 C 0.37527 0.71233 0.24653 0.0
C765 C 0.40016 0.71341 0.24218 0.0
C766 C 0.41377 0.73554 0.2438 0.0
C767 C 0.4017 0.75703 0.2503 0.0
C768 C 0.3764 0.75611 0.2553 0.0
C769 C 0.36308 0.73345 0.25331 0.0
H770 H 0.38855 0.93124 0.49029 0.0
H771 H 0.35536 0.99619 0.51569 0.0
H772 H 0.32323 0.96933 0.52851 0.0
H773 H 0.3352 0.90645 0.47523 0.0
H774 H 0.34303 0.87401 0.47794 0.0
H775 H 0.36737 0.89647 0.47525 0.0
H776 H 0.38872 0.88321 0.5048 0.0
H777 H 0.36452 0.86033 0.50752 0.0
H778 H 0.37105 0.88335 0.5249 0.0
H779 H 0.29045 0.93734 0.53334 0.0
H780 H 0.25943 0.90358 0.52921 0.0
H781 H 0.3132 0.85957 0.49963 0.0
C782 C 0.37532 0.93954 0.49937 0.0
C783 C 0.3747 0.96562 0.50241 0.0
C784 C 0.35635 0.97615 0.51354 0.0
C785 C 0.33809 0.96102 0.52087 0.0
C786 C 0.33845 0.93543 0.51691 0.0
C787 C 0.35676 0.92473 0.50651 0.0
C788 C 0.35071 0.89776 0.50166 0.0
C789 C 0.34896 0.89345 0.48133 0.0
C790 C 0.36989 0.88012 0.51024 0.0
C791 C 0.32545 0.89536 0.51004 0.0
C792 C 0.31901 0.91703 0.51921 0.0
C793 C 0.29553 0.92008 0.52655 0.0
C794 C 0.27798 0.90079 0.52409 0.0
C795 C 0.28387 0.87887 0.51411 0.0
C796 C 0.3082 0.87594 0.50751 0.0
H797 H 0.0883 0.84017 0.74187 0.0
H798 H 0.1367 0.9044 0.75105 0.0
H799 H 0.16678 0.87789 0.76717 0.0
H800 H 0.10494 0.80875 0.78602 0.0
H801 H 0.10263 0.77846 0.77511 0.0
H802 H 0.08259 0.80356 0.768 0.0
H803 H 0.098 0.79738 0.7358 0.0
H804 H 0.11806 0.77252 0.74276 0.0
H805 H 0.13101 0.79886 0.73176 0.0
H806 H 0.19552 0.843 0.77504 0.0
H807 H 0.21907 0.80332 0.77513 0.0
H808 H 0.1505 0.76249 0.76405 0.0
C809 C 0.10454 0.84912 0.74802 0.0
C810 C 0.11004 0.87446 0.74501 0.0
C811 C 0.13213 0.88496 0.75283 0.0
C812 C 0.14923 0.8701 0.76225 0.0
C813 C 0.14369 0.84491 0.76422 0.0
C814 C 0.12154 0.83465 0.75768 0.0
C815 C 0.12126 0.80659 0.75956 0.0
C816 C 0.10169 0.79889 0.77298 0.0
C817 C 0.11685 0.79308 0.7414 0.0
C818 C 0.14746 0.80239 0.76685 0.0
C819 C 0.16001 0.82476 0.76978 0.0
C820 C 0.18566 0.82543 0.77351 0.0
C821 C 0.19892 0.80282 0.77353 0.0
C822 C 0.18646 0.77989 0.77001 0.0
C823 C 0.16029 0.77969 0.76751 0.0
H824 H 0.64392 0.37862 0.79262 0.0
H825 H 0.64772 0.44025 0.75663 0.0
H826 H 0.67899 0.41717 0.73902 0.0
H827 H 0.70501 0.36891 0.79622 0.0
H828 H 0.7044 0.33534 0.79732 0.0
H829 H 0.6778 0.35323 0.8041 0.0
H830 H 0.64944 0.32826 0.78165 0.0
H831 H 0.67604 0.31001 0.77485 0.0
H832 H 0.6575 0.3263 0.75853 0.0
H833 H 0.71544 0.39173 0.72927 0.0
H834 H 0.75404 0.3666 0.72849 0.0
H835 H 0.72661 0.32143 0.7709 0.0
C836 C 0.65041 0.38668 0.78051 0.0
C837 C 0.6432 0.41102 0.77582 0.0
C838 C 0.6529 0.42151 0.76035 0.0
C839 C 0.67056 0.40848 0.75023 0.0
C840 C 0.67819 0.38492 0.75569 0.0
C841 C 0.66818 0.37399 0.77039 0.0
C842 C 0.68214 0.3504 0.77515 0.0
C843 C 0.69298 0.3521 0.79432 0.0
C844 C 0.66527 0.32738 0.77237 0.0
C845 C 0.70251 0.35061 0.76157 0.0
C846 C 0.69956 0.37028 0.75016 0.0
C847 C 0.71761 0.37589 0.73782 0.0
C848 C 0.73954 0.36153 0.7375 0.0
C849 C 0.74335 0.34196 0.74959 0.0
C850 C 0.72413 0.33598 0.76129 0.0
H851 H 0.67581 0.1234 0.01516 0.0
H852 H 0.59895 0.13094 0.99682 0.0
H853 H 0.60806 0.17352 0.9867 0.0
H854 H 0.68015 0.18008 0.03456 0.0
H855 H 0.7122 0.18625 0.02938 0.0
H856 H 0.7016 0.15463 0.03079 0.0
H857 H 0.7164 0.14494 0.99881 0.0
H858 H 0.72729 0.17664 0.99732 0.0
H859 H 0.70556 0.164 0.98078 0.0
H860 H 0.62363 0.2172 0.98339 0.0
H861 H 0.64318 0.25844 0.98873 0.0
H862 H 0.7096 0.22254 0.01024 0.0
C863 C 0.66122 0.13357 0.00822 0.0
C864 C 0.63682 0.12377 0.0064 0.0
C865 C 0.61784 0.13806 0.99809 0.0
C866 C 0.6229 0.16217 0.99224 0.0
C867 C 0.64702 0.17167 0.99483 0.0
C868 C 0.6659 0.15771 0.00257 0.0
C869 C 0.68902 0.17333 0.0065 0.0
C870 C 0.69613 0.17359 0.02648 0.0
C871 C 0.71086 0.16418 0.99517 0.0
C872 C 0.67979 0.19858 0.00065 0.0
C873 C 0.65579 0.19714 0.99348 0.0
C874 C 0.64258 0.21846 0.98866 0.0
C875 C 0.65387 0.24185 0.99176 0.0
C876 C 0.67795 0.24376 -8e-05 0.0
C877 C 0.69129 0.22173 0.00382 0.0
H878 H 0.88798 0.13163 0.29652 0.0
H879 H 0.94286 0.15601 0.25914 0.0
H880 H 0.90961 0.17749 0.2421 0.0
H881 H 0.83843 0.11944 0.26386 0.0
H882 H 0.81421 0.13022 0.27839 0.0
H883 H 0.8424 0.11686 0.28761 0.0
H884 H 0.8496 0.15685 0.30716 0.0
H885 H 0.82153 0.17042 0.29792 0.0
H886 H 0.85083 0.18676 0.29676 0.0
H887 H 0.87055 0.19678 0.22943 0.0
H888 H 0.82823 0.21134 0.22131 0.0
H889 H 0.79863 0.17333 0.26655 0.0
C890 C 0.89301 0.14115 0.28461 0.0
C891 C 0.91809 0.14211 0.27918 0.0
C892 C 0.92386 0.15525 0.26369 0.0
C893 C 0.90509 0.16741 0.25388 0.0
C894 C 0.88063 0.1662 0.25969 0.0
C895 C 0.87453 0.1533 0.27463 0.0
C896 C 0.8468 0.15485 0.27804 0.0
C897 C 0.83476 0.12879 0.2769 0.0
C898 C 0.84192 0.16801 0.29603 0.0
C899 C 0.83825 0.1707 0.26267 0.0
C900 C 0.85807 0.17711 0.25229 0.0
C901 C 0.85487 0.19182 0.23743 0.0
C902 C 0.83073 0.20005 0.23295 0.0
C903 C 0.81004 0.19348 0.24328 0.0
C904 C 0.81399 0.17867 0.25837 0.0
H905 H 0.89603 0.39361 0.526 0.0
H906 H 0.97066 0.36204 0.52238 0.0
H907 H 0.95313 0.32493 0.50721 0.0
H908 H 0.87198 0.34142 0.5421 0.0
H909 H 0.84141 0.3439 0.53171 0.0
H910 H 0.85964 0.37151 0.5362 0.0
H911 H 0.8561 0.38288 0.50295 0.0
H912 H 0.8377 0.35518 0.49834 0.0
H913 H 0.86563 0.36055 0.48611 0.0
H914 H 0.92766 0.2879 0.49775 0.0
H915 H 0.89694 0.25353 0.49813 0.0
H916 H 0.83921 0.30641 0.51268 0.0
C917 C 0.90893 0.37918 0.52187 0.0
C918 C 0.93491 0.38119 0.52561 0.0
C919 C 0.95079 0.36172 0.51946 0.0
C920 C 0.94096 0.34028 0.51081 0.0
C921 C 0.91515 0.33828 0.50851 0.0
C922 C 0.89933 0.35722 0.51396 0.0
C923 C 0.87238 0.34865 0.5135 0.0
C924 C 0.8607 0.35153 0.53197 0.0
C925 C 0.85705 0.36265 0.49938 0.0
C926 C 0.8757 0.3215 0.50806 0.0
C927 C 0.90034 0.31617 0.5044 0.0
C928 C 0.90825 0.29193 0.50028 0.0
C929 C 0.8907 0.27254 0.50052 0.0
C930 C 0.86582 0.27747 0.50544 0.0
C931 C 0.85813 0.30229 0.50875 0.0
H932 H 0.66681 0.15342 0.44719 0.0
H933 H 0.61461 0.17942 0.48688 0.0
H934 H 0.64961 0.19806 0.50463 0.0
H935 H 0.71572 0.13623 0.47809 0.0
H936 H 0.74039 0.14597 0.46395 0.0
H937 H 0.71111 0.13531 0.45426 0.0
H938 H 0.70655 0.1768 0.43748 0.0
H939 H 0.73575 0.18766 0.44721 0.0
H940 H 0.70783 0.20606 0.44985 0.0
H941 H 0.69035 0.21357 0.51805 0.0
H942 H 0.73391 0.22378 0.52672 0.0
H943 H 0.75939 0.1865 0.4785 0.0
C944 C 0.6627 0.16276 0.45972 0.0
C945 C 0.63793 0.16493 0.46566 0.0
C946 C 0.63339 0.17777 0.48196 0.0
C947 C 0.65314 0.18832 0.49216 0.0
C948 C 0.6773 0.18583 0.48587 0.0
C949 C 0.68215 0.17328 0.47007 0.0
C950 C 0.70979 0.17292 0.46638 0.0
C951 C 0.71984 0.14601 0.46563 0.0
C952 C 0.7153 0.18668 0.44921 0.0
C953 C 0.7198 0.18717 0.48263 0.0
C954 C 0.70075 0.19456 0.49367 0.0
C955 C 0.70542 0.20789 0.50952 0.0
C956 C 0.73025 0.21363 0.51431 0.0
C957 C 0.75011 0.20594 0.5033 0.0
C958 C 0.74467 0.19267 0.48721 0.0
H959 H 0.88293 0.134 0.73833 0.0
H960 H 0.92181 0.15417 0.69079 0.0
H961 H 0.90788 0.1977 0.69487 0.0
H962 H 0.82955 0.17084 0.73013 0.0
H963 H 0.82503 0.17976 0.75309 0.0
H964 H 0.84007 0.1506 0.74758 0.0
H965 H 0.87858 0.16337 0.76728 0.0
H966 H 0.86354 0.19246 0.77302 0.0
H967 H 0.8941 0.19253 0.76352 0.0
H968 H 0.88724 0.23836 0.70278 0.0
H969 H 0.86318 0.27388 0.715 0.0
H970 H 0.8368 0.22697 0.75689 0.0
C971 C 0.88874 0.1476 0.72887 0.0
C972 C 0.90368 0.14061 0.71433 0.0
C973 C 0.91087 0.15908 0.70228 0.0
C974 C 0.90285 0.18385 0.70438 0.0
C975 C 0.88764 0.18993 0.71859 0.0
C976 C 0.88082 0.1724 0.73072 0.0
C977 C 0.86357 0.18361 0.74444 0.0
C978 C 0.83805 0.17041 0.74376 0.0
C979 C 0.87568 0.18296 0.76317 0.0
C980 C 0.86147 0.21006 0.73795 0.0
C981 C 0.87556 0.21334 0.72306 0.0
C982 C 0.87626 0.23608 0.71451 0.0
C983 C 0.86244 0.25612 0.72152 0.0
C984 C 0.84806 0.25325 0.7369 0.0
C985 C 0.84755 0.22981 0.74511 0.0
H986 H 0.86693 0.40409 0.99846 0.0
H987 H 0.835 0.43889 0.9515 0.0
H988 H 0.79361 0.42334 0.95894 0.0
H989 H 0.83324 0.34851 0.99254 0.0
H990 H 0.82916 0.34347 0.01589 0.0
H991 H 0.85573 0.36072 0.00873 0.0
H992 H 0.84354 0.39816 0.02923 0.0
H993 H 0.81696 0.38094 0.03655 0.0
H994 H 0.81265 0.41135 0.02723 0.0
H995 H 0.75625 0.40109 0.96976 0.0
H996 H 0.7258 0.37297 0.98299 0.0
H997 H 0.78241 0.34987 0.02151 0.0
C998 C 0.85128 0.40869 0.98977 0.0
C999 C 0.85449 0.4231 0.97448 0.0
C1000 C 0.83324 0.42863 0.9636 0.0
C1001 C 0.80954 0.41966 0.96762 0.0
C1002 C 0.80727 0.40499 0.98248 0.0
C1003 C 0.82754 0.39951 0.9934 0.0
C1004 C 0.82044 0.3815 0.00763 0.0
C1005 C 0.83554 0.35711 0.00609 0.0
C1006 C 0.82358 0.39373 0.02627 0.0
C1007 C 0.79315 0.37729 0.00273 0.0
C1008 C 0.78584 0.39132 0.98836 0.0
C1009 C 0.76168 0.39013 0.9811 0.0
C1010 C 0.74453 0.37407 0.9887 0.0
C1011 C 0.75171 0.35916 0.00326 0.0
C1012 C 0.77634 0.36098 0.01038 0.0
H1013 H 0.63558 0.37302 0.21661 0.0
H1014 H 0.59708 0.36231 0.26588 0.0
H1015 H 0.62942 0.33195 0.27505 0.0
H1016 H 0.64856 0.31291 0.20807 0.0
H1017 H 0.67894 0.3173 0.19884 0.0
H1018 H 0.65624 0.34193 0.19789 0.0
H1019 H 0.68723 0.37236 0.21414 0.0
H1020 H 0.7103 0.34785 0.21495 0.0
H1021 H 0.70133 0.36392 0.23515 0.0
H1022 H 0.66132 0.29748 0.27618 0.0
H1023 H 0.69054 0.26294 0.2696 0.0
H1024 H 0.7085 0.29714 0.21983 0.0
C1025 C 0.63455 0.36527 0.22972 0.0
C1026 C 0.61391 0.37026 0.2406 0.0
C1027 C 0.61274 0.3588 0.25733 0.0
C1028 C 0.6311 0.34163 0.26268 0.0
C1029 C 0.65064 0.33634 0.25125 0.0
C1030 C 0.65265 0.34814 0.23522 0.0
C1031 C 0.67358 0.33714 0.22436 0.0
C1032 C 0.66373 0.3267 0.20623 0.0
C1033 C 0.69434 0.35647 0.22202 0.0
C1034 C 0.68227 0.31648 0.23636 0.0
C1035 C 0.66911 0.31653 0.25195 0.0
C1036 C 0.67216 0.29764 0.26424 0.0
C1037 C 0.68875 0.27804 0.26035 0.0
C1038 C 0.70198 0.27741 0.24426 0.0
C1039 C 0.69906 0.29727 0.23239 0.0
H1040 H 0.12855 0.93102 0.39691 0.0
H1041 H 0.11839 0.86326 0.36477 0.0
H1042 H 0.13889 0.83887 0.3884 0.0
H1043 H 0.18815 0.91689 0.41504 0.0
H1044 H 0.18249 0.9297 0.43697 0.0
H1045 H 0.16592 0.94187 0.41795 0.0
H1046 H 0.12369 0.93284 0.43258 0.0
H1047 H 0.14014 0.92081 0.45171 0.0
H1048 H 0.11716 0.90178 0.43987 0.0
H1049 H 0.16414 0.82269 0.41374 0.0
H1050 H 0.18865 0.81452 0.4412 0.0
H1051 H 0.17987 0.89189 0.45838 0.0
C1052 C 0.1304 0.911 0.39503 0.0
C1053 C 0.12184 0.89891 0.37912 0.0
C1054 C 0.12456 0.87274 0.37699 0.0
C1055 C 0.13628 0.85878 0.39027 0.0
C1056 C 0.14481 0.87125 0.40571 0.0
C1057 C 0.14164 0.89667 0.40834 0.0
C1058 C 0.15264 0.90536 0.42621 0.0
C1059 C 0.17354 0.92459 0.42389 0.0
C1060 C 0.13218 0.91581 0.43831 0.0
C1061 C 0.16296 0.88093 0.433 0.0
C1062 C 0.15839 0.86157 0.42086 0.0
C1063 C 0.16748 0.83757 0.42351 0.0
C1064 C 0.18149 0.83316 0.43906 0.0
C1065 C 0.18591 0.85254 0.45188 0.0
C1066 C 0.17639 0.87669 0.44887 0.0
H1067 H 0.1044 0.62563 0.65122 0.0
H1068 H 0.09761 0.69189 0.61964 0.0
H1069 H 0.12587 0.71474 0.64091 0.0
H1070 H 0.10469 0.65886 0.69433 0.0
H1071 H 0.12661 0.63758 0.70441 0.0
H1072 H 0.10578 0.62671 0.68671 0.0
H1073 H 0.14375 0.61095 0.66889 0.0
H1074 H 0.16471 0.62206 0.68643 0.0
H1075 H 0.16839 0.63245 0.66404 0.0
H1076 H 0.15701 0.72917 0.6643 0.0
H1077 H 0.18475 0.73639 0.69067 0.0
H1078 H 0.16892 0.66168 0.70828 0.0
C1079 C 0.10871 0.64503 0.64901 0.0
C1080 C 0.09896 0.65722 0.63399 0.0
C1081 C 0.10488 0.68251 0.63126 0.0
C1082 C 0.12096 0.69551 0.64317 0.0
C1083 C 0.13061 0.68293 0.6578 0.0
C1084 C 0.12435 0.65843 0.66097 0.0
C1085 C 0.13685 0.64951 0.67792 0.0
C1086 C 0.11731 0.64278 0.69166 0.0
C1087 C 0.15447 0.62744 0.67408 0.0
C1088 C 0.1513 0.67273 0.68367 0.0
C1089 C 0.1477 0.69167 0.67174 0.0
C1090 C 0.15979 0.7146 0.67385 0.0
C1091 C 0.17563 0.71846 0.68877 0.0
C1092 C 0.17886 0.69962 0.70148 0.0
C1093 C 0.16663 0.67645 0.69881 0.0
H1094 H 0.41218 0.66362 0.88885 0.0
H1095 H 0.4523 0.6056 0.9169 0.0
H1096 H 0.42949 0.61653 0.94421 0.0
H1097 H 0.41125 0.7087 0.92541 0.0
H1098 H 0.38032 0.71971 0.91975 0.0
H1099 H 0.4001 0.70743 0.90259 0.0
H1100 H 0.36571 0.67552 0.89295 0.0
H1101 H 0.34588 0.6876 0.91014 0.0
H1102 H 0.3535 0.65482 0.90914 0.0
H1103 H 0.40206 0.63373 0.96836 0.0
H1104 H 0.37221 0.65596 0.98762 0.0
H1105 H 0.3502 0.70268 0.94355 0.0
C1106 C 0.41643 0.65343 0.9008 0.0
C1107 C 0.43407 0.63382 0.90079 0.0
C1108 C 0.43872 0.62058 0.9166 0.0
C1109 C 0.42594 0.62671 0.93217 0.0
C1110 C 0.40855 0.64607 0.93168 0.0
C1111 C 0.40381 0.65924 0.9164 0.0
C1112 C 0.38398 0.67897 0.91929 0.0
C1113 C 0.39455 0.70526 0.9166 0.0
C1114 C 0.3609 0.67391 0.90716 0.0
C1115 C 0.37832 0.67488 0.9386 0.0
C1116 C 0.39268 0.65584 0.94551 0.0
C1117 C 0.39072 0.64869 0.9631 0.0
C1118 C 0.3737 0.66143 0.97392 0.0
C1119 C 0.35883 0.68108 0.96711 0.0
C1120 C 0.36122 0.68774 0.94918 0.0
H1121 H 0.44922 0.91854 0.15407 0.0
H1122 H 0.52018 0.89153 0.17482 0.0
H1123 H 0.5003 0.88181 0.20323 0.0
H1124 H 0.42505 0.94484 0.19643 0.0
H1125 H 0.39369 0.93451 0.19105 0.0
H1126 H 0.41432 0.94269 0.17354 0.0
H1127 H 0.40719 0.89914 0.15848 0.0
H1128 H 0.38669 0.89079 0.17593 0.0
H1129 H 0.41337 0.8715 0.17103 0.0
H1130 H 0.47188 0.87188 0.22823 0.0
H1131 H 0.43706 0.86045 0.24729 0.0
H1132 H 0.3844 0.89271 0.20954 0.0
C1133 C 0.46072 0.91131 0.16482 0.0
C1134 C 0.48629 0.90616 0.16245 0.0
C1135 C 0.50059 0.89579 0.17651 0.0
C1136 C 0.48948 0.89032 0.19266 0.0
C1137 C 0.46407 0.89524 0.19445 0.0
C1138 C 0.44986 0.90548 0.18089 0.0
C1139 C 0.4225 0.9066 0.18542 0.0
C1140 C 0.41336 0.93378 0.18669 0.0
C1141 C 0.40651 0.89108 0.17192 0.0
C1142 C 0.42338 0.89483 0.20349 0.0
C1143 C 0.44756 0.8888 0.20861 0.0
C1144 C 0.4529 0.87674 0.22444 0.0
C1145 C 0.43297 0.87032 0.23518 0.0
C1146 C 0.40797 0.87568 0.22992 0.0
C1147 C 0.40328 0.88846 0.21399 0.0
H1148 H 0.12206 0.63003 0.87802 0.0
H1149 H 0.10283 0.56171 0.84869 0.0
H1150 H 0.11709 0.58048 0.82096 0.0
H1151 H 0.1044 0.67352 0.84329 0.0
H1152 H 0.13023 0.69416 0.8486 0.0
H1153 H 0.11686 0.67589 0.86575 0.0
H1154 H 0.16044 0.65717 0.8731 0.0
H1155 H 0.17392 0.67531 0.85597 0.0
H1156 H 0.17771 0.64187 0.85566 0.0
H1157 H 0.13479 0.60643 0.79667 0.0
H1158 H 0.15602 0.63673 0.77799 0.0
H1159 H 0.16432 0.68758 0.82362 0.0
C1160 C 0.1204 0.61919 0.8657 0.0
C1161 C 0.11113 0.59452 0.86542 0.0
C1162 C 0.10989 0.58066 0.84914 0.0
C1163 C 0.11783 0.59119 0.83335 0.0
C1164 C 0.12705 0.61554 0.83411 0.0
C1165 C 0.12842 0.62933 0.84989 0.0
C1166 C 0.14033 0.65455 0.84737 0.0
C1167 C 0.12185 0.67578 0.85149 0.0
C1168 C 0.16454 0.65737 0.85869 0.0
C1169 C 0.1457 0.65275 0.82773 0.0
C1170 C 0.13769 0.63022 0.82027 0.0
C1171 C 0.14104 0.62417 0.80236 0.0
C1172 C 0.15311 0.64151 0.79186 0.0
C1173 C 0.16186 0.66453 0.79934 0.0
C1174 C 0.15786 0.67018 0.81749 0.0
H1175 H 0.39366 0.60371 0.11982 0.0
H1176 H 0.34485 0.53924 0.11531 0.0
H1177 H 0.32556 0.55594 0.08781 0.0
H1178 H 0.34822 0.64791 0.10647 0.0
H1179 H 0.36957 0.66683 0.09448 0.0
H1180 H 0.38085 0.64887 0.11292 0.0
H1181 H 0.41326 0.62714 0.0927 0.0
H1182 H 0.40216 0.64513 0.07419 0.0
H1183 H 0.40281 0.61153 0.07234 0.0
H1184 H 0.31111 0.58015 0.06131 0.0
H1185 H 0.30125 0.61079 0.03822 0.0
H1186 H 0.35844 0.66036 0.06081 0.0
C1187 C 0.37922 0.59293 0.11283 0.0
C1188 C 0.37085 0.57009 0.11949 0.0
C1189 C 0.35149 0.55676 0.11032 0.0
C1190 C 0.34052 0.56605 0.09471 0.0
C1191 C 0.34902 0.58878 0.08859 0.0
C1192 C 0.36787 0.60209 0.09739 0.0
C1193 C 0.37262 0.62669 0.08859 0.0
C1194 C 0.3675 0.64888 0.10138 0.0
C1195 C 0.3993 0.62767 0.08153 0.0
C1196 C 0.35339 0.62523 0.07352 0.0
C1197 C 0.34015 0.6031 0.07365 0.0
C1198 C 0.32137 0.59752 0.06105 0.0
C1199 C 0.31592 0.61505 0.04799 0.0
C1200 C 0.32903 0.63799 0.04774 0.0
C1201 C 0.34802 0.64304 0.06069 0.0
H1202 H 0.41737 0.94744 0.37139 0.0
H1203 H 0.40132 0.90156 0.41639 0.0
H1204 H 0.38953 0.86657 0.39583 0.0
H1205 H 0.36713 0.9271 0.34385 0.0
H1206 H 0.38417 0.92742 0.3235 0.0
H1207 H 0.39312 0.94808 0.34178 0.0
H1208 H 0.43812 0.93021 0.34141 0.0
H1209 H 0.42929 0.90946 0.3231 0.0
H1210 H 0.44287 0.89704 0.34317 0.0
H1211 H 0.37567 0.83816 0.37038 0.0
H1212 H 0.36256 0.81772 0.34181 0.0
H1213 H 0.38921 0.8817 0.31355 0.0
C1214 C 0.41156 0.92994 0.37688 0.0
C1215 C 0.41028 0.92711 0.39543 0.0
C1216 C 0.4027 0.90396 0.40219 0.0
C1217 C 0.39591 0.88404 0.39064 0.0
C1218 C 0.39711 0.88752 0.37239 0.0
C1219 C 0.40498 0.90981 0.36555 0.0
C1220 C 0.40387 0.909 0.34544 0.0
C1221 C 0.38601 0.92908 0.33823 0.0
C1222 C 0.4301 0.91157 0.33784 0.0
C1223 C 0.39352 0.88301 0.34203 0.0
C1224 C 0.38978 0.87089 0.35774 0.0
C1225 C 0.37887 0.8473 0.35797 0.0
C1226 C 0.37142 0.83588 0.34171 0.0
C1227 C 0.37509 0.84803 0.32548 0.0
C1228 C 0.38658 0.87175 0.32571 0.0
H1229 H 0.11316 0.87897 0.62002 0.0
H1230 H 0.0915 0.95661 0.61478 0.0
H1231 H 0.11189 0.95749 0.58571 0.0
H1232 H 0.17274 0.8835 0.60034 0.0
H1233 H 0.1707 0.85339 0.58915 0.0
H1234 H 0.15441 0.85897 0.60952 0.0
H1235 H 0.11276 0.84566 0.59376 0.0
H1236 H 0.12893 0.84002 0.57334 0.0
H1237 H 0.10265 0.86105 0.5738 0.0
H1238 H 0.13527 0.9499 0.55721 0.0
H1239 H 0.15948 0.93429 0.53163 0.0
H1240 H 0.1643 0.86136 0.55537 0.0
C1241 C 0.11241 0.89611 0.61271 0.0
C1242 C 0.10073 0.91774 0.61977 0.0
C1243 C 0.10063 0.93988 0.60982 0.0
C1244 C 0.11201 0.94053 0.59323 0.0
C1245 C 0.12333 0.91886 0.5867 0.0
C1246 C 0.12354 0.89705 0.59612 0.0
C1247 C 0.13703 0.87634 0.58622 0.0
C1248 C 0.16009 0.86754 0.59695 0.0
C1249 C 0.11928 0.85448 0.5815 0.0
C1250 C 0.14446 0.88991 0.56977 0.0
C1251 C 0.13643 0.91443 0.57027 0.0
C1252 C 0.14156 0.9307 0.55665 0.0
C1253 C 0.15533 0.92167 0.54218 0.0
C1254 C 0.16373 0.89659 0.54144 0.0
C1255 C 0.15804 0.88059 0.55543 0.0
H1256 H 0.62118 0.43071 0.912 0.0
H1257 H 0.57017 0.37885 0.88465 0.0
H1258 H 0.57029 0.35273 0.91117 0.0
H1259 H 0.65896 0.38484 0.93131 0.0
H1260 H 0.66502 0.40229 0.95177 0.0
H1261 H 0.65826 0.41849 0.93156 0.0
H1262 H 0.6218 0.4418 0.94683 0.0
H1263 H 0.62838 0.42553 0.96709 0.0
H1264 H 0.59756 0.42411 0.95694 0.0
H1265 H 0.57864 0.33046 0.9398 0.0
H1266 H 0.59624 0.31287 0.96744 0.0
H1267 H 0.64302 0.37854 0.97538 0.0
C1268 C 0.60994 0.41392 0.91154 0.0
C1269 C 0.59556 0.40698 0.89619 0.0
C1270 C 0.58097 0.38491 0.89632 0.0
C1271 C 0.58097 0.36987 0.91132 0.0
C1272 C 0.59564 0.37713 0.92611 0.0
C1273 C 0.6099 0.39861 0.9263 0.0
C1274 C 0.62556 0.40128 0.94326 0.0
C1275 C 0.6536 0.40174 0.93923 0.0
C1276 C 0.61785 0.42456 0.95417 0.0
C1277 C 0.61841 0.37758 0.95238 0.0
C1278 C 0.60082 0.36409 0.94243 0.0
C1279 C 0.59224 0.34097 0.94779 0.0
C1280 C 0.60233 0.33115 0.96353 0.0
C1281 C 0.621 0.34431 0.97359 0.0
C1282 C 0.62867 0.36806 0.96807 0.0
H1283 H 0.69012 0.09628 0.11963 0.0
H1284 H 0.6105 0.10829 0.12661 0.0
H1285 H 0.61977 0.13115 0.15468 0.0
H1286 H 0.70951 0.09193 0.1653 0.0
H1287 H 0.73756 0.1099 0.1627 0.0
H1288 H 0.72473 0.09172 0.14419 0.0
H1289 H 0.72289 0.13123 0.12501 0.0
H1290 H 0.73589 0.14949 0.1434 0.0
H1291 H 0.70662 0.15854 0.13312 0.0
H1292 H 0.63782 0.15274 0.18239 0.0
H1293 H 0.66339 0.17635 0.20502 0.0
H1294 H 0.73052 0.15583 0.17714 0.0
C1295 C 0.67443 0.10383 0.12677 0.0
C1296 C 0.64945 0.09988 0.1207 0.0
C1297 C 0.62981 0.11005 0.13101 0.0
C1298 C 0.63486 0.12334 0.147 0.0
C1299 C 0.65966 0.12689 0.1524 0.0
C1300 C 0.67911 0.11786 0.1424 0.0
C1301 C 0.70414 0.12613 0.15025 0.0
C1302 C 0.71991 0.10357 0.15595 0.0
C1303 C 0.7182 0.14231 0.13717 0.0
C1304 C 0.69571 0.14137 0.1662 0.0
C1305 C 0.67 0.14107 0.16748 0.0
C1306 C 0.65793 0.15327 0.18144 0.0
C1307 C 0.67254 0.16651 0.19423 0.0
C1308 C 0.69874 0.16792 0.19262 0.0
C1309 C 0.71044 0.15511 0.1785 0.0
H1310 H 0.96579 0.13721 0.40629 0.0
H1311 H 0.90542 0.09697 0.37879 0.0
H1312 H 0.87712 0.10855 0.40304 0.0
H1313 H 0.94801 0.12254 0.45163 0.0
H1314 H 0.95671 0.15302 0.46038 0.0
H1315 H 0.97272 0.13969 0.44161 0.0
H1316 H 0.96188 0.17884 0.42341 0.0
H1317 H 0.94573 0.19223 0.44207 0.0
H1318 H 0.92971 0.18831 0.42083 0.0
H1319 H 0.85451 0.12747 0.42896 0.0
H1320 H 0.8397 0.1509 0.45537 0.0
H1321 H 0.91483 0.17883 0.4659 0.0
C1322 C 0.94668 0.13065 0.40544 0.0
C1323 C 0.93786 0.11607 0.39067 0.0
C1324 C 0.91273 0.10778 0.39011 0.0
C1325 C 0.89646 0.11439 0.40377 0.0
C1326 C 0.90564 0.12918 0.41795 0.0
C1327 C 0.93021 0.13704 0.41896 0.0
C1328 C 0.93515 0.15358 0.43529 0.0
C1329 C 0.95428 0.14148 0.44798 0.0
C1330 C 0.94361 0.17979 0.43008 0.0
C1331 C 0.90938 0.15422 0.44311 0.0
C1332 C 0.89264 0.13996 0.43295 0.0
C1333 C 0.8675 0.13849 0.43713 0.0
C1334 C 0.85925 0.15193 0.45212 0.0
C1335 C 0.87612 0.16663 0.46274 0.0
C1336 C 0.90151 0.16761 0.45816 0.0
H1337 H 0.91849 0.39459 0.63943 0.0
H1338 H 0.91994 0.47398 0.65248 0.0
H1339 H 0.89373 0.46672 0.67844 0.0
H1340 H 0.85528 0.38337 0.65188 0.0
H1341 H 0.86215 0.35324 0.66094 0.0
H1342 H 0.88054 0.36482 0.64321 0.0
H1343 H 0.92091 0.35919 0.66241 0.0
H1344 H 0.90267 0.34747 0.68017 0.0
H1345 H 0.92317 0.37376 0.68426 0.0
H1346 H 0.86789 0.45049 0.70333 0.0
H1347 H 0.84513 0.42656 0.72543 0.0
H1348 H 0.86134 0.35785 0.69605 0.0
C1349 C 0.91352 0.41046 0.64782 0.0
C1350 C 0.92132 0.43487 0.64393 0.0
C1351 C 0.91398 0.45515 0.65509 0.0
C1352 C 0.89917 0.4512 0.6699 0.0
C1353 C 0.89184 0.42688 0.67333 0.0
C1354 C 0.8988 0.40686 0.66261 0.0
C1355 C 0.88874 0.38253 0.66928 0.0
C1356 C 0.8706 0.37028 0.65551 0.0
C1357 C 0.91015 0.36469 0.67433 0.0
C1358 C 0.87518 0.39194 0.68553 0.0
C1359 C 0.87707 0.41757 0.68761 0.0
C1360 C 0.86625 0.43042 0.70181 0.0
C1361 C 0.85334 0.41666 0.71428 0.0
C1362 C 0.85143 0.39033 0.71248 0.0
C1363 C 0.86239 0.37795 0.69781 0.0
H1364 H 0.58663 0.15183 0.33722 0.0
H1365 H 0.64157 0.10538 0.36394 0.0
H1366 H 0.67083 0.11192 0.33966 0.0
H1367 H 0.60243 0.13341 0.29125 0.0
H1368 H 0.59759 0.16456 0.28333 0.0
H1369 H 0.57997 0.15372 0.30171 0.0
H1370 H 0.59543 0.19168 0.32099 0.0
H1371 H 0.61323 0.20252 0.30275 0.0
H1372 H 0.62851 0.1971 0.32391 0.0
H1373 H 0.69571 0.12719 0.31416 0.0
H1374 H 0.71357 0.14849 0.28865 0.0
H1375 H 0.64246 0.18525 0.27881 0.0
C1376 C 0.60469 0.14276 0.33787 0.0
C1377 C 0.61173 0.12798 0.35247 0.0
C1378 C 0.63554 0.11639 0.35275 0.0
C1379 C 0.65237 0.12013 0.33907 0.0
C1380 C 0.64507 0.13538 0.32514 0.0
C1381 C 0.6217 0.14631 0.32435 0.0
C1382 C 0.61893 0.16299 0.30847 0.0
C1383 C 0.59852 0.15307 0.29542 0.0
C1384 C 0.61373 0.19018 0.31439 0.0
C1385 C 0.64461 0.16024 0.3007 0.0
C1386 C 0.65938 0.14412 0.31044 0.0
C1387 C 0.68422 0.1396 0.3063 0.0
C1388 C 0.69423 0.15186 0.29183 0.0
C1389 C 0.6794 0.16847 0.28168 0.0
C1390 C 0.65423 0.1725 0.28618 0.0
H1391 H 0.86939 0.11106 0.62958 0.0
H1392 H 0.92082 0.06335 0.6008 0.0
H1393 H 0.91208 0.08697 0.57343 0.0
H1394 H 0.82381 0.11834 0.59412 0.0
H1395 H 0.81764 0.1506 0.59984 0.0
H1396 H 0.82761 0.12947 0.61685 0.0
H1397 H 0.86456 0.15889 0.62555 0.0
H1398 H 0.85478 0.18007 0.60852 0.0
H1399 H 0.88611 0.16775 0.60879 0.0
H1400 H 0.89703 0.1156 0.54922 0.0
H1401 H 0.8781 0.14786 0.53023 0.0
H1402 H 0.83778 0.17752 0.57548 0.0
C1403 C 0.87857 0.10542 0.61745 0.0
C1404 C 0.89556 0.08528 0.61716 0.0
C1405 C 0.90771 0.07875 0.6012 0.0
C1406 C 0.90282 0.092 0.58564 0.0
C1407 C 0.88597 0.11184 0.58639 0.0
C1408 C 0.87415 0.11859 0.60192 0.0
C1409 C 0.8574 0.14103 0.59938 0.0
C1410 C 0.82999 0.13445 0.60274 0.0
C1411 C 0.86626 0.16325 0.61126 0.0
C1412 C 0.86149 0.14578 0.57995 0.0
C1413 C 0.87793 0.1287 0.57266 0.0
C1414 C 0.88421 0.12913 0.5548 0.0
C1415 C 0.87334 0.14749 0.54413 0.0
C1416 C 0.85655 0.16526 0.5514 0.0
C1417 C 0.8507 0.16435 0.56956 0.0
H1418 H 0.89384 0.3804 0.87965 0.0
H1419 H 0.93318 0.44141 0.85586 0.0
H1420 H 0.91585 0.42837 0.82624 0.0
H1421 H 0.90293 0.33522 0.84438 0.0
H1422 H 0.87249 0.32143 0.8464 0.0
H1423 H 0.8879 0.33584 0.86557 0.0
H1424 H 0.84954 0.36461 0.8703 0.0
H1425 H 0.83401 0.35031 0.85114 0.0
H1426 H 0.83839 0.38367 0.85236 0.0
H1427 H 0.89438 0.40804 0.79918 0.0
H1428 H 0.87005 0.38266 0.77702 0.0
H1429 H 0.84528 0.33511 0.81903 0.0
C1430 C 0.89904 0.39089 0.86819 0.0
C1431 C 0.91497 0.41182 0.87001 0.0
C1432 C 0.92088 0.42539 0.85475 0.0
C1433 C 0.91122 0.41806 0.8379 0.0
C1434 C 0.89565 0.39722 0.8366 0.0
C1435 C 0.88957 0.38389 0.85137 0.0
C1436 C 0.87234 0.36233 0.84651 0.0
C1437 C 0.88466 0.33723 0.85098 0.0
C1438 C 0.84707 0.36543 0.85562 0.0
C1439 C 0.86971 0.36549 0.82666 0.0
C1440 C 0.88327 0.38569 0.82115 0.0
C1441 C 0.88368 0.39219 0.80335 0.0
C1442 C 0.86982 0.37765 0.79086 0.0
C1443 C 0.85575 0.35688 0.79627 0.0
C1444 C 0.8558 0.35085 0.81443 0.0
H1445 H 0.57464 0.38676 0.11615 0.0
H1446 H 0.59878 0.33382 0.15576 0.0
H1447 H 0.62859 0.31543 0.13466 0.0
H1448 H 0.57856 0.34362 0.07804 0.0
H1449 H 0.58965 0.36705 0.06339 0.0
H1450 H 0.56982 0.37585 0.08151 0.0
H1451 H 0.60308 0.40774 0.09317 0.0
H1452 H 0.62308 0.39893 0.07515 0.0
H1453 H 0.63451 0.39725 0.09783 0.0
H1454 H 0.65717 0.30433 0.11023 0.0
H1455 H 0.68081 0.29862 0.08277 0.0
H1456 H 0.6374 0.35757 0.05818 0.0
C1457 C 0.58613 0.3712 0.12028 0.0
C1458 C 0.58434 0.36156 0.13752 0.0
C1459 C 0.59961 0.34119 0.14251 0.0
C1460 C 0.6167 0.33075 0.13068 0.0
C1461 C 0.61816 0.34077 0.11385 0.0
C1462 C 0.60313 0.36033 0.10853 0.0
C1463 C 0.60841 0.36737 0.08959 0.0
C1464 C 0.58523 0.36322 0.07742 0.0
C1465 C 0.61784 0.39443 0.0889 0.0
C1466 C 0.62892 0.34886 0.0852 0.0
C1467 C 0.63432 0.33385 0.09946 0.0
C1468 C 0.653 0.31582 0.0989 0.0
C1469 C 0.6664 0.31281 0.08326 0.0
C1470 C 0.66092 0.3276 0.06831 0.0
C1471 C 0.64191 0.34588 0.06935 0.0
loop_
_geom_bond_atom_site_label_1
_geom_bond_atom_site_label_2
_geom_bond_distance
_geom_bond_site_symmetry_2
_ccdc_geom_bond_type
H0 C27 0.929 . S
N1 C26 1.433 . S
N1 C32 1.435 . S
N1 C38 1.423 . S
H2 C28 0.930 . S
H3 C31 0.931 . S
H4 C30 0.929 . S
H5 C33 0.930 . S
H6 C34 0.932 . S
H7 C37 0.929 . S
H8 C36 0.931 . S
H9 C39 0.929 . S
H10 C43 0.932 . S
H11 C40 0.931 . S
H12 C42 0.929 . S
H13 C45 0.929 . S
H14 C46 0.930 . S
H15 C48 0.929 . S
H16 C49 0.931 . S
H17 C51 0.930 . S
H18 C52 0.932 . S
H19 C54 0.931 . S
H20 C55 0.929 . S
H21 C57 0.929 . S
H22 C58 0.931 . S
H23 C60 0.929 . S
N24 C44 1.433 . S
N24 C50 1.435 . S
N24 C56 1.423 . S
H25 C61 0.932 . S
C26 N1 1.433 . S
C26 C27 1.363 . S
C26 C31 1.370 . S
C27 H0 0.929 . S
C27 C26 1.363 . S
C27 C28 1.385 . S
C28 H2 0.930 . S
C28 C27 1.385 . S
C28 C29 1.357 . S
C29 C28 1.357 . S
C29 C30 1.406 . S
C30 H4 0.929 . S
C30 C29 1.406 . S
C30 C31 1.391 . S
C31 H3 0.931 . S
C31 C26 1.370 . S
C31 C30 1.391 . S
C32 N1 1.435 . S
C32 C33 1.358 . S
C32 C37 1.371 . S
C33 H5 0.930 . S
C33 C32 1.358 . S
C33 C34 1.405 . S
C34 H6 0.932 . S
C34 C33 1.405 . S
C34 C35 1.383 . S
C35 C34 1.383 . S
C35 C36 1.393 . S
C36 H8 0.931 . S
C36 C35 1.393 . S
C36 C37 1.382 . S
C37 H7 0.929 . S
C37 C32 1.371 . S
C37 C36 1.382 . S
C38 N1 1.423 . S
C38 C39 1.362 1_565 S
C38 C43 1.388 . S
C39 H9 0.929 . S
C39 C38 1.362 1_545 S
C39 C40 1.376 . S
C40 H11 0.931 . S
C40 C39 1.376 . S
C40 C41 1.396 . S
C41 C40 1.396 . S
C41 C42 1.348 1_545 S
C41 C59 1.472 . S
C42 H12 0.929 . S
C42 C41 1.348 1_565 S
C42 C43 1.443 . S
C43 H10 0.932 . S
C43 C38 1.388 . S
C43 C42 1.443 . S
C44 N24 1.433 . S
C44 C45 1.363 . S
C44 C49 1.370 . S
C45 H13 0.929 . S
C45 C44 1.363 . S
C45 C46 1.385 . S
C46 H14 0.930 . S
C46 C45 1.385 . S
C46 C47 1.357 . S
C47 C46 1.357 . S
C47 C48 1.406 . S
C48 H15 0.929 . S
C48 C47 1.406 . S
C48 C49 1.391 . S
C49 H16 0.931 . S
C49 C44 1.370 . S
C49 C48 1.391 . S
C50 N24 1.435 . S
C50 C51 1.358 . S
C50 C55 1.371 . S
C51 H17 0.930 . S
C51 C50 1.358 . S
C51 C52 1.405 . S
C52 H18 0.932 . S
C52 C51 1.405 . S
C52 C53 1.383 . S
C53 C52 1.383 . S
C53 C54 1.393 . S
C54 H19 0.931 . S
C54 C53 1.393 . S
C54 C55 1.382 . S
C55 H20 0.929 . S
C55 C50 1.371 . S
C55 C54 1.382 . S
C56 N24 1.423 . S
C56 C57 1.362 1_655 S
C56 C61 1.388 . S
C57 H21 0.929 . S
C57 C56 1.362 1_455 S
C57 C58 1.376 . S
C58 H22 0.931 . S
C58 C57 1.376 . S
C58 C59 1.396 . S
C59 C41 1.472 . S
C59 C58 1.396 . S
C59 C60 1.348 . S
C60 H23 0.929 . S
C60 C59 1.348 . S
C60 C61 1.443 1_455 S
C61 H25 0.932 . S
C61 C56 1.388 . S
C61 C60 1.443 1_655 S
H62 C89 0.929 . S
N63 C88 1.433 . S
N63 C94 1.435 . S
N63 C100 1.423 . S
H64 C90 0.930 . S
H65 C93 0.931 . S
H66 C92 0.929 . S
H67 C95 0.930 . S
H68 C96 0.932 . S
H69 C99 0.929 . S
H70 C98 0.931 . S
H71 C101 0.927 1_455 S
H72 C105 0.932 . S
H73 C102 0.931 . S
H74 C104 0.929 . S
H75 C107 0.929 . S
H76 C108 0.930 . S
H77 C110 0.929 . S
H78 C111 0.931 . S
H79 C113 0.930 . S
H80 C114 0.932 . S
H81 C116 0.931 . S
H82 C117 0.929 . S
H83 C119 0.929 . S
H84 C120 0.931 . S
H85 C122 0.929 . S
N86 C106 1.433 . S
N86 C112 1.435 . S
N86 C118 1.423 . S
H87 C123 0.932 . S
C88 N63 1.433 . S
C88 C89 1.363 . S
C88 C93 1.370 . S
C89 H62 0.929 . S
C89 C88 1.363 . S
C89 C90 1.385 . S
C90 H64 0.930 . S
C90 C89 1.385 . S
C90 C91 1.357 . S
C91 C90 1.357 . S
C91 C92 1.406 . S
C92 H66 0.929 . S
C92 C91 1.406 . S
C92 C93 1.391 . S
C93 H65 0.931 . S
C93 C88 1.370 . S
C93 C92 1.391 . S
C94 N63 1.435 . S
C94 C95 1.358 . S
C94 C99 1.371 . S
C95 H67 0.930 . S
C95 C94 1.358 . S
C95 C96 1.405 . S
C96 H68 0.932 . S
C96 C95 1.405 . S
C96 C97 1.383 . S
C97 C96 1.383 . S
C97 C98 1.393 . S
C98 H70 0.931 . S
C98 C97 1.393 . S
C98 C99 1.382 . S
C99 H69 0.929 . S
C99 C94 1.371 . S
C99 C98 1.382 . S
C100 N63 1.423 . S
C100 C101 1.386 . S
C100 C105 1.388 . S
C101 H71 0.927 1_655 S
C101 C100 1.386 . S
C101 C102 1.355 1_655 S
C102 H73 0.931 . S
C102 C101 1.355 1_455 S
C102 C103 1.396 . S
C103 C102 1.396 . S
C103 C104 1.348 1_455 S
C103 C121 1.472 . S
C104 H74 0.929 . S
C104 C103 1.348 1_655 S
C104 C105 1.443 . S
C105 H72 0.932 . S
C105 C100 1.388 . S
C105 C104 1.443 . S
C106 N86 1.433 . S
C106 C107 1.363 . S
C106 C111 1.370 . S
C107 H75 0.929 . S
C107 C106 1.363 . S
C107 C108 1.385 . S
C108 H76 0.930 . S
C108 C107 1.385 . S
C108 C109 1.357 . S
C109 C108 1.357 . S
C109 C110 1.406 . S
C110 H77 0.929 . S
C110 C109 1.406 . S
C110 C111 1.391 . S
C111 H78 0.931 . S
C111 C106 1.370 . S
C111 C110 1.391 . S
C112 N86 1.435 . S
C112 C113 1.358 . S
C112 C117 1.371 . S
C113 H79 0.930 . S
C113 C112 1.358 . S
C113 C114 1.405 . S
C114 H80 0.932 . S
C114 C113 1.405 . S
C114 C115 1.383 . S
C115 C114 1.383 . S
C115 C116 1.393 . S
C116 H81 0.931 . S
C116 C115 1.393 . S
C116 C117 1.382 . S
C117 H82 0.929 . S
C117 C112 1.371 . S
C117 C116 1.382 . S
C118 N86 1.423 . S
C118 C119 1.362 . S
C118 C123 1.388 . S
C119 H83 0.929 . S
C119 C118 1.362 . S
C119 C120 1.376 . S
C120 H84 0.931 . S
C120 C119 1.376 . S
C120 C121 1.396 . S
C121 C103 1.472 . S
C121 C120 1.396 . S
C121 C122 1.348 . S
C122 H85 0.929 . S
C122 C121 1.348 . S
C122 C123 1.443 . S
C123 H87 0.932 . S
C123 C118 1.388 . S
C123 C122 1.443 . S
H124 C151 0.929 . S
N125 C150 1.433 . S
N125 C156 1.435 . S
N125 C162 1.423 . S
H126 C152 0.930 . S
H127 C155 0.931 . S
H128 C154 0.929 . S
H129 C157 0.930 . S
H130 C158 0.932 . S
H131 C161 0.929 . S
H132 C160 0.931 . S
H133 C163 0.929 . S
H134 C167 0.932 . S
H135 C164 0.931 . S
H136 C166 0.929 . S
H137 C169 0.929 . S
H138 C170 0.930 . S
H139 C172 0.929 . S
H140 C173 0.931 . S
H141 C175 0.930 . S
H142 C176 0.932 . S
H143 C178 0.931 . S
H144 C179 0.929 . S
H145 C181 0.929 . S
H146 C182 0.931 . S
H147 C184 0.929 . S
N148 C168 1.433 . S
N148 C174 1.435 . S
N148 C180 1.423 . S
H149 C185 0.932 . S
C150 N125 1.433 . S
C150 C151 1.363 . S
C150 C155 1.370 . S
C151 H124 0.929 . S
C151 C150 1.363 . S
C151 C152 1.385 . S
C152 H126 0.930 . S
C152 C151 1.385 . S
C152 C153 1.357 . S
C153 C152 1.357 . S
C153 C154 1.406 . S
C154 H128 0.929 . S
C154 C153 1.406 . S
C154 C155 1.391 . S
C155 H127 0.931 . S
C155 C150 1.370 . S
C155 C154 1.391 . S
C156 N125 1.435 . S
C156 C157 1.358 . S
C156 C161 1.371 . S
C157 H129 0.930 . S
C157 C156 1.358 . S
C157 C158 1.405 . S
C158 H130 0.932 . S
C158 C157 1.405 . S
C158 C159 1.383 . S
C159 C158 1.383 . S
C159 C160 1.393 . S
C160 H132 0.931 . S
C160 C159 1.393 . S
C160 C161 1.382 . S
C161 H131 0.929 . S
C161 C156 1.371 . S
C161 C160 1.382 . S
C162 N125 1.423 . S
C162 C163 1.362 . S
C162 C167 1.388 . S
C163 H133 0.929 . S
C163 C162 1.362 . S
C163 C164 1.376 . S
C164 H135 0.931 . S
C164 C163 1.376 . S
C164 C165 1.396 . S
C165 C164 1.396 . S
C165 C166 1.348 . S
C165 C183 1.472 . S
C166 H136 0.929 . S
C166 C165 1.348 . S
C166 C167 1.443 . S
C167 H134 0.932 . S
C167 C162 1.388 . S
C167 C166 1.443 . S
C168 N148 1.433 . S
C168 C169 1.363 . S
C168 C173 1.370 . S
C169 H137 0.929 . S
C169 C168 1.363 . S
C169 C170 1.385 . S
C170 H138 0.930 . S
C170 C169 1.385 . S
C170 C171 1.357 . S
C171 C170 1.357 . S
C171 C172 1.406 . S
C172 H139 0.929 . S
C172 C171 1.406 . S
C172 C173 1.391 . S
C173 H140 0.931 . S
C173 C168 1.370 . S
C173 C172 1.391 . S
C174 N148 1.435 . S
C174 C175 1.358 . S
C174 C179 1.371 . S
C175 H141 0.930 . S
C175 C174 1.358 . S
C175 C176 1.405 . S
C176 H142 0.932 . S
C176 C175 1.405 . S
C176 C177 1.383 . S
C177 C176 1.383 . S
C177 C178 1.393 . S
C178 H143 0.931 . S
C178 C177 1.393 . S
C178 C179 1.382 . S
C179 H144 0.929 . S
C179 C174 1.371 . S
C179 C178 1.382 . S
C180 N148 1.423 . S
C180 C181 1.362 . S
C180 C185 1.388 . S
C181 H145 0.929 . S
C181 C180 1.362 . S
C181 C182 1.376 . S
C182 H146 0.931 . S
C182 C181 1.376 . S
C182 C183 1.396 . S
C183 C165 1.472 . S
C183 C182 1.396 . S
C183 C184 1.348 . S
C184 H147 0.929 . S
C184 C183 1.348 . S
C184 C185 1.443 . S
C185 H149 0.932 . S
C185 C180 1.388 . S
C185 C184 1.443 . S
H186 C213 0.929 . S
N187 C212 1.433 . S
N187 C218 1.435 . S
N187 C224 1.423 . S
H188 C214 0.930 . S
H189 C217 0.931 . S
H190 C216 0.929 . S
H191 C219 0.930 . S
H192 C220 0.932 . S
H193 C223 0.929 . S
H194 C222 0.931 . S
H195 C225 0.929 . S
H196 C229 0.932 . S
H197 C226 0.931 . S
H198 C228 0.929 . S
H199 C231 0.929 . S
H200 C232 0.930 . S
H201 C234 0.929 . S
H202 C235 0.931 . S
H203 C237 0.930 . S
H204 C238 0.932 . S
H205 C240 0.931 . S
H206 C241 0.929 . S
H207 C243 0.929 . S
H208 C244 0.901 1_565 S
H209 C246 0.929 . S
N210 C230 1.433 . S
N210 C236 1.435 . S
N210 C242 1.423 . S
H211 C247 0.932 . S
C212 N187 1.433 . S
C212 C213 1.363 . S
C212 C217 1.370 . S
C213 H186 0.929 . S
C213 C212 1.363 . S
C213 C214 1.385 . S
C214 H188 0.930 . S
C214 C213 1.385 . S
C214 C215 1.357 . S
C215 C214 1.357 . S
C215 C216 1.406 . S
C216 H190 0.929 . S
C216 C215 1.406 . S
C216 C217 1.391 . S
C217 H189 0.931 . S
C217 C212 1.370 . S
C217 C216 1.391 . S
C218 N187 1.435 . S
C218 C219 1.358 . S
C218 C223 1.371 . S
C219 H191 0.930 . S
C219 C218 1.358 . S
C219 C220 1.405 . S
C220 H192 0.932 . S
C220 C219 1.405 . S
C220 C221 1.383 . S
C221 C220 1.383 . S
C221 C222 1.393 . S
C222 H194 0.931 . S
C222 C221 1.393 . S
C222 C223 1.382 . S
C223 H193 0.929 . S
C223 C218 1.371 . S
C223 C222 1.382 . S
C224 N187 1.423 . S
C224 C225 1.362 . S
C224 C229 1.388 . S
C225 H195 0.929 . S
C225 C224 1.362 . S
C225 C226 1.376 . S
C226 H197 0.931 . S
C226 C225 1.376 . S
C226 C227 1.396 . S
C227 C226 1.396 . S
C227 C228 1.348 . S
C227 C245 1.472 1_565 S
C228 H198 0.929 . S
C228 C227 1.348 . S
C228 C229 1.443 . S
C229 H196 0.932 . S
C229 C224 1.388 . S
C229 C228 1.443 . S
C230 N210 1.433 . S
C230 C231 1.363 . S
C230 C235 1.370 . S
C231 H199 0.929 . S
C231 C230 1.363 . S
C231 C232 1.385 . S
C232 H200 0.930 . S
C232 C231 1.385 . S
C232 C233 1.357 . S
C233 C232 1.357 . S
C233 C234 1.406 . S
C234 H201 0.929 . S
C234 C233 1.406 . S
C234 C235 1.391 . S
C235 H202 0.931 . S
C235 C230 1.370 . S
C235 C234 1.391 . S
C236 N210 1.435 . S
C236 C237 1.358 . S
C236 C241 1.371 . S
C237 H203 0.930 . S
C237 C236 1.358 . S
C237 C238 1.405 . S
C238 H204 0.932 . S
C238 C237 1.405 . S
C238 C239 1.383 . S
C239 C238 1.383 . S
C239 C240 1.393 . S
C240 H205 0.931 . S
C240 C239 1.393 . S
C240 C241 1.382 . S
C241 H206 0.929 . S
C241 C236 1.371 . S
C241 C240 1.382 . S
C242 N210 1.423 . S
C242 C243 1.362 . S
C242 C247 1.388 . S
C243 H207 0.929 . S
C243 C242 1.362 . S
C243 C244 1.376 . S
C244 H208 0.901 1_545 S
C244 C243 1.376 . S
C244 C245 1.396 . S
C245 C227 1.472 1_545 S
C245 C244 1.396 . S
C245 C246 1.348 . S
C246 H209 0.929 . S
C246 C245 1.348 . S
C246 C247 1.443 . S
C247 H211 0.932 . S
C247 C242 1.388 . S
C247 C246 1.443 . S
H248 C275 0.929 . S
N249 C274 1.433 . S
N249 C280 1.435 . S
N249 C286 1.423 . S
H250 C276 0.930 . S
H251 C279 0.931 . S
H252 C278 0.929 . S
H253 C281 0.930 . S
H254 C282 0.932 . S
H255 C285 0.929 . S
H256 C284 0.931 1_554 S
H257 C287 0.929 . S
H258 C291 0.932 . S
H259 C288 0.931 . S
H260 C290 0.929 . S
H261 C293 0.929 . S
H262 C294 0.930 . S
H263 C296 0.929 . S
H264 C297 0.931 . S
H265 C299 0.930 . S
H266 C300 0.932 . S
H267 C302 0.931 . S
H268 C303 0.929 . S
H269 C305 0.929 . S
H270 C306 0.931 1_455 S
H271 C308 0.929 . S
N272 C292 1.433 . S
N272 C298 1.435 . S
N272 C304 1.423 . S
H273 C309 0.932 . S
C274 N249 1.433 . S
C274 C275 1.363 . S
C274 C279 1.370 . S
C275 H248 0.929 . S
C275 C274 1.363 . S
C275 C276 1.385 . S
C276 H250 0.930 . S
C276 C275 1.385 . S
C276 C277 1.357 . S
C277 C276 1.357 . S
C277 C278 1.406 . S
C278 H252 0.929 . S
C278 C277 1.406 . S
C278 C279 1.391 . S
C279 H251 0.931 . S
C279 C274 1.370 . S
C279 C278 1.391 . S
C280 N249 1.435 . S
C280 C281 1.358 . S
C280 C285 1.371 . S
C281 H253 0.930 . S
C281 C280 1.358 . S
C281 C282 1.405 . S
C282 H254 0.932 . S
C282 C281 1.405 . S
C282 C283 1.383 . S
C283 C282 1.383 . S
C283 C284 1.393 . S
C284 H256 0.931 1_556 S
C284 C283 1.393 . S
C284 C285 1.382 . S
C285 H255 0.929 . S
C285 C280 1.371 . S
C285 C284 1.382 . S
C286 N249 1.423 . S
C286 C287 1.362 . S
C286 C291 1.388 . S
C287 H257 0.929 . S
C287 C286 1.362 . S
C287 C288 1.376 . S
C288 H259 0.931 . S
C288 C287 1.376 . S
C288 C289 1.396 . S
C289 C288 1.396 . S
C289 C290 1.348 . S
C289 C307 1.472 . S
C290 H260 0.929 . S
C290 C289 1.348 . S
C290 C291 1.443 . S
C291 H258 0.932 . S
C291 C286 1.388 . S
C291 C290 1.443 . S
C292 N272 1.433 . S
C292 C293 1.363 . S
C292 C297 1.370 . S
C293 H261 0.929 . S
C293 C292 1.363 . S
C293 C294 1.385 . S
C294 H262 0.930 . S
C294 C293 1.385 . S
C294 C295 1.357 . S
C295 C294 1.357 . S
C295 C296 1.406 . S
C296 H263 0.929 . S
C296 C295 1.406 . S
C296 C297 1.391 . S
C297 H264 0.931 . S
C297 C292 1.370 . S
C297 C296 1.391 . S
C298 N272 1.435 . S
C298 C299 1.358 . S
C298 C303 1.371 . S
C299 H265 0.930 . S
C299 C298 1.358 . S
C299 C300 1.405 . S
C300 H266 0.932 . S
C300 C299 1.405 . S
C300 C301 1.383 . S
C301 C300 1.383 . S
C301 C302 1.393 . S
C302 H267 0.931 . S
C302 C301 1.393 . S
C302 C303 1.382 . S
C303 H268 0.929 . S
C303 C298 1.371 . S
C303 C302 1.382 . S
C304 N272 1.423 . S
C304 C305 1.362 . S
C304 C309 1.388 . S
C305 H269 0.929 . S
C305 C304 1.362 . S
C305 C306 1.376 . S
C306 H270 0.931 1_655 S
C306 C305 1.376 . S
C306 C307 1.396 1_655 S
C307 C289 1.472 . S
C307 C306 1.396 1_455 S
C307 C308 1.348 1_455 S
C308 H271 0.929 . S
C308 C307 1.348 1_655 S
C308 C309 1.443 . S
C309 H273 0.932 . S
C309 C304 1.388 . S
C309 C308 1.443 . S
H310 C337 0.929 . S
N311 C336 1.433 . S
N311 C342 1.435 . S
N311 C348 1.423 . S
H312 C338 0.930 . S
H313 C341 0.931 . S
H314 C340 0.929 . S
H315 C343 0.930 . S
H316 C344 0.932 . S
H317 C347 0.929 . S
H318 C346 0.931 . S
H319 C349 0.929 . S
H320 C353 0.932 . S
H321 C350 0.931 . S
H322 C352 0.929 . S
H323 C355 0.929 . S
H324 C356 0.930 . S
H325 C358 0.929 . S
H326 C359 0.931 . S
H327 C361 0.930 . S
H328 C362 0.932 . S
H329 C364 0.931 . S
H330 C365 0.929 . S
H331 C367 0.929 . S
H332 C368 0.931 . S
H333 C370 0.929 . S
N334 C354 1.433 . S
N334 C360 1.435 . S
N334 C366 1.423 . S
H335 C371 0.932 . S
C336 N311 1.433 . S
C336 C337 1.363 . S
C336 C341 1.370 . S
C337 H310 0.929 . S
C337 C336 1.363 . S
C337 C338 1.385 . S
C338 H312 0.930 . S
C338 C337 1.385 . S
C338 C339 1.357 . S
C339 C338 1.357 . S
C339 C340 1.406 . S
C340 H314 0.929 . S
C340 C339 1.406 . S
C340 C341 1.391 . S
C341 H313 0.931 . S
C341 C336 1.370 . S
C341 C340 1.391 . S
C342 N311 1.435 . S
C342 C343 1.358 . S
C342 C347 1.371 . S
C343 H315 0.930 . S
C343 C342 1.358 . S
C343 C344 1.405 . S
C344 H316 0.932 . S
C344 C343 1.405 . S
C344 C345 1.383 . S
C345 C344 1.383 . S
C345 C346 1.393 . S
C346 H318 0.931 . S
C346 C345 1.393 . S
C346 C347 1.382 . S
C347 H317 0.929 . S
C347 C342 1.371 . S
C347 C346 1.382 . S
C348 N311 1.423 . S
C348 C349 1.362 . S
C348 C353 1.388 . S
C349 H319 0.929 . S
C349 C348 1.362 . S
C349 C350 1.376 . S
C350 H321 0.931 . S
C350 C349 1.376 . S
C350 C351 1.396 . S
C351 C350 1.396 . S
C351 C352 1.348 . S
C351 C369 1.472 . S
C352 H322 0.929 . S
C352 C351 1.348 . S
C352 C353 1.443 . S
C353 H320 0.932 . S
C353 C348 1.388 . S
C353 C352 1.443 . S
C354 N334 1.433 . S
C354 C355 1.363 . S
C354 C359 1.370 . S
C355 H323 0.929 . S
C355 C354 1.363 . S
C355 C356 1.385 . S
C356 H324 0.930 . S
C356 C355 1.385 . S
C356 C357 1.357 . S
C357 C356 1.357 . S
C357 C358 1.406 . S
C358 H325 0.929 . S
C358 C357 1.406 . S
C358 C359 1.391 . S
C359 H326 0.931 . S
C359 C354 1.370 . S
C359 C358 1.391 . S
C360 N334 1.435 . S
C360 C361 1.358 . S
C360 C365 1.371 . S
C361 H327 0.930 . S
C361 C360 1.358 . S
C361 C362 1.405 . S
C362 H328 0.932 . S
C362 C361 1.405 . S
C362 C363 1.383 . S
C363 C362 1.383 . S
C363 C364 1.393 . S
C364 H329 0.931 . S
C364 C363 1.393 . S
C364 C365 1.382 . S
C365 H330 0.929 . S
C365 C360 1.371 . S
C365 C364 1.382 . S
C366 N334 1.423 . S
C366 C367 1.362 . S
C366 C371 1.388 . S
C367 H331 0.929 . S
C367 C366 1.362 . S
C367 C368 1.376 . S
C368 H332 0.931 . S
C368 C367 1.376 . S
C368 C369 1.396 . S
C369 C351 1.472 . S
C369 C368 1.396 . S
C369 C370 1.348 . S
C370 H333 0.929 . S
C370 C369 1.348 . S
C370 C371 1.443 . S
C371 H335 0.932 . S
C371 C366 1.388 . S
C371 C370 1.443 . S
H372 C399 0.929 . S
N373 C398 1.433 . S
N373 C404 1.435 . S
N373 C410 1.423 . S
H374 C400 0.930 . S
H375 C403 0.931 . S
H376 C402 0.929 . S
H377 C405 0.930 . S
H378 C406 0.932 . S
H379 C409 0.929 . S
H380 C408 0.931 . S
H381 C411 0.929 . S
H382 C415 0.932 . S
H383 C412 0.931 . S
H384 C414 0.929 . S
H385 C417 0.929 . S
H386 C418 0.930 . S
H387 C420 0.929 . S
H388 C421 0.931 . S
H389 C423 0.930 . S
H390 C424 0.932 . S
H391 C426 0.931 . S
H392 C427 0.929 . S
H393 C429 0.929 . S
H394 C430 0.931 . S
H395 C432 0.929 . S
N396 C416 1.433 . S
N396 C422 1.435 . S
N396 C428 1.423 . S
H397 C433 0.932 . S
C398 N373 1.433 . S
C398 C399 1.363 . S
C398 C403 1.370 . S
C399 H372 0.929 . S
C399 C398 1.363 . S
C399 C400 1.385 . S
C400 H374 0.930 . S
C400 C399 1.385 . S
C400 C401 1.357 . S
C401 C400 1.357 . S
C401 C402 1.406 . S
C402 H376 0.929 . S
C402 C401 1.406 . S
C402 C403 1.391 . S
C403 H375 0.931 . S
C403 C398 1.370 . S
C403 C402 1.391 . S
C404 N373 1.435 . S
C404 C405 1.358 . S
C404 C409 1.371 . S
C405 H377 0.930 . S
C405 C404 1.358 . S
C405 C406 1.405 . S
C406 H378 0.932 . S
C406 C405 1.405 . S
C406 C407 1.383 . S
C407 C406 1.383 . S
C407 C408 1.393 . S
C408 H380 0.931 . S
C408 C407 1.393 . S
C408 C409 1.382 . S
C409 H379 0.929 . S
C409 C404 1.371 . S
C409 C408 1.382 . S
C410 N373 1.423 . S
C410 C411 1.362 1_565 S
C410 C415 1.388 . S
C411 H381 0.929 . S
C411 C410 1.362 1_545 S
C411 C412 1.376 . S
C412 H383 0.931 . S
C412 C411 1.376 . S
C412 C413 1.396 . S
C413 C412 1.396 . S
C413 C414 1.348 1_545 S
C413 C431 1.472 . S
C414 H384 0.929 . S
C414 C413 1.348 1_565 S
C414 C415 1.443 . S
C415 H382 0.932 . S
C415 C410 1.388 . S
C415 C414 1.443 . S
C416 N396 1.433 . S
C416 C417 1.363 . S
C416 C421 1.370 . S
C417 H385 0.929 . S
C417 C416 1.363 . S
C417 C418 1.385 . S
C418 H386 0.930 . S
C418 C417 1.385 . S
C418 C419 1.357 . S
C419 C418 1.357 . S
C419 C420 1.406 . S
C420 H387 0.929 . S
C420 C419 1.406 . S
C420 C421 1.391 . S
C421 H388 0.931 . S
C421 C416 1.370 . S
C421 C420 1.391 . S
C422 N396 1.435 . S
C422 C423 1.358 . S
C422 C427 1.371 . S
C423 H389 0.930 . S
C423 C422 1.358 . S
C423 C424 1.405 . S
C424 H390 0.932 . S
C424 C423 1.405 . S
C424 C425 1.383 . S
C425 C424 1.383 . S
C425 C426 1.393 . S
C426 H391 0.931 . S
C426 C425 1.393 . S
C426 C427 1.382 . S
C427 H392 0.929 . S
C427 C422 1.371 . S
C427 C426 1.382 . S
C428 N396 1.423 . S
C428 C429 1.362 . S
C428 C433 1.388 . S
C429 H393 0.929 . S
C429 C428 1.362 . S
C429 C430 1.376 . S
C430 H394 0.931 . S
C430 C429 1.376 . S
C430 C431 1.396 . S
C431 C413 1.472 . S
C431 C430 1.396 . S
C431 C432 1.348 . S
C432 H395 0.929 . S
C432 C431 1.348 . S
C432 C433 1.443 . S
C433 H397 0.932 . S
C433 C428 1.388 . S
C433 C432 1.443 . S
H434 C461 0.929 . S
N435 C460 1.433 . S
N435 C466 1.435 . S
N435 C472 1.423 . S
H436 C462 0.930 . S
H437 C465 0.931 . S
H438 C464 0.929 . S
H439 C467 0.930 . S
H440 C468 0.932 . S
H441 C471 0.929 . S
H442 C470 0.931 . S
H443 C473 0.929 . S
H444 C477 0.932 . S
H445 C474 0.932 1_655 S
H446 C476 0.929 . S
H447 C479 0.929 . S
H448 C480 0.930 . S
H449 C482 0.929 . S
H450 C483 0.931 . S
H451 C485 0.930 . S
H452 C486 0.932 . S
H453 C488 0.931 . S
H454 C489 0.929 . S
H455 C491 0.929 . S
H456 C492 0.931 . S
H457 C494 0.954 . S
N458 C478 1.433 . S
N458 C484 1.435 . S
N458 C490 1.423 . S
H459 C495 0.932 . S
C460 N435 1.433 . S
C460 C461 1.363 . S
C460 C465 1.370 . S
C461 H434 0.929 . S
C461 C460 1.363 . S
C461 C462 1.385 . S
C462 H436 0.930 . S
C462 C461 1.385 . S
C462 C463 1.357 . S
C463 C462 1.357 . S
C463 C464 1.406 . S
C464 H438 0.929 . S
C464 C463 1.406 . S
C464 C465 1.391 . S
C465 H437 0.931 . S
C465 C460 1.370 . S
C465 C464 1.391 . S
C466 N435 1.435 . S
C466 C467 1.358 . S
C466 C471 1.371 . S
C467 H439 0.930 . S
C467 C466 1.358 . S
C467 C468 1.405 . S
C468 H440 0.932 . S
C468 C467 1.405 . S
C468 C469 1.383 . S
C469 C468 1.383 . S
C469 C470 1.393 . S
C470 H442 0.931 . S
C470 C469 1.393 . S
C470 C471 1.382 . S
C471 H441 0.929 . S
C471 C466 1.371 . S
C471 C470 1.382 . S
C472 N435 1.423 . S
C472 C473 1.362 . S
C472 C477 1.388 . S
C473 H443 0.929 . S
C473 C472 1.362 . S
C473 C474 1.376 . S
C474 H445 0.932 1_455 S
C474 C473 1.376 . S
C474 C475 1.396 1_565 S
C475 C474 1.396 1_545 S
C475 C476 1.348 . S
C475 C493 1.472 1_455 S
C476 H446 0.929 . S
C476 C475 1.348 . S
C476 C477 1.443 1_545 S
C477 H444 0.932 . S
C477 C472 1.388 . S
C477 C476 1.443 1_565 S
C478 N458 1.433 . S
C478 C479 1.363 . S
C478 C483 1.370 . S
C479 H447 0.929 . S
C479 C478 1.363 . S
C479 C480 1.385 . S
C480 H448 0.930 . S
C480 C479 1.385 . S
C480 C481 1.357 . S
C481 C480 1.357 . S
C481 C482 1.406 . S
C482 H449 0.929 . S
C482 C481 1.406 . S
C482 C483 1.391 . S
C483 H450 0.931 . S
C483 C478 1.370 . S
C483 C482 1.391 . S
C484 N458 1.435 . S
C484 C485 1.358 . S
C484 C489 1.371 . S
C485 H451 0.930 . S
C485 C484 1.358 . S
C485 C486 1.405 . S
C486 H452 0.932 . S
C486 C485 1.405 . S
C486 C487 1.383 . S
C487 C486 1.383 . S
C487 C488 1.393 . S
C488 H453 0.931 . S
C488 C487 1.393 . S
C488 C489 1.382 . S
C489 H454 0.929 . S
C489 C484 1.371 . S
C489 C488 1.382 . S
C490 N458 1.423 . S
C490 C491 1.362 . S
C490 C495 1.388 . S
C491 H455 0.929 . S
C491 C490 1.362 . S
C491 C492 1.376 . S
C492 H456 0.931 . S
C492 C491 1.376 . S
C492 C493 1.396 . S
C493 C475 1.472 1_655 S
C493 C492 1.396 . S
C493 C494 1.345 1_655 S
C494 H457 0.954 . S
C494 C493 1.345 1_455 S
C494 C495 1.423 1_455 S
C495 H459 0.932 . S
C495 C490 1.388 . S
C495 C494 1.423 1_655 S
Zn496 O499 2.031 . S
Zn496 O501 2.049 . S
Zn496 O506 2.067 . S
Zn497 O498 1.962 . S
Zn497 O500 1.986 . S
Zn497 O502 1.996 . S
Zn497 O505 1.993 . S
O498 Zn497 1.962 . S
O498 C503 1.254 . S
O499 Zn496 2.031 . S
O499 C503 1.269 1_556 S
O500 Zn497 1.986 . S
O500 C507 1.262 . S
O501 Zn496 2.049 . S
O501 C509 1.260 1_556 S
O502 Zn497 1.996 . S
O502 C509 1.257 . S
C503 O498 1.254 . S
C503 O499 1.269 1_554 S
C504 O505 1.188 1_556 S
C504 O506 1.270 . S
O505 Zn497 1.993 . S
O505 C504 1.188 1_554 S
O506 Zn496 2.067 . S
O506 C504 1.270 . S
C507 O500 1.262 . S
C507 O508 1.232 . S
O508 C507 1.232 . S
C509 O501 1.260 1_554 S
C509 O502 1.257 . S
Zn510 O513 2.031 . S
Zn510 O515 2.049 . S
Zn510 O520 2.067 . S
Zn511 O512 1.962 . S
Zn511 O514 1.986 . S
Zn511 O516 1.996 . S
Zn511 O519 1.943 . S
O512 Zn511 1.962 . S
O512 C517 1.254 . S
O513 Zn510 2.031 . S
O513 C517 1.269 . S
O514 Zn511 1.986 . S
O514 C521 1.262 . S
O515 Zn510 2.049 . S
O515 C523 1.260 . S
O516 Zn511 1.996 . S
O516 C523 1.257 . S
C517 O512 1.254 . S
C517 O513 1.269 . S
C518 O519 1.249 . S
C518 O520 1.270 . S
O519 Zn511 1.943 . S
O519 C518 1.249 . S
O520 Zn510 2.067 . S
O520 C518 1.270 . S
C521 O514 1.262 . S
C521 O522 1.232 . S
O522 C521 1.232 . S
C523 O515 1.260 . S
C523 O516 1.257 . S
Zn524 O527 2.031 . S
Zn524 O529 2.049 . S
Zn524 O534 2.067 . S
Zn525 O526 1.962 . S
Zn525 O528 1.986 . S
Zn525 O530 1.996 . S
Zn525 O533 1.943 . S
O526 Zn525 1.962 . S
O526 C531 1.254 . S
O527 Zn524 2.031 . S
O527 C531 1.269 . S
O528 Zn525 1.986 . S
O528 C535 1.262 . S
O529 Zn524 2.049 . S
O529 C537 1.260 . S
O530 Zn525 1.996 . S
O530 C537 1.257 . S
C531 O526 1.254 . S
C531 O527 1.269 . S
C532 O533 1.249 . S
C532 O534 1.270 . S
O533 Zn525 1.943 . S
O533 C532 1.249 . S
O534 Zn524 2.067 . S
O534 C532 1.270 . S
C535 O528 1.262 . S
C535 O536 1.232 . S
O536 C535 1.232 . S
C537 O529 1.260 . S
C537 O530 1.257 . S
Zn538 O541 2.031 . S
Zn538 O543 2.049 . S
Zn538 O548 2.067 . S
Zn539 O540 1.962 . S
Zn539 O542 1.986 . S
Zn539 O544 1.996 . S
Zn539 O547 1.943 . S
O540 Zn539 1.962 . S
O540 C545 1.254 . S
O541 Zn538 2.031 . S
O541 C545 1.269 . S
O542 Zn539 1.986 . S
O542 C549 1.262 . S
O543 Zn538 2.049 . S
O543 C551 1.260 . S
O544 Zn539 1.996 . S
O544 C551 1.257 . S
C545 O540 1.254 . S
C545 O541 1.269 . S
C546 O547 1.249 . S
C546 O548 1.270 . S
O547 Zn539 1.943 . S
O547 C546 1.249 . S
O548 Zn538 2.067 . S
O548 C546 1.270 . S
C549 O542 1.262 . S
C549 O550 1.232 . S
O550 C549 1.232 . S
C551 O543 1.260 . S
C551 O544 1.257 . S
Zn552 O555 2.031 . S
Zn552 O557 2.049 . S
Zn552 O562 2.067 . S
Zn553 O554 1.962 . S
Zn553 O556 1.986 . S
Zn553 O558 1.996 . S
Zn553 O561 1.943 . S
O554 Zn553 1.962 . S
O554 C559 1.254 . S
O555 Zn552 2.031 . S
O555 C559 1.269 . S
O556 Zn553 1.986 . S
O556 C563 1.262 . S
O557 Zn552 2.049 . S
O557 C565 1.260 . S
O558 Zn553 1.996 . S
O558 C565 1.257 . S
C559 O554 1.254 . S
C559 O555 1.269 . S
C560 O561 1.249 . S
C560 O562 1.270 . S
O561 Zn553 1.943 . S
O561 C560 1.249 . S
O562 Zn552 2.067 . S
O562 C560 1.270 . S
C563 O556 1.262 . S
C563 O564 1.232 . S
O564 C563 1.232 . S
C565 O557 1.260 . S
C565 O558 1.257 . S
Zn566 O569 2.031 . S
Zn566 O571 2.049 . S
Zn566 O576 2.067 . S
Zn567 O568 1.962 . S
Zn567 O570 1.986 . S
Zn567 O572 1.996 . S
Zn567 O575 1.943 . S
O568 Zn567 1.962 . S
O568 C573 1.254 . S
O569 Zn566 2.031 . S
O569 C573 1.269 . S
O570 Zn567 1.986 . S
O570 C577 1.262 . S
O571 Zn566 2.049 . S
O571 C579 1.260 . S
O572 Zn567 1.996 . S
O572 C579 1.257 . S
C573 O568 1.254 . S
C573 O569 1.269 . S
C574 O575 1.249 . S
C574 O576 1.270 . S
O575 Zn567 1.943 . S
O575 C574 1.249 . S
O576 Zn566 2.067 . S
O576 C574 1.270 . S
C577 O570 1.262 . S
C577 O578 1.232 . S
O578 C577 1.232 . S
C579 O571 1.260 . S
C579 O572 1.257 . S
Zn580 O583 2.031 . S
Zn580 O585 2.049 . S
Zn580 O590 2.067 . S
Zn581 O582 1.962 . S
Zn581 O584 1.986 . S
Zn581 O586 1.996 . S
Zn581 O589 1.943 1_556 S
O582 Zn581 1.962 . S
O582 C587 1.254 1_556 S
O583 Zn580 2.031 . S
O583 C587 1.269 . S
O584 Zn581 1.986 . S
O584 C591 1.262 . S
O585 Zn580 2.049 . S
O585 C593 1.260 . S
O586 Zn581 1.996 . S
O586 C593 1.257 1_556 S
C587 O582 1.254 1_554 S
C587 O583 1.269 . S
C588 O589 1.249 . S
C588 O590 1.270 . S
O589 Zn581 1.943 1_554 S
O589 C588 1.249 . S
O590 Zn580 2.067 . S
O590 C588 1.270 . S
C591 O584 1.262 . S
C591 O592 1.232 . S
O592 C591 1.232 . S
C593 O585 1.260 . S
C593 O586 1.257 1_554 S
Zn594 O597 2.031 . S
Zn594 O599 2.049 . S
Zn594 O604 2.067 . S
Zn595 O596 1.962 . S
Zn595 O598 1.986 . S
Zn595 O600 1.996 . S
Zn595 O603 1.943 . S
O596 Zn595 1.962 . S
O596 C601 1.254 . S
O597 Zn594 2.031 . S
O597 C601 1.269 . S
O598 Zn595 1.986 . S
O598 C605 1.262 . S
O599 Zn594 2.049 . S
O599 C607 1.260 . S
O600 Zn595 1.996 . S
O600 C607 1.257 . S
C601 O596 1.254 . S
C601 O597 1.269 . S
C602 O603 1.249 . S
C602 O604 1.270 . S
O603 Zn595 1.943 . S
O603 C602 1.249 . S
O604 Zn594 2.067 . S
O604 C602 1.270 . S
C605 O598 1.262 . S
C605 O606 1.232 . S
O606 C605 1.232 . S
C607 O599 1.260 . S
C607 O600 1.257 . S
H608 C620 0.930 . S
H609 C622 0.930 . S
H610 C623 0.930 . S
H611 C627 0.959 . S
H612 C627 0.959 . S
H613 C627 0.961 . S
H614 C628 0.960 . S
H615 C628 0.961 . S
H616 C628 0.959 . S
H617 C631 0.929 . S
H618 C632 0.931 . S
H619 C634 0.930 . S
C620 H608 0.930 . S
C620 C621 1.399 . S
C620 C625 1.399 . S
C621 C620 1.399 . S
C621 C622 1.376 . S
C622 H609 0.930 . S
C622 C621 1.376 . S
C622 C623 1.388 . S
C623 H610 0.930 . S
C623 C622 1.388 . S
C623 C624 1.390 . S
C624 C623 1.390 . S
C624 C625 1.394 . S
C624 C630 1.465 . S
C625 C620 1.399 . S
C625 C624 1.394 . S
C625 C626 1.516 . S
C626 C625 1.516 . S
C626 C627 1.502 . S
C626 C628 1.561 . S
C626 C629 1.526 . S
C627 H611 0.959 . S
C627 H612 0.959 . S
C627 H613 0.961 . S
C627 C626 1.502 . S
C628 H614 0.960 . S
C628 H615 0.961 . S
C628 H616 0.959 . S
C628 C626 1.561 . S
C629 C626 1.526 . S
C629 C630 1.396 . S
C629 C634 1.390 . S
C630 C624 1.465 . S
C630 C629 1.396 . S
C630 C631 1.399 . S
C631 H617 0.929 . S
C631 C630 1.399 . S
C631 C632 1.385 . S
C632 H618 0.931 . S
C632 C631 1.385 . S
C632 C633 1.389 . S
C633 C632 1.389 . S
C633 C634 1.387 . S
C634 H619 0.930 . S
C634 C629 1.390 . S
C634 C633 1.387 . S
H635 C647 0.930 . S
H636 C649 0.930 . S
H637 C650 0.930 . S
H638 C654 0.959 . S
H639 C654 0.959 . S
H640 C654 0.961 . S
H641 C655 0.960 . S
H642 C655 0.961 . S
H643 C655 0.959 . S
H644 C658 0.929 . S
H645 C659 0.931 . S
H646 C661 0.930 . S
C647 H635 0.930 . S
C647 C648 1.399 . S
C647 C652 1.399 . S
C648 C647 1.399 . S
C648 C649 1.376 . S
C649 H636 0.930 . S
C649 C648 1.376 . S
C649 C650 1.388 . S
C650 H637 0.930 . S
C650 C649 1.388 . S
C650 C651 1.390 . S
C651 C650 1.390 . S
C651 C652 1.394 . S
C651 C657 1.465 . S
C652 C647 1.399 . S
C652 C651 1.394 . S
C652 C653 1.516 . S
C653 C652 1.516 . S
C653 C654 1.502 . S
C653 C655 1.561 . S
C653 C656 1.526 . S
C654 H638 0.959 . S
C654 H639 0.959 . S
C654 H640 0.961 . S
C654 C653 1.502 . S
C655 H641 0.960 . S
C655 H642 0.961 . S
C655 H643 0.959 . S
C655 C653 1.561 . S
C656 C653 1.526 . S
C656 C657 1.396 . S
C656 C661 1.390 . S
C657 C651 1.465 . S
C657 C656 1.396 . S
C657 C658 1.399 . S
C658 H644 0.929 . S
C658 C657 1.399 . S
C658 C659 1.385 . S
C659 H645 0.931 . S
C659 C658 1.385 . S
C659 C660 1.389 . S
C660 C659 1.389 . S
C660 C661 1.387 . S
C661 H646 0.930 . S
C661 C656 1.390 . S
C661 C660 1.387 . S
H662 C674 0.930 . S
H663 C676 0.930 . S
H664 C677 0.930 . S
H665 C681 0.959 . S
H666 C681 0.959 . S
H667 C681 0.961 . S
H668 C682 0.960 . S
H669 C682 0.961 . S
H670 C682 0.959 . S
H671 C685 0.929 . S
H672 C686 0.931 . S
H673 C688 0.930 . S
C674 H662 0.930 . S
C674 C675 1.399 . S
C674 C679 1.399 . S
C675 C674 1.399 . S
C675 C676 1.376 . S
C676 H663 0.930 . S
C676 C675 1.376 . S
C676 C677 1.388 . S
C677 H664 0.930 . S
C677 C676 1.388 . S
C677 C678 1.390 . S
C678 C677 1.390 . S
C678 C679 1.394 . S
C678 C684 1.465 . S
C679 C674 1.399 . S
C679 C678 1.394 . S
C679 C680 1.516 . S
C680 C679 1.516 . S
C680 C681 1.502 . S
C680 C682 1.561 . S
C680 C683 1.526 . S
C681 H665 0.959 . S
C681 H666 0.959 . S
C681 H667 0.961 . S
C681 C680 1.502 . S
C682 H668 0.960 . S
C682 H669 0.961 . S
C682 H670 0.959 . S
C682 C680 1.561 . S
C683 C680 1.526 . S
C683 C684 1.396 . S
C683 C688 1.390 . S
C684 C678 1.465 . S
C684 C683 1.396 . S
C684 C685 1.399 . S
C685 H671 0.929 . S
C685 C684 1.399 . S
C685 C686 1.385 . S
C686 H672 0.931 . S
C686 C685 1.385 . S
C686 C687 1.389 . S
C687 C686 1.389 . S
C687 C688 1.387 . S
C688 H673 0.930 . S
C688 C683 1.390 . S
C688 C687 1.387 . S
H689 C701 0.930 1_556 S
H690 C703 0.930 . S
H691 C704 0.930 . S
H692 C708 0.959 . S
H693 C708 0.959 . S
H694 C708 0.961 . S
H695 C709 0.960 . S
H696 C709 0.961 . S
H697 C709 0.959 . S
H698 C712 0.929 . S
H699 C713 0.931 . S
H700 C715 0.930 1_556 S
C701 H689 0.930 1_554 S
C701 C702 1.399 . S
C701 C706 1.399 . S
C702 C701 1.399 . S
C702 C703 1.376 . S
C703 H690 0.930 . S
C703 C702 1.376 . S
C703 C704 1.388 . S
C704 H691 0.930 . S
C704 C703 1.388 . S
C704 C705 1.390 . S
C705 C704 1.390 . S
C705 C706 1.394 . S
C705 C711 1.465 . S
C706 C701 1.399 . S
C706 C705 1.394 . S
C706 C707 1.516 1_554 S
C707 C706 1.516 1_556 S
C707 C708 1.502 . S
C707 C709 1.561 . S
C707 C710 1.526 1_556 S
C708 H692 0.959 . S
C708 H693 0.959 . S
C708 H694 0.961 . S
C708 C707 1.502 . S
C709 H695 0.960 . S
C709 H696 0.961 . S
C709 H697 0.959 . S
C709 C707 1.561 . S
C710 C707 1.526 1_554 S
C710 C711 1.396 . S
C710 C715 1.390 . S
C711 C705 1.465 . S
C711 C710 1.396 . S
C711 C712 1.399 . S
C712 H698 0.929 . S
C712 C711 1.399 . S
C712 C713 1.385 . S
C713 H699 0.931 . S
C713 C712 1.385 . S
C713 C714 1.389 . S
C714 C713 1.389 . S
C714 C715 1.387 . S
C715 H700 0.930 1_554 S
C715 C710 1.390 . S
C715 C714 1.387 . S
H716 C728 0.930 . S
H717 C730 0.930 . S
H718 C731 0.930 . S
H719 C735 0.959 . S
H720 C735 0.959 . S
H721 C735 0.961 . S
H722 C736 0.960 . S
H723 C736 0.961 . S
H724 C736 0.959 . S
H725 C739 0.929 . S
H726 C740 0.931 . S
H727 C742 0.930 . S
C728 H716 0.930 . S
C728 C729 1.399 . S
C728 C733 1.399 . S
C729 C728 1.399 . S
C729 C730 1.376 . S
C730 H717 0.930 . S
C730 C729 1.376 . S
C730 C731 1.388 . S
C731 H718 0.930 . S
C731 C730 1.388 . S
C731 C732 1.390 . S
C732 C731 1.390 . S
C732 C733 1.394 . S
C732 C738 1.465 . S
C733 C728 1.399 . S
C733 C732 1.394 . S
C733 C734 1.516 . S
C734 C733 1.516 . S
C734 C735 1.502 1_554 S
C734 C736 1.561 . S
C734 C737 1.526 . S
C735 H719 0.959 . S
C735 H720 0.959 . S
C735 H721 0.961 . S
C735 C734 1.502 1_556 S
C736 H722 0.960 . S
C736 H723 0.961 . S
C736 H724 0.959 . S
C736 C734 1.561 . S
C737 C734 1.526 . S
C737 C738 1.396 . S
C737 C742 1.390 . S
C738 C732 1.465 . S
C738 C737 1.396 . S
C738 C739 1.399 . S
C739 H725 0.929 . S
C739 C738 1.399 . S
C739 C740 1.385 . S
C740 H726 0.931 . S
C740 C739 1.385 . S
C740 C741 1.389 . S
C741 C740 1.389 . S
C741 C742 1.387 . S
C742 H727 0.930 . S
C742 C737 1.390 . S
C742 C741 1.387 . S
H743 C755 0.930 . S
H744 C757 0.930 . S
H745 C758 0.930 . S
H746 C762 0.959 . S
H747 C762 0.959 . S
H748 C762 0.961 . S
H749 C763 0.960 . S
H750 C763 0.961 . S
H751 C763 0.959 . S
H752 C766 0.929 . S
H753 C767 0.931 . S
H754 C769 0.930 . S
C755 H743 0.930 . S
C755 C756 1.399 . S
C755 C760 1.399 . S
C756 C755 1.399 . S
C756 C757 1.376 . S
C757 H744 0.930 . S
C757 C756 1.376 . S
C757 C758 1.388 . S
C758 H745 0.930 . S
C758 C757 1.388 . S
C758 C759 1.390 . S
C759 C758 1.390 . S
C759 C760 1.394 . S
C759 C765 1.465 . S
C760 C755 1.399 . S
C760 C759 1.394 . S
C760 C761 1.516 . S
C761 C760 1.516 . S
C761 C762 1.502 . S
C761 C763 1.561 . S
C761 C764 1.526 . S
C762 H746 0.959 . S
C762 H747 0.959 . S
C762 H748 0.961 . S
C762 C761 1.502 . S
C763 H749 0.960 . S
C763 H750 0.961 . S
C763 H751 0.959 . S
C763 C761 1.561 . S
C764 C761 1.526 . S
C764 C765 1.396 . S
C764 C769 1.390 . S
C765 C759 1.465 . S
C765 C764 1.396 . S
C765 C766 1.399 . S
C766 H752 0.929 . S
C766 C765 1.399 . S
C766 C767 1.385 . S
C767 H753 0.931 . S
C767 C766 1.385 . S
C767 C768 1.389 . S
C768 C767 1.389 . S
C768 C769 1.387 . S
C769 H754 0.930 . S
C769 C764 1.390 . S
C769 C768 1.387 . S
H770 C782 0.930 . S
H771 C784 0.930 . S
H772 C785 0.930 . S
H773 C789 0.959 . S
H774 C789 0.959 . S
H775 C789 0.961 . S
H776 C790 0.960 . S
H777 C790 0.961 . S
H778 C790 0.959 . S
H779 C793 0.929 . S
H780 C794 0.931 . S
H781 C796 0.930 . S
C782 H770 0.930 . S
C782 C783 1.399 . S
C782 C787 1.399 . S
C783 C782 1.399 . S
C783 C784 1.376 . S
C784 H771 0.930 . S
C784 C783 1.376 . S
C784 C785 1.388 . S
C785 H772 0.930 . S
C785 C784 1.388 . S
C785 C786 1.390 . S
C786 C785 1.390 . S
C786 C787 1.394 . S
C786 C792 1.465 . S
C787 C782 1.399 . S
C787 C786 1.394 . S
C787 C788 1.516 . S
C788 C787 1.516 . S
C788 C789 1.502 . S
C788 C790 1.561 . S
C788 C791 1.526 . S
C789 H773 0.959 . S
C789 H774 0.959 . S
C789 H775 0.961 . S
C789 C788 1.502 . S
C790 H776 0.960 . S
C790 H777 0.961 . S
C790 H778 0.959 . S
C790 C788 1.561 . S
C791 C788 1.526 . S
C791 C792 1.396 . S
C791 C796 1.390 . S
C792 C786 1.465 . S
C792 C791 1.396 . S
C792 C793 1.399 . S
C793 H779 0.929 . S
C793 C792 1.399 . S
C793 C794 1.385 . S
C794 H780 0.931 . S
C794 C793 1.385 . S
C794 C795 1.389 . S
C795 C794 1.389 . S
C795 C796 1.387 . S
C796 H781 0.930 . S
C796 C791 1.390 . S
C796 C795 1.387 . S
H797 C809 0.930 . S
H798 C811 0.930 . S
H799 C812 0.930 . S
H800 C816 0.959 . S
H801 C816 0.959 . S
H802 C816 0.961 . S
H803 C817 0.960 . S
H804 C817 0.961 . S
H805 C817 0.959 . S
H806 C820 0.929 . S
H807 C821 0.931 . S
H808 C823 0.930 . S
C809 H797 0.930 . S
C809 C810 1.399 . S
C809 C814 1.399 . S
C810 C809 1.399 . S
C810 C811 1.376 . S
C811 H798 0.930 . S
C811 C810 1.376 . S
C811 C812 1.388 . S
C812 H799 0.930 . S
C812 C811 1.388 . S
C812 C813 1.390 . S
C813 C812 1.390 . S
C813 C814 1.394 . S
C813 C819 1.465 . S
C814 C809 1.399 . S
C814 C813 1.394 . S
C814 C815 1.516 . S
C815 C814 1.516 . S
C815 C816 1.502 . S
C815 C817 1.561 . S
C815 C818 1.526 . S
C816 H800 0.959 . S
C816 H801 0.959 . S
C816 H802 0.961 . S
C816 C815 1.502 . S
C817 H803 0.960 . S
C817 H804 0.961 . S
C817 H805 0.959 . S
C817 C815 1.561 . S
C818 C815 1.526 . S
C818 C819 1.396 . S
C818 C823 1.390 . S
C819 C813 1.465 . S
C819 C818 1.396 . S
C819 C820 1.399 . S
C820 H806 0.929 . S
C820 C819 1.399 . S
C820 C821 1.385 . S
C821 H807 0.931 . S
C821 C820 1.385 . S
C821 C822 1.389 . S
C822 C821 1.389 . S
C822 C823 1.387 . S
C823 H808 0.930 . S
C823 C818 1.390 . S
C823 C822 1.387 . S
H824 C836 0.930 . S
H825 C838 0.930 . S
H826 C839 0.930 . S
H827 C843 0.959 . S
H828 C843 0.959 . S
H829 C843 0.961 . S
H830 C844 0.960 . S
H831 C844 0.961 . S
H832 C844 0.959 . S
H833 C847 0.929 . S
H834 C848 0.931 . S
H835 C850 0.930 . S
C836 H824 0.930 . S
C836 C837 1.399 . S
C836 C841 1.399 . S
C837 C836 1.399 . S
C837 C838 1.376 . S
C838 H825 0.930 . S
C838 C837 1.376 . S
C838 C839 1.388 . S
C839 H826 0.930 . S
C839 C838 1.388 . S
C839 C840 1.390 . S
C840 C839 1.390 . S
C840 C841 1.394 . S
C840 C846 1.465 . S
C841 C836 1.399 . S
C841 C840 1.394 . S
C841 C842 1.516 . S
C842 C841 1.516 . S
C842 C843 1.502 . S
C842 C844 1.561 . S
C842 C845 1.526 . S
C843 H827 0.959 . S
C843 H828 0.959 . S
C843 H829 0.961 . S
C843 C842 1.502 . S
C844 H830 0.960 . S
C844 H831 0.961 . S
C844 H832 0.959 . S
C844 C842 1.561 . S
C845 C842 1.526 . S
C845 C846 1.396 . S
C845 C850 1.390 . S
C846 C840 1.465 . S
C846 C845 1.396 . S
C846 C847 1.399 . S
C847 H833 0.929 . S
C847 C846 1.399 . S
C847 C848 1.385 . S
C848 H834 0.931 . S
C848 C847 1.385 . S
C848 C849 1.389 . S
C849 C848 1.389 . S
C849 C850 1.387 . S
C850 H835 0.930 . S
C850 C845 1.390 . S
C850 C849 1.387 . S
H851 C863 0.930 1_556 S
H852 C865 0.930 . S
H853 C866 0.930 . S
H854 C870 0.959 . S
H855 C870 0.959 . S
H856 C870 0.961 . S
H857 C871 0.960 . S
H858 C871 0.961 . S
H859 C871 0.959 . S
H860 C874 0.929 . S
H861 C875 0.931 . S
H862 C877 0.985 . S
C863 H851 0.930 1_554 S
C863 C864 1.399 . S
C863 C868 1.399 . S
C864 C863 1.399 . S
C864 C865 1.376 . S
C865 H852 0.930 . S
C865 C864 1.376 . S
C865 C866 1.388 . S
C866 H853 0.930 . S
C866 C865 1.388 . S
C866 C867 1.390 . S
C867 C866 1.390 . S
C867 C868 1.394 . S
C867 C873 1.465 . S
C868 C863 1.399 . S
C868 C867 1.394 . S
C868 C869 1.516 1_554 S
C869 C868 1.516 1_556 S
C869 C870 1.502 . S
C869 C871 1.561 . S
C869 C872 1.526 1_556 S
C870 H854 0.959 . S
C870 H855 0.959 . S
C870 H856 0.961 . S
C870 C869 1.502 . S
C871 H857 0.960 . S
C871 H858 0.961 . S
C871 H859 0.959 . S
C871 C869 1.561 . S
C872 C869 1.526 1_554 S
C872 C873 1.396 . S
C872 C877 1.375 1_554 S
C873 C867 1.465 . S
C873 C872 1.396 . S
C873 C874 1.399 . S
C874 H860 0.929 . S
C874 C873 1.399 . S
C874 C875 1.385 . S
C875 H861 0.931 . S
C875 C874 1.385 . S
C875 C876 1.389 . S
C876 C875 1.389 . S
C876 C877 1.349 1_554 S
C877 H862 0.985 . S
C877 C872 1.375 1_556 S
C877 C876 1.349 1_556 S
H878 C890 0.930 . S
H879 C892 0.930 . S
H880 C893 0.930 . S
H881 C897 0.959 . S
H882 C897 0.959 . S
H883 C897 0.961 . S
H884 C898 0.960 . S
H885 C898 0.961 . S
H886 C898 0.959 . S
H887 C901 0.929 . S
H888 C902 0.931 . S
H889 C904 0.930 . S
C890 H878 0.930 . S
C890 C891 1.399 . S
C890 C895 1.399 . S
C891 C890 1.399 . S
C891 C892 1.376 . S
C892 H879 0.930 . S
C892 C891 1.376 . S
C892 C893 1.388 . S
C893 H880 0.930 . S
C893 C892 1.388 . S
C893 C894 1.390 . S
C894 C893 1.390 . S
C894 C895 1.394 . S
C894 C900 1.465 . S
C895 C890 1.399 . S
C895 C894 1.394 . S
C895 C896 1.516 . S
C896 C895 1.516 . S
C896 C897 1.502 . S
C896 C898 1.561 . S
C896 C899 1.526 . S
C897 H881 0.959 . S
C897 H882 0.959 . S
C897 H883 0.961 . S
C897 C896 1.502 . S
C898 H884 0.960 . S
C898 H885 0.961 . S
C898 H886 0.959 . S
C898 C896 1.561 . S
C899 C896 1.526 . S
C899 C900 1.396 . S
C899 C904 1.390 . S
C900 C894 1.465 . S
C900 C899 1.396 . S
C900 C901 1.399 . S
C901 H887 0.929 . S
C901 C900 1.399 . S
C901 C902 1.385 . S
C902 H888 0.931 . S
C902 C901 1.385 . S
C902 C903 1.389 . S
C903 C902 1.389 . S
C903 C904 1.387 . S
C904 H889 0.930 . S
C904 C899 1.390 . S
C904 C903 1.387 . S
H905 C917 0.930 . S
H906 C919 0.930 . S
H907 C920 0.930 . S
H908 C924 0.959 . S
H909 C924 0.959 . S
H910 C924 0.961 . S
H911 C925 0.960 . S
H912 C925 0.961 . S
H913 C925 0.959 . S
H914 C928 0.929 . S
H915 C929 0.931 . S
H916 C931 0.930 . S
C917 H905 0.930 . S
C917 C918 1.399 . S
C917 C922 1.399 . S
C918 C917 1.399 . S
C918 C919 1.376 . S
C919 H906 0.930 . S
C919 C918 1.376 . S
C919 C920 1.388 . S
C920 H907 0.930 . S
C920 C919 1.388 . S
C920 C921 1.390 . S
C921 C920 1.390 . S
C921 C922 1.394 . S
C921 C927 1.465 . S
C922 C917 1.399 . S
C922 C921 1.394 . S
C922 C923 1.516 . S
C923 C922 1.516 . S
C923 C924 1.502 . S
C923 C925 1.561 . S
C923 C926 1.526 . S
C924 H908 0.959 . S
C924 H909 0.959 . S
C924 H910 0.961 . S
C924 C923 1.502 . S
C925 H911 0.960 . S
C925 H912 0.961 . S
C925 H913 0.959 . S
C925 C923 1.561 . S
C926 C923 1.526 . S
C926 C927 1.396 . S
C926 C931 1.390 . S
C927 C921 1.465 . S
C927 C926 1.396 . S
C927 C928 1.399 . S
C928 H914 0.929 . S
C928 C927 1.399 . S
C928 C929 1.385 . S
C929 H915 0.931 . S
C929 C928 1.385 . S
C929 C930 1.389 . S
C930 C929 1.389 . S
C930 C931 1.387 . S
C931 H916 0.930 . S
C931 C926 1.390 . S
C931 C930 1.387 . S
H932 C944 0.930 . S
H933 C946 0.930 . S
H934 C947 0.930 . S
H935 C951 0.959 . S
H936 C951 0.959 . S
H937 C951 0.961 . S
H938 C952 0.960 . S
H939 C952 0.961 . S
H940 C952 0.959 . S
H941 C955 0.929 . S
H942 C956 0.931 . S
H943 C958 0.930 . S
C944 H932 0.930 . S
C944 C945 1.399 . S
C944 C949 1.399 . S
C945 C944 1.399 . S
C945 C946 1.376 . S
C946 H933 0.930 . S
C946 C945 1.376 . S
C946 C947 1.388 . S
C947 H934 0.930 . S
C947 C946 1.388 . S
C947 C948 1.390 . S
C948 C947 1.390 . S
C948 C949 1.394 . S
C948 C954 1.465 . S
C949 C944 1.399 . S
C949 C948 1.394 . S
C949 C950 1.516 . S
C950 C949 1.516 . S
C950 C951 1.502 . S
C950 C952 1.561 . S
C950 C953 1.526 . S
C951 H935 0.959 . S
C951 H936 0.959 . S
C951 H937 0.961 . S
C951 C950 1.502 . S
C952 H938 0.960 . S
C952 H939 0.961 . S
C952 H940 0.959 . S
C952 C950 1.561 . S
C953 C950 1.526 . S
C953 C954 1.396 . S
C953 C958 1.390 . S
C954 C948 1.465 . S
C954 C953 1.396 . S
C954 C955 1.399 . S
C955 H941 0.929 . S
C955 C954 1.399 . S
C955 C956 1.385 . S
C956 H942 0.931 . S
C956 C955 1.385 . S
C956 C957 1.389 . S
C957 C956 1.389 . S
C957 C958 1.387 . S
C958 H943 0.930 . S
C958 C953 1.390 . S
C958 C957 1.387 . S
H959 C971 0.930 . S
H960 C973 0.930 . S
H961 C974 0.930 . S
H962 C978 0.959 . S
H963 C978 0.959 . S
H964 C978 0.961 . S
H965 C979 0.960 . S
H966 C979 0.961 . S
H967 C979 0.959 . S
H968 C982 0.929 . S
H969 C983 0.931 . S
H970 C985 0.930 . S
C971 H959 0.930 . S
C971 C972 1.399 . S
C971 C976 1.399 . S
C972 C971 1.399 . S
C972 C973 1.376 . S
C973 H960 0.930 . S
C973 C972 1.376 . S
C973 C974 1.388 . S
C974 H961 0.930 . S
C974 C973 1.388 . S
C974 C975 1.390 . S
C975 C974 1.390 . S
C975 C976 1.394 . S
C975 C981 1.465 . S
C976 C971 1.399 . S
C976 C975 1.394 . S
C976 C977 1.516 . S
C977 C976 1.516 . S
C977 C978 1.502 . S
C977 C979 1.561 . S
C977 C980 1.526 . S
C978 H962 0.959 . S
C978 H963 0.959 . S
C978 H964 0.961 . S
C978 C977 1.502 . S
C979 H965 0.960 . S
C979 H966 0.961 . S
C979 H967 0.959 . S
C979 C977 1.561 . S
C980 C977 1.526 . S
C980 C981 1.396 . S
C980 C985 1.390 . S
C981 C975 1.465 . S
C981 C980 1.396 . S
C981 C982 1.399 . S
C982 H968 0.929 . S
C982 C981 1.399 . S
C982 C983 1.385 . S
C983 H969 0.931 . S
C983 C982 1.385 . S
C983 C984 1.389 . S
C984 C983 1.389 . S
C984 C985 1.387 . S
C985 H970 0.930 . S
C985 C980 1.390 . S
C985 C984 1.387 . S
H986 C998 0.930 . S
H987 C1000 0.930 . S
H988 C1001 0.930 . S
H989 C1005 0.959 . S
H990 C1005 0.959 . S
H991 C1005 0.961 . S
H992 C1006 0.960 . S
H993 C1006 0.961 . S
H994 C1006 0.959 . S
H995 C1009 0.929 . S
H996 C1010 0.931 . S
H997 C1012 0.930 . S
C998 H986 0.930 . S
C998 C999 1.399 1_554 S
C998 C1003 1.399 . S
C999 C998 1.399 1_556 S
C999 C1000 1.376 . S
C1000 H987 0.930 . S
C1000 C999 1.376 . S
C1000 C1001 1.388 . S
C1001 H988 0.930 . S
C1001 C1000 1.388 . S
C1001 C1002 1.390 . S
C1002 C1001 1.390 . S
C1002 C1003 1.394 1_556 S
C1002 C1008 1.465 . S
C1003 C998 1.399 . S
C1003 C1002 1.394 1_554 S
C1003 C1004 1.516 . S
C1004 C1003 1.516 . S
C1004 C1005 1.502 . S
C1004 C1006 1.561 . S
C1004 C1007 1.526 . S
C1005 H989 0.959 . S
C1005 H990 0.959 . S
C1005 H991 0.961 . S
C1005 C1004 1.502 . S
C1006 H992 0.960 . S
C1006 H993 0.961 . S
C1006 H994 0.959 . S
C1006 C1004 1.561 . S
C1007 C1004 1.526 . S
C1007 C1008 1.396 1_554 S
C1007 C1012 1.390 . S
C1008 C1002 1.465 . S
C1008 C1007 1.396 1_556 S
C1008 C1009 1.399 . S
C1009 H995 0.929 . S
C1009 C1008 1.399 . S
C1009 C1010 1.385 . S
C1010 H996 0.931 . S
C1010 C1009 1.385 . S
C1010 C1011 1.389 . S
C1011 C1010 1.389 . S
C1011 C1012 1.387 1_556 S
C1012 H997 0.930 . S
C1012 C1007 1.390 . S
C1012 C1011 1.387 1_554 S
H1013 C1025 0.930 . S
H1014 C1027 0.930 . S
H1015 C1028 0.930 . S
H1016 C1032 0.959 . S
H1017 C1032 0.959 . S
H1018 C1032 0.961 . S
H1019 C1033 0.960 . S
H1020 C1033 0.961 . S
H1021 C1033 0.959 . S
H1022 C1036 0.929 . S
H1023 C1037 0.931 . S
H1024 C1039 0.930 . S
C1025 H1013 0.930 . S
C1025 C1026 1.399 . S
C1025 C1030 1.399 . S
C1026 C1025 1.399 . S
C1026 C1027 1.376 . S
C1027 H1014 0.930 . S
C1027 C1026 1.376 . S
C1027 C1028 1.388 . S
C1028 H1015 0.930 . S
C1028 C1027 1.388 . S
C1028 C1029 1.390 . S
C1029 C1028 1.390 . S
C1029 C1030 1.394 . S
C1029 C1035 1.465 . S
C1030 C1025 1.399 . S
C1030 C1029 1.394 . S
C1030 C1031 1.516 . S
C1031 C1030 1.516 . S
C1031 C1032 1.502 . S
C1031 C1033 1.561 . S
C1031 C1034 1.526 . S
C1032 H1016 0.959 . S
C1032 H1017 0.959 . S
C1032 H1018 0.961 . S
C1032 C1031 1.502 . S
C1033 H1019 0.960 . S
C1033 H1020 0.961 . S
C1033 H1021 0.959 . S
C1033 C1031 1.561 . S
C1034 C1031 1.526 . S
C1034 C1035 1.396 . S
C1034 C1039 1.390 . S
C1035 C1029 1.465 . S
C1035 C1034 1.396 . S
C1035 C1036 1.399 . S
C1036 H1022 0.929 . S
C1036 C1035 1.399 . S
C1036 C1037 1.385 . S
C1037 H1023 0.931 . S
C1037 C1036 1.385 . S
C1037 C1038 1.389 . S
C1038 C1037 1.389 . S
C1038 C1039 1.387 . S
C1039 H1024 0.930 . S
C1039 C1034 1.390 . S
C1039 C1038 1.387 . S
H1040 C1052 0.930 . S
H1041 C1054 0.930 . S
H1042 C1055 0.930 . S
H1043 C1059 0.959 . S
H1044 C1059 0.959 . S
H1045 C1059 0.961 . S
H1046 C1060 0.960 . S
H1047 C1060 0.961 . S
H1048 C1060 0.959 . S
H1049 C1063 0.929 . S
H1050 C1064 0.931 . S
H1051 C1066 0.930 . S
C1052 H1040 0.930 . S
C1052 C1053 1.399 . S
C1052 C1057 1.399 . S
C1053 C1052 1.399 . S
C1053 C1054 1.376 . S
C1054 H1041 0.930 . S
C1054 C1053 1.376 . S
C1054 C1055 1.388 . S
C1055 H1042 0.930 . S
C1055 C1054 1.388 . S
C1055 C1056 1.390 . S
C1056 C1055 1.390 . S
C1056 C1057 1.394 . S
C1056 C1062 1.465 . S
C1057 C1052 1.399 . S
C1057 C1056 1.394 . S
C1057 C1058 1.516 . S
C1058 C1057 1.516 . S
C1058 C1059 1.502 . S
C1058 C1060 1.561 . S
C1058 C1061 1.526 . S
C1059 H1043 0.959 . S
C1059 H1044 0.959 . S
C1059 H1045 0.961 . S
C1059 C1058 1.502 . S
C1060 H1046 0.960 . S
C1060 H1047 0.961 . S
C1060 H1048 0.959 . S
C1060 C1058 1.561 . S
C1061 C1058 1.526 . S
C1061 C1062 1.396 . S
C1061 C1066 1.390 . S
C1062 C1056 1.465 . S
C1062 C1061 1.396 . S
C1062 C1063 1.399 . S
C1063 H1049 0.929 . S
C1063 C1062 1.399 . S
C1063 C1064 1.385 . S
C1064 H1050 0.931 . S
C1064 C1063 1.385 . S
C1064 C1065 1.389 . S
C1065 C1064 1.389 . S
C1065 C1066 1.387 . S
C1066 H1051 0.930 . S
C1066 C1061 1.390 . S
C1066 C1065 1.387 . S
H1067 C1079 0.930 . S
H1068 C1081 0.930 . S
H1069 C1082 0.930 . S
H1070 C1086 0.959 . S
H1071 C1086 0.959 . S
H1072 C1086 0.961 . S
H1073 C1087 0.960 . S
H1074 C1087 0.961 . S
H1075 C1087 0.959 . S
H1076 C1090 0.929 . S
H1077 C1091 0.931 . S
H1078 C1093 0.930 . S
C1079 H1067 0.930 . S
C1079 C1080 1.399 . S
C1079 C1084 1.399 . S
C1080 C1079 1.399 . S
C1080 C1081 1.376 . S
C1081 H1068 0.930 . S
C1081 C1080 1.376 . S
C1081 C1082 1.388 . S
C1082 H1069 0.930 . S
C1082 C1081 1.388 . S
C1082 C1083 1.390 . S
C1083 C1082 1.390 . S
C1083 C1084 1.394 . S
C1083 C1089 1.465 . S
C1084 C1079 1.399 . S
C1084 C1083 1.394 . S
C1084 C1085 1.516 . S
C1085 C1084 1.516 . S
C1085 C1086 1.502 . S
C1085 C1087 1.561 . S
C1085 C1088 1.526 . S
C1086 H1070 0.959 . S
C1086 H1071 0.959 . S
C1086 H1072 0.961 . S
C1086 C1085 1.502 . S
C1087 H1073 0.960 . S
C1087 H1074 0.961 . S
C1087 H1075 0.959 . S
C1087 C1085 1.561 . S
C1088 C1085 1.526 . S
C1088 C1089 1.396 . S
C1088 C1093 1.390 . S
C1089 C1083 1.465 . S
C1089 C1088 1.396 . S
C1089 C1090 1.399 . S
C1090 H1076 0.929 . S
C1090 C1089 1.399 . S
C1090 C1091 1.385 . S
C1091 H1077 0.931 . S
C1091 C1090 1.385 . S
C1091 C1092 1.389 . S
C1092 C1091 1.389 . S
C1092 C1093 1.387 . S
C1093 H1078 0.930 . S
C1093 C1088 1.390 . S
C1093 C1092 1.387 . S
H1094 C1106 0.930 . S
H1095 C1108 0.930 . S
H1096 C1109 0.930 . S
H1097 C1113 0.959 . S
H1098 C1113 0.959 . S
H1099 C1113 0.961 . S
H1100 C1114 0.960 . S
H1101 C1114 0.961 . S
H1102 C1114 0.959 . S
H1103 C1117 0.929 . S
H1104 C1118 0.931 . S
H1105 C1120 0.930 . S
C1106 H1094 0.930 . S
C1106 C1107 1.399 . S
C1106 C1111 1.399 . S
C1107 C1106 1.399 . S
C1107 C1108 1.376 . S
C1108 H1095 0.930 . S
C1108 C1107 1.376 . S
C1108 C1109 1.388 . S
C1109 H1096 0.930 . S
C1109 C1108 1.388 . S
C1109 C1110 1.390 . S
C1110 C1109 1.390 . S
C1110 C1111 1.394 . S
C1110 C1116 1.465 . S
C1111 C1106 1.399 . S
C1111 C1110 1.394 . S
C1111 C1112 1.516 . S
C1112 C1111 1.516 . S
C1112 C1113 1.502 . S
C1112 C1114 1.561 . S
C1112 C1115 1.526 . S
C1113 H1097 0.959 . S
C1113 H1098 0.959 . S
C1113 H1099 0.961 . S
C1113 C1112 1.502 . S
C1114 H1100 0.960 . S
C1114 H1101 0.961 . S
C1114 H1102 0.959 . S
C1114 C1112 1.561 . S
C1115 C1112 1.526 . S
C1115 C1116 1.396 . S
C1115 C1120 1.390 . S
C1116 C1110 1.465 . S
C1116 C1115 1.396 . S
C1116 C1117 1.399 . S
C1117 H1103 0.929 . S
C1117 C1116 1.399 . S
C1117 C1118 1.385 . S
C1118 H1104 0.931 . S
C1118 C1117 1.385 . S
C1118 C1119 1.389 . S
C1119 C1118 1.389 . S
C1119 C1120 1.387 . S
C1120 H1105 0.930 . S
C1120 C1115 1.390 . S
C1120 C1119 1.387 . S
H1121 C1133 0.930 . S
H1122 C1135 0.930 . S
H1123 C1136 0.930 . S
H1124 C1140 0.959 . S
H1125 C1140 0.959 . S
H1126 C1140 0.961 . S
H1127 C1141 0.960 . S
H1128 C1141 0.961 . S
H1129 C1141 0.959 . S
H1130 C1144 0.929 . S
H1131 C1145 0.931 . S
H1132 C1147 0.930 . S
C1133 H1121 0.930 . S
C1133 C1134 1.399 . S
C1133 C1138 1.399 . S
C1134 C1133 1.399 . S
C1134 C1135 1.376 . S
C1135 H1122 0.930 . S
C1135 C1134 1.376 . S
C1135 C1136 1.388 . S
C1136 H1123 0.930 . S
C1136 C1135 1.388 . S
C1136 C1137 1.390 . S
C1137 C1136 1.390 . S
C1137 C1138 1.394 . S
C1137 C1143 1.465 . S
C1138 C1133 1.399 . S
C1138 C1137 1.394 . S
C1138 C1139 1.516 . S
C1139 C1138 1.516 . S
C1139 C1140 1.502 . S
C1139 C1141 1.561 . S
C1139 C1142 1.526 . S
C1140 H1124 0.959 . S
C1140 H1125 0.959 . S
C1140 H1126 0.961 . S
C1140 C1139 1.502 . S
C1141 H1127 0.960 . S
C1141 H1128 0.961 . S
C1141 H1129 0.959 . S
C1141 C1139 1.561 . S
C1142 C1139 1.526 . S
C1142 C1143 1.396 . S
C1142 C1147 1.390 . S
C1143 C1137 1.465 . S
C1143 C1142 1.396 . S
C1143 C1144 1.399 . S
C1144 H1130 0.929 . S
C1144 C1143 1.399 . S
C1144 C1145 1.385 . S
C1145 H1131 0.931 . S
C1145 C1144 1.385 . S
C1145 C1146 1.389 . S
C1146 C1145 1.389 . S
C1146 C1147 1.387 . S
C1147 H1132 0.930 . S
C1147 C1142 1.390 . S
C1147 C1146 1.387 . S
H1148 C1160 0.930 . S
H1149 C1162 0.930 . S
H1150 C1163 0.930 . S
H1151 C1167 0.959 . S
H1152 C1167 0.959 . S
H1153 C1167 0.961 . S
H1154 C1168 0.960 . S
H1155 C1168 0.961 . S
H1156 C1168 0.959 . S
H1157 C1171 0.929 . S
H1158 C1172 0.931 . S
H1159 C1174 0.930 . S
C1160 H1148 0.930 . S
C1160 C1161 1.399 . S
C1160 C1165 1.399 . S
C1161 C1160 1.399 . S
C1161 C1162 1.376 . S
C1162 H1149 0.930 . S
C1162 C1161 1.376 . S
C1162 C1163 1.388 . S
C1163 H1150 0.930 . S
C1163 C1162 1.388 . S
C1163 C1164 1.390 . S
C1164 C1163 1.390 . S
C1164 C1165 1.394 . S
C1164 C1170 1.465 . S
C1165 C1160 1.399 . S
C1165 C1164 1.394 . S
C1165 C1166 1.516 . S
C1166 C1165 1.516 . S
C1166 C1167 1.502 . S
C1166 C1168 1.561 . S
C1166 C1169 1.526 . S
C1167 H1151 0.959 . S
C1167 H1152 0.959 . S
C1167 H1153 0.961 . S
C1167 C1166 1.502 . S
C1168 H1154 0.960 . S
C1168 H1155 0.961 . S
C1168 H1156 0.959 . S
C1168 C1166 1.561 . S
C1169 C1166 1.526 . S
C1169 C1170 1.396 . S
C1169 C1174 1.390 . S
C1170 C1164 1.465 . S
C1170 C1169 1.396 . S
C1170 C1171 1.399 . S
C1171 H1157 0.929 . S
C1171 C1170 1.399 . S
C1171 C1172 1.385 . S
C1172 H1158 0.931 . S
C1172 C1171 1.385 . S
C1172 C1173 1.389 . S
C1173 C1172 1.389 . S
C1173 C1174 1.387 . S
C1174 H1159 0.930 . S
C1174 C1169 1.390 . S
C1174 C1173 1.387 . S
H1175 C1187 0.930 . S
H1176 C1189 0.930 . S
H1177 C1190 0.930 . S
H1178 C1194 0.959 . S
H1179 C1194 0.959 . S
H1180 C1194 0.961 . S
H1181 C1195 0.960 . S
H1182 C1195 0.961 . S
H1183 C1195 0.959 . S
H1184 C1198 0.929 . S
H1185 C1199 0.931 . S
H1186 C1201 0.930 . S
C1187 H1175 0.930 . S
C1187 C1188 1.399 . S
C1187 C1192 1.399 . S
C1188 C1187 1.399 . S
C1188 C1189 1.376 . S
C1189 H1176 0.930 . S
C1189 C1188 1.376 . S
C1189 C1190 1.388 . S
C1190 H1177 0.930 . S
C1190 C1189 1.388 . S
C1190 C1191 1.390 . S
C1191 C1190 1.390 . S
C1191 C1192 1.394 . S
C1191 C1197 1.465 . S
C1192 C1187 1.399 . S
C1192 C1191 1.394 . S
C1192 C1193 1.516 . S
C1193 C1192 1.516 . S
C1193 C1194 1.502 . S
C1193 C1195 1.561 . S
C1193 C1196 1.526 . S
C1194 H1178 0.959 . S
C1194 H1179 0.959 . S
C1194 H1180 0.961 . S
C1194 C1193 1.502 . S
C1195 H1181 0.960 . S
C1195 H1182 0.961 . S
C1195 H1183 0.959 . S
C1195 C1193 1.561 . S
C1196 C1193 1.526 . S
C1196 C1197 1.396 . S
C1196 C1201 1.390 . S
C1197 C1191 1.465 . S
C1197 C1196 1.396 . S
C1197 C1198 1.399 . S
C1198 H1184 0.929 . S
C1198 C1197 1.399 . S
C1198 C1199 1.385 . S
C1199 H1185 0.931 . S
C1199 C1198 1.385 . S
C1199 C1200 1.389 . S
C1200 C1199 1.389 . S
C1200 C1201 1.387 . S
C1201 H1186 0.930 . S
C1201 C1196 1.390 . S
C1201 C1200 1.387 . S
H1202 C1214 0.930 . S
H1203 C1216 0.930 . S
H1204 C1217 0.930 . S
H1205 C1221 0.959 . S
H1206 C1221 0.959 . S
H1207 C1221 0.961 . S
H1208 C1222 0.960 . S
H1209 C1222 0.961 . S
H1210 C1222 0.959 . S
H1211 C1225 0.929 . S
H1212 C1226 0.931 . S
H1213 C1228 0.930 . S
C1214 H1202 0.930 . S
C1214 C1215 1.399 . S
C1214 C1219 1.399 . S
C1215 C1214 1.399 . S
C1215 C1216 1.376 . S
C1216 H1203 0.930 . S
C1216 C1215 1.376 . S
C1216 C1217 1.388 . S
C1217 H1204 0.930 . S
C1217 C1216 1.388 . S
C1217 C1218 1.390 . S
C1218 C1217 1.390 . S
C1218 C1219 1.394 . S
C1218 C1224 1.465 . S
C1219 C1214 1.399 . S
C1219 C1218 1.394 . S
C1219 C1220 1.516 . S
C1220 C1219 1.516 . S
C1220 C1221 1.502 . S
C1220 C1222 1.561 . S
C1220 C1223 1.526 . S
C1221 H1205 0.959 . S
C1221 H1206 0.959 . S
C1221 H1207 0.961 . S
C1221 C1220 1.502 . S
C1222 H1208 0.960 . S
C1222 H1209 0.961 . S
C1222 H1210 0.959 . S
C1222 C1220 1.561 . S
C1223 C1220 1.526 . S
C1223 C1224 1.396 . S
C1223 C1228 1.390 . S
C1224 C1218 1.465 . S
C1224 C1223 1.396 . S
C1224 C1225 1.399 . S
C1225 H1211 0.929 . S
C1225 C1224 1.399 . S
C1225 C1226 1.385 . S
C1226 H1212 0.931 . S
C1226 C1225 1.385 . S
C1226 C1227 1.389 . S
C1227 C1226 1.389 . S
C1227 C1228 1.387 . S
C1228 H1213 0.930 . S
C1228 C1223 1.390 . S
C1228 C1227 1.387 . S
H1229 C1241 0.930 . S
H1230 C1243 0.930 . S
H1231 C1244 0.930 . S
H1232 C1248 0.959 . S
H1233 C1248 0.959 . S
H1234 C1248 0.961 . S
H1235 C1249 0.960 . S
H1236 C1249 0.961 . S
H1237 C1249 0.959 . S
H1238 C1252 0.929 . S
H1239 C1253 0.931 . S
H1240 C1255 0.930 . S
C1241 H1229 0.930 . S
C1241 C1242 1.399 . S
C1241 C1246 1.399 . S
C1242 C1241 1.399 . S
C1242 C1243 1.376 . S
C1243 H1230 0.930 . S
C1243 C1242 1.376 . S
C1243 C1244 1.388 . S
C1244 H1231 0.930 . S
C1244 C1243 1.388 . S
C1244 C1245 1.390 . S
C1245 C1244 1.390 . S
C1245 C1246 1.394 . S
C1245 C1251 1.465 . S
C1246 C1241 1.399 . S
C1246 C1245 1.394 . S
C1246 C1247 1.516 . S
C1247 C1246 1.516 . S
C1247 C1248 1.502 . S
C1247 C1249 1.561 . S
C1247 C1250 1.526 . S
C1248 H1232 0.959 . S
C1248 H1233 0.959 . S
C1248 H1234 0.961 . S
C1248 C1247 1.502 . S
C1249 H1235 0.960 . S
C1249 H1236 0.961 . S
C1249 H1237 0.959 . S
C1249 C1247 1.561 . S
C1250 C1247 1.526 . S
C1250 C1251 1.396 . S
C1250 C1255 1.390 . S
C1251 C1245 1.465 . S
C1251 C1250 1.396 . S
C1251 C1252 1.399 . S
C1252 H1238 0.929 . S
C1252 C1251 1.399 . S
C1252 C1253 1.385 . S
C1253 H1239 0.931 . S
C1253 C1252 1.385 . S
C1253 C1254 1.389 . S
C1254 C1253 1.389 . S
C1254 C1255 1.387 . S
C1255 H1240 0.930 . S
C1255 C1250 1.390 . S
C1255 C1254 1.387 . S
H1256 C1268 0.930 . S
H1257 C1270 0.930 . S
H1258 C1271 0.930 . S
H1259 C1275 0.959 . S
H1260 C1275 0.959 . S
H1261 C1275 0.961 . S
H1262 C1276 0.960 . S
H1263 C1276 0.961 . S
H1264 C1276 0.959 . S
H1265 C1279 0.929 . S
H1266 C1280 0.931 . S
H1267 C1282 0.930 . S
C1268 H1256 0.930 . S
C1268 C1269 1.399 . S
C1268 C1273 1.399 . S
C1269 C1268 1.399 . S
C1269 C1270 1.376 . S
C1270 H1257 0.930 . S
C1270 C1269 1.376 . S
C1270 C1271 1.388 . S
C1271 H1258 0.930 . S
C1271 C1270 1.388 . S
C1271 C1272 1.390 . S
C1272 C1271 1.390 . S
C1272 C1273 1.394 . S
C1272 C1278 1.465 . S
C1273 C1268 1.399 . S
C1273 C1272 1.394 . S
C1273 C1274 1.516 . S
C1274 C1273 1.516 . S
C1274 C1275 1.502 . S
C1274 C1276 1.561 . S
C1274 C1277 1.526 . S
C1275 H1259 0.959 . S
C1275 H1260 0.959 . S
C1275 H1261 0.961 . S
C1275 C1274 1.502 . S
C1276 H1262 0.960 . S
C1276 H1263 0.961 . S
C1276 H1264 0.959 . S
C1276 C1274 1.561 . S
C1277 C1274 1.526 . S
C1277 C1278 1.396 . S
C1277 C1282 1.390 . S
C1278 C1272 1.465 . S
C1278 C1277 1.396 . S
C1278 C1279 1.399 . S
C1279 H1265 0.929 . S
C1279 C1278 1.399 . S
C1279 C1280 1.385 . S
C1280 H1266 0.931 . S
C1280 C1279 1.385 . S
C1280 C1281 1.389 . S
C1281 C1280 1.389 . S
C1281 C1282 1.387 . S
C1282 H1267 0.930 . S
C1282 C1277 1.390 . S
C1282 C1281 1.387 . S
H1283 C1295 0.930 . S
H1284 C1297 0.930 . S
H1285 C1298 0.930 . S
H1286 C1302 0.959 . S
H1287 C1302 0.959 . S
H1288 C1302 0.961 . S
H1289 C1303 0.960 . S
H1290 C1303 0.961 . S
H1291 C1303 0.959 . S
H1292 C1306 0.929 . S
H1293 C1307 0.931 . S
H1294 C1309 0.930 . S
C1295 H1283 0.930 . S
C1295 C1296 1.399 . S
C1295 C1300 1.399 . S
C1296 C1295 1.399 . S
C1296 C1297 1.376 . S
C1297 H1284 0.930 . S
C1297 C1296 1.376 . S
C1297 C1298 1.388 . S
C1298 H1285 0.930 . S
C1298 C1297 1.388 . S
C1298 C1299 1.390 . S
C1299 C1298 1.390 . S
C1299 C1300 1.394 . S
C1299 C1305 1.465 . S
C1300 C1295 1.399 . S
C1300 C1299 1.394 . S
C1300 C1301 1.516 . S
C1301 C1300 1.516 . S
C1301 C1302 1.502 . S
C1301 C1303 1.561 . S
C1301 C1304 1.526 . S
C1302 H1286 0.959 . S
C1302 H1287 0.959 . S
C1302 H1288 0.961 . S
C1302 C1301 1.502 . S
C1303 H1289 0.960 . S
C1303 H1290 0.961 . S
C1303 H1291 0.959 . S
C1303 C1301 1.561 . S
C1304 C1301 1.526 . S
C1304 C1305 1.396 . S
C1304 C1309 1.390 . S
C1305 C1299 1.465 . S
C1305 C1304 1.396 . S
C1305 C1306 1.399 . S
C1306 H1292 0.929 . S
C1306 C1305 1.399 . S
C1306 C1307 1.385 . S
C1307 H1293 0.931 . S
C1307 C1306 1.385 . S
C1307 C1308 1.389 . S
C1308 C1307 1.389 . S
C1308 C1309 1.387 . S
C1309 H1294 0.930 . S
C1309 C1304 1.390 . S
C1309 C1308 1.387 . S
H1310 C1322 0.930 . S
H1311 C1324 0.930 . S
H1312 C1325 0.930 . S
H1313 C1329 0.959 . S
H1314 C1329 0.959 . S
H1315 C1329 0.961 . S
H1316 C1330 0.960 . S
H1317 C1330 0.961 . S
H1318 C1330 0.959 . S
H1319 C1333 0.929 . S
H1320 C1334 0.931 . S
H1321 C1336 0.930 . S
C1322 H1310 0.930 . S
C1322 C1323 1.399 . S
C1322 C1327 1.399 . S
C1323 C1322 1.399 . S
C1323 C1324 1.376 . S
C1324 H1311 0.930 . S
C1324 C1323 1.376 . S
C1324 C1325 1.388 . S
C1325 H1312 0.930 . S
C1325 C1324 1.388 . S
C1325 C1326 1.390 . S
C1326 C1325 1.390 . S
C1326 C1327 1.394 . S
C1326 C1332 1.465 . S
C1327 C1322 1.399 . S
C1327 C1326 1.394 . S
C1327 C1328 1.516 . S
C1328 C1327 1.516 . S
C1328 C1329 1.502 . S
C1328 C1330 1.561 . S
C1328 C1331 1.526 . S
C1329 H1313 0.959 . S
C1329 H1314 0.959 . S
C1329 H1315 0.961 . S
C1329 C1328 1.502 . S
C1330 H1316 0.960 . S
C1330 H1317 0.961 . S
C1330 H1318 0.959 . S
C1330 C1328 1.561 . S
C1331 C1328 1.526 . S
C1331 C1332 1.396 . S
C1331 C1336 1.390 . S
C1332 C1326 1.465 . S
C1332 C1331 1.396 . S
C1332 C1333 1.399 . S
C1333 H1319 0.929 . S
C1333 C1332 1.399 . S
C1333 C1334 1.385 . S
C1334 H1320 0.931 . S
C1334 C1333 1.385 . S
C1334 C1335 1.389 . S
C1335 C1334 1.389 . S
C1335 C1336 1.387 . S
C1336 H1321 0.930 . S
C1336 C1331 1.390 . S
C1336 C1335 1.387 . S
H1337 C1349 0.930 . S
H1338 C1351 0.930 . S
H1339 C1352 0.930 . S
H1340 C1356 0.959 . S
H1341 C1356 0.959 . S
H1342 C1356 0.961 . S
H1343 C1357 0.960 . S
H1344 C1357 0.961 . S
H1345 C1357 0.959 . S
H1346 C1360 0.929 . S
H1347 C1361 0.931 . S
H1348 C1363 0.930 . S
C1349 H1337 0.930 . S
C1349 C1350 1.399 . S
C1349 C1354 1.399 . S
C1350 C1349 1.399 . S
C1350 C1351 1.376 . S
C1351 H1338 0.930 . S
C1351 C1350 1.376 . S
C1351 C1352 1.388 . S
C1352 H1339 0.930 . S
C1352 C1351 1.388 . S
C1352 C1353 1.390 . S
C1353 C1352 1.390 . S
C1353 C1354 1.394 . S
C1353 C1359 1.465 . S
C1354 C1349 1.399 . S
C1354 C1353 1.394 . S
C1354 C1355 1.516 . S
C1355 C1354 1.516 . S
C1355 C1356 1.502 . S
C1355 C1357 1.561 . S
C1355 C1358 1.526 . S
C1356 H1340 0.959 . S
C1356 H1341 0.959 . S
C1356 H1342 0.961 . S
C1356 C1355 1.502 . S
C1357 H1343 0.960 . S
C1357 H1344 0.961 . S
C1357 H1345 0.959 . S
C1357 C1355 1.561 . S
C1358 C1355 1.526 . S
C1358 C1359 1.396 . S
C1358 C1363 1.390 . S
C1359 C1353 1.465 . S
C1359 C1358 1.396 . S
C1359 C1360 1.399 . S
C1360 H1346 0.929 . S
C1360 C1359 1.399 . S
C1360 C1361 1.385 . S
C1361 H1347 0.931 . S
C1361 C1360 1.385 . S
C1361 C1362 1.389 . S
C1362 C1361 1.389 . S
C1362 C1363 1.387 . S
C1363 H1348 0.930 . S
C1363 C1358 1.390 . S
C1363 C1362 1.387 . S
H1364 C1376 0.930 . S
H1365 C1378 0.930 . S
H1366 C1379 0.930 . S
H1367 C1383 0.959 . S
H1368 C1383 0.959 . S
H1369 C1383 0.961 . S
H1370 C1384 0.960 . S
H1371 C1384 0.961 . S
H1372 C1384 0.959 . S
H1373 C1387 0.929 . S
H1374 C1388 0.931 . S
H1375 C1390 0.930 . S
C1376 H1364 0.930 . S
C1376 C1377 1.399 . S
C1376 C1381 1.399 . S
C1377 C1376 1.399 . S
C1377 C1378 1.376 . S
C1378 H1365 0.930 . S
C1378 C1377 1.376 . S
C1378 C1379 1.388 . S
C1379 H1366 0.930 . S
C1379 C1378 1.388 . S
C1379 C1380 1.390 . S
C1380 C1379 1.390 . S
C1380 C1381 1.394 . S
C1380 C1386 1.465 . S
C1381 C1376 1.399 . S
C1381 C1380 1.394 . S
C1381 C1382 1.516 . S
C1382 C1381 1.516 . S
C1382 C1383 1.502 . S
C1382 C1384 1.561 . S
C1382 C1385 1.526 . S
C1383 H1367 0.959 . S
C1383 H1368 0.959 . S
C1383 H1369 0.961 . S
C1383 C1382 1.502 . S
C1384 H1370 0.960 . S
C1384 H1371 0.961 . S
C1384 H1372 0.959 . S
C1384 C1382 1.561 . S
C1385 C1382 1.526 . S
C1385 C1386 1.396 . S
C1385 C1390 1.390 . S
C1386 C1380 1.465 . S
C1386 C1385 1.396 . S
C1386 C1387 1.399 . S
C1387 H1373 0.929 . S
C1387 C1386 1.399 . S
C1387 C1388 1.385 . S
C1388 H1374 0.931 . S
C1388 C1387 1.385 . S
C1388 C1389 1.389 . S
C1389 C1388 1.389 . S
C1389 C1390 1.387 . S
C1390 H1375 0.930 . S
C1390 C1385 1.390 . S
C1390 C1389 1.387 . S
H1391 C1403 0.930 . S
H1392 C1405 0.930 . S
H1393 C1406 0.930 . S
H1394 C1410 0.959 . S
H1395 C1410 0.959 . S
H1396 C1410 0.961 . S
H1397 C1411 0.960 . S
H1398 C1411 0.961 . S
H1399 C1411 0.959 . S
H1400 C1414 0.929 . S
H1401 C1415 0.931 . S
H1402 C1417 0.930 . S
C1403 H1391 0.930 . S
C1403 C1404 1.399 . S
C1403 C1408 1.399 . S
C1404 C1403 1.399 . S
C1404 C1405 1.376 . S
C1405 H1392 0.930 . S
C1405 C1404 1.376 . S
C1405 C1406 1.388 . S
C1406 H1393 0.930 . S
C1406 C1405 1.388 . S
C1406 C1407 1.390 . S
C1407 C1406 1.390 . S
C1407 C1408 1.394 . S
C1407 C1413 1.465 . S
C1408 C1403 1.399 . S
C1408 C1407 1.394 . S
C1408 C1409 1.516 . S
C1409 C1408 1.516 . S
C1409 C1410 1.502 . S
C1409 C1411 1.561 . S
C1409 C1412 1.526 . S
C1410 H1394 0.959 . S
C1410 H1395 0.959 . S
C1410 H1396 0.961 . S
C1410 C1409 1.502 . S
C1411 H1397 0.960 . S
C1411 H1398 0.961 . S
C1411 H1399 0.959 . S
C1411 C1409 1.561 . S
C1412 C1409 1.526 . S
C1412 C1413 1.396 . S
C1412 C1417 1.390 . S
C1413 C1407 1.465 . S
C1413 C1412 1.396 . S
C1413 C1414 1.399 . S
C1414 H1400 0.929 . S
C1414 C1413 1.399 . S
C1414 C1415 1.385 . S
C1415 H1401 0.931 . S
C1415 C1414 1.385 . S
C1415 C1416 1.389 . S
C1416 C1415 1.389 . S
C1416 C1417 1.387 . S
C1417 H1402 0.930 . S
C1417 C1412 1.390 . S
C1417 C1416 1.387 . S
H1418 C1430 0.930 . S
H1419 C1432 0.930 . S
H1420 C1433 0.930 . S
H1421 C1437 0.959 . S
H1422 C1437 0.959 . S
H1423 C1437 0.961 . S
H1424 C1438 0.960 . S
H1425 C1438 0.961 . S
H1426 C1438 0.959 . S
H1427 C1441 0.929 . S
H1428 C1442 0.931 . S
H1429 C1444 0.930 . S
C1430 H1418 0.930 . S
C1430 C1431 1.399 . S
C1430 C1435 1.399 . S
C1431 C1430 1.399 . S
C1431 C1432 1.376 . S
C1432 H1419 0.930 . S
C1432 C1431 1.376 . S
C1432 C1433 1.388 . S
C1433 H1420 0.930 . S
C1433 C1432 1.388 . S
C1433 C1434 1.390 . S
C1434 C1433 1.390 . S
C1434 C1435 1.394 . S
C1434 C1440 1.465 . S
C1435 C1430 1.399 . S
C1435 C1434 1.394 . S
C1435 C1436 1.516 . S
C1436 C1435 1.516 . S
C1436 C1437 1.502 . S
C1436 C1438 1.561 . S
C1436 C1439 1.526 . S
C1437 H1421 0.959 . S
C1437 H1422 0.959 . S
C1437 H1423 0.961 . S
C1437 C1436 1.502 . S
C1438 H1424 0.960 . S
C1438 H1425 0.961 . S
C1438 H1426 0.959 . S
C1438 C1436 1.561 . S
C1439 C1436 1.526 . S
C1439 C1440 1.396 . S
C1439 C1444 1.390 . S
C1440 C1434 1.465 . S
C1440 C1439 1.396 . S
C1440 C1441 1.399 . S
C1441 H1427 0.929 . S
C1441 C1440 1.399 . S
C1441 C1442 1.385 . S
C1442 H1428 0.931 . S
C1442 C1441 1.385 . S
C1442 C1443 1.389 . S
C1443 C1442 1.389 . S
C1443 C1444 1.387 . S
C1444 H1429 0.930 . S
C1444 C1439 1.390 . S
C1444 C1443 1.387 . S
H1445 C1457 0.930 . S
H1446 C1459 0.930 . S
H1447 C1460 0.930 . S
H1448 C1464 0.959 . S
H1449 C1464 0.959 . S
H1450 C1464 0.961 . S
H1451 C1465 0.960 . S
H1452 C1465 0.961 . S
H1453 C1465 0.959 . S
H1454 C1468 0.929 . S
H1455 C1469 0.931 . S
H1456 C1471 0.930 . S
C1457 H1445 0.930 . S
C1457 C1458 1.399 . S
C1457 C1462 1.399 . S
C1458 C1457 1.399 . S
C1458 C1459 1.376 . S
C1459 H1446 0.930 . S
C1459 C1458 1.376 . S
C1459 C1460 1.388 . S
C1460 H1447 0.930 . S
C1460 C1459 1.388 . S
C1460 C1461 1.390 . S
C1461 C1460 1.390 . S
C1461 C1462 1.394 . S
C1461 C1467 1.465 . S
C1462 C1457 1.399 . S
C1462 C1461 1.394 . S
C1462 C1463 1.516 . S
C1463 C1462 1.516 . S
C1463 C1464 1.502 . S
C1463 C1465 1.561 . S
C1463 C1466 1.526 . S
C1464 H1448 0.959 . S
C1464 H1449 0.959 . S
C1464 H1450 0.961 . S
C1464 C1463 1.502 . S
C1465 H1451 0.960 . S
C1465 H1452 0.961 . S
C1465 H1453 0.959 . S
C1465 C1463 1.561 . S
C1466 C1463 1.526 . S
C1466 C1467 1.396 . S
C1466 C1471 1.390 . S
C1467 C1461 1.465 . S
C1467 C1466 1.396 . S
C1467 C1468 1.399 . S
C1468 H1454 0.929 . S
C1468 C1467 1.399 . S
C1468 C1469 1.385 . S
C1469 H1455 0.931 . S
C1469 C1468 1.385 . S
C1469 C1470 1.389 . S
C1470 C1469 1.389 . S
C1470 C1471 1.387 . S
C1471 H1456 0.930 . S
C1471 C1466 1.390 . S
C1471 C1470 1.387 . S
C633 C517 1.425 . S
C621 C35 1.222 . S
C660 C537 1.391 . S
C648 C115 1.223 . S
C687 C551 1.428 . S
C675 C177 1.294 . S
C702 C221 1.321 . S
C714 C509 1.517 . S
C729 C283 1.464 1_554 S
C741 C503 1.636 . S
C756 C363 1.382 . S
C768 C523 1.540 . S
C795 C531 1.462 . S
C783 C407 1.367 . S
C822 C545 1.586 . S
C810 C469 1.429 . S
C837 C159 1.464 . S
C849 C573 1.581 . S
C876 C587 1.451 . S
C864 C239 1.290 . S
C891 C53 1.455 . S
C903 C607 1.458 . S
C930 C559 1.642 . S
C918 C97 1.390 . S
C945 C425 1.433 . S
C957 C565 1.424 . S
C972 C487 1.260 . S
C984 C579 1.437 . S
C1011 C593 1.404 1_556 S
C999 C301 1.241 . S
C1026 C345 1.339 . S
C1038 C601 1.427 . S
C1065 C532 1.862 . S
C1053 C29 1.855 . S
C1092 C546 1.868 . S
C1080 C109 1.793 . S
C1107 C171 1.758 . S
C1119 C504 1.809 . S
C1134 C215 1.564 . S
C1146 C521 1.621 . S
C1161 C277 1.524 . S
C1173 C549 1.549 . S
C1200 C507 1.542 . S
C1188 C357 1.475 . S
C1227 C518 1.779 . S
C1215 C401 1.778 . S
C1254 C535 1.619 . S
C1242 C463 1.622 . S
C1281 C591 1.627 . S
C1269 C153 1.593 . S
C1308 C602 1.801 . S
C1296 C233 1.776 . S
C1323 C47 1.451 . S
C1335 C563 1.542 . S
C1362 C577 1.553 . S
C1350 C91 1.556 . S
C1389 C605 1.616 . S
C1377 C419 1.568 . S
C1404 C481 1.752 . S
C1416 C560 1.807 . S
C1443 C574 1.866 . S
C1431 C295 1.785 . S
C1470 C588 1.865 . S
C1458 C339 1.847 . S
