# Generated by pormake.
# Topology dag, (6,3)-cn, num edge types: 1
# Building blocks:
#     Node 0, Type 0, BuildingBlock: MIDCAF_clean_sbu_0, # of connection points: 6
#     Node 1, Type 0, BuildingBlock: MIDCAF_clean_sbu_0, # of connection points: 6
#     Node 2, Type 0, BuildingBlock: MIDCAF_clean_sbu_0, # of connection points: 6
#     Node 3, Type 0, BuildingBlock: MIDCAF_clean_sbu_0, # of connection points: 6
#     Node 4, Type 1, BuildingBlock: CUQRIR_clean_linker_1, # of connection points: 3
#     Node 5, Type 1, BuildingBlock: CUQRIR_clean_linker_1, # of connection points: 3
#     Node 6, Type 1, BuildingBlock: CUQRIR_clean_linker_1, # of connection points: 3
#     Node 7, Type 1, BuildingBlock: CUQRIR_clean_linker_1, # of connection points: 3
#     Node 8, Type 1, BuildingBlock: CUQRIR_clean_linker_1, # of connection points: 3
#     Node 9, Type 1, BuildingBlock: CUQRIR_clean_linker_1, # of connection points: 3
#     Node 10, Type 1, BuildingBlock: CUQRIR_clean_linker_1, # of connection points: 3
#     Node 11, Type 1, BuildingBlock: CUQRIR_clean_linker_1, # of connection points: 3
#     Edge 12, Type (0, 1), BuildingBlock: XUDNAN_clean_linker_2, # of connection points: 2
#     Edge 13, Type (0, 1), BuildingBlock: XUDNAN_clean_linker_2, # of connection points: 2
#     Edge 14, Type (0, 1), BuildingBlock: XUDNAN_clean_linker_2, # of connection points: 2
#     Edge 15, Type (0, 1), BuildingBlock: XUDNAN_clean_linker_2, # of connection points: 2
#     Edge 16, Type (0, 1), BuildingBlock: XUDNAN_clean_linker_2, # of connection points: 2
#     Edge 17, Type (0, 1), BuildingBlock: XUDNAN_clean_linker_2, # of connection points: 2
#     Edge 18, Type (0, 1), BuildingBlock: XUDNAN_clean_linker_2, # of connection points: 2
#     Edge 19, Type (0, 1), BuildingBlock: XUDNAN_clean_linker_2, # of connection points: 2
#     Edge 20, Type (0, 1), BuildingBlock: XUDNAN_clean_linker_2, # of connection points: 2
#     Edge 21, Type (0, 1), BuildingBlock: XUDNAN_clean_linker_2, # of connection points: 2
#     Edge 22, Type (0, 1), BuildingBlock: XUDNAN_clean_linker_2, # of connection points: 2
#     Edge 23, Type (0, 1), BuildingBlock: XUDNAN_clean_linker_2, # of connection points: 2
#     Edge 24, Type (0, 1), BuildingBlock: XUDNAN_clean_linker_2, # of connection points: 2
#     Edge 25, Type (0, 1), BuildingBlock: XUDNAN_clean_linker_2, # of connection points: 2
#     Edge 26, Type (0, 1), BuildingBlock: XUDNAN_clean_linker_2, # of connection points: 2
#     Edge 27, Type (0, 1), BuildingBlock: XUDNAN_clean_linker_2, # of connection points: 2
#     Edge 28, Type (0, 1), BuildingBlock: XUDNAN_clean_linker_2, # of connection points: 2
#     Edge 29, Type (0, 1), BuildingBlock: XUDNAN_clean_linker_2, # of connection points: 2
#     Edge 30, Type (0, 1), BuildingBlock: XUDNAN_clean_linker_2, # of connection points: 2
#     Edge 31, Type (0, 1), BuildingBlock: XUDNAN_clean_linker_2, # of connection points: 2
#     Edge 32, Type (0, 1), BuildingBlock: XUDNAN_clean_linker_2, # of connection points: 2
#     Edge 33, Type (0, 1), BuildingBlock: XUDNAN_clean_linker_2, # of connection points: 2
#     Edge 34, Type (0, 1), BuildingBlock: XUDNAN_clean_linker_2, # of connection points: 2
#     Edge 35, Type (0, 1), BuildingBlock: XUDNAN_clean_linker_2, # of connection points: 2
# Relax obj value: 0.120
# Max RMSD: 0.123
# Mean RMSD: 0.093
data_MOF--net-dag--node1-MIDCAF_clean_sbu_0--node2-CUQRIR_clean_linker_1--edge1-XUDNAN_clean_linker_2
_symmetry_space_group_name_H-M    P1
_symmetry_Int_Tables_number       1
_symmetry_cell_setting            triclinic
loop_
_symmetry_equiv_pos_as_xyz
'x, y, z'
_cell_length_a     37.512145
_cell_length_b     37.657281
_cell_length_c     29.426838
_cell_angle_alpha  89.678121
_cell_angle_beta   89.789429
_cell_angle_gamma 90.327638
loop_
_atom_site_label
_atom_site_type_symbol
_atom_site_fract_x
_atom_site_fract_y
_atom_site_fract_z
_atom_type_partial_charge
Zn0 Zn 0.08922 0.90247 0.0902 0.0
Zn1 Zn 0.15526 0.90757 0.89453 0.0
Zn2 Zn 0.10941 0.89918 0.00999 0.0
C3 C 0.13489 0.97194 0.95108 0.0
C4 C 0.09313 0.87793 0.90631 0.0
O5 O 0.13918 0.8572 0.04467 0.0
O6 O 0.10698 0.85422 0.10737 0.0
C7 C 0.13529 0.95958 0.07728 0.0
O8 O 0.12628 0.95406 0.98746 0.0
O9 O 0.14353 0.95753 0.91364 0.0
O10 O 0.11106 0.88092 0.87003 0.0
O11 O 0.1071 0.88968 0.94229 0.0
O12 O 0.11934 0.94302 0.10876 0.0
O13 O 0.13288 0.94888 0.03599 0.0
O14 O 0.05145 0.88907 0.0148 0.0
O15 O 0.03721 0.90849 0.08251 0.0
C16 C 0.02764 0.89584 0.04482 0.0
O17 O 0.14407 0.85459 0.99093 0.0
O18 O 0.18135 0.88621 0.94952 0.0
C19 C 0.13156 0.84204 0.08259 0.0
C20 C 0.17127 0.85614 0.96428 0.0
Zn21 Zn 0.59322 0.58677 0.44998 0.0
Zn22 Zn 0.61313 0.59866 0.60143 0.0
Zn23 Zn 0.60559 0.60474 0.52111 0.0
C24 C 0.60738 0.52934 0.57054 0.0
C25 C 0.55607 0.64581 0.58754 0.0
O26 O 0.6447 0.63512 0.47782 0.0
O27 O 0.60826 0.63348 0.41955 0.0
C28 C 0.66159 0.56738 0.47073 0.0
O29 O 0.60323 0.54732 0.53397 0.0
O30 O 0.61158 0.54556 0.60764 0.0
O31 O 0.57203 0.62885 0.6185 0.0
O32 O 0.56428 0.64066 0.54575 0.0
O33 O 0.63412 0.55251 0.45419 0.0
O34 O 0.65842 0.59698 0.49202 0.0
O35 O 0.55403 0.62566 0.4975 0.0
O36 O 0.54077 0.57734 0.45919 0.0
C37 C 0.53109 0.60652 0.47622 0.0
O38 O 0.6574 0.63252 0.5274 0.0
O39 O 0.65988 0.62415 0.60184 0.0
C40 C 0.63579 0.64666 0.43794 0.0
C41 C 0.67296 0.63739 0.56587 0.0
Zn42 Zn 0.91283 0.09018 0.95961 0.0
Zn43 Zn 0.8675 0.09968 0.10688 0.0
Zn44 Zn 0.88408 0.10203 0.02666 0.0
C45 C 0.9415 0.09732 0.10496 0.0
C46 C 0.82566 0.04788 0.06596 0.0
O47 O 0.86292 0.14367 0.98024 0.0
O48 O 0.87077 0.10963 0.92076 0.0
C49 C 0.9351 0.15467 0.98457 0.0
O50 O 0.9336 0.0997 0.06286 0.0
O51 O 0.91678 0.09419 0.13408 0.0
O52 O 0.83234 0.06018 0.1049 0.0
O53 O 0.84304 0.05985 0.0312 0.0
O54 O 0.95103 0.12576 0.97681 0.0
O55 O 0.90203 0.15337 0.99645 0.0
O56 O 0.86861 0.05019 0.9947 0.0
O57 O 0.91905 0.03743 0.95994 0.0
C58 C 0.88852 0.0278 0.9736 0.0
O59 O 0.86125 0.15522 0.02892 0.0
O60 O 0.84768 0.14877 0.10183 0.0
C61 C 0.85521 0.13595 0.93858 0.0
C62 C 0.84781 0.16744 0.06595 0.0
Zn63 Zn 0.43178 0.39807 0.597 0.0
Zn64 Zn 0.436 0.36349 0.44504 0.0
Zn65 Zn 0.42348 0.3869 0.51919 0.0
C66 C 0.50148 0.36577 0.48459 0.0
C67 C 0.41001 0.4351 0.43879 0.0
O68 O 0.38294 0.35318 0.55757 0.0
O69 O 0.38314 0.38454 0.62069 0.0
C70 C 0.44951 0.32897 0.57325 0.0
O71 O 0.48256 0.38319 0.51308 0.0
O72 O 0.48655 0.3501 0.45192 0.0
O73 O 0.427 0.41159 0.41727 0.0
O74 O 0.4019 0.43022 0.48063 0.0
O75 O 0.46375 0.35548 0.59287 0.0
O76 O 0.42242 0.33386 0.54726 0.0
O77 O 0.40549 0.44079 0.53435 0.0
O78 O 0.44259 0.4502 0.59066 0.0
C79 C 0.41947 0.46207 0.56331 0.0
O80 O 0.38445 0.34307 0.50861 0.0
O81 O 0.39773 0.3271 0.43848 0.0
C82 C 0.3689 0.36064 0.59666 0.0
C83 C 0.3777 0.32451 0.47289 0.0
C84 C 0.16209 0.19538 0.2995 0.0
N85 N 0.15673 0.17328 0.26404 0.0
N86 N 0.19746 0.19883 0.30852 0.0
C87 C 0.13254 0.21266 0.32578 0.0
C88 C 0.21324 0.1782 0.2766 0.0
N89 N 0.18856 0.16254 0.24975 0.0
C90 C 0.25281 0.1765 0.26795 0.0
H91 H 0.12618 0.23855 0.30967 0.0
H92 H 0.14049 0.21724 0.36156 0.0
H93 H 0.10809 0.19594 0.32517 0.0
H94 H 0.25839 0.17006 0.23187 0.0
H95 H 0.26461 0.15541 0.28951 0.0
H96 H 0.26587 0.20215 0.27627 0.0
C97 C 0.28317 0.6756 0.71857 0.0
N98 N 0.31246 0.67512 0.69162 0.0
N99 N 0.28061 0.70713 0.74021 0.0
C100 C 0.2582 0.64474 0.72547 0.0
C101 C 0.30949 0.72575 0.72549 0.0
N102 N 0.32909 0.70617 0.6962 0.0
C103 C 0.31939 0.76239 0.74173 0.0
H104 H 0.25437 0.63024 0.69311 0.0
H105 H 0.23203 0.65369 0.7387 0.0
H106 H 0.27012 0.62609 0.7504 0.0
H107 H 0.32684 0.76098 0.77815 0.0
H108 H 0.29636 0.78049 0.73877 0.0
H109 H 0.34171 0.77409 0.72178 0.0
C110 C 0.75052 0.79681 0.17375 0.0
N111 N 0.77174 0.81148 0.14125 0.0
N112 N 0.76761 0.77007 0.19554 0.0
C113 C 0.71423 0.81036 0.18686 0.0
C114 C 0.80006 0.76908 0.17493 0.0
N115 N 0.80243 0.79406 0.14171 0.0
C116 C 0.83019 0.74552 0.18922 0.0
H117 H 0.71537 0.82132 0.22176 0.0
H118 H 0.69459 0.78829 0.18713 0.0
H119 H 0.70458 0.83105 0.16304 0.0
H120 H 0.84638 0.73777 0.15928 0.0
H121 H 0.82003 0.72137 0.20687 0.0
H122 H 0.84772 0.7604 0.21278 0.0
C123 C 0.7127 0.29129 0.68645 0.0
N124 N 0.68659 0.29266 0.65486 0.0
N125 N 0.71405 0.25861 0.70605 0.0
C126 C 0.73599 0.32223 0.69905 0.0
C127 C 0.68737 0.24039 0.68547 0.0
N128 N 0.67085 0.261 0.65417 0.0
C129 C 0.67532 0.20369 0.69931 0.0
H130 H 0.7617 0.31304 0.71332 0.0
H131 H 0.72204 0.33834 0.72501 0.0
H132 H 0.74106 0.33944 0.66894 0.0
H133 H 0.67224 0.20224 0.73681 0.0
H134 H 0.69601 0.18427 0.68942 0.0
H135 H 0.64989 0.19595 0.68292 0.0
C136 C 0.74094 0.31629 0.31298 0.0
N137 N 0.73273 0.34084 0.34484 0.0
N138 N 0.76743 0.32846 0.28496 0.0
C139 C 0.72318 0.28054 0.30964 0.0
C140 C 0.77472 0.36145 0.3012 0.0
N141 N 0.7538 0.36871 0.33746 0.0
C142 C 0.80202 0.38677 0.28131 0.0
H143 H 0.71371 0.27127 0.34343 0.0
H144 H 0.74172 0.26061 0.29539 0.0
H145 H 0.69965 0.28273 0.28707 0.0
H146 H 0.80407 0.38354 0.24395 0.0
H147 H 0.82835 0.38119 0.29671 0.0
H148 H 0.79587 0.41484 0.28845 0.0
C149 C 0.14915 0.25622 0.79354 0.0
N150 N 0.13551 0.23427 0.8261 0.0
N151 N 0.18309 0.24714 0.78316 0.0
C152 C 0.13033 0.28773 0.77348 0.0
C153 C 0.18974 0.21893 0.81046 0.0
N154 N 0.16094 0.21114 0.83674 0.0
C155 C 0.22333 0.19731 0.8087 0.0
H156 H 0.11568 0.27921 0.74269 0.0
H157 H 0.1498 0.3086 0.7632 0.0
H158 H 0.11102 0.29899 0.79805 0.0
H159 H 0.24162 0.20655 0.83577 0.0
H160 H 0.2371 0.20043 0.77547 0.0
H161 H 0.21741 0.16876 0.8147 0.0
C162 C 0.29744 0.6545 0.25623 0.0
N163 N 0.32042 0.64734 0.29005 0.0
N164 N 0.28762 0.68907 0.25744 0.0
C165 C 0.28485 0.62782 0.22201 0.0
C166 C 0.30558 0.70251 0.29358 0.0
N167 N 0.32553 0.67695 0.31337 0.0
C168 C 0.30196 0.73974 0.31081 0.0
H169 H 0.30582 0.60782 0.21537 0.0
H170 H 0.27733 0.64107 0.18968 0.0
H171 H 0.26111 0.61373 0.23589 0.0
H172 H 0.27371 0.74824 0.30899 0.0
H173 H 0.31788 0.75782 0.28871 0.0
H174 H 0.31171 0.74204 0.34622 0.0
C175 C 0.80797 0.80048 0.78289 0.0
N176 N 0.83259 0.81434 0.81158 0.0
N177 N 0.82372 0.77837 0.7523 0.0
C178 C 0.76859 0.80659 0.78696 0.0
C179 C 0.8588 0.78001 0.76339 0.0
N180 N 0.86396 0.80123 0.79954 0.0
C181 C 0.88872 0.76397 0.7362 0.0
H182 H 0.7614 0.81556 0.82165 0.0
H183 H 0.75354 0.78198 0.7789 0.0
H184 H 0.76074 0.82756 0.76239 0.0
H185 H 0.88088 0.76018 0.70022 0.0
H186 H 0.89592 0.73789 0.75113 0.0
H187 H 0.91275 0.78128 0.73735 0.0
H188 H 0.12827 0.03103 0.0604 0.0
H189 H 0.19348 0.95271 0.12831 0.0
H190 H 0.22364 0.99997 0.17116 0.0
H191 H 0.20157 0.10431 0.0594 0.0
H192 H 0.17156 0.13997 0.07292 0.0
H193 H 0.1566 0.1045 0.03731 0.0
H194 H 0.10415 0.08582 0.08738 0.0
H195 H 0.11426 0.12505 0.11895 0.0
H196 H 0.11062 0.08288 0.14797 0.0
H197 H 0.23229 0.05038 0.22161 0.0
H198 H 0.22625 0.10385 0.26872 0.0
H199 H 0.16488 0.154 0.16202 0.0
C200 C 0.15052 0.02437 0.08211 0.0
C201 C 0.15934 0.98855 0.09047 0.0
C202 C 0.18708 0.98018 0.12093 0.0
C203 C 0.20436 0.00683 0.14535 0.0
C204 C 0.19407 0.04185 0.13818 0.0
C205 C 0.16879 0.05105 0.10601 0.0
C206 C 0.15997 0.09032 0.10914 0.0
C207 C 0.17334 0.11089 0.06717 0.0
C208 C 0.11984 0.09626 0.11637 0.0
C209 C 0.18132 0.10046 0.1508 0.0
C210 C 0.20113 0.07223 0.16659 0.0
C211 C 0.21827 0.07326 0.20849 0.0
C212 C 0.21475 0.10375 0.23506 0.0
C213 C 0.19483 0.13314 0.21944 0.0
C214 C 0.17919 0.13181 0.17589 0.0
H215 H 0.49243 0.66092 0.54507 0.0
H216 H 0.55645 0.6858 0.66304 0.0
H217 H 0.506 0.71739 0.69702 0.0
H218 H 0.43503 0.74516 0.54816 0.0
H219 H 0.39573 0.72059 0.53199 0.0
H220 H 0.43889 0.70732 0.51118 0.0
H221 H 0.43166 0.64249 0.54795 0.0
H222 H 0.387 0.65726 0.55871 0.0
H223 H 0.41384 0.64004 0.60418 0.0
H224 H 0.44728 0.72848 0.72765 0.0
H225 H 0.38408 0.72491 0.74949 0.0
H226 H 0.35572 0.70042 0.61072 0.0
C227 C 0.49608 0.67438 0.57704 0.0
C228 C 0.52818 0.67095 0.60146 0.0
C229 C 0.53195 0.68808 0.64386 0.0
C230 C 0.50351 0.70629 0.66334 0.0
C231 C 0.47146 0.70751 0.63982 0.0
C232 C 0.46758 0.6926 0.59723 0.0
C233 C 0.4289 0.69359 0.58234 0.0
C234 C 0.42437 0.71817 0.54097 0.0
C235 C 0.41446 0.65614 0.57263 0.0
C236 C 0.41152 0.70878 0.6245 0.0
C237 C 0.43673 0.71692 0.65706 0.0
C238 C 0.42726 0.72401 0.7019 0.0
C239 C 0.39129 0.72191 0.71408 0.0
C240 C 0.36507 0.71342 0.68148 0.0
C241 C 0.37527 0.70783 0.63592 0.0
H242 H 0.78851 0.01587 0.13462 0.0
H243 H 0.80863 0.00856 0.98999 0.0
H244 H 0.78664 0.94654 0.9909 0.0
H245 H 0.81597 0.94155 0.17068 0.0
H246 H 0.78129 0.92899 0.2101 0.0
H247 H 0.78867 0.97491 0.19666 0.0
H248 H 0.7238 0.98261 0.17095 0.0
H249 H 0.71505 0.93687 0.18598 0.0
H250 H 0.70496 0.95282 0.12965 0.0
H251 H 0.77878 0.88215 0.01255 0.0
H252 H 0.77662 0.82329 0.05082 0.0
H253 H 0.75836 0.87438 0.17984 0.0
C254 C 0.78716 0.00172 0.10275 0.0
C255 C 0.80233 0.01615 0.06266 0.0
C256 C 0.79915 0.99716 0.02155 0.0
C257 C 0.7861 0.96215 0.02166 0.0
C258 C 0.77447 0.94748 0.06278 0.0
C259 C 0.77326 0.96729 0.10219 0.0
C260 C 0.76198 0.94488 0.14263 0.0
C261 C 0.78859 0.94771 0.18225 0.0
C262 C 0.7242 0.95489 0.1582 0.0
C263 C 0.76199 0.90856 0.1211 0.0
C264 C 0.76781 0.91063 0.07467 0.0
C265 C 0.77272 0.88025 0.04848 0.0
C266 C 0.77169 0.84704 0.07036 0.0
C267 C 0.76638 0.84465 0.11786 0.0
C268 C 0.76097 0.87572 0.14323 0.0
H269 H 0.46951 0.29718 0.6502 0.0
H270 H 0.4752 0.28844 0.50414 0.0
H271 H 0.53163 0.25541 0.51091 0.0
H272 H 0.54848 0.32333 0.66443 0.0
H273 H 0.55969 0.30125 0.71691 0.0
H274 H 0.51397 0.30979 0.70384 0.0
H275 H 0.49778 0.2431 0.7113 0.0
H276 H 0.54337 0.2341 0.72662 0.0
H277 H 0.523 0.21065 0.68012 0.0
H278 H 0.59548 0.24531 0.53165 0.0
H279 H 0.65588 0.24813 0.56598 0.0
H280 H 0.6089 0.26288 0.69849 0.0
C281 C 0.48134 0.28579 0.62001 0.0
C282 C 0.46822 0.29498 0.5768 0.0
C283 C 0.48462 0.28099 0.53758 0.0
C284 C 0.51692 0.26245 0.54122 0.0
C285 C 0.53171 0.25767 0.58435 0.0
C286 C 0.51365 0.26776 0.62333 0.0
C287 C 0.5374 0.26597 0.66476 0.0
C288 C 0.54002 0.30222 0.68882 0.0
C289 C 0.52463 0.2367 0.69764 0.0
C290 C 0.57234 0.2562 0.64272 0.0
C291 C 0.56864 0.25097 0.59643 0.0
C292 C 0.59841 0.24757 0.56809 0.0
C293 C 0.63252 0.24944 0.5876 0.0
C294 C 0.63638 0.25459 0.63479 0.0
C295 C 0.60605 0.25748 0.66258 0.0
H296 H 0.69332 0.56081 0.39031 0.0
H297 H 0.70185 0.53218 0.53208 0.0
H298 H 0.73996 0.48137 0.51181 0.0
H299 H 0.67359 0.48603 0.35565 0.0
H300 H 0.6969 0.48293 0.30211 0.0
H301 H 0.68572 0.52558 0.32451 0.0
H302 H 0.75065 0.54718 0.32452 0.0
H303 H 0.76318 0.50593 0.29817 0.0
H304 H 0.78484 0.52005 0.34964 0.0
H305 H 0.76052 0.42572 0.4758 0.0
H306 H 0.76625 0.37244 0.4272 0.0
H307 H 0.7387 0.43502 0.30913 0.0
C308 C 0.70574 0.54537 0.41704 0.0
C309 C 0.69589 0.55063 0.46261 0.0
C310 C 0.71046 0.52909 0.49713 0.0
C311 C 0.73184 0.50001 0.48576 0.0
C312 C 0.73847 0.49339 0.43985 0.0
C313 C 0.7266 0.51611 0.40596 0.0
C314 C 0.73041 0.49966 0.35938 0.0
C315 C 0.69454 0.49843 0.33396 0.0
C316 C 0.75898 0.51938 0.33128 0.0
C317 C 0.74292 0.46303 0.37258 0.0
C318 C 0.74882 0.46029 0.41886 0.0
C319 C 0.75725 0.42794 0.43937 0.0
C320 C 0.76013 0.39785 0.41179 0.0
C321 C 0.75396 0.40029 0.36457 0.0
C322 C 0.74509 0.43315 0.3449 0.0
H323 H 0.99589 0.18648 0.01416 0.0
H324 H 0.9152 0.19128 0.90982 0.0
H325 H 0.95738 0.22314 0.85934 0.0
H326 H 0.04387 0.27536 0.9801 0.0
H327 H 0.08626 0.25597 0.99427 0.0
H328 H 0.04692 0.24399 0.02643 0.0
H329 H 0.05909 0.17777 0.00957 0.0
H330 H 0.0977 0.18941 0.97638 0.0
H331 H 0.06241 0.16367 0.95135 0.0
H332 H 0.01229 0.23543 0.81369 0.0
H333 H 0.07293 0.23812 0.78078 0.0
H334 H 0.11813 0.23025 0.91552 0.0
C335 C 0.98645 0.19628 0.98187 0.0
C336 C 0.95217 0.18695 0.9661 0.0
C337 C 0.94098 0.19916 0.923 0.0
C338 C 0.96499 0.21692 0.8939 0.0
C339 C 0.9997 0.22308 0.90905 0.0
C340 C 0.01003 0.21444 0.95281 0.0
C341 C 0.04985 0.21992 0.95905 0.0
C342 C 0.05715 0.25066 0.9919 0.0
C343 C 0.06833 0.18566 0.97507 0.0
C344 C 0.06076 0.22972 0.91099 0.0
C345 C 0.03143 0.2319 0.88277 0.0
C346 C 0.03528 0.23544 0.83579 0.0
C347 C 0.06982 0.23695 0.81732 0.0
C348 C 0.10014 0.23515 0.8457 0.0
C349 C 0.09537 0.2321 0.89316 0.0
H350 H 0.3465 0.471 0.43378 0.0
H351 H 0.45687 0.47375 0.38961 0.0
H352 H 0.44497 0.52727 0.34341 0.0
H353 H 0.30894 0.49642 0.32718 0.0
H354 H 0.27437 0.52363 0.35124 0.0
H355 H 0.29167 0.48662 0.38314 0.0
H356 H 0.30675 0.52829 0.44974 0.0
H357 H 0.29002 0.56597 0.41854 0.0
H358 H 0.33498 0.56638 0.43994 0.0
H359 H 0.42169 0.58001 0.30252 0.0
H360 H 0.38788 0.63069 0.27065 0.0
H361 H 0.29195 0.59235 0.33675 0.0
C362 C 0.36812 0.48332 0.41485 0.0
C363 C 0.40264 0.46875 0.41537 0.0
C364 C 0.43029 0.48487 0.38962 0.0
C365 C 0.4238 0.51514 0.36328 0.0
C366 C 0.38935 0.52856 0.36261 0.0
C367 C 0.36194 0.51335 0.38771 0.0
C368 C 0.32727 0.53291 0.38012 0.0
C369 C 0.29889 0.50842 0.35917 0.0
C370 C 0.31394 0.54938 0.42472 0.0
C371 C 0.33949 0.56117 0.34656 0.0
C372 C 0.37548 0.55826 0.3372 0.0
C373 C 0.39338 0.5823 0.30897 0.0
C374 C 0.37408 0.61062 0.29063 0.0
C375 C 0.33743 0.6143 0.30027 0.0
C376 C 0.31974 0.589 0.3278 0.0
H377 H 0.0308 0.9093 0.88647 0.0
H378 H 0.07824 0.80848 0.92201 0.0
H379 H 0.02082 0.77793 0.90655 0.0
H380 H 0.93685 0.88667 0.92969 0.0
H381 H 0.91779 0.91162 0.88356 0.0
H382 H 0.95979 0.92525 0.90744 0.0
H383 H 0.98744 0.92298 0.82623 0.0
H384 H 0.94572 0.90812 0.80314 0.0
H385 H 0.98535 0.88206 0.79475 0.0
H386 H 0.96181 0.75803 0.87677 0.0
H387 H 0.90457 0.75004 0.83621 0.0
H388 H 0.89703 0.86374 0.81691 0.0
C389 C 0.02844 0.88099 0.89258 0.0
C390 C 0.05815 0.861 0.90605 0.0
C391 C 0.05515 0.82396 0.91248 0.0
C392 C 0.02279 0.80654 0.90377 0.0
C393 C 0.99398 0.82683 0.88909 0.0
C394 C 0.99635 0.86334 0.88415 0.0
C395 C 0.9628 0.87853 0.86357 0.0
C396 C 0.94317 0.90189 0.89816 0.0
C397 C 0.97084 0.89911 0.8193 0.0
C398 C 0.94227 0.84468 0.85461 0.0
C399 C 0.9602 0.81525 0.87083 0.0
C400 C 0.9473 0.78089 0.8645 0.0
C401 C 0.91518 0.77654 0.84104 0.0
C402 C 0.89682 0.80629 0.82364 0.0
C403 C 0.91048 0.84072 0.8306 0.0
H404 H 0.8539 0.00992 0.89627 0.0
H405 H 0.89456 0.96596 0.02186 0.0
H406 H 0.87477 0.90572 0.99797 0.0
H407 H 0.77563 0.94961 0.88536 0.0
H408 H 0.78042 0.94669 0.82451 0.0
H409 H 0.79394 0.98655 0.8536 0.0
H410 H 0.85739 0.98182 0.81888 0.0
H411 H 0.84368 0.94257 0.78905 0.0
H412 H 0.88195 0.94117 0.82575 0.0
H413 H 0.85479 0.85022 0.95795 0.0
H414 H 0.84326 0.80334 0.901 0.0
H415 H 0.81572 0.88329 0.80155 0.0
C416 C 0.85784 0.98763 0.91908 0.0
C417 C 0.87503 0.99233 0.96118 0.0
C418 C 0.88081 0.9627 0.98985 0.0
C419 C 0.86943 0.9286 0.97673 0.0
C420 C 0.85209 0.92479 0.9351 0.0
C421 C 0.84656 0.95351 0.90655 0.0
C422 C 0.83055 0.94191 0.86176 0.0
C423 C 0.79289 0.9571 0.85598 0.0
C424 C 0.85485 0.95248 0.82154 0.0
C425 C 0.82926 0.902 0.86866 0.0
C426 C 0.84103 0.8927 0.91162 0.0
C427 C 0.84488 0.85725 0.92461 0.0
C428 C 0.83799 0.83079 0.8923 0.0
C429 C 0.82787 0.83986 0.84745 0.0
C430 C 0.82216 0.87581 0.83612 0.0
H431 H 0.5411 0.40149 0.42377 0.0
H432 H 0.54941 0.33074 0.5394 0.0
H433 H 0.61212 0.31768 0.5181 0.0
H434 H 0.58459 0.34972 0.34904 0.0
H435 H 0.60722 0.3846 0.31801 0.0
H436 H 0.56596 0.39373 0.34681 0.0
H437 H 0.59565 0.44428 0.39396 0.0
H438 H 0.63572 0.43625 0.36183 0.0
H439 H 0.63694 0.43547 0.423 0.0
H440 H 0.6715 0.30594 0.47572 0.0
H441 H 0.72295 0.30214 0.42217 0.0
H442 H 0.67442 0.38113 0.33559 0.0
C443 C 0.5568 0.38473 0.44596 0.0
C444 C 0.54078 0.36748 0.48354 0.0
C445 C 0.56146 0.34454 0.51085 0.0
C446 C 0.59703 0.33691 0.49879 0.0
C447 C 0.61153 0.353 0.45984 0.0
C448 C 0.59218 0.37721 0.43459 0.0
C449 C 0.61208 0.38859 0.39205 0.0
C450 C 0.59121 0.37854 0.34897 0.0
C451 C 0.6206 0.42853 0.39287 0.0
C452 C 0.64551 0.36668 0.39657 0.0
C453 C 0.64491 0.3462 0.43576 0.0
C454 C 0.67232 0.32231 0.44539 0.0
C455 C 0.70119 0.31998 0.41472 0.0
C456 C 0.70218 0.34111 0.37484 0.0
C457 C 0.67403 0.3647 0.3659 0.0
H458 H 0.09461 0.01765 0.90261 0.0
H459 H 0.18427 0.01221 0.99426 0.0
H460 H 0.19697 0.07593 0.98035 0.0
H461 H 0.13868 0.07096 0.82252 0.0
H462 H 0.09964 0.09534 0.80561 0.0
H463 H 0.09509 0.05095 0.82781 0.0
H464 H 0.05103 0.07448 0.88584 0.0
H465 H 0.05701 0.12049 0.87006 0.0
H466 H 0.06499 0.10598 0.92774 0.0
H467 H 0.20156 0.13933 0.95358 0.0
H468 H 0.20273 0.19499 0.90817 0.0
H469 H 0.11153 0.15852 0.83155 0.0
C470 C 0.11568 0.03053 0.92158 0.0
C471 C 0.13719 0.01085 0.95173 0.0
C472 C 0.16624 0.02757 0.97338 0.0
C473 C 0.17373 0.06362 0.96535 0.0
C474 C 0.15164 0.08261 0.93599 0.0
C475 C 0.12342 0.06648 0.91399 0.0
C476 C 0.10681 0.09124 0.87935 0.0
C477 C 0.11028 0.07622 0.83098 0.0
C478 C 0.06765 0.09857 0.89143 0.0
C479 C 0.13005 0.12395 0.88525 0.0
C480 C 0.15555 0.1185 0.9184 0.0
C481 C 0.1816 0.14395 0.92778 0.0
C482 C 0.1822 0.17533 0.90184 0.0
C483 C 0.15721 0.18083 0.86668 0.0
C484 C 0.13045 0.1551 0.85889 0.0
H485 H 0.51436 0.66226 0.42195 0.0
H486 H 0.46762 0.57778 0.50315 0.0
H487 H 0.4072 0.59714 0.48005 0.0
H488 H 0.44372 0.73046 0.4301 0.0
H489 H 0.44694 0.74138 0.37055 0.0
H490 H 0.48567 0.72587 0.40069 0.0
H491 H 0.49334 0.67527 0.3417 0.0
H492 H 0.4549 0.6911 0.31166 0.0
H493 H 0.45641 0.64564 0.33101 0.0
H494 H 0.35226 0.62731 0.45052 0.0
H495 H 0.30836 0.64771 0.39367 0.0
H496 H 0.39119 0.70574 0.32234 0.0
C497 C 0.49122 0.64895 0.43633 0.0
C498 C 0.4952 0.61984 0.46621 0.0
C499 C 0.46477 0.60098 0.48156 0.0
C500 C 0.43048 0.61188 0.46872 0.0
C501 C 0.42727 0.64157 0.44044 0.0
C502 C 0.45689 0.65887 0.42284 0.0
C503 C 0.44658 0.68436 0.38506 0.0
C504 C 0.45632 0.7228 0.39737 0.0
C505 C 0.46382 0.67342 0.33969 0.0
C506 C 0.40652 0.67893 0.38439 0.0
C507 C 0.39587 0.65533 0.41805 0.0
C508 C 0.36033 0.64538 0.42366 0.0
C509 C 0.33552 0.65753 0.39178 0.0
C510 C 0.34657 0.67834 0.35409 0.0
C511 C 0.38211 0.6906 0.35158 0.0
H512 H 0.42781 0.5042 0.63799 0.0
H513 H 0.37593 0.50046 0.50662 0.0
H514 H 0.34455 0.5563 0.52434 0.0
H515 H 0.351 0.5326 0.69745 0.0
H516 H 0.37528 0.55978 0.73711 0.0
H517 H 0.39624 0.52164 0.71214 0.0
H518 H 0.4473 0.56135 0.68587 0.0
H519 H 0.42682 0.60147 0.70605 0.0
H520 H 0.43975 0.59745 0.64724 0.0
H521 H 0.31427 0.60907 0.55959 0.0
H522 H 0.29086 0.65766 0.60785 0.0
H523 H 0.36239 0.62709 0.71584 0.0
C524 C 0.41062 0.51556 0.61232 0.0
C525 C 0.40472 0.49812 0.57048 0.0
C526 C 0.38119 0.51348 0.53852 0.0
C527 C 0.36315 0.54513 0.54842 0.0
C528 C 0.36871 0.56093 0.59059 0.0
C529 C 0.39205 0.54675 0.62195 0.0
C530 C 0.39142 0.56738 0.66608 0.0
C531 C 0.37766 0.54395 0.7055 0.0
C532 C 0.42844 0.58292 0.6769 0.0
C533 C 0.36463 0.59593 0.65432 0.0
C534 C 0.35139 0.59135 0.61088 0.0
C535 C 0.32465 0.61306 0.59345 0.0
C536 C 0.31138 0.64034 0.62095 0.0
C537 C 0.32503 0.64577 0.66503 0.0
C538 C 0.35189 0.62332 0.68198 0.0
H539 H 0.97097 0.91585 0.09643 0.0
H540 H 1.00023 0.84572 0.98646 0.0
H541 H 0.94215 0.8146 0.99436 0.0
H542 H 0.93785 0.85182 0.16489 0.0
H543 H 0.90199 0.87704 0.18941 0.0
H544 H 0.94108 0.89954 0.16823 0.0
H545 H 0.90319 0.93835 0.1121 0.0
H546 H 0.86497 0.91761 0.1384 0.0
H547 H 0.86992 0.91653 0.07781 0.0
H548 H 0.88508 0.78454 0.02455 0.0
H549 H 0.83255 0.76266 0.06878 0.0
H550 H 0.84287 0.85143 0.16026 0.0
C551 C 0.96469 0.89481 0.07279 0.0
C552 C 0.9901 0.88342 0.04046 0.0
C553 C 0.98097 0.85537 0.01079 0.0
C554 C 0.94811 0.83733 0.01542 0.0
C555 C 0.92465 0.84783 0.0498 0.0
C556 C 0.93234 0.87647 0.07734 0.0
C557 C 0.90506 0.88023 0.11504 0.0
C558 C 0.92256 0.87695 0.16214 0.0
C559 C 0.88463 0.91529 0.11043 0.0
C560 C 0.88121 0.84871 0.10545 0.0
C561 C 0.89263 0.83038 0.06749 0.0
C562 C 0.87573 0.79906 0.05386 0.0
C563 C 0.84627 0.7866 0.07927 0.0
C564 C 0.8342 0.80534 0.11781 0.0
C565 C 0.85187 0.83673 0.13089 0.0
H566 H 0.59855 0.48297 0.64138 0.0
H567 H 0.62958 0.48757 0.49935 0.0
H568 H 0.64995 0.42519 0.50409 0.0
H569 H 0.67006 0.43622 0.68075 0.0
H570 H 0.64598 0.40923 0.72142 0.0
H571 H 0.6291 0.4521 0.70541 0.0
H572 H 0.56912 0.42357 0.68133 0.0
H573 H 0.58555 0.38049 0.69777 0.0
H574 H 0.56904 0.3877 0.64102 0.0
H575 H 0.67517 0.36535 0.52806 0.0
H576 H 0.69612 0.3104 0.56673 0.0
H577 H 0.64809 0.34528 0.69235 0.0
C578 C 0.60864 0.47056 0.61084 0.0
C579 C 0.61229 0.49018 0.56993 0.0
C580 C 0.62601 0.47303 0.53088 0.0
C581 C 0.63782 0.43762 0.53332 0.0
C582 C 0.63513 0.41955 0.57479 0.0
C583 C 0.62011 0.43525 0.61258 0.0
C584 C 0.62181 0.41092 0.65374 0.0
C585 C 0.643 0.42816 0.69259 0.0
C586 C 0.58414 0.40002 0.66938 0.0
C587 C 0.64155 0.37967 0.63389 0.0
C588 C 0.64882 0.38495 0.5882 0.0
C589 C 0.66872 0.36052 0.56339 0.0
C590 C 0.68072 0.32964 0.58554 0.0
C591 C 0.67352 0.32398 0.63218 0.0
C592 C 0.65365 0.34922 0.65654 0.0
H593 H 0.97557 0.07917 0.1854 0.0
H594 H 0.98895 0.13868 0.05998 0.0
H595 H 0.0418 0.16872 0.09155 0.0
H596 H 0.00569 0.14629 0.26221 0.0
H597 H 0.03029 0.11668 0.29862 0.0
H598 H 0.99218 0.10045 0.26771 0.0
H599 H 0.03055 0.05161 0.23242 0.0
H600 H 0.06938 0.06733 0.26219 0.0
H601 H 0.07029 0.06306 0.20129 0.0
H602 H 0.08615 0.19925 0.14099 0.0
H603 H 0.13597 0.2125 0.19337 0.0
H604 H 0.10348 0.12504 0.28027 0.0
C605 C 0.99015 0.09793 0.16429 0.0
C606 C 0.97777 0.10721 0.12037 0.0
C607 C 0.99774 0.13157 0.09369 0.0
C608 C 0.02756 0.149 0.11152 0.0
C609 C 0.03797 0.14072 0.15563 0.0
C610 C 0.02115 0.11447 0.18088 0.0
C611 C 0.04005 0.10885 0.22599 0.0
C612 C 0.01558 0.11865 0.26599 0.0
C613 C 0.05341 0.07048 0.23071 0.0
C614 C 0.07056 0.13542 0.22129 0.0
C615 C 0.06729 0.15494 0.18163 0.0
C616 C 0.08969 0.18354 0.17153 0.0
C617 C 0.11762 0.19105 0.20142 0.0
C618 C 0.124 0.1689 0.23933 0.0
C619 C 0.09955 0.14148 0.25045 0.0
H620 H 0.20376 0.83495 0.09287 0.0
H621 H 0.10281 0.78059 0.11315 0.0
H622 H 0.13323 0.73293 0.15561 0.0
H623 H 0.26129 0.75349 0.08636 0.0
H624 H 0.29674 0.77438 0.11784 0.0
H625 H 0.26821 0.80081 0.08209 0.0
H626 H 0.25321 0.84068 0.15091 0.0
H627 H 0.28108 0.81405 0.18708 0.0
H628 H 0.23493 0.82074 0.20181 0.0
H629 H 0.17249 0.69523 0.20284 0.0
H630 H 0.21936 0.66823 0.25062 0.0
H631 H 0.29511 0.74753 0.20361 0.0
C632 C 0.18849 0.81222 0.10477 0.0
C633 C 0.15115 0.81081 0.09906 0.0
C634 C 0.13154 0.78163 0.11666 0.0
C635 C 0.14857 0.75454 0.14086 0.0
C636 C 0.18521 0.75725 0.14755 0.0
C637 C 0.20509 0.78516 0.12985 0.0
C638 C 0.24346 0.78335 0.14597 0.0
C639 C 0.26893 0.77766 0.10567 0.0
C640 C 0.25375 0.81669 0.17305 0.0
C641 C 0.24169 0.75072 0.17644 0.0
C642 C 0.2079 0.73587 0.17627 0.0
C643 C 0.19917 0.7063 0.20278 0.0
C644 C 0.22579 0.69121 0.22982 0.0
C645 C 0.26057 0.70581 0.23041 0.0
C646 C 0.2686 0.73604 0.20358 0.0
H647 H 0.6814 0.70885 0.57343 0.0
H648 H 0.73786 0.60903 0.57667 0.0
H649 H 0.78649 0.63713 0.61993 0.0
H650 H 0.76653 0.76885 0.57071 0.0
H651 H 0.74479 0.80116 0.6061 0.0
H652 H 0.71919 0.77576 0.56581 0.0
H653 H 0.6773 0.75561 0.63112 0.0
H654 H 0.70341 0.7796 0.67198 0.0
H655 H 0.69566 0.73265 0.67955 0.0
H656 H 0.81746 0.66937 0.68076 0.0
H657 H 0.83971 0.70931 0.74008 0.0
H658 H 0.76951 0.79239 0.69206 0.0
C659 C 0.70528 0.69377 0.58045 0.0
C660 C 0.70659 0.65708 0.57061 0.0
C661 C 0.7371 0.6374 0.5826 0.0
C662 C 0.76459 0.65308 0.6077 0.0
C663 C 0.76138 0.68866 0.61983 0.0
C664 C 0.73329 0.70931 0.60513 0.0
C665 C 0.73486 0.746 0.62654 0.0
C666 C 0.74177 0.77464 0.59012 0.0
C667 C 0.70078 0.75389 0.6539 0.0
C668 C 0.76681 0.74187 0.65764 0.0
C669 C 0.78144 0.70845 0.65326 0.0
C670 C 0.80763 0.69628 0.68273 0.0
C671 C 0.82019 0.71925 0.71632 0.0
C672 C 0.80766 0.75458 0.71958 0.0
C673 C 0.7802 0.76584 0.69 0.0
H674 H 0.7819 0.19477 0.08006 0.0
H675 H 0.89399 0.22168 0.07291 0.0
H676 H 0.884 0.27188 0.12472 0.0
H677 H 0.74977 0.29382 0.09406 0.0
H678 H 0.71419 0.27874 0.13084 0.0
H679 H 0.72854 0.25153 0.08404 0.0
H680 H 0.73827 0.19971 0.14051 0.0
H681 H 0.72582 0.22694 0.18783 0.0
H682 H 0.76864 0.20547 0.18732 0.0
H683 H 0.86627 0.30148 0.1966 0.0
H684 H 0.83814 0.32534 0.26548 0.0
H685 H 0.73472 0.29018 0.21766 0.0
C686 C 0.80365 0.21307 0.08651 0.0
C687 C 0.83858 0.20492 0.0719 0.0
C688 C 0.86692 0.2282 0.08268 0.0
C689 C 0.86154 0.25644 0.11273 0.0
C690 C 0.82733 0.26184 0.13002 0.0
C691 C 0.79838 0.24218 0.11534 0.0
C692 C 0.76497 0.25175 0.14192 0.0
C693 C 0.73776 0.27006 0.11087 0.0
C694 C 0.7485 0.21901 0.16578 0.0
C695 C 0.78032 0.27757 0.17614 0.0
C696 C 0.81642 0.28263 0.16895 0.0
C697 C 0.83764 0.29979 0.20084 0.0
C698 C 0.82137 0.3134 0.23993 0.0
C699 C 0.78394 0.3113 0.24627 0.0
C700 C 0.76327 0.29287 0.21377 0.0
H701 H 0.35448 0.34728 0.68624 0.0
H702 H 0.31421 0.32809 0.55097 0.0
H703 H 0.26184 0.29673 0.58365 0.0
H704 H 0.32712 0.26205 0.73371 0.0
H705 H 0.3163 0.28039 0.78846 0.0
H706 H 0.35048 0.30084 0.75382 0.0
H707 H 0.31732 0.36092 0.75817 0.0
H708 H 0.28294 0.34062 0.79258 0.0
H709 H 0.2714 0.36327 0.7406 0.0
H710 H 0.21179 0.27062 0.63255 0.0
H711 H 0.17143 0.24701 0.69286 0.0
H712 H 0.24615 0.28065 0.79576 0.0
C713 C 0.33468 0.3364 0.66344 0.0
C714 C 0.33836 0.34013 0.61577 0.0
C715 C 0.31209 0.32519 0.58727 0.0
C716 C 0.28215 0.30757 0.60571 0.0
C717 C 0.27916 0.3047 0.65289 0.0
C718 C 0.30504 0.31829 0.68132 0.0
C719 C 0.296 0.31115 0.73081 0.0
C720 C 0.32415 0.28718 0.753 0.0
C721 C 0.29165 0.34607 0.75707 0.0
C722 C 0.26068 0.29189 0.72594 0.0
C723 C 0.25125 0.28864 0.68074 0.0
C724 C 0.21912 0.27277 0.66797 0.0
C725 C 0.19633 0.25962 0.70223 0.0
C726 C 0.20594 0.2621 0.74851 0.0
C727 C 0.23849 0.27841 0.76045 0.0
H728 H 0.62934 0.66285 0.34779 0.0
H729 H 0.69824 0.68015 0.46383 0.0
H730 H 0.74079 0.71301 0.4141 0.0
H731 H 0.69849 0.64651 0.26805 0.0
H732 H 0.67603 0.66814 0.22155 0.0
H733 H 0.65048 0.64788 0.26677 0.0
H734 H 0.61825 0.70749 0.28131 0.0
H735 H 0.64344 0.72788 0.23585 0.0
H736 H 0.64428 0.74697 0.29186 0.0
H737 H 0.77603 0.74412 0.34968 0.0
H738 H 0.7994 0.77087 0.27806 0.0
H739 H 0.70872 0.72898 0.20506 0.0
C740 C 0.65313 0.67385 0.36312 0.0
C741 C 0.66025 0.66912 0.40995 0.0
C742 C 0.69204 0.68362 0.42818 0.0
C743 C 0.71641 0.70222 0.40011 0.0
C744 C 0.70873 0.70581 0.35386 0.0
C745 C 0.67777 0.69198 0.33566 0.0
C746 C 0.67585 0.69842 0.28489 0.0
C747 C 0.67518 0.66313 0.25879 0.0
C748 C 0.64354 0.72157 0.27279 0.0
C749 C 0.7105 0.71826 0.27709 0.0
C750 C 0.72917 0.72244 0.31718 0.0
C751 C 0.76163 0.74076 0.31818 0.0
C752 C 0.77487 0.75561 0.27741 0.0
C753 C 0.75581 0.75186 0.23625 0.0
C754 C 0.72358 0.73245 0.23619 0.0
H755 H 0.83716 0.12814 0.84875 0.0
H756 H 0.82238 0.1978 0.96425 0.0
H757 H 0.78569 0.23766 0.91676 0.0
H758 H 0.84427 0.19687 0.76359 0.0
H759 H 0.82042 0.17195 0.72118 0.0
H760 H 0.84551 0.14901 0.76426 0.0
H761 H 0.78897 0.11349 0.78781 0.0
H762 H 0.76371 0.13626 0.74477 0.0
H763 H 0.74903 0.13707 0.80314 0.0
H764 H 0.74978 0.26975 0.85619 0.0
H765 H 0.7171 0.29057 0.78804 0.0
H766 H 0.75645 0.20075 0.71214 0.0
C767 C 0.82624 0.15177 0.86416 0.0
C768 C 0.83271 0.15977 0.91036 0.0
C769 C 0.81783 0.191 0.92903 0.0
C770 C 0.79697 0.21386 0.90227 0.0
C771 C 0.79123 0.2052 0.85682 0.0
C772 C 0.80542 0.17485 0.83796 0.0
C773 C 0.79513 0.1714 0.78838 0.0
C774 C 0.82831 0.17238 0.75754 0.0
C775 C 0.77289 0.13755 0.78059 0.0
C776 C 0.7728 0.20447 0.78224 0.0
C777 C 0.7709 0.22368 0.82208 0.0
C778 C 0.75132 0.255 0.8248 0.0
C779 C 0.73306 0.26678 0.78595 0.0
C780 C 0.73456 0.24738 0.74494 0.0
C781 C 0.75484 0.21595 0.74317 0.0
H782 H 0.36244 0.2542 0.45776 0.0
H783 H 0.31535 0.35855 0.46739 0.0
H784 H 0.25942 0.33549 0.43453 0.0
H785 H 0.32997 0.23209 0.35527 0.0
H786 H 0.32013 0.18596 0.3665 0.0
H787 H 0.354 0.20834 0.39873 0.0
H788 H 0.32183 0.19163 0.47394 0.0
H789 H 0.28809 0.16847 0.44199 0.0
H790 H 0.27549 0.20273 0.48137 0.0
H791 H 0.21552 0.30521 0.38428 0.0
H792 H 0.18279 0.26724 0.33037 0.0
H793 H 0.25294 0.17967 0.3624 0.0
C794 C 0.33962 0.27157 0.45508 0.0
C795 C 0.34258 0.30781 0.46641 0.0
C796 C 0.31299 0.33042 0.46031 0.0
C797 C 0.28123 0.3176 0.44145 0.0
C798 C 0.27934 0.28194 0.42934 0.0
C799 C 0.30734 0.25891 0.43713 0.0
C800 C 0.29929 0.22248 0.41783 0.0
C801 C 0.32753 0.21161 0.3825 0.0
C802 C 0.29597 0.19468 0.45607 0.0
C803 C 0.26352 0.22929 0.39569 0.0
C804 C 0.2525 0.26376 0.40267 0.0
C805 C 0.223 0.2777 0.38017 0.0
C806 C 0.20438 0.25588 0.34974 0.0
C807 C 0.21482 0.22026 0.34269 0.0
C808 C 0.24427 0.20675 0.36702 0.0
H809 H 0.17752 0.85216 0.87295 0.0
H810 H 0.18824 0.78925 0.99575 0.0
H811 H 0.21104 0.73895 0.9495 0.0
H812 H 0.14899 0.77813 0.79863 0.0
H813 H 0.17254 0.79698 0.75066 0.0
H814 H 0.154 0.82562 0.79346 0.0
H815 H 0.2162 0.85452 0.80533 0.0
H816 H 0.23488 0.82601 0.76282 0.0
H817 H 0.25364 0.82667 0.8191 0.0
H818 H 0.24148 0.69971 0.88931 0.0
H819 H 0.27342 0.67527 0.82234 0.0
H820 H 0.23598 0.76255 0.73982 0.0
C821 C 0.18391 0.82763 0.89021 0.0
C822 C 0.18129 0.82452 0.93786 0.0
C823 C 0.19001 0.79196 0.95914 0.0
C824 C 0.20288 0.76338 0.93312 0.0
C825 C 0.20572 0.76768 0.88596 0.0
C826 C 0.19574 0.79891 0.86483 0.0
C827 C 0.2026 0.79809 0.81426 0.0
C828 C 0.16744 0.79979 0.78769 0.0
C829 C 0.22836 0.82808 0.79956 0.0
C830 C 0.21969 0.7621 0.81007 0.0
C831 C 0.2212 0.74468 0.8516 0.0
C832 C 0.23953 0.71273 0.85653 0.0
C833 C 0.25744 0.69894 0.81845 0.0
C834 C 0.25677 0.71711 0.77626 0.0
C835 C 0.23657 0.74823 0.7718 0.0
loop_
_geom_bond_atom_site_label_1
_geom_bond_atom_site_label_2
_geom_bond_distance
_geom_bond_site_symmetry_2
_ccdc_geom_bond_type
Zn0 O6 1.920 . S
Zn0 O12 1.898 . S
Zn0 O15 1.905 . S
Zn1 O9 1.905 . S
Zn1 O10 1.898 . S
Zn1 O18 1.920 . S
Zn2 O5 2.083 . S
Zn2 O8 2.111 1_554 S
Zn2 O11 2.117 1_554 S
Zn2 O13 2.122 . S
Zn2 O14 2.116 . S
Zn2 O17 2.078 1_554 S
C3 O8 1.166 . S
C3 O9 1.182 . S
C4 O10 1.167 . S
C4 O11 1.299 . S
O5 Zn2 2.083 . S
O5 C19 1.305 . S
O6 Zn0 1.920 . S
O6 C19 1.234 . S
C7 O12 1.167 . S
C7 O13 1.299 . S
O8 Zn2 2.111 1_556 S
O8 C3 1.166 . S
O9 Zn1 1.905 . S
O9 C3 1.182 . S
O10 Zn1 1.898 . S
O10 C4 1.167 . S
O11 Zn2 2.117 1_556 S
O11 C4 1.299 . S
O12 Zn0 1.898 . S
O12 C7 1.167 . S
O13 Zn2 2.122 . S
O13 C7 1.299 . S
O14 Zn2 2.116 . S
O14 C16 1.166 . S
O15 Zn0 1.905 . S
O15 C16 1.182 . S
C16 O14 1.166 . S
C16 O15 1.182 . S
O17 Zn2 2.078 1_556 S
O17 C20 1.305 . S
O18 Zn1 1.920 . S
O18 C20 1.234 . S
C19 O5 1.305 . S
C19 O6 1.234 . S
C20 O17 1.305 . S
C20 O18 1.234 . S
Zn21 O27 1.920 . S
Zn21 O33 1.898 . S
Zn21 O36 1.905 . S
Zn22 O30 1.905 . S
Zn22 O31 1.898 . S
Zn22 O39 1.920 . S
Zn23 O26 2.080 . S
Zn23 O29 2.114 . S
Zn23 O32 2.120 . S
Zn23 O34 2.120 . S
Zn23 O35 2.114 . S
Zn23 O38 2.080 . S
C24 O29 1.166 . S
C24 O30 1.182 . S
C25 O31 1.167 . S
C25 O32 1.299 . S
O26 Zn23 2.080 . S
O26 C40 1.305 . S
O27 Zn21 1.920 . S
O27 C40 1.234 . S
C28 O33 1.167 . S
C28 O34 1.299 . S
O29 Zn23 2.114 . S
O29 C24 1.166 . S
O30 Zn22 1.905 . S
O30 C24 1.182 . S
O31 Zn22 1.898 . S
O31 C25 1.167 . S
O32 Zn23 2.120 . S
O32 C25 1.299 . S
O33 Zn21 1.898 . S
O33 C28 1.167 . S
O34 Zn23 2.120 . S
O34 C28 1.299 . S
O35 Zn23 2.114 . S
O35 C37 1.166 . S
O36 Zn21 1.905 . S
O36 C37 1.182 . S
C37 O35 1.166 . S
C37 O36 1.182 . S
O38 Zn23 2.080 . S
O38 C41 1.305 . S
O39 Zn22 1.920 . S
O39 C41 1.234 . S
C40 O26 1.305 . S
C40 O27 1.234 . S
C41 O38 1.305 . S
C41 O39 1.234 . S
Zn42 O48 1.920 . S
Zn42 O54 1.898 . S
Zn42 O57 1.905 . S
Zn43 O51 1.905 . S
Zn43 O52 1.898 . S
Zn43 O60 1.920 . S
Zn44 O47 2.077 1_554 S
Zn44 O50 2.117 . S
Zn44 O53 2.123 . S
Zn44 O55 2.117 1_554 S
Zn44 O56 2.111 1_554 S
Zn44 O59 2.083 . S
C45 O50 1.166 . S
C45 O51 1.182 . S
C46 O52 1.167 . S
C46 O53 1.299 . S
O47 Zn44 2.077 1_556 S
O47 C61 1.305 . S
O48 Zn42 1.920 . S
O48 C61 1.234 . S
C49 O54 1.167 . S
C49 O55 1.299 . S
O50 Zn44 2.117 . S
O50 C45 1.166 . S
O51 Zn43 1.905 . S
O51 C45 1.182 . S
O52 Zn43 1.898 . S
O52 C46 1.167 . S
O53 Zn44 2.123 . S
O53 C46 1.299 . S
O54 Zn42 1.898 . S
O54 C49 1.167 . S
O55 Zn44 2.117 1_556 S
O55 C49 1.299 . S
O56 Zn44 2.111 1_556 S
O56 C58 1.166 . S
O57 Zn42 1.905 . S
O57 C58 1.182 . S
C58 O56 1.166 . S
C58 O57 1.182 . S
O59 Zn44 2.083 . S
O59 C62 1.305 . S
O60 Zn43 1.920 . S
O60 C62 1.234 . S
C61 O47 1.305 . S
C61 O48 1.234 . S
C62 O59 1.305 . S
C62 O60 1.234 . S
Zn63 O69 1.920 . S
Zn63 O75 1.898 . S
Zn63 O78 1.905 . S
Zn64 O72 1.905 . S
Zn64 O73 1.898 . S
Zn64 O81 1.920 . S
Zn65 O68 2.080 . S
Zn65 O71 2.114 . S
Zn65 O74 2.120 . S
Zn65 O76 2.120 . S
Zn65 O77 2.114 . S
Zn65 O80 2.080 . S
C66 O71 1.166 . S
C66 O72 1.182 . S
C67 O73 1.167 . S
C67 O74 1.299 . S
O68 Zn65 2.080 . S
O68 C82 1.305 . S
O69 Zn63 1.920 . S
O69 C82 1.234 . S
C70 O75 1.167 . S
C70 O76 1.299 . S
O71 Zn65 2.114 . S
O71 C66 1.166 . S
O72 Zn64 1.905 . S
O72 C66 1.182 . S
O73 Zn64 1.898 . S
O73 C67 1.167 . S
O74 Zn65 2.120 . S
O74 C67 1.299 . S
O75 Zn63 1.898 . S
O75 C70 1.167 . S
O76 Zn65 2.120 . S
O76 C70 1.299 . S
O77 Zn65 2.114 . S
O77 C79 1.166 . S
O78 Zn63 1.905 . S
O78 C79 1.182 . S
C79 O77 1.166 . S
C79 O78 1.182 . S
O80 Zn65 2.080 . S
O80 C83 1.305 . S
O81 Zn64 1.920 . S
O81 C83 1.234 . S
C82 O68 1.305 . S
C82 O69 1.234 . S
C83 O80 1.305 . S
C83 O81 1.234 . S
C84 N85 1.317 . S
C84 N86 1.348 . S
C84 C87 1.485 . S
N85 C84 1.317 . S
N85 N89 1.370 . S
N86 C84 1.348 . S
N86 C88 1.346 . S
C87 C84 1.485 . S
C87 H91 0.960 . S
C87 H92 0.961 . S
C87 H93 0.960 . S
C88 N86 1.346 . S
C88 N89 1.307 . S
C88 C90 1.486 . S
N89 N85 1.370 . S
N89 C88 1.307 . S
C90 C88 1.486 . S
C90 H94 0.960 . S
C90 H95 0.960 . S
C90 H96 0.959 . S
H91 C87 0.960 . S
H92 C87 0.961 . S
H93 C87 0.960 . S
H94 C90 0.960 . S
H95 C90 0.960 . S
H96 C90 0.959 . S
C97 N98 1.317 . S
C97 N99 1.348 . S
C97 C100 1.485 . S
N98 C97 1.317 . S
N98 N102 1.370 . S
N99 C97 1.348 . S
N99 C101 1.346 . S
C100 C97 1.485 . S
C100 H104 0.960 . S
C100 H105 0.961 . S
C100 H106 0.960 . S
C101 N99 1.346 . S
C101 N102 1.307 . S
C101 C103 1.486 . S
N102 N98 1.370 . S
N102 C101 1.307 . S
C103 C101 1.486 . S
C103 H107 0.960 . S
C103 H108 0.960 . S
C103 H109 0.959 . S
H104 C100 0.960 . S
H105 C100 0.961 . S
H106 C100 0.960 . S
H107 C103 0.960 . S
H108 C103 0.960 . S
H109 C103 0.959 . S
C110 N111 1.317 . S
C110 N112 1.348 . S
C110 C113 1.485 . S
N111 C110 1.317 . S
N111 N115 1.370 . S
N112 C110 1.348 . S
N112 C114 1.346 . S
C113 C110 1.485 . S
C113 H117 0.960 . S
C113 H118 0.961 . S
C113 H119 0.960 . S
C114 N112 1.346 . S
C114 N115 1.307 . S
C114 C116 1.486 . S
N115 N111 1.370 . S
N115 C114 1.307 . S
C116 C114 1.486 . S
C116 H120 0.960 . S
C116 H121 0.960 . S
C116 H122 0.959 . S
H117 C113 0.960 . S
H118 C113 0.961 . S
H119 C113 0.960 . S
H120 C116 0.960 . S
H121 C116 0.960 . S
H122 C116 0.959 . S
C123 N124 1.317 . S
C123 N125 1.348 . S
C123 C126 1.485 . S
N124 C123 1.317 . S
N124 N128 1.370 . S
N125 C123 1.348 . S
N125 C127 1.346 . S
C126 C123 1.485 . S
C126 H130 0.960 . S
C126 H131 0.961 . S
C126 H132 0.960 . S
C127 N125 1.346 . S
C127 N128 1.307 . S
C127 C129 1.486 . S
N128 N124 1.370 . S
N128 C127 1.307 . S
C129 C127 1.486 . S
C129 H133 0.960 . S
C129 H134 0.960 . S
C129 H135 0.959 . S
H130 C126 0.960 . S
H131 C126 0.961 . S
H132 C126 0.960 . S
H133 C129 0.960 . S
H134 C129 0.960 . S
H135 C129 0.959 . S
C136 N137 1.317 . S
C136 N138 1.348 . S
C136 C139 1.485 . S
N137 C136 1.317 . S
N137 N141 1.370 . S
N138 C136 1.348 . S
N138 C140 1.346 . S
C139 C136 1.485 . S
C139 H143 0.960 . S
C139 H144 0.961 . S
C139 H145 0.960 . S
C140 N138 1.346 . S
C140 N141 1.307 . S
C140 C142 1.486 . S
N141 N137 1.370 . S
N141 C140 1.307 . S
C142 C140 1.486 . S
C142 H146 0.960 . S
C142 H147 0.960 . S
C142 H148 0.959 . S
H143 C139 0.960 . S
H144 C139 0.961 . S
H145 C139 0.960 . S
H146 C142 0.960 . S
H147 C142 0.960 . S
H148 C142 0.959 . S
C149 N150 1.317 . S
C149 N151 1.348 . S
C149 C152 1.485 . S
N150 C149 1.317 . S
N150 N154 1.370 . S
N151 C149 1.348 . S
N151 C153 1.346 . S
C152 C149 1.485 . S
C152 H156 0.960 . S
C152 H157 0.961 . S
C152 H158 0.960 . S
C153 N151 1.346 . S
C153 N154 1.307 . S
C153 C155 1.486 . S
N154 N150 1.370 . S
N154 C153 1.307 . S
C155 C153 1.486 . S
C155 H159 0.960 . S
C155 H160 0.960 . S
C155 H161 0.959 . S
H156 C152 0.960 . S
H157 C152 0.961 . S
H158 C152 0.960 . S
H159 C155 0.960 . S
H160 C155 0.960 . S
H161 C155 0.959 . S
C162 N163 1.317 . S
C162 N164 1.348 . S
C162 C165 1.485 . S
N163 C162 1.317 . S
N163 N167 1.370 . S
N164 C162 1.348 . S
N164 C166 1.346 . S
C165 C162 1.485 . S
C165 H169 0.960 . S
C165 H170 0.961 . S
C165 H171 0.960 . S
C166 N164 1.346 . S
C166 N167 1.307 . S
C166 C168 1.486 . S
N167 N163 1.370 . S
N167 C166 1.307 . S
C168 C166 1.486 . S
C168 H172 0.960 . S
C168 H173 0.960 . S
C168 H174 0.959 . S
H169 C165 0.960 . S
H170 C165 0.961 . S
H171 C165 0.960 . S
H172 C168 0.960 . S
H173 C168 0.960 . S
H174 C168 0.959 . S
C175 N176 1.317 . S
C175 N177 1.348 . S
C175 C178 1.485 . S
N176 C175 1.317 . S
N176 N180 1.370 . S
N177 C175 1.348 . S
N177 C179 1.346 . S
C178 C175 1.485 . S
C178 H182 0.960 . S
C178 H183 0.961 . S
C178 H184 0.960 . S
C179 N177 1.346 . S
C179 N180 1.307 . S
C179 C181 1.486 . S
N180 N176 1.370 . S
N180 C179 1.307 . S
C181 C179 1.486 . S
C181 H185 0.960 . S
C181 H186 0.960 . S
C181 H187 0.959 . S
H182 C178 0.960 . S
H183 C178 0.961 . S
H184 C178 0.960 . S
H185 C181 0.960 . S
H186 C181 0.960 . S
H187 C181 0.959 . S
H188 C200 0.930 . S
H189 C202 0.930 . S
H190 C203 0.932 1_545 S
H191 C207 0.959 . S
H192 C207 0.959 . S
H193 C207 0.961 . S
H194 C208 0.960 1_565 S
H195 C208 0.961 . S
H196 C208 0.959 . S
H197 C211 0.929 . S
H198 C212 0.931 . S
H199 C214 0.930 . S
C200 H188 0.930 . S
C200 C201 1.399 . S
C200 C205 1.399 . S
C201 C200 1.399 . S
C201 C202 1.376 . S
C202 H189 0.930 . S
C202 C201 1.376 . S
C202 C203 1.386 . S
C203 H190 0.932 1_565 S
C203 C202 1.386 . S
C203 C204 1.391 1_565 S
C204 C203 1.391 1_545 S
C204 C205 1.394 1_545 S
C204 C210 1.465 . S
C205 C200 1.399 . S
C205 C204 1.394 1_565 S
C205 C206 1.516 1_565 S
C206 C205 1.516 1_545 S
C206 C207 1.502 1_545 S
C206 C208 1.561 . S
C206 C209 1.526 . S
C207 H191 0.959 . S
C207 H192 0.959 . S
C207 H193 0.961 . S
C207 C206 1.502 1_565 S
C208 H194 0.960 1_545 S
C208 H195 0.961 . S
C208 H196 0.959 . S
C208 C206 1.561 . S
C209 C206 1.526 . S
C209 C210 1.396 . S
C209 C214 1.390 . S
C210 C204 1.465 . S
C210 C209 1.396 . S
C210 C211 1.399 . S
C211 H197 0.929 . S
C211 C210 1.399 . S
C211 C212 1.385 . S
C212 H198 0.931 . S
C212 C211 1.385 . S
C212 C213 1.389 . S
C213 C212 1.389 . S
C213 C214 1.387 . S
C214 H199 0.930 . S
C214 C209 1.390 . S
C214 C213 1.387 . S
H215 C227 0.930 . S
H216 C229 0.930 . S
H217 C230 0.930 . S
H218 C234 0.959 . S
H219 C234 0.959 . S
H220 C234 0.961 . S
H221 C235 0.960 . S
H222 C235 0.961 . S
H223 C235 0.959 . S
H224 C238 0.929 . S
H225 C239 0.931 . S
H226 C241 0.930 . S
C227 H215 0.930 . S
C227 C228 1.399 . S
C227 C232 1.399 . S
C228 C227 1.399 . S
C228 C229 1.376 . S
C229 H216 0.930 . S
C229 C228 1.376 . S
C229 C230 1.388 . S
C230 H217 0.930 . S
C230 C229 1.388 . S
C230 C231 1.390 . S
C231 C230 1.390 . S
C231 C232 1.394 . S
C231 C237 1.465 . S
C232 C227 1.399 . S
C232 C231 1.394 . S
C232 C233 1.516 . S
C233 C232 1.516 . S
C233 C234 1.502 . S
C233 C235 1.561 . S
C233 C236 1.526 . S
C234 H218 0.959 . S
C234 H219 0.959 . S
C234 H220 0.961 . S
C234 C233 1.502 . S
C235 H221 0.960 . S
C235 H222 0.961 . S
C235 H223 0.959 . S
C235 C233 1.561 . S
C236 C233 1.526 . S
C236 C237 1.396 . S
C236 C241 1.390 . S
C237 C231 1.465 . S
C237 C236 1.396 . S
C237 C238 1.399 . S
C238 H224 0.929 . S
C238 C237 1.399 . S
C238 C239 1.385 . S
C239 H225 0.931 . S
C239 C238 1.385 . S
C239 C240 1.389 . S
C240 C239 1.389 . S
C240 C241 1.387 . S
C241 H226 0.930 . S
C241 C236 1.390 . S
C241 C240 1.387 . S
H242 C254 0.930 . S
H243 C256 0.930 . S
H244 C257 0.930 . S
H245 C261 0.959 . S
H246 C261 0.959 . S
H247 C261 0.961 . S
H248 C262 0.960 . S
H249 C262 0.961 . S
H250 C262 0.959 . S
H251 C265 0.929 . S
H252 C266 0.931 . S
H253 C268 0.930 . S
C254 H242 0.930 . S
C254 C255 1.399 . S
C254 C259 1.399 . S
C255 C254 1.399 . S
C255 C256 1.376 . S
C256 H243 0.930 . S
C256 C255 1.376 . S
C256 C257 1.388 1_545 S
C257 H244 0.930 . S
C257 C256 1.388 1_565 S
C257 C258 1.390 . S
C258 C257 1.390 . S
C258 C259 1.394 1_565 S
C258 C264 1.465 . S
C259 C254 1.399 . S
C259 C258 1.394 1_545 S
C259 C260 1.516 . S
C260 C259 1.516 . S
C260 C261 1.502 . S
C260 C262 1.561 . S
C260 C263 1.526 1_545 S
C261 H245 0.959 . S
C261 H246 0.959 . S
C261 H247 0.961 . S
C261 C260 1.502 . S
C262 H248 0.960 . S
C262 H249 0.961 . S
C262 H250 0.959 . S
C262 C260 1.561 . S
C263 C260 1.526 1_565 S
C263 C264 1.396 . S
C263 C268 1.390 . S
C264 C258 1.465 . S
C264 C263 1.396 . S
C264 C265 1.399 . S
C265 H251 0.929 . S
C265 C264 1.399 . S
C265 C266 1.385 . S
C266 H252 0.931 . S
C266 C265 1.385 . S
C266 C267 1.389 . S
C267 C266 1.389 . S
C267 C268 1.387 . S
C268 H253 0.930 . S
C268 C263 1.390 . S
C268 C267 1.387 . S
H269 C281 0.930 . S
H270 C283 0.930 . S
H271 C284 0.930 . S
H272 C288 0.959 . S
H273 C288 0.959 . S
H274 C288 0.961 . S
H275 C289 0.960 . S
H276 C289 0.961 . S
H277 C289 0.959 . S
H278 C292 0.929 . S
H279 C293 0.931 . S
H280 C295 0.930 . S
C281 H269 0.930 . S
C281 C282 1.399 . S
C281 C286 1.399 . S
C282 C281 1.399 . S
C282 C283 1.376 . S
C283 H270 0.930 . S
C283 C282 1.376 . S
C283 C284 1.388 . S
C284 H271 0.930 . S
C284 C283 1.388 . S
C284 C285 1.390 . S
C285 C284 1.390 . S
C285 C286 1.394 . S
C285 C291 1.465 . S
C286 C281 1.399 . S
C286 C285 1.394 . S
C286 C287 1.516 . S
C287 C286 1.516 . S
C287 C288 1.502 . S
C287 C289 1.561 . S
C287 C290 1.526 . S
C288 H272 0.959 . S
C288 H273 0.959 . S
C288 H274 0.961 . S
C288 C287 1.502 . S
C289 H275 0.960 . S
C289 H276 0.961 . S
C289 H277 0.959 . S
C289 C287 1.561 . S
C290 C287 1.526 . S
C290 C291 1.396 . S
C290 C295 1.390 . S
C291 C285 1.465 . S
C291 C290 1.396 . S
C291 C292 1.399 . S
C292 H278 0.929 . S
C292 C291 1.399 . S
C292 C293 1.385 . S
C293 H279 0.931 . S
C293 C292 1.385 . S
C293 C294 1.389 . S
C294 C293 1.389 . S
C294 C295 1.387 . S
C295 H280 0.930 . S
C295 C290 1.390 . S
C295 C294 1.387 . S
H296 C308 0.930 . S
H297 C310 0.930 . S
H298 C311 0.930 . S
H299 C315 0.959 . S
H300 C315 0.959 . S
H301 C315 0.961 . S
H302 C316 0.960 . S
H303 C316 0.961 . S
H304 C316 0.959 . S
H305 C319 0.929 . S
H306 C320 0.931 . S
H307 C322 0.930 . S
C308 H296 0.930 . S
C308 C309 1.399 . S
C308 C313 1.399 . S
C309 C308 1.399 . S
C309 C310 1.376 . S
C310 H297 0.930 . S
C310 C309 1.376 . S
C310 C311 1.388 . S
C311 H298 0.930 . S
C311 C310 1.388 . S
C311 C312 1.390 . S
C312 C311 1.390 . S
C312 C313 1.394 . S
C312 C318 1.465 . S
C313 C308 1.399 . S
C313 C312 1.394 . S
C313 C314 1.516 . S
C314 C313 1.516 . S
C314 C315 1.502 . S
C314 C316 1.561 . S
C314 C317 1.526 . S
C315 H299 0.959 . S
C315 H300 0.959 . S
C315 H301 0.961 . S
C315 C314 1.502 . S
C316 H302 0.960 . S
C316 H303 0.961 . S
C316 H304 0.959 . S
C316 C314 1.561 . S
C317 C314 1.526 . S
C317 C318 1.396 . S
C317 C322 1.390 . S
C318 C312 1.465 . S
C318 C317 1.396 . S
C318 C319 1.399 . S
C319 H305 0.929 . S
C319 C318 1.399 . S
C319 C320 1.385 . S
C320 H306 0.931 . S
C320 C319 1.385 . S
C320 C321 1.389 . S
C321 C320 1.389 . S
C321 C322 1.387 . S
C322 H307 0.930 . S
C322 C317 1.390 . S
C322 C321 1.387 . S
H323 C335 0.930 . S
H324 C337 0.930 . S
H325 C338 0.930 . S
H326 C342 0.959 . S
H327 C342 0.959 . S
H328 C342 0.961 . S
H329 C343 0.960 . S
H330 C343 0.961 . S
H331 C343 0.959 . S
H332 C346 0.929 . S
H333 C347 0.931 . S
H334 C349 0.930 . S
C335 H323 0.930 . S
C335 C336 1.399 . S
C335 C340 1.399 1_655 S
C336 C335 1.399 . S
C336 C337 1.376 . S
C337 H324 0.930 . S
C337 C336 1.376 . S
C337 C338 1.388 . S
C338 H325 0.930 . S
C338 C337 1.388 . S
C338 C339 1.390 . S
C339 C338 1.390 . S
C339 C340 1.394 1_655 S
C339 C345 1.465 1_655 S
C340 C335 1.399 1_455 S
C340 C339 1.394 1_455 S
C340 C341 1.516 . S
C341 C340 1.516 . S
C341 C342 1.502 . S
C341 C343 1.561 . S
C341 C344 1.526 . S
C342 H326 0.959 . S
C342 H327 0.959 . S
C342 H328 0.961 . S
C342 C341 1.502 . S
C343 H329 0.960 . S
C343 H330 0.961 . S
C343 H331 0.959 . S
C343 C341 1.561 . S
C344 C341 1.526 . S
C344 C345 1.396 . S
C344 C349 1.390 . S
C345 C339 1.465 1_455 S
C345 C344 1.396 . S
C345 C346 1.399 . S
C346 H332 0.929 . S
C346 C345 1.399 . S
C346 C347 1.385 . S
C347 H333 0.931 . S
C347 C346 1.385 . S
C347 C348 1.389 . S
C348 C347 1.389 . S
C348 C349 1.387 . S
C349 H334 0.930 . S
C349 C344 1.390 . S
C349 C348 1.387 . S
H350 C362 0.930 . S
H351 C364 0.930 . S
H352 C365 0.930 . S
H353 C369 0.959 . S
H354 C369 0.959 . S
H355 C369 0.961 . S
H356 C370 0.960 . S
H357 C370 0.961 . S
H358 C370 0.959 . S
H359 C373 0.929 . S
H360 C374 0.931 . S
H361 C376 0.930 . S
C362 H350 0.930 . S
C362 C363 1.399 . S
C362 C367 1.399 . S
C363 C362 1.399 . S
C363 C364 1.376 . S
C364 H351 0.930 . S
C364 C363 1.376 . S
C364 C365 1.388 . S
C365 H352 0.930 . S
C365 C364 1.388 . S
C365 C366 1.390 . S
C366 C365 1.390 . S
C366 C367 1.394 . S
C366 C372 1.465 . S
C367 C362 1.399 . S
C367 C366 1.394 . S
C367 C368 1.516 . S
C368 C367 1.516 . S
C368 C369 1.502 . S
C368 C370 1.561 . S
C368 C371 1.526 . S
C369 H353 0.959 . S
C369 H354 0.959 . S
C369 H355 0.961 . S
C369 C368 1.502 . S
C370 H356 0.960 . S
C370 H357 0.961 . S
C370 H358 0.959 . S
C370 C368 1.561 . S
C371 C368 1.526 . S
C371 C372 1.396 . S
C371 C376 1.390 . S
C372 C366 1.465 . S
C372 C371 1.396 . S
C372 C373 1.399 . S
C373 H359 0.929 . S
C373 C372 1.399 . S
C373 C374 1.385 . S
C374 H360 0.931 . S
C374 C373 1.385 . S
C374 C375 1.389 . S
C375 C374 1.389 . S
C375 C376 1.387 . S
C376 H361 0.930 . S
C376 C371 1.390 . S
C376 C375 1.387 . S
H377 C389 0.930 . S
H378 C391 0.930 . S
H379 C392 0.930 . S
H380 C396 0.959 . S
H381 C396 0.959 . S
H382 C396 0.961 . S
H383 C397 0.960 . S
H384 C397 0.961 1_655 S
H385 C397 0.959 . S
H386 C400 0.929 . S
H387 C401 0.931 . S
H388 C403 0.930 . S
C389 H377 0.930 . S
C389 C390 1.399 . S
C389 C394 1.399 . S
C390 C389 1.399 . S
C390 C391 1.376 . S
C391 H378 0.930 . S
C391 C390 1.376 . S
C391 C392 1.388 . S
C392 H379 0.930 . S
C392 C391 1.388 . S
C392 C393 1.390 . S
C393 C392 1.390 . S
C393 C394 1.394 . S
C393 C399 1.465 1_455 S
C394 C389 1.399 . S
C394 C393 1.394 . S
C394 C395 1.516 1_455 S
C395 C394 1.516 1_655 S
C395 C396 1.502 . S
C395 C397 1.561 1_655 S
C395 C398 1.526 . S
C396 H380 0.959 . S
C396 H381 0.959 . S
C396 H382 0.961 . S
C396 C395 1.502 . S
C397 H383 0.960 . S
C397 H384 0.961 1_455 S
C397 H385 0.959 . S
C397 C395 1.561 1_455 S
C398 C395 1.526 . S
C398 C399 1.396 . S
C398 C403 1.390 . S
C399 C393 1.465 1_655 S
C399 C398 1.396 . S
C399 C400 1.399 . S
C400 H386 0.929 . S
C400 C399 1.399 . S
C400 C401 1.385 . S
C401 H387 0.931 . S
C401 C400 1.385 . S
C401 C402 1.389 . S
C402 C401 1.389 . S
C402 C403 1.387 . S
C403 H388 0.930 . S
C403 C398 1.390 . S
C403 C402 1.387 . S
H404 C416 0.930 . S
H405 C418 0.930 1_545 S
H406 C419 0.930 . S
H407 C423 0.959 . S
H408 C423 0.959 . S
H409 C423 0.961 1_545 S
H410 C424 0.960 . S
H411 C424 0.961 . S
H412 C424 0.959 . S
H413 C427 0.929 . S
H414 C428 0.931 . S
H415 C430 0.930 . S
C416 H404 0.930 . S
C416 C417 1.399 . S
C416 C421 1.399 1_545 S
C417 C416 1.399 . S
C417 C418 1.376 1_545 S
C418 H405 0.930 1_565 S
C418 C417 1.376 1_565 S
C418 C419 1.388 . S
C419 H406 0.930 . S
C419 C418 1.388 . S
C419 C420 1.390 . S
C420 C419 1.390 . S
C420 C421 1.394 . S
C420 C426 1.465 . S
C421 C416 1.399 1_565 S
C421 C420 1.394 . S
C421 C422 1.516 . S
C422 C421 1.516 . S
C422 C423 1.502 . S
C422 C424 1.561 . S
C422 C425 1.526 . S
C423 H407 0.959 . S
C423 H408 0.959 . S
C423 H409 0.961 1_565 S
C423 C422 1.502 . S
C424 H410 0.960 . S
C424 H411 0.961 . S
C424 H412 0.959 . S
C424 C422 1.561 . S
C425 C422 1.526 . S
C425 C426 1.396 . S
C425 C430 1.390 . S
C426 C420 1.465 . S
C426 C425 1.396 . S
C426 C427 1.399 . S
C427 H413 0.929 . S
C427 C426 1.399 . S
C427 C428 1.385 . S
C428 H414 0.931 . S
C428 C427 1.385 . S
C428 C429 1.389 . S
C429 C428 1.389 . S
C429 C430 1.387 . S
C430 H415 0.930 . S
C430 C425 1.390 . S
C430 C429 1.387 . S
H431 C443 0.930 . S
H432 C445 0.930 . S
H433 C446 0.930 . S
H434 C450 0.959 . S
H435 C450 0.959 . S
H436 C450 0.961 . S
H437 C451 0.960 . S
H438 C451 0.961 . S
H439 C451 0.959 . S
H440 C454 0.929 . S
H441 C455 0.931 . S
H442 C457 0.930 . S
C443 H431 0.930 . S
C443 C444 1.399 . S
C443 C448 1.399 . S
C444 C443 1.399 . S
C444 C445 1.376 . S
C445 H432 0.930 . S
C445 C444 1.376 . S
C445 C446 1.388 . S
C446 H433 0.930 . S
C446 C445 1.388 . S
C446 C447 1.390 . S
C447 C446 1.390 . S
C447 C448 1.394 . S
C447 C453 1.465 . S
C448 C443 1.399 . S
C448 C447 1.394 . S
C448 C449 1.516 . S
C449 C448 1.516 . S
C449 C450 1.502 . S
C449 C451 1.561 . S
C449 C452 1.526 . S
C450 H434 0.959 . S
C450 H435 0.959 . S
C450 H436 0.961 . S
C450 C449 1.502 . S
C451 H437 0.960 . S
C451 H438 0.961 . S
C451 H439 0.959 . S
C451 C449 1.561 . S
C452 C449 1.526 . S
C452 C453 1.396 . S
C452 C457 1.390 . S
C453 C447 1.465 . S
C453 C452 1.396 . S
C453 C454 1.399 . S
C454 H440 0.929 . S
C454 C453 1.399 . S
C454 C455 1.385 . S
C455 H441 0.931 . S
C455 C454 1.385 . S
C455 C456 1.389 . S
C456 C455 1.389 . S
C456 C457 1.387 . S
C457 H442 0.930 . S
C457 C452 1.390 . S
C457 C456 1.387 . S
H458 C470 0.930 . S
H459 C472 0.930 . S
H460 C473 0.930 . S
H461 C477 0.959 . S
H462 C477 0.959 . S
H463 C477 0.961 . S
H464 C478 0.960 . S
H465 C478 0.961 . S
H466 C478 0.959 . S
H467 C481 0.929 . S
H468 C482 0.931 . S
H469 C484 0.930 . S
C470 H458 0.930 . S
C470 C471 1.399 . S
C470 C475 1.399 1_565 S
C471 C470 1.399 . S
C471 C472 1.376 . S
C472 H459 0.930 . S
C472 C471 1.376 . S
C472 C473 1.388 1_565 S
C473 H460 0.930 . S
C473 C472 1.388 1_545 S
C473 C474 1.390 . S
C474 C473 1.390 . S
C474 C475 1.394 . S
C474 C480 1.465 . S
C475 C470 1.399 1_545 S
C475 C474 1.394 . S
C475 C476 1.516 . S
C476 C475 1.516 . S
C476 C477 1.502 . S
C476 C478 1.561 . S
C476 C479 1.526 . S
C477 H461 0.959 . S
C477 H462 0.959 . S
C477 H463 0.961 . S
C477 C476 1.502 . S
C478 H464 0.960 . S
C478 H465 0.961 . S
C478 H466 0.959 . S
C478 C476 1.561 . S
C479 C476 1.526 . S
C479 C480 1.396 . S
C479 C484 1.390 . S
C480 C474 1.465 . S
C480 C479 1.396 . S
C480 C481 1.399 . S
C481 H467 0.929 . S
C481 C480 1.399 . S
C481 C482 1.385 . S
C482 H468 0.931 . S
C482 C481 1.385 . S
C482 C483 1.389 . S
C483 C482 1.389 . S
C483 C484 1.387 . S
C484 H469 0.930 . S
C484 C479 1.390 . S
C484 C483 1.387 . S
H485 C497 0.930 . S
H486 C499 0.930 . S
H487 C500 0.930 . S
H488 C504 0.959 . S
H489 C504 0.959 . S
H490 C504 0.961 . S
H491 C505 0.960 . S
H492 C505 0.961 . S
H493 C505 0.959 . S
H494 C508 0.929 . S
H495 C509 0.931 . S
H496 C511 0.930 . S
C497 H485 0.930 . S
C497 C498 1.399 . S
C497 C502 1.399 . S
C498 C497 1.399 . S
C498 C499 1.376 . S
C499 H486 0.930 . S
C499 C498 1.376 . S
C499 C500 1.388 . S
C500 H487 0.930 . S
C500 C499 1.388 . S
C500 C501 1.390 . S
C501 C500 1.390 . S
C501 C502 1.394 . S
C501 C507 1.465 . S
C502 C497 1.399 . S
C502 C501 1.394 . S
C502 C503 1.516 . S
C503 C502 1.516 . S
C503 C504 1.502 . S
C503 C505 1.561 . S
C503 C506 1.526 . S
C504 H488 0.959 . S
C504 H489 0.959 . S
C504 H490 0.961 . S
C504 C503 1.502 . S
C505 H491 0.960 . S
C505 H492 0.961 . S
C505 H493 0.959 . S
C505 C503 1.561 . S
C506 C503 1.526 . S
C506 C507 1.396 . S
C506 C511 1.390 . S
C507 C501 1.465 . S
C507 C506 1.396 . S
C507 C508 1.399 . S
C508 H494 0.929 . S
C508 C507 1.399 . S
C508 C509 1.385 . S
C509 H495 0.931 . S
C509 C508 1.385 . S
C509 C510 1.389 . S
C510 C509 1.389 . S
C510 C511 1.387 . S
C511 H496 0.930 . S
C511 C506 1.390 . S
C511 C510 1.387 . S
H512 C524 0.930 . S
H513 C526 0.930 . S
H514 C527 0.930 . S
H515 C531 0.959 . S
H516 C531 0.959 . S
H517 C531 0.961 . S
H518 C532 0.960 . S
H519 C532 0.961 . S
H520 C532 0.959 . S
H521 C535 0.929 . S
H522 C536 0.931 . S
H523 C538 0.930 . S
C524 H512 0.930 . S
C524 C525 1.399 . S
C524 C529 1.399 . S
C525 C524 1.399 . S
C525 C526 1.376 . S
C526 H513 0.930 . S
C526 C525 1.376 . S
C526 C527 1.388 . S
C527 H514 0.930 . S
C527 C526 1.388 . S
C527 C528 1.390 . S
C528 C527 1.390 . S
C528 C529 1.394 . S
C528 C534 1.465 . S
C529 C524 1.399 . S
C529 C528 1.394 . S
C529 C530 1.516 . S
C530 C529 1.516 . S
C530 C531 1.502 . S
C530 C532 1.561 . S
C530 C533 1.526 . S
C531 H515 0.959 . S
C531 H516 0.959 . S
C531 H517 0.961 . S
C531 C530 1.502 . S
C532 H518 0.960 . S
C532 H519 0.961 . S
C532 H520 0.959 . S
C532 C530 1.561 . S
C533 C530 1.526 . S
C533 C534 1.396 . S
C533 C538 1.390 . S
C534 C528 1.465 . S
C534 C533 1.396 . S
C534 C535 1.399 . S
C535 H521 0.929 . S
C535 C534 1.399 . S
C535 C536 1.385 . S
C536 H522 0.931 . S
C536 C535 1.385 . S
C536 C537 1.389 . S
C537 C536 1.389 . S
C537 C538 1.387 . S
C538 H523 0.930 . S
C538 C533 1.390 . S
C538 C537 1.387 . S
H539 C551 0.930 . S
H540 C553 0.930 . S
H541 C554 0.930 . S
H542 C558 0.959 . S
H543 C558 0.959 . S
H544 C558 0.961 . S
H545 C559 0.960 . S
H546 C559 0.961 . S
H547 C559 0.959 . S
H548 C562 0.929 . S
H549 C563 0.931 . S
H550 C565 0.930 . S
C551 H539 0.930 . S
C551 C552 1.399 . S
C551 C556 1.399 1_455 S
C552 C551 1.399 . S
C552 C553 1.376 . S
C553 H540 0.930 . S
C553 C552 1.376 . S
C553 C554 1.388 1_455 S
C554 H541 0.930 . S
C554 C553 1.388 1_655 S
C554 C555 1.390 . S
C555 C554 1.390 . S
C555 C556 1.394 . S
C555 C561 1.465 . S
C556 C551 1.399 1_655 S
C556 C555 1.394 . S
C556 C557 1.516 . S
C557 C556 1.516 . S
C557 C558 1.502 . S
C557 C559 1.561 . S
C557 C560 1.526 . S
C558 H542 0.959 . S
C558 H543 0.959 . S
C558 H544 0.961 . S
C558 C557 1.502 . S
C559 H545 0.960 . S
C559 H546 0.961 . S
C559 H547 0.959 . S
C559 C557 1.561 . S
C560 C557 1.526 . S
C560 C561 1.396 . S
C560 C565 1.390 . S
C561 C555 1.465 . S
C561 C560 1.396 . S
C561 C562 1.399 . S
C562 H548 0.929 . S
C562 C561 1.399 . S
C562 C563 1.385 . S
C563 H549 0.931 . S
C563 C562 1.385 . S
C563 C564 1.389 . S
C564 C563 1.389 . S
C564 C565 1.387 . S
C565 H550 0.930 . S
C565 C560 1.390 . S
C565 C564 1.387 . S
H566 C578 0.930 . S
H567 C580 0.930 . S
H568 C581 0.930 . S
H569 C585 0.959 . S
H570 C585 0.959 . S
H571 C585 0.961 . S
H572 C586 0.960 . S
H573 C586 0.961 . S
H574 C586 0.959 . S
H575 C589 0.929 . S
H576 C590 0.931 . S
H577 C592 0.930 . S
C578 H566 0.930 . S
C578 C579 1.399 . S
C578 C583 1.399 . S
C579 C578 1.399 . S
C579 C580 1.376 . S
C580 H567 0.930 . S
C580 C579 1.376 . S
C580 C581 1.388 . S
C581 H568 0.930 . S
C581 C580 1.388 . S
C581 C582 1.390 . S
C582 C581 1.390 . S
C582 C583 1.394 . S
C582 C588 1.465 . S
C583 C578 1.399 . S
C583 C582 1.394 . S
C583 C584 1.516 . S
C584 C583 1.516 . S
C584 C585 1.502 . S
C584 C586 1.561 . S
C584 C587 1.526 . S
C585 H569 0.959 . S
C585 H570 0.959 . S
C585 H571 0.961 . S
C585 C584 1.502 . S
C586 H572 0.960 . S
C586 H573 0.961 . S
C586 H574 0.959 . S
C586 C584 1.561 . S
C587 C584 1.526 . S
C587 C588 1.396 . S
C587 C592 1.390 . S
C588 C582 1.465 . S
C588 C587 1.396 . S
C588 C589 1.399 . S
C589 H575 0.929 . S
C589 C588 1.399 . S
C589 C590 1.385 . S
C590 H576 0.931 . S
C590 C589 1.385 . S
C590 C591 1.389 . S
C591 C590 1.389 . S
C591 C592 1.387 . S
C592 H577 0.930 . S
C592 C587 1.390 . S
C592 C591 1.387 . S
H593 C605 0.932 . S
H594 C607 0.930 . S
H595 C608 0.930 . S
H596 C612 0.959 . S
H597 C612 0.959 . S
H598 C612 0.961 . S
H599 C613 0.960 . S
H600 C613 0.961 . S
H601 C613 0.959 . S
H602 C616 0.929 . S
H603 C617 0.931 . S
H604 C619 0.930 . S
C605 H593 0.932 . S
C605 C606 1.406 . S
C605 C610 1.389 1_655 S
C606 C605 1.406 . S
C606 C607 1.376 . S
C607 H594 0.930 . S
C607 C606 1.376 . S
C607 C608 1.388 1_655 S
C608 H595 0.930 . S
C608 C607 1.388 1_455 S
C608 C609 1.390 . S
C609 C608 1.390 . S
C609 C610 1.394 . S
C609 C615 1.465 . S
C610 C605 1.389 1_455 S
C610 C609 1.394 . S
C610 C611 1.516 . S
C611 C610 1.516 . S
C611 C612 1.502 . S
C611 C613 1.561 . S
C611 C614 1.526 . S
C612 H596 0.959 . S
C612 H597 0.959 . S
C612 H598 0.961 . S
C612 C611 1.502 . S
C613 H599 0.960 . S
C613 H600 0.961 . S
C613 H601 0.959 . S
C613 C611 1.561 . S
C614 C611 1.526 . S
C614 C615 1.396 . S
C614 C619 1.390 . S
C615 C609 1.465 . S
C615 C614 1.396 . S
C615 C616 1.399 . S
C616 H602 0.929 . S
C616 C615 1.399 . S
C616 C617 1.385 . S
C617 H603 0.931 . S
C617 C616 1.385 . S
C617 C618 1.389 . S
C618 C617 1.389 . S
C618 C619 1.387 . S
C619 H604 0.930 . S
C619 C614 1.390 . S
C619 C618 1.387 . S
H620 C632 0.930 . S
H621 C634 0.930 . S
H622 C635 0.930 . S
H623 C639 0.959 . S
H624 C639 0.959 . S
H625 C639 0.961 . S
H626 C640 0.960 . S
H627 C640 0.961 . S
H628 C640 0.959 . S
H629 C643 0.929 . S
H630 C644 0.931 . S
H631 C646 0.930 . S
C632 H620 0.930 . S
C632 C633 1.399 . S
C632 C637 1.399 . S
C633 C632 1.399 . S
C633 C634 1.376 . S
C634 H621 0.930 . S
C634 C633 1.376 . S
C634 C635 1.388 . S
C635 H622 0.930 . S
C635 C634 1.388 . S
C635 C636 1.390 . S
C636 C635 1.390 . S
C636 C637 1.394 . S
C636 C642 1.465 . S
C637 C632 1.399 . S
C637 C636 1.394 . S
C637 C638 1.516 . S
C638 C637 1.516 . S
C638 C639 1.502 . S
C638 C640 1.561 . S
C638 C641 1.526 . S
C639 H623 0.959 . S
C639 H624 0.959 . S
C639 H625 0.961 . S
C639 C638 1.502 . S
C640 H626 0.960 . S
C640 H627 0.961 . S
C640 H628 0.959 . S
C640 C638 1.561 . S
C641 C638 1.526 . S
C641 C642 1.396 . S
C641 C646 1.390 . S
C642 C636 1.465 . S
C642 C641 1.396 . S
C642 C643 1.399 . S
C643 H629 0.929 . S
C643 C642 1.399 . S
C643 C644 1.385 . S
C644 H630 0.931 . S
C644 C643 1.385 . S
C644 C645 1.389 . S
C645 C644 1.389 . S
C645 C646 1.387 . S
C646 H631 0.930 . S
C646 C641 1.390 . S
C646 C645 1.387 . S
H647 C659 0.930 . S
H648 C661 0.930 . S
H649 C662 0.930 . S
H650 C666 0.959 . S
H651 C666 0.959 . S
H652 C666 0.961 . S
H653 C667 0.960 . S
H654 C667 0.961 . S
H655 C667 0.959 . S
H656 C670 0.929 . S
H657 C671 0.931 . S
H658 C673 0.930 . S
C659 H647 0.930 . S
C659 C660 1.399 . S
C659 C664 1.399 . S
C660 C659 1.399 . S
C660 C661 1.376 . S
C661 H648 0.930 . S
C661 C660 1.376 . S
C661 C662 1.388 . S
C662 H649 0.930 . S
C662 C661 1.388 . S
C662 C663 1.390 . S
C663 C662 1.390 . S
C663 C664 1.394 . S
C663 C669 1.465 . S
C664 C659 1.399 . S
C664 C663 1.394 . S
C664 C665 1.516 . S
C665 C664 1.516 . S
C665 C666 1.502 . S
C665 C667 1.561 . S
C665 C668 1.526 . S
C666 H650 0.959 . S
C666 H651 0.959 . S
C666 H652 0.961 . S
C666 C665 1.502 . S
C667 H653 0.960 . S
C667 H654 0.961 . S
C667 H655 0.959 . S
C667 C665 1.561 . S
C668 C665 1.526 . S
C668 C669 1.396 . S
C668 C673 1.390 . S
C669 C663 1.465 . S
C669 C668 1.396 . S
C669 C670 1.399 . S
C670 H656 0.929 . S
C670 C669 1.399 . S
C670 C671 1.385 . S
C671 H657 0.931 . S
C671 C670 1.385 . S
C671 C672 1.389 . S
C672 C671 1.389 . S
C672 C673 1.387 . S
C673 H658 0.930 . S
C673 C668 1.390 . S
C673 C672 1.387 . S
H674 C686 0.930 . S
H675 C688 0.930 . S
H676 C689 0.930 . S
H677 C693 0.959 . S
H678 C693 0.959 . S
H679 C693 0.961 . S
H680 C694 0.960 . S
H681 C694 0.961 . S
H682 C694 0.959 . S
H683 C697 0.929 . S
H684 C698 0.931 . S
H685 C700 0.930 . S
C686 H674 0.930 . S
C686 C687 1.399 . S
C686 C691 1.399 . S
C687 C686 1.399 . S
C687 C688 1.376 . S
C688 H675 0.930 . S
C688 C687 1.376 . S
C688 C689 1.388 . S
C689 H676 0.930 . S
C689 C688 1.388 . S
C689 C690 1.390 . S
C690 C689 1.390 . S
C690 C691 1.394 . S
C690 C696 1.465 . S
C691 C686 1.399 . S
C691 C690 1.394 . S
C691 C692 1.516 . S
C692 C691 1.516 . S
C692 C693 1.502 . S
C692 C694 1.561 . S
C692 C695 1.526 . S
C693 H677 0.959 . S
C693 H678 0.959 . S
C693 H679 0.961 . S
C693 C692 1.502 . S
C694 H680 0.960 . S
C694 H681 0.961 . S
C694 H682 0.959 . S
C694 C692 1.561 . S
C695 C692 1.526 . S
C695 C696 1.396 . S
C695 C700 1.390 . S
C696 C690 1.465 . S
C696 C695 1.396 . S
C696 C697 1.399 . S
C697 H683 0.929 . S
C697 C696 1.399 . S
C697 C698 1.385 . S
C698 H684 0.931 . S
C698 C697 1.385 . S
C698 C699 1.389 . S
C699 C698 1.389 . S
C699 C700 1.387 . S
C700 H685 0.930 . S
C700 C695 1.390 . S
C700 C699 1.387 . S
H701 C713 0.930 . S
H702 C715 0.930 . S
H703 C716 0.930 . S
H704 C720 0.959 . S
H705 C720 0.959 . S
H706 C720 0.961 . S
H707 C721 0.960 . S
H708 C721 0.961 . S
H709 C721 0.959 . S
H710 C724 0.929 . S
H711 C725 0.931 . S
H712 C727 0.930 . S
C713 H701 0.930 . S
C713 C714 1.399 . S
C713 C718 1.399 . S
C714 C713 1.399 . S
C714 C715 1.376 . S
C715 H702 0.930 . S
C715 C714 1.376 . S
C715 C716 1.388 . S
C716 H703 0.930 . S
C716 C715 1.388 . S
C716 C717 1.390 . S
C717 C716 1.390 . S
C717 C718 1.394 . S
C717 C723 1.465 . S
C718 C713 1.399 . S
C718 C717 1.394 . S
C718 C719 1.516 . S
C719 C718 1.516 . S
C719 C720 1.502 . S
C719 C721 1.561 . S
C719 C722 1.526 . S
C720 H704 0.959 . S
C720 H705 0.959 . S
C720 H706 0.961 . S
C720 C719 1.502 . S
C721 H707 0.960 . S
C721 H708 0.961 . S
C721 H709 0.959 . S
C721 C719 1.561 . S
C722 C719 1.526 . S
C722 C723 1.396 . S
C722 C727 1.390 . S
C723 C717 1.465 . S
C723 C722 1.396 . S
C723 C724 1.399 . S
C724 H710 0.929 . S
C724 C723 1.399 . S
C724 C725 1.385 . S
C725 H711 0.931 . S
C725 C724 1.385 . S
C725 C726 1.389 . S
C726 C725 1.389 . S
C726 C727 1.387 . S
C727 H712 0.930 . S
C727 C722 1.390 . S
C727 C726 1.387 . S
H728 C740 0.930 . S
H729 C742 0.930 . S
H730 C743 0.930 . S
H731 C747 0.959 . S
H732 C747 0.959 . S
H733 C747 0.961 . S
H734 C748 0.960 . S
H735 C748 0.961 . S
H736 C748 0.959 . S
H737 C751 0.929 . S
H738 C752 0.931 . S
H739 C754 0.930 . S
C740 H728 0.930 . S
C740 C741 1.399 . S
C740 C745 1.399 . S
C741 C740 1.399 . S
C741 C742 1.376 . S
C742 H729 0.930 . S
C742 C741 1.376 . S
C742 C743 1.388 . S
C743 H730 0.930 . S
C743 C742 1.388 . S
C743 C744 1.390 . S
C744 C743 1.390 . S
C744 C745 1.394 . S
C744 C750 1.465 . S
C745 C740 1.399 . S
C745 C744 1.394 . S
C745 C746 1.516 . S
C746 C745 1.516 . S
C746 C747 1.502 . S
C746 C748 1.561 . S
C746 C749 1.526 . S
C747 H731 0.959 . S
C747 H732 0.959 . S
C747 H733 0.961 . S
C747 C746 1.502 . S
C748 H734 0.960 . S
C748 H735 0.961 . S
C748 H736 0.959 . S
C748 C746 1.561 . S
C749 C746 1.526 . S
C749 C750 1.396 . S
C749 C754 1.390 . S
C750 C744 1.465 . S
C750 C749 1.396 . S
C750 C751 1.399 . S
C751 H737 0.929 . S
C751 C750 1.399 . S
C751 C752 1.385 . S
C752 H738 0.931 . S
C752 C751 1.385 . S
C752 C753 1.389 . S
C753 C752 1.389 . S
C753 C754 1.387 . S
C754 H739 0.930 . S
C754 C749 1.390 . S
C754 C753 1.387 . S
H755 C767 0.930 . S
H756 C769 0.930 . S
H757 C770 0.930 . S
H758 C774 0.959 . S
H759 C774 0.959 . S
H760 C774 0.961 . S
H761 C775 0.960 . S
H762 C775 0.961 . S
H763 C775 0.959 . S
H764 C778 0.929 . S
H765 C779 0.931 . S
H766 C781 0.930 . S
C767 H755 0.930 . S
C767 C768 1.399 . S
C767 C772 1.399 . S
C768 C767 1.399 . S
C768 C769 1.376 . S
C769 H756 0.930 . S
C769 C768 1.376 . S
C769 C770 1.388 . S
C770 H757 0.930 . S
C770 C769 1.388 . S
C770 C771 1.390 . S
C771 C770 1.390 . S
C771 C772 1.394 . S
C771 C777 1.465 . S
C772 C767 1.399 . S
C772 C771 1.394 . S
C772 C773 1.516 . S
C773 C772 1.516 . S
C773 C774 1.502 . S
C773 C775 1.561 . S
C773 C776 1.526 . S
C774 H758 0.959 . S
C774 H759 0.959 . S
C774 H760 0.961 . S
C774 C773 1.502 . S
C775 H761 0.960 . S
C775 H762 0.961 . S
C775 H763 0.959 . S
C775 C773 1.561 . S
C776 C773 1.526 . S
C776 C777 1.396 . S
C776 C781 1.390 . S
C777 C771 1.465 . S
C777 C776 1.396 . S
C777 C778 1.399 . S
C778 H764 0.929 . S
C778 C777 1.399 . S
C778 C779 1.385 . S
C779 H765 0.931 . S
C779 C778 1.385 . S
C779 C780 1.389 . S
C780 C779 1.389 . S
C780 C781 1.387 . S
C781 H766 0.930 . S
C781 C776 1.390 . S
C781 C780 1.387 . S
H782 C794 0.930 . S
H783 C796 0.930 . S
H784 C797 0.930 . S
H785 C801 0.959 . S
H786 C801 0.959 . S
H787 C801 0.961 . S
H788 C802 0.960 . S
H789 C802 0.961 . S
H790 C802 0.959 . S
H791 C805 0.929 . S
H792 C806 0.931 . S
H793 C808 0.930 . S
C794 H782 0.930 . S
C794 C795 1.399 . S
C794 C799 1.399 . S
C795 C794 1.399 . S
C795 C796 1.376 . S
C796 H783 0.930 . S
C796 C795 1.376 . S
C796 C797 1.388 . S
C797 H784 0.930 . S
C797 C796 1.388 . S
C797 C798 1.390 . S
C798 C797 1.390 . S
C798 C799 1.394 . S
C798 C804 1.465 . S
C799 C794 1.399 . S
C799 C798 1.394 . S
C799 C800 1.516 . S
C800 C799 1.516 . S
C800 C801 1.502 . S
C800 C802 1.561 . S
C800 C803 1.526 . S
C801 H785 0.959 . S
C801 H786 0.959 . S
C801 H787 0.961 . S
C801 C800 1.502 . S
C802 H788 0.960 . S
C802 H789 0.961 . S
C802 H790 0.959 . S
C802 C800 1.561 . S
C803 C800 1.526 . S
C803 C804 1.396 . S
C803 C808 1.390 . S
C804 C798 1.465 . S
C804 C803 1.396 . S
C804 C805 1.399 . S
C805 H791 0.929 . S
C805 C804 1.399 . S
C805 C806 1.385 . S
C806 H792 0.931 . S
C806 C805 1.385 . S
C806 C807 1.389 . S
C807 C806 1.389 . S
C807 C808 1.387 . S
C808 H793 0.930 . S
C808 C803 1.390 . S
C808 C807 1.387 . S
H809 C821 0.930 . S
H810 C823 0.930 . S
H811 C824 0.930 . S
H812 C828 0.959 . S
H813 C828 0.959 . S
H814 C828 0.961 . S
H815 C829 0.960 . S
H816 C829 0.961 . S
H817 C829 0.959 . S
H818 C832 0.929 . S
H819 C833 0.931 . S
H820 C835 0.930 . S
C821 H809 0.930 . S
C821 C822 1.399 . S
C821 C826 1.399 . S
C822 C821 1.399 . S
C822 C823 1.376 . S
C823 H810 0.930 . S
C823 C822 1.376 . S
C823 C824 1.388 . S
C824 H811 0.930 . S
C824 C823 1.388 . S
C824 C825 1.390 . S
C825 C824 1.390 . S
C825 C826 1.394 . S
C825 C831 1.465 . S
C826 C821 1.399 . S
C826 C825 1.394 . S
C826 C827 1.516 . S
C827 C826 1.516 . S
C827 C828 1.502 . S
C827 C829 1.561 . S
C827 C830 1.526 . S
C828 H812 0.959 . S
C828 H813 0.959 . S
C828 H814 0.961 . S
C828 C827 1.502 . S
C829 H815 0.960 . S
C829 H816 0.961 . S
C829 H817 0.959 . S
C829 C827 1.561 . S
C830 C827 1.526 . S
C830 C831 1.396 . S
C830 C835 1.390 . S
C831 C825 1.465 . S
C831 C830 1.396 . S
C831 C832 1.399 . S
C832 H818 0.929 . S
C832 C831 1.399 . S
C832 C833 1.385 . S
C833 H819 0.931 . S
C833 C832 1.385 . S
C833 C834 1.389 . S
C834 C833 1.389 . S
C834 C835 1.387 . S
C835 H820 0.930 . S
C835 C830 1.390 . S
C835 C834 1.387 . S
C201 C7 0.839 . S
C213 N89 0.796 . S
C228 C25 0.729 . S
C240 N102 0.845 . S
C255 C46 0.899 . S
C267 N111 0.799 . S
C294 N128 0.808 . S
C282 C70 0.899 . S
C321 N141 0.820 . S
C309 C28 0.896 . S
C336 C49 0.690 . S
C348 N150 0.839 . S
C363 C67 0.712 . S
C375 N163 0.830 . S
C390 C4 0.833 . S
C402 N180 0.841 . S
C417 C58 1.643 . S
C429 N176 1.721 . S
C456 N137 1.718 . S
C444 C66 1.626 . S
C483 N154 1.722 . S
C471 C3 1.644 . S
C498 C37 1.649 . S
C510 N167 1.722 . S
C537 N98 1.719 . S
C525 C79 1.619 . S
C552 C16 1.650 . S
C564 N115 1.723 . S
C591 N124 1.720 . S
C579 C24 1.634 . S
C618 N85 1.718 . S
C606 C45 1.618 . S
C645 N164 1.377 . S
C633 C19 1.170 . S
C672 N177 1.375 . S
C660 C41 1.171 . S
C687 C62 1.167 . S
C699 N138 1.374 . S
C726 N151 1.381 . S
C714 C82 1.281 . S
C753 N112 1.382 . S
C741 C40 1.288 . S
C768 C61 1.305 . S
C780 N125 1.364 . S
C807 N86 1.368 . S
C795 C83 1.194 . S
C834 N99 1.363 . S
C822 C20 1.284 . S
