# Generated by pormake.
# Topology pto, (3,4)-cn, num edge types: 1
# Building blocks:
#     Node 0, Type 0, BuildingBlock: VETTIZ_charged_linker_0, # of connection points: 3
#     Node 1, Type 0, BuildingBlock: VETTIZ_charged_linker_0, # of connection points: 3
#     Node 2, Type 0, BuildingBlock: VETTIZ_charged_linker_0, # of connection points: 3
#     Node 3, Type 0, BuildingBlock: VETTIZ_charged_linker_0, # of connection points: 3
#     Node 4, Type 0, BuildingBlock: VETTIZ_charged_linker_0, # of connection points: 3
#     Node 5, Type 0, BuildingBlock: VETTIZ_charged_linker_0, # of connection points: 3
#     Node 6, Type 0, BuildingBlock: VETTIZ_charged_linker_0, # of connection points: 3
#     Node 7, Type 0, BuildingBlock: VETTIZ_charged_linker_0, # of connection points: 3
#     Node 8, Type 1, BuildingBlock: NAWXER_clean_sbu_0, # of connection points: 4
#     Node 9, Type 1, BuildingBlock: NAWXER_clean_sbu_0, # of connection points: 4
#     Node 10, Type 1, BuildingBlock: NAWXER_clean_sbu_0, # of connection points: 4
#     Node 11, Type 1, BuildingBlock: NAWXER_clean_sbu_0, # of connection points: 4
#     Node 12, Type 1, BuildingBlock: NAWXER_clean_sbu_0, # of connection points: 4
#     Node 13, Type 1, BuildingBlock: NAWXER_clean_sbu_0, # of connection points: 4
#     Edge 14, Type (0, 1), BuildingBlock: ZUJKAS_clean_linker_0, # of connection points: 2
#     Edge 15, Type (0, 1), BuildingBlock: ZUJKAS_clean_linker_0, # of connection points: 2
#     Edge 16, Type (0, 1), BuildingBlock: ZUJKAS_clean_linker_0, # of connection points: 2
#     Edge 17, Type (0, 1), BuildingBlock: ZUJKAS_clean_linker_0, # of connection points: 2
#     Edge 18, Type (0, 1), BuildingBlock: ZUJKAS_clean_linker_0, # of connection points: 2
#     Edge 19, Type (0, 1), BuildingBlock: ZUJKAS_clean_linker_0, # of connection points: 2
#     Edge 20, Type (0, 1), BuildingBlock: ZUJKAS_clean_linker_0, # of connection points: 2
#     Edge 21, Type (0, 1), BuildingBlock: ZUJKAS_clean_linker_0, # of connection points: 2
#     Edge 22, Type (0, 1), BuildingBlock: ZUJKAS_clean_linker_0, # of connection points: 2
#     Edge 23, Type (0, 1), BuildingBlock: ZUJKAS_clean_linker_0, # of connection points: 2
#     Edge 24, Type (0, 1), BuildingBlock: ZUJKAS_clean_linker_0, # of connection points: 2
#     Edge 25, Type (0, 1), BuildingBlock: ZUJKAS_clean_linker_0, # of connection points: 2
#     Edge 26, Type (0, 1), BuildingBlock: ZUJKAS_clean_linker_0, # of connection points: 2
#     Edge 27, Type (0, 1), BuildingBlock: ZUJKAS_clean_linker_0, # of connection points: 2
#     Edge 28, Type (0, 1), BuildingBlock: ZUJKAS_clean_linker_0, # of connection points: 2
#     Edge 29, Type (0, 1), BuildingBlock: ZUJKAS_clean_linker_0, # of connection points: 2
#     Edge 30, Type (0, 1), BuildingBlock: ZUJKAS_clean_linker_0, # of connection points: 2
#     Edge 31, Type (0, 1), BuildingBlock: ZUJKAS_clean_linker_0, # of connection points: 2
#     Edge 32, Type (0, 1), BuildingBlock: ZUJKAS_clean_linker_0, # of connection points: 2
#     Edge 33, Type (0, 1), BuildingBlock: ZUJKAS_clean_linker_0, # of connection points: 2
#     Edge 34, Type (0, 1), BuildingBlock: ZUJKAS_clean_linker_0, # of connection points: 2
#     Edge 35, Type (0, 1), BuildingBlock: ZUJKAS_clean_linker_0, # of connection points: 2
#     Edge 36, Type (0, 1), BuildingBlock: ZUJKAS_clean_linker_0, # of connection points: 2
#     Edge 37, Type (0, 1), BuildingBlock: ZUJKAS_clean_linker_0, # of connection points: 2
# Relax obj value: 0.000
# Max RMSD: 0.000
# Mean RMSD: 0.000
data_MOF--net-pto--node1-NAWXER_clean_sbu_0--node2-VETTIZ_charged_linker_0--edge1-ZUJKAS_clean_linker_0
_symmetry_space_group_name_H-M    P1
_symmetry_Int_Tables_number       1
_symmetry_cell_setting            triclinic
loop_
_symmetry_equiv_pos_as_xyz
'x, y, z'
_cell_length_a     67.067521
_cell_length_b     63.00652
_cell_length_c     58.89835
_cell_angle_alpha  89.990147
_cell_angle_beta   89.974464
_cell_angle_gamma 89.978787
loop_
_atom_site_label
_atom_site_type_symbol
_atom_site_fract_x
_atom_site_fract_y
_atom_site_fract_z
_atom_type_partial_charge
C0 C 0.22773 0.21678 0.29703 0.0
C1 C 0.24263 0.20181 0.3022 0.0
C2 C 0.26115 0.20326 0.2909 0.0
C3 C 0.24976 0.2342 0.27004 0.0
C4 C 0.2316 0.23273 0.28103 0.0
C5 C 0.21738 0.24993 0.27385 0.0
H6 H 0.19851 0.33746 0.21072 0.0
C7 C 0.24896 0.25272 0.25455 0.0
C8 C 0.22997 0.26196 0.25674 0.0
H9 H 0.15932 0.30596 0.25831 0.0
H10 H 0.18464 0.27974 0.26591 0.0
H11 H 0.21498 0.29479 0.18724 0.0
H12 H 0.23743 0.33429 0.24096 0.0
H13 H 0.258 0.32691 0.22431 0.0
H14 H 0.23813 0.34218 0.21169 0.0
H15 H 0.22608 0.32022 0.18196 0.0
H16 H 0.2409 0.29634 0.18348 0.0
C17 C 0.19905 0.2393 0.26258 0.0
C18 C 0.21243 0.26362 0.29498 0.0
C19 C 0.30918 0.27235 0.20594 0.0
C20 C 0.3126 0.28863 0.18998 0.0
C21 C 0.29716 0.30326 0.18553 0.0
C22 C 0.27877 0.30179 0.19667 0.0
C23 C 0.27559 0.28547 0.21251 0.0
C24 C 0.29063 0.27107 0.21694 0.0
C25 C 0.28441 0.25471 0.23423 0.0
C26 C 0.26317 0.2617 0.23938 0.0
C27 C 0.25814 0.27974 0.22659 0.0
C28 C 0.28507 0.23261 0.22277 0.0
C29 C 0.29817 0.25693 0.25521 0.0
C30 C 0.1953 0.32477 0.22258 0.0
C31 C 0.17687 0.32383 0.23395 0.0
C32 C 0.17346 0.30721 0.24952 0.0
C33 C 0.18818 0.29193 0.25386 0.0
C34 C 0.20661 0.29325 0.24258 0.0
C35 C 0.20988 0.30943 0.22718 0.0
C36 C 0.23041 0.30845 0.21695 0.0
C37 C 0.23895 0.28905 0.22879 0.0
C38 C 0.22494 0.28021 0.24377 0.0
C39 C 0.22815 0.30492 0.19103 0.0
C40 C 0.24167 0.32903 0.22358 0.0
H41 H 0.27921 0.21959 0.26701 0.0
H42 H 0.21324 0.21605 0.30512 0.0
H43 H 0.22562 0.26504 0.30633 0.0
H44 H 0.20846 0.28014 0.29067 0.0
H45 H 0.20013 0.25646 0.30504 0.0
H46 H 0.20359 0.22505 0.25269 0.0
H47 H 0.18805 0.23409 0.27554 0.0
H48 H 0.19152 0.24968 0.25015 0.0
H49 H 0.32072 0.26091 0.20994 0.0
H50 H 0.29914 0.31571 0.17305 0.0
H51 H 0.26769 0.3134 0.1924 0.0
H52 H 0.28003 0.23361 0.2048 0.0
H53 H 0.30045 0.22607 0.22277 0.0
H54 H 0.27494 0.22102 0.2308 0.0
H55 H 0.30164 0.27391 0.25859 0.0
H56 H 0.29123 0.25108 0.271 0.0
H57 H 0.31253 0.2485 0.25251 0.0
H58 H 0.27302 0.19216 0.29472 0.0
C59 C 0.26479 0.21932 0.27489 0.0
C60 C 0.19704 0.67638 0.74084 0.0
C61 C 0.18092 0.67757 0.72554 0.0
C62 C 0.17983 0.69507 0.71062 0.0
C63 C 0.20992 0.70997 0.72688 0.0
C64 C 0.21132 0.69262 0.74113 0.0
C65 C 0.22946 0.6937 0.75615 0.0
H66 H 0.31186 0.74667 0.79096 0.0
C67 C 0.22682 0.7243 0.73189 0.0
C68 C 0.23839 0.71482 0.74895 0.0
H69 H 0.29118 0.6847 0.8121 0.0
H70 H 0.26284 0.68776 0.78727 0.0
H71 H 0.26929 0.76895 0.79136 0.0
H72 H 0.30214 0.74009 0.7365 0.0
H73 H 0.29279 0.7648 0.72736 0.0
H74 H 0.31015 0.76387 0.75061 0.0
H75 H 0.29015 0.78197 0.77831 0.0
H76 H 0.26523 0.78441 0.76699 0.0
C77 C 0.22237 0.69413 0.78118 0.0
C78 C 0.24324 0.67474 0.75012 0.0
C79 C 0.23245 0.79452 0.69004 0.0
C80 C 0.24553 0.81184 0.6919 0.0
C81 C 0.26101 0.81104 0.70807 0.0
C82 C 0.2636 0.79309 0.72193 0.0
C83 C 0.25045 0.77581 0.71976 0.0
C84 C 0.23507 0.77687 0.70418 0.0
C85 C 0.22196 0.75754 0.70487 0.0
C86 C 0.23214 0.74455 0.7232 0.0
C87 C 0.24894 0.75519 0.73175 0.0
C88 C 0.20074 0.76467 0.71205 0.0
C89 C 0.22304 0.7465 0.68138 0.0
C90 C 0.30134 0.73367 0.79006 0.0
C91 C 0.30384 0.71541 0.80361 0.0
C92 C 0.28954 0.69905 0.80215 0.0
C93 C 0.27312 0.70078 0.78756 0.0
C94 C 0.27086 0.71906 0.77414 0.0
C95 C 0.28482 0.73514 0.77551 0.0
C96 C 0.27988 0.75341 0.75998 0.0
C97 C 0.2609 0.74544 0.74876 0.0
C98 C 0.25567 0.72534 0.75723 0.0
C99 C 0.27605 0.77335 0.77475 0.0
C100 C 0.29712 0.75589 0.7427 0.0
H101 H 0.19238 0.72409 0.69949 0.0
H102 H 0.19838 0.66329 0.75265 0.0
H103 H 0.24165 0.67015 0.73197 0.0
H104 H 0.25924 0.67854 0.75207 0.0
H105 H 0.23962 0.66057 0.76055 0.0
H106 H 0.20892 0.70433 0.78305 0.0
H107 H 0.2184 0.67795 0.78716 0.0
H108 H 0.2335 0.70097 0.79286 0.0
H109 H 0.22022 0.79482 0.67803 0.0
H110 H 0.2713 0.82419 0.70975 0.0
H111 H 0.27575 0.79335 0.73377 0.0
H112 H 0.20145 0.77799 0.72444 0.0
H113 H 0.192 0.77023 0.69718 0.0
H114 H 0.19228 0.75213 0.72091 0.0
H115 H 0.23821 0.74803 0.67389 0.0
H116 H 0.22035 0.72923 0.68231 0.0
H117 H 0.2123 0.75369 0.66925 0.0
H118 H 0.16792 0.69625 0.69827 0.0
C119 C 0.19416 0.71122 0.71124 0.0
C120 C 0.80519 0.69843 0.23966 0.0
C121 C 0.80684 0.68098 0.22488 0.0
C122 C 0.7904 0.67541 0.21124 0.0
C123 C 0.7711 0.70433 0.22719 0.0
C124 C 0.78717 0.70972 0.24068 0.0
C125 C 0.78251 0.72808 0.25617 0.0
H126 H 0.7162 0.80123 0.29418 0.0
C127 C 0.75456 0.71905 0.23247 0.0
C128 C 0.76108 0.73294 0.24956 0.0
H129 H 0.77685 0.7909 0.31661 0.0
H130 H 0.78054 0.76244 0.28966 0.0
H131 H 0.70412 0.75195 0.29008 0.0
H132 H 0.72603 0.79667 0.24066 0.0
H133 H 0.70745 0.78143 0.22745 0.0
H134 H 0.70104 0.7978 0.25151 0.0
H135 H 0.68927 0.77356 0.27965 0.0
H136 H 0.69033 0.74849 0.26497 0.0
C137 C 0.78417 0.72022 0.28104 0.0
C138 C 0.79675 0.74659 0.25012 0.0
C139 C 0.68965 0.71358 0.18838 0.0
C140 C 0.67179 0.72528 0.1888 0.0
C141 C 0.66977 0.74188 0.20473 0.0
C142 C 0.68531 0.74686 0.21977 0.0
C143 C 0.70316 0.73518 0.21891 0.0
C144 C 0.70505 0.71881 0.20344 0.0
C145 C 0.7251 0.7082 0.20478 0.0
C146 C 0.73501 0.72102 0.22344 0.0
C147 C 0.72211 0.73679 0.2317 0.0
C148 C 0.72186 0.68474 0.21186 0.0
C149 C 0.7357 0.71116 0.1816 0.0
C150 C 0.73033 0.79295 0.29319 0.0
C151 C 0.74621 0.79833 0.30774 0.0
C152 C 0.76425 0.78691 0.30595 0.0
C153 C 0.76642 0.77043 0.29015 0.0
C154 C 0.7504 0.76517 0.27587 0.0
C155 C 0.73274 0.7764 0.27748 0.0
C156 C 0.71735 0.76863 0.26083 0.0
C157 C 0.7286 0.75075 0.24918 0.0
C158 C 0.74798 0.74883 0.25803 0.0
C159 C 0.69919 0.76031 0.27442 0.0
C160 C 0.7125 0.78702 0.24426 0.0
H161 H 0.76068 0.68196 0.2014 0.0
H162 H 0.81749 0.70287 0.25059 0.0
H163 H 0.79905 0.74755 0.23143 0.0
H164 H 0.7908 0.76227 0.255 0.0
H165 H 0.81158 0.74436 0.25814 0.0
H166 H 0.77941 0.70335 0.28252 0.0
H167 H 0.79976 0.72129 0.28729 0.0
H168 H 0.77427 0.72891 0.29279 0.0
H169 H 0.69184 0.70091 0.17619 0.0
H170 H 0.6561 0.75099 0.20563 0.0
H171 H 0.68283 0.75967 0.23143 0.0
H172 H 0.7085 0.68305 0.22293 0.0
H173 H 0.71959 0.67442 0.19679 0.0
H174 H 0.73428 0.67836 0.22214 0.0
H175 H 0.73265 0.72722 0.17454 0.0
H176 H 0.75209 0.71018 0.18279 0.0
H177 H 0.7304 0.6993 0.16902 0.0
H178 H 0.79138 0.66211 0.19964 0.0
C179 C 0.7726 0.687 0.21226 0.0
C180 C 0.69462 0.29206 0.80154 0.0
C181 C 0.67758 0.27941 0.80488 0.0
C182 C 0.67465 0.26161 0.79073 0.0
C183 C 0.70556 0.26903 0.77084 0.0
C184 C 0.70833 0.28659 0.78455 0.0
C185 C 0.72738 0.29813 0.77913 0.0
H186 H 0.81232 0.30514 0.71737 0.0
C187 C 0.72276 0.26757 0.75514 0.0
C188 C 0.73558 0.28463 0.75992 0.0
H189 H 0.79195 0.34683 0.77091 0.0
H190 H 0.76217 0.32585 0.77532 0.0
H191 H 0.76976 0.30086 0.69251 0.0
H192 H 0.79986 0.26194 0.7418 0.0
H193 H 0.7888 0.24477 0.722 0.0
H194 H 0.80756 0.26331 0.71264 0.0
H195 H 0.79058 0.28432 0.68521 0.0
H196 H 0.76536 0.27433 0.68492 0.0
C197 C 0.72196 0.32082 0.77106 0.0
C198 C 0.74093 0.29735 0.80044 0.0
C199 C 0.72747 0.20658 0.69853 0.0
C200 C 0.74186 0.20093 0.68216 0.0
C201 C 0.75863 0.21416 0.67922 0.0
C202 C 0.76121 0.23243 0.69245 0.0
C203 C 0.74688 0.23768 0.70892 0.0
C204 C 0.73029 0.22493 0.71166 0.0
C205 C 0.71663 0.23308 0.73001 0.0
C206 C 0.72781 0.25276 0.73783 0.0
C207 C 0.74554 0.25532 0.72543 0.0
C208 C 0.69634 0.23873 0.719 0.0
C209 C 0.7154 0.21604 0.74892 0.0
C210 C 0.80135 0.30988 0.72988 0.0
C211 C 0.80458 0.32767 0.74386 0.0
C212 C 0.79 0.33305 0.76014 0.0
C213 C 0.77264 0.3209 0.76261 0.0
C214 C 0.76972 0.30305 0.74868 0.0
C215 C 0.78392 0.29785 0.73261 0.0
C216 C 0.77837 0.27826 0.71944 0.0
C217 C 0.75851 0.27258 0.73026 0.0
C218 C 0.75353 0.28715 0.74739 0.0
C219 C 0.77599 0.28456 0.69414 0.0
C220 C 0.79446 0.26111 0.72395 0.0
H221 H 0.68541 0.24262 0.76364 0.0
H222 H 0.69749 0.30569 0.81226 0.0
H223 H 0.73915 0.28203 0.80961 0.0
H224 H 0.75697 0.29821 0.79632 0.0
H225 H 0.73715 0.3103 0.81249 0.0
H226 H 0.7079 0.32072 0.76103 0.0
H227 H 0.71973 0.33166 0.78572 0.0
H228 H 0.73321 0.32771 0.75954 0.0
H229 H 0.71448 0.19673 0.70139 0.0
H230 H 0.76977 0.21047 0.66649 0.0
H231 H 0.77432 0.24173 0.68935 0.0
H232 H 0.6985 0.24539 0.70167 0.0
H233 H 0.68672 0.22446 0.7174 0.0
H234 H 0.68815 0.25115 0.72837 0.0
H235 H 0.73012 0.20821 0.75141 0.0
H236 H 0.71156 0.2227 0.76569 0.0
H237 H 0.70442 0.20351 0.74451 0.0
H238 H 0.66154 0.25174 0.79269 0.0
C239 C 0.6885 0.25638 0.77377 0.0
C240 C 0.78866 0.79452 0.71332 0.0
C241 C 0.77479 0.81079 0.7089 0.0
C242 C 0.75742 0.81207 0.72234 0.0
C243 C 0.76747 0.78087 0.74342 0.0
C244 C 0.7847 0.77979 0.7306 0.0
C245 C 0.79773 0.76143 0.73751 0.0
H246 H 0.8116 0.67375 0.80234 0.0
C247 C 0.76755 0.76293 0.75955 0.0
C248 C 0.78524 0.75147 0.75625 0.0
H249 H 0.85193 0.70141 0.7533 0.0
H250 H 0.82847 0.72958 0.74598 0.0
H251 H 0.79939 0.71837 0.82561 0.0
H252 H 0.77099 0.68116 0.7734 0.0
H253 H 0.75235 0.69046 0.7919 0.0
H254 H 0.77146 0.67297 0.80259 0.0
H255 H 0.78723 0.69361 0.83155 0.0
H256 H 0.77362 0.71828 0.83098 0.0
C257 C 0.8177 0.77043 0.74662 0.0
C258 C 0.79992 0.74645 0.71681 0.0
C259 C 0.70854 0.75257 0.81227 0.0
C260 C 0.70355 0.73696 0.82837 0.0
C261 C 0.71698 0.72004 0.83207 0.0
C262 C 0.73499 0.71874 0.81998 0.0
C263 C 0.73968 0.73448 0.80394 0.0
C264 C 0.72647 0.75096 0.80027 0.0
C265 C 0.73358 0.76602 0.78224 0.0
C266 C 0.75338 0.75605 0.77586 0.0
C267 C 0.75695 0.73761 0.78863 0.0
C268 C 0.73633 0.78819 0.79323 0.0
C269 C 0.71843 0.76537 0.76235 0.0
C270 C 0.81528 0.68584 0.78995 0.0
C271 C 0.83362 0.68538 0.77837 0.0
C272 C 0.83799 0.70155 0.76259 0.0
C273 C 0.8243 0.71785 0.75829 0.0
C274 C 0.80603 0.71811 0.76994 0.0
C275 C 0.80182 0.70241 0.78562 0.0
C276 C 0.78192 0.70575 0.79693 0.0
C277 C 0.77489 0.72597 0.78537 0.0
C278 C 0.78902 0.733 0.76942 0.0
C279 C 0.78554 0.70905 0.82266 0.0
C280 C 0.76839 0.68659 0.79114 0.0
H281 H 0.74017 0.79912 0.74901 0.0
H282 H 0.80214 0.79303 0.70331 0.0
H283 H 0.78541 0.74467 0.70786 0.0
H284 H 0.8044 0.73019 0.72152 0.0
H285 H 0.81089 0.75284 0.70444 0.0
H286 H 0.81564 0.78645 0.7542 0.0
H287 H 0.82891 0.77192 0.73283 0.0
H288 H 0.82402 0.76075 0.76053 0.0
H289 H 0.69878 0.76595 0.80914 0.0
H290 H 0.71344 0.70759 0.84409 0.0
H291 H 0.74451 0.70545 0.82352 0.0
H292 H 0.74171 0.78673 0.81103 0.0
H293 H 0.72204 0.7971 0.79361 0.0
H294 H 0.74775 0.79792 0.7846 0.0
H295 H 0.71182 0.74926 0.76049 0.0
H296 H 0.72532 0.76865 0.74568 0.0
H297 H 0.70599 0.7767 0.76518 0.0
H298 H 0.74669 0.82468 0.71969 0.0
C299 C 0.75369 0.79724 0.7395 0.0
C300 C 0.78522 0.2064 0.31046 0.0
C301 C 0.77314 0.18816 0.30964 0.0
C302 C 0.75796 0.18696 0.29311 0.0
C303 C 0.76682 0.22181 0.27901 0.0
C304 C 0.78182 0.22293 0.29503 0.0
C305 C 0.79329 0.2434 0.29356 0.0
H306 H 0.80832 0.33844 0.24276 0.0
C307 C 0.76715 0.24167 0.26568 0.0
C308 C 0.78265 0.25437 0.27406 0.0
H309 H 0.84112 0.31028 0.29839 0.0
H310 H 0.81969 0.27973 0.29749 0.0
H311 H 0.76439 0.32474 0.26098 0.0
H312 H 0.8045 0.29528 0.21316 0.0
H313 H 0.78022 0.29397 0.20199 0.0
H314 H 0.79152 0.31952 0.20693 0.0
H315 H 0.76909 0.33577 0.23339 0.0
H316 H 0.75028 0.31574 0.23776 0.0
C317 C 0.79054 0.25549 0.31627 0.0
C318 C 0.81523 0.23799 0.28759 0.0
C319 C 0.71599 0.25275 0.20342 0.0
C320 C 0.71225 0.26936 0.18806 0.0
C321 C 0.72464 0.28746 0.18862 0.0
C322 C 0.74042 0.28897 0.20421 0.0
C323 C 0.74389 0.27221 0.21947 0.0
C324 C 0.73177 0.25448 0.21882 0.0
C325 C 0.73756 0.23816 0.23619 0.0
C326 C 0.75511 0.24902 0.2475 0.0
C327 C 0.75878 0.26897 0.23771 0.0
C328 C 0.7198 0.23527 0.25276 0.0
C329 C 0.74391 0.21768 0.22348 0.0
C330 C 0.81093 0.32562 0.25466 0.0
C331 C 0.82644 0.32687 0.27074 0.0
C332 C 0.82913 0.30993 0.28608 0.0
C333 C 0.81674 0.29207 0.28541 0.0
C334 C 0.80142 0.291 0.26922 0.0
C335 C 0.79863 0.30762 0.25424 0.0
C336 C 0.78146 0.30364 0.2383 0.0
C337 C 0.77458 0.28184 0.24609 0.0
C338 C 0.78637 0.27456 0.2642 0.0
C339 C 0.76543 0.32088 0.24258 0.0
C340 C 0.78967 0.30319 0.21373 0.0
H341 H 0.74293 0.20172 0.26576 0.0
H342 H 0.79689 0.20796 0.32305 0.0
H343 H 0.81604 0.22395 0.27617 0.0
H344 H 0.82282 0.25078 0.27812 0.0
H345 H 0.82396 0.23423 0.3031 0.0
H346 H 0.7753 0.25295 0.32326 0.0
H347 H 0.80139 0.24996 0.32923 0.0
H348 H 0.79186 0.27287 0.31439 0.0
H349 H 0.70663 0.23875 0.20375 0.0
H350 H 0.72226 0.30041 0.17683 0.0
H351 H 0.74931 0.30312 0.20376 0.0
H352 H 0.71219 0.25068 0.25596 0.0
H353 H 0.70855 0.22414 0.2457 0.0
H354 H 0.72438 0.22963 0.26972 0.0
H355 H 0.75088 0.2215 0.20682 0.0
H356 H 0.75543 0.20853 0.23266 0.0
H357 H 0.73089 0.20726 0.22014 0.0
H358 H 0.74865 0.17297 0.29182 0.0
C359 C 0.75474 0.20364 0.27786 0.0
C360 C 0.27097 0.21295 0.70676 0.0
C361 C 0.2568 0.21225 0.68922 0.0
C362 C 0.24019 0.22598 0.69024 0.0
C363 C 0.25218 0.24068 0.7258 0.0
C364 C 0.26839 0.22719 0.7247 0.0
C365 C 0.28218 0.22972 0.74458 0.0
H366 H 0.30735 0.28035 0.84131 0.0
C367 C 0.2541 0.25345 0.74678 0.0
C368 C 0.27166 0.24708 0.75778 0.0
H369 H 0.3377 0.22838 0.80784 0.0
H370 H 0.31248 0.22754 0.77906 0.0
H371 H 0.26306 0.25982 0.83555 0.0
H372 H 0.29525 0.30615 0.7961 0.0
H373 H 0.27049 0.31495 0.79893 0.0
H374 H 0.28569 0.31179 0.82394 0.0
H375 H 0.26722 0.28637 0.84553 0.0
H376 H 0.24619 0.27986 0.82776 0.0
C377 C 0.28264 0.20843 0.75784 0.0
C378 C 0.3027 0.23715 0.7354 0.0
C379 C 0.20124 0.30813 0.76688 0.0
C380 C 0.19909 0.32258 0.78495 0.0
C381 C 0.214 0.32327 0.80184 0.0
C382 C 0.23066 0.30983 0.80078 0.0
C383 C 0.23253 0.29547 0.78264 0.0
C384 C 0.21798 0.29486 0.76604 0.0
C385 C 0.22251 0.27878 0.74787 0.0
C386 C 0.24206 0.26967 0.75643 0.0
C387 C 0.24787 0.27948 0.77683 0.0
C388 C 0.20565 0.26199 0.74785 0.0
C389 C 0.22512 0.29072 0.72506 0.0
C390 C 0.30846 0.26868 0.82787 0.0
C391 C 0.32479 0.25461 0.82675 0.0
C392 C 0.32562 0.23975 0.80888 0.0
C393 C 0.31083 0.23918 0.7922 0.0
C394 C 0.29485 0.25353 0.79329 0.0
C395 C 0.29368 0.26781 0.81103 0.0
C396 C 0.27524 0.28144 0.80956 0.0
C397 C 0.26575 0.2731 0.78787 0.0
C398 C 0.27743 0.25686 0.77844 0.0
C399 C 0.26219 0.27687 0.83071 0.0
C400 C 0.28185 0.30488 0.80715 0.0
H401 H 0.22488 0.25022 0.70822 0.0
H402 H 0.2837 0.20236 0.70678 0.0
H403 H 0.3008 0.24834 0.72094 0.0
H404 H 0.31153 0.24605 0.74801 0.0
H405 H 0.31165 0.22348 0.72921 0.0
H406 H 0.26832 0.19968 0.75607 0.0
H407 H 0.2947 0.19789 0.75153 0.0
H408 H 0.28441 0.21068 0.77635 0.0
H409 H 0.19 0.30694 0.75374 0.0
H410 H 0.21294 0.33443 0.81576 0.0
H411 H 0.24149 0.31119 0.8141 0.0
H412 H 0.20074 0.25839 0.76548 0.0
H413 H 0.19244 0.26776 0.73828 0.0
H414 H 0.21038 0.24658 0.74075 0.0
H415 H 0.23225 0.30647 0.72776 0.0
H416 H 0.2351 0.28239 0.71311 0.0
H417 H 0.2105 0.29349 0.71671 0.0
H418 H 0.22911 0.22587 0.67687 0.0
C419 C 0.23781 0.24018 0.70841 0.0
C420 C 0.20352 0.69643 0.26975 0.0
C421 C 0.20027 0.67996 0.25403 0.0
C422 C 0.21343 0.67789 0.23545 0.0
C423 C 0.2323 0.70845 0.24822 0.0
C424 C 0.21955 0.71036 0.26656 0.0
C425 C 0.22497 0.72873 0.28165 0.0
H426 H 0.28629 0.8114 0.30409 0.0
C427 C 0.24731 0.72559 0.24976 0.0
C428 C 0.24312 0.73745 0.26944 0.0
H429 H 0.23391 0.79205 0.34167 0.0
H430 H 0.22904 0.76273 0.31586 0.0
H431 H 0.26661 0.80769 0.25713 0.0
H432 H 0.30378 0.76478 0.29463 0.0
H433 H 0.31177 0.76343 0.26626 0.0
H434 H 0.31306 0.78838 0.28124 0.0
H435 H 0.29317 0.81073 0.25827 0.0
H436 H 0.28124 0.79485 0.23668 0.0
C437 C 0.20739 0.7447 0.28158 0.0
C438 C 0.23031 0.71985 0.30541 0.0
C439 C 0.30006 0.73476 0.18801 0.0
C440 C 0.31547 0.74972 0.18505 0.0
C441 C 0.3186 0.7652 0.20194 0.0
C442 C 0.30648 0.76608 0.2212 0.0
C443 C 0.29093 0.75137 0.22375 0.0
C444 C 0.28795 0.73594 0.20744 0.0
C445 C 0.27062 0.72168 0.21328 0.0
C446 C 0.26359 0.73139 0.23556 0.0
C447 C 0.27561 0.74873 0.24149 0.0
C448 C 0.25478 0.72387 0.19431 0.0
C449 C 0.27868 0.69885 0.21655 0.0
C450 C 0.27368 0.80097 0.30678 0.0
C451 C 0.26047 0.80418 0.32499 0.0
C452 C 0.24448 0.78987 0.32796 0.0
C453 C 0.24157 0.77292 0.31283 0.0
C454 C 0.2547 0.77028 0.29442 0.0
C455 C 0.27042 0.78421 0.29172 0.0
C456 C 0.28249 0.77963 0.27085 0.0
C457 C 0.27152 0.76055 0.26144 0.0
C458 C 0.25533 0.75502 0.27532 0.0
C459 C 0.28102 0.79918 0.25486 0.0
C460 C 0.30397 0.77388 0.27843 0.0
H461 H 0.23882 0.68957 0.218 0.0
H462 H 0.1936 0.69869 0.28406 0.0
H463 H 0.23882 0.70475 0.30386 0.0
H464 H 0.24005 0.73052 0.31526 0.0
H465 H 0.21665 0.71649 0.31545 0.0
H466 H 0.19998 0.74512 0.26469 0.0
H467 H 0.19593 0.74026 0.29436 0.0
H468 H 0.21217 0.76121 0.28466 0.0
H469 H 0.29728 0.72267 0.17534 0.0
H470 H 0.33061 0.77659 0.20037 0.0
H471 H 0.3097 0.77829 0.23333 0.0
H472 H 0.25345 0.74069 0.18874 0.0
H473 H 0.25888 0.71423 0.17923 0.0
H474 H 0.23967 0.71933 0.19989 0.0
H475 H 0.29382 0.69907 0.22429 0.0
H476 H 0.26954 0.68934 0.22838 0.0
H477 H 0.2798 0.69038 0.20006 0.0
H478 H 0.21151 0.66518 0.22326 0.0
C479 C 0.22939 0.692 0.23248 0.0
C480 C 0.97694 0.48862 0.26193 0.0
C481 C 0.03038 0.54149 0.26083 0.0
O482 O 0.98565 0.49685 0.27897 0.0
Zn483 Zn 1.00349 0.51515 0.26208 0.0
O484 O 0.98216 0.49414 0.24182 0.0
Zn485 Zn 1.00311 0.51519 0.22582 0.0
O486 O 0.02005 0.49565 0.20904 0.0
O487 O 0.02301 0.4927 0.24621 0.0
O488 O 0.02453 0.536 0.24096 0.0
O489 O 0.02204 0.53341 0.27818 0.0
O490 O 0.98299 0.53705 0.24691 0.0
O491 O 0.98575 0.53471 0.20966 0.0
C492 C 0.02804 0.48677 0.22618 0.0
C493 C 0.97757 0.54299 0.22702 0.0
C494 C 0.97726 0.46216 0.74413 0.0
C495 C 0.02899 0.5168 0.74199 0.0
O496 O 0.9829 0.46799 0.764 0.0
Zn497 Zn 0.00396 0.48983 0.77871 0.0
O498 O 0.9854 0.4704 0.72675 0.0
Zn499 Zn 1.00325 0.48933 0.74267 0.0
O500 O 0.02437 0.468 0.758 0.0
O501 O 0.02189 0.47134 0.79517 0.0
O502 O 0.02023 0.50813 0.72526 0.0
O503 O 0.02425 0.51131 0.76226 0.0
O504 O 0.9869 0.50905 0.79556 0.0
O505 O 0.98283 0.51107 0.75845 0.0
C506 C 0.03005 0.4627 0.77802 0.0
C507 C 0.97806 0.51712 0.77852 0.0
C508 C 0.23575 0.98508 0.53308 0.0
C509 C 0.23442 0.03851 0.47225 0.0
O510 O 0.22027 0.99374 0.52468 0.0
Zn511 Zn 0.23405 0.01209 0.50307 0.0
O512 O 0.25305 0.99082 0.52613 0.0
Zn513 Zn 0.26609 0.01235 0.50228 0.0
O514 O 0.28052 0.03218 0.52144 0.0
O515 O 0.24785 0.03471 0.52485 0.0
O516 O 0.25198 0.03295 0.47842 0.0
O517 O 0.21935 0.03028 0.48201 0.0
O518 O 0.24769 0.98944 0.48086 0.0
O519 O 0.28042 0.99301 0.48259 0.0
C520 C 0.26536 0.04096 0.53039 0.0
C521 C 0.26517 0.98363 0.47457 0.0
C522 C 0.51966 0.70855 0.01915 0.0
C523 C 0.47038 0.70867 0.9574 0.0
O524 O 0.51183 0.69227 0.00998 0.0
Zn525 Zn 0.49515 0.70751 0.98823 0.0
O526 O 0.51467 0.72709 0.01222 0.0
Zn527 Zn 0.4956 0.74159 0.98759 0.0
O528 O 0.47717 0.75748 0.00647 0.0
O529 O 0.47405 0.72277 0.01 0.0
O530 O 0.47601 0.72721 0.9636 0.0
O531 O 0.47778 0.69242 0.96708 0.0
O532 O 0.51718 0.72141 0.96656 0.0
O533 O 0.51462 0.75629 0.96839 0.0
C534 C 0.46856 0.74157 0.01547 0.0
C535 C 0.52323 0.73987 0.96052 0.0
C536 C 0.77694 0.96777 0.53374 0.0
C537 C 0.77704 0.02114 0.47387 0.0
O538 O 0.7593 0.97283 0.52728 0.0
Zn539 Zn 0.7456 0.99378 0.50304 0.0
O540 O 0.79191 0.97657 0.52444 0.0
Zn541 Zn 0.77723 0.99437 0.50369 0.0
O542 O 0.7628 0.0166 0.52611 0.0
O543 O 0.7303 0.01285 0.52215 0.0
O544 O 0.79201 0.01283 0.48366 0.0
O545 O 0.75939 0.01535 0.47956 0.0
O546 O 0.73166 0.97433 0.48309 0.0
O547 O 0.76437 0.97173 0.48055 0.0
C548 C 0.745 0.02211 0.53151 0.0
C549 C 0.74695 0.96567 0.47429 0.0
C550 C 0.53948 0.26383 0.04411 0.0
C551 C 0.48473 0.26233 0.98929 0.0
O552 O 0.53136 0.24745 0.03552 0.0
Zn553 Zn 0.51218 0.26219 0.01657 0.0
O554 O 0.53321 0.28231 0.03846 0.0
Zn555 Zn 0.51132 0.29626 0.01668 0.0
O556 O 0.49392 0.31098 0.038 0.0
O557 O 0.49221 0.2761 0.04074 0.0
O558 O 0.48997 0.28108 0.99521 0.0
O559 O 0.49395 0.24635 0.99733 0.0
O560 O 0.53102 0.27719 0.9922 0.0
O561 O 0.52774 0.31191 0.99492 0.0
C562 C 0.48644 0.29453 0.04724 0.0
C563 C 0.53576 0.29586 0.98549 0.0
H564 H 0.15388 0.3438 0.26572 0.0
H565 H 0.129 0.3716 0.25963 0.0
H566 H 0.14052 0.36981 0.18764 0.0
H567 H 0.16524 0.34163 0.19353 0.0
H568 H 0.13655 0.41223 0.23813 0.0
H569 H 0.07856 0.36476 0.19341 0.0
H570 H 0.09786 0.35257 0.21036 0.0
H571 H 0.10369 0.36306 0.18284 0.0
C572 C 0.15093 0.34908 0.24855 0.0
C573 C 0.16147 0.34043 0.2301 0.0
C574 C 0.1368 0.36506 0.24512 0.0
C575 C 0.1328 0.37259 0.22318 0.0
C576 C 0.14322 0.364 0.20468 0.0
H577 H 0.04453 0.4709 0.18676 0.0
H578 H 0.07084 0.44385 0.18351 0.0
C579 C 0.15745 0.34806 0.2081 0.0
C580 C 0.11818 0.38996 0.21998 0.0
H581 H 0.07155 0.40093 0.19977 0.0
C582 C 0.1224 0.40981 0.2296 0.0
C583 C 0.09984 0.3868 0.20863 0.0
C584 C 0.09453 0.36564 0.19829 0.0
C585 C 0.10856 0.42648 0.22865 0.0
C586 C 0.08984 0.42306 0.21822 0.0
C587 C 0.0859 0.40347 0.2078 0.0
C588 C 0.07365 0.43903 0.21974 0.0
C589 C 0.11405 0.44759 0.23902 0.0
C590 C 0.06626 0.44486 0.2411 0.0
C591 C 0.05135 0.46018 0.24301 0.0
C592 C 0.04336 0.46996 0.22356 0.0
C593 C 0.05042 0.46373 0.20207 0.0
C594 C 0.06543 0.4483 0.20018 0.0
H595 H 0.13049 0.44968 0.23991 0.0
H596 H 0.10759 0.46096 0.22919 0.0
H597 H 0.10812 0.44836 0.2566 0.0
H598 H 0.07207 0.43755 0.25638 0.0
H599 H 0.04619 0.4644 0.25984 0.0
H600 H 0.18523 0.63452 0.73167 0.0
H601 H 0.15909 0.60757 0.73248 0.0
H602 H 0.11488 0.65558 0.71865 0.0
H603 H 0.14071 0.68279 0.71918 0.0
H604 H 0.10282 0.63034 0.75165 0.0
H605 H 0.12977 0.58057 0.68054 0.0
H606 H 0.14827 0.5839 0.70223 0.0
H607 H 0.1398 0.60658 0.68632 0.0
C608 C 0.16994 0.63941 0.72896 0.0
C609 C 0.16516 0.66089 0.72528 0.0
C610 C 0.15502 0.62389 0.72905 0.0
C611 C 0.13504 0.62945 0.72512 0.0
C612 C 0.13021 0.65086 0.72148 0.0
H613 H 0.03916 0.5373 0.70245 0.0
H614 H 0.0643 0.56522 0.69758 0.0
C615 C 0.14507 0.6664 0.7216 0.0
C616 C 0.11902 0.61318 0.72594 0.0
H617 H 0.1045 0.56535 0.70417 0.0
C618 C 0.10313 0.61622 0.74113 0.0
C619 C 0.1192 0.5949 0.71195 0.0
C620 C 0.13507 0.59137 0.69417 0.0
C621 C 0.08772 0.60127 0.74315 0.0
C622 C 0.08849 0.58244 0.73007 0.0
C623 C 0.10406 0.57965 0.7144 0.0
C624 C 0.07349 0.56529 0.7328 0.0
C625 C 0.07067 0.60597 0.7591 0.0
C626 C 0.0706 0.55577 0.75408 0.0
C627 C 0.0562 0.54002 0.75695 0.0
C628 C 0.04454 0.53317 0.7385 0.0
C629 C 0.04784 0.54227 0.71701 0.0
C630 C 0.0622 0.55821 0.7142 0.0
H631 H 0.06905 0.6233 0.76212 0.0
H632 H 0.05635 0.59977 0.75237 0.0
H633 H 0.07361 0.5983 0.77573 0.0
H634 H 0.07952 0.56053 0.76854 0.0
H635 H 0.05425 0.53318 0.77367 0.0
H636 H 0.8104 0.63795 0.22682 0.0
H637 H 0.84094 0.61679 0.2252 0.0
H638 H 0.8757 0.67404 0.21812 0.0
H639 H 0.84515 0.69531 0.22052 0.0
H640 H 0.86808 0.61208 0.193 0.0
H641 H 0.90459 0.64594 0.26932 0.0
H642 H 0.87892 0.65132 0.26234 0.0
H643 H 0.89867 0.66545 0.2482 0.0
C644 C 0.82458 0.64601 0.22496 0.0
C645 C 0.82544 0.66826 0.22391 0.0
C646 C 0.84202 0.63392 0.22403 0.0
C647 C 0.86069 0.6438 0.22187 0.0
C648 C 0.86156 0.66605 0.22041 0.0
H649 H 0.96644 0.56577 0.18919 0.0
H650 H 0.93919 0.59164 0.18626 0.0
C651 C 0.8441 0.67819 0.22168 0.0
C652 C 0.87911 0.63065 0.221 0.0
H653 H 0.92366 0.62192 0.24745 0.0
C654 C 0.88026 0.61424 0.20489 0.0
C655 C 0.89493 0.63337 0.23663 0.0
C656 C 0.89419 0.64983 0.25524 0.0
C657 C 0.89655 0.60023 0.20425 0.0
C658 C 0.91249 0.60312 0.2197 0.0
C659 C 0.91153 0.61981 0.23549 0.0
C660 C 0.92951 0.58804 0.22114 0.0
C661 C 0.89608 0.58195 0.1877 0.0
C662 C 0.93359 0.57794 0.24186 0.0
C663 C 0.94932 0.56356 0.24368 0.0
C664 C 0.96131 0.55877 0.22476 0.0
C665 C 0.95736 0.56899 0.20401 0.0
C666 C 0.94171 0.58367 0.20228 0.0
H667 H 0.88076 0.57888 0.18131 0.0
H668 H 0.90564 0.58579 0.17288 0.0
H669 H 0.90181 0.56718 0.19565 0.0
H670 H 0.92442 0.58101 0.25665 0.0
H671 H 0.95187 0.55594 0.25991 0.0
H672 H 0.82763 0.34383 0.77802 0.0
H673 H 0.85783 0.36533 0.77461 0.0
H674 H 0.85424 0.36134 0.70165 0.0
H675 H 0.82368 0.34023 0.70488 0.0
H676 H 0.89434 0.35448 0.75273 0.0
H677 H 0.8588 0.42571 0.7142 0.0
H678 H 0.84455 0.40522 0.72823 0.0
H679 H 0.85414 0.40087 0.70015 0.0
C680 C 0.83311 0.34772 0.76123 0.0
C681 C 0.82314 0.34045 0.74172 0.0
C682 C 0.85046 0.35987 0.75932 0.0
C683 C 0.85813 0.36513 0.73789 0.0
C684 C 0.8484 0.35771 0.71835 0.0
H685 H 0.95987 0.44731 0.70497 0.0
H686 H 0.93198 0.42232 0.70174 0.0
C687 C 0.83105 0.34549 0.72024 0.0
C688 C 0.87643 0.37823 0.73617 0.0
H689 H 0.89362 0.42682 0.71946 0.0
C690 C 0.89422 0.37026 0.74537 0.0
C691 C 0.87624 0.39876 0.72642 0.0
C692 C 0.85741 0.4083 0.71681 0.0
C693 C 0.9118 0.38235 0.74531 0.0
C694 C 0.91147 0.40313 0.73621 0.0
C695 C 0.89383 0.41089 0.72643 0.0
C696 C 0.9289 0.41755 0.73796 0.0
C697 C 0.93058 0.37273 0.75497 0.0
C698 C 0.9363 0.42327 0.75936 0.0
C699 C 0.95218 0.43748 0.76127 0.0
C700 C 0.96095 0.44642 0.74179 0.0
C701 C 0.95353 0.44065 0.72031 0.0
C702 C 0.93758 0.4264 0.71843 0.0
H703 H 0.93001 0.35511 0.75467 0.0
H704 H 0.94395 0.37804 0.74541 0.0
H705 H 0.93225 0.37779 0.77291 0.0
H706 H 0.92955 0.41703 0.77468 0.0
H707 H 0.95741 0.44164 0.77809 0.0
H708 H 0.22285 0.20542 0.34281 0.0
H709 H 0.2175 0.17794 0.3715 0.0
H710 H 0.24922 0.13282 0.32997 0.0
H711 H 0.25406 0.16 0.3008 0.0
H712 H 0.21406 0.11626 0.34964 0.0
H713 H 0.26184 0.15651 0.41358 0.0
H714 H 0.24187 0.17239 0.40242 0.0
H715 H 0.26174 0.16402 0.38401 0.0
C716 C 0.22848 0.18959 0.33961 0.0
C717 C 0.239 0.18498 0.31951 0.0
C718 C 0.22556 0.17395 0.35615 0.0
C719 C 0.23319 0.15342 0.35302 0.0
C720 C 0.24328 0.1486 0.33278 0.0
H721 H 0.26414 0.05685 0.44772 0.0
H722 H 0.26155 0.08445 0.41903 0.0
C723 C 0.2462 0.16422 0.31622 0.0
C724 C 0.23119 0.13707 0.37106 0.0
H725 H 0.2457 0.12511 0.42514 0.0
C726 C 0.22086 0.11821 0.36621 0.0
C727 C 0.24021 0.13961 0.3926 0.0
C728 C 0.25219 0.15913 0.3985 0.0
C729 C 0.21951 0.10172 0.38225 0.0
C730 C 0.22856 0.10428 0.40376 0.0
C731 C 0.23863 0.12326 0.4087 0.0
C732 C 0.22942 0.08684 0.4207 0.0
C733 C 0.20907 0.0814 0.37581 0.0
C734 C 0.21214 0.07888 0.4312 0.0
C735 C 0.21355 0.06291 0.44777 0.0
C736 C 0.23228 0.05476 0.45413 0.0
C737 C 0.24945 0.06272 0.44335 0.0
C738 C 0.24803 0.07856 0.4269 0.0
H739 H 0.20597 0.08054 0.35731 0.0
H740 H 0.21818 0.06743 0.38076 0.0
H741 H 0.19465 0.08041 0.38501 0.0
H742 H 0.19764 0.08525 0.42688 0.0
H743 H 0.20005 0.05719 0.4558 0.0
H744 H 0.30432 0.69929 0.84683 0.0
H745 H 0.3329 0.69545 0.87226 0.0
H746 H 0.37119 0.7233 0.82156 0.0
H747 H 0.34276 0.72662 0.79569 0.0
H748 H 0.38739 0.68653 0.84269 0.0
H749 H 0.35962 0.74504 0.90581 0.0
H750 H 0.34246 0.72407 0.89914 0.0
H751 H 0.34931 0.7429 0.8776 0.0
C752 C 0.31884 0.70443 0.84097 0.0
C753 C 0.32121 0.71333 0.81921 0.0
C754 C 0.33513 0.70239 0.85562 0.0
C755 C 0.35412 0.7093 0.8489 0.0
C756 C 0.35664 0.71794 0.82711 0.0
H757 H 0.4551 0.7404 0.93138 0.0
H758 H 0.42751 0.73868 0.90465 0.0
C759 C 0.34034 0.72 0.81244 0.0
C760 C 0.37132 0.7078 0.86469 0.0
H761 H 0.38883 0.72613 0.91544 0.0
C762 C 0.38773 0.69514 0.85863 0.0
C763 C 0.37176 0.71918 0.88538 0.0
C764 C 0.35495 0.73372 0.89236 0.0
C765 C 0.40459 0.69357 0.87274 0.0
C766 C 0.40492 0.70481 0.89352 0.0
C767 C 0.38847 0.71739 0.89958 0.0
C768 C 0.42263 0.70496 0.90864 0.0
C769 C 0.42212 0.68041 0.86505 0.0
C770 C 0.42927 0.68647 0.91966 0.0
C771 C 0.44522 0.68736 0.93506 0.0
C772 C 0.45466 0.70681 0.93978 0.0
C773 C 0.44817 0.72515 0.92828 0.0
C774 C 0.43235 0.72423 0.91296 0.0
H775 H 0.42112 0.67622 0.84676 0.0
H776 H 0.43633 0.68902 0.86803 0.0
H777 H 0.42258 0.66547 0.875 0.0
H778 H 0.42179 0.67147 0.91681 0.0
H779 H 0.44977 0.67299 0.94371 0.0
H780 H 0.72766 0.8369 0.30247 0.0
H781 H 0.72497 0.86568 0.33023 0.0
H782 H 0.75766 0.82825 0.37891 0.0
H783 H 0.75982 0.79915 0.35159 0.0
H784 H 0.72457 0.84846 0.39765 0.0
H785 H 0.77102 0.90488 0.34805 0.0
H786 H 0.74989 0.89435 0.33309 0.0
H787 H 0.7698 0.87694 0.34148 0.0
C788 C 0.73409 0.83469 0.31916 0.0
C789 C 0.7441 0.81574 0.32471 0.0
C790 C 0.73272 0.85125 0.33493 0.0
C791 C 0.74139 0.84925 0.35652 0.0
C792 C 0.75097 0.8302 0.36229 0.0
H793 H 0.77689 0.94407 0.45303 0.0
H794 H 0.77401 0.91615 0.42456 0.0
C795 C 0.75234 0.81364 0.34657 0.0
C796 C 0.74073 0.86701 0.3731 0.0
H797 H 0.75666 0.91784 0.38194 0.0
C798 C 0.7315 0.86367 0.3942 0.0
C799 C 0.74997 0.88677 0.36864 0.0
C800 C 0.7609 0.89099 0.34668 0.0
C801 C 0.73135 0.87951 0.41102 0.0
C802 C 0.74044 0.89932 0.40648 0.0
C803 C 0.74955 0.9027 0.38531 0.0
C804 C 0.74176 0.91633 0.4239 0.0
C805 C 0.72205 0.87465 0.43377 0.0
C806 C 0.72456 0.92587 0.43292 0.0
C807 C 0.72614 0.94189 0.44934 0.0
C808 C 0.74497 0.94872 0.45692 0.0
C809 C 0.76213 0.93922 0.44766 0.0
C810 C 0.76054 0.92325 0.43132 0.0
H811 H 0.71972 0.85734 0.43624 0.0
H812 H 0.73151 0.8807 0.44781 0.0
H813 H 0.70732 0.8826 0.43489 0.0
H814 H 0.70992 0.92104 0.42715 0.0
H815 H 0.71263 0.94894 0.45602 0.0
H816 H 0.65927 0.25168 0.83389 0.0
H817 H 0.63581 0.25977 0.86445 0.0
H818 H 0.64029 0.32649 0.84905 0.0
H819 H 0.66345 0.3185 0.81798 0.0
H820 H 0.64292 0.28634 0.90273 0.0
H821 H 0.57945 0.31532 0.85026 0.0
H822 H 0.59968 0.3 0.83837 0.0
H823 H 0.60332 0.32746 0.84529 0.0
C824 C 0.65506 0.26806 0.83675 0.0
C825 C 0.66315 0.28442 0.82336 0.0
C826 C 0.64176 0.27267 0.85434 0.0
C827 C 0.63615 0.2937 0.85887 0.0
C828 C 0.64421 0.31012 0.84563 0.0
H829 H 0.54935 0.33243 0.96464 0.0
H830 H 0.57468 0.33503 0.93447 0.0
C831 C 0.65758 0.30553 0.82803 0.0
C832 C 0.62223 0.29824 0.87786 0.0
H833 H 0.57474 0.3145 0.88988 0.0
C834 C 0.62808 0.29268 0.89994 0.0
C835 C 0.60295 0.30672 0.87422 0.0
C836 C 0.59581 0.31263 0.85077 0.0
C837 C 0.61498 0.29476 0.91838 0.0
C838 C 0.59538 0.30227 0.9146 0.0
C839 C 0.58978 0.30875 0.89271 0.0
C840 C 0.57997 0.3012 0.93264 0.0
C841 C 0.62211 0.28854 0.94175 0.0
C842 C 0.57434 0.28136 0.94123 0.0
C843 C 0.55997 0.27982 0.95824 0.0
C844 C 0.55077 0.29811 0.9671 0.0
C845 C 0.5562 0.31805 0.95826 0.0
C846 C 0.57064 0.31957 0.94104 0.0
H847 H 0.63862 0.28931 0.94302 0.0
H848 H 0.61552 0.29896 0.95499 0.0
H849 H 0.61749 0.27196 0.94531 0.0
H850 H 0.58107 0.26696 0.93469 0.0
H851 H 0.55615 0.26417 0.96448 0.0
H852 H 0.24058 0.81215 0.64597 0.0
H853 H 0.23684 0.84295 0.62102 0.0
H854 H 0.24007 0.88453 0.67912 0.0
H855 H 0.24458 0.85373 0.70402 0.0
H856 H 0.20949 0.87295 0.61778 0.0
H857 H 0.28167 0.91065 0.63964 0.0
H858 H 0.27532 0.8842 0.64874 0.0
H859 H 0.26576 0.90691 0.66379 0.0
C860 C 0.24053 0.82788 0.65339 0.0
C861 C 0.24305 0.83058 0.67689 0.0
C862 C 0.23836 0.84548 0.63913 0.0
C863 C 0.23851 0.86615 0.64809 0.0
C864 C 0.24049 0.86883 0.67168 0.0
H865 H 0.20433 0.97518 0.56141 0.0
H866 H 0.20343 0.94726 0.59055 0.0
C867 C 0.243 0.85123 0.68591 0.0
C868 C 0.23666 0.88474 0.63262 0.0
H869 H 0.26005 0.93029 0.61596 0.0
C870 C 0.22054 0.88551 0.61738 0.0
C871 C 0.25117 0.90105 0.63194 0.0
C872 C 0.26955 0.90061 0.64673 0.0
C873 C 0.21872 0.90187 0.60126 0.0
C874 C 0.23308 0.91832 0.60081 0.0
C875 C 0.24895 0.91777 0.61638 0.0
C876 C 0.23305 0.93532 0.58323 0.0
C877 C 0.2019 0.90082 0.58429 0.0
C878 C 0.25009 0.93828 0.56978 0.0
C879 C 0.25078 0.95441 0.5536 0.0
C880 C 0.23436 0.96793 0.55024 0.0
C881 C 0.21716 0.96491 0.5635 0.0
C882 C 0.21659 0.94887 0.58005 0.0
H883 H 0.19542 0.88463 0.58318 0.0
H884 H 0.18986 0.91183 0.58963 0.0
H885 H 0.20703 0.90562 0.56711 0.0
H886 H 0.26296 0.92804 0.5718 0.0
H887 H 0.26423 0.95616 0.54358 0.0
H888 H 0.64906 0.75369 0.16509 0.0
H889 H 0.62328 0.74617 0.1369 0.0
H890 H 0.63261 0.679 0.14597 0.0
H891 H 0.65815 0.68637 0.17467 0.0
H892 H 0.62901 0.72275 0.09595 0.0
H893 H 0.57132 0.68608 0.15148 0.0
H894 H 0.59143 0.702 0.16268 0.0
H895 H 0.59612 0.67534 0.15338 0.0
C896 C 0.64541 0.7373 0.16141 0.0
C897 C 0.65562 0.72063 0.17223 0.0
C898 C 0.63076 0.73304 0.14517 0.0
C899 C 0.6259 0.71204 0.13951 0.0
C900 C 0.63594 0.69532 0.15033 0.0
H901 H 0.53634 0.67231 0.0376 0.0
H902 H 0.56286 0.67045 0.06644 0.0
C903 C 0.65066 0.69957 0.16656 0.0
C904 C 0.61088 0.70786 0.12157 0.0
H905 H 0.56388 0.68869 0.11244 0.0
C906 C 0.61483 0.71517 0.09952 0.0
C907 C 0.59249 0.69775 0.12623 0.0
C908 C 0.58741 0.68992 0.14973 0.0
C909 C 0.60068 0.71313 0.08213 0.0
C910 C 0.58195 0.70388 0.08699 0.0
C911 C 0.57826 0.69578 0.10879 0.0
C912 C 0.56546 0.70449 0.07025 0.0
C913 C 0.60581 0.72118 0.05871 0.0
C914 C 0.55788 0.72416 0.06332 0.0
C915 C 0.54285 0.72528 0.04704 0.0
C916 C 0.53493 0.70671 0.0373 0.0
C917 C 0.54216 0.6869 0.0447 0.0
C918 C 0.55728 0.68581 0.06114 0.0
H919 H 0.6222 0.72199 0.05609 0.0
H920 H 0.59923 0.7109 0.04536 0.0
H921 H 0.59969 0.73743 0.0566 0.0
H922 H 0.56371 0.73875 0.07045 0.0
H923 H 0.53759 0.74083 0.04195 0.0
H924 H 0.70788 0.18496 0.66246 0.0
H925 H 0.70469 0.15297 0.63902 0.0
H926 H 0.76766 0.14104 0.64642 0.0
H927 H 0.77086 0.17244 0.67036 0.0
H928 H 0.7234 0.14402 0.59815 0.0
H929 H 0.74366 0.08375 0.66251 0.0
H930 H 0.73711 0.11066 0.66998 0.0
H931 H 0.76188 0.10448 0.66023 0.0
C932 C 0.72098 0.17533 0.65939 0.0
C933 C 0.73963 0.18129 0.66832 0.0
C934 C 0.71915 0.15713 0.64588 0.0
C935 C 0.73587 0.14443 0.64124 0.0
C936 C 0.75447 0.15034 0.65013 0.0
H937 H 0.77336 0.04267 0.55633 0.0
H938 H 0.76879 0.07176 0.58314 0.0
C939 C 0.75632 0.16848 0.66359 0.0
C940 C 0.73421 0.12551 0.6263 0.0
H941 H 0.74509 0.07259 0.62361 0.0
C942 C 0.72784 0.12832 0.60378 0.0
C943 C 0.73995 0.10503 0.63371 0.0
C944 C 0.74584 0.10072 0.65799 0.0
C945 C 0.728 0.11142 0.58819 0.0
C946 C 0.73448 0.09115 0.5954 0.0
C947 C 0.74021 0.08818 0.6181 0.0
C948 C 0.73675 0.07316 0.57933 0.0
C949 C 0.72211 0.11559 0.56387 0.0
C950 C 0.72019 0.06408 0.56846 0.0
C951 C 0.72274 0.04733 0.55306 0.0
C952 C 0.74191 0.03939 0.54829 0.0
C953 C 0.75839 0.0484 0.55949 0.0
C954 C 0.75582 0.06503 0.57489 0.0
H955 H 0.72086 0.13282 0.56016 0.0
H956 H 0.73313 0.10846 0.55204 0.0
H957 H 0.70743 0.10812 0.56049 0.0
H958 H 0.70531 0.06993 0.5719 0.0
H959 H 0.70973 0.04072 0.54478 0.0
H960 H 0.33347 0.32462 0.17884 0.0
H961 H 0.36362 0.32734 0.15567 0.0
H962 H 0.36615 0.25913 0.15056 0.0
H963 H 0.33554 0.25627 0.1729 0.0
H964 H 0.40181 0.31179 0.16139 0.0
H965 H 0.36702 0.2774 0.08435 0.0
H966 H 0.35259 0.28576 0.10862 0.0
H967 H 0.36512 0.2605 0.10878 0.0
C968 C 0.34033 0.31018 0.17263 0.0
C969 C 0.33188 0.29022 0.17751 0.0
C970 C 0.35767 0.31177 0.15954 0.0
C971 C 0.36692 0.29347 0.151 0.0
C972 C 0.35901 0.2735 0.15655 0.0
H973 H 0.46856 0.26201 0.06985 0.0
H974 H 0.44027 0.26362 0.09569 0.0
C975 C 0.34163 0.27188 0.16959 0.0
C976 C 0.38467 0.29528 0.13601 0.0
H977 H 0.40224 0.28178 0.08352 0.0
C978 C 0.40188 0.30538 0.1443 0.0
C979 C 0.38466 0.28711 0.11363 0.0
C980 C 0.3663 0.27727 0.1032 0.0
C981 C 0.4193 0.30681 0.13107 0.0
C982 C 0.41942 0.29808 0.10897 0.0
C983 C 0.40211 0.28838 0.10054 0.0
C984 C 0.43758 0.29779 0.0946 0.0
C985 C 0.43765 0.31703 0.14102 0.0
C986 C 0.44561 0.31656 0.08552 0.0
C987 C 0.4619 0.31573 0.07057 0.0
C988 C 0.47034 0.29609 0.06446 0.0
C989 C 0.46247 0.27743 0.07409 0.0
C990 C 0.44625 0.27828 0.0889 0.0
H991 H 0.43612 0.3199 0.15955 0.0
H992 H 0.45096 0.30691 0.13803 0.0
H993 H 0.44028 0.3325 0.13252 0.0
H994 H 0.43896 0.33178 0.08951 0.0
H995 H 0.46754 0.33038 0.06341 0.0
H996 H 0.87362 0.68894 0.78591 0.0
H997 H 0.89802 0.66026 0.78964 0.0
H998 H 0.85097 0.61402 0.78303 0.0
H999 H 0.82642 0.6427 0.77982 0.0
H1000 H 0.87816 0.60234 0.81514 0.0
H1001 H 0.91682 0.62604 0.73583 0.0
H1002 H 0.91591 0.64681 0.75663 0.0
H1003 H 0.89316 0.63716 0.74416 0.0
C1004 C 0.86849 0.67265 0.78531 0.0
C1005 C 0.84816 0.66802 0.78232 0.0
C1006 C 0.88244 0.65629 0.78739 0.0
C1007 C 0.87639 0.63499 0.78608 0.0
C1008 C 0.85599 0.63033 0.78397 0.0
H1009 H 0.95109 0.53018 0.74704 0.0
H1010 H 0.92606 0.558 0.75065 0.0
C1011 C 0.84198 0.64671 0.78216 0.0
C1012 C 0.89135 0.61762 0.78609 0.0
H1013 H 0.9321 0.59901 0.75761 0.0
C1014 C 0.88996 0.60156 0.80256 0.0
C1015 C 0.90656 0.61648 0.76946 0.0
C1016 C 0.90813 0.63241 0.75038 0.0
C1017 C 0.90342 0.58444 0.80291 0.0
C1018 C 0.91894 0.58363 0.78663 0.0
C1019 C 0.9203 0.59972 0.7702 0.0
C1020 C 0.93341 0.5658 0.78544 0.0
C1021 C 0.9005 0.56709 0.82025 0.0
C1022 C 0.94586 0.56076 0.80387 0.0
C1023 C 0.96012 0.54459 0.80193 0.0
C1024 C 0.9624 0.53347 0.78139 0.0
C1025 C 0.94982 0.5385 0.76306 0.0
C1026 C 0.93548 0.55442 0.7651 0.0
H1027 H 0.88512 0.56714 0.82727 0.0
H1028 H 0.90353 0.55123 0.81278 0.0
H1029 H 0.91101 0.56959 0.83455 0.0
H1030 H 0.94487 0.56963 0.81957 0.0
H1031 H 0.96968 0.54118 0.81629 0.0
H1032 H 0.84304 0.34801 0.23474 0.0
H1033 H 0.86726 0.37705 0.23593 0.0
H1034 H 0.86519 0.37659 0.3091 0.0
H1035 H 0.84085 0.3477 0.30809 0.0
H1036 H 0.86469 0.41801 0.25626 0.0
H1037 H 0.92491 0.369 0.29457 0.0
H1038 H 0.90292 0.35747 0.28195 0.0
H1039 H 0.90166 0.36911 0.30975 0.0
C1040 C 0.84754 0.35426 0.25108 0.0
C1041 C 0.84014 0.34541 0.27133 0.0
C1042 C 0.86145 0.37078 0.25173 0.0
C1043 C 0.86827 0.37869 0.27261 0.0
C1044 C 0.86045 0.37038 0.29282 0.0
H1045 H 0.96126 0.47282 0.30168 0.0
H1046 H 0.93398 0.44712 0.30574 0.0
C1047 C 0.84655 0.35387 0.2922 0.0
C1048 C 0.88373 0.39548 0.27315 0.0
H1049 H 0.93187 0.40533 0.28887 0.0
C1050 C 0.87937 0.41527 0.26343 0.0
C1051 C 0.90281 0.39188 0.28264 0.0
C1052 C 0.9085 0.37068 0.29267 0.0
C1053 C 0.89363 0.43156 0.26285 0.0
C1054 C 0.91287 0.4278 0.27186 0.0
C1055 C 0.91709 0.40817 0.28203 0.0
C1056 C 0.92917 0.44355 0.26962 0.0
C1057 C 0.88795 0.45269 0.25267 0.0
C1058 C 0.9357 0.44973 0.248 0.0
C1059 C 0.95121 0.46431 0.24563 0.0
C1060 C 0.96066 0.47294 0.26485 0.0
C1061 C 0.95427 0.46652 0.28655 0.0
C1062 C 0.93869 0.45186 0.2889 0.0
H1063 H 0.87154 0.45511 0.25284 0.0
H1064 H 0.89511 0.466 0.26196 0.0
H1065 H 0.89301 0.45324 0.23474 0.0
H1066 H 0.92889 0.44313 0.2329 0.0
H1067 H 0.95579 0.46876 0.22865 0.0
H1068 H 0.18044 0.34325 0.74993 0.0
H1069 H 0.15092 0.36595 0.75176 0.0
H1070 H 0.14825 0.35733 0.8243 0.0
H1071 H 0.17754 0.33419 0.82263 0.0
H1072 H 0.11208 0.35441 0.77029 0.0
H1073 H 0.14691 0.42306 0.81458 0.0
H1074 H 0.16147 0.40312 0.80005 0.0
H1075 H 0.15055 0.39733 0.82716 0.0
C1076 C 0.17352 0.34602 0.76628 0.0
C1077 C 0.1814 0.33685 0.78614 0.0
C1078 C 0.15671 0.3591 0.76729 0.0
C1079 C 0.14754 0.36346 0.78818 0.0
C1080 C 0.15532 0.35442 0.80805 0.0
H1081 H 0.0461 0.44711 0.81761 0.0
H1082 H 0.07368 0.42177 0.82153 0.0
C1083 C 0.1721 0.34124 0.80706 0.0
C1084 C 0.12956 0.3771 0.78895 0.0
H1085 H 0.11259 0.42554 0.80641 0.0
C1086 C 0.11214 0.36993 0.77824 0.0
C1087 C 0.12968 0.39725 0.79953 0.0
C1088 C 0.14815 0.40582 0.81088 0.0
C1089 C 0.09484 0.38246 0.77765 0.0
C1090 C 0.09513 0.40292 0.78758 0.0
C1091 C 0.11241 0.40987 0.7988 0.0
C1092 C 0.07806 0.41778 0.78538 0.0
C1093 C 0.07638 0.37359 0.76651 0.0
C1094 C 0.07153 0.4241 0.76379 0.0
C1095 C 0.0558 0.43845 0.7615 0.0
C1096 C 0.04635 0.447 0.78077 0.0
C1097 C 0.05299 0.44076 0.80243 0.0
C1098 C 0.06876 0.42631 0.8047 0.0
H1099 H 0.07656 0.35596 0.76633 0.0
H1100 H 0.06265 0.37901 0.77532 0.0
H1101 H 0.07574 0.37912 0.74863 0.0
H1102 H 0.0788 0.41815 0.74865 0.0
H1103 H 0.05122 0.44301 0.74456 0.0
H1104 H 0.18589 0.66235 0.29344 0.0
H1105 H 0.15746 0.6383 0.29783 0.0
H1106 H 0.14747 0.64006 0.22556 0.0
H1107 H 0.17561 0.6643 0.22101 0.0
H1108 H 0.1169 0.64473 0.28495 0.0
H1109 H 0.1507 0.57616 0.24016 0.0
H1110 H 0.16527 0.59831 0.25032 0.0
H1111 H 0.1515 0.60045 0.22423 0.0
C1112 C 0.17758 0.65773 0.27848 0.0
C1113 C 0.18313 0.66518 0.25684 0.0
C1114 C 0.1614 0.64391 0.28103 0.0
C1115 C 0.15057 0.63716 0.26199 0.0
C1116 C 0.15591 0.64472 0.24042 0.0
H1117 H 0.04936 0.56267 0.22682 0.0
H1118 H 0.07828 0.58587 0.22961 0.0
C1119 C 0.17204 0.65854 0.23785 0.0
C1120 C 0.13344 0.62249 0.26457 0.0
H1121 H 0.11571 0.57446 0.247 0.0
C1122 C 0.11668 0.62925 0.2769 0.0
C1123 C 0.13328 0.60228 0.25414 0.0
C1124 C 0.15121 0.59374 0.24165 0.0
C1125 C 0.09937 0.61672 0.27817 0.0
C1126 C 0.099 0.59681 0.2671 0.0
C1127 C 0.11601 0.58979 0.25539 0.0
C1128 C 0.08078 0.58351 0.26613 0.0
C1129 C 0.08135 0.62523 0.29052 0.0
C1130 C 0.07247 0.57452 0.28581 0.0
C1131 C 0.05579 0.56119 0.2843 0.0
C1132 C 0.04725 0.55656 0.26306 0.0
C1133 C 0.05553 0.56584 0.24347 0.0
C1134 C 0.0721 0.57911 0.24501 0.0
H1135 H 0.08277 0.64243 0.29432 0.0
H1136 H 0.06762 0.62266 0.28036 0.0
H1137 H 0.07959 0.61662 0.30684 0.0
H1138 H 0.07914 0.57746 0.30226 0.0
H1139 H 0.04984 0.55422 0.29969 0.0
H1140 H 0.74733 0.82637 0.67901 0.0
H1141 H 0.75217 0.8535 0.64994 0.0
H1142 H 0.81455 0.85731 0.66702 0.0
H1143 H 0.80979 0.83039 0.69665 0.0
H1144 H 0.7692 0.89637 0.65991 0.0
H1145 H 0.81125 0.84967 0.59529 0.0
H1146 H 0.79553 0.83706 0.61624 0.0
H1147 H 0.81901 0.84818 0.62454 0.0
C1148 C 0.76208 0.83302 0.67672 0.0
C1149 C 0.77814 0.82634 0.69031 0.0
C1150 C 0.76483 0.84841 0.65999 0.0
C1151 C 0.78371 0.85729 0.65633 0.0
C1152 C 0.79991 0.85043 0.66948 0.0
H1153 H 0.81187 0.95369 0.55297 0.0
H1154 H 0.81559 0.92779 0.58382 0.0
C1155 C 0.79716 0.83504 0.68634 0.0
C1156 C 0.78598 0.87444 0.63942 0.0
H1157 H 0.80295 0.88492 0.58593 0.0
C1158 C 0.77673 0.89397 0.64381 0.0
C1159 C 0.796 0.87125 0.61859 0.0
C1160 C 0.80599 0.85041 0.61316 0.0
C1161 C 0.77677 0.91027 0.62763 0.0
C1162 C 0.78591 0.90674 0.60632 0.0
C1163 C 0.79589 0.88752 0.60226 0.0
C1164 C 0.78393 0.92222 0.58753 0.0
C1165 C 0.76685 0.93108 0.63344 0.0
C1166 C 0.76495 0.92731 0.57918 0.0
C1167 C 0.76277 0.94204 0.56169 0.0
C1168 C 0.77957 0.95189 0.55202 0.0
C1169 C 0.79864 0.94646 0.56012 0.0
C1170 C 0.8008 0.93167 0.5777 0.0
H1171 H 0.76618 0.9336 0.6521 0.0
H1172 H 0.77485 0.94466 0.62559 0.0
H1173 H 0.75133 0.93097 0.62692 0.0
H1174 H 0.75177 0.91983 0.58618 0.0
H1175 H 0.74787 0.94569 0.55577 0.0
H1176 H 0.69988 0.23449 0.16405 0.0
H1177 H 0.67102 0.23159 0.13886 0.0
H1178 H 0.65746 0.29765 0.15003 0.0
H1179 H 0.68607 0.30066 0.17556 0.0
H1180 H 0.63029 0.24017 0.14985 0.0
H1181 H 0.65813 0.29154 0.08015 0.0
H1182 H 0.67435 0.28051 0.10159 0.0
H1183 H 0.65934 0.30342 0.10784 0.0
C1184 C 0.69073 0.24841 0.16123 0.0
C1185 C 0.69531 0.26783 0.17184 0.0
C1186 C 0.6743 0.24672 0.14675 0.0
C1187 C 0.66225 0.26444 0.14241 0.0
C1188 C 0.6668 0.28387 0.15284 0.0
H1189 H 0.55655 0.29557 0.06862 0.0
H1190 H 0.58606 0.29377 0.09261 0.0
C1191 C 0.68319 0.28558 0.16738 0.0
C1192 C 0.64457 0.26252 0.12749 0.0
H1193 H 0.62388 0.28195 0.07884 0.0
C1194 C 0.62891 0.24914 0.1342 0.0
C1195 C 0.64291 0.27419 0.10709 0.0
C1196 C 0.65963 0.28809 0.09857 0.0
C1197 C 0.61124 0.24776 0.12147 0.0
C1198 C 0.60941 0.25981 0.10131 0.0
C1199 C 0.62529 0.27278 0.09435 0.0
C1200 C 0.59081 0.26013 0.08771 0.0
C1201 C 0.59442 0.23407 0.13012 0.0
C1202 C 0.58355 0.24172 0.07709 0.0
C1203 C 0.5665 0.24265 0.06336 0.0
C1204 C 0.5566 0.26207 0.05988 0.0
C1205 C 0.56382 0.28036 0.07084 0.0
C1206 C 0.58072 0.27938 0.08456 0.0
H1207 H 0.5965 0.22964 0.14823 0.0
H1208 H 0.57988 0.24235 0.12831 0.0
H1209 H 0.59377 0.21925 0.11999 0.0
H1210 H 0.59131 0.22675 0.07898 0.0
H1211 H 0.5614 0.22832 0.05504 0.0
H1212 H 0.29115 0.20172 0.66672 0.0
H1213 H 0.29558 0.17443 0.6376 0.0
H1214 H 0.23264 0.16068 0.63986 0.0
H1215 H 0.22809 0.18772 0.66919 0.0
H1216 H 0.28648 0.13092 0.64221 0.0
H1217 H 0.24409 0.16775 0.57165 0.0
H1218 H 0.25254 0.18266 0.59601 0.0
H1219 H 0.23046 0.16656 0.59787 0.0
C1220 C 0.27823 0.1929 0.661 0.0
C1221 C 0.25925 0.19687 0.6703 0.0
C1222 C 0.2808 0.1774 0.6443 0.0
C1223 C 0.26442 0.16573 0.63643 0.0
C1224 C 0.24541 0.16983 0.6454 0.0
H1225 H 0.23578 0.05965 0.55477 0.0
H1226 H 0.23811 0.09012 0.57995 0.0
C1227 C 0.24283 0.18531 0.66213 0.0
C1228 C 0.26728 0.14847 0.6197 0.0
H1229 H 0.25164 0.13086 0.56794 0.0
C1230 C 0.27911 0.13098 0.62582 0.0
C1231 C 0.25772 0.1487 0.59833 0.0
C1232 C 0.24564 0.16751 0.59043 0.0
C1233 C 0.28078 0.1132 0.61157 0.0
C1234 C 0.2706 0.11313 0.59056 0.0
C1235 C 0.25939 0.13095 0.58411 0.0
C1236 C 0.26993 0.09411 0.57584 0.0
C1237 C 0.29264 0.09425 0.61953 0.0
C1238 C 0.28714 0.08612 0.56526 0.0
C1239 C 0.2859 0.0685 0.55079 0.0
C1240 C 0.26738 0.05877 0.54662 0.0
C1241 C 0.25028 0.06676 0.55751 0.0
C1242 C 0.25155 0.08423 0.57191 0.0
H1243 H 0.2966 0.09539 0.6378 0.0
H1244 H 0.28412 0.07936 0.61674 0.0
H1245 H 0.30666 0.09319 0.60958 0.0
H1246 H 0.30144 0.09372 0.56786 0.0
H1247 H 0.29931 0.06279 0.54257 0.0
H1248 H 0.32788 0.78352 0.15975 0.0
H1249 H 0.35203 0.78355 0.12866 0.0
H1250 H 0.35687 0.71544 0.13328 0.0
H1251 H 0.33275 0.71527 0.16456 0.0
H1252 H 0.39125 0.76887 0.132 0.0
H1253 H 0.34959 0.72582 0.06491 0.0
H1254 H 0.33751 0.73718 0.08948 0.0
H1255 H 0.35046 0.7123 0.09175 0.0
C1256 C 0.33401 0.76852 0.15407 0.0
C1257 C 0.32851 0.74939 0.16469 0.0
C1258 C 0.34774 0.76858 0.13626 0.0
C1259 C 0.35612 0.74951 0.12857 0.0
C1260 C 0.35029 0.7303 0.1387 0.0
H1261 H 0.44931 0.71046 0.03883 0.0
H1262 H 0.42197 0.71415 0.06571 0.0
C1263 C 0.33652 0.73022 0.15655 0.0
C1264 C 0.37193 0.74991 0.11102 0.0
H1265 H 0.38428 0.73117 0.05852 0.0
C1266 C 0.38969 0.76081 0.11582 0.0
C1267 C 0.3698 0.73939 0.08998 0.0
C1268 C 0.35075 0.72816 0.08356 0.0
C1269 C 0.40568 0.76087 0.10044 0.0
C1270 C 0.40367 0.75005 0.07953 0.0
C1271 C 0.38576 0.73948 0.07456 0.0
C1272 C 0.42038 0.74835 0.06317 0.0
C1273 C 0.42483 0.7718 0.10705 0.0
C1274 C 0.42856 0.76641 0.05273 0.0
C1275 C 0.44437 0.76439 0.03732 0.0
C1276 C 0.45211 0.74424 0.03202 0.0
C1277 C 0.44375 0.72623 0.04248 0.0
C1278 C 0.42806 0.72828 0.05785 0.0
H1279 H 0.42541 0.77532 0.12552 0.0
H1280 H 0.43794 0.76191 0.1025 0.0
H1281 H 0.42603 0.78705 0.09772 0.0
H1282 H 0.42261 0.78203 0.05635 0.0
H1283 H 0.4504 0.77854 0.02945 0.0
H1284 H 0.80849 0.17157 0.32509 0.0
H1285 H 0.8131 0.14216 0.35184 0.0
H1286 H 0.74934 0.13544 0.35776 0.0
H1287 H 0.74456 0.16496 0.33148 0.0
H1288 H 0.79792 0.13829 0.39768 0.0
H1289 H 0.76947 0.07525 0.34055 0.0
H1290 H 0.77734 0.10094 0.33029 0.0
H1291 H 0.75317 0.09776 0.34306 0.0
C1292 C 0.79545 0.16393 0.33222 0.0
C1293 C 0.77614 0.1705 0.326 0.0
C1294 C 0.79812 0.14708 0.34739 0.0
C1295 C 0.78156 0.13644 0.35642 0.0
C1296 C 0.76231 0.14317 0.35056 0.0
H1297 H 0.74785 0.04153 0.45027 0.0
H1298 H 0.75164 0.06902 0.42152 0.0
C1299 C 0.75961 0.16001 0.33549 0.0
C1300 C 0.78419 0.11851 0.37234 0.0
H1301 H 0.77219 0.06638 0.37985 0.0
C1302 C 0.7926 0.12247 0.39373 0.0
C1303 C 0.77729 0.09792 0.36701 0.0
C1304 C 0.76898 0.09259 0.3439 0.0
C1305 C 0.79328 0.10657 0.41045 0.0
C1306 C 0.78563 0.08619 0.40539 0.0
C1307 C 0.77798 0.08206 0.38367 0.0
C1308 C 0.78387 0.06943 0.42288 0.0
C1309 C 0.80123 0.11197 0.4337 0.0
C1310 C 0.80079 0.06042 0.43307 0.0
C1311 C 0.79869 0.04463 0.44964 0.0
C1312 C 0.77962 0.03759 0.45617 0.0
C1313 C 0.76277 0.04657 0.4457 0.0
C1314 C 0.76489 0.06228 0.42922 0.0
H1315 H 0.8032 0.12934 0.43602 0.0
H1316 H 0.79105 0.10597 0.44712 0.0
H1317 H 0.81594 0.10422 0.43607 0.0
H1318 H 0.81559 0.06551 0.42812 0.0
H1319 H 0.81197 0.03798 0.45731 0.0
H1320 H 0.32169 0.26089 0.87279 0.0
H1321 H 0.34873 0.26164 0.90073 0.0
H1322 H 0.3915 0.24955 0.84758 0.0
H1323 H 0.36483 0.24984 0.8195 0.0
H1324 H 0.37574 0.23064 0.91243 0.0
H1325 H 0.41497 0.30118 0.87825 0.0
H1326 H 0.39012 0.29397 0.86945 0.0
H1327 H 0.41144 0.28072 0.85746 0.0
C1328 C 0.33688 0.25874 0.867 0.0
C1329 C 0.34107 0.25535 0.84388 0.0
C1330 C 0.35229 0.25897 0.88301 0.0
C1331 C 0.37214 0.2559 0.87618 0.0
C1332 C 0.37634 0.25233 0.85318 0.0
H1333 H 0.47318 0.22671 0.96557 0.0
H1334 H 0.44565 0.22393 0.93825 0.0
C1335 C 0.36101 0.25224 0.83718 0.0
C1336 C 0.38851 0.25627 0.89309 0.0
H1337 H 0.43224 0.28106 0.9061 0.0
C1338 C 0.38807 0.24171 0.91114 0.0
C1339 C 0.40447 0.27085 0.89145 0.0
C1340 C 0.40523 0.2877 0.87324 0.0
C1341 C 0.40327 0.24125 0.92755 0.0
C1342 C 0.41952 0.25544 0.92552 0.0
C1343 C 0.41988 0.27003 0.9075 0.0
C1344 C 0.43579 0.25643 0.94254 0.0
C1345 C 0.40154 0.22596 0.94717 0.0
C1346 C 0.43958 0.27564 0.95371 0.0
C1347 C 0.45538 0.27735 0.96894 0.0
C1348 C 0.46776 0.25983 0.97346 0.0
C1349 C 0.46384 0.24045 0.96252 0.0
C1350 C 0.44805 0.23881 0.94702 0.0
H1351 H 0.38602 0.22012 0.94931 0.0
H1352 H 0.41126 0.21203 0.94395 0.0
H1353 H 0.4064 0.23351 0.96327 0.0
H1354 H 0.43033 0.28943 0.95054 0.0
H1355 H 0.45787 0.29249 0.97717 0.0
H1356 H 0.27208 0.84435 0.31329 0.0
H1357 H 0.27696 0.87481 0.33809 0.0
H1358 H 0.25829 0.83745 0.39567 0.0
H1359 H 0.25451 0.80641 0.37113 0.0
H1360 H 0.25024 0.89542 0.3622 0.0
H1361 H 0.30814 0.86444 0.4204 0.0
H1362 H 0.30154 0.85118 0.39431 0.0
H1363 H 0.28655 0.84768 0.4194 0.0
C1364 C 0.26944 0.8424 0.33131 0.0
C1365 C 0.26311 0.8228 0.34023 0.0
C1366 C 0.2721 0.85992 0.34545 0.0
C1367 C 0.26837 0.85833 0.36881 0.0
C1368 C 0.26178 0.83891 0.37779 0.0
H1369 H 0.23549 0.95822 0.45888 0.0
H1370 H 0.23805 0.92863 0.43258 0.0
C1371 C 0.2593 0.82126 0.36366 0.0
C1372 C 0.2702 0.87739 0.38343 0.0
H1373 H 0.29114 0.89606 0.43236 0.0
C1374 C 0.25935 0.8956 0.37741 0.0
C1375 C 0.28238 0.8778 0.40305 0.0
C1376 C 0.29548 0.8593 0.40956 0.0
C1377 C 0.25979 0.91392 0.39088 0.0
C1378 C 0.27095 0.91385 0.41125 0.0
C1379 C 0.28242 0.89597 0.41686 0.0
C1380 C 0.26987 0.9317 0.42754 0.0
C1381 C 0.24825 0.93318 0.38313 0.0
C1382 C 0.28707 0.94285 0.43406 0.0
C1383 C 0.28572 0.9598 0.44939 0.0
C1384 C 0.26712 0.96576 0.45842 0.0
C1385 C 0.25003 0.95427 0.45206 0.0
C1386 C 0.25143 0.93737 0.43692 0.0
H1387 H 0.24607 0.93314 0.36443 0.0
H1388 H 0.23329 0.93306 0.39118 0.0
H1389 H 0.25595 0.9481 0.38801 0.0
H1390 H 0.30149 0.93857 0.42712 0.0
H1391 H 0.29915 0.96827 0.45405 0.0
H1392 H 0.69659 0.72724 0.87311 0.0
H1393 H 0.66505 0.72945 0.89381 0.0
H1394 H 0.63596 0.75333 0.83372 0.0
H1395 H 0.66709 0.75007 0.81256 0.0
H1396 H 0.64148 0.76348 0.90312 0.0
H1397 H 0.59969 0.70497 0.85126 0.0
H1398 H 0.62635 0.70814 0.84913 0.0
H1399 H 0.60992 0.72645 0.83499 0.0
C1400 C 0.68342 0.73261 0.86417 0.0
C1401 C 0.68441 0.73835 0.8411 0.0
C1402 C 0.66544 0.73407 0.87609 0.0
C1403 C 0.64809 0.74129 0.86523 0.0
C1404 C 0.64907 0.74733 0.84234 0.0
H1405 H 0.53973 0.77583 0.94165 0.0
H1406 H 0.56948 0.77791 0.91745 0.0
C1407 C 0.66698 0.74571 0.83035 0.0
C1408 C 0.62902 0.74256 0.87794 0.0
H1409 H 0.58118 0.72409 0.87869 0.0
C1410 C 0.62827 0.75489 0.89779 0.0
C1411 C 0.61186 0.73121 0.87103 0.0
C1412 C 0.61198 0.71679 0.85057 0.0
C1413 C 0.61088 0.75602 0.91105 0.0
C1414 C 0.59365 0.74491 0.90395 0.0
C1415 C 0.59435 0.73279 0.88397 0.0
C1416 C 0.57526 0.74409 0.91794 0.0
C1417 C 0.61137 0.76846 0.93294 0.0
C1418 C 0.56829 0.72439 0.92564 0.0
C1419 C 0.55125 0.72314 0.93911 0.0
C1420 C 0.54075 0.74159 0.94529 0.0
C1421 C 0.54754 0.76135 0.9373 0.0
C1422 C 0.56461 0.76257 0.92361 0.0
H1423 H 0.62687 0.77188 0.93849 0.0
H1424 H 0.60362 0.78384 0.93042 0.0
H1425 H 0.60362 0.75973 0.94673 0.0
H1426 H 0.57623 0.70992 0.92146 0.0
H1427 H 0.5465 0.70764 0.94495 0.0
loop_
_geom_bond_atom_site_label_1
_geom_bond_atom_site_label_2
_geom_bond_distance
_geom_bond_site_symmetry_2
_ccdc_geom_bond_type
C0 C1 1.391 . S
C0 C4 1.391 . S
C0 H42 0.948 . S
C1 C0 1.391 . S
C1 C2 1.391 . S
C2 C1 1.391 . S
C2 H58 0.947 . S
C2 C59 1.392 . S
C3 C4 1.391 . S
C3 C7 1.397 . S
C3 C59 1.419 . S
C4 C0 1.391 . S
C4 C3 1.391 . S
C4 C5 1.399 . S
C5 C4 1.399 . S
C5 C8 1.396 . S
C5 C17 1.453 . S
C5 C18 1.684 . S
H6 C30 0.948 . S
C7 C3 1.397 . S
C7 C8 1.394 . S
C7 C26 1.723 . S
C8 C5 1.396 . S
C8 C7 1.394 . S
C8 C38 1.723 . S
H9 C32 0.947 . S
H10 C33 0.948 . S
H11 C39 0.982 . S
H12 C40 0.979 . S
H13 C40 0.980 . S
H14 C40 0.983 . S
H15 C39 0.979 . S
H16 C39 0.977 . S
C17 C5 1.453 . S
C17 H46 0.982 . S
C17 H47 0.979 . S
C17 H48 0.977 . S
C18 C5 1.684 . S
C18 H43 0.979 . S
C18 H44 0.980 . S
C18 H45 0.983 . S
C19 C20 1.391 . S
C19 C24 1.391 . S
C19 H49 0.948 . S
C20 C19 1.391 . S
C20 C21 1.391 . S
C21 C20 1.391 . S
C21 C22 1.392 . S
C21 H50 0.947 . S
C22 C21 1.392 . S
C22 C23 1.419 . S
C22 H51 0.948 . S
C23 C22 1.419 . S
C23 C24 1.391 . S
C23 C27 1.397 . S
C24 C19 1.391 . S
C24 C23 1.391 . S
C24 C25 1.399 . S
C25 C24 1.399 . S
C25 C26 1.396 . S
C25 C28 1.453 . S
C25 C29 1.684 . S
C26 C7 1.723 . S
C26 C25 1.396 . S
C26 C27 1.394 . S
C27 C23 1.397 . S
C27 C26 1.394 . S
C27 C37 1.723 . S
C28 C25 1.453 . S
C28 H52 0.982 . S
C28 H53 0.979 . S
C28 H54 0.977 . S
C29 C25 1.684 . S
C29 H55 0.979 . S
C29 H56 0.980 . S
C29 H57 0.983 . S
C30 H6 0.948 . S
C30 C31 1.391 . S
C30 C35 1.391 . S
C31 C30 1.391 . S
C31 C32 1.391 . S
C32 H9 0.947 . S
C32 C31 1.391 . S
C32 C33 1.392 . S
C33 H10 0.948 . S
C33 C32 1.392 . S
C33 C34 1.419 . S
C34 C33 1.419 . S
C34 C35 1.391 . S
C34 C38 1.397 . S
C35 C30 1.391 . S
C35 C34 1.391 . S
C35 C36 1.399 . S
C36 C35 1.399 . S
C36 C37 1.396 . S
C36 C39 1.453 . S
C36 C40 1.684 . S
C37 C27 1.723 . S
C37 C36 1.396 . S
C37 C38 1.394 . S
C38 C8 1.723 . S
C38 C34 1.397 . S
C38 C37 1.394 . S
C39 H11 0.982 . S
C39 H15 0.979 . S
C39 H16 0.977 . S
C39 C36 1.453 . S
C40 H12 0.979 . S
C40 H13 0.980 . S
C40 H14 0.983 . S
C40 C36 1.684 . S
H41 C59 0.948 . S
H42 C0 0.948 . S
H43 C18 0.979 . S
H44 C18 0.980 . S
H45 C18 0.983 . S
H46 C17 0.982 . S
H47 C17 0.979 . S
H48 C17 0.977 . S
H49 C19 0.948 . S
H50 C21 0.947 . S
H51 C22 0.948 . S
H52 C28 0.982 . S
H53 C28 0.979 . S
H54 C28 0.977 . S
H55 C29 0.979 . S
H56 C29 0.980 . S
H57 C29 0.983 . S
H58 C2 0.947 . S
C59 C2 1.392 . S
C59 C3 1.419 . S
C59 H41 0.948 . S
C60 C61 1.391 . S
C60 C64 1.391 . S
C60 H102 0.948 . S
C61 C60 1.391 . S
C61 C62 1.391 . S
C62 C61 1.391 . S
C62 H118 0.947 . S
C62 C119 1.392 . S
C63 C64 1.391 . S
C63 C67 1.397 . S
C63 C119 1.419 . S
C64 C60 1.391 . S
C64 C63 1.391 . S
C64 C65 1.399 . S
C65 C64 1.399 . S
C65 C68 1.396 . S
C65 C77 1.453 . S
C65 C78 1.684 . S
H66 C90 0.948 . S
C67 C63 1.397 . S
C67 C68 1.394 . S
C67 C86 1.723 . S
C68 C65 1.396 . S
C68 C67 1.394 . S
C68 C98 1.723 . S
H69 C92 0.947 . S
H70 C93 0.948 . S
H71 C99 0.982 . S
H72 C100 0.979 . S
H73 C100 0.980 . S
H74 C100 0.983 . S
H75 C99 0.979 . S
H76 C99 0.977 . S
C77 C65 1.453 . S
C77 H106 0.982 . S
C77 H107 0.979 . S
C77 H108 0.977 . S
C78 C65 1.684 . S
C78 H103 0.979 . S
C78 H104 0.980 . S
C78 H105 0.983 . S
C79 C80 1.391 . S
C79 C84 1.391 . S
C79 H109 0.948 . S
C80 C79 1.391 . S
C80 C81 1.391 . S
C81 C80 1.391 . S
C81 C82 1.392 . S
C81 H110 0.947 . S
C82 C81 1.392 . S
C82 C83 1.419 . S
C82 H111 0.948 . S
C83 C82 1.419 . S
C83 C84 1.391 . S
C83 C87 1.397 . S
C84 C79 1.391 . S
C84 C83 1.391 . S
C84 C85 1.399 . S
C85 C84 1.399 . S
C85 C86 1.396 . S
C85 C88 1.453 . S
C85 C89 1.684 . S
C86 C67 1.723 . S
C86 C85 1.396 . S
C86 C87 1.394 . S
C87 C83 1.397 . S
C87 C86 1.394 . S
C87 C97 1.723 . S
C88 C85 1.453 . S
C88 H112 0.982 . S
C88 H113 0.979 . S
C88 H114 0.977 . S
C89 C85 1.684 . S
C89 H115 0.979 . S
C89 H116 0.980 . S
C89 H117 0.983 . S
C90 H66 0.948 . S
C90 C91 1.391 . S
C90 C95 1.391 . S
C91 C90 1.391 . S
C91 C92 1.391 . S
C92 H69 0.947 . S
C92 C91 1.391 . S
C92 C93 1.392 . S
C93 H70 0.948 . S
C93 C92 1.392 . S
C93 C94 1.419 . S
C94 C93 1.419 . S
C94 C95 1.391 . S
C94 C98 1.397 . S
C95 C90 1.391 . S
C95 C94 1.391 . S
C95 C96 1.399 . S
C96 C95 1.399 . S
C96 C97 1.396 . S
C96 C99 1.453 . S
C96 C100 1.684 . S
C97 C87 1.723 . S
C97 C96 1.396 . S
C97 C98 1.394 . S
C98 C68 1.723 . S
C98 C94 1.397 . S
C98 C97 1.394 . S
C99 H71 0.982 . S
C99 H75 0.979 . S
C99 H76 0.977 . S
C99 C96 1.453 . S
C100 H72 0.979 . S
C100 H73 0.980 . S
C100 H74 0.983 . S
C100 C96 1.684 . S
H101 C119 0.948 . S
H102 C60 0.948 . S
H103 C78 0.979 . S
H104 C78 0.980 . S
H105 C78 0.983 . S
H106 C77 0.982 . S
H107 C77 0.979 . S
H108 C77 0.977 . S
H109 C79 0.948 . S
H110 C81 0.947 . S
H111 C82 0.948 . S
H112 C88 0.982 . S
H113 C88 0.979 . S
H114 C88 0.977 . S
H115 C89 0.979 . S
H116 C89 0.980 . S
H117 C89 0.983 . S
H118 C62 0.947 . S
C119 C62 1.392 . S
C119 C63 1.419 . S
C119 H101 0.948 . S
C120 C121 1.391 . S
C120 C124 1.391 . S
C120 H162 0.948 . S
C121 C120 1.391 . S
C121 C122 1.391 . S
C122 C121 1.391 . S
C122 H178 0.947 . S
C122 C179 1.392 . S
C123 C124 1.391 . S
C123 C127 1.397 . S
C123 C179 1.419 . S
C124 C120 1.391 . S
C124 C123 1.391 . S
C124 C125 1.399 . S
C125 C124 1.399 . S
C125 C128 1.396 . S
C125 C137 1.453 . S
C125 C138 1.684 . S
H126 C150 0.948 . S
C127 C123 1.397 . S
C127 C128 1.394 . S
C127 C146 1.723 . S
C128 C125 1.396 . S
C128 C127 1.394 . S
C128 C158 1.723 . S
H129 C152 0.947 . S
H130 C153 0.948 . S
H131 C159 0.982 . S
H132 C160 0.979 . S
H133 C160 0.980 . S
H134 C160 0.983 . S
H135 C159 0.979 . S
H136 C159 0.977 . S
C137 C125 1.453 . S
C137 H166 0.982 . S
C137 H167 0.979 . S
C137 H168 0.977 . S
C138 C125 1.684 . S
C138 H163 0.979 . S
C138 H164 0.980 . S
C138 H165 0.983 . S
C139 C140 1.391 . S
C139 C144 1.391 . S
C139 H169 0.948 . S
C140 C139 1.391 . S
C140 C141 1.391 . S
C141 C140 1.391 . S
C141 C142 1.392 . S
C141 H170 0.947 . S
C142 C141 1.392 . S
C142 C143 1.419 . S
C142 H171 0.948 . S
C143 C142 1.419 . S
C143 C144 1.391 . S
C143 C147 1.397 . S
C144 C139 1.391 . S
C144 C143 1.391 . S
C144 C145 1.399 . S
C145 C144 1.399 . S
C145 C146 1.396 . S
C145 C148 1.453 . S
C145 C149 1.684 . S
C146 C127 1.723 . S
C146 C145 1.396 . S
C146 C147 1.394 . S
C147 C143 1.397 . S
C147 C146 1.394 . S
C147 C157 1.723 . S
C148 C145 1.453 . S
C148 H172 0.982 . S
C148 H173 0.979 . S
C148 H174 0.977 . S
C149 C145 1.684 . S
C149 H175 0.979 . S
C149 H176 0.980 . S
C149 H177 0.983 . S
C150 H126 0.948 . S
C150 C151 1.391 . S
C150 C155 1.391 . S
C151 C150 1.391 . S
C151 C152 1.391 . S
C152 H129 0.947 . S
C152 C151 1.391 . S
C152 C153 1.392 . S
C153 H130 0.948 . S
C153 C152 1.392 . S
C153 C154 1.419 . S
C154 C153 1.419 . S
C154 C155 1.391 . S
C154 C158 1.397 . S
C155 C150 1.391 . S
C155 C154 1.391 . S
C155 C156 1.399 . S
C156 C155 1.399 . S
C156 C157 1.396 . S
C156 C159 1.453 . S
C156 C160 1.684 . S
C157 C147 1.723 . S
C157 C156 1.396 . S
C157 C158 1.394 . S
C158 C128 1.723 . S
C158 C154 1.397 . S
C158 C157 1.394 . S
C159 H131 0.982 . S
C159 H135 0.979 . S
C159 H136 0.977 . S
C159 C156 1.453 . S
C160 H132 0.979 . S
C160 H133 0.980 . S
C160 H134 0.983 . S
C160 C156 1.684 . S
H161 C179 0.948 . S
H162 C120 0.948 . S
H163 C138 0.979 . S
H164 C138 0.980 . S
H165 C138 0.983 . S
H166 C137 0.982 . S
H167 C137 0.979 . S
H168 C137 0.977 . S
H169 C139 0.948 . S
H170 C141 0.947 . S
H171 C142 0.948 . S
H172 C148 0.982 . S
H173 C148 0.979 . S
H174 C148 0.977 . S
H175 C149 0.979 . S
H176 C149 0.980 . S
H177 C149 0.983 . S
H178 C122 0.947 . S
C179 C122 1.392 . S
C179 C123 1.419 . S
C179 H161 0.948 . S
C180 C181 1.391 . S
C180 C184 1.391 . S
C180 H222 0.948 . S
C181 C180 1.391 . S
C181 C182 1.391 . S
C182 C181 1.391 . S
C182 H238 0.947 . S
C182 C239 1.392 . S
C183 C184 1.391 . S
C183 C187 1.397 . S
C183 C239 1.419 . S
C184 C180 1.391 . S
C184 C183 1.391 . S
C184 C185 1.399 . S
C185 C184 1.399 . S
C185 C188 1.396 . S
C185 C197 1.453 . S
C185 C198 1.684 . S
H186 C210 0.948 . S
C187 C183 1.397 . S
C187 C188 1.394 . S
C187 C206 1.723 . S
C188 C185 1.396 . S
C188 C187 1.394 . S
C188 C218 1.723 . S
H189 C212 0.947 . S
H190 C213 0.948 . S
H191 C219 0.982 . S
H192 C220 0.979 . S
H193 C220 0.980 . S
H194 C220 0.983 . S
H195 C219 0.979 . S
H196 C219 0.977 . S
C197 C185 1.453 . S
C197 H226 0.982 . S
C197 H227 0.979 . S
C197 H228 0.977 . S
C198 C185 1.684 . S
C198 H223 0.979 . S
C198 H224 0.980 . S
C198 H225 0.983 . S
C199 C200 1.391 . S
C199 C204 1.391 . S
C199 H229 0.948 . S
C200 C199 1.391 . S
C200 C201 1.391 . S
C201 C200 1.391 . S
C201 C202 1.392 . S
C201 H230 0.947 . S
C202 C201 1.392 . S
C202 C203 1.419 . S
C202 H231 0.948 . S
C203 C202 1.419 . S
C203 C204 1.391 . S
C203 C207 1.397 . S
C204 C199 1.391 . S
C204 C203 1.391 . S
C204 C205 1.399 . S
C205 C204 1.399 . S
C205 C206 1.396 . S
C205 C208 1.453 . S
C205 C209 1.684 . S
C206 C187 1.723 . S
C206 C205 1.396 . S
C206 C207 1.394 . S
C207 C203 1.397 . S
C207 C206 1.394 . S
C207 C217 1.723 . S
C208 C205 1.453 . S
C208 H232 0.982 . S
C208 H233 0.979 . S
C208 H234 0.977 . S
C209 C205 1.684 . S
C209 H235 0.979 . S
C209 H236 0.980 . S
C209 H237 0.983 . S
C210 H186 0.948 . S
C210 C211 1.391 . S
C210 C215 1.391 . S
C211 C210 1.391 . S
C211 C212 1.391 . S
C212 H189 0.947 . S
C212 C211 1.391 . S
C212 C213 1.392 . S
C213 H190 0.948 . S
C213 C212 1.392 . S
C213 C214 1.419 . S
C214 C213 1.419 . S
C214 C215 1.391 . S
C214 C218 1.397 . S
C215 C210 1.391 . S
C215 C214 1.391 . S
C215 C216 1.399 . S
C216 C215 1.399 . S
C216 C217 1.396 . S
C216 C219 1.453 . S
C216 C220 1.684 . S
C217 C207 1.723 . S
C217 C216 1.396 . S
C217 C218 1.394 . S
C218 C188 1.723 . S
C218 C214 1.397 . S
C218 C217 1.394 . S
C219 H191 0.982 . S
C219 H195 0.979 . S
C219 H196 0.977 . S
C219 C216 1.453 . S
C220 H192 0.979 . S
C220 H193 0.980 . S
C220 H194 0.983 . S
C220 C216 1.684 . S
H221 C239 0.948 . S
H222 C180 0.948 . S
H223 C198 0.979 . S
H224 C198 0.980 . S
H225 C198 0.983 . S
H226 C197 0.982 . S
H227 C197 0.979 . S
H228 C197 0.977 . S
H229 C199 0.948 . S
H230 C201 0.947 . S
H231 C202 0.948 . S
H232 C208 0.982 . S
H233 C208 0.979 . S
H234 C208 0.977 . S
H235 C209 0.979 . S
H236 C209 0.980 . S
H237 C209 0.983 . S
H238 C182 0.947 . S
C239 C182 1.392 . S
C239 C183 1.419 . S
C239 H221 0.948 . S
C240 C241 1.391 . S
C240 C244 1.391 . S
C240 H282 0.948 . S
C241 C240 1.391 . S
C241 C242 1.391 . S
C242 C241 1.391 . S
C242 H298 0.947 . S
C242 C299 1.392 . S
C243 C244 1.391 . S
C243 C247 1.397 . S
C243 C299 1.419 . S
C244 C240 1.391 . S
C244 C243 1.391 . S
C244 C245 1.399 . S
C245 C244 1.399 . S
C245 C248 1.396 . S
C245 C257 1.453 . S
C245 C258 1.684 . S
H246 C270 0.948 . S
C247 C243 1.397 . S
C247 C248 1.394 . S
C247 C266 1.723 . S
C248 C245 1.396 . S
C248 C247 1.394 . S
C248 C278 1.723 . S
H249 C272 0.947 . S
H250 C273 0.948 . S
H251 C279 0.982 . S
H252 C280 0.979 . S
H253 C280 0.980 . S
H254 C280 0.983 . S
H255 C279 0.979 . S
H256 C279 0.977 . S
C257 C245 1.453 . S
C257 H286 0.982 . S
C257 H287 0.979 . S
C257 H288 0.977 . S
C258 C245 1.684 . S
C258 H283 0.979 . S
C258 H284 0.980 . S
C258 H285 0.983 . S
C259 C260 1.391 . S
C259 C264 1.391 . S
C259 H289 0.948 . S
C260 C259 1.391 . S
C260 C261 1.391 . S
C261 C260 1.391 . S
C261 C262 1.392 . S
C261 H290 0.947 . S
C262 C261 1.392 . S
C262 C263 1.419 . S
C262 H291 0.948 . S
C263 C262 1.419 . S
C263 C264 1.391 . S
C263 C267 1.397 . S
C264 C259 1.391 . S
C264 C263 1.391 . S
C264 C265 1.399 . S
C265 C264 1.399 . S
C265 C266 1.396 . S
C265 C268 1.453 . S
C265 C269 1.684 . S
C266 C247 1.723 . S
C266 C265 1.396 . S
C266 C267 1.394 . S
C267 C263 1.397 . S
C267 C266 1.394 . S
C267 C277 1.723 . S
C268 C265 1.453 . S
C268 H292 0.982 . S
C268 H293 0.979 . S
C268 H294 0.977 . S
C269 C265 1.684 . S
C269 H295 0.979 . S
C269 H296 0.980 . S
C269 H297 0.983 . S
C270 H246 0.948 . S
C270 C271 1.391 . S
C270 C275 1.391 . S
C271 C270 1.391 . S
C271 C272 1.391 . S
C272 H249 0.947 . S
C272 C271 1.391 . S
C272 C273 1.392 . S
C273 H250 0.948 . S
C273 C272 1.392 . S
C273 C274 1.419 . S
C274 C273 1.419 . S
C274 C275 1.391 . S
C274 C278 1.397 . S
C275 C270 1.391 . S
C275 C274 1.391 . S
C275 C276 1.399 . S
C276 C275 1.399 . S
C276 C277 1.396 . S
C276 C279 1.453 . S
C276 C280 1.684 . S
C277 C267 1.723 . S
C277 C276 1.396 . S
C277 C278 1.394 . S
C278 C248 1.723 . S
C278 C274 1.397 . S
C278 C277 1.394 . S
C279 H251 0.982 . S
C279 H255 0.979 . S
C279 H256 0.977 . S
C279 C276 1.453 . S
C280 H252 0.979 . S
C280 H253 0.980 . S
C280 H254 0.983 . S
C280 C276 1.684 . S
H281 C299 0.948 . S
H282 C240 0.948 . S
H283 C258 0.979 . S
H284 C258 0.980 . S
H285 C258 0.983 . S
H286 C257 0.982 . S
H287 C257 0.979 . S
H288 C257 0.977 . S
H289 C259 0.948 . S
H290 C261 0.947 . S
H291 C262 0.948 . S
H292 C268 0.982 . S
H293 C268 0.979 . S
H294 C268 0.977 . S
H295 C269 0.979 . S
H296 C269 0.980 . S
H297 C269 0.983 . S
H298 C242 0.947 . S
C299 C242 1.392 . S
C299 C243 1.419 . S
C299 H281 0.948 . S
C300 C301 1.391 . S
C300 C304 1.391 . S
C300 H342 0.948 . S
C301 C300 1.391 . S
C301 C302 1.391 . S
C302 C301 1.391 . S
C302 H358 0.947 . S
C302 C359 1.392 . S
C303 C304 1.391 . S
C303 C307 1.397 . S
C303 C359 1.419 . S
C304 C300 1.391 . S
C304 C303 1.391 . S
C304 C305 1.399 . S
C305 C304 1.399 . S
C305 C308 1.396 . S
C305 C317 1.453 . S
C305 C318 1.684 . S
H306 C330 0.948 . S
C307 C303 1.397 . S
C307 C308 1.394 . S
C307 C326 1.723 . S
C308 C305 1.396 . S
C308 C307 1.394 . S
C308 C338 1.723 . S
H309 C332 0.947 . S
H310 C333 0.948 . S
H311 C339 0.982 . S
H312 C340 0.979 . S
H313 C340 0.980 . S
H314 C340 0.983 . S
H315 C339 0.979 . S
H316 C339 0.977 . S
C317 C305 1.453 . S
C317 H346 0.982 . S
C317 H347 0.979 . S
C317 H348 0.977 . S
C318 C305 1.684 . S
C318 H343 0.979 . S
C318 H344 0.980 . S
C318 H345 0.983 . S
C319 C320 1.391 . S
C319 C324 1.391 . S
C319 H349 0.948 . S
C320 C319 1.391 . S
C320 C321 1.391 . S
C321 C320 1.391 . S
C321 C322 1.392 . S
C321 H350 0.947 . S
C322 C321 1.392 . S
C322 C323 1.419 . S
C322 H351 0.948 . S
C323 C322 1.419 . S
C323 C324 1.391 . S
C323 C327 1.397 . S
C324 C319 1.391 . S
C324 C323 1.391 . S
C324 C325 1.399 . S
C325 C324 1.399 . S
C325 C326 1.396 . S
C325 C328 1.453 . S
C325 C329 1.684 . S
C326 C307 1.723 . S
C326 C325 1.396 . S
C326 C327 1.394 . S
C327 C323 1.397 . S
C327 C326 1.394 . S
C327 C337 1.723 . S
C328 C325 1.453 . S
C328 H352 0.982 . S
C328 H353 0.979 . S
C328 H354 0.977 . S
C329 C325 1.684 . S
C329 H355 0.979 . S
C329 H356 0.980 . S
C329 H357 0.983 . S
C330 H306 0.948 . S
C330 C331 1.391 . S
C330 C335 1.391 . S
C331 C330 1.391 . S
C331 C332 1.391 . S
C332 H309 0.947 . S
C332 C331 1.391 . S
C332 C333 1.392 . S
C333 H310 0.948 . S
C333 C332 1.392 . S
C333 C334 1.419 . S
C334 C333 1.419 . S
C334 C335 1.391 . S
C334 C338 1.397 . S
C335 C330 1.391 . S
C335 C334 1.391 . S
C335 C336 1.399 . S
C336 C335 1.399 . S
C336 C337 1.396 . S
C336 C339 1.453 . S
C336 C340 1.684 . S
C337 C327 1.723 . S
C337 C336 1.396 . S
C337 C338 1.394 . S
C338 C308 1.723 . S
C338 C334 1.397 . S
C338 C337 1.394 . S
C339 H311 0.982 . S
C339 H315 0.979 . S
C339 H316 0.977 . S
C339 C336 1.453 . S
C340 H312 0.979 . S
C340 H313 0.980 . S
C340 H314 0.983 . S
C340 C336 1.684 . S
H341 C359 0.948 . S
H342 C300 0.948 . S
H343 C318 0.979 . S
H344 C318 0.980 . S
H345 C318 0.983 . S
H346 C317 0.982 . S
H347 C317 0.979 . S
H348 C317 0.977 . S
H349 C319 0.948 . S
H350 C321 0.947 . S
H351 C322 0.948 . S
H352 C328 0.982 . S
H353 C328 0.979 . S
H354 C328 0.977 . S
H355 C329 0.979 . S
H356 C329 0.980 . S
H357 C329 0.983 . S
H358 C302 0.947 . S
C359 C302 1.392 . S
C359 C303 1.419 . S
C359 H341 0.948 . S
C360 C361 1.391 . S
C360 C364 1.391 . S
C360 H402 0.948 . S
C361 C360 1.391 . S
C361 C362 1.391 . S
C362 C361 1.391 . S
C362 H418 0.947 . S
C362 C419 1.392 . S
C363 C364 1.391 . S
C363 C367 1.397 . S
C363 C419 1.419 . S
C364 C360 1.391 . S
C364 C363 1.391 . S
C364 C365 1.399 . S
C365 C364 1.399 . S
C365 C368 1.396 . S
C365 C377 1.453 . S
C365 C378 1.684 . S
H366 C390 0.948 . S
C367 C363 1.397 . S
C367 C368 1.394 . S
C367 C386 1.723 . S
C368 C365 1.396 . S
C368 C367 1.394 . S
C368 C398 1.723 . S
H369 C392 0.947 . S
H370 C393 0.948 . S
H371 C399 0.982 . S
H372 C400 0.979 . S
H373 C400 0.980 . S
H374 C400 0.983 . S
H375 C399 0.979 . S
H376 C399 0.977 . S
C377 C365 1.453 . S
C377 H406 0.982 . S
C377 H407 0.979 . S
C377 H408 0.977 . S
C378 C365 1.684 . S
C378 H403 0.979 . S
C378 H404 0.980 . S
C378 H405 0.983 . S
C379 C380 1.391 . S
C379 C384 1.391 . S
C379 H409 0.948 . S
C380 C379 1.391 . S
C380 C381 1.391 . S
C381 C380 1.391 . S
C381 C382 1.392 . S
C381 H410 0.947 . S
C382 C381 1.392 . S
C382 C383 1.419 . S
C382 H411 0.948 . S
C383 C382 1.419 . S
C383 C384 1.391 . S
C383 C387 1.397 . S
C384 C379 1.391 . S
C384 C383 1.391 . S
C384 C385 1.399 . S
C385 C384 1.399 . S
C385 C386 1.396 . S
C385 C388 1.453 . S
C385 C389 1.684 . S
C386 C367 1.723 . S
C386 C385 1.396 . S
C386 C387 1.394 . S
C387 C383 1.397 . S
C387 C386 1.394 . S
C387 C397 1.723 . S
C388 C385 1.453 . S
C388 H412 0.982 . S
C388 H413 0.979 . S
C388 H414 0.977 . S
C389 C385 1.684 . S
C389 H415 0.979 . S
C389 H416 0.980 . S
C389 H417 0.983 . S
C390 H366 0.948 . S
C390 C391 1.391 . S
C390 C395 1.391 . S
C391 C390 1.391 . S
C391 C392 1.391 . S
C392 H369 0.947 . S
C392 C391 1.391 . S
C392 C393 1.392 . S
C393 H370 0.948 . S
C393 C392 1.392 . S
C393 C394 1.419 . S
C394 C393 1.419 . S
C394 C395 1.391 . S
C394 C398 1.397 . S
C395 C390 1.391 . S
C395 C394 1.391 . S
C395 C396 1.399 . S
C396 C395 1.399 . S
C396 C397 1.396 . S
C396 C399 1.453 . S
C396 C400 1.684 . S
C397 C387 1.723 . S
C397 C396 1.396 . S
C397 C398 1.394 . S
C398 C368 1.723 . S
C398 C394 1.397 . S
C398 C397 1.394 . S
C399 H371 0.982 . S
C399 H375 0.979 . S
C399 H376 0.977 . S
C399 C396 1.453 . S
C400 H372 0.979 . S
C400 H373 0.980 . S
C400 H374 0.983 . S
C400 C396 1.684 . S
H401 C419 0.948 . S
H402 C360 0.948 . S
H403 C378 0.979 . S
H404 C378 0.980 . S
H405 C378 0.983 . S
H406 C377 0.982 . S
H407 C377 0.979 . S
H408 C377 0.977 . S
H409 C379 0.948 . S
H410 C381 0.947 . S
H411 C382 0.948 . S
H412 C388 0.982 . S
H413 C388 0.979 . S
H414 C388 0.977 . S
H415 C389 0.979 . S
H416 C389 0.980 . S
H417 C389 0.983 . S
H418 C362 0.947 . S
C419 C362 1.392 . S
C419 C363 1.419 . S
C419 H401 0.948 . S
C420 C421 1.391 . S
C420 C424 1.391 . S
C420 H462 0.948 . S
C421 C420 1.391 . S
C421 C422 1.391 . S
C422 C421 1.391 . S
C422 H478 0.947 . S
C422 C479 1.392 . S
C423 C424 1.391 . S
C423 C427 1.397 . S
C423 C479 1.419 . S
C424 C420 1.391 . S
C424 C423 1.391 . S
C424 C425 1.399 . S
C425 C424 1.399 . S
C425 C428 1.396 . S
C425 C437 1.453 . S
C425 C438 1.684 . S
H426 C450 0.948 . S
C427 C423 1.397 . S
C427 C428 1.394 . S
C427 C446 1.723 . S
C428 C425 1.396 . S
C428 C427 1.394 . S
C428 C458 1.723 . S
H429 C452 0.947 . S
H430 C453 0.948 . S
H431 C459 0.982 . S
H432 C460 0.979 . S
H433 C460 0.980 . S
H434 C460 0.983 . S
H435 C459 0.979 . S
H436 C459 0.977 . S
C437 C425 1.453 . S
C437 H466 0.982 . S
C437 H467 0.979 . S
C437 H468 0.977 . S
C438 C425 1.684 . S
C438 H463 0.979 . S
C438 H464 0.980 . S
C438 H465 0.983 . S
C439 C440 1.391 . S
C439 C444 1.391 . S
C439 H469 0.948 . S
C440 C439 1.391 . S
C440 C441 1.391 . S
C441 C440 1.391 . S
C441 C442 1.392 . S
C441 H470 0.947 . S
C442 C441 1.392 . S
C442 C443 1.419 . S
C442 H471 0.948 . S
C443 C442 1.419 . S
C443 C444 1.391 . S
C443 C447 1.397 . S
C444 C439 1.391 . S
C444 C443 1.391 . S
C444 C445 1.399 . S
C445 C444 1.399 . S
C445 C446 1.396 . S
C445 C448 1.453 . S
C445 C449 1.684 . S
C446 C427 1.723 . S
C446 C445 1.396 . S
C446 C447 1.394 . S
C447 C443 1.397 . S
C447 C446 1.394 . S
C447 C457 1.723 . S
C448 C445 1.453 . S
C448 H472 0.982 . S
C448 H473 0.979 . S
C448 H474 0.977 . S
C449 C445 1.684 . S
C449 H475 0.979 . S
C449 H476 0.980 . S
C449 H477 0.983 . S
C450 H426 0.948 . S
C450 C451 1.391 . S
C450 C455 1.391 . S
C451 C450 1.391 . S
C451 C452 1.391 . S
C452 H429 0.947 . S
C452 C451 1.391 . S
C452 C453 1.392 . S
C453 H430 0.948 . S
C453 C452 1.392 . S
C453 C454 1.419 . S
C454 C453 1.419 . S
C454 C455 1.391 . S
C454 C458 1.397 . S
C455 C450 1.391 . S
C455 C454 1.391 . S
C455 C456 1.399 . S
C456 C455 1.399 . S
C456 C457 1.396 . S
C456 C459 1.453 . S
C456 C460 1.684 . S
C457 C447 1.723 . S
C457 C456 1.396 . S
C457 C458 1.394 . S
C458 C428 1.723 . S
C458 C454 1.397 . S
C458 C457 1.394 . S
C459 H431 0.982 . S
C459 H435 0.979 . S
C459 H436 0.977 . S
C459 C456 1.453 . S
C460 H432 0.979 . S
C460 H433 0.980 . S
C460 H434 0.983 . S
C460 C456 1.684 . S
H461 C479 0.948 . S
H462 C420 0.948 . S
H463 C438 0.979 . S
H464 C438 0.980 . S
H465 C438 0.983 . S
H466 C437 0.982 . S
H467 C437 0.979 . S
H468 C437 0.977 . S
H469 C439 0.948 . S
H470 C441 0.947 . S
H471 C442 0.948 . S
H472 C448 0.982 . S
H473 C448 0.979 . S
H474 C448 0.977 . S
H475 C449 0.979 . S
H476 C449 0.980 . S
H477 C449 0.983 . S
H478 C422 0.947 . S
C479 C422 1.392 . S
C479 C423 1.419 . S
C479 H461 0.948 . S
C480 O482 1.247 . S
C480 O484 1.258 . S
C481 O488 1.247 . S
C481 O489 1.258 . S
O482 C480 1.247 . S
O482 Zn483 2.026 . S
Zn483 O482 2.026 . S
Zn483 O487 2.037 1_655 S
Zn483 O489 2.037 1_655 S
Zn483 O490 2.026 . S
O484 C480 1.258 . S
O484 Zn485 2.028 1_655 S
Zn485 O484 2.028 1_455 S
Zn485 O486 2.035 . S
Zn485 O488 2.035 . S
Zn485 O491 2.028 1_455 S
O486 Zn485 2.035 . S
O486 C492 1.247 . S
O487 Zn483 2.037 1_455 S
O487 C492 1.258 . S
O488 C481 1.247 . S
O488 Zn485 2.035 . S
O489 C481 1.258 . S
O489 Zn483 2.037 1_455 S
O490 Zn483 2.026 . S
O490 C493 1.247 . S
O491 Zn485 2.028 1_655 S
O491 C493 1.258 . S
C492 O486 1.247 . S
C492 O487 1.258 . S
C493 O490 1.247 . S
C493 O491 1.258 . S
C494 O496 1.247 . S
C494 O498 1.258 . S
C495 O502 1.247 . S
C495 O503 1.258 . S
O496 C494 1.247 . S
O496 Zn497 2.026 . S
Zn497 O496 2.026 . S
Zn497 O501 2.037 1_655 S
Zn497 O503 2.037 1_655 S
Zn497 O504 2.026 . S
O498 C494 1.258 . S
O498 Zn499 2.028 1_655 S
Zn499 O498 2.028 1_455 S
Zn499 O500 2.035 . S
Zn499 O502 2.035 . S
Zn499 O505 2.028 1_455 S
O500 Zn499 2.035 . S
O500 C506 1.247 . S
O501 Zn497 2.037 1_455 S
O501 C506 1.258 . S
O502 C495 1.247 . S
O502 Zn499 2.035 . S
O503 C495 1.258 . S
O503 Zn497 2.037 1_455 S
O504 Zn497 2.026 . S
O504 C507 1.247 . S
O505 Zn499 2.028 1_655 S
O505 C507 1.258 . S
C506 O500 1.247 . S
C506 O501 1.258 . S
C507 O504 1.247 . S
C507 O505 1.258 . S
C508 O510 1.247 . S
C508 O512 1.258 . S
C509 O516 1.247 . S
C509 O517 1.258 . S
O510 C508 1.247 . S
O510 Zn511 2.026 . S
Zn511 O510 2.026 . S
Zn511 O515 2.037 1_565 S
Zn511 O517 2.037 1_565 S
Zn511 O518 2.026 . S
O512 C508 1.258 . S
O512 Zn513 2.028 1_565 S
Zn513 O512 2.028 1_545 S
Zn513 O514 2.035 . S
Zn513 O516 2.035 . S
Zn513 O519 2.028 1_545 S
O514 Zn513 2.035 . S
O514 C520 1.247 . S
O515 Zn511 2.037 1_545 S
O515 C520 1.258 . S
O516 C509 1.247 . S
O516 Zn513 2.035 . S
O517 C509 1.258 . S
O517 Zn511 2.037 1_545 S
O518 Zn511 2.026 . S
O518 C521 1.247 . S
O519 Zn513 2.028 1_565 S
O519 C521 1.258 . S
C520 O514 1.247 . S
C520 O515 1.258 . S
C521 O518 1.247 . S
C521 O519 1.258 . S
C522 O524 1.247 . S
C522 O526 1.258 . S
C523 O530 1.247 . S
C523 O531 1.258 . S
O524 C522 1.247 . S
O524 Zn525 2.028 . S
Zn525 O524 2.028 . S
Zn525 O529 2.035 . S
Zn525 O531 2.035 1_554 S
Zn525 O532 2.028 1_554 S
O526 C522 1.258 . S
O526 Zn527 2.035 . S
Zn527 O526 2.035 . S
Zn527 O528 2.028 . S
Zn527 O530 2.028 1_554 S
Zn527 O533 2.035 1_554 S
O528 Zn527 2.028 . S
O528 C534 1.247 . S
O529 Zn525 2.035 . S
O529 C534 1.258 . S
O530 C523 1.247 . S
O530 Zn527 2.028 1_556 S
O531 C523 1.258 . S
O531 Zn525 2.035 1_556 S
O532 Zn525 2.028 1_556 S
O532 C535 1.247 . S
O533 Zn527 2.035 1_556 S
O533 C535 1.258 . S
C534 O528 1.247 . S
C534 O529 1.258 . S
C535 O532 1.247 . S
C535 O533 1.258 . S
C536 O538 1.247 . S
C536 O540 1.258 . S
C537 O544 1.247 . S
C537 O545 1.258 . S
O538 C536 1.247 . S
O538 Zn539 2.026 . S
Zn539 O538 2.026 . S
Zn539 O543 2.037 1_565 S
Zn539 O545 2.037 1_565 S
Zn539 O546 2.026 . S
O540 C536 1.258 . S
O540 Zn541 2.028 1_565 S
Zn541 O540 2.028 1_545 S
Zn541 O542 2.035 . S
Zn541 O544 2.035 . S
Zn541 O547 2.028 1_545 S
O542 Zn541 2.035 . S
O542 C548 1.247 . S
O543 Zn539 2.037 1_545 S
O543 C548 1.258 . S
O544 C537 1.247 . S
O544 Zn541 2.035 . S
O545 C537 1.258 . S
O545 Zn539 2.037 1_545 S
O546 Zn539 2.026 . S
O546 C549 1.247 . S
O547 Zn541 2.028 1_565 S
O547 C549 1.258 . S
C548 O542 1.247 . S
C548 O543 1.258 . S
C549 O546 1.247 . S
C549 O547 1.258 . S
C550 O552 1.247 . S
C550 O554 1.258 . S
C551 O558 1.247 . S
C551 O559 1.258 . S
O552 C550 1.247 . S
O552 Zn553 2.028 . S
Zn553 O552 2.028 . S
Zn553 O557 2.035 . S
Zn553 O559 2.035 1_554 S
Zn553 O560 2.028 1_554 S
O554 C550 1.258 . S
O554 Zn555 2.035 . S
Zn555 O554 2.035 . S
Zn555 O556 2.028 . S
Zn555 O558 2.028 1_554 S
Zn555 O561 2.035 1_554 S
O556 Zn555 2.028 . S
O556 C562 1.247 . S
O557 Zn553 2.035 . S
O557 C562 1.258 . S
O558 C551 1.247 . S
O558 Zn555 2.028 1_556 S
O559 C551 1.258 . S
O559 Zn553 2.035 1_556 S
O560 Zn553 2.028 1_556 S
O560 C563 1.247 . S
O561 Zn555 2.035 1_556 S
O561 C563 1.258 . S
C562 O556 1.247 . S
C562 O557 1.258 . S
C563 O560 1.247 . S
C563 O561 1.258 . S
H564 C572 0.929 . S
H565 C574 0.930 . S
H566 C576 0.930 . S
H567 C579 0.929 . S
H568 C582 0.930 . S
H569 C584 0.960 . S
H570 C584 0.960 . S
H571 C584 0.960 . S
C572 H564 0.929 . S
C572 C573 1.377 . S
C572 C574 1.384 . S
C573 C572 1.377 . S
C573 C579 1.390 . S
C574 H565 0.930 . S
C574 C572 1.384 . S
C574 C575 1.372 . S
C575 C574 1.372 . S
C575 C576 1.400 . S
C575 C580 1.490 . S
C576 H566 0.930 . S
C576 C575 1.400 . S
C576 C579 1.386 . S
H577 C593 0.930 . S
H578 C594 0.931 . S
C579 H567 0.929 . S
C579 C573 1.390 . S
C579 C576 1.386 . S
C580 C575 1.490 . S
C580 C582 1.395 . S
C580 C583 1.403 . S
H581 C587 0.930 . S
C582 H568 0.930 . S
C582 C580 1.395 . S
C582 C585 1.403 . S
C583 C580 1.403 . S
C583 C584 1.524 . S
C583 C587 1.400 . S
C584 H569 0.960 . S
C584 H570 0.960 . S
C584 H571 0.960 . S
C584 C583 1.524 . S
C585 C582 1.403 . S
C585 C586 1.392 . S
C585 C589 1.495 . S
C586 C585 1.392 . S
C586 C587 1.385 . S
C586 C588 1.478 . S
C587 H581 0.930 . S
C587 C583 1.400 . S
C587 C586 1.385 . S
C588 C586 1.478 . S
C588 C590 1.381 . S
C588 C594 1.383 . S
C589 C585 1.495 . S
C589 H595 0.959 . S
C589 H596 0.961 . S
C589 H597 0.960 . S
C590 C588 1.381 . S
C590 C591 1.394 . S
C590 H598 0.930 . S
C591 C590 1.394 . S
C591 C592 1.383 . S
C591 H599 0.929 . S
C592 C591 1.383 . S
C592 C593 1.377 . S
C593 H577 0.930 . S
C593 C592 1.377 . S
C593 C594 1.379 . S
C594 H578 0.931 . S
C594 C588 1.383 . S
C594 C593 1.379 . S
H595 C589 0.959 . S
H596 C589 0.961 . S
H597 C589 0.960 . S
H598 C590 0.930 . S
H599 C591 0.929 . S
H600 C608 0.929 . S
H601 C610 0.930 . S
H602 C612 0.930 . S
H603 C615 0.929 . S
H604 C618 0.930 . S
H605 C620 0.960 . S
H606 C620 0.960 . S
H607 C620 0.960 . S
C608 H600 0.929 . S
C608 C609 1.377 . S
C608 C610 1.384 . S
C609 C608 1.377 . S
C609 C615 1.390 . S
C610 H601 0.930 . S
C610 C608 1.384 . S
C610 C611 1.372 . S
C611 C610 1.372 . S
C611 C612 1.400 . S
C611 C616 1.490 . S
C612 H602 0.930 . S
C612 C611 1.400 . S
C612 C615 1.386 . S
H613 C629 0.930 . S
H614 C630 0.931 . S
C615 H603 0.929 . S
C615 C609 1.390 . S
C615 C612 1.386 . S
C616 C611 1.490 . S
C616 C618 1.395 . S
C616 C619 1.403 . S
H617 C623 0.930 . S
C618 H604 0.930 . S
C618 C616 1.395 . S
C618 C621 1.403 . S
C619 C616 1.403 . S
C619 C620 1.524 . S
C619 C623 1.400 . S
C620 H605 0.960 . S
C620 H606 0.960 . S
C620 H607 0.960 . S
C620 C619 1.524 . S
C621 C618 1.403 . S
C621 C622 1.392 . S
C621 C625 1.495 . S
C622 C621 1.392 . S
C622 C623 1.385 . S
C622 C624 1.478 . S
C623 H617 0.930 . S
C623 C619 1.400 . S
C623 C622 1.385 . S
C624 C622 1.478 . S
C624 C626 1.381 . S
C624 C630 1.383 . S
C625 C621 1.495 . S
C625 H631 0.959 . S
C625 H632 0.961 . S
C625 H633 0.960 . S
C626 C624 1.381 . S
C626 C627 1.394 . S
C626 H634 0.930 . S
C627 C626 1.394 . S
C627 C628 1.383 . S
C627 H635 0.929 . S
C628 C627 1.383 . S
C628 C629 1.377 . S
C629 H613 0.930 . S
C629 C628 1.377 . S
C629 C630 1.379 . S
C630 H614 0.931 . S
C630 C624 1.383 . S
C630 C629 1.379 . S
H631 C625 0.959 . S
H632 C625 0.961 . S
H633 C625 0.960 . S
H634 C626 0.930 . S
H635 C627 0.929 . S
H636 C644 0.929 . S
H637 C646 0.930 . S
H638 C648 0.930 . S
H639 C651 0.929 . S
H640 C654 0.930 . S
H641 C656 0.960 . S
H642 C656 0.960 . S
H643 C656 0.960 . S
C644 H636 0.929 . S
C644 C645 1.377 . S
C644 C646 1.384 . S
C645 C644 1.377 . S
C645 C651 1.390 . S
C646 H637 0.930 . S
C646 C644 1.384 . S
C646 C647 1.372 . S
C647 C646 1.372 . S
C647 C648 1.400 . S
C647 C652 1.490 . S
C648 H638 0.930 . S
C648 C647 1.400 . S
C648 C651 1.386 . S
H649 C665 0.930 . S
H650 C666 0.931 . S
C651 H639 0.929 . S
C651 C645 1.390 . S
C651 C648 1.386 . S
C652 C647 1.490 . S
C652 C654 1.395 . S
C652 C655 1.403 . S
H653 C659 0.930 . S
C654 H640 0.930 . S
C654 C652 1.395 . S
C654 C657 1.403 . S
C655 C652 1.403 . S
C655 C656 1.524 . S
C655 C659 1.400 . S
C656 H641 0.960 . S
C656 H642 0.960 . S
C656 H643 0.960 . S
C656 C655 1.524 . S
C657 C654 1.403 . S
C657 C658 1.392 . S
C657 C661 1.495 . S
C658 C657 1.392 . S
C658 C659 1.385 . S
C658 C660 1.478 . S
C659 H653 0.930 . S
C659 C655 1.400 . S
C659 C658 1.385 . S
C660 C658 1.478 . S
C660 C662 1.381 . S
C660 C666 1.383 . S
C661 C657 1.495 . S
C661 H667 0.959 . S
C661 H668 0.961 . S
C661 H669 0.960 . S
C662 C660 1.381 . S
C662 C663 1.394 . S
C662 H670 0.930 . S
C663 C662 1.394 . S
C663 C664 1.383 . S
C663 H671 0.929 . S
C664 C663 1.383 . S
C664 C665 1.377 . S
C665 H649 0.930 . S
C665 C664 1.377 . S
C665 C666 1.379 . S
C666 H650 0.931 . S
C666 C660 1.383 . S
C666 C665 1.379 . S
H667 C661 0.959 . S
H668 C661 0.961 . S
H669 C661 0.960 . S
H670 C662 0.930 . S
H671 C663 0.929 . S
H672 C680 0.929 . S
H673 C682 0.930 . S
H674 C684 0.930 . S
H675 C687 0.929 . S
H676 C690 0.930 . S
H677 C692 0.960 . S
H678 C692 0.960 . S
H679 C692 0.960 . S
C680 H672 0.929 . S
C680 C681 1.377 . S
C680 C682 1.384 . S
C681 C680 1.377 . S
C681 C687 1.390 . S
C682 H673 0.930 . S
C682 C680 1.384 . S
C682 C683 1.372 . S
C683 C682 1.372 . S
C683 C684 1.400 . S
C683 C688 1.490 . S
C684 H674 0.930 . S
C684 C683 1.400 . S
C684 C687 1.386 . S
H685 C701 0.930 . S
H686 C702 0.931 . S
C687 H675 0.929 . S
C687 C681 1.390 . S
C687 C684 1.386 . S
C688 C683 1.490 . S
C688 C690 1.395 . S
C688 C691 1.403 . S
H689 C695 0.930 . S
C690 H676 0.930 . S
C690 C688 1.395 . S
C690 C693 1.403 . S
C691 C688 1.403 . S
C691 C692 1.524 . S
C691 C695 1.400 . S
C692 H677 0.960 . S
C692 H678 0.960 . S
C692 H679 0.960 . S
C692 C691 1.524 . S
C693 C690 1.403 . S
C693 C694 1.392 . S
C693 C697 1.495 . S
C694 C693 1.392 . S
C694 C695 1.385 . S
C694 C696 1.478 . S
C695 H689 0.930 . S
C695 C691 1.400 . S
C695 C694 1.385 . S
C696 C694 1.478 . S
C696 C698 1.381 . S
C696 C702 1.383 . S
C697 C693 1.495 . S
C697 H703 0.959 . S
C697 H704 0.961 . S
C697 H705 0.960 . S
C698 C696 1.381 . S
C698 C699 1.394 . S
C698 H706 0.930 . S
C699 C698 1.394 . S
C699 C700 1.383 . S
C699 H707 0.929 . S
C700 C699 1.383 . S
C700 C701 1.377 . S
C701 H685 0.930 . S
C701 C700 1.377 . S
C701 C702 1.379 . S
C702 H686 0.931 . S
C702 C696 1.383 . S
C702 C701 1.379 . S
H703 C697 0.959 . S
H704 C697 0.961 . S
H705 C697 0.960 . S
H706 C698 0.930 . S
H707 C699 0.929 . S
H708 C716 0.929 . S
H709 C718 0.930 . S
H710 C720 0.930 . S
H711 C723 0.929 . S
H712 C726 0.930 . S
H713 C728 0.960 . S
H714 C728 0.960 . S
H715 C728 0.960 . S
C716 H708 0.929 . S
C716 C717 1.377 . S
C716 C718 1.384 . S
C717 C716 1.377 . S
C717 C723 1.390 . S
C718 H709 0.930 . S
C718 C716 1.384 . S
C718 C719 1.372 . S
C719 C718 1.372 . S
C719 C720 1.400 . S
C719 C724 1.490 . S
C720 H710 0.930 . S
C720 C719 1.400 . S
C720 C723 1.386 . S
H721 C737 0.930 . S
H722 C738 0.931 . S
C723 H711 0.929 . S
C723 C717 1.390 . S
C723 C720 1.386 . S
C724 C719 1.490 . S
C724 C726 1.395 . S
C724 C727 1.403 . S
H725 C731 0.930 . S
C726 H712 0.930 . S
C726 C724 1.395 . S
C726 C729 1.403 . S
C727 C724 1.403 . S
C727 C728 1.524 . S
C727 C731 1.400 . S
C728 H713 0.960 . S
C728 H714 0.960 . S
C728 H715 0.960 . S
C728 C727 1.524 . S
C729 C726 1.403 . S
C729 C730 1.392 . S
C729 C733 1.495 . S
C730 C729 1.392 . S
C730 C731 1.385 . S
C730 C732 1.478 . S
C731 H725 0.930 . S
C731 C727 1.400 . S
C731 C730 1.385 . S
C732 C730 1.478 . S
C732 C734 1.381 . S
C732 C738 1.383 . S
C733 C729 1.495 . S
C733 H739 0.959 . S
C733 H740 0.961 . S
C733 H741 0.960 . S
C734 C732 1.381 . S
C734 C735 1.394 . S
C734 H742 0.930 . S
C735 C734 1.394 . S
C735 C736 1.383 . S
C735 H743 0.929 . S
C736 C735 1.383 . S
C736 C737 1.377 . S
C737 H721 0.930 . S
C737 C736 1.377 . S
C737 C738 1.379 . S
C738 H722 0.931 . S
C738 C732 1.383 . S
C738 C737 1.379 . S
H739 C733 0.959 . S
H740 C733 0.961 . S
H741 C733 0.960 . S
H742 C734 0.930 . S
H743 C735 0.929 . S
H744 C752 0.929 . S
H745 C754 0.930 . S
H746 C756 0.930 . S
H747 C759 0.929 . S
H748 C762 0.930 . S
H749 C764 0.960 . S
H750 C764 0.960 . S
H751 C764 0.960 . S
C752 H744 0.929 . S
C752 C753 1.377 . S
C752 C754 1.384 . S
C753 C752 1.377 . S
C753 C759 1.390 . S
C754 H745 0.930 . S
C754 C752 1.384 . S
C754 C755 1.372 . S
C755 C754 1.372 . S
C755 C756 1.400 . S
C755 C760 1.490 . S
C756 H746 0.930 . S
C756 C755 1.400 . S
C756 C759 1.386 . S
H757 C773 0.930 . S
H758 C774 0.931 . S
C759 H747 0.929 . S
C759 C753 1.390 . S
C759 C756 1.386 . S
C760 C755 1.490 . S
C760 C762 1.395 . S
C760 C763 1.403 . S
H761 C767 0.930 . S
C762 H748 0.930 . S
C762 C760 1.395 . S
C762 C765 1.403 . S
C763 C760 1.403 . S
C763 C764 1.524 . S
C763 C767 1.400 . S
C764 H749 0.960 . S
C764 H750 0.960 . S
C764 H751 0.960 . S
C764 C763 1.524 . S
C765 C762 1.403 . S
C765 C766 1.392 . S
C765 C769 1.495 . S
C766 C765 1.392 . S
C766 C767 1.385 . S
C766 C768 1.478 . S
C767 H761 0.930 . S
C767 C763 1.400 . S
C767 C766 1.385 . S
C768 C766 1.478 . S
C768 C770 1.381 . S
C768 C774 1.383 . S
C769 C765 1.495 . S
C769 H775 0.959 . S
C769 H776 0.961 . S
C769 H777 0.960 . S
C770 C768 1.381 . S
C770 C771 1.394 . S
C770 H778 0.930 . S
C771 C770 1.394 . S
C771 C772 1.383 . S
C771 H779 0.929 . S
C772 C771 1.383 . S
C772 C773 1.377 . S
C773 H757 0.930 . S
C773 C772 1.377 . S
C773 C774 1.379 . S
C774 H758 0.931 . S
C774 C768 1.383 . S
C774 C773 1.379 . S
H775 C769 0.959 . S
H776 C769 0.961 . S
H777 C769 0.960 . S
H778 C770 0.930 . S
H779 C771 0.929 . S
H780 C788 0.929 . S
H781 C790 0.930 . S
H782 C792 0.930 . S
H783 C795 0.929 . S
H784 C798 0.930 . S
H785 C800 0.960 . S
H786 C800 0.960 . S
H787 C800 0.960 . S
C788 H780 0.929 . S
C788 C789 1.377 . S
C788 C790 1.384 . S
C789 C788 1.377 . S
C789 C795 1.390 . S
C790 H781 0.930 . S
C790 C788 1.384 . S
C790 C791 1.372 . S
C791 C790 1.372 . S
C791 C792 1.400 . S
C791 C796 1.490 . S
C792 H782 0.930 . S
C792 C791 1.400 . S
C792 C795 1.386 . S
H793 C809 0.930 . S
H794 C810 0.931 . S
C795 H783 0.929 . S
C795 C789 1.390 . S
C795 C792 1.386 . S
C796 C791 1.490 . S
C796 C798 1.395 . S
C796 C799 1.403 . S
H797 C803 0.930 . S
C798 H784 0.930 . S
C798 C796 1.395 . S
C798 C801 1.403 . S
C799 C796 1.403 . S
C799 C800 1.524 . S
C799 C803 1.400 . S
C800 H785 0.960 . S
C800 H786 0.960 . S
C800 H787 0.960 . S
C800 C799 1.524 . S
C801 C798 1.403 . S
C801 C802 1.392 . S
C801 C805 1.495 . S
C802 C801 1.392 . S
C802 C803 1.385 . S
C802 C804 1.478 . S
C803 H797 0.930 . S
C803 C799 1.400 . S
C803 C802 1.385 . S
C804 C802 1.478 . S
C804 C806 1.381 . S
C804 C810 1.383 . S
C805 C801 1.495 . S
C805 H811 0.959 . S
C805 H812 0.961 . S
C805 H813 0.960 . S
C806 C804 1.381 . S
C806 C807 1.394 . S
C806 H814 0.930 . S
C807 C806 1.394 . S
C807 C808 1.383 . S
C807 H815 0.929 . S
C808 C807 1.383 . S
C808 C809 1.377 . S
C809 H793 0.930 . S
C809 C808 1.377 . S
C809 C810 1.379 . S
C810 H794 0.931 . S
C810 C804 1.383 . S
C810 C809 1.379 . S
H811 C805 0.959 . S
H812 C805 0.961 . S
H813 C805 0.960 . S
H814 C806 0.930 . S
H815 C807 0.929 . S
H816 C824 0.929 . S
H817 C826 0.930 . S
H818 C828 0.930 . S
H819 C831 0.929 . S
H820 C834 0.930 . S
H821 C836 0.960 . S
H822 C836 0.960 . S
H823 C836 0.960 . S
C824 H816 0.929 . S
C824 C825 1.377 . S
C824 C826 1.384 . S
C825 C824 1.377 . S
C825 C831 1.390 . S
C826 H817 0.930 . S
C826 C824 1.384 . S
C826 C827 1.372 . S
C827 C826 1.372 . S
C827 C828 1.400 . S
C827 C832 1.490 . S
C828 H818 0.930 . S
C828 C827 1.400 . S
C828 C831 1.386 . S
H829 C845 0.930 . S
H830 C846 0.931 . S
C831 H819 0.929 . S
C831 C825 1.390 . S
C831 C828 1.386 . S
C832 C827 1.490 . S
C832 C834 1.395 . S
C832 C835 1.403 . S
H833 C839 0.930 . S
C834 H820 0.930 . S
C834 C832 1.395 . S
C834 C837 1.403 . S
C835 C832 1.403 . S
C835 C836 1.524 . S
C835 C839 1.400 . S
C836 H821 0.960 . S
C836 H822 0.960 . S
C836 H823 0.960 . S
C836 C835 1.524 . S
C837 C834 1.403 . S
C837 C838 1.392 . S
C837 C841 1.495 . S
C838 C837 1.392 . S
C838 C839 1.385 . S
C838 C840 1.478 . S
C839 H833 0.930 . S
C839 C835 1.400 . S
C839 C838 1.385 . S
C840 C838 1.478 . S
C840 C842 1.381 . S
C840 C846 1.383 . S
C841 C837 1.495 . S
C841 H847 0.959 . S
C841 H848 0.961 . S
C841 H849 0.960 . S
C842 C840 1.381 . S
C842 C843 1.394 . S
C842 H850 0.930 . S
C843 C842 1.394 . S
C843 C844 1.383 . S
C843 H851 0.929 . S
C844 C843 1.383 . S
C844 C845 1.377 . S
C845 H829 0.930 . S
C845 C844 1.377 . S
C845 C846 1.379 . S
C846 H830 0.931 . S
C846 C840 1.383 . S
C846 C845 1.379 . S
H847 C841 0.959 . S
H848 C841 0.961 . S
H849 C841 0.960 . S
H850 C842 0.930 . S
H851 C843 0.929 . S
H852 C860 0.929 . S
H853 C862 0.930 . S
H854 C864 0.930 . S
H855 C867 0.929 . S
H856 C870 0.930 . S
H857 C872 0.960 . S
H858 C872 0.960 . S
H859 C872 0.960 . S
C860 H852 0.929 . S
C860 C861 1.377 . S
C860 C862 1.384 . S
C861 C860 1.377 . S
C861 C867 1.390 . S
C862 H853 0.930 . S
C862 C860 1.384 . S
C862 C863 1.372 . S
C863 C862 1.372 . S
C863 C864 1.400 . S
C863 C868 1.490 . S
C864 H854 0.930 . S
C864 C863 1.400 . S
C864 C867 1.386 . S
H865 C881 0.930 . S
H866 C882 0.931 . S
C867 H855 0.929 . S
C867 C861 1.390 . S
C867 C864 1.386 . S
C868 C863 1.490 . S
C868 C870 1.395 . S
C868 C871 1.403 . S
H869 C875 0.930 . S
C870 H856 0.930 . S
C870 C868 1.395 . S
C870 C873 1.403 . S
C871 C868 1.403 . S
C871 C872 1.524 . S
C871 C875 1.400 . S
C872 H857 0.960 . S
C872 H858 0.960 . S
C872 H859 0.960 . S
C872 C871 1.524 . S
C873 C870 1.403 . S
C873 C874 1.392 . S
C873 C877 1.495 . S
C874 C873 1.392 . S
C874 C875 1.385 . S
C874 C876 1.478 . S
C875 H869 0.930 . S
C875 C871 1.400 . S
C875 C874 1.385 . S
C876 C874 1.478 . S
C876 C878 1.381 . S
C876 C882 1.383 . S
C877 C873 1.495 . S
C877 H883 0.959 . S
C877 H884 0.961 . S
C877 H885 0.960 . S
C878 C876 1.381 . S
C878 C879 1.394 . S
C878 H886 0.930 . S
C879 C878 1.394 . S
C879 C880 1.383 . S
C879 H887 0.929 . S
C880 C879 1.383 . S
C880 C881 1.377 . S
C881 H865 0.930 . S
C881 C880 1.377 . S
C881 C882 1.379 . S
C882 H866 0.931 . S
C882 C876 1.383 . S
C882 C881 1.379 . S
H883 C877 0.959 . S
H884 C877 0.961 . S
H885 C877 0.960 . S
H886 C878 0.930 . S
H887 C879 0.929 . S
H888 C896 0.929 . S
H889 C898 0.930 . S
H890 C900 0.930 . S
H891 C903 0.929 . S
H892 C906 0.930 . S
H893 C908 0.960 . S
H894 C908 0.960 . S
H895 C908 0.960 . S
C896 H888 0.929 . S
C896 C897 1.377 . S
C896 C898 1.384 . S
C897 C896 1.377 . S
C897 C903 1.390 . S
C898 H889 0.930 . S
C898 C896 1.384 . S
C898 C899 1.372 . S
C899 C898 1.372 . S
C899 C900 1.400 . S
C899 C904 1.490 . S
C900 H890 0.930 . S
C900 C899 1.400 . S
C900 C903 1.386 . S
H901 C917 0.930 . S
H902 C918 0.931 . S
C903 H891 0.929 . S
C903 C897 1.390 . S
C903 C900 1.386 . S
C904 C899 1.490 . S
C904 C906 1.395 . S
C904 C907 1.403 . S
H905 C911 0.930 . S
C906 H892 0.930 . S
C906 C904 1.395 . S
C906 C909 1.403 . S
C907 C904 1.403 . S
C907 C908 1.524 . S
C907 C911 1.400 . S
C908 H893 0.960 . S
C908 H894 0.960 . S
C908 H895 0.960 . S
C908 C907 1.524 . S
C909 C906 1.403 . S
C909 C910 1.392 . S
C909 C913 1.495 . S
C910 C909 1.392 . S
C910 C911 1.385 . S
C910 C912 1.478 . S
C911 H905 0.930 . S
C911 C907 1.400 . S
C911 C910 1.385 . S
C912 C910 1.478 . S
C912 C914 1.381 . S
C912 C918 1.383 . S
C913 C909 1.495 . S
C913 H919 0.959 . S
C913 H920 0.961 . S
C913 H921 0.960 . S
C914 C912 1.381 . S
C914 C915 1.394 . S
C914 H922 0.930 . S
C915 C914 1.394 . S
C915 C916 1.383 . S
C915 H923 0.929 . S
C916 C915 1.383 . S
C916 C917 1.377 . S
C917 H901 0.930 . S
C917 C916 1.377 . S
C917 C918 1.379 . S
C918 H902 0.931 . S
C918 C912 1.383 . S
C918 C917 1.379 . S
H919 C913 0.959 . S
H920 C913 0.961 . S
H921 C913 0.960 . S
H922 C914 0.930 . S
H923 C915 0.929 . S
H924 C932 0.929 . S
H925 C934 0.930 . S
H926 C936 0.930 . S
H927 C939 0.929 . S
H928 C942 0.930 . S
H929 C944 0.960 . S
H930 C944 0.960 . S
H931 C944 0.960 . S
C932 H924 0.929 . S
C932 C933 1.377 . S
C932 C934 1.384 . S
C933 C932 1.377 . S
C933 C939 1.390 . S
C934 H925 0.930 . S
C934 C932 1.384 . S
C934 C935 1.372 . S
C935 C934 1.372 . S
C935 C936 1.400 . S
C935 C940 1.490 . S
C936 H926 0.930 . S
C936 C935 1.400 . S
C936 C939 1.386 . S
H937 C953 0.930 . S
H938 C954 0.931 . S
C939 H927 0.929 . S
C939 C933 1.390 . S
C939 C936 1.386 . S
C940 C935 1.490 . S
C940 C942 1.395 . S
C940 C943 1.403 . S
H941 C947 0.930 . S
C942 H928 0.930 . S
C942 C940 1.395 . S
C942 C945 1.403 . S
C943 C940 1.403 . S
C943 C944 1.524 . S
C943 C947 1.400 . S
C944 H929 0.960 . S
C944 H930 0.960 . S
C944 H931 0.960 . S
C944 C943 1.524 . S
C945 C942 1.403 . S
C945 C946 1.392 . S
C945 C949 1.495 . S
C946 C945 1.392 . S
C946 C947 1.385 . S
C946 C948 1.478 . S
C947 H941 0.930 . S
C947 C943 1.400 . S
C947 C946 1.385 . S
C948 C946 1.478 . S
C948 C950 1.381 . S
C948 C954 1.383 . S
C949 C945 1.495 . S
C949 H955 0.959 . S
C949 H956 0.961 . S
C949 H957 0.960 . S
C950 C948 1.381 . S
C950 C951 1.394 . S
C950 H958 0.930 . S
C951 C950 1.394 . S
C951 C952 1.383 . S
C951 H959 0.929 . S
C952 C951 1.383 . S
C952 C953 1.377 . S
C953 H937 0.930 . S
C953 C952 1.377 . S
C953 C954 1.379 . S
C954 H938 0.931 . S
C954 C948 1.383 . S
C954 C953 1.379 . S
H955 C949 0.959 . S
H956 C949 0.961 . S
H957 C949 0.960 . S
H958 C950 0.930 . S
H959 C951 0.929 . S
H960 C968 0.929 . S
H961 C970 0.930 . S
H962 C972 0.930 . S
H963 C975 0.929 . S
H964 C978 0.930 . S
H965 C980 0.960 . S
H966 C980 0.960 . S
H967 C980 0.960 . S
C968 H960 0.929 . S
C968 C969 1.377 . S
C968 C970 1.384 . S
C969 C968 1.377 . S
C969 C975 1.390 . S
C970 H961 0.930 . S
C970 C968 1.384 . S
C970 C971 1.372 . S
C971 C970 1.372 . S
C971 C972 1.400 . S
C971 C976 1.490 . S
C972 H962 0.930 . S
C972 C971 1.400 . S
C972 C975 1.386 . S
H973 C989 0.930 . S
H974 C990 0.931 . S
C975 H963 0.929 . S
C975 C969 1.390 . S
C975 C972 1.386 . S
C976 C971 1.490 . S
C976 C978 1.395 . S
C976 C979 1.403 . S
H977 C983 0.930 . S
C978 H964 0.930 . S
C978 C976 1.395 . S
C978 C981 1.403 . S
C979 C976 1.403 . S
C979 C980 1.524 . S
C979 C983 1.400 . S
C980 H965 0.960 . S
C980 H966 0.960 . S
C980 H967 0.960 . S
C980 C979 1.524 . S
C981 C978 1.403 . S
C981 C982 1.392 . S
C981 C985 1.495 . S
C982 C981 1.392 . S
C982 C983 1.385 . S
C982 C984 1.478 . S
C983 H977 0.930 . S
C983 C979 1.400 . S
C983 C982 1.385 . S
C984 C982 1.478 . S
C984 C986 1.381 . S
C984 C990 1.383 . S
C985 C981 1.495 . S
C985 H991 0.959 . S
C985 H992 0.961 . S
C985 H993 0.960 . S
C986 C984 1.381 . S
C986 C987 1.394 . S
C986 H994 0.930 . S
C987 C986 1.394 . S
C987 C988 1.383 . S
C987 H995 0.929 . S
C988 C987 1.383 . S
C988 C989 1.377 . S
C989 H973 0.930 . S
C989 C988 1.377 . S
C989 C990 1.379 . S
C990 H974 0.931 . S
C990 C984 1.383 . S
C990 C989 1.379 . S
H991 C985 0.959 . S
H992 C985 0.961 . S
H993 C985 0.960 . S
H994 C986 0.930 . S
H995 C987 0.929 . S
H996 C1004 0.929 . S
H997 C1006 0.930 . S
H998 C1008 0.930 . S
H999 C1011 0.929 . S
H1000 C1014 0.930 . S
H1001 C1016 0.960 . S
H1002 C1016 0.960 . S
H1003 C1016 0.960 . S
C1004 H996 0.929 . S
C1004 C1005 1.377 . S
C1004 C1006 1.384 . S
C1005 C1004 1.377 . S
C1005 C1011 1.390 . S
C1006 H997 0.930 . S
C1006 C1004 1.384 . S
C1006 C1007 1.372 . S
C1007 C1006 1.372 . S
C1007 C1008 1.400 . S
C1007 C1012 1.490 . S
C1008 H998 0.930 . S
C1008 C1007 1.400 . S
C1008 C1011 1.386 . S
H1009 C1025 0.930 . S
H1010 C1026 0.931 . S
C1011 H999 0.929 . S
C1011 C1005 1.390 . S
C1011 C1008 1.386 . S
C1012 C1007 1.490 . S
C1012 C1014 1.395 . S
C1012 C1015 1.403 . S
H1013 C1019 0.930 . S
C1014 H1000 0.930 . S
C1014 C1012 1.395 . S
C1014 C1017 1.403 . S
C1015 C1012 1.403 . S
C1015 C1016 1.524 . S
C1015 C1019 1.400 . S
C1016 H1001 0.960 . S
C1016 H1002 0.960 . S
C1016 H1003 0.960 . S
C1016 C1015 1.524 . S
C1017 C1014 1.403 . S
C1017 C1018 1.392 . S
C1017 C1021 1.495 . S
C1018 C1017 1.392 . S
C1018 C1019 1.385 . S
C1018 C1020 1.478 . S
C1019 H1013 0.930 . S
C1019 C1015 1.400 . S
C1019 C1018 1.385 . S
C1020 C1018 1.478 . S
C1020 C1022 1.381 . S
C1020 C1026 1.383 . S
C1021 C1017 1.495 . S
C1021 H1027 0.959 . S
C1021 H1028 0.961 . S
C1021 H1029 0.960 . S
C1022 C1020 1.381 . S
C1022 C1023 1.394 . S
C1022 H1030 0.930 . S
C1023 C1022 1.394 . S
C1023 C1024 1.383 . S
C1023 H1031 0.929 . S
C1024 C1023 1.383 . S
C1024 C1025 1.377 . S
C1025 H1009 0.930 . S
C1025 C1024 1.377 . S
C1025 C1026 1.379 . S
C1026 H1010 0.931 . S
C1026 C1020 1.383 . S
C1026 C1025 1.379 . S
H1027 C1021 0.959 . S
H1028 C1021 0.961 . S
H1029 C1021 0.960 . S
H1030 C1022 0.930 . S
H1031 C1023 0.929 . S
H1032 C1040 0.929 . S
H1033 C1042 0.930 . S
H1034 C1044 0.930 . S
H1035 C1047 0.929 . S
H1036 C1050 0.930 . S
H1037 C1052 0.960 . S
H1038 C1052 0.960 . S
H1039 C1052 0.960 . S
C1040 H1032 0.929 . S
C1040 C1041 1.377 . S
C1040 C1042 1.384 . S
C1041 C1040 1.377 . S
C1041 C1047 1.390 . S
C1042 H1033 0.930 . S
C1042 C1040 1.384 . S
C1042 C1043 1.372 . S
C1043 C1042 1.372 . S
C1043 C1044 1.400 . S
C1043 C1048 1.490 . S
C1044 H1034 0.930 . S
C1044 C1043 1.400 . S
C1044 C1047 1.386 . S
H1045 C1061 0.930 . S
H1046 C1062 0.931 . S
C1047 H1035 0.929 . S
C1047 C1041 1.390 . S
C1047 C1044 1.386 . S
C1048 C1043 1.490 . S
C1048 C1050 1.395 . S
C1048 C1051 1.403 . S
H1049 C1055 0.930 . S
C1050 H1036 0.930 . S
C1050 C1048 1.395 . S
C1050 C1053 1.403 . S
C1051 C1048 1.403 . S
C1051 C1052 1.524 . S
C1051 C1055 1.400 . S
C1052 H1037 0.960 . S
C1052 H1038 0.960 . S
C1052 H1039 0.960 . S
C1052 C1051 1.524 . S
C1053 C1050 1.403 . S
C1053 C1054 1.392 . S
C1053 C1057 1.495 . S
C1054 C1053 1.392 . S
C1054 C1055 1.385 . S
C1054 C1056 1.478 . S
C1055 H1049 0.930 . S
C1055 C1051 1.400 . S
C1055 C1054 1.385 . S
C1056 C1054 1.478 . S
C1056 C1058 1.381 . S
C1056 C1062 1.383 . S
C1057 C1053 1.495 . S
C1057 H1063 0.959 . S
C1057 H1064 0.961 . S
C1057 H1065 0.960 . S
C1058 C1056 1.381 . S
C1058 C1059 1.394 . S
C1058 H1066 0.930 . S
C1059 C1058 1.394 . S
C1059 C1060 1.383 . S
C1059 H1067 0.929 . S
C1060 C1059 1.383 . S
C1060 C1061 1.377 . S
C1061 H1045 0.930 . S
C1061 C1060 1.377 . S
C1061 C1062 1.379 . S
C1062 H1046 0.931 . S
C1062 C1056 1.383 . S
C1062 C1061 1.379 . S
H1063 C1057 0.959 . S
H1064 C1057 0.961 . S
H1065 C1057 0.960 . S
H1066 C1058 0.930 . S
H1067 C1059 0.929 . S
H1068 C1076 0.929 . S
H1069 C1078 0.930 . S
H1070 C1080 0.930 . S
H1071 C1083 0.929 . S
H1072 C1086 0.930 . S
H1073 C1088 0.960 . S
H1074 C1088 0.960 . S
H1075 C1088 0.960 . S
C1076 H1068 0.929 . S
C1076 C1077 1.377 . S
C1076 C1078 1.384 . S
C1077 C1076 1.377 . S
C1077 C1083 1.390 . S
C1078 H1069 0.930 . S
C1078 C1076 1.384 . S
C1078 C1079 1.372 . S
C1079 C1078 1.372 . S
C1079 C1080 1.400 . S
C1079 C1084 1.490 . S
C1080 H1070 0.930 . S
C1080 C1079 1.400 . S
C1080 C1083 1.386 . S
H1081 C1097 0.930 . S
H1082 C1098 0.931 . S
C1083 H1071 0.929 . S
C1083 C1077 1.390 . S
C1083 C1080 1.386 . S
C1084 C1079 1.490 . S
C1084 C1086 1.395 . S
C1084 C1087 1.403 . S
H1085 C1091 0.930 . S
C1086 H1072 0.930 . S
C1086 C1084 1.395 . S
C1086 C1089 1.403 . S
C1087 C1084 1.403 . S
C1087 C1088 1.524 . S
C1087 C1091 1.400 . S
C1088 H1073 0.960 . S
C1088 H1074 0.960 . S
C1088 H1075 0.960 . S
C1088 C1087 1.524 . S
C1089 C1086 1.403 . S
C1089 C1090 1.392 . S
C1089 C1093 1.495 . S
C1090 C1089 1.392 . S
C1090 C1091 1.385 . S
C1090 C1092 1.478 . S
C1091 H1085 0.930 . S
C1091 C1087 1.400 . S
C1091 C1090 1.385 . S
C1092 C1090 1.478 . S
C1092 C1094 1.381 . S
C1092 C1098 1.383 . S
C1093 C1089 1.495 . S
C1093 H1099 0.959 . S
C1093 H1100 0.961 . S
C1093 H1101 0.960 . S
C1094 C1092 1.381 . S
C1094 C1095 1.394 . S
C1094 H1102 0.930 . S
C1095 C1094 1.394 . S
C1095 C1096 1.383 . S
C1095 H1103 0.929 . S
C1096 C1095 1.383 . S
C1096 C1097 1.377 . S
C1097 H1081 0.930 . S
C1097 C1096 1.377 . S
C1097 C1098 1.379 . S
C1098 H1082 0.931 . S
C1098 C1092 1.383 . S
C1098 C1097 1.379 . S
H1099 C1093 0.959 . S
H1100 C1093 0.961 . S
H1101 C1093 0.960 . S
H1102 C1094 0.930 . S
H1103 C1095 0.929 . S
H1104 C1112 0.929 . S
H1105 C1114 0.930 . S
H1106 C1116 0.930 . S
H1107 C1119 0.929 . S
H1108 C1122 0.930 . S
H1109 C1124 0.960 . S
H1110 C1124 0.960 . S
H1111 C1124 0.960 . S
C1112 H1104 0.929 . S
C1112 C1113 1.377 . S
C1112 C1114 1.384 . S
C1113 C1112 1.377 . S
C1113 C1119 1.390 . S
C1114 H1105 0.930 . S
C1114 C1112 1.384 . S
C1114 C1115 1.372 . S
C1115 C1114 1.372 . S
C1115 C1116 1.400 . S
C1115 C1120 1.490 . S
C1116 H1106 0.930 . S
C1116 C1115 1.400 . S
C1116 C1119 1.386 . S
H1117 C1133 0.930 . S
H1118 C1134 0.931 . S
C1119 H1107 0.929 . S
C1119 C1113 1.390 . S
C1119 C1116 1.386 . S
C1120 C1115 1.490 . S
C1120 C1122 1.395 . S
C1120 C1123 1.403 . S
H1121 C1127 0.930 . S
C1122 H1108 0.930 . S
C1122 C1120 1.395 . S
C1122 C1125 1.403 . S
C1123 C1120 1.403 . S
C1123 C1124 1.524 . S
C1123 C1127 1.400 . S
C1124 H1109 0.960 . S
C1124 H1110 0.960 . S
C1124 H1111 0.960 . S
C1124 C1123 1.524 . S
C1125 C1122 1.403 . S
C1125 C1126 1.392 . S
C1125 C1129 1.495 . S
C1126 C1125 1.392 . S
C1126 C1127 1.385 . S
C1126 C1128 1.478 . S
C1127 H1121 0.930 . S
C1127 C1123 1.400 . S
C1127 C1126 1.385 . S
C1128 C1126 1.478 . S
C1128 C1130 1.381 . S
C1128 C1134 1.383 . S
C1129 C1125 1.495 . S
C1129 H1135 0.959 . S
C1129 H1136 0.961 . S
C1129 H1137 0.960 . S
C1130 C1128 1.381 . S
C1130 C1131 1.394 . S
C1130 H1138 0.930 . S
C1131 C1130 1.394 . S
C1131 C1132 1.383 . S
C1131 H1139 0.929 . S
C1132 C1131 1.383 . S
C1132 C1133 1.377 . S
C1133 H1117 0.930 . S
C1133 C1132 1.377 . S
C1133 C1134 1.379 . S
C1134 H1118 0.931 . S
C1134 C1128 1.383 . S
C1134 C1133 1.379 . S
H1135 C1129 0.959 . S
H1136 C1129 0.961 . S
H1137 C1129 0.960 . S
H1138 C1130 0.930 . S
H1139 C1131 0.929 . S
H1140 C1148 0.929 . S
H1141 C1150 0.930 . S
H1142 C1152 0.930 . S
H1143 C1155 0.929 . S
H1144 C1158 0.930 . S
H1145 C1160 0.960 . S
H1146 C1160 0.960 . S
H1147 C1160 0.960 . S
C1148 H1140 0.929 . S
C1148 C1149 1.377 . S
C1148 C1150 1.384 . S
C1149 C1148 1.377 . S
C1149 C1155 1.390 . S
C1150 H1141 0.930 . S
C1150 C1148 1.384 . S
C1150 C1151 1.372 . S
C1151 C1150 1.372 . S
C1151 C1152 1.400 . S
C1151 C1156 1.490 . S
C1152 H1142 0.930 . S
C1152 C1151 1.400 . S
C1152 C1155 1.386 . S
H1153 C1169 0.930 . S
H1154 C1170 0.931 . S
C1155 H1143 0.929 . S
C1155 C1149 1.390 . S
C1155 C1152 1.386 . S
C1156 C1151 1.490 . S
C1156 C1158 1.395 . S
C1156 C1159 1.403 . S
H1157 C1163 0.930 . S
C1158 H1144 0.930 . S
C1158 C1156 1.395 . S
C1158 C1161 1.403 . S
C1159 C1156 1.403 . S
C1159 C1160 1.524 . S
C1159 C1163 1.400 . S
C1160 H1145 0.960 . S
C1160 H1146 0.960 . S
C1160 H1147 0.960 . S
C1160 C1159 1.524 . S
C1161 C1158 1.403 . S
C1161 C1162 1.392 . S
C1161 C1165 1.495 . S
C1162 C1161 1.392 . S
C1162 C1163 1.385 . S
C1162 C1164 1.478 . S
C1163 H1157 0.930 . S
C1163 C1159 1.400 . S
C1163 C1162 1.385 . S
C1164 C1162 1.478 . S
C1164 C1166 1.381 . S
C1164 C1170 1.383 . S
C1165 C1161 1.495 . S
C1165 H1171 0.959 . S
C1165 H1172 0.961 . S
C1165 H1173 0.960 . S
C1166 C1164 1.381 . S
C1166 C1167 1.394 . S
C1166 H1174 0.930 . S
C1167 C1166 1.394 . S
C1167 C1168 1.383 . S
C1167 H1175 0.929 . S
C1168 C1167 1.383 . S
C1168 C1169 1.377 . S
C1169 H1153 0.930 . S
C1169 C1168 1.377 . S
C1169 C1170 1.379 . S
C1170 H1154 0.931 . S
C1170 C1164 1.383 . S
C1170 C1169 1.379 . S
H1171 C1165 0.959 . S
H1172 C1165 0.961 . S
H1173 C1165 0.960 . S
H1174 C1166 0.930 . S
H1175 C1167 0.929 . S
H1176 C1184 0.929 . S
H1177 C1186 0.930 . S
H1178 C1188 0.930 . S
H1179 C1191 0.929 . S
H1180 C1194 0.930 . S
H1181 C1196 0.960 . S
H1182 C1196 0.960 . S
H1183 C1196 0.960 . S
C1184 H1176 0.929 . S
C1184 C1185 1.377 . S
C1184 C1186 1.384 . S
C1185 C1184 1.377 . S
C1185 C1191 1.390 . S
C1186 H1177 0.930 . S
C1186 C1184 1.384 . S
C1186 C1187 1.372 . S
C1187 C1186 1.372 . S
C1187 C1188 1.400 . S
C1187 C1192 1.490 . S
C1188 H1178 0.930 . S
C1188 C1187 1.400 . S
C1188 C1191 1.386 . S
H1189 C1205 0.930 . S
H1190 C1206 0.931 . S
C1191 H1179 0.929 . S
C1191 C1185 1.390 . S
C1191 C1188 1.386 . S
C1192 C1187 1.490 . S
C1192 C1194 1.395 . S
C1192 C1195 1.403 . S
H1193 C1199 0.930 . S
C1194 H1180 0.930 . S
C1194 C1192 1.395 . S
C1194 C1197 1.403 . S
C1195 C1192 1.403 . S
C1195 C1196 1.524 . S
C1195 C1199 1.400 . S
C1196 H1181 0.960 . S
C1196 H1182 0.960 . S
C1196 H1183 0.960 . S
C1196 C1195 1.524 . S
C1197 C1194 1.403 . S
C1197 C1198 1.392 . S
C1197 C1201 1.495 . S
C1198 C1197 1.392 . S
C1198 C1199 1.385 . S
C1198 C1200 1.478 . S
C1199 H1193 0.930 . S
C1199 C1195 1.400 . S
C1199 C1198 1.385 . S
C1200 C1198 1.478 . S
C1200 C1202 1.381 . S
C1200 C1206 1.383 . S
C1201 C1197 1.495 . S
C1201 H1207 0.959 . S
C1201 H1208 0.961 . S
C1201 H1209 0.960 . S
C1202 C1200 1.381 . S
C1202 C1203 1.394 . S
C1202 H1210 0.930 . S
C1203 C1202 1.394 . S
C1203 C1204 1.383 . S
C1203 H1211 0.929 . S
C1204 C1203 1.383 . S
C1204 C1205 1.377 . S
C1205 H1189 0.930 . S
C1205 C1204 1.377 . S
C1205 C1206 1.379 . S
C1206 H1190 0.931 . S
C1206 C1200 1.383 . S
C1206 C1205 1.379 . S
H1207 C1201 0.959 . S
H1208 C1201 0.961 . S
H1209 C1201 0.960 . S
H1210 C1202 0.930 . S
H1211 C1203 0.929 . S
H1212 C1220 0.929 . S
H1213 C1222 0.930 . S
H1214 C1224 0.930 . S
H1215 C1227 0.929 . S
H1216 C1230 0.930 . S
H1217 C1232 0.960 . S
H1218 C1232 0.960 . S
H1219 C1232 0.960 . S
C1220 H1212 0.929 . S
C1220 C1221 1.377 . S
C1220 C1222 1.384 . S
C1221 C1220 1.377 . S
C1221 C1227 1.390 . S
C1222 H1213 0.930 . S
C1222 C1220 1.384 . S
C1222 C1223 1.372 . S
C1223 C1222 1.372 . S
C1223 C1224 1.400 . S
C1223 C1228 1.490 . S
C1224 H1214 0.930 . S
C1224 C1223 1.400 . S
C1224 C1227 1.386 . S
H1225 C1241 0.930 . S
H1226 C1242 0.931 . S
C1227 H1215 0.929 . S
C1227 C1221 1.390 . S
C1227 C1224 1.386 . S
C1228 C1223 1.490 . S
C1228 C1230 1.395 . S
C1228 C1231 1.403 . S
H1229 C1235 0.930 . S
C1230 H1216 0.930 . S
C1230 C1228 1.395 . S
C1230 C1233 1.403 . S
C1231 C1228 1.403 . S
C1231 C1232 1.524 . S
C1231 C1235 1.400 . S
C1232 H1217 0.960 . S
C1232 H1218 0.960 . S
C1232 H1219 0.960 . S
C1232 C1231 1.524 . S
C1233 C1230 1.403 . S
C1233 C1234 1.392 . S
C1233 C1237 1.495 . S
C1234 C1233 1.392 . S
C1234 C1235 1.385 . S
C1234 C1236 1.478 . S
C1235 H1229 0.930 . S
C1235 C1231 1.400 . S
C1235 C1234 1.385 . S
C1236 C1234 1.478 . S
C1236 C1238 1.381 . S
C1236 C1242 1.383 . S
C1237 C1233 1.495 . S
C1237 H1243 0.959 . S
C1237 H1244 0.961 . S
C1237 H1245 0.960 . S
C1238 C1236 1.381 . S
C1238 C1239 1.394 . S
C1238 H1246 0.930 . S
C1239 C1238 1.394 . S
C1239 C1240 1.383 . S
C1239 H1247 0.929 . S
C1240 C1239 1.383 . S
C1240 C1241 1.377 . S
C1241 H1225 0.930 . S
C1241 C1240 1.377 . S
C1241 C1242 1.379 . S
C1242 H1226 0.931 . S
C1242 C1236 1.383 . S
C1242 C1241 1.379 . S
H1243 C1237 0.959 . S
H1244 C1237 0.961 . S
H1245 C1237 0.960 . S
H1246 C1238 0.930 . S
H1247 C1239 0.929 . S
H1248 C1256 0.929 . S
H1249 C1258 0.930 . S
H1250 C1260 0.930 . S
H1251 C1263 0.929 . S
H1252 C1266 0.930 . S
H1253 C1268 0.960 . S
H1254 C1268 0.960 . S
H1255 C1268 0.960 . S
C1256 H1248 0.929 . S
C1256 C1257 1.377 . S
C1256 C1258 1.384 . S
C1257 C1256 1.377 . S
C1257 C1263 1.390 . S
C1258 H1249 0.930 . S
C1258 C1256 1.384 . S
C1258 C1259 1.372 . S
C1259 C1258 1.372 . S
C1259 C1260 1.400 . S
C1259 C1264 1.490 . S
C1260 H1250 0.930 . S
C1260 C1259 1.400 . S
C1260 C1263 1.386 . S
H1261 C1277 0.930 . S
H1262 C1278 0.931 . S
C1263 H1251 0.929 . S
C1263 C1257 1.390 . S
C1263 C1260 1.386 . S
C1264 C1259 1.490 . S
C1264 C1266 1.395 . S
C1264 C1267 1.403 . S
H1265 C1271 0.930 . S
C1266 H1252 0.930 . S
C1266 C1264 1.395 . S
C1266 C1269 1.403 . S
C1267 C1264 1.403 . S
C1267 C1268 1.524 . S
C1267 C1271 1.400 . S
C1268 H1253 0.960 . S
C1268 H1254 0.960 . S
C1268 H1255 0.960 . S
C1268 C1267 1.524 . S
C1269 C1266 1.403 . S
C1269 C1270 1.392 . S
C1269 C1273 1.495 . S
C1270 C1269 1.392 . S
C1270 C1271 1.385 . S
C1270 C1272 1.478 . S
C1271 H1265 0.930 . S
C1271 C1267 1.400 . S
C1271 C1270 1.385 . S
C1272 C1270 1.478 . S
C1272 C1274 1.381 . S
C1272 C1278 1.383 . S
C1273 C1269 1.495 . S
C1273 H1279 0.959 . S
C1273 H1280 0.961 . S
C1273 H1281 0.960 . S
C1274 C1272 1.381 . S
C1274 C1275 1.394 . S
C1274 H1282 0.930 . S
C1275 C1274 1.394 . S
C1275 C1276 1.383 . S
C1275 H1283 0.929 . S
C1276 C1275 1.383 . S
C1276 C1277 1.377 . S
C1277 H1261 0.930 . S
C1277 C1276 1.377 . S
C1277 C1278 1.379 . S
C1278 H1262 0.931 . S
C1278 C1272 1.383 . S
C1278 C1277 1.379 . S
H1279 C1273 0.959 . S
H1280 C1273 0.961 . S
H1281 C1273 0.960 . S
H1282 C1274 0.930 . S
H1283 C1275 0.929 . S
H1284 C1292 0.929 . S
H1285 C1294 0.930 . S
H1286 C1296 0.930 . S
H1287 C1299 0.929 . S
H1288 C1302 0.930 . S
H1289 C1304 0.960 . S
H1290 C1304 0.960 . S
H1291 C1304 0.960 . S
C1292 H1284 0.929 . S
C1292 C1293 1.377 . S
C1292 C1294 1.384 . S
C1293 C1292 1.377 . S
C1293 C1299 1.390 . S
C1294 H1285 0.930 . S
C1294 C1292 1.384 . S
C1294 C1295 1.372 . S
C1295 C1294 1.372 . S
C1295 C1296 1.400 . S
C1295 C1300 1.490 . S
C1296 H1286 0.930 . S
C1296 C1295 1.400 . S
C1296 C1299 1.386 . S
H1297 C1313 0.930 . S
H1298 C1314 0.931 . S
C1299 H1287 0.929 . S
C1299 C1293 1.390 . S
C1299 C1296 1.386 . S
C1300 C1295 1.490 . S
C1300 C1302 1.395 . S
C1300 C1303 1.403 . S
H1301 C1307 0.930 . S
C1302 H1288 0.930 . S
C1302 C1300 1.395 . S
C1302 C1305 1.403 . S
C1303 C1300 1.403 . S
C1303 C1304 1.524 . S
C1303 C1307 1.400 . S
C1304 H1289 0.960 . S
C1304 H1290 0.960 . S
C1304 H1291 0.960 . S
C1304 C1303 1.524 . S
C1305 C1302 1.403 . S
C1305 C1306 1.392 . S
C1305 C1309 1.495 . S
C1306 C1305 1.392 . S
C1306 C1307 1.385 . S
C1306 C1308 1.478 . S
C1307 H1301 0.930 . S
C1307 C1303 1.400 . S
C1307 C1306 1.385 . S
C1308 C1306 1.478 . S
C1308 C1310 1.381 . S
C1308 C1314 1.383 . S
C1309 C1305 1.495 . S
C1309 H1315 0.959 . S
C1309 H1316 0.961 . S
C1309 H1317 0.960 . S
C1310 C1308 1.381 . S
C1310 C1311 1.394 . S
C1310 H1318 0.930 . S
C1311 C1310 1.394 . S
C1311 C1312 1.383 . S
C1311 H1319 0.929 . S
C1312 C1311 1.383 . S
C1312 C1313 1.377 . S
C1313 H1297 0.930 . S
C1313 C1312 1.377 . S
C1313 C1314 1.379 . S
C1314 H1298 0.931 . S
C1314 C1308 1.383 . S
C1314 C1313 1.379 . S
H1315 C1309 0.959 . S
H1316 C1309 0.961 . S
H1317 C1309 0.960 . S
H1318 C1310 0.930 . S
H1319 C1311 0.929 . S
H1320 C1328 0.929 . S
H1321 C1330 0.930 . S
H1322 C1332 0.930 . S
H1323 C1335 0.929 . S
H1324 C1338 0.930 . S
H1325 C1340 0.960 . S
H1326 C1340 0.960 . S
H1327 C1340 0.960 . S
C1328 H1320 0.929 . S
C1328 C1329 1.377 . S
C1328 C1330 1.384 . S
C1329 C1328 1.377 . S
C1329 C1335 1.390 . S
C1330 H1321 0.930 . S
C1330 C1328 1.384 . S
C1330 C1331 1.372 . S
C1331 C1330 1.372 . S
C1331 C1332 1.400 . S
C1331 C1336 1.490 . S
C1332 H1322 0.930 . S
C1332 C1331 1.400 . S
C1332 C1335 1.386 . S
H1333 C1349 0.930 . S
H1334 C1350 0.931 . S
C1335 H1323 0.929 . S
C1335 C1329 1.390 . S
C1335 C1332 1.386 . S
C1336 C1331 1.490 . S
C1336 C1338 1.395 . S
C1336 C1339 1.403 . S
H1337 C1343 0.930 . S
C1338 H1324 0.930 . S
C1338 C1336 1.395 . S
C1338 C1341 1.403 . S
C1339 C1336 1.403 . S
C1339 C1340 1.524 . S
C1339 C1343 1.400 . S
C1340 H1325 0.960 . S
C1340 H1326 0.960 . S
C1340 H1327 0.960 . S
C1340 C1339 1.524 . S
C1341 C1338 1.403 . S
C1341 C1342 1.392 . S
C1341 C1345 1.495 . S
C1342 C1341 1.392 . S
C1342 C1343 1.385 . S
C1342 C1344 1.478 . S
C1343 H1337 0.930 . S
C1343 C1339 1.400 . S
C1343 C1342 1.385 . S
C1344 C1342 1.478 . S
C1344 C1346 1.381 . S
C1344 C1350 1.383 . S
C1345 C1341 1.495 . S
C1345 H1351 0.959 . S
C1345 H1352 0.961 . S
C1345 H1353 0.960 . S
C1346 C1344 1.381 . S
C1346 C1347 1.394 . S
C1346 H1354 0.930 . S
C1347 C1346 1.394 . S
C1347 C1348 1.383 . S
C1347 H1355 0.929 . S
C1348 C1347 1.383 . S
C1348 C1349 1.377 . S
C1349 H1333 0.930 . S
C1349 C1348 1.377 . S
C1349 C1350 1.379 . S
C1350 H1334 0.931 . S
C1350 C1344 1.383 . S
C1350 C1349 1.379 . S
H1351 C1345 0.959 . S
H1352 C1345 0.961 . S
H1353 C1345 0.960 . S
H1354 C1346 0.930 . S
H1355 C1347 0.929 . S
H1356 C1364 0.929 . S
H1357 C1366 0.930 . S
H1358 C1368 0.930 . S
H1359 C1371 0.929 . S
H1360 C1374 0.930 . S
H1361 C1376 0.960 . S
H1362 C1376 0.960 . S
H1363 C1376 0.960 . S
C1364 H1356 0.929 . S
C1364 C1365 1.377 . S
C1364 C1366 1.384 . S
C1365 C1364 1.377 . S
C1365 C1371 1.390 . S
C1366 H1357 0.930 . S
C1366 C1364 1.384 . S
C1366 C1367 1.372 . S
C1367 C1366 1.372 . S
C1367 C1368 1.400 . S
C1367 C1372 1.490 . S
C1368 H1358 0.930 . S
C1368 C1367 1.400 . S
C1368 C1371 1.386 . S
H1369 C1385 0.930 . S
H1370 C1386 0.931 . S
C1371 H1359 0.929 . S
C1371 C1365 1.390 . S
C1371 C1368 1.386 . S
C1372 C1367 1.490 . S
C1372 C1374 1.395 . S
C1372 C1375 1.403 . S
H1373 C1379 0.930 . S
C1374 H1360 0.930 . S
C1374 C1372 1.395 . S
C1374 C1377 1.403 . S
C1375 C1372 1.403 . S
C1375 C1376 1.524 . S
C1375 C1379 1.400 . S
C1376 H1361 0.960 . S
C1376 H1362 0.960 . S
C1376 H1363 0.960 . S
C1376 C1375 1.524 . S
C1377 C1374 1.403 . S
C1377 C1378 1.392 . S
C1377 C1381 1.495 . S
C1378 C1377 1.392 . S
C1378 C1379 1.385 . S
C1378 C1380 1.478 . S
C1379 H1373 0.930 . S
C1379 C1375 1.400 . S
C1379 C1378 1.385 . S
C1380 C1378 1.478 . S
C1380 C1382 1.381 . S
C1380 C1386 1.383 . S
C1381 C1377 1.495 . S
C1381 H1387 0.959 . S
C1381 H1388 0.961 . S
C1381 H1389 0.960 . S
C1382 C1380 1.381 . S
C1382 C1383 1.394 . S
C1382 H1390 0.930 . S
C1383 C1382 1.394 . S
C1383 C1384 1.383 . S
C1383 H1391 0.929 . S
C1384 C1383 1.383 . S
C1384 C1385 1.377 . S
C1385 H1369 0.930 . S
C1385 C1384 1.377 . S
C1385 C1386 1.379 . S
C1386 H1370 0.931 . S
C1386 C1380 1.383 . S
C1386 C1385 1.379 . S
H1387 C1381 0.959 . S
H1388 C1381 0.961 . S
H1389 C1381 0.960 . S
H1390 C1382 0.930 . S
H1391 C1383 0.929 . S
H1392 C1400 0.929 . S
H1393 C1402 0.930 . S
H1394 C1404 0.930 . S
H1395 C1407 0.929 . S
H1396 C1410 0.930 . S
H1397 C1412 0.960 . S
H1398 C1412 0.960 . S
H1399 C1412 0.960 . S
C1400 H1392 0.929 . S
C1400 C1401 1.377 . S
C1400 C1402 1.384 . S
C1401 C1400 1.377 . S
C1401 C1407 1.390 . S
C1402 H1393 0.930 . S
C1402 C1400 1.384 . S
C1402 C1403 1.372 . S
C1403 C1402 1.372 . S
C1403 C1404 1.400 . S
C1403 C1408 1.490 . S
C1404 H1394 0.930 . S
C1404 C1403 1.400 . S
C1404 C1407 1.386 . S
H1405 C1421 0.930 . S
H1406 C1422 0.931 . S
C1407 H1395 0.929 . S
C1407 C1401 1.390 . S
C1407 C1404 1.386 . S
C1408 C1403 1.490 . S
C1408 C1410 1.395 . S
C1408 C1411 1.403 . S
H1409 C1415 0.930 . S
C1410 H1396 0.930 . S
C1410 C1408 1.395 . S
C1410 C1413 1.403 . S
C1411 C1408 1.403 . S
C1411 C1412 1.524 . S
C1411 C1415 1.400 . S
C1412 H1397 0.960 . S
C1412 H1398 0.960 . S
C1412 H1399 0.960 . S
C1412 C1411 1.524 . S
C1413 C1410 1.403 . S
C1413 C1414 1.392 . S
C1413 C1417 1.495 . S
C1414 C1413 1.392 . S
C1414 C1415 1.385 . S
C1414 C1416 1.478 . S
C1415 H1409 0.930 . S
C1415 C1411 1.400 . S
C1415 C1414 1.385 . S
C1416 C1414 1.478 . S
C1416 C1418 1.381 . S
C1416 C1422 1.383 . S
C1417 C1413 1.495 . S
C1417 H1423 0.959 . S
C1417 H1424 0.961 . S
C1417 H1425 0.960 . S
C1418 C1416 1.381 . S
C1418 C1419 1.394 . S
C1418 H1426 0.930 . S
C1419 C1418 1.394 . S
C1419 C1420 1.383 . S
C1419 H1427 0.929 . S
C1420 C1419 1.383 . S
C1420 C1421 1.377 . S
C1421 H1405 0.930 . S
C1421 C1420 1.377 . S
C1421 C1422 1.379 . S
C1422 H1406 0.931 . S
C1422 C1416 1.383 . S
C1422 C1421 1.379 . S
H1423 C1417 0.959 . S
H1424 C1417 0.961 . S
H1425 C1417 0.960 . S
H1426 C1418 0.930 . S
H1427 C1419 0.929 . S
C592 C492 1.508 . S
C573 C31 1.483 . S
C628 C495 1.508 . S
C609 C61 1.485 . S
C664 C493 1.509 . S
C645 C121 1.487 . S
C700 C494 1.499 . S
C681 C211 1.479 . S
C736 C509 1.503 . S
C717 C1 1.483 . S
C772 C523 1.505 . S
C753 C91 1.488 . S
C789 C151 1.477 . S
C808 C549 1.502 . S
C844 C563 1.510 . S
C825 C181 1.484 . S
C880 C508 1.506 . S
C861 C80 1.484 . S
C897 C140 1.482 . S
C916 C522 1.508 . S
C952 C548 1.504 . S
C933 C200 1.479 . S
C988 C562 1.504 . S
C969 C20 1.484 . S
C1005 C271 1.486 . S
C1024 C507 1.509 . S
C1060 C480 1.509 . S
C1041 C331 1.483 . S
C1077 C380 1.487 . S
C1096 C506 1.498 . S
C1113 C421 1.485 . S
C1132 C481 1.496 . S
C1168 C536 1.496 . S
C1149 C241 1.485 . S
C1204 C550 1.499 . S
C1185 C320 1.477 . S
C1240 C520 1.496 . S
C1221 C361 1.481 . S
C1257 C440 1.491 . S
C1276 C534 1.496 . S
C1312 C537 1.506 . S
C1293 C301 1.478 . S
C1348 C551 1.509 . S
C1329 C391 1.492 . S
C1384 C521 1.498 . S
C1365 C451 1.487 . S
C1401 C260 1.483 . S
C1420 C535 1.510 . S
