# Generated by pormake.
# Topology nom, (4,4)-cn, num edge types: 1
# Building blocks:
#     Node 0, Type 0, BuildingBlock: GIZVER_clean_linker_0, # of connection points: 4
#     Node 1, Type 0, BuildingBlock: GIZVER_clean_linker_0, # of connection points: 4
#     Node 2, Type 0, BuildingBlock: GIZVER_clean_linker_0, # of connection points: 4
#     Node 3, Type 0, BuildingBlock: GIZVER_clean_linker_0, # of connection points: 4
#     Node 4, Type 0, BuildingBlock: GIZVER_clean_linker_0, # of connection points: 4
#     Node 5, Type 0, BuildingBlock: GIZVER_clean_linker_0, # of connection points: 4
#     Node 6, Type 1, BuildingBlock: CEKHIL_clean_sbu_0, # of connection points: 4
#     Node 7, Type 1, BuildingBlock: CEKHIL_clean_sbu_0, # of connection points: 4
#     Node 8, Type 1, BuildingBlock: CEKHIL_clean_sbu_0, # of connection points: 4
#     Node 9, Type 1, BuildingBlock: CEKHIL_clean_sbu_0, # of connection points: 4
#     Node 10, Type 1, BuildingBlock: CEKHIL_clean_sbu_0, # of connection points: 4
#     Node 11, Type 1, BuildingBlock: CEKHIL_clean_sbu_0, # of connection points: 4
#     Edge 12, Type (0, 1), BuildingBlock: TEMPAE_clean_linker_10, # of connection points: 2
#     Edge 13, Type (0, 1), BuildingBlock: TEMPAE_clean_linker_10, # of connection points: 2
#     Edge 14, Type (0, 1), BuildingBlock: TEMPAE_clean_linker_10, # of connection points: 2
#     Edge 15, Type (0, 1), BuildingBlock: TEMPAE_clean_linker_10, # of connection points: 2
#     Edge 16, Type (0, 1), BuildingBlock: TEMPAE_clean_linker_10, # of connection points: 2
#     Edge 17, Type (0, 1), BuildingBlock: TEMPAE_clean_linker_10, # of connection points: 2
#     Edge 18, Type (0, 1), BuildingBlock: TEMPAE_clean_linker_10, # of connection points: 2
#     Edge 19, Type (0, 1), BuildingBlock: TEMPAE_clean_linker_10, # of connection points: 2
#     Edge 20, Type (0, 1), BuildingBlock: TEMPAE_clean_linker_10, # of connection points: 2
#     Edge 21, Type (0, 1), BuildingBlock: TEMPAE_clean_linker_10, # of connection points: 2
#     Edge 22, Type (0, 1), BuildingBlock: TEMPAE_clean_linker_10, # of connection points: 2
#     Edge 23, Type (0, 1), BuildingBlock: TEMPAE_clean_linker_10, # of connection points: 2
#     Edge 24, Type (0, 1), BuildingBlock: TEMPAE_clean_linker_10, # of connection points: 2
#     Edge 25, Type (0, 1), BuildingBlock: TEMPAE_clean_linker_10, # of connection points: 2
#     Edge 26, Type (0, 1), BuildingBlock: TEMPAE_clean_linker_10, # of connection points: 2
#     Edge 27, Type (0, 1), BuildingBlock: TEMPAE_clean_linker_10, # of connection points: 2
#     Edge 28, Type (0, 1), BuildingBlock: TEMPAE_clean_linker_10, # of connection points: 2
#     Edge 29, Type (0, 1), BuildingBlock: TEMPAE_clean_linker_10, # of connection points: 2
#     Edge 30, Type (0, 1), BuildingBlock: TEMPAE_clean_linker_10, # of connection points: 2
#     Edge 31, Type (0, 1), BuildingBlock: TEMPAE_clean_linker_10, # of connection points: 2
#     Edge 32, Type (0, 1), BuildingBlock: TEMPAE_clean_linker_10, # of connection points: 2
#     Edge 33, Type (0, 1), BuildingBlock: TEMPAE_clean_linker_10, # of connection points: 2
#     Edge 34, Type (0, 1), BuildingBlock: TEMPAE_clean_linker_10, # of connection points: 2
#     Edge 35, Type (0, 1), BuildingBlock: TEMPAE_clean_linker_10, # of connection points: 2
# Relax obj value: 0.005
# Max RMSD: 0.071
# Mean RMSD: 0.052
data_MOF--net-nom--node1-CEKHIL_clean_sbu_0--node2-GIZVER_clean_linker_0--edge1-TEMPAE_clean_linker_10
_symmetry_space_group_name_H-M    P1
_symmetry_Int_Tables_number       1
_symmetry_cell_setting            triclinic
loop_
_symmetry_equiv_pos_as_xyz
'x, y, z'
_cell_length_a     47.43234
_cell_length_b     46.990739
_cell_length_c     46.629946
_cell_angle_alpha  89.974809
_cell_angle_beta   90.056279
_cell_angle_gamma 121.07613
loop_
_atom_site_label
_atom_site_type_symbol
_atom_site_fract_x
_atom_site_fract_y
_atom_site_fract_z
_atom_type_partial_charge
H0 H 0.96592 0.57428 0.36602 0.0
H1 H 1.00054 0.56579 0.28265 0.0
H2 H 0.90009 0.49869 0.30759 0.0
H3 H 0.01832 0.6177 0.3499 0.0
H4 H 0.02481 0.62129 0.31227 0.0
H5 H 0.04392 0.59416 0.38058 0.0
H6 H 0.13174 0.60221 0.34615 0.0
H7 H 0.06512 0.61133 0.29015 0.0
C8 C 0.96196 0.56119 0.3459 0.0
C9 C 0.93043 0.53439 0.33931 0.0
C10 C 0.98781 0.57236 0.3257 0.0
C11 C 0.98139 0.55642 0.2988 0.0
C12 C 0.94985 0.52942 0.29228 0.0
C13 C 0.92489 0.51846 0.31288 0.0
C14 C 0.02013 0.60451 0.33082 0.0
C15 C 0.0494 0.60002 0.33451 0.0
C16 C 0.05871 0.5958 0.36224 0.0
C17 C 0.08888 0.59748 0.36659 0.0
C18 C 0.10826 0.60051 0.34282 0.0
C19 C 0.10019 0.60594 0.31538 0.0
C20 C 0.07064 0.60554 0.31116 0.0
H21 H 0.41085 0.95368 0.52529 0.0
H22 H 0.44283 0.98481 0.43837 0.0
H23 H 0.42273 0.88938 0.46833 0.0
H24 H 0.407 0.99854 0.50487 0.0
H25 H 0.41226 0.00593 0.46735 0.0
H26 H 0.45523 0.02771 0.53826 0.0
H27 H 0.53007 0.12418 0.50856 0.0
H28 H 0.4616 0.05301 0.44845 0.0
C29 C 0.41895 0.94973 0.50474 0.0
C30 C 0.41773 0.91971 0.49953 0.0
C31 C 0.42863 0.97373 0.48283 0.0
C32 C 0.43679 0.96705 0.45556 0.0
C33 C 0.43491 0.93662 0.44999 0.0
C34 C 0.42613 0.91367 0.47246 0.0
C35 C 0.42423 1.00321 0.48684 0.0
C36 C 0.45615 0.03558 0.49237 0.0
C37 C 0.46796 0.04473 0.52072 0.0
C38 C 0.49424 0.07697 0.52663 0.0
C39 C 0.51002 0.09913 0.50398 0.0
C40 C 0.49845 0.09081 0.47591 0.0
C41 C 0.47153 0.05897 0.47001 0.0
H42 H 0.40116 0.4383 0.61366 0.0
H43 H 0.42841 0.43647 0.70184 0.0
H44 H 0.39935 0.50514 0.67512 0.0
H45 H 0.404 0.39173 0.63083 0.0
H46 H 0.40472 0.386 0.66835 0.0
H47 H 0.45478 0.41652 0.60226 0.0
H48 H 0.53307 0.40765 0.6389 0.0
H49 H 0.45436 0.39595 0.69244 0.0
C50 C 0.40653 0.44881 0.63506 0.0
C51 C 0.40017 0.47412 0.64183 0.0
C52 C 0.41759 0.43547 0.65653 0.0
C53 C 0.4219 0.44779 0.68484 0.0
C54 C 0.41489 0.47264 0.69158 0.0
C55 C 0.40519 0.48625 0.66981 0.0
C56 C 0.41807 0.40396 0.65071 0.0
C57 C 0.45232 0.40914 0.6482 0.0
C58 C 0.46717 0.41436 0.62094 0.0
C59 C 0.49582 0.41283 0.61736 0.0
C60 C 0.5111 0.40909 0.64158 0.0
C61 C 0.49617 0.40245 0.66852 0.0
C62 C 0.46684 0.40271 0.67191 0.0
H63 H 0.96375 0.39737 0.79539 0.0
H64 H 0.99636 0.43334 0.88129 0.0
H65 H 0.90434 0.41852 0.84986 0.0
H66 H 1.00687 0.39193 0.81682 0.0
H67 H 0.01344 0.39765 0.85443 0.0
H68 H 0.03708 0.44156 0.78343 0.0
H69 H 0.13531 0.5111 0.81226 0.0
H70 H 0.06343 0.44412 0.87256 0.0
C71 C 0.96082 0.40739 0.81534 0.0
C72 C 0.93231 0.40887 0.81976 0.0
C73 C 0.98456 0.41698 0.83733 0.0
C74 C 0.97903 0.42756 0.86391 0.0
C75 C 0.95009 0.42831 0.86873 0.0
C76 C 0.92755 0.41982 0.84615 0.0
C77 C 0.01225 0.40998 0.83446 0.0
C78 C 0.0456 0.44077 0.829 0.0
C79 C 0.05469 0.45298 0.80076 0.0
C80 C 0.08728 0.47785 0.7946 0.0
C81 C 0.11008 0.49193 0.81698 0.0
C82 C 0.10183 0.47998 0.84496 0.0
C83 C 0.0695 0.45439 0.85109 0.0
H84 H 0.62268 0.0658 0.02476 0.0
H85 H 0.58986 0.03253 0.9383 0.0
H86 H 0.6114 0.12917 0.96605 0.0
H87 H 0.62265 0.018 0.00698 0.0
H88 H 0.62129 0.01231 0.96916 0.0
H89 H 0.56661 0.99396 0.03376 0.0
H90 H 0.49709 0.89541 0.00363 0.0
H91 H 0.5773 0.96214 0.94972 0.0
C92 C 0.61469 0.06938 0.00399 0.0
C93 C 0.61634 0.09949 -0.00197 0.0
C94 C 0.60445 0.04468 0.98261 0.0
C95 C 0.59633 0.05082 0.95511 0.0
C96 C 0.59854 0.08126 0.94884 0.0
C97 C 0.60786 0.10492 0.97076 0.0
C98 C 0.6076 0.01456 0.98753 0.0
C99 C 0.57476 0.9825 0.99078 0.0
C100 C 0.55736 0.97547 0.01686 0.0
C101 C 0.52905 0.94412 0.02162 0.0
C102 C 0.51796 0.92019 -0.00021 0.0
C103 C 0.53502 0.92649 0.97396 0.0
C104 C 0.56343 0.95768 0.96937 0.0
H105 H 0.62992 0.5798 0.11375 0.0
H106 H 0.60288 0.57615 0.20267 0.0
H107 H 0.62261 0.5032 0.16879 0.0
H108 H 0.63371 0.62817 0.13702 0.0
H109 H 0.62575 0.62765 0.17427 0.0
H110 H 0.58537 0.60085 0.1019 0.0
H111 H 0.51031 0.6218 0.12487 0.0
H112 H 0.57683 0.62585 0.1893 0.0
C113 C 0.62308 0.56711 0.13425 0.0
C114 C 0.626 0.5391 0.13847 0.0
C115 C 0.61337 0.57997 0.15714 0.0
C116 C 0.60783 0.56503 0.18448 0.0
C117 C 0.61199 0.53783 0.18884 0.0
C118 C 0.61922 0.52411 0.16541 0.0
C119 C 0.61567 0.61324 0.15408 0.0
C120 C 0.58321 0.61069 0.14697 0.0
C121 C 0.57201 0.60542 0.11831 0.0
C122 C 0.54581 0.60962 0.11037 0.0
C123 C 0.52976 0.61741 0.13128 0.0
C124 C 0.54074 0.62334 0.15965 0.0
C125 C 0.56727 0.61964 0.16764 0.0
Co126 Co 0.63836 0.37978 0.39945 0.0
O127 O 0.67581 0.3861 0.37765 0.0
O128 O 0.67823 0.41935 0.41231 0.0
C129 C 0.61648 0.32477 0.40785 0.0
O130 O 0.60626 0.38143 0.42749 0.0
Co131 Co 0.56637 0.33245 0.37939 0.0
O132 O 0.55396 0.34286 0.41685 0.0
C133 C 0.60713 0.39745 0.35108 0.0
C134 C 0.6937 0.41238 0.39318 0.0
C135 C 0.57517 0.36609 0.43281 0.0
O136 O 0.62972 0.40631 0.37029 0.0
O137 O 0.58178 0.36812 0.34953 0.0
O138 O 0.64021 0.3468 0.42384 0.0
O139 O 0.60852 0.33646 0.38633 0.0
Co140 Co 0.27005 0.6315 0.58044 0.0
O141 O 0.30207 0.62586 0.6013 0.0
O142 O 0.26964 0.59214 0.56721 0.0
C143 C 0.30332 0.6865 0.57134 0.0
O144 O 0.23505 0.62926 0.5535 0.0
Co145 Co 0.24651 0.6784 0.60218 0.0
O146 O 0.22203 0.66743 0.56539 0.0
C147 C 0.22263 0.61365 0.63032 0.0
C148 C 0.29287 0.59952 0.58581 0.0
C149 C 0.21917 0.64433 0.54907 0.0
O150 O 0.2354 0.60486 0.61039 0.0
O151 O 0.22718 0.64291 0.6323 0.0
O152 O 0.30447 0.66453 0.55526 0.0
O153 O 0.2844 0.67479 0.59346 0.0
Co154 Co 0.64687 0.26842 0.73706 0.0
O155 O 0.64271 0.30101 0.71507 0.0
O156 O 0.60846 0.2696 0.74929 0.0
C157 C 0.70147 0.30099 0.74661 0.0
O158 O 0.64268 0.23302 0.76485 0.0
Co159 Co 0.69228 0.24198 0.71862 0.0
O160 O 0.68252 0.22136 0.75734 0.0
C161 C 0.62858 0.2182 0.68909 0.0
C162 C 0.61661 0.29275 0.73023 0.0
C163 C 0.65832 0.21838 0.7717 0.0
O164 O 0.62028 0.23301 0.70752 0.0
O165 O 0.65705 0.22131 0.68847 0.0
O166 O 0.67993 0.30328 0.76208 0.0
O167 O 0.68967 0.28122 0.72491 0.0
Co168 Co 0.39337 0.63588 0.89994 0.0
O169 O 0.355 0.62966 0.8797 0.0
O170 O 0.35385 0.59747 0.91483 0.0
C171 C 0.41735 0.69136 0.90743 0.0
O172 O 0.42682 0.63453 0.92649 0.0
Co173 Co 0.46386 0.68072 0.8753 0.0
O174 O 0.47852 0.66947 0.91119 0.0
C175 C 0.41972 0.61495 0.84989 0.0
C176 C 0.33767 0.60416 0.8962 0.0
C177 C 0.45824 0.64826 0.92906 0.0
O178 O 0.39925 0.60743 0.87075 0.0
O179 O 0.44492 0.64402 0.84624 0.0
O180 O 0.39399 0.67021 0.92418 0.0
O181 O 0.42322 0.67854 0.88543 0.0
Co182 Co 0.76267 0.38835 0.07856 0.0
O183 O 0.73134 0.39382 0.10092 0.0
O184 O 0.7624 0.42753 0.06624 0.0
C185 C 0.72883 0.3333 0.06967 0.0
O186 O 0.79678 0.39165 0.05004 0.0
Co187 Co 0.78779 0.34107 0.09458 0.0
O188 O 0.80487 0.34881 0.05481 0.0
C189 C 0.81751 0.4077 0.12194 0.0
C190 C 0.73973 0.42 0.08537 0.0
C191 C 0.80915 0.37438 0.04152 0.0
O192 O 0.79864 0.41477 0.1076 0.0
O193 O 0.81607 0.37977 0.12031 0.0
O194 O 0.72712 0.35536 0.05417 0.0
O195 O 0.74923 0.34488 0.09087 0.0
Co196 Co 0.3841 0.75261 0.2323 0.0
O197 O 0.38825 0.72135 0.20821 0.0
O198 O 0.42296 0.75137 0.24268 0.0
C199 C 0.32973 0.71865 0.24178 0.0
O200 O 0.38886 0.78637 0.26236 0.0
Co201 Co 0.33807 0.77972 0.21987 0.0
O202 O 0.3469 0.79552 0.26012 0.0
C203 C 0.40276 0.80911 0.19035 0.0
C204 C 0.41466 0.7291 0.22277 0.0
C205 C 0.37244 0.79898 0.27239 0.0
O206 O 0.40982 0.78959 0.20379 0.0
O207 O 0.3754 0.80812 0.19316 0.0
O208 O 0.35173 0.71618 0.2564 0.0
O209 O 0.34093 0.74008 0.2212 0.0
C210 C 0.1392 0.59993 0.28376 0.0
C211 C 0.12691 0.61953 0.29384 0.0
C212 C 0.17069 0.61459 0.27137 0.0
C213 C 0.19071 0.64969 0.26998 0.0
C214 C 0.17752 0.66941 0.27854 0.0
C215 C 0.14562 0.65403 0.2901 0.0
C216 C 0.18336 0.59259 0.26168 0.0
C217 C 0.19809 0.70689 0.27794 0.0
C218 C 0.28354 0.68833 0.27681 0.0
C219 C 0.29421 0.69972 0.24888 0.0
C220 C 0.24991 0.67192 0.28391 0.0
C221 C 0.22632 0.66591 0.26234 0.0
C222 C 0.23697 0.67645 0.23389 0.0
C223 C 0.27081 0.69368 0.22761 0.0
C224 C 0.23969 0.66174 0.31465 0.0
C225 C 0.21264 0.66967 0.21013 0.0
H226 H 0.12497 0.57329 0.2872 0.0
H227 H 0.13645 0.66921 0.29861 0.0
H228 H 0.19604 0.60108 0.24069 0.0
H229 H 0.20158 0.594 0.27743 0.0
H230 H 0.16324 0.5662 0.25972 0.0
H231 H 0.18334 0.7185 0.28285 0.0
H232 H 0.21814 0.71557 0.29402 0.0
H233 H 0.2098 0.71577 0.25666 0.0
H234 H 0.30158 0.69312 0.29332 0.0
H235 H 0.27897 0.70222 0.2059 0.0
H236 H 0.2225 0.6345 0.31596 0.0
H237 H 0.22642 0.6738 0.32283 0.0
H238 H 0.26105 0.66858 0.32891 0.0
H239 H 0.19392 0.64274 0.20924 0.0
H240 H 0.22473 0.67764 0.18884 0.0
H241 H 0.19938 0.68294 0.21447 0.0
C242 C 0.49515 0.13606 0.45229 0.0
C243 C 0.51134 0.11834 0.45499 0.0
C244 C 0.51155 0.16858 0.44138 0.0
C245 C 0.54479 0.18347 0.43253 0.0
C246 C 0.56029 0.16451 0.43295 0.0
C247 C 0.54352 0.1323 0.44463 0.0
C248 C 0.49421 0.18797 0.44179 0.0
C249 C 0.59537 0.17907 0.42304 0.0
C250 C 0.58137 0.2656 0.39228 0.0
C251 C 0.59893 0.2887 0.41407 0.0
C252 C 0.56438 0.23124 0.39773 0.0
C253 C 0.56421 0.21973 0.42581 0.0
C254 C 0.58188 0.24301 0.44791 0.0
C255 C 0.59938 0.27719 0.44167 0.0
C256 C 0.54661 0.20728 0.37346 0.0
C257 C 0.58182 0.23183 0.4783 0.0
H258 H 0.47057 0.12554 0.46107 0.0
H259 H 0.55625 0.11882 0.44735 0.0
H260 H 0.50554 0.20763 0.45844 0.0
H261 H 0.49705 0.20047 0.42091 0.0
H262 H 0.46754 0.17192 0.44657 0.0
H263 H 0.60193 0.15969 0.42036 0.0
H264 H 0.59944 0.19239 0.40239 0.0
H265 H 0.61233 0.1974 0.43906 0.0
H266 H 0.58119 0.27439 0.37082 0.0
H267 H 0.61281 0.29496 0.45858 0.0
H268 H 0.51982 0.19259 0.37796 0.0
H269 H 0.55524 0.18944 0.37159 0.0
H270 H 0.55046 0.22016 0.35257 0.0
H271 H 0.55618 0.21721 0.48639 0.0
H272 H 0.59638 0.25305 0.49307 0.0
H273 H 0.59213 0.21536 0.47887 0.0
C274 C 0.34922 0.47147 0.62572 0.0
C275 C 0.38312 0.48504 0.62209 0.0
C276 C 0.33365 0.48815 0.61573 0.0
C277 C 0.35242 0.51903 0.60146 0.0
C278 C 0.38612 0.5313 0.59549 0.0
C279 C 0.40121 0.51436 0.60625 0.0
C280 C 0.29787 0.47428 0.62302 0.0
C281 C 0.40689 0.5637 0.57981 0.0
C282 C 0.30514 0.55647 0.56807 0.0
C283 C 0.30829 0.57908 0.58933 0.0
C284 C 0.32009 0.53736 0.57126 0.0
C285 C 0.33798 0.5404 0.59658 0.0
C286 C 0.34111 0.56316 0.61811 0.0
C287 C 0.32655 0.58241 0.61409 0.0
C288 C 0.31674 0.51394 0.54758 0.0
C289 C 0.35944 0.56685 0.6457 0.0
H290 H 0.33545 0.44922 0.63861 0.0
H291 H 0.42757 0.52523 0.60401 0.0
H292 H 0.29601 0.48985 0.63994 0.0
H293 H 0.28412 0.47496 0.60405 0.0
H294 H 0.28582 0.4483 0.63098 0.0
H295 H 0.43055 0.56676 0.5724 0.0
H296 H 0.39343 0.56534 0.56101 0.0
H297 H 0.41245 0.58467 0.59433 0.0
H298 H 0.2913 0.55396 0.54876 0.0
H299 H 0.32903 0.59975 0.63065 0.0
H300 H 0.30335 0.48799 0.55558 0.0
H301 H 0.34147 0.51955 0.54062 0.0
H302 H 0.30337 0.51557 0.52867 0.0
H303 H 0.34809 0.5426 0.65699 0.0
H304 H 0.35941 0.58544 0.6604 0.0
H305 H 0.38533 0.57453 0.64098 0.0
C306 C 0.89271 0.41346 0.78777 0.0
C307 C 0.90408 0.39381 0.79965 0.0
C308 C 0.86101 0.3989 0.77582 0.0
C309 C 0.83989 0.3639 0.77651 0.0
C310 C 0.85201 0.34392 0.78709 0.0
C311 C 0.88409 0.35915 0.79835 0.0
C312 C 0.84941 0.4211 0.76417 0.0
C313 C 0.83027 0.30659 0.7886 0.0
C314 C 0.7477 0.33005 0.78194 0.0
C315 C 0.73688 0.31785 0.75419 0.0
C316 C 0.78112 0.34495 0.78947 0.0
C317 C 0.80441 0.34839 0.76857 0.0
C318 C 0.79365 0.33668 0.74036 0.0
C319 C 0.75999 0.32122 0.73361 0.0
C320 C 0.79145 0.35661 0.81994 0.0
C321 C 0.8177 0.34051 0.71731 0.0
H322 H 0.90799 0.44028 0.78929 0.0
H323 H 0.8926 0.34402 0.80821 0.0
H324 H 0.83702 0.41174 0.74316 0.0
H325 H 0.83116 0.42102 0.77908 0.0
H326 H 0.87002 0.44716 0.76149 0.0
H327 H 0.8442 0.29449 0.79494 0.0
H328 H 0.81044 0.29988 0.80455 0.0
H329 H 0.81825 0.29638 0.76762 0.0
H330 H 0.72993 0.32734 0.79796 0.0
H331 H 0.75179 0.312 0.71205 0.0
H332 H 0.80964 0.38369 0.82022 0.0
H333 H 0.80362 0.34399 0.8294 0.0
H334 H 0.77029 0.35163 0.83374 0.0
H335 H 0.83707 0.36709 0.71497 0.0
H336 H 0.80554 0.33103 0.6962 0.0
H337 H 0.83016 0.32692 0.72349 0.0
C338 C 0.53975 0.87927 0.95656 0.0
C339 C 0.52463 0.89807 0.95432 0.0
C340 C 0.52437 0.8467 0.94573 0.0
C341 C 0.49326 0.83281 0.93212 0.0
C342 C 0.47922 0.85278 0.92782 0.0
C343 C 0.49489 0.88506 0.93932 0.0
C344 C 0.54009 0.82627 0.95108 0.0
C345 C 0.44644 0.83925 0.913 0.0
C346 C 0.4586 0.74996 0.89313 0.0
C347 C 0.43678 0.72751 0.91363 0.0
C348 C 0.47696 0.78432 0.89867 0.0
C349 C 0.47378 0.79651 0.92549 0.0
C350 C 0.45192 0.77388 0.94632 0.0
C351 C 0.43356 0.73974 0.94006 0.0
C352 C 0.49962 0.80761 0.87579 0.0
C353 C 0.44802 0.78574 0.97532 0.0
H354 H 0.56235 0.88909 0.96881 0.0
H355 H 0.48291 0.89942 0.93814 0.0
H356 H 0.52566 0.80707 0.9675 0.0
H357 H 0.53993 0.81314 0.93126 0.0
H358 H 0.56586 0.84171 0.9588 0.0
H359 H 0.44133 0.85919 0.90758 0.0
H360 H 0.44557 0.82598 0.89304 0.0
H361 H 0.42652 0.82107 0.92725 0.0
H362 H 0.46113 0.7407 0.8726 0.0
H363 H 0.41684 0.72255 0.95603 0.0
H364 H 0.52527 0.82164 0.88392 0.0
H365 H 0.49254 0.82608 0.87031 0.0
H366 H 0.49904 0.79427 0.85593 0.0
H367 H 0.47221 0.79942 0.98635 0.0
H368 H 0.43047 0.76495 0.98931 0.0
H369 H 0.4391 0.80325 0.97268 0.0
C370 C 0.62476 0.49699 0.10529 0.0
C371 C 0.64254 0.52856 0.11783 0.0
C372 C 0.64087 0.48085 0.09518 0.0
C373 C 0.67544 0.49629 0.09854 0.0
C374 C 0.69367 0.52927 0.10913 0.0
C375 C 0.67698 0.5451 0.11841 0.0
C376 C 0.62053 0.44614 0.08324 0.0
C377 C 0.73042 0.54658 0.11353 0.0
C378 C 0.70805 0.43889 0.11451 0.0
C379 C 0.72359 0.43974 0.08872 0.0
C380 C 0.6926 0.4574 0.11797 0.0
C381 C 0.69183 0.47656 0.09479 0.0
C382 C 0.70704 0.47708 0.06852 0.0
C383 C 0.72314 0.45905 0.06593 0.0
C384 C 0.6773 0.45664 0.14658 0.0
C385 C 0.706 0.49638 0.04308 0.0
H386 H 0.59808 0.4839 0.10542 0.0
H387 H 0.69064 0.56915 0.12882 0.0
H388 H 0.63262 0.44298 0.06417 0.0
H389 H 0.61822 0.42795 0.09965 0.0
H390 H 0.59539 0.44015 0.07716 0.0
H391 H 0.74144 0.57343 0.11832 0.0
H392 H 0.73569 0.53483 0.13177 0.0
H393 H 0.74265 0.54398 0.09431 0.0
H394 H 0.7084 0.4241 0.13221 0.0
H395 H 0.73481 0.45952 0.04582 0.0
H396 H 0.65049 0.4463 0.14394 0.0
H397 H 0.68812 0.48227 0.15506 0.0
H398 H 0.68096 0.44143 0.16271 0.0
H399 H 0.68005 0.4877 0.03744 0.0
H400 H 0.71841 0.49372 0.02396 0.0
H401 H 0.71803 0.52313 0.04855 0.0
C402 C 0.42086 0.87863 0.53106 0.0
C403 C 0.40232 0.89151 0.51982 0.0
C404 C 0.40537 0.84667 0.54316 0.0
C405 C 0.37054 0.82684 0.54321 0.0
C406 C 0.35179 0.84058 0.53337 0.0
C407 C 0.36797 0.8729 0.52197 0.0
C408 C 0.4263 0.83333 0.55406 0.0
C409 C 0.31466 0.82022 0.53263 0.0
C410 C 0.33278 0.73331 0.53643 0.0
C411 C 0.32104 0.72237 0.56424 0.0
C412 C 0.34878 0.76722 0.52933 0.0
C413 C 0.35382 0.79085 0.55074 0.0
C414 C 0.34254 0.77995 0.579 0.0
C415 C 0.32594 0.74581 0.58533 0.0
C416 C 0.35992 0.77772 0.4988 0.0
C417 C 0.34808 0.80435 0.60254 0.0
H418 H 0.44743 0.89287 0.52889 0.0
H419 H 0.35368 0.88261 0.51262 0.0
H420 H 0.41702 0.82078 0.57504 0.0
H421 H 0.42497 0.81459 0.53877 0.0
H422 H 0.45252 0.85327 0.55651 0.0
H423 H 0.30372 0.83548 0.5271 0.0
H424 H 0.30659 0.80021 0.5164 0.0
H425 H 0.30475 0.8081 0.55365 0.0
H426 H 0.3289 0.71528 0.52004 0.0
H427 H 0.31708 0.73748 0.60693 0.0
H428 H 0.38697 0.79498 0.49819 0.0
H429 H 0.34838 0.79129 0.49006 0.0
H430 H 0.35355 0.75624 0.48459 0.0
H431 H 0.37477 0.82286 0.60465 0.0
H432 H 0.33866 0.79196 0.62359 0.0
H433 H 0.3357 0.81822 0.59705 0.0
C434 C 0.53927 0.40665 0.70192 0.0
C435 C 0.50777 0.38754 0.68999 0.0
C436 C 0.55563 0.39144 0.7136 0.0
C437 C 0.54054 0.35639 0.71233 0.0
C438 C 0.50773 0.33699 0.70223 0.0
C439 C 0.49163 0.35283 0.69147 0.0
C440 C 0.59013 0.41307 0.72502 0.0
C441 C 0.49082 0.29967 0.6999 0.0
C442 C 0.59767 0.32321 0.69938 0.0
C443 C 0.59719 0.30904 0.72594 0.0
C444 C 0.57917 0.33842 0.69472 0.0
C445 C 0.56046 0.34048 0.71747 0.0
C446 C 0.56043 0.32679 0.74456 0.0
C447 C 0.57838 0.31076 0.74834 0.0
C448 C 0.57934 0.35194 0.66527 0.0
C449 C 0.54168 0.32936 0.76956 0.0
H450 H 0.552 0.4335 0.70029 0.0
H451 H 0.4676 0.33809 0.68156 0.0
H452 H 0.59368 0.40229 0.7449 0.0
H453 H 0.60804 0.41454 0.70891 0.0
H454 H 0.59583 0.4387 0.72963 0.0
H455 H 0.46413 0.28797 0.69521 0.0
H456 H 0.50233 0.29322 0.68233 0.0
H457 H 0.49381 0.28881 0.71995 0.0
H458 H 0.61205 0.32181 0.68197 0.0
H459 H 0.5782 0.30012 0.76902 0.0
H460 H 0.58947 0.3791 0.66651 0.0
H461 H 0.55379 0.34034 0.65699 0.0
H462 H 0.59421 0.34733 0.64965 0.0
H463 H 0.55005 0.35582 0.77369 0.0
H464 H 0.54495 0.31836 0.78947 0.0
H465 H 0.51505 0.31652 0.76443 0.0
C466 C 0.14777 0.47571 0.86489 0.0
C467 C 0.12942 0.49138 0.86546 0.0
C468 C 0.18057 0.49222 0.87444 0.0
C469 C 0.19521 0.52506 0.88519 0.0
C470 C 0.17562 0.53963 0.88847 0.0
C471 C 0.14305 0.52279 0.87814 0.0
C472 C 0.20048 0.47582 0.87008 0.0
C473 C 0.18989 0.5742 0.90048 0.0
C474 C 0.2818 0.56457 0.91683 0.0
C475 C 0.30127 0.58385 0.89374 0.0
C476 C 0.2472 0.54587 0.91472 0.0
C477 C 0.23177 0.54574 0.88864 0.0
C478 C 0.25143 0.56495 0.86519 0.0
C479 C 0.28582 0.58406 0.86817 0.0
C480 C 0.22713 0.52647 0.9404 0.0
C481 C 0.23617 0.56505 0.83676 0.0
H482 H 0.13747 0.45177 0.85438 0.0
H483 H 0.12911 0.5352 0.878 0.0
H484 H 0.21758 0.48784 0.8518 0.0
H485 H 0.21561 0.47893 0.88929 0.0
H486 H 0.18461 0.44887 0.86537 0.0
H487 H 0.17034 0.57935 0.90668 0.0
H488 H 0.20549 0.57781 0.91949 0.0
H489 H 0.20572 0.59267 0.88407 0.0
H490 H 0.2936 0.56456 0.93675 0.0
H491 H 0.30072 0.59879 0.85021 0.0
H492 H 0.21245 0.49961 0.93516 0.0
H493 H 0.20948 0.53437 0.94613 0.0
H494 H 0.24275 0.52989 0.95938 0.0
H495 H 0.22128 0.53931 0.82838 0.0
H496 H 0.25492 0.58059 0.82044 0.0
H497 H 0.21931 0.57461 0.83963 0.0
C498 C 0.61292 0.14014 0.02991 0.0
C499 C 0.63185 0.12818 0.01784 0.0
C500 C 0.62794 0.17224 0.04172 0.0
C501 C 0.66266 0.19315 0.04062 0.0
C502 C 0.6819 0.18045 0.02975 0.0
C503 C 0.66623 0.14799 0.01865 0.0
C504 C 0.60653 0.18447 0.05371 0.0
C505 C 0.7189 0.20195 0.02777 0.0
C506 C 0.69799 0.28649 0.03485 0.0
C507 C 0.7109 0.29744 0.06239 0.0
C508 C 0.68223 0.25263 0.02753 0.0
C509 C 0.67866 0.22904 0.04844 0.0
C510 C 0.69099 0.23993 0.07648 0.0
C511 C 0.70728 0.27401 0.08301 0.0
C512 C 0.66992 0.24215 -0.00276 0.0
C513 C 0.68706 0.21559 0.09954 0.0
H514 H 0.5863 0.12499 0.02871 0.0
H515 H 0.68077 0.13899 0.00861 0.0
H516 H 0.61632 0.19706 0.07461 0.0
H517 H 0.60664 0.20296 0.03883 0.0
H518 H 0.58066 0.16393 0.0567 0.0
H519 H 0.73043 0.18757 0.02111 0.0
H520 H 0.72555 0.22204 0.01189 0.0
H521 H 0.72949 0.21398 0.04869 0.0
H522 H 0.70087 0.3045 0.0188 0.0
H523 H 0.71703 0.28231 0.10441 0.0
H524 H 0.64302 0.22408 -0.00263 0.0
H525 H 0.6819 0.22951 0.98749 0.0
H526 H 0.67487 0.26354 0.98346 0.0
H527 H 0.66067 0.19629 0.10207 0.0
H528 H 0.69678 0.22788 0.12059 0.0
H529 H 0.70017 0.20268 0.09326 0.0
C530 C 0.49967 0.62088 0.19475 0.0
C531 C 0.52806 0.63974 0.17827 0.0
C532 C 0.48214 0.63519 0.2058 0.0
C533 C 0.49289 0.66885 0.19951 0.0
C534 C 0.52259 0.68832 0.18412 0.0
C535 C 0.53985 0.67355 0.17384 0.0
C536 C 0.45101 0.61372 0.2226 0.0
C537 C 0.5348 0.72409 0.17652 0.0
C538 C 0.42896 0.69445 0.19219 0.0
C539 C 0.43415 0.71307 0.21722 0.0
C540 C 0.44759 0.67959 0.18642 0.0
C541 C 0.47169 0.68291 0.20639 0.0
C542 C 0.47652 0.70105 0.23201 0.0
C543 C 0.45793 0.71616 0.237 0.0
C544 C 0.44193 0.66089 0.15862 0.0
C545 C 0.50153 0.70473 0.25404 0.0
H546 H 0.49019 0.59456 0.19762 0.0
H547 H 0.56141 0.68787 0.16048 0.0
H548 H 0.45029 0.62704 0.24197 0.0
H549 H 0.42937 0.60802 0.20921 0.0
H550 H 0.44868 0.5899 0.2293 0.0
H551 H 0.55966 0.73657 0.16662 0.0
H552 H 0.51747 0.72512 0.16115 0.0
H553 H 0.53571 0.73825 0.19587 0.0
H554 H 0.41067 0.69195 0.17681 0.0
H555 H 0.46191 0.73026 0.25652 0.0
H556 H 0.43533 0.63498 0.16307 0.0
H557 H 0.46493 0.6727 0.1458 0.0
H558 H 0.42205 0.66027 0.14551 0.0
H559 H 0.49694 0.6799 0.26031 0.0
H560 H 0.50097 0.7179 0.27361 0.0
H561 H 0.52661 0.71875 0.24471 0.0
C562 C 0.881 0.53745 0.35009 0.0
C563 C 0.90124 0.52496 0.35734 0.0
C564 C 0.8482 0.52167 0.35952 0.0
C565 C 0.83542 0.49277 0.37676 0.0
C566 C 0.85667 0.48172 0.38604 0.0
C567 C 0.8893 0.49774 0.37591 0.0
C568 C 0.82649 0.53417 0.3488 0.0
C569 C 0.84428 0.45139 0.40479 0.0
C570 C 0.74976 0.45815 0.40901 0.0
C571 C 0.72996 0.43305 0.38932 0.0
C572 C 0.78419 0.47746 0.40558 0.0
C573 C 0.79913 0.47182 0.38171 0.0
C574 C 0.7792 0.44652 0.36178 0.0
C575 C 0.74498 0.42738 0.36592 0.0
C576 C 0.80458 0.50388 0.42745 0.0
C577 C 0.79398 0.43984 0.33583 0.0
H578 H 0.89008 0.55802 0.33514 0.0
H579 H 0.90476 0.48767 0.38097 0.0
H580 H 0.80894 0.5165 0.33269 0.0
H581 H 0.81178 0.53561 0.36659 0.0
H582 H 0.84095 0.55905 0.33863 0.0
H583 H 0.86478 0.4493 0.41391 0.0
H584 H 0.82913 0.45198 0.42263 0.0
H585 H 0.82837 0.42877 0.39191 0.0
H586 H 0.73839 0.46258 0.42725 0.0
H587 H 0.72992 0.40808 0.35058 0.0
H588 H 0.81763 0.52864 0.41702 0.0
H589 H 0.82364 0.49947 0.43651 0.0
H590 H 0.7894 0.5045 0.44529 0.0
H591 H 0.80713 0.46259 0.32247 0.0
H592 H 0.77511 0.41934 0.32233 0.0
H593 H 0.81232 0.43327 0.34269 0.0
C594 C 0.08718 0.58089 0.4184 0.0
C595 C 0.10381 0.6025 0.39555 0.0
C596 C 0.10294 0.58516 0.44507 0.0
C597 C 0.1359 0.61167 0.44878 0.0
C598 C 0.15231 0.63399 0.42593 0.0
C599 C 0.13602 0.62926 0.39979 0.0
C600 C 0.08465 0.56105 0.46907 0.0
C601 C 0.18735 0.6627 0.42889 0.0
C602 C 0.17547 0.64704 0.52095 0.0
C603 C 0.19615 0.63408 0.52432 0.0
C604 C 0.15427 0.63842 0.49728 0.0
C605 C 0.15383 0.61647 0.47628 0.0
C606 C 0.17377 0.6024 0.47999 0.0
C607 C 0.19463 0.61131 0.50397 0.0
C608 C 0.13336 0.65391 0.49416 0.0
C609 C 0.17418 0.57908 0.45796 0.0
H610 H 0.06226 0.56029 0.41519 0.0
H611 H 0.14872 0.64652 0.38238 0.0
H612 H 0.0973 0.54751 0.47481 0.0
H613 H 0.08467 0.5747 0.48849 0.0
H614 H 0.05876 0.54264 0.46319 0.0
H615 H 0.1965 0.67781 0.40901 0.0
H616 H 0.18913 0.67914 0.44675 0.0
H617 H 0.20386 0.65322 0.43415 0.0
H618 H 0.17607 0.66434 0.53666 0.0
H619 H 0.21029 0.60095 0.50639 0.0
H620 H 0.10749 0.63458 0.4893 0.0
H621 H 0.14252 0.67163 0.47593 0.0
H622 H 0.13374 0.6675 0.51379 0.0
H623 H 0.14872 0.5589 0.45291 0.0
H624 H 0.18852 0.56777 0.4653 0.0
H625 H 0.18528 0.59286 0.43777 0.0
C626 C 0.51616 0.07711 0.57572 0.0
C627 C 0.50337 0.09016 0.55618 0.0
C628 C 0.53198 0.09468 0.60092 0.0
C629 C 0.53525 0.126 0.60623 0.0
C630 C 0.5198 0.13767 0.58768 0.0
C631 C 0.50381 0.11944 0.56305 0.0
C632 C 0.5474 0.08101 0.62062 0.0
C633 C 0.52285 0.17099 0.59223 0.0
C634 C 0.57089 0.17491 0.67541 0.0
C635 C 0.6041 0.19547 0.66791 0.0
C636 C 0.54821 0.15128 0.65592 0.0
C637 C 0.55893 0.14895 0.62814 0.0
C638 C 0.59237 0.17013 0.62042 0.0
C639 C 0.61457 0.19278 0.64052 0.0
C640 C 0.51295 0.1286 0.6651 0.0
C641 C 0.60469 0.1692 0.59076 0.0
H642 H 0.5157 0.05441 0.57044 0.0
H643 H 0.4935 0.12928 0.54802 0.0
H644 H 0.57442 0.09475 0.61718 0.0
H645 H 0.54301 0.08441 0.64339 0.0
H646 H 0.53766 0.05421 0.61661 0.0
H647 H 0.50605 0.17447 0.57801 0.0
H648 H 0.51747 0.17389 0.61481 0.0
H649 H 0.54851 0.19107 0.58765 0.0
H650 H 0.56288 0.17661 0.69677 0.0
H651 H 0.64024 0.20871 0.63468 0.0
H652 H 0.50612 0.1023 0.66277 0.0
H653 H 0.49621 0.13228 0.65105 0.0
H654 H 0.50874 0.13296 0.68769 0.0
H655 H 0.60035 0.14407 0.58626 0.0
H656 H 0.63138 0.18757 0.58815 0.0
H657 H 0.59091 0.17442 0.57443 0.0
C658 C 0.38381 0.47908 0.73111 0.0
C659 C 0.41336 0.48245 0.72142 0.0
C660 C 0.38306 0.49619 0.75538 0.0
C661 C 0.41257 0.51682 0.7706 0.0
C662 C 0.44181 0.51753 0.76263 0.0
C663 C 0.44193 0.50041 0.73789 0.0
C664 C 0.35141 0.49484 0.76283 0.0
C665 C 0.47358 0.53858 0.77876 0.0
C666 C 0.42325 0.59677 0.80069 0.0
C667 C 0.41539 0.58883 0.82966 0.0
C668 C 0.42213 0.5734 0.78135 0.0
C669 C 0.41388 0.54154 0.79138 0.0
C670 C 0.4059 0.53334 0.82067 0.0
C671 C 0.40631 0.557 0.83945 0.0
C672 C 0.4298 0.58289 0.75012 0.0
C673 C 0.39771 0.49993 0.83224 0.0
H674 H 0.36167 0.46498 0.71834 0.0
H675 H 0.46476 0.50303 0.73034 0.0
H676 H 0.34686 0.49186 0.78626 0.0
H677 H 0.35338 0.51856 0.75645 0.0
H678 H 0.32985 0.47418 0.75164 0.0
H679 H 0.49219 0.53181 0.77337 0.0
H680 H 0.48388 0.56511 0.7732 0.0
H681 H 0.46922 0.53603 0.80225 0.0
H682 H 0.43024 0.62139 0.79313 0.0
H683 H 0.40076 0.55106 0.86198 0.0
H684 H 0.40883 0.56508 0.73652 0.0
H685 H 0.4516 0.58163 0.74354 0.0
H686 H 0.43485 0.60834 0.74571 0.0
H687 H 0.37663 0.4797 0.82033 0.0
H688 H 0.39153 0.4972 0.85544 0.0
H689 H 0.41899 0.49656 0.82905 0.0
C690 C 0.9431 0.41474 0.92125 0.0
C691 C 0.93968 0.43177 0.89805 0.0
C692 C 0.92545 0.40979 0.94679 0.0
C693 C 0.90328 0.42141 0.94887 0.0
C694 C 0.90193 0.44108 0.92656 0.0
C695 C 0.92068 0.4466 0.90168 0.0
C696 C 0.92861 0.38985 0.97061 0.0
C697 C 0.87841 0.45368 0.92769 0.0
C698 C 0.82625 0.36741 0.99288 0.0
C699 C 0.83235 0.38685 0.01739 0.0
C700 C 0.84889 0.3788 0.97016 0.0
C701 C 0.87886 0.40974 0.97263 0.0
C702 C 0.88524 0.42921 -0.00235 0.0
C703 C 0.86157 0.41774 0.01957 0.0
C704 C 0.8407 0.35774 0.94348 0.0
C705 C 0.91731 0.46168 0.00155 0.0
H706 H 0.95761 0.40311 0.9188 0.0
H707 H 0.91855 0.46052 0.88414 0.0
H708 H 0.9299 0.40125 0.99178 0.0
H709 H 0.9066 0.36441 0.97073 0.0
H710 H 0.95078 0.38781 0.96795 0.0
H711 H 0.8831 0.47177 0.9103 0.0
H712 H 0.8528 0.43238 0.92547 0.0
H713 H 0.88009 0.46566 0.94861 0.0
H714 H 0.80358 0.34349 0.9914 0.0
H715 H 0.86631 0.43244 0.03886 0.0
H716 H 0.8588 0.34974 0.94061 0.0
H717 H 0.84233 0.37253 0.9243 0.0
H718 H 0.81564 0.33526 0.94434 0.0
H719 H 0.93814 0.45729 0.00059 0.0
H720 H 0.91843 0.47381 0.02231 0.0
H721 H 0.92087 0.47906 0.9839 0.0
C722 C 0.53159 0.93975 0.07512 0.0
C723 C 0.51283 0.93388 0.05015 0.0
C724 C 0.51661 0.92358 0.10098 0.0
C725 C 0.48225 0.90062 0.10162 0.0
C726 C 0.463 0.89633 0.07696 0.0
C727 C 0.47847 0.9134 0.05171 0.0
C728 C 0.5378 0.92966 0.1271 0.0
C729 C 0.42629 0.87206 0.07663 0.0
C730 C 0.44461 0.82592 0.15141 0.0
C731 C 0.42697 0.83408 0.17032 0.0
C732 C 0.46394 0.84804 0.12956 0.0
C733 C 0.46634 0.87933 0.12722 0.0
C734 C 0.45045 0.88854 0.14764 0.0
C735 C 0.43051 0.86557 0.16866 0.0
C736 C 0.48008 0.83707 0.10792 0.0
C737 C 0.45328 0.92202 0.14653 0.0
H738 H 0.55817 0.95541 0.07409 0.0
H739 H 0.4638 0.90925 0.0326 0.0
H740 H 0.52618 0.93297 0.14645 0.0
H741 H 0.54036 0.9078 0.1309 0.0
H742 H 0.5628 0.95192 0.12452 0.0
H743 H 0.41476 0.87247 0.056 0.0
H744 H 0.42127 0.8465 0.08024 0.0
H745 H 0.41424 0.87772 0.09424 0.0
H746 H 0.44179 0.80154 0.15268 0.0
H747 H 0.41719 0.87206 0.18359 0.0
H748 H 0.50661 0.85604 0.1059 0.0
H749 H 0.46867 0.83448 0.08654 0.0
H750 H 0.47757 0.81294 0.11375 0.0
H751 H 0.4793 0.94207 0.14346 0.0
H752 H 0.44372 0.92724 0.16633 0.0
H753 H 0.43905 0.92287 0.12799 0.0
C754 C 0.58783 0.51449 0.23738 0.0
C755 C 0.6139 0.52605 0.21789 0.0
C756 C 0.58761 0.49762 0.26245 0.0
C757 C 0.61388 0.49206 0.26771 0.0
C758 C 0.64132 0.50598 0.2491 0.0
C759 C 0.64113 0.52312 0.22466 0.0
C760 C 0.55833 0.48386 0.28225 0.0
C761 C 0.66967 0.50039 0.25355 0.0
C762 C 0.62477 0.45592 0.33707 0.0
C763 C 0.60957 0.42214 0.32998 0.0
C764 C 0.62522 0.47895 0.31748 0.0
C765 C 0.61089 0.46797 0.29 0.0
C766 C 0.59575 0.43391 0.28275 0.0
C767 C 0.59497 0.41142 0.30292 0.0
C768 C 0.641 0.51495 0.32613 0.0
C769 C 0.58097 0.42125 0.25342 0.0
H770 H 0.5669 0.51698 0.23228 0.0
H771 H 0.66168 0.53274 0.20986 0.0
H772 H 0.54273 0.4566 0.27914 0.0
H773 H 0.56642 0.48827 0.30499 0.0
H774 H 0.54305 0.49507 0.2781 0.0
H775 H 0.69049 0.51561 0.23876 0.0
H776 H 0.67884 0.50633 0.27592 0.0
H777 H 0.66108 0.4738 0.24982 0.0
H778 H 0.63567 0.46422 0.35813 0.0
H779 H 0.58328 0.38534 0.29731 0.0
H780 H 0.6234 0.52355 0.3229 0.0
H781 H 0.66267 0.53056 0.31235 0.0
H782 H 0.64912 0.5191 0.34888 0.0
H783 H 0.56174 0.42739 0.24894 0.0
H784 H 0.56979 0.39394 0.25134 0.0
H785 H 0.60026 0.43362 0.23674 0.0
C786 C 0.42074 0.93157 0.39751 0.0
C787 C 0.43641 0.92559 0.42028 0.0
C788 C 0.41448 0.91432 0.37142 0.0
C789 C 0.42319 0.88983 0.36833 0.0
C790 C 0.44127 0.88558 0.39032 0.0
C791 C 0.44833 0.90408 0.4157 0.0
C792 C 0.39645 0.92066 0.34796 0.0
C793 C 0.45066 0.85945 0.38819 0.0
C794 C 0.36622 0.81577 0.32153 0.0
C795 C 0.38571 0.82135 0.29728 0.0
C796 C 0.37846 0.83756 0.34503 0.0
C797 C 0.41042 0.86633 0.34364 0.0
C798 C 0.42995 0.87229 0.31886 0.0
C799 C 0.41755 0.84933 0.29617 0.0
C800 C 0.35724 0.82971 0.37141 0.0
C801 C 0.46354 0.90324 0.31606 0.0
H802 H 0.41134 0.94802 0.40062 0.0
H803 H 0.46132 0.89999 0.43282 0.0
H804 H 0.40758 0.92185 0.32674 0.0
H805 H 0.37046 0.89991 0.34724 0.0
H806 H 0.39668 0.94416 0.3515 0.0
H807 H 0.46738 0.86148 0.40581 0.0
H808 H 0.42807 0.83443 0.38917 0.0
H809 H 0.46281 0.86126 0.36741 0.0
H810 H 0.34158 0.79407 0.32224 0.0
H811 H 0.43235 0.85377 0.27711 0.0
H812 H 0.35139 0.84944 0.37495 0.0
H813 H 0.37079 0.82912 0.39061 0.0
H814 H 0.33378 0.80546 0.36966 0.0
H815 H 0.46137 0.92557 0.31799 0.0
H816 H 0.47544 0.90434 0.29525 0.0
H817 H 0.47985 0.90444 0.33366 0.0
C818 C 0.51289 0.38269 0.58448 0.0
C819 C 0.50664 0.40855 0.58856 0.0
C820 C 0.52417 0.37806 0.55822 0.0
C821 C 0.5289 0.39949 0.53504 0.0
C822 C 0.52198 0.42526 0.53867 0.0
C823 C 0.51081 0.42947 0.56546 0.0
C824 C 0.53107 0.35017 0.55537 0.0
C825 C 0.5266 0.44845 0.51433 0.0
C826 C 0.58591 0.39997 0.47762 0.0
C827 C 0.56344 0.37629 0.45816 0.0
C828 C 0.57501 0.40906 0.50204 0.0
C829 C 0.54082 0.39422 0.50713 0.0
C830 C 0.51804 0.37123 0.48708 0.0
C831 C 0.52958 0.36248 0.46293 0.0
C832 C 0.60011 0.43352 0.523 0.0
C833 C 0.48138 0.35485 0.49171 0.0
H834 H 0.50882 0.36578 0.60198 0.0
H835 H 0.50587 0.44936 0.56848 0.0
H836 H 0.51528 0.33265 0.53835 0.0
H837 H 0.55705 0.36029 0.54891 0.0
H838 H 0.52656 0.33604 0.57565 0.0
H839 H 0.51973 0.46692 0.52046 0.0
H840 H 0.55268 0.46192 0.50729 0.0
H841 H 0.51145 0.434 0.49566 0.0
H842 H 0.6121 0.41099 0.47412 0.0
H843 H 0.51194 0.34444 0.44794 0.0
H844 H 0.59865 0.42058 0.54335 0.0
H845 H 0.5948 0.45334 0.52815 0.0
H846 H 0.62563 0.44525 0.51462 0.0
H847 H 0.47395 0.33795 0.51047 0.0
H848 H 0.46701 0.34019 0.47277 0.0
H849 H 0.47476 0.3738 0.49651 0.0
C850 C 0.08625 0.50066 0.74611 0.0
C851 C 0.09962 0.48746 0.76487 0.0
C852 C 0.10283 0.51659 0.72064 0.0
C853 C 0.13347 0.51953 0.71422 0.0
C854 C 0.14543 0.50363 0.73196 0.0
C855 C 0.12816 0.48752 0.75688 0.0
C856 C 0.08888 0.53249 0.70181 0.0
C857 C 0.17808 0.50635 0.72622 0.0
C858 C 0.17963 0.55549 0.64413 0.0
C859 C 0.20061 0.58891 0.65169 0.0
C860 C 0.15676 0.53264 0.66394 0.0
C861 C 0.15558 0.5434 0.69205 0.0
C862 C 0.17715 0.57703 0.69981 0.0
C863 C 0.19907 0.5994 0.67945 0.0
C864 C 0.13369 0.49715 0.65476 0.0
C865 C 0.17738 0.5894 0.72978 0.0
H866 H 0.06408 0.50044 0.7522 0.0
H867 H 0.13818 0.47673 0.77121 0.0
H868 H 0.10283 0.55974 0.70537 0.0
H869 H 0.09138 0.5281 0.67883 0.0
H870 H 0.06252 0.52288 0.70658 0.0
H871 H 0.1818 0.4892 0.73991 0.0
H872 H 0.18006 0.50093 0.70342 0.0
H873 H 0.19832 0.53215 0.73062 0.0
H874 H 0.18045 0.54745 0.62252 0.0
H875 H 0.21534 0.62521 0.68537 0.0
H876 H 0.10781 0.49051 0.65795 0.0
H877 H 0.1376 0.48004 0.66824 0.0
H878 H 0.13712 0.49296 0.63191 0.0
H879 H 0.15274 0.58522 0.73512 0.0
H880 H 0.19584 0.61627 0.73235 0.0
H881 H 0.18295 0.57529 0.74558 0.0
C882 C 0.61256 0.08535 0.89649 0.0
C883 C 0.59666 0.09143 0.91894 0.0
C884 C 0.61868 0.10217 0.87019 0.0
C885 C 0.60945 0.12621 0.86658 0.0
C886 C 0.59103 0.1304 0.88823 0.0
C887 C 0.58426 0.11243 0.91387 0.0
C888 C 0.63716 0.09596 0.84712 0.0
C889 C 0.58102 0.15602 0.88548 0.0
C890 C 0.66549 0.20096 0.8202 0.0
C891 C 0.64598 0.195 0.79588 0.0
C892 C 0.65369 0.17883 0.84347 0.0
C893 C 0.62215 0.1495 0.84178 0.0
C894 C 0.60274 0.14309 0.81683 0.0
C895 C 0.6147 0.16629 0.79433 0.0
C896 C 0.67478 0.18707 0.87001 0.0
C897 C 0.56956 0.11164 0.8138 0.0
H898 H 0.62231 0.06925 0.90005 0.0
H899 H 0.57118 0.11661 0.93082 0.0
H900 H 0.62616 0.0944 0.82574 0.0
H901 H 0.66304 0.11696 0.84651 0.0
H902 H 0.63728 0.0727 0.85102 0.0
H903 H 0.56407 0.15391 0.9029 0.0
H904 H 0.60333 0.18126 0.88635 0.0
H905 H 0.56888 0.15366 0.86457 0.0
H906 H 0.68967 0.22328 0.82121 0.0
H907 H 0.59988 0.16171 0.77523 0.0
H908 H 0.68076 0.16749 0.87394 0.0
H909 H 0.66105 0.18776 0.889 0.0
H910 H 0.69817 0.21138 0.86824 0.0
H911 H 0.57214 0.08965 0.81678 0.0
H912 H 0.55817 0.10978 0.79253 0.0
H913 H 0.5526 0.11057 0.83069 0.0
C914 C 0.52121 0.58522 0.06238 0.0
C915 C 0.53885 0.61299 0.08009 0.0
C916 C 0.50902 0.58821 0.03569 0.0
C917 C 0.51442 0.61959 0.02698 0.0
C918 C 0.53369 0.64788 0.04433 0.0
C919 C 0.54576 0.64422 0.07057 0.0
C920 C 0.48905 0.55762 0.01753 0.0
C921 C 0.53997 0.68176 0.03601 0.0
C922 C 0.50226 0.64119 0.95134 0.0
C923 C 0.47153 0.63868 0.95354 0.0
C924 C 0.51566 0.63307 0.97456 0.0
C925 C 0.49831 0.62296 0.00083 0.0
C926 C 0.46691 0.61959 0.00296 0.0
C927 C 0.45374 0.62714 0.97917 0.0
C928 C 0.54885 0.63629 0.97126 0.0
C929 C 0.44786 0.60947 0.03076 0.0
H930 H 0.51567 0.56106 0.06998 0.0
H931 H 0.55933 0.66561 0.08448 0.0
H932 H 0.46282 0.5505 0.01787 0.0
H933 H 0.49738 0.56272 0.99489 0.0
H934 H 0.49076 0.53623 0.02537 0.0
H935 H 0.55675 0.70145 0.05127 0.0
H936 H 0.55088 0.68858 0.01425 0.0
H937 H 0.51631 0.68124 0.03538 0.0
H938 H 0.51589 0.64955 0.93141 0.0
H939 H 0.42998 0.62511 0.98098 0.0
H940 H 0.54788 0.61351 0.97914 0.0
H941 H 0.56736 0.65737 0.98442 0.0
H942 H 0.55735 0.64062 0.94862 0.0
H943 H 0.44509 0.58592 0.03876 0.0
H944 H 0.42301 0.60611 0.02842 0.0
H945 H 0.46164 0.62876 0.0473 0.0
C946 C 0.94689 0.53483 0.23902 0.0
C947 C 0.94065 0.5146 0.26316 0.0
C948 C 0.93112 0.52108 0.21272 0.0
C949 C 0.90835 0.48645 0.21078 0.0
C950 C 0.90383 0.46576 0.23456 0.0
C951 C 0.9203 0.48007 0.26031 0.0
C952 C 0.93734 0.54382 0.18759 0.0
C953 C 0.87988 0.4287 0.23348 0.0
C954 C 0.83423 0.4497 0.16112 0.0
C955 C 0.84247 0.43262 0.14153 0.0
C956 C 0.85627 0.4689 0.18306 0.0
C957 C 0.88749 0.47168 0.1848 0.0
C958 C 0.89679 0.45663 0.16356 0.0
C959 C 0.87395 0.43682 0.14246 0.0
C960 C 0.84525 0.48422 0.20551 0.0
C961 C 0.93015 0.45985 0.16404 0.0
H962 H 0.96243 0.56157 0.24114 0.0
H963 H 0.91573 0.46436 0.27888 0.0
H964 H 0.94057 0.53306 0.16757 0.0
H965 H 0.91578 0.54674 0.18448 0.0
H966 H 0.95947 0.56884 0.19095 0.0
H967 H 0.8802 0.41601 0.25347 0.0
H968 H 0.85455 0.42373 0.23013 0.0
H969 H 0.88569 0.41757 0.21516 0.0
H970 H 0.80984 0.44634 0.16041 0.0
H971 H 0.88043 0.42388 0.12701 0.0
H972 H 0.86408 0.51086 0.20846 0.0
H973 H 0.84236 0.47164 0.22639 0.0
H974 H 0.82145 0.48204 0.19987 0.0
H975 H 0.94981 0.48598 0.16814 0.0
H976 H 0.93556 0.45152 0.14358 0.0
H977 H 0.93102 0.44449 0.18169 0.0
loop_
_geom_bond_atom_site_label_1
_geom_bond_atom_site_label_2
_geom_bond_distance
_geom_bond_site_symmetry_2
_ccdc_geom_bond_type
H0 C8 0.930 . S
H1 C11 0.930 . S
H2 C13 0.930 . S
H3 C14 0.970 . S
H4 C14 0.970 . S
H5 C16 0.930 . S
H6 C18 0.930 . S
H7 C20 0.930 . S
C8 H0 0.930 . S
C8 C9 1.382 . S
C8 C10 1.426 . S
C9 C8 1.382 . S
C9 C13 1.389 . S
C10 C8 1.426 . S
C10 C11 1.375 . S
C10 C14 1.532 1_655 S
C11 H1 0.930 . S
C11 C10 1.375 . S
C11 C12 1.416 . S
C12 C11 1.416 . S
C12 C13 1.371 . S
C13 H2 0.930 . S
C13 C9 1.389 . S
C13 C12 1.371 . S
C14 H3 0.970 . S
C14 H4 0.970 . S
C14 C10 1.532 1_455 S
C14 C15 1.499 . S
C15 C14 1.499 . S
C15 C16 1.370 . S
C15 C20 1.415 . S
C16 H5 0.930 . S
C16 C15 1.370 . S
C16 C17 1.407 . S
C17 C16 1.407 . S
C17 C18 1.365 . S
C18 H6 0.930 . S
C18 C17 1.365 . S
C18 C19 1.393 . S
C19 C18 1.393 . S
C19 C20 1.387 . S
C20 H7 0.930 . S
C20 C15 1.415 . S
C20 C19 1.387 . S
H21 C29 0.930 . S
H22 C32 0.930 . S
H23 C34 0.930 . S
H24 C35 0.970 . S
H25 C35 0.970 . S
H26 C37 0.930 . S
H27 C39 0.930 . S
H28 C41 0.930 . S
C29 H21 0.930 . S
C29 C30 1.382 . S
C29 C31 1.426 . S
C30 C29 1.382 . S
C30 C34 1.389 . S
C31 C29 1.426 . S
C31 C32 1.375 . S
C31 C35 1.532 1_565 S
C32 H22 0.930 . S
C32 C31 1.375 . S
C32 C33 1.416 . S
C33 C32 1.416 . S
C33 C34 1.371 . S
C34 H23 0.930 . S
C34 C30 1.389 . S
C34 C33 1.371 . S
C35 H24 0.970 . S
C35 H25 0.970 . S
C35 C31 1.532 1_545 S
C35 C36 1.499 . S
C36 C35 1.499 . S
C36 C37 1.370 . S
C36 C41 1.415 . S
C37 H26 0.930 . S
C37 C36 1.370 . S
C37 C38 1.407 . S
C38 C37 1.407 . S
C38 C39 1.365 . S
C39 H27 0.930 . S
C39 C38 1.365 . S
C39 C40 1.393 . S
C40 C39 1.393 . S
C40 C41 1.387 . S
C41 H28 0.930 . S
C41 C36 1.415 . S
C41 C40 1.387 . S
H42 C50 0.930 . S
H43 C53 0.930 . S
H44 C55 0.930 . S
H45 C56 0.970 . S
H46 C56 0.970 . S
H47 C58 0.930 . S
H48 C60 0.930 . S
H49 C62 0.930 . S
C50 H42 0.930 . S
C50 C51 1.382 . S
C50 C52 1.426 . S
C51 C50 1.382 . S
C51 C55 1.389 . S
C52 C50 1.426 . S
C52 C53 1.375 . S
C52 C56 1.532 . S
C53 H43 0.930 . S
C53 C52 1.375 . S
C53 C54 1.416 . S
C54 C53 1.416 . S
C54 C55 1.371 . S
C55 H44 0.930 . S
C55 C51 1.389 . S
C55 C54 1.371 . S
C56 H45 0.970 . S
C56 H46 0.970 . S
C56 C52 1.532 . S
C56 C57 1.499 . S
C57 C56 1.499 . S
C57 C58 1.370 . S
C57 C62 1.415 . S
C58 H47 0.930 . S
C58 C57 1.370 . S
C58 C59 1.407 . S
C59 C58 1.407 . S
C59 C60 1.365 . S
C60 H48 0.930 . S
C60 C59 1.365 . S
C60 C61 1.393 . S
C61 C60 1.393 . S
C61 C62 1.387 . S
C62 H49 0.930 . S
C62 C57 1.415 . S
C62 C61 1.387 . S
H63 C71 0.930 . S
H64 C74 0.930 . S
H65 C76 0.930 . S
H66 C77 0.968 . S
H67 C77 0.970 . S
H68 C79 0.930 . S
H69 C81 0.930 . S
H70 C83 0.930 . S
C71 H63 0.930 . S
C71 C72 1.382 . S
C71 C73 1.426 . S
C72 C71 1.382 . S
C72 C76 1.389 . S
C73 C71 1.426 . S
C73 C74 1.375 . S
C73 C77 1.532 1_655 S
C74 H64 0.930 . S
C74 C73 1.375 . S
C74 C75 1.416 . S
C75 C74 1.416 . S
C75 C76 1.371 . S
C76 H65 0.930 . S
C76 C72 1.389 . S
C76 C75 1.371 . S
C77 H66 0.968 . S
C77 H67 0.970 . S
C77 C73 1.532 1_455 S
C77 C78 1.499 . S
C78 C77 1.499 . S
C78 C79 1.370 . S
C78 C83 1.415 . S
C79 H68 0.930 . S
C79 C78 1.370 . S
C79 C80 1.407 . S
C80 C79 1.407 . S
C80 C81 1.365 . S
C81 H69 0.930 . S
C81 C80 1.365 . S
C81 C82 1.393 . S
C82 C81 1.393 . S
C82 C83 1.387 . S
C83 H70 0.930 . S
C83 C78 1.415 . S
C83 C82 1.387 . S
H84 C92 0.930 . S
H85 C95 0.930 . S
H86 C97 0.930 . S
H87 C98 0.970 1_554 S
H88 C98 0.970 1_565 S
H89 C100 0.930 . S
H90 C102 0.930 . S
H91 C104 0.930 . S
C92 H84 0.930 . S
C92 C93 1.378 1_554 S
C92 C94 1.426 1_554 S
C93 C92 1.378 1_556 S
C93 C97 1.403 . S
C94 C92 1.426 1_556 S
C94 C95 1.375 . S
C94 C98 1.532 . S
C95 H85 0.930 . S
C95 C94 1.375 . S
C95 C96 1.416 . S
C96 C95 1.416 . S
C96 C97 1.371 . S
C97 H86 0.930 . S
C97 C93 1.403 . S
C97 C96 1.371 . S
C98 H87 0.970 1_556 S
C98 H88 0.970 1_545 S
C98 C94 1.532 . S
C98 C99 1.492 1_546 S
C99 C98 1.492 1_564 S
C99 C100 1.399 . S
C99 C104 1.394 1_554 S
C100 H89 0.930 . S
C100 C99 1.399 . S
C100 C101 1.407 . S
C101 C100 1.407 . S
C101 C102 1.365 . S
C102 H90 0.930 . S
C102 C101 1.365 . S
C102 C103 1.393 1_554 S
C103 C102 1.393 1_556 S
C103 C104 1.387 . S
C104 H91 0.930 . S
C104 C99 1.394 1_556 S
C104 C103 1.387 . S
H105 C113 0.930 . S
H106 C116 0.930 . S
H107 C118 0.930 . S
H108 C119 0.970 . S
H109 C119 0.970 . S
H110 C121 0.930 . S
H111 C123 0.930 . S
H112 C125 0.930 . S
C113 H105 0.930 . S
C113 C114 1.382 . S
C113 C115 1.426 . S
C114 C113 1.382 . S
C114 C118 1.389 . S
C115 C113 1.426 . S
C115 C116 1.375 . S
C115 C119 1.532 . S
C116 H106 0.930 . S
C116 C115 1.375 . S
C116 C117 1.416 . S
C117 C116 1.416 . S
C117 C118 1.371 . S
C118 H107 0.930 . S
C118 C114 1.389 . S
C118 C117 1.371 . S
C119 H108 0.970 . S
C119 H109 0.970 . S
C119 C115 1.532 . S
C119 C120 1.499 . S
C120 C119 1.499 . S
C120 C121 1.370 . S
C120 C125 1.415 . S
C121 H110 0.930 . S
C121 C120 1.370 . S
C121 C122 1.407 . S
C122 C121 1.407 . S
C122 C123 1.365 . S
C123 H111 0.930 . S
C123 C122 1.365 . S
C123 C124 1.393 . S
C124 C123 1.393 . S
C124 C125 1.387 . S
C125 H112 0.930 . S
C125 C120 1.415 . S
C125 C124 1.387 . S
Co126 O127 2.216 . S
Co126 O128 2.091 . S
Co126 O130 2.004 . S
Co126 O136 2.021 . S
Co126 O138 2.137 . S
Co126 O139 2.244 . S
O127 Co126 2.216 . S
O127 C134 1.247 . S
O128 Co126 2.091 . S
O128 C134 1.261 . S
C129 O138 1.247 . S
C129 O139 1.272 . S
O130 Co126 2.004 . S
O130 C135 1.259 . S
Co131 O132 2.061 . S
Co131 O137 2.052 . S
Co131 O139 2.135 . S
O132 Co131 2.061 . S
O132 C135 1.235 . S
C133 O136 1.238 . S
C133 O137 1.241 . S
C134 O127 1.247 . S
C134 O128 1.261 . S
C135 O130 1.259 . S
C135 O132 1.235 . S
O136 Co126 2.021 . S
O136 C133 1.238 . S
O137 Co131 2.052 . S
O137 C133 1.241 . S
O138 Co126 2.137 . S
O138 C129 1.247 . S
O139 Co126 2.244 . S
O139 C129 1.272 . S
O139 Co131 2.135 . S
Co140 O141 2.216 . S
Co140 O142 2.091 . S
Co140 O144 2.004 . S
Co140 O150 2.021 . S
Co140 O152 2.137 . S
Co140 O153 2.244 . S
O141 Co140 2.216 . S
O141 C148 1.247 . S
O142 Co140 2.091 . S
O142 C148 1.261 . S
C143 O152 1.247 . S
C143 O153 1.272 . S
O144 Co140 2.004 . S
O144 C149 1.259 . S
Co145 O146 2.061 . S
Co145 O151 2.052 . S
Co145 O153 2.135 . S
O146 Co145 2.061 . S
O146 C149 1.235 . S
C147 O150 1.238 . S
C147 O151 1.241 . S
C148 O141 1.247 . S
C148 O142 1.261 . S
C149 O144 1.259 . S
C149 O146 1.235 . S
O150 Co140 2.021 . S
O150 C147 1.238 . S
O151 Co145 2.052 . S
O151 C147 1.241 . S
O152 Co140 2.137 . S
O152 C143 1.247 . S
O153 Co140 2.244 . S
O153 C143 1.272 . S
O153 Co145 2.135 . S
Co154 O155 2.216 . S
Co154 O156 2.091 . S
Co154 O158 2.004 . S
Co154 O164 2.021 . S
Co154 O166 2.137 . S
Co154 O167 2.244 . S
O155 Co154 2.216 . S
O155 C162 1.247 . S
O156 Co154 2.091 . S
O156 C162 1.261 . S
C157 O166 1.247 . S
C157 O167 1.272 . S
O158 Co154 2.004 . S
O158 C163 1.259 . S
Co159 O160 2.061 . S
Co159 O165 2.052 . S
Co159 O167 2.135 . S
O160 Co159 2.061 . S
O160 C163 1.235 . S
C161 O164 1.238 . S
C161 O165 1.241 . S
C162 O155 1.247 . S
C162 O156 1.261 . S
C163 O158 1.259 . S
C163 O160 1.235 . S
O164 Co154 2.021 . S
O164 C161 1.238 . S
O165 Co159 2.052 . S
O165 C161 1.241 . S
O166 Co154 2.137 . S
O166 C157 1.247 . S
O167 Co154 2.244 . S
O167 C157 1.272 . S
O167 Co159 2.135 . S
Co168 O169 2.216 . S
Co168 O170 2.091 . S
Co168 O172 2.004 . S
Co168 O178 2.021 . S
Co168 O180 2.137 . S
Co168 O181 2.244 . S
O169 Co168 2.216 . S
O169 C176 1.247 . S
O170 Co168 2.091 . S
O170 C176 1.261 . S
C171 O180 1.247 . S
C171 O181 1.272 . S
O172 Co168 2.004 . S
O172 C177 1.259 . S
Co173 O174 2.061 . S
Co173 O179 2.052 . S
Co173 O181 2.135 . S
O174 Co173 2.061 . S
O174 C177 1.235 . S
C175 O178 1.238 . S
C175 O179 1.241 . S
C176 O169 1.247 . S
C176 O170 1.261 . S
C177 O172 1.259 . S
C177 O174 1.235 . S
O178 Co168 2.021 . S
O178 C175 1.238 . S
O179 Co173 2.052 . S
O179 C175 1.241 . S
O180 Co168 2.137 . S
O180 C171 1.247 . S
O181 Co168 2.244 . S
O181 C171 1.272 . S
O181 Co173 2.135 . S
Co182 O183 2.216 . S
Co182 O184 2.091 . S
Co182 O186 2.004 . S
Co182 O192 2.021 . S
Co182 O194 2.137 . S
Co182 O195 2.244 . S
O183 Co182 2.216 . S
O183 C190 1.247 . S
O184 Co182 2.091 . S
O184 C190 1.261 . S
C185 O194 1.247 . S
C185 O195 1.272 . S
O186 Co182 2.004 . S
O186 C191 1.259 . S
Co187 O188 2.061 . S
Co187 O193 2.052 . S
Co187 O195 2.135 . S
O188 Co187 2.061 . S
O188 C191 1.235 . S
C189 O192 1.238 . S
C189 O193 1.241 . S
C190 O183 1.247 . S
C190 O184 1.261 . S
C191 O186 1.259 . S
C191 O188 1.235 . S
O192 Co182 2.021 . S
O192 C189 1.238 . S
O193 Co187 2.052 . S
O193 C189 1.241 . S
O194 Co182 2.137 . S
O194 C185 1.247 . S
O195 Co182 2.244 . S
O195 C185 1.272 . S
O195 Co187 2.135 . S
Co196 O197 2.216 . S
Co196 O198 2.091 . S
Co196 O200 2.004 . S
Co196 O206 2.021 . S
Co196 O208 2.137 . S
Co196 O209 2.244 . S
O197 Co196 2.216 . S
O197 C204 1.247 . S
O198 Co196 2.091 . S
O198 C204 1.261 . S
C199 O208 1.247 . S
C199 O209 1.272 . S
O200 Co196 2.004 . S
O200 C205 1.259 . S
Co201 O202 2.061 . S
Co201 O207 2.052 . S
Co201 O209 2.135 . S
O202 Co201 2.061 . S
O202 C205 1.235 . S
C203 O206 1.238 . S
C203 O207 1.241 . S
C204 O197 1.247 . S
C204 O198 1.261 . S
C205 O200 1.259 . S
C205 O202 1.235 . S
O206 Co196 2.021 . S
O206 C203 1.238 . S
O207 Co201 2.052 . S
O207 C203 1.241 . S
O208 Co196 2.137 . S
O208 C199 1.247 . S
O209 Co196 2.244 . S
O209 C199 1.272 . S
O209 Co201 2.135 . S
C210 C211 1.391 . S
C210 C212 1.394 . S
C210 H226 0.931 . S
C211 C210 1.391 . S
C211 C215 1.376 . S
C212 C210 1.394 . S
C212 C213 1.369 . S
C212 C216 1.531 . S
C213 C212 1.369 . S
C213 C214 1.410 . S
C213 C221 1.503 . S
C214 C213 1.410 . S
C214 C215 1.392 . S
C214 C217 1.511 . S
C215 C211 1.376 . S
C215 C214 1.392 . S
C215 H227 0.929 . S
C216 C212 1.531 . S
C216 H228 0.960 . S
C216 H229 0.962 . S
C216 H230 0.960 . S
C217 C214 1.511 . S
C217 H231 0.961 . S
C217 H232 0.961 . S
C217 H233 0.961 . S
C218 C219 1.370 . S
C218 C220 1.363 . S
C218 H234 0.931 . S
C219 C218 1.370 . S
C219 C223 1.408 . S
C220 C218 1.363 . S
C220 C221 1.370 . S
C220 C224 1.524 . S
C221 C213 1.503 . S
C221 C220 1.370 . S
C221 C222 1.403 . S
C222 C221 1.403 . S
C222 C223 1.404 . S
C222 C225 1.539 . S
C223 C219 1.408 . S
C223 C222 1.404 . S
C223 H235 0.930 . S
C224 C220 1.524 . S
C224 H236 0.956 . S
C224 H237 0.961 . S
C224 H238 0.961 . S
C225 C222 1.539 . S
C225 H239 0.958 . S
C225 H240 0.961 . S
C225 H241 0.960 . S
H226 C210 0.931 . S
H227 C215 0.929 . S
H228 C216 0.960 . S
H229 C216 0.962 . S
H230 C216 0.960 . S
H231 C217 0.961 . S
H232 C217 0.961 . S
H233 C217 0.961 . S
H234 C218 0.931 . S
H235 C223 0.930 . S
H236 C224 0.956 . S
H237 C224 0.961 . S
H238 C224 0.961 . S
H239 C225 0.958 . S
H240 C225 0.961 . S
H241 C225 0.960 . S
C242 C243 1.391 . S
C242 C244 1.394 . S
C242 H258 0.931 . S
C243 C242 1.391 . S
C243 C247 1.376 . S
C244 C242 1.394 . S
C244 C245 1.369 . S
C244 C248 1.531 . S
C245 C244 1.369 . S
C245 C246 1.410 . S
C245 C253 1.503 . S
C246 C245 1.410 . S
C246 C247 1.392 . S
C246 C249 1.511 . S
C247 C243 1.376 . S
C247 C246 1.392 . S
C247 H259 0.929 . S
C248 C244 1.531 . S
C248 H260 0.960 . S
C248 H261 0.962 . S
C248 H262 0.960 . S
C249 C246 1.511 . S
C249 H263 0.961 . S
C249 H264 0.961 . S
C249 H265 0.961 . S
C250 C251 1.370 . S
C250 C252 1.363 . S
C250 H266 0.931 . S
C251 C250 1.370 . S
C251 C255 1.408 . S
C252 C250 1.363 . S
C252 C253 1.370 . S
C252 C256 1.524 . S
C253 C245 1.503 . S
C253 C252 1.370 . S
C253 C254 1.403 . S
C254 C253 1.403 . S
C254 C255 1.404 . S
C254 C257 1.539 . S
C255 C251 1.408 . S
C255 C254 1.404 . S
C255 H267 0.930 . S
C256 C252 1.524 . S
C256 H268 0.956 . S
C256 H269 0.961 . S
C256 H270 0.961 . S
C257 C254 1.539 . S
C257 H271 0.958 . S
C257 H272 0.961 . S
C257 H273 0.960 . S
H258 C242 0.931 . S
H259 C247 0.929 . S
H260 C248 0.960 . S
H261 C248 0.962 . S
H262 C248 0.960 . S
H263 C249 0.961 . S
H264 C249 0.961 . S
H265 C249 0.961 . S
H266 C250 0.931 . S
H267 C255 0.930 . S
H268 C256 0.956 . S
H269 C256 0.961 . S
H270 C256 0.961 . S
H271 C257 0.958 . S
H272 C257 0.961 . S
H273 C257 0.960 . S
C274 C275 1.391 . S
C274 C276 1.394 . S
C274 H290 0.931 . S
C275 C274 1.391 . S
C275 C279 1.376 . S
C276 C274 1.394 . S
C276 C277 1.369 . S
C276 C280 1.531 . S
C277 C276 1.369 . S
C277 C278 1.410 . S
C277 C285 1.503 . S
C278 C277 1.410 . S
C278 C279 1.392 . S
C278 C281 1.511 . S
C279 C275 1.376 . S
C279 C278 1.392 . S
C279 H291 0.929 . S
C280 C276 1.531 . S
C280 H292 0.960 . S
C280 H293 0.962 . S
C280 H294 0.960 . S
C281 C278 1.511 . S
C281 H295 0.961 . S
C281 H296 0.961 . S
C281 H297 0.961 . S
C282 C283 1.370 . S
C282 C284 1.363 . S
C282 H298 0.931 . S
C283 C282 1.370 . S
C283 C287 1.408 . S
C284 C282 1.363 . S
C284 C285 1.370 . S
C284 C288 1.524 . S
C285 C277 1.503 . S
C285 C284 1.370 . S
C285 C286 1.403 . S
C286 C285 1.403 . S
C286 C287 1.404 . S
C286 C289 1.539 . S
C287 C283 1.408 . S
C287 C286 1.404 . S
C287 H299 0.930 . S
C288 C284 1.524 . S
C288 H300 0.956 . S
C288 H301 0.961 . S
C288 H302 0.961 . S
C289 C286 1.539 . S
C289 H303 0.958 . S
C289 H304 0.961 . S
C289 H305 0.960 . S
H290 C274 0.931 . S
H291 C279 0.929 . S
H292 C280 0.960 . S
H293 C280 0.962 . S
H294 C280 0.960 . S
H295 C281 0.961 . S
H296 C281 0.961 . S
H297 C281 0.961 . S
H298 C282 0.931 . S
H299 C287 0.930 . S
H300 C288 0.956 . S
H301 C288 0.961 . S
H302 C288 0.961 . S
H303 C289 0.958 . S
H304 C289 0.961 . S
H305 C289 0.960 . S
C306 C307 1.391 . S
C306 C308 1.394 . S
C306 H322 0.931 . S
C307 C306 1.391 . S
C307 C311 1.376 . S
C308 C306 1.394 . S
C308 C309 1.369 . S
C308 C312 1.531 . S
C309 C308 1.369 . S
C309 C310 1.410 . S
C309 C317 1.503 . S
C310 C309 1.410 . S
C310 C311 1.392 . S
C310 C313 1.511 . S
C311 C307 1.376 . S
C311 C310 1.392 . S
C311 H323 0.929 . S
C312 C308 1.531 . S
C312 H324 0.960 . S
C312 H325 0.962 . S
C312 H326 0.960 . S
C313 C310 1.511 . S
C313 H327 0.961 . S
C313 H328 0.961 . S
C313 H329 0.961 . S
C314 C315 1.370 . S
C314 C316 1.363 . S
C314 H330 0.931 . S
C315 C314 1.370 . S
C315 C319 1.408 . S
C316 C314 1.363 . S
C316 C317 1.370 . S
C316 C320 1.524 . S
C317 C309 1.503 . S
C317 C316 1.370 . S
C317 C318 1.403 . S
C318 C317 1.403 . S
C318 C319 1.404 . S
C318 C321 1.539 . S
C319 C315 1.408 . S
C319 C318 1.404 . S
C319 H331 0.930 . S
C320 C316 1.524 . S
C320 H332 0.956 . S
C320 H333 0.961 . S
C320 H334 0.961 . S
C321 C318 1.539 . S
C321 H335 0.958 . S
C321 H336 0.961 . S
C321 H337 0.960 . S
H322 C306 0.931 . S
H323 C311 0.929 . S
H324 C312 0.960 . S
H325 C312 0.962 . S
H326 C312 0.960 . S
H327 C313 0.961 . S
H328 C313 0.961 . S
H329 C313 0.961 . S
H330 C314 0.931 . S
H331 C319 0.930 . S
H332 C320 0.956 . S
H333 C320 0.961 . S
H334 C320 0.961 . S
H335 C321 0.958 . S
H336 C321 0.961 . S
H337 C321 0.960 . S
C338 C339 1.391 . S
C338 C340 1.394 . S
C338 H354 0.931 1_556 S
C339 C338 1.391 . S
C339 C343 1.376 . S
C340 C338 1.394 . S
C340 C341 1.369 . S
C340 C344 1.531 1_556 S
C341 C340 1.369 . S
C341 C342 1.410 . S
C341 C349 1.503 . S
C342 C341 1.410 . S
C342 C343 1.392 . S
C342 C345 1.511 . S
C343 C339 1.376 . S
C343 C342 1.392 . S
C343 H355 0.929 . S
C344 C340 1.531 1_554 S
C344 H356 0.960 1_554 S
C344 H357 0.962 . S
C344 H358 0.960 . S
C345 C342 1.511 . S
C345 H359 0.961 . S
C345 H360 0.961 . S
C345 H361 0.961 . S
C346 C347 1.370 . S
C346 C348 1.363 . S
C346 H362 0.931 . S
C347 C346 1.370 . S
C347 C351 1.408 . S
C348 C346 1.363 . S
C348 C349 1.370 . S
C348 C352 1.524 . S
C349 C341 1.503 . S
C349 C348 1.370 . S
C349 C350 1.403 . S
C350 C349 1.403 . S
C350 C351 1.404 . S
C350 C353 1.539 . S
C351 C347 1.408 . S
C351 C350 1.404 . S
C351 H363 0.930 . S
C352 C348 1.524 . S
C352 H364 0.956 . S
C352 H365 0.961 . S
C352 H366 0.961 . S
C353 C350 1.539 . S
C353 H367 0.958 . S
C353 H368 0.961 . S
C353 H369 0.960 . S
H354 C338 0.931 1_554 S
H355 C343 0.929 . S
H356 C344 0.960 1_556 S
H357 C344 0.962 . S
H358 C344 0.960 . S
H359 C345 0.961 . S
H360 C345 0.961 . S
H361 C345 0.961 . S
H362 C346 0.931 . S
H363 C351 0.930 . S
H364 C352 0.956 . S
H365 C352 0.961 . S
H366 C352 0.961 . S
H367 C353 0.958 . S
H368 C353 0.961 . S
H369 C353 0.960 . S
C370 C371 1.391 . S
C370 C372 1.394 . S
C370 H386 0.931 . S
C371 C370 1.391 . S
C371 C375 1.376 . S
C372 C370 1.394 . S
C372 C373 1.369 . S
C372 C376 1.531 . S
C373 C372 1.369 . S
C373 C374 1.410 . S
C373 C381 1.503 . S
C374 C373 1.410 . S
C374 C375 1.392 . S
C374 C377 1.511 . S
C375 C371 1.376 . S
C375 C374 1.392 . S
C375 H387 0.929 . S
C376 C372 1.531 . S
C376 H388 0.960 . S
C376 H389 0.962 . S
C376 H390 0.960 . S
C377 C374 1.511 . S
C377 H391 0.961 . S
C377 H392 0.961 . S
C377 H393 0.961 . S
C378 C379 1.370 . S
C378 C380 1.363 . S
C378 H394 0.931 . S
C379 C378 1.370 . S
C379 C383 1.408 . S
C380 C378 1.363 . S
C380 C381 1.370 . S
C380 C384 1.524 . S
C381 C373 1.503 . S
C381 C380 1.370 . S
C381 C382 1.403 . S
C382 C381 1.403 . S
C382 C383 1.404 . S
C382 C385 1.539 . S
C383 C379 1.408 . S
C383 C382 1.404 . S
C383 H395 0.930 . S
C384 C380 1.524 . S
C384 H396 0.956 . S
C384 H397 0.961 . S
C384 H398 0.961 . S
C385 C382 1.539 . S
C385 H399 0.958 . S
C385 H400 0.961 . S
C385 H401 0.960 . S
H386 C370 0.931 . S
H387 C375 0.929 . S
H388 C376 0.960 . S
H389 C376 0.962 . S
H390 C376 0.960 . S
H391 C377 0.961 . S
H392 C377 0.961 . S
H393 C377 0.961 . S
H394 C378 0.931 . S
H395 C383 0.930 . S
H396 C384 0.956 . S
H397 C384 0.961 . S
H398 C384 0.961 . S
H399 C385 0.958 . S
H400 C385 0.961 . S
H401 C385 0.960 . S
C402 C403 1.391 . S
C402 C404 1.394 . S
C402 H418 0.931 . S
C403 C402 1.391 . S
C403 C407 1.376 . S
C404 C402 1.394 . S
C404 C405 1.369 . S
C404 C408 1.531 . S
C405 C404 1.369 . S
C405 C406 1.410 . S
C405 C413 1.503 . S
C406 C405 1.410 . S
C406 C407 1.392 . S
C406 C409 1.511 . S
C407 C403 1.376 . S
C407 C406 1.392 . S
C407 H419 0.929 . S
C408 C404 1.531 . S
C408 H420 0.960 . S
C408 H421 0.962 . S
C408 H422 0.960 . S
C409 C406 1.511 . S
C409 H423 0.961 . S
C409 H424 0.961 . S
C409 H425 0.961 . S
C410 C411 1.370 . S
C410 C412 1.363 . S
C410 H426 0.931 . S
C411 C410 1.370 . S
C411 C415 1.408 . S
C412 C410 1.363 . S
C412 C413 1.370 . S
C412 C416 1.524 . S
C413 C405 1.503 . S
C413 C412 1.370 . S
C413 C414 1.403 . S
C414 C413 1.403 . S
C414 C415 1.404 . S
C414 C417 1.539 . S
C415 C411 1.408 . S
C415 C414 1.404 . S
C415 H427 0.930 . S
C416 C412 1.524 . S
C416 H428 0.956 . S
C416 H429 0.961 . S
C416 H430 0.961 . S
C417 C414 1.539 . S
C417 H431 0.958 . S
C417 H432 0.961 . S
C417 H433 0.960 . S
H418 C402 0.931 . S
H419 C407 0.929 . S
H420 C408 0.960 . S
H421 C408 0.962 . S
H422 C408 0.960 . S
H423 C409 0.961 . S
H424 C409 0.961 . S
H425 C409 0.961 . S
H426 C410 0.931 . S
H427 C415 0.930 . S
H428 C416 0.956 . S
H429 C416 0.961 . S
H430 C416 0.961 . S
H431 C417 0.958 . S
H432 C417 0.961 . S
H433 C417 0.960 . S
C434 C435 1.391 . S
C434 C436 1.394 . S
C434 H450 0.931 . S
C435 C434 1.391 . S
C435 C439 1.376 . S
C436 C434 1.394 . S
C436 C437 1.369 . S
C436 C440 1.531 . S
C437 C436 1.369 . S
C437 C438 1.410 . S
C437 C445 1.503 . S
C438 C437 1.410 . S
C438 C439 1.392 . S
C438 C441 1.511 . S
C439 C435 1.376 . S
C439 C438 1.392 . S
C439 H451 0.929 . S
C440 C436 1.531 . S
C440 H452 0.960 . S
C440 H453 0.962 . S
C440 H454 0.960 . S
C441 C438 1.511 . S
C441 H455 0.961 . S
C441 H456 0.961 . S
C441 H457 0.961 . S
C442 C443 1.370 . S
C442 C444 1.363 . S
C442 H458 0.931 . S
C443 C442 1.370 . S
C443 C447 1.408 . S
C444 C442 1.363 . S
C444 C445 1.370 . S
C444 C448 1.524 . S
C445 C437 1.503 . S
C445 C444 1.370 . S
C445 C446 1.403 . S
C446 C445 1.403 . S
C446 C447 1.404 . S
C446 C449 1.539 . S
C447 C443 1.408 . S
C447 C446 1.404 . S
C447 H459 0.930 . S
C448 C444 1.524 . S
C448 H460 0.956 . S
C448 H461 0.961 . S
C448 H462 0.961 . S
C449 C446 1.539 . S
C449 H463 0.958 . S
C449 H464 0.961 . S
C449 H465 0.960 . S
H450 C434 0.931 . S
H451 C439 0.929 . S
H452 C440 0.960 . S
H453 C440 0.962 . S
H454 C440 0.960 . S
H455 C441 0.961 . S
H456 C441 0.961 . S
H457 C441 0.961 . S
H458 C442 0.931 . S
H459 C447 0.930 . S
H460 C448 0.956 . S
H461 C448 0.961 . S
H462 C448 0.961 . S
H463 C449 0.958 . S
H464 C449 0.961 . S
H465 C449 0.960 . S
C466 C467 1.391 . S
C466 C468 1.394 . S
C466 H482 0.931 . S
C467 C466 1.391 . S
C467 C471 1.376 . S
C468 C466 1.394 . S
C468 C469 1.369 . S
C468 C472 1.531 . S
C469 C468 1.369 . S
C469 C470 1.410 . S
C469 C477 1.503 . S
C470 C469 1.410 . S
C470 C471 1.392 . S
C470 C473 1.511 . S
C471 C467 1.376 . S
C471 C470 1.392 . S
C471 H483 0.929 . S
C472 C468 1.531 . S
C472 H484 0.960 . S
C472 H485 0.962 . S
C472 H486 0.960 . S
C473 C470 1.511 . S
C473 H487 0.961 . S
C473 H488 0.961 . S
C473 H489 0.961 . S
C474 C475 1.370 . S
C474 C476 1.363 . S
C474 H490 0.931 . S
C475 C474 1.370 . S
C475 C479 1.408 . S
C476 C474 1.363 . S
C476 C477 1.370 . S
C476 C480 1.524 . S
C477 C469 1.503 . S
C477 C476 1.370 . S
C477 C478 1.403 . S
C478 C477 1.403 . S
C478 C479 1.404 . S
C478 C481 1.539 . S
C479 C475 1.408 . S
C479 C478 1.404 . S
C479 H491 0.930 . S
C480 C476 1.524 . S
C480 H492 0.956 . S
C480 H493 0.961 . S
C480 H494 0.961 . S
C481 C478 1.539 . S
C481 H495 0.958 . S
C481 H496 0.961 . S
C481 H497 0.960 . S
H482 C466 0.931 . S
H483 C471 0.929 . S
H484 C472 0.960 . S
H485 C472 0.962 . S
H486 C472 0.960 . S
H487 C473 0.961 . S
H488 C473 0.961 . S
H489 C473 0.961 . S
H490 C474 0.931 . S
H491 C479 0.930 . S
H492 C480 0.956 . S
H493 C480 0.961 . S
H494 C480 0.961 . S
H495 C481 0.958 . S
H496 C481 0.961 . S
H497 C481 0.960 . S
C498 C499 1.391 . S
C498 C500 1.394 . S
C498 H514 0.931 . S
C499 C498 1.391 . S
C499 C503 1.376 . S
C500 C498 1.394 . S
C500 C501 1.369 . S
C500 C504 1.531 . S
C501 C500 1.369 . S
C501 C502 1.410 . S
C501 C509 1.503 . S
C502 C501 1.410 . S
C502 C503 1.392 . S
C502 C505 1.511 . S
C503 C499 1.376 . S
C503 C502 1.392 . S
C503 H515 0.929 . S
C504 C500 1.531 . S
C504 H516 0.960 . S
C504 H517 0.962 . S
C504 H518 0.960 . S
C505 C502 1.511 . S
C505 H519 0.961 . S
C505 H520 0.961 . S
C505 H521 0.961 . S
C506 C507 1.370 . S
C506 C508 1.363 . S
C506 H522 0.931 . S
C507 C506 1.370 . S
C507 C511 1.408 . S
C508 C506 1.363 . S
C508 C509 1.370 . S
C508 C512 1.524 1_554 S
C509 C501 1.503 . S
C509 C508 1.370 . S
C509 C510 1.403 . S
C510 C509 1.403 . S
C510 C511 1.404 . S
C510 C513 1.539 . S
C511 C507 1.408 . S
C511 C510 1.404 . S
C511 H523 0.930 . S
C512 C508 1.524 1_556 S
C512 H524 0.956 . S
C512 H525 0.961 . S
C512 H526 0.961 . S
C513 C510 1.539 . S
C513 H527 0.958 . S
C513 H528 0.961 . S
C513 H529 0.960 . S
H514 C498 0.931 . S
H515 C503 0.929 . S
H516 C504 0.960 . S
H517 C504 0.962 . S
H518 C504 0.960 . S
H519 C505 0.961 . S
H520 C505 0.961 . S
H521 C505 0.961 . S
H522 C506 0.931 . S
H523 C511 0.930 . S
H524 C512 0.956 . S
H525 C512 0.961 . S
H526 C512 0.961 . S
H527 C513 0.958 . S
H528 C513 0.961 . S
H529 C513 0.960 . S
C530 C531 1.391 . S
C530 C532 1.394 . S
C530 H546 0.931 . S
C531 C530 1.391 . S
C531 C535 1.376 . S
C532 C530 1.394 . S
C532 C533 1.369 . S
C532 C536 1.531 . S
C533 C532 1.369 . S
C533 C534 1.410 . S
C533 C541 1.503 . S
C534 C533 1.410 . S
C534 C535 1.392 . S
C534 C537 1.511 . S
C535 C531 1.376 . S
C535 C534 1.392 . S
C535 H547 0.929 . S
C536 C532 1.531 . S
C536 H548 0.960 . S
C536 H549 0.962 . S
C536 H550 0.960 . S
C537 C534 1.511 . S
C537 H551 0.961 . S
C537 H552 0.961 . S
C537 H553 0.961 . S
C538 C539 1.370 . S
C538 C540 1.363 . S
C538 H554 0.931 . S
C539 C538 1.370 . S
C539 C543 1.408 . S
C540 C538 1.363 . S
C540 C541 1.370 . S
C540 C544 1.524 . S
C541 C533 1.503 . S
C541 C540 1.370 . S
C541 C542 1.403 . S
C542 C541 1.403 . S
C542 C543 1.404 . S
C542 C545 1.539 . S
C543 C539 1.408 . S
C543 C542 1.404 . S
C543 H555 0.930 . S
C544 C540 1.524 . S
C544 H556 0.956 . S
C544 H557 0.961 . S
C544 H558 0.961 . S
C545 C542 1.539 . S
C545 H559 0.958 . S
C545 H560 0.961 . S
C545 H561 0.960 . S
H546 C530 0.931 . S
H547 C535 0.929 . S
H548 C536 0.960 . S
H549 C536 0.962 . S
H550 C536 0.960 . S
H551 C537 0.961 . S
H552 C537 0.961 . S
H553 C537 0.961 . S
H554 C538 0.931 . S
H555 C543 0.930 . S
H556 C544 0.956 . S
H557 C544 0.961 . S
H558 C544 0.961 . S
H559 C545 0.958 . S
H560 C545 0.961 . S
H561 C545 0.960 . S
C562 C563 1.391 . S
C562 C564 1.394 . S
C562 H578 0.931 . S
C563 C562 1.391 . S
C563 C567 1.376 . S
C564 C562 1.394 . S
C564 C565 1.369 . S
C564 C568 1.531 . S
C565 C564 1.369 . S
C565 C566 1.410 . S
C565 C573 1.503 . S
C566 C565 1.410 . S
C566 C567 1.392 . S
C566 C569 1.511 . S
C567 C563 1.376 . S
C567 C566 1.392 . S
C567 H579 0.929 . S
C568 C564 1.531 . S
C568 H580 0.960 . S
C568 H581 0.962 . S
C568 H582 0.960 . S
C569 C566 1.511 . S
C569 H583 0.961 . S
C569 H584 0.961 . S
C569 H585 0.961 . S
C570 C571 1.370 . S
C570 C572 1.363 . S
C570 H586 0.931 . S
C571 C570 1.370 . S
C571 C575 1.408 . S
C572 C570 1.363 . S
C572 C573 1.370 . S
C572 C576 1.524 . S
C573 C565 1.503 . S
C573 C572 1.370 . S
C573 C574 1.403 . S
C574 C573 1.403 . S
C574 C575 1.404 . S
C574 C577 1.539 . S
C575 C571 1.408 . S
C575 C574 1.404 . S
C575 H587 0.930 . S
C576 C572 1.524 . S
C576 H588 0.956 . S
C576 H589 0.961 . S
C576 H590 0.961 . S
C577 C574 1.539 . S
C577 H591 0.958 . S
C577 H592 0.961 . S
C577 H593 0.960 . S
H578 C562 0.931 . S
H579 C567 0.929 . S
H580 C568 0.960 . S
H581 C568 0.962 . S
H582 C568 0.960 . S
H583 C569 0.961 . S
H584 C569 0.961 . S
H585 C569 0.961 . S
H586 C570 0.931 . S
H587 C575 0.930 . S
H588 C576 0.956 . S
H589 C576 0.961 . S
H590 C576 0.961 . S
H591 C577 0.958 . S
H592 C577 0.961 . S
H593 C577 0.960 . S
C594 C595 1.391 . S
C594 C596 1.394 . S
C594 H610 0.931 . S
C595 C594 1.391 . S
C595 C599 1.376 . S
C596 C594 1.394 . S
C596 C597 1.369 . S
C596 C600 1.531 . S
C597 C596 1.369 . S
C597 C598 1.410 . S
C597 C605 1.503 . S
C598 C597 1.410 . S
C598 C599 1.392 . S
C598 C601 1.511 . S
C599 C595 1.376 . S
C599 C598 1.392 . S
C599 H611 0.929 . S
C600 C596 1.531 . S
C600 H612 0.960 . S
C600 H613 0.962 . S
C600 H614 0.960 . S
C601 C598 1.511 . S
C601 H615 0.961 . S
C601 H616 0.961 . S
C601 H617 0.961 . S
C602 C603 1.370 . S
C602 C604 1.363 . S
C602 H618 0.931 . S
C603 C602 1.370 . S
C603 C607 1.408 . S
C604 C602 1.363 . S
C604 C605 1.370 . S
C604 C608 1.524 . S
C605 C597 1.503 . S
C605 C604 1.370 . S
C605 C606 1.403 . S
C606 C605 1.403 . S
C606 C607 1.404 . S
C606 C609 1.539 . S
C607 C603 1.408 . S
C607 C606 1.404 . S
C607 H619 0.930 . S
C608 C604 1.524 . S
C608 H620 0.956 . S
C608 H621 0.961 . S
C608 H622 0.961 . S
C609 C606 1.539 . S
C609 H623 0.958 . S
C609 H624 0.961 . S
C609 H625 0.960 . S
H610 C594 0.931 . S
H611 C599 0.929 . S
H612 C600 0.960 . S
H613 C600 0.962 . S
H614 C600 0.960 . S
H615 C601 0.961 . S
H616 C601 0.961 . S
H617 C601 0.961 . S
H618 C602 0.931 . S
H619 C607 0.930 . S
H620 C608 0.956 . S
H621 C608 0.961 . S
H622 C608 0.961 . S
H623 C609 0.958 . S
H624 C609 0.961 . S
H625 C609 0.960 . S
C626 C627 1.391 . S
C626 C628 1.394 . S
C626 H642 0.931 . S
C627 C626 1.391 . S
C627 C631 1.376 . S
C628 C626 1.394 . S
C628 C629 1.369 . S
C628 C632 1.531 . S
C629 C628 1.369 . S
C629 C630 1.410 . S
C629 C637 1.503 . S
C630 C629 1.410 . S
C630 C631 1.392 . S
C630 C633 1.511 . S
C631 C627 1.376 . S
C631 C630 1.392 . S
C631 H643 0.929 . S
C632 C628 1.531 . S
C632 H644 0.960 . S
C632 H645 0.962 . S
C632 H646 0.960 . S
C633 C630 1.511 . S
C633 H647 0.961 . S
C633 H648 0.961 . S
C633 H649 0.961 . S
C634 C635 1.370 . S
C634 C636 1.363 . S
C634 H650 0.931 . S
C635 C634 1.370 . S
C635 C639 1.408 . S
C636 C634 1.363 . S
C636 C637 1.370 . S
C636 C640 1.524 . S
C637 C629 1.503 . S
C637 C636 1.370 . S
C637 C638 1.403 . S
C638 C637 1.403 . S
C638 C639 1.404 . S
C638 C641 1.539 . S
C639 C635 1.408 . S
C639 C638 1.404 . S
C639 H651 0.930 . S
C640 C636 1.524 . S
C640 H652 0.956 . S
C640 H653 0.961 . S
C640 H654 0.961 . S
C641 C638 1.539 . S
C641 H655 0.958 . S
C641 H656 0.961 . S
C641 H657 0.960 . S
H642 C626 0.931 . S
H643 C631 0.929 . S
H644 C632 0.960 . S
H645 C632 0.962 . S
H646 C632 0.960 . S
H647 C633 0.961 . S
H648 C633 0.961 . S
H649 C633 0.961 . S
H650 C634 0.931 . S
H651 C639 0.930 . S
H652 C640 0.956 . S
H653 C640 0.961 . S
H654 C640 0.961 . S
H655 C641 0.958 . S
H656 C641 0.961 . S
H657 C641 0.960 . S
C658 C659 1.391 . S
C658 C660 1.394 . S
C658 H674 0.931 . S
C659 C658 1.391 . S
C659 C663 1.376 . S
C660 C658 1.394 . S
C660 C661 1.369 . S
C660 C664 1.531 . S
C661 C660 1.369 . S
C661 C662 1.410 . S
C661 C669 1.503 . S
C662 C661 1.410 . S
C662 C663 1.392 . S
C662 C665 1.511 . S
C663 C659 1.376 . S
C663 C662 1.392 . S
C663 H675 0.929 . S
C664 C660 1.531 . S
C664 H676 0.960 . S
C664 H677 0.962 . S
C664 H678 0.960 . S
C665 C662 1.511 . S
C665 H679 0.961 . S
C665 H680 0.961 . S
C665 H681 0.961 . S
C666 C667 1.370 . S
C666 C668 1.363 . S
C666 H682 0.931 . S
C667 C666 1.370 . S
C667 C671 1.408 . S
C668 C666 1.363 . S
C668 C669 1.370 . S
C668 C672 1.524 . S
C669 C661 1.503 . S
C669 C668 1.370 . S
C669 C670 1.403 . S
C670 C669 1.403 . S
C670 C671 1.404 . S
C670 C673 1.539 . S
C671 C667 1.408 . S
C671 C670 1.404 . S
C671 H683 0.930 . S
C672 C668 1.524 . S
C672 H684 0.956 . S
C672 H685 0.961 . S
C672 H686 0.961 . S
C673 C670 1.539 . S
C673 H687 0.958 . S
C673 H688 0.961 . S
C673 H689 0.960 . S
H674 C658 0.931 . S
H675 C663 0.929 . S
H676 C664 0.960 . S
H677 C664 0.962 . S
H678 C664 0.960 . S
H679 C665 0.961 . S
H680 C665 0.961 . S
H681 C665 0.961 . S
H682 C666 0.931 . S
H683 C671 0.930 . S
H684 C672 0.956 . S
H685 C672 0.961 . S
H686 C672 0.961 . S
H687 C673 0.958 . S
H688 C673 0.961 . S
H689 C673 0.960 . S
C690 C691 1.391 . S
C690 C692 1.394 . S
C690 H706 0.931 . S
C691 C690 1.391 . S
C691 C695 1.376 . S
C692 C690 1.394 . S
C692 C693 1.369 . S
C692 C696 1.531 . S
C693 C692 1.369 . S
C693 C694 1.410 . S
C693 C701 1.503 . S
C694 C693 1.410 . S
C694 C695 1.392 . S
C694 C697 1.511 . S
C695 C691 1.376 . S
C695 C694 1.392 . S
C695 H707 0.929 . S
C696 C692 1.531 . S
C696 H708 0.960 . S
C696 H709 0.962 . S
C696 H710 0.960 . S
C697 C694 1.511 . S
C697 H711 0.961 . S
C697 H712 0.961 . S
C697 H713 0.961 . S
C698 C699 1.370 1_556 S
C698 C700 1.363 . S
C698 H714 0.931 . S
C699 C698 1.370 1_554 S
C699 C703 1.408 . S
C700 C698 1.363 . S
C700 C701 1.370 . S
C700 C704 1.524 . S
C701 C693 1.503 . S
C701 C700 1.370 . S
C701 C702 1.403 . S
C702 C701 1.403 . S
C702 C703 1.404 1_556 S
C702 C705 1.549 . S
C703 C699 1.408 . S
C703 C702 1.404 1_554 S
C703 H715 0.930 . S
C704 C700 1.524 . S
C704 H716 0.956 . S
C704 H717 0.961 . S
C704 H718 0.961 . S
C705 C702 1.549 . S
C705 H719 0.948 1_556 S
C705 H720 0.934 1_556 S
C705 H721 0.989 . S
H706 C690 0.931 . S
H707 C695 0.929 . S
H708 C696 0.960 . S
H709 C696 0.962 . S
H710 C696 0.960 . S
H711 C697 0.961 . S
H712 C697 0.961 . S
H713 C697 0.961 . S
H714 C698 0.931 . S
H715 C703 0.930 . S
H716 C704 0.956 . S
H717 C704 0.961 . S
H718 C704 0.961 . S
H719 C705 0.948 1_554 S
H720 C705 0.934 1_554 S
H721 C705 0.989 . S
C722 C723 1.391 . S
C722 C724 1.394 . S
C722 H738 0.931 . S
C723 C722 1.391 . S
C723 C727 1.376 . S
C724 C722 1.394 . S
C724 C725 1.369 . S
C724 C728 1.531 . S
C725 C724 1.369 . S
C725 C726 1.410 . S
C725 C733 1.503 . S
C726 C725 1.410 . S
C726 C727 1.392 . S
C726 C729 1.511 . S
C727 C723 1.376 . S
C727 C726 1.392 . S
C727 H739 0.929 . S
C728 C724 1.531 . S
C728 H740 0.960 . S
C728 H741 0.962 . S
C728 H742 0.960 . S
C729 C726 1.511 . S
C729 H743 0.961 . S
C729 H744 0.961 . S
C729 H745 0.961 . S
C730 C731 1.370 . S
C730 C732 1.363 . S
C730 H746 0.931 . S
C731 C730 1.370 . S
C731 C735 1.408 . S
C732 C730 1.363 . S
C732 C733 1.370 . S
C732 C736 1.524 . S
C733 C725 1.503 . S
C733 C732 1.370 . S
C733 C734 1.403 . S
C734 C733 1.403 . S
C734 C735 1.404 . S
C734 C737 1.539 . S
C735 C731 1.408 . S
C735 C734 1.404 . S
C735 H747 0.930 . S
C736 C732 1.524 . S
C736 H748 0.956 . S
C736 H749 0.961 . S
C736 H750 0.961 . S
C737 C734 1.539 . S
C737 H751 0.958 . S
C737 H752 0.961 . S
C737 H753 0.960 . S
H738 C722 0.931 . S
H739 C727 0.929 . S
H740 C728 0.960 . S
H741 C728 0.962 . S
H742 C728 0.960 . S
H743 C729 0.961 . S
H744 C729 0.961 . S
H745 C729 0.961 . S
H746 C730 0.931 . S
H747 C735 0.930 . S
H748 C736 0.956 . S
H749 C736 0.961 . S
H750 C736 0.961 . S
H751 C737 0.958 . S
H752 C737 0.961 . S
H753 C737 0.960 . S
C754 C755 1.391 . S
C754 C756 1.394 . S
C754 H770 0.931 . S
C755 C754 1.391 . S
C755 C759 1.376 . S
C756 C754 1.394 . S
C756 C757 1.369 . S
C756 C760 1.531 . S
C757 C756 1.369 . S
C757 C758 1.410 . S
C757 C765 1.503 . S
C758 C757 1.410 . S
C758 C759 1.392 . S
C758 C761 1.511 . S
C759 C755 1.376 . S
C759 C758 1.392 . S
C759 H771 0.929 . S
C760 C756 1.531 . S
C760 H772 0.960 . S
C760 H773 0.962 . S
C760 H774 0.960 . S
C761 C758 1.511 . S
C761 H775 0.961 . S
C761 H776 0.961 . S
C761 H777 0.961 . S
C762 C763 1.370 . S
C762 C764 1.363 . S
C762 H778 0.931 . S
C763 C762 1.370 . S
C763 C767 1.408 . S
C764 C762 1.363 . S
C764 C765 1.370 . S
C764 C768 1.524 . S
C765 C757 1.503 . S
C765 C764 1.370 . S
C765 C766 1.403 . S
C766 C765 1.403 . S
C766 C767 1.404 . S
C766 C769 1.539 . S
C767 C763 1.408 . S
C767 C766 1.404 . S
C767 H779 0.930 . S
C768 C764 1.524 . S
C768 H780 0.956 . S
C768 H781 0.961 . S
C768 H782 0.961 . S
C769 C766 1.539 . S
C769 H783 0.958 . S
C769 H784 0.961 . S
C769 H785 0.960 . S
H770 C754 0.931 . S
H771 C759 0.929 . S
H772 C760 0.960 . S
H773 C760 0.962 . S
H774 C760 0.960 . S
H775 C761 0.961 . S
H776 C761 0.961 . S
H777 C761 0.961 . S
H778 C762 0.931 . S
H779 C767 0.930 . S
H780 C768 0.956 . S
H781 C768 0.961 . S
H782 C768 0.961 . S
H783 C769 0.958 . S
H784 C769 0.961 . S
H785 C769 0.960 . S
C786 C787 1.391 . S
C786 C788 1.394 . S
C786 H802 0.931 . S
C787 C786 1.391 . S
C787 C791 1.376 . S
C788 C786 1.394 . S
C788 C789 1.369 . S
C788 C792 1.531 . S
C789 C788 1.369 . S
C789 C790 1.410 . S
C789 C797 1.503 . S
C790 C789 1.410 . S
C790 C791 1.392 . S
C790 C793 1.511 . S
C791 C787 1.376 . S
C791 C790 1.392 . S
C791 H803 0.929 . S
C792 C788 1.531 . S
C792 H804 0.960 . S
C792 H805 0.962 . S
C792 H806 0.960 . S
C793 C790 1.511 . S
C793 H807 0.961 . S
C793 H808 0.961 . S
C793 H809 0.961 . S
C794 C795 1.370 . S
C794 C796 1.363 . S
C794 H810 0.931 . S
C795 C794 1.370 . S
C795 C799 1.408 . S
C796 C794 1.363 . S
C796 C797 1.370 . S
C796 C800 1.524 . S
C797 C789 1.503 . S
C797 C796 1.370 . S
C797 C798 1.403 . S
C798 C797 1.403 . S
C798 C799 1.404 . S
C798 C801 1.539 . S
C799 C795 1.408 . S
C799 C798 1.404 . S
C799 H811 0.930 . S
C800 C796 1.524 . S
C800 H812 0.956 . S
C800 H813 0.961 . S
C800 H814 0.961 . S
C801 C798 1.539 . S
C801 H815 0.958 . S
C801 H816 0.961 . S
C801 H817 0.960 . S
H802 C786 0.931 . S
H803 C791 0.929 . S
H804 C792 0.960 . S
H805 C792 0.962 . S
H806 C792 0.960 . S
H807 C793 0.961 . S
H808 C793 0.961 . S
H809 C793 0.961 . S
H810 C794 0.931 . S
H811 C799 0.930 . S
H812 C800 0.956 . S
H813 C800 0.961 . S
H814 C800 0.961 . S
H815 C801 0.958 . S
H816 C801 0.961 . S
H817 C801 0.960 . S
C818 C819 1.391 . S
C818 C820 1.394 . S
C818 H834 0.931 . S
C819 C818 1.391 . S
C819 C823 1.376 . S
C820 C818 1.394 . S
C820 C821 1.369 . S
C820 C824 1.531 . S
C821 C820 1.369 . S
C821 C822 1.410 . S
C821 C829 1.503 . S
C822 C821 1.410 . S
C822 C823 1.392 . S
C822 C825 1.511 . S
C823 C819 1.376 . S
C823 C822 1.392 . S
C823 H835 0.929 . S
C824 C820 1.531 . S
C824 H836 0.960 . S
C824 H837 0.962 . S
C824 H838 0.960 . S
C825 C822 1.511 . S
C825 H839 0.961 . S
C825 H840 0.961 . S
C825 H841 0.961 . S
C826 C827 1.370 . S
C826 C828 1.363 . S
C826 H842 0.931 . S
C827 C826 1.370 . S
C827 C831 1.408 . S
C828 C826 1.363 . S
C828 C829 1.370 . S
C828 C832 1.524 . S
C829 C821 1.503 . S
C829 C828 1.370 . S
C829 C830 1.403 . S
C830 C829 1.403 . S
C830 C831 1.404 . S
C830 C833 1.539 . S
C831 C827 1.408 . S
C831 C830 1.404 . S
C831 H843 0.930 . S
C832 C828 1.524 . S
C832 H844 0.956 . S
C832 H845 0.961 . S
C832 H846 0.961 . S
C833 C830 1.539 . S
C833 H847 0.958 . S
C833 H848 0.961 . S
C833 H849 0.960 . S
H834 C818 0.931 . S
H835 C823 0.929 . S
H836 C824 0.960 . S
H837 C824 0.962 . S
H838 C824 0.960 . S
H839 C825 0.961 . S
H840 C825 0.961 . S
H841 C825 0.961 . S
H842 C826 0.931 . S
H843 C831 0.930 . S
H844 C832 0.956 . S
H845 C832 0.961 . S
H846 C832 0.961 . S
H847 C833 0.958 . S
H848 C833 0.961 . S
H849 C833 0.960 . S
C850 C851 1.391 . S
C850 C852 1.394 . S
C850 H866 0.931 . S
C851 C850 1.391 . S
C851 C855 1.376 . S
C852 C850 1.394 . S
C852 C853 1.369 . S
C852 C856 1.531 . S
C853 C852 1.369 . S
C853 C854 1.410 . S
C853 C861 1.503 . S
C854 C853 1.410 . S
C854 C855 1.392 . S
C854 C857 1.511 . S
C855 C851 1.376 . S
C855 C854 1.392 . S
C855 H867 0.929 . S
C856 C852 1.531 . S
C856 H868 0.960 . S
C856 H869 0.962 . S
C856 H870 0.960 . S
C857 C854 1.511 . S
C857 H871 0.961 . S
C857 H872 0.961 . S
C857 H873 0.961 . S
C858 C859 1.370 . S
C858 C860 1.363 . S
C858 H874 0.931 . S
C859 C858 1.370 . S
C859 C863 1.408 . S
C860 C858 1.363 . S
C860 C861 1.370 . S
C860 C864 1.524 . S
C861 C853 1.503 . S
C861 C860 1.370 . S
C861 C862 1.403 . S
C862 C861 1.403 . S
C862 C863 1.404 . S
C862 C865 1.539 . S
C863 C859 1.408 . S
C863 C862 1.404 . S
C863 H875 0.930 . S
C864 C860 1.524 . S
C864 H876 0.956 . S
C864 H877 0.961 . S
C864 H878 0.961 . S
C865 C862 1.539 . S
C865 H879 0.958 . S
C865 H880 0.961 . S
C865 H881 0.960 . S
H866 C850 0.931 . S
H867 C855 0.929 . S
H868 C856 0.960 . S
H869 C856 0.962 . S
H870 C856 0.960 . S
H871 C857 0.961 . S
H872 C857 0.961 . S
H873 C857 0.961 . S
H874 C858 0.931 . S
H875 C863 0.930 . S
H876 C864 0.956 . S
H877 C864 0.961 . S
H878 C864 0.961 . S
H879 C865 0.958 . S
H880 C865 0.961 . S
H881 C865 0.960 . S
C882 C883 1.391 . S
C882 C884 1.394 . S
C882 H898 0.931 . S
C883 C882 1.391 . S
C883 C887 1.376 . S
C884 C882 1.394 . S
C884 C885 1.369 . S
C884 C888 1.531 . S
C885 C884 1.369 . S
C885 C886 1.410 . S
C885 C893 1.503 . S
C886 C885 1.410 . S
C886 C887 1.392 . S
C886 C889 1.511 . S
C887 C883 1.376 . S
C887 C886 1.392 . S
C887 H899 0.929 . S
C888 C884 1.531 . S
C888 H900 0.960 . S
C888 H901 0.962 . S
C888 H902 0.960 . S
C889 C886 1.511 . S
C889 H903 0.961 . S
C889 H904 0.961 . S
C889 H905 0.961 . S
C890 C891 1.370 . S
C890 C892 1.363 . S
C890 H906 0.931 . S
C891 C890 1.370 . S
C891 C895 1.408 . S
C892 C890 1.363 . S
C892 C893 1.370 . S
C892 C896 1.524 . S
C893 C885 1.503 . S
C893 C892 1.370 . S
C893 C894 1.403 . S
C894 C893 1.403 . S
C894 C895 1.404 . S
C894 C897 1.539 . S
C895 C891 1.408 . S
C895 C894 1.404 . S
C895 H907 0.930 . S
C896 C892 1.524 . S
C896 H908 0.956 . S
C896 H909 0.961 . S
C896 H910 0.961 . S
C897 C894 1.539 . S
C897 H911 0.958 . S
C897 H912 0.961 . S
C897 H913 0.960 . S
H898 C882 0.931 . S
H899 C887 0.929 . S
H900 C888 0.960 . S
H901 C888 0.962 . S
H902 C888 0.960 . S
H903 C889 0.961 . S
H904 C889 0.961 . S
H905 C889 0.961 . S
H906 C890 0.931 . S
H907 C895 0.930 . S
H908 C896 0.956 . S
H909 C896 0.961 . S
H910 C896 0.961 . S
H911 C897 0.958 . S
H912 C897 0.961 . S
H913 C897 0.960 . S
C914 C915 1.391 . S
C914 C916 1.394 . S
C914 H930 0.931 . S
C915 C914 1.391 . S
C915 C919 1.376 . S
C916 C914 1.394 . S
C916 C917 1.369 . S
C916 C920 1.531 . S
C917 C916 1.369 . S
C917 C918 1.410 . S
C917 C925 1.503 . S
C918 C917 1.410 . S
C918 C919 1.392 . S
C918 C921 1.511 . S
C919 C915 1.376 . S
C919 C918 1.392 . S
C919 H931 0.929 . S
C920 C916 1.531 . S
C920 H932 0.960 . S
C920 H933 0.978 . S
C920 H934 0.960 . S
C921 C918 1.511 . S
C921 H935 0.961 . S
C921 H936 0.961 . S
C921 H937 0.961 . S
C922 C923 1.370 . S
C922 C924 1.363 1_556 S
C922 H938 0.931 . S
C923 C922 1.370 . S
C923 C927 1.408 . S
C924 C922 1.363 1_554 S
C924 C925 1.370 . S
C924 C928 1.524 . S
C925 C917 1.503 . S
C925 C924 1.370 . S
C925 C926 1.403 . S
C926 C925 1.403 . S
C926 C927 1.404 1_554 S
C926 C929 1.539 . S
C927 C923 1.408 . S
C927 C926 1.404 1_556 S
C927 H939 0.930 . S
C928 C924 1.524 . S
C928 H940 0.956 . S
C928 H941 0.961 . S
C928 H942 0.961 . S
C929 C926 1.539 . S
C929 H943 0.958 . S
C929 H944 0.961 . S
C929 H945 0.960 . S
H930 C914 0.931 . S
H931 C919 0.929 . S
H932 C920 0.960 . S
H933 C920 0.978 . S
H934 C920 0.960 . S
H935 C921 0.961 . S
H936 C921 0.961 . S
H937 C921 0.961 . S
H938 C922 0.931 . S
H939 C927 0.930 . S
H940 C928 0.956 . S
H941 C928 0.961 . S
H942 C928 0.961 . S
H943 C929 0.958 . S
H944 C929 0.961 . S
H945 C929 0.960 . S
C946 C947 1.391 . S
C946 C948 1.394 . S
C946 H962 0.931 . S
C947 C946 1.391 . S
C947 C951 1.376 . S
C948 C946 1.394 . S
C948 C949 1.369 . S
C948 C952 1.531 . S
C949 C948 1.369 . S
C949 C950 1.410 . S
C949 C957 1.503 . S
C950 C949 1.410 . S
C950 C951 1.392 . S
C950 C953 1.511 . S
C951 C947 1.376 . S
C951 C950 1.392 . S
C951 H963 0.929 . S
C952 C948 1.531 . S
C952 H964 0.960 . S
C952 H965 0.962 . S
C952 H966 0.960 . S
C953 C950 1.511 . S
C953 H967 0.961 . S
C953 H968 0.961 . S
C953 H969 0.961 . S
C954 C955 1.370 . S
C954 C956 1.363 . S
C954 H970 0.931 . S
C955 C954 1.370 . S
C955 C959 1.408 . S
C956 C954 1.363 . S
C956 C957 1.370 . S
C956 C960 1.524 . S
C957 C949 1.503 . S
C957 C956 1.370 . S
C957 C958 1.403 . S
C958 C957 1.403 . S
C958 C959 1.404 . S
C958 C961 1.539 . S
C959 C955 1.408 . S
C959 C958 1.404 . S
C959 H971 0.930 . S
C960 C956 1.524 . S
C960 H972 0.956 . S
C960 H973 0.961 . S
C960 H974 0.961 . S
C961 C958 1.539 . S
C961 H975 0.958 . S
C961 H976 0.961 . S
C961 H977 0.960 . S
H962 C946 0.931 . S
H963 C951 0.929 . S
H964 C952 0.960 . S
H965 C952 0.962 . S
H966 C952 0.960 . S
H967 C953 0.961 . S
H968 C953 0.961 . S
H969 C953 0.961 . S
H970 C954 0.931 . S
H971 C959 0.930 . S
H972 C960 0.956 . S
H973 C960 0.961 . S
H974 C960 0.961 . S
H975 C961 0.958 . S
H976 C961 0.961 . S
H977 C961 0.960 . S
C219 C199 1.601 . S
C211 C19 1.534 . S
C243 C40 1.500 . S
C251 C129 1.599 . S
C275 C51 1.509 . S
C283 C148 1.621 . S
C307 C72 1.502 . S
C315 C157 1.606 . S
C347 C171 1.598 . S
C339 C103 1.535 . S
C371 C114 1.536 . S
C379 C190 1.610 . S
C403 C30 1.529 . S
C411 C143 1.600 . S
C435 C61 1.511 . S
C443 C162 1.595 . S
C467 C82 1.466 . S
C475 C176 1.595 . S
C507 C185 1.593 . S
C499 C93 1.513 1_554 S
C539 C204 1.595 . S
C531 C124 1.473 . S
C571 C134 1.596 . S
C563 C9 1.522 . S
C595 C17 1.462 . S
C603 C149 1.518 . S
C627 C38 1.432 . S
C635 C161 1.490 . S
C667 C175 1.489 . S
C659 C54 1.434 . S
C691 C75 1.465 . S
C699 C191 1.512 . S
C731 C203 1.482 . S
C723 C101 1.467 . S
C763 C133 1.482 . S
C755 C117 1.445 . S
C795 C205 1.517 . S
C787 C33 1.473 . S
C819 C59 1.419 . S
C827 C135 1.519 . S
C859 C147 1.499 . S
C851 C80 1.447 . S
C883 C96 1.470 . S
C891 C163 1.522 . S
C915 C122 1.445 . S
C923 C177 1.530 . S
C947 C12 1.466 . S
C955 C189 1.498 . S
