# Generated by pormake.
# Topology zzz, (3,6)-cn, num edge types: 1
# Building blocks:
#     Node 0, Type 0, BuildingBlock: KAKCAD_clean_linker_0, # of connection points: 3
#     Node 1, Type 0, BuildingBlock: KAKCAD_clean_linker_0, # of connection points: 3
#     Node 2, Type 0, BuildingBlock: KAKCAD_clean_linker_0, # of connection points: 3
#     Node 3, Type 0, BuildingBlock: KAKCAD_clean_linker_0, # of connection points: 3
#     Node 4, Type 0, BuildingBlock: KAKCAD_clean_linker_0, # of connection points: 3
#     Node 5, Type 0, BuildingBlock: KAKCAD_clean_linker_0, # of connection points: 3
#     Node 6, Type 0, BuildingBlock: KAKCAD_clean_linker_0, # of connection points: 3
#     Node 7, Type 0, BuildingBlock: KAKCAD_clean_linker_0, # of connection points: 3
#     Node 8, Type 1, BuildingBlock: BETGAK_clean_sbu_0, # of connection points: 6
#     Node 9, Type 1, BuildingBlock: BETGAK_clean_sbu_0, # of connection points: 6
#     Node 10, Type 1, BuildingBlock: BETGAK_clean_sbu_0, # of connection points: 6
#     Node 11, Type 1, BuildingBlock: BETGAK_clean_sbu_0, # of connection points: 6
#     Edge 12, Type (0, 1), BuildingBlock: ZUJKAS_clean_linker_0, # of connection points: 2
#     Edge 13, Type (0, 1), BuildingBlock: ZUJKAS_clean_linker_0, # of connection points: 2
#     Edge 14, Type (0, 1), BuildingBlock: ZUJKAS_clean_linker_0, # of connection points: 2
#     Edge 15, Type (0, 1), BuildingBlock: ZUJKAS_clean_linker_0, # of connection points: 2
#     Edge 16, Type (0, 1), BuildingBlock: ZUJKAS_clean_linker_0, # of connection points: 2
#     Edge 17, Type (0, 1), BuildingBlock: ZUJKAS_clean_linker_0, # of connection points: 2
#     Edge 18, Type (0, 1), BuildingBlock: ZUJKAS_clean_linker_0, # of connection points: 2
#     Edge 19, Type (0, 1), BuildingBlock: ZUJKAS_clean_linker_0, # of connection points: 2
#     Edge 20, Type (0, 1), BuildingBlock: ZUJKAS_clean_linker_0, # of connection points: 2
#     Edge 21, Type (0, 1), BuildingBlock: ZUJKAS_clean_linker_0, # of connection points: 2
#     Edge 22, Type (0, 1), BuildingBlock: ZUJKAS_clean_linker_0, # of connection points: 2
#     Edge 23, Type (0, 1), BuildingBlock: ZUJKAS_clean_linker_0, # of connection points: 2
#     Edge 24, Type (0, 1), BuildingBlock: ZUJKAS_clean_linker_0, # of connection points: 2
#     Edge 25, Type (0, 1), BuildingBlock: ZUJKAS_clean_linker_0, # of connection points: 2
#     Edge 26, Type (0, 1), BuildingBlock: ZUJKAS_clean_linker_0, # of connection points: 2
#     Edge 27, Type (0, 1), BuildingBlock: ZUJKAS_clean_linker_0, # of connection points: 2
#     Edge 28, Type (0, 1), BuildingBlock: ZUJKAS_clean_linker_0, # of connection points: 2
#     Edge 29, Type (0, 1), BuildingBlock: ZUJKAS_clean_linker_0, # of connection points: 2
#     Edge 30, Type (0, 1), BuildingBlock: ZUJKAS_clean_linker_0, # of connection points: 2
#     Edge 31, Type (0, 1), BuildingBlock: ZUJKAS_clean_linker_0, # of connection points: 2
#     Edge 32, Type (0, 1), BuildingBlock: ZUJKAS_clean_linker_0, # of connection points: 2
#     Edge 33, Type (0, 1), BuildingBlock: ZUJKAS_clean_linker_0, # of connection points: 2
#     Edge 34, Type (0, 1), BuildingBlock: ZUJKAS_clean_linker_0, # of connection points: 2
#     Edge 35, Type (0, 1), BuildingBlock: ZUJKAS_clean_linker_0, # of connection points: 2
# Relax obj value: 0.415
# Max RMSD: 0.271
# Mean RMSD: 0.251
data_MOF--net-zzz--node1-BETGAK_clean_sbu_0--node2-KAKCAD_clean_linker_0--edge1-ZUJKAS_clean_linker_0
_symmetry_space_group_name_H-M    P1
_symmetry_Int_Tables_number       1
_symmetry_cell_setting            triclinic
loop_
_symmetry_equiv_pos_as_xyz
'x, y, z'
_cell_length_a     75.236945
_cell_length_b     75.192659
_cell_length_c     22.848625
_cell_angle_alpha  89.895287
_cell_angle_beta   90.026894
_cell_angle_gamma 90.1126
loop_
_atom_site_label
_atom_site_type_symbol
_atom_site_fract_x
_atom_site_fract_y
_atom_site_fract_z
_atom_type_partial_charge
C0 C 0.75457 0.48841 0.99174 0.0
C1 C 0.76287 0.47165 0.99115 0.0
C2 C 0.74654 0.49473 0.04263 0.0
C3 C 0.74687 0.48455 0.09411 0.0
C4 C 0.75448 0.46756 0.09323 0.0
C5 C 0.76222 0.46107 0.04205 0.0
C6 C 0.73989 0.49202 0.14914 0.0
C7 C 0.72274 0.49897 0.15105 0.0
C8 C 0.71606 0.50659 0.2024 0.0
C9 C 0.72701 0.50766 0.25261 0.0
C10 C 0.74449 0.50073 0.25089 0.0
C11 C 0.75062 0.49277 0.19908 0.0
C12 C 0.75718 0.50213 0.30075 0.0
C13 C 0.76253 0.51881 0.3221 0.0
C14 C 0.76649 0.48693 0.31931 0.0
C15 C 0.78147 0.48843 0.3553 0.0
C16 C 0.78765 0.5052 0.37359 0.0
C17 C 0.6973 0.5125 0.20085 0.0
C18 C 0.69262 0.52675 0.16413 0.0
C19 C 0.68393 0.50083 0.22004 0.0
C20 C 0.66652 0.50246 0.19878 0.0
C21 C 0.66215 0.51579 0.1578 0.0
C22 C 0.67522 0.52845 0.14307 0.0
C23 C 0.77764 0.52034 0.35799 0.0
H24 H 0.75504 0.49707 0.95387 0.0
H25 H 0.74078 0.50793 0.04249 0.0
H26 H 0.75461 0.45939 0.13235 0.0
H27 H 0.76813 0.44796 0.04287 0.0
H28 H 0.71438 0.49816 0.11242 0.0
H29 H 0.7641 0.48773 0.19684 0.0
H30 H 0.722 0.5137 0.29231 0.0
H31 H 0.75574 0.53077 0.308 0.0
H32 H 0.76274 0.47391 0.30323 0.0
H33 H 0.78882 0.47647 0.36575 0.0
H34 H 0.70279 0.53566 0.14757 0.0
H35 H 0.68728 0.48951 0.24727 0.0
H36 H 0.78183 0.53346 0.37192 0.0
H37 H 0.67244 0.5388 0.11138 0.0
H38 H 0.65673 0.49265 0.21177 0.0
C39 C 0.05768 0.75376 0.02703 0.0
C40 C 0.07001 0.76673 0.04476 0.0
C41 C 0.04769 0.74444 0.06842 0.0
C42 C 0.04994 0.74777 0.12852 0.0
C43 C 0.06349 0.75949 0.1463 0.0
C44 C 0.0734 0.76892 0.10483 0.0
C45 C 0.03686 0.7407 0.17144 0.0
C46 C 0.0297 0.72362 0.16498 0.0
C47 C 0.01547 0.71778 0.19991 0.0
C48 C 0.00839 0.7293 0.24279 0.0
C49 C 0.01612 0.74623 0.25169 0.0
C50 C 0.03019 0.75174 0.21559 0.0
C51 C 0.00976 0.75895 0.29682 0.0
C52 C 0.99279 0.76659 0.29308 0.0
C53 C 0.02201 0.76601 0.33703 0.0
C54 C 0.0178 0.78098 0.37041 0.0
C55 C 1.00122 0.78941 0.36433 0.0
C56 C 0.00806 0.69984 0.18766 0.0
C57 C 0.99083 0.69791 0.16487 0.0
C58 C 0.01953 0.68512 0.18692 0.0
C59 C 0.01441 0.66921 0.16015 0.0
C60 C 0.99767 0.66761 0.13314 0.0
C61 C 0.98569 0.68195 0.13778 0.0
C62 C 0.98857 0.78171 0.3264 0.0
H63 H 0.05497 0.75159 0.98102 0.0
H64 H 0.03736 0.73556 0.053 0.0
H65 H 0.06583 0.76206 0.1923 0.0
H66 H 0.08277 0.77884 0.12 0.0
H67 H 0.03488 0.71493 0.13125 0.0
H68 H 0.03539 0.76512 0.22036 0.0
H69 H 0.9973 0.72502 0.26958 0.0
H70 H 0.98319 0.76156 0.26185 0.0
H71 H 0.03527 0.76048 0.34027 0.0
H72 H 0.028 0.78654 0.39844 0.0
H73 H 0.98181 0.70912 0.16428 0.0
H74 H 0.03294 0.68633 0.20375 0.0
H75 H 0.97558 0.78769 0.32111 0.0
H76 H 0.97259 0.68111 0.11831 0.0
H77 H 0.0241 0.65862 0.15717 0.0
C78 C 0.7452 0.05732 0.05219 0.0
C79 C 0.73291 0.06958 0.0749 0.0
C80 C 0.75485 0.04623 0.08956 0.0
C81 C 0.75261 0.04732 0.15055 0.0
C82 C 0.74168 0.06078 0.17331 0.0
C83 C 0.73186 0.07171 0.13596 0.0
C84 C 0.76 0.0333 0.18957 0.0
C85 C 0.77666 0.02572 0.17851 0.0
C86 C 0.78275 0.01116 0.21128 0.0
C87 C 0.77205 1.00409 0.25649 0.0
C88 C 0.7555 0.01199 0.26927 0.0
C89 C 0.74965 0.02644 0.23544 0.0
C90 C 0.74348 1.00544 0.31619 0.0
C91 C 0.73469 0.98904 0.31068 0.0
C92 C 0.738 0.01724 0.36021 0.0
C93 C 0.72345 0.0132 0.39593 0.0
C94 C 0.71384 0.9973 0.38822 0.0
C95 C 0.80026 1.00364 0.19541 0.0
C96 C 0.80134 0.99059 0.15173 0.0
C97 C 0.81581 0.01247 0.21293 0.0
C98 C 0.83202 0.00901 0.18506 0.0
C99 C 0.83297 0.9968 0.13848 0.0
C100 C 0.81754 0.98715 0.12367 0.0
C101 C 0.71998 0.98502 0.34626 0.0
H102 H 0.74664 0.0556 0.00538 0.0
H103 H 0.76315 0.03605 0.07034 0.0
H104 H 0.74002 0.0623 0.22011 0.0
H105 H 0.72252 0.08093 0.15526 0.0
H106 H 0.78491 0.03102 0.14367 0.0
H107 H 0.73654 0.03186 0.24363 0.0
H108 H 0.77662 0.99277 0.28171 0.0
H109 H 0.73847 0.97984 0.27646 0.0
H110 H 0.7444 0.03009 0.36474 0.0
H111 H 0.71908 0.02308 0.42715 0.0
H112 H 0.78941 0.98396 0.13648 0.0
H113 H 0.81521 0.02283 0.24575 0.0
H114 H 0.71305 0.97255 0.33956 0.0
H115 H 0.81767 0.97779 0.08772 0.0
H116 H 0.84365 0.01648 0.19835 0.0
C117 C 0.49957 0.7261 0.39719 0.0
C118 C 0.51346 0.7136 0.39358 0.0
C119 C 0.49945 0.74124 0.3611 0.0
C120 C 0.51315 0.74413 0.32048 0.0
C121 C 0.52743 0.73213 0.31871 0.0
C122 C 0.52767 0.71713 0.35519 0.0
C123 C 0.51059 0.75691 0.27165 0.0
C124 C 0.51261 0.77551 0.27819 0.0
C125 C 0.5095 0.78685 0.22986 0.0
C126 C 0.50399 0.77958 0.17643 0.0
C127 C 0.50208 0.76125 0.1697 0.0
C128 C 0.50557 0.74997 0.21706 0.0
C129 C 0.49649 0.75393 0.11281 0.0
C130 C 0.4805 0.75947 0.08688 0.0
C131 C 0.5071 0.74134 0.08431 0.0
C132 C 0.50169 0.73418 0.03091 0.0
C133 C 0.48543 0.73928 0.00579 0.0
C134 C 0.51225 0.80632 0.23118 0.0
C135 C 0.49745 0.81752 0.23658 0.0
C136 C 0.52811 0.81333 0.20829 0.0
C137 C 0.52873 0.83076 0.18664 0.0
C138 C 0.51344 0.84154 0.18715 0.0
C139 C 0.49807 0.83499 0.21516 0.0
C140 C 0.47488 0.75202 0.03401 0.0
H141 H 0.4885 0.72389 0.42661 0.0
H142 H 0.48811 0.75009 0.36237 0.0
H143 H 0.53793 0.73386 0.28678 0.0
H144 H 0.53847 0.70774 0.35072 0.0
H145 H 0.51669 0.78103 0.31985 0.0
H146 H 0.50396 0.73572 0.21183 0.0
H147 H 0.50154 0.78828 0.13932 0.0
H148 H 0.47213 0.76919 0.10835 0.0
H149 H 0.51954 0.737 0.10349 0.0
H150 H 0.50988 0.72415 0.01032 0.0
H151 H 0.48496 0.8123 0.25283 0.0
H152 H 0.53954 0.80478 0.20214 0.0
H153 H 0.46224 0.75601 0.01554 0.0
H154 H 0.48614 0.843 0.21743 0.0
H155 H 0.54076 0.83522 0.16511 0.0
C156 C 0.25106 0.53373 0.32306 0.0
C157 C 0.23396 0.52782 0.33849 0.0
C158 C 0.25856 0.52881 0.26951 0.0
C159 C 0.24916 0.51783 0.23036 0.0
C160 C 0.23208 0.51195 0.2459 0.0
C161 C 0.22455 0.51695 0.29905 0.0
C162 C 0.25724 0.5121 0.1742 0.0
C163 C 0.27518 0.50733 0.17204 0.0
C164 C 0.28293 0.5012 0.12013 0.0
C165 C 0.27241 0.49945 0.06924 0.0
C166 C 0.25431 0.50451 0.07061 0.0
C167 C 0.24699 0.51087 0.12307 0.0
C168 C 0.24239 0.50326 0.01888 0.0
C169 C 0.23426 0.51873 0.99712 0.0
C170 C 0.23633 0.48666 0.99907 0.0
C171 C 0.22174 0.48554 0.96082 0.0
C172 C 0.21299 0.50103 0.94127 0.0
C173 C 0.30216 0.49708 0.1224 0.0
C174 C 0.31424 0.51118 0.12907 0.0
C175 C 0.30776 0.47975 0.13582 0.0
C176 C 0.32469 0.47679 0.15971 0.0
C177 C 0.33629 0.49113 0.17129 0.0
C178 C 0.3311 0.50826 0.1531 0.0
C179 C 0.21984 0.51765 0.95851 0.0
H180 H 0.25868 0.54207 0.35241 0.0
H181 H 0.27169 0.53374 0.2586 0.0
H182 H 0.22456 0.50329 0.21723 0.0
H183 H 0.21118 0.51248 0.30875 0.0
H184 H 0.28321 0.50805 0.2114 0.0
H185 H 0.23312 0.51479 0.124 0.0
H186 H 0.27826 0.49458 0.02905 0.0
H187 H 0.2385 0.53169 0.01251 0.0
H188 H 0.24216 0.47453 0.01598 0.0
H189 H 0.21694 0.47253 0.948 0.0
H190 H 0.31006 0.52472 0.12047 0.0
H191 H 0.29855 0.46872 0.13229 0.0
H192 H 0.21339 0.52985 0.945 0.0
H193 H 0.33944 0.51971 0.16169 0.0
H194 H 0.32831 0.46336 0.17204 0.0
C195 C 0.99812 0.25329 0.33281 0.0
C196 C 1.00407 0.23592 0.34434 0.0
C197 C 1.00019 0.26079 0.27728 0.0
C198 C 0.00863 0.2513 0.23208 0.0
C199 C 0.01512 0.23419 0.24418 0.0
C200 C 0.01271 0.22654 0.29929 0.0
C201 C 0.01032 0.25912 0.1724 0.0
C202 C 0.013 0.27743 0.16547 0.0
C203 C 0.01344 0.28531 0.1099 0.0
C204 C 0.01189 0.27453 0.05959 0.0
C205 C 0.0098 0.25594 0.06586 0.0
C206 C 0.00877 0.24849 0.12216 0.0
C207 C 0.00855 0.24367 0.01519 0.0
C208 C 0.99196 0.23676 0.9985 0.0
C209 C 0.02401 0.23591 0.99235 0.0
C210 C 0.02294 0.22102 0.9555 0.0
C211 C 0.00635 0.21347 0.94086 0.0
C212 C 0.01437 0.30498 0.1082 0.0
C213 C 0.99847 0.3147 0.10969 0.0
C214 C 0.03028 0.31349 0.12431 0.0
C215 C 0.03009 0.33095 0.14575 0.0
C216 C 0.01394 0.34014 0.15237 0.0
C217 C 0.99824 0.3321 0.13161 0.0
C218 C 0.99086 0.22193 0.96146 0.0
H219 H 0.99162 0.26105 0.36638 0.0
H220 H 0.99475 0.27391 0.26962 0.0
H221 H 0.02196 0.22657 0.21096 0.0
H222 H 0.01719 0.21301 0.30573 0.0
H223 H 0.01452 0.28583 0.2037 0.0
H224 H 0.00649 0.23431 0.12649 0.0
H225 H 0.01224 0.2805 0.01642 0.0
H226 H 0.97986 0.2423 0.01646 0.0
H227 H 0.03696 0.2407 0.00586 0.0
H228 H 0.03518 0.21484 0.94133 0.0
H229 H 0.98598 0.30829 0.09895 0.0
H230 H 0.04262 0.30611 0.12515 0.0
H231 H 0.97784 0.21678 0.95047 0.0
H232 H 0.98561 0.33888 0.13546 0.0
H233 H 0.0424 0.33667 0.16165 0.0
C234 C 0.26355 0.01615 0.34891 0.0
C235 C 0.2772 0.02861 0.35831 0.0
C236 C 0.25359 0.01654 0.29752 0.0
C237 C 0.25706 0.02936 0.25419 0.0
C238 C 0.26996 0.04248 0.26489 0.0
C239 C 0.27987 0.04218 0.31665 0.0
C240 C 0.24824 0.02792 0.19642 0.0
C241 C 0.23018 0.02379 0.19318 0.0
C242 C 0.22207 0.01961 0.13968 0.0
C243 C 0.23227 0.02013 0.08771 0.0
C244 C 0.25052 0.02481 0.09016 0.0
C245 C 0.25823 0.02868 0.14483 0.0
C246 C 0.26245 0.02453 0.03799 0.0
C247 C 0.26395 0.00927 1.00291 0.0
C248 C 0.27468 0.03847 0.02944 0.0
C249 C 0.28877 0.03674 0.99 0.0
C250 C 0.29107 0.02103 0.95749 0.0
C251 C 0.20313 0.01402 0.14197 0.0
C252 C 0.19837 1.00017 0.18021 0.0
C253 C 0.18967 0.02481 0.1187 0.0
C254 C 0.17196 0.02267 0.13728 0.0
C255 C 0.16744 0.00987 0.1802 0.0
C256 C 0.18088 0.99821 0.19944 0.0
C257 C 0.2781 0.00753 0.96313 0.0
H258 H 0.26131 1.00532 0.37935 0.0
H259 H 0.24388 0.00612 0.29025 0.0
H260 H 0.27271 0.05266 0.23252 0.0
H261 H 0.2901 0.05214 0.32298 0.0
H262 H 0.2224 0.02341 0.23314 0.0
H263 H 0.27239 0.0313 0.14762 0.0
H264 H 0.22619 0.01669 0.04625 0.0
H265 H 0.25483 0.99825 0.00874 0.0
H266 H 0.27388 0.05041 0.05578 0.0
H267 H 0.29844 0.0474 0.98771 0.0
H268 H 0.20854 0.99174 0.19923 0.0
H269 H 0.193 0.03569 0.08953 0.0
H270 H 0.27918 0.99537 0.93814 0.0
H271 H 0.17833 0.98831 0.23281 0.0
H272 H 0.16202 0.03162 0.11991 0.0
C273 C 0.48349 0.28209 0.99711 0.0
C274 C 0.49663 0.28906 0.95957 0.0
C275 C 0.48696 0.26693 0.03143 0.0
C276 C 0.50357 0.25846 0.02835 0.0
C277 C 0.51606 0.26456 0.9872 0.0
C278 C 0.51264 0.27965 0.95327 0.0
C279 C 0.50969 0.24655 0.07624 0.0
C280 C 0.50218 0.22965 0.08777 0.0
C281 C 0.5091 0.21904 0.13364 0.0
C282 C 0.52278 0.22584 0.16909 0.0
C283 C 0.53 0.24266 0.15852 0.0
C284 C 0.52357 0.25279 0.11175 0.0
C285 C 0.54348 0.25035 0.19825 0.0
C286 C 0.54013 0.25128 0.25856 0.0
C287 C 0.55877 0.25854 0.17548 0.0
C288 C 0.56986 0.26854 0.21175 0.0
C289 C 0.56569 0.27081 0.2713 0.0
C290 C 0.50272 0.20072 0.14625 0.0
C291 C 0.48535 0.19756 0.1662 0.0
C292 C 0.51515 0.18684 0.14882 0.0
C293 C 0.51076 0.17054 0.17447 0.0
C294 C 0.49376 0.16763 0.19835 0.0
C295 C 0.48091 0.18116 0.19207 0.0
C296 C 0.55109 0.26148 0.29475 0.0
H297 H 0.47103 0.28904 1.00299 0.0
H298 H 0.47723 0.26269 0.06349 0.0
H299 H 0.52901 0.25834 0.98423 0.0
H300 H 0.52292 0.28446 0.92402 0.0
H301 H 0.49151 0.22464 0.06051 0.0
H302 H 0.529 0.26597 0.10411 0.0
H303 H 0.52784 0.21798 0.2053 0.0
H304 H 0.52837 0.24514 0.27706 0.0
H305 H 0.56173 0.25777 0.12915 0.0
H306 H 0.58122 0.27521 0.19254 0.0
H307 H 0.47557 0.2081 0.16521 0.0
H308 H 0.52868 0.18898 0.13407 0.0
H309 H 0.54734 0.26305 0.34019 0.0
H310 H 0.4676 0.17933 0.20905 0.0
H311 H 0.52114 0.16068 0.17888 0.0
La312 La 0.01138 0.99516 0.70593 0.0
La313 La 0.98865 0.0066 0.60966 0.0
C314 C 0.02449 0.97932 0.79317 0.0
C315 C 0.03319 0.96204 0.80248 0.0
C316 C 0.0486 0.96105 0.83681 0.0
C317 C 0.05746 0.94485 0.84379 0.0
C318 C 0.05117 0.92938 0.81587 0.0
C319 C 0.03571 0.93054 0.78131 0.0
C320 C 0.02672 0.94664 0.77537 0.0
C321 C 0.02928 0.00609 0.61279 0.0
C322 C 0.9977 0.96659 0.60976 0.0
C323 C 0.97485 0.02488 0.53006 0.0
C324 C 0.97026 0.04386 0.53365 0.0
C325 C 0.96226 0.05068 0.5846 0.0
C326 C 0.96181 0.06897 0.59463 0.0
C327 C 0.96956 0.08073 0.5543 0.0
C328 C 0.97656 0.07398 0.50177 0.0
C329 C 0.9769 0.05568 0.49154 0.0
C330 C 0.97117 0.99543 0.70323 0.0
C331 C 1.00302 0.03536 0.70168 0.0
O332 O 0.03332 0.99061 0.76078 0.0
O333 O 0.00756 0.97897 0.77977 0.0
O334 O 0.0343 0.0084 0.66639 0.0
O335 O 0.01523 0.99695 0.61272 0.0
O336 O 1.00428 0.96959 0.66293 0.0
O337 O 0.99244 0.97991 0.57619 0.0
O338 O 0.9657 0.01413 0.56355 0.0
O339 O 0.9919 0.02163 0.53285 0.0
O340 O 0.96645 0.99234 0.64974 0.0
O341 O 0.98491 1.00504 0.70283 0.0
O342 O 0.99754 0.03205 0.64781 0.0
O343 O 0.00687 0.02212 0.73747 0.0
H344 H 0.05378 0.97282 0.85823 0.0
H345 H 0.06908 0.94444 0.8717 0.0
H346 H 0.03056 0.91903 0.75842 0.0
H347 H 0.01472 0.94706 0.74947 0.0
H348 H 0.95732 0.04187 0.61847 0.0
H349 H 0.95643 0.07381 0.63556 0.0
H350 H 0.98233 0.08282 0.46942 0.0
H351 H 0.98327 0.05072 0.45232 0.0
La352 La 0.50991 0.01308 0.72883 0.0
La353 La 0.49708 0.9894 0.63622 0.0
C354 C 0.51856 0.02935 0.82069 0.0
C355 C 0.53508 0.03803 0.84024 0.0
C356 C 0.53449 0.05546 0.86196 0.0
C357 C 0.55016 0.06422 0.87802 0.0
C358 C 0.56662 0.05558 0.87313 0.0
C359 C 0.56717 0.03811 0.85145 0.0
C360 C 0.55156 0.02945 0.8348 0.0
C361 C 0.50726 0.02842 0.62525 0.0
C362 C 0.53866 0.99725 0.64684 0.0
C363 C 0.48686 0.97294 0.54709 0.0
C364 C 0.46899 0.96556 0.5366 0.0
C365 C 0.4605 0.95537 0.58012 0.0
C366 C 0.44211 0.95303 0.57907 0.0
C367 C 0.43186 0.96096 0.5348 0.0
C368 C 0.44059 0.96965 0.48831 0.0
C369 C 0.45901 0.97189 0.48918 0.0
C370 C 0.49949 0.97431 0.74048 0.0
C371 C 0.46815 0.0055 0.71627 0.0
O372 O 0.51061 0.03695 0.7764 0.0
O373 O 0.5189 0.012 0.81567 0.0
O374 O 0.51983 0.03148 0.6626 0.0
O375 O 0.49632 0.01756 0.64721 0.0
O376 O 0.53583 1.00391 0.69951 0.0
O377 O 0.52524 0.99254 0.6126 0.0
O378 O 0.49614 0.96549 0.58892 0.0
O379 O 0.4874 0.99033 0.55011 0.0
O380 O 0.487 0.97118 0.70303 0.0
O381 O 0.51051 0.98499 0.71813 0.0
O382 O 0.4712 0.99877 0.66401 0.0
O383 O 0.48146 0.01022 0.75102 0.0
H384 H 0.52192 0.06235 0.86604 0.0
H385 H 0.5494 0.07766 0.89489 0.0
H386 H 0.57973 0.03124 0.84657 0.0
H387 H 0.55245 0.01611 0.81725 0.0
H388 H 0.46782 0.95028 0.61735 0.0
H389 H 0.43581 0.94597 0.61486 0.0
H390 H 0.43312 0.97605 0.45368 0.0
H391 H 0.46525 0.97988 0.4554 0.0
La392 La 0.48726 0.50787 0.7168 0.0
La393 La 0.50938 0.49338 0.62303 0.0
C394 C 0.47321 0.52067 0.80652 0.0
C395 C 0.47065 0.5398 0.8177 0.0
C396 C 0.45344 0.54664 0.82502 0.0
C397 C 0.45042 0.56497 0.8209 0.0
C398 C 0.46458 0.57663 0.80883 0.0
C399 C 0.4819 0.56985 0.80508 0.0
C400 C 0.48492 0.55165 0.80952 0.0
C401 C 0.47074 0.50477 0.61503 0.0
C402 C 0.5035 0.53511 0.63087 0.0
C403 C 0.52545 0.4829 0.53289 0.0
C404 C 0.5352 0.46638 0.52162 0.0
C405 C 0.54713 0.46528 0.47478 0.0
C406 C 0.55672 0.44961 0.46527 0.0
C407 C 0.55448 0.43485 0.50259 0.0
C408 C 0.54257 0.43616 0.54979 0.0
C409 C 0.5331 0.4518 0.55933 0.0
C410 C 0.52571 0.49681 0.72497 0.0
C411 C 0.49275 0.46593 0.70924 0.0
O412 O 0.46397 0.51447 0.76257 0.0
O413 O 0.48969 0.5151 0.80523 0.0
O414 O 0.46855 0.51774 0.6513 0.0
O415 O 0.48139 0.49368 0.63701 0.0
O416 O 0.49886 0.5326 0.68587 0.0
O417 O 0.50583 0.52136 0.59553 0.0
O418 O 0.53262 0.49326 0.57226 0.0
O419 O 0.50829 0.48116 0.54058 0.0
O420 O 0.52797 0.48365 0.68945 0.0
O421 O 0.51514 0.50776 0.70202 0.0
O422 O 0.49925 0.4682 0.65608 0.0
O423 O 0.48857 0.47968 0.74264 0.0
H424 H 0.44222 0.53775 0.83066 0.0
H425 H 0.43696 0.56993 0.8244 0.0
H426 H 0.4931 0.57861 0.7973 0.0
H427 H 0.49836 0.54687 0.80337 0.0
H428 H 0.54907 0.47652 0.44572 0.0
H429 H 0.56592 0.44909 0.42889 0.0
H430 H 0.54027 0.42497 0.57877 0.0
H431 H 0.52408 0.45244 0.59611 0.0
La432 La 0.99686 0.4917 0.68686 0.0
La433 La 0.00746 0.51663 0.59597 0.0
C434 C 0.97912 0.47694 0.76627 0.0
C435 C 0.95974 0.47419 0.76988 0.0
C436 C 0.95286 0.45686 0.773 0.0
C437 C 0.93458 0.45389 0.76791 0.0
C438 C 0.92284 0.46822 0.75972 0.0
C439 C 0.92973 0.4856 0.75831 0.0
C440 C 0.94797 0.48856 0.76319 0.0
C441 C 0.00946 0.4762 0.59208 0.0
C442 C 0.968 0.50619 0.59417 0.0
C443 C 0.02526 0.53224 0.51881 0.0
C444 C 0.04342 0.53939 0.52435 0.0
C445 C 0.04811 0.55024 0.57217 0.0
C446 C 0.06593 0.55403 0.58396 0.0
C447 C 0.07934 0.54681 0.54875 0.0
C448 C 0.07461 0.53666 0.49947 0.0
C449 C 0.0568 0.53304 0.48729 0.0
C450 C 0.99492 0.5321 0.69109 0.0
C451 C 0.03658 0.50192 0.6886 0.0
O452 O 0.98705 0.46814 0.72451 0.0
O453 O 0.98471 0.49342 0.76931 0.0
O454 O 0.01233 0.47077 0.64513 0.0
O455 O 0.99929 0.48953 0.59343 0.0
O456 O 0.97129 0.49952 0.64675 0.0
O457 O 0.98106 0.51203 0.5607 0.0
O458 O 0.01296 0.54014 0.54968 0.0
O459 O 0.02415 0.5149 0.52257 0.0
O460 O 0.99207 0.53755 0.63816 0.0
O461 O 0.00514 0.51883 0.68927 0.0
O462 O 0.0331 0.51 0.63826 0.0
O463 O 0.0237 0.49476 0.72005 0.0
H464 H 0.96169 0.44557 0.77746 0.0
H465 H 0.92971 0.44033 0.76884 0.0
H466 H 0.92103 0.49696 0.75324 0.0
H467 H 0.95283 0.50209 0.76013 0.0
H468 H 0.03811 0.55512 0.60218 0.0
H469 H 0.06925 0.56184 0.62223 0.0
H470 H 0.08474 0.5312 0.47105 0.0
H471 H 0.05352 0.52455 0.45055 0.0
H472 H 0.14932 0.98143 0.22942 0.0
H473 H 0.12367 0.98242 0.29333 0.0
H474 H 0.1177 0.03848 0.25826 0.0
H475 H 0.14467 0.03808 0.19978 0.0
H476 H 0.11401 0.03484 0.36482 0.0
H477 H 0.0725 0.98171 0.27182 0.0
H478 H 0.09366 0.97253 0.29062 0.0
H479 H 0.09218 0.98958 0.23499 0.0
C480 C 0.14273 0.99407 0.23532 0.0
C481 C 0.14953 0.00973 0.20957 0.0
C482 C 0.12764 0.99452 0.27116 0.0
C483 C 0.11835 0.01047 0.28041 0.0
C484 C 0.12451 0.02594 0.25217 0.0
H485 H 0.02111 1.00384 0.49599 0.0
H486 H 0.04145 0.00692 0.41265 0.0
C487 C 0.13992 0.02562 0.2177 0.0
C488 C 0.10336 0.01134 0.32356 0.0
H489 H 0.06685 0.98883 0.37369 0.0
C490 C 0.10354 0.02491 0.36587 0.0
C491 C 0.0893 0.99873 0.32498 0.0
C492 C 0.0868 0.98498 0.27765 0.0
C493 C 0.09065 0.02583 0.41031 0.0
C494 C 0.07764 0.01222 0.41505 0.0
C495 C 0.07698 0.99908 0.37136 0.0
C496 C 0.065 0.0111 0.4656 0.0
C497 C 0.09105 0.04165 0.45091 0.0
C498 C 0.07129 0.01226 0.52346 0.0
C499 C 0.05958 0.01111 0.57089 0.0
C500 C 0.04136 0.00809 0.56189 0.0
C501 C 0.03505 0.00641 0.50426 0.0
C502 C 0.04672 0.00805 0.4566 0.0
H503 H 0.09659 0.05356 0.4285 0.0
H504 H 0.07759 0.04499 0.46739 0.0
H505 H 0.09983 0.03867 0.48869 0.0
H506 H 0.08534 0.0138 0.53223 0.0
H507 H 0.06492 0.01215 0.61479 0.0
H508 H 0.474 0.16472 0.2993 0.0
H509 H 0.47223 0.13937 0.36594 0.0
H510 H 0.50485 0.10855 0.24906 0.0
H511 H 0.50583 0.13346 0.1804 0.0
H512 H 0.47974 0.08784 0.30026 0.0
H513 H 0.51402 0.12811 0.46951 0.0
H514 H 0.4933 0.13745 0.44592 0.0
H515 H 0.51148 0.13568 0.39512 0.0
C516 C 0.48041 0.15242 0.28676 0.0
C517 C 0.49032 0.15134 0.23457 0.0
C518 C 0.4796 0.13798 0.32552 0.0
C519 C 0.48887 0.12219 0.31355 0.0
C520 C 0.49777 0.12064 0.2598 0.0
H521 H 0.53103 0.04986 0.57095 0.0
H522 H 0.52561 0.07125 0.49246 0.0
C523 C 0.49845 0.13501 0.22072 0.0
C524 C 0.49031 0.10776 0.35827 0.0
H525 H 0.50485 0.09933 0.49728 0.0
C526 C 0.48519 0.09034 0.34342 0.0
C527 C 0.4977 0.11092 0.41435 0.0
C528 C 0.50461 0.129 0.43213 0.0
C529 C 0.48729 0.07606 0.38292 0.0
C530 C 0.49437 0.07933 0.43937 0.0
C531 C 0.49934 0.09678 0.45423 0.0
C532 C 0.49767 0.06491 0.48309 0.0
C533 C 0.48246 0.05755 0.36304 0.0
C534 C 0.48387 0.05386 0.5036 0.0
C535 C 0.48704 0.04137 0.5482 0.0
C536 C 0.50399 0.03995 0.57374 0.0
C537 C 0.51781 0.05071 0.55229 0.0
C538 C 0.51471 0.06298 0.50745 0.0
H539 H 0.48188 0.05662 0.31455 0.0
H540 H 0.49218 0.04764 0.3795 0.0
H541 H 0.46915 0.05401 0.38046 0.0
H542 H 0.47052 0.05529 0.48656 0.0
H543 H 0.47611 0.03332 0.56418 0.0
H544 H 0.36864 0.50839 0.16281 0.0
H545 H 0.39314 0.50778 0.233 0.0
H546 H 0.36569 0.46773 0.3337 0.0
H547 H 0.34077 0.4689 0.26565 0.0
H548 H 0.37617 0.49403 0.40198 0.0
H549 H 0.43336 0.47403 0.26519 0.0
H550 H 0.422 0.49303 0.23602 0.0
H551 H 0.41066 0.47197 0.24042 0.0
C552 C 0.36783 0.49933 0.19961 0.0
C553 C 0.35258 0.48873 0.20828 0.0
C554 C 0.38202 0.49883 0.23944 0.0
C555 C 0.38144 0.48755 0.28853 0.0
C556 C 0.36655 0.47648 0.29609 0.0
H557 H 0.46766 0.47471 0.5471 0.0
H558 H 0.44642 0.46958 0.46681 0.0
C559 C 0.35233 0.47705 0.25657 0.0
C560 C 0.39545 0.48848 0.33481 0.0
H561 H 0.44034 0.48676 0.35878 0.0
C562 C 0.39018 0.49226 0.39245 0.0
C563 C 0.41377 0.48599 0.32291 0.0
C564 C 0.42029 0.48085 0.26289 0.0
C565 C 0.40263 0.4941 0.43789 0.0
C566 C 0.421 0.49254 0.42543 0.0
C567 C 0.4263 0.48819 0.36826 0.0
C568 C 0.43477 0.49585 0.4711 0.0
C569 C 0.39594 0.49762 0.49906 0.0
C570 C 0.43567 0.51244 0.49902 0.0
C571 C 0.44767 0.51534 0.54477 0.0
C572 C 0.45919 0.50177 0.56338 0.0
C573 C 0.45888 0.48538 0.53384 0.0
C574 C 0.44677 0.48245 0.488 0.0
H575 H 0.38192 0.49325 0.50446 0.0
H576 H 0.40422 0.4907 0.53225 0.0
H577 H 0.39652 0.51212 0.50785 0.0
H578 H 0.42689 0.52313 0.48591 0.0
H579 H 0.44774 0.52819 0.56619 0.0
H580 H 0.99036 0.34862 0.23854 0.0
H581 H 0.99058 0.37441 0.30293 0.0
H582 H 0.03621 0.39539 0.21155 0.0
H583 H 0.03631 0.36919 0.14763 0.0
H584 H 0.04137 0.39801 0.32401 0.0
H585 H 0.9742 0.4241 0.28046 0.0
H586 H 0.97302 0.40129 0.3029 0.0
H587 H 0.98412 0.4071 0.23556 0.0
C588 C 1.00021 0.3589 0.23115 0.0
C589 C 0.01319 0.3569 0.18733 0.0
C590 C 1.0003 0.37373 0.26808 0.0
C591 C 0.01316 0.38717 0.26157 0.0
C592 C 0.02605 0.38531 0.2174 0.0
H593 H 1.00145 0.48361 0.47747 0.0
H594 H 1.004 0.46359 0.39305 0.0
C595 C 0.0261 0.37033 0.1808 0.0
C596 C 0.01378 0.40246 0.30338 0.0
H597 H 0.98781 0.43357 0.37081 0.0
C598 C 0.0297 0.40593 0.33358 0.0
C599 C 0.99873 0.41315 0.31541 0.0
C600 C 0.98163 0.41135 0.28133 0.0
C601 C 0.03074 0.41916 0.37697 0.0
C602 C 0.0153 0.42889 0.39219 0.0
C603 C 0.99961 0.42598 0.36014 0.0
C604 C 0.0149 0.44157 0.44255 0.0
C605 C 0.04848 0.42261 0.40566 0.0
C606 C 0.02015 0.43598 0.49869 0.0
C607 C 0.01895 0.44747 0.54664 0.0
C608 C 0.01208 0.46473 0.53999 0.0
C609 C 0.00686 0.4704 0.48391 0.0
C610 C 0.00826 0.45894 0.43569 0.0
H611 H 0.05963 0.41917 0.37588 0.0
H612 H 0.04992 0.43675 0.41886 0.0
H613 H 0.04971 0.41412 0.44522 0.0
H614 H 0.02479 0.42253 0.50587 0.0
H615 H 0.02293 0.44262 0.58934 0.0
H616 H 0.848 0.96693 0.089 0.0
H617 H 0.87323 0.96563 0.02131 0.0
H618 H 0.8803 0.02233 0.03678 0.0
H619 H 0.85489 0.02384 0.10288 0.0
H620 H 0.87904 0.01088 0.92199 0.0
H621 H 0.927 0.97038 0.04968 0.0
H622 H 0.90527 0.96065 0.04239 0.0
H623 H 0.90797 0.98096 0.08276 0.0
C624 C 0.85499 0.97911 0.07831 0.0
C625 C 0.84939 0.99548 0.10182 0.0
C626 C 0.86954 0.97832 0.04001 0.0
C627 C 0.87883 0.99385 0.02443 0.0
C628 C 0.87345 0.01014 0.04846 0.0
H629 H 0.97579 0.00707 0.81608 0.0
H630 H 0.95392 0.00617 0.89605 0.0
C631 C 0.85896 0.01095 0.08676 0.0
C632 C 0.89334 0.99344 0.98001 0.0
H633 H 0.93436 0.97607 0.95003 0.0
C634 C 0.89115 1.00331 0.92828 0.0
C635 C 0.90923 0.98369 0.98836 0.0
C636 C 0.91266 0.97343 0.04399 0.0
C637 C 0.90422 1.00347 0.88437 0.0
C638 C 0.91988 0.99334 0.89194 0.0
C639 C 0.92228 0.98372 0.94409 0.0
C640 C 0.93375 0.99253 0.84556 0.0
C641 C 0.90123 0.01463 0.8303 0.0
C642 C 0.92985 0.98475 0.79125 0.0
C643 C 0.94229 0.98522 0.74578 0.0
C644 C 0.9589 0.99348 0.75361 0.0
C645 C 0.96308 1.00067 0.80872 0.0
C646 C 0.95061 1.00015 0.8544 0.0
H647 H 0.89062 0.02468 0.83697 0.0
H648 H 0.91365 0.02159 0.81724 0.0
H649 H 0.89715 0.00586 0.79364 0.0
H650 H 0.91703 0.97859 0.7837 0.0
H651 H 0.93871 0.97945 0.70397 0.0
H652 H 0.48614 0.854 0.11925 0.0
H653 H 0.48604 0.87972 0.05422 0.0
H654 H 0.53935 0.89291 0.1082 0.0
H655 H 0.53956 0.86714 0.17417 0.0
H656 H 0.49076 0.91602 0.07367 0.0
H657 H 0.54406 0.88924 0.9302 0.0
H658 H 0.5329 0.87573 0.98429 0.0
H659 H 0.54968 0.89138 0.00629 0.0
C660 C 0.49776 0.86253 0.11847 0.0
C661 C 0.51287 0.85841 0.15227 0.0
C662 C 0.49771 0.8772 0.08076 0.0
C663 C 0.51278 0.88811 0.07545 0.0
C664 C 0.52769 0.88447 0.11052 0.0
H665 H 0.52868 0.97337 0.81312 0.0
H666 H 0.53293 0.95432 0.8998 0.0
C667 C 0.52777 0.86974 0.14837 0.0
C668 C 0.51281 0.90295 0.03205 0.0
H669 H 0.53177 0.91685 0.90374 0.0
C670 C 0.49983 0.91627 0.03679 0.0
C671 C 0.52468 0.90335 0.98392 0.0
C672 C 0.53855 0.88912 0.97531 0.0
C673 C 0.49817 0.92973 0.99432 0.0
C674 C 0.50961 0.92976 0.94513 0.0
C675 C 0.52302 0.91684 0.94145 0.0
C676 C 0.50691 0.94209 0.89479 0.0
C677 C 0.48409 0.94377 1.00235 0.0
C678 C 0.49095 0.9415 0.86301 0.0
C679 C 0.48854 0.95227 0.81373 0.0
C680 C 0.50206 0.96385 0.79484 0.0
C681 C 0.518 0.96462 0.82686 0.0
C682 C 0.52045 0.95373 0.87624 0.0
H683 H 0.48041 0.94528 0.04917 0.0
H684 H 0.48861 0.95685 0.98529 0.0
H685 H 0.47195 0.93979 0.97801 0.0
H686 H 0.48045 0.93239 0.87557 0.0
H687 H 0.47612 0.95133 0.78987 0.0
H688 H 0.64059 0.54367 0.12443 0.0
H689 H 0.61434 0.54249 0.06081 0.0
H690 H 0.61923 0.48546 0.05031 0.0
H691 H 0.64521 0.48652 0.11387 0.0
H692 H 0.61242 0.53148 0.94969 0.0
H693 H 0.56703 0.48969 0.08129 0.0
H694 H 0.58687 0.49953 0.11176 0.0
H695 H 0.5881 0.47906 0.07107 0.0
C696 C 0.63591 0.53085 0.10922 0.0
C697 C 0.64496 0.51517 0.12491 0.0
C698 C 0.62089 0.53019 0.07285 0.0
C699 C 0.61454 0.51385 0.05138 0.0
C700 C 0.62344 0.49819 0.06759 0.0
H701 H 0.54833 0.47367 0.77753 0.0
H702 H 0.56849 0.47929 0.8596 0.0
C703 C 0.63837 0.49882 0.10412 0.0
C704 C 0.59952 0.51318 0.00864 0.0
H705 H 0.56043 0.49175 0.97828 0.0
C706 C 0.6009 0.52303 0.95645 0.0
C707 C 0.58442 0.50219 0.01725 0.0
C708 C 0.58141 0.49217 0.07367 0.0
C709 C 0.5881 0.52153 0.91175 0.0
C710 C 0.57342 0.50997 0.91947 0.0
C711 C 0.57173 0.50054 0.97227 0.0
C712 C 0.56037 0.50661 0.87172 0.0
C713 C 0.59075 0.53173 0.85549 0.0
C714 C 0.54882 0.52001 0.85188 0.0
C715 C 0.53717 0.51678 0.80501 0.0
C716 C 0.53698 0.50013 0.77708 0.0
C717 C 0.54825 0.48665 0.79797 0.0
C718 C 0.55976 0.48983 0.84494 0.0
H719 H 0.60415 0.53791 0.85285 0.0
H720 H 0.5889 0.52284 0.81719 0.0
H721 H 0.58068 0.54245 0.85252 0.0
H722 H 0.54891 0.53298 0.87235 0.0
H723 H 0.5286 0.5274 0.78992 0.0
H724 H 0.98061 0.66715 0.02705 0.0
H725 H 0.97751 0.64228 0.95925 0.0
H726 H 1.00373 0.60775 0.08275 0.0
H727 H 0.00627 0.63241 0.15193 0.0
H728 H 0.00527 0.62456 0.91036 0.0
H729 H 0.96259 0.57662 0.03053 0.0
H730 H 0.9647 0.59962 0.05204 0.0
H731 H 0.98174 0.58388 0.0709 0.0
C732 C 0.98523 0.65417 0.04076 0.0
C733 C 0.99368 0.65187 0.09527 0.0
C734 C 0.9836 0.63996 1.00156 0.0
C735 C 0.99026 0.62306 0.01586 0.0
C736 C 0.99819 0.62055 0.07093 0.0
H737 H 0.00808 0.52772 0.80249 0.0
H738 H 0.00654 0.54913 0.88371 0.0
C739 C 0.99981 0.63475 0.11027 0.0
C740 C 0.99026 0.6086 0.97118 0.0
H741 H 0.9764 0.56603 0.94357 0.0
C742 C 0.99886 0.61181 0.91762 0.0
C743 C 0.98207 0.59186 0.9807 0.0
C744 C 0.97211 0.58779 0.03643 0.0
C745 C 0.99956 0.59881 0.8736 0.0
C746 C 0.99121 0.58215 0.88279 0.0
C747 C 0.98279 0.5788 0.93656 0.0
C748 C 0.99076 0.56836 0.8361 0.0
C749 C 0.00947 0.60293 0.81777 0.0
C750 C 0.98195 0.5718 0.78314 0.0
C751 C 0.9828 0.55965 0.73697 0.0
C752 C 0.99245 0.54375 0.74275 0.0
C753 C 1.00059 0.53989 0.79672 0.0
C754 C 0.99972 0.5521 0.84309 0.0
H755 H 0.01878 0.6143 0.82326 0.0
H756 H 0.01713 0.59119 0.80267 0.0
H757 H 0.99979 0.60649 0.78304 0.0
H758 H 0.9747 0.5841 0.77707 0.0
H759 H 0.97626 0.56293 0.69613 0.0
H760 H 0.02442 0.21148 0.40355 0.0
H761 H 0.01459 0.19179 0.48151 0.0
H762 H 0.96592 0.22159 0.49763 0.0
H763 H 0.97477 0.24023 0.41542 0.0
H764 H 1.00328 0.19135 0.59258 0.0
H765 H 0.94653 0.17522 0.444 0.0
H766 H 0.96431 0.18965 0.42117 0.0
H767 H 0.94761 0.19755 0.47112 0.0
C768 C 0.01157 0.21386 0.42333 0.0
C769 C 1.0001 0.227 0.40116 0.0
C770 C 0.0061 0.20276 0.46882 0.0
C771 C 0.98922 0.20481 0.49402 0.0
C772 C 0.97873 0.21937 0.47738 0.0
H773 H 0.94445 0.1031 0.60024 0.0
H774 H 0.94701 0.13539 0.61361 0.0
C775 C 0.98397 0.23019 0.43065 0.0
C776 C 0.98188 0.19008 0.52987 0.0
H777 H 0.95284 0.1554 0.51808 0.0
C778 C 0.99196 0.18371 0.57728 0.0
C779 C 0.96695 0.18016 0.51045 0.0
C780 C 0.95575 0.18587 0.45877 0.0
C781 C 0.98864 0.16688 0.60161 0.0
C782 C 0.97485 0.1563 0.57806 0.0
C783 C 0.96346 0.16356 0.53584 0.0
C784 C 0.97443 0.13677 0.58534 0.0
C785 C 1.0007 0.16017 0.64946 0.0
C786 C 0.98906 0.12686 0.56597 0.0
C787 C 0.98756 0.10859 0.55755 0.0
C788 C 0.97138 0.09985 0.56835 0.0
C789 C 0.95705 0.10955 0.59132 0.0
C790 C 0.95852 0.12793 0.59935 0.0
H791 H 1.00361 0.17095 0.68128 0.0
H792 H 0.99487 0.14868 0.67322 0.0
H793 H 0.01354 0.156 0.62997 0.0
H794 H 1.00135 0.13341 0.55369 0.0
H795 H 0.99895 0.10136 0.54119 0.0
H796 H 0.31316 0.0326 0.35351 0.0
H797 H 0.33486 0.02125 0.4226 0.0
H798 H 0.29282 0.00556 0.54014 0.0
H799 H 0.27075 0.01732 0.4712 0.0
H800 H 0.34288 0.02538 0.54552 0.0
H801 H 0.31656 0.95832 0.48635 0.0
H802 H 0.31047 0.97788 0.44521 0.0
H803 H 0.30167 0.97446 0.51733 0.0
C804 C 0.30844 0.02741 0.39493 0.0
C805 C 0.29016 0.02566 0.40637 0.0
C806 C 0.32091 0.02083 0.43437 0.0
C807 C 0.3154 0.0123 0.48587 0.0
C808 C 0.29728 0.01187 0.5001 0.0
H809 H 0.41316 0.96753 0.6351 0.0
H810 H 0.38216 0.97685 0.64242 0.0
C811 C 0.28473 0.01854 0.46061 0.0
C812 C 0.32864 1.00192 0.51911 0.0
H813 H 0.34518 0.95974 0.52556 0.0
C814 C 0.3432 0.01098 0.5432 0.0
C815 C 0.32893 0.98313 0.51557 0.0
C816 C 0.31365 0.97277 0.48962 0.0
C817 C 0.35876 1.00189 0.55877 0.0
C818 C 0.35957 0.98325 0.55055 0.0
C819 C 0.34443 0.97402 0.53169 0.0
C820 C 0.3768 0.97387 0.54999 0.0
C821 C 0.37476 0.01248 0.57828 0.0
C822 C 0.38361 0.96796 0.49628 0.0
C823 C 0.40121 0.96236 0.492 0.0
C824 C 0.41232 0.96266 0.54138 0.0
C825 C 0.40498 0.96712 0.59615 0.0
C826 C 0.38731 0.97263 0.60042 0.0
H827 H 0.3722 0.02703 0.57848 0.0
H828 H 0.37859 0.0084 0.62319 0.0
H829 H 0.38622 0.00978 0.54903 0.0
H830 H 0.37562 0.9687 0.45688 0.0
H831 H 0.40637 0.95867 0.44947 0.0
H832 H 0.5762 0.30362 0.23425 0.0
H833 H 0.58497 0.32869 0.2939 0.0
H834 H 0.58345 0.29568 0.4484 0.0
H835 H 0.57476 0.27013 0.38827 0.0
H836 H 0.562 0.32376 0.45737 0.0
H837 H 0.62698 0.34811 0.38121 0.0
H838 H 0.61291 0.34406 0.31938 0.0
H839 H 0.61927 0.32579 0.36619 0.0
C840 C 0.57846 0.30137 0.28047 0.0
C841 C 0.5747 0.28481 0.3064 0.0
C842 C 0.58356 0.31581 0.31469 0.0
C843 C 0.58512 0.31405 0.37559 0.0
C844 C 0.58245 0.29729 0.40139 0.0
H845 H 0.56936 0.41185 0.58215 0.0
H846 H 0.58084 0.38193 0.56324 0.0
C847 C 0.57737 0.28275 0.36703 0.0
C848 C 0.58621 0.33033 0.41181 0.0
H849 H 0.60592 0.37124 0.41368 0.0
C850 C 0.57195 0.33394 0.44956 0.0
C851 C 0.59921 0.34359 0.40174 0.0
C852 C 0.61554 0.34008 0.36536 0.0
C853 C 0.56937 0.35101 0.4726 0.0
C854 C 0.58148 0.36469 0.45786 0.0
C855 C 0.59656 0.36072 0.42434 0.0
C856 C 0.5772 0.38351 0.46952 0.0
C857 C 0.55292 0.35465 0.50846 0.0
C858 C 0.5719 0.3944 0.42283 0.0
C859 C 0.56519 0.41138 0.4334 0.0
C860 C 0.56372 0.41778 0.49095 0.0
C861 C 0.56998 0.40716 0.53742 0.0
C862 C 0.57665 0.39013 0.52676 0.0
H863 H 0.544 0.34289 0.51129 0.0
H864 H 0.55685 0.35848 0.55353 0.0
H865 H 0.54536 0.3659 0.48923 0.0
H866 H 0.57215 0.38943 0.37835 0.0
H867 H 0.56034 0.4191 0.39669 0.0
H868 H 0.21293 0.50798 0.41111 0.0
H869 H 0.19344 0.51898 0.48765 0.0
H870 H 0.2171 0.5711 0.47252 0.0
H871 H 0.23578 0.5605 0.39232 0.0
H872 H 0.19381 0.53586 0.59276 0.0
H873 H 0.16746 0.58113 0.41905 0.0
H874 H 0.18371 0.56436 0.40247 0.0
H875 H 0.19013 0.58413 0.44137 0.0
C876 C 0.21406 0.52179 0.42406 0.0
C877 C 0.2254 0.53352 0.39395 0.0
C878 C 0.20309 0.528 0.4686 0.0
C879 C 0.20343 0.54601 0.48458 0.0
C880 C 0.21627 0.55727 0.45964 0.0
H881 H 0.09656 0.57767 0.57756 0.0
H882 H 0.12874 0.58188 0.58886 0.0
C883 C 0.22705 0.55113 0.41411 0.0
C884 C 0.18839 0.55306 0.5193 0.0
H885 H 0.14922 0.57475 0.49734 0.0
C886 C 0.18426 0.54481 0.57286 0.0
C887 C 0.17599 0.56495 0.49378 0.0
C888 C 0.17941 0.57413 0.43594 0.0
C889 C 0.16734 0.54656 0.59801 0.0
C890 C 0.15433 0.55675 0.56862 0.0
C891 C 0.15921 0.56682 0.51949 0.0
C892 C 0.13509 0.55399 0.57856 0.0
C893 C 0.16315 0.53649 0.65345 0.0
C894 C 0.12798 0.5369 0.57028 0.0
C895 C 0.10975 0.53453 0.56329 0.0
C896 C 0.09827 0.54921 0.56415 0.0
C897 C 0.10518 0.56616 0.57654 0.0
C898 C 0.12351 0.56856 0.58331 0.0
H899 H 0.17509 0.53551 0.68192 0.0
H900 H 0.15223 0.54289 0.67838 0.0
H901 H 0.15902 0.52276 0.64208 0.0
H902 H 0.13661 0.52551 0.56486 0.0
H903 H 0.10468 0.52128 0.55488 0.0
H904 H 0.10367 0.78116 0.03689 0.0
H905 H 0.11245 0.80724 0.97869 0.0
H906 H 0.06023 0.80858 0.90076 0.0
H907 H 0.05154 0.78272 0.95733 0.0
H908 H 0.08582 0.81849 0.8227 0.0
H909 H 0.0939 0.85468 0.03433 0.0
H910 H 0.10822 0.83605 0.02095 0.0
H911 H 0.08482 0.83251 0.0316 0.0
C912 C 0.09423 0.78685 0.00638 0.0
C913 C 0.07687 0.77995 1.00206 0.0
C914 C 0.09924 0.80175 0.97333 0.0
C915 C 0.08687 0.81007 0.93635 0.0
C916 C 0.07003 0.80237 0.9289 0.0
H917 H 0.03587 0.89644 0.82503 0.0
H918 H 0.05042 0.8681 0.84227 0.0
C919 C 0.06508 0.78749 0.9613 0.0
C920 C 0.0901 0.82788 0.91066 0.0
H921 H 0.08999 0.87165 0.95019 0.0
C922 C 0.08729 0.83013 0.8503 0.0
C923 C 0.09209 0.84308 0.94672 0.0
C924 C 0.09484 0.8416 0.01203 0.0
C925 C 0.08466 0.84707 0.82614 0.0
C926 C 0.08499 0.86205 0.86323 0.0
C927 C 0.08973 0.86003 0.92214 0.0
C928 C 0.07699 0.87908 0.84514 0.0
C929 C 0.08028 0.84877 0.762 0.0
C930 C 0.08717 0.89466 0.84128 0.0
C931 C 0.07889 0.91099 0.83029 0.0
C932 C 0.06026 0.912 0.82427 0.0
C933 C 0.05023 0.89623 0.82795 0.0
C934 C 0.05852 0.87996 0.83797 0.0
H935 H 0.08535 0.83725 0.7367 0.0
H936 H 0.06562 0.84925 0.75661 0.0
H937 H 0.08594 0.86122 0.74348 0.0
H938 H 0.10144 0.8942 0.84739 0.0
H939 H 0.08707 0.9228 0.82688 0.0
H940 H 0.71617 0.05448 0.9815 0.0
H941 H 0.68935 0.06461 0.93376 0.0
H942 H 0.69072 0.11303 0.0346 0.0
H943 H 0.71809 0.10305 0.08246 0.0
H944 H 0.66072 0.09452 0.05228 0.0
H945 H 0.67106 0.09946 0.81453 0.0
H946 H 0.68073 0.07923 0.84089 0.0
H947 H 0.68932 0.1003 0.86593 0.0
C948 C 0.71137 0.06767 0.99182 0.0
C949 C 0.71929 0.07787 0.03636 0.0
C950 C 0.69594 0.07349 0.96417 0.0
C951 C 0.68807 0.08967 0.98013 0.0
C952 C 0.69662 0.10054 0.02139 0.0
H953 H 0.57807 0.08901 0.84355 0.0
H954 H 0.60655 0.10304 0.87003 0.0
C955 C 0.71218 0.09474 0.04901 0.0
C956 C 0.66944 0.09308 0.96247 0.0
H957 H 0.64173 0.08773 0.84561 0.0
C958 C 0.65657 0.0937 0.00689 0.0
C959 C 0.66394 0.09226 0.90333 0.0
C960 C 0.67706 0.09298 0.85354 0.0
C961 C 0.6385 0.09144 0.99411 0.0
C962 C 0.63327 0.08836 0.93565 0.0
C963 C 0.64585 0.08978 0.8906 0.0
C964 C 0.61565 0.08076 0.92189 0.0
C965 C 0.62526 0.09117 0.04366 0.0
C966 C 0.61153 0.06361 0.94202 0.0
C967 C 0.59549 0.05558 0.92672 0.0
C968 C 0.58325 0.06457 0.89107 0.0
C969 C 0.58726 0.08188 0.87152 0.0
C970 C 0.60347 0.08986 0.8864 0.0
H971 H 0.63011 0.09904 0.08157 0.0
H972 H 0.61219 0.09649 0.02942 0.0
H973 H 0.62331 0.07724 0.05856 0.0
H974 H 0.6209 0.05628 0.96875 0.0
H975 H 0.59268 0.04229 0.94264 0.0
H976 H 0.50201 0.73501 0.90067 0.0
H977 H 0.49415 0.71339 0.82483 0.0
H978 H 0.44694 0.69931 0.92204 0.0
H979 H 0.45433 0.72145 0.99569 0.0
H980 H 0.49536 0.68086 0.85176 0.0
H981 H 0.42836 0.69093 0.76316 0.0
H982 H 0.44017 0.70851 0.8005 0.0
H983 H 0.42706 0.69257 0.84114 0.0
C984 C 0.4896 0.72777 0.90425 0.0
C985 C 0.47879 0.72974 0.95385 0.0
C986 C 0.48508 0.71548 0.86098 0.0
C987 C 0.46989 0.70472 0.86734 0.0
C988 C 0.45843 0.70772 0.91487 0.0
H989 H 0.44492 0.59921 0.87598 0.0
H990 H 0.44452 0.63173 0.87 0.0
C991 C 0.46275 0.72028 0.95743 0.0
C992 C 0.46818 0.68801 0.83338 0.0
H993 H 0.43714 0.65935 0.77846 0.0
C994 C 0.48278 0.67641 0.83373 0.0
C995 C 0.4518 0.68212 0.80973 0.0
C996 C 0.43606 0.69434 0.8031 0.0
C997 C 0.48104 0.65865 0.8166 0.0
C998 C 0.46423 0.65235 0.79819 0.0
C999 C 0.44995 0.66422 0.79325 0.0
C1000 C 0.46094 0.6331 0.79234 0.0
C1001 C 0.49684 0.64642 0.82291 0.0
C1002 C 0.46967 0.6232 0.74919 0.0
C1003 C 0.47005 0.60469 0.75287 0.0
C1004 C 0.46159 0.59585 0.79954 0.0
C1005 C 0.45157 0.60572 0.83973 0.0
C1006 C 0.45128 0.62425 0.8362 0.0
H1007 H 0.50829 0.65301 0.84466 0.0
H1008 H 0.49317 0.63442 0.84867 0.0
H1009 H 0.50121 0.64196 0.77894 0.0
H1010 H 0.47707 0.62982 0.7148 0.0
H1011 H 0.47756 0.59731 0.72059 0.0
H1012 H 0.79455 0.45406 0.99337 0.0
H1013 H 0.81511 0.4497 0.91307 0.0
H1014 H 0.7778 0.4735 0.79322 0.0
H1015 H 0.75654 0.47738 0.87357 0.0
H1016 H 0.8123 0.43383 0.79043 0.0
H1017 H 0.82318 0.50721 0.80347 0.0
H1018 H 0.81227 0.49556 0.86253 0.0
H1019 H 0.80112 0.49832 0.79375 0.0
C1020 C 0.79028 0.45777 0.94978 0.0
C1021 C 0.77388 0.46623 0.94023 0.0
C1022 C 0.80215 0.45531 0.90383 0.0
C1023 C 0.79798 0.46139 0.84752 0.0
C1024 C 0.78123 0.4688 0.83661 0.0
H1025 H 0.89956 0.48505 0.68585 0.0
H1026 H 0.86728 0.48164 0.68172 0.0
C1027 C 0.7692 0.47114 0.88267 0.0
C1028 C 0.81238 0.46217 0.8039 0.0
H1029 H 0.84629 0.48994 0.76635 0.0
C1030 C 0.8195 0.44615 0.78321 0.0
C1031 C 0.82155 0.4783 0.79375 0.0
C1032 C 0.81425 0.49589 0.81437 0.0
C1033 C 0.83645 0.44566 0.75778 0.0
C1034 C 0.84662 0.46149 0.75497 0.0
C1035 C 0.8386 0.47775 0.76927 0.0
C1036 C 0.86621 0.46121 0.74853 0.0
C1037 C 0.84362 0.42805 0.73711 0.0
C1038 C 0.87638 0.4508 0.78711 0.0
C1039 C 0.89481 0.45264 0.78924 0.0
C1040 C 0.90345 0.46515 0.75351 0.0
C1041 C 0.8933 0.47528 0.71389 0.0
C1042 C 0.87486 0.47329 0.71127 0.0
H1043 H 0.83281 0.4198 0.71808 0.0
H1044 H 0.85425 0.4298 0.70384 0.0
H1045 H 0.84913 0.42064 0.77503 0.0
H1046 H 0.87001 0.44191 0.81801 0.0
H1047 H 0.90216 0.44489 0.82104 0.0
H1048 H 0.02746 0.20155 0.85004 0.0
H1049 H 0.02677 0.17242 0.8022 0.0
H1050 H 0.98231 0.15691 0.90972 0.0
H1051 H 0.98304 0.18575 0.95832 0.0
H1052 H 0.03132 0.13932 0.85409 0.0
H1053 H 0.9656 0.14276 0.74556 0.0
H1054 H 0.97681 0.16218 0.77382 0.0
H1055 H 0.96466 0.14774 0.82237 0.0
C1056 C 0.01749 0.19198 0.86355 0.0
C1057 C 0.00526 0.19619 0.90813 0.0
C1058 C 0.01708 0.17532 0.83588 0.0
C1059 C 1.00434 0.16248 0.8517 0.0
C1060 C 0.99201 0.16668 0.89564 0.0
H1061 H 0.00909 0.04753 0.8133 0.0
H1062 H 0.00982 0.0784 0.8472 0.0
C1063 C 0.99244 0.18329 0.92341 0.0
C1064 C 1.00458 0.14434 0.82499 0.0
H1065 H 0.97891 0.11401 0.75188 0.0
C1066 C 0.01988 0.13384 0.83147 0.0
C1067 C 0.98977 0.13719 0.79471 0.0
C1068 C 0.97333 0.1481 0.78311 0.0
C1069 C 0.02059 0.11628 0.81027 0.0
C1070 C 0.00548 0.10883 0.78245 0.0
C1071 C 0.99039 0.11954 0.7741 0.0
C1072 C 1.00508 0.08997 0.7618 0.0
C1073 C 0.03761 0.10593 0.81735 0.0
C1074 C 1.0018 0.08605 0.7027 0.0
C1075 C 1.00131 0.06838 0.68318 0.0
C1076 C 1.00394 0.05415 0.72245 0.0
C1077 C 0.00714 0.0581 0.78171 0.0
C1078 C 0.00763 0.07579 0.80116 0.0
H1079 H 0.04921 0.11488 0.82386 0.0
H1080 H 0.03653 0.09721 0.85643 0.0
H1081 H 0.04017 0.09741 0.77861 0.0
H1082 H 0.99977 0.0967 0.67151 0.0
H1083 H 0.99895 0.06589 0.63718 0.0
H1084 H 0.30983 0.04579 0.89283 0.0
H1085 H 0.33882 0.04228 0.84667 0.0
H1086 H 0.33888 0.98666 0.8929 0.0
H1087 H 0.31037 0.99029 0.94235 0.0
H1088 H 0.36945 1.0007 0.92045 0.0
H1089 H 0.35425 0.02182 0.69432 0.0
H1090 H 0.3483 0.03869 0.74596 0.0
H1091 H 0.33707 0.0175 0.74749 0.0
C1092 C 0.31594 0.03277 0.89324 0.0
C1093 C 0.30762 0.01836 0.92186 0.0
C1094 C 0.33249 0.03072 0.86588 0.0
C1095 C 0.34107 0.01413 0.86533 0.0
C1096 C 0.33258 0.9996 0.89231 0.0
H1097 H 0.43779 0.99302 0.66355 0.0
H1098 H 0.40722 0.99483 0.69939 0.0
C1099 C 0.3161 1.00167 0.92016 0.0
C1100 C 0.35942 0.01224 0.84068 0.0
H1101 H 0.38518 0.02127 0.72081 0.0
C1102 C 0.3728 1.00504 0.87652 0.0
C1103 C 0.36391 0.01763 0.78303 0.0
C1104 C 0.35007 0.02415 0.7403 0.0
C1105 C 0.39047 1.00345 0.85705 0.0
C1106 C 0.39517 0.00979 0.80067 0.0
C1107 C 0.38172 0.01661 0.76428 0.0
C1108 C 0.41387 0.00918 0.77837 0.0
C1109 C 0.40382 0.99462 0.89692 0.0
C1110 C 0.42789 0.01702 0.80997 0.0
C1111 C 0.44546 0.01591 0.78981 0.0
C1112 C 0.44943 0.00719 0.73698 0.0
C1113 C 0.43531 0.99981 0.7045 0.0
C1114 C 0.41776 1.00082 0.72494 0.0
H1115 H 0.39722 0.98571 0.92911 0.0
H1116 H 0.41361 0.98671 0.87166 0.0
H1117 H 0.4111 1.00499 0.92185 0.0
H1118 H 0.42526 0.02404 0.85036 0.0
H1119 H 0.45593 0.02192 0.81568 0.0
H1120 H 0.52079 0.31605 0.95769 0.0
H1121 H 0.51797 0.34547 0.91365 0.0
H1122 H 0.4653 0.33207 0.85315 0.0
H1123 H 0.46792 0.3026 0.89903 0.0
H1124 H 0.51449 0.35555 0.80522 0.0
H1125 H 0.4554 0.37912 0.92709 0.0
H1126 H 0.46705 0.35904 0.94672 0.0
H1127 H 0.45141 0.359 0.88708 0.0
C1128 C 0.5086 0.31932 0.93487 0.0
C1129 C 0.4946 0.30692 0.93165 0.0
C1130 C 0.50698 0.33621 0.90979 0.0
C1131 C 0.49134 0.34121 0.88051 0.0
C1132 C 0.47734 0.32879 0.8767 0.0
H1133 H 0.49325 0.43458 0.64826 0.0
H1134 H 0.4917 0.40433 0.68725 0.0
C1135 C 0.47888 0.31189 0.90261 0.0
C1136 C 0.49013 0.35926 0.85305 0.0
H1137 H 0.46572 0.39762 0.85002 0.0
C1138 C 0.5038 0.36473 0.8151 0.0
C1139 C 0.47634 0.37142 0.86635 0.0
C1140 C 0.46181 0.36695 0.90947 0.0
C1141 C 0.50418 0.3819 0.79058 0.0
C1142 C 0.49013 0.3939 0.80249 0.0
C1143 C 0.47641 0.38843 0.84027 0.0
C1144 C 0.4898 0.41236 0.778 0.0
C1145 C 0.52005 0.38717 0.75393 0.0
C1146 C 0.48833 0.42711 0.81545 0.0
C1147 C 0.48881 0.44448 0.79307 0.0
C1148 C 0.49087 0.44753 0.73266 0.0
C1149 C 0.49185 0.43276 0.69507 0.0
C1150 C 0.49111 0.4154 0.71741 0.0
H1151 H 0.53178 0.37871 0.76363 0.0
H1152 H 0.51675 0.38545 0.70695 0.0
H1153 H 0.52379 0.40127 0.76137 0.0
H1154 H 0.48721 0.4252 0.86231 0.0
H1155 H 0.48803 0.45552 0.82333 0.0
H1156 H 0.18483 0.47849 0.95924 0.0
H1157 H 0.15586 0.47859 0.91034 0.0
H1158 H 0.17312 0.5217 0.79948 0.0
H1159 H 0.20225 0.52159 0.8478 0.0
H1160 H 0.13278 0.51094 0.90443 0.0
H1161 H 0.15029 0.48423 0.68459 0.0
H1162 H 0.1624 0.47786 0.74967 0.0
H1163 H 0.16524 0.49966 0.71954 0.0
C1164 C 0.18265 0.48775 0.92361 0.0
C1165 C 0.19597 0.49999 0.90741 0.0
C1166 C 0.16601 0.48787 0.89595 0.0
C1167 C 0.16234 0.50006 0.85093 0.0
C1168 C 0.1757 0.51204 0.83366 0.0
H1169 H 0.06615 0.51804 0.64156 0.0
H1170 H 0.09648 0.51832 0.68044 0.0
C1171 C 0.19232 0.51202 0.86161 0.0
C1172 C 0.14419 0.50092 0.8248 0.0
H1173 H 0.12049 0.49235 0.70015 0.0
C1174 C 0.13008 0.50686 0.85978 0.0
C1175 C 0.14072 0.49584 0.76633 0.0
C1176 C 0.15537 0.48896 0.7275 0.0
C1177 C 0.11261 0.50786 0.83799 0.0
C1178 C 0.10896 0.50224 0.77998 0.0
C1179 C 0.12318 0.49659 0.74463 0.0
C1180 C 0.09048 0.50186 0.75573 0.0
C1181 C 0.0983 0.51531 0.87716 0.0
C1182 C 0.07694 0.49228 0.78426 0.0
C1183 C 0.05952 0.49226 0.76248 0.0
C1184 C 0.05521 0.50162 0.71102 0.0
C1185 C 0.0689 0.5108 0.68153 0.0
C1186 C 0.08631 0.51093 0.70364 0.0
H1187 H 0.104 0.52408 0.9115 0.0
H1188 H 0.08838 0.52303 0.8517 0.0
H1189 H 0.09134 0.5042 0.89952 0.0
H1190 H 0.07985 0.48473 0.82351 0.0
H1191 H 0.04943 0.48487 0.78606 0.0
H1192 H 0.01112 0.79984 0.47513 0.0
H1193 H 0.00887 0.82949 0.51839 0.0
H1194 H 0.98191 0.8484 0.36395 0.0
H1195 H 0.98429 0.81887 0.31999 0.0
H1196 H 0.02359 0.86064 0.47263 0.0
H1197 H 0.95053 0.86761 0.49572 0.0
H1198 H 0.96113 0.84639 0.48384 0.0
H1199 H 0.95779 0.86145 0.42368 0.0
C1200 C 1.0046 0.81026 0.45038 0.0
C1201 C 0.9979 0.80687 0.39387 0.0
C1202 C 1.00328 0.82722 0.47533 0.0
C1203 C 0.99509 0.84119 0.44475 0.0
C1204 C 0.98798 0.83778 0.389 0.0
H1205 H 0.98219 0.95493 0.50796 0.0
H1206 H 0.98174 0.9247 0.46836 0.0
C1207 C 0.98932 0.82082 0.36393 0.0
C1208 C 0.99502 0.85954 0.46962 0.0
H1209 H 0.96784 0.89359 0.51204 0.0
C1210 C 0.01139 0.86779 0.48158 0.0
C1211 C 0.97912 0.86897 0.48093 0.0
C1212 C 0.96113 0.86064 0.47091 0.0
C1213 C 0.01232 0.88525 0.50353 0.0
C1214 C 0.99642 0.89466 0.51523 0.0
C1215 C 0.98004 0.88642 0.50317 0.0
C1216 C 0.99653 0.91304 0.53997 0.0
C1217 C 0.03038 0.89359 0.51244 0.0
C1218 C 1.00478 0.91663 0.59387 0.0
C1219 C 0.00516 0.93394 0.61645 0.0
C1220 C 0.9971 0.9481 0.58617 0.0
C1221 C 0.9886 0.94442 0.53258 0.0
C1222 C 0.98827 0.9271 0.50988 0.0
H1223 H 0.04076 0.88685 0.48601 0.0
H1224 H 0.03026 0.90793 0.50063 0.0
H1225 H 0.03419 0.89239 0.5592 0.0
H1226 H 0.01095 0.90601 0.61865 0.0
H1227 H 0.01195 0.93619 0.65735 0.0
H1228 H 0.68257 0.98349 0.3458 0.0
H1229 H 0.65372 0.98193 0.39495 0.0
H1230 H 0.67718 1.00333 0.55196 0.0
H1231 H 0.70611 1.00488 0.50325 0.0
H1232 H 0.64184 0.96485 0.49633 0.0
H1233 H 0.63678 0.03815 0.51966 0.0
H1234 H 0.65316 0.02773 0.47342 0.0
H1235 H 0.65646 0.02867 0.5513 0.0
C1236 C 0.68171 0.98758 0.39113 0.0
C1237 C 0.69673 0.99443 0.42032 0.0
C1238 C 0.66514 0.98679 0.41909 0.0
C1239 C 0.66315 0.99287 0.4768 0.0
C1240 C 0.67824 0.99899 0.50694 0.0
H1241 H 0.56983 0.00685 0.70139 0.0
H1242 H 0.60013 1.00487 0.66266 0.0
C1243 C 0.69481 0.99982 0.47901 0.0
C1244 C 0.64523 0.99316 0.50486 0.0
H1245 H 0.61414 0.02098 0.56404 0.0
C1246 C 0.63578 0.97713 0.5111 0.0
C1247 C 0.63727 0.00917 0.52422 0.0
C1248 C 0.64634 0.02694 0.51644 0.0
C1249 C 0.61875 0.97665 0.53664 0.0
C1250 C 0.61074 0.99268 0.55555 0.0
C1251 C 0.62026 0.00868 0.54977 0.0
C1252 C 0.59234 0.99326 0.57993 0.0
C1253 C 0.6096 0.95891 0.54398 0.0
C1254 C 0.57779 0.98754 0.54628 0.0
C1255 C 0.56045 0.98863 0.5683 0.0
C1256 C 0.55719 0.99559 0.62446 0.0
C1257 C 0.57179 1.00134 0.6581 0.0
C1258 C 0.58915 1.00025 0.63597 0.0
H1259 H 0.61926 0.94775 0.54345 0.0
H1260 H 0.60199 0.95836 0.58557 0.0
H1261 H 0.60017 0.95689 0.50722 0.0
H1262 H 0.5798 0.98249 0.50243 0.0
H1263 H 0.54958 0.98418 0.54087 0.0
H1264 H 0.48468 0.69156 0.4062 0.0
H1265 H 0.48356 0.66213 0.45145 0.0
H1266 H 0.53889 0.66669 0.49866 0.0
H1267 H 0.54016 0.69607 0.45223 0.0
H1268 H 0.53289 0.6353 0.45283 0.0
H1269 H 0.48078 0.64698 0.61862 0.0
H1270 H 0.4731 0.6523 0.54644 0.0
H1271 H 0.49104 0.6649 0.57832 0.0
C1272 C 0.49653 0.68647 0.42723 0.0
C1273 C 0.51249 0.69629 0.42587 0.0
C1274 C 0.49587 0.66959 0.4533 0.0
C1275 C 0.51105 0.66218 0.47963 0.0
C1276 C 0.52695 0.67206 0.47891 0.0
H1277 H 0.50607 0.56576 0.69479 0.0
H1278 H 0.50875 0.59628 0.659 0.0
C1279 C 0.52767 0.68888 0.4523 0.0
C1280 C 0.5106 0.64379 0.50483 0.0
H1281 H 0.48767 0.61653 0.59829 0.0
C1282 C 0.52306 0.63126 0.48497 0.0
C1283 C 0.49802 0.63845 0.5476 0.0
C1284 C 0.48511 0.65142 0.57446 0.0
C1285 C 0.52306 0.61359 0.50547 0.0
C1286 C 0.50983 0.60798 0.54572 0.0
C1287 C 0.49765 0.62062 0.56672 0.0
C1288 C 0.50853 0.58919 0.56719 0.0
C1289 C 0.53753 0.60126 0.4846 0.0
C1290 C 0.50735 0.57485 0.52782 0.0
C1291 C 0.50606 0.55728 0.54829 0.0
C1292 C 0.50555 0.55365 0.60867 0.0
C1293 C 0.50645 0.56802 0.64799 0.0
C1294 C 0.50796 0.58554 0.62753 0.0
H1295 H 0.5495 0.60878 0.47036 0.0
H1296 H 0.54152 0.59174 0.51938 0.0
H1297 H 0.53262 0.59361 0.44638 0.0
H1298 H 0.50718 0.57723 0.48109 0.0
H1299 H 0.50513 0.54659 0.51676 0.0
H1300 H 0.80185 0.48339 0.45865 0.0
H1301 H 0.83193 0.48409 0.49923 0.0
H1302 H 0.84347 0.53132 0.39895 0.0
H1303 H 0.81363 0.53039 0.35666 0.0
H1304 H 0.86914 0.50566 0.3866 0.0
H1305 H 0.85479 0.51548 0.62245 0.0
H1306 H 0.84355 0.49678 0.59067 0.0
H1307 H 0.83821 0.51891 0.56642 0.0
C1308 C 0.81073 0.49401 0.44543 0.0
C1309 C 0.8052 0.50684 0.40423 0.0
C1310 C 0.82791 0.4945 0.46923 0.0
C1311 C 0.83999 0.50788 0.45278 0.0
C1312 C 0.8344 0.52092 0.41269 0.0
H1313 H 0.95326 0.52853 0.51277 0.0
H1314 H 0.92238 0.52913 0.47855 0.0
C1315 C 0.81722 0.52045 0.38889 0.0
C1316 C 0.85877 0.50765 0.47411 0.0
H1317 H 0.8846 0.50854 0.59737 0.0
C1318 C 0.87252 0.50642 0.43269 0.0
C1319 C 0.86323 0.50839 0.5343 0.0
C1320 C 0.84919 0.51012 0.58106 0.0
C1321 C 0.8905 0.5057 0.44961 0.0
C1322 C 0.895 0.50673 0.50975 0.0
C1323 C 0.88124 0.50784 0.55125 0.0
C1324 C 0.91385 0.50657 0.53064 0.0
C1325 C 0.90442 0.50325 0.40278 0.0
C1326 C 0.91937 0.49409 0.57271 0.0
C1327 C 0.93687 0.49411 0.59372 0.0
C1328 C 0.94941 0.50639 0.5722 0.0
C1329 C 0.94396 0.51879 0.52976 0.0
C1330 C 0.92632 0.51905 0.50986 0.0
H1331 H 0.89869 0.49717 0.36267 0.0
H1332 H 0.90994 0.51643 0.39046 0.0
H1333 H 0.91548 0.49472 0.41844 0.0
H1334 H 0.91014 0.48417 0.58882 0.0
H1335 H 0.94066 0.48427 0.62606 0.0
loop_
_geom_bond_atom_site_label_1
_geom_bond_atom_site_label_2
_geom_bond_distance
_geom_bond_site_symmetry_2
_ccdc_geom_bond_type
C0 C1 1.386 . S
C0 C2 1.397 . S
C0 H24 0.931 . S
C1 C0 1.386 . S
C1 C5 1.397 . S
C2 C0 1.397 . S
C2 C3 1.384 . S
C2 H25 0.930 . S
C3 C2 1.384 . S
C3 C4 1.377 . S
C3 C6 1.481 . S
C4 C3 1.377 . S
C4 C5 1.389 . S
C4 H26 0.929 . S
C5 C1 1.397 . S
C5 C4 1.389 . S
C5 H27 0.931 . S
C6 C3 1.481 . S
C6 C7 1.387 . S
C6 C11 1.390 . S
C7 C6 1.387 . S
C7 C8 1.401 . S
C7 H28 0.930 . S
C8 C7 1.401 . S
C8 C9 1.376 . S
C8 C17 1.511 . S
C9 C8 1.376 . S
C9 C10 1.392 . S
C9 H30 0.931 . S
C10 C9 1.392 . S
C10 C11 1.361 . S
C10 C12 1.500 . S
C11 C6 1.390 . S
C11 C10 1.361 . S
C11 H29 0.931 . S
C12 C10 1.500 . S
C12 C13 1.371 . S
C12 C14 1.365 . S
C13 C12 1.371 . S
C13 C23 1.386 . S
C13 H31 0.931 . S
C14 C12 1.365 . S
C14 C15 1.409 . S
C14 H32 0.929 . S
C15 C14 1.409 . S
C15 C16 1.380 . S
C15 H33 0.930 . S
C16 C15 1.380 . S
C16 C23 1.357 . S
C17 C8 1.511 . S
C17 C18 1.341 . S
C17 C19 1.371 . S
C18 C17 1.341 . S
C18 C22 1.394 . S
C18 H34 0.930 . S
C19 C17 1.371 . S
C19 C20 1.392 . S
C19 H35 0.931 . S
C20 C19 1.392 . S
C20 C21 1.331 . S
C20 H38 0.932 . S
C21 C20 1.331 . S
C21 C22 1.336 . S
C22 C18 1.394 . S
C22 C21 1.336 . S
C22 H37 0.929 . S
C23 C13 1.386 . S
C23 C16 1.357 . S
C23 H36 0.928 . S
H24 C0 0.931 . S
H25 C2 0.930 . S
H26 C4 0.929 . S
H27 C5 0.931 . S
H28 C7 0.930 . S
H29 C11 0.931 . S
H30 C9 0.931 . S
H31 C13 0.931 . S
H32 C14 0.929 . S
H33 C15 0.930 . S
H34 C18 0.930 . S
H35 C19 0.931 . S
H36 C23 0.928 . S
H37 C22 0.929 . S
H38 C20 0.932 . S
C39 C40 1.394 . S
C39 C41 1.397 . S
C39 H63 0.931 . S
C40 C39 1.394 . S
C40 C44 1.389 1_655 S
C41 C39 1.397 . S
C41 C42 1.389 . S
C41 H64 0.930 . S
C42 C41 1.389 . S
C42 C43 1.373 1_655 S
C42 C45 1.480 . S
C43 C42 1.373 1_455 S
C43 C44 1.389 . S
C43 H65 0.929 . S
C44 C40 1.389 1_455 S
C44 C43 1.389 . S
C44 H66 0.931 . S
C45 C42 1.480 . S
C45 C46 1.388 . S
C45 C50 1.390 . S
C46 C45 1.388 . S
C46 C47 1.402 . S
C46 H67 0.930 . S
C47 C46 1.402 . S
C47 C48 1.376 . S
C47 C56 1.513 . S
C48 C47 1.376 . S
C48 C49 1.392 . S
C48 H69 0.934 . S
C49 C48 1.392 . S
C49 C50 1.361 . S
C49 C51 1.499 1_655 S
C50 C45 1.390 . S
C50 C49 1.361 . S
C50 H68 0.931 . S
C51 C49 1.499 1_455 S
C51 C52 1.364 1_455 S
C51 C53 1.373 . S
C52 C51 1.364 1_655 S
C52 C62 1.386 . S
C52 H70 0.931 . S
C53 C51 1.373 . S
C53 C54 1.409 . S
C53 H71 0.929 . S
C54 C53 1.409 . S
C54 C55 1.377 . S
C54 H72 0.930 . S
C55 C54 1.377 . S
C55 C62 1.360 1_455 S
C56 C47 1.513 . S
C56 C57 1.341 . S
C56 C58 1.371 1_655 S
C57 C56 1.341 . S
C57 C61 1.394 . S
C57 H73 0.930 . S
C58 C56 1.371 1_455 S
C58 C59 1.392 . S
C58 H74 0.931 . S
C59 C58 1.392 . S
C59 C60 1.322 1_455 S
C59 H77 0.932 . S
C60 C59 1.322 1_655 S
C60 C61 1.345 . S
C61 C57 1.394 . S
C61 C60 1.345 . S
C61 H76 0.929 . S
C62 C52 1.386 . S
C62 C55 1.360 1_655 S
C62 H75 0.928 . S
H63 C39 0.931 . S
H64 C41 0.930 . S
H65 C43 0.929 . S
H66 C44 0.931 . S
H67 C46 0.930 . S
H68 C50 0.931 . S
H69 C48 0.934 . S
H70 C52 0.931 . S
H71 C53 0.929 . S
H72 C54 0.930 . S
H73 C57 0.930 . S
H74 C58 0.931 . S
H75 C62 0.928 . S
H76 C61 0.929 . S
H77 C59 0.932 . S
C78 C79 1.386 . S
C78 C80 1.397 . S
C78 H102 0.931 . S
C79 C78 1.386 . S
C79 C83 1.397 1_565 S
C80 C78 1.397 . S
C80 C81 1.384 . S
C80 H103 0.930 . S
C81 C80 1.384 . S
C81 C82 1.377 1_565 S
C81 C84 1.481 . S
C82 C81 1.377 1_545 S
C82 C83 1.389 . S
C82 H104 0.929 . S
C83 C79 1.397 1_545 S
C83 C82 1.389 . S
C83 H105 0.931 . S
C84 C81 1.481 . S
C84 C85 1.387 . S
C84 C89 1.390 . S
C85 C84 1.387 . S
C85 C86 1.401 . S
C85 H106 0.930 . S
C86 C85 1.401 . S
C86 C87 1.376 . S
C86 C95 1.511 . S
C87 C86 1.376 . S
C87 C88 1.392 . S
C87 H108 0.931 . S
C88 C87 1.392 . S
C88 C89 1.361 . S
C88 C90 1.500 . S
C89 C84 1.390 . S
C89 C88 1.361 . S
C89 H107 0.931 . S
C90 C88 1.500 . S
C90 C91 1.371 . S
C90 C92 1.365 1_565 S
C91 C90 1.371 . S
C91 C101 1.386 . S
C91 H109 0.931 . S
C92 C90 1.365 1_545 S
C92 C93 1.409 . S
C92 H110 0.929 . S
C93 C92 1.409 . S
C93 C94 1.380 1_545 S
C93 H111 0.930 . S
C94 C93 1.380 1_565 S
C94 C101 1.357 . S
C95 C86 1.511 . S
C95 C96 1.341 . S
C95 C97 1.359 1_565 S
C96 C95 1.341 . S
C96 C100 1.394 . S
C96 H112 0.930 . S
C97 C95 1.359 1_545 S
C97 C98 1.394 . S
C97 H113 0.944 . S
C98 C97 1.394 . S
C98 C99 1.331 1_545 S
C98 H116 0.932 . S
C99 C98 1.331 1_565 S
C99 C100 1.336 . S
C100 C96 1.394 . S
C100 C99 1.336 . S
C100 H115 0.929 . S
C101 C91 1.386 . S
C101 C94 1.357 . S
C101 H114 0.928 . S
H102 C78 0.931 . S
H103 C80 0.930 . S
H104 C82 0.929 . S
H105 C83 0.931 . S
H106 C85 0.930 . S
H107 C89 0.931 . S
H108 C87 0.931 . S
H109 C91 0.931 . S
H110 C92 0.929 . S
H111 C93 0.930 . S
H112 C96 0.930 . S
H113 C97 0.944 . S
H114 C101 0.928 . S
H115 C100 0.929 . S
H116 C98 0.932 . S
C117 C118 1.386 . S
C117 C119 1.397 . S
C117 H141 0.931 . S
C118 C117 1.386 . S
C118 C122 1.397 . S
C119 C117 1.397 . S
C119 C120 1.384 . S
C119 H142 0.930 . S
C120 C119 1.384 . S
C120 C121 1.377 . S
C120 C123 1.481 . S
C121 C120 1.377 . S
C121 C122 1.389 . S
C121 H143 0.929 . S
C122 C118 1.397 . S
C122 C121 1.389 . S
C122 H144 0.931 . S
C123 C120 1.481 . S
C123 C124 1.387 . S
C123 C128 1.390 . S
C124 C123 1.387 . S
C124 C125 1.401 . S
C124 H145 0.930 . S
C125 C124 1.401 . S
C125 C126 1.376 . S
C125 C134 1.511 . S
C126 C125 1.376 . S
C126 C127 1.392 . S
C126 H147 0.931 . S
C127 C126 1.392 . S
C127 C128 1.361 . S
C127 C129 1.500 . S
C128 C123 1.390 . S
C128 C127 1.361 . S
C128 H146 0.931 . S
C129 C127 1.500 . S
C129 C130 1.371 . S
C129 C131 1.365 . S
C130 C129 1.371 . S
C130 C140 1.386 . S
C130 H148 0.931 . S
C131 C129 1.365 . S
C131 C132 1.409 . S
C131 H149 0.929 . S
C132 C131 1.409 . S
C132 C133 1.380 . S
C132 H150 0.930 . S
C133 C132 1.380 . S
C133 C140 1.357 . S
C134 C125 1.511 . S
C134 C135 1.341 . S
C134 C136 1.371 . S
C135 C134 1.341 . S
C135 C139 1.394 . S
C135 H151 0.930 . S
C136 C134 1.371 . S
C136 C137 1.392 . S
C136 H152 0.931 . S
C137 C136 1.392 . S
C137 C138 1.331 . S
C137 H155 0.932 . S
C138 C137 1.331 . S
C138 C139 1.336 . S
C139 C135 1.394 . S
C139 C138 1.336 . S
C139 H154 0.929 . S
C140 C130 1.386 . S
C140 C133 1.357 . S
C140 H153 0.928 . S
H141 C117 0.931 . S
H142 C119 0.930 . S
H143 C121 0.929 . S
H144 C122 0.931 . S
H145 C124 0.930 . S
H146 C128 0.931 . S
H147 C126 0.931 . S
H148 C130 0.931 . S
H149 C131 0.929 . S
H150 C132 0.930 . S
H151 C135 0.930 . S
H152 C136 0.931 . S
H153 C140 0.928 . S
H154 C139 0.929 . S
H155 C137 0.932 . S
C156 C157 1.386 . S
C156 C158 1.397 . S
C156 H180 0.931 . S
C157 C156 1.386 . S
C157 C161 1.397 . S
C158 C156 1.397 . S
C158 C159 1.384 . S
C158 H181 0.930 . S
C159 C158 1.384 . S
C159 C160 1.377 . S
C159 C162 1.481 . S
C160 C159 1.377 . S
C160 C161 1.389 . S
C160 H182 0.929 . S
C161 C157 1.397 . S
C161 C160 1.389 . S
C161 H183 0.931 . S
C162 C159 1.481 . S
C162 C163 1.387 . S
C162 C167 1.390 . S
C163 C162 1.387 . S
C163 C164 1.401 . S
C163 H184 0.930 . S
C164 C163 1.401 . S
C164 C165 1.376 1_554 S
C164 C173 1.511 . S
C165 C164 1.376 1_556 S
C165 C166 1.392 . S
C165 H186 0.931 . S
C166 C165 1.392 . S
C166 C167 1.361 1_556 S
C166 C168 1.500 . S
C167 C162 1.390 . S
C167 C166 1.361 1_554 S
C167 H185 0.931 . S
C168 C166 1.500 . S
C168 C169 1.371 . S
C168 C170 1.365 . S
C169 C168 1.371 . S
C169 C179 1.386 . S
C169 H187 0.931 . S
C170 C168 1.365 . S
C170 C171 1.409 . S
C170 H188 0.929 . S
C171 C170 1.409 . S
C171 C172 1.380 . S
C171 H189 0.930 . S
C172 C171 1.380 . S
C172 C179 1.357 . S
C173 C164 1.511 . S
C173 C174 1.341 . S
C173 C175 1.371 . S
C174 C173 1.341 . S
C174 C178 1.394 . S
C174 H190 0.930 . S
C175 C173 1.371 . S
C175 C176 1.392 . S
C175 H191 0.931 1_554 S
C176 C175 1.392 . S
C176 C177 1.331 . S
C176 H194 0.932 . S
C177 C176 1.331 . S
C177 C178 1.336 . S
C178 C174 1.394 . S
C178 C177 1.336 . S
C178 H193 0.929 . S
C179 C169 1.386 . S
C179 C172 1.357 . S
C179 H192 0.928 . S
H180 C156 0.931 . S
H181 C158 0.930 . S
H182 C160 0.929 . S
H183 C161 0.931 . S
H184 C163 0.930 . S
H185 C167 0.931 . S
H186 C165 0.931 . S
H187 C169 0.931 . S
H188 C170 0.929 . S
H189 C171 0.930 . S
H190 C174 0.930 . S
H191 C175 0.931 1_556 S
H192 C179 0.928 . S
H193 C178 0.929 . S
H194 C176 0.932 . S
C195 C196 1.385 . S
C195 C197 1.397 . S
C195 H219 0.931 . S
C196 C195 1.385 . S
C196 C200 1.398 1_655 S
C197 C195 1.397 . S
C197 C198 1.389 1_655 S
C197 H220 0.930 . S
C198 C197 1.389 1_455 S
C198 C199 1.373 . S
C198 C201 1.480 1_455 S
C199 C198 1.373 . S
C199 C200 1.389 . S
C199 H221 0.929 . S
C200 C196 1.398 1_455 S
C200 C199 1.389 . S
C200 H222 0.931 . S
C201 C198 1.480 1_655 S
C201 C202 1.386 . S
C201 C206 1.390 . S
C202 C201 1.386 . S
C202 C203 1.400 . S
C202 H223 0.935 . S
C203 C202 1.400 . S
C203 C204 1.376 1_554 S
C203 C212 1.512 . S
C204 C203 1.376 1_556 S
C204 C205 1.392 1_655 S
C204 H225 0.933 . S
C205 C204 1.392 1_455 S
C205 C206 1.361 1_456 S
C205 C207 1.499 . S
C206 C201 1.390 . S
C206 C205 1.361 1_654 S
C206 H224 0.931 1_655 S
C207 C205 1.499 . S
C207 C208 1.357 1_455 S
C207 C209 1.380 . S
C208 C207 1.357 1_655 S
C208 C218 1.386 . S
C208 H226 0.931 . S
C209 C207 1.380 . S
C209 C210 1.409 . S
C209 H227 0.929 . S
C210 C209 1.409 . S
C210 C211 1.384 . S
C210 H228 0.930 . S
C211 C210 1.384 . S
C211 C218 1.353 1_455 S
C212 C203 1.512 . S
C212 C213 1.341 . S
C212 C214 1.371 1_655 S
C213 C212 1.341 . S
C213 C217 1.394 . S
C213 H229 0.930 . S
C214 C212 1.371 1_455 S
C214 C215 1.392 . S
C214 H230 0.931 1_554 S
C215 C214 1.392 . S
C215 C216 1.327 1_455 S
C215 H233 0.932 . S
C216 C215 1.327 1_655 S
C216 C217 1.341 . S
C217 C213 1.394 . S
C217 C216 1.341 . S
C217 H232 0.929 . S
C218 C208 1.386 . S
C218 C211 1.353 1_655 S
C218 H231 0.928 . S
H219 C195 0.931 . S
H220 C197 0.930 . S
H221 C199 0.929 . S
H222 C200 0.931 . S
H223 C202 0.935 . S
H224 C206 0.931 1_455 S
H225 C204 0.933 . S
H226 C208 0.931 . S
H227 C209 0.929 . S
H228 C210 0.930 . S
H229 C213 0.930 . S
H230 C214 0.931 1_556 S
H231 C218 0.928 . S
H232 C217 0.929 . S
H233 C215 0.932 . S
C234 C235 1.386 1_565 S
C234 C236 1.397 . S
C234 H258 0.931 . S
C235 C234 1.386 1_545 S
C235 C239 1.397 . S
C236 C234 1.397 . S
C236 C237 1.384 1_565 S
C236 H259 0.930 . S
C237 C236 1.384 1_545 S
C237 C238 1.377 . S
C237 C240 1.481 . S
C238 C237 1.377 . S
C238 C239 1.389 . S
C238 H260 0.929 . S
C239 C235 1.397 . S
C239 C238 1.389 . S
C239 H261 0.931 . S
C240 C237 1.481 . S
C240 C241 1.387 . S
C240 C245 1.390 . S
C241 C240 1.387 . S
C241 C242 1.401 . S
C241 H262 0.930 . S
C242 C241 1.401 . S
C242 C243 1.376 1_554 S
C242 C251 1.511 . S
C243 C242 1.376 1_556 S
C243 C244 1.392 . S
C243 H264 0.931 . S
C244 C243 1.392 . S
C244 C245 1.361 1_556 S
C244 C246 1.500 . S
C245 C240 1.390 . S
C245 C244 1.361 1_554 S
C245 H263 0.931 . S
C246 C244 1.500 . S
C246 C247 1.371 1_545 S
C246 C248 1.365 . S
C247 C246 1.371 1_565 S
C247 C257 1.386 . S
C247 H265 0.931 . S
C248 C246 1.365 . S
C248 C249 1.409 . S
C248 H266 0.929 . S
C249 C248 1.409 . S
C249 C250 1.380 . S
C249 H267 0.930 . S
C250 C249 1.380 . S
C250 C257 1.357 1_545 S
C251 C242 1.511 . S
C251 C252 1.333 1_545 S
C251 C253 1.371 . S
C252 C251 1.333 1_565 S
C252 C256 1.393 . S
C252 H268 0.940 . S
C253 C251 1.371 . S
C253 C254 1.392 . S
C253 H269 0.931 1_554 S
C254 C253 1.392 . S
C254 C255 1.331 . S
C254 H272 0.932 . S
C255 C254 1.331 . S
C255 C256 1.338 1_545 S
C256 C252 1.393 . S
C256 C255 1.338 1_565 S
C256 H271 0.928 . S
C257 C247 1.386 . S
C257 C250 1.357 1_565 S
C257 H270 0.928 . S
H258 C234 0.931 . S
H259 C236 0.930 . S
H260 C238 0.929 . S
H261 C239 0.931 . S
H262 C241 0.930 . S
H263 C245 0.931 . S
H264 C243 0.931 . S
H265 C247 0.931 . S
H266 C248 0.929 . S
H267 C249 0.930 . S
H268 C252 0.940 . S
H269 C253 0.931 1_556 S
H270 C257 0.928 . S
H271 C256 0.928 . S
H272 C254 0.932 . S
C273 C274 1.386 . S
C273 C275 1.397 . S
C273 H297 0.931 . S
C274 C273 1.386 . S
C274 C278 1.397 . S
C275 C273 1.397 . S
C275 C276 1.384 . S
C275 H298 0.930 . S
C276 C275 1.384 . S
C276 C277 1.377 . S
C276 C279 1.481 . S
C277 C276 1.377 . S
C277 C278 1.389 . S
C277 H299 0.929 . S
C278 C274 1.397 . S
C278 C277 1.389 . S
C278 H300 0.931 . S
C279 C276 1.481 . S
C279 C280 1.387 . S
C279 C284 1.390 1_556 S
C280 C279 1.387 . S
C280 C281 1.401 1_556 S
C280 H301 0.930 . S
C281 C280 1.401 1_554 S
C281 C282 1.376 . S
C281 C290 1.511 . S
C282 C281 1.376 . S
C282 C283 1.392 . S
C282 H303 0.931 . S
C283 C282 1.392 . S
C283 C284 1.361 . S
C283 C285 1.500 . S
C284 C279 1.390 1_554 S
C284 C283 1.361 . S
C284 H302 0.931 . S
C285 C283 1.500 . S
C285 C286 1.371 . S
C285 C287 1.365 . S
C286 C285 1.371 . S
C286 C296 1.386 . S
C286 H304 0.931 . S
C287 C285 1.365 . S
C287 C288 1.409 . S
C287 H305 0.929 . S
C288 C287 1.409 . S
C288 C289 1.380 . S
C288 H306 0.930 . S
C289 C288 1.380 . S
C289 C296 1.357 . S
C290 C281 1.511 . S
C290 C291 1.341 . S
C290 C292 1.371 . S
C291 C290 1.341 . S
C291 C295 1.394 . S
C291 H307 0.930 1_554 S
C292 C290 1.371 . S
C292 C293 1.392 . S
C292 H308 0.931 . S
C293 C292 1.392 . S
C293 C294 1.331 . S
C293 H311 0.932 . S
C294 C293 1.331 . S
C294 C295 1.336 . S
C295 C291 1.394 . S
C295 C294 1.336 . S
C295 H310 0.929 . S
C296 C286 1.386 . S
C296 C289 1.357 . S
C296 H309 0.928 . S
H297 C273 0.931 . S
H298 C275 0.930 . S
H299 C277 0.929 . S
H300 C278 0.931 . S
H301 C280 0.930 . S
H302 C284 0.931 . S
H303 C282 0.931 . S
H304 C286 0.931 . S
H305 C287 0.929 . S
H306 C288 0.930 . S
H307 C291 0.930 1_556 S
H308 C292 0.931 . S
H309 C296 0.928 . S
H310 C295 0.929 . S
H311 C293 0.932 . S
La312 C314 2.928 . S
La312 O332 2.521 . S
La312 O333 2.628 . S
La312 O334 2.554 . S
La312 O335 2.757 1_565 S
La312 O336 2.470 . S
La312 O341 2.482 1_455 S
La312 O343 2.503 1_565 S
La313 C323 2.928 . S
La313 O335 2.482 1_655 S
La313 O337 2.503 1_545 S
La313 O338 2.521 . S
La313 O339 2.628 . S
La313 O340 2.554 . S
La313 O341 2.757 1_545 S
La313 O342 2.470 . S
C314 La312 2.928 . S
C314 C315 1.503 . S
C314 O332 1.261 . S
C314 O333 1.243 . S
C315 C314 1.503 . S
C315 C316 1.394 . S
C315 C320 1.373 . S
C316 C315 1.394 . S
C316 C317 1.380 . S
C316 H344 0.930 . S
C317 C316 1.380 . S
C317 C318 1.376 . S
C317 H345 0.930 . S
C318 C317 1.376 . S
C318 C319 1.370 . S
C319 C318 1.370 . S
C319 C320 1.396 . S
C319 H346 0.929 1_455 S
C320 C315 1.373 . S
C320 C319 1.396 . S
C320 H347 0.929 1_455 S
C321 O334 1.222 1_545 S
C321 O335 1.302 . S
C322 O336 1.258 1_655 S
C322 O337 1.256 . S
C323 La313 2.928 . S
C323 C324 1.503 . S
C323 O338 1.261 . S
C323 O339 1.243 . S
C324 C323 1.503 . S
C324 C325 1.394 . S
C324 C329 1.373 . S
C325 C324 1.394 . S
C325 C326 1.380 . S
C325 H348 0.930 . S
C326 C325 1.380 . S
C326 C327 1.376 . S
C326 H349 0.930 . S
C327 C326 1.376 . S
C327 C328 1.370 . S
C328 C327 1.370 . S
C328 C329 1.396 . S
C328 H350 0.929 1_655 S
C329 C324 1.373 . S
C329 C328 1.396 . S
C329 H351 0.929 1_655 S
C330 O340 1.240 . S
C330 O341 1.289 1_545 S
C331 O342 1.258 1_455 S
C331 O343 1.256 . S
O332 La312 2.521 . S
O332 C314 1.261 . S
O333 La312 2.628 . S
O333 C314 1.243 . S
O334 La312 2.554 . S
O334 C321 1.222 1_565 S
O335 La312 2.757 1_545 S
O335 La313 2.482 1_455 S
O335 C321 1.302 . S
O336 La312 2.470 . S
O336 C322 1.258 1_455 S
O337 La313 2.503 1_565 S
O337 C322 1.256 . S
O338 La313 2.521 . S
O338 C323 1.261 . S
O339 La313 2.628 . S
O339 C323 1.243 . S
O340 La313 2.554 . S
O340 C330 1.240 . S
O341 La312 2.482 1_655 S
O341 La313 2.757 1_565 S
O341 C330 1.289 1_565 S
O342 La313 2.470 . S
O342 C331 1.258 1_655 S
O343 La312 2.503 1_545 S
O343 C331 1.256 . S
H344 C316 0.930 . S
H345 C317 0.930 . S
H346 C319 0.929 1_655 S
H347 C320 0.929 1_655 S
H348 C325 0.930 . S
H349 C326 0.930 . S
H350 C328 0.929 1_455 S
H351 C329 0.929 1_455 S
La352 C354 2.928 . S
La352 O372 2.521 . S
La352 O373 2.628 . S
La352 O374 2.554 . S
La352 O375 2.757 . S
La352 O376 2.470 . S
La352 O381 2.482 1_545 S
La352 O383 2.503 . S
La353 C363 2.928 . S
La353 O375 2.482 1_565 S
La353 O377 2.503 . S
La353 O378 2.521 . S
La353 O379 2.624 1_565 S
La353 O380 2.554 . S
La353 O381 2.757 . S
La353 O382 2.470 . S
C354 La352 2.928 . S
C354 C355 1.503 . S
C354 O372 1.261 . S
C354 O373 1.243 . S
C355 C354 1.503 . S
C355 C356 1.394 . S
C355 C360 1.373 . S
C356 C355 1.394 . S
C356 C357 1.380 . S
C356 H384 0.930 . S
C357 C356 1.380 . S
C357 C358 1.376 . S
C357 H385 0.930 . S
C358 C357 1.376 . S
C358 C359 1.370 . S
C359 C358 1.370 . S
C359 C360 1.396 . S
C359 H386 0.929 1_545 S
C360 C355 1.373 . S
C360 C359 1.396 . S
C360 H387 0.929 1_545 S
C361 O374 1.240 . S
C361 O375 1.289 . S
C362 O376 1.258 1_565 S
C362 O377 1.256 . S
C363 La353 2.928 . S
C363 C364 1.503 . S
C363 O378 1.261 . S
C363 O379 1.232 1_565 S
C364 C363 1.503 . S
C364 C365 1.394 . S
C364 C369 1.373 . S
C365 C364 1.394 . S
C365 C366 1.380 . S
C365 H388 0.930 . S
C366 C365 1.380 . S
C366 C367 1.376 . S
C366 H389 0.930 . S
C367 C366 1.376 . S
C367 C368 1.370 . S
C368 C367 1.370 . S
C368 C369 1.396 . S
C368 H390 0.929 1_565 S
C369 C364 1.373 . S
C369 C368 1.396 . S
C369 H391 0.929 1_565 S
C370 O380 1.240 . S
C370 O381 1.289 . S
C371 O382 1.258 1_545 S
C371 O383 1.256 . S
O372 La352 2.521 . S
O372 C354 1.261 . S
O373 La352 2.628 . S
O373 C354 1.243 . S
O374 La352 2.554 . S
O374 C361 1.240 . S
O375 La352 2.757 . S
O375 La353 2.482 1_545 S
O375 C361 1.289 . S
O376 La352 2.470 . S
O376 C362 1.258 1_545 S
O377 La353 2.503 . S
O377 C362 1.256 . S
O378 La353 2.521 . S
O378 C363 1.261 . S
O379 La353 2.624 1_545 S
O379 C363 1.232 1_545 S
O380 La353 2.554 . S
O380 C370 1.240 . S
O381 La352 2.482 1_565 S
O381 La353 2.757 . S
O381 C370 1.289 . S
O382 La353 2.470 . S
O382 C371 1.258 1_565 S
O383 La352 2.503 . S
O383 C371 1.256 . S
H384 C356 0.930 . S
H385 C357 0.930 . S
H386 C359 0.929 1_565 S
H387 C360 0.929 1_565 S
H388 C365 0.930 . S
H389 C366 0.930 . S
H390 C368 0.929 1_545 S
H391 C369 0.929 1_545 S
La392 C394 2.928 . S
La392 O412 2.521 . S
La392 O413 2.628 . S
La392 O414 2.554 . S
La392 O415 2.757 . S
La392 O416 2.470 . S
La392 O421 2.482 . S
La392 O423 2.503 . S
La393 C403 2.928 . S
La393 O415 2.482 . S
La393 O417 2.503 . S
La393 O418 2.521 . S
La393 O419 2.628 . S
La393 O420 2.554 . S
La393 O421 2.757 . S
La393 O422 2.470 . S
C394 La392 2.928 . S
C394 C395 1.503 . S
C394 O412 1.261 . S
C394 O413 1.243 . S
C395 C394 1.503 . S
C395 C396 1.394 . S
C395 C400 1.373 . S
C396 C395 1.394 . S
C396 C397 1.380 . S
C396 H424 0.930 . S
C397 C396 1.380 . S
C397 C398 1.376 . S
C397 H425 0.930 . S
C398 C397 1.376 . S
C398 C399 1.370 . S
C399 C398 1.370 . S
C399 C400 1.396 . S
C399 H426 0.929 . S
C400 C395 1.373 . S
C400 C399 1.396 . S
C400 H427 0.929 . S
C401 O414 1.240 . S
C401 O415 1.289 . S
C402 O416 1.258 . S
C402 O417 1.256 . S
C403 La393 2.928 . S
C403 C404 1.503 . S
C403 O418 1.261 . S
C403 O419 1.243 . S
C404 C403 1.503 . S
C404 C405 1.394 . S
C404 C409 1.373 . S
C405 C404 1.394 . S
C405 C406 1.380 . S
C405 H428 0.930 . S
C406 C405 1.380 . S
C406 C407 1.376 . S
C406 H429 0.930 . S
C407 C406 1.376 . S
C407 C408 1.370 . S
C408 C407 1.370 . S
C408 C409 1.396 . S
C408 H430 0.929 . S
C409 C404 1.373 . S
C409 C408 1.396 . S
C409 H431 0.929 . S
C410 O420 1.240 . S
C410 O421 1.289 . S
C411 O422 1.258 . S
C411 O423 1.256 . S
O412 La392 2.521 . S
O412 C394 1.261 . S
O413 La392 2.628 . S
O413 C394 1.243 . S
O414 La392 2.554 . S
O414 C401 1.240 . S
O415 La392 2.757 . S
O415 La393 2.482 . S
O415 C401 1.289 . S
O416 La392 2.470 . S
O416 C402 1.258 . S
O417 La393 2.503 . S
O417 C402 1.256 . S
O418 La393 2.521 . S
O418 C403 1.261 . S
O419 La393 2.628 . S
O419 C403 1.243 . S
O420 La393 2.554 . S
O420 C410 1.240 . S
O421 La392 2.482 . S
O421 La393 2.757 . S
O421 C410 1.289 . S
O422 La393 2.470 . S
O422 C411 1.258 . S
O423 La392 2.503 . S
O423 C411 1.256 . S
H424 C396 0.930 . S
H425 C397 0.930 . S
H426 C399 0.929 . S
H427 C400 0.929 . S
H428 C405 0.930 . S
H429 C406 0.930 . S
H430 C408 0.929 . S
H431 C409 0.929 . S
La432 C434 2.928 . S
La432 O452 2.521 . S
La432 O453 2.628 . S
La432 O454 2.554 . S
La432 O455 2.757 1_655 S
La432 O456 2.470 . S
La432 O461 2.482 . S
La432 O463 2.503 1_655 S
La433 C443 2.928 . S
La433 O455 2.482 . S
La433 O457 2.503 1_455 S
La433 O458 2.521 . S
La433 O459 2.628 . S
La433 O460 2.554 . S
La433 O461 2.757 1_455 S
La433 O462 2.470 . S
C434 La432 2.928 . S
C434 C435 1.503 . S
C434 O452 1.261 . S
C434 O453 1.243 . S
C435 C434 1.503 . S
C435 C436 1.394 . S
C435 C440 1.373 . S
C436 C435 1.394 . S
C436 C437 1.380 . S
C436 H464 0.930 . S
C437 C436 1.380 . S
C437 C438 1.376 . S
C437 H465 0.930 . S
C438 C437 1.376 . S
C438 C439 1.370 . S
C439 C438 1.370 . S
C439 C440 1.396 . S
C439 H466 0.929 . S
C440 C435 1.373 . S
C440 C439 1.396 . S
C440 H467 0.929 . S
C441 O454 1.278 . S
C441 O455 1.267 1_655 S
C442 O456 1.258 . S
C442 O457 1.256 . S
C443 La433 2.928 . S
C443 C444 1.503 . S
C443 O458 1.261 . S
C443 O459 1.243 . S
C444 C443 1.503 . S
C444 C445 1.394 . S
C444 C449 1.373 . S
C445 C444 1.394 . S
C445 C446 1.380 . S
C445 H468 0.930 . S
C446 C445 1.380 . S
C446 C447 1.376 . S
C446 H469 0.930 . S
C447 C446 1.376 . S
C447 C448 1.370 . S
C448 C447 1.370 . S
C448 C449 1.396 . S
C448 H470 0.929 . S
C449 C444 1.373 . S
C449 C448 1.396 . S
C449 H471 0.929 . S
C450 O460 1.240 . S
C450 O461 1.289 1_455 S
C451 O462 1.258 . S
C451 O463 1.256 . S
O452 La432 2.521 . S
O452 C434 1.261 . S
O453 La432 2.628 . S
O453 C434 1.243 . S
O454 La432 2.554 . S
O454 C441 1.278 . S
O455 La432 2.757 1_455 S
O455 La433 2.482 . S
O455 C441 1.267 1_455 S
O456 La432 2.470 . S
O456 C442 1.258 . S
O457 La433 2.503 1_655 S
O457 C442 1.256 . S
O458 La433 2.521 . S
O458 C443 1.261 . S
O459 La433 2.628 . S
O459 C443 1.243 . S
O460 La433 2.554 . S
O460 C450 1.240 . S
O461 La432 2.482 . S
O461 La433 2.757 1_655 S
O461 C450 1.289 1_655 S
O462 La433 2.470 . S
O462 C451 1.258 . S
O463 La432 2.503 1_455 S
O463 C451 1.256 . S
H464 C436 0.930 . S
H465 C437 0.930 . S
H466 C439 0.929 . S
H467 C440 0.929 . S
H468 C445 0.930 . S
H469 C446 0.930 . S
H470 C448 0.929 . S
H471 C449 0.929 . S
H472 C480 0.929 . S
H473 C482 0.930 . S
H474 C484 0.930 . S
H475 C487 0.929 . S
H476 C490 0.930 . S
H477 C492 0.960 . S
H478 C492 0.960 . S
H479 C492 0.960 1_545 S
C480 H472 0.929 . S
C480 C481 1.377 1_565 S
C480 C482 1.384 . S
C481 C480 1.377 1_545 S
C481 C487 1.390 . S
C482 H473 0.930 . S
C482 C480 1.384 . S
C482 C483 1.372 1_565 S
C483 C482 1.372 1_545 S
C483 C484 1.400 . S
C483 C488 1.490 . S
C484 H474 0.930 . S
C484 C483 1.400 . S
C484 C487 1.386 . S
H485 C501 0.930 . S
H486 C502 0.931 . S
C487 H475 0.929 . S
C487 C481 1.390 . S
C487 C484 1.386 . S
C488 C483 1.490 . S
C488 C490 1.395 . S
C488 C491 1.403 1_545 S
H489 C495 0.941 . S
C490 H476 0.930 . S
C490 C488 1.395 . S
C490 C493 1.403 . S
C491 C488 1.403 1_565 S
C491 C492 1.524 . S
C491 C495 1.402 . S
C492 H477 0.960 . S
C492 H478 0.960 . S
C492 H479 0.960 1_565 S
C492 C491 1.524 . S
C493 C490 1.403 . S
C493 C494 1.392 . S
C493 C497 1.495 . S
C494 C493 1.392 . S
C494 C495 1.375 1_545 S
C494 C496 1.478 . S
C495 H489 0.941 . S
C495 C491 1.402 . S
C495 C494 1.375 1_565 S
C496 C494 1.478 . S
C496 C498 1.381 1_545 S
C496 C502 1.383 . S
C497 C493 1.495 . S
C497 H503 0.959 . S
C497 H504 0.961 . S
C497 H505 0.960 . S
C498 C496 1.381 1_565 S
C498 C499 1.394 . S
C498 H506 0.930 . S
C499 C498 1.394 . S
C499 C500 1.383 1_565 S
C499 H507 0.929 . S
C500 C499 1.383 1_545 S
C500 C501 1.377 . S
C501 H485 0.930 . S
C501 C500 1.377 . S
C501 C502 1.379 . S
C502 H486 0.931 . S
C502 C496 1.383 . S
C502 C501 1.379 . S
H503 C497 0.959 . S
H504 C497 0.961 . S
H505 C497 0.960 . S
H506 C498 0.930 . S
H507 C499 0.929 . S
H508 C516 0.929 . S
H509 C518 0.930 . S
H510 C520 0.930 . S
H511 C523 0.929 . S
H512 C526 0.930 . S
H513 C528 0.960 . S
H514 C528 0.960 . S
H515 C528 0.960 . S
C516 H508 0.929 . S
C516 C517 1.377 . S
C516 C518 1.384 . S
C517 C516 1.377 . S
C517 C523 1.390 . S
C518 H509 0.930 . S
C518 C516 1.384 . S
C518 C519 1.372 . S
C519 C518 1.372 . S
C519 C520 1.400 . S
C519 C524 1.490 . S
C520 H510 0.930 . S
C520 C519 1.400 . S
C520 C523 1.386 . S
H521 C537 0.930 . S
H522 C538 0.931 . S
C523 H511 0.929 . S
C523 C517 1.390 . S
C523 C520 1.386 . S
C524 C519 1.490 . S
C524 C526 1.395 . S
C524 C527 1.403 . S
H525 C531 0.930 . S
C526 H512 0.930 . S
C526 C524 1.395 . S
C526 C529 1.403 . S
C527 C524 1.403 . S
C527 C528 1.524 . S
C527 C531 1.400 . S
C528 H513 0.960 . S
C528 H514 0.960 . S
C528 H515 0.960 . S
C528 C527 1.524 . S
C529 C526 1.403 . S
C529 C530 1.392 . S
C529 C533 1.495 . S
C530 C529 1.392 . S
C530 C531 1.385 . S
C530 C532 1.478 . S
C531 H525 0.930 . S
C531 C527 1.400 . S
C531 C530 1.385 . S
C532 C530 1.478 . S
C532 C534 1.381 . S
C532 C538 1.383 . S
C533 C529 1.495 . S
C533 H539 0.959 . S
C533 H540 0.961 . S
C533 H541 0.960 . S
C534 C532 1.381 . S
C534 C535 1.394 . S
C534 H542 0.930 . S
C535 C534 1.394 . S
C535 C536 1.383 . S
C535 H543 0.929 . S
C536 C535 1.383 . S
C536 C537 1.377 . S
C537 H521 0.930 . S
C537 C536 1.377 . S
C537 C538 1.379 . S
C538 H522 0.931 . S
C538 C532 1.383 . S
C538 C537 1.379 . S
H539 C533 0.959 . S
H540 C533 0.961 . S
H541 C533 0.960 . S
H542 C534 0.930 . S
H543 C535 0.929 . S
H544 C552 0.929 . S
H545 C554 0.930 . S
H546 C556 0.930 . S
H547 C559 0.929 . S
H548 C562 0.930 . S
H549 C564 0.960 . S
H550 C564 0.960 . S
H551 C564 0.960 . S
C552 H544 0.929 . S
C552 C553 1.377 . S
C552 C554 1.384 . S
C553 C552 1.377 . S
C553 C559 1.390 . S
C554 H545 0.930 . S
C554 C552 1.384 . S
C554 C555 1.372 . S
C555 C554 1.372 . S
C555 C556 1.400 . S
C555 C560 1.490 . S
C556 H546 0.930 . S
C556 C555 1.400 . S
C556 C559 1.386 . S
H557 C573 0.930 . S
H558 C574 0.931 . S
C559 H547 0.929 . S
C559 C553 1.390 . S
C559 C556 1.386 . S
C560 C555 1.490 . S
C560 C562 1.395 . S
C560 C563 1.403 . S
H561 C567 0.930 . S
C562 H548 0.930 . S
C562 C560 1.395 . S
C562 C565 1.403 . S
C563 C560 1.403 . S
C563 C564 1.524 . S
C563 C567 1.400 . S
C564 H549 0.960 . S
C564 H550 0.960 . S
C564 H551 0.960 . S
C564 C563 1.524 . S
C565 C562 1.403 . S
C565 C566 1.392 . S
C565 C569 1.495 . S
C566 C565 1.392 . S
C566 C567 1.385 . S
C566 C568 1.478 . S
C567 H561 0.930 . S
C567 C563 1.400 . S
C567 C566 1.385 . S
C568 C566 1.478 . S
C568 C570 1.381 . S
C568 C574 1.383 . S
C569 C565 1.495 . S
C569 H575 0.959 . S
C569 H576 0.961 . S
C569 H577 0.960 . S
C570 C568 1.381 . S
C570 C571 1.394 . S
C570 H578 0.930 . S
C571 C570 1.394 . S
C571 C572 1.383 . S
C571 H579 0.929 . S
C572 C571 1.383 . S
C572 C573 1.377 . S
C573 H557 0.930 . S
C573 C572 1.377 . S
C573 C574 1.379 . S
C574 H558 0.931 . S
C574 C568 1.383 . S
C574 C573 1.379 . S
H575 C569 0.959 . S
H576 C569 0.961 . S
H577 C569 0.960 . S
H578 C570 0.930 . S
H579 C571 0.929 . S
H580 C588 0.929 . S
H581 C590 0.930 . S
H582 C592 0.930 . S
H583 C595 0.929 . S
H584 C598 0.930 . S
H585 C600 0.960 . S
H586 C600 0.960 . S
H587 C600 0.960 . S
C588 H580 0.929 . S
C588 C589 1.376 . S
C588 C590 1.384 . S
C589 C588 1.376 . S
C589 C595 1.391 1_455 S
C590 H581 0.930 . S
C590 C588 1.384 . S
C590 C591 1.377 . S
C591 C590 1.377 . S
C591 C592 1.395 1_455 S
C591 C596 1.491 . S
C592 H582 0.930 . S
C592 C591 1.395 1_655 S
C592 C595 1.386 . S
H593 C609 0.920 1_655 S
H594 C610 0.938 . S
C595 H583 0.929 . S
C595 C589 1.391 1_655 S
C595 C592 1.386 . S
C596 C591 1.491 . S
C596 C598 1.395 . S
C596 C599 1.403 1_455 S
H597 C603 0.930 . S
C598 H584 0.930 . S
C598 C596 1.395 . S
C598 C601 1.403 . S
C599 C596 1.403 1_655 S
C599 C600 1.524 . S
C599 C603 1.400 . S
C600 H585 0.960 . S
C600 H586 0.960 . S
C600 H587 0.960 . S
C600 C599 1.524 . S
C601 C598 1.403 . S
C601 C602 1.392 . S
C601 C605 1.495 . S
C602 C601 1.392 . S
C602 C603 1.385 1_455 S
C602 C604 1.478 . S
C603 H597 0.930 . S
C603 C599 1.400 . S
C603 C602 1.385 1_655 S
C604 C602 1.478 . S
C604 C606 1.381 . S
C604 C610 1.383 . S
C605 C601 1.495 . S
C605 H611 0.959 . S
C605 H612 0.961 . S
C605 H613 0.960 . S
C606 C604 1.381 . S
C606 C607 1.394 . S
C606 H614 0.930 . S
C607 C606 1.394 . S
C607 C608 1.383 . S
C607 H615 0.929 . S
C608 C607 1.383 . S
C608 C609 1.382 . S
C609 H593 0.920 1_455 S
C609 C608 1.382 . S
C609 C610 1.384 . S
C610 H594 0.938 . S
C610 C604 1.383 . S
C610 C609 1.384 . S
H611 C605 0.959 . S
H612 C605 0.961 . S
H613 C605 0.960 . S
H614 C606 0.930 . S
H615 C607 0.929 . S
H616 C624 0.929 . S
H617 C626 0.930 . S
H618 C628 0.930 . S
H619 C631 0.929 . S
H620 C634 0.930 . S
H621 C636 0.960 . S
H622 C636 0.960 . S
H623 C636 0.960 . S
C624 H616 0.929 . S
C624 C625 1.377 . S
C624 C626 1.384 . S
C625 C624 1.377 . S
C625 C631 1.390 1_565 S
C626 H617 0.930 . S
C626 C624 1.384 . S
C626 C627 1.372 . S
C627 C626 1.372 . S
C627 C628 1.400 1_565 S
C627 C632 1.490 . S
C628 H618 0.930 . S
C628 C627 1.400 1_545 S
C628 C631 1.386 . S
H629 C645 0.930 . S
H630 C646 0.931 . S
C631 H619 0.929 . S
C631 C625 1.390 1_545 S
C631 C628 1.386 . S
C632 C627 1.490 . S
C632 C634 1.395 1_564 S
C632 C635 1.403 . S
H633 C639 0.930 . S
C634 H620 0.930 . S
C634 C632 1.395 1_546 S
C634 C637 1.403 . S
C635 C632 1.403 . S
C635 C636 1.524 . S
C635 C639 1.400 1_554 S
C636 H621 0.960 . S
C636 H622 0.960 . S
C636 H623 0.960 . S
C636 C635 1.524 . S
C637 C634 1.403 . S
C637 C638 1.392 1_545 S
C637 C641 1.495 . S
C638 C637 1.392 1_565 S
C638 C639 1.385 . S
C638 C640 1.480 . S
C639 H633 0.930 . S
C639 C635 1.400 1_556 S
C639 C638 1.385 . S
C640 C638 1.480 . S
C640 C642 1.410 . S
C640 C646 1.354 1_565 S
C641 C637 1.495 . S
C641 H647 0.959 . S
C641 H648 0.961 . S
C641 H649 0.960 1_545 S
C642 C640 1.410 . S
C642 C643 1.394 . S
C642 H650 0.930 . S
C643 C642 1.394 . S
C643 C644 1.404 . S
C643 H651 0.929 . S
C644 C643 1.404 . S
C644 C645 1.357 1_565 S
C645 H629 0.930 . S
C645 C644 1.357 1_545 S
C645 C646 1.379 . S
C646 H630 0.931 . S
C646 C640 1.354 1_545 S
C646 C645 1.379 . S
H647 C641 0.959 . S
H648 C641 0.961 . S
H649 C641 0.960 1_565 S
H650 C642 0.930 . S
H651 C643 0.929 . S
H652 C660 0.929 . S
H653 C662 0.930 . S
H654 C664 0.930 . S
H655 C667 0.929 . S
H656 C670 0.930 . S
H657 C672 0.960 . S
H658 C672 0.960 . S
H659 C672 0.960 1_554 S
C660 H652 0.929 . S
C660 C661 1.377 . S
C660 C662 1.384 . S
C661 C660 1.377 . S
C661 C667 1.390 . S
C662 H653 0.930 . S
C662 C660 1.384 . S
C662 C663 1.372 . S
C663 C662 1.372 . S
C663 C664 1.400 . S
C663 C668 1.490 . S
C664 H654 0.930 . S
C664 C663 1.400 . S
C664 C667 1.386 . S
H665 C681 0.930 . S
H666 C682 0.931 . S
C667 H655 0.929 . S
C667 C661 1.390 . S
C667 C664 1.386 . S
C668 C663 1.490 . S
C668 C670 1.395 . S
C668 C671 1.403 1_554 S
H669 C675 0.930 . S
C670 H656 0.930 . S
C670 C668 1.395 . S
C670 C673 1.403 1_554 S
C671 C668 1.403 1_556 S
C671 C672 1.524 . S
C671 C675 1.400 . S
C672 H657 0.960 . S
C672 H658 0.960 . S
C672 H659 0.960 1_556 S
C672 C671 1.524 . S
C673 C670 1.403 1_556 S
C673 C674 1.392 . S
C673 C677 1.495 . S
C674 C673 1.392 . S
C674 C675 1.385 . S
C674 C676 1.478 . S
C675 H669 0.930 . S
C675 C671 1.400 . S
C675 C674 1.385 . S
C676 C674 1.478 . S
C676 C678 1.381 . S
C676 C682 1.383 . S
C677 C673 1.495 . S
C677 H683 0.959 . S
C677 H684 0.961 . S
C677 H685 0.960 . S
C678 C676 1.381 . S
C678 C679 1.394 . S
C678 H686 0.930 . S
C679 C678 1.394 . S
C679 C680 1.383 . S
C679 H687 0.929 . S
C680 C679 1.383 . S
C680 C681 1.377 . S
C681 H665 0.930 . S
C681 C680 1.377 . S
C681 C682 1.379 . S
C682 H666 0.931 . S
C682 C676 1.383 . S
C682 C681 1.379 . S
H683 C677 0.959 . S
H684 C677 0.961 . S
H685 C677 0.960 . S
H686 C678 0.930 . S
H687 C679 0.929 . S
H688 C696 0.929 . S
H689 C698 0.930 . S
H690 C700 0.930 . S
H691 C703 0.929 . S
H692 C706 0.930 . S
H693 C708 0.960 . S
H694 C708 0.960 . S
H695 C708 0.960 . S
C696 H688 0.929 . S
C696 C697 1.377 . S
C696 C698 1.384 . S
C697 C696 1.377 . S
C697 C703 1.390 . S
C698 H689 0.930 . S
C698 C696 1.384 . S
C698 C699 1.372 . S
C699 C698 1.372 . S
C699 C700 1.400 . S
C699 C704 1.490 . S
C700 H690 0.930 . S
C700 C699 1.400 . S
C700 C703 1.386 . S
H701 C717 0.930 . S
H702 C718 0.931 . S
C703 H691 0.929 . S
C703 C697 1.390 . S
C703 C700 1.386 . S
C704 C699 1.490 . S
C704 C706 1.395 1_554 S
C704 C707 1.403 . S
H705 C711 0.930 . S
C706 H692 0.930 . S
C706 C704 1.395 1_556 S
C706 C709 1.403 . S
C707 C704 1.403 . S
C707 C708 1.524 . S
C707 C711 1.400 1_554 S
C708 H693 0.960 . S
C708 H694 0.960 . S
C708 H695 0.960 . S
C708 C707 1.524 . S
C709 C706 1.403 . S
C709 C710 1.392 . S
C709 C713 1.495 . S
C710 C709 1.392 . S
C710 C711 1.385 . S
C710 C712 1.478 . S
C711 H705 0.930 . S
C711 C707 1.400 1_556 S
C711 C710 1.385 . S
C712 C710 1.478 . S
C712 C714 1.381 . S
C712 C718 1.383 . S
C713 C709 1.495 . S
C713 H719 0.959 . S
C713 H720 0.961 . S
C713 H721 0.960 . S
C714 C712 1.381 . S
C714 C715 1.394 . S
C714 H722 0.930 . S
C715 C714 1.394 . S
C715 C716 1.383 . S
C715 H723 0.929 . S
C716 C715 1.383 . S
C716 C717 1.377 . S
C717 H701 0.930 . S
C717 C716 1.377 . S
C717 C718 1.379 . S
C718 H702 0.931 . S
C718 C712 1.383 . S
C718 C717 1.379 . S
H719 C713 0.959 . S
H720 C713 0.961 . S
H721 C713 0.960 . S
H722 C714 0.930 . S
H723 C715 0.929 . S
H724 C732 0.929 . S
H725 C734 0.930 . S
H726 C736 0.930 . S
H727 C739 0.929 . S
H728 C742 0.930 . S
H729 C744 0.960 . S
H730 C744 0.960 . S
H731 C744 0.960 . S
C732 H724 0.929 . S
C732 C733 1.388 . S
C732 C734 1.384 . S
C733 C732 1.388 . S
C733 C739 1.381 1_655 S
C734 H725 0.930 . S
C734 C732 1.384 . S
C734 C735 1.395 . S
C735 C734 1.395 . S
C735 C736 1.379 1_655 S
C735 C740 1.490 . S
C736 H726 0.930 . S
C736 C735 1.379 1_455 S
C736 C739 1.386 . S
H737 C753 0.930 . S
H738 C754 0.931 . S
C739 H727 0.929 . S
C739 C733 1.381 1_455 S
C739 C736 1.386 . S
C740 C735 1.490 . S
C740 C742 1.373 1_654 S
C740 C743 1.424 . S
H741 C747 0.930 . S
C742 H728 0.930 . S
C742 C740 1.373 1_456 S
C742 C745 1.403 . S
C743 C740 1.424 . S
C743 C744 1.524 . S
C743 C747 1.400 1_554 S
C744 H729 0.960 . S
C744 H730 0.960 . S
C744 H731 0.960 . S
C744 C743 1.524 . S
C745 C742 1.403 . S
C745 C746 1.392 . S
C745 C749 1.495 . S
C746 C745 1.392 . S
C746 C747 1.385 1_455 S
C746 C748 1.478 . S
C747 H741 0.930 . S
C747 C743 1.400 1_556 S
C747 C746 1.385 1_655 S
C748 C746 1.478 . S
C748 C750 1.381 1_455 S
C748 C754 1.383 . S
C749 C745 1.495 . S
C749 H755 0.959 . S
C749 H756 0.961 . S
C749 H757 0.960 . S
C750 C748 1.381 1_655 S
C750 C751 1.394 . S
C750 H758 0.930 . S
C751 C750 1.394 . S
C751 C752 1.382 . S
C751 H759 0.929 . S
C752 C751 1.382 . S
C752 C753 1.378 1_655 S
C753 H737 0.930 . S
C753 C752 1.378 1_455 S
C753 C754 1.379 . S
C754 H738 0.931 . S
C754 C748 1.383 . S
C754 C753 1.379 . S
H755 C749 0.959 . S
H756 C749 0.961 . S
H757 C749 0.960 . S
H758 C750 0.930 . S
H759 C751 0.929 . S
H760 C768 0.929 . S
H761 C770 0.930 . S
H762 C772 0.930 . S
H763 C775 0.929 . S
H764 C778 0.930 . S
H765 C780 0.960 . S
H766 C780 0.960 . S
H767 C780 0.960 . S
C768 H760 0.929 . S
C768 C769 1.377 . S
C768 C770 1.384 . S
C769 C768 1.377 . S
C769 C775 1.390 1_455 S
C770 H761 0.930 . S
C770 C768 1.384 . S
C770 C771 1.372 1_455 S
C771 C770 1.372 1_655 S
C771 C772 1.400 . S
C771 C776 1.490 . S
C772 H762 0.930 . S
C772 C771 1.400 . S
C772 C775 1.386 . S
H773 C789 0.930 . S
H774 C790 0.931 . S
C775 H763 0.929 . S
C775 C769 1.390 1_655 S
C775 C772 1.386 . S
C776 C771 1.490 . S
C776 C778 1.395 . S
C776 C779 1.403 . S
H777 C783 0.930 . S
C778 H764 0.930 . S
C778 C776 1.395 . S
C778 C781 1.403 . S
C779 C776 1.403 . S
C779 C780 1.524 1_655 S
C779 C783 1.400 . S
C780 H765 0.960 . S
C780 H766 0.960 . S
C780 H767 0.960 . S
C780 C779 1.524 1_455 S
C781 C778 1.403 . S
C781 C782 1.392 . S
C781 C785 1.495 . S
C782 C781 1.392 . S
C782 C783 1.385 . S
C782 C784 1.478 . S
C783 H777 0.930 . S
C783 C779 1.400 . S
C783 C782 1.385 . S
C784 C782 1.478 . S
C784 C786 1.381 . S
C784 C790 1.383 . S
C785 C781 1.495 . S
C785 H791 0.959 . S
C785 H792 0.961 . S
C785 H793 0.960 . S
C786 C784 1.381 . S
C786 C787 1.394 . S
C786 H794 0.930 . S
C787 C786 1.394 . S
C787 C788 1.383 . S
C787 H795 0.929 . S
C788 C787 1.383 . S
C788 C789 1.377 . S
C789 H773 0.930 . S
C789 C788 1.377 . S
C789 C790 1.379 . S
C790 H774 0.931 . S
C790 C784 1.383 . S
C790 C789 1.379 . S
H791 C785 0.959 . S
H792 C785 0.961 . S
H793 C785 0.960 . S
H794 C786 0.930 . S
H795 C787 0.929 . S
H796 C804 0.929 . S
H797 C806 0.946 . S
H798 C808 0.930 . S
H799 C811 0.929 . S
H800 C814 0.930 . S
H801 C816 0.960 . S
H802 C816 0.960 . S
H803 C816 0.960 . S
C804 H796 0.929 . S
C804 C805 1.377 . S
C804 C806 1.372 1_545 S
C805 C804 1.377 . S
C805 C811 1.390 . S
C806 H797 0.946 . S
C806 C804 1.372 1_565 S
C806 C807 1.372 . S
C807 C806 1.372 . S
C807 C808 1.388 1_565 S
C807 C812 1.503 . S
C808 H798 0.930 . S
C808 C807 1.388 1_545 S
C808 C811 1.386 . S
H809 C825 0.930 . S
H810 C826 0.931 . S
C811 H799 0.929 . S
C811 C805 1.390 . S
C811 C808 1.386 . S
C812 C807 1.503 . S
C812 C814 1.395 1_565 S
C812 C815 1.403 . S
H813 C819 0.930 . S
C814 H800 0.930 . S
C814 C812 1.395 1_545 S
C814 C817 1.403 . S
C815 C812 1.403 . S
C815 C816 1.524 . S
C815 C819 1.400 . S
C816 H801 0.960 . S
C816 H802 0.960 . S
C816 H803 0.960 . S
C816 C815 1.524 . S
C817 C814 1.403 . S
C817 C818 1.392 1_545 S
C817 C821 1.495 . S
C818 C817 1.392 1_565 S
C818 C819 1.385 . S
C818 C820 1.478 . S
C819 H813 0.930 . S
C819 C815 1.400 . S
C819 C818 1.385 . S
C820 C818 1.478 . S
C820 C822 1.381 . S
C820 C826 1.383 . S
C821 C817 1.495 . S
C821 H827 0.959 . S
C821 H828 0.961 . S
C821 H829 0.960 . S
C822 C820 1.381 . S
C822 C823 1.394 . S
C822 H830 0.930 . S
C823 C822 1.394 . S
C823 C824 1.383 . S
C823 H831 0.929 . S
C824 C823 1.383 . S
C824 C825 1.377 . S
C825 H809 0.930 . S
C825 C824 1.377 . S
C825 C826 1.379 . S
C826 H810 0.931 . S
C826 C820 1.383 . S
C826 C825 1.379 . S
H827 C821 0.959 . S
H828 C821 0.961 . S
H829 C821 0.960 . S
H830 C822 0.930 . S
H831 C823 0.929 . S
H832 C840 0.929 . S
H833 C842 0.930 . S
H834 C844 0.930 . S
H835 C847 0.929 . S
H836 C850 0.930 . S
H837 C852 0.960 . S
H838 C852 0.960 . S
H839 C852 0.960 . S
C840 H832 0.929 . S
C840 C841 1.377 . S
C840 C842 1.384 . S
C841 C840 1.377 . S
C841 C847 1.390 . S
C842 H833 0.930 . S
C842 C840 1.384 . S
C842 C843 1.372 . S
C843 C842 1.372 . S
C843 C844 1.400 . S
C843 C848 1.490 . S
C844 H834 0.930 . S
C844 C843 1.400 . S
C844 C847 1.386 . S
H845 C861 0.930 . S
H846 C862 0.931 . S
C847 H835 0.929 . S
C847 C841 1.390 . S
C847 C844 1.386 . S
C848 C843 1.490 . S
C848 C850 1.395 . S
C848 C851 1.403 . S
H849 C855 0.930 . S
C850 H836 0.930 . S
C850 C848 1.395 . S
C850 C853 1.403 . S
C851 C848 1.403 . S
C851 C852 1.524 . S
C851 C855 1.400 . S
C852 H837 0.960 . S
C852 H838 0.960 . S
C852 H839 0.960 . S
C852 C851 1.524 . S
C853 C850 1.403 . S
C853 C854 1.392 . S
C853 C857 1.495 . S
C854 C853 1.392 . S
C854 C855 1.385 . S
C854 C856 1.478 . S
C855 H849 0.930 . S
C855 C851 1.400 . S
C855 C854 1.385 . S
C856 C854 1.478 . S
C856 C858 1.381 . S
C856 C862 1.383 . S
C857 C853 1.495 . S
C857 H863 0.959 . S
C857 H864 0.961 . S
C857 H865 0.960 . S
C858 C856 1.381 . S
C858 C859 1.394 . S
C858 H866 0.930 . S
C859 C858 1.394 . S
C859 C860 1.383 . S
C859 H867 0.929 . S
C860 C859 1.383 . S
C860 C861 1.377 . S
C861 H845 0.930 . S
C861 C860 1.377 . S
C861 C862 1.379 . S
C862 H846 0.931 . S
C862 C856 1.383 . S
C862 C861 1.379 . S
H863 C857 0.959 . S
H864 C857 0.961 . S
H865 C857 0.960 . S
H866 C858 0.930 . S
H867 C859 0.929 . S
H868 C876 0.929 . S
H869 C878 0.930 . S
H870 C880 0.930 . S
H871 C883 0.929 . S
H872 C886 0.930 . S
H873 C888 0.960 . S
H874 C888 0.960 . S
H875 C888 0.960 . S
C876 H868 0.929 . S
C876 C877 1.377 . S
C876 C878 1.384 . S
C877 C876 1.377 . S
C877 C883 1.390 . S
C878 H869 0.930 . S
C878 C876 1.384 . S
C878 C879 1.372 . S
C879 C878 1.372 . S
C879 C880 1.400 . S
C879 C884 1.490 . S
C880 H870 0.930 . S
C880 C879 1.400 . S
C880 C883 1.386 . S
H881 C897 0.930 . S
H882 C898 0.931 . S
C883 H871 0.929 . S
C883 C877 1.390 . S
C883 C880 1.386 . S
C884 C879 1.490 . S
C884 C886 1.395 . S
C884 C887 1.403 . S
H885 C891 0.930 . S
C886 H872 0.930 . S
C886 C884 1.395 . S
C886 C889 1.403 . S
C887 C884 1.403 . S
C887 C888 1.524 . S
C887 C891 1.400 . S
C888 H873 0.960 . S
C888 H874 0.960 . S
C888 H875 0.960 . S
C888 C887 1.524 . S
C889 C886 1.403 . S
C889 C890 1.392 . S
C889 C893 1.495 . S
C890 C889 1.392 . S
C890 C891 1.385 . S
C890 C892 1.478 . S
C891 H885 0.930 . S
C891 C887 1.400 . S
C891 C890 1.385 . S
C892 C890 1.478 . S
C892 C894 1.381 . S
C892 C898 1.383 . S
C893 C889 1.495 . S
C893 H899 0.959 . S
C893 H900 0.961 . S
C893 H901 0.960 . S
C894 C892 1.381 . S
C894 C895 1.394 . S
C894 H902 0.930 . S
C895 C894 1.394 . S
C895 C896 1.383 . S
C895 H903 0.929 . S
C896 C895 1.383 . S
C896 C897 1.377 . S
C897 H881 0.930 . S
C897 C896 1.377 . S
C897 C898 1.379 . S
C898 H882 0.931 . S
C898 C892 1.383 . S
C898 C897 1.379 . S
H899 C893 0.959 . S
H900 C893 0.961 . S
H901 C893 0.960 . S
H902 C894 0.930 . S
H903 C895 0.929 . S
H904 C912 0.929 . S
H905 C914 0.930 . S
H906 C916 0.930 . S
H907 C919 0.929 . S
H908 C922 0.930 . S
H909 C924 0.960 . S
H910 C924 0.960 . S
H911 C924 0.965 . S
C912 H904 0.929 . S
C912 C913 1.377 1_455 S
C912 C914 1.384 . S
C913 C912 1.377 1_655 S
C913 C919 1.390 . S
C914 H905 0.930 . S
C914 C912 1.384 . S
C914 C915 1.372 . S
C915 C914 1.372 . S
C915 C916 1.400 1_455 S
C915 C920 1.490 . S
C916 H906 0.930 . S
C916 C915 1.400 1_655 S
C916 C919 1.386 . S
H917 C933 0.930 . S
H918 C934 0.931 1_655 S
C919 H907 0.929 . S
C919 C913 1.390 . S
C919 C916 1.386 . S
C920 C915 1.490 . S
C920 C922 1.395 1_554 S
C920 C923 1.403 . S
H921 C927 0.930 . S
C922 H908 0.930 . S
C922 C920 1.395 1_556 S
C922 C925 1.403 . S
C923 C920 1.403 . S
C923 C924 1.524 . S
C923 C927 1.400 . S
C924 H909 0.960 . S
C924 H910 0.960 . S
C924 H911 0.965 . S
C924 C923 1.524 . S
C925 C922 1.403 . S
C925 C926 1.392 . S
C925 C929 1.495 . S
C926 C925 1.392 . S
C926 C927 1.385 1_556 S
C926 C928 1.478 . S
C927 H921 0.930 . S
C927 C923 1.400 . S
C927 C926 1.385 1_554 S
C928 C926 1.478 . S
C928 C930 1.381 . S
C928 C934 1.383 . S
C929 C925 1.495 . S
C929 H935 0.959 . S
C929 H936 0.961 . S
C929 H937 0.960 . S
C930 C928 1.381 . S
C930 C931 1.394 . S
C930 H938 0.930 . S
C931 C930 1.394 . S
C931 C932 1.383 . S
C931 H939 0.929 . S
C932 C931 1.383 . S
C932 C933 1.377 . S
C933 H917 0.930 . S
C933 C932 1.377 . S
C933 C934 1.379 . S
C934 H918 0.931 1_455 S
C934 C928 1.383 . S
C934 C933 1.379 . S
H935 C929 0.959 . S
H936 C929 0.961 . S
H937 C929 0.960 . S
H938 C930 0.930 . S
H939 C931 0.929 . S
H940 C948 0.929 . S
H941 C950 0.930 . S
H942 C952 0.930 . S
H943 C955 0.929 . S
H944 C958 0.930 . S
H945 C960 0.960 . S
H946 C960 0.960 1_565 S
H947 C960 0.960 . S
C948 H940 0.929 . S
C948 C949 1.377 . S
C948 C950 1.384 . S
C949 C948 1.377 . S
C949 C955 1.390 1_565 S
C950 H941 0.930 . S
C950 C948 1.384 . S
C950 C951 1.372 1_565 S
C951 C950 1.372 1_545 S
C951 C952 1.400 . S
C951 C956 1.490 . S
C952 H942 0.930 . S
C952 C951 1.400 . S
C952 C955 1.386 . S
H953 C969 0.930 . S
H954 C970 0.931 . S
C955 H943 0.929 . S
C955 C949 1.390 1_545 S
C955 C952 1.386 . S
C956 C951 1.490 . S
C956 C958 1.395 . S
C956 C959 1.403 1_554 S
H957 C963 0.930 . S
C958 H944 0.930 . S
C958 C956 1.395 . S
C958 C961 1.403 . S
C959 C956 1.403 1_556 S
C959 C960 1.524 . S
C959 C963 1.400 . S
C960 H945 0.960 . S
C960 H946 0.960 1_545 S
C960 H947 0.960 . S
C960 C959 1.524 . S
C961 C958 1.403 . S
C961 C962 1.392 1_554 S
C961 C965 1.495 . S
C962 C961 1.392 1_556 S
C962 C963 1.385 . S
C962 C964 1.478 . S
C963 H957 0.930 . S
C963 C959 1.400 . S
C963 C962 1.385 . S
C964 C962 1.478 . S
C964 C966 1.381 . S
C964 C970 1.383 . S
C965 C961 1.495 . S
C965 H971 0.959 . S
C965 H972 0.961 . S
C965 H973 1.005 . S
C966 C964 1.381 . S
C966 C967 1.394 . S
C966 H974 0.930 1_545 S
C967 C966 1.394 . S
C967 C968 1.383 . S
C967 H975 0.929 . S
C968 C967 1.383 . S
C968 C969 1.377 . S
C969 H953 0.930 . S
C969 C968 1.377 . S
C969 C970 1.379 . S
C970 H954 0.931 . S
C970 C964 1.383 . S
C970 C969 1.379 . S
H971 C965 0.959 . S
H972 C965 0.961 . S
H973 C965 1.005 . S
H974 C966 0.930 1_565 S
H975 C967 0.929 . S
H976 C984 0.929 . S
H977 C986 0.930 1_556 S
H978 C988 0.930 . S
H979 C991 0.929 . S
H980 C994 0.930 . S
H981 C996 0.960 . S
H982 C996 0.960 . S
H983 C996 0.960 1_554 S
C984 H976 0.929 . S
C984 C985 1.377 . S
C984 C986 1.384 . S
C985 C984 1.377 . S
C985 C991 1.390 . S
C986 H977 0.930 1_554 S
C986 C984 1.384 . S
C986 C987 1.372 . S
C987 C986 1.372 . S
C987 C988 1.400 . S
C987 C992 1.490 . S
C988 H978 0.930 . S
C988 C987 1.400 . S
C988 C991 1.386 . S
H989 C1005 0.930 . S
H990 C1006 0.931 . S
C991 H979 0.929 . S
C991 C985 1.390 . S
C991 C988 1.386 . S
C992 C987 1.490 . S
C992 C994 1.395 . S
C992 C995 1.403 1_554 S
H993 C999 0.930 . S
C994 H980 0.930 . S
C994 C992 1.395 . S
C994 C997 1.403 1_554 S
C995 C992 1.403 1_556 S
C995 C996 1.524 . S
C995 C999 1.400 . S
C996 H981 0.960 . S
C996 H982 0.960 . S
C996 H983 0.960 1_556 S
C996 C995 1.524 . S
C997 C994 1.403 1_556 S
C997 C998 1.392 . S
C997 C1001 1.495 . S
C998 C997 1.392 . S
C998 C999 1.385 . S
C998 C1000 1.478 . S
C999 H993 0.930 . S
C999 C995 1.400 . S
C999 C998 1.385 . S
C1000 C998 1.478 . S
C1000 C1002 1.381 . S
C1000 C1006 1.383 . S
C1001 C997 1.495 . S
C1001 H1007 0.959 1_556 S
C1001 H1008 0.961 1_556 S
C1001 H1009 0.960 . S
C1002 C1000 1.381 . S
C1002 C1003 1.394 . S
C1002 H1010 0.930 . S
C1003 C1002 1.394 . S
C1003 C1004 1.383 . S
C1003 H1011 0.929 . S
C1004 C1003 1.383 . S
C1004 C1005 1.377 . S
C1005 H989 0.930 . S
C1005 C1004 1.377 . S
C1005 C1006 1.379 . S
C1006 H990 0.931 . S
C1006 C1000 1.383 . S
C1006 C1005 1.379 . S
H1007 C1001 0.959 1_554 S
H1008 C1001 0.961 1_554 S
H1009 C1001 0.960 . S
H1010 C1002 0.930 . S
H1011 C1003 0.929 . S
H1012 C1020 0.929 . S
H1013 C1022 0.930 . S
H1014 C1024 0.930 1_556 S
H1015 C1027 0.929 . S
H1016 C1030 0.930 . S
H1017 C1032 0.960 . S
H1018 C1032 0.960 1_554 S
H1019 C1032 0.960 . S
C1020 H1012 0.929 . S
C1020 C1021 1.377 . S
C1020 C1022 1.384 . S
C1021 C1020 1.377 . S
C1021 C1027 1.390 . S
C1022 H1013 0.930 . S
C1022 C1020 1.384 . S
C1022 C1023 1.372 . S
C1023 C1022 1.372 . S
C1023 C1024 1.400 . S
C1023 C1028 1.490 . S
C1024 H1014 0.930 1_554 S
C1024 C1023 1.400 . S
C1024 C1027 1.386 . S
H1025 C1041 0.930 . S
H1026 C1042 0.931 . S
C1027 H1015 0.929 . S
C1027 C1021 1.390 . S
C1027 C1024 1.386 . S
C1028 C1023 1.490 . S
C1028 C1030 1.395 . S
C1028 C1031 1.403 1_554 S
H1029 C1035 0.930 . S
C1030 H1016 0.930 . S
C1030 C1028 1.395 . S
C1030 C1033 1.403 1_554 S
C1031 C1028 1.403 1_556 S
C1031 C1032 1.524 . S
C1031 C1035 1.400 . S
C1032 H1017 0.960 . S
C1032 H1018 0.960 1_556 S
C1032 H1019 0.960 . S
C1032 C1031 1.524 . S
C1033 C1030 1.403 1_556 S
C1033 C1034 1.392 . S
C1033 C1037 1.495 1_556 S
C1034 C1033 1.392 . S
C1034 C1035 1.385 . S
C1034 C1036 1.478 . S
C1035 H1029 0.930 . S
C1035 C1031 1.400 . S
C1035 C1034 1.385 . S
C1036 C1034 1.478 . S
C1036 C1038 1.381 . S
C1036 C1042 1.383 . S
C1037 C1033 1.495 1_554 S
C1037 H1043 0.959 . S
C1037 H1044 0.961 1_554 S
C1037 H1045 0.960 . S
C1038 C1036 1.381 . S
C1038 C1039 1.394 . S
C1038 H1046 0.930 . S
C1039 C1038 1.394 . S
C1039 C1040 1.383 . S
C1039 H1047 0.929 . S
C1040 C1039 1.383 . S
C1040 C1041 1.377 . S
C1041 H1025 0.930 . S
C1041 C1040 1.377 . S
C1041 C1042 1.379 . S
C1042 H1026 0.931 . S
C1042 C1036 1.383 . S
C1042 C1041 1.379 . S
H1043 C1037 0.959 . S
H1044 C1037 0.961 1_556 S
H1045 C1037 0.960 . S
H1046 C1038 0.930 . S
H1047 C1039 0.929 . S
H1048 C1056 0.929 . S
H1049 C1058 0.930 . S
H1050 C1060 0.926 1_655 S
H1051 C1063 0.930 . S
H1052 C1066 0.930 . S
H1053 C1068 0.960 . S
H1054 C1068 0.960 . S
H1055 C1068 0.960 . S
C1056 H1048 0.929 . S
C1056 C1057 1.377 . S
C1056 C1058 1.384 . S
C1057 C1056 1.377 . S
C1057 C1063 1.389 1_455 S
C1058 H1049 0.930 . S
C1058 C1056 1.384 . S
C1058 C1059 1.372 . S
C1059 C1058 1.372 . S
C1059 C1060 1.405 . S
C1059 C1064 1.490 . S
C1060 H1050 0.926 1_455 S
C1060 C1059 1.405 . S
C1060 C1063 1.384 1_455 S
H1061 C1077 0.930 . S
H1062 C1078 0.931 . S
C1063 H1051 0.930 . S
C1063 C1057 1.389 1_655 S
C1063 C1060 1.384 1_655 S
C1064 C1059 1.490 . S
C1064 C1066 1.395 . S
C1064 C1067 1.403 1_455 S
H1065 C1071 0.930 . S
C1066 H1052 0.930 . S
C1066 C1064 1.395 . S
C1066 C1069 1.403 . S
C1067 C1064 1.403 1_655 S
C1067 C1068 1.524 . S
C1067 C1071 1.400 . S
C1068 H1053 0.960 . S
C1068 H1054 0.960 . S
C1068 H1055 0.960 . S
C1068 C1067 1.524 . S
C1069 C1066 1.403 . S
C1069 C1070 1.392 . S
C1069 C1073 1.495 . S
C1070 C1069 1.392 . S
C1070 C1071 1.385 1_455 S
C1070 C1072 1.478 . S
C1071 H1065 0.930 . S
C1071 C1067 1.400 . S
C1071 C1070 1.385 1_655 S
C1072 C1070 1.478 . S
C1072 C1074 1.381 . S
C1072 C1078 1.383 . S
C1073 C1069 1.495 . S
C1073 H1079 0.959 . S
C1073 H1080 0.961 . S
C1073 H1081 0.960 . S
C1074 C1072 1.381 . S
C1074 C1075 1.394 . S
C1074 H1082 0.930 . S
C1075 C1074 1.394 . S
C1075 C1076 1.383 . S
C1075 H1083 0.929 . S
C1076 C1075 1.383 . S
C1076 C1077 1.377 . S
C1077 H1061 0.930 . S
C1077 C1076 1.377 . S
C1077 C1078 1.379 . S
C1078 H1062 0.931 . S
C1078 C1072 1.383 . S
C1078 C1077 1.379 . S
H1079 C1073 0.959 . S
H1080 C1073 0.961 . S
H1081 C1073 0.960 . S
H1082 C1074 0.930 . S
H1083 C1075 0.929 . S
H1084 C1092 0.929 . S
H1085 C1094 0.930 . S
H1086 C1096 0.930 . S
H1087 C1099 0.929 . S
H1088 C1102 0.930 . S
H1089 C1104 0.960 . S
H1090 C1104 0.960 . S
H1091 C1104 0.960 1_565 S
C1092 H1084 0.929 . S
C1092 C1093 1.377 . S
C1092 C1094 1.384 . S
C1093 C1092 1.377 . S
C1093 C1099 1.390 1_545 S
C1094 H1085 0.930 . S
C1094 C1092 1.384 . S
C1094 C1095 1.372 . S
C1095 C1094 1.372 . S
C1095 C1096 1.400 1_545 S
C1095 C1100 1.490 . S
C1096 H1086 0.930 . S
C1096 C1095 1.400 1_565 S
C1096 C1099 1.386 . S
H1097 C1113 0.930 . S
H1098 C1114 0.931 . S
C1099 H1087 0.929 . S
C1099 C1093 1.390 1_565 S
C1099 C1096 1.386 . S
C1100 C1095 1.490 . S
C1100 C1102 1.395 . S
C1100 C1103 1.403 . S
H1101 C1107 0.930 . S
C1102 H1088 0.930 . S
C1102 C1100 1.395 . S
C1102 C1105 1.403 . S
C1103 C1100 1.403 . S
C1103 C1104 1.524 . S
C1103 C1107 1.400 . S
C1104 H1089 0.960 . S
C1104 H1090 0.960 . S
C1104 H1091 0.960 1_545 S
C1104 C1103 1.524 . S
C1105 C1102 1.403 . S
C1105 C1106 1.392 . S
C1105 C1109 1.495 . S
C1106 C1105 1.392 . S
C1106 C1107 1.385 . S
C1106 C1108 1.478 . S
C1107 H1101 0.930 . S
C1107 C1103 1.400 . S
C1107 C1106 1.385 . S
C1108 C1106 1.478 . S
C1108 C1110 1.381 . S
C1108 C1114 1.383 1_545 S
C1109 C1105 1.495 . S
C1109 H1115 0.959 . S
C1109 H1116 0.961 . S
C1109 H1117 0.960 . S
C1110 C1108 1.381 . S
C1110 C1111 1.394 . S
C1110 H1118 0.930 . S
C1111 C1110 1.394 . S
C1111 C1112 1.383 . S
C1111 H1119 0.929 . S
C1112 C1111 1.383 . S
C1112 C1113 1.377 1_545 S
C1113 H1097 0.930 . S
C1113 C1112 1.377 1_565 S
C1113 C1114 1.379 . S
C1114 H1098 0.931 . S
C1114 C1108 1.383 1_565 S
C1114 C1113 1.379 . S
H1115 C1109 0.959 . S
H1116 C1109 0.961 . S
H1117 C1109 0.960 . S
H1118 C1110 0.930 . S
H1119 C1111 0.929 . S
H1120 C1128 0.929 . S
H1121 C1130 0.930 . S
H1122 C1132 0.930 . S
H1123 C1135 0.929 . S
H1124 C1138 0.930 . S
H1125 C1140 0.960 . S
H1126 C1140 0.960 . S
H1127 C1140 0.960 . S
C1128 H1120 0.929 . S
C1128 C1129 1.377 . S
C1128 C1130 1.384 . S
C1129 C1128 1.377 . S
C1129 C1135 1.390 . S
C1130 H1121 0.930 . S
C1130 C1128 1.384 . S
C1130 C1131 1.372 . S
C1131 C1130 1.372 . S
C1131 C1132 1.400 . S
C1131 C1136 1.490 . S
C1132 H1122 0.930 . S
C1132 C1131 1.400 . S
C1132 C1135 1.386 . S
H1133 C1149 0.930 . S
H1134 C1150 0.931 . S
C1135 H1123 0.929 . S
C1135 C1129 1.390 . S
C1135 C1132 1.386 . S
C1136 C1131 1.490 . S
C1136 C1138 1.395 . S
C1136 C1139 1.403 . S
H1137 C1143 0.930 . S
C1138 H1124 0.930 . S
C1138 C1136 1.395 . S
C1138 C1141 1.403 . S
C1139 C1136 1.403 . S
C1139 C1140 1.524 . S
C1139 C1143 1.400 . S
C1140 H1125 0.960 . S
C1140 H1126 0.960 . S
C1140 H1127 0.960 . S
C1140 C1139 1.524 . S
C1141 C1138 1.403 . S
C1141 C1142 1.392 . S
C1141 C1145 1.495 . S
C1142 C1141 1.392 . S
C1142 C1143 1.385 . S
C1142 C1144 1.478 . S
C1143 H1137 0.930 . S
C1143 C1139 1.400 . S
C1143 C1142 1.385 . S
C1144 C1142 1.478 . S
C1144 C1146 1.381 . S
C1144 C1150 1.383 . S
C1145 C1141 1.495 . S
C1145 H1151 0.959 . S
C1145 H1152 0.961 . S
C1145 H1153 0.960 . S
C1146 C1144 1.381 . S
C1146 C1147 1.394 . S
C1146 H1154 0.930 . S
C1147 C1146 1.394 . S
C1147 C1148 1.383 . S
C1147 H1155 0.929 . S
C1148 C1147 1.383 . S
C1148 C1149 1.377 . S
C1149 H1133 0.930 . S
C1149 C1148 1.377 . S
C1149 C1150 1.379 . S
C1150 H1134 0.931 . S
C1150 C1144 1.383 . S
C1150 C1149 1.379 . S
H1151 C1145 0.959 . S
H1152 C1145 0.961 . S
H1153 C1145 0.960 . S
H1154 C1146 0.930 . S
H1155 C1147 0.929 . S
H1156 C1164 0.929 . S
H1157 C1166 0.930 . S
H1158 C1168 0.930 . S
H1159 C1171 0.929 . S
H1160 C1174 0.930 . S
H1161 C1176 0.960 . S
H1162 C1176 0.960 . S
H1163 C1176 0.960 . S
C1164 H1156 0.929 . S
C1164 C1165 1.377 . S
C1164 C1166 1.384 . S
C1165 C1164 1.377 . S
C1165 C1171 1.390 . S
C1166 H1157 0.930 . S
C1166 C1164 1.384 . S
C1166 C1167 1.372 . S
C1167 C1166 1.372 . S
C1167 C1168 1.400 . S
C1167 C1172 1.490 . S
C1168 H1158 0.930 . S
C1168 C1167 1.400 . S
C1168 C1171 1.386 . S
H1169 C1185 0.930 . S
H1170 C1186 0.931 . S
C1171 H1159 0.929 . S
C1171 C1165 1.390 . S
C1171 C1168 1.386 . S
C1172 C1167 1.490 . S
C1172 C1174 1.395 . S
C1172 C1175 1.403 . S
H1173 C1179 0.930 . S
C1174 H1160 0.930 . S
C1174 C1172 1.395 . S
C1174 C1177 1.403 . S
C1175 C1172 1.403 . S
C1175 C1176 1.524 . S
C1175 C1179 1.400 . S
C1176 H1161 0.960 . S
C1176 H1162 0.960 . S
C1176 H1163 0.960 . S
C1176 C1175 1.524 . S
C1177 C1174 1.403 . S
C1177 C1178 1.392 . S
C1177 C1181 1.495 . S
C1178 C1177 1.392 . S
C1178 C1179 1.385 . S
C1178 C1180 1.478 . S
C1179 H1173 0.930 . S
C1179 C1175 1.400 . S
C1179 C1178 1.385 . S
C1180 C1178 1.478 . S
C1180 C1182 1.381 . S
C1180 C1186 1.383 . S
C1181 C1177 1.495 . S
C1181 H1187 0.959 . S
C1181 H1188 0.961 . S
C1181 H1189 0.960 . S
C1182 C1180 1.381 . S
C1182 C1183 1.394 . S
C1182 H1190 0.930 . S
C1183 C1182 1.394 . S
C1183 C1184 1.383 . S
C1183 H1191 0.929 . S
C1184 C1183 1.383 . S
C1184 C1185 1.377 . S
C1185 H1169 0.930 . S
C1185 C1184 1.377 . S
C1185 C1186 1.379 . S
C1186 H1170 0.931 . S
C1186 C1180 1.383 . S
C1186 C1185 1.379 . S
H1187 C1181 0.959 . S
H1188 C1181 0.961 . S
H1189 C1181 0.960 . S
H1190 C1182 0.930 . S
H1191 C1183 0.929 . S
H1192 C1200 0.930 1_455 S
H1193 C1202 0.925 1_455 S
H1194 C1204 0.930 . S
H1195 C1207 0.929 . S
H1196 C1210 0.930 . S
H1197 C1212 0.960 . S
H1198 C1212 0.960 . S
H1199 C1212 0.960 . S
C1200 H1192 0.930 1_655 S
C1200 C1201 1.377 . S
C1200 C1202 1.383 . S
C1201 C1200 1.377 . S
C1201 C1207 1.390 . S
C1202 H1193 0.925 1_655 S
C1202 C1200 1.383 . S
C1202 C1203 1.378 . S
C1203 C1202 1.378 . S
C1203 C1204 1.400 . S
C1203 C1208 1.490 . S
C1204 H1194 0.930 . S
C1204 C1203 1.400 . S
C1204 C1207 1.386 . S
H1205 C1221 0.930 . S
H1206 C1222 0.931 . S
C1207 H1195 0.929 . S
C1207 C1201 1.390 . S
C1207 C1204 1.386 . S
C1208 C1203 1.490 . S
C1208 C1210 1.395 1_655 S
C1208 C1211 1.403 . S
H1209 C1215 0.930 . S
C1210 H1196 0.930 . S
C1210 C1208 1.395 1_455 S
C1210 C1213 1.403 . S
C1211 C1208 1.403 . S
C1211 C1212 1.524 . S
C1211 C1215 1.400 . S
C1212 H1197 0.960 . S
C1212 H1198 0.960 . S
C1212 H1199 0.960 . S
C1212 C1211 1.524 . S
C1213 C1210 1.403 . S
C1213 C1214 1.392 1_455 S
C1213 C1217 1.495 . S
C1214 C1213 1.392 1_655 S
C1214 C1215 1.385 . S
C1214 C1216 1.478 . S
C1215 H1209 0.930 . S
C1215 C1211 1.400 . S
C1215 C1214 1.385 . S
C1216 C1214 1.478 . S
C1216 C1218 1.381 . S
C1216 C1222 1.383 . S
C1217 C1213 1.495 . S
C1217 H1223 0.959 . S
C1217 H1224 0.961 . S
C1217 H1225 0.960 . S
C1218 C1216 1.381 . S
C1218 C1219 1.394 . S
C1218 H1226 0.930 . S
C1219 C1218 1.394 . S
C1219 C1220 1.383 . S
C1219 H1227 0.929 . S
C1220 C1219 1.383 . S
C1220 C1221 1.377 . S
C1221 H1205 0.930 . S
C1221 C1220 1.377 . S
C1221 C1222 1.379 . S
C1222 H1206 0.931 . S
C1222 C1216 1.383 . S
C1222 C1221 1.379 . S
H1223 C1217 0.959 . S
H1224 C1217 0.961 . S
H1225 C1217 0.960 . S
H1226 C1218 0.930 . S
H1227 C1219 0.929 . S
H1228 C1236 0.929 . S
H1229 C1238 0.930 . S
H1230 C1240 0.928 1_545 S
H1231 C1243 0.933 . S
H1232 C1246 0.930 . S
H1233 C1248 0.960 . S
H1234 C1248 0.960 . S
H1235 C1248 0.960 . S
C1236 H1228 0.929 . S
C1236 C1237 1.377 . S
C1236 C1238 1.384 . S
C1237 C1236 1.377 . S
C1237 C1243 1.386 1_565 S
C1238 H1229 0.930 . S
C1238 C1236 1.384 . S
C1238 C1239 1.372 . S
C1239 C1238 1.372 . S
C1239 C1240 1.402 . S
C1239 C1244 1.490 . S
C1240 H1230 0.928 1_565 S
C1240 C1239 1.402 . S
C1240 C1243 1.385 1_565 S
H1241 C1257 0.930 . S
H1242 C1258 0.931 . S
C1243 H1231 0.933 . S
C1243 C1237 1.386 1_545 S
C1243 C1240 1.385 1_545 S
C1244 C1239 1.490 . S
C1244 C1246 1.395 . S
C1244 C1247 1.403 1_565 S
H1245 C1251 0.930 . S
C1246 H1232 0.930 . S
C1246 C1244 1.395 . S
C1246 C1249 1.403 . S
C1247 C1244 1.403 1_545 S
C1247 C1248 1.524 . S
C1247 C1251 1.400 . S
C1248 H1233 0.960 . S
C1248 H1234 0.960 . S
C1248 H1235 0.960 . S
C1248 C1247 1.524 . S
C1249 C1246 1.403 . S
C1249 C1250 1.392 . S
C1249 C1253 1.495 . S
C1250 C1249 1.392 . S
C1250 C1251 1.385 1_565 S
C1250 C1252 1.478 . S
C1251 H1245 0.930 . S
C1251 C1247 1.400 . S
C1251 C1250 1.385 1_545 S
C1252 C1250 1.478 . S
C1252 C1254 1.381 . S
C1252 C1258 1.383 . S
C1253 C1249 1.495 . S
C1253 H1259 0.959 . S
C1253 H1260 0.961 . S
C1253 H1261 0.960 . S
C1254 C1252 1.381 . S
C1254 C1255 1.394 . S
C1254 H1262 0.930 . S
C1255 C1254 1.394 . S
C1255 C1256 1.383 . S
C1255 H1263 0.929 . S
C1256 C1255 1.383 . S
C1256 C1257 1.377 . S
C1257 H1241 0.930 . S
C1257 C1256 1.377 . S
C1257 C1258 1.379 . S
C1258 H1242 0.931 . S
C1258 C1252 1.383 . S
C1258 C1257 1.379 . S
H1259 C1253 0.959 . S
H1260 C1253 0.961 . S
H1261 C1253 0.960 . S
H1262 C1254 0.930 . S
H1263 C1255 0.929 . S
H1264 C1272 0.929 . S
H1265 C1274 0.930 . S
H1266 C1276 0.930 . S
H1267 C1279 0.929 . S
H1268 C1282 0.930 . S
H1269 C1284 0.960 . S
H1270 C1284 0.960 . S
H1271 C1284 0.960 . S
C1272 H1264 0.929 . S
C1272 C1273 1.377 . S
C1272 C1274 1.384 . S
C1273 C1272 1.377 . S
C1273 C1279 1.390 . S
C1274 H1265 0.930 . S
C1274 C1272 1.384 . S
C1274 C1275 1.372 . S
C1275 C1274 1.372 . S
C1275 C1276 1.400 . S
C1275 C1280 1.490 . S
C1276 H1266 0.930 . S
C1276 C1275 1.400 . S
C1276 C1279 1.386 . S
H1277 C1293 0.930 . S
H1278 C1294 0.931 . S
C1279 H1267 0.929 . S
C1279 C1273 1.390 . S
C1279 C1276 1.386 . S
C1280 C1275 1.490 . S
C1280 C1282 1.395 . S
C1280 C1283 1.403 . S
H1281 C1287 0.930 . S
C1282 H1268 0.930 . S
C1282 C1280 1.395 . S
C1282 C1285 1.403 . S
C1283 C1280 1.403 . S
C1283 C1284 1.524 . S
C1283 C1287 1.400 . S
C1284 H1269 0.960 . S
C1284 H1270 0.960 . S
C1284 H1271 0.960 . S
C1284 C1283 1.524 . S
C1285 C1282 1.403 . S
C1285 C1286 1.392 . S
C1285 C1289 1.495 . S
C1286 C1285 1.392 . S
C1286 C1287 1.385 . S
C1286 C1288 1.478 . S
C1287 H1281 0.930 . S
C1287 C1283 1.400 . S
C1287 C1286 1.385 . S
C1288 C1286 1.478 . S
C1288 C1290 1.381 . S
C1288 C1294 1.383 . S
C1289 C1285 1.495 . S
C1289 H1295 0.959 . S
C1289 H1296 0.961 . S
C1289 H1297 0.960 . S
C1290 C1288 1.381 . S
C1290 C1291 1.394 . S
C1290 H1298 0.930 . S
C1291 C1290 1.394 . S
C1291 C1292 1.383 . S
C1291 H1299 0.929 . S
C1292 C1291 1.383 . S
C1292 C1293 1.377 . S
C1293 H1277 0.930 . S
C1293 C1292 1.377 . S
C1293 C1294 1.379 . S
C1294 H1278 0.931 . S
C1294 C1288 1.383 . S
C1294 C1293 1.379 . S
H1295 C1289 0.959 . S
H1296 C1289 0.961 . S
H1297 C1289 0.960 . S
H1298 C1290 0.930 . S
H1299 C1291 0.929 . S
H1300 C1308 0.929 . S
H1301 C1310 0.930 . S
H1302 C1312 0.930 . S
H1303 C1315 0.929 . S
H1304 C1318 0.930 . S
H1305 C1320 0.960 . S
H1306 C1320 0.960 . S
H1307 C1320 0.960 . S
C1308 H1300 0.929 . S
C1308 C1309 1.377 . S
C1308 C1310 1.384 . S
C1309 C1308 1.377 . S
C1309 C1315 1.390 . S
C1310 H1301 0.930 . S
C1310 C1308 1.384 . S
C1310 C1311 1.372 . S
C1311 C1310 1.372 . S
C1311 C1312 1.400 . S
C1311 C1316 1.490 . S
C1312 H1302 0.930 . S
C1312 C1311 1.400 . S
C1312 C1315 1.386 . S
H1313 C1329 0.930 . S
H1314 C1330 0.931 . S
C1315 H1303 0.929 . S
C1315 C1309 1.390 . S
C1315 C1312 1.386 . S
C1316 C1311 1.490 . S
C1316 C1318 1.395 . S
C1316 C1319 1.403 . S
H1317 C1323 0.930 . S
C1318 H1304 0.930 . S
C1318 C1316 1.395 . S
C1318 C1321 1.403 . S
C1319 C1316 1.403 . S
C1319 C1320 1.524 . S
C1319 C1323 1.400 . S
C1320 H1305 0.960 . S
C1320 H1306 0.960 . S
C1320 H1307 0.960 . S
C1320 C1319 1.524 . S
C1321 C1318 1.403 . S
C1321 C1322 1.392 . S
C1321 C1325 1.495 . S
C1322 C1321 1.392 . S
C1322 C1323 1.385 . S
C1322 C1324 1.478 . S
C1323 H1317 0.930 . S
C1323 C1319 1.400 . S
C1323 C1322 1.385 . S
C1324 C1322 1.478 . S
C1324 C1326 1.381 . S
C1324 C1330 1.383 . S
C1325 C1321 1.495 . S
C1325 H1331 0.959 . S
C1325 H1332 0.961 . S
C1325 H1333 0.960 . S
C1326 C1324 1.381 . S
C1326 C1327 1.394 . S
C1326 H1334 0.930 . S
C1327 C1326 1.394 . S
C1327 C1328 1.383 . S
C1327 H1335 0.929 . S
C1328 C1327 1.383 . S
C1328 C1329 1.377 . S
C1329 H1313 0.930 . S
C1329 C1328 1.377 . S
C1329 C1330 1.379 . S
C1330 H1314 0.931 . S
C1330 C1324 1.383 . S
C1330 C1329 1.379 . S
H1331 C1325 0.959 . S
H1332 C1325 0.961 . S
H1333 C1325 0.960 . S
H1334 C1326 0.930 . S
H1335 C1327 0.929 . S
C481 C255 1.922 . S
C500 C321 2.033 . S
C536 C361 2.039 . S
C517 C294 1.906 . S
C572 C401 2.034 . S
C553 C177 1.924 . S
C608 C441 2.037 1_455 S
C589 C216 1.924 1_455 S
C644 C330 2.026 1_565 S
C625 C99 1.929 . S
C661 C138 1.903 . S
C680 C370 2.032 . S
C697 C21 1.929 . S
C716 C410 2.035 . S
C733 C60 1.927 . S
C752 C450 2.031 1_655 S
C788 C327 0.341 . S
C769 C196 0.281 1_455 S
C824 C367 0.197 . S
C805 C235 0.255 . S
C860 C407 0.175 . S
C841 C289 0.245 . S
C877 C157 0.273 . S
C896 C447 0.269 . S
C913 C40 0.241 . S
C932 C318 0.271 . S
C968 C358 0.288 . S
C949 C79 0.277 . S
C1004 C398 0.190 . S
C985 C133 0.276 . S
C1021 C1 0.254 . S
C1040 C438 0.377 . S
C1057 C211 2.530 . S
C1076 C331 2.829 . S
C1093 C250 2.518 . S
C1112 C371 2.808 . S
C1148 C411 2.805 . S
C1129 C274 2.524 . S
C1184 C451 2.809 . S
C1165 C172 2.514 . S
C1201 C55 2.532 1_655 S
C1220 C322 2.810 . S
C1256 C362 2.820 . S
C1237 C94 2.511 . S
C1292 C402 2.819 . S
C1273 C118 2.531 . S
C1309 C16 2.524 . S
C1328 C442 2.819 . S
