# Generated by pormake.
# Topology pyr, (3,6)-cn, num edge types: 1
# Building blocks:
#     Node 0, Type 0, BuildingBlock: ESEHIV_clean_linker_0, # of connection points: 3
#     Node 1, Type 0, BuildingBlock: ESEHIV_clean_linker_0, # of connection points: 3
#     Node 2, Type 0, BuildingBlock: ESEHIV_clean_linker_0, # of connection points: 3
#     Node 3, Type 0, BuildingBlock: ESEHIV_clean_linker_0, # of connection points: 3
#     Node 4, Type 0, BuildingBlock: ESEHIV_clean_linker_0, # of connection points: 3
#     Node 5, Type 0, BuildingBlock: ESEHIV_clean_linker_0, # of connection points: 3
#     Node 6, Type 0, BuildingBlock: ESEHIV_clean_linker_0, # of connection points: 3
#     Node 7, Type 0, BuildingBlock: ESEHIV_clean_linker_0, # of connection points: 3
#     Node 8, Type 1, BuildingBlock: BETDAH_clean_sbu_0, # of connection points: 6
#     Node 9, Type 1, BuildingBlock: BETDAH_clean_sbu_0, # of connection points: 6
#     Node 10, Type 1, BuildingBlock: BETDAH_clean_sbu_0, # of connection points: 6
#     Node 11, Type 1, BuildingBlock: BETDAH_clean_sbu_0, # of connection points: 6
#     Edge 12, Type (0, 1), BuildingBlock: UVAHIK_clean_linker_0, # of connection points: 2
#     Edge 13, Type (0, 1), BuildingBlock: UVAHIK_clean_linker_0, # of connection points: 2
#     Edge 14, Type (0, 1), BuildingBlock: UVAHIK_clean_linker_0, # of connection points: 2
#     Edge 15, Type (0, 1), BuildingBlock: UVAHIK_clean_linker_0, # of connection points: 2
#     Edge 16, Type (0, 1), BuildingBlock: UVAHIK_clean_linker_0, # of connection points: 2
#     Edge 17, Type (0, 1), BuildingBlock: UVAHIK_clean_linker_0, # of connection points: 2
#     Edge 18, Type (0, 1), BuildingBlock: UVAHIK_clean_linker_0, # of connection points: 2
#     Edge 19, Type (0, 1), BuildingBlock: UVAHIK_clean_linker_0, # of connection points: 2
#     Edge 20, Type (0, 1), BuildingBlock: UVAHIK_clean_linker_0, # of connection points: 2
#     Edge 21, Type (0, 1), BuildingBlock: UVAHIK_clean_linker_0, # of connection points: 2
#     Edge 22, Type (0, 1), BuildingBlock: UVAHIK_clean_linker_0, # of connection points: 2
#     Edge 23, Type (0, 1), BuildingBlock: UVAHIK_clean_linker_0, # of connection points: 2
#     Edge 24, Type (0, 1), BuildingBlock: UVAHIK_clean_linker_0, # of connection points: 2
#     Edge 25, Type (0, 1), BuildingBlock: UVAHIK_clean_linker_0, # of connection points: 2
#     Edge 26, Type (0, 1), BuildingBlock: UVAHIK_clean_linker_0, # of connection points: 2
#     Edge 27, Type (0, 1), BuildingBlock: UVAHIK_clean_linker_0, # of connection points: 2
#     Edge 28, Type (0, 1), BuildingBlock: UVAHIK_clean_linker_0, # of connection points: 2
#     Edge 29, Type (0, 1), BuildingBlock: UVAHIK_clean_linker_0, # of connection points: 2
#     Edge 30, Type (0, 1), BuildingBlock: UVAHIK_clean_linker_0, # of connection points: 2
#     Edge 31, Type (0, 1), BuildingBlock: UVAHIK_clean_linker_0, # of connection points: 2
#     Edge 32, Type (0, 1), BuildingBlock: UVAHIK_clean_linker_0, # of connection points: 2
#     Edge 33, Type (0, 1), BuildingBlock: UVAHIK_clean_linker_0, # of connection points: 2
#     Edge 34, Type (0, 1), BuildingBlock: UVAHIK_clean_linker_0, # of connection points: 2
#     Edge 35, Type (0, 1), BuildingBlock: UVAHIK_clean_linker_0, # of connection points: 2
# Relax obj value: 0.094
# Max RMSD: 0.124
# Mean RMSD: 0.058
data_MOF--net-pyr--node1-BETDAH_clean_sbu_0--node2-ESEHIV_clean_linker_0--edge1-UVAHIK_clean_linker_0
_symmetry_space_group_name_H-M    P1
_symmetry_Int_Tables_number       1
_symmetry_cell_setting            triclinic
loop_
_symmetry_equiv_pos_as_xyz
'x, y, z'
_cell_length_a     47.143908
_cell_length_b     49.689018
_cell_length_c     44.743506
_cell_angle_alpha  90.990237
_cell_angle_beta   88.767707
_cell_angle_gamma 100.66767
loop_
_atom_site_label
_atom_site_type_symbol
_atom_site_fract_x
_atom_site_fract_y
_atom_site_fract_z
_atom_type_partial_charge
H0 H 0.29722 0.29995 0.25698 0.0
H1 H 0.36114 0.24862 0.25626 0.0
H2 H 0.33147 0.27531 0.17343 0.0
C3 C 0.31226 0.28956 0.24489 0.0
C4 C 0.31352 0.29066 0.21353 0.0
C5 C 0.32868 0.27379 0.26056 0.0
C6 C 0.34778 0.26024 0.24436 0.0
C7 C 0.3486 0.26011 0.21292 0.0
C8 C 0.33179 0.27589 0.19764 0.0
H9 H 0.22924 0.84081 0.70435 0.0
H10 H 0.2703 0.77711 0.66756 0.0
H11 H 0.22216 0.82003 0.61057 0.0
C12 C 0.23308 0.82783 0.68554 0.0
C13 C 0.22311 0.83271 0.65712 0.0
C14 C 0.24997 0.80772 0.68947 0.0
C15 C 0.25653 0.79209 0.66478 0.0
C16 C 0.24667 0.79665 0.63628 0.0
C17 C 0.22978 0.81673 0.63264 0.0
H18 H 0.68683 0.34059 0.88547 0.0
H19 H 0.68895 0.40798 0.82588 0.0
H20 H 0.62015 0.3377 0.82062 0.0
C21 C 0.67778 0.34975 0.86699 0.0
C22 C 0.65213 0.33555 0.85407 0.0
C23 C 0.69137 0.37593 0.85722 0.0
C24 C 0.67846 0.38816 0.83406 0.0
C25 C 0.65273 0.37468 0.8205 0.0
C26 C 0.63982 0.3483 0.83076 0.0
H27 H 0.83344 0.718 0.38987 0.0
H28 H 0.90244 0.71896 0.32508 0.0
H29 H 0.83094 0.65071 0.3281 0.0
C30 C 0.84297 0.7086 0.37109 0.0
C31 C 0.82916 0.68268 0.36065 0.0
C32 C 0.86933 0.72212 0.35839 0.0
C33 C 0.88208 0.70888 0.33475 0.0
C34 C 0.86868 0.68283 0.32352 0.0
C35 C 0.84213 0.67016 0.33681 0.0
H36 H 0.65828 0.80447 0.79386 0.0
H37 H 0.72176 0.75289 0.78513 0.0
H38 H 0.68305 0.76475 0.87105 0.0
C39 C 0.67034 0.79032 0.80353 0.0
C40 C 0.66767 0.78528 0.83434 0.0
C41 C 0.69035 0.77933 0.78566 0.0
C42 C 0.70615 0.76135 0.79865 0.0
C43 C 0.70374 0.75585 0.82941 0.0
C44 C 0.6843 0.76786 0.84711 0.0
H45 H 0.66672 0.19052 0.45416 0.0
H46 H 0.72987 0.14244 0.42659 0.0
H47 H 0.75164 0.20754 0.49137 0.0
C48 C 0.68808 0.18558 0.4559 0.0
C49 C 0.70812 0.20106 0.47519 0.0
C50 C 0.69566 0.16419 0.4385 0.0
C51 C 0.72359 0.1585 0.44052 0.0
C52 C 0.74393 0.17403 0.45941 0.0
C53 C 0.73588 0.19498 0.47724 0.0
H54 H 0.33742 0.72697 0.16324 0.0
H55 H 0.33761 0.65959 0.22221 0.0
H56 H 0.40354 0.73201 0.2289 0.0
C57 C 0.34701 0.71782 0.18129 0.0
C58 C 0.37234 0.73266 0.19427 0.0
C59 C 0.33393 0.69147 0.19109 0.0
C60 C 0.34675 0.68009 0.21498 0.0
C61 C 0.3718 0.6944 0.22912 0.0
C62 C 0.38458 0.7206 0.21818 0.0
H63 H 0.12763 0.34936 0.73385 0.0
H64 H 0.19404 0.35394 0.66531 0.0
H65 H 0.1941 0.42131 0.72648 0.0
C66 C 0.14684 0.36032 0.72276 0.0
C67 C 0.15876 0.38715 0.73284 0.0
C68 C 0.15939 0.34769 0.69847 0.0
C69 C 0.18456 0.36258 0.6846 0.0
C70 C 0.19743 0.38899 0.69458 0.0
C71 C 0.18413 0.40114 0.71847 0.0
Ho72 Ho 0.03587 0.04293 0.50546 0.0
Ho73 Ho 0.99837 1.02217 0.55918 0.0
C74 C 0.04084 0.08233 0.5629 0.0
C75 C 0.06022 0.06197 0.45626 0.0
C76 C 0.08587 0.08326 0.45039 0.0
C77 C 0.08374 0.10528 0.4319 0.0
C78 C 0.10749 0.12637 0.42746 0.0
C79 C 0.13383 0.12563 0.44126 0.0
C80 C 0.13595 0.10357 0.45972 0.0
C81 C 0.11216 0.08267 0.46442 0.0
C82 C 0.06295 1.0215 0.54898 0.0
C83 C 0.99382 0.98251 0.50196 0.0
C84 C 0.97315 1.00376 0.60828 0.0
C85 C 0.9465 0.98357 0.61429 0.0
C86 C 0.94815 0.95847 0.62745 0.0
C87 C 0.92325 0.93863 0.63175 0.0
C88 C 0.8962 0.94365 0.62322 0.0
C89 C 0.89453 0.96885 0.61031 0.0
C90 C 0.91939 0.98857 0.60581 0.0
C91 C 0.97131 0.04384 0.51567 0.0
O92 O 0.04511 0.08117 0.53365 0.0
O93 O 0.02627 0.06109 0.5778 0.0
O94 O 0.06484 0.03934 0.46823 0.0
O95 O 0.03799 0.07068 0.46837 0.0
O96 O 0.07514 0.04213 0.53306 0.0
O97 O 0.03803 1.01234 0.53973 0.0
O98 O 0.99017 0.98369 0.5313 0.0
O99 O 0.00775 1.00399 0.48693 0.0
O100 O 0.96986 0.02687 0.59647 0.0
O101 O 0.99473 0.99403 0.5961 0.0
O102 O 0.9594 1.02294 0.53135 0.0
O103 O 0.99622 0.05296 0.52503 0.0
H104 H 0.06362 0.10625 0.42106 0.0
H105 H 0.1054 0.14303 0.41286 0.0
H106 H 0.15596 0.10263 0.47079 0.0
H107 H 0.11435 0.06618 0.47922 0.0
H108 H 0.96875 0.95411 0.63418 0.0
H109 H 0.9251 0.91951 0.64212 0.0
H110 H 0.874 0.97319 0.60331 0.0
H111 H 0.91731 1.00761 0.59539 0.0
Ho112 Ho 0.53723 0.03584 0.03359 0.0
Ho113 Ho 0.48577 1.02324 0.99779 0.0
C114 C 0.48395 0.06234 0.05355 0.0
C115 C 0.58547 0.05105 0.06052 0.0
C116 C 0.5912 0.05868 0.09191 0.0
C117 C 0.57027 0.06867 0.10946 0.0
C118 C 0.57477 0.07435 0.13978 0.0
C119 C 0.6001 0.06981 0.15316 0.0
C120 C 0.62103 0.05976 0.13554 0.0
C121 C 0.6166 0.05428 0.10507 0.0
C122 C 0.49601 0.99523 0.05762 0.0
C123 C 0.53931 0.9947 0.97856 0.0
C124 C 0.44098 1.00189 0.96764 0.0
C125 C 0.42984 0.97526 0.95308 0.0
C126 C 0.41964 0.95158 0.96982 0.0
C127 C 0.40787 0.92696 0.95543 0.0
C128 C 0.4063 0.92553 0.92411 0.0
C129 C 0.41709 0.94906 0.90745 0.0
C130 C 0.42859 0.97367 0.92179 0.0
C131 C 0.51764 0.0739 0.98604 0.0
O132 O 0.51229 0.067 0.0511 0.0
O133 O 0.46831 0.04197 0.0386 0.0
O134 O 0.5739 1.02538 0.0559 0.0
O135 O 0.573 0.06781 0.04542 0.0
O136 O 0.51121 1.01505 0.07267 0.0
O137 O 0.5033 0.99806 0.03037 0.0
O138 O 0.51157 0.99463 0.97555 0.0
O139 O 0.5548 1.01107 0.99797 0.0
O140 O 0.46423 1.01642 0.95548 0.0
O141 O 0.44128 1.00261 0.99692 0.0
O142 O 0.48981 0.06801 0.98796 0.0
O143 O 0.52771 0.05226 0.98991 0.0
H144 H 0.55024 0.0717 0.09982 0.0
H145 H 0.55813 0.08174 0.1529 0.0
H146 H 0.64083 0.05627 0.14531 0.0
H147 H 0.63281 0.0463 0.09188 0.0
H148 H 0.42035 0.9521 0.994 0.0
H149 H 0.39976 0.9091 0.96879 0.0
H150 H 0.41569 0.94873 0.8833 0.0
H151 H 0.43611 0.99164 0.90839 0.0
Ho152 Ho 0.51318 0.51285 0.50662 0.0
Ho153 Ho 0.51154 0.55992 0.54516 0.0
C154 C 0.53737 0.51279 0.57545 0.0
C155 C 0.53026 0.47256 0.47923 0.0
C156 C 0.54445 0.45096 0.49079 0.0
C157 C 0.57204 0.44884 0.47984 0.0
C158 C 0.58777 0.43135 0.49331 0.0
C159 C 0.57606 0.41545 0.51781 0.0
C160 C 0.54806 0.41684 0.52819 0.0
C161 C 0.53245 0.43463 0.51496 0.0
C162 C 0.46146 0.5103 0.53544 0.0
C163 C 0.48702 0.55942 0.47682 0.0
C164 C 0.49496 0.60059 0.57232 0.0
C165 C 0.47294 0.61618 0.56354 0.0
C166 C 0.44793 0.60284 0.5491 0.0
C167 C 0.42778 0.61774 0.53912 0.0
C168 C 0.43226 0.64626 0.54328 0.0
C169 C 0.45749 0.65965 0.55738 0.0
C170 C 0.47769 0.64468 0.56744 0.0
C171 C 0.5632 0.5622 0.51645 0.0
O172 O 0.53592 0.50183 0.54815 0.0
O173 O 0.52739 0.53555 0.58104 0.0
O174 O 0.50336 0.47197 0.48744 0.0
O175 O 0.54581 0.4972 0.48062 0.0
O176 O 0.46452 0.50318 0.50767 0.0
O177 O 0.4861 0.51808 0.54665 0.0
O178 O 0.48516 0.56807 0.50489 0.0
O179 O 0.50044 0.5389 0.4706 0.0
O180 O 0.51784 0.60345 0.5549 0.0
O181 O 0.48539 0.57507 0.57946 0.0
O182 O 0.56017 0.56906 0.54429 0.0
O183 O 0.53855 0.55476 0.50516 0.0
H184 H 0.58178 0.46133 0.46138 0.0
H185 H 0.60912 0.43022 0.48452 0.0
H186 H 0.5386 0.40473 0.54704 0.0
H187 H 0.51137 0.43613 0.52421 0.0
H188 H 0.44401 0.58088 0.5453 0.0
H189 H 0.4087 0.60694 0.52805 0.0
H190 H 0.4613 0.6816 0.56121 0.0
H191 H 0.49704 0.65533 0.57818 0.0
Ho192 Ho 0.01316 0.5044 0.04211 0.0
Ho193 Ho 0.00759 0.56163 1.01587 0.0
C194 C 0.0659 0.55756 0.05116 0.0
C195 C 0.02982 0.45967 0.05649 0.0
C196 C 0.05604 0.45102 0.06757 0.0
C197 C 0.07329 0.43827 0.04794 0.0
C198 C 0.09705 0.42837 0.05847 0.0
C199 C 0.10387 0.43075 0.08892 0.0
C200 C 0.0869 0.44391 0.10847 0.0
C201 C 0.06323 0.45392 0.09794 0.0
C202 C 0.98335 0.53579 0.07632 0.0
C203 C 0.95787 0.50735 1.00215 0.0
C204 C 0.9892 0.6072 1.01244 0.0
C205 C 0.96765 0.61802 0.9953 0.0
C206 C 0.95052 0.63441 1.01023 0.0
C207 C 0.92788 0.64281 0.99561 0.0
C208 C 0.92208 0.6351 0.96569 0.0
C209 C 0.9397 0.61918 0.95049 0.0
C210 C 0.96221 0.61048 0.96528 0.0
C211 C 0.02992 0.5309 0.97305 0.0
O212 O 0.0564 0.53075 0.05386 0.0
O213 O 0.05057 0.5739 0.03828 0.0
O214 O 0.01595 0.47363 0.0749 0.0
O215 O 0.03115 0.46887 1.02919 0.0
O216 O 0.97659 0.50925 0.07403 0.0
O217 O 1.00602 0.54403 0.0609 0.0
O218 O 0.96484 0.53451 1.00388 0.0
O219 O 0.97466 0.49125 1.01286 0.0
O220 O 0.01246 0.60255 0.99814 0.0
O221 O 0.9783 0.58769 0.03093 0.0
O222 O 0.02557 0.55567 0.96896 0.0
O223 O 0.02212 0.52477 0.99962 0.0
H224 H 0.0681 0.43547 1.02448 0.0
H225 H 0.10952 0.41805 0.04293 0.0
H226 H 0.09182 0.44631 0.13202 0.0
H227 H 0.05036 0.46355 0.11372 0.0
H228 H 0.95428 0.64023 0.03347 0.0
H229 H 0.91484 0.65532 1.00773 0.0
H230 H 0.93554 0.61282 0.92748 0.0
H231 H 0.97491 0.59746 0.95349 0.0
C232 C 0.31231 0.28701 0.31202 0.0
C233 C 0.322 0.26772 0.29276 0.0
C234 C 0.29894 0.27891 0.33946 0.0
C235 C 0.28186 0.22181 0.39302 0.0
H236 H 0.20287 0.23236 0.38591 0.0
C237 C 0.18597 0.14016 0.42754 0.0
C238 C 0.15936 0.1473 0.43552 0.0
C239 C 0.20957 0.1603 0.41973 0.0
C240 C 0.22488 0.22971 0.38905 0.0
H241 H 0.32767 0.2253 0.28909 0.0
H242 H 0.30563 0.21177 0.337 0.0
H243 H 0.2408 0.25987 0.35631 0.0
H244 H 0.13692 0.18112 0.44338 0.0
H245 H 0.17838 0.21655 0.43036 0.0
H246 H 0.2658 0.19093 0.425 0.0
C247 C 0.30811 0.23307 0.33079 0.0
C248 C 0.24669 0.24557 0.37201 0.0
C249 C 0.3209 0.24096 0.30318 0.0
C250 C 0.15712 0.17508 0.43684 0.0
C251 C 0.18087 0.19533 0.42939 0.0
C252 C 0.2601 0.20618 0.41042 0.0
C253 C 0.29569 0.25157 0.34847 0.0
C254 C 0.27511 0.24082 0.37274 0.0
C255 C 0.20722 0.18814 0.42003 0.0
C256 C 0.23111 0.20895 0.40745 0.0
H257 H 0.31352 0.30799 0.30518 0.0
H258 H 0.28975 0.29362 0.35288 0.0
H259 H 0.30369 0.21795 0.39417 0.0
H260 H 0.18821 0.11886 0.42608 0.0
H261 H 0.22921 0.15383 0.41205 0.0
C262 C 0.29347 0.8073 0.72013 0.0
C263 C 0.26347 0.80553 0.71865 0.0
C264 C 0.30704 0.80986 0.74771 0.0
C265 C 0.29521 0.83684 0.82282 0.0
H266 H 0.36973 0.81736 0.83671 0.0
C267 C 0.36414 0.88705 0.91879 0.0
C268 C 0.39146 0.90041 0.90865 0.0
C269 C 0.34772 0.86664 0.90125 0.0
C270 C 0.3488 0.82272 0.83326 0.0
H271 H 0.22383 0.80283 0.74465 0.0
H272 H 0.24738 0.80646 0.79304 0.0
H273 H 0.34081 0.79635 0.79483 0.0
H274 H 0.42415 0.9012 0.87372 0.0
H275 H 0.3954 0.86578 0.84295 0.0
H276 H 0.30355 0.86385 0.86051 0.0
C277 C 0.26057 0.80668 0.77291 0.0
C278 C 0.33228 0.81081 0.80923 0.0
C279 C 0.24705 0.80449 0.74527 0.0
C280 C 0.40298 0.89147 0.88185 0.0
C281 C 0.38664 0.87098 0.86441 0.0
C282 C 0.31156 0.84851 0.84693 0.0
C283 C 0.29085 0.81045 0.77443 0.0
C284 C 0.30577 0.81852 0.80307 0.0
C285 C 0.35839 0.85913 0.87337 0.0
C286 C 0.33896 0.84233 0.85178 0.0
H287 H 0.30666 0.80842 0.69989 0.0
H288 H 0.33039 0.81312 0.74787 0.0
H289 H 0.27517 0.84367 0.81862 0.0
H290 H 0.35468 0.89356 0.93933 0.0
H291 H 0.32611 0.85766 0.90882 0.0
C292 C 0.63843 0.4164 0.79709 0.0
C293 C 0.63973 0.38829 0.79553 0.0
C294 C 0.62715 0.42943 0.77357 0.0
C295 C 0.58426 0.41527 0.70228 0.0
H296 H 0.61355 0.49236 0.68904 0.0
C297 C 0.55592 0.47214 0.59626 0.0
C298 C 0.54973 0.49869 0.60032 0.0
C299 C 0.56671 0.45859 0.61972 0.0
C300 C 0.60488 0.47087 0.69248 0.0
H301 H 0.63004 0.3521 0.76725 0.0
H302 H 0.61123 0.37472 0.72607 0.0
H303 H 0.63249 0.4692 0.72951 0.0
H304 H 0.5506 0.53168 0.63282 0.0
H305 H 0.56971 0.50834 0.67339 0.0
H306 H 0.55717 0.41701 0.66456 0.0
C307 C 0.6182 0.38677 0.74584 0.0
C308 C 0.61571 0.45744 0.71599 0.0
C309 C 0.62916 0.37366 0.76958 0.0
C310 C 0.55504 0.51132 0.62862 0.0
C311 C 0.56619 0.49791 0.65198 0.0
C312 C 0.57371 0.42865 0.67851 0.0
C313 C 0.61703 0.41501 0.74725 0.0
C314 C 0.60554 0.42935 0.72158 0.0
C315 C 0.57209 0.47123 0.64803 0.0
C316 C 0.5837 0.45674 0.67325 0.0
H317 H 0.64589 0.42839 0.81678 0.0
H318 H 0.62615 0.45091 0.77636 0.0
H319 H 0.57523 0.39388 0.70572 0.0
H320 H 0.55219 0.46163 0.57493 0.0
H321 H 0.57119 0.43825 0.61551 0.0
C322 C 0.89802 0.68385 0.27464 0.0
C323 C 0.88193 0.6688 0.29784 0.0
C324 C 0.90942 0.67055 0.25035 0.0
C325 C 0.89857 0.60453 0.20815 0.0
H326 H 0.97689 0.62849 0.1787 0.0
C327 C 0.94957 0.53955 0.11996 0.0
C328 C 0.97106 0.55235 0.09991 0.0
C329 C 0.93884 0.55444 0.14322 0.0
C330 C 0.95478 0.62166 0.18611 0.0
H331 H 0.8666 0.62736 0.31342 0.0
H332 H 0.88544 0.60454 0.27094 0.0
H333 H 0.95834 0.65312 0.2202 0.0
H334 H 0.99799 0.59119 0.08875 0.0
H335 H 0.97851 0.61746 0.12831 0.0
H336 H 0.89442 0.57362 0.17384 0.0
C337 C 0.88903 0.62671 0.27144 0.0
C338 C 0.94416 0.63584 0.21017 0.0
C339 C 0.87804 0.63995 0.29589 0.0
C340 C 0.98131 0.58064 0.10362 0.0
C341 C 0.97029 0.59568 0.12669 0.0
C342 C 0.90898 0.59062 0.18385 0.0
C343 C 0.90479 0.64175 0.24819 0.0
C344 C 0.91599 0.62731 0.2218 0.0
C345 C 0.94893 0.58284 0.14713 0.0
C346 C 0.93743 0.59865 0.1725 0.0
H347 H 0.90132 0.70599 0.27475 0.0
H348 H 0.92125 0.68287 0.23282 0.0
H349 H 0.8766 0.59758 0.21605 0.0
H350 H 0.9413 0.51777 0.11804 0.0
H351 H 0.923 0.54334 0.15854 0.0
C352 C 0.36385 0.21454 0.20759 0.0
C353 C 0.36427 0.24091 0.19638 0.0
C354 C 0.37775 0.19598 0.19213 0.0
C355 C 0.40178 0.17781 0.11784 0.0
H356 H 0.44919 0.13634 0.16134 0.0
C357 C 0.44042 0.08225 0.06803 0.0
C358 C 0.46981 0.0815 0.07152 0.0
C359 C 0.42781 0.10198 0.08329 0.0
C360 C 0.4361 0.14784 0.14888 0.0
H361 H 0.37952 0.26824 0.15979 0.0
H362 H 0.40346 0.23535 0.13234 0.0
H363 H 0.42773 0.17146 0.18744 0.0
H364 H 0.50883 0.10034 0.09432 0.0
H365 H 0.4867 0.13444 0.12119 0.0
H366 H 0.41005 0.15401 0.0793 0.0
C367 C 0.39239 0.22931 0.15331 0.0
C368 C 0.42372 0.16781 0.16383 0.0
C369 C 0.37868 0.24809 0.169 0.0
C370 C 0.48613 0.10039 0.09113 0.0
C371 C 0.47346 0.11988 0.1066 0.0
C372 C 0.41394 0.1576 0.10293 0.0
C373 C 0.39212 0.20312 0.16484 0.0
C374 C 0.40636 0.18293 0.14849 0.0
C375 C 0.44427 0.12108 0.10258 0.0
C376 C 0.43118 0.14239 0.11834 0.0
H377 H 0.35222 0.2079 0.22809 0.0
H378 H 0.37671 0.17576 0.20125 0.0
H379 H 0.3883 0.18902 0.10555 0.0
H380 H 0.42732 0.06804 0.05299 0.0
H381 H 0.40516 0.10228 0.08005 0.0
C382 C 0.18756 0.86207 0.67423 0.0
C383 C 0.20749 0.85564 0.65265 0.0
C384 C 0.17318 0.88386 0.66994 0.0
C385 C 0.17458 0.94499 0.62214 0.0
H386 H 0.09317 0.93405 0.64332 0.0
C387 C 0.06654 0.97993 0.5776 0.0
C388 C 0.07819 1.007 0.56988 0.0
C389 C 0.08235 0.96494 0.59465 0.0
C390 C 0.11587 0.93741 0.63713 0.0
H391 H 0.22851 0.86773 0.61003 0.0
H392 H 0.20227 0.90429 0.60169 0.0
H393 H 0.12155 0.90068 0.65836 0.0
H394 H 0.11428 0.04048 0.57558 0.0
H395 H 0.14158 1.0147 0.60654 0.0
H396 H 0.16848 0.98038 0.59872 0.0
C397 C 0.19821 0.89309 0.62236 0.0
C398 C 0.13229 0.91845 0.64619 0.0
C399 C 0.21285 0.87164 0.62684 0.0
C400 C 0.1051 1.01945 0.58096 0.0
C401 C 0.12074 1.00461 0.59853 0.0
C402 C 0.15806 0.96365 0.61259 0.0
C403 C 0.17817 0.89951 0.64382 0.0
C404 C 0.16167 0.92157 0.638 0.0
C405 C 0.10994 0.97689 0.60482 0.0
C406 C 0.12829 0.95966 0.6192 0.0
H407 H 0.18278 0.85008 0.6943 0.0
H408 H 0.15814 0.88838 0.68709 0.0
H409 H 0.19733 0.9485 0.61616 0.0
H410 H 0.04576 0.96989 0.56932 0.0
H411 H 0.07342 0.94358 0.59852 0.0
C412 C 0.72475 0.41887 0.87626 0.0
C413 C 0.71905 0.39028 0.87133 0.0
C414 C 0.75029 0.43197 0.8901 0.0
C415 C 0.80944 0.41794 0.93871 0.0
H416 H 0.84981 0.48885 0.91216 0.0
C417 C 0.92299 0.46581 0.98328 0.0
C418 C 0.93023 0.49442 0.98738 0.0
C419 C 0.89729 0.45362 0.96924 0.0
C420 C 0.8387 0.46922 0.92024 0.0
H421 H 0.73695 0.35345 0.87654 0.0
H422 H 0.78093 0.37606 0.90068 0.0
H423 H 0.80547 0.46709 0.88773 0.0
H424 H 0.91549 0.5325 0.97966 0.0
H425 H 0.87065 0.51134 0.95575 0.0
H426 H 0.84241 0.42005 0.97133 0.0
C427 C 0.76541 0.3884 0.89435 0.0
C428 C 0.81313 0.45665 0.90611 0.0
C429 C 0.73999 0.37535 0.88044 0.0
C430 C 0.91085 0.51043 0.97694 0.0
C431 C 0.88507 0.49823 0.96296 0.0
C432 C 0.83491 0.43053 0.9529 0.0
C433 C 0.77099 0.41692 0.89959 0.0
C434 C 0.79813 0.43072 0.91499 0.0
C435 C 0.87779 0.46957 0.95884 0.0
C436 C 0.85014 0.45635 0.94386 0.0
H437 H 0.70917 0.43117 0.87001 0.0
H438 H 0.75349 0.45388 0.89396 0.0
H439 H 0.79837 0.39826 0.9467 0.0
H440 H 0.9373 0.45268 0.99075 0.0
H441 H 0.89298 0.4316 0.96616 0.0
C442 C 0.79641 0.64056 0.38137 0.0
C443 C 0.80121 0.66869 0.37484 0.0
C444 C 0.77064 0.6277 0.3955 0.0
C445 C 0.7219 0.6102 0.44196 0.0
H446 H 0.64859 0.62784 0.41937 0.0
C447 C 0.6167 0.57987 0.51372 0.0
C448 C 0.59053 0.57104 0.49891 0.0
C449 C 0.64224 0.59004 0.49766 0.0
C450 C 0.66882 0.62248 0.42585 0.0
H451 H 0.782 0.70507 0.37764 0.0
H452 H 0.73718 0.68272 0.40212 0.0
H453 H 0.69293 0.64886 0.39302 0.0
H454 H 0.57088 0.56562 0.45539 0.0
H455 H 0.61542 0.58356 0.42729 0.0
H456 H 0.69783 0.58396 0.4749 0.0
C457 C 0.75337 0.67054 0.39633 0.0
C458 C 0.69435 0.63479 0.41091 0.0
C459 C 0.77925 0.68346 0.3825 0.0
C460 C 0.59065 0.57224 0.46751 0.0
C461 C 0.61618 0.58272 0.45142 0.0
C462 C 0.69641 0.59813 0.45712 0.0
C463 C 0.74871 0.64249 0.40323 0.0
C464 C 0.72132 0.6289 0.41877 0.0
C465 C 0.64234 0.59196 0.46628 0.0
C466 C 0.66947 0.60413 0.44937 0.0
H467 H 0.81284 0.62852 0.37604 0.0
H468 H 0.76781 0.60605 0.40017 0.0
H469 H 0.74219 0.60527 0.44886 0.0
H470 H 0.61739 0.57926 0.53788 0.0
H471 H 0.6618 0.59714 0.50997 0.0
C472 C 0.30328 0.32206 0.17307 0.0
C473 C 0.29367 0.30529 0.19764 0.0
C474 C 0.28467 0.33698 0.15954 0.0
C475 C 0.22021 0.36623 0.17687 0.0
H476 H 0.20997 0.36722 0.09118 0.0
C477 C 0.12364 0.40327 0.127 0.0
C478 C 0.12772 0.41843 0.10056 0.0
C479 C 0.14568 0.3911 0.13784 0.0
C480 C 0.21292 0.36751 0.11512 0.0
H481 H 0.25648 0.28959 0.22589 0.0
H482 H 0.22442 0.31583 0.20273 0.0
H483 H 0.24564 0.34272 0.11144 0.0
H484 H 0.15821 0.43289 0.06481 0.0
H485 H 0.197 0.41181 0.08397 0.0
H486 H 0.1877 0.3909 0.18081 0.0
C487 C 0.24644 0.31795 0.19432 0.0
C488 C 0.2333 0.35345 0.12668 0.0
C489 C 0.26485 0.30297 0.20763 0.0
C490 C 0.15439 0.42114 0.08514 0.0
C491 C 0.17656 0.40904 0.09608 0.0
C492 C 0.20006 0.38038 0.16536 0.0
C493 C 0.25624 0.33543 0.17048 0.0
C494 C 0.23667 0.35222 0.15771 0.0
C495 C 0.17245 0.3939 0.1226 0.0
C496 C 0.1957 0.38073 0.13441 0.0
H497 H 0.32536 0.32422 0.16488 0.0
H498 H 0.29274 0.35031 0.14114 0.0
H499 H 0.22278 0.36607 0.20086 0.0
H500 H 0.10315 0.40033 0.13905 0.0
H501 H 0.14152 0.37907 0.15794 0.0
C502 C 0.60835 0.30021 0.87026 0.0
C503 C 0.63842 0.30761 0.86555 0.0
C504 C 0.59601 0.27484 0.88296 0.0
C505 C 0.61062 0.20466 0.89912 0.0
H506 H 0.54794 0.20282 0.95686 0.0
C507 C 0.56324 0.10554 0.96701 0.0
C508 C 0.53337 0.10043 0.97338 0.0
C509 C 0.57692 0.13059 0.95427 0.0
C510 C 0.56515 0.20266 0.94049 0.0
H511 H 0.67876 0.29305 0.86974 0.0
H512 H 0.65742 0.24923 0.89179 0.0
H513 H 0.56895 0.24573 0.93304 0.0
H514 H 0.49468 0.118 0.9713 0.0
H515 H 0.51796 0.16072 0.94892 0.0
H516 H 0.60663 0.16149 0.9064 0.0
C517 C 0.64324 0.26301 0.88572 0.0
C518 C 0.57729 0.22751 0.92674 0.0
C519 C 0.65558 0.28841 0.87326 0.0
C520 C 0.51772 0.12109 0.96685 0.0
C521 C 0.53125 0.14591 0.95413 0.0
C522 C 0.59834 0.17971 0.91277 0.0
C523 C 0.61326 0.25584 0.89114 0.0
C524 C 0.60019 0.22901 0.90571 0.0
C525 C 0.56112 0.15127 0.94756 0.0
C526 C 0.57524 0.17817 0.93363 0.0
H527 H 0.59435 0.31434 0.86485 0.0
H528 H 0.57282 0.27011 0.88632 0.0
H529 H 0.62799 0.20471 0.88288 0.0
H530 H 0.57602 0.09017 0.97178 0.0
H531 H 0.59997 0.13381 0.94997 0.0
C532 C 0.91332 0.75722 0.37399 0.0
C533 C 0.88323 0.74997 0.37026 0.0
C534 C 0.92578 0.7827 0.38675 0.0
C535 C 0.9067 0.83947 0.43484 0.0
H536 H 0.98141 0.87937 0.40872 0.0
C537 C 0.96607 0.93383 0.5015 0.0
C538 C 0.9817 0.95629 0.48574 0.0
C539 C 0.95461 0.90916 0.48674 0.0
C540 C 0.96041 0.86866 0.41622 0.0
H541 H 0.84306 0.765 0.37596 0.0
H542 H 0.86456 0.80895 0.39795 0.0
H543 H 0.96065 0.83621 0.38388 0.0
H544 H 0.99742 0.96991 0.44164 0.0
H545 H 0.97728 0.92697 0.41586 0.0
H546 H 0.90616 0.87196 0.46683 0.0
C547 C 0.8786 0.79474 0.39174 0.0
C548 C 0.9486 0.84362 0.40213 0.0
C549 C 0.86619 0.76937 0.37901 0.0
C550 C 0.98556 0.95317 0.45464 0.0
C551 C 0.97412 0.92838 0.43983 0.0
C552 C 0.91852 0.86438 0.44895 0.0
C553 C 0.90857 0.80178 0.39621 0.0
C554 C 0.92149 0.82859 0.41117 0.0
C555 C 0.95833 0.90596 0.45563 0.0
C556 C 0.94562 0.87944 0.43998 0.0
H557 H 0.92723 0.74287 0.36785 0.0
H558 H 0.94888 0.78709 0.38997 0.0
H559 H 0.886 0.82854 0.44286 0.0
H560 H 0.96263 0.93519 0.52545 0.0
H561 H 0.94308 0.89241 0.49993 0.0
C562 C 0.27094 0.79743 0.5861 0.0
C563 C 0.25659 0.78232 0.61002 0.0
C564 C 0.28498 0.78446 0.56386 0.0
C565 C 0.29576 0.71716 0.53366 0.0
H566 H 0.3772 0.74824 0.53933 0.0
C567 C 0.38075 0.65159 0.54241 0.0
C568 C 0.40974 0.6617 0.53479 0.0
C569 C 0.35973 0.66735 0.53787 0.0
C570 C 0.3546 0.73953 0.53645 0.0
H571 H 0.24352 0.74179 0.62833 0.0
H572 H 0.26783 0.71901 0.58938 0.0
H573 H 0.34165 0.77503 0.55586 0.0
H574 H 0.43921 0.69527 0.51428 0.0
H575 H 0.40229 0.7229 0.506 0.0
H576 H 0.30876 0.68115 0.51549 0.0
C577 C 0.26825 0.74081 0.58771 0.0
C578 C 0.33417 0.75496 0.54603 0.0
C579 C 0.25459 0.75382 0.61015 0.0
C580 C 0.41705 0.68722 0.52084 0.0
C581 C 0.39591 0.70297 0.51605 0.0
C582 C 0.3162 0.70184 0.52367 0.0
C583 C 0.28449 0.75616 0.56502 0.0
C584 C 0.30467 0.7433 0.54635 0.0
C585 C 0.36715 0.69358 0.52543 0.0
C586 C 0.34588 0.71223 0.52677 0.0
H587 H 0.27286 0.81948 0.58564 0.0
H588 H 0.29741 0.79671 0.54662 0.0
H589 H 0.27307 0.70791 0.53329 0.0
H590 H 0.37451 0.6321 0.55346 0.0
H591 H 0.338 0.65958 0.54598 0.0
C592 C 0.70867 0.77396 0.73287 0.0
C593 C 0.6988 0.79037 0.75534 0.0
C594 C 0.72332 0.78593 0.7075 0.0
C595 C 0.74404 0.851 0.66604 0.0
H596 H 0.82096 0.83383 0.6663 0.0
C597 C 0.84487 0.93091 0.64092 0.0
C598 C 0.86966 0.92296 0.62842 0.0
C599 C 0.82029 0.91139 0.64736 0.0
C600 C 0.79949 0.83853 0.66516 0.0
H601 H 0.69451 0.83209 0.76713 0.0
H602 H 0.719 0.85252 0.72283 0.0
H603 H 0.78166 0.80421 0.69213 0.0
H604 H 0.88777 0.88853 0.61152 0.0
H605 H 0.84463 0.85431 0.62249 0.0
H606 H 0.76212 0.88596 0.64004 0.0
C607 C 0.71555 0.83044 0.7248 0.0
C608 C 0.7769 0.82146 0.67998 0.0
C609 C 0.70134 0.8186 0.75031 0.0
C610 C 0.86908 0.89516 0.6216 0.0
C611 C 0.84437 0.87561 0.62784 0.0
C612 C 0.76659 0.86796 0.65097 0.0
C613 C 0.72788 0.81444 0.70387 0.0
C614 C 0.74925 0.8282 0.68168 0.0
C615 C 0.81983 0.88344 0.64126 0.0
C616 C 0.79485 0.8626 0.65153 0.0
H617 H 0.70649 0.75207 0.73565 0.0
H618 H 0.73236 0.7731 0.69148 0.0
H619 H 0.72283 0.85648 0.66674 0.0
H620 H 0.8448 0.95215 0.64673 0.0
H621 H 0.80209 0.91817 0.6583 0.0
C622 C 0.66099 0.16407 0.3969 0.0
C623 C 0.67575 0.14944 0.41596 0.0
C624 C 0.64632 0.15105 0.37233 0.0
C625 C 0.65253 0.09559 0.32036 0.0
H626 H 0.5823 0.11201 0.28758 0.0
C627 C 0.61433 0.05637 0.20358 0.0
C628 C 0.60449 0.0754 0.18547 0.0
C629 C 0.61854 0.06176 0.23406 0.0
C630 C 0.60202 0.10733 0.2964 0.0
H631 H 0.68463 0.10926 0.42579 0.0
H632 H 0.65913 0.08653 0.38267 0.0
H633 H 0.59629 0.12765 0.33815 0.0
H634 H 0.59132 0.11492 0.18489 0.0
H635 H 0.5993 0.12468 0.23789 0.0
H636 H 0.65911 0.07642 0.27839 0.0
C637 C 0.65929 0.10815 0.38652 0.0
C638 C 0.60992 0.11618 0.32537 0.0
C639 C 0.67388 0.12114 0.41114 0.0
C640 C 0.59867 0.09979 0.19843 0.0
C641 C 0.60308 0.10527 0.22883 0.0
C642 C 0.64475 0.08692 0.29139 0.0
C643 C 0.64621 0.12318 0.36633 0.0
C644 C 0.63554 0.11081 0.33741 0.0
C645 C 0.61321 0.08639 0.24698 0.0
C646 C 0.61971 0.09315 0.27884 0.0
H647 H 0.66227 0.18594 0.39985 0.0
H648 H 0.63665 0.16322 0.357 0.0
H649 H 0.67266 0.09155 0.32884 0.0
H650 H 0.61853 0.03721 0.19423 0.0
H651 H 0.62596 0.04661 0.2475 0.0
C652 C 0.36589 0.66614 0.27661 0.0
C653 C 0.38418 0.68182 0.25539 0.0
C654 C 0.3771 0.65378 0.30067 0.0
C655 C 0.44452 0.63182 0.32684 0.0
H656 H 0.40374 0.62486 0.40326 0.0
C657 C 0.47674 0.56473 0.42194 0.0
C658 C 0.47451 0.57339 0.45194 0.0
C659 C 0.46591 0.57823 0.39849 0.0
C660 C 0.41566 0.62673 0.38222 0.0
H661 H 0.42916 0.69653 0.24368 0.0
H662 H 0.44866 0.67544 0.28569 0.0
H663 H 0.38548 0.64831 0.36249 0.0
H664 H 0.4588 0.60348 0.48029 0.0
H665 H 0.44012 0.627 0.43967 0.0
H666 H 0.47499 0.61066 0.34673 0.0
C667 C 0.42545 0.6724 0.28351 0.0
C668 C 0.4049 0.63999 0.35851 0.0
C669 C 0.41421 0.68486 0.25944 0.0
C670 C 0.46086 0.59597 0.45763 0.0
C671 C 0.44997 0.60947 0.43416 0.0
C672 C 0.45524 0.61849 0.35053 0.0
C673 C 0.40712 0.65653 0.30459 0.0
C674 C 0.41905 0.64275 0.33028 0.0
C675 C 0.45239 0.60096 0.40407 0.0
C676 C 0.441 0.61559 0.3787 0.0
H677 H 0.34267 0.66349 0.27481 0.0
H678 H 0.36206 0.64161 0.31596 0.0
H679 H 0.45607 0.63312 0.30559 0.0
H680 H 0.487 0.54746 0.41645 0.0
H681 H 0.4679 0.57055 0.37591 0.0
C682 C 0.13267 0.38581 0.7835 0.0
C683 C 0.1448 0.40068 0.75828 0.0
C684 C 0.11984 0.39864 0.80719 0.0
C685 C 0.08842 0.46111 0.82557 0.0
H686 H 0.09819 0.44222 0.90792 0.0
C687 C 0.05467 0.52699 0.92344 0.0
C688 C 0.0429 0.51434 0.94997 0.0
C689 C 0.06652 0.51223 0.9009 0.0
C690 C 0.09486 0.44758 0.88508 0.0
H691 H 0.15228 0.441 0.73859 0.0
H692 H 0.13047 0.46325 0.77968 0.0
H693 H 0.11965 0.4185 0.86748 0.0
H694 H 0.03406 0.47578 0.97308 0.0
H695 H 0.05475 0.44978 0.9338 0.0
H696 H 0.06363 0.49006 0.84294 0.0
C697 C 0.13062 0.44155 0.78117 0.0
C698 C 0.10726 0.43391 0.86174 0.0
C699 C 0.14354 0.42878 0.7576 0.0
C700 C 0.04337 0.48632 0.95329 0.0
C701 C 0.05526 0.47142 0.93061 0.0
C702 C 0.07602 0.4747 0.84882 0.0
C703 C 0.1185 0.42674 0.80641 0.0
C704 C 0.1045 0.44063 0.83155 0.0
C705 C 0.06691 0.48411 0.90388 0.0
C706 C 0.07924 0.46844 0.87905 0.0
H707 H 0.13339 0.36424 0.78518 0.0
H708 H 0.11061 0.38636 0.82598 0.0
H709 H 0.08511 0.46656 0.80275 0.0
H710 H 0.05483 0.54855 0.92004 0.0
H711 H 0.07568 0.52309 0.88116 0.0
C712 C 0.62362 0.80587 0.84471 0.0
C713 C 0.65095 0.80172 0.8534 0.0
C714 C 0.61016 0.82513 0.85973 0.0
C715 C 0.62935 0.88932 0.90176 0.0
H716 H 0.54777 0.87909 0.92217 0.0
C717 C 0.58063 0.97038 0.96876 0.0
C718 C 0.55271 0.97416 0.96185 0.0
C719 C 0.59224 0.94918 0.9553 0.0
C720 C 0.57052 0.88241 0.9162 0.0
H721 H 0.68507 0.81371 0.88536 0.0
H722 H 0.66143 0.8471 0.91176 0.0
H723 H 0.56782 0.8409 0.90083 0.0
H724 H 0.51544 0.95913 0.93457 0.0
H725 H 0.53604 0.9226 0.91045 0.0
H726 H 0.63213 0.93085 0.91645 0.0
C727 C 0.65053 0.83559 0.8932 0.0
C728 C 0.582 0.86048 0.90415 0.0
C729 C 0.66388 0.81622 0.87833 0.0
C730 C 0.53699 0.95675 0.94048 0.0
C731 C 0.5487 0.93563 0.92685 0.0
C732 C 0.61787 0.91127 0.91356 0.0
C733 C 0.6239 0.84077 0.88356 0.0
C734 C 0.61156 0.86369 0.89695 0.0
C735 C 0.57632 0.93134 0.9344 0.0
C736 C 0.58833 0.90809 0.92106 0.0
H737 H 0.61314 0.7949 0.82561 0.0
H738 H 0.58967 0.82873 0.85176 0.0
H739 H 0.65212 0.89257 0.89584 0.0
H740 H 0.59328 0.98327 0.98528 0.0
H741 H 0.61341 0.94631 0.96198 0.0
C742 C 0.78793 0.16675 0.48619 0.0
C743 C 0.77384 0.16888 0.45928 0.0
C744 C 0.81491 0.15894 0.48591 0.0
C745 C 0.85582 0.11765 0.44055 0.0
H746 H 0.91526 0.1424 0.49856 0.0
C747 C 0.92618 0.04881 0.49056 0.0
C748 C 0.95472 0.05991 0.49801 0.0
C749 C 0.90875 0.06528 0.47807 0.0
C750 C 0.89918 0.13561 0.48178 0.0
H751 H 0.7778 0.16686 0.41093 0.0
H752 H 0.82483 0.15306 0.41046 0.0
H753 H 0.87641 0.16811 0.49257 0.0
H754 H 0.98825 0.09623 0.49645 0.0
H755 H 0.95753 0.12521 0.4748 0.0
H756 H 0.87797 0.08456 0.43058 0.0
C757 C 0.81483 0.15689 0.43175 0.0
C758 C 0.8768 0.15015 0.47861 0.0
C759 C 0.78791 0.16468 0.43205 0.0
C760 C 0.96619 0.08726 0.49104 0.0
C761 C 0.94866 0.10384 0.47877 0.0
C762 C 0.87811 0.10305 0.44382 0.0
C763 C 0.82825 0.15324 0.45869 0.0
C764 C 0.85444 0.14081 0.45863 0.0
C765 C 0.91955 0.09316 0.47298 0.0
C766 C 0.89946 0.1114 0.46515 0.0
H767 H 0.77753 0.16984 0.50747 0.0
H768 H 0.82462 0.15601 0.50705 0.0
H769 H 0.83878 0.10983 0.42509 0.0
H770 H 0.91693 0.02772 0.49559 0.0
H771 H 0.88632 0.05655 0.47409 0.0
C772 C 0.28592 0.65769 0.19251 0.0
C773 C 0.30689 0.67608 0.17637 0.0
C774 C 0.26058 0.64387 0.17888 0.0
C775 C 0.22589 0.62898 0.10289 0.0
H776 H 0.1567 0.6063 0.15128 0.0
C777 C 0.11008 0.59514 0.05434 0.0
C778 C 0.09425 0.57003 0.06459 0.0
C779 C 0.13634 0.60714 0.06748 0.0
C780 C 0.17589 0.6124 0.13746 0.0
H781 H 0.31697 0.69326 0.13222 0.0
H782 H 0.27258 0.67125 0.10952 0.0
H783 H 0.20091 0.62922 0.17492 0.0
H784 H 0.0938 0.53811 0.09713 0.0
H785 H 0.13905 0.55956 0.12067 0.0
H786 H 0.2 0.61319 0.06527 0.0
C787 C 0.27585 0.66663 0.13258 0.0
C788 C 0.20154 0.62545 0.15106 0.0
C789 C 0.30143 0.67994 0.146 0.0
C790 C 0.1054 0.55736 0.08849 0.0
C791 C 0.13128 0.56972 0.10212 0.0
C792 C 0.20004 0.61655 0.08926 0.0
C793 C 0.25483 0.64824 0.14866 0.0
C794 C 0.22717 0.63399 0.13409 0.0
C795 C 0.14715 0.59475 0.09176 0.0
C796 C 0.17471 0.608 0.10635 0.0
H797 H 0.28872 0.65413 0.21596 0.0
H798 H 0.24562 0.62961 0.19226 0.0
H799 H 0.24491 0.63433 0.08874 0.0
H800 H 0.10224 0.6055 0.03599 0.0
H801 H 0.14794 0.62646 0.05902 0.0
C802 C 0.24747 0.38932 0.67269 0.0
C803 C 0.22497 0.40354 0.67999 0.0
C804 C 0.27303 0.40252 0.65852 0.0
C805 C 0.30305 0.46221 0.61129 0.0
H806 H 0.37701 0.44644 0.63441 0.0
C807 C 0.40796 0.4922 0.53857 0.0
C808 C 0.43416 0.50158 0.55315 0.0
C809 C 0.38251 0.4822 0.55491 0.0
C810 C 0.3566 0.45128 0.62775 0.0
H811 H 0.21211 0.44312 0.67787 0.0
H812 H 0.25664 0.46614 0.65302 0.0
H813 H 0.33307 0.4255 0.6614 0.0
H814 H 0.45391 0.5082 0.59656 0.0
H815 H 0.40958 0.49056 0.6251 0.0
H816 H 0.32659 0.48784 0.57749 0.0
C817 C 0.25444 0.44465 0.65827 0.0
C818 C 0.33128 0.43902 0.64309 0.0
C819 C 0.22895 0.43149 0.67278 0.0
C820 C 0.43413 0.50113 0.58459 0.0
C821 C 0.40871 0.49082 0.60095 0.0
C822 C 0.32835 0.47424 0.59572 0.0
C823 C 0.2769 0.43036 0.6509 0.0
C824 C 0.30407 0.44419 0.63505 0.0
C825 C 0.38252 0.481 0.58635 0.0
C826 C 0.35554 0.4689 0.60363 0.0
H827 H 0.2454 0.36787 0.67809 0.0
H828 H 0.28961 0.3907 0.65304 0.0
H829 H 0.28257 0.46658 0.60424 0.0
H830 H 0.40718 0.49224 0.5144 0.0
H831 H 0.36294 0.47465 0.54278 0.0
C832 C 0.75272 0.74334 0.83338 0.0
C833 C 0.72375 0.73995 0.84332 0.0
C834 C 0.77176 0.72872 0.84622 0.0
C835 C 0.78631 0.6965 0.91484 0.0
H836 H 0.83665 0.66094 0.86431 0.0
C837 C 0.87027 0.6402 0.96517 0.0
C838 C 0.89741 0.64342 0.95071 0.0
C839 C 0.8472 0.64898 0.95168 0.0
C840 C 0.82299 0.671 0.87876 0.0
H841 H 0.69233 0.71859 0.87498 0.0
H842 H 0.72611 0.69355 0.89813 0.0
H843 H 0.79959 0.68192 0.84173 0.0
H844 H 0.92172 0.65813 0.91079 0.0
H845 H 0.88175 0.67423 0.88748 0.0
H846 H 0.81033 0.6867 0.9518 0.0
C847 C 0.73375 0.70742 0.88006 0.0
C848 C 0.80166 0.68286 0.86581 0.0
C849 C 0.71449 0.72182 0.86688 0.0
C850 C 0.90094 0.65521 0.92229 0.0
C851 C 0.87796 0.6643 0.90892 0.0
C852 C 0.80787 0.68492 0.9278 0.0
C853 C 0.76252 0.71065 0.86969 0.0
C854 C 0.78335 0.696 0.88369 0.0
C855 C 0.85082 0.66148 0.92354 0.0
C856 C 0.82673 0.6723 0.9099 0.0
H857 H 0.76098 0.75775 0.816 0.0
H858 H 0.79398 0.73204 0.83824 0.0
H859 H 0.77267 0.70677 0.9291 0.0
H860 H 0.86686 0.63078 0.98693 0.0
H861 H 0.82651 0.64594 0.96334 0.0
C862 C 0.41577 0.76927 0.17954 0.0
C863 C 0.38561 0.76067 0.18244 0.0
C864 C 0.42777 0.79461 0.16649 0.0
C865 C 0.40909 0.84822 0.11615 0.0
H866 H 0.47907 0.89301 0.14612 0.0
C867 C 0.4692 0.94603 0.05394 0.0
C868 C 0.48171 0.96875 0.07151 0.0
C869 C 0.45733 0.92078 0.06723 0.0
C870 C 0.4594 0.88091 0.13747 0.0
H871 H 0.34475 0.77345 0.17497 0.0
H872 H 0.36547 0.81695 0.15222 0.0
H873 H 0.45917 0.84963 0.17009 0.0
H874 H 0.49096 0.98257 0.11705 0.0
H875 H 0.47039 0.93894 0.14007 0.0
H876 H 0.40916 0.8796 0.08372 0.0
C877 C 0.37996 0.80387 0.15939 0.0
C878 C 0.44811 0.85574 0.1511 0.0
C879 C 0.368 0.77871 0.17254 0.0
C880 C 0.48163 0.96558 0.10273 0.0
C881 C 0.46998 0.94036 0.11597 0.0
C882 C 0.42051 0.87329 0.10238 0.0
C883 C 0.41004 0.81221 0.15579 0.0
C884 C 0.42263 0.83898 0.14083 0.0
C885 C 0.45778 0.9174 0.0985 0.0
C886 C 0.44579 0.89021 0.11288 0.0
H887 H 0.43018 0.75606 0.18656 0.0
H888 H 0.45102 0.80004 0.16405 0.0
H889 H 0.38967 0.83593 0.1072 0.0
H890 H 0.4689 0.94765 1.02984 0.0
H891 H 0.44838 0.90371 0.05285 0.0
C892 C 0.16397 0.30209 0.67369 0.0
C893 C 0.14644 0.31918 0.68723 0.0
C894 C 0.15209 0.27623 0.66179 0.0
C895 C 0.08071 0.23173 0.64053 0.0
H896 H 0.1287 0.17656 0.63108 0.0
C897 C 0.03924 0.11647 0.60532 0.0
C898 C 0.05283 0.10835 0.57922 0.0
C899 C 0.04989 0.1417 0.61959 0.0
C900 C 0.11503 0.19177 0.63357 0.0
H901 H 0.10193 0.32106 0.69905 0.0
H902 H 0.08164 0.27557 0.68057 0.0
H903 H 0.14812 0.22021 0.65503 0.0
H904 H 0.08874 0.12025 0.54822 0.0
H905 H 0.10797 0.16355 0.5739 0.0
H906 H 0.04722 0.20218 0.62015 0.0
C907 C 0.10466 0.28258 0.6779 0.0
C908 C 0.12624 0.21714 0.64709 0.0
C909 C 0.11651 0.30881 0.6892 0.0
C910 C 0.07768 0.12584 0.5682 0.0
C911 C 0.08876 0.15064 0.58294 0.0
C912 C 0.06929 0.20602 0.62773 0.0
C913 C 0.12217 0.26581 0.66363 0.0
C914 C 0.1095 0.23791 0.65046 0.0
C915 C 0.07485 0.15904 0.60864 0.0
C916 C 0.08643 0.18586 0.62373 0.0
H917 H 0.18716 0.30853 0.67218 0.0
H918 H 0.16668 0.26469 0.65069 0.0
H919 H 0.06695 0.24688 0.64193 0.0
H920 H 0.01999 0.10361 0.61432 0.0
H921 H 0.03875 0.14757 0.63939 0.0
C922 C 0.70279 0.22869 0.52174 0.0
C923 C 0.70093 0.22544 0.49055 0.0
C924 C 0.6951 0.25176 0.53583 0.0
C925 C 0.68667 0.3221 0.52143 0.0
H926 H 0.62035 0.30976 0.57557 0.0
C927 C 0.58082 0.36915 0.53547 0.0
C928 C 0.59294 0.39688 0.53164 0.0
C929 C 0.59824 0.35057 0.54314 0.0
C930 C 0.63915 0.31361 0.56083 0.0
H931 H 0.69078 0.24371 0.44947 0.0
H932 H 0.67785 0.28408 0.47388 0.0
H933 H 0.64542 0.27201 0.56283 0.0
H934 H 0.63174 0.42762 0.53616 0.0
H935 H 0.66219 0.39522 0.55001 0.0
H936 H 0.67934 0.36284 0.51727 0.0
C937 C 0.68503 0.2689 0.48751 0.0
C938 C 0.6536 0.2921 0.55378 0.0
C939 C 0.69213 0.24575 0.47358 0.0
C940 C 0.62209 0.40618 0.53835 0.0
C941 C 0.63945 0.38766 0.54632 0.0
C942 C 0.67235 0.34355 0.52849 0.0
C943 C 0.68627 0.27205 0.51873 0.0
C944 C 0.6765 0.29589 0.53279 0.0
C945 C 0.62803 0.35947 0.54732 0.0
C946 C 0.6475 0.33917 0.54704 0.0
H947 H 0.70959 0.21316 0.53514 0.0
H948 H 0.69605 0.25378 0.55995 0.0
H949 H 0.70447 0.32549 0.50537 0.0
H950 H 0.55837 0.36151 0.53043 0.0
H951 H 0.58874 0.32899 0.54342 0.0
loop_
_geom_bond_atom_site_label_1
_geom_bond_atom_site_label_2
_geom_bond_distance
_geom_bond_site_symmetry_2
_ccdc_geom_bond_type
H0 C3 0.931 . S
H1 C6 0.928 . S
H2 C8 0.930 . S
C3 H0 0.931 . S
C3 C4 1.413 . S
C3 C5 1.360 . S
C4 C3 1.413 . S
C4 C8 1.429 . S
C5 C3 1.360 . S
C5 C6 1.372 . S
C6 H1 0.928 . S
C6 C5 1.372 . S
C6 C7 1.404 . S
C7 C6 1.404 . S
C7 C8 1.391 . S
C8 H2 0.930 . S
C8 C4 1.429 . S
C8 C7 1.391 . S
H9 C12 0.931 . S
H10 C15 0.928 . S
H11 C17 0.930 . S
C12 H9 0.931 . S
C12 C13 1.413 . S
C12 C14 1.360 . S
C13 C12 1.413 . S
C13 C17 1.429 . S
C14 C12 1.360 . S
C14 C15 1.372 . S
C15 H10 0.928 . S
C15 C14 1.372 . S
C15 C16 1.404 . S
C16 C15 1.404 . S
C16 C17 1.391 . S
C17 H11 0.930 . S
C17 C13 1.429 . S
C17 C16 1.391 . S
H18 C21 0.931 . S
H19 C24 0.928 . S
H20 C26 0.930 . S
C21 H18 0.931 . S
C21 C22 1.413 . S
C21 C23 1.360 . S
C22 C21 1.413 . S
C22 C26 1.429 . S
C23 C21 1.360 . S
C23 C24 1.372 . S
C24 H19 0.928 . S
C24 C23 1.372 . S
C24 C25 1.404 . S
C25 C24 1.404 . S
C25 C26 1.391 . S
C26 H20 0.930 . S
C26 C22 1.429 . S
C26 C25 1.391 . S
H27 C30 0.931 . S
H28 C33 0.928 . S
H29 C35 0.930 . S
C30 H27 0.931 . S
C30 C31 1.413 . S
C30 C32 1.360 . S
C31 C30 1.413 . S
C31 C35 1.429 . S
C32 C30 1.360 . S
C32 C33 1.372 . S
C33 H28 0.928 . S
C33 C32 1.372 . S
C33 C34 1.404 . S
C34 C33 1.404 . S
C34 C35 1.391 . S
C35 H29 0.930 . S
C35 C31 1.429 . S
C35 C34 1.391 . S
H36 C39 0.931 . S
H37 C42 0.928 . S
H38 C44 0.930 . S
C39 H36 0.931 . S
C39 C40 1.413 . S
C39 C41 1.360 . S
C40 C39 1.413 . S
C40 C44 1.429 . S
C41 C39 1.360 . S
C41 C42 1.372 . S
C42 H37 0.928 . S
C42 C41 1.372 . S
C42 C43 1.404 . S
C43 C42 1.404 . S
C43 C44 1.391 . S
C44 H38 0.930 . S
C44 C40 1.429 . S
C44 C43 1.391 . S
H45 C48 0.931 . S
H46 C51 0.928 . S
H47 C53 0.930 . S
C48 H45 0.931 . S
C48 C49 1.413 . S
C48 C50 1.360 . S
C49 C48 1.413 . S
C49 C53 1.429 . S
C50 C48 1.360 . S
C50 C51 1.372 . S
C51 H46 0.928 . S
C51 C50 1.372 . S
C51 C52 1.404 . S
C52 C51 1.404 . S
C52 C53 1.391 . S
C53 H47 0.930 . S
C53 C49 1.429 . S
C53 C52 1.391 . S
H54 C57 0.931 . S
H55 C60 0.928 . S
H56 C62 0.930 . S
C57 H54 0.931 . S
C57 C58 1.413 . S
C57 C59 1.360 . S
C58 C57 1.413 . S
C58 C62 1.429 . S
C59 C57 1.360 . S
C59 C60 1.372 . S
C60 H55 0.928 . S
C60 C59 1.372 . S
C60 C61 1.404 . S
C61 C60 1.404 . S
C61 C62 1.391 . S
C62 H56 0.930 . S
C62 C58 1.429 . S
C62 C61 1.391 . S
H63 C66 0.931 . S
H64 C69 0.928 . S
H65 C71 0.930 . S
C66 H63 0.931 . S
C66 C67 1.413 . S
C66 C68 1.360 . S
C67 C66 1.413 . S
C67 C71 1.429 . S
C68 C66 1.360 . S
C68 C69 1.372 . S
C69 H64 0.928 . S
C69 C68 1.372 . S
C69 C70 1.404 . S
C70 C69 1.404 . S
C70 C71 1.391 . S
C71 H65 0.930 . S
C71 C67 1.429 . S
C71 C70 1.391 . S
Ho72 C75 2.811 . S
Ho72 O92 2.322 . S
Ho72 O94 2.378 . S
Ho72 O95 2.524 . S
Ho72 O96 2.381 1_545 S
Ho72 O97 2.669 1_545 S
Ho72 O99 2.346 1_445 S
Ho72 O103 2.305 1_455 S
Ho73 C84 2.811 . S
Ho73 O93 2.346 1_665 S
Ho73 O97 2.305 1_655 S
Ho73 O98 2.322 . S
Ho73 O100 2.378 . S
Ho73 O101 2.524 . S
Ho73 O102 2.381 1_565 S
Ho73 O103 2.669 1_565 S
C74 O92 1.259 . S
C74 O93 1.268 . S
C75 Ho72 2.811 . S
C75 C76 1.488 . S
C75 O94 1.215 . S
C75 O95 1.289 . S
C76 C75 1.488 . S
C76 C77 1.348 . S
C76 C81 1.413 . S
C77 C76 1.348 . S
C77 C78 1.442 . S
C77 H104 0.930 . S
C78 C77 1.442 . S
C78 C79 1.381 . S
C78 H105 0.931 . S
C79 C78 1.381 . S
C79 C80 1.321 . S
C80 C79 1.321 . S
C80 C81 1.403 . S
C80 H106 0.934 . S
C81 C76 1.413 . S
C81 C80 1.403 . S
C81 H107 0.930 . S
C82 O96 1.275 . S
C82 O97 1.256 . S
C83 O98 1.259 . S
C83 O99 1.268 . S
C84 Ho73 2.811 . S
C84 C85 1.488 . S
C84 O100 1.215 . S
C84 O101 1.289 . S
C85 C84 1.488 . S
C85 C86 1.348 . S
C85 C90 1.413 . S
C86 C85 1.348 . S
C86 C87 1.442 . S
C86 H108 0.930 . S
C87 C86 1.442 . S
C87 C88 1.381 . S
C87 H109 0.931 . S
C88 C87 1.381 . S
C88 C89 1.321 . S
C89 C88 1.321 . S
C89 C90 1.403 . S
C89 H110 0.934 . S
C90 C85 1.413 . S
C90 C89 1.403 . S
C90 H111 0.930 . S
C91 O102 1.275 . S
C91 O103 1.256 . S
O92 Ho72 2.322 . S
O92 C74 1.259 . S
O93 Ho73 2.346 1_445 S
O93 C74 1.268 . S
O94 Ho72 2.378 . S
O94 C75 1.215 . S
O95 Ho72 2.524 . S
O95 C75 1.289 . S
O96 Ho72 2.381 1_565 S
O96 C82 1.275 . S
O97 Ho72 2.669 1_565 S
O97 Ho73 2.305 1_455 S
O97 C82 1.256 . S
O98 Ho73 2.322 . S
O98 C83 1.259 . S
O99 Ho72 2.346 1_665 S
O99 C83 1.268 . S
O100 Ho73 2.378 . S
O100 C84 1.215 . S
O101 Ho73 2.524 . S
O101 C84 1.289 . S
O102 Ho73 2.381 1_545 S
O102 C91 1.275 . S
O103 Ho72 2.305 1_655 S
O103 Ho73 2.669 1_545 S
O103 C91 1.256 . S
H104 C77 0.930 . S
H105 C78 0.931 . S
H106 C80 0.934 . S
H107 C81 0.930 . S
H108 C86 0.930 . S
H109 C87 0.931 . S
H110 C89 0.934 . S
H111 C90 0.930 . S
Ho112 C115 2.812 1_565 S
Ho112 O132 2.323 1_565 S
Ho112 O134 2.378 1_565 S
Ho112 O135 2.526 1_565 S
Ho112 O136 2.378 . S
Ho112 O137 2.668 . S
Ho112 O139 2.344 1_554 S
Ho112 O143 2.307 1_564 S
Ho113 C124 2.811 1_545 S
Ho113 O133 2.346 1_556 S
Ho113 O137 2.305 1_546 S
Ho113 O138 2.322 1_545 S
Ho113 O140 2.378 1_545 S
Ho113 O141 2.524 1_545 S
Ho113 O142 2.381 . S
Ho113 O143 2.669 . S
C114 O132 1.259 . S
C114 O133 1.268 . S
C115 Ho112 2.812 1_545 S
C115 C116 1.488 . S
C115 O134 1.215 . S
C115 O135 1.289 . S
C116 C115 1.488 . S
C116 C117 1.348 . S
C116 C121 1.413 . S
C117 C116 1.348 . S
C117 C118 1.442 . S
C117 H144 0.930 . S
C118 C117 1.442 . S
C118 C119 1.381 . S
C118 H145 0.931 . S
C119 C118 1.381 . S
C119 C120 1.321 . S
C120 C119 1.321 . S
C120 C121 1.403 . S
C120 H146 0.934 . S
C121 C116 1.413 . S
C121 C120 1.403 . S
C121 H147 0.930 . S
C122 O136 1.275 . S
C122 O137 1.256 . S
C123 O138 1.259 . S
C123 O139 1.268 . S
C124 Ho113 2.811 1_565 S
C124 C125 1.488 . S
C124 O140 1.215 . S
C124 O141 1.289 . S
C125 C124 1.488 . S
C125 C126 1.348 . S
C125 C130 1.413 . S
C126 C125 1.348 . S
C126 C127 1.442 . S
C126 H148 0.930 . S
C127 C126 1.442 . S
C127 C128 1.381 . S
C127 H149 0.931 . S
C128 C127 1.381 . S
C128 C129 1.321 . S
C129 C128 1.321 . S
C129 C130 1.403 . S
C129 H150 0.934 . S
C130 C125 1.413 . S
C130 C129 1.403 . S
C130 H151 0.930 . S
C131 O142 1.275 . S
C131 O143 1.256 . S
O132 Ho112 2.323 1_545 S
O132 C114 1.259 . S
O133 Ho113 2.346 1_554 S
O133 C114 1.268 . S
O134 Ho112 2.378 1_545 S
O134 C115 1.215 . S
O135 Ho112 2.526 1_545 S
O135 C115 1.289 . S
O136 Ho112 2.378 . S
O136 C122 1.275 . S
O137 Ho112 2.668 . S
O137 Ho113 2.305 1_564 S
O137 C122 1.256 . S
O138 Ho113 2.322 1_565 S
O138 C123 1.259 . S
O139 Ho112 2.344 1_556 S
O139 C123 1.268 . S
O140 Ho113 2.378 1_565 S
O140 C124 1.215 . S
O141 Ho113 2.524 1_565 S
O141 C124 1.289 . S
O142 Ho113 2.381 . S
O142 C131 1.275 . S
O143 Ho112 2.307 1_546 S
O143 Ho113 2.669 . S
O143 C131 1.256 . S
H144 C117 0.930 . S
H145 C118 0.931 . S
H146 C120 0.934 . S
H147 C121 0.930 . S
H148 C126 0.930 . S
H149 C127 0.931 . S
H150 C129 0.934 . S
H151 C130 0.930 . S
Ho152 C155 2.811 . S
Ho152 O172 2.322 . S
Ho152 O174 2.378 . S
Ho152 O175 2.524 . S
Ho152 O176 2.381 . S
Ho152 O177 2.669 . S
Ho152 O179 2.346 . S
Ho152 O183 2.305 . S
Ho153 C164 2.811 . S
Ho153 O173 2.346 . S
Ho153 O177 2.305 . S
Ho153 O178 2.322 . S
Ho153 O180 2.378 . S
Ho153 O181 2.524 . S
Ho153 O182 2.381 . S
Ho153 O183 2.669 . S
C154 O172 1.259 . S
C154 O173 1.268 . S
C155 Ho152 2.811 . S
C155 C156 1.488 . S
C155 O174 1.215 . S
C155 O175 1.289 . S
C156 C155 1.488 . S
C156 C157 1.348 . S
C156 C161 1.413 . S
C157 C156 1.348 . S
C157 C158 1.442 . S
C157 H184 0.930 . S
C158 C157 1.442 . S
C158 C159 1.381 . S
C158 H185 0.931 . S
C159 C158 1.381 . S
C159 C160 1.321 . S
C160 C159 1.321 . S
C160 C161 1.403 . S
C160 H186 0.934 . S
C161 C156 1.413 . S
C161 C160 1.403 . S
C161 H187 0.930 . S
C162 O176 1.275 . S
C162 O177 1.256 . S
C163 O178 1.259 . S
C163 O179 1.268 . S
C164 Ho153 2.811 . S
C164 C165 1.488 . S
C164 O180 1.215 . S
C164 O181 1.289 . S
C165 C164 1.488 . S
C165 C166 1.348 . S
C165 C170 1.413 . S
C166 C165 1.348 . S
C166 C167 1.442 . S
C166 H188 0.930 . S
C167 C166 1.442 . S
C167 C168 1.381 . S
C167 H189 0.931 . S
C168 C167 1.381 . S
C168 C169 1.321 . S
C169 C168 1.321 . S
C169 C170 1.403 . S
C169 H190 0.934 . S
C170 C165 1.413 . S
C170 C169 1.403 . S
C170 H191 0.930 . S
C171 O182 1.275 . S
C171 O183 1.256 . S
O172 Ho152 2.322 . S
O172 C154 1.259 . S
O173 Ho153 2.346 . S
O173 C154 1.268 . S
O174 Ho152 2.378 . S
O174 C155 1.215 . S
O175 Ho152 2.524 . S
O175 C155 1.289 . S
O176 Ho152 2.381 . S
O176 C162 1.275 . S
O177 Ho152 2.669 . S
O177 Ho153 2.305 . S
O177 C162 1.256 . S
O178 Ho153 2.322 . S
O178 C163 1.259 . S
O179 Ho152 2.346 . S
O179 C163 1.268 . S
O180 Ho153 2.378 . S
O180 C164 1.215 . S
O181 Ho153 2.524 . S
O181 C164 1.289 . S
O182 Ho153 2.381 . S
O182 C171 1.275 . S
O183 Ho152 2.305 . S
O183 Ho153 2.669 . S
O183 C171 1.256 . S
H184 C157 0.930 . S
H185 C158 0.931 . S
H186 C160 0.934 . S
H187 C161 0.930 . S
H188 C166 0.930 . S
H189 C167 0.931 . S
H190 C169 0.934 . S
H191 C170 0.930 . S
Ho192 C195 2.811 . S
Ho192 O212 2.322 . S
Ho192 O214 2.378 . S
Ho192 O215 2.524 . S
Ho192 O216 2.381 1_455 S
Ho192 O217 2.669 1_455 S
Ho192 O219 2.346 1_454 S
Ho192 O223 2.305 1_554 S
Ho193 C204 2.811 . S
Ho193 O213 2.346 1_656 S
Ho193 O217 2.305 1_556 S
Ho193 O218 2.322 . S
Ho193 O220 2.378 . S
Ho193 O221 2.524 . S
Ho193 O222 2.381 1_655 S
Ho193 O223 2.669 1_655 S
C194 O212 1.259 . S
C194 O213 1.268 . S
C195 Ho192 2.811 . S
C195 C196 1.488 . S
C195 O214 1.215 . S
C195 O215 1.289 . S
C196 C195 1.488 . S
C196 C197 1.348 . S
C196 C201 1.413 . S
C197 C196 1.348 . S
C197 C198 1.442 . S
C197 H224 0.930 . S
C198 C197 1.442 . S
C198 C199 1.381 . S
C198 H225 0.931 . S
C199 C198 1.381 . S
C199 C200 1.321 . S
C200 C199 1.321 . S
C200 C201 1.403 . S
C200 H226 0.934 . S
C201 C196 1.413 . S
C201 C200 1.403 . S
C201 H227 0.930 . S
C202 O216 1.275 . S
C202 O217 1.256 . S
C203 O218 1.259 . S
C203 O219 1.268 . S
C204 Ho193 2.811 . S
C204 C205 1.488 . S
C204 O220 1.215 . S
C204 O221 1.289 . S
C205 C204 1.488 . S
C205 C206 1.348 . S
C205 C210 1.413 . S
C206 C205 1.348 . S
C206 C207 1.442 . S
C206 H228 0.930 . S
C207 C206 1.442 . S
C207 C208 1.381 . S
C207 H229 0.931 . S
C208 C207 1.381 . S
C208 C209 1.321 . S
C209 C208 1.321 . S
C209 C210 1.403 . S
C209 H230 0.934 . S
C210 C205 1.413 . S
C210 C209 1.403 . S
C210 H231 0.930 . S
C211 O222 1.275 . S
C211 O223 1.256 . S
O212 Ho192 2.322 . S
O212 C194 1.259 . S
O213 Ho193 2.346 1_454 S
O213 C194 1.268 . S
O214 Ho192 2.378 . S
O214 C195 1.215 . S
O215 Ho192 2.524 . S
O215 C195 1.289 . S
O216 Ho192 2.381 1_655 S
O216 C202 1.275 . S
O217 Ho192 2.669 1_655 S
O217 Ho193 2.305 1_554 S
O217 C202 1.256 . S
O218 Ho193 2.322 . S
O218 C203 1.259 . S
O219 Ho192 2.346 1_656 S
O219 C203 1.268 . S
O220 Ho193 2.378 . S
O220 C204 1.215 . S
O221 Ho193 2.524 . S
O221 C204 1.289 . S
O222 Ho193 2.381 1_455 S
O222 C211 1.275 . S
O223 Ho192 2.305 1_556 S
O223 Ho193 2.669 1_455 S
O223 C211 1.256 . S
H224 C197 0.930 . S
H225 C198 0.931 . S
H226 C200 0.934 . S
H227 C201 0.930 . S
H228 C206 0.930 . S
H229 C207 0.931 . S
H230 C209 0.934 . S
H231 C210 0.930 . S
C232 C233 1.349 . S
C232 C234 1.327 . S
C232 H257 0.950 . S
C233 C232 1.349 . S
C233 C249 1.349 . S
C234 C232 1.327 . S
C234 C253 1.429 . S
C234 H258 0.950 . S
C235 C252 1.574 . S
C235 C254 1.368 . S
C235 H259 0.949 . S
H236 C240 0.949 . S
C237 C238 1.349 . S
C237 C239 1.327 . S
C237 H260 0.950 . S
C238 C237 1.349 . S
C238 C250 1.349 . S
C239 C237 1.327 . S
C239 C255 1.429 . S
C239 H261 0.950 . S
C240 H236 0.949 . S
C240 C248 1.574 . S
C240 C256 1.368 . S
H241 C249 0.950 . S
H242 C247 0.950 . S
H243 C248 0.949 . S
H244 C250 0.950 . S
H245 C251 0.950 . S
H246 C252 0.949 . S
C247 H242 0.950 . S
C247 C249 1.327 . S
C247 C253 1.429 . S
C248 C240 1.574 . S
C248 H243 0.949 . S
C248 C254 1.368 . S
C249 C233 1.349 . S
C249 H241 0.950 . S
C249 C247 1.327 . S
C250 C238 1.349 . S
C250 H244 0.950 . S
C250 C251 1.327 . S
C251 H245 0.950 . S
C251 C250 1.327 . S
C251 C255 1.429 . S
C252 C235 1.574 . S
C252 H246 0.949 . S
C252 C256 1.368 . S
C253 C234 1.429 . S
C253 C247 1.429 . S
C253 C254 1.523 . S
C254 C235 1.368 . S
C254 C248 1.368 . S
C254 C253 1.523 . S
C255 C239 1.429 . S
C255 C251 1.429 . S
C255 C256 1.523 . S
C256 C240 1.368 . S
C256 C252 1.368 . S
C256 C255 1.523 . S
H257 C232 0.950 . S
H258 C234 0.950 . S
H259 C235 0.949 . S
H260 C237 0.950 . S
H261 C239 0.950 . S
C262 C263 1.349 . S
C262 C264 1.327 . S
C262 H287 0.950 . S
C263 C262 1.349 . S
C263 C279 1.349 . S
C264 C262 1.327 . S
C264 C283 1.429 . S
C264 H288 0.950 . S
C265 C282 1.574 . S
C265 C284 1.368 . S
C265 H289 0.949 . S
H266 C270 0.949 . S
C267 C268 1.349 . S
C267 C269 1.327 . S
C267 H290 0.950 . S
C268 C267 1.349 . S
C268 C280 1.349 . S
C269 C267 1.327 . S
C269 C285 1.429 . S
C269 H291 0.950 . S
C270 H266 0.949 . S
C270 C278 1.574 . S
C270 C286 1.368 . S
H271 C279 0.950 . S
H272 C277 0.950 . S
H273 C278 0.949 . S
H274 C280 0.950 . S
H275 C281 0.950 . S
H276 C282 0.949 . S
C277 H272 0.950 . S
C277 C279 1.327 . S
C277 C283 1.429 . S
C278 C270 1.574 . S
C278 H273 0.949 . S
C278 C284 1.368 . S
C279 C263 1.349 . S
C279 H271 0.950 . S
C279 C277 1.327 . S
C280 C268 1.349 . S
C280 H274 0.950 . S
C280 C281 1.327 . S
C281 H275 0.950 . S
C281 C280 1.327 . S
C281 C285 1.429 . S
C282 C265 1.574 . S
C282 H276 0.949 . S
C282 C286 1.368 . S
C283 C264 1.429 . S
C283 C277 1.429 . S
C283 C284 1.523 . S
C284 C265 1.368 . S
C284 C278 1.368 . S
C284 C283 1.523 . S
C285 C269 1.429 . S
C285 C281 1.429 . S
C285 C286 1.523 . S
C286 C270 1.368 . S
C286 C282 1.368 . S
C286 C285 1.523 . S
H287 C262 0.950 . S
H288 C264 0.950 . S
H289 C265 0.949 . S
H290 C267 0.950 . S
H291 C269 0.950 . S
C292 C293 1.349 . S
C292 C294 1.327 . S
C292 H317 0.950 . S
C293 C292 1.349 . S
C293 C309 1.349 . S
C294 C292 1.327 . S
C294 C313 1.429 . S
C294 H318 0.950 . S
C295 C312 1.574 . S
C295 C314 1.368 . S
C295 H319 0.949 . S
H296 C300 0.949 . S
C297 C298 1.349 . S
C297 C299 1.327 . S
C297 H320 0.950 . S
C298 C297 1.349 . S
C298 C310 1.349 . S
C299 C297 1.327 . S
C299 C315 1.429 . S
C299 H321 0.950 . S
C300 H296 0.949 . S
C300 C308 1.574 . S
C300 C316 1.368 . S
H301 C309 0.950 . S
H302 C307 0.950 . S
H303 C308 0.949 . S
H304 C310 0.950 . S
H305 C311 0.950 . S
H306 C312 0.949 . S
C307 H302 0.950 . S
C307 C309 1.327 . S
C307 C313 1.429 . S
C308 C300 1.574 . S
C308 H303 0.949 . S
C308 C314 1.368 . S
C309 C293 1.349 . S
C309 H301 0.950 . S
C309 C307 1.327 . S
C310 C298 1.349 . S
C310 H304 0.950 . S
C310 C311 1.327 . S
C311 H305 0.950 . S
C311 C310 1.327 . S
C311 C315 1.429 . S
C312 C295 1.574 . S
C312 H306 0.949 . S
C312 C316 1.368 . S
C313 C294 1.429 . S
C313 C307 1.429 . S
C313 C314 1.523 . S
C314 C295 1.368 . S
C314 C308 1.368 . S
C314 C313 1.523 . S
C315 C299 1.429 . S
C315 C311 1.429 . S
C315 C316 1.523 . S
C316 C300 1.368 . S
C316 C312 1.368 . S
C316 C315 1.523 . S
H317 C292 0.950 . S
H318 C294 0.950 . S
H319 C295 0.949 . S
H320 C297 0.950 . S
H321 C299 0.950 . S
C322 C323 1.349 . S
C322 C324 1.327 . S
C322 H347 0.950 . S
C323 C322 1.349 . S
C323 C339 1.349 . S
C324 C322 1.327 . S
C324 C343 1.429 . S
C324 H348 0.950 . S
C325 C342 1.574 . S
C325 C344 1.368 . S
C325 H349 0.949 . S
H326 C330 0.949 . S
C327 C328 1.349 . S
C327 C329 1.327 . S
C327 H350 0.950 . S
C328 C327 1.349 . S
C328 C340 1.349 . S
C329 C327 1.327 . S
C329 C345 1.429 . S
C329 H351 0.950 . S
C330 H326 0.949 . S
C330 C338 1.574 . S
C330 C346 1.368 . S
H331 C339 0.950 . S
H332 C337 0.950 . S
H333 C338 0.949 . S
H334 C340 0.950 . S
H335 C341 0.950 . S
H336 C342 0.949 . S
C337 H332 0.950 . S
C337 C339 1.327 . S
C337 C343 1.429 . S
C338 C330 1.574 . S
C338 H333 0.949 . S
C338 C344 1.368 . S
C339 C323 1.349 . S
C339 H331 0.950 . S
C339 C337 1.327 . S
C340 C328 1.349 . S
C340 H334 0.950 . S
C340 C341 1.327 . S
C341 H335 0.950 . S
C341 C340 1.327 . S
C341 C345 1.429 . S
C342 C325 1.574 . S
C342 H336 0.949 . S
C342 C346 1.368 . S
C343 C324 1.429 . S
C343 C337 1.429 . S
C343 C344 1.523 . S
C344 C325 1.368 . S
C344 C338 1.368 . S
C344 C343 1.523 . S
C345 C329 1.429 . S
C345 C341 1.429 . S
C345 C346 1.523 . S
C346 C330 1.368 . S
C346 C342 1.368 . S
C346 C345 1.523 . S
H347 C322 0.950 . S
H348 C324 0.950 . S
H349 C325 0.949 . S
H350 C327 0.950 . S
H351 C329 0.950 . S
C352 C353 1.349 . S
C352 C354 1.327 . S
C352 H377 0.950 . S
C353 C352 1.349 . S
C353 C369 1.349 . S
C354 C352 1.327 . S
C354 C373 1.429 . S
C354 H378 0.950 . S
C355 C372 1.574 . S
C355 C374 1.368 . S
C355 H379 0.949 . S
H356 C360 0.949 . S
C357 C358 1.349 . S
C357 C359 1.327 . S
C357 H380 0.950 . S
C358 C357 1.349 . S
C358 C370 1.349 . S
C359 C357 1.327 . S
C359 C375 1.429 . S
C359 H381 0.950 . S
C360 H356 0.949 . S
C360 C368 1.574 . S
C360 C376 1.368 . S
H361 C369 0.950 . S
H362 C367 0.950 . S
H363 C368 0.949 . S
H364 C370 0.950 . S
H365 C371 0.950 . S
H366 C372 0.949 . S
C367 H362 0.950 . S
C367 C369 1.327 . S
C367 C373 1.429 . S
C368 C360 1.574 . S
C368 H363 0.949 . S
C368 C374 1.368 . S
C369 C353 1.349 . S
C369 H361 0.950 . S
C369 C367 1.327 . S
C370 C358 1.349 . S
C370 H364 0.950 . S
C370 C371 1.327 . S
C371 H365 0.950 . S
C371 C370 1.327 . S
C371 C375 1.429 . S
C372 C355 1.574 . S
C372 H366 0.949 . S
C372 C376 1.368 . S
C373 C354 1.429 . S
C373 C367 1.429 . S
C373 C374 1.523 . S
C374 C355 1.368 . S
C374 C368 1.368 . S
C374 C373 1.523 . S
C375 C359 1.429 . S
C375 C371 1.429 . S
C375 C376 1.523 . S
C376 C360 1.368 . S
C376 C372 1.368 . S
C376 C375 1.523 . S
H377 C352 0.950 . S
H378 C354 0.950 . S
H379 C355 0.949 . S
H380 C357 0.950 . S
H381 C359 0.950 . S
C382 C383 1.349 . S
C382 C384 1.327 . S
C382 H407 0.950 . S
C383 C382 1.349 . S
C383 C399 1.349 . S
C384 C382 1.327 . S
C384 C403 1.429 . S
C384 H408 0.950 . S
C385 C402 1.574 . S
C385 C404 1.368 . S
C385 H409 0.949 . S
H386 C390 0.949 . S
C387 C388 1.349 . S
C387 C389 1.327 . S
C387 H410 0.950 . S
C388 C387 1.349 . S
C388 C400 1.349 . S
C389 C387 1.327 . S
C389 C405 1.429 . S
C389 H411 0.950 . S
C390 H386 0.949 . S
C390 C398 1.574 . S
C390 C406 1.368 . S
H391 C399 0.950 . S
H392 C397 0.950 . S
H393 C398 0.949 . S
H394 C400 0.950 . S
H395 C401 0.950 . S
H396 C402 0.949 . S
C397 H392 0.950 . S
C397 C399 1.327 . S
C397 C403 1.429 . S
C398 C390 1.574 . S
C398 H393 0.949 . S
C398 C404 1.368 . S
C399 C383 1.349 . S
C399 H391 0.950 . S
C399 C397 1.327 . S
C400 C388 1.349 . S
C400 H394 0.950 . S
C400 C401 1.327 . S
C401 H395 0.950 . S
C401 C400 1.327 . S
C401 C405 1.429 . S
C402 C385 1.574 . S
C402 H396 0.949 . S
C402 C406 1.368 . S
C403 C384 1.429 . S
C403 C397 1.429 . S
C403 C404 1.523 . S
C404 C385 1.368 . S
C404 C398 1.368 . S
C404 C403 1.523 . S
C405 C389 1.429 . S
C405 C401 1.429 . S
C405 C406 1.523 . S
C406 C390 1.368 . S
C406 C402 1.368 . S
C406 C405 1.523 . S
H407 C382 0.950 . S
H408 C384 0.950 . S
H409 C385 0.949 . S
H410 C387 0.950 . S
H411 C389 0.950 . S
C412 C413 1.349 . S
C412 C414 1.327 . S
C412 H437 0.950 . S
C413 C412 1.349 . S
C413 C429 1.349 . S
C414 C412 1.327 . S
C414 C433 1.429 . S
C414 H438 0.950 . S
C415 C432 1.574 . S
C415 C434 1.368 . S
C415 H439 0.949 . S
H416 C420 0.949 . S
C417 C418 1.349 . S
C417 C419 1.327 . S
C417 H440 0.950 . S
C418 C417 1.349 . S
C418 C430 1.349 . S
C419 C417 1.327 . S
C419 C435 1.429 . S
C419 H441 0.950 . S
C420 H416 0.949 . S
C420 C428 1.574 . S
C420 C436 1.368 . S
H421 C429 0.950 . S
H422 C427 0.950 . S
H423 C428 0.949 . S
H424 C430 0.950 . S
H425 C431 0.950 . S
H426 C432 0.949 . S
C427 H422 0.950 . S
C427 C429 1.327 . S
C427 C433 1.429 . S
C428 C420 1.574 . S
C428 H423 0.949 . S
C428 C434 1.368 . S
C429 C413 1.349 . S
C429 H421 0.950 . S
C429 C427 1.327 . S
C430 C418 1.349 . S
C430 H424 0.950 . S
C430 C431 1.327 . S
C431 H425 0.950 . S
C431 C430 1.327 . S
C431 C435 1.429 . S
C432 C415 1.574 . S
C432 H426 0.949 . S
C432 C436 1.368 . S
C433 C414 1.429 . S
C433 C427 1.429 . S
C433 C434 1.523 . S
C434 C415 1.368 . S
C434 C428 1.368 . S
C434 C433 1.523 . S
C435 C419 1.429 . S
C435 C431 1.429 . S
C435 C436 1.523 . S
C436 C420 1.368 . S
C436 C432 1.368 . S
C436 C435 1.523 . S
H437 C412 0.950 . S
H438 C414 0.950 . S
H439 C415 0.949 . S
H440 C417 0.950 . S
H441 C419 0.950 . S
C442 C443 1.349 . S
C442 C444 1.327 . S
C442 H467 0.950 . S
C443 C442 1.349 . S
C443 C459 1.349 . S
C444 C442 1.327 . S
C444 C463 1.429 . S
C444 H468 0.950 . S
C445 C462 1.574 . S
C445 C464 1.368 . S
C445 H469 0.949 . S
H446 C450 0.949 . S
C447 C448 1.349 . S
C447 C449 1.327 . S
C447 H470 0.950 . S
C448 C447 1.349 . S
C448 C460 1.349 . S
C449 C447 1.327 . S
C449 C465 1.429 . S
C449 H471 0.950 . S
C450 H446 0.949 . S
C450 C458 1.574 . S
C450 C466 1.368 . S
H451 C459 0.950 . S
H452 C457 0.950 . S
H453 C458 0.949 . S
H454 C460 0.950 . S
H455 C461 0.950 . S
H456 C462 0.949 . S
C457 H452 0.950 . S
C457 C459 1.327 . S
C457 C463 1.429 . S
C458 C450 1.574 . S
C458 H453 0.949 . S
C458 C464 1.368 . S
C459 C443 1.349 . S
C459 H451 0.950 . S
C459 C457 1.327 . S
C460 C448 1.349 . S
C460 H454 0.950 . S
C460 C461 1.327 . S
C461 H455 0.950 . S
C461 C460 1.327 . S
C461 C465 1.429 . S
C462 C445 1.574 . S
C462 H456 0.949 . S
C462 C466 1.368 . S
C463 C444 1.429 . S
C463 C457 1.429 . S
C463 C464 1.523 . S
C464 C445 1.368 . S
C464 C458 1.368 . S
C464 C463 1.523 . S
C465 C449 1.429 . S
C465 C461 1.429 . S
C465 C466 1.523 . S
C466 C450 1.368 . S
C466 C462 1.368 . S
C466 C465 1.523 . S
H467 C442 0.950 . S
H468 C444 0.950 . S
H469 C445 0.949 . S
H470 C447 0.950 . S
H471 C449 0.950 . S
C472 C473 1.349 . S
C472 C474 1.327 . S
C472 H497 0.950 . S
C473 C472 1.349 . S
C473 C489 1.349 . S
C474 C472 1.327 . S
C474 C493 1.429 . S
C474 H498 0.950 . S
C475 C492 1.574 . S
C475 C494 1.368 . S
C475 H499 0.949 . S
H476 C480 0.949 . S
C477 C478 1.349 . S
C477 C479 1.327 . S
C477 H500 0.950 . S
C478 C477 1.349 . S
C478 C490 1.349 . S
C479 C477 1.327 . S
C479 C495 1.429 . S
C479 H501 0.950 . S
C480 H476 0.949 . S
C480 C488 1.574 . S
C480 C496 1.368 . S
H481 C489 0.950 . S
H482 C487 0.950 . S
H483 C488 0.949 . S
H484 C490 0.950 . S
H485 C491 0.950 . S
H486 C492 0.949 . S
C487 H482 0.950 . S
C487 C489 1.327 . S
C487 C493 1.429 . S
C488 C480 1.574 . S
C488 H483 0.949 . S
C488 C494 1.368 . S
C489 C473 1.349 . S
C489 H481 0.950 . S
C489 C487 1.327 . S
C490 C478 1.349 . S
C490 H484 0.950 . S
C490 C491 1.327 . S
C491 H485 0.950 . S
C491 C490 1.327 . S
C491 C495 1.429 . S
C492 C475 1.574 . S
C492 H486 0.949 . S
C492 C496 1.368 . S
C493 C474 1.429 . S
C493 C487 1.429 . S
C493 C494 1.523 . S
C494 C475 1.368 . S
C494 C488 1.368 . S
C494 C493 1.523 . S
C495 C479 1.429 . S
C495 C491 1.429 . S
C495 C496 1.523 . S
C496 C480 1.368 . S
C496 C492 1.368 . S
C496 C495 1.523 . S
H497 C472 0.950 . S
H498 C474 0.950 . S
H499 C475 0.949 . S
H500 C477 0.950 . S
H501 C479 0.950 . S
C502 C503 1.349 . S
C502 C504 1.327 . S
C502 H527 0.950 . S
C503 C502 1.349 . S
C503 C519 1.349 . S
C504 C502 1.327 . S
C504 C523 1.429 . S
C504 H528 0.950 . S
C505 C522 1.574 . S
C505 C524 1.368 . S
C505 H529 0.949 . S
H506 C510 0.949 . S
C507 C508 1.349 . S
C507 C509 1.327 . S
C507 H530 0.950 . S
C508 C507 1.349 . S
C508 C520 1.349 . S
C509 C507 1.327 . S
C509 C525 1.429 . S
C509 H531 0.950 . S
C510 H506 0.949 . S
C510 C518 1.574 . S
C510 C526 1.368 . S
H511 C519 0.950 . S
H512 C517 0.950 . S
H513 C518 0.949 . S
H514 C520 0.950 . S
H515 C521 0.950 . S
H516 C522 0.949 . S
C517 H512 0.950 . S
C517 C519 1.327 . S
C517 C523 1.429 . S
C518 C510 1.574 . S
C518 H513 0.949 . S
C518 C524 1.368 . S
C519 C503 1.349 . S
C519 H511 0.950 . S
C519 C517 1.327 . S
C520 C508 1.349 . S
C520 H514 0.950 . S
C520 C521 1.327 . S
C521 H515 0.950 . S
C521 C520 1.327 . S
C521 C525 1.429 . S
C522 C505 1.574 . S
C522 H516 0.949 . S
C522 C526 1.368 . S
C523 C504 1.429 . S
C523 C517 1.429 . S
C523 C524 1.523 . S
C524 C505 1.368 . S
C524 C518 1.368 . S
C524 C523 1.523 . S
C525 C509 1.429 . S
C525 C521 1.429 . S
C525 C526 1.523 . S
C526 C510 1.368 . S
C526 C522 1.368 . S
C526 C525 1.523 . S
H527 C502 0.950 . S
H528 C504 0.950 . S
H529 C505 0.949 . S
H530 C507 0.950 . S
H531 C509 0.950 . S
C532 C533 1.349 . S
C532 C534 1.327 . S
C532 H557 0.950 . S
C533 C532 1.349 . S
C533 C549 1.349 . S
C534 C532 1.327 . S
C534 C553 1.429 . S
C534 H558 0.950 . S
C535 C552 1.574 . S
C535 C554 1.368 . S
C535 H559 0.949 . S
H536 C540 0.949 . S
C537 C538 1.349 . S
C537 C539 1.327 . S
C537 H560 0.950 . S
C538 C537 1.349 . S
C538 C550 1.349 . S
C539 C537 1.327 . S
C539 C555 1.429 . S
C539 H561 0.950 . S
C540 H536 0.949 . S
C540 C548 1.574 . S
C540 C556 1.368 . S
H541 C549 0.950 . S
H542 C547 0.950 . S
H543 C548 0.949 . S
H544 C550 0.950 . S
H545 C551 0.950 . S
H546 C552 0.949 . S
C547 H542 0.950 . S
C547 C549 1.327 . S
C547 C553 1.429 . S
C548 C540 1.574 . S
C548 H543 0.949 . S
C548 C554 1.368 . S
C549 C533 1.349 . S
C549 H541 0.950 . S
C549 C547 1.327 . S
C550 C538 1.349 . S
C550 H544 0.950 . S
C550 C551 1.327 . S
C551 H545 0.950 . S
C551 C550 1.327 . S
C551 C555 1.429 . S
C552 C535 1.574 . S
C552 H546 0.949 . S
C552 C556 1.368 . S
C553 C534 1.429 . S
C553 C547 1.429 . S
C553 C554 1.523 . S
C554 C535 1.368 . S
C554 C548 1.368 . S
C554 C553 1.523 . S
C555 C539 1.429 . S
C555 C551 1.429 . S
C555 C556 1.523 . S
C556 C540 1.368 . S
C556 C552 1.368 . S
C556 C555 1.523 . S
H557 C532 0.950 . S
H558 C534 0.950 . S
H559 C535 0.949 . S
H560 C537 0.950 . S
H561 C539 0.950 . S
C562 C563 1.349 . S
C562 C564 1.327 . S
C562 H587 0.950 . S
C563 C562 1.349 . S
C563 C579 1.349 . S
C564 C562 1.327 . S
C564 C583 1.429 . S
C564 H588 0.950 . S
C565 C582 1.574 . S
C565 C584 1.368 . S
C565 H589 0.949 . S
H566 C570 0.949 . S
C567 C568 1.349 . S
C567 C569 1.327 . S
C567 H590 0.950 . S
C568 C567 1.349 . S
C568 C580 1.349 . S
C569 C567 1.327 . S
C569 C585 1.429 . S
C569 H591 0.950 . S
C570 H566 0.949 . S
C570 C578 1.574 . S
C570 C586 1.368 . S
H571 C579 0.950 . S
H572 C577 0.950 . S
H573 C578 0.949 . S
H574 C580 0.950 . S
H575 C581 0.950 . S
H576 C582 0.949 . S
C577 H572 0.950 . S
C577 C579 1.327 . S
C577 C583 1.429 . S
C578 C570 1.574 . S
C578 H573 0.949 . S
C578 C584 1.368 . S
C579 C563 1.349 . S
C579 H571 0.950 . S
C579 C577 1.327 . S
C580 C568 1.349 . S
C580 H574 0.950 . S
C580 C581 1.327 . S
C581 H575 0.950 . S
C581 C580 1.327 . S
C581 C585 1.429 . S
C582 C565 1.574 . S
C582 H576 0.949 . S
C582 C586 1.368 . S
C583 C564 1.429 . S
C583 C577 1.429 . S
C583 C584 1.523 . S
C584 C565 1.368 . S
C584 C578 1.368 . S
C584 C583 1.523 . S
C585 C569 1.429 . S
C585 C581 1.429 . S
C585 C586 1.523 . S
C586 C570 1.368 . S
C586 C582 1.368 . S
C586 C585 1.523 . S
H587 C562 0.950 . S
H588 C564 0.950 . S
H589 C565 0.949 . S
H590 C567 0.950 . S
H591 C569 0.950 . S
C592 C593 1.349 . S
C592 C594 1.327 . S
C592 H617 0.950 . S
C593 C592 1.349 . S
C593 C609 1.349 . S
C594 C592 1.327 . S
C594 C613 1.429 . S
C594 H618 0.950 . S
C595 C612 1.574 . S
C595 C614 1.368 . S
C595 H619 0.949 . S
H596 C600 0.949 . S
C597 C598 1.349 . S
C597 C599 1.327 . S
C597 H620 0.950 . S
C598 C597 1.349 . S
C598 C610 1.349 . S
C599 C597 1.327 . S
C599 C615 1.429 . S
C599 H621 0.950 . S
C600 H596 0.949 . S
C600 C608 1.574 . S
C600 C616 1.368 . S
H601 C609 0.950 . S
H602 C607 0.950 . S
H603 C608 0.949 . S
H604 C610 0.950 . S
H605 C611 0.950 . S
H606 C612 0.949 . S
C607 H602 0.950 . S
C607 C609 1.327 . S
C607 C613 1.429 . S
C608 C600 1.574 . S
C608 H603 0.949 . S
C608 C614 1.368 . S
C609 C593 1.349 . S
C609 H601 0.950 . S
C609 C607 1.327 . S
C610 C598 1.349 . S
C610 H604 0.950 . S
C610 C611 1.327 . S
C611 H605 0.950 . S
C611 C610 1.327 . S
C611 C615 1.429 . S
C612 C595 1.574 . S
C612 H606 0.949 . S
C612 C616 1.368 . S
C613 C594 1.429 . S
C613 C607 1.429 . S
C613 C614 1.523 . S
C614 C595 1.368 . S
C614 C608 1.368 . S
C614 C613 1.523 . S
C615 C599 1.429 . S
C615 C611 1.429 . S
C615 C616 1.523 . S
C616 C600 1.368 . S
C616 C612 1.368 . S
C616 C615 1.523 . S
H617 C592 0.950 . S
H618 C594 0.950 . S
H619 C595 0.949 . S
H620 C597 0.950 . S
H621 C599 0.950 . S
C622 C623 1.349 . S
C622 C624 1.327 . S
C622 H647 0.950 . S
C623 C622 1.349 . S
C623 C639 1.349 . S
C624 C622 1.327 . S
C624 C643 1.429 . S
C624 H648 0.950 . S
C625 C642 1.574 . S
C625 C644 1.368 . S
C625 H649 0.949 . S
H626 C630 0.949 . S
C627 C628 1.349 . S
C627 C629 1.327 . S
C627 H650 0.950 . S
C628 C627 1.349 . S
C628 C640 1.349 . S
C629 C627 1.327 . S
C629 C645 1.429 . S
C629 H651 0.950 . S
C630 H626 0.949 . S
C630 C638 1.574 . S
C630 C646 1.368 . S
H631 C639 0.950 . S
H632 C637 0.950 . S
H633 C638 0.949 . S
H634 C640 0.950 . S
H635 C641 0.950 . S
H636 C642 0.949 . S
C637 H632 0.950 . S
C637 C639 1.327 . S
C637 C643 1.429 . S
C638 C630 1.574 . S
C638 H633 0.949 . S
C638 C644 1.368 . S
C639 C623 1.349 . S
C639 H631 0.950 . S
C639 C637 1.327 . S
C640 C628 1.349 . S
C640 H634 0.950 . S
C640 C641 1.327 . S
C641 H635 0.950 . S
C641 C640 1.327 . S
C641 C645 1.429 . S
C642 C625 1.574 . S
C642 H636 0.949 . S
C642 C646 1.368 . S
C643 C624 1.429 . S
C643 C637 1.429 . S
C643 C644 1.523 . S
C644 C625 1.368 . S
C644 C638 1.368 . S
C644 C643 1.523 . S
C645 C629 1.429 . S
C645 C641 1.429 . S
C645 C646 1.523 . S
C646 C630 1.368 . S
C646 C642 1.368 . S
C646 C645 1.523 . S
H647 C622 0.950 . S
H648 C624 0.950 . S
H649 C625 0.949 . S
H650 C627 0.950 . S
H651 C629 0.950 . S
C652 C653 1.349 . S
C652 C654 1.327 . S
C652 H677 0.950 . S
C653 C652 1.349 . S
C653 C669 1.349 . S
C654 C652 1.327 . S
C654 C673 1.429 . S
C654 H678 0.950 . S
C655 C672 1.574 . S
C655 C674 1.368 . S
C655 H679 0.949 . S
H656 C660 0.949 . S
C657 C658 1.349 . S
C657 C659 1.327 . S
C657 H680 0.950 . S
C658 C657 1.349 . S
C658 C670 1.349 . S
C659 C657 1.327 . S
C659 C675 1.429 . S
C659 H681 0.950 . S
C660 H656 0.949 . S
C660 C668 1.574 . S
C660 C676 1.368 . S
H661 C669 0.950 . S
H662 C667 0.950 . S
H663 C668 0.949 . S
H664 C670 0.950 . S
H665 C671 0.950 . S
H666 C672 0.949 . S
C667 H662 0.950 . S
C667 C669 1.327 . S
C667 C673 1.429 . S
C668 C660 1.574 . S
C668 H663 0.949 . S
C668 C674 1.368 . S
C669 C653 1.349 . S
C669 H661 0.950 . S
C669 C667 1.327 . S
C670 C658 1.349 . S
C670 H664 0.950 . S
C670 C671 1.327 . S
C671 H665 0.950 . S
C671 C670 1.327 . S
C671 C675 1.429 . S
C672 C655 1.574 . S
C672 H666 0.949 . S
C672 C676 1.368 . S
C673 C654 1.429 . S
C673 C667 1.429 . S
C673 C674 1.523 . S
C674 C655 1.368 . S
C674 C668 1.368 . S
C674 C673 1.523 . S
C675 C659 1.429 . S
C675 C671 1.429 . S
C675 C676 1.523 . S
C676 C660 1.368 . S
C676 C672 1.368 . S
C676 C675 1.523 . S
H677 C652 0.950 . S
H678 C654 0.950 . S
H679 C655 0.949 . S
H680 C657 0.950 . S
H681 C659 0.950 . S
C682 C683 1.349 . S
C682 C684 1.327 . S
C682 H707 0.950 . S
C683 C682 1.349 . S
C683 C699 1.349 . S
C684 C682 1.327 . S
C684 C703 1.429 . S
C684 H708 0.950 . S
C685 C702 1.574 . S
C685 C704 1.368 . S
C685 H709 0.949 . S
H686 C690 0.949 . S
C687 C688 1.349 . S
C687 C689 1.327 . S
C687 H710 0.950 . S
C688 C687 1.349 . S
C688 C700 1.349 . S
C689 C687 1.327 . S
C689 C705 1.429 . S
C689 H711 0.950 . S
C690 H686 0.949 . S
C690 C698 1.574 . S
C690 C706 1.368 . S
H691 C699 0.950 . S
H692 C697 0.950 . S
H693 C698 0.949 . S
H694 C700 0.950 . S
H695 C701 0.950 . S
H696 C702 0.949 . S
C697 H692 0.950 . S
C697 C699 1.327 . S
C697 C703 1.429 . S
C698 C690 1.574 . S
C698 H693 0.949 . S
C698 C704 1.368 . S
C699 C683 1.349 . S
C699 H691 0.950 . S
C699 C697 1.327 . S
C700 C688 1.349 . S
C700 H694 0.950 . S
C700 C701 1.327 . S
C701 H695 0.950 . S
C701 C700 1.327 . S
C701 C705 1.429 . S
C702 C685 1.574 . S
C702 H696 0.949 . S
C702 C706 1.368 . S
C703 C684 1.429 . S
C703 C697 1.429 . S
C703 C704 1.523 . S
C704 C685 1.368 . S
C704 C698 1.368 . S
C704 C703 1.523 . S
C705 C689 1.429 . S
C705 C701 1.429 . S
C705 C706 1.523 . S
C706 C690 1.368 . S
C706 C702 1.368 . S
C706 C705 1.523 . S
H707 C682 0.950 . S
H708 C684 0.950 . S
H709 C685 0.949 . S
H710 C687 0.950 . S
H711 C689 0.950 . S
C712 C713 1.349 . S
C712 C714 1.327 . S
C712 H737 0.950 . S
C713 C712 1.349 . S
C713 C729 1.349 . S
C714 C712 1.327 . S
C714 C733 1.429 . S
C714 H738 0.950 . S
C715 C732 1.574 . S
C715 C734 1.368 . S
C715 H739 0.949 . S
H716 C720 0.949 . S
C717 C718 1.349 . S
C717 C719 1.327 . S
C717 H740 0.950 . S
C718 C717 1.349 . S
C718 C730 1.349 . S
C719 C717 1.327 . S
C719 C735 1.429 . S
C719 H741 0.950 . S
C720 H716 0.949 . S
C720 C728 1.574 . S
C720 C736 1.368 . S
H721 C729 0.950 . S
H722 C727 0.950 . S
H723 C728 0.949 . S
H724 C730 0.950 . S
H725 C731 0.950 . S
H726 C732 0.949 . S
C727 H722 0.950 . S
C727 C729 1.327 . S
C727 C733 1.429 . S
C728 C720 1.574 . S
C728 H723 0.949 . S
C728 C734 1.368 . S
C729 C713 1.349 . S
C729 H721 0.950 . S
C729 C727 1.327 . S
C730 C718 1.349 . S
C730 H724 0.950 . S
C730 C731 1.327 . S
C731 H725 0.950 . S
C731 C730 1.327 . S
C731 C735 1.429 . S
C732 C715 1.574 . S
C732 H726 0.949 . S
C732 C736 1.368 . S
C733 C714 1.429 . S
C733 C727 1.429 . S
C733 C734 1.523 . S
C734 C715 1.368 . S
C734 C728 1.368 . S
C734 C733 1.523 . S
C735 C719 1.429 . S
C735 C731 1.429 . S
C735 C736 1.523 . S
C736 C720 1.368 . S
C736 C732 1.368 . S
C736 C735 1.523 . S
H737 C712 0.950 . S
H738 C714 0.950 . S
H739 C715 0.949 . S
H740 C717 0.950 . S
H741 C719 0.950 . S
C742 C743 1.349 . S
C742 C744 1.327 . S
C742 H767 0.950 . S
C743 C742 1.349 . S
C743 C759 1.349 . S
C744 C742 1.327 . S
C744 C763 1.429 . S
C744 H768 0.950 . S
C745 C762 1.574 . S
C745 C764 1.368 . S
C745 H769 0.949 . S
H746 C750 0.949 . S
C747 C748 1.349 . S
C747 C749 1.327 . S
C747 H770 0.950 . S
C748 C747 1.349 . S
C748 C760 1.349 . S
C749 C747 1.327 . S
C749 C765 1.429 . S
C749 H771 0.950 . S
C750 H746 0.949 . S
C750 C758 1.574 . S
C750 C766 1.368 . S
H751 C759 0.950 . S
H752 C757 0.950 . S
H753 C758 0.949 . S
H754 C760 0.950 . S
H755 C761 0.950 . S
H756 C762 0.949 . S
C757 H752 0.950 . S
C757 C759 1.327 . S
C757 C763 1.429 . S
C758 C750 1.574 . S
C758 H753 0.949 . S
C758 C764 1.368 . S
C759 C743 1.349 . S
C759 H751 0.950 . S
C759 C757 1.327 . S
C760 C748 1.349 . S
C760 H754 0.950 . S
C760 C761 1.327 . S
C761 H755 0.950 . S
C761 C760 1.327 . S
C761 C765 1.429 . S
C762 C745 1.574 . S
C762 H756 0.949 . S
C762 C766 1.368 . S
C763 C744 1.429 . S
C763 C757 1.429 . S
C763 C764 1.523 . S
C764 C745 1.368 . S
C764 C758 1.368 . S
C764 C763 1.523 . S
C765 C749 1.429 . S
C765 C761 1.429 . S
C765 C766 1.523 . S
C766 C750 1.368 . S
C766 C762 1.368 . S
C766 C765 1.523 . S
H767 C742 0.950 . S
H768 C744 0.950 . S
H769 C745 0.949 . S
H770 C747 0.950 . S
H771 C749 0.950 . S
C772 C773 1.349 . S
C772 C774 1.327 . S
C772 H797 0.950 . S
C773 C772 1.349 . S
C773 C789 1.349 . S
C774 C772 1.327 . S
C774 C793 1.429 . S
C774 H798 0.950 . S
C775 C792 1.574 . S
C775 C794 1.368 . S
C775 H799 0.949 . S
H776 C780 0.949 . S
C777 C778 1.349 . S
C777 C779 1.327 . S
C777 H800 0.950 . S
C778 C777 1.349 . S
C778 C790 1.349 . S
C779 C777 1.327 . S
C779 C795 1.429 . S
C779 H801 0.950 . S
C780 H776 0.949 . S
C780 C788 1.574 . S
C780 C796 1.368 . S
H781 C789 0.950 . S
H782 C787 0.950 . S
H783 C788 0.949 . S
H784 C790 0.950 . S
H785 C791 0.950 . S
H786 C792 0.949 . S
C787 H782 0.950 . S
C787 C789 1.327 . S
C787 C793 1.429 . S
C788 C780 1.574 . S
C788 H783 0.949 . S
C788 C794 1.368 . S
C789 C773 1.349 . S
C789 H781 0.950 . S
C789 C787 1.327 . S
C790 C778 1.349 . S
C790 H784 0.950 . S
C790 C791 1.327 . S
C791 H785 0.950 . S
C791 C790 1.327 . S
C791 C795 1.429 . S
C792 C775 1.574 . S
C792 H786 0.949 . S
C792 C796 1.368 . S
C793 C774 1.429 . S
C793 C787 1.429 . S
C793 C794 1.523 . S
C794 C775 1.368 . S
C794 C788 1.368 . S
C794 C793 1.523 . S
C795 C779 1.429 . S
C795 C791 1.429 . S
C795 C796 1.523 . S
C796 C780 1.368 . S
C796 C792 1.368 . S
C796 C795 1.523 . S
H797 C772 0.950 . S
H798 C774 0.950 . S
H799 C775 0.949 . S
H800 C777 0.950 . S
H801 C779 0.950 . S
C802 C803 1.349 . S
C802 C804 1.327 . S
C802 H827 0.950 . S
C803 C802 1.349 . S
C803 C819 1.349 . S
C804 C802 1.327 . S
C804 C823 1.429 . S
C804 H828 0.950 . S
C805 C822 1.574 . S
C805 C824 1.368 . S
C805 H829 0.949 . S
H806 C810 0.949 . S
C807 C808 1.349 . S
C807 C809 1.327 . S
C807 H830 0.950 . S
C808 C807 1.349 . S
C808 C820 1.349 . S
C809 C807 1.327 . S
C809 C825 1.429 . S
C809 H831 0.950 . S
C810 H806 0.949 . S
C810 C818 1.574 . S
C810 C826 1.368 . S
H811 C819 0.950 . S
H812 C817 0.950 . S
H813 C818 0.949 . S
H814 C820 0.950 . S
H815 C821 0.950 . S
H816 C822 0.949 . S
C817 H812 0.950 . S
C817 C819 1.327 . S
C817 C823 1.429 . S
C818 C810 1.574 . S
C818 H813 0.949 . S
C818 C824 1.368 . S
C819 C803 1.349 . S
C819 H811 0.950 . S
C819 C817 1.327 . S
C820 C808 1.349 . S
C820 H814 0.950 . S
C820 C821 1.327 . S
C821 H815 0.950 . S
C821 C820 1.327 . S
C821 C825 1.429 . S
C822 C805 1.574 . S
C822 H816 0.949 . S
C822 C826 1.368 . S
C823 C804 1.429 . S
C823 C817 1.429 . S
C823 C824 1.523 . S
C824 C805 1.368 . S
C824 C818 1.368 . S
C824 C823 1.523 . S
C825 C809 1.429 . S
C825 C821 1.429 . S
C825 C826 1.523 . S
C826 C810 1.368 . S
C826 C822 1.368 . S
C826 C825 1.523 . S
H827 C802 0.950 . S
H828 C804 0.950 . S
H829 C805 0.949 . S
H830 C807 0.950 . S
H831 C809 0.950 . S
C832 C833 1.349 . S
C832 C834 1.327 . S
C832 H857 0.950 . S
C833 C832 1.349 . S
C833 C849 1.349 . S
C834 C832 1.327 . S
C834 C853 1.429 . S
C834 H858 0.950 . S
C835 C852 1.574 . S
C835 C854 1.368 . S
C835 H859 0.949 . S
H836 C840 0.949 . S
C837 C838 1.349 . S
C837 C839 1.327 . S
C837 H860 0.950 . S
C838 C837 1.349 . S
C838 C850 1.349 . S
C839 C837 1.327 . S
C839 C855 1.429 . S
C839 H861 0.950 . S
C840 H836 0.949 . S
C840 C848 1.574 . S
C840 C856 1.368 . S
H841 C849 0.950 . S
H842 C847 0.950 . S
H843 C848 0.949 . S
H844 C850 0.950 . S
H845 C851 0.950 . S
H846 C852 0.949 . S
C847 H842 0.950 . S
C847 C849 1.327 . S
C847 C853 1.429 . S
C848 C840 1.574 . S
C848 H843 0.949 . S
C848 C854 1.368 . S
C849 C833 1.349 . S
C849 H841 0.950 . S
C849 C847 1.327 . S
C850 C838 1.349 . S
C850 H844 0.950 . S
C850 C851 1.327 . S
C851 H845 0.950 . S
C851 C850 1.327 . S
C851 C855 1.429 . S
C852 C835 1.574 . S
C852 H846 0.949 . S
C852 C856 1.368 . S
C853 C834 1.429 . S
C853 C847 1.429 . S
C853 C854 1.523 . S
C854 C835 1.368 . S
C854 C848 1.368 . S
C854 C853 1.523 . S
C855 C839 1.429 . S
C855 C851 1.429 . S
C855 C856 1.523 . S
C856 C840 1.368 . S
C856 C852 1.368 . S
C856 C855 1.523 . S
H857 C832 0.950 . S
H858 C834 0.950 . S
H859 C835 0.949 . S
H860 C837 0.950 . S
H861 C839 0.950 . S
C862 C863 1.349 . S
C862 C864 1.327 . S
C862 H887 0.950 . S
C863 C862 1.349 . S
C863 C879 1.349 . S
C864 C862 1.327 . S
C864 C883 1.429 . S
C864 H888 0.950 . S
C865 C882 1.574 . S
C865 C884 1.368 . S
C865 H889 0.949 . S
H866 C870 0.949 . S
C867 C868 1.349 . S
C867 C869 1.327 . S
C867 H890 0.950 . S
C868 C867 1.349 . S
C868 C880 1.349 . S
C869 C867 1.327 . S
C869 C885 1.429 . S
C869 H891 0.950 . S
C870 H866 0.949 . S
C870 C878 1.574 . S
C870 C886 1.368 . S
H871 C879 0.950 . S
H872 C877 0.950 . S
H873 C878 0.949 . S
H874 C880 0.950 . S
H875 C881 0.950 . S
H876 C882 0.949 . S
C877 H872 0.950 . S
C877 C879 1.327 . S
C877 C883 1.429 . S
C878 C870 1.574 . S
C878 H873 0.949 . S
C878 C884 1.368 . S
C879 C863 1.349 . S
C879 H871 0.950 . S
C879 C877 1.327 . S
C880 C868 1.349 . S
C880 H874 0.950 . S
C880 C881 1.327 . S
C881 H875 0.950 . S
C881 C880 1.327 . S
C881 C885 1.429 . S
C882 C865 1.574 . S
C882 H876 0.949 . S
C882 C886 1.368 . S
C883 C864 1.429 . S
C883 C877 1.429 . S
C883 C884 1.523 . S
C884 C865 1.368 . S
C884 C878 1.368 . S
C884 C883 1.523 . S
C885 C869 1.429 . S
C885 C881 1.429 . S
C885 C886 1.523 . S
C886 C870 1.368 . S
C886 C882 1.368 . S
C886 C885 1.523 . S
H887 C862 0.950 . S
H888 C864 0.950 . S
H889 C865 0.949 . S
H890 C867 0.950 . S
H891 C869 0.950 . S
C892 C893 1.349 . S
C892 C894 1.327 . S
C892 H917 0.950 . S
C893 C892 1.349 . S
C893 C909 1.349 . S
C894 C892 1.327 . S
C894 C913 1.429 . S
C894 H918 0.950 . S
C895 C912 1.574 . S
C895 C914 1.368 . S
C895 H919 0.949 . S
H896 C900 0.949 . S
C897 C898 1.349 . S
C897 C899 1.327 . S
C897 H920 0.950 . S
C898 C897 1.349 . S
C898 C910 1.349 . S
C899 C897 1.327 . S
C899 C915 1.429 . S
C899 H921 0.950 . S
C900 H896 0.949 . S
C900 C908 1.574 . S
C900 C916 1.368 . S
H901 C909 0.950 . S
H902 C907 0.950 . S
H903 C908 0.949 . S
H904 C910 0.950 . S
H905 C911 0.950 . S
H906 C912 0.949 . S
C907 H902 0.950 . S
C907 C909 1.327 . S
C907 C913 1.429 . S
C908 C900 1.574 . S
C908 H903 0.949 . S
C908 C914 1.368 . S
C909 C893 1.349 . S
C909 H901 0.950 . S
C909 C907 1.327 . S
C910 C898 1.349 . S
C910 H904 0.950 . S
C910 C911 1.327 . S
C911 H905 0.950 . S
C911 C910 1.327 . S
C911 C915 1.429 . S
C912 C895 1.574 . S
C912 H906 0.949 . S
C912 C916 1.368 . S
C913 C894 1.429 . S
C913 C907 1.429 . S
C913 C914 1.523 . S
C914 C895 1.368 . S
C914 C908 1.368 . S
C914 C913 1.523 . S
C915 C899 1.429 . S
C915 C911 1.429 . S
C915 C916 1.523 . S
C916 C900 1.368 . S
C916 C912 1.368 . S
C916 C915 1.523 . S
H917 C892 0.950 . S
H918 C894 0.950 . S
H919 C895 0.949 . S
H920 C897 0.950 . S
H921 C899 0.950 . S
C922 C923 1.349 . S
C922 C924 1.327 . S
C922 H947 0.950 . S
C923 C922 1.349 . S
C923 C939 1.349 . S
C924 C922 1.327 . S
C924 C943 1.429 . S
C924 H948 0.950 . S
C925 C942 1.574 . S
C925 C944 1.368 . S
C925 H949 0.949 . S
H926 C930 0.949 . S
C927 C928 1.349 . S
C927 C929 1.327 . S
C927 H950 0.950 . S
C928 C927 1.349 . S
C928 C940 1.349 . S
C929 C927 1.327 . S
C929 C945 1.429 . S
C929 H951 0.950 . S
C930 H926 0.949 . S
C930 C938 1.574 . S
C930 C946 1.368 . S
H931 C939 0.950 . S
H932 C937 0.950 . S
H933 C938 0.949 . S
H934 C940 0.950 . S
H935 C941 0.950 . S
H936 C942 0.949 . S
C937 H932 0.950 . S
C937 C939 1.327 . S
C937 C943 1.429 . S
C938 C930 1.574 . S
C938 H933 0.949 . S
C938 C944 1.368 . S
C939 C923 1.349 . S
C939 H931 0.950 . S
C939 C937 1.327 . S
C940 C928 1.349 . S
C940 H934 0.950 . S
C940 C941 1.327 . S
C941 H935 0.950 . S
C941 C940 1.327 . S
C941 C945 1.429 . S
C942 C925 1.574 . S
C942 H936 0.949 . S
C942 C946 1.368 . S
C943 C924 1.429 . S
C943 C937 1.429 . S
C943 C944 1.523 . S
C944 C925 1.368 . S
C944 C938 1.368 . S
C944 C943 1.523 . S
C945 C929 1.429 . S
C945 C941 1.429 . S
C945 C946 1.523 . S
C946 C930 1.368 . S
C946 C942 1.368 . S
C946 C945 1.523 . S
H947 C922 0.950 . S
H948 C924 0.950 . S
H949 C925 0.949 . S
H950 C927 0.950 . S
H951 C929 0.950 . S
C233 C5 1.027 . S
C238 C79 1.037 . S
C263 C14 0.904 . S
C268 C128 0.903 . S
C298 C154 2.459 . S
C293 C25 2.498 . S
C323 C34 2.372 . S
C328 C202 2.324 . S
C358 C114 2.124 . S
C353 C7 2.070 . S
C388 C82 0.818 . S
C383 C13 0.828 . S
C418 C203 1.886 . S
C413 C23 1.924 . S
C448 C171 1.581 . S
C443 C31 1.608 . S
C473 C4 1.482 . S
C478 C199 1.510 . S
C508 C131 2.322 . S
C503 C22 2.387 . S
C533 C32 2.348 . S
C538 C83 2.337 . S
C563 C16 0.721 . S
C568 C168 0.720 . S
C598 C88 1.023 . S
C593 C41 1.012 . S
C623 C50 0.913 . S
C628 C119 0.911 . S
C653 C61 2.490 . S
C658 C163 2.451 . S
C683 C67 2.384 . S
C688 C211 2.335 . S
C713 C40 2.094 . S
C718 C123 2.147 . S
C748 C91 0.789 . S
C743 C52 0.795 . S
C778 C194 1.896 . S
C773 C59 1.935 . S
C808 C162 1.578 . S
C803 C70 1.604 . S
C833 C43 1.477 . S
C838 C208 1.506 . S
C868 C122 2.335 . S
C863 C58 2.401 . S
C898 C74 2.314 . S
C893 C68 2.324 . S
C923 C49 0.727 . S
C928 C159 0.726 . S
