# Generated by pormake.
# Topology zzz, (3,6)-cn, num edge types: 1
# Building blocks:
#     Node 0, Type 0, BuildingBlock: BETDIP_clean_linker_0, # of connection points: 3
#     Node 1, Type 0, BuildingBlock: BETDIP_clean_linker_0, # of connection points: 3
#     Node 2, Type 0, BuildingBlock: BETDIP_clean_linker_0, # of connection points: 3
#     Node 3, Type 0, BuildingBlock: BETDIP_clean_linker_0, # of connection points: 3
#     Node 4, Type 0, BuildingBlock: BETDIP_clean_linker_0, # of connection points: 3
#     Node 5, Type 0, BuildingBlock: BETDIP_clean_linker_0, # of connection points: 3
#     Node 6, Type 0, BuildingBlock: BETDIP_clean_linker_0, # of connection points: 3
#     Node 7, Type 0, BuildingBlock: BETDIP_clean_linker_0, # of connection points: 3
#     Node 8, Type 1, BuildingBlock: NUHQIS_clean_sbu_0, # of connection points: 6
#     Node 9, Type 1, BuildingBlock: NUHQIS_clean_sbu_0, # of connection points: 6
#     Node 10, Type 1, BuildingBlock: NUHQIS_clean_sbu_0, # of connection points: 6
#     Node 11, Type 1, BuildingBlock: NUHQIS_clean_sbu_0, # of connection points: 6
#     Edge 12, Type (0, 1), BuildingBlock: ZUJKAS_clean_linker_0, # of connection points: 2
#     Edge 13, Type (0, 1), BuildingBlock: ZUJKAS_clean_linker_0, # of connection points: 2
#     Edge 14, Type (0, 1), BuildingBlock: ZUJKAS_clean_linker_0, # of connection points: 2
#     Edge 15, Type (0, 1), BuildingBlock: ZUJKAS_clean_linker_0, # of connection points: 2
#     Edge 16, Type (0, 1), BuildingBlock: ZUJKAS_clean_linker_0, # of connection points: 2
#     Edge 17, Type (0, 1), BuildingBlock: ZUJKAS_clean_linker_0, # of connection points: 2
#     Edge 18, Type (0, 1), BuildingBlock: ZUJKAS_clean_linker_0, # of connection points: 2
#     Edge 19, Type (0, 1), BuildingBlock: ZUJKAS_clean_linker_0, # of connection points: 2
#     Edge 20, Type (0, 1), BuildingBlock: ZUJKAS_clean_linker_0, # of connection points: 2
#     Edge 21, Type (0, 1), BuildingBlock: ZUJKAS_clean_linker_0, # of connection points: 2
#     Edge 22, Type (0, 1), BuildingBlock: ZUJKAS_clean_linker_0, # of connection points: 2
#     Edge 23, Type (0, 1), BuildingBlock: ZUJKAS_clean_linker_0, # of connection points: 2
#     Edge 24, Type (0, 1), BuildingBlock: ZUJKAS_clean_linker_0, # of connection points: 2
#     Edge 25, Type (0, 1), BuildingBlock: ZUJKAS_clean_linker_0, # of connection points: 2
#     Edge 26, Type (0, 1), BuildingBlock: ZUJKAS_clean_linker_0, # of connection points: 2
#     Edge 27, Type (0, 1), BuildingBlock: ZUJKAS_clean_linker_0, # of connection points: 2
#     Edge 28, Type (0, 1), BuildingBlock: ZUJKAS_clean_linker_0, # of connection points: 2
#     Edge 29, Type (0, 1), BuildingBlock: ZUJKAS_clean_linker_0, # of connection points: 2
#     Edge 30, Type (0, 1), BuildingBlock: ZUJKAS_clean_linker_0, # of connection points: 2
#     Edge 31, Type (0, 1), BuildingBlock: ZUJKAS_clean_linker_0, # of connection points: 2
#     Edge 32, Type (0, 1), BuildingBlock: ZUJKAS_clean_linker_0, # of connection points: 2
#     Edge 33, Type (0, 1), BuildingBlock: ZUJKAS_clean_linker_0, # of connection points: 2
#     Edge 34, Type (0, 1), BuildingBlock: ZUJKAS_clean_linker_0, # of connection points: 2
#     Edge 35, Type (0, 1), BuildingBlock: ZUJKAS_clean_linker_0, # of connection points: 2
# Relax obj value: 0.207
# Max RMSD: 0.141
# Mean RMSD: 0.133
data_MOF--net-zzz--node1-NUHQIS_clean_sbu_0--node2-BETDIP_clean_linker_0--edge1-ZUJKAS_clean_linker_0
_symmetry_space_group_name_H-M    P1
_symmetry_Int_Tables_number       1
_symmetry_cell_setting            triclinic
loop_
_symmetry_equiv_pos_as_xyz
'x, y, z'
_cell_length_a     68.065155
_cell_length_b     68.130495
_cell_length_c     17.863486
_cell_angle_alpha  90.006268
_cell_angle_beta   90.089485
_cell_angle_gamma 90.025589
loop_
_atom_site_label
_atom_site_type_symbol
_atom_site_fract_x
_atom_site_fract_y
_atom_site_fract_z
_atom_type_partial_charge
H0 H 0.75655 0.51812 0.40684 0.0
H1 H 0.74891 0.50791 0.17033 0.0
H2 H 0.80441 0.49571 0.27533 0.0
H3 H 0.7314 0.54207 0.20784 0.0
C4 C 0.72187 0.53186 0.23734 0.0
C5 C 0.76237 0.51328 0.35354 0.0
C6 C 0.78207 0.50699 0.34827 0.0
C7 C 0.75032 0.51359 0.28909 0.0
C8 C 0.7581 0.50758 0.21988 0.0
C9 C 0.77761 0.50124 0.21426 0.0
C10 C 0.78933 0.50077 0.27891 0.0
N11 N 0.73032 0.51963 0.29348 0.0
H12 H 0.99281 0.7595 0.39642 0.0
H13 H 0.02126 0.74433 0.18918 0.0
H14 H 0.03094 0.80102 0.28795 0.0
H15 H 0.98149 0.73524 0.18554 0.0
C16 C 0.98733 0.72434 0.22408 0.0
C17 C 1.00277 0.76323 0.35135 0.0
C18 C 0.01206 0.78177 0.3502 0.0
C19 C 1.00601 0.74973 0.29267 0.0
C20 C 0.01867 0.7548 0.23376 0.0
C21 C 0.02791 0.77315 0.23179 0.0
C22 C 0.02457 0.78644 0.29048 0.0
N23 N 0.99637 0.73117 0.29125 0.0
H24 H 0.76228 0.99765 0.37766 0.0
H25 H 0.77199 1.00455 0.14059 0.0
H26 H 0.71498 0.01587 0.23327 0.0
H27 H 0.78971 0.97045 0.19242 0.0
C28 C 0.79874 0.98186 0.21761 0.0
C29 C 0.75679 1.0013 0.32245 0.0
C30 C 0.73693 1.00683 0.31287 0.0
C31 C 0.76948 1.00038 0.25999 0.0
C32 C 0.76225 1.00511 0.18849 0.0
C33 C 0.74263 1.01064 0.17849 0.0
C34 C 0.73018 0.0115 0.24083 0.0
N35 N 0.78962 0.99513 0.2685 0.0
H36 H 0.51922 0.76383 0.3962 0.0
H37 H 0.51128 0.77064 0.15809 0.0
H38 H 0.4997 0.71503 0.26249 0.0
H39 H 0.54527 0.78875 0.20224 0.0
C40 C 0.53433 0.79817 0.22817 0.0
C41 C 0.51518 0.75774 0.34232 0.0
C42 C 0.50948 0.73788 0.33665 0.0
C43 C 0.51592 0.76961 0.27759 0.0
C44 C 0.51078 0.76154 0.20781 0.0
C45 C 0.505 0.74187 0.20181 0.0
C46 C 0.50429 0.73025 0.26653 0.0
N47 N 0.52147 0.78973 0.28217 0.0
H48 H 0.26439 0.50002 0.06528 0.0
H49 H 0.27839 0.54162 0.23949 0.0
H50 H 0.22074 0.54091 0.1414 0.0
H51 H 0.30824 0.54075 0.15356 0.0
C52 C 0.30974 0.52538 0.16903 0.0
C53 C 0.26013 0.51208 0.10127 0.0
C54 C 0.24106 0.52008 0.09594 0.0
C55 C 0.2739 0.52024 0.15177 0.0
C56 C 0.26809 0.53572 0.19904 0.0
C57 C 0.24896 0.5433 0.19582 0.0
C58 C 0.23571 0.53551 0.14346 0.0
N59 N 0.2934 0.51266 0.15666 0.0
H60 H 0.019 0.2631 0.0736 0.0
H61 H 0.98983 0.27377 0.28397 0.0
H62 H 0.99422 0.2151 0.19827 0.0
H63 H 0.97903 0.30181 0.19236 0.0
C64 C 0.99452 0.30571 0.19458 0.0
C65 C 1.01112 0.25768 0.12201 0.0
C66 C 1.00743 0.23739 0.12971 0.0
C67 C 1.00449 0.27096 0.17727 0.0
C68 C 0.99441 0.26374 0.24028 0.0
C69 C 0.99099 0.24361 0.24891 0.0
C70 C 0.99736 0.23065 0.19304 0.0
N71 N 1.00856 0.29143 0.17144 0.0
H72 H 0.25802 0.01743 0.05752 0.0
H73 H 0.24956 1.00045 0.2877 0.0
H74 H 0.30744 1.0 0.19229 0.0
H75 H 0.22342 0.98226 0.20848 0.0
C76 C 0.21766 0.99687 0.19731 0.0
C77 C 0.26399 0.01268 0.11076 0.0
C78 C 0.28438 1.00939 0.11848 0.0
C79 C 0.25127 1.00889 0.17152 0.0
C80 C 0.25922 1.00273 0.24033 0.0
C81 C 0.27945 0.99974 0.24882 0.0
C82 C 0.29183 1.00292 0.18731 0.0
N83 N 0.2305 0.01091 0.16397 0.0
H84 H 0.50318 0.25637 0.0597 0.0
H85 H 0.55005 0.24595 0.21826 0.0
H86 H 0.54743 0.30036 0.09883 0.0
H87 H 0.54759 0.21503 0.15438 0.0
C88 C 0.53213 0.21322 0.16803 0.0
C89 C 0.51647 0.26113 0.08777 0.0
C90 C 0.52437 0.27989 0.07272 0.0
C91 C 0.5262 0.24834 0.13808 0.0
C92 C 0.54306 0.25506 0.17624 0.0
C93 C 0.55085 0.27363 0.16139 0.0
C94 C 0.54163 0.28575 0.10896 0.0
N95 N 0.51898 0.22895 0.15125 0.0
Tb96 Tb 0.02277 1.00661 0.76653 0.0
Eu97 Eu 0.99212 0.02077 0.63742 0.0
C98 C 0.03792 0.0186 0.60879 0.0
C99 C 0.01133 0.05163 0.75647 0.0
C100 C 0.05177 0.97122 0.8684 0.0
C101 C 0.07569 0.94588 0.89677 0.0
C102 C 0.07023 0.96568 0.89605 0.0
C103 C 0.03883 0.9568 0.84163 0.0
C104 C 0.04431 0.93711 0.84171 0.0
C105 C 0.06283 0.93144 0.86879 0.0
C106 C 0.04682 0.99199 0.85825 0.0
O107 O 0.99315 0.99857 0.80438 0.0
O108 O 0.9767 0.02354 0.74773 0.0
O109 O 0.98964 0.98765 0.64037 0.0
O110 O 0.01979 0.98146 0.6918 0.0
C111 C 0.97771 1.01014 0.80003 0.0
O112 O 0.96274 0.02033 0.58855 0.0
O113 O 0.98591 0.03714 0.5353 0.0
O114 O 0.02082 0.01376 0.58044 0.0
O115 O 0.03968 0.02192 0.68088 0.0
O116 O 0.01723 0.03695 0.79897 0.0
O117 O 1.00387 0.0488 0.68919 0.0
C118 C 1.00397 0.97544 0.65646 0.0
O119 O 0.0518 0.99898 0.79332 0.0
O120 O 0.02897 0.99707 0.87611 0.0
C121 C 0.9544 0.05109 0.53515 0.0
C122 C 0.93534 0.08789 0.53573 0.0
C123 C 0.9331 0.07487 0.59625 0.0
C124 C 0.94265 0.05669 0.59624 0.0
C125 C 0.95573 0.06352 0.47303 0.0
C126 C 0.94644 0.08175 0.47341 0.0
C127 C 0.96708 0.03361 0.53851 0.0
H128 H 0.09006 0.94188 0.91799 0.0
H129 H 0.08052 0.97668 0.91567 0.0
H130 H 0.02456 0.96078 0.81946 0.0
H131 H 0.03392 0.9263 0.82126 0.0
H132 H 0.92447 0.07893 0.64469 0.0
H133 H 0.94142 0.04739 0.64519 0.0
H134 H 0.96482 0.05955 0.42562 0.0
H135 H 0.94896 0.09142 0.42632 0.0
Tb136 Tb 0.5181 0.02322 0.78387 0.0
Eu137 Eu 0.5038 0.99423 0.64906 0.0
C138 C 0.50934 0.04025 0.62176 0.0
C139 C 0.47294 0.01321 0.76634 0.0
C140 C 0.55052 0.05715 0.87919 0.0
C141 C 0.57654 0.07131 0.80328 0.0
C142 C 0.55716 0.06485 0.81075 0.0
C143 C 0.56312 0.05713 0.94109 0.0
C144 C 0.58254 0.06336 0.93351 0.0
C145 C 0.58972 0.06986 0.86376 0.0
C146 C 0.53231 0.04559 0.88232 0.0
O147 O 0.52364 0.99305 0.82098 0.0
O148 O 0.49911 0.9779 0.75666 0.0
O149 O 0.53694 0.99188 0.6532 0.0
O150 O 0.5433 0.02146 0.70885 0.0
C151 C 0.51166 0.97811 0.81213 0.0
O152 O 0.50411 0.96506 0.59864 0.0
O153 O 0.48742 0.98849 0.54644 0.0
O154 O 0.5112 0.02273 0.59199 0.0
O155 O 0.50804 0.04271 0.69461 0.0
O156 O 0.48753 0.01701 0.81275 0.0
O157 O 0.47615 1.00763 0.6969 0.0
C158 C 0.5492 1.00608 0.67071 0.0
O159 O 0.5182 0.05079 0.83717 0.0
O160 O 0.53511 0.02672 0.88097 0.0
C161 C 0.47265 0.95753 0.55033 0.0
C162 C 0.43428 0.94217 0.56037 0.0
C163 C 0.44729 0.94065 0.62131 0.0
C164 C 0.46625 0.9484 0.61656 0.0
C165 C 0.46026 0.95777 0.48779 0.0
C166 C 0.44125 0.95024 0.49274 0.0
C167 C 0.49055 0.96961 0.54983 0.0
H168 H 0.58144 0.0765 0.74914 0.0
H169 H 0.54775 0.0648 0.76176 0.0
H170 H 0.55836 0.05095 0.99395 0.0
H171 H 0.59223 0.06167 0.98118 0.0
H172 H 0.44255 0.93428 0.6738 0.0
H173 H 0.47549 0.94815 0.66597 0.0
H174 H 0.46484 0.96495 0.43656 0.0
H175 H 0.43164 0.95204 0.44488 0.0
Tb176 Tb 0.49698 0.51681 0.79255 0.0
Eu177 Eu 0.52753 0.50524 0.65926 0.0
C178 C 0.4816 0.5068 0.63136 0.0
C179 C 0.5091 0.47211 0.76928 0.0
C180 C 0.46151 0.54756 0.88502 0.0
C181 C 0.44818 0.57431 0.81042 0.0
C182 C 0.45435 0.55483 0.81653 0.0
C183 C 0.46127 0.55969 0.9482 0.0
C184 C 0.4553 0.57922 0.942 0.0
C185 C 0.44934 0.58697 0.87238 0.0
C186 C 0.47275 0.52914 0.88731 0.0
O187 O 0.52465 0.50946 0.84778 0.0
O188 O 0.54403 0.52011 0.75286 0.0
O189 O 0.51875 0.53635 0.63357 0.0
O190 O 0.50804 0.54499 0.75083 0.0
C191 C 0.5418 0.5155 0.82351 0.0
O192 O 0.55799 0.49932 0.6299 0.0
O193 O 0.53566 0.49893 0.54346 0.0
O194 O 0.49735 0.49614 0.61922 0.0
O195 O 0.48119 0.51943 0.68681 0.0
O196 O 0.49576 0.48473 0.79256 0.0
O197 O 0.52384 0.47745 0.72627 0.0
C198 C 0.51337 0.54974 0.68232 0.0
O199 O 0.46837 0.51602 0.83667 0.0
O200 O 0.49168 0.53159 0.89352 0.0
C201 C 0.56203 0.47633 0.53425 0.0
C202 C 0.57866 0.43984 0.4957 0.0
C203 C 0.59054 0.45664 0.50236 0.0
C204 C 0.58227 0.47473 0.52136 0.0
C205 C 0.55009 0.45965 0.52765 0.0
C206 C 0.5583 0.44162 0.50797 0.0
C207 C 0.55391 0.49505 0.56058 0.0
H208 H 0.4434 0.57967 0.75631 0.0
H209 H 0.45458 0.54583 0.76656 0.0
H210 H 0.46702 0.55447 1.00118 0.0
H211 H 0.45673 0.58853 0.99081 0.0
H212 H 0.60628 0.45578 0.49413 0.0
H213 H 0.59174 0.48743 0.52737 0.0
H214 H 0.53444 0.46049 0.53835 0.0
H215 H 0.54861 0.42911 0.50183 0.0
Tb216 Tb 1.00415 0.49623 0.80269 0.0
Eu217 Eu 0.01687 0.52588 0.66848 0.0
C218 C 0.01367 0.47978 0.64305 0.0
C219 C 0.04881 0.50785 0.78329 0.0
C220 C 0.97295 0.4618 0.89959 0.0
C221 C 0.94655 0.44678 0.82755 0.0
C222 C 0.96598 0.45325 0.83295 0.0
C223 C 0.96055 0.46276 0.96182 0.0
C224 C 0.94107 0.45655 0.95622 0.0
C225 C 0.93363 0.44904 0.88825 0.0
C226 C 0.99142 0.47299 0.90032 0.0
O227 O 1.0113 0.52433 0.85539 0.0
O228 O 1.00105 0.54299 0.75778 0.0
O229 O 0.98564 0.51779 0.63989 0.0
O230 O 0.97629 0.5069 0.75642 0.0
C231 C 1.00509 0.54122 0.82914 0.0
O232 O 0.02153 0.55613 0.63302 0.0
O233 O 0.02741 0.53249 0.55577 0.0
O234 O 0.02468 0.49523 0.63015 0.0
O235 O 1.0012 0.47968 0.69898 0.0
O236 O 0.03617 0.49401 0.80132 0.0
O237 O 0.04346 0.52317 0.74356 0.0
C238 C 0.97196 0.51237 0.68756 0.0
O239 O 1.00458 0.46807 0.85071 0.0
O240 O 0.98906 0.49196 0.90366 0.0
C241 C 0.04908 0.55939 0.55687 0.0
C242 C 0.08662 0.57618 0.54093 0.0
C243 C 0.07027 0.58455 0.50472 0.0
C244 C 0.05158 0.57625 0.51301 0.0
C245 C 0.06535 0.551 0.59286 0.0
C246 C 0.08393 0.55932 0.58508 0.0
C247 C 0.02945 0.55118 0.56955 0.0
H248 H 0.94147 0.44079 0.77481 0.0
H249 H 0.9752 0.45251 0.78368 0.0
H250 H 0.96553 0.46957 0.01329 0.0
H251 H 0.93159 0.45892 1.00394 0.0
H252 H 0.07192 0.59755 0.47041 0.0
H253 H 0.0391 0.58302 0.48557 0.0
H254 H 0.06367 0.53799 0.62701 0.0
H255 H 0.09628 0.55226 0.61237 0.0
H256 H 0.19438 0.97286 0.27687 0.0
H257 H 0.16283 0.97993 0.33519 0.0
H258 H 0.16456 0.0388 0.24666 0.0
H259 H 0.19675 0.03186 0.18948 0.0
H260 H 0.15294 0.03888 0.39071 0.0
H261 H 0.10962 0.98283 0.24073 0.0
H262 H 0.13044 0.97187 0.28576 0.0
H263 H 0.13412 0.98958 0.21211 0.0
C264 C 0.18797 0.98728 0.26913 0.0
C265 C 0.19797 1.00174 0.22806 0.0
C266 C 0.16983 0.99127 0.30216 0.0
C267 C 0.16097 1.00975 0.29402 0.0
C268 C 0.17097 0.02435 0.25318 0.0
H269 H 0.03931 0.01966 0.45523 0.0
H270 H 0.06847 0.02026 0.37518 0.0
C271 C 0.18933 0.02038 0.22033 0.0
C272 C 0.14172 0.01378 0.33109 0.0
H273 H 0.09587 0.99446 0.35682 0.0
C274 C 0.14036 0.02934 0.38247 0.0
C275 C 0.12507 1.00163 0.31958 0.0
C276 C 0.12481 0.9857 0.2609 0.0
C277 C 0.12323 0.03246 0.42506 0.0
C278 C 0.10715 0.01933 0.41777 0.0
C279 C 0.10821 1.00438 0.36372 0.0
C280 C 0.08936 0.02039 0.46675 0.0
C281 C 0.12258 0.0499 0.47703 0.0
C282 C 0.09121 0.02022 0.54516 0.0
C283 C 0.07453 0.02015 0.59106 0.0
C284 C 0.05555 0.01983 0.55975 0.0
C285 C 0.05368 0.01993 0.4813 0.0
C286 C 0.07039 0.02026 0.43539 0.0
H287 H 0.13234 0.06187 0.457 0.0
H288 H 0.10744 0.05578 0.48255 0.0
H289 H 0.12787 0.04539 0.53324 0.0
H290 H 0.10557 0.01965 0.57115 0.0
H291 H 0.07656 0.01982 0.6512 0.0
H292 H 0.5567 0.18635 0.22541 0.0
H293 H 0.549 0.15687 0.29661 0.0
H294 H 0.48711 0.16943 0.27609 0.0
H295 H 0.49492 0.19969 0.20652 0.0
H296 H 0.49535 0.15728 0.41426 0.0
H297 H 0.53032 0.10544 0.2188 0.0
H298 H 0.54766 0.12374 0.24749 0.0
H299 H 0.52618 0.13081 0.19471 0.0
C300 C 0.54141 0.1828 0.23565 0.0
C301 C 0.52642 0.19524 0.2098 0.0
C302 C 0.53701 0.16581 0.27595 0.0
C303 C 0.51744 0.1605 0.29012 0.0
C304 C 0.50233 0.17306 0.26522 0.0
H305 H 0.4998 0.04191 0.47266 0.0
H306 H 0.4989 0.07088 0.39166 0.0
C307 C 0.50678 0.19032 0.22537 0.0
C308 C 0.51312 0.14216 0.33301 0.0
H309 H 0.5258 0.09372 0.34502 0.0
C310 C 0.50178 0.14332 0.39853 0.0
C311 C 0.52105 0.12373 0.31199 0.0
C312 C 0.53178 0.12081 0.23893 0.0
C313 C 0.49899 0.12687 0.44519 0.0
C314 C 0.50835 0.10886 0.42737 0.0
C315 C 0.51889 0.10751 0.35996 0.0
C316 C 0.50783 0.09136 0.47807 0.0
C317 C 0.48585 0.12903 0.51261 0.0
C318 C 0.51327 0.09299 0.55382 0.0
C319 C 0.51344 0.07648 0.60055 0.0
C320 C 0.50869 0.05779 0.57227 0.0
C321 C 0.50356 0.05607 0.49625 0.0
C322 C 0.50303 0.07267 0.44985 0.0
H323 H 0.47458 0.14059 0.50342 0.0
H324 H 0.47824 0.11507 0.52618 0.0
H325 H 0.49484 0.13353 0.56157 0.0
H326 H 0.51776 0.107 0.57675 0.0
H327 H 0.51774 0.07829 0.65855 0.0
H328 H 0.31917 0.48939 0.23268 0.0
H329 H 0.34886 0.48145 0.30555 0.0
H330 H 0.37058 0.5402 0.27019 0.0
H331 H 0.3413 0.54801 0.19692 0.0
H332 H 0.3995 0.51274 0.25202 0.0
H333 H 0.35945 0.50019 0.51882 0.0
H334 H 0.35186 0.48513 0.4414 0.0
H335 H 0.3479 0.51119 0.43813 0.0
C336 C 0.33037 0.50052 0.24007 0.0
C337 C 0.32791 0.51936 0.20924 0.0
C338 C 0.34727 0.49602 0.28218 0.0
C339 C 0.36189 0.51032 0.2944 0.0
C340 C 0.35956 0.52891 0.26181 0.0
H341 H 0.44783 0.52844 0.63679 0.0
H342 H 0.41954 0.52699 0.55324 0.0
C343 C 0.34279 0.53337 0.21995 0.0
C344 C 0.37951 0.50639 0.34204 0.0
H345 H 0.39386 0.49717 0.52225 0.0
C346 C 0.39828 0.50912 0.31096 0.0
C347 C 0.37794 0.5019 0.41923 0.0
C348 C 0.35824 0.49957 0.45683 0.0
C349 C 0.41542 0.50797 0.355 0.0
C350 C 0.41384 0.50359 0.43227 0.0
C351 C 0.39511 0.5004 0.46299 0.0
C352 C 0.43123 0.50385 0.48341 0.0
C353 C 0.43498 0.51235 0.31902 0.0
C354 C 0.4473 0.49117 0.47276 0.0
C355 C 0.46369 0.49203 0.52057 0.0
C356 C 0.46429 0.50549 0.58037 0.0
C357 C 0.44801 0.5179 0.59139 0.0
C358 C 0.43172 0.51707 0.54364 0.0
H359 H 0.43325 0.51969 0.26386 0.0
H360 H 0.44409 0.52188 0.35571 0.0
H361 H 0.44304 0.4984 0.31 0.0
H362 H 0.44715 0.48056 0.42764 0.0
H363 H 0.47587 0.48214 0.51068 0.0
H364 H 0.03137 0.31954 0.23525 0.0
H365 H 0.03875 0.34997 0.30408 0.0
H366 H 0.97713 0.36466 0.30497 0.0
H367 H 0.96976 0.33451 0.23626 0.0
H368 H 1.00148 0.39672 0.27043 0.0
H369 H 0.02624 0.35806 0.52814 0.0
H370 H 0.03863 0.35153 0.44288 0.0
H371 H 0.01308 0.3457 0.45406 0.0
C372 C 0.01946 0.32937 0.24954 0.0
C373 C 0.99996 0.32465 0.23045 0.0
C374 C 0.02366 0.34669 0.28932 0.0
C375 C 1.00846 0.35953 0.31059 0.0
C376 C 0.98911 0.35503 0.2894 0.0
H377 H 0.99366 0.44513 0.6566 0.0
H378 H 0.99444 0.41673 0.57349 0.0
C379 C 0.98492 0.33778 0.25012 0.0
C380 C 0.0123 0.37743 0.35646 0.0
H381 H 0.02597 0.39257 0.53156 0.0
C382 C 1.00706 0.39585 0.32724 0.0
C383 C 0.01934 0.37627 0.43097 0.0
C384 C 0.02453 0.35685 0.46644 0.0
C385 C 1.00833 0.41305 0.37073 0.0
C386 C 0.01524 0.41187 0.4454 0.0
C387 C 0.02081 0.3935 0.4742 0.0
C388 C 0.01542 0.42925 0.49624 0.0
C389 C 1.00148 0.43222 0.33741 0.0
C390 C 0.02714 0.44578 0.48117 0.0
C391 C 0.02673 0.46218 0.52884 0.0
C392 C 0.01461 0.46235 0.59267 0.0
C393 C 1.00313 0.44563 0.60797 0.0
C394 C 1.00358 0.42929 0.56051 0.0
H395 H 0.99294 0.42999 0.28504 0.0
H396 H 0.99223 0.44041 0.3779 0.0
H397 H 0.01445 0.44143 0.32399 0.0
H398 H 0.03663 0.446 0.4326 0.0
H399 H 0.03584 0.47472 0.51545 0.0
H400 H 0.81869 0.95678 0.12943 0.0
H401 H 0.85062 0.96143 0.06971 0.0
H402 H 0.85631 0.01789 0.17683 0.0
H403 H 0.82438 0.01303 0.23833 0.0
H404 H 0.85983 0.98931 0.97044 0.0
H405 H 0.91049 0.99482 0.21308 0.0
H406 H 0.88564 0.98581 0.22174 0.0
H407 H 0.89028 0.01175 0.21617 0.0
C408 C 0.82691 0.97004 0.14134 0.0
C409 C 0.81907 0.98448 0.18883 0.0
C410 C 0.84515 0.97272 0.10697 0.0
C411 C 0.85606 0.98993 0.11901 0.0
C412 C 0.84843 1.00429 0.16773 0.0
H413 H 0.94444 0.03251 0.80748 0.0
H414 H 0.91577 0.02784 0.8872 0.0
C415 C 0.83013 1.00154 0.20268 0.0
C416 C 0.87461 0.99323 0.07607 0.0
H417 H 0.92387 1.00245 0.09348 0.0
C418 C 0.87382 0.99214 0.99755 0.0
C419 C 0.89297 0.99672 0.11113 0.0
C420 C 0.89502 0.99717 0.19518 0.0
C421 C 0.89071 0.99458 0.9533 0.0
C422 C 0.90896 0.99863 0.98813 0.0
C423 C 0.90987 0.9995 0.06669 0.0
C424 C 0.92714 1.00212 0.94342 0.0
C425 C 0.88887 0.99243 0.86946 0.0
C426 C 0.94349 0.98961 0.95005 0.0
C427 C 0.96009 0.9923 0.90449 0.0
C428 C 0.96069 1.00761 0.8516 0.0
C429 C 0.9445 0.02043 0.84692 0.0
C430 C 0.928 0.01775 0.8924 0.0
H431 H 0.87541 0.98419 0.85351 0.0
H432 H 0.88797 1.00721 0.84364 0.0
H433 H 0.90183 0.98475 0.84572 0.0
H434 H 0.94322 0.97749 0.98928 0.0
H435 H 0.97229 0.9822 0.9099 0.0
H436 H 0.50428 0.82476 0.25389 0.0
H437 H 0.49917 0.85637 0.19009 0.0
H438 H 0.5534 0.84836 0.06948 0.0
H439 H 0.55834 0.81678 0.13163 0.0
H440 H 0.52134 0.89096 0.17959 0.0
H441 H 0.51377 0.85592 0.90128 0.0
H442 H 0.51323 0.84204 0.98728 0.0
H443 H 0.53631 0.84959 0.94751 0.0
C444 C 0.51517 0.82985 0.21426 0.0
C445 C 0.53167 0.81825 0.19733 0.0
C446 C 0.51223 0.8479 0.17777 0.0
C447 C 0.52569 0.85458 0.12373 0.0
C448 C 0.54257 0.84335 0.1095 0.0
H449 H 0.53884 0.9705 0.92246 0.0
H450 H 0.54133 0.94118 1.00119 0.0
C451 C 0.54544 0.82536 0.14548 0.0
C452 C 0.52203 0.87297 0.08058 0.0
H453 H 0.51772 0.89063 0.90222 0.0
C454 C 0.52042 0.89089 0.11897 0.0
C455 C 0.5205 0.87289 1.00148 0.0
C456 C 0.52084 0.85406 0.95695 0.0
C457 C 0.51788 0.90875 0.08031 0.0
C458 C 0.51729 0.90875 1.00097 0.0
C459 C 0.51839 0.89075 0.96289 0.0
C460 C 0.51536 0.92713 0.95592 0.0
C461 C 0.51555 0.9274 0.12495 0.0
C462 C 0.50019 0.92895 0.90296 0.0
C463 C 0.49888 0.94557 0.85719 0.0
C464 C 0.51274 0.96084 0.86311 0.0
C465 C 0.52783 0.95911 0.91667 0.0
C466 C 0.52919 0.94238 0.96222 0.0
H467 H 0.5105 0.92433 0.1829 0.0
H468 H 0.52997 0.93494 0.12871 0.0
H469 H 0.50492 0.93753 0.09787 0.0
H470 H 0.48937 0.91739 0.89665 0.0
H471 H 0.48704 0.94636 0.81674 0.0
H472 H 0.70255 0.55633 0.14431 0.0
H473 H 0.66984 0.55236 0.0895 0.0
H474 H 0.66204 0.49855 0.21288 0.0
H475 H 0.6949 0.50256 0.26863 0.0
H476 H 0.65401 0.49622 0.05335 0.0
H477 H 0.6147 0.5583 0.18679 0.0
H478 H 0.63807 0.56476 0.14712 0.0
H479 H 0.63707 0.54806 0.22489 0.0
C480 C 0.69374 0.54382 0.16077 0.0
C481 C 0.70123 0.52985 0.21115 0.0
C482 C 0.67501 0.54159 0.12954 0.0
C483 C 0.66336 0.52528 0.14766 0.0
C484 C 0.67071 0.51133 0.19856 0.0
H485 H 0.54247 0.51103 0.97666 0.0
H486 H 0.57119 0.51219 0.05998 0.0
C487 C 0.68945 0.51368 0.23059 0.0
C488 C 0.64411 0.52237 0.1094 0.0
H489 H 0.59956 0.54418 0.07855 0.0
C490 C 0.64201 0.50655 0.0596 0.0
C491 C 0.62839 0.53578 0.11779 0.0
C492 C 0.62952 0.5526 0.17253 0.0
C493 C 0.62496 0.50429 0.01573 0.0
C494 C 0.60963 0.51825 0.02147 0.0
C495 C 0.61137 0.53357 0.07366 0.0
C496 C 0.59212 0.51764 0.9714 0.0
C497 C 0.62355 0.48708 0.96287 0.0
C498 C 0.59428 0.52064 0.89412 0.0
C499 C 0.57793 0.52014 0.84653 0.0
C500 C 0.55899 0.51658 0.87506 0.0
C501 C 0.55683 0.51375 0.95271 0.0
C502 C 0.57322 0.51442 1.00045 0.0
H503 H 0.63405 0.47525 0.9781 0.0
H504 H 0.60844 0.48092 0.96241 0.0
H505 H 0.62705 0.49208 0.90528 0.0
H506 H 0.60867 0.52344 0.87054 0.0
H507 H 0.58021 0.52239 0.78716 0.0
H508 H 0.97363 0.71029 0.09333 0.0
H509 H 0.97779 0.67755 0.03981 0.0
H510 H 1.00889 0.65907 0.23803 0.0
H511 H 1.00475 0.69207 0.29226 0.0
H512 H 0.01569 0.65922 0.01462 0.0
H513 H 0.96694 0.6148 0.19876 0.0
H514 H 0.96432 0.64109 0.18995 0.0
H515 H 0.98435 0.63105 0.24279 0.0
C516 C 0.98116 0.6992 0.12601 0.0
C517 C 0.98882 0.70375 0.19701 0.0
C518 C 0.98356 0.6805 0.09525 0.0
C519 C 0.99355 0.6658 0.13493 0.0
C520 C 1.00092 0.67012 0.20673 0.0
H521 H 0.01556 0.54479 0.97769 0.0
H522 H 0.01402 0.57437 0.05609 0.0
C523 C 0.99858 0.68897 0.23761 0.0
C524 C 0.99698 0.64643 0.09845 0.0
H525 H 0.98282 0.59824 0.10018 0.0
C526 C 1.00861 0.64586 0.03367 0.0
C527 C 0.98789 0.62896 0.12364 0.0
C528 C 0.97507 0.62884 0.19236 0.0
C529 C 1.01112 0.62844 0.99263 0.0
C530 C 1.00131 0.61112 0.01573 0.0
C531 C 0.99023 0.6115 0.08211 0.0
C532 C 1.00166 0.59286 0.96954 0.0
C533 C 0.02432 0.62877 0.92484 0.0
C534 C 0.9948 0.59322 0.89537 0.0
C535 C 0.99572 0.57642 0.85049 0.0
C536 C 1.00334 0.5587 0.87882 0.0
C537 C 1.00966 0.55817 0.95391 0.0
C538 C 1.00879 0.57508 0.99886 0.0
H539 H 0.0353 0.64081 0.92845 0.0
H540 H 0.03224 0.61464 0.9181 0.0
H541 H 0.01528 0.63131 0.87401 0.0
H542 H 0.98877 0.60659 0.87191 0.0
H543 H 0.99053 0.57739 0.79327 0.0
H544 H 0.95783 0.25756 0.31886 0.0
H545 H 0.93937 0.24157 0.41997 0.0
H546 H 0.98275 0.19537 0.42712 0.0
H547 H 1.00152 0.21169 0.33042 0.0
H548 H 0.9214 0.20877 0.4135 0.0
H549 H 0.97324 0.19978 0.64308 0.0
H550 H 0.97776 0.2173 0.56918 0.0
H551 H 0.98646 0.19228 0.56159 0.0
C552 C 0.96368 0.24433 0.344 0.0
C553 C 0.981 0.23573 0.31624 0.0
C554 C 0.9531 0.23518 0.40155 0.0
C555 C 0.95979 0.21741 0.43243 0.0
C556 C 0.97752 0.20937 0.40649 0.0
H557 H 0.92135 0.11103 0.42192 0.0
H558 H 0.91974 0.14641 0.42152 0.0
C559 C 0.98809 0.21852 0.34985 0.0
C560 C 0.94725 0.2054 0.48263 0.0
H561 H 0.95391 0.16912 0.61037 0.0
C562 C 0.9282 0.20054 0.45858 0.0
C563 C 0.95533 0.19533 0.54463 0.0
C564 C 0.97423 0.20172 0.58145 0.0
C565 C 0.91862 0.18382 0.48635 0.0
C566 C 0.9288 0.17124 0.53617 0.0
C567 C 0.94626 0.17808 0.56952 0.0
C568 C 0.92439 0.14985 0.54114 0.0
C569 C 0.89817 0.17931 0.45869 0.0
C570 C 0.92728 0.13953 0.6084 0.0
C571 C 0.92939 0.1191 0.60787 0.0
C572 C 0.92823 0.10855 0.54018 0.0
C573 C 0.92297 0.11869 0.4747 0.0
C574 C 0.92149 0.13909 0.47484 0.0
H575 H 0.88915 0.1929 0.45862 0.0
H576 H 0.89887 0.17407 0.39992 0.0
H577 H 0.89073 0.1681 0.49374 0.0
H578 H 0.92946 0.14736 0.66053 0.0
H579 H 0.93344 0.11189 0.65962 0.0
H580 H 0.26446 0.97186 0.34432 0.0
H581 H 0.28053 0.95768 0.45445 0.0
H582 H 0.32991 0.99651 0.42157 0.0
H583 H 0.31345 0.01153 0.31584 0.0
H584 H 0.31117 0.93699 0.4553 0.0
H585 H 0.32881 0.99797 0.64069 0.0
H586 H 0.31069 1.00061 0.56741 0.0
H587 H 0.33632 1.00593 0.54982 0.0
C588 C 0.27843 0.97783 0.36237 0.0
C589 C 0.28779 0.9927 0.32084 0.0
C590 C 0.28763 0.96964 0.42516 0.0
C591 C 0.30633 0.97618 0.44744 0.0
C592 C 0.31524 0.99156 0.40756 0.0
H593 H 0.40887 0.92664 0.45698 0.0
H594 H 0.37347 0.92932 0.4585 0.0
C595 C 0.30599 0.99989 0.34576 0.0
C596 C 0.31811 0.96524 0.5036 0.0
H597 H 0.35661 0.97396 0.62007 0.0
C598 C 0.32066 0.94494 0.49352 0.0
C599 C 0.32986 0.9751 0.55702 0.0
C600 C 0.32601 0.99606 0.57982 0.0
C601 C 0.33663 0.93511 0.52608 0.0
C602 C 0.35079 0.94607 0.5664 0.0
C603 C 0.34635 0.96553 0.58651 0.0
C604 C 0.37154 0.93945 0.57353 0.0
C605 C 0.33866 0.91333 0.51325 0.0
C606 C 0.38259 0.94394 0.63776 0.0
C607 C 0.40312 0.94335 0.6356 0.0
C608 C 0.41297 0.93794 0.56942 0.0
C609 C 0.40181 0.93134 0.50821 0.0
C610 C 0.38137 0.93242 0.50974 0.0
H611 H 0.32416 0.90604 0.51973 0.0
H612 H 0.34357 0.91063 0.45493 0.0
H613 H 0.34925 0.9065 0.55278 0.0
H614 H 0.37544 0.94936 0.6878 0.0
H615 H 0.41115 0.94864 0.68389 0.0
H616 H 0.58554 0.28805 0.10963 0.0
H617 H 0.60675 0.31125 0.17612 0.0
H618 H 0.57292 0.30218 0.37736 0.0
H619 H 0.55227 0.27854 0.31168 0.0
H620 H 0.58792 0.34289 0.21442 0.0
H621 H 0.62489 0.3159 0.46836 0.0
H622 H 0.61682 0.29954 0.39478 0.0
H623 H 0.6 0.30738 0.46675 0.0
C624 C 0.58336 0.29029 0.1691 0.0
C625 C 0.56726 0.28174 0.20568 0.0
C626 C 0.59547 0.30351 0.20707 0.0
C627 C 0.59143 0.30854 0.28174 0.0
C628 C 0.57666 0.29829 0.32037 0.0
H629 H 0.56859 0.40342 0.54794 0.0
H630 H 0.57842 0.37176 0.49682 0.0
C631 C 0.56474 0.28484 0.28265 0.0
C632 C 0.59848 0.32755 0.31198 0.0
H633 H 0.61256 0.34994 0.47429 0.0
C634 C 0.59397 0.34444 0.27033 0.0
C635 C 0.60622 0.32958 0.38502 0.0
C636 C 0.61243 0.31207 0.43083 0.0
C637 C 0.59517 0.36318 0.30198 0.0
C638 C 0.6016 0.36514 0.377 0.0
C639 C 0.60759 0.34839 0.41687 0.0
C640 C 0.59915 0.38391 0.41758 0.0
C641 C 0.58786 0.38046 0.2568 0.0
C642 C 0.60815 0.40119 0.39217 0.0
C643 C 0.6021 0.41942 0.41969 0.0
C644 C 0.5872 0.42058 0.47411 0.0
C645 C 0.57961 0.40309 0.50428 0.0
C646 C 0.58545 0.38494 0.47599 0.0
H647 H 0.58021 0.37584 0.20469 0.0
H648 H 0.57754 0.38953 0.29028 0.0
H649 H 0.60049 0.38982 0.24057 0.0
H650 H 0.61903 0.40066 0.34807 0.0
H651 H 0.60833 0.43256 0.39531 0.0
H652 H 0.22485 0.57472 0.17075 0.0
H653 H 0.20543 0.59174 0.2641 0.0
H654 H 0.23819 0.56313 0.44007 0.0
H655 H 0.25672 0.54485 0.34636 0.0
H656 H 0.2024 0.5543 0.45285 0.0
H657 H 0.20269 0.63399 0.41322 0.0
H658 H 0.19883 0.62312 0.32328 0.0
H659 H 0.22153 0.6186 0.37302 0.0
C660 C 0.22824 0.57236 0.22934 0.0
C661 C 0.2419 0.55798 0.25108 0.0
C662 C 0.21735 0.58246 0.28298 0.0
C663 C 0.22029 0.5788 0.35956 0.0
C664 C 0.23562 0.5662 0.38136 0.0
H665 H 0.11557 0.58174 0.64547 0.0
H666 H 0.15047 0.58783 0.62103 0.0
C667 C 0.24628 0.5558 0.32759 0.0
C668 C 0.20457 0.58415 0.41344 0.0
H669 H 0.16998 0.61943 0.44576 0.0
C670 C 0.19577 0.56877 0.45368 0.0
C671 C 0.19584 0.603 0.41505 0.0
C672 C 0.20543 0.6206 0.37932 0.0
C673 C 0.17749 0.57113 0.48824 0.0
C674 C 0.16782 0.58944 0.48299 0.0
C675 C 0.17736 0.60534 0.44886 0.0
C676 C 0.14674 0.59108 0.50144 0.0
C677 C 0.16788 0.5535 0.52419 0.0
C678 C 0.13305 0.59198 0.44274 0.0
C679 C 0.11318 0.58846 0.45639 0.0
C680 C 0.10672 0.58396 0.52904 0.0
C681 C 0.12023 0.58479 0.58869 0.0
C682 C 0.14011 0.58838 0.57498 0.0
H683 H 0.17655 0.53984 0.51632 0.0
H684 H 0.16629 0.5561 0.5852 0.0
H685 H 0.15297 0.55115 0.50048 0.0
H686 H 0.13794 0.59396 0.38552 0.0
H687 H 0.10316 0.58786 0.40929 0.0
H688 H 0.02023 0.76583 0.08358 0.0
H689 H 0.03504 0.78206 0.97591 0.0
H690 H 0.07543 0.81212 0.12305 0.0
H691 H 0.0617 0.79492 0.22979 0.0
H692 H 0.03015 0.81864 0.96271 0.0
H693 H 0.10972 0.80812 0.94626 0.0
H694 H 0.09428 0.79156 0.99893 0.0
H695 H 0.10405 0.81354 0.04177 0.0
C696 C 0.03289 0.77516 0.09268 0.0
C697 C 0.03954 0.77939 0.16557 0.0
C698 C 0.04132 0.7845 0.0309 0.0
C699 C 0.05641 0.79833 0.04094 0.0
C700 C 0.06414 0.80124 0.11306 0.0
H701 H 0.07946 0.9115 0.98476 0.0
H702 H 0.08166 0.87596 0.99917 0.0
C703 C 0.05595 0.79168 0.17457 0.0
C704 C 0.06091 0.81283 0.98138 0.0
H705 H 0.0981 0.84246 0.92134 0.0
C706 C 0.04505 0.82338 0.95111 0.0
C707 C 0.08031 0.81897 0.96529 0.0
C708 C 0.09799 0.80723 0.9893 0.0
C709 C 0.04796 0.84118 0.91362 0.0
C710 C 0.0673 0.84851 0.9057 0.0
C711 C 0.08327 0.83693 0.92854 0.0
C712 C 0.07068 0.86943 0.88813 0.0
C713 C 0.03019 0.85291 0.88962 0.0
C714 C 0.06468 0.87748 0.81958 0.0
C715 C 0.06325 0.89783 0.81147 0.0
C716 C 0.068 0.91035 0.87155 0.0
C717 C 0.07574 0.90224 0.93752 0.0
C718 C 0.07704 0.88193 0.94574 0.0
H719 H 0.01617 0.8459 0.90687 0.0
H720 H 0.03076 0.8679 0.91394 0.0
H721 H 0.03007 0.85435 0.82776 0.0
H722 H 0.06 0.86806 0.77411 0.0
H723 H 0.05759 0.90375 0.75943 0.0
H724 H 0.70818 0.99891 0.11598 0.0
H725 H 0.69232 0.01225 0.0056 0.0
H726 H 0.74373 0.04731 0.95881 0.0
H727 H 0.7594 0.03456 0.07268 0.0
H728 H 0.71394 0.06978 0.95617 0.0
H729 H 0.69243 1.00709 0.78639 0.0
H730 H 0.68474 1.00082 0.87898 0.0
H731 H 0.71058 1.00453 0.85961 0.0
C732 C 0.71625 1.00923 0.0816 0.0
C733 C 0.73488 0.01593 0.10357 0.0
C734 C 0.70731 0.01661 0.01745 0.0
C735 C 0.71692 0.03059 0.9727 0.0
C736 C 0.73608 0.03642 0.99198 0.0
H737 H 0.61172 0.0601 0.74034 0.0
H738 H 0.6473 0.05705 0.7339 0.0
C739 C 0.74504 0.02908 0.05686 0.0
C740 C 0.70539 0.04121 0.91487 0.0
H741 H 0.66553 0.03253 0.80528 0.0
C742 C 0.7038 0.06171 0.9208 0.0
C743 C 0.69276 0.03112 0.86512 0.0
C744 C 0.69547 1.0097 0.8467 0.0
C745 C 0.68796 0.07176 0.88819 0.0
C746 C 0.673 0.06086 0.852 0.0
C747 C 0.67643 0.04097 0.8356 0.0
C748 C 0.65251 0.06832 0.84557 0.0
C749 C 0.68695 0.09375 0.89668 0.0
C750 C 0.64349 0.07675 0.90866 0.0
C751 C 0.62317 0.0791 0.91154 0.0
C752 C 0.61125 0.07243 0.85254 0.0
C753 C 0.62036 0.06548 0.78692 0.0
C754 C 0.64079 0.06356 0.78333 0.0
H755 H 0.70168 0.10031 0.88731 0.0
H756 H 0.67637 0.10047 0.85684 0.0
H757 H 0.68257 0.09746 0.95481 0.0
H758 H 0.65189 0.0801 0.9585 0.0
H759 H 0.61673 0.08496 0.96224 0.0
H760 H 0.51623 0.70648 0.1465 0.0
H761 H 0.50376 0.68989 0.03606 0.0
H762 H 0.46963 0.74112 0.97834 0.0
H763 H 0.48152 0.75759 0.09196 0.0
H764 H 0.44714 0.71072 0.97401 0.0
H765 H 0.51259 0.69004 0.81745 0.0
H766 H 0.51743 0.68302 0.91213 0.0
H767 H 0.51359 0.70861 0.8895 0.0
C768 C 0.50624 0.71432 0.10993 0.0
C769 C 0.49965 0.73322 0.12841 0.0
C770 C 0.49938 0.70496 0.04581 0.0
C771 C 0.48603 0.71437 0.99771 0.0
C772 C 0.48009 0.73364 0.0141 0.0
H773 H 0.46041 0.60984 0.75296 0.0
H774 H 0.46335 0.64544 0.75038 0.0
C775 C 0.48692 0.74304 0.07886 0.0
C776 C 0.47633 0.70268 0.93809 0.0
H777 H 0.48699 0.66338 0.82839 0.0
C778 C 0.45579 0.70079 0.93992 0.0
C779 C 0.48726 0.69034 0.89011 0.0
C780 C 0.50892 0.69336 0.87667 0.0
C781 C 0.44639 0.68496 0.90465 0.0
C782 C 0.45795 0.67032 0.86979 0.0
C783 C 0.47802 0.67405 0.85768 0.0
C784 C 0.45082 0.64982 0.86052 0.0
C785 C 0.42432 0.68357 0.9089 0.0
C786 C 0.44185 0.64033 0.92148 0.0
C787 C 0.43964 0.62 0.92223 0.0
C788 C 0.44694 0.60855 0.86313 0.0
C789 C 0.45452 0.61813 0.7995 0.0
C790 C 0.45636 0.63857 0.7981 0.0
H791 H 0.41765 0.69825 0.89958 0.0
H792 H 0.41825 0.67317 0.86695 0.0
H793 H 0.41995 0.67876 0.96585 0.0
H794 H 0.43791 0.64839 0.97144 0.0
H795 H 0.43335 0.61317 0.97141 0.0
H796 H 0.76077 0.4788 0.1028 0.0
H797 H 0.77683 0.46636 0.98928 0.0
H798 H 0.82989 0.49722 0.05055 0.0
H799 H 0.81368 0.51058 0.15998 0.0
H800 H 0.8241 0.49828 0.90254 0.0
H801 H 0.81449 0.42134 1.00282 0.0
H802 H 0.79306 0.43572 0.98169 0.0
H803 H 0.80797 0.44183 0.06147 0.0
C804 C 0.77572 0.48324 0.0909 0.0
C805 C 0.78614 0.49529 0.14128 0.0
C806 C 0.78494 0.47596 0.02647 0.0
C807 C 0.80472 0.48045 0.01225 0.0
C808 C 0.81464 0.49343 0.0603 0.0
H809 H 0.9075 0.43513 0.99199 0.0
H810 H 0.87215 0.43901 0.98937 0.0
C811 C 0.80544 0.50086 0.1236 0.0
C812 C 0.81624 0.47071 0.95239 0.0
H813 H 0.84068 0.42772 0.92344 0.0
C814 C 0.82749 0.48274 0.9053 0.0
C815 C 0.82016 0.45032 0.95455 0.0
C816 C 0.80837 0.43646 1.0028 0.0
C817 C 0.84463 0.47573 0.87103 0.0
C818 C 0.85003 0.45579 0.88141 0.0
C819 C 0.83678 0.44307 0.91728 0.0
C820 C 0.87082 0.44928 0.87445 0.0
C821 C 0.85778 0.49037 0.832 0.0
C822 C 0.88194 0.45255 0.80952 0.0
C823 C 0.90246 0.45126 0.81217 0.0
C824 C 0.9121 0.44592 0.87909 0.0
C825 C 0.90067 0.44007 0.94054 0.0
C826 C 0.88032 0.44198 0.9386 0.0
H827 H 0.85224 0.50566 0.83682 0.0
H828 H 0.87284 0.48994 0.85588 0.0
H829 H 0.85864 0.48677 0.77154 0.0
H830 H 0.87495 0.45733 0.75825 0.0
H831 H 0.91069 0.45576 0.7633 0.0
H832 H 0.03257 0.20708 0.15079 0.0
H833 H 0.03548 0.17751 0.07392 0.0
H834 H 0.99732 0.20331 0.90808 0.0
H835 H 0.99456 0.23313 0.98512 0.0
H836 H 1.00201 0.15518 0.04251 0.0
H837 H 0.03987 0.17636 0.77916 0.0
H838 H 0.0414 0.19096 0.86343 0.0
H839 H 0.01961 0.19165 0.80677 0.0
C840 C 0.02543 0.20674 0.09653 0.0
C841 C 0.01353 0.22249 0.07348 0.0
C842 C 0.02697 0.18977 0.05288 0.0
C843 C 0.01666 0.18811 0.98502 0.0
C844 C 1.00569 0.20431 0.95953 0.0
H845 H 0.99575 0.08554 0.6971 0.0
H846 H 0.99678 0.1187 0.75014 0.0
C847 C 1.00418 0.2214 1.00337 0.0
C848 C 0.01557 0.16866 0.94664 0.0
H849 H 0.02697 0.14409 0.78532 0.0
C850 C 1.00753 0.15277 0.98632 0.0
C851 C 0.02247 0.16552 0.87291 0.0
C852 C 0.03147 0.18195 0.82798 0.0
C853 C 1.00626 0.13391 0.95475 0.0
C854 C 0.01371 0.13057 0.88184 0.0
C855 C 0.02139 0.14655 0.84137 0.0
C856 C 0.01385 0.11055 0.84756 0.0
C857 C 0.99657 0.11782 0.99956 0.0
C858 C 0.02344 0.0949 0.88358 0.0
C859 C 0.02276 0.07589 0.85374 0.0
C860 C 0.01269 0.07205 0.78641 0.0
C861 C 1.00362 0.08787 0.74908 0.0
C862 C 1.00421 0.1069 0.77931 0.0
H863 H 0.98651 0.12389 0.0427 0.0
H864 H 0.98807 0.10775 0.96288 0.0
H865 H 1.00803 0.10916 0.0289 0.0
H866 H 0.03141 0.09736 0.93525 0.0
H867 H 0.03011 0.06419 0.88374 0.0
H868 H 0.2997 0.98051 0.03232 0.0
H869 H 0.32999 0.98227 0.95833 0.0
H870 H 0.33293 0.04465 0.99711 0.0
H871 H 0.30249 0.04288 0.07097 0.0
H872 H 0.34558 0.03163 0.84666 0.0
H873 H 0.38163 0.99135 0.07978 0.0
H874 H 0.36031 0.97958 0.04069 0.0
H875 H 0.35773 1.00255 0.08905 0.0
C876 C 0.30639 0.9947 0.02237 0.0
C877 C 0.29858 0.01162 0.05609 0.0
C878 C 0.32383 0.99567 0.98092 0.0
C879 C 0.33392 0.01354 0.97304 0.0
C880 C 0.32541 0.0307 1.00235 0.0
H881 H 0.4597 0.02705 0.90164 0.0
H882 H 0.4259 0.02796 0.94788 0.0
C883 C 0.30793 0.02973 0.04395 0.0
C884 C 0.35415 0.01395 0.94093 0.0
H885 H 0.40099 0.99781 0.97313 0.0
C886 C 0.35771 0.02424 0.87418 0.0
C887 C 0.37007 1.00455 0.97744 0.0
C888 C 0.36738 0.99401 0.05104 0.0
C889 C 0.37667 0.02512 0.84249 0.0
C890 C 0.39251 0.01532 0.87816 0.0
C891 C 0.38892 1.00525 0.9454 0.0
C892 C 0.41299 0.0155 0.8478 0.0
C893 C 0.37963 0.0369 0.77191 0.0
C894 C 0.41716 1.00808 0.77614 0.0
C895 C 0.43653 1.00763 0.74931 0.0
C896 C 0.45226 0.01439 0.79381 0.0
C897 C 0.44803 0.02175 0.86563 0.0
C898 C 0.42866 0.02228 0.89225 0.0
H899 H 0.36764 0.04776 0.76347 0.0
H900 H 0.39389 0.04482 0.77307 0.0
H901 H 0.37964 0.02683 0.7231 0.0
H902 H 0.40549 1.00228 0.74134 0.0
H903 H 0.43917 1.00164 0.69408 0.0
H904 H 0.49314 0.30367 0.10167 0.0
H905 H 0.48624 0.33505 0.03938 0.0
H906 H 0.5297 0.32162 0.87169 0.0
H907 H 0.53668 0.29042 0.9344 0.0
H908 H 0.537 0.35626 0.94907 0.0
H909 H 0.45995 0.35536 0.84678 0.0
H910 H 0.46325 0.34764 0.94217 0.0
H911 H 0.4734 0.33316 0.86763 0.0
C912 C 0.50043 0.30699 0.0493 0.0
C913 C 0.51512 0.29442 0.02183 0.0
C914 C 0.4966 0.32501 0.01393 0.0
C915 C 0.50739 0.33074 0.95048 0.0
C916 C 0.5211 0.31753 0.92022 0.0
H917 H 0.53069 0.44087 0.71845 0.0
H918 H 0.52944 0.4068 0.7604 0.0
C919 C 0.52492 0.29958 0.95552 0.0
C920 C 0.50656 0.35136 0.92215 0.0
H921 H 0.47635 0.38618 0.8458 0.0
C922 C 0.52376 0.36273 0.92595 0.0
C923 C 0.48923 0.35996 0.89316 0.0
C924 C 0.47041 0.3484 0.88649 0.0
C925 C 0.52411 0.3824 0.90221 0.0
C926 C 0.50689 0.39095 0.87178 0.0
C927 C 0.48959 0.37965 0.86864 0.0
C928 C 0.50669 0.41156 0.84294 0.0
C929 C 0.54286 0.39398 0.91193 0.0
C930 C 0.49377 0.42558 0.87299 0.0
C931 C 0.4943 0.44516 0.84847 0.0
C932 C 0.50777 0.45116 0.79321 0.0
C933 C 0.5203 0.43693 0.76178 0.0
C934 C 0.51966 0.41738 0.78598 0.0
H935 H 0.55253 0.38738 0.95532 0.0
H936 H 0.55107 0.39402 0.85832 0.0
H937 H 0.53975 0.40942 0.92786 0.0
H938 H 0.48354 0.42147 0.91666 0.0
H939 H 0.48438 0.45564 0.87383 0.0
H940 H 0.22029 0.48577 0.10224 0.0
H941 H 0.18911 0.47884 0.03742 0.0
H942 H 0.19524 0.53256 0.91193 0.0
H943 H 0.2263 0.53929 0.9759 0.0
H944 H 0.15701 0.50255 0.05034 0.0
H945 H 0.17574 0.4959 0.75036 0.0
H946 H 0.19401 0.49404 0.82343 0.0
H947 H 0.18575 0.51773 0.79164 0.0
C948 C 0.21537 0.49557 0.05831 0.0
C949 C 0.2259 0.51283 0.04279 0.0
C950 C 0.19745 0.49175 0.0219 0.0
C951 C 0.18983 0.50506 0.969 0.0
C952 C 0.20093 0.52179 0.9509 0.0
H953 H 0.07912 0.53371 0.75893 0.0
H954 H 0.11303 0.53146 0.80338 0.0
C955 C 0.21874 0.52562 0.98738 0.0
C956 C 0.16937 0.50287 0.93951 0.0
H957 H 0.14201 0.50321 0.77859 0.0
C958 C 0.15375 0.50236 0.99089 0.0
C959 C 0.16502 0.50282 0.86192 0.0
C960 C 0.18103 0.50246 0.80367 0.0
C961 C 0.13402 0.50255 0.96706 0.0
C962 C 0.12967 0.5029 0.88949 0.0
C963 C 0.14528 0.503 0.83803 0.0
C964 C 0.10905 0.50379 0.86081 0.0
C965 C 0.11801 0.50322 0.02536 0.0
C966 C 0.09547 0.48885 0.87714 0.0
C967 C 0.07599 0.4901 0.85183 0.0
C968 C 0.06962 0.50628 0.80914 0.0
C969 C 0.08338 0.52104 0.79173 0.0
C970 C 0.10285 0.51977 0.81704 0.0
H971 H 0.12374 0.50774 0.08102 0.0
H972 H 0.10618 0.51355 0.00861 0.0
H973 H 0.11145 0.48839 0.03128 0.0
H974 H 0.09995 0.47617 0.90948 0.0
H975 H 0.06591 0.47837 0.86596 0.0
H976 H 0.03859 0.80049 0.43898 0.0
H977 H 0.03396 0.83146 0.50609 0.0
H978 H 0.97232 0.83053 0.45027 0.0
H979 H 0.97697 0.79936 0.38299 0.0
H980 H 0.99223 0.865 0.40575 0.0
H981 H 1.00808 0.84853 0.70343 0.0
H982 H 0.02652 0.83969 0.64007 0.0
H983 H 1.0021 0.82963 0.63618 0.0
C984 C 0.02392 0.80653 0.44345 0.0
C985 C 1.00809 0.79737 0.40659 0.0
C986 C 0.02128 0.82426 0.4818 0.0
C987 C 1.00276 0.83334 0.48388 0.0
C988 C 0.98672 0.82376 0.45 0.0
H989 H 0.97255 0.95594 0.5938 0.0
H990 H 0.97077 0.92148 0.55554 0.0
C991 C 0.98933 0.80586 0.41218 0.0
C992 C 1.00079 0.85376 0.51347 0.0
H993 H 1.00872 0.88236 0.66803 0.0
C994 C 0.99554 0.86877 0.4634 0.0
C995 C 1.0054 0.85875 0.58839 0.0
C996 C 1.01068 0.84329 0.64538 0.0
C997 C 0.99544 0.88863 0.48527 0.0
C998 C 1.00014 0.89369 0.56022 0.0
C999 C 1.00506 0.8786 0.61067 0.0
C1000 C 1.00075 0.91456 0.58657 0.0
C1001 C 0.99119 0.90403 0.42668 0.0
C1002 C 0.0179 0.92213 0.61968 0.0
C1003 C 0.01886 0.94179 0.64253 0.0
C1004 C 1.00269 0.95445 0.63292 0.0
C1005 C 0.98538 0.94675 0.60117 0.0
C1006 C 0.98439 0.92702 0.57881 0.0
H1007 H 0.99351 0.8983 0.36912 0.0
H1008 H 0.97561 0.90864 0.43118 0.0
H1009 H 1.00063 0.91716 0.43453 0.0
H1010 H 0.03071 0.91288 0.6269 0.0
H1011 H 0.03242 0.94708 0.66711 0.0
H1012 H 0.72611 0.97707 0.40799 0.0
H1013 H 0.69615 0.97593 0.48516 0.0
H1014 H 0.68426 0.0364 0.43107 0.0
H1015 H 0.71405 0.03762 0.35462 0.0
H1016 H 0.67866 1.00508 0.61005 0.0
H1017 H 0.6384 0.99899 0.33961 0.0
H1018 H 0.66401 0.99246 0.3489 0.0
H1019 H 0.6569 0.0178 0.34617 0.0
C1020 C 0.7175 0.9903 0.41502 0.0
C1021 C 0.72243 1.00743 0.3753 0.0
C1022 C 0.70032 0.98961 0.45866 0.0
C1023 C 0.68786 1.00604 0.4632 0.0
C1024 C 0.69359 0.02354 0.42814 0.0
H1025 H 0.57887 0.03263 0.69636 0.0
H1026 H 0.61267 0.03159 0.65032 0.0
C1027 C 0.71066 0.02424 0.38472 0.0
C1028 C 0.66789 1.00447 0.4968 0.0
H1029 H 0.61928 1.00276 0.44862 0.0
C1030 C 0.66566 1.00447 0.57493 0.0
C1031 C 0.65095 1.00352 0.45092 0.0
C1032 C 0.65254 1.00306 0.36668 0.0
C1033 C 0.64687 1.00393 0.60823 0.0
C1034 C 0.62988 1.00356 0.56216 0.0
C1035 C 0.63223 1.00312 0.48407 0.0
C1036 C 0.6095 1.00376 0.59329 0.0
C1037 C 0.64535 1.00353 0.69242 0.0
C1038 C 0.59619 0.98869 0.57535 0.0
C1039 C 0.57673 0.9893 0.60105 0.0
C1040 C 0.57004 1.00511 0.64493 0.0
C1041 C 0.58344 0.02018 0.66298 0.0
C1042 C 0.60289 0.01953 0.63723 0.0
H1043 H 0.6594 0.99901 0.71901 0.0
H1044 H 0.64162 0.01843 0.71293 0.0
H1045 H 0.63357 0.99333 0.71074 0.0
H1046 H 0.60085 0.97643 0.54109 0.0
H1047 H 0.5669 0.97745 0.58586 0.0
H1048 H 0.47768 0.7214 0.40317 0.0
H1049 H 0.47738 0.69222 0.48328 0.0
H1050 H 0.54075 0.69251 0.48773 0.0
H1051 H 0.54095 0.72208 0.40939 0.0
H1052 H 0.49134 0.65822 0.43751 0.0
H1053 H 0.52978 0.67712 0.70121 0.0
H1054 H 0.52005 0.69558 0.6387 0.0
H1055 H 0.54331 0.68411 0.61939 0.0
C1056 C 0.49149 0.71572 0.42419 0.0
C1057 C 0.50933 0.72421 0.40141 0.0
C1058 C 0.49134 0.69893 0.46938 0.0
C1059 C 0.50903 0.6901 0.49232 0.0
C1060 C 0.52688 0.69921 0.47271 0.0
H1061 H 0.52707 0.56563 0.55158 0.0
H1062 H 0.52558 0.59978 0.51069 0.0
C1063 C 0.52701 0.71616 0.42795 0.0
C1064 C 0.50877 0.67016 0.52744 0.0
H1065 H 0.52648 0.64288 0.67372 0.0
C1066 C 0.49888 0.65499 0.4896 0.0
C1067 C 0.5184 0.6658 0.59584 0.0
C1068 C 0.52832 0.68155 0.64161 0.0
C1069 C 0.49881 0.63563 0.51677 0.0
C1070 C 0.50932 0.63104 0.58294 0.0
C1071 C 0.51866 0.64629 0.6224 0.0
C1072 C 0.51111 0.61042 0.61049 0.0
C1073 C 0.48734 0.62025 0.47432 0.0
C1074 C 0.50407 0.60502 0.6815 0.0
C1075 C 0.50499 0.5854 0.70543 0.0
C1076 C 0.5131 0.57077 0.65897 0.0
C1077 C 0.52057 0.57638 0.58871 0.0
C1078 C 0.51966 0.59595 0.56501 0.0
H1079 H 0.47566 0.62696 0.43915 0.0
H1080 H 0.49744 0.61216 0.43666 0.0
H1081 H 0.48043 0.60954 0.51305 0.0
H1082 H 0.49751 0.61592 0.71782 0.0
H1083 H 0.49906 0.58167 0.75984 0.0
H1084 H 0.79801 0.53919 0.41577 0.0
H1085 H 0.82845 0.53989 0.49 0.0
H1086 H 0.82913 0.47662 0.49415 0.0
H1087 H 0.79904 0.47595 0.4186 0.0
H1088 H 0.84316 0.52448 0.62652 0.0
H1089 H 0.87935 0.4904 0.38049 0.0
H1090 H 0.85466 0.49994 0.37675 0.0
H1091 H 0.85935 0.47629 0.41774 0.0
C1092 C 0.80427 0.52548 0.43512 0.0
C1093 C 0.7961 0.50752 0.41206 0.0
C1094 C 0.82176 0.52587 0.47701 0.0
C1095 C 0.83137 0.5083 0.49629 0.0
C1096 C 0.82224 0.49037 0.47877 0.0
H1097 H 0.94001 0.49683 0.76083 0.0
H1098 H 0.9058 0.4959 0.71849 0.0
C1099 C 0.8049 0.48998 0.43648 0.0
C1100 C 0.85175 0.50868 0.52754 0.0
H1101 H 0.89898 0.49502 0.48804 0.0
C1102 C 0.85536 0.51798 0.59645 0.0
C1103 C 0.86779 0.50055 0.48763 0.0
C1104 C 0.86521 0.4914 0.41124 0.0
C1105 C 0.8745 0.51918 0.62667 0.0
C1106 C 0.89044 0.51062 0.5875 0.0
C1107 C 0.88679 0.50143 0.5185 0.0
C1108 C 0.91116 0.51162 0.61517 0.0
C1109 C 0.87764 0.53026 0.69882 0.0
C1110 C 0.92578 0.52029 0.57059 0.0
C1111 C 0.94542 0.52065 0.59424 0.0
C1112 C 0.95097 0.51233 0.6632 0.0
C1113 C 0.9363 0.50362 0.70784 0.0
C1114 C 0.91664 0.50318 0.6839 0.0
H1115 H 0.86463 0.53922 0.71422 0.0
H1116 H 0.88046 0.5197 0.74481 0.0
H1117 H 0.89064 0.54004 0.69436 0.0
H1118 H 0.92199 0.52679 0.51714 0.0
H1119 H 0.95625 0.52745 0.55826 0.0
loop_
_geom_bond_atom_site_label_1
_geom_bond_atom_site_label_2
_geom_bond_distance
_geom_bond_site_symmetry_2
_ccdc_geom_bond_type
H0 C5 0.930 . S
H1 C8 0.930 . S
H2 C10 0.930 . S
H3 C4 1.016 . S
C4 H3 1.016 . S
C4 N11 1.286 . S
C5 H0 0.930 . S
C5 C6 1.397 . S
C5 C7 1.361 . S
C6 C5 1.397 . S
C6 C10 1.390 . S
C7 C5 1.361 . S
C7 C8 1.393 . S
C7 N11 1.413 . S
C8 H1 0.930 . S
C8 C7 1.393 . S
C8 C9 1.399 . S
C9 C8 1.399 . S
C9 C10 1.381 . S
C10 H2 0.930 . S
C10 C6 1.390 . S
C10 C9 1.381 . S
N11 C4 1.286 . S
N11 C7 1.413 . S
H12 C17 0.930 . S
H13 C20 0.930 . S
H14 C22 0.930 . S
H15 C16 1.029 . S
C16 H15 1.029 . S
C16 N23 1.268 1_655 S
C17 H12 0.930 . S
C17 C18 1.407 . S
C17 C19 1.361 . S
C18 C17 1.407 . S
C18 C22 1.385 1_455 S
C19 C17 1.361 . S
C19 C20 1.393 . S
C19 N23 1.413 . S
C20 H13 0.930 . S
C20 C19 1.393 . S
C20 C21 1.402 . S
C21 C20 1.402 . S
C21 C22 1.379 1_455 S
C22 H14 0.930 . S
C22 C18 1.385 1_655 S
C22 C21 1.379 1_655 S
N23 C16 1.268 1_455 S
N23 C19 1.413 . S
H24 C29 0.930 . S
H25 C32 0.930 . S
H26 C34 0.930 . S
H27 C28 1.029 . S
C28 H27 1.029 . S
C28 N35 1.268 1_565 S
C29 H24 0.930 . S
C29 C30 1.407 . S
C29 C31 1.361 . S
C30 C29 1.407 . S
C30 C34 1.385 1_545 S
C31 C29 1.361 . S
C31 C32 1.393 . S
C31 N35 1.413 . S
C32 H25 0.930 . S
C32 C31 1.393 . S
C32 C33 1.402 . S
C33 C32 1.402 . S
C33 C34 1.379 1_545 S
C34 H26 0.930 . S
C34 C30 1.385 1_565 S
C34 C33 1.379 1_565 S
N35 C28 1.268 1_545 S
N35 C31 1.413 . S
H36 C41 0.930 . S
H37 C44 0.930 . S
H38 C46 0.930 . S
H39 C40 1.016 . S
C40 H39 1.016 . S
C40 N47 1.286 . S
C41 H36 0.930 . S
C41 C42 1.397 . S
C41 C43 1.361 . S
C42 C41 1.397 . S
C42 C46 1.390 . S
C43 C41 1.361 . S
C43 C44 1.393 . S
C43 N47 1.413 . S
C44 H37 0.930 . S
C44 C43 1.393 . S
C44 C45 1.399 . S
C45 C44 1.399 . S
C45 C46 1.381 . S
C46 H38 0.930 . S
C46 C42 1.390 . S
C46 C45 1.381 . S
N47 C40 1.286 . S
N47 C43 1.413 . S
H48 C53 0.930 . S
H49 C56 0.930 . S
H50 C58 0.930 . S
H51 C52 1.016 . S
C52 H51 1.016 . S
C52 N59 1.286 . S
C53 H48 0.930 . S
C53 C54 1.397 . S
C53 C55 1.361 1_556 S
C54 C53 1.397 . S
C54 C58 1.390 1_556 S
C55 C53 1.361 1_554 S
C55 C56 1.393 . S
C55 N59 1.413 . S
C56 H49 0.930 . S
C56 C55 1.393 . S
C56 C57 1.399 . S
C57 C56 1.399 . S
C57 C58 1.381 . S
C58 H50 0.930 . S
C58 C54 1.390 1_554 S
C58 C57 1.381 . S
N59 C52 1.286 . S
N59 C55 1.413 . S
H60 C65 0.930 . S
H61 C68 0.930 . S
H62 C70 0.930 . S
H63 C64 1.025 . S
C64 H63 1.025 . S
C64 N71 1.274 1_655 S
C65 H60 0.930 . S
C65 C66 1.410 . S
C65 C67 1.361 1_556 S
C66 C65 1.410 . S
C66 C70 1.384 1_456 S
C67 C65 1.361 1_554 S
C67 C68 1.393 . S
C67 N71 1.413 . S
C68 H61 0.930 . S
C68 C67 1.393 . S
C68 C69 1.404 . S
C69 C68 1.404 . S
C69 C70 1.378 1_455 S
C70 H62 0.930 . S
C70 C66 1.384 1_654 S
C70 C69 1.378 1_655 S
N71 C64 1.274 1_455 S
N71 C67 1.413 . S
H72 C77 0.930 . S
H73 C80 0.930 . S
H74 C82 0.930 . S
H75 C76 1.025 . S
C76 H75 1.025 . S
C76 N83 1.274 1_565 S
C77 H72 0.930 . S
C77 C78 1.410 . S
C77 C79 1.361 1_556 S
C78 C77 1.410 . S
C78 C82 1.384 1_546 S
C79 C77 1.361 1_554 S
C79 C80 1.393 . S
C79 N83 1.413 . S
C80 H73 0.930 . S
C80 C79 1.393 . S
C80 C81 1.404 . S
C81 C80 1.404 . S
C81 C82 1.378 1_545 S
C82 H74 0.930 . S
C82 C78 1.384 1_564 S
C82 C81 1.378 1_565 S
N83 C76 1.274 1_545 S
N83 C79 1.413 . S
H84 C89 0.930 . S
H85 C92 0.930 . S
H86 C94 0.930 . S
H87 C88 1.016 . S
C88 H87 1.016 . S
C88 N95 1.286 . S
C89 H84 0.930 . S
C89 C90 1.397 . S
C89 C91 1.361 1_556 S
C90 C89 1.397 . S
C90 C94 1.390 1_556 S
C91 C89 1.361 1_554 S
C91 C92 1.393 . S
C91 N95 1.413 . S
C92 H85 0.930 . S
C92 C91 1.393 . S
C92 C93 1.399 . S
C93 C92 1.399 . S
C93 C94 1.381 . S
C94 H86 0.930 . S
C94 C90 1.390 1_554 S
C94 C93 1.381 . S
N95 C88 1.286 . S
N95 C91 1.413 . S
Tb96 C106 2.825 . S
Tb96 O107 2.347 1_455 S
Tb96 O110 2.366 . S
Tb96 O115 2.418 . S
Tb96 O116 2.384 1_565 S
Tb96 O119 2.479 . S
Tb96 O120 2.471 . S
Eu97 O108 2.418 . S
Eu97 O109 2.384 1_545 S
Eu97 O112 2.479 . S
Eu97 O113 2.471 . S
Eu97 O114 2.347 1_655 S
Eu97 O117 2.366 . S
Eu97 C127 2.825 . S
C98 O114 1.259 1_565 S
C98 O115 1.265 . S
C99 O116 1.255 . S
C99 O117 1.265 1_455 S
C100 C102 1.380 . S
C100 C103 1.374 . S
C100 C106 1.507 . S
C101 C102 1.384 . S
C101 C105 1.387 . S
C101 H128 0.930 . S
C102 C100 1.380 . S
C102 C101 1.384 . S
C102 H129 0.931 . S
C103 C100 1.374 . S
C103 C104 1.390 . S
C103 H130 0.930 1_455 S
C104 C103 1.390 . S
C104 C105 1.391 . S
C104 H131 0.930 1_455 S
C105 C101 1.387 . S
C105 C104 1.391 . S
C106 Tb96 2.825 . S
C106 C100 1.507 . S
C106 O119 1.238 . S
C106 O120 1.247 . S
O107 Tb96 2.347 1_655 S
O107 C111 1.259 1_565 S
O108 Eu97 2.418 . S
O108 C111 1.265 . S
O109 Eu97 2.384 1_565 S
O109 C118 1.255 . S
O110 Tb96 2.366 . S
O110 C118 1.265 1_455 S
C111 O107 1.259 1_545 S
C111 O108 1.265 . S
O112 Eu97 2.479 . S
O112 C127 1.238 . S
O113 Eu97 2.471 . S
O113 C127 1.247 . S
O114 Eu97 2.347 1_455 S
O114 C98 1.259 1_545 S
O115 Tb96 2.418 . S
O115 C98 1.265 . S
O116 Tb96 2.384 1_545 S
O116 C99 1.255 . S
O117 Eu97 2.366 . S
O117 C99 1.265 1_655 S
C118 O109 1.255 . S
C118 O110 1.265 1_655 S
O119 Tb96 2.479 . S
O119 C106 1.238 . S
O120 Tb96 2.471 . S
O120 C106 1.247 . S
C121 C124 1.380 . S
C121 C125 1.374 . S
C121 C127 1.507 . S
C122 C123 1.387 . S
C122 C126 1.391 . S
C123 C122 1.387 . S
C123 C124 1.384 . S
C123 H132 0.930 . S
C124 C121 1.380 . S
C124 C123 1.384 . S
C124 H133 0.931 . S
C125 C121 1.374 . S
C125 C126 1.390 . S
C125 H134 0.930 1_655 S
C126 C122 1.391 . S
C126 C125 1.390 . S
C126 H135 0.930 1_655 S
C127 Eu97 2.825 . S
C127 O112 1.238 . S
C127 O113 1.247 . S
C127 C121 1.507 . S
H128 C101 0.930 . S
H129 C102 0.931 . S
H130 C103 0.930 1_655 S
H131 C104 0.930 1_655 S
H132 C123 0.930 . S
H133 C124 0.931 . S
H134 C125 0.930 1_455 S
H135 C126 0.930 1_455 S
Tb136 C146 2.825 . S
Tb136 O147 2.347 1_545 S
Tb136 O150 2.366 . S
Tb136 O155 2.418 . S
Tb136 O156 2.384 . S
Tb136 O159 2.479 . S
Tb136 O160 2.471 . S
Eu137 O148 2.418 . S
Eu137 O149 2.384 . S
Eu137 O152 2.479 . S
Eu137 O153 2.471 . S
Eu137 O154 2.347 1_565 S
Eu137 O157 2.366 . S
Eu137 C167 2.825 . S
C138 O154 1.259 . S
C138 O155 1.265 . S
C139 O156 1.255 . S
C139 O157 1.265 1_545 S
C140 C142 1.380 . S
C140 C143 1.374 . S
C140 C146 1.507 . S
C141 C142 1.384 . S
C141 C145 1.387 . S
C141 H168 0.930 . S
C142 C140 1.380 . S
C142 C141 1.384 . S
C142 H169 0.931 . S
C143 C140 1.374 . S
C143 C144 1.390 . S
C143 H170 0.930 1_545 S
C144 C143 1.390 . S
C144 C145 1.391 . S
C144 H171 0.930 1_545 S
C145 C141 1.387 . S
C145 C144 1.391 . S
C146 Tb136 2.825 . S
C146 C140 1.507 . S
C146 O159 1.238 . S
C146 O160 1.247 . S
O147 Tb136 2.347 1_565 S
O147 C151 1.259 . S
O148 Eu137 2.418 . S
O148 C151 1.265 . S
O149 Eu137 2.384 . S
O149 C158 1.255 . S
O150 Tb136 2.366 . S
O150 C158 1.265 1_545 S
C151 O147 1.259 . S
C151 O148 1.265 . S
O152 Eu137 2.479 . S
O152 C167 1.238 . S
O153 Eu137 2.471 . S
O153 C167 1.247 . S
O154 Eu137 2.347 1_545 S
O154 C138 1.259 . S
O155 Tb136 2.418 . S
O155 C138 1.265 . S
O156 Tb136 2.384 . S
O156 C139 1.255 . S
O157 Eu137 2.366 . S
O157 C139 1.265 1_565 S
C158 O149 1.255 . S
C158 O150 1.265 1_565 S
O159 Tb136 2.479 . S
O159 C146 1.238 . S
O160 Tb136 2.471 . S
O160 C146 1.247 . S
C161 C164 1.380 . S
C161 C165 1.374 . S
C161 C167 1.507 . S
C162 C163 1.387 . S
C162 C166 1.391 . S
C163 C162 1.387 . S
C163 C164 1.384 . S
C163 H172 0.930 . S
C164 C161 1.380 . S
C164 C163 1.384 . S
C164 H173 0.931 . S
C165 C161 1.374 . S
C165 C166 1.390 . S
C165 H174 0.930 1_565 S
C166 C162 1.391 . S
C166 C165 1.390 . S
C166 H175 0.930 1_565 S
C167 Eu137 2.825 . S
C167 O152 1.238 . S
C167 O153 1.247 . S
C167 C161 1.507 . S
H168 C141 0.930 . S
H169 C142 0.931 . S
H170 C143 0.930 1_565 S
H171 C144 0.930 1_565 S
H172 C163 0.930 . S
H173 C164 0.931 . S
H174 C165 0.930 1_545 S
H175 C166 0.930 1_545 S
Tb176 C186 2.825 . S
Tb176 O187 2.347 . S
Tb176 O190 2.366 . S
Tb176 O195 2.418 . S
Tb176 O196 2.384 . S
Tb176 O199 2.479 . S
Tb176 O200 2.471 . S
Eu177 O188 2.418 . S
Eu177 O189 2.384 . S
Eu177 O192 2.479 . S
Eu177 O193 2.471 . S
Eu177 O194 2.347 . S
Eu177 O197 2.366 . S
Eu177 C207 2.825 . S
C178 O194 1.259 . S
C178 O195 1.265 . S
C179 O196 1.255 . S
C179 O197 1.265 . S
C180 C182 1.380 . S
C180 C183 1.374 . S
C180 C186 1.507 . S
C181 C182 1.384 . S
C181 C185 1.387 . S
C181 H208 0.930 . S
C182 C180 1.380 . S
C182 C181 1.384 . S
C182 H209 0.931 . S
C183 C180 1.374 . S
C183 C184 1.390 . S
C183 H210 0.930 . S
C184 C183 1.390 . S
C184 C185 1.391 . S
C184 H211 0.930 . S
C185 C181 1.387 . S
C185 C184 1.391 . S
C186 Tb176 2.825 . S
C186 C180 1.507 . S
C186 O199 1.238 . S
C186 O200 1.247 . S
O187 Tb176 2.347 . S
O187 C191 1.259 . S
O188 Eu177 2.418 . S
O188 C191 1.265 . S
O189 Eu177 2.384 . S
O189 C198 1.255 . S
O190 Tb176 2.366 . S
O190 C198 1.265 . S
C191 O187 1.259 . S
C191 O188 1.265 . S
O192 Eu177 2.479 . S
O192 C207 1.238 . S
O193 Eu177 2.471 . S
O193 C207 1.247 . S
O194 Eu177 2.347 . S
O194 C178 1.259 . S
O195 Tb176 2.418 . S
O195 C178 1.265 . S
O196 Tb176 2.384 . S
O196 C179 1.255 . S
O197 Eu177 2.366 . S
O197 C179 1.265 . S
C198 O189 1.255 . S
C198 O190 1.265 . S
O199 Tb176 2.479 . S
O199 C186 1.238 . S
O200 Tb176 2.471 . S
O200 C186 1.247 . S
C201 C204 1.380 . S
C201 C205 1.374 . S
C201 C207 1.507 . S
C202 C203 1.387 . S
C202 C206 1.391 . S
C203 C202 1.387 . S
C203 C204 1.384 . S
C203 H212 0.930 . S
C204 C201 1.380 . S
C204 C203 1.384 . S
C204 H213 0.931 . S
C205 C201 1.374 . S
C205 C206 1.390 . S
C205 H214 0.930 . S
C206 C202 1.391 . S
C206 C205 1.390 . S
C206 H215 0.930 . S
C207 Eu177 2.825 . S
C207 O192 1.238 . S
C207 O193 1.247 . S
C207 C201 1.507 . S
H208 C181 0.930 . S
H209 C182 0.931 . S
H210 C183 0.930 . S
H211 C184 0.930 . S
H212 C203 0.930 . S
H213 C204 0.931 . S
H214 C205 0.930 . S
H215 C206 0.930 . S
Tb216 C226 2.825 . S
Tb216 O227 2.347 . S
Tb216 O230 2.366 . S
Tb216 O235 2.418 . S
Tb216 O236 2.384 1_655 S
Tb216 O239 2.479 . S
Tb216 O240 2.471 . S
Eu217 O228 2.418 . S
Eu217 O229 2.384 1_455 S
Eu217 O232 2.479 . S
Eu217 O233 2.471 . S
Eu217 O234 2.347 . S
Eu217 O237 2.366 . S
Eu217 C247 2.825 . S
C218 O234 1.259 1_655 S
C218 O235 1.265 . S
C219 O236 1.255 . S
C219 O237 1.265 . S
C220 C222 1.380 . S
C220 C223 1.374 . S
C220 C226 1.507 . S
C221 C222 1.384 . S
C221 C225 1.387 . S
C221 H248 0.930 . S
C222 C220 1.380 . S
C222 C221 1.384 . S
C222 H249 0.931 . S
C223 C220 1.374 . S
C223 C224 1.390 . S
C223 H250 0.930 . S
C224 C223 1.390 . S
C224 C225 1.391 . S
C224 H251 0.930 . S
C225 C221 1.387 . S
C225 C224 1.391 . S
C226 Tb216 2.825 . S
C226 C220 1.507 . S
C226 O239 1.238 . S
C226 O240 1.247 . S
O227 Tb216 2.347 . S
O227 C231 1.259 1_655 S
O228 Eu217 2.418 . S
O228 C231 1.265 . S
O229 Eu217 2.384 1_655 S
O229 C238 1.255 . S
O230 Tb216 2.366 . S
O230 C238 1.265 . S
C231 O227 1.259 1_455 S
C231 O228 1.265 . S
O232 Eu217 2.479 . S
O232 C247 1.238 . S
O233 Eu217 2.471 . S
O233 C247 1.247 . S
O234 Eu217 2.347 . S
O234 C218 1.259 1_455 S
O235 Tb216 2.418 . S
O235 C218 1.265 . S
O236 Tb216 2.384 1_455 S
O236 C219 1.255 . S
O237 Eu217 2.366 . S
O237 C219 1.265 . S
C238 O229 1.255 . S
C238 O230 1.265 . S
O239 Tb216 2.479 . S
O239 C226 1.238 . S
O240 Tb216 2.471 . S
O240 C226 1.247 . S
C241 C244 1.380 . S
C241 C245 1.374 . S
C241 C247 1.507 . S
C242 C243 1.387 . S
C242 C246 1.391 . S
C243 C242 1.387 . S
C243 C244 1.384 . S
C243 H252 0.930 . S
C244 C241 1.380 . S
C244 C243 1.384 . S
C244 H253 0.931 . S
C245 C241 1.374 . S
C245 C246 1.390 . S
C245 H254 0.930 . S
C246 C242 1.391 . S
C246 C245 1.390 . S
C246 H255 0.930 . S
C247 Eu217 2.825 . S
C247 O232 1.238 . S
C247 O233 1.247 . S
C247 C241 1.507 . S
H248 C221 0.930 . S
H249 C222 0.931 . S
H250 C223 0.930 . S
H251 C224 0.930 . S
H252 C243 0.930 . S
H253 C244 0.931 . S
H254 C245 0.930 . S
H255 C246 0.930 . S
H256 C264 0.929 . S
H257 C266 0.930 . S
H258 C268 0.930 . S
H259 C271 0.929 . S
H260 C274 0.930 . S
H261 C276 0.960 . S
H262 C276 0.960 . S
H263 C276 0.960 . S
C264 H256 0.929 . S
C264 C265 1.379 . S
C264 C266 1.384 . S
C265 C264 1.379 . S
C265 C271 1.389 1_565 S
C266 H257 0.930 . S
C266 C264 1.384 . S
C266 C267 1.378 . S
C267 C266 1.378 . S
C267 C268 1.394 1_565 S
C267 C272 1.490 1_565 S
C268 H258 0.930 . S
C268 C267 1.394 1_545 S
C268 C271 1.386 . S
H269 C285 0.930 . S
H270 C286 0.931 . S
C271 H259 0.929 . S
C271 C265 1.389 1_545 S
C271 C268 1.386 . S
C272 C267 1.490 1_545 S
C272 C274 1.395 . S
C272 C275 1.402 1_545 S
H273 C279 0.930 . S
C274 H260 0.930 . S
C274 C272 1.395 . S
C274 C277 1.403 . S
C275 C272 1.402 1_565 S
C275 C276 1.524 . S
C275 C279 1.400 . S
C276 H261 0.960 . S
C276 H262 0.960 . S
C276 H263 0.960 . S
C276 C275 1.524 . S
C277 C274 1.403 . S
C277 C278 1.392 . S
C277 C281 1.495 . S
C278 C277 1.392 . S
C278 C279 1.385 1_545 S
C278 C280 1.478 . S
C279 H273 0.930 . S
C279 C275 1.400 . S
C279 C278 1.385 1_565 S
C280 C278 1.478 . S
C280 C282 1.381 1_545 S
C280 C286 1.383 . S
C281 C277 1.495 . S
C281 H287 0.959 . S
C281 H288 0.961 . S
C281 H289 0.960 . S
C282 C280 1.381 1_565 S
C282 C283 1.394 . S
C282 H290 0.930 . S
C283 C282 1.394 . S
C283 C284 1.383 1_565 S
C283 H291 0.929 . S
C284 C283 1.383 1_545 S
C284 C285 1.377 . S
C285 H269 0.930 . S
C285 C284 1.377 . S
C285 C286 1.379 . S
C286 H270 0.931 . S
C286 C280 1.383 . S
C286 C285 1.379 . S
H287 C281 0.959 . S
H288 C281 0.961 . S
H289 C281 0.960 . S
H290 C282 0.930 . S
H291 C283 0.929 . S
H292 C300 0.929 . S
H293 C302 0.930 . S
H294 C304 0.930 . S
H295 C307 0.929 . S
H296 C310 0.930 . S
H297 C312 0.960 . S
H298 C312 0.960 . S
H299 C312 0.960 . S
C300 H292 0.929 . S
C300 C301 1.377 . S
C300 C302 1.384 . S
C301 C300 1.377 . S
C301 C307 1.390 . S
C302 H293 0.930 . S
C302 C300 1.384 . S
C302 C303 1.372 . S
C303 C302 1.372 . S
C303 C304 1.400 . S
C303 C308 1.490 . S
C304 H294 0.930 . S
C304 C303 1.400 . S
C304 C307 1.386 . S
H305 C321 0.930 . S
H306 C322 0.931 . S
C307 H295 0.929 . S
C307 C301 1.390 . S
C307 C304 1.386 . S
C308 C303 1.490 . S
C308 C310 1.395 . S
C308 C311 1.403 . S
H309 C315 0.930 . S
C310 H296 0.930 . S
C310 C308 1.395 . S
C310 C313 1.403 . S
C311 C308 1.403 . S
C311 C312 1.524 . S
C311 C315 1.400 . S
C312 H297 0.960 . S
C312 H298 0.960 . S
C312 H299 0.960 . S
C312 C311 1.524 . S
C313 C310 1.403 . S
C313 C314 1.392 . S
C313 C317 1.495 . S
C314 C313 1.392 . S
C314 C315 1.385 . S
C314 C316 1.478 . S
C315 H309 0.930 . S
C315 C311 1.400 . S
C315 C314 1.385 . S
C316 C314 1.478 . S
C316 C318 1.381 . S
C316 C322 1.383 . S
C317 C313 1.495 . S
C317 H323 0.959 . S
C317 H324 0.961 . S
C317 H325 0.960 . S
C318 C316 1.381 . S
C318 C319 1.394 . S
C318 H326 0.930 . S
C319 C318 1.394 . S
C319 C320 1.383 . S
C319 H327 0.929 . S
C320 C319 1.383 . S
C320 C321 1.377 . S
C321 H305 0.930 . S
C321 C320 1.377 . S
C321 C322 1.379 . S
C322 H306 0.931 . S
C322 C316 1.383 . S
C322 C321 1.379 . S
H323 C317 0.959 . S
H324 C317 0.961 . S
H325 C317 0.960 . S
H326 C318 0.930 . S
H327 C319 0.929 . S
H328 C336 0.929 . S
H329 C338 0.930 . S
H330 C340 0.930 . S
H331 C343 0.929 . S
H332 C346 0.930 . S
H333 C348 0.960 . S
H334 C348 0.960 . S
H335 C348 0.960 . S
C336 H328 0.929 . S
C336 C337 1.377 . S
C336 C338 1.384 . S
C337 C336 1.377 . S
C337 C343 1.390 . S
C338 H329 0.930 . S
C338 C336 1.384 . S
C338 C339 1.372 . S
C339 C338 1.372 . S
C339 C340 1.400 . S
C339 C344 1.490 . S
C340 H330 0.930 . S
C340 C339 1.400 . S
C340 C343 1.386 . S
H341 C357 0.930 . S
H342 C358 0.931 . S
C343 H331 0.929 . S
C343 C337 1.390 . S
C343 C340 1.386 . S
C344 C339 1.490 . S
C344 C346 1.395 . S
C344 C347 1.403 . S
H345 C351 0.930 . S
C346 H332 0.930 . S
C346 C344 1.395 . S
C346 C349 1.403 . S
C347 C344 1.403 . S
C347 C348 1.524 . S
C347 C351 1.400 . S
C348 H333 0.960 . S
C348 H334 0.960 . S
C348 H335 0.960 . S
C348 C347 1.524 . S
C349 C346 1.403 . S
C349 C350 1.392 . S
C349 C353 1.495 . S
C350 C349 1.392 . S
C350 C351 1.385 . S
C350 C352 1.478 . S
C351 H345 0.930 . S
C351 C347 1.400 . S
C351 C350 1.385 . S
C352 C350 1.478 . S
C352 C354 1.381 . S
C352 C358 1.383 . S
C353 C349 1.495 . S
C353 H359 0.959 . S
C353 H360 0.961 . S
C353 H361 0.960 . S
C354 C352 1.381 . S
C354 C355 1.394 . S
C354 H362 0.930 . S
C355 C354 1.394 . S
C355 C356 1.383 . S
C355 H363 0.929 . S
C356 C355 1.383 . S
C356 C357 1.377 . S
C357 H341 0.930 . S
C357 C356 1.377 . S
C357 C358 1.379 . S
C358 H342 0.931 . S
C358 C352 1.383 . S
C358 C357 1.379 . S
H359 C353 0.959 . S
H360 C353 0.961 . S
H361 C353 0.960 . S
H362 C354 0.930 . S
H363 C355 0.929 . S
H364 C372 0.929 . S
H365 C374 0.930 . S
H366 C376 0.930 . S
H367 C379 0.929 . S
H368 C382 0.930 . S
H369 C384 0.960 . S
H370 C384 0.960 . S
H371 C384 0.960 . S
C372 H364 0.929 . S
C372 C373 1.383 . S
C372 C374 1.384 . S
C373 C372 1.383 . S
C373 C379 1.385 1_455 S
C374 H365 0.930 . S
C374 C372 1.384 . S
C374 C375 1.383 . S
C375 C374 1.383 . S
C375 C376 1.390 1_455 S
C375 C380 1.490 . S
C376 H366 0.930 . S
C376 C375 1.390 1_655 S
C376 C379 1.386 . S
H377 C393 0.930 . S
H378 C394 0.931 . S
C379 H367 0.929 . S
C379 C373 1.385 1_655 S
C379 C376 1.386 . S
C380 C375 1.490 . S
C380 C382 1.384 1_455 S
C380 C383 1.413 . S
H381 C387 0.930 . S
C382 H368 0.930 . S
C382 C380 1.384 1_655 S
C382 C385 1.403 . S
C383 C380 1.413 . S
C383 C384 1.524 . S
C383 C387 1.400 . S
C384 H369 0.960 . S
C384 H370 0.960 . S
C384 H371 0.960 . S
C384 C383 1.524 . S
C385 C382 1.403 . S
C385 C386 1.392 . S
C385 C389 1.495 . S
C386 C385 1.392 . S
C386 C387 1.385 1_655 S
C386 C388 1.478 . S
C387 H381 0.930 . S
C387 C383 1.400 . S
C387 C386 1.385 1_455 S
C388 C386 1.478 . S
C388 C390 1.381 1_655 S
C388 C394 1.383 . S
C389 C385 1.495 . S
C389 H395 0.959 . S
C389 H396 0.961 . S
C389 H397 0.960 . S
C390 C388 1.381 1_455 S
C390 C391 1.394 . S
C390 H398 0.930 . S
C391 C390 1.394 . S
C391 C392 1.377 1_455 S
C391 H399 0.929 . S
C392 C391 1.377 1_655 S
C392 C393 1.384 . S
C393 H377 0.930 . S
C393 C392 1.384 . S
C393 C394 1.379 . S
C394 H378 0.931 . S
C394 C388 1.383 . S
C394 C393 1.379 . S
H395 C389 0.959 . S
H396 C389 0.961 . S
H397 C389 0.960 . S
H398 C390 0.930 . S
H399 C391 0.929 . S
H400 C408 0.929 . S
H401 C410 0.930 . S
H402 C412 0.930 . S
H403 C415 0.929 . S
H404 C418 0.930 . S
H405 C420 0.960 . S
H406 C420 0.960 . S
H407 C420 0.960 . S
C408 H400 0.929 . S
C408 C409 1.382 1_565 S
C408 C410 1.384 . S
C409 C408 1.382 1_545 S
C409 C415 1.386 . S
C410 H401 0.930 . S
C410 C408 1.384 . S
C410 C411 1.411 . S
C411 C410 1.411 . S
C411 C412 1.360 1_565 S
C411 C416 1.493 . S
C412 H402 0.930 . S
C412 C411 1.360 1_545 S
C412 C415 1.386 . S
H413 C429 0.930 . S
H414 C430 0.931 . S
C415 H403 0.929 . S
C415 C409 1.386 . S
C415 C412 1.386 . S
C416 C411 1.493 . S
C416 C418 1.395 . S
C416 C419 1.403 1_565 S
H417 C423 0.930 . S
C418 H404 0.930 . S
C418 C416 1.395 . S
C418 C421 1.403 . S
C419 C416 1.403 1_545 S
C419 C420 1.524 . S
C419 C423 1.400 . S
C420 H405 0.960 . S
C420 H406 0.960 . S
C420 H407 0.960 . S
C420 C419 1.524 . S
C421 C418 1.403 . S
C421 C422 1.392 1_554 S
C421 C425 1.495 1_554 S
C422 C421 1.392 1_556 S
C422 C423 1.385 1_566 S
C422 C424 1.478 . S
C423 H417 0.930 . S
C423 C419 1.400 . S
C423 C422 1.385 1_544 S
C424 C422 1.478 . S
C424 C426 1.381 . S
C424 C430 1.383 1_565 S
C425 C421 1.495 1_556 S
C425 H431 0.959 . S
C425 H432 0.961 . S
C425 H433 0.960 . S
C426 C424 1.381 . S
C426 C427 1.394 . S
C426 H434 0.930 . S
C427 C426 1.394 . S
C427 C428 1.383 . S
C427 H435 0.929 . S
C428 C427 1.383 . S
C428 C429 1.377 1_565 S
C429 H413 0.930 . S
C429 C428 1.377 1_545 S
C429 C430 1.379 . S
C430 H414 0.931 . S
C430 C424 1.383 1_545 S
C430 C429 1.379 . S
H431 C425 0.959 . S
H432 C425 0.961 . S
H433 C425 0.960 . S
H434 C426 0.930 . S
H435 C427 0.929 . S
H436 C444 0.929 . S
H437 C446 0.930 . S
H438 C448 0.930 . S
H439 C451 0.929 . S
H440 C454 0.930 . S
H441 C456 0.960 . S
H442 C456 0.960 . S
H443 C456 0.960 . S
C444 H436 0.929 . S
C444 C445 1.377 . S
C444 C446 1.384 . S
C445 C444 1.377 . S
C445 C451 1.390 . S
C446 H437 0.930 . S
C446 C444 1.384 . S
C446 C447 1.372 . S
C447 C446 1.372 . S
C447 C448 1.400 . S
C447 C452 1.490 . S
C448 H438 0.930 . S
C448 C447 1.400 . S
C448 C451 1.386 . S
H449 C465 0.930 . S
H450 C466 0.931 1_554 S
C451 H439 0.929 . S
C451 C445 1.390 . S
C451 C448 1.386 . S
C452 C447 1.490 . S
C452 C454 1.395 . S
C452 C455 1.403 . S
H453 C459 0.930 . S
C454 H440 0.930 . S
C454 C452 1.395 . S
C454 C457 1.403 . S
C455 C452 1.403 . S
C455 C456 1.524 . S
C455 C459 1.400 . S
C456 H441 0.960 . S
C456 H442 0.960 . S
C456 H443 0.960 . S
C456 C455 1.524 . S
C457 C454 1.403 . S
C457 C458 1.392 . S
C457 C461 1.495 . S
C458 C457 1.392 . S
C458 C459 1.385 . S
C458 C460 1.477 1_554 S
C459 H453 0.930 . S
C459 C455 1.400 . S
C459 C458 1.385 . S
C460 C458 1.477 1_556 S
C460 C462 1.381 . S
C460 C466 1.383 . S
C461 C457 1.495 . S
C461 H467 0.959 . S
C461 H468 0.961 . S
C461 H469 0.960 1_554 S
C462 C460 1.381 . S
C462 C463 1.394 . S
C462 H470 0.930 . S
C463 C462 1.394 . S
C463 C464 1.383 . S
C463 H471 0.929 . S
C464 C463 1.383 . S
C464 C465 1.377 . S
C465 H449 0.930 . S
C465 C464 1.377 . S
C465 C466 1.379 . S
C466 H450 0.931 1_556 S
C466 C460 1.383 . S
C466 C465 1.379 . S
H467 C461 0.959 . S
H468 C461 0.961 . S
H469 C461 0.960 1_556 S
H470 C462 0.930 . S
H471 C463 0.929 . S
H472 C480 0.929 . S
H473 C482 0.930 . S
H474 C484 0.930 . S
H475 C487 0.929 . S
H476 C490 0.930 . S
H477 C492 0.960 . S
H478 C492 0.960 . S
H479 C492 0.960 . S
C480 H472 0.929 . S
C480 C481 1.377 . S
C480 C482 1.384 . S
C481 C480 1.377 . S
C481 C487 1.390 . S
C482 H473 0.930 . S
C482 C480 1.384 . S
C482 C483 1.372 . S
C483 C482 1.372 . S
C483 C484 1.400 . S
C483 C488 1.490 . S
C484 H474 0.930 . S
C484 C483 1.400 . S
C484 C487 1.386 . S
H485 C501 0.930 . S
H486 C502 0.931 . S
C487 H475 0.929 . S
C487 C481 1.390 . S
C487 C484 1.386 . S
C488 C483 1.490 . S
C488 C490 1.395 . S
C488 C491 1.403 . S
H489 C495 0.930 . S
C490 H476 0.930 . S
C490 C488 1.395 . S
C490 C493 1.403 1_554 S
C491 C488 1.403 . S
C491 C492 1.524 . S
C491 C495 1.400 . S
C492 H477 0.960 . S
C492 H478 0.960 . S
C492 H479 0.960 . S
C492 C491 1.524 . S
C493 C490 1.403 1_556 S
C493 C494 1.392 . S
C493 C497 1.495 . S
C494 C493 1.392 . S
C494 C495 1.385 1_556 S
C494 C496 1.478 . S
C495 H489 0.930 . S
C495 C491 1.400 . S
C495 C494 1.385 1_554 S
C496 C494 1.478 . S
C496 C498 1.381 . S
C496 C502 1.383 . S
C497 C493 1.495 . S
C497 H503 0.959 . S
C497 H504 0.961 . S
C497 H505 0.960 . S
C498 C496 1.381 . S
C498 C499 1.394 . S
C498 H506 0.930 . S
C499 C498 1.394 . S
C499 C500 1.383 . S
C499 H507 0.929 . S
C500 C499 1.383 . S
C500 C501 1.377 . S
C501 H485 0.930 . S
C501 C500 1.377 . S
C501 C502 1.379 . S
C502 H486 0.931 . S
C502 C496 1.383 . S
C502 C501 1.379 . S
H503 C497 0.959 . S
H504 C497 0.961 . S
H505 C497 0.960 . S
H506 C498 0.930 . S
H507 C499 0.929 . S
H508 C516 0.929 . S
H509 C518 0.930 . S
H510 C520 0.930 . S
H511 C523 0.929 . S
H512 C526 0.932 . S
H513 C528 0.960 . S
H514 C528 0.960 . S
H515 C528 0.960 1_455 S
C516 H508 0.929 . S
C516 C517 1.395 . S
C516 C518 1.384 . S
C517 C516 1.395 . S
C517 C523 1.373 1_655 S
C518 H509 0.930 . S
C518 C516 1.384 . S
C518 C519 1.372 . S
C519 C518 1.372 . S
C519 C520 1.400 1_655 S
C519 C524 1.490 . S
C520 H510 0.930 . S
C520 C519 1.400 1_455 S
C520 C523 1.386 . S
H521 C537 0.930 . S
H522 C538 0.931 . S
C523 H511 0.929 . S
C523 C517 1.373 1_455 S
C523 C520 1.386 . S
C524 C519 1.490 . S
C524 C526 1.393 1_655 S
C524 C527 1.403 . S
H525 C531 0.930 . S
C526 H512 0.932 . S
C526 C524 1.393 1_455 S
C526 C529 1.403 1_554 S
C527 C524 1.403 . S
C527 C528 1.524 . S
C527 C531 1.400 . S
C528 H513 0.960 . S
C528 H514 0.960 . S
C528 H515 0.960 1_655 S
C528 C527 1.524 . S
C529 C526 1.403 1_556 S
C529 C530 1.388 1_455 S
C529 C533 1.501 . S
C530 C529 1.388 1_655 S
C530 C531 1.389 1_556 S
C530 C532 1.477 . S
C531 H525 0.930 . S
C531 C527 1.400 . S
C531 C530 1.389 1_554 S
C532 C530 1.477 . S
C532 C534 1.388 . S
C532 C538 1.376 1_655 S
C533 C529 1.501 . S
C533 H539 0.959 . S
C533 H540 0.961 . S
C533 H541 0.960 1_455 S
C534 C532 1.388 . S
C534 C535 1.394 . S
C534 H542 0.930 . S
C535 C534 1.394 . S
C535 C536 1.401 . S
C535 H543 0.929 . S
C536 C535 1.401 . S
C536 C537 1.359 1_655 S
C537 H521 0.930 . S
C537 C536 1.359 1_455 S
C537 C538 1.379 . S
C538 H522 0.931 . S
C538 C532 1.376 1_455 S
C538 C537 1.379 . S
H539 C533 0.959 . S
H540 C533 0.961 . S
H541 C533 0.960 1_655 S
H542 C534 0.930 . S
H543 C535 0.929 . S
H544 C552 0.929 . S
H545 C554 0.930 . S
H546 C556 0.930 . S
H547 C559 0.929 . S
H548 C562 0.930 . S
H549 C564 0.960 . S
H550 C564 0.960 . S
H551 C564 0.960 . S
C552 H544 0.929 . S
C552 C553 1.329 1_655 S
C552 C554 1.384 . S
C553 C552 1.329 1_455 S
C553 C559 1.431 . S
C554 H545 0.930 . S
C554 C552 1.384 . S
C554 C555 1.372 . S
C555 C554 1.372 . S
C555 C556 1.400 1_655 S
C555 C560 1.490 . S
C556 H546 0.930 . S
C556 C555 1.400 1_455 S
C556 C559 1.386 . S
H557 C573 0.930 1_455 S
H558 C574 0.931 1_455 S
C559 H547 0.929 . S
C559 C553 1.431 . S
C559 C556 1.386 . S
C560 C555 1.490 . S
C560 C562 1.395 . S
C560 C563 1.400 . S
H561 C567 0.930 1_455 S
C562 H548 0.930 . S
C562 C560 1.395 . S
C562 C565 1.403 . S
C563 C560 1.400 . S
C563 C564 1.527 1_655 S
C563 C567 1.399 . S
C564 H549 0.960 . S
C564 H550 0.960 . S
C564 H551 0.960 . S
C564 C563 1.527 1_455 S
C565 C562 1.403 . S
C565 C566 1.392 . S
C565 C569 1.495 . S
C566 C565 1.392 . S
C566 C567 1.385 . S
C566 C568 1.478 . S
C567 H561 0.930 1_655 S
C567 C563 1.399 . S
C567 C566 1.385 . S
C568 C566 1.478 . S
C568 C570 1.381 . S
C568 C574 1.383 . S
C569 C565 1.495 . S
C569 H575 0.959 . S
C569 H576 0.961 . S
C569 H577 0.960 . S
C570 C568 1.381 . S
C570 C571 1.394 . S
C570 H578 0.930 . S
C571 C570 1.394 . S
C571 C572 1.383 . S
C571 H579 0.929 . S
C572 C571 1.383 . S
C572 C573 1.377 . S
C573 H557 0.930 1_655 S
C573 C572 1.377 . S
C573 C574 1.379 . S
C574 H558 0.931 1_655 S
C574 C568 1.383 . S
C574 C573 1.379 . S
H575 C569 0.959 . S
H576 C569 0.961 . S
H577 C569 0.960 . S
H578 C570 0.930 . S
H579 C571 0.929 . S
H580 C588 0.929 . S
H581 C590 0.930 . S
H582 C592 0.930 . S
H583 C595 0.929 . S
H584 C598 0.930 . S
H585 C600 0.960 . S
H586 C600 0.960 . S
H587 C600 0.960 . S
C588 H580 0.929 . S
C588 C589 1.377 1_565 S
C588 C590 1.384 . S
C589 C588 1.377 1_545 S
C589 C595 1.390 . S
C590 H581 0.930 . S
C590 C588 1.384 . S
C590 C591 1.372 . S
C591 C590 1.372 . S
C591 C592 1.400 1_565 S
C591 C596 1.490 . S
C592 H582 0.930 . S
C592 C591 1.400 1_545 S
C592 C595 1.386 . S
H593 C609 0.930 . S
H594 C610 0.931 . S
C595 H583 0.929 . S
C595 C589 1.390 . S
C595 C592 1.386 . S
C596 C591 1.490 . S
C596 C598 1.395 . S
C596 C599 1.403 1_565 S
H597 C603 0.930 . S
C598 H584 0.930 . S
C598 C596 1.395 . S
C598 C601 1.403 . S
C599 C596 1.403 1_545 S
C599 C600 1.524 . S
C599 C603 1.400 . S
C600 H585 0.960 . S
C600 H586 0.960 . S
C600 H587 0.960 . S
C600 C599 1.524 . S
C601 C598 1.403 . S
C601 C602 1.392 . S
C601 C605 1.495 . S
C602 C601 1.392 . S
C602 C603 1.385 1_565 S
C602 C604 1.478 . S
C603 H597 0.930 . S
C603 C599 1.400 . S
C603 C602 1.385 1_545 S
C604 C602 1.478 . S
C604 C606 1.381 . S
C604 C610 1.383 . S
C605 C601 1.495 . S
C605 H611 0.959 . S
C605 H612 0.961 . S
C605 H613 0.960 . S
C606 C604 1.381 . S
C606 C607 1.394 . S
C606 H614 0.930 . S
C607 C606 1.394 . S
C607 C608 1.383 . S
C607 H615 0.929 . S
C608 C607 1.383 . S
C608 C609 1.377 . S
C609 H593 0.930 . S
C609 C608 1.377 . S
C609 C610 1.379 . S
C610 H594 0.931 . S
C610 C604 1.383 . S
C610 C609 1.379 . S
H611 C605 0.959 . S
H612 C605 0.961 . S
H613 C605 0.960 . S
H614 C606 0.930 . S
H615 C607 0.929 . S
H616 C624 0.929 . S
H617 C626 0.930 . S
H618 C628 0.930 . S
H619 C631 0.929 . S
H620 C634 0.930 . S
H621 C636 0.960 . S
H622 C636 0.960 . S
H623 C636 0.960 . S
C624 H616 0.929 . S
C624 C625 1.377 . S
C624 C626 1.384 . S
C625 C624 1.377 . S
C625 C631 1.390 . S
C626 H617 0.930 . S
C626 C624 1.384 . S
C626 C627 1.372 . S
C627 C626 1.372 . S
C627 C628 1.400 . S
C627 C632 1.490 . S
C628 H618 0.930 . S
C628 C627 1.400 . S
C628 C631 1.386 . S
H629 C645 0.930 . S
H630 C646 0.931 . S
C631 H619 0.929 . S
C631 C625 1.390 . S
C631 C628 1.386 . S
C632 C627 1.490 . S
C632 C634 1.395 . S
C632 C635 1.403 . S
H633 C639 0.930 . S
C634 H620 0.930 . S
C634 C632 1.395 . S
C634 C637 1.403 . S
C635 C632 1.403 . S
C635 C636 1.524 . S
C635 C639 1.400 . S
C636 H621 0.960 . S
C636 H622 0.960 . S
C636 H623 0.960 . S
C636 C635 1.524 . S
C637 C634 1.403 . S
C637 C638 1.392 . S
C637 C641 1.495 . S
C638 C637 1.392 . S
C638 C639 1.385 . S
C638 C640 1.478 . S
C639 H633 0.930 . S
C639 C635 1.400 . S
C639 C638 1.385 . S
C640 C638 1.478 . S
C640 C642 1.381 . S
C640 C646 1.383 . S
C641 C637 1.495 . S
C641 H647 0.959 . S
C641 H648 0.961 . S
C641 H649 0.960 . S
C642 C640 1.381 . S
C642 C643 1.394 . S
C642 H650 0.930 . S
C643 C642 1.394 . S
C643 C644 1.383 . S
C643 H651 0.929 . S
C644 C643 1.383 . S
C644 C645 1.377 . S
C645 H629 0.930 . S
C645 C644 1.377 . S
C645 C646 1.379 . S
C646 H630 0.931 . S
C646 C640 1.383 . S
C646 C645 1.379 . S
H647 C641 0.959 . S
H648 C641 0.961 . S
H649 C641 0.960 . S
H650 C642 0.930 . S
H651 C643 0.929 . S
H652 C660 0.929 . S
H653 C662 0.930 . S
H654 C664 0.930 . S
H655 C667 0.929 . S
H656 C670 0.930 . S
H657 C672 0.960 . S
H658 C672 0.960 . S
H659 C672 0.960 . S
C660 H652 0.929 . S
C660 C661 1.377 . S
C660 C662 1.384 . S
C661 C660 1.377 . S
C661 C667 1.390 . S
C662 H653 0.930 . S
C662 C660 1.384 . S
C662 C663 1.372 . S
C663 C662 1.372 . S
C663 C664 1.400 . S
C663 C668 1.490 . S
C664 H654 0.930 . S
C664 C663 1.400 . S
C664 C667 1.386 . S
H665 C681 0.930 . S
H666 C682 0.931 . S
C667 H655 0.929 . S
C667 C661 1.390 . S
C667 C664 1.386 . S
C668 C663 1.490 . S
C668 C670 1.395 . S
C668 C671 1.403 . S
H669 C675 0.930 . S
C670 H656 0.930 . S
C670 C668 1.395 . S
C670 C673 1.403 . S
C671 C668 1.403 . S
C671 C672 1.524 . S
C671 C675 1.400 . S
C672 H657 0.960 . S
C672 H658 0.960 . S
C672 H659 0.960 . S
C672 C671 1.524 . S
C673 C670 1.403 . S
C673 C674 1.392 . S
C673 C677 1.495 . S
C674 C673 1.392 . S
C674 C675 1.385 . S
C674 C676 1.478 . S
C675 H669 0.930 . S
C675 C671 1.400 . S
C675 C674 1.385 . S
C676 C674 1.478 . S
C676 C678 1.381 . S
C676 C682 1.383 . S
C677 C673 1.495 . S
C677 H683 0.959 . S
C677 H684 0.961 . S
C677 H685 0.960 . S
C678 C676 1.381 . S
C678 C679 1.394 . S
C678 H686 0.930 . S
C679 C678 1.394 . S
C679 C680 1.383 . S
C679 H687 0.929 . S
C680 C679 1.383 . S
C680 C681 1.377 . S
C681 H665 0.930 . S
C681 C680 1.377 . S
C681 C682 1.379 . S
C682 H666 0.931 . S
C682 C676 1.383 . S
C682 C681 1.379 . S
H683 C677 0.959 . S
H684 C677 0.961 . S
H685 C677 0.960 . S
H686 C678 0.930 . S
H687 C679 0.929 . S
H688 C696 0.929 . S
H689 C698 0.930 . S
H690 C700 0.930 . S
H691 C703 0.929 . S
H692 C706 0.930 . S
H693 C708 0.960 . S
H694 C708 0.960 . S
H695 C708 0.960 . S
C696 H688 0.929 . S
C696 C697 1.377 . S
C696 C698 1.384 . S
C697 C696 1.377 . S
C697 C703 1.390 1_655 S
C698 H689 0.930 . S
C698 C696 1.384 . S
C698 C699 1.372 1_655 S
C699 C698 1.372 1_455 S
C699 C700 1.400 . S
C699 C704 1.490 . S
C700 H690 0.930 . S
C700 C699 1.400 . S
C700 C703 1.386 . S
H701 C717 0.930 . S
H702 C718 0.931 . S
C703 H691 0.929 . S
C703 C697 1.390 1_455 S
C703 C700 1.386 . S
C704 C699 1.490 . S
C704 C706 1.395 1_455 S
C704 C707 1.403 . S
H705 C711 0.930 . S
C706 H692 0.930 . S
C706 C704 1.395 1_655 S
C706 C709 1.403 . S
C707 C704 1.403 . S
C707 C708 1.524 . S
C707 C711 1.400 . S
C708 H693 0.960 . S
C708 H694 0.960 . S
C708 H695 0.960 . S
C708 C707 1.524 . S
C709 C706 1.403 . S
C709 C710 1.392 1_655 S
C709 C713 1.495 . S
C710 C709 1.392 1_455 S
C710 C711 1.385 . S
C710 C712 1.478 . S
C711 H705 0.930 . S
C711 C707 1.400 . S
C711 C710 1.385 . S
C712 C710 1.478 . S
C712 C714 1.370 1_455 S
C712 C718 1.383 . S
C713 C709 1.495 . S
C713 H719 0.959 . S
C713 H720 0.961 . S
C713 H721 0.960 . S
C714 C712 1.370 1_655 S
C714 C715 1.391 1_654 S
C714 H722 0.945 1_554 S
C715 C714 1.391 1_456 S
C715 C716 1.383 . S
C715 H723 0.929 1_455 S
C716 C715 1.383 . S
C716 C717 1.377 1_556 S
C717 H701 0.930 . S
C717 C716 1.377 1_554 S
C717 C718 1.379 . S
C718 H702 0.931 . S
C718 C712 1.383 . S
C718 C717 1.379 . S
H719 C713 0.959 . S
H720 C713 0.961 . S
H721 C713 0.960 . S
H722 C714 0.945 1_556 S
H723 C715 0.929 1_655 S
H724 C732 0.929 . S
H725 C734 0.930 . S
H726 C736 0.930 . S
H727 C739 0.929 . S
H728 C742 0.930 . S
H729 C744 0.962 . S
H730 C744 0.917 1_565 S
H731 C744 0.992 . S
C732 H724 0.929 . S
C732 C733 1.377 . S
C732 C734 1.384 . S
C733 C732 1.377 . S
C733 C739 1.390 1_565 S
C734 H725 0.930 . S
C734 C732 1.384 . S
C734 C735 1.372 1_565 S
C735 C734 1.372 1_545 S
C735 C736 1.400 . S
C735 C740 1.490 . S
C736 H726 0.930 . S
C736 C735 1.400 . S
C736 C739 1.386 . S
H737 C753 0.930 . S
H738 C754 0.931 . S
C739 H727 0.929 . S
C739 C733 1.390 1_545 S
C739 C736 1.386 . S
C740 C735 1.490 . S
C740 C742 1.395 . S
C740 C743 1.403 . S
H741 C747 0.930 . S
C742 H728 0.930 . S
C742 C740 1.395 . S
C742 C745 1.403 . S
C743 C740 1.403 . S
C743 C744 1.535 . S
C743 C747 1.400 . S
C744 H729 0.962 . S
C744 H730 0.917 1_545 S
C744 H731 0.992 . S
C744 C743 1.535 . S
C745 C742 1.403 . S
C745 C746 1.392 . S
C745 C749 1.495 . S
C746 C745 1.392 . S
C746 C747 1.385 . S
C746 C748 1.478 . S
C747 H741 0.930 . S
C747 C743 1.400 . S
C747 C746 1.385 . S
C748 C746 1.478 . S
C748 C750 1.381 . S
C748 C754 1.383 . S
C749 C745 1.495 . S
C749 H755 0.959 . S
C749 H756 0.961 . S
C749 H757 0.960 . S
C750 C748 1.381 . S
C750 C751 1.394 . S
C750 H758 0.930 1_545 S
C751 C750 1.394 . S
C751 C752 1.383 1_554 S
C751 H759 0.929 1_545 S
C752 C751 1.383 1_556 S
C752 C753 1.377 . S
C753 H737 0.930 . S
C753 C752 1.377 . S
C753 C754 1.379 1_556 S
C754 H738 0.931 . S
C754 C748 1.383 . S
C754 C753 1.379 1_554 S
H755 C749 0.959 . S
H756 C749 0.961 . S
H757 C749 0.960 . S
H758 C750 0.930 1_565 S
H759 C751 0.929 1_565 S
H760 C768 0.929 . S
H761 C770 0.930 . S
H762 C772 0.930 . S
H763 C775 0.929 . S
H764 C778 0.930 . S
H765 C780 0.960 . S
H766 C780 0.960 . S
H767 C780 0.960 . S
C768 H760 0.929 . S
C768 C769 1.377 . S
C768 C770 1.384 . S
C769 C768 1.377 . S
C769 C775 1.390 . S
C770 H761 0.930 . S
C770 C768 1.384 . S
C770 C771 1.372 . S
C771 C770 1.372 . S
C771 C772 1.400 . S
C771 C776 1.490 . S
C772 H762 0.930 . S
C772 C771 1.400 . S
C772 C775 1.386 . S
H773 C789 0.930 . S
H774 C790 0.931 . S
C775 H763 0.929 . S
C775 C769 1.390 . S
C775 C772 1.386 . S
C776 C771 1.490 . S
C776 C778 1.395 . S
C776 C779 1.403 . S
H777 C783 0.930 . S
C778 H764 0.930 . S
C778 C776 1.395 . S
C778 C781 1.403 . S
C779 C776 1.403 . S
C779 C780 1.524 . S
C779 C783 1.400 . S
C780 H765 0.960 . S
C780 H766 0.960 . S
C780 H767 0.960 . S
C780 C779 1.524 . S
C781 C778 1.403 . S
C781 C782 1.392 . S
C781 C785 1.495 . S
C782 C781 1.392 . S
C782 C783 1.385 . S
C782 C784 1.478 . S
C783 H777 0.930 . S
C783 C779 1.400 . S
C783 C782 1.385 . S
C784 C782 1.478 . S
C784 C786 1.381 . S
C784 C790 1.383 1_554 S
C785 C781 1.495 . S
C785 H791 0.959 . S
C785 H792 0.961 . S
C785 H793 0.960 . S
C786 C784 1.381 . S
C786 C787 1.394 . S
C786 H794 0.930 . S
C787 C786 1.394 . S
C787 C788 1.383 1_554 S
C787 H795 0.929 . S
C788 C787 1.383 1_556 S
C788 C789 1.377 . S
C789 H773 0.930 . S
C789 C788 1.377 . S
C789 C790 1.379 . S
C790 H774 0.931 . S
C790 C784 1.383 1_556 S
C790 C789 1.379 . S
H791 C785 0.959 . S
H792 C785 0.961 . S
H793 C785 0.960 . S
H794 C786 0.930 . S
H795 C787 0.929 . S
H796 C804 0.929 . S
H797 C806 0.930 . S
H798 C808 0.930 . S
H799 C811 0.929 . S
H800 C814 0.930 . S
H801 C816 0.960 . S
H802 C816 0.960 . S
H803 C816 0.960 . S
C804 H796 0.929 . S
C804 C805 1.377 . S
C804 C806 1.384 . S
C805 C804 1.377 . S
C805 C811 1.390 . S
C806 H797 0.930 . S
C806 C804 1.384 . S
C806 C807 1.372 . S
C807 C806 1.372 . S
C807 C808 1.400 . S
C807 C812 1.490 . S
C808 H798 0.930 . S
C808 C807 1.400 . S
C808 C811 1.386 . S
H809 C825 0.930 . S
H810 C826 0.931 . S
C811 H799 0.929 . S
C811 C805 1.390 . S
C811 C808 1.386 . S
C812 C807 1.490 . S
C812 C814 1.395 . S
C812 C815 1.403 . S
H813 C819 0.930 . S
C814 H800 0.930 . S
C814 C812 1.395 . S
C814 C817 1.403 . S
C815 C812 1.403 . S
C815 C816 1.524 . S
C815 C819 1.400 . S
C816 H801 0.960 . S
C816 H802 0.960 . S
C816 H803 0.960 . S
C816 C815 1.524 . S
C817 C814 1.403 . S
C817 C818 1.392 . S
C817 C821 1.495 1_554 S
C818 C817 1.392 . S
C818 C819 1.385 . S
C818 C820 1.478 . S
C819 H813 0.930 . S
C819 C815 1.400 . S
C819 C818 1.385 . S
C820 C818 1.478 . S
C820 C822 1.381 . S
C820 C826 1.383 . S
C821 C817 1.495 1_556 S
C821 H827 0.959 . S
C821 H828 0.961 . S
C821 H829 0.960 . S
C822 C820 1.381 . S
C822 C823 1.394 1_554 S
C822 H830 0.930 . S
C823 C822 1.394 1_556 S
C823 C824 1.383 . S
C823 H831 0.929 . S
C824 C823 1.383 . S
C824 C825 1.377 1_556 S
C825 H809 0.930 . S
C825 C824 1.377 1_554 S
C825 C826 1.379 . S
C826 H810 0.931 . S
C826 C820 1.383 . S
C826 C825 1.379 . S
H827 C821 0.959 . S
H828 C821 0.961 . S
H829 C821 0.960 . S
H830 C822 0.930 . S
H831 C823 0.929 . S
H832 C840 0.929 . S
H833 C842 0.930 . S
H834 C844 0.930 . S
H835 C847 0.929 . S
H836 C850 0.930 . S
H837 C852 0.960 . S
H838 C852 0.960 1_455 S
H839 C852 0.960 . S
C840 H832 0.929 . S
C840 C841 1.377 . S
C840 C842 1.384 . S
C841 C840 1.377 . S
C841 C847 1.390 1_455 S
C842 H833 0.930 . S
C842 C840 1.384 . S
C842 C843 1.372 . S
C843 C842 1.372 . S
C843 C844 1.400 1_455 S
C843 C848 1.490 . S
C844 H834 0.930 . S
C844 C843 1.400 1_655 S
C844 C847 1.386 . S
H845 C861 0.930 . S
H846 C862 0.931 . S
C847 H835 0.929 . S
C847 C841 1.390 1_655 S
C847 C844 1.386 . S
C848 C843 1.490 . S
C848 C850 1.395 . S
C848 C851 1.394 1_455 S
H849 C855 0.926 1_655 S
C850 H836 0.930 . S
C850 C848 1.395 . S
C850 C853 1.403 . S
C851 C848 1.394 1_655 S
C851 C852 1.533 . S
C851 C855 1.398 1_655 S
C852 H837 0.960 . S
C852 H838 0.960 1_655 S
C852 H839 0.960 . S
C852 C851 1.533 . S
C853 C850 1.403 . S
C853 C854 1.392 . S
C853 C857 1.495 . S
C854 C853 1.392 . S
C854 C855 1.390 . S
C854 C856 1.478 . S
C855 H849 0.926 1_455 S
C855 C851 1.398 1_455 S
C855 C854 1.390 . S
C856 C854 1.478 . S
C856 C858 1.381 . S
C856 C862 1.383 1_455 S
C857 C853 1.495 . S
C857 H863 0.959 1_556 S
C857 H864 0.961 . S
C857 H865 0.960 . S
C858 C856 1.381 . S
C858 C859 1.394 . S
C858 H866 0.930 . S
C859 C858 1.394 . S
C859 C860 1.383 . S
C859 H867 0.929 . S
C860 C859 1.383 . S
C860 C861 1.377 1_455 S
C861 H845 0.930 . S
C861 C860 1.377 1_655 S
C861 C862 1.379 . S
C862 H846 0.931 . S
C862 C856 1.383 1_655 S
C862 C861 1.379 . S
H863 C857 0.959 1_554 S
H864 C857 0.961 . S
H865 C857 0.960 . S
H866 C858 0.930 . S
H867 C859 0.929 . S
H868 C876 0.929 . S
H869 C878 0.930 . S
H870 C880 0.930 . S
H871 C883 0.929 . S
H872 C886 0.930 . S
H873 C888 0.960 1_554 S
H874 C888 0.960 . S
H875 C888 0.920 1_544 S
C876 H868 0.929 . S
C876 C877 1.361 1_565 S
C876 C878 1.384 . S
C877 C876 1.361 1_545 S
C877 C883 1.407 . S
C878 H869 0.930 . S
C878 C876 1.384 . S
C878 C879 1.372 1_565 S
C879 C878 1.372 1_545 S
C879 C880 1.400 . S
C879 C884 1.490 . S
C880 H870 0.930 . S
C880 C879 1.400 . S
C880 C883 1.386 . S
H881 C897 0.930 . S
H882 C898 0.931 . S
C883 H871 0.929 . S
C883 C877 1.407 . S
C883 C880 1.386 . S
C884 C879 1.490 . S
C884 C886 1.395 . S
C884 C887 1.403 1_545 S
H885 C891 0.932 . S
C886 H872 0.930 . S
C886 C884 1.395 . S
C886 C889 1.403 . S
C887 C884 1.403 1_565 S
C887 C888 1.524 . S
C887 C891 1.401 . S
C888 H873 0.960 1_556 S
C888 H874 0.960 . S
C888 H875 0.920 1_566 S
C888 C887 1.524 . S
C889 C886 1.403 . S
C889 C890 1.392 . S
C889 C893 1.495 . S
C890 C889 1.392 . S
C890 C891 1.383 1_545 S
C890 C892 1.478 . S
C891 H885 0.932 . S
C891 C887 1.401 . S
C891 C890 1.383 1_565 S
C892 C890 1.478 . S
C892 C894 1.381 1_545 S
C892 C898 1.383 . S
C893 C889 1.495 . S
C893 H899 0.959 . S
C893 H900 0.961 . S
C893 H901 0.960 . S
C894 C892 1.381 1_565 S
C894 C895 1.394 . S
C894 H902 0.930 . S
C895 C894 1.394 . S
C895 C896 1.383 1_565 S
C895 H903 0.929 . S
C896 C895 1.383 1_545 S
C896 C897 1.377 . S
C897 H881 0.930 . S
C897 C896 1.377 . S
C897 C898 1.379 . S
C898 H882 0.931 . S
C898 C892 1.383 . S
C898 C897 1.379 . S
H899 C893 0.959 . S
H900 C893 0.961 . S
H901 C893 0.960 . S
H902 C894 0.930 . S
H903 C895 0.929 . S
H904 C912 0.929 1_554 S
H905 C914 0.930 . S
H906 C916 0.930 . S
H907 C919 0.929 . S
H908 C922 0.930 . S
H909 C924 0.960 . S
H910 C924 0.960 . S
H911 C924 0.960 . S
C912 H904 0.929 1_556 S
C912 C913 1.377 . S
C912 C914 1.384 . S
C913 C912 1.377 . S
C913 C919 1.390 . S
C914 H905 0.930 . S
C914 C912 1.384 . S
C914 C915 1.372 . S
C915 C914 1.372 . S
C915 C916 1.400 . S
C915 C920 1.490 . S
C916 H906 0.930 . S
C916 C915 1.400 . S
C916 C919 1.386 . S
H917 C933 0.930 . S
H918 C934 0.931 . S
C919 H907 0.929 . S
C919 C913 1.390 . S
C919 C916 1.386 . S
C920 C915 1.490 . S
C920 C922 1.395 . S
C920 C923 1.403 . S
H921 C927 0.930 . S
C922 H908 0.930 . S
C922 C920 1.395 . S
C922 C925 1.403 . S
C923 C920 1.403 . S
C923 C924 1.524 . S
C923 C927 1.400 . S
C924 H909 0.960 . S
C924 H910 0.960 . S
C924 H911 0.960 . S
C924 C923 1.524 . S
C925 C922 1.403 . S
C925 C926 1.392 . S
C925 C929 1.495 . S
C926 C925 1.392 . S
C926 C927 1.385 . S
C926 C928 1.478 . S
C927 H921 0.930 . S
C927 C923 1.400 . S
C927 C926 1.385 . S
C928 C926 1.478 . S
C928 C930 1.381 . S
C928 C934 1.383 . S
C929 C925 1.495 . S
C929 H935 0.959 . S
C929 H936 0.961 . S
C929 H937 0.960 . S
C930 C928 1.381 . S
C930 C931 1.394 . S
C930 H938 0.930 . S
C931 C930 1.394 . S
C931 C932 1.383 . S
C931 H939 0.929 . S
C932 C931 1.383 . S
C932 C933 1.377 . S
C933 H917 0.930 . S
C933 C932 1.377 . S
C933 C934 1.379 . S
C934 H918 0.931 . S
C934 C928 1.383 . S
C934 C933 1.379 . S
H935 C929 0.959 . S
H936 C929 0.961 . S
H937 C929 0.960 . S
H938 C930 0.930 . S
H939 C931 0.929 . S
H940 C948 0.929 . S
H941 C950 0.930 . S
H942 C952 0.930 . S
H943 C955 0.929 . S
H944 C958 0.930 . S
H945 C960 0.960 . S
H946 C960 0.960 . S
H947 C960 0.960 . S
C948 H940 0.929 . S
C948 C949 1.377 . S
C948 C950 1.384 . S
C949 C948 1.377 . S
C949 C955 1.390 . S
C950 H941 0.930 . S
C950 C948 1.384 . S
C950 C951 1.372 . S
C951 C950 1.372 . S
C951 C952 1.400 . S
C951 C956 1.490 . S
C952 H942 0.930 . S
C952 C951 1.400 . S
C952 C955 1.386 . S
H953 C969 0.930 . S
H954 C970 0.931 . S
C955 H943 0.929 . S
C955 C949 1.390 . S
C955 C952 1.386 . S
C956 C951 1.490 . S
C956 C958 1.395 . S
C956 C959 1.403 . S
H957 C963 0.930 . S
C958 H944 0.930 . S
C958 C956 1.395 . S
C958 C961 1.403 . S
C959 C956 1.403 . S
C959 C960 1.524 . S
C959 C963 1.400 . S
C960 H945 0.960 . S
C960 H946 0.960 . S
C960 H947 0.960 . S
C960 C959 1.524 . S
C961 C958 1.403 . S
C961 C962 1.392 . S
C961 C965 1.495 . S
C962 C961 1.392 . S
C962 C963 1.385 . S
C962 C964 1.478 . S
C963 H957 0.930 . S
C963 C959 1.400 . S
C963 C962 1.385 . S
C964 C962 1.478 . S
C964 C966 1.381 . S
C964 C970 1.383 . S
C965 C961 1.495 . S
C965 H971 0.959 1_556 S
C965 H972 0.961 . S
C965 H973 0.960 . S
C966 C964 1.381 . S
C966 C967 1.394 . S
C966 H974 0.930 . S
C967 C966 1.394 . S
C967 C968 1.383 . S
C967 H975 0.929 . S
C968 C967 1.383 . S
C968 C969 1.377 . S
C969 H953 0.930 . S
C969 C968 1.377 . S
C969 C970 1.379 . S
C970 H954 0.931 . S
C970 C964 1.383 . S
C970 C969 1.379 . S
H971 C965 0.959 1_554 S
H972 C965 0.961 . S
H973 C965 0.960 . S
H974 C966 0.930 . S
H975 C967 0.929 . S
H976 C984 0.929 . S
H977 C986 0.930 . S
H978 C988 0.930 . S
H979 C991 0.929 . S
H980 C994 0.930 . S
H981 C996 0.960 . S
H982 C996 0.960 . S
H983 C996 0.960 1_655 S
C984 H976 0.929 . S
C984 C985 1.357 1_455 S
C984 C986 1.384 . S
C985 C984 1.357 1_655 S
C985 C991 1.411 . S
C986 H977 0.930 . S
C986 C984 1.384 . S
C986 C987 1.372 1_455 S
C987 C986 1.372 1_655 S
C987 C988 1.400 . S
C987 C992 1.490 . S
C988 H978 0.930 . S
C988 C987 1.400 . S
C988 C991 1.386 . S
H989 C1005 0.930 . S
H990 C1006 0.931 . S
C991 H979 0.929 . S
C991 C985 1.411 . S
C991 C988 1.386 . S
C992 C987 1.490 . S
C992 C994 1.395 . S
C992 C995 1.403 . S
H993 C999 0.930 . S
C994 H980 0.930 . S
C994 C992 1.395 . S
C994 C997 1.403 . S
C995 C992 1.403 . S
C995 C996 1.524 1_655 S
C995 C999 1.400 . S
C996 H981 0.960 . S
C996 H982 0.960 . S
C996 H983 0.960 1_455 S
C996 C995 1.524 1_455 S
C997 C994 1.403 . S
C997 C998 1.392 . S
C997 C1001 1.495 . S
C998 C997 1.392 . S
C998 C999 1.385 . S
C998 C1000 1.478 . S
C999 H993 0.930 . S
C999 C995 1.400 . S
C999 C998 1.385 . S
C1000 C998 1.478 . S
C1000 C1002 1.381 1_655 S
C1000 C1006 1.383 . S
C1001 C997 1.495 . S
C1001 H1007 0.959 . S
C1001 H1008 0.961 . S
C1001 H1009 0.960 1_655 S
C1002 C1000 1.381 1_455 S
C1002 C1003 1.394 . S
C1002 H1010 0.930 . S
C1003 C1002 1.394 . S
C1003 C1004 1.383 1_455 S
C1003 H1011 0.929 . S
C1004 C1003 1.383 1_655 S
C1004 C1005 1.377 . S
C1005 H989 0.930 . S
C1005 C1004 1.377 . S
C1005 C1006 1.379 . S
C1006 H990 0.931 . S
C1006 C1000 1.383 . S
C1006 C1005 1.379 . S
H1007 C1001 0.959 . S
H1008 C1001 0.961 . S
H1009 C1001 0.960 1_455 S
H1010 C1002 0.930 . S
H1011 C1003 0.929 . S
H1012 C1020 0.929 . S
H1013 C1022 0.930 . S
H1014 C1024 0.930 . S
H1015 C1027 0.929 . S
H1016 C1030 0.930 . S
H1017 C1032 0.957 1_545 S
H1018 C1032 0.966 . S
H1019 C1032 0.954 1_545 S
C1020 H1012 0.929 . S
C1020 C1021 1.421 . S
C1020 C1022 1.384 . S
C1021 C1020 1.421 . S
C1021 C1027 1.349 1_565 S
C1022 H1013 0.930 . S
C1022 C1020 1.384 . S
C1022 C1023 1.372 . S
C1023 C1022 1.372 . S
C1023 C1024 1.400 1_565 S
C1023 C1028 1.490 . S
C1024 H1014 0.930 . S
C1024 C1023 1.400 1_545 S
C1024 C1027 1.386 . S
H1025 C1041 0.930 . S
H1026 C1042 0.931 . S
C1027 H1015 0.929 . S
C1027 C1021 1.349 1_545 S
C1027 C1024 1.386 . S
C1028 C1023 1.490 . S
C1028 C1030 1.395 . S
C1028 C1031 1.403 . S
H1029 C1035 0.930 . S
C1030 H1016 0.930 . S
C1030 C1028 1.395 . S
C1030 C1033 1.403 . S
C1031 C1028 1.403 . S
C1031 C1032 1.524 . S
C1031 C1035 1.400 . S
C1032 H1017 0.957 1_565 S
C1032 H1018 0.966 . S
C1032 H1019 0.954 1_565 S
C1032 C1031 1.524 . S
C1033 C1030 1.403 . S
C1033 C1034 1.392 . S
C1033 C1037 1.495 . S
C1034 C1033 1.392 . S
C1034 C1035 1.385 . S
C1034 C1036 1.478 . S
C1035 H1029 0.930 . S
C1035 C1031 1.400 . S
C1035 C1034 1.385 . S
C1036 C1034 1.478 . S
C1036 C1038 1.381 . S
C1036 C1042 1.383 1_565 S
C1037 C1033 1.495 . S
C1037 H1043 0.959 . S
C1037 H1044 0.920 1_565 S
C1037 H1045 0.960 . S
C1038 C1036 1.381 . S
C1038 C1039 1.394 . S
C1038 H1046 0.930 . S
C1039 C1038 1.394 . S
C1039 C1040 1.383 . S
C1039 H1047 0.929 . S
C1040 C1039 1.383 . S
C1040 C1041 1.377 1_565 S
C1041 H1025 0.930 . S
C1041 C1040 1.377 1_545 S
C1041 C1042 1.379 . S
C1042 H1026 0.931 . S
C1042 C1036 1.383 1_545 S
C1042 C1041 1.379 . S
H1043 C1037 0.959 . S
H1044 C1037 0.920 1_545 S
H1045 C1037 0.960 . S
H1046 C1038 0.930 . S
H1047 C1039 0.929 . S
H1048 C1056 0.929 . S
H1049 C1058 0.930 . S
H1050 C1060 0.930 . S
H1051 C1063 0.929 . S
H1052 C1066 0.930 . S
H1053 C1068 0.960 . S
H1054 C1068 0.960 . S
H1055 C1068 0.960 . S
C1056 H1048 0.929 . S
C1056 C1057 1.377 . S
C1056 C1058 1.384 . S
C1057 C1056 1.377 . S
C1057 C1063 1.390 . S
C1058 H1049 0.930 . S
C1058 C1056 1.384 . S
C1058 C1059 1.372 . S
C1059 C1058 1.372 . S
C1059 C1060 1.400 . S
C1059 C1064 1.490 . S
C1060 H1050 0.930 . S
C1060 C1059 1.400 . S
C1060 C1063 1.386 . S
H1061 C1077 0.930 . S
H1062 C1078 0.931 . S
C1063 H1051 0.929 . S
C1063 C1057 1.390 . S
C1063 C1060 1.386 . S
C1064 C1059 1.490 . S
C1064 C1066 1.395 . S
C1064 C1067 1.403 . S
H1065 C1071 0.930 . S
C1066 H1052 0.930 . S
C1066 C1064 1.395 . S
C1066 C1069 1.403 . S
C1067 C1064 1.403 . S
C1067 C1068 1.524 . S
C1067 C1071 1.400 . S
C1068 H1053 0.960 . S
C1068 H1054 0.960 . S
C1068 H1055 0.960 . S
C1068 C1067 1.524 . S
C1069 C1066 1.403 . S
C1069 C1070 1.392 . S
C1069 C1073 1.495 . S
C1070 C1069 1.392 . S
C1070 C1071 1.385 . S
C1070 C1072 1.478 . S
C1071 H1065 0.930 . S
C1071 C1067 1.400 . S
C1071 C1070 1.385 . S
C1072 C1070 1.478 . S
C1072 C1074 1.381 . S
C1072 C1078 1.383 . S
C1073 C1069 1.495 . S
C1073 H1079 0.959 . S
C1073 H1080 0.961 . S
C1073 H1081 0.960 . S
C1074 C1072 1.381 . S
C1074 C1075 1.394 . S
C1074 H1082 0.930 . S
C1075 C1074 1.394 . S
C1075 C1076 1.383 . S
C1075 H1083 0.929 . S
C1076 C1075 1.383 . S
C1076 C1077 1.377 . S
C1077 H1061 0.930 . S
C1077 C1076 1.377 . S
C1077 C1078 1.379 . S
C1078 H1062 0.931 . S
C1078 C1072 1.383 . S
C1078 C1077 1.379 . S
H1079 C1073 0.959 . S
H1080 C1073 0.961 . S
H1081 C1073 0.960 . S
H1082 C1074 0.930 . S
H1083 C1075 0.929 . S
H1084 C1092 0.929 . S
H1085 C1094 0.930 . S
H1086 C1096 0.930 . S
H1087 C1099 0.929 . S
H1088 C1102 0.930 . S
H1089 C1104 0.960 . S
H1090 C1104 0.960 . S
H1091 C1104 0.960 . S
C1092 H1084 0.929 . S
C1092 C1093 1.377 . S
C1092 C1094 1.384 . S
C1093 C1092 1.377 . S
C1093 C1099 1.390 . S
C1094 H1085 0.930 . S
C1094 C1092 1.384 . S
C1094 C1095 1.372 . S
C1095 C1094 1.372 . S
C1095 C1096 1.400 . S
C1095 C1100 1.490 . S
C1096 H1086 0.930 . S
C1096 C1095 1.400 . S
C1096 C1099 1.386 . S
H1097 C1113 0.930 . S
H1098 C1114 0.931 . S
C1099 H1087 0.929 . S
C1099 C1093 1.390 . S
C1099 C1096 1.386 . S
C1100 C1095 1.490 . S
C1100 C1102 1.395 . S
C1100 C1103 1.403 . S
H1101 C1107 0.930 . S
C1102 H1088 0.930 . S
C1102 C1100 1.395 . S
C1102 C1105 1.403 . S
C1103 C1100 1.403 . S
C1103 C1104 1.524 . S
C1103 C1107 1.400 . S
C1104 H1089 0.960 . S
C1104 H1090 0.960 . S
C1104 H1091 0.960 . S
C1104 C1103 1.524 . S
C1105 C1102 1.403 . S
C1105 C1106 1.392 . S
C1105 C1109 1.495 . S
C1106 C1105 1.392 . S
C1106 C1107 1.385 . S
C1106 C1108 1.478 . S
C1107 H1101 0.930 . S
C1107 C1103 1.400 . S
C1107 C1106 1.385 . S
C1108 C1106 1.478 . S
C1108 C1110 1.381 . S
C1108 C1114 1.383 . S
C1109 C1105 1.495 . S
C1109 H1115 0.959 . S
C1109 H1116 0.961 . S
C1109 H1117 0.960 . S
C1110 C1108 1.381 . S
C1110 C1111 1.394 . S
C1110 H1118 0.930 . S
C1111 C1110 1.394 . S
C1111 C1112 1.383 . S
C1111 H1119 0.929 . S
C1112 C1111 1.383 . S
C1112 C1113 1.377 . S
C1113 H1097 0.930 . S
C1113 C1112 1.377 . S
C1113 C1114 1.379 . S
C1114 H1098 0.931 . S
C1114 C1108 1.383 . S
C1114 C1113 1.379 . S
H1115 C1109 0.959 . S
H1116 C1109 0.961 . S
H1117 C1109 0.960 . S
H1118 C1110 0.930 . S
H1119 C1111 0.929 . S
C265 C76 1.746 . S
C284 C98 1.850 1_545 S
C320 C138 1.852 . S
C301 C88 1.746 . S
C356 C178 1.859 . S
C337 C52 1.751 . S
C392 C218 1.852 . S
C373 C64 1.751 1_455 S
C428 C111 1.857 1_565 S
C409 C28 1.760 1_545 S
C445 C40 1.744 . S
C464 C151 1.852 . S
C481 C4 1.753 . S
C500 C191 1.851 . S
C517 C16 1.751 . S
C536 C231 1.848 1_655 S
C572 C122 0.309 . S
C553 C69 0.379 . S
C608 C162 0.338 . S
C589 C81 0.390 . S
C644 C202 0.296 . S
C625 C93 0.378 . S
C661 C57 0.366 . S
C680 C242 0.266 . S
C697 C21 0.391 1_655 S
C716 C105 0.265 . S
C752 C145 0.297 . S
C733 C33 0.383 1_565 S
C788 C185 0.328 . S
C769 C45 0.382 . S
C805 C9 0.367 . S
C824 C225 0.334 . S
C841 C66 1.904 . S
C860 C99 2.095 . S
C877 C78 1.892 . S
C896 C139 2.090 . S
C932 C179 2.083 . S
C913 C90 1.885 . S
C968 C219 2.098 . S
C949 C54 1.894 . S
C985 C18 1.902 1_655 S
C1004 C118 2.108 . S
C1040 C158 2.088 . S
C1021 C30 1.889 1_565 S
C1076 C198 2.087 . S
C1057 C42 1.897 . S
C1093 C6 1.896 . S
C1112 C238 2.096 . S
