# Generated by pormake.
# Topology llj, (12,3)-cn, num edge types: 1
# Building blocks:
#     Node 0, Type 0, BuildingBlock: QEWDON_clean_sbu_0, # of connection points: 12
#     Node 1, Type 0, BuildingBlock: QEWDON_clean_sbu_0, # of connection points: 12
#     Node 2, Type 1, BuildingBlock: BELTOD_clean_linker_0, # of connection points: 3
#     Node 3, Type 1, BuildingBlock: BELTOD_clean_linker_0, # of connection points: 3
#     Node 4, Type 1, BuildingBlock: BELTOD_clean_linker_0, # of connection points: 3
#     Node 5, Type 1, BuildingBlock: BELTOD_clean_linker_0, # of connection points: 3
#     Node 6, Type 1, BuildingBlock: BELTOD_clean_linker_0, # of connection points: 3
#     Node 7, Type 1, BuildingBlock: BELTOD_clean_linker_0, # of connection points: 3
#     Node 8, Type 1, BuildingBlock: BELTOD_clean_linker_0, # of connection points: 3
#     Node 9, Type 1, BuildingBlock: BELTOD_clean_linker_0, # of connection points: 3
#     Edge 10, Type (0, 1), BuildingBlock: TEMPAE_clean_linker_10, # of connection points: 2
#     Edge 11, Type (0, 1), BuildingBlock: TEMPAE_clean_linker_10, # of connection points: 2
#     Edge 12, Type (0, 1), BuildingBlock: TEMPAE_clean_linker_10, # of connection points: 2
#     Edge 13, Type (0, 1), BuildingBlock: TEMPAE_clean_linker_10, # of connection points: 2
#     Edge 14, Type (0, 1), BuildingBlock: TEMPAE_clean_linker_10, # of connection points: 2
#     Edge 15, Type (0, 1), BuildingBlock: TEMPAE_clean_linker_10, # of connection points: 2
#     Edge 16, Type (0, 1), BuildingBlock: TEMPAE_clean_linker_10, # of connection points: 2
#     Edge 17, Type (0, 1), BuildingBlock: TEMPAE_clean_linker_10, # of connection points: 2
#     Edge 18, Type (0, 1), BuildingBlock: TEMPAE_clean_linker_10, # of connection points: 2
#     Edge 19, Type (0, 1), BuildingBlock: TEMPAE_clean_linker_10, # of connection points: 2
#     Edge 20, Type (0, 1), BuildingBlock: TEMPAE_clean_linker_10, # of connection points: 2
#     Edge 21, Type (0, 1), BuildingBlock: TEMPAE_clean_linker_10, # of connection points: 2
#     Edge 22, Type (0, 1), BuildingBlock: TEMPAE_clean_linker_10, # of connection points: 2
#     Edge 23, Type (0, 1), BuildingBlock: TEMPAE_clean_linker_10, # of connection points: 2
#     Edge 24, Type (0, 1), BuildingBlock: TEMPAE_clean_linker_10, # of connection points: 2
#     Edge 25, Type (0, 1), BuildingBlock: TEMPAE_clean_linker_10, # of connection points: 2
#     Edge 26, Type (0, 1), BuildingBlock: TEMPAE_clean_linker_10, # of connection points: 2
#     Edge 27, Type (0, 1), BuildingBlock: TEMPAE_clean_linker_10, # of connection points: 2
#     Edge 28, Type (0, 1), BuildingBlock: TEMPAE_clean_linker_10, # of connection points: 2
#     Edge 29, Type (0, 1), BuildingBlock: TEMPAE_clean_linker_10, # of connection points: 2
#     Edge 30, Type (0, 1), BuildingBlock: TEMPAE_clean_linker_10, # of connection points: 2
#     Edge 31, Type (0, 1), BuildingBlock: TEMPAE_clean_linker_10, # of connection points: 2
#     Edge 32, Type (0, 1), BuildingBlock: TEMPAE_clean_linker_10, # of connection points: 2
#     Edge 33, Type (0, 1), BuildingBlock: TEMPAE_clean_linker_10, # of connection points: 2
# Relax obj value: 0.009
# Max RMSD: 0.045
# Mean RMSD: 0.042
data_MOF--net-llj--node1-QEWDON_clean_sbu_0--node2-BELTOD_clean_linker_0--edge1-TEMPAE_clean_linker_10
_symmetry_space_group_name_H-M    P1
_symmetry_Int_Tables_number       1
_symmetry_cell_setting            triclinic
loop_
_symmetry_equiv_pos_as_xyz
'x, y, z'
_cell_length_a     42.786382
_cell_length_b     42.806391
_cell_length_c     29.461231
_cell_angle_alpha  89.433413
_cell_angle_beta   90.178989
_cell_angle_gamma 90.152559
loop_
_atom_site_label
_atom_site_type_symbol
_atom_site_fract_x
_atom_site_fract_y
_atom_site_fract_z
_atom_type_partial_charge
Zn0 Zn 0.92847 0.07327 0.97308 0.0
Zn1 Zn 0.92852 0.05423 0.07987 0.0
O2 O 0.95204 0.04957 0.02176 0.0
H3 H 0.96526 0.03194 0.01536 0.0
C4 C 0.90526 -0.00014 0.89806 0.0
O5 O 0.9164 0.01388 0.93413 0.0
Zn6 Zn 0.02898 0.94174 0.05334 0.0
Zn7 Zn 0.03166 0.94327 0.94547 0.0
O8 O 0.00172 0.9475 -0.00136 0.0
H9 H 0.98243 0.95917 -0.00219 0.0
Zn10 Zn 0.90522 0.94896 0.96261 0.0
O11 O 0.90859 0.9766 0.01741 0.0
Zn12 Zn 0.91269 0.94575 0.06844 0.0
H13 H 0.89754 0.99622 0.01855 0.0
Zn14 Zn 0.05575 0.05278 0.96413 0.0
O15 O 0.03361 0.02803 0.01171 0.0
H16 H 0.01748 0.01288 0.00518 0.0
Zn17 Zn 0.03895 0.05224 0.06835 0.0
C18 C 0.08099 0.00154 0.91444 0.0
O19 O 0.08625 0.99173 0.95616 0.0
O20 O 0.89064 0.09667 -0.00209 0.0
O21 O 0.89115 0.08324 0.07131 0.0
O22 O 0.07219 0.92024 0.96218 0.0
O23 O 0.06854 0.91728 0.03741 0.0
O24 O 0.88233 0.90787 0.97662 0.0
O25 O 0.88744 0.90641 0.05195 0.0
C26 C 0.98578 0.07466 0.12071 0.0
O27 O 0.08563 0.08625 0.98885 0.0
O28 O 0.07223 0.08607 0.0618 0.0
O29 O 0.01323 0.93072 0.88346 0.0
C30 C 0.87922 0.09821 0.03774 0.0
O31 O 0.95338 0.09188 0.91847 0.0
C32 C 0.97496 0.92329 0.10702 0.0
O33 O 0.89826 0.97107 0.9007 0.0
C34 C 0.08288 0.91132 0.00052 0.0
O35 O 0.06821 0.02796 0.90803 0.0
C36 C 0.90088 0.99619 0.12775 0.0
O37 O 0.95661 0.07314 0.12779 0.0
O38 O 0.996 0.06674 0.08225 0.0
C39 C 0.87745 0.89461 0.01488 0.0
O40 O 0.00456 0.92146 0.10377 0.0
O41 O 0.95933 0.93631 0.07521 0.0
C42 C 0.04849 0.99434 0.11399 0.0
O43 O 0.89572 0.96696 0.12499 0.0
O44 O 0.91628 0.00954 0.09621 0.0
C45 C 0.08889 0.09649 0.02905 0.0
O46 O 0.05116 0.02357 0.11947 0.0
O47 O 0.04003 0.98442 0.07534 0.0
C48 C 0.98432 0.93362 0.87465 0.0
O49 O 0.96598 0.9463 0.90499 0.0
C50 C 0.9828 0.09504 0.92217 0.0
O51 O 0.99634 0.08724 0.96073 0.0
Zn52 Zn 0.42673 0.56492 0.4492 0.0
Zn53 Zn 0.42425 0.55812 0.55925 0.0
O54 O 0.45048 0.54935 0.50428 0.0
H55 H 0.46618 0.53326 0.50228 0.0
C56 C 0.37244 0.51772 0.42862 0.0
O57 O 0.35177 0.52267 0.46064 0.0
Zn58 Zn 0.53232 0.4282 0.59218 0.0
Zn59 Zn 0.54692 0.43761 0.49574 0.0
O60 O 0.51122 0.41988 0.53336 0.0
H61 H 0.48921 0.42118 0.52628 0.0
Zn62 Zn 0.39544 0.47306 0.49651 0.0
O63 O 0.43649 0.47312 0.53063 0.0
Zn64 Zn 0.42534 0.44875 0.58634 0.0
H65 H 0.45707 0.47502 0.51752 0.0
Zn66 Zn 0.53216 0.53794 0.46147 0.0
O67 O 0.52856 0.5092 0.51639 0.0
H68 H 0.51669 0.48998 0.51677 0.0
Zn69 Zn 0.53208 0.54011 0.56596 0.0
C70 C 0.56953 0.50459 0.40157 0.0
O71 O 0.58758 0.50887 0.43716 0.0
O72 O 0.38761 0.58956 0.46543 0.0
O73 O 0.38616 0.58405 0.54069 0.0
O74 O 0.58978 0.42342 0.52092 0.0
O75 O 0.57622 0.41052 0.59144 0.0
O76 O 0.36922 0.43318 0.5075 0.0
O77 O 0.39302 0.41569 0.57003 0.0
C78 C 0.47893 0.57361 0.60676 0.0
O79 O 0.56014 0.57677 0.47275 0.0
O80 O 0.56143 0.57463 0.54796 0.0
O81 O 0.53898 0.43331 0.42692 0.0
C82 C 0.37469 0.59469 0.50351 0.0
O83 O 0.45137 0.5768 0.39086 0.0
C84 C 0.4772 0.4155 0.64088 0.0
O85 O 0.39337 0.49718 0.43521 0.0
C86 C 0.59655 0.41189 0.55982 0.0
O87 O 0.5418 0.51492 0.40241 0.0
C88 C 0.40807 0.50692 0.62591 0.0
O89 O 0.45004 0.5801 0.60744 0.0
O90 O 0.489 0.55626 0.57559 0.0
C91 C 0.37245 0.41266 0.53885 0.0
O92 O 0.50632 0.4099 0.64221 0.0
O93 O 0.4664 0.43034 0.60673 0.0
C94 C 0.55038 0.49078 0.62608 0.0
O95 O 0.40947 0.47786 0.63499 0.0
O96 O 0.41355 0.51582 0.58538 0.0
C97 C 0.57012 0.58694 0.51058 0.0
O98 O 0.55115 0.52022 0.62121 0.0
O99 O 0.53422 0.47474 0.59859 0.0
C100 C 0.51448 0.44546 0.40992 0.0
O101 O 0.49645 0.46243 0.43591 0.0
C102 C 0.48034 0.58275 0.39465 0.0
O103 O 0.49325 0.58207 0.43512 0.0
P104 P 0.38983 0.25502 0.0491 0.0
H105 H 0.41651 0.2485 0.13959 0.0
H106 H 0.43432 0.28654 0.19535 0.0
H107 H 0.40123 0.36166 0.10889 0.0
H108 H 0.38374 0.32351 0.05309 0.0
H109 H 0.35883 0.20642 -0.00073 0.0
H110 H 0.30712 0.18277 0.00424 0.0
H111 H 0.28587 0.24089 0.11928 0.0
H112 H 0.33767 0.26523 0.11306 0.0
H113 H 0.44014 0.26253 0.98359 0.0
H114 H 0.34323 0.28878 0.99462 0.0
O115 O 0.41642 0.22658 0.05122 0.0
H116 H 0.44328 0.28916 0.91008 0.0
H117 H 0.34614 0.3154 0.92068 0.0
C118 C 0.39936 0.28317 0.0919 0.0
C119 C 0.4129 0.27314 0.1328 0.0
C120 C 0.42293 0.29492 0.16471 0.0
C121 C 0.41941 0.32714 0.15631 0.0
C122 C 0.40474 0.33704 0.11593 0.0
C123 C 0.39461 0.31519 0.0841 0.0
C124 C 0.35208 0.2373 0.05597 0.0
C125 C 0.3431 0.21392 0.02575 0.0
C126 C 0.31357 0.20031 0.02882 0.0
C127 C 0.29245 0.2097 0.06248 0.0
C128 C 0.30155 0.23327 0.09284 0.0
C129 C 0.33121 0.24703 0.08954 0.0
C130 C 0.39134 0.27321 0.99399 0.0
C131 C 0.41942 0.27364 0.96984 0.0
C132 C 0.42113 0.28876 0.92778 0.0
C133 C 0.39482 0.30402 0.90945 0.0
C134 C 0.36672 0.30378 0.93399 0.0
C135 C 0.36501 0.28844 0.97601 0.0
P136 P 0.74854 0.40752 0.01036 0.0
H137 H 0.75069 0.45544 0.08068 0.0
H138 H 0.71398 0.46971 0.14033 0.0
H139 H 0.64931 0.39936 0.09309 0.0
H140 H 0.68632 0.38503 0.03361 0.0
H141 H 0.78182 0.36381 0.95331 0.0
H142 H 0.79843 0.30964 0.96473 0.0
H143 H 0.75931 0.31008 0.09973 0.0
H144 H 0.7428 0.36411 0.08822 0.0
H145 H 0.7404 0.46157 0.95138 0.0
H146 H 0.71198 0.36482 0.95346 0.0
O147 O 0.7802 0.43035 0.01172 0.0
H148 H 0.70853 0.47061 0.88347 0.0
H149 H 0.68015 0.3737 0.88538 0.0
C150 C 0.72117 0.41917 0.05294 0.0
C151 C 0.72855 0.44323 0.08296 0.0
C152 C 0.70747 0.45148 0.11684 0.0
C153 C 0.67878 0.43565 0.12125 0.0
C154 C 0.67134 0.41178 0.09065 0.0
C155 C 0.69236 0.4037 0.05661 0.0
C156 C 0.76053 0.36774 0.01945 0.0
C157 C 0.77672 0.35217 0.98527 0.0
C158 C 0.7863 0.32133 0.99192 0.0
C159 C 0.77997 0.30565 0.03306 0.0
C160 C 0.76401 0.32145 0.06745 0.0
C161 C 0.75459 0.35237 0.06083 0.0
C162 C 0.72911 0.41241 0.95673 0.0
C163 C 0.72785 0.44214 0.93662 0.0
C164 C 0.70948 0.44731 0.8981 0.0
C165 C 0.69193 0.42282 0.87926 0.0
C166 C 0.69379 0.39285 0.89889 0.0
C167 C 0.71201 0.38777 0.9377 0.0
P168 P 0.68621 0.60945 -0.00273 0.0
H169 H 0.7018 0.59382 0.90361 0.0
H170 H 0.67144 0.5938 0.8331 0.0
H171 H 0.58987 0.62326 0.90757 0.0
H172 H 0.62051 0.62496 0.97648 0.0
H173 H 0.71178 0.64329 0.07489 0.0
H174 H 0.74497 0.68965 0.08107 0.0
H175 H 0.74981 0.69616 0.93498 0.0
H176 H 0.71597 0.6503 0.92877 0.0
H177 H 0.6661 0.5575 0.05599 0.0
H178 H 0.64837 0.65626 0.04298 0.0
O179 O 0.70959 0.57832 -0.0022 0.0
H180 H 0.63024 0.55436 0.12002 0.0
H181 H 0.61148 0.65327 0.10572 0.0
C182 C 0.66355 0.60929 0.9455 0.0
C183 C 0.67741 0.60048 0.90453 0.0
C184 C 0.65994 0.6003 0.86428 0.0
C185 C 0.62811 0.60862 0.86441 0.0
C186 C 0.61443 0.6174 0.90572 0.0
C187 C 0.63201 0.61804 0.94563 0.0
C188 C 0.71046 0.64385 0.00135 0.0
C189 C 0.7195 0.65493 0.04411 0.0
C190 C 0.73857 0.68134 0.04768 0.0
C191 C 0.74973 0.69654 0.0085 0.0
C192 C 0.7415 0.68482 0.9657 0.0
C193 C 0.72198 0.6587 0.96217 0.0
C194 C 0.66035 0.60722 0.04539 0.0
C195 C 0.65454 0.57855 0.06707 0.0
C196 C 0.63374 0.57678 0.10352 0.0
C197 C 0.61803 0.60363 0.11858 0.0
C198 C 0.62365 0.63224 0.09602 0.0
C199 C 0.64468 0.634 0.05996 0.0
P200 P 0.36417 0.7146 0.01591 0.0
H201 H 0.39228 0.72696 0.92723 0.0
H202 H 0.39811 0.69544 0.85909 0.0
H203 H 0.3507 0.61872 0.92643 0.0
H204 H 0.34383 0.65074 0.9933 0.0
H205 H 0.31985 0.73497 0.08591 0.0
H206 H 0.27317 0.76773 0.08276 0.0
H207 H 0.28587 0.78079 0.93861 0.0
H208 H 0.33196 0.74695 0.9414 0.0
H209 H 0.4147 0.69966 0.07968 0.0
H210 H 0.31784 0.67452 0.06145 0.0
O211 O 0.394 0.73976 0.01765 0.0
H212 H 0.41751 0.66606 0.14718 0.0
H213 H 0.32038 0.64108 0.12917 0.0
C214 C 0.36812 0.69109 0.96576 0.0
C215 C 0.38315 0.70334 0.92727 0.0
C216 C 0.3866 0.68521 0.88836 0.0
C217 C 0.3751 0.65438 0.88724 0.0
C218 C 0.35957 0.64244 0.92575 0.0
C219 C 0.35589 0.6607 0.96442 0.0
C220 C 0.32876 0.73737 0.01355 0.0
C221 C 0.31222 0.74407 0.05334 0.0
C222 C 0.28567 0.76302 0.05165 0.0
C223 C 0.27589 0.77651 0.0104 0.0
C224 C 0.29293 0.77053 0.97079 0.0
C225 C 0.31911 0.75102 0.97235 0.0
C226 C 0.36591 0.69001 0.06599 0.0
C227 C 0.39396 0.6871 0.09038 0.0
C228 C 0.39553 0.66793 0.12902 0.0
C229 C 0.36913 0.65102 0.14364 0.0
C230 C 0.34119 0.65361 0.11861 0.0
C231 C 0.33964 0.67288 0.0801 0.0
P232 P 0.8751 0.73956 0.5003 0.0
H233 H 0.91135 0.73025 0.58357 0.0
H234 H 0.92617 0.76532 0.64457 0.0
H235 H 0.87015 0.83848 0.58324 0.0
H236 H 0.85704 0.8037 0.52084 0.0
H237 H 0.84887 0.67664 0.5052 0.0
H238 H 0.79581 0.65671 0.50756 0.0
H239 H 0.76051 0.75131 0.49998 0.0
H240 H 0.81389 0.77102 0.5019 0.0
H241 H 0.9342 0.75871 0.46196 0.0
H242 H 0.83663 0.76984 0.42792 0.0
O243 O 0.89938 0.7091 0.50246 0.0
H244 H 0.94842 0.79197 0.39721 0.0
H245 H 0.85076 0.80367 0.36416 0.0
C246 C 0.88309 0.76438 0.54773 0.0
C247 C 0.90215 0.75379 0.58334 0.0
C248 C 0.91041 0.77386 0.61846 0.0
C249 C 0.89937 0.80482 0.61893 0.0
C250 C 0.87949 0.815 0.58366 0.0
C251 C 0.8716 0.79499 0.54824 0.0
C252 C 0.83546 0.72534 0.50241 0.0
C253 C 0.82976 0.69315 0.50427 0.0
C254 C 0.7992 0.68173 0.50509 0.0
C255 C 0.77355 0.70227 0.50296 0.0
C256 C 0.77946 0.73465 0.50199 0.0
C257 C 0.81012 0.74603 0.50252 0.0
C258 C 0.8844 0.76159 0.4498 0.0
C259 C 0.91585 0.76806 0.44041 0.0
C260 C 0.92395 0.7871 0.40357 0.0
C261 C 0.90063 0.80041 0.37596 0.0
C262 C 0.86912 0.7939 0.38532 0.0
C263 C 0.86106 0.77446 0.42184 0.0
P264 P 0.22943 0.8978 0.49964 0.0
H265 H 0.25368 0.91506 0.58805 0.0
H266 H 0.22843 0.92546 0.6607 0.0
H267 H 0.13801 0.91061 0.59857 0.0
H268 H 0.16346 0.89958 0.52639 0.0
H269 H 0.28091 0.86543 0.45655 0.0
H270 H 0.29847 0.81116 0.45953 0.0
H271 H 0.22322 0.78843 0.55179 0.0
H272 H 0.20538 0.84253 0.54775 0.0
H273 H 0.20626 0.95383 0.45521 0.0
H274 H 0.1945 0.85425 0.44133 0.0
O275 O 0.26036 0.92121 0.49291 0.0
H276 H 0.17066 0.96257 0.39134 0.0
H277 H 0.15955 0.86277 0.37674 0.0
C278 C 0.21038 0.90742 0.55174 0.0
C279 C 0.22841 0.91435 0.59006 0.0
C280 C 0.21397 0.92022 0.63149 0.0
C281 C 0.18124 0.91898 0.63523 0.0
C282 C 0.16328 0.91149 0.59679 0.0
C283 C 0.17778 0.90561 0.55538 0.0
C284 C 0.24244 0.85809 0.50285 0.0
C285 C 0.26836 0.84878 0.47761 0.0
C286 C 0.27836 0.81782 0.47943 0.0
C287 C 0.26241 0.79566 0.50634 0.0
C288 C 0.23591 0.80497 0.5307 0.0
C289 C 0.22592 0.83596 0.52879 0.0
C290 C 0.20349 0.90348 0.45233 0.0
C291 C 0.19623 0.93387 0.4381 0.0
C292 C 0.17597 0.93879 0.40157 0.0
C293 C 0.16259 0.91332 0.37869 0.0
C294 C 0.16939 0.88284 0.39379 0.0
C295 C 0.18963 0.87796 0.43047 0.0
P296 P 0.18304 0.12602 0.52127 0.0
H297 H 0.20032 0.11152 0.42817 0.0
H298 H 0.17025 0.10713 0.3578 0.0
H299 H 0.08553 0.12684 0.43179 0.0
H300 H 0.11573 0.13271 0.50086 0.0
H301 H 0.21342 0.15875 0.59533 0.0
H302 H 0.24426 0.20685 0.59892 0.0
H303 H 0.23394 0.21927 0.45404 0.0
H304 H 0.20272 0.17151 0.45059 0.0
H305 H 0.16738 0.07644 0.58675 0.0
H306 H 0.14274 0.17275 0.56229 0.0
O307 O 0.20808 0.09626 0.52424 0.0
H308 H 0.13299 0.07489 0.65271 0.0
H309 H 0.1072 0.17111 0.62697 0.0
C310 C 0.1604 0.12246 0.46985 0.0
C311 C 0.17527 0.11504 0.42905 0.0
C312 C 0.158 0.11236 0.3889 0.0
C313 C 0.12538 0.11666 0.38897 0.0
C314 C 0.11063 0.124 0.43012 0.0
C315 C 0.12798 0.1271 0.47001 0.0
C316 C 0.20528 0.16175 0.52286 0.0
C317 C 0.21751 0.17197 0.56437 0.0
C318 C 0.2351 0.19943 0.56643 0.0
C319 C 0.24131 0.21679 0.52679 0.0
C320 C 0.22955 0.20622 0.48507 0.0
C321 C 0.2116 0.17893 0.48314 0.0
C322 C 0.15783 0.12481 0.57007 0.0
C323 C 0.1545 0.09725 0.59557 0.0
C324 C 0.13457 0.09634 0.63304 0.0
C325 C 0.11724 0.12289 0.64521 0.0
C326 C 0.12055 0.15041 0.61914 0.0
C327 C 0.14075 0.15136 0.58202 0.0
P328 P 0.86171 0.20381 0.50111 0.0
H329 H 0.87645 0.20949 0.40449 0.0
H330 H 0.8697 0.17361 0.34113 0.0
H331 H 0.81847 0.11014 0.42844 0.0
H332 H 0.82552 0.14605 0.49176 0.0
H333 H 0.85924 0.27184 0.51055 0.0
H334 H 0.8169 0.30766 0.52876 0.0
H335 H 0.75296 0.22951 0.53871 0.0
H336 H 0.79527 0.19401 0.51887 0.0
H337 H 0.90135 0.14914 0.51125 0.0
H338 H 0.83944 0.20242 0.59592 0.0
O339 O 0.89433 0.22391 0.49008 0.0
H340 H 0.90924 0.11152 0.57335 0.0
H341 H 0.84731 0.16509 0.65788 0.0
C342 C 0.8521 0.18007 0.45296 0.0
C343 C 0.86339 0.18807 0.40982 0.0
C344 C 0.85931 0.16764 0.37356 0.0
C345 C 0.84379 0.1389 0.37995 0.0
C346 C 0.83088 0.1319 0.42268 0.0
C347 C 0.83484 0.15244 0.45882 0.0
C348 C 0.83027 0.23033 0.51286 0.0
C349 C 0.83605 0.26245 0.51629 0.0
C350 C 0.81187 0.28289 0.52723 0.0
C351 C 0.78149 0.2715 0.53533 0.0
C352 C 0.77592 0.23917 0.53203 0.0
C353 C 0.80008 0.21881 0.52072 0.0
C354 C 0.86934 0.1782 0.54862 0.0
C355 C 0.88959 0.15282 0.54326 0.0
C356 C 0.89415 0.13141 0.57874 0.0
C357 C 0.87854 0.13516 0.62021 0.0
C358 C 0.85909 0.16124 0.62592 0.0
C359 C 0.85464 0.18267 0.59048 0.0
C360 C 0.12909 0.13495 0.00282 0.0
C361 C 0.11475 0.1185 0.03852 0.0
C362 C 0.15636 0.15244 0.01012 0.0
C363 C 0.16959 0.1535 0.0542 0.0
C364 C 0.15443 0.13814 0.09079 0.0
C365 C 0.12718 0.12077 0.08247 0.0
C366 C 0.17199 0.16827 0.97013 0.0
C367 C 0.16772 0.139 0.13832 0.0
C368 C 0.25754 0.16292 0.05759 0.0
C369 C 0.26096 0.19508 0.0649 0.0
C370 C 0.22792 0.14906 0.0551 0.0
C371 C 0.20097 0.16771 0.06075 0.0
C372 C 0.2042 0.1999 0.07029 0.0
C373 C 0.2342 0.21327 0.07203 0.0
C374 C 0.22547 0.11458 0.0451 0.0
C375 C 0.17597 0.22037 0.0771 0.0
H376 H 0.11956 0.13335 0.96877 0.0
H377 H 0.11654 0.10765 0.11002 0.0
H378 H 0.17714 0.19306 0.9779 0.0
H379 H 0.19461 0.15666 0.96316 0.0
H380 H 0.15739 0.1674 0.93891 0.0
H381 H 0.15416 0.1243 0.16251 0.0
H382 H 0.19229 0.13079 0.13851 0.0
H383 H 0.16784 0.16341 0.15061 0.0
H384 H 0.27812 0.14858 0.05313 0.0
H385 H 0.23664 0.23817 0.07744 0.0
H386 H 0.21297 0.11117 0.01245 0.0
H387 H 0.21171 0.10253 0.07192 0.0
H388 H 0.24873 0.10323 0.04288 0.0
H389 H 0.16257 0.22224 0.0449 0.0
H390 H 0.18249 0.24426 0.08813 0.0
H391 H 0.1602 0.20978 0.10285 0.0
C392 C 0.83567 0.13162 0.0098 0.0
C393 C 0.85484 0.12178 0.0458 0.0
C394 C 0.81843 0.15929 0.01261 0.0
C395 C 0.82093 0.17771 0.05209 0.0
C396 C 0.83798 0.16642 0.09009 0.0
C397 C 0.85449 0.13826 0.08668 0.0
C398 C 0.8001 0.17026 0.97161 0.0
C399 C 0.84106 0.18545 0.13277 0.0
C400 C 0.82096 0.26462 0.02791 0.0
C401 C 0.79059 0.27308 0.04022 0.0
C402 C 0.83124 0.23377 0.03279 0.0
C403 C 0.81057 0.21075 0.0503 0.0
C404 C 0.78007 0.21923 0.06378 0.0
C405 C 0.77043 0.25041 0.05865 0.0
C406 C 0.86412 0.22574 0.01849 0.0
C407 C 0.75739 0.19527 0.08227 0.0
H408 H 0.83562 0.11867 0.97835 0.0
H409 H 0.86929 0.13067 0.11458 0.0
H410 H 0.7771 0.17973 0.98183 0.0
H411 H 0.81313 0.18935 0.95423 0.0
H412 H 0.79623 0.15116 0.94693 0.0
H413 H 0.85543 0.17352 0.15913 0.0
H414 H 0.85204 0.20836 0.12478 0.0
H415 H 0.81759 0.19019 0.14697 0.0
H416 H 0.83675 0.28223 0.01443 0.0
H417 H 0.74684 0.25691 0.06795 0.0
H418 H 0.86339 0.20894 0.99007 0.0
H419 H 0.87682 0.21433 0.04703 0.0
H420 H 0.87762 0.24665 0.00736 0.0
H421 H 0.75133 0.17836 0.05531 0.0
H422 H 0.73549 0.20609 0.09468 0.0
H423 H 0.76826 0.18181 0.11052 0.0
C424 C 0.83683 0.85942 0.98243 0.0
C425 C 0.85937 0.86516 0.01598 0.0
C426 C 0.8193 0.8317 0.9827 0.0
C427 C 0.82485 0.8089 0.01689 0.0
C428 C 0.84785 0.8144 0.05059 0.0
C429 C 0.8647 0.84262 0.04991 0.0
C430 C 0.79471 0.8269 0.94651 0.0
C431 C 0.85479 0.79041 0.08713 0.0
C432 C 0.76015 0.74982 0.03902 0.0
C433 C 0.76967 0.72472 0.01224 0.0
C434 C 0.77813 0.77723 0.0414 0.0
C435 C 0.80654 0.77931 0.01702 0.0
C436 C 0.81667 0.75365 0.99093 0.0
C437 C 0.79793 0.72675 0.98849 0.0
C438 C 0.76627 0.80428 0.06892 0.0
C439 C 0.84711 0.75477 0.96515 0.0
H440 H 0.83256 0.87686 0.95622 0.0
H441 H 0.88257 0.84675 0.07528 0.0
H442 H 0.80029 0.80588 0.92641 0.0
H443 H 0.7716 0.82282 0.96252 0.0
H444 H 0.79281 0.84724 0.92295 0.0
H445 H 0.87469 0.79744 0.1091 0.0
H446 H 0.83388 0.78692 0.10877 0.0
H447 H 0.86029 0.76758 0.07159 0.0
H448 H 0.73817 0.7483 0.05713 0.0
H449 H 0.80543 0.70718 0.96817 0.0
H450 H 0.76214 0.82475 0.0463 0.0
H451 H 0.78406 0.81131 0.09433 0.0
H452 H 0.74417 0.79858 0.08692 0.0
H453 H 0.84598 0.77316 0.9384 0.0
H454 H 0.85258 0.73214 0.94885 0.0
H455 H 0.86659 0.76098 0.98834 0.0
C456 C 0.131 0.89248 0.04079 0.0
C457 C 0.11214 0.893 0.00182 0.0
C458 C 0.15855 0.87472 0.04239 0.0
C459 C 0.16705 0.85658 0.00442 0.0
C460 C 0.14822 0.85729 0.96482 0.0
C461 C 0.12118 0.87575 0.96384 0.0
C462 C 0.17844 0.87523 0.0848 0.0
C463 C 0.15623 0.83804 0.92379 0.0
C464 C 0.2504 0.82747 0.99112 0.0
C465 C 0.24812 0.79707 0.00888 0.0
C466 C 0.22433 0.84734 0.9902 0.0
C467 C 0.19518 0.83621 0.00642 0.0
C468 C 0.19276 0.80537 0.02398 0.0
C469 C 0.21938 0.78629 0.0255 0.0
C470 C 0.22801 0.88031 0.97227 0.0
C471 C 0.16195 0.79238 0.04057 0.0
H472 H 0.12442 0.90629 0.06984 0.0
H473 H 0.1067 0.8761 0.93358 0.0
H474 H 0.1778 0.85195 0.10164 0.0
H475 H 0.20316 0.88028 0.07604 0.0
H476 H 0.17033 0.89295 0.10939 0.0
H477 H 0.13919 0.84132 0.89563 0.0
H478 H 0.17982 0.84439 0.91119 0.0
H479 H 0.1568 0.8129 0.93335 0.0
H480 H 0.27276 0.83584 0.97867 0.0
H481 H 0.21765 0.76268 0.03897 0.0
H482 H 0.22085 0.89719 -0.0014 0.0
H483 H 0.2125 0.88408 0.94249 0.0
H484 H 0.25244 0.88561 0.96204 0.0
H485 H 0.15307 0.80668 0.06892 0.0
H486 H 0.16391 0.76775 0.05243 0.0
H487 H 0.14433 0.79358 0.01289 0.0
C488 C 0.60051 0.63039 0.47391 0.0
C489 C 0.59533 0.61053 0.51125 0.0
C490 C 0.62702 0.6498 0.47219 0.0
C491 C 0.64921 0.64841 0.50794 0.0
C492 C 0.64333 0.62938 0.54655 0.0
C493 C 0.61626 0.61099 0.54796 0.0
C494 C 0.63192 0.6707 0.43127 0.0
C495 C 0.66668 0.62662 0.58495 0.0
C496 C 0.73457 0.66136 0.48004 0.0
C497 C 0.74096 0.68978 0.50166 0.0
C498 C 0.7047 0.64795 0.48127 0.0
C499 C 0.68012 0.66392 0.50305 0.0
C500 C 0.68581 0.6934 0.52272 0.0
C501 C 0.71627 0.70573 0.52254 0.0
C502 C 0.69975 0.61613 0.4606 0.0
C503 C 0.65991 0.71155 0.54496 0.0
H504 H 0.58423 0.63026 0.44564 0.0
H505 H 0.61249 0.59551 0.57678 0.0
H506 H 0.63957 0.69433 0.44189 0.0
H507 H 0.65063 0.66094 0.40968 0.0
H508 H 0.61037 0.67295 0.41038 0.0
H509 H 0.65755 0.61248 0.61386 0.0
H510 H 0.68833 0.61543 0.57238 0.0
H511 H 0.67322 0.65004 0.5976 0.0
H512 H 0.75304 0.64924 0.46241 0.0
H513 H 0.72074 0.72753 0.53975 0.0
H514 H 0.68131 0.61731 0.43412 0.0
H515 H 0.69166 0.59937 0.48709 0.0
H516 H 0.72138 0.60678 0.44508 0.0
H517 H 0.63909 0.71254 0.52244 0.0
H518 H 0.66718 0.73578 0.55319 0.0
H519 H 0.65273 0.6996 0.57685 0.0
C520 C 0.3359 0.62631 0.54657 0.0
C521 C 0.34829 0.61687 0.5049 0.0
C522 C 0.31636 0.65247 0.54905 0.0
C523 C 0.30906 0.66932 0.50886 0.0
C524 C 0.31871 0.65787 0.46628 0.0
C525 C 0.33816 0.63168 0.46478 0.0
C526 C 0.30604 0.66364 0.59505 0.0
C527 C 0.31111 0.67502 0.42259 0.0
C528 C 0.25291 0.73781 0.5071 0.0
C529 C 0.2738 0.76309 0.50938 0.0
C530 C 0.26385 0.70693 0.5083 0.0
C531 C 0.29635 0.7014 0.51162 0.0
C532 C 0.31741 0.72684 0.51511 0.0
C533 C 0.30585 0.75735 0.51407 0.0
C534 C 0.24077 0.68032 0.50481 0.0
C535 C 0.3523 0.72189 0.5189 0.0
H536 H 0.34291 0.61445 0.57759 0.0
H537 H 0.34707 0.62417 0.43227 0.0
H538 H 0.32103 0.68353 0.6055 0.0
H539 H 0.28155 0.67204 0.5939 0.0
H540 H 0.30801 0.64495 0.62134 0.0
H541 H 0.31662 0.66091 0.39224 0.0
H542 H 0.28604 0.68149 0.42137 0.0
H543 H 0.32493 0.69697 0.42079 0.0
H544 H 0.2281 0.74219 0.50325 0.0
H545 H 0.32198 0.77682 0.51681 0.0
H546 H 0.24514 0.66273 0.532 0.0
H547 H 0.24379 0.66839 0.47187 0.0
H548 H 0.2162 0.68842 0.50725 0.0
H549 H 0.35769 0.70662 0.54853 0.0
H550 H 0.36534 0.74419 0.52268 0.0
H551 H 0.36095 0.70994 0.48815 0.0
C552 C 0.32618 0.38284 0.51003 0.0
C553 C 0.35247 0.38436 0.5385 0.0
C554 C 0.3075 0.35589 0.50859 0.0
C555 C 0.31548 0.32973 0.53597 0.0
C556 C 0.34188 0.33114 0.56494 0.0
C557 C 0.35999 0.35848 0.56601 0.0
C558 C 0.27932 0.35535 0.47762 0.0
C559 C 0.35123 0.30363 0.59444 0.0
C560 C 0.25335 0.26859 0.56124 0.0
C561 C 0.2602 0.24576 0.529 0.0
C562 C 0.27106 0.29614 0.56377 0.0
C563 C 0.29645 0.30071 0.53371 0.0
C564 C 0.30359 0.27761 0.50128 0.0
C565 C 0.28521 0.25048 0.49911 0.0
C566 C 0.26248 0.32045 0.59833 0.0
C567 C 0.33077 0.28148 0.46911 0.0
H568 H 0.32012 0.40278 0.48881 0.0
H569 H 0.38038 0.35934 0.58785 0.0
H570 H 0.28201 0.33671 0.45203 0.0
H571 H 0.25798 0.34983 0.49748 0.0
H572 H 0.27578 0.37797 0.45954 0.0
H573 H 0.37288 0.30825 0.61421 0.0
H574 H 0.33214 0.29784 0.6185 0.0
H575 H 0.35504 0.28277 0.57312 0.0
H576 H 0.23381 0.26505 0.58408 0.0
H577 H 0.29071 0.23267 0.4745 0.0
H578 H 0.25716 0.34294 0.58094 0.0
H579 H 0.28251 0.32469 0.62147 0.0
H580 H 0.24192 0.31339 0.619 0.0
H581 H 0.32755 0.3028 0.44792 0.0
H582 H 0.33345 0.26113 0.44634 0.0
H583 H 0.35276 0.28454 0.48865 0.0
C584 C 0.65103 0.40163 0.53398 0.0
C585 C 0.6274 0.39685 0.56622 0.0
C586 C 0.67819 0.38342 0.53452 0.0
C587 C 0.6817 0.35967 0.56788 0.0
C588 C 0.65905 0.35629 0.60255 0.0
C589 C 0.63221 0.37511 0.6015 0.0
C590 C 0.70208 0.3882 0.49743 0.0
C591 C 0.66209 0.33134 0.63886 0.0
C592 C 0.72588 0.2888 0.52689 0.0
C593 C 0.75557 0.29332 0.54604 0.0
C594 C 0.70144 0.30971 0.53509 0.0
C595 C 0.70683 0.33605 0.56277 0.0
C596 C 0.73652 0.34053 0.58296 0.0
C597 C 0.76054 0.31906 0.57444 0.0
C598 C 0.67003 0.30402 0.51303 0.0
C599 C 0.74316 0.36842 0.61248 0.0
H600 H 0.64774 0.41876 0.50704 0.0
H601 H 0.61419 0.37146 0.6268 0.0
H602 H 0.72601 0.38899 0.51195 0.0
H603 H 0.70112 0.36823 0.47373 0.0
H604 H 0.69793 0.41006 0.4777 0.0
H605 H 0.6439 0.33345 0.66546 0.0
H606 H 0.65994 0.30795 0.62322 0.0
H607 H 0.68544 0.33257 0.65519 0.0
H608 H 0.7219 0.2693 0.5044 0.0
H609 H 0.78327 0.32248 0.58997 0.0
H610 H 0.66485 0.32312 0.48844 0.0
H611 H 0.65131 0.30407 0.53901 0.0
H612 H 0.66912 0.28144 0.49479 0.0
H613 H 0.74197 0.39011 0.59163 0.0
H614 H 0.7666 0.36714 0.62871 0.0
H615 H 0.72523 0.37036 0.6394 0.0
C616 C 0.00278 0.06744 0.20078 0.0
C617 C 0.00729 0.08156 0.15829 0.0
C618 C 0.02241 0.07445 0.23743 0.0
C619 C 0.04713 0.09611 0.23127 0.0
C620 C 0.05161 0.11065 0.1884 0.0
C621 C 0.03168 0.10301 0.15221 0.0
C622 C 0.0164 0.05902 0.28289 0.0
C623 C 0.0771 0.13456 0.18107 0.0
C624 C 0.08065 0.13207 0.33812 0.0
C625 C 0.10659 0.11284 0.34674 0.0
C626 C 0.06139 0.12731 0.30019 0.0
C627 C 0.06852 0.10307 0.26968 0.0
C628 C 0.09528 0.08433 0.27712 0.0
C629 C 0.11385 0.08927 0.31573 0.0
C630 C 0.03296 0.14771 0.29347 0.0
C631 C 0.10381 0.05855 0.24486 0.0
H632 H 0.98408 0.05061 0.20523 0.0
H633 H 0.0346 0.1144 0.11948 0.0
H634 H 0.0381 0.04808 0.29613 0.0
H635 H 0.0092 0.07692 0.30771 0.0
H636 H 0.99776 0.04096 0.28108 0.0
H637 H 0.07745 0.14379 0.1457 0.0
H638 H 0.07387 0.15444 0.20442 0.0
H639 H 0.10014 0.12407 0.18917 0.0
H640 H 0.07521 0.1508 0.36126 0.0
H641 H 0.13357 0.07402 0.32223 0.0
H642 H 0.01147 0.13331 0.29673 0.0
H643 H 0.03285 0.15811 0.25884 0.0
H644 H 0.03186 0.16686 0.31858 0.0
H645 H 0.08475 0.04095 0.24374 0.0
H646 H 0.12588 0.04668 0.25482 0.0
H647 H 0.1065 0.06817 0.20997 0.0
C648 C 0.85757 0.01161 0.17959 0.0
C649 C 0.8888 0.01431 0.166 0.0
C650 C 0.84582 0.03027 0.21464 0.0
C651 C 0.86589 0.05194 0.23631 0.0
C652 C 0.89763 0.05414 0.22305 0.0
C653 C 0.9087 0.03485 0.1886 0.0
C654 C 0.81198 0.02708 0.22821 0.0
C655 C 0.92043 0.07622 0.24551 0.0
C656 C 0.83848 0.12389 0.29819 0.0
C657 C 0.84398 0.1152 0.34352 0.0
C658 C 0.84333 0.10268 0.26288 0.0
C659 C 0.85417 0.07219 0.2732 0.0
C660 C 0.85799 0.06275 0.31904 0.0
C661 C 0.85278 0.08435 0.35367 0.0
C662 C 0.8394 0.11378 0.21443 0.0
C663 C 0.86982 0.03057 0.33141 0.0
H664 H 0.84227 0.99538 0.16225 0.0
H665 H 0.93317 0.03531 0.17981 0.0
H666 H 0.81032 0.0212 0.26489 0.0
H667 H 0.79979 0.04967 0.22285 0.0
H668 H 0.79961 0.00877 0.20857 0.0
H669 H 0.93853 0.08424 0.22113 0.0
H670 H 0.90897 0.09719 0.25954 0.0
H671 H 0.93243 0.0637 0.27373 0.0
H672 H 0.83142 0.14763 0.29023 0.0
H673 H 0.8574 0.07756 0.38859 0.0
H674 H 0.82752 0.09581 0.19364 0.0
H675 H 0.86284 0.11795 0.19947 0.0
H676 H 0.82582 0.13583 0.21218 0.0
H677 H 0.85711 0.01244 0.31196 0.0
H678 H 0.86731 0.02538 0.36825 0.0
H679 H 0.89493 0.02889 0.32243 0.0
C680 C 0.97458 0.91452 0.19033 0.0
C681 C 0.95985 0.91087 0.14818 0.0
C682 C 0.96275 0.8998 0.22936 0.0
C683 C 0.93588 0.88061 0.22581 0.0
C684 C 0.92002 0.87822 0.18372 0.0
C685 C 0.93244 0.89322 0.14528 0.0
C686 C 0.97988 0.90357 0.27383 0.0
C687 C 0.89125 0.85811 0.17812 0.0
C688 C 0.9317 0.81119 0.30619 0.0
C689 C 0.9093 0.82101 0.33746 0.0
C690 C 0.94036 0.83039 0.26956 0.0
C691 C 0.92663 0.86029 0.26459 0.0
C692 C 0.90406 0.8704 0.29619 0.0
C693 C 0.89546 0.85047 0.33218 0.0
C694 C 0.96403 0.81855 0.23594 0.0
C695 C 0.88895 0.90211 0.29175 0.0
H696 H 0.99582 0.92832 0.19256 0.0
H697 H 0.92182 0.88946 0.11256 0.0
H698 H 0.96325 0.90921 0.30135 0.0
H699 H 0.99143 0.88124 0.28322 0.0
H700 H -0.00204 0.92223 0.27199 0.0
H701 H 0.87602 0.86735 0.15054 0.0
H702 H 0.89857 0.83415 0.1689 0.0
H703 H 0.87726 0.85653 0.20966 0.0
H704 H 0.94213 0.78826 0.3101 0.0
H705 H 0.87825 0.85808 0.35662 0.0
H706 H 0.98456 0.83442 0.23486 0.0
H707 H 0.95361 0.81834 0.2014 0.0
H708 H 0.97226 0.7946 0.24449 0.0
H709 H 0.90714 0.92064 0.29137 0.0
H710 H 0.8724 0.90678 0.31984 0.0
H711 H 0.8761 0.90379 0.25904 0.0
C712 C 0.0731 0.94614 0.14576 0.0
C713 C 0.05541 0.97313 0.15228 0.0
C714 C 0.08563 0.92963 0.18289 0.0
C715 C 0.08074 0.94093 0.22725 0.0
C716 C 0.05986 0.96598 0.23414 0.0
C717 C 0.04776 0.98213 0.19645 0.0
C718 C 0.10637 0.9019 0.17427 0.0
C719 C 0.05265 0.97768 0.28105 0.0
C720 C 0.11436 0.90168 0.33293 0.0
C721 C 0.14212 0.91875 0.33871 0.0
C722 C 0.09444 0.90767 0.2959 0.0
C723 C 0.10234 0.9316 0.26444 0.0
C724 C 0.13079 0.94824 0.26949 0.0
C725 C 0.15036 0.94148 0.30638 0.0
C726 C 0.06458 0.88907 0.29194 0.0
C727 C 0.14057 0.97341 0.23606 0.0
H728 H 0.07939 0.93942 0.11182 0.0
H729 H 0.03359 0.00276 0.20155 0.0
H730 H 0.131 0.90989 0.17194 0.0
H731 H 0.10474 0.88441 0.20224 0.0
H732 H 0.10008 0.89036 0.14188 0.0
H733 H 0.03047 0.99104 0.28141 0.0
H734 H 0.0507 0.95807 0.30575 0.0
H735 H 0.07188 0.99321 0.29247 0.0
H736 H 0.10778 0.88413 0.35792 0.0
H737 H 0.17221 0.95412 0.30999 0.0
H738 H 0.05555 0.88834 0.25662 0.0
H739 H 0.04656 0.89987 0.31372 0.0
H740 H 0.06806 0.86474 0.30437 0.0
H741 H 0.14483 0.96284 0.20241 0.0
H742 H 0.16216 0.98579 0.24687 0.0
H743 H 0.12165 0.99083 0.23169 0.0
C744 C 0.11359 0.95929 0.88113 0.0
C745 C 0.09163 0.98325 0.87534 0.0
C746 C 0.12667 0.94447 0.84345 0.0
C747 C 0.11727 0.95376 0.79923 0.0
C748 C 0.09335 0.97625 0.79346 0.0
C749 C 0.08101 0.9909 0.83163 0.0
C750 C 0.15175 0.92018 0.85089 0.0
C751 C 0.08199 0.98657 0.74711 0.0
C752 C 0.17591 0.95234 0.70365 0.0
C753 C 0.16585 0.92647 0.67873 0.0
C754 C 0.16076 0.96086 0.74366 0.0
C755 C 0.13493 0.94305 0.75915 0.0
C756 C 0.12495 0.91655 0.73467 0.0
C757 C 0.14057 0.90855 0.69464 0.0
C758 C 0.17174 0.9896 0.76851 0.0
C759 C 0.09706 0.89749 0.74982 0.0
H760 H 0.12165 0.95308 0.91495 0.0
H761 H 0.06357 0.009 0.82705 0.0
H762 H 0.14605 0.89868 0.83183 0.0
H763 H 0.17437 0.92916 0.83775 0.0
H764 H 0.15475 0.91395 0.88734 0.0
H765 H 0.05715 0.99393 0.74843 0.0
H766 H 0.09609 0.00694 0.73556 0.0
H767 H 0.08413 0.96792 0.72149 0.0
H768 H 0.1951 0.96654 0.6911 0.0
H769 H 0.1329 0.88836 0.67562 0.0
H770 H 0.17641 0.98383 0.80469 0.0
H771 H 0.15312 0.00761 0.76755 0.0
H772 H 0.19329 -0.00019 0.75344 0.0
H773 H 0.10005 0.88981 0.78564 0.0
H774 H 0.09332 0.87658 0.72843 0.0
H775 H 0.07572 0.91215 0.74823 0.0
C776 C 0.0343 0.09994 0.88324 0.0
C777 C 0.00189 0.10442 0.88242 0.0
C778 C 0.05249 0.10497 0.84443 0.0
C779 C 0.0381 0.11615 0.80418 0.0
C780 C 0.00569 0.12282 0.80388 0.0
C781 C 0.98785 0.11644 0.84288 0.0
C782 C 0.08686 0.09694 0.84603 0.0
C783 C 0.98992 0.13648 0.76231 0.0
C784 C 0.09339 0.14753 0.71396 0.0
C785 C 0.09582 0.12184 0.68489 0.0
C786 C 0.07384 0.14648 0.75213 0.0
C787 C 0.05671 0.11892 0.76184 0.0
C788 C 0.05859 0.09316 0.73225 0.0
C789 C 0.07799 0.09497 0.69407 0.0
C790 C 0.07211 0.17456 0.78263 0.0
C791 C 0.0407 0.06335 0.74154 0.0
H792 H 0.04544 0.09157 0.91388 0.0
H793 H 0.96294 0.12076 0.84234 0.0
H794 H 0.09134 0.07672 0.82369 0.0
H795 H 0.10113 0.11677 0.83317 0.0
H796 H 0.09491 0.09084 0.8809 0.0
H797 H 0.96417 0.13802 0.76625 0.0
H798 H -0.00079 0.1603 0.75568 0.0
H799 H 0.99518 0.12231 0.73198 0.0
H800 H 0.10731 0.16828 0.70751 0.0
H801 H 0.07918 0.07525 0.67136 0.0
H802 H 0.08259 0.1688 0.81615 0.0
H803 H 0.04738 0.18103 0.78857 0.0
H804 H 0.08461 0.19512 0.76814 0.0
H805 H 0.04983 0.05218 0.77299 0.0
H806 H 0.04257 0.0465 0.71326 0.0
H807 H 0.01565 0.06846 0.74729 0.0
C808 C 0.90103 0.05021 0.85562 0.0
C809 C 0.90091 0.01751 0.85523 0.0
C810 C 0.89731 0.06755 0.81545 0.0
C811 C 0.89326 0.05176 0.77384 0.0
C812 C 0.8929 0.0187 0.77317 0.0
C813 C 0.89664 0.00194 0.81401 0.0
C814 C 0.89733 0.1028 0.81765 0.0
C815 C 0.88842 0.00107 0.72949 0.0
C816 C 0.85596 0.10138 0.68156 0.0
C817 C 0.88222 0.11187 0.6574 0.0
C818 C 0.85907 0.08059 0.71833 0.0
C819 C 0.88919 0.07021 0.73134 0.0
C820 C 0.91567 0.07979 0.70608 0.0
C821 C 0.91188 0.10053 0.66931 0.0
C822 C 0.83023 0.07048 0.74405 0.0
C823 C 0.94809 0.06894 0.71888 0.0
H824 H 0.90358 0.06233 0.88751 0.0
H825 H 0.89641 0.97665 0.81357 0.0
H826 H 0.91452 0.11268 0.79331 0.0
H827 H 0.874 0.11184 0.80768 0.0
H828 H 0.90296 0.11144 0.85216 0.0
H829 H 0.88881 0.97534 0.73485 0.0
H830 H 0.86578 0.00761 0.71363 0.0
H831 H 0.90706 0.00748 0.70502 0.0
H832 H 0.83293 0.1096 0.67183 0.0
H833 H 0.93223 0.10865 0.65078 0.0
H834 H 0.8309 0.08022 0.77879 0.0
H835 H 0.82955 0.04466 0.74757 0.0
H836 H 0.80836 0.07839 0.72713 0.0
H837 H 0.95387 0.0767 0.75375 0.0
H838 H 0.96617 0.07798 0.69514 0.0
H839 H 0.94908 0.04305 0.71913 0.0
C840 C 0.99076 0.90471 0.802 0.0
C841 C 0.97113 0.91963 0.83304 0.0
C842 C 0.97833 0.88824 0.76519 0.0
C843 C 0.94554 0.88707 0.75894 0.0
C844 C 0.92571 0.90343 0.78873 0.0
C845 C 0.93876 0.91928 0.82567 0.0
C846 C 0.00023 0.87092 0.73424 0.0
C847 C 0.89065 0.9032 0.78261 0.0
C848 C 0.91624 0.85796 0.64519 0.0
C849 C 0.9094 0.82654 0.65532 0.0
C850 C 0.92718 0.87826 0.67886 0.0
C851 C 0.93196 0.8667 0.72346 0.0
C852 C 0.92467 0.8352 0.73411 0.0
C853 C 0.91319 0.81562 0.70005 0.0
C854 C 0.93421 0.91187 0.66651 0.0
C855 C 0.92959 0.82199 0.78134 0.0
H856 H 0.01585 0.90499 0.80725 0.0
H857 H 0.92346 0.93054 0.84955 0.0
H858 H 0.99568 0.84544 0.73698 0.0
H859 H 0.99604 0.87791 0.69839 0.0
H860 H 0.02519 0.87529 0.74259 0.0
H861 H 0.87869 0.91881 0.8069 0.0
H862 H 0.88445 0.91063 0.74755 0.0
H863 H 0.88154 0.87912 0.78756 0.0
H864 H 0.91379 0.86658 0.61066 0.0
H865 H 0.90734 0.79162 0.70848 0.0
H866 H 0.95965 0.91636 0.6699 0.0
H867 H 0.92212 0.92781 0.69015 0.0
H868 H 0.92695 0.91779 0.63124 0.0
H869 H 0.95459 0.82407 0.79102 0.0
H870 H 0.92259 0.79703 0.78408 0.0
H871 H 0.91591 0.83553 0.80626 0.0
C872 C 0.52553 0.60264 0.63387 0.0
C873 C 0.49989 0.58338 0.64333 0.0
C874 C 0.54767 0.60933 0.66764 0.0
C875 C 0.54413 0.59592 0.71147 0.0
C876 C 0.51802 0.57653 0.72105 0.0
C877 C 0.49593 0.57081 0.68687 0.0
C878 C 0.57524 0.62999 0.65615 0.0
C879 C 0.51393 0.56109 0.76697 0.0
C880 C 0.61314 0.58348 0.79054 0.0
C881 C 0.6088 0.60736 0.82224 0.0
C882 C 0.59326 0.58055 0.75281 0.0
C883 C 0.56796 0.60147 0.74728 0.0
C884 C 0.56421 0.62638 0.77792 0.0
C885 C 0.58484 0.62921 0.81473 0.0
C886 C 0.59847 0.55412 0.7202 0.0
C887 C 0.53759 0.64925 0.773 0.0
H888 H 0.52828 0.61231 0.59997 0.0
H889 H 0.47618 0.55554 0.69365 0.0
H890 H 0.57689 0.64951 0.68055 0.0
H891 H 0.59719 0.61637 0.65915 0.0
H892 H 0.57366 0.63988 0.62121 0.0
H893 H 0.49224 0.54681 0.76891 0.0
H894 H 0.53418 0.54571 0.77443 0.0
H895 H 0.51319 0.57907 0.79381 0.0
H896 H 0.63138 0.56632 0.79595 0.0
H897 H 0.58178 0.64831 0.83814 0.0
H898 H 0.59434 0.56165 0.68456 0.0
H899 H 0.58175 0.53496 0.72799 0.0
H900 H 0.62259 0.54477 0.72288 0.0
H901 H 0.53604 0.65824 0.73761 0.0
H902 H 0.54004 0.66937 0.79629 0.0
H903 H 0.51527 0.63712 0.7807 0.0
C904 C 0.41247 0.5219 0.70745 0.0
C905 C 0.40355 0.52962 0.6629 0.0
C906 C 0.4084 0.54311 0.74299 0.0
C907 C 0.39501 0.57274 0.7338 0.0
C908 C 0.38625 0.58076 0.68877 0.0
C909 C 0.3902 0.55888 0.65409 0.0
C910 C 0.41814 0.53367 0.79047 0.0
C911 C 0.372 0.61202 0.67684 0.0
C912 C 0.35612 0.61382 0.83237 0.0
C913 C 0.37966 0.63453 0.84648 0.0
C914 C 0.36067 0.59389 0.79543 0.0
C915 C 0.38935 0.59481 0.77165 0.0
C916 C 0.41276 0.61641 0.78457 0.0
C917 C 0.40779 0.63575 0.82208 0.0
C918 C 0.33485 0.57173 0.78191 0.0
C919 C 0.44325 0.61875 0.75917 0.0
H920 H 0.42284 0.49928 0.71452 0.0
H921 H 0.38241 0.56457 0.62013 0.0
H922 H 0.43487 0.55101 0.80433 0.0
H923 H 0.39741 0.53337 0.81301 0.0
H924 H 0.42923 0.51024 0.79167 0.0
H925 H 0.37818 0.61917 0.64166 0.0
H926 H 0.34617 0.61006 0.67878 0.0
H927 H 0.37967 0.63075 0.70013 0.0
H928 H 0.33401 0.61321 0.85019 0.0
H929 H 0.42628 0.6514 0.83282 0.0
H930 H 0.34338 0.54729 0.7837 0.0
H931 H 0.32775 0.57649 0.74625 0.0
H932 H 0.31395 0.57379 0.80397 0.0
H933 H 0.45696 0.59722 0.76535 0.0
H934 H 0.45743 0.63915 0.76994 0.0
H935 H 0.43894 0.62062 0.72207 0.0
C936 C 0.4273 0.39379 0.6724 0.0
C937 C 0.4575 0.40546 0.67925 0.0
C938 C 0.41068 0.37968 0.70822 0.0
C939 C 0.425 0.37694 0.75148 0.0
C940 C 0.45473 0.39054 0.75907 0.0
C941 C 0.47053 0.40468 0.72284 0.0
C942 C 0.37886 0.3659 0.69871 0.0
C943 C 0.47086 0.38835 0.80471 0.0
C944 C 0.38641 0.35185 0.86132 0.0
C945 C 0.39746 0.32114 0.8657 0.0
C946 C 0.39308 0.36982 0.8224 0.0
C947 C 0.41129 0.35671 0.78745 0.0
C948 C 0.42038 0.32497 0.79027 0.0
C949 C 0.41335 0.30757 0.8294 0.0
C950 C 0.38239 0.40336 0.81998 0.0
C951 C 0.43942 0.30998 0.75334 0.0
H952 H 0.41747 0.39388 0.63866 0.0
H953 H 0.49368 0.41424 0.7283 0.0
H954 H 0.38149 0.34087 0.69012 0.0
H955 H 0.36335 0.36739 0.72871 0.0
H956 H 0.36737 0.37787 0.66951 0.0
H957 H 0.49276 0.40233 0.80581 0.0
H958 H 0.45511 0.39653 0.83193 0.0
H959 H 0.47672 0.3636 0.81233 0.0
H960 H 0.37404 0.3624 0.8893 0.0
H961 H 0.42126 0.28359 0.83232 0.0
H962 H 0.37256 0.40885 0.78593 0.0
H963 H 0.40269 0.4191 0.82536 0.0
H964 H 0.36451 0.40852 0.84611 0.0
H965 H 0.4283 0.31404 0.71975 0.0
H966 H 0.44214 0.28442 0.7588 0.0
H967 H 0.46303 0.32078 0.75227 0.0
C968 C 0.60236 0.48504 0.662 0.0
C969 C 0.57098 0.47591 0.65981 0.0
C970 C 0.62215 0.47324 0.69597 0.0
C971 C 0.61016 0.45182 0.72845 0.0
C972 C 0.57873 0.44153 0.72515 0.0
C973 C 0.55937 0.45408 0.69105 0.0
C974 C 0.65559 0.48455 0.69803 0.0
C975 C 0.5647 0.41868 0.75874 0.0
C976 C 0.66965 0.40984 0.80287 0.0
C977 C 0.67027 0.42914 0.84105 0.0
C978 C 0.64964 0.41648 0.76614 0.0
C979 C 0.62975 0.44281 0.76808 0.0
C980 C 0.62951 0.4616 0.80735 0.0
C981 C 0.64996 0.45467 0.84317 0.0
C982 C 0.64985 0.39553 0.72522 0.0
C983 C 0.60835 0.48961 0.81111 0.0
H984 H 0.61125 0.50195 0.63759 0.0
H985 H 0.53486 0.44796 0.69025 0.0
H986 H 0.65978 0.49688 0.73046 0.0
H987 H 0.67177 0.46436 0.6972 0.0
H988 H 0.66143 0.50068 0.66951 0.0
H989 H 0.548 0.40283 0.74144 0.0
H990 H 0.58254 0.40419 0.77631 0.0
H991 H 0.55149 0.43183 0.78466 0.0
H992 H 0.68526 0.38998 0.80136 0.0
H993 H 0.64999 0.46924 0.87308 0.0
H994 H 0.6568 0.40911 0.69458 0.0
H995 H 0.62595 0.38633 0.71894 0.0
H996 H 0.66612 0.37553 0.72946 0.0
H997 H 0.61684 0.50821 0.78784 0.0
H998 H 0.60791 0.49914 0.84604 0.0
H999 H 0.58411 0.48359 0.80086 0.0
C1000 C 0.56272 0.48427 0.32279 0.0
C1001 C 0.58201 0.48975 0.36049 0.0
C1002 C 0.57501 0.47189 0.28274 0.0
C1003 C 0.60742 0.46579 0.28012 0.0
C1004 C 0.62672 0.47012 0.31863 0.0
C1005 C 0.61373 0.48192 0.35843 0.0
C1006 C 0.55344 0.4654 0.2433 0.0
C1007 C 0.66135 0.46342 0.31728 0.0
C1008 C 0.64429 0.41929 0.18566 0.0
C1009 C 0.65738 0.44324 0.15893 0.0
C1010 C 0.62653 0.42619 0.22419 0.0
C1011 C 0.62197 0.45775 0.2362 0.0
C1012 C 0.6339 0.48201 0.20816 0.0
C1013 C 0.65146 0.47446 0.16979 0.0
C1014 C 0.61444 0.39962 0.25335 0.0
C1015 C 0.62901 0.51596 0.21967 0.0
H1016 H 0.53809 0.48999 0.32434 0.0
H1017 H 0.62874 0.48586 0.38754 0.0
H1018 H 0.56254 0.47645 0.21179 0.0
H1019 H 0.55245 0.43987 0.23738 0.0
H1020 H 0.52928 0.4738 0.24942 0.0
H1021 H 0.67262 0.46585 0.35109 0.0
H1022 H 0.66548 0.43939 0.30492 0.0
H1023 H 0.67292 0.4798 0.29318 0.0
H1024 H 0.64904 0.39512 0.17758 0.0
H1025 H 0.66106 0.493 0.14867 0.0
H1026 H 0.59142 0.40521 0.26834 0.0
H1027 H 0.63106 0.39539 0.28173 0.0
H1028 H 0.61226 0.37769 0.23374 0.0
H1029 H 0.60364 0.52087 0.22195 0.0
H1030 H 0.63957 0.53205 0.19422 0.0
H1031 H 0.63944 0.52107 0.25332 0.0
C1032 C 0.53174 0.58171 0.35507 0.0
C1033 C 0.49969 0.58823 0.35388 0.0
C1034 C 0.55004 0.58421 0.31584 0.0
C1035 C 0.5363 0.59532 0.275 0.0
C1036 C 0.5042 0.60334 0.27408 0.0
C1037 C 0.48615 0.59907 0.31337 0.0
C1038 C 0.58382 0.57405 0.31784 0.0
C1039 C 0.48893 0.61649 0.23177 0.0
C1040 C 0.59425 0.62671 0.18858 0.0
C1041 C 0.59607 0.60194 0.15775 0.0
C1042 C 0.57397 0.62537 0.22588 0.0
C1043 C 0.55565 0.59827 0.23337 0.0
C1044 C 0.55708 0.57332 0.20233 0.0
C1045 C 0.57702 0.57556 0.16469 0.0
C1046 C 0.57252 0.65279 0.25769 0.0
C1047 C 0.53806 0.54395 0.2095 0.0
H1048 H 0.5424 0.57377 0.38641 0.0
H1049 H 0.46151 0.60458 0.31257 0.0
H1050 H 0.5874 0.55416 0.29454 0.0
H1051 H 0.59938 0.59328 0.30634 0.0
H1052 H 0.59109 0.56667 0.35255 0.0
H1053 H 0.4643 0.62349 0.23767 0.0
H1054 H 0.50221 0.63716 0.21934 0.0
H1055 H 0.48927 0.59889 0.20443 0.0
H1056 H 0.60911 0.64703 0.18414 0.0
H1057 H 0.57768 0.55654 0.14073 0.0
H1058 H 0.58219 0.64598 0.29132 0.0
H1059 H 0.54787 0.65988 0.26294 0.0
H1060 H 0.58589 0.67327 0.2447 0.0
H1061 H 0.54382 0.53346 0.24306 0.0
H1062 H 0.54228 0.52642 0.18269 0.0
H1063 H 0.51278 0.54955 0.2098 0.0
C1064 C 0.39574 0.53312 0.35377 0.0
C1065 C 0.37213 0.53666 0.38625 0.0
C1066 C 0.39628 0.55159 0.31414 0.0
C1067 C 0.37226 0.57375 0.30641 0.0
C1068 C 0.34833 0.57736 0.33901 0.0
C1069 C 0.34859 0.55883 0.37857 0.0
C1070 C 0.42247 0.54694 0.28061 0.0
C1071 C 0.32237 0.60074 0.33201 0.0
C1072 C 0.38525 0.64178 0.22455 0.0
C1073 C 0.37063 0.63093 0.18503 0.0
C1074 C 0.3862 0.62341 0.26425 0.0
C1075 C 0.37216 0.59337 0.26443 0.0
C1076 C 0.35752 0.58223 0.22455 0.0
C1077 C 0.35696 0.60112 0.18534 0.0
C1078 C 0.40124 0.63709 0.30606 0.0
C1079 C 0.34202 0.55052 0.22352 0.0
H1080 H 0.41413 0.51615 0.35949 0.0
H1081 H 0.33032 0.56181 0.40355 0.0
H1082 H 0.41453 0.53061 0.25392 0.0
H1083 H 0.42934 0.56919 0.26375 0.0
H1084 H 0.44345 0.53663 0.29723 0.0
H1085 H 0.30551 0.60073 0.36062 0.0
H1086 H 0.33235 0.62456 0.32825 0.0
H1087 H 0.30952 0.59548 0.30019 0.0
H1088 H 0.39538 0.66502 0.22485 0.0
H1089 H 0.34591 0.59248 0.15476 0.0
H1090 H 0.40863 0.61908 0.33113 0.0
H1091 H 0.3842 0.6527 0.32278 0.0
H1092 H 0.42189 0.65153 0.29668 0.0
H1093 H 0.35955 0.53206 0.23063 0.0
H1094 H 0.33079 0.54568 0.19026 0.0
H1095 H 0.32398 0.54889 0.25044 0.0
C1096 C 0.47567 0.44808 0.34636 0.0
C1097 C 0.5038 0.43636 0.36412 0.0
C1098 C 0.46231 0.43526 0.30715 0.0
C1099 C 0.47732 0.40998 0.2857 0.0
C1100 C 0.5071 0.40008 0.30105 0.0
C1101 C 0.5201 0.41356 0.33995 0.0
C1102 C 0.43111 0.44727 0.29065 0.0
C1103 C 0.52423 0.37376 0.27828 0.0
C1104 C 0.42793 0.3453 0.23577 0.0
C1105 C 0.43193 0.35017 0.18907 0.0
C1106 C 0.44182 0.36527 0.26739 0.0
C1107 C 0.46011 0.39087 0.25196 0.0
C1108 C 0.46324 0.39671 0.20483 0.0
C1109 C 0.44918 0.37618 0.17389 0.0
C1110 C 0.43776 0.35831 0.31741 0.0
C1111 C 0.48244 0.42374 0.18689 0.0
H1112 H 0.46329 0.46626 0.36423 0.0
H1113 H 0.54227 0.40496 0.3528 0.0
H1114 H 0.43107 0.45001 0.25316 0.0
H1115 H 0.41258 0.43014 0.29965 0.0
H1116 H 0.4251 0.47006 0.30603 0.0
H1117 H 0.54748 0.36927 0.29387 0.0
H1118 H 0.51018 0.35197 0.28059 0.0
H1119 H 0.52751 0.37929 0.24175 0.0
H1120 H 0.41419 0.32555 0.24764 0.0
H1121 H 0.45261 0.37992 0.1378 0.0
H1122 H 0.42821 0.37905 0.33484 0.0
H1123 H 0.46082 0.35302 0.33301 0.0
H1124 H 0.42189 0.33817 0.32376 0.0
H1125 H 0.47976 0.44475 0.20827 0.0
H1126 H 0.47589 0.42988 0.15139 0.0
H1127 H 0.50749 0.41715 0.18725 0.0
loop_
_geom_bond_atom_site_label_1
_geom_bond_atom_site_label_2
_geom_bond_distance
_geom_bond_site_symmetry_2
_ccdc_geom_bond_type
Zn0 O2 1.933 1_556 S
Zn0 O20 1.985 . S
Zn0 O31 1.955 . S
Zn1 O2 1.911 . S
Zn1 O21 1.970 . S
Zn1 O37 1.945 . S
Zn1 O44 1.981 . S
O2 Zn0 1.933 1_554 S
O2 Zn1 1.911 . S
O2 H3 0.841 1_655 S
H3 O2 0.841 1_455 S
C4 O5 1.246 . S
C4 O33 1.276 1_545 S
O5 C4 1.246 . S
Zn6 O8 1.911 . S
Zn6 O23 1.970 . S
Zn6 O40 1.945 . S
Zn6 O47 1.981 . S
Zn7 O8 1.933 1_556 S
Zn7 O22 1.985 . S
Zn7 O29 1.955 . S
O8 Zn6 1.911 . S
O8 Zn7 1.933 1_554 S
O8 H9 0.841 1_455 S
H9 O8 0.841 1_655 S
Zn10 O11 1.933 1_556 S
Zn10 O24 1.985 . S
Zn10 O33 1.955 . S
O11 Zn10 1.933 1_554 S
O11 Zn12 1.911 . S
O11 H13 0.841 1_565 S
Zn12 O11 1.911 . S
Zn12 O25 1.970 . S
Zn12 O41 1.981 . S
Zn12 O43 1.945 . S
H13 O11 0.841 1_545 S
Zn14 O15 1.933 1_556 S
Zn14 O27 1.985 . S
Zn14 O35 1.955 . S
O15 Zn14 1.933 1_554 S
O15 H16 0.841 1_545 S
O15 Zn17 1.911 . S
H16 O15 0.841 1_565 S
Zn17 O15 1.911 . S
Zn17 O28 1.970 . S
Zn17 O38 1.981 . S
Zn17 O46 1.945 . S
C18 O19 1.246 . S
C18 O35 1.276 1_565 S
O19 C18 1.246 . S
O20 Zn0 1.985 . S
O20 C30 1.245 1_556 S
O21 Zn1 1.970 . S
O21 C30 1.263 . S
O22 Zn7 1.985 . S
O22 C34 1.245 1_556 S
O23 Zn6 1.970 . S
O23 C34 1.263 . S
O24 Zn10 1.985 . S
O24 C39 1.245 1_556 S
O25 Zn12 1.970 . S
O25 C39 1.263 . S
C26 O37 1.262 1_455 S
C26 O38 1.245 . S
O27 Zn14 1.985 . S
O27 C45 1.245 1_556 S
O28 Zn17 1.970 . S
O28 C45 1.263 . S
O29 Zn7 1.955 . S
O29 C48 1.276 1_455 S
C30 O20 1.245 1_554 S
C30 O21 1.263 . S
O31 Zn0 1.955 . S
O31 C50 1.276 1_655 S
C32 O40 1.262 1_655 S
C32 O41 1.245 . S
O33 C4 1.276 1_565 S
O33 Zn10 1.955 . S
C34 O22 1.245 1_554 S
C34 O23 1.263 . S
O35 Zn14 1.955 . S
O35 C18 1.276 1_545 S
C36 O43 1.262 1_545 S
C36 O44 1.245 . S
O37 Zn1 1.945 . S
O37 C26 1.262 1_655 S
O38 Zn17 1.981 . S
O38 C26 1.245 . S
C39 O24 1.245 1_554 S
C39 O25 1.263 . S
O40 Zn6 1.945 . S
O40 C32 1.262 1_455 S
O41 Zn12 1.981 . S
O41 C32 1.245 . S
C42 O46 1.262 1_565 S
C42 O47 1.245 . S
O43 Zn12 1.945 . S
O43 C36 1.262 1_565 S
O44 Zn1 1.981 . S
O44 C36 1.245 . S
C45 O27 1.245 1_554 S
C45 O28 1.263 . S
O46 Zn17 1.945 . S
O46 C42 1.262 1_545 S
O47 Zn6 1.981 . S
O47 C42 1.245 . S
C48 O29 1.276 1_655 S
C48 O49 1.246 . S
O49 C48 1.246 . S
C50 O31 1.276 1_455 S
C50 O51 1.246 . S
O51 C50 1.246 . S
Zn52 O54 1.933 . S
Zn52 O72 1.985 . S
Zn52 O83 1.955 . S
Zn53 O54 1.911 . S
Zn53 O73 1.970 . S
Zn53 O89 1.945 . S
Zn53 O96 1.981 . S
O54 Zn52 1.933 . S
O54 Zn53 1.911 . S
O54 H55 0.841 . S
H55 O54 0.841 . S
C56 O57 1.246 . S
C56 O85 1.276 . S
O57 C56 1.246 . S
Zn58 O60 1.911 . S
Zn58 O75 1.970 . S
Zn58 O92 1.945 . S
Zn58 O99 1.981 . S
Zn59 O60 1.933 . S
Zn59 O74 1.985 . S
Zn59 O81 1.955 . S
O60 Zn58 1.911 . S
O60 Zn59 1.933 . S
O60 H61 0.841 . S
H61 O60 0.841 . S
Zn62 O63 1.933 . S
Zn62 O76 1.985 . S
Zn62 O85 1.955 . S
O63 Zn62 1.933 . S
O63 Zn64 1.911 . S
O63 H65 0.841 . S
Zn64 O63 1.911 . S
Zn64 O77 1.970 . S
Zn64 O93 1.981 . S
Zn64 O95 1.945 . S
H65 O63 0.841 . S
Zn66 O67 1.933 . S
Zn66 O79 1.985 . S
Zn66 O87 1.955 . S
O67 Zn66 1.933 . S
O67 H68 0.841 . S
O67 Zn69 1.911 . S
H68 O67 0.841 . S
Zn69 O67 1.911 . S
Zn69 O80 1.970 . S
Zn69 O90 1.981 . S
Zn69 O98 1.945 . S
C70 O71 1.246 . S
C70 O87 1.276 . S
O71 C70 1.246 . S
O72 Zn52 1.985 . S
O72 C82 1.245 . S
O73 Zn53 1.970 . S
O73 C82 1.263 . S
O74 Zn59 1.985 . S
O74 C86 1.245 . S
O75 Zn58 1.970 . S
O75 C86 1.263 . S
O76 Zn62 1.985 . S
O76 C91 1.245 . S
O77 Zn64 1.970 . S
O77 C91 1.263 . S
C78 O89 1.262 . S
C78 O90 1.245 . S
O79 Zn66 1.985 . S
O79 C97 1.245 . S
O80 Zn69 1.970 . S
O80 C97 1.263 . S
O81 Zn59 1.955 . S
O81 C100 1.276 . S
C82 O72 1.245 . S
C82 O73 1.263 . S
O83 Zn52 1.955 . S
O83 C102 1.276 . S
C84 O92 1.262 . S
C84 O93 1.245 . S
O85 C56 1.276 . S
O85 Zn62 1.955 . S
C86 O74 1.245 . S
C86 O75 1.263 . S
O87 Zn66 1.955 . S
O87 C70 1.276 . S
C88 O95 1.262 . S
C88 O96 1.245 . S
O89 Zn53 1.945 . S
O89 C78 1.262 . S
O90 Zn69 1.981 . S
O90 C78 1.245 . S
C91 O76 1.245 . S
C91 O77 1.263 . S
O92 Zn58 1.945 . S
O92 C84 1.262 . S
O93 Zn64 1.981 . S
O93 C84 1.245 . S
C94 O98 1.262 . S
C94 O99 1.245 . S
O95 Zn64 1.945 . S
O95 C88 1.262 . S
O96 Zn53 1.981 . S
O96 C88 1.245 . S
C97 O79 1.245 . S
C97 O80 1.263 . S
O98 Zn69 1.945 . S
O98 C94 1.262 . S
O99 Zn58 1.981 . S
O99 C94 1.245 . S
C100 O81 1.276 . S
C100 O101 1.246 . S
O101 C100 1.246 . S
C102 O83 1.276 . S
C102 O103 1.246 . S
O103 C102 1.246 . S
P104 O115 1.490 . S
P104 C118 1.812 . S
P104 C124 1.803 . S
P104 C130 1.819 1_554 S
H105 C119 0.941 . S
H106 C120 0.939 . S
H107 C122 0.940 . S
H108 C123 0.940 . S
H109 C125 0.939 1_556 S
H110 C126 0.942 1_556 S
H111 C128 0.940 . S
H112 C129 0.939 . S
H113 C131 0.941 . S
H114 C135 0.939 . S
O115 P104 1.490 . S
H116 C132 0.939 . S
H117 C134 0.940 . S
C118 P104 1.812 . S
C118 C119 1.389 . S
C118 C123 1.391 . S
C119 H105 0.941 . S
C119 C118 1.389 . S
C119 C120 1.397 . S
C120 H106 0.939 . S
C120 C119 1.397 . S
C120 C121 1.378 . S
C121 C120 1.378 . S
C121 C122 1.378 . S
C122 H107 0.940 . S
C122 C121 1.378 . S
C122 C123 1.396 . S
C123 H108 0.940 . S
C123 C118 1.391 . S
C123 C122 1.396 . S
C124 P104 1.803 . S
C124 C125 1.378 . S
C124 C129 1.400 . S
C125 H109 0.939 1_554 S
C125 C124 1.378 . S
C125 C126 1.361 . S
C126 H110 0.942 1_554 S
C126 C125 1.361 . S
C126 C127 1.369 . S
C127 C126 1.369 . S
C127 C128 1.404 . S
C128 H111 0.940 . S
C128 C127 1.404 . S
C128 C129 1.389 . S
C129 H112 0.939 . S
C129 C124 1.400 . S
C129 C128 1.389 . S
C130 P104 1.819 1_556 S
C130 C131 1.391 . S
C130 C135 1.391 . S
C131 H113 0.941 . S
C131 C130 1.391 . S
C131 C132 1.396 . S
C132 H116 0.939 . S
C132 C131 1.396 . S
C132 C133 1.397 . S
C133 C132 1.397 . S
C133 C134 1.385 . S
C134 H117 0.940 . S
C134 C133 1.385 . S
C134 C135 1.388 . S
C135 H114 0.939 . S
C135 C130 1.391 . S
C135 C134 1.388 . S
P136 O147 1.490 . S
P136 C150 1.812 . S
P136 C156 1.803 . S
P136 C162 1.819 1_554 S
H137 C151 0.941 . S
H138 C152 0.939 . S
H139 C154 0.940 . S
H140 C155 0.940 . S
H141 C157 0.939 1_556 S
H142 C158 0.942 . S
H143 C160 0.940 . S
H144 C161 0.939 . S
H145 C163 0.941 . S
H146 C167 0.939 . S
O147 P136 1.490 . S
H148 C164 0.939 . S
H149 C166 0.940 . S
C150 P136 1.812 . S
C150 C151 1.389 . S
C150 C155 1.391 . S
C151 H137 0.941 . S
C151 C150 1.389 . S
C151 C152 1.397 . S
C152 H138 0.939 . S
C152 C151 1.397 . S
C152 C153 1.378 . S
C153 C152 1.378 . S
C153 C154 1.378 . S
C154 H139 0.940 . S
C154 C153 1.378 . S
C154 C155 1.396 . S
C155 H140 0.940 . S
C155 C150 1.391 . S
C155 C154 1.396 . S
C156 P136 1.803 . S
C156 C157 1.378 . S
C156 C161 1.400 . S
C157 H141 0.939 1_554 S
C157 C156 1.378 . S
C157 C158 1.361 1_554 S
C158 H142 0.942 . S
C158 C157 1.361 1_556 S
C158 C159 1.369 1_556 S
C159 C158 1.369 1_554 S
C159 C160 1.404 . S
C160 H143 0.940 . S
C160 C159 1.404 . S
C160 C161 1.389 . S
C161 H144 0.939 . S
C161 C156 1.400 . S
C161 C160 1.389 . S
C162 P136 1.819 1_556 S
C162 C163 1.391 . S
C162 C167 1.391 . S
C163 H145 0.941 . S
C163 C162 1.391 . S
C163 C164 1.396 . S
C164 H148 0.939 . S
C164 C163 1.396 . S
C164 C165 1.397 . S
C165 C164 1.397 . S
C165 C166 1.385 . S
C166 H149 0.940 . S
C166 C165 1.385 . S
C166 C167 1.388 . S
C167 H146 0.939 . S
C167 C162 1.391 . S
C167 C166 1.388 . S
P168 O179 1.490 . S
P168 C182 1.812 1_554 S
P168 C188 1.803 . S
P168 C194 1.819 . S
H169 C183 0.941 . S
H170 C184 0.939 . S
H171 C186 0.940 . S
H172 C187 0.940 . S
H173 C189 0.939 . S
H174 C190 0.942 . S
H175 C192 0.942 . S
H176 C193 0.939 . S
H177 C195 0.941 . S
H178 C199 0.939 . S
O179 P168 1.490 . S
H180 C196 0.939 . S
H181 C198 0.940 . S
C182 P168 1.812 1_556 S
C182 C183 1.389 . S
C182 C187 1.391 . S
C183 H169 0.941 . S
C183 C182 1.389 . S
C183 C184 1.397 . S
C184 H170 0.939 . S
C184 C183 1.397 . S
C184 C185 1.378 . S
C185 C184 1.378 . S
C185 C186 1.378 . S
C186 H171 0.940 . S
C186 C185 1.378 . S
C186 C187 1.396 . S
C187 H172 0.940 . S
C187 C182 1.391 . S
C187 C186 1.396 . S
C188 P168 1.803 . S
C188 C189 1.378 . S
C188 C193 1.400 1_554 S
C189 H173 0.939 . S
C189 C188 1.378 . S
C189 C190 1.361 . S
C190 H174 0.942 . S
C190 C189 1.361 . S
C190 C191 1.369 . S
C191 C190 1.369 . S
C191 C192 1.402 1_554 S
C192 H175 0.942 . S
C192 C191 1.402 1_556 S
C192 C193 1.389 . S
C193 H176 0.939 . S
C193 C188 1.400 1_556 S
C193 C192 1.389 . S
C194 P168 1.819 . S
C194 C195 1.391 . S
C194 C199 1.391 . S
C195 H177 0.941 . S
C195 C194 1.391 . S
C195 C196 1.396 . S
C196 H180 0.939 . S
C196 C195 1.396 . S
C196 C197 1.397 . S
C197 C196 1.397 . S
C197 C198 1.385 . S
C198 H181 0.940 . S
C198 C197 1.385 . S
C198 C199 1.388 . S
C199 H178 0.939 . S
C199 C194 1.391 . S
C199 C198 1.388 . S
P200 O211 1.490 . S
P200 C214 1.812 1_554 S
P200 C220 1.803 . S
P200 C226 1.819 . S
H201 C215 0.941 . S
H202 C216 0.939 . S
H203 C218 0.940 . S
H204 C219 0.940 . S
H205 C221 0.939 . S
H206 C222 0.942 . S
H207 C224 0.940 1_556 S
H208 C225 0.948 . S
H209 C227 0.941 . S
H210 C231 0.939 . S
O211 P200 1.490 . S
H212 C228 0.939 . S
H213 C230 0.940 . S
C214 P200 1.812 1_556 S
C214 C215 1.389 . S
C214 C219 1.391 . S
C215 H201 0.941 . S
C215 C214 1.389 . S
C215 C216 1.397 . S
C216 H202 0.939 . S
C216 C215 1.397 . S
C216 C217 1.378 . S
C217 C216 1.378 . S
C217 C218 1.378 . S
C218 H203 0.940 . S
C218 C217 1.378 . S
C218 C219 1.396 . S
C219 H204 0.940 . S
C219 C214 1.391 . S
C219 C218 1.396 . S
C220 P200 1.803 . S
C220 C221 1.378 . S
C220 C225 1.393 1_554 S
C221 H205 0.939 . S
C221 C220 1.378 . S
C221 C222 1.361 . S
C222 H206 0.942 . S
C222 C221 1.361 . S
C222 C223 1.369 . S
C223 C222 1.369 . S
C223 C224 1.404 . S
C224 H207 0.940 1_554 S
C224 C223 1.404 . S
C224 C225 1.388 1_554 S
C225 H208 0.948 . S
C225 C220 1.393 1_556 S
C225 C224 1.388 1_556 S
C226 P200 1.819 . S
C226 C227 1.391 . S
C226 C231 1.391 . S
C227 H209 0.941 . S
C227 C226 1.391 . S
C227 C228 1.396 . S
C228 H212 0.939 . S
C228 C227 1.396 . S
C228 C229 1.397 . S
C229 C228 1.397 . S
C229 C230 1.385 . S
C230 H213 0.940 . S
C230 C229 1.385 . S
C230 C231 1.388 . S
C231 H210 0.939 . S
C231 C226 1.391 . S
C231 C230 1.388 . S
P232 O243 1.490 . S
P232 C246 1.812 . S
P232 C252 1.803 . S
P232 C258 1.819 . S
H233 C247 0.941 . S
H234 C248 0.939 . S
H235 C250 0.940 . S
H236 C251 0.940 . S
H237 C253 0.939 . S
H238 C254 0.942 . S
H239 C256 0.940 . S
H240 C257 0.939 . S
H241 C259 0.941 . S
H242 C263 0.939 . S
O243 P232 1.490 . S
H244 C260 0.939 . S
H245 C262 0.940 . S
C246 P232 1.812 . S
C246 C247 1.389 . S
C246 C251 1.391 . S
C247 H233 0.941 . S
C247 C246 1.389 . S
C247 C248 1.397 . S
C248 H234 0.939 . S
C248 C247 1.397 . S
C248 C249 1.378 . S
C249 C248 1.378 . S
C249 C250 1.378 . S
C250 H235 0.940 . S
C250 C249 1.378 . S
C250 C251 1.396 . S
C251 H236 0.940 . S
C251 C246 1.391 . S
C251 C250 1.396 . S
C252 P232 1.803 . S
C252 C253 1.378 . S
C252 C257 1.400 . S
C253 H237 0.939 . S
C253 C252 1.378 . S
C253 C254 1.361 . S
C254 H238 0.942 . S
C254 C253 1.361 . S
C254 C255 1.369 . S
C255 C254 1.369 . S
C255 C256 1.404 . S
C256 H239 0.940 . S
C256 C255 1.404 . S
C256 C257 1.389 . S
C257 H240 0.939 . S
C257 C252 1.400 . S
C257 C256 1.389 . S
C258 P232 1.819 . S
C258 C259 1.391 . S
C258 C263 1.391 . S
C259 H241 0.941 . S
C259 C258 1.391 . S
C259 C260 1.396 . S
C260 H244 0.939 . S
C260 C259 1.396 . S
C260 C261 1.397 . S
C261 C260 1.397 . S
C261 C262 1.385 . S
C262 H245 0.940 . S
C262 C261 1.385 . S
C262 C263 1.388 . S
C263 H242 0.939 . S
C263 C258 1.391 . S
C263 C262 1.388 . S
P264 O275 1.490 . S
P264 C278 1.812 . S
P264 C284 1.803 . S
P264 C290 1.819 . S
H265 C279 0.941 . S
H266 C280 0.939 . S
H267 C282 0.940 . S
H268 C283 0.940 . S
H269 C285 0.939 . S
H270 C286 0.942 . S
H271 C288 0.940 . S
H272 C289 0.939 . S
H273 C291 0.941 . S
H274 C295 0.939 . S
O275 P264 1.490 . S
H276 C292 0.939 . S
H277 C294 0.940 . S
C278 P264 1.812 . S
C278 C279 1.389 . S
C278 C283 1.391 . S
C279 H265 0.941 . S
C279 C278 1.389 . S
C279 C280 1.397 . S
C280 H266 0.939 . S
C280 C279 1.397 . S
C280 C281 1.378 . S
C281 C280 1.378 . S
C281 C282 1.378 . S
C282 H267 0.940 . S
C282 C281 1.378 . S
C282 C283 1.396 . S
C283 H268 0.940 . S
C283 C278 1.391 . S
C283 C282 1.396 . S
C284 P264 1.803 . S
C284 C285 1.378 . S
C284 C289 1.400 . S
C285 H269 0.939 . S
C285 C284 1.378 . S
C285 C286 1.361 . S
C286 H270 0.942 . S
C286 C285 1.361 . S
C286 C287 1.369 . S
C287 C286 1.369 . S
C287 C288 1.404 . S
C288 H271 0.940 . S
C288 C287 1.404 . S
C288 C289 1.389 . S
C289 H272 0.939 . S
C289 C284 1.400 . S
C289 C288 1.389 . S
C290 P264 1.819 . S
C290 C291 1.391 . S
C290 C295 1.391 . S
C291 H273 0.941 . S
C291 C290 1.391 . S
C291 C292 1.396 . S
C292 H276 0.939 . S
C292 C291 1.396 . S
C292 C293 1.397 . S
C293 C292 1.397 . S
C293 C294 1.385 . S
C294 H277 0.940 . S
C294 C293 1.385 . S
C294 C295 1.388 . S
C295 H274 0.939 . S
C295 C290 1.391 . S
C295 C294 1.388 . S
P296 O307 1.490 . S
P296 C310 1.812 . S
P296 C316 1.803 . S
P296 C322 1.819 . S
H297 C311 0.941 . S
H298 C312 0.939 . S
H299 C314 0.940 . S
H300 C315 0.940 . S
H301 C317 0.939 . S
H302 C318 0.942 . S
H303 C320 0.940 . S
H304 C321 0.939 . S
H305 C323 0.941 . S
H306 C327 0.939 . S
O307 P296 1.490 . S
H308 C324 0.939 . S
H309 C326 0.940 . S
C310 P296 1.812 . S
C310 C311 1.389 . S
C310 C315 1.391 . S
C311 H297 0.941 . S
C311 C310 1.389 . S
C311 C312 1.397 . S
C312 H298 0.939 . S
C312 C311 1.397 . S
C312 C313 1.378 . S
C313 C312 1.378 . S
C313 C314 1.378 . S
C314 H299 0.940 . S
C314 C313 1.378 . S
C314 C315 1.396 . S
C315 H300 0.940 . S
C315 C310 1.391 . S
C315 C314 1.396 . S
C316 P296 1.803 . S
C316 C317 1.378 . S
C316 C321 1.400 . S
C317 H301 0.939 . S
C317 C316 1.378 . S
C317 C318 1.361 . S
C318 H302 0.942 . S
C318 C317 1.361 . S
C318 C319 1.369 . S
C319 C318 1.369 . S
C319 C320 1.404 . S
C320 H303 0.940 . S
C320 C319 1.404 . S
C320 C321 1.389 . S
C321 H304 0.939 . S
C321 C316 1.400 . S
C321 C320 1.389 . S
C322 P296 1.819 . S
C322 C323 1.391 . S
C322 C327 1.391 . S
C323 H305 0.941 . S
C323 C322 1.391 . S
C323 C324 1.396 . S
C324 H308 0.939 . S
C324 C323 1.396 . S
C324 C325 1.397 . S
C325 C324 1.397 . S
C325 C326 1.385 . S
C326 H309 0.940 . S
C326 C325 1.385 . S
C326 C327 1.388 . S
C327 H306 0.939 . S
C327 C322 1.391 . S
C327 C326 1.388 . S
P328 O339 1.490 . S
P328 C342 1.812 . S
P328 C348 1.803 . S
P328 C354 1.819 . S
H329 C343 0.941 . S
H330 C344 0.939 . S
H331 C346 0.940 . S
H332 C347 0.940 . S
H333 C349 0.939 . S
H334 C350 0.942 . S
H335 C352 0.940 . S
H336 C353 0.939 . S
H337 C355 0.941 . S
H338 C359 0.939 . S
O339 P328 1.490 . S
H340 C356 0.939 . S
H341 C358 0.940 . S
C342 P328 1.812 . S
C342 C343 1.389 . S
C342 C347 1.391 . S
C343 H329 0.941 . S
C343 C342 1.389 . S
C343 C344 1.397 . S
C344 H330 0.939 . S
C344 C343 1.397 . S
C344 C345 1.378 . S
C345 C344 1.378 . S
C345 C346 1.378 . S
C346 H331 0.940 . S
C346 C345 1.378 . S
C346 C347 1.396 . S
C347 H332 0.940 . S
C347 C342 1.391 . S
C347 C346 1.396 . S
C348 P328 1.803 . S
C348 C349 1.378 . S
C348 C353 1.400 . S
C349 H333 0.939 . S
C349 C348 1.378 . S
C349 C350 1.361 . S
C350 H334 0.942 . S
C350 C349 1.361 . S
C350 C351 1.369 . S
C351 C350 1.369 . S
C351 C352 1.404 . S
C352 H335 0.940 . S
C352 C351 1.404 . S
C352 C353 1.389 . S
C353 H336 0.939 . S
C353 C348 1.400 . S
C353 C352 1.389 . S
C354 P328 1.819 . S
C354 C355 1.391 . S
C354 C359 1.391 . S
C355 H337 0.941 . S
C355 C354 1.391 . S
C355 C356 1.396 . S
C356 H340 0.939 . S
C356 C355 1.396 . S
C356 C357 1.397 . S
C357 C356 1.397 . S
C357 C358 1.385 . S
C358 H341 0.940 . S
C358 C357 1.385 . S
C358 C359 1.388 . S
C359 H338 0.939 . S
C359 C354 1.391 . S
C359 C358 1.388 . S
C360 C361 1.391 1_556 S
C360 C362 1.394 . S
C360 H376 0.931 . S
C361 C360 1.391 1_554 S
C361 C365 1.376 . S
C362 C360 1.394 . S
C362 C363 1.369 1_556 S
C362 C366 1.531 . S
C363 C362 1.369 1_554 S
C363 C364 1.410 . S
C363 C371 1.503 . S
C364 C363 1.410 . S
C364 C365 1.392 . S
C364 C367 1.511 . S
C365 C361 1.376 . S
C365 C364 1.392 . S
C365 H377 0.929 . S
C366 C362 1.531 . S
C366 H378 0.960 . S
C366 H379 0.962 . S
C366 H380 0.960 . S
C367 C364 1.511 . S
C367 H381 0.961 . S
C367 H382 0.961 . S
C367 H383 0.961 . S
C368 C369 1.370 . S
C368 C370 1.363 . S
C368 H384 0.931 . S
C369 C368 1.370 . S
C369 C373 1.408 . S
C370 C368 1.363 . S
C370 C371 1.370 . S
C370 C374 1.524 . S
C371 C363 1.503 . S
C371 C370 1.370 . S
C371 C372 1.403 . S
C372 C371 1.403 . S
C372 C373 1.404 . S
C372 C375 1.539 1_554 S
C373 C369 1.408 . S
C373 C372 1.404 . S
C373 H385 0.930 1_554 S
C374 C370 1.524 . S
C374 H386 0.956 . S
C374 H387 0.961 . S
C374 H388 0.961 . S
C375 C372 1.539 1_556 S
C375 H389 0.958 . S
C375 H390 0.961 1_556 S
C375 H391 0.960 1_556 S
H376 C360 0.931 . S
H377 C365 0.929 . S
H378 C366 0.960 . S
H379 C366 0.962 . S
H380 C366 0.960 . S
H381 C367 0.961 . S
H382 C367 0.961 . S
H383 C367 0.961 . S
H384 C368 0.931 . S
H385 C373 0.930 1_556 S
H386 C374 0.956 . S
H387 C374 0.961 . S
H388 C374 0.961 . S
H389 C375 0.958 . S
H390 C375 0.961 1_554 S
H391 C375 0.960 1_554 S
C392 C393 1.391 1_556 S
C392 C394 1.394 . S
C392 H408 0.931 . S
C393 C392 1.391 1_554 S
C393 C397 1.376 . S
C394 C392 1.394 . S
C394 C395 1.369 1_556 S
C394 C398 1.531 . S
C395 C394 1.369 1_554 S
C395 C396 1.410 . S
C395 C403 1.503 . S
C396 C395 1.410 . S
C396 C397 1.392 . S
C396 C399 1.511 . S
C397 C393 1.376 . S
C397 C396 1.392 . S
C397 H409 0.929 . S
C398 C394 1.531 . S
C398 H410 0.960 . S
C398 H411 0.962 . S
C398 H412 0.960 . S
C399 C396 1.511 . S
C399 H413 0.961 . S
C399 H414 0.961 . S
C399 H415 0.961 . S
C400 C401 1.370 . S
C400 C402 1.363 . S
C400 H416 0.931 . S
C401 C400 1.370 . S
C401 C405 1.408 1_554 S
C402 C400 1.363 . S
C402 C403 1.370 . S
C402 C406 1.524 . S
C403 C395 1.503 . S
C403 C402 1.370 . S
C403 C404 1.403 1_554 S
C404 C403 1.403 1_556 S
C404 C405 1.404 . S
C404 C407 1.539 . S
C405 C401 1.408 1_556 S
C405 C404 1.404 . S
C405 H417 0.930 . S
C406 C402 1.524 . S
C406 H418 0.956 . S
C406 H419 0.961 . S
C406 H420 0.961 . S
C407 C404 1.539 . S
C407 H421 0.958 . S
C407 H422 0.961 . S
C407 H423 0.960 . S
H408 C392 0.931 . S
H409 C397 0.929 . S
H410 C398 0.960 . S
H411 C398 0.962 . S
H412 C398 0.960 . S
H413 C399 0.961 . S
H414 C399 0.961 . S
H415 C399 0.961 . S
H416 C400 0.931 . S
H417 C405 0.930 . S
H418 C406 0.956 . S
H419 C406 0.961 . S
H420 C406 0.961 . S
H421 C407 0.958 . S
H422 C407 0.961 . S
H423 C407 0.960 . S
C424 C425 1.391 1_556 S
C424 C426 1.394 . S
C424 H440 0.931 . S
C425 C424 1.391 1_554 S
C425 C429 1.376 . S
C426 C424 1.394 . S
C426 C427 1.369 1_556 S
C426 C430 1.531 . S
C427 C426 1.369 1_554 S
C427 C428 1.410 . S
C427 C435 1.503 . S
C428 C427 1.410 . S
C428 C429 1.392 . S
C428 C431 1.511 . S
C429 C425 1.376 . S
C429 C428 1.392 . S
C429 H441 0.929 . S
C430 C426 1.531 . S
C430 H442 0.960 . S
C430 H443 0.962 . S
C430 H444 0.960 . S
C431 C428 1.511 . S
C431 H445 0.961 . S
C431 H446 0.961 . S
C431 H447 0.961 . S
C432 C433 1.370 . S
C432 C434 1.363 . S
C432 H448 0.931 . S
C433 C432 1.370 . S
C433 C437 1.408 1_554 S
C434 C432 1.363 . S
C434 C435 1.370 . S
C434 C438 1.524 . S
C435 C427 1.503 . S
C435 C434 1.370 . S
C435 C436 1.403 1_554 S
C436 C435 1.403 1_556 S
C436 C437 1.404 . S
C436 C439 1.539 . S
C437 C433 1.408 1_556 S
C437 C436 1.404 . S
C437 H449 0.930 . S
C438 C434 1.524 . S
C438 H450 0.956 . S
C438 H451 0.961 . S
C438 H452 0.961 . S
C439 C436 1.539 . S
C439 H453 0.958 . S
C439 H454 0.961 . S
C439 H455 0.960 . S
H440 C424 0.931 . S
H441 C429 0.929 . S
H442 C430 0.960 . S
H443 C430 0.962 . S
H444 C430 0.960 . S
H445 C431 0.961 . S
H446 C431 0.961 . S
H447 C431 0.961 . S
H448 C432 0.931 . S
H449 C437 0.930 . S
H450 C438 0.956 . S
H451 C438 0.961 . S
H452 C438 0.961 . S
H453 C439 0.958 . S
H454 C439 0.961 . S
H455 C439 0.960 . S
C456 C457 1.391 . S
C456 C458 1.394 . S
C456 H472 0.931 . S
C457 C456 1.391 . S
C457 C461 1.376 1_554 S
C458 C456 1.394 . S
C458 C459 1.369 . S
C458 C462 1.531 . S
C459 C458 1.369 . S
C459 C460 1.410 1_554 S
C459 C467 1.503 . S
C460 C459 1.410 1_556 S
C460 C461 1.392 . S
C460 C463 1.511 . S
C461 C457 1.376 1_556 S
C461 C460 1.392 . S
C461 H473 0.929 . S
C462 C458 1.531 . S
C462 H474 0.960 . S
C462 H475 0.962 . S
C462 H476 0.960 . S
C463 C460 1.511 . S
C463 H477 0.961 . S
C463 H478 0.961 . S
C463 H479 0.961 . S
C464 C465 1.370 1_556 S
C464 C466 1.363 . S
C464 H480 0.931 . S
C465 C464 1.370 1_554 S
C465 C469 1.408 . S
C466 C464 1.363 . S
C466 C467 1.370 1_556 S
C466 C470 1.524 . S
C467 C459 1.503 . S
C467 C466 1.370 1_554 S
C467 C468 1.403 . S
C468 C467 1.403 . S
C468 C469 1.404 . S
C468 C471 1.539 . S
C469 C465 1.408 . S
C469 C468 1.404 . S
C469 H481 0.930 . S
C470 C466 1.524 . S
C470 H482 0.956 . S
C470 H483 0.961 . S
C470 H484 0.961 . S
C471 C468 1.539 . S
C471 H485 0.958 . S
C471 H486 0.961 . S
C471 H487 0.960 . S
H472 C456 0.931 . S
H473 C461 0.929 . S
H474 C462 0.960 . S
H475 C462 0.962 . S
H476 C462 0.960 . S
H477 C463 0.961 . S
H478 C463 0.961 . S
H479 C463 0.961 . S
H480 C464 0.931 . S
H481 C469 0.930 . S
H482 C470 0.956 . S
H483 C470 0.961 . S
H484 C470 0.961 . S
H485 C471 0.958 . S
H486 C471 0.961 . S
H487 C471 0.960 . S
C488 C489 1.391 . S
C488 C490 1.394 . S
C488 H504 0.931 . S
C489 C488 1.391 . S
C489 C493 1.376 . S
C490 C488 1.394 . S
C490 C491 1.369 . S
C490 C494 1.531 . S
C491 C490 1.369 . S
C491 C492 1.410 . S
C491 C499 1.503 . S
C492 C491 1.410 . S
C492 C493 1.392 . S
C492 C495 1.511 . S
C493 C489 1.376 . S
C493 C492 1.392 . S
C493 H505 0.929 . S
C494 C490 1.531 . S
C494 H506 0.960 . S
C494 H507 0.962 . S
C494 H508 0.960 . S
C495 C492 1.511 . S
C495 H509 0.961 . S
C495 H510 0.961 . S
C495 H511 0.961 . S
C496 C497 1.370 . S
C496 C498 1.363 . S
C496 H512 0.931 . S
C497 C496 1.370 . S
C497 C501 1.408 . S
C498 C496 1.363 . S
C498 C499 1.370 . S
C498 C502 1.524 . S
C499 C491 1.503 . S
C499 C498 1.370 . S
C499 C500 1.403 . S
C500 C499 1.403 . S
C500 C501 1.404 . S
C500 C503 1.539 . S
C501 C497 1.408 . S
C501 C500 1.404 . S
C501 H513 0.930 . S
C502 C498 1.524 . S
C502 H514 0.956 . S
C502 H515 0.961 . S
C502 H516 0.961 . S
C503 C500 1.539 . S
C503 H517 0.958 . S
C503 H518 0.961 . S
C503 H519 0.960 . S
H504 C488 0.931 . S
H505 C493 0.929 . S
H506 C494 0.960 . S
H507 C494 0.962 . S
H508 C494 0.960 . S
H509 C495 0.961 . S
H510 C495 0.961 . S
H511 C495 0.961 . S
H512 C496 0.931 . S
H513 C501 0.930 . S
H514 C502 0.956 . S
H515 C502 0.961 . S
H516 C502 0.961 . S
H517 C503 0.958 . S
H518 C503 0.961 . S
H519 C503 0.960 . S
C520 C521 1.391 . S
C520 C522 1.394 . S
C520 H536 0.931 . S
C521 C520 1.391 . S
C521 C525 1.376 . S
C522 C520 1.394 . S
C522 C523 1.369 . S
C522 C526 1.531 . S
C523 C522 1.369 . S
C523 C524 1.410 . S
C523 C531 1.503 . S
C524 C523 1.410 . S
C524 C525 1.392 . S
C524 C527 1.511 . S
C525 C521 1.376 . S
C525 C524 1.392 . S
C525 H537 0.929 . S
C526 C522 1.531 . S
C526 H538 0.960 . S
C526 H539 0.962 . S
C526 H540 0.960 . S
C527 C524 1.511 . S
C527 H541 0.961 . S
C527 H542 0.961 . S
C527 H543 0.961 . S
C528 C529 1.370 . S
C528 C530 1.363 . S
C528 H544 0.931 . S
C529 C528 1.370 . S
C529 C533 1.408 . S
C530 C528 1.363 . S
C530 C531 1.370 . S
C530 C534 1.524 . S
C531 C523 1.503 . S
C531 C530 1.370 . S
C531 C532 1.403 . S
C532 C531 1.403 . S
C532 C533 1.404 . S
C532 C535 1.539 . S
C533 C529 1.408 . S
C533 C532 1.404 . S
C533 H545 0.930 . S
C534 C530 1.524 . S
C534 H546 0.956 . S
C534 H547 0.961 . S
C534 H548 0.961 . S
C535 C532 1.539 . S
C535 H549 0.958 . S
C535 H550 0.961 . S
C535 H551 0.960 . S
H536 C520 0.931 . S
H537 C525 0.929 . S
H538 C526 0.960 . S
H539 C526 0.962 . S
H540 C526 0.960 . S
H541 C527 0.961 . S
H542 C527 0.961 . S
H543 C527 0.961 . S
H544 C528 0.931 . S
H545 C533 0.930 . S
H546 C534 0.956 . S
H547 C534 0.961 . S
H548 C534 0.961 . S
H549 C535 0.958 . S
H550 C535 0.961 . S
H551 C535 0.960 . S
C552 C553 1.391 . S
C552 C554 1.394 . S
C552 H568 0.931 . S
C553 C552 1.391 . S
C553 C557 1.376 . S
C554 C552 1.394 . S
C554 C555 1.369 . S
C554 C558 1.531 . S
C555 C554 1.369 . S
C555 C556 1.410 . S
C555 C563 1.503 . S
C556 C555 1.410 . S
C556 C557 1.392 . S
C556 C559 1.511 . S
C557 C553 1.376 . S
C557 C556 1.392 . S
C557 H569 0.929 . S
C558 C554 1.531 . S
C558 H570 0.960 . S
C558 H571 0.962 . S
C558 H572 0.960 . S
C559 C556 1.511 . S
C559 H573 0.961 . S
C559 H574 0.961 . S
C559 H575 0.961 . S
C560 C561 1.370 . S
C560 C562 1.363 . S
C560 H576 0.931 . S
C561 C560 1.370 . S
C561 C565 1.408 . S
C562 C560 1.363 . S
C562 C563 1.370 . S
C562 C566 1.524 . S
C563 C555 1.503 . S
C563 C562 1.370 . S
C563 C564 1.403 . S
C564 C563 1.403 . S
C564 C565 1.404 . S
C564 C567 1.539 . S
C565 C561 1.408 . S
C565 C564 1.404 . S
C565 H577 0.930 . S
C566 C562 1.524 . S
C566 H578 0.956 . S
C566 H579 0.961 . S
C566 H580 0.961 . S
C567 C564 1.539 . S
C567 H581 0.958 . S
C567 H582 0.961 . S
C567 H583 0.960 . S
H568 C552 0.931 . S
H569 C557 0.929 . S
H570 C558 0.960 . S
H571 C558 0.962 . S
H572 C558 0.960 . S
H573 C559 0.961 . S
H574 C559 0.961 . S
H575 C559 0.961 . S
H576 C560 0.931 . S
H577 C565 0.930 . S
H578 C566 0.956 . S
H579 C566 0.961 . S
H580 C566 0.961 . S
H581 C567 0.958 . S
H582 C567 0.961 . S
H583 C567 0.960 . S
C584 C585 1.391 . S
C584 C586 1.394 . S
C584 H600 0.931 . S
C585 C584 1.391 . S
C585 C589 1.376 . S
C586 C584 1.394 . S
C586 C587 1.369 . S
C586 C590 1.531 . S
C587 C586 1.369 . S
C587 C588 1.410 . S
C587 C595 1.503 . S
C588 C587 1.410 . S
C588 C589 1.392 . S
C588 C591 1.511 . S
C589 C585 1.376 . S
C589 C588 1.392 . S
C589 H601 0.929 . S
C590 C586 1.531 . S
C590 H602 0.960 . S
C590 H603 0.962 . S
C590 H604 0.960 . S
C591 C588 1.511 . S
C591 H605 0.961 . S
C591 H606 0.961 . S
C591 H607 0.961 . S
C592 C593 1.370 . S
C592 C594 1.363 . S
C592 H608 0.931 . S
C593 C592 1.370 . S
C593 C597 1.408 . S
C594 C592 1.363 . S
C594 C595 1.370 . S
C594 C598 1.524 . S
C595 C587 1.503 . S
C595 C594 1.370 . S
C595 C596 1.403 . S
C596 C595 1.403 . S
C596 C597 1.404 . S
C596 C599 1.539 . S
C597 C593 1.408 . S
C597 C596 1.404 . S
C597 H609 0.930 . S
C598 C594 1.524 . S
C598 H610 0.956 . S
C598 H611 0.961 . S
C598 H612 0.961 . S
C599 C596 1.539 . S
C599 H613 0.958 . S
C599 H614 0.961 . S
C599 H615 0.960 . S
H600 C584 0.931 . S
H601 C589 0.929 . S
H602 C590 0.960 . S
H603 C590 0.962 . S
H604 C590 0.960 . S
H605 C591 0.961 . S
H606 C591 0.961 . S
H607 C591 0.961 . S
H608 C592 0.931 . S
H609 C597 0.930 . S
H610 C598 0.956 . S
H611 C598 0.961 . S
H612 C598 0.961 . S
H613 C599 0.958 . S
H614 C599 0.961 . S
H615 C599 0.960 . S
C616 C617 1.391 . S
C616 C618 1.394 . S
C616 H632 0.931 . S
C617 C616 1.391 . S
C617 C621 1.376 . S
C618 C616 1.394 . S
C618 C619 1.369 . S
C618 C622 1.531 . S
C619 C618 1.369 . S
C619 C620 1.410 . S
C619 C627 1.503 . S
C620 C619 1.410 . S
C620 C621 1.392 . S
C620 C623 1.511 . S
C621 C617 1.376 . S
C621 C620 1.392 . S
C621 H633 0.929 . S
C622 C618 1.531 . S
C622 H634 0.960 . S
C622 H635 0.962 . S
C622 H636 0.960 . S
C623 C620 1.511 . S
C623 H637 0.961 . S
C623 H638 0.961 . S
C623 H639 0.961 . S
C624 C625 1.370 . S
C624 C626 1.363 . S
C624 H640 0.931 . S
C625 C624 1.370 . S
C625 C629 1.408 . S
C626 C624 1.363 . S
C626 C627 1.370 . S
C626 C630 1.499 1_455 S
C627 C619 1.503 . S
C627 C626 1.370 . S
C627 C628 1.403 . S
C628 C627 1.403 . S
C628 C629 1.404 . S
C628 C631 1.539 . S
C629 C625 1.408 . S
C629 C628 1.404 . S
C629 H641 0.930 . S
C630 C626 1.499 1_655 S
C630 H642 0.964 . S
C630 H643 0.961 . S
C630 H644 0.979 . S
C631 C628 1.539 . S
C631 H645 0.958 . S
C631 H646 0.961 . S
C631 H647 0.960 . S
H632 C616 0.931 . S
H633 C621 0.929 . S
H634 C622 0.960 . S
H635 C622 0.962 . S
H636 C622 0.960 . S
H637 C623 0.961 . S
H638 C623 0.961 . S
H639 C623 0.961 . S
H640 C624 0.931 . S
H641 C629 0.930 . S
H642 C630 0.964 . S
H643 C630 0.961 . S
H644 C630 0.979 . S
H645 C631 0.958 . S
H646 C631 0.961 . S
H647 C631 0.960 . S
C648 C649 1.391 . S
C648 C650 1.394 . S
C648 H664 0.931 . S
C649 C648 1.391 . S
C649 C653 1.376 . S
C650 C648 1.394 . S
C650 C651 1.369 . S
C650 C654 1.531 . S
C651 C650 1.369 . S
C651 C652 1.410 . S
C651 C659 1.503 . S
C652 C651 1.410 . S
C652 C653 1.392 . S
C652 C655 1.511 . S
C653 C649 1.376 . S
C653 C652 1.392 . S
C653 H665 0.929 . S
C654 C650 1.531 . S
C654 H666 0.960 1_545 S
C654 H667 0.962 . S
C654 H668 0.960 1_545 S
C655 C652 1.511 . S
C655 H669 0.961 . S
C655 H670 0.961 . S
C655 H671 0.961 . S
C656 C657 1.370 . S
C656 C658 1.363 . S
C656 H672 0.931 . S
C657 C656 1.370 . S
C657 C661 1.408 . S
C658 C656 1.363 . S
C658 C659 1.370 . S
C658 C662 1.524 . S
C659 C651 1.503 . S
C659 C658 1.370 . S
C659 C660 1.403 . S
C660 C659 1.403 . S
C660 C661 1.404 . S
C660 C663 1.539 . S
C661 C657 1.408 . S
C661 C660 1.404 . S
C661 H673 0.930 . S
C662 C658 1.524 . S
C662 H674 0.956 . S
C662 H675 0.961 . S
C662 H676 0.961 . S
C663 C660 1.539 . S
C663 H677 0.958 1_545 S
C663 H678 0.961 . S
C663 H679 0.960 . S
H664 C648 0.931 . S
H665 C653 0.929 . S
H666 C654 0.960 1_565 S
H667 C654 0.962 . S
H668 C654 0.960 1_565 S
H669 C655 0.961 . S
H670 C655 0.961 . S
H671 C655 0.961 . S
H672 C656 0.931 . S
H673 C661 0.930 . S
H674 C662 0.956 . S
H675 C662 0.961 . S
H676 C662 0.961 . S
H677 C663 0.958 1_565 S
H678 C663 0.961 . S
H679 C663 0.960 . S
C680 C681 1.391 . S
C680 C682 1.394 . S
C680 H696 0.931 1_655 S
C681 C680 1.391 . S
C681 C685 1.376 . S
C682 C680 1.394 . S
C682 C683 1.369 . S
C682 C686 1.531 1_655 S
C683 C682 1.369 . S
C683 C684 1.410 . S
C683 C691 1.503 . S
C684 C683 1.410 . S
C684 C685 1.392 . S
C684 C687 1.511 . S
C685 C681 1.376 . S
C685 C684 1.392 . S
C685 H697 0.929 . S
C686 C682 1.531 1_455 S
C686 H698 0.960 . S
C686 H699 0.962 . S
C686 H700 0.960 . S
C687 C684 1.511 . S
C687 H701 0.961 . S
C687 H702 0.961 . S
C687 H703 0.961 . S
C688 C689 1.370 . S
C688 C690 1.363 . S
C688 H704 0.931 . S
C689 C688 1.370 . S
C689 C693 1.408 . S
C690 C688 1.363 . S
C690 C691 1.370 . S
C690 C694 1.524 . S
C691 C683 1.503 . S
C691 C690 1.370 . S
C691 C692 1.403 . S
C692 C691 1.403 . S
C692 C693 1.404 . S
C692 C695 1.539 . S
C693 C689 1.408 . S
C693 C692 1.404 . S
C693 H705 0.930 . S
C694 C690 1.524 . S
C694 H706 0.956 . S
C694 H707 0.961 . S
C694 H708 0.961 . S
C695 C692 1.539 . S
C695 H709 0.958 . S
C695 H710 0.961 . S
C695 H711 0.960 . S
H696 C680 0.931 1_455 S
H697 C685 0.929 . S
H698 C686 0.960 . S
H699 C686 0.962 . S
H700 C686 0.960 . S
H701 C687 0.961 . S
H702 C687 0.961 . S
H703 C687 0.961 . S
H704 C688 0.931 . S
H705 C693 0.930 . S
H706 C694 0.956 . S
H707 C694 0.961 . S
H708 C694 0.961 . S
H709 C695 0.958 . S
H710 C695 0.961 . S
H711 C695 0.960 . S
C712 C713 1.391 . S
C712 C714 1.394 . S
C712 H728 0.931 . S
C713 C712 1.391 . S
C713 C717 1.376 . S
C714 C712 1.394 . S
C714 C715 1.369 . S
C714 C718 1.531 . S
C715 C714 1.369 . S
C715 C716 1.410 . S
C715 C723 1.503 . S
C716 C715 1.410 . S
C716 C717 1.392 . S
C716 C719 1.511 . S
C717 C713 1.376 . S
C717 C716 1.392 . S
C717 H729 0.929 . S
C718 C714 1.531 . S
C718 H730 0.960 . S
C718 H731 0.962 . S
C718 H732 0.960 . S
C719 C716 1.511 . S
C719 H733 0.961 . S
C719 H734 0.961 . S
C719 H735 0.961 1_565 S
C720 C721 1.370 . S
C720 C722 1.363 . S
C720 H736 0.931 . S
C721 C720 1.370 . S
C721 C725 1.408 . S
C722 C720 1.363 . S
C722 C723 1.370 . S
C722 C726 1.524 . S
C723 C715 1.503 . S
C723 C722 1.370 . S
C723 C724 1.403 . S
C724 C723 1.403 . S
C724 C725 1.404 . S
C724 C727 1.539 1_565 S
C725 C721 1.408 . S
C725 C724 1.404 . S
C725 H737 0.930 . S
C726 C722 1.524 . S
C726 H738 0.956 . S
C726 H739 0.961 . S
C726 H740 0.961 . S
C727 C724 1.539 1_545 S
C727 H741 0.958 . S
C727 H742 0.961 . S
C727 H743 0.960 . S
H728 C712 0.931 . S
H729 C717 0.929 . S
H730 C718 0.960 . S
H731 C718 0.962 . S
H732 C718 0.960 . S
H733 C719 0.961 . S
H734 C719 0.961 . S
H735 C719 0.961 1_545 S
H736 C720 0.931 . S
H737 C725 0.930 . S
H738 C726 0.956 . S
H739 C726 0.961 . S
H740 C726 0.961 . S
H741 C727 0.958 . S
H742 C727 0.961 . S
H743 C727 0.960 . S
C744 C745 1.391 . S
C744 C746 1.394 . S
C744 H760 0.931 . S
C745 C744 1.391 . S
C745 C749 1.376 . S
C746 C744 1.394 . S
C746 C747 1.369 . S
C746 C750 1.531 . S
C747 C746 1.369 . S
C747 C748 1.410 . S
C747 C755 1.503 . S
C748 C747 1.410 . S
C748 C749 1.392 . S
C748 C751 1.511 . S
C749 C745 1.376 . S
C749 C748 1.392 . S
C749 H761 0.929 . S
C750 C746 1.531 . S
C750 H762 0.960 . S
C750 H763 0.962 . S
C750 H764 0.960 . S
C751 C748 1.511 . S
C751 H765 0.961 1_565 S
C751 H766 0.961 . S
C751 H767 0.961 . S
C752 C753 1.370 . S
C752 C754 1.363 . S
C752 H768 0.931 . S
C753 C752 1.370 . S
C753 C757 1.408 . S
C754 C752 1.363 . S
C754 C755 1.370 . S
C754 C758 1.524 . S
C755 C747 1.503 . S
C755 C754 1.370 . S
C755 C756 1.403 . S
C756 C755 1.403 . S
C756 C757 1.404 . S
C756 C759 1.539 . S
C757 C753 1.408 . S
C757 C756 1.404 . S
C757 H769 0.930 . S
C758 C754 1.524 . S
C758 H770 0.956 . S
C758 H771 0.961 1_565 S
C758 H772 0.975 . S
C759 C756 1.539 . S
C759 H773 0.958 . S
C759 H774 0.961 . S
C759 H775 0.960 . S
H760 C744 0.931 . S
H761 C749 0.929 . S
H762 C750 0.960 . S
H763 C750 0.962 . S
H764 C750 0.960 . S
H765 C751 0.961 1_545 S
H766 C751 0.961 . S
H767 C751 0.961 . S
H768 C752 0.931 . S
H769 C757 0.930 . S
H770 C758 0.956 . S
H771 C758 0.961 1_545 S
H772 C758 0.975 . S
H773 C759 0.958 . S
H774 C759 0.961 . S
H775 C759 0.960 . S
C776 C777 1.391 . S
C776 C778 1.394 . S
C776 H792 0.931 . S
C777 C776 1.391 . S
C777 C781 1.376 . S
C778 C776 1.394 . S
C778 C779 1.369 . S
C778 C782 1.531 . S
C779 C778 1.369 . S
C779 C780 1.410 . S
C779 C787 1.503 . S
C780 C779 1.410 . S
C780 C781 1.392 . S
C780 C783 1.511 1_455 S
C781 C777 1.376 . S
C781 C780 1.392 . S
C781 H793 0.929 1_455 S
C782 C778 1.531 . S
C782 H794 0.960 . S
C782 H795 0.962 . S
C782 H796 0.960 . S
C783 C780 1.511 1_655 S
C783 H797 0.961 . S
C783 H798 0.961 . S
C783 H799 0.961 . S
C784 C785 1.370 . S
C784 C786 1.363 . S
C784 H800 0.931 . S
C785 C784 1.370 . S
C785 C789 1.408 . S
C786 C784 1.363 . S
C786 C787 1.370 . S
C786 C790 1.524 . S
C787 C779 1.503 . S
C787 C786 1.370 . S
C787 C788 1.403 . S
C788 C787 1.403 . S
C788 C789 1.404 . S
C788 C791 1.539 . S
C789 C785 1.408 . S
C789 C788 1.404 . S
C789 H801 0.930 . S
C790 C786 1.524 . S
C790 H802 0.956 . S
C790 H803 0.961 . S
C790 H804 0.961 . S
C791 C788 1.539 . S
C791 H805 0.958 . S
C791 H806 0.961 . S
C791 H807 0.960 . S
H792 C776 0.931 . S
H793 C781 0.929 1_655 S
H794 C782 0.960 . S
H795 C782 0.962 . S
H796 C782 0.960 . S
H797 C783 0.961 . S
H798 C783 0.961 . S
H799 C783 0.961 . S
H800 C784 0.931 . S
H801 C789 0.930 . S
H802 C790 0.956 . S
H803 C790 0.961 . S
H804 C790 0.961 . S
H805 C791 0.958 . S
H806 C791 0.961 . S
H807 C791 0.960 . S
C808 C809 1.391 . S
C808 C810 1.394 . S
C808 H824 0.931 . S
C809 C808 1.391 . S
C809 C813 1.376 . S
C810 C808 1.394 . S
C810 C811 1.369 . S
C810 C814 1.531 . S
C811 C810 1.369 . S
C811 C812 1.410 . S
C811 C819 1.503 . S
C812 C811 1.410 . S
C812 C813 1.392 . S
C812 C815 1.511 . S
C813 C809 1.376 . S
C813 C812 1.392 . S
C813 H825 0.929 . S
C814 C810 1.531 . S
C814 H826 0.960 . S
C814 H827 0.962 . S
C814 H828 0.960 . S
C815 C812 1.511 . S
C815 H829 0.961 1_545 S
C815 H830 0.961 . S
C815 H831 0.961 . S
C816 C817 1.370 . S
C816 C818 1.363 . S
C816 H832 0.931 . S
C817 C816 1.370 . S
C817 C821 1.408 . S
C818 C816 1.363 . S
C818 C819 1.370 . S
C818 C822 1.524 . S
C819 C811 1.503 . S
C819 C818 1.370 . S
C819 C820 1.403 . S
C820 C819 1.403 . S
C820 C821 1.404 . S
C820 C823 1.539 . S
C821 C817 1.408 . S
C821 C820 1.404 . S
C821 H833 0.930 . S
C822 C818 1.524 . S
C822 H834 0.956 . S
C822 H835 0.961 . S
C822 H836 0.961 . S
C823 C820 1.539 . S
C823 H837 0.958 . S
C823 H838 0.961 . S
C823 H839 0.960 . S
H824 C808 0.931 . S
H825 C813 0.929 . S
H826 C814 0.960 . S
H827 C814 0.962 . S
H828 C814 0.960 . S
H829 C815 0.961 1_565 S
H830 C815 0.961 . S
H831 C815 0.961 . S
H832 C816 0.931 . S
H833 C821 0.930 . S
H834 C822 0.956 . S
H835 C822 0.961 . S
H836 C822 0.961 . S
H837 C823 0.958 . S
H838 C823 0.961 . S
H839 C823 0.960 . S
C840 C841 1.391 . S
C840 C842 1.394 . S
C840 H856 0.931 1_655 S
C841 C840 1.391 . S
C841 C845 1.376 . S
C842 C840 1.394 . S
C842 C843 1.369 . S
C842 C846 1.531 1_655 S
C843 C842 1.369 . S
C843 C844 1.410 . S
C843 C851 1.503 . S
C844 C843 1.410 . S
C844 C845 1.392 . S
C844 C847 1.511 . S
C845 C841 1.376 . S
C845 C844 1.392 . S
C845 H857 0.929 . S
C846 C842 1.531 1_455 S
C846 H858 0.960 1_455 S
C846 H859 0.962 . S
C846 H860 0.960 . S
C847 C844 1.511 . S
C847 H861 0.961 . S
C847 H862 0.961 . S
C847 H863 0.961 . S
C848 C849 1.370 . S
C848 C850 1.363 . S
C848 H864 0.931 . S
C849 C848 1.370 . S
C849 C853 1.408 . S
C850 C848 1.363 . S
C850 C851 1.370 . S
C850 C854 1.524 . S
C851 C843 1.503 . S
C851 C850 1.370 . S
C851 C852 1.403 . S
C852 C851 1.403 . S
C852 C853 1.404 . S
C852 C855 1.539 . S
C853 C849 1.408 . S
C853 C852 1.404 . S
C853 H865 0.930 . S
C854 C850 1.524 . S
C854 H866 0.956 . S
C854 H867 0.961 . S
C854 H868 0.961 . S
C855 C852 1.539 . S
C855 H869 0.958 . S
C855 H870 0.961 . S
C855 H871 0.960 . S
H856 C840 0.931 1_455 S
H857 C845 0.929 . S
H858 C846 0.960 1_655 S
H859 C846 0.962 . S
H860 C846 0.960 . S
H861 C847 0.961 . S
H862 C847 0.961 . S
H863 C847 0.961 . S
H864 C848 0.931 . S
H865 C853 0.930 . S
H866 C854 0.956 . S
H867 C854 0.961 . S
H868 C854 0.961 . S
H869 C855 0.958 . S
H870 C855 0.961 . S
H871 C855 0.960 . S
C872 C873 1.391 . S
C872 C874 1.394 . S
C872 H888 0.931 . S
C873 C872 1.391 . S
C873 C877 1.376 . S
C874 C872 1.394 . S
C874 C875 1.369 . S
C874 C878 1.531 . S
C875 C874 1.369 . S
C875 C876 1.410 . S
C875 C883 1.503 . S
C876 C875 1.410 . S
C876 C877 1.392 . S
C876 C879 1.511 . S
C877 C873 1.376 . S
C877 C876 1.392 . S
C877 H889 0.929 . S
C878 C874 1.531 . S
C878 H890 0.960 . S
C878 H891 0.962 . S
C878 H892 0.960 . S
C879 C876 1.511 . S
C879 H893 0.961 . S
C879 H894 0.961 . S
C879 H895 0.961 . S
C880 C881 1.370 . S
C880 C882 1.363 . S
C880 H896 0.931 . S
C881 C880 1.370 . S
C881 C885 1.408 . S
C882 C880 1.363 . S
C882 C883 1.370 . S
C882 C886 1.524 . S
C883 C875 1.503 . S
C883 C882 1.370 . S
C883 C884 1.403 . S
C884 C883 1.403 . S
C884 C885 1.404 . S
C884 C887 1.539 . S
C885 C881 1.408 . S
C885 C884 1.404 . S
C885 H897 0.930 . S
C886 C882 1.524 . S
C886 H898 0.956 . S
C886 H899 0.961 . S
C886 H900 0.961 . S
C887 C884 1.539 . S
C887 H901 0.958 . S
C887 H902 0.961 . S
C887 H903 0.960 . S
H888 C872 0.931 . S
H889 C877 0.929 . S
H890 C878 0.960 . S
H891 C878 0.962 . S
H892 C878 0.960 . S
H893 C879 0.961 . S
H894 C879 0.961 . S
H895 C879 0.961 . S
H896 C880 0.931 . S
H897 C885 0.930 . S
H898 C886 0.956 . S
H899 C886 0.961 . S
H900 C886 0.961 . S
H901 C887 0.958 . S
H902 C887 0.961 . S
H903 C887 0.960 . S
C904 C905 1.391 . S
C904 C906 1.394 . S
C904 H920 0.931 . S
C905 C904 1.391 . S
C905 C909 1.376 . S
C906 C904 1.394 . S
C906 C907 1.369 . S
C906 C910 1.531 . S
C907 C906 1.369 . S
C907 C908 1.410 . S
C907 C915 1.503 . S
C908 C907 1.410 . S
C908 C909 1.392 . S
C908 C911 1.511 . S
C909 C905 1.376 . S
C909 C908 1.392 . S
C909 H921 0.929 . S
C910 C906 1.531 . S
C910 H922 0.960 . S
C910 H923 0.962 . S
C910 H924 0.960 . S
C911 C908 1.511 . S
C911 H925 0.961 . S
C911 H926 0.961 . S
C911 H927 0.961 . S
C912 C913 1.370 . S
C912 C914 1.363 . S
C912 H928 0.931 . S
C913 C912 1.370 . S
C913 C917 1.408 . S
C914 C912 1.363 . S
C914 C915 1.370 . S
C914 C918 1.524 . S
C915 C907 1.503 . S
C915 C914 1.370 . S
C915 C916 1.403 . S
C916 C915 1.403 . S
C916 C917 1.404 . S
C916 C919 1.539 . S
C917 C913 1.408 . S
C917 C916 1.404 . S
C917 H929 0.930 . S
C918 C914 1.524 . S
C918 H930 0.956 . S
C918 H931 0.961 . S
C918 H932 0.961 . S
C919 C916 1.539 . S
C919 H933 0.958 . S
C919 H934 0.961 . S
C919 H935 0.960 . S
H920 C904 0.931 . S
H921 C909 0.929 . S
H922 C910 0.960 . S
H923 C910 0.962 . S
H924 C910 0.960 . S
H925 C911 0.961 . S
H926 C911 0.961 . S
H927 C911 0.961 . S
H928 C912 0.931 . S
H929 C917 0.930 . S
H930 C918 0.956 . S
H931 C918 0.961 . S
H932 C918 0.961 . S
H933 C919 0.958 . S
H934 C919 0.961 . S
H935 C919 0.960 . S
C936 C937 1.391 . S
C936 C938 1.394 . S
C936 H952 0.931 . S
C937 C936 1.391 . S
C937 C941 1.376 . S
C938 C936 1.394 . S
C938 C939 1.369 . S
C938 C942 1.531 . S
C939 C938 1.369 . S
C939 C940 1.410 . S
C939 C947 1.503 . S
C940 C939 1.410 . S
C940 C941 1.392 . S
C940 C943 1.511 . S
C941 C937 1.376 . S
C941 C940 1.392 . S
C941 H953 0.929 . S
C942 C938 1.531 . S
C942 H954 0.960 . S
C942 H955 0.962 . S
C942 H956 0.960 . S
C943 C940 1.511 . S
C943 H957 0.961 . S
C943 H958 0.961 . S
C943 H959 0.961 . S
C944 C945 1.370 . S
C944 C946 1.363 . S
C944 H960 0.931 . S
C945 C944 1.370 . S
C945 C949 1.408 . S
C946 C944 1.363 . S
C946 C947 1.370 . S
C946 C950 1.524 . S
C947 C939 1.503 . S
C947 C946 1.370 . S
C947 C948 1.403 . S
C948 C947 1.403 . S
C948 C949 1.404 . S
C948 C951 1.539 . S
C949 C945 1.408 . S
C949 C948 1.404 . S
C949 H961 0.930 . S
C950 C946 1.524 . S
C950 H962 0.956 . S
C950 H963 0.961 . S
C950 H964 0.961 . S
C951 C948 1.539 . S
C951 H965 0.958 . S
C951 H966 0.961 . S
C951 H967 0.960 . S
H952 C936 0.931 . S
H953 C941 0.929 . S
H954 C942 0.960 . S
H955 C942 0.962 . S
H956 C942 0.960 . S
H957 C943 0.961 . S
H958 C943 0.961 . S
H959 C943 0.961 . S
H960 C944 0.931 . S
H961 C949 0.930 . S
H962 C950 0.956 . S
H963 C950 0.961 . S
H964 C950 0.961 . S
H965 C951 0.958 . S
H966 C951 0.961 . S
H967 C951 0.960 . S
C968 C969 1.391 . S
C968 C970 1.394 . S
C968 H984 0.931 . S
C969 C968 1.391 . S
C969 C973 1.376 . S
C970 C968 1.394 . S
C970 C971 1.369 . S
C970 C974 1.531 . S
C971 C970 1.369 . S
C971 C972 1.410 . S
C971 C979 1.503 . S
C972 C971 1.410 . S
C972 C973 1.392 . S
C972 C975 1.511 . S
C973 C969 1.376 . S
C973 C972 1.392 . S
C973 H985 0.929 . S
C974 C970 1.531 . S
C974 H986 0.960 . S
C974 H987 0.962 . S
C974 H988 0.960 . S
C975 C972 1.511 . S
C975 H989 0.961 . S
C975 H990 0.961 . S
C975 H991 0.961 . S
C976 C977 1.370 . S
C976 C978 1.363 . S
C976 H992 0.931 . S
C977 C976 1.370 . S
C977 C981 1.408 . S
C978 C976 1.363 . S
C978 C979 1.370 . S
C978 C982 1.524 . S
C979 C971 1.503 . S
C979 C978 1.370 . S
C979 C980 1.403 . S
C980 C979 1.403 . S
C980 C981 1.404 . S
C980 C983 1.539 . S
C981 C977 1.408 . S
C981 C980 1.404 . S
C981 H993 0.930 . S
C982 C978 1.524 . S
C982 H994 0.956 . S
C982 H995 0.961 . S
C982 H996 0.961 . S
C983 C980 1.539 . S
C983 H997 0.958 . S
C983 H998 0.961 . S
C983 H999 0.960 . S
H984 C968 0.931 . S
H985 C973 0.929 . S
H986 C974 0.960 . S
H987 C974 0.962 . S
H988 C974 0.960 . S
H989 C975 0.961 . S
H990 C975 0.961 . S
H991 C975 0.961 . S
H992 C976 0.931 . S
H993 C981 0.930 . S
H994 C982 0.956 . S
H995 C982 0.961 . S
H996 C982 0.961 . S
H997 C983 0.958 . S
H998 C983 0.961 . S
H999 C983 0.960 . S
C1000 C1001 1.391 . S
C1000 C1002 1.394 . S
C1000 H1016 0.931 . S
C1001 C1000 1.391 . S
C1001 C1005 1.376 . S
C1002 C1000 1.394 . S
C1002 C1003 1.369 . S
C1002 C1006 1.531 . S
C1003 C1002 1.369 . S
C1003 C1004 1.410 . S
C1003 C1011 1.503 . S
C1004 C1003 1.410 . S
C1004 C1005 1.392 . S
C1004 C1007 1.511 . S
C1005 C1001 1.376 . S
C1005 C1004 1.392 . S
C1005 H1017 0.929 . S
C1006 C1002 1.531 . S
C1006 H1018 0.960 . S
C1006 H1019 0.962 . S
C1006 H1020 0.960 . S
C1007 C1004 1.511 . S
C1007 H1021 0.961 . S
C1007 H1022 0.961 . S
C1007 H1023 0.961 . S
C1008 C1009 1.370 . S
C1008 C1010 1.363 . S
C1008 H1024 0.931 . S
C1009 C1008 1.370 . S
C1009 C1013 1.408 . S
C1010 C1008 1.363 . S
C1010 C1011 1.370 . S
C1010 C1014 1.524 . S
C1011 C1003 1.503 . S
C1011 C1010 1.370 . S
C1011 C1012 1.403 . S
C1012 C1011 1.403 . S
C1012 C1013 1.404 . S
C1012 C1015 1.539 . S
C1013 C1009 1.408 . S
C1013 C1012 1.404 . S
C1013 H1025 0.930 . S
C1014 C1010 1.524 . S
C1014 H1026 0.956 . S
C1014 H1027 0.961 . S
C1014 H1028 0.961 . S
C1015 C1012 1.539 . S
C1015 H1029 0.958 . S
C1015 H1030 0.961 . S
C1015 H1031 0.960 . S
H1016 C1000 0.931 . S
H1017 C1005 0.929 . S
H1018 C1006 0.960 . S
H1019 C1006 0.962 . S
H1020 C1006 0.960 . S
H1021 C1007 0.961 . S
H1022 C1007 0.961 . S
H1023 C1007 0.961 . S
H1024 C1008 0.931 . S
H1025 C1013 0.930 . S
H1026 C1014 0.956 . S
H1027 C1014 0.961 . S
H1028 C1014 0.961 . S
H1029 C1015 0.958 . S
H1030 C1015 0.961 . S
H1031 C1015 0.960 . S
C1032 C1033 1.391 . S
C1032 C1034 1.394 . S
C1032 H1048 0.931 . S
C1033 C1032 1.391 . S
C1033 C1037 1.376 . S
C1034 C1032 1.394 . S
C1034 C1035 1.369 . S
C1034 C1038 1.531 . S
C1035 C1034 1.369 . S
C1035 C1036 1.410 . S
C1035 C1043 1.503 . S
C1036 C1035 1.410 . S
C1036 C1037 1.392 . S
C1036 C1039 1.511 . S
C1037 C1033 1.376 . S
C1037 C1036 1.392 . S
C1037 H1049 0.929 . S
C1038 C1034 1.531 . S
C1038 H1050 0.960 . S
C1038 H1051 0.962 . S
C1038 H1052 0.960 . S
C1039 C1036 1.511 . S
C1039 H1053 0.961 . S
C1039 H1054 0.961 . S
C1039 H1055 0.961 . S
C1040 C1041 1.370 . S
C1040 C1042 1.363 . S
C1040 H1056 0.931 . S
C1041 C1040 1.370 . S
C1041 C1045 1.408 . S
C1042 C1040 1.363 . S
C1042 C1043 1.370 . S
C1042 C1046 1.524 . S
C1043 C1035 1.503 . S
C1043 C1042 1.370 . S
C1043 C1044 1.403 . S
C1044 C1043 1.403 . S
C1044 C1045 1.404 . S
C1044 C1047 1.539 . S
C1045 C1041 1.408 . S
C1045 C1044 1.404 . S
C1045 H1057 0.930 . S
C1046 C1042 1.524 . S
C1046 H1058 0.956 . S
C1046 H1059 0.961 . S
C1046 H1060 0.961 . S
C1047 C1044 1.539 . S
C1047 H1061 0.958 . S
C1047 H1062 0.961 . S
C1047 H1063 0.960 . S
H1048 C1032 0.931 . S
H1049 C1037 0.929 . S
H1050 C1038 0.960 . S
H1051 C1038 0.962 . S
H1052 C1038 0.960 . S
H1053 C1039 0.961 . S
H1054 C1039 0.961 . S
H1055 C1039 0.961 . S
H1056 C1040 0.931 . S
H1057 C1045 0.930 . S
H1058 C1046 0.956 . S
H1059 C1046 0.961 . S
H1060 C1046 0.961 . S
H1061 C1047 0.958 . S
H1062 C1047 0.961 . S
H1063 C1047 0.960 . S
C1064 C1065 1.391 . S
C1064 C1066 1.394 . S
C1064 H1080 0.931 . S
C1065 C1064 1.391 . S
C1065 C1069 1.376 . S
C1066 C1064 1.394 . S
C1066 C1067 1.369 . S
C1066 C1070 1.531 . S
C1067 C1066 1.369 . S
C1067 C1068 1.410 . S
C1067 C1075 1.503 . S
C1068 C1067 1.410 . S
C1068 C1069 1.392 . S
C1068 C1071 1.511 . S
C1069 C1065 1.376 . S
C1069 C1068 1.392 . S
C1069 H1081 0.929 . S
C1070 C1066 1.531 . S
C1070 H1082 0.960 . S
C1070 H1083 0.962 . S
C1070 H1084 0.960 . S
C1071 C1068 1.511 . S
C1071 H1085 0.961 . S
C1071 H1086 0.961 . S
C1071 H1087 0.961 . S
C1072 C1073 1.370 . S
C1072 C1074 1.363 . S
C1072 H1088 0.931 . S
C1073 C1072 1.370 . S
C1073 C1077 1.408 . S
C1074 C1072 1.363 . S
C1074 C1075 1.370 . S
C1074 C1078 1.524 . S
C1075 C1067 1.503 . S
C1075 C1074 1.370 . S
C1075 C1076 1.403 . S
C1076 C1075 1.403 . S
C1076 C1077 1.404 . S
C1076 C1079 1.539 . S
C1077 C1073 1.408 . S
C1077 C1076 1.404 . S
C1077 H1089 0.930 . S
C1078 C1074 1.524 . S
C1078 H1090 0.956 . S
C1078 H1091 0.961 . S
C1078 H1092 0.961 . S
C1079 C1076 1.539 . S
C1079 H1093 0.958 . S
C1079 H1094 0.961 . S
C1079 H1095 0.960 . S
H1080 C1064 0.931 . S
H1081 C1069 0.929 . S
H1082 C1070 0.960 . S
H1083 C1070 0.962 . S
H1084 C1070 0.960 . S
H1085 C1071 0.961 . S
H1086 C1071 0.961 . S
H1087 C1071 0.961 . S
H1088 C1072 0.931 . S
H1089 C1077 0.930 . S
H1090 C1078 0.956 . S
H1091 C1078 0.961 . S
H1092 C1078 0.961 . S
H1093 C1079 0.958 . S
H1094 C1079 0.961 . S
H1095 C1079 0.960 . S
C1096 C1097 1.391 . S
C1096 C1098 1.394 . S
C1096 H1112 0.931 . S
C1097 C1096 1.391 . S
C1097 C1101 1.376 . S
C1098 C1096 1.394 . S
C1098 C1099 1.369 . S
C1098 C1102 1.531 . S
C1099 C1098 1.369 . S
C1099 C1100 1.410 . S
C1099 C1107 1.503 . S
C1100 C1099 1.410 . S
C1100 C1101 1.392 . S
C1100 C1103 1.511 . S
C1101 C1097 1.376 . S
C1101 C1100 1.392 . S
C1101 H1113 0.929 . S
C1102 C1098 1.531 . S
C1102 H1114 0.960 . S
C1102 H1115 0.962 . S
C1102 H1116 0.960 . S
C1103 C1100 1.511 . S
C1103 H1117 0.961 . S
C1103 H1118 0.961 . S
C1103 H1119 0.961 . S
C1104 C1105 1.370 . S
C1104 C1106 1.363 . S
C1104 H1120 0.931 . S
C1105 C1104 1.370 . S
C1105 C1109 1.408 . S
C1106 C1104 1.363 . S
C1106 C1107 1.370 . S
C1106 C1110 1.524 . S
C1107 C1099 1.503 . S
C1107 C1106 1.370 . S
C1107 C1108 1.403 . S
C1108 C1107 1.403 . S
C1108 C1109 1.404 . S
C1108 C1111 1.539 . S
C1109 C1105 1.408 . S
C1109 C1108 1.404 . S
C1109 H1121 0.930 . S
C1110 C1106 1.524 . S
C1110 H1122 0.956 . S
C1110 H1123 0.961 . S
C1110 H1124 0.961 . S
C1111 C1108 1.539 . S
C1111 H1125 0.958 . S
C1111 H1126 0.961 . S
C1111 H1127 0.960 . S
H1112 C1096 0.931 . S
H1113 C1101 0.929 . S
H1114 C1102 0.960 . S
H1115 C1102 0.962 . S
H1116 C1102 0.960 . S
H1117 C1103 0.961 . S
H1118 C1103 0.961 . S
H1119 C1103 0.961 . S
H1120 C1104 0.931 . S
H1121 C1109 0.930 . S
H1122 C1110 0.956 . S
H1123 C1110 0.961 . S
H1124 C1110 0.961 . S
H1125 C1111 0.958 . S
H1126 C1111 0.961 . S
H1127 C1111 0.960 . S
C361 C45 1.616 . S
C369 C127 1.631 . S
C393 C30 1.605 . S
C401 C159 1.631 . S
C425 C39 1.607 . S
C433 C191 1.521 . S
C465 C223 1.547 . S
C457 C34 1.579 . S
C489 C97 1.600 . S
C497 C255 1.628 . S
C529 C287 1.627 . S
C521 C82 1.579 . S
C561 C319 1.531 . S
C553 C91 1.593 . S
C593 C351 1.528 . S
C585 C86 1.608 . S
C625 C313 1.435 . S
C617 C26 1.484 . S
C657 C345 1.448 . S
C649 C36 1.465 . S
C689 C261 1.542 . S
C681 C32 1.501 . S
C721 C293 1.540 . S
C713 C42 1.438 . S
C745 C18 1.567 . S
C753 C281 1.625 . S
C785 C325 1.520 . S
C777 C50 1.559 . S
C809 C4 1.576 . S
C817 C357 1.507 . S
C841 C48 1.513 . S
C849 C249 1.627 . S
C881 C185 1.464 . S
C873 C78 1.425 . S
C905 C88 1.495 . S
C913 C217 1.431 . S
C945 C133 1.540 . S
C937 C84 1.436 . S
C977 C165 1.541 . S
C969 C94 1.461 . S
C1009 C153 1.625 . S
C1001 C70 1.498 . S
C1041 C197 1.522 . S
C1033 C102 1.553 . S
C1065 C56 1.517 . S
C1073 C229 1.537 . S
C1097 C100 1.556 . S
C1105 C121 1.626 . S
