# Generated by pormake.
# Topology anh, (6,3)-cn, num edge types: 1
# Building blocks:
#     Node 0, Type 0, BuildingBlock: PAMTOO_clean_sbu_0, # of connection points: 6
#     Node 1, Type 0, BuildingBlock: PAMTOO_clean_sbu_0, # of connection points: 6
#     Node 2, Type 0, BuildingBlock: PAMTOO_clean_sbu_0, # of connection points: 6
#     Node 3, Type 1, BuildingBlock: BETDIP_clean_linker_0, # of connection points: 3
#     Node 4, Type 1, BuildingBlock: BETDIP_clean_linker_0, # of connection points: 3
#     Node 5, Type 1, BuildingBlock: BETDIP_clean_linker_0, # of connection points: 3
#     Node 6, Type 1, BuildingBlock: BETDIP_clean_linker_0, # of connection points: 3
#     Node 7, Type 1, BuildingBlock: BETDIP_clean_linker_0, # of connection points: 3
#     Node 8, Type 1, BuildingBlock: BETDIP_clean_linker_0, # of connection points: 3
#     Edge 9, Type (0, 1), BuildingBlock: KIFKEQ_clean_linker_1, # of connection points: 2
#     Edge 10, Type (0, 1), BuildingBlock: KIFKEQ_clean_linker_1, # of connection points: 2
#     Edge 11, Type (0, 1), BuildingBlock: KIFKEQ_clean_linker_1, # of connection points: 2
#     Edge 12, Type (0, 1), BuildingBlock: KIFKEQ_clean_linker_1, # of connection points: 2
#     Edge 13, Type (0, 1), BuildingBlock: KIFKEQ_clean_linker_1, # of connection points: 2
#     Edge 14, Type (0, 1), BuildingBlock: KIFKEQ_clean_linker_1, # of connection points: 2
#     Edge 15, Type (0, 1), BuildingBlock: KIFKEQ_clean_linker_1, # of connection points: 2
#     Edge 16, Type (0, 1), BuildingBlock: KIFKEQ_clean_linker_1, # of connection points: 2
#     Edge 17, Type (0, 1), BuildingBlock: KIFKEQ_clean_linker_1, # of connection points: 2
#     Edge 18, Type (0, 1), BuildingBlock: KIFKEQ_clean_linker_1, # of connection points: 2
#     Edge 19, Type (0, 1), BuildingBlock: KIFKEQ_clean_linker_1, # of connection points: 2
#     Edge 20, Type (0, 1), BuildingBlock: KIFKEQ_clean_linker_1, # of connection points: 2
#     Edge 21, Type (0, 1), BuildingBlock: KIFKEQ_clean_linker_1, # of connection points: 2
#     Edge 22, Type (0, 1), BuildingBlock: KIFKEQ_clean_linker_1, # of connection points: 2
#     Edge 23, Type (0, 1), BuildingBlock: KIFKEQ_clean_linker_1, # of connection points: 2
#     Edge 24, Type (0, 1), BuildingBlock: KIFKEQ_clean_linker_1, # of connection points: 2
#     Edge 25, Type (0, 1), BuildingBlock: KIFKEQ_clean_linker_1, # of connection points: 2
#     Edge 26, Type (0, 1), BuildingBlock: KIFKEQ_clean_linker_1, # of connection points: 2
# Relax obj value: 0.156
# Max RMSD: 0.208
# Mean RMSD: 0.127
data_MOF--net-anh--node1-PAMTOO_clean_sbu_0--node2-BETDIP_clean_linker_0--edge1-KIFKEQ_clean_linker_1
_symmetry_space_group_name_H-M    P1
_symmetry_Int_Tables_number       1
_symmetry_cell_setting            triclinic
loop_
_symmetry_equiv_pos_as_xyz
'x, y, z'
_cell_length_a     30.207387
_cell_length_b     29.829402
_cell_length_c     50.63669
_cell_angle_alpha  93.981709
_cell_angle_beta   96.644234
_cell_angle_gamma 99.912087
loop_
_atom_site_label
_atom_site_type_symbol
_atom_site_fract_x
_atom_site_fract_y
_atom_site_fract_z
_atom_type_partial_charge
Dy0 Dy 0.12351 0.59672 0.14507 0.0
Dy1 Dy 0.106 0.48946 0.15805 0.0
C2 C 0.09636 0.51564 0.0993 0.0
O3 O 1.0477 0.57576 0.13823 0.0
O4 O 1.04204 0.51548 0.16435 0.0
O5 O 0.13658 0.64886 0.11785 0.0
O6 O 0.13173 0.66805 0.15918 0.0
O7 O 0.14365 0.53018 0.19464 0.0
O8 O 0.11288 0.59341 0.18795 0.0
O9 O 0.17649 0.50294 0.14656 0.0
O10 O 0.19268 0.5808 0.15658 0.0
O11 O 1.09408 0.43931 0.18624 0.0
O12 O 0.09712 0.41736 0.14491 0.0
C13 C 1.02351 0.54577 0.15127 0.0
O14 O 0.12533 0.55349 0.10731 0.0
O15 O 1.07498 0.49251 0.11646 0.0
C16 C 0.1858 0.71551 0.13912 0.0
C17 C 0.26917 0.77686 0.14992 0.0
C18 C 0.26661 0.73384 0.13604 0.0
C19 C 0.22531 0.70321 0.13088 0.0
C20 C 0.18807 0.75909 0.15207 0.0
C21 C 0.22941 0.78943 0.15754 0.0
C22 C 0.14312 0.68216 0.13675 0.0
C23 C 0.13182 0.56763 0.20408 0.0
C24 C 0.20588 0.54168 0.15129 0.0
C25 C 1.0428 0.37346 0.16715 0.0
C26 C 0.95927 0.31345 0.16605 0.0
C27 C 0.96322 0.36046 0.17339 0.0
C28 C 1.00445 0.39008 0.17385 0.0
C29 C 1.03912 0.32673 0.15957 0.0
C30 C 0.99769 0.29691 0.15904 0.0
C31 C 1.08629 0.40498 0.16788 0.0
H32 H 0.29688 0.72317 0.13021 0.0
H33 H 0.22459 0.6695 0.12119 0.0
H34 H 0.15807 0.76912 0.15873 0.0
H35 H 0.23047 0.82251 0.16814 0.0
H36 H 0.9347 0.37437 0.17939 0.0
H37 H 1.00651 0.426 0.17981 0.0
H38 H 1.06828 0.31331 0.15414 0.0
H39 H 0.99571 0.26098 0.15304 0.0
Dy40 Dy 0.59586 0.07758 0.51146 0.0
Dy41 Dy 0.7072 0.09665 0.51645 0.0
C42 C 0.65607 0.10376 0.56676 0.0
O43 O 0.61322 0.14877 0.50005 0.0
O44 O 0.68794 0.1658 0.51882 0.0
O45 O 0.53627 0.06603 0.53137 0.0
O46 O 0.52933 0.06683 0.48835 0.0
O47 O 0.68023 0.10257 0.47409 0.0
O48 O 0.61521 0.05055 0.47316 0.0
O49 O 0.68691 0.02047 0.51049 0.0
O50 O 0.61702 0.01402 0.52504 0.0
O51 O 0.76945 0.09039 0.50054 0.0
O52 O 0.77154 0.12645 0.5394 0.0
C53 C 0.65064 0.17841 0.50829 0.0
O54 O 0.6238 0.11571 0.55074 0.0
O55 O 0.68764 0.08495 0.55704 0.0
C56 C 0.47505 0.01561 0.50658 0.0
C57 C 0.40969 0.93488 0.50279 0.0
C58 C 0.45534 0.9347 0.51221 0.0
C59 C 0.48775 0.97468 0.51399 0.0
C60 C 0.42977 0.01601 0.49707 0.0
C61 C 0.39735 0.976 0.49511 0.0
C62 C 0.50862 0.05808 0.50914 0.0
C63 C 0.64613 0.07354 0.46068 0.0
C64 C 0.65133 0.99586 0.5185 0.0
C65 C 0.82338 0.1579 0.51196 0.0
C66 C 0.87603 0.24 0.50043 0.0
C67 C 0.83063 0.22675 0.48876 0.0
C68 C 0.80452 0.18623 0.49458 0.0
C69 C 0.86882 0.1703 0.52326 0.0
C70 C 0.89504 0.21103 0.5175 0.0
C71 C 0.79439 0.11775 0.51994 0.0
H72 H 0.466 0.90383 0.51852 0.0
H73 H 0.52267 0.97373 0.52136 0.0
H74 H 0.41947 0.04729 0.49115 0.0
H75 H 0.36273 0.9772 0.48724 0.0
H76 H 0.81513 0.2478 0.47518 0.0
H77 H 0.7693 0.1774 0.48585 0.0
H78 H 0.88368 0.14904 0.53699 0.0
H79 H 0.92975 0.22046 0.527 0.0
Dy80 Dy 0.6475 0.63022 0.83734 0.0
Dy81 Dy 0.53604 0.60158 0.82617 0.0
C82 C 0.59586 0.61231 0.77784 0.0
O83 O 0.62212 0.69489 0.84623 0.0
O84 O 0.55418 0.67526 0.81906 0.0
O85 O 0.71148 0.6611 0.82537 0.0
O86 O 0.7102 0.6283 0.86205 0.0
O87 O 0.55038 0.61604 0.87035 0.0
O88 O 0.62634 0.61298 0.87669 0.0
O89 O 0.56187 0.53949 0.83887 0.0
O90 O 0.63055 0.55575 0.82353 0.0
O91 O 0.47672 0.55918 0.80386 0.0
O92 O 0.46939 0.6127 0.83331 0.0
C93 C 0.58632 0.70622 0.83292 0.0
O94 O 0.62965 0.63676 0.79407 0.0
O95 O 0.5598 0.59034 0.78658 0.0
C96 C 0.76624 0.61493 0.83605 0.0
C97 C 0.81478 0.54496 0.82514 0.0
C98 C 0.78195 0.55462 0.80552 0.0
C99 C 0.75747 0.58917 0.81103 0.0
C100 C 0.80096 0.60691 0.85499 0.0
C101 C 0.82488 0.572 0.84964 0.0
C102 C 0.73495 0.64436 0.84426 0.0
C103 C 0.58763 0.61378 0.88593 0.0
C104 C 0.59804 0.52631 0.83118 0.0
C105 C 0.41491 0.54483 0.82773 0.0
C106 C 0.35119 0.47593 0.84452 0.0
C107 C 0.39535 0.48755 0.8583 0.0
C108 C 0.42708 0.52167 0.84988 0.0
C109 C 0.37068 0.53426 0.81442 0.0
C110 C 0.33902 0.50012 0.82274 0.0
C111 C 0.44883 0.57746 0.81711 0.0
H112 H 0.77355 0.53387 0.78659 0.0
H113 H 0.73028 0.59417 0.79622 0.0
H114 H 0.80786 0.62599 0.87448 0.0
H115 H 0.85024 0.565 0.86499 0.0
H116 H 0.40576 0.46927 0.875 0.0
H117 H 0.46135 0.52926 0.86022 0.0
H118 H 0.36088 0.55179 0.79724 0.0
H119 H 0.30506 0.49239 0.812 0.0
H120 H 0.58695 0.01096 0.18146 0.0
H121 H 0.65911 0.08671 0.25336 0.0
H122 H 0.54553 0.98039 0.2579 0.0
H123 H 0.65316 0.14506 0.2207 0.0
C124 C 0.67028 0.12656 0.20698 0.0
C125 C 0.59107 0.01728 0.20301 0.0
C126 C 0.56154 0.99121 0.21806 0.0
C127 C 0.62558 0.0523 0.21561 0.0
C128 C 0.63194 0.06015 0.24359 0.0
C129 C 0.60346 0.03398 0.25899 0.0
C130 C 0.5681 1.0 0.24605 0.0
N131 N 0.65408 0.07914 0.19998 0.0
H132 H 0.64902 0.5404 0.50809 0.0
H133 H 0.62743 0.63215 0.57254 0.0
H134 H 0.63105 0.49152 0.58488 0.0
H135 H 0.57201 0.63739 0.52344 0.0
C136 C 0.60581 0.65294 0.51982 0.0
C137 C 0.64391 0.54655 0.52877 0.0
C138 C 0.63942 0.51031 0.54519 0.0
C139 C 0.63887 0.59028 0.53859 0.0
C140 C 0.63136 0.59825 0.56519 0.0
C141 C 0.62885 0.56298 0.5822 0.0
C142 C 0.63266 0.51906 0.57194 0.0
N143 N 0.64056 0.6263 0.52166 0.0
H144 H 1.00806 0.26972 0.85012 0.0
H145 H 1.0827 0.29625 0.92898 0.0
H146 H 1.01472 0.39856 0.89546 0.0
H147 H 0.11491 0.19984 0.9004 0.0
C148 C 0.10742 0.23057 0.89195 0.0
C149 C 1.02 0.29246 0.86811 0.0
C150 C 1.00936 0.33638 0.8701 0.0
C151 C 1.04798 0.27873 0.88894 0.0
C152 C 1.06278 0.30789 0.91252 0.0
C153 C 1.04973 0.35074 0.91531 0.0
C154 C 1.02432 0.36517 0.89366 0.0
N155 N 1.06142 0.23555 0.88606 0.0
H156 H 0.15146 0.62604 0.4812 0.0
H157 H 1.0939 0.55453 0.40484 0.0
H158 H 0.19387 0.67686 0.40894 0.0
H159 H 1.02996 0.54629 0.42915 0.0
C160 C 1.04682 0.53264 0.44612 0.0
C161 C 0.14939 0.62293 0.45962 0.0
C162 C 0.1759 0.65583 0.44673 0.0
C163 C 0.11858 0.58716 0.44457 0.0
C164 C 0.11617 0.58316 0.41655 0.0
C165 C 0.14376 0.61501 0.40361 0.0
C166 C 0.17309 0.65155 0.41883 0.0
N167 N 1.09076 0.55507 0.45784 0.0
H168 H 0.60093 0.16153 0.83559 0.0
H169 H 0.61928 0.07249 0.76874 0.0
H170 H 0.63803 0.21749 0.7634 0.0
H171 H 0.5456 0.03762 0.78581 0.0
C172 C 0.56657 0.03397 0.80423 0.0
C173 C 0.61008 0.15682 0.81564 0.0
C174 C 0.62054 0.19478 0.80098 0.0
C175 C 0.60891 0.11249 0.80388 0.0
C176 C 0.61963 0.10661 0.77775 0.0
C177 C 0.63053 0.14421 0.76308 0.0
C178 C 0.6312 0.18829 0.7749 0.0
N179 N 0.59541 0.07364 0.81781 0.0
H180 H 0.5715 0.5459 0.15577 0.0
H181 H 0.646 0.56471 0.08873 0.0
H182 H 0.50255 0.56302 0.07868 0.0
H183 H 0.66514 0.48984 0.11585 0.0
C184 C 0.68161 0.5186 0.13003 0.0
C185 C 0.57226 0.55171 0.13493 0.0
C186 C 0.53165 0.55382 0.11844 0.0
C187 C 0.61346 0.55434 0.12394 0.0
C188 C 0.61409 0.56139 0.09687 0.0
C189 C 0.57445 0.56526 0.08051 0.0
C190 C 0.53348 0.56111 0.09141 0.0
N191 N 0.65433 0.54917 0.13963 0.0
H192 H 0.27634 0.61507 0.15768 0.0
H193 H 0.24739 0.46798 0.14245 0.0
H194 H 0.35599 0.61512 0.15351 0.0
H195 H 0.32714 0.46803 0.13876 0.0
H196 H 0.45586 0.494 0.09676 0.0
H197 H 0.37888 0.48985 0.10743 0.0
H198 H 0.42712 0.59437 0.17271 0.0
H199 H 0.50474 0.59892 0.16152 0.0
C200 C 0.28694 0.58264 0.15373 0.0
C201 C 0.25509 0.54151 0.15023 0.0
C202 C 0.33286 0.58267 0.15152 0.0
C203 C 0.34828 0.5416 0.14571 0.0
C204 C 0.31657 0.50042 0.14287 0.0
C205 C 0.2707 0.50037 0.14509 0.0
C206 C 0.45015 0.51569 0.11364 0.0
C207 C 0.48641 0.5469 0.12824 0.0
C208 C 0.40593 0.51315 0.11988 0.0
C209 C 0.39642 0.5419 0.1409 0.0
C210 C 0.433 0.57206 0.15619 0.0
C211 C 0.47757 0.57435 0.15001 0.0
H212 H 0.96513 0.2586 0.49173 0.0
H213 H 0.84775 0.3219 0.49729 0.0
H214 H 1.00765 0.33087 0.48087 0.0
H215 H 0.89001 0.39366 0.48609 0.0
H216 H 0.96068 0.49026 0.43036 0.0
H217 H 0.92046 0.42045 0.44537 0.0
H218 H 1.03897 0.4118 0.5 0.0
H219 H 1.07935 0.4818 0.48483 0.0
C220 C 0.94856 0.28799 0.49093 0.0
C221 C 0.90287 0.28431 0.49507 0.0
C222 C 0.97291 0.32936 0.48472 0.0
C223 C 0.95202 0.36778 0.48243 0.0
C224 C 0.90676 0.3644 0.48725 0.0
C225 C 0.88253 0.32322 0.49357 0.0
C226 C 0.97798 0.47356 0.44571 0.0
C227 C 1.02294 0.49142 0.45649 0.0
C228 C 0.95494 0.43375 0.45438 0.0
C229 C 0.97654 0.41074 0.47392 0.0
C230 C 1.02161 0.42868 0.48479 0.0
C231 C 1.04459 0.46884 0.47623 0.0
H232 H 0.51075 0.74156 0.81809 0.0
H233 H 0.65349 0.7816 0.84666 0.0
H234 H 0.50483 0.82119 0.81467 0.0
H235 H 0.64801 0.86155 0.84224 0.0
H236 H 0.61592 1.00657 0.84784 0.0
H237 H 0.61951 0.92783 0.85772 0.0
H238 H 0.52637 0.87777 0.78622 0.0
H239 H 0.52179 0.95576 0.77711 0.0
C240 C 0.54097 0.7674 0.82357 0.0
C241 C 0.58269 0.75512 0.83239 0.0
C242 C 0.53764 0.81317 0.82149 0.0
C243 C 0.57607 0.84799 0.82779 0.0
C244 C 0.6176 0.83582 0.83742 0.0
C245 C 0.62082 0.7899 0.8398 0.0
C246 C 0.59594 0.97859 0.83448 0.0
C247 C 0.56839 0.98716 0.81176 0.0
C248 C 0.59821 0.93348 0.83999 0.0
C249 C 0.57306 0.89622 0.82285 0.0
C250 C 0.54545 0.9053 0.80025 0.0
C251 C 0.54302 0.9501 0.79489 0.0
H252 H 0.96094 0.48167 0.16963 0.0
H253 H 0.9728 0.60807 0.13209 0.0
H254 H 0.87946 0.47763 0.16726 0.0
H255 H 0.89066 0.60404 0.12989 0.0
H256 H 0.74281 0.59622 0.1521 0.0
H257 H 0.82608 0.60543 0.15903 0.0
H258 H 0.816 0.46417 0.12974 0.0
H259 H 0.73365 0.45534 0.12262 0.0
C260 C 0.94635 0.5088 0.16098 0.0
C261 C 0.97378 0.545 0.15086 0.0
C262 C 0.89941 0.5064 0.15957 0.0
C263 C 0.87835 0.5404 0.14829 0.0
C264 C 0.90579 0.57743 0.13888 0.0
C265 C 0.95288 0.57955 0.13998 0.0
C266 C 0.75851 0.56711 0.1475 0.0
C267 C 0.7317 0.52491 0.13701 0.0
C268 C 0.80616 0.57245 0.15123 0.0
C269 C 0.82779 0.53548 0.14501 0.0
C270 C 0.80063 0.49321 0.13506 0.0
C271 C 0.75338 0.48816 0.13094 0.0
H272 H 0.32184 0.92527 0.51354 0.0
H273 H 0.41926 0.84782 0.48657 0.0
H274 H 0.26335 0.85661 0.50555 0.0
H275 H 0.36096 0.77914 0.47926 0.0
H276 H 0.25023 0.65632 0.48297 0.0
H277 H 0.30707 0.72339 0.50199 0.0
H278 H 0.22629 0.81137 0.46239 0.0
H279 H 0.17016 0.7446 0.44342 0.0
C280 C 0.33087 0.89363 0.50603 0.0
C281 C 0.37516 0.89225 0.50037 0.0
C282 C 0.29744 0.8543 0.50165 0.0
C283 C 0.30764 0.81263 0.49176 0.0
C284 C 0.3523 0.81068 0.48725 0.0
C285 C 0.38568 0.8501 0.49141 0.0
C286 C 0.2444 0.69018 0.47895 0.0
C287 C 0.20613 0.69568 0.46184 0.0
C288 C 0.27689 0.72838 0.48962 0.0
C289 C 0.27107 0.77251 0.4836 0.0
C290 C 0.23145 0.77787 0.46761 0.0
C291 C 0.19945 0.73978 0.45669 0.0
H292 H 0.66992 0.48737 0.81932 0.0
H293 H 0.53495 0.45402 0.84145 0.0
H294 H 0.67497 0.40665 0.816 0.0
H295 H 0.54041 0.37323 0.83861 0.0
H296 H 0.54605 0.23338 0.79373 0.0
H297 H 0.54077 0.3134 0.80399 0.0
H298 H 0.68031 0.34075 0.84077 0.0
H299 H 0.68541 0.26049 0.82981 0.0
C300 C 0.64141 0.46288 0.82368 0.0
C301 C 0.60186 0.47726 0.83044 0.0
C302 C 0.64449 0.41652 0.82201 0.0
C303 C 0.60808 0.38329 0.827 0.0
C304 C 0.56889 0.3978 0.8343 0.0
C305 C 0.56583 0.4442 0.83604 0.0
C306 C 0.57516 0.25646 0.80453 0.0
C307 C 0.61594 0.24104 0.81129 0.0
C308 C 0.57222 0.30225 0.81045 0.0
C309 C 0.61015 0.33368 0.82317 0.0
C310 C 0.65061 0.31764 0.83069 0.0
C311 C 0.6535 0.27172 0.82472 0.0
H312 H 0.7046 0.94082 0.49685 0.0
H313 H 0.59127 0.93756 0.54196 0.0
H314 H 0.69516 0.85758 0.49542 0.0
H315 H 0.58269 0.85513 0.54119 0.0
H316 H 0.54401 0.70717 0.51139 0.0
H317 H 0.55691 0.78981 0.51022 0.0
H318 H 0.70163 0.79365 0.52166 0.0
H319 H 0.68838 0.71039 0.52187 0.0
C320 C 0.67804 0.92245 0.50674 0.0
C321 C 0.64847 0.94587 0.51934 0.0
C322 C 0.6727 0.87474 0.50596 0.0
C323 C 0.63777 0.84949 0.51788 0.0
C324 C 0.60921 0.87323 0.53118 0.0
C325 C 0.61434 0.92068 0.5318 0.0
C326 C 0.57855 0.72569 0.51333 0.0
C327 C 0.61511 0.70248 0.51674 0.0
C328 C 0.58604 0.7731 0.51293 0.0
C329 C 0.63036 0.79861 0.51629 0.0
C330 C 0.66707 0.77512 0.51888 0.0
C331 C 0.6595 0.72743 0.51905 0.0
H332 H 0.87032 0.52695 0.78829 0.0
H333 H 0.8062 0.472 0.8538 0.0
H334 H 0.91351 0.46421 0.78718 0.0
H335 H 0.84862 0.40971 0.85281 0.0
H336 H 0.92191 0.29974 0.85085 0.0
H337 H 0.86709 0.34129 0.8288 0.0
H338 H 0.97595 0.4526 0.82147 0.0
H339 H 1.03028 0.41086 0.8432 0.0
C340 C 0.8648 0.50079 0.80197 0.0
C341 C 0.83572 0.50429 0.82139 0.0
C342 C 0.88932 0.465 0.80134 0.0
C343 C 0.88441 0.43199 0.81987 0.0
C344 C 0.85272 0.43407 0.83798 0.0
C345 C 0.82884 0.47 0.83882 0.0
C346 C 0.93413 0.33207 0.84329 0.0
C347 C 0.97998 0.35253 0.84889 0.0
C348 C 0.90284 0.35599 0.83088 0.0
C349 C 0.91716 0.40057 0.82391 0.0
C350 C 0.96381 0.41833 0.8265 0.0
C351 C 0.99496 0.39455 0.83902 0.0
H352 H 0.30292 0.81715 0.19953 0.0
H353 H 0.3355 0.8047 0.11886 0.0
H354 H 0.3764 0.86632 0.2138 0.0
H355 H 0.4093 0.8546 0.13319 0.0
H356 H 0.50541 0.99504 0.17181 0.0
H357 H 0.4367 0.94085 0.15329 0.0
H358 H 0.46009 0.85454 0.21647 0.0
H359 H 0.52951 0.90746 0.23447 0.0
C360 C 0.32576 0.82523 0.18483 0.0
C361 C 0.31355 0.80733 0.15809 0.0
C362 C 0.36789 0.85301 0.19303 0.0
C363 C 0.39851 0.86401 0.1746 0.0
C364 C 0.38621 0.84662 0.14775 0.0
C365 C 0.34421 0.81805 0.13961 0.0
C366 C 0.49658 0.96398 0.18139 0.0
C367 C 0.52274 0.95599 0.20488 0.0
C368 C 0.45715 0.93308 0.17081 0.0
C369 C 0.4429 0.89392 0.18368 0.0
C370 C 0.46998 0.88491 0.20643 0.0
C371 C 0.50961 0.91537 0.21678 0.0
H372 H 0.72169 0.25018 0.52112 0.0
H373 H 0.57779 0.21893 0.49399 0.0
H374 H 0.71839 0.33143 0.52542 0.0
H375 H 0.5748 0.30017 0.49796 0.0
H376 H 0.57887 0.43426 0.55083 0.0
H377 H 0.58193 0.35512 0.5373 0.0
H378 H 0.70367 0.39928 0.50186 0.0
H379 H 0.70081 0.47911 0.51588 0.0
C380 C 0.68946 0.2606 0.51571 0.0
C381 C 0.64985 0.2279 0.50761 0.0
C382 C 0.68768 0.30725 0.51799 0.0
C383 C 0.64624 0.32219 0.51229 0.0
C384 C 0.60711 0.28965 0.50289 0.0
C385 C 0.60889 0.24306 0.50052 0.0
C386 C 0.60618 0.4271 0.54004 0.0
C387 C 0.63984 0.46276 0.53462 0.0
C388 C 0.60769 0.38178 0.53203 0.0
C389 C 0.64303 0.37089 0.51848 0.0
C390 C 0.67619 0.40663 0.51243 0.0
C391 C 0.67441 0.45224 0.52027 0.0
H392 H 0.29542 0.40856 0.81138 0.0
H393 H 0.33296 0.45664 0.89475 0.0
H394 H 0.23894 0.34733 0.8232 0.0
H395 H 0.27593 0.39527 0.90665 0.0
H396 H 0.19349 0.25323 0.91768 0.0
H397 H 0.25538 0.31105 0.90682 0.0
H398 H 0.1667 0.34235 0.84006 0.0
H399 H 0.10624 0.28391 0.85025 0.0
C400 C 0.29136 0.40618 0.83224 0.0
C401 C 0.31818 0.43774 0.85211 0.0
C402 C 0.25904 0.37108 0.83902 0.0
C403 C 0.25265 0.36674 0.86584 0.0
C404 C 0.28033 0.39752 0.88583 0.0
C405 C 0.31286 0.43268 0.87902 0.0
C406 C 0.18757 0.27256 0.90068 0.0
C407 C 0.14492 0.26498 0.88521 0.0
C408 C 0.22274 0.30576 0.89458 0.0
C409 C 0.21587 0.33136 0.87263 0.0
C410 C 0.17326 0.32303 0.85697 0.0
C411 C 0.13831 0.29003 0.86308 0.0
H412 H 0.8734 0.32806 0.1504 0.0
H413 H 0.94597 0.22769 0.18349 0.0
H414 H 0.8018 0.28071 0.15667 0.0
H415 H 0.87415 0.17999 0.18923 0.0
H416 H 0.73155 0.09169 0.17894 0.0
H417 H 0.80039 0.1345 0.16495 0.0
H418 H 0.7677 0.26038 0.19796 0.0
H419 H 0.69926 0.2177 0.21194 0.0
C420 C 0.87412 0.29581 0.15888 0.0
C421 C 0.91554 0.282 0.16678 0.0
C422 C 0.83307 0.26865 0.16238 0.0
C423 C 0.83242 0.22685 0.17364 0.0
C424 C 0.87359 0.21187 0.18029 0.0
C425 C 0.91474 0.23922 0.17697 0.0
C426 C 0.7389 0.12854 0.18291 0.0
C427 C 0.71016 0.15154 0.19649 0.0
C428 C 0.77836 0.15296 0.17503 0.0
C429 C 0.78934 0.20076 0.18031 0.0
C430 C 0.75985 0.22365 0.19329 0.0
C431 C 0.72082 0.19925 0.20141 0.0
H432 H 0.15167 0.53534 0.06072 0.0
H433 H 1.026 0.45201 0.07447 0.0
H434 H 0.14237 0.49814 0.01513 0.0
H435 H 1.01689 0.41525 0.0293 0.0
H436 H 0.99032 0.39268 0.93957 0.0
H437 H 1.00294 0.43727 0.98268 0.0
H438 H 0.14158 0.41641 -0.00632 0.0
H439 H 0.12915 0.37205 0.94989 0.0
C440 C 0.12189 0.50954 0.05392 0.0
C441 C 1.08953 0.4966 0.07112 0.0
C442 C 0.11682 0.48803 0.02798 0.0
C443 C 1.07895 0.45384 0.01874 0.0
C444 C 1.04622 0.44177 0.0358 0.0
C445 C 1.05154 0.46274 0.06171 0.0
C446 C 1.02375 0.39814 0.95094 0.0
C447 C 1.05882 0.37897 0.94132 0.0
C448 C 1.03082 0.42338 0.97573 0.0
C449 C 1.07316 0.43017 0.99153 0.0
C450 C 0.10869 0.41194 0.98176 0.0
C451 C 0.10149 0.38625 0.9569 0.0
H452 H 0.58099 0.01513 0.42694 0.0
H453 H 0.7005 0.11864 0.42755 0.0
H454 H 0.57178 1.00656 0.3784 0.0
H455 H 0.69064 0.11065 0.37882 0.0
H456 H 0.68359 0.04714 0.29225 0.0
H457 H 0.69492 0.0571 0.34098 0.0
H458 H 0.55076 0.04886 0.34124 0.0
H459 H 0.53949 0.03872 0.29261 0.0
C460 C 0.60528 0.03614 0.41674 0.0
C461 C 0.64144 0.06763 0.43116 0.0
C462 C 0.5998 0.03143 0.38886 0.0
C463 C 0.63028 0.05813 0.3747 0.0
C464 C 0.66679 0.08927 0.38912 0.0
C465 C 0.6723 0.09397 0.41705 0.0
C466 C 0.6544 0.04794 0.30274 0.0
C467 C 0.61061 0.0419 0.28859 0.0
C468 C 0.6609 0.05365 0.33065 0.0
C469 C 0.62373 0.05349 0.34502 0.0
C470 C 0.58004 0.04823 0.33081 0.0
C471 C 0.57355 0.04247 0.30294 0.0
H472 H 0.52879 0.57689 0.73703 0.0
H473 H 0.67098 0.63734 0.7532 0.0
H474 H 0.53534 0.56719 0.68956 0.0
H475 H 0.67784 0.62634 0.7059 0.0
H476 H 0.66729 0.63786 0.61681 0.0
H477 H 0.65717 0.6523 0.66344 0.0
H478 H 0.5676 0.52157 0.65902 0.0
H479 H 0.57565 0.50836 0.612 0.0
C480 C 0.56148 0.58806 0.73047 0.0
C481 C 0.59935 0.60794 0.7489 0.0
C482 C 0.56529 0.58223 0.70326 0.0
C483 C 0.60716 0.59583 0.69387 0.0
C484 C 0.64492 0.61612 0.71233 0.0
C485 C 0.64103 0.62226 0.73951 0.0
C486 C 0.64487 0.61252 0.62566 0.0
C487 C 0.62232 0.57193 0.61063 0.0
C488 C 0.63953 0.62052 0.65252 0.0
C489 C 0.6117 0.58803 0.66506 0.0
C490 C 0.58889 0.5476 0.64996 0.0
C491 C 0.59402 0.53972 0.62307 0.0
H492 H 0.58489 0.11896 0.59211 0.0
H493 H 0.72483 0.1028 0.60717 0.0
H494 H 0.58157 0.12796 0.63991 0.0
H495 H 0.72138 0.11238 0.65542 0.0
H496 H 0.69863 0.18829 0.73781 0.0
H497 H 0.7077 0.17781 0.69032 0.0
H498 H 0.58694 0.07377 0.67727 0.0
H499 H 0.5779 0.08412 0.72445 0.0
C500 C 0.61506 0.11756 0.60563 0.0
C501 C 0.65515 0.11012 0.59587 0.0
C502 C 0.61302 0.12247 0.633 0.0
C503 C 0.65114 0.12065 0.65127 0.0
C504 C 0.69158 0.11403 0.64166 0.0
C505 C 0.69345 0.10836 0.61413 0.0
C506 C 0.67423 0.1631 0.72474 0.0
C507 C 0.6376 0.13699 0.73474 0.0
C508 C 0.67959 0.1569 0.69771 0.0
C509 C 0.64794 0.12508 0.68023 0.0
C510 C 0.61166 0.0987 0.69033 0.0
C511 C 0.60666 0.10442 0.71732 0.0
H512 H 0.65747 0.60933 0.92455 0.0
H513 H 0.51321 0.60847 0.91267 0.0
H514 H 0.65386 0.59887 0.97151 0.0
H515 H 0.50966 0.59731 0.9597 0.0
H516 H 0.53152 0.62319 0.05156 0.0
H517 H 0.53439 0.63651 0.00471 0.0
H518 H 0.62323 0.53836 -0.00192 0.0
H519 H 0.62024 0.52493 0.04481 0.0
C520 C 0.62498 0.60699 0.93192 0.0
C521 C 0.58561 0.60967 0.91477 0.0
C522 C 0.62289 0.6007 0.95884 0.0
C523 C 0.58144 0.59695 0.96929 0.0
C524 C 0.54219 0.60047 0.9523 0.0
C525 C 0.54424 0.60671 0.92532 0.0
C526 C 0.55133 0.60417 0.04002 0.0
C527 C 0.57577 0.5731 0.05193 0.0
C528 C 0.55299 0.61183 0.0132 0.0
C529 C 0.57919 0.58864 -0.00228 0.0
C530 C 0.60338 0.55738 0.0096 0.0
C531 C 0.60167 0.54968 0.03637 0.0
H532 H 1.09013 0.62665 0.23172 0.0
H533 H 0.18324 0.5324 0.24237 0.0
H534 H 1.09356 0.63991 0.28019 0.0
H535 H 0.18669 0.54588 0.2907 0.0
H536 H 0.21565 0.61971 0.37547 0.0
H537 H 0.21427 0.61133 0.32701 0.0
H538 H 1.06803 0.59035 0.31713 0.0
H539 H 1.06943 0.59892 0.3657 0.0
C540 C 0.11165 0.60914 0.24439 0.0
C541 C 0.13636 0.57842 0.23327 0.0
C542 C 0.11332 0.61649 0.27208 0.0
C543 C 0.14026 0.59379 0.28911 0.0
C544 C 0.16587 0.56403 0.278 0.0
C545 C 0.16374 0.55621 0.25035 0.0
C546 C 0.18326 0.61358 0.36291 0.0
C547 C 0.14263 0.60994 0.37425 0.0
C548 C 0.18247 0.60854 0.33525 0.0
C549 C 0.14106 0.60028 0.3184 0.0
C550 C 0.10042 0.5971 0.32971 0.0
C551 C 0.10118 0.60158 0.35743 0.0
loop_
_geom_bond_atom_site_label_1
_geom_bond_atom_site_label_2
_geom_bond_distance
_geom_bond_site_symmetry_2
_ccdc_geom_bond_type
Dy0 O3 2.307 1_455 S
Dy0 O5 2.395 . S
Dy0 O6 2.379 . S
Dy0 O8 2.339 . S
Dy0 O10 2.298 . S
Dy0 O14 2.275 . S
Dy0 C22 2.738 . S
Dy1 O4 2.298 1_455 S
Dy1 O7 2.275 . S
Dy1 O9 2.307 . S
Dy1 O11 2.395 1_455 S
Dy1 O12 2.379 1_455 S
Dy1 O15 2.339 . S
Dy1 C31 2.738 1_455 S
C2 O14 1.254 . S
C2 O15 1.257 . S
O3 Dy0 2.307 1_655 S
O3 C13 1.266 . S
O4 Dy1 2.298 1_655 S
O4 C13 1.236 . S
O5 Dy0 2.395 . S
O5 C22 1.255 . S
O6 Dy0 2.379 . S
O6 C22 1.249 . S
O7 Dy1 2.275 . S
O7 C23 1.254 . S
O8 Dy0 2.339 . S
O8 C23 1.257 . S
O9 Dy1 2.307 . S
O9 C24 1.266 . S
O10 Dy0 2.298 . S
O10 C24 1.236 . S
O11 Dy1 2.395 1_655 S
O11 C31 1.255 . S
O12 Dy1 2.379 1_655 S
O12 C31 1.249 . S
C13 O3 1.266 . S
C13 O4 1.236 . S
O14 Dy0 2.275 . S
O14 C2 1.254 . S
O15 Dy1 2.339 . S
O15 C2 1.257 . S
C16 C19 1.344 . S
C16 C20 1.328 . S
C16 C22 1.516 . S
C17 C18 1.304 . S
C17 C21 1.323 . S
C18 C17 1.304 . S
C18 C19 1.371 . S
C18 H32 0.930 . S
C19 C16 1.344 . S
C19 C18 1.371 . S
C19 H33 0.931 . S
C20 C16 1.328 . S
C20 C21 1.433 . S
C20 H34 0.931 . S
C21 C17 1.323 . S
C21 C20 1.433 . S
C21 H35 0.933 . S
C22 Dy0 2.738 . S
C22 O5 1.255 . S
C22 O6 1.249 . S
C22 C16 1.516 . S
C23 O7 1.254 . S
C23 O8 1.257 . S
C24 O9 1.266 . S
C24 O10 1.236 . S
C25 C28 1.344 . S
C25 C29 1.328 . S
C25 C31 1.516 . S
C26 C27 1.304 . S
C26 C30 1.323 . S
C27 C26 1.304 . S
C27 C28 1.371 . S
C27 H36 0.930 . S
C28 C25 1.344 . S
C28 C27 1.371 . S
C28 H37 0.931 . S
C29 C25 1.328 . S
C29 C30 1.433 . S
C29 H38 0.931 . S
C30 C26 1.323 . S
C30 C29 1.433 . S
C30 H39 0.933 . S
C31 Dy1 2.738 1_655 S
C31 O11 1.255 . S
C31 O12 1.249 . S
C31 C25 1.516 . S
H32 C18 0.930 . S
H33 C19 0.931 . S
H34 C20 0.931 . S
H35 C21 0.933 . S
H36 C27 0.930 . S
H37 C28 0.931 . S
H38 C29 0.931 . S
H39 C30 0.933 . S
Dy40 O43 2.307 . S
Dy40 O45 2.395 1_545 S
Dy40 O46 2.379 1_545 S
Dy40 O48 2.339 . S
Dy40 O50 2.298 1_545 S
Dy40 O54 2.275 . S
Dy40 C62 2.738 1_545 S
Dy41 O44 2.298 . S
Dy41 O47 2.275 . S
Dy41 O49 2.307 1_545 S
Dy41 O51 2.395 . S
Dy41 O52 2.379 . S
Dy41 O55 2.339 . S
Dy41 C71 2.738 . S
C42 O54 1.254 . S
C42 O55 1.257 . S
O43 Dy40 2.307 . S
O43 C53 1.266 . S
O44 Dy41 2.298 . S
O44 C53 1.236 . S
O45 Dy40 2.395 1_565 S
O45 C62 1.255 . S
O46 Dy40 2.379 1_565 S
O46 C62 1.249 . S
O47 Dy41 2.275 . S
O47 C63 1.254 . S
O48 Dy40 2.339 . S
O48 C63 1.257 . S
O49 Dy41 2.307 1_565 S
O49 C64 1.266 . S
O50 Dy40 2.298 1_565 S
O50 C64 1.236 . S
O51 Dy41 2.395 . S
O51 C71 1.255 . S
O52 Dy41 2.379 . S
O52 C71 1.249 . S
C53 O43 1.266 . S
C53 O44 1.236 . S
O54 Dy40 2.275 . S
O54 C42 1.254 . S
O55 Dy41 2.339 . S
O55 C42 1.257 . S
C56 C59 1.344 . S
C56 C60 1.328 . S
C56 C62 1.516 . S
C57 C58 1.304 . S
C57 C61 1.323 . S
C58 C57 1.304 . S
C58 C59 1.371 . S
C58 H72 0.930 . S
C59 C56 1.344 . S
C59 C58 1.371 . S
C59 H73 0.931 . S
C60 C56 1.328 . S
C60 C61 1.433 . S
C60 H74 0.931 . S
C61 C57 1.323 . S
C61 C60 1.433 . S
C61 H75 0.933 . S
C62 Dy40 2.738 1_565 S
C62 O45 1.255 . S
C62 O46 1.249 . S
C62 C56 1.516 . S
C63 O47 1.254 . S
C63 O48 1.257 . S
C64 O49 1.266 . S
C64 O50 1.236 . S
C65 C68 1.344 . S
C65 C69 1.328 . S
C65 C71 1.516 . S
C66 C67 1.304 . S
C66 C70 1.323 . S
C67 C66 1.304 . S
C67 C68 1.371 . S
C67 H76 0.930 . S
C68 C65 1.344 . S
C68 C67 1.371 . S
C68 H77 0.931 . S
C69 C65 1.328 . S
C69 C70 1.433 . S
C69 H78 0.931 . S
C70 C66 1.323 . S
C70 C69 1.433 . S
C70 H79 0.933 . S
C71 Dy41 2.738 . S
C71 O51 1.255 . S
C71 O52 1.249 . S
C71 C65 1.516 . S
H72 C58 0.930 . S
H73 C59 0.931 . S
H74 C60 0.931 . S
H75 C61 0.933 . S
H76 C67 0.930 . S
H77 C68 0.931 . S
H78 C69 0.931 . S
H79 C70 0.933 . S
Dy80 O83 2.307 . S
Dy80 O85 2.395 . S
Dy80 O86 2.379 . S
Dy80 O88 2.339 . S
Dy80 O90 2.298 . S
Dy80 O94 2.275 . S
Dy80 C102 2.738 . S
Dy81 O84 2.298 . S
Dy81 O87 2.275 . S
Dy81 O89 2.307 . S
Dy81 O91 2.395 . S
Dy81 O92 2.379 . S
Dy81 O95 2.339 . S
Dy81 C111 2.738 . S
C82 O94 1.254 . S
C82 O95 1.257 . S
O83 Dy80 2.307 . S
O83 C93 1.266 . S
O84 Dy81 2.298 . S
O84 C93 1.236 . S
O85 Dy80 2.395 . S
O85 C102 1.255 . S
O86 Dy80 2.379 . S
O86 C102 1.249 . S
O87 Dy81 2.275 . S
O87 C103 1.254 . S
O88 Dy80 2.339 . S
O88 C103 1.257 . S
O89 Dy81 2.307 . S
O89 C104 1.266 . S
O90 Dy80 2.298 . S
O90 C104 1.236 . S
O91 Dy81 2.395 . S
O91 C111 1.255 . S
O92 Dy81 2.379 . S
O92 C111 1.249 . S
C93 O83 1.266 . S
C93 O84 1.236 . S
O94 Dy80 2.275 . S
O94 C82 1.254 . S
O95 Dy81 2.339 . S
O95 C82 1.257 . S
C96 C99 1.344 . S
C96 C100 1.328 . S
C96 C102 1.516 . S
C97 C98 1.304 . S
C97 C101 1.323 . S
C98 C97 1.304 . S
C98 C99 1.371 . S
C98 H112 0.930 . S
C99 C96 1.344 . S
C99 C98 1.371 . S
C99 H113 0.931 . S
C100 C96 1.328 . S
C100 C101 1.433 . S
C100 H114 0.931 . S
C101 C97 1.323 . S
C101 C100 1.433 . S
C101 H115 0.933 . S
C102 Dy80 2.738 . S
C102 O85 1.255 . S
C102 O86 1.249 . S
C102 C96 1.516 . S
C103 O87 1.254 . S
C103 O88 1.257 . S
C104 O89 1.266 . S
C104 O90 1.236 . S
C105 C108 1.344 . S
C105 C109 1.328 . S
C105 C111 1.516 . S
C106 C107 1.304 . S
C106 C110 1.323 . S
C107 C106 1.304 . S
C107 C108 1.371 . S
C107 H116 0.930 . S
C108 C105 1.344 . S
C108 C107 1.371 . S
C108 H117 0.931 . S
C109 C105 1.328 . S
C109 C110 1.433 . S
C109 H118 0.931 . S
C110 C106 1.323 . S
C110 C109 1.433 . S
C110 H119 0.933 . S
C111 Dy81 2.738 . S
C111 O91 1.255 . S
C111 O92 1.249 . S
C111 C105 1.516 . S
H112 C98 0.930 . S
H113 C99 0.931 . S
H114 C100 0.931 . S
H115 C101 0.933 . S
H116 C107 0.930 . S
H117 C108 0.931 . S
H118 C109 0.931 . S
H119 C110 0.933 . S
H120 C125 0.930 . S
H121 C128 0.930 . S
H122 C130 0.930 . S
H123 C124 1.016 . S
C124 H123 1.016 . S
C124 N131 1.286 . S
C125 H120 0.930 . S
C125 C126 1.397 . S
C125 C127 1.361 . S
C126 C125 1.397 . S
C126 C130 1.390 . S
C127 C125 1.361 . S
C127 C128 1.393 . S
C127 N131 1.413 . S
C128 H121 0.930 . S
C128 C127 1.393 . S
C128 C129 1.399 . S
C129 C128 1.399 . S
C129 C130 1.381 . S
C130 H122 0.930 . S
C130 C126 1.390 . S
C130 C129 1.381 . S
N131 C124 1.286 . S
N131 C127 1.413 . S
H132 C137 0.930 . S
H133 C140 0.930 . S
H134 C142 0.930 . S
H135 C136 1.016 . S
C136 H135 1.016 . S
C136 N143 1.286 . S
C137 H132 0.930 . S
C137 C138 1.397 . S
C137 C139 1.361 . S
C138 C137 1.397 . S
C138 C142 1.390 . S
C139 C137 1.361 . S
C139 C140 1.393 . S
C139 N143 1.413 . S
C140 H133 0.930 . S
C140 C139 1.393 . S
C140 C141 1.399 . S
C141 C140 1.399 . S
C141 C142 1.381 . S
C142 H134 0.930 . S
C142 C138 1.390 . S
C142 C141 1.381 . S
N143 C136 1.286 . S
N143 C139 1.413 . S
H144 C149 0.930 1_655 S
H145 C152 0.930 . S
H146 C154 0.930 . S
H147 C148 1.016 . S
C148 H147 1.016 . S
C148 N155 1.286 . S
C149 H144 0.930 1_455 S
C149 C150 1.397 1_455 S
C149 C151 1.361 . S
C150 C149 1.397 1_655 S
C150 C154 1.390 . S
C151 C149 1.361 . S
C151 C152 1.393 . S
C151 N155 1.413 . S
C152 H145 0.930 . S
C152 C151 1.393 . S
C152 C153 1.399 . S
C153 C152 1.399 . S
C153 C154 1.381 1_455 S
C154 H146 0.930 . S
C154 C150 1.390 . S
C154 C153 1.381 1_655 S
N155 C148 1.286 . S
N155 C151 1.413 . S
H156 C161 0.930 . S
H157 C164 0.930 . S
H158 C166 0.930 . S
H159 C160 1.016 . S
C160 H159 1.016 . S
C160 N167 1.286 . S
C161 H156 0.930 . S
C161 C162 1.397 . S
C161 C163 1.361 . S
C162 C161 1.397 . S
C162 C166 1.390 . S
C163 C161 1.361 . S
C163 C164 1.393 1_455 S
C163 N167 1.413 1_455 S
C164 H157 0.930 . S
C164 C163 1.393 1_655 S
C164 C165 1.399 1_655 S
C165 C164 1.399 1_455 S
C165 C166 1.381 . S
C166 H158 0.930 . S
C166 C162 1.390 . S
C166 C165 1.381 . S
N167 C160 1.286 . S
N167 C163 1.413 1_655 S
H168 C173 0.930 . S
H169 C176 0.930 . S
H170 C178 0.930 . S
H171 C172 1.016 . S
C172 H171 1.016 . S
C172 N179 1.286 . S
C173 H168 0.930 . S
C173 C174 1.397 . S
C173 C175 1.361 1_545 S
C174 C173 1.397 . S
C174 C178 1.390 . S
C175 C173 1.361 1_565 S
C175 C176 1.393 . S
C175 N179 1.413 . S
C176 H169 0.930 . S
C176 C175 1.393 . S
C176 C177 1.399 1_565 S
C177 C176 1.399 1_545 S
C177 C178 1.381 . S
C178 H170 0.930 . S
C178 C174 1.390 . S
C178 C177 1.381 . S
N179 C172 1.286 . S
N179 C175 1.413 . S
H180 C185 0.930 . S
H181 C188 0.930 . S
H182 C190 0.930 . S
H183 C184 1.016 . S
C184 H183 1.016 . S
C184 N191 1.286 . S
C185 H180 0.930 . S
C185 C186 1.397 . S
C185 C187 1.361 . S
C186 C185 1.397 . S
C186 C190 1.390 . S
C187 C185 1.361 . S
C187 C188 1.393 . S
C187 N191 1.413 . S
C188 H181 0.930 . S
C188 C187 1.393 . S
C188 C189 1.399 . S
C189 C188 1.399 . S
C189 C190 1.381 . S
C190 H182 0.930 . S
C190 C186 1.390 . S
C190 C189 1.381 . S
N191 C184 1.286 . S
N191 C187 1.413 . S
H192 C200 0.950 . S
H193 C205 0.950 . S
H194 C202 0.950 . S
H195 C204 0.950 . S
H196 C206 0.950 . S
H197 C208 0.950 . S
H198 C210 0.950 . S
H199 C211 0.950 . S
C200 H192 0.950 . S
C200 C201 1.386 . S
C200 C202 1.391 . S
C201 C200 1.386 . S
C201 C205 1.393 . S
C202 H194 0.950 . S
C202 C200 1.391 . S
C202 C203 1.400 . S
C203 C202 1.400 . S
C203 C204 1.398 . S
C203 C209 1.491 . S
C204 H195 0.950 . S
C204 C203 1.398 . S
C204 C205 1.391 . S
C205 H193 0.950 . S
C205 C201 1.393 . S
C205 C204 1.391 . S
C206 H196 0.950 . S
C206 C207 1.386 . S
C206 C208 1.391 . S
C207 C206 1.386 . S
C207 C211 1.393 . S
C208 H197 0.950 . S
C208 C206 1.391 . S
C208 C209 1.400 . S
C209 C203 1.491 . S
C209 C208 1.400 . S
C209 C210 1.398 . S
C210 H198 0.950 . S
C210 C209 1.398 . S
C210 C211 1.391 . S
C211 H199 0.950 . S
C211 C207 1.393 . S
C211 C210 1.391 . S
H212 C220 0.950 . S
H213 C225 0.950 . S
H214 C222 0.950 . S
H215 C224 0.950 . S
H216 C226 0.950 . S
H217 C228 0.950 . S
H218 C230 0.950 . S
H219 C231 0.950 . S
C220 H212 0.950 . S
C220 C221 1.386 . S
C220 C222 1.391 . S
C221 C220 1.386 . S
C221 C225 1.393 . S
C222 H214 0.950 . S
C222 C220 1.391 . S
C222 C223 1.400 . S
C223 C222 1.400 . S
C223 C224 1.398 . S
C223 C229 1.491 . S
C224 H215 0.950 . S
C224 C223 1.398 . S
C224 C225 1.391 . S
C225 H213 0.950 . S
C225 C221 1.393 . S
C225 C224 1.391 . S
C226 H216 0.950 . S
C226 C227 1.386 . S
C226 C228 1.391 . S
C227 C226 1.386 . S
C227 C231 1.393 . S
C228 H217 0.950 . S
C228 C226 1.391 . S
C228 C229 1.400 . S
C229 C223 1.491 . S
C229 C228 1.400 . S
C229 C230 1.398 . S
C230 H218 0.950 . S
C230 C229 1.398 . S
C230 C231 1.391 . S
C231 H219 0.950 . S
C231 C227 1.393 . S
C231 C230 1.391 . S
H232 C240 0.950 . S
H233 C245 0.950 . S
H234 C242 0.950 . S
H235 C244 0.950 . S
H236 C246 0.950 . S
H237 C248 0.950 . S
H238 C250 0.950 . S
H239 C251 0.950 . S
C240 H232 0.950 . S
C240 C241 1.386 . S
C240 C242 1.391 . S
C241 C240 1.386 . S
C241 C245 1.393 . S
C242 H234 0.950 . S
C242 C240 1.391 . S
C242 C243 1.400 . S
C243 C242 1.400 . S
C243 C244 1.398 . S
C243 C249 1.491 . S
C244 H235 0.950 . S
C244 C243 1.398 . S
C244 C245 1.391 . S
C245 H233 0.950 . S
C245 C241 1.393 . S
C245 C244 1.391 . S
C246 H236 0.950 . S
C246 C247 1.386 . S
C246 C248 1.391 . S
C247 C246 1.386 . S
C247 C251 1.393 . S
C248 H237 0.950 . S
C248 C246 1.391 . S
C248 C249 1.400 . S
C249 C243 1.491 . S
C249 C248 1.400 . S
C249 C250 1.398 . S
C250 H238 0.950 . S
C250 C249 1.398 . S
C250 C251 1.391 . S
C251 H239 0.950 . S
C251 C247 1.393 . S
C251 C250 1.391 . S
H252 C260 0.950 . S
H253 C265 0.950 . S
H254 C262 0.950 . S
H255 C264 0.950 . S
H256 C266 0.950 . S
H257 C268 0.950 . S
H258 C270 0.950 . S
H259 C271 0.950 . S
C260 H252 0.950 . S
C260 C261 1.386 . S
C260 C262 1.391 . S
C261 C260 1.386 . S
C261 C265 1.393 . S
C262 H254 0.950 . S
C262 C260 1.391 . S
C262 C263 1.400 . S
C263 C262 1.400 . S
C263 C264 1.398 . S
C263 C269 1.491 . S
C264 H255 0.950 . S
C264 C263 1.398 . S
C264 C265 1.391 . S
C265 H253 0.950 . S
C265 C261 1.393 . S
C265 C264 1.391 . S
C266 H256 0.950 . S
C266 C267 1.386 . S
C266 C268 1.391 . S
C267 C266 1.386 . S
C267 C271 1.393 . S
C268 H257 0.950 . S
C268 C266 1.391 . S
C268 C269 1.400 . S
C269 C263 1.491 . S
C269 C268 1.400 . S
C269 C270 1.398 . S
C270 H258 0.950 . S
C270 C269 1.398 . S
C270 C271 1.391 . S
C271 H259 0.950 . S
C271 C267 1.393 . S
C271 C270 1.391 . S
H272 C280 0.950 . S
H273 C285 0.950 . S
H274 C282 0.950 . S
H275 C284 0.950 . S
H276 C286 0.950 . S
H277 C288 0.950 . S
H278 C290 0.950 . S
H279 C291 0.950 . S
C280 H272 0.950 . S
C280 C281 1.386 . S
C280 C282 1.391 . S
C281 C280 1.386 . S
C281 C285 1.393 . S
C282 H274 0.950 . S
C282 C280 1.391 . S
C282 C283 1.400 . S
C283 C282 1.400 . S
C283 C284 1.398 . S
C283 C289 1.491 . S
C284 H275 0.950 . S
C284 C283 1.398 . S
C284 C285 1.391 . S
C285 H273 0.950 . S
C285 C281 1.393 . S
C285 C284 1.391 . S
C286 H276 0.950 . S
C286 C287 1.386 . S
C286 C288 1.391 . S
C287 C286 1.386 . S
C287 C291 1.393 . S
C288 H277 0.950 . S
C288 C286 1.391 . S
C288 C289 1.400 . S
C289 C283 1.491 . S
C289 C288 1.400 . S
C289 C290 1.398 . S
C290 H278 0.950 . S
C290 C289 1.398 . S
C290 C291 1.391 . S
C291 H279 0.950 . S
C291 C287 1.393 . S
C291 C290 1.391 . S
H292 C300 0.950 . S
H293 C305 0.950 . S
H294 C302 0.950 . S
H295 C304 0.950 . S
H296 C306 0.950 . S
H297 C308 0.950 . S
H298 C310 0.950 . S
H299 C311 0.950 . S
C300 H292 0.950 . S
C300 C301 1.386 . S
C300 C302 1.391 . S
C301 C300 1.386 . S
C301 C305 1.393 . S
C302 H294 0.950 . S
C302 C300 1.391 . S
C302 C303 1.400 . S
C303 C302 1.400 . S
C303 C304 1.398 . S
C303 C309 1.491 . S
C304 H295 0.950 . S
C304 C303 1.398 . S
C304 C305 1.391 . S
C305 H293 0.950 . S
C305 C301 1.393 . S
C305 C304 1.391 . S
C306 H296 0.950 . S
C306 C307 1.386 . S
C306 C308 1.391 . S
C307 C306 1.386 . S
C307 C311 1.393 . S
C308 H297 0.950 . S
C308 C306 1.391 . S
C308 C309 1.400 . S
C309 C303 1.491 . S
C309 C308 1.400 . S
C309 C310 1.398 . S
C310 H298 0.950 . S
C310 C309 1.398 . S
C310 C311 1.391 . S
C311 H299 0.950 . S
C311 C307 1.393 . S
C311 C310 1.391 . S
H312 C320 0.950 . S
H313 C325 0.950 . S
H314 C322 0.950 . S
H315 C324 0.950 . S
H316 C326 0.950 . S
H317 C328 0.950 . S
H318 C330 0.950 . S
H319 C331 0.950 . S
C320 H312 0.950 . S
C320 C321 1.386 . S
C320 C322 1.391 . S
C321 C320 1.386 . S
C321 C325 1.393 . S
C322 H314 0.950 . S
C322 C320 1.391 . S
C322 C323 1.400 . S
C323 C322 1.400 . S
C323 C324 1.398 . S
C323 C329 1.491 . S
C324 H315 0.950 . S
C324 C323 1.398 . S
C324 C325 1.391 . S
C325 H313 0.950 . S
C325 C321 1.393 . S
C325 C324 1.391 . S
C326 H316 0.950 . S
C326 C327 1.386 . S
C326 C328 1.391 . S
C327 C326 1.386 . S
C327 C331 1.393 . S
C328 H317 0.950 . S
C328 C326 1.391 . S
C328 C329 1.400 . S
C329 C323 1.491 . S
C329 C328 1.400 . S
C329 C330 1.398 . S
C330 H318 0.950 . S
C330 C329 1.398 . S
C330 C331 1.391 . S
C331 H319 0.950 . S
C331 C327 1.393 . S
C331 C330 1.391 . S
H332 C340 0.950 . S
H333 C345 0.950 . S
H334 C342 0.950 . S
H335 C344 0.950 . S
H336 C346 0.950 . S
H337 C348 0.950 . S
H338 C350 0.950 . S
H339 C351 0.950 . S
C340 H332 0.950 . S
C340 C341 1.386 . S
C340 C342 1.391 . S
C341 C340 1.386 . S
C341 C345 1.393 . S
C342 H334 0.950 . S
C342 C340 1.391 . S
C342 C343 1.400 . S
C343 C342 1.400 . S
C343 C344 1.398 . S
C343 C349 1.491 . S
C344 H335 0.950 . S
C344 C343 1.398 . S
C344 C345 1.391 . S
C345 H333 0.950 . S
C345 C341 1.393 . S
C345 C344 1.391 . S
C346 H336 0.950 . S
C346 C347 1.386 . S
C346 C348 1.391 . S
C347 C346 1.386 . S
C347 C351 1.393 . S
C348 H337 0.950 . S
C348 C346 1.391 . S
C348 C349 1.400 . S
C349 C343 1.491 . S
C349 C348 1.400 . S
C349 C350 1.398 . S
C350 H338 0.950 . S
C350 C349 1.398 . S
C350 C351 1.391 . S
C351 H339 0.950 . S
C351 C347 1.393 . S
C351 C350 1.391 . S
H352 C360 0.950 . S
H353 C365 0.950 . S
H354 C362 0.950 . S
H355 C364 0.950 . S
H356 C366 0.950 . S
H357 C368 0.950 . S
H358 C370 0.950 . S
H359 C371 0.950 . S
C360 H352 0.950 . S
C360 C361 1.386 . S
C360 C362 1.391 . S
C361 C360 1.386 . S
C361 C365 1.393 . S
C362 H354 0.950 . S
C362 C360 1.391 . S
C362 C363 1.400 . S
C363 C362 1.400 . S
C363 C364 1.398 . S
C363 C369 1.491 . S
C364 H355 0.950 . S
C364 C363 1.398 . S
C364 C365 1.391 . S
C365 H353 0.950 . S
C365 C361 1.393 . S
C365 C364 1.391 . S
C366 H356 0.950 . S
C366 C367 1.386 . S
C366 C368 1.391 1_545 S
C367 C366 1.386 . S
C367 C371 1.393 1_545 S
C368 H357 0.950 . S
C368 C366 1.391 1_565 S
C368 C369 1.400 . S
C369 C363 1.491 . S
C369 C368 1.400 . S
C369 C370 1.398 . S
C370 H358 0.950 . S
C370 C369 1.398 . S
C370 C371 1.391 . S
C371 H359 0.950 . S
C371 C367 1.393 1_565 S
C371 C370 1.391 . S
H372 C380 0.950 . S
H373 C385 0.950 . S
H374 C382 0.950 . S
H375 C384 0.950 . S
H376 C386 0.950 . S
H377 C388 0.950 . S
H378 C390 0.950 . S
H379 C391 0.950 . S
C380 H372 0.950 . S
C380 C381 1.386 . S
C380 C382 1.391 . S
C381 C380 1.386 . S
C381 C385 1.393 . S
C382 H374 0.950 . S
C382 C380 1.391 . S
C382 C383 1.400 . S
C383 C382 1.400 . S
C383 C384 1.398 . S
C383 C389 1.491 . S
C384 H375 0.950 . S
C384 C383 1.398 . S
C384 C385 1.391 . S
C385 H373 0.950 . S
C385 C381 1.393 . S
C385 C384 1.391 . S
C386 H376 0.950 . S
C386 C387 1.386 . S
C386 C388 1.391 . S
C387 C386 1.386 . S
C387 C391 1.393 . S
C388 H377 0.950 . S
C388 C386 1.391 . S
C388 C389 1.400 . S
C389 C383 1.491 . S
C389 C388 1.400 . S
C389 C390 1.398 . S
C390 H378 0.950 . S
C390 C389 1.398 . S
C390 C391 1.391 . S
C391 H379 0.950 . S
C391 C387 1.393 . S
C391 C390 1.391 . S
H392 C400 0.950 . S
H393 C405 0.950 . S
H394 C402 0.950 . S
H395 C404 0.950 . S
H396 C406 0.950 . S
H397 C408 0.950 . S
H398 C410 0.950 . S
H399 C411 0.950 . S
C400 H392 0.950 . S
C400 C401 1.386 . S
C400 C402 1.391 . S
C401 C400 1.386 . S
C401 C405 1.393 . S
C402 H394 0.950 . S
C402 C400 1.391 . S
C402 C403 1.400 . S
C403 C402 1.400 . S
C403 C404 1.398 . S
C403 C409 1.491 . S
C404 H395 0.950 . S
C404 C403 1.398 . S
C404 C405 1.391 . S
C405 H393 0.950 . S
C405 C401 1.393 . S
C405 C404 1.391 . S
C406 H396 0.950 . S
C406 C407 1.386 . S
C406 C408 1.391 . S
C407 C406 1.386 . S
C407 C411 1.393 . S
C408 H397 0.950 . S
C408 C406 1.391 . S
C408 C409 1.400 . S
C409 C403 1.491 . S
C409 C408 1.400 . S
C409 C410 1.398 . S
C410 H398 0.950 . S
C410 C409 1.398 . S
C410 C411 1.391 . S
C411 H399 0.950 . S
C411 C407 1.393 . S
C411 C410 1.391 . S
H412 C420 0.950 . S
H413 C425 0.950 . S
H414 C422 0.950 . S
H415 C424 0.950 . S
H416 C426 0.950 . S
H417 C428 0.950 . S
H418 C430 0.950 . S
H419 C431 0.950 . S
C420 H412 0.950 . S
C420 C421 1.386 . S
C420 C422 1.391 . S
C421 C420 1.386 . S
C421 C425 1.393 . S
C422 H414 0.950 . S
C422 C420 1.391 . S
C422 C423 1.400 . S
C423 C422 1.400 . S
C423 C424 1.398 . S
C423 C429 1.491 . S
C424 H415 0.950 . S
C424 C423 1.398 . S
C424 C425 1.391 . S
C425 H413 0.950 . S
C425 C421 1.393 . S
C425 C424 1.391 . S
C426 H416 0.950 . S
C426 C427 1.386 . S
C426 C428 1.391 . S
C427 C426 1.386 . S
C427 C431 1.393 . S
C428 H417 0.950 . S
C428 C426 1.391 . S
C428 C429 1.400 . S
C429 C423 1.491 . S
C429 C428 1.400 . S
C429 C430 1.398 . S
C430 H418 0.950 . S
C430 C429 1.398 . S
C430 C431 1.391 . S
C431 H419 0.950 . S
C431 C427 1.393 . S
C431 C430 1.391 . S
H432 C440 0.950 . S
H433 C445 0.947 1_655 S
H434 C442 0.950 . S
H435 C444 0.950 1_655 S
H436 C446 0.950 1_655 S
H437 C448 0.974 1_655 S
H438 C450 0.950 1_554 S
H439 C451 0.950 . S
C440 H432 0.950 . S
C440 C441 1.386 . S
C440 C442 1.391 . S
C441 C440 1.386 . S
C441 C445 1.393 . S
C442 H434 0.950 . S
C442 C440 1.391 . S
C442 C443 1.400 . S
C443 C442 1.400 . S
C443 C444 1.398 . S
C443 C449 1.491 . S
C444 H435 0.950 1_455 S
C444 C443 1.398 . S
C444 C445 1.391 . S
C445 H433 0.947 1_455 S
C445 C441 1.393 . S
C445 C444 1.391 . S
C446 H436 0.950 1_455 S
C446 C447 1.386 . S
C446 C448 1.391 . S
C447 C446 1.386 . S
C447 C451 1.393 . S
C448 H437 0.974 1_455 S
C448 C446 1.391 . S
C448 C449 1.400 1_556 S
C449 C443 1.491 . S
C449 C448 1.400 1_554 S
C449 C450 1.398 1_554 S
C450 H438 0.950 1_556 S
C450 C449 1.398 1_556 S
C450 C451 1.391 . S
C451 H439 0.950 . S
C451 C447 1.393 . S
C451 C450 1.391 . S
H452 C460 0.950 . S
H453 C465 0.950 . S
H454 C462 0.950 . S
H455 C464 0.950 . S
H456 C466 0.950 . S
H457 C468 0.950 . S
H458 C470 0.950 . S
H459 C471 0.950 . S
C460 H452 0.950 . S
C460 C461 1.386 . S
C460 C462 1.391 . S
C461 C460 1.386 . S
C461 C465 1.393 . S
C462 H454 0.950 . S
C462 C460 1.391 . S
C462 C463 1.400 . S
C463 C462 1.400 . S
C463 C464 1.398 . S
C463 C469 1.491 . S
C464 H455 0.950 . S
C464 C463 1.398 . S
C464 C465 1.391 . S
C465 H453 0.950 . S
C465 C461 1.393 . S
C465 C464 1.391 . S
C466 H456 0.950 . S
C466 C467 1.386 . S
C466 C468 1.391 . S
C467 C466 1.386 . S
C467 C471 1.393 . S
C468 H457 0.950 . S
C468 C466 1.391 . S
C468 C469 1.400 . S
C469 C463 1.491 . S
C469 C468 1.400 . S
C469 C470 1.398 . S
C470 H458 0.950 . S
C470 C469 1.398 . S
C470 C471 1.391 . S
C471 H459 0.950 . S
C471 C467 1.393 . S
C471 C470 1.391 . S
H472 C480 0.950 . S
H473 C485 0.950 . S
H474 C482 0.950 . S
H475 C484 0.950 . S
H476 C486 0.950 . S
H477 C488 0.950 . S
H478 C490 0.950 . S
H479 C491 0.950 . S
C480 H472 0.950 . S
C480 C481 1.386 . S
C480 C482 1.391 . S
C481 C480 1.386 . S
C481 C485 1.393 . S
C482 H474 0.950 . S
C482 C480 1.391 . S
C482 C483 1.400 . S
C483 C482 1.400 . S
C483 C484 1.398 . S
C483 C489 1.491 . S
C484 H475 0.950 . S
C484 C483 1.398 . S
C484 C485 1.391 . S
C485 H473 0.950 . S
C485 C481 1.393 . S
C485 C484 1.391 . S
C486 H476 0.950 . S
C486 C487 1.386 . S
C486 C488 1.391 . S
C487 C486 1.386 . S
C487 C491 1.393 . S
C488 H477 0.950 . S
C488 C486 1.391 . S
C488 C489 1.400 . S
C489 C483 1.491 . S
C489 C488 1.400 . S
C489 C490 1.398 . S
C490 H478 0.950 . S
C490 C489 1.398 . S
C490 C491 1.391 . S
C491 H479 0.950 . S
C491 C487 1.393 . S
C491 C490 1.391 . S
H492 C500 0.950 1_565 S
H493 C505 0.950 . S
H494 C502 0.950 1_565 S
H495 C504 0.950 . S
H496 C506 0.950 . S
H497 C508 0.950 . S
H498 C510 0.950 1_565 S
H499 C511 0.958 . S
C500 H492 0.950 1_545 S
C500 C501 1.386 . S
C500 C502 1.391 . S
C501 C500 1.386 . S
C501 C505 1.393 . S
C502 H494 0.950 1_545 S
C502 C500 1.391 . S
C502 C503 1.400 . S
C503 C502 1.400 . S
C503 C504 1.398 . S
C503 C509 1.491 . S
C504 H495 0.950 . S
C504 C503 1.398 . S
C504 C505 1.391 . S
C505 H493 0.950 . S
C505 C501 1.393 . S
C505 C504 1.391 . S
C506 H496 0.950 . S
C506 C507 1.386 . S
C506 C508 1.391 . S
C507 C506 1.386 . S
C507 C511 1.388 1_545 S
C508 H497 0.950 . S
C508 C506 1.391 . S
C508 C509 1.400 . S
C509 C503 1.491 . S
C509 C508 1.400 . S
C509 C510 1.398 . S
C510 H498 0.950 1_545 S
C510 C509 1.398 . S
C510 C511 1.388 1_545 S
C511 H499 0.958 . S
C511 C507 1.388 1_565 S
C511 C510 1.388 1_565 S
H512 C520 0.950 . S
H513 C525 0.950 . S
H514 C522 0.950 . S
H515 C524 0.950 . S
H516 C526 0.950 . S
H517 C528 0.939 1_556 S
H518 C530 0.950 . S
H519 C531 0.950 . S
C520 H512 0.950 . S
C520 C521 1.386 . S
C520 C522 1.391 . S
C521 C520 1.386 . S
C521 C525 1.393 . S
C522 H514 0.950 . S
C522 C520 1.391 . S
C522 C523 1.400 . S
C523 C522 1.400 . S
C523 C524 1.398 . S
C523 C529 1.462 1_556 S
C524 H515 0.950 . S
C524 C523 1.398 . S
C524 C525 1.391 . S
C525 H513 0.950 . S
C525 C521 1.393 . S
C525 C524 1.391 . S
C526 H516 0.950 . S
C526 C527 1.386 . S
C526 C528 1.391 . S
C527 C526 1.386 . S
C527 C531 1.393 . S
C528 H517 0.939 1_554 S
C528 C526 1.391 . S
C528 C529 1.414 . S
C529 C523 1.462 1_554 S
C529 C528 1.414 . S
C529 C530 1.415 . S
C530 H518 0.950 . S
C530 C529 1.415 . S
C530 C531 1.391 . S
C531 H519 0.950 . S
C531 C527 1.393 . S
C531 C530 1.391 . S
H532 C540 0.950 1_655 S
H533 C545 0.950 . S
H534 C542 0.947 . S
H535 C544 0.950 . S
H536 C546 0.950 . S
H537 C548 0.950 . S
H538 C550 0.950 . S
H539 C551 0.950 . S
C540 H532 0.950 1_455 S
C540 C541 1.386 . S
C540 C542 1.392 1_455 S
C541 C540 1.386 . S
C541 C545 1.393 . S
C542 H534 0.947 . S
C542 C540 1.392 1_655 S
C542 C543 1.402 1_655 S
C543 C542 1.402 1_455 S
C543 C544 1.398 . S
C543 C549 1.491 . S
C544 H535 0.950 . S
C544 C543 1.398 . S
C544 C545 1.391 . S
C545 H533 0.950 . S
C545 C541 1.393 . S
C545 C544 1.391 . S
C546 H536 0.950 . S
C546 C547 1.386 . S
C546 C548 1.391 . S
C547 C546 1.386 . S
C547 C551 1.393 1_455 S
C548 H537 0.950 . S
C548 C546 1.391 . S
C548 C549 1.400 . S
C549 C543 1.491 . S
C549 C548 1.400 . S
C549 C550 1.398 1_455 S
C550 H538 0.950 . S
C550 C549 1.398 1_655 S
C550 C551 1.391 . S
C551 H539 0.950 . S
C551 C547 1.393 1_655 S
C551 C550 1.391 . S
C201 C24 3.239 . S
C207 C186 3.215 . S
C221 C66 1.179 . S
C227 C160 1.210 . S
C241 C93 1.847 . S
C247 C172 1.792 . S
C261 C13 2.846 . S
C267 C184 2.723 . S
C287 C162 1.099 . S
C281 C57 1.090 . S
C307 C174 1.804 . S
C301 C104 1.845 . S
C321 C64 1.989 . S
C327 C136 1.915 . S
C341 C97 0.725 . S
C347 C150 0.741 . S
C361 C17 1.172 . S
C367 C126 1.186 . S
C387 C138 1.686 . S
C381 C53 1.723 . S
C407 C148 0.299 . S
C401 C106 0.296 . S
C421 C26 1.227 . S
C427 C124 1.217 . S
C447 C153 1.214 . S
C441 C2 1.186 . S
C461 C63 1.489 . S
C467 C129 1.494 . S
C481 C82 1.445 . S
C487 C141 1.478 . S
C507 C177 1.455 . S
C501 C42 1.430 . S
C527 C189 1.810 . S
C521 C103 1.769 . S
C541 C23 1.527 . S
C547 C165 1.521 . S
