# Generated by pormake.
# Topology ptr, (4,4)-cn, num edge types: 1
# Building blocks:
#     Node 0, Type 0, BuildingBlock: NAHDIM_clean_sbu_0, # of connection points: 4
#     Node 1, Type 0, BuildingBlock: NAHDIM_clean_sbu_0, # of connection points: 4
#     Node 2, Type 0, BuildingBlock: NAHDIM_clean_sbu_0, # of connection points: 4
#     Node 3, Type 0, BuildingBlock: NAHDIM_clean_sbu_0, # of connection points: 4
#     Node 4, Type 0, BuildingBlock: NAHDIM_clean_sbu_0, # of connection points: 4
#     Node 5, Type 0, BuildingBlock: NAHDIM_clean_sbu_0, # of connection points: 4
#     Node 6, Type 0, BuildingBlock: NAHDIM_clean_sbu_0, # of connection points: 4
#     Node 7, Type 0, BuildingBlock: NAHDIM_clean_sbu_0, # of connection points: 4
#     Node 8, Type 0, BuildingBlock: NAHDIM_clean_sbu_0, # of connection points: 4
#     Node 9, Type 0, BuildingBlock: NAHDIM_clean_sbu_0, # of connection points: 4
#     Node 10, Type 0, BuildingBlock: NAHDIM_clean_sbu_0, # of connection points: 4
#     Node 11, Type 0, BuildingBlock: NAHDIM_clean_sbu_0, # of connection points: 4
#     Node 12, Type 0, BuildingBlock: NAHDIM_clean_sbu_0, # of connection points: 4
#     Node 13, Type 0, BuildingBlock: NAHDIM_clean_sbu_0, # of connection points: 4
#     Node 14, Type 0, BuildingBlock: NAHDIM_clean_sbu_0, # of connection points: 4
#     Node 15, Type 0, BuildingBlock: NAHDIM_clean_sbu_0, # of connection points: 4
#     Node 16, Type 0, BuildingBlock: NAHDIM_clean_sbu_0, # of connection points: 4
#     Node 17, Type 0, BuildingBlock: NAHDIM_clean_sbu_0, # of connection points: 4
#     Node 18, Type 1, BuildingBlock: AZAVOO_clean_linker_0, # of connection points: 4
#     Node 19, Type 1, BuildingBlock: AZAVOO_clean_linker_0, # of connection points: 4
#     Node 20, Type 1, BuildingBlock: AZAVOO_clean_linker_0, # of connection points: 4
#     Node 21, Type 1, BuildingBlock: AZAVOO_clean_linker_0, # of connection points: 4
#     Node 22, Type 1, BuildingBlock: AZAVOO_clean_linker_0, # of connection points: 4
#     Node 23, Type 1, BuildingBlock: AZAVOO_clean_linker_0, # of connection points: 4
#     Node 24, Type 1, BuildingBlock: AZAVOO_clean_linker_0, # of connection points: 4
#     Node 25, Type 1, BuildingBlock: AZAVOO_clean_linker_0, # of connection points: 4
#     Node 26, Type 1, BuildingBlock: AZAVOO_clean_linker_0, # of connection points: 4
#     Node 27, Type 1, BuildingBlock: AZAVOO_clean_linker_0, # of connection points: 4
#     Node 28, Type 1, BuildingBlock: AZAVOO_clean_linker_0, # of connection points: 4
#     Node 29, Type 1, BuildingBlock: AZAVOO_clean_linker_0, # of connection points: 4
#     Node 30, Type 1, BuildingBlock: AZAVOO_clean_linker_0, # of connection points: 4
#     Node 31, Type 1, BuildingBlock: AZAVOO_clean_linker_0, # of connection points: 4
#     Node 32, Type 1, BuildingBlock: AZAVOO_clean_linker_0, # of connection points: 4
#     Node 33, Type 1, BuildingBlock: AZAVOO_clean_linker_0, # of connection points: 4
#     Node 34, Type 1, BuildingBlock: AZAVOO_clean_linker_0, # of connection points: 4
#     Node 35, Type 1, BuildingBlock: AZAVOO_clean_linker_0, # of connection points: 4
#     Edge 36, Type (0, 1), BuildingBlock: XUDNAN_clean_linker_2, # of connection points: 2
#     Edge 37, Type (0, 1), BuildingBlock: XUDNAN_clean_linker_2, # of connection points: 2
#     Edge 38, Type (0, 1), BuildingBlock: XUDNAN_clean_linker_2, # of connection points: 2
#     Edge 39, Type (0, 1), BuildingBlock: XUDNAN_clean_linker_2, # of connection points: 2
#     Edge 40, Type (0, 1), BuildingBlock: XUDNAN_clean_linker_2, # of connection points: 2
#     Edge 41, Type (0, 1), BuildingBlock: XUDNAN_clean_linker_2, # of connection points: 2
#     Edge 42, Type (0, 1), BuildingBlock: XUDNAN_clean_linker_2, # of connection points: 2
#     Edge 43, Type (0, 1), BuildingBlock: XUDNAN_clean_linker_2, # of connection points: 2
#     Edge 44, Type (0, 1), BuildingBlock: XUDNAN_clean_linker_2, # of connection points: 2
#     Edge 45, Type (0, 1), BuildingBlock: XUDNAN_clean_linker_2, # of connection points: 2
#     Edge 46, Type (0, 1), BuildingBlock: XUDNAN_clean_linker_2, # of connection points: 2
#     Edge 47, Type (0, 1), BuildingBlock: XUDNAN_clean_linker_2, # of connection points: 2
#     Edge 48, Type (0, 1), BuildingBlock: XUDNAN_clean_linker_2, # of connection points: 2
#     Edge 49, Type (0, 1), BuildingBlock: XUDNAN_clean_linker_2, # of connection points: 2
#     Edge 50, Type (0, 1), BuildingBlock: XUDNAN_clean_linker_2, # of connection points: 2
#     Edge 51, Type (0, 1), BuildingBlock: XUDNAN_clean_linker_2, # of connection points: 2
#     Edge 52, Type (0, 1), BuildingBlock: XUDNAN_clean_linker_2, # of connection points: 2
#     Edge 53, Type (0, 1), BuildingBlock: XUDNAN_clean_linker_2, # of connection points: 2
#     Edge 54, Type (0, 1), BuildingBlock: XUDNAN_clean_linker_2, # of connection points: 2
#     Edge 55, Type (0, 1), BuildingBlock: XUDNAN_clean_linker_2, # of connection points: 2
#     Edge 56, Type (0, 1), BuildingBlock: XUDNAN_clean_linker_2, # of connection points: 2
#     Edge 57, Type (0, 1), BuildingBlock: XUDNAN_clean_linker_2, # of connection points: 2
#     Edge 58, Type (0, 1), BuildingBlock: XUDNAN_clean_linker_2, # of connection points: 2
#     Edge 59, Type (0, 1), BuildingBlock: XUDNAN_clean_linker_2, # of connection points: 2
#     Edge 60, Type (0, 1), BuildingBlock: XUDNAN_clean_linker_2, # of connection points: 2
#     Edge 61, Type (0, 1), BuildingBlock: XUDNAN_clean_linker_2, # of connection points: 2
#     Edge 62, Type (0, 1), BuildingBlock: XUDNAN_clean_linker_2, # of connection points: 2
#     Edge 63, Type (0, 1), BuildingBlock: XUDNAN_clean_linker_2, # of connection points: 2
#     Edge 64, Type (0, 1), BuildingBlock: XUDNAN_clean_linker_2, # of connection points: 2
#     Edge 65, Type (0, 1), BuildingBlock: XUDNAN_clean_linker_2, # of connection points: 2
#     Edge 66, Type (0, 1), BuildingBlock: XUDNAN_clean_linker_2, # of connection points: 2
#     Edge 67, Type (0, 1), BuildingBlock: XUDNAN_clean_linker_2, # of connection points: 2
#     Edge 68, Type (0, 1), BuildingBlock: XUDNAN_clean_linker_2, # of connection points: 2
#     Edge 69, Type (0, 1), BuildingBlock: XUDNAN_clean_linker_2, # of connection points: 2
#     Edge 70, Type (0, 1), BuildingBlock: XUDNAN_clean_linker_2, # of connection points: 2
#     Edge 71, Type (0, 1), BuildingBlock: XUDNAN_clean_linker_2, # of connection points: 2
#     Edge 72, Type (0, 1), BuildingBlock: XUDNAN_clean_linker_2, # of connection points: 2
#     Edge 73, Type (0, 1), BuildingBlock: XUDNAN_clean_linker_2, # of connection points: 2
#     Edge 74, Type (0, 1), BuildingBlock: XUDNAN_clean_linker_2, # of connection points: 2
#     Edge 75, Type (0, 1), BuildingBlock: XUDNAN_clean_linker_2, # of connection points: 2
#     Edge 76, Type (0, 1), BuildingBlock: XUDNAN_clean_linker_2, # of connection points: 2
#     Edge 77, Type (0, 1), BuildingBlock: XUDNAN_clean_linker_2, # of connection points: 2
#     Edge 78, Type (0, 1), BuildingBlock: XUDNAN_clean_linker_2, # of connection points: 2
#     Edge 79, Type (0, 1), BuildingBlock: XUDNAN_clean_linker_2, # of connection points: 2
#     Edge 80, Type (0, 1), BuildingBlock: XUDNAN_clean_linker_2, # of connection points: 2
#     Edge 81, Type (0, 1), BuildingBlock: XUDNAN_clean_linker_2, # of connection points: 2
#     Edge 82, Type (0, 1), BuildingBlock: XUDNAN_clean_linker_2, # of connection points: 2
#     Edge 83, Type (0, 1), BuildingBlock: XUDNAN_clean_linker_2, # of connection points: 2
#     Edge 84, Type (0, 1), BuildingBlock: XUDNAN_clean_linker_2, # of connection points: 2
#     Edge 85, Type (0, 1), BuildingBlock: XUDNAN_clean_linker_2, # of connection points: 2
#     Edge 86, Type (0, 1), BuildingBlock: XUDNAN_clean_linker_2, # of connection points: 2
#     Edge 87, Type (0, 1), BuildingBlock: XUDNAN_clean_linker_2, # of connection points: 2
#     Edge 88, Type (0, 1), BuildingBlock: XUDNAN_clean_linker_2, # of connection points: 2
#     Edge 89, Type (0, 1), BuildingBlock: XUDNAN_clean_linker_2, # of connection points: 2
#     Edge 90, Type (0, 1), BuildingBlock: XUDNAN_clean_linker_2, # of connection points: 2
#     Edge 91, Type (0, 1), BuildingBlock: XUDNAN_clean_linker_2, # of connection points: 2
#     Edge 92, Type (0, 1), BuildingBlock: XUDNAN_clean_linker_2, # of connection points: 2
#     Edge 93, Type (0, 1), BuildingBlock: XUDNAN_clean_linker_2, # of connection points: 2
#     Edge 94, Type (0, 1), BuildingBlock: XUDNAN_clean_linker_2, # of connection points: 2
#     Edge 95, Type (0, 1), BuildingBlock: XUDNAN_clean_linker_2, # of connection points: 2
#     Edge 96, Type (0, 1), BuildingBlock: XUDNAN_clean_linker_2, # of connection points: 2
#     Edge 97, Type (0, 1), BuildingBlock: XUDNAN_clean_linker_2, # of connection points: 2
#     Edge 98, Type (0, 1), BuildingBlock: XUDNAN_clean_linker_2, # of connection points: 2
#     Edge 99, Type (0, 1), BuildingBlock: XUDNAN_clean_linker_2, # of connection points: 2
#     Edge 100, Type (0, 1), BuildingBlock: XUDNAN_clean_linker_2, # of connection points: 2
#     Edge 101, Type (0, 1), BuildingBlock: XUDNAN_clean_linker_2, # of connection points: 2
#     Edge 102, Type (0, 1), BuildingBlock: XUDNAN_clean_linker_2, # of connection points: 2
#     Edge 103, Type (0, 1), BuildingBlock: XUDNAN_clean_linker_2, # of connection points: 2
#     Edge 104, Type (0, 1), BuildingBlock: XUDNAN_clean_linker_2, # of connection points: 2
#     Edge 105, Type (0, 1), BuildingBlock: XUDNAN_clean_linker_2, # of connection points: 2
#     Edge 106, Type (0, 1), BuildingBlock: XUDNAN_clean_linker_2, # of connection points: 2
#     Edge 107, Type (0, 1), BuildingBlock: XUDNAN_clean_linker_2, # of connection points: 2
# Relax obj value: 0.100
# Max RMSD: 0.291
# Mean RMSD: 0.174
data_MOF--net-ptr--node1-NAHDIM_clean_sbu_0--node2-AZAVOO_clean_linker_0--edge1-XUDNAN_clean_linker_2
_symmetry_space_group_name_H-M    P1
_symmetry_Int_Tables_number       1
_symmetry_cell_setting            triclinic
loop_
_symmetry_equiv_pos_as_xyz
'x, y, z'
_cell_length_a     83.25739
_cell_length_b     80.552686
_cell_length_c     68.063323
_cell_angle_alpha  94.339673
_cell_angle_beta   91.670302
_cell_angle_gamma 122.10758
loop_
_atom_site_label
_atom_site_type_symbol
_atom_site_fract_x
_atom_site_fract_y
_atom_site_fract_z
_atom_type_partial_charge
C0 C 0.03441 0.35814 0.04774 0.0
O1 O 0.01766 0.34888 0.05487 0.0
O2 O 0.9973 0.3417 0.00491 0.0
Zn3 Zn 0.01483 0.3681 0.02046 0.0
O4 O 0.00226 0.37495 0.04181 0.0
C5 C 0.01254 0.39121 0.99231 0.0
O6 O 0.99453 0.38025 0.99566 0.0
O7 O 0.03675 0.36776 0.03299 0.0
C8 C 0.98505 0.37028 0.04123 0.0
O9 O 0.9733 0.35924 0.0258 0.0
C10 C 0.98408 0.32651 0.01179 0.0
O11 O 0.98067 0.32757 0.03041 0.0
O12 O 0.02456 0.38878 0.0014 0.0
C13 C 0.67595 0.6441 0.06095 0.0
O14 O 0.67984 0.66 0.07216 0.0
O15 O 0.64751 0.65336 0.09094 0.0
Zn16 Zn 0.63766 0.62837 0.07278 0.0
O17 O 0.61939 0.62604 0.05115 0.0
C18 C 0.63197 0.59707 0.09617 0.0
O19 O 0.65024 0.60456 0.09485 0.0
O20 O 0.65918 0.62889 0.05959 0.0
C21 C 0.61017 0.60966 0.04036 0.0
O22 O 0.61268 0.59545 0.04435 0.0
C23 C 0.64855 0.65386 0.10967 0.0
O24 O 0.64255 0.63746 0.11777 0.0
O25 O 0.62399 0.60478 0.08789 0.0
C26 C 0.37219 0.03276 0.01217 0.0
O27 O 0.3652 0.01659 -0.0 0.0
O28 O 0.37048 0.99386 0.04025 0.0
Zn29 Zn 0.39174 0.01624 0.0277 0.0
O30 O 0.39605 0.00907 0.00013 0.0
C31 C 0.41771 0.01444 0.05377 0.0
O32 O 0.40549 0.99563 0.04827 0.0
O33 O 0.38472 0.03651 0.02589 0.0
C34 C 0.40075 0.99693 0.99445 0.0
O35 O 0.40261 0.98657 0.00728 0.0
C36 C 0.3539 0.98019 0.0332 0.0
O37 O 0.34891 0.97848 0.01432 0.0
O38 O 0.41528 0.02706 0.04636 0.0
C39 C 0.96084 0.64668 0.03201 0.0
O40 O 0.96514 0.657 0.04938 0.0
O41 O 0.00588 0.66472 0.05787 0.0
Zn42 Zn 0.98706 0.6365 0.04716 0.0
O43 O 0.00035 0.6259 0.0311 0.0
C44 C 0.98487 0.6234 0.08539 0.0
O45 O 0.00214 0.63924 0.08769 0.0
O46 O 0.96772 0.63609 0.02835 0.0
C47 C 0.0053 0.61466 0.0374 0.0
O48 O 0.00242 0.61004 0.0556 0.0
C49 C 0.01214 0.67783 0.04595 0.0
O50 O 0.00648 0.67247 0.02705 0.0
O51 O 0.9749 0.61945 0.06921 0.0
C52 C 0.33897 0.36953 0.0293 0.0
O53 O 0.35209 0.36931 0.04025 0.0
O54 O 0.36027 0.35623 0.98292 0.0
Zn55 Zn 0.36666 0.38032 0.00068 0.0
O56 O 0.38617 0.38592 0.02271 0.0
C57 C 0.38554 0.4029 0.96931 0.0
O58 O 0.38643 0.38729 0.96469 0.0
O59 O 0.34229 0.37461 0.01191 0.0
C60 C 0.40374 0.39359 0.02039 0.0
O61 O 0.40977 0.39786 0.00276 0.0
C62 C 0.35065 0.33894 0.98809 0.0
O63 O 0.34513 0.33649 0.0061 0.0
O64 O 0.37727 0.40351 0.98452 0.0
C65 C 0.63856 0.9678 0.05956 0.0
O66 O 0.64797 0.98582 0.0686 0.0
O67 O 0.64205 0.00569 0.03396 0.0
Zn68 Zn 0.61835 0.98304 0.04296 0.0
O69 O 0.61158 0.99129 0.06844 0.0
C70 C 0.58972 0.98202 0.01698 0.0
O71 O 0.59472 0.99845 0.02792 0.0
O72 O 0.62426 0.96251 0.04758 0.0
C73 C 0.59459 0.98231 0.07338 0.0
O74 O 0.58104 0.96759 0.06134 0.0
C75 C 0.64733 0.02371 0.03674 0.0
O76 O 0.63679 0.02869 0.04634 0.0
O77 O 0.59754 0.97265 0.02108 0.0
C78 C 0.691 0.6905 0.37952 0.0
O79 O 0.68475 0.6975 0.39328 0.0
O80 O 0.6487 0.6762 0.33304 0.0
Zn81 Zn 0.66891 0.69853 0.35212 0.0
O82 O 0.65674 0.70385 0.37482 0.0
C83 C 0.69041 0.72659 0.32311 0.0
O84 O 0.68997 0.71191 0.31272 0.0
O85 O 0.68654 0.69026 0.36144 0.0
C86 C 0.64452 0.70827 0.37095 0.0
O87 O 0.63951 0.70799 0.35239 0.0
C88 C 0.6414 0.67808 0.31737 0.0
O89 O 0.64685 0.69579 0.31282 0.0
O90 O 0.6829 0.72382 0.33949 0.0
C91 C 0.32845 0.97374 0.37317 0.0
O92 O 0.31794 0.98116 0.37039 0.0
O93 O 0.30036 0.97823 0.40492 0.0
Zn94 Zn 0.29826 0.95269 0.39613 0.0
O95 O 0.277 0.93675 0.37468 0.0
C96 C 0.27588 0.92624 0.42295 0.0
O97 O 0.26285 0.92638 0.41174 0.0
O98 O 0.32295 0.96006 0.3844 0.0
C99 C 0.26998 0.94395 0.3639 0.0
O100 O 0.27659 0.96289 0.36666 0.0
C101 C 0.30517 0.98648 0.42257 0.0
O102 O 0.30726 0.97726 0.43657 0.0
O103 O 0.2932 0.93674 0.4192 0.0
C104 C 0.0514 0.37871 0.3584 0.0
O105 O 0.0357 0.36633 0.36625 0.0
O106 O 0.03155 0.32936 0.36353 0.0
Zn107 Zn 0.05942 0.3478 0.36022 0.0
O108 O 0.06569 0.33864 0.33499 0.0
C109 C 0.06927 0.35345 0.40085 0.0
O110 O 0.05485 0.35584 0.39987 0.0
O111 O 0.0638 0.3743 0.35568 0.0
C112 C 0.07267 0.32816 0.33121 0.0
O113 O 0.0773 0.32118 0.34567 0.0
C114 C 0.02507 0.31422 0.37279 0.0
O115 O 0.03684 0.30962 0.38004 0.0
O116 O 0.07498 0.35 0.38483 0.0
C117 C 0.63334 0.96212 0.36033 0.0
O118 O 0.65067 0.97418 0.35545 0.0
O119 O 0.66763 0.98436 0.40705 0.0
Zn120 Zn 0.65383 0.95749 0.39173 0.0
O121 O 0.67126 0.95497 0.37371 0.0
C122 C 0.63591 0.93784 0.42516 0.0
O123 O 0.63105 0.95095 0.42609 0.0
O124 O 0.63099 0.95307 0.37553 0.0
C125 C 0.6652 0.93831 0.3641 0.0
O126 O 0.64803 0.92349 0.36655 0.0
C127 C 0.68021 -0.00026 0.39985 0.0
O128 O 0.68437 0.99827 0.38159 0.0
O129 O 0.64557 0.93748 0.41122 0.0
C130 C 0.00033 0.70317 0.35068 0.0
O131 O 0.99733 0.6879 0.33895 0.0
O132 O 0.03434 0.69733 0.32465 0.0
Zn133 Zn 0.03975 0.72226 0.34017 0.0
O134 O 0.05949 0.72882 0.36216 0.0
C135 C 0.04707 0.7407 0.30399 0.0
O136 O 0.03652 0.72233 0.29603 0.0
O137 O 0.01678 0.71886 0.35269 0.0
C138 C 0.06714 0.7447 0.37369 0.0
O139 O 0.06234 0.75753 0.37097 0.0
C140 C 0.04895 0.6977 0.31906 0.0
O141 O 0.06577 0.71388 0.32351 0.0
O142 O 0.05007 0.74434 0.3227 0.0
C143 C 0.30346 0.31626 0.39276 0.0
O144 O 0.314 0.33406 0.40217 0.0
O145 O 0.30772 0.35484 0.36542 0.0
Zn146 Zn 0.28515 0.33414 0.3778 0.0
O147 O 0.28236 0.34483 0.40427 0.0
C148 C 0.25842 0.31374 0.34361 0.0
O149 O 0.27072 0.30902 0.33851 0.0
O150 O 0.28932 0.31224 0.38122 0.0
C151 C 0.26576 0.33696 0.4102 0.0
O152 O 0.25132 0.32237 0.3989 0.0
C153 C 0.3102 0.37137 0.36236 0.0
O154 O 0.29769 0.3756 0.36792 0.0
O155 O 0.2617 0.32437 0.35978 0.0
C156 C 0.37241 0.03933 0.71814 0.0
O157 O 0.35597 0.03012 0.72591 0.0
O158 O 0.33539 0.02013 0.67187 0.0
Zn159 Zn 0.35127 0.04595 0.68884 0.0
O160 O 0.33596 0.04909 0.70939 0.0
C161 C 0.35146 0.06605 0.65555 0.0
O162 O 0.33558 0.04911 0.65008 0.0
O163 O 0.37372 0.04721 0.70229 0.0
C164 C 0.32205 0.05084 0.70492 0.0
O165 O 0.31708 0.05007 0.68622 0.0
C166 C 0.32408 0.00398 0.67872 0.0
O167 O 0.32249 0.00381 0.69786 0.0
O168 O 0.36076 0.06816 0.67168 0.0
C169 C 0.99778 0.29961 0.71068 0.0
O170 O 0.98742 0.3035 0.69931 0.0
O171 O 0.9681 0.30769 0.75158 0.0
Zn172 Zn 0.96549 0.28514 0.73381 0.0
O173 O 0.94877 0.28065 0.70958 0.0
C174 C 0.95559 0.26236 0.76677 0.0
O175 O 0.96682 0.2799 0.77649 0.0
O176 O 0.99124 0.29153 0.72632 0.0
C177 C 0.94119 0.26474 0.69808 0.0
O178 O 0.94436 0.251 0.70222 0.0
C179 C 0.98079 0.32557 0.75006 0.0
O180 O 0.99287 0.32974 0.73646 0.0
O181 O 0.95308 0.26082 0.74805 0.0
C182 C 0.70661 0.67586 0.65609 0.0
O183 O 0.70126 0.65756 0.65042 0.0
O184 O 0.70507 0.64809 0.6976 0.0
Zn185 Zn 0.72721 0.6691 0.68427 0.0
O186 O 0.73525 0.65659 0.66321 0.0
C187 C 0.74548 0.69014 0.72204 0.0
O188 O 0.72791 0.68462 0.72518 0.0
O189 O 0.71874 0.68504 0.6709 0.0
C190 C 0.72491 0.63853 0.65635 0.0
O191 O 0.7087 0.62707 0.6639 0.0
C192 C 0.69078 0.64932 0.70103 0.0
O193 O 0.69041 0.66449 0.69584 0.0
O194 O 0.74903 0.68588 0.70501 0.0
C195 C 0.30525 0.30744 0.69617 0.0
O196 O 0.31674 0.3064 0.68404 0.0
O197 O 0.34481 0.32314 0.74328 0.0
Zn198 Zn 0.3262 0.2994 0.72471 0.0
O199 O 0.33982 0.29579 0.70224 0.0
C200 C 0.32579 0.26834 0.74163 0.0
O201 O 0.34248 0.2772 0.73436 0.0
O202 O 0.30619 0.30428 0.71409 0.0
C203 C 0.33136 0.27936 0.69148 0.0
O204 O 0.31404 0.26564 0.69506 0.0
C205 C 0.35387 0.34012 0.73727 0.0
O206 O 0.35131 0.34189 0.71859 0.0
O207 O 0.3153 0.27532 0.7398 0.0
C208 C 0.68332 0.04814 0.69348 0.0
O209 O 0.69634 0.04937 0.70595 0.0
O210 O 0.69468 0.01659 0.65291 0.0
Zn211 Zn 0.70652 0.04479 0.66447 0.0
O212 O 0.72534 0.04959 0.68683 0.0
C213 C 0.70946 0.06253 0.6288 0.0
O214 O 0.69108 0.04935 0.62695 0.0
O215 O 0.68517 0.04701 0.67502 0.0
C216 C 0.73854 0.06636 0.69498 0.0
O217 O 0.74113 0.08237 0.68815 0.0
C218 C 0.68586 0.00389 0.66492 0.0
O219 O 0.68533 0.01003 0.68318 0.0
O220 O 0.71932 0.06346 0.64393 0.0
C221 C 0.9642 0.65511 0.73102 0.0
O222 O 0.97335 0.67445 0.73295 0.0
O223 O 0.96346 0.67879 0.69125 0.0
Zn224 Zn 0.94174 0.6628 0.70764 0.0
O225 O 0.93839 0.67924 0.7289 0.0
C226 C 0.91578 0.65872 0.67839 0.0
O227 O 0.92782 0.6779 0.68156 0.0
O228 O 0.9484 0.64532 0.72057 0.0
C229 C 0.92752 0.66938 0.74185 0.0
O230 O 0.91965 0.65017 0.74004 0.0
C231 C 0.97754 0.6964 0.695 0.0
O232 O 0.9786 0.70704 0.71117 0.0
O233 O 0.91817 0.64769 0.68888 0.0
H234 H 0.18279 0.3503 0.03335 0.0
H235 H 0.23909 0.25913 0.1876 0.0
H236 H 0.16429 0.34554 0.1389 0.0
H237 H 0.14652 0.35759 0.12256 0.0
H238 H 0.09675 0.29836 0.11445 0.0
H239 H 0.11468 0.28649 0.13127 0.0
H240 H 0.19266 0.34141 0.11653 0.0
H241 H 0.19354 0.35045 0.08288 0.0
H242 H 0.14049 0.29512 0.06586 0.0
H243 H 0.13993 0.28616 0.09952 0.0
H244 H 0.21637 0.33095 0.14499 0.0
H245 H 0.24146 0.33907 0.12279 0.0
H246 H 0.20118 0.29001 0.08082 0.0
H247 H 0.17609 0.28176 0.10336 0.0
H248 H 0.20788 0.32011 0.18583 0.0
H249 H 0.23013 0.31214 0.19962 0.0
H250 H 0.20315 0.25831 0.1598 0.0
H251 H 0.18077 0.26632 0.14635 0.0
H252 H 0.17485 0.32454 0.20206 0.0
H253 H 0.18072 0.32106 0.2364 0.0
H254 H 0.16493 0.26119 0.21947 0.0
H255 H 0.15825 0.26447 0.18506 0.0
H256 H 0.15185 0.33546 0.17621 0.0
H257 H 0.13244 0.33811 0.20096 0.0
H258 H 0.10472 0.27588 0.20647 0.0
H259 H 0.12361 0.27307 0.18088 0.0
O260 O 0.18219 0.34641 0.04655 0.0
O261 O 0.1548 0.31786 0.03861 0.0
O262 O 0.24368 0.29038 0.20273 0.0
O263 O 0.23058 0.26273 0.18228 0.0
C264 C 0.15262 0.30785 0.14334 0.0
C265 C 0.16577 0.30759 0.13085 0.0
C266 C 0.17888 0.303 0.13804 0.0
C267 C 0.17848 0.29808 0.15755 0.0
C268 C 0.16507 0.29796 0.16997 0.0
C269 C 0.15211 0.30288 0.16287 0.0
C270 C 0.14075 0.31517 0.13619 0.0
C271 C 0.14944 0.33524 0.13391 0.0
C272 C 0.13933 0.34205 0.12443 0.0
C273 C 0.12033 0.32887 0.11695 0.0
C274 C 0.11135 0.30887 0.12014 0.0
C275 C 0.12152 0.30206 0.12971 0.0
C276 C 0.16631 0.31308 0.11039 0.0
C277 C 0.18131 0.33122 0.10547 0.0
C278 C 0.18174 0.33636 0.08626 0.0
C279 C 0.16709 0.32349 0.07167 0.0
C280 C 0.15201 0.30536 0.07673 0.0
C281 C 0.15164 0.30021 0.09593 0.0
C282 C 0.19443 0.30573 0.12582 0.0
C283 C 0.21307 0.3216 0.13127 0.0
C284 C 0.22737 0.32625 0.11854 0.0
C285 C 0.22323 0.31522 0.10004 0.0
C286 C 0.2047 0.29886 0.09491 0.0
C287 C 0.19042 0.29407 0.10778 0.0
C288 C 0.19261 0.2937 0.16522 0.0
C289 C 0.20678 0.30659 0.18014 0.0
C290 C 0.21949 0.30201 0.18796 0.0
C291 C 0.21837 0.28453 0.18086 0.0
C292 C 0.20437 0.27185 0.16564 0.0
C293 C 0.19161 0.27641 0.15789 0.0
C294 C 0.16607 0.29475 0.19106 0.0
C295 C 0.17201 0.31045 0.20583 0.0
C296 C 0.17537 0.30845 0.22542 0.0
C297 C 0.17323 0.29085 0.2305 0.0
C298 C 0.16665 0.27489 0.21585 0.0
C299 C 0.16287 0.27675 0.19628 0.0
C300 C 0.13893 0.304 0.17641 0.0
C301 C 0.14115 0.32225 0.1822 0.0
C302 C 0.13018 0.32378 0.19647 0.0
C303 C 0.11711 0.30718 0.20555 0.0
C304 C 0.11475 0.28888 0.19968 0.0
C305 C 0.12544 0.28725 0.18505 0.0
C306 C 0.16758 0.32901 0.05127 0.0
C307 C 0.23168 0.27947 0.18932 0.0
H308 H 0.67555 0.78423 0.06213 0.0
H309 H 0.72918 0.986 0.18208 0.0
H310 H 0.6809 0.81546 0.18623 0.0
H311 H 0.6742 0.7819 0.18278 0.0
H312 H 0.7246 0.80139 0.15141 0.0
H313 H 0.73162 0.83525 0.15551 0.0
H314 H 0.67609 0.8195 0.14064 0.0
H315 H 0.67055 0.80029 0.1088 0.0
H316 H 0.72564 0.84597 0.09286 0.0
H317 H 0.73111 0.86492 0.1249 0.0
H318 H 0.67394 0.85393 0.13468 0.0
H319 H 0.66326 0.8665 0.10928 0.0
H320 H 0.71983 0.91868 0.11185 0.0
H321 H 0.73052 0.90578 0.13725 0.0
H322 H 0.6811 0.8878 0.16672 0.0
H323 H 0.68157 0.91845 0.16726 0.0
H324 H 0.74172 0.95164 0.18577 0.0
H325 H 0.74111 0.92087 0.18484 0.0
H326 H 0.68373 0.87735 0.20585 0.0
H327 H 0.68222 0.89172 0.23803 0.0
H328 H 0.74055 0.91063 0.2541 0.0
H329 H 0.74205 0.89638 0.2214 0.0
H330 H 0.68836 0.84569 0.21989 0.0
H331 H 0.68957 0.82945 0.24832 0.0
H332 H 0.7413 0.83498 0.2302 0.0
H333 H 0.74058 0.85218 0.20221 0.0
O334 O 0.67802 0.79211 0.07461 0.0
O335 O 0.70629 0.8162 0.06695 0.0
O336 O 0.69769 0.95591 0.17209 0.0
O337 O 0.72857 0.97366 0.18188 0.0
C338 C 0.70984 0.84778 0.17221 0.0
C339 C 0.70762 0.85499 0.15468 0.0
C340 C 0.70812 0.87282 0.15576 0.0
C341 C 0.71103 0.88357 0.17434 0.0
C342 C 0.71316 0.87634 0.19186 0.0
C343 C 0.71285 0.85857 0.19081 0.0
C344 C 0.7068 0.82781 0.17122 0.0
C345 C 0.69076 0.8126 0.17905 0.0
C346 C 0.68696 0.79347 0.17708 0.0
C347 C 0.69893 0.78914 0.16689 0.0
C348 C 0.71516 0.80441 0.15931 0.0
C349 C 0.71916 0.82367 0.16162 0.0
C350 C 0.70408 0.84351 0.13514 0.0
C351 C 0.68698 0.82528 0.1303 0.0
C352 C 0.68384 0.81436 0.11207 0.0
C353 C 0.69768 0.82156 0.0983 0.0
C354 C 0.7147 0.83997 0.10314 0.0
C355 C 0.71785 0.85084 0.12141 0.0
C356 C 0.703 0.87893 0.1378 0.0
C357 C 0.6842 0.86774 0.12927 0.0
C358 C 0.67812 0.87497 0.11477 0.0
C359 C 0.6907 0.89361 0.10866 0.0
C360 C 0.70981 0.90433 0.11642 0.0
C361 C 0.71595 0.89697 0.13082 0.0
C362 C 0.71112 0.90214 0.17554 0.0
C363 C 0.69437 0.90171 0.17082 0.0
C364 C 0.69467 0.91923 0.17118 0.0
C365 C 0.71171 0.93751 0.17648 0.0
C366 C 0.72838 0.93783 0.18156 0.0
C367 C 0.72807 0.92029 0.1811 0.0
C368 C 0.71302 0.88593 0.21128 0.0
C369 C 0.69626 0.88478 0.21622 0.0
C370 C 0.69536 0.89279 0.23468 0.0
C371 C 0.71121 0.90211 0.24864 0.0
C372 C 0.72815 0.90357 0.24358 0.0
C373 C 0.72902 0.89544 0.22501 0.0
C374 C 0.71457 0.85047 0.20913 0.0
C375 C 0.70032 0.84405 0.2224 0.0
C376 C 0.70094 0.83464 0.23853 0.0
C377 C 0.71555 0.83104 0.24138 0.0
C378 C 0.72991 0.83761 0.22825 0.0
C379 C 0.72953 0.84745 0.21236 0.0
C380 C 0.69433 0.80987 0.079 0.0
C381 C 0.71215 0.95619 0.17667 0.0
H382 H 0.15549 0.8628 0.02298 0.0
H383 H 0.29951 0.94717 0.20144 0.0
H384 H 0.1319 0.85665 0.12457 0.0
H385 H 0.10299 0.82881 0.10638 0.0
H386 H 0.11808 0.78883 0.12652 0.0
H387 H 0.14667 0.8166 0.14463 0.0
H388 H 0.17331 0.89034 0.10741 0.0
H389 H 0.16647 0.88412 0.07146 0.0
H390 H 0.16005 0.82731 0.0728 0.0
H391 H 0.16716 0.83383 0.10868 0.0
H392 H 0.21469 0.92027 0.13698 0.0
H393 H 0.24402 0.93745 0.11996 0.0
H394 H 0.23617 0.88159 0.09873 0.0
H395 H 0.20743 0.86446 0.11659 0.0
H396 H 0.20935 0.9205 0.18193 0.0
H397 H 0.24143 0.9446 0.19708 0.0
H398 H 0.25993 0.90573 0.17665 0.0
H399 H 0.22773 0.88165 0.16182 0.0
H400 H 0.17529 0.89583 0.20115 0.0
H401 H 0.18406 0.90209 0.23694 0.0
H402 H 0.20723 0.8652 0.23076 0.0
H403 H 0.19837 0.85902 0.19516 0.0
H404 H 0.13734 0.86666 0.17899 0.0
H405 H 0.11438 0.84946 0.20338 0.0
H406 H 0.13389 0.80951 0.20625 0.0
H407 H 0.15688 0.82691 0.18215 0.0
O408 O 0.15824 0.86499 0.03718 0.0
O409 O 0.15499 0.83587 0.03869 0.0
O410 O 0.2764 0.95721 0.206 0.0
O411 O 0.28669 0.93787 0.19564 0.0
C412 C 0.15993 0.85535 0.14486 0.0
C413 C 0.17456 0.86632 0.13248 0.0
C414 C 0.19303 0.88089 0.14089 0.0
C415 C 0.19673 0.88474 0.1617 0.0
C416 C 0.18199 0.87404 0.17397 0.0
C417 C 0.16364 0.85936 0.16558 0.0
C418 C 0.14123 0.83858 0.13605 0.0
C419 C 0.12869 0.84181 0.12533 0.0
C420 C 0.1123 0.82594 0.11486 0.0
C421 C 0.10824 0.80661 0.115 0.0
C422 C 0.12057 0.80346 0.12637 0.0
C423 C 0.13692 0.8193 0.13676 0.0
C424 C 0.17058 0.86248 0.11064 0.0
C425 C 0.17046 0.87659 0.09988 0.0
C426 C 0.16652 0.87298 0.07937 0.0
C427 C 0.16265 0.85519 0.06926 0.0
C428 C 0.16291 0.84113 0.08012 0.0
C429 C 0.16689 0.84479 0.10062 0.0
C430 C 0.20893 0.89111 0.12807 0.0
C431 C 0.21916 0.91172 0.12848 0.0
C432 C 0.23581 0.92148 0.11877 0.0
C433 C 0.24212 0.91072 0.10809 0.0
C434 C 0.23137 0.89008 0.10676 0.0
C435 C 0.21497 0.88034 0.11686 0.0
C436 C 0.21625 0.89937 0.17077 0.0
C437 C 0.22035 0.9172 0.18082 0.0
C438 C 0.23868 0.93095 0.18942 0.0
C439 C 0.25326 0.9271 0.18806 0.0
C440 C 0.24906 0.90917 0.17796 0.0
C441 C 0.2307 0.89541 0.16944 0.0
C442 C 0.18627 0.87704 0.19568 0.0
C443 C 0.18211 0.88901 0.20763 0.0
C444 C 0.18718 0.8926 0.22798 0.0
C445 C 0.19629 0.8841 0.23662 0.0
C446 C 0.19999 0.87174 0.22458 0.0
C447 C 0.19507 0.86829 0.20426 0.0
C448 C 0.14856 0.84784 0.17872 0.0
C449 C 0.13642 0.85402 0.18472 0.0
C450 C 0.12345 0.84429 0.19868 0.0
C451 C 0.12234 0.82813 0.20661 0.0
C452 C 0.13426 0.82174 0.20017 0.0
C453 C 0.14737 0.83163 0.18645 0.0
C454 C 0.15839 0.85136 0.04747 0.0
C455 C 0.27278 0.94168 0.19713 0.0
H456 H 0.29732 0.18852 0.02296 0.0
H457 H 0.31505 0.03503 0.90305 0.0
H458 H 0.275 0.16374 0.91972 0.0
H459 H 0.2815 0.19717 0.92692 0.0
H460 H 0.33512 0.22068 0.90074 0.0
H461 H 0.32864 0.18739 0.89386 0.0
H462 H 0.27614 0.13467 0.95071 0.0
H463 H 0.27994 0.15289 0.98276 0.0
H464 H 0.3356 0.19973 0.96944 0.0
H465 H 0.33172 0.18123 0.9376 0.0
H466 H 0.27858 0.09455 0.93818 0.0
H467 H 0.28947 0.08128 0.96296 0.0
H468 H 0.34544 0.13446 0.96734 0.0
H469 H 0.33462 0.14739 0.9424 0.0
H470 H 0.2682 0.08037 0.89134 0.0
H471 H 0.2682 0.0499 0.88988 0.0
H472 H 0.32851 0.08391 0.9077 0.0
H473 H 0.32836 0.11424 0.90877 0.0
H474 H 0.26512 0.10552 0.85754 0.0
H475 H 0.26317 0.08942 0.82472 0.0
H476 H 0.32212 0.10755 0.83468 0.0
H477 H 0.32365 0.12293 0.86751 0.0
H478 H 0.27007 0.15009 0.87066 0.0
H479 H 0.27157 0.16634 0.84098 0.0
H480 H 0.32611 0.17408 0.83127 0.0
H481 H 0.32454 0.15806 0.86077 0.0
O482 O 0.29622 0.18144 0.01034 0.0
O483 O 0.32458 0.20527 0.00259 0.0
O484 O 0.28376 0.03004 0.8937 0.0
O485 O 0.3147 0.04685 0.90314 0.0
C486 C 0.29895 0.15352 0.90467 0.0
C487 C 0.30083 0.14588 0.92205 0.0
C488 C 0.30074 0.12826 0.92063 0.0
C489 C 0.29801 0.11785 0.90188 0.0
C490 C 0.2959 0.12537 0.88457 0.0
C491 C 0.29671 0.1434 0.88592 0.0
C492 C 0.30132 0.17317 0.90622 0.0
C493 C 0.28796 0.17611 0.91523 0.0
C494 C 0.29173 0.19516 0.91939 0.0
C495 C 0.30883 0.21149 0.91442 0.0
C496 C 0.32171 0.20836 0.9045 0.0
C497 C 0.31803 0.18937 0.90053 0.0
C498 C 0.30357 0.1567 0.94178 0.0
C499 C 0.28917 0.14882 0.95481 0.0
C500 C 0.29137 0.15929 0.97307 0.0
C501 C 0.30803 0.17782 0.97862 0.0
C502 C 0.32255 0.18554 0.9656 0.0
C503 C 0.32036 0.17503 0.94739 0.0
C504 C 0.30582 0.1219 0.93845 0.0
C505 C 0.29305 0.10349 0.94486 0.0
C506 C 0.2993 0.09593 0.95892 0.0
C507 C 0.31832 0.10682 0.96698 0.0
C508 C 0.33066 0.12584 0.96156 0.0
C509 C 0.32449 0.13326 0.94734 0.0
C510 C 0.29824 0.09947 0.90028 0.0
C511 C 0.2814 0.08119 0.89479 0.0
C512 C 0.28145 0.06382 0.89403 0.0
C513 C 0.29836 0.06447 0.89877 0.0
C514 C 0.31524 0.08287 0.90401 0.0
C515 C 0.31519 0.10022 0.90467 0.0
C516 C 0.29446 0.1152 0.8649 0.0
C517 C 0.27751 0.10581 0.85261 0.0
C518 C 0.27649 0.09675 0.83385 0.0
C519 C 0.29246 0.09708 0.82708 0.0
C520 C 0.30941 0.10658 0.83954 0.0
C521 C 0.31037 0.11548 0.85828 0.0
C522 C 0.29706 0.15261 0.86768 0.0
C523 C 0.28226 0.15522 0.86201 0.0
C524 C 0.28318 0.16455 0.84515 0.0
C525 C 0.29886 0.17128 0.83367 0.0
C526 C 0.31364 0.16867 0.83951 0.0
C527 C 0.31278 0.15951 0.85637 0.0
C528 C 0.31019 0.18905 0.99788 0.0
C529 C 0.29842 0.04605 0.89834 0.0
H530 H 0.83332 0.17892 0.03632 0.0
H531 H 0.71111 0.0126 0.87489 0.0
H532 H 0.84059 0.17969 0.93213 0.0
H533 H 0.8698 0.21025 0.94552 0.0
H534 H 0.90209 0.18349 0.93264 0.0
H535 H 0.87257 0.15258 0.9197 0.0
H536 H 0.80762 0.15382 0.95244 0.0
H537 H 0.81466 0.16618 0.98755 0.0
H538 H 0.85356 0.14631 0.99275 0.0
H539 H 0.8462 0.13379 0.95766 0.0
H540 H 0.77441 0.12356 0.9233 0.0
H541 H 0.74903 0.11187 0.94576 0.0
H542 H 0.77368 0.08479 0.97693 0.0
H543 H 0.79904 0.09648 0.95417 0.0
H544 H 0.77229 0.11 0.88125 0.0
H545 H 0.74147 0.08078 0.86885 0.0
H546 H 0.75623 0.04427 0.89811 0.0
H547 H 0.78708 0.07362 0.91023 0.0
H548 H 0.80489 0.13643 0.86243 0.0
H549 H 0.79465 0.12358 0.82776 0.0
H550 H 0.80597 0.07789 0.83627 0.0
H551 H 0.81503 0.09028 0.87131 0.0
H552 H 0.84477 0.1741 0.88641 0.0
H553 H 0.86767 0.19136 0.86225 0.0
H554 H 0.87555 0.14258 0.85275 0.0
H555 H 0.85275 0.12549 0.87721 0.0
O556 O 0.83062 0.17378 0.0225 0.0
O557 O 0.85048 0.16332 0.02437 0.0
O558 O 0.71633 0.04381 0.86474 0.0
O559 O 0.7232 0.0244 0.87957 0.0
C560 C 0.8364 0.14517 0.91798 0.0
C561 C 0.82222 0.13545 0.93118 0.0
C562 C 0.80422 0.11897 0.92398 0.0
C563 C 0.8007 0.11155 0.90384 0.0
C564 C 0.81496 0.12105 0.89071 0.0
C565 C 0.83277 0.13793 0.89773 0.0
C566 C 0.85444 0.16384 0.92521 0.0
C567 C 0.85394 0.18034 0.93235 0.0
C568 C 0.87059 0.19775 0.93997 0.0
C569 C 0.88811 0.1991 0.94025 0.0
C570 C 0.88872 0.18277 0.93256 0.0
C571 C 0.87194 0.16518 0.9252 0.0
C572 C 0.82625 0.14273 0.95257 0.0
C573 C 0.8175 0.15196 0.96124 0.0
C574 C 0.82163 0.1591 0.98128 0.0
C575 C 0.83466 0.15721 0.99297 0.0
C576 C 0.84344 0.14798 0.98418 0.0
C577 C 0.83926 0.14081 0.96415 0.0
C578 C 0.78845 0.11076 0.9371 0.0
C579 C 0.77422 0.11496 0.93488 0.0
C580 C 0.75989 0.10847 0.94783 0.0
C581 C 0.75949 0.09757 0.96318 0.0
C582 C 0.77362 0.0931 0.96518 0.0
C583 C 0.78807 0.09974 0.95225 0.0
C584 C 0.78194 0.09386 0.89647 0.0
C585 C 0.76887 0.09566 0.88484 0.0
C586 C 0.75127 0.07895 0.87784 0.0
C587 C 0.7464 0.06016 0.88245 0.0
C588 C 0.75952 0.05849 0.89425 0.0
C589 C 0.77714 0.07522 0.90121 0.0
C590 C 0.81058 0.1142 0.8693 0.0
C591 C 0.80526 0.12372 0.8567 0.0
C592 C 0.79957 0.11641 0.83682 0.0
C593 C 0.79942 0.09961 0.82907 0.0
C594 C 0.80551 0.09059 0.84173 0.0
C595 C 0.81085 0.09771 0.86171 0.0
C596 C 0.84717 0.1486 0.88359 0.0
C597 C 0.85163 0.16727 0.87929 0.0
C598 C 0.86471 0.1771 0.86554 0.0
C599 C 0.87342 0.16831 0.85568 0.0
C600 C 0.86896 0.14961 0.86005 0.0
C601 C 0.856 0.13988 0.87399 0.0
C602 C 0.83911 0.16492 0.01422 0.0
C603 C 0.72773 0.04236 0.87502 0.0
H604 H 0.87658 0.69904 0.04646 0.0
H605 H 0.72652 0.6914 0.90394 0.0
H606 H 0.88847 0.72517 0.94874 0.0
H607 H 0.91061 0.71605 0.96025 0.0
H608 H 0.87747 0.66012 0.92401 0.0
H609 H 0.85573 0.66954 0.91241 0.0
H610 H 0.85567 0.72348 0.97637 0.0
H611 H 0.86536 0.71842 0.00855 0.0
H612 H 0.85109 0.66044 0.98467 0.0
H613 H 0.84119 0.66557 0.95271 0.0
H614 H 0.81343 0.71952 0.96022 0.0
H615 H 0.78678 0.70609 0.98121 0.0
H616 H 0.78137 0.64949 0.97325 0.0
H617 H 0.80686 0.66259 0.95124 0.0
H618 H 0.82097 0.7357 0.91545 0.0
H619 H 0.79292 0.73768 0.90955 0.0
H620 H 0.75663 0.67487 0.91251 0.0
H621 H 0.78478 0.67307 0.91816 0.0
H622 H 0.85284 0.73767 0.88412 0.0
H623 H 0.84329 0.74144 0.85104 0.0
H624 H 0.79257 0.68316 0.84838 0.0
H625 H 0.80235 0.67934 0.88103 0.0
H626 H 0.88648 0.73211 0.90155 0.0
H627 H 0.90407 0.73184 0.8733 0.0
H628 H 0.85439 0.67669 0.84804 0.0
H629 H 0.83729 0.67679 0.87649 0.0
O630 O 0.8724 0.70062 0.03371 0.0
O631 O 0.86418 0.67065 0.02091 0.0
O632 O 0.75714 0.72326 0.90477 0.0
O633 O 0.73785 0.69104 0.90625 0.0
C634 C 0.85465 0.70117 0.92679 0.0
C635 C 0.84297 0.69861 0.94244 0.0
C636 C 0.82633 0.69896 0.93923 0.0
C637 C 0.82204 0.70322 0.92072 0.0
C638 C 0.83374 0.70585 0.90508 0.0
C639 C 0.84983 0.7044 0.90802 0.0
C640 C 0.87051 0.69801 0.92977 0.0
C641 C 0.88641 0.71124 0.94283 0.0
C642 C 0.89888 0.70589 0.94955 0.0
C643 C 0.89563 0.68722 0.94329 0.0
C644 C 0.8805 0.67466 0.92902 0.0
C645 C 0.86807 0.68004 0.9223 0.0
C646 C 0.8479 0.69498 0.96218 0.0
C647 C 0.85454 0.70966 0.97817 0.0
C648 C 0.86013 0.70675 0.99651 0.0
C649 C 0.8591 0.68907 0.99916 0.0
C650 C 0.85213 0.67426 0.98313 0.0
C651 C 0.84651 0.67717 0.96484 0.0
C652 C 0.81209 0.69204 0.95418 0.0
C653 C 0.80652 0.70426 0.96315 0.0
C654 C 0.79137 0.69658 0.97525 0.0
C655 C 0.78175 0.67661 0.97877 0.0
C656 C 0.7881 0.66478 0.97051 0.0
C657 C 0.80292 0.67234 0.95817 0.0
C658 C 0.8049 0.70429 0.9174 0.0
C659 C 0.80694 0.7224 0.91483 0.0
C660 C 0.7909 0.72348 0.91147 0.0
C661 C 0.77252 0.70643 0.91061 0.0
C662 C 0.77056 0.68829 0.91314 0.0
C663 C 0.78661 0.68722 0.91645 0.0
C664 C 0.82814 0.70836 0.88511 0.0
C665 C 0.83969 0.72575 0.87635 0.0
C666 C 0.83425 0.72786 0.8575 0.0
C667 C 0.81708 0.71268 0.8473 0.0
C668 C 0.80568 0.69525 0.85608 0.0
C669 C 0.81123 0.69305 0.87472 0.0
C670 C 0.86061 0.70452 0.89099 0.0
C671 C 0.87949 0.71998 0.88991 0.0
C672 C 0.88944 0.71986 0.87373 0.0
C673 C 0.88064 0.70422 0.85846 0.0
C674 C 0.86169 0.6888 0.85967 0.0
C675 C 0.85183 0.68892 0.87582 0.0
C676 C 0.86534 0.68615 0.01854 0.0
C677 C 0.75543 0.7075 0.90703 0.0
H678 H 0.81038 0.67186 0.35523 0.0
H679 H 0.92642 0.63268 0.51143 0.0
H680 H 0.80463 0.66757 0.472 0.0
H681 H 0.78064 0.67158 0.45567 0.0
H682 H 0.75285 0.61199 0.42719 0.0
H683 H 0.777 0.60807 0.44386 0.0
H684 H 0.82598 0.67328 0.43987 0.0
H685 H 0.82058 0.67824 0.40588 0.0
H686 H 0.80952 0.62059 0.38574 0.0
H687 H 0.81472 0.61574 0.41987 0.0
H688 H 0.8613 0.6791 0.45003 0.0
H689 H 0.88932 0.69335 0.43128 0.0
H690 H 0.8841 0.63683 0.42345 0.0
H691 H 0.85524 0.62243 0.44123 0.0
H692 H 0.87359 0.67109 0.49686 0.0
H693 H 0.90347 0.67513 0.50944 0.0
H694 H 0.88104 0.6138 0.48992 0.0
H695 H 0.85126 0.61001 0.47744 0.0
H696 H 0.83585 0.65971 0.5238 0.0
H697 H 0.84364 0.65794 0.55809 0.0
H698 H 0.83703 0.60163 0.54115 0.0
H699 H 0.82796 0.60301 0.50706 0.0
H700 H 0.80513 0.6596 0.5048 0.0
H701 H 0.78486 0.65456 0.53171 0.0
H702 H 0.76681 0.59309 0.52731 0.0
H703 H 0.78639 0.59813 0.49951 0.0
O704 O 0.81253 0.66962 0.36855 0.0
O705 O 0.8072 0.63998 0.35892 0.0
O706 O 0.92567 0.66296 0.51631 0.0
O707 O 0.91481 0.63153 0.50654 0.0
C708 C 0.80898 0.63664 0.46615 0.0
C709 C 0.82318 0.64075 0.453 0.0
C710 C 0.83998 0.64181 0.45952 0.0
C711 C 0.84222 0.6379 0.47893 0.0
C712 C 0.82791 0.63345 0.49198 0.0
C713 C 0.81132 0.63294 0.48564 0.0
C714 C 0.7923 0.63738 0.45948 0.0
C715 C 0.79289 0.65508 0.46295 0.0
C716 C 0.77924 0.65739 0.45347 0.0
C717 C 0.76486 0.6421 0.44012 0.0
C718 C 0.76384 0.62406 0.43731 0.0
C719 C 0.77746 0.62172 0.44694 0.0
C720 C 0.82054 0.64407 0.43232 0.0
C721 C 0.82228 0.6617 0.4281 0.0
C722 C 0.81925 0.66452 0.40867 0.0
C723 C 0.81455 0.64978 0.39309 0.0
C724 C 0.81307 0.63222 0.39739 0.0
C725 C 0.81606 0.62942 0.41684 0.0
C726 C 0.85628 0.64976 0.44702 0.0
C727 C 0.86603 0.66972 0.44396 0.0
C728 C 0.88219 0.67789 0.43345 0.0
C729 C 0.88917 0.66632 0.42607 0.0
C730 C 0.87906 0.64615 0.42878 0.0
C731 C 0.86268 0.63791 0.43909 0.0
C732 C 0.86036 0.64029 0.48623 0.0
C733 C 0.87522 0.65859 0.4953 0.0
C734 C 0.89223 0.66083 0.50247 0.0
C735 C 0.89464 0.64477 0.50068 0.0
C736 C 0.87967 0.62646 0.49153 0.0
C737 C 0.86266 0.62425 0.48438 0.0
C738 C 0.83136 0.63151 0.51297 0.0
C739 C 0.83569 0.64681 0.5276 0.0
C740 C 0.84036 0.64585 0.54715 0.0
C741 C 0.84122 0.62975 0.55239 0.0
C742 C 0.83633 0.61416 0.53773 0.0
C743 C 0.83134 0.61499 0.5182 0.0
C744 C 0.79687 0.62914 0.49986 0.0
C745 C 0.7962 0.64488 0.50907 0.0
C746 C 0.78491 0.64204 0.52477 0.0
C747 C 0.77436 0.62346 0.53184 0.0
C748 C 0.77458 0.60754 0.52212 0.0
C749 C 0.78575 0.61037 0.50625 0.0
C750 C 0.8112 0.65276 0.37248 0.0
C751 C 0.91266 0.64705 0.50833 0.0
H752 H 0.33292 0.12641 0.37887 0.0
H753 H 0.37905 0.31587 0.51974 0.0
H754 H 0.33554 0.1447 0.50264 0.0
H755 H 0.32868 0.11218 0.48988 0.0
H756 H 0.38083 0.13966 0.46072 0.0
H757 H 0.38798 0.17223 0.47412 0.0
H758 H 0.33058 0.15434 0.45991 0.0
H759 H 0.32619 0.13805 0.42662 0.0
H760 H 0.38141 0.18639 0.4142 0.0
H761 H 0.38575 0.20237 0.44769 0.0
H762 H 0.32781 0.18991 0.45846 0.0
H763 H 0.31852 0.20533 0.43494 0.0
H764 H 0.37584 0.25666 0.44137 0.0
H765 H 0.38499 0.24106 0.46506 0.0
H766 H 0.33325 0.21878 0.49447 0.0
H767 H 0.33278 0.24893 0.49907 0.0
H768 H 0.39287 0.28219 0.51786 0.0
H769 H 0.3932 0.25195 0.51289 0.0
H770 H 0.33595 0.20393 0.53285 0.0
H771 H 0.33585 0.21905 0.56523 0.0
H772 H 0.39561 0.24119 0.577 0.0
H773 H 0.39562 0.22627 0.54413 0.0
H774 H 0.33953 0.16885 0.53806 0.0
H775 H 0.34189 0.15178 0.56523 0.0
H776 H 0.39901 0.16995 0.55165 0.0
H777 H 0.39654 0.18711 0.52453 0.0
O778 O 0.33489 0.13319 0.39191 0.0
O779 O 0.36315 0.15863 0.38607 0.0
O780 O 0.34803 0.286 0.50772 0.0
O781 O 0.37881 0.30371 0.51792 0.0
C782 C 0.36394 0.18012 0.49298 0.0
C783 C 0.36156 0.18888 0.47678 0.0
C784 C 0.36148 0.20632 0.48014 0.0
C785 C 0.36372 0.21504 0.49964 0.0
C786 C 0.36579 0.20615 0.51581 0.0
C787 C 0.36609 0.1888 0.51249 0.0
C788 C 0.36226 0.16083 0.48929 0.0
C789 C 0.3459 0.14371 0.49423 0.0
C790 C 0.34195 0.12516 0.48685 0.0
C791 C 0.35414 0.12351 0.47417 0.0
C792 C 0.37115 0.14062 0.47035 0.0
C793 C 0.37528 0.15916 0.47805 0.0
C794 C 0.35854 0.17945 0.45624 0.0
C795 C 0.34172 0.16136 0.44999 0.0
C796 C 0.33924 0.1521 0.43096 0.0
C797 C 0.35347 0.16089 0.41777 0.0
C798 C 0.37018 0.1792 0.424 0.0
C799 C 0.37268 0.18839 0.44308 0.0
C800 C 0.35705 0.21441 0.46345 0.0
C801 C 0.33849 0.20425 0.45435 0.0
C802 C 0.33322 0.21308 0.4409 0.0
C803 C 0.34644 0.23225 0.4364 0.0
C804 C 0.36532 0.24196 0.44475 0.0
C805 C 0.37059 0.23307 0.45816 0.0
C806 C 0.36329 0.23323 0.5032 0.0
C807 C 0.3463 0.23261 0.49952 0.0
C808 C 0.34607 0.24984 0.50219 0.0
C809 C 0.36282 0.268 0.50877 0.0
C810 C 0.37974 0.26848 0.51273 0.0
C811 C 0.37997 0.25123 0.50996 0.0
C812 C 0.3658 0.21409 0.53618 0.0
C813 C 0.34898 0.21193 0.54249 0.0
C814 C 0.34894 0.22047 0.56105 0.0
C815 C 0.36572 0.23129 0.57372 0.0
C816 C 0.38251 0.23309 0.5675 0.0
C817 C 0.38253 0.22449 0.54884 0.0
C818 C 0.36789 0.17924 0.52943 0.0
C819 C 0.3526 0.16928 0.54109 0.0
C820 C 0.35393 0.15945 0.55647 0.0
C821 C 0.37062 0.15952 0.56049 0.0
C822 C 0.38605 0.16981 0.54898 0.0
C823 C 0.38465 0.17952 0.53348 0.0
C824 C 0.35087 0.15091 0.39762 0.0
C825 C 0.36269 0.28639 0.51142 0.0
H826 H 0.81437 0.16942 0.35585 0.0
H827 H 0.96806 0.29979 0.51755 0.0
H828 H 0.79921 0.17897 0.45651 0.0
H829 H 0.76893 0.14764 0.44664 0.0
H830 H 0.78817 0.11723 0.4803 0.0
H831 H 0.81867 0.1482 0.48921 0.0
H832 H 0.83527 0.2111 0.43555 0.0
H833 H 0.82632 0.19833 0.40059 0.0
H834 H 0.82831 0.14746 0.41261 0.0
H835 H 0.83746 0.16051 0.4475 0.0
H836 H 0.8729 0.24759 0.45863 0.0
H837 H 0.89777 0.26483 0.43616 0.0
H838 H 0.90351 0.21454 0.4279 0.0
H839 H 0.87891 0.19761 0.45068 0.0
H840 H 0.87349 0.25469 0.50689 0.0
H841 H 0.90472 0.2843 0.51724 0.0
H842 H 0.93153 0.25249 0.50001 0.0
H843 H 0.90022 0.22294 0.48996 0.0
H844 H 0.84034 0.22543 0.53266 0.0
H845 H 0.85183 0.23683 0.56763 0.0
H846 H 0.89179 0.21842 0.56094 0.0
H847 H 0.87979 0.20654 0.5264 0.0
H848 H 0.80137 0.18944 0.5054 0.0
H849 H 0.77692 0.1686 0.52676 0.0
H850 H 0.813 0.14927 0.54849 0.0
H851 H 0.83747 0.17046 0.52735 0.0
O852 O 0.818 0.17424 0.36972 0.0
O853 O 0.81913 0.14833 0.3767 0.0
O854 O 0.94104 0.30392 0.52242 0.0
O855 O 0.95553 0.28828 0.51364 0.0
C856 C 0.82951 0.18463 0.47965 0.0
C857 C 0.84228 0.19449 0.46527 0.0
C858 C 0.8603 0.2116 0.47114 0.0
C859 C 0.8656 0.2188 0.49137 0.0
C860 C 0.85291 0.20881 0.50576 0.0
C861 C 0.83474 0.19195 0.49989 0.0
C862 C 0.81108 0.16588 0.4737 0.0
C863 C 0.7969 0.16552 0.46164 0.0
C864 C 0.77967 0.14773 0.4561 0.0
C865 C 0.77628 0.13023 0.46297 0.0
C866 C 0.79041 0.13064 0.47511 0.0
C867 C 0.80777 0.14828 0.4802 0.0
C868 C 0.83695 0.1867 0.44404 0.0
C869 C 0.83382 0.19723 0.43058 0.0
C870 C 0.82868 0.18988 0.41063 0.0
C871 C 0.82657 0.17185 0.40381 0.0
C872 C 0.82979 0.16137 0.41738 0.0
C873 C 0.83497 0.16877 0.43731 0.0
C874 C 0.87415 0.22139 0.45625 0.0
C875 C 0.87943 0.24027 0.4518 0.0
C876 C 0.89355 0.25003 0.4389 0.0
C877 C 0.90262 0.24104 0.4303 0.0
C878 C 0.89693 0.22191 0.43446 0.0
C879 C 0.8828 0.21217 0.44732 0.0
C880 C 0.88461 0.23673 0.49758 0.0
C881 C 0.88613 0.25416 0.5054 0.0
C882 C 0.90398 0.27104 0.51127 0.0
C883 C 0.92063 0.27078 0.50941 0.0
C884 C 0.91901 0.25323 0.50161 0.0
C885 C 0.90115 0.23634 0.49579 0.0
C886 C 0.85929 0.21524 0.52704 0.0
C887 C 0.85145 0.22373 0.53887 0.0
C888 C 0.85811 0.23033 0.55876 0.0
C889 C 0.87272 0.22852 0.56707 0.0
C890 C 0.88033 0.21977 0.55513 0.0
C891 C 0.87363 0.21314 0.53534 0.0
C892 C 0.82118 0.18147 0.51485 0.0
C893 C 0.8041 0.18097 0.51506 0.0
C894 C 0.7901 0.16891 0.52714 0.0
C895 C 0.79292 0.15709 0.5392 0.0
C896 C 0.81043 0.15832 0.53956 0.0
C897 C 0.82444 0.17042 0.5275 0.0
C898 C 0.82102 0.16404 0.38262 0.0
C899 C 0.93963 0.28869 0.51557 0.0
H900 H 0.02392 0.5389 0.35625 0.0
H901 H 0.01537 0.39718 0.18443 0.0
H902 H 0.98128 0.52235 0.26027 0.0
H903 H 0.99229 0.55655 0.27196 0.0
H904 H 0.03393 0.57672 0.22859 0.0
H905 H 0.02378 0.54277 0.2181 0.0
H906 H 0.986 0.48931 0.28178 0.0
H907 H 0.99729 0.50578 0.31547 0.0
H908 H 0.04809 0.55301 0.29355 0.0
H909 H 0.03674 0.53626 0.25999 0.0
H910 H 0.98399 0.44906 0.25909 0.0
H911 H 0.99763 0.43591 0.28059 0.0
H912 H 0.05294 0.48958 0.28061 0.0
H913 H 0.03939 0.50183 0.25796 0.0
H914 H 0.96639 0.43611 0.21742 0.0
H915 H 0.96707 0.40723 0.2048 0.0
H916 H 0.02806 0.44422 0.20271 0.0
H917 H 0.02713 0.47298 0.21522 0.0
H918 H 0.95494 0.45448 0.19178 0.0
H919 H 0.94797 0.43389 0.16038 0.0
H920 H 0.00743 0.46876 0.14944 0.0
H921 H 0.01426 0.48858 0.18107 0.0
H922 H 0.95947 0.50233 0.21263 0.0
H923 H 0.95202 0.52026 0.19021 0.0
H924 H 0.00288 0.53622 0.1609 0.0
H925 H 0.01028 0.51846 0.18339 0.0
O926 O 0.01976 0.5326 0.34283 0.0
O927 O 0.04558 0.55655 0.3308 0.0
O928 O 0.98346 0.38978 0.19179 0.0
O929 O 0.01475 0.40826 0.18986 0.0
C930 C 0.99785 0.50987 0.23374 0.0
C931 C 0.00341 0.50158 0.24803 0.0
C932 C 0.00273 0.48389 0.24278 0.0
C933 C 0.99608 0.47429 0.2234 0.0
C934 C 0.99013 0.48234 0.20926 0.0
C935 C 0.99092 0.50006 0.21442 0.0
C936 C 0.00173 0.53006 0.23834 0.0
C937 C 0.99258 0.5342 0.25315 0.0
C938 C 0.99884 0.55374 0.25972 0.0
C939 C 0.0142 0.56941 0.2514 0.0
C940 C 0.02238 0.56505 0.23565 0.0
C941 C 0.01637 0.54561 0.22936 0.0
C942 C 0.01046 0.51167 0.26844 0.0
C943 C -0.00043 0.5032 0.28431 0.0
C944 C 0.00605 0.51266 0.30352 0.0
C945 C 0.02357 0.53075 0.3072 0.0
C946 C 0.03451 0.53912 0.29123 0.0
C947 C 0.02803 0.52962 0.27204 0.0
C948 C 0.01068 0.47641 0.25698 0.0
C949 C 0.99906 0.45791 0.26374 0.0
C950 C 0.00687 0.45054 0.27622 0.0
C951 C 0.02644 0.46166 0.28241 0.0
C952 C 0.03791 0.48042 0.27593 0.0
C953 C 0.03014 0.4876 0.26318 0.0
C954 C 0.99671 0.45657 0.21725 0.0
C955 C 0.97988 0.43789 0.21435 0.0
C956 C 0.98032 0.42145 0.20711 0.0
C957 C 0.99763 0.42343 0.20267 0.0
C958 C 0.0145 0.44217 0.20594 0.0
C959 C 0.01403 0.4586 0.21317 0.0
C960 C 0.98507 0.47302 0.18858 0.0
C961 C 0.96631 0.45792 0.18229 0.0
C962 C 0.96239 0.44619 0.16439 0.0
C963 C 0.97721 0.44949 0.15257 0.0
C964 C 0.99576 0.46553 0.1584 0.0
C965 C -0.00033 0.47708 0.17631 0.0
C966 C 0.9853 0.50893 0.19949 0.0
C967 C 0.9688 0.50944 0.20114 0.0
C968 C 0.96457 0.51965 0.18835 0.0
C969 C 0.97693 0.52971 0.1739 0.0
C970 C 0.9932 0.52876 0.17202 0.0
C971 C 0.99732 0.51842 0.18468 0.0
C972 C 0.03036 0.5408 0.32761 0.0
C973 C 0.99811 0.4061 0.19449 0.0
H974 H 0.47807 0.52459 0.34984 0.0
H975 H 0.37792 0.34857 0.19517 0.0
H976 H 0.49415 0.5188 0.24344 0.0
H977 H 0.51974 0.55315 0.25223 0.0
H978 H 0.55994 0.53517 0.25889 0.0
H979 H 0.53403 0.50057 0.25014 0.0
H980 H 0.46229 0.49335 0.26637 0.0
H981 H 0.46492 0.50779 0.30016 0.0
H982 H 0.50754 0.49515 0.31691 0.0
H983 H 0.50459 0.48053 0.28311 0.0
H984 H 0.43217 0.45798 0.23773 0.0
H985 H 0.40564 0.44645 0.25867 0.0
H986 H 0.4339 0.42939 0.29923 0.0
H987 H 0.46029 0.44065 0.27791 0.0
H988 H 0.43741 0.44581 0.19609 0.0
H989 H 0.40831 0.4152 0.18243 0.0
H990 H 0.41999 0.3831 0.22263 0.0
H991 H 0.44919 0.41379 0.23598 0.0
H992 H 0.47799 0.47808 0.18103 0.0
H993 H 0.47257 0.46544 0.14608 0.0
H994 H 0.46679 0.41183 0.16205 0.0
H995 H 0.47343 0.42504 0.1972 0.0
H996 H 0.50698 0.51227 0.20429 0.0
H997 H 0.53328 0.52938 0.18357 0.0
H998 H 0.54522 0.48348 0.18644 0.0
H999 H 0.5192 0.46681 0.20791 0.0
O1000 O 0.47724 0.51878 0.33657 0.0
O1001 O 0.49917 0.51207 0.34438 0.0
O1002 O 0.38405 0.37806 0.17987 0.0
O1003 O 0.38933 0.36089 0.20033 0.0
C1004 C 0.49655 0.48669 0.23976 0.0
C1005 C 0.48148 0.47682 0.2519 0.0
C1006 C 0.46479 0.45885 0.24441 0.0
C1007 C 0.46334 0.45051 0.22491 0.0
C1008 C 0.47867 0.46015 0.21289 0.0
C1009 C 0.49537 0.47814 0.22045 0.0
C1010 C 0.51225 0.50724 0.24625 0.0
C1011 C 0.50845 0.52226 0.24697 0.0
C1012 C 0.52309 0.54186 0.25179 0.0
C1013 C 0.54183 0.54682 0.25605 0.0
C1014 C 0.54559 0.53171 0.25571 0.0
C1015 C 0.53088 0.51202 0.25072 0.0
C1016 C 0.4831 0.48571 0.27237 0.0
C1017 C 0.47208 0.49358 0.27741 0.0
C1018 C 0.47366 0.50189 0.2967 0.0
C1019 C 0.4864 0.50259 0.31126 0.0
C1020 C 0.49755 0.49482 0.30607 0.0
C1021 C 0.49592 0.48647 0.28679 0.0
C1022 C 0.44806 0.45004 0.25628 0.0
C1023 C 0.43247 0.45145 0.25097 0.0
C1024 C 0.41746 0.44509 0.26306 0.0
C1025 C 0.41779 0.43719 0.28067 0.0
C1026 C 0.43322 0.4353 0.28568 0.0
C1027 C 0.44828 0.44173 0.27357 0.0
C1028 C 0.44547 0.43198 0.21691 0.0
C1029 C 0.43369 0.43213 0.20186 0.0
C1030 C 0.41706 0.41464 0.19412 0.0
C1031 C 0.41184 0.39668 0.20141 0.0
C1032 C 0.4236 0.39665 0.21666 0.0
C1033 C 0.44026 0.41416 0.22434 0.0
C1034 C 0.47639 0.45263 0.19169 0.0
C1035 C 0.47615 0.46387 0.17703 0.0
C1036 C 0.47297 0.45663 0.15713 0.0
C1037 C 0.46945 0.43781 0.15158 0.0
C1038 C 0.46964 0.42647 0.16613 0.0
C1039 C 0.47336 0.43395 0.1861 0.0
C1040 C 0.51135 0.48844 0.20779 0.0
C1041 C 0.51542 0.50604 0.20064 0.0
C1042 C 0.5303 0.51565 0.1886 0.0
C1043 C 0.54128 0.50772 0.18328 0.0
C1044 C 0.53714 0.49005 0.19045 0.0
C1045 C 0.52226 0.48047 0.2026 0.0
C1046 C 0.48805 0.51141 0.33174 0.0
C1047 C 0.39423 0.37804 0.19318 0.0
H1048 H 0.50661 0.98288 0.37874 0.0
H1049 H 0.39769 0.01489 0.21867 0.0
H1050 H 0.53933 0.01593 0.2786 0.0
H1051 H 0.5593 0.00546 0.29328 0.0
H1052 H 0.52073 0.94625 0.26528 0.0
H1053 H 0.50081 0.95691 0.2507 0.0
H1054 H 0.50835 0.01741 0.30561 0.0
H1055 H 0.51026 0.00861 0.33888 0.0
H1056 H 0.48103 0.94718 0.3156 0.0
H1057 H 0.47908 0.95619 0.28246 0.0
H1058 H 0.48267 0.03028 0.28625 0.0
H1059 H 0.45956 0.03083 0.30724 0.0
H1060 H 0.42466 0.96713 0.29836 0.0
H1061 H 0.44822 0.96682 0.27791 0.0
H1062 H 0.48705 0.03995 0.24052 0.0
H1063 H 0.46457 0.04932 0.23104 0.0
H1064 H 0.41799 0.98885 0.23139 0.0
H1065 H 0.44066 0.97966 0.24063 0.0
H1066 H 0.51505 0.03643 0.21577 0.0
H1067 H 0.51013 0.04426 0.18289 0.0
H1068 H 0.45739 0.98737 0.17245 0.0
H1069 H 0.46294 0.97947 0.20484 0.0
H1070 H 0.53951 0.02803 0.23191 0.0
H1071 H 0.55951 0.02845 0.2061 0.0
H1072 H 0.5176 0.96703 0.1872 0.0
H1073 H 0.49737 0.96718 0.21249 0.0
O1074 O 0.5056 0.98602 0.36549 0.0
O1075 O 0.49057 0.95465 0.35277 0.0
O1076 O 0.43134 0.04245 0.22229 0.0
O1077 O 0.40689 0.01159 0.22237 0.0
C1078 C 0.5051 0.99274 0.25768 0.0
C1079 C 0.49284 0.99288 0.27151 0.0
C1080 C 0.47995 0.99838 0.26618 0.0
C1081 C 0.47916 0.00354 0.24697 0.0
C1082 C 0.49129 0.0032 0.23309 0.0
C1083 C 0.50435 0.99792 0.2385 0.0
C1084 C 0.51872 0.98718 0.26358 0.0
C1085 C 0.53549 0.00083 0.27526 0.0
C1086 C 0.54685 0.99482 0.2836 0.0
C1087 C 0.5415 0.97501 0.28049 0.0
C1088 C 0.52509 0.96156 0.26806 0.0
C1089 C 0.51381 0.96763 0.2596 0.0
C1090 C 0.49363 0.98744 0.29169 0.0
C1091 C 0.50231 0.00206 0.30778 0.0
C1092 C 0.50341 0.99699 0.32674 0.0
C1093 C 0.49583 0.97719 0.3299 0.0
C1094 C 0.48704 0.96256 0.31368 0.0
C1095 C 0.48592 0.96766 0.29475 0.0
C1096 C 0.46702 0.99853 0.28057 0.0
C1097 C 0.47016 0.01647 0.28914 0.0
C1098 C 0.45688 0.01673 0.30098 0.0
C1099 C 0.44014 0.99902 0.3043 0.0
C1100 C 0.43747 0.98102 0.29629 0.0
C1101 C 0.45084 0.98079 0.28455 0.0
C1102 C 0.46546 0.00916 0.2413 0.0
C1103 C 0.47199 0.02876 0.23849 0.0
C1104 C 0.45911 0.03406 0.23311 0.0
C1105 C 0.43946 0.01982 0.23049 0.0
C1106 C 0.43301 0.00018 0.23332 0.0
C1107 C 0.44591 0.9949 0.23865 0.0
C1108 C 0.48941 0.00734 0.21257 0.0
C1109 C 0.50269 0.02553 0.20613 0.0
C1110 C 0.49973 0.03004 0.18745 0.0
C1111 C 0.48335 0.01646 0.17498 0.0
C1112 C 0.47034 0.99806 0.18143 0.0
C1113 C 0.4734 0.99353 0.2 0.0
C1114 C 0.51704 0.9976 0.22394 0.0
C1115 C 0.53475 0.01468 0.2222 0.0
C1116 C 0.54619 0.01483 0.20752 0.0
C1117 C 0.54017 0.99778 0.19448 0.0
C1118 C 0.52254 0.98053 0.1967 0.0
C1119 C 0.51104 0.98049 0.21124 0.0
C1120 C 0.49713 0.97186 0.35003 0.0
C1121 C 0.42572 0.02538 0.22481 0.0
H1122 H 0.52837 0.06034 0.71037 0.0
H1123 H 0.58698 0.95074 0.83849 0.0
H1124 H 0.51107 0.04386 0.8133 0.0
H1125 H 0.49108 0.05415 0.79844 0.0
H1126 H 0.44435 0.9933 0.78875 0.0
H1127 H 0.46446 0.98319 0.80397 0.0
H1128 H 0.54154 0.04348 0.78926 0.0
H1129 H 0.54109 0.05578 0.75759 0.0
H1130 H 0.48835 0.00093 0.73813 0.0
H1131 H 0.48912 0.98873 0.76978 0.0
H1132 H 0.56638 0.03072 0.81176 0.0
H1133 H 0.59073 0.03853 0.78861 0.0
H1134 H 0.54865 0.99062 0.74667 0.0
H1135 H 0.52431 0.983 0.76999 0.0
H1136 H 0.56033 0.01551 0.85028 0.0
H1137 H 0.58247 0.00547 0.85887 0.0
H1138 H 0.54971 0.95282 0.81778 0.0
H1139 H 0.52756 0.96296 0.80951 0.0
H1140 H 0.533 0.01807 0.87212 0.0
H1141 H 0.53978 0.00899 0.90321 0.0
H1142 H 0.50656 0.9475 0.87952 0.0
H1143 H 0.50105 0.95707 0.84799 0.0
H1144 H 0.5022 0.03061 0.852 0.0
H1145 H 0.4804 0.02964 0.87593 0.0
H1146 H 0.45181 0.96625 0.87211 0.0
H1147 H 0.47335 0.96726 0.84766 0.0
O1148 O 0.52835 0.05512 0.72273 0.0
O1149 O 0.50119 0.0267 0.71349 0.0
O1150 O 0.59475 0.98232 0.85635 0.0
O1151 O 0.57845 0.95507 0.83537 0.0
C1152 C 0.50243 0.00651 0.81482 0.0
C1153 C 0.51547 0.00793 0.80116 0.0
C1154 C 0.52876 0.00283 0.80611 0.0
C1155 C 0.52865 0.99576 0.82447 0.0
C1156 C 0.51556 0.99428 0.83811 0.0
C1157 C 0.50247 -0.00027 0.83335 0.0
C1158 C 0.4892 0.0128 0.80958 0.0
C1159 C 0.49637 0.03282 0.8084 0.0
C1160 C 0.485 0.03864 0.79977 0.0
C1161 C 0.46625 0.0245 0.79215 0.0
C1162 C 0.45871 0.00454 0.79457 0.0
C1163 C 0.47013 0.99873 0.80324 0.0
C1164 C 0.51541 0.0152 0.78175 0.0
C1165 C 0.52999 0.0341 0.77807 0.0
C1166 C 0.52965 0.04111 0.76 0.0
C1167 C 0.51467 0.02935 0.74532 0.0
C1168 C 0.50009 0.01037 0.7491 0.0
C1169 C 0.50049 0.00337 0.76715 0.0
C1170 C 0.54364 0.00624 0.79258 0.0
C1171 C 0.5625 0.02173 0.79769 0.0
C1172 C 0.57637 0.02617 0.78444 0.0
C1173 C 0.57161 0.01522 0.76578 0.0
C1174 C 0.55271 0.99948 0.76083 0.0
C1175 C 0.53884 0.99501 0.77415 0.0
C1176 C 0.54229 0.98987 0.82941 0.0
C1177 C 0.55792 0.00176 0.84325 0.0
C1178 C 0.57056 0.99602 0.84807 0.0
C1179 C 0.56783 0.9783 0.83904 0.0
C1180 C 0.55221 0.96652 0.82504 0.0
C1181 C 0.53956 0.97228 0.82026 0.0
C1182 C 0.51662 0.98823 0.85787 0.0
C1183 C 0.52696 0.00262 0.87382 0.0
C1184 C 0.5307 0.99733 0.89165 0.0
C1185 C 0.52385 0.97745 0.89397 0.0
C1186 C 0.51247 0.96297 0.8782 0.0
C1187 C 0.50909 0.96835 0.86023 0.0
C1188 C 0.4893 0.99901 0.848 0.0
C1189 C 0.4911 0.0165 0.85616 0.0
C1190 C 0.47867 0.01592 0.8698 0.0
C1191 C 0.46439 0.99785 0.87577 0.0
C1192 C 0.46276 0.98036 0.8678 0.0
C1193 C 0.47503 0.98093 0.85389 0.0
C1194 C 0.51427 0.0369 0.72621 0.0
C1195 C 0.58119 0.97209 0.84416 0.0
H1196 H 0.96405 0.47665 0.71475 0.0
H1197 H 0.03136 0.64135 0.88044 0.0
H1198 H 0.97474 0.47198 0.82101 0.0
H1199 H 0.96807 0.43903 0.81053 0.0
H1200 H 0.02816 0.46134 0.81794 0.0
H1201 H 0.03474 0.49441 0.82835 0.0
H1202 H 0.97194 0.50279 0.79897 0.0
H1203 H 0.96328 0.49082 0.76382 0.0
H1204 H 0.01942 0.50127 0.75774 0.0
H1205 H 0.02795 0.51341 0.79288 0.0
H1206 H 0.97702 0.53787 0.82487 0.0
H1207 H 0.97303 0.56004 0.80552 0.0
H1208 H 0.02616 0.57796 0.7801 0.0
H1209 H 0.03014 0.55592 0.79976 0.0
H1210 H 0.98784 0.54335 0.87138 0.0
H1211 H 0.98957 0.57325 0.88521 0.0
H1212 H 0.04014 0.6085 0.85497 0.0
H1213 H 0.03841 0.5785 0.8415 0.0
H1214 H 0.99414 0.51126 0.89039 0.0
H1215 H 0.99915 0.52416 0.92526 0.0
H1216 H 0.05116 0.57698 0.91351 0.0
H1217 H 0.04661 0.5636 0.87876 0.0
H1218 H 0.98795 0.47572 0.86353 0.0
H1219 H 0.99294 0.45648 0.88607 0.0
H1220 H 0.05209 0.50364 0.89736 0.0
H1221 H 0.04714 0.52221 0.87369 0.0
O1222 O 0.9678 0.48153 0.7286 0.0
O1223 O 0.99684 0.48713 0.72627 0.0
O1224 O 0.00453 0.61052 0.89072 0.0
O1225 O 0.0303 0.62929 0.87511 0.0
C1226 C 0.00882 0.50508 0.8328 0.0
C1227 C 0.00577 0.51617 0.8198 0.0
C1228 C 0.00739 0.53388 0.82722 0.0
C1229 C 0.01218 0.54058 0.84757 0.0
C1230 C 0.01569 0.52972 0.86051 0.0
C1231 C 0.01404 0.51195 0.85312 0.0
C1232 C 0.00521 0.48552 0.82538 0.0
C1233 C 0.98647 0.46977 0.82019 0.0
C1234 C 0.98268 0.45098 0.81441 0.0
C1235 C 0.9976 0.44765 0.81359 0.0
C1236 C 0.01642 0.46355 0.81839 0.0
C1237 C 0.0202 0.48237 0.82434 0.0
C1238 C 0.00059 0.50905 0.79843 0.0
C1239 C 0.98238 0.50261 0.78998 0.0
C1240 C 0.97746 0.49571 0.76992 0.0
C1241 C 0.99066 0.49509 0.75796 0.0
C1242 C 0.00891 0.50156 0.76652 0.0
C1243 C 0.01382 0.50848 0.78658 0.0
C1244 C 0.00392 0.54545 0.81377 0.0
C1245 C 0.98764 0.54641 0.81491 0.0
C1246 C 0.98535 0.55897 0.80378 0.0
C1247 C 0.99935 0.57079 0.79139 0.0
C1248 C 0.01527 0.56917 0.7897 0.0
C1249 C 0.01751 0.55655 0.80079 0.0
C1250 C 0.01301 0.55877 0.85547 0.0
C1251 C 0.99928 0.55755 0.86778 0.0
C1252 C 0.0003 0.57465 0.87564 0.0
C1253 C 0.01501 0.59328 0.87121 0.0
C1254 C 0.02863 0.5944 0.85869 0.0
C1255 C 0.02765 0.57729 0.85092 0.0
C1256 C 0.02 0.53649 0.88202 0.0
C1257 C 0.00692 0.52533 0.89544 0.0
C1258 C 0.00977 0.5327 0.9153 0.0
C1259 C 0.02552 0.55152 0.92193 0.0
C1260 C 0.03892 0.56243 0.90866 0.0
C1261 C 0.03631 0.55484 0.88888 0.0
C1262 C 0.01722 0.50027 0.8668 0.0
C1263 C 0.00205 0.48174 0.87062 0.0
C1264 C 0.0049 0.47089 0.88375 0.0
C1265 C 0.02291 0.47854 0.89368 0.0
C1266 C 0.0381 0.49716 0.88979 0.0
C1267 C 0.03528 0.50788 0.87641 0.0
C1268 C 0.98537 0.4877 0.73666 0.0
C1269 C 0.01623 0.61149 0.87963 0.0
H1270 H 0.48672 0.50209 0.69901 0.0
H1271 H 0.64246 0.63688 0.85897 0.0
H1272 H 0.47085 0.51653 0.79966 0.0
H1273 H 0.44194 0.48389 0.79027 0.0
H1274 H 0.4652 0.45762 0.82504 0.0
H1275 H 0.49391 0.49004 0.83411 0.0
H1276 H 0.50929 0.54866 0.77631 0.0
H1277 H 0.49986 0.53382 0.74193 0.0
H1278 H 0.49949 0.48283 0.75845 0.0
H1279 H 0.50915 0.49794 0.7927 0.0
H1280 H 0.5522 0.58612 0.79855 0.0
H1281 H 0.57931 0.59907 0.77836 0.0
H1282 H 0.5742 0.54255 0.77384 0.0
H1283 H 0.54816 0.53034 0.79526 0.0
H1284 H 0.54868 0.59654 0.84465 0.0
H1285 H 0.58052 0.62547 0.85434 0.0
H1286 H 0.60447 0.58966 0.84369 0.0
H1287 H 0.57255 0.56082 0.83427 0.0
H1288 H 0.51413 0.57041 0.87158 0.0
H1289 H 0.52465 0.58314 0.90656 0.0
H1290 H 0.56262 0.56186 0.90508 0.0
H1291 H 0.55167 0.54881 0.87054 0.0
H1292 H 0.47449 0.53191 0.84794 0.0
H1293 H 0.45135 0.51354 0.87175 0.0
H1294 H 0.4884 0.49596 0.89477 0.0
H1295 H 0.51127 0.51415 0.87093 0.0
O1296 O 0.49053 0.50772 0.71267 0.0
O1297 O 0.4904 0.48178 0.72197 0.0
O1298 O 0.61668 0.64341 0.86061 0.0
O1299 O 0.62971 0.62567 0.85525 0.0
C1300 C 0.50245 0.52501 0.82254 0.0
C1301 C 0.51532 0.5334 0.80786 0.0
C1302 C 0.5337 0.55026 0.81309 0.0
C1303 C 0.53894 0.55912 0.83288 0.0
C1304 C 0.52595 0.55089 0.84747 0.0
C1305 C 0.50771 0.53388 0.8423 0.0
C1306 C 0.48436 0.50565 0.81772 0.0
C1307 C 0.46956 0.5037 0.80534 0.0
C1308 C 0.45315 0.4851 0.79996 0.0
C1309 C 0.45128 0.46823 0.80702 0.0
C1310 C 0.46605 0.47035 0.81966 0.0
C1311 C 0.48246 0.48886 0.82485 0.0
C1312 C 0.50973 0.5243 0.78701 0.0
C1313 C 0.50719 0.5343 0.77245 0.0
C1314 C 0.50178 0.52578 0.75284 0.0
C1315 C 0.49885 0.5071 0.74745 0.0
C1316 C 0.50156 0.49719 0.7621 0.0
C1317 C 0.50701 0.50575 0.78169 0.0
C1318 C 0.54821 0.5573 0.79841 0.0
C1319 C 0.55689 0.57654 0.79306 0.0
C1320 C 0.57231 0.58385 0.78138 0.0
C1321 C 0.5791 0.57191 0.77455 0.0
C1322 C 0.56968 0.55232 0.77917 0.0
C1323 C 0.55455 0.54518 0.79115 0.0
C1324 C 0.55834 0.57664 0.83862 0.0
C1325 C 0.56083 0.59499 0.84443 0.0
C1326 C 0.57903 0.61149 0.84994 0.0
C1327 C 0.59506 0.60989 0.84973 0.0
C1328 C 0.59246 0.59142 0.84396 0.0
C1329 C 0.57425 0.57494 0.83851 0.0
C1330 C 0.53224 0.55881 0.86855 0.0
C1331 C 0.52467 0.5685 0.87891 0.0
C1332 C 0.53075 0.57581 0.89881 0.0
C1333 C 0.5444 0.57343 0.90861 0.0
C1334 C 0.55186 0.56366 0.89809 0.0
C1335 C 0.54579 0.55638 0.8783 0.0
C1336 C 0.49454 0.52439 0.8578 0.0
C1337 C 0.47766 0.52428 0.85832 0.0
C1338 C 0.46454 0.51387 0.87192 0.0
C1339 C 0.46808 0.50328 0.88499 0.0
C1340 C 0.48524 0.50386 0.88472 0.0
C1341 C 0.49837 0.51435 0.87125 0.0
C1342 C 0.49301 0.49804 0.72663 0.0
C1343 C 0.61442 0.62737 0.85554 0.0
H1344 H 0.64143 0.82003 0.70227 0.0
H1345 H 0.65756 0.70789 0.52101 0.0
H1346 H 0.61294 0.82066 0.59987 0.0
H1347 H 0.61583 0.85051 0.61585 0.0
H1348 H 0.67121 0.88579 0.59377 0.0
H1349 H 0.66786 0.85592 0.57742 0.0
H1350 H 0.61745 0.78713 0.61947 0.0
H1351 H 0.62237 0.79616 0.65528 0.0
H1352 H 0.67802 0.84692 0.64821 0.0
H1353 H 0.67298 0.83761 0.61246 0.0
H1354 H 0.61591 0.75283 0.59289 0.0
H1355 H 0.62316 0.73026 0.607 0.0
H1356 H 0.68263 0.77686 0.61569 0.0
H1357 H 0.67514 0.79937 0.60187 0.0
H1358 H 0.60874 0.74919 0.54678 0.0
H1359 H 0.60923 0.72092 0.53167 0.0
H1360 H 0.67027 0.75328 0.54464 0.0
H1361 H 0.66958 0.78152 0.55946 0.0
H1362 H 0.60411 0.77728 0.52535 0.0
H1363 H 0.60077 0.76285 0.49125 0.0
H1364 H 0.66171 0.78976 0.49316 0.0
H1365 H 0.66481 0.8038 0.52721 0.0
H1366 H 0.60515 0.8153 0.553 0.0
H1367 H 0.60083 0.83607 0.53175 0.0
H1368 H 0.6577 0.85958 0.51354 0.0
H1369 H 0.66164 0.83841 0.5345 0.0
O1370 O 0.63982 0.81667 0.68809 0.0
O1371 O 0.6683 0.84257 0.68365 0.0
O1372 O 0.62556 0.70284 0.52058 0.0
O1373 O 0.65694 0.7188 0.527 0.0
C1374 C 0.6391 0.8181 0.57907 0.0
C1375 C 0.64165 0.80637 0.59169 0.0
C1376 C 0.64143 0.78962 0.58356 0.0
C1377 C 0.6388 0.78467 0.56288 0.0
C1378 C 0.63638 0.79645 0.55031 0.0
C1379 C 0.63635 0.81306 0.55838 0.0
C1380 C 0.64019 0.83619 0.58754 0.0
C1381 C 0.62557 0.83489 0.59834 0.0
C1382 C 0.62732 0.85194 0.60754 0.0
C1383 C 0.64381 0.87056 0.60619 0.0
C1384 C 0.65821 0.87176 0.59489 0.0
C1385 C 0.65638 0.85472 0.58561 0.0
C1386 C 0.64483 0.81176 0.61341 0.0
C1387 C 0.63072 0.80015 0.62571 0.0
C1388 C 0.63355 0.80537 0.64615 0.0
C1389 C 0.65058 0.82229 0.65461 0.0
C1390 C 0.66474 0.83382 0.64218 0.0
C1391 C 0.66189 0.82856 0.62176 0.0
C1392 C 0.64502 0.77766 0.59632 0.0
C1393 C 0.63039 0.75828 0.59842 0.0
C1394 C 0.6346 0.7454 0.60629 0.0
C1395 C 0.65351 0.75171 0.61213 0.0
C1396 C 0.66791 0.77159 0.61143 0.0
C1397 C 0.66368 0.78448 0.60356 0.0
C1398 C 0.63911 0.76734 0.55422 0.0
C1399 C 0.62219 0.75012 0.54633 0.0
C1400 C 0.62252 0.734 0.53773 0.0
C1401 C 0.63981 0.73484 0.53694 0.0
C1402 C 0.65672 0.75213 0.545 0.0
C1403 C 0.65637 0.76826 0.55353 0.0
C1404 C 0.63469 0.79152 0.52865 0.0
C1405 C 0.61674 0.78046 0.51815 0.0
C1406 C 0.61487 0.77221 0.49874 0.0
C1407 C 0.63096 0.77492 0.48968 0.0
C1408 C 0.64903 0.7871 0.4999 0.0
C1409 C 0.65087 0.79531 0.51923 0.0
C1410 C 0.63366 0.82533 0.54518 0.0
C1411 C 0.6166 0.82489 0.54432 0.0
C1412 C 0.61423 0.83684 0.53228 0.0
C1413 C 0.62892 0.8495 0.52094 0.0
C1414 C 0.64598 0.84978 0.52182 0.0
C1415 C 0.64831 0.83778 0.53382 0.0
C1416 C 0.65351 0.82785 0.6763 0.0
C1417 C 0.64026 0.71783 0.52768 0.0
H1418 H 0.18795 0.85862 0.71021 0.0
H1419 H 0.05644 0.68418 0.54265 0.0
H1420 H 0.18537 0.85505 0.58395 0.0
H1421 H 0.21447 0.88702 0.59396 0.0
H1422 H 0.23694 0.85852 0.6261 0.0
H1423 H 0.20794 0.82627 0.61532 0.0
H1424 H 0.16749 0.84135 0.62494 0.0
H1425 H 0.17577 0.85343 0.66009 0.0
H1426 H 0.17922 0.80311 0.67071 0.0
H1427 H 0.17113 0.79131 0.63547 0.0
H1428 H 0.12737 0.80466 0.61982 0.0
H1429 H 0.09874 0.78553 0.6371 0.0
H1430 H 0.10379 0.73486 0.62821 0.0
H1431 H 0.13257 0.75419 0.61103 0.0
H1432 H 0.10639 0.77876 0.5799 0.0
H1433 H 0.07566 0.74851 0.5696 0.0
H1434 H 0.10455 0.71874 0.5529 0.0
H1435 H 0.13518 0.74902 0.56356 0.0
H1436 H 0.12687 0.79639 0.54515 0.0
H1437 H 0.11602 0.78624 0.51021 0.0
H1438 H 0.15841 0.77129 0.50247 0.0
H1439 H 0.16862 0.78075 0.53787 0.0
H1440 H 0.16829 0.83423 0.54612 0.0
H1441 H 0.19053 0.85392 0.52255 0.0
H1442 H 0.22815 0.83526 0.54105 0.0
H1443 H 0.20595 0.81606 0.56509 0.0
O1444 O 0.18468 0.85356 0.69637 0.0
O1445 O 0.18609 0.82733 0.70107 0.0
O1446 O 0.05422 0.71227 0.55583 0.0
O1447 O 0.0684 0.69635 0.54679 0.0
C1448 C 0.17692 0.81904 0.59226 0.0
C1449 C 0.16407 0.80834 0.60627 0.0
C1450 C 0.14642 0.79096 0.59986 0.0
C1451 C 0.14163 0.78421 0.57947 0.0
C1452 C 0.15442 0.79497 0.56549 0.0
C1453 C 0.17215 0.81222 0.5719 0.0
C1454 C 0.19466 0.83832 0.59866 0.0
C1455 C 0.19669 0.85564 0.59286 0.0
C1456 C 0.21326 0.87385 0.59861 0.0
C1457 C 0.22793 0.87512 0.61064 0.0
C1458 C 0.22579 0.85784 0.61678 0.0
C1459 C 0.20931 0.8395 0.61067 0.0
C1460 C 0.16885 0.81554 0.62765 0.0
C1461 C 0.17013 0.83302 0.63487 0.0
C1462 C 0.17481 0.83985 0.65497 0.0
C1463 C 0.1782 0.82925 0.66821 0.0
C1464 C 0.17674 0.81164 0.66091 0.0
C1465 C 0.17209 0.80485 0.64081 0.0
C1466 C 0.13196 0.78076 0.61409 0.0
C1467 C 0.12268 0.78964 0.62222 0.0
C1468 C 0.1063 0.77868 0.63204 0.0
C1469 C 0.09893 0.75865 0.63375 0.0
C1470 C 0.10905 0.75021 0.62684 0.0
C1471 C 0.12551 0.76123 0.61716 0.0
C1472 C 0.12298 0.76601 0.57263 0.0
C1473 C 0.10603 0.76566 0.5741 0.0
C1474 C 0.08851 0.74838 0.56816 0.0
C1475 C 0.08764 0.73118 0.56047 0.0
C1476 C 0.1047 0.7317 0.55879 0.0
C1477 C 0.12221 0.74897 0.56482 0.0
C1478 C 0.1484 0.78913 0.54406 0.0
C1479 C 0.13374 0.79082 0.53592 0.0
C1480 C 0.12773 0.78524 0.51588 0.0
C1481 C 0.13642 0.77805 0.50347 0.0
C1482 C 0.15129 0.77658 0.51165 0.0
C1483 C 0.15722 0.78207 0.53181 0.0
C1484 C 0.18548 0.82365 0.55719 0.0
C1485 C 0.18129 0.83432 0.54497 0.0
C1486 C 0.194 0.84549 0.53146 0.0
C1487 C 0.21111 0.84609 0.5298 0.0
C1488 C 0.21522 0.83531 0.54209 0.0
C1489 C 0.20253 0.82423 0.55572 0.0
C1490 C 0.18322 0.83658 0.68954 0.0
C1491 C 0.06906 0.71275 0.55424 0.0
H1492 H 0.21241 0.37448 0.72174 0.0
H1493 H 0.05396 0.32766 0.56304 0.0
H1494 H 0.22073 0.38601 0.62127 0.0
H1495 H 0.24396 0.38167 0.63922 0.0
H1496 H 0.21823 0.32318 0.60865 0.0
H1497 H 0.19479 0.32742 0.59114 0.0
H1498 H 0.18741 0.3844 0.64472 0.0
H1499 H 0.19844 0.38551 0.67881 0.0
H1500 H 0.18947 0.3277 0.66527 0.0
H1501 H 0.17814 0.32664 0.63135 0.0
H1502 H 0.14691 0.37753 0.62395 0.0
H1503 H 0.12267 0.36989 0.64748 0.0
H1504 H 0.1169 0.31393 0.65309 0.0
H1505 H 0.14074 0.32146 0.62938 0.0
H1506 H 0.14876 0.38194 0.57674 0.0
H1507 H 0.11885 0.37888 0.56632 0.0
H1508 H 0.08774 0.31862 0.58055 0.0
H1509 H 0.11778 0.32177 0.5906 0.0
H1510 H 0.17861 0.3837 0.5499 0.0
H1511 H 0.16195 0.38257 0.51884 0.0
H1512 H 0.1198 0.32122 0.52252 0.0
H1513 H 0.13668 0.32222 0.5531 0.0
H1514 H 0.21657 0.38781 0.57092 0.0
H1515 H 0.23578 0.38889 0.54384 0.0
H1516 H 0.19537 0.32679 0.52653 0.0
H1517 H 0.17607 0.32612 0.55317 0.0
O1518 O 0.20765 0.37357 0.70831 0.0
O1519 O 0.20316 0.34401 0.70046 0.0
O1520 O 0.08269 0.36022 0.55967 0.0
O1521 O 0.06599 0.32932 0.56721 0.0
C1522 C 0.18851 0.35689 0.5996 0.0
C1523 C 0.17651 0.35546 0.61459 0.0
C1524 C 0.15907 0.35373 0.60965 0.0
C1525 C 0.15372 0.35376 0.58979 0.0
C1526 C 0.1655 0.35479 0.57475 0.0
C1527 C 0.18292 0.35642 0.57966 0.0
C1528 C 0.20598 0.35698 0.60501 0.0
C1529 C 0.22055 0.37255 0.61792 0.0
C1530 C 0.23368 0.36999 0.62828 0.0
C1531 C 0.23265 0.35197 0.62554 0.0
C1532 C 0.21935 0.33722 0.61101 0.0
C1533 C 0.20604 0.33968 0.60088 0.0
C1534 C 0.18212 0.35552 0.63555 0.0
C1535 C 0.18768 0.37193 0.64921 0.0
C1536 C 0.19404 0.37255 0.66864 0.0
C1537 C 0.19494 0.35674 0.67474 0.0
C1538 C 0.18901 0.34015 0.66105 0.0
C1539 C 0.18257 0.33952 0.64167 0.0
C1540 C 0.14561 0.35007 0.62503 0.0
C1541 C 0.14048 0.3637 0.63039 0.0
C1542 C 0.12667 0.35932 0.64376 0.0
C1543 C 0.118 0.34136 0.65213 0.0
C1544 C 0.12356 0.328 0.6471 0.0
C1545 C 0.13715 0.33227 0.63357 0.0
C1546 C 0.13543 0.35211 0.58451 0.0
C1547 C 0.13546 0.36812 0.57765 0.0
C1548 C 0.11836 0.36632 0.5717 0.0
C1549 C 0.10089 0.34849 0.57261 0.0
C1550 C 0.10093 0.33255 0.57968 0.0
C1551 C 0.11805 0.33434 0.58553 0.0
C1552 C 0.15875 0.35308 0.5538 0.0
C1553 C 0.16624 0.36983 0.54355 0.0
C1554 C 0.15673 0.36919 0.5259 0.0
C1555 C 0.13962 0.35183 0.5185 0.0
C1556 C 0.133 0.33473 0.52799 0.0
C1557 C 0.14262 0.33529 0.54539 0.0
C1558 C 0.19493 0.35692 0.56385 0.0
C1559 C 0.21196 0.37448 0.56124 0.0
C1560 C 0.22293 0.37502 0.54586 0.0
C1561 C 0.21706 0.35795 0.53293 0.0
C1562 C 0.20012 0.3403 0.53593 0.0
C1563 C 0.18912 0.33983 0.5512 0.0
C1564 C 0.20213 0.35763 0.69525 0.0
C1565 C 0.08269 0.34645 0.5661 0.0
H1566 H 0.00432 0.38977 0.07697 0.0
H1567 H 0.95206 0.37025 0.04126 0.0
H1568 H 0.94336 0.38711 0.06663 0.0
H1569 H 0.98438 0.38525 0.12518 0.0
H1570 H 0.00586 0.40683 0.13677 0.0
H1571 H 0.00711 0.39193 0.11648 0.0
H1572 H 0.02533 0.42276 0.09754 0.0
H1573 H 0.02401 0.43771 0.11766 0.0
H1574 H 0.01491 0.43697 0.09304 0.0
H1575 H 0.94175 0.40851 0.09492 0.0
H1576 H 0.94689 0.4315 0.1242 0.0
H1577 H -0.00032 0.43574 0.14138 0.0
C1578 C 0.99091 0.38881 0.07457 0.0
C1579 C 0.97888 0.37872 0.05712 0.0
C1580 C 0.96147 0.37783 0.05456 0.0
C1581 C 0.95642 0.38738 0.06887 0.0
C1582 C 0.96883 0.39754 0.08573 0.0
C1583 C 0.98561 0.3981 0.08872 0.0
C1584 C 0.99678 0.4105 0.10774 0.0
C1585 C 0.99863 0.39787 0.12241 0.0
C1586 C 0.01641 0.42802 0.10375 0.0
C1587 C 0.98393 0.41728 0.11475 0.0
C1588 C 0.96781 0.40961 0.10197 0.0
C1589 C 0.95423 0.41443 0.10514 0.0
C1590 C 0.95724 0.42746 0.12181 0.0
C1591 C 0.97375 0.43554 0.13501 0.0
C1592 C 0.98708 0.43013 0.13142 0.0
H1593 H 0.5938 0.57745 0.10015 0.0
H1594 H 0.64532 0.58054 0.12052 0.0
H1595 H 0.62709 0.55567 0.1434 0.0
H1596 H 0.57582 0.57475 0.14597 0.0
H1597 H 0.55125 0.55786 0.13705 0.0
H1598 H 0.56788 0.57418 0.12085 0.0
H1599 H 0.55912 0.54432 0.09551 0.0
H1600 H 0.54233 0.52787 0.1116 0.0
H1601 H 0.56081 0.52438 0.10335 0.0
H1602 H 0.60362 0.53275 0.16626 0.0
H1603 H 0.57697 0.51361 0.18677 0.0
H1604 H 0.54105 0.52531 0.15054 0.0
C1605 C 0.60124 0.57271 0.10918 0.0
C1606 C 0.62099 0.58094 0.10856 0.0
C1607 C 0.63017 0.57437 0.1207 0.0
C1608 C 0.61994 0.56025 0.13373 0.0
C1609 C 0.60053 0.55274 0.13424 0.0
C1610 C 0.59128 0.55865 0.12215 0.0
C1611 C 0.57061 0.54923 0.12623 0.0
C1612 C 0.56614 0.56494 0.13293 0.0
C1613 C 0.55744 0.53564 0.10809 0.0
C1614 C 0.56979 0.53753 0.14292 0.0
C1615 C 0.5871 0.53955 0.14724 0.0
C1616 C 0.58993 0.53084 0.1628 0.0
C1617 C 0.5747 0.51994 0.17433 0.0
C1618 C 0.55694 0.51798 0.17027 0.0
C1619 C 0.55449 0.52667 0.15414 0.0
H1620 H 0.42818 0.99119 0.06969 0.0
H1621 H 0.44051 0.05096 0.07471 0.0
H1622 H 0.46222 0.05933 0.10451 0.0
H1623 H 0.42514 0.98519 0.11896 0.0
H1624 H 0.43609 0.971 0.11938 0.0
H1625 H 0.42398 0.9706 0.09688 0.0
H1626 H 0.45446 0.9819 0.07858 0.0
H1627 H 0.46667 0.98219 0.10105 0.0
H1628 H 0.4765 0.00398 0.08829 0.0
H1629 H 0.47877 0.05963 0.13631 0.0
H1630 H 0.4893 0.05214 0.16681 0.0
H1631 H 0.46712 0.99251 0.14007 0.0
C1632 C 0.43577 0.00618 0.07676 0.0
C1633 C 0.43267 0.02043 0.06988 0.0
C1634 C 0.44277 0.03984 0.07965 0.0
C1635 C 0.45514 0.04473 0.09658 0.0
C1636 C 0.45743 0.03012 0.10332 0.0
C1637 C 0.4482 0.01131 0.09354 0.0
C1638 C 0.45187 0.99785 0.10454 0.0
C1639 C 0.43316 0.98013 0.11028 0.0
C1640 C 0.46305 0.99109 0.09239 0.0
C1641 C 0.46392 0.01178 0.12251 0.0
C1642 C 0.46719 0.03039 0.12145 0.0
C1643 C 0.47667 0.04525 0.1371 0.0
C1644 C 0.48268 0.04086 0.15435 0.0
C1645 C 0.47913 0.02174 0.15586 0.0
C1646 C 0.47001 0.00724 0.13947 0.0
H1647 H 0.41773 0.97811 0.97874 0.0
H1648 H 0.39604 0.01454 0.96392 0.0
H1649 H 0.40775 0.01639 0.93083 0.0
H1650 H 0.46006 0.00375 0.95606 0.0
H1651 H 0.46055 0.98241 0.94708 0.0
H1652 H 0.44858 0.98192 0.96881 0.0
H1653 H 0.4175 0.95078 0.95265 0.0
H1654 H 0.42943 0.95109 0.93086 0.0
H1655 H 0.40786 0.95121 0.92876 0.0
H1656 H 0.42463 0.01732 0.90086 0.0
H1657 H 0.44473 0.0162 0.87542 0.0
H1658 H 0.45521 0.97893 0.9093 0.0
C1659 C 0.41507 0.98611 0.96839 0.0
C1660 C 0.40593 0.99615 0.97393 0.0
C1661 C 0.403 0.00672 0.96004 0.0
C1662 C 0.40955 0.00783 0.94117 0.0
C1663 C 0.41892 0.99819 0.93634 0.0
C1664 C 0.42154 0.98739 0.94947 0.0
C1665 C 0.43309 0.97944 0.941 0.0
C1666 C 0.45167 0.98736 0.95401 0.0
C1667 C 0.42126 0.95678 0.93815 0.0
C1668 C 0.43696 0.98791 0.92131 0.0
C1669 C 0.42855 0.99857 0.91888 0.0
C1670 C 0.43106 0.00878 0.90245 0.0
C1671 C 0.44257 0.00817 0.88816 0.0
C1672 C 0.45139 0.9974 0.89039 0.0
C1673 C 0.44834 0.98697 0.90708 0.0
H1674 H 0.9917 0.4047 0.97646 0.0
H1675 H 0.04675 0.41092 0.97578 0.0
H1676 H 0.05589 0.43461 0.95081 0.0
H1677 H 0.9848 0.40644 0.92523 0.0
H1678 H 0.97376 0.42046 0.92853 0.0
H1679 H 0.97186 0.40446 0.94663 0.0
H1680 H 0.98617 0.43378 0.97418 0.0
H1681 H 0.98803 0.44987 0.95618 0.0
H1682 H 0.0088 0.45585 0.97154 0.0
H1683 H 0.05819 0.45641 0.92459 0.0
H1684 H 0.05398 0.47544 0.90039 0.0
H1685 H 0.99802 0.45595 0.92004 0.0
C1686 C 0.00571 0.41106 0.97112 0.0
C1687 C 0.0185 0.40592 0.97798 0.0
C1688 C 0.03674 0.41469 0.97072 0.0
C1689 C 0.04204 0.42812 0.95654 0.0
C1690 C 0.02899 0.43273 0.94997 0.0
C1691 C 0.01127 0.42458 0.95717 0.0
C1692 C -0.00017 0.43192 0.94779 0.0
C1693 C 0.98148 0.4148 0.93636 0.0
C1694 C 0.99546 0.44355 0.96335 0.0
C1695 C 0.01375 0.44527 0.93393 0.0
C1696 C 0.03049 0.44556 0.93535 0.0
C1697 C 0.04522 0.45645 0.92352 0.0
C1698 C 0.04273 0.46731 0.90989 0.0
C1699 C 0.02567 0.46725 0.90827 0.0
C1700 C 0.01113 0.45614 0.92063 0.0
H1701 H 0.58977 0.57675 0.01395 0.0
H1702 H 0.60327 0.63667 0.02653 0.0
H1703 H 0.58501 0.63284 0.99539 0.0
H1704 H 0.59558 0.57826 0.96376 0.0
H1705 H 0.57636 0.55321 0.95646 0.0
H1706 H 0.58847 0.55987 0.98076 0.0
H1707 H 0.55638 0.54653 0.99645 0.0
H1708 H 0.54412 0.53974 0.97215 0.0
H1709 H 0.54147 0.55562 0.99003 0.0
H1710 H 0.56784 0.62339 0.96125 0.0
H1711 H 0.55354 0.60925 0.92708 0.0
H1712 H 0.55105 0.55547 0.9375 0.0
C1713 C 0.58863 0.58898 0.01038 0.0
C1714 C 0.59792 0.607 0.0227 0.0
C1715 C 0.59621 0.62269 0.01735 0.0
C1716 C 0.58584 0.62064 -0.00029 0.0
C1717 C 0.57716 0.60277 0.9877 0.0
C1718 C 0.57836 0.58718 0.99289 0.0
C1719 C 0.56887 0.56999 0.97689 0.0
C1720 C 0.58318 0.56506 0.96901 0.0
C1721 C 0.55169 0.5519 0.98433 0.0
C1722 C 0.56265 0.57854 0.9616 0.0
C1723 C 0.56732 0.59736 0.96815 0.0
C1724 C 0.56386 0.60855 0.95608 0.0
C1725 C 0.55567 0.60038 0.93672 0.0
C1726 C 0.55119 0.58127 0.92963 0.0
C1727 C 0.55443 0.57017 0.94244 0.0
H1728 H 0.01486 0.62249 0.99951 0.0
H1729 H 0.01124 0.5852 0.04424 0.0
H1730 H 0.01954 0.56697 0.02022 0.0
H1731 H 0.99341 0.58588 0.96029 0.0
H1732 H 0.00835 0.60062 0.942 0.0
H1733 H 0.00446 0.61227 0.9633 0.0
H1734 H 0.04088 0.63474 0.97207 0.0
H1735 H 0.04487 0.62314 0.9507 0.0
H1736 H 0.05474 0.62375 0.97486 0.0
H1737 H 0.02366 0.5499 0.99023 0.0
H1738 H 0.02516 0.53657 0.95676 0.0
H1739 H 0.02754 0.58582 0.93215 0.0
C1740 C 0.01619 0.61075 0.00439 0.0
C1741 C 0.01239 0.60526 0.02375 0.0
C1742 C 0.01416 0.58973 0.0295 0.0
C1743 C 0.01888 0.57929 0.01597 0.0
C1744 C 0.02208 0.58476 0.99686 0.0
C1745 C 0.02105 0.6003 0.99114 0.0
C1746 C 0.02399 0.60247 0.96942 0.0
C1747 C 0.00651 0.60016 0.95809 0.0
C1748 C 0.04221 0.6222 0.9666 0.0
C1749 C 0.02615 0.58529 0.96366 0.0
C1750 C 0.0251 0.5753 0.9797 0.0
C1751 C 0.02497 0.55786 0.97764 0.0
C1752 C 0.02576 0.55037 0.95866 0.0
C1753 C 0.02684 0.56043 0.94211 0.0
C1754 C 0.02731 0.57822 0.94472 0.0
H1755 H 0.40733 0.40692 0.93876 0.0
H1756 H 0.38586 0.43736 0.97356 0.0
H1757 H 0.40347 0.46614 0.95462 0.0
H1758 H 0.45359 0.44802 0.93702 0.0
H1759 H 0.45618 0.44093 0.91213 0.0
H1760 H 0.44076 0.42236 0.92739 0.0
H1761 H 0.41258 0.40899 0.90073 0.0
H1762 H 0.42794 0.42749 0.88533 0.0
H1763 H 0.40626 0.42553 0.89204 0.0
H1764 H 0.4246 0.49211 0.9323 0.0
H1765 H 0.44799 0.51309 0.90939 0.0
H1766 H 0.45549 0.46523 0.89023 0.0
C1767 C 0.40611 0.41952 0.94231 0.0
C1768 C 0.39516 0.41987 0.95759 0.0
C1769 C 0.39413 0.43676 0.96186 0.0
C1770 C 0.40405 0.45315 0.95117 0.0
C1771 C 0.41489 0.45235 0.93631 0.0
C1772 C 0.41593 0.43593 0.93191 0.0
C1773 C 0.42918 0.43896 0.91593 0.0
C1774 C 0.44592 0.43749 0.92359 0.0
C1775 C 0.41834 0.42438 0.89741 0.0
C1776 C 0.4357 0.45978 0.91219 0.0
C1777 C 0.4272 0.46726 0.92388 0.0
C1778 C 0.43129 0.48637 0.92303 0.0
C1779 C 0.44452 0.49814 0.90999 0.0
C1780 C 0.4536 0.49078 0.89822 0.0
C1781 C 0.44894 0.47131 0.89927 0.0
H1782 H 0.57043 0.99857 0.00381 0.0
H1783 H 0.57963 0.95099 0.9892 0.0
H1784 H 0.56056 0.9423 0.95743 0.0
H1785 H 0.52108 0.97278 0.97961 0.0
H1786 H 0.52478 0.99518 0.97127 0.0
H1787 H 0.53716 0.99614 0.99392 0.0
H1788 H 0.56935 0.02093 0.98063 0.0
H1789 H 0.55712 0.01997 0.95794 0.0
H1790 H 0.5754 0.01438 0.95731 0.0
H1791 H 0.54453 0.94174 0.92566 0.0
H1792 H 0.53158 0.94845 0.89656 0.0
H1793 H 0.5307 0.99495 0.93238 0.0
C1794 C 0.5681 0.98606 0.99412 0.0
C1795 C 0.57653 0.97547 0.99901 0.0
C1796 C 0.57328 0.9593 0.98583 0.0
C1797 C 0.56243 0.95422 0.96775 0.0
C1798 C 0.55472 0.96526 0.96318 0.0
C1799 C 0.55719 0.9807 0.97607 0.0
C1800 C 0.5484 0.99097 0.96704 0.0
C1801 C 0.53187 0.98862 0.97865 0.0
C1802 C 0.56347 0.01285 0.96565 0.0
C1803 C 0.54127 0.9794 0.94678 0.0
C1804 C 0.54492 0.96454 0.94492 0.0
C1805 C 0.54112 0.95298 0.92707 0.0
C1806 C 0.53361 0.95685 0.91061 0.0
C1807 C 0.52984 0.97212 0.91207 0.0
C1808 C 0.53342 0.98321 0.9306 0.0
H1809 H 0.55948 0.96996 0.08637 0.0
H1810 H 0.61993 0.00707 0.10434 0.0
H1811 H 0.61266 0.01522 0.13726 0.0
H1812 H 0.54627 0.00149 0.11214 0.0
H1813 H 0.52404 0.98109 0.11867 0.0
H1814 H 0.53409 0.97842 0.09648 0.0
H1815 H 0.53293 0.94805 0.10848 0.0
H1816 H 0.523 0.9507 0.13076 0.0
H1817 H 0.54449 0.95041 0.13226 0.0
H1818 H 0.59871 0.01815 0.1687 0.0
H1819 H 0.57919 0.017 0.19577 0.0
H1820 H 0.52797 0.9793 0.15656 0.0
C1821 C 0.5712 0.97985 0.0972 0.0
C1822 C 0.59027 0.98783 0.09281 0.0
C1823 C 0.6052 0.0008 0.10736 0.0
C1824 C 0.60122 0.00548 0.12612 0.0
C1825 C 0.58226 0.99722 0.13002 0.0
C1826 C 0.5675 0.98482 0.11591 0.0
C1827 C 0.54837 0.97799 0.12381 0.0
C1828 C 0.53756 0.98519 0.11208 0.0
C1829 C 0.5365 0.95545 0.12383 0.0
C1830 C 0.55467 0.98831 0.14463 0.0
C1831 C 0.57426 0.99928 0.14795 0.0
C1832 C 0.58336 0.00977 0.16622 0.0
C1833 C 0.57213 0.00911 0.18148 0.0
C1834 C 0.552 0.99812 0.17835 0.0
C1835 C 0.54327 0.98764 0.1596 0.0
H1836 H 0.00671 0.62235 0.11537 0.0
H1837 H 0.94921 0.59056 0.08723 0.0
H1838 H 0.94009 0.56394 0.10872 0.0
H1839 H 0.01019 0.58144 0.11732 0.0
H1840 H 0.02405 0.58974 0.14083 0.0
H1841 H 0.02538 0.60744 0.12526 0.0
H1842 H 0.01588 0.623 0.1537 0.0
H1843 H 0.01472 0.60546 0.16947 0.0
H1844 H 0.99442 0.6076 0.16547 0.0
H1845 H 0.93802 0.53962 0.13171 0.0
H1846 H 0.94339 0.51959 0.15372 0.0
H1847 H 0.00248 0.56718 0.16568 0.0
C1848 C 0.99206 0.61004 0.11403 0.0
C1849 C 0.97862 0.60862 0.09975 0.0
C1850 C 0.95972 0.59202 0.09817 0.0
C1851 C 0.9544 0.57684 0.11032 0.0
C1852 C 0.96817 0.57849 0.12391 0.0
C1853 C 0.9866 0.59472 0.12585 0.0
C1854 C 0.99912 0.59232 0.1404 0.0
C1855 C 0.01565 0.59276 0.13035 0.0
C1856 C 0.00646 0.60803 0.15832 0.0
C1857 C 0.98498 0.57203 0.14608 0.0
C1858 C 0.96713 0.56436 0.13665 0.0
C1859 C 0.95191 0.54556 0.13928 0.0
C1860 C 0.95506 0.53431 0.1518 0.0
C1861 C 0.97335 0.54182 0.16129 0.0
C1862 C 0.98839 0.56098 0.15846 0.0
H1863 H 0.39566 0.384 0.05815 0.0
H1864 H 0.44267 0.41587 0.02188 0.0
H1865 H 0.46529 0.42763 0.05147 0.0
H1866 H 0.41299 0.41968 0.09818 0.0
H1867 H 0.40475 0.40283 0.11685 0.0
H1868 H 0.39252 0.39498 0.09255 0.0
H1869 H 0.3972 0.36558 0.08935 0.0
H1870 H 0.40948 0.37336 0.11371 0.0
H1871 H 0.42081 0.37012 0.09289 0.0
H1872 H 0.48225 0.43962 0.08543 0.0
H1873 H 0.49227 0.44979 0.1212 0.0
H1874 H 0.43456 0.40895 0.1351 0.0
C1875 C 0.41073 0.39315 0.05635 0.0
C1876 C 0.4174 0.39902 0.0377 0.0
C1877 C 0.43723 0.41111 0.036 0.0
C1878 C 0.4502 0.41784 0.05272 0.0
C1879 C 0.44312 0.4121 0.07096 0.0
C1880 C 0.42385 0.39984 0.07284 0.0
C1881 C 0.4198 0.39685 0.09425 0.0
C1882 C 0.40675 0.40402 0.10084 0.0
C1883 C 0.41132 0.37519 0.09775 0.0
C1884 C 0.43972 0.40993 0.10422 0.0
C1885 C 0.45301 0.4185 0.09052 0.0
C1886 C 0.47208 0.43262 0.09627 0.0
C1887 C 0.47766 0.43831 0.11653 0.0
C1888 C 0.46422 0.42973 0.13066 0.0
C1889 C 0.44513 0.41517 0.12446 0.0
H1890 H 0.65608 0.716 0.41051 0.0
H1891 H 0.61778 0.71806 0.36751 0.0
H1892 H 0.60867 0.73375 0.39364 0.0
H1893 H 0.62659 0.70666 0.45266 0.0
H1894 H 0.64702 0.72208 0.47003 0.0
H1895 H 0.64903 0.70922 0.44834 0.0
H1896 H 0.67688 0.74236 0.43859 0.0
H1897 H 0.67485 0.75532 0.46012 0.0
H1898 H 0.67337 0.76234 0.43593 0.0
H1899 H 0.60555 0.75149 0.42402 0.0
H1900 H 0.60845 0.76948 0.45642 0.0
H1901 H 0.64872 0.75562 0.47921 0.0
C1902 C 0.6455 0.71939 0.40664 0.0
C1903 C 0.63761 0.71575 0.38697 0.0
C1904 C 0.624 0.72066 0.38249 0.0
C1905 C 0.61871 0.72957 0.39723 0.0
C1906 C 0.62711 0.73338 0.41638 0.0
C1907 C 0.64011 0.72831 0.42114 0.0
C1908 C 0.64782 0.73495 0.44258 0.0
C1909 C 0.64228 0.71716 0.45408 0.0
C1910 C 0.66951 0.74961 0.44439 0.0
C1911 C 0.63747 0.74493 0.44899 0.0
C1912 C 0.62544 0.74373 0.43376 0.0
C1913 C 0.61479 0.75237 0.43611 0.0
C1914 C 0.6165 0.76252 0.45454 0.0
C1915 C 0.6289 0.76405 0.47025 0.0
C1916 C 0.63935 0.75497 0.46739 0.0
H1917 H 0.24 0.89801 0.43076 0.0
H1918 H 0.29913 0.92808 0.45368 0.0
H1919 H 0.28922 0.90961 0.48304 0.0
H1920 H 0.22081 0.89812 0.47602 0.0
H1921 H 0.19956 0.874 0.47031 0.0
H1922 H 0.21145 0.88871 0.45069 0.0
H1923 H 0.21415 0.86041 0.43388 0.0
H1924 H 0.20217 0.84556 0.45343 0.0
H1925 H 0.22519 0.85035 0.44777 0.0
H1926 H 0.27238 0.88942 0.51101 0.0
H1927 H 0.25024 0.8686 0.53469 0.0
H1928 H 0.20247 0.8509 0.49229 0.0
C1929 C 0.25092 0.90063 0.44186 0.0
C1930 C 0.27034 0.91451 0.43998 0.0
C1931 C 0.28417 0.91746 0.45481 0.0
C1932 C 0.27867 0.90705 0.47153 0.0
C1933 C 0.25934 0.89364 0.47302 0.0
C1934 C 0.24571 0.89029 0.45847 0.0
C1935 C 0.22586 0.87546 0.46372 0.0
C1936 C 0.21372 0.88463 0.46528 0.0
C1937 C 0.21629 0.85684 0.44881 0.0
C1938 C 0.23039 0.87126 0.48371 0.0
C1939 C 0.24975 0.88181 0.48883 0.0
C1940 C 0.25721 0.88089 0.50702 0.0
C1941 C 0.24451 0.86893 0.52034 0.0
C1942 C 0.22458 0.85805 0.51537 0.0
C1943 C 0.21758 0.85915 0.49668 0.0
H1944 H 0.10345 0.35657 0.4098 0.0
H1945 H 0.05383 0.35031 0.43606 0.0
H1946 H 0.06676 0.34956 0.46871 0.0
H1947 H 0.10933 0.32495 0.4396 0.0
H1948 H 0.13495 0.34008 0.44204 0.0
H1949 H 0.12193 0.34018 0.42049 0.0
H1950 H 0.13861 0.3781 0.42726 0.0
H1951 H 0.15169 0.37811 0.44882 0.0
H1952 H 0.13744 0.3888 0.451 0.0
H1953 H 0.084 0.34809 0.49813 0.0
H1954 H 0.10579 0.34778 0.52333 0.0
H1955 H 0.1453 0.35667 0.4791 0.0
C1956 C 0.09535 0.35507 0.42245 0.0
C1957 C 0.0776 0.35348 0.42036 0.0
C1958 C 0.06747 0.35164 0.43727 0.0
C1959 C 0.07467 0.35115 0.4559 0.0
C1960 C 0.09214 0.35272 0.45747 0.0
C1961 C 0.10247 0.35482 0.4413 0.0
C1962 C 0.12103 0.35647 0.44728 0.0
C1963 C 0.12185 0.3394 0.43672 0.0
C1964 C 0.13821 0.37657 0.44336 0.0
C1965 C 0.11935 0.35476 0.46928 0.0
C1966 C 0.10248 0.3525 0.47475 0.0
C1967 C 0.09731 0.34998 0.49408 0.0
C1968 C 0.1097 0.34977 0.50824 0.0
C1969 C 0.1271 0.35223 0.50304 0.0
C1970 C 0.13208 0.35489 0.48336 0.0
H1971 H 0.08993 0.3089 0.31683 0.0
H1972 H 0.06286 0.33946 0.29853 0.0
H1973 H 0.06933 0.33521 0.26413 0.0
H1974 H 0.12727 0.32967 0.28523 0.0
H1975 H 0.12745 0.30755 0.27956 0.0
H1976 H 0.11955 0.31165 0.30272 0.0
H1977 H 0.08752 0.27819 0.29501 0.0
H1978 H 0.09535 0.274 0.27179 0.0
H1979 H 0.07336 0.27331 0.27226 0.0
H1980 H 0.08071 0.33017 0.23232 0.0
H1981 H 0.09609 0.32394 0.20466 0.0
H1982 H 0.11516 0.29594 0.24281 0.0
C1983 C 0.08516 0.31448 0.30555 0.0
C1984 C 0.07588 0.32452 0.31045 0.0
C1985 C 0.07001 0.33173 0.29523 0.0
C1986 C 0.07356 0.32935 0.27559 0.0
C1987 C 0.0829 0.31961 0.27129 0.0
C1988 C 0.08857 0.31219 0.28576 0.0
C1989 C 0.09905 0.30302 0.27715 0.0
C1990 C 0.11954 0.31361 0.28673 0.0
C1991 C 0.08817 0.28081 0.27917 0.0
C1992 C 0.09871 0.30685 0.25571 0.0
C1993 C 0.08924 0.31637 0.25268 0.0
C1994 C 0.08795 0.32249 0.23441 0.0
C1995 C 0.09674 0.31896 0.21884 0.0
C1996 C 0.10658 0.30932 0.22163 0.0
C1997 C 0.10736 0.30298 0.24023 0.0
H1998 H 0.70152 0.73607 0.28576 0.0
H1999 H 0.69498 0.76011 0.34209 0.0
H2000 H 0.70359 0.79076 0.32793 0.0
H2001 H 0.74177 0.78325 0.2717 0.0
H2002 H 0.73299 0.77718 0.246 0.0
H2003 H 0.72834 0.75787 0.26109 0.0
H2004 H 0.69217 0.74072 0.25169 0.0
H2005 H 0.69671 0.75999 0.23666 0.0
H2006 H 0.68085 0.75436 0.25606 0.0
H2007 H 0.70917 0.8171 0.30697 0.0
H2008 H 0.7127 0.83803 0.28055 0.0
H2009 H 0.71649 0.79761 0.23804 0.0
C2010 C 0.70231 0.74794 0.29523 0.0
C2011 C 0.69761 0.74568 0.31505 0.0
C2012 C 0.69853 0.76147 0.32687 0.0
C2013 C 0.70345 0.77899 0.31899 0.0
C2014 C 0.70756 0.78058 0.29929 0.0
C2015 C 0.70722 0.76558 0.28759 0.0
C2016 C 0.71111 0.77063 0.26654 0.0
C2017 C 0.72966 0.77234 0.26101 0.0
C2018 C 0.6942 0.75553 0.25188 0.0
C2019 C 0.71318 0.79056 0.26817 0.0
C2020 C 0.71117 0.79606 0.28722 0.0
C2021 C 0.71112 0.81315 0.29208 0.0
C2022 C 0.71306 0.82489 0.27702 0.0
C2023 C 0.71512 0.8195 0.25744 0.0
C2024 C 0.7154 0.80226 0.25303 0.0
H2025 H 0.2583 0.95548 0.33251 0.0
H2026 H 0.24894 0.90367 0.35833 0.0
H2027 H 0.22626 0.8824 0.32991 0.0
H2028 H 0.2093 0.93344 0.30981 0.0
H2029 H 0.21749 0.94618 0.28809 0.0
H2030 H 0.23121 0.95723 0.31157 0.0
H2031 H 0.26075 0.96048 0.29618 0.0
H2032 H 0.24714 0.94947 0.27271 0.0
H2033 H 0.25903 0.93887 0.28398 0.0
H2034 H 0.20697 0.86698 0.29749 0.0
H2035 H 0.19284 0.85857 0.26299 0.0
H2036 H 0.21515 0.9204 0.25806 0.0
C2037 C 0.25117 0.93964 0.3324 0.0
C2038 C 0.25531 0.93121 0.34767 0.0
C2039 C 0.24597 0.91044 0.34679 0.0
C2040 C 0.233 0.89823 0.33075 0.0
C2041 C 0.2295 0.90703 0.31576 0.0
C2042 C 0.23829 0.92725 0.31644 0.0
C2043 C 0.23322 0.93304 0.29768 0.0
C2044 C 0.22214 0.94306 0.30205 0.0
C2045 C 0.2511 0.94623 0.28701 0.0
C2046 C 0.22061 0.91294 0.28614 0.0
C2047 C 0.21846 0.89812 0.29693 0.0
C2048 C 0.20836 0.87843 0.28897 0.0
C2049 C 0.20049 0.87381 0.26936 0.0
C2050 C 0.20285 0.88882 0.25792 0.0
C2051 C 0.21278 0.90858 0.26659 0.0
H2052 H 0.65505 0.90537 0.33926 0.0
H2053 H 0.70151 0.96585 0.35576 0.0
H2054 H 0.71996 0.96218 0.32988 0.0
H2055 H 0.68449 0.88508 0.32678 0.0
H2056 H 0.66803 0.86874 0.30629 0.0
H2057 H 0.65944 0.87554 0.32748 0.0
H2058 H 0.64354 0.88808 0.30464 0.0
H2059 H 0.65208 0.88136 0.28343 0.0
H2060 H 0.65779 0.9063 0.28842 0.0
H2061 H 0.73224 0.95259 0.30032 0.0
H2062 H 0.73669 0.93817 0.26908 0.0
H2063 H 0.68216 0.88416 0.27245 0.0
C2064 C 0.66923 0.91776 0.33769 0.0
C2065 C 0.67686 0.93587 0.34957 0.0
C2066 C 0.69539 0.9518 0.34685 0.0
C2067 C 0.706 0.94984 0.33224 0.0
C2068 C 0.69792 0.93185 0.32057 0.0
C2069 C 0.67996 0.91608 0.3232 0.0
C2070 C 0.67393 0.89876 0.30792 0.0
C2071 C 0.67132 0.88098 0.3177 0.0
C2072 C 0.65577 0.89332 0.29536 0.0
C2073 C 0.69105 0.90742 0.29592 0.0
C2074 C 0.70489 0.92641 0.30356 0.0
C2075 C 0.7216 0.93764 0.29434 0.0
C2076 C 0.72404 0.92933 0.27667 0.0
C2077 C 0.70975 0.9101 0.26837 0.0
C2078 C 0.69327 0.89895 0.2784 0.0
H2079 H 0.05376 0.73764 0.26528 0.0
H2080 H 0.06259 0.78017 0.31422 0.0
H2081 H 0.08048 0.80723 0.29339 0.0
H2082 H 0.09958 0.76537 0.24958 0.0
H2083 H 0.09231 0.75792 0.22357 0.0
H2084 H 0.07827 0.74186 0.24146 0.0
H2085 H 0.04853 0.74076 0.22701 0.0
H2086 H 0.06248 0.75682 0.20901 0.0
H2087 H 0.04953 0.76349 0.22511 0.0
H2088 H 0.09892 0.8297 0.26777 0.0
H2089 H 0.11809 0.84589 0.24013 0.0
H2090 H 0.09809 0.7886 0.20858 0.0
C2091 C 0.05911 0.75261 0.27149 0.0
C2092 C 0.05663 0.75683 0.29128 0.0
C2093 C 0.06427 0.77664 0.29904 0.0
C2094 C 0.07437 0.79208 0.28731 0.0
C2095 C 0.07678 0.78743 0.26792 0.0
C2096 C 0.06943 0.76817 0.2601 0.0
C2097 C 0.07534 0.76719 0.23944 0.0
C2098 C 0.08707 0.75752 0.23847 0.0
C2099 C 0.05793 0.75643 0.22424 0.0
C2100 C 0.08747 0.78892 0.23698 0.0
C2101 C 0.08788 0.80036 0.25342 0.0
C2102 C 0.09857 0.82089 0.25476 0.0
C2103 C 0.10934 0.82995 0.23898 0.0
C2104 C 0.1095 0.81846 0.22226 0.0
C2105 C 0.09823 0.79771 0.22122 0.0
H2106 H 0.2494 0.29509 0.30589 0.0
H2107 H 0.2293 0.31914 0.35107 0.0
H2108 H 0.20232 0.3115 0.32796 0.0
H2109 H 0.24039 0.31482 0.2668 0.0
H2110 H 0.23294 0.29401 0.24872 0.0
H2111 H 0.24909 0.2988 0.2696 0.0
H2112 H 0.2261 0.26349 0.27902 0.0
H2113 H 0.20982 0.25864 0.25813 0.0
H2114 H 0.20172 0.25538 0.28264 0.0
H2115 H 0.18008 0.30528 0.29896 0.0
H2116 H 0.16436 0.30104 0.26591 0.0
H2117 H 0.19849 0.28055 0.23984 0.0
C2118 C 0.2391 0.29836 0.31107 0.0
C2119 C 0.24144 0.30767 0.33029 0.0
C2120 C 0.2278 0.31199 0.33641 0.0
C2121 C 0.21236 0.30761 0.32342 0.0
C2122 C 0.21067 0.29877 0.30444 0.0
C2123 C 0.22361 0.2941 0.29829 0.0
C2124 C 0.21949 0.28623 0.27663 0.0
C2125 C 0.23648 0.29925 0.26475 0.0
C2126 C 0.21395 0.26465 0.27396 0.0
C2127 C 0.20265 0.28789 0.2714 0.0
C2128 C 0.19761 0.29492 0.2877 0.0
C2129 C 0.1836 0.29938 0.28616 0.0
C2130 C 0.17479 0.29698 0.26739 0.0
C2131 C 0.18004 0.29018 0.25051 0.0
C2132 C 0.19382 0.28518 0.25264 0.0
H2133 H 0.23172 0.32653 0.42455 0.0
H2134 H 0.29269 0.3627 0.43978 0.0
H2135 H 0.28706 0.37298 0.47271 0.0
H2136 H 0.22044 0.36003 0.44959 0.0
H2137 H 0.19839 0.34036 0.45732 0.0
H2138 H 0.20739 0.33645 0.43485 0.0
H2139 H 0.20611 0.30634 0.44778 0.0
H2140 H 0.19718 0.31019 0.4703 0.0
H2141 H 0.21841 0.30939 0.4713 0.0
H2142 H 0.27447 0.37796 0.50462 0.0
H2143 H 0.25602 0.37776 0.53251 0.0
H2144 H 0.20354 0.3393 0.49539 0.0
C2145 C 0.24392 0.33668 0.43475 0.0
C2146 C 0.26264 0.34378 0.42964 0.0
C2147 C 0.27821 0.3571 0.4434 0.0
C2148 C 0.27516 0.36301 0.46212 0.0
C2149 C 0.25648 0.35559 0.46673 0.0
C2150 C 0.24115 0.34282 0.45337 0.0
C2151 C 0.22247 0.33676 0.46194 0.0
C2152 C 0.21153 0.34383 0.45023 0.0
C2153 C 0.21034 0.31435 0.46289 0.0
C2154 C 0.22966 0.34786 0.48235 0.0
C2155 C 0.2493 0.35868 0.48487 0.0
C2156 C 0.25908 0.36969 0.50275 0.0
C2157 C 0.24848 0.36957 0.51847 0.0
C2158 C 0.22832 0.35851 0.51618 0.0
C2159 C 0.21891 0.34769 0.49776 0.0
H2160 H 0.64492 0.90991 0.42816 0.0
H2161 H 0.6166 0.93588 0.4577 0.0
H2162 H 0.61048 0.91503 0.4848 0.0
H2163 H 0.61376 0.86014 0.44192 0.0
H2164 H 0.63297 0.85615 0.44524 0.0
H2165 H 0.63412 0.8723 0.42765 0.0
H2166 H 0.66651 0.90049 0.44497 0.0
H2167 H 0.66543 0.88447 0.46266 0.0
H2168 H 0.66825 0.90771 0.47106 0.0
H2169 H 0.6091 0.89275 0.50958 0.0
H2170 H 0.61216 0.87035 0.52997 0.0
H2171 H 0.64073 0.85847 0.48378 0.0
C2172 C 0.63724 0.91108 0.44021 0.0
C2173 C 0.63122 0.92452 0.44079 0.0
C2174 C 0.62132 0.92566 0.4569 0.0
C2175 C 0.61777 0.91388 0.47237 0.0
C2176 C 0.62412 0.90098 0.47144 0.0
C2177 C 0.63356 0.89943 0.45573 0.0
C2178 C 0.63943 0.88487 0.45858 0.0
C2179 C 0.62947 0.86732 0.44239 0.0
C2180 C 0.66119 0.895 0.45937 0.0
C2181 C 0.63208 0.87869 0.47851 0.0
C2182 C 0.62322 0.88807 0.48565 0.0
C2183 C 0.61581 0.88514 0.50405 0.0
C2184 C 0.61753 0.87231 0.51547 0.0
C2185 C 0.62661 0.86257 0.50846 0.0
C2186 C 0.63385 0.86579 0.48966 0.0
H2187 H 0.08405 0.77579 0.40284 0.0
H2188 H 0.07968 0.72084 0.38337 0.0
H2189 H 0.09955 0.72497 0.41319 0.0
H2190 H 0.13343 0.80183 0.42561 0.0
H2191 H 0.12847 0.81397 0.44567 0.0
H2192 H 0.11556 0.80771 0.42179 0.0
H2193 H 0.0837 0.78825 0.43801 0.0
H2194 H 0.09649 0.79437 0.46187 0.0
H2195 H 0.07975 0.76893 0.45276 0.0
H2196 H 0.11729 0.73345 0.44658 0.0
H2197 H 0.13151 0.74568 0.48095 0.0
H2198 H 0.12512 0.79556 0.47811 0.0
C2199 C 0.08753 0.76479 0.40465 0.0
C2200 C 0.08032 0.74801 0.39074 0.0
C2201 C 0.08506 0.73385 0.3938 0.0
C2202 C 0.09639 0.73608 0.41067 0.0
C2203 C 0.10299 0.75263 0.42427 0.0
C2204 C 0.09884 0.7668 0.42138 0.0
C2205 C 0.10673 0.78259 0.43879 0.0
C2206 C 0.12195 0.80272 0.43259 0.0
C2207 C 0.09071 0.78358 0.44842 0.0
C2208 C 0.11545 0.77475 0.45216 0.0
C2209 C 0.11333 0.75758 0.44345 0.0
C2210 C 0.11932 0.74707 0.45343 0.0
C2211 C 0.12747 0.75419 0.47293 0.0
C2212 C 0.12949 0.77161 0.48225 0.0
C2213 C 0.12367 0.78213 0.47149 0.0
H2214 H 0.32709 0.05052 0.74475 0.0
H2215 H 0.29604 0.0616 0.70077 0.0
H2216 H 0.28269 0.07202 0.72741 0.0
H2217 H 0.29033 0.03241 0.78058 0.0
H2218 H 0.30785 0.044 0.80145 0.0
H2219 H 0.31334 0.03555 0.77887 0.0
H2220 H 0.34308 0.07056 0.77755 0.0
H2221 H 0.33764 0.07914 0.80001 0.0
H2222 H 0.34034 0.09133 0.77808 0.0
H2223 H 0.27557 0.0846 0.75891 0.0
H2224 H 0.27459 0.09747 0.79265 0.0
H2225 H 0.30919 0.07667 0.81584 0.0
C2226 C 0.31724 0.05483 0.74068 0.0
C2227 C 0.31261 0.05527 0.72068 0.0
C2228 C 0.29973 0.06108 0.716 0.0
C2229 C 0.29207 0.06701 0.73102 0.0
C2230 C 0.29725 0.06679 0.75061 0.0
C2231 C 0.30938 0.06065 0.75545 0.0
C2232 C 0.31349 0.06272 0.77759 0.0
C2233 C 0.30579 0.04246 0.78506 0.0
C2234 C 0.3349 0.07678 0.78365 0.0
C2235 C 0.30228 0.0716 0.78445 0.0
C2236 C 0.29288 0.0737 0.76871 0.0
C2237 C 0.28258 0.08269 0.77138 0.0
C2238 C 0.28203 0.08987 0.79063 0.0
C2239 C 0.29176 0.08805 0.80695 0.0
C2240 C 0.30171 0.07846 0.80371 0.0
H2241 H 0.95061 0.26186 0.80626 0.0
H2242 H 0.9354 0.2235 0.75156 0.0
H2243 H 0.91495 0.19459 0.76928 0.0
H2244 H 0.95006 0.22764 0.8399 0.0
H2245 H 0.93979 0.23515 0.85881 0.0
H2246 H 0.95508 0.25244 0.84235 0.0
H2247 H 0.9285 0.25856 0.8324 0.0
H2248 H 0.91313 0.24126 0.84872 0.0
H2249 H 0.90536 0.23794 0.82293 0.0
H2250 H 0.8942 0.17025 0.7924 0.0
H2251 H 0.87395 0.15258 0.81882 0.0
H2252 H 0.90236 0.20706 0.85808 0.0
C2253 C 0.94332 0.24735 0.79808 0.0
C2254 C 0.94469 0.2449 0.77757 0.0
C2255 C 0.93459 0.2257 0.76731 0.0
C2256 C 0.923 0.20919 0.77725 0.0
C2257 C 0.92168 0.21217 0.79743 0.0
C2258 C 0.93158 0.23077 0.80773 0.0
C2259 C 0.92651 0.2302 0.82894 0.0
C2260 C 0.94389 0.23674 0.84335 0.0
C2261 C 0.91786 0.24273 0.8335 0.0
C2262 C 0.91183 0.20845 0.82883 0.0
C2263 C 0.90945 0.19822 0.81063 0.0
C2264 C 0.8961 0.17806 0.80678 0.0
C2265 C 0.88471 0.16814 0.82187 0.0
C2266 C 0.88664 0.17847 0.84046 0.0
C2267 C 0.90055 0.19882 0.84398 0.0
H2268 H 0.74033 0.6917 0.76138 0.0
H2269 H 0.78403 0.70744 0.72046 0.0
H2270 H 0.80815 0.71859 0.74866 0.0
H2271 H 0.77002 0.73151 0.8016 0.0
H2272 H 0.75863 0.71538 0.82047 0.0
H2273 H 0.74549 0.71148 0.79726 0.0
H2274 H 0.73733 0.6755 0.79226 0.0
H2275 H 0.75049 0.67931 0.81534 0.0
H2276 H 0.75633 0.67096 0.79293 0.0
H2277 H 0.8269 0.72512 0.78132 0.0
H2278 H 0.83829 0.72518 0.81538 0.0
H2279 H 0.78194 0.70424 0.8344 0.0
C2280 C 0.75504 0.69796 0.75832 0.0
C2281 C 0.76034 0.69887 0.73873 0.0
C2282 C 0.77968 0.70671 0.73537 0.0
C2283 C 0.79348 0.71313 0.75129 0.0
C2284 C 0.78768 0.71159 0.77044 0.0
C2285 C 0.7689 0.70421 0.77399 0.0
C2286 C 0.76595 0.7023 0.79572 0.0
C2287 C 0.75966 0.71599 0.80426 0.0
C2288 C 0.75169 0.68074 0.79926 0.0
C2289 C 0.78588 0.70921 0.80381 0.0
C2290 C 0.79832 0.71486 0.7891 0.0
C2291 C 0.81733 0.72096 0.79299 0.0
C2292 C 0.82369 0.721 0.81235 0.0
C2293 C 0.81097 0.7147 0.82744 0.0
C2294 C 0.79194 0.70907 0.8231 0.0
H2295 H 0.75785 0.65808 0.63785 0.0
H2296 H 0.70323 0.60268 0.63415 0.0
H2297 H 0.71041 0.59197 0.60244 0.0
H2298 H 0.75775 0.66506 0.58784 0.0
H2299 H 0.78284 0.6753 0.58625 0.0
H2300 H 0.77416 0.67793 0.60945 0.0
H2301 H 0.78986 0.66158 0.62625 0.0
H2302 H 0.79878 0.65909 0.60314 0.0
H2303 H 0.78447 0.63772 0.61593 0.0
H2304 H 0.72256 0.58855 0.56968 0.0
H2305 H 0.73933 0.59216 0.53938 0.0
H2306 H 0.78626 0.64935 0.56542 0.0
C2307 C 0.7475 0.64356 0.63055 0.0
C2308 C 0.72997 0.63122 0.63849 0.0
C2309 C 0.71679 0.61237 0.6284 0.0
C2310 C 0.72072 0.60616 0.61036 0.0
C2311 C 0.73797 0.61889 0.60273 0.0
C2312 C 0.75123 0.63711 0.61264 0.0
C2313 C 0.7684 0.64831 0.60101 0.0
C2314 C 0.77092 0.6678 0.59583 0.0
C2315 C 0.78644 0.65188 0.61225 0.0
C2316 C 0.76255 0.63376 0.58281 0.0
C2317 C 0.745 0.61684 0.58406 0.0
C2318 C 0.73642 0.60163 0.56864 0.0
C2319 C 0.74607 0.6038 0.55151 0.0
C2320 C 0.76409 0.62106 0.54995 0.0
C2321 C 0.77239 0.6361 0.56595 0.0
H2322 H 0.33287 0.06754 0.62257 0.0
H2323 H 0.38522 0.10192 0.6608 0.0
H2324 H 0.39618 0.12954 0.64033 0.0
H2325 H 0.35347 0.08438 0.57671 0.0
H2326 H 0.33342 0.08482 0.56673 0.0
H2327 H 0.33 0.06766 0.58413 0.0
H2328 H 0.31415 0.08126 0.60679 0.0
H2329 H 0.31756 0.09849 0.58949 0.0
H2330 H 0.32682 0.10728 0.61492 0.0
H2331 H 0.40133 0.15344 0.61558 0.0
H2332 H 0.39981 0.17204 0.589 0.0
H2333 H 0.3439 0.12198 0.56757 0.0
C2334 C 0.34668 0.08082 0.62662 0.0
C2335 C 0.35822 0.08255 0.64325 0.0
C2336 C 0.37614 0.10026 0.6481 0.0
C2337 C 0.3825 0.11602 0.63656 0.0
C2338 C 0.37073 0.11383 0.62028 0.0
C2339 C 0.35319 0.09669 0.61535 0.0
C2340 C 0.34309 0.09818 0.59738 0.0
C2341 C 0.33981 0.08285 0.58022 0.0
C2342 C 0.32429 0.09619 0.60246 0.0
C2343 C 0.35764 0.11888 0.59301 0.0
C2344 C 0.37355 0.12764 0.60629 0.0
C2345 C 0.38894 0.14673 0.6051 0.0
C2346 C 0.38799 0.15714 0.58995 0.0
C2347 C 0.37171 0.14846 0.57634 0.0
C2348 C 0.35641 0.12907 0.57794 0.0
H2349 H 0.92373 0.23293 0.6698 0.0
H2350 H 0.93224 0.29052 0.68529 0.0
H2351 H 0.91364 0.28653 0.65443 0.0
H2352 H 0.92894 0.23698 0.61892 0.0
H2353 H 0.91097 0.21154 0.61115 0.0
H2354 H 0.92375 0.21831 0.63511 0.0
H2355 H 0.89187 0.20184 0.65162 0.0
H2356 H 0.87898 0.195 0.62766 0.0
H2357 H 0.87526 0.2092 0.64666 0.0
H2358 H 0.89577 0.27711 0.62094 0.0
H2359 H 0.88044 0.26316 0.58713 0.0
H2360 H 0.88305 0.21147 0.594 0.0
C2361 C 0.92153 0.24463 0.66683 0.0
C2362 C 0.92941 0.26202 0.67999 0.0
C2363 C 0.92631 0.27704 0.67546 0.0
C2364 C 0.91572 0.27489 0.65798 0.0
C2365 C 0.90828 0.25762 0.64526 0.0
C2366 C 0.911 0.24273 0.64949 0.0
C2367 C 0.90219 0.22601 0.63296 0.0
C2368 C 0.91737 0.22305 0.62401 0.0
C2369 C 0.88612 0.20688 0.64016 0.0
C2370 C 0.89443 0.23401 0.6186 0.0
C2371 C 0.89794 0.25218 0.62602 0.0
C2372 C 0.89274 0.26278 0.61507 0.0
C2373 C 0.88394 0.25468 0.59592 0.0
C2374 C 0.8805 0.23621 0.58792 0.0
C2375 C 0.8856 0.22569 0.59962 0.0
H2376 H 0.3178 0.24497 0.66765 0.0
H2377 H 0.36627 0.30521 0.67861 0.0
H2378 H 0.3816 0.2988 0.65102 0.0
H2379 H 0.34465 0.22243 0.65432 0.0
H2380 H 0.32659 0.20484 0.63556 0.0
H2381 H 0.32001 0.21392 0.65686 0.0
H2382 H 0.30306 0.22526 0.6339 0.0
H2383 H 0.30955 0.21619 0.61257 0.0
H2384 H 0.31615 0.24153 0.61567 0.0
H2385 H 0.39077 0.28616 0.62097 0.0
H2386 H 0.39259 0.26861 0.59055 0.0
H2387 H 0.33841 0.21656 0.60014 0.0
C2388 C 0.3317 0.25681 0.66437 0.0
C2389 C 0.34084 0.27559 0.67528 0.0
C2390 C 0.35901 0.29068 0.67046 0.0
C2391 C 0.36785 0.28717 0.65485 0.0
C2392 C 0.35838 0.26848 0.64434 0.0
C2393 C 0.34072 0.25355 0.64894 0.0
C2394 C 0.33321 0.23498 0.63498 0.0
C2395 C 0.33099 0.21805 0.6461 0.0
C2396 C 0.31438 0.22916 0.62361 0.0
C2397 C 0.3492 0.24192 0.62149 0.0
C2398 C 0.36369 0.26121 0.62721 0.0
C2399 C 0.37961 0.27098 0.61649 0.0
C2400 C 0.38057 0.26086 0.5993 0.0
C2401 C 0.36566 0.24121 0.59298 0.0
C2402 C 0.34998 0.23161 0.60449 0.0
H2403 H 0.74705 0.0921 0.62853 0.0
H2404 H 0.69252 0.06316 0.59402 0.0
H2405 H 0.70777 0.08493 0.56788 0.0
H2406 H 0.76429 0.14143 0.61552 0.0
H2407 H 0.78849 0.14773 0.61451 0.0
H2408 H 0.77319 0.13023 0.63078 0.0
H2409 H 0.77971 0.10445 0.61449 0.0
H2410 H 0.795 0.12186 0.59817 0.0
H2411 H 0.7752 0.09799 0.5881 0.0
H2412 H 0.72909 0.10895 0.54496 0.0
H2413 H 0.75498 0.13366 0.52692 0.0
H2414 H 0.7955 0.14761 0.57674 0.0
C2415 C 0.73828 0.09038 0.61552 0.0
C2416 C 0.71857 0.0759 0.61333 0.0
C2417 C 0.70763 0.07414 0.59605 0.0
C2418 C 0.71616 0.08645 0.58112 0.0
C2419 C 0.73562 0.10049 0.58371 0.0
C2420 C 0.74654 0.10257 0.6005 0.0
C2421 C 0.76722 0.11863 0.59948 0.0
C2422 C 0.77367 0.1355 0.61606 0.0
C2423 C 0.78003 0.11022 0.60009 0.0
C2424 C 0.76625 0.1251 0.5794 0.0
C2425 C 0.74788 0.1145 0.57059 0.0
C2426 C 0.7435 0.1175 0.55181 0.0
C2427 C 0.7583 0.13169 0.54174 0.0
C2428 C 0.77728 0.14275 0.55046 0.0
C2429 C 0.78119 0.13938 0.56961 0.0
H2430 H 0.91233 0.67832 0.64934 0.0
H2431 H 0.88605 0.6202 0.66944 0.0
H2432 H 0.86259 0.60641 0.64021 0.0
H2433 H 0.86919 0.67369 0.6286 0.0
H2434 H 0.8807 0.68711 0.60806 0.0
H2435 H 0.89424 0.69243 0.63134 0.0
H2436 H 0.91789 0.68595 0.61369 0.0
H2437 H 0.90444 0.68062 0.59039 0.0
H2438 H 0.90898 0.66274 0.59894 0.0
H2439 H 0.8428 0.59901 0.60769 0.0
H2440 H 0.82914 0.59851 0.57472 0.0
H2441 H 0.87001 0.66142 0.57599 0.0
C2442 C 0.90148 0.66273 0.64781 0.0
C2443 C 0.90092 0.65035 0.66174 0.0
C2444 C 0.88668 0.62997 0.65897 0.0
C2445 C 0.87329 0.62203 0.64245 0.0
C2446 C 0.87442 0.63467 0.62886 0.0
C2447 C 0.88821 0.65459 0.63141 0.0
C2448 C 0.88721 0.66492 0.61422 0.0
C2449 C 0.88255 0.68045 0.62096 0.0
C2450 C 0.90573 0.67409 0.60369 0.0
C2451 C 0.8708 0.64769 0.60145 0.0
C2452 C 0.86345 0.63038 0.61015 0.0
C2453 C 0.84844 0.6125 0.60078 0.0
C2454 C 0.84086 0.61234 0.58199 0.0
C2455 C 0.84842 0.62993 0.57272 0.0
C2456 C 0.86355 0.64777 0.58275 0.0
H2457 H 0.90649 0.65204 0.77253 0.0
H2458 H 0.93981 0.7086 0.74938 0.0
H2459 H 0.93261 0.72427 0.77754 0.0
H2460 H 0.86974 0.65807 0.78881 0.0
H2461 H 0.86685 0.6457 0.81064 0.0
H2462 H 0.87531 0.6393 0.78912 0.0
H2463 H 0.90529 0.64665 0.81017 0.0
H2464 H 0.89691 0.65306 0.83178 0.0
H2465 H 0.92015 0.6704 0.82429 0.0
H2466 H 0.92058 0.73333 0.80794 0.0
H2467 H 0.90462 0.73488 0.83753 0.0
H2468 H 0.88007 0.67234 0.84054 0.0
C2469 C 0.91237 0.66775 0.77337 0.0
C2470 C 0.9237 0.6791 0.75874 0.0
C2471 C 0.9311 0.69961 0.76043 0.0
C2472 C 0.9271 0.70864 0.77638 0.0
C2473 C 0.91578 0.69694 0.7905 0.0
C2474 C 0.90858 0.67694 0.78913 0.0
C2475 C 0.8965 0.66749 0.80593 0.0
C2476 C 0.87588 0.65172 0.79815 0.0
C2477 C 0.90524 0.6589 0.81881 0.0
C2478 C 0.89778 0.68523 0.81688 0.0
C2479 C 0.90902 0.70212 0.80787 0.0
C2480 C 0.91186 0.72021 0.81519 0.0
C2481 C 0.90283 0.72097 0.83205 0.0
C2482 C 0.89106 0.70373 0.84132 0.0
C2483 C 0.88877 0.68574 0.83367 0.0
H2484 H 0.30596 0.25669 0.7747 0.0
H2485 H 0.332 0.23954 0.73 0.0
H2486 H 0.32421 0.21038 0.74685 0.0
H2487 H 0.32467 0.24554 0.81453 0.0
H2488 H 0.30422 0.23661 0.82872 0.0
H2489 H 0.30895 0.25436 0.8116 0.0
H2490 H 0.27528 0.23093 0.79384 0.0
H2491 H 0.27044 0.21309 0.81095 0.0
H2492 H 0.26793 0.2061 0.78472 0.0
H2493 H 0.3163 0.18497 0.76958 0.0
H2494 H 0.31031 0.16569 0.79794 0.0
H2495 H 0.2909 0.19997 0.82929 0.0
C2496 C 0.30951 0.24645 0.76825 0.0
C2497 C 0.31934 0.25012 0.75096 0.0
C2498 C 0.32438 0.23686 0.7432 0.0
C2499 C 0.31993 0.22022 0.7526 0.0
C2500 C 0.31059 0.21716 0.76986 0.0
C2501 C 0.30549 0.22991 0.77771 0.0
C2502 C 0.29746 0.22434 0.79758 0.0
C2503 C 0.30955 0.24121 0.81407 0.0
C2504 C 0.27653 0.21825 0.79671 0.0
C2505 C 0.2993 0.20681 0.79983 0.0
C2506 C 0.30659 0.20275 0.78348 0.0
C2507 C 0.31046 0.1879 0.78242 0.0
C2508 C 0.30714 0.17712 0.79865 0.0
C2509 C 0.30021 0.18137 0.81584 0.0
C2510 C 0.29591 0.19618 0.81623 0.0
H2511 H 0.76605 0.09971 0.71824 0.0
H2512 H 0.73457 0.03575 0.7138 0.0
H2513 H 0.74935 0.03748 0.74637 0.0
H2514 H 0.80992 0.1081 0.74502 0.0
H2515 H 0.81367 0.12948 0.76002 0.0
H2516 H 0.80239 0.12331 0.73528 0.0
H2517 H 0.77353 0.12303 0.74895 0.0
H2518 H 0.78462 0.12904 0.7737 0.0
H2519 H 0.76114 0.10737 0.76786 0.0
H2520 H 0.76404 0.04587 0.78092 0.0
H2521 H 0.77867 0.06039 0.81465 0.0
H2522 H 0.80236 0.11903 0.79628 0.0
C2523 C 0.76259 0.08607 0.72391 0.0
C2524 C 0.74916 0.0676 0.71343 0.0
C2525 C 0.74485 0.05009 0.7215 0.0
C2526 C 0.7532 0.0509 0.74 0.0
C2527 C 0.766 0.06932 0.75016 0.0
C2528 C 0.77088 0.08661 0.74234 0.0
C2529 C 0.78414 0.10444 0.75688 0.0
C2530 C 0.80369 0.11708 0.74882 0.0
C2531 C 0.77532 0.11668 0.76215 0.0
C2532 C 0.78535 0.09443 0.77432 0.0
C2533 C 0.77491 0.07418 0.77007 0.0
C2534 C 0.77266 0.06172 0.7843 0.0
C2535 C 0.78116 0.07017 0.80345 0.0
C2536 C 0.7919 0.09093 0.80825 0.0
C2537 C 0.79422 0.10312 0.79326 0.0
H2538 H 0.03343 0.33676 0.07774 0.0
H2539 H 0.07098 0.37641 0.03705 0.0
H2540 H 0.09704 0.37348 0.0507 0.0
H2541 H 0.06872 0.35444 0.11924 0.0
H2542 H 0.05936 0.33028 0.12708 0.0
H2543 H 0.04374 0.33584 0.11444 0.0
H2544 H 0.03298 0.3061 0.08816 0.0
H2545 H 0.04861 0.30049 0.10068 0.0
H2546 H 0.0506 0.30443 0.07491 0.0
H2547 H 0.11872 0.36573 0.06808 0.0
H2548 H 0.13484 0.35385 0.08832 0.0
H2549 H 0.08337 0.31946 0.11801 0.0
C2550 C 0.04716 0.34492 0.07176 0.0
C2551 C 0.05017 0.35684 0.05633 0.0
C2552 C 0.06833 0.3672 0.04887 0.0
C2553 C 0.08322 0.36564 0.05652 0.0
C2554 C 0.07973 0.35367 0.07162 0.0
C2555 C 0.06218 0.34351 0.0792 0.0
C2556 C 0.06213 0.33143 0.09524 0.0
C2557 C 0.05827 0.33842 0.11518 0.0
C2558 C 0.04773 0.3093 0.08939 0.0
C2559 C 0.08239 0.33633 0.09543 0.0
C2560 C 0.09229 0.34922 0.08171 0.0
C2561 C 0.11118 0.35577 0.07898 0.0
C2562 C 0.12023 0.34902 0.09064 0.0
C2563 C 0.11042 0.33588 0.10489 0.0
C2564 C 0.09122 0.32943 0.10721 0.0
H2565 H 0.66608 0.69087 0.09767 0.0
H2566 H 0.64932 0.65963 0.14996 0.0
H2567 H 0.66248 0.69128 0.17077 0.0
H2568 H 0.71043 0.73375 0.12032 0.0
H2569 H 0.70782 0.75067 0.10678 0.0
H2570 H 0.69782 0.72563 0.09611 0.0
H2571 H 0.66463 0.72105 0.09139 0.0
H2572 H 0.67454 0.74608 0.10194 0.0
H2573 H 0.6546 0.72614 0.11239 0.0
H2574 H 0.67571 0.72615 0.18561 0.0
H2575 H 0.68809 0.76168 0.19323 0.0
H2576 H 0.69674 0.76989 0.13132 0.0
C2577 C 0.66524 0.69066 0.11351 0.0
C2578 C 0.65665 0.67278 0.1222 0.0
C2579 C 0.65587 0.67316 0.14298 0.0
C2580 C 0.66333 0.69106 0.15493 0.0
C2581 C 0.67166 0.70841 0.14587 0.0
C2582 C 0.67271 0.70836 0.12564 0.0
C2583 C 0.68189 0.72895 0.11949 0.0
C2584 C 0.7006 0.73511 0.11012 0.0
C2585 C 0.66809 0.73065 0.10548 0.0
C2586 C 0.68552 0.74058 0.13938 0.0
C2587 C 0.6796 0.7285 0.15444 0.0
C2588 C 0.68059 0.73578 0.17398 0.0
C2589 C 0.68758 0.75592 0.17816 0.0
C2590 C 0.69352 0.76845 0.16288 0.0
C2591 C 0.69271 0.76069 0.14333 0.0
H2592 H 0.31543 0.95311 0.02501 0.0
H2593 H 0.36034 0.98078 0.07285 0.0
H2594 H 0.33658 0.96469 0.09684 0.0
H2595 H 0.28192 0.95823 0.04978 0.0
H2596 H 0.26147 0.93471 0.03995 0.0
H2597 H 0.28202 0.94678 0.02601 0.0
H2598 H 0.2844 0.91593 0.02426 0.0
H2599 H 0.2637 0.90365 0.03802 0.0
H2600 H 0.28555 0.90604 0.04678 0.0
H2601 H 0.30814 0.94905 0.11601 0.0
H2602 H 0.27636 0.93179 0.129 0.0
H2603 H 0.2497 0.91284 0.06916 0.0
C2604 C 0.3203 0.95544 0.04048 0.0
C2605 C 0.33976 0.96827 0.04701 0.0
C2606 C 0.34552 0.97107 0.06744 0.0
C2607 C 0.33214 0.96199 0.08122 0.0
C2608 C 0.31305 0.94995 0.07438 0.0
C2609 C 0.3071 0.94636 0.05449 0.0
C2610 C 0.2856 0.93332 0.05124 0.0
C2611 C 0.27727 0.9439 0.04115 0.0
C2612 C 0.27945 0.91356 0.03937 0.0
C2613 C 0.28043 0.93059 0.07242 0.0
C2614 C 0.29652 0.94036 0.08552 0.0
C2615 C 0.29544 0.94106 0.10593 0.0
C2616 C 0.27742 0.93136 0.11316 0.0
C2617 C 0.26083 0.92104 0.10001 0.0
C2618 C 0.2623 0.92053 0.07942 0.0
H2619 H 0.34511 0.02798 0.98465 0.0
H2620 H 0.3837 0.06777 0.03443 0.0
H2621 H 0.37226 0.0901 0.02998 0.0
H2622 H 0.35124 0.06462 0.9548 0.0
H2623 H 0.32677 0.05127 0.94483 0.0
H2624 H 0.33727 0.03805 0.95273 0.0
H2625 H 0.31044 0.02033 0.97611 0.0
H2626 H 0.2999 0.03359 0.96831 0.0
H2627 H 0.30611 0.03475 0.9942 0.0
H2628 H 0.35781 0.10895 0.01872 0.0
H2629 H 0.34191 0.12294 0.00123 0.0
H2630 H 0.31278 0.0704 0.95927 0.0
C2631 C 0.3511 0.04131 0.99473 0.0
C2632 C 0.36531 0.04613 0.0099 0.0
C2633 C 0.3728 0.06377 0.02271 0.0
C2634 C 0.36634 0.07651 0.02034 0.0
C2635 C 0.35234 0.07131 0.00517 0.0
C2636 C 0.34482 0.05411 0.99261 0.0
C2637 C 0.33046 0.05222 0.977 0.0
C2638 C 0.33683 0.05151 0.95611 0.0
C2639 C 0.31055 0.03415 0.97904 0.0
C2640 C 0.33128 0.0712 0.98253 0.0
C2641 C 0.34389 0.08199 0.99888 0.0
C2642 C 0.34775 0.10053 0.00605 0.0
C2643 C 0.3387 0.10837 0.99603 0.0
C2644 C 0.32595 0.09763 0.97909 0.0
C2645 C 0.32205 0.0787 0.9725 0.0
H2646 H 0.94936 0.2943 0.0177 0.0
H2647 H 0.99329 0.31656 0.97651 0.0
H2648 H 0.97436 0.28543 0.95457 0.0
H2649 H 0.93565 0.24303 0.0109 0.0
H2650 H 0.9107 0.23362 0.01235 0.0
H2651 H 0.92829 0.25712 0.02545 0.0
H2652 H 0.91327 0.2737 0.0078 0.0
H2653 H 0.89564 0.25026 0.99468 0.0
H2654 H 0.91036 0.27093 0.98116 0.0
H2655 H 0.95035 0.25204 0.93682 0.0
H2656 H 0.92195 0.21979 0.92359 0.0
H2657 H 0.89345 0.22006 0.97582 0.0
C2658 C 0.95508 0.29254 0.00416 0.0
C2659 C 0.97283 0.30777 0.99885 0.0
C2660 C 0.9797 0.30505 0.98086 0.0
C2661 C 0.96911 0.2874 0.96834 0.0
C2662 C 0.95162 0.27269 0.97398 0.0
C2663 C 0.94459 0.27512 0.99139 0.0
C2664 C 0.92493 0.2575 0.99348 0.0
C2665 C 0.9249 0.24721 0.01162 0.0
C2666 C 0.91018 0.26346 0.99432 0.0
C2667 C 0.92193 0.24487 0.97444 0.0
C2668 C 0.93758 0.25375 0.9635 0.0
C2669 C 0.93803 0.24491 0.94527 0.0
C2670 C 0.92192 0.22662 0.93791 0.0
C2671 C 0.9056 0.21758 0.94869 0.0
C2672 C 0.90574 0.22677 0.96724 0.0
H2673 H 0.71303 0.67444 0.05955 0.0
H2674 H 0.67136 0.61465 0.03398 0.0
H2675 H 0.69446 0.61613 0.0112 0.0
H2676 H 0.73194 0.6934 0.01513 0.0
H2677 H 0.75623 0.709 0.02551 0.0
H2678 H 0.737 0.70291 0.0409 0.0
H2679 H 0.75045 0.68915 0.06523 0.0
H2680 H 0.76983 0.69536 0.05 0.0
H2681 H 0.75484 0.67044 0.05607 0.0
H2682 H 0.72076 0.62495 0.98945 0.0
H2683 H 0.74939 0.63985 0.97111 0.0
H2684 H 0.77478 0.69348 0.01164 0.0
C2685 C 0.70884 0.66155 0.04935 0.0
C2686 C 0.69037 0.64442 0.04855 0.0
C2687 C 0.68543 0.62792 0.03491 0.0
C2688 C 0.69844 0.62862 0.02189 0.0
C2689 C 0.71638 0.64584 0.02282 0.0
C2690 C 0.72168 0.66195 0.0363 0.0
C2691 C 0.74167 0.67886 0.03379 0.0
C2692 C 0.7417 0.69712 0.02851 0.0
C2693 C 0.75498 0.68373 0.05238 0.0
C2694 C 0.74661 0.66985 0.01652 0.0
C2695 C 0.73181 0.65079 0.01047 0.0
C2696 C 0.73261 0.63973 0.99427 0.0
C2697 C 0.74903 0.64831 0.98403 0.0
C2698 C 0.76456 0.66776 0.99007 0.0
C2699 C 0.76323 0.67861 0.00658 0.0
H2700 H 0.94393 0.66811 0.03455 0.0
H2701 H 0.95426 0.63172 0.9931 0.0
H2702 H 0.93929 0.63864 0.96579 0.0
H2703 H 0.89781 0.65381 0.01108 0.0
H2704 H 0.902 0.67814 0.01625 0.0
H2705 H 0.91296 0.66967 0.03252 0.0
H2706 H 0.94602 0.7004 0.02785 0.0
H2707 H 0.93509 0.70869 0.01129 0.0
H2708 H 0.95363 0.7052 0.00326 0.0
H2709 H 0.92448 0.6507 0.94273 0.0
H2710 H 0.90868 0.66509 0.92597 0.0
H2711 H 0.90718 0.69268 0.98264 0.0
C2712 C 0.94288 0.66143 0.01977 0.0
C2713 C 0.95029 0.64938 0.01599 0.0
C2714 C 0.94865 0.64095 0.9964 0.0
C2715 C 0.94024 0.64486 0.98076 0.0
C2716 C 0.93342 0.65711 0.98494 0.0
C2717 C 0.93444 0.66508 0.00399 0.0
C2718 C 0.92602 0.67776 0.00449 0.0
C2719 C 0.90866 0.66933 0.01681 0.0
C2720 C 0.9411 0.69929 0.01218 0.0
C2721 C 0.92023 0.67576 0.98273 0.0
C2722 C 0.92469 0.66386 0.97169 0.0
C2723 C 0.92079 0.65994 0.95124 0.0
C2724 C 0.91179 0.66814 0.94186 0.0
C2725 C 0.90672 0.68006 0.95295 0.0
C2726 C 0.91118 0.68396 0.97365 0.0
H2727 H 0.33107 0.29988 0.99436 0.0
H2728 H 0.35774 0.33924 0.94909 0.0
H2729 H 0.34815 0.31065 0.92473 0.0
H2730 H 0.34493 0.26629 0.97884 0.0
H2731 H 0.32307 0.24475 0.98441 0.0
H2732 H 0.33143 0.26829 0.99808 0.0
H2733 H 0.29928 0.26475 0.98859 0.0
H2734 H 0.29088 0.24124 0.97475 0.0
H2735 H 0.29089 0.2605 0.96288 0.0
H2736 H 0.3365 0.27797 0.90551 0.0
H2737 H 0.32452 0.24336 0.89312 0.0
H2738 H 0.3057 0.22551 0.95094 0.0
C2739 C 0.33484 0.30249 0.97931 0.0
C2740 C 0.34512 0.32179 0.97363 0.0
C2741 C 0.34986 0.32458 0.9538 0.0
C2742 C 0.34443 0.30844 0.93983 0.0
C2743 C 0.33425 0.28962 0.94591 0.0
C2744 C 0.32956 0.28656 0.96518 0.0
C2745 C 0.31909 0.26488 0.96802 0.0
C2746 C 0.33031 0.26082 0.98323 0.0
C2747 C 0.29883 0.25741 0.97391 0.0
C2748 C 0.3188 0.25627 0.94738 0.0
C2749 C 0.32751 0.27077 0.93481 0.0
C2750 C 0.32955 0.26646 0.91517 0.0
C2751 C 0.32277 0.24682 0.90829 0.0
C2752 C 0.31409 0.2318 0.92104 0.0
C2753 C 0.31189 0.23662 0.94074 0.0
H2754 H 0.6728 0.01792 0.01797 0.0
H2755 H 0.66164 0.06332 0.03687 0.0
H2756 H 0.69038 0.0878 0.02168 0.0
H2757 H 0.72452 0.04885 0.02559 0.0
H2758 H 0.72786 0.03686 0.00407 0.0
H2759 H 0.70711 0.02331 0.01748 0.0
H2760 H 0.68541 0.01423 0.98528 0.0
H2761 H 0.70606 0.02774 0.9718 0.0
H2762 H 0.68796 0.03359 0.97143 0.0
H2763 H 0.71921 0.10675 0.00258 0.0
H2764 H 0.74611 0.11879 0.98144 0.0
H2765 H 0.73814 0.06081 0.97537 0.0
C2766 C 0.67645 0.03304 0.0191 0.0
C2767 C 0.66496 0.03872 0.0286 0.0
C2768 C 0.67025 0.05865 0.0297 0.0
C2769 C 0.68655 0.07265 0.02114 0.0
C2770 C 0.69742 0.06647 0.01169 0.0
C2771 C 0.69262 0.04715 0.01073 0.0
C2772 C 0.70624 0.04408 0.99915 0.0
C2773 C 0.71707 0.03791 0.01237 0.0
C2774 C 0.69579 0.02903 0.98083 0.0
C2775 C 0.7193 0.06463 0.99343 0.0
C2776 C 0.71405 0.07737 0.00086 0.0
C2777 C 0.72354 0.09694 0.99681 0.0
C2778 C 0.73871 0.10361 0.98472 0.0
C2779 C 0.74419 0.09072 0.97684 0.0
C2780 C 0.73445 0.07106 0.98146 0.0
H2781 H 0.66652 0.97363 0.0866 0.0
H2782 H 0.62491 0.93115 0.04008 0.0
H2783 H 0.63574 0.90854 0.04564 0.0
H2784 H 0.70396 0.96441 0.07675 0.0
H2785 H 0.71132 0.96712 0.10257 0.0
H2786 H 0.70107 0.98045 0.09418 0.0
H2787 H 0.6754 0.96529 0.11925 0.0
H2788 H 0.68568 0.95208 0.1278 0.0
H2789 H 0.66087 0.93887 0.11906 0.0
H2790 H 0.65015 0.89001 0.05729 0.0
H2791 H 0.66602 0.87632 0.07529 0.0
H2792 H 0.69784 0.9309 0.11424 0.0
C2793 C 0.65976 0.95964 0.07746 0.0
C2794 C 0.64491 0.95417 0.06286 0.0
C2795 C 0.63632 0.93565 0.05136 0.0
C2796 C 0.64243 0.92275 0.05434 0.0
C2797 C 0.65713 0.92862 0.06885 0.0
C2798 C 0.66563 0.94659 0.08028 0.0
C2799 C 0.68048 0.94899 0.09557 0.0
C2800 C 0.70039 0.96627 0.09204 0.0
C2801 C 0.67529 0.95144 0.11666 0.0
C2802 C 0.67881 0.92942 0.09115 0.0
C2803 C 0.66541 0.91795 0.07557 0.0
C2804 C 0.66078 0.89891 0.0694 0.0
C2805 C 0.66982 0.89126 0.07971 0.0
C2806 C 0.68326 0.90262 0.09602 0.0
C2807 C 0.68799 0.92206 0.10153 0.0
H2808 H 0.02869 0.69367 0.08361 0.0
H2809 H 0.02556 0.70953 0.02468 0.0
H2810 H 0.04799 0.74462 0.03663 0.0
H2811 H 0.03229 0.73652 0.1108 0.0
H2812 H 0.04886 0.73861 0.12997 0.0
H2813 H 0.03162 0.71483 0.11708 0.0
H2814 H 0.05873 0.70972 0.10754 0.0
H2815 H 0.07602 0.73342 0.12042 0.0
H2816 H 0.07795 0.72795 0.09475 0.0
H2817 H 0.07195 0.77774 0.05455 0.0
H2818 H 0.09664 0.80634 0.07685 0.0
H2819 H 0.08373 0.76892 0.12419 0.0
C2820 C 0.03258 0.70452 0.07325 0.0
C2821 C 0.02535 0.69886 0.05321 0.0
C2822 C 0.03092 0.71351 0.0401 0.0
C2823 C 0.04359 0.73349 0.04676 0.0
C2824 C 0.05051 0.73857 0.06658 0.0
C2825 C 0.04523 0.72451 0.07963 0.0
C2826 C 0.05541 0.73377 0.09995 0.0
C2827 C 0.04119 0.73075 0.11536 0.0
C2828 C 0.06776 0.72574 0.10601 0.0
C2829 C 0.0675 0.75518 0.09619 0.0
C2830 C 0.06433 0.75767 0.07691 0.0
C2831 C 0.0744 0.77602 0.06976 0.0
C2832 C 0.0883 0.79221 0.08258 0.0
C2833 C 0.09206 0.78991 0.1023 0.0
C2834 C 0.08125 0.77116 0.10919 0.0
H2835 H 0.32812 0.35988 0.06641 0.0
H2836 H 0.30677 0.36211 0.00833 0.0
H2837 H 0.27454 0.34754 0.01984 0.0
H2838 H 0.28769 0.31384 0.07595 0.0
H2839 H 0.28874 0.32124 0.10186 0.0
H2840 H 0.31018 0.33209 0.08916 0.0
H2841 H 0.31709 0.367 0.09996 0.0
H2842 H 0.29577 0.35626 0.11284 0.0
H2843 H 0.29923 0.37252 0.09436 0.0
H2844 H 0.24448 0.3319 0.03753 0.0
H2845 H 0.21929 0.31862 0.06079 0.0
H2846 H 0.26052 0.32684 0.10718 0.0
C2847 C 0.31671 0.35741 0.05611 0.0
C2848 C 0.31995 0.36211 0.03646 0.0
C2849 C 0.30463 0.35868 0.02348 0.0
C2850 C 0.28626 0.35034 0.02985 0.0
C2851 C 0.28351 0.34561 0.04925 0.0
C2852 C 0.29835 0.3492 0.06224 0.0
C2853 C 0.29169 0.34297 0.08237 0.0
C2854 C 0.29476 0.32656 0.08763 0.0
C2855 C 0.30153 0.36075 0.09832 0.0
C2856 C 0.27076 0.33529 0.07868 0.0
C2857 C 0.26629 0.33682 0.05946 0.0
C2858 C 0.24781 0.33063 0.05261 0.0
C2859 C 0.23358 0.32296 0.06587 0.0
C2860 C 0.23798 0.32166 0.08574 0.0
C2861 C 0.25679 0.32777 0.0921 0.0
H2862 H 0.70495 0.69044 0.4166 0.0
H2863 H 0.70183 0.67048 0.3547 0.0
H2864 H 0.71903 0.65459 0.36373 0.0
H2865 H 0.75214 0.70163 0.42912 0.0
H2866 H 0.74707 0.69342 0.45337 0.0
H2867 H 0.73416 0.70289 0.44206 0.0
H2868 H 0.70234 0.67058 0.44651 0.0
H2869 H 0.71517 0.66096 0.45772 0.0
H2870 H 0.6985 0.64727 0.43647 0.0
H2871 H 0.73653 0.64087 0.37938 0.0
H2872 H 0.755 0.63211 0.40042 0.0
H2873 H 0.74679 0.66098 0.4521 0.0
C2874 C 0.70788 0.68274 0.40493 0.0
C2875 C 0.702 0.68168 0.38494 0.0
C2876 C 0.70621 0.67153 0.37012 0.0
C2877 C 0.7159 0.66238 0.3751 0.0
C2878 C 0.72135 0.66356 0.39495 0.0
C2879 C 0.71763 0.6736 0.40962 0.0
C2880 C 0.72547 0.67307 0.42977 0.0
C2881 C 0.74061 0.694 0.43912 0.0
C2882 C 0.70941 0.66233 0.44342 0.0
C2883 C 0.73426 0.66125 0.4241 0.0
C2884 C 0.73158 0.65577 0.40396 0.0
C2885 C 0.73863 0.64498 0.39518 0.0
C2886 C 0.74897 0.63993 0.40727 0.0
C2887 C 0.75221 0.64574 0.42791 0.0
C2888 C 0.74456 0.65636 0.43637 0.0
H2889 H 0.3117 0.0077 0.45869 0.0
H2890 H 0.31235 0.01249 0.39554 0.0
H2891 H 0.32528 0.04806 0.40208 0.0
H2892 H 0.29763 0.04305 0.47077 0.0
H2893 H 0.31215 0.05277 0.4939 0.0
H2894 H 0.30243 0.02751 0.48423 0.0
H2895 H 0.33635 0.03368 0.48611 0.0
H2896 H 0.34619 0.05901 0.49556 0.0
H2897 H 0.35466 0.05322 0.47362 0.0
H2898 H 0.34006 0.08329 0.41528 0.0
H2899 H 0.35261 0.11567 0.43444 0.0
H2900 H 0.34126 0.0881 0.48897 0.0
C2901 C 0.31438 0.0162 0.44624 0.0
C2902 C 0.31105 0.00732 0.42661 0.0
C2903 C 0.3147 0.01894 0.41071 0.0
C2904 C 0.32214 0.03918 0.41426 0.0
C2905 C 0.32562 0.04755 0.43377 0.0
C2906 C 0.32158 0.03642 0.44951 0.0
C2907 C 0.32651 0.0491 0.46905 0.0
C2908 C 0.30861 0.04273 0.48014 0.0
C2909 C 0.34184 0.04872 0.48183 0.0
C2910 C 0.33421 0.06912 0.46181 0.0
C2911 C 0.33368 0.06788 0.44141 0.0
C2912 C 0.34045 0.08445 0.43126 0.0
C2913 C 0.3477 0.10276 0.44224 0.0
C2914 C 0.34798 0.1043 0.46312 0.0
C2915 C 0.34117 0.08726 0.47301 0.0
H2916 H 0.00772 0.28526 0.39754 0.0
H2917 H 0.99673 0.31845 0.3578 0.0
H2918 H 0.96352 0.30182 0.36669 0.0
H2919 H 0.96082 0.23932 0.3889 0.0
H2920 H 0.96023 0.23457 0.41441 0.0
H2921 H 0.98268 0.24787 0.40365 0.0
H2922 H 0.99476 0.27678 0.43134 0.0
H2923 H 0.97236 0.26361 0.44214 0.0
H2924 H 0.98121 0.28808 0.43541 0.0
H2925 H 0.93214 0.28327 0.3816 0.0
H2926 H 0.90482 0.2638 0.40121 0.0
H2927 H 0.93657 0.24321 0.43144 0.0
C2928 C 0.99825 0.28879 0.39043 0.0
C2929 C 0.0048 0.30309 0.3769 0.0
C2930 C 0.99202 0.3075 0.36817 0.0
C2931 C 0.97312 0.29812 0.3731 0.0
C2932 C 0.96721 0.28434 0.38675 0.0
C2933 C 0.97937 0.27963 0.39524 0.0
C2934 C 0.96977 0.26508 0.41027 0.0
C2935 C 0.96829 0.24555 0.40392 0.0
C2936 C 0.98014 0.27392 0.43101 0.0
C2937 C 0.95041 0.26257 0.4091 0.0
C2938 C 0.94917 0.27371 0.39538 0.0
C2939 C 0.93289 0.27436 0.39227 0.0
C2940 C 0.91751 0.26336 0.40355 0.0
C2941 C 0.91854 0.25192 0.41776 0.0
C2942 C 0.93521 0.25149 0.42041 0.0
H2943 H 0.02531 0.38959 0.35697 0.0
H2944 H 0.08131 0.40622 0.33958 0.0
H2945 H 0.08223 0.43161 0.3207 0.0
H2946 H 0.00762 0.39258 0.31202 0.0
H2947 H 0.99417 0.40258 0.32158 0.0
H2948 H 0.99892 0.38776 0.33621 0.0
H2949 H 0.01454 0.41595 0.36494 0.0
H2950 H 0.0096 0.43083 0.35049 0.0
H2951 H 0.03358 0.44017 0.36033 0.0
H2952 H 0.07518 0.45162 0.30001 0.0
H2953 H 0.06151 0.46629 0.28043 0.0
H2954 H 0.01061 0.43785 0.31232 0.0
C2955 C 0.038 0.39893 0.34965 0.0
C2956 C 0.05325 0.39592 0.34979 0.0
C2957 C 0.06947 0.40827 0.33975 0.0
C2958 C 0.07014 0.42275 0.32899 0.0
C2959 C 0.05457 0.42485 0.32858 0.0
C2960 C 0.03891 0.41348 0.33887 0.0
C2961 C 0.02351 0.41771 0.33484 0.0
C2962 C 0.00497 0.39905 0.32561 0.0
C2963 C 0.02011 0.4267 0.35378 0.0
C2964 C 0.03267 0.4327 0.32012 0.0
C2965 C 0.05064 0.43673 0.31685 0.0
C2966 C 0.06132 0.44898 0.30281 0.0
C2967 C 0.05343 0.45733 0.29181 0.0
C2968 C 0.03501 0.45347 0.29492 0.0
C2969 C 0.02467 0.44111 0.30947 0.0
H2970 H 0.62716 0.63942 0.32276 0.0
H2971 H 0.62262 0.67663 0.28288 0.0
H2972 H 0.59787 0.64693 0.26176 0.0
H2973 H 0.6202 0.60117 0.28506 0.0
H2974 H 0.60649 0.58155 0.30013 0.0
H2975 H 0.62447 0.60572 0.31161 0.0
H2976 H 0.59943 0.60671 0.33256 0.0
H2977 H 0.58141 0.58254 0.3212 0.0
H2978 H 0.57801 0.6028 0.32031 0.0
H2979 H 0.57266 0.61328 0.24588 0.0
H2980 H 0.54852 0.57799 0.23648 0.0
H2981 H 0.56965 0.56286 0.28669 0.0
C2982 C 0.62107 0.64137 0.30952 0.0
C2983 C 0.62684 0.66037 0.30446 0.0
C2984 C 0.61844 0.66223 0.28705 0.0
C2985 C 0.60441 0.64546 0.27494 0.0
C2986 C 0.59901 0.62697 0.28042 0.0
C2987 C 0.6071 0.62483 0.29727 0.0
C2988 C 0.59835 0.60331 0.30019 0.0
C2989 C 0.61327 0.59761 0.29918 0.0
C2990 C 0.58873 0.59857 0.31972 0.0
C2991 C 0.58386 0.59366 0.28249 0.0
C2992 C 0.58454 0.60757 0.27122 0.0
C2993 C 0.57206 0.60226 0.25453 0.0
C2994 C 0.55837 0.58222 0.24936 0.0
C2995 C 0.55727 0.56776 0.26086 0.0
C2996 C 0.57037 0.57359 0.27748 0.0
H2997 H 0.35155 0.95878 0.37076 0.0
H2998 H 0.34533 0.00578 0.35264 0.0
H2999 H 0.37407 0.01815 0.33462 0.0
H3000 H 0.40365 0.98758 0.37698 0.0
H3001 H 0.40553 0.9673 0.36722 0.0
H3002 H 0.38497 0.9626 0.37977 0.0
H3003 H 0.36298 0.93976 0.34908 0.0
H3004 H 0.38346 0.94442 0.33644 0.0
H3005 H 0.36657 0.94916 0.32532 0.0
H3006 H 0.40221 0.02457 0.31723 0.0
H3007 H 0.42831 0.02459 0.30118 0.0
H3008 H 0.41717 0.97396 0.33077 0.0
C3009 C 0.35637 0.97179 0.36318 0.0
C3010 C 0.34619 0.98132 0.36314 0.0
C3011 C 0.35285 0.99819 0.35287 0.0
C3012 C 0.3692 0.00539 0.34262 0.0
C3013 C 0.3788 0.99559 0.34278 0.0
C3014 C 0.37271 0.97919 0.35277 0.0
C3015 C 0.38534 0.97105 0.34986 0.0
C3016 C 0.39547 0.97221 0.36964 0.0
C3017 C 0.3739 0.94984 0.33956 0.0
C3018 C 0.39926 0.9853 0.33647 0.0
C3019 C 0.39526 0.9994 0.3327 0.0
C3020 C 0.40568 0.01379 0.32026 0.0
C3021 C 0.42058 0.01375 0.31132 0.0
C3022 C 0.42497 0.99942 0.31487 0.0
C3023 C 0.41417 0.98509 0.32772 0.0
H3024 H 0.63366 0.98506 0.33251 0.0
H3025 H 0.59571 0.93354 0.36175 0.0
H3026 H 0.56811 0.92984 0.34258 0.0
H3027 H 0.60463 0.00484 0.33302 0.0
H3028 H 0.6105 0.01406 0.30925 0.0
H3029 H 0.62729 0.01167 0.32405 0.0
H3030 H 0.62862 0.98976 0.29504 0.0
H3031 H 0.6118 0.99206 0.28014 0.0
H3032 H 0.60689 0.96798 0.28417 0.0
H3033 H 0.54465 0.93251 0.32115 0.0
H3034 H 0.52692 0.94241 0.30043 0.0
H3035 H 0.58022 0.99256 0.28574 0.0
C3036 C 0.61956 0.97285 0.33472 0.0
C3037 C 0.61682 0.95951 0.34853 0.0
C3038 C 0.59813 0.94392 0.35122 0.0
C3039 C 0.58238 0.94165 0.34035 0.0
C3040 C 0.58559 0.95514 0.32693 0.0
C3041 C 0.60371 0.97049 0.32415 0.0
C3042 C 0.60323 0.98365 0.3097 0.0
C3043 C 0.61192 0.0048 0.3196 0.0
C3044 C 0.61323 0.98333 0.29116 0.0
C3045 C 0.58198 0.97347 0.305 0.0
C3046 C 0.57207 0.95691 0.31488 0.0
C3047 C 0.55226 0.94535 0.31321 0.0
C3048 C 0.54232 0.95102 0.30133 0.0
C3049 C 0.55221 0.96818 0.29141 0.0
C3050 C 0.5723 0.97939 0.29317 0.0
H3051 H 0.01623 0.66214 0.30613 0.0
H3052 H 0.07784 0.69393 0.30676 0.0
H3053 H 0.0754 0.66489 0.28876 0.0
H3054 H 0.00889 0.61531 0.31375 0.0
H3055 H 0.98744 0.6013 0.29744 0.0
H3056 H 0.99384 0.6248 0.30989 0.0
H3057 H 0.99235 0.63711 0.2762 0.0
H3058 H 0.98591 0.61363 0.26364 0.0
H3059 H 0.00632 0.63598 0.25701 0.0
H3060 H 0.06663 0.63236 0.27213 0.0
H3061 H 0.052 0.59819 0.25714 0.0
H3062 H 0.99588 0.58743 0.26599 0.0
C3063 C 0.0292 0.66302 0.3024 0.0
C3064 C 0.04724 0.68032 0.30787 0.0
C3065 C 0.06387 0.68086 0.30273 0.0
C3066 C 0.06264 0.66444 0.2925 0.0
C3067 C 0.04469 0.64762 0.28743 0.0
C3068 C 0.02824 0.64676 0.29211 0.0
C3069 C 0.01076 0.62672 0.28508 0.0
C3070 C -0.00042 0.61643 0.30259 0.0
C3071 C 0.99809 0.62847 0.26956 0.0
C3072 C 0.02 0.61642 0.27593 0.0
C3073 C 0.03957 0.6288 0.27744 0.0
C3074 C 0.0513 0.62258 0.2706 0.0
C3075 C 0.04281 0.60316 0.26195 0.0
C3076 C 0.02274 0.59014 0.26007 0.0
C3077 C 0.01124 0.59697 0.26719 0.0
H3078 H 0.33724 0.36571 0.34732 0.0
H3079 H 0.32003 0.40805 0.35308 0.0
H3080 H 0.34659 0.43021 0.33387 0.0
H3081 H 0.38828 0.40126 0.35099 0.0
H3082 H 0.39254 0.38673 0.33297 0.0
H3083 H 0.37282 0.37477 0.34806 0.0
H3084 H 0.34969 0.35733 0.31652 0.0
H3085 H 0.36931 0.36925 0.30134 0.0
H3086 H 0.34927 0.37191 0.29792 0.0
H3087 H 0.37414 0.44699 0.31276 0.0
H3088 H 0.40082 0.45731 0.29159 0.0
H3089 H 0.39954 0.40367 0.29949 0.0
C3090 C 0.33913 0.37972 0.34473 0.0
C3091 C 0.32657 0.38517 0.35173 0.0
C3092 C 0.32949 0.40358 0.34789 0.0
C3093 C 0.34454 0.41626 0.33701 0.0
C3094 C 0.35651 0.41031 0.33015 0.0
C3095 C 0.354 0.3925 0.33392 0.0
C3096 C 0.36843 0.38924 0.32435 0.0
C3097 C 0.38128 0.38793 0.34003 0.0
C3098 C 0.35858 0.37085 0.30913 0.0
C3099 C 0.37936 0.40793 0.31442 0.0
C3100 C 0.37232 0.41993 0.31799 0.0
C3101 C 0.37981 0.43775 0.30992 0.0
C3102 C 0.39485 0.44341 0.29782 0.0
C3103 C 0.4022 0.43127 0.29388 0.0
C3104 C 0.39438 0.41337 0.30243 0.0
H3105 H 0.32979 0.31866 0.41974 0.0
H3106 H 0.288 0.2801 0.37146 0.0
H3107 H 0.29628 0.25525 0.37565 0.0
H3108 H 0.36502 0.30639 0.40927 0.0
H3109 H 0.37146 0.30728 0.43501 0.0
H3110 H 0.363 0.32248 0.42751 0.0
H3111 H 0.33646 0.30746 0.45169 0.0
H3112 H 0.34494 0.29236 0.45936 0.0
H3113 H 0.32046 0.28107 0.45007 0.0
H3114 H 0.30836 0.23418 0.38591 0.0
H3115 H 0.32219 0.21782 0.40261 0.0
H3116 H 0.35545 0.27009 0.44446 0.0
C3117 C 0.32247 0.30506 0.40994 0.0
C3118 C 0.30831 0.30133 0.39523 0.0
C3119 C 0.29891 0.28325 0.38284 0.0
C3120 C 0.30357 0.2691 0.38504 0.0
C3121 C 0.31763 0.27326 0.39969 0.0
C3122 C 0.32686 0.29076 0.41199 0.0
C3123 C 0.34075 0.29124 0.42722 0.0
C3124 C 0.36127 0.30784 0.42458 0.0
C3125 C 0.33532 0.29313 0.44833 0.0
C3126 C 0.33772 0.27118 0.42171 0.0
C3127 C 0.32446 0.26109 0.40569 0.0
C3128 C 0.31883 0.24197 0.3984 0.0
C3129 C 0.3267 0.23279 0.408 0.0
C3130 C 0.33997 0.24273 0.42473 0.0
C3131 C 0.34569 0.26227 0.43142 0.0
H3132 H 0.70635 0.03592 0.38855 0.0
H3133 H 0.67832 0.0067 0.43945 0.0
H3134 H 0.69788 0.03808 0.4608 0.0
H3135 H 0.75198 0.06538 0.41196 0.0
H3136 H 0.75861 0.08671 0.39925 0.0
H3137 H 0.74106 0.06249 0.38763 0.0
H3138 H 0.717 0.07329 0.3832 0.0
H3139 H 0.73452 0.0976 0.39482 0.0
H3140 H 0.71155 0.08365 0.40443 0.0
H3141 H 0.72294 0.07139 0.47714 0.0
H3142 H 0.75113 0.10484 0.48705 0.0
H3143 H 0.76193 0.11276 0.42551 0.0
C3144 C 0.70411 0.03617 0.40413 0.0
C3145 C 0.69083 0.01885 0.41233 0.0
C3146 C 0.68838 0.01979 0.43282 0.0
C3147 C 0.69939 0.03755 0.44507 0.0
C3148 C 0.71259 0.05428 0.43656 0.0
C3149 C 0.71486 0.05381 0.41654 0.0
C3150 C 0.73073 0.07361 0.41128 0.0
C3151 C 0.74653 0.07194 0.40199 0.0
C3152 C 0.72298 0.08257 0.39762 0.0
C3153 C 0.73745 0.0851 0.43157 0.0
C3154 C 0.72672 0.07372 0.44595 0.0
C3155 C 0.7312 0.08059 0.466 0.0
C3156 C 0.7472 0.09951 0.47149 0.0
C3157 C 0.75837 0.1113 0.45697 0.0
C3158 C 0.75325 0.10413 0.43679 0.0
H3159 H 0.9632 0.67205 0.35015 0.0
H3160 H 0.00338 0.73107 0.37868 0.0
H3161 H 0.97905 0.72821 0.40035 0.0
H3162 H 0.9212 0.67552 0.35167 0.0
H3163 H 0.90575 0.65025 0.35649 0.0
H3164 H 0.92609 0.65717 0.34257 0.0
H3165 H 0.9381 0.6424 0.3673 0.0
H3166 H 0.91787 0.63556 0.38136 0.0
H3167 H 0.94161 0.65082 0.39329 0.0
H3168 H 0.95136 0.7184 0.42026 0.0
H3169 H 0.92131 0.7028 0.43627 0.0
H3170 H 0.89834 0.65062 0.39406 0.0
C3171 C 0.96683 0.68444 0.36082 0.0
C3172 C 0.98522 0.70178 0.3627 0.0
C3173 C 0.9894 0.71764 0.37691 0.0
C3174 C 0.97568 0.71617 0.38932 0.0
C3175 C 0.9578 0.69881 0.38726 0.0
C3176 C 0.95326 0.68328 0.37329 0.0
C3177 C 0.93303 0.66616 0.37441 0.0
C3178 C 0.9208 0.66204 0.35514 0.0
C3179 C 0.93264 0.64765 0.37939 0.0
C3180 C 0.92706 0.67443 0.39139 0.0
C3181 C 0.94158 0.69328 0.39856 0.0
C3182 C 0.93975 0.70376 0.41459 0.0
C3183 C 0.92255 0.69479 0.42351 0.0
C3184 C 0.90729 0.67555 0.4163 0.0
C3185 C 0.90969 0.66529 0.4 0.0
H3186 H 0.37361 0.02031 0.74942 0.0
H3187 H 0.40914 0.06076 0.70818 0.0
H3188 H 0.43714 0.0623 0.7236 0.0
H3189 H 0.40837 0.04254 0.79194 0.0
H3190 H 0.4014 0.01922 0.80066 0.0
H3191 H 0.38421 0.02185 0.7869 0.0
H3192 H 0.37695 0.99247 0.76168 0.0
H3193 H 0.39412 0.98975 0.77535 0.0
H3194 H 0.39616 0.9931 0.74945 0.0
H3195 H 0.46102 0.05887 0.74275 0.0
H3196 H 0.47927 0.05002 0.76394 0.0
H3197 H 0.42836 0.01182 0.79288 0.0
C3198 C 0.3873 0.0296 0.74371 0.0
C3199 C 0.3892 0.04046 0.72762 0.0
C3200 C 0.40733 0.05231 0.72048 0.0
C3201 C 0.42333 0.05332 0.72918 0.0
C3202 C 0.42095 0.04239 0.74495 0.0
C3203 C 0.40341 0.03072 0.75215 0.0
C3204 C 0.40467 0.01996 0.76887 0.0
C3205 C 0.39935 0.02628 0.78824 0.0
C3206 C 0.39224 0.99749 0.76351 0.0
C3207 C 0.42564 0.0273 0.76983 0.0
C3208 C 0.43477 0.04032 0.75599 0.0
C3209 C 0.45408 0.04883 0.75377 0.0
C3210 C 0.46434 0.04382 0.76598 0.0
C3211 C 0.45528 0.0304 0.78021 0.0
C3212 C 0.43566 0.0221 0.78214 0.0
H3213 H 0.00522 0.36543 0.74974 0.0
H3214 H 0.95781 0.3218 0.77961 0.0
H3215 H 0.95807 0.34844 0.80032 0.0
H3216 H 0.02976 0.40159 0.79293 0.0
H3217 H 0.03709 0.42229 0.77896 0.0
H3218 H 0.03388 0.3998 0.76722 0.0
H3219 H 0.01017 0.39803 0.74032 0.0
H3220 H 0.01329 0.42049 0.75197 0.0
H3221 H 0.9898 0.39855 0.74766 0.0
H3222 H 0.96224 0.37961 0.81639 0.0
H3223 H 0.9704 0.41341 0.82712 0.0
H3224 H 0.01514 0.43667 0.78692 0.0
C3225 C 0.99501 0.36146 0.76076 0.0
C3226 C 0.9815 0.34153 0.76305 0.0
C3227 C 0.9683 0.33696 0.77758 0.0
C3228 C 0.96835 0.35199 0.78944 0.0
C3229 C 0.98173 0.37147 0.78665 0.0
C3230 C 0.99487 0.37625 0.77273 0.0
C3231 C 0.00731 0.39834 0.77225 0.0
C3232 C 0.02825 0.40595 0.7782 0.0
C3233 C 0.00499 0.40419 0.75184 0.0
C3234 C 0.99892 0.40521 0.78786 0.0
C3235 C 0.98423 0.38948 0.79603 0.0
C3236 C 0.9738 0.39207 0.81021 0.0
C3237 C 0.97846 0.41126 0.81612 0.0
C3238 C 0.9934 0.42757 0.80784 0.0
C3239 C 0.00384 0.42447 0.79368 0.0
H3240 H 0.6561 0.64459 0.70536 0.0
H3241 H 0.69021 0.62064 0.72082 0.0
H3242 H 0.66466 0.59713 0.74019 0.0
H3243 H 0.6372 0.64245 0.75141 0.0
H3244 H 0.61395 0.63541 0.74118 0.0
H3245 H 0.63445 0.64961 0.7277 0.0
H3246 H 0.61851 0.6231 0.69746 0.0
H3247 H 0.59789 0.60885 0.71082 0.0
H3248 H 0.6102 0.5978 0.70054 0.0
H3249 H 0.63652 0.57815 0.75988 0.0
H3250 H 0.60727 0.56392 0.77729 0.0
H3251 H 0.59072 0.59897 0.74728 0.0
C3252 C 0.65816 0.6343 0.71269 0.0
C3253 C 0.67515 0.63446 0.71164 0.0
C3254 C 0.67727 0.62073 0.72139 0.0
C3255 C 0.66286 0.60735 0.73243 0.0
C3256 C 0.64637 0.60777 0.73335 0.0
C3257 C 0.64387 0.62075 0.72359 0.0
C3258 C 0.62497 0.61844 0.72722 0.0
C3259 C 0.62782 0.63761 0.73749 0.0
C3260 C 0.61214 0.61164 0.70786 0.0
C3261 C 0.61737 0.60237 0.74089 0.0
C3262 C 0.62992 0.59642 0.74423 0.0
C3263 C 0.62642 0.58243 0.7571 0.0
C3264 C 0.60965 0.57432 0.76682 0.0
C3265 C 0.59647 0.5801 0.76353 0.0
C3266 C 0.60045 0.59425 0.75025 0.0
H3267 H 0.71118 0.71197 0.66638 0.0
H3268 H 0.68053 0.65956 0.62415 0.0
H3269 H 0.66329 0.67308 0.60897 0.0
H3270 H 0.67218 0.7183 0.67331 0.0
H3271 H 0.68651 0.74483 0.67496 0.0
H3272 H 0.69687 0.73132 0.68248 0.0
H3273 H 0.723 0.74807 0.65818 0.0
H3274 H 0.71281 0.76173 0.65069 0.0
H3275 H 0.71617 0.74667 0.63243 0.0
H3276 H 0.64907 0.69174 0.59858 0.0
H3277 H 0.63965 0.7153 0.59258 0.0
H3278 H 0.67907 0.75562 0.64165 0.0
C3279 C 0.70095 0.70341 0.65385 0.0
C3280 C 0.69721 0.6847 0.64645 0.0
C3281 C 0.68364 0.67392 0.63009 0.0
C3282 C 0.67374 0.68145 0.62137 0.0
C3283 C 0.67756 0.69978 0.62916 0.0
C3284 C 0.6909 0.7107 0.64494 0.0
C3285 C 0.69224 0.73002 0.65039 0.0
C3286 C 0.68661 0.73118 0.67154 0.0
C3287 C 0.71224 0.74766 0.64776 0.0
C3288 C 0.67758 0.72821 0.63518 0.0
C3289 C 0.66926 0.7106 0.62316 0.0
C3290 C 0.6554 0.70554 0.60795 0.0
C3291 C 0.65002 0.71895 0.60479 0.0
C3292 C 0.65846 0.7372 0.6168 0.0
C3293 C 0.67238 0.7418 0.63224 0.0
H3294 H 0.29915 0.96657 0.68832 0.0
H3295 H 0.3225 0.00018 0.63833 0.0
H3296 H 0.3021 0.9701 0.61548 0.0
H3297 H 0.29457 0.92106 0.66625 0.0
H3298 H 0.27252 0.9054 0.67698 0.0
H3299 H 0.28992 0.9293 0.68953 0.0
H3300 H 0.26456 0.93866 0.69025 0.0
H3301 H 0.24712 0.91481 0.67775 0.0
H3302 H 0.25188 0.93681 0.66743 0.0
H3303 H 0.27752 0.93724 0.59807 0.0
H3304 H 0.25046 0.9034 0.58728 0.0
H3305 H 0.2436 0.89087 0.64838 0.0
C3306 C 0.30014 0.96757 0.67258 0.0
C3307 C 0.31244 0.98573 0.66512 0.0
C3308 C 0.31322 0.98643 0.64441 0.0
C3309 C 0.30172 0.96941 0.63129 0.0
C3310 C 0.28963 0.9518 0.63912 0.0
C3311 C 0.28882 0.95071 0.65927 0.0
C3312 C 0.27402 0.93009 0.66379 0.0
C3313 C 0.28332 0.92092 0.67479 0.0
C3314 C 0.25848 0.93011 0.67549 0.0
C3315 C 0.26635 0.9199 0.64304 0.0
C3316 C 0.27563 0.93268 0.62903 0.0
C3317 C 0.27031 0.92702 0.60888 0.0
C3318 C 0.25494 0.90785 0.6029 0.0
C3319 C 0.24517 0.89461 0.61702 0.0
C3320 C 0.25113 0.90064 0.6373 0.0
H3321 H 0.01659 0.31896 0.67946 0.0
H3322 H 0.02265 0.29308 0.73066 0.0
H3323 H 0.05492 0.3026 0.72226 0.0
H3324 H 0.04017 0.30372 0.64704 0.0
H3325 H 0.05141 0.32599 0.63499 0.0
H3326 H 0.0291 0.31773 0.64549 0.0
H3327 H 0.04412 0.35153 0.66659 0.0
H3328 H 0.06652 0.35984 0.65622 0.0
H3329 H 0.06535 0.36055 0.68265 0.0
H3330 H 0.08598 0.31376 0.70752 0.0
H3331 H 0.11349 0.32553 0.68726 0.0
H3332 H 0.08711 0.34435 0.64605 0.0
C3333 C 0.0247 0.31534 0.68896 0.0
C3334 C 0.01709 0.30527 0.70572 0.0
C3335 C 0.02819 0.3008 0.71775 0.0
C3336 C 0.04654 0.30617 0.71313 0.0
C3337 C 0.0536 0.31609 0.6965 0.0
C3338 C 0.04303 0.32064 0.68462 0.0
C3339 C 0.05372 0.33097 0.66733 0.0
C3340 C 0.04296 0.31887 0.64755 0.0
C3341 C 0.05766 0.35197 0.66827 0.0
C3342 C 0.07187 0.3313 0.67121 0.0
C3343 C 0.07156 0.32271 0.68814 0.0
C3344 C 0.08644 0.32063 0.69431 0.0
C3345 C 0.10195 0.32729 0.68271 0.0
C3346 C 0.10243 0.33594 0.66521 0.0
C3347 C 0.08728 0.33815 0.65957 0.0
H3348 H 0.29511 0.30877 0.65799 0.0
H3349 H 0.28723 0.3212 0.71889 0.0
H3350 H 0.26836 0.33463 0.70738 0.0
H3351 H 0.30023 0.3515 0.63997 0.0
H3352 H 0.28717 0.33899 0.61645 0.0
H3353 H 0.29975 0.33001 0.62939 0.0
H3354 H 0.26866 0.29561 0.62836 0.0
H3355 H 0.25603 0.30443 0.61524 0.0
H3356 H 0.24781 0.29362 0.63795 0.0
H3357 H 0.25163 0.34807 0.68926 0.0
H3358 H 0.23569 0.35776 0.66573 0.0
H3359 H 0.25371 0.33567 0.61664 0.0
C3360 C 0.28932 0.31421 0.66892 0.0
C3361 C 0.29267 0.31399 0.68935 0.0
C3362 C 0.28477 0.32114 0.70317 0.0
C3363 C 0.27412 0.32889 0.69677 0.0
C3364 C 0.27136 0.32917 0.67653 0.0
C3365 C 0.27851 0.32177 0.6628 0.0
C3366 C 0.27328 0.32354 0.64189 0.0
C3367 C 0.29117 0.3368 0.63131 0.0
C3368 C 0.2607 0.30308 0.63017 0.0
C3369 C 0.26221 0.33325 0.646 0.0
C3370 C 0.26139 0.33651 0.66608 0.0
C3371 C 0.25215 0.34556 0.67351 0.0
C3372 C 0.24329 0.35117 0.66005 0.0
C3373 C 0.24363 0.34759 0.63941 0.0
C3374 C 0.25326 0.33857 0.63235 0.0
H3375 H 0.68556 0.98577 0.62881 0.0
H3376 H 0.66533 0.97374 0.6873 0.0
H3377 H 0.65076 0.9382 0.67789 0.0
H3378 H 0.64417 0.94202 0.60177 0.0
H3379 H 0.65829 0.9383 0.58454 0.0
H3380 H 0.66623 0.96282 0.59543 0.0
H3381 H 0.69819 0.96755 0.60822 0.0
H3382 H 0.69034 0.94307 0.5974 0.0
H3383 H 0.69796 0.95003 0.62338 0.0
H3384 H 0.64005 0.90432 0.66302 0.0
H3385 H 0.63396 0.87418 0.6436 0.0
H3386 H 0.66023 0.90783 0.59434 0.0
C3387 C 0.67791 0.97565 0.63957 0.0
C3388 C 0.67659 0.98255 0.65879 0.0
C3389 C 0.66655 0.96882 0.67248 0.0
C3390 C 0.65817 0.94858 0.66727 0.0
C3391 C 0.65988 0.94228 0.64829 0.0
C3392 C 0.66943 0.95535 0.63461 0.0
C3393 C 0.66974 0.94471 0.61543 0.0
C3394 C 0.65896 0.94711 0.59828 0.0
C3395 C 0.69028 0.95176 0.61085 0.0
C3396 C 0.65919 0.92368 0.62065 0.0
C3397 C 0.65352 0.92261 0.63962 0.0
C3398 C 0.64418 0.9049 0.64804 0.0
C3399 C 0.64067 0.88782 0.63682 0.0
C3400 C 0.64647 0.88855 0.61736 0.0
C3401 C 0.65569 0.90675 0.60918 0.0
H3402 H 0.01266 0.73111 0.70102 0.0
H3403 H 0.97883 0.67787 0.66039 0.0
H3404 H 0.00629 0.68801 0.64071 0.0
H3405 H 0.03933 0.76339 0.66361 0.0
H3406 H 0.0611 0.77719 0.67946 0.0
H3407 H 0.0385 0.76616 0.69003 0.0
H3408 H 0.04848 0.74775 0.71209 0.0
H3409 H 0.07102 0.75855 0.70144 0.0
H3410 H 0.05581 0.73214 0.70072 0.0
H3411 H 0.03749 0.70279 0.62629 0.0
H3412 H 0.07026 0.72282 0.6165 0.0
H3413 H 0.08415 0.76663 0.66616 0.0
C3414 C 0.01096 0.72172 0.68784 0.0
C3415 C 0.99358 0.70368 0.68229 0.0
C3416 C 0.99199 0.69175 0.66499 0.0
C3417 C 0.00752 0.69735 0.6537 0.0
C3418 C 0.02454 0.71497 0.65982 0.0
C3419 C 0.02634 0.72711 0.67633 0.0
C3420 C 0.04636 0.74519 0.6797 0.0
C3421 C 0.04631 0.7641 0.6781 0.0
C3422 C 0.05598 0.74594 0.69967 0.0
C3423 C 0.05549 0.74118 0.66257 0.0
C3424 C 0.04264 0.72362 0.65136 0.0
C3425 C 0.04771 0.71659 0.63492 0.0
C3426 C 0.06639 0.72796 0.6296 0.0
C3427 C 0.07976 0.74617 0.64068 0.0
C3428 C 0.0742 0.75279 0.65742 0.0
H3429 H 0.94722 0.61582 0.73631 0.0
H3430 H 0.00083 0.67235 0.74621 0.0
H3431 H 0.01587 0.65648 0.76114 0.0
H3432 H 0.95152 0.59863 0.78195 0.0
H3433 H 0.9408 0.57336 0.77164 0.0
H3434 H 0.93433 0.58894 0.76081 0.0
H3435 H 0.9436 0.58138 0.72679 0.0
H3436 H 0.95016 0.56583 0.73754 0.0
H3437 H 0.96713 0.58597 0.72466 0.0
H3438 H 0.02514 0.63495 0.77528 0.0
H3439 H 0.02758 0.60911 0.78967 0.0
H3440 H 0.96801 0.56647 0.77126 0.0
C3441 C 0.96214 0.62481 0.74153 0.0
C3442 C 0.97287 0.6453 0.74005 0.0
C3443 C 0.99231 0.65663 0.74723 0.0
C3444 C 0.00102 0.64775 0.75566 0.0
C3445 C 0.99009 0.62755 0.7569 0.0
C3446 C 0.97105 0.61621 0.75018 0.0
C3447 C 0.96241 0.59492 0.75407 0.0
C3448 C 0.94632 0.5886 0.76795 0.0
C3449 C 0.95542 0.58122 0.7346 0.0
C3450 C 0.97955 0.59617 0.76413 0.0
C3451 C 0.99539 0.6151 0.76542 0.0
C3452 C 0.01287 0.62003 0.77428 0.0
C3453 C 0.01415 0.60523 0.78229 0.0
C3454 C 0.99802 0.58579 0.78146 0.0
C3455 C 0.98055 0.58123 0.77214 0.0
H3456 H 0.37768 0.37817 0.72878 0.0
H3457 H 0.35932 0.34184 0.77741 0.0
H3458 H 0.38084 0.37115 0.80081 0.0
H3459 H 0.42647 0.40848 0.74664 0.0
H3460 H 0.4296 0.43064 0.73824 0.0
H3461 H 0.41205 0.40698 0.72546 0.0
H3462 H 0.386 0.41493 0.7305 0.0
H3463 H 0.40348 0.4386 0.7434 0.0
H3464 H 0.38252 0.42174 0.75511 0.0
H3465 H 0.40496 0.40411 0.81879 0.0
H3466 H 0.43098 0.43831 0.82995 0.0
H3467 H 0.43394 0.45302 0.76958 0.0
C3468 C 0.37809 0.37638 0.74436 0.0
C3469 C 0.36678 0.35771 0.75127 0.0
C3470 C 0.36786 0.35599 0.77176 0.0
C3471 C 0.37998 0.37256 0.78519 0.0
C3472 C 0.39093 0.39074 0.77788 0.0
C3473 C 0.39016 0.39275 0.75795 0.0
C3474 C 0.40396 0.41381 0.75387 0.0
C3475 C 0.41891 0.41504 0.74025 0.0
C3476 C 0.39335 0.4228 0.74521 0.0
C3477 C 0.41276 0.42328 0.7746 0.0
C3478 C 0.40494 0.40974 0.78825 0.0
C3479 C 0.41116 0.41486 0.80826 0.0
C3480 C 0.42598 0.43428 0.81444 0.0
C3481 C 0.43445 0.4483 0.80064 0.0
C3482 C 0.42752 0.44272 0.78051 0.0
H3483 H 0.67376 0.04617 0.73169 0.0
H3484 H 0.65256 0.04336 0.6717 0.0
H3485 H 0.6218 0.03552 0.68376 0.0
H3486 H 0.6315 0.00587 0.74566 0.0
H3487 H 0.63404 0.01657 0.77068 0.0
H3488 H 0.65483 0.02349 0.75759 0.0
H3489 H 0.6657 0.06028 0.76386 0.0
H3490 H 0.64501 0.05349 0.77712 0.0
H3491 H 0.64971 0.06777 0.75647 0.0
H3492 H 0.59269 0.02602 0.70225 0.0
H3493 H 0.56801 0.01692 0.72589 0.0
H3494 H 0.60842 0.02538 0.77341 0.0
C3495 C 0.66278 0.04422 0.72109 0.0
C3496 C 0.66559 0.04544 0.70075 0.0
C3497 C 0.65076 0.04258 0.68737 0.0
C3498 C 0.63323 0.03809 0.69407 0.0
C3499 C 0.63082 0.03658 0.71418 0.0
C3500 C 0.64525 0.0397 0.7275 0.0
C3501 C 0.63886 0.0365 0.74821 0.0
C3502 C 0.63987 0.0196 0.75598 0.0
C3503 C 0.65051 0.05566 0.76224 0.0
C3504 C 0.6185 0.03088 0.74445 0.0
C3505 C 0.61412 0.03105 0.72475 0.0
C3506 C 0.59599 0.02592 0.71772 0.0
C3507 C 0.58204 0.02062 0.73122 0.0
C3508 C 0.58629 0.02045 0.75149 0.0
C3509 C 0.60479 0.02564 0.75808 0.0
loop_
_geom_bond_atom_site_label_1
_geom_bond_atom_site_label_2
_geom_bond_distance
_geom_bond_site_symmetry_2
_ccdc_geom_bond_type
C0 O1 1.160 . S
C0 O7 1.185 . S
O1 C0 1.160 . S
O2 Zn3 1.899 1_655 S
O2 C10 1.284 . S
Zn3 O2 1.899 1_455 S
Zn3 O4 2.032 . S
Zn3 O7 2.086 . S
Zn3 O12 1.977 . S
O4 Zn3 2.032 . S
O4 C8 1.278 1_455 S
C5 O6 1.203 1_455 S
C5 O12 1.267 1_556 S
O6 C5 1.203 1_655 S
O7 C0 1.185 . S
O7 Zn3 2.086 . S
C8 O4 1.278 1_655 S
C8 O9 1.211 . S
O9 C8 1.211 . S
C10 O2 1.284 . S
C10 O11 1.273 . S
O11 C10 1.273 . S
O12 Zn3 1.977 . S
O12 C5 1.267 1_554 S
C13 O14 1.160 . S
C13 O20 1.185 . S
O14 C13 1.160 . S
O15 Zn16 1.899 . S
O15 C23 1.284 . S
Zn16 O15 1.899 . S
Zn16 O17 2.032 . S
Zn16 O20 2.086 . S
Zn16 O25 1.977 . S
O17 Zn16 2.032 . S
O17 C21 1.278 . S
C18 O19 1.203 . S
C18 O25 1.267 . S
O19 C18 1.203 . S
O20 C13 1.185 . S
O20 Zn16 2.086 . S
C21 O17 1.278 . S
C21 O22 1.211 . S
O22 C21 1.211 . S
C23 O15 1.284 . S
C23 O24 1.273 . S
O24 C23 1.273 . S
O25 Zn16 1.977 . S
O25 C18 1.267 . S
C26 O27 1.160 . S
C26 O33 1.185 . S
O27 C26 1.160 . S
O28 Zn29 1.899 1_565 S
O28 C36 1.284 . S
Zn29 O28 1.899 1_545 S
Zn29 O30 2.032 . S
Zn29 O33 2.086 . S
Zn29 O38 1.977 . S
O30 Zn29 2.032 . S
O30 C34 1.278 1_545 S
C31 O32 1.203 1_545 S
C31 O38 1.267 . S
O32 C31 1.203 1_565 S
O33 C26 1.185 . S
O33 Zn29 2.086 . S
C34 O30 1.278 1_565 S
C34 O35 1.211 . S
O35 C34 1.211 . S
C36 O28 1.284 . S
C36 O37 1.273 . S
O37 C36 1.273 . S
O38 Zn29 1.977 . S
O38 C31 1.267 . S
C39 O40 1.160 . S
C39 O46 1.185 . S
O40 C39 1.160 . S
O41 Zn42 1.899 1_455 S
O41 C49 1.284 . S
Zn42 O41 1.899 1_655 S
Zn42 O43 2.017 1_655 S
Zn42 O46 2.086 . S
Zn42 O51 1.977 . S
O43 Zn42 2.017 1_455 S
O43 C47 1.310 . S
C44 O45 1.203 1_655 S
C44 O51 1.267 . S
O45 C44 1.203 1_455 S
O46 C39 1.185 . S
O46 Zn42 2.086 . S
C47 O43 1.310 . S
C47 O48 1.211 . S
O48 C47 1.211 . S
C49 O41 1.284 . S
C49 O50 1.273 . S
O50 C49 1.273 . S
O51 Zn42 1.977 . S
O51 C44 1.267 . S
C52 O53 1.160 . S
C52 O59 1.185 . S
O53 C52 1.160 . S
O54 Zn55 1.899 1_556 S
O54 C62 1.284 . S
Zn55 O54 1.899 1_554 S
Zn55 O56 2.032 . S
Zn55 O59 2.086 . S
Zn55 O64 1.977 1_554 S
O56 Zn55 2.032 . S
O56 C60 1.278 . S
C57 O58 1.203 . S
C57 O64 1.267 . S
O58 C57 1.203 . S
O59 C52 1.185 . S
O59 Zn55 2.086 . S
C60 O56 1.278 . S
C60 O61 1.211 . S
O61 C60 1.211 . S
C62 O54 1.284 . S
C62 O63 1.249 1_556 S
O63 C62 1.249 1_554 S
O64 Zn55 1.977 1_556 S
O64 C57 1.267 . S
C65 O66 1.160 . S
C65 O72 1.185 . S
O66 C65 1.160 . S
O67 Zn68 1.899 1_545 S
O67 C75 1.284 . S
Zn68 O67 1.899 1_565 S
Zn68 O69 2.032 1_565 S
Zn68 O72 2.086 . S
Zn68 O77 1.977 . S
O69 Zn68 2.032 1_545 S
O69 C73 1.278 . S
C70 O71 1.203 1_565 S
C70 O77 1.267 . S
O71 C70 1.203 1_545 S
O72 C65 1.185 . S
O72 Zn68 2.086 . S
C73 O69 1.278 . S
C73 O74 1.211 . S
O74 C73 1.211 . S
C75 O67 1.284 . S
C75 O76 1.273 . S
O76 C75 1.273 . S
O77 Zn68 1.977 . S
O77 C70 1.267 . S
C78 O79 1.160 . S
C78 O85 1.185 . S
O79 C78 1.160 . S
O80 Zn81 1.899 . S
O80 C88 1.284 . S
Zn81 O80 1.899 . S
Zn81 O82 2.032 . S
Zn81 O85 2.086 . S
Zn81 O90 1.977 . S
O82 Zn81 2.032 . S
O82 C86 1.278 . S
C83 O84 1.203 . S
C83 O90 1.267 . S
O84 C83 1.203 . S
O85 C78 1.185 . S
O85 Zn81 2.086 . S
C86 O82 1.278 . S
C86 O87 1.211 . S
O87 C86 1.211 . S
C88 O80 1.284 . S
C88 O89 1.273 . S
O89 C88 1.273 . S
O90 Zn81 1.977 . S
O90 C83 1.267 . S
C91 O92 1.160 . S
C91 O98 1.185 . S
O92 C91 1.160 . S
O93 Zn94 1.899 . S
O93 C101 1.284 . S
Zn94 O93 1.899 . S
Zn94 O95 2.032 . S
Zn94 O98 2.086 . S
Zn94 O103 1.977 . S
O95 Zn94 2.032 . S
O95 C99 1.278 . S
C96 O97 1.203 . S
C96 O103 1.267 . S
O97 C96 1.203 . S
O98 C91 1.185 . S
O98 Zn94 2.086 . S
C99 O95 1.278 . S
C99 O100 1.211 . S
O100 C99 1.211 . S
C101 O93 1.284 . S
C101 O102 1.273 . S
O102 C101 1.273 . S
O103 Zn94 1.977 . S
O103 C96 1.267 . S
C104 O105 1.160 . S
C104 O111 1.185 . S
O105 C104 1.160 . S
O106 Zn107 1.899 . S
O106 C114 1.284 . S
Zn107 O106 1.899 . S
Zn107 O108 2.032 . S
Zn107 O111 2.086 . S
Zn107 O116 1.977 . S
O108 Zn107 2.032 . S
O108 C112 1.278 . S
C109 O110 1.203 . S
C109 O116 1.267 . S
O110 C109 1.203 . S
O111 C104 1.185 . S
O111 Zn107 2.086 . S
C112 O108 1.278 . S
C112 O113 1.211 . S
O113 C112 1.211 . S
C114 O106 1.284 . S
C114 O115 1.273 . S
O115 C114 1.273 . S
O116 Zn107 1.977 . S
O116 C109 1.267 . S
C117 O118 1.160 . S
C117 O124 1.185 . S
O118 C117 1.160 . S
O119 Zn120 1.899 . S
O119 C127 1.284 . S
Zn120 O119 1.899 . S
Zn120 O121 2.032 . S
Zn120 O124 2.086 . S
Zn120 O129 1.977 . S
O121 Zn120 2.032 . S
O121 C125 1.278 . S
C122 O123 1.203 . S
C122 O129 1.267 . S
O123 C122 1.203 . S
O124 C117 1.185 . S
O124 Zn120 2.086 . S
C125 O121 1.278 . S
C125 O126 1.211 . S
O126 C125 1.211 . S
C127 O119 1.284 . S
C127 O128 1.273 . S
O128 C127 1.273 . S
O129 Zn120 1.977 . S
O129 C122 1.267 . S
C130 O131 1.160 . S
C130 O137 1.185 1_655 S
O131 C130 1.160 . S
O132 Zn133 1.899 . S
O132 C140 1.284 . S
Zn133 O132 1.899 . S
Zn133 O134 2.032 . S
Zn133 O137 2.086 . S
Zn133 O142 1.977 . S
O134 Zn133 2.032 . S
O134 C138 1.278 . S
C135 O136 1.203 . S
C135 O142 1.267 . S
O136 C135 1.203 . S
O137 C130 1.185 1_455 S
O137 Zn133 2.086 . S
C138 O134 1.278 . S
C138 O139 1.211 . S
O139 C138 1.211 . S
C140 O132 1.284 . S
C140 O141 1.273 . S
O141 C140 1.273 . S
O142 Zn133 1.977 . S
O142 C135 1.267 . S
C143 O144 1.160 . S
C143 O150 1.185 . S
O144 C143 1.160 . S
O145 Zn146 1.899 . S
O145 C153 1.284 . S
Zn146 O145 1.899 . S
Zn146 O147 2.032 . S
Zn146 O150 2.086 . S
Zn146 O155 1.977 . S
O147 Zn146 2.032 . S
O147 C151 1.278 . S
C148 O149 1.203 . S
C148 O155 1.267 . S
O149 C148 1.203 . S
O150 C143 1.185 . S
O150 Zn146 2.086 . S
C151 O147 1.278 . S
C151 O152 1.211 . S
O152 C151 1.211 . S
C153 O145 1.284 . S
C153 O154 1.273 . S
O154 C153 1.273 . S
O155 Zn146 1.977 . S
O155 C148 1.267 . S
C156 O157 1.160 . S
C156 O163 1.185 . S
O157 C156 1.160 . S
O158 Zn159 1.899 . S
O158 C166 1.284 . S
Zn159 O158 1.899 . S
Zn159 O160 2.032 . S
Zn159 O163 2.086 . S
Zn159 O168 1.977 . S
O160 Zn159 2.032 . S
O160 C164 1.278 . S
C161 O162 1.203 . S
C161 O168 1.267 . S
O162 C161 1.203 . S
O163 C156 1.185 . S
O163 Zn159 2.086 . S
C164 O160 1.278 . S
C164 O165 1.211 . S
O165 C164 1.211 . S
C166 O158 1.284 . S
C166 O167 1.273 . S
O167 C166 1.273 . S
O168 Zn159 1.977 . S
O168 C161 1.267 . S
C169 O170 1.160 . S
C169 O176 1.185 1_455 S
O170 C169 1.160 . S
O171 Zn172 1.899 . S
O171 C179 1.284 . S
Zn172 O171 1.899 . S
Zn172 O173 2.032 . S
Zn172 O176 2.086 . S
Zn172 O181 1.977 . S
O173 Zn172 2.032 . S
O173 C177 1.278 . S
C174 O175 1.203 . S
C174 O181 1.267 . S
O175 C174 1.203 . S
O176 C169 1.185 1_655 S
O176 Zn172 2.086 . S
C177 O173 1.278 . S
C177 O178 1.211 . S
O178 C177 1.211 . S
C179 O171 1.284 . S
C179 O180 1.273 . S
O180 C179 1.273 . S
O181 Zn172 1.977 . S
O181 C174 1.267 . S
C182 O183 1.160 . S
C182 O189 1.185 . S
O183 C182 1.160 . S
O184 Zn185 1.899 . S
O184 C192 1.284 . S
Zn185 O184 1.899 . S
Zn185 O186 2.032 . S
Zn185 O189 2.086 . S
Zn185 O194 1.977 . S
O186 Zn185 2.032 . S
O186 C190 1.278 . S
C187 O188 1.203 . S
C187 O194 1.267 . S
O188 C187 1.203 . S
O189 C182 1.185 . S
O189 Zn185 2.086 . S
C190 O186 1.278 . S
C190 O191 1.211 . S
O191 C190 1.211 . S
C192 O184 1.284 . S
C192 O193 1.273 . S
O193 C192 1.273 . S
O194 Zn185 1.977 . S
O194 C187 1.267 . S
C195 O196 1.160 . S
C195 O202 1.185 . S
O196 C195 1.160 . S
O197 Zn198 1.899 . S
O197 C205 1.284 . S
Zn198 O197 1.899 . S
Zn198 O199 2.032 . S
Zn198 O202 2.086 . S
Zn198 O207 1.977 . S
O199 Zn198 2.032 . S
O199 C203 1.278 . S
C200 O201 1.203 . S
C200 O207 1.267 . S
O201 C200 1.203 . S
O202 C195 1.185 . S
O202 Zn198 2.086 . S
C203 O199 1.278 . S
C203 O204 1.211 . S
O204 C203 1.211 . S
C205 O197 1.284 . S
C205 O206 1.273 . S
O206 C205 1.273 . S
O207 Zn198 1.977 . S
O207 C200 1.267 . S
C208 O209 1.160 . S
C208 O215 1.185 . S
O209 C208 1.160 . S
O210 Zn211 1.899 . S
O210 C218 1.284 . S
Zn211 O210 1.899 . S
Zn211 O212 2.032 . S
Zn211 O215 2.086 . S
Zn211 O220 1.977 . S
O212 Zn211 2.032 . S
O212 C216 1.278 . S
C213 O214 1.203 . S
C213 O220 1.267 . S
O214 C213 1.203 . S
O215 C208 1.185 . S
O215 Zn211 2.086 . S
C216 O212 1.278 . S
C216 O217 1.211 . S
O217 C216 1.211 . S
C218 O210 1.284 . S
C218 O219 1.273 . S
O219 C218 1.273 . S
O220 Zn211 1.977 . S
O220 C213 1.267 . S
C221 O222 1.160 . S
C221 O228 1.185 . S
O222 C221 1.160 . S
O223 Zn224 1.899 . S
O223 C231 1.284 . S
Zn224 O223 1.899 . S
Zn224 O225 2.032 . S
Zn224 O228 2.086 . S
Zn224 O233 1.977 . S
O225 Zn224 2.032 . S
O225 C229 1.278 . S
C226 O227 1.203 . S
C226 O233 1.267 . S
O227 C226 1.203 . S
O228 C221 1.185 . S
O228 Zn224 2.086 . S
C229 O225 1.278 . S
C229 O230 1.211 . S
O230 C229 1.211 . S
C231 O223 1.284 . S
C231 O232 1.273 . S
O232 C231 1.273 . S
O233 Zn224 1.977 . S
O233 C226 1.267 . S
H234 O260 0.856 . S
H235 O263 0.854 . S
H236 C271 0.930 . S
H237 C272 0.930 . S
H238 C274 0.930 . S
H239 C275 0.930 . S
H240 C277 0.931 . S
H241 C278 0.930 . S
H242 C280 0.930 . S
H243 C281 0.929 . S
H244 C283 0.930 . S
H245 C284 0.931 . S
H246 C286 0.930 . S
H247 C287 0.929 . S
H248 C289 0.931 . S
H249 C290 0.930 . S
H250 C292 0.930 . S
H251 C293 0.932 . S
H252 C295 0.930 . S
H253 C296 0.929 . S
H254 C298 0.931 . S
H255 C299 0.930 . S
H256 C301 0.929 . S
H257 C302 0.931 . S
H258 C304 0.930 . S
H259 C305 0.929 . S
O260 H234 0.856 . S
O260 C306 1.300 . S
O261 C306 1.209 . S
O262 C307 1.199 . S
O263 H235 0.854 . S
O263 C307 1.297 . S
C264 C265 1.404 . S
C264 C269 1.397 . S
C264 C270 1.492 . S
C265 C264 1.404 . S
C265 C266 1.396 . S
C265 C276 1.492 . S
C266 C265 1.396 . S
C266 C267 1.397 . S
C266 C282 1.509 . S
C267 C266 1.397 . S
C267 C268 1.412 . S
C267 C288 1.485 . S
C268 C267 1.412 . S
C268 C269 1.388 . S
C268 C294 1.490 . S
C269 C264 1.397 . S
C269 C268 1.388 . S
C269 C300 1.519 . S
C270 C264 1.492 . S
C270 C271 1.363 . S
C270 C275 1.390 . S
C271 H236 0.930 . S
C271 C270 1.363 . S
C271 C272 1.372 . S
C272 H237 0.930 . S
C272 C271 1.372 . S
C272 C273 1.383 . S
C273 C272 1.383 . S
C273 C274 1.395 . S
C274 H238 0.930 . S
C274 C273 1.395 . S
C274 C275 1.362 . S
C275 H239 0.930 . S
C275 C270 1.390 . S
C275 C274 1.362 . S
C276 C265 1.492 . S
C276 C277 1.377 . S
C276 C281 1.397 . S
C277 H240 0.931 . S
C277 C276 1.377 . S
C277 C278 1.376 . S
C278 H241 0.930 . S
C278 C277 1.376 . S
C278 C279 1.376 . S
C279 C278 1.376 . S
C279 C280 1.378 . S
C279 C306 1.486 . S
C280 H242 0.930 . S
C280 C279 1.378 . S
C280 C281 1.376 . S
C281 H243 0.929 . S
C281 C276 1.397 . S
C281 C280 1.376 . S
C282 C266 1.509 . S
C282 C283 1.391 . S
C282 C287 1.386 . S
C283 H244 0.930 . S
C283 C282 1.391 . S
C283 C284 1.375 . S
C284 H245 0.931 . S
C284 C283 1.375 . S
C284 C285 1.375 . S
C285 C284 1.375 . S
C285 C286 1.361 . S
C286 H246 0.930 . S
C286 C285 1.361 . S
C286 C287 1.399 . S
C287 H247 0.929 . S
C287 C282 1.386 . S
C287 C286 1.399 . S
C288 C267 1.485 . S
C288 C289 1.394 . S
C288 C293 1.360 . S
C289 H248 0.931 . S
C289 C288 1.394 . S
C289 C290 1.372 . S
C290 H249 0.930 . S
C290 C289 1.372 . S
C290 C291 1.397 . S
C291 C290 1.397 . S
C291 C292 1.390 . S
C291 C307 1.476 . S
C292 H250 0.930 . S
C292 C291 1.390 . S
C292 C293 1.366 . S
C293 H251 0.932 . S
C293 C288 1.360 . S
C293 C292 1.366 . S
C294 C268 1.490 . S
C294 C295 1.380 . S
C294 C299 1.386 . S
C295 H252 0.930 . S
C295 C294 1.380 . S
C295 C296 1.381 . S
C296 H253 0.929 . S
C296 C295 1.381 . S
C296 C297 1.371 . S
C297 C296 1.371 . S
C297 C298 1.380 . S
C298 H254 0.931 . S
C298 C297 1.380 . S
C298 C299 1.387 . S
C299 H255 0.930 . S
C299 C294 1.386 . S
C299 C298 1.387 . S
C300 C269 1.519 . S
C300 C301 1.377 . S
C300 C305 1.361 . S
C301 H256 0.929 . S
C301 C300 1.377 . S
C301 C302 1.386 . S
C302 H257 0.931 . S
C302 C301 1.386 . S
C302 C303 1.363 . S
C303 C302 1.363 . S
C303 C304 1.385 . S
C304 H258 0.930 . S
C304 C303 1.385 . S
C304 C305 1.396 . S
C305 H259 0.929 . S
C305 C300 1.361 . S
C305 C304 1.396 . S
C306 O260 1.300 . S
C306 O261 1.209 . S
C306 C279 1.486 . S
C307 O262 1.199 . S
C307 O263 1.297 . S
C307 C291 1.476 . S
H308 O334 0.856 . S
H309 O337 0.854 . S
H310 C345 0.930 . S
H311 C346 0.930 . S
H312 C348 0.930 . S
H313 C349 0.930 . S
H314 C351 0.931 . S
H315 C352 0.930 . S
H316 C354 0.930 . S
H317 C355 0.929 . S
H318 C357 0.930 . S
H319 C358 0.931 . S
H320 C360 0.930 . S
H321 C361 0.929 . S
H322 C363 0.931 . S
H323 C364 0.930 . S
H324 C366 0.930 . S
H325 C367 0.932 . S
H326 C369 0.930 . S
H327 C370 0.929 . S
H328 C372 0.931 . S
H329 C373 0.930 . S
H330 C375 0.929 . S
H331 C376 0.931 . S
H332 C378 0.930 . S
H333 C379 0.929 . S
O334 H308 0.856 . S
O334 C380 1.300 . S
O335 C380 1.209 . S
O336 C381 1.199 . S
O337 H309 0.854 . S
O337 C381 1.297 . S
C338 C339 1.404 . S
C338 C343 1.397 . S
C338 C344 1.492 . S
C339 C338 1.404 . S
C339 C340 1.396 . S
C339 C350 1.492 . S
C340 C339 1.396 . S
C340 C341 1.397 . S
C340 C356 1.509 . S
C341 C340 1.397 . S
C341 C342 1.412 . S
C341 C362 1.485 . S
C342 C341 1.412 . S
C342 C343 1.388 . S
C342 C368 1.490 . S
C343 C338 1.397 . S
C343 C342 1.388 . S
C343 C374 1.519 . S
C344 C338 1.492 . S
C344 C345 1.363 . S
C344 C349 1.390 . S
C345 H310 0.930 . S
C345 C344 1.363 . S
C345 C346 1.372 . S
C346 H311 0.930 . S
C346 C345 1.372 . S
C346 C347 1.383 . S
C347 C346 1.383 . S
C347 C348 1.395 . S
C348 H312 0.930 . S
C348 C347 1.395 . S
C348 C349 1.362 . S
C349 H313 0.930 . S
C349 C344 1.390 . S
C349 C348 1.362 . S
C350 C339 1.492 . S
C350 C351 1.377 . S
C350 C355 1.397 . S
C351 H314 0.931 . S
C351 C350 1.377 . S
C351 C352 1.376 . S
C352 H315 0.930 . S
C352 C351 1.376 . S
C352 C353 1.376 . S
C353 C352 1.376 . S
C353 C354 1.378 . S
C353 C380 1.486 . S
C354 H316 0.930 . S
C354 C353 1.378 . S
C354 C355 1.376 . S
C355 H317 0.929 . S
C355 C350 1.397 . S
C355 C354 1.376 . S
C356 C340 1.509 . S
C356 C357 1.391 . S
C356 C361 1.386 . S
C357 H318 0.930 . S
C357 C356 1.391 . S
C357 C358 1.375 . S
C358 H319 0.931 . S
C358 C357 1.375 . S
C358 C359 1.375 . S
C359 C358 1.375 . S
C359 C360 1.361 . S
C360 H320 0.930 . S
C360 C359 1.361 . S
C360 C361 1.399 . S
C361 H321 0.929 . S
C361 C356 1.386 . S
C361 C360 1.399 . S
C362 C341 1.485 . S
C362 C363 1.394 . S
C362 C367 1.360 . S
C363 H322 0.931 . S
C363 C362 1.394 . S
C363 C364 1.372 . S
C364 H323 0.930 . S
C364 C363 1.372 . S
C364 C365 1.397 . S
C365 C364 1.397 . S
C365 C366 1.390 . S
C365 C381 1.476 . S
C366 H324 0.930 . S
C366 C365 1.390 . S
C366 C367 1.366 . S
C367 H325 0.932 . S
C367 C362 1.360 . S
C367 C366 1.366 . S
C368 C342 1.490 . S
C368 C369 1.380 . S
C368 C373 1.386 . S
C369 H326 0.930 . S
C369 C368 1.380 . S
C369 C370 1.381 . S
C370 H327 0.929 . S
C370 C369 1.381 . S
C370 C371 1.371 . S
C371 C370 1.371 . S
C371 C372 1.380 . S
C372 H328 0.931 . S
C372 C371 1.380 . S
C372 C373 1.387 . S
C373 H329 0.930 . S
C373 C368 1.386 . S
C373 C372 1.387 . S
C374 C343 1.519 . S
C374 C375 1.377 . S
C374 C379 1.361 . S
C375 H330 0.929 . S
C375 C374 1.377 . S
C375 C376 1.386 . S
C376 H331 0.931 . S
C376 C375 1.386 . S
C376 C377 1.363 . S
C377 C376 1.363 . S
C377 C378 1.385 . S
C378 H332 0.930 . S
C378 C377 1.385 . S
C378 C379 1.396 . S
C379 H333 0.929 . S
C379 C374 1.361 . S
C379 C378 1.396 . S
C380 O334 1.300 . S
C380 O335 1.209 . S
C380 C353 1.486 . S
C381 O336 1.199 . S
C381 O337 1.297 . S
C381 C365 1.476 . S
H382 O408 0.856 . S
H383 O411 0.854 . S
H384 C419 0.930 . S
H385 C420 0.930 . S
H386 C422 0.930 . S
H387 C423 0.930 . S
H388 C425 0.931 . S
H389 C426 0.930 . S
H390 C428 0.930 . S
H391 C429 0.929 . S
H392 C431 0.930 . S
H393 C432 0.931 . S
H394 C434 0.930 . S
H395 C435 0.929 . S
H396 C437 0.931 . S
H397 C438 0.930 . S
H398 C440 0.930 . S
H399 C441 0.932 . S
H400 C443 0.930 . S
H401 C444 0.929 . S
H402 C446 0.931 . S
H403 C447 0.930 . S
H404 C449 0.929 . S
H405 C450 0.931 . S
H406 C452 0.930 . S
H407 C453 0.929 . S
O408 H382 0.856 . S
O408 C454 1.300 . S
O409 C454 1.209 . S
O410 C455 1.199 . S
O411 H383 0.854 . S
O411 C455 1.297 . S
C412 C413 1.404 . S
C412 C417 1.397 . S
C412 C418 1.492 . S
C413 C412 1.404 . S
C413 C414 1.396 . S
C413 C424 1.492 . S
C414 C413 1.396 . S
C414 C415 1.397 . S
C414 C430 1.509 . S
C415 C414 1.397 . S
C415 C416 1.412 . S
C415 C436 1.485 . S
C416 C415 1.412 . S
C416 C417 1.388 . S
C416 C442 1.490 . S
C417 C412 1.397 . S
C417 C416 1.388 . S
C417 C448 1.519 . S
C418 C412 1.492 . S
C418 C419 1.363 . S
C418 C423 1.390 . S
C419 H384 0.930 . S
C419 C418 1.363 . S
C419 C420 1.372 . S
C420 H385 0.930 . S
C420 C419 1.372 . S
C420 C421 1.383 . S
C421 C420 1.383 . S
C421 C422 1.395 . S
C422 H386 0.930 . S
C422 C421 1.395 . S
C422 C423 1.362 . S
C423 H387 0.930 . S
C423 C418 1.390 . S
C423 C422 1.362 . S
C424 C413 1.492 . S
C424 C425 1.377 . S
C424 C429 1.397 . S
C425 H388 0.931 . S
C425 C424 1.377 . S
C425 C426 1.376 . S
C426 H389 0.930 . S
C426 C425 1.376 . S
C426 C427 1.376 . S
C427 C426 1.376 . S
C427 C428 1.378 . S
C427 C454 1.486 . S
C428 H390 0.930 . S
C428 C427 1.378 . S
C428 C429 1.376 . S
C429 H391 0.929 . S
C429 C424 1.397 . S
C429 C428 1.376 . S
C430 C414 1.509 . S
C430 C431 1.391 . S
C430 C435 1.386 . S
C431 H392 0.930 . S
C431 C430 1.391 . S
C431 C432 1.375 . S
C432 H393 0.931 . S
C432 C431 1.375 . S
C432 C433 1.375 . S
C433 C432 1.375 . S
C433 C434 1.361 . S
C434 H394 0.930 . S
C434 C433 1.361 . S
C434 C435 1.399 . S
C435 H395 0.929 . S
C435 C430 1.386 . S
C435 C434 1.399 . S
C436 C415 1.485 . S
C436 C437 1.394 . S
C436 C441 1.360 . S
C437 H396 0.931 . S
C437 C436 1.394 . S
C437 C438 1.372 . S
C438 H397 0.930 . S
C438 C437 1.372 . S
C438 C439 1.397 . S
C439 C438 1.397 . S
C439 C440 1.390 . S
C439 C455 1.476 . S
C440 H398 0.930 . S
C440 C439 1.390 . S
C440 C441 1.366 . S
C441 H399 0.932 . S
C441 C436 1.360 . S
C441 C440 1.366 . S
C442 C416 1.490 . S
C442 C443 1.380 . S
C442 C447 1.386 . S
C443 H400 0.930 . S
C443 C442 1.380 . S
C443 C444 1.381 . S
C444 H401 0.929 . S
C444 C443 1.381 . S
C444 C445 1.371 . S
C445 C444 1.371 . S
C445 C446 1.380 . S
C446 H402 0.931 . S
C446 C445 1.380 . S
C446 C447 1.387 . S
C447 H403 0.930 . S
C447 C442 1.386 . S
C447 C446 1.387 . S
C448 C417 1.519 . S
C448 C449 1.377 . S
C448 C453 1.361 . S
C449 H404 0.929 . S
C449 C448 1.377 . S
C449 C450 1.386 . S
C450 H405 0.931 . S
C450 C449 1.386 . S
C450 C451 1.363 . S
C451 C450 1.363 . S
C451 C452 1.385 . S
C452 H406 0.930 . S
C452 C451 1.385 . S
C452 C453 1.396 . S
C453 H407 0.929 . S
C453 C448 1.361 . S
C453 C452 1.396 . S
C454 O408 1.300 . S
C454 O409 1.209 . S
C454 C427 1.486 . S
C455 O410 1.199 . S
C455 O411 1.297 . S
C455 C439 1.476 . S
H456 O482 0.856 . S
H457 O485 0.854 . S
H458 C493 0.930 . S
H459 C494 0.930 . S
H460 C496 0.930 . S
H461 C497 0.930 . S
H462 C499 0.931 . S
H463 C500 0.930 . S
H464 C502 0.930 . S
H465 C503 0.929 . S
H466 C505 0.930 . S
H467 C506 0.931 . S
H468 C508 0.930 . S
H469 C509 0.929 . S
H470 C511 0.931 . S
H471 C512 0.930 . S
H472 C514 0.930 . S
H473 C515 0.932 . S
H474 C517 0.930 . S
H475 C518 0.929 . S
H476 C520 0.931 . S
H477 C521 0.930 . S
H478 C523 0.929 . S
H479 C524 0.931 . S
H480 C526 0.930 . S
H481 C527 0.929 . S
O482 H456 0.856 . S
O482 C528 1.300 . S
O483 C528 1.209 . S
O484 C529 1.199 . S
O485 H457 0.854 . S
O485 C529 1.297 . S
C486 C487 1.404 . S
C486 C491 1.397 . S
C486 C492 1.492 . S
C487 C486 1.404 . S
C487 C488 1.396 . S
C487 C498 1.492 . S
C488 C487 1.396 . S
C488 C489 1.397 . S
C488 C504 1.509 . S
C489 C488 1.397 . S
C489 C490 1.412 . S
C489 C510 1.485 . S
C490 C489 1.412 . S
C490 C491 1.388 . S
C490 C516 1.490 . S
C491 C486 1.397 . S
C491 C490 1.388 . S
C491 C522 1.519 . S
C492 C486 1.492 . S
C492 C493 1.363 . S
C492 C497 1.390 . S
C493 H458 0.930 . S
C493 C492 1.363 . S
C493 C494 1.372 . S
C494 H459 0.930 . S
C494 C493 1.372 . S
C494 C495 1.383 . S
C495 C494 1.383 . S
C495 C496 1.395 . S
C496 H460 0.930 . S
C496 C495 1.395 . S
C496 C497 1.362 . S
C497 H461 0.930 . S
C497 C492 1.390 . S
C497 C496 1.362 . S
C498 C487 1.492 . S
C498 C499 1.377 . S
C498 C503 1.397 . S
C499 H462 0.931 . S
C499 C498 1.377 . S
C499 C500 1.376 . S
C500 H463 0.930 . S
C500 C499 1.376 . S
C500 C501 1.376 . S
C501 C500 1.376 . S
C501 C502 1.378 . S
C501 C528 1.486 1_556 S
C502 H464 0.930 . S
C502 C501 1.378 . S
C502 C503 1.376 . S
C503 H465 0.929 . S
C503 C498 1.397 . S
C503 C502 1.376 . S
C504 C488 1.509 . S
C504 C505 1.391 . S
C504 C509 1.386 . S
C505 H466 0.930 . S
C505 C504 1.391 . S
C505 C506 1.375 . S
C506 H467 0.931 . S
C506 C505 1.375 . S
C506 C507 1.375 . S
C507 C506 1.375 . S
C507 C508 1.361 . S
C508 H468 0.930 . S
C508 C507 1.361 . S
C508 C509 1.399 . S
C509 H469 0.929 . S
C509 C504 1.386 . S
C509 C508 1.399 . S
C510 C489 1.485 . S
C510 C511 1.394 . S
C510 C515 1.360 . S
C511 H470 0.931 . S
C511 C510 1.394 . S
C511 C512 1.372 . S
C512 H471 0.930 . S
C512 C511 1.372 . S
C512 C513 1.397 . S
C513 C512 1.397 . S
C513 C514 1.390 . S
C513 C529 1.476 . S
C514 H472 0.930 . S
C514 C513 1.390 . S
C514 C515 1.366 . S
C515 H473 0.932 . S
C515 C510 1.360 . S
C515 C514 1.366 . S
C516 C490 1.490 . S
C516 C517 1.380 . S
C516 C521 1.386 . S
C517 H474 0.930 . S
C517 C516 1.380 . S
C517 C518 1.381 . S
C518 H475 0.929 . S
C518 C517 1.381 . S
C518 C519 1.371 . S
C519 C518 1.371 . S
C519 C520 1.380 . S
C520 H476 0.931 . S
C520 C519 1.380 . S
C520 C521 1.387 . S
C521 H477 0.930 . S
C521 C516 1.386 . S
C521 C520 1.387 . S
C522 C491 1.519 . S
C522 C523 1.377 . S
C522 C527 1.361 . S
C523 H478 0.929 . S
C523 C522 1.377 . S
C523 C524 1.386 . S
C524 H479 0.931 . S
C524 C523 1.386 . S
C524 C525 1.363 . S
C525 C524 1.363 . S
C525 C526 1.385 . S
C526 H480 0.930 . S
C526 C525 1.385 . S
C526 C527 1.396 . S
C527 H481 0.929 . S
C527 C522 1.361 . S
C527 C526 1.396 . S
C528 O482 1.300 . S
C528 O483 1.209 . S
C528 C501 1.486 1_554 S
C529 O484 1.199 . S
C529 O485 1.297 . S
C529 C513 1.476 . S
H530 O556 0.856 . S
H531 O559 0.854 . S
H532 C567 0.930 . S
H533 C568 0.930 . S
H534 C570 0.930 . S
H535 C571 0.930 . S
H536 C573 0.931 . S
H537 C574 0.930 . S
H538 C576 0.930 . S
H539 C577 0.929 . S
H540 C579 0.930 . S
H541 C580 0.931 . S
H542 C582 0.930 . S
H543 C583 0.929 . S
H544 C585 0.931 . S
H545 C586 0.930 . S
H546 C588 0.930 . S
H547 C589 0.932 . S
H548 C591 0.930 . S
H549 C592 0.929 . S
H550 C594 0.931 . S
H551 C595 0.930 . S
H552 C597 0.929 . S
H553 C598 0.931 . S
H554 C600 0.930 . S
H555 C601 0.929 . S
O556 H530 0.856 . S
O556 C602 1.300 . S
O557 C602 1.209 . S
O558 C603 1.199 . S
O559 H531 0.854 . S
O559 C603 1.297 . S
C560 C561 1.404 . S
C560 C565 1.397 . S
C560 C566 1.492 . S
C561 C560 1.404 . S
C561 C562 1.396 . S
C561 C572 1.492 . S
C562 C561 1.396 . S
C562 C563 1.397 . S
C562 C578 1.509 . S
C563 C562 1.397 . S
C563 C564 1.412 . S
C563 C584 1.485 . S
C564 C563 1.412 . S
C564 C565 1.388 . S
C564 C590 1.490 . S
C565 C560 1.397 . S
C565 C564 1.388 . S
C565 C596 1.519 . S
C566 C560 1.492 . S
C566 C567 1.363 . S
C566 C571 1.390 . S
C567 H532 0.930 . S
C567 C566 1.363 . S
C567 C568 1.372 . S
C568 H533 0.930 . S
C568 C567 1.372 . S
C568 C569 1.383 . S
C569 C568 1.383 . S
C569 C570 1.395 . S
C570 H534 0.930 . S
C570 C569 1.395 . S
C570 C571 1.362 . S
C571 H535 0.930 . S
C571 C566 1.390 . S
C571 C570 1.362 . S
C572 C561 1.492 . S
C572 C573 1.377 . S
C572 C577 1.397 . S
C573 H536 0.931 . S
C573 C572 1.377 . S
C573 C574 1.376 . S
C574 H537 0.930 . S
C574 C573 1.376 . S
C574 C575 1.376 . S
C575 C574 1.376 . S
C575 C576 1.378 . S
C575 C602 1.486 1_556 S
C576 H538 0.930 . S
C576 C575 1.378 . S
C576 C577 1.376 . S
C577 H539 0.929 . S
C577 C572 1.397 . S
C577 C576 1.376 . S
C578 C562 1.509 . S
C578 C579 1.391 . S
C578 C583 1.386 . S
C579 H540 0.930 . S
C579 C578 1.391 . S
C579 C580 1.375 . S
C580 H541 0.931 . S
C580 C579 1.375 . S
C580 C581 1.375 . S
C581 C580 1.375 . S
C581 C582 1.361 . S
C582 H542 0.930 . S
C582 C581 1.361 . S
C582 C583 1.399 . S
C583 H543 0.929 . S
C583 C578 1.386 . S
C583 C582 1.399 . S
C584 C563 1.485 . S
C584 C585 1.394 . S
C584 C589 1.360 . S
C585 H544 0.931 . S
C585 C584 1.394 . S
C585 C586 1.372 . S
C586 H545 0.930 . S
C586 C585 1.372 . S
C586 C587 1.397 . S
C587 C586 1.397 . S
C587 C588 1.390 . S
C587 C603 1.476 . S
C588 H546 0.930 . S
C588 C587 1.390 . S
C588 C589 1.366 . S
C589 H547 0.932 . S
C589 C584 1.360 . S
C589 C588 1.366 . S
C590 C564 1.490 . S
C590 C591 1.380 . S
C590 C595 1.386 . S
C591 H548 0.930 . S
C591 C590 1.380 . S
C591 C592 1.381 . S
C592 H549 0.929 . S
C592 C591 1.381 . S
C592 C593 1.371 . S
C593 C592 1.371 . S
C593 C594 1.380 . S
C594 H550 0.931 . S
C594 C593 1.380 . S
C594 C595 1.387 . S
C595 H551 0.930 . S
C595 C590 1.386 . S
C595 C594 1.387 . S
C596 C565 1.519 . S
C596 C597 1.377 . S
C596 C601 1.361 . S
C597 H552 0.929 . S
C597 C596 1.377 . S
C597 C598 1.386 . S
C598 H553 0.931 . S
C598 C597 1.386 . S
C598 C599 1.363 . S
C599 C598 1.363 . S
C599 C600 1.385 . S
C600 H554 0.930 . S
C600 C599 1.385 . S
C600 C601 1.396 . S
C601 H555 0.929 . S
C601 C596 1.361 . S
C601 C600 1.396 . S
C602 O556 1.300 . S
C602 O557 1.209 . S
C602 C575 1.486 1_554 S
C603 O558 1.199 . S
C603 O559 1.297 . S
C603 C587 1.476 . S
H604 O630 0.856 . S
H605 O633 0.854 . S
H606 C641 0.930 . S
H607 C642 0.930 . S
H608 C644 0.930 . S
H609 C645 0.930 . S
H610 C647 0.931 . S
H611 C648 0.930 1_554 S
H612 C650 0.930 . S
H613 C651 0.929 . S
H614 C653 0.930 . S
H615 C654 0.931 . S
H616 C656 0.930 . S
H617 C657 0.929 . S
H618 C659 0.931 . S
H619 C660 0.930 . S
H620 C662 0.930 . S
H621 C663 0.932 . S
H622 C665 0.930 . S
H623 C666 0.929 . S
H624 C668 0.931 . S
H625 C669 0.930 . S
H626 C671 0.929 . S
H627 C672 0.931 . S
H628 C674 0.930 . S
H629 C675 0.929 . S
O630 H604 0.856 . S
O630 C676 1.300 . S
O631 C676 1.209 . S
O632 C677 1.199 . S
O633 H605 0.854 . S
O633 C677 1.297 . S
C634 C635 1.404 . S
C634 C639 1.397 . S
C634 C640 1.492 . S
C635 C634 1.404 . S
C635 C636 1.396 . S
C635 C646 1.492 . S
C636 C635 1.396 . S
C636 C637 1.397 . S
C636 C652 1.509 . S
C637 C636 1.397 . S
C637 C638 1.412 . S
C637 C658 1.485 . S
C638 C637 1.412 . S
C638 C639 1.388 . S
C638 C664 1.490 . S
C639 C634 1.397 . S
C639 C638 1.388 . S
C639 C670 1.519 . S
C640 C634 1.492 . S
C640 C641 1.363 . S
C640 C645 1.390 . S
C641 H606 0.930 . S
C641 C640 1.363 . S
C641 C642 1.372 . S
C642 H607 0.930 . S
C642 C641 1.372 . S
C642 C643 1.383 . S
C643 C642 1.383 . S
C643 C644 1.395 . S
C644 H608 0.930 . S
C644 C643 1.395 . S
C644 C645 1.362 . S
C645 H609 0.930 . S
C645 C640 1.390 . S
C645 C644 1.362 . S
C646 C635 1.492 . S
C646 C647 1.377 . S
C646 C651 1.397 . S
C647 H610 0.931 . S
C647 C646 1.377 . S
C647 C648 1.376 . S
C648 H611 0.930 1_556 S
C648 C647 1.376 . S
C648 C649 1.389 . S
C649 C648 1.389 . S
C649 C650 1.413 . S
C649 C676 1.440 1_556 S
C650 H612 0.930 . S
C650 C649 1.413 . S
C650 C651 1.376 . S
C651 H613 0.929 . S
C651 C646 1.397 . S
C651 C650 1.376 . S
C652 C636 1.509 . S
C652 C653 1.391 . S
C652 C657 1.386 . S
C653 H614 0.930 . S
C653 C652 1.391 . S
C653 C654 1.375 . S
C654 H615 0.931 . S
C654 C653 1.375 . S
C654 C655 1.375 . S
C655 C654 1.375 . S
C655 C656 1.361 . S
C656 H616 0.930 . S
C656 C655 1.361 . S
C656 C657 1.399 . S
C657 H617 0.929 . S
C657 C652 1.386 . S
C657 C656 1.399 . S
C658 C637 1.485 . S
C658 C659 1.394 . S
C658 C663 1.360 . S
C659 H618 0.931 . S
C659 C658 1.394 . S
C659 C660 1.372 . S
C660 H619 0.930 . S
C660 C659 1.372 . S
C660 C661 1.397 . S
C661 C660 1.397 . S
C661 C662 1.390 . S
C661 C677 1.476 . S
C662 H620 0.930 . S
C662 C661 1.390 . S
C662 C663 1.366 . S
C663 H621 0.932 . S
C663 C658 1.360 . S
C663 C662 1.366 . S
C664 C638 1.490 . S
C664 C665 1.380 . S
C664 C669 1.386 . S
C665 H622 0.930 . S
C665 C664 1.380 . S
C665 C666 1.381 . S
C666 H623 0.929 . S
C666 C665 1.381 . S
C666 C667 1.371 . S
C667 C666 1.371 . S
C667 C668 1.380 . S
C668 H624 0.931 . S
C668 C667 1.380 . S
C668 C669 1.387 . S
C669 H625 0.930 . S
C669 C664 1.386 . S
C669 C668 1.387 . S
C670 C639 1.519 . S
C670 C671 1.377 . S
C670 C675 1.361 . S
C671 H626 0.929 . S
C671 C670 1.377 . S
C671 C672 1.386 . S
C672 H627 0.931 . S
C672 C671 1.386 . S
C672 C673 1.363 . S
C673 C672 1.363 . S
C673 C674 1.385 . S
C674 H628 0.930 . S
C674 C673 1.385 . S
C674 C675 1.396 . S
C675 H629 0.929 . S
C675 C670 1.361 . S
C675 C674 1.396 . S
C676 O630 1.300 . S
C676 O631 1.209 . S
C676 C649 1.440 1_554 S
C677 O632 1.199 . S
C677 O633 1.297 . S
C677 C661 1.476 . S
H678 O704 0.856 . S
H679 O707 0.854 . S
H680 C715 0.930 . S
H681 C716 0.930 . S
H682 C718 0.930 . S
H683 C719 0.930 . S
H684 C721 0.931 . S
H685 C722 0.930 . S
H686 C724 0.930 . S
H687 C725 0.929 . S
H688 C727 0.930 . S
H689 C728 0.931 . S
H690 C730 0.930 . S
H691 C731 0.929 . S
H692 C733 0.931 . S
H693 C734 0.930 . S
H694 C736 0.930 . S
H695 C737 0.932 . S
H696 C739 0.930 . S
H697 C740 0.929 . S
H698 C742 0.931 . S
H699 C743 0.930 . S
H700 C745 0.929 . S
H701 C746 0.931 . S
H702 C748 0.930 . S
H703 C749 0.929 . S
O704 H678 0.856 . S
O704 C750 1.300 . S
O705 C750 1.209 . S
O706 C751 1.199 . S
O707 H679 0.854 . S
O707 C751 1.297 . S
C708 C709 1.404 . S
C708 C713 1.397 . S
C708 C714 1.492 . S
C709 C708 1.404 . S
C709 C710 1.396 . S
C709 C720 1.492 . S
C710 C709 1.396 . S
C710 C711 1.397 . S
C710 C726 1.509 . S
C711 C710 1.397 . S
C711 C712 1.412 . S
C711 C732 1.485 . S
C712 C711 1.412 . S
C712 C713 1.388 . S
C712 C738 1.490 . S
C713 C708 1.397 . S
C713 C712 1.388 . S
C713 C744 1.519 . S
C714 C708 1.492 . S
C714 C715 1.363 . S
C714 C719 1.390 . S
C715 H680 0.930 . S
C715 C714 1.363 . S
C715 C716 1.372 . S
C716 H681 0.930 . S
C716 C715 1.372 . S
C716 C717 1.383 . S
C717 C716 1.383 . S
C717 C718 1.395 . S
C718 H682 0.930 . S
C718 C717 1.395 . S
C718 C719 1.362 . S
C719 H683 0.930 . S
C719 C714 1.390 . S
C719 C718 1.362 . S
C720 C709 1.492 . S
C720 C721 1.377 . S
C720 C725 1.397 . S
C721 H684 0.931 . S
C721 C720 1.377 . S
C721 C722 1.376 . S
C722 H685 0.930 . S
C722 C721 1.376 . S
C722 C723 1.376 . S
C723 C722 1.376 . S
C723 C724 1.378 . S
C723 C750 1.486 . S
C724 H686 0.930 . S
C724 C723 1.378 . S
C724 C725 1.376 . S
C725 H687 0.929 . S
C725 C720 1.397 . S
C725 C724 1.376 . S
C726 C710 1.509 . S
C726 C727 1.391 . S
C726 C731 1.386 . S
C727 H688 0.930 . S
C727 C726 1.391 . S
C727 C728 1.375 . S
C728 H689 0.931 . S
C728 C727 1.375 . S
C728 C729 1.375 . S
C729 C728 1.375 . S
C729 C730 1.361 . S
C730 H690 0.930 . S
C730 C729 1.361 . S
C730 C731 1.399 . S
C731 H691 0.929 . S
C731 C726 1.386 . S
C731 C730 1.399 . S
C732 C711 1.485 . S
C732 C733 1.394 . S
C732 C737 1.360 . S
C733 H692 0.931 . S
C733 C732 1.394 . S
C733 C734 1.372 . S
C734 H693 0.930 . S
C734 C733 1.372 . S
C734 C735 1.397 . S
C735 C734 1.397 . S
C735 C736 1.390 . S
C735 C751 1.476 . S
C736 H694 0.930 . S
C736 C735 1.390 . S
C736 C737 1.366 . S
C737 H695 0.932 . S
C737 C732 1.360 . S
C737 C736 1.366 . S
C738 C712 1.490 . S
C738 C739 1.380 . S
C738 C743 1.386 . S
C739 H696 0.930 . S
C739 C738 1.380 . S
C739 C740 1.381 . S
C740 H697 0.929 . S
C740 C739 1.381 . S
C740 C741 1.371 . S
C741 C740 1.371 . S
C741 C742 1.380 . S
C742 H698 0.931 . S
C742 C741 1.380 . S
C742 C743 1.387 . S
C743 H699 0.930 . S
C743 C738 1.386 . S
C743 C742 1.387 . S
C744 C713 1.519 . S
C744 C745 1.377 . S
C744 C749 1.361 . S
C745 H700 0.929 . S
C745 C744 1.377 . S
C745 C746 1.386 . S
C746 H701 0.931 . S
C746 C745 1.386 . S
C746 C747 1.363 . S
C747 C746 1.363 . S
C747 C748 1.385 . S
C748 H702 0.930 . S
C748 C747 1.385 . S
C748 C749 1.396 . S
C749 H703 0.929 . S
C749 C744 1.361 . S
C749 C748 1.396 . S
C750 O704 1.300 . S
C750 O705 1.209 . S
C750 C723 1.486 . S
C751 O706 1.199 . S
C751 O707 1.297 . S
C751 C735 1.476 . S
H752 O778 0.856 . S
H753 O781 0.854 . S
H754 C789 0.930 . S
H755 C790 0.930 . S
H756 C792 0.930 . S
H757 C793 0.930 . S
H758 C795 0.931 . S
H759 C796 0.930 . S
H760 C798 0.930 . S
H761 C799 0.929 . S
H762 C801 0.930 . S
H763 C802 0.931 . S
H764 C804 0.930 . S
H765 C805 0.929 . S
H766 C807 0.931 . S
H767 C808 0.930 . S
H768 C810 0.930 . S
H769 C811 0.932 . S
H770 C813 0.930 . S
H771 C814 0.929 . S
H772 C816 0.931 . S
H773 C817 0.930 . S
H774 C819 0.929 . S
H775 C820 0.931 . S
H776 C822 0.930 . S
H777 C823 0.929 . S
O778 H752 0.856 . S
O778 C824 1.300 . S
O779 C824 1.209 . S
O780 C825 1.199 . S
O781 H753 0.854 . S
O781 C825 1.297 . S
C782 C783 1.404 . S
C782 C787 1.397 . S
C782 C788 1.492 . S
C783 C782 1.404 . S
C783 C784 1.396 . S
C783 C794 1.492 . S
C784 C783 1.396 . S
C784 C785 1.397 . S
C784 C800 1.509 . S
C785 C784 1.397 . S
C785 C786 1.412 . S
C785 C806 1.485 . S
C786 C785 1.412 . S
C786 C787 1.388 . S
C786 C812 1.490 . S
C787 C782 1.397 . S
C787 C786 1.388 . S
C787 C818 1.519 . S
C788 C782 1.492 . S
C788 C789 1.363 . S
C788 C793 1.390 . S
C789 H754 0.930 . S
C789 C788 1.363 . S
C789 C790 1.372 . S
C790 H755 0.930 . S
C790 C789 1.372 . S
C790 C791 1.383 . S
C791 C790 1.383 . S
C791 C792 1.395 . S
C792 H756 0.930 . S
C792 C791 1.395 . S
C792 C793 1.362 . S
C793 H757 0.930 . S
C793 C788 1.390 . S
C793 C792 1.362 . S
C794 C783 1.492 . S
C794 C795 1.377 . S
C794 C799 1.397 . S
C795 H758 0.931 . S
C795 C794 1.377 . S
C795 C796 1.376 . S
C796 H759 0.930 . S
C796 C795 1.376 . S
C796 C797 1.376 . S
C797 C796 1.376 . S
C797 C798 1.378 . S
C797 C824 1.486 . S
C798 H760 0.930 . S
C798 C797 1.378 . S
C798 C799 1.376 . S
C799 H761 0.929 . S
C799 C794 1.397 . S
C799 C798 1.376 . S
C800 C784 1.509 . S
C800 C801 1.391 . S
C800 C805 1.386 . S
C801 H762 0.930 . S
C801 C800 1.391 . S
C801 C802 1.375 . S
C802 H763 0.931 . S
C802 C801 1.375 . S
C802 C803 1.375 . S
C803 C802 1.375 . S
C803 C804 1.361 . S
C804 H764 0.930 . S
C804 C803 1.361 . S
C804 C805 1.399 . S
C805 H765 0.929 . S
C805 C800 1.386 . S
C805 C804 1.399 . S
C806 C785 1.485 . S
C806 C807 1.394 . S
C806 C811 1.360 . S
C807 H766 0.931 . S
C807 C806 1.394 . S
C807 C808 1.372 . S
C808 H767 0.930 . S
C808 C807 1.372 . S
C808 C809 1.397 . S
C809 C808 1.397 . S
C809 C810 1.390 . S
C809 C825 1.476 . S
C810 H768 0.930 . S
C810 C809 1.390 . S
C810 C811 1.366 . S
C811 H769 0.932 . S
C811 C806 1.360 . S
C811 C810 1.366 . S
C812 C786 1.490 . S
C812 C813 1.380 . S
C812 C817 1.386 . S
C813 H770 0.930 . S
C813 C812 1.380 . S
C813 C814 1.381 . S
C814 H771 0.929 . S
C814 C813 1.381 . S
C814 C815 1.371 . S
C815 C814 1.371 . S
C815 C816 1.380 . S
C816 H772 0.931 . S
C816 C815 1.380 . S
C816 C817 1.387 . S
C817 H773 0.930 . S
C817 C812 1.386 . S
C817 C816 1.387 . S
C818 C787 1.519 . S
C818 C819 1.377 . S
C818 C823 1.361 . S
C819 H774 0.929 . S
C819 C818 1.377 . S
C819 C820 1.386 . S
C820 H775 0.931 . S
C820 C819 1.386 . S
C820 C821 1.363 . S
C821 C820 1.363 . S
C821 C822 1.385 . S
C822 H776 0.930 . S
C822 C821 1.385 . S
C822 C823 1.396 . S
C823 H777 0.929 . S
C823 C818 1.361 . S
C823 C822 1.396 . S
C824 O778 1.300 . S
C824 O779 1.209 . S
C824 C797 1.486 . S
C825 O780 1.199 . S
C825 O781 1.297 . S
C825 C809 1.476 . S
H826 O852 0.856 . S
H827 O855 0.854 . S
H828 C863 0.930 . S
H829 C864 0.930 . S
H830 C866 0.930 . S
H831 C867 0.930 . S
H832 C869 0.931 . S
H833 C870 0.930 . S
H834 C872 0.930 . S
H835 C873 0.929 . S
H836 C875 0.930 . S
H837 C876 0.931 . S
H838 C878 0.930 . S
H839 C879 0.929 . S
H840 C881 0.931 . S
H841 C882 0.930 . S
H842 C884 0.930 . S
H843 C885 0.932 . S
H844 C887 0.930 . S
H845 C888 0.929 . S
H846 C890 0.931 . S
H847 C891 0.930 . S
H848 C893 0.929 . S
H849 C894 0.931 . S
H850 C896 0.930 . S
H851 C897 0.929 . S
O852 H826 0.856 . S
O852 C898 1.300 . S
O853 C898 1.209 . S
O854 C899 1.199 . S
O855 H827 0.854 . S
O855 C899 1.297 . S
C856 C857 1.404 . S
C856 C861 1.397 . S
C856 C862 1.492 . S
C857 C856 1.404 . S
C857 C858 1.396 . S
C857 C868 1.492 . S
C858 C857 1.396 . S
C858 C859 1.397 . S
C858 C874 1.509 . S
C859 C858 1.397 . S
C859 C860 1.412 . S
C859 C880 1.485 . S
C860 C859 1.412 . S
C860 C861 1.388 . S
C860 C886 1.490 . S
C861 C856 1.397 . S
C861 C860 1.388 . S
C861 C892 1.519 . S
C862 C856 1.492 . S
C862 C863 1.363 . S
C862 C867 1.390 . S
C863 H828 0.930 . S
C863 C862 1.363 . S
C863 C864 1.372 . S
C864 H829 0.930 . S
C864 C863 1.372 . S
C864 C865 1.383 . S
C865 C864 1.383 . S
C865 C866 1.395 . S
C866 H830 0.930 . S
C866 C865 1.395 . S
C866 C867 1.362 . S
C867 H831 0.930 . S
C867 C862 1.390 . S
C867 C866 1.362 . S
C868 C857 1.492 . S
C868 C869 1.377 . S
C868 C873 1.397 . S
C869 H832 0.931 . S
C869 C868 1.377 . S
C869 C870 1.376 . S
C870 H833 0.930 . S
C870 C869 1.376 . S
C870 C871 1.376 . S
C871 C870 1.376 . S
C871 C872 1.378 . S
C871 C898 1.486 . S
C872 H834 0.930 . S
C872 C871 1.378 . S
C872 C873 1.376 . S
C873 H835 0.929 . S
C873 C868 1.397 . S
C873 C872 1.376 . S
C874 C858 1.509 . S
C874 C875 1.391 . S
C874 C879 1.386 . S
C875 H836 0.930 . S
C875 C874 1.391 . S
C875 C876 1.375 . S
C876 H837 0.931 . S
C876 C875 1.375 . S
C876 C877 1.375 . S
C877 C876 1.375 . S
C877 C878 1.361 . S
C878 H838 0.930 . S
C878 C877 1.361 . S
C878 C879 1.399 . S
C879 H839 0.929 . S
C879 C874 1.386 . S
C879 C878 1.399 . S
C880 C859 1.485 . S
C880 C881 1.394 . S
C880 C885 1.360 . S
C881 H840 0.931 . S
C881 C880 1.394 . S
C881 C882 1.372 . S
C882 H841 0.930 . S
C882 C881 1.372 . S
C882 C883 1.397 . S
C883 C882 1.397 . S
C883 C884 1.390 . S
C883 C899 1.476 . S
C884 H842 0.930 . S
C884 C883 1.390 . S
C884 C885 1.366 . S
C885 H843 0.932 . S
C885 C880 1.360 . S
C885 C884 1.366 . S
C886 C860 1.490 . S
C886 C887 1.380 . S
C886 C891 1.386 . S
C887 H844 0.930 . S
C887 C886 1.380 . S
C887 C888 1.381 . S
C888 H845 0.929 . S
C888 C887 1.381 . S
C888 C889 1.371 . S
C889 C888 1.371 . S
C889 C890 1.380 . S
C890 H846 0.931 . S
C890 C889 1.380 . S
C890 C891 1.387 . S
C891 H847 0.930 . S
C891 C886 1.386 . S
C891 C890 1.387 . S
C892 C861 1.519 . S
C892 C893 1.377 . S
C892 C897 1.361 . S
C893 H848 0.929 . S
C893 C892 1.377 . S
C893 C894 1.386 . S
C894 H849 0.931 . S
C894 C893 1.386 . S
C894 C895 1.363 . S
C895 C894 1.363 . S
C895 C896 1.385 . S
C896 H850 0.930 . S
C896 C895 1.385 . S
C896 C897 1.396 . S
C897 H851 0.929 . S
C897 C892 1.361 . S
C897 C896 1.396 . S
C898 O852 1.300 . S
C898 O853 1.209 . S
C898 C871 1.486 . S
C899 O854 1.199 . S
C899 O855 1.297 . S
C899 C883 1.476 . S
H900 O926 0.856 . S
H901 O929 0.854 . S
H902 C937 0.930 . S
H903 C938 0.930 . S
H904 C940 0.930 . S
H905 C941 0.930 . S
H906 C943 0.931 . S
H907 C944 0.930 1_655 S
H908 C946 0.930 . S
H909 C947 0.929 . S
H910 C949 0.930 . S
H911 C950 0.931 1_655 S
H912 C952 0.930 . S
H913 C953 0.929 . S
H914 C955 0.931 . S
H915 C956 0.930 . S
H916 C958 0.930 . S
H917 C959 0.932 . S
H918 C961 0.930 . S
H919 C962 0.929 . S
H920 C964 0.931 . S
H921 C965 0.930 . S
H922 C967 0.929 . S
H923 C968 0.931 . S
H924 C970 0.930 . S
H925 C971 0.929 . S
O926 H900 0.856 . S
O926 C972 1.300 . S
O927 C972 1.209 . S
O928 C973 1.199 1_655 S
O929 H901 0.854 . S
O929 C973 1.297 . S
C930 C931 1.404 . S
C930 C935 1.393 . S
C930 C936 1.492 . S
C931 C930 1.404 . S
C931 C932 1.396 . S
C931 C942 1.492 . S
C932 C931 1.396 . S
C932 C933 1.397 . S
C932 C948 1.509 . S
C933 C932 1.397 . S
C933 C934 1.437 . S
C933 C954 1.485 . S
C934 C933 1.437 . S
C934 C935 1.394 . S
C934 C960 1.491 1_455 S
C935 C930 1.393 . S
C935 C934 1.394 . S
C935 C966 1.479 1_455 S
C936 C930 1.492 . S
C936 C937 1.363 1_455 S
C936 C941 1.390 . S
C937 H902 0.930 . S
C937 C936 1.363 1_655 S
C937 C938 1.372 . S
C938 H903 0.930 . S
C938 C937 1.372 . S
C938 C939 1.383 . S
C939 C938 1.383 . S
C939 C940 1.395 1_655 S
C940 H904 0.930 . S
C940 C939 1.395 1_455 S
C940 C941 1.362 . S
C941 H905 0.930 . S
C941 C936 1.390 . S
C941 C940 1.362 . S
C942 C931 1.492 . S
C942 C943 1.377 1_455 S
C942 C947 1.397 . S
C943 H906 0.931 . S
C943 C942 1.377 1_655 S
C943 C944 1.376 1_655 S
C944 H907 0.930 1_455 S
C944 C943 1.376 1_455 S
C944 C945 1.376 . S
C945 C944 1.376 . S
C945 C946 1.378 . S
C945 C972 1.486 . S
C946 H908 0.930 . S
C946 C945 1.378 . S
C946 C947 1.376 . S
C947 H909 0.929 . S
C947 C942 1.397 . S
C947 C946 1.376 . S
C948 C932 1.509 . S
C948 C949 1.391 1_455 S
C948 C953 1.386 . S
C949 H910 0.930 . S
C949 C948 1.391 1_655 S
C949 C950 1.375 1_655 S
C950 H911 0.931 1_455 S
C950 C949 1.375 1_455 S
C950 C951 1.375 . S
C951 C950 1.375 . S
C951 C952 1.361 . S
C952 H912 0.930 . S
C952 C951 1.361 . S
C952 C953 1.399 . S
C953 H913 0.929 . S
C953 C948 1.386 . S
C953 C952 1.399 . S
C954 C933 1.485 . S
C954 C955 1.394 1_455 S
C954 C959 1.360 . S
C955 H914 0.931 . S
C955 C954 1.394 1_655 S
C955 C956 1.372 . S
C956 H915 0.930 . S
C956 C955 1.372 . S
C956 C957 1.397 1_655 S
C957 C956 1.397 1_455 S
C957 C958 1.390 . S
C957 C973 1.476 . S
C958 H916 0.930 . S
C958 C957 1.390 . S
C958 C959 1.366 . S
C959 H917 0.932 . S
C959 C954 1.360 . S
C959 C958 1.366 . S
C960 C934 1.491 1_655 S
C960 C961 1.380 . S
C960 C965 1.386 1_655 S
C961 H918 0.930 . S
C961 C960 1.380 . S
C961 C962 1.381 . S
C962 H919 0.929 . S
C962 C961 1.381 . S
C962 C963 1.371 . S
C963 C962 1.371 . S
C963 C964 1.380 1_655 S
C964 H920 0.931 . S
C964 C963 1.380 1_455 S
C964 C965 1.387 . S
C965 H921 0.930 . S
C965 C960 1.386 1_455 S
C965 C964 1.387 . S
C966 C935 1.479 1_655 S
C966 C967 1.424 . S
C966 C971 1.332 1_655 S
C967 H922 0.929 . S
C967 C966 1.424 . S
C967 C968 1.386 . S
C968 H923 0.931 . S
C968 C967 1.386 . S
C968 C969 1.363 . S
C969 C968 1.363 . S
C969 C970 1.385 1_655 S
C970 H924 0.930 . S
C970 C969 1.385 1_455 S
C970 C971 1.396 . S
C971 H925 0.929 . S
C971 C966 1.332 1_455 S
C971 C970 1.396 . S
C972 O926 1.300 . S
C972 O927 1.209 . S
C972 C945 1.486 . S
C973 O928 1.199 1_455 S
C973 O929 1.297 . S
C973 C957 1.476 . S
H974 O1000 0.856 . S
H975 O1003 0.854 . S
H976 C1011 0.930 . S
H977 C1012 0.930 . S
H978 C1014 0.930 . S
H979 C1015 0.930 . S
H980 C1017 0.931 . S
H981 C1018 0.930 . S
H982 C1020 0.930 . S
H983 C1021 0.929 . S
H984 C1023 0.930 . S
H985 C1024 0.931 . S
H986 C1026 0.930 . S
H987 C1027 0.929 . S
H988 C1029 0.931 . S
H989 C1030 0.930 . S
H990 C1032 0.930 . S
H991 C1033 0.932 . S
H992 C1035 0.930 . S
H993 C1036 0.929 . S
H994 C1038 0.931 . S
H995 C1039 0.930 . S
H996 C1041 0.929 . S
H997 C1042 0.931 . S
H998 C1044 0.930 . S
H999 C1045 0.929 . S
O1000 H974 0.856 . S
O1000 C1046 1.300 . S
O1001 C1046 1.209 . S
O1002 C1047 1.199 . S
O1003 H975 0.854 . S
O1003 C1047 1.297 . S
C1004 C1005 1.404 . S
C1004 C1009 1.397 . S
C1004 C1010 1.492 . S
C1005 C1004 1.404 . S
C1005 C1006 1.396 . S
C1005 C1016 1.492 . S
C1006 C1005 1.396 . S
C1006 C1007 1.397 . S
C1006 C1022 1.509 . S
C1007 C1006 1.397 . S
C1007 C1008 1.412 . S
C1007 C1028 1.485 . S
C1008 C1007 1.412 . S
C1008 C1009 1.388 . S
C1008 C1034 1.490 . S
C1009 C1004 1.397 . S
C1009 C1008 1.388 . S
C1009 C1040 1.519 . S
C1010 C1004 1.492 . S
C1010 C1011 1.363 . S
C1010 C1015 1.390 . S
C1011 H976 0.930 . S
C1011 C1010 1.363 . S
C1011 C1012 1.372 . S
C1012 H977 0.930 . S
C1012 C1011 1.372 . S
C1012 C1013 1.383 . S
C1013 C1012 1.383 . S
C1013 C1014 1.395 . S
C1014 H978 0.930 . S
C1014 C1013 1.395 . S
C1014 C1015 1.362 . S
C1015 H979 0.930 . S
C1015 C1010 1.390 . S
C1015 C1014 1.362 . S
C1016 C1005 1.492 . S
C1016 C1017 1.377 . S
C1016 C1021 1.397 . S
C1017 H980 0.931 . S
C1017 C1016 1.377 . S
C1017 C1018 1.376 . S
C1018 H981 0.930 . S
C1018 C1017 1.376 . S
C1018 C1019 1.376 . S
C1019 C1018 1.376 . S
C1019 C1020 1.378 . S
C1019 C1046 1.486 . S
C1020 H982 0.930 . S
C1020 C1019 1.378 . S
C1020 C1021 1.376 . S
C1021 H983 0.929 . S
C1021 C1016 1.397 . S
C1021 C1020 1.376 . S
C1022 C1006 1.509 . S
C1022 C1023 1.391 . S
C1022 C1027 1.386 . S
C1023 H984 0.930 . S
C1023 C1022 1.391 . S
C1023 C1024 1.375 . S
C1024 H985 0.931 . S
C1024 C1023 1.375 . S
C1024 C1025 1.375 . S
C1025 C1024 1.375 . S
C1025 C1026 1.361 . S
C1026 H986 0.930 . S
C1026 C1025 1.361 . S
C1026 C1027 1.399 . S
C1027 H987 0.929 . S
C1027 C1022 1.386 . S
C1027 C1026 1.399 . S
C1028 C1007 1.485 . S
C1028 C1029 1.394 . S
C1028 C1033 1.360 . S
C1029 H988 0.931 . S
C1029 C1028 1.394 . S
C1029 C1030 1.372 . S
C1030 H989 0.930 . S
C1030 C1029 1.372 . S
C1030 C1031 1.397 . S
C1031 C1030 1.397 . S
C1031 C1032 1.390 . S
C1031 C1047 1.476 . S
C1032 H990 0.930 . S
C1032 C1031 1.390 . S
C1032 C1033 1.366 . S
C1033 H991 0.932 . S
C1033 C1028 1.360 . S
C1033 C1032 1.366 . S
C1034 C1008 1.490 . S
C1034 C1035 1.380 . S
C1034 C1039 1.386 . S
C1035 H992 0.930 . S
C1035 C1034 1.380 . S
C1035 C1036 1.381 . S
C1036 H993 0.929 . S
C1036 C1035 1.381 . S
C1036 C1037 1.371 . S
C1037 C1036 1.371 . S
C1037 C1038 1.380 . S
C1038 H994 0.931 . S
C1038 C1037 1.380 . S
C1038 C1039 1.387 . S
C1039 H995 0.930 . S
C1039 C1034 1.386 . S
C1039 C1038 1.387 . S
C1040 C1009 1.519 . S
C1040 C1041 1.377 . S
C1040 C1045 1.361 . S
C1041 H996 0.929 . S
C1041 C1040 1.377 . S
C1041 C1042 1.386 . S
C1042 H997 0.931 . S
C1042 C1041 1.386 . S
C1042 C1043 1.363 . S
C1043 C1042 1.363 . S
C1043 C1044 1.385 . S
C1044 H998 0.930 . S
C1044 C1043 1.385 . S
C1044 C1045 1.396 . S
C1045 H999 0.929 . S
C1045 C1040 1.361 . S
C1045 C1044 1.396 . S
C1046 O1000 1.300 . S
C1046 O1001 1.209 . S
C1046 C1019 1.486 . S
C1047 O1002 1.199 . S
C1047 O1003 1.297 . S
C1047 C1031 1.476 . S
H1048 O1074 0.856 . S
H1049 O1077 0.854 . S
H1050 C1085 0.930 . S
H1051 C1086 0.930 . S
H1052 C1088 0.930 . S
H1053 C1089 0.930 . S
H1054 C1091 0.931 . S
H1055 C1092 0.917 1_545 S
H1056 C1094 0.930 . S
H1057 C1095 0.929 . S
H1058 C1097 0.930 . S
H1059 C1098 0.931 . S
H1060 C1100 0.930 . S
H1061 C1101 0.929 . S
H1062 C1103 0.931 . S
H1063 C1104 0.930 . S
H1064 C1106 0.930 . S
H1065 C1107 0.932 . S
H1066 C1109 0.930 . S
H1067 C1110 0.929 . S
H1068 C1112 0.931 . S
H1069 C1113 0.930 . S
H1070 C1115 0.929 . S
H1071 C1116 0.931 . S
H1072 C1118 0.930 . S
H1073 C1119 0.929 . S
O1074 H1048 0.856 . S
O1074 C1120 1.300 . S
O1075 C1120 1.209 . S
O1076 C1121 1.199 1_545 S
O1077 H1049 0.854 . S
O1077 C1121 1.297 . S
C1078 C1079 1.404 . S
C1078 C1083 1.415 . S
C1078 C1084 1.492 . S
C1079 C1078 1.404 . S
C1079 C1080 1.396 . S
C1079 C1090 1.492 . S
C1080 C1079 1.396 . S
C1080 C1081 1.397 . S
C1080 C1096 1.509 . S
C1081 C1080 1.397 . S
C1081 C1082 1.412 1_565 S
C1081 C1102 1.485 . S
C1082 C1081 1.412 1_545 S
C1082 C1083 1.363 1_545 S
C1082 C1108 1.489 . S
C1083 C1078 1.415 . S
C1083 C1082 1.363 1_565 S
C1083 C1114 1.533 1_565 S
C1084 C1078 1.492 . S
C1084 C1085 1.363 1_565 S
C1084 C1089 1.390 . S
C1085 H1050 0.930 . S
C1085 C1084 1.363 1_545 S
C1085 C1086 1.372 . S
C1086 H1051 0.930 . S
C1086 C1085 1.372 . S
C1086 C1087 1.448 . S
C1087 C1086 1.448 . S
C1087 C1088 1.364 1_545 S
C1088 H1052 0.930 . S
C1088 C1087 1.364 1_565 S
C1088 C1089 1.362 . S
C1089 H1053 0.930 . S
C1089 C1084 1.390 . S
C1089 C1088 1.362 . S
C1090 C1079 1.492 . S
C1090 C1091 1.377 1_565 S
C1090 C1095 1.397 . S
C1091 H1054 0.931 . S
C1091 C1090 1.377 1_545 S
C1091 C1092 1.368 1_545 S
C1092 H1055 0.917 1_565 S
C1092 C1091 1.368 1_565 S
C1092 C1093 1.396 . S
C1093 C1092 1.396 . S
C1093 C1094 1.378 . S
C1093 C1120 1.486 . S
C1094 H1056 0.930 . S
C1094 C1093 1.378 . S
C1094 C1095 1.376 . S
C1095 H1057 0.929 . S
C1095 C1090 1.397 . S
C1095 C1094 1.376 . S
C1096 C1080 1.509 . S
C1096 C1097 1.391 1_565 S
C1096 C1101 1.386 . S
C1097 H1058 0.930 . S
C1097 C1096 1.391 1_545 S
C1097 C1098 1.375 . S
C1098 H1059 0.931 . S
C1098 C1097 1.375 . S
C1098 C1099 1.375 1_545 S
C1099 C1098 1.375 1_565 S
C1099 C1100 1.361 . S
C1100 H1060 0.930 . S
C1100 C1099 1.361 . S
C1100 C1101 1.399 . S
C1101 H1061 0.929 . S
C1101 C1096 1.386 . S
C1101 C1100 1.399 . S
C1102 C1081 1.485 . S
C1102 C1103 1.394 1_565 S
C1102 C1107 1.360 . S
C1103 H1062 0.931 . S
C1103 C1102 1.394 1_545 S
C1103 C1104 1.372 . S
C1104 H1063 0.930 . S
C1104 C1103 1.372 . S
C1104 C1105 1.397 1_545 S
C1105 C1104 1.397 1_565 S
C1105 C1106 1.390 . S
C1105 C1121 1.476 . S
C1106 H1064 0.930 . S
C1106 C1105 1.390 . S
C1106 C1107 1.366 . S
C1107 H1065 0.932 . S
C1107 C1102 1.360 . S
C1107 C1106 1.366 . S
C1108 C1082 1.489 . S
C1108 C1109 1.380 . S
C1108 C1113 1.386 1_545 S
C1109 H1066 0.930 . S
C1109 C1108 1.380 . S
C1109 C1110 1.381 . S
C1110 H1067 0.929 . S
C1110 C1109 1.381 . S
C1110 C1111 1.371 . S
C1111 C1110 1.371 . S
C1111 C1112 1.380 1_545 S
C1112 H1068 0.931 . S
C1112 C1111 1.380 1_565 S
C1112 C1113 1.387 . S
C1113 H1069 0.930 . S
C1113 C1108 1.386 1_565 S
C1113 C1112 1.387 . S
C1114 C1083 1.533 1_545 S
C1114 C1115 1.377 . S
C1114 C1119 1.362 1_545 S
C1115 H1070 0.929 . S
C1115 C1114 1.377 . S
C1115 C1116 1.386 . S
C1116 H1071 0.931 . S
C1116 C1115 1.386 . S
C1116 C1117 1.317 1_545 S
C1117 C1116 1.317 1_565 S
C1117 C1118 1.408 . S
C1118 H1072 0.930 . S
C1118 C1117 1.408 . S
C1118 C1119 1.396 . S
C1119 H1073 0.929 . S
C1119 C1114 1.362 1_565 S
C1119 C1118 1.396 . S
C1120 O1074 1.300 . S
C1120 O1075 1.209 . S
C1120 C1093 1.486 . S
C1121 O1076 1.199 1_565 S
C1121 O1077 1.297 . S
C1121 C1105 1.476 . S
H1122 O1148 0.856 . S
H1123 O1151 0.854 . S
H1124 C1159 0.930 . S
H1125 C1160 0.930 . S
H1126 C1162 0.930 . S
H1127 C1163 0.930 . S
H1128 C1165 0.931 . S
H1129 C1166 0.930 . S
H1130 C1168 0.930 . S
H1131 C1169 0.929 . S
H1132 C1171 0.930 . S
H1133 C1172 0.931 . S
H1134 C1174 0.930 . S
H1135 C1175 0.929 . S
H1136 C1177 0.931 . S
H1137 C1178 0.930 . S
H1138 C1180 0.930 . S
H1139 C1181 0.932 . S
H1140 C1183 0.930 . S
H1141 C1184 0.929 . S
H1142 C1186 0.931 . S
H1143 C1187 0.930 . S
H1144 C1189 0.929 . S
H1145 C1190 0.931 . S
H1146 C1192 0.930 . S
H1147 C1193 0.929 . S
O1148 H1122 0.856 . S
O1148 C1194 1.300 . S
O1149 C1194 1.209 1_565 S
O1150 C1195 1.199 1_545 S
O1151 H1123 0.854 . S
O1151 C1195 1.297 . S
C1152 C1153 1.404 . S
C1152 C1157 1.396 1_545 S
C1152 C1158 1.492 . S
C1153 C1152 1.404 . S
C1153 C1154 1.421 . S
C1153 C1164 1.492 . S
C1154 C1153 1.421 . S
C1154 C1155 1.373 1_545 S
C1154 C1170 1.501 . S
C1155 C1154 1.373 1_565 S
C1155 C1156 1.414 . S
C1155 C1176 1.519 . S
C1156 C1155 1.414 . S
C1156 C1157 1.355 . S
C1156 C1182 1.506 . S
C1157 C1152 1.396 1_565 S
C1157 C1156 1.355 . S
C1157 C1188 1.518 . S
C1158 C1152 1.492 . S
C1158 C1159 1.363 . S
C1158 C1163 1.390 1_545 S
C1159 H1124 0.930 . S
C1159 C1158 1.363 . S
C1159 C1160 1.372 . S
C1160 H1125 0.930 . S
C1160 C1159 1.372 . S
C1160 C1161 1.383 . S
C1161 C1160 1.383 . S
C1161 C1162 1.395 1_545 S
C1162 H1126 0.930 . S
C1162 C1161 1.395 1_565 S
C1162 C1163 1.362 . S
C1163 H1127 0.930 . S
C1163 C1158 1.390 1_565 S
C1163 C1162 1.362 . S
C1164 C1153 1.492 . S
C1164 C1165 1.377 . S
C1164 C1169 1.397 1_545 S
C1165 H1128 0.931 . S
C1165 C1164 1.377 . S
C1165 C1166 1.376 . S
C1166 H1129 0.930 . S
C1166 C1165 1.376 . S
C1166 C1167 1.376 . S
C1167 C1166 1.376 . S
C1167 C1168 1.378 1_545 S
C1167 C1194 1.486 . S
C1168 H1130 0.930 . S
C1168 C1167 1.378 1_565 S
C1168 C1169 1.376 . S
C1169 H1131 0.929 . S
C1169 C1164 1.397 1_565 S
C1169 C1168 1.376 . S
C1170 C1154 1.501 . S
C1170 C1171 1.399 . S
C1170 C1175 1.373 1_545 S
C1171 H1132 0.930 . S
C1171 C1170 1.399 . S
C1171 C1172 1.375 . S
C1172 H1133 0.931 . S
C1172 C1171 1.375 . S
C1172 C1173 1.365 1_545 S
C1173 C1172 1.365 1_565 S
C1173 C1174 1.367 . S
C1174 H1134 0.930 . S
C1174 C1173 1.367 . S
C1174 C1175 1.399 . S
C1175 H1135 0.929 . S
C1175 C1170 1.373 1_565 S
C1175 C1174 1.399 . S
C1176 C1155 1.519 . S
C1176 C1177 1.394 1_565 S
C1176 C1181 1.360 . S
C1177 H1136 0.931 . S
C1177 C1176 1.394 1_545 S
C1177 C1178 1.372 . S
C1178 H1137 0.930 . S
C1178 C1177 1.372 . S
C1178 C1179 1.397 1_545 S
C1179 C1178 1.397 1_565 S
C1179 C1180 1.390 . S
C1179 C1195 1.476 . S
C1180 H1138 0.930 . S
C1180 C1179 1.390 . S
C1180 C1181 1.366 . S
C1181 H1139 0.932 . S
C1181 C1176 1.360 . S
C1181 C1180 1.366 . S
C1182 C1156 1.506 . S
C1182 C1183 1.380 1_565 S
C1182 C1187 1.386 . S
C1183 H1140 0.930 . S
C1183 C1182 1.380 1_545 S
C1183 C1184 1.381 . S
C1184 H1141 0.929 . S
C1184 C1183 1.381 . S
C1184 C1185 1.354 1_545 S
C1185 C1184 1.354 1_565 S
C1185 C1186 1.393 . S
C1186 H1142 0.931 . S
C1186 C1185 1.393 . S
C1186 C1187 1.387 . S
C1187 H1143 0.930 . S
C1187 C1182 1.386 . S
C1187 C1186 1.387 . S
C1188 C1157 1.518 . S
C1188 C1189 1.377 1_565 S
C1188 C1193 1.361 . S
C1189 H1144 0.929 . S
C1189 C1188 1.377 1_545 S
C1189 C1190 1.386 . S
C1190 H1145 0.931 . S
C1190 C1189 1.386 . S
C1190 C1191 1.363 1_545 S
C1191 C1190 1.363 1_565 S
C1191 C1192 1.385 . S
C1192 H1146 0.930 . S
C1192 C1191 1.385 . S
C1192 C1193 1.396 . S
C1193 H1147 0.929 . S
C1193 C1188 1.361 . S
C1193 C1192 1.396 . S
C1194 O1148 1.300 . S
C1194 O1149 1.209 1_545 S
C1194 C1167 1.486 . S
C1195 O1150 1.199 1_565 S
C1195 O1151 1.297 . S
C1195 C1179 1.476 . S
H1196 O1222 0.856 . S
H1197 O1225 0.854 . S
H1198 C1233 0.930 . S
H1199 C1234 0.930 . S
H1200 C1236 0.930 . S
H1201 C1237 0.930 . S
H1202 C1239 0.931 . S
H1203 C1240 0.930 . S
H1204 C1242 0.930 . S
H1205 C1243 0.929 . S
H1206 C1245 0.930 . S
H1207 C1246 0.931 . S
H1208 C1248 0.930 . S
H1209 C1249 0.929 . S
H1210 C1251 0.931 . S
H1211 C1252 0.930 . S
H1212 C1254 0.930 . S
H1213 C1255 0.932 . S
H1214 C1257 0.930 . S
H1215 C1258 0.929 . S
H1216 C1260 0.931 . S
H1217 C1261 0.930 . S
H1218 C1263 0.929 . S
H1219 C1264 0.931 . S
H1220 C1266 0.930 . S
H1221 C1267 0.929 . S
O1222 H1196 0.856 . S
O1222 C1268 1.300 . S
O1223 C1268 1.209 1_455 S
O1224 C1269 1.199 1_655 S
O1225 H1197 0.854 . S
O1225 C1269 1.297 . S
C1226 C1227 1.404 . S
C1226 C1231 1.397 . S
C1226 C1232 1.492 . S
C1227 C1226 1.404 . S
C1227 C1228 1.396 . S
C1227 C1238 1.492 . S
C1228 C1227 1.396 . S
C1228 C1229 1.393 . S
C1228 C1244 1.509 . S
C1229 C1228 1.393 . S
C1229 C1230 1.387 1_655 S
C1229 C1250 1.517 1_655 S
C1230 C1229 1.387 1_455 S
C1230 C1231 1.395 1_455 S
C1230 C1256 1.488 . S
C1231 C1226 1.397 . S
C1231 C1230 1.395 1_655 S
C1231 C1262 1.521 1_655 S
C1232 C1226 1.492 . S
C1232 C1233 1.363 . S
C1232 C1237 1.390 1_655 S
C1233 H1198 0.930 . S
C1233 C1232 1.363 . S
C1233 C1234 1.372 . S
C1234 H1199 0.930 . S
C1234 C1233 1.372 . S
C1234 C1235 1.383 . S
C1235 C1234 1.383 . S
C1235 C1236 1.395 1_655 S
C1236 H1200 0.930 . S
C1236 C1235 1.395 1_455 S
C1236 C1237 1.362 . S
C1237 H1201 0.930 . S
C1237 C1232 1.390 1_455 S
C1237 C1236 1.362 . S
C1238 C1227 1.492 . S
C1238 C1239 1.377 . S
C1238 C1243 1.397 1_655 S
C1239 H1202 0.931 . S
C1239 C1238 1.377 . S
C1239 C1240 1.376 . S
C1240 H1203 0.930 . S
C1240 C1239 1.376 . S
C1240 C1241 1.376 . S
C1241 C1240 1.376 . S
C1241 C1242 1.378 1_655 S
C1241 C1268 1.486 . S
C1242 H1204 0.930 . S
C1242 C1241 1.378 1_455 S
C1242 C1243 1.376 . S
C1243 H1205 0.929 . S
C1243 C1238 1.397 1_455 S
C1243 C1242 1.376 . S
C1244 C1228 1.509 . S
C1244 C1245 1.391 . S
C1244 C1249 1.386 1_655 S
C1245 H1206 0.930 . S
C1245 C1244 1.391 . S
C1245 C1246 1.375 . S
C1246 H1207 0.931 . S
C1246 C1245 1.375 . S
C1246 C1247 1.375 . S
C1247 C1246 1.375 . S
C1247 C1248 1.361 1_655 S
C1248 H1208 0.930 . S
C1248 C1247 1.361 1_455 S
C1248 C1249 1.399 . S
C1249 H1209 0.929 . S
C1249 C1244 1.386 1_455 S
C1249 C1248 1.399 . S
C1250 C1229 1.517 1_455 S
C1250 C1251 1.384 1_455 S
C1250 C1255 1.364 . S
C1251 H1210 0.931 . S
C1251 C1250 1.384 1_655 S
C1251 C1252 1.372 . S
C1252 H1211 0.930 . S
C1252 C1251 1.372 . S
C1252 C1253 1.397 1_655 S
C1253 C1252 1.397 1_455 S
C1253 C1254 1.390 . S
C1253 C1269 1.476 . S
C1254 H1212 0.930 . S
C1254 C1253 1.390 . S
C1254 C1255 1.366 . S
C1255 H1213 0.932 . S
C1255 C1250 1.364 . S
C1255 C1254 1.366 . S
C1256 C1230 1.488 . S
C1256 C1257 1.380 1_455 S
C1256 C1261 1.386 . S
C1257 H1214 0.930 . S
C1257 C1256 1.380 1_655 S
C1257 C1258 1.381 . S
C1258 H1215 0.929 . S
C1258 C1257 1.381 . S
C1258 C1259 1.371 1_655 S
C1259 C1258 1.371 1_455 S
C1259 C1260 1.380 . S
C1260 H1216 0.931 . S
C1260 C1259 1.380 . S
C1260 C1261 1.387 . S
C1261 H1217 0.930 . S
C1261 C1256 1.386 . S
C1261 C1260 1.387 . S
C1262 C1231 1.521 1_455 S
C1262 C1263 1.377 1_455 S
C1262 C1267 1.361 . S
C1263 H1218 0.929 . S
C1263 C1262 1.377 1_655 S
C1263 C1264 1.386 . S
C1264 H1219 0.931 . S
C1264 C1263 1.386 . S
C1264 C1265 1.363 1_655 S
C1265 C1264 1.363 1_455 S
C1265 C1266 1.385 . S
C1266 H1220 0.930 . S
C1266 C1265 1.385 . S
C1266 C1267 1.396 . S
C1267 H1221 0.929 . S
C1267 C1262 1.361 . S
C1267 C1266 1.396 . S
C1268 O1222 1.300 . S
C1268 O1223 1.209 1_655 S
C1268 C1241 1.486 . S
C1269 O1224 1.199 1_455 S
C1269 O1225 1.297 . S
C1269 C1253 1.476 . S
H1270 O1296 0.856 . S
H1271 O1299 0.854 . S
H1272 C1307 0.930 . S
H1273 C1308 0.930 . S
H1274 C1310 0.930 . S
H1275 C1311 0.930 . S
H1276 C1313 0.931 . S
H1277 C1314 0.930 . S
H1278 C1316 0.930 . S
H1279 C1317 0.929 . S
H1280 C1319 0.930 . S
H1281 C1320 0.931 . S
H1282 C1322 0.930 . S
H1283 C1323 0.929 . S
H1284 C1325 0.931 . S
H1285 C1326 0.930 . S
H1286 C1328 0.930 . S
H1287 C1329 0.932 . S
H1288 C1331 0.930 . S
H1289 C1332 0.929 . S
H1290 C1334 0.931 . S
H1291 C1335 0.930 . S
H1292 C1337 0.929 . S
H1293 C1338 0.931 . S
H1294 C1340 0.930 . S
H1295 C1341 0.929 . S
O1296 H1270 0.856 . S
O1296 C1342 1.300 . S
O1297 C1342 1.209 . S
O1298 C1343 1.199 . S
O1299 H1271 0.854 . S
O1299 C1343 1.297 . S
C1300 C1301 1.404 . S
C1300 C1305 1.397 . S
C1300 C1306 1.492 . S
C1301 C1300 1.404 . S
C1301 C1302 1.396 . S
C1301 C1312 1.492 . S
C1302 C1301 1.396 . S
C1302 C1303 1.397 . S
C1302 C1318 1.509 . S
C1303 C1302 1.397 . S
C1303 C1304 1.412 . S
C1303 C1324 1.485 . S
C1304 C1303 1.412 . S
C1304 C1305 1.388 . S
C1304 C1330 1.490 . S
C1305 C1300 1.397 . S
C1305 C1304 1.388 . S
C1305 C1336 1.519 . S
C1306 C1300 1.492 . S
C1306 C1307 1.363 . S
C1306 C1311 1.390 . S
C1307 H1272 0.930 . S
C1307 C1306 1.363 . S
C1307 C1308 1.372 . S
C1308 H1273 0.930 . S
C1308 C1307 1.372 . S
C1308 C1309 1.383 . S
C1309 C1308 1.383 . S
C1309 C1310 1.395 . S
C1310 H1274 0.930 . S
C1310 C1309 1.395 . S
C1310 C1311 1.362 . S
C1311 H1275 0.930 . S
C1311 C1306 1.390 . S
C1311 C1310 1.362 . S
C1312 C1301 1.492 . S
C1312 C1313 1.377 . S
C1312 C1317 1.397 . S
C1313 H1276 0.931 . S
C1313 C1312 1.377 . S
C1313 C1314 1.376 . S
C1314 H1277 0.930 . S
C1314 C1313 1.376 . S
C1314 C1315 1.376 . S
C1315 C1314 1.376 . S
C1315 C1316 1.378 . S
C1315 C1342 1.486 . S
C1316 H1278 0.930 . S
C1316 C1315 1.378 . S
C1316 C1317 1.376 . S
C1317 H1279 0.929 . S
C1317 C1312 1.397 . S
C1317 C1316 1.376 . S
C1318 C1302 1.509 . S
C1318 C1319 1.391 . S
C1318 C1323 1.386 . S
C1319 H1280 0.930 . S
C1319 C1318 1.391 . S
C1319 C1320 1.375 . S
C1320 H1281 0.931 . S
C1320 C1319 1.375 . S
C1320 C1321 1.375 . S
C1321 C1320 1.375 . S
C1321 C1322 1.361 . S
C1322 H1282 0.930 . S
C1322 C1321 1.361 . S
C1322 C1323 1.399 . S
C1323 H1283 0.929 . S
C1323 C1318 1.386 . S
C1323 C1322 1.399 . S
C1324 C1303 1.485 . S
C1324 C1325 1.394 . S
C1324 C1329 1.360 . S
C1325 H1284 0.931 . S
C1325 C1324 1.394 . S
C1325 C1326 1.372 . S
C1326 H1285 0.930 . S
C1326 C1325 1.372 . S
C1326 C1327 1.397 . S
C1327 C1326 1.397 . S
C1327 C1328 1.390 . S
C1327 C1343 1.476 . S
C1328 H1286 0.930 . S
C1328 C1327 1.390 . S
C1328 C1329 1.366 . S
C1329 H1287 0.932 . S
C1329 C1324 1.360 . S
C1329 C1328 1.366 . S
C1330 C1304 1.490 . S
C1330 C1331 1.380 . S
C1330 C1335 1.386 . S
C1331 H1288 0.930 . S
C1331 C1330 1.380 . S
C1331 C1332 1.381 . S
C1332 H1289 0.929 . S
C1332 C1331 1.381 . S
C1332 C1333 1.371 . S
C1333 C1332 1.371 . S
C1333 C1334 1.380 . S
C1334 H1290 0.931 . S
C1334 C1333 1.380 . S
C1334 C1335 1.387 . S
C1335 H1291 0.930 . S
C1335 C1330 1.386 . S
C1335 C1334 1.387 . S
C1336 C1305 1.519 . S
C1336 C1337 1.377 . S
C1336 C1341 1.361 . S
C1337 H1292 0.929 . S
C1337 C1336 1.377 . S
C1337 C1338 1.386 . S
C1338 H1293 0.931 . S
C1338 C1337 1.386 . S
C1338 C1339 1.363 . S
C1339 C1338 1.363 . S
C1339 C1340 1.385 . S
C1340 H1294 0.930 . S
C1340 C1339 1.385 . S
C1340 C1341 1.396 . S
C1341 H1295 0.929 . S
C1341 C1336 1.361 . S
C1341 C1340 1.396 . S
C1342 O1296 1.300 . S
C1342 O1297 1.209 . S
C1342 C1315 1.486 . S
C1343 O1298 1.199 . S
C1343 O1299 1.297 . S
C1343 C1327 1.476 . S
H1344 O1370 0.856 . S
H1345 O1373 0.854 . S
H1346 C1381 0.930 . S
H1347 C1382 0.930 . S
H1348 C1384 0.930 . S
H1349 C1385 0.930 . S
H1350 C1387 0.931 . S
H1351 C1388 0.930 . S
H1352 C1390 0.930 . S
H1353 C1391 0.929 . S
H1354 C1393 0.930 . S
H1355 C1394 0.931 . S
H1356 C1396 0.930 . S
H1357 C1397 0.929 . S
H1358 C1399 0.931 . S
H1359 C1400 0.930 . S
H1360 C1402 0.930 . S
H1361 C1403 0.932 . S
H1362 C1405 0.930 . S
H1363 C1406 0.929 . S
H1364 C1408 0.931 . S
H1365 C1409 0.930 . S
H1366 C1411 0.929 . S
H1367 C1412 0.931 . S
H1368 C1414 0.930 . S
H1369 C1415 0.929 . S
O1370 H1344 0.856 . S
O1370 C1416 1.300 . S
O1371 C1416 1.209 . S
O1372 C1417 1.199 . S
O1373 H1345 0.854 . S
O1373 C1417 1.297 . S
C1374 C1375 1.404 . S
C1374 C1379 1.397 . S
C1374 C1380 1.492 . S
C1375 C1374 1.404 . S
C1375 C1376 1.396 . S
C1375 C1386 1.492 . S
C1376 C1375 1.396 . S
C1376 C1377 1.397 . S
C1376 C1392 1.509 . S
C1377 C1376 1.397 . S
C1377 C1378 1.412 . S
C1377 C1398 1.485 . S
C1378 C1377 1.412 . S
C1378 C1379 1.388 . S
C1378 C1404 1.490 . S
C1379 C1374 1.397 . S
C1379 C1378 1.388 . S
C1379 C1410 1.519 . S
C1380 C1374 1.492 . S
C1380 C1381 1.363 . S
C1380 C1385 1.390 . S
C1381 H1346 0.930 . S
C1381 C1380 1.363 . S
C1381 C1382 1.372 . S
C1382 H1347 0.930 . S
C1382 C1381 1.372 . S
C1382 C1383 1.383 . S
C1383 C1382 1.383 . S
C1383 C1384 1.395 . S
C1384 H1348 0.930 . S
C1384 C1383 1.395 . S
C1384 C1385 1.362 . S
C1385 H1349 0.930 . S
C1385 C1380 1.390 . S
C1385 C1384 1.362 . S
C1386 C1375 1.492 . S
C1386 C1387 1.377 . S
C1386 C1391 1.397 . S
C1387 H1350 0.931 . S
C1387 C1386 1.377 . S
C1387 C1388 1.376 . S
C1388 H1351 0.930 . S
C1388 C1387 1.376 . S
C1388 C1389 1.376 . S
C1389 C1388 1.376 . S
C1389 C1390 1.378 . S
C1389 C1416 1.486 . S
C1390 H1352 0.930 . S
C1390 C1389 1.378 . S
C1390 C1391 1.376 . S
C1391 H1353 0.929 . S
C1391 C1386 1.397 . S
C1391 C1390 1.376 . S
C1392 C1376 1.509 . S
C1392 C1393 1.391 . S
C1392 C1397 1.386 . S
C1393 H1354 0.930 . S
C1393 C1392 1.391 . S
C1393 C1394 1.375 . S
C1394 H1355 0.931 . S
C1394 C1393 1.375 . S
C1394 C1395 1.375 . S
C1395 C1394 1.375 . S
C1395 C1396 1.361 . S
C1396 H1356 0.930 . S
C1396 C1395 1.361 . S
C1396 C1397 1.399 . S
C1397 H1357 0.929 . S
C1397 C1392 1.386 . S
C1397 C1396 1.399 . S
C1398 C1377 1.485 . S
C1398 C1399 1.394 . S
C1398 C1403 1.360 . S
C1399 H1358 0.931 . S
C1399 C1398 1.394 . S
C1399 C1400 1.372 . S
C1400 H1359 0.930 . S
C1400 C1399 1.372 . S
C1400 C1401 1.397 . S
C1401 C1400 1.397 . S
C1401 C1402 1.390 . S
C1401 C1417 1.476 . S
C1402 H1360 0.930 . S
C1402 C1401 1.390 . S
C1402 C1403 1.366 . S
C1403 H1361 0.932 . S
C1403 C1398 1.360 . S
C1403 C1402 1.366 . S
C1404 C1378 1.490 . S
C1404 C1405 1.380 . S
C1404 C1409 1.386 . S
C1405 H1362 0.930 . S
C1405 C1404 1.380 . S
C1405 C1406 1.381 . S
C1406 H1363 0.929 . S
C1406 C1405 1.381 . S
C1406 C1407 1.371 . S
C1407 C1406 1.371 . S
C1407 C1408 1.380 . S
C1408 H1364 0.931 . S
C1408 C1407 1.380 . S
C1408 C1409 1.387 . S
C1409 H1365 0.930 . S
C1409 C1404 1.386 . S
C1409 C1408 1.387 . S
C1410 C1379 1.519 . S
C1410 C1411 1.377 . S
C1410 C1415 1.361 . S
C1411 H1366 0.929 . S
C1411 C1410 1.377 . S
C1411 C1412 1.386 . S
C1412 H1367 0.931 . S
C1412 C1411 1.386 . S
C1412 C1413 1.363 . S
C1413 C1412 1.363 . S
C1413 C1414 1.385 . S
C1414 H1368 0.930 . S
C1414 C1413 1.385 . S
C1414 C1415 1.396 . S
C1415 H1369 0.929 . S
C1415 C1410 1.361 . S
C1415 C1414 1.396 . S
C1416 O1370 1.300 . S
C1416 O1371 1.209 . S
C1416 C1389 1.486 . S
C1417 O1372 1.199 . S
C1417 O1373 1.297 . S
C1417 C1401 1.476 . S
H1418 O1444 0.856 . S
H1419 O1447 0.854 . S
H1420 C1455 0.930 . S
H1421 C1456 0.930 . S
H1422 C1458 0.930 . S
H1423 C1459 0.930 . S
H1424 C1461 0.931 . S
H1425 C1462 0.930 . S
H1426 C1464 0.930 . S
H1427 C1465 0.929 . S
H1428 C1467 0.930 . S
H1429 C1468 0.931 . S
H1430 C1470 0.930 . S
H1431 C1471 0.929 . S
H1432 C1473 0.931 . S
H1433 C1474 0.930 . S
H1434 C1476 0.930 . S
H1435 C1477 0.932 . S
H1436 C1479 0.930 . S
H1437 C1480 0.929 . S
H1438 C1482 0.931 . S
H1439 C1483 0.930 . S
H1440 C1485 0.929 . S
H1441 C1486 0.931 . S
H1442 C1488 0.930 . S
H1443 C1489 0.929 . S
O1444 H1418 0.856 . S
O1444 C1490 1.300 . S
O1445 C1490 1.209 . S
O1446 C1491 1.199 . S
O1447 H1419 0.854 . S
O1447 C1491 1.297 . S
C1448 C1449 1.404 . S
C1448 C1453 1.397 . S
C1448 C1454 1.492 . S
C1449 C1448 1.404 . S
C1449 C1450 1.396 . S
C1449 C1460 1.492 . S
C1450 C1449 1.396 . S
C1450 C1451 1.397 . S
C1450 C1466 1.509 . S
C1451 C1450 1.397 . S
C1451 C1452 1.412 . S
C1451 C1472 1.485 . S
C1452 C1451 1.412 . S
C1452 C1453 1.388 . S
C1452 C1478 1.490 . S
C1453 C1448 1.397 . S
C1453 C1452 1.388 . S
C1453 C1484 1.519 . S
C1454 C1448 1.492 . S
C1454 C1455 1.363 . S
C1454 C1459 1.390 . S
C1455 H1420 0.930 . S
C1455 C1454 1.363 . S
C1455 C1456 1.372 . S
C1456 H1421 0.930 . S
C1456 C1455 1.372 . S
C1456 C1457 1.383 . S
C1457 C1456 1.383 . S
C1457 C1458 1.395 . S
C1458 H1422 0.930 . S
C1458 C1457 1.395 . S
C1458 C1459 1.362 . S
C1459 H1423 0.930 . S
C1459 C1454 1.390 . S
C1459 C1458 1.362 . S
C1460 C1449 1.492 . S
C1460 C1461 1.377 . S
C1460 C1465 1.397 . S
C1461 H1424 0.931 . S
C1461 C1460 1.377 . S
C1461 C1462 1.376 . S
C1462 H1425 0.930 . S
C1462 C1461 1.376 . S
C1462 C1463 1.376 . S
C1463 C1462 1.376 . S
C1463 C1464 1.378 . S
C1463 C1490 1.486 . S
C1464 H1426 0.930 . S
C1464 C1463 1.378 . S
C1464 C1465 1.376 . S
C1465 H1427 0.929 . S
C1465 C1460 1.397 . S
C1465 C1464 1.376 . S
C1466 C1450 1.509 . S
C1466 C1467 1.391 . S
C1466 C1471 1.386 . S
C1467 H1428 0.930 . S
C1467 C1466 1.391 . S
C1467 C1468 1.375 . S
C1468 H1429 0.931 . S
C1468 C1467 1.375 . S
C1468 C1469 1.375 . S
C1469 C1468 1.375 . S
C1469 C1470 1.361 . S
C1470 H1430 0.930 . S
C1470 C1469 1.361 . S
C1470 C1471 1.399 . S
C1471 H1431 0.929 . S
C1471 C1466 1.386 . S
C1471 C1470 1.399 . S
C1472 C1451 1.485 . S
C1472 C1473 1.394 . S
C1472 C1477 1.360 . S
C1473 H1432 0.931 . S
C1473 C1472 1.394 . S
C1473 C1474 1.372 . S
C1474 H1433 0.930 . S
C1474 C1473 1.372 . S
C1474 C1475 1.397 . S
C1475 C1474 1.397 . S
C1475 C1476 1.390 . S
C1475 C1491 1.476 . S
C1476 H1434 0.930 . S
C1476 C1475 1.390 . S
C1476 C1477 1.366 . S
C1477 H1435 0.932 . S
C1477 C1472 1.360 . S
C1477 C1476 1.366 . S
C1478 C1452 1.490 . S
C1478 C1479 1.380 . S
C1478 C1483 1.386 . S
C1479 H1436 0.930 . S
C1479 C1478 1.380 . S
C1479 C1480 1.381 . S
C1480 H1437 0.929 . S
C1480 C1479 1.381 . S
C1480 C1481 1.371 . S
C1481 C1480 1.371 . S
C1481 C1482 1.380 . S
C1482 H1438 0.931 . S
C1482 C1481 1.380 . S
C1482 C1483 1.387 . S
C1483 H1439 0.930 . S
C1483 C1478 1.386 . S
C1483 C1482 1.387 . S
C1484 C1453 1.519 . S
C1484 C1485 1.377 . S
C1484 C1489 1.361 . S
C1485 H1440 0.929 . S
C1485 C1484 1.377 . S
C1485 C1486 1.386 . S
C1486 H1441 0.931 . S
C1486 C1485 1.386 . S
C1486 C1487 1.363 . S
C1487 C1486 1.363 . S
C1487 C1488 1.385 . S
C1488 H1442 0.930 . S
C1488 C1487 1.385 . S
C1488 C1489 1.396 . S
C1489 H1443 0.929 . S
C1489 C1484 1.361 . S
C1489 C1488 1.396 . S
C1490 O1444 1.300 . S
C1490 O1445 1.209 . S
C1490 C1463 1.486 . S
C1491 O1446 1.199 . S
C1491 O1447 1.297 . S
C1491 C1475 1.476 . S
H1492 O1518 0.856 . S
H1493 O1521 0.854 . S
H1494 C1529 0.930 . S
H1495 C1530 0.930 . S
H1496 C1532 0.930 . S
H1497 C1533 0.930 . S
H1498 C1535 0.931 . S
H1499 C1536 0.930 . S
H1500 C1538 0.930 . S
H1501 C1539 0.929 . S
H1502 C1541 0.930 . S
H1503 C1542 0.931 . S
H1504 C1544 0.930 . S
H1505 C1545 0.929 . S
H1506 C1547 0.931 . S
H1507 C1548 0.930 . S
H1508 C1550 0.930 . S
H1509 C1551 0.932 . S
H1510 C1553 0.930 . S
H1511 C1554 0.929 . S
H1512 C1556 0.931 . S
H1513 C1557 0.930 . S
H1514 C1559 0.929 . S
H1515 C1560 0.931 . S
H1516 C1562 0.930 . S
H1517 C1563 0.929 . S
O1518 H1492 0.856 . S
O1518 C1564 1.300 . S
O1519 C1564 1.209 . S
O1520 C1565 1.199 . S
O1521 H1493 0.854 . S
O1521 C1565 1.297 . S
C1522 C1523 1.404 . S
C1522 C1527 1.397 . S
C1522 C1528 1.492 . S
C1523 C1522 1.404 . S
C1523 C1524 1.396 . S
C1523 C1534 1.492 . S
C1524 C1523 1.396 . S
C1524 C1525 1.397 . S
C1524 C1540 1.509 . S
C1525 C1524 1.397 . S
C1525 C1526 1.412 . S
C1525 C1546 1.485 . S
C1526 C1525 1.412 . S
C1526 C1527 1.388 . S
C1526 C1552 1.490 . S
C1527 C1522 1.397 . S
C1527 C1526 1.388 . S
C1527 C1558 1.519 . S
C1528 C1522 1.492 . S
C1528 C1529 1.363 . S
C1528 C1533 1.390 . S
C1529 H1494 0.930 . S
C1529 C1528 1.363 . S
C1529 C1530 1.372 . S
C1530 H1495 0.930 . S
C1530 C1529 1.372 . S
C1530 C1531 1.383 . S
C1531 C1530 1.383 . S
C1531 C1532 1.395 . S
C1532 H1496 0.930 . S
C1532 C1531 1.395 . S
C1532 C1533 1.362 . S
C1533 H1497 0.930 . S
C1533 C1528 1.390 . S
C1533 C1532 1.362 . S
C1534 C1523 1.492 . S
C1534 C1535 1.377 . S
C1534 C1539 1.397 . S
C1535 H1498 0.931 . S
C1535 C1534 1.377 . S
C1535 C1536 1.376 . S
C1536 H1499 0.930 . S
C1536 C1535 1.376 . S
C1536 C1537 1.376 . S
C1537 C1536 1.376 . S
C1537 C1538 1.378 . S
C1537 C1564 1.486 . S
C1538 H1500 0.930 . S
C1538 C1537 1.378 . S
C1538 C1539 1.376 . S
C1539 H1501 0.929 . S
C1539 C1534 1.397 . S
C1539 C1538 1.376 . S
C1540 C1524 1.509 . S
C1540 C1541 1.391 . S
C1540 C1545 1.386 . S
C1541 H1502 0.930 . S
C1541 C1540 1.391 . S
C1541 C1542 1.375 . S
C1542 H1503 0.931 . S
C1542 C1541 1.375 . S
C1542 C1543 1.375 . S
C1543 C1542 1.375 . S
C1543 C1544 1.361 . S
C1544 H1504 0.930 . S
C1544 C1543 1.361 . S
C1544 C1545 1.399 . S
C1545 H1505 0.929 . S
C1545 C1540 1.386 . S
C1545 C1544 1.399 . S
C1546 C1525 1.485 . S
C1546 C1547 1.394 . S
C1546 C1551 1.360 . S
C1547 H1506 0.931 . S
C1547 C1546 1.394 . S
C1547 C1548 1.372 . S
C1548 H1507 0.930 . S
C1548 C1547 1.372 . S
C1548 C1549 1.397 . S
C1549 C1548 1.397 . S
C1549 C1550 1.390 . S
C1549 C1565 1.476 . S
C1550 H1508 0.930 . S
C1550 C1549 1.390 . S
C1550 C1551 1.366 . S
C1551 H1509 0.932 . S
C1551 C1546 1.360 . S
C1551 C1550 1.366 . S
C1552 C1526 1.490 . S
C1552 C1553 1.380 . S
C1552 C1557 1.386 . S
C1553 H1510 0.930 . S
C1553 C1552 1.380 . S
C1553 C1554 1.381 . S
C1554 H1511 0.929 . S
C1554 C1553 1.381 . S
C1554 C1555 1.371 . S
C1555 C1554 1.371 . S
C1555 C1556 1.380 . S
C1556 H1512 0.931 . S
C1556 C1555 1.380 . S
C1556 C1557 1.387 . S
C1557 H1513 0.930 . S
C1557 C1552 1.386 . S
C1557 C1556 1.387 . S
C1558 C1527 1.519 . S
C1558 C1559 1.377 . S
C1558 C1563 1.361 . S
C1559 H1514 0.929 . S
C1559 C1558 1.377 . S
C1559 C1560 1.386 . S
C1560 H1515 0.931 . S
C1560 C1559 1.386 . S
C1560 C1561 1.363 . S
C1561 C1560 1.363 . S
C1561 C1562 1.385 . S
C1562 H1516 0.930 . S
C1562 C1561 1.385 . S
C1562 C1563 1.396 . S
C1563 H1517 0.929 . S
C1563 C1558 1.361 . S
C1563 C1562 1.396 . S
C1564 O1518 1.300 . S
C1564 O1519 1.209 . S
C1564 C1537 1.486 . S
C1565 O1520 1.199 . S
C1565 O1521 1.297 . S
C1565 C1549 1.476 . S
H1566 C1578 0.930 . S
H1567 C1580 0.930 . S
H1568 C1581 0.930 . S
H1569 C1585 0.959 1_655 S
H1570 C1585 0.959 . S
H1571 C1585 0.961 . S
H1572 C1586 0.960 . S
H1573 C1586 0.961 . S
H1574 C1586 0.959 . S
H1575 C1589 0.929 . S
H1576 C1590 0.931 . S
H1577 C1592 0.930 1_455 S
C1578 H1566 0.930 . S
C1578 C1579 1.399 1_455 S
C1578 C1583 1.399 1_455 S
C1579 C1578 1.399 1_655 S
C1579 C1580 1.376 . S
C1580 H1567 0.930 . S
C1580 C1579 1.376 . S
C1580 C1581 1.388 . S
C1581 H1568 0.930 . S
C1581 C1580 1.388 . S
C1581 C1582 1.390 . S
C1582 C1581 1.390 . S
C1582 C1583 1.394 . S
C1582 C1588 1.465 . S
C1583 C1578 1.399 1_655 S
C1583 C1582 1.394 . S
C1583 C1584 1.516 1_655 S
C1584 C1583 1.516 1_455 S
C1584 C1585 1.502 . S
C1584 C1586 1.561 . S
C1584 C1587 1.526 1_455 S
C1585 H1569 0.959 1_455 S
C1585 H1570 0.959 . S
C1585 H1571 0.961 . S
C1585 C1584 1.502 . S
C1586 H1572 0.960 . S
C1586 H1573 0.961 . S
C1586 H1574 0.959 . S
C1586 C1584 1.561 . S
C1587 C1584 1.526 1_655 S
C1587 C1588 1.396 . S
C1587 C1592 1.390 . S
C1588 C1582 1.465 . S
C1588 C1587 1.396 . S
C1588 C1589 1.399 . S
C1589 H1575 0.929 . S
C1589 C1588 1.399 . S
C1589 C1590 1.385 . S
C1590 H1576 0.931 . S
C1590 C1589 1.385 . S
C1590 C1591 1.389 . S
C1591 C1590 1.389 . S
C1591 C1592 1.387 . S
C1592 H1577 0.930 1_655 S
C1592 C1587 1.390 . S
C1592 C1591 1.387 . S
H1593 C1605 0.930 . S
H1594 C1607 0.930 . S
H1595 C1608 0.930 . S
H1596 C1612 0.959 . S
H1597 C1612 0.959 . S
H1598 C1612 0.961 . S
H1599 C1613 0.960 . S
H1600 C1613 0.961 . S
H1601 C1613 0.959 . S
H1602 C1616 0.929 . S
H1603 C1617 0.931 . S
H1604 C1619 0.930 . S
C1605 H1593 0.930 . S
C1605 C1606 1.399 . S
C1605 C1610 1.399 . S
C1606 C1605 1.399 . S
C1606 C1607 1.376 . S
C1607 H1594 0.930 . S
C1607 C1606 1.376 . S
C1607 C1608 1.388 . S
C1608 H1595 0.930 . S
C1608 C1607 1.388 . S
C1608 C1609 1.390 . S
C1609 C1608 1.390 . S
C1609 C1610 1.394 . S
C1609 C1615 1.465 . S
C1610 C1605 1.399 . S
C1610 C1609 1.394 . S
C1610 C1611 1.516 . S
C1611 C1610 1.516 . S
C1611 C1612 1.502 . S
C1611 C1613 1.561 . S
C1611 C1614 1.526 . S
C1612 H1596 0.959 . S
C1612 H1597 0.959 . S
C1612 H1598 0.961 . S
C1612 C1611 1.502 . S
C1613 H1599 0.960 . S
C1613 H1600 0.961 . S
C1613 H1601 0.959 . S
C1613 C1611 1.561 . S
C1614 C1611 1.526 . S
C1614 C1615 1.396 . S
C1614 C1619 1.390 . S
C1615 C1609 1.465 . S
C1615 C1614 1.396 . S
C1615 C1616 1.399 . S
C1616 H1602 0.929 . S
C1616 C1615 1.399 . S
C1616 C1617 1.385 . S
C1617 H1603 0.931 . S
C1617 C1616 1.385 . S
C1617 C1618 1.389 . S
C1618 C1617 1.389 . S
C1618 C1619 1.387 . S
C1619 H1604 0.930 . S
C1619 C1614 1.390 . S
C1619 C1618 1.387 . S
H1620 C1632 0.930 . S
H1621 C1634 0.930 . S
H1622 C1635 0.930 . S
H1623 C1639 0.959 . S
H1624 C1639 0.959 . S
H1625 C1639 0.961 . S
H1626 C1640 0.960 . S
H1627 C1640 0.961 . S
H1628 C1640 0.959 . S
H1629 C1643 0.929 . S
H1630 C1644 0.931 . S
H1631 C1646 0.930 . S
C1632 H1620 0.930 . S
C1632 C1633 1.399 . S
C1632 C1637 1.399 . S
C1633 C1632 1.399 . S
C1633 C1634 1.376 . S
C1634 H1621 0.930 . S
C1634 C1633 1.376 . S
C1634 C1635 1.388 . S
C1635 H1622 0.930 . S
C1635 C1634 1.388 . S
C1635 C1636 1.390 . S
C1636 C1635 1.390 . S
C1636 C1637 1.394 . S
C1636 C1642 1.465 . S
C1637 C1632 1.399 . S
C1637 C1636 1.394 . S
C1637 C1638 1.516 . S
C1638 C1637 1.516 . S
C1638 C1639 1.502 1_545 S
C1638 C1640 1.561 . S
C1638 C1641 1.526 . S
C1639 H1623 0.959 . S
C1639 H1624 0.959 . S
C1639 H1625 0.961 . S
C1639 C1638 1.502 1_565 S
C1640 H1626 0.960 . S
C1640 H1627 0.961 . S
C1640 H1628 0.959 . S
C1640 C1638 1.561 . S
C1641 C1638 1.526 . S
C1641 C1642 1.396 . S
C1641 C1646 1.390 . S
C1642 C1636 1.465 . S
C1642 C1641 1.396 . S
C1642 C1643 1.399 . S
C1643 H1629 0.929 . S
C1643 C1642 1.399 . S
C1643 C1644 1.385 . S
C1644 H1630 0.931 . S
C1644 C1643 1.385 . S
C1644 C1645 1.389 . S
C1645 C1644 1.389 . S
C1645 C1646 1.387 . S
C1646 H1631 0.930 . S
C1646 C1641 1.390 . S
C1646 C1645 1.387 . S
H1647 C1659 0.930 . S
H1648 C1661 0.930 . S
H1649 C1662 0.930 . S
H1650 C1666 0.959 . S
H1651 C1666 0.959 . S
H1652 C1666 0.961 . S
H1653 C1667 0.960 . S
H1654 C1667 0.961 . S
H1655 C1667 0.959 . S
H1656 C1670 0.929 . S
H1657 C1671 0.931 . S
H1658 C1673 0.930 . S
C1659 H1647 0.930 . S
C1659 C1660 1.399 . S
C1659 C1664 1.399 . S
C1660 C1659 1.399 . S
C1660 C1661 1.376 1_565 S
C1661 H1648 0.930 . S
C1661 C1660 1.376 1_545 S
C1661 C1662 1.388 . S
C1662 H1649 0.930 . S
C1662 C1661 1.388 . S
C1662 C1663 1.390 1_545 S
C1663 C1662 1.390 1_565 S
C1663 C1664 1.394 . S
C1663 C1669 1.465 . S
C1664 C1659 1.399 . S
C1664 C1663 1.394 . S
C1664 C1665 1.516 . S
C1665 C1664 1.516 . S
C1665 C1666 1.502 . S
C1665 C1667 1.561 . S
C1665 C1668 1.526 . S
C1666 H1650 0.959 . S
C1666 H1651 0.959 . S
C1666 H1652 0.961 . S
C1666 C1665 1.502 . S
C1667 H1653 0.960 . S
C1667 H1654 0.961 . S
C1667 H1655 0.959 . S
C1667 C1665 1.561 . S
C1668 C1665 1.526 . S
C1668 C1669 1.396 . S
C1668 C1673 1.390 . S
C1669 C1663 1.465 . S
C1669 C1668 1.396 . S
C1669 C1670 1.399 1_565 S
C1670 H1656 0.929 . S
C1670 C1669 1.399 1_545 S
C1670 C1671 1.385 . S
C1671 H1657 0.931 . S
C1671 C1670 1.385 . S
C1671 C1672 1.389 1_545 S
C1672 C1671 1.389 1_565 S
C1672 C1673 1.387 . S
C1673 H1658 0.930 . S
C1673 C1668 1.390 . S
C1673 C1672 1.387 . S
H1674 C1686 0.930 1_655 S
H1675 C1688 0.930 . S
H1676 C1689 0.930 . S
H1677 C1693 0.959 . S
H1678 C1693 0.959 . S
H1679 C1693 0.961 . S
H1680 C1694 0.953 1_655 S
H1681 C1694 0.922 1_655 S
H1682 C1694 0.991 . S
H1683 C1697 0.929 . S
H1684 C1698 0.931 . S
H1685 C1700 0.930 1_655 S
C1686 H1674 0.930 1_455 S
C1686 C1687 1.399 . S
C1686 C1691 1.399 . S
C1687 C1686 1.399 . S
C1687 C1688 1.376 . S
C1688 H1675 0.930 . S
C1688 C1687 1.376 . S
C1688 C1689 1.388 . S
C1689 H1676 0.930 . S
C1689 C1688 1.388 . S
C1689 C1690 1.390 . S
C1690 C1689 1.390 . S
C1690 C1691 1.394 . S
C1690 C1696 1.465 . S
C1691 C1686 1.399 . S
C1691 C1690 1.394 . S
C1691 C1692 1.516 1_455 S
C1692 C1691 1.516 1_655 S
C1692 C1693 1.502 . S
C1692 C1694 1.577 1_655 S
C1692 C1695 1.526 1_655 S
C1693 H1677 0.959 . S
C1693 H1678 0.959 . S
C1693 H1679 0.961 . S
C1693 C1692 1.502 . S
C1694 H1680 0.953 1_455 S
C1694 H1681 0.922 1_455 S
C1694 H1682 0.991 . S
C1694 C1692 1.577 1_455 S
C1695 C1692 1.526 1_455 S
C1695 C1696 1.396 . S
C1695 C1700 1.390 . S
C1696 C1690 1.465 . S
C1696 C1695 1.396 . S
C1696 C1697 1.399 . S
C1697 H1683 0.929 . S
C1697 C1696 1.399 . S
C1697 C1698 1.385 . S
C1698 H1684 0.931 . S
C1698 C1697 1.385 . S
C1698 C1699 1.389 . S
C1699 C1698 1.389 . S
C1699 C1700 1.387 . S
C1700 H1685 0.930 1_455 S
C1700 C1695 1.390 . S
C1700 C1699 1.387 . S
H1701 C1713 0.930 . S
H1702 C1715 0.930 . S
H1703 C1716 0.930 . S
H1704 C1720 0.959 . S
H1705 C1720 0.959 . S
H1706 C1720 0.961 . S
H1707 C1721 0.960 . S
H1708 C1721 0.961 . S
H1709 C1721 0.959 . S
H1710 C1724 0.929 . S
H1711 C1725 0.931 . S
H1712 C1727 0.930 . S
C1713 H1701 0.930 . S
C1713 C1714 1.399 . S
C1713 C1718 1.399 1_554 S
C1714 C1713 1.399 . S
C1714 C1715 1.376 . S
C1715 H1702 0.930 . S
C1715 C1714 1.376 . S
C1715 C1716 1.388 1_554 S
C1716 H1703 0.930 . S
C1716 C1715 1.388 1_556 S
C1716 C1717 1.390 . S
C1717 C1716 1.390 . S
C1717 C1718 1.394 . S
C1717 C1723 1.465 . S
C1718 C1713 1.399 1_556 S
C1718 C1717 1.394 . S
C1718 C1719 1.516 . S
C1719 C1718 1.516 . S
C1719 C1720 1.502 . S
C1719 C1721 1.561 . S
C1719 C1722 1.526 . S
C1720 H1704 0.959 . S
C1720 H1705 0.959 . S
C1720 H1706 0.961 . S
C1720 C1719 1.502 . S
C1721 H1707 0.960 . S
C1721 H1708 0.961 . S
C1721 H1709 0.959 . S
C1721 C1719 1.561 . S
C1722 C1719 1.526 . S
C1722 C1723 1.396 . S
C1722 C1727 1.390 . S
C1723 C1717 1.465 . S
C1723 C1722 1.396 . S
C1723 C1724 1.399 . S
C1724 H1710 0.929 . S
C1724 C1723 1.399 . S
C1724 C1725 1.385 . S
C1725 H1711 0.931 . S
C1725 C1724 1.385 . S
C1725 C1726 1.389 . S
C1726 C1725 1.389 . S
C1726 C1727 1.387 . S
C1727 H1712 0.930 . S
C1727 C1722 1.390 . S
C1727 C1726 1.387 . S
H1728 C1740 0.930 . S
H1729 C1742 0.930 . S
H1730 C1743 0.930 . S
H1731 C1747 0.959 . S
H1732 C1747 0.959 . S
H1733 C1747 0.961 . S
H1734 C1748 0.960 . S
H1735 C1748 0.961 . S
H1736 C1748 0.959 . S
H1737 C1751 0.929 . S
H1738 C1752 0.931 . S
H1739 C1754 0.930 . S
C1740 H1728 0.930 . S
C1740 C1741 1.399 1_556 S
C1740 C1745 1.399 . S
C1741 C1740 1.399 1_554 S
C1741 C1742 1.376 . S
C1742 H1729 0.930 . S
C1742 C1741 1.376 . S
C1742 C1743 1.388 . S
C1743 H1730 0.930 . S
C1743 C1742 1.388 . S
C1743 C1744 1.390 1_554 S
C1744 C1743 1.390 1_556 S
C1744 C1745 1.394 . S
C1744 C1750 1.465 . S
C1745 C1740 1.399 . S
C1745 C1744 1.394 . S
C1745 C1746 1.516 . S
C1746 C1745 1.516 . S
C1746 C1747 1.502 1_455 S
C1746 C1748 1.561 . S
C1746 C1749 1.526 . S
C1747 H1731 0.959 . S
C1747 H1732 0.959 . S
C1747 H1733 0.961 . S
C1747 C1746 1.502 1_655 S
C1748 H1734 0.960 . S
C1748 H1735 0.961 . S
C1748 H1736 0.959 . S
C1748 C1746 1.561 . S
C1749 C1746 1.526 . S
C1749 C1750 1.396 . S
C1749 C1754 1.390 . S
C1750 C1744 1.465 . S
C1750 C1749 1.396 . S
C1750 C1751 1.399 . S
C1751 H1737 0.929 . S
C1751 C1750 1.399 . S
C1751 C1752 1.385 . S
C1752 H1738 0.931 . S
C1752 C1751 1.385 . S
C1752 C1753 1.389 . S
C1753 C1752 1.389 . S
C1753 C1754 1.387 . S
C1754 H1739 0.930 . S
C1754 C1749 1.390 . S
C1754 C1753 1.387 . S
H1755 C1767 0.930 . S
H1756 C1769 0.930 . S
H1757 C1770 0.930 . S
H1758 C1774 0.959 . S
H1759 C1774 0.959 . S
H1760 C1774 0.961 . S
H1761 C1775 0.960 . S
H1762 C1775 0.961 . S
H1763 C1775 0.959 . S
H1764 C1778 0.929 . S
H1765 C1779 0.931 . S
H1766 C1781 0.930 . S
C1767 H1755 0.930 . S
C1767 C1768 1.399 . S
C1767 C1772 1.399 . S
C1768 C1767 1.399 . S
C1768 C1769 1.376 . S
C1769 H1756 0.930 . S
C1769 C1768 1.376 . S
C1769 C1770 1.388 . S
C1770 H1757 0.930 . S
C1770 C1769 1.388 . S
C1770 C1771 1.390 . S
C1771 C1770 1.390 . S
C1771 C1772 1.394 . S
C1771 C1777 1.465 . S
C1772 C1767 1.399 . S
C1772 C1771 1.394 . S
C1772 C1773 1.516 . S
C1773 C1772 1.516 . S
C1773 C1774 1.502 . S
C1773 C1775 1.561 . S
C1773 C1776 1.526 . S
C1774 H1758 0.959 . S
C1774 H1759 0.959 . S
C1774 H1760 0.961 . S
C1774 C1773 1.502 . S
C1775 H1761 0.960 . S
C1775 H1762 0.961 . S
C1775 H1763 0.959 . S
C1775 C1773 1.561 . S
C1776 C1773 1.526 . S
C1776 C1777 1.396 . S
C1776 C1781 1.390 . S
C1777 C1771 1.465 . S
C1777 C1776 1.396 . S
C1777 C1778 1.399 . S
C1778 H1764 0.929 . S
C1778 C1777 1.399 . S
C1778 C1779 1.385 . S
C1779 H1765 0.931 . S
C1779 C1778 1.385 . S
C1779 C1780 1.389 . S
C1780 C1779 1.389 . S
C1780 C1781 1.387 . S
C1781 H1766 0.930 . S
C1781 C1776 1.390 . S
C1781 C1780 1.387 . S
H1782 C1794 0.930 1_554 S
H1783 C1796 0.930 . S
H1784 C1797 0.930 . S
H1785 C1801 0.959 . S
H1786 C1801 0.959 . S
H1787 C1801 0.961 . S
H1788 C1802 0.960 . S
H1789 C1802 0.961 . S
H1790 C1802 0.959 . S
H1791 C1805 0.929 . S
H1792 C1806 0.931 . S
H1793 C1808 0.930 . S
C1794 H1782 0.930 1_556 S
C1794 C1795 1.399 1_545 S
C1794 C1799 1.382 . S
C1795 C1794 1.399 1_565 S
C1795 C1796 1.376 . S
C1796 H1783 0.930 . S
C1796 C1795 1.376 . S
C1796 C1797 1.388 . S
C1797 H1784 0.930 . S
C1797 C1796 1.388 . S
C1797 C1798 1.390 . S
C1798 C1797 1.390 . S
C1798 C1799 1.359 1_565 S
C1798 C1804 1.465 . S
C1799 C1794 1.382 . S
C1799 C1798 1.359 1_545 S
C1799 C1800 1.568 . S
C1800 C1799 1.568 . S
C1800 C1801 1.502 . S
C1800 C1802 1.561 . S
C1800 C1803 1.526 . S
C1801 H1785 0.959 . S
C1801 H1786 0.959 . S
C1801 H1787 0.961 . S
C1801 C1800 1.502 . S
C1802 H1788 0.960 . S
C1802 H1789 0.961 . S
C1802 H1790 0.959 . S
C1802 C1800 1.561 . S
C1803 C1800 1.526 . S
C1803 C1804 1.396 1_545 S
C1803 C1808 1.390 . S
C1804 C1798 1.465 . S
C1804 C1803 1.396 1_565 S
C1804 C1805 1.399 . S
C1805 H1791 0.929 . S
C1805 C1804 1.399 . S
C1805 C1806 1.385 . S
C1806 H1792 0.931 . S
C1806 C1805 1.385 . S
C1806 C1807 1.389 . S
C1807 C1806 1.389 . S
C1807 C1808 1.387 1_565 S
C1808 H1793 0.930 . S
C1808 C1803 1.390 . S
C1808 C1807 1.387 1_545 S
H1809 C1821 0.925 1_565 S
H1810 C1823 0.930 . S
H1811 C1824 0.930 . S
H1812 C1828 0.959 . S
H1813 C1828 0.959 . S
H1814 C1828 0.961 . S
H1815 C1829 0.960 . S
H1816 C1829 0.961 . S
H1817 C1829 0.959 . S
H1818 C1832 0.929 . S
H1819 C1833 0.931 . S
H1820 C1835 0.930 . S
C1821 H1809 0.925 1_545 S
C1821 C1822 1.402 . S
C1821 C1826 1.394 . S
C1822 C1821 1.402 . S
C1822 C1823 1.376 . S
C1823 H1810 0.930 . S
C1823 C1822 1.376 . S
C1823 C1824 1.388 . S
C1824 H1811 0.930 . S
C1824 C1823 1.388 . S
C1824 C1825 1.390 . S
C1825 C1824 1.390 . S
C1825 C1826 1.411 . S
C1825 C1831 1.465 . S
C1826 C1821 1.394 . S
C1826 C1825 1.411 . S
C1826 C1827 1.508 1_545 S
C1827 C1826 1.508 1_565 S
C1827 C1828 1.502 . S
C1827 C1829 1.561 . S
C1827 C1830 1.526 . S
C1828 H1812 0.959 . S
C1828 H1813 0.959 . S
C1828 H1814 0.961 . S
C1828 C1827 1.502 . S
C1829 H1815 0.960 . S
C1829 H1816 0.961 . S
C1829 H1817 0.959 . S
C1829 C1827 1.561 . S
C1830 C1827 1.526 . S
C1830 C1831 1.396 1_565 S
C1830 C1835 1.390 . S
C1831 C1825 1.465 . S
C1831 C1830 1.396 1_545 S
C1831 C1832 1.399 . S
C1832 H1818 0.929 . S
C1832 C1831 1.399 . S
C1832 C1833 1.385 . S
C1833 H1819 0.931 . S
C1833 C1832 1.385 . S
C1833 C1834 1.389 . S
C1834 C1833 1.389 . S
C1834 C1835 1.387 1_545 S
C1835 H1820 0.930 . S
C1835 C1830 1.390 . S
C1835 C1834 1.387 1_565 S
H1836 C1848 0.930 . S
H1837 C1850 0.930 . S
H1838 C1851 0.930 . S
H1839 C1855 0.959 . S
H1840 C1855 0.959 . S
H1841 C1855 0.961 . S
H1842 C1856 0.960 . S
H1843 C1856 0.961 . S
H1844 C1856 0.959 . S
H1845 C1859 0.929 . S
H1846 C1860 0.931 . S
H1847 C1862 0.930 . S
C1848 H1836 0.930 . S
C1848 C1849 1.399 1_455 S
C1848 C1853 1.399 . S
C1849 C1848 1.399 1_655 S
C1849 C1850 1.376 . S
C1850 H1837 0.930 . S
C1850 C1849 1.376 . S
C1850 C1851 1.388 . S
C1851 H1838 0.930 . S
C1851 C1850 1.388 . S
C1851 C1852 1.390 . S
C1852 C1851 1.390 . S
C1852 C1853 1.394 1_655 S
C1852 C1858 1.465 . S
C1853 C1848 1.399 . S
C1853 C1852 1.394 1_455 S
C1853 C1854 1.516 . S
C1854 C1853 1.516 . S
C1854 C1855 1.502 . S
C1854 C1856 1.561 . S
C1854 C1857 1.526 . S
C1855 H1839 0.959 . S
C1855 H1840 0.959 . S
C1855 H1841 0.961 . S
C1855 C1854 1.502 . S
C1856 H1842 0.960 . S
C1856 H1843 0.961 . S
C1856 H1844 0.959 . S
C1856 C1854 1.561 . S
C1857 C1854 1.526 . S
C1857 C1858 1.396 1_455 S
C1857 C1862 1.390 . S
C1858 C1852 1.465 . S
C1858 C1857 1.396 1_655 S
C1858 C1859 1.399 . S
C1859 H1845 0.929 . S
C1859 C1858 1.399 . S
C1859 C1860 1.385 . S
C1860 H1846 0.931 . S
C1860 C1859 1.385 . S
C1860 C1861 1.389 . S
C1861 C1860 1.389 . S
C1861 C1862 1.387 1_655 S
C1862 H1847 0.930 . S
C1862 C1857 1.390 . S
C1862 C1861 1.387 1_455 S
H1863 C1875 0.930 . S
H1864 C1877 0.930 . S
H1865 C1878 0.930 . S
H1866 C1882 0.959 . S
H1867 C1882 0.959 . S
H1868 C1882 0.961 . S
H1869 C1883 0.960 . S
H1870 C1883 0.961 . S
H1871 C1883 0.959 . S
H1872 C1886 0.929 . S
H1873 C1887 0.931 . S
H1874 C1889 0.930 . S
C1875 H1863 0.930 . S
C1875 C1876 1.399 . S
C1875 C1880 1.399 . S
C1876 C1875 1.399 . S
C1876 C1877 1.376 . S
C1877 H1864 0.930 . S
C1877 C1876 1.376 . S
C1877 C1878 1.388 . S
C1878 H1865 0.930 . S
C1878 C1877 1.388 . S
C1878 C1879 1.390 . S
C1879 C1878 1.390 . S
C1879 C1880 1.394 . S
C1879 C1885 1.465 . S
C1880 C1875 1.399 . S
C1880 C1879 1.394 . S
C1880 C1881 1.516 . S
C1881 C1880 1.516 . S
C1881 C1882 1.502 . S
C1881 C1883 1.561 . S
C1881 C1884 1.526 . S
C1882 H1866 0.959 . S
C1882 H1867 0.959 . S
C1882 H1868 0.961 . S
C1882 C1881 1.502 . S
C1883 H1869 0.960 . S
C1883 H1870 0.961 . S
C1883 H1871 0.959 . S
C1883 C1881 1.561 . S
C1884 C1881 1.526 . S
C1884 C1885 1.396 . S
C1884 C1889 1.390 . S
C1885 C1879 1.465 . S
C1885 C1884 1.396 . S
C1885 C1886 1.399 . S
C1886 H1872 0.929 . S
C1886 C1885 1.399 . S
C1886 C1887 1.385 . S
C1887 H1873 0.931 . S
C1887 C1886 1.385 . S
C1887 C1888 1.389 . S
C1888 C1887 1.389 . S
C1888 C1889 1.387 . S
C1889 H1874 0.930 . S
C1889 C1884 1.390 . S
C1889 C1888 1.387 . S
H1890 C1902 0.930 . S
H1891 C1904 0.930 . S
H1892 C1905 0.930 . S
H1893 C1909 0.959 . S
H1894 C1909 0.959 . S
H1895 C1909 0.961 . S
H1896 C1910 0.960 . S
H1897 C1910 0.961 . S
H1898 C1910 0.959 . S
H1899 C1913 0.929 . S
H1900 C1914 0.931 . S
H1901 C1916 0.930 . S
C1902 H1890 0.930 . S
C1902 C1903 1.399 . S
C1902 C1907 1.399 . S
C1903 C1902 1.399 . S
C1903 C1904 1.376 . S
C1904 H1891 0.930 . S
C1904 C1903 1.376 . S
C1904 C1905 1.388 . S
C1905 H1892 0.930 . S
C1905 C1904 1.388 . S
C1905 C1906 1.390 . S
C1906 C1905 1.390 . S
C1906 C1907 1.394 . S
C1906 C1912 1.465 . S
C1907 C1902 1.399 . S
C1907 C1906 1.394 . S
C1907 C1908 1.516 . S
C1908 C1907 1.516 . S
C1908 C1909 1.502 . S
C1908 C1910 1.561 . S
C1908 C1911 1.526 . S
C1909 H1893 0.959 . S
C1909 H1894 0.959 . S
C1909 H1895 0.961 . S
C1909 C1908 1.502 . S
C1910 H1896 0.960 . S
C1910 H1897 0.961 . S
C1910 H1898 0.959 . S
C1910 C1908 1.561 . S
C1911 C1908 1.526 . S
C1911 C1912 1.396 . S
C1911 C1916 1.390 . S
C1912 C1906 1.465 . S
C1912 C1911 1.396 . S
C1912 C1913 1.399 . S
C1913 H1899 0.929 . S
C1913 C1912 1.399 . S
C1913 C1914 1.385 . S
C1914 H1900 0.931 . S
C1914 C1913 1.385 . S
C1914 C1915 1.389 . S
C1915 C1914 1.389 . S
C1915 C1916 1.387 . S
C1916 H1901 0.930 . S
C1916 C1911 1.390 . S
C1916 C1915 1.387 . S
H1917 C1929 0.930 . S
H1918 C1931 0.930 . S
H1919 C1932 0.930 . S
H1920 C1936 0.959 . S
H1921 C1936 0.959 . S
H1922 C1936 0.961 . S
H1923 C1937 0.960 . S
H1924 C1937 0.961 . S
H1925 C1937 0.959 . S
H1926 C1940 0.929 . S
H1927 C1941 0.931 . S
H1928 C1943 0.930 . S
C1929 H1917 0.930 . S
C1929 C1930 1.399 . S
C1929 C1934 1.399 . S
C1930 C1929 1.399 . S
C1930 C1931 1.376 . S
C1931 H1918 0.930 . S
C1931 C1930 1.376 . S
C1931 C1932 1.388 . S
C1932 H1919 0.930 . S
C1932 C1931 1.388 . S
C1932 C1933 1.390 . S
C1933 C1932 1.390 . S
C1933 C1934 1.394 . S
C1933 C1939 1.465 . S
C1934 C1929 1.399 . S
C1934 C1933 1.394 . S
C1934 C1935 1.516 . S
C1935 C1934 1.516 . S
C1935 C1936 1.502 . S
C1935 C1937 1.561 . S
C1935 C1938 1.526 . S
C1936 H1920 0.959 . S
C1936 H1921 0.959 . S
C1936 H1922 0.961 . S
C1936 C1935 1.502 . S
C1937 H1923 0.960 . S
C1937 H1924 0.961 . S
C1937 H1925 0.959 . S
C1937 C1935 1.561 . S
C1938 C1935 1.526 . S
C1938 C1939 1.396 . S
C1938 C1943 1.390 . S
C1939 C1933 1.465 . S
C1939 C1938 1.396 . S
C1939 C1940 1.399 . S
C1940 H1926 0.929 . S
C1940 C1939 1.399 . S
C1940 C1941 1.385 . S
C1941 H1927 0.931 . S
C1941 C1940 1.385 . S
C1941 C1942 1.389 . S
C1942 C1941 1.389 . S
C1942 C1943 1.387 . S
C1943 H1928 0.930 . S
C1943 C1938 1.390 . S
C1943 C1942 1.387 . S
H1944 C1956 0.930 . S
H1945 C1958 0.930 . S
H1946 C1959 0.930 . S
H1947 C1963 0.959 . S
H1948 C1963 0.959 . S
H1949 C1963 0.961 . S
H1950 C1964 0.960 . S
H1951 C1964 0.961 . S
H1952 C1964 0.959 . S
H1953 C1967 0.929 . S
H1954 C1968 0.931 . S
H1955 C1970 0.930 . S
C1956 H1944 0.930 . S
C1956 C1957 1.399 . S
C1956 C1961 1.399 . S
C1957 C1956 1.399 . S
C1957 C1958 1.376 . S
C1958 H1945 0.930 . S
C1958 C1957 1.376 . S
C1958 C1959 1.388 . S
C1959 H1946 0.930 . S
C1959 C1958 1.388 . S
C1959 C1960 1.390 . S
C1960 C1959 1.390 . S
C1960 C1961 1.394 . S
C1960 C1966 1.465 . S
C1961 C1956 1.399 . S
C1961 C1960 1.394 . S
C1961 C1962 1.516 . S
C1962 C1961 1.516 . S
C1962 C1963 1.502 . S
C1962 C1964 1.561 . S
C1962 C1965 1.526 . S
C1963 H1947 0.959 . S
C1963 H1948 0.959 . S
C1963 H1949 0.961 . S
C1963 C1962 1.502 . S
C1964 H1950 0.960 . S
C1964 H1951 0.961 . S
C1964 H1952 0.959 . S
C1964 C1962 1.561 . S
C1965 C1962 1.526 . S
C1965 C1966 1.396 . S
C1965 C1970 1.390 . S
C1966 C1960 1.465 . S
C1966 C1965 1.396 . S
C1966 C1967 1.399 . S
C1967 H1953 0.929 . S
C1967 C1966 1.399 . S
C1967 C1968 1.385 . S
C1968 H1954 0.931 . S
C1968 C1967 1.385 . S
C1968 C1969 1.389 . S
C1969 C1968 1.389 . S
C1969 C1970 1.387 . S
C1970 H1955 0.930 . S
C1970 C1965 1.390 . S
C1970 C1969 1.387 . S
H1971 C1983 0.930 . S
H1972 C1985 0.930 . S
H1973 C1986 0.930 . S
H1974 C1990 0.959 . S
H1975 C1990 0.959 . S
H1976 C1990 0.961 . S
H1977 C1991 0.960 . S
H1978 C1991 0.961 . S
H1979 C1991 0.959 . S
H1980 C1994 0.929 . S
H1981 C1995 0.931 . S
H1982 C1997 0.930 . S
C1983 H1971 0.930 . S
C1983 C1984 1.399 . S
C1983 C1988 1.399 . S
C1984 C1983 1.399 . S
C1984 C1985 1.376 . S
C1985 H1972 0.930 . S
C1985 C1984 1.376 . S
C1985 C1986 1.388 . S
C1986 H1973 0.930 . S
C1986 C1985 1.388 . S
C1986 C1987 1.390 . S
C1987 C1986 1.390 . S
C1987 C1988 1.394 . S
C1987 C1993 1.465 . S
C1988 C1983 1.399 . S
C1988 C1987 1.394 . S
C1988 C1989 1.516 . S
C1989 C1988 1.516 . S
C1989 C1990 1.502 . S
C1989 C1991 1.561 . S
C1989 C1992 1.526 . S
C1990 H1974 0.959 . S
C1990 H1975 0.959 . S
C1990 H1976 0.961 . S
C1990 C1989 1.502 . S
C1991 H1977 0.960 . S
C1991 H1978 0.961 . S
C1991 H1979 0.959 . S
C1991 C1989 1.561 . S
C1992 C1989 1.526 . S
C1992 C1993 1.396 . S
C1992 C1997 1.390 . S
C1993 C1987 1.465 . S
C1993 C1992 1.396 . S
C1993 C1994 1.399 . S
C1994 H1980 0.929 . S
C1994 C1993 1.399 . S
C1994 C1995 1.385 . S
C1995 H1981 0.931 . S
C1995 C1994 1.385 . S
C1995 C1996 1.389 . S
C1996 C1995 1.389 . S
C1996 C1997 1.387 . S
C1997 H1982 0.930 . S
C1997 C1992 1.390 . S
C1997 C1996 1.387 . S
H1998 C2010 0.930 . S
H1999 C2012 0.930 . S
H2000 C2013 0.930 . S
H2001 C2017 0.959 . S
H2002 C2017 0.959 . S
H2003 C2017 0.961 . S
H2004 C2018 0.960 . S
H2005 C2018 0.961 . S
H2006 C2018 0.959 . S
H2007 C2021 0.929 . S
H2008 C2022 0.931 . S
H2009 C2024 0.930 . S
C2010 H1998 0.930 . S
C2010 C2011 1.399 . S
C2010 C2015 1.399 . S
C2011 C2010 1.399 . S
C2011 C2012 1.376 . S
C2012 H1999 0.930 . S
C2012 C2011 1.376 . S
C2012 C2013 1.388 . S
C2013 H2000 0.930 . S
C2013 C2012 1.388 . S
C2013 C2014 1.390 . S
C2014 C2013 1.390 . S
C2014 C2015 1.394 . S
C2014 C2020 1.465 . S
C2015 C2010 1.399 . S
C2015 C2014 1.394 . S
C2015 C2016 1.516 . S
C2016 C2015 1.516 . S
C2016 C2017 1.502 . S
C2016 C2018 1.561 . S
C2016 C2019 1.526 . S
C2017 H2001 0.959 . S
C2017 H2002 0.959 . S
C2017 H2003 0.961 . S
C2017 C2016 1.502 . S
C2018 H2004 0.960 . S
C2018 H2005 0.961 . S
C2018 H2006 0.959 . S
C2018 C2016 1.561 . S
C2019 C2016 1.526 . S
C2019 C2020 1.396 . S
C2019 C2024 1.390 . S
C2020 C2014 1.465 . S
C2020 C2019 1.396 . S
C2020 C2021 1.399 . S
C2021 H2007 0.929 . S
C2021 C2020 1.399 . S
C2021 C2022 1.385 . S
C2022 H2008 0.931 . S
C2022 C2021 1.385 . S
C2022 C2023 1.389 . S
C2023 C2022 1.389 . S
C2023 C2024 1.387 . S
C2024 H2009 0.930 . S
C2024 C2019 1.390 . S
C2024 C2023 1.387 . S
H2025 C2037 0.930 . S
H2026 C2039 0.930 . S
H2027 C2040 0.930 . S
H2028 C2044 0.959 . S
H2029 C2044 0.959 . S
H2030 C2044 0.961 . S
H2031 C2045 0.960 . S
H2032 C2045 0.961 . S
H2033 C2045 0.959 . S
H2034 C2048 0.929 . S
H2035 C2049 0.931 . S
H2036 C2051 0.930 . S
C2037 H2025 0.930 . S
C2037 C2038 1.399 . S
C2037 C2042 1.399 . S
C2038 C2037 1.399 . S
C2038 C2039 1.376 . S
C2039 H2026 0.930 . S
C2039 C2038 1.376 . S
C2039 C2040 1.388 . S
C2040 H2027 0.930 . S
C2040 C2039 1.388 . S
C2040 C2041 1.390 . S
C2041 C2040 1.390 . S
C2041 C2042 1.394 . S
C2041 C2047 1.465 . S
C2042 C2037 1.399 . S
C2042 C2041 1.394 . S
C2042 C2043 1.516 . S
C2043 C2042 1.516 . S
C2043 C2044 1.502 . S
C2043 C2045 1.561 . S
C2043 C2046 1.526 . S
C2044 H2028 0.959 . S
C2044 H2029 0.959 . S
C2044 H2030 0.961 . S
C2044 C2043 1.502 . S
C2045 H2031 0.960 . S
C2045 H2032 0.961 . S
C2045 H2033 0.959 . S
C2045 C2043 1.561 . S
C2046 C2043 1.526 . S
C2046 C2047 1.396 . S
C2046 C2051 1.390 . S
C2047 C2041 1.465 . S
C2047 C2046 1.396 . S
C2047 C2048 1.399 . S
C2048 H2034 0.929 . S
C2048 C2047 1.399 . S
C2048 C2049 1.385 . S
C2049 H2035 0.931 . S
C2049 C2048 1.385 . S
C2049 C2050 1.389 . S
C2050 C2049 1.389 . S
C2050 C2051 1.387 . S
C2051 H2036 0.930 . S
C2051 C2046 1.390 . S
C2051 C2050 1.387 . S
H2052 C2064 0.930 . S
H2053 C2066 0.930 . S
H2054 C2067 0.930 . S
H2055 C2071 0.959 . S
H2056 C2071 0.959 . S
H2057 C2071 0.961 . S
H2058 C2072 0.960 . S
H2059 C2072 0.961 . S
H2060 C2072 0.959 . S
H2061 C2075 0.929 . S
H2062 C2076 0.931 . S
H2063 C2078 0.930 . S
C2064 H2052 0.930 . S
C2064 C2065 1.399 . S
C2064 C2069 1.399 . S
C2065 C2064 1.399 . S
C2065 C2066 1.376 . S
C2066 H2053 0.930 . S
C2066 C2065 1.376 . S
C2066 C2067 1.388 . S
C2067 H2054 0.930 . S
C2067 C2066 1.388 . S
C2067 C2068 1.390 . S
C2068 C2067 1.390 . S
C2068 C2069 1.394 . S
C2068 C2074 1.465 . S
C2069 C2064 1.399 . S
C2069 C2068 1.394 . S
C2069 C2070 1.516 . S
C2070 C2069 1.516 . S
C2070 C2071 1.502 . S
C2070 C2072 1.561 . S
C2070 C2073 1.526 . S
C2071 H2055 0.959 . S
C2071 H2056 0.959 . S
C2071 H2057 0.961 . S
C2071 C2070 1.502 . S
C2072 H2058 0.960 . S
C2072 H2059 0.961 . S
C2072 H2060 0.959 . S
C2072 C2070 1.561 . S
C2073 C2070 1.526 . S
C2073 C2074 1.396 . S
C2073 C2078 1.390 . S
C2074 C2068 1.465 . S
C2074 C2073 1.396 . S
C2074 C2075 1.399 . S
C2075 H2061 0.929 . S
C2075 C2074 1.399 . S
C2075 C2076 1.385 . S
C2076 H2062 0.931 . S
C2076 C2075 1.385 . S
C2076 C2077 1.389 . S
C2077 C2076 1.389 . S
C2077 C2078 1.387 . S
C2078 H2063 0.930 . S
C2078 C2073 1.390 . S
C2078 C2077 1.387 . S
H2079 C2091 0.930 . S
H2080 C2093 0.930 . S
H2081 C2094 0.930 . S
H2082 C2098 0.959 . S
H2083 C2098 0.959 . S
H2084 C2098 0.961 . S
H2085 C2099 0.960 . S
H2086 C2099 0.961 . S
H2087 C2099 0.959 . S
H2088 C2102 0.929 . S
H2089 C2103 0.931 . S
H2090 C2105 0.930 . S
C2091 H2079 0.930 . S
C2091 C2092 1.399 . S
C2091 C2096 1.399 . S
C2092 C2091 1.399 . S
C2092 C2093 1.376 . S
C2093 H2080 0.930 . S
C2093 C2092 1.376 . S
C2093 C2094 1.388 . S
C2094 H2081 0.930 . S
C2094 C2093 1.388 . S
C2094 C2095 1.390 . S
C2095 C2094 1.390 . S
C2095 C2096 1.394 . S
C2095 C2101 1.465 . S
C2096 C2091 1.399 . S
C2096 C2095 1.394 . S
C2096 C2097 1.516 . S
C2097 C2096 1.516 . S
C2097 C2098 1.502 . S
C2097 C2099 1.561 . S
C2097 C2100 1.526 . S
C2098 H2082 0.959 . S
C2098 H2083 0.959 . S
C2098 H2084 0.961 . S
C2098 C2097 1.502 . S
C2099 H2085 0.960 . S
C2099 H2086 0.961 . S
C2099 H2087 0.959 . S
C2099 C2097 1.561 . S
C2100 C2097 1.526 . S
C2100 C2101 1.396 . S
C2100 C2105 1.390 . S
C2101 C2095 1.465 . S
C2101 C2100 1.396 . S
C2101 C2102 1.399 . S
C2102 H2088 0.929 . S
C2102 C2101 1.399 . S
C2102 C2103 1.385 . S
C2103 H2089 0.931 . S
C2103 C2102 1.385 . S
C2103 C2104 1.389 . S
C2104 C2103 1.389 . S
C2104 C2105 1.387 . S
C2105 H2090 0.930 . S
C2105 C2100 1.390 . S
C2105 C2104 1.387 . S
H2106 C2118 0.930 . S
H2107 C2120 0.930 . S
H2108 C2121 0.930 . S
H2109 C2125 0.959 . S
H2110 C2125 0.959 . S
H2111 C2125 0.961 . S
H2112 C2126 0.960 . S
H2113 C2126 0.961 . S
H2114 C2126 0.959 . S
H2115 C2129 0.929 . S
H2116 C2130 0.931 . S
H2117 C2132 0.930 . S
C2118 H2106 0.930 . S
C2118 C2119 1.399 . S
C2118 C2123 1.399 . S
C2119 C2118 1.399 . S
C2119 C2120 1.376 . S
C2120 H2107 0.930 . S
C2120 C2119 1.376 . S
C2120 C2121 1.388 . S
C2121 H2108 0.930 . S
C2121 C2120 1.388 . S
C2121 C2122 1.390 . S
C2122 C2121 1.390 . S
C2122 C2123 1.394 . S
C2122 C2128 1.465 . S
C2123 C2118 1.399 . S
C2123 C2122 1.394 . S
C2123 C2124 1.516 . S
C2124 C2123 1.516 . S
C2124 C2125 1.502 . S
C2124 C2126 1.561 . S
C2124 C2127 1.526 . S
C2125 H2109 0.959 . S
C2125 H2110 0.959 . S
C2125 H2111 0.961 . S
C2125 C2124 1.502 . S
C2126 H2112 0.960 . S
C2126 H2113 0.961 . S
C2126 H2114 0.959 . S
C2126 C2124 1.561 . S
C2127 C2124 1.526 . S
C2127 C2128 1.396 . S
C2127 C2132 1.390 . S
C2128 C2122 1.465 . S
C2128 C2127 1.396 . S
C2128 C2129 1.399 . S
C2129 H2115 0.929 . S
C2129 C2128 1.399 . S
C2129 C2130 1.385 . S
C2130 H2116 0.931 . S
C2130 C2129 1.385 . S
C2130 C2131 1.389 . S
C2131 C2130 1.389 . S
C2131 C2132 1.387 . S
C2132 H2117 0.930 . S
C2132 C2127 1.390 . S
C2132 C2131 1.387 . S
H2133 C2145 0.930 . S
H2134 C2147 0.930 . S
H2135 C2148 0.930 . S
H2136 C2152 0.959 . S
H2137 C2152 0.959 . S
H2138 C2152 0.961 . S
H2139 C2153 0.960 . S
H2140 C2153 0.961 . S
H2141 C2153 0.959 . S
H2142 C2156 0.929 . S
H2143 C2157 0.931 . S
H2144 C2159 0.930 . S
C2145 H2133 0.930 . S
C2145 C2146 1.399 . S
C2145 C2150 1.399 . S
C2146 C2145 1.399 . S
C2146 C2147 1.376 . S
C2147 H2134 0.930 . S
C2147 C2146 1.376 . S
C2147 C2148 1.388 . S
C2148 H2135 0.930 . S
C2148 C2147 1.388 . S
C2148 C2149 1.390 . S
C2149 C2148 1.390 . S
C2149 C2150 1.394 . S
C2149 C2155 1.465 . S
C2150 C2145 1.399 . S
C2150 C2149 1.394 . S
C2150 C2151 1.516 . S
C2151 C2150 1.516 . S
C2151 C2152 1.502 . S
C2151 C2153 1.561 . S
C2151 C2154 1.526 . S
C2152 H2136 0.959 . S
C2152 H2137 0.959 . S
C2152 H2138 0.961 . S
C2152 C2151 1.502 . S
C2153 H2139 0.960 . S
C2153 H2140 0.961 . S
C2153 H2141 0.959 . S
C2153 C2151 1.561 . S
C2154 C2151 1.526 . S
C2154 C2155 1.396 . S
C2154 C2159 1.390 . S
C2155 C2149 1.465 . S
C2155 C2154 1.396 . S
C2155 C2156 1.399 . S
C2156 H2142 0.929 . S
C2156 C2155 1.399 . S
C2156 C2157 1.385 . S
C2157 H2143 0.931 . S
C2157 C2156 1.385 . S
C2157 C2158 1.389 . S
C2158 C2157 1.389 . S
C2158 C2159 1.387 . S
C2159 H2144 0.930 . S
C2159 C2154 1.390 . S
C2159 C2158 1.387 . S
H2160 C2172 0.930 . S
H2161 C2174 0.930 . S
H2162 C2175 0.930 . S
H2163 C2179 0.959 . S
H2164 C2179 0.959 . S
H2165 C2179 0.961 . S
H2166 C2180 0.960 . S
H2167 C2180 0.961 . S
H2168 C2180 0.959 . S
H2169 C2183 0.929 . S
H2170 C2184 0.931 . S
H2171 C2186 0.930 . S
C2172 H2160 0.930 . S
C2172 C2173 1.399 . S
C2172 C2177 1.399 . S
C2173 C2172 1.399 . S
C2173 C2174 1.376 . S
C2174 H2161 0.930 . S
C2174 C2173 1.376 . S
C2174 C2175 1.388 . S
C2175 H2162 0.930 . S
C2175 C2174 1.388 . S
C2175 C2176 1.390 . S
C2176 C2175 1.390 . S
C2176 C2177 1.394 . S
C2176 C2182 1.465 . S
C2177 C2172 1.399 . S
C2177 C2176 1.394 . S
C2177 C2178 1.516 . S
C2178 C2177 1.516 . S
C2178 C2179 1.502 . S
C2178 C2180 1.561 . S
C2178 C2181 1.526 . S
C2179 H2163 0.959 . S
C2179 H2164 0.959 . S
C2179 H2165 0.961 . S
C2179 C2178 1.502 . S
C2180 H2166 0.960 . S
C2180 H2167 0.961 . S
C2180 H2168 0.959 . S
C2180 C2178 1.561 . S
C2181 C2178 1.526 . S
C2181 C2182 1.396 . S
C2181 C2186 1.390 . S
C2182 C2176 1.465 . S
C2182 C2181 1.396 . S
C2182 C2183 1.399 . S
C2183 H2169 0.929 . S
C2183 C2182 1.399 . S
C2183 C2184 1.385 . S
C2184 H2170 0.931 . S
C2184 C2183 1.385 . S
C2184 C2185 1.389 . S
C2185 C2184 1.389 . S
C2185 C2186 1.387 . S
C2186 H2171 0.930 . S
C2186 C2181 1.390 . S
C2186 C2185 1.387 . S
H2187 C2199 0.930 . S
H2188 C2201 0.930 . S
H2189 C2202 0.930 . S
H2190 C2206 0.959 . S
H2191 C2206 0.959 . S
H2192 C2206 0.961 . S
H2193 C2207 0.960 . S
H2194 C2207 0.961 . S
H2195 C2207 0.959 . S
H2196 C2210 0.929 . S
H2197 C2211 0.931 . S
H2198 C2213 0.930 . S
C2199 H2187 0.930 . S
C2199 C2200 1.399 . S
C2199 C2204 1.399 . S
C2200 C2199 1.399 . S
C2200 C2201 1.376 . S
C2201 H2188 0.930 . S
C2201 C2200 1.376 . S
C2201 C2202 1.388 . S
C2202 H2189 0.930 . S
C2202 C2201 1.388 . S
C2202 C2203 1.390 . S
C2203 C2202 1.390 . S
C2203 C2204 1.394 . S
C2203 C2209 1.465 . S
C2204 C2199 1.399 . S
C2204 C2203 1.394 . S
C2204 C2205 1.516 . S
C2205 C2204 1.516 . S
C2205 C2206 1.502 . S
C2205 C2207 1.561 . S
C2205 C2208 1.526 . S
C2206 H2190 0.959 . S
C2206 H2191 0.959 . S
C2206 H2192 0.961 . S
C2206 C2205 1.502 . S
C2207 H2193 0.960 . S
C2207 H2194 0.961 . S
C2207 H2195 0.959 . S
C2207 C2205 1.561 . S
C2208 C2205 1.526 . S
C2208 C2209 1.396 . S
C2208 C2213 1.390 . S
C2209 C2203 1.465 . S
C2209 C2208 1.396 . S
C2209 C2210 1.399 . S
C2210 H2196 0.929 . S
C2210 C2209 1.399 . S
C2210 C2211 1.385 . S
C2211 H2197 0.931 . S
C2211 C2210 1.385 . S
C2211 C2212 1.389 . S
C2212 C2211 1.389 . S
C2212 C2213 1.387 . S
C2213 H2198 0.930 . S
C2213 C2208 1.390 . S
C2213 C2212 1.387 . S
H2214 C2226 0.930 . S
H2215 C2228 0.930 . S
H2216 C2229 0.930 . S
H2217 C2233 0.959 . S
H2218 C2233 0.959 . S
H2219 C2233 0.961 . S
H2220 C2234 0.960 . S
H2221 C2234 0.961 . S
H2222 C2234 0.959 . S
H2223 C2237 0.929 . S
H2224 C2238 0.931 . S
H2225 C2240 0.930 . S
C2226 H2214 0.930 . S
C2226 C2227 1.399 . S
C2226 C2231 1.399 . S
C2227 C2226 1.399 . S
C2227 C2228 1.376 . S
C2228 H2215 0.930 . S
C2228 C2227 1.376 . S
C2228 C2229 1.388 . S
C2229 H2216 0.930 . S
C2229 C2228 1.388 . S
C2229 C2230 1.390 . S
C2230 C2229 1.390 . S
C2230 C2231 1.394 . S
C2230 C2236 1.465 . S
C2231 C2226 1.399 . S
C2231 C2230 1.394 . S
C2231 C2232 1.516 . S
C2232 C2231 1.516 . S
C2232 C2233 1.502 . S
C2232 C2234 1.561 . S
C2232 C2235 1.526 . S
C2233 H2217 0.959 . S
C2233 H2218 0.959 . S
C2233 H2219 0.961 . S
C2233 C2232 1.502 . S
C2234 H2220 0.960 . S
C2234 H2221 0.961 . S
C2234 H2222 0.959 . S
C2234 C2232 1.561 . S
C2235 C2232 1.526 . S
C2235 C2236 1.396 . S
C2235 C2240 1.390 . S
C2236 C2230 1.465 . S
C2236 C2235 1.396 . S
C2236 C2237 1.399 . S
C2237 H2223 0.929 . S
C2237 C2236 1.399 . S
C2237 C2238 1.385 . S
C2238 H2224 0.931 . S
C2238 C2237 1.385 . S
C2238 C2239 1.389 . S
C2239 C2238 1.389 . S
C2239 C2240 1.387 . S
C2240 H2225 0.930 . S
C2240 C2235 1.390 . S
C2240 C2239 1.387 . S
H2241 C2253 0.930 . S
H2242 C2255 0.930 . S
H2243 C2256 0.930 . S
H2244 C2260 0.959 . S
H2245 C2260 0.959 . S
H2246 C2260 0.961 . S
H2247 C2261 0.960 . S
H2248 C2261 0.961 . S
H2249 C2261 0.959 . S
H2250 C2264 0.929 . S
H2251 C2265 0.931 . S
H2252 C2267 0.930 . S
C2253 H2241 0.930 . S
C2253 C2254 1.399 . S
C2253 C2258 1.399 . S
C2254 C2253 1.399 . S
C2254 C2255 1.376 . S
C2255 H2242 0.930 . S
C2255 C2254 1.376 . S
C2255 C2256 1.388 . S
C2256 H2243 0.930 . S
C2256 C2255 1.388 . S
C2256 C2257 1.390 . S
C2257 C2256 1.390 . S
C2257 C2258 1.394 . S
C2257 C2263 1.465 . S
C2258 C2253 1.399 . S
C2258 C2257 1.394 . S
C2258 C2259 1.516 . S
C2259 C2258 1.516 . S
C2259 C2260 1.502 . S
C2259 C2261 1.561 . S
C2259 C2262 1.526 . S
C2260 H2244 0.959 . S
C2260 H2245 0.959 . S
C2260 H2246 0.961 . S
C2260 C2259 1.502 . S
C2261 H2247 0.960 . S
C2261 H2248 0.961 . S
C2261 H2249 0.959 . S
C2261 C2259 1.561 . S
C2262 C2259 1.526 . S
C2262 C2263 1.396 . S
C2262 C2267 1.390 . S
C2263 C2257 1.465 . S
C2263 C2262 1.396 . S
C2263 C2264 1.399 . S
C2264 H2250 0.929 . S
C2264 C2263 1.399 . S
C2264 C2265 1.385 . S
C2265 H2251 0.931 . S
C2265 C2264 1.385 . S
C2265 C2266 1.389 . S
C2266 C2265 1.389 . S
C2266 C2267 1.387 . S
C2267 H2252 0.930 . S
C2267 C2262 1.390 . S
C2267 C2266 1.387 . S
H2268 C2280 0.930 . S
H2269 C2282 0.930 . S
H2270 C2283 0.930 . S
H2271 C2287 0.959 . S
H2272 C2287 0.959 . S
H2273 C2287 0.961 . S
H2274 C2288 0.960 . S
H2275 C2288 0.961 . S
H2276 C2288 0.959 . S
H2277 C2291 0.929 . S
H2278 C2292 0.931 . S
H2279 C2294 0.930 . S
C2280 H2268 0.930 . S
C2280 C2281 1.399 . S
C2280 C2285 1.399 . S
C2281 C2280 1.399 . S
C2281 C2282 1.376 . S
C2282 H2269 0.930 . S
C2282 C2281 1.376 . S
C2282 C2283 1.388 . S
C2283 H2270 0.930 . S
C2283 C2282 1.388 . S
C2283 C2284 1.390 . S
C2284 C2283 1.390 . S
C2284 C2285 1.394 . S
C2284 C2290 1.465 . S
C2285 C2280 1.399 . S
C2285 C2284 1.394 . S
C2285 C2286 1.516 . S
C2286 C2285 1.516 . S
C2286 C2287 1.502 . S
C2286 C2288 1.561 . S
C2286 C2289 1.526 . S
C2287 H2271 0.959 . S
C2287 H2272 0.959 . S
C2287 H2273 0.961 . S
C2287 C2286 1.502 . S
C2288 H2274 0.960 . S
C2288 H2275 0.961 . S
C2288 H2276 0.959 . S
C2288 C2286 1.561 . S
C2289 C2286 1.526 . S
C2289 C2290 1.396 . S
C2289 C2294 1.390 . S
C2290 C2284 1.465 . S
C2290 C2289 1.396 . S
C2290 C2291 1.399 . S
C2291 H2277 0.929 . S
C2291 C2290 1.399 . S
C2291 C2292 1.385 . S
C2292 H2278 0.931 . S
C2292 C2291 1.385 . S
C2292 C2293 1.389 . S
C2293 C2292 1.389 . S
C2293 C2294 1.387 . S
C2294 H2279 0.930 . S
C2294 C2289 1.390 . S
C2294 C2293 1.387 . S
H2295 C2307 0.930 . S
H2296 C2309 0.930 . S
H2297 C2310 0.930 . S
H2298 C2314 0.959 . S
H2299 C2314 0.959 . S
H2300 C2314 0.961 . S
H2301 C2315 0.960 . S
H2302 C2315 0.961 . S
H2303 C2315 0.959 . S
H2304 C2318 0.929 . S
H2305 C2319 0.931 . S
H2306 C2321 0.930 . S
C2307 H2295 0.930 . S
C2307 C2308 1.399 . S
C2307 C2312 1.399 . S
C2308 C2307 1.399 . S
C2308 C2309 1.376 . S
C2309 H2296 0.930 . S
C2309 C2308 1.376 . S
C2309 C2310 1.388 . S
C2310 H2297 0.930 . S
C2310 C2309 1.388 . S
C2310 C2311 1.390 . S
C2311 C2310 1.390 . S
C2311 C2312 1.394 . S
C2311 C2317 1.465 . S
C2312 C2307 1.399 . S
C2312 C2311 1.394 . S
C2312 C2313 1.516 . S
C2313 C2312 1.516 . S
C2313 C2314 1.502 . S
C2313 C2315 1.561 . S
C2313 C2316 1.526 . S
C2314 H2298 0.959 . S
C2314 H2299 0.959 . S
C2314 H2300 0.961 . S
C2314 C2313 1.502 . S
C2315 H2301 0.960 . S
C2315 H2302 0.961 . S
C2315 H2303 0.959 . S
C2315 C2313 1.561 . S
C2316 C2313 1.526 . S
C2316 C2317 1.396 . S
C2316 C2321 1.390 . S
C2317 C2311 1.465 . S
C2317 C2316 1.396 . S
C2317 C2318 1.399 . S
C2318 H2304 0.929 . S
C2318 C2317 1.399 . S
C2318 C2319 1.385 . S
C2319 H2305 0.931 . S
C2319 C2318 1.385 . S
C2319 C2320 1.389 . S
C2320 C2319 1.389 . S
C2320 C2321 1.387 . S
C2321 H2306 0.930 . S
C2321 C2316 1.390 . S
C2321 C2320 1.387 . S
H2322 C2334 0.930 . S
H2323 C2336 0.930 . S
H2324 C2337 0.930 . S
H2325 C2341 0.959 . S
H2326 C2341 0.959 . S
H2327 C2341 0.961 . S
H2328 C2342 0.960 . S
H2329 C2342 0.961 . S
H2330 C2342 0.959 . S
H2331 C2345 0.929 . S
H2332 C2346 0.931 . S
H2333 C2348 0.930 . S
C2334 H2322 0.930 . S
C2334 C2335 1.399 . S
C2334 C2339 1.399 . S
C2335 C2334 1.399 . S
C2335 C2336 1.376 . S
C2336 H2323 0.930 . S
C2336 C2335 1.376 . S
C2336 C2337 1.388 . S
C2337 H2324 0.930 . S
C2337 C2336 1.388 . S
C2337 C2338 1.390 . S
C2338 C2337 1.390 . S
C2338 C2339 1.394 . S
C2338 C2344 1.465 . S
C2339 C2334 1.399 . S
C2339 C2338 1.394 . S
C2339 C2340 1.516 . S
C2340 C2339 1.516 . S
C2340 C2341 1.502 . S
C2340 C2342 1.561 . S
C2340 C2343 1.526 . S
C2341 H2325 0.959 . S
C2341 H2326 0.959 . S
C2341 H2327 0.961 . S
C2341 C2340 1.502 . S
C2342 H2328 0.960 . S
C2342 H2329 0.961 . S
C2342 H2330 0.959 . S
C2342 C2340 1.561 . S
C2343 C2340 1.526 . S
C2343 C2344 1.396 . S
C2343 C2348 1.390 . S
C2344 C2338 1.465 . S
C2344 C2343 1.396 . S
C2344 C2345 1.399 . S
C2345 H2331 0.929 . S
C2345 C2344 1.399 . S
C2345 C2346 1.385 . S
C2346 H2332 0.931 . S
C2346 C2345 1.385 . S
C2346 C2347 1.389 . S
C2347 C2346 1.389 . S
C2347 C2348 1.387 . S
C2348 H2333 0.930 . S
C2348 C2343 1.390 . S
C2348 C2347 1.387 . S
H2349 C2361 0.930 . S
H2350 C2363 0.930 . S
H2351 C2364 0.930 . S
H2352 C2368 0.959 . S
H2353 C2368 0.959 . S
H2354 C2368 0.961 . S
H2355 C2369 0.960 . S
H2356 C2369 0.961 . S
H2357 C2369 0.959 . S
H2358 C2372 0.929 . S
H2359 C2373 0.931 . S
H2360 C2375 0.930 . S
C2361 H2349 0.930 . S
C2361 C2362 1.399 . S
C2361 C2366 1.399 . S
C2362 C2361 1.399 . S
C2362 C2363 1.376 . S
C2363 H2350 0.930 . S
C2363 C2362 1.376 . S
C2363 C2364 1.388 . S
C2364 H2351 0.930 . S
C2364 C2363 1.388 . S
C2364 C2365 1.390 . S
C2365 C2364 1.390 . S
C2365 C2366 1.394 . S
C2365 C2371 1.465 . S
C2366 C2361 1.399 . S
C2366 C2365 1.394 . S
C2366 C2367 1.516 . S
C2367 C2366 1.516 . S
C2367 C2368 1.502 . S
C2367 C2369 1.561 . S
C2367 C2370 1.526 . S
C2368 H2352 0.959 . S
C2368 H2353 0.959 . S
C2368 H2354 0.961 . S
C2368 C2367 1.502 . S
C2369 H2355 0.960 . S
C2369 H2356 0.961 . S
C2369 H2357 0.959 . S
C2369 C2367 1.561 . S
C2370 C2367 1.526 . S
C2370 C2371 1.396 . S
C2370 C2375 1.390 . S
C2371 C2365 1.465 . S
C2371 C2370 1.396 . S
C2371 C2372 1.399 . S
C2372 H2358 0.929 . S
C2372 C2371 1.399 . S
C2372 C2373 1.385 . S
C2373 H2359 0.931 . S
C2373 C2372 1.385 . S
C2373 C2374 1.389 . S
C2374 C2373 1.389 . S
C2374 C2375 1.387 . S
C2375 H2360 0.930 . S
C2375 C2370 1.390 . S
C2375 C2374 1.387 . S
H2376 C2388 0.930 . S
H2377 C2390 0.930 . S
H2378 C2391 0.930 . S
H2379 C2395 0.959 . S
H2380 C2395 0.959 . S
H2381 C2395 0.961 . S
H2382 C2396 0.960 . S
H2383 C2396 0.961 . S
H2384 C2396 0.959 . S
H2385 C2399 0.929 . S
H2386 C2400 0.931 . S
H2387 C2402 0.930 . S
C2388 H2376 0.930 . S
C2388 C2389 1.399 . S
C2388 C2393 1.399 . S
C2389 C2388 1.399 . S
C2389 C2390 1.376 . S
C2390 H2377 0.930 . S
C2390 C2389 1.376 . S
C2390 C2391 1.388 . S
C2391 H2378 0.930 . S
C2391 C2390 1.388 . S
C2391 C2392 1.390 . S
C2392 C2391 1.390 . S
C2392 C2393 1.394 . S
C2392 C2398 1.465 . S
C2393 C2388 1.399 . S
C2393 C2392 1.394 . S
C2393 C2394 1.516 . S
C2394 C2393 1.516 . S
C2394 C2395 1.502 . S
C2394 C2396 1.561 . S
C2394 C2397 1.526 . S
C2395 H2379 0.959 . S
C2395 H2380 0.959 . S
C2395 H2381 0.961 . S
C2395 C2394 1.502 . S
C2396 H2382 0.960 . S
C2396 H2383 0.961 . S
C2396 H2384 0.959 . S
C2396 C2394 1.561 . S
C2397 C2394 1.526 . S
C2397 C2398 1.396 . S
C2397 C2402 1.390 . S
C2398 C2392 1.465 . S
C2398 C2397 1.396 . S
C2398 C2399 1.399 . S
C2399 H2385 0.929 . S
C2399 C2398 1.399 . S
C2399 C2400 1.385 . S
C2400 H2386 0.931 . S
C2400 C2399 1.385 . S
C2400 C2401 1.389 . S
C2401 C2400 1.389 . S
C2401 C2402 1.387 . S
C2402 H2387 0.930 . S
C2402 C2397 1.390 . S
C2402 C2401 1.387 . S
H2403 C2415 0.930 . S
H2404 C2417 0.930 . S
H2405 C2418 0.930 . S
H2406 C2422 0.959 . S
H2407 C2422 0.959 . S
H2408 C2422 0.961 . S
H2409 C2423 0.960 . S
H2410 C2423 0.961 . S
H2411 C2423 0.959 . S
H2412 C2426 0.929 . S
H2413 C2427 0.931 . S
H2414 C2429 0.930 . S
C2415 H2403 0.930 . S
C2415 C2416 1.399 . S
C2415 C2420 1.399 . S
C2416 C2415 1.399 . S
C2416 C2417 1.376 . S
C2417 H2404 0.930 . S
C2417 C2416 1.376 . S
C2417 C2418 1.388 . S
C2418 H2405 0.930 . S
C2418 C2417 1.388 . S
C2418 C2419 1.390 . S
C2419 C2418 1.390 . S
C2419 C2420 1.394 . S
C2419 C2425 1.465 . S
C2420 C2415 1.399 . S
C2420 C2419 1.394 . S
C2420 C2421 1.516 . S
C2421 C2420 1.516 . S
C2421 C2422 1.502 . S
C2421 C2423 1.561 . S
C2421 C2424 1.526 . S
C2422 H2406 0.959 . S
C2422 H2407 0.959 . S
C2422 H2408 0.961 . S
C2422 C2421 1.502 . S
C2423 H2409 0.960 . S
C2423 H2410 0.961 . S
C2423 H2411 0.959 . S
C2423 C2421 1.561 . S
C2424 C2421 1.526 . S
C2424 C2425 1.396 . S
C2424 C2429 1.390 . S
C2425 C2419 1.465 . S
C2425 C2424 1.396 . S
C2425 C2426 1.399 . S
C2426 H2412 0.929 . S
C2426 C2425 1.399 . S
C2426 C2427 1.385 . S
C2427 H2413 0.931 . S
C2427 C2426 1.385 . S
C2427 C2428 1.389 . S
C2428 C2427 1.389 . S
C2428 C2429 1.387 . S
C2429 H2414 0.930 . S
C2429 C2424 1.390 . S
C2429 C2428 1.387 . S
H2430 C2442 0.930 . S
H2431 C2444 0.930 . S
H2432 C2445 0.930 . S
H2433 C2449 0.959 . S
H2434 C2449 0.959 . S
H2435 C2449 0.961 . S
H2436 C2450 0.960 . S
H2437 C2450 0.961 . S
H2438 C2450 0.959 . S
H2439 C2453 0.929 . S
H2440 C2454 0.931 . S
H2441 C2456 0.930 . S
C2442 H2430 0.930 . S
C2442 C2443 1.399 . S
C2442 C2447 1.399 . S
C2443 C2442 1.399 . S
C2443 C2444 1.376 . S
C2444 H2431 0.930 . S
C2444 C2443 1.376 . S
C2444 C2445 1.388 . S
C2445 H2432 0.930 . S
C2445 C2444 1.388 . S
C2445 C2446 1.390 . S
C2446 C2445 1.390 . S
C2446 C2447 1.394 . S
C2446 C2452 1.465 . S
C2447 C2442 1.399 . S
C2447 C2446 1.394 . S
C2447 C2448 1.516 . S
C2448 C2447 1.516 . S
C2448 C2449 1.502 . S
C2448 C2450 1.561 . S
C2448 C2451 1.526 . S
C2449 H2433 0.959 . S
C2449 H2434 0.959 . S
C2449 H2435 0.961 . S
C2449 C2448 1.502 . S
C2450 H2436 0.960 . S
C2450 H2437 0.961 . S
C2450 H2438 0.959 . S
C2450 C2448 1.561 . S
C2451 C2448 1.526 . S
C2451 C2452 1.396 . S
C2451 C2456 1.390 . S
C2452 C2446 1.465 . S
C2452 C2451 1.396 . S
C2452 C2453 1.399 . S
C2453 H2439 0.929 . S
C2453 C2452 1.399 . S
C2453 C2454 1.385 . S
C2454 H2440 0.931 . S
C2454 C2453 1.385 . S
C2454 C2455 1.389 . S
C2455 C2454 1.389 . S
C2455 C2456 1.387 . S
C2456 H2441 0.930 . S
C2456 C2451 1.390 . S
C2456 C2455 1.387 . S
H2457 C2469 0.930 . S
H2458 C2471 0.930 . S
H2459 C2472 0.930 . S
H2460 C2476 0.959 . S
H2461 C2476 0.959 . S
H2462 C2476 0.961 . S
H2463 C2477 0.960 . S
H2464 C2477 0.961 . S
H2465 C2477 0.959 . S
H2466 C2480 0.929 . S
H2467 C2481 0.931 . S
H2468 C2483 0.930 . S
C2469 H2457 0.930 . S
C2469 C2470 1.399 . S
C2469 C2474 1.399 . S
C2470 C2469 1.399 . S
C2470 C2471 1.376 . S
C2471 H2458 0.930 . S
C2471 C2470 1.376 . S
C2471 C2472 1.388 . S
C2472 H2459 0.930 . S
C2472 C2471 1.388 . S
C2472 C2473 1.390 . S
C2473 C2472 1.390 . S
C2473 C2474 1.394 . S
C2473 C2479 1.465 . S
C2474 C2469 1.399 . S
C2474 C2473 1.394 . S
C2474 C2475 1.516 . S
C2475 C2474 1.516 . S
C2475 C2476 1.502 . S
C2475 C2477 1.561 . S
C2475 C2478 1.526 . S
C2476 H2460 0.959 . S
C2476 H2461 0.959 . S
C2476 H2462 0.961 . S
C2476 C2475 1.502 . S
C2477 H2463 0.960 . S
C2477 H2464 0.961 . S
C2477 H2465 0.959 . S
C2477 C2475 1.561 . S
C2478 C2475 1.526 . S
C2478 C2479 1.396 . S
C2478 C2483 1.390 . S
C2479 C2473 1.465 . S
C2479 C2478 1.396 . S
C2479 C2480 1.399 . S
C2480 H2466 0.929 . S
C2480 C2479 1.399 . S
C2480 C2481 1.385 . S
C2481 H2467 0.931 . S
C2481 C2480 1.385 . S
C2481 C2482 1.389 . S
C2482 C2481 1.389 . S
C2482 C2483 1.387 . S
C2483 H2468 0.930 . S
C2483 C2478 1.390 . S
C2483 C2482 1.387 . S
H2484 C2496 0.930 . S
H2485 C2498 0.930 . S
H2486 C2499 0.930 . S
H2487 C2503 0.959 . S
H2488 C2503 0.959 . S
H2489 C2503 0.961 . S
H2490 C2504 0.960 . S
H2491 C2504 0.961 . S
H2492 C2504 0.959 . S
H2493 C2507 0.929 . S
H2494 C2508 0.931 . S
H2495 C2510 0.930 . S
C2496 H2484 0.930 . S
C2496 C2497 1.399 . S
C2496 C2501 1.399 . S
C2497 C2496 1.399 . S
C2497 C2498 1.376 . S
C2498 H2485 0.930 . S
C2498 C2497 1.376 . S
C2498 C2499 1.388 . S
C2499 H2486 0.930 . S
C2499 C2498 1.388 . S
C2499 C2500 1.390 . S
C2500 C2499 1.390 . S
C2500 C2501 1.394 . S
C2500 C2506 1.465 . S
C2501 C2496 1.399 . S
C2501 C2500 1.394 . S
C2501 C2502 1.516 . S
C2502 C2501 1.516 . S
C2502 C2503 1.502 . S
C2502 C2504 1.561 . S
C2502 C2505 1.526 . S
C2503 H2487 0.959 . S
C2503 H2488 0.959 . S
C2503 H2489 0.961 . S
C2503 C2502 1.502 . S
C2504 H2490 0.960 . S
C2504 H2491 0.961 . S
C2504 H2492 0.959 . S
C2504 C2502 1.561 . S
C2505 C2502 1.526 . S
C2505 C2506 1.396 . S
C2505 C2510 1.390 . S
C2506 C2500 1.465 . S
C2506 C2505 1.396 . S
C2506 C2507 1.399 . S
C2507 H2493 0.929 . S
C2507 C2506 1.399 . S
C2507 C2508 1.385 . S
C2508 H2494 0.931 . S
C2508 C2507 1.385 . S
C2508 C2509 1.389 . S
C2509 C2508 1.389 . S
C2509 C2510 1.387 . S
C2510 H2495 0.930 . S
C2510 C2505 1.390 . S
C2510 C2509 1.387 . S
H2511 C2523 0.930 . S
H2512 C2525 0.930 . S
H2513 C2526 0.930 . S
H2514 C2530 0.959 . S
H2515 C2530 0.959 . S
H2516 C2530 0.961 . S
H2517 C2531 0.960 . S
H2518 C2531 0.961 . S
H2519 C2531 0.959 . S
H2520 C2534 0.929 . S
H2521 C2535 0.931 . S
H2522 C2537 0.930 . S
C2523 H2511 0.930 . S
C2523 C2524 1.399 . S
C2523 C2528 1.399 . S
C2524 C2523 1.399 . S
C2524 C2525 1.376 . S
C2525 H2512 0.930 . S
C2525 C2524 1.376 . S
C2525 C2526 1.388 . S
C2526 H2513 0.930 . S
C2526 C2525 1.388 . S
C2526 C2527 1.390 . S
C2527 C2526 1.390 . S
C2527 C2528 1.394 . S
C2527 C2533 1.465 . S
C2528 C2523 1.399 . S
C2528 C2527 1.394 . S
C2528 C2529 1.516 . S
C2529 C2528 1.516 . S
C2529 C2530 1.502 . S
C2529 C2531 1.561 . S
C2529 C2532 1.526 . S
C2530 H2514 0.959 . S
C2530 H2515 0.959 . S
C2530 H2516 0.961 . S
C2530 C2529 1.502 . S
C2531 H2517 0.960 . S
C2531 H2518 0.961 . S
C2531 H2519 0.959 . S
C2531 C2529 1.561 . S
C2532 C2529 1.526 . S
C2532 C2533 1.396 . S
C2532 C2537 1.390 . S
C2533 C2527 1.465 . S
C2533 C2532 1.396 . S
C2533 C2534 1.399 . S
C2534 H2520 0.929 . S
C2534 C2533 1.399 . S
C2534 C2535 1.385 . S
C2535 H2521 0.931 . S
C2535 C2534 1.385 . S
C2535 C2536 1.389 . S
C2536 C2535 1.389 . S
C2536 C2537 1.387 . S
C2537 H2522 0.930 . S
C2537 C2532 1.390 . S
C2537 C2536 1.387 . S
H2538 C2550 0.930 . S
H2539 C2552 0.930 . S
H2540 C2553 0.930 . S
H2541 C2557 0.959 . S
H2542 C2557 0.959 . S
H2543 C2557 0.961 . S
H2544 C2558 0.960 . S
H2545 C2558 0.961 . S
H2546 C2558 0.959 . S
H2547 C2561 0.929 . S
H2548 C2562 0.931 . S
H2549 C2564 0.930 . S
C2550 H2538 0.930 . S
C2550 C2551 1.399 . S
C2550 C2555 1.399 . S
C2551 C2550 1.399 . S
C2551 C2552 1.376 . S
C2552 H2539 0.930 . S
C2552 C2551 1.376 . S
C2552 C2553 1.388 . S
C2553 H2540 0.930 . S
C2553 C2552 1.388 . S
C2553 C2554 1.390 . S
C2554 C2553 1.390 . S
C2554 C2555 1.394 . S
C2554 C2560 1.465 . S
C2555 C2550 1.399 . S
C2555 C2554 1.394 . S
C2555 C2556 1.516 . S
C2556 C2555 1.516 . S
C2556 C2557 1.502 . S
C2556 C2558 1.561 . S
C2556 C2559 1.526 . S
C2557 H2541 0.959 . S
C2557 H2542 0.959 . S
C2557 H2543 0.961 . S
C2557 C2556 1.502 . S
C2558 H2544 0.960 . S
C2558 H2545 0.961 . S
C2558 H2546 0.959 . S
C2558 C2556 1.561 . S
C2559 C2556 1.526 . S
C2559 C2560 1.396 . S
C2559 C2564 1.390 . S
C2560 C2554 1.465 . S
C2560 C2559 1.396 . S
C2560 C2561 1.399 . S
C2561 H2547 0.929 . S
C2561 C2560 1.399 . S
C2561 C2562 1.385 . S
C2562 H2548 0.931 . S
C2562 C2561 1.385 . S
C2562 C2563 1.389 . S
C2563 C2562 1.389 . S
C2563 C2564 1.387 . S
C2564 H2549 0.930 . S
C2564 C2559 1.390 . S
C2564 C2563 1.387 . S
H2565 C2577 0.930 . S
H2566 C2579 0.930 . S
H2567 C2580 0.930 . S
H2568 C2584 0.959 . S
H2569 C2584 0.959 . S
H2570 C2584 0.961 . S
H2571 C2585 0.960 . S
H2572 C2585 0.961 . S
H2573 C2585 0.959 . S
H2574 C2588 0.929 . S
H2575 C2589 0.931 . S
H2576 C2591 0.930 . S
C2577 H2565 0.930 . S
C2577 C2578 1.399 . S
C2577 C2582 1.399 . S
C2578 C2577 1.399 . S
C2578 C2579 1.376 . S
C2579 H2566 0.930 . S
C2579 C2578 1.376 . S
C2579 C2580 1.388 . S
C2580 H2567 0.930 . S
C2580 C2579 1.388 . S
C2580 C2581 1.390 . S
C2581 C2580 1.390 . S
C2581 C2582 1.394 . S
C2581 C2587 1.465 . S
C2582 C2577 1.399 . S
C2582 C2581 1.394 . S
C2582 C2583 1.516 . S
C2583 C2582 1.516 . S
C2583 C2584 1.502 . S
C2583 C2585 1.561 . S
C2583 C2586 1.526 . S
C2584 H2568 0.959 . S
C2584 H2569 0.959 . S
C2584 H2570 0.961 . S
C2584 C2583 1.502 . S
C2585 H2571 0.960 . S
C2585 H2572 0.961 . S
C2585 H2573 0.959 . S
C2585 C2583 1.561 . S
C2586 C2583 1.526 . S
C2586 C2587 1.396 . S
C2586 C2591 1.390 . S
C2587 C2581 1.465 . S
C2587 C2586 1.396 . S
C2587 C2588 1.399 . S
C2588 H2574 0.929 . S
C2588 C2587 1.399 . S
C2588 C2589 1.385 . S
C2589 H2575 0.931 . S
C2589 C2588 1.385 . S
C2589 C2590 1.389 . S
C2590 C2589 1.389 . S
C2590 C2591 1.387 . S
C2591 H2576 0.930 . S
C2591 C2586 1.390 . S
C2591 C2590 1.387 . S
H2592 C2604 0.930 . S
H2593 C2606 0.930 . S
H2594 C2607 0.930 . S
H2595 C2611 0.959 . S
H2596 C2611 0.959 . S
H2597 C2611 0.961 . S
H2598 C2612 0.960 . S
H2599 C2612 0.961 . S
H2600 C2612 0.959 . S
H2601 C2615 0.929 . S
H2602 C2616 0.931 . S
H2603 C2618 0.930 . S
C2604 H2592 0.930 . S
C2604 C2605 1.399 . S
C2604 C2609 1.399 . S
C2605 C2604 1.399 . S
C2605 C2606 1.376 . S
C2606 H2593 0.930 . S
C2606 C2605 1.376 . S
C2606 C2607 1.388 . S
C2607 H2594 0.930 . S
C2607 C2606 1.388 . S
C2607 C2608 1.390 . S
C2608 C2607 1.390 . S
C2608 C2609 1.394 . S
C2608 C2614 1.465 . S
C2609 C2604 1.399 . S
C2609 C2608 1.394 . S
C2609 C2610 1.516 . S
C2610 C2609 1.516 . S
C2610 C2611 1.502 . S
C2610 C2612 1.561 . S
C2610 C2613 1.526 . S
C2611 H2595 0.959 . S
C2611 H2596 0.959 . S
C2611 H2597 0.961 . S
C2611 C2610 1.502 . S
C2612 H2598 0.960 . S
C2612 H2599 0.961 . S
C2612 H2600 0.959 . S
C2612 C2610 1.561 . S
C2613 C2610 1.526 . S
C2613 C2614 1.396 . S
C2613 C2618 1.390 . S
C2614 C2608 1.465 . S
C2614 C2613 1.396 . S
C2614 C2615 1.399 . S
C2615 H2601 0.929 . S
C2615 C2614 1.399 . S
C2615 C2616 1.385 . S
C2616 H2602 0.931 . S
C2616 C2615 1.385 . S
C2616 C2617 1.389 . S
C2617 C2616 1.389 . S
C2617 C2618 1.387 . S
C2618 H2603 0.930 . S
C2618 C2613 1.390 . S
C2618 C2617 1.387 . S
H2619 C2631 0.930 . S
H2620 C2633 0.930 . S
H2621 C2634 0.930 . S
H2622 C2638 0.959 . S
H2623 C2638 0.959 . S
H2624 C2638 0.961 . S
H2625 C2639 0.960 . S
H2626 C2639 0.961 . S
H2627 C2639 0.959 . S
H2628 C2642 0.929 . S
H2629 C2643 0.931 . S
H2630 C2645 0.930 . S
C2631 H2619 0.930 . S
C2631 C2632 1.399 1_556 S
C2631 C2636 1.399 . S
C2632 C2631 1.399 1_554 S
C2632 C2633 1.376 . S
C2633 H2620 0.930 . S
C2633 C2632 1.376 . S
C2633 C2634 1.388 . S
C2634 H2621 0.930 . S
C2634 C2633 1.388 . S
C2634 C2635 1.390 . S
C2635 C2634 1.390 . S
C2635 C2636 1.394 1_554 S
C2635 C2641 1.465 1_554 S
C2636 C2631 1.399 . S
C2636 C2635 1.394 1_556 S
C2636 C2637 1.516 . S
C2637 C2636 1.516 . S
C2637 C2638 1.502 . S
C2637 C2639 1.561 . S
C2637 C2640 1.526 . S
C2638 H2622 0.959 . S
C2638 H2623 0.959 . S
C2638 H2624 0.961 . S
C2638 C2637 1.502 . S
C2639 H2625 0.960 . S
C2639 H2626 0.961 . S
C2639 H2627 0.959 . S
C2639 C2637 1.561 . S
C2640 C2637 1.526 . S
C2640 C2641 1.396 . S
C2640 C2645 1.390 . S
C2641 C2635 1.465 1_556 S
C2641 C2640 1.396 . S
C2641 C2642 1.399 1_556 S
C2642 H2628 0.929 . S
C2642 C2641 1.399 1_554 S
C2642 C2643 1.385 1_554 S
C2643 H2629 0.931 . S
C2643 C2642 1.385 1_556 S
C2643 C2644 1.389 . S
C2644 C2643 1.389 . S
C2644 C2645 1.387 . S
C2645 H2630 0.930 . S
C2645 C2640 1.390 . S
C2645 C2644 1.387 . S
H2646 C2658 0.943 . S
H2647 C2660 0.930 . S
H2648 C2661 0.930 . S
H2649 C2665 0.959 . S
H2650 C2665 0.959 . S
H2651 C2665 0.961 . S
H2652 C2666 0.960 . S
H2653 C2666 0.961 . S
H2654 C2666 0.959 . S
H2655 C2669 0.929 . S
H2656 C2670 0.931 . S
H2657 C2672 0.930 . S
C2658 H2646 0.943 . S
C2658 C2659 1.396 1_554 S
C2658 C2663 1.389 1_554 S
C2659 C2658 1.396 1_556 S
C2659 C2660 1.376 . S
C2660 H2647 0.930 . S
C2660 C2659 1.376 . S
C2660 C2661 1.388 . S
C2661 H2648 0.930 . S
C2661 C2660 1.388 . S
C2661 C2662 1.390 . S
C2662 C2661 1.390 . S
C2662 C2663 1.394 . S
C2662 C2668 1.465 . S
C2663 C2658 1.389 1_556 S
C2663 C2662 1.394 . S
C2663 C2664 1.516 . S
C2664 C2663 1.516 . S
C2664 C2665 1.502 1_556 S
C2664 C2666 1.561 . S
C2664 C2667 1.526 . S
C2665 H2649 0.959 . S
C2665 H2650 0.959 . S
C2665 H2651 0.961 . S
C2665 C2664 1.502 1_554 S
C2666 H2652 0.960 . S
C2666 H2653 0.961 . S
C2666 H2654 0.959 . S
C2666 C2664 1.561 . S
C2667 C2664 1.526 . S
C2667 C2668 1.396 . S
C2667 C2672 1.390 . S
C2668 C2662 1.465 . S
C2668 C2667 1.396 . S
C2668 C2669 1.399 . S
C2669 H2655 0.929 . S
C2669 C2668 1.399 . S
C2669 C2670 1.385 . S
C2670 H2656 0.931 . S
C2670 C2669 1.385 . S
C2670 C2671 1.389 . S
C2671 C2670 1.389 . S
C2671 C2672 1.387 . S
C2672 H2657 0.930 . S
C2672 C2667 1.390 . S
C2672 C2671 1.387 . S
H2673 C2685 0.930 . S
H2674 C2687 0.930 . S
H2675 C2688 0.930 . S
H2676 C2692 0.959 . S
H2677 C2692 0.959 . S
H2678 C2692 0.961 . S
H2679 C2693 0.960 . S
H2680 C2693 0.961 . S
H2681 C2693 0.959 . S
H2682 C2696 0.929 . S
H2683 C2697 0.931 . S
H2684 C2699 0.930 . S
C2685 H2673 0.930 . S
C2685 C2686 1.399 . S
C2685 C2690 1.399 . S
C2686 C2685 1.399 . S
C2686 C2687 1.376 . S
C2687 H2674 0.930 . S
C2687 C2686 1.376 . S
C2687 C2688 1.388 . S
C2688 H2675 0.930 . S
C2688 C2687 1.388 . S
C2688 C2689 1.390 . S
C2689 C2688 1.390 . S
C2689 C2690 1.394 . S
C2689 C2695 1.465 . S
C2690 C2685 1.399 . S
C2690 C2689 1.394 . S
C2690 C2691 1.516 . S
C2691 C2690 1.516 . S
C2691 C2692 1.502 . S
C2691 C2693 1.561 . S
C2691 C2694 1.526 . S
C2692 H2676 0.959 . S
C2692 H2677 0.959 . S
C2692 H2678 0.961 . S
C2692 C2691 1.502 . S
C2693 H2679 0.960 . S
C2693 H2680 0.961 . S
C2693 H2681 0.959 . S
C2693 C2691 1.561 . S
C2694 C2691 1.526 . S
C2694 C2695 1.396 . S
C2694 C2699 1.390 . S
C2695 C2689 1.465 . S
C2695 C2694 1.396 . S
C2695 C2696 1.399 1_554 S
C2696 H2682 0.929 . S
C2696 C2695 1.399 1_556 S
C2696 C2697 1.385 . S
C2697 H2683 0.931 . S
C2697 C2696 1.385 . S
C2697 C2698 1.389 . S
C2698 C2697 1.389 . S
C2698 C2699 1.387 1_556 S
C2699 H2684 0.930 . S
C2699 C2694 1.390 . S
C2699 C2698 1.387 1_554 S
H2700 C2712 0.930 . S
H2701 C2714 0.930 . S
H2702 C2715 0.930 . S
H2703 C2719 0.959 . S
H2704 C2719 0.959 . S
H2705 C2719 0.961 . S
H2706 C2720 0.960 . S
H2707 C2720 0.961 . S
H2708 C2720 0.959 1_556 S
H2709 C2723 0.929 . S
H2710 C2724 0.931 . S
H2711 C2726 0.930 . S
C2712 H2700 0.930 . S
C2712 C2713 1.399 . S
C2712 C2717 1.399 . S
C2713 C2712 1.399 . S
C2713 C2714 1.376 1_554 S
C2714 H2701 0.930 . S
C2714 C2713 1.376 1_556 S
C2714 C2715 1.388 . S
C2715 H2702 0.930 . S
C2715 C2714 1.388 . S
C2715 C2716 1.390 . S
C2716 C2715 1.390 . S
C2716 C2717 1.394 1_556 S
C2716 C2722 1.465 . S
C2717 C2712 1.399 . S
C2717 C2716 1.394 1_554 S
C2717 C2718 1.516 . S
C2718 C2717 1.516 . S
C2718 C2719 1.502 . S
C2718 C2720 1.561 . S
C2718 C2721 1.526 1_554 S
C2719 H2703 0.959 . S
C2719 H2704 0.959 . S
C2719 H2705 0.961 . S
C2719 C2718 1.502 . S
C2720 H2706 0.960 . S
C2720 H2707 0.961 . S
C2720 H2708 0.959 1_554 S
C2720 C2718 1.561 . S
C2721 C2718 1.526 1_556 S
C2721 C2722 1.396 . S
C2721 C2726 1.390 . S
C2722 C2716 1.465 . S
C2722 C2721 1.396 . S
C2722 C2723 1.399 . S
C2723 H2709 0.929 . S
C2723 C2722 1.399 . S
C2723 C2724 1.385 . S
C2724 H2710 0.931 . S
C2724 C2723 1.385 . S
C2724 C2725 1.389 . S
C2725 C2724 1.389 . S
C2725 C2726 1.387 . S
C2726 H2711 0.930 . S
C2726 C2721 1.390 . S
C2726 C2725 1.387 . S
H2727 C2739 0.930 . S
H2728 C2741 0.930 . S
H2729 C2742 0.930 . S
H2730 C2746 0.959 . S
H2731 C2746 0.959 . S
H2732 C2746 0.961 1_554 S
H2733 C2747 0.960 . S
H2734 C2747 0.961 . S
H2735 C2747 0.959 . S
H2736 C2750 0.929 . S
H2737 C2751 0.931 . S
H2738 C2753 0.930 . S
C2739 H2727 0.930 . S
C2739 C2740 1.399 . S
C2739 C2744 1.399 . S
C2740 C2739 1.399 . S
C2740 C2741 1.376 . S
C2741 H2728 0.930 . S
C2741 C2740 1.376 . S
C2741 C2742 1.388 . S
C2742 H2729 0.930 . S
C2742 C2741 1.388 . S
C2742 C2743 1.390 . S
C2743 C2742 1.390 . S
C2743 C2744 1.394 . S
C2743 C2749 1.465 . S
C2744 C2739 1.399 . S
C2744 C2743 1.394 . S
C2744 C2745 1.516 . S
C2745 C2744 1.516 . S
C2745 C2746 1.502 . S
C2745 C2747 1.561 . S
C2745 C2748 1.526 . S
C2746 H2730 0.959 . S
C2746 H2731 0.959 . S
C2746 H2732 0.961 1_556 S
C2746 C2745 1.502 . S
C2747 H2733 0.960 . S
C2747 H2734 0.961 . S
C2747 H2735 0.959 . S
C2747 C2745 1.561 . S
C2748 C2745 1.526 . S
C2748 C2749 1.396 . S
C2748 C2753 1.390 . S
C2749 C2743 1.465 . S
C2749 C2748 1.396 . S
C2749 C2750 1.399 . S
C2750 H2736 0.929 . S
C2750 C2749 1.399 . S
C2750 C2751 1.385 . S
C2751 H2737 0.931 . S
C2751 C2750 1.385 . S
C2751 C2752 1.389 . S
C2752 C2751 1.389 . S
C2752 C2753 1.387 . S
C2753 H2738 0.930 . S
C2753 C2748 1.390 . S
C2753 C2752 1.387 . S
H2754 C2766 0.930 . S
H2755 C2768 0.930 . S
H2756 C2769 0.930 . S
H2757 C2773 0.959 . S
H2758 C2773 0.959 1_556 S
H2759 C2773 0.961 . S
H2760 C2774 0.960 . S
H2761 C2774 0.961 . S
H2762 C2774 0.959 . S
H2763 C2777 0.938 . S
H2764 C2778 0.931 . S
H2765 C2780 0.930 . S
C2766 H2754 0.930 . S
C2766 C2767 1.399 . S
C2766 C2771 1.399 . S
C2767 C2766 1.399 . S
C2767 C2768 1.376 . S
C2768 H2755 0.930 . S
C2768 C2767 1.376 . S
C2768 C2769 1.388 . S
C2769 H2756 0.930 . S
C2769 C2768 1.388 . S
C2769 C2770 1.390 . S
C2770 C2769 1.390 . S
C2770 C2771 1.394 . S
C2770 C2776 1.465 1_554 S
C2771 C2766 1.399 . S
C2771 C2770 1.394 . S
C2771 C2772 1.516 1_554 S
C2772 C2771 1.516 1_556 S
C2772 C2773 1.502 1_556 S
C2772 C2774 1.561 . S
C2772 C2775 1.526 . S
C2773 H2757 0.959 . S
C2773 H2758 0.959 1_554 S
C2773 H2759 0.961 . S
C2773 C2772 1.502 1_554 S
C2774 H2760 0.960 . S
C2774 H2761 0.961 . S
C2774 H2762 0.959 . S
C2774 C2772 1.561 . S
C2775 C2772 1.526 . S
C2775 C2776 1.396 . S
C2775 C2780 1.390 . S
C2776 C2770 1.465 1_556 S
C2776 C2775 1.396 . S
C2776 C2777 1.399 . S
C2777 H2763 0.938 . S
C2777 C2776 1.399 . S
C2777 C2778 1.385 . S
C2778 H2764 0.931 . S
C2778 C2777 1.385 . S
C2778 C2779 1.389 . S
C2779 C2778 1.389 . S
C2779 C2780 1.387 . S
C2780 H2765 0.930 . S
C2780 C2775 1.390 . S
C2780 C2779 1.387 . S
H2781 C2793 0.930 . S
H2782 C2795 0.930 . S
H2783 C2796 0.930 . S
H2784 C2800 0.959 . S
H2785 C2800 0.959 . S
H2786 C2800 0.961 . S
H2787 C2801 0.960 . S
H2788 C2801 0.961 . S
H2789 C2801 0.959 . S
H2790 C2804 0.929 . S
H2791 C2805 0.931 . S
H2792 C2807 0.930 . S
C2793 H2781 0.930 . S
C2793 C2794 1.399 . S
C2793 C2798 1.399 . S
C2794 C2793 1.399 . S
C2794 C2795 1.376 . S
C2795 H2782 0.930 . S
C2795 C2794 1.376 . S
C2795 C2796 1.388 . S
C2796 H2783 0.930 . S
C2796 C2795 1.388 . S
C2796 C2797 1.390 . S
C2797 C2796 1.390 . S
C2797 C2798 1.394 . S
C2797 C2803 1.465 . S
C2798 C2793 1.399 . S
C2798 C2797 1.394 . S
C2798 C2799 1.516 . S
C2799 C2798 1.516 . S
C2799 C2800 1.502 . S
C2799 C2801 1.561 . S
C2799 C2802 1.526 . S
C2800 H2784 0.959 . S
C2800 H2785 0.959 . S
C2800 H2786 0.961 . S
C2800 C2799 1.502 . S
C2801 H2787 0.960 . S
C2801 H2788 0.961 . S
C2801 H2789 0.959 . S
C2801 C2799 1.561 . S
C2802 C2799 1.526 . S
C2802 C2803 1.396 . S
C2802 C2807 1.390 . S
C2803 C2797 1.465 . S
C2803 C2802 1.396 . S
C2803 C2804 1.399 . S
C2804 H2790 0.929 . S
C2804 C2803 1.399 . S
C2804 C2805 1.385 . S
C2805 H2791 0.931 . S
C2805 C2804 1.385 . S
C2805 C2806 1.389 . S
C2806 C2805 1.389 . S
C2806 C2807 1.387 . S
C2807 H2792 0.930 . S
C2807 C2802 1.390 . S
C2807 C2806 1.387 . S
H2808 C2820 0.930 . S
H2809 C2822 0.930 . S
H2810 C2823 0.930 . S
H2811 C2827 0.959 . S
H2812 C2827 0.959 . S
H2813 C2827 0.961 . S
H2814 C2828 0.960 . S
H2815 C2828 0.961 . S
H2816 C2828 0.959 . S
H2817 C2831 0.929 . S
H2818 C2832 0.931 . S
H2819 C2834 0.930 . S
C2820 H2808 0.930 . S
C2820 C2821 1.399 . S
C2820 C2825 1.399 . S
C2821 C2820 1.399 . S
C2821 C2822 1.376 . S
C2822 H2809 0.930 . S
C2822 C2821 1.376 . S
C2822 C2823 1.388 . S
C2823 H2810 0.930 . S
C2823 C2822 1.388 . S
C2823 C2824 1.390 . S
C2824 C2823 1.390 . S
C2824 C2825 1.394 . S
C2824 C2830 1.465 . S
C2825 C2820 1.399 . S
C2825 C2824 1.394 . S
C2825 C2826 1.516 . S
C2826 C2825 1.516 . S
C2826 C2827 1.502 . S
C2826 C2828 1.561 . S
C2826 C2829 1.526 . S
C2827 H2811 0.959 . S
C2827 H2812 0.959 . S
C2827 H2813 0.961 . S
C2827 C2826 1.502 . S
C2828 H2814 0.960 . S
C2828 H2815 0.961 . S
C2828 H2816 0.959 . S
C2828 C2826 1.561 . S
C2829 C2826 1.526 . S
C2829 C2830 1.396 . S
C2829 C2834 1.390 . S
C2830 C2824 1.465 . S
C2830 C2829 1.396 . S
C2830 C2831 1.399 . S
C2831 H2817 0.929 . S
C2831 C2830 1.399 . S
C2831 C2832 1.385 . S
C2832 H2818 0.931 . S
C2832 C2831 1.385 . S
C2832 C2833 1.389 . S
C2833 C2832 1.389 . S
C2833 C2834 1.387 . S
C2834 H2819 0.930 . S
C2834 C2829 1.390 . S
C2834 C2833 1.387 . S
H2835 C2847 0.930 . S
H2836 C2849 0.930 . S
H2837 C2850 0.930 . S
H2838 C2854 0.959 . S
H2839 C2854 0.959 . S
H2840 C2854 0.961 . S
H2841 C2855 0.960 . S
H2842 C2855 0.961 . S
H2843 C2855 0.959 . S
H2844 C2858 0.929 . S
H2845 C2859 0.931 . S
H2846 C2861 0.930 . S
C2847 H2835 0.930 . S
C2847 C2848 1.399 . S
C2847 C2852 1.399 . S
C2848 C2847 1.399 . S
C2848 C2849 1.376 . S
C2849 H2836 0.930 . S
C2849 C2848 1.376 . S
C2849 C2850 1.388 . S
C2850 H2837 0.930 . S
C2850 C2849 1.388 . S
C2850 C2851 1.390 . S
C2851 C2850 1.390 . S
C2851 C2852 1.394 . S
C2851 C2857 1.465 . S
C2852 C2847 1.399 . S
C2852 C2851 1.394 . S
C2852 C2853 1.516 . S
C2853 C2852 1.516 . S
C2853 C2854 1.502 . S
C2853 C2855 1.561 . S
C2853 C2856 1.526 . S
C2854 H2838 0.959 . S
C2854 H2839 0.959 . S
C2854 H2840 0.961 . S
C2854 C2853 1.502 . S
C2855 H2841 0.960 . S
C2855 H2842 0.961 . S
C2855 H2843 0.959 . S
C2855 C2853 1.561 . S
C2856 C2853 1.526 . S
C2856 C2857 1.396 . S
C2856 C2861 1.390 . S
C2857 C2851 1.465 . S
C2857 C2856 1.396 . S
C2857 C2858 1.399 . S
C2858 H2844 0.929 . S
C2858 C2857 1.399 . S
C2858 C2859 1.385 . S
C2859 H2845 0.931 . S
C2859 C2858 1.385 . S
C2859 C2860 1.389 . S
C2860 C2859 1.389 . S
C2860 C2861 1.387 . S
C2861 H2846 0.930 . S
C2861 C2856 1.390 . S
C2861 C2860 1.387 . S
H2862 C2874 0.930 . S
H2863 C2876 0.930 . S
H2864 C2877 0.930 . S
H2865 C2881 0.959 . S
H2866 C2881 0.959 . S
H2867 C2881 0.961 . S
H2868 C2882 0.960 . S
H2869 C2882 0.961 . S
H2870 C2882 0.959 . S
H2871 C2885 0.929 . S
H2872 C2886 0.931 . S
H2873 C2888 0.930 . S
C2874 H2862 0.930 . S
C2874 C2875 1.399 . S
C2874 C2879 1.399 . S
C2875 C2874 1.399 . S
C2875 C2876 1.376 . S
C2876 H2863 0.930 . S
C2876 C2875 1.376 . S
C2876 C2877 1.388 . S
C2877 H2864 0.930 . S
C2877 C2876 1.388 . S
C2877 C2878 1.390 . S
C2878 C2877 1.390 . S
C2878 C2879 1.394 . S
C2878 C2884 1.465 . S
C2879 C2874 1.399 . S
C2879 C2878 1.394 . S
C2879 C2880 1.516 . S
C2880 C2879 1.516 . S
C2880 C2881 1.502 . S
C2880 C2882 1.561 . S
C2880 C2883 1.526 . S
C2881 H2865 0.959 . S
C2881 H2866 0.959 . S
C2881 H2867 0.961 . S
C2881 C2880 1.502 . S
C2882 H2868 0.960 . S
C2882 H2869 0.961 . S
C2882 H2870 0.959 . S
C2882 C2880 1.561 . S
C2883 C2880 1.526 . S
C2883 C2884 1.396 . S
C2883 C2888 1.390 . S
C2884 C2878 1.465 . S
C2884 C2883 1.396 . S
C2884 C2885 1.399 . S
C2885 H2871 0.929 . S
C2885 C2884 1.399 . S
C2885 C2886 1.385 . S
C2886 H2872 0.931 . S
C2886 C2885 1.385 . S
C2886 C2887 1.389 . S
C2887 C2886 1.389 . S
C2887 C2888 1.387 . S
C2888 H2873 0.930 . S
C2888 C2883 1.390 . S
C2888 C2887 1.387 . S
H2889 C2901 0.930 . S
H2890 C2903 0.930 . S
H2891 C2904 0.930 . S
H2892 C2908 0.959 . S
H2893 C2908 0.959 . S
H2894 C2908 0.961 . S
H2895 C2909 0.960 . S
H2896 C2909 0.961 . S
H2897 C2909 0.959 . S
H2898 C2912 0.929 . S
H2899 C2913 0.931 . S
H2900 C2915 0.930 . S
C2901 H2889 0.930 . S
C2901 C2902 1.399 . S
C2901 C2906 1.399 . S
C2902 C2901 1.399 . S
C2902 C2903 1.376 . S
C2903 H2890 0.930 . S
C2903 C2902 1.376 . S
C2903 C2904 1.388 . S
C2904 H2891 0.930 . S
C2904 C2903 1.388 . S
C2904 C2905 1.390 . S
C2905 C2904 1.390 . S
C2905 C2906 1.394 . S
C2905 C2911 1.465 . S
C2906 C2901 1.399 . S
C2906 C2905 1.394 . S
C2906 C2907 1.516 . S
C2907 C2906 1.516 . S
C2907 C2908 1.502 . S
C2907 C2909 1.561 . S
C2907 C2910 1.526 . S
C2908 H2892 0.959 . S
C2908 H2893 0.959 . S
C2908 H2894 0.961 . S
C2908 C2907 1.502 . S
C2909 H2895 0.960 . S
C2909 H2896 0.961 . S
C2909 H2897 0.959 . S
C2909 C2907 1.561 . S
C2910 C2907 1.526 . S
C2910 C2911 1.396 . S
C2910 C2915 1.390 . S
C2911 C2905 1.465 . S
C2911 C2910 1.396 . S
C2911 C2912 1.399 . S
C2912 H2898 0.929 . S
C2912 C2911 1.399 . S
C2912 C2913 1.385 . S
C2913 H2899 0.931 . S
C2913 C2912 1.385 . S
C2913 C2914 1.389 . S
C2914 C2913 1.389 . S
C2914 C2915 1.387 . S
C2915 H2900 0.930 . S
C2915 C2910 1.390 . S
C2915 C2914 1.387 . S
H2916 C2928 0.930 . S
H2917 C2930 0.930 1_455 S
H2918 C2931 0.930 . S
H2919 C2935 0.959 . S
H2920 C2935 0.959 . S
H2921 C2935 0.961 . S
H2922 C2936 0.960 . S
H2923 C2936 0.961 . S
H2924 C2936 0.959 . S
H2925 C2939 0.929 . S
H2926 C2940 0.931 . S
H2927 C2942 0.930 . S
C2928 H2916 0.930 . S
C2928 C2929 1.399 1_655 S
C2928 C2933 1.399 . S
C2929 C2928 1.399 1_455 S
C2929 C2930 1.376 1_455 S
C2930 H2917 0.930 1_655 S
C2930 C2929 1.376 1_655 S
C2930 C2931 1.388 . S
C2931 H2918 0.930 . S
C2931 C2930 1.388 . S
C2931 C2932 1.390 . S
C2932 C2931 1.390 . S
C2932 C2933 1.394 . S
C2932 C2938 1.465 . S
C2933 C2928 1.399 . S
C2933 C2932 1.394 . S
C2933 C2934 1.516 . S
C2934 C2933 1.516 . S
C2934 C2935 1.502 . S
C2934 C2936 1.561 . S
C2934 C2937 1.526 . S
C2935 H2919 0.959 . S
C2935 H2920 0.959 . S
C2935 H2921 0.961 . S
C2935 C2934 1.502 . S
C2936 H2922 0.960 . S
C2936 H2923 0.961 . S
C2936 H2924 0.959 . S
C2936 C2934 1.561 . S
C2937 C2934 1.526 . S
C2937 C2938 1.396 . S
C2937 C2942 1.390 . S
C2938 C2932 1.465 . S
C2938 C2937 1.396 . S
C2938 C2939 1.399 . S
C2939 H2925 0.929 . S
C2939 C2938 1.399 . S
C2939 C2940 1.385 . S
C2940 H2926 0.931 . S
C2940 C2939 1.385 . S
C2940 C2941 1.389 . S
C2941 C2940 1.389 . S
C2941 C2942 1.387 . S
C2942 H2927 0.930 . S
C2942 C2937 1.390 . S
C2942 C2941 1.387 . S
H2943 C2955 0.930 . S
H2944 C2957 0.930 . S
H2945 C2958 0.930 . S
H2946 C2962 0.983 . S
H2947 C2962 0.959 . S
H2948 C2962 0.961 . S
H2949 C2963 0.960 . S
H2950 C2963 0.961 . S
H2951 C2963 0.959 . S
H2952 C2966 0.929 . S
H2953 C2967 0.931 . S
H2954 C2969 0.930 . S
C2955 H2943 0.930 . S
C2955 C2956 1.399 . S
C2955 C2960 1.399 . S
C2956 C2955 1.399 . S
C2956 C2957 1.376 . S
C2957 H2944 0.930 . S
C2957 C2956 1.376 . S
C2957 C2958 1.388 . S
C2958 H2945 0.930 . S
C2958 C2957 1.388 . S
C2958 C2959 1.390 . S
C2959 C2958 1.390 . S
C2959 C2960 1.394 . S
C2959 C2965 1.465 . S
C2960 C2955 1.399 . S
C2960 C2959 1.394 . S
C2960 C2961 1.516 . S
C2961 C2960 1.516 . S
C2961 C2962 1.502 . S
C2961 C2963 1.561 . S
C2961 C2964 1.526 . S
C2962 H2946 0.983 . S
C2962 H2947 0.959 . S
C2962 H2948 0.961 . S
C2962 C2961 1.502 . S
C2963 H2949 0.960 . S
C2963 H2950 0.961 . S
C2963 H2951 0.959 . S
C2963 C2961 1.561 . S
C2964 C2961 1.526 . S
C2964 C2965 1.396 . S
C2964 C2969 1.390 . S
C2965 C2959 1.465 . S
C2965 C2964 1.396 . S
C2965 C2966 1.399 . S
C2966 H2952 0.929 . S
C2966 C2965 1.399 . S
C2966 C2967 1.385 . S
C2967 H2953 0.931 . S
C2967 C2966 1.385 . S
C2967 C2968 1.389 . S
C2968 C2967 1.389 . S
C2968 C2969 1.387 . S
C2969 H2954 0.930 . S
C2969 C2964 1.390 . S
C2969 C2968 1.387 . S
H2970 C2982 0.930 . S
H2971 C2984 0.930 . S
H2972 C2985 0.930 . S
H2973 C2989 0.959 . S
H2974 C2989 0.959 . S
H2975 C2989 0.961 . S
H2976 C2990 0.960 . S
H2977 C2990 0.961 . S
H2978 C2990 0.959 . S
H2979 C2993 0.929 . S
H2980 C2994 0.931 . S
H2981 C2996 0.930 . S
C2982 H2970 0.930 . S
C2982 C2983 1.399 . S
C2982 C2987 1.399 . S
C2983 C2982 1.399 . S
C2983 C2984 1.376 . S
C2984 H2971 0.930 . S
C2984 C2983 1.376 . S
C2984 C2985 1.388 . S
C2985 H2972 0.930 . S
C2985 C2984 1.388 . S
C2985 C2986 1.390 . S
C2986 C2985 1.390 . S
C2986 C2987 1.394 . S
C2986 C2992 1.465 . S
C2987 C2982 1.399 . S
C2987 C2986 1.394 . S
C2987 C2988 1.516 . S
C2988 C2987 1.516 . S
C2988 C2989 1.502 . S
C2988 C2990 1.561 . S
C2988 C2991 1.526 . S
C2989 H2973 0.959 . S
C2989 H2974 0.959 . S
C2989 H2975 0.961 . S
C2989 C2988 1.502 . S
C2990 H2976 0.960 . S
C2990 H2977 0.961 . S
C2990 H2978 0.959 . S
C2990 C2988 1.561 . S
C2991 C2988 1.526 . S
C2991 C2992 1.396 . S
C2991 C2996 1.390 . S
C2992 C2986 1.465 . S
C2992 C2991 1.396 . S
C2992 C2993 1.399 . S
C2993 H2979 0.929 . S
C2993 C2992 1.399 . S
C2993 C2994 1.385 . S
C2994 H2980 0.931 . S
C2994 C2993 1.385 . S
C2994 C2995 1.389 . S
C2995 C2994 1.389 . S
C2995 C2996 1.387 . S
C2996 H2981 0.930 . S
C2996 C2991 1.390 . S
C2996 C2995 1.387 . S
H2997 C3009 0.930 . S
H2998 C3011 0.930 . S
H2999 C3012 0.930 1_545 S
H3000 C3016 0.959 . S
H3001 C3016 0.959 . S
H3002 C3016 0.961 . S
H3003 C3017 0.960 . S
H3004 C3017 0.961 . S
H3005 C3017 0.959 . S
H3006 C3020 0.925 1_545 S
H3007 C3021 0.931 1_545 S
H3008 C3023 0.930 . S
C3009 H2997 0.930 . S
C3009 C3010 1.399 . S
C3009 C3014 1.399 . S
C3010 C3009 1.399 . S
C3010 C3011 1.376 . S
C3011 H2998 0.930 . S
C3011 C3010 1.376 . S
C3011 C3012 1.388 . S
C3012 H2999 0.930 1_565 S
C3012 C3011 1.388 . S
C3012 C3013 1.390 . S
C3013 C3012 1.390 . S
C3013 C3014 1.394 . S
C3013 C3019 1.465 . S
C3014 C3009 1.399 . S
C3014 C3013 1.394 . S
C3014 C3015 1.516 . S
C3015 C3014 1.516 . S
C3015 C3016 1.502 . S
C3015 C3017 1.561 . S
C3015 C3018 1.526 . S
C3016 H3000 0.959 . S
C3016 H3001 0.959 . S
C3016 H3002 0.961 . S
C3016 C3015 1.502 . S
C3017 H3003 0.960 . S
C3017 H3004 0.961 . S
C3017 H3005 0.959 . S
C3017 C3015 1.561 . S
C3018 C3015 1.526 . S
C3018 C3019 1.396 . S
C3018 C3023 1.390 . S
C3019 C3013 1.465 . S
C3019 C3018 1.396 . S
C3019 C3020 1.401 . S
C3020 H3006 0.925 1_565 S
C3020 C3019 1.401 . S
C3020 C3021 1.387 . S
C3021 H3007 0.931 1_565 S
C3021 C3020 1.387 . S
C3021 C3022 1.389 . S
C3022 C3021 1.389 . S
C3022 C3023 1.387 . S
C3023 H3008 0.930 . S
C3023 C3018 1.390 . S
C3023 C3022 1.387 . S
H3024 C3036 0.930 . S
H3025 C3038 0.930 . S
H3026 C3039 0.930 . S
H3027 C3043 0.959 . S
H3028 C3043 0.959 . S
H3029 C3043 0.961 . S
H3030 C3044 0.960 . S
H3031 C3044 0.961 . S
H3032 C3044 0.959 . S
H3033 C3047 0.929 . S
H3034 C3048 0.931 . S
H3035 C3050 0.930 1_545 S
C3036 H3024 0.930 . S
C3036 C3037 1.399 . S
C3036 C3041 1.399 . S
C3037 C3036 1.399 . S
C3037 C3038 1.376 . S
C3038 H3025 0.930 . S
C3038 C3037 1.376 . S
C3038 C3039 1.388 . S
C3039 H3026 0.930 . S
C3039 C3038 1.388 . S
C3039 C3040 1.390 . S
C3040 C3039 1.390 . S
C3040 C3041 1.394 . S
C3040 C3046 1.465 . S
C3041 C3036 1.399 . S
C3041 C3040 1.394 . S
C3041 C3042 1.516 . S
C3042 C3041 1.516 . S
C3042 C3043 1.502 1_565 S
C3042 C3044 1.561 . S
C3042 C3045 1.526 . S
C3043 H3027 0.959 . S
C3043 H3028 0.959 . S
C3043 H3029 0.961 . S
C3043 C3042 1.502 1_545 S
C3044 H3030 0.960 . S
C3044 H3031 0.961 . S
C3044 H3032 0.959 . S
C3044 C3042 1.561 . S
C3045 C3042 1.526 . S
C3045 C3046 1.396 . S
C3045 C3050 1.390 . S
C3046 C3040 1.465 . S
C3046 C3045 1.396 . S
C3046 C3047 1.399 . S
C3047 H3033 0.929 . S
C3047 C3046 1.399 . S
C3047 C3048 1.385 . S
C3048 H3034 0.931 . S
C3048 C3047 1.385 . S
C3048 C3049 1.389 . S
C3049 C3048 1.389 . S
C3049 C3050 1.387 . S
C3050 H3035 0.930 1_565 S
C3050 C3045 1.390 . S
C3050 C3049 1.387 . S
H3051 C3063 0.930 . S
H3052 C3065 0.930 . S
H3053 C3066 0.930 . S
H3054 C3070 0.959 . S
H3055 C3070 0.959 . S
H3056 C3070 0.961 . S
H3057 C3071 0.960 . S
H3058 C3071 0.961 . S
H3059 C3071 0.959 . S
H3060 C3074 0.929 . S
H3061 C3075 0.931 . S
H3062 C3077 0.930 . S
C3063 H3051 0.930 . S
C3063 C3064 1.399 . S
C3063 C3068 1.399 . S
C3064 C3063 1.399 . S
C3064 C3065 1.376 . S
C3065 H3052 0.930 . S
C3065 C3064 1.376 . S
C3065 C3066 1.388 . S
C3066 H3053 0.930 . S
C3066 C3065 1.388 . S
C3066 C3067 1.390 . S
C3067 C3066 1.390 . S
C3067 C3068 1.394 . S
C3067 C3073 1.465 . S
C3068 C3063 1.399 . S
C3068 C3067 1.394 . S
C3068 C3069 1.516 . S
C3069 C3068 1.516 . S
C3069 C3070 1.502 1_455 S
C3069 C3071 1.561 . S
C3069 C3072 1.526 . S
C3070 H3054 0.959 . S
C3070 H3055 0.959 . S
C3070 H3056 0.961 . S
C3070 C3069 1.502 1_655 S
C3071 H3057 0.960 . S
C3071 H3058 0.961 . S
C3071 H3059 0.959 . S
C3071 C3069 1.561 . S
C3072 C3069 1.526 . S
C3072 C3073 1.396 . S
C3072 C3077 1.390 1_455 S
C3073 C3067 1.465 . S
C3073 C3072 1.396 . S
C3073 C3074 1.399 . S
C3074 H3060 0.929 . S
C3074 C3073 1.399 . S
C3074 C3075 1.385 . S
C3075 H3061 0.931 . S
C3075 C3074 1.385 . S
C3075 C3076 1.359 1_455 S
C3076 C3075 1.359 1_655 S
C3076 C3077 1.420 . S
C3077 H3062 0.930 . S
C3077 C3072 1.390 1_655 S
C3077 C3076 1.420 . S
H3078 C3090 0.930 . S
H3079 C3092 0.930 . S
H3080 C3093 0.930 . S
H3081 C3097 0.959 . S
H3082 C3097 0.959 . S
H3083 C3097 0.961 . S
H3084 C3098 0.960 . S
H3085 C3098 0.961 . S
H3086 C3098 0.959 . S
H3087 C3101 0.929 . S
H3088 C3102 0.931 . S
H3089 C3104 0.930 . S
C3090 H3078 0.930 . S
C3090 C3091 1.399 . S
C3090 C3095 1.399 . S
C3091 C3090 1.399 . S
C3091 C3092 1.376 . S
C3092 H3079 0.930 . S
C3092 C3091 1.376 . S
C3092 C3093 1.388 . S
C3093 H3080 0.930 . S
C3093 C3092 1.388 . S
C3093 C3094 1.390 . S
C3094 C3093 1.390 . S
C3094 C3095 1.394 . S
C3094 C3100 1.465 . S
C3095 C3090 1.399 . S
C3095 C3094 1.394 . S
C3095 C3096 1.516 . S
C3096 C3095 1.516 . S
C3096 C3097 1.502 . S
C3096 C3098 1.561 . S
C3096 C3099 1.526 . S
C3097 H3081 0.959 . S
C3097 H3082 0.959 . S
C3097 H3083 0.961 . S
C3097 C3096 1.502 . S
C3098 H3084 0.960 . S
C3098 H3085 0.961 . S
C3098 H3086 0.959 . S
C3098 C3096 1.561 . S
C3099 C3096 1.526 . S
C3099 C3100 1.396 . S
C3099 C3104 1.390 . S
C3100 C3094 1.465 . S
C3100 C3099 1.396 . S
C3100 C3101 1.399 . S
C3101 H3087 0.929 . S
C3101 C3100 1.399 . S
C3101 C3102 1.385 . S
C3102 H3088 0.931 . S
C3102 C3101 1.385 . S
C3102 C3103 1.389 . S
C3103 C3102 1.389 . S
C3103 C3104 1.387 . S
C3104 H3089 0.930 . S
C3104 C3099 1.390 . S
C3104 C3103 1.387 . S
H3105 C3117 0.930 . S
H3106 C3119 0.930 . S
H3107 C3120 0.930 . S
H3108 C3124 0.959 . S
H3109 C3124 0.959 . S
H3110 C3124 0.961 . S
H3111 C3125 0.960 . S
H3112 C3125 0.961 . S
H3113 C3125 0.959 . S
H3114 C3128 0.929 . S
H3115 C3129 0.931 . S
H3116 C3131 0.930 . S
C3117 H3105 0.930 . S
C3117 C3118 1.399 . S
C3117 C3122 1.399 . S
C3118 C3117 1.399 . S
C3118 C3119 1.376 . S
C3119 H3106 0.930 . S
C3119 C3118 1.376 . S
C3119 C3120 1.388 . S
C3120 H3107 0.930 . S
C3120 C3119 1.388 . S
C3120 C3121 1.390 . S
C3121 C3120 1.390 . S
C3121 C3122 1.394 . S
C3121 C3127 1.465 . S
C3122 C3117 1.399 . S
C3122 C3121 1.394 . S
C3122 C3123 1.516 . S
C3123 C3122 1.516 . S
C3123 C3124 1.502 . S
C3123 C3125 1.561 . S
C3123 C3126 1.526 . S
C3124 H3108 0.959 . S
C3124 H3109 0.959 . S
C3124 H3110 0.961 . S
C3124 C3123 1.502 . S
C3125 H3111 0.960 . S
C3125 H3112 0.961 . S
C3125 H3113 0.959 . S
C3125 C3123 1.561 . S
C3126 C3123 1.526 . S
C3126 C3127 1.396 . S
C3126 C3131 1.390 . S
C3127 C3121 1.465 . S
C3127 C3126 1.396 . S
C3127 C3128 1.399 . S
C3128 H3114 0.929 . S
C3128 C3127 1.399 . S
C3128 C3129 1.385 . S
C3129 H3115 0.931 . S
C3129 C3128 1.385 . S
C3129 C3130 1.389 . S
C3130 C3129 1.389 . S
C3130 C3131 1.387 . S
C3131 H3116 0.930 . S
C3131 C3126 1.390 . S
C3131 C3130 1.387 . S
H3132 C3144 0.930 . S
H3133 C3146 0.930 . S
H3134 C3147 0.930 . S
H3135 C3151 0.959 . S
H3136 C3151 0.959 . S
H3137 C3151 0.961 . S
H3138 C3152 0.960 . S
H3139 C3152 0.961 . S
H3140 C3152 0.959 . S
H3141 C3155 0.929 . S
H3142 C3156 0.931 . S
H3143 C3158 0.930 . S
C3144 H3132 0.930 . S
C3144 C3145 1.399 . S
C3144 C3149 1.399 . S
C3145 C3144 1.399 . S
C3145 C3146 1.376 . S
C3146 H3133 0.930 . S
C3146 C3145 1.376 . S
C3146 C3147 1.388 . S
C3147 H3134 0.930 . S
C3147 C3146 1.388 . S
C3147 C3148 1.390 . S
C3148 C3147 1.390 . S
C3148 C3149 1.394 . S
C3148 C3154 1.465 . S
C3149 C3144 1.399 . S
C3149 C3148 1.394 . S
C3149 C3150 1.516 . S
C3150 C3149 1.516 . S
C3150 C3151 1.502 . S
C3150 C3152 1.561 . S
C3150 C3153 1.526 . S
C3151 H3135 0.959 . S
C3151 H3136 0.959 . S
C3151 H3137 0.961 . S
C3151 C3150 1.502 . S
C3152 H3138 0.960 . S
C3152 H3139 0.961 . S
C3152 H3140 0.959 . S
C3152 C3150 1.561 . S
C3153 C3150 1.526 . S
C3153 C3154 1.396 . S
C3153 C3158 1.390 . S
C3154 C3148 1.465 . S
C3154 C3153 1.396 . S
C3154 C3155 1.399 . S
C3155 H3141 0.929 . S
C3155 C3154 1.399 . S
C3155 C3156 1.385 . S
C3156 H3142 0.931 . S
C3156 C3155 1.385 . S
C3156 C3157 1.389 . S
C3157 C3156 1.389 . S
C3157 C3158 1.387 . S
C3158 H3143 0.930 . S
C3158 C3153 1.390 . S
C3158 C3157 1.387 . S
H3159 C3171 0.930 . S
H3160 C3173 0.930 . S
H3161 C3174 0.930 . S
H3162 C3178 0.959 . S
H3163 C3178 0.959 . S
H3164 C3178 0.961 . S
H3165 C3179 0.960 . S
H3166 C3179 0.961 . S
H3167 C3179 0.959 . S
H3168 C3182 0.929 . S
H3169 C3183 0.931 . S
H3170 C3185 0.930 . S
C3171 H3159 0.930 . S
C3171 C3172 1.399 . S
C3171 C3176 1.399 . S
C3172 C3171 1.399 . S
C3172 C3173 1.376 . S
C3173 H3160 0.930 . S
C3173 C3172 1.376 . S
C3173 C3174 1.388 . S
C3174 H3161 0.930 . S
C3174 C3173 1.388 . S
C3174 C3175 1.390 . S
C3175 C3174 1.390 . S
C3175 C3176 1.394 . S
C3175 C3181 1.465 . S
C3176 C3171 1.399 . S
C3176 C3175 1.394 . S
C3176 C3177 1.516 . S
C3177 C3176 1.516 . S
C3177 C3178 1.502 . S
C3177 C3179 1.561 . S
C3177 C3180 1.526 . S
C3178 H3162 0.959 . S
C3178 H3163 0.959 . S
C3178 H3164 0.961 . S
C3178 C3177 1.502 . S
C3179 H3165 0.960 . S
C3179 H3166 0.961 . S
C3179 H3167 0.959 . S
C3179 C3177 1.561 . S
C3180 C3177 1.526 . S
C3180 C3181 1.396 . S
C3180 C3185 1.390 . S
C3181 C3175 1.465 . S
C3181 C3180 1.396 . S
C3181 C3182 1.399 . S
C3182 H3168 0.929 . S
C3182 C3181 1.399 . S
C3182 C3183 1.385 . S
C3183 H3169 0.931 . S
C3183 C3182 1.385 . S
C3183 C3184 1.389 . S
C3184 C3183 1.389 . S
C3184 C3185 1.387 . S
C3185 H3170 0.930 . S
C3185 C3180 1.390 . S
C3185 C3184 1.387 . S
H3186 C3198 0.930 . S
H3187 C3200 0.930 . S
H3188 C3201 0.930 . S
H3189 C3205 0.941 1_545 S
H3190 C3205 0.979 . S
H3191 C3205 0.955 . S
H3192 C3206 0.960 . S
H3193 C3206 0.961 . S
H3194 C3206 0.959 . S
H3195 C3209 0.929 . S
H3196 C3210 0.931 . S
H3197 C3212 0.930 1_565 S
C3198 H3186 0.930 . S
C3198 C3199 1.399 . S
C3198 C3203 1.399 . S
C3199 C3198 1.399 . S
C3199 C3200 1.376 . S
C3200 H3187 0.930 . S
C3200 C3199 1.376 . S
C3200 C3201 1.388 . S
C3201 H3188 0.930 . S
C3201 C3200 1.388 . S
C3201 C3202 1.390 . S
C3202 C3201 1.390 . S
C3202 C3203 1.394 . S
C3202 C3208 1.465 . S
C3203 C3198 1.399 . S
C3203 C3202 1.394 . S
C3203 C3204 1.516 . S
C3204 C3203 1.516 . S
C3204 C3205 1.506 1_545 S
C3204 C3206 1.561 1_545 S
C3204 C3207 1.526 . S
C3205 H3189 0.941 1_565 S
C3205 H3190 0.979 . S
C3205 H3191 0.955 . S
C3205 C3204 1.506 1_565 S
C3206 H3192 0.960 . S
C3206 H3193 0.961 . S
C3206 H3194 0.959 . S
C3206 C3204 1.561 1_565 S
C3207 C3204 1.526 . S
C3207 C3208 1.396 . S
C3207 C3212 1.390 . S
C3208 C3202 1.465 . S
C3208 C3207 1.396 . S
C3208 C3209 1.399 . S
C3209 H3195 0.929 . S
C3209 C3208 1.399 . S
C3209 C3210 1.385 . S
C3210 H3196 0.931 . S
C3210 C3209 1.385 . S
C3210 C3211 1.389 . S
C3211 C3210 1.389 . S
C3211 C3212 1.387 . S
C3212 H3197 0.930 1_545 S
C3212 C3207 1.390 . S
C3212 C3211 1.387 . S
H3213 C3225 0.930 . S
H3214 C3227 0.930 . S
H3215 C3228 0.930 . S
H3216 C3232 0.959 . S
H3217 C3232 0.959 . S
H3218 C3232 0.961 . S
H3219 C3233 0.960 . S
H3220 C3233 0.961 . S
H3221 C3233 0.959 . S
H3222 C3236 0.929 . S
H3223 C3237 0.931 . S
H3224 C3239 0.930 . S
C3225 H3213 0.930 . S
C3225 C3226 1.399 . S
C3225 C3230 1.399 . S
C3226 C3225 1.399 . S
C3226 C3227 1.376 . S
C3227 H3214 0.930 . S
C3227 C3226 1.376 . S
C3227 C3228 1.388 . S
C3228 H3215 0.930 . S
C3228 C3227 1.388 . S
C3228 C3229 1.390 . S
C3229 C3228 1.390 . S
C3229 C3230 1.394 . S
C3229 C3235 1.465 . S
C3230 C3225 1.399 . S
C3230 C3229 1.394 . S
C3230 C3231 1.516 . S
C3231 C3230 1.516 . S
C3231 C3232 1.502 1_655 S
C3231 C3233 1.561 . S
C3231 C3234 1.526 . S
C3232 H3216 0.959 . S
C3232 H3217 0.959 . S
C3232 H3218 0.961 . S
C3232 C3231 1.502 1_455 S
C3233 H3219 0.960 . S
C3233 H3220 0.961 . S
C3233 H3221 0.959 . S
C3233 C3231 1.561 . S
C3234 C3231 1.526 . S
C3234 C3235 1.396 . S
C3234 C3239 1.390 . S
C3235 C3229 1.465 . S
C3235 C3234 1.396 . S
C3235 C3236 1.399 . S
C3236 H3222 0.929 . S
C3236 C3235 1.399 . S
C3236 C3237 1.385 . S
C3237 H3223 0.931 . S
C3237 C3236 1.385 . S
C3237 C3238 1.389 . S
C3238 C3237 1.389 . S
C3238 C3239 1.387 . S
C3239 H3224 0.930 . S
C3239 C3234 1.390 . S
C3239 C3238 1.387 . S
H3240 C3252 0.930 . S
H3241 C3254 0.930 . S
H3242 C3255 0.930 . S
H3243 C3259 0.959 . S
H3244 C3259 0.959 . S
H3245 C3259 0.961 . S
H3246 C3260 0.960 . S
H3247 C3260 0.961 . S
H3248 C3260 0.959 . S
H3249 C3263 0.929 . S
H3250 C3264 0.931 . S
H3251 C3266 0.930 . S
C3252 H3240 0.930 . S
C3252 C3253 1.399 . S
C3252 C3257 1.399 . S
C3253 C3252 1.399 . S
C3253 C3254 1.376 . S
C3254 H3241 0.930 . S
C3254 C3253 1.376 . S
C3254 C3255 1.388 . S
C3255 H3242 0.930 . S
C3255 C3254 1.388 . S
C3255 C3256 1.390 . S
C3256 C3255 1.390 . S
C3256 C3257 1.394 . S
C3256 C3262 1.465 . S
C3257 C3252 1.399 . S
C3257 C3256 1.394 . S
C3257 C3258 1.516 . S
C3258 C3257 1.516 . S
C3258 C3259 1.502 . S
C3258 C3260 1.561 . S
C3258 C3261 1.526 . S
C3259 H3243 0.959 . S
C3259 H3244 0.959 . S
C3259 H3245 0.961 . S
C3259 C3258 1.502 . S
C3260 H3246 0.960 . S
C3260 H3247 0.961 . S
C3260 H3248 0.959 . S
C3260 C3258 1.561 . S
C3261 C3258 1.526 . S
C3261 C3262 1.396 . S
C3261 C3266 1.390 . S
C3262 C3256 1.465 . S
C3262 C3261 1.396 . S
C3262 C3263 1.399 . S
C3263 H3249 0.929 . S
C3263 C3262 1.399 . S
C3263 C3264 1.385 . S
C3264 H3250 0.931 . S
C3264 C3263 1.385 . S
C3264 C3265 1.389 . S
C3265 C3264 1.389 . S
C3265 C3266 1.387 . S
C3266 H3251 0.930 . S
C3266 C3261 1.390 . S
C3266 C3265 1.387 . S
H3267 C3279 0.930 . S
H3268 C3281 0.930 . S
H3269 C3282 0.930 . S
H3270 C3286 0.959 . S
H3271 C3286 0.959 . S
H3272 C3286 0.961 . S
H3273 C3287 0.960 . S
H3274 C3287 0.961 . S
H3275 C3287 0.959 . S
H3276 C3290 0.929 . S
H3277 C3291 0.931 . S
H3278 C3293 0.930 . S
C3279 H3267 0.930 . S
C3279 C3280 1.399 . S
C3279 C3284 1.399 . S
C3280 C3279 1.399 . S
C3280 C3281 1.376 . S
C3281 H3268 0.930 . S
C3281 C3280 1.376 . S
C3281 C3282 1.388 . S
C3282 H3269 0.930 . S
C3282 C3281 1.388 . S
C3282 C3283 1.390 . S
C3283 C3282 1.390 . S
C3283 C3284 1.394 . S
C3283 C3289 1.465 . S
C3284 C3279 1.399 . S
C3284 C3283 1.394 . S
C3284 C3285 1.516 . S
C3285 C3284 1.516 . S
C3285 C3286 1.502 . S
C3285 C3287 1.561 . S
C3285 C3288 1.526 . S
C3286 H3270 0.959 . S
C3286 H3271 0.959 . S
C3286 H3272 0.961 . S
C3286 C3285 1.502 . S
C3287 H3273 0.960 . S
C3287 H3274 0.961 . S
C3287 H3275 0.959 . S
C3287 C3285 1.561 . S
C3288 C3285 1.526 . S
C3288 C3289 1.396 . S
C3288 C3293 1.390 . S
C3289 C3283 1.465 . S
C3289 C3288 1.396 . S
C3289 C3290 1.399 . S
C3290 H3276 0.929 . S
C3290 C3289 1.399 . S
C3290 C3291 1.385 . S
C3291 H3277 0.931 . S
C3291 C3290 1.385 . S
C3291 C3292 1.389 . S
C3292 C3291 1.389 . S
C3292 C3293 1.387 . S
C3293 H3278 0.930 . S
C3293 C3288 1.390 . S
C3293 C3292 1.387 . S
H3294 C3306 0.930 . S
H3295 C3308 0.867 1_545 S
H3296 C3309 0.930 . S
H3297 C3313 0.959 . S
H3298 C3313 0.959 . S
H3299 C3313 0.961 . S
H3300 C3314 0.960 . S
H3301 C3314 0.961 . S
H3302 C3314 0.959 . S
H3303 C3317 0.929 . S
H3304 C3318 0.931 . S
H3305 C3320 0.930 . S
C3306 H3294 0.930 . S
C3306 C3307 1.399 . S
C3306 C3311 1.399 . S
C3307 C3306 1.399 . S
C3307 C3308 1.376 . S
C3308 H3295 0.867 1_565 S
C3308 C3307 1.376 . S
C3308 C3309 1.388 . S
C3309 H3296 0.930 . S
C3309 C3308 1.388 . S
C3309 C3310 1.390 . S
C3310 C3309 1.390 . S
C3310 C3311 1.394 . S
C3310 C3316 1.465 . S
C3311 C3306 1.399 . S
C3311 C3310 1.394 . S
C3311 C3312 1.516 . S
C3312 C3311 1.516 . S
C3312 C3313 1.502 . S
C3312 C3314 1.561 . S
C3312 C3315 1.526 . S
C3313 H3297 0.959 . S
C3313 H3298 0.959 . S
C3313 H3299 0.961 . S
C3313 C3312 1.502 . S
C3314 H3300 0.960 . S
C3314 H3301 0.961 . S
C3314 H3302 0.959 . S
C3314 C3312 1.561 . S
C3315 C3312 1.526 . S
C3315 C3316 1.396 . S
C3315 C3320 1.390 . S
C3316 C3310 1.465 . S
C3316 C3315 1.396 . S
C3316 C3317 1.399 . S
C3317 H3303 0.929 . S
C3317 C3316 1.399 . S
C3317 C3318 1.385 . S
C3318 H3304 0.931 . S
C3318 C3317 1.385 . S
C3318 C3319 1.389 . S
C3319 C3318 1.389 . S
C3319 C3320 1.387 . S
C3320 H3305 0.930 . S
C3320 C3315 1.390 . S
C3320 C3319 1.387 . S
H3321 C3333 0.930 . S
H3322 C3335 0.930 . S
H3323 C3336 0.930 . S
H3324 C3340 0.959 . S
H3325 C3340 0.959 . S
H3326 C3340 0.961 . S
H3327 C3341 0.960 . S
H3328 C3341 0.961 . S
H3329 C3341 0.959 . S
H3330 C3344 0.929 . S
H3331 C3345 0.931 . S
H3332 C3347 0.930 . S
C3333 H3321 0.930 . S
C3333 C3334 1.399 . S
C3333 C3338 1.399 . S
C3334 C3333 1.399 . S
C3334 C3335 1.376 . S
C3335 H3322 0.930 . S
C3335 C3334 1.376 . S
C3335 C3336 1.388 . S
C3336 H3323 0.930 . S
C3336 C3335 1.388 . S
C3336 C3337 1.390 . S
C3337 C3336 1.390 . S
C3337 C3338 1.394 . S
C3337 C3343 1.465 . S
C3338 C3333 1.399 . S
C3338 C3337 1.394 . S
C3338 C3339 1.516 . S
C3339 C3338 1.516 . S
C3339 C3340 1.502 . S
C3339 C3341 1.561 . S
C3339 C3342 1.526 . S
C3340 H3324 0.959 . S
C3340 H3325 0.959 . S
C3340 H3326 0.961 . S
C3340 C3339 1.502 . S
C3341 H3327 0.960 . S
C3341 H3328 0.961 . S
C3341 H3329 0.959 . S
C3341 C3339 1.561 . S
C3342 C3339 1.526 . S
C3342 C3343 1.396 . S
C3342 C3347 1.390 . S
C3343 C3337 1.465 . S
C3343 C3342 1.396 . S
C3343 C3344 1.399 . S
C3344 H3330 0.929 . S
C3344 C3343 1.399 . S
C3344 C3345 1.385 . S
C3345 H3331 0.931 . S
C3345 C3344 1.385 . S
C3345 C3346 1.389 . S
C3346 C3345 1.389 . S
C3346 C3347 1.387 . S
C3347 H3332 0.930 . S
C3347 C3342 1.390 . S
C3347 C3346 1.387 . S
H3348 C3360 0.930 . S
H3349 C3362 0.930 . S
H3350 C3363 0.930 . S
H3351 C3367 0.959 . S
H3352 C3367 0.959 . S
H3353 C3367 0.961 . S
H3354 C3368 0.960 . S
H3355 C3368 0.961 . S
H3356 C3368 0.959 . S
H3357 C3371 0.929 . S
H3358 C3372 0.931 . S
H3359 C3374 0.930 . S
C3360 H3348 0.930 . S
C3360 C3361 1.399 . S
C3360 C3365 1.399 . S
C3361 C3360 1.399 . S
C3361 C3362 1.376 . S
C3362 H3349 0.930 . S
C3362 C3361 1.376 . S
C3362 C3363 1.388 . S
C3363 H3350 0.930 . S
C3363 C3362 1.388 . S
C3363 C3364 1.390 . S
C3364 C3363 1.390 . S
C3364 C3365 1.394 . S
C3364 C3370 1.465 . S
C3365 C3360 1.399 . S
C3365 C3364 1.394 . S
C3365 C3366 1.516 . S
C3366 C3365 1.516 . S
C3366 C3367 1.502 . S
C3366 C3368 1.561 . S
C3366 C3369 1.526 . S
C3367 H3351 0.959 . S
C3367 H3352 0.959 . S
C3367 H3353 0.961 . S
C3367 C3366 1.502 . S
C3368 H3354 0.960 . S
C3368 H3355 0.961 . S
C3368 H3356 0.959 . S
C3368 C3366 1.561 . S
C3369 C3366 1.526 . S
C3369 C3370 1.396 . S
C3369 C3374 1.390 . S
C3370 C3364 1.465 . S
C3370 C3369 1.396 . S
C3370 C3371 1.399 . S
C3371 H3357 0.929 . S
C3371 C3370 1.399 . S
C3371 C3372 1.385 . S
C3372 H3358 0.931 . S
C3372 C3371 1.385 . S
C3372 C3373 1.389 . S
C3373 C3372 1.389 . S
C3373 C3374 1.387 . S
C3374 H3359 0.930 . S
C3374 C3369 1.390 . S
C3374 C3373 1.387 . S
H3375 C3387 0.930 . S
H3376 C3389 0.930 . S
H3377 C3390 0.930 . S
H3378 C3394 0.959 . S
H3379 C3394 0.959 . S
H3380 C3394 0.961 . S
H3381 C3395 0.960 . S
H3382 C3395 0.961 . S
H3383 C3395 0.959 . S
H3384 C3398 0.929 . S
H3385 C3399 0.931 . S
H3386 C3401 0.930 . S
C3387 H3375 0.930 . S
C3387 C3388 1.399 . S
C3387 C3392 1.399 . S
C3388 C3387 1.399 . S
C3388 C3389 1.376 . S
C3389 H3376 0.930 . S
C3389 C3388 1.376 . S
C3389 C3390 1.388 . S
C3390 H3377 0.930 . S
C3390 C3389 1.388 . S
C3390 C3391 1.390 . S
C3391 C3390 1.390 . S
C3391 C3392 1.394 . S
C3391 C3397 1.465 . S
C3392 C3387 1.399 . S
C3392 C3391 1.394 . S
C3392 C3393 1.516 . S
C3393 C3392 1.516 . S
C3393 C3394 1.502 . S
C3393 C3395 1.561 . S
C3393 C3396 1.526 . S
C3394 H3378 0.959 . S
C3394 H3379 0.959 . S
C3394 H3380 0.961 . S
C3394 C3393 1.502 . S
C3395 H3381 0.960 . S
C3395 H3382 0.961 . S
C3395 H3383 0.959 . S
C3395 C3393 1.561 . S
C3396 C3393 1.526 . S
C3396 C3397 1.396 . S
C3396 C3401 1.390 . S
C3397 C3391 1.465 . S
C3397 C3396 1.396 . S
C3397 C3398 1.399 . S
C3398 H3384 0.929 . S
C3398 C3397 1.399 . S
C3398 C3399 1.385 . S
C3399 H3385 0.931 . S
C3399 C3398 1.385 . S
C3399 C3400 1.389 . S
C3400 C3399 1.389 . S
C3400 C3401 1.387 . S
C3401 H3386 0.930 . S
C3401 C3396 1.390 . S
C3401 C3400 1.387 . S
H3402 C3414 0.930 . S
H3403 C3416 0.930 1_655 S
H3404 C3417 0.930 . S
H3405 C3421 0.959 . S
H3406 C3421 0.959 . S
H3407 C3421 0.961 . S
H3408 C3422 0.960 . S
H3409 C3422 0.961 . S
H3410 C3422 0.959 . S
H3411 C3425 0.929 . S
H3412 C3426 0.931 . S
H3413 C3428 0.930 . S
C3414 H3402 0.930 . S
C3414 C3415 1.399 . S
C3414 C3419 1.399 . S
C3415 C3414 1.399 . S
C3415 C3416 1.376 . S
C3416 H3403 0.930 1_455 S
C3416 C3415 1.376 . S
C3416 C3417 1.388 . S
C3417 H3404 0.930 . S
C3417 C3416 1.388 . S
C3417 C3418 1.390 . S
C3418 C3417 1.390 . S
C3418 C3419 1.394 . S
C3418 C3424 1.465 . S
C3419 C3414 1.399 . S
C3419 C3418 1.394 . S
C3419 C3420 1.516 . S
C3420 C3419 1.516 . S
C3420 C3421 1.502 . S
C3420 C3422 1.561 . S
C3420 C3423 1.526 . S
C3421 H3405 0.959 . S
C3421 H3406 0.959 . S
C3421 H3407 0.961 . S
C3421 C3420 1.502 . S
C3422 H3408 0.960 . S
C3422 H3409 0.961 . S
C3422 H3410 0.959 . S
C3422 C3420 1.561 . S
C3423 C3420 1.526 . S
C3423 C3424 1.396 . S
C3423 C3428 1.390 . S
C3424 C3418 1.465 . S
C3424 C3423 1.396 . S
C3424 C3425 1.399 . S
C3425 H3411 0.929 . S
C3425 C3424 1.399 . S
C3425 C3426 1.385 . S
C3426 H3412 0.931 . S
C3426 C3425 1.385 . S
C3426 C3427 1.389 . S
C3427 C3426 1.389 . S
C3427 C3428 1.387 . S
C3428 H3413 0.930 . S
C3428 C3423 1.390 . S
C3428 C3427 1.387 . S
H3429 C3441 0.930 . S
H3430 C3443 0.930 . S
H3431 C3444 0.930 . S
H3432 C3448 0.959 . S
H3433 C3448 0.959 . S
H3434 C3448 0.961 . S
H3435 C3449 0.960 . S
H3436 C3449 0.961 . S
H3437 C3449 0.959 . S
H3438 C3452 0.929 1_455 S
H3439 C3453 0.931 . S
H3440 C3455 0.930 . S
C3441 H3429 0.930 . S
C3441 C3442 1.399 . S
C3441 C3446 1.399 . S
C3442 C3441 1.399 . S
C3442 C3443 1.376 . S
C3443 H3430 0.930 . S
C3443 C3442 1.376 . S
C3443 C3444 1.388 . S
C3444 H3431 0.930 . S
C3444 C3443 1.388 . S
C3444 C3445 1.390 . S
C3445 C3444 1.390 . S
C3445 C3446 1.394 . S
C3445 C3451 1.465 . S
C3446 C3441 1.399 . S
C3446 C3445 1.394 . S
C3446 C3447 1.516 . S
C3447 C3446 1.516 . S
C3447 C3448 1.502 . S
C3447 C3449 1.561 . S
C3447 C3450 1.526 . S
C3448 H3432 0.959 . S
C3448 H3433 0.959 . S
C3448 H3434 0.961 . S
C3448 C3447 1.502 . S
C3449 H3435 0.960 . S
C3449 H3436 0.961 . S
C3449 H3437 0.959 . S
C3449 C3447 1.561 . S
C3450 C3447 1.526 . S
C3450 C3451 1.396 . S
C3450 C3455 1.390 . S
C3451 C3445 1.465 . S
C3451 C3450 1.396 . S
C3451 C3452 1.399 . S
C3452 H3438 0.929 1_655 S
C3452 C3451 1.399 . S
C3452 C3453 1.385 1_655 S
C3453 H3439 0.931 . S
C3453 C3452 1.385 1_455 S
C3453 C3454 1.389 1_455 S
C3454 C3453 1.389 1_655 S
C3454 C3455 1.387 . S
C3455 H3440 0.930 . S
C3455 C3450 1.390 . S
C3455 C3454 1.387 . S
H3456 C3468 0.930 . S
H3457 C3470 0.930 . S
H3458 C3471 0.930 . S
H3459 C3475 0.959 . S
H3460 C3475 0.959 . S
H3461 C3475 0.961 . S
H3462 C3476 0.960 . S
H3463 C3476 0.961 . S
H3464 C3476 0.959 . S
H3465 C3479 0.929 . S
H3466 C3480 0.931 . S
H3467 C3482 0.930 . S
C3468 H3456 0.930 . S
C3468 C3469 1.399 . S
C3468 C3473 1.399 . S
C3469 C3468 1.399 . S
C3469 C3470 1.376 . S
C3470 H3457 0.930 . S
C3470 C3469 1.376 . S
C3470 C3471 1.388 . S
C3471 H3458 0.930 . S
C3471 C3470 1.388 . S
C3471 C3472 1.390 . S
C3472 C3471 1.390 . S
C3472 C3473 1.394 . S
C3472 C3478 1.465 . S
C3473 C3468 1.399 . S
C3473 C3472 1.394 . S
C3473 C3474 1.516 . S
C3474 C3473 1.516 . S
C3474 C3475 1.502 . S
C3474 C3476 1.561 . S
C3474 C3477 1.526 . S
C3475 H3459 0.959 . S
C3475 H3460 0.959 . S
C3475 H3461 0.961 . S
C3475 C3474 1.502 . S
C3476 H3462 0.960 . S
C3476 H3463 0.961 . S
C3476 H3464 0.959 . S
C3476 C3474 1.561 . S
C3477 C3474 1.526 . S
C3477 C3478 1.396 . S
C3477 C3482 1.390 . S
C3478 C3472 1.465 . S
C3478 C3477 1.396 . S
C3478 C3479 1.399 . S
C3479 H3465 0.929 . S
C3479 C3478 1.399 . S
C3479 C3480 1.385 . S
C3480 H3466 0.931 . S
C3480 C3479 1.385 . S
C3480 C3481 1.389 . S
C3481 C3480 1.389 . S
C3481 C3482 1.387 . S
C3482 H3467 0.930 . S
C3482 C3477 1.390 . S
C3482 C3481 1.387 . S
H3483 C3495 0.930 . S
H3484 C3497 0.930 . S
H3485 C3498 0.930 . S
H3486 C3502 0.959 1_565 S
H3487 C3502 0.959 . S
H3488 C3502 0.961 . S
H3489 C3503 0.960 . S
H3490 C3503 0.961 . S
H3491 C3503 0.959 . S
H3492 C3506 0.929 . S
H3493 C3507 0.931 . S
H3494 C3509 0.930 . S
C3495 H3483 0.930 . S
C3495 C3496 1.399 . S
C3495 C3500 1.399 . S
C3496 C3495 1.399 . S
C3496 C3497 1.376 . S
C3497 H3484 0.930 . S
C3497 C3496 1.376 . S
C3497 C3498 1.388 . S
C3498 H3485 0.930 . S
C3498 C3497 1.388 . S
C3498 C3499 1.390 . S
C3499 C3498 1.390 . S
C3499 C3500 1.394 . S
C3499 C3505 1.465 . S
C3500 C3495 1.399 . S
C3500 C3499 1.394 . S
C3500 C3501 1.516 . S
C3501 C3500 1.516 . S
C3501 C3502 1.502 . S
C3501 C3503 1.561 . S
C3501 C3504 1.526 . S
C3502 H3486 0.959 1_545 S
C3502 H3487 0.959 . S
C3502 H3488 0.961 . S
C3502 C3501 1.502 . S
C3503 H3489 0.960 . S
C3503 H3490 0.961 . S
C3503 H3491 0.959 . S
C3503 C3501 1.561 . S
C3504 C3501 1.526 . S
C3504 C3505 1.396 . S
C3504 C3509 1.390 . S
C3505 C3499 1.465 . S
C3505 C3504 1.396 . S
C3505 C3506 1.399 . S
C3506 H3492 0.929 . S
C3506 C3505 1.399 . S
C3506 C3507 1.385 . S
C3507 H3493 0.931 . S
C3507 C3506 1.385 . S
C3507 C3508 1.389 . S
C3508 C3507 1.389 . S
C3508 C3509 1.387 . S
C3509 H3494 0.930 . S
C3509 C3504 1.390 . S
C3509 C3508 1.387 . S
C1579 C8 1.083 . S
C1591 C963 1.176 . S
C1606 C18 1.494 . S
C1618 C1043 1.501 . S
C1645 C1111 1.291 . S
C1633 C31 1.313 . S
C1660 C34 1.672 1_556 S
C1672 C1191 1.681 . S
C1687 C5 1.493 . S
C1699 C1265 1.527 . S
C1714 C21 1.569 . S
C1726 C1333 1.549 . S
C1741 C47 1.014 . S
C1753 C1259 1.119 . S
C1780 C1339 1.409 . S
C1768 C57 1.391 . S
C1807 C1185 1.282 . S
C1795 C70 1.288 1_556 S
C1822 C73 1.641 . S
C1834 C1117 1.671 1_545 S
C1861 C969 1.492 . S
C1849 C44 1.465 . S
C1876 C60 1.382 . S
C1888 C1037 1.440 . S
C1903 C86 1.350 . S
C1915 C1407 1.301 . S
C1930 C96 1.540 . S
C1942 C1487 1.532 . S
C1969 C1555 1.428 . S
C1957 C109 1.520 . S
C1984 C112 1.924 . S
C1996 C303 1.847 . S
C2011 C83 1.663 . S
C2023 C377 1.639 . S
C2038 C99 1.607 . S
C2050 C445 1.516 . S
C2065 C125 1.105 . S
C2077 C371 1.021 . S
C2092 C135 1.433 . S
C2104 C451 1.455 . S
C2131 C297 1.392 . S
C2119 C148 1.335 . S
C2158 C1561 1.859 . S
C2146 C151 1.855 . S
C2185 C1413 1.522 . S
C2173 C122 1.460 . S
C2212 C1481 1.457 . S
C2200 C138 1.486 . S
C2227 C164 1.228 . S
C2239 C519 1.269 . S
C2254 C174 1.547 . S
C2266 C599 1.540 . S
C2281 C187 1.526 . S
C2293 C667 1.472 . S
C2308 C190 1.988 . S
C2320 C747 1.956 . S
C2347 C821 1.628 . S
C2335 C161 1.665 . S
C2374 C889 1.611 . S
C2362 C177 1.653 . S
C2401 C815 1.147 . S
C2389 C203 1.228 . S
C2428 C895 1.424 . S
C2416 C213 1.346 . S
C2443 C226 1.354 . S
C2455 C741 1.349 . S
C2482 C673 1.767 . S
C2470 C229 1.764 . S
C2497 C200 1.529 . S
C2509 C525 1.566 . S
C2536 C593 1.409 . S
C2524 C216 1.444 . S
C2563 C273 1.852 . S
C2551 C0 1.851 . S
C2578 C23 1.379 . S
C2590 C347 1.343 . S
C2617 C433 1.484 . S
C2605 C36 1.508 . S
C2644 C507 1.242 . S
C2632 C26 1.142 . S
C2671 C569 1.554 . S
C2659 C10 1.550 1_556 S
C2698 C655 1.467 . S
C2686 C13 1.474 . S
C2713 C39 1.994 . S
C2725 C643 2.011 . S
C2740 C62 1.591 . S
C2752 C495 1.509 . S
C2767 C75 1.756 . S
C2779 C581 1.655 . S
C2794 C65 1.463 . S
C2806 C359 1.425 . S
C2833 C421 1.650 . S
C2821 C49 1.780 . S
C2848 C52 1.676 . S
C2860 C285 1.706 . S
C2887 C717 1.816 . S
C2875 C78 1.754 . S
C2902 C101 1.497 1_545 S
C2914 C791 1.490 . S
C2929 C114 1.540 . S
C2941 C877 1.537 . S
C2968 C951 0.961 . S
C2956 C104 1.035 . S
C2983 C88 1.449 . S
C2995 C1013 1.421 . S
C3010 C91 1.211 . S
C3022 C1099 1.266 . S
C3037 C117 1.702 . S
C3049 C1087 1.594 1_565 S
C3064 C140 1.286 . S
C3076 C939 1.196 . S
C3103 C1025 1.553 . S
C3091 C153 1.649 . S
C3118 C143 1.442 . S
C3130 C803 1.387 . S
C3145 C127 1.789 1_545 S
C3157 C865 1.725 . S
C3184 C729 1.740 . S
C3172 C130 1.718 . S
C3211 C1161 1.633 . S
C3199 C156 1.668 . S
C3226 C179 1.157 . S
C3238 C1235 1.177 . S
C3253 C192 1.432 . S
C3265 C1321 1.393 . S
C3292 C1395 1.161 . S
C3280 C182 1.144 . S
C3319 C1457 1.572 . S
C3307 C166 1.593 1_565 S
C3334 C169 1.505 . S
C3346 C1543 1.573 . S
C3361 C195 1.959 . S
C3373 C1531 1.952 . S
C3388 C218 1.715 1_565 S
C3400 C1383 1.581 . S
C3427 C1469 1.697 . S
C3415 C231 1.743 1_455 S
C3454 C1247 1.075 . S
C3442 C221 1.021 . S
C3481 C1309 1.602 . S
C3469 C205 1.649 . S
C3496 C208 1.372 . S
C3508 C1173 1.399 1_545 S
