# Generated by pormake.
# Topology eea, (3,6)-cn, num edge types: 1
# Building blocks:
#     Node 0, Type 0, BuildingBlock: CUQRIR_clean_linker_1, # of connection points: 3
#     Node 1, Type 0, BuildingBlock: CUQRIR_clean_linker_1, # of connection points: 3
#     Node 2, Type 0, BuildingBlock: CUQRIR_clean_linker_1, # of connection points: 3
#     Node 3, Type 0, BuildingBlock: CUQRIR_clean_linker_1, # of connection points: 3
#     Node 4, Type 0, BuildingBlock: CUQRIR_clean_linker_1, # of connection points: 3
#     Node 5, Type 0, BuildingBlock: CUQRIR_clean_linker_1, # of connection points: 3
#     Node 6, Type 0, BuildingBlock: CUQRIR_clean_linker_1, # of connection points: 3
#     Node 7, Type 0, BuildingBlock: CUQRIR_clean_linker_1, # of connection points: 3
#     Node 8, Type 0, BuildingBlock: CUQRIR_clean_linker_1, # of connection points: 3
#     Node 9, Type 0, BuildingBlock: CUQRIR_clean_linker_1, # of connection points: 3
#     Node 10, Type 0, BuildingBlock: CUQRIR_clean_linker_1, # of connection points: 3
#     Node 11, Type 0, BuildingBlock: CUQRIR_clean_linker_1, # of connection points: 3
#     Node 12, Type 0, BuildingBlock: CUQRIR_clean_linker_1, # of connection points: 3
#     Node 13, Type 0, BuildingBlock: CUQRIR_clean_linker_1, # of connection points: 3
#     Node 14, Type 0, BuildingBlock: CUQRIR_clean_linker_1, # of connection points: 3
#     Node 15, Type 0, BuildingBlock: CUQRIR_clean_linker_1, # of connection points: 3
#     Node 16, Type 0, BuildingBlock: CUQRIR_clean_linker_1, # of connection points: 3
#     Node 17, Type 0, BuildingBlock: CUQRIR_clean_linker_1, # of connection points: 3
#     Node 18, Type 1, BuildingBlock: NUHQIS_clean_sbu_0, # of connection points: 6
#     Node 19, Type 1, BuildingBlock: NUHQIS_clean_sbu_0, # of connection points: 6
#     Node 20, Type 1, BuildingBlock: NUHQIS_clean_sbu_0, # of connection points: 6
#     Node 21, Type 1, BuildingBlock: NUHQIS_clean_sbu_0, # of connection points: 6
#     Node 22, Type 1, BuildingBlock: NUHQIS_clean_sbu_0, # of connection points: 6
#     Node 23, Type 1, BuildingBlock: NUHQIS_clean_sbu_0, # of connection points: 6
#     Node 24, Type 1, BuildingBlock: NUHQIS_clean_sbu_0, # of connection points: 6
#     Node 25, Type 1, BuildingBlock: NUHQIS_clean_sbu_0, # of connection points: 6
#     Node 26, Type 1, BuildingBlock: NUHQIS_clean_sbu_0, # of connection points: 6
#     Edge 27, Type (0, 1), BuildingBlock: OJICUG_clean_linker_0, # of connection points: 2
#     Edge 28, Type (0, 1), BuildingBlock: OJICUG_clean_linker_0, # of connection points: 2
#     Edge 29, Type (0, 1), BuildingBlock: OJICUG_clean_linker_0, # of connection points: 2
#     Edge 30, Type (0, 1), BuildingBlock: OJICUG_clean_linker_0, # of connection points: 2
#     Edge 31, Type (0, 1), BuildingBlock: OJICUG_clean_linker_0, # of connection points: 2
#     Edge 32, Type (0, 1), BuildingBlock: OJICUG_clean_linker_0, # of connection points: 2
#     Edge 33, Type (0, 1), BuildingBlock: OJICUG_clean_linker_0, # of connection points: 2
#     Edge 34, Type (0, 1), BuildingBlock: OJICUG_clean_linker_0, # of connection points: 2
#     Edge 35, Type (0, 1), BuildingBlock: OJICUG_clean_linker_0, # of connection points: 2
#     Edge 36, Type (0, 1), BuildingBlock: OJICUG_clean_linker_0, # of connection points: 2
#     Edge 37, Type (0, 1), BuildingBlock: OJICUG_clean_linker_0, # of connection points: 2
#     Edge 38, Type (0, 1), BuildingBlock: OJICUG_clean_linker_0, # of connection points: 2
#     Edge 39, Type (0, 1), BuildingBlock: OJICUG_clean_linker_0, # of connection points: 2
#     Edge 40, Type (0, 1), BuildingBlock: OJICUG_clean_linker_0, # of connection points: 2
#     Edge 41, Type (0, 1), BuildingBlock: OJICUG_clean_linker_0, # of connection points: 2
#     Edge 42, Type (0, 1), BuildingBlock: OJICUG_clean_linker_0, # of connection points: 2
#     Edge 43, Type (0, 1), BuildingBlock: OJICUG_clean_linker_0, # of connection points: 2
#     Edge 44, Type (0, 1), BuildingBlock: OJICUG_clean_linker_0, # of connection points: 2
#     Edge 45, Type (0, 1), BuildingBlock: OJICUG_clean_linker_0, # of connection points: 2
#     Edge 46, Type (0, 1), BuildingBlock: OJICUG_clean_linker_0, # of connection points: 2
#     Edge 47, Type (0, 1), BuildingBlock: OJICUG_clean_linker_0, # of connection points: 2
#     Edge 48, Type (0, 1), BuildingBlock: OJICUG_clean_linker_0, # of connection points: 2
#     Edge 49, Type (0, 1), BuildingBlock: OJICUG_clean_linker_0, # of connection points: 2
#     Edge 50, Type (0, 1), BuildingBlock: OJICUG_clean_linker_0, # of connection points: 2
#     Edge 51, Type (0, 1), BuildingBlock: OJICUG_clean_linker_0, # of connection points: 2
#     Edge 52, Type (0, 1), BuildingBlock: OJICUG_clean_linker_0, # of connection points: 2
#     Edge 53, Type (0, 1), BuildingBlock: OJICUG_clean_linker_0, # of connection points: 2
#     Edge 54, Type (0, 1), BuildingBlock: OJICUG_clean_linker_0, # of connection points: 2
#     Edge 55, Type (0, 1), BuildingBlock: OJICUG_clean_linker_0, # of connection points: 2
#     Edge 56, Type (0, 1), BuildingBlock: OJICUG_clean_linker_0, # of connection points: 2
#     Edge 57, Type (0, 1), BuildingBlock: OJICUG_clean_linker_0, # of connection points: 2
#     Edge 58, Type (0, 1), BuildingBlock: OJICUG_clean_linker_0, # of connection points: 2
#     Edge 59, Type (0, 1), BuildingBlock: OJICUG_clean_linker_0, # of connection points: 2
#     Edge 60, Type (0, 1), BuildingBlock: OJICUG_clean_linker_0, # of connection points: 2
#     Edge 61, Type (0, 1), BuildingBlock: OJICUG_clean_linker_0, # of connection points: 2
#     Edge 62, Type (0, 1), BuildingBlock: OJICUG_clean_linker_0, # of connection points: 2
#     Edge 63, Type (0, 1), BuildingBlock: OJICUG_clean_linker_0, # of connection points: 2
#     Edge 64, Type (0, 1), BuildingBlock: OJICUG_clean_linker_0, # of connection points: 2
#     Edge 65, Type (0, 1), BuildingBlock: OJICUG_clean_linker_0, # of connection points: 2
#     Edge 66, Type (0, 1), BuildingBlock: OJICUG_clean_linker_0, # of connection points: 2
#     Edge 67, Type (0, 1), BuildingBlock: OJICUG_clean_linker_0, # of connection points: 2
#     Edge 68, Type (0, 1), BuildingBlock: OJICUG_clean_linker_0, # of connection points: 2
#     Edge 69, Type (0, 1), BuildingBlock: OJICUG_clean_linker_0, # of connection points: 2
#     Edge 70, Type (0, 1), BuildingBlock: OJICUG_clean_linker_0, # of connection points: 2
#     Edge 71, Type (0, 1), BuildingBlock: OJICUG_clean_linker_0, # of connection points: 2
#     Edge 72, Type (0, 1), BuildingBlock: OJICUG_clean_linker_0, # of connection points: 2
#     Edge 73, Type (0, 1), BuildingBlock: OJICUG_clean_linker_0, # of connection points: 2
#     Edge 74, Type (0, 1), BuildingBlock: OJICUG_clean_linker_0, # of connection points: 2
#     Edge 75, Type (0, 1), BuildingBlock: OJICUG_clean_linker_0, # of connection points: 2
#     Edge 76, Type (0, 1), BuildingBlock: OJICUG_clean_linker_0, # of connection points: 2
#     Edge 77, Type (0, 1), BuildingBlock: OJICUG_clean_linker_0, # of connection points: 2
#     Edge 78, Type (0, 1), BuildingBlock: OJICUG_clean_linker_0, # of connection points: 2
#     Edge 79, Type (0, 1), BuildingBlock: OJICUG_clean_linker_0, # of connection points: 2
#     Edge 80, Type (0, 1), BuildingBlock: OJICUG_clean_linker_0, # of connection points: 2
# Relax obj value: 0.109
# Max RMSD: 0.271
# Mean RMSD: 0.198
data_MOF--net-eea--node1-NUHQIS_clean_sbu_0--node2-CUQRIR_clean_linker_1--edge1-OJICUG_clean_linker_0
_symmetry_space_group_name_H-M    P1
_symmetry_Int_Tables_number       1
_symmetry_cell_setting            triclinic
loop_
_symmetry_equiv_pos_as_xyz
'x, y, z'
_cell_length_a     34.089669
_cell_length_b     35.523412
_cell_length_c     50.690803
_cell_angle_alpha  86.75746
_cell_angle_beta   92.741683
_cell_angle_gamma 118.82793
loop_
_atom_site_label
_atom_site_type_symbol
_atom_site_fract_x
_atom_site_fract_y
_atom_site_fract_z
_atom_type_partial_charge
C0 C 0.21313 0.1016 0.40537 0.0
N1 N 0.2292 0.13664 0.42049 0.0
N2 N 0.2253 0.07279 0.41596 0.0
C3 C 0.18574 0.09545 0.38019 0.0
C4 C 0.24984 0.09164 0.43779 0.0
N5 N 0.25269 0.13061 0.44041 0.0
C6 C 0.27088 0.07203 0.4568 0.0
H7 H 0.1499 0.08117 0.38515 0.0
H8 H 0.18904 0.07335 0.36703 0.0
H9 H 0.19596 0.12669 0.36936 0.0
H10 H 0.30784 0.09075 0.45538 0.0
H11 H 0.26025 0.03813 0.45263 0.0
H12 H 0.26227 0.07393 0.47735 0.0
C13 C 0.90963 0.12096 0.40467 0.0
N14 N 0.93092 0.15414 0.42131 0.0
N15 N 0.87424 0.08741 0.4165 0.0
C16 C 0.92296 0.12178 0.37662 0.0
C17 C 0.87497 0.10101 0.44101 0.0
N18 N 0.90949 0.14127 0.44419 0.0
C19 C 0.84115 0.07519 0.46182 0.0
H20 H 0.91223 0.14182 0.36396 0.0
H21 H 0.90724 0.08947 0.36832 0.0
H22 H 0.95989 0.13624 0.37554 0.0
H23 H 0.82493 0.04026 0.45832 0.0
H24 H 0.815 0.08532 0.4613 0.0
H25 H 0.85712 0.08099 0.48182 0.0
C26 C 0.88551 0.76461 0.40124 0.0
N27 N 0.91151 0.75491 0.41826 0.0
N28 N 0.84515 0.75211 0.41165 0.0
C29 C 0.90035 0.78857 0.37496 0.0
C30 C 0.84714 0.73393 0.43547 0.0
N31 N 0.88721 0.73499 0.43945 0.0
C32 C 0.81111 0.71797 0.45572 0.0
H33 H 0.91532 0.82357 0.37793 0.0
H34 H 0.87181 0.7793 0.36076 0.0
H35 H 0.92566 0.78225 0.36613 0.0
H36 H 0.77908 0.71419 0.44686 0.0
H37 H 0.82215 0.74126 0.47173 0.0
H38 H 0.80552 0.68664 0.46473 0.0
C39 C 0.12735 0.26475 0.66568 0.0
N40 N 0.16013 0.27519 0.64816 0.0
N41 N 0.09819 0.27821 0.65648 0.0
C42 C 0.1218 0.23874 0.69112 0.0
C43 C 0.11501 0.29813 0.63291 0.0
N44 N 0.15305 0.29688 0.62797 0.0
C45 C 0.09153 0.31443 0.61336 0.0
H46 H 0.09825 0.2044 0.6876 0.0
H47 H 0.10754 0.2493 0.70647 0.0
H48 H 0.15428 0.24191 0.6987 0.0
H49 H 0.11487 0.34798 0.60682 0.0
H50 H 0.06178 0.31356 0.62197 0.0
H51 H 0.08104 0.29449 0.59566 0.0
C52 C 0.80238 0.89792 0.65516 0.0
N53 N 0.78627 0.86434 0.63892 0.0
N54 N 0.79393 0.92928 0.6448 0.0
C55 C 0.82996 0.90176 0.68 0.0
C56 C 0.77236 0.91376 0.62152 0.0
N57 N 0.76798 0.87444 0.6178 0.0
C58 C 0.75451 0.9365 0.60263 0.0
H59 H 0.80733 0.8877 0.697 0.0
H60 H 0.85378 0.93592 0.68383 0.0
H61 H 0.8491 0.88407 0.67856 0.0
H62 H 0.78063 0.95641 0.58812 0.0
H63 H 0.74572 0.95776 0.61327 0.0
H64 H 0.72447 0.9133 0.59153 0.0
C65 C 0.11297 0.91334 0.65092 0.0
N66 N 0.09368 0.87727 0.63656 0.0
N67 N 0.1491 0.94523 0.63859 0.0
C68 C 0.09413 0.91908 0.67573 0.0
C69 C 0.15088 0.92754 0.616 0.0
N70 N 0.11713 0.88652 0.61461 0.0
C71 C 0.18671 0.94978 0.59574 0.0
H72 H 0.10285 0.95323 0.67759 0.0
H73 H 0.10857 0.90935 0.69316 0.0
H74 H 0.05715 0.89896 0.67582 0.0
H75 H 0.21891 0.97278 0.60518 0.0
H76 H 0.17619 0.96792 0.58121 0.0
H77 H 0.19197 0.92641 0.58488 0.0
C78 C 0.87822 0.43584 0.73701 0.0
N79 N 0.89329 0.47004 0.75275 0.0
N80 N 0.88813 0.40574 0.74807 0.0
C81 C 0.85306 0.43139 0.7111 0.0
C82 C 0.91019 0.42292 0.77087 0.0
N83 N 0.91372 0.46212 0.77363 0.0
C84 C 0.92697 0.40077 0.79089 0.0
H85 H 0.81684 0.41726 0.71501 0.0
H86 H 0.85713 0.40988 0.69784 0.0
H87 H 0.86451 0.46323 0.70081 0.0
H88 H 0.9317 0.37563 0.78176 0.0
H89 H 0.90205 0.3854 0.80672 0.0
H90 H 0.95909 0.4242 0.80017 0.0
C91 C 0.57791 0.45884 0.73714 0.0
N92 N 0.59957 0.49191 0.75382 0.0
N93 N 0.54268 0.42527 0.74908 0.0
C94 C 0.59075 0.45976 0.70896 0.0
C95 C 0.54391 0.43873 0.77369 0.0
N96 N 0.57855 0.47892 0.77683 0.0
C97 C 0.51044 0.41284 0.79466 0.0
H98 H 0.57993 0.47994 0.69651 0.0
H99 H 0.57476 0.42748 0.7006 0.0
H100 H 0.62764 0.47412 0.70766 0.0
H101 H 0.49411 0.37793 0.79109 0.0
H102 H 0.48433 0.423 0.79444 0.0
H103 H 0.52674 0.41852 0.81456 0.0
C104 C 0.54937 0.09723 0.73503 0.0
N105 N 0.57513 0.08713 0.75201 0.0
N106 N 0.50976 0.08659 0.74586 0.0
C107 C 0.56406 0.12024 0.70848 0.0
C108 C 0.51196 0.06916 0.76992 0.0
N109 N 0.55145 0.06897 0.77366 0.0
C110 C 0.47661 0.0548 0.79048 0.0
H111 H 0.57909 0.15538 0.71096 0.0
H112 H 0.53538 0.1105 0.69434 0.0
H113 H 0.58923 0.11352 0.69985 0.0
H114 H 0.47162 0.02438 0.80064 0.0
H115 H 0.44425 0.05006 0.78157 0.0
H116 H 0.48795 0.07962 0.80557 0.0
C117 C 0.79859 0.60187 0.9993 0.0
N118 N 0.83255 0.61579 0.98214 0.0
N119 N 0.76412 0.60638 0.98827 0.0
C120 C 0.79645 0.5779 0.02523 0.0
C121 C 0.77811 0.6231 0.9637 0.0
N122 N 0.81953 0.62861 0.95986 0.0
C123 C 0.75025 0.63175 0.94285 0.0
H124 H 0.81127 0.55639 0.02346 0.0
H125 H 0.7617 0.55822 0.03211 0.0
H126 H 0.81618 0.60151 0.04045 0.0
H127 H 0.77165 0.66114 0.93079 0.0
H128 H 0.72341 0.63559 0.95187 0.0
H129 H 0.73465 0.60436 0.92946 0.0
C130 C 0.472 0.23102 0.98748 0.0
N131 N 0.45565 0.19672 0.97177 0.0
N132 N 0.4619 0.26131 0.97712 0.0
C133 C 0.50182 0.2369 1.01156 0.0
C134 C 0.43924 0.24452 0.95433 0.0
N135 N 0.43572 0.20547 0.95092 0.0
C136 C 0.41909 0.26552 0.93574 0.0
H137 H 0.4809 0.2242 0.02934 0.0
H138 H 0.52574 0.27144 1.01418 0.0
H139 H 0.52098 0.21926 1.00997 0.0
H140 H 0.44403 0.28568 0.92069 0.0
H141 H 0.40974 0.28626 0.9465 0.0
H142 H 0.38892 0.24115 0.92528 0.0
C143 C 0.7783 0.24406 0.98564 0.0
N144 N 0.75821 0.20954 0.96999 0.0
N145 N 0.81055 0.27855 0.97236 0.0
C146 C 0.76744 0.24349 1.01418 0.0
C147 C 0.80902 0.26384 0.94804 0.0
N148 N 0.77703 0.22218 0.94645 0.0
C149 C 0.83969 0.28985 0.92594 0.0
H150 H 0.73078 0.22434 1.017 0.0
H151 H 0.77932 0.27608 1.02142 0.0
H152 H 0.78405 0.22823 0.02654 0.0
H153 H 0.86832 0.28317 0.92614 0.0
H154 H 0.85281 0.3248 0.92825 0.0
H155 H 0.82201 0.28074 0.9065 0.0
C156 C 0.54776 0.76788 0.07141 0.0
N157 N 0.5626 0.80187 0.08727 0.0
N158 N 0.55053 0.7347 0.08421 0.0
C159 C 0.5263 0.76533 0.04443 0.0
C160 C 0.56714 0.74946 0.10849 0.0
N161 N 0.57392 0.79003 0.1105 0.0
C162 C 0.57976 0.72543 0.12962 0.0
H163 H 0.50865 0.78471 0.04302 0.0
H164 H 0.50202 0.73158 0.0399 0.0
H165 H 0.55268 0.77814 0.02936 0.0
H166 H 0.58813 0.70233 0.12087 0.0
H167 H 0.55101 0.70727 0.14285 0.0
H168 H 0.60883 0.74795 0.14173 0.0
C169 C 0.24629 0.78458 0.07459 0.0
N170 N 0.26765 0.81968 0.08973 0.0
N171 N 0.2081 0.7544 0.08592 0.0
C172 C 0.26486 0.77766 0.05002 0.0
C173 C 0.20702 0.77183 0.10873 0.0
N174 N 0.24324 0.81129 0.11131 0.0
C175 C 0.16984 0.7506 0.1283 0.0
H176 H 0.25352 0.79036 0.03251 0.0
H177 H 0.25273 0.74292 0.04748 0.0
H178 H 0.30202 0.79457 0.05085 0.0
H179 H 0.13775 0.72843 0.1184 0.0
H180 H 0.16506 0.77466 0.1387 0.0
H181 H 0.17869 0.73182 0.14333 0.0
C182 C 0.22442 0.44113 0.07147 0.0
N183 N 0.24984 0.43125 0.08875 0.0
N184 N 0.18902 0.43906 0.08356 0.0
C185 C 0.23335 0.45119 0.04239 0.0
C186 C 0.19338 0.42714 0.10887 0.0
N187 N 0.23054 0.42251 0.11215 0.0
C188 C 0.16178 0.42074 0.13053 0.0
H189 H 0.25518 0.48632 0.03915 0.0
H190 H 0.20167 0.44146 0.03083 0.0
H191 H 0.25081 0.43449 0.03504 0.0
H192 H 0.13451 0.3869 0.13083 0.0
H193 H 0.14663 0.44213 0.12706 0.0
H194 H 0.17911 0.42703 0.15015 0.0
C195 C 0.46529 0.93339 0.33153 0.0
N196 N 0.49667 0.94197 0.31335 0.0
N197 N 0.43353 0.94294 0.32158 0.0
C198 C 0.46291 0.91145 0.3582 0.0
C199 C 0.44725 0.9585 0.29678 0.0
N200 N 0.48565 0.95809 0.29175 0.0
C201 C 0.42126 0.97125 0.27684 0.0
H202 H 0.43895 0.87662 0.35693 0.0
H203 H 0.45058 0.92465 0.37311 0.0
H204 H 0.49617 0.91562 0.36493 0.0
H205 H 0.39837 0.97963 0.28682 0.0
H206 H 0.401 0.94392 0.26392 0.0
H207 H 0.44443 0.99897 0.26419 0.0
C208 C 0.13137 0.56094 0.32373 0.0
N209 N 0.11488 0.52699 0.30775 0.0
N210 N 0.12288 0.59221 0.31321 0.0
C211 C 0.15949 0.56523 0.34839 0.0
C212 C 0.10084 0.5762 0.29011 0.0
N213 N 0.09623 0.53671 0.28665 0.0
C214 C 0.08302 0.59876 0.27105 0.0
H215 H 0.13727 0.55182 0.3656 0.0
H216 H 0.18366 0.59944 0.35182 0.0
H217 H 0.17829 0.54719 0.34701 0.0
H218 H 0.10882 0.6178 0.25618 0.0
H219 H 0.075 0.62075 0.28145 0.0
H220 H 0.05249 0.57543 0.26037 0.0
C221 C 0.44529 0.57764 0.31697 0.0
N222 N 0.42275 0.54252 0.30197 0.0
N223 N 0.48183 0.6085 0.3044 0.0
C224 C 0.43422 0.5802 0.345 0.0
C225 C 0.48101 0.59077 0.28126 0.0
N226 N 0.44542 0.55074 0.27979 0.0
C227 C 0.51421 0.61303 0.25962 0.0
H228 H 0.41182 0.59475 0.3449 0.0
H229 H 0.46502 0.60063 0.35663 0.0
H230 H 0.41692 0.54775 0.3548 0.0
H231 H 0.54179 0.60492 0.26248 0.0
H232 H 0.52859 0.64844 0.26005 0.0
H233 H 0.49834 0.60216 0.23992 0.0
Tb234 Tb 0.50695 0.98213 1.00185 0.0
Eu235 Eu 0.5359 0.03117 0.05971 0.0
C236 C 0.54047 0.94633 0.05157 0.0
C237 C 0.43706 0.94913 0.0501 0.0
C238 C 0.51163 0.96839 0.93015 0.0
C239 C 0.54111 0.96603 0.88771 0.0
C240 C 0.52596 0.94805 0.91298 0.0
C241 C 0.51334 0.00749 0.9217 0.0
C242 C 0.52818 0.02537 0.89636 0.0
C243 C 0.54223 1.00488 0.87888 0.0
C244 C 0.49777 0.94976 0.95722 0.0
O245 O 0.48556 0.03042 0.99553 0.0
O246 O 0.51242 0.07032 0.03333 0.0
O247 O 0.5977 0.0559 0.03481 0.0
O248 O 0.5634 0.04549 0.99411 0.0
C249 C 0.49232 0.06286 1.00981 0.0
O250 O 0.52733 0.0629 0.09308 0.0
O251 O 0.58658 0.05548 0.09129 0.0
O252 O 0.52765 0.96536 0.0677 0.0
O253 O 0.54498 0.95733 0.02626 0.0
O254 O 0.44767 0.94301 0.02641 0.0
O255 O 0.46435 0.98083 0.06504 0.0
C256 C 0.59926 0.06455 1.00923 0.0
O257 O 0.5305 0.95666 0.97395 0.0
O258 O 0.46675 0.95501 0.96794 0.0
C259 C 0.55643 0.04831 0.13334 0.0
C260 C 0.54315 0.01503 0.1862 0.0
C261 C 0.55597 0.05865 0.18031 0.0
C262 C 0.56258 0.07508 0.15416 0.0
C263 C 0.54395 1.00487 0.13903 0.0
C264 C 0.53752 0.98844 0.16517 0.0
C265 C 0.56281 0.06574 0.10581 0.0
H266 H 0.55219 0.94949 0.87515 0.0
H267 H 0.52571 0.91825 0.91921 0.0
H268 H 0.50313 0.02425 0.93468 0.0
H269 H 0.52768 0.05485 0.89032 0.0
H270 H 0.55977 0.07996 0.19583 0.0
H271 H 0.57205 0.10863 0.15017 0.0
H272 H 0.53901 0.98359 0.12324 0.0
H273 H 0.52809 0.95486 0.16888 0.0
Tb274 Tb 0.02666 0.53192 0.99823 0.0
Eu275 Eu 0.98392 0.50599 0.05834 0.0
C276 C 0.07307 0.59311 0.04605 0.0
C277 C 0.06241 0.48894 0.04074 0.0
C278 C 0.0318 0.5432 0.92489 0.0
C279 C 0.03254 0.56463 0.87841 0.0
C280 C 0.05285 0.57199 0.90363 0.0
C281 C 0.98961 0.50734 0.92075 0.0
C282 C 0.96936 0.4998 0.89552 0.0
C283 C 0.9907 0.52817 0.87392 0.0
C284 C 0.05374 0.55155 0.9513 0.0
O285 O 0.97942 0.46301 0.99951 0.0
O286 O 0.93089 0.45954 0.03075 0.0
O287 O 0.96276 0.55196 0.03808 0.0
O288 O 0.96376 0.53288 0.9959 0.0
C289 C 0.94013 0.44319 1.0108 0.0
O290 O 0.95479 0.45832 0.09097 0.0
O291 O 0.96761 0.52354 0.09527 0.0
O292 O 0.05406 0.5602 0.06282 0.0
O293 O 0.06025 0.59032 1.02097 0.0
O294 O 0.07394 0.51982 0.02241 0.0
O295 O 0.02371 0.47215 0.05231 0.0
C296 C 0.95212 0.55199 1.0128 0.0
O297 O 0.04565 0.57607 0.96577 0.0
O298 O 0.05178 0.51848 0.96501 0.0
C299 C 0.97894 0.48733 0.13343 0.0
C300 C 0.01912 0.48923 0.18418 0.0
C301 C 0.97663 0.45509 0.17754 0.0
C302 C 0.9568 0.45423 0.1525 0.0
C303 C 0.02176 0.52091 0.13969 0.0
C304 C 0.04147 0.52197 0.16474 0.0
C305 C 0.95709 0.48648 0.10726 0.0
H306 H 0.04971 0.58749 0.86241 0.0
H307 H 0.08515 0.60017 0.90651 0.0
H308 H 0.97253 0.4849 0.93698 0.0
H309 H 0.93751 0.47105 0.89284 0.0
H310 H 0.95852 0.42899 0.19171 0.0
H311 H 0.92393 0.42777 0.14807 0.0
H312 H 0.03984 0.54676 0.12534 0.0
H313 H 0.07377 0.54926 0.16904 0.0
Tb314 Tb 0.50502 0.48249 0.06265 0.0
Eu315 Eu 0.48849 0.50708 0.99904 0.0
C316 C 0.48946 0.41897 1.01769 0.0
C317 C 0.58302 0.52194 1.02165 0.0
C318 C 0.49157 0.47155 0.13601 0.0
C319 C 0.46932 0.44886 0.18165 0.0
C320 C 0.48538 0.44352 0.15795 0.0
C321 C 0.4799 0.50422 0.13789 0.0
C322 C 0.46402 0.50974 0.16162 0.0
C323 C 0.45918 0.48257 0.18404 0.0
C324 C 0.51122 0.46694 0.1117 0.0
O325 O 0.49162 0.53651 0.06233 0.0
O326 O 0.52032 0.56758 1.02206 0.0
O327 O 0.42791 0.49475 0.02235 0.0
O328 O 0.43452 0.44705 0.05196 0.0
C329 C 0.50986 0.57043 0.04618 0.0
O330 O 0.51204 0.5543 0.96592 0.0
O331 O 0.45477 0.49169 0.96009 0.0
O332 O 0.47139 0.43762 1.0021 0.0
O333 O 0.51077 0.43496 0.04014 0.0
O334 O 0.57143 0.52223 0.04603 0.0
O335 O 0.55353 0.50654 1.00228 0.0
C336 C 0.41149 0.46494 0.04148 0.0
O337 O 0.48384 0.43839 0.09535 0.0
O338 O 0.5389 0.50237 0.09919 0.0
C339 C 0.5039 0.52562 0.92359 0.0
C340 C 0.54287 0.5239 0.87529 0.0
C341 C 0.53131 0.5562 0.87955 0.0
C342 C 0.51214 0.55699 0.90332 0.0
C343 C 0.51595 0.49368 0.91974 0.0
C344 C 0.53503 0.49275 0.89591 0.0
C345 C 0.48417 0.52777 0.94874 0.0
H346 H 0.4654 0.42683 0.19823 0.0
H347 H 0.49372 0.41782 0.15691 0.0
H348 H 0.48406 0.52614 0.1212 0.0
H349 H 0.45722 0.53641 0.16263 0.0
H350 H 0.53724 0.58116 0.86454 0.0
H351 H 0.50373 0.58232 0.90587 0.0
H352 H 0.51042 0.46927 0.9351 0.0
H353 H 0.54265 0.46691 0.89347 0.0
Tb354 Tb 0.17179 0.31737 0.33653 0.0
Eu355 Eu 0.1988 0.3641 0.39388 0.0
C356 C 0.205 0.27945 0.38391 0.0
C357 C 0.10251 0.28308 0.38415 0.0
C358 C 0.17872 0.30845 0.26479 0.0
C359 C 0.20467 0.30425 0.2216 0.0
C360 C 0.18704 0.28533 0.24632 0.0
C361 C 0.18945 0.35129 0.25836 0.0
C362 C 0.20676 0.37014 0.23361 0.0
C363 C 0.21428 0.34682 0.21469 0.0
C364 C 0.16002 0.28805 0.29084 0.0
O365 O 0.16999 0.37719 0.32907 0.0
O366 O 0.1559 0.38823 0.37094 0.0
O367 O 0.24624 0.41219 0.36428 0.0
O368 O 0.24419 0.36223 0.33707 0.0
C369 C 0.15509 0.39484 0.3451 0.0
O370 O 0.18304 0.38775 0.42839 0.0
O371 O 0.24886 0.39328 0.42565 0.0
O372 O 0.22721 0.31825 0.39307 0.0
O373 O 0.17467 0.27052 0.3649 0.0
O374 O 0.10816 0.29012 0.35825 0.0
O375 O 0.13602 0.30177 0.40106 0.0
C376 C 0.26306 0.40198 0.34491 0.0
O377 O 0.18851 0.28642 0.30834 0.0
O378 O 0.13329 0.29955 0.30126 0.0
C379 C 0.2179 0.3797 0.46825 0.0
C380 C 0.20989 0.34997 0.52183 0.0
C381 C 0.24575 0.39 0.51382 0.0
C382 C 0.24961 0.4047 0.48734 0.0
C383 C 0.18306 0.33902 0.47587 0.0
C384 C 0.17901 0.32439 0.50237 0.0
C385 C 0.2209 0.3968 0.44071 0.0
H386 H 0.21056 0.28536 0.20786 0.0
H387 H 0.1797 0.25247 0.25098 0.0
H388 H 0.18392 0.37011 0.27236 0.0
H389 H 0.21289 0.40265 0.22908 0.0
H390 H 0.27062 0.41031 0.52808 0.0
H391 H 0.277 0.43599 0.48184 0.0
H392 H 0.15833 0.31895 0.46145 0.0
H393 H 0.15063 0.2937 0.50769 0.0
Tb394 Tb 0.69671 0.86213 0.33017 0.0
Eu395 Eu 0.65209 0.83838 0.38999 0.0
C396 C 0.7389 0.92747 0.37537 0.0
C397 C 0.73092 0.82107 0.37567 0.0
C398 C 0.705 0.87722 0.25748 0.0
C399 C 0.70498 0.87016 0.21006 0.0
C400 C 0.72675 0.87672 0.23485 0.0
C401 C 0.66165 0.87244 0.25493 0.0
C402 C 0.6399 0.86602 0.23015 0.0
C403 C 0.66093 0.86392 0.20744 0.0
C404 C 0.72647 0.8799 0.28375 0.0
O405 O 0.63054 0.80673 0.32483 0.0
O406 O 0.61933 0.77738 0.36727 0.0
O407 O 0.60421 0.84991 0.36298 0.0
O408 O 0.65631 0.89393 0.3325 0.0
C409 C 0.61047 0.77408 0.34175 0.0
O410 O 0.6271 0.79208 0.42342 0.0
O411 O 0.63133 0.85452 0.42601 0.0
O412 O 0.69974 0.9096 0.38663 0.0
O413 O 0.74748 0.9083 0.35671 0.0
O414 O 0.7191 0.82001 0.35058 0.0
O415 O 0.71738 0.83793 0.39301 0.0
C416 C 0.61688 0.87838 0.34309 0.0
O417 O 0.72689 0.90809 0.29928 0.0
O418 O 0.71496 0.84321 0.29631 0.0
C419 C 0.64639 0.82275 0.46534 0.0
C420 C 0.68799 0.82721 0.5159 0.0
C421 C 0.64629 0.79176 0.50956 0.0
C422 C 0.6258 0.78962 0.48461 0.0
C423 C 0.6882 0.85797 0.47138 0.0
C424 C 0.70862 0.86028 0.49636 0.0
C425 C 0.62474 0.81904 0.43882 0.0
H426 H 0.722 0.86805 0.19317 0.0
H427 H 0.76009 0.88009 0.23645 0.0
H428 H 0.64422 0.87264 0.27221 0.0
H429 H 0.60622 0.86181 0.22887 0.0
H430 H 0.62952 0.7654 0.52381 0.0
H431 H 0.59381 0.76185 0.4803 0.0
H432 H 0.7051 0.8838 0.4568 0.0
H433 H 0.74025 0.88852 0.50049 0.0
Tb434 Tb 0.17615 0.81821 0.39733 0.0
Eu435 Eu 0.15775 0.84133 0.33389 0.0
C436 C 0.15747 0.75288 0.35283 0.0
C437 C 0.25271 0.8572 0.35558 0.0
C438 C 0.16671 0.8093 0.47083 0.0
C439 C 0.14236 0.78561 0.51608 0.0
C440 C 0.1581 0.77994 0.49234 0.0
C441 C 0.15829 0.84394 0.47324 0.0
C442 C 0.14285 0.8498 0.49698 0.0
C443 C 0.13499 0.82094 0.5189 0.0
C444 C 0.18499 0.80376 0.44625 0.0
O445 O 0.16322 0.8726 0.39709 0.0
O446 O 0.19061 0.90234 0.35637 0.0
O447 O 0.09729 0.82914 0.35739 0.0
O448 O 0.10492 0.78348 0.3885 0.0
C449 C 0.18117 0.90608 0.38056 0.0
O450 O 0.18073 0.88831 0.30059 0.0
O451 O 0.12378 0.82544 0.29502 0.0
O452 O 0.13944 0.77161 0.3373 0.0
O453 O 0.18004 0.76954 0.37485 0.0
O454 O 0.24174 0.85836 0.37993 0.0
O455 O 0.22253 0.84017 0.33672 0.0
C456 C 0.08135 0.80017 0.37704 0.0
O457 O 0.15658 0.77489 0.43043 0.0
O458 O 0.21224 0.83874 0.43318 0.0
C459 C 0.17285 0.85921 0.25839 0.0
C460 C 0.21194 0.85719 0.21017 0.0
C461 C 0.20503 0.89207 0.21552 0.0
C462 C 0.1858 0.89301 0.23925 0.0
C463 C 0.18016 0.82457 0.2534 0.0
C464 C 0.19925 0.8235 0.22962 0.0
C465 C 0.15302 0.86144 0.28351 0.0
H466 H 0.13618 0.76235 0.53226 0.0
H467 H 0.16398 0.75277 0.49087 0.0
H468 H 0.1644 0.86698 0.45692 0.0
H469 H 0.13845 0.87784 0.49834 0.0
H470 H 0.21472 0.91894 0.20143 0.0
H471 H 0.18103 0.92036 0.24266 0.0
H472 H 0.1709 0.79816 0.26782 0.0
H473 H 0.20308 0.79563 0.22631 0.0
Tb474 Tb 0.83856 0.65267 0.66804 0.0
Eu475 Eu 0.86838 0.7 0.72574 0.0
C476 C 0.87226 0.61426 0.71555 0.0
C477 C 0.77096 0.62048 0.71628 0.0
C478 C 0.8416 0.64042 0.59616 0.0
C479 C 0.87295 0.63547 0.55501 0.0
C480 C 0.85551 0.61838 0.58005 0.0
C481 C 0.84639 0.68046 0.58692 0.0
C482 C 0.86345 0.69739 0.56181 0.0
C483 C 0.87672 0.67505 0.54531 0.0
C484 C 0.82336 0.62182 0.62266 0.0
O485 O 0.84109 0.71437 0.66055 0.0
O486 O 0.82772 0.72625 0.70235 0.0
O487 O 0.92081 0.74544 0.69755 0.0
O488 O 0.91074 0.69689 0.66623 0.0
C489 C 0.82726 0.73296 0.67653 0.0
O490 O 0.85361 0.72627 0.75941 0.0
O491 O 0.91713 0.7265 0.75844 0.0
O492 O 0.89466 0.65265 0.72521 0.0
O493 O 0.84224 0.60601 0.69639 0.0
O494 O 0.77593 0.62818 0.69038 0.0
O495 O 0.80513 0.638 0.7329 0.0
C496 C 0.93418 0.73469 0.67676 0.0
O497 O 0.85149 0.61887 0.6399 0.0
O498 O 0.79858 0.63549 0.63327 0.0
C499 C 0.88417 0.71501 0.80027 0.0
C500 C 0.8733 0.68342 0.85354 0.0
C501 C 0.91376 0.71895 0.84534 0.0
C502 C 0.91905 0.73458 0.81901 0.0
C503 C 0.84411 0.679 0.80819 0.0
C504 C 0.83864 0.66359 0.83451 0.0
C505 C 0.88987 0.73246 0.77268 0.0
H506 H 0.88333 0.61748 0.54323 0.0
H507 H 0.85277 0.58775 0.58684 0.0
H508 H 0.83651 0.69857 0.59896 0.0
H509 H 0.86492 0.72751 0.55509 0.0
H510 H 0.94142 0.73474 0.85926 0.0
H511 H 0.95039 0.76218 0.81328 0.0
H512 H 0.8167 0.66305 0.79412 0.0
H513 H 0.80667 0.63672 0.83999 0.0
Tb514 Tb 0.36276 0.19901 0.66428 0.0
Eu515 Eu 0.31991 0.17598 0.72424 0.0
C516 C 0.40629 0.26508 0.7089 0.0
C517 C 0.39836 0.15874 0.70971 0.0
C518 C 0.36967 0.21147 0.59116 0.0
C519 C 0.37541 0.23222 0.54438 0.0
C520 C 0.39466 0.23755 0.56986 0.0
C521 C 0.3246 0.181 0.58683 0.0
C522 C 0.30539 0.17545 0.56137 0.0
C523 C 0.33076 0.20048 0.53968 0.0
C524 C 0.39115 0.21553 0.61757 0.0
O525 O 0.29573 0.14445 0.65986 0.0
O526 O 0.28962 0.11475 0.70172 0.0
O527 O 0.27151 0.18738 0.69769 0.0
O528 O 0.32314 0.23156 0.66707 0.0
C529 C 0.27776 0.11118 0.67656 0.0
O530 O 0.29137 0.1288 0.7568 0.0
O531 O 0.30289 0.19353 0.7612 0.0
O532 O 0.36744 0.24724 0.72055 0.0
O533 O 0.41435 0.24577 0.69012 0.0
O534 O 0.38572 0.1572 0.68472 0.0
O535 O 0.38527 0.17583 0.72713 0.0
C536 C 0.28387 0.21597 0.67786 0.0
O537 O 0.3907 0.24395 0.6325 0.0
O538 O 0.38116 0.17962 0.63079 0.0
C539 C 0.31389 0.15713 0.79931 0.0
C540 C 0.35371 0.15768 0.84991 0.0
C541 C 0.31353 0.15995 0.84718 0.0
C542 C 0.29387 0.15961 0.8222 0.0
C543 C 0.35383 0.15463 0.80183 0.0
C544 C 0.37345 0.15481 0.82682 0.0
C545 C 0.29251 0.15645 0.77307 0.0
H546 H 0.39577 0.25252 0.52828 0.0
H547 H 0.42936 0.26155 0.57284 0.0
H548 H 0.30455 0.1607 0.60304 0.0
H549 H 0.27118 0.15029 0.55857 0.0
H550 H 0.29773 0.16315 0.86432 0.0
H551 H 0.26311 0.1616 0.82074 0.0
H552 H 0.36989 0.15255 0.78445 0.0
H553 H 0.40412 0.15267 0.82802 0.0
Tb554 Tb 0.83908 0.15216 0.72967 0.0
Eu555 Eu 0.81976 0.17363 0.66599 0.0
C556 C 0.82299 0.08714 0.68559 0.0
C557 C 0.91579 0.19257 0.68783 0.0
C558 C 0.82948 0.14431 0.80318 0.0
C559 C 0.8088 0.12318 0.84917 0.0
C560 C 0.82449 0.11729 0.82549 0.0
C561 C 0.8173 0.17668 0.80473 0.0
C562 C 0.80184 0.18277 0.82842 0.0
C563 C 0.79784 0.15644 0.85114 0.0
C564 C 0.84819 0.13894 0.77874 0.0
O565 O 0.8247 0.20563 0.72884 0.0
O566 O 0.85166 0.23512 0.68799 0.0
O567 O 0.75916 0.16073 0.68962 0.0
O568 O 0.76798 0.11575 0.72067 0.0
C569 C 0.84237 0.23897 0.7122 0.0
O570 O 0.8411 0.21965 0.63217 0.0
O571 O 0.78552 0.15578 0.6273 0.0
O572 O 0.80361 0.10455 0.67007 0.0
O573 O 0.84527 0.10445 0.70754 0.0
O574 O 0.90449 0.19312 0.71223 0.0
O575 O 0.88585 0.17508 0.66891 0.0
C576 C 0.74378 0.13184 0.70934 0.0
O577 O 0.82031 0.10945 0.76306 0.0
O578 O 0.87475 0.174 0.7655 0.0
C579 C 0.83379 0.18946 0.59039 0.0
C580 C 0.87289 0.18708 0.54226 0.0
C581 C 0.86113 0.21934 0.5462 0.0
C582 C 0.8419 0.22046 0.56988 0.0
C583 C 0.84605 0.15756 0.58683 0.0
C584 C 0.86518 0.15631 0.5631 0.0
C585 C 0.81378 0.19183 0.6154 0.0
H586 H 0.80557 0.1018 0.86601 0.0
H587 H 0.83329 0.09186 0.82471 0.0
H588 H 0.82059 0.19786 0.78776 0.0
H589 H 0.79448 0.20913 0.82909 0.0
H590 H 0.86696 0.24403 0.53102 0.0
H591 H 0.83332 0.24574 0.57217 0.0
H592 H 0.8406 0.13341 0.60236 0.0
H593 H 0.87295 0.1305 0.56092 0.0
C594 C 0.34749 0.87282 0.09817 0.0
C595 C 0.30833 0.85837 0.08238 0.0
H596 H 0.41906 0.91301 0.10024 0.0
C597 C 0.31164 0.87657 0.05657 0.0
H598 H 0.34618 0.85902 0.11791 0.0
C599 C 0.35331 0.90546 0.04595 0.0
C600 C 0.39269 0.91846 0.06127 0.0
H601 H 0.28192 0.86634 0.04404 0.0
H602 H 0.35472 0.91754 0.02571 0.0
C603 C 0.38921 0.90307 0.08783 0.0
C604 C 0.17172 0.491 0.05899 0.0
C605 C 0.15699 0.45102 0.07241 0.0
H606 H 0.15313 0.5341 0.03791 0.0
C607 C 0.11103 0.42291 0.07461 0.0
H608 H 0.20715 0.51334 0.05749 0.0
C609 C 0.08011 0.43495 0.06386 0.0
C610 C 0.09484 0.47502 0.05041 0.0
H611 H 0.09921 0.39175 0.08464 0.0
H612 H 0.04471 0.41293 0.06609 0.0
C613 C 0.1409 0.50278 0.04783 0.0
C614 C 0.5565 0.69073 0.05033 0.0
C615 C 0.53903 0.69343 0.07422 0.0
H616 H 0.56085 0.64971 0.02261 0.0
C617 C 0.51087 0.6555 0.08846 0.0
H618 H 0.57861 0.71968 0.0392 0.0
C619 C 0.501 0.61547 0.07924 0.0
C620 C 0.51886 0.61267 0.05544 0.0
H621 H 0.4966 0.65694 0.10676 0.0
H622 H 0.47939 0.58678 0.09077 0.0
C623 C 0.54638 0.65072 0.04095 0.0
C624 C 0.88873 0.33342 0.98124 0.0
C625 C 0.84273 0.31969 0.9824 0.0
H626 H 0.95552 0.38339 0.98904 0.0
C627 C 0.82878 0.34699 0.99285 0.0
H628 H 0.90021 0.31285 0.97331 0.0
C629 C 0.8603 0.38687 1.00259 0.0
C630 C 0.90638 0.40071 1.00122 0.0
H631 H 0.79348 0.33746 0.99334 0.0
H632 H 0.8487 0.40726 1.01065 0.0
C633 C 0.92025 0.37368 0.99027 0.0
C634 C 0.68562 0.55201 0.98255 0.0
C635 C 0.71892 0.58525 0.99716 0.0
H636 H 0.61665 0.50539 0.97918 0.0
C637 C 0.7082 0.59587 1.02105 0.0
H638 H 0.6937 0.54267 0.96447 0.0
C639 C 0.66415 0.57402 0.02988 0.0
C640 C 0.63048 0.54158 1.01475 0.0
H641 H 0.73392 0.62114 0.03266 0.0
H642 H 0.65622 0.58338 0.04802 0.0
C643 C 0.6418 0.5305 0.99117 0.0
C644 C 0.44293 0.13781 1.00379 0.0
C645 C 0.45628 0.15705 0.97848 0.0
H646 H 0.44549 0.09414 0.03392 0.0
C647 C 0.47743 0.14174 0.96236 0.0
H648 H 0.4261 0.14884 1.01642 0.0
C649 C 0.48749 0.10951 0.97215 0.0
C650 C 0.47754 0.09318 0.99837 0.0
H651 H 0.48848 0.15642 0.94293 0.0
H652 H 0.50526 0.09912 0.95979 0.0
C653 C 0.45427 0.10686 1.01386 0.0
C654 C 0.6799 0.1534 0.96276 0.0
C655 C 0.72063 0.16828 0.97699 0.0
H656 H 0.60952 0.1089 0.96175 0.0
C657 C 0.72207 0.14591 1.00048 0.0
H658 H 0.67786 0.17033 0.94476 0.0
C659 C 0.68289 0.11163 1.01072 0.0
C660 C 0.64154 0.09825 0.9973 0.0
H661 H 0.75329 0.15626 1.01154 0.0
H662 H 0.68487 0.09621 0.02941 0.0
C663 C 0.64076 0.11854 0.97271 0.0
C664 C 0.87245 0.57722 0.97092 0.0
C665 C 0.87011 0.60807 0.98582 0.0
H666 H 0.90027 0.53509 0.96788 0.0
C667 C 0.89791 0.62322 1.00839 0.0
H668 H 0.85027 0.56403 0.954 0.0
C669 C 0.92509 0.6054 1.01711 0.0
C670 C 0.92557 0.57278 1.00299 0.0
H671 H 0.89605 0.64669 1.02026 0.0
H672 H 0.94487 0.61641 0.03517 0.0
C673 C 0.90035 0.56004 0.97926 0.0
C674 C 0.46285 0.30331 1.01459 0.0
C675 C 0.47217 0.30164 0.98809 0.0
H676 H 0.46221 0.3426 0.04512 0.0
C677 C 0.49049 0.33956 0.97222 0.0
H678 H 0.44827 0.27434 0.0271 0.0
C679 C 0.49708 0.378 0.98221 0.0
C680 C 0.48684 0.37943 1.00849 0.0
H681 H 0.49897 0.33925 0.95196 0.0
H682 H 0.50987 0.40663 0.96933 0.0
C683 C 0.47071 0.34213 0.02486 0.0
C684 C 0.16097 0.6756 0.09109 0.0
C685 C 0.1754 0.71372 0.07559 0.0
H686 H 0.11735 0.60765 0.09399 0.0
C687 C 0.15702 0.71187 0.05001 0.0
H688 H 0.17518 0.67622 0.11072 0.0
C689 C 0.12434 0.67264 0.04018 0.0
C690 C 0.10912 0.6345 0.05588 0.0
H691 H 0.16745 0.74098 0.03781 0.0
H692 H 0.11044 0.67239 1.02049 0.0
C693 C 0.12802 0.63642 0.08141 0.0
C694 C 0.32554 0.48208 0.07509 0.0
C695 C 0.2944 0.43996 0.08325 0.0
H696 H 0.38569 0.52263 0.05413 0.0
C697 C 0.30292 0.40614 0.07857 0.0
H698 H 0.31903 0.50846 0.07821 0.0
C699 C 0.34115 0.41421 0.06488 0.0
C700 C 0.37038 0.45596 0.05495 0.0
H701 H 0.27878 0.37339 0.08415 0.0
H702 H 0.34706 0.38763 0.06122 0.0
C703 C 0.36279 0.48996 0.0607 0.0
C704 C 0.54037 0.85659 0.09597 0.0
C705 C 0.56311 0.84207 0.08057 0.0
H706 H 0.51537 0.90114 0.09888 0.0
C707 C 0.58168 0.86436 0.05671 0.0
H708 H 0.52537 0.83961 0.11429 0.0
C709 C 0.57508 0.89874 0.04747 0.0
C710 C 0.55051 0.91212 0.06223 0.0
H711 H 0.59987 0.85397 0.04471 0.0
H712 H 0.58858 0.91434 0.02857 0.0
C713 C 0.53434 0.8915 0.08697 0.0
C714 C 0.01187 0.20121 0.42974 0.0
C715 C 0.97238 0.19307 0.41557 0.0
H716 H 0.08377 0.23566 0.43087 0.0
C717 C 0.97594 0.21752 0.39202 0.0
H718 H 0.01028 0.18247 0.44766 0.0
C719 C 0.01793 0.24653 0.38168 0.0
C720 C 0.05754 0.25301 0.39513 0.0
H721 H 0.94601 0.21226 0.38082 0.0
H722 H 0.01937 0.26359 0.36304 0.0
C723 C 0.05394 0.23113 0.41979 0.0
C724 C 0.78994 0.75414 0.37937 0.0
C725 C 0.81441 0.76728 0.40318 0.0
H726 H 0.74458 0.76161 0.35159 0.0
C727 C 0.81093 0.79754 0.41802 0.0
H728 H 0.79221 0.73052 0.36786 0.0
C729 C 0.78359 0.8149 0.40907 0.0
C730 C 0.7598 0.80264 0.3849 0.0
H731 H 0.83007 0.80823 0.43632 0.0
H732 H 0.78172 0.83845 0.42087 0.0
C733 C 0.76306 0.77201 0.37012 0.0
C734 C 0.1848 0.99386 0.42154 0.0
C735 C 0.21334 0.03098 0.40677 0.0
H736 H 0.15219 0.92506 0.4249 0.0
C737 C 0.23076 0.02699 0.38327 0.0
H738 H 0.17114 0.99657 0.43975 0.0
C739 C 0.21971 0.98635 0.37453 0.0
C740 C 0.19146 0.94898 0.3894 0.0
H741 H 0.25317 0.05543 0.37182 0.0
H742 H 0.23392 0.9843 0.35636 0.0
C743 C 0.17409 0.95317 0.41302 0.0
C744 C 0.56034 0.66411 0.31295 0.0
C745 C 0.5142 0.65034 0.31362 0.0
H746 H 0.62707 0.71461 0.32114 0.0
C747 C 0.50004 0.67795 0.32347 0.0
H748 H 0.57211 0.64324 0.30584 0.0
C749 C 0.53137 0.71836 0.33261 0.0
C750 C 0.57737 0.732 0.33174 0.0
H751 H 0.46472 0.66828 0.32393 0.0
H752 H 0.51974 0.73902 0.34026 0.0
C753 C 0.59167 0.70471 0.32178 0.0
C754 C 0.35507 0.88876 0.31587 0.0
C755 C 0.38822 0.92253 0.33023 0.0
H756 H 0.28638 0.84116 0.3129 0.0
C757 C 0.37735 0.93361 0.35388 0.0
H758 H 0.36328 0.87914 0.29794 0.0
C759 C 0.33342 0.9113 0.3629 0.0
C760 C 0.3 0.87797 0.34816 0.0
H761 H 0.40282 0.95947 0.36524 0.0
H762 H 0.32541 0.92083 0.38094 0.0
C763 C 0.31135 0.86683 0.32464 0.0
C764 C 0.14181 0.47596 0.29863 0.0
C765 C 0.11624 0.48753 0.31376 0.0
H766 H 0.17428 0.43742 0.29672 0.0
C767 C 0.09994 0.46549 0.33806 0.0
H768 H 0.1555 0.49313 0.28014 0.0
C769 C 0.11176 0.43477 0.34806 0.0
C770 C 0.13945 0.42479 0.33366 0.0
H771 H 0.0803 0.47417 0.35007 0.0
H772 H 0.10014 0.41964 0.36734 0.0
C773 C 0.15303 0.44456 0.30839 0.0
C774 C 0.34534 0.51193 0.31696 0.0
C775 C 0.38015 0.50549 0.30833 0.0
H776 H 0.28201 0.48473 0.33572 0.0
C777 C 0.37451 0.46352 0.30958 0.0
H778 H 0.3485 0.54379 0.3158 0.0
C779 C 0.33567 0.42915 0.32058 0.0
C780 C 0.3025 0.43655 0.33101 0.0
H781 H 0.40094 0.4577 0.30328 0.0
H782 H 0.33258 0.3973 0.32204 0.0
C783 C 0.30741 0.47814 0.32849 0.0
C784 C 0.51167 0.88126 0.32026 0.0
C785 C 0.52778 0.92549 0.31504 0.0
H786 H 0.52729 0.83188 0.33437 0.0
C787 C 0.57389 0.95363 0.31664 0.0
H788 H 0.47608 0.85912 0.31895 0.0
C789 C 0.60328 0.938 0.32492 0.0
C790 C 0.58657 0.89428 0.33236 0.0
H791 H 0.58674 0.98784 0.313 0.0
H792 H 0.63874 0.9604 0.32684 0.0
C793 C 0.54071 0.86585 0.32935 0.0
C794 C 0.12531 0.63561 0.35035 0.0
C795 C 0.13487 0.63315 0.32401 0.0
H796 H 0.12625 0.67625 0.38051 0.0
C797 C 0.15533 0.671 0.30815 0.0
H798 H 0.10919 0.60677 0.36286 0.0
C799 C 0.16375 0.71019 0.31791 0.0
C800 C 0.1533 0.71245 0.34401 0.0
H801 H 0.16407 0.67008 0.28804 0.0
H802 H 0.17807 0.73877 0.30499 0.0
C803 C 0.13501 0.67515 0.36041 0.0
C804 C 0.79549 0.03765 0.40467 0.0
C805 C 0.84076 0.04797 0.40513 0.0
H806 H 0.7278 0.99131 0.39506 0.0
C807 C 0.85256 0.01868 0.3953 0.0
H808 H 0.78569 0.05979 0.41212 0.0
C809 C 0.81967 0.98001 0.38482 0.0
C810 C 0.77426 0.96939 0.38479 0.0
H811 H 0.88719 0.02559 0.39603 0.0
H812 H 0.82961 0.95786 0.3775 0.0
C813 C 0.76252 0.99858 0.39488 0.0
C814 C 0.98786 0.8099 0.40732 0.0
C815 C 0.95748 0.76675 0.41397 0.0
H816 H 0.04969 0.85397 0.38889 0.0
C817 C 0.96926 0.73491 0.40974 0.0
H818 H 0.97929 0.83492 0.41049 0.0
C819 C 0.00968 0.74582 0.39762 0.0
C820 C 0.03815 0.78852 0.38892 0.0
H821 H 0.94606 0.70146 0.41438 0.0
H822 H 0.01797 0.72066 0.39421 0.0
C823 C 0.02743 0.82062 0.39443 0.0
C824 C 0.25998 0.21536 0.41362 0.0
C825 C 0.22301 0.17385 0.41542 0.0
H826 H 0.28328 0.28195 0.40232 0.0
C827 C 0.18005 0.16845 0.40933 0.0
H828 H 0.29344 0.22026 0.41814 0.0
C829 C 0.1744 0.20304 0.39945 0.0
C830 C 0.2115 0.24415 0.3963 0.0
H831 H 0.15093 0.137 0.4113 0.0
H832 H 0.14097 0.19752 0.394 0.0
C833 C 0.25421 0.25044 0.40438 0.0
C834 C 0.64445 0.55543 0.72461 0.0
C835 C 0.64104 0.53079 0.74803 0.0
H836 H 0.68769 0.60166 0.69564 0.0
C837 C 0.68061 0.5388 0.76208 0.0
H838 H 0.61446 0.5503 0.71352 0.0
C839 C 0.72261 0.56874 0.75207 0.0
C840 C 0.72607 0.5908 0.72749 0.0
H841 H 0.67911 0.51992 0.77991 0.0
H842 H 0.75249 0.57308 0.76302 0.0
C843 C 0.68638 0.58451 0.71422 0.0
C844 C 0.4775 0.1338 0.75196 0.0
C845 C 0.47982 0.1027 0.73732 0.0
H846 H 0.44988 0.17608 0.75461 0.0
C847 C 0.45498 0.08963 0.71361 0.0
H848 H 0.49693 0.14448 0.77016 0.0
C849 C 0.42891 0.10835 0.70427 0.0
C850 C 0.42678 0.13975 0.71886 0.0
H851 H 0.45625 0.06532 0.70228 0.0
H852 H 0.41008 0.09791 0.68585 0.0
C853 C 0.45093 0.15198 0.74293 0.0
C854 C 0.89292 0.35985 0.71516 0.0
C855 C 0.87565 0.36391 0.73872 0.0
H856 H 0.89547 0.31709 0.68806 0.0
C857 C 0.84708 0.32683 0.75349 0.0
H858 H 0.91569 0.38825 0.70381 0.0
C859 C 0.83585 0.28611 0.7448 0.0
C860 C 0.85288 0.28187 0.72107 0.0
H861 H 0.83363 0.32955 0.77178 0.0
H862 H 0.81385 0.25802 0.75666 0.0
C863 C 0.88137 0.3192 0.70627 0.0
C864 C 0.19959 0.99087 0.67372 0.0
C865 C 0.18034 0.98708 0.64824 0.0
H866 H 0.24511 0.03276 0.70268 0.0
C867 C 0.1927 0.02449 0.63221 0.0
H868 H 0.19108 0.96246 0.6863 0.0
C869 C 0.22423 0.06483 0.64135 0.0
C870 C 0.24367 0.06864 0.66687 0.0
H871 H 0.17791 0.02245 0.61261 0.0
H872 H 0.23323 0.09301 0.62845 0.0
C873 C 0.23069 0.03115 0.68299 0.0
C874 C 0.01924 0.22759 0.64822 0.0
C875 C 0.05237 0.25882 0.66407 0.0
H876 H 0.95023 0.18171 0.64351 0.0
C877 C 0.04094 0.26766 0.6883 0.0
H878 H 0.02785 0.21984 0.62974 0.0
C879 C 0.99659 0.24531 0.69659 0.0
C880 C 0.96326 0.21414 0.68058 0.0
H881 H 0.06642 0.29153 0.70078 0.0
H882 H 0.98832 0.25289 0.71524 0.0
C883 C 0.97508 0.20559 0.6563 0.0
C884 C 0.81387 0.81383 0.62983 0.0
C885 C 0.78763 0.82486 0.64477 0.0
H886 H 0.84719 0.77597 0.62825 0.0
C887 C 0.77099 0.80253 0.66894 0.0
H888 H 0.82773 0.83121 0.61142 0.0
C889 C 0.78328 0.77223 0.67911 0.0
C890 C 0.81171 0.76289 0.66497 0.0
H891 H 0.75081 0.81078 0.68078 0.0
H892 H 0.77136 0.75689 0.6983 0.0
C893 C 0.82551 0.78277 0.63974 0.0
C894 C 0.01777 0.81579 0.62822 0.0
C895 C 0.05618 0.83641 0.64456 0.0
H896 H 0.94875 0.76645 0.62563 0.0
C897 C 0.05532 0.81968 0.67048 0.0
H898 H 0.01721 0.8282 0.6083 0.0
C899 C 0.01594 0.78582 0.68069 0.0
C900 C 0.97697 0.76659 0.66483 0.0
H901 H 0.08472 0.83434 0.68332 0.0
H902 H 0.01568 0.77522 0.70118 0.0
C903 C 0.97856 0.78075 0.63821 0.0
C904 C 0.17754 0.21591 0.65446 0.0
C905 C 0.19234 0.26002 0.64979 0.0
H906 H 0.19494 0.1676 0.66823 0.0
C907 C 0.23818 0.28918 0.65159 0.0
H908 H 0.14225 0.19292 0.6527 0.0
C909 C 0.26849 0.27464 0.6599 0.0
C910 C 0.2529 0.23098 0.66704 0.0
H911 H 0.25004 0.32329 0.6481 0.0
H912 H 0.30369 0.29775 0.66207 0.0
C913 C 0.20743 0.20156 0.66357 0.0
C914 C 0.79412 0.97095 0.68228 0.0
C915 C 0.80501 0.96964 0.65605 0.0
H916 H 0.79254 0.01008 0.71263 0.0
C917 C 0.82562 0.00799 0.64068 0.0
H918 H 0.77784 0.94166 0.6944 0.0
C919 C 0.8328 0.04656 0.65078 0.0
C920 C 0.82083 0.04763 0.67672 0.0
H921 H 0.83529 0.0079 0.62067 0.0
H922 H 0.84713 0.07553 0.6382 0.0
C923 C 0.80248 0.00987 0.69268 0.0
C924 C 0.52044 0.35654 0.72775 0.0
C925 C 0.50893 0.38589 0.73778 0.0
H926 H 0.49698 0.29554 0.71009 0.0
C927 C 0.46368 0.37559 0.73774 0.0
H928 H 0.55506 0.36344 0.72815 0.0
C929 C 0.43044 0.33643 0.72822 0.0
C930 C 0.44187 0.30713 0.71799 0.0
H931 H 0.45411 0.39779 0.74537 0.0
H932 H 0.39574 0.32915 0.72876 0.0
C933 C 0.48726 0.31777 0.71754 0.0
C934 C 0.65158 0.14176 0.74116 0.0
C935 C 0.62096 0.09858 0.74758 0.0
H936 H 0.71318 0.18581 0.7225 0.0
C937 C 0.63218 0.06658 0.74266 0.0
H938 H 0.64336 0.16689 0.74475 0.0
C939 C 0.67228 0.07741 0.73015 0.0
C940 C 0.70091 0.1202 0.72168 0.0
H941 H 0.60875 0.03312 0.74707 0.0
H942 H 0.68016 0.05216 0.72623 0.0
C943 C 0.69077 0.15242 0.72787 0.0
C944 C 0.84514 0.5026 0.74083 0.0
C945 C 0.88768 0.50756 0.74776 0.0
H946 H 0.80722 0.53233 0.72455 0.0
C947 C 0.92498 0.54887 0.74645 0.0
H948 H 0.81579 0.47123 0.74232 0.0
C949 C 0.92 0.58424 0.73687 0.0
C950 C 0.8778 0.57842 0.72796 0.0
H951 H 0.95811 0.55337 0.75158 0.0
H952 H 0.94935 0.61564 0.73525 0.0
C953 C 0.84031 0.53748 0.73061 0.0
C954 C 0.48303 0.94166 0.2451 0.0
C955 C 0.50627 0.96752 0.2664 0.0
H956 H 0.47587 0.93643 0.20315 0.0
C957 C 0.54461 0.00701 0.26151 0.0
H958 H 0.45288 0.9114 0.24855 0.0
C959 C 0.55808 0.02159 0.23553 0.0
C960 C 0.53313 0.997 0.21393 0.0
H961 H 0.56242 0.02771 0.27769 0.0
H962 H 0.5871 0.05283 0.23235 0.0
C963 C 0.49626 0.95617 0.21914 0.0
C964 C 0.03092 0.48974 0.25944 0.0
C965 C 0.07757 0.51248 0.26319 0.0
H966 H 0.97574 0.46526 0.23172 0.0
C967 C 0.10479 0.522 0.24126 0.0
H968 H 0.00937 0.48325 0.27602 0.0
C969 C 0.08583 0.51176 0.21578 0.0
C970 C 0.03904 0.4924 0.21158 0.0
H971 H 0.14085 0.54042 0.24366 0.0
H972 H 0.10803 0.52103 0.19926 0.0
C973 C 0.0118 0.47984 0.23394 0.0
C974 C 0.46423 0.50248 0.25747 0.0
C975 C 0.43729 0.52216 0.25868 0.0
H976 H 0.49272 0.47509 0.23322 0.0
C977 C 0.41288 0.52379 0.23597 0.0
H978 H 0.48435 0.50211 0.27458 0.0
C979 C 0.41772 0.50857 0.212 0.0
C980 C 0.44739 0.49167 0.21025 0.0
H981 H 0.3928 0.53983 0.23633 0.0
H982 H 0.39975 0.51184 0.1946 0.0
C983 C 0.46918 0.48732 0.23363 0.0
C984 C 0.90511 0.4833 0.81734 0.0
C985 C 0.9326 0.48792 0.79638 0.0
H986 H 0.90181 0.49317 0.85831 0.0
C987 C 0.9792 0.51014 0.80014 0.0
H988 H 0.86904 0.46559 0.8148 0.0
C989 C 0.99814 0.52517 0.825 0.0
C990 C 0.97072 0.51819 0.84665 0.0
H991 H 1.00075 0.5131 0.78425 0.0
H992 H 0.03416 0.53976 0.82756 0.0
C993 C 0.92396 0.49843 0.84226 0.0
C994 C 0.55607 0.52332 0.80069 0.0
C995 C 0.58358 0.50418 0.79939 0.0
H996 H 0.52087 0.54364 0.82519 0.0
C997 C 0.60255 0.49701 0.82308 0.0
H998 H 0.53976 0.52778 0.78285 0.0
C999 C 0.59142 0.50556 0.84761 0.0
C1000 C 0.56075 0.52137 0.84913 0.0
H1001 H 0.62279 0.48114 0.82272 0.0
H1002 H 0.60532 0.49788 0.86544 0.0
C1003 C 0.5448 0.53183 0.82515 0.0
C1004 C 0.54797 0.0112 0.80367 0.0
C1005 C 0.5651 0.05538 0.79805 0.0
H1006 H 0.52623 0.96042 0.83328 0.0
C1007 C 0.5812 0.08345 0.81909 0.0
H1008 H 0.53408 0.98892 0.78779 0.0
C1009 C 0.57663 0.06736 0.84534 0.0
C1010 C 0.55533 0.02267 0.85116 0.0
H1011 H 0.59355 0.11756 0.81524 0.0
H1012 H 0.58766 0.08992 0.86107 0.0
C1013 C 0.54303 0.99496 0.82987 0.0
C1014 C 0.19753 0.35404 0.59558 0.0
C1015 C 0.17638 0.31038 0.60341 0.0
H1016 H 0.22408 0.40078 0.56381 0.0
C1017 C 0.17097 0.27995 0.58514 0.0
H1018 H 0.20145 0.37784 0.6094 0.0
C1019 C 0.184 0.29287 0.55889 0.0
C1020 C 0.20253 0.3365 0.55046 0.0
H1021 H 0.15421 0.24605 0.59081 0.0
H1022 H 0.17809 0.26851 0.54501 0.0
C1023 C 0.21045 0.36702 0.56943 0.0
C1024 C 0.77567 0.86126 0.57194 0.0
C1025 C 0.74909 0.85042 0.5943 0.0
H1026 H 0.7776 0.86163 0.52977 0.0
C1027 C 0.7024 0.82675 0.59106 0.0
H1028 H 0.81171 0.88042 0.57397 0.0
C1029 C 0.68251 0.81709 0.56572 0.0
C1030 C 0.70901 0.83089 0.54301 0.0
H1031 H 0.6813 0.81928 0.60798 0.0
H1032 H 0.64635 0.80159 0.56395 0.0
C1033 C 0.75595 0.85137 0.54661 0.0
C1034 C 0.08927 0.86413 0.56963 0.0
C1035 C 0.10982 0.85885 0.59312 0.0
H1036 H 0.07958 0.8551 0.52797 0.0
C1037 C 0.13379 0.83605 0.59275 0.0
H1038 H 0.07147 0.88248 0.56944 0.0
C1039 C 0.13986 0.8215 0.5689 0.0
C1040 C 0.12196 0.82944 0.54488 0.0
H1041 H 0.151 0.83282 0.61053 0.0
H1042 H 0.16128 0.80682 0.56912 0.0
C1043 C 0.09484 0.84924 0.54583 0.0
C1044 C 0.63522 0.85056 0.13352 0.0
C1045 C 0.59181 0.81552 0.1335 0.0
H1046 H 0.69129 0.89406 0.15703 0.0
C1047 C 0.56932 0.8004 0.15742 0.0
H1048 H 0.65317 0.86231 0.11523 0.0
C1049 C 0.59093 0.81791 0.18127 0.0
C1050 C 0.6357 0.85098 0.18172 0.0
H1051 H 0.53592 0.77307 0.1577 0.0
H1052 H 0.57344 0.80346 0.19946 0.0
C1053 C 0.65707 0.86817 0.15745 0.0
C1054 C 0.26673 0.82532 0.15775 0.0
C1055 C 0.25164 0.83714 0.13407 0.0
H1056 H 0.267 0.82272 0.2001 0.0
C1057 C 0.22936 0.86143 0.13562 0.0
H1058 H 0.28289 0.80557 0.15717 0.0
C1059 C 0.21869 0.87012 0.16025 0.0
C1060 C 0.23017 0.85479 0.18408 0.0
H1061 H 0.21594 0.86962 0.11776 0.0
H1062 H 0.19836 0.88591 0.16041 0.0
C1063 C 0.25636 0.83413 0.18239 0.0
C1064 C 0.21631 0.35874 0.13959 0.0
C1065 C 0.2407 0.40348 0.13547 0.0
H1066 H 0.188 0.30578 0.16756 0.0
C1067 C 0.26255 0.42893 0.15718 0.0
H1068 H 0.1982 0.33871 0.12318 0.0
C1069 C 0.25678 0.41027 0.18284 0.0
C1070 C 0.22855 0.36574 0.18733 0.0
H1071 H 0.28072 0.4636 0.1545 0.0
H1072 H 0.27245 0.43112 0.19926 0.0
C1073 C 0.21019 0.34002 0.16516 0.0
C1074 C 0.82652 0.61079 0.91491 0.0
C1075 C 0.84175 0.64057 0.93496 0.0
H1076 H 0.82591 0.60043 0.87373 0.0
C1077 C 0.87108 0.68389 0.92867 0.0
H1078 H 0.80295 0.57738 0.91935 0.0
C1079 C 0.88318 0.69765 0.9024 0.0
C1080 C 0.8661 0.66817 0.88192 0.0
H1081 H 0.88209 0.70743 0.94382 0.0
H1082 H 0.90366 0.73173 0.89803 0.0
C1083 C 0.83899 0.62428 0.88875 0.0
C1084 C 0.44359 0.1961 0.90447 0.0
C1085 C 0.41792 0.18152 0.92732 0.0
H1086 H 0.44376 0.20072 0.86225 0.0
C1087 C 0.37174 0.15379 0.92471 0.0
H1088 H 0.47907 0.21856 0.90607 0.0
C1089 C 0.35109 0.14364 0.89958 0.0
C1090 C 0.37625 0.16133 0.87651 0.0
H1091 H 0.35121 0.14308 0.94206 0.0
H1092 H 0.31507 0.12371 0.89825 0.0
C1093 C 0.42311 0.18613 0.87936 0.0
C1094 C 0.74863 0.19662 0.90182 0.0
C1095 C 0.77221 0.19526 0.92497 0.0
H1096 H 0.7371 0.18445 0.86048 0.0
C1097 C 0.80009 0.17649 0.92446 0.0
H1098 H 0.7277 0.21183 0.90172 0.0
C1099 C 0.80658 0.1618 0.90083 0.0
C1100 C 0.78528 0.16561 0.87707 0.0
H1101 H 0.81947 0.17626 0.94197 0.0
H1102 H 0.83065 0.15014 0.90092 0.0
C1103 C 0.75483 0.18171 0.87815 0.0
C1104 C 0.24726 0.16064 0.48178 0.0
C1105 C 0.2736 0.15781 0.46242 0.0
H1106 H 0.24475 0.1772 0.52145 0.0
C1107 C 0.3197 0.17449 0.46727 0.0
H1108 H 0.21152 0.14754 0.47839 0.0
C1109 C 0.33873 0.19071 0.49186 0.0
C1110 C 0.31194 0.19065 0.51218 0.0
H1111 H 0.34038 0.17227 0.45252 0.0
H1112 H 0.37385 0.20054 0.49544 0.0
C1113 C 0.26624 0.17698 0.50647 0.0
C1114 C 0.88647 0.18563 0.46773 0.0
C1115 C 0.91414 0.1666 0.46666 0.0
H1116 H 0.85102 0.20609 0.4919 0.0
C1117 C 0.93294 0.15965 0.49049 0.0
H1118 H 0.87026 0.18989 0.44978 0.0
C1119 C 0.9216 0.1684 0.5149 0.0
C1120 C 0.89087 0.18419 0.51619 0.0
H1121 H 0.95328 0.14385 0.49034 0.0
H1122 H 0.93545 0.16094 0.53284 0.0
C1123 C 0.875 0.19433 0.49206 0.0
C1124 C 0.88307 0.67792 0.47032 0.0
C1125 C 0.90108 0.722 0.46399 0.0
H1126 H 0.86014 0.62833 0.50067 0.0
C1127 C 0.91833 0.75098 0.48451 0.0
H1128 H 0.86845 0.655 0.45482 0.0
C1129 C 0.91361 0.73595 0.511 0.0
C1130 C 0.89099 0.69146 0.51752 0.0
H1131 H 0.93152 0.78508 0.4801 0.0
H1132 H 0.92535 0.75924 0.52633 0.0
C1133 C 0.87791 0.66274 0.49674 0.0
loop_
_geom_bond_atom_site_label_1
_geom_bond_atom_site_label_2
_geom_bond_distance
_geom_bond_site_symmetry_2
_ccdc_geom_bond_type
C0 N1 1.317 . S
C0 N2 1.348 . S
C0 C3 1.485 . S
N1 C0 1.317 . S
N1 N5 1.370 . S
N2 C0 1.348 . S
N2 C4 1.346 . S
C3 C0 1.485 . S
C3 H7 0.960 . S
C3 H8 0.961 . S
C3 H9 0.960 . S
C4 N2 1.346 . S
C4 N5 1.307 . S
C4 C6 1.486 . S
N5 N1 1.370 . S
N5 C4 1.307 . S
C6 C4 1.486 . S
C6 H10 0.960 . S
C6 H11 0.960 . S
C6 H12 0.959 . S
H7 C3 0.960 . S
H8 C3 0.961 . S
H9 C3 0.960 . S
H10 C6 0.960 . S
H11 C6 0.960 . S
H12 C6 0.959 . S
C13 N14 1.317 . S
C13 N15 1.348 . S
C13 C16 1.485 . S
N14 C13 1.317 . S
N14 N18 1.370 . S
N15 C13 1.348 . S
N15 C17 1.346 . S
C16 C13 1.485 . S
C16 H20 0.960 . S
C16 H21 0.961 . S
C16 H22 0.960 . S
C17 N15 1.346 . S
C17 N18 1.307 . S
C17 C19 1.486 . S
N18 N14 1.370 . S
N18 C17 1.307 . S
C19 C17 1.486 . S
C19 H23 0.960 . S
C19 H24 0.960 . S
C19 H25 0.959 . S
H20 C16 0.960 . S
H21 C16 0.961 . S
H22 C16 0.960 . S
H23 C19 0.960 . S
H24 C19 0.960 . S
H25 C19 0.959 . S
C26 N27 1.317 . S
C26 N28 1.348 . S
C26 C29 1.485 . S
N27 C26 1.317 . S
N27 N31 1.370 . S
N28 C26 1.348 . S
N28 C30 1.346 . S
C29 C26 1.485 . S
C29 H33 0.960 . S
C29 H34 0.961 . S
C29 H35 0.960 . S
C30 N28 1.346 . S
C30 N31 1.307 . S
C30 C32 1.486 . S
N31 N27 1.370 . S
N31 C30 1.307 . S
C32 C30 1.486 . S
C32 H36 0.960 . S
C32 H37 0.960 . S
C32 H38 0.959 . S
H33 C29 0.960 . S
H34 C29 0.961 . S
H35 C29 0.960 . S
H36 C32 0.960 . S
H37 C32 0.960 . S
H38 C32 0.959 . S
C39 N40 1.317 . S
C39 N41 1.348 . S
C39 C42 1.485 . S
N40 C39 1.317 . S
N40 N44 1.370 . S
N41 C39 1.348 . S
N41 C43 1.346 . S
C42 C39 1.485 . S
C42 H46 0.960 . S
C42 H47 0.961 . S
C42 H48 0.960 . S
C43 N41 1.346 . S
C43 N44 1.307 . S
C43 C45 1.486 . S
N44 N40 1.370 . S
N44 C43 1.307 . S
C45 C43 1.486 . S
C45 H49 0.960 . S
C45 H50 0.960 1_455 S
C45 H51 0.959 . S
H46 C42 0.960 . S
H47 C42 0.961 . S
H48 C42 0.960 . S
H49 C45 0.960 . S
H50 C45 0.960 1_655 S
H51 C45 0.959 . S
C52 N53 1.317 . S
C52 N54 1.348 . S
C52 C55 1.485 . S
N53 C52 1.317 . S
N53 N57 1.370 . S
N54 C52 1.348 . S
N54 C56 1.346 . S
C55 C52 1.485 . S
C55 H59 0.960 . S
C55 H60 0.961 . S
C55 H61 0.960 . S
C56 N54 1.346 . S
C56 N57 1.307 . S
C56 C58 1.486 . S
N57 N53 1.370 . S
N57 C56 1.307 . S
C58 C56 1.486 . S
C58 H62 0.960 . S
C58 H63 0.960 . S
C58 H64 0.959 . S
H59 C55 0.960 . S
H60 C55 0.961 . S
H61 C55 0.960 . S
H62 C58 0.960 . S
H63 C58 0.960 . S
H64 C58 0.959 . S
C65 N66 1.317 . S
C65 N67 1.348 . S
C65 C68 1.485 . S
N66 C65 1.317 . S
N66 N70 1.370 . S
N67 C65 1.348 . S
N67 C69 1.346 . S
C68 C65 1.485 . S
C68 H72 0.960 . S
C68 H73 0.961 . S
C68 H74 0.960 . S
C69 N67 1.346 . S
C69 N70 1.307 . S
C69 C71 1.486 . S
N70 N66 1.370 . S
N70 C69 1.307 . S
C71 C69 1.486 . S
C71 H75 0.960 . S
C71 H76 0.960 . S
C71 H77 0.959 . S
H72 C68 0.960 . S
H73 C68 0.961 . S
H74 C68 0.960 . S
H75 C71 0.960 . S
H76 C71 0.960 . S
H77 C71 0.959 . S
C78 N79 1.317 . S
C78 N80 1.348 . S
C78 C81 1.485 . S
N79 C78 1.317 . S
N79 N83 1.370 . S
N80 C78 1.348 . S
N80 C82 1.346 . S
C81 C78 1.485 . S
C81 H85 0.960 . S
C81 H86 0.961 . S
C81 H87 0.960 . S
C82 N80 1.346 . S
C82 N83 1.307 . S
C82 C84 1.486 . S
N83 N79 1.370 . S
N83 C82 1.307 . S
C84 C82 1.486 . S
C84 H88 0.960 . S
C84 H89 0.960 . S
C84 H90 0.959 . S
H85 C81 0.960 . S
H86 C81 0.961 . S
H87 C81 0.960 . S
H88 C84 0.960 . S
H89 C84 0.960 . S
H90 C84 0.959 . S
C91 N92 1.317 . S
C91 N93 1.348 . S
C91 C94 1.485 . S
N92 C91 1.317 . S
N92 N96 1.370 . S
N93 C91 1.348 . S
N93 C95 1.346 . S
C94 C91 1.485 . S
C94 H98 0.960 . S
C94 H99 0.961 . S
C94 H100 0.960 . S
C95 N93 1.346 . S
C95 N96 1.307 . S
C95 C97 1.486 . S
N96 N92 1.370 . S
N96 C95 1.307 . S
C97 C95 1.486 . S
C97 H101 0.960 . S
C97 H102 0.960 . S
C97 H103 0.959 . S
H98 C94 0.960 . S
H99 C94 0.961 . S
H100 C94 0.960 . S
H101 C97 0.960 . S
H102 C97 0.960 . S
H103 C97 0.959 . S
C104 N105 1.317 . S
C104 N106 1.348 . S
C104 C107 1.485 . S
N105 C104 1.317 . S
N105 N109 1.370 . S
N106 C104 1.348 . S
N106 C108 1.346 . S
C107 C104 1.485 . S
C107 H111 0.960 . S
C107 H112 0.961 . S
C107 H113 0.960 . S
C108 N106 1.346 . S
C108 N109 1.307 . S
C108 C110 1.486 . S
N109 N105 1.370 . S
N109 C108 1.307 . S
C110 C108 1.486 . S
C110 H114 0.960 . S
C110 H115 0.960 . S
C110 H116 0.959 . S
H111 C107 0.960 . S
H112 C107 0.961 . S
H113 C107 0.960 . S
H114 C110 0.960 . S
H115 C110 0.960 . S
H116 C110 0.959 . S
C117 N118 1.317 . S
C117 N119 1.348 . S
C117 C120 1.485 . S
N118 C117 1.317 . S
N118 N122 1.370 . S
N119 C117 1.348 . S
N119 C121 1.346 . S
C120 C117 1.485 . S
C120 H124 0.960 . S
C120 H125 0.961 1_556 S
C120 H126 0.960 . S
C121 N119 1.346 . S
C121 N122 1.307 . S
C121 C123 1.486 . S
N122 N118 1.370 . S
N122 C121 1.307 . S
C123 C121 1.486 . S
C123 H127 0.960 . S
C123 H128 0.960 . S
C123 H129 0.959 . S
H124 C120 0.960 . S
H125 C120 0.961 1_554 S
H126 C120 0.960 . S
H127 C123 0.960 . S
H128 C123 0.960 . S
H129 C123 0.959 . S
C130 N131 1.317 . S
C130 N132 1.348 . S
C130 C133 1.485 1_556 S
N131 C130 1.317 . S
N131 N135 1.370 . S
N132 C130 1.348 . S
N132 C134 1.346 . S
C133 C130 1.485 1_554 S
C133 H137 0.960 . S
C133 H138 0.961 . S
C133 H139 0.960 . S
C134 N132 1.346 . S
C134 N135 1.307 . S
C134 C136 1.486 . S
N135 N131 1.370 . S
N135 C134 1.307 . S
C136 C134 1.486 . S
C136 H140 0.960 . S
C136 H141 0.960 . S
C136 H142 0.959 . S
H137 C133 0.960 . S
H138 C133 0.961 . S
H139 C133 0.960 . S
H140 C136 0.960 . S
H141 C136 0.960 . S
H142 C136 0.959 . S
C143 N144 1.317 . S
C143 N145 1.348 . S
C143 C146 1.485 1_556 S
N144 C143 1.317 . S
N144 N148 1.370 . S
N145 C143 1.348 . S
N145 C147 1.346 . S
C146 C143 1.485 1_554 S
C146 H150 0.960 . S
C146 H151 0.961 . S
C146 H152 0.960 . S
C147 N145 1.346 . S
C147 N148 1.307 . S
C147 C149 1.486 . S
N148 N144 1.370 . S
N148 C147 1.307 . S
C149 C147 1.486 . S
C149 H153 0.960 . S
C149 H154 0.960 . S
C149 H155 0.959 . S
H150 C146 0.960 . S
H151 C146 0.961 . S
H152 C146 0.960 . S
H153 C149 0.960 . S
H154 C149 0.960 . S
H155 C149 0.959 . S
C156 N157 1.317 . S
C156 N158 1.348 . S
C156 C159 1.485 1_554 S
N157 C156 1.317 . S
N157 N161 1.370 . S
N158 C156 1.348 . S
N158 C160 1.346 . S
C159 C156 1.485 1_556 S
C159 H163 0.960 . S
C159 H164 0.961 . S
C159 H165 0.960 . S
C160 N158 1.346 . S
C160 N161 1.307 . S
C160 C162 1.486 . S
N161 N157 1.370 . S
N161 C160 1.307 . S
C162 C160 1.486 . S
C162 H166 0.960 . S
C162 H167 0.960 . S
C162 H168 0.959 . S
H163 C159 0.960 . S
H164 C159 0.961 . S
H165 C159 0.960 . S
H166 C162 0.960 . S
H167 C162 0.960 . S
H168 C162 0.959 . S
C169 N170 1.317 . S
C169 N171 1.348 . S
C169 C172 1.485 . S
N170 C169 1.317 . S
N170 N174 1.370 . S
N171 C169 1.348 . S
N171 C173 1.346 . S
C172 C169 1.485 . S
C172 H176 0.960 1_554 S
C172 H177 0.961 . S
C172 H178 0.960 . S
C173 N171 1.346 . S
C173 N174 1.307 . S
C173 C175 1.486 . S
N174 N170 1.370 . S
N174 C173 1.307 . S
C175 C173 1.486 . S
C175 H179 0.960 . S
C175 H180 0.960 . S
C175 H181 0.959 . S
H176 C172 0.960 1_556 S
H177 C172 0.961 . S
H178 C172 0.960 . S
H179 C175 0.960 . S
H180 C175 0.960 . S
H181 C175 0.959 . S
C182 N183 1.317 . S
C182 N184 1.348 . S
C182 C185 1.485 . S
N183 C182 1.317 . S
N183 N187 1.370 . S
N184 C182 1.348 . S
N184 C186 1.346 . S
C185 C182 1.485 . S
C185 H189 0.960 . S
C185 H190 0.961 . S
C185 H191 0.960 . S
C186 N184 1.346 . S
C186 N187 1.307 . S
C186 C188 1.486 . S
N187 N183 1.370 . S
N187 C186 1.307 . S
C188 C186 1.486 . S
C188 H192 0.960 . S
C188 H193 0.960 . S
C188 H194 0.959 . S
H189 C185 0.960 . S
H190 C185 0.961 . S
H191 C185 0.960 . S
H192 C188 0.960 . S
H193 C188 0.960 . S
H194 C188 0.959 . S
C195 N196 1.317 . S
C195 N197 1.348 . S
C195 C198 1.485 . S
N196 C195 1.317 . S
N196 N200 1.370 . S
N197 C195 1.348 . S
N197 C199 1.346 . S
C198 C195 1.485 . S
C198 H202 0.960 . S
C198 H203 0.961 . S
C198 H204 0.960 . S
C199 N197 1.346 . S
C199 N200 1.307 . S
C199 C201 1.486 . S
N200 N196 1.370 . S
N200 C199 1.307 . S
C201 C199 1.486 . S
C201 H205 0.960 . S
C201 H206 0.960 . S
C201 H207 0.959 . S
H202 C198 0.960 . S
H203 C198 0.961 . S
H204 C198 0.960 . S
H205 C201 0.960 . S
H206 C201 0.960 . S
H207 C201 0.959 . S
C208 N209 1.317 . S
C208 N210 1.348 . S
C208 C211 1.485 . S
N209 C208 1.317 . S
N209 N213 1.370 . S
N210 C208 1.348 . S
N210 C212 1.346 . S
C211 C208 1.485 . S
C211 H215 0.960 . S
C211 H216 0.961 . S
C211 H217 0.960 . S
C212 N210 1.346 . S
C212 N213 1.307 . S
C212 C214 1.486 . S
N213 N209 1.370 . S
N213 C212 1.307 . S
C214 C212 1.486 . S
C214 H218 0.960 . S
C214 H219 0.960 . S
C214 H220 0.959 . S
H215 C211 0.960 . S
H216 C211 0.961 . S
H217 C211 0.960 . S
H218 C214 0.960 . S
H219 C214 0.960 . S
H220 C214 0.959 . S
C221 N222 1.317 . S
C221 N223 1.348 . S
C221 C224 1.485 . S
N222 C221 1.317 . S
N222 N226 1.370 . S
N223 C221 1.348 . S
N223 C225 1.346 . S
C224 C221 1.485 . S
C224 H228 0.960 . S
C224 H229 0.961 . S
C224 H230 0.960 . S
C225 N223 1.346 . S
C225 N226 1.307 . S
C225 C227 1.486 . S
N226 N222 1.370 . S
N226 C225 1.307 . S
C227 C225 1.486 . S
C227 H231 0.960 . S
C227 H232 0.960 . S
C227 H233 0.959 . S
H228 C224 0.960 . S
H229 C224 0.961 . S
H230 C224 0.960 . S
H231 C227 0.960 . S
H232 C227 0.960 . S
H233 C227 0.959 . S
Tb234 C244 2.825 1_565 S
Tb234 O245 2.347 1_565 S
Tb234 O248 2.366 1_565 S
Tb234 O253 2.418 . S
Tb234 O254 2.384 1_556 S
Tb234 O257 2.479 . S
Tb234 O258 2.471 1_565 S
Eu235 O246 2.418 . S
Eu235 O247 2.384 . S
Eu235 O250 2.479 . S
Eu235 O251 2.471 1_545 S
Eu235 O252 2.347 1_545 S
Eu235 O255 2.366 1_545 S
Eu235 C265 2.825 1_545 S
C236 O252 1.259 . S
C236 O253 1.265 1_554 S
C237 O254 1.255 . S
C237 O255 1.265 . S
C238 C240 1.380 . S
C238 C241 1.374 . S
C238 C244 1.507 . S
C239 C240 1.384 . S
C239 C243 1.387 . S
C239 H266 0.930 . S
C240 C238 1.380 . S
C240 C239 1.384 . S
C240 H267 0.931 1_545 S
C241 C238 1.374 . S
C241 C242 1.390 . S
C241 H268 0.930 . S
C242 C241 1.390 . S
C242 C243 1.391 . S
C242 H269 0.930 . S
C243 C239 1.387 . S
C243 C242 1.391 . S
C244 Tb234 2.825 1_545 S
C244 C238 1.507 . S
C244 O257 1.238 1_545 S
C244 O258 1.247 . S
O245 Tb234 2.347 1_545 S
O245 C249 1.259 1_556 S
O246 Eu235 2.418 . S
O246 C249 1.265 . S
O247 Eu235 2.384 . S
O247 C256 1.255 1_554 S
O248 Tb234 2.366 1_545 S
O248 C256 1.265 . S
C249 O245 1.259 1_554 S
C249 O246 1.265 . S
O250 Eu235 2.479 . S
O250 C265 1.238 1_545 S
O251 Eu235 2.471 1_565 S
O251 C265 1.247 . S
O252 Eu235 2.347 1_565 S
O252 C236 1.259 . S
O253 Tb234 2.418 . S
O253 C236 1.265 1_556 S
O254 Tb234 2.384 1_554 S
O254 C237 1.255 . S
O255 Eu235 2.366 1_565 S
O255 C237 1.265 . S
C256 O247 1.255 1_556 S
C256 O248 1.265 . S
O257 Tb234 2.479 . S
O257 C244 1.238 1_565 S
O258 Tb234 2.471 1_545 S
O258 C244 1.247 . S
C259 C262 1.380 . S
C259 C263 1.374 . S
C259 C265 1.507 . S
C260 C261 1.387 . S
C260 C264 1.391 . S
C261 C260 1.387 . S
C261 C262 1.384 . S
C261 H270 0.930 . S
C262 C259 1.380 . S
C262 C261 1.384 . S
C262 H271 0.931 1_565 S
C263 C259 1.374 . S
C263 C264 1.390 . S
C263 H272 0.930 . S
C264 C260 1.391 . S
C264 C263 1.390 . S
C264 H273 0.930 . S
C265 Eu235 2.825 1_565 S
C265 O250 1.238 1_565 S
C265 O251 1.247 . S
C265 C259 1.507 . S
H266 C239 0.930 . S
H267 C240 0.931 1_565 S
H268 C241 0.930 . S
H269 C242 0.930 . S
H270 C261 0.930 . S
H271 C262 0.931 1_545 S
H272 C263 0.930 . S
H273 C264 0.930 . S
Tb274 C284 2.825 . S
Tb274 O285 2.347 1_455 S
Tb274 O288 2.366 1_455 S
Tb274 O293 2.418 . S
Tb274 O294 2.384 1_556 S
Tb274 O297 2.479 . S
Tb274 O298 2.471 1_455 S
Eu275 O286 2.418 . S
Eu275 O287 2.383 1_554 S
Eu275 O290 2.479 . S
Eu275 O291 2.471 1_655 S
Eu275 O292 2.347 1_655 S
Eu275 O295 2.366 1_655 S
Eu275 C305 2.825 1_655 S
C276 O292 1.259 . S
C276 O293 1.265 1_554 S
C277 O294 1.255 . S
C277 O295 1.265 . S
C278 C280 1.380 1_655 S
C278 C281 1.374 . S
C278 C284 1.507 1_655 S
C279 C280 1.384 . S
C279 C283 1.387 1_455 S
C279 H306 0.930 . S
C280 C278 1.380 1_455 S
C280 C279 1.384 . S
C280 H307 0.931 . S
C281 C278 1.374 . S
C281 C282 1.390 . S
C281 H308 0.930 . S
C282 C281 1.390 . S
C282 C283 1.391 . S
C282 H309 0.930 . S
C283 C279 1.387 1_655 S
C283 C282 1.391 . S
C284 Tb274 2.825 . S
C284 C278 1.507 1_455 S
C284 O297 1.238 . S
C284 O298 1.247 1_455 S
O285 Tb274 2.347 1_655 S
O285 C289 1.266 . S
O286 Eu275 2.418 . S
O286 C289 1.249 1_554 S
O287 Eu275 2.383 1_556 S
O287 C296 1.256 . S
O288 Tb274 2.366 1_655 S
O288 C296 1.265 . S
C289 O285 1.266 . S
C289 O286 1.249 1_556 S
O290 Eu275 2.479 . S
O290 C305 1.238 1_655 S
O291 Eu275 2.471 1_455 S
O291 C305 1.247 . S
O292 Eu275 2.347 1_455 S
O292 C276 1.259 . S
O293 Tb274 2.418 . S
O293 C276 1.265 1_556 S
O294 Tb274 2.384 1_554 S
O294 C277 1.255 . S
O295 Eu275 2.366 1_455 S
O295 C277 1.265 . S
C296 O287 1.256 . S
C296 O288 1.265 . S
O297 Tb274 2.479 . S
O297 C284 1.238 . S
O298 Tb274 2.471 1_655 S
O298 C284 1.247 1_655 S
C299 C302 1.380 1_455 S
C299 C303 1.374 . S
C299 C305 1.507 . S
C300 C301 1.387 . S
C300 C304 1.391 . S
C301 C300 1.387 . S
C301 C302 1.384 1_455 S
C301 H310 0.930 1_455 S
C302 C299 1.380 1_655 S
C302 C301 1.384 1_655 S
C302 H311 0.931 . S
C303 C299 1.374 . S
C303 C304 1.390 . S
C303 H312 0.930 . S
C304 C300 1.391 . S
C304 C303 1.390 . S
C304 H313 0.930 . S
C305 Eu275 2.825 1_455 S
C305 O290 1.238 1_455 S
C305 O291 1.247 . S
C305 C299 1.507 . S
H306 C279 0.930 . S
H307 C280 0.931 . S
H308 C281 0.930 . S
H309 C282 0.930 . S
H310 C301 0.930 1_655 S
H311 C302 0.931 . S
H312 C303 0.930 . S
H313 C304 0.930 . S
Tb314 C324 2.825 . S
Tb314 O325 2.347 . S
Tb314 O328 2.366 . S
Tb314 O333 2.418 . S
Tb314 O334 2.384 . S
Tb314 O337 2.479 . S
Tb314 O338 2.471 . S
Eu315 O326 2.418 . S
Eu315 O327 2.384 1_556 S
Eu315 O330 2.479 . S
Eu315 O331 2.471 . S
Eu315 O332 2.347 1_556 S
Eu315 O335 2.366 . S
Eu315 C345 2.825 . S
C316 O332 1.259 . S
C316 O333 1.265 . S
C317 O334 1.255 1_556 S
C317 O335 1.265 . S
C318 C320 1.380 . S
C318 C321 1.374 . S
C318 C324 1.507 . S
C319 C320 1.384 . S
C319 C323 1.387 . S
C319 H346 0.930 . S
C320 C318 1.380 . S
C320 C319 1.384 . S
C320 H347 0.931 . S
C321 C318 1.374 . S
C321 C322 1.390 . S
C321 H348 0.930 . S
C322 C321 1.390 . S
C322 C323 1.391 . S
C322 H349 0.930 . S
C323 C319 1.387 . S
C323 C322 1.391 . S
C324 Tb314 2.825 . S
C324 C318 1.507 . S
C324 O337 1.238 . S
C324 O338 1.247 . S
O325 Tb314 2.347 . S
O325 C329 1.259 . S
O326 Eu315 2.418 . S
O326 C329 1.265 1_556 S
O327 Eu315 2.384 1_554 S
O327 C336 1.255 . S
O328 Tb314 2.366 . S
O328 C336 1.265 . S
C329 O325 1.259 . S
C329 O326 1.265 1_554 S
O330 Eu315 2.479 . S
O330 C345 1.238 . S
O331 Eu315 2.471 . S
O331 C345 1.247 . S
O332 Eu315 2.347 1_554 S
O332 C316 1.259 . S
O333 Tb314 2.418 . S
O333 C316 1.265 . S
O334 Tb314 2.384 . S
O334 C317 1.255 1_554 S
O335 Eu315 2.366 . S
O335 C317 1.265 . S
C336 O327 1.255 . S
C336 O328 1.265 . S
O337 Tb314 2.479 . S
O337 C324 1.238 . S
O338 Tb314 2.471 . S
O338 C324 1.247 . S
C339 C342 1.380 . S
C339 C343 1.374 . S
C339 C345 1.507 . S
C340 C341 1.387 . S
C340 C344 1.391 . S
C341 C340 1.387 . S
C341 C342 1.384 . S
C341 H350 0.930 . S
C342 C339 1.380 . S
C342 C341 1.384 . S
C342 H351 0.931 . S
C343 C339 1.374 . S
C343 C344 1.390 . S
C343 H352 0.930 . S
C344 C340 1.391 . S
C344 C343 1.390 . S
C344 H353 0.930 . S
C345 Eu315 2.825 . S
C345 O330 1.238 . S
C345 O331 1.247 . S
C345 C339 1.507 . S
H346 C319 0.930 . S
H347 C320 0.931 . S
H348 C321 0.930 . S
H349 C322 0.930 . S
H350 C341 0.930 . S
H351 C342 0.931 . S
H352 C343 0.930 . S
H353 C344 0.930 . S
Tb354 C364 2.825 . S
Tb354 O365 2.347 . S
Tb354 O368 2.366 . S
Tb354 O373 2.418 . S
Tb354 O374 2.384 . S
Tb354 O377 2.479 . S
Tb354 O378 2.471 . S
Eu355 O366 2.418 . S
Eu355 O367 2.384 . S
Eu355 O370 2.479 . S
Eu355 O371 2.471 . S
Eu355 O372 2.347 . S
Eu355 O375 2.366 . S
Eu355 C385 2.825 . S
C356 O372 1.259 . S
C356 O373 1.265 . S
C357 O374 1.255 . S
C357 O375 1.265 . S
C358 C360 1.380 . S
C358 C361 1.374 . S
C358 C364 1.507 . S
C359 C360 1.384 . S
C359 C363 1.387 . S
C359 H386 0.930 . S
C360 C358 1.380 . S
C360 C359 1.384 . S
C360 H387 0.931 . S
C361 C358 1.374 . S
C361 C362 1.390 . S
C361 H388 0.930 . S
C362 C361 1.390 . S
C362 C363 1.391 . S
C362 H389 0.930 . S
C363 C359 1.387 . S
C363 C362 1.391 . S
C364 Tb354 2.825 . S
C364 C358 1.507 . S
C364 O377 1.238 . S
C364 O378 1.247 . S
O365 Tb354 2.347 . S
O365 C369 1.259 . S
O366 Eu355 2.418 . S
O366 C369 1.265 . S
O367 Eu355 2.384 . S
O367 C376 1.255 . S
O368 Tb354 2.366 . S
O368 C376 1.265 . S
C369 O365 1.259 . S
C369 O366 1.265 . S
O370 Eu355 2.479 . S
O370 C385 1.238 . S
O371 Eu355 2.471 . S
O371 C385 1.247 . S
O372 Eu355 2.347 . S
O372 C356 1.259 . S
O373 Tb354 2.418 . S
O373 C356 1.265 . S
O374 Tb354 2.384 . S
O374 C357 1.255 . S
O375 Eu355 2.366 . S
O375 C357 1.265 . S
C376 O367 1.255 . S
C376 O368 1.265 . S
O377 Tb354 2.479 . S
O377 C364 1.238 . S
O378 Tb354 2.471 . S
O378 C364 1.247 . S
C379 C382 1.380 . S
C379 C383 1.374 . S
C379 C385 1.507 . S
C380 C381 1.387 . S
C380 C384 1.391 . S
C381 C380 1.387 . S
C381 C382 1.384 . S
C381 H390 0.930 . S
C382 C379 1.380 . S
C382 C381 1.384 . S
C382 H391 0.931 . S
C383 C379 1.374 . S
C383 C384 1.390 . S
C383 H392 0.930 . S
C384 C380 1.391 . S
C384 C383 1.390 . S
C384 H393 0.930 . S
C385 Eu355 2.825 . S
C385 O370 1.238 . S
C385 O371 1.247 . S
C385 C379 1.507 . S
H386 C359 0.930 . S
H387 C360 0.931 . S
H388 C361 0.930 . S
H389 C362 0.930 . S
H390 C381 0.930 . S
H391 C382 0.931 . S
H392 C383 0.930 . S
H393 C384 0.930 . S
Tb394 C404 2.825 . S
Tb394 O405 2.347 . S
Tb394 O408 2.366 . S
Tb394 O413 2.418 . S
Tb394 O414 2.384 . S
Tb394 O417 2.479 . S
Tb394 O418 2.471 . S
Eu395 O406 2.418 . S
Eu395 O407 2.384 . S
Eu395 O410 2.479 . S
Eu395 O411 2.471 . S
Eu395 O412 2.347 . S
Eu395 O415 2.366 . S
Eu395 C425 2.825 . S
C396 O412 1.259 . S
C396 O413 1.265 . S
C397 O414 1.255 . S
C397 O415 1.265 . S
C398 C400 1.380 . S
C398 C401 1.374 . S
C398 C404 1.507 . S
C399 C400 1.384 . S
C399 C403 1.387 . S
C399 H426 0.930 . S
C400 C398 1.380 . S
C400 C399 1.384 . S
C400 H427 0.931 . S
C401 C398 1.374 . S
C401 C402 1.390 . S
C401 H428 0.930 . S
C402 C401 1.390 . S
C402 C403 1.391 . S
C402 H429 0.930 . S
C403 C399 1.387 . S
C403 C402 1.391 . S
C404 Tb394 2.825 . S
C404 C398 1.507 . S
C404 O417 1.238 . S
C404 O418 1.247 . S
O405 Tb394 2.347 . S
O405 C409 1.259 . S
O406 Eu395 2.418 . S
O406 C409 1.265 . S
O407 Eu395 2.384 . S
O407 C416 1.255 . S
O408 Tb394 2.366 . S
O408 C416 1.265 . S
C409 O405 1.259 . S
C409 O406 1.265 . S
O410 Eu395 2.479 . S
O410 C425 1.238 . S
O411 Eu395 2.471 . S
O411 C425 1.247 . S
O412 Eu395 2.347 . S
O412 C396 1.259 . S
O413 Tb394 2.418 . S
O413 C396 1.265 . S
O414 Tb394 2.384 . S
O414 C397 1.255 . S
O415 Eu395 2.366 . S
O415 C397 1.265 . S
C416 O407 1.255 . S
C416 O408 1.265 . S
O417 Tb394 2.479 . S
O417 C404 1.238 . S
O418 Tb394 2.471 . S
O418 C404 1.247 . S
C419 C422 1.380 . S
C419 C423 1.374 . S
C419 C425 1.507 . S
C420 C421 1.387 . S
C420 C424 1.391 . S
C421 C420 1.387 . S
C421 C422 1.384 . S
C421 H430 0.930 . S
C422 C419 1.380 . S
C422 C421 1.384 . S
C422 H431 0.931 . S
C423 C419 1.374 . S
C423 C424 1.390 . S
C423 H432 0.930 . S
C424 C420 1.391 . S
C424 C423 1.390 . S
C424 H433 0.930 . S
C425 Eu395 2.825 . S
C425 O410 1.238 . S
C425 O411 1.247 . S
C425 C419 1.507 . S
H426 C399 0.930 . S
H427 C400 0.931 . S
H428 C401 0.930 . S
H429 C402 0.930 . S
H430 C421 0.930 . S
H431 C422 0.931 . S
H432 C423 0.930 . S
H433 C424 0.930 . S
Tb434 C444 2.825 . S
Tb434 O445 2.347 . S
Tb434 O448 2.366 . S
Tb434 O453 2.418 . S
Tb434 O454 2.384 . S
Tb434 O457 2.479 . S
Tb434 O458 2.471 . S
Eu435 O446 2.418 . S
Eu435 O447 2.384 . S
Eu435 O450 2.479 . S
Eu435 O451 2.471 . S
Eu435 O452 2.347 . S
Eu435 O455 2.366 . S
Eu435 C465 2.825 . S
C436 O452 1.259 . S
C436 O453 1.265 . S
C437 O454 1.255 . S
C437 O455 1.265 . S
C438 C440 1.380 . S
C438 C441 1.374 . S
C438 C444 1.507 . S
C439 C440 1.384 . S
C439 C443 1.387 . S
C439 H466 0.930 . S
C440 C438 1.380 . S
C440 C439 1.384 . S
C440 H467 0.931 . S
C441 C438 1.374 . S
C441 C442 1.390 . S
C441 H468 0.930 . S
C442 C441 1.390 . S
C442 C443 1.391 . S
C442 H469 0.930 . S
C443 C439 1.387 . S
C443 C442 1.391 . S
C444 Tb434 2.825 . S
C444 C438 1.507 . S
C444 O457 1.238 . S
C444 O458 1.247 . S
O445 Tb434 2.347 . S
O445 C449 1.259 . S
O446 Eu435 2.418 . S
O446 C449 1.265 . S
O447 Eu435 2.384 . S
O447 C456 1.255 . S
O448 Tb434 2.366 . S
O448 C456 1.265 . S
C449 O445 1.259 . S
C449 O446 1.265 . S
O450 Eu435 2.479 . S
O450 C465 1.238 . S
O451 Eu435 2.471 . S
O451 C465 1.247 . S
O452 Eu435 2.347 . S
O452 C436 1.259 . S
O453 Tb434 2.418 . S
O453 C436 1.265 . S
O454 Tb434 2.384 . S
O454 C437 1.255 . S
O455 Eu435 2.366 . S
O455 C437 1.265 . S
C456 O447 1.255 . S
C456 O448 1.265 . S
O457 Tb434 2.479 . S
O457 C444 1.238 . S
O458 Tb434 2.471 . S
O458 C444 1.247 . S
C459 C462 1.380 . S
C459 C463 1.374 . S
C459 C465 1.507 . S
C460 C461 1.387 . S
C460 C464 1.391 . S
C461 C460 1.387 . S
C461 C462 1.384 . S
C461 H470 0.930 . S
C462 C459 1.380 . S
C462 C461 1.384 . S
C462 H471 0.931 . S
C463 C459 1.374 . S
C463 C464 1.390 . S
C463 H472 0.930 . S
C464 C460 1.391 . S
C464 C463 1.390 . S
C464 H473 0.930 . S
C465 Eu435 2.825 . S
C465 O450 1.238 . S
C465 O451 1.247 . S
C465 C459 1.507 . S
H466 C439 0.930 . S
H467 C440 0.931 . S
H468 C441 0.930 . S
H469 C442 0.930 . S
H470 C461 0.930 . S
H471 C462 0.931 . S
H472 C463 0.930 . S
H473 C464 0.930 . S
Tb474 C484 2.825 . S
Tb474 O485 2.347 . S
Tb474 O488 2.366 . S
Tb474 O493 2.418 . S
Tb474 O494 2.384 . S
Tb474 O497 2.479 . S
Tb474 O498 2.471 . S
Eu475 O486 2.418 . S
Eu475 O487 2.384 . S
Eu475 O490 2.479 . S
Eu475 O491 2.471 . S
Eu475 O492 2.347 . S
Eu475 O495 2.366 . S
Eu475 C505 2.825 . S
C476 O492 1.259 . S
C476 O493 1.265 . S
C477 O494 1.255 . S
C477 O495 1.265 . S
C478 C480 1.380 . S
C478 C481 1.374 . S
C478 C484 1.507 . S
C479 C480 1.384 . S
C479 C483 1.387 . S
C479 H506 0.930 . S
C480 C478 1.380 . S
C480 C479 1.384 . S
C480 H507 0.931 . S
C481 C478 1.374 . S
C481 C482 1.390 . S
C481 H508 0.930 . S
C482 C481 1.390 . S
C482 C483 1.391 . S
C482 H509 0.930 . S
C483 C479 1.387 . S
C483 C482 1.391 . S
C484 Tb474 2.825 . S
C484 C478 1.507 . S
C484 O497 1.238 . S
C484 O498 1.247 . S
O485 Tb474 2.347 . S
O485 C489 1.259 . S
O486 Eu475 2.418 . S
O486 C489 1.265 . S
O487 Eu475 2.384 . S
O487 C496 1.255 . S
O488 Tb474 2.366 . S
O488 C496 1.265 . S
C489 O485 1.259 . S
C489 O486 1.265 . S
O490 Eu475 2.479 . S
O490 C505 1.238 . S
O491 Eu475 2.471 . S
O491 C505 1.247 . S
O492 Eu475 2.347 . S
O492 C476 1.259 . S
O493 Tb474 2.418 . S
O493 C476 1.265 . S
O494 Tb474 2.384 . S
O494 C477 1.255 . S
O495 Eu475 2.366 . S
O495 C477 1.265 . S
C496 O487 1.255 . S
C496 O488 1.265 . S
O497 Tb474 2.479 . S
O497 C484 1.238 . S
O498 Tb474 2.471 . S
O498 C484 1.247 . S
C499 C502 1.380 . S
C499 C503 1.374 . S
C499 C505 1.507 . S
C500 C501 1.387 . S
C500 C504 1.391 . S
C501 C500 1.387 . S
C501 C502 1.384 . S
C501 H510 0.930 . S
C502 C499 1.380 . S
C502 C501 1.384 . S
C502 H511 0.931 . S
C503 C499 1.374 . S
C503 C504 1.390 . S
C503 H512 0.930 . S
C504 C500 1.391 . S
C504 C503 1.390 . S
C504 H513 0.930 . S
C505 Eu475 2.825 . S
C505 O490 1.238 . S
C505 O491 1.247 . S
C505 C499 1.507 . S
H506 C479 0.930 . S
H507 C480 0.931 . S
H508 C481 0.930 . S
H509 C482 0.930 . S
H510 C501 0.930 . S
H511 C502 0.931 . S
H512 C503 0.930 . S
H513 C504 0.930 . S
Tb514 C524 2.825 . S
Tb514 O525 2.347 . S
Tb514 O528 2.366 . S
Tb514 O533 2.418 . S
Tb514 O534 2.384 . S
Tb514 O537 2.479 . S
Tb514 O538 2.471 . S
Eu515 O526 2.418 . S
Eu515 O527 2.384 . S
Eu515 O530 2.479 . S
Eu515 O531 2.471 . S
Eu515 O532 2.347 . S
Eu515 O535 2.366 . S
Eu515 C545 2.825 . S
C516 O532 1.259 . S
C516 O533 1.265 . S
C517 O534 1.255 . S
C517 O535 1.265 . S
C518 C520 1.380 . S
C518 C521 1.374 . S
C518 C524 1.507 . S
C519 C520 1.384 . S
C519 C523 1.387 . S
C519 H546 0.930 . S
C520 C518 1.380 . S
C520 C519 1.384 . S
C520 H547 0.931 . S
C521 C518 1.374 . S
C521 C522 1.390 . S
C521 H548 0.930 . S
C522 C521 1.390 . S
C522 C523 1.391 . S
C522 H549 0.930 . S
C523 C519 1.387 . S
C523 C522 1.391 . S
C524 Tb514 2.825 . S
C524 C518 1.507 . S
C524 O537 1.238 . S
C524 O538 1.247 . S
O525 Tb514 2.347 . S
O525 C529 1.259 . S
O526 Eu515 2.418 . S
O526 C529 1.265 . S
O527 Eu515 2.384 . S
O527 C536 1.255 . S
O528 Tb514 2.366 . S
O528 C536 1.265 . S
C529 O525 1.259 . S
C529 O526 1.265 . S
O530 Eu515 2.479 . S
O530 C545 1.238 . S
O531 Eu515 2.471 . S
O531 C545 1.247 . S
O532 Eu515 2.347 . S
O532 C516 1.259 . S
O533 Tb514 2.418 . S
O533 C516 1.265 . S
O534 Tb514 2.384 . S
O534 C517 1.255 . S
O535 Eu515 2.366 . S
O535 C517 1.265 . S
C536 O527 1.255 . S
C536 O528 1.265 . S
O537 Tb514 2.479 . S
O537 C524 1.238 . S
O538 Tb514 2.471 . S
O538 C524 1.247 . S
C539 C542 1.380 . S
C539 C543 1.374 . S
C539 C545 1.507 . S
C540 C541 1.387 . S
C540 C544 1.391 . S
C541 C540 1.387 . S
C541 C542 1.384 . S
C541 H550 0.930 . S
C542 C539 1.380 . S
C542 C541 1.384 . S
C542 H551 0.931 . S
C543 C539 1.374 . S
C543 C544 1.390 . S
C543 H552 0.930 . S
C544 C540 1.391 . S
C544 C543 1.390 . S
C544 H553 0.930 . S
C545 Eu515 2.825 . S
C545 O530 1.238 . S
C545 O531 1.247 . S
C545 C539 1.507 . S
H546 C519 0.930 . S
H547 C520 0.931 . S
H548 C521 0.930 . S
H549 C522 0.930 . S
H550 C541 0.930 . S
H551 C542 0.931 . S
H552 C543 0.930 . S
H553 C544 0.930 . S
Tb554 C564 2.825 . S
Tb554 O565 2.347 . S
Tb554 O568 2.366 . S
Tb554 O573 2.418 . S
Tb554 O574 2.384 . S
Tb554 O577 2.479 . S
Tb554 O578 2.471 . S
Eu555 O566 2.418 . S
Eu555 O567 2.384 . S
Eu555 O570 2.479 . S
Eu555 O571 2.471 . S
Eu555 O572 2.347 . S
Eu555 O575 2.366 . S
Eu555 C585 2.825 . S
C556 O572 1.259 . S
C556 O573 1.265 . S
C557 O574 1.255 . S
C557 O575 1.265 . S
C558 C560 1.380 . S
C558 C561 1.374 . S
C558 C564 1.507 . S
C559 C560 1.384 . S
C559 C563 1.387 . S
C559 H586 0.930 . S
C560 C558 1.380 . S
C560 C559 1.384 . S
C560 H587 0.931 . S
C561 C558 1.374 . S
C561 C562 1.390 . S
C561 H588 0.930 . S
C562 C561 1.390 . S
C562 C563 1.391 . S
C562 H589 0.930 . S
C563 C559 1.387 . S
C563 C562 1.391 . S
C564 Tb554 2.825 . S
C564 C558 1.507 . S
C564 O577 1.238 . S
C564 O578 1.247 . S
O565 Tb554 2.347 . S
O565 C569 1.259 . S
O566 Eu555 2.418 . S
O566 C569 1.265 . S
O567 Eu555 2.384 . S
O567 C576 1.255 . S
O568 Tb554 2.366 . S
O568 C576 1.265 . S
C569 O565 1.259 . S
C569 O566 1.265 . S
O570 Eu555 2.479 . S
O570 C585 1.238 . S
O571 Eu555 2.471 . S
O571 C585 1.247 . S
O572 Eu555 2.347 . S
O572 C556 1.259 . S
O573 Tb554 2.418 . S
O573 C556 1.265 . S
O574 Tb554 2.384 . S
O574 C557 1.255 . S
O575 Eu555 2.366 . S
O575 C557 1.265 . S
C576 O567 1.255 . S
C576 O568 1.265 . S
O577 Tb554 2.479 . S
O577 C564 1.238 . S
O578 Tb554 2.471 . S
O578 C564 1.247 . S
C579 C582 1.380 . S
C579 C583 1.374 . S
C579 C585 1.507 . S
C580 C581 1.387 . S
C580 C584 1.391 . S
C581 C580 1.387 . S
C581 C582 1.384 . S
C581 H590 0.930 . S
C582 C579 1.380 . S
C582 C581 1.384 . S
C582 H591 0.931 . S
C583 C579 1.374 . S
C583 C584 1.390 . S
C583 H592 0.930 . S
C584 C580 1.391 . S
C584 C583 1.390 . S
C584 H593 0.930 . S
C585 Eu555 2.825 . S
C585 O570 1.238 . S
C585 O571 1.247 . S
C585 C579 1.507 . S
H586 C559 0.930 . S
H587 C560 0.931 . S
H588 C561 0.930 . S
H589 C562 0.930 . S
H590 C581 0.930 . S
H591 C582 0.931 . S
H592 C583 0.930 . S
H593 C584 0.930 . S
C594 C595 1.387 . S
C594 H598 0.950 . S
C594 C603 1.390 . S
C595 C594 1.387 . S
C595 C597 1.387 . S
H596 C603 0.950 . S
C597 C595 1.387 . S
C597 C599 1.390 . S
C597 H601 0.950 . S
H598 C594 0.950 . S
C599 C597 1.390 . S
C599 C600 1.387 . S
C599 H602 0.950 1_554 S
C600 C599 1.387 . S
C600 C603 1.387 . S
H601 C597 0.950 . S
H602 C599 0.950 1_556 S
C603 C594 1.390 . S
C603 H596 0.950 . S
C603 C600 1.387 . S
C604 C605 1.387 . S
C604 H608 0.950 . S
C604 C613 1.390 . S
C605 C604 1.387 . S
C605 C607 1.387 . S
H606 C613 0.950 . S
C607 C605 1.387 . S
C607 C609 1.390 . S
C607 H611 0.950 . S
H608 C604 0.950 . S
C609 C607 1.390 . S
C609 C610 1.387 . S
C609 H612 0.950 . S
C610 C609 1.387 . S
C610 C613 1.387 . S
H611 C607 0.950 . S
H612 C609 0.950 . S
C613 C604 1.390 . S
C613 H606 0.950 . S
C613 C610 1.387 . S
C614 C615 1.387 . S
C614 H618 0.950 1_554 S
C614 C623 1.390 . S
C615 C614 1.387 . S
C615 C617 1.387 . S
H616 C623 0.950 1_556 S
C617 C615 1.387 . S
C617 C619 1.390 . S
C617 H621 0.950 . S
H618 C614 0.950 1_556 S
C619 C617 1.390 . S
C619 C620 1.387 . S
C619 H622 0.950 . S
C620 C619 1.387 . S
C620 C623 1.387 . S
H621 C617 0.950 . S
H622 C619 0.950 . S
C623 C614 1.390 . S
C623 H616 0.950 1_554 S
C623 C620 1.387 . S
C624 C625 1.387 . S
C624 H628 0.950 . S
C624 C633 1.390 . S
C625 C624 1.387 . S
C625 C627 1.375 1_556 S
H626 C633 0.950 . S
C627 C625 1.375 1_554 S
C627 C629 1.393 . S
C627 H631 0.960 . S
H628 C624 0.950 . S
C629 C627 1.393 . S
C629 C630 1.387 1_554 S
C629 H632 0.950 . S
C630 C629 1.387 1_556 S
C630 C633 1.387 . S
H631 C627 0.960 . S
H632 C629 0.950 . S
C633 C624 1.390 . S
C633 H626 0.950 . S
C633 C630 1.387 . S
C634 C635 1.387 . S
C634 H638 0.950 . S
C634 C643 1.390 . S
C635 C634 1.387 . S
C635 C637 1.387 . S
H636 C643 0.950 . S
C637 C635 1.387 . S
C637 C639 1.390 . S
C637 H641 0.950 . S
H638 C634 0.950 . S
C639 C637 1.390 . S
C639 C640 1.387 . S
C639 H642 0.950 . S
C640 C639 1.387 . S
C640 C643 1.387 . S
H641 C637 0.950 . S
H642 C639 0.950 . S
C643 C634 1.390 . S
C643 H636 0.950 . S
C643 C640 1.387 . S
C644 C645 1.387 1_554 S
C644 H648 0.950 . S
C644 C653 1.390 . S
C645 C644 1.387 1_556 S
C645 C647 1.387 . S
H646 C653 0.950 . S
C647 C645 1.387 . S
C647 C649 1.390 . S
C647 H651 0.950 . S
H648 C644 0.950 . S
C649 C647 1.390 . S
C649 C650 1.387 . S
C649 H652 0.950 . S
C650 C649 1.387 . S
C650 C653 1.387 1_556 S
H651 C647 0.950 . S
H652 C649 0.950 . S
C653 C644 1.390 . S
C653 H646 0.950 . S
C653 C650 1.387 1_554 S
C654 C655 1.387 . S
C654 H658 0.950 . S
C654 C663 1.390 . S
C655 C654 1.387 . S
C655 C657 1.387 . S
H656 C663 0.950 . S
C657 C655 1.387 . S
C657 C659 1.390 . S
C657 H661 0.948 . S
H658 C654 0.950 . S
C659 C657 1.390 . S
C659 C660 1.387 . S
C659 H662 0.950 1_556 S
C660 C659 1.387 . S
C660 C663 1.387 . S
H661 C657 0.948 . S
H662 C659 0.950 1_554 S
C663 C654 1.390 . S
C663 H656 0.950 . S
C663 C660 1.387 . S
C664 C665 1.387 . S
C664 H668 0.950 . S
C664 C673 1.390 . S
C665 C664 1.387 . S
C665 C667 1.387 . S
H666 C673 0.950 . S
C667 C665 1.387 . S
C667 C669 1.390 . S
C667 H671 0.950 . S
H668 C664 0.950 . S
C669 C667 1.390 . S
C669 C670 1.387 . S
C669 H672 0.950 . S
C670 C669 1.387 . S
C670 C673 1.387 . S
H671 C667 0.950 . S
H672 C669 0.950 . S
C673 C664 1.390 . S
C673 H666 0.950 . S
C673 C670 1.387 . S
C674 C675 1.387 1_554 S
C674 H678 0.950 . S
C674 C683 1.390 . S
C675 C674 1.387 1_556 S
C675 C677 1.387 . S
H676 C683 0.950 . S
C677 C675 1.387 . S
C677 C679 1.390 . S
C677 H681 0.950 . S
H678 C674 0.950 . S
C679 C677 1.390 . S
C679 C680 1.387 1_556 S
C679 H682 0.950 . S
C680 C679 1.387 1_554 S
C680 C683 1.387 . S
H681 C677 0.950 . S
H682 C679 0.950 . S
C683 C674 1.390 . S
C683 H676 0.950 . S
C683 C680 1.387 . S
C684 C685 1.387 . S
C684 H688 0.950 . S
C684 C693 1.390 . S
C685 C684 1.387 . S
C685 C687 1.387 . S
H686 C693 0.950 . S
C687 C685 1.387 . S
C687 C689 1.390 . S
C687 H691 0.949 . S
H688 C684 0.950 . S
C689 C687 1.390 . S
C689 C690 1.387 . S
C689 H692 0.950 1_554 S
C690 C689 1.387 . S
C690 C693 1.387 . S
H691 C687 0.949 . S
H692 C689 0.950 1_556 S
C693 C684 1.390 . S
C693 H686 0.950 . S
C693 C690 1.387 . S
C694 C695 1.387 . S
C694 H698 0.950 . S
C694 C703 1.390 . S
C695 C694 1.387 . S
C695 C697 1.387 . S
H696 C703 0.950 . S
C697 C695 1.387 . S
C697 C699 1.390 . S
C697 H701 0.950 . S
H698 C694 0.950 . S
C699 C697 1.390 . S
C699 C700 1.387 . S
C699 H702 0.950 . S
C700 C699 1.387 . S
C700 C703 1.387 . S
H701 C697 0.950 . S
H702 C699 0.950 . S
C703 C694 1.390 . S
C703 H696 0.950 . S
C703 C700 1.387 . S
C704 C705 1.387 . S
C704 H708 0.950 . S
C704 C713 1.390 . S
C705 C704 1.387 . S
C705 C707 1.387 . S
H706 C713 0.950 . S
C707 C705 1.387 . S
C707 C709 1.390 . S
C707 H711 0.950 1_554 S
H708 C704 0.950 . S
C709 C707 1.390 . S
C709 C710 1.387 . S
C709 H712 0.950 1_554 S
C710 C709 1.387 . S
C710 C713 1.387 . S
H711 C707 0.950 1_556 S
H712 C709 0.950 1_556 S
C713 C704 1.390 . S
C713 H706 0.950 . S
C713 C710 1.387 . S
C714 C715 1.387 . S
C714 H718 0.950 . S
C714 C723 1.390 1_655 S
C715 C714 1.387 . S
C715 C717 1.387 . S
H716 C723 0.950 . S
C717 C715 1.387 . S
C717 C719 1.390 1_655 S
C717 H721 0.950 . S
H718 C714 0.950 . S
C719 C717 1.390 1_455 S
C719 C720 1.387 . S
C719 H722 0.950 . S
C720 C719 1.387 . S
C720 C723 1.387 . S
H721 C717 0.950 . S
H722 C719 0.950 . S
C723 C714 1.390 1_455 S
C723 H716 0.950 . S
C723 C720 1.387 . S
C724 C725 1.387 . S
C724 H728 0.950 . S
C724 C733 1.390 . S
C725 C724 1.387 . S
C725 C727 1.387 . S
H726 C733 0.950 . S
C727 C725 1.387 . S
C727 C729 1.390 . S
C727 H731 0.950 . S
H728 C724 0.950 . S
C729 C727 1.390 . S
C729 C730 1.387 . S
C729 H732 0.950 . S
C730 C729 1.387 . S
C730 C733 1.387 . S
H731 C727 0.950 . S
H732 C729 0.950 . S
C733 C724 1.390 . S
C733 H726 0.950 . S
C733 C730 1.387 . S
C734 C735 1.387 . S
C734 H738 0.950 . S
C734 C743 1.390 1_545 S
C735 C734 1.387 . S
C735 C737 1.387 . S
H736 C743 0.950 . S
C737 C735 1.387 . S
C737 C739 1.390 1_545 S
C737 H741 0.950 . S
H738 C734 0.950 . S
C739 C737 1.390 1_565 S
C739 C740 1.387 . S
C739 H742 0.950 . S
C740 C739 1.387 . S
C740 C743 1.387 . S
H741 C737 0.950 . S
H742 C739 0.950 . S
C743 C734 1.390 1_565 S
C743 H736 0.950 . S
C743 C740 1.387 . S
C744 C745 1.387 . S
C744 H748 0.950 . S
C744 C753 1.390 . S
C745 C744 1.387 . S
C745 C747 1.387 . S
H746 C753 0.950 . S
C747 C745 1.387 . S
C747 C749 1.390 . S
C747 H751 0.950 . S
H748 C744 0.950 . S
C749 C747 1.390 . S
C749 C750 1.387 . S
C749 H752 0.950 . S
C750 C749 1.387 . S
C750 C753 1.387 . S
H751 C747 0.950 . S
H752 C749 0.950 . S
C753 C744 1.390 . S
C753 H746 0.950 . S
C753 C750 1.387 . S
C754 C755 1.387 . S
C754 H758 0.950 . S
C754 C763 1.390 . S
C755 C754 1.387 . S
C755 C757 1.387 . S
H756 C763 0.950 . S
C757 C755 1.387 . S
C757 C759 1.390 . S
C757 H761 0.950 . S
H758 C754 0.950 . S
C759 C757 1.390 . S
C759 C760 1.387 . S
C759 H762 0.950 . S
C760 C759 1.387 . S
C760 C763 1.387 . S
H761 C757 0.950 . S
H762 C759 0.950 . S
C763 C754 1.390 . S
C763 H756 0.950 . S
C763 C760 1.387 . S
C764 C765 1.387 . S
C764 H768 0.950 . S
C764 C773 1.390 . S
C765 C764 1.387 . S
C765 C767 1.387 . S
H766 C773 0.950 . S
C767 C765 1.387 . S
C767 C769 1.390 . S
C767 H771 0.950 . S
H768 C764 0.950 . S
C769 C767 1.390 . S
C769 C770 1.387 . S
C769 H772 0.950 . S
C770 C769 1.387 . S
C770 C773 1.387 . S
H771 C767 0.950 . S
H772 C769 0.950 . S
C773 C764 1.390 . S
C773 H766 0.950 . S
C773 C770 1.387 . S
C774 C775 1.387 . S
C774 H778 0.950 . S
C774 C783 1.390 . S
C775 C774 1.387 . S
C775 C777 1.387 . S
H776 C783 0.950 . S
C777 C775 1.387 . S
C777 C779 1.390 . S
C777 H781 0.950 . S
H778 C774 0.950 . S
C779 C777 1.390 . S
C779 C780 1.387 . S
C779 H782 0.950 . S
C780 C779 1.387 . S
C780 C783 1.387 . S
H781 C777 0.950 . S
H782 C779 0.950 . S
C783 C774 1.390 . S
C783 H776 0.950 . S
C783 C780 1.387 . S
C784 C785 1.387 . S
C784 H788 0.950 . S
C784 C793 1.390 . S
C785 C784 1.387 . S
C785 C787 1.387 . S
H786 C793 0.950 . S
C787 C785 1.387 . S
C787 C789 1.390 . S
C787 H791 0.950 . S
H788 C784 0.950 . S
C789 C787 1.390 . S
C789 C790 1.387 . S
C789 H792 0.950 . S
C790 C789 1.387 . S
C790 C793 1.387 . S
H791 C787 0.950 . S
H792 C789 0.950 . S
C793 C784 1.390 . S
C793 H786 0.950 . S
C793 C790 1.387 . S
C794 C795 1.387 . S
C794 H798 0.950 . S
C794 C803 1.390 . S
C795 C794 1.387 . S
C795 C797 1.387 . S
H796 C803 0.950 . S
C797 C795 1.387 . S
C797 C799 1.390 . S
C797 H801 0.950 . S
H798 C794 0.950 . S
C799 C797 1.390 . S
C799 C800 1.387 . S
C799 H802 0.950 . S
C800 C799 1.387 . S
C800 C803 1.387 . S
H801 C797 0.950 . S
H802 C799 0.950 . S
C803 C794 1.390 . S
C803 H796 0.950 . S
C803 C800 1.387 . S
C804 C805 1.387 . S
C804 H808 0.950 . S
C804 C813 1.390 . S
C805 C804 1.387 . S
C805 C807 1.387 . S
H806 C813 0.950 1_565 S
C807 C805 1.387 . S
C807 C809 1.390 1_545 S
C807 H811 0.950 . S
H808 C804 0.950 . S
C809 C807 1.390 1_565 S
C809 C810 1.387 . S
C809 H812 0.950 . S
C810 C809 1.387 . S
C810 C813 1.387 1_565 S
H811 C807 0.950 . S
H812 C809 0.950 . S
C813 C804 1.390 . S
C813 H806 0.950 1_545 S
C813 C810 1.387 1_545 S
C814 C815 1.387 1_455 S
C814 H818 0.950 . S
C814 C823 1.390 . S
C815 C814 1.387 1_655 S
C815 C817 1.387 . S
H816 C823 0.950 . S
C817 C815 1.387 . S
C817 C819 1.390 1_655 S
C817 H821 0.950 . S
H818 C814 0.950 . S
C819 C817 1.390 1_455 S
C819 C820 1.387 . S
C819 H822 0.950 . S
C820 C819 1.387 . S
C820 C823 1.387 . S
H821 C817 0.950 . S
H822 C819 0.950 . S
C823 C814 1.390 . S
C823 H816 0.950 . S
C823 C820 1.387 . S
C824 C825 1.387 . S
C824 H828 0.950 . S
C824 C833 1.390 . S
C825 C824 1.387 . S
C825 C827 1.387 . S
H826 C833 0.950 . S
C827 C825 1.387 . S
C827 C829 1.390 . S
C827 H831 0.950 . S
H828 C824 0.950 . S
C829 C827 1.390 . S
C829 C830 1.387 . S
C829 H832 0.950 . S
C830 C829 1.387 . S
C830 C833 1.387 . S
H831 C827 0.950 . S
H832 C829 0.950 . S
C833 C824 1.390 . S
C833 H826 0.950 . S
C833 C830 1.387 . S
C834 C835 1.387 . S
C834 H838 0.950 . S
C834 C843 1.390 . S
C835 C834 1.387 . S
C835 C837 1.387 . S
H836 C843 0.950 . S
C837 C835 1.387 . S
C837 C839 1.390 . S
C837 H841 0.950 . S
H838 C834 0.950 . S
C839 C837 1.390 . S
C839 C840 1.387 . S
C839 H842 0.950 . S
C840 C839 1.387 . S
C840 C843 1.387 . S
H841 C837 0.950 . S
H842 C839 0.950 . S
C843 C834 1.390 . S
C843 H836 0.950 . S
C843 C840 1.387 . S
C844 C845 1.387 . S
C844 H848 0.950 . S
C844 C853 1.390 . S
C845 C844 1.387 . S
C845 C847 1.387 . S
H846 C853 0.950 . S
C847 C845 1.387 . S
C847 C849 1.390 . S
C847 H851 0.950 . S
H848 C844 0.950 . S
C849 C847 1.390 . S
C849 C850 1.387 . S
C849 H852 0.950 . S
C850 C849 1.387 . S
C850 C853 1.387 . S
H851 C847 0.950 . S
H852 C849 0.950 . S
C853 C844 1.390 . S
C853 H846 0.950 . S
C853 C850 1.387 . S
C854 C855 1.387 . S
C854 H858 0.950 . S
C854 C863 1.390 . S
C855 C854 1.387 . S
C855 C857 1.387 . S
H856 C863 0.950 . S
C857 C855 1.387 . S
C857 C859 1.390 . S
C857 H861 0.950 . S
H858 C854 0.950 . S
C859 C857 1.390 . S
C859 C860 1.387 . S
C859 H862 0.950 . S
C860 C859 1.387 . S
C860 C863 1.387 . S
H861 C857 0.950 . S
H862 C859 0.950 . S
C863 C854 1.390 . S
C863 H856 0.950 . S
C863 C860 1.387 . S
C864 C865 1.387 . S
C864 H868 0.950 . S
C864 C873 1.390 1_565 S
C865 C864 1.387 . S
C865 C867 1.387 . S
H866 C873 0.950 . S
C867 C865 1.387 . S
C867 C869 1.390 1_565 S
C867 H871 0.950 . S
H868 C864 0.950 . S
C869 C867 1.390 1_545 S
C869 C870 1.387 . S
C869 H872 0.950 . S
C870 C869 1.387 . S
C870 C873 1.387 . S
H871 C867 0.950 . S
H872 C869 0.950 . S
C873 C864 1.390 1_545 S
C873 H866 0.950 . S
C873 C870 1.387 . S
C874 C875 1.387 1_655 S
C874 H878 0.950 . S
C874 C883 1.390 . S
C875 C874 1.387 1_455 S
C875 C877 1.387 . S
H876 C883 0.950 . S
C877 C875 1.387 . S
C877 C879 1.390 1_455 S
C877 H881 0.950 . S
H878 C874 0.950 . S
C879 C877 1.390 1_655 S
C879 C880 1.387 . S
C879 H882 0.950 . S
C880 C879 1.387 . S
C880 C883 1.387 . S
H881 C877 0.950 . S
H882 C879 0.950 . S
C883 C874 1.390 . S
C883 H876 0.950 . S
C883 C880 1.387 . S
C884 C885 1.387 . S
C884 H888 0.950 . S
C884 C893 1.390 . S
C885 C884 1.387 . S
C885 C887 1.387 . S
H886 C893 0.950 . S
C887 C885 1.387 . S
C887 C889 1.390 . S
C887 H891 0.950 . S
H888 C884 0.950 . S
C889 C887 1.390 . S
C889 C890 1.387 . S
C889 H892 0.950 . S
C890 C889 1.387 . S
C890 C893 1.387 . S
H891 C887 0.950 . S
H892 C889 0.950 . S
C893 C884 1.390 . S
C893 H886 0.950 . S
C893 C890 1.387 . S
C894 C895 1.387 . S
C894 H898 0.950 . S
C894 C903 1.390 . S
C895 C894 1.387 . S
C895 C897 1.387 . S
H896 C903 0.950 1_655 S
C897 C895 1.387 . S
C897 C899 1.390 . S
C897 H901 0.950 . S
H898 C894 0.950 . S
C899 C897 1.390 . S
C899 C900 1.387 1_455 S
C899 H902 0.950 . S
C900 C899 1.387 1_655 S
C900 C903 1.387 1_655 S
H901 C897 0.950 . S
H902 C899 0.950 . S
C903 C894 1.390 . S
C903 H896 0.950 1_455 S
C903 C900 1.387 1_455 S
C904 C905 1.387 . S
C904 H908 0.950 . S
C904 C913 1.390 . S
C905 C904 1.387 . S
C905 C907 1.387 . S
H906 C913 0.950 . S
C907 C905 1.387 . S
C907 C909 1.390 . S
C907 H911 0.950 . S
H908 C904 0.950 . S
C909 C907 1.390 . S
C909 C910 1.387 . S
C909 H912 0.950 . S
C910 C909 1.387 . S
C910 C913 1.387 . S
H911 C907 0.950 . S
H912 C909 0.950 . S
C913 C904 1.390 . S
C913 H906 0.950 . S
C913 C910 1.387 . S
C914 C915 1.387 . S
C914 H918 0.950 . S
C914 C923 1.390 . S
C915 C914 1.387 . S
C915 C917 1.387 . S
H916 C923 0.950 1_545 S
C917 C915 1.387 . S
C917 C919 1.390 1_565 S
C917 H921 0.950 . S
H918 C914 0.950 . S
C919 C917 1.390 1_545 S
C919 C920 1.387 . S
C919 H922 0.950 . S
C920 C919 1.387 . S
C920 C923 1.387 1_545 S
H921 C917 0.950 . S
H922 C919 0.950 . S
C923 C914 1.390 . S
C923 H916 0.950 1_565 S
C923 C920 1.387 1_565 S
C924 C925 1.387 . S
C924 H928 0.950 . S
C924 C933 1.390 . S
C925 C924 1.387 . S
C925 C927 1.387 . S
H926 C933 0.950 . S
C927 C925 1.387 . S
C927 C929 1.390 . S
C927 H931 0.950 . S
H928 C924 0.950 . S
C929 C927 1.390 . S
C929 C930 1.387 . S
C929 H932 0.950 . S
C930 C929 1.387 . S
C930 C933 1.387 . S
H931 C927 0.950 . S
H932 C929 0.950 . S
C933 C924 1.390 . S
C933 H926 0.950 . S
C933 C930 1.387 . S
C934 C935 1.387 . S
C934 H938 0.950 . S
C934 C943 1.390 . S
C935 C934 1.387 . S
C935 C937 1.387 . S
H936 C943 0.950 . S
C937 C935 1.387 . S
C937 C939 1.390 . S
C937 H941 0.950 . S
H938 C934 0.950 . S
C939 C937 1.390 . S
C939 C940 1.387 . S
C939 H942 0.950 . S
C940 C939 1.387 . S
C940 C943 1.387 . S
H941 C937 0.950 . S
H942 C939 0.950 . S
C943 C934 1.390 . S
C943 H936 0.950 . S
C943 C940 1.387 . S
C944 C945 1.387 . S
C944 H948 0.950 . S
C944 C953 1.390 . S
C945 C944 1.387 . S
C945 C947 1.387 . S
H946 C953 0.950 . S
C947 C945 1.387 . S
C947 C949 1.390 . S
C947 H951 0.950 . S
H948 C944 0.950 . S
C949 C947 1.390 . S
C949 C950 1.387 . S
C949 H952 0.950 . S
C950 C949 1.387 . S
C950 C953 1.387 . S
H951 C947 0.950 . S
H952 C949 0.950 . S
C953 C944 1.390 . S
C953 H946 0.950 . S
C953 C950 1.387 . S
C954 C955 1.387 . S
C954 H958 0.950 . S
C954 C963 1.390 . S
C955 C954 1.387 . S
C955 C957 1.387 . S
H956 C963 0.950 . S
C957 C955 1.387 . S
C957 C959 1.390 . S
C957 H961 0.950 . S
H958 C954 0.950 . S
C959 C957 1.390 . S
C959 C960 1.387 . S
C959 H962 0.950 . S
C960 C959 1.387 . S
C960 C963 1.387 . S
H961 C957 0.950 . S
H962 C959 0.950 . S
C963 C954 1.390 . S
C963 H956 0.950 . S
C963 C960 1.387 . S
C964 C965 1.387 . S
C964 H968 0.950 1_455 S
C964 C973 1.390 . S
C965 C964 1.387 . S
C965 C967 1.387 . S
H966 C973 0.950 . S
C967 C965 1.387 . S
C967 C969 1.390 . S
C967 H971 0.950 . S
H968 C964 0.950 1_655 S
C969 C967 1.390 . S
C969 C970 1.387 . S
C969 H972 0.950 . S
C970 C969 1.387 . S
C970 C973 1.387 . S
H971 C967 0.950 . S
H972 C969 0.950 . S
C973 C964 1.390 . S
C973 H966 0.950 . S
C973 C970 1.387 . S
C974 C975 1.387 . S
C974 H978 0.950 . S
C974 C983 1.390 . S
C975 C974 1.387 . S
C975 C977 1.387 . S
H976 C983 0.950 . S
C977 C975 1.387 . S
C977 C979 1.390 . S
C977 H981 0.950 . S
H978 C974 0.950 . S
C979 C977 1.390 . S
C979 C980 1.387 . S
C979 H982 0.950 . S
C980 C979 1.387 . S
C980 C983 1.387 . S
H981 C977 0.950 . S
H982 C979 0.950 . S
C983 C974 1.390 . S
C983 H976 0.950 . S
C983 C980 1.387 . S
C984 C985 1.387 . S
C984 H988 0.950 . S
C984 C993 1.390 . S
C985 C984 1.387 . S
C985 C987 1.380 1_655 S
H986 C993 0.950 . S
C987 C985 1.380 1_455 S
C987 C989 1.383 1_455 S
C987 H991 0.962 . S
H988 C984 0.950 . S
C989 C987 1.383 1_655 S
C989 C990 1.398 . S
C989 H992 0.943 1_655 S
C990 C989 1.398 . S
C990 C993 1.387 . S
H991 C987 0.962 . S
H992 C989 0.943 1_455 S
C993 C984 1.390 . S
C993 H986 0.950 . S
C993 C990 1.387 . S
C994 C995 1.387 . S
C994 H998 0.950 . S
C994 C1003 1.390 . S
C995 C994 1.387 . S
C995 C997 1.387 . S
H996 C1003 0.950 . S
C997 C995 1.387 . S
C997 C999 1.390 . S
C997 H1001 0.950 . S
H998 C994 0.950 . S
C999 C997 1.390 . S
C999 C1000 1.387 . S
C999 H1002 0.950 . S
C1000 C999 1.387 . S
C1000 C1003 1.387 . S
H1001 C997 0.950 . S
H1002 C999 0.950 . S
C1003 C994 1.390 . S
C1003 H996 0.950 . S
C1003 C1000 1.387 . S
C1004 C1005 1.387 . S
C1004 H1008 0.950 . S
C1004 C1013 1.390 . S
C1005 C1004 1.387 . S
C1005 C1007 1.387 . S
H1006 C1013 0.950 . S
C1007 C1005 1.387 . S
C1007 C1009 1.390 . S
C1007 H1011 0.950 . S
H1008 C1004 0.950 . S
C1009 C1007 1.390 . S
C1009 C1010 1.387 . S
C1009 H1012 0.950 . S
C1010 C1009 1.387 . S
C1010 C1013 1.387 . S
H1011 C1007 0.950 . S
H1012 C1009 0.950 . S
C1013 C1004 1.390 . S
C1013 H1006 0.950 . S
C1013 C1010 1.387 . S
C1014 C1015 1.387 . S
C1014 H1018 0.950 . S
C1014 C1023 1.390 . S
C1015 C1014 1.387 . S
C1015 C1017 1.387 . S
H1016 C1023 0.950 . S
C1017 C1015 1.387 . S
C1017 C1019 1.390 . S
C1017 H1021 0.950 . S
H1018 C1014 0.950 . S
C1019 C1017 1.390 . S
C1019 C1020 1.387 . S
C1019 H1022 0.950 . S
C1020 C1019 1.387 . S
C1020 C1023 1.387 . S
H1021 C1017 0.950 . S
H1022 C1019 0.950 . S
C1023 C1014 1.390 . S
C1023 H1016 0.950 . S
C1023 C1020 1.387 . S
C1024 C1025 1.387 . S
C1024 H1028 0.950 . S
C1024 C1033 1.390 . S
C1025 C1024 1.387 . S
C1025 C1027 1.387 . S
H1026 C1033 0.950 . S
C1027 C1025 1.387 . S
C1027 C1029 1.390 . S
C1027 H1031 0.950 . S
H1028 C1024 0.950 . S
C1029 C1027 1.390 . S
C1029 C1030 1.387 . S
C1029 H1032 0.950 . S
C1030 C1029 1.387 . S
C1030 C1033 1.387 . S
H1031 C1027 0.950 . S
H1032 C1029 0.950 . S
C1033 C1024 1.390 . S
C1033 H1026 0.950 . S
C1033 C1030 1.387 . S
C1034 C1035 1.387 . S
C1034 H1038 0.950 . S
C1034 C1043 1.390 . S
C1035 C1034 1.387 . S
C1035 C1037 1.387 . S
H1036 C1043 0.950 . S
C1037 C1035 1.387 . S
C1037 C1039 1.390 . S
C1037 H1041 0.950 . S
H1038 C1034 0.950 . S
C1039 C1037 1.390 . S
C1039 C1040 1.387 . S
C1039 H1042 0.950 . S
C1040 C1039 1.387 . S
C1040 C1043 1.387 . S
H1041 C1037 0.950 . S
H1042 C1039 0.950 . S
C1043 C1034 1.390 . S
C1043 H1036 0.950 . S
C1043 C1040 1.387 . S
C1044 C1045 1.387 . S
C1044 H1048 0.950 . S
C1044 C1053 1.390 . S
C1045 C1044 1.387 . S
C1045 C1047 1.387 . S
H1046 C1053 0.950 . S
C1047 C1045 1.387 . S
C1047 C1049 1.390 . S
C1047 H1051 0.950 . S
H1048 C1044 0.950 . S
C1049 C1047 1.390 . S
C1049 C1050 1.387 . S
C1049 H1052 0.950 . S
C1050 C1049 1.387 . S
C1050 C1053 1.387 . S
H1051 C1047 0.950 . S
H1052 C1049 0.950 . S
C1053 C1044 1.390 . S
C1053 H1046 0.950 . S
C1053 C1050 1.387 . S
C1054 C1055 1.387 . S
C1054 H1058 0.950 . S
C1054 C1063 1.390 . S
C1055 C1054 1.387 . S
C1055 C1057 1.387 . S
H1056 C1063 0.950 . S
C1057 C1055 1.387 . S
C1057 C1059 1.390 . S
C1057 H1061 0.950 . S
H1058 C1054 0.950 . S
C1059 C1057 1.390 . S
C1059 C1060 1.387 . S
C1059 H1062 0.950 . S
C1060 C1059 1.387 . S
C1060 C1063 1.387 . S
H1061 C1057 0.950 . S
H1062 C1059 0.950 . S
C1063 C1054 1.390 . S
C1063 H1056 0.950 . S
C1063 C1060 1.387 . S
C1064 C1065 1.387 . S
C1064 H1068 0.950 . S
C1064 C1073 1.390 . S
C1065 C1064 1.387 . S
C1065 C1067 1.387 . S
H1066 C1073 0.950 . S
C1067 C1065 1.387 . S
C1067 C1069 1.390 . S
C1067 H1071 0.950 . S
H1068 C1064 0.950 . S
C1069 C1067 1.390 . S
C1069 C1070 1.387 . S
C1069 H1072 0.950 . S
C1070 C1069 1.387 . S
C1070 C1073 1.387 . S
H1071 C1067 0.950 . S
H1072 C1069 0.950 . S
C1073 C1064 1.390 . S
C1073 H1066 0.950 . S
C1073 C1070 1.387 . S
C1074 C1075 1.387 . S
C1074 H1078 0.950 . S
C1074 C1083 1.390 . S
C1075 C1074 1.387 . S
C1075 C1077 1.387 . S
H1076 C1083 0.950 . S
C1077 C1075 1.387 . S
C1077 C1079 1.390 . S
C1077 H1081 0.950 . S
H1078 C1074 0.950 . S
C1079 C1077 1.390 . S
C1079 C1080 1.387 . S
C1079 H1082 0.950 . S
C1080 C1079 1.387 . S
C1080 C1083 1.387 . S
H1081 C1077 0.950 . S
H1082 C1079 0.950 . S
C1083 C1074 1.390 . S
C1083 H1076 0.950 . S
C1083 C1080 1.387 . S
C1084 C1085 1.387 . S
C1084 H1088 0.950 . S
C1084 C1093 1.390 . S
C1085 C1084 1.387 . S
C1085 C1087 1.387 . S
H1086 C1093 0.950 . S
C1087 C1085 1.387 . S
C1087 C1089 1.390 . S
C1087 H1091 0.950 . S
H1088 C1084 0.950 . S
C1089 C1087 1.390 . S
C1089 C1090 1.387 . S
C1089 H1092 0.950 . S
C1090 C1089 1.387 . S
C1090 C1093 1.387 . S
H1091 C1087 0.950 . S
H1092 C1089 0.950 . S
C1093 C1084 1.390 . S
C1093 H1086 0.950 . S
C1093 C1090 1.387 . S
C1094 C1095 1.387 . S
C1094 H1098 0.950 . S
C1094 C1103 1.390 . S
C1095 C1094 1.387 . S
C1095 C1097 1.387 . S
H1096 C1103 0.950 . S
C1097 C1095 1.387 . S
C1097 C1099 1.390 . S
C1097 H1101 0.950 . S
H1098 C1094 0.950 . S
C1099 C1097 1.390 . S
C1099 C1100 1.387 . S
C1099 H1102 0.950 . S
C1100 C1099 1.387 . S
C1100 C1103 1.387 . S
H1101 C1097 0.950 . S
H1102 C1099 0.950 . S
C1103 C1094 1.390 . S
C1103 H1096 0.950 . S
C1103 C1100 1.387 . S
C1104 C1105 1.387 . S
C1104 H1108 0.950 . S
C1104 C1113 1.390 . S
C1105 C1104 1.387 . S
C1105 C1107 1.387 . S
H1106 C1113 0.950 . S
C1107 C1105 1.387 . S
C1107 C1109 1.390 . S
C1107 H1111 0.950 . S
H1108 C1104 0.950 . S
C1109 C1107 1.390 . S
C1109 C1110 1.387 . S
C1109 H1112 0.950 . S
C1110 C1109 1.387 . S
C1110 C1113 1.387 . S
H1111 C1107 0.950 . S
H1112 C1109 0.950 . S
C1113 C1104 1.390 . S
C1113 H1106 0.950 . S
C1113 C1110 1.387 . S
C1114 C1115 1.387 . S
C1114 H1118 0.950 . S
C1114 C1123 1.390 . S
C1115 C1114 1.387 . S
C1115 C1117 1.387 . S
H1116 C1123 0.950 . S
C1117 C1115 1.387 . S
C1117 C1119 1.390 . S
C1117 H1121 0.950 . S
H1118 C1114 0.950 . S
C1119 C1117 1.390 . S
C1119 C1120 1.387 . S
C1119 H1122 0.950 . S
C1120 C1119 1.387 . S
C1120 C1123 1.387 . S
H1121 C1117 0.950 . S
H1122 C1119 0.950 . S
C1123 C1114 1.390 . S
C1123 H1116 0.950 . S
C1123 C1120 1.387 . S
C1124 C1125 1.387 . S
C1124 H1128 0.950 . S
C1124 C1133 1.390 . S
C1125 C1124 1.387 . S
C1125 C1127 1.387 . S
H1126 C1133 0.950 . S
C1127 C1125 1.387 . S
C1127 C1129 1.390 . S
C1127 H1131 0.950 . S
H1128 C1124 0.950 . S
C1129 C1127 1.390 . S
C1129 C1130 1.387 . S
C1129 H1132 0.950 . S
C1130 C1129 1.387 . S
C1130 C1133 1.387 . S
H1131 C1127 0.950 . S
H1132 C1129 0.950 . S
C1133 C1124 1.390 . S
C1133 H1126 0.950 . S
C1133 C1130 1.387 . S
C595 N170 1.980 . S
C600 C237 2.037 . S
C605 N184 1.229 . S
C610 C277 1.227 . S
C615 N158 1.655 . S
C620 C329 1.649 . S
C625 N145 1.560 . S
C630 C289 1.553 . S
C640 C317 0.968 . S
C635 N119 0.968 . S
C645 N131 1.780 . S
C650 C249 1.834 1_556 S
C660 C256 1.747 . S
C655 N144 1.733 . S
C670 C296 1.646 . S
C665 N118 1.658 . S
C675 N132 1.557 . S
C680 C316 1.573 . S
C685 N171 1.489 . S
C690 C276 1.495 . S
C695 N183 1.367 . S
C700 C336 1.376 . S
C710 C236 1.486 . S
C705 N157 1.492 . S
C720 C357 2.037 . S
C715 N14 1.980 . S
C725 N28 1.231 . S
C730 C397 1.229 . S
C735 N2 1.654 . S
C740 C449 1.648 . S
C745 N223 1.560 . S
C750 C409 1.547 . S
C755 N197 0.968 . S
C760 C437 0.968 . S
C765 N209 1.783 . S
C770 C369 1.835 . S
C775 N222 1.734 . S
C780 C376 1.747 . S
C785 N196 1.658 . S
C790 C416 1.646 . S
C800 C436 1.572 . S
C795 N210 1.557 . S
C805 N15 1.488 . S
C810 C396 1.493 . S
C820 C456 1.376 . S
C815 N27 1.367 . S
C825 N1 1.492 . S
C830 C356 1.486 . S
C840 C477 2.036 . S
C835 N92 1.978 . S
C845 N106 1.229 . S
C850 C517 1.227 . S
C860 C569 1.649 . S
C855 N80 1.655 . S
C870 C529 1.547 . S
C865 N67 1.558 . S
C880 C557 0.968 . S
C875 N41 0.968 . S
C885 N53 1.783 . S
C890 C489 1.835 . S
C895 N66 1.732 . S
C900 C496 1.746 . S
C905 N40 1.658 . S
C910 C536 1.646 . S
C920 C556 1.572 . S
C915 N54 1.557 . S
C925 N93 1.491 . S
C930 C516 1.494 . S
C935 N105 1.366 . S
C940 C576 1.376 . S
C945 N79 1.494 . S
C950 C476 1.486 . S
C955 N200 1.170 . S
C960 C260 1.183 . S
C970 C300 1.883 . S
C965 N213 1.884 . S
C975 N226 1.603 . S
C980 C323 1.584 . S
C985 N83 1.815 . S
C990 C283 1.755 . S
C995 N96 1.724 . S
C1000 C340 1.756 . S
C1010 C243 1.324 . S
C1005 N109 1.376 . S
C1015 N44 1.169 . S
C1020 C380 1.182 . S
C1025 N57 1.883 . S
C1030 C420 1.884 . S
C1035 N70 1.605 . S
C1040 C443 1.583 . S
C1045 N161 1.816 . S
C1050 C403 1.757 . S
C1060 C460 1.756 . S
C1055 N174 1.723 . S
C1065 N187 1.376 . S
C1070 C363 1.323 . S
C1075 N122 1.169 . S
C1080 C500 1.183 . S
C1085 N135 1.883 . S
C1090 C540 1.884 . S
C1100 C563 1.583 . S
C1095 N148 1.604 . S
C1105 N5 1.815 . S
C1110 C523 1.755 . S
C1115 N18 1.725 . S
C1120 C580 1.757 . S
C1125 N31 1.376 . S
C1130 C483 1.324 . S
