# Generated by pormake.
# Topology pth, (4,4)-cn, num edge types: 1
# Building blocks:
#     Node 0, Type 0, BuildingBlock: GALJAG_clean_sbu_0, # of connection points: 4
#     Node 1, Type 0, BuildingBlock: GALJAG_clean_sbu_0, # of connection points: 4
#     Node 2, Type 0, BuildingBlock: GALJAG_clean_sbu_0, # of connection points: 4
#     Node 3, Type 1, BuildingBlock: MIFKUJ_clean_linker_1, # of connection points: 4
#     Node 4, Type 1, BuildingBlock: MIFKUJ_clean_linker_1, # of connection points: 4
#     Node 5, Type 1, BuildingBlock: MIFKUJ_clean_linker_1, # of connection points: 4
#     Edge 6, Type (0, 1), BuildingBlock: XUDNAN_clean_linker_2, # of connection points: 2
#     Edge 7, Type (0, 1), BuildingBlock: XUDNAN_clean_linker_2, # of connection points: 2
#     Edge 8, Type (0, 1), BuildingBlock: XUDNAN_clean_linker_2, # of connection points: 2
#     Edge 9, Type (0, 1), BuildingBlock: XUDNAN_clean_linker_2, # of connection points: 2
#     Edge 10, Type (0, 1), BuildingBlock: XUDNAN_clean_linker_2, # of connection points: 2
#     Edge 11, Type (0, 1), BuildingBlock: XUDNAN_clean_linker_2, # of connection points: 2
#     Edge 12, Type (0, 1), BuildingBlock: XUDNAN_clean_linker_2, # of connection points: 2
#     Edge 13, Type (0, 1), BuildingBlock: XUDNAN_clean_linker_2, # of connection points: 2
#     Edge 14, Type (0, 1), BuildingBlock: XUDNAN_clean_linker_2, # of connection points: 2
#     Edge 15, Type (0, 1), BuildingBlock: XUDNAN_clean_linker_2, # of connection points: 2
#     Edge 16, Type (0, 1), BuildingBlock: XUDNAN_clean_linker_2, # of connection points: 2
#     Edge 17, Type (0, 1), BuildingBlock: XUDNAN_clean_linker_2, # of connection points: 2
# Relax obj value: 0.002
# Max RMSD: 0.043
# Mean RMSD: 0.028
data_MOF--net-pth--node1-GALJAG_clean_sbu_0--node2-MIFKUJ_clean_linker_1--edge1-XUDNAN_clean_linker_2
_symmetry_space_group_name_H-M    P1
_symmetry_Int_Tables_number       1
_symmetry_cell_setting            triclinic
loop_
_symmetry_equiv_pos_as_xyz
'x, y, z'
_cell_length_a     29.914956
_cell_length_b     29.870939
_cell_length_c     61.579574
_cell_angle_alpha  90.120322
_cell_angle_beta   90.136252
_cell_angle_gamma 120.02703
loop_
_atom_site_label
_atom_site_type_symbol
_atom_site_fract_x
_atom_site_fract_y
_atom_site_fract_z
_atom_type_partial_charge
In0 In 1.00081 0.00625 0.04318 0.0
O1 O 0.95492 0.04673 0.05049 0.0
O2 O 0.01905 0.06408 0.07084 0.0
C3 C 0.94489 0.94772 0.00905 0.0
C4 C 0.08964 0.07456 0.02364 0.0
C5 C 0.98524 0.93058 0.07157 0.0
O6 O 0.92663 0.96522 0.02296 0.0
O7 O 0.99145 0.96041 0.01212 0.0
O8 O 0.02981 0.96337 0.06508 0.0
O9 O 0.94953 0.93669 0.06403 0.0
C10 C 0.98243 0.07209 0.06649 0.0
O11 O 0.08655 0.0395 0.03608 0.0
O12 O 0.04795 0.07496 0.02106 0.0
In13 In 0.01102 0.01202 0.37787 0.0
O14 O 0.03668 0.04967 0.34462 0.0
O15 O 0.01683 0.08889 0.368 0.0
C16 C 0.09542 0.03836 0.4027 0.0
C17 C 0.93454 0.99261 0.40633 0.0
C18 C 0.98464 0.92675 0.35361 0.0
O19 O 0.08578 0.07178 0.39499 0.0
O20 O 0.06286 0.99236 0.39779 0.0
O21 O 0.95115 0.93544 0.36192 0.0
O22 O 0.03068 0.96076 0.35759 0.0
C23 C 0.03137 0.088 0.34887 0.0
O24 O 0.93435 0.00712 0.38713 0.0
O25 O 0.97232 0.98668 0.41089 0.0
In26 In 0.00598 1.0006 0.71128 0.0
O27 O 0.95533 0.91288 0.71296 0.0
O28 O 0.95763 0.95598 0.74078 0.0
C29 C 0.07156 0.98819 0.68525 0.0
C30 C 0.94863 0.02829 0.68634 0.0
C31 C 0.06486 0.06639 0.74319 0.0
O32 O 0.04434 0.95572 0.69952 0.0
O33 O 0.06641 0.02759 0.68423 0.0
O34 O 0.01689 0.04905 0.74172 0.0
O35 O 0.08321 0.05048 0.72866 0.0
C36 C 0.93937 0.91209 0.73196 0.0
O37 O 0.98857 0.06092 0.69633 0.0
O38 O 0.9379 0.98226 0.68887 0.0
H39 H 0.06857 0.47008 0.16695 0.0
H40 H 0.05581 0.39762 0.14364 0.0
H41 H 0.91479 0.29647 0.17772 0.0
H42 H 0.92788 0.36857 0.20102 0.0
H43 H 0.99984 0.50881 0.17114 0.0
H44 H 0.08398 0.44525 0.2164 0.0
H45 H 0.09582 0.37992 0.23507 0.0
H46 H 0.95769 0.33561 0.27239 0.0
H47 H 0.94672 0.4019 0.25388 0.0
H48 H 0.92537 0.5222 0.25442 0.0
H49 H 0.91143 0.58214 0.27643 0.0
H50 H 0.04166 0.71108 0.24551 0.0
H51 H 0.05651 0.65068 0.22405 0.0
H52 H 1.00459 0.50469 0.25162 0.0
H53 H 0.92116 0.57001 0.20492 0.0
H54 H 0.91019 0.63417 0.18498 0.0
H55 H 0.04695 0.67274 0.14756 0.0
H56 H 0.05966 0.61097 0.16874 0.0
C57 C 0.99931 0.42456 0.18575 0.0
C58 C 0.0352 0.43216 0.16948 0.0
C59 C 0.02801 0.39083 0.15628 0.0
C60 C 0.98423 0.34162 0.15888 0.0
C61 C 0.94866 0.3341 0.1753 0.0
C62 C 0.95626 0.37514 0.18867 0.0
C63 C 1.00486 0.46842 0.19908 0.0
C64 C 1.00213 0.50876 0.18872 0.0
C65 C 0.00701 0.46761 0.22199 0.0
C66 C 0.01421 0.42815 0.2336 0.0
C67 C 0.05614 0.42132 0.22855 0.0
C68 C 0.06276 0.38381 0.23921 0.0
C69 C 0.02755 0.35223 0.25517 0.0
C70 C 0.9859 0.35964 0.26039 0.0
C71 C 0.97943 0.39737 0.24977 0.0
C72 C 0.99175 0.58192 0.23748 0.0
C73 C 0.95123 0.56338 0.25252 0.0
C74 C 0.94294 0.59772 0.26492 0.0
C75 C 0.97512 0.65142 0.26259 0.0
C76 C 0.01635 0.66995 0.2478 0.0
C77 C 0.02468 0.6355 0.2354 0.0
C78 C 0.99836 0.54478 0.22373 0.0
C79 C 1.00329 0.50552 0.23403 0.0
C80 C 0.99854 0.54692 0.20072 0.0
C81 C 0.9918 0.58623 0.18864 0.0
C82 C 0.94944 0.59306 0.19275 0.0
C83 C 0.94278 0.62933 0.18105 0.0
C84 C 0.97757 0.65874 0.16452 0.0
C85 C 0.01983 0.65158 0.16037 0.0
C86 C 0.02688 0.6158 0.17233 0.0
H87 H 0.62563 0.08715 0.50071 0.0
H88 H 0.69077 0.07485 0.48182 0.0
H89 H 0.64489 0.93591 0.51894 0.0
H90 H 0.5809 0.94897 0.5379 0.0
H91 H 0.52268 0.03126 0.504 0.0
H92 H 0.66155 0.10099 0.55166 0.0
H93 H 0.73481 0.11202 0.57332 0.0
H94 H 0.63192 0.98011 0.61223 0.0
H95 H 0.55886 0.96813 0.58995 0.0
H96 H 0.42143 0.94823 0.58359 0.0
H97 H 0.34664 0.93294 0.60459 0.0
H98 H 0.35261 0.06785 0.57585 0.0
H99 H 0.4305 0.08523 0.55605 0.0
H100 H 0.51707 0.02478 0.58447 0.0
H101 H 0.37563 0.96323 0.52906 0.0
H102 H 0.31298 0.97624 0.5084 0.0
H103 H 0.437 0.12161 0.48461 0.0
H104 H 0.49875 0.10938 0.50597 0.0
C105 C 0.59898 0.01945 0.52095 0.0
C106 C 0.6296 0.054 0.50468 0.0
C107 C 0.66665 0.04678 0.49385 0.0
C108 C 0.67342 0.00463 0.499 0.0
C109 C 0.64161 0.96942 0.5149 0.0
C110 C 0.60486 0.97676 0.52573 0.0
C111 C 0.56061 0.0273 0.53309 0.0
C112 C 0.52168 0.03037 0.52161 0.0
C113 C 0.56022 0.02784 0.55605 0.0
C114 C 0.60469 0.03344 0.56904 0.0
C115 C 0.6548 0.07397 0.56466 0.0
C116 C 0.69662 0.08062 0.57723 0.0
C117 C 0.68922 0.04707 0.59457 0.0
C118 C 0.63903 0.0063 0.59886 0.0
C119 C 0.59716 0.99965 0.58625 0.0
C120 C 0.43132 0.01744 0.56794 0.0
C121 C 0.40698 0.97486 0.58191 0.0
C122 C 0.36357 0.96574 0.59373 0.0
C123 C 0.34266 0.99852 0.59168 0.0
C124 C 0.36759 0.0418 0.57793 0.0
C125 C 0.41182 0.05145 0.56635 0.0
C126 C 0.47711 0.02526 0.55539 0.0
C127 C 0.51793 0.02556 0.56686 0.0
C128 C 0.48022 0.03006 0.53246 0.0
C129 C 0.44176 0.03573 0.51931 0.0
C130 C 0.38915 0.99802 0.51949 0.0
C131 C 0.35347 0.00534 0.50753 0.0
C132 C 0.36988 0.05024 0.49497 0.0
C133 C 0.42281 0.08716 0.49445 0.0
C134 C 0.45828 0.07997 0.50648 0.0
H135 H 0.4623 0.37716 0.84289 0.0
H136 H 0.38547 0.30578 0.82606 0.0
H137 H 0.29201 0.36407 0.85419 0.0
H138 H 0.36859 0.43351 0.87172 0.0
H139 H 0.50472 0.48317 0.8381 0.0
H140 H 0.45119 0.3624 0.89382 0.0
H141 H 0.39313 0.29444 0.91858 0.0
H142 H 0.35239 0.40027 0.94824 0.0
H143 H 0.41058 0.46844 0.92314 0.0
H144 H 0.55462 0.62252 0.90859 0.0
H145 H 0.62947 0.69805 0.92448 0.0
H146 H 0.72668 0.63623 0.90476 0.0
H147 H 0.65199 0.56217 0.88822 0.0
H148 H 0.51628 0.51203 0.91784 0.0
H149 H 0.58411 0.63527 0.85677 0.0
H150 H 0.65133 0.69272 0.83147 0.0
H151 H 0.678 0.56777 0.81387 0.0
H152 H 0.60975 0.51045 0.83865 0.0
C153 C 0.42103 0.41037 0.85864 0.0
C154 C 0.42512 0.37426 0.84545 0.0
C155 C 0.38111 0.33365 0.83573 0.0
C156 C 0.33221 0.32888 0.83871 0.0
C157 C 0.32859 0.36558 0.85186 0.0
C158 C 0.37245 0.40563 0.8618 0.0
C159 C 0.46748 0.45375 0.86887 0.0
C160 C 0.50744 0.48925 0.85554 0.0
C161 C 0.47124 0.46136 0.89162 0.0
C162 C 0.43488 0.42036 0.90652 0.0
C163 C 0.42945 0.37093 0.90552 0.0
C164 C 0.39661 0.33224 0.91981 0.0
C165 C 0.36839 0.34211 0.9354 0.0
C166 C 0.37345 0.39152 0.93629 0.0
C167 C 0.40679 0.43049 0.92207 0.0
C168 C 0.59793 0.58707 0.89714 0.0
C169 C 0.59216 0.62545 0.90773 0.0
C170 C 0.63501 0.66846 0.91689 0.0
C171 C 0.68438 0.67353 0.91588 0.0
C172 C 0.68964 0.6344 0.90546 0.0
C173 C 0.64691 0.59175 0.89613 0.0
C174 C 0.55282 0.54216 0.887 0.0
C175 C 0.51316 0.50625 0.90039 0.0
C176 C 0.55034 0.5331 0.86436 0.0
C177 C 0.59195 0.56862 0.84953 0.0
C178 C 0.60466 0.62045 0.84749 0.0
C179 C 0.64331 0.6533 0.8331 0.0
C180 C 0.67007 0.63491 0.82052 0.0
C181 C 0.65759 0.58307 0.82292 0.0
C182 C 0.61872 0.55024 0.83716 0.0
H183 H 0.04832 0.14762 0.09469 0.0
H184 H 0.89505 0.07933 0.06629 0.0
H185 H 0.87865 0.14045 0.08714 0.0
H186 H 0.01583 0.17235 0.14794 0.0
H187 H 0.0747 0.2334 0.15116 0.0
H188 H 0.07391 0.18346 0.13444 0.0
H189 H 0.10874 0.24686 0.10199 0.0
H190 H 0.1096 0.29698 0.11861 0.0
H191 H 0.07444 0.27904 0.09329 0.0
H192 H 0.87826 0.20749 0.11159 0.0
H193 H 0.89557 0.27938 0.13656 0.0
H194 H 0.05056 0.30695 0.14775 0.0
C195 C 0.01124 0.14542 0.09295 0.0
C196 C 0.97276 0.1086 0.079 0.0
C197 C 0.92498 0.10725 0.07692 0.0
C198 C 0.9153 0.14172 0.08871 0.0
C199 C 0.95405 0.17761 0.1023 0.0
C200 C 1.00122 0.18002 0.10436 0.0
C201 C 0.03679 0.22327 0.11961 0.0
C202 C 0.05113 0.20182 0.13946 0.0
C203 C 0.08525 0.26394 0.10765 0.0
C204 C 1.00215 0.24464 0.12589 0.0
C205 C 0.95445 0.21746 0.11585 0.0
C206 C 0.91551 0.22919 0.11948 0.0
C207 C 0.92559 0.26987 0.13372 0.0
C208 C 0.97437 0.29861 0.14399 0.0
C209 C 0.01312 0.28586 0.13993 0.0
H210 H 0.85422 0.01182 0.40168 0.0
H211 H 0.92809 0.96016 0.44813 0.0
H212 H 0.86789 0.95557 0.47651 0.0
H213 H 0.83457 0.09266 0.43788 0.0
H214 H 0.77244 0.07719 0.427 0.0
H215 H 0.81913 0.07348 0.40983 0.0
H216 H 0.75286 0.97808 0.40051 0.0
H217 H 0.70579 0.98161 0.41752 0.0
H218 H 0.72248 0.93219 0.42216 0.0
H219 H 0.80346 0.96122 0.50029 0.0
H220 H 0.7367 0.97396 0.51783 0.0
H221 H 0.70287 0.02032 0.45595 0.0
C222 C 0.85723 0.99889 0.41775 0.0
C223 C 0.89572 0.98619 0.4227 0.0
C224 C 0.89881 0.96993 0.44397 0.0
C225 C 0.86482 0.96723 0.4602 0.0
C226 C 0.82786 0.98078 0.4549 0.0
C227 C 0.82356 0.99597 0.43419 0.0
C228 C 0.78122 0.00972 0.433 0.0
C229 C 0.80317 0.06664 0.42655 0.0
C230 C 0.73803 0.97321 0.41737 0.0
C231 C 0.76293 1.00055 0.45635 0.0
C232 C 0.7903 0.98373 0.46867 0.0
C233 C 0.78131 0.97378 0.49077 0.0
C234 C 0.74309 0.98089 0.50056 0.0
C235 C 0.71409 0.99769 0.48827 0.0
C236 C 0.72445 0.00772 0.46585 0.0
H237 H 0.89882 0.90043 0.77292 0.0
H238 H 0.89175 0.81478 0.71474 0.0
H239 H 0.82355 0.73448 0.7314 0.0
H240 H 0.87779 0.79916 0.81148 0.0
H241 H 0.83899 0.81362 0.82934 0.0
H242 H 0.88858 0.86411 0.81313 0.0
H243 H 0.82089 0.88449 0.79677 0.0
H244 H 0.77105 0.83389 0.81282 0.0
H245 H 0.76402 0.83357 0.78373 0.0
H246 H 0.75344 0.6646 0.75347 0.0
H247 H 0.68775 0.60873 0.78001 0.0
H248 H 0.7421 0.73878 0.82458 0.0
C249 C 0.88321 0.86468 0.76378 0.0
C250 C 0.90058 0.86378 0.74254 0.0
C251 C 0.87909 0.81632 0.73104 0.0
C252 C 0.84031 0.77053 0.74036 0.0
C253 C 0.82364 0.77279 0.76122 0.0
C254 C 0.84457 0.81851 0.77287 0.0
C255 C 0.81913 0.81034 0.7949 0.0
C256 C 0.85847 0.82252 0.8133 0.0
C257 C 0.79217 0.84248 0.79717 0.0
C258 C 0.78026 0.753 0.79368 0.0
C259 C 0.78359 0.73216 0.77412 0.0
C260 C 0.75088 0.68031 0.76897 0.0
C261 C 0.71386 0.64879 0.78425 0.0
C262 C 0.70988 0.66904 0.80455 0.0
C263 C 0.74375 0.722 0.80921 0.0
H264 H 0.05521 0.91125 0.09277 0.0
H265 H 0.89107 0.85133 0.08313 0.0
H266 H 0.87166 0.77655 0.10622 0.0
H267 H 0.05081 0.7894 0.09179 0.0
H268 H 0.09871 0.80606 0.1128 0.0
H269 H 0.10025 0.85589 0.09586 0.0
H270 H 0.09714 0.90503 0.13002 0.0
H271 H 0.09581 0.85544 0.14707 0.0
H272 H 0.04579 0.87206 0.14938 0.0
H273 H 0.8696 0.7065 0.12876 0.0
H274 H 0.88484 0.64671 0.15071 0.0
H275 H 0.05023 0.75341 0.14768 0.0
C276 C 0.01523 0.88249 0.09563 0.0
C277 C 0.97464 0.88709 0.08614 0.0
C278 C 0.9228 0.84869 0.09026 0.0
C279 C 0.91135 0.806 0.10333 0.0
C280 C 0.95213 0.80238 0.11233 0.0
C281 C 1.00302 0.83966 0.10883 0.0
C282 C 0.0394 0.82611 0.12049 0.0
C283 C 0.07435 0.81893 0.10426 0.0
C284 C 0.07141 0.8671 0.13777 0.0
C285 C 1.00092 0.77518 0.13085 0.0
C286 C 0.95085 0.76228 0.12588 0.0
C287 C 0.90863 0.71647 0.13303 0.0
C288 C 0.91775 0.68289 0.14566 0.0
C289 C 0.96874 0.69534 0.15124 0.0
C290 C 0.01077 0.74234 0.14366 0.0
H291 H 0.12591 0.97226 0.41823 0.0
H292 H 0.16635 0.13351 0.41892 0.0
H293 H 0.24042 0.15407 0.44315 0.0
H294 H 0.15753 0.96507 0.47383 0.0
H295 H 0.18328 0.92313 0.4682 0.0
H296 H 0.13358 0.92127 0.45101 0.0
H297 H 0.19187 0.93924 0.41731 0.0
H298 H 0.24164 0.94089 0.43438 0.0
H299 H 0.25581 0.99513 0.41718 0.0
H300 H 0.3092 0.15636 0.46771 0.0
H301 H 0.36942 0.14124 0.48969 0.0
H302 H 0.28503 0.97868 0.47183 0.0
C303 C 0.15034 0.01194 0.42346 0.0
C304 C 0.14043 0.05135 0.41675 0.0
C305 C 0.17336 0.10278 0.42388 0.0
C306 C 0.21539 0.11476 0.43765 0.0
C307 C 0.22392 0.07487 0.44405 0.0
C308 C 0.19246 0.02455 0.43709 0.0
C309 C 0.21027 0.98889 0.44606 0.0
C310 C 0.16868 0.94713 0.46064 0.0
C311 C 0.22583 0.96463 0.42763 0.0
C312 C 0.25672 0.02698 0.4592 0.0
C313 C 0.26385 0.07632 0.4579 0.0
C314 C 0.30418 0.11795 0.46873 0.0
C315 C 0.33837 0.10898 0.48108 0.0
C316 C 0.33227 0.05881 0.48241 0.0
C317 C 0.29057 0.01736 0.47137 0.0
H318 H 0.16968 0.13035 0.7434 0.0
H319 H 0.03227 0.08422 0.78193 0.0
H320 H 0.08593 0.14448 0.81108 0.0
H321 H 0.25651 0.14677 0.78731 0.0
H322 H 0.31052 0.20323 0.7757 0.0
H323 H 0.26158 0.15509 0.75826 0.0
H324 H 0.24661 0.22526 0.74064 0.0
H325 H 0.29563 0.27363 0.75796 0.0
H326 H 0.23157 0.26509 0.75767 0.0
H327 H 0.15494 0.20842 0.83627 0.0
H328 H 0.23309 0.27572 0.85468 0.0
H329 H 0.32457 0.28507 0.79833 0.0
C330 C 0.15098 0.13274 0.75804 0.0
C331 C 0.09694 0.10243 0.76055 0.0
C332 C 0.07367 0.10712 0.77975 0.0
C333 C 0.10382 0.14109 0.7964 0.0
C334 C 0.15706 0.17049 0.79343 0.0
C335 C 0.18039 0.16708 0.77464 0.0
C336 C 0.23801 0.20459 0.77512 0.0
C337 C 0.26844 0.17568 0.77404 0.0
C338 C 0.25387 0.24451 0.75676 0.0
C339 C 0.24351 0.2294 0.79717 0.0
C340 C 0.19646 0.20889 0.80754 0.0
C341 C 0.19194 0.22517 0.82821 0.0
C342 C 0.23663 0.2638 0.83847 0.0
C343 C 0.28529 0.28639 0.82797 0.0
C344 C 0.28838 0.26849 0.80703 0.0
H345 H 0.86064 0.96285 0.66401 0.0
H346 H 0.96399 0.12524 0.6784 0.0
H347 H 0.90926 0.14804 0.65618 0.0
H348 H 0.8332 0.97959 0.60855 0.0
H349 H 0.76661 0.92894 0.60986 0.0
H350 H 0.81428 0.92578 0.62668 0.0
H351 H 0.76063 0.91793 0.66092 0.0
H352 H 0.71285 0.92117 0.64421 0.0
H353 H 0.74303 0.96648 0.66623 0.0
H354 H 0.84245 0.15266 0.63268 0.0
H355 H 0.76873 0.13902 0.60981 0.0
H356 H 0.70994 0.97348 0.61056 0.0
C357 C 0.87186 1.00324 0.66245 0.0
C358 C 0.91655 0.04235 0.6729 0.0
C359 C 0.92989 0.09471 0.67051 0.0
C360 C 0.89907 0.10799 0.65793 0.0
C361 C 0.85515 0.06843 0.64788 0.0
C362 C 0.8416 0.01713 0.65 0.0
C363 C 0.79234 0.98193 0.63769 0.0
C364 C 0.80222 0.95233 0.61962 0.0
C365 C 0.7497 0.94469 0.65319 0.0
C366 C 0.78009 0.02141 0.62836 0.0
C367 C 0.81682 0.07108 0.63438 0.0
C368 C 0.81359 0.11395 0.62778 0.0
C369 C 0.77173 0.10582 0.61469 0.0
C370 C 0.73358 0.05519 0.60832 0.0
C371 C 0.7381 0.01259 0.61531 0.0
H372 H 0.83976 0.88775 0.007 0.0
H373 H 0.9797 0.92774 0.97139 0.0
H374 H 0.92769 0.86551 0.9425 0.0
H375 H 0.77866 0.75345 0.99615 0.0
H376 H 0.71456 0.74443 0.99398 0.0
H377 H 0.76224 0.7956 0.01073 0.0
H378 H 0.74854 0.86258 0.98945 0.0
H379 H 0.70074 0.81155 0.97262 0.0
H380 H 0.75543 0.86612 0.96033 0.0
H381 H 0.86056 0.79741 0.91802 0.0
H382 H 0.78406 0.72527 0.90061 0.0
H383 H 0.68864 0.72524 0.9537 0.0
C384 C 0.85931 0.88402 0.99292 0.0
C385 C 0.91362 0.91288 0.99124 0.0
C386 C 0.93805 0.9061 0.97288 0.0
C387 C 0.90884 0.87099 0.9564 0.0
C388 C 0.85534 0.84263 0.95865 0.0
C389 C 0.83081 0.8485 0.97652 0.0
C390 C 0.77325 0.81073 0.97576 0.0
C391 C 0.7562 0.77387 0.99531 0.0
C392 C 0.7427 0.83948 0.97446 0.0
C393 C 0.76928 0.78251 0.95475 0.0
C394 C 0.81695 0.80189 0.94502 0.0
C395 C 0.82305 0.78176 0.92555 0.0
C396 C 0.77933 0.74041 0.91588 0.0
C397 C 0.73012 0.71902 0.9258 0.0
C398 C 0.72535 0.74089 0.94546 0.0
H399 H 0.05182 0.90104 0.3354 0.0
H400 H 0.88851 0.84918 0.3412 0.0
H401 H 0.86796 0.77314 0.31815 0.0
H402 H 0.04881 0.86355 0.2798 0.0
H403 H 0.09588 0.84345 0.2838 0.0
H404 H 0.0974 0.89351 0.30068 0.0
H405 H 0.09205 0.8413 0.33511 0.0
H406 H 0.09069 0.79117 0.31835 0.0
H407 H 0.03993 0.77558 0.33773 0.0
H408 H 0.86583 0.70298 0.29431 0.0
H409 H 0.88186 0.64367 0.272 0.0
H410 H 0.04674 0.74148 0.2826 0.0
C411 C 0.01169 0.87372 0.33184 0.0
C412 C 0.97168 0.88094 0.34005 0.0
C413 C 0.9197 0.8443 0.33505 0.0
C414 C 0.90771 0.80109 0.32198 0.0
C415 C 0.94818 0.79522 0.3141 0.0
C416 C 0.9991 0.83052 0.31889 0.0
C417 C 0.03547 0.8153 0.30858 0.0
C418 C 0.0715 0.8564 0.29225 0.0
C419 C 0.06634 0.80523 0.32598 0.0
C420 C 0.9971 0.76583 0.2972 0.0
C421 C 0.94695 0.75489 0.30055 0.0
C422 C 0.90493 0.71108 0.29166 0.0
C423 C 0.91443 0.67748 0.27911 0.0
C424 C 0.96556 0.68779 0.27558 0.0
C425 C 0.00727 0.73275 0.28475 0.0
H426 H 0.15798 0.06147 0.66408 0.0
H427 H 0.06251 0.8961 0.67384 0.0
H428 H 0.11885 0.88093 0.64931 0.0
H429 H 0.19019 0.05783 0.60754 0.0
H430 H 0.25605 0.10944 0.6105 0.0
H431 H 0.20653 0.1075 0.62774 0.0
H432 H 0.25871 0.11008 0.66184 0.0
H433 H 0.30847 0.11231 0.64471 0.0
H434 H 0.27833 0.06235 0.66488 0.0
H435 H 0.18408 0.88348 0.62344 0.0
H436 H 0.2592 0.90329 0.60074 0.0
H437 H 0.3176 0.06765 0.61029 0.0
C438 C 0.14883 0.02211 0.66087 0.0
C439 C 0.10574 0.97985 0.67065 0.0
C440 C 0.09536 0.92893 0.66646 0.0
C441 C 0.12695 0.91994 0.65248 0.0
C442 C 0.16917 0.96236 0.64309 0.0
C443 C 0.18065 0.01249 0.6473 0.0
C444 C 0.23026 0.05119 0.63616 0.0
C445 C 0.22013 0.08338 0.61949 0.0
C446 C 0.27137 0.08603 0.6529 0.0
C447 C 0.2448 0.01494 0.62505 0.0
C448 C 0.20858 0.96391 0.62905 0.0
C449 C 0.21308 0.9233 0.62041 0.0
C450 C 0.25626 0.93506 0.60766 0.0
C451 C 0.29516 0.98711 0.60395 0.0
C452 C 0.2887 0.02747 0.61262 0.0
H453 H 0.1061 0.1562 0.99797 0.0
H454 H 0.18238 0.07723 0.02454 0.0
H455 H 0.26279 0.13869 0.00565 0.0
H456 H 0.16523 0.18223 0.94575 0.0
H457 H 0.17093 0.245 0.94332 0.0
H458 H 0.11988 0.19564 0.95937 0.0
H459 H 0.15017 0.25727 0.99265 0.0
H460 H 0.20137 0.30684 0.97671 0.0
H461 H 0.21619 0.28598 1.0018 0.0
H462 H 0.33381 0.20682 0.98291 0.0
H463 H 0.39108 0.27779 0.95838 0.0
H464 H 0.26885 0.31309 0.94696 0.0
C465 C 0.13978 0.15194 0.99988 0.0
C466 C 0.13805 0.11193 0.01271 0.0
C467 C 0.1829 0.10764 0.01481 0.0
C468 C 0.22871 0.14235 1.00415 0.0
C469 C 0.22906 0.18126 0.99156 0.0
C470 C 0.18584 0.18637 0.98944 0.0
C471 C 0.19628 0.23122 0.97475 0.0
C472 C 0.16099 0.21238 0.95461 0.0
C473 C 0.19068 0.27278 0.98723 0.0
C474 C 0.25202 0.25027 0.96879 0.0
C475 C 0.27017 0.2209 0.97866 0.0
C476 C 0.32008 0.23019 0.97517 0.0
C477 C 0.35222 0.27039 0.96114 0.0
C478 C 0.3344 0.30092 0.95079 0.0
C479 C 0.28373 0.29083 0.95486 0.0
H480 H 0.01393 0.16962 0.35296 0.0
H481 H 0.06444 0.09336 0.30723 0.0
H482 H 0.0714 0.15427 0.27863 0.0
H483 H 0.93586 0.19144 0.31599 0.0
H484 H 0.95221 0.25394 0.32682 0.0
H485 H 0.95406 0.20641 0.34414 0.0
H486 H 0.04938 0.27123 0.35408 0.0
H487 H 0.04773 0.31911 0.33689 0.0
H488 H 0.09622 0.30102 0.33273 0.0
H489 H 0.06846 0.22014 0.25455 0.0
H490 H 0.05785 0.28806 0.23672 0.0
H491 H 0.01097 0.32306 0.2982 0.0
C492 C 0.02707 0.16618 0.337 0.0
C493 C 0.03881 0.12688 0.33232 0.0
C494 C 0.05539 0.12328 0.31119 0.0
C495 C 0.05944 0.15767 0.29483 0.0
C496 C 0.0469 0.19552 0.29988 0.0
C497 C 0.03132 0.20021 0.32046 0.0
C498 C 0.01876 0.24345 0.32141 0.0
C499 C 0.96184 0.22254 0.32744 0.0
C500 C 0.05521 0.28624 0.33721 0.0
C501 C 0.02916 0.26188 0.29809 0.0
C502 C 0.04548 0.23379 0.28598 0.0
C503 C 0.05628 0.24282 0.26392 0.0
C504 C 0.05039 0.28172 0.25396 0.0
C505 C 0.03392 0.3113 0.26605 0.0
C506 C 0.02326 0.30101 0.28844 0.0
loop_
_geom_bond_atom_site_label_1
_geom_bond_atom_site_label_2
_geom_bond_distance
_geom_bond_site_symmetry_2
_ccdc_geom_bond_type
In0 O1 2.294 1_455 S
In0 O2 2.326 . S
In0 O6 2.266 1_445 S
In0 O7 2.326 1_445 S
In0 O8 2.266 1_545 S
In0 O9 2.326 1_445 S
In0 O11 2.294 . S
In0 O12 2.326 . S
O1 In0 2.294 1_655 S
O1 C10 1.240 1_655 S
O2 In0 2.326 . S
O2 C10 1.252 . S
C3 O6 1.252 . S
C3 O7 1.260 . S
C4 O11 1.240 . S
C4 O12 1.252 . S
C5 O8 1.240 1_655 S
C5 O9 1.280 . S
O6 In0 2.266 1_665 S
O6 C3 1.252 . S
O7 In0 2.326 1_665 S
O7 C3 1.260 . S
O8 In0 2.266 1_565 S
O8 C5 1.240 1_455 S
O9 In0 2.326 1_665 S
O9 C5 1.280 . S
C10 O1 1.240 1_455 S
C10 O2 1.252 . S
O11 In0 2.294 . S
O11 C4 1.240 . S
O12 In0 2.326 . S
O12 C4 1.252 . S
In13 O14 2.294 . S
In13 O15 2.326 1_455 S
In13 O19 2.266 . S
In13 O20 2.326 1_545 S
In13 O21 2.266 1_445 S
In13 O22 2.326 1_545 S
In13 O24 2.294 1_445 S
In13 O25 2.326 1_455 S
O14 In13 2.294 . S
O14 C23 1.240 1_455 S
O15 In13 2.326 1_655 S
O15 C23 1.252 . S
C16 O19 1.252 1_565 S
C16 O20 1.260 . S
C17 O24 1.240 1_545 S
C17 O25 1.252 . S
C18 O21 1.252 1_455 S
C18 O22 1.260 . S
O19 In13 2.266 . S
O19 C16 1.252 1_545 S
O20 In13 2.326 1_565 S
O20 C16 1.260 . S
O21 In13 2.266 1_665 S
O21 C18 1.252 1_655 S
O22 In13 2.326 1_565 S
O22 C18 1.260 . S
C23 O14 1.240 1_655 S
C23 O15 1.252 . S
O24 In13 2.294 1_665 S
O24 C17 1.240 1_565 S
O25 In13 2.326 1_655 S
O25 C17 1.252 . S
In26 O27 2.283 1_445 S
In26 O28 2.328 1_445 S
In26 O32 2.256 1_545 S
In26 O33 2.327 . S
In26 O34 2.277 . S
In26 O35 2.324 . S
In26 O37 2.305 1_455 S
In26 O38 2.325 1_445 S
O27 In26 2.283 1_665 S
O27 C36 1.240 . S
O28 In26 2.328 1_665 S
O28 C36 1.252 . S
C29 O32 1.252 1_545 S
C29 O33 1.260 . S
C30 O37 1.240 1_565 S
C30 O38 1.252 . S
C31 O34 1.252 . S
C31 O35 1.260 . S
O32 In26 2.256 1_565 S
O32 C29 1.252 1_565 S
O33 In26 2.327 . S
O33 C29 1.260 . S
O34 In26 2.277 . S
O34 C31 1.252 . S
O35 In26 2.324 . S
O35 C31 1.260 . S
C36 O27 1.240 . S
C36 O28 1.252 . S
O37 In26 2.305 1_655 S
O37 C30 1.240 1_545 S
O38 In26 2.325 1_665 S
O38 C30 1.252 . S
H39 C58 0.949 . S
H40 C59 0.950 . S
H41 C61 0.950 . S
H42 C62 0.950 . S
H43 C64 0.950 . S
H44 C67 0.950 . S
H45 C68 0.950 . S
H46 C70 0.951 . S
H47 C71 0.949 . S
H48 C73 0.949 . S
H49 C74 0.950 . S
H50 C76 0.950 . S
H51 C77 0.950 . S
H52 C79 0.950 . S
H53 C82 0.950 . S
H54 C83 0.950 . S
H55 C85 0.951 . S
H56 C86 0.949 . S
C57 C58 1.376 . S
C57 C62 1.386 1_455 S
C57 C63 1.483 . S
C58 H39 0.949 . S
C58 C57 1.376 . S
C58 C59 1.397 . S
C59 H40 0.950 . S
C59 C58 1.397 . S
C59 C60 1.391 . S
C60 C59 1.391 . S
C60 C61 1.405 1_455 S
C61 H41 0.950 . S
C61 C60 1.405 1_655 S
C61 C62 1.367 . S
C62 H42 0.950 . S
C62 C57 1.386 1_655 S
C62 C61 1.367 . S
C63 C57 1.483 . S
C63 C64 1.382 . S
C63 C65 1.403 1_455 S
C64 H43 0.950 . S
C64 C63 1.382 . S
C64 C80 1.411 . S
C65 C63 1.403 1_655 S
C65 C66 1.489 . S
C65 C79 1.411 . S
C66 C65 1.489 . S
C66 C67 1.383 1_655 S
C66 C71 1.382 . S
C67 H44 0.950 . S
C67 C66 1.383 1_455 S
C67 C68 1.395 . S
C68 H45 0.950 . S
C68 C67 1.395 . S
C68 C69 1.288 1_455 S
C69 C68 1.288 1_655 S
C69 C70 1.392 . S
C70 H46 0.951 . S
C70 C69 1.392 . S
C70 C71 1.392 . S
C71 H47 0.949 . S
C71 C66 1.382 . S
C71 C70 1.392 . S
C72 C73 1.376 . S
C72 C77 1.386 1_655 S
C72 C78 1.493 . S
C73 H48 0.949 . S
C73 C72 1.376 . S
C73 C74 1.397 . S
C74 H49 0.950 . S
C74 C73 1.397 . S
C74 C75 1.383 1_655 S
C75 C74 1.383 1_455 S
C75 C76 1.422 . S
C76 H50 0.950 . S
C76 C75 1.422 . S
C76 C77 1.367 . S
C77 H51 0.950 . S
C77 C72 1.386 1_455 S
C77 C76 1.367 . S
C78 C72 1.493 . S
C78 C79 1.374 . S
C78 C80 1.400 1_655 S
C79 H52 0.950 . S
C79 C65 1.411 . S
C79 C78 1.374 . S
C80 C64 1.411 . S
C80 C78 1.400 1_455 S
C80 C81 1.489 . S
C81 C80 1.489 . S
C81 C82 1.383 1_455 S
C81 C86 1.382 . S
C82 H53 0.950 . S
C82 C81 1.383 1_655 S
C82 C83 1.395 . S
C83 H54 0.950 . S
C83 C82 1.395 . S
C83 C84 1.288 1_655 S
C84 C83 1.288 1_455 S
C84 C85 1.392 . S
C85 H55 0.951 . S
C85 C84 1.392 . S
C85 C86 1.392 . S
C86 H56 0.949 . S
C86 C81 1.382 . S
C86 C85 1.392 . S
H87 C106 0.949 . S
H88 C107 0.950 . S
H89 C109 0.950 . S
H90 C110 0.950 . S
H91 C112 0.950 . S
H92 C115 0.950 . S
H93 C116 0.950 . S
H94 C118 0.951 . S
H95 C119 0.949 . S
H96 C121 0.949 . S
H97 C122 0.950 . S
H98 C124 0.950 . S
H99 C125 0.950 . S
H100 C127 0.950 . S
H101 C130 0.950 . S
H102 C131 0.950 . S
H103 C133 0.951 . S
H104 C134 0.949 . S
C105 C106 1.376 . S
C105 C110 1.386 1_545 S
C105 C111 1.483 . S
C106 H87 0.949 . S
C106 C105 1.376 . S
C106 C107 1.397 . S
C107 H88 0.950 . S
C107 C106 1.397 . S
C107 C108 1.391 . S
C108 C107 1.391 . S
C108 C109 1.405 1_545 S
C109 H89 0.950 . S
C109 C108 1.405 1_565 S
C109 C110 1.367 . S
C110 H90 0.950 . S
C110 C105 1.386 1_565 S
C110 C109 1.367 . S
C111 C105 1.483 . S
C111 C112 1.382 . S
C111 C113 1.403 1_545 S
C112 H91 0.950 . S
C112 C111 1.382 . S
C112 C128 1.411 . S
C113 C111 1.403 1_565 S
C113 C114 1.489 . S
C113 C127 1.411 . S
C114 C113 1.489 . S
C114 C115 1.383 1_565 S
C114 C119 1.382 . S
C115 H92 0.950 . S
C115 C114 1.383 1_545 S
C115 C116 1.395 . S
C116 H93 0.950 . S
C116 C115 1.395 . S
C116 C117 1.288 1_545 S
C117 C116 1.288 1_565 S
C117 C118 1.392 . S
C118 H94 0.951 . S
C118 C117 1.392 . S
C118 C119 1.392 . S
C119 H95 0.949 . S
C119 C114 1.382 . S
C119 C118 1.392 . S
C120 C121 1.376 . S
C120 C125 1.386 1_565 S
C120 C126 1.483 . S
C121 H96 0.949 . S
C121 C120 1.376 . S
C121 C122 1.397 . S
C122 H97 0.950 . S
C122 C121 1.397 . S
C122 C123 1.389 . S
C123 C122 1.389 . S
C123 C124 1.407 1_565 S
C124 H98 0.950 . S
C124 C123 1.407 1_545 S
C124 C125 1.367 . S
C125 H99 0.950 . S
C125 C120 1.386 1_545 S
C125 C124 1.367 . S
C126 C120 1.483 . S
C126 C127 1.382 . S
C126 C128 1.403 1_565 S
C127 H100 0.950 . S
C127 C113 1.411 . S
C127 C126 1.382 . S
C128 C112 1.411 . S
C128 C126 1.403 1_545 S
C128 C129 1.489 . S
C129 C128 1.489 . S
C129 C130 1.383 1_545 S
C129 C134 1.382 . S
C130 H101 0.950 . S
C130 C129 1.383 1_565 S
C130 C131 1.395 . S
C131 H102 0.950 . S
C131 C130 1.395 . S
C131 C132 1.288 1_565 S
C132 C131 1.288 1_545 S
C132 C133 1.392 . S
C133 H103 0.951 . S
C133 C132 1.392 . S
C133 C134 1.392 . S
C134 H104 0.949 . S
C134 C129 1.382 . S
C134 C133 1.392 . S
H135 C154 0.949 . S
H136 C155 0.950 . S
H137 C157 0.950 . S
H138 C158 0.950 . S
H139 C160 0.950 . S
H140 C163 0.950 . S
H141 C164 0.950 . S
H142 C166 0.951 . S
H143 C167 0.949 . S
H144 C169 0.949 . S
H145 C170 0.950 . S
H146 C172 0.950 . S
H147 C173 0.950 . S
H148 C175 0.950 . S
H149 C178 0.950 . S
H150 C179 0.950 . S
H151 C181 0.951 . S
H152 C182 0.949 . S
C153 C154 1.376 . S
C153 C158 1.386 . S
C153 C159 1.483 . S
C154 H135 0.949 . S
C154 C153 1.376 . S
C154 C155 1.397 . S
C155 H136 0.950 . S
C155 C154 1.397 . S
C155 C156 1.391 . S
C156 C155 1.391 . S
C156 C157 1.405 . S
C157 H137 0.950 . S
C157 C156 1.405 . S
C157 C158 1.367 . S
C158 H138 0.950 . S
C158 C153 1.386 . S
C158 C157 1.367 . S
C159 C153 1.483 . S
C159 C160 1.382 . S
C159 C161 1.403 . S
C160 H139 0.950 . S
C160 C159 1.382 . S
C160 C176 1.411 . S
C161 C159 1.403 . S
C161 C162 1.489 . S
C161 C175 1.411 . S
C162 C161 1.489 . S
C162 C163 1.383 . S
C162 C167 1.382 . S
C163 H140 0.950 . S
C163 C162 1.383 . S
C163 C164 1.395 . S
C164 H141 0.950 . S
C164 C163 1.395 . S
C164 C165 1.288 . S
C165 C164 1.288 . S
C165 C166 1.392 . S
C166 H142 0.951 . S
C166 C165 1.392 . S
C166 C167 1.392 . S
C167 H143 0.949 . S
C167 C162 1.382 . S
C167 C166 1.392 . S
C168 C169 1.376 . S
C168 C173 1.386 . S
C168 C174 1.483 . S
C169 H144 0.949 . S
C169 C168 1.376 . S
C169 C170 1.397 . S
C170 H145 0.950 . S
C170 C169 1.397 . S
C170 C171 1.391 . S
C171 C170 1.391 . S
C171 C172 1.405 . S
C172 H146 0.950 . S
C172 C171 1.405 . S
C172 C173 1.367 . S
C173 H147 0.950 . S
C173 C168 1.386 . S
C173 C172 1.367 . S
C174 C168 1.483 . S
C174 C175 1.382 . S
C174 C176 1.403 . S
C175 H148 0.950 . S
C175 C161 1.411 . S
C175 C174 1.382 . S
C176 C160 1.411 . S
C176 C174 1.403 . S
C176 C177 1.489 . S
C177 C176 1.489 . S
C177 C178 1.383 . S
C177 C182 1.382 . S
C178 H149 0.950 . S
C178 C177 1.383 . S
C178 C179 1.395 . S
C179 H150 0.950 . S
C179 C178 1.395 . S
C179 C180 1.288 . S
C180 C179 1.288 . S
C180 C181 1.392 . S
C181 H151 0.951 . S
C181 C180 1.392 . S
C181 C182 1.392 . S
C182 H152 0.949 . S
C182 C177 1.382 . S
C182 C181 1.392 . S
H183 C195 0.930 . S
H184 C197 0.930 . S
H185 C198 0.930 . S
H186 C202 0.959 . S
H187 C202 0.959 . S
H188 C202 0.961 . S
H189 C203 0.960 . S
H190 C203 0.961 . S
H191 C203 0.959 . S
H192 C206 0.929 . S
H193 C207 0.931 . S
H194 C209 0.930 . S
C195 H183 0.930 . S
C195 C196 1.399 . S
C195 C200 1.399 . S
C196 C195 1.399 . S
C196 C197 1.376 1_455 S
C197 H184 0.930 . S
C197 C196 1.376 1_655 S
C197 C198 1.388 . S
C198 H185 0.930 . S
C198 C197 1.388 . S
C198 C199 1.390 . S
C199 C198 1.390 . S
C199 C200 1.394 1_655 S
C199 C205 1.465 . S
C200 C195 1.399 . S
C200 C199 1.394 1_455 S
C200 C201 1.516 . S
C201 C200 1.516 . S
C201 C202 1.502 . S
C201 C203 1.561 . S
C201 C204 1.526 . S
C202 H186 0.959 . S
C202 H187 0.959 . S
C202 H188 0.961 . S
C202 C201 1.502 . S
C203 H189 0.960 . S
C203 H190 0.961 . S
C203 H191 0.959 . S
C203 C201 1.561 . S
C204 C201 1.526 . S
C204 C205 1.396 1_455 S
C204 C209 1.390 . S
C205 C199 1.465 . S
C205 C204 1.396 1_655 S
C205 C206 1.399 . S
C206 H192 0.929 . S
C206 C205 1.399 . S
C206 C207 1.385 . S
C207 H193 0.931 . S
C207 C206 1.385 . S
C207 C208 1.389 . S
C208 C207 1.389 . S
C208 C209 1.387 1_655 S
C209 H194 0.930 . S
C209 C204 1.390 . S
C209 C208 1.387 1_455 S
H210 C222 0.930 . S
H211 C224 0.930 . S
H212 C225 0.930 . S
H213 C229 0.971 . S
H214 C229 0.962 1_565 S
H215 C229 0.956 1_565 S
H216 C230 0.960 . S
H217 C230 0.961 . S
H218 C230 0.959 . S
H219 C233 0.929 . S
H220 C234 0.931 . S
H221 C236 0.930 . S
C222 H210 0.930 . S
C222 C223 1.399 1_565 S
C222 C227 1.399 . S
C223 C222 1.399 1_545 S
C223 C224 1.376 . S
C224 H211 0.930 . S
C224 C223 1.376 . S
C224 C225 1.388 . S
C225 H212 0.930 . S
C225 C224 1.388 . S
C225 C226 1.390 . S
C226 C225 1.390 . S
C226 C227 1.394 1_545 S
C226 C232 1.465 . S
C227 C222 1.399 . S
C227 C226 1.394 1_565 S
C227 C228 1.516 . S
C228 C227 1.516 . S
C228 C229 1.493 1_565 S
C228 C230 1.561 . S
C228 C231 1.526 . S
C229 H213 0.971 . S
C229 H214 0.962 1_545 S
C229 H215 0.956 1_545 S
C229 C228 1.493 1_545 S
C230 H216 0.960 . S
C230 H217 0.961 . S
C230 H218 0.959 . S
C230 C228 1.561 . S
C231 C228 1.526 . S
C231 C232 1.396 1_565 S
C231 C236 1.390 . S
C232 C226 1.465 . S
C232 C231 1.396 1_545 S
C232 C233 1.399 . S
C233 H219 0.929 . S
C233 C232 1.399 . S
C233 C234 1.385 . S
C234 H220 0.931 . S
C234 C233 1.385 . S
C234 C235 1.389 . S
C235 C234 1.389 . S
C235 C236 1.387 1_545 S
C236 H221 0.930 . S
C236 C231 1.390 . S
C236 C235 1.387 1_565 S
H237 C249 0.930 . S
H238 C251 0.930 . S
H239 C252 0.930 . S
H240 C256 0.959 . S
H241 C256 0.959 . S
H242 C256 0.961 . S
H243 C257 0.960 . S
H244 C257 0.961 . S
H245 C257 0.959 . S
H246 C260 0.929 . S
H247 C261 0.931 . S
H248 C263 0.930 . S
C249 H237 0.930 . S
C249 C250 1.399 . S
C249 C254 1.399 . S
C250 C249 1.399 . S
C250 C251 1.376 . S
C251 H238 0.930 . S
C251 C250 1.376 . S
C251 C252 1.388 . S
C252 H239 0.930 . S
C252 C251 1.388 . S
C252 C253 1.390 . S
C253 C252 1.390 . S
C253 C254 1.394 . S
C253 C259 1.465 . S
C254 C249 1.399 . S
C254 C253 1.394 . S
C254 C255 1.516 . S
C255 C254 1.516 . S
C255 C256 1.502 . S
C255 C257 1.561 . S
C255 C258 1.526 . S
C256 H240 0.959 . S
C256 H241 0.959 . S
C256 H242 0.961 . S
C256 C255 1.502 . S
C257 H243 0.960 . S
C257 H244 0.961 . S
C257 H245 0.959 . S
C257 C255 1.561 . S
C258 C255 1.526 . S
C258 C259 1.396 . S
C258 C263 1.390 . S
C259 C253 1.465 . S
C259 C258 1.396 . S
C259 C260 1.399 . S
C260 H246 0.929 . S
C260 C259 1.399 . S
C260 C261 1.385 . S
C261 H247 0.931 . S
C261 C260 1.385 . S
C261 C262 1.389 . S
C262 C261 1.389 . S
C262 C263 1.387 . S
C263 H248 0.930 . S
C263 C258 1.390 . S
C263 C262 1.387 . S
H264 C276 0.930 . S
H265 C278 0.930 . S
H266 C279 0.930 . S
H267 C283 0.959 . S
H268 C283 0.959 . S
H269 C283 0.961 . S
H270 C284 0.960 1_455 S
H271 C284 0.961 1_455 S
H272 C284 0.959 . S
H273 C287 0.929 . S
H274 C288 0.931 . S
H275 C290 0.930 . S
C276 H264 0.930 . S
C276 C277 1.399 1_455 S
C276 C281 1.399 . S
C277 C276 1.399 1_655 S
C277 C278 1.376 . S
C278 H265 0.930 . S
C278 C277 1.376 . S
C278 C279 1.388 . S
C279 H266 0.930 . S
C279 C278 1.388 . S
C279 C280 1.390 . S
C280 C279 1.390 . S
C280 C281 1.394 1_655 S
C280 C286 1.465 . S
C281 C276 1.399 . S
C281 C280 1.394 1_455 S
C281 C282 1.516 . S
C282 C281 1.516 . S
C282 C283 1.502 . S
C282 C284 1.561 1_455 S
C282 C285 1.526 . S
C283 H267 0.959 . S
C283 H268 0.959 . S
C283 H269 0.961 . S
C283 C282 1.502 . S
C284 H270 0.960 1_655 S
C284 H271 0.961 1_655 S
C284 H272 0.959 . S
C284 C282 1.561 1_655 S
C285 C282 1.526 . S
C285 C286 1.396 1_455 S
C285 C290 1.390 . S
C286 C280 1.465 . S
C286 C285 1.396 1_655 S
C286 C287 1.399 . S
C287 H273 0.929 . S
C287 C286 1.399 . S
C287 C288 1.385 . S
C288 H274 0.931 . S
C288 C287 1.385 . S
C288 C289 1.392 . S
C289 C288 1.392 . S
C289 C290 1.388 1_655 S
C290 H275 0.930 . S
C290 C285 1.390 . S
C290 C289 1.388 1_455 S
H291 C303 0.930 . S
H292 C305 0.930 . S
H293 C306 0.930 . S
H294 C310 0.959 . S
H295 C310 0.959 . S
H296 C310 0.961 . S
H297 C311 0.962 1_565 S
H298 C311 0.961 1_565 S
H299 C311 0.959 . S
H300 C314 0.929 . S
H301 C315 0.931 . S
H302 C317 0.930 . S
C303 H291 0.930 . S
C303 C304 1.399 1_565 S
C303 C308 1.399 . S
C304 C303 1.399 1_545 S
C304 C305 1.376 . S
C305 H292 0.930 . S
C305 C304 1.376 . S
C305 C306 1.388 . S
C306 H293 0.930 . S
C306 C305 1.388 . S
C306 C307 1.390 . S
C307 C306 1.390 . S
C307 C308 1.394 1_545 S
C307 C313 1.465 . S
C308 C303 1.399 . S
C308 C307 1.394 1_565 S
C308 C309 1.516 . S
C309 C308 1.516 . S
C309 C310 1.502 . S
C309 C311 1.561 1_565 S
C309 C312 1.526 . S
C310 H294 0.959 . S
C310 H295 0.959 . S
C310 H296 0.961 . S
C310 C309 1.502 . S
C311 H297 0.962 1_545 S
C311 H298 0.961 1_545 S
C311 H299 0.959 . S
C311 C309 1.561 1_545 S
C312 C309 1.526 . S
C312 C313 1.396 1_565 S
C312 C317 1.390 . S
C313 C307 1.465 . S
C313 C312 1.396 1_545 S
C313 C314 1.399 . S
C314 H300 0.929 . S
C314 C313 1.399 . S
C314 C315 1.385 . S
C315 H301 0.931 . S
C315 C314 1.385 . S
C315 C316 1.389 . S
C316 C315 1.389 . S
C316 C317 1.387 1_545 S
C317 H302 0.930 . S
C317 C312 1.390 . S
C317 C316 1.387 1_565 S
H318 C330 0.930 . S
H319 C332 0.930 . S
H320 C333 0.930 . S
H321 C337 0.959 . S
H322 C337 0.959 . S
H323 C337 0.961 . S
H324 C338 0.960 . S
H325 C338 0.961 . S
H326 C338 0.959 . S
H327 C341 0.929 . S
H328 C342 0.931 . S
H329 C344 0.930 . S
C330 H318 0.930 . S
C330 C331 1.399 . S
C330 C335 1.399 . S
C331 C330 1.399 . S
C331 C332 1.376 . S
C332 H319 0.930 . S
C332 C331 1.376 . S
C332 C333 1.388 . S
C333 H320 0.930 . S
C333 C332 1.388 . S
C333 C334 1.390 . S
C334 C333 1.390 . S
C334 C335 1.394 . S
C334 C340 1.465 . S
C335 C330 1.399 . S
C335 C334 1.394 . S
C335 C336 1.516 . S
C336 C335 1.516 . S
C336 C337 1.502 . S
C336 C338 1.561 . S
C336 C339 1.526 . S
C337 H321 0.959 . S
C337 H322 0.959 . S
C337 H323 0.961 . S
C337 C336 1.502 . S
C338 H324 0.960 . S
C338 H325 0.961 . S
C338 H326 0.959 . S
C338 C336 1.561 . S
C339 C336 1.526 . S
C339 C340 1.396 . S
C339 C344 1.390 . S
C340 C334 1.465 . S
C340 C339 1.396 . S
C340 C341 1.399 . S
C341 H327 0.929 . S
C341 C340 1.399 . S
C341 C342 1.385 . S
C342 H328 0.931 . S
C342 C341 1.385 . S
C342 C343 1.389 . S
C343 C342 1.389 . S
C343 C344 1.387 . S
C344 H329 0.930 . S
C344 C339 1.390 . S
C344 C343 1.387 . S
H345 C357 0.930 . S
H346 C359 0.930 . S
H347 C360 0.930 . S
H348 C364 0.959 . S
H349 C364 0.959 . S
H350 C364 0.961 . S
H351 C365 0.960 . S
H352 C365 0.961 . S
H353 C365 0.959 . S
H354 C368 0.929 . S
H355 C369 0.931 . S
H356 C371 0.930 . S
C357 H345 0.930 . S
C357 C358 1.390 1_565 S
C357 C362 1.399 . S
C358 C357 1.390 1_545 S
C358 C359 1.399 . S
C359 H346 0.930 . S
C359 C358 1.399 . S
C359 C360 1.388 . S
C360 H347 0.930 . S
C360 C359 1.388 . S
C360 C361 1.390 . S
C361 C360 1.390 . S
C361 C362 1.394 1_545 S
C361 C367 1.465 . S
C362 C357 1.399 . S
C362 C361 1.394 1_565 S
C362 C363 1.516 . S
C363 C362 1.516 . S
C363 C364 1.502 . S
C363 C365 1.561 . S
C363 C366 1.526 . S
C364 H348 0.959 . S
C364 H349 0.959 . S
C364 H350 0.961 . S
C364 C363 1.502 . S
C365 H351 0.960 . S
C365 H352 0.961 . S
C365 H353 0.959 . S
C365 C363 1.561 . S
C366 C363 1.526 . S
C366 C367 1.396 1_565 S
C366 C371 1.390 . S
C367 C361 1.465 . S
C367 C366 1.396 1_545 S
C367 C368 1.399 . S
C368 H354 0.929 . S
C368 C367 1.399 . S
C368 C369 1.385 . S
C369 H355 0.931 . S
C369 C368 1.385 . S
C369 C370 1.389 . S
C370 C369 1.389 . S
C370 C371 1.387 1_545 S
C371 H356 0.930 . S
C371 C366 1.390 . S
C371 C370 1.387 1_565 S
H372 C384 0.930 1_554 S
H373 C386 0.930 . S
H374 C387 0.930 . S
H375 C391 0.959 1_554 S
H376 C391 0.959 . S
H377 C391 0.961 1_554 S
H378 C392 0.960 . S
H379 C392 0.961 . S
H380 C392 0.959 . S
H381 C395 0.929 . S
H382 C396 0.931 . S
H383 C398 0.930 . S
C384 H372 0.930 1_556 S
C384 C385 1.399 . S
C384 C389 1.399 . S
C385 C384 1.399 . S
C385 C386 1.376 . S
C386 H373 0.930 . S
C386 C385 1.376 . S
C386 C387 1.388 . S
C387 H374 0.930 . S
C387 C386 1.388 . S
C387 C388 1.390 . S
C388 C387 1.390 . S
C388 C389 1.394 . S
C388 C394 1.465 . S
C389 C384 1.399 . S
C389 C388 1.394 . S
C389 C390 1.516 . S
C390 C389 1.516 . S
C390 C391 1.502 . S
C390 C392 1.561 . S
C390 C393 1.526 . S
C391 H375 0.959 1_556 S
C391 H376 0.959 . S
C391 H377 0.961 1_556 S
C391 C390 1.502 . S
C392 H378 0.960 . S
C392 H379 0.961 . S
C392 H380 0.959 . S
C392 C390 1.561 . S
C393 C390 1.526 . S
C393 C394 1.396 . S
C393 C398 1.390 . S
C394 C388 1.465 . S
C394 C393 1.396 . S
C394 C395 1.399 . S
C395 H381 0.929 . S
C395 C394 1.399 . S
C395 C396 1.385 . S
C396 H382 0.931 . S
C396 C395 1.385 . S
C396 C397 1.389 . S
C397 C396 1.389 . S
C397 C398 1.387 . S
C398 H383 0.930 . S
C398 C393 1.390 . S
C398 C397 1.387 . S
H399 C411 0.930 . S
H400 C413 0.930 . S
H401 C414 0.930 . S
H402 C418 0.959 . S
H403 C418 0.959 . S
H404 C418 0.961 . S
H405 C419 0.960 . S
H406 C419 0.961 . S
H407 C419 0.959 . S
H408 C422 0.929 . S
H409 C423 0.931 . S
H410 C425 0.930 . S
C411 H399 0.930 . S
C411 C412 1.416 . S
C411 C416 1.399 . S
C412 C411 1.416 . S
C412 C413 1.363 1_455 S
C413 H400 0.930 . S
C413 C412 1.363 1_655 S
C413 C414 1.388 . S
C414 H401 0.930 . S
C414 C413 1.388 . S
C414 C415 1.390 . S
C415 C414 1.390 . S
C415 C416 1.394 1_655 S
C415 C421 1.465 . S
C416 C411 1.399 . S
C416 C415 1.394 1_455 S
C416 C417 1.516 . S
C417 C416 1.516 . S
C417 C418 1.502 . S
C417 C419 1.561 . S
C417 C420 1.526 . S
C418 H402 0.959 . S
C418 H403 0.959 . S
C418 H404 0.961 . S
C418 C417 1.502 . S
C419 H405 0.960 . S
C419 H406 0.961 . S
C419 H407 0.959 . S
C419 C417 1.561 . S
C420 C417 1.526 . S
C420 C421 1.396 1_455 S
C420 C425 1.390 . S
C421 C415 1.465 . S
C421 C420 1.396 1_655 S
C421 C422 1.399 . S
C422 H408 0.929 . S
C422 C421 1.399 . S
C422 C423 1.385 . S
C423 H409 0.931 . S
C423 C422 1.385 . S
C423 C424 1.389 . S
C424 C423 1.389 . S
C424 C425 1.387 1_655 S
C425 H410 0.930 . S
C425 C420 1.390 . S
C425 C424 1.387 1_455 S
H426 C438 0.930 . S
H427 C440 0.930 . S
H428 C441 0.930 . S
H429 C445 0.959 . S
H430 C445 0.959 . S
H431 C445 0.961 . S
H432 C446 0.960 . S
H433 C446 0.961 . S
H434 C446 0.959 . S
H435 C449 0.929 . S
H436 C450 0.931 . S
H437 C452 0.930 . S
C438 H426 0.930 . S
C438 C439 1.409 . S
C438 C443 1.399 . S
C439 C438 1.409 . S
C439 C440 1.353 1_545 S
C440 H427 0.930 . S
C440 C439 1.353 1_565 S
C440 C441 1.388 . S
C441 H428 0.930 . S
C441 C440 1.388 . S
C441 C442 1.390 . S
C442 C441 1.390 . S
C442 C443 1.394 1_565 S
C442 C448 1.465 . S
C443 C438 1.399 . S
C443 C442 1.394 1_545 S
C443 C444 1.516 . S
C444 C443 1.516 . S
C444 C445 1.502 . S
C444 C446 1.561 . S
C444 C447 1.526 . S
C445 H429 0.959 . S
C445 H430 0.959 . S
C445 H431 0.961 . S
C445 C444 1.502 . S
C446 H432 0.960 . S
C446 H433 0.961 . S
C446 H434 0.959 . S
C446 C444 1.561 . S
C447 C444 1.526 . S
C447 C448 1.396 1_545 S
C447 C452 1.390 . S
C448 C442 1.465 . S
C448 C447 1.396 1_565 S
C448 C449 1.399 . S
C449 H435 0.929 . S
C449 C448 1.399 . S
C449 C450 1.385 . S
C450 H436 0.931 . S
C450 C449 1.385 . S
C450 C451 1.389 . S
C451 C450 1.389 . S
C451 C452 1.387 1_565 S
C452 H437 0.930 . S
C452 C447 1.390 . S
C452 C451 1.387 1_545 S
H453 C465 0.930 . S
H454 C467 0.930 . S
H455 C468 0.930 . S
H456 C472 0.959 . S
H457 C472 0.959 . S
H458 C472 0.961 . S
H459 C473 0.960 . S
H460 C473 0.961 . S
H461 C473 0.959 . S
H462 C476 0.929 . S
H463 C477 0.931 . S
H464 C479 0.930 . S
C465 H453 0.930 . S
C465 C466 1.399 1_556 S
C465 C470 1.399 . S
C466 C465 1.399 1_554 S
C466 C467 1.376 . S
C467 H454 0.930 . S
C467 C466 1.376 . S
C467 C468 1.388 1_554 S
C468 H455 0.930 . S
C468 C467 1.388 1_556 S
C468 C469 1.390 . S
C469 C468 1.390 . S
C469 C470 1.394 . S
C469 C475 1.465 . S
C470 C465 1.399 . S
C470 C469 1.394 . S
C470 C471 1.516 . S
C471 C470 1.516 . S
C471 C472 1.502 . S
C471 C473 1.561 . S
C471 C474 1.526 . S
C472 H456 0.959 . S
C472 H457 0.959 . S
C472 H458 0.961 . S
C472 C471 1.502 . S
C473 H459 0.960 . S
C473 H460 0.961 . S
C473 H461 0.959 . S
C473 C471 1.561 . S
C474 C471 1.526 . S
C474 C475 1.396 . S
C474 C479 1.390 . S
C475 C469 1.465 . S
C475 C474 1.396 . S
C475 C476 1.399 . S
C476 H462 0.929 . S
C476 C475 1.399 . S
C476 C477 1.385 . S
C477 H463 0.931 . S
C477 C476 1.385 . S
C477 C478 1.389 . S
C478 C477 1.389 . S
C478 C479 1.387 . S
C479 H464 0.930 . S
C479 C474 1.390 . S
C479 C478 1.387 . S
H480 C492 0.930 . S
H481 C494 0.930 . S
H482 C495 0.930 . S
H483 C499 0.959 . S
H484 C499 0.959 . S
H485 C499 0.961 . S
H486 C500 0.960 . S
H487 C500 0.961 . S
H488 C500 0.959 1_455 S
H489 C503 0.929 . S
H490 C504 0.931 . S
H491 C506 0.930 . S
C492 H480 0.930 . S
C492 C493 1.399 1_655 S
C492 C497 1.399 . S
C493 C492 1.399 1_455 S
C493 C494 1.376 . S
C494 H481 0.930 . S
C494 C493 1.376 . S
C494 C495 1.388 . S
C495 H482 0.930 . S
C495 C494 1.388 . S
C495 C496 1.390 . S
C496 C495 1.390 . S
C496 C497 1.394 1_455 S
C496 C502 1.465 . S
C497 C492 1.399 . S
C497 C496 1.394 1_655 S
C497 C498 1.516 . S
C498 C497 1.516 . S
C498 C499 1.502 . S
C498 C500 1.561 . S
C498 C501 1.526 . S
C499 H483 0.959 . S
C499 H484 0.959 . S
C499 H485 0.961 . S
C499 C498 1.502 . S
C500 H486 0.960 . S
C500 H487 0.961 . S
C500 H488 0.959 1_655 S
C500 C498 1.561 . S
C501 C498 1.526 . S
C501 C502 1.396 1_655 S
C501 C506 1.390 . S
C502 C496 1.465 . S
C502 C501 1.396 1_455 S
C502 C503 1.399 . S
C503 H489 0.929 . S
C503 C502 1.399 . S
C503 C504 1.385 . S
C504 H490 0.931 . S
C504 C503 1.385 . S
C504 C505 1.389 . S
C505 C504 1.389 . S
C505 C506 1.387 1_455 S
C506 H491 0.930 . S
C506 C501 1.390 . S
C506 C505 1.387 1_655 S
C208 C60 1.531 1_655 S
C196 C10 1.525 . S
C223 C17 1.532 . S
C235 C108 1.521 . S
C250 C36 1.523 . S
C262 C180 1.519 . S
C277 C5 1.521 . S
C289 C84 1.525 1_655 S
C316 C132 1.520 . S
C304 C16 1.529 1_545 S
C331 C31 1.528 . S
C343 C156 1.527 . S
C370 C117 1.532 1_545 S
C358 C30 1.512 1_545 S
C385 C3 1.529 1_556 S
C397 C171 1.527 . S
C424 C75 1.513 1_655 S
C412 C18 1.523 . S
C451 C123 1.527 . S
C439 C29 1.539 . S
C478 C165 1.533 . S
C466 C4 1.524 . S
C493 C23 1.528 1_455 S
C505 C69 1.532 1_455 S
