# Generated by pormake.
# Topology hwx, (6,3)-cn, num edge types: 1
# Building blocks:
#     Node 0, Type 0, BuildingBlock: OJICUG_clean_sbu_0, # of connection points: 6
#     Node 1, Type 0, BuildingBlock: OJICUG_clean_sbu_0, # of connection points: 6
#     Node 2, Type 0, BuildingBlock: OJICUG_clean_sbu_0, # of connection points: 6
#     Node 3, Type 0, BuildingBlock: OJICUG_clean_sbu_0, # of connection points: 6
#     Node 4, Type 1, BuildingBlock: KAKCAD_clean_linker_0, # of connection points: 3
#     Node 5, Type 1, BuildingBlock: KAKCAD_clean_linker_0, # of connection points: 3
#     Node 6, Type 1, BuildingBlock: KAKCAD_clean_linker_0, # of connection points: 3
#     Node 7, Type 1, BuildingBlock: KAKCAD_clean_linker_0, # of connection points: 3
#     Node 8, Type 1, BuildingBlock: KAKCAD_clean_linker_0, # of connection points: 3
#     Node 9, Type 1, BuildingBlock: KAKCAD_clean_linker_0, # of connection points: 3
#     Node 10, Type 1, BuildingBlock: KAKCAD_clean_linker_0, # of connection points: 3
#     Node 11, Type 1, BuildingBlock: KAKCAD_clean_linker_0, # of connection points: 3
#     Edge 12, Type (0, 1), BuildingBlock: TEMPAE_clean_linker_10, # of connection points: 2
#     Edge 13, Type (0, 1), BuildingBlock: TEMPAE_clean_linker_10, # of connection points: 2
#     Edge 14, Type (0, 1), BuildingBlock: TEMPAE_clean_linker_10, # of connection points: 2
#     Edge 15, Type (0, 1), BuildingBlock: TEMPAE_clean_linker_10, # of connection points: 2
#     Edge 16, Type (0, 1), BuildingBlock: TEMPAE_clean_linker_10, # of connection points: 2
#     Edge 17, Type (0, 1), BuildingBlock: TEMPAE_clean_linker_10, # of connection points: 2
#     Edge 18, Type (0, 1), BuildingBlock: TEMPAE_clean_linker_10, # of connection points: 2
#     Edge 19, Type (0, 1), BuildingBlock: TEMPAE_clean_linker_10, # of connection points: 2
#     Edge 20, Type (0, 1), BuildingBlock: TEMPAE_clean_linker_10, # of connection points: 2
#     Edge 21, Type (0, 1), BuildingBlock: TEMPAE_clean_linker_10, # of connection points: 2
#     Edge 22, Type (0, 1), BuildingBlock: TEMPAE_clean_linker_10, # of connection points: 2
#     Edge 23, Type (0, 1), BuildingBlock: TEMPAE_clean_linker_10, # of connection points: 2
#     Edge 24, Type (0, 1), BuildingBlock: TEMPAE_clean_linker_10, # of connection points: 2
#     Edge 25, Type (0, 1), BuildingBlock: TEMPAE_clean_linker_10, # of connection points: 2
#     Edge 26, Type (0, 1), BuildingBlock: TEMPAE_clean_linker_10, # of connection points: 2
#     Edge 27, Type (0, 1), BuildingBlock: TEMPAE_clean_linker_10, # of connection points: 2
#     Edge 28, Type (0, 1), BuildingBlock: TEMPAE_clean_linker_10, # of connection points: 2
#     Edge 29, Type (0, 1), BuildingBlock: TEMPAE_clean_linker_10, # of connection points: 2
#     Edge 30, Type (0, 1), BuildingBlock: TEMPAE_clean_linker_10, # of connection points: 2
#     Edge 31, Type (0, 1), BuildingBlock: TEMPAE_clean_linker_10, # of connection points: 2
#     Edge 32, Type (0, 1), BuildingBlock: TEMPAE_clean_linker_10, # of connection points: 2
#     Edge 33, Type (0, 1), BuildingBlock: TEMPAE_clean_linker_10, # of connection points: 2
#     Edge 34, Type (0, 1), BuildingBlock: TEMPAE_clean_linker_10, # of connection points: 2
#     Edge 35, Type (0, 1), BuildingBlock: TEMPAE_clean_linker_10, # of connection points: 2
# Relax obj value: 0.076
# Max RMSD: 0.101
# Mean RMSD: 0.093
data_MOF--net-hwx--node1-OJICUG_clean_sbu_0--node2-KAKCAD_clean_linker_0--edge1-TEMPAE_clean_linker_10
_symmetry_space_group_name_H-M    P1
_symmetry_Int_Tables_number       1
_symmetry_cell_setting            triclinic
loop_
_symmetry_equiv_pos_as_xyz
'x, y, z'
_cell_length_a     61.714413
_cell_length_b     61.731988
_cell_length_c     27.850854
_cell_angle_alpha  89.925892
_cell_angle_beta   90.066499
_cell_angle_gamma 90.007604
loop_
_atom_site_label
_atom_site_type_symbol
_atom_site_fract_x
_atom_site_fract_y
_atom_site_fract_z
_atom_type_partial_charge
Sc0 Sc 0.21185 0.21551 0.07475 0.0
Sc1 Sc 0.17474 0.17881 0.02255 0.0
Sc2 Sc 0.20909 0.21064 0.94958 0.0
O3 O 0.1985 0.20165 0.01566 0.0
C4 C 0.20718 0.25593 0.00363 0.0
C5 C 0.16207 0.21274 0.10436 0.0
C6 C 0.15803 0.20576 0.93254 0.0
C7 C 0.20746 0.16593 0.10647 0.0
C8 C 0.25341 0.21001 0.00858 0.0
C9 C 0.20401 0.15972 0.93785 0.0
O10 O 0.2096 0.24767 0.04515 0.0
O11 O 0.15752 0.19704 0.07659 0.0
O12 O 0.17687 0.21207 0.92073 0.0
O13 O 0.21553 0.18479 0.11017 0.0
O14 O 0.24269 0.21012 0.96967 0.0
O15 O 0.18919 0.15772 0.96932 0.0
O16 O 0.24448 0.2115 0.04946 0.0
O17 O 0.19259 0.16119 0.0766 0.0
O18 O 0.21297 0.17767 0.92788 0.0
O19 O 0.18083 0.22111 0.1069 0.0
O20 O 0.20639 0.24461 0.96557 0.0
O21 O 0.15439 0.19419 0.96946 0.0
Sc22 Sc 0.28019 0.71638 0.41397 0.0
Sc23 Sc 0.31958 0.67979 0.45758 0.0
Sc24 Sc 0.28608 0.70841 0.53818 0.0
O25 O 0.29532 0.7015 0.46989 0.0
C26 C 0.28476 0.7551 0.48827 0.0
C27 C 0.32942 0.71563 0.37822 0.0
C28 C 0.3374 0.7058 0.54878 0.0
C29 C 0.28515 0.66806 0.37561 0.0
C30 C 0.2406 0.70733 0.48496 0.0
C31 C 0.29427 0.65744 0.54417 0.0
O32 O 0.28347 0.74782 0.44573 0.0
O33 O 0.33544 0.70039 0.40593 0.0
O34 O 0.31882 0.71242 0.56171 0.0
O35 O 0.27552 0.68626 0.37679 0.0
O36 O 0.25226 0.70469 0.52206 0.0
O37 O 0.30637 0.65642 0.50733 0.0
O38 O 0.2483 0.71232 0.44413 0.0
O39 O 0.30153 0.66364 0.40165 0.0
O40 O 0.28623 0.67504 0.55953 0.0
O41 O 0.31009 0.72264 0.3769 0.0
O42 O 0.2851 0.74286 0.52503 0.0
O43 O 0.34036 0.69379 0.51222 0.0
Sc44 Sc 0.78404 0.78442 0.96323 0.0
Sc45 Sc 0.81923 0.81464 0.03718 0.0
Sc46 Sc 0.78045 0.77972 0.08877 0.0
O47 O 0.7946 0.79293 0.0297 0.0
C48 C 0.73948 0.78672 0.02025 0.0
C49 C 0.79161 0.83534 0.95209 0.0
C50 C 0.78664 0.82859 0.12113 0.0
C51 C 0.83496 0.78724 0.94629 0.0
C52 C 0.78396 0.73914 0.01886 0.0
C53 C 0.83053 0.78054 0.11891 0.0
O54 O 0.75049 0.78789 0.98188 0.0
O55 O 0.80451 0.83711 0.98752 0.0
O56 O 0.77643 0.81073 0.12206 0.0
O57 O 0.8162 0.78011 0.93633 0.0
O58 O 0.78314 0.74741 0.06062 0.0
O59 O 0.83629 0.79433 0.08751 0.0
O60 O 0.7838 0.75047 0.9807 0.0
O61 O 0.8386 0.80001 0.98118 0.0
O62 O 0.81098 0.77457 0.12451 0.0
O63 O 0.78345 0.81741 0.93883 0.0
O64 O 0.74806 0.78334 0.06105 0.0
O65 O 0.80293 0.83192 0.09412 0.0
Sc66 Sc 0.7073 0.28386 0.55233 0.0
Sc67 Sc 0.67514 0.31816 0.47993 0.0
Sc68 Sc 0.71173 0.28151 0.42672 0.0
O69 O 0.69803 0.29454 0.48634 0.0
C70 C 0.75239 0.28497 0.49729 0.0
C71 C 0.70287 0.33487 0.56911 0.0
C72 C 0.70925 0.33132 0.3985 0.0
C73 C 0.65644 0.2894 0.56597 0.0
C74 C 0.70543 0.23981 0.49232 0.0
C75 C 0.66222 0.28635 0.39495 0.0
O76 O 0.74124 0.2859 0.53554 0.0
O77 O 0.6907 0.33842 0.53303 0.0
O78 O 0.71788 0.3127 0.3961 0.0
O79 O 0.67452 0.28084 0.57662 0.0
O80 O 0.70702 0.24888 0.4515 0.0
O81 O 0.65727 0.30028 0.42665 0.0
O82 O 0.70586 0.25034 0.53151 0.0
O83 O 0.6542 0.30338 0.53276 0.0
O84 O 0.68125 0.27884 0.38993 0.0
O85 O 0.70955 0.31609 0.58054 0.0
O86 O 0.74391 0.28282 0.45602 0.0
O87 O 0.69322 0.33558 0.42562 0.0
C88 C 0.23717 0.52634 0.7734 0.0
C89 C 0.25573 0.5395 0.7702 0.0
C90 C 0.23052 0.51799 0.81778 0.0
C91 C 0.24229 0.52272 0.85973 0.0
C92 C 0.26128 0.53514 0.8561 0.0
C93 C 0.26785 0.5435 0.81203 0.0
C94 C 0.2347 0.51535 0.90755 0.0
C95 C 0.22735 0.49407 0.91463 0.0
C96 C 0.22184 0.48671 0.96085 0.0
C97 C 0.22331 0.50102 -4e-05 0.0
C98 C 0.23069 0.52229 0.99336 0.0
C99 C 0.23602 0.52939 0.94703 0.0
C100 C 0.23451 0.53667 0.03503 0.0
C101 C 0.2189 0.53903 0.07131 0.0
C102 C 0.25413 0.54806 0.03872 0.0
C103 C 0.25801 0.56173 0.07753 0.0
C104 C 0.24229 0.56449 0.11349 0.0
C105 C 0.21664 0.46354 0.96881 0.0
C106 C 0.20299 0.4523 0.937 0.0
C107 C 0.22644 0.45221 0.00683 0.0
C108 C 0.22321 0.42998 0.0121 0.0
C109 C 0.21011 0.41861 0.97949 0.0
C110 C 0.19969 0.43002 0.9424 0.0
C111 C 0.22272 0.55288 0.11015 0.0
H112 H 0.22757 0.52282 0.74179 0.0
H113 H 0.21583 0.50842 0.8195 0.0
H114 H 0.27096 0.53871 0.8876 0.0
H115 H 0.28203 0.55384 0.8112 0.0
H116 H 0.22709 0.48291 0.88462 0.0
H117 H 0.24142 0.54594 0.94182 0.0
H118 H 0.21946 0.49537 0.03582 0.0
H119 H 0.20361 0.53046 0.0692 0.0
H120 H 0.26665 0.54618 0.0118 0.0
H121 H 0.27346 0.57 0.07958 0.0
H122 H 0.19511 0.46067 0.90757 0.0
H123 H 0.23724 0.46035 0.03161 0.0
H124 H 0.21023 0.55479 0.13708 0.0
H125 H 0.18959 0.42162 0.91662 0.0
H126 H 0.23124 0.42161 0.04134 0.0
C127 C 0.93151 0.70995 0.39193 0.0
C128 C 0.93937 0.72459 0.35747 0.0
C129 C 0.94369 0.70537 0.43307 0.0
C130 C 0.96405 0.71507 0.43988 0.0
C131 C 0.97237 0.72879 0.40408 0.0
C132 C 0.96006 0.73364 0.3634 0.0
C133 C 0.97564 0.71291 0.48616 0.0
C134 C 0.99792 0.70851 0.48716 0.0
C135 C 0.00946 0.70965 0.53043 0.0
C136 C -0.00132 0.71517 0.57297 0.0
C137 C 0.97631 0.71932 0.57272 0.0
C138 C 0.96486 0.7178 0.52915 0.0
C139 C 0.9652 0.72672 0.61707 0.0
C140 C 0.97007 0.71745 0.66196 0.0
C141 C 0.94983 0.74348 0.6148 0.0
C142 C 0.93936 0.75061 0.6562 0.0
C143 C 0.94414 0.74133 0.7011 0.0
C144 C 0.03317 0.70706 0.53027 0.0
C145 C 0.04263 0.68739 0.51661 0.0
C146 C 0.04642 0.72467 0.54215 0.0
C147 C 0.06891 0.7228 0.5395 0.0
C148 C 0.07862 0.7031 0.5259 0.0
C149 C 0.06517 0.68533 0.51498 0.0
C150 C 0.95966 0.72468 0.70355 0.0
H151 H 0.91552 0.7029 0.3882 0.0
H152 H 0.93696 0.69473 0.4602 0.0
H153 H 0.98793 0.73665 0.40873 0.0
H154 H 0.96643 0.74495 0.33719 0.0
H155 H 0.00644 0.70503 0.45402 0.0
H156 H 0.94765 0.7213 0.52827 0.0
H157 H 0.00791 0.71687 0.6059 0.0
H158 H 0.98176 0.70443 0.6649 0.0
H159 H 0.94596 0.75128 0.58101 0.0
H160 H 0.92724 0.7632 0.65279 0.0
H161 H 0.03257 0.67361 0.50743 0.0
H162 H 0.03934 0.74007 0.55221 0.0
H163 H 0.96381 0.71728 0.73761 0.0
H164 H 0.072 0.6698 0.50521 0.0
H165 H 0.0786 0.73701 0.54703 0.0
C166 C 0.75826 0.45483 0.1429 0.0
C167 C 0.76397 0.43285 0.1441 0.0
C168 C 0.76349 0.46758 0.10316 0.0
C169 C 0.77476 0.45867 0.06395 0.0
C170 C 0.78111 0.43681 0.06601 0.0
C171 C 0.77567 0.42401 0.1056 0.0
C172 C 0.77864 0.47184 0.02007 0.0
C173 C 0.78341 0.49401 0.02373 0.0
C174 C 0.78442 0.50717 0.98264 0.0
C175 C 0.78142 0.4978 0.93722 0.0
C176 C 0.77709 0.47559 0.9328 0.0
C177 C 0.77579 0.46271 0.97431 0.0
C178 C 0.77202 0.46604 0.88538 0.0
C179 C 0.75675 0.47596 0.85501 0.0
C180 C 0.78125 0.44621 0.87169 0.0
C181 C 0.77483 0.43613 0.82915 0.0
C182 C 0.75888 0.44559 0.7998 0.0
C183 C 0.78668 0.53094 0.98752 0.0
C184 C 0.77454 0.54203 0.02234 0.0
C185 C 0.80009 0.54281 0.95635 0.0
C186 C 0.80107 0.56538 0.95954 0.0
C187 C 0.78854 0.57645 0.99373 0.0
C188 C 0.77547 0.56453 0.02542 0.0
C189 C 0.75015 0.46576 0.8127 0.0
H190 H 0.74902 0.46197 0.1719 0.0
H191 H 0.75796 0.48423 0.10249 0.0
H192 H 0.7901 0.42953 0.03682 0.0
H193 H 0.78047 0.40713 0.10597 0.0
H194 H 0.78599 0.50118 0.05877 0.0
H195 H 0.77129 0.44581 0.97097 0.0
H196 H 0.78174 0.50789 0.90535 0.0
H197 H 0.74925 0.49117 0.86495 0.0
H198 H 0.79312 0.4383 0.89441 0.0
H199 H 0.78166 0.42047 0.8203 0.0
H200 H 0.76384 0.53337 0.04646 0.0
H201 H 0.80971 0.53465 0.92937 0.0
H202 H 0.73788 0.4734 0.79058 0.0
H203 H 0.76584 0.57264 0.05248 0.0
H204 H 0.8112 0.57421 0.93453 0.0
C205 C 0.02695 0.2518 0.68752 0.0
C206 C 0.04714 0.26062 0.7002 0.0
C207 C 0.01659 0.25835 0.64532 0.0
C208 C 0.02635 0.27365 0.61484 0.0
C209 C 0.04621 0.28295 0.62827 0.0
C210 C 0.05646 0.27657 0.6707 0.0
C211 C 0.01658 0.27877 0.56763 0.0
C212 C 0.99435 0.28308 0.56368 0.0
C213 C 0.98475 0.28618 0.51849 0.0
C214 C 0.99767 0.28521 0.47708 0.0
C215 C 0.01992 0.28065 0.48033 0.0
C216 C 0.02925 0.27766 0.52591 0.0
C217 C 0.03309 0.27726 0.4363 0.0
C218 C 0.02436 0.26612 0.39669 0.0
C219 C 0.05488 0.2839 0.43465 0.0
C220 C 0.06785 0.27871 0.39526 0.0
C221 C 0.05924 0.26701 0.35648 0.0
C222 C 0.96095 0.28866 0.51443 0.0
C223 C 0.94938 0.27643 0.48048 0.0
C224 C 0.94954 0.30224 0.54598 0.0
C225 C 0.92694 0.30322 0.54425 0.0
C226 C 0.91537 0.29051 0.51117 0.0
C227 C 0.92683 0.27734 0.47891 0.0
C228 C 0.03728 0.26115 0.35707 0.0
H229 H 0.01941 0.23953 0.70976 0.0
H230 H 0.00136 0.25081 0.63557 0.0
H231 H 0.05401 0.29485 0.60547 0.0
H232 H 0.07212 0.28346 0.67939 0.0
H233 H 0.98442 0.28336 0.59576 0.0
H234 H 0.0462 0.27326 0.52894 0.0
H235 H 0.9903 0.28781 0.4422 0.0
H236 H 0.00776 0.26044 0.39699 0.0
H237 H 0.06202 0.29285 0.46411 0.0
H238 H 0.0847 0.28364 0.39532 0.0
H239 H 0.95773 0.26564 0.45606 0.0
H240 H 0.95808 0.31194 0.57228 0.0
H241 H 0.03032 0.25194 0.32778 0.0
H242 H 0.91831 0.26757 0.45268 0.0
H243 H 0.91848 0.31345 0.56965 0.0
C244 C 0.73244 0.96468 0.71938 0.0
C245 C 0.751 0.95151 0.72243 0.0
C246 C 0.72619 0.97374 0.6754 0.0
C247 C 0.73837 0.96978 0.6337 0.0
C248 C 0.75721 0.95711 0.63715 0.0
C249 C 0.76336 0.94799 0.6808 0.0
C250 C 0.73171 0.97871 0.58645 0.0
C251 C 0.72457 0.00018 0.58219 0.0
C252 C 0.72037 0.00928 0.53679 0.0
C253 C 0.72282 0.99645 0.49548 0.0
C254 C 0.72997 0.97497 0.49932 0.0
C255 C 0.734 0.96614 0.54484 0.0
C256 C 0.73517 0.96217 0.456 0.0
C257 C 0.7203 0.96017 0.41809 0.0
C258 C 0.75524 0.95158 0.45293 0.0
C259 C 0.76016 0.93873 0.41338 0.0
C260 C 0.74505 0.93599 0.37611 0.0
C261 C 0.71574 0.03274 0.53222 0.0
C262 C 0.70017 0.0404 0.49944 0.0
C263 C 0.72779 0.04773 0.55915 0.0
C264 C 0.72466 0.06989 0.5529 0.0
C265 C 0.70947 0.07759 0.51943 0.0
C266 C 0.69701 0.06266 0.49321 0.0
C267 C 0.72516 0.94709 0.37851 0.0
H268 H 0.72266 0.96782 0.75086 0.0
H269 H 0.71158 0.98344 0.67385 0.0
H270 H 0.76723 0.95411 0.60595 0.0
H271 H 0.77751 0.93763 0.68147 0.0
H272 H 0.72309 0.0101 0.61409 0.0
H273 H 0.73929 0.94944 0.54772 0.0
H274 H 0.72051 0.00354 0.46021 0.0
H275 H 0.70472 0.96822 0.41971 0.0
H276 H 0.76718 0.95325 0.48124 0.0
H277 H 0.77585 0.93088 0.41209 0.0
H278 H 0.69058 0.02919 0.4784 0.0
H279 H 0.74013 0.04238 0.58418 0.0
H280 H 0.71313 0.94521 0.35049 0.0
H281 H 0.68524 0.06818 0.46705 0.0
H282 H 0.73428 0.08104 0.57407 0.0
C283 C 0.54251 0.21819 0.1463 0.0
C284 C 0.55686 0.23589 0.14515 0.0
C285 C 0.53115 0.21205 0.10496 0.0
C286 C 0.53386 0.22356 0.06173 0.0
C287 C 0.5484 0.24109 0.06071 0.0
C288 C 0.55987 0.24702 0.10165 0.0
C289 C 0.52081 0.21838 0.01833 0.0
C290 C 0.49872 0.21331 0.02237 0.0
C291 C 0.48555 0.21174 0.98131 0.0
C292 C 0.49471 0.21515 0.93573 0.0
C293 C 0.51676 0.22026 0.93112 0.0
C294 C 0.52979 0.221 0.97242 0.0
C295 C 0.52577 0.22743 0.88436 0.0
C296 C 0.52073 0.21666 0.84131 0.0
C297 C 0.53936 0.24567 0.88276 0.0
C298 C 0.54817 0.25269 0.83953 0.0
C299 C 0.54345 0.24185 0.79646 0.0
C300 C 0.46183 0.20899 0.98635 0.0
C301 C 0.45027 0.19519 0.95546 0.0
C302 C 0.45045 0.22099 0.02095 0.0
C303 C 0.42797 0.21953 0.0241 0.0
C304 C 0.41636 0.20607 0.99267 0.0
C305 C 0.42772 0.19369 0.9587 0.0
C306 C 0.52957 0.22377 0.79771 0.0
H307 H 0.53977 0.2093 0.17929 0.0
H308 H 0.5202 0.19838 0.10692 0.0
H309 H 0.55062 0.25066 0.02847 0.0
H310 H 0.57114 0.26042 0.0991 0.0
H311 H 0.49151 0.21155 0.0576 0.0
H312 H 0.54692 0.22447 0.96884 0.0
H313 H 0.48438 0.21529 0.90423 0.0
H314 H 0.51026 0.20258 0.84147 0.0
H315 H 0.5432 0.25464 0.91508 0.0
H316 H 0.55911 0.26641 0.84015 0.0
H317 H 0.45866 0.18569 0.92861 0.0
H318 H 0.45885 0.23201 0.04481 0.0
H319 H 0.52558 0.21511 0.76507 0.0
H320 H 0.41913 0.18328 0.93383 0.0
H321 H 0.41965 0.22908 0.05096 0.0
C322 C 0.25591 0.03842 0.3547 0.0
C323 C 0.26174 0.06039 0.35396 0.0
C324 C 0.261 0.02551 0.39442 0.0
C325 C 0.2722 0.03432 0.43387 0.0
C326 C 0.27906 0.05603 0.43169 0.0
C327 C 0.27375 0.06896 0.3923 0.0
C328 C 0.27523 0.02154 0.47862 0.0
C329 C 0.27996 -0.00068 0.47698 0.0
C330 C 0.28111 0.987 0.51939 0.0
C331 C 0.27809 0.99724 0.56391 0.0
C332 C 0.27337 0.01945 0.56623 0.0
C333 C 0.2719 0.03139 0.5234 0.0
C334 C 0.26845 0.03012 0.61271 0.0
C335 C 0.25542 0.01978 0.6473 0.0
C336 C 0.2754 0.05146 0.62119 0.0
C337 C 0.26846 0.06264 0.66179 0.0
C338 C 0.25466 0.05263 0.69511 0.0
C339 C 0.28381 0.96318 0.51704 0.0
C340 C 0.27177 0.9511 0.48365 0.0
C341 C 0.29747 0.95227 0.54943 0.0
C342 C 0.29879 0.92967 0.54891 0.0
C343 C 0.28634 0.9176 0.51621 0.0
C344 C 0.27303 0.92856 0.48325 0.0
C345 C 0.24868 0.03093 0.68834 0.0
H346 H 0.24653 0.0315 0.3256 0.0
H347 H 0.25527 0.00893 0.3951 0.0
H348 H 0.28812 0.06319 0.46097 0.0
H349 H 0.27869 0.0858 0.39215 0.0
H350 H 0.28262 0.99153 0.44263 0.0
H351 H 0.26709 0.04826 0.52482 0.0
H352 H 0.27878 0.98779 0.59668 0.0
H353 H 0.2496 0.00343 0.64167 0.0
H354 H 0.28582 0.05973 0.59582 0.0
H355 H 0.27353 0.07929 0.66674 0.0
H356 H 0.26091 0.95903 0.4586 0.0
H357 H 0.30704 0.9612 0.57533 0.0
H358 H 0.23798 0.02294 0.71359 0.0
H359 H 0.26348 0.91967 0.45722 0.0
H360 H 0.30914 0.92161 0.5748 0.0
C361 C 0.46824 0.75114 0.79477 0.0
C362 C 0.44835 0.76003 0.78011 0.0
C363 C 0.47788 0.75777 0.83773 0.0
C364 C 0.46769 0.77323 0.86704 0.0
C365 C 0.44812 0.78255 0.8517 0.0
C366 C 0.43859 0.77608 0.80854 0.0
C367 C 0.47682 0.77867 0.91475 0.0
C368 C 0.49903 0.78269 0.92012 0.0
C369 C 0.50804 0.78629 0.96575 0.0
C370 C 0.49443 0.78624 0.00617 0.0
C371 C 0.47213 0.78202 0.00156 0.0
C372 C 0.46348 0.77841 0.95553 0.0
C373 C 0.45816 0.77967 0.04479 0.0
C374 C 0.46607 0.76931 0.08632 0.0
C375 C 0.43643 0.78657 0.04396 0.0
C376 C 0.42275 0.7824 0.08282 0.0
C377 C 0.43058 0.77154 0.12361 0.0
C378 C 0.53183 0.78854 0.97156 0.0
C379 C 0.54588 0.77491 0.94586 0.0
C380 C 0.54067 0.80357 0.00402 0.0
C381 C 0.56307 0.80471 0.01111 0.0
C382 C 0.57705 0.7908 0.98596 0.0
C383 C 0.56821 0.77607 0.95289 0.0
C384 C 0.45246 0.76542 0.12541 0.0
H385 H 0.47612 0.73879 0.77344 0.0
H386 H 0.49291 0.7502 0.8489 0.0
H387 H 0.44 0.79459 0.87349 0.0
H388 H 0.42313 0.78303 0.79838 0.0
H389 H 0.50935 0.78292 0.88864 0.0
H390 H 0.44651 0.77426 0.95152 0.0
H391 H 0.50134 0.78881 0.04147 0.0
H392 H 0.48257 0.7634 0.08804 0.0
H393 H 0.42988 0.79495 0.01299 0.0
H394 H 0.40596 0.78748 0.08084 0.0
H395 H 0.5396 0.76296 0.92104 0.0
H396 H 0.53026 0.81441 0.02405 0.0
H397 H 0.45881 0.75679 0.15626 0.0
H398 H 0.57858 0.76535 0.93245 0.0
H399 H 0.5694 0.81616 0.03702 0.0
C400 C 0.1468 0.2427 0.15381 0.0
C401 C 0.14506 0.2215 0.13615 0.0
C402 C 0.13172 0.25087 0.18668 0.0
C403 C 0.1147 0.23739 0.20291 0.0
C404 C 0.11246 0.21618 0.18418 0.0
C405 C 0.12759 0.20854 0.15063 0.0
C406 C 0.13442 0.27371 0.20518 0.0
C407 C 0.09464 0.20126 0.2011 0.0
C408 C 0.09303 0.24934 0.32728 0.0
C409 C 0.07344 0.25981 0.31683 0.0
C410 C 0.10645 0.24174 0.29045 0.0
C411 C 0.10024 0.24495 0.24201 0.0
C412 C 0.08053 0.25564 0.2312 0.0
C413 C 0.06725 0.26281 0.26886 0.0
C414 C 0.12722 0.23018 0.3034 0.0
C415 C 0.07359 0.25964 0.17995 0.0
H416 H 0.16012 0.2529 0.14221 0.0
H417 H 0.1262 0.19213 0.13716 0.0
H418 H 0.11898 0.28278 0.20162 0.0
H419 H 0.13862 0.27329 0.2439 0.0
H420 H 0.14732 0.2827 0.18578 0.0
H421 H 0.09432 0.18577 0.18085 0.0
H422 H 0.09696 0.19756 0.23977 0.0
H423 H 0.07864 0.20927 0.19734 0.0
H424 H 0.09766 0.24674 0.36441 0.0
H425 H 0.05212 0.27099 0.26085 0.0
H426 H 0.1413 0.23916 0.2887 0.0
H427 H 0.12738 0.21378 0.28711 0.0
H428 H 0.12939 0.2285 0.34284 0.0
H429 H 0.08602 0.26949 0.16117 0.0
H430 H 0.05778 0.26818 0.17766 0.0
H431 H 0.07226 0.24404 0.16045 0.0
C432 C 0.28443 0.63869 0.6201 0.0
C433 C 0.28938 0.63741 0.57111 0.0
C434 C 0.27935 0.62012 0.6466 0.0
C435 C 0.27878 0.59975 0.62335 0.0
C436 C 0.2837 0.59828 0.57383 0.0
C437 C 0.28918 0.61716 0.5483 0.0
C438 C 0.27457 0.62236 0.69959 0.0
C439 C 0.28281 0.57687 0.54777 0.0
C440 C 0.28342 0.55411 0.71294 0.0
C441 C 0.26158 0.55079 0.72486 0.0
C442 C 0.28934 0.56885 0.67697 0.0
C443 C 0.27299 0.58021 0.65173 0.0
C444 C 0.25092 0.57522 0.66005 0.0
C445 C 0.24546 0.56067 0.69683 0.0
C446 C 0.31306 0.57373 0.66928 0.0
C447 C 0.23302 0.58666 0.63312 0.0
H448 H 0.28475 0.65428 0.63798 0.0
H449 H 0.29283 0.61615 0.5103 0.0
H450 H 0.25778 0.61695 0.70715 0.0
H451 H 0.28565 0.61186 0.72069 0.0
H452 H 0.27639 0.6393 0.71242 0.0
H453 H 0.28756 0.57841 0.50945 0.0
H454 H 0.29368 0.56497 0.56541 0.0
H455 H 0.26614 0.5702 0.54957 0.0
H456 H 0.29596 0.54607 0.73359 0.0
H457 H 0.22853 0.55826 0.70569 0.0
H458 H 0.31696 0.5897 0.6854 0.0
H459 H 0.31689 0.57472 0.63046 0.0
H460 H 0.32368 0.56131 0.68609 0.0
H461 H 0.23125 0.60337 0.64719 0.0
H462 H 0.21723 0.57821 0.63716 0.0
H463 H 0.23694 0.58791 0.59435 0.0
C464 C 0.86891 0.77006 0.13639 0.0
C465 C 0.8472 0.7712 0.15097 0.0
C466 C 0.88485 0.76141 0.16689 0.0
C467 C 0.87896 0.75423 0.21338 0.0
C468 C 0.85705 0.75526 0.22816 0.0
C469 C 0.8414 0.76352 0.19656 0.0
C470 C 0.90798 0.76012 0.14958 0.0
C471 C 0.8502 0.74816 0.27781 0.0
C472 C 0.91489 0.71713 0.28772 0.0
C473 C 0.92519 0.73203 0.31797 0.0
C474 C 0.90041 0.72419 0.25204 0.0
C475 C 0.89578 0.74658 0.24761 0.0
C476 C 0.90638 0.76167 0.2778 0.0
C477 C 0.92113 0.75421 0.31233 0.0
C478 C 0.88975 0.70769 0.21977 0.0
C479 C 0.90155 0.78563 0.27488 0.0
H480 H 0.87342 0.77577 0.10096 0.0
H481 H 0.82465 0.76447 0.20809 0.0
H482 H 0.91842 0.77079 0.17177 0.0
H483 H 0.91419 0.74335 0.1537 0.0
H484 H 0.90963 0.76505 0.11137 0.0
H485 H 0.83246 0.74981 0.2835 0.0
H486 H 0.85482 0.73102 0.28394 0.0
H487 H 0.85874 0.75803 0.30522 0.0
H488 H 0.91814 0.69998 0.29208 0.0
H489 H 0.92893 0.76568 0.33621 0.0
H490 H 0.89191 0.71233 0.18157 0.0
H491 H 0.87208 0.70724 0.22688 0.0
H492 H 0.89643 0.69115 0.2252 0.0
H493 H 0.90441 0.79166 0.2379 0.0
H494 H 0.91162 0.79526 0.30012 0.0
H495 H 0.88422 0.78852 0.28332 0.0
C496 C 0.71024 0.37446 0.58134 0.0
C497 C 0.70984 0.35325 0.59944 0.0
C498 C 0.71791 0.3917 0.6096 0.0
C499 C 0.72496 0.38758 0.65714 0.0
C500 C 0.72415 0.36627 0.67581 0.0
C501 C 0.71675 0.34937 0.64666 0.0
C502 C 0.71881 0.4142 0.58843 0.0
C503 C 0.73123 0.36125 0.7266 0.0
C504 C 0.7641 0.42304 0.72613 0.0
C505 C 0.75011 0.43344 0.7583 0.0
C506 C 0.75597 0.40913 0.69064 0.0
C507 C 0.73338 0.40534 0.68784 0.0
C508 C 0.71912 0.41667 0.71865 0.0
C509 C 0.72767 0.43068 0.75343 0.0
C510 C 0.77166 0.39757 0.65794 0.0
C511 C 0.69495 0.41288 0.71716 0.0
H512 H 0.70505 0.37752 0.54476 0.0
H513 H 0.7163 0.33305 0.66104 0.0
H514 H 0.70933 0.42559 0.6109 0.0
H515 H 0.7358 0.42006 0.58819 0.0
H516 H 0.7124 0.41475 0.55115 0.0
H517 H 0.72898 0.34391 0.73602 0.0
H518 H 0.74859 0.36542 0.73125 0.0
H519 H 0.72188 0.37124 0.75239 0.0
H520 H 0.78145 0.42536 0.72958 0.0
H521 H 0.71684 0.43855 0.77857 0.0
H522 H 0.76613 0.3986 0.62009 0.0
H523 H 0.77233 0.38016 0.66774 0.0
H524 H 0.7883 0.40436 0.66047 0.0
H525 H 0.68885 0.4139 0.67976 0.0
H526 H 0.68596 0.42473 0.73956 0.0
H527 H 0.69134 0.39634 0.73055 0.0
C528 C 0.65074 0.27144 0.31599 0.0
C529 C 0.64519 0.27846 0.36218 0.0
C530 C 0.63486 0.26406 0.28403 0.0
C531 C 0.61297 0.26323 0.29903 0.0
C532 C 0.6073 0.26985 0.34601 0.0
C533 C 0.62349 0.27767 0.37692 0.0
C534 C 0.64149 0.25756 0.23385 0.0
C535 C 0.58419 0.26869 0.36353 0.0
C536 C 0.57244 0.26495 0.19732 0.0
C537 C 0.56894 0.24283 0.18866 0.0
C538 C 0.58607 0.27186 0.23446 0.0
C539 C 0.59606 0.25628 0.26446 0.0
C540 C 0.59144 0.23401 0.25811 0.0
C541 C 0.57807 0.22751 0.21996 0.0
C542 C 0.59074 0.29576 0.23981 0.0
C543 C 0.60147 0.21698 0.29011 0.0
H544 H 0.6675 0.27214 0.30445 0.0
H545 H 0.61922 0.28285 0.41287 0.0
H546 H 0.63677 0.24051 0.22691 0.0
H547 H 0.63291 0.2678 0.20713 0.0
H548 H 0.65921 0.25919 0.22792 0.0
H549 H 0.58268 0.27331 0.40192 0.0
H550 H 0.57381 0.27963 0.34182 0.0
H551 H 0.57779 0.25202 0.35888 0.0
H552 H 0.56494 0.27693 0.17417 0.0
H553 H 0.57551 0.21039 0.21352 0.0
H554 H 0.60803 0.29893 0.23142 0.0
H555 H 0.58795 0.301 0.27736 0.0
H556 H 0.58056 0.30586 0.21563 0.0
H557 H 0.61904 0.21568 0.28229 0.0
H558 H 0.59396 0.2008 0.28476 0.0
H559 H 0.59981 0.22159 0.32842 0.0
C560 C 0.19673 0.12377 0.89956 0.0
C561 C 0.21119 0.14052 0.91072 0.0
C562 C 0.20291 0.10694 0.86854 0.0
C563 C 0.22412 0.1068 0.84915 0.0
C564 C 0.23918 0.12291 0.86301 0.0
C565 C 0.23247 0.13967 0.89328 0.0
C566 C 0.18638 0.09012 0.85421 0.0
C567 C 0.26207 0.12314 0.8438 0.0
C568 C 0.24736 0.05842 0.7826 0.0
C569 C 0.24548 0.06543 0.73493 0.0
C570 C 0.23982 0.07139 0.8205 0.0
C571 C 0.22995 0.09157 0.81007 0.0
C572 C 0.2272 0.09819 0.76176 0.0
C573 C 0.23514 0.0851 0.72481 0.0
C574 C 0.24324 0.06396 0.87158 0.0
C575 C 0.2165 0.11946 0.74909 0.0
H576 H 0.18027 0.1244 0.91306 0.0
H577 H 0.2438 0.15243 0.90254 0.0
H578 H 0.18156 0.09279 0.81626 0.0
H579 H 0.19339 0.07362 0.85666 0.0
H580 H 0.17161 0.09085 0.87692 0.0
H581 H 0.27241 0.13524 0.86239 0.0
H582 H 0.26961 0.10692 0.84774 0.0
H583 H 0.2618 0.12709 0.80493 0.0
H584 H 0.25537 0.04317 0.79024 0.0
H585 H 0.23341 0.0903 0.6878 0.0
H586 H 0.22792 0.06512 0.89219 0.0
H587 H 0.25521 0.07469 0.88942 0.0
H588 H 0.24928 0.04702 0.87352 0.0
H589 H 0.20055 0.12079 0.7672 0.0
H590 H 0.21403 0.12134 0.70978 0.0
H591 H 0.22669 0.13309 0.76192 0.0
C592 C 0.36358 0.71341 0.33025 0.0
C593 C 0.3454 0.72528 0.34492 0.0
C594 C 0.37795 0.72178 0.2959 0.0
C595 C 0.37425 0.74267 0.27651 0.0
C596 C 0.3564 0.75507 0.29259 0.0
C597 C 0.34206 0.74615 0.32628 0.0
C598 C 0.39664 0.70795 0.27911 0.0
C599 C 0.35218 0.77758 0.27345 0.0
C600 C 0.42115 0.76936 0.2109 0.0
C601 C 0.41569 0.76531 0.16288 0.0
C602 C 0.40757 0.76251 0.24837 0.0
C603 C 0.38834 0.75101 0.23742 0.0
C604 C 0.38271 0.74702 0.18893 0.0
C605 C 0.39639 0.75438 0.15222 0.0
C606 C 0.41386 0.76741 0.29962 0.0
C607 C 0.3625 0.73454 0.17583 0.0
H608 H 0.36619 0.69725 0.3444 0.0
H609 H 0.32817 0.7555 0.33792 0.0
H610 H 0.39475 0.70435 0.2403 0.0
H611 H 0.41215 0.71681 0.28352 0.0
H612 H 0.39773 0.69238 0.29904 0.0
H613 H 0.33864 0.78574 0.29247 0.0
H614 H 0.36696 0.7877 0.27693 0.0
H615 H 0.34812 0.77672 0.23468 0.0
H616 H 0.43604 0.77793 0.21906 0.0
H617 H 0.39231 0.75101 0.1151 0.0
H618 H 0.41657 0.75208 0.31954 0.0
H619 H 0.40051 0.77614 0.31795 0.0
H620 H 0.42881 0.77739 0.30192 0.0
H621 H 0.36317 0.7181 0.19191 0.0
H622 H 0.36042 0.7329 0.13637 0.0
H623 H 0.34799 0.74275 0.19068 0.0
C624 C 0.78537 0.87534 0.94617 0.0
C625 C 0.78591 0.85489 0.92433 0.0
C626 C 0.77931 0.89382 0.91987 0.0
C627 C 0.77423 0.89173 0.87052 0.0
C628 C 0.77504 0.87113 0.84829 0.0
C629 C 0.78064 0.85295 0.87561 0.0
C630 C 0.7781 0.91546 0.94487 0.0
C631 C 0.77013 0.86828 0.79549 0.0
C632 C 0.74072 0.93009 0.79543 0.0
C633 C 0.75682 0.94003 0.76754 0.0
C634 C 0.74623 0.91571 0.83251 0.0
C635 C 0.76832 0.91091 0.84118 0.0
C636 C 0.78463 0.92223 0.81585 0.0
C637 C 0.77867 0.93686 0.77969 0.0
C638 C 0.72837 0.90433 0.85962 0.0
C639 C 0.80838 0.9175 0.82381 0.0
H640 H 0.78924 0.87682 0.984 0.0
H641 H 0.7812 0.83717 0.85856 0.0
H642 H 0.78918 0.92719 0.92733 0.0
H643 H 0.76146 0.92212 0.94176 0.0
H644 H 0.78243 0.9143 0.98352 0.0
H645 H 0.77206 0.85122 0.78355 0.0
H646 H 0.75328 0.87346 0.78777 0.0
H647 H 0.78107 0.87865 0.77375 0.0
H648 H 0.72379 0.93241 0.78639 0.0
H649 H 0.7912 0.94498 0.7592 0.0
H650 H 0.73226 0.90336 0.89846 0.0
H651 H 0.72671 0.88751 0.84609 0.0
H652 H 0.71253 0.91264 0.85516 0.0
H653 H 0.81225 0.91707 0.86268 0.0
H654 H 0.81898 0.92968 0.80616 0.0
H655 H 0.81227 0.90131 0.80886 0.0
C656 C 0.87469 0.78206 0.9303 0.0
C657 C 0.85309 0.78064 0.91479 0.0
C658 C 0.89179 0.77565 0.90019 0.0
C659 C 0.88713 0.76802 0.85338 0.0
C660 C 0.86538 0.76665 0.83757 0.0
C661 C 0.84866 0.77283 0.86854 0.0
C662 C 0.91479 0.77698 0.91841 0.0
C663 C 0.85973 0.75887 0.78766 0.0
C664 C 0.92716 0.77055 0.75083 0.0
C665 C 0.93224 0.74857 0.74459 0.0
C666 C 0.91343 0.77731 0.78794 0.0
C667 C 0.9048 0.76176 0.82001 0.0
C668 C 0.91107 0.73978 0.81601 0.0
C669 C 0.92462 0.73341 0.77814 0.0
C670 C 0.90707 0.8009 0.79086 0.0
C671 C 0.9024 0.72276 0.84991 0.0
H672 H 0.8782 0.78795 0.96612 0.0
H673 H 0.83204 0.77183 0.85611 0.0
H674 H 0.92261 0.76083 0.91617 0.0
H675 H 0.92434 0.78817 0.89552 0.0
H676 H 0.91565 0.78273 0.95615 0.0
H677 H 0.84198 0.75891 0.78089 0.0
H678 H 0.86764 0.76937 0.76047 0.0
H679 H 0.86589 0.74217 0.78227 0.0
H680 H 0.93343 0.78243 0.72576 0.0
H681 H 0.92836 0.71639 0.77353 0.0
H682 H 0.90889 0.80697 0.8281 0.0
H683 H 0.88975 0.80268 0.78084 0.0
H684 H 0.9169 0.81124 0.76653 0.0
H685 H 0.90358 0.72838 0.88765 0.0
H686 H 0.91121 0.70715 0.84648 0.0
H687 H 0.88501 0.71984 0.84207 0.0
C688 C 0.73941 0.34692 0.35013 0.0
C689 C 0.71806 0.34847 0.36704 0.0
C690 C 0.74759 0.36189 0.31697 0.0
C691 C 0.73399 0.37862 0.29975 0.0
C692 C 0.71267 0.38076 0.31792 0.0
C693 C 0.705 0.36573 0.35173 0.0
C694 C 0.77054 0.3593 0.29907 0.0
C695 C 0.69765 0.39832 0.30002 0.0
C696 C 0.75946 0.42557 0.23198 0.0
C697 C 0.7567 0.41893 0.18425 0.0
C698 C 0.75214 0.41263 0.27014 0.0
C699 C 0.74157 0.3928 0.26009 0.0
C700 C 0.73861 0.38613 0.21191 0.0
C701 C 0.74634 0.39923 0.17457 0.0
C702 C 0.75585 0.42007 0.3211 0.0
C703 C 0.72722 0.36517 0.19977 0.0
H704 H 0.74969 0.33378 0.36239 0.0
H705 H 0.68848 0.36697 0.36465 0.0
H706 H 0.77033 0.35473 0.26056 0.0
H707 H 0.77943 0.37487 0.30201 0.0
H708 H 0.77961 0.34669 0.3193 0.0
H709 H 0.68214 0.39872 0.3202 0.0
H710 H 0.70556 0.4144 0.30294 0.0
H711 H 0.69399 0.39559 0.26148 0.0
H712 H 0.76758 0.44078 0.23943 0.0
H713 H 0.74391 0.39425 0.13763 0.0
H714 H 0.76577 0.40795 0.34068 0.0
H715 H 0.74015 0.42139 0.34024 0.0
H716 H 0.76421 0.436 0.32277 0.0
H717 H 0.73625 0.35129 0.21534 0.0
H718 H 0.72571 0.36264 0.16042 0.0
H719 H 0.71076 0.36504 0.21576 0.0
C720 C 0.11843 0.21296 0.91966 0.0
C721 C 0.13967 0.2125 0.90179 0.0
C722 C 0.1012 0.22041 0.89104 0.0
C723 C 0.10535 0.22722 0.84338 0.0
C724 C 0.12669 0.22636 0.82492 0.0
C725 C 0.14358 0.21914 0.85441 0.0
C726 C 0.07867 0.22136 0.91196 0.0
C727 C 0.13173 0.2332 0.77401 0.0
C728 C 0.06222 0.22957 0.74688 0.0
C729 C 0.0594 0.25199 0.74172 0.0
C730 C 0.07628 0.22115 0.78178 0.0
C731 C 0.08761 0.23552 0.81238 0.0
C732 C 0.08379 0.25809 0.80925 0.0
C733 C 0.06982 0.26608 0.77367 0.0
C734 C 0.08009 0.197 0.78368 0.0
C735 C 0.09537 0.27389 0.84171 0.0
H736 H 0.11534 0.20797 0.95635 0.0
H737 H 0.15992 0.21865 0.8402 0.0
H738 H 0.07279 0.23834 0.91185 0.0
H739 H 0.06731 0.21179 0.88953 0.0
H740 H 0.07808 0.21508 0.94934 0.0
H741 H 0.14909 0.23092 0.76479 0.0
H742 H 0.12176 0.22373 0.74835 0.0
H743 H 0.12756 0.25054 0.76893 0.0
H744 H 0.05433 0.21865 0.72191 0.0
H745 H 0.06744 0.28341 0.77 0.0
H746 H 0.07907 0.19101 0.82117 0.0
H747 H 0.09665 0.19336 0.77045 0.0
H748 H 0.06826 0.18792 0.76135 0.0
H749 H 0.09431 0.26853 0.87967 0.0
H750 H 0.08862 0.29053 0.83878 0.0
H751 H 0.1128 0.27448 0.83205 0.0
C752 C 0.29038 0.63395 0.32851 0.0
C753 C 0.2772 0.65151 0.34141 0.0
C754 C 0.28363 0.61903 0.29363 0.0
C755 C 0.26312 0.62159 0.27157 0.0
C756 C 0.24937 0.63875 0.2858 0.0
C757 C 0.25663 0.65359 0.32034 0.0
C758 C 0.29881 0.60101 0.27906 0.0
C759 C 0.22726 0.64182 0.26353 0.0
C760 C 0.25687 0.59938 0.14566 0.0
C761 C 0.2465 0.57951 0.15406 0.0
C762 C 0.26219 0.61326 0.1836 0.0
C763 C 0.25675 0.60729 0.23114 0.0
C764 C 0.24573 0.58756 0.23987 0.0
C765 C 0.24081 0.57384 0.20119 0.0
C766 C 0.27395 0.63418 0.17284 0.0
C767 C 0.23951 0.5808 0.29011 0.0
H768 H 0.3063 0.63222 0.34458 0.0
H769 H 0.24622 0.66695 0.33052 0.0
H770 H 0.29049 0.58513 0.28165 0.0
H771 H 0.30371 0.60324 0.24105 0.0
H772 H 0.31366 0.6005 0.30163 0.0
H773 H 0.21784 0.65483 0.28145 0.0
H774 H 0.22902 0.64605 0.22501 0.0
H775 H 0.21786 0.62652 0.26542 0.0
H776 H 0.26091 0.60408 0.10925 0.0
H777 H 0.23295 0.55843 0.208 0.0
H778 H 0.28979 0.63438 0.19173 0.0
H779 H 0.26443 0.64815 0.18627 0.0
H780 H 0.27688 0.63648 0.13381 0.0
H781 H 0.25431 0.57843 0.31213 0.0
H782 H 0.22997 0.56553 0.29055 0.0
H783 H 0.22983 0.59374 0.30751 0.0
C784 C 0.35278 0.71923 0.62583 0.0
C785 C 0.35619 0.71243 0.5784 0.0
C786 C 0.36999 0.72628 0.65454 0.0
C787 C 0.39118 0.72682 0.63528 0.0
C788 C 0.39485 0.71984 0.58756 0.0
C789 C 0.37729 0.71256 0.55968 0.0
C790 C 0.3654 0.73332 0.70551 0.0
C791 C 0.41723 0.72042 0.5658 0.0
C792 C 0.4268 0.76549 0.7049 0.0
C793 C 0.4368 0.75139 0.73759 0.0
C794 C 0.41315 0.75753 0.6687 0.0
C795 C 0.40923 0.73497 0.66564 0.0
C796 C 0.42034 0.72058 0.69668 0.0
C797 C 0.43407 0.72898 0.73223 0.0
C798 C 0.40182 0.77337 0.63584 0.0
C799 C 0.41646 0.69644 0.69485 0.0
H800 H 0.33657 0.71898 0.64077 0.0
H801 H 0.37999 0.70742 0.52297 0.0
H802 H 0.37541 0.72375 0.73099 0.0
H803 H 0.36986 0.7506 0.71016 0.0
H804 H 0.34808 0.73131 0.71539 0.0
H805 H 0.41747 0.71393 0.52862 0.0
H806 H 0.42329 0.73734 0.56513 0.0
H807 H 0.42866 0.71086 0.58813 0.0
H808 H 0.42913 0.78282 0.70861 0.0
H809 H 0.44165 0.71804 0.75768 0.0
H810 H 0.38444 0.77439 0.64579 0.0
H811 H 0.40264 0.76778 0.59805 0.0
H812 H 0.40894 0.78987 0.63814 0.0
H813 H 0.40002 0.69283 0.70885 0.0
H814 H 0.42847 0.68732 0.71667 0.0
H815 H 0.41712 0.69049 0.65733 0.0
C816 C 0.75874 0.84509 0.17476 0.0
C817 C 0.77935 0.84609 0.1536 0.0
C818 C 0.752 0.86081 0.20777 0.0
C819 C 0.7663 0.87779 0.22034 0.0
C820 C 0.78683 0.87932 0.19799 0.0
C821 C 0.79308 0.86349 0.16464 0.0
C822 C 0.72986 0.85881 0.23043 0.0
C823 C 0.80257 0.89713 0.21081 0.0
C824 C 0.74466 0.92654 0.28834 0.0
C825 C 0.74998 0.92107 0.33581 0.0
C826 C 0.74975 0.91258 0.2502 0.0
C827 C 0.76053 0.8928 0.25989 0.0
C828 C 0.7658 0.88715 0.30773 0.0
C829 C 0.76033 0.90126 0.34507 0.0
C830 C 0.74373 0.919 0.1996 0.0
C831 C 0.77728 0.86618 0.31952 0.0
H832 H 0.74789 0.83187 0.16591 0.0
H833 H 0.809 0.8644 0.14839 0.0
H834 H 0.73162 0.85506 0.2692 0.0
H835 H 0.72096 0.87437 0.22756 0.0
H836 H 0.71995 0.84586 0.21351 0.0
H837 H 0.81721 0.89697 0.18765 0.0
H838 H 0.79463 0.91319 0.20757 0.0
H839 H 0.80776 0.89524 0.24875 0.0
H840 H 0.73681 0.94189 0.2809 0.0
H841 H 0.76408 0.89669 0.38174 0.0
H842 H 0.73335 0.90633 0.18319 0.0
H843 H 0.75854 0.9203 0.17726 0.0
H844 H 0.73496 0.9347 0.19824 0.0
H845 H 0.76734 0.85222 0.30754 0.0
H846 H 0.78054 0.86439 0.35857 0.0
H847 H 0.79292 0.86535 0.30001 0.0
C848 C 0.61652 0.28285 0.57344 0.0
C849 C 0.63728 0.28275 0.59399 0.0
C850 C 0.59843 0.27582 0.59981 0.0
C851 C 0.60121 0.26909 0.64804 0.0
C852 C 0.62213 0.26919 0.66897 0.0
C853 C 0.63992 0.2758 0.64153 0.0
C854 C 0.57643 0.27544 0.57609 0.0
C855 C 0.62574 0.26251 0.7206 0.0
C856 C 0.5575 0.27101 0.74241 0.0
C857 C 0.55425 0.24888 0.75144 0.0
C858 C 0.57163 0.27796 0.70623 0.0
C859 C 0.58241 0.26239 0.67773 0.0
C860 C 0.57749 0.24012 0.68339 0.0
C861 C 0.56357 0.23359 0.7205 0.0
C862 C 0.57648 0.30185 0.70157 0.0
C863 C 0.58829 0.22307 0.65288 0.0
H864 H 0.6145 0.288 0.53647 0.0
H865 H 0.65593 0.27583 0.6576 0.0
H866 H 0.56955 0.25885 0.57783 0.0
H867 H 0.56512 0.28627 0.59556 0.0
H868 H 0.57712 0.28061 0.5379 0.0
H869 H 0.643 0.26391 0.7316 0.0
H870 H 0.61583 0.27278 0.74478 0.0
H871 H 0.6205 0.2455 0.72594 0.0
H872 H 0.54985 0.28294 0.76538 0.0
H873 H 0.56114 0.21646 0.72713 0.0
H874 H 0.57631 0.30693 0.66337 0.0
H875 H 0.59296 0.30514 0.71582 0.0
H876 H 0.56472 0.31197 0.72173 0.0
H877 H 0.58873 0.22815 0.61467 0.0
H878 H 0.57987 0.2072 0.65551 0.0
H879 H 0.60528 0.22086 0.665 0.0
C880 C 0.23688 0.15053 0.15757 0.0
C881 C 0.21589 0.14881 0.13856 0.0
C882 C 0.24491 0.13499 0.18966 0.0
C883 C 0.23148 0.11753 0.20377 0.0
C884 C 0.21045 0.11543 0.18393 0.0
C885 C 0.20297 0.13101 0.15113 0.0
C886 C 0.26758 0.13756 0.20939 0.0
C887 C 0.19557 0.09719 0.19872 0.0
C888 C 0.2572 0.0693 0.26679 0.0
C889 C 0.25404 0.07477 0.31507 0.0
C890 C 0.24993 0.08306 0.22994 0.0
C891 C 0.23891 0.10244 0.24192 0.0
C892 C 0.23538 0.10779 0.29068 0.0
C893 C 0.24313 0.09396 0.32667 0.0
C894 C 0.25429 0.07705 0.17832 0.0
C895 C 0.22342 0.12815 0.30489 0.0
H896 H 0.24705 0.1641 0.1474 0.0
H897 H 0.18673 0.12965 0.13656 0.0
H898 H 0.26682 0.14094 0.24846 0.0
H899 H 0.27686 0.12232 0.20472 0.0
H900 H 0.27656 0.15096 0.19166 0.0
H901 H 0.18019 0.09717 0.17796 0.0
H902 H 0.20373 0.08135 0.19374 0.0
H903 H 0.19165 0.09871 0.23744 0.0
H904 H 0.2657 0.05447 0.25794 0.0
H905 H 0.24041 0.09799 0.36407 0.0
H906 H 0.26428 0.0898 0.16103 0.0
H907 H 0.23883 0.07609 0.15807 0.0
H908 H 0.26286 0.0613 0.17507 0.0
H909 H 0.2324 0.1426 0.29203 0.0
H910 H 0.22131 0.12949 0.34438 0.0
H911 H 0.20719 0.12847 0.28769 0.0
C912 C 0.20689 0.28992 0.95444 0.0
C913 C 0.20546 0.27979 -0.00053 0.0
C914 C 0.2063 0.31255 0.95029 0.0
C915 C 0.20407 0.32533 0.99212 0.0
C916 C 0.20194 0.31523 0.03749 0.0
C917 C 0.20274 0.29258 0.04066 0.0
C918 C 0.20871 0.32279 0.9013 0.0
C919 C 0.19936 0.32837 0.08285 0.0
C920 C 0.22697 0.38221 0.98993 0.0
C921 C 0.2083 0.39474 0.98287 0.0
C922 C 0.22578 0.3596 0.99287 0.0
C923 C 0.20539 0.34928 0.98879 0.0
C924 C 0.18645 0.36181 0.98162 0.0
C925 C 0.18814 0.38445 0.97855 0.0
C926 C 0.24637 0.34676 0.00014 0.0
C927 C 0.16443 0.35131 0.97743 0.0
H928 H 0.20896 0.28019 0.9224 0.0
H929 H 0.20138 0.28492 0.07556 0.0
H930 H 0.19514 0.33416 0.89438 0.0
H931 H 0.22393 0.33234 0.89997 0.0
H932 H 0.20909 0.31056 0.87208 0.0
H933 H 0.1964 0.31802 0.11484 0.0
H934 H 0.21423 0.33806 0.08924 0.0
H935 H 0.1857 0.33992 0.079 0.0
H936 H 0.24262 0.3901 0.99247 0.0
H937 H 0.17367 0.39414 0.97339 0.0
H938 H 0.24858 0.33521 0.97006 0.0
H939 H 0.24525 0.33709 0.03365 0.0
H940 H 0.26093 0.35729 0.00238 0.0
H941 H 0.16429 0.33977 0.94693 0.0
H942 H 0.1513 0.36337 0.97192 0.0
H943 H 0.16087 0.34188 0.01042 0.0
C944 C 0.20831 0.68968 0.52184 0.0
C945 C 0.21696 0.70493 0.48983 0.0
C946 C 0.18584 0.6876 0.52766 0.0
C947 C 0.17181 0.70158 0.502 0.0
C948 C 0.18049 0.71699 0.46957 0.0
C949 C 0.20299 0.71824 0.46333 0.0
C950 C 0.17712 0.67054 0.56142 0.0
C951 C 0.16606 0.73254 0.44248 0.0
C952 C 0.11214 0.68891 0.48536 0.0
C953 C 0.10263 0.70143 0.52179 0.0
C954 C 0.13471 0.68815 0.47964 0.0
C955 C 0.14807 0.70068 0.51015 0.0
C956 C 0.13868 0.71309 0.54736 0.0
C957 C 0.11613 0.71303 0.55322 0.0
C958 C 0.14421 0.67429 0.44029 0.0
C959 C 0.1524 0.72693 0.58019 0.0
H960 H 0.21915 0.67923 0.54197 0.0
H961 H 0.20971 0.73014 0.43885 0.0
H962 H 0.16854 0.67837 0.59174 0.0
H963 H 0.16516 0.66018 0.54246 0.0
H964 H 0.19014 0.66004 0.57623 0.0
H965 H 0.1754 0.74357 0.4187 0.0
H966 H 0.15424 0.72346 0.42026 0.0
H967 H 0.15664 0.74249 0.46825 0.0
H968 H 0.10196 0.68011 0.4604 0.0
H969 H 0.10908 0.7223 0.58227 0.0
H970 H 0.15716 0.66371 0.45501 0.0
H971 H 0.15175 0.68478 0.41258 0.0
H972 H 0.1318 0.66396 0.42267 0.0
H973 H 0.16451 0.71677 0.59913 0.0
H974 H 0.14256 0.73564 0.60739 0.0
H975 H 0.16148 0.73905 0.55868 0.0
C976 C 0.78501 0.70542 0.96902 0.0
C977 C 0.7854 0.71527 0.01443 0.0
C978 C 0.78625 0.68286 0.96429 0.0
C979 C 0.78798 0.66984 0.00595 0.0
C980 C 0.78865 0.67963 0.05182 0.0
C981 C 0.78732 0.70223 0.05553 0.0
C982 C 0.78544 0.67293 0.91478 0.0
C983 C 0.79053 0.66621 0.09702 0.0
C984 C 0.76891 0.61164 -0.00017 0.0
C985 C 0.78855 0.6004 0.99574 0.0
C986 C 0.76851 0.63427 0.0028 0.0
C987 C 0.78824 0.64591 0.00169 0.0
C988 C 0.80814 0.6347 0.99706 0.0
C989 C 0.80805 0.61201 0.99402 0.0
C990 C 0.74697 0.64571 0.00735 0.0
C991 C 0.82949 0.64664 0.9959 0.0
H992 H 0.78358 0.71532 0.937 0.0
H993 H 0.78776 0.70965 0.09077 0.0
H994 H 0.79992 0.66263 0.90884 0.0
H995 H 0.771 0.66231 0.91162 0.0
H996 H 0.78471 0.68536 0.88595 0.0
H997 H 0.7916 0.67637 0.12984 0.0
H998 H 0.77626 0.65538 0.10034 0.0
H999 H 0.80512 0.65574 0.09522 0.0
H1000 H 0.75379 0.60271 0.00037 0.0
H1001 H 0.82326 0.60333 0.99121 0.0
H1002 H 0.74489 0.6574 0.97742 0.0
H1003 H 0.7465 0.6551 0.04128 0.0
H1004 H 0.73308 0.63426 0.00706 0.0
H1005 H 0.82953 0.65857 0.96609 0.0
H1006 H 0.84348 0.63552 0.99127 0.0
H1007 H 0.83171 0.65582 0.02976 0.0
C1008 C 0.78886 0.28821 0.45888 0.0
C1009 C 0.77628 0.28665 0.50071 0.0
C1010 C 0.81148 0.28967 0.46134 0.0
C1011 C 0.82181 0.28947 0.5067 0.0
C1012 C 0.80927 0.28814 0.5491 0.0
C1013 C 0.78663 0.28679 0.54562 0.0
C1014 C 0.82436 0.29115 0.41534 0.0
C1015 C 0.81979 0.28784 0.59809 0.0
C1016 C 0.88018 0.27068 0.50903 0.0
C1017 C 0.8914 0.2904 0.51116 0.0
C1018 C 0.8575 0.27016 0.50829 0.0
C1019 C 0.84579 0.28985 0.50956 0.0
C1020 C 0.857 0.30982 0.51225 0.0
C1021 C 0.87973 0.30985 0.51317 0.0
C1022 C 0.84608 0.24854 0.50574 0.0
C1023 C 0.845 0.33112 0.51339 0.0
H1024 H 0.78105 0.28829 0.424 0.0
H1025 H 0.77708 0.28563 0.57815 0.0
H1026 H 0.83485 0.30575 0.41593 0.0
H1027 H 0.83515 0.27686 0.41206 0.0
H1028 H 0.81381 0.29193 0.38305 0.0
H1029 H 0.8077 0.2874 0.62759 0.0
H1030 H 0.83046 0.27344 0.60139 0.0
H1031 H 0.83015 0.30237 0.60274 0.0
H1032 H 0.88918 0.2556 0.50827 0.0
H1033 H 0.88841 0.32511 0.51451 0.0
H1034 H 0.83628 0.24761 0.47238 0.0
H1035 H 0.83476 0.2468 0.53643 0.0
H1036 H 0.85758 0.2347 0.50626 0.0
H1037 H 0.83536 0.33307 0.48001 0.0
H1038 H 0.85613 0.34519 0.51684 0.0
H1039 H 0.83346 0.33135 0.54389 0.0
C1040 C 0.70281 0.2052 0.53883 0.0
C1041 C 0.70338 0.21592 0.49438 0.0
C1042 C 0.70205 0.18255 0.54138 0.0
C1043 C 0.70182 0.17031 0.49846 0.0
C1044 C 0.70164 0.18098 0.45349 0.0
C1045 C 0.70245 0.20367 0.45197 0.0
C1046 C 0.70226 0.17169 0.59002 0.0
C1047 C 0.70131 0.16842 0.407 0.0
C1048 C 0.72581 0.1141 0.5073 0.0
C1049 C 0.70722 0.10118 0.51129 0.0
C1050 C 0.72422 0.13659 0.50214 0.0
C1051 C 0.7035 0.14638 0.5008 0.0
C1052 C 0.68463 0.13341 0.50349 0.0
C1053 C 0.68672 0.11088 0.50868 0.0
C1054 C 0.74472 0.14989 0.4991 0.0
C1055 C 0.6623 0.14336 0.50208 0.0
H1056 H 0.70338 0.21447 0.57183 0.0
H1057 H 0.7027 0.21177 0.41742 0.0
H1058 H 0.68866 0.16 0.59288 0.0
H1059 H 0.71752 0.16239 0.59449 0.0
H1060 H 0.70098 0.18352 0.6199 0.0
H1061 H 0.69944 0.17914 0.3752 0.0
H1062 H 0.71662 0.15918 0.4032 0.0
H1063 H 0.68785 0.1565 0.40717 0.0
H1064 H 0.74168 0.10658 0.50838 0.0
H1065 H 0.67233 0.10092 0.51199 0.0
H1066 H 0.74559 0.1612 0.52998 0.0
H1067 H 0.74463 0.15985 0.46591 0.0
H1068 H 0.75954 0.13967 0.49918 0.0
H1069 H 0.65998 0.1539 0.5339 0.0
H1070 H 0.64928 0.13092 0.50174 0.0
H1071 H 0.66052 0.15375 0.46978 0.0
C1072 C 0.28786 0.20812 0.96143 0.0
C1073 C 0.2773 0.20804 0.00605 0.0
C1074 C 0.31048 0.20674 0.95848 0.0
C1075 C 0.32283 0.20517 0.00115 0.0
C1076 C 0.31231 0.20462 0.04624 0.0
C1077 C 0.28966 0.20611 0.04817 0.0
C1078 C 0.32119 0.20741 0.90975 0.0
C1079 C 0.325 0.20287 0.09248 0.0
C1080 C 0.38111 0.18595 0.99265 0.0
C1081 C 0.39239 0.20564 0.99443 0.0
C1082 C 0.3584 0.1855 0.99488 0.0
C1083 C 0.34682 0.20522 -0.00128 0.0
C1084 C 0.35815 0.22514 0.00017 0.0
C1085 C 0.3808 0.2251 0.99801 0.0
C1086 C 0.3468 0.16398 0.99341 0.0
C1087 C 0.34633 0.2465 0.0039 0.0
H1088 H 0.27848 0.20953 0.92864 0.0
H1089 H 0.28167 0.20585 0.0828 0.0
H1090 H 0.3316 0.22202 0.90698 0.0
H1091 H 0.33183 0.19309 0.90507 0.0
H1092 H 0.30922 0.20775 0.87995 0.0
H1093 H 0.31432 0.20153 0.12442 0.0
H1094 H 0.3358 0.18851 0.09141 0.0
H1095 H 0.33548 0.21735 0.09682 0.0
H1096 H 0.39006 0.17089 0.99026 0.0
H1097 H 0.38948 0.24036 0.9986 0.0
H1098 H 0.3354 0.16358 0.9626 0.0
H1099 H 0.33705 0.16181 0.02651 0.0
H1100 H 0.3582 0.15013 0.99014 0.0
H1101 H 0.33511 0.24844 0.97303 0.0
H1102 H 0.35758 0.26054 0.00457 0.0
H1103 H 0.33638 0.24681 0.03704 0.0
C1104 C 0.28562 0.78792 0.54125 0.0
C1105 C 0.28604 0.77886 0.49505 0.0
C1106 C 0.28648 0.81044 0.54781 0.0
C1107 C 0.28785 0.82418 0.50722 0.0
C1108 C 0.28866 0.81516 0.4606 0.0
C1109 C 0.28772 0.79264 0.45507 0.0
C1110 C 0.28557 0.81955 0.59806 0.0
C1111 C 0.2902 0.82932 0.41644 0.0
C1112 C 0.26743 0.88189 0.51373 0.0
C1113 C 0.28683 0.89362 0.51677 0.0
C1114 C 0.26753 0.85923 0.51191 0.0
C1115 C 0.28753 0.84805 0.51309 0.0
C1116 C 0.30717 0.85975 0.51741 0.0
C1117 C 0.30658 0.88246 0.51928 0.0
C1118 C 0.24625 0.84728 0.50762 0.0
C1119 C 0.32879 0.84833 0.51865 0.0
H1120 H 0.28439 0.77745 0.57239 0.0
H1121 H 0.28822 0.78584 0.41922 0.0
H1122 H 0.29972 0.83023 0.60459 0.0
H1123 H 0.27081 0.82963 0.60222 0.0
H1124 H 0.28536 0.80665 0.6259 0.0
H1125 H 0.29152 0.81972 0.38287 0.0
H1126 H 0.27564 0.83981 0.41386 0.0
H1127 H 0.30451 0.84014 0.41911 0.0
H1128 H 0.25212 0.89049 0.51265 0.0
H1129 H 0.32161 0.89151 0.52136 0.0
H1130 H 0.2448 0.83507 0.53668 0.0
H1131 H 0.24565 0.83845 0.47297 0.0
H1132 H 0.23209 0.85835 0.50946 0.0
H1133 H 0.3289 0.83583 0.5473 0.0
H1134 H 0.34245 0.8597 0.52497 0.0
H1135 H 0.33154 0.83988 0.48406 0.0
C1136 C 0.70292 0.78979 0.05888 0.0
C1137 C 0.71561 0.78908 0.0171 0.0
C1138 C 0.68027 0.79128 0.05619 0.0
C1139 C 0.67008 0.79197 0.01068 0.0
C1140 C 0.68278 0.79169 0.96843 0.0
C1141 C 0.70538 0.7903 0.97214 0.0
C1142 C 0.66721 0.79168 0.10201 0.0
C1143 C 0.67245 0.79234 0.91924 0.0
C1144 C 0.61239 0.77183 0.99827 0.0
C1145 C 0.60077 0.79128 0.99452 0.0
C1146 C 0.63492 0.77187 0.00434 0.0
C1147 C 0.64609 0.79184 0.00701 0.0
C1148 C 0.63443 0.81155 0.00442 0.0
C1149 C 0.61186 0.81104 0.99814 0.0
C1150 C 0.6468 0.7505 0.00707 0.0
C1151 C 0.64584 0.83315 0.00726 0.0
H1152 H 0.71065 0.78902 0.0938 0.0
H1153 H 0.715 0.78981 0.93962 0.0
H1154 H 0.65626 0.80594 0.10226 0.0
H1155 H 0.65687 0.77702 0.1041 0.0
H1156 H 0.67765 0.79228 0.13451 0.0
H1157 H 0.68466 0.79292 0.88998 0.0
H1158 H 0.66219 0.77776 0.91407 0.0
H1159 H 0.66174 0.80669 0.91599 0.0
H1160 H 0.60384 0.75652 0.99643 0.0
H1161 H 0.60297 0.82611 0.99492 0.0
H1162 H 0.65633 0.74958 0.04081 0.0
H1163 H 0.65842 0.74923 0.97683 0.0
H1164 H 0.63563 0.73641 0.00565 0.0
H1165 H 0.65586 0.83398 0.0403 0.0
H1166 H 0.6343 0.84697 0.00725 0.0
H1167 H 0.65695 0.835 0.97625 0.0
loop_
_geom_bond_atom_site_label_1
_geom_bond_atom_site_label_2
_geom_bond_distance
_geom_bond_site_symmetry_2
_ccdc_geom_bond_type
Sc0 O3 2.031 . S
Sc0 O10 2.105 . S
Sc0 O13 2.105 . S
Sc0 O16 2.105 . S
Sc0 O19 2.105 . S
Sc1 O3 2.025 . S
Sc1 O11 2.110 . S
Sc1 O15 2.100 1_554 S
Sc1 O17 2.110 . S
Sc1 O21 2.100 1_554 S
Sc2 O3 2.019 1_556 S
Sc2 O12 2.105 . S
Sc2 O14 2.105 . S
Sc2 O18 2.105 . S
Sc2 O20 2.105 . S
O3 Sc0 2.031 . S
O3 Sc1 2.025 . S
O3 Sc2 2.019 1_554 S
C4 O10 1.272 . S
C4 O20 1.264 1_554 S
C5 O11 1.268 . S
C5 O19 1.268 . S
C6 O12 1.268 . S
C6 O21 1.268 . S
C7 O13 1.268 . S
C7 O17 1.268 . S
C8 O14 1.260 1_554 S
C8 O16 1.276 . S
C9 O15 1.268 . S
C9 O18 1.268 . S
O10 Sc0 2.105 . S
O10 C4 1.272 . S
O11 Sc1 2.110 . S
O11 C5 1.268 . S
O12 Sc2 2.105 . S
O12 C6 1.268 . S
O13 Sc0 2.105 . S
O13 C7 1.268 . S
O14 Sc2 2.105 . S
O14 C8 1.260 1_556 S
O15 Sc1 2.100 1_556 S
O15 C9 1.268 . S
O16 Sc0 2.105 . S
O16 C8 1.276 . S
O17 Sc1 2.110 . S
O17 C7 1.268 . S
O18 Sc2 2.105 . S
O18 C9 1.268 . S
O19 Sc0 2.105 . S
O19 C5 1.268 . S
O20 Sc2 2.105 . S
O20 C4 1.264 1_556 S
O21 Sc1 2.100 1_556 S
O21 C6 1.268 . S
Sc22 O25 2.025 . S
Sc22 O32 2.105 . S
Sc22 O35 2.105 . S
Sc22 O38 2.105 . S
Sc22 O41 2.105 . S
Sc23 O25 2.025 . S
Sc23 O33 2.105 . S
Sc23 O37 2.105 . S
Sc23 O39 2.105 . S
Sc23 O43 2.105 . S
Sc24 O25 2.025 . S
Sc24 O34 2.105 . S
Sc24 O36 2.105 . S
Sc24 O40 2.105 . S
Sc24 O42 2.105 . S
O25 Sc22 2.025 . S
O25 Sc23 2.025 . S
O25 Sc24 2.025 . S
C26 O32 1.268 . S
C26 O42 1.268 . S
C27 O33 1.268 . S
C27 O41 1.268 . S
C28 O34 1.268 . S
C28 O43 1.268 . S
C29 O35 1.268 . S
C29 O39 1.268 . S
C30 O36 1.268 . S
C30 O38 1.268 . S
C31 O37 1.268 . S
C31 O40 1.268 . S
O32 Sc22 2.105 . S
O32 C26 1.268 . S
O33 Sc23 2.105 . S
O33 C27 1.268 . S
O34 Sc24 2.105 . S
O34 C28 1.268 . S
O35 Sc22 2.105 . S
O35 C29 1.268 . S
O36 Sc24 2.105 . S
O36 C30 1.268 . S
O37 Sc23 2.105 . S
O37 C31 1.268 . S
O38 Sc22 2.105 . S
O38 C30 1.268 . S
O39 Sc23 2.105 . S
O39 C29 1.268 . S
O40 Sc24 2.105 . S
O40 C31 1.268 . S
O41 Sc22 2.105 . S
O41 C27 1.268 . S
O42 Sc24 2.105 . S
O42 C26 1.268 . S
O43 Sc23 2.105 . S
O43 C28 1.268 . S
Sc44 O47 2.019 1_556 S
Sc44 O54 2.105 . S
Sc44 O57 2.105 . S
Sc44 O60 2.105 . S
Sc44 O63 2.105 . S
Sc45 O47 2.025 . S
Sc45 O55 2.100 1_554 S
Sc45 O59 2.110 . S
Sc45 O61 2.100 1_554 S
Sc45 O65 2.110 . S
Sc46 O47 2.031 . S
Sc46 O56 2.105 . S
Sc46 O58 2.105 . S
Sc46 O62 2.105 . S
Sc46 O64 2.105 . S
O47 Sc44 2.019 1_554 S
O47 Sc45 2.025 . S
O47 Sc46 2.031 . S
C48 O54 1.264 1_554 S
C48 O64 1.272 . S
C49 O55 1.268 . S
C49 O63 1.268 . S
C50 O56 1.268 . S
C50 O65 1.268 . S
C51 O57 1.268 . S
C51 O61 1.268 . S
C52 O58 1.276 . S
C52 O60 1.260 1_554 S
C53 O59 1.268 . S
C53 O62 1.268 . S
O54 Sc44 2.105 . S
O54 C48 1.264 1_556 S
O55 Sc45 2.100 1_556 S
O55 C49 1.268 . S
O56 Sc46 2.105 . S
O56 C50 1.268 . S
O57 Sc44 2.105 . S
O57 C51 1.268 . S
O58 Sc46 2.105 . S
O58 C52 1.276 . S
O59 Sc45 2.110 . S
O59 C53 1.268 . S
O60 Sc44 2.105 . S
O60 C52 1.260 1_556 S
O61 Sc45 2.100 1_556 S
O61 C51 1.268 . S
O62 Sc46 2.105 . S
O62 C53 1.268 . S
O63 Sc44 2.105 . S
O63 C49 1.268 . S
O64 Sc46 2.105 . S
O64 C48 1.272 . S
O65 Sc45 2.110 . S
O65 C50 1.268 . S
Sc66 O69 2.025 . S
Sc66 O76 2.105 . S
Sc66 O79 2.105 . S
Sc66 O82 2.105 . S
Sc66 O85 2.105 . S
Sc67 O69 2.025 . S
Sc67 O77 2.105 . S
Sc67 O81 2.105 . S
Sc67 O83 2.105 . S
Sc67 O87 2.105 . S
Sc68 O69 2.025 . S
Sc68 O78 2.105 . S
Sc68 O80 2.105 . S
Sc68 O84 2.105 . S
Sc68 O86 2.105 . S
O69 Sc66 2.025 . S
O69 Sc67 2.025 . S
O69 Sc68 2.025 . S
C70 O76 1.268 . S
C70 O86 1.268 . S
C71 O77 1.268 . S
C71 O85 1.268 . S
C72 O78 1.268 . S
C72 O87 1.268 . S
C73 O79 1.268 . S
C73 O83 1.268 . S
C74 O80 1.268 . S
C74 O82 1.268 . S
C75 O81 1.268 . S
C75 O84 1.268 . S
O76 Sc66 2.105 . S
O76 C70 1.268 . S
O77 Sc67 2.105 . S
O77 C71 1.268 . S
O78 Sc68 2.105 . S
O78 C72 1.268 . S
O79 Sc66 2.105 . S
O79 C73 1.268 . S
O80 Sc68 2.105 . S
O80 C74 1.268 . S
O81 Sc67 2.105 . S
O81 C75 1.268 . S
O82 Sc66 2.105 . S
O82 C74 1.268 . S
O83 Sc67 2.105 . S
O83 C73 1.268 . S
O84 Sc68 2.105 . S
O84 C75 1.268 . S
O85 Sc66 2.105 . S
O85 C71 1.268 . S
O86 Sc68 2.105 . S
O86 C70 1.268 . S
O87 Sc67 2.105 . S
O87 C72 1.268 . S
C88 C89 1.386 . S
C88 C90 1.397 . S
C88 H112 0.931 . S
C89 C88 1.386 . S
C89 C93 1.397 . S
C90 C88 1.397 . S
C90 C91 1.384 . S
C90 H113 0.930 . S
C91 C90 1.384 . S
C91 C92 1.377 . S
C91 C94 1.481 . S
C92 C91 1.377 . S
C92 C93 1.389 . S
C92 H114 0.929 . S
C93 C89 1.397 . S
C93 C92 1.389 . S
C93 H115 0.931 . S
C94 C91 1.481 . S
C94 C95 1.387 . S
C94 C99 1.390 1_556 S
C95 C94 1.387 . S
C95 C96 1.401 1_556 S
C95 H116 0.930 . S
C96 C95 1.401 1_554 S
C96 C97 1.376 . S
C96 C105 1.511 . S
C97 C96 1.376 . S
C97 C98 1.392 . S
C97 H118 0.931 . S
C98 C97 1.392 . S
C98 C99 1.361 . S
C98 C100 1.500 . S
C99 C94 1.390 1_554 S
C99 C98 1.361 . S
C99 H117 0.931 . S
C100 C98 1.500 . S
C100 C101 1.371 . S
C100 C102 1.365 . S
C101 C100 1.371 . S
C101 C111 1.386 . S
C101 H119 0.931 . S
C102 C100 1.365 . S
C102 C103 1.409 . S
C102 H120 0.929 . S
C103 C102 1.409 . S
C103 C104 1.380 . S
C103 H121 0.930 . S
C104 C103 1.380 . S
C104 C111 1.357 . S
C105 C96 1.511 . S
C105 C106 1.341 1_554 S
C105 C107 1.371 . S
C106 C105 1.341 1_556 S
C106 C110 1.394 . S
C106 H122 0.930 . S
C107 C105 1.371 . S
C107 C108 1.392 . S
C107 H123 0.931 . S
C108 C107 1.392 . S
C108 C109 1.347 . S
C108 H126 0.932 . S
C109 C108 1.347 . S
C109 C110 1.320 1_554 S
C110 C106 1.394 . S
C110 C109 1.320 1_556 S
C110 H125 0.929 . S
C111 C101 1.386 . S
C111 C104 1.357 . S
C111 H124 0.928 . S
H112 C88 0.931 . S
H113 C90 0.930 . S
H114 C92 0.929 . S
H115 C93 0.931 . S
H116 C95 0.930 . S
H117 C99 0.931 . S
H118 C97 0.931 . S
H119 C101 0.931 . S
H120 C102 0.929 . S
H121 C103 0.930 . S
H122 C106 0.930 . S
H123 C107 0.931 . S
H124 C111 0.928 . S
H125 C110 0.929 . S
H126 C108 0.932 . S
C127 C128 1.386 . S
C127 C129 1.397 . S
C127 H151 0.931 . S
C128 C127 1.386 . S
C128 C132 1.397 . S
C129 C127 1.397 . S
C129 C130 1.384 . S
C129 H152 0.930 . S
C130 C129 1.384 . S
C130 C131 1.377 . S
C130 C133 1.481 . S
C131 C130 1.377 . S
C131 C132 1.389 . S
C131 H153 0.929 . S
C132 C128 1.397 . S
C132 C131 1.389 . S
C132 H154 0.931 . S
C133 C130 1.481 . S
C133 C134 1.387 . S
C133 C138 1.390 . S
C134 C133 1.387 . S
C134 C135 1.401 1_655 S
C134 H155 0.952 . S
C135 C134 1.401 1_455 S
C135 C136 1.376 1_455 S
C135 C144 1.511 . S
C136 C135 1.376 1_655 S
C136 C137 1.392 . S
C136 H157 0.931 . S
C137 C136 1.392 . S
C137 C138 1.361 . S
C137 C139 1.500 . S
C138 C133 1.390 . S
C138 C137 1.361 . S
C138 H156 0.931 . S
C139 C137 1.500 . S
C139 C140 1.371 . S
C139 C141 1.365 . S
C140 C139 1.371 . S
C140 C150 1.386 . S
C140 H158 0.931 . S
C141 C139 1.365 . S
C141 C142 1.409 . S
C141 H159 0.929 . S
C142 C141 1.409 . S
C142 C143 1.380 . S
C142 H160 0.930 . S
C143 C142 1.380 . S
C143 C150 1.357 . S
C144 C135 1.511 . S
C144 C145 1.341 . S
C144 C146 1.371 . S
C145 C144 1.341 . S
C145 C149 1.394 . S
C145 H161 0.930 . S
C146 C144 1.371 . S
C146 C147 1.392 . S
C146 H162 0.931 . S
C147 C146 1.392 . S
C147 C148 1.331 . S
C147 H165 0.932 . S
C148 C147 1.331 . S
C148 C149 1.336 . S
C149 C145 1.394 . S
C149 C148 1.336 . S
C149 H164 0.929 . S
C150 C140 1.386 . S
C150 C143 1.357 . S
C150 H163 0.928 . S
H151 C127 0.931 . S
H152 C129 0.930 . S
H153 C131 0.929 . S
H154 C132 0.931 . S
H155 C134 0.952 . S
H156 C138 0.931 . S
H157 C136 0.931 . S
H158 C140 0.931 . S
H159 C141 0.929 . S
H160 C142 0.930 . S
H161 C145 0.930 . S
H162 C146 0.931 . S
H163 C150 0.928 . S
H164 C149 0.929 . S
H165 C147 0.932 . S
C166 C167 1.386 . S
C166 C168 1.397 . S
C166 H190 0.931 . S
C167 C166 1.386 . S
C167 C171 1.397 . S
C168 C166 1.397 . S
C168 C169 1.384 . S
C168 H191 0.930 . S
C169 C168 1.384 . S
C169 C170 1.377 . S
C169 C172 1.481 . S
C170 C169 1.377 . S
C170 C171 1.389 . S
C170 H192 0.929 . S
C171 C167 1.397 . S
C171 C170 1.389 . S
C171 H193 0.931 . S
C172 C169 1.481 . S
C172 C173 1.387 . S
C172 C177 1.381 1_554 S
C173 C172 1.387 . S
C173 C174 1.401 1_554 S
C173 H194 0.930 . S
C174 C173 1.401 1_556 S
C174 C175 1.376 . S
C174 C183 1.511 . S
C175 C174 1.376 . S
C175 C176 1.392 . S
C175 H196 0.931 . S
C176 C175 1.392 . S
C176 C177 1.370 . S
C176 C178 1.500 . S
C177 C172 1.381 1_556 S
C177 C176 1.370 . S
C177 H195 0.931 . S
C178 C176 1.500 . S
C178 C179 1.371 . S
C178 C180 1.365 . S
C179 C178 1.371 . S
C179 C189 1.386 . S
C179 H197 0.931 . S
C180 C178 1.365 . S
C180 C181 1.409 . S
C180 H198 0.929 . S
C181 C180 1.409 . S
C181 C182 1.380 . S
C181 H199 0.930 . S
C182 C181 1.380 . S
C182 C189 1.357 . S
C183 C174 1.511 . S
C183 C184 1.341 1_556 S
C183 C185 1.371 . S
C184 C183 1.341 1_554 S
C184 C188 1.394 . S
C184 H200 0.930 . S
C185 C183 1.371 . S
C185 C186 1.392 . S
C185 H201 0.931 . S
C186 C185 1.392 . S
C186 C187 1.333 . S
C186 H204 0.932 . S
C187 C186 1.333 . S
C187 C188 1.334 1_556 S
C188 C184 1.394 . S
C188 C187 1.334 1_554 S
C188 H203 0.929 . S
C189 C179 1.386 . S
C189 C182 1.357 . S
C189 H202 0.928 . S
H190 C166 0.931 . S
H191 C168 0.930 . S
H192 C170 0.929 . S
H193 C171 0.931 . S
H194 C173 0.930 . S
H195 C177 0.931 . S
H196 C175 0.931 . S
H197 C179 0.931 . S
H198 C180 0.929 . S
H199 C181 0.930 . S
H200 C184 0.930 . S
H201 C185 0.931 . S
H202 C189 0.928 . S
H203 C188 0.929 . S
H204 C186 0.932 . S
C205 C206 1.386 . S
C205 C207 1.397 . S
C205 H229 0.931 . S
C206 C205 1.386 . S
C206 C210 1.397 . S
C207 C205 1.397 . S
C207 C208 1.384 . S
C207 H230 0.930 . S
C208 C207 1.384 . S
C208 C209 1.377 . S
C208 C211 1.481 . S
C209 C208 1.377 . S
C209 C210 1.389 . S
C209 H231 0.929 . S
C210 C206 1.397 . S
C210 C209 1.389 . S
C210 H232 0.931 . S
C211 C208 1.481 . S
C211 C212 1.387 . S
C211 C216 1.390 . S
C212 C211 1.387 . S
C212 C213 1.401 1_455 S
C212 H233 0.933 . S
C213 C212 1.401 1_655 S
C213 C214 1.376 1_655 S
C213 C222 1.511 . S
C214 C213 1.376 1_455 S
C214 C215 1.392 . S
C214 H235 0.956 . S
C215 C214 1.392 . S
C215 C216 1.361 . S
C215 C217 1.500 . S
C216 C211 1.390 . S
C216 C215 1.361 . S
C216 H234 0.931 . S
C217 C215 1.500 . S
C217 C218 1.371 . S
C217 C219 1.365 . S
C218 C217 1.371 . S
C218 C228 1.386 . S
C218 H236 0.931 . S
C219 C217 1.365 . S
C219 C220 1.409 . S
C219 H237 0.929 . S
C220 C219 1.409 . S
C220 C221 1.380 . S
C220 H238 0.930 . S
C221 C220 1.380 . S
C221 C228 1.357 . S
C222 C213 1.511 . S
C222 C223 1.341 . S
C222 C224 1.371 . S
C223 C222 1.341 . S
C223 C227 1.394 . S
C223 H239 0.930 . S
C224 C222 1.371 . S
C224 C225 1.392 . S
C224 H240 0.931 . S
C225 C224 1.392 . S
C225 C226 1.331 . S
C225 H243 0.932 . S
C226 C225 1.331 . S
C226 C227 1.336 . S
C227 C223 1.394 . S
C227 C226 1.336 . S
C227 H242 0.929 . S
C228 C218 1.386 . S
C228 C221 1.357 . S
C228 H241 0.928 . S
H229 C205 0.931 . S
H230 C207 0.930 . S
H231 C209 0.929 . S
H232 C210 0.931 . S
H233 C212 0.933 . S
H234 C216 0.931 . S
H235 C214 0.956 . S
H236 C218 0.931 . S
H237 C219 0.929 . S
H238 C220 0.930 . S
H239 C223 0.930 . S
H240 C224 0.931 . S
H241 C228 0.928 . S
H242 C227 0.929 . S
H243 C225 0.932 . S
C244 C245 1.386 . S
C244 C246 1.397 . S
C244 H268 0.931 . S
C245 C244 1.386 . S
C245 C249 1.397 . S
C246 C244 1.397 . S
C246 C247 1.384 . S
C246 H269 0.930 . S
C247 C246 1.384 . S
C247 C248 1.377 . S
C247 C250 1.481 . S
C248 C247 1.377 . S
C248 C249 1.389 . S
C248 H270 0.929 . S
C249 C245 1.397 . S
C249 C248 1.389 . S
C249 H271 0.931 . S
C250 C247 1.481 . S
C250 C251 1.387 . S
C250 C255 1.390 . S
C251 C250 1.387 . S
C251 C252 1.401 1_565 S
C251 H272 0.953 . S
C252 C251 1.401 1_545 S
C252 C253 1.376 1_545 S
C252 C261 1.511 . S
C253 C252 1.376 1_565 S
C253 C254 1.392 . S
C253 H274 0.931 . S
C254 C253 1.392 . S
C254 C255 1.361 . S
C254 C256 1.500 . S
C255 C250 1.390 . S
C255 C254 1.361 . S
C255 H273 0.931 . S
C256 C254 1.500 . S
C256 C257 1.371 . S
C256 C258 1.365 . S
C257 C256 1.371 . S
C257 C267 1.386 . S
C257 H275 0.931 . S
C258 C256 1.365 . S
C258 C259 1.409 . S
C258 H276 0.929 . S
C259 C258 1.409 . S
C259 C260 1.380 . S
C259 H277 0.930 . S
C260 C259 1.380 . S
C260 C267 1.357 . S
C261 C252 1.511 . S
C261 C262 1.341 . S
C261 C263 1.371 . S
C262 C261 1.341 . S
C262 C266 1.394 . S
C262 H278 0.930 . S
C263 C261 1.371 . S
C263 C264 1.392 . S
C263 H279 0.931 . S
C264 C263 1.392 . S
C264 C265 1.331 . S
C264 H282 0.932 . S
C265 C264 1.331 . S
C265 C266 1.336 . S
C266 C262 1.394 . S
C266 C265 1.336 . S
C266 H281 0.929 . S
C267 C257 1.386 . S
C267 C260 1.357 . S
C267 H280 0.928 . S
H268 C244 0.931 . S
H269 C246 0.930 . S
H270 C248 0.929 . S
H271 C249 0.931 . S
H272 C251 0.953 . S
H273 C255 0.931 . S
H274 C253 0.931 . S
H275 C257 0.931 . S
H276 C258 0.929 . S
H277 C259 0.930 . S
H278 C262 0.930 . S
H279 C263 0.931 . S
H280 C267 0.928 . S
H281 C266 0.929 . S
H282 C264 0.932 . S
C283 C284 1.386 . S
C283 C285 1.397 . S
C283 H307 0.931 . S
C284 C283 1.386 . S
C284 C288 1.397 . S
C285 C283 1.397 . S
C285 C286 1.384 . S
C285 H308 0.930 . S
C286 C285 1.384 . S
C286 C287 1.377 . S
C286 C289 1.481 . S
C287 C286 1.377 . S
C287 C288 1.389 . S
C287 H309 0.929 . S
C288 C284 1.397 . S
C288 C287 1.389 . S
C288 H310 0.931 . S
C289 C286 1.481 . S
C289 C290 1.387 . S
C289 C294 1.381 1_554 S
C290 C289 1.387 . S
C290 C291 1.401 1_554 S
C290 H311 0.930 . S
C291 C290 1.401 1_556 S
C291 C292 1.376 . S
C291 C300 1.511 . S
C292 C291 1.376 . S
C292 C293 1.392 . S
C292 H313 0.931 . S
C293 C292 1.392 . S
C293 C294 1.370 . S
C293 C295 1.500 . S
C294 C289 1.381 1_556 S
C294 C293 1.370 . S
C294 H312 0.931 . S
C295 C293 1.500 . S
C295 C296 1.371 . S
C295 C297 1.365 . S
C296 C295 1.371 . S
C296 C306 1.386 . S
C296 H314 0.931 . S
C297 C295 1.365 . S
C297 C298 1.409 . S
C297 H315 0.929 . S
C298 C297 1.409 . S
C298 C299 1.380 . S
C298 H316 0.930 . S
C299 C298 1.380 . S
C299 C306 1.357 . S
C300 C291 1.511 . S
C300 C301 1.341 1_556 S
C300 C302 1.371 . S
C301 C300 1.341 1_554 S
C301 C305 1.394 . S
C301 H317 0.930 . S
C302 C300 1.371 . S
C302 C303 1.392 . S
C302 H318 0.931 . S
C303 C302 1.392 . S
C303 C304 1.333 . S
C303 H321 0.932 . S
C304 C303 1.333 . S
C304 C305 1.334 1_556 S
C305 C301 1.394 . S
C305 C304 1.334 1_554 S
C305 H320 0.929 . S
C306 C296 1.386 . S
C306 C299 1.357 . S
C306 H319 0.928 . S
H307 C283 0.931 . S
H308 C285 0.930 . S
H309 C287 0.929 . S
H310 C288 0.931 . S
H311 C290 0.930 . S
H312 C294 0.931 . S
H313 C292 0.931 . S
H314 C296 0.931 . S
H315 C297 0.929 . S
H316 C298 0.930 . S
H317 C301 0.930 . S
H318 C302 0.931 . S
H319 C306 0.928 . S
H320 C305 0.929 . S
H321 C303 0.932 . S
C322 C323 1.386 . S
C322 C324 1.397 . S
C322 H346 0.931 . S
C323 C322 1.386 . S
C323 C327 1.397 . S
C324 C322 1.397 . S
C324 C325 1.384 . S
C324 H347 0.930 . S
C325 C324 1.384 . S
C325 C326 1.377 . S
C325 C328 1.481 . S
C326 C325 1.377 . S
C326 C327 1.389 . S
C326 H348 0.929 . S
C327 C323 1.397 . S
C327 C326 1.389 . S
C327 H349 0.931 . S
C328 C325 1.481 . S
C328 C329 1.387 . S
C328 C333 1.390 . S
C329 C328 1.387 . S
C329 C330 1.401 1_545 S
C329 H350 0.933 . S
C330 C329 1.401 1_565 S
C330 C331 1.376 1_565 S
C330 C339 1.511 . S
C331 C330 1.376 1_545 S
C331 C332 1.392 . S
C331 H352 0.956 . S
C332 C331 1.392 . S
C332 C333 1.361 . S
C332 C334 1.500 . S
C333 C328 1.390 . S
C333 C332 1.361 . S
C333 H351 0.931 . S
C334 C332 1.500 . S
C334 C335 1.371 . S
C334 C336 1.365 . S
C335 C334 1.371 . S
C335 C345 1.386 . S
C335 H353 0.931 . S
C336 C334 1.365 . S
C336 C337 1.409 . S
C336 H354 0.929 . S
C337 C336 1.409 . S
C337 C338 1.380 . S
C337 H355 0.930 . S
C338 C337 1.380 . S
C338 C345 1.357 . S
C339 C330 1.511 . S
C339 C340 1.341 . S
C339 C341 1.371 . S
C340 C339 1.341 . S
C340 C344 1.394 . S
C340 H356 0.930 . S
C341 C339 1.371 . S
C341 C342 1.392 . S
C341 H357 0.931 . S
C342 C341 1.392 . S
C342 C343 1.331 . S
C342 H360 0.932 . S
C343 C342 1.331 . S
C343 C344 1.336 . S
C344 C340 1.394 . S
C344 C343 1.336 . S
C344 H359 0.929 . S
C345 C335 1.386 . S
C345 C338 1.357 . S
C345 H358 0.928 . S
H346 C322 0.931 . S
H347 C324 0.930 . S
H348 C326 0.929 . S
H349 C327 0.931 . S
H350 C329 0.933 . S
H351 C333 0.931 . S
H352 C331 0.956 . S
H353 C335 0.931 . S
H354 C336 0.929 . S
H355 C337 0.930 . S
H356 C340 0.930 . S
H357 C341 0.931 . S
H358 C345 0.928 . S
H359 C344 0.929 . S
H360 C342 0.932 . S
C361 C362 1.386 . S
C361 C363 1.397 . S
C361 H385 0.931 . S
C362 C361 1.386 . S
C362 C366 1.397 . S
C363 C361 1.397 . S
C363 C364 1.384 . S
C363 H386 0.930 . S
C364 C363 1.384 . S
C364 C365 1.377 . S
C364 C367 1.481 . S
C365 C364 1.377 . S
C365 C366 1.389 . S
C365 H387 0.929 . S
C366 C362 1.397 . S
C366 C365 1.389 . S
C366 H388 0.931 . S
C367 C364 1.481 . S
C367 C368 1.387 . S
C367 C372 1.390 1_556 S
C368 C367 1.387 . S
C368 C369 1.401 1_556 S
C368 H389 0.930 . S
C369 C368 1.401 1_554 S
C369 C370 1.376 . S
C369 C378 1.511 . S
C370 C369 1.376 . S
C370 C371 1.392 . S
C370 H391 0.931 . S
C371 C370 1.392 . S
C371 C372 1.361 . S
C371 C373 1.500 . S
C372 C367 1.390 1_554 S
C372 C371 1.361 . S
C372 H390 0.931 . S
C373 C371 1.500 . S
C373 C374 1.371 . S
C373 C375 1.365 . S
C374 C373 1.371 . S
C374 C384 1.386 . S
C374 H392 0.931 . S
C375 C373 1.365 . S
C375 C376 1.409 . S
C375 H393 0.929 . S
C376 C375 1.409 . S
C376 C377 1.380 . S
C376 H394 0.930 . S
C377 C376 1.380 . S
C377 C384 1.357 . S
C378 C369 1.511 . S
C378 C379 1.341 1_554 S
C378 C380 1.371 . S
C379 C378 1.341 1_556 S
C379 C383 1.394 . S
C379 H395 0.930 . S
C380 C378 1.371 . S
C380 C381 1.392 . S
C380 H396 0.931 . S
C381 C380 1.392 . S
C381 C382 1.347 . S
C381 H399 0.932 . S
C382 C381 1.347 . S
C382 C383 1.320 1_554 S
C383 C379 1.394 . S
C383 C382 1.320 1_556 S
C383 H398 0.929 . S
C384 C374 1.386 . S
C384 C377 1.357 . S
C384 H397 0.928 . S
H385 C361 0.931 . S
H386 C363 0.930 . S
H387 C365 0.929 . S
H388 C366 0.931 . S
H389 C368 0.930 . S
H390 C372 0.931 . S
H391 C370 0.931 . S
H392 C374 0.931 . S
H393 C375 0.929 . S
H394 C376 0.930 . S
H395 C379 0.930 . S
H396 C380 0.931 . S
H397 C384 0.928 . S
H398 C383 0.929 . S
H399 C381 0.932 . S
C400 C401 1.391 . S
C400 C402 1.394 . S
C400 H416 0.931 . S
C401 C400 1.391 . S
C401 C405 1.376 . S
C402 C400 1.394 . S
C402 C403 1.369 . S
C402 C406 1.531 . S
C403 C402 1.369 . S
C403 C404 1.410 . S
C403 C411 1.503 . S
C404 C403 1.410 . S
C404 C405 1.392 . S
C404 C407 1.511 . S
C405 C401 1.376 . S
C405 C404 1.392 . S
C405 H417 0.929 . S
C406 C402 1.531 . S
C406 H418 0.960 . S
C406 H419 0.962 . S
C406 H420 0.960 . S
C407 C404 1.511 . S
C407 H421 0.961 . S
C407 H422 0.961 . S
C407 H423 0.961 . S
C408 C409 1.370 . S
C408 C410 1.363 . S
C408 H424 0.931 . S
C409 C408 1.370 . S
C409 C413 1.408 . S
C410 C408 1.363 . S
C410 C411 1.370 . S
C410 C414 1.524 . S
C411 C403 1.503 . S
C411 C410 1.370 . S
C411 C412 1.403 . S
C412 C411 1.403 . S
C412 C413 1.404 . S
C412 C415 1.539 . S
C413 C409 1.408 . S
C413 C412 1.404 . S
C413 H425 0.930 . S
C414 C410 1.524 . S
C414 H426 0.956 . S
C414 H427 0.961 . S
C414 H428 0.961 . S
C415 C412 1.539 . S
C415 H429 0.958 . S
C415 H430 0.961 . S
C415 H431 0.960 . S
H416 C400 0.931 . S
H417 C405 0.929 . S
H418 C406 0.960 . S
H419 C406 0.962 . S
H420 C406 0.960 . S
H421 C407 0.961 . S
H422 C407 0.961 . S
H423 C407 0.961 . S
H424 C408 0.931 . S
H425 C413 0.930 . S
H426 C414 0.956 . S
H427 C414 0.961 . S
H428 C414 0.961 . S
H429 C415 0.958 . S
H430 C415 0.961 . S
H431 C415 0.960 . S
C432 C433 1.391 . S
C432 C434 1.394 . S
C432 H448 0.931 . S
C433 C432 1.391 . S
C433 C437 1.376 . S
C434 C432 1.394 . S
C434 C435 1.369 . S
C434 C438 1.531 . S
C435 C434 1.369 . S
C435 C436 1.410 . S
C435 C443 1.503 . S
C436 C435 1.410 . S
C436 C437 1.392 . S
C436 C439 1.511 . S
C437 C433 1.376 . S
C437 C436 1.392 . S
C437 H449 0.929 . S
C438 C434 1.531 . S
C438 H450 0.960 . S
C438 H451 0.962 . S
C438 H452 0.960 . S
C439 C436 1.511 . S
C439 H453 0.961 . S
C439 H454 0.961 . S
C439 H455 0.961 . S
C440 C441 1.370 . S
C440 C442 1.363 . S
C440 H456 0.931 . S
C441 C440 1.370 . S
C441 C445 1.408 . S
C442 C440 1.363 . S
C442 C443 1.370 . S
C442 C446 1.524 . S
C443 C435 1.503 . S
C443 C442 1.370 . S
C443 C444 1.403 . S
C444 C443 1.403 . S
C444 C445 1.404 . S
C444 C447 1.539 . S
C445 C441 1.408 . S
C445 C444 1.404 . S
C445 H457 0.930 . S
C446 C442 1.524 . S
C446 H458 0.956 . S
C446 H459 0.961 . S
C446 H460 0.961 . S
C447 C444 1.539 . S
C447 H461 0.958 . S
C447 H462 0.961 . S
C447 H463 0.960 . S
H448 C432 0.931 . S
H449 C437 0.929 . S
H450 C438 0.960 . S
H451 C438 0.962 . S
H452 C438 0.960 . S
H453 C439 0.961 . S
H454 C439 0.961 . S
H455 C439 0.961 . S
H456 C440 0.931 . S
H457 C445 0.930 . S
H458 C446 0.956 . S
H459 C446 0.961 . S
H460 C446 0.961 . S
H461 C447 0.958 . S
H462 C447 0.961 . S
H463 C447 0.960 . S
C464 C465 1.391 . S
C464 C466 1.394 . S
C464 H480 0.931 . S
C465 C464 1.391 . S
C465 C469 1.376 . S
C466 C464 1.394 . S
C466 C467 1.369 . S
C466 C470 1.531 . S
C467 C466 1.369 . S
C467 C468 1.410 . S
C467 C475 1.503 . S
C468 C467 1.410 . S
C468 C469 1.392 . S
C468 C471 1.511 . S
C469 C465 1.376 . S
C469 C468 1.392 . S
C469 H481 0.929 . S
C470 C466 1.531 . S
C470 H482 0.960 . S
C470 H483 0.962 . S
C470 H484 0.960 . S
C471 C468 1.511 . S
C471 H485 0.961 . S
C471 H486 0.961 . S
C471 H487 0.961 . S
C472 C473 1.370 . S
C472 C474 1.363 . S
C472 H488 0.931 . S
C473 C472 1.370 . S
C473 C477 1.408 . S
C474 C472 1.363 . S
C474 C475 1.370 . S
C474 C478 1.524 . S
C475 C467 1.503 . S
C475 C474 1.370 . S
C475 C476 1.403 . S
C476 C475 1.403 . S
C476 C477 1.404 . S
C476 C479 1.539 . S
C477 C473 1.408 . S
C477 C476 1.404 . S
C477 H489 0.930 . S
C478 C474 1.524 . S
C478 H490 0.956 . S
C478 H491 0.961 . S
C478 H492 0.961 . S
C479 C476 1.539 . S
C479 H493 0.958 . S
C479 H494 0.961 . S
C479 H495 0.960 . S
H480 C464 0.931 . S
H481 C469 0.929 . S
H482 C470 0.960 . S
H483 C470 0.962 . S
H484 C470 0.960 . S
H485 C471 0.961 . S
H486 C471 0.961 . S
H487 C471 0.961 . S
H488 C472 0.931 . S
H489 C477 0.930 . S
H490 C478 0.956 . S
H491 C478 0.961 . S
H492 C478 0.961 . S
H493 C479 0.958 . S
H494 C479 0.961 . S
H495 C479 0.960 . S
C496 C497 1.391 . S
C496 C498 1.394 . S
C496 H512 0.931 . S
C497 C496 1.391 . S
C497 C501 1.376 . S
C498 C496 1.394 . S
C498 C499 1.369 . S
C498 C502 1.531 . S
C499 C498 1.369 . S
C499 C500 1.410 . S
C499 C507 1.503 . S
C500 C499 1.410 . S
C500 C501 1.392 . S
C500 C503 1.511 . S
C501 C497 1.376 . S
C501 C500 1.392 . S
C501 H513 0.929 . S
C502 C498 1.531 . S
C502 H514 0.960 . S
C502 H515 0.962 . S
C502 H516 0.960 . S
C503 C500 1.511 . S
C503 H517 0.961 . S
C503 H518 0.961 . S
C503 H519 0.961 . S
C504 C505 1.370 . S
C504 C506 1.363 . S
C504 H520 0.931 . S
C505 C504 1.370 . S
C505 C509 1.408 . S
C506 C504 1.363 . S
C506 C507 1.370 . S
C506 C510 1.524 . S
C507 C499 1.503 . S
C507 C506 1.370 . S
C507 C508 1.403 . S
C508 C507 1.403 . S
C508 C509 1.404 . S
C508 C511 1.539 . S
C509 C505 1.408 . S
C509 C508 1.404 . S
C509 H521 0.930 . S
C510 C506 1.524 . S
C510 H522 0.956 . S
C510 H523 0.961 . S
C510 H524 0.961 . S
C511 C508 1.539 . S
C511 H525 0.958 . S
C511 H526 0.961 . S
C511 H527 0.960 . S
H512 C496 0.931 . S
H513 C501 0.929 . S
H514 C502 0.960 . S
H515 C502 0.962 . S
H516 C502 0.960 . S
H517 C503 0.961 . S
H518 C503 0.961 . S
H519 C503 0.961 . S
H520 C504 0.931 . S
H521 C509 0.930 . S
H522 C510 0.956 . S
H523 C510 0.961 . S
H524 C510 0.961 . S
H525 C511 0.958 . S
H526 C511 0.961 . S
H527 C511 0.960 . S
C528 C529 1.391 . S
C528 C530 1.394 . S
C528 H544 0.931 . S
C529 C528 1.391 . S
C529 C533 1.376 . S
C530 C528 1.394 . S
C530 C531 1.369 . S
C530 C534 1.531 . S
C531 C530 1.369 . S
C531 C532 1.410 . S
C531 C539 1.503 . S
C532 C531 1.410 . S
C532 C533 1.392 . S
C532 C535 1.511 . S
C533 C529 1.376 . S
C533 C532 1.392 . S
C533 H545 0.929 . S
C534 C530 1.531 . S
C534 H546 0.960 . S
C534 H547 0.962 . S
C534 H548 0.960 . S
C535 C532 1.511 . S
C535 H549 0.961 . S
C535 H550 0.961 . S
C535 H551 0.961 . S
C536 C537 1.370 . S
C536 C538 1.363 . S
C536 H552 0.931 . S
C537 C536 1.370 . S
C537 C541 1.408 . S
C538 C536 1.363 . S
C538 C539 1.370 . S
C538 C542 1.524 . S
C539 C531 1.503 . S
C539 C538 1.370 . S
C539 C540 1.403 . S
C540 C539 1.403 . S
C540 C541 1.404 . S
C540 C543 1.539 . S
C541 C537 1.408 . S
C541 C540 1.404 . S
C541 H553 0.930 . S
C542 C538 1.524 . S
C542 H554 0.956 . S
C542 H555 0.961 . S
C542 H556 0.961 . S
C543 C540 1.539 . S
C543 H557 0.958 . S
C543 H558 0.961 . S
C543 H559 0.960 . S
H544 C528 0.931 . S
H545 C533 0.929 . S
H546 C534 0.960 . S
H547 C534 0.962 . S
H548 C534 0.960 . S
H549 C535 0.961 . S
H550 C535 0.961 . S
H551 C535 0.961 . S
H552 C536 0.931 . S
H553 C541 0.930 . S
H554 C542 0.956 . S
H555 C542 0.961 . S
H556 C542 0.961 . S
H557 C543 0.958 . S
H558 C543 0.961 . S
H559 C543 0.960 . S
C560 C561 1.391 . S
C560 C562 1.394 . S
C560 H576 0.931 . S
C561 C560 1.391 . S
C561 C565 1.376 . S
C562 C560 1.394 . S
C562 C563 1.369 . S
C562 C566 1.531 . S
C563 C562 1.369 . S
C563 C564 1.410 . S
C563 C571 1.503 . S
C564 C563 1.410 . S
C564 C565 1.392 . S
C564 C567 1.511 . S
C565 C561 1.376 . S
C565 C564 1.392 . S
C565 H577 0.929 . S
C566 C562 1.531 . S
C566 H578 0.960 . S
C566 H579 0.962 . S
C566 H580 0.960 . S
C567 C564 1.511 . S
C567 H581 0.961 . S
C567 H582 0.961 . S
C567 H583 0.961 . S
C568 C569 1.370 . S
C568 C570 1.363 . S
C568 H584 0.931 . S
C569 C568 1.370 . S
C569 C573 1.408 . S
C570 C568 1.363 . S
C570 C571 1.370 . S
C570 C574 1.524 . S
C571 C563 1.503 . S
C571 C570 1.370 . S
C571 C572 1.403 . S
C572 C571 1.403 . S
C572 C573 1.404 . S
C572 C575 1.539 . S
C573 C569 1.408 . S
C573 C572 1.404 . S
C573 H585 0.930 . S
C574 C570 1.524 . S
C574 H586 0.956 . S
C574 H587 0.961 . S
C574 H588 0.961 . S
C575 C572 1.539 . S
C575 H589 0.958 . S
C575 H590 0.961 . S
C575 H591 0.960 . S
H576 C560 0.931 . S
H577 C565 0.929 . S
H578 C566 0.960 . S
H579 C566 0.962 . S
H580 C566 0.960 . S
H581 C567 0.961 . S
H582 C567 0.961 . S
H583 C567 0.961 . S
H584 C568 0.931 . S
H585 C573 0.930 . S
H586 C574 0.956 . S
H587 C574 0.961 . S
H588 C574 0.961 . S
H589 C575 0.958 . S
H590 C575 0.961 . S
H591 C575 0.960 . S
C592 C593 1.391 . S
C592 C594 1.394 . S
C592 H608 0.931 . S
C593 C592 1.391 . S
C593 C597 1.376 . S
C594 C592 1.394 . S
C594 C595 1.369 . S
C594 C598 1.531 . S
C595 C594 1.369 . S
C595 C596 1.410 . S
C595 C603 1.503 . S
C596 C595 1.410 . S
C596 C597 1.392 . S
C596 C599 1.511 . S
C597 C593 1.376 . S
C597 C596 1.392 . S
C597 H609 0.929 . S
C598 C594 1.531 . S
C598 H610 0.960 . S
C598 H611 0.962 . S
C598 H612 0.960 . S
C599 C596 1.511 . S
C599 H613 0.961 . S
C599 H614 0.961 . S
C599 H615 0.961 . S
C600 C601 1.370 . S
C600 C602 1.363 . S
C600 H616 0.931 . S
C601 C600 1.370 . S
C601 C605 1.408 . S
C602 C600 1.363 . S
C602 C603 1.370 . S
C602 C606 1.524 . S
C603 C595 1.503 . S
C603 C602 1.370 . S
C603 C604 1.403 . S
C604 C603 1.403 . S
C604 C605 1.404 . S
C604 C607 1.539 . S
C605 C601 1.408 . S
C605 C604 1.404 . S
C605 H617 0.930 . S
C606 C602 1.524 . S
C606 H618 0.956 . S
C606 H619 0.961 . S
C606 H620 0.961 . S
C607 C604 1.539 . S
C607 H621 0.958 . S
C607 H622 0.961 . S
C607 H623 0.960 . S
H608 C592 0.931 . S
H609 C597 0.929 . S
H610 C598 0.960 . S
H611 C598 0.962 . S
H612 C598 0.960 . S
H613 C599 0.961 . S
H614 C599 0.961 . S
H615 C599 0.961 . S
H616 C600 0.931 . S
H617 C605 0.930 . S
H618 C606 0.956 . S
H619 C606 0.961 . S
H620 C606 0.961 . S
H621 C607 0.958 . S
H622 C607 0.961 . S
H623 C607 0.960 . S
C624 C625 1.391 . S
C624 C626 1.394 . S
C624 H640 0.931 . S
C625 C624 1.391 . S
C625 C629 1.376 . S
C626 C624 1.394 . S
C626 C627 1.369 . S
C626 C630 1.531 . S
C627 C626 1.369 . S
C627 C628 1.410 . S
C627 C635 1.503 . S
C628 C627 1.410 . S
C628 C629 1.392 . S
C628 C631 1.511 . S
C629 C625 1.376 . S
C629 C628 1.392 . S
C629 H641 0.929 . S
C630 C626 1.531 . S
C630 H642 0.960 . S
C630 H643 0.962 . S
C630 H644 0.960 . S
C631 C628 1.511 . S
C631 H645 0.961 . S
C631 H646 0.961 . S
C631 H647 0.961 . S
C632 C633 1.370 . S
C632 C634 1.363 . S
C632 H648 0.931 . S
C633 C632 1.370 . S
C633 C637 1.408 . S
C634 C632 1.363 . S
C634 C635 1.370 . S
C634 C638 1.524 . S
C635 C627 1.503 . S
C635 C634 1.370 . S
C635 C636 1.403 . S
C636 C635 1.403 . S
C636 C637 1.404 . S
C636 C639 1.539 . S
C637 C633 1.408 . S
C637 C636 1.404 . S
C637 H649 0.930 . S
C638 C634 1.524 . S
C638 H650 0.956 . S
C638 H651 0.961 . S
C638 H652 0.961 . S
C639 C636 1.539 . S
C639 H653 0.958 . S
C639 H654 0.961 . S
C639 H655 0.960 . S
H640 C624 0.931 . S
H641 C629 0.929 . S
H642 C630 0.960 . S
H643 C630 0.962 . S
H644 C630 0.960 . S
H645 C631 0.961 . S
H646 C631 0.961 . S
H647 C631 0.961 . S
H648 C632 0.931 . S
H649 C637 0.930 . S
H650 C638 0.956 . S
H651 C638 0.961 . S
H652 C638 0.961 . S
H653 C639 0.958 . S
H654 C639 0.961 . S
H655 C639 0.960 . S
C656 C657 1.391 . S
C656 C658 1.394 . S
C656 H672 0.931 . S
C657 C656 1.391 . S
C657 C661 1.376 . S
C658 C656 1.394 . S
C658 C659 1.369 . S
C658 C662 1.531 . S
C659 C658 1.369 . S
C659 C660 1.410 . S
C659 C667 1.503 . S
C660 C659 1.410 . S
C660 C661 1.392 . S
C660 C663 1.511 . S
C661 C657 1.376 . S
C661 C660 1.392 . S
C661 H673 0.929 . S
C662 C658 1.531 . S
C662 H674 0.960 . S
C662 H675 0.962 . S
C662 H676 0.960 . S
C663 C660 1.511 . S
C663 H677 0.961 . S
C663 H678 0.961 . S
C663 H679 0.961 . S
C664 C665 1.370 . S
C664 C666 1.363 . S
C664 H680 0.931 . S
C665 C664 1.370 . S
C665 C669 1.408 . S
C666 C664 1.363 . S
C666 C667 1.370 . S
C666 C670 1.524 . S
C667 C659 1.503 . S
C667 C666 1.370 . S
C667 C668 1.403 . S
C668 C667 1.403 . S
C668 C669 1.404 . S
C668 C671 1.539 . S
C669 C665 1.408 . S
C669 C668 1.404 . S
C669 H681 0.930 . S
C670 C666 1.524 . S
C670 H682 0.956 . S
C670 H683 0.961 . S
C670 H684 0.961 . S
C671 C668 1.539 . S
C671 H685 0.958 . S
C671 H686 0.961 . S
C671 H687 0.960 . S
H672 C656 0.931 . S
H673 C661 0.929 . S
H674 C662 0.960 . S
H675 C662 0.962 . S
H676 C662 0.960 . S
H677 C663 0.961 . S
H678 C663 0.961 . S
H679 C663 0.961 . S
H680 C664 0.931 . S
H681 C669 0.930 . S
H682 C670 0.956 . S
H683 C670 0.961 . S
H684 C670 0.961 . S
H685 C671 0.958 . S
H686 C671 0.961 . S
H687 C671 0.960 . S
C688 C689 1.391 . S
C688 C690 1.394 . S
C688 H704 0.931 . S
C689 C688 1.391 . S
C689 C693 1.376 . S
C690 C688 1.394 . S
C690 C691 1.369 . S
C690 C694 1.531 . S
C691 C690 1.369 . S
C691 C692 1.410 . S
C691 C699 1.503 . S
C692 C691 1.410 . S
C692 C693 1.392 . S
C692 C695 1.511 . S
C693 C689 1.376 . S
C693 C692 1.392 . S
C693 H705 0.929 . S
C694 C690 1.531 . S
C694 H706 0.960 . S
C694 H707 0.962 . S
C694 H708 0.960 . S
C695 C692 1.511 . S
C695 H709 0.961 . S
C695 H710 0.961 . S
C695 H711 0.961 . S
C696 C697 1.370 . S
C696 C698 1.363 . S
C696 H712 0.931 . S
C697 C696 1.370 . S
C697 C701 1.408 . S
C698 C696 1.363 . S
C698 C699 1.370 . S
C698 C702 1.524 . S
C699 C691 1.503 . S
C699 C698 1.370 . S
C699 C700 1.403 . S
C700 C699 1.403 . S
C700 C701 1.404 . S
C700 C703 1.539 . S
C701 C697 1.408 . S
C701 C700 1.404 . S
C701 H713 0.930 . S
C702 C698 1.524 . S
C702 H714 0.956 . S
C702 H715 0.961 . S
C702 H716 0.961 . S
C703 C700 1.539 . S
C703 H717 0.958 . S
C703 H718 0.961 . S
C703 H719 0.960 . S
H704 C688 0.931 . S
H705 C693 0.929 . S
H706 C694 0.960 . S
H707 C694 0.962 . S
H708 C694 0.960 . S
H709 C695 0.961 . S
H710 C695 0.961 . S
H711 C695 0.961 . S
H712 C696 0.931 . S
H713 C701 0.930 . S
H714 C702 0.956 . S
H715 C702 0.961 . S
H716 C702 0.961 . S
H717 C703 0.958 . S
H718 C703 0.961 . S
H719 C703 0.960 . S
C720 C721 1.391 . S
C720 C722 1.394 . S
C720 H736 0.931 . S
C721 C720 1.391 . S
C721 C725 1.376 . S
C722 C720 1.394 . S
C722 C723 1.369 . S
C722 C726 1.531 . S
C723 C722 1.369 . S
C723 C724 1.410 . S
C723 C731 1.503 . S
C724 C723 1.410 . S
C724 C725 1.392 . S
C724 C727 1.511 . S
C725 C721 1.376 . S
C725 C724 1.392 . S
C725 H737 0.929 . S
C726 C722 1.531 . S
C726 H738 0.960 . S
C726 H739 0.962 . S
C726 H740 0.960 . S
C727 C724 1.511 . S
C727 H741 0.961 . S
C727 H742 0.961 . S
C727 H743 0.961 . S
C728 C729 1.370 . S
C728 C730 1.363 . S
C728 H744 0.931 . S
C729 C728 1.370 . S
C729 C733 1.408 . S
C730 C728 1.363 . S
C730 C731 1.370 . S
C730 C734 1.524 . S
C731 C723 1.503 . S
C731 C730 1.370 . S
C731 C732 1.403 . S
C732 C731 1.403 . S
C732 C733 1.404 . S
C732 C735 1.539 . S
C733 C729 1.408 . S
C733 C732 1.404 . S
C733 H745 0.930 . S
C734 C730 1.524 . S
C734 H746 0.956 . S
C734 H747 0.961 . S
C734 H748 0.961 . S
C735 C732 1.539 . S
C735 H749 0.958 . S
C735 H750 0.961 . S
C735 H751 0.960 . S
H736 C720 0.931 . S
H737 C725 0.929 . S
H738 C726 0.960 . S
H739 C726 0.962 . S
H740 C726 0.960 . S
H741 C727 0.961 . S
H742 C727 0.961 . S
H743 C727 0.961 . S
H744 C728 0.931 . S
H745 C733 0.930 . S
H746 C734 0.956 . S
H747 C734 0.961 . S
H748 C734 0.961 . S
H749 C735 0.958 . S
H750 C735 0.961 . S
H751 C735 0.960 . S
C752 C753 1.391 . S
C752 C754 1.394 . S
C752 H768 0.931 . S
C753 C752 1.391 . S
C753 C757 1.376 . S
C754 C752 1.394 . S
C754 C755 1.369 . S
C754 C758 1.531 . S
C755 C754 1.369 . S
C755 C756 1.410 . S
C755 C763 1.503 . S
C756 C755 1.410 . S
C756 C757 1.392 . S
C756 C759 1.511 . S
C757 C753 1.376 . S
C757 C756 1.392 . S
C757 H769 0.929 . S
C758 C754 1.531 . S
C758 H770 0.960 . S
C758 H771 0.962 . S
C758 H772 0.960 . S
C759 C756 1.511 . S
C759 H773 0.961 . S
C759 H774 0.961 . S
C759 H775 0.961 . S
C760 C761 1.370 . S
C760 C762 1.363 . S
C760 H776 0.931 . S
C761 C760 1.370 . S
C761 C765 1.408 . S
C762 C760 1.363 . S
C762 C763 1.370 . S
C762 C766 1.524 . S
C763 C755 1.503 . S
C763 C762 1.370 . S
C763 C764 1.403 . S
C764 C763 1.403 . S
C764 C765 1.404 . S
C764 C767 1.539 . S
C765 C761 1.408 . S
C765 C764 1.404 . S
C765 H777 0.930 . S
C766 C762 1.524 . S
C766 H778 0.956 . S
C766 H779 0.961 . S
C766 H780 0.961 . S
C767 C764 1.539 . S
C767 H781 0.958 . S
C767 H782 0.961 . S
C767 H783 0.960 . S
H768 C752 0.931 . S
H769 C757 0.929 . S
H770 C758 0.960 . S
H771 C758 0.962 . S
H772 C758 0.960 . S
H773 C759 0.961 . S
H774 C759 0.961 . S
H775 C759 0.961 . S
H776 C760 0.931 . S
H777 C765 0.930 . S
H778 C766 0.956 . S
H779 C766 0.961 . S
H780 C766 0.961 . S
H781 C767 0.958 . S
H782 C767 0.961 . S
H783 C767 0.960 . S
C784 C785 1.391 . S
C784 C786 1.394 . S
C784 H800 0.931 . S
C785 C784 1.391 . S
C785 C789 1.376 . S
C786 C784 1.394 . S
C786 C787 1.369 . S
C786 C790 1.531 . S
C787 C786 1.369 . S
C787 C788 1.410 . S
C787 C795 1.503 . S
C788 C787 1.410 . S
C788 C789 1.392 . S
C788 C791 1.511 . S
C789 C785 1.376 . S
C789 C788 1.392 . S
C789 H801 0.929 . S
C790 C786 1.531 . S
C790 H802 0.960 . S
C790 H803 0.962 . S
C790 H804 0.960 . S
C791 C788 1.511 . S
C791 H805 0.961 . S
C791 H806 0.961 . S
C791 H807 0.961 . S
C792 C793 1.370 . S
C792 C794 1.363 . S
C792 H808 0.931 . S
C793 C792 1.370 . S
C793 C797 1.408 . S
C794 C792 1.363 . S
C794 C795 1.370 . S
C794 C798 1.524 . S
C795 C787 1.503 . S
C795 C794 1.370 . S
C795 C796 1.403 . S
C796 C795 1.403 . S
C796 C797 1.404 . S
C796 C799 1.539 . S
C797 C793 1.408 . S
C797 C796 1.404 . S
C797 H809 0.930 . S
C798 C794 1.524 . S
C798 H810 0.956 . S
C798 H811 0.961 . S
C798 H812 0.961 . S
C799 C796 1.539 . S
C799 H813 0.958 . S
C799 H814 0.961 . S
C799 H815 0.960 . S
H800 C784 0.931 . S
H801 C789 0.929 . S
H802 C790 0.960 . S
H803 C790 0.962 . S
H804 C790 0.960 . S
H805 C791 0.961 . S
H806 C791 0.961 . S
H807 C791 0.961 . S
H808 C792 0.931 . S
H809 C797 0.930 . S
H810 C798 0.956 . S
H811 C798 0.961 . S
H812 C798 0.961 . S
H813 C799 0.958 . S
H814 C799 0.961 . S
H815 C799 0.960 . S
C816 C817 1.391 . S
C816 C818 1.394 . S
C816 H832 0.931 . S
C817 C816 1.391 . S
C817 C821 1.376 . S
C818 C816 1.394 . S
C818 C819 1.369 . S
C818 C822 1.531 . S
C819 C818 1.369 . S
C819 C820 1.410 . S
C819 C827 1.503 . S
C820 C819 1.410 . S
C820 C821 1.392 . S
C820 C823 1.511 . S
C821 C817 1.376 . S
C821 C820 1.392 . S
C821 H833 0.929 . S
C822 C818 1.531 . S
C822 H834 0.960 . S
C822 H835 0.962 . S
C822 H836 0.960 . S
C823 C820 1.511 . S
C823 H837 0.961 . S
C823 H838 0.961 . S
C823 H839 0.961 . S
C824 C825 1.370 . S
C824 C826 1.363 . S
C824 H840 0.931 . S
C825 C824 1.370 . S
C825 C829 1.408 . S
C826 C824 1.363 . S
C826 C827 1.370 . S
C826 C830 1.524 . S
C827 C819 1.503 . S
C827 C826 1.370 . S
C827 C828 1.403 . S
C828 C827 1.403 . S
C828 C829 1.404 . S
C828 C831 1.539 . S
C829 C825 1.408 . S
C829 C828 1.404 . S
C829 H841 0.930 . S
C830 C826 1.524 . S
C830 H842 0.956 . S
C830 H843 0.961 . S
C830 H844 0.961 . S
C831 C828 1.539 . S
C831 H845 0.958 . S
C831 H846 0.961 . S
C831 H847 0.960 . S
H832 C816 0.931 . S
H833 C821 0.929 . S
H834 C822 0.960 . S
H835 C822 0.962 . S
H836 C822 0.960 . S
H837 C823 0.961 . S
H838 C823 0.961 . S
H839 C823 0.961 . S
H840 C824 0.931 . S
H841 C829 0.930 . S
H842 C830 0.956 . S
H843 C830 0.961 . S
H844 C830 0.961 . S
H845 C831 0.958 . S
H846 C831 0.961 . S
H847 C831 0.960 . S
C848 C849 1.391 . S
C848 C850 1.394 . S
C848 H864 0.931 . S
C849 C848 1.391 . S
C849 C853 1.376 . S
C850 C848 1.394 . S
C850 C851 1.369 . S
C850 C854 1.531 . S
C851 C850 1.369 . S
C851 C852 1.410 . S
C851 C859 1.503 . S
C852 C851 1.410 . S
C852 C853 1.392 . S
C852 C855 1.511 . S
C853 C849 1.376 . S
C853 C852 1.392 . S
C853 H865 0.929 . S
C854 C850 1.531 . S
C854 H866 0.960 . S
C854 H867 0.962 . S
C854 H868 0.960 . S
C855 C852 1.511 . S
C855 H869 0.961 . S
C855 H870 0.961 . S
C855 H871 0.961 . S
C856 C857 1.370 . S
C856 C858 1.363 . S
C856 H872 0.931 . S
C857 C856 1.370 . S
C857 C861 1.408 . S
C858 C856 1.363 . S
C858 C859 1.370 . S
C858 C862 1.524 . S
C859 C851 1.503 . S
C859 C858 1.370 . S
C859 C860 1.403 . S
C860 C859 1.403 . S
C860 C861 1.404 . S
C860 C863 1.539 . S
C861 C857 1.408 . S
C861 C860 1.404 . S
C861 H873 0.930 . S
C862 C858 1.524 . S
C862 H874 0.956 . S
C862 H875 0.961 . S
C862 H876 0.961 . S
C863 C860 1.539 . S
C863 H877 0.958 . S
C863 H878 0.961 . S
C863 H879 0.960 . S
H864 C848 0.931 . S
H865 C853 0.929 . S
H866 C854 0.960 . S
H867 C854 0.962 . S
H868 C854 0.960 . S
H869 C855 0.961 . S
H870 C855 0.961 . S
H871 C855 0.961 . S
H872 C856 0.931 . S
H873 C861 0.930 . S
H874 C862 0.956 . S
H875 C862 0.961 . S
H876 C862 0.961 . S
H877 C863 0.958 . S
H878 C863 0.961 . S
H879 C863 0.960 . S
C880 C881 1.391 . S
C880 C882 1.394 . S
C880 H896 0.931 . S
C881 C880 1.391 . S
C881 C885 1.376 . S
C882 C880 1.394 . S
C882 C883 1.369 . S
C882 C886 1.531 . S
C883 C882 1.369 . S
C883 C884 1.410 . S
C883 C891 1.503 . S
C884 C883 1.410 . S
C884 C885 1.392 . S
C884 C887 1.511 . S
C885 C881 1.376 . S
C885 C884 1.392 . S
C885 H897 0.929 . S
C886 C882 1.531 . S
C886 H898 0.960 . S
C886 H899 0.962 . S
C886 H900 0.960 . S
C887 C884 1.511 . S
C887 H901 0.961 . S
C887 H902 0.961 . S
C887 H903 0.961 . S
C888 C889 1.370 . S
C888 C890 1.363 . S
C888 H904 0.931 . S
C889 C888 1.370 . S
C889 C893 1.408 . S
C890 C888 1.363 . S
C890 C891 1.370 . S
C890 C894 1.524 . S
C891 C883 1.503 . S
C891 C890 1.370 . S
C891 C892 1.403 . S
C892 C891 1.403 . S
C892 C893 1.404 . S
C892 C895 1.539 . S
C893 C889 1.408 . S
C893 C892 1.404 . S
C893 H905 0.930 . S
C894 C890 1.524 . S
C894 H906 0.956 . S
C894 H907 0.961 . S
C894 H908 0.961 . S
C895 C892 1.539 . S
C895 H909 0.958 . S
C895 H910 0.961 . S
C895 H911 0.960 . S
H896 C880 0.931 . S
H897 C885 0.929 . S
H898 C886 0.960 . S
H899 C886 0.962 . S
H900 C886 0.960 . S
H901 C887 0.961 . S
H902 C887 0.961 . S
H903 C887 0.961 . S
H904 C888 0.931 . S
H905 C893 0.930 . S
H906 C894 0.956 . S
H907 C894 0.961 . S
H908 C894 0.961 . S
H909 C895 0.958 . S
H910 C895 0.961 . S
H911 C895 0.960 . S
C912 C913 1.391 . S
C912 C914 1.394 . S
C912 H928 0.931 . S
C913 C912 1.391 . S
C913 C917 1.376 1_556 S
C914 C912 1.394 . S
C914 C915 1.369 . S
C914 C918 1.531 . S
C915 C914 1.369 . S
C915 C916 1.410 1_556 S
C915 C923 1.503 . S
C916 C915 1.410 1_554 S
C916 C917 1.392 . S
C916 C919 1.511 . S
C917 C913 1.376 1_554 S
C917 C916 1.392 . S
C917 H929 0.929 . S
C918 C914 1.531 . S
C918 H930 0.960 . S
C918 H931 0.962 . S
C918 H932 0.960 . S
C919 C916 1.511 . S
C919 H933 0.961 . S
C919 H934 0.961 . S
C919 H935 0.961 . S
C920 C921 1.370 1_554 S
C920 C922 1.363 . S
C920 H936 0.931 . S
C921 C920 1.370 1_556 S
C921 C925 1.408 . S
C922 C920 1.363 . S
C922 C923 1.370 1_554 S
C922 C926 1.524 . S
C923 C915 1.503 . S
C923 C922 1.370 1_556 S
C923 C924 1.403 . S
C924 C923 1.403 . S
C924 C925 1.404 . S
C924 C927 1.539 . S
C925 C921 1.408 . S
C925 C924 1.404 . S
C925 H937 0.930 . S
C926 C922 1.524 . S
C926 H938 0.956 . S
C926 H939 0.961 . S
C926 H940 0.961 . S
C927 C924 1.539 . S
C927 H941 0.958 . S
C927 H942 0.961 . S
C927 H943 0.960 . S
H928 C912 0.931 . S
H929 C917 0.929 . S
H930 C918 0.960 . S
H931 C918 0.962 . S
H932 C918 0.960 . S
H933 C919 0.961 . S
H934 C919 0.961 . S
H935 C919 0.961 . S
H936 C920 0.931 . S
H937 C925 0.930 . S
H938 C926 0.956 . S
H939 C926 0.961 . S
H940 C926 0.961 . S
H941 C927 0.958 . S
H942 C927 0.961 . S
H943 C927 0.960 . S
C944 C945 1.391 . S
C944 C946 1.394 . S
C944 H960 0.931 . S
C945 C944 1.391 . S
C945 C949 1.376 . S
C946 C944 1.394 . S
C946 C947 1.369 . S
C946 C950 1.531 . S
C947 C946 1.369 . S
C947 C948 1.410 . S
C947 C955 1.503 . S
C948 C947 1.410 . S
C948 C949 1.392 . S
C948 C951 1.511 . S
C949 C945 1.376 . S
C949 C948 1.392 . S
C949 H961 0.929 . S
C950 C946 1.531 . S
C950 H962 0.960 . S
C950 H963 0.962 . S
C950 H964 0.960 . S
C951 C948 1.511 . S
C951 H965 0.961 . S
C951 H966 0.961 . S
C951 H967 0.961 . S
C952 C953 1.370 . S
C952 C954 1.363 . S
C952 H968 0.931 . S
C953 C952 1.370 . S
C953 C957 1.408 . S
C954 C952 1.363 . S
C954 C955 1.370 . S
C954 C958 1.524 . S
C955 C947 1.503 . S
C955 C954 1.370 . S
C955 C956 1.403 . S
C956 C955 1.403 . S
C956 C957 1.404 . S
C956 C959 1.539 . S
C957 C953 1.408 . S
C957 C956 1.404 . S
C957 H969 0.930 . S
C958 C954 1.524 . S
C958 H970 0.956 . S
C958 H971 0.961 . S
C958 H972 0.961 . S
C959 C956 1.539 . S
C959 H973 0.958 . S
C959 H974 0.961 . S
C959 H975 0.960 . S
H960 C944 0.931 . S
H961 C949 0.929 . S
H962 C950 0.960 . S
H963 C950 0.962 . S
H964 C950 0.960 . S
H965 C951 0.961 . S
H966 C951 0.961 . S
H967 C951 0.961 . S
H968 C952 0.931 . S
H969 C957 0.930 . S
H970 C958 0.956 . S
H971 C958 0.961 . S
H972 C958 0.961 . S
H973 C959 0.958 . S
H974 C959 0.961 . S
H975 C959 0.960 . S
C976 C977 1.391 1_556 S
C976 C978 1.394 . S
C976 H992 0.931 . S
C977 C976 1.391 1_554 S
C977 C981 1.376 . S
C978 C976 1.394 . S
C978 C979 1.369 1_556 S
C978 C982 1.531 . S
C979 C978 1.369 1_554 S
C979 C980 1.410 . S
C979 C987 1.503 . S
C980 C979 1.410 . S
C980 C981 1.392 . S
C980 C983 1.511 . S
C981 C977 1.376 . S
C981 C980 1.392 . S
C981 H993 0.929 . S
C982 C978 1.531 . S
C982 H994 0.960 . S
C982 H995 0.962 . S
C982 H996 0.960 . S
C983 C980 1.511 . S
C983 H997 0.961 . S
C983 H998 0.961 . S
C983 H999 0.961 . S
C984 C985 1.370 1_556 S
C984 C986 1.363 . S
C984 H1000 0.931 . S
C985 C984 1.370 1_554 S
C985 C989 1.408 . S
C986 C984 1.363 . S
C986 C987 1.370 1_556 S
C986 C990 1.524 . S
C987 C979 1.503 . S
C987 C986 1.370 1_554 S
C987 C988 1.403 . S
C988 C987 1.403 . S
C988 C989 1.404 . S
C988 C991 1.539 . S
C989 C985 1.408 . S
C989 C988 1.404 . S
C989 H1001 0.930 . S
C990 C986 1.524 . S
C990 H1002 0.956 . S
C990 H1003 0.961 . S
C990 H1004 0.961 . S
C991 C988 1.539 . S
C991 H1005 0.958 . S
C991 H1006 0.961 . S
C991 H1007 0.960 . S
H992 C976 0.931 . S
H993 C981 0.929 . S
H994 C982 0.960 . S
H995 C982 0.962 . S
H996 C982 0.960 . S
H997 C983 0.961 . S
H998 C983 0.961 . S
H999 C983 0.961 . S
H1000 C984 0.931 . S
H1001 C989 0.930 . S
H1002 C990 0.956 . S
H1003 C990 0.961 . S
H1004 C990 0.961 . S
H1005 C991 0.958 . S
H1006 C991 0.961 . S
H1007 C991 0.960 . S
C1008 C1009 1.391 . S
C1008 C1010 1.394 . S
C1008 H1024 0.931 . S
C1009 C1008 1.391 . S
C1009 C1013 1.376 . S
C1010 C1008 1.394 . S
C1010 C1011 1.369 . S
C1010 C1014 1.531 . S
C1011 C1010 1.369 . S
C1011 C1012 1.410 . S
C1011 C1019 1.503 . S
C1012 C1011 1.410 . S
C1012 C1013 1.392 . S
C1012 C1015 1.511 . S
C1013 C1009 1.376 . S
C1013 C1012 1.392 . S
C1013 H1025 0.929 . S
C1014 C1010 1.531 . S
C1014 H1026 0.960 . S
C1014 H1027 0.962 . S
C1014 H1028 0.960 . S
C1015 C1012 1.511 . S
C1015 H1029 0.961 . S
C1015 H1030 0.961 . S
C1015 H1031 0.961 . S
C1016 C1017 1.370 . S
C1016 C1018 1.363 . S
C1016 H1032 0.931 . S
C1017 C1016 1.370 . S
C1017 C1021 1.408 . S
C1018 C1016 1.363 . S
C1018 C1019 1.370 . S
C1018 C1022 1.524 . S
C1019 C1011 1.503 . S
C1019 C1018 1.370 . S
C1019 C1020 1.403 . S
C1020 C1019 1.403 . S
C1020 C1021 1.404 . S
C1020 C1023 1.539 . S
C1021 C1017 1.408 . S
C1021 C1020 1.404 . S
C1021 H1033 0.930 . S
C1022 C1018 1.524 . S
C1022 H1034 0.956 . S
C1022 H1035 0.961 . S
C1022 H1036 0.961 . S
C1023 C1020 1.539 . S
C1023 H1037 0.958 . S
C1023 H1038 0.961 . S
C1023 H1039 0.960 . S
H1024 C1008 0.931 . S
H1025 C1013 0.929 . S
H1026 C1014 0.960 . S
H1027 C1014 0.962 . S
H1028 C1014 0.960 . S
H1029 C1015 0.961 . S
H1030 C1015 0.961 . S
H1031 C1015 0.961 . S
H1032 C1016 0.931 . S
H1033 C1021 0.930 . S
H1034 C1022 0.956 . S
H1035 C1022 0.961 . S
H1036 C1022 0.961 . S
H1037 C1023 0.958 . S
H1038 C1023 0.961 . S
H1039 C1023 0.960 . S
C1040 C1041 1.391 . S
C1040 C1042 1.394 . S
C1040 H1056 0.931 . S
C1041 C1040 1.391 . S
C1041 C1045 1.376 . S
C1042 C1040 1.394 . S
C1042 C1043 1.369 . S
C1042 C1046 1.531 . S
C1043 C1042 1.369 . S
C1043 C1044 1.410 . S
C1043 C1051 1.503 . S
C1044 C1043 1.410 . S
C1044 C1045 1.392 . S
C1044 C1047 1.511 . S
C1045 C1041 1.376 . S
C1045 C1044 1.392 . S
C1045 H1057 0.929 . S
C1046 C1042 1.531 . S
C1046 H1058 0.960 . S
C1046 H1059 0.962 . S
C1046 H1060 0.960 . S
C1047 C1044 1.511 . S
C1047 H1061 0.961 . S
C1047 H1062 0.961 . S
C1047 H1063 0.961 . S
C1048 C1049 1.370 . S
C1048 C1050 1.363 . S
C1048 H1064 0.931 . S
C1049 C1048 1.370 . S
C1049 C1053 1.408 . S
C1050 C1048 1.363 . S
C1050 C1051 1.370 . S
C1050 C1054 1.524 . S
C1051 C1043 1.503 . S
C1051 C1050 1.370 . S
C1051 C1052 1.403 . S
C1052 C1051 1.403 . S
C1052 C1053 1.404 . S
C1052 C1055 1.539 . S
C1053 C1049 1.408 . S
C1053 C1052 1.404 . S
C1053 H1065 0.930 . S
C1054 C1050 1.524 . S
C1054 H1066 0.956 . S
C1054 H1067 0.961 . S
C1054 H1068 0.961 . S
C1055 C1052 1.539 . S
C1055 H1069 0.958 . S
C1055 H1070 0.961 . S
C1055 H1071 0.960 . S
H1056 C1040 0.931 . S
H1057 C1045 0.929 . S
H1058 C1046 0.960 . S
H1059 C1046 0.962 . S
H1060 C1046 0.960 . S
H1061 C1047 0.961 . S
H1062 C1047 0.961 . S
H1063 C1047 0.961 . S
H1064 C1048 0.931 . S
H1065 C1053 0.930 . S
H1066 C1054 0.956 . S
H1067 C1054 0.961 . S
H1068 C1054 0.961 . S
H1069 C1055 0.958 . S
H1070 C1055 0.961 . S
H1071 C1055 0.960 . S
C1072 C1073 1.391 . S
C1072 C1074 1.394 . S
C1072 H1088 0.931 . S
C1073 C1072 1.391 . S
C1073 C1077 1.376 1_556 S
C1074 C1072 1.394 . S
C1074 C1075 1.369 . S
C1074 C1078 1.531 . S
C1075 C1074 1.369 . S
C1075 C1076 1.410 . S
C1075 C1083 1.503 . S
C1076 C1075 1.410 . S
C1076 C1077 1.392 1_556 S
C1076 C1079 1.511 1_556 S
C1077 C1073 1.376 1_554 S
C1077 C1076 1.392 1_554 S
C1077 H1089 0.929 . S
C1078 C1074 1.531 . S
C1078 H1090 0.960 . S
C1078 H1091 0.962 1_556 S
C1078 H1092 0.960 . S
C1079 C1076 1.511 1_554 S
C1079 H1093 0.961 . S
C1079 H1094 0.961 . S
C1079 H1095 0.961 1_554 S
C1080 C1081 1.370 1_554 S
C1080 C1082 1.363 . S
C1080 H1096 0.931 . S
C1081 C1080 1.370 1_556 S
C1081 C1085 1.408 . S
C1082 C1080 1.363 . S
C1082 C1083 1.370 1_554 S
C1082 C1086 1.524 . S
C1083 C1075 1.503 . S
C1083 C1082 1.370 1_556 S
C1083 C1084 1.403 . S
C1084 C1083 1.403 . S
C1084 C1085 1.404 . S
C1084 C1087 1.539 . S
C1085 C1081 1.408 . S
C1085 C1084 1.404 . S
C1085 H1097 0.930 . S
C1086 C1082 1.524 . S
C1086 H1098 0.956 . S
C1086 H1099 0.961 . S
C1086 H1100 0.961 . S
C1087 C1084 1.539 . S
C1087 H1101 0.958 . S
C1087 H1102 0.961 . S
C1087 H1103 0.960 . S
H1088 C1072 0.931 . S
H1089 C1077 0.929 . S
H1090 C1078 0.960 . S
H1091 C1078 0.962 1_554 S
H1092 C1078 0.960 . S
H1093 C1079 0.961 . S
H1094 C1079 0.961 . S
H1095 C1079 0.961 1_556 S
H1096 C1080 0.931 . S
H1097 C1085 0.930 . S
H1098 C1086 0.956 . S
H1099 C1086 0.961 . S
H1100 C1086 0.961 . S
H1101 C1087 0.958 . S
H1102 C1087 0.961 . S
H1103 C1087 0.960 . S
C1104 C1105 1.391 . S
C1104 C1106 1.394 . S
C1104 H1120 0.931 . S
C1105 C1104 1.391 . S
C1105 C1109 1.376 . S
C1106 C1104 1.394 . S
C1106 C1107 1.369 . S
C1106 C1110 1.531 . S
C1107 C1106 1.369 . S
C1107 C1108 1.410 . S
C1107 C1115 1.503 . S
C1108 C1107 1.410 . S
C1108 C1109 1.392 . S
C1108 C1111 1.511 . S
C1109 C1105 1.376 . S
C1109 C1108 1.392 . S
C1109 H1121 0.929 . S
C1110 C1106 1.531 . S
C1110 H1122 0.960 . S
C1110 H1123 0.962 . S
C1110 H1124 0.960 . S
C1111 C1108 1.511 . S
C1111 H1125 0.961 . S
C1111 H1126 0.961 . S
C1111 H1127 0.961 . S
C1112 C1113 1.370 . S
C1112 C1114 1.363 . S
C1112 H1128 0.931 . S
C1113 C1112 1.370 . S
C1113 C1117 1.408 . S
C1114 C1112 1.363 . S
C1114 C1115 1.370 . S
C1114 C1118 1.524 . S
C1115 C1107 1.503 . S
C1115 C1114 1.370 . S
C1115 C1116 1.403 . S
C1116 C1115 1.403 . S
C1116 C1117 1.404 . S
C1116 C1119 1.539 . S
C1117 C1113 1.408 . S
C1117 C1116 1.404 . S
C1117 H1129 0.930 . S
C1118 C1114 1.524 . S
C1118 H1130 0.956 . S
C1118 H1131 0.961 . S
C1118 H1132 0.961 . S
C1119 C1116 1.539 . S
C1119 H1133 0.958 . S
C1119 H1134 0.961 . S
C1119 H1135 0.960 . S
H1120 C1104 0.931 . S
H1121 C1109 0.929 . S
H1122 C1110 0.960 . S
H1123 C1110 0.962 . S
H1124 C1110 0.960 . S
H1125 C1111 0.961 . S
H1126 C1111 0.961 . S
H1127 C1111 0.961 . S
H1128 C1112 0.931 . S
H1129 C1117 0.930 . S
H1130 C1118 0.956 . S
H1131 C1118 0.961 . S
H1132 C1118 0.961 . S
H1133 C1119 0.958 . S
H1134 C1119 0.961 . S
H1135 C1119 0.960 . S
C1136 C1137 1.391 1_554 S
C1136 C1138 1.394 . S
C1136 H1152 0.931 . S
C1137 C1136 1.391 1_556 S
C1137 C1141 1.376 . S
C1138 C1136 1.394 . S
C1138 C1139 1.369 1_554 S
C1138 C1142 1.531 . S
C1139 C1138 1.369 1_556 S
C1139 C1140 1.410 . S
C1139 C1147 1.503 . S
C1140 C1139 1.410 . S
C1140 C1141 1.392 . S
C1140 C1143 1.511 . S
C1141 C1137 1.376 . S
C1141 C1140 1.392 . S
C1141 H1153 0.929 . S
C1142 C1138 1.531 . S
C1142 H1154 0.960 . S
C1142 H1155 0.962 . S
C1142 H1156 0.960 . S
C1143 C1140 1.511 . S
C1143 H1157 0.961 . S
C1143 H1158 0.961 . S
C1143 H1159 0.961 . S
C1144 C1145 1.370 1_554 S
C1144 C1146 1.363 . S
C1144 H1160 0.931 . S
C1145 C1144 1.370 1_556 S
C1145 C1149 1.408 . S
C1146 C1144 1.363 . S
C1146 C1147 1.370 1_554 S
C1146 C1150 1.524 . S
C1147 C1139 1.503 . S
C1147 C1146 1.370 1_556 S
C1147 C1148 1.403 . S
C1148 C1147 1.403 . S
C1148 C1149 1.404 . S
C1148 C1151 1.539 . S
C1149 C1145 1.408 . S
C1149 C1148 1.404 . S
C1149 H1161 0.930 . S
C1150 C1146 1.524 . S
C1150 H1162 0.956 . S
C1150 H1163 0.961 . S
C1150 H1164 0.961 . S
C1151 C1148 1.539 . S
C1151 H1165 0.958 . S
C1151 H1166 0.961 . S
C1151 H1167 0.960 . S
H1152 C1136 0.931 . S
H1153 C1141 0.929 . S
H1154 C1142 0.960 . S
H1155 C1142 0.962 . S
H1156 C1142 0.960 . S
H1157 C1143 0.961 . S
H1158 C1143 0.961 . S
H1159 C1143 0.961 . S
H1160 C1144 0.931 . S
H1161 C1149 0.930 . S
H1162 C1150 0.956 . S
H1163 C1150 0.961 . S
H1164 C1150 0.961 . S
H1165 C1151 0.958 . S
H1166 C1151 0.961 . S
H1167 C1151 0.960 . S
C401 C5 1.492 . S
C409 C221 1.483 . S
C433 C31 1.484 . S
C441 C89 1.485 . S
C473 C128 1.470 . S
C465 C53 1.458 . S
C497 C71 1.458 . S
C505 C182 1.466 . S
C537 C284 1.485 . S
C529 C75 1.486 . S
C569 C338 1.468 . S
C561 C9 1.456 . S
C601 C377 1.472 . S
C593 C27 1.462 . S
C633 C245 1.473 . S
C625 C49 1.473 . S
C657 C51 1.488 . S
C665 C143 1.480 . S
C689 C72 1.460 . S
C697 C167 1.467 . S
C721 C6 1.490 . S
C729 C206 1.482 . S
C761 C104 1.478 . S
C753 C29 1.488 . S
C785 C28 1.483 . S
C793 C362 1.477 . S
C825 C260 1.464 . S
C817 C50 1.456 . S
C857 C299 1.480 . S
C849 C73 1.488 . S
C881 C7 1.458 . S
C889 C323 1.466 . S
C921 C109 1.506 1_556 S
C913 C4 1.505 1_556 S
C953 C148 1.502 . S
C945 C30 1.499 . S
C977 C52 1.506 . S
C985 C187 1.500 1_554 S
C1009 C70 1.497 . S
C1017 C226 1.497 . S
C1049 C265 1.507 . S
C1041 C74 1.503 . S
C1073 C8 1.495 1_556 S
C1081 C304 1.501 . S
C1105 C26 1.506 . S
C1113 C343 1.501 . S
C1137 C48 1.505 1_556 S
C1145 C382 1.500 1_556 S
