# Generated by pormake.
# Topology eea, (3,6)-cn, num edge types: 1
# Building blocks:
#     Node 0, Type 0, BuildingBlock: ESEHIV_clean_linker_0, # of connection points: 3
#     Node 1, Type 0, BuildingBlock: ESEHIV_clean_linker_0, # of connection points: 3
#     Node 2, Type 0, BuildingBlock: ESEHIV_clean_linker_0, # of connection points: 3
#     Node 3, Type 0, BuildingBlock: ESEHIV_clean_linker_0, # of connection points: 3
#     Node 4, Type 0, BuildingBlock: ESEHIV_clean_linker_0, # of connection points: 3
#     Node 5, Type 0, BuildingBlock: ESEHIV_clean_linker_0, # of connection points: 3
#     Node 6, Type 0, BuildingBlock: ESEHIV_clean_linker_0, # of connection points: 3
#     Node 7, Type 0, BuildingBlock: ESEHIV_clean_linker_0, # of connection points: 3
#     Node 8, Type 0, BuildingBlock: ESEHIV_clean_linker_0, # of connection points: 3
#     Node 9, Type 0, BuildingBlock: ESEHIV_clean_linker_0, # of connection points: 3
#     Node 10, Type 0, BuildingBlock: ESEHIV_clean_linker_0, # of connection points: 3
#     Node 11, Type 0, BuildingBlock: ESEHIV_clean_linker_0, # of connection points: 3
#     Node 12, Type 0, BuildingBlock: ESEHIV_clean_linker_0, # of connection points: 3
#     Node 13, Type 0, BuildingBlock: ESEHIV_clean_linker_0, # of connection points: 3
#     Node 14, Type 0, BuildingBlock: ESEHIV_clean_linker_0, # of connection points: 3
#     Node 15, Type 0, BuildingBlock: ESEHIV_clean_linker_0, # of connection points: 3
#     Node 16, Type 0, BuildingBlock: ESEHIV_clean_linker_0, # of connection points: 3
#     Node 17, Type 0, BuildingBlock: ESEHIV_clean_linker_0, # of connection points: 3
#     Node 18, Type 1, BuildingBlock: KUMBUR_clean_sbu_0, # of connection points: 6
#     Node 19, Type 1, BuildingBlock: KUMBUR_clean_sbu_0, # of connection points: 6
#     Node 20, Type 1, BuildingBlock: KUMBUR_clean_sbu_0, # of connection points: 6
#     Node 21, Type 1, BuildingBlock: KUMBUR_clean_sbu_0, # of connection points: 6
#     Node 22, Type 1, BuildingBlock: KUMBUR_clean_sbu_0, # of connection points: 6
#     Node 23, Type 1, BuildingBlock: KUMBUR_clean_sbu_0, # of connection points: 6
#     Node 24, Type 1, BuildingBlock: KUMBUR_clean_sbu_0, # of connection points: 6
#     Node 25, Type 1, BuildingBlock: KUMBUR_clean_sbu_0, # of connection points: 6
#     Node 26, Type 1, BuildingBlock: KUMBUR_clean_sbu_0, # of connection points: 6
#     Edge 27, Type (0, 1), BuildingBlock: AJUNOK_clean_linker_0, # of connection points: 2
#     Edge 28, Type (0, 1), BuildingBlock: AJUNOK_clean_linker_0, # of connection points: 2
#     Edge 29, Type (0, 1), BuildingBlock: AJUNOK_clean_linker_0, # of connection points: 2
#     Edge 30, Type (0, 1), BuildingBlock: AJUNOK_clean_linker_0, # of connection points: 2
#     Edge 31, Type (0, 1), BuildingBlock: AJUNOK_clean_linker_0, # of connection points: 2
#     Edge 32, Type (0, 1), BuildingBlock: AJUNOK_clean_linker_0, # of connection points: 2
#     Edge 33, Type (0, 1), BuildingBlock: AJUNOK_clean_linker_0, # of connection points: 2
#     Edge 34, Type (0, 1), BuildingBlock: AJUNOK_clean_linker_0, # of connection points: 2
#     Edge 35, Type (0, 1), BuildingBlock: AJUNOK_clean_linker_0, # of connection points: 2
#     Edge 36, Type (0, 1), BuildingBlock: AJUNOK_clean_linker_0, # of connection points: 2
#     Edge 37, Type (0, 1), BuildingBlock: AJUNOK_clean_linker_0, # of connection points: 2
#     Edge 38, Type (0, 1), BuildingBlock: AJUNOK_clean_linker_0, # of connection points: 2
#     Edge 39, Type (0, 1), BuildingBlock: AJUNOK_clean_linker_0, # of connection points: 2
#     Edge 40, Type (0, 1), BuildingBlock: AJUNOK_clean_linker_0, # of connection points: 2
#     Edge 41, Type (0, 1), BuildingBlock: AJUNOK_clean_linker_0, # of connection points: 2
#     Edge 42, Type (0, 1), BuildingBlock: AJUNOK_clean_linker_0, # of connection points: 2
#     Edge 43, Type (0, 1), BuildingBlock: AJUNOK_clean_linker_0, # of connection points: 2
#     Edge 44, Type (0, 1), BuildingBlock: AJUNOK_clean_linker_0, # of connection points: 2
#     Edge 45, Type (0, 1), BuildingBlock: AJUNOK_clean_linker_0, # of connection points: 2
#     Edge 46, Type (0, 1), BuildingBlock: AJUNOK_clean_linker_0, # of connection points: 2
#     Edge 47, Type (0, 1), BuildingBlock: AJUNOK_clean_linker_0, # of connection points: 2
#     Edge 48, Type (0, 1), BuildingBlock: AJUNOK_clean_linker_0, # of connection points: 2
#     Edge 49, Type (0, 1), BuildingBlock: AJUNOK_clean_linker_0, # of connection points: 2
#     Edge 50, Type (0, 1), BuildingBlock: AJUNOK_clean_linker_0, # of connection points: 2
#     Edge 51, Type (0, 1), BuildingBlock: AJUNOK_clean_linker_0, # of connection points: 2
#     Edge 52, Type (0, 1), BuildingBlock: AJUNOK_clean_linker_0, # of connection points: 2
#     Edge 53, Type (0, 1), BuildingBlock: AJUNOK_clean_linker_0, # of connection points: 2
#     Edge 54, Type (0, 1), BuildingBlock: AJUNOK_clean_linker_0, # of connection points: 2
#     Edge 55, Type (0, 1), BuildingBlock: AJUNOK_clean_linker_0, # of connection points: 2
#     Edge 56, Type (0, 1), BuildingBlock: AJUNOK_clean_linker_0, # of connection points: 2
#     Edge 57, Type (0, 1), BuildingBlock: AJUNOK_clean_linker_0, # of connection points: 2
#     Edge 58, Type (0, 1), BuildingBlock: AJUNOK_clean_linker_0, # of connection points: 2
#     Edge 59, Type (0, 1), BuildingBlock: AJUNOK_clean_linker_0, # of connection points: 2
#     Edge 60, Type (0, 1), BuildingBlock: AJUNOK_clean_linker_0, # of connection points: 2
#     Edge 61, Type (0, 1), BuildingBlock: AJUNOK_clean_linker_0, # of connection points: 2
#     Edge 62, Type (0, 1), BuildingBlock: AJUNOK_clean_linker_0, # of connection points: 2
#     Edge 63, Type (0, 1), BuildingBlock: AJUNOK_clean_linker_0, # of connection points: 2
#     Edge 64, Type (0, 1), BuildingBlock: AJUNOK_clean_linker_0, # of connection points: 2
#     Edge 65, Type (0, 1), BuildingBlock: AJUNOK_clean_linker_0, # of connection points: 2
#     Edge 66, Type (0, 1), BuildingBlock: AJUNOK_clean_linker_0, # of connection points: 2
#     Edge 67, Type (0, 1), BuildingBlock: AJUNOK_clean_linker_0, # of connection points: 2
#     Edge 68, Type (0, 1), BuildingBlock: AJUNOK_clean_linker_0, # of connection points: 2
#     Edge 69, Type (0, 1), BuildingBlock: AJUNOK_clean_linker_0, # of connection points: 2
#     Edge 70, Type (0, 1), BuildingBlock: AJUNOK_clean_linker_0, # of connection points: 2
#     Edge 71, Type (0, 1), BuildingBlock: AJUNOK_clean_linker_0, # of connection points: 2
#     Edge 72, Type (0, 1), BuildingBlock: AJUNOK_clean_linker_0, # of connection points: 2
#     Edge 73, Type (0, 1), BuildingBlock: AJUNOK_clean_linker_0, # of connection points: 2
#     Edge 74, Type (0, 1), BuildingBlock: AJUNOK_clean_linker_0, # of connection points: 2
#     Edge 75, Type (0, 1), BuildingBlock: AJUNOK_clean_linker_0, # of connection points: 2
#     Edge 76, Type (0, 1), BuildingBlock: AJUNOK_clean_linker_0, # of connection points: 2
#     Edge 77, Type (0, 1), BuildingBlock: AJUNOK_clean_linker_0, # of connection points: 2
#     Edge 78, Type (0, 1), BuildingBlock: AJUNOK_clean_linker_0, # of connection points: 2
#     Edge 79, Type (0, 1), BuildingBlock: AJUNOK_clean_linker_0, # of connection points: 2
#     Edge 80, Type (0, 1), BuildingBlock: AJUNOK_clean_linker_0, # of connection points: 2
# Relax obj value: 0.007
# Max RMSD: 0.109
# Mean RMSD: 0.092
data_MOF--net-eea--node1-KUMBUR_clean_sbu_0--node2-ESEHIV_clean_linker_0--edge1-AJUNOK_clean_linker_0
_symmetry_space_group_name_H-M    P1
_symmetry_Int_Tables_number       1
_symmetry_cell_setting            triclinic
loop_
_symmetry_equiv_pos_as_xyz
'x, y, z'
_cell_length_a     33.189616
_cell_length_b     35.134077
_cell_length_c     53.494066
_cell_angle_alpha  89.570228
_cell_angle_beta   89.955143
_cell_angle_gamma 119.97632
loop_
_atom_site_label
_atom_site_type_symbol
_atom_site_fract_x
_atom_site_fract_y
_atom_site_fract_z
_atom_type_partial_charge
H0 H 0.27935 0.18825 0.45335 0.0
H1 H 0.27405 0.06332 0.45414 0.0
H2 H 0.22109 0.10103 0.39108 0.0
C3 C 0.26963 0.15708 0.44466 0.0
C4 C 0.24842 0.1478 0.42105 0.0
C5 C 0.2788 0.1267 0.45687 0.0
C6 C 0.26725 0.08711 0.44491 0.0
C7 C 0.2473 0.07803 0.42103 0.0
C8 C 0.23794 0.10852 0.40917 0.0
H9 H 0.83071 0.06631 0.45593 0.0
H10 H 0.95093 0.19576 0.4529 0.0
H11 H 0.92224 0.10716 0.39189 0.0
C12 C 0.86222 0.09056 0.44653 0.0
C13 C 0.87314 0.08136 0.42272 0.0
C14 C 0.89033 0.13155 0.45775 0.0
C15 C 0.92926 0.16378 0.44463 0.0
C16 C 0.94053 0.15521 0.42083 0.0
C17 C 0.91305 0.11374 0.41016 0.0
H18 H 0.81992 0.74556 0.4541 0.0
H19 H 0.95244 0.75134 0.4521 0.0
H20 H 0.90813 0.79784 0.38911 0.0
C21 C 0.85246 0.75472 0.44464 0.0
C22 C 0.86061 0.7737 0.42058 0.0
C23 C 0.88521 0.74627 0.45624 0.0
C24 C 0.92665 0.75738 0.4434 0.0
C25 C 0.93504 0.77567 0.41917 0.0
C26 C 0.90226 0.78453 0.40796 0.0
H27 H 0.08164 0.25957 0.60789 0.0
H28 H 0.20773 0.25296 0.60665 0.0
H29 H 0.11721 0.20501 0.67079 0.0
C30 C 0.10496 0.25023 0.6166 0.0
C31 C 0.09405 0.23036 0.64048 0.0
C32 C 0.14617 0.25899 0.6042 0.0
C33 C 0.17631 0.24739 0.6161 0.0
C34 C 0.16656 0.22866 0.64017 0.0
C35 C 0.12487 0.21935 0.65215 0.0
H36 H 0.75214 0.93498 0.60698 0.0
H37 H 0.74541 0.80941 0.60612 0.0
H38 H 0.80558 0.89553 0.66886 0.0
C39 C 0.75831 0.91056 0.6159 0.0
C40 C 0.77889 0.91908 0.63962 0.0
C41 C 0.74537 0.87077 0.60377 0.0
C42 C 0.75539 0.84034 0.61521 0.0
C43 C 0.77693 0.84892 0.63872 0.0
C44 C 0.78826 0.88827 0.65091 0.0
H45 H 0.07166 0.79715 0.60483 0.0
H46 H 0.18831 0.92863 0.60187 0.0
H47 H 0.10497 0.8799 0.66894 0.0
C48 C 0.09304 0.82884 0.61345 0.0
C49 C 0.08275 0.83568 0.63794 0.0
C50 C 0.13146 0.86205 0.60039 0.0
C51 C 0.15927 0.90264 0.6121 0.0
C52 C 0.15028 0.90994 0.63681 0.0
C53 C 0.11174 0.87594 0.6496 0.0
H54 H 0.93952 0.52198 0.79023 0.0
H55 H 0.94645 0.40294 0.79157 0.0
H56 H 0.88253 0.4311 0.72959 0.0
C57 C 0.93181 0.49116 0.78172 0.0
C58 C 0.9104 0.48015 0.75823 0.0
C59 C 0.94478 0.46345 0.79395 0.0
C60 C 0.93627 0.42437 0.78233 0.0
C61 C 0.91466 0.41294 0.75878 0.0
C62 C 0.90108 0.44063 0.74717 0.0
H63 H 0.4951 0.39436 0.78928 0.0
H64 H 0.61507 0.52388 0.78659 0.0
H65 H 0.58275 0.43802 0.72369 0.0
C66 C 0.52572 0.41925 0.77952 0.0
C67 C 0.53581 0.41068 0.75534 0.0
C68 C 0.55415 0.45991 0.791 0.0
C69 C 0.59289 0.49242 0.77788 0.0
C70 C 0.60363 0.48469 0.75372 0.0
C71 C 0.57514 0.44366 0.74256 0.0
H72 H 0.48219 0.0723 0.78486 0.0
H73 H 0.61468 0.07818 0.7841 0.0
H74 H 0.57397 0.12933 0.72159 0.0
C75 C 0.51497 0.08156 0.77564 0.0
C76 C 0.52396 0.10143 0.75179 0.0
C77 C 0.54752 0.07328 0.78764 0.0
C78 C 0.58969 0.08522 0.77532 0.0
C79 C 0.59966 0.10547 0.75151 0.0
C80 C 0.56688 0.11422 0.74001 0.0
H81 H 0.74833 0.58479 0.94072 0.0
H82 H 0.86754 0.56734 0.93831 0.0
H83 H 0.77727 0.52293 1.00266 0.0
C84 C 0.76967 0.57294 0.94923 0.0
C85 C 0.75717 0.55216 0.9729 0.0
C86 C 0.80984 0.57925 0.93669 0.0
C87 C 0.83724 0.56392 0.94805 0.0
C88 C 0.82647 0.54448 0.97197 0.0
C89 C 0.78575 0.5378 0.98417 0.0
H90 H 0.42136 0.26933 0.93732 0.0
H91 H 0.40913 0.14168 0.93771 0.0
H92 H 0.47804 0.23062 0.99816 0.0
C93 C 0.42807 0.24516 0.94612 0.0
C94 C 0.44982 0.25397 0.96954 0.0
C95 C 0.41432 0.2051 0.93417 0.0
C96 C 0.42214 0.17369 0.94607 0.0
C97 C 0.44589 0.18291 0.96891 0.0
C98 C 0.45943 0.22308 0.9806 0.0
H99 H 0.7347 0.12164 0.9423 0.0
H100 H 0.8655 0.24273 0.93838 0.0
H101 H 0.77373 0.21562 1.00126 0.0
C102 C 0.76017 0.15243 0.95056 0.0
C103 C 0.75053 0.16449 0.97384 0.0
C104 C 0.80174 0.18015 0.93763 0.0
C105 C 0.83303 0.22123 0.94796 0.0
C106 C 0.82335 0.2343 0.97095 0.0
C107 C 0.78184 0.20574 0.98368 0.0
H108 H 0.61008 0.85636 0.12071 0.0
H109 H 0.60704 0.73266 0.12213 0.0
H110 H 0.56752 0.77536 0.05551 0.0
C111 C 0.6036 0.82652 0.11139 0.0
C112 C 0.58701 0.81879 0.08678 0.0
C113 C 0.61161 0.79589 0.12411 0.0
C114 C 0.60158 0.75666 0.11218 0.0
C115 C 0.58481 0.74836 0.08752 0.0
C116 C 0.57919 0.78049 0.07471 0.0
H117 H 0.15381 0.72485 0.11886 0.0
H118 H 0.27007 0.85651 0.11582 0.0
H119 H 0.24601 0.76787 0.05518 0.0
C120 C 0.18422 0.75022 0.1092 0.0
C121 C 0.1967 0.7412 0.08575 0.0
C122 C 0.21035 0.79167 0.12025 0.0
C123 C 0.24968 0.8243 0.10756 0.0
C124 C 0.26265 0.81589 0.08413 0.0
C125 C 0.23604 0.77435 0.07327 0.0
H126 H 0.14535 0.39266 0.11738 0.0
H127 H 0.27451 0.39162 0.11745 0.0
H128 H 0.2396 0.44774 0.05503 0.0
C129 C 0.17784 0.40024 0.1084 0.0
C130 C 0.18876 0.42107 0.08484 0.0
C131 C 0.20854 0.38942 0.12042 0.0
C132 C 0.25075 0.40017 0.10851 0.0
C133 C 0.26237 0.42129 0.08497 0.0
C134 C 0.23132 0.43204 0.07331 0.0
H135 H 0.40576 0.91027 0.27498 0.0
H136 H 0.53357 0.90703 0.27403 0.0
H137 H 0.44669 0.86479 0.33983 0.0
C138 C 0.42958 0.90169 0.28379 0.0
C139 C 0.42059 0.88515 0.30846 0.0
C140 C 0.47001 0.9094 0.27099 0.0
C141 C 0.50177 0.90055 0.28344 0.0
C142 C 0.49386 0.88471 0.30823 0.0
C143 C 0.45259 0.87608 0.32055 0.0
H144 H 0.09114 0.60125 0.26558 0.0
H145 H 0.08353 0.47583 0.26917 0.0
H146 H 0.1464 0.5672 0.32924 0.0
C147 C 0.09782 0.57794 0.27547 0.0
C148 C 0.11815 0.58824 0.2993 0.0
C149 C 0.08566 0.53765 0.26433 0.0
C150 C 0.09526 0.50806 0.27696 0.0
C151 C 0.11893 0.51916 0.29982 0.0
C152 C 0.12962 0.55907 0.31115 0.0
H153 H 0.41011 0.47026 0.27418 0.0
H154 H 0.52855 0.60064 0.27114 0.0
H155 H 0.43472 0.56079 0.3339 0.0
C156 C 0.431 0.50233 0.28247 0.0
C157 C 0.41783 0.51156 0.30571 0.0
C158 C 0.47121 0.53422 0.26996 0.0
C159 C 0.49749 0.57596 0.28065 0.0
C160 C 0.48471 0.58595 0.30367 0.0
C161 C 0.44481 0.55348 0.31609 0.0
Tb162 Tb 0.48917 0.96791 0.99819 0.0
C163 C 0.58551 0.11851 0.06892 0.0
C164 C 0.66421 0.13175 0.06606 0.0
C165 C 0.65067 0.1923 0.07471 0.0
C166 C 0.61576 0.10309 0.06496 0.0
C167 C 0.60243 0.16302 0.07466 0.0
C168 C 0.68154 0.17669 0.07034 0.0
C169 C 0.52313 0.14497 0.08274 0.0
N170 N 0.53935 0.08906 0.06894 0.0
C171 C 0.50821 0.10108 0.07712 0.0
C172 C 0.57042 0.17626 0.08111 0.0
Tb173 Tb 0.51823 0.01812 0.05926 0.0
N174 N 0.59753 0.05947 0.06113 0.0
C175 C 0.62594 0.04177 0.05978 0.0
C176 C 0.6936 0.11414 0.06341 0.0
C177 C 0.67432 0.06883 0.06064 0.0
H178 H 0.47165 0.07687 0.07851 0.0
H179 H 0.69667 0.05473 0.05898 0.0
H180 H 0.71867 0.19938 0.07099 0.0
H181 H 0.49821 0.15459 0.08843 0.0
H182 H 0.61157 0.00693 0.05753 0.0
H183 H 0.30501 0.91553 0.99358 0.0
H184 H 0.73105 0.13504 0.06402 0.0
H185 H 0.5402 0.91097 0.97812 0.0
H186 H 0.38792 0.96891 0.99187 0.0
H187 H 0.51922 0.83342 0.97485 0.0
H188 H 0.66444 0.22677 0.07879 0.0
H189 H 0.2779 0.83626 0.9978 0.0
H190 H 0.29743 0.77596 0.99865 0.0
H191 H 0.58196 0.21017 0.08567 0.0
H192 H 0.35621 0.75339 0.99382 0.0
N193 N 0.4098 0.92125 0.99645 0.0
C194 C 0.37771 0.93479 0.99402 0.0
C195 C 0.31486 0.85971 0.99716 0.0
C196 C 0.34753 0.8457 0.99746 0.0
C197 C 0.33003 0.90439 0.99476 0.0
C198 C 0.39529 0.87763 0.99669 0.0
H199 H 0.43894 0.77455 0.98443 0.0
N200 N 0.47338 0.89675 0.99158 0.0
C201 C 0.49335 0.84173 0.98071 0.0
C202 C 0.42828 0.86494 0.99433 0.0
C203 C 0.50506 0.88572 0.98267 0.0
C204 C 0.44809 0.80864 0.98618 0.0
C205 C 0.41449 0.82001 0.99222 0.0
O206 O 0.52946 0.97453 0.96629 0.0
O207 O 0.54458 0.01267 1.02322 0.0
O208 O 0.50704 0.06211 0.03469 0.0
O209 O 0.46446 0.01487 1.0021 0.0
O210 O 0.54511 0.03223 0.98715 0.0
O211 O 0.46611 0.97765 0.96341 0.0
O212 O 0.47938 0.00488 0.09264 0.0
O213 O 0.46732 0.9649 0.03681 0.0
O214 O 0.52835 0.94171 1.01814 0.0
O215 O 0.52336 0.9588 0.05957 0.0
O216 O 0.44434 -0.00335 0.05982 0.0
O217 O 0.54186 0.00122 0.09176 0.0
C218 C 0.56656 0.04402 1.00787 0.0
C219 C 0.49328 0.96071 0.92646 0.0
C220 C 0.49945 0.97086 0.88095 0.0
C221 C 0.50674 0.98846 0.90522 0.0
C222 C 0.47848 0.925 0.87843 0.0
C223 C 0.47195 0.91517 0.92344 0.0
C224 C 0.46483 0.8975 0.89949 0.0
C225 C 0.4813 0.05239 1.0143 0.0
C226 C 0.50177 0.98037 0.95144 0.0
C227 C 0.36734 0.78805 0.99488 0.0
C228 C 0.33388 0.80089 0.99756 0.0
C229 C 0.43098 0.96385 0.04498 0.0
C230 C 0.51993 0.01677 0.13069 0.0
C231 C 0.50662 0.98909 0.15196 0.0
C232 C 0.51761 0.00702 0.17619 0.0
C233 C 0.54202 0.05304 0.17863 0.0
C234 C 0.5447 0.06244 0.1337 0.0
C235 C 0.5555 0.0804 0.15756 0.0
C236 C 0.53144 0.93657 0.04248 0.0
C237 C 0.50782 -0.00261 0.1056 0.0
H238 H 0.52209 0.0236 0.90765 0.0
H239 H 0.47272 0.91033 0.86009 0.0
H240 H 0.46065 0.89332 0.93948 0.0
H241 H 0.44855 0.86229 0.89723 0.0
H242 H 0.48848 0.95377 0.14957 0.0
H243 H 0.5506 0.06797 0.19693 0.0
H244 H 0.55578 0.08423 0.11769 0.0
H245 H 0.57444 0.11572 0.15974 0.0
Tb246 Tb 0.04433 0.50164 0.9982 0.0
C247 C 0.87657 0.44337 0.06133 0.0
C248 C 0.86697 0.50675 0.05596 0.0
C249 C 0.79921 0.43466 0.063 0.0
C250 C 0.89555 0.48768 0.05693 0.0
C251 C 0.82835 0.41648 0.06539 0.0
C252 C 0.81856 0.47978 0.05821 0.0
C253 C 0.8425 0.35779 0.07744 0.0
N254 N 0.90601 0.42743 0.06383 0.0
C255 C 0.89012 0.38613 0.07353 0.0
C256 C 0.8113 0.37277 0.07284 0.0
Tb257 Tb 0.98325 0.47578 0.05629 0.0
N258 N 0.9424 0.51245 0.0547 0.0
C259 C 0.96324 0.55723 0.05339 0.0
C260 C 0.88799 0.55238 0.05332 0.0
C261 C 0.93642 0.5778 0.05252 0.0
H262 H 0.91434 0.3749 0.0777 0.0
H263 H 0.95315 0.61322 0.05099 0.0
H264 H 0.79611 0.49382 0.05693 0.0
H265 H 0.82998 0.32463 0.08423 0.0
H266 H 1.00048 0.57732 0.05275 0.0
H267 H 0.05828 0.35611 0.97775 0.0
H268 H 0.86726 0.56832 0.05245 0.0
H269 H 0.13353 0.60675 0.99562 0.0
H270 H 0.02167 0.4009 0.97567 0.0
H271 H 0.21665 0.64622 1.00459 0.0
H272 H 0.76194 0.41447 0.06564 0.0
H273 H 0.13862 0.38728 0.99322 0.0
H274 H 0.21187 0.45331 1.00738 0.0
H275 H 0.77448 0.35097 0.07615 0.0
H276 H 0.25527 0.53286 1.015 0.0
N277 N 0.07751 0.45706 0.99376 0.0
C278 C 0.05543 0.41521 0.98424 0.0
C279 C 0.1221 0.40721 0.99315 0.0
C280 C 0.14654 0.45126 1.00008 0.0
C281 C 0.07672 0.38948 0.98457 0.0
C282 C 0.12324 0.47573 0.99982 0.0
H283 H 0.25773 0.60522 1.01336 0.0
N284 N 0.12443 0.54272 1.00259 0.0
C285 C 0.19755 0.61066 1.00517 0.0
C286 C 0.14749 0.52009 1.0044 0.0
C287 C 0.14974 0.58775 1.00062 0.0
C288 C 0.22059 0.58746 1.01001 0.0
C289 C 0.19593 0.54165 1.00879 0.0
O290 O 0.05928 0.55454 0.97378 0.0
O291 O 0.99163 0.5067 1.01996 0.0
O292 O 0.94221 0.41792 0.03305 0.0
O293 O 0.988 0.43269 0.99693 0.0
O294 O 0.97587 0.48431 0.98385 0.0
O295 O 0.0492 0.49208 0.95962 0.0
O296 O 0.98971 0.45025 0.0908 0.0
O297 O 0.04397 0.48278 0.03681 0.0
O298 O 0.06562 0.56289 1.01908 0.0
O299 O 0.04889 0.53689 0.05958 0.0
O300 O 1.00489 0.42667 0.0578 0.0
O301 O 0.99657 0.51425 0.08844 0.0
C302 C 0.96025 0.49397 1.00332 0.0
C303 C 0.06566 0.54942 0.92886 0.0
C304 C 0.04701 0.54044 0.88452 0.0
C305 C 0.03931 0.52289 0.90887 0.0
C306 C 0.08133 0.58437 0.88026 0.0
C307 C 0.09934 0.59346 0.92437 0.0
C308 C 0.10727 0.61073 0.90013 0.0
C309 C 0.95191 0.4065 1.0113 0.0
C310 C 0.05768 0.53166 0.95443 0.0
C311 C 0.21847 0.51701 1.01087 0.0
C312 C 0.19377 0.47179 1.00654 0.0
C313 C 0.04231 0.44784 0.04461 0.0
C314 C 0.97274 0.47717 0.12707 0.0
C315 C 0.99976 0.49126 0.1487 0.0
C316 C 0.97862 0.48307 0.17237 0.0
C317 C 0.92979 0.46152 0.17398 0.0
C318 C 0.92418 0.45617 0.12888 0.0
C319 C 0.90283 0.44839 0.15232 0.0
C320 C 0.07228 0.56889 0.04344 0.0
C321 C 0.99671 0.48473 0.10307 0.0
H322 H 0.01266 0.48902 0.91224 0.0
H323 H 0.08754 0.59838 0.86159 0.0
H324 H 0.11977 0.61438 0.93959 0.0
H325 H 0.13345 0.64468 0.89674 0.0
H326 H 0.03737 0.50897 0.14699 0.0
H327 H 0.91246 0.45458 0.19198 0.0
H328 H 0.90283 0.4459 0.11236 0.0
H329 H 0.8653 0.43198 0.15371 0.0
Tb330 Tb 0.53351 0.4874 0.06041 0.0
C331 C 0.43553 0.55334 0.98948 0.0
C332 C 0.3545 0.49728 0.99252 0.0
C333 C 0.3755 0.57244 0.98214 0.0
C334 C 0.4021 0.51042 0.9942 0.0
C335 C 0.42278 0.58469 0.98264 0.0
C336 C 0.34138 0.52876 0.98711 0.0
C337 C 0.50411 0.63666 0.97534 0.0
N338 N 0.48066 0.56363 0.99 0.0
C339 C 0.51494 0.60433 0.98226 0.0
C340 C 0.45785 0.62694 0.97576 0.0
Tb341 Tb 0.49531 0.50869 1.00137 0.0
N342 N 0.41636 0.48099 0.99875 0.0
C343 C 0.38442 0.43703 0.99963 0.0
C344 C 0.32166 0.45272 0.99537 0.0
C345 C 0.33674 0.42238 0.9985 0.0
H346 H 0.55083 0.61224 0.98194 0.0
H347 H 0.31169 0.38766 1.00007 0.0
H348 H 0.30502 0.51933 0.98582 0.0
H349 H 0.53146 0.66904 0.96972 0.0
H350 H 0.39509 0.41289 1.00209 0.0
H351 H 0.71872 0.60322 0.05771 0.0
H352 H 0.28474 0.44128 0.99437 0.0
H353 H 0.4777 0.3869 0.08489 0.0
H354 H 0.63591 0.58095 0.05801 0.0
H355 H 0.49449 0.3278 0.0953 0.0
H356 H 0.36494 0.59614 0.97723 0.0
H357 H 0.74285 0.54726 0.06181 0.0
H358 H 0.71978 0.46821 0.0699 0.0
H359 H 0.44953 0.652 0.97035 0.0
H360 H 0.65849 0.39266 0.0798 0.0
N361 N 0.61217 0.5124 0.06147 0.0
C362 C 0.64541 0.55592 0.05996 0.0
C363 C 0.70621 0.5372 0.06196 0.0
C364 C 0.67223 0.49311 0.06535 0.0
C365 C 0.69272 0.56885 0.05973 0.0
C366 C 0.62507 0.4818 0.06521 0.0
H367 H 0.57413 0.33996 0.08979 0.0
N368 N 0.54651 0.43147 0.07212 0.0
C369 C 0.52189 0.35896 0.08812 0.0
C370 C 0.59086 0.43959 0.07068 0.0
C371 C 0.51248 0.39256 0.0821 0.0
C372 C 0.56683 0.3659 0.08493 0.0
C373 C 0.60229 0.40703 0.07673 0.0
O374 O 0.49505 0.47229 0.094 0.0
O375 O 0.47849 0.49073 0.04032 0.0
O376 O 0.50416 0.56093 0.02647 0.0
O377 O 0.55496 0.55749 0.05524 0.0
O378 O 0.45987 0.43937 0.06464 0.0
O379 O 0.5631 0.52876 0.09149 0.0
O380 O 0.53136 0.52965 0.96706 0.0
O381 O 0.54958 0.50451 1.02136 0.0
O382 O 0.52033 0.432 0.03679 0.0
O383 O 0.47631 0.43931 1.00474 0.0
O384 O 0.56974 0.55546 0.99691 0.0
O385 O 0.47086 0.46545 0.97094 0.0
C386 C 0.44365 0.45707 0.04964 0.0
C387 C 0.53848 0.49353 0.13093 0.0
C388 C 0.53079 0.49204 0.17645 0.0
C389 C 0.5219 0.50373 0.15267 0.0
C390 C 0.55482 0.46858 0.17804 0.0
C391 C 0.5638 0.47154 0.13313 0.0
C392 C 0.57141 0.45869 0.15653 0.0
C393 C 0.53481 0.57807 0.04475 0.0
C394 C 0.52796 0.50469 0.10612 0.0
C395 C 0.64892 0.41729 0.0755 0.0
C396 C 0.68387 0.46033 0.06983 0.0
C397 C 0.58516 0.53658 1.01158 0.0
C398 C 0.48704 0.49854 0.93089 0.0
C399 C 0.50651 0.49098 0.90946 0.0
C400 C 0.49205 0.49559 0.88544 0.0
C401 C 0.45827 0.50844 0.88326 0.0
C402 C 0.45319 0.51099 0.92827 0.0
C403 C 0.43905 0.51606 0.90454 0.0
C404 C 0.49322 0.41739 1.01689 0.0
C405 C 0.50269 0.49351 0.95573 0.0
H406 H 0.50286 0.52128 0.15109 0.0
H407 H 0.56099 0.45803 0.196 0.0
H408 H 0.57762 0.46416 0.11683 0.0
H409 H 0.59039 0.44114 0.15802 0.0
H410 H 0.53319 0.48198 0.91154 0.0
H411 H 0.44625 0.51205 0.86504 0.0
H412 H 0.43764 0.51667 0.94449 0.0
H413 H 0.41292 0.52572 0.90263 0.0
Tb414 Tb 0.16016 0.30195 0.33183 0.0
C415 C 0.25937 0.45764 0.39983 0.0
C416 C 0.33794 0.4705 0.39683 0.0
C417 C 0.32481 0.53156 0.40466 0.0
C418 C 0.28946 0.4419 0.39612 0.0
C419 C 0.27654 0.50241 0.40492 0.0
C420 C 0.35548 0.51563 0.40054 0.0
C421 C 0.19742 0.48505 0.41292 0.0
N422 N 0.21315 0.42836 0.40007 0.0
C423 C 0.18222 0.4409 0.40791 0.0
C424 C 0.24475 0.51611 0.41102 0.0
Tb425 Tb 0.19186 0.35695 0.3917 0.0
N426 N 0.27108 0.39814 0.39274 0.0
C427 C 0.29929 0.38026 0.3914 0.0
C428 C 0.36716 0.45267 0.39431 0.0
C429 C 0.34771 0.40725 0.39196 0.0
H430 H 0.14566 0.41684 0.4096 0.0
H431 H 0.36996 0.39304 0.39036 0.0
H432 H 0.39264 0.53828 0.40089 0.0
H433 H 0.17269 0.49505 0.41836 0.0
H434 H 0.28465 0.34529 0.38941 0.0
H435 H 0.9805 0.26506 0.32426 0.0
H436 H 0.40463 0.47352 0.39464 0.0
H437 H 0.20098 0.2332 0.31781 0.0
H438 H 0.06441 0.31199 0.32137 0.0
H439 H 0.17187 0.1538 0.31944 0.0
H440 H 0.33877 0.56622 0.40826 0.0
H441 H 0.94577 0.18562 0.33291 0.0
H442 H 0.95699 0.12072 0.33861 0.0
H443 H 0.2565 0.55023 0.4151 0.0
H444 H 1.00947 0.09026 0.33768 0.0
N445 N 0.07983 0.26084 0.33008 0.0
C446 C 0.0511 0.27784 0.32577 0.0
C447 C 0.98326 0.20625 0.33188 0.0
C448 C 0.01232 0.18832 0.33419 0.0
C449 C 1.00274 0.25104 0.32702 0.0
C450 C 0.061 0.21671 0.33283 0.0
H451 H 0.08951 0.10221 0.33002 0.0
N452 N 0.13658 0.22782 0.32948 0.0
C453 C 0.14864 0.16621 0.32362 0.0
C454 C 0.09044 0.19965 0.33274 0.0
C455 C 0.16496 0.21137 0.32284 0.0
C456 C 0.10222 0.13724 0.32964 0.0
C457 C 0.0721 0.15369 0.33345 0.0
O458 O 0.19884 0.29984 0.3012 0.0
O459 O 0.21658 0.34842 0.35581 0.0
O460 O 0.18111 0.40009 0.36642 0.0
O461 O 0.13981 0.35255 0.33359 0.0
O462 O 0.21655 0.36447 0.31883 0.0
O463 O 0.14058 0.31056 0.29579 0.0
O464 O 0.15273 0.34405 0.42491 0.0
O465 O 0.14004 0.30261 0.37028 0.0
O466 O 0.19939 0.27691 0.3528 0.0
O467 O 0.19591 0.29717 0.39364 0.0
O468 O 0.11824 0.33665 0.39215 0.0
O469 O 0.21717 0.34392 0.42493 0.0
C470 C 0.23827 0.37801 0.33938 0.0
C471 C 0.16453 0.28576 0.26071 0.0
C472 C 0.16584 0.29163 0.21502 0.0
C473 C 0.17424 0.31133 0.23872 0.0
C474 C 0.14871 0.2461 0.21372 0.0
C475 C 0.14636 0.24033 0.25894 0.0
C476 C 0.13887 0.22073 0.23552 0.0
C477 C 0.15595 0.39004 0.34583 0.0
C478 C 0.17428 0.3077 0.28507 0.0
C479 C 0.02405 0.12555 0.33661 0.0
C480 C 0.99417 0.14287 0.33704 0.0
C481 C 0.10418 0.30283 0.37803 0.0
C482 C 0.19332 0.36024 0.46309 0.0
C483 C 0.18151 0.33413 0.48497 0.0
C484 C 0.19146 0.35386 0.50872 0.0
C485 C 0.21186 0.3998 0.51018 0.0
C486 C 0.21505 0.40603 0.46511 0.0
C487 C 0.22379 0.4256 0.48854 0.0
C488 C 0.20166 0.27247 0.37727 0.0
C489 C 0.18235 0.33917 0.43842 0.0
H490 H 0.1878 0.34645 0.24009 0.0
H491 H 0.14311 0.2301 0.19581 0.0
H492 H 0.13813 0.22006 0.27555 0.0
H493 H 0.1254 0.18569 0.23423 0.0
H494 H 0.16534 0.29873 0.4835 0.0
H495 H 0.21867 0.41584 0.52815 0.0
H496 H 0.22519 0.42673 0.44869 0.0
H497 H 0.23999 0.46095 0.48993 0.0
Tb498 Tb 0.71016 0.84369 0.33505 0.0
C499 C 0.53947 0.77951 0.40103 0.0
C500 C 0.52286 0.83896 0.39804 0.0
C501 C 0.4597 0.76406 0.40439 0.0
C502 C 0.55472 0.82357 0.39768 0.0
C503 C 0.492 0.74931 0.40525 0.0
C504 C 0.47524 0.80886 0.40068 0.0
C505 C 0.51289 0.69368 0.41361 0.0
N506 N 0.57182 0.76678 0.40186 0.0
C507 C 0.55963 0.72503 0.40943 0.0
C508 C 0.47879 0.70568 0.41109 0.0
Tb509 Tb 0.647 0.81995 0.39356 0.0
N510 N 0.60108 0.85161 0.39539 0.0
C511 C 0.61808 0.89607 0.3954 0.0
C512 C 0.5399 0.88422 0.39644 0.0
C513 C 0.5878 0.91293 0.39558 0.0
H514 H 0.5859 0.71563 0.41138 0.0
H515 H 0.60146 0.94807 0.39482 0.0
H516 H 0.4506 0.82038 0.40058 0.0
H517 H 0.50323 0.66034 0.41879 0.0
H518 H 0.65487 0.91902 0.39442 0.0
H519 H 0.75954 0.71804 0.33653 0.0
H520 H 0.51648 0.89734 0.39652 0.0
H521 H 0.76863 0.94468 0.31198 0.0
H522 H 0.7049 0.7457 0.33532 0.0
H523 H 0.85074 0.00092 0.30398 0.0
H524 H 0.42292 0.74138 0.40725 0.0
H525 H 0.84435 0.76992 0.33559 0.0
H526 H 0.90955 0.84757 0.33104 0.0
H527 H 0.44265 0.68142 0.41447 0.0
H528 H 0.93517 0.92551 0.32185 0.0
N529 N 0.75774 0.81345 0.33419 0.0
C530 C 0.74159 0.76913 0.33461 0.0
C531 C 0.82039 0.7824 0.33492 0.0
C532 C 0.8366 0.82741 0.33253 0.0
C533 C 0.77259 0.75305 0.33536 0.0
C534 C 0.80395 0.84188 0.33186 0.0
H535 H 0.91314 0.98299 0.31118 0.0
N536 N 0.78475 0.8964 0.32483 0.0
C537 C 0.84211 0.96858 0.3107 0.0
C538 C 0.81807 0.88519 0.32708 0.0
C539 C 0.79568 0.9367 0.31525 0.0
C540 C 0.87723 0.95837 0.31485 0.0
C541 C 0.8653 0.91582 0.32252 0.0
O542 O 0.69767 0.86567 0.30076 0.0
O543 O 0.65182 0.83974 0.35505 0.0
O544 O 0.60083 0.76886 0.36777 0.0
O545 O 0.65418 0.77445 0.33736 0.0
O546 O 0.6858 0.89086 0.33065 0.0
O547 O 0.69006 0.80143 0.30426 0.0
O548 O 0.65789 0.7948 0.42706 0.0
O549 O 0.70653 0.82522 0.37396 0.0
O550 O 0.75415 0.8994 0.35878 0.0
O551 O 0.70411 0.88884 0.39247 0.0
O552 O 0.67025 0.77191 0.39687 0.0
O553 O 0.66314 0.85836 0.42603 0.0
C554 C 0.65091 0.87239 0.34574 0.0
C555 C 0.71195 0.83607 0.26491 0.0
C556 C 0.70687 0.8333 0.2195 0.0
C557 C 0.68578 0.82797 0.24303 0.0
C558 C 0.75466 0.84749 0.21819 0.0
C559 C 0.75941 0.84968 0.26331 0.0
C560 C 0.78068 0.85557 0.24 0.0
C561 C 0.61277 0.75361 0.34832 0.0
C562 C 0.68898 0.83005 0.28915 0.0
C563 C 0.89854 0.90238 0.32481 0.0
C564 C 0.88411 0.85814 0.32993 0.0
C565 C 0.70671 0.79196 0.38295 0.0
C566 C 0.64023 0.81878 0.46419 0.0
C567 C 0.66631 0.83257 0.48628 0.0
C568 C 0.64387 0.82196 0.50972 0.0
C569 C 0.59505 0.79642 0.5107 0.0
C570 C 0.59156 0.7946 0.46559 0.0
C571 C 0.56915 0.78321 0.48875 0.0
C572 C 0.74303 0.91256 0.37946 0.0
C573 C 0.66455 0.82859 0.44003 0.0
H574 H 0.64917 0.81789 0.24435 0.0
H575 H 0.77173 0.85174 0.20028 0.0
H576 H 0.77994 0.85561 0.27998 0.0
H577 H 0.81736 0.86617 0.23883 0.0
H578 H 0.70395 0.85173 0.48521 0.0
H579 H 0.57686 0.78643 0.52846 0.0
H580 H 0.57081 0.78414 0.44893 0.0
H581 H 0.53158 0.76389 0.48968 0.0
Tb582 Tb 0.193 0.81759 0.38967 0.0
C583 C 0.11083 0.90062 0.32038 0.0
C584 C 0.02806 0.85205 0.32483 0.0
C585 C 0.05831 0.92942 0.31525 0.0
C586 C 0.07392 0.85957 0.32544 0.0
C587 C 0.10357 0.93586 0.31443 0.0
C588 C 0.02058 0.88751 0.3204 0.0
C589 C 0.18503 0.97892 0.3038 0.0
N590 N 0.15368 0.90495 0.3192 0.0
C591 C 0.19027 0.94276 0.30971 0.0
C592 C 0.14166 0.97576 0.30667 0.0
Tb593 Tb 0.15982 0.84493 0.33071 0.0
N594 N 0.08291 0.82635 0.32905 0.0
C595 C 0.04703 0.7839 0.32983 0.0
C596 C 0.99124 0.80895 0.32763 0.0
C597 C 1.0008 0.77461 0.32966 0.0
H598 H 0.22391 0.94563 0.30714 0.0
H599 H 0.97263 0.74098 0.33119 0.0
H600 H 0.98583 0.88268 0.31991 0.0
H601 H 0.21443 0.00913 0.29696 0.0
H602 H 0.0538 0.7571 0.33164 0.0
H603 H 0.37757 0.93243 0.39666 0.0
H604 H 0.95545 0.80172 0.3274 0.0
H605 H 0.13164 0.71084 0.40301 0.0
H606 H 0.29517 0.9108 0.39296 0.0
H607 H 0.14678 0.64999 0.41106 0.0
H608 H 0.05192 0.95614 0.31097 0.0
H609 H 0.40056 0.87565 0.40076 0.0
H610 H 0.37577 0.79556 0.40586 0.0
H611 H 0.13758 0.00367 0.30189 0.0
H612 H 0.31337 0.71874 0.40944 0.0
N613 N 0.27083 0.84192 0.39405 0.0
C614 C 0.30421 0.88541 0.39477 0.0
C615 C 0.36412 0.86586 0.39908 0.0
C616 C 0.32962 0.82152 0.39986 0.0
C617 C 0.35127 0.89797 0.39686 0.0
C618 C 0.2828 0.81056 0.39736 0.0
H619 H 0.22763 0.66404 0.41167 0.0
N620 N 0.20324 0.75901 0.39833 0.0
C621 C 0.17551 0.68287 0.40776 0.0
C622 C 0.24772 0.76749 0.39958 0.0
C623 C 0.16711 0.71756 0.40326 0.0
C624 C 0.22117 0.6909 0.40802 0.0
C625 C 0.258 0.73376 0.40431 0.0
O626 O 0.15406 0.79391 0.42293 0.0
O627 O 0.14102 0.8254 0.36944 0.0
O628 O 0.17511 0.8999 0.3551 0.0
O629 O 0.21481 0.88797 0.38786 0.0
O630 O 0.11848 0.77152 0.39205 0.0
O631 O 0.21647 0.85722 0.42169 0.0
O632 O 0.19774 0.85857 0.29703 0.0
O633 O 0.21175 0.83867 0.35162 0.0
O634 O 0.18791 0.76999 0.36207 0.0
O635 O 0.13537 0.77391 0.33492 0.0
O636 O 0.2349 0.88916 0.3267 0.0
O637 O 0.12859 0.80351 0.29989 0.0
C638 C 0.1047 0.79255 0.37805 0.0
C639 C 0.19533 0.81959 0.4605 0.0
C640 C 0.18984 0.82162 0.50599 0.0
C641 C 0.17893 0.83052 0.48199 0.0
C642 C 0.21743 0.80168 0.50806 0.0
C643 C 0.22287 0.79992 0.46303 0.0
C644 C 0.23379 0.79099 0.48672 0.0
C645 C 0.20097 0.91228 0.37551 0.0
C646 C 0.18269 0.82829 0.43567 0.0
C647 C 0.30459 0.74414 0.4059 0.0
C648 C 0.34026 0.78795 0.40375 0.0
C649 C 0.24839 0.87054 0.34271 0.0
C650 C 0.15323 0.838 0.26038 0.0
C651 C 0.16734 0.82561 0.23855 0.0
C652 C 0.15759 0.83667 0.21483 0.0
C653 C 0.13507 0.86151 0.21331 0.0
C654 C 0.12969 0.86171 0.25834 0.0
C655 C 0.12111 0.87375 0.23493 0.0
C656 C 0.15661 0.75336 0.3441 0.0
C657 C 0.1638 0.82664 0.2851 0.0
H658 H 0.15829 0.84643 0.47999 0.0
H659 H 0.22616 0.79415 0.52624 0.0
H660 H 0.23586 0.79142 0.44676 0.0
H661 H 0.25498 0.77566 0.48855 0.0
H662 H 0.18508 0.80682 0.24002 0.0
H663 H 0.12817 0.8714 0.19532 0.0
H664 H 0.11791 0.87092 0.27477 0.0
H665 H 0.10339 0.8925 0.23355 0.0
Tb666 Tb 0.82474 0.63465 0.66658 0.0
C667 C 0.92355 0.79235 0.73544 0.0
C668 C 1.00403 0.81196 0.73069 0.0
C669 C 0.98443 0.86855 0.73964 0.0
C670 C 0.95625 0.78031 0.73056 0.0
C671 C 0.93713 0.83628 0.74099 0.0
C672 C 0.01788 0.8564 0.73441 0.0
C673 C 0.85726 0.81181 0.75213 0.0
N674 N 0.8785 0.76006 0.73692 0.0
C675 C 0.84574 0.76868 0.74656 0.0
C676 C 0.90302 0.84595 0.74883 0.0
Tb677 Tb 0.86195 0.69075 0.72614 0.0
N678 N 0.94125 0.73699 0.7276 0.0
C679 C 0.97283 0.72271 0.72701 0.0
C680 C 0.03633 0.79774 0.72811 0.0
C681 C 0.02064 0.75282 0.72678 0.0
H682 H 0.81044 0.74234 0.7494 0.0
H683 H 0.04533 0.74132 0.72542 0.0
H684 H 0.05439 0.88133 0.73423 0.0
H685 H 0.8309 0.81866 0.75905 0.0
H686 H 0.96169 0.68825 0.72576 0.0
H687 H 0.64101 0.5824 0.66835 0.0
H688 H 0.07336 0.82097 0.72798 0.0
H689 H 0.87725 0.58419 0.64276 0.0
H690 H 0.7245 0.63593 0.66828 0.0
H691 H 0.8575 0.50849 0.6323 0.0
H692 H 0.99562 0.90264 0.74348 0.0
H693 H 0.61362 0.50304 0.66444 0.0
H694 H 0.63329 0.44343 0.65693 0.0
H695 H 0.91197 0.87927 0.75333 0.0
H696 H 0.69259 0.4231 0.64701 0.0
N697 N 0.74552 0.58776 0.66509 0.0
C698 C 0.71366 0.60163 0.66639 0.0
C699 C 0.65058 0.52649 0.66437 0.0
C700 C 0.68316 0.51277 0.66112 0.0
C701 C 0.66592 0.57124 0.66649 0.0
C702 C 0.73082 0.5447 0.66131 0.0
H703 H 0.7765 0.44736 0.63726 0.0
N704 N 0.80865 0.56589 0.65467 0.0
C705 C 0.83079 0.51491 0.63914 0.0
C706 C 0.76377 0.53328 0.65593 0.0
C707 C 0.84185 0.55777 0.64511 0.0
C708 C 0.78508 0.48049 0.64203 0.0
C709 C 0.75063 0.48961 0.64997 0.0
O710 O 0.86251 0.65178 0.63268 0.0
O711 O 0.87859 0.68889 0.68724 0.0
O712 O 0.85022 0.73455 0.70195 0.0
O713 O 0.80558 0.68598 0.67025 0.0
O714 O 0.89851 0.65674 0.66289 0.0
O715 O 0.79988 0.65491 0.63602 0.0
O716 O 0.82386 0.6744 0.75988 0.0
O717 O 0.80866 0.63596 0.70559 0.0
O718 O 0.83895 0.59175 0.69013 0.0
O719 O 0.88036 0.63901 0.72311 0.0
O720 O 0.78746 0.66698 0.72987 0.0
O721 O 0.88772 0.67326 0.75758 0.0
C722 C 0.91387 0.68923 0.67802 0.0
C723 C 0.81903 0.64048 0.59605 0.0
C724 C 0.82654 0.64905 0.5506 0.0
C725 C 0.83869 0.66721 0.57468 0.0
C726 C 0.79398 0.60407 0.54826 0.0
C727 C 0.78672 0.59572 0.59324 0.0
C728 C 0.7743 0.57767 0.56944 0.0
C729 C 0.82265 0.72376 0.68225 0.0
C730 C 0.83302 0.65957 0.62108 0.0
C731 C 0.70344 0.45701 0.65118 0.0
C732 C 0.6697 0.46859 0.65681 0.0
C733 C 0.7728 0.63408 0.71503 0.0
C734 C 0.8664 0.68774 0.79711 0.0
C735 C 0.85244 0.66059 0.81863 0.0
C736 C 0.86363 0.67925 0.84267 0.0
C737 C 0.88752 0.7253 0.84477 0.0
C738 C 0.8914 0.7335 0.79977 0.0
C739 C 0.90149 0.75211 0.82347 0.0
C740 C 0.86499 0.60205 0.71047 0.0
C741 C 0.8538 0.66802 0.7721 0.0
H742 H 0.86376 0.70184 0.57678 0.0
H743 H 0.78335 0.58939 0.52997 0.0
H744 H 0.771 0.57477 0.6094 0.0
H745 H 0.74922 0.54311 0.5674 0.0
H746 H 0.83353 0.62517 0.81666 0.0
H747 H 0.89541 0.74067 0.86295 0.0
H748 H 0.90297 0.75489 0.78359 0.0
H749 H 0.92025 0.78749 0.82536 0.0
Tb750 Tb 0.37498 0.17249 0.66786 0.0
C751 C 0.20177 0.09926 0.73558 0.0
C752 C 0.17517 0.15158 0.73089 0.0
C753 C 0.12 0.07561 0.74175 0.0
C754 C 0.21107 0.14121 0.73015 0.0
C755 C 0.15644 0.06622 0.74228 0.0
C756 C 0.12938 0.11825 0.73602 0.0
C757 C 0.18732 0.01835 0.75139 0.0
N758 N 0.23805 0.09178 0.73611 0.0
C759 C 0.23167 0.05225 0.74464 0.0
C760 C 0.14943 0.02522 0.75004 0.0
Tb761 Tb 0.3097 0.14958 0.72527 0.0
N762 N 0.25597 0.17256 0.72614 0.0
C763 C 0.26779 0.21584 0.72498 0.0
C764 C 0.18674 0.19542 0.72762 0.0
C765 C 0.23339 0.2278 0.72514 0.0
H766 H 0.26051 0.04635 0.7459 0.0
H767 H 0.24295 0.262 0.72332 0.0
H768 H 0.10131 0.12544 0.73662 0.0
H769 H 0.18241 0.98695 0.75767 0.0
H770 H 0.30363 0.24137 0.72305 0.0
H771 H 0.43802 0.05714 0.66719 0.0
H772 H 0.16019 0.20477 0.7279 0.0
H773 H 0.42779 0.27835 0.65155 0.0
H774 H 0.37854 0.0792 0.66793 0.0
H775 H 0.50763 0.33828 0.64341 0.0
H776 H 0.08478 0.05054 0.74649 0.0
H777 H 0.52139 0.11354 0.6642 0.0
H778 H 0.58211 0.19328 0.65877 0.0
H779 H 0.11514 -0.00105 0.75535 0.0
H780 H 0.60114 0.26981 0.65195 0.0
N781 N 0.4273 0.14791 0.66608 0.0
C782 C 0.41458 0.10437 0.66646 0.0
C783 C 0.49532 0.1235 0.66449 0.0
C784 C 0.50797 0.16781 0.66247 0.0
C785 C 0.44833 0.0916 0.66609 0.0
C786 C 0.47267 0.17898 0.66316 0.0
H787 H 0.57345 0.32413 0.6457 0.0
N788 N 0.44786 0.23044 0.65917 0.0
C789 C 0.50132 0.30569 0.64799 0.0
C790 C 0.48337 0.22183 0.65946 0.0
C791 C 0.45599 0.27148 0.6526 0.0
C792 C 0.53839 0.2976 0.64933 0.0
C793 C 0.52961 0.25511 0.65478 0.0
O794 O 0.36047 0.19254 0.63357 0.0
O795 O 0.3145 0.16771 0.68631 0.0
O796 O 0.26539 0.09639 0.69997 0.0
O797 O 0.32125 0.10185 0.67129 0.0
O798 O 0.35073 0.21956 0.66259 0.0
O799 O 0.36041 0.1314 0.63669 0.0
O800 O 0.32714 0.13346 0.75999 0.0
O801 O 0.369 0.15332 0.70639 0.0
O802 O 0.4199 0.22219 0.69487 0.0
O803 O 0.36278 0.22011 0.72102 0.0
O804 O 0.33532 0.10358 0.73144 0.0
O805 O 0.32468 0.19312 0.7552 0.0
C806 C 0.3145 0.20064 0.67664 0.0
C807 C 0.38037 0.16807 0.59756 0.0
C808 C 0.37683 0.16866 0.55202 0.0
C809 C 0.35436 0.15728 0.57545 0.0
C810 C 0.42574 0.19061 0.55112 0.0
C811 C 0.42901 0.18956 0.59625 0.0
C812 C 0.45155 0.20078 0.57312 0.0
C813 C 0.2789 0.08025 0.68151 0.0
C814 C 0.35616 0.15857 0.62171 0.0
C815 C 0.56528 0.24465 0.65518 0.0
C816 C 0.55445 0.20106 0.65908 0.0
C817 C 0.37007 0.12117 0.71632 0.0
C818 C 0.30704 0.15979 0.79515 0.0
C819 C 0.33372 0.1714 0.81697 0.0
C820 C 0.31206 0.16161 0.8406 0.0
C821 C 0.26324 0.14062 0.84199 0.0
C822 C 0.2585 0.13934 0.79689 0.0
C823 C 0.23673 0.12977 0.82023 0.0
C824 C 0.40624 0.23973 0.71242 0.0
C825 C 0.33056 0.16786 0.77089 0.0
H826 H 0.3167 0.13979 0.57657 0.0
H827 H 0.44408 0.20016 0.53339 0.0
H828 H 0.44957 0.19789 0.61301 0.0
H829 H 0.48915 0.21764 0.57223 0.0
H830 H 0.37133 0.18828 0.81548 0.0
H831 H 0.24555 0.13234 0.85992 0.0
H832 H 0.23744 0.13072 0.78034 0.0
H833 H 0.19919 0.1137 0.82146 0.0
Tb834 Tb 0.86437 0.15555 0.72795 0.0
C835 C 0.76041 0.20956 0.6597 0.0
C836 C 0.68387 0.14556 0.66386 0.0
C837 C 0.69182 0.21708 0.65537 0.0
C838 C 0.7327 0.16523 0.6641 0.0
C839 C 0.74042 0.23588 0.65437 0.0
C840 C 0.66358 0.17192 0.66016 0.0
C841 C 0.81732 0.29525 0.6439 0.0
N842 N 0.80696 0.22605 0.65846 0.0
C843 C 0.83521 0.26746 0.64906 0.0
C844 C 0.76977 0.27964 0.64704 0.0
Tb845 Tb 0.83338 0.17863 0.66783 0.0
N846 N 0.75373 0.141 0.66742 0.0
C847 C 0.72771 0.09622 0.66895 0.0
C848 C 0.65701 0.09993 0.66672 0.0
C849 C 0.67908 0.07508 0.66884 0.0
H850 H 0.87185 0.2793 0.64621 0.0
H851 H 0.65869 0.03967 0.67059 0.0
H852 H 0.62613 0.15738 0.6602 0.0
H853 H 0.84012 0.3285 0.63733 0.0
H854 H 0.74413 0.07658 0.67057 0.0
H855 H 0.04452 0.28804 0.73478 0.0
H856 H 0.61936 0.08353 0.66674 0.0
H857 H 0.82397 0.04904 0.74407 0.0
H858 H 0.96083 0.2561 0.73815 0.0
H859 H 0.85248 -0.0033 0.74296 0.0
H860 H 0.67572 0.23682 0.65165 0.0
H861 H 0.07878 0.24115 0.72622 0.0
H862 H 0.06704 0.16574 0.72076 0.0
H863 H 0.75585 0.30102 0.64277 0.0
H864 H 0.01446 0.08559 0.72304 0.0
N865 N 0.94481 0.19026 0.72965 0.0
C866 C 0.9738 0.23435 0.73372 0.0
C867 C 0.04134 0.22654 0.72744 0.0
C868 C 0.01207 0.18119 0.72556 0.0
C869 C 0.02212 0.25306 0.73224 0.0
C870 C 0.96348 0.16379 0.72718 0.0
H871 H 0.9345 0.02228 0.73185 0.0
N872 N 0.88796 0.10383 0.73129 0.0
C873 C 0.87574 0.03091 0.73826 0.0
C874 C 0.93397 0.119 0.72789 0.0
C875 C 0.85967 0.06085 0.73865 0.0
C876 C 0.92196 0.04544 0.73197 0.0
C877 C 0.95214 0.09021 0.72756 0.0
O878 O 0.82488 0.1164 0.75851 0.0
O879 O 0.80734 0.14799 0.70403 0.0
O880 O 0.84795 0.23507 0.6914 0.0
O881 O 0.8859 0.22519 0.72567 0.0
O882 O 0.81067 0.16997 0.73964 0.0
O883 O 0.88357 0.18166 0.76388 0.0
O884 O 0.869 0.20436 0.63373 0.0
O885 O 0.88611 0.17422 0.68933 0.0
O886 O 0.82325 0.09298 0.70806 0.0
O887 O 0.83503 0.11746 0.66699 0.0
O888 O 0.90668 0.22861 0.66685 0.0
O889 O 0.8103 0.13911 0.63583 0.0
C890 C 0.78697 0.15995 0.71955 0.0
C891 C 0.86067 0.13342 0.7985 0.0
C892 C 0.85482 0.13166 0.84405 0.0
C893 C 0.84358 0.14186 0.82055 0.0
C894 C 0.88355 0.11283 0.8451 0.0
C895 C 0.88934 0.1148 0.79986 0.0
C896 C 0.90047 0.10433 0.82313 0.0
C897 C 0.87241 0.24859 0.7123 0.0
C898 C 0.84986 0.14684 0.77461 0.0
C899 C 1.00006 0.10725 0.724 0.0
C900 C 0.02997 0.15276 0.72285 0.0
C901 C 0.92159 0.20864 0.68113 0.0
C902 C 0.8261 0.17519 0.59679 0.0
C903 C 0.84436 0.16668 0.57523 0.0
C904 C 0.82924 0.171 0.55136 0.0
C905 C 0.79621 0.18482 0.54943 0.0
C906 C 0.79285 0.18844 0.59451 0.0
C907 C 0.77822 0.19347 0.57089 0.0
C908 C 0.82438 0.08628 0.68383 0.0
C909 C 0.84173 0.1691 0.62136 0.0
H910 H 0.8217 0.15664 0.81941 0.0
H911 H 0.89379 0.10554 0.86291 0.0
H912 H 0.90361 0.10899 0.7831 0.0
H913 H 0.92285 0.09017 0.82418 0.0
H914 H 0.87049 0.15693 0.57709 0.0
H915 H 0.78377 0.1883 0.53132 0.0
H916 H 0.77805 0.19466 0.61088 0.0
H917 H 0.75256 0.20376 0.5692 0.0
C918 C 0.30657 0.89141 0.06581 0.0
C919 C 0.30408 0.85107 0.07112 0.0
C920 C 0.34722 0.9269 0.05595 0.0
C921 C 0.38683 0.92336 0.05104 0.0
H922 H 0.27719 0.89584 0.06986 0.0
H923 H 0.34815 0.95783 0.05277 0.0
S924 S 0.39845 0.82501 0.06262 0.0
N925 N 0.34434 0.80934 0.07085 0.0
N926 N 0.42146 0.87659 0.05314 0.0
C927 C 0.38466 0.88302 0.05611 0.0
C928 C 0.34298 0.84665 0.06584 0.0
C929 C 0.11279 0.39447 0.06317 0.0
C930 C 0.15446 0.42975 0.07211 0.0
C931 C 0.07773 0.40123 0.05317 0.0
C932 C 0.08304 0.4435 0.05172 0.0
H933 H 0.10691 0.36128 0.06439 0.0
H934 H 0.0457 0.37301 0.047 0.0
S935 S 0.18491 0.54638 0.07411 0.0
N936 N 0.19905 0.50815 0.07938 0.0
N937 N 0.13262 0.52088 0.06144 0.0
C938 C 0.12461 0.47906 0.06076 0.0
C939 C 0.16054 0.47217 0.07063 0.0
C940 C 0.60016 0.68649 0.07905 0.0
C941 C 0.57222 0.70576 0.07547 0.0
C942 C 0.588 0.64559 0.06881 0.0
C943 C 0.54783 0.62246 0.05413 0.0
H944 H 0.6318 0.7031 0.08989 0.0
H945 H 0.61048 0.63211 0.07251 0.0
S946 S 0.46293 0.65875 0.03886 0.0
N947 N 0.50167 0.69787 0.05676 0.0
N948 N 0.48082 0.62283 0.03601 0.0
C949 C 0.52024 0.64192 0.04983 0.0
C950 C 0.53191 0.68304 0.06085 0.0
C951 C 0.87505 0.31597 0.96652 0.0
C952 C 0.85656 0.27787 0.98163 0.0
C953 C 0.90598 0.35747 0.97629 0.0
C954 C 0.91927 0.36242 1.00154 0.0
H955 H 0.86508 0.31376 0.94708 0.0
H956 H 0.9191 0.38597 0.96407 0.0
S957 S 0.88513 0.27283 0.04819 0.0
N958 N 0.85672 0.24761 1.02265 0.0
N959 N 0.91481 0.32561 0.04086 0.0
C960 C 0.90191 0.32465 1.01669 0.0
C961 C 0.87055 0.28238 1.00677 0.0
C962 C 0.70932 0.5842 0.98858 0.0
C963 C 0.71499 0.54734 0.98587 0.0
C964 C 0.66791 0.58014 0.99809 0.0
C965 C 0.63026 0.5391 1.00532 0.0
H966 H 0.73685 0.61643 0.98278 0.0
H967 H 0.6649 0.60941 0.99924 0.0
S968 S 0.62703 0.4321 1.00142 0.0
N969 N 0.67966 0.4684 0.99137 0.0
N970 N 0.60128 0.46054 1.00839 0.0
C971 C 0.63567 0.50197 1.003 0.0
C972 C 0.67822 0.5062 0.9936 0.0
C973 C 0.44833 0.14042 1.00623 0.0
C974 C 0.45646 0.15048 0.98051 0.0
C975 C 0.45705 0.10898 1.01733 0.0
C976 C 0.47359 0.08635 1.00299 0.0
H977 H 0.43432 0.15634 1.01775 0.0
H978 H 0.4496 0.10152 0.03703 0.0
S979 S 0.50516 0.10361 0.9357 0.0
N980 N 0.48595 0.13784 0.94163 0.0
N981 N 0.5007 0.07782 0.96236 0.0
C982 C 0.48275 0.09666 0.97747 0.0
C983 C 0.47458 0.12898 0.96625 0.0
C984 C 0.67662 0.14947 0.99508 0.0
C985 C 0.70674 0.1344 0.98736 0.0
C986 C 0.63197 0.12011 1.0043 0.0
C987 C 0.61664 0.0751 1.00687 0.0
H988 H 0.68643 0.18363 0.99245 0.0
H989 H 0.60835 0.13227 1.00816 0.0
S990 S 0.68325 0.01963 0.99131 0.0
N991 N 0.71918 0.07195 0.98459 0.0
N992 N 0.63508 0.01695 1.0018 0.0
C993 C 0.64718 0.06001 1.00046 0.0
C994 C 0.69241 0.08969 0.99088 0.0
C995 C 0.84527 0.48895 0.99033 0.0
C996 C 0.85939 0.53283 0.984 0.0
C997 C 0.87795 0.47668 0.99779 0.0
C998 C 0.92545 0.50813 1.00008 0.0
H999 H 0.8092 0.46367 0.98828 0.0
H1000 H 0.8662 0.44228 1.00131 0.0
S1001 S 0.97997 0.62721 0.9862 0.0
N1002 N 0.92402 0.60776 0.98099 0.0
N1003 N 0.98495 0.58463 0.99508 0.0
C1004 C 0.93973 0.55209 0.9943 0.0
C1005 C 0.90676 0.56451 0.98648 0.0
C1006 C 0.48626 0.33571 0.96948 0.0
C1007 C 0.46223 0.29545 0.98247 0.0
C1008 C 0.49665 0.37515 0.98103 0.0
C1009 C 0.48364 0.37562 1.00596 0.0
H1010 H 0.49703 0.33671 0.95024 0.0
H1011 H 0.51499 0.40554 0.9704 0.0
S1012 S 0.41701 0.27916 0.04743 0.0
N1013 N 0.42376 0.25835 1.02123 0.0
N1014 N 0.44337 0.33284 0.04281 0.0
C1015 C 0.45951 0.33583 1.01914 0.0
C1016 C 0.44881 0.29559 1.00741 0.0
C1017 C 0.1517 0.69291 0.04971 0.0
C1018 C 0.16799 0.69712 0.07442 0.0
C1019 C 0.12128 0.65142 0.03955 0.0
C1020 C 0.10616 0.61266 0.05373 0.0
H1021 H 0.16139 0.72196 0.0384 0.0
H1022 H 0.10859 0.64987 1.02073 0.0
S1023 S 0.14206 0.60602 0.11881 0.0
N1024 N 0.16953 0.65903 0.11213 0.0
N1025 N 0.1118 0.58156 0.09363 0.0
C1026 C 0.12325 0.61662 0.07831 0.0
C1027 C 0.15434 0.65865 0.08847 0.0
C1028 C 0.31736 0.39734 0.06946 0.0
C1029 C 0.30675 0.43104 0.07261 0.0
C1030 C 0.36098 0.40638 0.06048 0.0
C1031 C 0.39599 0.44948 0.05435 0.0
H1032 H 0.29206 0.36381 0.07456 0.0
H1033 H 0.36794 0.37943 0.05906 0.0
S1034 S 0.38537 0.54925 0.05973 0.0
N1035 N 0.33397 0.50887 0.06857 0.0
N1036 N 0.41684 0.52632 0.05261 0.0
C1037 C 0.38549 0.48341 0.05698 0.0
C1038 C 0.3406 0.47401 0.0658 0.0
C1039 C 0.54291 0.85869 0.08693 0.0
C1040 C 0.57373 0.84876 0.07453 0.0
C1041 C 0.52878 0.88621 0.07594 0.0
C1042 C 0.5449 0.90501 0.05209 0.0
H1043 H 0.52929 0.84477 0.10524 0.0
H1044 H 0.50499 0.89287 0.08635 0.0
S1045 S 0.62761 0.89052 1.01225 0.0
N1046 N 0.62064 0.86005 0.03733 0.0
N1047 N 0.59452 0.9127 1.01672 0.0
C1048 C 0.57563 0.89523 0.03938 0.0
C1049 C 0.58995 0.86689 0.0506 0.0
C1050 C 0.01984 0.18772 0.40153 0.0
C1051 C 0.98006 0.19073 0.40688 0.0
C1052 C 0.05964 0.22354 0.39099 0.0
C1053 C 0.06027 0.26291 0.3849 0.0
H1054 H 0.02086 0.15827 0.4065 0.0
H1055 H 0.09049 0.22086 0.38833 0.0
S1056 S 0.96379 0.28586 0.39377 0.0
N1057 N 0.94293 0.23516 0.40442 0.0
N1058 N 0.01737 0.30212 0.38423 0.0
C1059 C 0.02015 0.26558 0.38944 0.0
C1060 C 0.98001 0.22947 0.40039 0.0
C1061 C 0.77917 0.74273 0.40529 0.0
C1062 C 0.82379 0.77936 0.40833 0.0
C1063 C 0.74233 0.7474 0.39607 0.0
C1064 C 0.74854 0.78887 0.38954 0.0
H1065 H 0.77251 0.71022 0.4105 0.0
H1066 H 0.70835 0.71829 0.39445 0.0
S1067 S 0.85853 0.89544 0.39515 0.0
N1068 N 0.87244 0.85847 0.40428 0.0
N1069 N 0.8028 0.86759 0.38793 0.0
C1070 C 0.79314 0.82584 0.39249 0.0
C1071 C 0.83091 0.82095 0.40153 0.0
C1072 C 0.20883 -0.00388 0.42174 0.0
C1073 C 0.23541 0.03612 0.40878 0.0
C1074 C 0.19792 0.95609 0.41073 0.0
C1075 C 0.21304 0.95481 0.3864 0.0
H1076 H 0.1962 -0.00422 0.44047 0.0
H1077 H 0.17717 0.92588 0.42121 0.0
S1078 S 0.28748 0.05025 0.34567 0.0
N1079 N 0.27893 0.07205 0.37095 0.0
N1080 N 0.2587 -0.00345 0.35045 0.0
C1081 C 0.24021 0.99439 0.3734 0.0
C1082 C 0.25129 0.03518 0.38456 0.0
C1083 C 0.52705 0.63233 0.34064 0.0
C1084 C 0.51452 0.62963 0.31526 0.0
C1085 C 0.55807 0.67278 0.35151 0.0
C1086 C 0.57774 0.71181 0.33735 0.0
H1087 H 0.51402 0.6028 0.35199 0.0
H1088 H 0.56801 0.67325 0.37081 0.0
S1089 S 0.55316 0.7238 0.27115 0.0
N1090 N 0.52155 0.67054 0.27698 0.0
N1091 N 0.58072 0.74618 0.2974 0.0
C1092 C 0.5647 0.70992 0.31228 0.0
C1093 C 0.53283 0.66894 0.30124 0.0
C1094 C 0.34123 0.84026 0.32816 0.0
C1095 C 0.37957 0.88153 0.32187 0.0
C1096 C 0.29909 0.83646 0.33662 0.0
C1097 C 0.29442 0.87394 0.3394 0.0
H1098 H 0.34297 0.81066 0.32517 0.0
H1099 H 0.26952 0.80401 0.3397 0.0
S1100 S 0.38616 0.98949 0.328 0.0
N1101 N 0.4112 0.96048 0.32084 0.0
N1102 N 0.33268 0.95346 0.33695 0.0
C1103 C 0.33339 0.91532 0.33447 0.0
C1104 C 0.37585 0.91913 0.32576 0.0
C1105 C 0.12211 0.4775 0.33744 0.0
C1106 C 0.1313 0.4882 0.31185 0.0
C1107 C 0.1307 0.44598 0.34858 0.0
C1108 C 0.14822 0.42393 0.33441 0.0
H1109 H 0.10702 0.49268 0.34876 0.0
H1110 H 0.12223 0.43788 0.36815 0.0
S1111 S 0.18293 0.44314 0.26763 0.0
N1112 N 0.16309 0.47695 0.27336 0.0
N1113 N 0.17748 0.41673 0.29418 0.0
C1114 C 0.15864 0.43502 0.30908 0.0
C1115 C 0.15066 0.46745 0.29783 0.0
C1116 C 0.3413 0.48878 0.32654 0.0
C1117 C 0.37493 0.47801 0.31877 0.0
C1118 C 0.29791 0.45644 0.33584 0.0
C1119 C 0.28728 0.4126 0.33854 0.0
H1120 H 0.34744 0.52187 0.32397 0.0
H1121 H 0.2716 0.4653 0.33969 0.0
S1122 S 0.36399 0.36777 0.3227 0.0
N1123 N 0.39545 0.42071 0.31591 0.0
N1124 N 0.31367 0.36006 0.33329 0.0
C1125 C 0.32119 0.40176 0.33194 0.0
C1126 C 0.36518 0.43448 0.32223 0.0
C1127 C 0.52639 0.84088 0.32864 0.0
C1128 C 0.53152 0.88173 0.32154 0.0
C1129 C 0.56456 0.83774 0.33769 0.0
C1130 C 0.60874 0.87549 0.34034 0.0
H1131 H 0.49336 0.81106 0.32606 0.0
H1132 H 0.5598 0.80552 0.34168 0.0
S1133 S 0.63886 0.99024 0.32641 0.0
N1134 N 0.58323 0.96065 0.3192 0.0
N1135 N 0.6544 0.95487 0.33639 0.0
C1136 C 0.61351 0.91648 0.33423 0.0
C1137 C 0.57501 0.91962 0.32492 0.0
C1138 C 0.16928 0.65666 0.32356 0.0
C1139 C 0.12658 0.6292 0.31178 0.0
C1140 C 0.17833 0.69634 0.33446 0.0
C1141 C 0.14519 0.7102 0.33375 0.0
H1142 H 0.19631 0.64795 0.32387 0.0
H1143 H 0.212 0.71678 0.34295 0.0
S1144 S 0.0258 0.64747 0.30809 0.0
N1145 N 0.04911 0.61649 0.30241 0.0
N1146 N 0.06664 0.69147 0.3222 0.0
C1147 C 0.10187 0.68236 0.32276 0.0
C1148 C 0.09245 0.64179 0.31196 0.0
C1149 C 0.82438 -0.00088 0.42472 0.0
C1150 C 0.84153 0.03844 0.4108 0.0
C1151 C 0.79252 0.95848 0.41437 0.0
C1152 C 0.77703 0.95565 0.38967 0.0
H1153 H 0.83561 -0.00023 0.4438 0.0
H1154 H 0.7801 0.929 0.42572 0.0
S1155 S 0.80766 0.0486 0.34604 0.0
N1156 N 0.8382 0.07184 0.3714 0.0
N1157 N 0.77857 -0.00469 0.35207 0.0
C1158 C 0.79348 0.99445 0.37558 0.0
C1159 C 0.82573 0.0359 0.38611 0.0
C1160 C 0.98106 0.74444 0.40085 0.0
C1161 C 0.97631 0.78139 0.40516 0.0
C1162 C 0.02199 0.74877 0.39063 0.0
C1163 C 0.06 0.79021 0.38443 0.0
H1164 H 0.95332 0.71196 0.40612 0.0
H1165 H 0.02452 0.7194 0.38834 0.0
S1166 S 0.06479 0.89734 0.39195 0.0
N1167 N 0.01209 0.86068 0.40177 0.0
N1168 N 0.09005 0.86912 0.38346 0.0
C1169 C 0.05532 0.82748 0.3881 0.0
C1170 C 0.01313 0.82295 0.39818 0.0
C1171 C 0.24985 0.19494 0.38509 0.0
C1172 C 0.23505 0.17823 0.40945 0.0
C1173 C 0.23831 0.22489 0.37435 0.0
C1174 C 0.21136 0.23871 0.38762 0.0
H1175 H 0.27133 0.18555 0.37453 0.0
H1176 H 0.25155 0.23808 0.35589 0.0
S1177 S 0.15907 0.19977 0.45073 0.0
N1178 N 0.18903 0.17465 0.44561 0.0
N1179 N 0.16661 0.23002 0.42553 0.0
C1180 C 0.19484 0.22067 0.41161 0.0
C1181 C 0.20687 0.19066 0.4225 0.0
C1182 C 0.64917 0.56218 0.73797 0.0
C1183 C 0.64461 0.52032 0.74039 0.0
C1184 C 0.69006 0.59798 0.72847 0.0
C1185 C 0.72814 0.59349 0.72104 0.0
H1186 H 0.62129 0.56754 0.7441 0.0
H1187 H 0.69241 0.62985 0.72757 0.0
S1188 S 0.73387 0.49061 0.72418 0.0
N1189 N 0.68109 0.476 0.73439 0.0
N1190 N 0.75857 0.54352 0.71743 0.0
C1191 C 0.72369 0.55153 0.72304 0.0
C1192 C 0.68168 0.51486 0.73239 0.0
C1193 C 0.49361 0.14797 0.73236 0.0
C1194 C 0.48683 0.1063 0.73908 0.0
C1195 C 0.45632 0.15296 0.72373 0.0
C1196 C 0.41135 0.11634 0.72113 0.0
H1197 H 0.52732 0.17701 0.73491 0.0
H1198 H 0.46233 0.1857 0.72006 0.0
S1199 S 0.37688 3e-05 0.7336 0.0
N1200 N 0.43269 0.02775 0.74068 0.0
N1201 N 0.36318 0.03707 0.72438 0.0
C1202 C 0.40492 0.07454 0.72672 0.0
C1203 C 0.44252 0.0695 0.73558 0.0
C1204 C 0.88448 0.33199 0.7601 0.0
C1205 C 0.90508 0.37161 0.74642 0.0
C1206 C 0.87368 0.29235 0.74866 0.0
C1207 C 0.88268 0.29082 0.7231 0.0
H1208 H 0.87603 0.33148 0.77971 0.0
H1209 H 0.85777 0.26251 0.75988 0.0
S1210 S 0.94005 0.38562 0.67952 0.0
N1211 N 0.93688 0.40723 0.70625 0.0
N1212 N 0.91596 0.33228 0.68483 0.0
C1213 C 0.90373 0.33006 0.70924 0.0
C1214 C 0.91511 0.37059 0.7209 0.0
C1215 C 0.23068 0.97331 0.64522 0.0
C1216 C 0.18223 0.95267 0.6492 0.0
C1217 C 0.26138 0.01407 0.65589 0.0
C1218 C 0.24528 0.03589 0.67146 0.0
H1219 H 0.24525 0.95783 0.63375 0.0
H1220 H 0.29813 0.02845 0.65186 0.0
S1221 S 0.12145 -0.00433 0.68807 0.0
N1222 N 0.11954 0.95775 0.66939 0.0
N1223 N 0.17711 0.03261 0.6907 0.0
C1224 C 0.19696 0.01503 0.6761 0.0
C1225 C 0.16556 0.97396 0.66472 0.0
C1226 C 0.04692 0.25975 0.66005 0.0
C1227 C 0.05141 0.22337 0.65354 0.0
C1228 C 1.0054 0.25424 0.6703 0.0
C1229 C 0.96675 0.21216 0.67444 0.0
H1230 H 0.07547 0.29277 0.65669 0.0
H1231 H 1.00305 0.28322 0.67444 0.0
S1232 S 0.96027 0.10629 0.6593 0.0
N1233 N 0.01399 0.14394 0.65167 0.0
N1234 N 0.93521 0.13343 0.67 0.0
C1235 C 0.97085 0.17545 0.66797 0.0
C1236 C 0.01347 0.18111 0.65787 0.0
C1237 C 0.81174 0.80022 0.63642 0.0
C1238 C 0.78818 0.81698 0.65036 0.0
C1239 C 0.82297 0.77016 0.64705 0.0
C1240 C 0.81125 0.75608 0.67198 0.0
H1241 H 0.82193 0.81073 0.61722 0.0
H1242 H 0.84124 0.75805 0.63575 0.0
S1243 S 0.74486 0.78596 0.71546 0.0
N1244 N 0.75069 0.81483 0.68984 0.0
N1245 N 0.7714 0.75781 0.70959 0.0
C1246 C 0.78688 0.77171 0.68594 0.0
C1247 C 0.77547 0.80236 0.67519 0.0
C1248 C 1.00544 0.80586 0.65973 0.0
C1249 C 0.04226 0.79993 0.65148 0.0
C1250 C 0.96437 0.77053 0.66975 0.0
C1251 C 0.95943 0.7285 0.67231 0.0
H1252 H 1.00754 0.83745 0.65733 0.0
H1253 H 0.93577 0.77572 0.67452 0.0
S1254 S 0.04777 0.69738 0.65624 0.0
N1255 N 0.07242 0.74986 0.64835 0.0
N1256 N 0.99597 0.68391 0.66754 0.0
C1257 C 0.99698 0.72295 0.66531 0.0
C1258 C 0.03828 0.75857 0.6549 0.0
C1259 C 0.24649 0.25581 0.65689 0.0
C1260 C 0.20144 0.22056 0.65272 0.0
C1261 C 0.28194 0.24864 0.66575 0.0
C1262 C 0.27379 0.20598 0.67082 0.0
H1263 H 0.25467 0.28913 0.65266 0.0
H1264 H 0.31642 0.27676 0.66815 0.0
S1265 S 0.16214 0.10273 0.66117 0.0
N1266 N 0.15047 0.14178 0.65365 0.0
N1267 N 0.21731 0.12787 0.66967 0.0
C1268 C 0.22866 0.17045 0.66683 0.0
C1269 C 0.19242 0.1779 0.65801 0.0
C1270 C 0.82051 0.00076 0.63979 0.0
C1271 C 0.79158 0.96092 0.6522 0.0
C1272 C 0.83137 0.04083 0.65057 0.0
C1273 C 0.81361 0.04278 0.67419 0.0
H1274 H 0.83472 0.00093 0.62151 0.0
H1275 H 0.85376 0.0706 0.6401 0.0
S1276 S 0.73388 0.94706 0.71362 0.0
N1277 N 0.74441 0.92518 0.68901 0.0
N1278 N 0.76376 0.0008 0.70909 0.0
C1279 C 0.7845 0.00303 0.68681 0.0
C1280 C 0.77378 0.96204 0.67586 0.0
C1281 C 0.45547 0.35057 0.74435 0.0
C1282 C 0.50393 0.3677 0.74337 0.0
C1283 C 0.4244 0.30945 0.73421 0.0
C1284 C 0.44035 0.28363 0.72253 0.0
H1285 H 0.44134 0.3692 0.75302 0.0
H1286 H 0.3875 0.29797 0.7355 0.0
S1287 S 0.56394 0.31226 0.71638 0.0
N1288 N 0.56639 0.35492 0.73058 0.0
N1289 N 0.50818 0.2777 0.71154 0.0
C1290 C 0.4888 0.30034 0.72144 0.0
C1291 C 0.52048 0.34231 0.73181 0.0
C1292 C 0.67545 0.16111 0.73167 0.0
C1293 C 0.64464 0.11734 0.73897 0.0
C1294 C 0.72099 0.17432 0.72361 0.0
C1295 C 0.73666 0.14393 0.72166 0.0
H1296 H 0.66522 0.1858 0.73358 0.0
H1297 H 0.74466 0.20882 0.7197 0.0
S1298 S 0.66908 0.02519 0.7371 0.0
N1299 N 0.63258 0.0433 0.74256 0.0
N1300 N 0.71796 0.06831 0.72742 0.0
C1301 C 0.70574 0.0999 0.72801 0.0
C1302 C 0.65968 0.0865 0.73647 0.0
C1303 C 0.87419 0.52766 0.75826 0.0
C1304 C 0.89789 0.5101 0.74522 0.0
C1305 C 0.86312 0.55697 0.74658 0.0
C1306 C 0.87498 0.56936 0.72144 0.0
H1307 H 0.86413 0.51867 0.77763 0.0
H1308 H 0.84509 0.57005 0.75729 0.0
S1309 S 0.93999 0.53549 0.67958 0.0
N1310 N 0.93476 0.50894 0.70608 0.0
N1311 N 0.9135 0.56406 0.68422 0.0
C1312 C 0.89862 0.55227 0.70816 0.0
C1313 C 0.91018 0.52257 0.72004 0.0
C1314 C 0.52667 0.96631 0.24094 0.0
C1315 C 0.48159 0.93098 0.24572 0.0
C1316 C 0.53808 0.9895 0.21819 0.0
C1317 C 0.50496 0.97869 0.19913 0.0
H1318 H 0.5532 0.97713 0.25521 0.0
H1319 H 0.57319 0.01668 0.21567 0.0
S1320 S 0.38257 0.88724 0.20139 0.0
N1321 N 0.40422 0.88452 0.22871 0.0
N1322 N 0.42533 0.92909 0.18623 0.0
C1323 C 0.46005 0.94262 0.20327 0.0
C1324 C 0.44842 0.91874 0.22649 0.0
C1325 C 0.02283 0.53229 0.23629 0.0
C1326 C 0.06067 0.52544 0.24013 0.0
C1327 C 0.9968 0.51872 0.21429 0.0
C1328 C 1.00741 0.49758 0.19531 0.0
H1329 H 0.0126 0.54747 0.25061 0.0
H1330 H 0.96812 0.52491 0.21213 0.0
S1331 S 0.10419 0.47318 0.19585 0.0
N1332 N 0.10902 0.49815 0.22262 0.0
N1333 N 0.05865 0.4706 0.18177 0.0
C1334 C 0.04555 0.49096 0.19878 0.0
C1335 C 0.07243 0.50529 0.22107 0.0
C1336 C 0.45535 0.504 0.22616 0.0
C1337 C 0.48672 0.52394 0.24602 0.0
C1338 C 0.46989 0.49477 0.20339 0.0
C1339 C 0.51622 0.50479 0.19979 0.0
H1340 H 0.41939 0.49574 0.22818 0.0
H1341 H 0.44453 0.47888 0.18873 0.0
S1342 S 0.61211 0.5578 0.24561 0.0
N1343 N 0.5662 0.5531 0.26043 0.0
N1344 N 0.59365 0.53727 0.21756 0.0
C1345 C 0.54794 0.52528 0.21934 0.0
C1346 C 0.53318 0.53443 0.24245 0.0
C1347 C 0.94936 0.49018 0.83769 0.0
C1348 C 0.96847 0.47672 0.8185 0.0
C1349 C 0.97389 0.50839 0.85983 0.0
C1350 C 0.01844 0.51403 0.86339 0.0
H1351 H 0.91576 0.48778 0.83523 0.0
H1352 H 0.95887 0.51996 0.87374 0.0
S1353 S 0.08296 0.48217 0.81982 0.0
N1354 N 0.03378 0.46849 0.80521 0.0
N1355 N 0.07984 0.50299 0.84686 0.0
C1356 C 0.03716 0.49917 0.84493 0.0
C1357 C 0.01212 0.48033 0.82247 0.0
C1358 C 0.54088 0.50871 0.81966 0.0
C1359 C 0.54183 0.46953 0.81604 0.0
C1360 C 0.52607 0.51732 0.84238 0.0
C1361 C 0.51169 0.4872 0.86247 0.0
H1362 H 0.55033 0.5324 0.80454 0.0
H1363 H 0.52526 0.54764 0.84411 0.0
S1364 S 0.51108 0.38126 0.86334 0.0
N1365 N 0.53021 0.40168 0.83509 0.0
N1366 N 0.50131 0.41739 0.87764 0.0
C1367 C 0.51404 0.44859 0.85946 0.0
C1368 C 0.52919 0.43981 0.83627 0.0
C1369 C 0.49206 0.01159 0.81578 0.0
C1370 C 0.53586 0.04948 0.81225 0.0
C1371 C 0.48054 0.98719 0.83814 0.0
C1372 C 0.51222 -0.00054 0.85808 0.0
H1373 H 0.46668 1e-05 0.80089 0.0
H1374 H 0.44643 0.95818 0.83976 0.0
S1375 S 0.63082 0.0973 0.85902 0.0
N1376 N 0.61039 0.0994 0.8312 0.0
N1377 N 0.58914 0.05295 0.87301 0.0
C1378 C 0.55582 0.03787 0.85509 0.0
C1379 C 0.56759 0.06284 0.83224 0.0
C1380 C 0.12551 0.26917 0.56015 0.0
C1381 C 0.15877 0.28191 0.57937 0.0
C1382 C 0.1366 0.29137 0.53694 0.0
C1383 C 0.18126 0.32734 0.53216 0.0
H1384 H 0.09058 0.24193 0.5631 0.0
H1385 H 0.10967 0.28116 0.52293 0.0
S1386 S 0.28148 0.3726 0.57556 0.0
N1387 N 0.23854 0.33266 0.59165 0.0
N1388 N 0.25961 0.37285 0.54791 0.0
C1389 C 0.21511 0.33947 0.55089 0.0
C1390 C 0.20383 0.3172 0.57449 0.0
C1391 C 0.73374 0.84252 0.55979 0.0
C1392 C 0.72044 0.86044 0.57946 0.0
C1393 C 0.70956 0.83107 0.53706 0.0
C1394 C 0.6711 0.83699 0.5332 0.0
H1395 H 0.76299 0.83718 0.562 0.0
H1396 H 0.7204 0.81655 0.52264 0.0
S1397 S 0.62333 0.88426 0.57824 0.0
N1398 N 0.66641 0.88381 0.59336 0.0
N1399 N 0.6225 0.86418 0.55033 0.0
C1400 C 0.65823 0.8559 0.55244 0.0
C1401 C 0.68252 0.86719 0.57561 0.0
C1402 C 0.19181 0.86529 0.57099 0.0
C1403 C 0.14516 0.85348 0.5754 0.0
C1404 C 0.20585 0.85569 0.54835 0.0
C1405 C 0.1739 0.83382 0.52906 0.0
H1406 H 0.21767 0.88119 0.58543 0.0
H1407 H 0.24212 0.8652 0.54601 0.0
S1408 S 0.04791 0.79746 0.53052 0.0
N1409 N 0.06723 0.82046 0.55802 0.0
N1410 N 0.09349 0.80149 0.51559 0.0
C1411 C 0.12726 0.82265 0.5329 0.0
C1412 C 0.1129 0.83251 0.55605 0.0
C1413 C 0.67339 0.84611 0.15354 0.0
C1414 C 0.63251 0.80586 0.1494 0.0
C1415 C 0.69651 0.85506 0.17647 0.0
C1416 C 0.67949 0.82421 0.19619 0.0
H1417 H 0.68848 0.87037 0.13865 0.0
H1418 H 0.72833 0.88619 0.17868 0.0
S1419 S 0.57166 0.71527 0.19559 0.0
N1420 N 0.57413 0.73606 0.16746 0.0
N1421 N 0.61807 0.75256 0.21052 0.0
C1422 C 0.63767 0.78447 0.19266 0.0
C1423 C 0.61414 0.77532 0.16925 0.0
C1424 C 0.2288 0.82164 0.16399 0.0
C1425 C 0.19602 0.80117 0.14477 0.0
C1426 C 0.21598 0.83175 0.187 0.0
C1427 C 0.17004 0.82214 0.19148 0.0
H1428 H 0.26463 0.82997 0.16121 0.0
H1429 H 0.24242 0.84825 0.20109 0.0
S1430 S 0.0708 0.76744 0.14781 0.0
N1431 N 0.1155 0.77128 0.13208 0.0
N1432 N 0.09136 0.78917 0.17539 0.0
C1433 C 0.13683 0.80081 0.17268 0.0
C1434 C 0.14981 0.79062 0.14933 0.0
C1435 C 0.22861 0.37972 0.16465 0.0
C1436 C 0.19609 0.36565 0.14501 0.0
C1437 C 0.21819 0.35656 0.18753 0.0
C1438 C 0.17502 0.31814 0.19157 0.0
H1439 H 0.26249 0.40878 0.16228 0.0
H1440 H 0.24461 0.36813 0.20189 0.0
S1441 S 0.07708 0.26852 0.14673 0.0
N1442 N 0.11851 0.31125 0.13152 0.0
N1443 N 0.09868 0.2686 0.17453 0.0
C1444 C 0.14185 0.30446 0.17235 0.0
C1445 C 0.1524 0.32796 0.14912 0.0
C1446 C 0.79185 0.59411 0.89294 0.0
C1447 C 0.82437 0.60351 0.91224 0.0
C1448 C 0.80493 0.61753 0.8701 0.0
C1449 C 0.85095 0.65145 0.86577 0.0
H1450 H 0.75597 0.56853 0.89553 0.0
H1451 H 0.77857 0.60986 0.85602 0.0
S1452 S 0.94982 0.68795 0.90964 0.0
N1453 N 0.90488 0.64908 0.92513 0.0
N1454 N 0.92954 0.69151 0.8821 0.0
C1455 C 0.88396 0.66031 0.88462 0.0
C1456 C 0.87069 0.6368 0.90784 0.0
C1457 C 0.35385 0.20422 0.90592 0.0
C1458 C 0.39034 0.19541 0.90968 0.0
C1459 C 0.32925 0.19365 0.88344 0.0
C1460 C 0.34 0.17368 0.86384 0.0
H1461 H 0.34356 0.21865 0.92066 0.0
H1462 H 0.30147 0.20115 0.88141 0.0
S1463 S 0.43373 0.14518 0.86391 0.0
N1464 N 0.43767 0.16755 0.89148 0.0
N1465 N 0.39002 0.14581 0.84958 0.0
C1466 C 0.37687 0.16521 0.86719 0.0
C1467 C 0.40226 0.17639 0.89004 0.0
C1468 C 0.83125 0.19609 0.89325 0.0
C1469 C 0.81278 0.16623 0.91347 0.0
C1470 C 0.84366 0.18435 0.87069 0.0
C1471 C 0.83824 0.14231 0.86745 0.0
H1472 H 0.83632 0.22891 0.89487 0.0
H1473 H 0.85868 0.20878 0.85589 0.0
S1474 S 0.78882 0.05099 0.91383 0.0
N1475 N 0.78862 0.09218 0.92835 0.0
N1476 N 0.81032 0.06984 0.88569 0.0
C1477 C 0.81852 0.11172 0.88717 0.0
C1478 C 0.80612 0.12369 0.91019 0.0
C1479 C 0.33902 0.12883 0.48581 0.0
C1480 C 0.30191 0.13665 0.48168 0.0
C1481 C 0.36238 0.13873 0.50868 0.0
C1482 C 0.34983 0.15708 0.52838 0.0
H1483 H 0.3507 0.11557 0.47109 0.0
H1484 H 0.39063 0.13195 0.51091 0.0
S1485 S 0.25398 0.18271 0.52752 0.0
N1486 N 0.25223 0.16209 0.49964 0.0
N1487 N 0.29745 0.18242 0.54235 0.0
C1488 C 0.31238 0.16465 0.52468 0.0
C1489 C 0.28827 0.1542 0.50138 0.0
C1490 C 0.87669 0.18124 0.48547 0.0
C1491 C 0.87738 0.14181 0.4824 0.0
C1492 C 0.86203 0.19071 0.50797 0.0
C1493 C 0.84754 0.16121 0.52836 0.0
H1494 H 0.88645 0.20455 0.47013 0.0
H1495 H 0.8617 0.2213 0.50934 0.0
S1496 S 0.84535 0.05453 0.5305 0.0
N1497 N 0.86478 0.07414 0.50216 0.0
N1498 N 0.83605 0.09138 0.54428 0.0
C1499 C 0.8492 0.12216 0.52581 0.0
C1500 C 0.86423 0.11254 0.50287 0.0
C1501 C 0.85627 0.73711 0.50069 0.0
C1502 C 0.87469 0.72364 0.48112 0.0
C1503 C 0.84278 0.71414 0.52361 0.0
C1504 C 0.84678 0.67657 0.52773 0.0
H1505 H 0.85164 0.7653 0.49814 0.0
H1506 H 0.82749 0.72486 0.53784 0.0
S1507 S 0.89554 0.62917 0.48345 0.0
N1508 N 0.89775 0.67104 0.46801 0.0
N1509 N 0.87338 0.62874 0.51116 0.0
C1510 C 0.86676 0.66378 0.50876 0.0
C1511 C 0.88049 0.68707 0.48547 0.0
loop_
_geom_bond_atom_site_label_1
_geom_bond_atom_site_label_2
_geom_bond_distance
_geom_bond_site_symmetry_2
_ccdc_geom_bond_type
H0 C3 0.931 . S
H1 C6 0.928 . S
H2 C8 0.930 . S
C3 H0 0.931 . S
C3 C4 1.413 . S
C3 C5 1.360 . S
C4 C3 1.413 . S
C4 C8 1.429 . S
C5 C3 1.360 . S
C5 C6 1.372 . S
C6 H1 0.928 . S
C6 C5 1.372 . S
C6 C7 1.404 . S
C7 C6 1.404 . S
C7 C8 1.391 . S
C8 H2 0.930 . S
C8 C4 1.429 . S
C8 C7 1.391 . S
H9 C12 0.931 . S
H10 C15 0.928 . S
H11 C17 0.930 . S
C12 H9 0.931 . S
C12 C13 1.413 . S
C12 C14 1.360 . S
C13 C12 1.413 . S
C13 C17 1.429 . S
C14 C12 1.360 . S
C14 C15 1.372 . S
C15 H10 0.928 . S
C15 C14 1.372 . S
C15 C16 1.404 . S
C16 C15 1.404 . S
C16 C17 1.391 . S
C17 H11 0.930 . S
C17 C13 1.429 . S
C17 C16 1.391 . S
H18 C21 0.931 . S
H19 C24 0.928 . S
H20 C26 0.930 . S
C21 H18 0.931 . S
C21 C22 1.413 . S
C21 C23 1.360 . S
C22 C21 1.413 . S
C22 C26 1.429 . S
C23 C21 1.360 . S
C23 C24 1.372 . S
C24 H19 0.928 . S
C24 C23 1.372 . S
C24 C25 1.404 . S
C25 C24 1.404 . S
C25 C26 1.391 . S
C26 H20 0.930 . S
C26 C22 1.429 . S
C26 C25 1.391 . S
H27 C30 0.931 . S
H28 C33 0.928 . S
H29 C35 0.930 . S
C30 H27 0.931 . S
C30 C31 1.413 . S
C30 C32 1.360 . S
C31 C30 1.413 . S
C31 C35 1.429 . S
C32 C30 1.360 . S
C32 C33 1.372 . S
C33 H28 0.928 . S
C33 C32 1.372 . S
C33 C34 1.404 . S
C34 C33 1.404 . S
C34 C35 1.391 . S
C35 H29 0.930 . S
C35 C31 1.429 . S
C35 C34 1.391 . S
H36 C39 0.931 . S
H37 C42 0.928 . S
H38 C44 0.930 . S
C39 H36 0.931 . S
C39 C40 1.413 . S
C39 C41 1.360 . S
C40 C39 1.413 . S
C40 C44 1.429 . S
C41 C39 1.360 . S
C41 C42 1.372 . S
C42 H37 0.928 . S
C42 C41 1.372 . S
C42 C43 1.404 . S
C43 C42 1.404 . S
C43 C44 1.391 . S
C44 H38 0.930 . S
C44 C40 1.429 . S
C44 C43 1.391 . S
H45 C48 0.931 . S
H46 C51 0.928 . S
H47 C53 0.930 . S
C48 H45 0.931 . S
C48 C49 1.413 . S
C48 C50 1.360 . S
C49 C48 1.413 . S
C49 C53 1.429 . S
C50 C48 1.360 . S
C50 C51 1.372 . S
C51 H46 0.928 . S
C51 C50 1.372 . S
C51 C52 1.404 . S
C52 C51 1.404 . S
C52 C53 1.391 . S
C53 H47 0.930 . S
C53 C49 1.429 . S
C53 C52 1.391 . S
H54 C57 0.931 . S
H55 C60 0.928 . S
H56 C62 0.930 . S
C57 H54 0.931 . S
C57 C58 1.413 . S
C57 C59 1.360 . S
C58 C57 1.413 . S
C58 C62 1.429 . S
C59 C57 1.360 . S
C59 C60 1.372 . S
C60 H55 0.928 . S
C60 C59 1.372 . S
C60 C61 1.404 . S
C61 C60 1.404 . S
C61 C62 1.391 . S
C62 H56 0.930 . S
C62 C58 1.429 . S
C62 C61 1.391 . S
H63 C66 0.931 . S
H64 C69 0.928 . S
H65 C71 0.930 . S
C66 H63 0.931 . S
C66 C67 1.413 . S
C66 C68 1.360 . S
C67 C66 1.413 . S
C67 C71 1.429 . S
C68 C66 1.360 . S
C68 C69 1.372 . S
C69 H64 0.928 . S
C69 C68 1.372 . S
C69 C70 1.404 . S
C70 C69 1.404 . S
C70 C71 1.391 . S
C71 H65 0.930 . S
C71 C67 1.429 . S
C71 C70 1.391 . S
H72 C75 0.931 . S
H73 C78 0.928 . S
H74 C80 0.930 . S
C75 H72 0.931 . S
C75 C76 1.413 . S
C75 C77 1.360 . S
C76 C75 1.413 . S
C76 C80 1.429 . S
C77 C75 1.360 . S
C77 C78 1.372 . S
C78 H73 0.928 . S
C78 C77 1.372 . S
C78 C79 1.404 . S
C79 C78 1.404 . S
C79 C80 1.391 . S
C80 H74 0.930 . S
C80 C76 1.429 . S
C80 C79 1.391 . S
H81 C84 0.931 . S
H82 C87 0.928 . S
H83 C89 0.930 . S
C84 H81 0.931 . S
C84 C85 1.413 . S
C84 C86 1.360 . S
C85 C84 1.413 . S
C85 C89 1.429 . S
C86 C84 1.360 . S
C86 C87 1.372 . S
C87 H82 0.928 . S
C87 C86 1.372 . S
C87 C88 1.404 . S
C88 C87 1.404 . S
C88 C89 1.391 . S
C89 H83 0.930 . S
C89 C85 1.429 . S
C89 C88 1.391 . S
H90 C93 0.931 . S
H91 C96 0.928 . S
H92 C98 0.930 . S
C93 H90 0.931 . S
C93 C94 1.413 . S
C93 C95 1.360 . S
C94 C93 1.413 . S
C94 C98 1.429 . S
C95 C93 1.360 . S
C95 C96 1.372 . S
C96 H91 0.928 . S
C96 C95 1.372 . S
C96 C97 1.404 . S
C97 C96 1.404 . S
C97 C98 1.391 . S
C98 H92 0.930 . S
C98 C94 1.429 . S
C98 C97 1.391 . S
H99 C102 0.931 . S
H100 C105 0.928 . S
H101 C107 0.930 . S
C102 H99 0.931 . S
C102 C103 1.413 . S
C102 C104 1.360 . S
C103 C102 1.413 . S
C103 C107 1.429 . S
C104 C102 1.360 . S
C104 C105 1.372 . S
C105 H100 0.928 . S
C105 C104 1.372 . S
C105 C106 1.404 . S
C106 C105 1.404 . S
C106 C107 1.391 . S
C107 H101 0.930 . S
C107 C103 1.429 . S
C107 C106 1.391 . S
H108 C111 0.931 . S
H109 C114 0.928 . S
H110 C116 0.930 . S
C111 H108 0.931 . S
C111 C112 1.413 . S
C111 C113 1.360 . S
C112 C111 1.413 . S
C112 C116 1.429 . S
C113 C111 1.360 . S
C113 C114 1.372 . S
C114 H109 0.928 . S
C114 C113 1.372 . S
C114 C115 1.404 . S
C115 C114 1.404 . S
C115 C116 1.391 . S
C116 H110 0.930 . S
C116 C112 1.429 . S
C116 C115 1.391 . S
H117 C120 0.931 . S
H118 C123 0.928 . S
H119 C125 0.930 . S
C120 H117 0.931 . S
C120 C121 1.413 . S
C120 C122 1.360 . S
C121 C120 1.413 . S
C121 C125 1.429 . S
C122 C120 1.360 . S
C122 C123 1.372 . S
C123 H118 0.928 . S
C123 C122 1.372 . S
C123 C124 1.404 . S
C124 C123 1.404 . S
C124 C125 1.391 . S
C125 H119 0.930 . S
C125 C121 1.429 . S
C125 C124 1.391 . S
H126 C129 0.931 . S
H127 C132 0.928 . S
H128 C134 0.930 . S
C129 H126 0.931 . S
C129 C130 1.413 . S
C129 C131 1.360 . S
C130 C129 1.413 . S
C130 C134 1.429 . S
C131 C129 1.360 . S
C131 C132 1.372 . S
C132 H127 0.928 . S
C132 C131 1.372 . S
C132 C133 1.404 . S
C133 C132 1.404 . S
C133 C134 1.391 . S
C134 H128 0.930 . S
C134 C130 1.429 . S
C134 C133 1.391 . S
H135 C138 0.931 . S
H136 C141 0.928 . S
H137 C143 0.930 . S
C138 H135 0.931 . S
C138 C139 1.413 . S
C138 C140 1.360 . S
C139 C138 1.413 . S
C139 C143 1.429 . S
C140 C138 1.360 . S
C140 C141 1.372 . S
C141 H136 0.928 . S
C141 C140 1.372 . S
C141 C142 1.404 . S
C142 C141 1.404 . S
C142 C143 1.391 . S
C143 H137 0.930 . S
C143 C139 1.429 . S
C143 C142 1.391 . S
H144 C147 0.931 . S
H145 C150 0.928 . S
H146 C152 0.930 . S
C147 H144 0.931 . S
C147 C148 1.413 . S
C147 C149 1.360 . S
C148 C147 1.413 . S
C148 C152 1.429 . S
C149 C147 1.360 . S
C149 C150 1.372 . S
C150 H145 0.928 . S
C150 C149 1.372 . S
C150 C151 1.404 . S
C151 C150 1.404 . S
C151 C152 1.391 . S
C152 H146 0.930 . S
C152 C148 1.429 . S
C152 C151 1.391 . S
H153 C156 0.931 . S
H154 C159 0.928 . S
H155 C161 0.930 . S
C156 H153 0.931 . S
C156 C157 1.413 . S
C156 C158 1.360 . S
C157 C156 1.413 . S
C157 C161 1.429 . S
C158 C156 1.360 . S
C158 C159 1.372 . S
C159 H154 0.928 . S
C159 C158 1.372 . S
C159 C160 1.404 . S
C160 C159 1.404 . S
C160 C161 1.391 . S
C161 H155 0.930 . S
C161 C157 1.429 . S
C161 C160 1.391 . S
Tb162 N193 2.660 . S
Tb162 N200 2.600 . S
Tb162 O206 2.546 . S
Tb162 O207 2.610 1_565 S
Tb162 O209 2.320 1_565 S
Tb162 O210 2.552 1_565 S
Tb162 O211 2.413 . S
Tb162 O213 2.362 1_556 S
Tb162 O214 2.421 . S
Tb162 C226 2.833 . S
C163 C166 1.432 . S
C163 C167 1.414 . S
C163 N170 1.359 . S
C164 C166 1.417 . S
C164 C168 1.432 . S
C164 C176 1.410 . S
C165 C167 1.444 . S
C165 C168 1.317 . S
C165 H188 0.929 . S
C166 C163 1.432 . S
C166 C164 1.417 . S
C166 N174 1.360 . S
C167 C163 1.414 . S
C167 C165 1.444 . S
C167 C172 1.385 . S
C168 C164 1.432 . S
C168 C165 1.317 . S
C168 H180 0.930 . S
C169 C171 1.392 . S
C169 C172 1.370 . S
C169 H181 0.931 . S
N170 C163 1.359 . S
N170 C171 1.327 . S
N170 Tb173 2.600 . S
C171 C169 1.392 . S
C171 N170 1.327 . S
C171 H178 0.930 . S
C172 C167 1.385 . S
C172 C169 1.370 . S
C172 H191 0.930 . S
Tb173 N170 2.600 . S
Tb173 N174 2.660 . S
Tb173 O207 2.362 1_554 S
Tb173 O208 2.421 . S
Tb173 O212 2.546 . S
Tb173 O213 2.610 1_545 S
Tb173 O215 2.320 1_545 S
Tb173 O216 2.552 1_545 S
Tb173 O217 2.413 . S
Tb173 C237 2.833 . S
N174 C166 1.360 . S
N174 Tb173 2.660 . S
N174 C175 1.305 . S
C175 N174 1.305 . S
C175 C177 1.407 . S
C175 H182 0.930 . S
C176 C164 1.410 . S
C176 C177 1.345 . S
C176 H184 0.930 . S
C177 C175 1.407 . S
C177 C176 1.345 . S
C177 H179 0.930 . S
H178 C171 0.930 . S
H179 C177 0.930 . S
H180 C168 0.930 . S
H181 C169 0.931 . S
H182 C175 0.930 . S
H183 C197 0.930 . S
H184 C176 0.930 . S
H185 C203 0.930 . S
H186 C194 0.930 . S
H187 C201 0.931 . S
H188 C165 0.929 . S
H189 C195 0.930 . S
H190 C228 0.930 . S
H191 C172 0.930 . S
H192 C227 0.929 . S
N193 Tb162 2.660 . S
N193 C194 1.305 . S
N193 C198 1.360 . S
C194 H186 0.930 . S
C194 N193 1.305 . S
C194 C197 1.407 . S
C195 H189 0.930 . S
C195 C196 1.410 . S
C195 C197 1.345 . S
C196 C195 1.410 . S
C196 C198 1.417 . S
C196 C228 1.432 . S
C197 H183 0.930 . S
C197 C194 1.407 . S
C197 C195 1.345 . S
C198 N193 1.360 . S
C198 C196 1.417 . S
C198 C202 1.432 . S
H199 C204 0.930 . S
N200 Tb162 2.600 . S
N200 C202 1.359 . S
N200 C203 1.327 . S
C201 H187 0.931 . S
C201 C203 1.392 . S
C201 C204 1.370 . S
C202 C198 1.432 . S
C202 N200 1.359 . S
C202 C205 1.414 . S
C203 H185 0.930 . S
C203 N200 1.327 . S
C203 C201 1.392 . S
C204 H199 0.930 . S
C204 C201 1.370 . S
C204 C205 1.385 . S
C205 C202 1.414 . S
C205 C204 1.385 . S
C205 C227 1.444 . S
O206 Tb162 2.546 . S
O206 C226 1.251 . S
O207 Tb162 2.610 1_545 S
O207 Tb173 2.362 1_556 S
O207 C218 1.283 . S
O208 Tb173 2.421 . S
O208 C225 1.262 1_554 S
O209 Tb162 2.320 1_545 S
O209 C225 1.260 . S
O210 Tb162 2.552 1_545 S
O210 C218 1.243 . S
O211 Tb162 2.413 . S
O211 C226 1.256 . S
O212 Tb173 2.546 . S
O212 C237 1.251 . S
O213 Tb162 2.362 1_554 S
O213 Tb173 2.610 1_565 S
O213 C229 1.283 . S
O214 Tb162 2.421 . S
O214 C236 1.262 1_556 S
O215 Tb173 2.320 1_565 S
O215 C236 1.260 . S
O216 Tb173 2.552 1_565 S
O216 C229 1.243 . S
O217 Tb173 2.413 . S
O217 C237 1.256 . S
C218 O207 1.283 . S
C218 O210 1.243 . S
C219 C221 1.382 1_565 S
C219 C223 1.393 . S
C219 C226 1.500 . S
C220 C221 1.400 . S
C220 C222 1.384 1_545 S
C221 C219 1.382 1_545 S
C221 C220 1.400 . S
C221 H238 0.930 . S
C222 C220 1.384 1_565 S
C222 C224 1.392 . S
C222 H239 0.931 . S
C223 C219 1.393 . S
C223 C224 1.401 . S
C223 H240 0.930 . S
C224 C222 1.392 . S
C224 C223 1.401 . S
C224 H241 0.930 . S
C225 O208 1.262 1_556 S
C225 O209 1.260 . S
C226 Tb162 2.833 . S
C226 O206 1.251 . S
C226 O211 1.256 . S
C226 C219 1.500 . S
C227 H192 0.929 . S
C227 C205 1.444 . S
C227 C228 1.317 . S
C228 H190 0.930 . S
C228 C196 1.432 . S
C228 C227 1.317 . S
C229 O213 1.283 . S
C229 O216 1.243 . S
C230 C231 1.382 1_545 S
C230 C234 1.393 . S
C230 C237 1.500 . S
C231 C230 1.382 1_565 S
C231 C232 1.400 . S
C231 H242 0.930 . S
C232 C231 1.400 . S
C232 C233 1.384 1_565 S
C233 C232 1.384 1_545 S
C233 C235 1.392 . S
C233 H243 0.931 . S
C234 C230 1.393 . S
C234 C235 1.401 . S
C234 H244 0.930 . S
C235 C233 1.392 . S
C235 C234 1.401 . S
C235 H245 0.930 . S
C236 O214 1.262 1_554 S
C236 O215 1.260 . S
C237 Tb173 2.833 . S
C237 O212 1.251 . S
C237 O217 1.256 . S
C237 C230 1.500 . S
H238 C221 0.930 . S
H239 C222 0.931 . S
H240 C223 0.930 . S
H241 C224 0.930 . S
H242 C231 0.930 . S
H243 C233 0.931 . S
H244 C234 0.930 . S
H245 C235 0.930 . S
Tb246 N277 2.660 . S
Tb246 N284 2.600 . S
Tb246 O290 2.546 . S
Tb246 O291 2.610 1_455 S
Tb246 O293 2.320 1_455 S
Tb246 O294 2.552 1_455 S
Tb246 O295 2.413 . S
Tb246 O297 2.362 1_556 S
Tb246 O298 2.421 . S
Tb246 C310 2.833 . S
C247 C250 1.432 . S
C247 C251 1.414 . S
C247 N254 1.359 . S
C248 C250 1.417 . S
C248 C252 1.432 . S
C248 C260 1.410 . S
C249 C251 1.444 . S
C249 C252 1.317 . S
C249 H272 0.929 . S
C250 C247 1.432 . S
C250 C248 1.417 . S
C250 N258 1.360 . S
C251 C247 1.414 . S
C251 C249 1.444 . S
C251 C256 1.385 . S
C252 C248 1.432 . S
C252 C249 1.317 . S
C252 H264 0.930 . S
C253 C255 1.392 . S
C253 C256 1.370 . S
C253 H265 0.931 . S
N254 C247 1.359 . S
N254 C255 1.327 . S
N254 Tb257 2.600 . S
C255 C253 1.392 . S
C255 N254 1.327 . S
C255 H262 0.930 . S
C256 C251 1.385 . S
C256 C253 1.370 . S
C256 H275 0.930 . S
Tb257 N254 2.600 . S
Tb257 N258 2.660 . S
Tb257 O291 2.362 1_554 S
Tb257 O292 2.421 . S
Tb257 O296 2.546 . S
Tb257 O297 2.610 1_655 S
Tb257 O299 2.320 1_655 S
Tb257 O300 2.552 1_655 S
Tb257 O301 2.413 . S
Tb257 C321 2.833 . S
N258 C250 1.360 . S
N258 Tb257 2.660 . S
N258 C259 1.305 . S
C259 N258 1.305 . S
C259 C261 1.407 . S
C259 H266 0.930 . S
C260 C248 1.410 . S
C260 C261 1.345 . S
C260 H268 0.930 . S
C261 C259 1.407 . S
C261 C260 1.345 . S
C261 H263 0.930 . S
H262 C255 0.930 . S
H263 C261 0.930 . S
H264 C252 0.930 . S
H265 C253 0.931 . S
H266 C259 0.930 . S
H267 C281 0.930 . S
H268 C260 0.930 . S
H269 C287 0.930 . S
H270 C278 0.930 . S
H271 C285 0.931 . S
H272 C249 0.929 . S
H273 C279 0.930 . S
H274 C312 0.930 . S
H275 C256 0.930 . S
H276 C311 0.929 . S
N277 Tb246 2.660 . S
N277 C278 1.305 . S
N277 C282 1.360 . S
C278 H270 0.930 . S
C278 N277 1.305 . S
C278 C281 1.407 . S
C279 H273 0.930 . S
C279 C280 1.410 . S
C279 C281 1.345 . S
C280 C279 1.410 . S
C280 C282 1.417 . S
C280 C312 1.432 . S
C281 H267 0.930 . S
C281 C278 1.407 . S
C281 C279 1.345 . S
C282 N277 1.360 . S
C282 C280 1.417 . S
C282 C286 1.432 . S
H283 C288 0.930 . S
N284 Tb246 2.600 . S
N284 C286 1.359 . S
N284 C287 1.327 . S
C285 H271 0.931 . S
C285 C287 1.392 . S
C285 C288 1.370 . S
C286 C282 1.432 . S
C286 N284 1.359 . S
C286 C289 1.414 . S
C287 H269 0.930 . S
C287 N284 1.327 . S
C287 C285 1.392 . S
C288 H283 0.930 . S
C288 C285 1.370 . S
C288 C289 1.385 . S
C289 C286 1.414 . S
C289 C288 1.385 . S
C289 C311 1.444 . S
O290 Tb246 2.546 . S
O290 C310 1.251 . S
O291 Tb246 2.610 1_655 S
O291 Tb257 2.362 1_556 S
O291 C302 1.283 . S
O292 Tb257 2.421 . S
O292 C309 1.262 1_554 S
O293 Tb246 2.320 1_655 S
O293 C309 1.260 . S
O294 Tb246 2.552 1_655 S
O294 C302 1.243 . S
O295 Tb246 2.413 . S
O295 C310 1.256 . S
O296 Tb257 2.546 . S
O296 C321 1.251 . S
O297 Tb246 2.362 1_554 S
O297 Tb257 2.610 1_455 S
O297 C313 1.283 . S
O298 Tb246 2.421 . S
O298 C320 1.262 1_556 S
O299 Tb257 2.320 1_455 S
O299 C320 1.260 . S
O300 Tb257 2.552 1_455 S
O300 C313 1.243 . S
O301 Tb257 2.413 . S
O301 C321 1.256 . S
C302 O291 1.283 . S
C302 O294 1.243 . S
C303 C305 1.382 1_455 S
C303 C307 1.393 . S
C303 C310 1.500 . S
C304 C305 1.400 . S
C304 C306 1.384 1_655 S
C305 C303 1.382 1_655 S
C305 C304 1.400 . S
C305 H322 0.930 . S
C306 C304 1.384 1_455 S
C306 C308 1.392 . S
C306 H323 0.931 . S
C307 C303 1.393 . S
C307 C308 1.401 . S
C307 H324 0.930 . S
C308 C306 1.392 . S
C308 C307 1.401 . S
C308 H325 0.930 . S
C309 O292 1.262 1_556 S
C309 O293 1.260 . S
C310 Tb246 2.833 . S
C310 O290 1.251 . S
C310 O295 1.256 . S
C310 C303 1.500 . S
C311 H276 0.929 . S
C311 C289 1.444 . S
C311 C312 1.317 . S
C312 H274 0.930 . S
C312 C280 1.432 . S
C312 C311 1.317 . S
C313 O297 1.283 . S
C313 O300 1.243 . S
C314 C315 1.382 1_655 S
C314 C318 1.393 . S
C314 C321 1.500 . S
C315 C314 1.382 1_455 S
C315 C316 1.400 . S
C315 H326 0.930 . S
C316 C315 1.400 . S
C316 C317 1.384 1_455 S
C317 C316 1.384 1_655 S
C317 C319 1.392 . S
C317 H327 0.931 . S
C318 C314 1.393 . S
C318 C319 1.401 . S
C318 H328 0.930 . S
C319 C317 1.392 . S
C319 C318 1.401 . S
C319 H329 0.930 . S
C320 O298 1.262 1_554 S
C320 O299 1.260 . S
C321 Tb257 2.833 . S
C321 O296 1.251 . S
C321 O301 1.256 . S
C321 C314 1.500 . S
H322 C305 0.930 . S
H323 C306 0.931 . S
H324 C307 0.930 . S
H325 C308 0.930 . S
H326 C315 0.930 . S
H327 C317 0.931 . S
H328 C318 0.930 . S
H329 C319 0.930 . S
Tb330 N361 2.660 . S
Tb330 N368 2.600 . S
Tb330 O374 2.546 . S
Tb330 O375 2.610 . S
Tb330 O377 2.320 . S
Tb330 O378 2.552 . S
Tb330 O379 2.413 . S
Tb330 O381 2.362 1_554 S
Tb330 O382 2.421 . S
Tb330 C394 2.833 . S
C331 C334 1.432 . S
C331 C335 1.414 . S
C331 N338 1.359 . S
C332 C334 1.417 . S
C332 C336 1.432 . S
C332 C344 1.410 . S
C333 C335 1.444 . S
C333 C336 1.317 . S
C333 H356 0.929 . S
C334 C331 1.432 . S
C334 C332 1.417 . S
C334 N342 1.360 . S
C335 C331 1.414 . S
C335 C333 1.444 . S
C335 C340 1.385 . S
C336 C332 1.432 . S
C336 C333 1.317 . S
C336 H348 0.930 . S
C337 C339 1.392 . S
C337 C340 1.370 . S
C337 H349 0.931 . S
N338 C331 1.359 . S
N338 C339 1.327 . S
N338 Tb341 2.600 . S
C339 C337 1.392 . S
C339 N338 1.327 . S
C339 H346 0.930 . S
C340 C335 1.385 . S
C340 C337 1.370 . S
C340 H359 0.930 . S
Tb341 N338 2.600 . S
Tb341 N342 2.660 . S
Tb341 O375 2.362 1_556 S
Tb341 O376 2.421 . S
Tb341 O380 2.546 . S
Tb341 O381 2.610 . S
Tb341 O383 2.320 . S
Tb341 O384 2.552 . S
Tb341 O385 2.413 . S
Tb341 C405 2.833 . S
N342 C334 1.360 . S
N342 Tb341 2.660 . S
N342 C343 1.305 . S
C343 N342 1.305 . S
C343 C345 1.407 . S
C343 H350 0.930 . S
C344 C332 1.410 . S
C344 C345 1.345 . S
C344 H352 0.930 . S
C345 C343 1.407 . S
C345 C344 1.345 . S
C345 H347 0.930 . S
H346 C339 0.930 . S
H347 C345 0.930 . S
H348 C336 0.930 . S
H349 C337 0.931 . S
H350 C343 0.930 . S
H351 C365 0.930 . S
H352 C344 0.930 . S
H353 C371 0.930 . S
H354 C362 0.930 . S
H355 C369 0.931 . S
H356 C333 0.929 . S
H357 C363 0.930 . S
H358 C396 0.930 . S
H359 C340 0.930 . S
H360 C395 0.929 . S
N361 Tb330 2.660 . S
N361 C362 1.305 . S
N361 C366 1.360 . S
C362 H354 0.930 . S
C362 N361 1.305 . S
C362 C365 1.407 . S
C363 H357 0.930 . S
C363 C364 1.410 . S
C363 C365 1.345 . S
C364 C363 1.410 . S
C364 C366 1.417 . S
C364 C396 1.432 . S
C365 H351 0.930 . S
C365 C362 1.407 . S
C365 C363 1.345 . S
C366 N361 1.360 . S
C366 C364 1.417 . S
C366 C370 1.432 . S
H367 C372 0.930 . S
N368 Tb330 2.600 . S
N368 C370 1.359 . S
N368 C371 1.327 . S
C369 H355 0.931 . S
C369 C371 1.392 . S
C369 C372 1.370 . S
C370 C366 1.432 . S
C370 N368 1.359 . S
C370 C373 1.414 . S
C371 H353 0.930 . S
C371 N368 1.327 . S
C371 C369 1.392 . S
C372 H367 0.930 . S
C372 C369 1.370 . S
C372 C373 1.385 . S
C373 C370 1.414 . S
C373 C372 1.385 . S
C373 C395 1.444 . S
O374 Tb330 2.546 . S
O374 C394 1.251 . S
O375 Tb330 2.610 . S
O375 Tb341 2.362 1_554 S
O375 C386 1.283 . S
O376 Tb341 2.421 . S
O376 C393 1.262 1_556 S
O377 Tb330 2.320 . S
O377 C393 1.260 . S
O378 Tb330 2.552 . S
O378 C386 1.243 . S
O379 Tb330 2.413 . S
O379 C394 1.256 . S
O380 Tb341 2.546 . S
O380 C405 1.251 . S
O381 Tb330 2.362 1_556 S
O381 Tb341 2.610 . S
O381 C397 1.283 . S
O382 Tb330 2.421 . S
O382 C404 1.262 1_554 S
O383 Tb341 2.320 . S
O383 C404 1.260 . S
O384 Tb341 2.552 . S
O384 C397 1.243 . S
O385 Tb341 2.413 . S
O385 C405 1.256 . S
C386 O375 1.283 . S
C386 O378 1.243 . S
C387 C389 1.382 . S
C387 C391 1.393 . S
C387 C394 1.500 . S
C388 C389 1.400 . S
C388 C390 1.384 . S
C389 C387 1.382 . S
C389 C388 1.400 . S
C389 H406 0.930 . S
C390 C388 1.384 . S
C390 C392 1.392 . S
C390 H407 0.931 . S
C391 C387 1.393 . S
C391 C392 1.401 . S
C391 H408 0.930 . S
C392 C390 1.392 . S
C392 C391 1.401 . S
C392 H409 0.930 . S
C393 O376 1.262 1_554 S
C393 O377 1.260 . S
C394 Tb330 2.833 . S
C394 O374 1.251 . S
C394 O379 1.256 . S
C394 C387 1.500 . S
C395 H360 0.929 . S
C395 C373 1.444 . S
C395 C396 1.317 . S
C396 H358 0.930 . S
C396 C364 1.432 . S
C396 C395 1.317 . S
C397 O381 1.283 . S
C397 O384 1.243 . S
C398 C399 1.382 . S
C398 C402 1.393 . S
C398 C405 1.500 . S
C399 C398 1.382 . S
C399 C400 1.400 . S
C399 H410 0.930 . S
C400 C399 1.400 . S
C400 C401 1.384 . S
C401 C400 1.384 . S
C401 C403 1.392 . S
C401 H411 0.931 . S
C402 C398 1.393 . S
C402 C403 1.401 . S
C402 H412 0.930 . S
C403 C401 1.392 . S
C403 C402 1.401 . S
C403 H413 0.930 . S
C404 O382 1.262 1_556 S
C404 O383 1.260 . S
C405 Tb341 2.833 . S
C405 O380 1.251 . S
C405 O385 1.256 . S
C405 C398 1.500 . S
H406 C389 0.930 . S
H407 C390 0.931 . S
H408 C391 0.930 . S
H409 C392 0.930 . S
H410 C399 0.930 . S
H411 C401 0.931 . S
H412 C402 0.930 . S
H413 C403 0.930 . S
Tb414 N445 2.660 . S
Tb414 N452 2.600 . S
Tb414 O458 2.546 . S
Tb414 O459 2.610 . S
Tb414 O461 2.320 . S
Tb414 O462 2.552 . S
Tb414 O463 2.413 . S
Tb414 O465 2.362 . S
Tb414 O466 2.421 . S
Tb414 C478 2.833 . S
C415 C418 1.432 . S
C415 C419 1.414 . S
C415 N422 1.359 . S
C416 C418 1.417 . S
C416 C420 1.432 . S
C416 C428 1.410 . S
C417 C419 1.444 . S
C417 C420 1.317 . S
C417 H440 0.929 . S
C418 C415 1.432 . S
C418 C416 1.417 . S
C418 N426 1.360 . S
C419 C415 1.414 . S
C419 C417 1.444 . S
C419 C424 1.385 . S
C420 C416 1.432 . S
C420 C417 1.317 . S
C420 H432 0.930 . S
C421 C423 1.392 . S
C421 C424 1.370 . S
C421 H433 0.931 . S
N422 C415 1.359 . S
N422 C423 1.327 . S
N422 Tb425 2.600 . S
C423 C421 1.392 . S
C423 N422 1.327 . S
C423 H430 0.930 . S
C424 C419 1.385 . S
C424 C421 1.370 . S
C424 H443 0.930 . S
Tb425 N422 2.600 . S
Tb425 N426 2.660 . S
Tb425 O459 2.362 . S
Tb425 O460 2.421 . S
Tb425 O464 2.546 . S
Tb425 O465 2.610 . S
Tb425 O467 2.320 . S
Tb425 O468 2.552 . S
Tb425 O469 2.413 . S
Tb425 C489 2.833 . S
N426 C418 1.360 . S
N426 Tb425 2.660 . S
N426 C427 1.305 . S
C427 N426 1.305 . S
C427 C429 1.407 . S
C427 H434 0.930 . S
C428 C416 1.410 . S
C428 C429 1.345 . S
C428 H436 0.930 . S
C429 C427 1.407 . S
C429 C428 1.345 . S
C429 H431 0.930 . S
H430 C423 0.930 . S
H431 C429 0.930 . S
H432 C420 0.930 . S
H433 C421 0.931 . S
H434 C427 0.930 . S
H435 C449 0.930 . S
H436 C428 0.930 . S
H437 C455 0.930 . S
H438 C446 0.930 . S
H439 C453 0.931 . S
H440 C417 0.929 . S
H441 C447 0.930 . S
H442 C480 0.930 . S
H443 C424 0.930 . S
H444 C479 0.929 . S
N445 Tb414 2.660 . S
N445 C446 1.305 . S
N445 C450 1.360 . S
C446 H438 0.930 . S
C446 N445 1.305 . S
C446 C449 1.407 1_455 S
C447 H441 0.930 . S
C447 C448 1.410 . S
C447 C449 1.345 . S
C448 C447 1.410 . S
C448 C450 1.417 1_655 S
C448 C480 1.432 . S
C449 H435 0.930 . S
C449 C446 1.407 1_655 S
C449 C447 1.345 . S
C450 N445 1.360 . S
C450 C448 1.417 1_455 S
C450 C454 1.432 . S
H451 C456 0.930 . S
N452 Tb414 2.600 . S
N452 C454 1.359 . S
N452 C455 1.327 . S
C453 H439 0.931 . S
C453 C455 1.392 . S
C453 C456 1.370 . S
C454 C450 1.432 . S
C454 N452 1.359 . S
C454 C457 1.414 . S
C455 H437 0.930 . S
C455 N452 1.327 . S
C455 C453 1.392 . S
C456 H451 0.930 . S
C456 C453 1.370 . S
C456 C457 1.385 . S
C457 C454 1.414 . S
C457 C456 1.385 . S
C457 C479 1.444 1_455 S
O458 Tb414 2.546 . S
O458 C478 1.251 . S
O459 Tb414 2.610 . S
O459 Tb425 2.362 . S
O459 C470 1.283 . S
O460 Tb425 2.421 . S
O460 C477 1.262 . S
O461 Tb414 2.320 . S
O461 C477 1.260 . S
O462 Tb414 2.552 . S
O462 C470 1.243 . S
O463 Tb414 2.413 . S
O463 C478 1.256 . S
O464 Tb425 2.546 . S
O464 C489 1.251 . S
O465 Tb414 2.362 . S
O465 Tb425 2.610 . S
O465 C481 1.283 . S
O466 Tb414 2.421 . S
O466 C488 1.262 . S
O467 Tb425 2.320 . S
O467 C488 1.260 . S
O468 Tb425 2.552 . S
O468 C481 1.243 . S
O469 Tb425 2.413 . S
O469 C489 1.256 . S
C470 O459 1.283 . S
C470 O462 1.243 . S
C471 C473 1.382 . S
C471 C475 1.393 . S
C471 C478 1.500 . S
C472 C473 1.400 . S
C472 C474 1.384 . S
C473 C471 1.382 . S
C473 C472 1.400 . S
C473 H490 0.930 . S
C474 C472 1.384 . S
C474 C476 1.392 . S
C474 H491 0.931 . S
C475 C471 1.393 . S
C475 C476 1.401 . S
C475 H492 0.930 . S
C476 C474 1.392 . S
C476 C475 1.401 . S
C476 H493 0.930 . S
C477 O460 1.262 . S
C477 O461 1.260 . S
C478 Tb414 2.833 . S
C478 O458 1.251 . S
C478 O463 1.256 . S
C478 C471 1.500 . S
C479 H444 0.929 . S
C479 C457 1.444 1_655 S
C479 C480 1.317 . S
C480 H442 0.930 . S
C480 C448 1.432 . S
C480 C479 1.317 . S
C481 O465 1.283 . S
C481 O468 1.243 . S
C482 C483 1.382 . S
C482 C486 1.393 . S
C482 C489 1.500 . S
C483 C482 1.382 . S
C483 C484 1.400 . S
C483 H494 0.930 . S
C484 C483 1.400 . S
C484 C485 1.384 . S
C485 C484 1.384 . S
C485 C487 1.392 . S
C485 H495 0.931 . S
C486 C482 1.393 . S
C486 C487 1.401 . S
C486 H496 0.930 . S
C487 C485 1.392 . S
C487 C486 1.401 . S
C487 H497 0.930 . S
C488 O466 1.262 . S
C488 O467 1.260 . S
C489 Tb425 2.833 . S
C489 O464 1.251 . S
C489 O469 1.256 . S
C489 C482 1.500 . S
H490 C473 0.930 . S
H491 C474 0.931 . S
H492 C475 0.930 . S
H493 C476 0.930 . S
H494 C483 0.930 . S
H495 C485 0.931 . S
H496 C486 0.930 . S
H497 C487 0.930 . S
Tb498 N529 2.660 . S
Tb498 N536 2.600 . S
Tb498 O542 2.546 . S
Tb498 O543 2.610 . S
Tb498 O545 2.320 . S
Tb498 O546 2.552 . S
Tb498 O547 2.413 . S
Tb498 O549 2.362 . S
Tb498 O550 2.421 . S
Tb498 C562 2.833 . S
C499 C502 1.432 . S
C499 C503 1.414 . S
C499 N506 1.359 . S
C500 C502 1.417 . S
C500 C504 1.432 . S
C500 C512 1.410 . S
C501 C503 1.444 . S
C501 C504 1.317 . S
C501 H524 0.929 . S
C502 C499 1.432 . S
C502 C500 1.417 . S
C502 N510 1.360 . S
C503 C499 1.414 . S
C503 C501 1.444 . S
C503 C508 1.385 . S
C504 C500 1.432 . S
C504 C501 1.317 . S
C504 H516 0.930 . S
C505 C507 1.392 . S
C505 C508 1.370 . S
C505 H517 0.931 . S
N506 C499 1.359 . S
N506 C507 1.327 . S
N506 Tb509 2.600 . S
C507 C505 1.392 . S
C507 N506 1.327 . S
C507 H514 0.930 . S
C508 C503 1.385 . S
C508 C505 1.370 . S
C508 H527 0.930 . S
Tb509 N506 2.600 . S
Tb509 N510 2.660 . S
Tb509 O543 2.362 . S
Tb509 O544 2.421 . S
Tb509 O548 2.546 . S
Tb509 O549 2.610 . S
Tb509 O551 2.320 . S
Tb509 O552 2.552 . S
Tb509 O553 2.413 . S
Tb509 C573 2.833 . S
N510 C502 1.360 . S
N510 Tb509 2.660 . S
N510 C511 1.305 . S
C511 N510 1.305 . S
C511 C513 1.407 . S
C511 H518 0.930 . S
C512 C500 1.410 . S
C512 C513 1.345 . S
C512 H520 0.930 . S
C513 C511 1.407 . S
C513 C512 1.345 . S
C513 H515 0.930 . S
H514 C507 0.930 . S
H515 C513 0.930 . S
H516 C504 0.930 . S
H517 C505 0.931 . S
H518 C511 0.930 . S
H519 C533 0.930 . S
H520 C512 0.930 . S
H521 C539 0.930 . S
H522 C530 0.930 . S
H523 C537 0.931 . S
H524 C501 0.929 . S
H525 C531 0.930 . S
H526 C564 0.930 . S
H527 C508 0.930 . S
H528 C563 0.929 . S
N529 Tb498 2.660 . S
N529 C530 1.305 . S
N529 C534 1.360 . S
C530 H522 0.930 . S
C530 N529 1.305 . S
C530 C533 1.407 . S
C531 H525 0.930 . S
C531 C532 1.410 . S
C531 C533 1.345 . S
C532 C531 1.410 . S
C532 C534 1.417 . S
C532 C564 1.432 . S
C533 H519 0.930 . S
C533 C530 1.407 . S
C533 C531 1.345 . S
C534 N529 1.360 . S
C534 C532 1.417 . S
C534 C538 1.432 . S
H535 C540 0.930 . S
N536 Tb498 2.600 . S
N536 C538 1.359 . S
N536 C539 1.327 . S
C537 H523 0.931 . S
C537 C539 1.392 . S
C537 C540 1.370 . S
C538 C534 1.432 . S
C538 N536 1.359 . S
C538 C541 1.414 . S
C539 H521 0.930 . S
C539 N536 1.327 . S
C539 C537 1.392 . S
C540 H535 0.930 . S
C540 C537 1.370 . S
C540 C541 1.385 . S
C541 C538 1.414 . S
C541 C540 1.385 . S
C541 C563 1.444 . S
O542 Tb498 2.546 . S
O542 C562 1.251 . S
O543 Tb498 2.610 . S
O543 Tb509 2.362 . S
O543 C554 1.283 . S
O544 Tb509 2.421 . S
O544 C561 1.262 . S
O545 Tb498 2.320 . S
O545 C561 1.260 . S
O546 Tb498 2.552 . S
O546 C554 1.243 . S
O547 Tb498 2.413 . S
O547 C562 1.256 . S
O548 Tb509 2.546 . S
O548 C573 1.251 . S
O549 Tb498 2.362 . S
O549 Tb509 2.610 . S
O549 C565 1.283 . S
O550 Tb498 2.421 . S
O550 C572 1.262 . S
O551 Tb509 2.320 . S
O551 C572 1.260 . S
O552 Tb509 2.552 . S
O552 C565 1.243 . S
O553 Tb509 2.413 . S
O553 C573 1.256 . S
C554 O543 1.283 . S
C554 O546 1.243 . S
C555 C557 1.382 . S
C555 C559 1.393 . S
C555 C562 1.500 . S
C556 C557 1.400 . S
C556 C558 1.384 . S
C557 C555 1.382 . S
C557 C556 1.400 . S
C557 H574 0.930 . S
C558 C556 1.384 . S
C558 C560 1.392 . S
C558 H575 0.931 . S
C559 C555 1.393 . S
C559 C560 1.401 . S
C559 H576 0.930 . S
C560 C558 1.392 . S
C560 C559 1.401 . S
C560 H577 0.930 . S
C561 O544 1.262 . S
C561 O545 1.260 . S
C562 Tb498 2.833 . S
C562 O542 1.251 . S
C562 O547 1.256 . S
C562 C555 1.500 . S
C563 H528 0.929 . S
C563 C541 1.444 . S
C563 C564 1.317 . S
C564 H526 0.930 . S
C564 C532 1.432 . S
C564 C563 1.317 . S
C565 O549 1.283 . S
C565 O552 1.243 . S
C566 C567 1.382 . S
C566 C570 1.393 . S
C566 C573 1.500 . S
C567 C566 1.382 . S
C567 C568 1.400 . S
C567 H578 0.930 . S
C568 C567 1.400 . S
C568 C569 1.384 . S
C569 C568 1.384 . S
C569 C571 1.392 . S
C569 H579 0.931 . S
C570 C566 1.393 . S
C570 C571 1.401 . S
C570 H580 0.930 . S
C571 C569 1.392 . S
C571 C570 1.401 . S
C571 H581 0.930 . S
C572 O550 1.262 . S
C572 O551 1.260 . S
C573 Tb509 2.833 . S
C573 O548 1.251 . S
C573 O553 1.256 . S
C573 C566 1.500 . S
H574 C557 0.930 . S
H575 C558 0.931 . S
H576 C559 0.930 . S
H577 C560 0.930 . S
H578 C567 0.930 . S
H579 C569 0.931 . S
H580 C570 0.930 . S
H581 C571 0.930 . S
Tb582 N613 2.660 . S
Tb582 N620 2.600 . S
Tb582 O626 2.546 . S
Tb582 O627 2.610 . S
Tb582 O629 2.320 . S
Tb582 O630 2.552 . S
Tb582 O631 2.413 . S
Tb582 O633 2.362 . S
Tb582 O634 2.421 . S
Tb582 C646 2.833 . S
C583 C586 1.432 . S
C583 C587 1.414 . S
C583 N590 1.359 . S
C584 C586 1.417 1_655 S
C584 C588 1.432 . S
C584 C596 1.410 . S
C585 C587 1.444 1_655 S
C585 C588 1.317 . S
C585 H608 0.929 . S
C586 C583 1.432 . S
C586 C584 1.417 1_455 S
C586 N594 1.360 . S
C587 C583 1.414 . S
C587 C585 1.444 1_455 S
C587 C592 1.385 . S
C588 C584 1.432 . S
C588 C585 1.317 . S
C588 H600 0.930 . S
C589 C591 1.392 . S
C589 C592 1.370 . S
C589 H601 0.931 . S
N590 C583 1.359 . S
N590 C591 1.327 . S
N590 Tb593 2.600 . S
C591 C589 1.392 . S
C591 N590 1.327 . S
C591 H598 0.930 . S
C592 C587 1.385 . S
C592 C589 1.370 . S
C592 H611 0.930 . S
Tb593 N590 2.600 . S
Tb593 N594 2.660 . S
Tb593 O627 2.362 . S
Tb593 O628 2.421 . S
Tb593 O632 2.546 . S
Tb593 O633 2.610 . S
Tb593 O635 2.320 . S
Tb593 O636 2.552 . S
Tb593 O637 2.413 . S
Tb593 C657 2.833 . S
N594 C586 1.360 . S
N594 Tb593 2.660 . S
N594 C595 1.305 . S
C595 N594 1.305 . S
C595 C597 1.407 1_455 S
C595 H602 0.930 . S
C596 C584 1.410 . S
C596 C597 1.345 . S
C596 H604 0.930 . S
C597 C595 1.407 1_655 S
C597 C596 1.345 . S
C597 H599 0.930 . S
H598 C591 0.930 . S
H599 C597 0.930 . S
H600 C588 0.930 . S
H601 C589 0.931 . S
H602 C595 0.930 . S
H603 C617 0.930 . S
H604 C596 0.930 . S
H605 C623 0.930 . S
H606 C614 0.930 . S
H607 C621 0.931 . S
H608 C585 0.929 . S
H609 C615 0.930 . S
H610 C648 0.930 . S
H611 C592 0.930 . S
H612 C647 0.929 . S
N613 Tb582 2.660 . S
N613 C614 1.305 . S
N613 C618 1.360 . S
C614 H606 0.930 . S
C614 N613 1.305 . S
C614 C617 1.407 . S
C615 H609 0.930 . S
C615 C616 1.410 . S
C615 C617 1.345 . S
C616 C615 1.410 . S
C616 C618 1.417 . S
C616 C648 1.432 . S
C617 H603 0.930 . S
C617 C614 1.407 . S
C617 C615 1.345 . S
C618 N613 1.360 . S
C618 C616 1.417 . S
C618 C622 1.432 . S
H619 C624 0.930 . S
N620 Tb582 2.600 . S
N620 C622 1.359 . S
N620 C623 1.327 . S
C621 H607 0.931 . S
C621 C623 1.392 . S
C621 C624 1.370 . S
C622 C618 1.432 . S
C622 N620 1.359 . S
C622 C625 1.414 . S
C623 H605 0.930 . S
C623 N620 1.327 . S
C623 C621 1.392 . S
C624 H619 0.930 . S
C624 C621 1.370 . S
C624 C625 1.385 . S
C625 C622 1.414 . S
C625 C624 1.385 . S
C625 C647 1.444 . S
O626 Tb582 2.546 . S
O626 C646 1.251 . S
O627 Tb582 2.610 . S
O627 Tb593 2.362 . S
O627 C638 1.283 . S
O628 Tb593 2.421 . S
O628 C645 1.262 . S
O629 Tb582 2.320 . S
O629 C645 1.260 . S
O630 Tb582 2.552 . S
O630 C638 1.243 . S
O631 Tb582 2.413 . S
O631 C646 1.256 . S
O632 Tb593 2.546 . S
O632 C657 1.251 . S
O633 Tb582 2.362 . S
O633 Tb593 2.610 . S
O633 C649 1.283 . S
O634 Tb582 2.421 . S
O634 C656 1.262 . S
O635 Tb593 2.320 . S
O635 C656 1.260 . S
O636 Tb593 2.552 . S
O636 C649 1.243 . S
O637 Tb593 2.413 . S
O637 C657 1.256 . S
C638 O627 1.283 . S
C638 O630 1.243 . S
C639 C641 1.382 . S
C639 C643 1.393 . S
C639 C646 1.500 . S
C640 C641 1.400 . S
C640 C642 1.384 . S
C641 C639 1.382 . S
C641 C640 1.400 . S
C641 H658 0.930 . S
C642 C640 1.384 . S
C642 C644 1.392 . S
C642 H659 0.931 . S
C643 C639 1.393 . S
C643 C644 1.401 . S
C643 H660 0.930 . S
C644 C642 1.392 . S
C644 C643 1.401 . S
C644 H661 0.930 . S
C645 O628 1.262 . S
C645 O629 1.260 . S
C646 Tb582 2.833 . S
C646 O626 1.251 . S
C646 O631 1.256 . S
C646 C639 1.500 . S
C647 H612 0.929 . S
C647 C625 1.444 . S
C647 C648 1.317 . S
C648 H610 0.930 . S
C648 C616 1.432 . S
C648 C647 1.317 . S
C649 O633 1.283 . S
C649 O636 1.243 . S
C650 C651 1.382 . S
C650 C654 1.393 . S
C650 C657 1.500 . S
C651 C650 1.382 . S
C651 C652 1.400 . S
C651 H662 0.930 . S
C652 C651 1.400 . S
C652 C653 1.384 . S
C653 C652 1.384 . S
C653 C655 1.392 . S
C653 H663 0.931 . S
C654 C650 1.393 . S
C654 C655 1.401 . S
C654 H664 0.930 . S
C655 C653 1.392 . S
C655 C654 1.401 . S
C655 H665 0.930 . S
C656 O634 1.262 . S
C656 O635 1.260 . S
C657 Tb593 2.833 . S
C657 O632 1.251 . S
C657 O637 1.256 . S
C657 C650 1.500 . S
H658 C641 0.930 . S
H659 C642 0.931 . S
H660 C643 0.930 . S
H661 C644 0.930 . S
H662 C651 0.930 . S
H663 C653 0.931 . S
H664 C654 0.930 . S
H665 C655 0.930 . S
Tb666 N697 2.660 . S
Tb666 N704 2.600 . S
Tb666 O710 2.546 . S
Tb666 O711 2.610 . S
Tb666 O713 2.320 . S
Tb666 O714 2.552 . S
Tb666 O715 2.413 . S
Tb666 O717 2.362 . S
Tb666 O718 2.421 . S
Tb666 C730 2.833 . S
C667 C670 1.432 . S
C667 C671 1.414 . S
C667 N674 1.359 . S
C668 C670 1.417 1_455 S
C668 C672 1.432 . S
C668 C680 1.410 . S
C669 C671 1.444 1_455 S
C669 C672 1.317 . S
C669 H692 0.929 . S
C670 C667 1.432 . S
C670 C668 1.417 1_655 S
C670 N678 1.360 . S
C671 C667 1.414 . S
C671 C669 1.444 1_655 S
C671 C676 1.385 . S
C672 C668 1.432 . S
C672 C669 1.317 . S
C672 H684 0.930 . S
C673 C675 1.392 . S
C673 C676 1.370 . S
C673 H685 0.931 . S
N674 C667 1.359 . S
N674 C675 1.327 . S
N674 Tb677 2.600 . S
C675 C673 1.392 . S
C675 N674 1.327 . S
C675 H682 0.930 . S
C676 C671 1.385 . S
C676 C673 1.370 . S
C676 H695 0.930 . S
Tb677 N674 2.600 . S
Tb677 N678 2.660 . S
Tb677 O711 2.362 . S
Tb677 O712 2.421 . S
Tb677 O716 2.546 . S
Tb677 O717 2.610 . S
Tb677 O719 2.320 . S
Tb677 O720 2.552 . S
Tb677 O721 2.413 . S
Tb677 C741 2.833 . S
N678 C670 1.360 . S
N678 Tb677 2.660 . S
N678 C679 1.305 . S
C679 N678 1.305 . S
C679 C681 1.407 1_655 S
C679 H686 0.930 . S
C680 C668 1.410 . S
C680 C681 1.345 . S
C680 H688 0.930 . S
C681 C679 1.407 1_455 S
C681 C680 1.345 . S
C681 H683 0.930 . S
H682 C675 0.930 . S
H683 C681 0.930 . S
H684 C672 0.930 . S
H685 C673 0.931 . S
H686 C679 0.930 . S
H687 C701 0.930 . S
H688 C680 0.930 . S
H689 C707 0.930 . S
H690 C698 0.930 . S
H691 C705 0.931 . S
H692 C669 0.929 . S
H693 C699 0.930 . S
H694 C732 0.930 . S
H695 C676 0.930 . S
H696 C731 0.929 . S
N697 Tb666 2.660 . S
N697 C698 1.305 . S
N697 C702 1.360 . S
C698 H690 0.930 . S
C698 N697 1.305 . S
C698 C701 1.407 . S
C699 H693 0.930 . S
C699 C700 1.410 . S
C699 C701 1.345 . S
C700 C699 1.410 . S
C700 C702 1.417 . S
C700 C732 1.432 . S
C701 H687 0.930 . S
C701 C698 1.407 . S
C701 C699 1.345 . S
C702 N697 1.360 . S
C702 C700 1.417 . S
C702 C706 1.432 . S
H703 C708 0.930 . S
N704 Tb666 2.600 . S
N704 C706 1.359 . S
N704 C707 1.327 . S
C705 H691 0.931 . S
C705 C707 1.392 . S
C705 C708 1.370 . S
C706 C702 1.432 . S
C706 N704 1.359 . S
C706 C709 1.414 . S
C707 H689 0.930 . S
C707 N704 1.327 . S
C707 C705 1.392 . S
C708 H703 0.930 . S
C708 C705 1.370 . S
C708 C709 1.385 . S
C709 C706 1.414 . S
C709 C708 1.385 . S
C709 C731 1.444 . S
O710 Tb666 2.546 . S
O710 C730 1.251 . S
O711 Tb666 2.610 . S
O711 Tb677 2.362 . S
O711 C722 1.283 . S
O712 Tb677 2.421 . S
O712 C729 1.262 . S
O713 Tb666 2.320 . S
O713 C729 1.260 . S
O714 Tb666 2.552 . S
O714 C722 1.243 . S
O715 Tb666 2.413 . S
O715 C730 1.256 . S
O716 Tb677 2.546 . S
O716 C741 1.251 . S
O717 Tb666 2.362 . S
O717 Tb677 2.610 . S
O717 C733 1.283 . S
O718 Tb666 2.421 . S
O718 C740 1.262 . S
O719 Tb677 2.320 . S
O719 C740 1.260 . S
O720 Tb677 2.552 . S
O720 C733 1.243 . S
O721 Tb677 2.413 . S
O721 C741 1.256 . S
C722 O711 1.283 . S
C722 O714 1.243 . S
C723 C725 1.382 . S
C723 C727 1.393 . S
C723 C730 1.500 . S
C724 C725 1.400 . S
C724 C726 1.384 . S
C725 C723 1.382 . S
C725 C724 1.400 . S
C725 H742 0.930 . S
C726 C724 1.384 . S
C726 C728 1.392 . S
C726 H743 0.931 . S
C727 C723 1.393 . S
C727 C728 1.401 . S
C727 H744 0.930 . S
C728 C726 1.392 . S
C728 C727 1.401 . S
C728 H745 0.930 . S
C729 O712 1.262 . S
C729 O713 1.260 . S
C730 Tb666 2.833 . S
C730 O710 1.251 . S
C730 O715 1.256 . S
C730 C723 1.500 . S
C731 H696 0.929 . S
C731 C709 1.444 . S
C731 C732 1.317 . S
C732 H694 0.930 . S
C732 C700 1.432 . S
C732 C731 1.317 . S
C733 O717 1.283 . S
C733 O720 1.243 . S
C734 C735 1.382 . S
C734 C738 1.393 . S
C734 C741 1.500 . S
C735 C734 1.382 . S
C735 C736 1.400 . S
C735 H746 0.930 . S
C736 C735 1.400 . S
C736 C737 1.384 . S
C737 C736 1.384 . S
C737 C739 1.392 . S
C737 H747 0.931 . S
C738 C734 1.393 . S
C738 C739 1.401 . S
C738 H748 0.930 . S
C739 C737 1.392 . S
C739 C738 1.401 . S
C739 H749 0.930 . S
C740 O718 1.262 . S
C740 O719 1.260 . S
C741 Tb677 2.833 . S
C741 O716 1.251 . S
C741 O721 1.256 . S
C741 C734 1.500 . S
H742 C725 0.930 . S
H743 C726 0.931 . S
H744 C727 0.930 . S
H745 C728 0.930 . S
H746 C735 0.930 . S
H747 C737 0.931 . S
H748 C738 0.930 . S
H749 C739 0.930 . S
Tb750 N781 2.660 . S
Tb750 N788 2.600 . S
Tb750 O794 2.546 . S
Tb750 O795 2.610 . S
Tb750 O797 2.320 . S
Tb750 O798 2.552 . S
Tb750 O799 2.413 . S
Tb750 O801 2.362 . S
Tb750 O802 2.421 . S
Tb750 C814 2.833 . S
C751 C754 1.432 . S
C751 C755 1.414 . S
C751 N758 1.359 . S
C752 C754 1.417 . S
C752 C756 1.432 . S
C752 C764 1.410 . S
C753 C755 1.444 . S
C753 C756 1.317 . S
C753 H776 0.929 . S
C754 C751 1.432 . S
C754 C752 1.417 . S
C754 N762 1.360 . S
C755 C751 1.414 . S
C755 C753 1.444 . S
C755 C760 1.385 . S
C756 C752 1.432 . S
C756 C753 1.317 . S
C756 H768 0.930 . S
C757 C759 1.392 . S
C757 C760 1.370 . S
C757 H769 0.931 . S
N758 C751 1.359 . S
N758 C759 1.327 . S
N758 Tb761 2.600 . S
C759 C757 1.392 . S
C759 N758 1.327 . S
C759 H766 0.930 . S
C760 C755 1.385 . S
C760 C757 1.370 . S
C760 H779 0.930 . S
Tb761 N758 2.600 . S
Tb761 N762 2.660 . S
Tb761 O795 2.362 . S
Tb761 O796 2.421 . S
Tb761 O800 2.546 . S
Tb761 O801 2.610 . S
Tb761 O803 2.320 . S
Tb761 O804 2.552 . S
Tb761 O805 2.413 . S
Tb761 C825 2.833 . S
N762 C754 1.360 . S
N762 Tb761 2.660 . S
N762 C763 1.305 . S
C763 N762 1.305 . S
C763 C765 1.407 . S
C763 H770 0.930 . S
C764 C752 1.410 . S
C764 C765 1.345 . S
C764 H772 0.930 . S
C765 C763 1.407 . S
C765 C764 1.345 . S
C765 H767 0.930 . S
H766 C759 0.930 . S
H767 C765 0.930 . S
H768 C756 0.930 . S
H769 C757 0.931 . S
H770 C763 0.930 . S
H771 C785 0.930 . S
H772 C764 0.930 . S
H773 C791 0.930 . S
H774 C782 0.930 . S
H775 C789 0.931 . S
H776 C753 0.929 . S
H777 C783 0.930 . S
H778 C816 0.930 . S
H779 C760 0.930 . S
H780 C815 0.929 . S
N781 Tb750 2.660 . S
N781 C782 1.305 . S
N781 C786 1.360 . S
C782 H774 0.930 . S
C782 N781 1.305 . S
C782 C785 1.407 . S
C783 H777 0.930 . S
C783 C784 1.410 . S
C783 C785 1.345 . S
C784 C783 1.410 . S
C784 C786 1.417 . S
C784 C816 1.432 . S
C785 H771 0.930 . S
C785 C782 1.407 . S
C785 C783 1.345 . S
C786 N781 1.360 . S
C786 C784 1.417 . S
C786 C790 1.432 . S
H787 C792 0.930 . S
N788 Tb750 2.600 . S
N788 C790 1.359 . S
N788 C791 1.327 . S
C789 H775 0.931 . S
C789 C791 1.392 . S
C789 C792 1.370 . S
C790 C786 1.432 . S
C790 N788 1.359 . S
C790 C793 1.414 . S
C791 H773 0.930 . S
C791 N788 1.327 . S
C791 C789 1.392 . S
C792 H787 0.930 . S
C792 C789 1.370 . S
C792 C793 1.385 . S
C793 C790 1.414 . S
C793 C792 1.385 . S
C793 C815 1.444 . S
O794 Tb750 2.546 . S
O794 C814 1.251 . S
O795 Tb750 2.610 . S
O795 Tb761 2.362 . S
O795 C806 1.283 . S
O796 Tb761 2.421 . S
O796 C813 1.262 . S
O797 Tb750 2.320 . S
O797 C813 1.260 . S
O798 Tb750 2.552 . S
O798 C806 1.243 . S
O799 Tb750 2.413 . S
O799 C814 1.256 . S
O800 Tb761 2.546 . S
O800 C825 1.251 . S
O801 Tb750 2.362 . S
O801 Tb761 2.610 . S
O801 C817 1.283 . S
O802 Tb750 2.421 . S
O802 C824 1.262 . S
O803 Tb761 2.320 . S
O803 C824 1.260 . S
O804 Tb761 2.552 . S
O804 C817 1.243 . S
O805 Tb761 2.413 . S
O805 C825 1.256 . S
C806 O795 1.283 . S
C806 O798 1.243 . S
C807 C809 1.382 . S
C807 C811 1.393 . S
C807 C814 1.500 . S
C808 C809 1.400 . S
C808 C810 1.384 . S
C809 C807 1.382 . S
C809 C808 1.400 . S
C809 H826 0.930 . S
C810 C808 1.384 . S
C810 C812 1.392 . S
C810 H827 0.931 . S
C811 C807 1.393 . S
C811 C812 1.401 . S
C811 H828 0.930 . S
C812 C810 1.392 . S
C812 C811 1.401 . S
C812 H829 0.930 . S
C813 O796 1.262 . S
C813 O797 1.260 . S
C814 Tb750 2.833 . S
C814 O794 1.251 . S
C814 O799 1.256 . S
C814 C807 1.500 . S
C815 H780 0.929 . S
C815 C793 1.444 . S
C815 C816 1.317 . S
C816 H778 0.930 . S
C816 C784 1.432 . S
C816 C815 1.317 . S
C817 O801 1.283 . S
C817 O804 1.243 . S
C818 C819 1.382 . S
C818 C822 1.393 . S
C818 C825 1.500 . S
C819 C818 1.382 . S
C819 C820 1.400 . S
C819 H830 0.930 . S
C820 C819 1.400 . S
C820 C821 1.384 . S
C821 C820 1.384 . S
C821 C823 1.392 . S
C821 H831 0.931 . S
C822 C818 1.393 . S
C822 C823 1.401 . S
C822 H832 0.930 . S
C823 C821 1.392 . S
C823 C822 1.401 . S
C823 H833 0.930 . S
C824 O802 1.262 . S
C824 O803 1.260 . S
C825 Tb761 2.833 . S
C825 O800 1.251 . S
C825 O805 1.256 . S
C825 C818 1.500 . S
H826 C809 0.930 . S
H827 C810 0.931 . S
H828 C811 0.930 . S
H829 C812 0.930 . S
H830 C819 0.930 . S
H831 C821 0.931 . S
H832 C822 0.930 . S
H833 C823 0.930 . S
Tb834 N865 2.660 . S
Tb834 N872 2.600 . S
Tb834 O878 2.546 . S
Tb834 O879 2.610 . S
Tb834 O881 2.320 . S
Tb834 O882 2.552 . S
Tb834 O883 2.413 . S
Tb834 O885 2.362 . S
Tb834 O886 2.421 . S
Tb834 C898 2.833 . S
C835 C838 1.432 . S
C835 C839 1.414 . S
C835 N842 1.359 . S
C836 C838 1.417 . S
C836 C840 1.432 . S
C836 C848 1.410 . S
C837 C839 1.444 . S
C837 C840 1.317 . S
C837 H860 0.929 . S
C838 C835 1.432 . S
C838 C836 1.417 . S
C838 N846 1.360 . S
C839 C835 1.414 . S
C839 C837 1.444 . S
C839 C844 1.385 . S
C840 C836 1.432 . S
C840 C837 1.317 . S
C840 H852 0.930 . S
C841 C843 1.392 . S
C841 C844 1.370 . S
C841 H853 0.931 . S
N842 C835 1.359 . S
N842 C843 1.327 . S
N842 Tb845 2.600 . S
C843 C841 1.392 . S
C843 N842 1.327 . S
C843 H850 0.930 . S
C844 C839 1.385 . S
C844 C841 1.370 . S
C844 H863 0.930 . S
Tb845 N842 2.600 . S
Tb845 N846 2.660 . S
Tb845 O879 2.362 . S
Tb845 O880 2.421 . S
Tb845 O884 2.546 . S
Tb845 O885 2.610 . S
Tb845 O887 2.320 . S
Tb845 O888 2.552 . S
Tb845 O889 2.413 . S
Tb845 C909 2.833 . S
N846 C838 1.360 . S
N846 Tb845 2.660 . S
N846 C847 1.305 . S
C847 N846 1.305 . S
C847 C849 1.407 . S
C847 H854 0.930 . S
C848 C836 1.410 . S
C848 C849 1.345 . S
C848 H856 0.930 . S
C849 C847 1.407 . S
C849 C848 1.345 . S
C849 H851 0.930 . S
H850 C843 0.930 . S
H851 C849 0.930 . S
H852 C840 0.930 . S
H853 C841 0.931 . S
H854 C847 0.930 . S
H855 C869 0.930 . S
H856 C848 0.930 . S
H857 C875 0.930 . S
H858 C866 0.930 . S
H859 C873 0.931 . S
H860 C837 0.929 . S
H861 C867 0.930 . S
H862 C900 0.930 . S
H863 C844 0.930 . S
H864 C899 0.929 . S
N865 Tb834 2.660 . S
N865 C866 1.305 . S
N865 C870 1.360 . S
C866 H858 0.930 . S
C866 N865 1.305 . S
C866 C869 1.407 1_655 S
C867 H861 0.930 . S
C867 C868 1.410 . S
C867 C869 1.345 . S
C868 C867 1.410 . S
C868 C870 1.417 1_455 S
C868 C900 1.432 . S
C869 H855 0.930 . S
C869 C866 1.407 1_455 S
C869 C867 1.345 . S
C870 N865 1.360 . S
C870 C868 1.417 1_655 S
C870 C874 1.432 . S
H871 C876 0.930 . S
N872 Tb834 2.600 . S
N872 C874 1.359 . S
N872 C875 1.327 . S
C873 H859 0.931 . S
C873 C875 1.392 . S
C873 C876 1.370 . S
C874 C870 1.432 . S
C874 N872 1.359 . S
C874 C877 1.414 . S
C875 H857 0.930 . S
C875 N872 1.327 . S
C875 C873 1.392 . S
C876 H871 0.930 . S
C876 C873 1.370 . S
C876 C877 1.385 . S
C877 C874 1.414 . S
C877 C876 1.385 . S
C877 C899 1.444 1_655 S
O878 Tb834 2.546 . S
O878 C898 1.251 . S
O879 Tb834 2.610 . S
O879 Tb845 2.362 . S
O879 C890 1.283 . S
O880 Tb845 2.421 . S
O880 C897 1.262 . S
O881 Tb834 2.320 . S
O881 C897 1.260 . S
O882 Tb834 2.552 . S
O882 C890 1.243 . S
O883 Tb834 2.413 . S
O883 C898 1.256 . S
O884 Tb845 2.546 . S
O884 C909 1.251 . S
O885 Tb834 2.362 . S
O885 Tb845 2.610 . S
O885 C901 1.283 . S
O886 Tb834 2.421 . S
O886 C908 1.262 . S
O887 Tb845 2.320 . S
O887 C908 1.260 . S
O888 Tb845 2.552 . S
O888 C901 1.243 . S
O889 Tb845 2.413 . S
O889 C909 1.256 . S
C890 O879 1.283 . S
C890 O882 1.243 . S
C891 C893 1.382 . S
C891 C895 1.393 . S
C891 C898 1.500 . S
C892 C893 1.400 . S
C892 C894 1.384 . S
C893 C891 1.382 . S
C893 C892 1.400 . S
C893 H910 0.930 . S
C894 C892 1.384 . S
C894 C896 1.392 . S
C894 H911 0.931 . S
C895 C891 1.393 . S
C895 C896 1.401 . S
C895 H912 0.930 . S
C896 C894 1.392 . S
C896 C895 1.401 . S
C896 H913 0.930 . S
C897 O880 1.262 . S
C897 O881 1.260 . S
C898 Tb834 2.833 . S
C898 O878 1.251 . S
C898 O883 1.256 . S
C898 C891 1.500 . S
C899 H864 0.929 . S
C899 C877 1.444 1_455 S
C899 C900 1.317 . S
C900 H862 0.930 . S
C900 C868 1.432 . S
C900 C899 1.317 . S
C901 O885 1.283 . S
C901 O888 1.243 . S
C902 C903 1.382 . S
C902 C906 1.393 . S
C902 C909 1.500 . S
C903 C902 1.382 . S
C903 C904 1.400 . S
C903 H914 0.930 . S
C904 C903 1.400 . S
C904 C905 1.384 . S
C905 C904 1.384 . S
C905 C907 1.392 . S
C905 H915 0.931 . S
C906 C902 1.393 . S
C906 C907 1.401 . S
C906 H916 0.930 . S
C907 C905 1.392 . S
C907 C906 1.401 . S
C907 H917 0.930 . S
C908 O886 1.262 . S
C908 O887 1.260 . S
C909 Tb845 2.833 . S
C909 O884 1.251 . S
C909 O889 1.256 . S
C909 C902 1.500 . S
H910 C893 0.930 . S
H911 C894 0.931 . S
H912 C895 0.930 . S
H913 C896 0.930 . S
H914 C903 0.930 . S
H915 C905 0.931 . S
H916 C906 0.930 . S
H917 C907 0.930 . S
C918 C919 1.369 . S
C918 C920 1.419 . S
C918 H922 0.930 . S
C919 C918 1.369 . S
C919 C928 1.429 . S
C920 C918 1.419 . S
C920 C921 1.363 . S
C920 H923 0.929 . S
C921 C920 1.363 . S
C921 C927 1.428 . S
H922 C918 0.930 . S
H923 C920 0.929 . S
S924 N925 1.613 1_556 S
S924 N926 1.610 . S
N925 S924 1.613 1_554 S
N925 C928 1.350 . S
N926 S924 1.610 . S
N926 C927 1.351 1_556 S
C927 C921 1.428 . S
C927 N926 1.351 1_554 S
C927 C928 1.434 . S
C928 C919 1.429 . S
C928 N925 1.350 . S
C928 C927 1.434 . S
C929 C930 1.369 . S
C929 C931 1.419 . S
C929 H933 0.930 . S
C930 C929 1.369 . S
C930 C939 1.429 . S
C931 C929 1.419 . S
C931 C932 1.363 . S
C931 H934 0.929 . S
C932 C931 1.363 . S
C932 C938 1.428 . S
H933 C929 0.930 . S
H934 C931 0.929 . S
S935 N936 1.613 . S
S935 N937 1.610 . S
N936 S935 1.613 . S
N936 C939 1.350 . S
N937 S935 1.610 . S
N937 C938 1.351 . S
C938 C932 1.428 . S
C938 N937 1.351 . S
C938 C939 1.434 . S
C939 C930 1.429 . S
C939 N936 1.350 . S
C939 C938 1.434 . S
C940 C941 1.369 . S
C940 C942 1.419 . S
C940 H944 0.930 . S
C941 C940 1.369 . S
C941 C950 1.429 . S
C942 C940 1.419 . S
C942 C943 1.363 . S
C942 H945 0.929 . S
C943 C942 1.363 . S
C943 C949 1.428 . S
H944 C940 0.930 . S
H945 C942 0.929 . S
S946 N947 1.613 . S
S946 N948 1.610 . S
N947 S946 1.613 . S
N947 C950 1.350 . S
N948 S946 1.610 . S
N948 C949 1.351 . S
C949 C943 1.428 . S
C949 N948 1.351 . S
C949 C950 1.434 . S
C950 C941 1.429 . S
C950 N947 1.350 . S
C950 C949 1.434 . S
C951 C952 1.369 . S
C951 C953 1.419 . S
C951 H955 0.930 . S
C952 C951 1.369 . S
C952 C961 1.429 . S
C953 C951 1.419 . S
C953 C954 1.363 . S
C953 H956 0.929 . S
C954 C953 1.363 . S
C954 C960 1.428 . S
H955 C951 0.930 . S
H956 C953 0.929 . S
S957 N958 1.613 1_554 S
S957 N959 1.610 . S
N958 S957 1.613 1_556 S
N958 C961 1.350 . S
N959 S957 1.610 . S
N959 C960 1.351 1_554 S
C960 C954 1.428 . S
C960 N959 1.351 1_556 S
C960 C961 1.434 . S
C961 C952 1.429 . S
C961 N958 1.350 . S
C961 C960 1.434 . S
C962 C963 1.369 . S
C962 C964 1.419 . S
C962 H966 0.930 . S
C963 C962 1.369 . S
C963 C972 1.429 . S
C964 C962 1.419 . S
C964 C965 1.363 . S
C964 H967 0.929 . S
C965 C964 1.363 . S
C965 C971 1.428 . S
H966 C962 0.930 . S
H967 C964 0.929 . S
S968 N969 1.613 1_554 S
S968 N970 1.610 . S
N969 S968 1.613 1_556 S
N969 C972 1.350 . S
N970 S968 1.610 . S
N970 C971 1.351 1_554 S
C971 C965 1.428 . S
C971 N970 1.351 1_556 S
C971 C972 1.434 . S
C972 C963 1.429 . S
C972 N969 1.350 . S
C972 C971 1.434 . S
C973 C974 1.369 . S
C973 C975 1.419 . S
C973 H977 0.930 . S
C974 C973 1.369 . S
C974 C983 1.429 . S
C975 C973 1.419 . S
C975 C976 1.363 . S
C975 H978 0.929 1_556 S
C976 C975 1.363 . S
C976 C982 1.428 . S
H977 C973 0.930 . S
H978 C975 0.929 1_554 S
S979 N980 1.613 . S
S979 N981 1.610 . S
N980 S979 1.613 . S
N980 C983 1.350 . S
N981 S979 1.610 . S
N981 C982 1.351 . S
C982 C976 1.428 . S
C982 N981 1.351 . S
C982 C983 1.434 . S
C983 C974 1.429 . S
C983 N980 1.350 . S
C983 C982 1.434 . S
C984 C985 1.369 . S
C984 C986 1.419 . S
C984 H988 0.930 . S
C985 C984 1.369 . S
C985 C994 1.429 . S
C986 C984 1.419 . S
C986 C987 1.363 . S
C986 H989 0.931 1_556 S
C987 C986 1.363 . S
C987 C993 1.428 . S
H988 C984 0.930 . S
H989 C986 0.931 1_554 S
S990 N991 1.613 . S
S990 N992 1.610 . S
N991 S990 1.613 . S
N991 C994 1.350 . S
N992 S990 1.610 . S
N992 C993 1.351 . S
C993 C987 1.428 . S
C993 N992 1.351 . S
C993 C994 1.434 . S
C994 C985 1.429 . S
C994 N991 1.350 . S
C994 C993 1.434 . S
C995 C996 1.369 . S
C995 C997 1.419 . S
C995 H999 0.930 . S
C996 C995 1.369 . S
C996 C1005 1.429 . S
C997 C995 1.419 . S
C997 C998 1.363 . S
C997 H1000 0.929 . S
C998 C997 1.363 . S
C998 C1004 1.428 . S
H999 C995 0.930 . S
H1000 C997 0.929 . S
S1001 N1002 1.613 . S
S1001 N1003 1.610 . S
N1002 S1001 1.613 . S
N1002 C1005 1.350 . S
N1003 S1001 1.610 . S
N1003 C1004 1.351 . S
C1004 C998 1.428 . S
C1004 N1003 1.351 . S
C1004 C1005 1.434 . S
C1005 C996 1.429 . S
C1005 N1002 1.350 . S
C1005 C1004 1.434 . S
C1006 C1007 1.369 . S
C1006 C1008 1.419 . S
C1006 H1010 0.930 . S
C1007 C1006 1.369 . S
C1007 C1016 1.429 . S
C1008 C1006 1.419 . S
C1008 C1009 1.363 . S
C1008 H1011 0.929 . S
C1009 C1008 1.363 . S
C1009 C1015 1.428 . S
H1010 C1006 0.930 . S
H1011 C1008 0.929 . S
S1012 N1013 1.585 1_554 S
S1012 N1014 1.610 . S
N1013 S1012 1.585 1_556 S
N1013 C1016 1.373 . S
N1014 S1012 1.610 . S
N1014 C1015 1.351 1_554 S
C1015 C1009 1.428 . S
C1015 N1014 1.351 1_556 S
C1015 C1016 1.434 . S
C1016 C1007 1.429 . S
C1016 N1013 1.373 . S
C1016 C1015 1.434 . S
C1017 C1018 1.369 . S
C1017 C1019 1.419 . S
C1017 H1021 0.930 . S
C1018 C1017 1.369 . S
C1018 C1027 1.429 . S
C1019 C1017 1.419 . S
C1019 C1020 1.363 . S
C1019 H1022 0.929 . S
C1020 C1019 1.363 . S
C1020 C1026 1.428 . S
H1021 C1017 0.930 . S
H1022 C1019 0.929 . S
S1023 N1024 1.613 . S
S1023 N1025 1.610 . S
N1024 S1023 1.613 . S
N1024 C1027 1.350 . S
N1025 S1023 1.610 . S
N1025 C1026 1.351 . S
C1026 C1020 1.428 . S
C1026 N1025 1.351 . S
C1026 C1027 1.434 . S
C1027 C1018 1.429 . S
C1027 N1024 1.350 . S
C1027 C1026 1.434 . S
C1028 C1029 1.369 . S
C1028 C1030 1.419 . S
C1028 H1032 0.930 . S
C1029 C1028 1.369 . S
C1029 C1038 1.429 . S
C1030 C1028 1.419 . S
C1030 C1031 1.363 . S
C1030 H1033 0.929 . S
C1031 C1030 1.363 . S
C1031 C1037 1.428 . S
H1032 C1028 0.930 . S
H1033 C1030 0.929 . S
S1034 N1035 1.613 . S
S1034 N1036 1.610 . S
N1035 S1034 1.613 . S
N1035 C1038 1.350 . S
N1036 S1034 1.610 . S
N1036 C1037 1.351 . S
C1037 C1031 1.428 . S
C1037 N1036 1.351 . S
C1037 C1038 1.434 . S
C1038 C1029 1.429 . S
C1038 N1035 1.350 . S
C1038 C1037 1.434 . S
C1039 C1040 1.369 . S
C1039 C1041 1.419 . S
C1039 H1043 0.930 . S
C1040 C1039 1.369 . S
C1040 C1049 1.429 . S
C1041 C1039 1.419 . S
C1041 C1042 1.363 . S
C1041 H1044 0.929 . S
C1042 C1041 1.363 . S
C1042 C1048 1.428 . S
H1043 C1039 0.930 . S
H1044 C1041 0.929 . S
S1045 N1046 1.613 . S
S1045 N1047 1.610 . S
N1046 S1045 1.613 . S
N1046 C1049 1.350 . S
N1047 S1045 1.610 . S
N1047 C1048 1.351 . S
C1048 C1042 1.428 . S
C1048 N1047 1.351 . S
C1048 C1049 1.434 . S
C1049 C1040 1.429 . S
C1049 N1046 1.350 . S
C1049 C1048 1.434 . S
C1050 C1051 1.369 1_455 S
C1050 C1052 1.419 . S
C1050 H1054 0.930 . S
C1051 C1050 1.369 1_655 S
C1051 C1060 1.429 . S
C1052 C1050 1.419 . S
C1052 C1053 1.363 . S
C1052 H1055 0.929 . S
C1053 C1052 1.363 . S
C1053 C1059 1.428 . S
H1054 C1050 0.930 . S
H1055 C1052 0.929 . S
S1056 N1057 1.613 . S
S1056 N1058 1.610 1_655 S
N1057 S1056 1.613 . S
N1057 C1060 1.350 . S
N1058 S1056 1.610 1_455 S
N1058 C1059 1.351 . S
C1059 C1053 1.428 . S
C1059 N1058 1.351 . S
C1059 C1060 1.434 1_455 S
C1060 C1051 1.429 . S
C1060 N1057 1.350 . S
C1060 C1059 1.434 1_655 S
C1061 C1062 1.369 . S
C1061 C1063 1.419 . S
C1061 H1065 0.930 . S
C1062 C1061 1.369 . S
C1062 C1071 1.429 . S
C1063 C1061 1.419 . S
C1063 C1064 1.363 . S
C1063 H1066 0.929 . S
C1064 C1063 1.363 . S
C1064 C1070 1.428 . S
H1065 C1061 0.930 . S
H1066 C1063 0.929 . S
S1067 N1068 1.613 . S
S1067 N1069 1.610 . S
N1068 S1067 1.613 . S
N1068 C1071 1.350 . S
N1069 S1067 1.610 . S
N1069 C1070 1.351 . S
C1070 C1064 1.428 . S
C1070 N1069 1.351 . S
C1070 C1071 1.434 . S
C1071 C1062 1.429 . S
C1071 N1068 1.350 . S
C1071 C1070 1.434 . S
C1072 C1073 1.369 . S
C1072 C1074 1.419 1_545 S
C1072 H1076 0.930 . S
C1073 C1072 1.369 . S
C1073 C1082 1.429 . S
C1074 C1072 1.419 1_565 S
C1074 C1075 1.363 . S
C1074 H1077 0.929 . S
C1075 C1074 1.363 . S
C1075 C1081 1.428 . S
H1076 C1072 0.930 . S
H1077 C1074 0.929 . S
S1078 N1079 1.613 . S
S1078 N1080 1.610 1_545 S
N1079 S1078 1.613 . S
N1079 C1082 1.350 . S
N1080 S1078 1.610 1_565 S
N1080 C1081 1.351 . S
C1081 C1075 1.428 . S
C1081 N1080 1.351 . S
C1081 C1082 1.434 1_565 S
C1082 C1073 1.429 . S
C1082 N1079 1.350 . S
C1082 C1081 1.434 1_545 S
C1083 C1084 1.369 . S
C1083 C1085 1.419 . S
C1083 H1087 0.930 . S
C1084 C1083 1.369 . S
C1084 C1093 1.429 . S
C1085 C1083 1.419 . S
C1085 C1086 1.363 . S
C1085 H1088 0.929 . S
C1086 C1085 1.363 . S
C1086 C1092 1.428 . S
H1087 C1083 0.930 . S
H1088 C1085 0.929 . S
S1089 N1090 1.613 . S
S1089 N1091 1.610 . S
N1090 S1089 1.613 . S
N1090 C1093 1.350 . S
N1091 S1089 1.610 . S
N1091 C1092 1.351 . S
C1092 C1086 1.428 . S
C1092 N1091 1.351 . S
C1092 C1093 1.434 . S
C1093 C1084 1.429 . S
C1093 N1090 1.350 . S
C1093 C1092 1.434 . S
C1094 C1095 1.369 . S
C1094 C1096 1.419 . S
C1094 H1098 0.930 . S
C1095 C1094 1.369 . S
C1095 C1104 1.429 . S
C1096 C1094 1.419 . S
C1096 C1097 1.363 . S
C1096 H1099 0.929 . S
C1097 C1096 1.363 . S
C1097 C1103 1.428 . S
H1098 C1094 0.930 . S
H1099 C1096 0.929 . S
S1100 N1101 1.613 . S
S1100 N1102 1.610 . S
N1101 S1100 1.613 . S
N1101 C1104 1.350 . S
N1102 S1100 1.610 . S
N1102 C1103 1.351 . S
C1103 C1097 1.428 . S
C1103 N1102 1.351 . S
C1103 C1104 1.434 . S
C1104 C1095 1.429 . S
C1104 N1101 1.350 . S
C1104 C1103 1.434 . S
C1105 C1106 1.369 . S
C1105 C1107 1.419 . S
C1105 H1109 0.930 . S
C1106 C1105 1.369 . S
C1106 C1115 1.429 . S
C1107 C1105 1.419 . S
C1107 C1108 1.363 . S
C1107 H1110 0.929 . S
C1108 C1107 1.363 . S
C1108 C1114 1.428 . S
H1109 C1105 0.930 . S
H1110 C1107 0.929 . S
S1111 N1112 1.613 . S
S1111 N1113 1.610 . S
N1112 S1111 1.613 . S
N1112 C1115 1.350 . S
N1113 S1111 1.610 . S
N1113 C1114 1.351 . S
C1114 C1108 1.428 . S
C1114 N1113 1.351 . S
C1114 C1115 1.434 . S
C1115 C1106 1.429 . S
C1115 N1112 1.350 . S
C1115 C1114 1.434 . S
C1116 C1117 1.369 . S
C1116 C1118 1.419 . S
C1116 H1120 0.930 . S
C1117 C1116 1.369 . S
C1117 C1126 1.429 . S
C1118 C1116 1.419 . S
C1118 C1119 1.363 . S
C1118 H1121 0.929 . S
C1119 C1118 1.363 . S
C1119 C1125 1.428 . S
H1120 C1116 0.930 . S
H1121 C1118 0.929 . S
S1122 N1123 1.613 . S
S1122 N1124 1.610 . S
N1123 S1122 1.613 . S
N1123 C1126 1.350 . S
N1124 S1122 1.610 . S
N1124 C1125 1.351 . S
C1125 C1119 1.428 . S
C1125 N1124 1.351 . S
C1125 C1126 1.434 . S
C1126 C1117 1.429 . S
C1126 N1123 1.350 . S
C1126 C1125 1.434 . S
C1127 C1128 1.369 . S
C1127 C1129 1.419 . S
C1127 H1131 0.930 . S
C1128 C1127 1.369 . S
C1128 C1137 1.429 . S
C1129 C1127 1.419 . S
C1129 C1130 1.363 . S
C1129 H1132 0.929 . S
C1130 C1129 1.363 . S
C1130 C1136 1.428 . S
H1131 C1127 0.930 . S
H1132 C1129 0.929 . S
S1133 N1134 1.613 . S
S1133 N1135 1.610 . S
N1134 S1133 1.613 . S
N1134 C1137 1.350 . S
N1135 S1133 1.610 . S
N1135 C1136 1.351 . S
C1136 C1130 1.428 . S
C1136 N1135 1.351 . S
C1136 C1137 1.434 . S
C1137 C1128 1.429 . S
C1137 N1134 1.350 . S
C1137 C1136 1.434 . S
C1138 C1139 1.369 . S
C1138 C1140 1.419 . S
C1138 H1142 0.930 . S
C1139 C1138 1.369 . S
C1139 C1148 1.429 . S
C1140 C1138 1.419 . S
C1140 C1141 1.363 . S
C1140 H1143 0.929 . S
C1141 C1140 1.363 . S
C1141 C1147 1.428 . S
H1142 C1138 0.930 . S
H1143 C1140 0.929 . S
S1144 N1145 1.613 . S
S1144 N1146 1.610 . S
N1145 S1144 1.613 . S
N1145 C1148 1.350 . S
N1146 S1144 1.610 . S
N1146 C1147 1.351 . S
C1147 C1141 1.428 . S
C1147 N1146 1.351 . S
C1147 C1148 1.434 . S
C1148 C1139 1.429 . S
C1148 N1145 1.350 . S
C1148 C1147 1.434 . S
C1149 C1150 1.369 . S
C1149 C1151 1.419 1_545 S
C1149 H1153 0.930 . S
C1150 C1149 1.369 . S
C1150 C1159 1.429 . S
C1151 C1149 1.419 1_565 S
C1151 C1152 1.363 . S
C1151 H1154 0.929 . S
C1152 C1151 1.363 . S
C1152 C1158 1.428 . S
H1153 C1149 0.930 . S
H1154 C1151 0.929 . S
S1155 N1156 1.613 . S
S1155 N1157 1.610 1_545 S
N1156 S1155 1.613 . S
N1156 C1159 1.350 . S
N1157 S1155 1.610 1_565 S
N1157 C1158 1.351 . S
C1158 C1152 1.428 . S
C1158 N1157 1.351 . S
C1158 C1159 1.434 1_565 S
C1159 C1150 1.429 . S
C1159 N1156 1.350 . S
C1159 C1158 1.434 1_545 S
C1160 C1161 1.369 1_455 S
C1160 C1162 1.419 . S
C1160 H1164 0.930 . S
C1161 C1160 1.369 1_655 S
C1161 C1170 1.429 . S
C1162 C1160 1.419 . S
C1162 C1163 1.363 . S
C1162 H1165 0.929 . S
C1163 C1162 1.363 . S
C1163 C1169 1.428 . S
H1164 C1160 0.930 . S
H1165 C1162 0.929 . S
S1166 N1167 1.613 . S
S1166 N1168 1.610 1_655 S
N1167 S1166 1.613 . S
N1167 C1170 1.350 . S
N1168 S1166 1.610 1_455 S
N1168 C1169 1.351 . S
C1169 C1163 1.428 . S
C1169 N1168 1.351 . S
C1169 C1170 1.434 1_455 S
C1170 C1161 1.429 . S
C1170 N1167 1.350 . S
C1170 C1169 1.434 1_655 S
C1171 C1172 1.369 . S
C1171 C1173 1.419 . S
C1171 H1175 0.930 . S
C1172 C1171 1.369 . S
C1172 C1181 1.429 . S
C1173 C1171 1.419 . S
C1173 C1174 1.363 . S
C1173 H1176 0.929 . S
C1174 C1173 1.363 . S
C1174 C1180 1.428 . S
H1175 C1171 0.930 . S
H1176 C1173 0.929 . S
S1177 N1178 1.613 . S
S1177 N1179 1.610 . S
N1178 S1177 1.613 . S
N1178 C1181 1.350 . S
N1179 S1177 1.610 . S
N1179 C1180 1.351 . S
C1180 C1174 1.428 . S
C1180 N1179 1.351 . S
C1180 C1181 1.434 . S
C1181 C1172 1.429 . S
C1181 N1178 1.350 . S
C1181 C1180 1.434 . S
C1182 C1183 1.369 . S
C1182 C1184 1.419 . S
C1182 H1186 0.930 . S
C1183 C1182 1.369 . S
C1183 C1192 1.429 . S
C1184 C1182 1.419 . S
C1184 C1185 1.363 . S
C1184 H1187 0.929 . S
C1185 C1184 1.363 . S
C1185 C1191 1.428 . S
H1186 C1182 0.930 . S
H1187 C1184 0.929 . S
S1188 N1189 1.613 . S
S1188 N1190 1.610 . S
N1189 S1188 1.613 . S
N1189 C1192 1.350 . S
N1190 S1188 1.610 . S
N1190 C1191 1.351 . S
C1191 C1185 1.428 . S
C1191 N1190 1.351 . S
C1191 C1192 1.434 . S
C1192 C1183 1.429 . S
C1192 N1189 1.350 . S
C1192 C1191 1.434 . S
C1193 C1194 1.369 . S
C1193 C1195 1.419 . S
C1193 H1197 0.930 . S
C1194 C1193 1.369 . S
C1194 C1203 1.429 . S
C1195 C1193 1.419 . S
C1195 C1196 1.363 . S
C1195 H1198 0.929 . S
C1196 C1195 1.363 . S
C1196 C1202 1.428 . S
H1197 C1193 0.930 . S
H1198 C1195 0.929 . S
S1199 N1200 1.613 . S
S1199 N1201 1.610 . S
N1200 S1199 1.613 . S
N1200 C1203 1.350 . S
N1201 S1199 1.610 . S
N1201 C1202 1.351 . S
C1202 C1196 1.428 . S
C1202 N1201 1.351 . S
C1202 C1203 1.434 . S
C1203 C1194 1.429 . S
C1203 N1200 1.350 . S
C1203 C1202 1.434 . S
C1204 C1205 1.369 . S
C1204 C1206 1.419 . S
C1204 H1208 0.930 . S
C1205 C1204 1.369 . S
C1205 C1214 1.429 . S
C1206 C1204 1.419 . S
C1206 C1207 1.363 . S
C1206 H1209 0.929 . S
C1207 C1206 1.363 . S
C1207 C1213 1.428 . S
H1208 C1204 0.930 . S
H1209 C1206 0.929 . S
S1210 N1211 1.613 . S
S1210 N1212 1.610 . S
N1211 S1210 1.613 . S
N1211 C1214 1.350 . S
N1212 S1210 1.610 . S
N1212 C1213 1.351 . S
C1213 C1207 1.428 . S
C1213 N1212 1.351 . S
C1213 C1214 1.434 . S
C1214 C1205 1.429 . S
C1214 N1211 1.350 . S
C1214 C1213 1.434 . S
C1215 C1216 1.369 . S
C1215 C1217 1.419 1_565 S
C1215 H1219 0.930 . S
C1216 C1215 1.369 . S
C1216 C1225 1.429 . S
C1217 C1215 1.419 1_545 S
C1217 C1218 1.363 . S
C1217 H1220 0.929 . S
C1218 C1217 1.363 . S
C1218 C1224 1.428 . S
H1219 C1215 0.930 . S
H1220 C1217 0.929 . S
S1221 N1222 1.613 1_545 S
S1221 N1223 1.610 . S
N1222 S1221 1.613 1_565 S
N1222 C1225 1.350 . S
N1223 S1221 1.610 . S
N1223 C1224 1.351 . S
C1224 C1218 1.428 . S
C1224 N1223 1.351 . S
C1224 C1225 1.434 1_545 S
C1225 C1216 1.429 . S
C1225 N1222 1.350 . S
C1225 C1224 1.434 1_565 S
C1226 C1227 1.369 . S
C1226 C1228 1.419 1_455 S
C1226 H1230 0.930 . S
C1227 C1226 1.369 . S
C1227 C1236 1.429 1_455 S
C1228 C1226 1.419 1_655 S
C1228 C1229 1.363 . S
C1228 H1231 0.929 . S
C1229 C1228 1.363 . S
C1229 C1235 1.428 . S
H1230 C1226 0.930 . S
H1231 C1228 0.929 . S
S1232 N1233 1.613 . S
S1232 N1234 1.610 . S
N1233 S1232 1.613 . S
N1233 C1236 1.350 . S
N1234 S1232 1.610 . S
N1234 C1235 1.351 . S
C1235 C1229 1.428 . S
C1235 N1234 1.351 . S
C1235 C1236 1.434 . S
C1236 C1227 1.429 1_655 S
C1236 N1233 1.350 . S
C1236 C1235 1.434 . S
C1237 C1238 1.369 . S
C1237 C1239 1.419 . S
C1237 H1241 0.930 . S
C1238 C1237 1.369 . S
C1238 C1247 1.429 . S
C1239 C1237 1.419 . S
C1239 C1240 1.363 . S
C1239 H1242 0.929 . S
C1240 C1239 1.363 . S
C1240 C1246 1.428 . S
H1241 C1237 0.930 . S
H1242 C1239 0.929 . S
S1243 N1244 1.613 . S
S1243 N1245 1.610 . S
N1244 S1243 1.613 . S
N1244 C1247 1.350 . S
N1245 S1243 1.610 . S
N1245 C1246 1.351 . S
C1246 C1240 1.428 . S
C1246 N1245 1.351 . S
C1246 C1247 1.434 . S
C1247 C1238 1.429 . S
C1247 N1244 1.350 . S
C1247 C1246 1.434 . S
C1248 C1249 1.369 1_655 S
C1248 C1250 1.419 . S
C1248 H1252 0.927 . S
C1249 C1248 1.369 1_455 S
C1249 C1258 1.429 . S
C1250 C1248 1.419 . S
C1250 C1251 1.363 . S
C1250 H1253 0.929 . S
C1251 C1250 1.363 . S
C1251 C1257 1.428 . S
H1252 C1248 0.927 . S
H1253 C1250 0.929 . S
S1254 N1255 1.613 . S
S1254 N1256 1.610 1_455 S
N1255 S1254 1.613 . S
N1255 C1258 1.350 . S
N1256 S1254 1.610 1_655 S
N1256 C1257 1.351 . S
C1257 C1251 1.428 . S
C1257 N1256 1.351 . S
C1257 C1258 1.434 1_655 S
C1258 C1249 1.429 . S
C1258 N1255 1.350 . S
C1258 C1257 1.434 1_455 S
C1259 C1260 1.369 . S
C1259 C1261 1.419 . S
C1259 H1263 0.930 . S
C1260 C1259 1.369 . S
C1260 C1269 1.429 . S
C1261 C1259 1.419 . S
C1261 C1262 1.363 . S
C1261 H1264 0.929 . S
C1262 C1261 1.363 . S
C1262 C1268 1.428 . S
H1263 C1259 0.930 . S
H1264 C1261 0.929 . S
S1265 N1266 1.613 . S
S1265 N1267 1.610 . S
N1266 S1265 1.613 . S
N1266 C1269 1.350 . S
N1267 S1265 1.610 . S
N1267 C1268 1.351 . S
C1268 C1262 1.428 . S
C1268 N1267 1.351 . S
C1268 C1269 1.434 . S
C1269 C1260 1.429 . S
C1269 N1266 1.350 . S
C1269 C1268 1.434 . S
C1270 C1271 1.369 . S
C1270 C1272 1.419 1_565 S
C1270 H1274 0.930 . S
C1271 C1270 1.369 . S
C1271 C1280 1.429 . S
C1272 C1270 1.419 1_545 S
C1272 C1273 1.363 . S
C1272 H1275 0.929 . S
C1273 C1272 1.363 . S
C1273 C1279 1.428 . S
H1274 C1270 0.930 . S
H1275 C1272 0.929 . S
S1276 N1277 1.613 . S
S1276 N1278 1.610 1_565 S
N1277 S1276 1.613 . S
N1277 C1280 1.350 . S
N1278 S1276 1.610 1_545 S
N1278 C1279 1.351 . S
C1279 C1273 1.428 . S
C1279 N1278 1.351 . S
C1279 C1280 1.434 1_545 S
C1280 C1271 1.429 . S
C1280 N1277 1.350 . S
C1280 C1279 1.434 1_565 S
C1281 C1282 1.369 . S
C1281 C1283 1.419 . S
C1281 H1285 0.930 . S
C1282 C1281 1.369 . S
C1282 C1291 1.429 . S
C1283 C1281 1.419 . S
C1283 C1284 1.363 . S
C1283 H1286 0.929 . S
C1284 C1283 1.363 . S
C1284 C1290 1.428 . S
H1285 C1281 0.930 . S
H1286 C1283 0.929 . S
S1287 N1288 1.613 . S
S1287 N1289 1.610 . S
N1288 S1287 1.613 . S
N1288 C1291 1.350 . S
N1289 S1287 1.610 . S
N1289 C1290 1.351 . S
C1290 C1284 1.428 . S
C1290 N1289 1.351 . S
C1290 C1291 1.434 . S
C1291 C1282 1.429 . S
C1291 N1288 1.350 . S
C1291 C1290 1.434 . S
C1292 C1293 1.369 . S
C1292 C1294 1.419 . S
C1292 H1296 0.930 . S
C1293 C1292 1.369 . S
C1293 C1302 1.429 . S
C1294 C1292 1.419 . S
C1294 C1295 1.363 . S
C1294 H1297 0.929 . S
C1295 C1294 1.363 . S
C1295 C1301 1.428 . S
H1296 C1292 0.930 . S
H1297 C1294 0.929 . S
S1298 N1299 1.613 . S
S1298 N1300 1.610 . S
N1299 S1298 1.613 . S
N1299 C1302 1.350 . S
N1300 S1298 1.610 . S
N1300 C1301 1.351 . S
C1301 C1295 1.428 . S
C1301 N1300 1.351 . S
C1301 C1302 1.434 . S
C1302 C1293 1.429 . S
C1302 N1299 1.350 . S
C1302 C1301 1.434 . S
C1303 C1304 1.369 . S
C1303 C1305 1.419 . S
C1303 H1307 0.930 . S
C1304 C1303 1.369 . S
C1304 C1313 1.429 . S
C1305 C1303 1.419 . S
C1305 C1306 1.363 . S
C1305 H1308 0.929 . S
C1306 C1305 1.363 . S
C1306 C1312 1.428 . S
H1307 C1303 0.930 . S
H1308 C1305 0.929 . S
S1309 N1310 1.613 . S
S1309 N1311 1.610 . S
N1310 S1309 1.613 . S
N1310 C1313 1.350 . S
N1311 S1309 1.610 . S
N1311 C1312 1.351 . S
C1312 C1306 1.428 . S
C1312 N1311 1.351 . S
C1312 C1313 1.434 . S
C1313 C1304 1.429 . S
C1313 N1310 1.350 . S
C1313 C1312 1.434 . S
C1314 C1315 1.369 . S
C1314 C1316 1.419 . S
C1314 H1318 0.930 . S
C1315 C1314 1.369 . S
C1315 C1324 1.429 . S
C1316 C1314 1.419 . S
C1316 C1317 1.363 . S
C1316 H1319 0.929 1_565 S
C1317 C1316 1.363 . S
C1317 C1323 1.428 . S
H1318 C1314 0.930 . S
H1319 C1316 0.929 1_545 S
S1320 N1321 1.613 . S
S1320 N1322 1.610 . S
N1321 S1320 1.613 . S
N1321 C1324 1.350 . S
N1322 S1320 1.610 . S
N1322 C1323 1.351 . S
C1323 C1317 1.428 . S
C1323 N1322 1.351 . S
C1323 C1324 1.434 . S
C1324 C1315 1.429 . S
C1324 N1321 1.350 . S
C1324 C1323 1.434 . S
C1325 C1326 1.369 . S
C1325 C1327 1.419 . S
C1325 H1329 0.930 . S
C1326 C1325 1.369 . S
C1326 C1335 1.429 . S
C1327 C1325 1.419 . S
C1327 C1328 1.363 . S
C1327 H1330 0.929 . S
C1328 C1327 1.363 . S
C1328 C1334 1.428 . S
H1329 C1325 0.930 . S
H1330 C1327 0.929 . S
S1331 N1332 1.613 . S
S1331 N1333 1.610 . S
N1332 S1331 1.613 . S
N1332 C1335 1.350 . S
N1333 S1331 1.610 . S
N1333 C1334 1.351 . S
C1334 C1328 1.428 . S
C1334 N1333 1.351 . S
C1334 C1335 1.434 . S
C1335 C1326 1.429 . S
C1335 N1332 1.350 . S
C1335 C1334 1.434 . S
C1336 C1337 1.369 . S
C1336 C1338 1.419 . S
C1336 H1340 0.930 . S
C1337 C1336 1.369 . S
C1337 C1346 1.429 . S
C1338 C1336 1.419 . S
C1338 C1339 1.363 . S
C1338 H1341 0.929 . S
C1339 C1338 1.363 . S
C1339 C1345 1.428 . S
H1340 C1336 0.930 . S
H1341 C1338 0.929 . S
S1342 N1343 1.613 . S
S1342 N1344 1.610 . S
N1343 S1342 1.613 . S
N1343 C1346 1.350 . S
N1344 S1342 1.610 . S
N1344 C1345 1.351 . S
C1345 C1339 1.428 . S
C1345 N1344 1.351 . S
C1345 C1346 1.434 . S
C1346 C1337 1.429 . S
C1346 N1343 1.350 . S
C1346 C1345 1.434 . S
C1347 C1348 1.369 . S
C1347 C1349 1.419 . S
C1347 H1351 0.930 . S
C1348 C1347 1.369 . S
C1348 C1357 1.429 . S
C1349 C1347 1.419 . S
C1349 C1350 1.363 . S
C1349 H1352 0.929 . S
C1350 C1349 1.363 . S
C1350 C1356 1.428 . S
H1351 C1347 0.930 . S
H1352 C1349 0.929 . S
S1353 N1354 1.613 . S
S1353 N1355 1.610 . S
N1354 S1353 1.613 . S
N1354 C1357 1.350 1_455 S
N1355 S1353 1.610 . S
N1355 C1356 1.351 1_455 S
C1356 C1350 1.428 . S
C1356 N1355 1.351 1_655 S
C1356 C1357 1.434 . S
C1357 C1348 1.429 . S
C1357 N1354 1.350 1_655 S
C1357 C1356 1.434 . S
C1358 C1359 1.369 . S
C1358 C1360 1.419 . S
C1358 H1362 0.930 . S
C1359 C1358 1.369 . S
C1359 C1368 1.429 . S
C1360 C1358 1.419 . S
C1360 C1361 1.363 . S
C1360 H1363 0.929 . S
C1361 C1360 1.363 . S
C1361 C1367 1.428 . S
H1362 C1358 0.930 . S
H1363 C1360 0.929 . S
S1364 N1365 1.613 . S
S1364 N1366 1.610 . S
N1365 S1364 1.613 . S
N1365 C1368 1.350 . S
N1366 S1364 1.610 . S
N1366 C1367 1.351 . S
C1367 C1361 1.428 . S
C1367 N1366 1.351 . S
C1367 C1368 1.434 . S
C1368 C1359 1.429 . S
C1368 N1365 1.350 . S
C1368 C1367 1.434 . S
C1369 C1370 1.369 . S
C1369 C1371 1.419 . S
C1369 H1373 0.930 . S
C1370 C1369 1.369 . S
C1370 C1379 1.429 . S
C1371 C1369 1.419 . S
C1371 C1372 1.363 . S
C1371 H1374 0.929 1_545 S
C1372 C1371 1.363 . S
C1372 C1378 1.428 . S
H1373 C1369 0.930 . S
H1374 C1371 0.929 1_565 S
S1375 N1376 1.613 . S
S1375 N1377 1.610 . S
N1376 S1375 1.613 . S
N1376 C1379 1.350 . S
N1377 S1375 1.610 . S
N1377 C1378 1.351 . S
C1378 C1372 1.428 . S
C1378 N1377 1.351 . S
C1378 C1379 1.434 . S
C1379 C1370 1.429 . S
C1379 N1376 1.350 . S
C1379 C1378 1.434 . S
C1380 C1381 1.369 . S
C1380 C1382 1.419 . S
C1380 H1384 0.930 . S
C1381 C1380 1.369 . S
C1381 C1390 1.429 . S
C1382 C1380 1.419 . S
C1382 C1383 1.363 . S
C1382 H1385 0.929 . S
C1383 C1382 1.363 . S
C1383 C1389 1.428 . S
H1384 C1380 0.930 . S
H1385 C1382 0.929 . S
S1386 N1387 1.613 . S
S1386 N1388 1.610 . S
N1387 S1386 1.613 . S
N1387 C1390 1.350 . S
N1388 S1386 1.610 . S
N1388 C1389 1.351 . S
C1389 C1383 1.428 . S
C1389 N1388 1.351 . S
C1389 C1390 1.434 . S
C1390 C1381 1.429 . S
C1390 N1387 1.350 . S
C1390 C1389 1.434 . S
C1391 C1392 1.369 . S
C1391 C1393 1.419 . S
C1391 H1395 0.930 . S
C1392 C1391 1.369 . S
C1392 C1401 1.429 . S
C1393 C1391 1.419 . S
C1393 C1394 1.363 . S
C1393 H1396 0.929 . S
C1394 C1393 1.363 . S
C1394 C1400 1.428 . S
H1395 C1391 0.930 . S
H1396 C1393 0.929 . S
S1397 N1398 1.613 . S
S1397 N1399 1.610 . S
N1398 S1397 1.613 . S
N1398 C1401 1.350 . S
N1399 S1397 1.610 . S
N1399 C1400 1.351 . S
C1400 C1394 1.428 . S
C1400 N1399 1.351 . S
C1400 C1401 1.434 . S
C1401 C1392 1.429 . S
C1401 N1398 1.350 . S
C1401 C1400 1.434 . S
C1402 C1403 1.369 . S
C1402 C1404 1.419 . S
C1402 H1406 0.930 . S
C1403 C1402 1.369 . S
C1403 C1412 1.429 . S
C1404 C1402 1.419 . S
C1404 C1405 1.363 . S
C1404 H1407 0.929 . S
C1405 C1404 1.363 . S
C1405 C1411 1.428 . S
H1406 C1402 0.930 . S
H1407 C1404 0.929 . S
S1408 N1409 1.613 . S
S1408 N1410 1.610 . S
N1409 S1408 1.613 . S
N1409 C1412 1.350 . S
N1410 S1408 1.610 . S
N1410 C1411 1.351 . S
C1411 C1405 1.428 . S
C1411 N1410 1.351 . S
C1411 C1412 1.434 . S
C1412 C1403 1.429 . S
C1412 N1409 1.350 . S
C1412 C1411 1.434 . S
C1413 C1414 1.369 . S
C1413 C1415 1.419 . S
C1413 H1417 0.930 . S
C1414 C1413 1.369 . S
C1414 C1423 1.429 . S
C1415 C1413 1.419 . S
C1415 C1416 1.363 . S
C1415 H1418 0.929 . S
C1416 C1415 1.363 . S
C1416 C1422 1.428 . S
H1417 C1413 0.930 . S
H1418 C1415 0.929 . S
S1419 N1420 1.613 . S
S1419 N1421 1.610 . S
N1420 S1419 1.613 . S
N1420 C1423 1.350 . S
N1421 S1419 1.610 . S
N1421 C1422 1.351 . S
C1422 C1416 1.428 . S
C1422 N1421 1.351 . S
C1422 C1423 1.434 . S
C1423 C1414 1.429 . S
C1423 N1420 1.350 . S
C1423 C1422 1.434 . S
C1424 C1425 1.369 . S
C1424 C1426 1.419 . S
C1424 H1428 0.930 . S
C1425 C1424 1.369 . S
C1425 C1434 1.429 . S
C1426 C1424 1.419 . S
C1426 C1427 1.363 . S
C1426 H1429 0.929 . S
C1427 C1426 1.363 . S
C1427 C1433 1.428 . S
H1428 C1424 0.930 . S
H1429 C1426 0.929 . S
S1430 N1431 1.613 . S
S1430 N1432 1.610 . S
N1431 S1430 1.613 . S
N1431 C1434 1.350 . S
N1432 S1430 1.610 . S
N1432 C1433 1.351 . S
C1433 C1427 1.428 . S
C1433 N1432 1.351 . S
C1433 C1434 1.434 . S
C1434 C1425 1.429 . S
C1434 N1431 1.350 . S
C1434 C1433 1.434 . S
C1435 C1436 1.369 . S
C1435 C1437 1.419 . S
C1435 H1439 0.930 . S
C1436 C1435 1.369 . S
C1436 C1445 1.429 . S
C1437 C1435 1.419 . S
C1437 C1438 1.363 . S
C1437 H1440 0.929 . S
C1438 C1437 1.363 . S
C1438 C1444 1.428 . S
H1439 C1435 0.930 . S
H1440 C1437 0.929 . S
S1441 N1442 1.613 . S
S1441 N1443 1.610 . S
N1442 S1441 1.613 . S
N1442 C1445 1.350 . S
N1443 S1441 1.610 . S
N1443 C1444 1.351 . S
C1444 C1438 1.428 . S
C1444 N1443 1.351 . S
C1444 C1445 1.434 . S
C1445 C1436 1.429 . S
C1445 N1442 1.350 . S
C1445 C1444 1.434 . S
C1446 C1447 1.369 . S
C1446 C1448 1.419 . S
C1446 H1450 0.930 . S
C1447 C1446 1.369 . S
C1447 C1456 1.429 . S
C1448 C1446 1.419 . S
C1448 C1449 1.363 . S
C1448 H1451 0.929 . S
C1449 C1448 1.363 . S
C1449 C1455 1.428 . S
H1450 C1446 0.930 . S
H1451 C1448 0.929 . S
S1452 N1453 1.613 . S
S1452 N1454 1.610 . S
N1453 S1452 1.613 . S
N1453 C1456 1.350 . S
N1454 S1452 1.610 . S
N1454 C1455 1.351 . S
C1455 C1449 1.428 . S
C1455 N1454 1.351 . S
C1455 C1456 1.434 . S
C1456 C1447 1.429 . S
C1456 N1453 1.350 . S
C1456 C1455 1.434 . S
C1457 C1458 1.369 . S
C1457 C1459 1.419 . S
C1457 H1461 0.930 . S
C1458 C1457 1.369 . S
C1458 C1467 1.429 . S
C1459 C1457 1.419 . S
C1459 C1460 1.363 . S
C1459 H1462 0.929 . S
C1460 C1459 1.363 . S
C1460 C1466 1.428 . S
H1461 C1457 0.930 . S
H1462 C1459 0.929 . S
S1463 N1464 1.613 . S
S1463 N1465 1.610 . S
N1464 S1463 1.613 . S
N1464 C1467 1.350 . S
N1465 S1463 1.610 . S
N1465 C1466 1.351 . S
C1466 C1460 1.428 . S
C1466 N1465 1.351 . S
C1466 C1467 1.434 . S
C1467 C1458 1.429 . S
C1467 N1464 1.350 . S
C1467 C1466 1.434 . S
C1468 C1469 1.369 . S
C1468 C1470 1.419 . S
C1468 H1472 0.930 . S
C1469 C1468 1.369 . S
C1469 C1478 1.429 . S
C1470 C1468 1.419 . S
C1470 C1471 1.363 . S
C1470 H1473 0.929 . S
C1471 C1470 1.363 . S
C1471 C1477 1.428 . S
H1472 C1468 0.930 . S
H1473 C1470 0.929 . S
S1474 N1475 1.613 . S
S1474 N1476 1.610 . S
N1475 S1474 1.613 . S
N1475 C1478 1.350 . S
N1476 S1474 1.610 . S
N1476 C1477 1.351 . S
C1477 C1471 1.428 . S
C1477 N1476 1.351 . S
C1477 C1478 1.434 . S
C1478 C1469 1.429 . S
C1478 N1475 1.350 . S
C1478 C1477 1.434 . S
C1479 C1480 1.369 . S
C1479 C1481 1.419 . S
C1479 H1483 0.930 . S
C1480 C1479 1.369 . S
C1480 C1489 1.429 . S
C1481 C1479 1.419 . S
C1481 C1482 1.363 . S
C1481 H1484 0.929 . S
C1482 C1481 1.363 . S
C1482 C1488 1.428 . S
H1483 C1479 0.930 . S
H1484 C1481 0.929 . S
S1485 N1486 1.613 . S
S1485 N1487 1.610 . S
N1486 S1485 1.613 . S
N1486 C1489 1.350 . S
N1487 S1485 1.610 . S
N1487 C1488 1.351 . S
C1488 C1482 1.428 . S
C1488 N1487 1.351 . S
C1488 C1489 1.434 . S
C1489 C1480 1.429 . S
C1489 N1486 1.350 . S
C1489 C1488 1.434 . S
C1490 C1491 1.369 . S
C1490 C1492 1.419 . S
C1490 H1494 0.930 . S
C1491 C1490 1.369 . S
C1491 C1500 1.429 . S
C1492 C1490 1.419 . S
C1492 C1493 1.363 . S
C1492 H1495 0.929 . S
C1493 C1492 1.363 . S
C1493 C1499 1.428 . S
H1494 C1490 0.930 . S
H1495 C1492 0.929 . S
S1496 N1497 1.613 . S
S1496 N1498 1.610 . S
N1497 S1496 1.613 . S
N1497 C1500 1.350 . S
N1498 S1496 1.610 . S
N1498 C1499 1.351 . S
C1499 C1493 1.428 . S
C1499 N1498 1.351 . S
C1499 C1500 1.434 . S
C1500 C1491 1.429 . S
C1500 N1497 1.350 . S
C1500 C1499 1.434 . S
C1501 C1502 1.369 . S
C1501 C1503 1.419 . S
C1501 H1505 0.930 . S
C1502 C1501 1.369 . S
C1502 C1511 1.429 . S
C1503 C1501 1.419 . S
C1503 C1504 1.363 . S
C1503 H1506 0.929 . S
C1504 C1503 1.363 . S
C1504 C1510 1.428 . S
H1505 C1501 0.930 . S
H1506 C1503 0.929 . S
S1507 N1508 1.613 . S
S1507 N1509 1.610 . S
N1508 S1507 1.613 . S
N1508 C1511 1.350 . S
N1509 S1507 1.610 . S
N1509 C1510 1.351 . S
C1510 C1504 1.428 . S
C1510 N1509 1.351 . S
C1510 C1511 1.434 . S
C1511 C1502 1.429 . S
C1511 N1508 1.350 . S
C1511 C1510 1.434 . S
C919 C124 1.461 . S
C921 C229 1.386 . S
C930 C130 1.500 . S
C932 C313 1.425 . S
C941 C115 1.484 . S
C943 C393 1.447 . S
C952 C106 1.465 . S
C954 C309 1.423 . S
C965 C397 1.383 . S
C963 C85 1.457 . S
C974 C97 1.435 . S
C976 C225 1.392 . S
C987 C218 1.395 . S
C985 C103 1.480 . S
C998 C302 1.404 . S
C996 C88 1.479 . S
C1007 C94 1.485 . S
C1009 C404 1.441 . S
C1018 C121 1.461 . S
C1020 C320 1.425 . S
C1029 C133 1.436 . S
C1031 C386 1.363 . S
C1042 C236 1.408 . S
C1040 C112 1.456 . S
C1053 C481 1.385 . S
C1051 C16 1.462 . S
C1062 C22 1.500 . S
C1064 C565 1.431 . S
C1073 C7 1.488 . S
C1075 C645 1.441 . S
C1084 C160 1.463 . S
C1086 C561 1.426 . S
C1095 C139 1.459 . S
C1097 C649 1.377 . S
C1106 C151 1.433 . S
C1108 C477 1.395 . S
C1117 C157 1.480 . S
C1119 C470 1.395 . S
C1128 C142 1.481 . S
C1130 C554 1.410 . S
C1141 C656 1.444 . S
C1139 C148 1.484 . S
C1150 C13 1.463 . S
C1152 C572 1.419 . S
C1163 C638 1.362 . S
C1161 C25 1.437 . S
C1172 C4 1.452 . S
C1174 C488 1.414 . S
C1185 C733 1.386 . S
C1183 C70 1.461 . S
C1194 C76 1.502 . S
C1196 C817 1.425 . S
C1207 C897 1.441 . S
C1205 C61 1.488 . S
C1218 C813 1.427 . S
C1216 C52 1.462 . S
C1229 C901 1.377 . S
C1227 C31 1.456 . S
C1238 C43 1.435 . S
C1240 C729 1.393 . S
C1249 C49 1.482 . S
C1251 C722 1.399 . S
C1260 C34 1.478 . S
C1262 C806 1.409 . S
C1273 C908 1.441 . S
C1271 C40 1.485 . S
C1282 C67 1.461 . S
C1284 C824 1.426 . S
C1293 C79 1.436 . S
C1295 C890 1.354 . S
C1304 C58 1.456 . S
C1306 C740 1.409 . S
C1315 C140 1.507 . S
C1317 C232 1.406 . S
C1328 C316 1.383 . S
C1326 C149 1.515 . S
C1337 C158 1.516 . S
C1339 C388 1.394 . S
C1348 C59 1.528 . S
C1350 C304 1.389 . S
C1359 C68 1.504 . S
C1361 C400 1.386 . S
C1372 C220 1.407 . S
C1370 C77 1.507 . S
C1381 C32 1.506 . S
C1383 C484 1.397 . S
C1392 C41 1.515 . S
C1394 C568 1.375 . S
C1403 C50 1.516 . S
C1405 C640 1.390 . S
C1414 C113 1.528 . S
C1416 C556 1.397 . S
C1427 C652 1.382 . S
C1425 C122 1.504 . S
C1436 C131 1.506 . S
C1438 C472 1.398 . S
C1447 C86 1.506 . S
C1449 C736 1.398 . S
C1458 C95 1.515 . S
C1460 C820 1.386 . S
C1471 C892 1.389 . S
C1469 C104 1.516 . S
C1480 C5 1.528 . S
C1482 C808 1.396 . S
C1491 C14 1.504 . S
C1493 C904 1.384 . S
C1502 C23 1.506 . S
C1504 C724 1.399 . S
