# Generated by pormake.
# Topology pyr, (3,6)-cn, num edge types: 1
# Building blocks:
#     Node 0, Type 0, BuildingBlock: ESEHIV_clean_linker_0, # of connection points: 3
#     Node 1, Type 0, BuildingBlock: ESEHIV_clean_linker_0, # of connection points: 3
#     Node 2, Type 0, BuildingBlock: ESEHIV_clean_linker_0, # of connection points: 3
#     Node 3, Type 0, BuildingBlock: ESEHIV_clean_linker_0, # of connection points: 3
#     Node 4, Type 0, BuildingBlock: ESEHIV_clean_linker_0, # of connection points: 3
#     Node 5, Type 0, BuildingBlock: ESEHIV_clean_linker_0, # of connection points: 3
#     Node 6, Type 0, BuildingBlock: ESEHIV_clean_linker_0, # of connection points: 3
#     Node 7, Type 0, BuildingBlock: ESEHIV_clean_linker_0, # of connection points: 3
#     Node 8, Type 1, BuildingBlock: VOLQOD_clean_sbu_1, # of connection points: 6
#     Node 9, Type 1, BuildingBlock: VOLQOD_clean_sbu_1, # of connection points: 6
#     Node 10, Type 1, BuildingBlock: VOLQOD_clean_sbu_1, # of connection points: 6
#     Node 11, Type 1, BuildingBlock: VOLQOD_clean_sbu_1, # of connection points: 6
#     Edge 12, Type (0, 1), BuildingBlock: TEMPAE_clean_linker_10, # of connection points: 2
#     Edge 13, Type (0, 1), BuildingBlock: TEMPAE_clean_linker_10, # of connection points: 2
#     Edge 14, Type (0, 1), BuildingBlock: TEMPAE_clean_linker_10, # of connection points: 2
#     Edge 15, Type (0, 1), BuildingBlock: TEMPAE_clean_linker_10, # of connection points: 2
#     Edge 16, Type (0, 1), BuildingBlock: TEMPAE_clean_linker_10, # of connection points: 2
#     Edge 17, Type (0, 1), BuildingBlock: TEMPAE_clean_linker_10, # of connection points: 2
#     Edge 18, Type (0, 1), BuildingBlock: TEMPAE_clean_linker_10, # of connection points: 2
#     Edge 19, Type (0, 1), BuildingBlock: TEMPAE_clean_linker_10, # of connection points: 2
#     Edge 20, Type (0, 1), BuildingBlock: TEMPAE_clean_linker_10, # of connection points: 2
#     Edge 21, Type (0, 1), BuildingBlock: TEMPAE_clean_linker_10, # of connection points: 2
#     Edge 22, Type (0, 1), BuildingBlock: TEMPAE_clean_linker_10, # of connection points: 2
#     Edge 23, Type (0, 1), BuildingBlock: TEMPAE_clean_linker_10, # of connection points: 2
#     Edge 24, Type (0, 1), BuildingBlock: TEMPAE_clean_linker_10, # of connection points: 2
#     Edge 25, Type (0, 1), BuildingBlock: TEMPAE_clean_linker_10, # of connection points: 2
#     Edge 26, Type (0, 1), BuildingBlock: TEMPAE_clean_linker_10, # of connection points: 2
#     Edge 27, Type (0, 1), BuildingBlock: TEMPAE_clean_linker_10, # of connection points: 2
#     Edge 28, Type (0, 1), BuildingBlock: TEMPAE_clean_linker_10, # of connection points: 2
#     Edge 29, Type (0, 1), BuildingBlock: TEMPAE_clean_linker_10, # of connection points: 2
#     Edge 30, Type (0, 1), BuildingBlock: TEMPAE_clean_linker_10, # of connection points: 2
#     Edge 31, Type (0, 1), BuildingBlock: TEMPAE_clean_linker_10, # of connection points: 2
#     Edge 32, Type (0, 1), BuildingBlock: TEMPAE_clean_linker_10, # of connection points: 2
#     Edge 33, Type (0, 1), BuildingBlock: TEMPAE_clean_linker_10, # of connection points: 2
#     Edge 34, Type (0, 1), BuildingBlock: TEMPAE_clean_linker_10, # of connection points: 2
#     Edge 35, Type (0, 1), BuildingBlock: TEMPAE_clean_linker_10, # of connection points: 2
# Relax obj value: 0.035
# Max RMSD: 0.118
# Mean RMSD: 0.043
data_MOF--net-pry--node1-VOLQOD_clean_sbu_1--node2-ESEHIV_clean_linker_0--edge1-TEMPAE_clean_linker_10
_symmetry_space_group_name_H-M    P1
_symmetry_Int_Tables_number       1
_symmetry_cell_setting            triclinic
loop_
_symmetry_equiv_pos_as_xyz
'x, y, z'
_cell_length_a     35.684559
_cell_length_b     35.673459
_cell_length_c     35.850236
_cell_angle_alpha  90.140548
_cell_angle_beta   90.163184
_cell_angle_gamma 90.252167
loop_
_atom_site_label
_atom_site_type_symbol
_atom_site_fract_x
_atom_site_fract_y
_atom_site_fract_z
_atom_type_partial_charge
H0 H 0.06834 0.15436 0.15796 0.0
H1 H 0.14981 0.06579 0.14895 0.0
H2 H 0.15312 0.15904 0.07356 0.0
C3 C 0.09162 0.14114 0.14385 0.0
C4 C 0.10786 0.15943 0.11328 0.0
C5 C 0.10689 0.10756 0.15765 0.0
C6 C 0.13785 0.09185 0.13917 0.0
C7 C 0.15503 0.11057 0.10936 0.0
C8 C 0.13992 0.14439 0.09655 0.0
H9 H 0.37222 0.94661 0.65723 0.0
H10 H 0.45557 0.86028 0.65677 0.0
H11 H 0.3759 0.86599 0.56727 0.0
C12 C 0.38553 0.92343 0.64295 0.0
C13 C 0.37006 0.90904 0.60963 0.0
C14 C 0.41653 0.90619 0.65975 0.0
C15 C 0.43252 0.87451 0.64311 0.0
C16 C 0.41762 0.86001 0.60994 0.0
C17 C 0.38698 0.8776 0.59301 0.0
H18 H 0.63805 0.36035 0.95129 0.0
H19 H 0.64413 0.44547 0.86677 0.0
H20 H 0.55658 0.36226 0.86265 0.0
C21 C 0.62635 0.37372 0.92676 0.0
C22 C 0.59466 0.35814 0.9093 0.0
C23 C 0.64421 0.40529 0.91167 0.0
C24 C 0.62982 0.42169 0.87913 0.0
C25 C 0.5981 0.40639 0.86144 0.0
C26 C 0.58046 0.37478 0.8768 0.0
H27 H 0.86354 0.64823 0.45616 0.0
H28 H 0.94579 0.6527 0.36837 0.0
H29 H 0.8584 0.56964 0.36537 0.0
C30 C 0.87522 0.63734 0.43047 0.0
C31 C 0.85756 0.60687 0.4128 0.0
C32 C 0.90732 0.65412 0.41491 0.0
C33 C 0.92203 0.63927 0.38164 0.0
C34 C 0.90453 0.60882 0.36374 0.0
C35 C 0.8725 0.59258 0.37961 0.0
H36 H 0.88038 0.96963 0.88725 0.0
H37 H 0.97032 0.89057 0.88251 0.0
H38 H 0.88218 0.87662 0.96312 0.0
C39 C 0.89404 0.94496 0.89836 0.0
C40 C 0.87787 0.9254 0.92822 0.0
C41 C 0.92675 0.93194 0.88124 0.0
C42 C 0.94505 0.90051 0.89589 0.0
C43 C 0.92942 0.88035 0.92578 0.0
C44 C 0.8958 0.89316 0.94175 0.0
H45 H 0.55543 0.13183 0.38726 0.0
H46 H 0.64668 0.05343 0.38632 0.0
H47 H 0.6381 0.13401 0.47476 0.0
C48 C 0.58002 0.12006 0.40045 0.0
C49 C 0.5944 0.13679 0.43304 0.0
C50 C 0.59845 0.08981 0.38331 0.0
C51 C 0.631 0.07541 0.40009 0.0
C52 C 0.64541 0.09148 0.4329 0.0
C53 C 0.62665 0.1216 0.44954 0.0
H54 H 0.38078 0.62588 0.04228 0.0
H55 H 0.36822 0.54345 0.12872 0.0
H56 H 0.44921 0.63199 0.14069 0.0
C57 C 0.38904 0.61451 0.06904 0.0
C58 C 0.41733 0.6326 0.08965 0.0
C59 C 0.37002 0.58317 0.08344 0.0
C60 C 0.38244 0.56768 0.11735 0.0
C61 C 0.41184 0.58441 0.13777 0.0
C62 C 0.42869 0.61718 0.12383 0.0
H63 H 0.04893 0.38417 0.64302 0.0
H64 H 0.13526 0.3807 0.56062 0.0
H65 H 0.12289 0.47898 0.62924 0.0
C66 C 0.0711 0.39857 0.62815 0.0
C67 C 0.08368 0.43407 0.64013 0.0
C68 C 0.08918 0.37984 0.59897 0.0
C69 C 0.12015 0.39644 0.58161 0.0
C70 C 0.1328 0.43215 0.59259 0.0
C71 C 0.11357 0.45122 0.62102 0.0
O72 O 0.99814 0.09508 0.5504 0.0
Zn73 Zn 0.97959 0.04166 0.54799 0.0
O74 O 0.01185 0.01075 0.5163 0.0
Zn75 Zn 0.98374 0.99189 0.47334 0.0
Zn76 Zn 0.05389 0.04101 0.49821 0.0
Zn77 Zn 0.03 0.96819 0.54545 0.0
O78 O 0.9834 0.93576 0.47202 0.0
O79 O 0.01418 0.9184 0.52296 0.0
O80 O 0.92639 0.0414 0.52855 0.0
O81 O 0.93027 0.00891 0.47571 0.0
O82 O 0.00528 0.00955 0.42464 0.0
O83 O 0.05366 0.04472 0.44234 0.0
O84 O 0.1034 0.01921 0.51478 0.0
O85 O 0.97887 0.02291 0.60084 0.0
O86 O 0.08609 0.97002 0.54882 0.0
O87 O 0.01126 0.97002 0.59819 0.0
C88 C 0.02682 0.11151 0.53699 0.0
C89 C 0.99605 0.91028 0.49333 0.0
C90 C 0.0329 0.03077 0.41691 0.0
C91 C 0.91132 0.02766 0.49925 0.0
C92 C 0.11141 0.99128 0.53538 0.0
C93 C 0.9922 0.99386 0.61645 0.0
O94 O 0.05051 0.09401 0.51705 0.0
O95 O 0.49836 0.08304 0.98447 0.0
Zn96 Zn 0.47882 0.03016 0.98834 0.0
O97 O 0.51157 -0.00032 0.01975 0.0
Zn98 Zn 0.53148 0.95821 0.99022 0.0
Zn99 Zn 0.55338 0.03014 0.03824 0.0
Zn100 Zn 0.4827 0.98018 0.06189 0.0
O101 O 0.51371 0.90874 0.01022 0.0
O102 O 0.48101 0.92367 0.06071 0.0
O103 O 0.4748 0.009 0.93641 0.0
O104 O 0.5146 0.96129 0.93669 0.0
O105 O 0.5878 0.95778 0.99077 0.0
O106 O 0.60301 0.00948 0.02194 0.0
O107 O 0.55415 0.03136 0.09438 0.0
O108 O 0.42681 0.03291 0.00914 0.0
O109 O 0.50539 0.99625 0.11085 0.0
O110 O 0.42953 -0.00071 0.06107 0.0
C111 C 0.52692 0.09984 0.99795 0.0
C112 C 0.49431 0.89925 0.03843 0.0
C113 C 0.61235 0.98023 0.00391 0.0
C114 C 0.49135 0.98224 0.91975 0.0
C115 C 0.53362 0.0165 0.11937 0.0
C116 C 0.41136 0.01966 0.03824 0.0
O117 O 0.55022 0.08294 0.01891 0.0
O118 O 0.53572 0.50885 0.58711 0.0
Zn119 Zn 0.53328 0.5303 0.5353 0.0
O120 O 0.49948 0.50152 0.50288 0.0
Zn121 Zn 0.52692 0.48054 0.46053 0.0
Zn122 Zn 0.47738 0.46076 0.53181 0.0
Zn123 Zn 0.46014 0.53442 0.48393 0.0
O124 O 0.50409 0.49575 0.41135 0.0
O125 O 0.46038 0.5366 0.42794 0.0
O126 O 0.58545 0.53119 0.51402 0.0
O127 O 0.58044 0.499 0.46102 0.0
O128 O 0.52717 0.4241 0.4622 0.0
O129 O 0.4919 0.41057 0.51133 0.0
O130 O 0.42121 0.4642 0.53165 0.0
O131 O 0.51609 0.58372 0.5406 0.0
O132 O 0.40903 0.51616 0.4999 0.0
O133 O 0.46676 0.58704 0.50284 0.0
C134 C 0.51887 0.48165 0.60281 0.0
C135 C 0.47857 0.51909 0.40293 0.0
C136 C 0.5119 0.40029 0.48386 0.0
C137 C 0.59978 0.51822 0.48417 0.0
C138 C 0.39799 0.48768 0.51829 0.0
C139 C 0.48975 0.60229 0.52551 0.0
O140 O 0.49549 0.46128 0.58503 0.0
O141 O 0.96764 0.5046 0.09017 0.0
Zn142 Zn 0.97004 0.48146 0.03894 0.0
O143 O 0.00155 0.51134 0.00549 0.0
Zn144 Zn 0.97119 0.5329 0.96575 0.0
Zn145 Zn 0.02533 0.55183 0.03376 0.0
Zn146 Zn 0.03977 0.47943 0.9831 0.0
O147 O 0.99085 0.51935 0.91478 0.0
O148 O 0.03503 0.47758 0.92729 0.0
O149 O 0.91717 0.47723 0.01869 0.0
O150 O 0.91866 0.51303 0.96805 0.0
O151 O 0.96993 0.58908 0.96938 0.0
O152 O 0.01389 0.60241 0.01145 0.0
O153 O 0.08116 0.54504 0.03539 0.0
O154 O 0.99092 0.42934 0.04503 0.0
O155 O 0.0917 0.49813 0.99587 0.0
O156 O 0.0363 0.42685 0.00279 0.0
C157 C 0.98357 0.533 0.10495 0.0
C158 C 0.01529 0.49583 0.90401 0.0
C159 C 0.9897 0.61278 0.98746 0.0
C160 C 0.90115 0.49137 0.99021 0.0
C161 C 0.10357 0.52343 0.01814 0.0
C162 C 0.01656 0.41143 0.02804 0.0
O163 O 0.00626 0.55341 0.08654 0.0
C164 C 0.11826 0.07467 0.21849 0.0
C165 C 0.09297 0.09105 0.19327 0.0
C166 C 0.10646 0.06181 0.25344 0.0
C167 C 0.0687 0.06664 0.26418 0.0
C168 C 0.04276 0.08236 0.23879 0.0
C169 C 0.05508 0.09382 0.20342 0.0
C170 C 0.13483 0.04438 0.27943 0.0
C171 C 0.00239 0.08863 0.24957 0.0
C172 C 0.03396 0.01378 0.3493 0.0
C173 C 0.0407 0.04008 0.37766 0.0
C174 C 0.04266 0.02206 0.31204 0.0
C175 C 0.05729 0.05785 0.303 0.0
C176 C 0.06292 0.08489 0.33147 0.0
C177 C 0.05511 0.07545 0.36856 0.0
C178 C 0.03738 0.99216 0.28258 0.0
C179 C 0.07755 0.1237 0.32283 0.0
H180 H 0.14775 0.07303 0.21168 0.0
H181 H 0.03506 0.10567 0.18403 0.0
H182 H 0.14041 0.06359 0.3032 0.0
H183 H 0.12373 0.01779 0.2911 0.0
H184 H 0.16183 0.0385 0.26525 0.0
H185 H 0.98531 0.09935 0.22597 0.0
H186 H 0.98961 0.06219 0.25973 0.0
H187 H 0.00111 0.1092 0.27281 0.0
H188 H 0.02296 0.98635 0.35642 0.0
H189 H 0.05988 0.09595 0.39048 0.0
H190 H 0.06493 0.98495 0.27026 0.0
H191 H 0.01945 0.00272 0.25963 0.0
H192 H 0.02449 0.96623 0.29399 0.0
H193 H 0.10663 0.1219 0.31216 0.0
H194 H 0.07753 0.14231 0.34772 0.0
H195 H 0.06025 0.1368 0.30068 0.0
C196 C 0.44385 0.95505 0.70187 0.0
C197 C 0.42962 0.91878 0.69677 0.0
C198 C 0.4558 0.96724 0.73725 0.0
C199 C 0.45233 0.94283 0.76818 0.0
C200 C 0.43763 0.90623 0.76304 0.0
C201 C 0.42686 0.8945 0.72724 0.0
C202 C 0.47215 0.00611 0.74155 0.0
C203 C 0.43267 0.87969 0.79543 0.0
C204 C 0.50849 0.95657 0.85722 0.0
C205 C 0.48234 0.97441 0.88026 0.0
C206 C 0.49962 0.94751 0.82012 0.0
C207 C 0.4634 0.95556 0.80614 0.0
C208 C 0.43704 0.97396 0.82917 0.0
C209 C 0.44701 0.98361 0.86584 0.0
C210 C 0.52876 0.92875 0.79608 0.0
C211 C 0.39785 0.98221 0.81555 0.0
H212 H 0.44594 0.97366 0.67809 0.0
H213 H 0.41544 0.86657 0.72312 0.0
H214 H 0.45446 0.023 0.76056 0.0
H215 H 0.50045 0.00449 0.75434 0.0
H216 H 0.47439 0.02098 0.71445 0.0
H217 H 0.42023 0.85243 0.78674 0.0
H218 H 0.46012 0.87428 0.80894 0.0
H219 H 0.41427 0.89259 0.81676 0.0
H220 H 0.53595 0.94975 0.86821 0.0
H221 H 0.42664 0.99718 0.88367 0.0
H222 H 0.532 0.94413 0.76941 0.0
H223 H 0.51957 0.89982 0.78909 0.0
H224 H 0.55651 0.9273 0.81013 0.0
H225 H 0.39889 -0.00092 0.78963 0.0
H226 H 0.38104 0.99759 0.83661 0.0
H227 H 0.3832 0.95555 0.80868 0.0
C228 C 0.61078 0.42258 0.79517 0.0
C229 C 0.58555 0.42101 0.82497 0.0
C230 C 0.59893 0.43369 0.75958 0.0
C231 C 0.56112 0.44422 0.75394 0.0
C232 C 0.53577 0.44369 0.78427 0.0
C233 C 0.54821 0.43158 0.81942 0.0
C234 C 0.62662 0.43311 0.72779 0.0
C235 C 0.49548 0.4555 0.77949 0.0
C236 C 0.54198 0.50036 0.66613 0.0
C237 C 0.52765 0.47269 0.64211 0.0
C238 C 0.55176 0.49179 0.70308 0.0
C239 C 0.54798 0.45448 0.71595 0.0
C240 C 0.5332 0.42651 0.69191 0.0
C241 C 0.5228 0.43606 0.6554 0.0
C242 C 0.56661 0.52252 0.72818 0.0
C243 C 0.52947 0.38625 0.70436 0.0
H244 H 0.63955 0.41392 0.79948 0.0
H245 H 0.52881 0.43039 0.84261 0.0
H246 H 0.61676 0.4134 0.70583 0.0
H247 H 0.62863 0.46128 0.7149 0.0
H248 H 0.65506 0.42447 0.73695 0.0
H249 H 0.48003 0.45575 0.80636 0.0
H250 H 0.4942 0.48391 0.76704 0.0
H251 H 0.48092 0.43606 0.76002 0.0
H252 H 0.54546 0.52879 0.65605 0.0
H253 H 0.51196 0.41452 0.63685 0.0
H254 H 0.59619 0.51671 0.73571 0.0
H255 H 0.55037 0.52337 0.75452 0.0
H256 H 0.56526 0.55053 0.71479 0.0
H257 H 0.55749 0.37505 0.71172 0.0
H258 H 0.51686 0.36803 0.68246 0.0
H259 H 0.51187 0.38454 0.72975 0.0
C260 C 0.8926 0.59529 0.29657 0.0
C261 C 0.91764 0.59619 0.32671 0.0
C262 C 0.90457 0.58468 0.26089 0.0
C263 C 0.94234 0.57406 0.25544 0.0
C264 C 0.96766 0.57445 0.28595 0.0
C265 C 0.95507 0.58597 0.32123 0.0
C266 C 0.8769 0.58536 0.22893 0.0
C267 C 0.00795 0.56264 0.28132 0.0
C268 C 0.96055 0.51598 0.16855 0.0
C269 C 0.97486 0.54302 0.14403 0.0
C270 C 0.95108 0.52542 0.20535 0.0
C271 C 0.95524 0.56297 0.21761 0.0
C272 C 0.97002 0.59031 0.1931 0.0
C273 C 0.98002 0.57992 0.15671 0.0
C274 C 0.93609 0.49535 0.23093 0.0
C275 C 0.9742 0.63078 0.20494 0.0
H276 H 0.86375 0.60369 0.3008 0.0
H277 H 0.97434 0.58663 0.34467 0.0
H278 H 0.88718 0.60442 0.20675 0.0
H279 H 0.87423 0.557 0.21644 0.0
H280 H 0.84867 0.59482 0.23781 0.0
H281 H 0.02372 0.56342 0.30807 0.0
H282 H 0.00913 0.53376 0.2698 0.0
H283 H 0.02223 0.58132 0.2611 0.0
H284 H 0.95684 0.48734 0.159 0.0
H285 H 0.99089 0.60098 0.13781 0.0
H286 H 0.90664 0.50163 0.23843 0.0
H287 H 0.95253 0.49485 0.25725 0.0
H288 H 0.93703 0.46706 0.21795 0.0
H289 H 0.9463 0.64245 0.2119 0.0
H290 H 0.98705 0.64839 0.18285 0.0
H291 H 0.99175 0.63283 0.23044 0.0
C292 C 0.22214 0.12011 0.09287 0.0
C293 C 0.19078 0.09641 0.09414 0.0
C294 C 0.25727 0.10642 0.08215 0.0
C295 C 0.2609 0.06824 0.07194 0.0
C296 C 0.22901 0.04448 0.07195 0.0
C297 C 0.19432 0.05879 0.08343 0.0
C298 C 0.29071 0.13252 0.08298 0.0
C299 C 0.23171 0.00382 0.06055 0.0
C300 C 0.34885 0.04383 0.01803 0.0
C301 C 0.37195 0.02948 0.04629 0.0
C302 C 0.31213 0.05536 0.0257 0.0
C303 C 0.29843 0.05304 0.06262 0.0
C304 C 0.32133 0.0379 0.09113 0.0
C305 C 0.35773 0.02601 0.08255 0.0
C306 C 0.28828 0.07076 0.99448 0.0
C307 C 0.30784 0.03543 0.13094 0.0
H308 H 0.21947 0.14908 0.10165 0.0
H309 H 0.16996 0.04055 0.0843 0.0
H310 H 0.31167 0.12216 0.10338 0.0
H311 H 0.30445 0.13308 0.05528 0.0
H312 H 0.28294 0.16162 0.09076 0.0
H313 H 0.20386 0.98979 0.05971 0.0
H314 H 0.24484 0.00145 0.03263 0.0
H315 H 0.24989 0.98857 0.08051 0.0
H316 H 0.35954 0.04629 0.98987 0.0
H317 H 0.37546 0.01508 0.10454 0.0
H318 H 0.28239 0.10082 -0.0003 0.0
H319 H 0.26092 0.0559 0.99342 0.0
H320 H 0.30207 0.06809 0.96686 0.0
H321 H 0.30205 0.06398 0.14179 0.0
H322 H 0.32865 0.02184 0.14958 0.0
H323 H 0.28122 0.01933 0.13223 0.0
C324 C 0.30771 0.90035 0.57795 0.0
C325 C 0.33441 0.92445 0.59426 0.0
C326 C 0.27303 0.91374 0.56554 0.0
C327 C 0.26407 0.95196 0.5707 0.0
C328 C 0.2909 0.97668 0.5865 0.0
C329 C 0.32595 0.96275 0.59758 0.0
C330 C 0.24542 0.88658 0.54814 0.0
C331 C 0.28202 0.0175 0.59315 0.0
C332 C 0.17932 0.98956 0.51857 0.0
C333 C 0.15085 0.98353 0.54473 0.0
C334 C 0.21659 0.97994 0.52674 0.0
C335 C 0.22552 0.9651 0.56227 0.0
C336 C 0.197 0.96051 0.58927 0.0
C337 C 0.15992 0.96922 0.57995 0.0
C338 C 0.24607 0.9842 0.49692 0.0
C339 C 0.20552 0.94571 0.62781 0.0
H340 H 0.31323 0.87059 0.57593 0.0
H341 H 0.34648 0.98183 0.60945 0.0
H342 H 0.22146 0.88217 0.5673 0.0
H343 H 0.23405 0.89818 0.52177 0.0
H344 H 0.25828 0.85891 0.54212 0.0
H345 H 0.30662 0.03348 0.60381 0.0
H346 H 0.27211 0.03077 0.56701 0.0
H347 H 0.259 0.01978 0.61378 0.0
H348 H 0.17222 0.00048 0.49127 0.0
H349 H 0.13793 0.96501 0.60035 0.0
H350 H 0.2569 0.95616 0.48907 0.0
H351 H 0.27016 0.0008 0.50763 0.0
H352 H 0.23498 0.99803 0.47147 0.0
H353 H 0.21476 0.91612 0.62589 0.0
H354 H 0.1808 0.94701 0.64653 0.0
H355 H 0.22878 0.962 0.64068 0.0
C356 C 0.70996 0.3939 0.93177 0.0
C357 C 0.68003 0.41882 0.92763 0.0
C358 C 0.7451 0.40652 0.94415 0.0
C359 C 0.75015 0.44485 0.95326 0.0
C360 C 0.71959 0.4699 0.95035 0.0
C361 C 0.68492 0.45664 0.93706 0.0
C362 C 0.77718 0.3791 0.94609 0.0
C363 C 0.72374 0.5108 0.96053 0.0
C364 C 0.83766 0.46829 0.00944 0.0
C365 C 0.86187 0.48121 0.9815 0.0
C366 C 0.80068 0.45758 0.00092 0.0
C367 C 0.78804 0.45899 0.96347 0.0
C368 C 0.8123 0.47228 0.93524 0.0
C369 C 0.84876 0.48362 0.94466 0.0
C370 C 0.77528 0.44434 0.03186 0.0
C371 C 0.80015 0.47348 0.89485 0.0
H372 H 0.70618 0.36472 0.92403 0.0
H373 H 0.66161 0.47579 0.93396 0.0
H374 H 0.79949 0.38771 0.92633 0.0
H375 H 0.7897 0.37919 0.97443 0.0
H376 H 0.76828 0.35002 0.93912 0.0
H377 H 0.69653 0.52579 0.95982 0.0
H378 H 0.73605 0.51366 0.98886 0.0
H379 H 0.7432 0.52471 0.94081 0.0
H380 H 0.84758 0.46668 0.038 0.0
H381 H 0.86742 0.49335 0.92289 0.0
H382 H 0.76796 0.41439 0.02752 0.0
H383 H 0.7487 0.46037 0.03145 0.0
H384 H 0.78847 0.44748 0.0598 0.0
H385 H 0.79293 0.44478 0.88512 0.0
H386 H 0.82226 0.48506 0.87636 0.0
H387 H 0.77462 0.49083 0.89183 0.0
C388 C 0.81645 0.55355 0.43262 0.0
C389 C 0.82157 0.59209 0.42705 0.0
C390 C 0.7816 0.5392 0.44395 0.0
C391 C 0.75108 0.56397 0.44888 0.0
C392 C 0.7563 0.60296 0.44357 0.0
C393 C 0.79161 0.61658 0.43305 0.0
C394 C 0.77728 0.49757 0.45012 0.0
C395 C 0.72431 0.6302 0.4479 0.0
C396 C 0.65165 0.52726 0.43838 0.0
C397 C 0.63931 0.52713 0.47547 0.0
C398 C 0.68822 0.53856 0.42939 0.0
C399 C 0.71327 0.54918 0.45827 0.0
C400 C 0.70145 0.54765 0.49589 0.0
C401 C 0.66444 0.53705 0.50402 0.0
C402 C 0.69959 0.54047 0.38888 0.0
C403 C 0.72764 0.55795 0.52748 0.0
H404 H 0.83974 0.53469 0.42807 0.0
H405 H 0.79552 0.64635 0.42825 0.0
H406 H 0.76555 0.49217 0.47824 0.0
H407 H 0.75725 0.48571 0.42948 0.0
H408 H 0.80432 0.48249 0.44751 0.0
H409 H 0.73317 0.6597 0.44317 0.0
H410 H 0.70168 0.62311 0.42774 0.0
H411 H 0.71222 0.62801 0.47627 0.0
H412 H 0.63229 0.51981 0.41618 0.0
H413 H 0.65513 0.53665 0.53278 0.0
H414 H 0.72518 0.52361 0.38413 0.0
H415 H 0.70642 0.56988 0.38138 0.0
H416 H 0.67717 0.53015 0.36985 0.0
H417 H 0.75417 0.54203 0.52507 0.0
H418 H 0.71511 0.55227 0.55525 0.0
H419 H 0.73489 0.58817 0.52591 0.0
C420 C 0.05517 0.19788 0.08845 0.0
C421 C 0.09254 0.19547 0.10019 0.0
C422 C 0.04041 0.23196 0.07573 0.0
C423 C 0.06339 0.26442 0.07573 0.0
C424 C 0.10105 0.26213 0.08812 0.0
C425 C 0.11531 0.22751 0.0998 0.0
C426 C 0.00042 0.23316 0.06193 0.0
C427 C 0.1262 0.29628 0.0893 0.0
C428 C 0.04244 0.34803 0.01406 0.0
C429 C 0.02531 0.37263 0.03929 0.0
C430 C 0.05356 0.31208 0.02518 0.0
C431 C 0.0483 0.30088 0.06266 0.0
C432 C 0.03038 0.32534 0.08809 0.0
C433 C 0.01867 0.36079 0.07595 0.0
C434 C 0.07172 0.28642 0.99703 0.0
C435 C 0.02499 0.31469 0.12847 0.0
H436 H 0.03773 0.17291 0.08869 0.0
H437 H 0.14412 0.22555 0.10925 0.0
H438 H 0.984 0.25326 0.07887 0.0
H439 H -0.00027 0.24322 0.03267 0.0
H440 H 0.9865 0.20528 0.06318 0.0
H441 H 0.15438 0.28994 0.10086 0.0
H442 H 0.12966 0.3078 0.0608 0.0
H443 H 0.11319 0.31849 0.10662 0.0
H444 H 0.04734 0.35701 0.98561 0.0
H445 H 0.0057 0.37985 0.09561 0.0
H446 H 0.05753 0.25867 0.99693 0.0
H447 H 0.10143 0.28171 0.00483 0.0
H448 H 0.07083 0.29809 0.96834 0.0
H449 H 0.00968 0.28766 0.13051 0.0
H450 H 0.00929 0.33631 0.1443 0.0
H451 H 0.05272 0.31077 0.14196 0.0
C452 C 0.57632 0.29156 0.8986 0.0
C453 C 0.57909 0.32224 0.92291 0.0
C454 C 0.56558 0.25615 0.91171 0.0
C455 C 0.55681 0.25155 0.94993 0.0
C456 C 0.55809 0.28284 0.9743 0.0
C457 C 0.56968 0.31781 0.96055 0.0
C458 C 0.56517 0.22335 0.88499 0.0
C459 C 0.54819 0.27915 0.01504 0.0
C460 C 0.50472 0.16204 0.97474 0.0
C461 C 0.53397 0.13941 0.98784 0.0
C462 C 0.51148 0.19911 0.9635 0.0
C463 C 0.54848 0.21354 0.96465 0.0
C464 C 0.57802 0.19098 0.97831 0.0
C465 C 0.57033 0.15431 0.9901 0.0
C466 C 0.47918 0.22264 0.94984 0.0
C467 C 0.61796 0.20517 0.97938 0.0
H468 H 0.5841 0.29496 0.86958 0.0
H469 H 0.57175 0.34166 0.97925 0.0
H470 H 0.58629 0.20241 0.89386 0.0
H471 H 0.53742 0.20924 0.8854 0.0
H472 H 0.57143 0.23193 0.85589 0.0
H473 H 0.54739 0.30674 0.02944 0.0
H474 H 0.52048 0.26527 0.01808 0.0
H475 H 0.56912 0.26124 0.02928 0.0
H476 H 0.4765 0.15075 0.97326 0.0
H477 H 0.59308 0.13689 1e-05 0.0
H478 H 0.48305 0.22932 0.9199 0.0
H479 H 0.47842 0.24965 0.96524 0.0
H480 H 0.45176 0.2082 0.95324 0.0
H481 H 0.62735 0.21204 0.9507 0.0
H482 H 0.63757 0.18433 0.99145 0.0
H483 H 0.61977 0.23131 0.9961 0.0
C484 C 0.89968 0.71691 0.44551 0.0
C485 C 0.92345 0.68901 0.43143 0.0
C486 C 0.914 0.75121 0.45844 0.0
C487 C 0.95302 0.75819 0.45671 0.0
C488 C 0.97734 0.72987 0.44357 0.0
C489 C 0.96229 0.69553 0.43129 0.0
C490 C 0.88712 0.7806 0.47252 0.0
C491 C 0.01909 0.73638 0.44111 0.0
C492 C 0.97823 0.86095 0.44706 0.0
C493 C 0.98835 0.8706 0.48368 0.0
C494 C 0.96818 0.82409 0.43768 0.0
C495 C 0.96771 0.79623 0.46572 0.0
C496 C 0.9789 0.8055 0.50255 0.0
C497 C 0.98937 0.84259 0.51106 0.0
C498 C 0.95698 0.81524 0.39794 0.0
C499 C 0.97835 0.77661 0.53325 0.0
H500 H 0.86961 0.71257 0.44518 0.0
H501 H 0.98093 0.67397 0.42103 0.0
H502 H 0.89654 0.7915 0.50002 0.0
H503 H 0.88662 0.80461 0.45291 0.0
H504 H 0.85812 0.76954 0.47537 0.0
H505 H 0.03444 0.7106 0.43299 0.0
H506 H 0.02497 0.75847 0.42017 0.0
H507 H 0.03023 0.74651 0.46826 0.0
H508 H 0.97778 0.88236 0.42566 0.0
H509 H 0.99708 0.84989 0.53944 0.0
H510 H 0.92691 0.80728 0.39689 0.0
H511 H 0.97323 0.79101 0.38736 0.0
H512 H 0.9615 0.8394 0.37895 0.0
H513 H 0.94903 0.76768 0.53859 0.0
H514 H 0.99053 0.78756 0.55969 0.0
H515 H 0.99413 0.75132 0.52468 0.0
C516 C 0.4674 0.8199 0.58189 0.0
C517 C 0.43092 0.82378 0.5955 0.0
C518 C 0.48003 0.78508 0.56867 0.0
C519 C 0.45582 0.75353 0.57025 0.0
C520 C 0.41905 0.75747 0.58442 0.0
C521 C 0.4069 0.79272 0.59647 0.0
C522 C 0.51907 0.78206 0.55289 0.0
C523 C 0.39268 0.72437 0.58734 0.0
C524 C 0.46784 0.6668 0.51042 0.0
C525 C 0.48458 0.64202 0.53567 0.0
C526 C 0.46027 0.70396 0.52066 0.0
C527 C 0.46867 0.71618 0.55735 0.0
C528 C 0.48644 0.69151 0.58266 0.0
C529 C 0.49465 0.65481 0.57132 0.0
C530 C 0.44219 0.72976 0.49261 0.0
C531 C 0.49501 0.70325 0.62229 0.0
H532 H 0.48579 0.84416 0.58125 0.0
H533 H 0.37879 0.79595 0.60742 0.0
H534 H 0.53578 0.76199 0.56957 0.0
H535 H 0.51775 0.77098 0.52396 0.0
H536 H 0.53393 0.80949 0.55262 0.0
H537 H 0.3654 0.73205 0.60005 0.0
H538 H 0.38726 0.71239 0.55925 0.0
H539 H 0.40569 0.70202 0.60445 0.0
H540 H 0.46042 0.65704 0.48269 0.0
H541 H 0.50743 0.6356 0.59094 0.0
H542 H 0.45756 0.75684 0.49145 0.0
H543 H 0.41305 0.73595 0.50128 0.0
H544 H 0.44141 0.71732 0.46418 0.0
H545 H 0.51143 0.7297 0.62265 0.0
H546 H 0.51089 0.68152 0.63776 0.0
H547 H 0.46841 0.70868 0.63731 0.0
C548 C 0.97566 0.95584 0.83694 0.0
C549 C 0.93813 0.94725 0.84462 0.0
C550 C 0.98668 0.96672 0.80094 0.0
C551 C 0.95958 0.96816 0.77202 0.0
C552 C 0.92153 0.96033 0.77994 0.0
C553 C 0.91127 0.95018 0.81618 0.0
C554 C 0.02738 0.9756 0.7936 0.0
C555 C 0.89187 0.961 0.74979 0.0
C556 C 0.97605 0.01777 0.68002 0.0
C557 C 0.98554 0.98769 0.65665 0.0
C558 C 0.96914 0.01212 0.71812 0.0
C559 C 0.971 0.97544 0.73291 0.0
C560 C 0.98107 0.94507 0.70955 0.0
C561 C 0.98857 0.95163 0.67177 0.0
C562 C 0.95916 0.04526 0.74236 0.0
C563 C 0.98268 0.90543 0.72418 0.0
H564 H 0.99639 0.95363 0.85898 0.0
H565 H 0.88232 0.9429 0.82191 0.0
H566 H 0.03946 0.9539 0.77503 0.0
H567 H 0.03002 0.0029 0.77905 0.0
H568 H 0.04419 0.97671 0.81971 0.0
H569 H 0.86333 0.95567 0.76093 0.0
H570 H 0.89194 0.98852 0.73547 0.0
H571 H 0.89814 0.93931 0.72847 0.0
H572 H 0.97414 0.04579 0.66857 0.0
H573 H 0.99584 0.92828 0.65382 0.0
H574 H 0.97728 0.04597 0.76756 0.0
H575 H 0.92977 0.0425 0.75201 0.0
H576 H 0.96215 0.07231 0.72735 0.0
H577 H 0.00191 0.9039 0.74848 0.0
H578 H 0.99225 0.88516 0.70268 0.0
H579 H 0.95449 0.89666 0.73392 0.0
C580 C 0.58852 0.03799 0.33643 0.0
C581 C 0.58611 0.07611 0.34594 0.0
C582 C 0.57936 0.02543 0.30035 0.0
C583 C 0.56691 0.05152 0.27338 0.0
C584 C 0.56341 0.08979 0.28307 0.0
C585 C 0.57351 0.10167 0.31898 0.0
C586 C 0.58387 0.98446 0.29083 0.0
C587 C 0.54983 0.11844 0.25521 0.0
C588 C 0.57883 0.03425 0.16976 0.0
C589 C 0.54257 0.02328 0.15912 0.0
C590 C 0.58749 0.04197 0.20718 0.0
C591 C 0.55901 0.03939 0.23447 0.0
C592 C 0.52249 0.02773 0.22401 0.0
C593 C 0.51479 0.01946 0.18646 0.0
C594 C 0.62695 0.05368 0.21738 0.0
C595 C 0.49124 0.02534 0.25223 0.0
H596 H 0.59786 0.01798 0.35712 0.0
H597 H 0.57244 0.1313 0.32553 0.0
H598 H 0.55709 0.9728 0.28002 0.0
H599 H 0.60501 0.98129 0.26841 0.0
H600 H 0.59287 0.9676 0.31525 0.0
H601 H 0.5461 0.14658 0.26797 0.0
H602 H 0.57025 0.12092 0.23206 0.0
H603 H 0.52272 0.10932 0.24287 0.0
H604 H 0.60052 0.03683 0.1488 0.0
H605 H 0.48667 0.01109 0.17836 0.0
H606 H 0.63767 0.03607 0.24051 0.0
H607 H 0.62706 0.08315 0.22733 0.0
H608 H 0.64648 0.05142 0.19341 0.0
H609 H 0.4997 0.00745 0.27604 0.0
H610 H 0.46496 0.01382 0.23998 0.0
H611 H 0.4854 0.05369 0.26357 0.0
C612 C 0.39583 0.55574 0.19983 0.0
C613 C 0.42292 0.56985 0.17516 0.0
C614 C 0.40557 0.54438 0.236 0.0
C615 C 0.4431 0.54827 0.24828 0.0
C616 C 0.47075 0.56175 0.22343 0.0
C617 C 0.46043 0.57185 0.18704 0.0
C618 C 0.37542 0.52937 0.26147 0.0
C619 C 0.51098 0.56688 0.2357 0.0
C620 C 0.45672 0.56162 0.35241 0.0
C621 C 0.47004 0.52641 0.3633 0.0
C622 C 0.44859 0.56927 0.31493 0.0
C623 C 0.45288 0.54065 0.28786 0.0
C624 C 0.46601 0.5049 0.29873 0.0
C625 C 0.47497 0.49836 0.33633 0.0
C626 C 0.43554 0.60803 0.30429 0.0
C627 C 0.46996 0.47342 0.2708 0.0
H628 H 0.36666 0.55463 0.19145 0.0
H629 H 0.48174 0.58198 0.16805 0.0
H630 H 0.38462 0.50278 0.27453 0.0
H631 H 0.37021 0.54972 0.2843 0.0
H632 H 0.3486 0.52423 0.24646 0.0
H633 H 0.52934 0.57641 0.21258 0.0
H634 H 0.51242 0.58791 0.25853 0.0
H635 H 0.52219 0.54024 0.24691 0.0
H636 H 0.45322 0.58347 0.37318 0.0
H637 H 0.48502 0.47102 0.34477 0.0
H638 H 0.40686 0.60653 0.29235 0.0
H639 H 0.45413 0.61987 0.28248 0.0
H640 H 0.43524 0.62757 0.32847 0.0
H641 H 0.44244 0.46756 0.25747 0.0
H642 H 0.48036 0.44721 0.28383 0.0
H643 H 0.48957 0.48174 0.24833 0.0
C644 C 0.03162 0.44547 0.68614 0.0
C645 C 0.06912 0.45067 0.67544 0.0
C646 C 0.01939 0.45562 0.72196 0.0
C647 C 0.04505 0.47213 0.74737 0.0
C648 C 0.08215 0.4799 0.73589 0.0
C649 C 0.09385 0.46865 0.70034 0.0
C650 C 0.97966 0.44662 0.73332 0.0
C651 C 0.11023 0.49809 0.76193 0.0
C652 C 0.01189 0.51718 0.83758 0.0
C653 C 0.02095 0.4894 0.86368 0.0
C654 C 0.01892 0.51183 0.7994 0.0
C655 C 0.03463 0.4776 0.78711 0.0
C656 C 0.0426 0.449 0.81325 0.0
C657 C 0.03605 0.45542 0.85124 0.0
C658 C 0.01079 0.54321 0.77243 0.0
C659 C 0.05874 0.41183 0.80118 0.0
H660 H 0.01204 0.43232 0.66695 0.0
H661 H 0.12304 0.47234 0.69294 0.0
H662 H 0.97989 0.42381 0.75431 0.0
H663 H 0.96637 0.47133 0.74655 0.0
H664 H 0.96215 0.43748 0.70926 0.0
H665 H 0.13624 0.50669 0.74724 0.0
H666 H 0.0979 0.52314 0.7755 0.0
H667 H 0.11789 0.4781 0.78432 0.0
H668 H 0.00032 0.54356 0.84712 0.0
H669 H 0.04269 0.43369 0.87126 0.0
H670 H 0.99303 0.5329 0.74909 0.0
H671 H 0.03742 0.55348 0.76014 0.0
H672 H 0.99645 0.56716 0.78607 0.0
H673 H 0.04114 0.39918 0.77887 0.0
H674 H 0.06081 0.39163 0.82462 0.0
H675 H 0.08717 0.41617 0.78947 0.0
C676 C 0.81238 0.94802 0.91746 0.0
C677 C 0.84029 0.93621 0.94243 0.0
C678 C 0.77624 0.95658 0.92984 0.0
C679 C 0.76742 0.95247 0.96805 0.0
C680 C 0.79539 0.94089 0.99356 0.0
C681 C 0.83161 0.93314 0.98048 0.0
C682 C 0.74724 0.96919 0.90181 0.0
C683 C 0.78683 0.93587 0.03446 0.0
C684 C 0.67921 0.00136 0.0008 0.0
C685 C 0.65249 0.97257 0.99734 0.0
C686 C 0.71702 0.995 0.99235 0.0
C687 C 0.72839 0.95887 0.98073 0.0
C688 C 0.70182 0.92936 0.97859 0.0
C689 C 0.66412 0.93664 0.98662 0.0
C690 C 0.74448 0.02726 0.99445 0.0
C691 C 0.71303 0.8903 0.96683 0.0
H692 H 0.81841 0.94963 0.8879 0.0
H693 H 0.85307 0.9244 1e-05 0.0
H694 H 0.72448 0.948 0.8998 0.0
H695 H 0.73436 0.99589 0.91105 0.0
H696 H 0.7593 0.97334 0.87358 0.0
H697 H 0.81199 0.9278 0.05084 0.0
H698 H 0.77534 0.96218 0.04627 0.0
H699 H 0.76508 0.91383 0.03792 0.0
H700 H 0.67039 0.02922 0.00901 0.0
H701 H 0.64369 0.91417 0.98429 0.0
H702 H 0.75499 0.03376 0.96607 0.0
H703 H 0.76908 0.01954 0.01173 0.0
H704 H 0.73168 0.05298 0.00632 0.0
H705 H 0.72239 0.89059 0.93735 0.0
H706 H 0.68962 0.86986 0.96949 0.0
H707 H 0.73696 0.88046 0.98398 0.0
C708 C 0.69107 0.04265 0.45383 0.0
C709 C 0.68273 0.08032 0.4469 0.0
C710 C 0.72722 0.03199 0.4651 0.0
C711 C 0.75568 0.05962 0.46853 0.0
C712 C 0.74716 0.09774 0.4619 0.0
C713 C 0.7107 0.10764 0.45146 0.0
C714 C 0.73514 0.99118 0.47268 0.0
C715 C 0.77687 0.12795 0.46452 0.0
C716 C 0.84654 0.04281 0.52111 0.0
C717 C 0.87109 0.03412 0.49188 0.0
C718 C 0.80846 0.0497 0.51413 0.0
C719 C 0.79491 0.04872 0.47698 0.0
C720 C 0.8195 0.03959 0.44744 0.0
C721 C 0.8572 0.03201 0.45531 0.0
C722 C 0.78285 0.05858 0.54638 0.0
C723 C 0.80628 0.03901 0.40737 0.0
H724 H 0.66933 0.0216 0.45036 0.0
H725 H 0.70431 0.13673 0.44557 0.0
H726 H 0.75517 0.98029 0.45173 0.0
H727 H 0.74843 0.98799 0.50051 0.0
H728 H 0.70932 0.97369 0.47168 0.0
H729 H 0.76538 0.15636 0.45936 0.0
H730 H 0.79015 0.12769 0.49252 0.0
H731 H 0.79924 0.12242 0.4438 0.0
H732 H 0.85708 0.04408 0.54948 0.0
H733 H 0.87608 0.02546 0.43259 0.0
H734 H 0.75784 0.03999 0.54561 0.0
H735 H 0.77274 0.08784 0.54406 0.0
H736 H 0.79705 0.05528 0.57379 0.0
H737 H 0.78226 0.01943 0.40412 0.0
H738 H 0.82874 0.03044 0.38777 0.0
H739 H 0.79634 0.0673 0.39932 0.0
C740 C 0.32308 0.53219 0.06803 0.0
C741 C 0.33437 0.56991 0.06581 0.0
C742 C 0.28685 0.52098 0.05718 0.0
C743 C 0.26171 0.54793 0.04277 0.0
C744 C 0.27383 0.58534 0.03775 0.0
C745 C 0.30966 0.59599 0.04987 0.0
C746 C 0.27476 0.48088 0.06336 0.0
C747 C 0.24814 0.61479 0.0217 0.0
C748 C 0.16999 0.51929 0.99641 0.0
C749 C 0.14421 0.52757 0.02467 0.0
C750 C 0.20858 0.52504 0.00199 0.0
C751 C 0.22154 0.5384 0.03696 0.0
C752 C 0.19565 0.54534 0.06601 0.0
C753 C 0.15727 0.54035 0.05933 0.0
C754 C 0.23525 0.51829 0.97009 0.0
C755 C 0.20842 0.55883 0.10398 0.0
H756 H 0.34209 0.51155 0.07943 0.0
H757 H 0.31738 0.62535 0.0485 0.0
H758 H 0.25401 0.47985 0.08634 0.0
H759 H 0.26085 0.46941 0.03807 0.0
H760 H 0.2987 0.46252 0.0708 0.0
H761 H 0.26343 0.64103 0.01467 0.0
H762 H 0.23401 0.60413 0.99616 0.0
H763 H 0.22602 0.62166 0.04226 0.0
H764 H 0.15987 0.50952 0.96953 0.0
H765 H 0.1374 0.54629 0.08137 0.0
H766 H 0.25853 0.49986 0.97906 0.0
H767 H 0.24788 0.54533 0.96131 0.0
H768 H 0.22107 0.50531 0.94561 0.0
H769 H 0.23065 0.54021 0.11503 0.0
H770 H 0.18509 0.55975 0.12441 0.0
H771 H 0.2206 0.58738 0.10164 0.0
C772 C 0.17838 0.44199 0.54009 0.0
C773 C 0.16867 0.44723 0.57766 0.0
C774 C 0.21431 0.45134 0.52713 0.0
C775 C 0.241 0.46658 0.55228 0.0
C776 C 0.2307 0.47392 0.58966 0.0
C777 C 0.1948 0.46394 0.60195 0.0
C778 C 0.22428 0.44311 0.48705 0.0
C779 C 0.25828 0.49042 0.61728 0.0
C780 C 0.34437 0.44747 0.53866 0.0
C781 C 0.35742 0.48187 0.52484 0.0
C782 C 0.30633 0.44184 0.54652 0.0
C783 C 0.28068 0.47144 0.54077 0.0
C784 C 0.29343 0.50598 0.52608 0.0
C785 C 0.33168 0.51075 0.51812 0.0
C786 C 0.29373 0.40443 0.5618 0.0
C787 C 0.2669 0.53823 0.51985 0.0
H788 H 0.15818 0.42962 0.52102 0.0
H789 H 0.18791 0.46759 0.63115 0.0
H790 H 0.23773 0.4679 0.47403 0.0
H791 H 0.24482 0.41986 0.48606 0.0
H792 H 0.19938 0.43494 0.47018 0.0
H793 H 0.24474 0.49811 0.64409 0.0
H794 H 0.28069 0.46977 0.62313 0.0
H795 H 0.27189 0.51577 0.60551 0.0
H796 H 0.36397 0.42488 0.5436 0.0
H797 H 0.34151 0.53743 0.50746 0.0
H798 H 0.27062 0.3928 0.54448 0.0
H799 H 0.28274 0.40813 0.59049 0.0
H800 H 0.31684 0.38367 0.56269 0.0
H801 H 0.24272 0.52904 0.50254 0.0
H802 H 0.28077 0.56238 0.50598 0.0
H803 H 0.25557 0.54782 0.54702 0.0
C804 C 0.9598 0.81881 0.91052 0.0
C805 C 0.94535 0.84358 0.93735 0.0
C806 C 0.97101 0.7825 0.92021 0.0
C807 C 0.96671 0.77017 0.95742 0.0
C808 C 0.95349 0.7953 0.98495 0.0
C809 C 0.94342 0.83185 0.97467 0.0
C810 C 0.9857 0.75675 0.89017 0.0
C811 C 0.94808 0.78302 0.02486 0.0
C812 C 0.94911 0.66591 0.96792 0.0
C813 C 0.98393 0.65318 0.98071 0.0
C814 C 0.94295 0.70407 0.96125 0.0
C815 C 0.97262 0.73003 0.9666 0.0
C816 C 0.0079 0.71737 0.97948 0.0
C817 C 0.013 0.67907 0.98685 0.0
C818 C 0.90468 0.71658 0.94827 0.0
C819 C 0.04041 0.74412 0.98461 0.0
H820 H 0.96088 0.82705 0.88149 0.0
H821 H 0.93302 0.85093 0.99576 0.0
H822 H 0.01158 0.74255 0.89975 0.0
H823 H 0.96459 0.73464 0.88401 0.0
H824 H 0.99192 0.77198 0.8639 0.0
H825 H 0.94034 0.8067 0.04344 0.0
H826 H 0.92553 0.76153 0.02608 0.0
H827 H 0.97399 0.76991 0.03577 0.0
H828 H 0.92645 0.64603 0.96353 0.0
H829 H 0.04003 0.66925 0.99655 0.0
H830 H 0.90669 0.72882 0.91993 0.0
H831 H 0.89385 0.73876 0.96708 0.0
H832 H 0.88409 0.69314 0.94745 0.0
H833 H 0.04746 0.75732 0.95751 0.0
H834 H 0.06579 0.72992 0.9956 0.0
H835 H 0.03265 0.767 0.00406 0.0
C836 C 0.40715 0.69657 0.06298 0.0
C837 C 0.43184 0.66987 0.07777 0.0
C838 C 0.41931 0.73298 0.05474 0.0
C839 C 0.45695 0.74326 0.06205 0.0
C840 C 0.48231 0.71633 0.07611 0.0
C841 C 0.4695 0.67985 0.08359 0.0
C842 C 0.3915 0.76083 0.03941 0.0
C843 C 0.52263 0.72639 0.08441 0.0
C844 C 0.49236 0.83256 0.01663 0.0
C845 C 0.48653 0.85902 0.04506 0.0
C846 C 0.48356 0.79459 0.02198 0.0
C847 C 0.46904 0.78277 0.05671 0.0
C848 C 0.46409 0.80913 0.08585 0.0
C849 C 0.47266 0.84699 0.07959 0.0
C850 C 0.48875 0.76734 0.99012 0.0
C851 C 0.44907 0.79745 0.12344 0.0
H852 H 0.37784 0.68949 0.05907 0.0
H853 H 0.48886 0.65929 0.09457 0.0
H854 H 0.38679 0.78344 0.06015 0.0
H855 H 0.40272 0.77417 0.01382 0.0
H856 H 0.36406 0.74761 0.03262 0.0
H857 H 0.53921 0.70175 0.0935 0.0
H858 H 0.53605 0.7387 0.05937 0.0
H859 H 0.52375 0.74793 0.10676 0.0
H860 H 0.50299 0.84164 0.98983 0.0
H861 H 0.4684 0.86719 0.10179 0.0
H862 H 0.46114 0.75577 0.9815 0.0
H863 H 0.50626 0.74339 -0.00084 0.0
H864 H 0.50211 0.78066 0.96551 0.0
H865 H 0.41997 0.78681 0.12032 0.0
H866 H 0.44902 0.82096 0.14382 0.0
H867 H 0.46615 0.77428 0.135 0.0
C868 C 0.04362 0.33346 0.57278 0.0
C869 C 0.07834 0.34107 0.58942 0.0
C870 C 0.03342 0.29659 0.56327 0.0
C871 C 0.05822 0.26681 0.57157 0.0
C872 C 0.09308 0.27451 0.58901 0.0
C873 C 0.10291 0.31169 0.59733 0.0
C874 C 0.9964 0.28953 0.54395 0.0
C875 C 0.11993 0.24349 0.59903 0.0
C876 C 0.02008 0.16751 0.57836 0.0
C877 C 0.03315 0.15165 0.54506 0.0
C878 C 0.02774 0.20512 0.58724 0.0
C879 C 0.04807 0.22756 0.56173 0.0
C880 C 0.06021 0.21199 0.5275 0.0
C881 C 0.05305 0.17405 0.51981 0.0
C882 C 0.01511 0.2205 0.6244 0.0
C883 C 0.08116 0.23527 0.4992 0.0
H884 H 0.0248 0.35645 0.56672 0.0
H885 H 0.12964 0.31785 0.61051 0.0
H886 H 0.00122 0.2755 0.51672 0.0
H887 H 0.97883 0.2704 0.56093 0.0
H888 H 0.98059 0.31582 0.53902 0.0
H889 H 0.14525 0.25413 0.6138 0.0
H890 H 0.10572 0.22263 0.61709 0.0
H891 H 0.12897 0.2286 0.57342 0.0
H892 H 0.00488 0.15017 0.59802 0.0
H893 H 0.06285 0.16194 0.49385 0.0
H894 H 0.99746 0.24566 0.6202 0.0
H895 H 0.03989 0.22939 0.64103 0.0
H896 H -0.00107 0.1996 0.64077 0.0
H897 H 0.06516 0.26104 0.49265 0.0
H898 H 0.08625 0.21967 0.47285 0.0
H899 H 0.10857 0.24424 0.51092 0.0
C900 C 0.60288 0.20161 0.45875 0.0
C901 C 0.57866 0.17284 0.44678 0.0
C902 C 0.58929 0.23728 0.46757 0.0
C903 C 0.55061 0.24478 0.46349 0.0
C904 C 0.52574 0.2157 0.4527 0.0
C905 C 0.54002 0.17994 0.44484 0.0
C906 C 0.61665 0.26743 0.47964 0.0
C907 C 0.48434 0.22278 0.44777 0.0
C908 C 0.51555 0.33467 0.50772 0.0
C909 C 0.51879 0.35992 0.47793 0.0
C910 C 0.52484 0.29676 0.50325 0.0
C911 C 0.53695 0.28376 0.46799 0.0
C912 C 0.53871 0.3088 0.43744 0.0
C913 C 0.52998 0.34669 0.44289 0.0
C914 C 0.52329 0.27103 0.5366 0.0
C915 C 0.55084 0.29579 0.39923 0.0
H916 H 0.63284 0.19687 0.4597 0.0
H917 H 0.52099 0.15777 0.43625 0.0
H918 H 0.61887 0.28903 0.45754 0.0
H919 H 0.60656 0.28159 0.50528 0.0
H920 H 0.64508 0.25609 0.48512 0.0
H921 H 0.46838 0.19658 0.44202 0.0
H922 H 0.47264 0.23628 0.47306 0.0
H923 H 0.47997 0.24237 0.42418 0.0
H924 H 0.50706 0.3448 0.53493 0.0
H925 H 0.53213 0.36603 0.4197 0.0
H926 H 0.55208 0.26202 0.54404 0.0
H927 H 0.50693 0.24538 0.52987 0.0
H928 H 0.51059 0.28479 0.56133 0.0
H929 H 0.58068 0.28723 0.40013 0.0
H930 H 0.54764 0.31799 0.3778 0.0
H931 H 0.5342 0.27091 0.39049 0.0
loop_
_geom_bond_atom_site_label_1
_geom_bond_atom_site_label_2
_geom_bond_distance
_geom_bond_site_symmetry_2
_ccdc_geom_bond_type
H0 C3 0.931 . S
H1 C6 0.928 . S
H2 C8 0.930 . S
C3 H0 0.931 . S
C3 C4 1.413 . S
C3 C5 1.360 . S
C4 C3 1.413 . S
C4 C8 1.429 . S
C5 C3 1.360 . S
C5 C6 1.372 . S
C6 H1 0.928 . S
C6 C5 1.372 . S
C6 C7 1.404 . S
C7 C6 1.404 . S
C7 C8 1.391 . S
C8 H2 0.930 . S
C8 C4 1.429 . S
C8 C7 1.391 . S
H9 C12 0.931 . S
H10 C15 0.928 . S
H11 C17 0.930 . S
C12 H9 0.931 . S
C12 C13 1.413 . S
C12 C14 1.360 . S
C13 C12 1.413 . S
C13 C17 1.429 . S
C14 C12 1.360 . S
C14 C15 1.372 . S
C15 H10 0.928 . S
C15 C14 1.372 . S
C15 C16 1.404 . S
C16 C15 1.404 . S
C16 C17 1.391 . S
C17 H11 0.930 . S
C17 C13 1.429 . S
C17 C16 1.391 . S
H18 C21 0.931 . S
H19 C24 0.928 . S
H20 C26 0.930 . S
C21 H18 0.931 . S
C21 C22 1.413 . S
C21 C23 1.360 . S
C22 C21 1.413 . S
C22 C26 1.429 . S
C23 C21 1.360 . S
C23 C24 1.372 . S
C24 H19 0.928 . S
C24 C23 1.372 . S
C24 C25 1.404 . S
C25 C24 1.404 . S
C25 C26 1.391 . S
C26 H20 0.930 . S
C26 C22 1.429 . S
C26 C25 1.391 . S
H27 C30 0.931 . S
H28 C33 0.928 . S
H29 C35 0.930 . S
C30 H27 0.931 . S
C30 C31 1.413 . S
C30 C32 1.360 . S
C31 C30 1.413 . S
C31 C35 1.429 . S
C32 C30 1.360 . S
C32 C33 1.372 . S
C33 H28 0.928 . S
C33 C32 1.372 . S
C33 C34 1.404 . S
C34 C33 1.404 . S
C34 C35 1.391 . S
C35 H29 0.930 . S
C35 C31 1.429 . S
C35 C34 1.391 . S
H36 C39 0.931 . S
H37 C42 0.928 . S
H38 C44 0.930 . S
C39 H36 0.931 . S
C39 C40 1.413 . S
C39 C41 1.360 . S
C40 C39 1.413 . S
C40 C44 1.429 . S
C41 C39 1.360 . S
C41 C42 1.372 . S
C42 H37 0.928 . S
C42 C41 1.372 . S
C42 C43 1.404 . S
C43 C42 1.404 . S
C43 C44 1.391 . S
C44 H38 0.930 . S
C44 C40 1.429 . S
C44 C43 1.391 . S
H45 C48 0.931 . S
H46 C51 0.928 . S
H47 C53 0.930 . S
C48 H45 0.931 . S
C48 C49 1.413 . S
C48 C50 1.360 . S
C49 C48 1.413 . S
C49 C53 1.429 . S
C50 C48 1.360 . S
C50 C51 1.372 . S
C51 H46 0.928 . S
C51 C50 1.372 . S
C51 C52 1.404 . S
C52 C51 1.404 . S
C52 C53 1.391 . S
C53 H47 0.930 . S
C53 C49 1.429 . S
C53 C52 1.391 . S
H54 C57 0.931 . S
H55 C60 0.928 . S
H56 C62 0.930 . S
C57 H54 0.931 . S
C57 C58 1.413 . S
C57 C59 1.360 . S
C58 C57 1.413 . S
C58 C62 1.429 . S
C59 C57 1.360 . S
C59 C60 1.372 . S
C60 H55 0.928 . S
C60 C59 1.372 . S
C60 C61 1.404 . S
C61 C60 1.404 . S
C61 C62 1.391 . S
C62 H56 0.930 . S
C62 C58 1.429 . S
C62 C61 1.391 . S
H63 C66 0.931 . S
H64 C69 0.928 . S
H65 C71 0.930 . S
C66 H63 0.931 . S
C66 C67 1.413 . S
C66 C68 1.360 . S
C67 C66 1.413 . S
C67 C71 1.429 . S
C68 C66 1.360 . S
C68 C69 1.372 . S
C69 H64 0.928 . S
C69 C68 1.372 . S
C69 C70 1.404 . S
C70 C69 1.404 . S
C70 C71 1.391 . S
C71 H65 0.930 . S
C71 C67 1.429 . S
C71 C70 1.391 . S
O72 Zn73 1.953 . S
O72 C88 1.225 1_655 S
Zn73 O72 1.953 . S
Zn73 O74 1.949 1_655 S
Zn73 O80 1.919 . S
Zn73 O85 1.924 . S
O74 Zn73 1.949 1_455 S
O74 Zn75 1.923 1_445 S
O74 Zn76 1.950 . S
O74 Zn77 1.945 1_545 S
Zn75 O74 1.923 1_665 S
Zn75 O78 1.933 . S
Zn75 O81 1.941 1_565 S
Zn75 O82 1.965 1_665 S
Zn76 O74 1.950 . S
Zn76 O83 1.938 . S
Zn76 O84 1.892 1_545 S
Zn76 O94 1.953 . S
Zn77 O74 1.945 1_565 S
Zn77 O79 1.932 1_455 S
Zn77 O86 1.977 . S
Zn77 O87 1.910 1_455 S
O78 Zn75 1.933 . S
O78 C89 1.226 . S
O79 Zn77 1.932 1_655 S
O79 C89 1.307 . S
O80 Zn73 1.919 . S
O80 C91 1.253 . S
O81 Zn75 1.941 1_545 S
O81 C91 1.283 . S
O82 Zn75 1.965 1_445 S
O82 C90 1.303 . S
O83 Zn76 1.938 . S
O83 C90 1.247 . S
O84 Zn76 1.892 1_565 S
O84 C92 1.325 . S
O85 Zn73 1.924 . S
O85 C93 1.311 1_545 S
O86 Zn77 1.977 . S
O86 C92 1.272 . S
O87 Zn77 1.910 1_655 S
O87 C93 1.231 . S
C88 O72 1.225 1_455 S
C88 O94 1.298 . S
C89 O78 1.226 . S
C89 O79 1.307 . S
C90 O82 1.303 . S
C90 O83 1.247 . S
C91 O80 1.253 . S
C91 O81 1.283 . S
C92 O84 1.325 . S
C92 O86 1.272 . S
C93 O85 1.311 1_565 S
C93 O87 1.231 . S
O94 Zn76 1.953 . S
O94 C88 1.298 . S
O95 Zn96 1.953 . S
O95 C111 1.225 . S
Zn96 O95 1.953 . S
Zn96 O97 1.949 1_556 S
Zn96 O103 1.919 . S
Zn96 O108 1.918 1_556 S
O97 Zn96 1.949 1_554 S
O97 Zn98 1.923 1_544 S
O97 Zn99 1.950 . S
O97 Zn100 1.945 1_545 S
Zn98 O97 1.923 1_566 S
Zn98 O101 1.933 1_556 S
Zn98 O104 1.941 . S
Zn98 O105 1.965 . S
Zn99 O97 1.950 . S
Zn99 O106 1.938 . S
Zn99 O107 1.906 . S
Zn99 O117 1.953 . S
Zn100 O97 1.945 1_565 S
Zn100 O102 1.932 . S
Zn100 O109 1.977 1_565 S
Zn100 O110 1.910 1_565 S
O101 Zn98 1.933 1_554 S
O101 C112 1.226 . S
O102 Zn100 1.932 . S
O102 C112 1.307 . S
O103 Zn96 1.919 . S
O103 C114 1.253 1_545 S
O104 Zn98 1.941 . S
O104 C114 1.283 . S
O105 Zn98 1.965 . S
O105 C113 1.303 . S
O106 Zn99 1.938 . S
O106 C113 1.247 1_544 S
O107 Zn99 1.906 . S
O107 C115 1.304 . S
O108 Zn96 1.918 1_554 S
O108 C116 1.326 . S
O109 Zn100 1.977 1_545 S
O109 C115 1.272 . S
O110 Zn100 1.910 1_545 S
O110 C116 1.231 . S
C111 O95 1.225 . S
C111 O117 1.298 1_556 S
C112 O101 1.226 . S
C112 O102 1.307 . S
C113 O105 1.303 . S
C113 O106 1.247 1_566 S
C114 O103 1.253 1_565 S
C114 O104 1.283 . S
C115 O107 1.304 . S
C115 O109 1.272 . S
C116 O108 1.326 . S
C116 O110 1.231 . S
O117 Zn99 1.953 . S
O117 C111 1.298 1_554 S
O118 Zn119 1.953 . S
O118 C134 1.225 . S
Zn119 O118 1.953 . S
Zn119 O120 1.949 . S
Zn119 O126 1.919 . S
Zn119 O131 1.924 . S
O120 Zn119 1.949 . S
O120 Zn121 1.923 . S
O120 Zn122 1.950 . S
O120 Zn123 1.945 . S
Zn121 O120 1.923 . S
Zn121 O124 1.933 . S
Zn121 O127 1.941 . S
Zn121 O128 1.965 . S
Zn122 O120 1.950 . S
Zn122 O129 1.938 . S
Zn122 O130 1.906 . S
Zn122 O140 1.953 . S
Zn123 O120 1.945 . S
Zn123 O125 1.932 . S
Zn123 O132 1.977 . S
Zn123 O133 1.910 . S
O124 Zn121 1.933 . S
O124 C135 1.226 . S
O125 Zn123 1.932 . S
O125 C135 1.307 . S
O126 Zn119 1.919 . S
O126 C137 1.253 . S
O127 Zn121 1.941 . S
O127 C137 1.283 . S
O128 Zn121 1.965 . S
O128 C136 1.303 . S
O129 Zn122 1.938 . S
O129 C136 1.247 . S
O130 Zn122 1.906 . S
O130 C138 1.304 . S
O131 Zn119 1.924 . S
O131 C139 1.311 . S
O132 Zn123 1.977 . S
O132 C138 1.272 . S
O133 Zn123 1.910 . S
O133 C139 1.231 . S
C134 O118 1.225 . S
C134 O140 1.298 . S
C135 O124 1.226 . S
C135 O125 1.307 . S
C136 O128 1.303 . S
C136 O129 1.247 . S
C137 O126 1.253 . S
C137 O127 1.283 . S
C138 O130 1.304 . S
C138 O132 1.272 . S
C139 O131 1.311 . S
C139 O133 1.231 . S
O140 Zn122 1.953 . S
O140 C134 1.298 . S
O141 Zn142 1.953 . S
O141 C157 1.225 . S
Zn142 O141 1.953 . S
Zn142 O143 1.949 1_655 S
Zn142 O149 1.919 . S
Zn142 O154 1.924 . S
O143 Zn142 1.949 1_455 S
O143 Zn144 1.923 1_454 S
O143 Zn145 1.950 . S
O143 Zn146 1.945 1_554 S
Zn144 O143 1.923 1_656 S
Zn144 O147 1.933 1_655 S
Zn144 O150 1.941 . S
Zn144 O151 1.965 . S
Zn145 O143 1.950 . S
Zn145 O152 1.938 . S
Zn145 O153 1.906 . S
Zn145 O163 1.953 . S
Zn146 O143 1.945 1_556 S
Zn146 O148 1.932 . S
Zn146 O155 1.977 1_556 S
Zn146 O156 1.910 1_556 S
O147 Zn144 1.933 1_455 S
O147 C158 1.226 . S
O148 Zn146 1.932 . S
O148 C158 1.307 . S
O149 Zn142 1.919 . S
O149 C160 1.253 1_554 S
O150 Zn144 1.941 . S
O150 C160 1.283 . S
O151 Zn144 1.965 . S
O151 C159 1.303 . S
O152 Zn145 1.938 . S
O152 C159 1.247 1_454 S
O153 Zn145 1.906 . S
O153 C161 1.304 . S
O154 Zn142 1.924 . S
O154 C162 1.311 1_655 S
O155 Zn146 1.977 1_554 S
O155 C161 1.272 . S
O156 Zn146 1.910 1_554 S
O156 C162 1.231 . S
C157 O141 1.225 . S
C157 O163 1.298 1_655 S
C158 O147 1.226 . S
C158 O148 1.307 . S
C159 O151 1.303 . S
C159 O152 1.247 1_656 S
C160 O149 1.253 1_556 S
C160 O150 1.283 . S
C161 O153 1.304 . S
C161 O155 1.272 . S
C162 O154 1.311 1_455 S
C162 O156 1.231 . S
O163 Zn145 1.953 . S
O163 C157 1.298 1_455 S
C164 C165 1.391 . S
C164 C166 1.394 . S
C164 H180 0.931 . S
C165 C164 1.391 . S
C165 C169 1.376 . S
C166 C164 1.394 . S
C166 C167 1.369 . S
C166 C170 1.531 . S
C167 C166 1.369 . S
C167 C168 1.410 . S
C167 C175 1.503 . S
C168 C167 1.410 . S
C168 C169 1.392 . S
C168 C171 1.511 . S
C169 C165 1.376 . S
C169 C168 1.392 . S
C169 H181 0.929 . S
C170 C166 1.531 . S
C170 H182 0.960 . S
C170 H183 0.962 . S
C170 H184 0.960 . S
C171 C168 1.511 . S
C171 H185 0.961 . S
C171 H186 0.961 . S
C171 H187 0.961 . S
C172 C173 1.370 . S
C172 C174 1.363 . S
C172 H188 0.931 . S
C173 C172 1.370 . S
C173 C177 1.408 . S
C174 C172 1.363 . S
C174 C175 1.370 . S
C174 C178 1.524 . S
C175 C167 1.503 . S
C175 C174 1.370 . S
C175 C176 1.403 . S
C176 C175 1.403 . S
C176 C177 1.404 . S
C176 C179 1.539 . S
C177 C173 1.408 . S
C177 C176 1.404 . S
C177 H189 0.930 . S
C178 C174 1.524 . S
C178 H190 0.956 . S
C178 H191 0.961 . S
C178 H192 0.961 . S
C179 C176 1.539 . S
C179 H193 0.958 . S
C179 H194 0.961 . S
C179 H195 0.960 . S
H180 C164 0.931 . S
H181 C169 0.929 . S
H182 C170 0.960 . S
H183 C170 0.962 . S
H184 C170 0.960 . S
H185 C171 0.961 . S
H186 C171 0.961 . S
H187 C171 0.961 . S
H188 C172 0.931 . S
H189 C177 0.930 . S
H190 C178 0.956 . S
H191 C178 0.961 . S
H192 C178 0.961 . S
H193 C179 0.958 . S
H194 C179 0.961 . S
H195 C179 0.960 . S
C196 C197 1.391 . S
C196 C198 1.394 . S
C196 H212 0.931 . S
C197 C196 1.391 . S
C197 C201 1.376 . S
C198 C196 1.394 . S
C198 C199 1.369 . S
C198 C202 1.531 . S
C199 C198 1.369 . S
C199 C200 1.410 . S
C199 C207 1.503 . S
C200 C199 1.410 . S
C200 C201 1.392 . S
C200 C203 1.511 . S
C201 C197 1.376 . S
C201 C200 1.392 . S
C201 H213 0.929 . S
C202 C198 1.531 . S
C202 H214 0.960 . S
C202 H215 0.962 . S
C202 H216 0.960 . S
C203 C200 1.511 . S
C203 H217 0.961 . S
C203 H218 0.961 . S
C203 H219 0.961 . S
C204 C205 1.370 . S
C204 C206 1.363 . S
C204 H220 0.931 . S
C205 C204 1.370 . S
C205 C209 1.408 . S
C206 C204 1.363 . S
C206 C207 1.370 . S
C206 C210 1.524 . S
C207 C199 1.503 . S
C207 C206 1.370 . S
C207 C208 1.403 . S
C208 C207 1.403 . S
C208 C209 1.404 . S
C208 C211 1.539 . S
C209 C205 1.408 . S
C209 C208 1.404 . S
C209 H221 0.930 . S
C210 C206 1.524 . S
C210 H222 0.956 . S
C210 H223 0.961 . S
C210 H224 0.961 . S
C211 C208 1.539 . S
C211 H225 0.974 . S
C211 H226 0.961 . S
C211 H227 0.960 . S
H212 C196 0.931 . S
H213 C201 0.929 . S
H214 C202 0.960 . S
H215 C202 0.962 . S
H216 C202 0.960 . S
H217 C203 0.961 . S
H218 C203 0.961 . S
H219 C203 0.961 . S
H220 C204 0.931 . S
H221 C209 0.930 . S
H222 C210 0.956 . S
H223 C210 0.961 . S
H224 C210 0.961 . S
H225 C211 0.974 . S
H226 C211 0.961 . S
H227 C211 0.960 . S
C228 C229 1.391 . S
C228 C230 1.394 . S
C228 H244 0.931 . S
C229 C228 1.391 . S
C229 C233 1.376 . S
C230 C228 1.394 . S
C230 C231 1.369 . S
C230 C234 1.531 . S
C231 C230 1.369 . S
C231 C232 1.410 . S
C231 C239 1.503 . S
C232 C231 1.410 . S
C232 C233 1.392 . S
C232 C235 1.511 . S
C233 C229 1.376 . S
C233 C232 1.392 . S
C233 H245 0.929 . S
C234 C230 1.531 . S
C234 H246 0.960 . S
C234 H247 0.962 . S
C234 H248 0.960 . S
C235 C232 1.511 . S
C235 H249 0.961 . S
C235 H250 0.961 . S
C235 H251 0.961 . S
C236 C237 1.370 . S
C236 C238 1.363 . S
C236 H252 0.931 . S
C237 C236 1.370 . S
C237 C241 1.408 . S
C238 C236 1.363 . S
C238 C239 1.370 . S
C238 C242 1.524 . S
C239 C231 1.503 . S
C239 C238 1.370 . S
C239 C240 1.403 . S
C240 C239 1.403 . S
C240 C241 1.404 . S
C240 C243 1.539 . S
C241 C237 1.408 . S
C241 C240 1.404 . S
C241 H253 0.930 . S
C242 C238 1.524 . S
C242 H254 0.956 . S
C242 H255 0.961 . S
C242 H256 0.961 . S
C243 C240 1.539 . S
C243 H257 0.958 . S
C243 H258 0.961 . S
C243 H259 0.960 . S
H244 C228 0.931 . S
H245 C233 0.929 . S
H246 C234 0.960 . S
H247 C234 0.962 . S
H248 C234 0.960 . S
H249 C235 0.961 . S
H250 C235 0.961 . S
H251 C235 0.961 . S
H252 C236 0.931 . S
H253 C241 0.930 . S
H254 C242 0.956 . S
H255 C242 0.961 . S
H256 C242 0.961 . S
H257 C243 0.958 . S
H258 C243 0.961 . S
H259 C243 0.960 . S
C260 C261 1.391 . S
C260 C262 1.394 . S
C260 H276 0.931 . S
C261 C260 1.391 . S
C261 C265 1.376 . S
C262 C260 1.394 . S
C262 C263 1.369 . S
C262 C266 1.531 . S
C263 C262 1.369 . S
C263 C264 1.410 . S
C263 C271 1.503 . S
C264 C263 1.410 . S
C264 C265 1.392 . S
C264 C267 1.511 . S
C265 C261 1.376 . S
C265 C264 1.392 . S
C265 H277 0.929 . S
C266 C262 1.531 . S
C266 H278 0.960 . S
C266 H279 0.962 . S
C266 H280 0.960 . S
C267 C264 1.511 . S
C267 H281 0.961 . S
C267 H282 0.961 . S
C267 H283 0.961 1_655 S
C268 C269 1.370 . S
C268 C270 1.363 . S
C268 H284 0.931 . S
C269 C268 1.370 . S
C269 C273 1.408 . S
C270 C268 1.363 . S
C270 C271 1.370 . S
C270 C274 1.524 . S
C271 C263 1.503 . S
C271 C270 1.370 . S
C271 C272 1.403 . S
C272 C271 1.403 . S
C272 C273 1.404 . S
C272 C275 1.539 . S
C273 C269 1.408 . S
C273 C272 1.404 . S
C273 H285 0.930 1_655 S
C274 C270 1.524 . S
C274 H286 0.956 . S
C274 H287 0.961 . S
C274 H288 0.961 . S
C275 C272 1.539 . S
C275 H289 0.958 . S
C275 H290 0.961 1_655 S
C275 H291 0.960 . S
H276 C260 0.931 . S
H277 C265 0.929 . S
H278 C266 0.960 . S
H279 C266 0.962 . S
H280 C266 0.960 . S
H281 C267 0.961 . S
H282 C267 0.961 . S
H283 C267 0.961 1_455 S
H284 C268 0.931 . S
H285 C273 0.930 1_455 S
H286 C274 0.956 . S
H287 C274 0.961 . S
H288 C274 0.961 . S
H289 C275 0.958 . S
H290 C275 0.961 1_455 S
H291 C275 0.960 . S
C292 C293 1.391 . S
C292 C294 1.394 . S
C292 H308 0.931 . S
C293 C292 1.391 . S
C293 C297 1.376 . S
C294 C292 1.394 . S
C294 C295 1.369 . S
C294 C298 1.531 . S
C295 C294 1.369 . S
C295 C296 1.410 . S
C295 C303 1.503 . S
C296 C295 1.410 . S
C296 C297 1.392 . S
C296 C299 1.511 . S
C297 C293 1.376 . S
C297 C296 1.392 . S
C297 H309 0.929 . S
C298 C294 1.531 . S
C298 H310 0.960 . S
C298 H311 0.962 . S
C298 H312 0.960 . S
C299 C296 1.511 . S
C299 H313 0.961 . S
C299 H314 0.961 . S
C299 H315 0.961 . S
C300 C301 1.370 . S
C300 C302 1.363 . S
C300 H316 0.931 . S
C301 C300 1.370 . S
C301 C305 1.408 . S
C302 C300 1.363 . S
C302 C303 1.370 . S
C302 C306 1.524 . S
C303 C295 1.503 . S
C303 C302 1.370 . S
C303 C304 1.403 . S
C304 C303 1.403 . S
C304 C305 1.404 . S
C304 C307 1.539 . S
C305 C301 1.408 . S
C305 C304 1.404 . S
C305 H317 0.930 . S
C306 C302 1.524 . S
C306 H318 0.956 . S
C306 H319 0.961 . S
C306 H320 0.961 . S
C307 C304 1.539 . S
C307 H321 0.958 . S
C307 H322 0.961 . S
C307 H323 0.960 . S
H308 C292 0.931 . S
H309 C297 0.929 . S
H310 C298 0.960 . S
H311 C298 0.962 . S
H312 C298 0.960 . S
H313 C299 0.961 . S
H314 C299 0.961 . S
H315 C299 0.961 . S
H316 C300 0.931 . S
H317 C305 0.930 . S
H318 C306 0.956 . S
H319 C306 0.961 . S
H320 C306 0.961 . S
H321 C307 0.958 . S
H322 C307 0.961 . S
H323 C307 0.960 . S
C324 C325 1.391 . S
C324 C326 1.394 . S
C324 H340 0.931 . S
C325 C324 1.391 . S
C325 C329 1.376 . S
C326 C324 1.394 . S
C326 C327 1.369 . S
C326 C330 1.531 . S
C327 C326 1.369 . S
C327 C328 1.410 . S
C327 C335 1.503 . S
C328 C327 1.410 . S
C328 C329 1.392 . S
C328 C331 1.511 . S
C329 C325 1.376 . S
C329 C328 1.392 . S
C329 H341 0.929 . S
C330 C326 1.531 . S
C330 H342 0.960 . S
C330 H343 0.962 . S
C330 H344 0.960 . S
C331 C328 1.511 . S
C331 H345 0.961 . S
C331 H346 0.961 . S
C331 H347 0.961 . S
C332 C333 1.370 . S
C332 C334 1.363 . S
C332 H348 0.931 . S
C333 C332 1.370 . S
C333 C337 1.408 . S
C334 C332 1.363 . S
C334 C335 1.370 . S
C334 C338 1.524 . S
C335 C327 1.503 . S
C335 C334 1.370 . S
C335 C336 1.403 . S
C336 C335 1.403 . S
C336 C337 1.404 . S
C336 C339 1.539 . S
C337 C333 1.408 . S
C337 C336 1.404 . S
C337 H349 0.930 . S
C338 C334 1.524 . S
C338 H350 0.956 . S
C338 H351 0.961 . S
C338 H352 0.961 . S
C339 C336 1.539 . S
C339 H353 0.958 . S
C339 H354 0.961 . S
C339 H355 0.960 . S
H340 C324 0.931 . S
H341 C329 0.929 . S
H342 C330 0.960 . S
H343 C330 0.962 . S
H344 C330 0.960 . S
H345 C331 0.961 . S
H346 C331 0.961 . S
H347 C331 0.961 . S
H348 C332 0.931 . S
H349 C337 0.930 . S
H350 C338 0.956 . S
H351 C338 0.961 . S
H352 C338 0.961 . S
H353 C339 0.958 . S
H354 C339 0.961 . S
H355 C339 0.960 . S
C356 C357 1.391 . S
C356 C358 1.394 . S
C356 H372 0.931 . S
C357 C356 1.391 . S
C357 C361 1.376 . S
C358 C356 1.394 . S
C358 C359 1.369 . S
C358 C362 1.531 . S
C359 C358 1.369 . S
C359 C360 1.410 . S
C359 C367 1.503 . S
C360 C359 1.410 . S
C360 C361 1.392 . S
C360 C363 1.511 . S
C361 C357 1.376 . S
C361 C360 1.392 . S
C361 H373 0.929 . S
C362 C358 1.531 . S
C362 H374 0.960 . S
C362 H375 0.962 . S
C362 H376 0.960 . S
C363 C360 1.511 . S
C363 H377 0.961 . S
C363 H378 0.961 . S
C363 H379 0.961 . S
C364 C365 1.370 . S
C364 C366 1.363 . S
C364 H380 0.931 1_556 S
C365 C364 1.370 . S
C365 C369 1.408 . S
C366 C364 1.363 . S
C366 C367 1.370 . S
C366 C370 1.524 . S
C367 C359 1.503 . S
C367 C366 1.370 . S
C367 C368 1.403 . S
C368 C367 1.403 . S
C368 C369 1.404 . S
C368 C371 1.539 . S
C369 C365 1.408 . S
C369 C368 1.404 . S
C369 H381 0.930 . S
C370 C366 1.524 . S
C370 H382 0.956 . S
C370 H383 0.961 . S
C370 H384 0.961 1_556 S
C371 C368 1.539 . S
C371 H385 0.958 . S
C371 H386 0.961 . S
C371 H387 0.960 . S
H372 C356 0.931 . S
H373 C361 0.929 . S
H374 C362 0.960 . S
H375 C362 0.962 . S
H376 C362 0.960 . S
H377 C363 0.961 . S
H378 C363 0.961 . S
H379 C363 0.961 . S
H380 C364 0.931 1_554 S
H381 C369 0.930 . S
H382 C370 0.956 . S
H383 C370 0.961 . S
H384 C370 0.961 1_554 S
H385 C371 0.958 . S
H386 C371 0.961 . S
H387 C371 0.960 . S
C388 C389 1.391 . S
C388 C390 1.394 . S
C388 H404 0.931 . S
C389 C388 1.391 . S
C389 C393 1.376 . S
C390 C388 1.394 . S
C390 C391 1.369 . S
C390 C394 1.531 . S
C391 C390 1.369 . S
C391 C392 1.410 . S
C391 C399 1.503 . S
C392 C391 1.410 . S
C392 C393 1.392 . S
C392 C395 1.511 . S
C393 C389 1.376 . S
C393 C392 1.392 . S
C393 H405 0.929 . S
C394 C390 1.531 . S
C394 H406 0.960 . S
C394 H407 0.962 . S
C394 H408 0.960 . S
C395 C392 1.511 . S
C395 H409 0.961 . S
C395 H410 0.961 . S
C395 H411 0.961 . S
C396 C397 1.370 . S
C396 C398 1.363 . S
C396 H412 0.931 . S
C397 C396 1.370 . S
C397 C401 1.408 . S
C398 C396 1.363 . S
C398 C399 1.370 . S
C398 C402 1.524 . S
C399 C391 1.503 . S
C399 C398 1.370 . S
C399 C400 1.403 . S
C400 C399 1.403 . S
C400 C401 1.404 . S
C400 C403 1.539 . S
C401 C397 1.408 . S
C401 C400 1.404 . S
C401 H413 0.930 . S
C402 C398 1.524 . S
C402 H414 0.956 . S
C402 H415 0.961 . S
C402 H416 0.961 . S
C403 C400 1.539 . S
C403 H417 0.958 . S
C403 H418 0.961 . S
C403 H419 0.960 . S
H404 C388 0.931 . S
H405 C393 0.929 . S
H406 C394 0.960 . S
H407 C394 0.962 . S
H408 C394 0.960 . S
H409 C395 0.961 . S
H410 C395 0.961 . S
H411 C395 0.961 . S
H412 C396 0.931 . S
H413 C401 0.930 . S
H414 C402 0.956 . S
H415 C402 0.961 . S
H416 C402 0.961 . S
H417 C403 0.958 . S
H418 C403 0.961 . S
H419 C403 0.960 . S
C420 C421 1.391 . S
C420 C422 1.394 . S
C420 H436 0.931 . S
C421 C420 1.391 . S
C421 C425 1.376 . S
C422 C420 1.394 . S
C422 C423 1.369 . S
C422 C426 1.531 . S
C423 C422 1.369 . S
C423 C424 1.410 . S
C423 C431 1.503 . S
C424 C423 1.410 . S
C424 C425 1.392 . S
C424 C427 1.511 . S
C425 C421 1.376 . S
C425 C424 1.392 . S
C425 H437 0.929 . S
C426 C422 1.531 . S
C426 H438 0.960 . S
C426 H439 0.962 . S
C426 H440 0.960 1_455 S
C427 C424 1.511 . S
C427 H441 0.961 . S
C427 H442 0.961 . S
C427 H443 0.961 . S
C428 C429 1.370 . S
C428 C430 1.363 . S
C428 H444 0.931 . S
C429 C428 1.370 . S
C429 C433 1.408 . S
C430 C428 1.363 . S
C430 C431 1.370 . S
C430 C434 1.524 . S
C431 C423 1.503 . S
C431 C430 1.370 . S
C431 C432 1.403 . S
C432 C431 1.403 . S
C432 C433 1.404 . S
C432 C435 1.539 . S
C433 C429 1.408 . S
C433 C432 1.404 . S
C433 H445 0.930 . S
C434 C430 1.524 . S
C434 H446 0.956 . S
C434 H447 0.961 . S
C434 H448 0.961 . S
C435 C432 1.539 . S
C435 H449 0.958 . S
C435 H450 0.961 . S
C435 H451 0.960 . S
H436 C420 0.931 . S
H437 C425 0.929 . S
H438 C426 0.960 . S
H439 C426 0.962 . S
H440 C426 0.960 1_655 S
H441 C427 0.961 . S
H442 C427 0.961 . S
H443 C427 0.961 . S
H444 C428 0.931 . S
H445 C433 0.930 . S
H446 C434 0.956 . S
H447 C434 0.961 . S
H448 C434 0.961 . S
H449 C435 0.958 . S
H450 C435 0.961 . S
H451 C435 0.960 . S
C452 C453 1.391 . S
C452 C454 1.394 . S
C452 H468 0.931 . S
C453 C452 1.391 . S
C453 C457 1.376 . S
C454 C452 1.394 . S
C454 C455 1.369 . S
C454 C458 1.531 . S
C455 C454 1.369 . S
C455 C456 1.410 . S
C455 C463 1.503 . S
C456 C455 1.410 . S
C456 C457 1.392 . S
C456 C459 1.511 . S
C457 C453 1.376 . S
C457 C456 1.392 . S
C457 H469 0.929 . S
C458 C454 1.531 . S
C458 H470 0.960 . S
C458 H471 0.962 . S
C458 H472 0.960 . S
C459 C456 1.511 . S
C459 H473 0.961 1_556 S
C459 H474 0.961 1_556 S
C459 H475 0.961 . S
C460 C461 1.370 . S
C460 C462 1.363 . S
C460 H476 0.931 . S
C461 C460 1.370 . S
C461 C465 1.408 . S
C462 C460 1.363 . S
C462 C463 1.370 . S
C462 C466 1.524 . S
C463 C455 1.503 . S
C463 C462 1.370 . S
C463 C464 1.403 . S
C464 C463 1.403 . S
C464 C465 1.404 . S
C464 C467 1.539 . S
C465 C461 1.408 . S
C465 C464 1.404 . S
C465 H477 0.930 . S
C466 C462 1.524 . S
C466 H478 0.956 . S
C466 H479 0.961 . S
C466 H480 0.961 . S
C467 C464 1.539 . S
C467 H481 0.958 . S
C467 H482 0.961 . S
C467 H483 0.960 . S
H468 C452 0.931 . S
H469 C457 0.929 . S
H470 C458 0.960 . S
H471 C458 0.962 . S
H472 C458 0.960 . S
H473 C459 0.961 1_554 S
H474 C459 0.961 1_554 S
H475 C459 0.961 . S
H476 C460 0.931 . S
H477 C465 0.930 . S
H478 C466 0.956 . S
H479 C466 0.961 . S
H480 C466 0.961 . S
H481 C467 0.958 . S
H482 C467 0.961 . S
H483 C467 0.960 . S
C484 C485 1.391 . S
C484 C486 1.394 . S
C484 H500 0.931 . S
C485 C484 1.391 . S
C485 C489 1.376 . S
C486 C484 1.394 . S
C486 C487 1.369 . S
C486 C490 1.531 . S
C487 C486 1.369 . S
C487 C488 1.410 . S
C487 C495 1.503 . S
C488 C487 1.410 . S
C488 C489 1.392 . S
C488 C491 1.511 1_655 S
C489 C485 1.376 . S
C489 C488 1.392 . S
C489 H501 0.929 . S
C490 C486 1.531 . S
C490 H502 0.960 . S
C490 H503 0.962 . S
C490 H504 0.960 . S
C491 C488 1.511 1_455 S
C491 H505 0.961 . S
C491 H506 0.961 . S
C491 H507 0.961 . S
C492 C493 1.370 . S
C492 C494 1.363 . S
C492 H508 0.931 . S
C493 C492 1.370 . S
C493 C497 1.408 . S
C494 C492 1.363 . S
C494 C495 1.370 . S
C494 C498 1.524 . S
C495 C487 1.503 . S
C495 C494 1.370 . S
C495 C496 1.403 . S
C496 C495 1.403 . S
C496 C497 1.404 . S
C496 C499 1.539 . S
C497 C493 1.408 . S
C497 C496 1.404 . S
C497 H509 0.930 . S
C498 C494 1.524 . S
C498 H510 0.956 . S
C498 H511 0.961 . S
C498 H512 0.961 . S
C499 C496 1.539 . S
C499 H513 0.958 . S
C499 H514 0.961 . S
C499 H515 0.960 . S
H500 C484 0.931 . S
H501 C489 0.929 . S
H502 C490 0.960 . S
H503 C490 0.962 . S
H504 C490 0.960 . S
H505 C491 0.961 . S
H506 C491 0.961 . S
H507 C491 0.961 . S
H508 C492 0.931 . S
H509 C497 0.930 . S
H510 C498 0.956 . S
H511 C498 0.961 . S
H512 C498 0.961 . S
H513 C499 0.958 . S
H514 C499 0.961 . S
H515 C499 0.960 . S
C516 C517 1.391 . S
C516 C518 1.394 . S
C516 H532 0.931 . S
C517 C516 1.391 . S
C517 C521 1.376 . S
C518 C516 1.394 . S
C518 C519 1.369 . S
C518 C522 1.531 . S
C519 C518 1.369 . S
C519 C520 1.410 . S
C519 C527 1.503 . S
C520 C519 1.410 . S
C520 C521 1.392 . S
C520 C523 1.511 . S
C521 C517 1.376 . S
C521 C520 1.392 . S
C521 H533 0.929 . S
C522 C518 1.531 . S
C522 H534 0.960 . S
C522 H535 0.962 . S
C522 H536 0.960 . S
C523 C520 1.511 . S
C523 H537 0.961 . S
C523 H538 0.961 . S
C523 H539 0.961 . S
C524 C525 1.370 . S
C524 C526 1.363 . S
C524 H540 0.931 . S
C525 C524 1.370 . S
C525 C529 1.408 . S
C526 C524 1.363 . S
C526 C527 1.370 . S
C526 C530 1.524 . S
C527 C519 1.503 . S
C527 C526 1.370 . S
C527 C528 1.403 . S
C528 C527 1.403 . S
C528 C529 1.404 . S
C528 C531 1.539 . S
C529 C525 1.408 . S
C529 C528 1.404 . S
C529 H541 0.930 . S
C530 C526 1.524 . S
C530 H542 0.956 . S
C530 H543 0.961 . S
C530 H544 0.961 . S
C531 C528 1.539 . S
C531 H545 0.958 . S
C531 H546 0.961 . S
C531 H547 0.960 . S
H532 C516 0.931 . S
H533 C521 0.929 . S
H534 C522 0.960 . S
H535 C522 0.962 . S
H536 C522 0.960 . S
H537 C523 0.961 . S
H538 C523 0.961 . S
H539 C523 0.961 . S
H540 C524 0.931 . S
H541 C529 0.930 . S
H542 C530 0.956 . S
H543 C530 0.961 . S
H544 C530 0.961 . S
H545 C531 0.958 . S
H546 C531 0.961 . S
H547 C531 0.960 . S
C548 C549 1.391 . S
C548 C550 1.394 . S
C548 H564 0.931 . S
C549 C548 1.391 . S
C549 C553 1.376 . S
C550 C548 1.394 . S
C550 C551 1.369 . S
C550 C554 1.531 1_655 S
C551 C550 1.369 . S
C551 C552 1.410 . S
C551 C559 1.503 . S
C552 C551 1.410 . S
C552 C553 1.392 . S
C552 C555 1.511 . S
C553 C549 1.376 . S
C553 C552 1.392 . S
C553 H565 0.929 . S
C554 C550 1.531 1_455 S
C554 H566 0.960 . S
C554 H567 0.962 . S
C554 H568 0.960 . S
C555 C552 1.511 . S
C555 H569 0.961 1_565 S
C555 H570 0.961 1_565 S
C555 H571 0.961 . S
C556 C557 1.370 1_545 S
C556 C558 1.363 . S
C556 H572 0.931 . S
C557 C556 1.370 1_565 S
C557 C561 1.408 . S
C558 C556 1.363 . S
C558 C559 1.370 1_545 S
C558 C562 1.524 . S
C559 C551 1.503 . S
C559 C558 1.370 1_565 S
C559 C560 1.403 . S
C560 C559 1.403 . S
C560 C561 1.404 . S
C560 C563 1.539 . S
C561 C557 1.408 . S
C561 C560 1.404 . S
C561 H573 0.930 . S
C562 C558 1.524 . S
C562 H574 0.956 . S
C562 H575 0.961 . S
C562 H576 0.961 . S
C563 C560 1.539 . S
C563 H577 0.958 . S
C563 H578 0.961 . S
C563 H579 0.960 . S
H564 C548 0.931 . S
H565 C553 0.929 . S
H566 C554 0.960 . S
H567 C554 0.962 . S
H568 C554 0.960 . S
H569 C555 0.961 1_545 S
H570 C555 0.961 1_545 S
H571 C555 0.961 . S
H572 C556 0.931 . S
H573 C561 0.930 . S
H574 C562 0.956 . S
H575 C562 0.961 . S
H576 C562 0.961 . S
H577 C563 0.958 . S
H578 C563 0.961 . S
H579 C563 0.960 . S
C580 C581 1.391 . S
C580 C582 1.394 . S
C580 H596 0.931 . S
C581 C580 1.391 . S
C581 C585 1.376 . S
C582 C580 1.394 . S
C582 C583 1.369 . S
C582 C586 1.531 1_545 S
C583 C582 1.369 . S
C583 C584 1.410 . S
C583 C591 1.503 . S
C584 C583 1.410 . S
C584 C585 1.392 . S
C584 C587 1.511 . S
C585 C581 1.376 . S
C585 C584 1.392 . S
C585 H597 0.929 . S
C586 C582 1.531 1_565 S
C586 H598 0.960 . S
C586 H599 0.962 . S
C586 H600 0.960 . S
C587 C584 1.511 . S
C587 H601 0.961 . S
C587 H602 0.961 . S
C587 H603 0.961 . S
C588 C589 1.370 . S
C588 C590 1.363 . S
C588 H604 0.931 . S
C589 C588 1.370 . S
C589 C593 1.408 . S
C590 C588 1.363 . S
C590 C591 1.370 . S
C590 C594 1.524 . S
C591 C583 1.503 . S
C591 C590 1.370 . S
C591 C592 1.403 . S
C592 C591 1.403 . S
C592 C593 1.404 . S
C592 C595 1.530 1_545 S
C593 C589 1.408 . S
C593 C592 1.404 . S
C593 H605 0.930 1_545 S
C594 C590 1.524 . S
C594 H606 0.956 . S
C594 H607 0.961 . S
C594 H608 0.961 . S
C595 C592 1.530 1_565 S
C595 H609 0.985 . S
C595 H610 0.961 . S
C595 H611 0.943 1_565 S
H596 C580 0.931 . S
H597 C585 0.929 . S
H598 C586 0.960 . S
H599 C586 0.962 . S
H600 C586 0.960 . S
H601 C587 0.961 . S
H602 C587 0.961 . S
H603 C587 0.961 . S
H604 C588 0.931 . S
H605 C593 0.930 1_565 S
H606 C594 0.956 . S
H607 C594 0.961 . S
H608 C594 0.961 . S
H609 C595 0.985 . S
H610 C595 0.961 . S
H611 C595 0.943 1_545 S
C612 C613 1.391 . S
C612 C614 1.394 . S
C612 H628 0.931 . S
C613 C612 1.391 . S
C613 C617 1.376 . S
C614 C612 1.394 . S
C614 C615 1.369 . S
C614 C618 1.531 . S
C615 C614 1.369 . S
C615 C616 1.410 . S
C615 C623 1.503 . S
C616 C615 1.410 . S
C616 C617 1.392 . S
C616 C619 1.511 . S
C617 C613 1.376 . S
C617 C616 1.392 . S
C617 H629 0.929 . S
C618 C614 1.531 . S
C618 H630 0.960 . S
C618 H631 0.962 . S
C618 H632 0.960 . S
C619 C616 1.511 . S
C619 H633 0.961 . S
C619 H634 0.961 . S
C619 H635 0.961 . S
C620 C621 1.370 . S
C620 C622 1.363 . S
C620 H636 0.931 . S
C621 C620 1.370 . S
C621 C625 1.408 . S
C622 C620 1.363 . S
C622 C623 1.370 . S
C622 C626 1.524 . S
C623 C615 1.503 . S
C623 C622 1.370 . S
C623 C624 1.403 . S
C624 C623 1.403 . S
C624 C625 1.404 . S
C624 C627 1.539 . S
C625 C621 1.408 . S
C625 C624 1.404 . S
C625 H637 0.930 . S
C626 C622 1.524 . S
C626 H638 0.956 . S
C626 H639 0.961 . S
C626 H640 0.961 . S
C627 C624 1.539 . S
C627 H641 0.958 . S
C627 H642 0.961 . S
C627 H643 0.960 . S
H628 C612 0.931 . S
H629 C617 0.929 . S
H630 C618 0.960 . S
H631 C618 0.962 . S
H632 C618 0.960 . S
H633 C619 0.961 . S
H634 C619 0.961 . S
H635 C619 0.961 . S
H636 C620 0.931 . S
H637 C625 0.930 . S
H638 C626 0.956 . S
H639 C626 0.961 . S
H640 C626 0.961 . S
H641 C627 0.958 . S
H642 C627 0.961 . S
H643 C627 0.960 . S
C644 C645 1.391 . S
C644 C646 1.394 . S
C644 H660 0.931 . S
C645 C644 1.391 . S
C645 C649 1.376 . S
C646 C644 1.394 . S
C646 C647 1.369 . S
C646 C650 1.531 . S
C647 C646 1.369 . S
C647 C648 1.410 . S
C647 C655 1.503 . S
C648 C647 1.410 . S
C648 C649 1.392 . S
C648 C651 1.511 . S
C649 C645 1.376 . S
C649 C648 1.392 . S
C649 H661 0.929 . S
C650 C646 1.531 . S
C650 H662 0.960 . S
C650 H663 0.962 1_455 S
C650 H664 0.960 . S
C651 C648 1.511 . S
C651 H665 0.961 . S
C651 H666 0.961 . S
C651 H667 0.961 . S
C652 C653 1.370 . S
C652 C654 1.363 . S
C652 H668 0.931 . S
C653 C652 1.370 . S
C653 C657 1.408 . S
C654 C652 1.363 . S
C654 C655 1.370 . S
C654 C658 1.524 . S
C655 C647 1.503 . S
C655 C654 1.370 . S
C655 C656 1.403 . S
C656 C655 1.403 . S
C656 C657 1.404 . S
C656 C659 1.539 . S
C657 C653 1.408 . S
C657 C656 1.404 . S
C657 H669 0.930 . S
C658 C654 1.524 . S
C658 H670 0.956 . S
C658 H671 0.961 . S
C658 H672 0.961 . S
C659 C656 1.539 . S
C659 H673 0.958 . S
C659 H674 0.961 . S
C659 H675 0.960 . S
H660 C644 0.931 . S
H661 C649 0.929 . S
H662 C650 0.960 . S
H663 C650 0.962 1_655 S
H664 C650 0.960 . S
H665 C651 0.961 . S
H666 C651 0.961 . S
H667 C651 0.961 . S
H668 C652 0.931 . S
H669 C657 0.930 . S
H670 C658 0.956 . S
H671 C658 0.961 . S
H672 C658 0.961 . S
H673 C659 0.958 . S
H674 C659 0.961 . S
H675 C659 0.960 . S
C676 C677 1.391 . S
C676 C678 1.394 . S
C676 H692 0.931 . S
C677 C676 1.391 . S
C677 C681 1.376 . S
C678 C676 1.394 . S
C678 C679 1.369 . S
C678 C682 1.531 . S
C679 C678 1.369 . S
C679 C680 1.410 . S
C679 C687 1.503 . S
C680 C679 1.410 . S
C680 C681 1.392 . S
C680 C683 1.511 1_556 S
C681 C677 1.376 . S
C681 C680 1.392 . S
C681 H693 0.929 . S
C682 C678 1.531 . S
C682 H694 0.960 . S
C682 H695 0.962 . S
C682 H696 0.960 . S
C683 C680 1.511 1_554 S
C683 H697 0.961 1_565 S
C683 H698 0.961 1_565 S
C683 H699 0.961 . S
C684 C685 1.370 1_545 S
C684 C686 1.363 . S
C684 H700 0.931 . S
C685 C684 1.370 1_565 S
C685 C689 1.408 . S
C686 C684 1.363 . S
C686 C687 1.370 1_545 S
C686 C690 1.524 . S
C687 C679 1.503 . S
C687 C686 1.370 1_565 S
C687 C688 1.403 . S
C688 C687 1.403 . S
C688 C689 1.404 . S
C688 C691 1.539 . S
C689 C685 1.408 . S
C689 C688 1.404 . S
C689 H701 0.922 1_556 S
C690 C686 1.524 . S
C690 H702 0.956 . S
C690 H703 0.961 . S
C690 H704 0.961 . S
C691 C688 1.539 . S
C691 H705 0.958 . S
C691 H706 0.961 1_556 S
C691 H707 0.960 1_556 S
H692 C676 0.931 . S
H693 C681 0.929 . S
H694 C682 0.960 . S
H695 C682 0.962 . S
H696 C682 0.960 . S
H697 C683 0.961 1_545 S
H698 C683 0.961 1_545 S
H699 C683 0.961 . S
H700 C684 0.931 . S
H701 C689 0.922 1_554 S
H702 C690 0.956 . S
H703 C690 0.961 . S
H704 C690 0.961 . S
H705 C691 0.958 . S
H706 C691 0.961 1_554 S
H707 C691 0.960 1_554 S
C708 C709 1.391 . S
C708 C710 1.394 . S
C708 H724 0.931 . S
C709 C708 1.391 . S
C709 C713 1.376 . S
C710 C708 1.394 . S
C710 C711 1.369 . S
C710 C714 1.531 1_545 S
C711 C710 1.369 . S
C711 C712 1.410 . S
C711 C719 1.503 . S
C712 C711 1.410 . S
C712 C713 1.392 . S
C712 C715 1.511 . S
C713 C709 1.376 . S
C713 C712 1.392 . S
C713 H725 0.929 . S
C714 C710 1.531 1_565 S
C714 H726 0.960 . S
C714 H727 0.962 . S
C714 H728 0.960 . S
C715 C712 1.511 . S
C715 H729 0.961 . S
C715 H730 0.961 . S
C715 H731 0.961 . S
C716 C717 1.370 . S
C716 C718 1.363 . S
C716 H732 0.931 . S
C717 C716 1.370 . S
C717 C721 1.408 . S
C718 C716 1.363 . S
C718 C719 1.370 . S
C718 C722 1.524 . S
C719 C711 1.503 . S
C719 C718 1.370 . S
C719 C720 1.403 . S
C720 C719 1.403 . S
C720 C721 1.404 . S
C720 C723 1.539 . S
C721 C717 1.408 . S
C721 C720 1.404 . S
C721 H733 0.930 . S
C722 C718 1.524 . S
C722 H734 0.956 . S
C722 H735 0.961 . S
C722 H736 0.961 . S
C723 C720 1.539 . S
C723 H737 0.958 1_545 S
C723 H738 0.961 . S
C723 H739 0.960 . S
H724 C708 0.931 . S
H725 C713 0.929 . S
H726 C714 0.960 . S
H727 C714 0.962 . S
H728 C714 0.960 . S
H729 C715 0.961 . S
H730 C715 0.961 . S
H731 C715 0.961 . S
H732 C716 0.931 . S
H733 C721 0.930 . S
H734 C722 0.956 . S
H735 C722 0.961 . S
H736 C722 0.961 . S
H737 C723 0.958 1_565 S
H738 C723 0.961 . S
H739 C723 0.960 . S
C740 C741 1.391 . S
C740 C742 1.394 . S
C740 H756 0.931 . S
C741 C740 1.391 . S
C741 C745 1.376 . S
C742 C740 1.394 . S
C742 C743 1.369 . S
C742 C746 1.531 . S
C743 C742 1.369 . S
C743 C744 1.410 . S
C743 C751 1.503 . S
C744 C743 1.410 . S
C744 C745 1.392 . S
C744 C747 1.511 . S
C745 C741 1.376 . S
C745 C744 1.392 . S
C745 H757 0.929 . S
C746 C742 1.531 . S
C746 H758 0.960 . S
C746 H759 0.962 1_554 S
C746 H760 0.960 . S
C747 C744 1.511 . S
C747 H761 0.961 . S
C747 H762 0.961 . S
C747 H763 0.961 . S
C748 C749 1.366 1_556 S
C748 C750 1.360 1_556 S
C748 H764 0.938 . S
C749 C748 1.366 1_554 S
C749 C753 1.408 . S
C750 C748 1.360 1_554 S
C750 C751 1.370 . S
C750 C754 1.524 1_554 S
C751 C743 1.503 . S
C751 C750 1.370 . S
C751 C752 1.403 . S
C752 C751 1.403 . S
C752 C753 1.404 . S
C752 C755 1.539 . S
C753 C749 1.408 . S
C753 C752 1.404 . S
C753 H765 0.930 . S
C754 C750 1.524 1_556 S
C754 H766 0.956 . S
C754 H767 0.961 1_556 S
C754 H768 0.961 . S
C755 C752 1.539 . S
C755 H769 0.958 . S
C755 H770 0.961 . S
C755 H771 0.960 . S
H756 C740 0.931 . S
H757 C745 0.929 . S
H758 C746 0.960 . S
H759 C746 0.962 1_556 S
H760 C746 0.960 . S
H761 C747 0.961 . S
H762 C747 0.961 . S
H763 C747 0.961 . S
H764 C748 0.938 . S
H765 C753 0.930 . S
H766 C754 0.956 . S
H767 C754 0.961 1_554 S
H768 C754 0.961 . S
H769 C755 0.958 . S
H770 C755 0.961 . S
H771 C755 0.960 . S
C772 C773 1.391 . S
C772 C774 1.394 . S
C772 H788 0.931 . S
C773 C772 1.391 . S
C773 C777 1.376 . S
C774 C772 1.394 . S
C774 C775 1.369 . S
C774 C778 1.531 . S
C775 C774 1.369 . S
C775 C776 1.410 . S
C775 C783 1.503 . S
C776 C775 1.410 . S
C776 C777 1.392 . S
C776 C779 1.511 . S
C777 C773 1.376 . S
C777 C776 1.392 . S
C777 H789 0.929 . S
C778 C774 1.531 . S
C778 H790 0.960 . S
C778 H791 0.962 . S
C778 H792 0.960 . S
C779 C776 1.511 . S
C779 H793 0.961 . S
C779 H794 0.961 . S
C779 H795 0.961 . S
C780 C781 1.370 . S
C780 C782 1.363 . S
C780 H796 0.931 . S
C781 C780 1.370 . S
C781 C785 1.408 . S
C782 C780 1.363 . S
C782 C783 1.370 . S
C782 C786 1.524 . S
C783 C775 1.503 . S
C783 C782 1.370 . S
C783 C784 1.403 . S
C784 C783 1.403 . S
C784 C785 1.404 . S
C784 C787 1.539 . S
C785 C781 1.408 . S
C785 C784 1.404 . S
C785 H797 0.930 . S
C786 C782 1.524 . S
C786 H798 0.956 . S
C786 H799 0.961 . S
C786 H800 0.961 . S
C787 C784 1.539 . S
C787 H801 0.958 . S
C787 H802 0.961 . S
C787 H803 0.960 . S
H788 C772 0.931 . S
H789 C777 0.929 . S
H790 C778 0.960 . S
H791 C778 0.962 . S
H792 C778 0.960 . S
H793 C779 0.961 . S
H794 C779 0.961 . S
H795 C779 0.961 . S
H796 C780 0.931 . S
H797 C785 0.930 . S
H798 C786 0.956 . S
H799 C786 0.961 . S
H800 C786 0.961 . S
H801 C787 0.958 . S
H802 C787 0.961 . S
H803 C787 0.960 . S
C804 C805 1.391 . S
C804 C806 1.394 . S
C804 H820 0.931 . S
C805 C804 1.391 . S
C805 C809 1.376 . S
C806 C804 1.394 . S
C806 C807 1.369 . S
C806 C810 1.531 . S
C807 C806 1.369 . S
C807 C808 1.410 . S
C807 C815 1.503 . S
C808 C807 1.410 . S
C808 C809 1.392 . S
C808 C811 1.511 1_556 S
C809 C805 1.376 . S
C809 C808 1.392 . S
C809 H821 0.929 . S
C810 C806 1.531 . S
C810 H822 0.960 . S
C810 H823 0.962 . S
C810 H824 0.960 . S
C811 C808 1.511 1_554 S
C811 H825 0.961 . S
C811 H826 0.961 . S
C811 H827 0.961 . S
C812 C813 1.370 . S
C812 C814 1.363 . S
C812 H828 0.931 . S
C813 C812 1.370 . S
C813 C817 1.391 1_655 S
C814 C812 1.363 . S
C814 C815 1.370 . S
C814 C818 1.524 . S
C815 C807 1.503 . S
C815 C814 1.370 . S
C815 C816 1.403 . S
C816 C815 1.403 . S
C816 C817 1.401 1_655 S
C816 C819 1.539 1_655 S
C817 C813 1.391 1_455 S
C817 C816 1.401 1_455 S
C817 H829 0.949 . S
C818 C814 1.524 . S
C818 H830 0.956 . S
C818 H831 0.961 . S
C818 H832 0.961 . S
C819 C816 1.539 1_455 S
C819 H833 0.958 . S
C819 H834 0.978 . S
C819 H835 0.960 . S
H820 C804 0.931 . S
H821 C809 0.929 . S
H822 C810 0.960 . S
H823 C810 0.962 . S
H824 C810 0.960 . S
H825 C811 0.961 . S
H826 C811 0.961 . S
H827 C811 0.961 . S
H828 C812 0.931 . S
H829 C817 0.949 . S
H830 C818 0.956 . S
H831 C818 0.961 . S
H832 C818 0.961 . S
H833 C819 0.958 . S
H834 C819 0.978 . S
H835 C819 0.960 . S
C836 C837 1.391 . S
C836 C838 1.394 . S
C836 H852 0.931 . S
C837 C836 1.391 . S
C837 C841 1.376 . S
C838 C836 1.394 . S
C838 C839 1.369 . S
C838 C842 1.531 . S
C839 C838 1.369 . S
C839 C840 1.410 . S
C839 C847 1.503 . S
C840 C839 1.410 . S
C840 C841 1.392 . S
C840 C843 1.511 . S
C841 C837 1.376 . S
C841 C840 1.392 . S
C841 H853 0.929 . S
C842 C838 1.531 . S
C842 H854 0.960 . S
C842 H855 0.962 . S
C842 H856 0.960 . S
C843 C840 1.511 . S
C843 H857 0.961 . S
C843 H858 0.961 . S
C843 H859 0.961 . S
C844 C845 1.370 . S
C844 C846 1.363 . S
C844 H860 0.931 . S
C845 C844 1.370 . S
C845 C849 1.408 . S
C846 C844 1.363 . S
C846 C847 1.370 . S
C846 C850 1.524 . S
C847 C839 1.503 . S
C847 C846 1.370 . S
C847 C848 1.403 . S
C848 C847 1.403 . S
C848 C849 1.404 . S
C848 C851 1.539 . S
C849 C845 1.408 . S
C849 C848 1.404 . S
C849 H861 0.930 . S
C850 C846 1.524 . S
C850 H862 0.963 . S
C850 H863 0.961 . S
C850 H864 0.961 1_554 S
C851 C848 1.539 . S
C851 H865 0.958 . S
C851 H866 0.961 . S
C851 H867 0.960 . S
H852 C836 0.931 . S
H853 C841 0.929 . S
H854 C842 0.960 . S
H855 C842 0.962 . S
H856 C842 0.960 . S
H857 C843 0.961 . S
H858 C843 0.961 . S
H859 C843 0.961 . S
H860 C844 0.931 . S
H861 C849 0.930 . S
H862 C850 0.963 . S
H863 C850 0.961 . S
H864 C850 0.961 1_556 S
H865 C851 0.958 . S
H866 C851 0.961 . S
H867 C851 0.960 . S
C868 C869 1.391 . S
C868 C870 1.394 . S
C868 H884 0.931 . S
C869 C868 1.391 . S
C869 C873 1.376 . S
C870 C868 1.394 . S
C870 C871 1.369 . S
C870 C874 1.551 . S
C871 C870 1.369 . S
C871 C872 1.410 . S
C871 C879 1.503 . S
C872 C871 1.410 . S
C872 C873 1.392 . S
C872 C875 1.511 . S
C873 C869 1.376 . S
C873 C872 1.392 . S
C873 H885 0.929 . S
C874 C870 1.551 . S
C874 H886 0.953 1_455 S
C874 H887 0.965 . S
C874 H888 0.945 1_455 S
C875 C872 1.511 . S
C875 H889 0.961 . S
C875 H890 0.961 . S
C875 H891 0.961 . S
C876 C877 1.370 . S
C876 C878 1.363 . S
C876 H892 0.931 . S
C877 C876 1.370 . S
C877 C881 1.408 . S
C878 C876 1.363 . S
C878 C879 1.370 . S
C878 C882 1.524 . S
C879 C871 1.503 . S
C879 C878 1.370 . S
C879 C880 1.403 . S
C880 C879 1.403 . S
C880 C881 1.404 . S
C880 C883 1.539 . S
C881 C877 1.408 . S
C881 C880 1.404 . S
C881 H893 0.930 . S
C882 C878 1.524 . S
C882 H894 0.956 . S
C882 H895 0.961 . S
C882 H896 0.961 . S
C883 C880 1.539 . S
C883 H897 0.958 1_455 S
C883 H898 0.961 . S
C883 H899 0.960 . S
H884 C868 0.931 . S
H885 C873 0.929 . S
H886 C874 0.953 1_655 S
H887 C874 0.965 . S
H888 C874 0.945 1_655 S
H889 C875 0.961 . S
H890 C875 0.961 . S
H891 C875 0.961 . S
H892 C876 0.931 . S
H893 C881 0.930 . S
H894 C882 0.956 . S
H895 C882 0.961 . S
H896 C882 0.961 . S
H897 C883 0.958 1_655 S
H898 C883 0.961 . S
H899 C883 0.960 . S
C900 C901 1.391 . S
C900 C902 1.394 . S
C900 H916 0.931 . S
C901 C900 1.391 . S
C901 C905 1.376 . S
C902 C900 1.394 . S
C902 C903 1.369 . S
C902 C906 1.531 . S
C903 C902 1.369 . S
C903 C904 1.410 . S
C903 C911 1.503 . S
C904 C903 1.410 . S
C904 C905 1.392 . S
C904 C907 1.511 . S
C905 C901 1.376 . S
C905 C904 1.392 . S
C905 H917 0.929 . S
C906 C902 1.531 . S
C906 H918 0.960 . S
C906 H919 0.962 . S
C906 H920 0.960 . S
C907 C904 1.511 . S
C907 H921 0.961 . S
C907 H922 0.961 . S
C907 H923 0.961 . S
C908 C909 1.370 . S
C908 C910 1.363 . S
C908 H924 0.931 . S
C909 C908 1.370 . S
C909 C913 1.408 . S
C910 C908 1.363 . S
C910 C911 1.370 . S
C910 C914 1.524 . S
C911 C903 1.503 . S
C911 C910 1.370 . S
C911 C912 1.403 . S
C912 C911 1.403 . S
C912 C913 1.404 . S
C912 C915 1.539 . S
C913 C909 1.408 . S
C913 C912 1.404 . S
C913 H925 0.930 . S
C914 C910 1.524 . S
C914 H926 0.956 . S
C914 H927 0.961 . S
C914 H928 0.961 . S
C915 C912 1.539 . S
C915 H929 0.958 . S
C915 H930 0.961 . S
C915 H931 0.960 . S
H916 C900 0.931 . S
H917 C905 0.929 . S
H918 C906 0.960 . S
H919 C906 0.962 . S
H920 C906 0.960 . S
H921 C907 0.961 . S
H922 C907 0.961 . S
H923 C907 0.961 . S
H924 C908 0.931 . S
H925 C913 0.930 . S
H926 C914 0.956 . S
H927 C914 0.961 . S
H928 C914 0.961 . S
H929 C915 0.958 . S
H930 C915 0.961 . S
H931 C915 0.960 . S
C165 C5 1.566 . S
C173 C90 1.564 . S
C197 C14 1.553 . S
C205 C114 1.537 . S
C237 C134 1.401 . S
C229 C25 1.386 . S
C261 C34 1.391 . S
C269 C157 1.408 . S
C301 C116 1.608 . S
C293 C7 1.655 . S
C333 C92 1.604 . S
C325 C13 1.658 . S
C365 C160 1.523 . S
C357 C23 1.538 . S
C397 C137 1.490 . S
C389 C31 1.545 . S
C421 C4 1.410 . S
C429 C162 1.399 . S
C461 C111 1.577 . S
C453 C22 1.559 . S
C485 C32 1.575 . S
C493 C89 1.579 . S
C517 C16 1.389 . S
C525 C139 1.374 . S
C557 C93 1.547 . S
C549 C41 1.537 . S
C581 C50 1.558 . S
C589 C115 1.527 . S
C613 C61 1.651 . S
C621 C135 1.660 . S
C645 C67 1.630 . S
C653 C158 1.674 . S
C677 C40 1.478 . S
C685 C113 1.462 . S
C717 C91 1.476 . S
C709 C52 1.457 . S
C749 C161 1.425 . S
C741 C59 1.471 . S
C781 C138 1.443 . S
C773 C70 1.499 . S
C805 C43 1.755 . S
C813 C159 1.713 . S
C845 C112 1.501 . S
C837 C58 1.453 . S
C877 C88 1.489 . S
C869 C68 1.491 . S
C901 C49 1.719 . S
C909 C136 1.698 . S
