# Generated by pormake.
# Topology zzz, (3,6)-cn, num edge types: 1
# Building blocks:
#     Node 0, Type 0, BuildingBlock: PAMTOO_clean_linker_0, # of connection points: 3
#     Node 1, Type 0, BuildingBlock: PAMTOO_clean_linker_0, # of connection points: 3
#     Node 2, Type 0, BuildingBlock: PAMTOO_clean_linker_0, # of connection points: 3
#     Node 3, Type 0, BuildingBlock: PAMTOO_clean_linker_0, # of connection points: 3
#     Node 4, Type 0, BuildingBlock: PAMTOO_clean_linker_0, # of connection points: 3
#     Node 5, Type 0, BuildingBlock: PAMTOO_clean_linker_0, # of connection points: 3
#     Node 6, Type 0, BuildingBlock: PAMTOO_clean_linker_0, # of connection points: 3
#     Node 7, Type 0, BuildingBlock: PAMTOO_clean_linker_0, # of connection points: 3
#     Node 8, Type 1, BuildingBlock: BETDEL_clean_sbu_0, # of connection points: 6
#     Node 9, Type 1, BuildingBlock: BETDEL_clean_sbu_0, # of connection points: 6
#     Node 10, Type 1, BuildingBlock: BETDEL_clean_sbu_0, # of connection points: 6
#     Node 11, Type 1, BuildingBlock: BETDEL_clean_sbu_0, # of connection points: 6
#     Edge 12, Type (0, 1), BuildingBlock: UVAHIK_clean_linker_0, # of connection points: 2
#     Edge 13, Type (0, 1), BuildingBlock: UVAHIK_clean_linker_0, # of connection points: 2
#     Edge 14, Type (0, 1), BuildingBlock: UVAHIK_clean_linker_0, # of connection points: 2
#     Edge 15, Type (0, 1), BuildingBlock: UVAHIK_clean_linker_0, # of connection points: 2
#     Edge 16, Type (0, 1), BuildingBlock: UVAHIK_clean_linker_0, # of connection points: 2
#     Edge 17, Type (0, 1), BuildingBlock: UVAHIK_clean_linker_0, # of connection points: 2
#     Edge 18, Type (0, 1), BuildingBlock: UVAHIK_clean_linker_0, # of connection points: 2
#     Edge 19, Type (0, 1), BuildingBlock: UVAHIK_clean_linker_0, # of connection points: 2
#     Edge 20, Type (0, 1), BuildingBlock: UVAHIK_clean_linker_0, # of connection points: 2
#     Edge 21, Type (0, 1), BuildingBlock: UVAHIK_clean_linker_0, # of connection points: 2
#     Edge 22, Type (0, 1), BuildingBlock: UVAHIK_clean_linker_0, # of connection points: 2
#     Edge 23, Type (0, 1), BuildingBlock: UVAHIK_clean_linker_0, # of connection points: 2
#     Edge 24, Type (0, 1), BuildingBlock: UVAHIK_clean_linker_0, # of connection points: 2
#     Edge 25, Type (0, 1), BuildingBlock: UVAHIK_clean_linker_0, # of connection points: 2
#     Edge 26, Type (0, 1), BuildingBlock: UVAHIK_clean_linker_0, # of connection points: 2
#     Edge 27, Type (0, 1), BuildingBlock: UVAHIK_clean_linker_0, # of connection points: 2
#     Edge 28, Type (0, 1), BuildingBlock: UVAHIK_clean_linker_0, # of connection points: 2
#     Edge 29, Type (0, 1), BuildingBlock: UVAHIK_clean_linker_0, # of connection points: 2
#     Edge 30, Type (0, 1), BuildingBlock: UVAHIK_clean_linker_0, # of connection points: 2
#     Edge 31, Type (0, 1), BuildingBlock: UVAHIK_clean_linker_0, # of connection points: 2
#     Edge 32, Type (0, 1), BuildingBlock: UVAHIK_clean_linker_0, # of connection points: 2
#     Edge 33, Type (0, 1), BuildingBlock: UVAHIK_clean_linker_0, # of connection points: 2
#     Edge 34, Type (0, 1), BuildingBlock: UVAHIK_clean_linker_0, # of connection points: 2
#     Edge 35, Type (0, 1), BuildingBlock: UVAHIK_clean_linker_0, # of connection points: 2
# Relax obj value: 0.148
# Max RMSD: 0.172
# Mean RMSD: 0.111
data_MOF--net-zzz--node1-BETDEL_clean_sbu_0--node2-PAMTOO_clean_linker_0--edge1-UVAHIK_clean_linker_0
_symmetry_space_group_name_H-M    P1
_symmetry_Int_Tables_number       1
_symmetry_cell_setting            triclinic
loop_
_symmetry_equiv_pos_as_xyz
'x, y, z'
_cell_length_a     64.03246
_cell_length_b     65.429116
_cell_length_c     19.238723
_cell_angle_alpha  91.342195
_cell_angle_beta   88.413221
_cell_angle_gamma 95.044791
loop_
_atom_site_label
_atom_site_type_symbol
_atom_site_fract_x
_atom_site_fract_y
_atom_site_fract_z
_atom_type_partial_charge
H0 H 0.80278 0.52614 0.12489 0.0
H1 H 0.74548 0.52286 0.0129 0.0
H2 H 0.74377 0.51323 0.2342 0.0
H3 H 0.70279 0.49055 0.15437 0.0
C4 C 0.70951 0.49751 0.10563 0.0
O5 O 0.72079 0.51591 0.12218 0.0
H6 H 0.71985 0.48636 0.08125 0.0
C7 C 0.78575 0.52429 0.12491 0.0
C8 C 0.77466 0.51989 0.18701 0.0
C9 C 0.77543 0.52519 0.06218 0.0
C10 C 0.75354 0.52223 0.06145 0.0
C11 C 0.74202 0.51817 0.12352 0.0
C12 C 0.75261 0.51671 0.18649 0.0
H13 H 1.00491 0.80511 0.09073 0.0
H14 H 1.00623 0.74808 0.97628 0.0
H15 H 0.97736 0.74927 0.18137 0.0
H16 H 0.9969 0.70656 0.14514 0.0
C17 C 1.00067 0.71152 0.09102 0.0
O18 O 0.98692 0.72564 0.07386 0.0
H19 H 0.01719 0.71845 0.08901 0.0
C20 C 1.00155 0.78855 0.08805 0.0
C21 C 0.99056 0.77856 0.14305 0.0
C22 C 1.00729 0.77773 0.02812 0.0
C23 C 1.00223 0.7565 0.02322 0.0
C24 C 0.99186 0.74613 0.07917 0.0
C25 C 0.98594 0.75718 0.1392 0.0
H26 H 0.70479 0.98208 0.09427 0.0
H27 H 0.76611 0.98491 0.99752 0.0
H28 H 0.75863 0.97525 0.21796 0.0
H29 H 0.80544 0.99686 0.17213 0.0
C30 C 0.80027 0.99552 0.11742 0.0
O31 O 0.78591 0.97851 0.11116 0.0
H32 H 0.79301 0.00989 0.10599 0.0
C33 C 0.72155 0.9811 0.09799 0.0
C34 C 0.73001 0.97804 0.16281 0.0
C35 C 0.73449 0.9839 0.03861 0.0
C36 C 0.75614 0.98302 0.0436 0.0
C37 C 0.76494 0.97979 0.10795 0.0
C38 C 0.75186 0.97752 0.16805 0.0
H39 H 0.51713 0.71006 0.12128 0.0
H40 H 0.52434 0.76752 0.01595 0.0
H41 H 0.53011 0.76626 0.23875 0.0
H42 H 0.51597 0.81097 0.18789 0.0
C43 C 0.51477 0.80305 0.13625 0.0
O44 O 0.53071 0.79013 0.12885 0.0
H45 H 0.49905 0.79424 0.1357 0.0
C46 C 0.51977 0.72669 0.12338 0.0
C47 C 0.5234 0.73673 0.1873 0.0
C48 C 0.52016 0.7376 0.06175 0.0
C49 C 0.52391 0.75899 0.06364 0.0
C50 C 0.52718 0.76941 0.12759 0.0
C51 C 0.52721 0.75825 0.1896 0.0
H52 H 0.21599 0.50271 0.04168 0.0
H53 H 0.27505 0.50629 0.14394 0.0
H54 H 0.27248 0.49359 0.92306 0.0
H55 H 0.31387 0.47576 0.99348 0.0
C56 C 0.3069 0.48122 0.04334 0.0
O57 O 0.29736 0.49893 0.03143 0.0
H58 H 0.29526 0.46863 0.0613 0.0
C59 C 0.23287 0.50187 0.03912 0.0
C60 C 0.24273 0.49783 0.97529 0.0
C61 C 0.24434 0.5049 0.09974 0.0
C62 C 0.26608 0.50392 0.09705 0.0
C63 C 0.27628 0.4997 0.03344 0.0
C64 C 0.26459 0.49669 0.97222 0.0
H65 H 0.99406 0.20931 0.05733 0.0
H66 H 1.00081 0.26669 0.17133 0.0
H67 H 0.01725 0.26437 0.95274 0.0
H68 H 0.04128 0.30317 0.02996 0.0
C69 C 0.03317 0.29774 0.07879 0.0
O70 O 0.01354 0.2886 0.06315 0.0
H71 H 0.04308 0.28658 0.10183 0.0
C72 C 0.99765 0.22584 0.05811 0.0
C73 C 1.00546 0.23548 0.99756 0.0
C74 C 0.99611 0.23685 0.12098 0.0
C75 C 1.0017 0.25804 0.12277 0.0
C76 C 0.00885 0.26805 0.06167 0.0
C77 C 0.0111 0.25671 -0.00076 0.0
H78 H 0.31044 0.03128 0.05664 0.0
H79 H 0.24781 0.01921 0.14113 0.0
H80 H 0.25785 0.02906 0.92162 0.0
H81 H 0.21045 0.04114 0.97652 0.0
C82 C 0.21684 0.03856 0.02841 0.0
O83 O 0.22929 0.02233 0.02274 0.0
H84 H 0.22614 0.0531 0.04372 0.0
C85 C 0.2936 0.02977 0.04957 0.0
C86 C 0.28587 0.03088 0.98265 0.0
C87 C 0.28007 0.02544 0.10678 0.0
C88 C 0.25839 0.02273 0.09728 0.0
C89 C 0.25031 0.0246 0.03091 0.0
C90 C 0.26408 0.02829 0.97317 0.0
H91 H 0.47981 0.29919 0.03844 0.0
H92 H 0.49456 0.24522 0.14345 0.0
H93 H 0.49713 0.24661 0.91951 0.0
H94 H 0.48963 0.19859 0.9743 0.0
C95 C 0.4868 0.20665 0.02467 0.0
O96 O 0.50109 0.22376 0.02956 0.0
H97 H 0.47043 0.21124 0.02466 0.0
C98 C 0.48358 0.28332 0.0363 0.0
C99 C 0.48765 0.27409 0.97171 0.0
C100 C 0.48626 0.27322 0.09829 0.0
C101 C 0.49214 0.25309 0.09577 0.0
C102 C 0.4954 0.24322 0.0313 0.0
C103 C 0.49368 0.25391 0.96911 0.0
Dy104 Dy 0.01819 0.99667 0.63638 0.0
C105 C 0.99717 0.04435 0.41273 0.0
C106 C 0.0221 0.96898 0.73806 0.0
Dy107 Dy 1.00063 0.0166 0.51457 0.0
O108 O 0.03758 0.98028 0.70962 0.0
O109 O 1.00454 0.97367 0.71331 0.0
O110 O 0.05069 0.0092 0.60556 0.0
O111 O 0.0288 1.00091 0.52808 0.0
C112 C 0.04707 0.00906 0.5394 0.0
C113 C 0.9718 1.00426 0.61207 0.0
O114 O 0.99906 0.98519 0.46652 0.0
O115 O 1.00528 0.96975 0.57036 0.0
O116 O 0.98147 0.03474 0.44598 0.0
O117 O 0.01457 0.03792 0.43275 0.0
O118 O 0.96804 1.0043 0.54601 0.0
O119 O 0.99009 0.01236 0.62289 0.0
O120 O 0.01821 0.02816 0.68471 0.0
O121 O 0.01453 0.04329 0.5788 0.0
C122 C 0.99992 0.9686 0.50417 0.0
C123 C 0.01855 0.0447 0.64599 0.0
Dy124 Dy 0.4905 0.99386 0.5384 0.0
C125 C 0.56679 0.02809 0.66 0.0
C126 C 0.45142 0.98308 0.4896 0.0
Dy127 Dy 0.52694 0.01746 0.61817 0.0
O128 O 0.46878 0.98186 0.4536 0.0
O129 O 0.45554 0.98985 0.55194 0.0
O130 O 0.51365 0.97436 0.48409 0.0
O131 O 0.52263 1.00495 0.51372 0.0
C132 C 0.52913 0.98863 0.48858 0.0
C133 C 0.48836 0.02314 0.66708 0.0
O134 O 0.52217 0.04128 0.54032 0.0
O135 O 0.49017 0.02642 0.50079 0.0
O136 O 0.55 0.03077 0.69771 0.0
O137 O 0.56164 0.01979 0.60053 0.0
O138 O 0.50403 0.03722 0.67215 0.0
O139 O 0.49471 0.00667 0.64254 0.0
O140 O 0.49528 0.96984 0.61555 0.0
O141 O 0.52658 0.98523 0.65929 0.0
C142 C 0.50508 0.04193 0.50328 0.0
C143 C 0.51194 0.9695 0.65493 0.0
Dy144 Dy 0.50032 0.5154 0.64506 0.0
C145 C 0.51645 0.46854 0.4018 0.0
C146 C 0.49992 0.54217 0.75565 0.0
Dy147 Dy 0.51607 0.49531 0.51249 0.0
O148 O 0.48333 0.53419 0.72426 0.0
O149 O 0.51646 0.53467 0.72858 0.0
O150 O 0.46703 0.50484 0.61908 0.0
O151 O 0.48922 0.5123 0.539 0.0
C152 C 0.47062 0.5051 0.55215 0.0
C153 C 0.54567 0.50547 0.60619 0.0
O154 O 0.5186 0.52732 0.47276 0.0
O155 O 0.5145 0.54223 0.58236 0.0
O156 O 0.53274 0.47491 0.43768 0.0
O157 O 0.50034 0.47768 0.4244 0.0
O158 O 0.54937 0.50581 0.53927 0.0
O159 O 0.52704 0.49829 0.61858 0.0
O160 O 0.49859 0.48338 0.68477 0.0
O161 O 0.5012 0.46863 0.57448 0.0
C162 C 0.51895 0.54374 0.51472 0.0
C163 C 0.49752 0.46702 0.64249 0.0
Dy164 Dy 0.99747 0.49723 0.64741 0.0
C165 C 0.04673 0.51385 0.40149 0.0
C166 C 0.97043 0.49678 0.75935 0.0
Dy167 Dy 0.01903 0.5116 0.5118 0.0
O168 O 0.9734 0.48106 0.71894 0.0
O169 O 0.98309 0.51235 0.74047 0.0
O170 O 1.0066 0.46534 0.62694 0.0
O171 O 1.00028 0.48394 0.54316 0.0
C172 C 1.00679 0.46708 0.55959 0.0
C173 C 0.01008 0.54162 0.60151 0.0
O174 O 0.98625 0.50863 0.47297 0.0
O175 O 0.97127 0.50772 0.58413 0.0
O176 O 0.03908 0.52949 0.43252 0.0
O177 O 0.0383 0.49701 0.42858 0.0
O178 O 0.00992 0.54357 0.53439 0.0
O179 O 0.01653 0.52463 0.61616 0.0
O180 O 0.03023 0.49825 0.68561 0.0
O181 O 0.04562 0.50206 0.57535 0.0
C182 C 0.96969 0.50926 0.51578 0.0
C183 C 0.04693 0.49884 0.64301 0.0
C184 C 0.17927 0.02602 0.05993 0.0
C185 C 0.1992 0.03405 0.08115 0.0
C186 C 0.16268 0.02279 0.10856 0.0
C187 C 0.15084 0.01677 0.29749 0.0
H188 H 0.09604 0.03248 0.25047 0.0
C189 C 0.08413 0.02015 0.50425 0.0
C190 C 0.06376 0.01287 0.48518 0.0
C191 C 0.10034 0.02273 0.45412 0.0
C192 C 0.11116 0.02777 0.26423 0.0
H193 H 0.21771 0.04419 0.16985 0.0
H194 H 0.18879 0.03865 0.25506 0.0
H195 H 0.12496 0.03628 0.16518 0.0
H196 H 0.04425 1.00298 0.39836 0.0
H197 H 0.07261 0.0073 0.31058 0.0
H198 H 0.1371 0.00826 0.39644 0.0
C199 C 0.18588 0.03483 0.20091 0.0
C200 C 0.12778 0.02995 0.21523 0.0
C201 C 0.20244 0.0381 0.1522 0.0
C202 C 0.05981 0.00863 0.4146 0.0
C203 C 0.07606 0.01119 0.3643 0.0
C204 C 0.13424 0.01457 0.3464 0.0
C205 C 0.16571 0.02733 0.17966 0.0
C206 C 0.14787 0.02456 0.2313 0.0
C207 C 0.09661 0.01807 0.38352 0.0
C208 C 0.11419 0.02014 0.33064 0.0
H209 H 0.17646 0.02252 0.0055 0.0
H210 H 0.14749 0.01664 0.09044 0.0
H211 H 0.16598 0.01214 0.31135 0.0
H212 H 0.08763 0.0237 0.55819 0.0
H213 H 0.11582 0.02845 0.47081 0.0
C214 C 0.47155 0.17866 0.1038 0.0
C215 C 0.48897 0.19186 0.08298 0.0
C216 C 0.47345 0.16361 0.15319 0.0
C217 C 0.51308 0.13382 0.23351 0.0
H218 H 0.46736 0.11887 0.36402 0.0
C219 C 0.52002 0.07516 0.45114 0.0
C220 C 0.503 0.06027 0.46044 0.0
C221 C 0.51843 0.09193 0.40823 0.0
C222 C 0.48022 0.12276 0.32759 0.0
H223 H 0.52232 0.19913 0.09629 0.0
H224 H 0.52558 0.17334 0.18423 0.0
H225 H 0.46463 0.14706 0.28504 0.0
H226 H 0.47076 0.05167 0.43259 0.0
H227 H 0.46798 0.08097 0.35817 0.0
H228 H 0.52869 0.10957 0.27665 0.0
C229 C 0.51037 0.17452 0.16215 0.0
C230 C 0.47865 0.13893 0.28208 0.0
C231 C 0.50847 0.18951 0.11229 0.0
C232 C 0.48421 0.0628 0.42667 0.0
C233 C 0.48257 0.07968 0.38424 0.0
C234 C 0.51471 0.11776 0.27941 0.0
C235 C 0.4929 0.16124 0.18301 0.0
C236 C 0.49498 0.1446 0.23388 0.0
C237 C 0.49972 0.09436 0.37397 0.0
C238 C 0.49823 0.11192 0.32668 0.0
H239 H 0.45644 0.17975 0.08079 0.0
H240 H 0.45972 0.15345 0.16645 0.0
H241 H 0.52585 0.13742 0.19651 0.0
H242 H 0.53475 0.07376 0.4762 0.0
H243 H 0.53187 0.10307 0.40211 0.0
C244 C 0.34443 0.49169 0.07617 0.0
C245 C 0.32373 0.48528 0.09677 0.0
C246 C 0.36025 0.49442 0.12529 0.0
C247 C 0.36927 0.50131 0.31531 0.0
H248 H 0.42351 0.48222 0.26633 0.0
C249 C 0.43326 0.49583 0.51967 0.0
C250 C 0.45406 0.50206 0.49955 0.0
C251 C 0.41742 0.4938 0.4705 0.0
C252 C 0.40854 0.48785 0.2807 0.0
H253 H 0.30307 0.47771 0.18503 0.0
H254 H 0.33065 0.48221 0.27098 0.0
H255 H 0.39584 0.47938 0.18128 0.0
H256 H 0.47462 0.5109 0.41198 0.0
H257 H 0.44705 0.50738 0.32618 0.0
H258 H 0.38198 0.50969 0.41487 0.0
C259 C 0.33477 0.48516 0.21696 0.0
C260 C 0.39264 0.48624 0.23179 0.0
C261 C 0.31897 0.48245 0.16778 0.0
C262 C 0.45875 0.50595 0.42905 0.0
C263 C 0.44294 0.50386 0.37982 0.0
C264 C 0.38517 0.50289 0.36427 0.0
C265 C 0.35571 0.49094 0.19632 0.0
C266 C 0.37276 0.49294 0.24836 0.0
C267 C 0.42201 0.4979 0.39991 0.0
C268 C 0.40503 0.49616 0.34769 0.0
H269 H 0.34843 0.49428 0.02183 0.0
H270 H 0.37606 0.4993 0.10752 0.0
H271 H 0.35431 0.50693 0.32974 0.0
H272 H 0.42917 0.49266 0.57359 0.0
H273 H 0.40158 0.48888 0.4878 0.0
C274 C 0.02664 0.33471 0.10377 0.0
C275 C 0.0309 0.31555 0.12859 0.0
C276 C 0.02422 0.35122 0.15 0.0
C277 C 0.01273 0.36346 0.33577 0.0
H278 H 0.03629 0.41804 0.28697 0.0
C279 C 0.01617 0.43138 0.53341 0.0
C280 C 0.01055 0.45022 0.50963 0.0
C281 C 0.01901 0.41512 0.48662 0.0
C282 C 0.02946 0.40292 0.30108 0.0
H283 H 0.03516 0.29827 0.22088 0.0
H284 H 0.03139 0.32715 0.30187 0.0
H285 H 0.04036 0.38927 0.20617 0.0
H286 H 1.00369 0.46693 0.41826 0.0
H287 H 0.00872 0.43855 0.33634 0.0
H288 H 1.00195 0.37711 0.43087 0.0
C289 C 0.02984 0.32951 0.2468 0.0
C290 C 0.03175 0.38642 0.25472 0.0
C291 C 0.03219 0.31301 0.20052 0.0
C292 C 0.00812 0.4526 0.43801 0.0
C293 C 0.01107 0.43637 0.39111 0.0
C294 C 0.01051 0.37994 0.38221 0.0
C295 C 0.02587 0.34886 0.22214 0.0
C296 C 0.02341 0.36646 0.27145 0.0
C297 C 0.01638 0.41737 0.41494 0.0
C298 C 0.01885 0.39987 0.36546 0.0
H299 H 0.02518 0.33689 0.04853 0.0
H300 H 0.02077 0.36575 0.12921 0.0
H301 H 1.00577 0.3484 0.34994 0.0
H302 H 0.01823 0.42914 0.58833 0.0
H303 H 0.02338 0.4008 0.50657 0.0
C304 C 0.81602 0.99393 0.99543 0.0
C305 C 0.81876 0.99363 0.06757 0.0
C306 C 0.83315 0.99305 0.94899 0.0
C307 C 0.89009 1.00521 0.93507 0.0
H308 H 0.88621 0.97029 0.76955 0.0
C309 C 0.96003 1.00216 0.73766 0.0
C310 C 0.95523 1.00063 0.66683 0.0
C311 C 0.94408 0.99961 0.78899 0.0
C312 C 0.88753 0.98035 0.81499 0.0
H313 H 0.84168 0.9923 0.14768 0.0
H314 H 0.87177 0.99109 0.06646 0.0
H315 H 0.85704 0.9692 0.85388 0.0
H316 H 0.93001 0.99502 0.59419 0.0
H317 H 0.90224 0.9912 0.68289 0.0
H318 H 0.92023 0.01693 0.89539 0.0
C319 C 0.85629 0.99187 0.04587 0.0
C320 C 0.8708 0.97964 0.86353 0.0
C321 C 0.83907 0.99247 0.09233 0.0
C322 C 0.93423 0.99623 0.64837 0.0
C323 C 0.91828 0.99388 0.69948 0.0
C324 C 0.90676 0.00612 0.88611 0.0
C325 C 0.85352 0.99218 0.97361 0.0
C326 C 0.8718 0.99217 0.92387 0.0
C327 C 0.92291 0.99562 0.77064 0.0
C328 C 0.90565 0.99384 0.82494 0.0
H329 H 0.80068 0.99523 0.97482 0.0
H330 H 0.83052 0.99361 0.89372 0.0
H331 H 0.89127 0.01522 0.98069 0.0
H332 H 0.9761 0.00547 0.75345 0.0
H333 H 0.94837 1.00074 0.84305 0.0
C334 C 0.5308 0.83623 0.08454 0.0
C335 C 0.51647 0.81877 0.07955 0.0
C336 C 0.53144 0.8515 0.03444 0.0
C337 C 0.49829 0.87246 0.90403 0.0
H338 H 0.55049 0.90094 0.83824 0.0
C339 C 0.49968 0.93362 0.69125 0.0
C340 C 0.51379 0.95123 0.69841 0.0
C341 C 0.50079 0.91677 0.73419 0.0
C342 C 0.53573 0.89333 0.85659 0.0
H343 H 0.4924 0.80298 0.01642 0.0
H344 H 0.49345 0.82961 0.92876 0.0
H345 H 0.55121 0.87281 0.91897 0.0
H346 H 0.54035 0.9647 0.75637 0.0
H347 H 0.54203 0.93557 0.83192 0.0
H348 H 0.48275 0.89314 0.843 0.0
C349 C 0.50392 0.83175 0.97207 0.0
C350 C 0.53616 0.87714 0.90285 0.0
C351 C 0.50337 0.81645 0.02201 0.0
C352 C 0.52925 0.9514 0.74904 0.0
C353 C 0.53029 0.93459 0.79227 0.0
C354 C 0.49784 0.88871 0.85812 0.0
C355 C 0.51776 0.84963 0.97813 0.0
C356 C 0.51744 0.86651 0.9273 0.0
C357 C 0.51597 0.91707 0.78587 0.0
C358 C 0.51655 0.89943 0.83378 0.0
H359 H 0.54116 0.83828 0.12819 0.0
H360 H 0.54221 0.86508 0.04103 0.0
H361 H 0.48354 0.86488 0.92264 0.0
H362 H 0.48765 0.93282 0.65256 0.0
H363 H 0.48974 0.90346 0.72663 0.0
C364 C 0.69716 0.50415 0.98496 0.0
C365 C 0.69236 0.50097 0.05579 0.0
C366 C 0.68121 0.50644 0.938 0.0
C367 C 0.62445 0.49363 0.91518 0.0
H368 H 0.63133 0.53305 0.76718 0.0
C369 C 0.55695 0.50447 0.72974 0.0
C370 C 0.56218 0.50755 0.65913 0.0
C371 C 0.57261 0.50518 0.77939 0.0
C372 C 0.62921 0.52178 0.80767 0.0
H373 H 0.66723 0.49843 0.13352 0.0
H374 H 0.63932 0.50234 0.05167 0.0
H375 H 0.65905 0.53151 0.85099 0.0
H376 H 0.5879 0.51409 0.5853 0.0
H377 H 0.61528 0.5149 0.6714 0.0
H378 H 0.59488 0.48354 0.87142 0.0
C379 C 0.65538 0.5028 0.0321 0.0
C380 C 0.64512 0.52094 0.85588 0.0
C381 C 0.67135 0.50066 0.07908 0.0
C382 C 0.58338 0.51171 0.63938 0.0
C383 C 0.59907 0.51229 0.68896 0.0
C384 C 0.60861 0.49437 0.86679 0.0
C385 C 0.66008 0.50553 0.96081 0.0
C386 C 0.64297 0.50683 0.91023 0.0
C387 C 0.59394 0.50883 0.75966 0.0
C388 C 0.61074 0.50843 0.81219 0.0
H389 H 0.71322 0.50445 0.96569 0.0
H390 H 0.6854 0.50834 0.88347 0.0
H391 H 0.62239 0.48233 0.95562 0.0
H392 H 0.54075 0.50125 0.74665 0.0
H393 H 0.56794 0.50283 0.83333 0.0
C394 C 0.99637 0.69589 0.96967 0.0
C395 C 0.99903 0.6933 0.04115 0.0
C396 C 0.99626 0.6791 0.92323 0.0
C397 C 0.01541 0.6279 0.90248 0.0
H398 H 0.97468 0.62006 0.75668 0.0
C399 C 0.01098 0.55578 0.7234 0.0
C400 C 1.00718 0.55838 0.65277 0.0
C401 C 0.00891 0.57183 0.77167 0.0
C402 C 0.98633 0.62214 0.79656 0.0
H403 H 1.0045 0.67132 0.11953 0.0
H404 H 1.00429 0.64193 0.03849 0.0
H405 H 0.97317 0.64891 0.83892 0.0
H406 H 0.99821 0.57977 0.57712 0.0
H407 H 0.99509 0.60801 0.66091 0.0
H408 H 0.02887 0.60146 0.85968 0.0
C409 C 1.00206 0.6569 0.01846 0.0
C410 C 0.98542 0.63866 0.84379 0.0
C411 C 1.00201 0.67367 0.06493 0.0
C412 C 1.00116 0.57732 0.63133 0.0
C413 C 0.99923 0.59345 0.67952 0.0
C414 C 0.01641 0.61147 0.85503 0.0
C415 C 0.99923 0.65943 0.94703 0.0
C416 C 0.99995 0.64172 0.8973 0.0
C417 C 1.0032 0.59096 0.75032 0.0
C418 C 1.00189 0.60835 0.80139 0.0
H419 H 0.99457 0.71092 0.94951 0.0
H420 H 0.9944 0.68162 0.86839 0.0
H421 H 0.02704 0.63002 0.94242 0.0
H422 H 0.0158 0.5414 0.74138 0.0
H423 H 0.01178 0.56921 0.8258 0.0
C424 C 0.00845 0.22166 0.22701 0.0
C425 C 0.99168 0.22493 0.18447 0.0
C426 C 1.00762 0.20411 0.26731 0.0
C427 C 0.97554 0.15843 0.33032 0.0
H428 H 0.0213 0.12901 0.25438 0.0
C429 C 0.97658 0.07111 0.36389 0.0
C430 C 0.99603 0.06381 0.37674 0.0
C431 C 0.97551 0.09131 0.34284 0.0
C432 C 0.00862 0.13701 0.27732 0.0
H433 H 0.96005 0.21412 0.1566 0.0
H434 H 0.9583 0.18376 0.22889 0.0
H435 H 0.02014 0.16507 0.2295 0.0
H436 H 0.02965 0.07153 0.37555 0.0
H437 H 0.02787 0.10671 0.34099 0.0
H438 H 0.96412 0.13043 0.37901 0.0
C439 C 0.97211 0.19456 0.23079 0.0
C440 C 0.008 0.15773 0.2631 0.0
C441 C 0.97305 0.21197 0.18976 0.0
C442 C 0.01443 0.07669 0.36526 0.0
C443 C 0.01338 0.09692 0.34534 0.0
C444 C 0.97635 0.13772 0.34572 0.0
C445 C 0.9899 0.18982 0.26611 0.0
C446 C 0.99142 0.16861 0.28907 0.0
C447 C 0.99389 0.10466 0.3352 0.0
C448 C 0.99284 0.12668 0.31888 0.0
H449 H 0.02305 0.23132 0.22295 0.0
H450 H 0.02146 0.20082 0.29468 0.0
H451 H 0.96253 0.1665 0.35049 0.0
H452 H 0.96215 0.06147 0.37256 0.0
H453 H 0.96026 0.09655 0.33386 0.0
C454 C 0.28779 1.0023 0.20186 0.0
C455 C 0.28942 0.02206 0.17425 0.0
C456 C 0.30196 0.99725 0.25148 0.0
C457 C 0.33408 0.99202 0.36585 0.0
H458 H 0.38946 0.01096 0.29393 0.0
C459 C 0.41291 0.98528 0.50381 0.0
C460 C 0.43026 0.98122 0.46096 0.0
C461 C 0.39349 0.98745 0.47481 0.0
C462 C 0.37412 1.0054 0.31433 0.0
H463 H 0.30522 0.05261 0.18158 0.0
H464 H 0.32961 0.044 0.26945 0.0
H465 H 0.35866 0.0222 0.2406 0.0
H466 H 0.44069 0.97469 0.35536 0.0
H467 H 0.4067 0.97841 0.30456 0.0
H468 H 0.3499 0.97507 0.43961 0.0
C469 C 0.31779 0.03228 0.25194 0.0
C470 C 0.35646 0.01211 0.28456 0.0
C471 C 0.30377 0.03727 0.20222 0.0
C472 C 0.42757 0.97792 0.3894 0.0
C473 C 0.40818 0.98016 0.36039 0.0
C474 C 0.35188 0.98542 0.39633 0.0
C475 C 0.31783 0.01194 0.27387 0.0
C476 C 0.33626 0.00553 0.30987 0.0
C477 C 0.39118 0.98569 0.40251 0.0
C478 C 0.37206 0.99194 0.37031 0.0
H479 H 0.27693 0.99031 0.18042 0.0
H480 H 0.30165 0.98146 0.26748 0.0
H481 H 0.31867 0.98665 0.38609 0.0
H482 H 0.41461 0.98787 0.55929 0.0
H483 H 0.38068 0.99179 0.50843 0.0
C484 C 0.5051 0.29183 0.19435 0.0
C485 C 0.48597 0.28555 0.16326 0.0
C486 C 0.5072 0.31004 0.234 0.0
C487 C 0.48523 0.35899 0.22564 0.0
H488 H 0.52164 0.37547 0.3783 0.0
C489 C 0.49491 0.44179 0.33557 0.0
C490 C 0.51456 0.44928 0.36057 0.0
C491 C 0.49146 0.42148 0.31208 0.0
C492 C 0.51165 0.3711 0.33495 0.0
H493 H 0.4534 0.2915 0.15639 0.0
H494 H 0.45683 0.32294 0.22759 0.0
H495 H 0.51382 0.33898 0.35029 0.0
H496 H 0.54642 0.44198 0.37629 0.0
H497 H 0.54057 0.40655 0.33327 0.0
H498 H 0.48341 0.39093 0.20882 0.0
C499 C 0.47035 0.3142 0.21996 0.0
C500 C 0.50703 0.35022 0.31946 0.0
C501 C 0.46829 0.29608 0.18013 0.0
C502 C 0.53113 0.43657 0.35712 0.0
C503 C 0.52768 0.41622 0.3335 0.0
C504 C 0.48992 0.37979 0.24083 0.0
C505 C 0.49015 0.32207 0.24302 0.0
C506 C 0.49374 0.34397 0.26465 0.0
C507 C 0.50763 0.40827 0.31289 0.0
C508 C 0.5032 0.38611 0.29554 0.0
H509 H 0.51899 0.28405 0.18127 0.0
H510 H 0.52265 0.31569 0.25126 0.0
H511 H 0.47542 0.3547 0.18175 0.0
H512 H 0.48183 0.45125 0.33805 0.0
H513 H 0.4758 0.41586 0.29688 0.0
C514 C 0.22775 0.52892 0.18055 0.0
C515 C 0.23264 0.50886 0.16458 0.0
C516 C 0.21016 0.53225 0.22248 0.0
C517 C 0.16613 0.50589 0.32723 0.0
H518 H 0.13254 0.54142 0.22702 0.0
C519 C 0.07662 0.49712 0.34715 0.0
C520 C 0.06676 0.51511 0.36187 0.0
C521 C 0.09775 0.49825 0.32665 0.0
C522 C 0.14179 0.53164 0.25604 0.0
H523 H 0.22448 0.4767 0.18366 0.0
H524 H 0.19384 0.48234 0.25682 0.0
H525 H 0.16976 0.54098 0.19802 0.0
H526 H 0.07066 0.54835 0.36179 0.0
H527 H 0.10759 0.55033 0.32443 0.0
H528 H 0.13783 0.49597 0.38318 0.0
C529 C 0.20353 0.4956 0.23831 0.0
C530 C 0.16317 0.5315 0.23998 0.0
C531 C 0.22114 0.49231 0.19665 0.0
C532 C 0.07789 0.53425 0.35046 0.0
C533 C 0.09903 0.53539 0.32948 0.0
C534 C 0.14472 0.50593 0.34292 0.0
C535 C 0.19714 0.51552 0.24819 0.0
C536 C 0.1755 0.51828 0.27431 0.0
C537 C 0.10933 0.51739 0.32003 0.0
C538 C 0.13226 0.51845 0.30632 0.0
H539 H 0.2363 0.54184 0.15528 0.0
H540 H 0.20587 0.5478 0.23033 0.0
H541 H 0.17523 0.49574 0.35526 0.0
H542 H 0.06839 0.48216 0.35549 0.0
H543 H 0.1052 0.48414 0.31806 0.0
C544 C 1.00307 0.79599 0.9194 0.0
C545 C 0.01648 0.78973 0.9695 0.0
C546 C 0.00888 0.81344 0.88063 0.0
C547 C 0.04148 0.86192 0.90762 0.0
H548 H 0.01612 0.87566 0.73616 0.0
C549 C 0.04427 0.94402 0.79031 0.0
C550 C 0.02436 0.94968 0.77381 0.0
C551 C 0.04672 0.92399 0.81072 0.0
C552 C 0.02337 0.87197 0.78398 0.0
H553 H 0.04713 0.79521 0.01411 0.0
H554 H 0.05792 0.82507 0.94354 0.0
H555 H 0.01653 0.83971 0.76677 0.0
H556 H 0.99132 0.93927 0.76875 0.0
H557 H 0.99567 0.90434 0.80364 0.0
H558 H 0.04819 0.89434 0.92446 0.0
C559 C 0.04264 0.81701 0.93552 0.0
C560 C 0.02359 0.85142 0.80163 0.0
C561 C 0.03667 0.79973 0.97504 0.0
C562 C 1.00684 0.93535 0.78131 0.0
C563 C 0.00934 0.91531 0.80049 0.0
C564 C 0.04157 0.88247 0.88929 0.0
C565 C 0.0283 0.82484 0.89111 0.0
C566 C 0.03196 0.84614 0.86493 0.0
C567 C 0.02935 0.90933 0.81363 0.0
C568 C 0.03187 0.88766 0.82857 0.0
H569 H 0.98727 0.78869 0.91545 0.0
H570 H 0.99731 0.81898 0.84748 0.0
H571 H 0.04779 0.85859 0.95731 0.0
H572 H 0.05803 0.95478 0.78454 0.0
H573 H 0.06228 0.9197 0.8211 0.0
C574 C 0.73049 0.00842 0.94375 0.0
C575 C 0.72506 0.98919 0.97315 0.0
C576 C 0.71823 0.0155 0.89191 0.0
C577 C 0.67742 0.03077 0.84218 0.0
H578 H 0.65134 0.99644 0.69619 0.0
C579 C 0.59303 0.03555 0.75305 0.0
C580 C 0.58855 0.03095 0.68324 0.0
C581 C 0.61343 0.03475 0.77647 0.0
C582 C 0.65871 0.00643 0.7358 0.0
H583 H 0.70378 0.96164 0.96882 0.0
H584 H 0.68259 0.97374 0.87733 0.0
H585 H 0.68182 0.98552 0.75356 0.0
H586 H 0.6019 0.02344 0.58193 0.0
H587 H 0.63744 0.02215 0.62274 0.0
H588 H 0.65368 0.05122 0.82658 0.0
C589 C 0.69621 0.98341 0.89409 0.0
C590 C 0.67607 1.00009 0.76886 0.0
C591 C 0.70825 0.97649 0.94649 0.0
C592 C 0.60494 0.02689 0.63629 0.0
C593 C 0.62526 0.02608 0.6596 0.0
C594 C 0.65993 0.03704 0.80943 0.0
C595 C 0.7006 1.00328 0.86819 0.0
C596 C 0.68519 0.01189 0.82377 0.0
C597 C 0.62958 0.02932 0.73033 0.0
C598 C 0.65004 0.02463 0.75731 0.0
H599 H 0.74332 0.0185 0.96416 0.0
H600 H 0.72196 0.03083 0.8725 0.0
H601 H 0.68404 0.04007 0.8848 0.0
H602 H 0.58064 0.03871 0.79017 0.0
H603 H 0.61625 0.03716 0.83143 0.0
C604 C 0.49786 0.71637 0.98037 0.0
C605 C 0.51779 0.72557 0.99667 0.0
C606 C 0.49593 0.69828 0.94018 0.0
C607 C 0.52453 0.65359 0.92649 0.0
H608 H 0.48315 0.63297 0.79308 0.0
C609 C 0.52047 0.571 0.81525 0.0
C610 C 0.50086 0.56136 0.79729 0.0
C611 C 0.52227 0.59135 0.83908 0.0
C612 C 0.49457 0.63844 0.83121 0.0
H613 H 0.55118 0.72454 0.97912 0.0
H614 H 0.54786 0.69301 0.90802 0.0
H615 H 0.48745 0.6697 0.82166 0.0
H616 H 0.46756 0.56479 0.79478 0.0
H617 H 0.47055 0.60022 0.83908 0.0
H618 H 0.5312 0.6225 0.93851 0.0
C619 C 0.53376 0.69968 0.9263 0.0
C620 C 0.49717 0.65949 0.8468 0.0
C621 C 0.53566 0.71784 0.96602 0.0
C622 C 0.48286 0.57189 0.80836 0.0
C623 C 0.48463 0.59227 0.83268 0.0
C624 C 0.52178 0.6326 0.91158 0.0
C625 C 0.51394 0.68911 0.91674 0.0
C626 C 0.51223 0.66724 0.89446 0.0
C627 C 0.50445 0.60244 0.84606 0.0
C628 C 0.50678 0.62474 0.86376 0.0
H629 H 0.48394 0.72193 0.0048 0.0
H630 H 0.48047 0.69042 0.93374 0.0
H631 H 0.53586 0.65908 0.96494 0.0
H632 H 0.53463 0.56325 0.80686 0.0
H633 H 0.53779 0.59868 0.8484 0.0
C634 C 0.80257 0.54436 0.9897 0.0
C635 C 0.78847 0.52691 0.99822 0.0
C636 C 0.82096 0.54312 0.94983 0.0
C637 C 0.85171 0.50884 0.83796 0.0
H638 H 0.89683 0.52944 0.95837 0.0
C639 C 0.93487 0.48309 0.80057 0.0
C640 C 0.95115 0.49892 0.80111 0.0
C641 C 0.91471 0.4869 0.82407 0.0
C642 C 0.88447 0.52378 0.92375 0.0
H643 H 0.78103 0.49527 0.96628 0.0
H644 H 0.81317 0.49297 0.89658 0.0
H645 H 0.86119 0.53749 0.98603 0.0
H646 H 0.95964 0.53064 0.83098 0.0
H647 H 0.92455 0.53727 0.8724 0.0
H648 H 0.87512 0.49485 0.77629 0.0
C649 C 0.8101 0.50766 0.91997 0.0
C650 C 0.86404 0.52853 0.93922 0.0
C651 C 0.79162 0.50897 0.95949 0.0
C652 C 0.94737 0.51814 0.83033 0.0
C653 C 0.92724 0.52194 0.85386 0.0
C654 C 0.87221 0.5041 0.82239 0.0
C655 C 0.82556 0.52432 0.91876 0.0
C656 C 0.84741 0.52104 0.89675 0.0
C657 C 0.91055 0.50657 0.84867 0.0
C658 C 0.88877 0.51139 0.86549 0.0
H659 H 0.80044 0.55829 0.01967 0.0
H660 H 0.83238 0.55635 0.94835 0.0
H661 H 0.83923 0.50288 0.80427 0.0
H662 H 0.93738 0.46813 0.77816 0.0
H663 H 0.90224 0.47462 0.82093 0.0
C664 C 0.99245 0.21045 0.90627 0.0
C665 C 0.00937 0.22227 0.93621 0.0
C666 C 0.9959 0.19332 0.8642 0.0
C667 C 0.00818 0.16047 0.75971 0.0
H668 H 0.04444 0.12425 0.84508 0.0
C669 C 0.02381 0.08272 0.63382 0.0
C670 C 0.02183 0.06562 0.67739 0.0
C671 C 0.02468 0.10262 0.66166 0.0
C672 C 0.03426 0.13419 0.82072 0.0
H673 H 0.04313 0.22616 0.94355 0.0
H674 H 0.04928 0.19621 0.86921 0.0
H675 H 0.04154 0.15875 0.89412 0.0
H676 H 0.02013 0.05619 0.78479 0.0
H677 H 0.02167 0.09122 0.83377 0.0
H678 H 1.00045 0.1358 0.68747 0.0
C679 C 0.03336 0.20019 0.87827 0.0
C680 C 0.0328 0.15404 0.84819 0.0
C681 C 0.02989 0.21749 0.9198 0.0
C682 C 0.02166 0.069 0.74982 0.0
C683 C 0.02258 0.08905 0.77782 0.0
C684 C 0.00977 0.14073 0.73195 0.0
C685 C 0.01634 0.18752 0.85212 0.0
C686 C 0.01956 0.16731 0.81843 0.0
C687 C 0.02364 0.10606 0.73387 0.0
C688 C 0.02267 0.12728 0.76251 0.0
H689 H 0.97648 0.21364 0.9195 0.0
H690 H 0.98245 0.18381 0.84533 0.0
H691 H 0.99787 0.17034 0.73561 0.0
H692 H 0.02426 0.08078 0.57773 0.0
H693 H 0.02592 0.11538 0.62643 0.0
C694 C 0.30707 0.01579 0.8872 0.0
C695 C 0.30136 0.03325 0.92423 0.0
C696 C 0.32582 0.0165 0.84758 0.0
C697 C 0.3779 0.04635 0.84247 0.0
H698 H 0.38801 0.01092 0.68301 0.0
C699 C 0.45987 0.04509 0.70649 0.0
C700 C 0.46648 0.02557 0.69078 0.0
C701 C 0.43908 0.0473 0.72821 0.0
C702 C 0.38544 0.02085 0.72771 0.0
H703 H 0.31002 0.06536 0.94638 0.0
H704 H 0.34216 0.06704 0.87447 0.0
H705 H 0.35221 0.01316 0.72794 0.0
H706 H 0.45674 0.99301 0.68789 0.0
H707 H 0.42043 0.99686 0.72421 0.0
H708 H 0.41113 0.05396 0.84228 0.0
C709 C 0.33257 0.05259 0.87712 0.0
C710 C 0.36489 0.02213 0.75359 0.0
C711 C 0.31396 0.05178 0.91733 0.0
C712 C 0.45197 0.0083 0.69786 0.0
C713 C 0.43116 0.01051 0.71875 0.0
C714 C 0.39838 0.0452 0.81622 0.0
C715 C 0.33924 0.03475 0.84407 0.0
C716 C 0.36083 0.0347 0.81198 0.0
C717 C 0.42445 0.03004 0.73434 0.0
C718 C 0.40245 0.03223 0.75914 0.0
H719 H 0.29786 1.0012 0.89322 0.0
H720 H 0.3304 1.00238 0.82368 0.0
H721 H 0.37561 0.05586 0.88837 0.0
H722 H 0.47072 0.05867 0.70161 0.0
H723 H 0.43441 0.06257 0.73955 0.0
C724 C 0.5068 0.29553 0.88112 0.0
C725 C 0.48764 0.28719 0.90996 0.0
C726 C 0.50763 0.31322 0.84104 0.0
C727 C 0.4756 0.34867 0.75 0.0
H728 H 0.51775 0.39058 0.814 0.0
C729 C 0.49006 0.42895 0.62611 0.0
C730 C 0.49398 0.44605 0.67116 0.0
C731 C 0.48862 0.40898 0.65137 0.0
C732 C 0.50582 0.37909 0.79579 0.0
H733 H 0.45423 0.28994 0.91624 0.0
H734 H 0.4555 0.3204 0.84472 0.0
H735 H 0.5171 0.35583 0.85774 0.0
H736 H 0.49904 0.45544 0.77862 0.0
H737 H 0.49651 0.42052 0.8228 0.0
H738 H 0.46413 0.37208 0.68885 0.0
C739 C 0.46991 0.31338 0.85274 0.0
C740 C 0.50563 0.35907 0.82007 0.0
C741 C 0.46913 0.29583 0.89331 0.0
C742 C 0.49595 0.44266 0.74248 0.0
C743 C 0.49469 0.42263 0.76769 0.0
C744 C 0.4759 0.36867 0.72519 0.0
C745 C 0.48927 0.32282 0.82876 0.0
C746 C 0.49043 0.34362 0.7979 0.0
C747 C 0.49123 0.40553 0.72229 0.0
C748 C 0.4909 0.38419 0.74829 0.0
H749 H 0.52132 0.28941 0.89443 0.0
H750 H 0.52276 0.31996 0.82254 0.0
H751 H 0.46369 0.33714 0.73181 0.0
H752 H 0.48844 0.43093 0.57083 0.0
H753 H 0.48609 0.39621 0.61486 0.0
C754 C 0.22301 0.51261 0.88197 0.0
C755 C 0.22921 0.49515 0.91404 0.0
C756 C 0.20495 0.51134 0.84207 0.0
C757 C 0.15421 0.48004 0.83187 0.0
H758 H 0.1457 0.51448 0.6758 0.0
C759 C 0.07116 0.49523 0.74263 0.0
C760 C 0.06808 0.4966 0.67086 0.0
C761 C 0.09132 0.49386 0.76806 0.0
C762 C 0.1478 0.50459 0.71895 0.0
H763 H 0.222 0.46257 0.92755 0.0
H764 H 0.19086 0.46008 0.85581 0.0
H765 H 0.18083 0.5134 0.72062 0.0
H766 H 0.08396 0.49719 0.56954 0.0
H767 H 0.11877 0.49457 0.61365 0.0
H768 H 0.12122 0.47113 0.83 0.0
C769 C 0.19975 0.47484 0.86195 0.0
C770 C 0.16796 0.50412 0.74508 0.0
C771 C 0.21782 0.47615 0.90188 0.0
C772 C 0.08564 0.4963 0.62523 0.0
C773 C 0.10573 0.49491 0.65058 0.0
C774 C 0.13405 0.48052 0.80578 0.0
C775 C 0.19259 0.49258 0.83389 0.0
C776 C 0.17145 0.49194 0.80223 0.0
C777 C 0.10891 0.49382 0.72236 0.0
C778 C 0.13051 0.49291 0.74926 0.0
H779 H 0.23118 0.52753 0.8924 0.0
H780 H 0.19989 0.52536 0.82197 0.0
H781 H 0.15615 0.47072 0.87662 0.0
H782 H 0.05805 0.49549 0.77935 0.0
H783 H 0.09315 0.49328 0.82374 0.0
C784 C 0.96731 0.80445 0.18687 0.0
C785 C 0.98302 0.79153 0.20052 0.0
C786 C 0.96487 0.82186 0.2286 0.0
C787 C 0.97891 0.84978 0.39129 0.0
H788 H 0.98532 0.89747 0.27406 0.0
C789 C 1.00277 0.93074 0.50318 0.0
C790 C 0.99552 0.94793 0.47205 0.0
C791 C 0.99879 0.91113 0.47373 0.0
C792 C 0.98305 0.88444 0.30789 0.0
H793 H 1.00755 0.78574 0.27056 0.0
H794 H 1.0029 0.81602 0.34531 0.0
H795 H 0.98098 0.86335 0.22118 0.0
H796 H 0.978 0.95793 0.38633 0.0
H797 H 0.97032 0.92359 0.33605 0.0
H798 H 0.98072 0.87079 0.47817 0.0
C799 C 0.99246 0.81264 0.30241 0.0
C800 C 0.98063 0.86482 0.27741 0.0
C801 C 0.99503 0.79526 0.2601 0.0
C802 C 0.98397 0.94502 0.41113 0.0
C803 C 0.97966 0.92529 0.3822 0.0
C804 C 0.98097 0.86945 0.42198 0.0
C805 C 0.97806 0.82662 0.28489 0.0
C806 C 0.97877 0.84728 0.31868 0.0
C807 C 0.98713 0.90806 0.41288 0.0
C808 C 0.98341 0.88708 0.38065 0.0
H809 H 0.95814 0.80202 0.14043 0.0
H810 H 0.95352 0.83227 0.21436 0.0
H811 H 0.97742 0.8365 0.42428 0.0
H812 H 0.01187 0.93245 0.54993 0.0
H813 H 1.00526 0.89844 0.49819 0.0
C814 C 0.70137 0.95894 0.23125 0.0
C815 C 0.71529 0.97661 0.22347 0.0
C816 C 0.68306 0.95953 0.27258 0.0
C817 C 0.64564 0.99648 0.32169 0.0
H818 H 0.61949 0.95366 0.43912 0.0
C819 C 0.56477 1.00446 0.45396 0.0
C820 C 0.55091 0.9868 0.46244 0.0
C821 C 0.58555 1.00296 0.43156 0.0
C822 C 0.62642 0.96566 0.40576 0.0
H823 H 0.7215 0.00847 0.25453 0.0
H824 H 0.68961 0.00955 0.32742 0.0
H825 H 0.65521 0.95123 0.39326 0.0
H826 H 0.54772 0.95369 0.45159 0.0
H827 H 0.58379 0.95099 0.40935 0.0
H828 H 0.61683 0.01055 0.33109 0.0
C829 C 0.69284 0.9952 0.30183 0.0
C830 C 0.64698 0.96431 0.37992 0.0
C831 C 0.71125 0.99453 0.26104 0.0
C832 C 0.55811 0.96757 0.44607 0.0
C833 C 0.57889 0.96604 0.42259 0.0
C834 C 0.62506 0.99771 0.34668 0.0
C835 C 0.67814 0.97793 0.30589 0.0
C836 C 0.65684 0.97973 0.33759 0.0
C837 C 0.59296 0.98374 0.41517 0.0
C838 C 0.61508 0.98233 0.38913 0.0
H839 H 0.7039 0.9451 0.2013 0.0
H840 H 0.67202 0.94601 0.27413 0.0
H841 H 0.65256 0.00839 0.28788 0.0
H842 H 0.55957 0.01955 0.4648 0.0
H843 H 0.59583 0.01696 0.4277 0.0
C844 C 0.54273 0.71718 0.27042 0.0
C845 C 0.52364 0.72366 0.24896 0.0
C846 C 0.54301 0.69936 0.30947 0.0
C847 C 0.53855 0.66252 0.40766 0.0
H848 H 0.50084 0.61828 0.33272 0.0
C849 C 0.52516 0.58197 0.53072 0.0
C850 C 0.52265 0.56468 0.48574 0.0
C851 C 0.52669 0.60185 0.50464 0.0
C852 C 0.51159 0.6304 0.35394 0.0
H853 H 0.48992 0.71743 0.25457 0.0
H854 H 0.49029 0.68677 0.32448 0.0
H855 H 0.50022 0.65281 0.28885 0.0
H856 H 0.5204 0.5549 0.37758 0.0
H857 H 0.52312 0.58963 0.332 0.0
H858 H 0.55007 0.63989 0.47221 0.0
C859 C 0.50508 0.69519 0.31058 0.0
C860 C 0.51102 0.6503 0.32952 0.0
C861 C 0.50482 0.71296 0.27167 0.0
C862 C 0.52232 0.56782 0.41375 0.0
C863 C 0.52371 0.58775 0.38767 0.0
C864 C 0.53901 0.64257 0.43253 0.0
C865 C 0.52419 0.68763 0.32719 0.0
C866 C 0.52446 0.66665 0.35604 0.0
C867 C 0.52563 0.60503 0.43289 0.0
C868 C 0.52557 0.62623 0.40578 0.0
H869 H 0.55745 0.72485 0.25192 0.0
H870 H 0.55801 0.69395 0.32109 0.0
H871 H 0.54911 0.67473 0.42921 0.0
H872 H 0.52553 0.5802 0.5865 0.0
H873 H 0.52798 0.61475 0.54105 0.0
C874 C 0.79364 0.49839 0.26462 0.0
C875 C 0.78728 0.51774 0.24933 0.0
C876 C 0.81147 0.49674 0.30414 0.0
C877 C 0.85119 0.52593 0.41558 0.0
H878 H 0.88901 0.4889 0.33051 0.0
C879 C 0.93113 0.5127 0.53361 0.0
C880 C 0.94844 0.51087 0.48775 0.0
C881 C 0.91091 0.51336 0.50845 0.0
C882 C 0.87871 0.49941 0.3547 0.0
H883 H 0.79388 0.55044 0.26578 0.0
H884 H 0.82463 0.54767 0.33609 0.0
H885 H 0.85384 0.48978 0.28595 0.0
H886 H 0.95786 0.5085 0.37898 0.0
H887 H 0.92253 0.50978 0.33495 0.0
H888 H 0.87628 0.53593 0.4832 0.0
C889 C 0.81586 0.5337 0.31834 0.0
C890 C 0.85838 0.4997 0.32984 0.0
C891 C 0.79811 0.53532 0.27856 0.0
C892 C 0.94495 0.50991 0.41585 0.0
C893 C 0.92465 0.51049 0.39063 0.0
C894 C 0.8715 0.52558 0.44068 0.0
C895 C 0.82332 0.51444 0.32904 0.0
C896 C 0.84436 0.51305 0.35961 0.0
C897 C 0.90733 0.51215 0.43666 0.0
C898 C 0.88561 0.51242 0.41025 0.0
H899 H 0.78587 0.48465 0.24117 0.0
H900 H 0.81656 0.48165 0.31225 0.0
H901 H 0.84083 0.53637 0.43994 0.0
H902 H 0.93311 0.51345 0.58937 0.0
H903 H 0.898 0.51439 0.54554 0.0
loop_
_geom_bond_atom_site_label_1
_geom_bond_atom_site_label_2
_geom_bond_distance
_geom_bond_site_symmetry_2
_ccdc_geom_bond_type
H0 C7 0.929 . S
H1 C10 0.930 1_556 S
H2 C12 0.929 . S
H3 C4 0.968 1_556 S
C4 H3 0.968 1_554 S
C4 O5 1.550 . S
C4 H6 0.973 1_554 S
O5 C4 1.550 . S
O5 C11 1.412 . S
H6 C4 0.973 1_556 S
C7 H0 0.929 . S
C7 C8 1.400 . S
C7 C9 1.364 . S
C8 C7 1.400 . S
C8 C12 1.377 . S
C9 C7 1.364 . S
C9 C10 1.374 . S
C10 H1 0.930 1_554 S
C10 C9 1.374 . S
C10 C11 1.383 . S
C11 O5 1.412 . S
C11 C10 1.383 . S
C11 C12 1.394 . S
C12 H2 0.929 . S
C12 C8 1.377 . S
C12 C11 1.394 . S
H13 C20 0.927 . S
H14 C23 0.930 . S
H15 C25 0.930 1_655 S
H16 C17 0.969 . S
C17 H16 0.969 . S
C17 O18 1.550 1_456 S
C17 H19 0.973 1_455 S
O18 C17 1.550 1_654 S
O18 C24 1.408 1_655 S
H19 C17 0.973 1_655 S
C20 H13 0.927 . S
C20 C21 1.399 1_655 S
C20 C22 1.364 1_654 S
C21 C20 1.399 1_455 S
C21 C25 1.378 . S
C22 C20 1.364 1_456 S
C22 C23 1.375 1_455 S
C23 H14 0.930 . S
C23 C22 1.375 1_655 S
C23 C24 1.380 1_656 S
C24 O18 1.408 1_455 S
C24 C23 1.380 1_454 S
C24 C25 1.394 . S
C25 H15 0.930 1_455 S
C25 C21 1.378 . S
C25 C24 1.394 . S
H26 C33 0.929 . S
H27 C36 0.930 . S
H28 C38 0.929 . S
H29 C30 0.969 . S
C30 H29 0.969 . S
C30 O31 1.550 1_556 S
C30 H32 0.973 . S
O31 C30 1.550 1_554 S
O31 C37 1.412 . S
H32 C30 0.973 . S
C33 H26 0.929 . S
C33 C34 1.400 . S
C33 C35 1.364 1_554 S
C34 C33 1.400 . S
C34 C38 1.377 . S
C35 C33 1.364 1_556 S
C35 C36 1.374 . S
C36 H27 0.930 . S
C36 C35 1.374 . S
C36 C37 1.383 1_556 S
C37 O31 1.412 . S
C37 C36 1.383 1_554 S
C37 C38 1.394 . S
C38 H28 0.929 . S
C38 C34 1.377 . S
C38 C37 1.394 . S
H39 C46 0.929 . S
H40 C49 0.930 . S
H41 C51 0.929 . S
H42 C43 0.969 . S
C43 H42 0.969 . S
C43 O44 1.550 . S
C43 H45 0.969 1_554 S
O44 C43 1.550 . S
O44 C50 1.412 . S
H45 C43 0.969 1_556 S
C46 H39 0.929 . S
C46 C47 1.400 . S
C46 C48 1.364 . S
C47 C46 1.400 . S
C47 C51 1.377 . S
C48 C46 1.364 . S
C48 C49 1.374 . S
C49 H40 0.930 . S
C49 C48 1.374 . S
C49 C50 1.383 . S
C50 O44 1.412 . S
C50 C49 1.383 . S
C50 C51 1.394 . S
C51 H41 0.929 . S
C51 C47 1.377 . S
C51 C50 1.394 . S
H52 C59 0.929 . S
H53 C62 0.930 . S
H54 C64 0.929 1_556 S
H55 C56 0.969 . S
C56 H55 0.969 . S
C56 O57 1.550 . S
C56 H58 0.973 . S
O57 C56 1.550 . S
O57 C63 1.412 . S
H58 C56 0.973 . S
C59 H52 0.929 . S
C59 C60 1.400 . S
C59 C61 1.364 . S
C60 C59 1.400 . S
C60 C64 1.377 . S
C61 C59 1.364 . S
C61 C62 1.374 . S
C62 H53 0.930 . S
C62 C61 1.374 . S
C62 C63 1.383 . S
C63 O57 1.412 . S
C63 C62 1.383 . S
C63 C64 1.394 . S
C64 H54 0.929 1_554 S
C64 C60 1.377 . S
C64 C63 1.394 . S
H65 C72 0.929 1_655 S
H66 C75 0.929 . S
H67 C77 0.927 1_655 S
H68 C69 0.969 . S
C69 H68 0.969 . S
C69 O70 1.550 1_455 S
C69 H71 0.973 1_455 S
O70 C69 1.550 1_655 S
O70 C76 1.399 1_655 S
H71 C69 0.973 1_655 S
C72 H65 0.929 1_455 S
C72 C73 1.401 . S
C72 C74 1.364 . S
C73 C72 1.401 . S
C73 C77 1.376 . S
C74 C72 1.364 . S
C74 C75 1.374 1_455 S
C75 H66 0.929 . S
C75 C74 1.374 1_655 S
C75 C76 1.385 1_655 S
C76 O70 1.399 1_455 S
C76 C75 1.385 1_455 S
C76 C77 1.394 . S
C77 H67 0.927 1_455 S
C77 C73 1.376 . S
C77 C76 1.394 . S
H78 C85 0.929 . S
H79 C88 0.930 . S
H80 C90 0.929 . S
H81 C82 0.969 . S
C82 H81 0.969 . S
C82 O83 1.550 . S
C82 H84 0.973 . S
O83 C82 1.550 . S
O83 C89 1.412 . S
H84 C82 0.973 . S
C85 H78 0.929 . S
C85 C86 1.400 . S
C85 C87 1.364 . S
C86 C85 1.400 . S
C86 C90 1.377 . S
C87 C85 1.364 . S
C87 C88 1.374 . S
C88 H79 0.930 . S
C88 C87 1.374 . S
C88 C89 1.383 . S
C89 O83 1.412 . S
C89 C88 1.383 . S
C89 C90 1.394 . S
C90 H80 0.929 . S
C90 C86 1.377 . S
C90 C89 1.394 . S
H91 C98 0.929 . S
H92 C101 0.930 . S
H93 C103 0.929 . S
H94 C95 0.969 . S
C95 H94 0.969 . S
C95 O96 1.550 . S
C95 H97 0.973 . S
O96 C95 1.550 . S
O96 C102 1.412 . S
H97 C95 0.973 . S
C98 H91 0.929 . S
C98 C99 1.400 1_554 S
C98 C100 1.364 . S
C99 C98 1.400 1_556 S
C99 C103 1.377 . S
C100 C98 1.364 . S
C100 C101 1.374 . S
C101 H92 0.930 . S
C101 C100 1.374 . S
C101 C102 1.383 . S
C102 O96 1.412 . S
C102 C101 1.383 . S
C102 C103 1.394 1_554 S
C103 H93 0.929 . S
C103 C99 1.377 . S
C103 C102 1.394 1_556 S
Dy104 O108 2.398 . S
Dy104 O109 2.491 1_455 S
Dy104 O110 2.403 . S
Dy104 O111 2.664 1_565 S
Dy104 O115 2.326 . S
Dy104 O119 2.310 1_455 S
Dy104 O120 2.351 1_565 S
C105 O116 1.185 . S
C105 O117 1.355 1_655 S
C106 O108 1.185 . S
C106 O109 1.355 1_455 S
Dy107 O111 2.310 1_655 S
Dy107 O114 2.351 1_545 S
Dy107 O116 2.398 . S
Dy107 O117 2.491 1_655 S
Dy107 O118 2.403 . S
Dy107 O119 2.664 1_545 S
Dy107 O121 2.326 . S
O108 Dy104 2.398 . S
O108 C106 1.185 . S
O109 Dy104 2.491 1_655 S
O109 C106 1.355 1_655 S
O110 Dy104 2.403 . S
O110 C112 1.254 1_565 S
O111 Dy104 2.664 1_545 S
O111 Dy107 2.310 1_455 S
O111 C112 1.268 . S
C112 O110 1.254 1_545 S
C112 O111 1.268 . S
C113 O118 1.254 1_565 S
C113 O119 1.268 . S
O114 Dy107 2.351 1_565 S
O114 C122 1.249 . S
O115 Dy104 2.326 . S
O115 C122 1.267 1_455 S
O116 C105 1.185 . S
O116 Dy107 2.398 . S
O117 C105 1.355 1_455 S
O117 Dy107 2.491 1_455 S
O118 Dy107 2.403 . S
O118 C113 1.254 1_545 S
O119 Dy104 2.310 1_655 S
O119 Dy107 2.664 1_565 S
O119 C113 1.268 . S
O120 Dy104 2.351 1_545 S
O120 C123 1.249 . S
O121 Dy107 2.326 . S
O121 C123 1.267 1_655 S
C122 O114 1.249 . S
C122 O115 1.267 1_655 S
C123 O120 1.249 . S
C123 O121 1.267 1_455 S
Dy124 O128 2.398 . S
Dy124 O129 2.491 1_565 S
Dy124 O130 2.403 . S
Dy124 O131 2.664 . S
Dy124 O135 2.326 1_565 S
Dy124 O139 2.310 1_565 S
Dy124 O140 2.351 . S
C125 O136 1.181 1_565 S
C125 O137 1.357 . S
C126 O128 1.185 1_545 S
C126 O129 1.355 . S
Dy127 O131 2.310 1_545 S
Dy127 O134 2.351 . S
Dy127 O136 2.398 . S
Dy127 O137 2.491 1_545 S
Dy127 O138 2.403 . S
Dy127 O139 2.664 . S
Dy127 O141 2.326 1_545 S
O128 Dy124 2.398 . S
O128 C126 1.185 1_565 S
O129 Dy124 2.491 1_545 S
O129 C126 1.355 . S
O130 Dy124 2.403 . S
O130 C132 1.254 . S
O131 Dy124 2.664 . S
O131 Dy127 2.310 1_565 S
O131 C132 1.268 . S
C132 O130 1.254 . S
C132 O131 1.268 . S
C133 O138 1.254 . S
C133 O139 1.268 . S
O134 Dy127 2.351 . S
O134 C142 1.249 . S
O135 Dy124 2.326 1_545 S
O135 C142 1.267 . S
O136 C125 1.181 1_545 S
O136 Dy127 2.398 . S
O137 C125 1.357 . S
O137 Dy127 2.491 1_565 S
O138 Dy127 2.403 . S
O138 C133 1.254 . S
O139 Dy124 2.310 1_545 S
O139 Dy127 2.664 . S
O139 C133 1.268 . S
O140 Dy124 2.351 . S
O140 C143 1.249 . S
O141 Dy127 2.326 1_565 S
O141 C143 1.267 . S
C142 O134 1.249 . S
C142 O135 1.267 . S
C143 O140 1.249 . S
C143 O141 1.267 . S
Dy144 O148 2.398 . S
Dy144 O149 2.491 . S
Dy144 O150 2.403 . S
Dy144 O151 2.664 . S
Dy144 O155 2.326 . S
Dy144 O159 2.310 . S
Dy144 O160 2.351 . S
C145 O156 1.185 . S
C145 O157 1.355 . S
C146 O148 1.185 . S
C146 O149 1.355 . S
Dy147 O151 2.310 . S
Dy147 O154 2.351 . S
Dy147 O156 2.398 . S
Dy147 O157 2.491 . S
Dy147 O158 2.403 . S
Dy147 O159 2.664 . S
Dy147 O161 2.326 . S
O148 Dy144 2.398 . S
O148 C146 1.185 . S
O149 Dy144 2.491 . S
O149 C146 1.355 . S
O150 Dy144 2.403 . S
O150 C152 1.254 . S
O151 Dy144 2.664 . S
O151 Dy147 2.310 . S
O151 C152 1.268 . S
C152 O150 1.254 . S
C152 O151 1.268 . S
C153 O158 1.254 . S
C153 O159 1.268 . S
O154 Dy147 2.351 . S
O154 C162 1.249 . S
O155 Dy144 2.326 . S
O155 C162 1.267 . S
O156 C145 1.185 . S
O156 Dy147 2.398 . S
O157 C145 1.355 . S
O157 Dy147 2.491 . S
O158 Dy147 2.403 . S
O158 C153 1.254 . S
O159 Dy144 2.310 . S
O159 Dy147 2.664 . S
O159 C153 1.268 . S
O160 Dy144 2.351 . S
O160 C163 1.249 . S
O161 Dy147 2.326 . S
O161 C163 1.267 . S
C162 O154 1.249 . S
C162 O155 1.267 . S
C163 O160 1.249 . S
C163 O161 1.267 . S
Dy164 O168 2.398 . S
Dy164 O169 2.491 . S
Dy164 O170 2.403 . S
Dy164 O171 2.664 1_655 S
Dy164 O175 2.326 . S
Dy164 O179 2.310 . S
Dy164 O180 2.351 1_655 S
C165 O176 1.185 . S
C165 O177 1.355 . S
C166 O168 1.185 . S
C166 O169 1.355 . S
Dy167 O171 2.310 . S
Dy167 O174 2.351 1_455 S
Dy167 O176 2.398 . S
Dy167 O177 2.491 . S
Dy167 O178 2.403 . S
Dy167 O179 2.664 1_455 S
Dy167 O181 2.326 . S
O168 Dy164 2.398 . S
O168 C166 1.185 . S
O169 Dy164 2.491 . S
O169 C166 1.355 . S
O170 Dy164 2.403 . S
O170 C172 1.254 . S
O171 Dy164 2.664 1_455 S
O171 Dy167 2.310 . S
O171 C172 1.268 1_455 S
C172 O170 1.254 . S
C172 O171 1.268 1_655 S
C173 O178 1.254 . S
C173 O179 1.268 1_455 S
O174 Dy167 2.351 1_655 S
O174 C182 1.249 . S
O175 Dy164 2.326 . S
O175 C182 1.267 . S
O176 C165 1.185 . S
O176 Dy167 2.398 . S
O177 C165 1.355 . S
O177 Dy167 2.491 . S
O178 Dy167 2.403 . S
O178 C173 1.254 . S
O179 Dy164 2.310 . S
O179 Dy167 2.664 1_655 S
O179 C173 1.268 1_655 S
O180 Dy164 2.351 1_455 S
O180 C183 1.249 . S
O181 Dy167 2.326 . S
O181 C183 1.267 . S
C182 O174 1.249 . S
C182 O175 1.267 . S
C183 O180 1.249 . S
C183 O181 1.267 . S
C184 C185 1.349 . S
C184 C186 1.327 . S
C184 H209 0.950 . S
C185 C184 1.349 . S
C185 C201 1.349 . S
C186 C184 1.327 . S
C186 C205 1.429 . S
C186 H210 0.950 . S
C187 C204 1.574 . S
C187 C206 1.368 . S
C187 H211 0.949 . S
H188 C192 0.949 . S
C189 C190 1.349 . S
C189 C191 1.327 . S
C189 H212 0.950 . S
C190 C189 1.349 . S
C190 C202 1.349 . S
C191 C189 1.327 . S
C191 C207 1.429 . S
C191 H213 0.950 . S
C192 H188 0.949 . S
C192 C200 1.574 . S
C192 C208 1.368 . S
H193 C201 0.950 . S
H194 C199 0.950 . S
H195 C200 0.949 . S
H196 C202 0.950 1_565 S
H197 C203 0.950 . S
H198 C204 0.949 . S
C199 H194 0.950 . S
C199 C201 1.327 . S
C199 C205 1.429 . S
C200 C192 1.574 . S
C200 H195 0.949 . S
C200 C206 1.368 . S
C201 C185 1.349 . S
C201 H193 0.950 . S
C201 C199 1.327 . S
C202 C190 1.349 . S
C202 H196 0.950 1_545 S
C202 C203 1.327 . S
C203 H197 0.950 . S
C203 C202 1.327 . S
C203 C207 1.429 . S
C204 C187 1.574 . S
C204 H198 0.949 . S
C204 C208 1.368 . S
C205 C186 1.429 . S
C205 C199 1.429 . S
C205 C206 1.523 . S
C206 C187 1.368 . S
C206 C200 1.368 . S
C206 C205 1.523 . S
C207 C191 1.429 . S
C207 C203 1.429 . S
C207 C208 1.523 . S
C208 C192 1.368 . S
C208 C204 1.368 . S
C208 C207 1.523 . S
H209 C184 0.950 . S
H210 C186 0.950 . S
H211 C187 0.949 . S
H212 C189 0.950 . S
H213 C191 0.950 . S
C214 C215 1.349 . S
C214 C216 1.327 . S
C214 H239 0.950 . S
C215 C214 1.349 . S
C215 C231 1.349 . S
C216 C214 1.327 . S
C216 C235 1.429 . S
C216 H240 0.950 . S
C217 C234 1.574 . S
C217 C236 1.368 . S
C217 H241 0.949 . S
H218 C222 0.949 . S
C219 C220 1.349 . S
C219 C221 1.327 . S
C219 H242 0.950 . S
C220 C219 1.349 . S
C220 C232 1.349 . S
C221 C219 1.327 . S
C221 C237 1.429 . S
C221 H243 0.950 . S
C222 H218 0.949 . S
C222 C230 1.574 . S
C222 C238 1.368 . S
H223 C231 0.950 . S
H224 C229 0.950 . S
H225 C230 0.949 . S
H226 C232 0.950 . S
H227 C233 0.950 . S
H228 C234 0.949 . S
C229 H224 0.950 . S
C229 C231 1.327 . S
C229 C235 1.429 . S
C230 C222 1.574 . S
C230 H225 0.949 . S
C230 C236 1.368 . S
C231 C215 1.349 . S
C231 H223 0.950 . S
C231 C229 1.327 . S
C232 C220 1.349 . S
C232 H226 0.950 . S
C232 C233 1.327 . S
C233 H227 0.950 . S
C233 C232 1.327 . S
C233 C237 1.429 . S
C234 C217 1.574 . S
C234 H228 0.949 . S
C234 C238 1.368 . S
C235 C216 1.429 . S
C235 C229 1.429 . S
C235 C236 1.523 . S
C236 C217 1.368 . S
C236 C230 1.368 . S
C236 C235 1.523 . S
C237 C221 1.429 . S
C237 C233 1.429 . S
C237 C238 1.523 . S
C238 C222 1.368 . S
C238 C234 1.368 . S
C238 C237 1.523 . S
H239 C214 0.950 . S
H240 C216 0.950 . S
H241 C217 0.949 . S
H242 C219 0.950 . S
H243 C221 0.950 . S
C244 C245 1.349 . S
C244 C246 1.327 . S
C244 H269 0.950 . S
C245 C244 1.349 . S
C245 C261 1.349 . S
C246 C244 1.327 . S
C246 C265 1.429 . S
C246 H270 0.950 . S
C247 C264 1.574 . S
C247 C266 1.368 . S
C247 H271 0.949 . S
H248 C252 0.949 . S
C249 C250 1.349 . S
C249 C251 1.327 . S
C249 H272 0.950 . S
C250 C249 1.349 . S
C250 C262 1.349 . S
C251 C249 1.327 . S
C251 C267 1.429 . S
C251 H273 0.950 . S
C252 H248 0.949 . S
C252 C260 1.574 . S
C252 C268 1.368 . S
H253 C261 0.950 . S
H254 C259 0.950 . S
H255 C260 0.949 . S
H256 C262 0.950 . S
H257 C263 0.950 . S
H258 C264 0.949 . S
C259 H254 0.950 . S
C259 C261 1.327 . S
C259 C265 1.429 . S
C260 C252 1.574 . S
C260 H255 0.949 . S
C260 C266 1.368 . S
C261 C245 1.349 . S
C261 H253 0.950 . S
C261 C259 1.327 . S
C262 C250 1.349 . S
C262 H256 0.950 . S
C262 C263 1.327 . S
C263 H257 0.950 . S
C263 C262 1.327 . S
C263 C267 1.429 . S
C264 C247 1.574 . S
C264 H258 0.949 . S
C264 C268 1.368 . S
C265 C246 1.429 . S
C265 C259 1.429 . S
C265 C266 1.523 . S
C266 C247 1.368 . S
C266 C260 1.368 . S
C266 C265 1.523 . S
C267 C251 1.429 . S
C267 C263 1.429 . S
C267 C268 1.523 . S
C268 C252 1.368 . S
C268 C264 1.368 . S
C268 C267 1.523 . S
H269 C244 0.950 . S
H270 C246 0.950 . S
H271 C247 0.949 . S
H272 C249 0.950 . S
H273 C251 0.950 . S
C274 C275 1.352 1_655 S
C274 C276 1.327 . S
C274 H299 0.950 . S
C275 C274 1.352 1_455 S
C275 C291 1.346 . S
C276 C274 1.327 . S
C276 C295 1.434 . S
C276 H300 0.950 . S
C277 C294 1.574 . S
C277 C296 1.355 1_455 S
C277 H301 0.949 . S
H278 C282 0.949 . S
C279 C280 1.349 1_455 S
C279 C281 1.327 . S
C279 H302 0.950 . S
C280 C279 1.349 1_655 S
C280 C292 1.349 . S
C281 C279 1.327 . S
C281 C297 1.400 1_455 S
C281 H303 0.950 . S
C282 H278 0.949 . S
C282 C290 1.574 . S
C282 C298 1.394 . S
H283 C291 0.950 . S
H284 C289 0.950 . S
H285 C290 0.949 . S
H286 C292 0.950 . S
H287 C293 0.950 . S
H288 C294 0.949 . S
C289 H284 0.950 . S
C289 C291 1.327 . S
C289 C295 1.423 1_455 S
C290 C282 1.574 . S
C290 H285 0.949 . S
C290 C296 1.382 . S
C291 C275 1.346 . S
C291 H283 0.950 . S
C291 C289 1.327 . S
C292 C280 1.349 . S
C292 H286 0.950 . S
C292 C293 1.327 . S
C293 H287 0.950 . S
C293 C292 1.327 . S
C293 C297 1.461 . S
C294 C277 1.574 . S
C294 H288 0.949 . S
C294 C298 1.342 1_455 S
C295 C276 1.434 . S
C295 C289 1.423 1_655 S
C295 C296 1.522 . S
C296 C277 1.355 1_655 S
C296 C290 1.382 . S
C296 C295 1.522 . S
C297 C281 1.400 1_655 S
C297 C293 1.461 . S
C297 C298 1.522 . S
C298 C282 1.394 . S
C298 C294 1.342 1_655 S
C298 C297 1.522 . S
H299 C274 0.950 . S
H300 C276 0.950 . S
H301 C277 0.949 . S
H302 C279 0.950 . S
H303 C281 0.950 . S
C304 C305 1.349 . S
C304 C306 1.327 . S
C304 H329 0.950 . S
C305 C304 1.349 . S
C305 C321 1.349 . S
C306 C304 1.327 . S
C306 C325 1.429 . S
C306 H330 0.950 . S
C307 C324 1.574 . S
C307 C326 1.368 . S
C307 H331 0.949 . S
H308 C312 0.949 . S
C309 C310 1.349 1_545 S
C309 C311 1.323 1_545 S
C309 H332 0.950 . S
C310 C309 1.349 1_565 S
C310 C322 1.349 . S
C311 C309 1.323 1_565 S
C311 C327 1.461 . S
C311 H333 0.922 1_565 S
C312 H308 0.949 . S
C312 C320 1.574 . S
C312 C328 1.368 . S
H313 C321 0.950 . S
H314 C319 0.950 . S
H315 C320 0.949 . S
H316 C322 0.950 . S
H317 C323 0.950 . S
H318 C324 0.949 1_545 S
C319 H314 0.950 . S
C319 C321 1.327 . S
C319 C325 1.429 . S
C320 C312 1.574 . S
C320 H315 0.949 . S
C320 C326 1.368 . S
C321 C305 1.349 . S
C321 H313 0.950 . S
C321 C319 1.327 . S
C322 C310 1.349 . S
C322 H316 0.950 . S
C322 C323 1.327 . S
C323 H317 0.950 . S
C323 C322 1.327 . S
C323 C327 1.429 . S
C324 C307 1.574 . S
C324 H318 0.949 1_565 S
C324 C328 1.368 . S
C325 C306 1.429 . S
C325 C319 1.429 . S
C325 C326 1.523 . S
C326 C307 1.368 . S
C326 C320 1.368 . S
C326 C325 1.523 . S
C327 C311 1.461 . S
C327 C323 1.429 . S
C327 C328 1.523 . S
C328 C312 1.368 . S
C328 C324 1.368 . S
C328 C327 1.523 . S
H329 C304 0.950 . S
H330 C306 0.950 . S
H331 C307 0.949 . S
H332 C309 0.950 . S
H333 C311 0.922 1_545 S
C334 C335 1.349 . S
C334 C336 1.327 . S
C334 H359 0.950 . S
C335 C334 1.349 . S
C335 C351 1.349 1_554 S
C336 C334 1.327 . S
C336 C355 1.429 1_554 S
C336 H360 0.950 . S
C337 C354 1.574 . S
C337 C356 1.368 . S
C337 H361 0.949 . S
H338 C342 0.949 . S
C339 C340 1.349 . S
C339 C341 1.327 . S
C339 H362 0.950 . S
C340 C339 1.349 . S
C340 C352 1.349 . S
C341 C339 1.327 . S
C341 C357 1.429 . S
C341 H363 0.950 . S
C342 H338 0.949 . S
C342 C350 1.574 . S
C342 C358 1.368 . S
H343 C351 0.950 . S
H344 C349 0.950 . S
H345 C350 0.949 . S
H346 C352 0.950 . S
H347 C353 0.950 . S
H348 C354 0.949 . S
C349 H344 0.950 . S
C349 C351 1.327 . S
C349 C355 1.429 . S
C350 C342 1.574 . S
C350 H345 0.949 . S
C350 C356 1.368 . S
C351 C335 1.349 1_556 S
C351 H343 0.950 . S
C351 C349 1.327 . S
C352 C340 1.349 . S
C352 H346 0.950 . S
C352 C353 1.327 . S
C353 H347 0.950 . S
C353 C352 1.327 . S
C353 C357 1.429 . S
C354 C337 1.574 . S
C354 H348 0.949 . S
C354 C358 1.368 . S
C355 C336 1.429 1_556 S
C355 C349 1.429 . S
C355 C356 1.523 . S
C356 C337 1.368 . S
C356 C350 1.368 . S
C356 C355 1.523 . S
C357 C341 1.429 . S
C357 C353 1.429 . S
C357 C358 1.523 . S
C358 C342 1.368 . S
C358 C354 1.368 . S
C358 C357 1.523 . S
H359 C334 0.950 . S
H360 C336 0.950 . S
H361 C337 0.949 . S
H362 C339 0.950 . S
H363 C341 0.950 . S
C364 C365 1.349 . S
C364 C366 1.327 . S
C364 H389 0.950 . S
C365 C364 1.349 . S
C365 C381 1.348 1_556 S
C366 C364 1.327 . S
C366 C385 1.429 . S
C366 H390 0.950 . S
C367 C384 1.574 . S
C367 C386 1.368 . S
C367 H391 0.949 . S
H368 C372 0.949 . S
C369 C370 1.349 . S
C369 C371 1.327 . S
C369 H392 0.950 . S
C370 C369 1.349 . S
C370 C382 1.349 . S
C371 C369 1.327 . S
C371 C387 1.429 . S
C371 H393 0.950 . S
C372 H368 0.949 . S
C372 C380 1.574 . S
C372 C388 1.368 . S
H373 C381 0.957 . S
H374 C379 0.950 . S
H375 C380 0.949 . S
H376 C382 0.950 . S
H377 C383 0.950 . S
H378 C384 0.949 . S
C379 H374 0.950 . S
C379 C381 1.321 1_556 S
C379 C385 1.429 . S
C380 C372 1.574 . S
C380 H375 0.949 . S
C380 C386 1.368 . S
C381 C365 1.348 1_554 S
C381 H373 0.957 . S
C381 C379 1.321 1_554 S
C382 C370 1.349 . S
C382 H376 0.950 . S
C382 C383 1.327 . S
C383 H377 0.950 . S
C383 C382 1.327 . S
C383 C387 1.429 . S
C384 C367 1.574 . S
C384 H378 0.949 . S
C384 C388 1.368 . S
C385 C366 1.429 . S
C385 C379 1.429 . S
C385 C386 1.523 . S
C386 C367 1.368 . S
C386 C380 1.368 . S
C386 C385 1.523 . S
C387 C371 1.429 . S
C387 C383 1.429 . S
C387 C388 1.523 . S
C388 C372 1.368 . S
C388 C384 1.368 . S
C388 C387 1.523 . S
H389 C364 0.950 . S
H390 C366 0.950 . S
H391 C367 0.949 . S
H392 C369 0.950 . S
H393 C371 0.950 . S
C394 C395 1.347 . S
C394 C396 1.327 . S
C394 H419 0.950 . S
C395 C394 1.347 . S
C395 C411 1.351 1_655 S
C396 C394 1.327 . S
C396 C415 1.423 1_655 S
C396 H420 0.950 . S
C397 C414 1.574 . S
C397 C416 1.381 . S
C397 H421 0.949 . S
H398 C402 0.949 . S
C399 C400 1.349 . S
C399 C401 1.327 . S
C399 H422 0.950 . S
C400 C399 1.349 . S
C400 C412 1.349 1_455 S
C401 C399 1.327 . S
C401 C417 1.458 . S
C401 H423 0.950 . S
C402 H398 0.949 . S
C402 C410 1.574 . S
C402 C418 1.344 1_655 S
H403 C411 0.950 1_554 S
H404 C409 0.950 . S
H405 C410 0.949 . S
H406 C412 0.950 . S
H407 C413 0.950 . S
H408 C414 0.949 . S
C409 H404 0.950 . S
C409 C411 1.327 . S
C409 C415 1.433 . S
C410 C402 1.574 . S
C410 H405 0.949 . S
C410 C416 1.357 1_655 S
C411 C395 1.351 1_455 S
C411 H403 0.950 1_556 S
C411 C409 1.327 . S
C412 C400 1.349 1_655 S
C412 H406 0.950 . S
C412 C413 1.327 . S
C413 H407 0.950 . S
C413 C412 1.327 . S
C413 C417 1.403 1_655 S
C414 C397 1.574 . S
C414 H408 0.949 . S
C414 C418 1.391 . S
C415 C396 1.423 1_455 S
C415 C409 1.433 . S
C415 C416 1.522 . S
C416 C397 1.381 . S
C416 C410 1.357 1_455 S
C416 C415 1.522 . S
C417 C401 1.458 . S
C417 C413 1.403 1_455 S
C417 C418 1.522 . S
C418 C402 1.344 1_455 S
C418 C414 1.391 . S
C418 C417 1.522 . S
H419 C394 0.950 . S
H420 C396 0.950 . S
H421 C397 0.949 . S
H422 C399 0.950 . S
H423 C401 0.950 . S
C424 C425 1.351 . S
C424 C426 1.327 . S
C424 H449 0.950 . S
C425 C424 1.351 . S
C425 C441 1.347 1_455 S
C426 C424 1.327 . S
C426 C445 1.429 1_455 S
C426 H450 0.950 . S
C427 C444 1.574 . S
C427 C446 1.368 . S
C427 H451 0.949 . S
H428 C432 0.949 . S
C429 C430 1.349 . S
C429 C431 1.327 . S
C429 H452 0.950 . S
C430 C429 1.349 . S
C430 C442 1.349 1_655 S
C431 C429 1.327 . S
C431 C447 1.429 . S
C431 H453 0.950 . S
C432 H428 0.949 . S
C432 C440 1.574 . S
C432 C448 1.368 1_455 S
H433 C441 0.950 . S
H434 C439 0.950 . S
H435 C440 0.949 . S
H436 C442 0.950 . S
H437 C443 0.950 . S
H438 C444 0.949 . S
C439 H434 0.950 . S
C439 C441 1.327 . S
C439 C445 1.429 . S
C440 C432 1.574 . S
C440 H435 0.949 . S
C440 C446 1.368 1_455 S
C441 C425 1.347 1_655 S
C441 H433 0.950 . S
C441 C439 1.327 . S
C442 C430 1.349 1_455 S
C442 H436 0.950 . S
C442 C443 1.327 . S
C443 H437 0.950 . S
C443 C442 1.327 . S
C443 C447 1.429 1_455 S
C444 C427 1.574 . S
C444 H438 0.949 . S
C444 C448 1.368 . S
C445 C426 1.429 1_655 S
C445 C439 1.429 . S
C445 C446 1.523 . S
C446 C427 1.368 . S
C446 C440 1.368 1_655 S
C446 C445 1.523 . S
C447 C431 1.429 . S
C447 C443 1.429 1_655 S
C447 C448 1.523 . S
C448 C432 1.368 1_655 S
C448 C444 1.368 . S
C448 C447 1.523 . S
H449 C424 0.950 . S
H450 C426 0.950 . S
H451 C427 0.949 . S
H452 C429 0.950 . S
H453 C431 0.950 . S
C454 C455 1.349 . S
C454 C456 1.327 . S
C454 H479 0.950 . S
C455 C454 1.349 . S
C455 C471 1.349 . S
C456 C454 1.327 . S
C456 C475 1.429 . S
C456 H480 0.950 . S
C457 C474 1.574 . S
C457 C476 1.368 . S
C457 H481 0.949 . S
H458 C462 0.949 . S
C459 C460 1.349 . S
C459 C461 1.327 . S
C459 H482 0.950 . S
C460 C459 1.349 . S
C460 C472 1.349 . S
C461 C459 1.327 . S
C461 C477 1.429 . S
C461 H483 0.950 . S
C462 H458 0.949 . S
C462 C470 1.574 . S
C462 C478 1.368 . S
H463 C471 0.950 . S
H464 C469 0.950 . S
H465 C470 0.949 . S
H466 C472 0.950 1_565 S
H467 C473 0.950 . S
H468 C474 0.949 . S
C469 H464 0.950 . S
C469 C471 1.327 . S
C469 C475 1.429 . S
C470 C462 1.574 . S
C470 H465 0.949 . S
C470 C476 1.368 . S
C471 C455 1.349 . S
C471 H463 0.950 . S
C471 C469 1.327 . S
C472 C460 1.349 . S
C472 H466 0.950 1_545 S
C472 C473 1.327 . S
C473 H467 0.950 . S
C473 C472 1.327 . S
C473 C477 1.429 . S
C474 C457 1.574 . S
C474 H468 0.949 . S
C474 C478 1.368 . S
C475 C456 1.429 . S
C475 C469 1.429 . S
C475 C476 1.523 . S
C476 C457 1.368 . S
C476 C470 1.368 . S
C476 C475 1.523 . S
C477 C461 1.429 . S
C477 C473 1.429 . S
C477 C478 1.523 . S
C478 C462 1.368 . S
C478 C474 1.368 . S
C478 C477 1.523 . S
H479 C454 0.950 . S
H480 C456 0.950 . S
H481 C457 0.949 . S
H482 C459 0.950 . S
H483 C461 0.950 . S
C484 C485 1.349 . S
C484 C486 1.327 . S
C484 H509 0.950 . S
C485 C484 1.349 . S
C485 C501 1.349 . S
C486 C484 1.327 . S
C486 C505 1.429 . S
C486 H510 0.950 . S
C487 C504 1.574 . S
C487 C506 1.368 . S
C487 H511 0.949 . S
H488 C492 0.949 . S
C489 C490 1.349 . S
C489 C491 1.327 . S
C489 H512 0.950 . S
C490 C489 1.349 . S
C490 C502 1.349 . S
C491 C489 1.327 . S
C491 C507 1.429 . S
C491 H513 0.950 . S
C492 H488 0.949 . S
C492 C500 1.574 . S
C492 C508 1.368 . S
H493 C501 0.950 . S
H494 C499 0.950 . S
H495 C500 0.949 . S
H496 C502 0.950 . S
H497 C503 0.950 . S
H498 C504 0.949 . S
C499 H494 0.950 . S
C499 C501 1.327 . S
C499 C505 1.429 . S
C500 C492 1.574 . S
C500 H495 0.949 . S
C500 C506 1.368 . S
C501 C485 1.349 . S
C501 H493 0.950 . S
C501 C499 1.327 . S
C502 C490 1.349 . S
C502 H496 0.950 . S
C502 C503 1.327 . S
C503 H497 0.950 . S
C503 C502 1.327 . S
C503 C507 1.429 . S
C504 C487 1.574 . S
C504 H498 0.949 . S
C504 C508 1.368 . S
C505 C486 1.429 . S
C505 C499 1.429 . S
C505 C506 1.523 . S
C506 C487 1.368 . S
C506 C500 1.368 . S
C506 C505 1.523 . S
C507 C491 1.429 . S
C507 C503 1.429 . S
C507 C508 1.523 . S
C508 C492 1.368 . S
C508 C504 1.368 . S
C508 C507 1.523 . S
H509 C484 0.950 . S
H510 C486 0.950 . S
H511 C487 0.949 . S
H512 C489 0.950 . S
H513 C491 0.950 . S
C514 C515 1.349 . S
C514 C516 1.327 . S
C514 H539 0.950 . S
C515 C514 1.349 . S
C515 C531 1.349 . S
C516 C514 1.327 . S
C516 C535 1.429 . S
C516 H540 0.950 . S
C517 C534 1.574 . S
C517 C536 1.368 . S
C517 H541 0.949 . S
H518 C522 0.949 . S
C519 C520 1.349 . S
C519 C521 1.327 . S
C519 H542 0.950 . S
C520 C519 1.349 . S
C520 C532 1.349 . S
C521 C519 1.327 . S
C521 C537 1.429 . S
C521 H543 0.950 . S
C522 H518 0.949 . S
C522 C530 1.574 . S
C522 C538 1.368 . S
H523 C531 0.950 . S
H524 C529 0.950 . S
H525 C530 0.949 . S
H526 C532 0.950 . S
H527 C533 0.950 . S
H528 C534 0.949 . S
C529 H524 0.950 . S
C529 C531 1.327 . S
C529 C535 1.429 . S
C530 C522 1.574 . S
C530 H525 0.949 . S
C530 C536 1.368 . S
C531 C515 1.349 . S
C531 H523 0.950 . S
C531 C529 1.327 . S
C532 C520 1.349 . S
C532 H526 0.950 . S
C532 C533 1.327 . S
C533 H527 0.950 . S
C533 C532 1.327 . S
C533 C537 1.429 . S
C534 C517 1.574 . S
C534 H528 0.949 . S
C534 C538 1.368 . S
C535 C516 1.429 . S
C535 C529 1.429 . S
C535 C536 1.523 . S
C536 C517 1.368 . S
C536 C530 1.368 . S
C536 C535 1.523 . S
C537 C521 1.429 . S
C537 C533 1.429 . S
C537 C538 1.523 . S
C538 C522 1.368 . S
C538 C534 1.368 . S
C538 C537 1.523 . S
H539 C514 0.950 . S
H540 C516 0.950 . S
H541 C517 0.949 . S
H542 C519 0.950 . S
H543 C521 0.950 . S
C544 C545 1.352 . S
C544 C546 1.327 . S
C544 H569 0.950 . S
C545 C544 1.352 . S
C545 C561 1.346 1_655 S
C546 C544 1.327 . S
C546 C565 1.429 1_655 S
C546 H570 0.950 . S
C547 C564 1.574 . S
C547 C566 1.368 . S
C547 H571 0.949 . S
H548 C552 0.949 . S
C549 C550 1.349 . S
C549 C551 1.327 . S
C549 H572 0.950 . S
C550 C549 1.349 . S
C550 C562 1.349 1_455 S
C551 C549 1.327 . S
C551 C567 1.429 . S
C551 H573 0.950 . S
C552 H548 0.949 . S
C552 C560 1.574 . S
C552 C568 1.368 1_655 S
H553 C561 0.950 1_554 S
H554 C559 0.950 . S
H555 C560 0.949 . S
H556 C562 0.950 . S
H557 C563 0.950 . S
H558 C564 0.949 . S
C559 H554 0.950 . S
C559 C561 1.327 . S
C559 C565 1.429 . S
C560 C552 1.574 . S
C560 H555 0.949 . S
C560 C566 1.368 1_655 S
C561 C545 1.346 1_455 S
C561 H553 0.950 1_556 S
C561 C559 1.327 . S
C562 C550 1.349 1_655 S
C562 H556 0.950 . S
C562 C563 1.327 . S
C563 H557 0.950 . S
C563 C562 1.327 . S
C563 C567 1.429 1_655 S
C564 C547 1.574 . S
C564 H558 0.949 . S
C564 C568 1.368 . S
C565 C546 1.429 1_455 S
C565 C559 1.429 . S
C565 C566 1.523 . S
C566 C547 1.368 . S
C566 C560 1.368 1_455 S
C566 C565 1.523 . S
C567 C551 1.429 . S
C567 C563 1.429 1_455 S
C567 C568 1.523 . S
C568 C552 1.368 1_455 S
C568 C564 1.368 . S
C568 C567 1.523 . S
H569 C544 0.950 . S
H570 C546 0.950 . S
H571 C547 0.949 . S
H572 C549 0.950 . S
H573 C551 0.950 . S
C574 C575 1.349 . S
C574 C576 1.327 . S
C574 H599 0.950 . S
C575 C574 1.349 . S
C575 C591 1.349 . S
C576 C574 1.327 . S
C576 C595 1.429 . S
C576 H600 0.950 . S
C577 C594 1.574 . S
C577 C596 1.368 . S
C577 H601 0.949 . S
H578 C582 0.949 1_545 S
C579 C580 1.349 . S
C579 C581 1.327 . S
C579 H602 0.950 . S
C580 C579 1.349 . S
C580 C592 1.349 1_565 S
C581 C579 1.327 . S
C581 C597 1.429 . S
C581 H603 0.950 . S
C582 H578 0.949 1_565 S
C582 C590 1.574 . S
C582 C598 1.368 . S
H583 C591 0.950 . S
H584 C589 0.950 . S
H585 C590 0.949 . S
H586 C592 0.950 . S
H587 C593 0.950 . S
H588 C594 0.949 . S
C589 H584 0.950 . S
C589 C591 1.327 . S
C589 C595 1.429 . S
C590 C582 1.574 . S
C590 H585 0.949 . S
C590 C596 1.368 . S
C591 C575 1.349 . S
C591 H583 0.950 . S
C591 C589 1.327 . S
C592 C580 1.349 1_545 S
C592 H586 0.950 . S
C592 C593 1.327 . S
C593 H587 0.950 . S
C593 C592 1.327 . S
C593 C597 1.429 1_545 S
C594 C577 1.574 . S
C594 H588 0.949 . S
C594 C598 1.368 . S
C595 C576 1.429 . S
C595 C589 1.429 . S
C595 C596 1.523 . S
C596 C577 1.368 . S
C596 C590 1.368 . S
C596 C595 1.523 . S
C597 C581 1.429 . S
C597 C593 1.429 1_565 S
C597 C598 1.523 . S
C598 C582 1.368 . S
C598 C594 1.368 . S
C598 C597 1.523 . S
H599 C574 0.950 . S
H600 C576 0.950 . S
H601 C577 0.949 . S
H602 C579 0.950 . S
H603 C581 0.950 . S
C604 C605 1.349 1_556 S
C604 C606 1.327 . S
C604 H629 0.950 . S
C605 C604 1.349 1_554 S
C605 C621 1.349 . S
C606 C604 1.327 . S
C606 C625 1.429 . S
C606 H630 0.950 . S
C607 C624 1.574 . S
C607 C626 1.368 . S
C607 H631 0.949 . S
H608 C612 0.949 . S
C609 C610 1.349 . S
C609 C611 1.327 . S
C609 H632 0.950 . S
C610 C609 1.349 . S
C610 C622 1.349 . S
C611 C609 1.327 . S
C611 C627 1.429 . S
C611 H633 0.950 . S
C612 H608 0.949 . S
C612 C620 1.574 . S
C612 C628 1.368 . S
H613 C621 0.950 . S
H614 C619 0.950 . S
H615 C620 0.949 . S
H616 C622 0.950 . S
H617 C623 0.950 . S
H618 C624 0.949 . S
C619 H614 0.950 . S
C619 C621 1.327 . S
C619 C625 1.429 1_554 S
C620 C612 1.574 . S
C620 H615 0.949 . S
C620 C626 1.368 . S
C621 C605 1.349 . S
C621 H613 0.950 . S
C621 C619 1.327 . S
C622 C610 1.349 . S
C622 H616 0.950 . S
C622 C623 1.327 . S
C623 H617 0.950 . S
C623 C622 1.327 . S
C623 C627 1.429 . S
C624 C607 1.574 . S
C624 H618 0.949 . S
C624 C628 1.368 . S
C625 C606 1.429 . S
C625 C619 1.429 1_556 S
C625 C626 1.523 . S
C626 C607 1.368 . S
C626 C620 1.368 . S
C626 C625 1.523 . S
C627 C611 1.429 . S
C627 C623 1.429 . S
C627 C628 1.523 . S
C628 C612 1.368 . S
C628 C624 1.368 . S
C628 C627 1.523 . S
H629 C604 0.950 . S
H630 C606 0.950 . S
H631 C607 0.949 . S
H632 C609 0.950 . S
H633 C611 0.950 . S
C634 C635 1.349 . S
C634 C636 1.327 . S
C634 H659 0.950 1_556 S
C635 C634 1.349 . S
C635 C651 1.349 . S
C636 C634 1.327 . S
C636 C655 1.429 . S
C636 H660 0.950 . S
C637 C654 1.574 . S
C637 C656 1.368 . S
C637 H661 0.949 . S
H638 C642 0.949 . S
C639 C640 1.349 . S
C639 C641 1.327 . S
C639 H662 0.950 . S
C640 C639 1.349 . S
C640 C652 1.349 . S
C641 C639 1.327 . S
C641 C657 1.429 . S
C641 H663 0.950 . S
C642 H638 0.949 . S
C642 C650 1.574 . S
C642 C658 1.368 . S
H643 C651 0.950 . S
H644 C649 0.950 . S
H645 C650 0.949 . S
H646 C652 0.950 . S
H647 C653 0.950 . S
H648 C654 0.949 . S
C649 H644 0.950 . S
C649 C651 1.327 . S
C649 C655 1.429 . S
C650 C642 1.574 . S
C650 H645 0.949 . S
C650 C656 1.368 . S
C651 C635 1.349 . S
C651 H643 0.950 . S
C651 C649 1.327 . S
C652 C640 1.349 . S
C652 H646 0.950 . S
C652 C653 1.327 . S
C653 H647 0.950 . S
C653 C652 1.327 . S
C653 C657 1.429 . S
C654 C637 1.574 . S
C654 H648 0.949 . S
C654 C658 1.368 . S
C655 C636 1.429 . S
C655 C649 1.429 . S
C655 C656 1.523 . S
C656 C637 1.368 . S
C656 C650 1.368 . S
C656 C655 1.523 . S
C657 C641 1.429 . S
C657 C653 1.429 . S
C657 C658 1.523 . S
C658 C642 1.368 . S
C658 C654 1.368 . S
C658 C657 1.523 . S
H659 C634 0.950 1_554 S
H660 C636 0.950 . S
H661 C637 0.949 . S
H662 C639 0.950 . S
H663 C641 0.950 . S
C664 C665 1.334 1_655 S
C664 C666 1.327 . S
C664 H689 0.950 1_556 S
C665 C664 1.334 1_455 S
C665 C681 1.367 . S
C666 C664 1.327 . S
C666 C685 1.429 1_655 S
C666 H690 0.950 . S
C667 C684 1.574 . S
C667 C686 1.368 . S
C667 H691 0.949 . S
H668 C672 0.949 . S
C669 C670 1.349 . S
C669 C671 1.327 . S
C669 H692 0.950 . S
C670 C669 1.349 . S
C670 C682 1.349 1_455 S
C671 C669 1.327 . S
C671 C687 1.429 . S
C671 H693 0.950 . S
C672 H668 0.949 . S
C672 C680 1.574 . S
C672 C688 1.368 1_655 S
H673 C681 0.950 . S
H674 C679 0.950 . S
H675 C680 0.949 . S
H676 C682 0.950 . S
H677 C683 0.950 . S
H678 C684 0.949 . S
C679 H674 0.950 . S
C679 C681 1.327 . S
C679 C685 1.429 . S
C680 C672 1.574 . S
C680 H675 0.949 . S
C680 C686 1.368 1_655 S
C681 C665 1.367 . S
C681 H673 0.950 . S
C681 C679 1.327 . S
C682 C670 1.349 1_655 S
C682 H676 0.950 . S
C682 C683 1.327 . S
C683 H677 0.950 . S
C683 C682 1.327 . S
C683 C687 1.429 1_655 S
C684 C667 1.574 . S
C684 H678 0.949 . S
C684 C688 1.368 . S
C685 C666 1.429 1_455 S
C685 C679 1.429 . S
C685 C686 1.523 . S
C686 C667 1.368 . S
C686 C680 1.368 1_455 S
C686 C685 1.523 . S
C687 C671 1.429 . S
C687 C683 1.429 1_455 S
C687 C688 1.523 . S
C688 C672 1.368 1_455 S
C688 C684 1.368 . S
C688 C687 1.523 . S
H689 C664 0.950 1_554 S
H690 C666 0.950 . S
H691 C667 0.949 . S
H692 C669 0.950 . S
H693 C671 0.950 . S
C694 C695 1.349 . S
C694 C696 1.326 1_554 S
C694 H719 0.950 . S
C695 C694 1.349 . S
C695 C711 1.349 1_554 S
C696 C694 1.326 1_556 S
C696 C715 1.429 . S
C696 H720 0.950 . S
C697 C714 1.574 . S
C697 C716 1.368 . S
C697 H721 0.949 . S
H698 C702 0.949 1_565 S
C699 C700 1.349 . S
C699 C701 1.327 . S
C699 H722 0.950 . S
C700 C699 1.349 . S
C700 C712 1.349 1_545 S
C701 C699 1.327 . S
C701 C717 1.429 . S
C701 H723 0.950 . S
C702 H698 0.949 1_545 S
C702 C710 1.574 . S
C702 C718 1.368 . S
H703 C711 0.950 . S
H704 C709 0.950 . S
H705 C710 0.949 . S
H706 C712 0.950 . S
H707 C713 0.950 1_565 S
H708 C714 0.949 . S
C709 H704 0.950 . S
C709 C711 1.327 . S
C709 C715 1.429 . S
C710 C702 1.574 . S
C710 H705 0.949 . S
C710 C716 1.368 . S
C711 C695 1.349 1_556 S
C711 H703 0.950 . S
C711 C709 1.327 . S
C712 C700 1.349 1_565 S
C712 H706 0.950 . S
C712 C713 1.327 1_565 S
C713 H707 0.950 1_545 S
C713 C712 1.327 1_545 S
C713 C717 1.429 . S
C714 C697 1.574 . S
C714 H708 0.949 . S
C714 C718 1.368 . S
C715 C696 1.429 . S
C715 C709 1.429 . S
C715 C716 1.523 . S
C716 C697 1.368 . S
C716 C710 1.368 . S
C716 C715 1.523 . S
C717 C701 1.429 . S
C717 C713 1.429 . S
C717 C718 1.523 . S
C718 C702 1.368 . S
C718 C714 1.368 . S
C718 C717 1.523 . S
H719 C694 0.950 . S
H720 C696 0.950 . S
H721 C697 0.949 . S
H722 C699 0.950 . S
H723 C701 0.950 . S
C724 C725 1.349 . S
C724 C726 1.327 . S
C724 H749 0.950 . S
C725 C724 1.349 . S
C725 C741 1.349 . S
C726 C724 1.327 . S
C726 C745 1.429 . S
C726 H750 0.950 . S
C727 C744 1.574 . S
C727 C746 1.368 . S
C727 H751 0.949 . S
H728 C732 0.949 . S
C729 C730 1.349 . S
C729 C731 1.327 . S
C729 H752 0.950 . S
C730 C729 1.349 . S
C730 C742 1.349 . S
C731 C729 1.327 . S
C731 C747 1.429 . S
C731 H753 0.950 . S
C732 H728 0.949 . S
C732 C740 1.574 . S
C732 C748 1.368 . S
H733 C741 0.950 . S
H734 C739 0.950 . S
H735 C740 0.949 . S
H736 C742 0.950 . S
H737 C743 0.950 . S
H738 C744 0.949 . S
C739 H734 0.950 . S
C739 C741 1.327 . S
C739 C745 1.429 . S
C740 C732 1.574 . S
C740 H735 0.949 . S
C740 C746 1.368 . S
C741 C725 1.349 . S
C741 H733 0.950 . S
C741 C739 1.327 . S
C742 C730 1.349 . S
C742 H736 0.950 . S
C742 C743 1.327 . S
C743 H737 0.950 . S
C743 C742 1.327 . S
C743 C747 1.429 . S
C744 C727 1.574 . S
C744 H738 0.949 . S
C744 C748 1.368 . S
C745 C726 1.429 . S
C745 C739 1.429 . S
C745 C746 1.523 . S
C746 C727 1.368 . S
C746 C740 1.368 . S
C746 C745 1.523 . S
C747 C731 1.429 . S
C747 C743 1.429 . S
C747 C748 1.523 . S
C748 C732 1.368 . S
C748 C744 1.368 . S
C748 C747 1.523 . S
H749 C724 0.950 . S
H750 C726 0.950 . S
H751 C727 0.949 . S
H752 C729 0.950 . S
H753 C731 0.950 . S
C754 C755 1.349 . S
C754 C756 1.327 . S
C754 H779 0.950 . S
C755 C754 1.349 . S
C755 C771 1.349 . S
C756 C754 1.327 . S
C756 C775 1.429 . S
C756 H780 0.950 . S
C757 C774 1.574 . S
C757 C776 1.368 . S
C757 H781 0.949 . S
H758 C762 0.949 . S
C759 C760 1.349 . S
C759 C761 1.327 . S
C759 H782 0.950 . S
C760 C759 1.349 . S
C760 C772 1.349 . S
C761 C759 1.327 . S
C761 C777 1.429 . S
C761 H783 0.950 . S
C762 H758 0.949 . S
C762 C770 1.574 . S
C762 C778 1.368 . S
H763 C771 0.950 . S
H764 C769 0.950 . S
H765 C770 0.949 . S
H766 C772 0.950 . S
H767 C773 0.950 . S
H768 C774 0.949 . S
C769 H764 0.950 . S
C769 C771 1.327 . S
C769 C775 1.429 . S
C770 C762 1.574 . S
C770 H765 0.949 . S
C770 C776 1.368 . S
C771 C755 1.349 . S
C771 H763 0.950 . S
C771 C769 1.327 . S
C772 C760 1.349 . S
C772 H766 0.950 . S
C772 C773 1.327 . S
C773 H767 0.950 . S
C773 C772 1.327 . S
C773 C777 1.429 . S
C774 C757 1.574 . S
C774 H768 0.949 . S
C774 C778 1.368 . S
C775 C756 1.429 . S
C775 C769 1.429 . S
C775 C776 1.523 . S
C776 C757 1.368 . S
C776 C770 1.368 . S
C776 C775 1.523 . S
C777 C761 1.429 . S
C777 C773 1.429 . S
C777 C778 1.523 . S
C778 C762 1.368 . S
C778 C774 1.368 . S
C778 C777 1.523 . S
H779 C754 0.950 . S
H780 C756 0.950 . S
H781 C757 0.949 . S
H782 C759 0.950 . S
H783 C761 0.950 . S
C784 C785 1.358 . S
C784 C786 1.327 . S
C784 H809 0.950 . S
C785 C784 1.358 . S
C785 C801 1.343 1_655 S
C786 C784 1.327 . S
C786 C805 1.429 . S
C786 H810 0.950 . S
C787 C804 1.574 . S
C787 C806 1.368 1_455 S
C787 H811 0.949 . S
H788 C792 0.949 . S
C789 C790 1.349 . S
C789 C791 1.330 . S
C789 H812 0.950 1_655 S
C790 C789 1.349 . S
C790 C802 1.349 . S
C791 C789 1.330 . S
C791 C807 1.434 . S
C791 H813 0.942 1_655 S
C792 H788 0.949 . S
C792 C800 1.574 . S
C792 C808 1.368 . S
H793 C801 0.950 . S
H794 C799 0.950 . S
H795 C800 0.949 . S
H796 C802 0.950 . S
H797 C803 0.950 . S
H798 C804 0.949 . S
C799 H794 0.950 . S
C799 C801 1.327 . S
C799 C805 1.429 1_455 S
C800 C792 1.574 . S
C800 H795 0.949 . S
C800 C806 1.368 . S
C801 C785 1.343 1_455 S
C801 H793 0.950 . S
C801 C799 1.327 . S
C802 C790 1.349 . S
C802 H796 0.950 . S
C802 C803 1.327 . S
C803 H797 0.950 . S
C803 C802 1.327 . S
C803 C807 1.429 . S
C804 C787 1.574 . S
C804 H798 0.949 . S
C804 C808 1.368 1_455 S
C805 C786 1.429 . S
C805 C799 1.429 1_655 S
C805 C806 1.523 . S
C806 C787 1.368 1_655 S
C806 C800 1.368 . S
C806 C805 1.523 . S
C807 C791 1.434 . S
C807 C803 1.429 . S
C807 C808 1.523 . S
C808 C792 1.368 . S
C808 C804 1.368 1_655 S
C808 C807 1.523 . S
H809 C784 0.950 . S
H810 C786 0.950 . S
H811 C787 0.949 . S
H812 C789 0.950 1_455 S
H813 C791 0.942 1_455 S
C814 C815 1.349 . S
C814 C816 1.327 . S
C814 H839 0.950 . S
C815 C814 1.349 . S
C815 C831 1.349 . S
C816 C814 1.327 . S
C816 C835 1.429 . S
C816 H840 0.950 . S
C817 C834 1.574 . S
C817 C836 1.368 . S
C817 H841 0.949 . S
H818 C822 0.949 . S
C819 C820 1.350 1_545 S
C819 C821 1.328 1_545 S
C819 H842 0.948 . S
C820 C819 1.350 1_565 S
C820 C832 1.349 . S
C821 C819 1.328 1_565 S
C821 C837 1.429 . S
C821 H843 0.950 1_565 S
C822 H818 0.949 . S
C822 C830 1.574 . S
C822 C838 1.368 . S
H823 C831 0.950 . S
H824 C829 0.950 . S
H825 C830 0.949 . S
H826 C832 0.950 . S
H827 C833 0.950 . S
H828 C834 0.918 1_545 S
C829 H824 0.950 . S
C829 C831 1.327 . S
C829 C835 1.429 . S
C830 C822 1.574 . S
C830 H825 0.949 . S
C830 C836 1.368 . S
C831 C815 1.349 . S
C831 H823 0.950 . S
C831 C829 1.327 . S
C832 C820 1.349 . S
C832 H826 0.950 . S
C832 C833 1.327 . S
C833 H827 0.950 . S
C833 C832 1.327 . S
C833 C837 1.429 . S
C834 C817 1.574 . S
C834 H828 0.918 1_565 S
C834 C838 1.368 . S
C835 C816 1.429 . S
C835 C829 1.429 . S
C835 C836 1.523 . S
C836 C817 1.368 . S
C836 C830 1.368 . S
C836 C835 1.523 . S
C837 C821 1.429 . S
C837 C833 1.429 . S
C837 C838 1.523 . S
C838 C822 1.368 . S
C838 C834 1.368 . S
C838 C837 1.523 . S
H839 C814 0.950 . S
H840 C816 0.950 . S
H841 C817 0.949 . S
H842 C819 0.948 . S
H843 C821 0.950 1_545 S
C844 C845 1.349 . S
C844 C846 1.327 . S
C844 H869 0.950 . S
C845 C844 1.349 . S
C845 C861 1.349 . S
C846 C844 1.327 . S
C846 C865 1.429 . S
C846 H870 0.950 . S
C847 C864 1.574 . S
C847 C866 1.368 . S
C847 H871 0.949 . S
H848 C852 0.949 . S
C849 C850 1.349 . S
C849 C851 1.327 . S
C849 H872 0.950 . S
C850 C849 1.349 . S
C850 C862 1.349 . S
C851 C849 1.327 . S
C851 C867 1.429 . S
C851 H873 0.950 . S
C852 H848 0.949 . S
C852 C860 1.574 . S
C852 C868 1.368 . S
H853 C861 0.950 . S
H854 C859 0.950 . S
H855 C860 0.949 . S
H856 C862 0.950 . S
H857 C863 0.950 . S
H858 C864 0.949 . S
C859 H854 0.950 . S
C859 C861 1.327 . S
C859 C865 1.429 . S
C860 C852 1.574 . S
C860 H855 0.949 . S
C860 C866 1.368 . S
C861 C845 1.349 . S
C861 H853 0.950 . S
C861 C859 1.327 . S
C862 C850 1.349 . S
C862 H856 0.950 . S
C862 C863 1.327 . S
C863 H857 0.950 . S
C863 C862 1.327 . S
C863 C867 1.429 . S
C864 C847 1.574 . S
C864 H858 0.949 . S
C864 C868 1.368 . S
C865 C846 1.429 . S
C865 C859 1.429 . S
C865 C866 1.523 . S
C866 C847 1.368 . S
C866 C860 1.368 . S
C866 C865 1.523 . S
C867 C851 1.429 . S
C867 C863 1.429 . S
C867 C868 1.523 . S
C868 C852 1.368 . S
C868 C864 1.368 . S
C868 C867 1.523 . S
H869 C844 0.950 . S
H870 C846 0.950 . S
H871 C847 0.949 . S
H872 C849 0.950 . S
H873 C851 0.950 . S
C874 C875 1.349 . S
C874 C876 1.327 . S
C874 H899 0.950 . S
C875 C874 1.349 . S
C875 C891 1.349 . S
C876 C874 1.327 . S
C876 C895 1.429 . S
C876 H900 0.950 . S
C877 C894 1.574 . S
C877 C896 1.368 . S
C877 H901 0.949 . S
H878 C882 0.949 . S
C879 C880 1.349 . S
C879 C881 1.327 . S
C879 H902 0.950 . S
C880 C879 1.349 . S
C880 C892 1.349 . S
C881 C879 1.327 . S
C881 C897 1.429 . S
C881 H903 0.950 . S
C882 H878 0.949 . S
C882 C890 1.574 . S
C882 C898 1.368 . S
H883 C891 0.950 . S
H884 C889 0.950 . S
H885 C890 0.949 . S
H886 C892 0.950 . S
H887 C893 0.950 . S
H888 C894 0.949 . S
C889 H884 0.950 . S
C889 C891 1.327 . S
C889 C895 1.429 . S
C890 C882 1.574 . S
C890 H885 0.949 . S
C890 C896 1.368 . S
C891 C875 1.349 . S
C891 H883 0.950 . S
C891 C889 1.327 . S
C892 C880 1.349 . S
C892 H886 0.950 . S
C892 C893 1.327 . S
C893 H887 0.950 . S
C893 C892 1.327 . S
C893 C897 1.429 . S
C894 C877 1.574 . S
C894 H888 0.949 . S
C894 C898 1.368 . S
C895 C876 1.429 . S
C895 C889 1.429 . S
C895 C896 1.523 . S
C896 C877 1.368 . S
C896 C890 1.368 . S
C896 C895 1.523 . S
C897 C881 1.429 . S
C897 C893 1.429 . S
C897 C898 1.523 . S
C898 C882 1.368 . S
C898 C894 1.368 . S
C898 C897 1.523 . S
H899 C874 0.950 . S
H900 C876 0.950 . S
H901 C877 0.949 . S
H902 C879 0.950 . S
H903 C881 0.950 . S
C185 C82 1.614 . S
C190 C112 1.703 . S
C220 C142 1.817 . S
C215 C95 1.686 . S
C250 C152 1.437 . S
C245 C56 1.313 . S
C280 C172 1.285 . S
C275 C69 1.189 . S
C310 C113 1.708 . S
C305 C30 1.570 . S
C335 C43 1.645 . S
C340 C143 1.817 . S
C365 C4 1.304 1_556 S
C370 C153 1.437 . S
C395 C17 1.189 1_655 S
C400 C173 1.288 . S
C430 C105 0.689 . S
C425 C74 0.693 . S
C460 C126 0.296 . S
C455 C87 0.428 . S
C490 C145 0.881 . S
C485 C100 0.875 . S
C515 C61 0.571 . S
C520 C165 0.552 . S
C545 C22 0.693 1_655 S
C550 C106 0.688 . S
C580 C125 0.299 . S
C575 C35 0.435 . S
C610 C146 0.881 . S
C605 C48 0.875 . S
C635 C9 0.572 1_556 S
C640 C166 0.564 . S
C665 C73 1.486 1_556 S
C670 C123 1.546 . S
C695 C86 1.316 . S
C700 C133 1.380 . S
C730 C163 1.776 . S
C725 C99 1.691 . S
C760 C183 1.785 . S
C755 C60 1.706 1_556 S
C785 C21 1.485 1_655 S
C790 C122 1.547 . S
C820 C132 1.380 . S
C815 C34 1.312 . S
C850 C162 1.776 . S
C845 C47 1.688 . S
C875 C8 1.711 . S
C880 C182 1.791 . S
