# Generated by pormake.
# Topology rtl, (3,6)-cn, num edge types: 1
# Building blocks:
#     Node 0, Type 0, BuildingBlock: PAMTOO_clean_linker_0, # of connection points: 3
#     Node 1, Type 0, BuildingBlock: PAMTOO_clean_linker_0, # of connection points: 3
#     Node 2, Type 0, BuildingBlock: PAMTOO_clean_linker_0, # of connection points: 3
#     Node 3, Type 0, BuildingBlock: PAMTOO_clean_linker_0, # of connection points: 3
#     Node 4, Type 1, BuildingBlock: LEVNOQ01_clean_sbu_1, # of connection points: 6
#     Node 5, Type 1, BuildingBlock: LEVNOQ01_clean_sbu_1, # of connection points: 6
#     Edge 6, Type (0, 1), BuildingBlock: XUDNAN_clean_linker_2, # of connection points: 2
#     Edge 7, Type (0, 1), BuildingBlock: XUDNAN_clean_linker_2, # of connection points: 2
#     Edge 8, Type (0, 1), BuildingBlock: XUDNAN_clean_linker_2, # of connection points: 2
#     Edge 9, Type (0, 1), BuildingBlock: XUDNAN_clean_linker_2, # of connection points: 2
#     Edge 10, Type (0, 1), BuildingBlock: XUDNAN_clean_linker_2, # of connection points: 2
#     Edge 11, Type (0, 1), BuildingBlock: XUDNAN_clean_linker_2, # of connection points: 2
#     Edge 12, Type (0, 1), BuildingBlock: XUDNAN_clean_linker_2, # of connection points: 2
#     Edge 13, Type (0, 1), BuildingBlock: XUDNAN_clean_linker_2, # of connection points: 2
#     Edge 14, Type (0, 1), BuildingBlock: XUDNAN_clean_linker_2, # of connection points: 2
#     Edge 15, Type (0, 1), BuildingBlock: XUDNAN_clean_linker_2, # of connection points: 2
#     Edge 16, Type (0, 1), BuildingBlock: XUDNAN_clean_linker_2, # of connection points: 2
#     Edge 17, Type (0, 1), BuildingBlock: XUDNAN_clean_linker_2, # of connection points: 2
# Relax obj value: 0.020
# Max RMSD: 0.115
# Mean RMSD: 0.090
data_MOF--net-rtl--node1-LEVNOQ01_clean_sbu_1--node2-PAMTOO_clean_linker_0--edge1-XUDNAN_clean_linker_2
_symmetry_space_group_name_H-M    P1
_symmetry_Int_Tables_number       1
_symmetry_cell_setting            triclinic
loop_
_symmetry_equiv_pos_as_xyz
'x, y, z'
_cell_length_a     35.345102
_cell_length_b     35.439329
_cell_length_c     22.104209
_cell_angle_alpha  92.056395
_cell_angle_beta   98.166591
_cell_angle_gamma 91.036604
loop_
_atom_site_label
_atom_site_type_symbol
_atom_site_fract_x
_atom_site_fract_y
_atom_site_fract_z
_atom_type_partial_charge
H0 H 0.16442 0.91571 0.10547 0.0
H1 H 0.26306 0.86033 0.19668 0.0
H2 H 0.23595 0.84923 1.00235 0.0
H3 H 0.24612 0.77808 0.08025 0.0
C4 C 0.27194 0.78895 0.11126 0.0
O5 O 0.2796 0.826 0.09885 0.0
H6 H 0.2655 0.78736 0.15898 0.0
C7 C 0.18978 0.89923 0.10373 0.0
C8 C 0.19811 0.88518 0.04663 0.0
C9 C 0.2126 0.88998 0.15863 0.0
C10 C 0.24475 0.86764 0.15541 0.0
C11 C 0.25223 0.85212 0.09954 0.0
C12 C 0.22933 0.86118 0.0453 0.0
H13 H 0.61786 0.67215 0.52075 0.0
H14 H 0.6996 0.7607 0.50111 0.0
H15 H 0.67645 0.73314 0.67972 0.0
H16 H 0.70404 0.81409 0.67743 0.0
C17 C 0.7132 0.8113 0.63143 0.0
O18 O 0.71948 0.77368 0.61846 0.0
H19 H 0.68999 0.82218 0.59752 0.0
C20 C 0.63718 0.69473 0.54078 0.0
C21 C 0.64318 0.70081 0.60477 0.0
C22 C 0.65646 0.71653 0.50232 0.0
C23 C 0.68391 0.74366 0.52928 0.0
C24 C 0.69143 0.74907 0.59312 0.0
C25 C 0.67089 0.72797 0.63065 0.0
H26 H 0.85833 0.12709 0.9971 0.0
H27 H 0.76457 0.18882 0.90439 0.0
H28 H 0.7847 0.19149 0.0994 0.0
H29 H 0.69963 0.19996 0.04076 0.0
C30 C 0.70648 0.21213 0.99785 0.0
O31 O 0.74531 0.2194 1.00287 0.0
H32 H 0.69741 0.19159 0.95896 0.0
C33 C 0.83332 0.14416 0.99834 0.0
C34 C 0.82365 0.15677 0.05537 0.0
C35 C 0.81244 0.15569 0.94313 0.0
C36 C 0.78121 0.17939 0.94584 0.0
C37 C 0.77168 0.1924 1.00183 0.0
C38 C 0.79245 0.18086 0.05638 0.0
H39 H 0.40271 0.37424 0.52711 0.0
H40 H 0.3367 0.27845 0.57408 0.0
H41 H 0.34355 0.29872 0.38661 0.0
H42 H 0.27211 0.26683 0.38874 0.0
C43 C 0.27462 0.26228 0.43866 0.0
O44 O 0.31253 0.25647 0.46115 0.0
H45 H 0.26423 0.28827 0.46033 0.0
C46 C 0.38552 0.34886 0.51405 0.0
C47 C 0.37517 0.33907 0.45146 0.0
C48 C 0.37192 0.32733 0.55943 0.0
C49 C 0.34766 0.2957 0.54073 0.0
C50 C 0.33735 0.28574 0.47866 0.0
C51 C 0.3517 0.30691 0.43447 0.0
O52 O 0.9846 0.10434 0.63184 0.0
Mg53 Mg 0.03488 0.07453 0.63475 0.0
O54 O 0.96394 0.04673 0.60573 0.0
Mg55 Mg 0.01084 0.02012 0.55029 0.0
O56 O 0.059 0.06967 0.55578 0.0
O57 O 0.07821 0.1114 0.63353 0.0
O58 O 0.05772 0.99379 0.49481 0.0
O59 O 0.98025 0.05046 0.46471 0.0
Mg60 Mg 0.98723 0.96523 0.4657 0.0
O61 O 0.96262 0.97071 0.54429 0.0
O62 O 0.03798 0.93588 0.46899 0.0
O63 O 0.97154 0.00372 0.39574 0.0
O64 O 0.9439 0.92831 0.46729 0.0
C65 C 0.05265 0.00154 0.69078 0.0
C66 C 0.95789 0.08001 0.62542 0.0
C67 C 0.08146 0.09767 0.57978 0.0
C68 C 0.06428 0.96065 0.47514 0.0
C69 C 0.96906 0.03842 0.40984 0.0
C70 C 0.94012 0.94271 0.5204 0.0
O71 O 0.05044 0.03627 0.70476 0.0
O72 O 0.04138 0.98951 0.63592 0.0
O73 O 0.60422 0.5537 0.128 0.0
Mg74 Mg 0.57311 0.50312 0.11515 0.0
O75 O 0.54595 0.57202 0.10015 0.0
Mg76 Mg 0.51679 0.52226 0.03056 0.0
O77 O 0.56602 0.47659 0.02961 0.0
O78 O 0.61126 0.46316 0.10761 0.0
O79 O 0.49041 0.47191 0.95875 0.0
O80 O 0.54131 0.55261 0.95188 0.0
Mg81 Mg 0.45925 0.52954 0.9665 0.0
O82 O 0.46759 0.56907 0.03569 0.0
O83 O 0.43163 0.47685 0.97439 0.0
O84 O 0.48823 0.53924 0.89018 0.0
O85 O 0.4179 0.56781 0.96021 0.0
C86 C 0.5017 0.48205 0.15961 0.0
C87 C 0.58025 0.5795 0.12517 0.0
C88 C 0.59524 0.45688 0.05201 0.0
C89 C 0.45653 0.45794 0.95231 0.0
C90 C 0.52222 0.55242 0.89837 0.0
C91 C 0.43602 0.58351 0.0096 0.0
O92 O 0.53703 0.48597 0.17913 0.0
O93 O 0.48897 0.49208 0.10587 0.0
H94 H 0.24607 0.2475 0.54415 0.0
H95 H 0.24673 0.20316 0.35923 0.0
H96 H 0.19986 0.15292 0.37576 0.0
H97 H 0.23471 0.15594 0.61479 0.0
H98 H 0.20391 0.17543 0.66571 0.0
H99 H 0.24026 0.20485 0.64047 0.0
H100 H 0.18864 0.25241 0.60009 0.0
H101 H 0.15215 0.22303 0.62469 0.0
H102 H 0.1481 0.23608 0.546 0.0
H103 H 0.148 0.11046 0.41136 0.0
H104 H 0.0983 0.07984 0.46332 0.0
H105 H 0.13284 0.15361 0.6235 0.0
C106 C 0.23681 0.22673 0.50764 0.0
C107 C 0.24971 0.22914 0.45044 0.0
C108 C 0.237 0.20169 0.4034 0.0
C109 C 0.21041 0.17313 0.4124 0.0
C110 C 0.19718 0.17226 0.46889 0.0
C111 C 0.21032 0.19822 0.51583 0.0
C112 C 0.19042 0.19269 0.57107 0.0
C113 C 0.21903 0.18155 0.62627 0.0
C114 C 0.16853 0.22815 0.58631 0.0
C115 C 0.16339 0.16017 0.5476 0.0
C116 C 0.16772 0.14837 0.48884 0.0
C117 C 0.14463 0.11936 0.45761 0.0
C118 C 0.11641 0.10217 0.48734 0.0
C119 C 0.11148 0.11429 0.54744 0.0
C120 C 0.13565 0.14349 0.57758 0.0
H121 H 0.28197 0.74314 0.01281 0.0
H122 H 0.33674 0.77973 0.19366 0.0
H123 H 0.38837 0.73395 0.18588 0.0
H124 H 0.29721 0.64736 0.02888 0.0
H125 H 0.3056 0.63787 0.9513 0.0
H126 H 0.27615 0.67654 0.96848 0.0
H127 H 0.3195 0.72295 0.91958 0.0
H128 H 0.34895 0.68429 0.90173 0.0
H129 H 0.37021 0.72502 0.94579 0.0
H130 H 0.43088 0.67929 0.16061 0.0
H131 H 0.46027 0.62252 0.11948 0.0
H132 H 0.37575 0.62291 0.95649 0.0
C133 C 0.30526 0.74196 0.05022 0.0
C134 C 0.30551 0.76461 0.10393 0.0
C135 C 0.33625 0.76238 0.1522 0.0
C136 C 0.36558 0.73653 0.14813 0.0
C137 C 0.36381 0.71352 0.09519 0.0
C138 C 0.33453 0.71635 0.04692 0.0
C139 C 0.33761 0.6871 0.99662 0.0
C140 C 0.30205 0.66066 0.98574 0.0
C141 C 0.34449 0.70597 0.93744 0.0
C142 C 0.37257 0.66667 0.02462 0.0
C143 C 0.3877 0.68237 0.08116 0.0
C144 C 0.41941 0.66702 0.1161 0.0
C145 C 0.43586 0.63475 0.09252 0.0
C146 C 0.42026 0.61814 0.03492 0.0
C147 C 0.38844 0.63473 1.00075 0.0
H148 H 0.75066 0.82017 0.5328 0.0
H149 H 0.75643 0.85437 0.72403 0.0
H150 H 0.815 0.89289 0.71787 0.0
H151 H 0.85144 0.81117 0.53258 0.0
H152 H 0.85036 0.829 0.45702 0.0
H153 H 0.80888 0.80505 0.47728 0.0
H154 H 0.76787 0.86314 0.44679 0.0
H155 H 0.80927 0.88731 0.42656 0.0
H156 H 0.78236 0.90894 0.48138 0.0
H157 H 0.87349 0.9289 0.6885 0.0
H158 H 0.92667 0.95592 0.63997 0.0
H159 H 0.88163 0.89574 0.46973 0.0
C160 C 0.76437 0.83574 0.57333 0.0
C161 C 0.7492 0.83436 0.62883 0.0
C162 C 0.76773 0.85511 0.68104 0.0
C163 C 0.80093 0.87706 0.67792 0.0
C164 C 0.81522 0.87787 0.62227 0.0
C165 C 0.79748 0.85756 0.57104 0.0
C166 C 0.81843 0.86263 0.51681 0.0
C167 C 0.83316 0.82471 0.49466 0.0
C168 C 0.79296 0.88164 0.46484 0.0
C169 C 0.85095 0.88868 0.54543 0.0
C170 C 0.84867 0.89758 0.6061 0.0
C171 C 0.8756 0.92188 0.64106 0.0
C172 C 0.90568 0.93714 0.6132 0.0
C173 C 0.90865 0.92771 0.55126 0.0
C174 C 0.88066 0.90327 0.51739 0.0
H175 H 0.7272 0.28237 0.04951 0.0
H176 H 0.63733 0.22339 0.9263 0.0
H177 H 0.6017 0.283 0.91385 0.0
H178 H 0.66907 0.33832 0.12634 0.0
H179 H 0.70072 0.37922 0.13448 0.0
H180 H 0.71982 0.33287 0.12787 0.0
H181 H 0.75161 0.35338 0.03505 0.0
H182 H 0.73216 0.39981 0.04106 0.0
H183 H 0.72262 0.37245 0.97001 0.0
H184 H 0.57357 0.34895 0.92325 0.0
H185 H 0.55465 0.41212 0.95914 0.0
H186 H 0.66526 0.4267 0.0715 0.0
C187 C 0.70045 0.28215 0.01874 0.0
C188 C 0.68542 0.24855 0.98762 0.0
C189 C 0.64965 0.2491 0.94955 0.0
C190 C 0.62935 0.28282 0.94205 0.0
C191 C 0.64537 0.31569 0.97274 0.0
C192 C 0.68023 0.31545 0.0102 0.0
C193 C 0.69036 0.35354 0.0416 0.0
C194 C 0.69524 0.3508 0.11168 0.0
C195 C 0.72632 0.37081 0.02065 0.0
C196 C 0.65515 0.37503 0.01793 0.0
C197 C 0.62959 0.35314 0.97757 0.0
C198 C 0.59369 0.3665 0.95402 0.0
C199 C 0.58323 0.4025 0.97425 0.0
C200 C 0.60856 0.42427 0.01791 0.0
C201 C 0.64538 0.41079 0.03778 0.0
H202 H 0.17912 0.95543 0.19606 0.0
H203 H 0.2173 0.84564 0.25801 0.0
H204 H 0.19427 0.85868 0.35582 0.0
H205 H 0.19635 0.0067 0.34989 0.0
H206 H 0.15332 0.03328 0.33391 0.0
H207 H 0.17923 0.01906 0.27254 0.0
H208 H 0.11804 0.9859 0.21445 0.0
H209 H 0.09199 1.00034 0.27517 0.0
H210 H 0.09313 0.95105 0.25247 0.0
H211 H 0.15832 0.8775 0.43847 0.0
H212 H 0.10968 0.90095 0.4995 0.0
H213 H 0.09445 0.99915 0.38827 0.0
C214 C 0.18326 0.93443 0.23063 0.0
C215 C 0.20087 0.8998 0.21935 0.0
C216 C 0.2052 0.87293 0.26578 0.0
C217 C 0.19205 0.87999 0.32172 0.0
C218 C 0.17455 0.91411 0.33109 0.0
C219 C 0.17011 0.941 0.28701 0.0
C220 C 0.14633 0.97337 0.30623 0.0
C221 C 0.17024 0.01029 0.31624 0.0
C222 C 0.11024 0.9779 0.25931 0.0
C223 C 0.13653 0.9594 0.36636 0.0
C224 C 0.15377 0.92546 0.38027 0.0
C225 C 0.14553 0.90459 0.42924 0.0
C226 C 0.11798 0.91808 0.46371 0.0
C227 C 0.09939 0.95223 0.44942 0.0
C228 C 0.1096 0.97375 0.40146 0.0
H229 H 0.66436 0.67345 0.72136 0.0
H230 H 0.56794 0.67924 0.57618 0.0
H231 H 0.52974 0.63889 0.63314 0.0
H232 H 0.64848 0.57802 0.76311 0.0
H233 H 0.66009 0.58754 0.84435 0.0
H234 H 0.68155 0.61599 0.7918 0.0
H235 H 0.65622 0.67655 0.83973 0.0
H236 H 0.63506 0.64833 0.89287 0.0
H237 H 0.6059 0.67975 0.84474 0.0
H238 H 0.50244 0.59646 0.70119 0.0
H239 H 0.48318 0.56087 0.785 0.0
H240 H 0.59387 0.58577 0.89379 0.0
C241 C 0.63513 0.66655 0.70175 0.0
C242 C 0.61972 0.67883 0.64308 0.0
C243 C 0.58114 0.66917 0.61966 0.0
C244 C 0.55898 0.64639 0.6519 0.0
C245 C 0.5753 0.634 0.70842 0.0
C246 C 0.61211 0.64424 0.73404 0.0
C247 C 0.62157 0.62821 0.79725 0.0
C248 C 0.6549 0.60081 0.79921 0.0
C249 C 0.63019 0.66012 0.84657 0.0
C250 C 0.58426 0.60738 0.80266 0.0
C251 C 0.55839 0.61081 0.75021 0.0
C252 C 0.52224 0.59381 0.74282 0.0
C253 C 0.51167 0.57348 0.79091 0.0
C254 C 0.53686 0.57059 0.8465 0.0
C255 C 0.57394 0.58745 0.85205 0.0
H256 H 0.85413 0.08781 0.08572 0.0
H257 H 0.84695 0.20278 0.15702 0.0
H258 H 0.88508 0.18588 0.25423 0.0
H259 H 0.8459 0.04226 0.22429 0.0
H260 H 0.87937 0.00595 0.21207 0.0
H261 H 0.85236 0.02745 0.1476 0.0
H262 H 0.91528 0.0456 0.10707 0.0
H263 H 0.94251 0.02417 0.1715 0.0
H264 H 0.95182 0.07279 0.15602 0.0
H265 H 0.92306 0.15581 0.34531 0.0
H266 H 0.95674 0.11466 0.42259 0.0
H267 H 0.93988 0.01998 0.29061 0.0
C268 C 0.8609 0.10956 0.1215 0.0
C269 C 0.84728 0.14659 0.11365 0.0
C270 C 0.85645 0.17404 0.16212 0.0
C271 C 0.87838 0.1648 0.21742 0.0
C272 C 0.89116 0.128 0.22371 0.0
C273 C 0.88278 0.10083 0.17702 0.0
C274 C 0.89922 0.06315 0.19585 0.0
C275 C 0.86731 0.03293 0.19491 0.0
C276 C 0.92898 0.05071 0.15519 0.0
C277 C 0.91787 0.07328 0.26056 0.0
C278 C 0.91308 0.11084 0.2758 0.0
C279 C 0.92714 0.12638 0.33373 0.0
C280 C 0.94628 0.10279 0.37735 0.0
C281 C 0.95113 0.06407 0.36284 0.0
C282 C 0.93692 0.04946 0.30332 0.0
H283 H 0.43912 0.36028 0.62074 0.0
H284 H 0.32565 0.32201 0.64907 0.0
H285 H 0.33994 0.34229 0.75743 0.0
H286 H 0.4898 0.33834 0.7728 0.0
H287 H 0.51933 0.38067 0.77855 0.0
H288 H 0.50268 0.35851 0.70461 0.0
H289 H 0.47247 0.42117 0.66736 0.0
H290 H 0.48942 0.44356 0.74077 0.0
H291 H 0.43929 0.44411 0.71069 0.0
H292 H 0.36334 0.372 0.85987 0.0
H293 H 0.39258 0.41327 0.94688 0.0
H294 H 0.49041 0.43426 0.8535 0.0
C295 C 0.41727 0.3559 0.64964 0.0
C296 C 0.38137 0.33883 0.62583 0.0
C297 C 0.35378 0.33385 0.66587 0.0
C298 C 0.36156 0.34546 0.72776 0.0
C299 C 0.39706 0.36221 0.74947 0.0
C300 C 0.42444 0.36765 0.71164 0.0
C301 C 0.45893 0.38951 0.74534 0.0
C302 C 0.49481 0.3653 0.75063 0.0
C303 C 0.46538 0.42679 0.7142 0.0
C304 C 0.44608 0.39651 0.80738 0.0
C305 C 0.41056 0.37991 0.80897 0.0
C306 C 0.39139 0.38467 0.85952 0.0
C307 C 0.40826 0.4081 0.90882 0.0
C308 C 0.44394 0.42662 0.90733 0.0
C309 C 0.46359 0.41972 0.85668 0.0
H310 H 0.58755 0.69711 0.43196 0.0
H311 H 0.70746 0.71838 0.41891 0.0
H312 H 0.69572 0.6984 0.30989 0.0
H313 H 0.58095 0.61281 0.35215 0.0
H314 H 0.53266 0.61769 0.3146 0.0
H315 H 0.54814 0.64229 0.38652 0.0
H316 H 0.52819 0.70566 0.33775 0.0
H317 H 0.51291 0.68112 0.26524 0.0
H318 H 0.5474 0.71961 0.2704 0.0
H319 H 0.67458 0.66528 0.20973 0.0
H320 H 0.64682 0.6189 0.12905 0.0
H321 H 0.54079 0.61679 0.20592 0.0
C322 C 0.61132 0.6982 0.40609 0.0
C323 C 0.64852 0.70946 0.43453 0.0
C324 C 0.67858 0.71063 0.39844 0.0
C325 C 0.67216 0.69924 0.33626 0.0
C326 C 0.63549 0.68694 0.31045 0.0
C327 C 0.6055 0.68645 0.34423 0.0
C328 C 0.57023 0.66699 0.30841 0.0
C329 C 0.55727 0.63293 0.34243 0.0
C330 C 0.53776 0.69503 0.29463 0.0
C331 C 0.5857 0.65463 0.25046 0.0
C332 C 0.62312 0.66738 0.25197 0.0
C333 C 0.64504 0.65601 0.20726 0.0
C334 C 0.62902 0.62972 0.16149 0.0
C335 C 0.59145 0.615 0.16065 0.0
C336 C 0.56902 0.62876 0.20424 0.0
H337 H 0.84366 0.08921 0.90489 0.0
H338 H 0.81146 0.20121 0.84539 0.0
H339 H 0.83365 0.18726 0.74722 0.0
H340 H 0.93003 0.08998 0.84771 0.0
H341 H 0.92871 0.04062 0.82459 0.0
H342 H 0.9037 0.05637 0.88584 0.0
H343 H 0.84094 0.02593 0.8282 0.0
H344 H 0.86581 0.01053 0.76622 0.0
H345 H 0.82408 0.03909 0.75118 0.0
H346 H 0.86724 0.1664 0.66302 0.0
H347 H 0.91437 0.14087 0.601 0.0
H348 H 0.92618 0.04222 0.71161 0.0
C349 C 0.84076 0.1106 0.87089 0.0
C350 C 0.82485 0.14603 0.88283 0.0
C351 C 0.82213 0.17334 0.83709 0.0
C352 C 0.83481 0.16575 0.78093 0.0
C353 C 0.85036 0.13074 0.77074 0.0
C354 C 0.85361 0.10358 0.81441 0.0
C355 C 0.8757 0.07012 0.79447 0.0
C356 C 0.91166 0.06394 0.84089 0.0
C357 C 0.85009 0.03429 0.78442 0.0
C358 C 0.88586 0.08364 0.73428 0.0
C359 C 0.87016 0.11837 0.72099 0.0
C360 C 0.87889 0.13879 0.67187 0.0
C361 C 0.90554 0.12409 0.63679 0.0
C362 C 0.92287 0.08927 0.65074 0.0
C363 C 0.91198 0.06816 0.69869 0.0
H364 H 0.44646 0.37035 0.44469 0.0
H365 H 0.33029 0.36251 0.34944 0.0
H366 H 0.34944 0.40043 0.26692 0.0
H367 H 0.46691 0.46711 0.40395 0.0
H368 H 0.51569 0.45756 0.39455 0.0
H369 H 0.49251 0.43129 0.44778 0.0
H370 H 0.5079 0.36862 0.39335 0.0
H371 H 0.53106 0.39468 0.33996 0.0
H372 H 0.49267 0.36154 0.3123 0.0
H373 H 0.38141 0.43712 0.19283 0.0
H374 H 0.42435 0.46951 0.13154 0.0
H375 H 0.51999 0.45391 0.27444 0.0
C376 C 0.425 0.37705 0.40683 0.0
C377 C 0.3869 0.3633 0.40339 0.0
C378 C 0.35975 0.37229 0.35268 0.0
C379 C 0.37028 0.39403 0.30576 0.0
C380 C 0.40811 0.40673 0.3101 0.0
C381 C 0.43509 0.39865 0.3593 0.0
C382 C 0.47413 0.41465 0.35154 0.0
C383 C 0.48812 0.44442 0.40248 0.0
C384 C 0.50314 0.38298 0.34913 0.0
C385 C 0.46491 0.43258 0.29003 0.0
C386 C 0.42662 0.42788 0.26715 0.0
C387 C 0.41143 0.44118 0.21042 0.0
C388 C 0.43609 0.45956 0.17591 0.0
C389 C 0.47558 0.46441 0.19808 0.0
C390 C 0.48995 0.4509 0.25622 0.0
H391 H 0.16714 0.95359 0.01525 0.0
H392 H 0.17346 0.83792 0.94667 0.0
H393 H 0.13493 0.85411 0.84932 0.0
H394 H 0.06909 0.96867 0.94515 0.0
H395 H 0.07883 0.01706 0.92879 0.0
H396 H 0.10584 0.99586 0.99365 0.0
H397 H 0.1689 0.01313 0.95278 0.0
H398 H 0.1421 0.03432 0.88784 0.0
H399 H 0.17528 0.99761 0.8764 0.0
H400 H 0.09725 0.88395 0.75721 0.0
H401 H 0.06422 0.92501 0.67901 0.0
H402 H 0.08177 0.02032 0.80971 0.0
C403 C 0.15998 0.93149 0.98016 0.0
C404 C 0.17354 0.8945 0.98873 0.0
C405 C 0.16397 0.86662 0.94103 0.0
C406 C 0.14181 0.87547 0.88566 0.0
C407 C 0.12922 0.91229 0.8786 0.0
C408 C 0.13788 0.93981 0.9247 0.0
C409 C 0.12178 0.97747 0.90517 0.0
C410 C 0.09212 0.99052 0.94559 0.0
C411 C 0.15393 0.00738 0.90556 0.0
C412 C 0.10308 0.96699 0.84066 0.0
C413 C 0.10747 0.92926 0.82611 0.0
C414 C 0.09343 0.9135 0.7683 0.0
C415 C 0.07469 0.93703 0.72415 0.0
C416 C 0.07023 0.97589 0.73806 0.0
C417 C 0.08442 0.99072 0.79744 0.0
loop_
_geom_bond_atom_site_label_1
_geom_bond_atom_site_label_2
_geom_bond_distance
_geom_bond_site_symmetry_2
_ccdc_geom_bond_type
H0 C7 0.929 . S
H1 C10 0.930 . S
H2 C12 0.929 1_556 S
H3 C4 0.969 . S
C4 H3 0.969 . S
C4 O5 1.550 . S
C4 H6 0.973 . S
O5 C4 1.550 . S
O5 C11 1.412 . S
H6 C4 0.973 . S
C7 H0 0.929 . S
C7 C8 1.400 . S
C7 C9 1.364 . S
C8 C7 1.400 . S
C8 C12 1.377 . S
C9 C7 1.364 . S
C9 C10 1.374 . S
C10 H1 0.930 . S
C10 C9 1.374 . S
C10 C11 1.383 . S
C11 O5 1.412 . S
C11 C10 1.383 . S
C11 C12 1.394 . S
C12 H2 0.929 1_554 S
C12 C8 1.377 . S
C12 C11 1.394 . S
H13 C20 0.929 . S
H14 C23 0.930 . S
H15 C25 0.929 . S
H16 C17 0.969 . S
C17 H16 0.969 . S
C17 O18 1.550 . S
C17 H19 0.973 . S
O18 C17 1.550 . S
O18 C24 1.412 . S
H19 C17 0.973 . S
C20 H13 0.929 . S
C20 C21 1.400 . S
C20 C22 1.364 . S
C21 C20 1.400 . S
C21 C25 1.377 . S
C22 C20 1.364 . S
C22 C23 1.374 . S
C23 H14 0.930 . S
C23 C22 1.374 . S
C23 C24 1.383 . S
C24 O18 1.412 . S
C24 C23 1.383 . S
C24 C25 1.394 . S
C25 H15 0.929 . S
C25 C21 1.377 . S
C25 C24 1.394 . S
H26 C33 0.929 . S
H27 C36 0.930 . S
H28 C38 0.929 . S
H29 C30 0.969 . S
C30 H29 0.969 . S
C30 O31 1.550 1_556 S
C30 H32 0.973 . S
O31 C30 1.550 1_554 S
O31 C37 1.412 . S
H32 C30 0.973 . S
C33 H26 0.929 . S
C33 C34 1.400 . S
C33 C35 1.364 1_554 S
C34 C33 1.400 . S
C34 C38 1.377 . S
C35 C33 1.364 1_556 S
C35 C36 1.374 . S
C36 H27 0.930 . S
C36 C35 1.374 . S
C36 C37 1.383 1_556 S
C37 O31 1.412 . S
C37 C36 1.383 1_554 S
C37 C38 1.394 . S
C38 H28 0.929 . S
C38 C34 1.377 . S
C38 C37 1.394 . S
H39 C46 0.929 . S
H40 C49 0.930 . S
H41 C51 0.929 . S
H42 C43 0.969 . S
C43 H42 0.969 . S
C43 O44 1.550 . S
C43 H45 0.973 . S
O44 C43 1.550 . S
O44 C50 1.412 . S
H45 C43 0.973 . S
C46 H39 0.929 . S
C46 C47 1.400 . S
C46 C48 1.364 . S
C47 C46 1.400 . S
C47 C51 1.377 . S
C48 C46 1.364 . S
C48 C49 1.374 . S
C49 H40 0.930 . S
C49 C48 1.374 . S
C49 C50 1.383 . S
C50 O44 1.412 . S
C50 C49 1.383 . S
C50 C51 1.394 . S
C51 H41 0.929 . S
C51 C47 1.377 . S
C51 C50 1.394 . S
O52 Mg53 1.990 . S
O52 C66 1.253 1_455 S
Mg53 O52 1.990 . S
Mg53 O56 2.180 . S
Mg53 O57 2.117 . S
Mg53 O71 2.030 . S
O54 Mg55 2.072 1_655 S
O54 C66 1.260 . S
Mg55 O54 2.072 1_455 S
Mg55 O56 2.099 . S
Mg55 O58 2.079 1_545 S
Mg55 O59 2.072 1_455 S
Mg55 O61 2.099 1_445 S
Mg55 O72 2.079 1_545 S
O56 Mg53 2.180 . S
O56 Mg55 2.099 . S
O56 C67 1.279 . S
O57 Mg53 2.117 . S
O57 C67 1.250 . S
O58 Mg55 2.079 1_565 S
O58 C68 1.264 . S
O59 Mg55 2.072 1_655 S
O59 C69 1.260 . S
Mg60 O61 2.180 . S
Mg60 O62 2.030 1_655 S
Mg60 O63 1.990 1_565 S
Mg60 O64 2.117 . S
O61 Mg55 2.099 1_665 S
O61 Mg60 2.180 . S
O61 C70 1.279 . S
O62 Mg60 2.030 1_455 S
O62 C68 1.248 . S
O63 Mg60 1.990 1_545 S
O63 C69 1.253 . S
O64 Mg60 2.117 . S
O64 C70 1.250 . S
C65 O71 1.248 1_565 S
C65 O72 1.264 . S
C66 O52 1.253 1_655 S
C66 O54 1.260 . S
C67 O56 1.279 . S
C67 O57 1.250 . S
C68 O58 1.264 . S
C68 O62 1.248 . S
C69 O59 1.260 . S
C69 O63 1.253 . S
C70 O61 1.279 . S
C70 O64 1.250 . S
O71 Mg53 2.030 . S
O71 C65 1.248 1_545 S
O72 Mg55 2.079 1_565 S
O72 C65 1.264 . S
O73 Mg74 1.990 . S
O73 C87 1.253 . S
Mg74 O73 1.990 . S
Mg74 O77 2.180 . S
Mg74 O78 2.117 . S
Mg74 O92 2.030 . S
O75 Mg76 2.072 . S
O75 C87 1.260 . S
Mg76 O75 2.072 . S
Mg76 O77 2.099 . S
Mg76 O79 2.079 1_554 S
Mg76 O80 2.072 1_554 S
Mg76 O82 2.099 . S
Mg76 O93 2.079 . S
O77 Mg74 2.180 . S
O77 Mg76 2.099 . S
O77 C88 1.279 . S
O78 Mg74 2.117 . S
O78 C88 1.250 . S
O79 Mg76 2.079 1_556 S
O79 C89 1.264 . S
O80 Mg76 2.072 1_556 S
O80 C90 1.260 . S
Mg81 O82 2.180 1_556 S
Mg81 O83 2.030 . S
Mg81 O84 1.990 . S
Mg81 O85 2.117 . S
O82 Mg76 2.099 . S
O82 Mg81 2.180 1_554 S
O82 C91 1.279 . S
O83 Mg81 2.030 . S
O83 C89 1.248 . S
O84 Mg81 1.990 . S
O84 C90 1.253 . S
O85 Mg81 2.117 . S
O85 C91 1.250 1_556 S
C86 O92 1.248 . S
C86 O93 1.264 . S
C87 O73 1.253 . S
C87 O75 1.260 . S
C88 O77 1.279 . S
C88 O78 1.250 . S
C89 O79 1.264 . S
C89 O83 1.248 . S
C90 O80 1.260 . S
C90 O84 1.253 . S
C91 O82 1.279 . S
C91 O85 1.250 1_554 S
O92 Mg74 2.030 . S
O92 C86 1.248 . S
O93 Mg76 2.079 . S
O93 C86 1.264 . S
H94 C106 0.930 . S
H95 C108 0.930 . S
H96 C109 0.930 . S
H97 C113 0.959 . S
H98 C113 0.959 . S
H99 C113 0.961 . S
H100 C114 0.960 . S
H101 C114 0.961 . S
H102 C114 0.959 . S
H103 C117 0.929 . S
H104 C118 0.931 . S
H105 C120 0.930 . S
C106 H94 0.930 . S
C106 C107 1.399 . S
C106 C111 1.399 . S
C107 C106 1.399 . S
C107 C108 1.376 . S
C108 H95 0.930 . S
C108 C107 1.376 . S
C108 C109 1.388 . S
C109 H96 0.930 . S
C109 C108 1.388 . S
C109 C110 1.390 . S
C110 C109 1.390 . S
C110 C111 1.394 . S
C110 C116 1.465 . S
C111 C106 1.399 . S
C111 C110 1.394 . S
C111 C112 1.516 . S
C112 C111 1.516 . S
C112 C113 1.502 . S
C112 C114 1.561 . S
C112 C115 1.526 . S
C113 H97 0.959 . S
C113 H98 0.959 . S
C113 H99 0.961 . S
C113 C112 1.502 . S
C114 H100 0.960 . S
C114 H101 0.961 . S
C114 H102 0.959 . S
C114 C112 1.561 . S
C115 C112 1.526 . S
C115 C116 1.396 . S
C115 C120 1.390 . S
C116 C110 1.465 . S
C116 C115 1.396 . S
C116 C117 1.399 . S
C117 H103 0.929 . S
C117 C116 1.399 . S
C117 C118 1.385 . S
C118 H104 0.931 . S
C118 C117 1.385 . S
C118 C119 1.389 . S
C119 C118 1.389 . S
C119 C120 1.387 . S
C120 H105 0.930 . S
C120 C115 1.390 . S
C120 C119 1.387 . S
H121 C133 0.930 . S
H122 C135 0.930 . S
H123 C136 0.930 . S
H124 C140 0.959 1_554 S
H125 C140 0.959 . S
H126 C140 0.961 . S
H127 C141 0.960 . S
H128 C141 0.961 . S
H129 C141 0.959 . S
H130 C144 0.929 . S
H131 C145 0.931 . S
H132 C147 0.930 1_556 S
C133 H121 0.930 . S
C133 C134 1.399 . S
C133 C138 1.399 . S
C134 C133 1.399 . S
C134 C135 1.376 . S
C135 H122 0.930 . S
C135 C134 1.376 . S
C135 C136 1.388 . S
C136 H123 0.930 . S
C136 C135 1.388 . S
C136 C137 1.390 . S
C137 C136 1.390 . S
C137 C138 1.394 . S
C137 C143 1.465 . S
C138 C133 1.399 . S
C138 C137 1.394 . S
C138 C139 1.516 . S
C139 C138 1.516 . S
C139 C140 1.502 1_554 S
C139 C141 1.561 1_554 S
C139 C142 1.526 . S
C140 H124 0.959 1_556 S
C140 H125 0.959 . S
C140 H126 0.961 . S
C140 C139 1.502 1_556 S
C141 H127 0.960 . S
C141 H128 0.961 . S
C141 H129 0.959 . S
C141 C139 1.561 1_556 S
C142 C139 1.526 . S
C142 C143 1.396 . S
C142 C147 1.390 . S
C143 C137 1.465 . S
C143 C142 1.396 . S
C143 C144 1.399 . S
C144 H130 0.929 . S
C144 C143 1.399 . S
C144 C145 1.385 . S
C145 H131 0.931 . S
C145 C144 1.385 . S
C145 C146 1.389 . S
C146 C145 1.389 . S
C146 C147 1.387 . S
C147 H132 0.930 1_554 S
C147 C142 1.390 . S
C147 C146 1.387 . S
H148 C160 0.930 . S
H149 C162 0.930 . S
H150 C163 0.930 . S
H151 C167 0.959 . S
H152 C167 0.959 . S
H153 C167 0.961 . S
H154 C168 0.960 . S
H155 C168 0.961 . S
H156 C168 0.959 . S
H157 C171 0.929 . S
H158 C172 0.931 . S
H159 C174 0.930 . S
C160 H148 0.930 . S
C160 C161 1.399 . S
C160 C165 1.399 . S
C161 C160 1.399 . S
C161 C162 1.376 . S
C162 H149 0.930 . S
C162 C161 1.376 . S
C162 C163 1.388 . S
C163 H150 0.930 . S
C163 C162 1.388 . S
C163 C164 1.390 . S
C164 C163 1.390 . S
C164 C165 1.394 . S
C164 C170 1.465 . S
C165 C160 1.399 . S
C165 C164 1.394 . S
C165 C166 1.516 . S
C166 C165 1.516 . S
C166 C167 1.502 . S
C166 C168 1.561 . S
C166 C169 1.526 . S
C167 H151 0.959 . S
C167 H152 0.959 . S
C167 H153 0.961 . S
C167 C166 1.502 . S
C168 H154 0.960 . S
C168 H155 0.961 . S
C168 H156 0.959 . S
C168 C166 1.561 . S
C169 C166 1.526 . S
C169 C170 1.396 . S
C169 C174 1.390 . S
C170 C164 1.465 . S
C170 C169 1.396 . S
C170 C171 1.399 . S
C171 H157 0.929 . S
C171 C170 1.399 . S
C171 C172 1.385 . S
C172 H158 0.931 . S
C172 C171 1.385 . S
C172 C173 1.389 . S
C173 C172 1.389 . S
C173 C174 1.387 . S
C174 H159 0.930 . S
C174 C169 1.390 . S
C174 C173 1.387 . S
H175 C187 0.930 . S
H176 C189 0.930 . S
H177 C190 0.930 . S
H178 C194 0.959 . S
H179 C194 0.959 . S
H180 C194 0.961 . S
H181 C195 0.960 . S
H182 C195 0.961 . S
H183 C195 0.959 . S
H184 C198 0.929 . S
H185 C199 0.931 . S
H186 C201 0.930 . S
C187 H175 0.930 . S
C187 C188 1.399 . S
C187 C192 1.399 . S
C188 C187 1.399 . S
C188 C189 1.376 1_556 S
C189 H176 0.930 . S
C189 C188 1.376 1_554 S
C189 C190 1.388 . S
C190 H177 0.930 . S
C190 C189 1.388 . S
C190 C191 1.390 . S
C191 C190 1.390 . S
C191 C192 1.394 1_554 S
C191 C197 1.465 . S
C192 C187 1.399 . S
C192 C191 1.394 1_556 S
C192 C193 1.516 . S
C193 C192 1.516 . S
C193 C194 1.502 . S
C193 C195 1.561 . S
C193 C196 1.526 . S
C194 H178 0.959 . S
C194 H179 0.959 . S
C194 H180 0.961 . S
C194 C193 1.502 . S
C195 H181 0.960 . S
C195 H182 0.961 . S
C195 H183 0.959 . S
C195 C193 1.561 . S
C196 C193 1.526 . S
C196 C197 1.396 1_556 S
C196 C201 1.390 . S
C197 C191 1.465 . S
C197 C196 1.396 1_554 S
C197 C198 1.399 . S
C198 H184 0.929 . S
C198 C197 1.399 . S
C198 C199 1.385 . S
C199 H185 0.931 . S
C199 C198 1.385 . S
C199 C200 1.389 . S
C200 C199 1.389 . S
C200 C201 1.387 1_554 S
C201 H186 0.930 . S
C201 C196 1.390 . S
C201 C200 1.387 1_556 S
H202 C214 0.930 . S
H203 C216 0.930 . S
H204 C217 0.930 . S
H205 C221 0.959 . S
H206 C221 0.959 1_545 S
H207 C221 0.961 . S
H208 C222 0.960 . S
H209 C222 0.961 . S
H210 C222 0.959 . S
H211 C225 0.929 . S
H212 C226 0.931 . S
H213 C228 0.930 . S
C214 H202 0.930 . S
C214 C215 1.399 . S
C214 C219 1.399 . S
C215 C214 1.399 . S
C215 C216 1.376 . S
C216 H203 0.930 . S
C216 C215 1.376 . S
C216 C217 1.388 . S
C217 H204 0.930 . S
C217 C216 1.388 . S
C217 C218 1.390 . S
C218 C217 1.390 . S
C218 C219 1.394 . S
C218 C224 1.465 . S
C219 C214 1.399 . S
C219 C218 1.394 . S
C219 C220 1.516 . S
C220 C219 1.516 . S
C220 C221 1.502 . S
C220 C222 1.561 . S
C220 C223 1.526 . S
C221 H205 0.959 . S
C221 H206 0.959 1_565 S
C221 H207 0.961 . S
C221 C220 1.502 . S
C222 H208 0.960 . S
C222 H209 0.961 . S
C222 H210 0.959 . S
C222 C220 1.561 . S
C223 C220 1.526 . S
C223 C224 1.396 . S
C223 C228 1.390 . S
C224 C218 1.465 . S
C224 C223 1.396 . S
C224 C225 1.399 . S
C225 H211 0.929 . S
C225 C224 1.399 . S
C225 C226 1.385 . S
C226 H212 0.931 . S
C226 C225 1.385 . S
C226 C227 1.389 . S
C227 C226 1.389 . S
C227 C228 1.387 . S
C228 H213 0.930 . S
C228 C223 1.390 . S
C228 C227 1.387 . S
H229 C241 0.930 . S
H230 C243 0.930 . S
H231 C244 0.930 . S
H232 C248 0.959 . S
H233 C248 0.959 . S
H234 C248 0.961 . S
H235 C249 0.960 . S
H236 C249 0.961 . S
H237 C249 0.959 . S
H238 C252 0.929 . S
H239 C253 0.931 . S
H240 C255 0.930 . S
C241 H229 0.930 . S
C241 C242 1.399 . S
C241 C246 1.399 . S
C242 C241 1.399 . S
C242 C243 1.376 . S
C243 H230 0.930 . S
C243 C242 1.376 . S
C243 C244 1.388 . S
C244 H231 0.930 . S
C244 C243 1.388 . S
C244 C245 1.390 . S
C245 C244 1.390 . S
C245 C246 1.394 . S
C245 C251 1.465 . S
C246 C241 1.399 . S
C246 C245 1.394 . S
C246 C247 1.516 . S
C247 C246 1.516 . S
C247 C248 1.502 . S
C247 C249 1.561 . S
C247 C250 1.526 . S
C248 H232 0.959 . S
C248 H233 0.959 . S
C248 H234 0.961 . S
C248 C247 1.502 . S
C249 H235 0.960 . S
C249 H236 0.961 . S
C249 H237 0.959 . S
C249 C247 1.561 . S
C250 C247 1.526 . S
C250 C251 1.396 . S
C250 C255 1.390 . S
C251 C245 1.465 . S
C251 C250 1.396 . S
C251 C252 1.399 . S
C252 H238 0.929 . S
C252 C251 1.399 . S
C252 C253 1.385 . S
C253 H239 0.931 . S
C253 C252 1.385 . S
C253 C254 1.389 . S
C254 C253 1.389 . S
C254 C255 1.387 . S
C255 H240 0.930 . S
C255 C250 1.390 . S
C255 C254 1.387 . S
H256 C268 0.930 . S
H257 C270 0.930 . S
H258 C271 0.930 . S
H259 C275 0.959 . S
H260 C275 0.959 . S
H261 C275 0.961 . S
H262 C276 0.960 . S
H263 C276 0.961 . S
H264 C276 0.959 . S
H265 C279 0.929 . S
H266 C280 0.931 . S
H267 C282 0.930 . S
C268 H256 0.930 . S
C268 C269 1.399 . S
C268 C273 1.399 . S
C269 C268 1.399 . S
C269 C270 1.376 . S
C270 H257 0.930 . S
C270 C269 1.376 . S
C270 C271 1.388 . S
C271 H258 0.930 . S
C271 C270 1.388 . S
C271 C272 1.390 . S
C272 C271 1.390 . S
C272 C273 1.394 . S
C272 C278 1.465 . S
C273 C268 1.399 . S
C273 C272 1.394 . S
C273 C274 1.516 . S
C274 C273 1.516 . S
C274 C275 1.502 . S
C274 C276 1.561 . S
C274 C277 1.526 . S
C275 H259 0.959 . S
C275 H260 0.959 . S
C275 H261 0.961 . S
C275 C274 1.502 . S
C276 H262 0.960 . S
C276 H263 0.961 . S
C276 H264 0.959 . S
C276 C274 1.561 . S
C277 C274 1.526 . S
C277 C278 1.396 . S
C277 C282 1.390 . S
C278 C272 1.465 . S
C278 C277 1.396 . S
C278 C279 1.399 . S
C279 H265 0.929 . S
C279 C278 1.399 . S
C279 C280 1.385 . S
C280 H266 0.931 . S
C280 C279 1.385 . S
C280 C281 1.389 . S
C281 C280 1.389 . S
C281 C282 1.387 . S
C282 H267 0.930 . S
C282 C277 1.390 . S
C282 C281 1.387 . S
H283 C295 0.930 . S
H284 C297 0.930 . S
H285 C298 0.930 . S
H286 C302 0.959 . S
H287 C302 0.959 . S
H288 C302 0.961 . S
H289 C303 0.960 . S
H290 C303 0.961 . S
H291 C303 0.959 . S
H292 C306 0.929 . S
H293 C307 0.931 . S
H294 C309 0.930 . S
C295 H283 0.930 . S
C295 C296 1.399 . S
C295 C300 1.399 . S
C296 C295 1.399 . S
C296 C297 1.376 . S
C297 H284 0.930 . S
C297 C296 1.376 . S
C297 C298 1.388 . S
C298 H285 0.930 . S
C298 C297 1.388 . S
C298 C299 1.390 . S
C299 C298 1.390 . S
C299 C300 1.394 . S
C299 C305 1.465 . S
C300 C295 1.399 . S
C300 C299 1.394 . S
C300 C301 1.516 . S
C301 C300 1.516 . S
C301 C302 1.502 . S
C301 C303 1.561 . S
C301 C304 1.526 . S
C302 H286 0.959 . S
C302 H287 0.959 . S
C302 H288 0.961 . S
C302 C301 1.502 . S
C303 H289 0.960 . S
C303 H290 0.961 . S
C303 H291 0.959 . S
C303 C301 1.561 . S
C304 C301 1.526 . S
C304 C305 1.396 . S
C304 C309 1.390 . S
C305 C299 1.465 . S
C305 C304 1.396 . S
C305 C306 1.399 . S
C306 H292 0.929 . S
C306 C305 1.399 . S
C306 C307 1.385 . S
C307 H293 0.931 . S
C307 C306 1.385 . S
C307 C308 1.389 . S
C308 C307 1.389 . S
C308 C309 1.387 . S
C309 H294 0.930 . S
C309 C304 1.390 . S
C309 C308 1.387 . S
H310 C322 0.930 . S
H311 C324 0.930 . S
H312 C325 0.930 . S
H313 C329 0.959 . S
H314 C329 0.959 . S
H315 C329 0.961 . S
H316 C330 0.960 . S
H317 C330 0.961 . S
H318 C330 0.959 . S
H319 C333 0.929 . S
H320 C334 0.931 . S
H321 C336 0.930 . S
C322 H310 0.930 . S
C322 C323 1.399 . S
C322 C327 1.399 . S
C323 C322 1.399 . S
C323 C324 1.376 . S
C324 H311 0.930 . S
C324 C323 1.376 . S
C324 C325 1.388 . S
C325 H312 0.930 . S
C325 C324 1.388 . S
C325 C326 1.390 . S
C326 C325 1.390 . S
C326 C327 1.394 . S
C326 C332 1.465 . S
C327 C322 1.399 . S
C327 C326 1.394 . S
C327 C328 1.516 . S
C328 C327 1.516 . S
C328 C329 1.502 . S
C328 C330 1.561 . S
C328 C331 1.526 . S
C329 H313 0.959 . S
C329 H314 0.959 . S
C329 H315 0.961 . S
C329 C328 1.502 . S
C330 H316 0.960 . S
C330 H317 0.961 . S
C330 H318 0.959 . S
C330 C328 1.561 . S
C331 C328 1.526 . S
C331 C332 1.396 . S
C331 C336 1.390 . S
C332 C326 1.465 . S
C332 C331 1.396 . S
C332 C333 1.399 . S
C333 H319 0.929 . S
C333 C332 1.399 . S
C333 C334 1.385 . S
C334 H320 0.931 . S
C334 C333 1.385 . S
C334 C335 1.389 . S
C335 C334 1.389 . S
C335 C336 1.387 . S
C336 H321 0.930 . S
C336 C331 1.390 . S
C336 C335 1.387 . S
H337 C349 0.930 . S
H338 C351 0.930 . S
H339 C352 0.930 . S
H340 C356 0.959 . S
H341 C356 0.959 . S
H342 C356 0.961 . S
H343 C357 0.960 . S
H344 C357 0.961 . S
H345 C357 0.959 . S
H346 C360 0.929 . S
H347 C361 0.931 . S
H348 C363 0.930 . S
C349 H337 0.930 . S
C349 C350 1.399 . S
C349 C354 1.399 . S
C350 C349 1.399 . S
C350 C351 1.376 . S
C351 H338 0.930 . S
C351 C350 1.376 . S
C351 C352 1.388 . S
C352 H339 0.930 . S
C352 C351 1.388 . S
C352 C353 1.390 . S
C353 C352 1.390 . S
C353 C354 1.394 . S
C353 C359 1.465 . S
C354 C349 1.399 . S
C354 C353 1.394 . S
C354 C355 1.516 . S
C355 C354 1.516 . S
C355 C356 1.502 . S
C355 C357 1.561 . S
C355 C358 1.526 . S
C356 H340 0.959 . S
C356 H341 0.959 . S
C356 H342 0.961 . S
C356 C355 1.502 . S
C357 H343 0.960 . S
C357 H344 0.961 . S
C357 H345 0.959 . S
C357 C355 1.561 . S
C358 C355 1.526 . S
C358 C359 1.396 . S
C358 C363 1.390 . S
C359 C353 1.465 . S
C359 C358 1.396 . S
C359 C360 1.399 . S
C360 H346 0.929 . S
C360 C359 1.399 . S
C360 C361 1.385 . S
C361 H347 0.931 . S
C361 C360 1.385 . S
C361 C362 1.389 . S
C362 C361 1.389 . S
C362 C363 1.387 . S
C363 H348 0.930 . S
C363 C358 1.390 . S
C363 C362 1.387 . S
H364 C376 0.930 . S
H365 C378 0.930 . S
H366 C379 0.930 . S
H367 C383 0.959 . S
H368 C383 0.959 . S
H369 C383 0.961 . S
H370 C384 0.960 . S
H371 C384 0.961 . S
H372 C384 0.959 . S
H373 C387 0.929 . S
H374 C388 0.931 . S
H375 C390 0.930 . S
C376 H364 0.930 . S
C376 C377 1.399 . S
C376 C381 1.399 . S
C377 C376 1.399 . S
C377 C378 1.376 . S
C378 H365 0.930 . S
C378 C377 1.376 . S
C378 C379 1.388 . S
C379 H366 0.930 . S
C379 C378 1.388 . S
C379 C380 1.390 . S
C380 C379 1.390 . S
C380 C381 1.394 . S
C380 C386 1.465 . S
C381 C376 1.399 . S
C381 C380 1.394 . S
C381 C382 1.516 . S
C382 C381 1.516 . S
C382 C383 1.502 . S
C382 C384 1.561 . S
C382 C385 1.526 . S
C383 H367 0.959 . S
C383 H368 0.959 . S
C383 H369 0.961 . S
C383 C382 1.502 . S
C384 H370 0.960 . S
C384 H371 0.961 . S
C384 H372 0.959 . S
C384 C382 1.561 . S
C385 C382 1.526 . S
C385 C386 1.396 . S
C385 C390 1.390 . S
C386 C380 1.465 . S
C386 C385 1.396 . S
C386 C387 1.399 . S
C387 H373 0.929 . S
C387 C386 1.399 . S
C387 C388 1.385 . S
C388 H374 0.931 . S
C388 C387 1.385 . S
C388 C389 1.389 . S
C389 C388 1.389 . S
C389 C390 1.387 . S
C390 H375 0.930 . S
C390 C385 1.390 . S
C390 C389 1.387 . S
H391 C403 0.930 . S
H392 C405 0.930 . S
H393 C406 0.930 . S
H394 C410 0.959 . S
H395 C410 0.959 . S
H396 C410 0.961 . S
H397 C411 0.960 . S
H398 C411 0.961 1_545 S
H399 C411 0.959 . S
H400 C414 0.929 . S
H401 C415 0.931 . S
H402 C417 0.930 . S
C403 H391 0.930 . S
C403 C404 1.399 . S
C403 C408 1.399 . S
C404 C403 1.399 . S
C404 C405 1.376 . S
C405 H392 0.930 . S
C405 C404 1.376 . S
C405 C406 1.388 . S
C406 H393 0.930 . S
C406 C405 1.388 . S
C406 C407 1.390 . S
C407 C406 1.390 . S
C407 C408 1.394 . S
C407 C413 1.465 . S
C408 C403 1.399 . S
C408 C407 1.394 . S
C408 C409 1.516 . S
C409 C408 1.516 . S
C409 C410 1.502 . S
C409 C411 1.561 . S
C409 C412 1.526 . S
C410 H394 0.959 . S
C410 H395 0.959 . S
C410 H396 0.961 . S
C410 C409 1.502 . S
C411 H397 0.960 . S
C411 H398 0.961 1_565 S
C411 H399 0.959 . S
C411 C409 1.561 . S
C412 C409 1.526 . S
C412 C413 1.396 . S
C412 C417 1.390 . S
C413 C407 1.465 . S
C413 C412 1.396 . S
C413 C414 1.399 . S
C414 H400 0.929 . S
C414 C413 1.399 . S
C414 C415 1.385 . S
C415 H401 0.931 . S
C415 C414 1.385 . S
C415 C416 1.389 . S
C416 C415 1.389 . S
C416 C417 1.387 . S
C417 H402 0.930 . S
C417 C412 1.390 . S
C417 C416 1.387 . S
C119 C67 1.341 . S
C107 C43 1.425 . S
C134 C4 1.450 . S
C146 C91 1.329 . S
C161 C17 1.502 . S
C173 C70 1.316 . S
C188 C30 1.568 . S
C200 C88 1.348 . S
C227 C68 1.438 . S
C215 C9 1.466 . S
C254 C90 1.489 . S
C242 C21 1.567 . S
C269 C34 1.559 . S
C281 C69 1.485 . S
C296 C48 1.461 . S
C308 C89 1.403 . S
C335 C87 1.457 . S
C323 C22 1.543 . S
C362 C66 1.517 . S
C350 C35 1.572 . S
C389 C86 1.453 . S
C377 C47 1.474 . S
C404 C8 1.492 1_556 S
C416 C65 1.463 . S
