# Generated by pormake.
# Topology hwx, (6,3)-cn, num edge types: 1
# Building blocks:
#     Node 0, Type 0, BuildingBlock: IZENUY_clean_sbu_0, # of connection points: 6
#     Node 1, Type 0, BuildingBlock: IZENUY_clean_sbu_0, # of connection points: 6
#     Node 2, Type 0, BuildingBlock: IZENUY_clean_sbu_0, # of connection points: 6
#     Node 3, Type 0, BuildingBlock: IZENUY_clean_sbu_0, # of connection points: 6
#     Node 4, Type 1, BuildingBlock: CUQRIR_clean_linker_1, # of connection points: 3
#     Node 5, Type 1, BuildingBlock: CUQRIR_clean_linker_1, # of connection points: 3
#     Node 6, Type 1, BuildingBlock: CUQRIR_clean_linker_1, # of connection points: 3
#     Node 7, Type 1, BuildingBlock: CUQRIR_clean_linker_1, # of connection points: 3
#     Node 8, Type 1, BuildingBlock: CUQRIR_clean_linker_1, # of connection points: 3
#     Node 9, Type 1, BuildingBlock: CUQRIR_clean_linker_1, # of connection points: 3
#     Node 10, Type 1, BuildingBlock: CUQRIR_clean_linker_1, # of connection points: 3
#     Node 11, Type 1, BuildingBlock: CUQRIR_clean_linker_1, # of connection points: 3
#     Edge 12, Type (0, 1), BuildingBlock: XIVTED_clean_linker_0, # of connection points: 2
#     Edge 13, Type (0, 1), BuildingBlock: XIVTED_clean_linker_0, # of connection points: 2
#     Edge 14, Type (0, 1), BuildingBlock: XIVTED_clean_linker_0, # of connection points: 2
#     Edge 15, Type (0, 1), BuildingBlock: XIVTED_clean_linker_0, # of connection points: 2
#     Edge 16, Type (0, 1), BuildingBlock: XIVTED_clean_linker_0, # of connection points: 2
#     Edge 17, Type (0, 1), BuildingBlock: XIVTED_clean_linker_0, # of connection points: 2
#     Edge 18, Type (0, 1), BuildingBlock: XIVTED_clean_linker_0, # of connection points: 2
#     Edge 19, Type (0, 1), BuildingBlock: XIVTED_clean_linker_0, # of connection points: 2
#     Edge 20, Type (0, 1), BuildingBlock: XIVTED_clean_linker_0, # of connection points: 2
#     Edge 21, Type (0, 1), BuildingBlock: XIVTED_clean_linker_0, # of connection points: 2
#     Edge 22, Type (0, 1), BuildingBlock: XIVTED_clean_linker_0, # of connection points: 2
#     Edge 23, Type (0, 1), BuildingBlock: XIVTED_clean_linker_0, # of connection points: 2
#     Edge 24, Type (0, 1), BuildingBlock: XIVTED_clean_linker_0, # of connection points: 2
#     Edge 25, Type (0, 1), BuildingBlock: XIVTED_clean_linker_0, # of connection points: 2
#     Edge 26, Type (0, 1), BuildingBlock: XIVTED_clean_linker_0, # of connection points: 2
#     Edge 27, Type (0, 1), BuildingBlock: XIVTED_clean_linker_0, # of connection points: 2
#     Edge 28, Type (0, 1), BuildingBlock: XIVTED_clean_linker_0, # of connection points: 2
#     Edge 29, Type (0, 1), BuildingBlock: XIVTED_clean_linker_0, # of connection points: 2
#     Edge 30, Type (0, 1), BuildingBlock: XIVTED_clean_linker_0, # of connection points: 2
#     Edge 31, Type (0, 1), BuildingBlock: XIVTED_clean_linker_0, # of connection points: 2
#     Edge 32, Type (0, 1), BuildingBlock: XIVTED_clean_linker_0, # of connection points: 2
#     Edge 33, Type (0, 1), BuildingBlock: XIVTED_clean_linker_0, # of connection points: 2
#     Edge 34, Type (0, 1), BuildingBlock: XIVTED_clean_linker_0, # of connection points: 2
#     Edge 35, Type (0, 1), BuildingBlock: XIVTED_clean_linker_0, # of connection points: 2
# Relax obj value: 0.001
# Max RMSD: 0.072
# Mean RMSD: 0.053
data_MOF--net-hwx--node1-IZENUY_clean_sbu_0--node2-CUQRIR_clean_linker_1--edge1-XIVTED_clean_linker_0
_symmetry_space_group_name_H-M    P1
_symmetry_Int_Tables_number       1
_symmetry_cell_setting            triclinic
loop_
_symmetry_equiv_pos_as_xyz
'x, y, z'
_cell_length_a     48.511498
_cell_length_b     48.485044
_cell_length_c     18.924923
_cell_angle_alpha  90.043236
_cell_angle_beta   89.950422
_cell_angle_gamma 89.94939
loop_
_atom_site_label
_atom_site_type_symbol
_atom_site_fract_x
_atom_site_fract_y
_atom_site_fract_z
_atom_type_partial_charge
Fe0 Fe 0.23231 0.23019 0.09102 0.0
Fe1 Fe 0.22883 0.23313 0.92848 0.0
O2 O 0.21819 0.21827 0.00994 0.0
Fe3 Fe 0.19335 0.19138 0.0099 0.0
O4 O 0.16962 0.21146 0.06378 0.0
O5 O 0.20046 0.22538 0.14151 0.0
O6 O 0.22083 0.26521 0.07486 0.0
C7 C 0.22574 0.27913 0.02011 0.0
C8 C 0.23003 0.17499 0.11968 0.0
O9 O 0.23426 0.26776 0.96412 0.0
C10 C 0.22456 0.17621 0.89613 0.0
O11 O 0.26661 0.2371 0.0547 0.0
O12 O 0.26453 0.22363 0.94357 0.0
O13 O 0.20706 0.17377 0.08817 0.0
O14 O 0.24495 0.19615 0.11459 0.0
C15 C 0.17398 0.22732 0.90152 0.0
O16 O 0.22524 0.20122 0.87728 0.0
O17 O 0.21555 0.16941 0.95628 0.0
C18 C 0.27828 0.2293 0.99828 0.0
O19 O 0.19396 0.24377 0.90725 0.0
O20 O 0.17469 0.20395 0.93149 0.0
C21 C 0.17562 0.2222 0.1227 0.0
Fe22 Fe 0.27179 0.73033 0.5956 0.0
Fe23 Fe 0.31098 0.69228 0.51287 0.0
O24 O 0.28514 0.71825 0.51392 0.0
Fe25 Fe 0.27277 0.7322 0.43321 0.0
O26 O 0.26652 0.76683 0.46832 0.0
O27 O 0.28242 0.76551 0.57684 0.0
O28 O 0.30426 0.72642 0.6438 0.0
C29 C 0.32897 0.72416 0.62302 0.0
C30 C 0.22455 0.72758 0.50776 0.0
O31 O 0.33458 0.71368 0.56353 0.0
C32 C 0.27858 0.67518 0.40306 0.0
O33 O 0.2603 0.69605 0.62078 0.0
O34 O 0.29887 0.67485 0.59338 0.0
O35 O 0.2377 0.72162 0.45229 0.0
O36 O 0.23682 0.73637 0.56229 0.0
C37 C 0.32746 0.72789 0.40092 0.0
O38 O 0.28916 0.66911 0.46207 0.0
O39 O 0.27653 0.70004 0.38339 0.0
C40 C 0.27606 0.67546 0.62594 0.0
O41 O 0.32798 0.70481 0.4322 0.0
O42 O 0.30703 0.74382 0.40774 0.0
C43 C 0.27571 0.77897 0.52252 0.0
Fe44 Fe 0.7733 0.77888 0.93152 0.0
Fe45 Fe 0.7709 0.78083 0.09436 0.0
O46 O 0.78472 0.79299 0.01311 0.0
Fe47 Fe 0.81012 0.81943 0.01345 0.0
O48 O 0.78824 0.84234 0.96223 0.0
O49 O 0.7763 0.81143 0.88257 0.0
O50 O 0.73776 0.78831 0.94903 0.0
C51 C 0.72432 0.78255 1.0041 0.0
C52 C 0.82805 0.78453 0.90141 0.0
O53 O 0.73627 0.77448 0.05972 0.0
C54 C 0.82795 0.7877 0.12389 0.0
O55 O 0.76822 0.74389 0.96558 0.0
O56 O 0.78167 0.74566 0.07656 0.0
O57 O 0.82793 0.80751 0.93318 0.0
O58 O 0.80796 0.76824 0.90721 0.0
C59 C 0.7743 0.83576 0.1252 0.0
O60 O 0.80315 0.78499 0.14376 0.0
O61 O 0.8337 0.79828 0.06466 0.0
C62 C 0.77646 0.7321 0.0213 0.0
O63 O 0.75888 0.815 0.11906 0.0
O64 O 0.79732 0.83661 0.09374 0.0
C65 C 0.77807 0.8363 0.90273 0.0
Fe66 Fe 0.69381 0.32012 0.50157 0.0
Fe67 Fe 0.73125 0.28022 0.58359 0.0
O68 O 0.71849 0.29317 0.50234 0.0
Fe69 Fe 0.73053 0.27908 0.42143 0.0
O70 O 0.72721 0.31121 0.37112 0.0
O71 O 0.71672 0.34243 0.45094 0.0
O72 O 0.7068 0.33702 0.5817 0.0
C73 C 0.72939 0.33534 0.61495 0.0
C74 C 0.676 0.2848 0.38998 0.0
O75 O 0.74415 0.31392 0.61044 0.0
C76 C 0.72586 0.2321 0.50928 0.0
O77 O 0.66926 0.29984 0.55263 0.0
O78 O 0.69908 0.28539 0.63204 0.0
O79 O 0.696 0.26828 0.39639 0.0
O80 O 0.67624 0.30801 0.42099 0.0
C81 C 0.77867 0.28188 0.49609 0.0
O82 O 0.71905 0.24565 0.56345 0.0
O83 O 0.73609 0.24417 0.45614 0.0
C84 C 0.67449 0.28891 0.61179 0.0
O85 O 0.76586 0.2727 0.54947 0.0
O86 O 0.76579 0.28914 0.4412 0.0
C87 C 0.72636 0.33607 0.39113 0.0
C88 C 0.23267 0.50165 0.95874 0.0
N89 N 0.23776 0.52782 0.98022 0.0
N90 N 0.23115 0.4844 0.01504 0.0
C91 C 0.23173 0.49263 0.88269 0.0
C92 C 0.2355 0.50111 0.07135 0.0
N93 N 0.23999 0.52737 0.05016 0.0
C94 C 0.23291 0.49229 0.14737 0.0
H95 H 0.20997 0.49263 0.86468 0.0
H96 H 0.24014 0.47148 0.87655 0.0
H97 H 0.24356 0.50691 0.84839 0.0
H98 H 0.25353 0.48648 0.16782 0.0
H99 H 0.21898 0.47426 0.15246 0.0
H100 H 0.22483 0.50942 0.18036 0.0
C101 C 0.00236 0.74295 0.56718 0.0
N102 N 0.9761 0.74779 0.54624 0.0
N103 N 0.01943 0.74114 0.51049 0.0
C104 C 0.01162 0.74245 0.64303 0.0
C105 C 0.00248 0.74507 0.45446 0.0
N106 N 0.97626 0.74958 0.47618 0.0
C107 C 0.01105 0.7419 0.37836 0.0
H108 H 0.03282 0.75075 0.64829 0.0
H109 H 0.01155 0.7208 0.66203 0.0
H110 H 0.99752 0.75463 0.67711 0.0
H111 H 0.02902 0.72786 0.37348 0.0
H112 H 0.01686 0.76236 0.35683 0.0
H113 H 0.99382 0.73364 0.34615 0.0
C114 C 0.77616 0.50853 0.06299 0.0
N115 N 0.77178 0.48234 0.04021 0.0
N116 N 0.77612 0.52641 1.00792 0.0
C117 C 0.77961 0.5167 0.13935 0.0
C118 C 0.77144 0.5102 0.95082 0.0
N119 N 0.76857 0.48346 0.97043 0.0
C120 C 0.76824 0.52064 0.87635 0.0
H121 H 0.76365 0.50652 0.17227 0.0
H122 H 0.77858 0.53927 0.1475 0.0
H123 H 0.8001 0.50972 0.15812 0.0
H124 H 0.78036 0.53962 0.8672 0.0
H125 H 0.74622 0.52559 0.86693 0.0
H126 H 0.77476 0.50475 0.83754 0.0
C127 C 1.00116 0.26808 0.4511 0.0
N128 N 0.02748 0.26382 0.47249 0.0
N129 N 0.98442 0.27232 0.50745 0.0
C130 C 0.99142 0.26739 0.37557 0.0
C131 C 1.00153 0.27036 0.5638 0.0
N132 N 0.02768 0.26537 0.54257 0.0
C133 C 0.9928 0.27349 0.63962 0.0
H134 H 0.98628 0.28866 0.35859 0.0
H135 H 0.9724 0.25479 0.37141 0.0
H136 H 0.00721 0.25921 0.33883 0.0
H137 H 0.98832 0.25279 0.66177 0.0
H138 H 0.97399 0.28641 0.64398 0.0
H139 H 0.0096 0.28284 0.67136 0.0
C140 C 0.73122 0.01001 0.56973 0.0
N141 N 0.73487 0.98334 0.55007 0.0
N142 N 0.72509 0.02587 0.51291 0.0
C143 C 0.73492 0.02081 0.64375 0.0
C144 C 0.72495 0.00784 0.45818 0.0
N145 N 0.73054 0.98197 0.48082 0.0
C146 C 0.72098 0.01572 0.38207 0.0
H147 H 0.72179 0.03906 0.65386 0.0
H148 H 0.75671 0.02712 0.65095 0.0
H149 H 0.72987 0.00473 0.68337 0.0
H150 H 0.74149 0.01786 0.35665 0.0
H151 H 0.70977 0.03559 0.3774 0.0
H152 H 0.70946 0.99943 0.35347 0.0
C153 C 0.49948 0.25111 0.9455 0.0
N154 N 0.52575 0.25584 0.96627 0.0
N155 N 0.48299 0.24639 1.00207 0.0
C156 C 0.49051 0.24839 0.86962 0.0
C157 C 0.5004 0.24797 0.05806 0.0
N158 N 0.52644 0.25341 0.03619 0.0
C159 C 0.49162 0.24663 0.13425 0.0
H160 H 0.4843 0.26894 0.8494 0.0
H161 H 0.47273 0.23414 0.86473 0.0
H162 H 0.50766 0.2406 0.83625 0.0
H163 H 0.49267 0.2249 0.15234 0.0
H164 H 0.47016 0.25412 0.14082 0.0
H165 H 0.50547 0.25913 0.16816 0.0
C166 C 0.27336 1.00194 0.45685 0.0
N167 N 0.26975 0.02845 0.47746 0.0
N168 N 0.27506 0.98502 0.51355 0.0
C169 C 0.27644 0.99274 0.3813 0.0
C170 C 0.27242 0.0022 0.56962 0.0
N171 N 0.26952 0.0287 0.54778 0.0
C172 C 0.26911 0.99264 0.6449 0.0
H173 H 0.25578 0.98817 0.35915 0.0
H174 H 0.28923 0.97379 0.37783 0.0
H175 H 0.286 0.00923 0.34887 0.0
H176 H 0.28966 0.99214 0.67057 0.0
H177 H 0.2602 0.9716 0.64711 0.0
H178 H 0.25557 0.00679 0.67525 0.0
C179 C 0.50176 0.77069 0.06878 0.0
N180 N 0.47559 0.76583 0.04714 0.0
N181 N 0.51908 0.77232 0.01255 0.0
C182 C 0.51071 0.77136 0.14487 0.0
C183 C 0.50239 0.76828 0.95609 0.0
N184 N 0.47608 0.76384 0.97712 0.0
C185 C 0.51126 0.7713 0.88019 0.0
H186 H 0.51048 0.79303 0.16366 0.0
H187 H 0.53191 0.7631 0.15078 0.0
H188 H 0.4965 0.75922 0.17866 0.0
H189 H 0.51718 0.7508 0.85897 0.0
H190 H 0.52924 0.78533 0.87569 0.0
H191 H 0.49416 0.77953 0.84746 0.0
H192 H 0.17842 0.25845 0.23242 0.0
H193 H 0.03358 0.21642 0.40016 0.0
H194 H 0.12313 0.20106 0.13116 0.0
H195 H 0.0726 0.2942 0.44356 0.0
H196 H 0.07005 0.20581 0.3138 0.0
H197 H 0.14318 0.2678 0.32171 0.0
C198 C 0.15883 0.24784 0.22892 0.0
C199 C 0.15368 0.22894 0.17423 0.0
C200 C 0.07076 0.22511 0.34261 0.0
C201 C 0.11346 0.2393 0.2769 0.0
C202 C 0.05017 0.23099 0.39195 0.0
C203 C 0.0504 0.2561 0.42858 0.0
C204 C 0.09187 0.24436 0.33083 0.0
C205 C 0.07208 0.27451 0.4167 0.0
C206 C 0.13874 0.25323 0.27985 0.0
C207 C 0.12788 0.21588 0.17216 0.0
N208 N 0.09203 0.2683 0.3687 0.0
N209 N 0.10878 0.22114 0.22316 0.0
H210 H 0.31207 0.639 0.68592 0.0
H211 H 0.20007 0.5527 0.89788 0.0
H212 H 0.22622 0.66249 0.68698 0.0
H213 H 0.28534 0.55532 0.95926 0.0
H214 H 0.20867 0.58995 0.81223 0.0
H215 H 0.30233 0.60455 0.77662 0.0
C216 C 0.29111 0.6368 0.70483 0.0
C217 C 0.2699 0.65366 0.6786 0.0
C218 C 0.22544 0.5826 0.84492 0.0
C219 C 0.25867 0.61413 0.78264 0.0
C220 C 0.22052 0.56149 0.89353 0.0
C221 C 0.24205 0.55134 0.93534 0.0
C222 C 0.25226 0.5931 0.8372 0.0
C223 C 0.26829 0.56294 0.92802 0.0
C224 C 0.28564 0.61726 0.75707 0.0
C225 C 0.24319 0.64997 0.70573 0.0
N226 N 0.27277 0.58305 0.87924 0.0
N227 N 0.23828 0.63047 0.75596 0.0
H228 H 0.88219 0.80378 0.11925 0.0
H229 H 0.92638 0.72446 0.47181 0.0
H230 H 0.82433 0.75738 0.24535 0.0
H231 H 0.97397 0.79001 0.37902 0.0
H232 H 0.88936 0.73362 0.38605 0.0
H233 H 0.91763 0.79532 0.20854 0.0
C234 C 0.87698 0.79167 0.16542 0.0
C235 C 0.85021 0.78137 0.17489 0.0
C236 C 0.90786 0.74609 0.38474 0.0
C237 C 0.89066 0.77166 0.2774 0.0
C238 C 0.92879 0.74098 0.43386 0.0
C239 C 0.95317 0.7564 0.4317 0.0
C240 C 0.9116 0.76658 0.33297 0.0
C241 C 0.95559 0.77742 0.3813 0.0
C242 C 0.89716 0.78701 0.21663 0.0
C243 C 0.84465 0.76587 0.23603 0.0
N244 N 0.9352 0.78175 0.3335 0.0
N245 N 0.86469 0.76144 0.28487 0.0
H246 H 0.70173 0.38356 0.63817 0.0
H247 H 0.79848 0.43673 0.95368 0.0
H248 H 0.77258 0.33758 0.71034 0.0
H249 H 0.72502 0.47807 0.8831 0.0
H250 H 0.78979 0.39968 0.86712 0.0
H251 H 0.7109 0.4184 0.72733 0.0
C252 C 0.71935 0.38078 0.67258 0.0
C253 C 0.73636 0.35743 0.66653 0.0
C254 C 0.77554 0.41682 0.87066 0.0
C255 C 0.74697 0.3976 0.76997 0.0
C256 C 0.78045 0.43779 0.92014 0.0
C257 C 0.7626 0.46048 0.92443 0.0
C258 C 0.75258 0.41868 0.82551 0.0
C259 C 0.73948 0.4611 0.88025 0.0
C260 C 0.72453 0.40075 0.72386 0.0
C261 C 0.7589 0.3552 0.7129 0.0
N262 N 0.73521 0.44063 0.83248 0.0
N263 N 0.76353 0.37501 0.76275 0.0
H264 H 0.66067 0.2348 0.33362 0.0
H265 H 0.55611 0.30002 0.05244 0.0
H266 H 0.64195 0.32177 0.32463 0.0
H267 H 0.5499 0.21582 0.12189 0.0
H268 H 0.59372 0.30748 0.13773 0.0
H269 H 0.62543 0.22646 0.24296 0.0
C270 C 0.64915 0.25211 0.31271 0.0
C271 C 0.65417 0.279 0.33714 0.0
C272 C 0.58425 0.28731 0.13402 0.0
C273 C 0.61428 0.26966 0.23263 0.0
C274 C 0.56305 0.28308 0.08518 0.0
C275 C 0.55017 0.25734 0.08069 0.0
C276 C 0.59277 0.26549 0.17785 0.0
C277 C 0.5595 0.23594 0.12434 0.0
C278 C 0.62906 0.24734 0.26106 0.0
C279 C 0.63863 0.30066 0.30798 0.0
N280 N 0.5803 0.24044 0.17113 0.0
N281 N 0.61955 0.29555 0.25705 0.0
H282 H 0.21608 0.17863 0.75427 0.0
H283 H 0.30036 0.0439 0.65941 0.0
H284 H 0.2482 0.12549 0.91741 0.0
H285 H 0.22838 0.0667 0.53972 0.0
H286 H 0.28942 0.08019 0.74565 0.0
H287 H 0.22794 0.14365 0.66573 0.0
C288 C 0.22572 0.15961 0.77137 0.0
C289 C 0.23119 0.15485 0.84319 0.0
C290 C 0.27619 0.07734 0.70014 0.0
C291 C 0.24522 0.11521 0.74222 0.0
C292 C 0.28244 0.05682 0.65105 0.0
C293 C 0.26519 0.05234 0.59272 0.0
C294 C 0.25289 0.09396 0.68981 0.0
C295 C 0.24239 0.06976 0.58343 0.0
C296 C 0.23235 0.1397 0.72091 0.0
C297 C 0.24353 0.12983 0.86259 0.0
N298 N 0.2369 0.08992 0.63151 0.0
N299 N 0.25043 0.111 0.81219 0.0
H300 H 0.3628 0.69167 0.33748 0.0
H301 H 0.45155 0.80342 0.13178 0.0
H302 H 0.34115 0.77802 0.34203 0.0
H303 H 0.44692 0.71872 0.06543 0.0
H304 H 0.414 0.79504 0.21678 0.0
H305 H 0.39723 0.70142 0.24678 0.0
C306 C 0.36539 0.71275 0.31977 0.0
C307 C 0.34906 0.7341 0.34769 0.0
C308 C 0.42098 0.77836 0.18315 0.0
C309 C 0.38862 0.74536 0.24356 0.0
C310 C 0.44228 0.78315 0.13493 0.0
C311 C 0.45197 0.76171 0.09192 0.0
C312 C 0.4098 0.75175 0.18927 0.0
C313 C 0.4397 0.73571 0.09765 0.0
C314 C 0.38492 0.71824 0.26751 0.0
C315 C 0.35325 0.76095 0.32199 0.0
N316 N 0.41941 0.73133 0.14606 0.0
N317 N 0.37277 0.76586 0.27173 0.0
H318 H 0.79435 0.89056 0.90471 0.0
H319 H 0.70858 0.93454 0.56307 0.0
H320 H 0.74625 0.83235 0.78405 0.0
H321 H 0.77838 0.98051 0.63924 0.0
H322 H 0.7191 0.8979 0.64868 0.0
H323 H 0.78482 0.92576 0.8152 0.0
C324 C 0.78162 0.88523 0.85973 0.0
C325 C 0.77114 0.85844 0.85181 0.0
C326 C 0.73219 0.91596 0.64645 0.0
C327 C 0.76019 0.8986 0.74924 0.0
C328 C 0.72629 0.93669 0.59741 0.0
C329 C 0.74246 0.96058 0.59503 0.0
C330 C 0.75426 0.91938 0.69376 0.0
C331 C 0.76509 0.96262 0.64077 0.0
C332 C 0.77637 0.90527 0.8084 0.0
C333 C 0.75488 0.8527 0.79213 0.0
N334 N 0.77017 0.94244 0.68884 0.0
N335 N 0.74983 0.87261 0.7433 0.0
H336 H 0.86348 0.82121 0.83995 0.0
H337 H 0.95228 0.71005 0.63043 0.0
H338 H 0.84241 0.73473 0.84207 0.0
H339 H 0.94771 0.79501 0.56649 0.0
H340 H 0.91507 0.71831 0.71648 0.0
H341 H 0.89814 0.81188 0.74925 0.0
C342 C 0.86627 0.8002 0.82175 0.0
C343 C 0.85001 0.77869 0.84887 0.0
C344 C 0.92199 0.73509 0.68319 0.0
C345 C 0.88977 0.76793 0.74485 0.0
C346 C 0.94309 0.73036 0.63435 0.0
C347 C 0.95267 0.75189 0.59167 0.0
C348 C 0.91091 0.76173 0.69026 0.0
C349 C 0.94054 0.77795 0.59843 0.0
C350 C 0.88592 0.79495 0.76952 0.0
C351 C 0.85444 0.75193 0.82263 0.0
N352 N 0.92043 0.78226 0.64743 0.0
N353 N 0.87403 0.74727 0.77241 0.0
H354 H 0.75265 0.38528 0.4146 0.0
H355 H 0.72711 0.44897 0.03822 0.0
H356 H 0.71576 0.33594 0.25028 0.0
H357 H 0.8046 0.46212 0.1439 0.0
H358 H 0.71642 0.4121 0.12295 0.0
H359 H 0.76536 0.41992 0.32499 0.0
C360 C 0.7471 0.38189 0.35985 0.0
C361 C 0.73328 0.35779 0.33951 0.0
C362 C 0.7358 0.42305 0.12723 0.0
C363 C 0.74721 0.39716 0.23791 0.0
C364 C 0.74201 0.44381 0.07864 0.0
C365 C 0.76669 0.45865 0.08448 0.0
C366 C 0.75408 0.41768 0.183 0.0
C367 C 0.78507 0.45159 0.13878 0.0
C368 C 0.75448 0.40145 0.30893 0.0
C369 C 0.72661 0.3542 0.26788 0.0
N370 N 0.77823 0.43188 0.18676 0.0
N371 N 0.73338 0.37382 0.21968 0.0
H372 H 0.12957 0.19508 0.86727 0.0
H373 H 0.07085 0.29838 0.57243 0.0
H374 H 0.16744 0.27331 0.818 0.0
H375 H 0.03525 0.21928 0.61876 0.0
H376 H 0.10709 0.2895 0.66036 0.0
H377 H 0.09484 0.20383 0.77692 0.0
C378 C 0.13053 0.2142 0.8378 0.0
C379 C 0.15158 0.23345 0.8504 0.0
C380 C 0.09156 0.27392 0.65088 0.0
C381 C 0.11179 0.24353 0.74601 0.0
C382 C 0.07116 0.2789 0.60028 0.0
C383 C 0.05063 0.25924 0.58793 0.0
C384 C 0.09114 0.24918 0.68972 0.0
C385 C 0.0511 0.23467 0.62665 0.0
C386 C 0.1107 0.21913 0.78589 0.0
C387 C 0.15166 0.25784 0.81024 0.0
N388 N 0.071 0.23032 0.67594 0.0
N389 N 0.13213 0.26214 0.75982 0.0
H390 H 0.24653 0.67976 0.28529 0.0
H391 H 0.28184 0.52879 0.14306 0.0
H392 H 0.29512 0.62093 0.40272 0.0
H393 H 0.2151 0.57729 0.05942 0.0
H394 H 0.29103 0.56493 0.23035 0.0
H395 H 0.23794 0.64462 0.19542 0.0
C396 C 0.25532 0.6594 0.29234 0.0
C397 C 0.27164 0.65328 0.35162 0.0
C398 C 0.27441 0.56777 0.19287 0.0
C399 C 0.2621 0.6131 0.24838 0.0
C400 C 0.26925 0.54724 0.14314 0.0
C401 C 0.24753 0.55012 0.09497 0.0
C402 C 0.25787 0.59152 0.19393 0.0
C403 C 0.23206 0.57449 0.09582 0.0
C404 C 0.25038 0.63937 0.24097 0.0
C405 C 0.28236 0.62653 0.35808 0.0
N406 N 0.23745 0.59431 0.14489 0.0
N407 N 0.27755 0.60747 0.30678 0.0
H408 H 0.38329 0.70802 0.61905 0.0
H409 H 0.42624 0.78898 0.9707 0.0
H410 H 0.32531 0.75552 0.74249 0.0
H411 H 0.47434 0.72311 0.88057 0.0
H412 H 0.3897 0.77963 0.88381 0.0
H413 H 0.4186 0.71699 0.70853 0.0
C414 C 0.37804 0.72049 0.66463 0.0
C415 C 0.35128 0.73092 0.67343 0.0
C416 C 0.4082 0.76712 0.8833 0.0
C417 C 0.3915 0.74119 0.77606 0.0
C418 C 0.42885 0.77234 0.93308 0.0
C419 C 0.45324 0.75689 0.932 0.0
C420 C 0.41223 0.74648 0.83199 0.0
C421 C 0.45594 0.73571 0.882 0.0
C422 C 0.39813 0.72544 0.71595 0.0
C423 C 0.34563 0.74689 0.73378 0.0
N424 N 0.43581 0.73127 0.83356 0.0
N425 N 0.36556 0.75157 0.78271 0.0
H426 H 0.80786 0.87649 0.17629 0.0
H427 H 0.69345 0.94895 0.41711 0.0
H428 H 0.72507 0.84464 0.19425 0.0
H429 H 0.78036 0.96307 0.44174 0.0
H430 H 0.70354 0.9123 0.33053 0.0
H431 H 0.79713 0.91073 0.26675 0.0
C432 C 0.78734 0.87677 0.19889 0.0
C433 C 0.76734 0.85758 0.17744 0.0
C434 C 0.72044 0.9232 0.35534 0.0
C435 C 0.75494 0.89689 0.28163 0.0
C436 C 0.71466 0.94393 0.40463 0.0
C437 C 0.73619 0.9586 0.43629 0.0
C438 C 0.74797 0.91756 0.33695 0.0
C439 C 0.76336 0.95187 0.41845 0.0
C440 C 0.7813 0.89625 0.25099 0.0
C441 C 0.74115 0.85897 0.20915 0.0
N442 N 0.76851 0.93196 0.36949 0.0
N443 N 0.73568 0.87833 0.25946 0.0
H444 H 0.67714 0.25584 0.72785 0.0
H445 H 0.52772 0.29704 0.87125 0.0
H446 H 0.62113 0.30843 0.61273 0.0
H447 H 0.5751 0.22992 0.95721 0.0
H448 H 0.56386 0.30494 0.78301 0.0
H449 H 0.64173 0.24871 0.81754 0.0
C450 C 0.65732 0.26583 0.72125 0.0
C451 C 0.65212 0.28285 0.66268 0.0
C452 C 0.56647 0.28854 0.82125 0.0
C453 C 0.61154 0.27493 0.7659 0.0
C454 C 0.54594 0.28412 0.87155 0.0
C455 C 0.54852 0.2627 0.92078 0.0
C456 C 0.58987 0.27151 0.82059 0.0
C457 C 0.57255 0.24671 0.92015 0.0
C458 C 0.63712 0.26172 0.77258 0.0
C459 C 0.62601 0.29509 0.65682 0.0
N460 N 0.59232 0.25136 0.87053 0.0
N461 N 0.60674 0.29103 0.7081 0.0
H462 H 0.20331 0.1262 0.14145 0.0
H463 H 0.2982 0.07641 0.46456 0.0
H464 H 0.273 0.17344 0.2153 0.0
H465 H 0.22792 0.03206 0.38545 0.0
H466 H 0.28952 0.11299 0.37655 0.0
H467 H 0.21279 0.09164 0.23113 0.0
C468 C 0.22074 0.12928 0.17631 0.0
C469 C 0.23732 0.15289 0.17071 0.0
C470 C 0.27596 0.09529 0.37862 0.0
C471 C 0.24825 0.11317 0.27472 0.0
C472 C 0.28084 0.07462 0.42893 0.0
C473 C 0.26382 0.05131 0.43133 0.0
C474 C 0.25389 0.09244 0.33087 0.0
C475 C 0.24163 0.04966 0.38433 0.0
C476 C 0.22611 0.1095 0.22786 0.0
C477 C 0.25967 0.15558 0.21755 0.0
N478 N 0.23736 0.06984 0.33596 0.0
N479 N 0.26443 0.136 0.26777 0.0
H480 H 0.23521 0.31315 0.13282 0.0
H481 H 0.19401 0.4531 0.94377 0.0
H482 H 0.21215 0.31391 0.91268 0.0
H483 H 0.263 0.44823 0.08652 0.0
H484 H 0.19078 0.40239 0.94544 0.0
H485 H 0.23511 0.36382 0.13243 0.0
C486 C 0.22983 0.324 0.08473 0.0
C487 C 0.22389 0.30946 0.02254 0.0
C488 C 0.20649 0.41258 0.97657 0.0
C489 C 0.2233 0.367 0.02215 0.0
C490 C 0.20843 0.44134 0.97532 0.0
C491 C 0.22872 0.45477 0.01531 0.0
C492 C 0.22455 0.39737 0.01943 0.0
C493 C 0.2467 0.43869 0.05624 0.0
C494 C 0.22992 0.35279 0.08447 0.0
C495 C 0.21713 0.32445 0.9615 0.0
N496 N 0.24406 0.41083 0.05777 0.0
N497 N 0.21688 0.35247 0.96285 0.0
H498 H 0.19019 0.71633 0.61804 0.0
H499 H 0.05572 0.772 0.43652 0.0
H500 H 0.18991 0.73791 0.39694 0.0
H501 H 0.05064 0.70419 0.58297 0.0
H502 H 0.10589 0.76637 0.43253 0.0
H503 H 0.13956 0.71797 0.61817 0.0
C504 C 0.17943 0.72134 0.56956 0.0
C505 C 0.19414 0.72701 0.50736 0.0
C506 C 0.09374 0.75267 0.4653 0.0
C507 C 0.13663 0.72946 0.50768 0.0
C508 C 0.06518 0.75578 0.46736 0.0
C509 C 0.04904 0.73833 0.50954 0.0
C510 C 0.10633 0.73248 0.50729 0.0
C511 C 0.0624 0.7182 0.55033 0.0
C512 C 0.15066 0.72215 0.56966 0.0
C513 C 0.17929 0.73328 0.44586 0.0
N514 N 0.09037 0.71595 0.54872 0.0
N515 N 0.15131 0.73474 0.44779 0.0
H516 H 0.76429 0.69734 0.13087 0.0
H517 H 0.81439 0.55938 0.94773 0.0
H518 H 0.79202 0.69784 0.91426 0.0
H519 H 0.74055 0.56066 0.07393 0.0
H520 H 0.81549 0.61021 0.95121 0.0
H521 H 0.76471 0.64659 0.12864 0.0
C522 C 0.77072 0.68675 0.08318 0.0
C523 C 0.77801 0.70168 0.02253 0.0
C524 C 0.79911 0.59928 0.9782 0.0
C525 C 0.77901 0.64406 0.02019 0.0
C526 C 0.79845 0.57048 0.97603 0.0
C527 C 0.7773 0.55609 0.01035 0.0
C528 C 0.77891 0.61361 0.01668 0.0
C529 C 0.75725 0.57119 0.04725 0.0
C530 C 0.7708 0.65792 0.08185 0.0
C531 C 0.78605 0.68702 0.96191 0.0
N532 N 0.75866 0.59918 0.0501 0.0
N533 N 0.78656 0.65897 0.96239 0.0
H534 H 0.81449 0.30655 0.40265 0.0
H535 H 0.94868 0.23996 0.57809 0.0
H536 H 0.81247 0.25617 0.59065 0.0
H537 H 0.95299 0.30927 0.43647 0.0
H538 H 0.8983 0.2429 0.57582 0.0
H539 H 0.86506 0.30503 0.40568 0.0
C540 C 0.82464 0.29515 0.44441 0.0
C541 C 0.8092 0.28144 0.4964 0.0
C542 C 0.91022 0.25755 0.54534 0.0
C543 C 0.86687 0.27954 0.49993 0.0
C544 C 0.9389 0.25593 0.54699 0.0
C545 C 0.95483 0.27445 0.50759 0.0
C546 C 0.89735 0.27766 0.50327 0.0
C547 C 0.9413 0.29444 0.46683 0.0
C548 C 0.85346 0.29439 0.44626 0.0
C549 C 0.82346 0.26711 0.54951 0.0
N550 N 0.91328 0.29549 0.46545 0.0
N551 N 0.85143 0.26642 0.54966 0.0
H552 H 0.6981 0.19841 0.60207 0.0
H553 H 0.75997 0.05896 0.44211 0.0
H554 H 0.75052 0.19609 0.41767 0.0
H555 H 0.68819 0.05989 0.57578 0.0
H556 H 0.75938 0.10957 0.43959 0.0
H557 H 0.69678 0.14782 0.60149 0.0
C558 C 0.70934 0.1873 0.56156 0.0
C559 C 0.72448 0.20155 0.50992 0.0
C560 C 0.74369 0.09876 0.4694 0.0
C561 C 0.72317 0.14377 0.50924 0.0
C562 C 0.74404 0.06998 0.47064 0.0
C563 C 0.72423 0.05552 0.50957 0.0
C564 C 0.72351 0.11315 0.50802 0.0
C565 C 0.70402 0.07051 0.54609 0.0
C566 C 0.70848 0.15845 0.5611 0.0
C567 C 0.73854 0.18605 0.45847 0.0
N568 N 0.70426 0.09858 0.54491 0.0
N569 N 0.73767 0.15805 0.45973 0.0
H570 H 0.31152 0.24155 0.88567 0.0
H571 H 0.45369 0.20765 0.07328 0.0
H572 H 0.31398 0.2172 0.1048 0.0
H573 H 0.44514 0.27651 0.93113 0.0
H574 H 0.40329 0.20175 0.07182 0.0
H575 H 0.36209 0.24466 0.88581 0.0
C576 C 0.32273 0.23655 0.93345 0.0
C577 C 0.30867 0.22928 0.99544 0.0
C578 C 0.41259 0.21806 0.04084 0.0
C579 C 0.36613 0.23238 0.99557 0.0
C580 C 0.44119 0.22152 0.042 0.0
C581 C 0.45351 0.24256 1.00218 0.0
C582 C 0.3964 0.23534 0.9982 0.0
C583 C 0.43648 0.25972 0.96145 0.0
C584 C 0.35146 0.23848 0.9336 0.0
C585 C 0.32412 0.22313 0.05612 0.0
N586 N 0.4088 0.2556 0.95998 0.0
N587 N 0.35209 0.22467 0.05463 0.0
H588 H 0.3012 0.81338 0.61804 0.0
H589 H 0.24135 0.95069 0.44227 0.0
H590 H 0.25175 0.81416 0.42841 0.0
H591 H 0.30965 0.95201 0.58737 0.0
H592 H 0.24206 0.90026 0.44452 0.0
H593 H 0.30175 0.86402 0.61634 0.0
C594 C 0.29043 0.82416 0.57622 0.0
C595 C 0.27639 0.80949 0.52334 0.0
C596 C 0.25703 0.91151 0.47565 0.0
C597 C 0.27685 0.86721 0.52132 0.0
C598 C 0.2567 0.94023 0.47395 0.0
C599 C 0.27569 0.95533 0.51398 0.0
C600 C 0.27627 0.89776 0.51846 0.0
C601 C 0.29469 0.94094 0.55589 0.0
C602 C 0.29085 0.85301 0.57514 0.0
C603 C 0.2629 0.82453 0.47022 0.0
N604 N 0.29448 0.91287 0.55727 0.0
N605 N 0.26337 0.8525 0.47079 0.0
H606 H 0.69019 0.77191 0.89235 0.0
H607 H 0.54996 0.80946 0.08511 0.0
H608 H 0.68946 0.79453 0.11287 0.0
H609 H 0.55564 0.74124 0.93973 0.0
H610 H 0.60057 0.81341 0.08313 0.0
H611 H 0.63957 0.77039 0.89405 0.0
C612 C 0.67936 0.77682 0.94083 0.0
C613 C 0.69392 0.78316 1.00269 0.0
C614 C 0.59059 0.79768 0.05156 0.0
C615 C 0.63638 0.78192 1.00459 0.0
C616 C 0.56187 0.79533 0.05298 0.0
C617 C 0.54868 0.77506 0.01234 0.0
C618 C 0.60603 0.78006 1.00787 0.0
C619 C 0.56499 0.7575 0.97062 0.0
C620 C 0.65059 0.77581 0.94184 0.0
C621 C 0.67893 0.78928 0.06426 0.0
N622 N 0.5928 0.76055 0.96892 0.0
N623 N 0.65091 0.78867 0.06362 0.0
loop_
_geom_bond_atom_site_label_1
_geom_bond_atom_site_label_2
_geom_bond_distance
_geom_bond_site_symmetry_2
_ccdc_geom_bond_type
Fe0 O2 1.918 . S
Fe0 O5 1.997 . S
Fe0 O6 2.002 . S
Fe0 O11 1.976 . S
Fe0 O14 1.996 . S
Fe1 O2 1.918 1_556 S
Fe1 O9 1.997 . S
Fe1 O12 1.996 . S
Fe1 O16 1.976 . S
Fe1 O19 2.002 . S
O2 Fe0 1.918 . S
O2 Fe1 1.918 1_554 S
O2 Fe3 1.918 1_554 S
Fe3 O2 1.918 1_556 S
Fe3 O4 1.996 1_556 S
Fe3 O13 1.969 1_556 S
Fe3 O17 2.003 . S
Fe3 O20 2.004 . S
O4 Fe3 1.996 1_554 S
O4 C21 1.295 . S
O5 Fe0 1.997 . S
O5 C21 1.235 . S
O6 Fe0 2.002 . S
O6 C7 1.295 . S
C7 O6 1.295 . S
C7 O9 1.235 1_554 S
C8 O13 1.287 . S
C8 O14 1.255 . S
O9 Fe1 1.997 . S
O9 C7 1.235 1_556 S
C10 O16 1.287 . S
C10 O17 1.255 . S
O11 Fe0 1.976 . S
O11 C18 1.287 1_554 S
O12 Fe1 1.996 . S
O12 C18 1.255 . S
O13 Fe3 1.969 1_554 S
O13 C8 1.287 . S
O14 Fe0 1.996 . S
O14 C8 1.255 . S
C15 O19 1.295 . S
C15 O20 1.235 . S
O16 Fe1 1.976 . S
O16 C10 1.287 . S
O17 Fe3 2.003 . S
O17 C10 1.255 . S
C18 O11 1.287 1_556 S
C18 O12 1.255 . S
O19 Fe1 2.002 . S
O19 C15 1.295 . S
O20 Fe3 2.004 . S
O20 C15 1.235 . S
C21 O4 1.295 . S
C21 O5 1.235 . S
Fe22 O24 1.918 . S
Fe22 O27 1.997 . S
Fe22 O28 2.002 . S
Fe22 O33 1.976 . S
Fe22 O36 1.996 . S
Fe23 O24 1.918 . S
Fe23 O31 1.997 . S
Fe23 O34 1.996 . S
Fe23 O38 1.976 . S
Fe23 O41 2.002 . S
O24 Fe22 1.918 . S
O24 Fe23 1.918 . S
O24 Fe25 1.918 . S
Fe25 O24 1.918 . S
Fe25 O26 2.002 . S
Fe25 O35 1.976 . S
Fe25 O39 1.996 . S
Fe25 O42 1.997 . S
O26 Fe25 2.002 . S
O26 C43 1.295 . S
O27 Fe22 1.997 . S
O27 C43 1.235 . S
O28 Fe22 2.002 . S
O28 C29 1.295 . S
C29 O28 1.295 . S
C29 O31 1.235 . S
C30 O35 1.287 . S
C30 O36 1.255 . S
O31 Fe23 1.997 . S
O31 C29 1.235 . S
C32 O38 1.287 . S
C32 O39 1.255 . S
O33 Fe22 1.976 . S
O33 C40 1.287 . S
O34 Fe23 1.996 . S
O34 C40 1.255 . S
O35 Fe25 1.976 . S
O35 C30 1.287 . S
O36 Fe22 1.996 . S
O36 C30 1.255 . S
C37 O41 1.295 . S
C37 O42 1.235 . S
O38 Fe23 1.976 . S
O38 C32 1.287 . S
O39 Fe25 1.996 . S
O39 C32 1.255 . S
C40 O33 1.287 . S
C40 O34 1.255 . S
O41 Fe23 2.002 . S
O41 C37 1.295 . S
O42 Fe25 1.997 . S
O42 C37 1.235 . S
C43 O26 1.295 . S
C43 O27 1.235 . S
Fe44 O46 1.912 1_556 S
Fe44 O49 1.997 . S
Fe44 O50 2.002 . S
Fe44 O55 1.976 . S
Fe44 O58 1.996 . S
Fe45 O46 1.924 . S
Fe45 O53 1.997 . S
Fe45 O56 1.996 . S
Fe45 O60 1.976 . S
Fe45 O63 2.002 . S
O46 Fe44 1.912 1_554 S
O46 Fe45 1.924 . S
O46 Fe47 1.918 . S
Fe47 O46 1.918 . S
Fe47 O48 2.002 1_554 S
Fe47 O57 1.976 1_554 S
Fe47 O61 1.996 . S
Fe47 O64 1.997 . S
O48 Fe47 2.002 1_556 S
O48 C65 1.295 . S
O49 Fe44 1.997 . S
O49 C65 1.235 . S
O50 Fe44 2.002 . S
O50 C51 1.295 . S
C51 O50 1.295 . S
C51 O53 1.235 1_556 S
C52 O57 1.287 . S
C52 O58 1.255 . S
O53 Fe45 1.997 . S
O53 C51 1.235 1_554 S
C54 O60 1.287 . S
C54 O61 1.255 . S
O55 Fe44 1.976 . S
O55 C62 1.287 1_556 S
O56 Fe45 1.996 . S
O56 C62 1.255 . S
O57 Fe47 1.976 1_556 S
O57 C52 1.287 . S
O58 Fe44 1.996 . S
O58 C52 1.255 . S
C59 O63 1.295 . S
C59 O64 1.235 . S
O60 Fe45 1.976 . S
O60 C54 1.287 . S
O61 Fe47 1.996 . S
O61 C54 1.255 . S
C62 O55 1.287 1_554 S
C62 O56 1.255 . S
O63 Fe45 2.002 . S
O63 C59 1.295 . S
O64 Fe47 1.997 . S
O64 C59 1.235 . S
C65 O48 1.295 . S
C65 O49 1.235 . S
Fe66 O68 1.918 . S
Fe66 O71 1.997 . S
Fe66 O72 2.002 . S
Fe66 O77 1.976 . S
Fe66 O80 1.996 . S
Fe67 O68 1.918 . S
Fe67 O75 1.997 . S
Fe67 O78 1.996 . S
Fe67 O82 1.976 . S
Fe67 O85 2.002 . S
O68 Fe66 1.918 . S
O68 Fe67 1.918 . S
O68 Fe69 1.918 . S
Fe69 O68 1.918 . S
Fe69 O70 2.002 . S
Fe69 O79 1.976 . S
Fe69 O83 1.996 . S
Fe69 O86 1.997 . S
O70 Fe69 2.002 . S
O70 C87 1.295 . S
O71 Fe66 1.997 . S
O71 C87 1.235 . S
O72 Fe66 2.002 . S
O72 C73 1.295 . S
C73 O72 1.295 . S
C73 O75 1.235 . S
C74 O79 1.287 . S
C74 O80 1.255 . S
O75 Fe67 1.997 . S
O75 C73 1.235 . S
C76 O82 1.287 . S
C76 O83 1.255 . S
O77 Fe66 1.976 . S
O77 C84 1.287 . S
O78 Fe67 1.996 . S
O78 C84 1.255 . S
O79 Fe69 1.976 . S
O79 C74 1.287 . S
O80 Fe66 1.996 . S
O80 C74 1.255 . S
C81 O85 1.295 . S
C81 O86 1.235 . S
O82 Fe67 1.976 . S
O82 C76 1.287 . S
O83 Fe69 1.996 . S
O83 C76 1.255 . S
C84 O77 1.287 . S
C84 O78 1.255 . S
O85 Fe67 2.002 . S
O85 C81 1.295 . S
O86 Fe69 1.997 . S
O86 C81 1.235 . S
C87 O70 1.295 . S
C87 O71 1.235 . S
C88 N89 1.317 . S
C88 N90 1.361 . S
C88 C91 1.485 . S
N89 C88 1.317 . S
N89 N93 1.370 1_556 S
N90 C88 1.361 . S
N90 C92 1.334 1_556 S
C91 C88 1.485 . S
C91 H95 0.960 . S
C91 H96 0.961 . S
C91 H97 0.960 . S
C92 N90 1.334 1_554 S
C92 N93 1.307 . S
C92 C94 1.486 . S
N93 N89 1.370 1_554 S
N93 C92 1.307 . S
C94 C92 1.486 . S
C94 H98 0.960 . S
C94 H99 0.960 . S
C94 H100 0.959 . S
H95 C91 0.960 . S
H96 C91 0.961 . S
H97 C91 0.960 . S
H98 C94 0.960 . S
H99 C94 0.960 . S
H100 C94 0.959 . S
C101 N102 1.317 1_455 S
C101 N103 1.348 . S
C101 C104 1.485 . S
N102 C101 1.317 1_655 S
N102 N106 1.370 . S
N103 C101 1.348 . S
N103 C105 1.346 . S
C104 C101 1.485 . S
C104 H108 0.960 . S
C104 H109 0.961 . S
C104 H110 0.960 1_455 S
C105 N103 1.346 . S
C105 N106 1.307 1_455 S
C105 C107 1.486 . S
N106 N102 1.370 . S
N106 C105 1.307 1_655 S
C107 C105 1.486 . S
C107 H111 0.960 . S
C107 H112 0.960 . S
C107 H113 0.959 . S
H108 C104 0.960 . S
H109 C104 0.961 . S
H110 C104 0.960 1_655 S
H111 C107 0.960 . S
H112 C107 0.960 . S
H113 C107 0.959 . S
C114 N115 1.317 . S
C114 N116 1.348 . S
C114 C117 1.485 . S
N115 C114 1.317 . S
N115 N119 1.370 1_554 S
N116 C114 1.348 . S
N116 C118 1.346 1_554 S
C117 C114 1.485 . S
C117 H121 0.960 . S
C117 H122 0.961 . S
C117 H123 0.960 . S
C118 N116 1.346 1_556 S
C118 N119 1.307 . S
C118 C120 1.486 . S
N119 N115 1.370 1_556 S
N119 C118 1.307 . S
C120 C118 1.486 . S
C120 H124 0.960 . S
C120 H125 0.960 . S
C120 H126 0.959 . S
H121 C117 0.960 . S
H122 C117 0.961 . S
H123 C117 0.960 . S
H124 C120 0.960 . S
H125 C120 0.960 . S
H126 C120 0.959 . S
C127 N128 1.317 1_655 S
C127 N129 1.348 . S
C127 C130 1.485 . S
N128 C127 1.317 1_455 S
N128 N132 1.370 . S
N129 C127 1.348 . S
N129 C131 1.346 . S
C130 C127 1.485 . S
C130 H134 0.960 . S
C130 H135 0.961 . S
C130 H136 0.960 . S
C131 N129 1.346 . S
C131 N132 1.307 1_655 S
C131 C133 1.486 . S
N132 N128 1.370 . S
N132 C131 1.307 1_455 S
C133 C131 1.486 . S
C133 H137 0.960 . S
C133 H138 0.960 . S
C133 H139 0.945 1_655 S
H134 C130 0.960 . S
H135 C130 0.961 . S
H136 C130 0.960 . S
H137 C133 0.960 . S
H138 C133 0.960 . S
H139 C133 0.945 1_455 S
C140 N141 1.317 1_545 S
C140 N142 1.348 . S
C140 C143 1.485 . S
N141 C140 1.317 1_565 S
N141 N145 1.370 . S
N142 C140 1.348 . S
N142 C144 1.346 . S
C143 C140 1.485 . S
C143 H147 0.960 . S
C143 H148 0.961 . S
C143 H149 0.960 . S
C144 N142 1.346 . S
C144 N145 1.307 1_545 S
C144 C146 1.486 . S
N145 N141 1.370 . S
N145 C144 1.307 1_565 S
C146 C144 1.486 . S
C146 H150 0.960 . S
C146 H151 0.960 . S
C146 H152 0.959 . S
H147 C143 0.960 . S
H148 C143 0.961 . S
H149 C143 0.960 . S
H150 C146 0.960 . S
H151 C146 0.960 . S
H152 C146 0.959 . S
C153 N154 1.317 . S
C153 N155 1.361 . S
C153 C156 1.485 . S
N154 C153 1.317 . S
N154 N158 1.370 1_556 S
N155 C153 1.361 . S
N155 C157 1.334 1_556 S
C156 C153 1.485 . S
C156 H160 0.960 . S
C156 H161 0.961 . S
C156 H162 0.960 . S
C157 N155 1.334 1_554 S
C157 N158 1.307 . S
C157 C159 1.486 . S
N158 N154 1.370 1_554 S
N158 C157 1.307 . S
C159 C157 1.486 . S
C159 H163 0.960 . S
C159 H164 0.960 . S
C159 H165 0.959 . S
H160 C156 0.960 . S
H161 C156 0.961 . S
H162 C156 0.960 . S
H163 C159 0.960 . S
H164 C159 0.960 . S
H165 C159 0.959 . S
C166 N167 1.317 1_565 S
C166 N168 1.348 . S
C166 C169 1.485 . S
N167 C166 1.317 1_545 S
N167 N171 1.370 . S
N168 C166 1.348 . S
N168 C170 1.346 . S
C169 C166 1.485 . S
C169 H173 0.960 . S
C169 H174 0.961 . S
C169 H175 0.960 1_565 S
C170 N168 1.346 . S
C170 N171 1.307 1_565 S
C170 C172 1.486 . S
N171 N167 1.370 . S
N171 C170 1.307 1_545 S
C172 C170 1.486 . S
C172 H176 0.960 . S
C172 H177 0.960 . S
C172 H178 0.929 1_565 S
H173 C169 0.960 . S
H174 C169 0.961 . S
H175 C169 0.960 1_545 S
H176 C172 0.960 . S
H177 C172 0.960 . S
H178 C172 0.929 1_545 S
C179 N180 1.317 . S
C179 N181 1.348 . S
C179 C182 1.485 . S
N180 C179 1.317 . S
N180 N184 1.370 1_554 S
N181 C179 1.348 . S
N181 C183 1.346 1_554 S
C182 C179 1.485 . S
C182 H186 0.960 . S
C182 H187 0.961 . S
C182 H188 0.960 . S
C183 N181 1.346 1_556 S
C183 N184 1.307 . S
C183 C185 1.486 . S
N184 N180 1.370 1_556 S
N184 C183 1.307 . S
C185 C183 1.486 . S
C185 H189 0.960 . S
C185 H190 0.960 . S
C185 H191 0.959 . S
H186 C182 0.960 . S
H187 C182 0.961 . S
H188 C182 0.960 . S
H189 C185 0.960 . S
H190 C185 0.960 . S
H191 C185 0.959 . S
H192 C198 0.930 . S
H193 C202 0.930 . S
H194 C207 0.929 . S
H195 C205 0.929 . S
H196 C200 0.929 . S
H197 C206 0.929 . S
C198 H192 0.930 . S
C198 C199 1.367 . S
C198 C206 1.378 . S
C199 C198 1.367 . S
C199 C207 1.433 . S
C200 H196 0.929 . S
C200 C202 1.378 . S
C200 C204 1.350 . S
C201 C204 1.463 . S
C201 C206 1.350 . S
C201 N209 1.427 . S
C202 H193 0.930 . S
C202 C200 1.378 . S
C202 C203 1.367 . S
C203 C202 1.367 . S
C203 C205 1.433 . S
C204 C200 1.350 . S
C204 C201 1.463 . S
C204 N208 1.427 . S
C205 H195 0.929 . S
C205 C203 1.433 . S
C205 N208 1.384 . S
C206 H197 0.929 . S
C206 C198 1.378 . S
C206 C201 1.350 . S
C207 H194 0.929 . S
C207 C199 1.433 . S
C207 N209 1.384 . S
N208 C204 1.427 . S
N208 C205 1.384 . S
N209 C201 1.427 . S
N209 C207 1.384 . S
H210 C216 0.930 . S
H211 C220 0.930 . S
H212 C225 0.929 . S
H213 C223 0.929 . S
H214 C218 0.929 . S
H215 C224 0.929 . S
C216 H210 0.930 . S
C216 C217 1.367 . S
C216 C224 1.378 . S
C217 C216 1.367 . S
C217 C225 1.433 . S
C218 H214 0.929 . S
C218 C220 1.378 . S
C218 C222 1.350 . S
C219 C222 1.463 . S
C219 C224 1.350 . S
C219 N227 1.427 . S
C220 H211 0.930 . S
C220 C218 1.378 . S
C220 C221 1.367 . S
C221 C220 1.367 . S
C221 C223 1.433 . S
C222 C218 1.350 . S
C222 C219 1.463 . S
C222 N226 1.427 . S
C223 H213 0.929 . S
C223 C221 1.433 . S
C223 N226 1.384 . S
C224 H215 0.929 . S
C224 C216 1.378 . S
C224 C219 1.350 . S
C225 H212 0.929 . S
C225 C217 1.433 . S
C225 N227 1.384 . S
N226 C222 1.427 . S
N226 C223 1.384 . S
N227 C219 1.427 . S
N227 C225 1.384 . S
H228 C234 0.930 . S
H229 C238 0.930 . S
H230 C243 0.929 . S
H231 C241 0.929 . S
H232 C236 0.929 . S
H233 C242 0.929 . S
C234 H228 0.930 . S
C234 C235 1.367 . S
C234 C242 1.378 . S
C235 C234 1.367 . S
C235 C243 1.433 . S
C236 H232 0.929 . S
C236 C238 1.378 . S
C236 C240 1.350 . S
C237 C240 1.463 . S
C237 C242 1.350 . S
C237 N245 1.427 . S
C238 H229 0.930 . S
C238 C236 1.378 . S
C238 C239 1.367 . S
C239 C238 1.367 . S
C239 C241 1.433 . S
C240 C236 1.350 . S
C240 C237 1.463 . S
C240 N244 1.427 . S
C241 H231 0.929 . S
C241 C239 1.433 . S
C241 N244 1.384 . S
C242 H233 0.929 . S
C242 C234 1.378 . S
C242 C237 1.350 . S
C243 H230 0.929 . S
C243 C235 1.433 . S
C243 N245 1.384 . S
N244 C240 1.427 . S
N244 C241 1.384 . S
N245 C237 1.427 . S
N245 C243 1.384 . S
H246 C252 0.930 . S
H247 C256 0.930 . S
H248 C261 0.929 . S
H249 C259 0.929 . S
H250 C254 0.929 . S
H251 C260 0.929 . S
C252 H246 0.930 . S
C252 C253 1.367 . S
C252 C260 1.378 . S
C253 C252 1.367 . S
C253 C261 1.433 . S
C254 H250 0.929 . S
C254 C256 1.378 . S
C254 C258 1.350 . S
C255 C258 1.463 . S
C255 C260 1.350 . S
C255 N263 1.427 . S
C256 H247 0.930 . S
C256 C254 1.378 . S
C256 C257 1.367 . S
C257 C256 1.367 . S
C257 C259 1.433 . S
C258 C254 1.350 . S
C258 C255 1.463 . S
C258 N262 1.427 . S
C259 H249 0.929 . S
C259 C257 1.433 . S
C259 N262 1.384 . S
C260 H251 0.929 . S
C260 C252 1.378 . S
C260 C255 1.350 . S
C261 H248 0.929 . S
C261 C253 1.433 . S
C261 N263 1.384 . S
N262 C258 1.427 . S
N262 C259 1.384 . S
N263 C255 1.427 . S
N263 C261 1.384 . S
H264 C270 0.930 . S
H265 C274 0.930 . S
H266 C279 0.929 . S
H267 C277 0.929 . S
H268 C272 0.929 . S
H269 C278 0.929 . S
C270 H264 0.930 . S
C270 C271 1.367 . S
C270 C278 1.378 . S
C271 C270 1.367 . S
C271 C279 1.433 . S
C272 H268 0.929 . S
C272 C274 1.378 . S
C272 C276 1.350 . S
C273 C276 1.463 . S
C273 C278 1.350 . S
C273 N281 1.427 . S
C274 H265 0.930 . S
C274 C272 1.378 . S
C274 C275 1.367 . S
C275 C274 1.367 . S
C275 C277 1.433 . S
C276 C272 1.350 . S
C276 C273 1.463 . S
C276 N280 1.427 . S
C277 H267 0.929 . S
C277 C275 1.433 . S
C277 N280 1.384 . S
C278 H269 0.929 . S
C278 C270 1.378 . S
C278 C273 1.350 . S
C279 H266 0.929 . S
C279 C271 1.433 . S
C279 N281 1.384 . S
N280 C276 1.427 . S
N280 C277 1.384 . S
N281 C273 1.427 . S
N281 C279 1.384 . S
H282 C288 0.930 . S
H283 C292 0.930 . S
H284 C297 0.929 . S
H285 C295 0.929 . S
H286 C290 0.929 . S
H287 C296 0.929 . S
C288 H282 0.930 . S
C288 C289 1.367 . S
C288 C296 1.378 . S
C289 C288 1.367 . S
C289 C297 1.433 . S
C290 H286 0.929 . S
C290 C292 1.378 . S
C290 C294 1.350 . S
C291 C294 1.463 . S
C291 C296 1.350 . S
C291 N299 1.427 . S
C292 H283 0.930 . S
C292 C290 1.378 . S
C292 C293 1.367 . S
C293 C292 1.367 . S
C293 C295 1.433 . S
C294 C290 1.350 . S
C294 C291 1.463 . S
C294 N298 1.427 . S
C295 H285 0.929 . S
C295 C293 1.433 . S
C295 N298 1.384 . S
C296 H287 0.929 . S
C296 C288 1.378 . S
C296 C291 1.350 . S
C297 H284 0.929 . S
C297 C289 1.433 . S
C297 N299 1.384 . S
N298 C294 1.427 . S
N298 C295 1.384 . S
N299 C291 1.427 . S
N299 C297 1.384 . S
H300 C306 0.930 . S
H301 C310 0.930 . S
H302 C315 0.929 . S
H303 C313 0.929 . S
H304 C308 0.929 . S
H305 C314 0.929 . S
C306 H300 0.930 . S
C306 C307 1.367 . S
C306 C314 1.378 . S
C307 C306 1.367 . S
C307 C315 1.433 . S
C308 H304 0.929 . S
C308 C310 1.378 . S
C308 C312 1.350 . S
C309 C312 1.463 . S
C309 C314 1.350 . S
C309 N317 1.427 . S
C310 H301 0.930 . S
C310 C308 1.378 . S
C310 C311 1.367 . S
C311 C310 1.367 . S
C311 C313 1.433 . S
C312 C308 1.350 . S
C312 C309 1.463 . S
C312 N316 1.427 . S
C313 H303 0.929 . S
C313 C311 1.433 . S
C313 N316 1.384 . S
C314 H305 0.929 . S
C314 C306 1.378 . S
C314 C309 1.350 . S
C315 H302 0.929 . S
C315 C307 1.433 . S
C315 N317 1.384 . S
N316 C312 1.427 . S
N316 C313 1.384 . S
N317 C309 1.427 . S
N317 C315 1.384 . S
H318 C324 0.930 . S
H319 C328 0.930 . S
H320 C333 0.929 . S
H321 C331 0.929 . S
H322 C326 0.929 . S
H323 C332 0.929 . S
C324 H318 0.930 . S
C324 C325 1.367 . S
C324 C332 1.378 . S
C325 C324 1.367 . S
C325 C333 1.433 . S
C326 H322 0.929 . S
C326 C328 1.378 . S
C326 C330 1.350 . S
C327 C330 1.463 . S
C327 C332 1.350 . S
C327 N335 1.427 . S
C328 H319 0.930 . S
C328 C326 1.378 . S
C328 C329 1.367 . S
C329 C328 1.367 . S
C329 C331 1.433 . S
C330 C326 1.350 . S
C330 C327 1.463 . S
C330 N334 1.427 . S
C331 H321 0.929 . S
C331 C329 1.433 . S
C331 N334 1.384 . S
C332 H323 0.929 . S
C332 C324 1.378 . S
C332 C327 1.350 . S
C333 H320 0.929 . S
C333 C325 1.433 . S
C333 N335 1.384 . S
N334 C330 1.427 . S
N334 C331 1.384 . S
N335 C327 1.427 . S
N335 C333 1.384 . S
H336 C342 0.930 . S
H337 C346 0.930 . S
H338 C351 0.929 . S
H339 C349 0.929 . S
H340 C344 0.929 . S
H341 C350 0.929 . S
C342 H336 0.930 . S
C342 C343 1.367 . S
C342 C350 1.378 . S
C343 C342 1.367 . S
C343 C351 1.433 . S
C344 H340 0.929 . S
C344 C346 1.378 . S
C344 C348 1.350 . S
C345 C348 1.463 . S
C345 C350 1.350 . S
C345 N353 1.427 . S
C346 H337 0.930 . S
C346 C344 1.378 . S
C346 C347 1.367 . S
C347 C346 1.367 . S
C347 C349 1.433 . S
C348 C344 1.350 . S
C348 C345 1.463 . S
C348 N352 1.427 . S
C349 H339 0.929 . S
C349 C347 1.433 . S
C349 N352 1.384 . S
C350 H341 0.929 . S
C350 C342 1.378 . S
C350 C345 1.350 . S
C351 H338 0.929 . S
C351 C343 1.433 . S
C351 N353 1.384 . S
N352 C348 1.427 . S
N352 C349 1.384 . S
N353 C345 1.427 . S
N353 C351 1.384 . S
H354 C360 0.930 . S
H355 C364 0.930 . S
H356 C369 0.929 . S
H357 C367 0.929 . S
H358 C362 0.929 . S
H359 C368 0.929 . S
C360 H354 0.930 . S
C360 C361 1.367 . S
C360 C368 1.378 . S
C361 C360 1.367 . S
C361 C369 1.433 . S
C362 H358 0.929 . S
C362 C364 1.378 . S
C362 C366 1.350 . S
C363 C366 1.463 . S
C363 C368 1.350 . S
C363 N371 1.427 . S
C364 H355 0.930 . S
C364 C362 1.378 . S
C364 C365 1.367 . S
C365 C364 1.367 . S
C365 C367 1.433 . S
C366 C362 1.350 . S
C366 C363 1.463 . S
C366 N370 1.427 . S
C367 H357 0.929 . S
C367 C365 1.433 . S
C367 N370 1.384 . S
C368 H359 0.929 . S
C368 C360 1.378 . S
C368 C363 1.350 . S
C369 H356 0.929 . S
C369 C361 1.433 . S
C369 N371 1.384 . S
N370 C366 1.427 . S
N370 C367 1.384 . S
N371 C363 1.427 . S
N371 C369 1.384 . S
H372 C378 0.930 . S
H373 C382 0.930 . S
H374 C387 0.929 . S
H375 C385 0.929 . S
H376 C380 0.929 . S
H377 C386 0.929 . S
C378 H372 0.930 . S
C378 C379 1.367 . S
C378 C386 1.378 . S
C379 C378 1.367 . S
C379 C387 1.433 . S
C380 H376 0.929 . S
C380 C382 1.378 . S
C380 C384 1.350 . S
C381 C384 1.463 . S
C381 C386 1.350 . S
C381 N389 1.427 . S
C382 H373 0.930 . S
C382 C380 1.378 . S
C382 C383 1.367 . S
C383 C382 1.367 . S
C383 C385 1.433 . S
C384 C380 1.350 . S
C384 C381 1.463 . S
C384 N388 1.427 . S
C385 H375 0.929 . S
C385 C383 1.433 . S
C385 N388 1.384 . S
C386 H377 0.929 . S
C386 C378 1.378 . S
C386 C381 1.350 . S
C387 H374 0.929 . S
C387 C379 1.433 . S
C387 N389 1.384 . S
N388 C384 1.427 . S
N388 C385 1.384 . S
N389 C381 1.427 . S
N389 C387 1.384 . S
H390 C396 0.930 . S
H391 C400 0.930 . S
H392 C405 0.929 . S
H393 C403 0.929 . S
H394 C398 0.929 . S
H395 C404 0.929 . S
C396 H390 0.930 . S
C396 C397 1.367 . S
C396 C404 1.378 . S
C397 C396 1.367 . S
C397 C405 1.433 . S
C398 H394 0.929 . S
C398 C400 1.378 . S
C398 C402 1.350 . S
C399 C402 1.463 . S
C399 C404 1.350 . S
C399 N407 1.427 . S
C400 H391 0.930 . S
C400 C398 1.378 . S
C400 C401 1.367 . S
C401 C400 1.367 . S
C401 C403 1.433 . S
C402 C398 1.350 . S
C402 C399 1.463 . S
C402 N406 1.427 . S
C403 H393 0.929 . S
C403 C401 1.433 . S
C403 N406 1.384 . S
C404 H395 0.929 . S
C404 C396 1.378 . S
C404 C399 1.350 . S
C405 H392 0.929 . S
C405 C397 1.433 . S
C405 N407 1.384 . S
N406 C402 1.427 . S
N406 C403 1.384 . S
N407 C399 1.427 . S
N407 C405 1.384 . S
H408 C414 0.930 . S
H409 C418 0.930 . S
H410 C423 0.929 . S
H411 C421 0.929 . S
H412 C416 0.929 . S
H413 C422 0.929 . S
C414 H408 0.930 . S
C414 C415 1.367 . S
C414 C422 1.378 . S
C415 C414 1.367 . S
C415 C423 1.433 . S
C416 H412 0.929 . S
C416 C418 1.378 . S
C416 C420 1.350 . S
C417 C420 1.463 . S
C417 C422 1.350 . S
C417 N425 1.427 . S
C418 H409 0.930 . S
C418 C416 1.378 . S
C418 C419 1.367 . S
C419 C418 1.367 . S
C419 C421 1.433 . S
C420 C416 1.350 . S
C420 C417 1.463 . S
C420 N424 1.427 . S
C421 H411 0.929 . S
C421 C419 1.433 . S
C421 N424 1.384 . S
C422 H413 0.929 . S
C422 C414 1.378 . S
C422 C417 1.350 . S
C423 H410 0.929 . S
C423 C415 1.433 . S
C423 N425 1.384 . S
N424 C420 1.427 . S
N424 C421 1.384 . S
N425 C417 1.427 . S
N425 C423 1.384 . S
H426 C432 0.930 . S
H427 C436 0.930 . S
H428 C441 0.929 . S
H429 C439 0.929 . S
H430 C434 0.929 . S
H431 C440 0.929 . S
C432 H426 0.930 . S
C432 C433 1.367 . S
C432 C440 1.378 . S
C433 C432 1.367 . S
C433 C441 1.433 . S
C434 H430 0.929 . S
C434 C436 1.378 . S
C434 C438 1.350 . S
C435 C438 1.463 . S
C435 C440 1.350 . S
C435 N443 1.427 . S
C436 H427 0.930 . S
C436 C434 1.378 . S
C436 C437 1.367 . S
C437 C436 1.367 . S
C437 C439 1.433 . S
C438 C434 1.350 . S
C438 C435 1.463 . S
C438 N442 1.427 . S
C439 H429 0.929 . S
C439 C437 1.433 . S
C439 N442 1.384 . S
C440 H431 0.929 . S
C440 C432 1.378 . S
C440 C435 1.350 . S
C441 H428 0.929 . S
C441 C433 1.433 . S
C441 N443 1.384 . S
N442 C438 1.427 . S
N442 C439 1.384 . S
N443 C435 1.427 . S
N443 C441 1.384 . S
H444 C450 0.930 . S
H445 C454 0.930 . S
H446 C459 0.929 . S
H447 C457 0.929 . S
H448 C452 0.929 . S
H449 C458 0.929 . S
C450 H444 0.930 . S
C450 C451 1.367 . S
C450 C458 1.378 . S
C451 C450 1.367 . S
C451 C459 1.433 . S
C452 H448 0.929 . S
C452 C454 1.378 . S
C452 C456 1.350 . S
C453 C456 1.463 . S
C453 C458 1.350 . S
C453 N461 1.427 . S
C454 H445 0.930 . S
C454 C452 1.378 . S
C454 C455 1.367 . S
C455 C454 1.367 . S
C455 C457 1.433 . S
C456 C452 1.350 . S
C456 C453 1.463 . S
C456 N460 1.427 . S
C457 H447 0.929 . S
C457 C455 1.433 . S
C457 N460 1.384 . S
C458 H449 0.929 . S
C458 C450 1.378 . S
C458 C453 1.350 . S
C459 H446 0.929 . S
C459 C451 1.433 . S
C459 N461 1.384 . S
N460 C456 1.427 . S
N460 C457 1.384 . S
N461 C453 1.427 . S
N461 C459 1.384 . S
H462 C468 0.930 . S
H463 C472 0.930 . S
H464 C477 0.929 . S
H465 C475 0.929 . S
H466 C470 0.929 . S
H467 C476 0.929 . S
C468 H462 0.930 . S
C468 C469 1.367 . S
C468 C476 1.378 . S
C469 C468 1.367 . S
C469 C477 1.433 . S
C470 H466 0.929 . S
C470 C472 1.378 . S
C470 C474 1.350 . S
C471 C474 1.463 . S
C471 C476 1.350 . S
C471 N479 1.427 . S
C472 H463 0.930 . S
C472 C470 1.378 . S
C472 C473 1.367 . S
C473 C472 1.367 . S
C473 C475 1.433 . S
C474 C470 1.350 . S
C474 C471 1.463 . S
C474 N478 1.427 . S
C475 H465 0.929 . S
C475 C473 1.433 . S
C475 N478 1.384 . S
C476 H467 0.929 . S
C476 C468 1.378 . S
C476 C471 1.350 . S
C477 H464 0.929 . S
C477 C469 1.433 . S
C477 N479 1.384 . S
N478 C474 1.427 . S
N478 C475 1.384 . S
N479 C471 1.427 . S
N479 C477 1.384 . S
H480 C486 0.930 . S
H481 C490 0.930 . S
H482 C495 0.929 . S
H483 C493 0.929 . S
H484 C488 0.929 . S
H485 C494 0.929 . S
C486 H480 0.930 . S
C486 C487 1.367 . S
C486 C494 1.378 . S
C487 C486 1.367 . S
C487 C495 1.433 1_554 S
C488 H484 0.929 . S
C488 C490 1.378 . S
C488 C492 1.350 . S
C489 C492 1.463 1_554 S
C489 C494 1.350 . S
C489 N497 1.427 1_554 S
C490 H481 0.930 . S
C490 C488 1.378 . S
C490 C491 1.367 . S
C491 C490 1.367 . S
C491 C493 1.433 1_556 S
C492 C488 1.350 . S
C492 C489 1.463 1_556 S
C492 N496 1.427 1_556 S
C493 H483 0.929 . S
C493 C491 1.433 1_554 S
C493 N496 1.384 . S
C494 H485 0.929 . S
C494 C486 1.378 . S
C494 C489 1.350 . S
C495 H482 0.929 . S
C495 C487 1.433 1_556 S
C495 N497 1.384 . S
N496 C492 1.427 1_554 S
N496 C493 1.384 . S
N497 C489 1.427 1_556 S
N497 C495 1.384 . S
H498 C504 0.930 . S
H499 C508 0.930 . S
H500 C513 0.929 . S
H501 C511 0.929 . S
H502 C506 0.929 . S
H503 C512 0.929 . S
C504 H498 0.930 . S
C504 C505 1.367 . S
C504 C512 1.378 . S
C505 C504 1.367 . S
C505 C513 1.433 . S
C506 H502 0.929 . S
C506 C508 1.378 . S
C506 C510 1.350 . S
C507 C510 1.463 . S
C507 C512 1.350 . S
C507 N515 1.427 . S
C508 H499 0.930 . S
C508 C506 1.378 . S
C508 C509 1.367 . S
C509 C508 1.367 . S
C509 C511 1.433 . S
C510 C506 1.350 . S
C510 C507 1.463 . S
C510 N514 1.427 . S
C511 H501 0.929 . S
C511 C509 1.433 . S
C511 N514 1.384 . S
C512 H503 0.929 . S
C512 C504 1.378 . S
C512 C507 1.350 . S
C513 H500 0.929 . S
C513 C505 1.433 . S
C513 N515 1.384 . S
N514 C510 1.427 . S
N514 C511 1.384 . S
N515 C507 1.427 . S
N515 C513 1.384 . S
H516 C522 0.930 . S
H517 C526 0.930 . S
H518 C531 0.929 . S
H519 C529 0.929 . S
H520 C524 0.929 . S
H521 C530 0.929 . S
C522 H516 0.930 . S
C522 C523 1.367 . S
C522 C530 1.378 . S
C523 C522 1.367 . S
C523 C531 1.433 1_554 S
C524 H520 0.929 . S
C524 C526 1.378 . S
C524 C528 1.360 . S
C525 C528 1.462 1_554 S
C525 C530 1.350 . S
C525 N533 1.427 1_554 S
C526 H517 0.930 . S
C526 C524 1.378 . S
C526 C527 1.373 . S
C527 C526 1.373 . S
C527 C529 1.427 1_556 S
C528 C524 1.360 . S
C528 C525 1.462 1_556 S
C528 N532 1.417 1_556 S
C529 H519 0.929 . S
C529 C527 1.427 1_554 S
C529 N532 1.384 . S
C530 H521 0.929 . S
C530 C522 1.378 . S
C530 C525 1.350 . S
C531 H518 0.929 . S
C531 C523 1.433 1_556 S
C531 N533 1.384 . S
N532 C528 1.417 1_554 S
N532 C529 1.384 . S
N533 C525 1.427 1_556 S
N533 C531 1.384 . S
H534 C540 0.930 . S
H535 C544 0.930 . S
H536 C549 0.929 . S
H537 C547 0.929 . S
H538 C542 0.929 . S
H539 C548 0.929 . S
C540 H534 0.930 . S
C540 C541 1.367 . S
C540 C548 1.378 . S
C541 C540 1.367 . S
C541 C549 1.433 . S
C542 H538 0.929 . S
C542 C544 1.378 . S
C542 C546 1.350 . S
C543 C546 1.463 . S
C543 C548 1.350 . S
C543 N551 1.427 . S
C544 H535 0.930 . S
C544 C542 1.378 . S
C544 C545 1.367 . S
C545 C544 1.367 . S
C545 C547 1.433 . S
C546 C542 1.350 . S
C546 C543 1.463 . S
C546 N550 1.427 . S
C547 H537 0.929 . S
C547 C545 1.433 . S
C547 N550 1.384 . S
C548 H539 0.929 . S
C548 C540 1.378 . S
C548 C543 1.350 . S
C549 H536 0.929 . S
C549 C541 1.433 . S
C549 N551 1.384 . S
N550 C546 1.427 . S
N550 C547 1.384 . S
N551 C543 1.427 . S
N551 C549 1.384 . S
H552 C558 0.930 . S
H553 C562 0.930 . S
H554 C567 0.929 . S
H555 C565 0.929 . S
H556 C560 0.929 . S
H557 C566 0.929 . S
C558 H552 0.930 . S
C558 C559 1.367 . S
C558 C566 1.378 . S
C559 C558 1.367 . S
C559 C567 1.433 . S
C560 H556 0.929 . S
C560 C562 1.378 . S
C560 C564 1.350 . S
C561 C564 1.463 . S
C561 C566 1.350 . S
C561 N569 1.427 . S
C562 H553 0.930 . S
C562 C560 1.378 . S
C562 C563 1.367 . S
C563 C562 1.367 . S
C563 C565 1.433 . S
C564 C560 1.350 . S
C564 C561 1.463 . S
C564 N568 1.427 . S
C565 H555 0.929 . S
C565 C563 1.433 . S
C565 N568 1.384 . S
C566 H557 0.929 . S
C566 C558 1.378 . S
C566 C561 1.350 . S
C567 H554 0.929 . S
C567 C559 1.433 . S
C567 N569 1.384 . S
N568 C564 1.427 . S
N568 C565 1.384 . S
N569 C561 1.427 . S
N569 C567 1.384 . S
H570 C576 0.930 . S
H571 C580 0.930 . S
H572 C585 0.929 . S
H573 C583 0.929 . S
H574 C578 0.929 . S
H575 C584 0.929 . S
C576 H570 0.930 . S
C576 C577 1.367 . S
C576 C584 1.378 . S
C577 C576 1.367 . S
C577 C585 1.433 1_556 S
C578 H574 0.929 . S
C578 C580 1.378 . S
C578 C582 1.350 . S
C579 C582 1.463 1_556 S
C579 C584 1.350 . S
C579 N587 1.427 1_556 S
C580 H571 0.930 . S
C580 C578 1.378 . S
C580 C581 1.367 . S
C581 C580 1.367 . S
C581 C583 1.433 1_554 S
C582 C578 1.350 . S
C582 C579 1.463 1_554 S
C582 N586 1.427 1_554 S
C583 H573 0.929 . S
C583 C581 1.433 1_556 S
C583 N586 1.384 . S
C584 H575 0.929 . S
C584 C576 1.378 . S
C584 C579 1.350 . S
C585 H572 0.929 . S
C585 C577 1.433 1_554 S
C585 N587 1.384 . S
N586 C582 1.427 1_556 S
N586 C583 1.384 . S
N587 C579 1.427 1_554 S
N587 C585 1.384 . S
H588 C594 0.930 . S
H589 C598 0.930 . S
H590 C603 0.929 . S
H591 C601 0.929 . S
H592 C596 0.929 . S
H593 C602 0.929 . S
C594 H588 0.930 . S
C594 C595 1.367 . S
C594 C602 1.378 . S
C595 C594 1.367 . S
C595 C603 1.433 . S
C596 H592 0.929 . S
C596 C598 1.378 . S
C596 C600 1.350 . S
C597 C600 1.463 . S
C597 C602 1.350 . S
C597 N605 1.427 . S
C598 H589 0.930 . S
C598 C596 1.378 . S
C598 C599 1.367 . S
C599 C598 1.367 . S
C599 C601 1.433 . S
C600 C596 1.350 . S
C600 C597 1.463 . S
C600 N604 1.427 . S
C601 H591 0.929 . S
C601 C599 1.433 . S
C601 N604 1.384 . S
C602 H593 0.929 . S
C602 C594 1.378 . S
C602 C597 1.350 . S
C603 H590 0.929 . S
C603 C595 1.433 . S
C603 N605 1.384 . S
N604 C600 1.427 . S
N604 C601 1.384 . S
N605 C597 1.427 . S
N605 C603 1.384 . S
H606 C612 0.930 . S
H607 C616 0.930 . S
H608 C621 0.929 . S
H609 C619 0.929 . S
H610 C614 0.929 . S
H611 C620 0.929 . S
C612 H606 0.930 . S
C612 C613 1.367 . S
C612 C620 1.378 . S
C613 C612 1.367 . S
C613 C621 1.433 1_556 S
C614 H610 0.929 . S
C614 C616 1.378 . S
C614 C618 1.350 . S
C615 C618 1.463 1_556 S
C615 C620 1.350 . S
C615 N623 1.427 1_556 S
C616 H607 0.930 . S
C616 C614 1.378 . S
C616 C617 1.367 . S
C617 C616 1.367 . S
C617 C619 1.433 1_554 S
C618 C614 1.350 . S
C618 C615 1.463 1_554 S
C618 N622 1.427 1_554 S
C619 H609 0.929 . S
C619 C617 1.433 1_556 S
C619 N622 1.384 . S
C620 H611 0.929 . S
C620 C612 1.378 . S
C620 C615 1.350 . S
C621 H608 0.929 . S
C621 C613 1.433 1_554 S
C621 N623 1.384 . S
N622 C618 1.427 1_556 S
N622 C619 1.384 . S
N623 C615 1.427 1_554 S
N623 C621 1.384 . S
C199 C21 1.512 . S
C203 N128 1.515 . S
C217 C40 1.485 . S
C221 N89 1.480 . S
C239 N106 1.461 . S
C235 C54 1.461 . S
C253 C73 1.503 . S
C257 N119 1.514 . S
C275 N158 1.463 . S
C271 C74 1.463 . S
C293 N171 1.482 . S
C289 C10 1.484 . S
C311 N180 1.516 . S
C307 C37 1.505 . S
C329 N141 1.510 . S
C325 C65 1.505 . S
C343 C52 1.461 . S
C347 N102 1.457 . S
C361 C87 1.508 . S
C365 N115 1.515 . S
C379 C15 1.506 . S
C383 N132 1.518 . S
C401 N93 1.479 . S
C397 C32 1.483 . S
C415 C29 1.510 . S
C419 N184 1.519 . S
C437 N145 1.512 . S
C433 C59 1.502 . S
C455 N154 1.461 . S
C451 C84 1.464 . S
C469 C8 1.483 . S
C473 N167 1.482 . S
C491 N90 1.514 . S
C487 C7 1.505 . S
C509 N103 1.481 . S
C505 C30 1.479 . S
C523 C62 1.502 . S
C527 N116 1.504 1_556 S
C541 C81 1.505 . S
C545 N129 1.514 . S
C563 N142 1.499 . S
C559 C76 1.504 . S
C577 C18 1.478 . S
C581 N155 1.480 1_554 S
C595 C43 1.507 . S
C599 N168 1.516 . S
C613 C51 1.501 . S
C617 N181 1.514 . S
