# Generated by pormake.
# Topology pyr, (3,6)-cn, num edge types: 1
# Building blocks:
#     Node 0, Type 0, BuildingBlock: QEWDON_clean_linker_0, # of connection points: 3
#     Node 1, Type 0, BuildingBlock: QEWDON_clean_linker_0, # of connection points: 3
#     Node 2, Type 0, BuildingBlock: QEWDON_clean_linker_0, # of connection points: 3
#     Node 3, Type 0, BuildingBlock: QEWDON_clean_linker_0, # of connection points: 3
#     Node 4, Type 0, BuildingBlock: QEWDON_clean_linker_0, # of connection points: 3
#     Node 5, Type 0, BuildingBlock: QEWDON_clean_linker_0, # of connection points: 3
#     Node 6, Type 0, BuildingBlock: QEWDON_clean_linker_0, # of connection points: 3
#     Node 7, Type 0, BuildingBlock: QEWDON_clean_linker_0, # of connection points: 3
#     Node 8, Type 1, BuildingBlock: CIFDUS_clean_sbu_1, # of connection points: 6
#     Node 9, Type 1, BuildingBlock: CIFDUS_clean_sbu_1, # of connection points: 6
#     Node 10, Type 1, BuildingBlock: CIFDUS_clean_sbu_1, # of connection points: 6
#     Node 11, Type 1, BuildingBlock: CIFDUS_clean_sbu_1, # of connection points: 6
#     Edge 12, Type (0, 1), BuildingBlock: OJICUG_clean_linker_0, # of connection points: 2
#     Edge 13, Type (0, 1), BuildingBlock: OJICUG_clean_linker_0, # of connection points: 2
#     Edge 14, Type (0, 1), BuildingBlock: OJICUG_clean_linker_0, # of connection points: 2
#     Edge 15, Type (0, 1), BuildingBlock: OJICUG_clean_linker_0, # of connection points: 2
#     Edge 16, Type (0, 1), BuildingBlock: OJICUG_clean_linker_0, # of connection points: 2
#     Edge 17, Type (0, 1), BuildingBlock: OJICUG_clean_linker_0, # of connection points: 2
#     Edge 18, Type (0, 1), BuildingBlock: OJICUG_clean_linker_0, # of connection points: 2
#     Edge 19, Type (0, 1), BuildingBlock: OJICUG_clean_linker_0, # of connection points: 2
#     Edge 20, Type (0, 1), BuildingBlock: OJICUG_clean_linker_0, # of connection points: 2
#     Edge 21, Type (0, 1), BuildingBlock: OJICUG_clean_linker_0, # of connection points: 2
#     Edge 22, Type (0, 1), BuildingBlock: OJICUG_clean_linker_0, # of connection points: 2
#     Edge 23, Type (0, 1), BuildingBlock: OJICUG_clean_linker_0, # of connection points: 2
#     Edge 24, Type (0, 1), BuildingBlock: OJICUG_clean_linker_0, # of connection points: 2
#     Edge 25, Type (0, 1), BuildingBlock: OJICUG_clean_linker_0, # of connection points: 2
#     Edge 26, Type (0, 1), BuildingBlock: OJICUG_clean_linker_0, # of connection points: 2
#     Edge 27, Type (0, 1), BuildingBlock: OJICUG_clean_linker_0, # of connection points: 2
#     Edge 28, Type (0, 1), BuildingBlock: OJICUG_clean_linker_0, # of connection points: 2
#     Edge 29, Type (0, 1), BuildingBlock: OJICUG_clean_linker_0, # of connection points: 2
#     Edge 30, Type (0, 1), BuildingBlock: OJICUG_clean_linker_0, # of connection points: 2
#     Edge 31, Type (0, 1), BuildingBlock: OJICUG_clean_linker_0, # of connection points: 2
#     Edge 32, Type (0, 1), BuildingBlock: OJICUG_clean_linker_0, # of connection points: 2
#     Edge 33, Type (0, 1), BuildingBlock: OJICUG_clean_linker_0, # of connection points: 2
#     Edge 34, Type (0, 1), BuildingBlock: OJICUG_clean_linker_0, # of connection points: 2
#     Edge 35, Type (0, 1), BuildingBlock: OJICUG_clean_linker_0, # of connection points: 2
# Relax obj value: 0.141
# Max RMSD: 0.249
# Mean RMSD: 0.188
data_MOF--net-pry--node1-CIFDUS_clean_sbu_1--node2-QEWDON_clean_linker_0--edge1-OJICUG_clean_linker_0
_symmetry_space_group_name_H-M    P1
_symmetry_Int_Tables_number       1
_symmetry_cell_setting            triclinic
loop_
_symmetry_equiv_pos_as_xyz
'x, y, z'
_cell_length_a     27.192959
_cell_length_b     26.029973
_cell_length_c     26.912119
_cell_angle_alpha  93.199103
_cell_angle_beta   91.661826
_cell_angle_gamma 100.99724
loop_
_atom_site_label
_atom_site_type_symbol
_atom_site_fract_x
_atom_site_fract_y
_atom_site_fract_z
_atom_type_partial_charge
H0 H 0.26984 0.24734 0.16026 0.0
C1 C 0.24791 0.22919 0.18983 0.0
C2 C 0.25762 0.18197 0.20765 0.0
C3 C 0.21266 0.25574 0.21181 0.0
H4 H 0.2386 0.12604 0.26327 0.0
C5 C 0.23096 0.16175 0.24873 0.0
C6 C 0.19508 0.18729 0.2717 0.0
C7 C 0.18628 0.23447 0.25261 0.0
C8 C 0.21204 0.31049 0.19822 0.0
H9 H 0.15982 0.25537 0.26999 0.0
C10 C 0.17208 0.3251 0.17049 0.0
C11 C 0.1763 0.37737 0.15546 0.0
C12 C 0.25495 0.34857 0.21158 0.0
H13 H 0.28592 0.33842 0.23267 0.0
C14 C 0.25875 0.39985 0.19791 0.0
H15 H 0.13892 0.29595 0.15967 0.0
C16 C 0.22006 0.41414 0.17018 0.0
H17 H 0.22422 0.45468 0.16096 0.0
H18 H 0.29201 0.4288 0.20882 0.0
H19 H 0.3551 0.95334 0.81033 0.0
C20 C 0.38091 0.93576 0.78815 0.0
C21 C 0.43088 0.93954 0.80538 0.0
C22 C 0.36318 0.9081 0.7431 0.0
H23 H 0.50172 0.91909 0.78856 0.0
C24 C 0.46344 0.91607 0.77512 0.0
C25 C 0.44573 0.88632 0.7298 0.0
C26 C 0.39524 0.88381 0.71447 0.0
C27 C 0.30926 0.89834 0.72875 0.0
H28 H 0.37874 0.8597 0.682 0.0
C29 C 0.29191 0.92034 0.68671 0.0
C30 C 0.24028 0.91081 0.67322 0.0
C31 C 0.27523 0.86522 0.75646 0.0
H32 H 0.28815 0.84753 0.78865 0.0
C33 C 0.22439 0.85413 0.74245 0.0
H34 H 0.31855 0.94568 0.66534 0.0
C35 C 0.2069 0.87688 0.70139 0.0
H36 H 0.16688 0.86946 0.6931 0.0
H37 H 0.19827 0.82856 0.76403 0.0
H38 H 0.72167 0.40493 0.86502 0.0
C39 C 0.71932 0.36804 0.8823 0.0
C40 C 0.75692 0.36283 0.91796 0.0
C41 C 0.67753 0.32733 0.87134 0.0
H42 H 0.77765 0.31381 0.97417 0.0
C43 C 0.75036 0.3172 0.94505 0.0
C44 C 0.70798 0.27658 0.93569 0.0
C45 C 0.67508 0.28051 0.89553 0.0
C46 C 0.63308 0.3349 0.83997 0.0
H47 H 0.64422 0.24851 0.88597 0.0
C48 C 0.63738 0.37099 0.80219 0.0
C49 C 0.59424 0.38048 0.7764 0.0
C50 C 0.58459 0.30791 0.85036 0.0
H51 H 0.57812 0.28239 0.88081 0.0
C52 C 0.54252 0.31479 0.82304 0.0
H53 H 0.67386 0.39257 0.79347 0.0
C54 C 0.54707 0.35085 0.78666 0.0
H55 H 0.51285 0.35761 0.7689 0.0
H56 H 0.50578 0.2937 0.83171 0.0
H57 H 0.8974 0.77369 0.39471 0.0
C58 C 0.87355 0.75071 0.42026 0.0
C59 C 0.88415 0.75881 0.47225 0.0
C60 C 0.82919 0.71757 0.40146 0.0
H61 H 0.85728 0.73952 0.54503 0.0
C62 C 0.85063 0.73216 0.50512 0.0
C63 C 0.80712 0.69809 0.48666 0.0
C64 C 0.79696 0.69039 0.43506 0.0
C65 C 0.81226 0.71682 0.34817 0.0
H66 H 0.76208 0.66552 0.42114 0.0
C67 C 0.8428 0.70632 0.30884 0.0
C68 C 0.82418 0.70246 0.25882 0.0
C69 C 0.76383 0.72557 0.33666 0.0
H70 H 0.73976 0.73453 0.366 0.0
C71 C 0.74584 0.7229 0.28733 0.0
H72 H 0.87991 0.69878 0.31721 0.0
C73 C 0.77555 0.71091 0.24864 0.0
H74 H 0.76051 0.70815 0.21065 0.0
H75 H 0.70845 0.72956 0.2791 0.0
H76 H 0.84733 0.86051 0.92973 0.0
C77 C 0.86481 0.87468 0.89618 0.0
C78 C 0.90909 0.85856 0.88048 0.0
C79 C 0.84184 0.90813 0.8682 0.0
H80 H 0.96535 0.86848 0.82355 0.0
C81 C 0.93122 0.87948 0.83636 0.0
C82 C 0.90914 0.91505 0.80886 0.0
C83 C 0.86409 0.92759 0.82512 0.0
C84 C 0.79245 0.92086 0.88072 0.0
H85 H 0.84577 0.95327 0.80381 0.0
C86 C 0.78449 0.94635 0.92676 0.0
C87 C 0.73898 0.96393 0.93411 0.0
C88 C 0.75379 0.91112 0.84357 0.0
H89 H 0.75886 0.89131 0.80813 0.0
C90 C 0.70866 0.92748 0.85121 0.0
H91 H 0.81392 0.9541 0.95573 0.0
C92 C 0.70139 0.95404 0.89587 0.0
H93 H 0.66575 0.96608 0.90094 0.0
H94 H 0.67927 0.91984 0.82224 0.0
H95 H 0.74302 0.19979 0.53514 0.0
C96 C 0.72183 0.18857 0.50024 0.0
C97 C 0.74272 0.16197 0.46166 0.0
C98 C 0.6745 0.20241 0.49383 0.0
H99 H 0.73048 0.12906 0.38555 0.0
C100 C 0.7151 0.1494 0.41574 0.0
C101 C 0.66806 0.16369 0.40812 0.0
C102 C 0.64809 0.18977 0.44778 0.0
C103 C 0.65247 0.22939 0.5357 0.0
H104 H 0.6113 0.19951 0.44315 0.0
C105 C 0.62831 0.27207 0.52798 0.0
C106 C 0.60988 0.29849 0.56855 0.0
C107 C 0.65627 0.21269 0.58424 0.0
H108 H 0.67369 0.17956 0.59132 0.0
C109 C 0.63735 0.2382 0.6242 0.0
H110 H 0.62565 0.28605 0.491 0.0
C111 C 0.61467 0.281 0.61658 0.0
H112 H 0.60074 0.30052 0.64832 0.0
H113 H 0.64058 0.22495 0.66135 0.0
H114 H 0.34807 0.85991 0.32951 0.0
C115 C 0.3207 0.83846 0.30206 0.0
C116 C 0.32135 0.85282 0.25228 0.0
C117 C 0.28548 0.79592 0.31671 0.0
H118 H 0.28678 0.83273 0.17835 0.0
C119 C 0.2854 0.8239 0.21722 0.0
C120 C 0.25028 0.78064 0.23118 0.0
C121 C 0.25022 0.76757 0.28131 0.0
C122 C 0.28733 0.77873 0.3683 0.0
H123 H 0.22348 0.73425 0.29265 0.0
C124 C 0.32801 0.75738 0.38557 0.0
C125 C 0.32798 0.73612 0.4329 0.0
C126 C 0.2472 0.78077 0.39938 0.0
H127 H 0.2154 0.79677 0.38672 0.0
C128 C 0.24781 0.76206 0.44703 0.0
H129 H 0.35888 0.75594 0.3613 0.0
C130 C 0.28763 0.73961 0.46364 0.0
H131 H 0.28579 0.72327 0.49982 0.0
H132 H 0.21664 0.7638 0.47079 0.0
H133 H 0.23497 0.45094 0.74413 0.0
C134 C 0.21014 0.4284 0.71515 0.0
C135 C 0.21939 0.43663 0.66472 0.0
C136 C 0.17142 0.38883 0.7288 0.0
H137 H 0.19591 0.40981 0.58853 0.0
C138 C 0.18856 0.40472 0.62748 0.0
C139 C 0.14853 0.3657 0.64066 0.0
C140 C 0.14051 0.35809 0.69146 0.0
C141 C 0.16513 0.37802 0.7821 0.0
H142 H 0.11113 0.32676 0.7021 0.0
C143 C 0.1628 0.41896 0.81773 0.0
C144 C 0.15567 0.409 0.86823 0.0
C145 C 0.16149 0.32684 0.79762 0.0
H146 H 0.16371 0.29466 0.77099 0.0
C147 C 0.15549 0.31687 0.84781 0.0
H148 H 0.1641 0.45822 0.80562 0.0
C149 C 0.1522 0.35757 0.88295 0.0
H150 H 0.14641 0.34882 0.92147 0.0
H151 H 0.15278 0.27732 0.85943 0.0
O152 O 0.96321 0.09454 0.51674 0.0
Mn153 Mn 0.02819 0.06303 0.53343 0.0
O154 O 0.93176 0.05616 0.44241 0.0
Mn155 Mn 0.9816 0.01828 0.4312 0.0
O156 O 0.09127 0.02974 0.5499 0.0
O157 O 0.05558 0.12905 0.5769 0.0
Mn158 Mn 0.08089 0.10948 0.6321 0.0
O159 O 0.99167 0.02442 0.59535 0.0
O160 O 0.13355 0.07833 0.61453 0.0
O161 O 0.06786 0.10056 0.4727 0.0
O162 O 0.03753 0.05269 0.40264 0.0
O163 O 0.09111 0.1804 0.64083 0.0
O164 O 0.03093 0.06811 0.66444 0.0
C165 C 0.98584 0.95094 0.47021 0.0
C166 C 0.93008 0.08734 0.48022 0.0
C167 C 0.12952 0.04168 0.58059 0.0
C168 C 0.07078 0.1765 0.59627 0.0
C169 C 0.99775 0.03165 0.64353 0.0
C170 C 0.06938 0.089 0.42529 0.0
O171 O 1.00088 0.99836 0.48908 0.0
O172 O 0.96747 0.94686 0.42488 0.0
O173 O 0.50183 0.04723 0.03672 0.0
Mn174 Mn 0.52982 0.06989 0.11075 0.0
O175 O 0.50708 0.9616 1.02618 0.0
Mn176 Mn 0.53238 0.9537 0.08965 0.0
O177 O 0.5593 0.09189 0.18417 0.0
O178 O 0.55458 0.14462 0.0923 0.0
Mn179 Mn 0.52833 0.18604 0.13354 0.0
O180 O 0.45792 0.08485 0.13165 0.0
O181 O 0.55311 0.17667 0.19672 0.0
O182 O 0.60044 0.05531 0.08863 0.0
O183 O 0.60095 0.97096 0.09856 0.0
O184 O 0.56797 0.23011 0.09406 0.0
O185 O 0.45992 0.17035 0.1235 0.0
C186 C 0.48462 0.95297 0.15038 0.0
C187 C 0.49674 1.00357 1.0098 0.0
C188 C 0.56542 0.13503 0.21184 0.0
C189 C 0.57918 0.18722 0.07498 0.0
C190 C 0.43593 0.12474 0.13039 0.0
C191 C 0.62339 0.01627 0.0885 0.0
O192 O 0.50611 0.99542 0.13052 0.0
O193 O 0.49548 0.90992 0.13133 0.0
O194 O 0.59163 0.62387 0.58944 0.0
Mn195 Mn 0.51585 0.59602 0.60144 0.0
O196 O 0.59996 0.59782 0.50935 0.0
Mn197 Mn 0.53368 0.56827 0.49446 0.0
O198 O 0.44065 0.56694 0.61345 0.0
O199 O 0.53322 0.58474 0.67277 0.0
Mn200 Mn 0.4964 0.61479 0.71326 0.0
O201 O 0.50718 0.67517 0.62057 0.0
O202 O 0.43007 0.58458 0.69502 0.0
O203 O 0.52793 0.51891 0.58609 0.0
O204 O 0.51817 0.49781 0.5049 0.0
O205 O 0.53474 0.58119 0.75315 0.0
O206 O 0.51578 0.68445 0.7042 0.0
C207 C 0.47909 0.61462 0.48437 0.0
C208 C 0.61822 0.61882 0.55142 0.0
C209 C 0.41316 0.56599 0.65154 0.0
C210 C 0.5509 0.56567 0.71125 0.0
C211 C 0.5136 0.70392 0.66217 0.0
C212 C 0.52561 0.48531 0.5488 0.0
O213 O 0.49568 0.60531 0.52857 0.0
O214 O 0.49903 0.59408 0.44683 0.0
O215 O 0.94849 0.54641 1.00052 0.0
Mn216 Mn 0.01204 0.59742 0.03311 0.0
O217 O 0.95203 0.5527 0.91757 0.0
Mn218 Mn 0.01074 0.6035 0.91826 0.0
O219 O 0.07564 0.64661 0.06841 0.0
O220 O 0.97349 0.60471 0.09805 0.0
Mn221 Mn 0.01018 0.57115 0.13595 0.0
O222 O 0.04313 0.53075 0.05268 0.0
O223 O 0.0746 0.61094 0.14281 0.0
O224 O 0.98483 0.66565 1.00818 0.0
O225 O 1.00436 0.67202 0.92752 0.0
O226 O 0.96553 0.58645 0.17847 0.0
O227 O 1.00474 0.50129 0.11848 0.0
C228 C 0.0781 0.57704 0.93719 0.0
C229 C 0.93098 0.53257 0.95572 0.0
C230 C 0.09536 0.6432 0.11212 0.0
C231 C 0.95026 0.60794 0.14008 0.0
C232 C 0.03253 0.49435 0.08333 0.0
C233 C 0.98863 0.69066 0.96726 0.0
O234 O 0.04787 0.59117 0.96918 0.0
O235 O 0.06711 0.58565 0.89168 0.0
C236 C 0.15248 0.1945 0.35512 0.0
C237 C 0.16672 0.16367 0.31497 0.0
H238 H 0.11148 0.1956 0.42282 0.0
C239 C 0.15294 0.10888 0.31586 0.0
H240 H 0.16288 0.23683 0.35636 0.0
C241 C 0.12499 0.08572 0.3542 0.0
C242 C 0.10882 0.11613 0.3931 0.0
H243 H 0.16195 0.08336 0.28575 0.0
H244 H 0.114 0.04335 0.35213 0.0
C245 C 0.12383 0.17096 0.39385 0.0
C246 C 0.4952 0.9926 0.86882 0.0
C247 C 0.44677 0.96292 0.85721 0.0
H248 H 0.54863 0.03056 0.92655 0.0
C249 C 0.41358 0.95328 0.89648 0.0
H250 H 0.52181 1.00109 0.83983 0.0
C251 C 0.42873 0.97087 0.94571 0.0
C252 C 0.47735 0.99908 0.95736 0.0
H253 H 0.37642 0.92964 0.88973 0.0
H254 H 0.40318 0.95992 0.97518 0.0
C255 C 0.51032 0.01038 0.91837 0.0
C256 C 0.55929 0.42521 0.70695 0.0
C257 C 0.59612 0.42629 0.74512 0.0
H258 H 0.51475 0.46987 0.66711 0.0
C259 C 0.62691 0.47472 0.76048 0.0
H260 H 0.53581 0.38855 0.693 0.0
C261 C 0.61658 0.52128 0.74302 0.0
C262 C 0.57541 0.52022 0.71009 0.0
H263 H 0.6554 0.47749 0.78997 0.0
H264 H 0.63731 0.55834 0.75948 0.0
C265 C 0.54797 0.47183 0.69086 0.0
C266 C 0.9038 0.71081 0.21252 0.0
C267 C 0.85386 0.68594 0.2175 0.0
H268 H 0.97357 0.70675 0.17913 0.0
C269 C 0.83338 0.6424 0.18495 0.0
H270 H 0.9203 0.74475 0.23674 0.0
C271 C 0.86387 0.62072 0.15188 0.0
C272 C 0.91494 0.64293 0.15013 0.0
H273 H 0.7949 0.62247 0.18802 0.0
H274 H 0.8488 0.58362 0.13165 0.0
C275 C 0.9339 0.68981 0.17867 0.0
C276 C 0.30823 0.15984 0.13428 0.0
C277 C 0.29787 0.15618 0.18516 0.0
H278 H 0.35969 0.15147 0.07674 0.0
C279 C 0.3289 0.13112 0.21472 0.0
H280 H 0.2848 0.17728 0.10963 0.0
C281 C 0.37093 0.11419 0.19496 0.0
C282 C 0.38337 0.1223 0.14531 0.0
H283 H 0.32296 0.12769 0.25408 0.0
H284 H 0.39618 0.09915 0.21973 0.0
C285 C 0.35066 0.14386 0.11492 0.0
C286 C 0.24023 0.9947 0.63189 0.0
C287 C 0.22009 0.94107 0.63459 0.0
H288 H 0.22757 0.06888 0.6101 0.0
C289 C 0.17587 0.91938 0.60613 0.0
H290 H 0.27413 0.01304 0.65299 0.0
C291 C 0.14882 0.95186 0.58157 0.0
C292 C 0.16576 0.0064 0.5851 0.0
H293 H 0.1601 0.87791 0.60606 0.0
H294 H 0.11225 0.93489 0.56469 0.0
C295 C 0.21343 0.02693 0.6072 0.0
C296 C 0.8208 0.42158 0.97737 0.0
C297 C 0.80134 0.40652 0.92846 0.0
H298 H 0.87629 0.47311 1.02459 0.0
C299 C 0.82444 0.43405 0.88916 0.0
H300 H 0.80364 0.40192 1.00874 0.0
C301 C 0.86574 0.4751 0.89827 0.0
C302 C 0.88547 0.49012 0.94705 0.0
H303 H 0.81103 0.42337 0.85099 0.0
H304 H 0.88246 0.49477 0.8667 0.0
C305 C 0.86227 0.46284 0.98654 0.0
C306 C 0.74946 0.62216 0.51735 0.0
C307 C 0.76778 0.67629 0.52021 0.0
H308 H 0.68671 0.56108 0.52764 0.0
C309 C 0.74111 0.70996 0.54596 0.0
H310 H 0.76957 0.59569 0.49765 0.0
C311 C 0.69344 0.69022 0.56298 0.0
C312 C 0.67267 0.63681 0.55432 0.0
H313 H 0.75468 0.75199 0.54815 0.0
H314 H 0.67094 0.71728 0.57765 0.0
C315 C 0.70225 0.60251 0.53455 0.0
C316 C 0.08555 0.38496 0.14037 0.0
C317 C 0.1357 0.39628 0.12655 0.0
H318 H 0.01313 0.40616 0.1364 0.0
C319 C 0.14835 0.43306 0.09005 0.0
H320 H 0.07426 0.35708 0.16825 0.0
C321 C 0.11352 0.46181 0.0722 0.0
C322 C 0.0646 0.45405 0.0896 0.0
H323 H 0.1864 0.44224 0.07768 0.0
H324 H 0.12634 0.49309 0.04806 0.0
C325 C 0.0505 0.41343 0.12212 0.0
C326 C 0.65439 0.19126 0.96055 0.0
C327 C 0.6903 0.23754 0.97365 0.0
H328 H 0.5888 0.13852 0.98289 0.0
C329 C 0.69813 0.25349 1.02451 0.0
H330 H 0.649 0.17538 0.92233 0.0
C331 C 0.66523 0.23041 0.05929 0.0
C332 C 0.62355 0.19131 0.04418 0.0
H333 H 0.72541 0.28803 0.0371 0.0
H334 H 0.66897 0.24764 0.09715 0.0
C335 C 0.62024 0.1692 0.99533 0.0
C336 C 0.91311 0.84139 0.52546 0.0
C337 C 0.92452 0.80249 0.4916 0.0
H338 H 0.92871 0.92309 0.54839 0.0
C339 C 0.97071 0.81174 0.46856 0.0
H340 H 0.878 0.83527 0.5443 0.0
C341 C 1.00016 0.86201 0.47187 0.0
C342 C 0.98282 0.90337 0.49705 0.0
H343 H 0.98104 0.78198 0.44337 0.0
H344 H 0.03151 0.87021 0.44766 0.0
C345 C 0.94264 0.89175 0.52854 0.0
C346 C 0.51589 0.83424 0.72742 0.0
C347 C 0.47598 0.85096 0.70266 0.0
H348 H 0.56175 0.77664 0.73134 0.0
C349 C 0.46072 0.82686 0.6545 0.0
H350 H 0.53071 0.85117 0.76356 0.0
C351 C 0.47736 0.78142 0.63689 0.0
C352 C 0.51157 0.76074 0.66586 0.0
H353 H 0.43322 0.84043 0.63145 0.0
H354 H 0.4601 0.76022 0.60311 0.0
C355 C 0.534 0.79064 0.70872 0.0
C356 C 0.94888 0.9162 0.72291 0.0
C357 C 0.93194 0.9425 0.76448 0.0
H358 H 0.98128 0.92308 0.65037 0.0
C359 C 0.93256 0.99657 0.76212 0.0
H360 H 0.94856 0.87455 0.72298 0.0
C361 C 0.9495 0.02354 0.72049 0.0
C362 C 0.96706 0.99801 0.67918 0.0
H363 H 0.9204 0.01865 0.7932 0.0
H364 H 0.95086 0.06548 0.72152 0.0
C365 C 0.96632 0.9437 0.68069 0.0
C366 C 0.61588 0.19241 0.34031 0.0
C367 C 0.64051 0.154 0.35831 0.0
H368 H 0.57285 0.21627 0.28166 0.0
C369 C 0.63883 0.10752 0.32809 0.0
H370 H 0.6169 0.22909 0.36175 0.0
C371 C 0.61343 0.1001 0.28102 0.0
C372 C 0.58939 0.13912 0.26304 0.0
H373 H 0.65697 0.0768 0.34085 0.0
H374 H 0.61339 0.0643 0.25847 0.0
C375 C 0.59072 0.18506 0.29378 0.0
C376 C 0.3863 0.67522 0.41175 0.0
C377 C 0.36738 0.70626 0.44796 0.0
H378 H 0.43523 0.62277 0.39494 0.0
C379 C 0.38479 0.70608 0.49801 0.0
H380 H 0.3729 0.67253 0.37324 0.0
C381 C 0.4206 0.67592 0.51101 0.0
C382 C 0.43988 0.64585 0.47414 0.0
H383 H 0.37112 0.72951 0.52707 0.0
H384 H 0.43336 0.67646 0.54952 0.0
C385 C 0.42196 0.64591 0.42453 0.0
C386 C 0.10233 0.44334 0.93122 0.0
C387 C 0.1459 0.4514 0.90356 0.0
H388 H 0.04648 0.47915 0.96575 0.0
C389 C 0.17438 0.50238 0.90273 0.0
H390 H 0.07949 0.40451 0.93235 0.0
C391 C 0.15603 0.54515 0.92325 0.0
C392 C 0.10893 0.53753 0.94463 0.0
H393 H 0.20845 0.50959 0.88219 0.0
H394 H 0.17555 0.58438 0.91668 0.0
C395 C 0.08377 0.4862 0.95127 0.0
C396 C 0.7255 0.96288 1.02557 0.0
C397 C 0.72762 0.98993 0.98183 0.0
H398 H 0.69148 0.95164 0.09589 0.0
C399 C 0.70727 0.03575 0.98122 0.0
H400 H 0.74091 0.92754 1.0271 0.0
C401 C 0.67919 0.04985 1.02074 0.0
C402 C 0.67034 0.01793 0.06116 0.0
H403 H 0.70881 0.05763 0.94802 0.0
H404 H 0.6594 0.08171 1.01652 0.0
C405 C 0.6971 0.9768 0.06499 0.0
C406 C 0.82627 0.14975 0.42934 0.0
C407 C 0.79359 0.14812 0.46901 0.0
H408 H 0.8951 0.13288 0.40244 0.0
C409 C 0.80979 0.1323 0.51517 0.0
H410 H 0.81629 0.16314 0.39373 0.0
C411 C 0.85619 0.11622 0.52057 0.0
C412 C 0.88712 0.11513 0.47981 0.0
H413 H 0.78575 0.13016 0.54666 0.0
H414 H 0.8664 0.10174 0.55562 0.0
C415 C 0.872 0.13314 0.43456 0.0
C416 C 0.18634 0.76689 0.15858 0.0
C417 C 0.216 0.74628 0.19332 0.0
H418 H 0.1246 0.75005 0.10426 0.0
C419 C 0.21106 0.69162 0.1936 0.0
H420 H 0.18956 0.80891 0.15728 0.0
C421 C 0.17478 0.65836 0.16307 0.0
C422 C 0.14225 0.67864 0.13129 0.0
H423 H 0.23417 0.67443 0.21887 0.0
H424 H 0.17021 0.61643 0.16645 0.0
C425 C 0.14956 0.73327 0.12784 0.0
C426 C 0.29782 0.46235 0.6172 0.0
C427 C 0.26431 0.47547 0.65246 0.0
H428 H 0.37163 0.48142 0.58881 0.0
C429 C 0.27761 0.52316 0.68127 0.0
H430 H 0.2888 0.42583 0.59456 0.0
C431 C 0.32516 0.55424 0.6787 0.0
C432 C 0.36016 0.53894 0.6465 0.0
H433 H 0.25216 0.53503 0.70791 0.0
H434 H 0.33529 0.58917 0.7035 0.0
C435 C 0.34533 0.49407 0.61403 0.0
C436 C 0.98263 0.8205 0.91391 0.0
C437 C 0.93066 0.81928 0.91002 0.0
H438 H 0.04181 0.78209 0.93742 0.0
C439 C 0.89916 0.77932 0.93434 0.0
H440 H 0.00856 0.85064 0.89685 0.0
C441 C 0.91863 0.74077 0.95924 0.0
C442 C 0.97027 0.74061 0.96064 0.0
H443 H 0.85885 0.77577 0.9319 0.0
H444 H 0.89282 0.70863 0.97375 0.0
C445 C 1.00195 0.78177 0.93849 0.0
C446 C 0.41274 0.89395 0.25351 0.0
C447 C 0.36345 0.89297 0.23546 0.0
H448 H 0.49096 0.91693 0.24112 0.0
C449 C 0.35614 0.92562 0.19693 0.0
H450 H 0.4202 0.8692 0.28274 0.0
C451 C 0.39731 0.95369 0.17334 0.0
C452 C 0.44624 0.94936 0.18792 0.0
H453 H 0.31868 0.92663 0.18273 0.0
H454 H 0.39067 0.97382 0.14035 0.0
C455 C 0.45359 0.92179 0.22992 0.0
C456 C 0.06728 0.3102 0.60844 0.0
C457 C 0.11902 0.32716 0.60298 0.0
H458 H 1.00674 0.24417 0.60388 0.0
C459 C 0.14398 0.29715 0.57097 0.0
H460 H 0.04667 0.33325 0.63174 0.0
C461 C 0.1203 0.24638 0.5538 0.0
C462 C 0.07274 0.22493 0.57059 0.0
H463 H 0.18365 0.3095 0.56524 0.0
H464 H 0.14302 0.22086 0.53662 0.0
C465 C 0.04398 0.25937 0.59147 0.0
C466 C 0.60709 0.39222 0.59141 0.0
C467 C 0.58792 0.34597 0.56217 0.0
H468 H 0.60373 0.47267 0.60824 0.0
C469 C 0.5473 0.34542 0.52844 0.0
H470 H 0.63898 0.39413 0.61701 0.0
C471 C 0.52564 0.3901 0.52499 0.0
C472 C 0.54433 0.43602 0.55515 0.0
H473 H 0.53193 0.31029 0.50534 0.0
H474 H 0.49447 0.38887 0.49867 0.0
C475 C 0.58617 0.43687 0.58722 0.0
loop_
_geom_bond_atom_site_label_1
_geom_bond_atom_site_label_2
_geom_bond_distance
_geom_bond_site_symmetry_2
_ccdc_geom_bond_type
H0 C1 0.949 . S
C1 H0 0.949 . S
C1 C2 1.395 . S
C1 C3 1.391 . S
C2 C1 1.395 . S
C2 C5 1.390 . S
C3 C1 1.391 . S
C3 C7 1.387 . S
C3 C8 1.491 . S
H4 C5 0.950 . S
C5 C2 1.390 . S
C5 H4 0.950 . S
C5 C6 1.378 . S
C6 C5 1.378 . S
C6 C7 1.409 . S
C7 C3 1.387 . S
C7 C6 1.409 . S
C7 H9 0.951 . S
C8 C3 1.491 . S
C8 C10 1.382 . S
C8 C12 1.404 . S
H9 C7 0.951 . S
C10 C8 1.382 . S
C10 C11 1.390 . S
C10 H15 0.949 . S
C11 C10 1.390 . S
C11 C16 1.399 . S
C12 C8 1.404 . S
C12 H13 0.950 . S
C12 C14 1.375 . S
H13 C12 0.950 . S
C14 C12 1.375 . S
C14 C16 1.382 . S
C14 H18 0.950 . S
H15 C10 0.949 . S
C16 C11 1.399 . S
C16 C14 1.382 . S
C16 H17 0.952 . S
H17 C16 0.952 . S
H18 C14 0.950 . S
H19 C20 0.949 . S
C20 H19 0.949 . S
C20 C21 1.395 . S
C20 C22 1.391 . S
C21 C20 1.395 . S
C21 C24 1.390 . S
C22 C20 1.391 . S
C22 C26 1.387 . S
C22 C27 1.491 . S
H23 C24 0.950 . S
C24 C21 1.390 . S
C24 H23 0.950 . S
C24 C25 1.378 . S
C25 C24 1.378 . S
C25 C26 1.409 . S
C26 C22 1.387 . S
C26 C25 1.409 . S
C26 H28 0.951 . S
C27 C22 1.491 . S
C27 C29 1.382 . S
C27 C31 1.404 . S
H28 C26 0.951 . S
C29 C27 1.382 . S
C29 C30 1.390 . S
C29 H34 0.949 1_565 S
C30 C29 1.390 . S
C30 C35 1.399 . S
C31 C27 1.404 . S
C31 H32 0.950 . S
C31 C33 1.375 . S
H32 C31 0.950 . S
C33 C31 1.375 . S
C33 C35 1.382 . S
C33 H37 0.950 . S
H34 C29 0.949 1_545 S
C35 C30 1.399 . S
C35 C33 1.382 . S
C35 H36 0.952 . S
H36 C35 0.952 . S
H37 C33 0.950 . S
H38 C39 0.949 . S
C39 H38 0.949 . S
C39 C40 1.395 . S
C39 C41 1.391 . S
C40 C39 1.395 . S
C40 C43 1.390 . S
C41 C39 1.391 . S
C41 C45 1.387 . S
C41 C46 1.491 . S
H42 C43 0.950 1_554 S
C43 C40 1.390 . S
C43 H42 0.950 1_556 S
C43 C44 1.378 . S
C44 C43 1.378 . S
C44 C45 1.409 . S
C45 C41 1.387 . S
C45 C44 1.409 . S
C45 H47 0.951 . S
C46 C41 1.491 . S
C46 C48 1.382 . S
C46 C50 1.404 . S
H47 C45 0.951 . S
C48 C46 1.382 . S
C48 C49 1.390 . S
C48 H53 0.949 . S
C49 C48 1.390 . S
C49 C54 1.399 . S
C50 C46 1.404 . S
C50 H51 0.950 . S
C50 C52 1.375 . S
H51 C50 0.950 . S
C52 C50 1.375 . S
C52 C54 1.382 . S
C52 H56 0.950 . S
H53 C48 0.949 . S
C54 C49 1.399 . S
C54 C52 1.382 . S
C54 H55 0.952 . S
H55 C54 0.952 . S
H56 C52 0.950 . S
H57 C58 0.949 . S
C58 H57 0.949 . S
C58 C59 1.395 . S
C58 C60 1.391 . S
C59 C58 1.395 . S
C59 C62 1.390 . S
C60 C58 1.391 . S
C60 C64 1.387 . S
C60 C65 1.491 . S
H61 C62 0.950 . S
C62 C59 1.390 . S
C62 H61 0.950 . S
C62 C63 1.378 . S
C63 C62 1.378 . S
C63 C64 1.409 . S
C64 C60 1.387 . S
C64 C63 1.409 . S
C64 H66 0.951 . S
C65 C60 1.491 . S
C65 C67 1.382 . S
C65 C69 1.404 . S
H66 C64 0.951 . S
C67 C65 1.382 . S
C67 C68 1.390 . S
C67 H72 0.949 . S
C68 C67 1.390 . S
C68 C73 1.399 . S
C69 C65 1.404 . S
C69 H70 0.950 . S
C69 C71 1.375 . S
H70 C69 0.950 . S
C71 C69 1.375 . S
C71 C73 1.382 . S
C71 H75 0.950 . S
H72 C67 0.949 . S
C73 C68 1.399 . S
C73 C71 1.382 . S
C73 H74 0.952 . S
H74 C73 0.952 . S
H75 C71 0.950 . S
H76 C77 0.949 . S
C77 H76 0.949 . S
C77 C78 1.395 . S
C77 C79 1.391 . S
C78 C77 1.395 . S
C78 C81 1.390 . S
C79 C77 1.391 . S
C79 C83 1.387 . S
C79 C84 1.491 . S
H80 C81 0.950 . S
C81 C78 1.390 . S
C81 H80 0.950 . S
C81 C82 1.378 . S
C82 C81 1.378 . S
C82 C83 1.409 . S
C83 C79 1.387 . S
C83 C82 1.409 . S
C83 H85 0.951 . S
C84 C79 1.491 . S
C84 C86 1.382 . S
C84 C88 1.404 . S
H85 C83 0.951 . S
C86 C84 1.382 . S
C86 C87 1.390 . S
C86 H91 0.949 . S
C87 C86 1.390 . S
C87 C92 1.399 . S
C88 C84 1.404 . S
C88 H89 0.950 . S
C88 C90 1.375 . S
H89 C88 0.950 . S
C90 C88 1.375 . S
C90 C92 1.382 . S
C90 H94 0.950 . S
H91 C86 0.949 . S
C92 C87 1.399 . S
C92 C90 1.382 . S
C92 H93 0.952 . S
H93 C92 0.952 . S
H94 C90 0.950 . S
H95 C96 0.949 . S
C96 H95 0.949 . S
C96 C97 1.395 . S
C96 C98 1.391 . S
C97 C96 1.395 . S
C97 C100 1.390 . S
C98 C96 1.391 . S
C98 C102 1.387 . S
C98 C103 1.491 . S
H99 C100 0.950 . S
C100 C97 1.390 . S
C100 H99 0.950 . S
C100 C101 1.378 . S
C101 C100 1.378 . S
C101 C102 1.409 . S
C102 C98 1.387 . S
C102 C101 1.409 . S
C102 H104 0.951 . S
C103 C98 1.491 . S
C103 C105 1.382 . S
C103 C107 1.404 . S
H104 C102 0.951 . S
C105 C103 1.382 . S
C105 C106 1.390 . S
C105 H110 0.949 . S
C106 C105 1.390 . S
C106 C111 1.399 . S
C107 C103 1.404 . S
C107 H108 0.950 . S
C107 C109 1.375 . S
H108 C107 0.950 . S
C109 C107 1.375 . S
C109 C111 1.382 . S
C109 H113 0.950 . S
H110 C105 0.949 . S
C111 C106 1.399 . S
C111 C109 1.382 . S
C111 H112 0.952 . S
H112 C111 0.952 . S
H113 C109 0.950 . S
H114 C115 0.949 . S
C115 H114 0.949 . S
C115 C116 1.395 . S
C115 C117 1.391 . S
C116 C115 1.395 . S
C116 C119 1.390 . S
C117 C115 1.391 . S
C117 C121 1.387 . S
C117 C122 1.491 . S
H118 C119 0.950 . S
C119 C116 1.390 . S
C119 H118 0.950 . S
C119 C120 1.378 . S
C120 C119 1.378 . S
C120 C121 1.409 . S
C121 C117 1.387 . S
C121 C120 1.409 . S
C121 H123 0.951 . S
C122 C117 1.491 . S
C122 C124 1.382 . S
C122 C126 1.404 . S
H123 C121 0.951 . S
C124 C122 1.382 . S
C124 C125 1.390 . S
C124 H129 0.949 . S
C125 C124 1.390 . S
C125 C130 1.399 . S
C126 C122 1.404 . S
C126 H127 0.950 . S
C126 C128 1.375 . S
H127 C126 0.950 . S
C128 C126 1.375 . S
C128 C130 1.382 . S
C128 H132 0.950 . S
H129 C124 0.949 . S
C130 C125 1.399 . S
C130 C128 1.382 . S
C130 H131 0.952 . S
H131 C130 0.952 . S
H132 C128 0.950 . S
H133 C134 0.949 . S
C134 H133 0.949 . S
C134 C135 1.395 . S
C134 C136 1.391 . S
C135 C134 1.395 . S
C135 C138 1.390 . S
C136 C134 1.391 . S
C136 C140 1.387 . S
C136 C141 1.491 . S
H137 C138 0.950 . S
C138 C135 1.390 . S
C138 H137 0.950 . S
C138 C139 1.378 . S
C139 C138 1.378 . S
C139 C140 1.409 . S
C140 C136 1.387 . S
C140 C139 1.409 . S
C140 H142 0.951 . S
C141 C136 1.491 . S
C141 C143 1.382 . S
C141 C145 1.404 . S
H142 C140 0.951 . S
C143 C141 1.382 . S
C143 C144 1.390 . S
C143 H148 0.949 . S
C144 C143 1.390 . S
C144 C149 1.399 . S
C145 C141 1.404 . S
C145 H146 0.950 . S
C145 C147 1.375 . S
H146 C145 0.950 . S
C147 C145 1.375 . S
C147 C149 1.382 . S
C147 H151 0.950 . S
H148 C143 0.949 . S
C149 C144 1.399 . S
C149 C147 1.382 . S
C149 H150 0.952 . S
H150 C149 0.952 . S
H151 C147 0.950 . S
O152 Mn153 2.163 1_655 S
O152 C166 1.244 . S
Mn153 O152 2.163 1_455 S
Mn153 O156 2.160 . S
Mn153 O157 2.221 . S
Mn153 O159 2.163 1_455 S
Mn153 O161 2.160 . S
Mn153 O171 2.221 1_445 S
O154 Mn155 2.087 1_545 S
O154 C166 1.256 . S
Mn155 O154 2.087 1_565 S
Mn155 O162 2.089 1_565 S
Mn155 O171 2.290 . S
Mn155 O172 2.251 . S
O156 Mn153 2.160 . S
O156 C167 1.239 . S
O157 Mn153 2.221 . S
O157 Mn158 2.290 . S
O157 C168 1.278 . S
Mn158 O157 2.290 . S
Mn158 O160 2.089 . S
Mn158 O163 2.251 . S
Mn158 O164 2.087 . S
O159 Mn153 2.163 1_655 S
O159 C169 1.244 . S
O160 Mn158 2.089 . S
O160 C167 1.256 . S
O161 Mn153 2.160 . S
O161 C170 1.239 . S
O162 Mn155 2.089 1_545 S
O162 C170 1.256 1_655 S
O163 Mn158 2.251 . S
O163 C168 1.241 . S
O164 Mn158 2.087 . S
O164 C169 1.256 1_455 S
C165 O171 1.278 . S
C165 O172 1.241 . S
C166 O152 1.244 . S
C166 O154 1.256 . S
C167 O156 1.239 . S
C167 O160 1.256 . S
C168 O157 1.278 . S
C168 O163 1.241 . S
C169 O159 1.244 . S
C169 O164 1.256 1_655 S
C170 O161 1.239 . S
C170 O162 1.256 1_455 S
O171 Mn153 2.221 1_665 S
O171 Mn155 2.290 . S
O171 C165 1.278 . S
O172 Mn155 2.251 . S
O172 C165 1.241 . S
O173 Mn174 2.163 1_556 S
O173 C187 1.244 . S
Mn174 O173 2.163 1_554 S
Mn174 O177 2.160 . S
Mn174 O178 2.221 . S
Mn174 O180 2.163 . S
Mn174 O182 2.160 . S
Mn174 O192 2.221 1_545 S
O175 Mn176 2.087 1_556 S
O175 C187 1.256 1_565 S
Mn176 O175 2.087 1_554 S
Mn176 O183 2.089 . S
Mn176 O192 2.290 . S
Mn176 O193 2.251 . S
O177 Mn174 2.160 . S
O177 C188 1.239 . S
O178 Mn174 2.221 . S
O178 Mn179 2.290 . S
O178 C189 1.278 . S
Mn179 O178 2.290 . S
Mn179 O181 2.089 . S
Mn179 O184 2.251 . S
Mn179 O185 2.087 . S
O180 Mn174 2.163 . S
O180 C190 1.244 . S
O181 Mn179 2.089 . S
O181 C188 1.256 . S
O182 Mn174 2.160 . S
O182 C191 1.239 . S
O183 Mn176 2.089 . S
O183 C191 1.256 1_565 S
O184 Mn179 2.251 . S
O184 C189 1.241 . S
O185 Mn179 2.087 . S
O185 C190 1.256 . S
C186 O192 1.278 . S
C186 O193 1.241 . S
C187 O173 1.244 . S
C187 O175 1.256 1_545 S
C188 O177 1.239 . S
C188 O181 1.256 . S
C189 O178 1.278 . S
C189 O184 1.241 . S
C190 O180 1.244 . S
C190 O185 1.256 . S
C191 O182 1.239 . S
C191 O183 1.256 1_545 S
O192 Mn174 2.221 1_565 S
O192 Mn176 2.290 . S
O192 C186 1.278 . S
O193 Mn176 2.251 . S
O193 C186 1.241 . S
O194 Mn195 2.163 . S
O194 C208 1.244 . S
Mn195 O194 2.163 . S
Mn195 O198 2.160 . S
Mn195 O199 2.221 . S
Mn195 O201 2.163 . S
Mn195 O203 2.160 . S
Mn195 O213 2.221 . S
O196 Mn197 2.087 . S
O196 C208 1.256 . S
Mn197 O196 2.087 . S
Mn197 O204 2.089 . S
Mn197 O213 2.290 . S
Mn197 O214 2.251 . S
O198 Mn195 2.160 . S
O198 C209 1.239 . S
O199 Mn195 2.221 . S
O199 Mn200 2.290 . S
O199 C210 1.278 . S
Mn200 O199 2.290 . S
Mn200 O202 2.089 . S
Mn200 O205 2.251 . S
Mn200 O206 2.087 . S
O201 Mn195 2.163 . S
O201 C211 1.244 . S
O202 Mn200 2.089 . S
O202 C209 1.256 . S
O203 Mn195 2.160 . S
O203 C212 1.239 . S
O204 Mn197 2.089 . S
O204 C212 1.256 . S
O205 Mn200 2.251 . S
O205 C210 1.241 . S
O206 Mn200 2.087 . S
O206 C211 1.256 . S
C207 O213 1.278 . S
C207 O214 1.241 . S
C208 O194 1.244 . S
C208 O196 1.256 . S
C209 O198 1.239 . S
C209 O202 1.256 . S
C210 O199 1.278 . S
C210 O205 1.241 . S
C211 O201 1.244 . S
C211 O206 1.256 . S
C212 O203 1.239 . S
C212 O204 1.256 . S
O213 Mn195 2.221 . S
O213 Mn197 2.290 . S
O213 C207 1.278 . S
O214 Mn197 2.251 . S
O214 C207 1.241 . S
O215 Mn216 2.163 1_655 S
O215 C229 1.244 1_554 S
Mn216 O215 2.163 1_455 S
Mn216 O219 2.160 . S
Mn216 O220 2.221 . S
Mn216 O222 2.163 . S
Mn216 O224 2.160 . S
Mn216 O234 2.221 1_554 S
O217 Mn218 2.087 . S
O217 C229 1.256 . S
Mn218 O217 2.087 . S
Mn218 O225 2.089 . S
Mn218 O234 2.290 1_655 S
Mn218 O235 2.251 1_655 S
O219 Mn216 2.160 . S
O219 C230 1.239 . S
O220 Mn216 2.221 . S
O220 Mn221 2.290 . S
O220 C231 1.278 1_455 S
Mn221 O220 2.290 . S
Mn221 O223 2.089 . S
Mn221 O226 2.251 1_455 S
Mn221 O227 2.087 . S
O222 Mn216 2.163 . S
O222 C232 1.244 . S
O223 Mn221 2.089 . S
O223 C230 1.256 . S
O224 Mn216 2.160 . S
O224 C233 1.239 1_454 S
O225 Mn218 2.089 . S
O225 C233 1.256 . S
O226 Mn221 2.251 1_655 S
O226 C231 1.241 . S
O227 Mn221 2.087 . S
O227 C232 1.256 . S
C228 O234 1.278 . S
C228 O235 1.241 . S
C229 O215 1.244 1_556 S
C229 O217 1.256 . S
C230 O219 1.239 . S
C230 O223 1.256 . S
C231 O220 1.278 1_655 S
C231 O226 1.241 . S
C232 O222 1.244 . S
C232 O227 1.256 . S
C233 O224 1.239 1_656 S
C233 O225 1.256 . S
O234 Mn216 2.221 1_556 S
O234 Mn218 2.290 1_455 S
O234 C228 1.278 . S
O235 Mn218 2.251 1_455 S
O235 C228 1.241 . S
C236 C237 1.387 . S
C236 H240 0.950 . S
C236 C245 1.390 . S
C237 C236 1.387 . S
C237 C239 1.387 . S
H238 C245 0.950 . S
C239 C237 1.387 . S
C239 C241 1.390 . S
C239 H243 0.950 . S
H240 C236 0.950 . S
C241 C239 1.390 . S
C241 C242 1.387 . S
C241 H244 0.950 . S
C242 C241 1.387 . S
C242 C245 1.387 . S
H243 C239 0.950 . S
H244 C241 0.950 . S
C245 C236 1.390 . S
C245 H238 0.950 . S
C245 C242 1.387 . S
C246 C247 1.387 1_545 S
C246 H250 0.950 . S
C246 C255 1.390 . S
C247 C246 1.387 1_565 S
C247 C249 1.387 . S
H248 C255 0.950 . S
C249 C247 1.387 . S
C249 C251 1.390 . S
C249 H253 0.950 . S
H250 C246 0.950 . S
C251 C249 1.390 . S
C251 C252 1.387 . S
C251 H254 0.950 . S
C252 C251 1.387 . S
C252 C255 1.387 1_565 S
H253 C249 0.950 . S
H254 C251 0.950 . S
C255 C246 1.390 . S
C255 H248 0.950 . S
C255 C252 1.387 1_545 S
C256 C257 1.387 . S
C256 H260 0.950 . S
C256 C265 1.390 . S
C257 C256 1.387 . S
C257 C259 1.387 . S
H258 C265 0.950 . S
C259 C257 1.387 . S
C259 C261 1.390 . S
C259 H263 0.950 . S
H260 C256 0.950 . S
C261 C259 1.390 . S
C261 C262 1.387 . S
C261 H264 0.950 . S
C262 C261 1.387 . S
C262 C265 1.387 . S
H263 C259 0.950 . S
H264 C261 0.950 . S
C265 C256 1.390 . S
C265 H258 0.950 . S
C265 C262 1.387 . S
C266 C267 1.387 . S
C266 H270 0.950 . S
C266 C275 1.390 . S
C267 C266 1.387 . S
C267 C269 1.387 . S
H268 C275 0.950 . S
C269 C267 1.387 . S
C269 C271 1.390 . S
C269 H273 0.950 . S
H270 C266 0.950 . S
C271 C269 1.390 . S
C271 C272 1.387 . S
C271 H274 0.950 . S
C272 C271 1.387 . S
C272 C275 1.387 . S
H273 C269 0.950 . S
H274 C271 0.950 . S
C275 C266 1.390 . S
C275 H268 0.950 . S
C275 C272 1.387 . S
C276 C277 1.387 . S
C276 H280 0.950 . S
C276 C285 1.390 . S
C277 C276 1.387 . S
C277 C279 1.387 . S
H278 C285 0.950 . S
C279 C277 1.387 . S
C279 C281 1.390 . S
C279 H283 0.950 . S
H280 C276 0.950 . S
C281 C279 1.390 . S
C281 C282 1.387 . S
C281 H284 0.950 . S
C282 C281 1.387 . S
C282 C285 1.387 . S
H283 C279 0.950 . S
H284 C281 0.950 . S
C285 C276 1.390 . S
C285 H278 0.950 . S
C285 C282 1.387 . S
C286 C287 1.387 . S
C286 H290 0.950 . S
C286 C295 1.390 . S
C287 C286 1.387 . S
C287 C289 1.387 1_545 S
H288 C295 0.950 . S
C289 C287 1.387 1_565 S
C289 C291 1.390 . S
C289 H293 0.950 . S
H290 C286 0.950 . S
C291 C289 1.390 . S
C291 C292 1.387 1_565 S
C291 H294 0.950 . S
C292 C291 1.387 1_545 S
C292 C295 1.387 . S
H293 C289 0.950 . S
H294 C291 0.950 . S
C295 C286 1.390 . S
C295 H288 0.950 . S
C295 C292 1.387 . S
C296 C297 1.387 1_554 S
C296 H300 0.950 . S
C296 C305 1.390 . S
C297 C296 1.387 1_556 S
C297 C299 1.387 . S
H298 C305 0.950 . S
C299 C297 1.387 . S
C299 C301 1.390 . S
C299 H303 0.950 . S
H300 C296 0.950 . S
C301 C299 1.390 . S
C301 C302 1.387 . S
C301 H304 0.950 . S
C302 C301 1.387 . S
C302 C305 1.387 1_556 S
H303 C299 0.950 . S
H304 C301 0.950 . S
C305 C296 1.390 . S
C305 H298 0.950 . S
C305 C302 1.387 1_554 S
C306 C307 1.387 . S
C306 H310 0.950 . S
C306 C315 1.390 . S
C307 C306 1.387 . S
C307 C309 1.387 . S
H308 C315 0.950 . S
C309 C307 1.387 . S
C309 C311 1.390 . S
C309 H313 0.950 . S
H310 C306 0.950 . S
C311 C309 1.390 . S
C311 C312 1.387 . S
C311 H314 0.950 . S
C312 C311 1.387 . S
C312 C315 1.387 . S
H313 C309 0.950 . S
H314 C311 0.950 . S
C315 C306 1.390 . S
C315 H308 0.950 . S
C315 C312 1.387 . S
C316 C317 1.387 . S
C316 H320 0.950 . S
C316 C325 1.390 . S
C317 C316 1.387 . S
C317 C319 1.387 . S
H318 C325 0.950 . S
C319 C317 1.387 . S
C319 C321 1.390 . S
C319 H323 0.950 . S
H320 C316 0.950 . S
C321 C319 1.390 . S
C321 C322 1.387 . S
C321 H324 0.950 . S
C322 C321 1.387 . S
C322 C325 1.387 . S
H323 C319 0.950 . S
H324 C321 0.950 . S
C325 C316 1.390 . S
C325 H318 0.950 . S
C325 C322 1.387 . S
C326 C327 1.387 . S
C326 H330 0.950 . S
C326 C335 1.390 . S
C327 C326 1.387 . S
C327 C329 1.387 1_556 S
H328 C335 0.950 . S
C329 C327 1.387 1_554 S
C329 C331 1.390 . S
C329 H333 0.950 . S
H330 C326 0.950 . S
C331 C329 1.390 . S
C331 C332 1.374 1_554 S
C331 H334 0.950 . S
C332 C331 1.374 1_556 S
C332 C335 1.404 . S
H333 C329 0.950 . S
H334 C331 0.950 . S
C335 C326 1.390 . S
C335 H328 0.950 . S
C335 C332 1.404 . S
C336 C337 1.387 . S
C336 H340 0.950 . S
C336 C345 1.390 . S
C337 C336 1.387 . S
C337 C339 1.387 . S
H338 C345 0.950 . S
C339 C337 1.387 . S
C339 C341 1.390 . S
C339 H343 0.950 . S
H340 C336 0.950 . S
C341 C339 1.390 . S
C341 C342 1.387 . S
C341 H344 0.950 . S
C342 C341 1.387 . S
C342 C345 1.387 . S
H343 C339 0.950 . S
H344 C341 0.950 . S
C345 C336 1.390 . S
C345 H338 0.950 . S
C345 C342 1.387 . S
C346 C347 1.387 . S
C346 H350 0.950 . S
C346 C355 1.390 . S
C347 C346 1.387 . S
C347 C349 1.387 . S
H348 C355 0.950 . S
C349 C347 1.387 . S
C349 C351 1.390 . S
C349 H353 0.950 . S
H350 C346 0.950 . S
C351 C349 1.390 . S
C351 C352 1.387 . S
C351 H354 0.950 . S
C352 C351 1.387 . S
C352 C355 1.387 . S
H353 C349 0.950 . S
H354 C351 0.950 . S
C355 C346 1.390 . S
C355 H348 0.950 . S
C355 C352 1.387 . S
C356 C357 1.387 . S
C356 H360 0.950 . S
C356 C365 1.390 . S
C357 C356 1.387 . S
C357 C359 1.387 1_565 S
H358 C365 0.950 . S
C359 C357 1.387 1_545 S
C359 C361 1.390 . S
C359 H363 0.950 . S
H360 C356 0.950 . S
C361 C359 1.390 . S
C361 C362 1.387 1_545 S
C361 H364 0.950 1_655 S
C362 C361 1.387 1_565 S
C362 C365 1.387 . S
H363 C359 0.950 . S
H364 C361 0.950 1_455 S
C365 C356 1.390 . S
C365 H358 0.950 . S
C365 C362 1.387 . S
C366 C367 1.387 . S
C366 H370 0.950 . S
C366 C375 1.390 . S
C367 C366 1.387 . S
C367 C369 1.387 . S
H368 C375 0.950 . S
C369 C367 1.387 . S
C369 C371 1.390 . S
C369 H373 0.950 . S
H370 C366 0.950 . S
C371 C369 1.390 . S
C371 C372 1.387 . S
C371 H374 0.950 . S
C372 C371 1.387 . S
C372 C375 1.387 . S
H373 C369 0.950 . S
H374 C371 0.950 . S
C375 C366 1.390 . S
C375 H368 0.950 . S
C375 C372 1.387 . S
C376 C377 1.387 . S
C376 H380 0.950 . S
C376 C385 1.390 . S
C377 C376 1.387 . S
C377 C379 1.387 . S
H378 C385 0.950 . S
C379 C377 1.387 . S
C379 C381 1.390 . S
C379 H383 0.950 . S
H380 C376 0.950 . S
C381 C379 1.390 . S
C381 C382 1.387 . S
C381 H384 0.950 . S
C382 C381 1.387 . S
C382 C385 1.387 . S
H383 C379 0.950 . S
H384 C381 0.950 . S
C385 C376 1.390 . S
C385 H378 0.950 . S
C385 C382 1.387 . S
C386 C387 1.387 . S
C386 H390 0.950 . S
C386 C395 1.390 . S
C387 C386 1.387 . S
C387 C389 1.387 . S
H388 C395 0.950 . S
C389 C387 1.387 . S
C389 C391 1.390 . S
C389 H393 0.950 . S
H390 C386 0.950 . S
C391 C389 1.390 . S
C391 C392 1.387 . S
C391 H394 0.950 . S
C392 C391 1.387 . S
C392 C395 1.387 . S
H393 C389 0.950 . S
H394 C391 0.950 . S
C395 C386 1.390 . S
C395 H388 0.950 . S
C395 C392 1.387 . S
C396 C397 1.387 1_554 S
C396 H400 0.950 . S
C396 C405 1.390 . S
C397 C396 1.387 1_556 S
C397 C399 1.387 1_565 S
H398 C405 0.950 . S
C399 C397 1.387 1_545 S
C399 C401 1.390 . S
C399 H403 0.950 . S
H400 C396 0.950 . S
C401 C399 1.390 . S
C401 C402 1.387 1_556 S
C401 H404 0.950 . S
C402 C401 1.387 1_554 S
C402 C405 1.387 1_545 S
H403 C399 0.950 . S
H404 C401 0.950 . S
C405 C396 1.390 . S
C405 H398 0.950 . S
C405 C402 1.387 1_565 S
C406 C407 1.387 . S
C406 H410 0.950 . S
C406 C415 1.390 . S
C407 C406 1.387 . S
C407 C409 1.387 . S
H408 C415 0.950 . S
C409 C407 1.387 . S
C409 C411 1.390 . S
C409 H413 0.950 . S
H410 C406 0.950 . S
C411 C409 1.390 . S
C411 C412 1.387 . S
C411 H414 0.950 . S
C412 C411 1.387 . S
C412 C415 1.387 . S
H413 C409 0.950 . S
H414 C411 0.950 . S
C415 C406 1.390 . S
C415 H408 0.950 . S
C415 C412 1.387 . S
C416 C417 1.387 . S
C416 H420 0.950 . S
C416 C425 1.390 . S
C417 C416 1.387 . S
C417 C419 1.387 . S
H418 C425 0.950 . S
C419 C417 1.387 . S
C419 C421 1.390 . S
C419 H423 0.950 . S
H420 C416 0.950 . S
C421 C419 1.390 . S
C421 C422 1.387 . S
C421 H424 0.950 . S
C422 C421 1.387 . S
C422 C425 1.387 . S
H423 C419 0.950 . S
H424 C421 0.950 . S
C425 C416 1.390 . S
C425 H418 0.950 . S
C425 C422 1.387 . S
C426 C427 1.387 . S
C426 H430 0.950 . S
C426 C435 1.390 . S
C427 C426 1.387 . S
C427 C429 1.387 . S
H428 C435 0.950 . S
C429 C427 1.387 . S
C429 C431 1.390 . S
C429 H433 0.950 . S
H430 C426 0.950 . S
C431 C429 1.390 . S
C431 C432 1.387 . S
C431 H434 0.950 . S
C432 C431 1.387 . S
C432 C435 1.387 . S
H433 C429 0.950 . S
H434 C431 0.950 . S
C435 C426 1.390 . S
C435 H428 0.950 . S
C435 C432 1.387 . S
C436 C437 1.387 . S
C436 H440 0.950 . S
C436 C445 1.390 . S
C437 C436 1.387 . S
C437 C439 1.387 . S
H438 C445 0.950 . S
C439 C437 1.387 . S
C439 C441 1.390 . S
C439 H443 0.943 1_556 S
H440 C436 0.950 . S
C441 C439 1.390 . S
C441 C442 1.387 . S
C441 H444 0.950 1_556 S
C442 C441 1.387 . S
C442 C445 1.387 . S
H443 C439 0.943 1_554 S
H444 C441 0.950 1_554 S
C445 C436 1.390 . S
C445 H438 0.950 . S
C445 C442 1.387 . S
C446 C447 1.387 . S
C446 H450 0.950 . S
C446 C455 1.390 . S
C447 C446 1.387 . S
C447 C449 1.387 . S
H448 C455 0.950 . S
C449 C447 1.387 . S
C449 C451 1.390 . S
C449 H453 0.950 . S
H450 C446 0.950 . S
C451 C449 1.390 . S
C451 C452 1.387 . S
C451 H454 0.950 . S
C452 C451 1.387 . S
C452 C455 1.387 . S
H453 C449 0.950 . S
H454 C451 0.950 . S
C455 C446 1.390 . S
C455 H448 0.950 . S
C455 C452 1.387 . S
C456 C457 1.387 . S
C456 H460 0.950 . S
C456 C465 1.390 . S
C457 C456 1.387 . S
C457 C459 1.387 . S
H458 C465 0.950 . S
C459 C457 1.387 . S
C459 C461 1.390 . S
C459 H463 0.950 . S
H460 C456 0.950 . S
C461 C459 1.390 . S
C461 C462 1.387 . S
C461 H464 0.950 . S
C462 C461 1.387 . S
C462 C465 1.387 . S
H463 C459 0.950 . S
H464 C461 0.950 . S
C465 C456 1.390 . S
C465 H458 0.950 . S
C465 C462 1.387 . S
C466 C467 1.387 . S
C466 H470 0.950 . S
C466 C475 1.390 . S
C467 C466 1.387 . S
C467 C469 1.387 . S
H468 C475 0.950 . S
C469 C467 1.387 . S
C469 C471 1.390 . S
C469 H473 0.950 . S
H470 C466 0.950 . S
C471 C469 1.390 . S
C471 C472 1.387 . S
C471 H474 0.950 . S
C472 C471 1.387 . S
C472 C475 1.387 . S
H473 C469 0.950 . S
H474 C471 0.950 . S
C475 C466 1.390 . S
C475 H468 0.950 . S
C475 C472 1.387 . S
C237 C6 1.837 . S
C242 C170 1.796 . S
C247 C21 1.924 . S
C252 C187 1.890 1_565 S
C262 C210 0.912 . S
C257 C49 1.095 . S
C267 C68 1.415 . S
C272 C231 1.239 . S
C282 C190 2.191 . S
C277 C2 2.264 . S
C292 C167 1.350 . S
C287 C30 1.238 1_545 S
C302 C229 1.275 . S
C297 C40 1.289 . S
C312 C208 1.270 . S
C307 C63 1.353 . S
C317 C11 1.463 . S
C322 C232 1.669 . S
C332 C189 1.404 1_556 S
C327 C44 1.746 . S
C337 C59 1.411 . S
C342 C165 1.286 . S
C347 C25 1.709 . S
C352 C211 1.665 . S
C362 C169 1.886 1_565 S
C357 C82 1.982 . S
C367 C101 1.623 . S
C372 C188 1.631 . S
C377 C125 1.329 . S
C382 C207 1.138 . S
C387 C144 1.148 . S
C392 C228 1.049 . S
C397 C87 1.288 . S
C402 C191 1.441 . S
C412 C166 2.196 . S
C407 C97 2.211 . S
C422 C230 1.118 . S
C417 C120 1.216 . S
C432 C209 1.492 . S
C427 C135 1.476 . S
C437 C78 1.842 . S
C442 C233 1.773 . S
C452 C186 1.008 . S
C447 C116 1.186 . S
C462 C168 1.469 . S
C457 C139 1.616 . S
C467 C106 1.385 . S
C472 C212 1.544 . S
