# Generated by pormake.
# Topology ptr, (4,4)-cn, num edge types: 1
# Building blocks:
#     Node 0, Type 0, BuildingBlock: NAHDIM_clean_sbu_0, # of connection points: 4
#     Node 1, Type 0, BuildingBlock: NAHDIM_clean_sbu_0, # of connection points: 4
#     Node 2, Type 0, BuildingBlock: NAHDIM_clean_sbu_0, # of connection points: 4
#     Node 3, Type 0, BuildingBlock: NAHDIM_clean_sbu_0, # of connection points: 4
#     Node 4, Type 0, BuildingBlock: NAHDIM_clean_sbu_0, # of connection points: 4
#     Node 5, Type 0, BuildingBlock: NAHDIM_clean_sbu_0, # of connection points: 4
#     Node 6, Type 0, BuildingBlock: NAHDIM_clean_sbu_0, # of connection points: 4
#     Node 7, Type 0, BuildingBlock: NAHDIM_clean_sbu_0, # of connection points: 4
#     Node 8, Type 0, BuildingBlock: NAHDIM_clean_sbu_0, # of connection points: 4
#     Node 9, Type 0, BuildingBlock: NAHDIM_clean_sbu_0, # of connection points: 4
#     Node 10, Type 0, BuildingBlock: NAHDIM_clean_sbu_0, # of connection points: 4
#     Node 11, Type 0, BuildingBlock: NAHDIM_clean_sbu_0, # of connection points: 4
#     Node 12, Type 0, BuildingBlock: NAHDIM_clean_sbu_0, # of connection points: 4
#     Node 13, Type 0, BuildingBlock: NAHDIM_clean_sbu_0, # of connection points: 4
#     Node 14, Type 0, BuildingBlock: NAHDIM_clean_sbu_0, # of connection points: 4
#     Node 15, Type 0, BuildingBlock: NAHDIM_clean_sbu_0, # of connection points: 4
#     Node 16, Type 0, BuildingBlock: NAHDIM_clean_sbu_0, # of connection points: 4
#     Node 17, Type 0, BuildingBlock: NAHDIM_clean_sbu_0, # of connection points: 4
#     Node 18, Type 1, BuildingBlock: NAWXER_clean_linker_0, # of connection points: 4
#     Node 19, Type 1, BuildingBlock: NAWXER_clean_linker_0, # of connection points: 4
#     Node 20, Type 1, BuildingBlock: NAWXER_clean_linker_0, # of connection points: 4
#     Node 21, Type 1, BuildingBlock: NAWXER_clean_linker_0, # of connection points: 4
#     Node 22, Type 1, BuildingBlock: NAWXER_clean_linker_0, # of connection points: 4
#     Node 23, Type 1, BuildingBlock: NAWXER_clean_linker_0, # of connection points: 4
#     Node 24, Type 1, BuildingBlock: NAWXER_clean_linker_0, # of connection points: 4
#     Node 25, Type 1, BuildingBlock: NAWXER_clean_linker_0, # of connection points: 4
#     Node 26, Type 1, BuildingBlock: NAWXER_clean_linker_0, # of connection points: 4
#     Node 27, Type 1, BuildingBlock: NAWXER_clean_linker_0, # of connection points: 4
#     Node 28, Type 1, BuildingBlock: NAWXER_clean_linker_0, # of connection points: 4
#     Node 29, Type 1, BuildingBlock: NAWXER_clean_linker_0, # of connection points: 4
#     Node 30, Type 1, BuildingBlock: NAWXER_clean_linker_0, # of connection points: 4
#     Node 31, Type 1, BuildingBlock: NAWXER_clean_linker_0, # of connection points: 4
#     Node 32, Type 1, BuildingBlock: NAWXER_clean_linker_0, # of connection points: 4
#     Node 33, Type 1, BuildingBlock: NAWXER_clean_linker_0, # of connection points: 4
#     Node 34, Type 1, BuildingBlock: NAWXER_clean_linker_0, # of connection points: 4
#     Node 35, Type 1, BuildingBlock: NAWXER_clean_linker_0, # of connection points: 4
#     Edge 36, Type (0, 1), BuildingBlock: UVAHIK_clean_linker_0, # of connection points: 2
#     Edge 37, Type (0, 1), BuildingBlock: UVAHIK_clean_linker_0, # of connection points: 2
#     Edge 38, Type (0, 1), BuildingBlock: UVAHIK_clean_linker_0, # of connection points: 2
#     Edge 39, Type (0, 1), BuildingBlock: UVAHIK_clean_linker_0, # of connection points: 2
#     Edge 40, Type (0, 1), BuildingBlock: UVAHIK_clean_linker_0, # of connection points: 2
#     Edge 41, Type (0, 1), BuildingBlock: UVAHIK_clean_linker_0, # of connection points: 2
#     Edge 42, Type (0, 1), BuildingBlock: UVAHIK_clean_linker_0, # of connection points: 2
#     Edge 43, Type (0, 1), BuildingBlock: UVAHIK_clean_linker_0, # of connection points: 2
#     Edge 44, Type (0, 1), BuildingBlock: UVAHIK_clean_linker_0, # of connection points: 2
#     Edge 45, Type (0, 1), BuildingBlock: UVAHIK_clean_linker_0, # of connection points: 2
#     Edge 46, Type (0, 1), BuildingBlock: UVAHIK_clean_linker_0, # of connection points: 2
#     Edge 47, Type (0, 1), BuildingBlock: UVAHIK_clean_linker_0, # of connection points: 2
#     Edge 48, Type (0, 1), BuildingBlock: UVAHIK_clean_linker_0, # of connection points: 2
#     Edge 49, Type (0, 1), BuildingBlock: UVAHIK_clean_linker_0, # of connection points: 2
#     Edge 50, Type (0, 1), BuildingBlock: UVAHIK_clean_linker_0, # of connection points: 2
#     Edge 51, Type (0, 1), BuildingBlock: UVAHIK_clean_linker_0, # of connection points: 2
#     Edge 52, Type (0, 1), BuildingBlock: UVAHIK_clean_linker_0, # of connection points: 2
#     Edge 53, Type (0, 1), BuildingBlock: UVAHIK_clean_linker_0, # of connection points: 2
#     Edge 54, Type (0, 1), BuildingBlock: UVAHIK_clean_linker_0, # of connection points: 2
#     Edge 55, Type (0, 1), BuildingBlock: UVAHIK_clean_linker_0, # of connection points: 2
#     Edge 56, Type (0, 1), BuildingBlock: UVAHIK_clean_linker_0, # of connection points: 2
#     Edge 57, Type (0, 1), BuildingBlock: UVAHIK_clean_linker_0, # of connection points: 2
#     Edge 58, Type (0, 1), BuildingBlock: UVAHIK_clean_linker_0, # of connection points: 2
#     Edge 59, Type (0, 1), BuildingBlock: UVAHIK_clean_linker_0, # of connection points: 2
#     Edge 60, Type (0, 1), BuildingBlock: UVAHIK_clean_linker_0, # of connection points: 2
#     Edge 61, Type (0, 1), BuildingBlock: UVAHIK_clean_linker_0, # of connection points: 2
#     Edge 62, Type (0, 1), BuildingBlock: UVAHIK_clean_linker_0, # of connection points: 2
#     Edge 63, Type (0, 1), BuildingBlock: UVAHIK_clean_linker_0, # of connection points: 2
#     Edge 64, Type (0, 1), BuildingBlock: UVAHIK_clean_linker_0, # of connection points: 2
#     Edge 65, Type (0, 1), BuildingBlock: UVAHIK_clean_linker_0, # of connection points: 2
#     Edge 66, Type (0, 1), BuildingBlock: UVAHIK_clean_linker_0, # of connection points: 2
#     Edge 67, Type (0, 1), BuildingBlock: UVAHIK_clean_linker_0, # of connection points: 2
#     Edge 68, Type (0, 1), BuildingBlock: UVAHIK_clean_linker_0, # of connection points: 2
#     Edge 69, Type (0, 1), BuildingBlock: UVAHIK_clean_linker_0, # of connection points: 2
#     Edge 70, Type (0, 1), BuildingBlock: UVAHIK_clean_linker_0, # of connection points: 2
#     Edge 71, Type (0, 1), BuildingBlock: UVAHIK_clean_linker_0, # of connection points: 2
#     Edge 72, Type (0, 1), BuildingBlock: UVAHIK_clean_linker_0, # of connection points: 2
#     Edge 73, Type (0, 1), BuildingBlock: UVAHIK_clean_linker_0, # of connection points: 2
#     Edge 74, Type (0, 1), BuildingBlock: UVAHIK_clean_linker_0, # of connection points: 2
#     Edge 75, Type (0, 1), BuildingBlock: UVAHIK_clean_linker_0, # of connection points: 2
#     Edge 76, Type (0, 1), BuildingBlock: UVAHIK_clean_linker_0, # of connection points: 2
#     Edge 77, Type (0, 1), BuildingBlock: UVAHIK_clean_linker_0, # of connection points: 2
#     Edge 78, Type (0, 1), BuildingBlock: UVAHIK_clean_linker_0, # of connection points: 2
#     Edge 79, Type (0, 1), BuildingBlock: UVAHIK_clean_linker_0, # of connection points: 2
#     Edge 80, Type (0, 1), BuildingBlock: UVAHIK_clean_linker_0, # of connection points: 2
#     Edge 81, Type (0, 1), BuildingBlock: UVAHIK_clean_linker_0, # of connection points: 2
#     Edge 82, Type (0, 1), BuildingBlock: UVAHIK_clean_linker_0, # of connection points: 2
#     Edge 83, Type (0, 1), BuildingBlock: UVAHIK_clean_linker_0, # of connection points: 2
#     Edge 84, Type (0, 1), BuildingBlock: UVAHIK_clean_linker_0, # of connection points: 2
#     Edge 85, Type (0, 1), BuildingBlock: UVAHIK_clean_linker_0, # of connection points: 2
#     Edge 86, Type (0, 1), BuildingBlock: UVAHIK_clean_linker_0, # of connection points: 2
#     Edge 87, Type (0, 1), BuildingBlock: UVAHIK_clean_linker_0, # of connection points: 2
#     Edge 88, Type (0, 1), BuildingBlock: UVAHIK_clean_linker_0, # of connection points: 2
#     Edge 89, Type (0, 1), BuildingBlock: UVAHIK_clean_linker_0, # of connection points: 2
#     Edge 90, Type (0, 1), BuildingBlock: UVAHIK_clean_linker_0, # of connection points: 2
#     Edge 91, Type (0, 1), BuildingBlock: UVAHIK_clean_linker_0, # of connection points: 2
#     Edge 92, Type (0, 1), BuildingBlock: UVAHIK_clean_linker_0, # of connection points: 2
#     Edge 93, Type (0, 1), BuildingBlock: UVAHIK_clean_linker_0, # of connection points: 2
#     Edge 94, Type (0, 1), BuildingBlock: UVAHIK_clean_linker_0, # of connection points: 2
#     Edge 95, Type (0, 1), BuildingBlock: UVAHIK_clean_linker_0, # of connection points: 2
#     Edge 96, Type (0, 1), BuildingBlock: UVAHIK_clean_linker_0, # of connection points: 2
#     Edge 97, Type (0, 1), BuildingBlock: UVAHIK_clean_linker_0, # of connection points: 2
#     Edge 98, Type (0, 1), BuildingBlock: UVAHIK_clean_linker_0, # of connection points: 2
#     Edge 99, Type (0, 1), BuildingBlock: UVAHIK_clean_linker_0, # of connection points: 2
#     Edge 100, Type (0, 1), BuildingBlock: UVAHIK_clean_linker_0, # of connection points: 2
#     Edge 101, Type (0, 1), BuildingBlock: UVAHIK_clean_linker_0, # of connection points: 2
#     Edge 102, Type (0, 1), BuildingBlock: UVAHIK_clean_linker_0, # of connection points: 2
#     Edge 103, Type (0, 1), BuildingBlock: UVAHIK_clean_linker_0, # of connection points: 2
#     Edge 104, Type (0, 1), BuildingBlock: UVAHIK_clean_linker_0, # of connection points: 2
#     Edge 105, Type (0, 1), BuildingBlock: UVAHIK_clean_linker_0, # of connection points: 2
#     Edge 106, Type (0, 1), BuildingBlock: UVAHIK_clean_linker_0, # of connection points: 2
#     Edge 107, Type (0, 1), BuildingBlock: UVAHIK_clean_linker_0, # of connection points: 2
# Relax obj value: 0.073
# Max RMSD: 0.264
# Mean RMSD: 0.108
data_MOF--net-ptr--node1-NAHDIM_clean_sbu_0--node2-NAWXER_clean_linker_0--edge1-UVAHIK_clean_linker_0
_symmetry_space_group_name_H-M    P1
_symmetry_Int_Tables_number       1
_symmetry_cell_setting            triclinic
loop_
_symmetry_equiv_pos_as_xyz
'x, y, z'
_cell_length_a     109.93983
_cell_length_b     107.84813
_cell_length_c     78.239062
_cell_angle_alpha  91.601566
_cell_angle_beta   89.160571
_cell_angle_gamma 121.84668
loop_
_atom_site_label
_atom_site_type_symbol
_atom_site_fract_x
_atom_site_fract_y
_atom_site_fract_z
_atom_type_partial_charge
C0 C 0.03498 0.34387 0.0097 0.0
O1 O 0.02665 0.33505 0.9974 0.0
O2 O 0.00356 0.3396 0.99359 0.0
Zn3 Zn 0.01938 0.35826 0.00439 0.0
O4 O 0.01192 0.36509 0.02372 0.0
C5 C 0.02825 0.37112 0.97103 0.0
O6 O 0.02415 0.35773 0.96609 0.0
O7 O 0.03419 0.35484 0.01418 0.0
C8 C -0.00057 0.36303 0.02443 0.0
O9 O 0.99031 0.35567 0.012 0.0
C10 C 0.99495 0.32849 0.0022 0.0
O11 O 0.99592 0.32926 0.01895 0.0
O12 O 0.02767 0.37391 0.98681 0.0
C13 C 0.67881 0.65985 0.98527 0.0
O14 O 0.66844 0.66004 0.97743 0.0
O15 O 0.66512 0.67361 0.02336 0.0
Zn16 Zn 0.65999 0.65407 0.0134 0.0
O17 O 0.64352 0.64582 0.99686 0.0
C18 C 0.64515 0.64021 0.04305 0.0
O19 O 0.64099 0.64942 0.04057 0.0
O20 O 0.67746 0.6569 0.00107 0.0
C21 C 0.63482 0.65003 0.99476 0.0
O22 O 0.63609 0.66095 0.00413 0.0
C23 C 0.66884 0.68478 0.01454 0.0
O24 O 0.66873 0.68365 0.99778 0.0
O25 O 0.65407 0.64004 0.03267 0.0
C26 C 0.33931 0.02679 0.99055 0.0
O27 O 0.33404 0.01331 0.98488 0.0
O28 O 0.32765 9e-05 0.02242 0.0
Zn29 Zn 0.34772 0.01473 0.01479 0.0
O30 O 0.35526 0.00687 0.99662 0.0
C31 C 0.35858 0.01215 0.04626 0.0
O32 O 0.34707 -0.00096 0.04463 0.0
O33 O 0.34659 0.0309 0.00429 0.0
C34 C 0.35756 0.99659 0.99829 0.0
O35 O 0.35428 0.98959 0.01273 0.0
C36 C 0.31961 0.98683 0.01762 0.0
O37 O 0.32433 0.98106 0.00639 0.0
O38 O 0.36115 0.02155 0.03503 0.0
C39 C 0.97628 0.6727 0.0057 0.0
O40 O 0.98503 0.68097 0.01804 0.0
O41 O 0.00805 0.67487 0.01822 0.0
Zn42 Zn 0.99102 0.65695 0.0079 0.0
O43 O 0.9964 0.64914 0.98749 0.0
C44 C 0.9825 0.64353 0.04122 0.0
O45 O 0.98772 0.65697 0.04697 0.0
O46 O 0.97668 0.66176 5e-05 0.0
C47 C 0.00869 0.65117 0.98432 0.0
O48 O 0.01939 0.65947 0.99474 0.0
C49 C 0.01549 0.68663 0.01013 0.0
O50 O 0.01247 0.68701 0.99403 0.0
O51 O 0.98247 0.64112 0.02523 0.0
C52 C 0.31222 0.33997 0.02589 0.0
O53 O 0.31621 0.33049 0.02379 0.0
O54 O 0.3327 0.3384 0.99315 0.0
Zn55 Zn 0.3376 0.35651 0.00691 0.0
O56 O 0.35294 0.36094 0.02409 0.0
C57 C 0.34108 0.37217 0.97582 0.0
O58 O 0.33157 0.35913 0.96969 0.0
O59 O 0.31991 0.35257 0.01962 0.0
C60 C 0.36607 0.36848 0.01991 0.0
O61 O 0.36948 0.37321 0.00423 0.0
C62 C 0.34116 0.33752 0.98268 0.0
O63 O 0.35401 0.34902 0.98031 0.0
O64 O 0.34481 0.37364 0.99141 0.0
C65 C 0.65396 0.9745 0.02803 0.0
O66 O 0.65315 0.98479 0.03635 0.0
O67 O 0.66608 0.00389 0.9918 0.0
Zn68 Zn 0.64758 0.98685 0.00048 0.0
O69 O 0.63769 0.99308 0.01738 0.0
C70 C 0.63824 0.98083 0.96519 0.0
O71 O 0.65197 0.98966 0.96222 0.0
O72 O 0.65176 0.97293 0.01197 0.0
C73 C 0.64148 0.00598 0.02219 0.0
O74 O 0.65313 0.01713 0.01581 0.0
C75 C 0.67764 0.01147 0.00021 0.0
O76 O 0.67792 0.00889 0.01646 0.0
O77 O 0.63399 0.97733 0.9805 0.0
C78 C 0.67944 0.67757 0.36549 0.0
O79 O 0.66875 0.67711 0.37382 0.0
O80 O 0.65311 0.66799 0.32618 0.0
Zn81 Zn 0.66822 0.68613 0.33853 0.0
O82 O 0.65906 0.69232 0.35639 0.0
C83 C 0.68011 0.69968 0.30617 0.0
O84 O 0.67501 0.68611 0.30102 0.0
O85 O 0.68165 0.6815 0.35 0.0
C86 C 0.65136 0.69747 0.35288 0.0
O87 O 0.64907 0.69884 0.3368 0.0
C88 C 0.64425 0.65665 0.33427 0.0
O89 O 0.64471 0.657 0.35106 0.0
O90 O 0.67874 0.70233 0.32177 0.0
C91 C 0.34878 0.99563 0.3403 0.0
O92 O 0.34978 0.0068 0.34881 0.0
O93 O 0.32264 0.00062 0.35897 0.0
Zn94 Zn 0.31853 0.98151 0.34864 0.0
O95 O 0.30436 0.97474 0.32931 0.0
C96 C 0.31516 0.96852 0.3817 0.0
O97 O 0.32586 0.98161 0.38608 0.0
O98 O 0.33666 0.9838 0.33898 0.0
C99 C 0.2989 0.98158 0.32332 0.0
O100 O 0.30235 0.99431 0.33007 0.0
C101 C 0.31381 0.00184 0.36841 0.0
O102 O 0.30117 0.99021 0.3714 0.0
O103 O 0.31043 0.96606 0.36647 0.0
C104 C 0.01543 0.35696 0.31314 0.0
O105 O 0.01355 0.34551 0.30439 0.0
O106 O -0.00018 0.32966 0.35333 0.0
Zn107 Zn 0.01839 0.34186 0.34092 0.0
O108 O 0.02144 0.32959 0.32354 0.0
C109 C 0.03322 0.3429 0.37106 0.0
O110 O 0.02141 0.33012 0.37293 0.0
O111 O 0.01784 0.35791 0.32911 0.0
C112 C 0.01995 0.3174 0.32687 0.0
O113 O 0.01605 0.31221 0.3423 0.0
C114 C 0.98772 0.32258 0.34594 0.0
O115 O 0.98708 0.32296 0.32922 0.0
O116 O 0.0345 0.35037 0.35811 0.0
C117 C 0.65023 0.99508 0.32444 0.0
O118 O 0.66357 0.00604 0.32567 0.0
O119 O 0.6752 0.00132 0.35567 0.0
Zn120 Zn 0.66157 0.98176 0.34433 0.0
O121 O 0.6719 0.97627 0.32726 0.0
C122 C 0.65406 0.96863 0.37787 0.0
O123 O 0.66178 0.98224 0.38344 0.0
O124 O 0.64657 0.98318 0.33166 0.0
C125 C 0.67905 0.97082 0.33207 0.0
O126 O 0.67986 0.96902 0.34847 0.0
C127 C 0.68832 0.00925 0.35155 0.0
O128 O 0.69357 0.00456 0.33963 0.0
O129 O 0.65231 0.96596 0.36186 0.0
C130 C 0.97867 0.67498 0.34462 0.0
O131 O 0.97972 0.66904 0.33022 0.0
O132 O 0.00814 0.67017 0.33609 0.0
Zn133 Zn 0.00941 0.68836 0.3455 0.0
O134 O 0.02256 0.69578 0.36583 0.0
C135 C 0.02447 0.70268 0.315 0.0
O136 O 0.02652 0.69173 0.31444 0.0
O137 O 0.98994 0.68376 0.35301 0.0
C138 C 0.03545 0.69912 0.36421 0.0
O139 O 0.04004 0.69773 0.34911 0.0
C140 C -0.00018 0.6574 0.3416 0.0
O141 O 0.99131 0.65543 0.35458 0.0
O142 O 0.01727 0.70364 0.32727 0.0
C143 C 0.32128 0.31505 0.3682 0.0
O144 O 0.3223 0.32618 0.37681 0.0
O145 O 0.33063 0.34104 0.32755 0.0
Zn146 Zn 0.31341 0.32711 0.34137 0.0
O147 O 0.30902 0.33779 0.35955 0.0
C148 C 0.29704 0.31424 0.3101 0.0
O149 O 0.30968 0.31899 0.30321 0.0
O150 O 0.31746 0.31302 0.35259 0.0
C151 C 0.31319 0.35125 0.35972 0.0
O152 O 0.32106 0.35944 0.34707 0.0
C153 C 0.34288 0.34881 0.33445 0.0
O154 O 0.34417 0.34804 0.35099 0.0
O155 O 0.29616 0.31625 0.32604 0.0
C156 C 0.35301 0.0202 0.70644 0.0
O157 O 0.34227 0.01976 0.7146 0.0
O158 O 0.32687 0.00864 0.66545 0.0
Zn159 Zn 0.34113 0.02692 0.67827 0.0
O160 O 0.33086 0.03257 0.69519 0.0
C161 C 0.35468 0.04061 0.64663 0.0
O162 O 0.35099 0.02724 0.64215 0.0
O163 O 0.3548 0.02319 0.69065 0.0
C164 C 0.32129 0.03504 0.69071 0.0
O165 O 0.31795 0.03393 0.67444 0.0
C166 C 0.31754 0.99738 0.67329 0.0
O167 O 0.31713 0.99782 0.69008 0.0
O168 O 0.35178 0.04313 0.66164 0.0
C169 C 0.01463 0.32415 0.64996 0.0
O170 O 0.00511 0.32625 0.6429 0.0
O171 O 0.99547 0.33104 0.68668 0.0
Zn172 Zn 0.9932 0.31291 0.67558 0.0
O173 O 0.97775 0.3054 0.6576 0.0
C174 C 0.99111 0.30079 0.70891 0.0
O175 O -0.00019 0.31455 0.71347 0.0
O176 O 0.01192 0.31821 0.66446 0.0
C177 C 0.96485 0.29565 0.66091 0.0
O178 O 0.96157 0.29023 0.6763 0.0
C179 C 0.98503 0.33074 0.69428 0.0
O180 O 0.97262 0.31836 0.69486 0.0
O181 O 0.98736 0.29755 0.69334 0.0
C182 C 0.67061 0.68265 0.65677 0.0
O183 O 0.66099 0.66886 0.65944 0.0
O184 O 0.6699 0.66151 0.68953 0.0
Zn185 Zn 0.68736 0.67482 0.67556 0.0
O186 O 0.69162 0.66319 0.6586 0.0
C187 C 0.70351 0.68894 0.7067 0.0
O188 O 0.69078 0.68419 0.71333 0.0
O189 O 0.68321 0.68804 0.66256 0.0
C190 C 0.69962 0.65851 0.66264 0.0
O191 O 0.70478 0.66096 0.67824 0.0
C192 C 0.66848 0.65128 0.69869 0.0
O193 O 0.67898 0.64885 0.69942 0.0
O194 O 0.70454 0.68656 0.6909 0.0
C195 C 0.31415 0.32849 0.64726 0.0
O196 O 0.32445 0.32849 0.63855 0.0
O197 O 0.33978 0.33629 0.68716 0.0
Zn198 Zn 0.32497 0.31887 0.67349 0.0
O199 O 0.33396 0.31277 0.65504 0.0
C200 C 0.32079 0.29649 0.69507 0.0
O201 O 0.33416 0.30194 0.69036 0.0
O202 O 0.31197 0.32436 0.66266 0.0
C203 C 0.34717 0.31718 0.65367 0.0
O204 O 0.35627 0.32648 0.6651 0.0
C205 C 0.34801 0.34851 0.68026 0.0
O206 O 0.34723 0.34962 0.66368 0.0
O207 O 0.31402 0.30209 0.68938 0.0
C208 C 0.65182 0.00876 0.68835 0.0
O209 O 0.65479 0.99854 0.69002 0.0
O210 O 0.6736 0.00179 0.66388 0.0
Zn211 Zn 0.6787 0.02203 0.67155 0.0
O212 O 0.69346 0.03055 0.69039 0.0
C213 C 0.69221 0.03274 0.63908 0.0
O214 O 0.69367 0.02144 0.63986 0.0
O215 O 0.6607 0.02037 0.68068 0.0
C216 C 0.70666 0.03525 0.6881 0.0
O217 O 0.71122 0.03434 0.67279 0.0
C218 C 0.68084 0.9959 0.66619 0.0
O219 O 0.69309 0.00318 0.67438 0.0
O220 O 0.68602 0.03529 0.6513 0.0
C221 C 0.97532 0.64345 0.69458 0.0
O222 O 0.97654 0.65461 0.70337 0.0
O223 O 0.98957 0.67203 0.65626 0.0
Zn224 Zn 0.97072 0.65769 0.66717 0.0
O225 O 0.96493 0.66757 0.68484 0.0
C226 C 0.95744 0.64879 0.63344 0.0
O227 O 0.97071 0.65555 0.62789 0.0
O228 O 0.97273 0.64232 0.67864 0.0
C229 C 0.96902 0.68102 0.68561 0.0
O230 O 0.97786 0.68985 0.67398 0.0
C231 C 0.00069 0.68026 0.66519 0.0
O232 O -0.00024 0.67971 0.68194 0.0
O233 O 0.95508 0.64823 0.64944 0.0
C234 C 0.18688 0.30387 0.14218 0.0
C235 C 0.18591 0.29661 0.1266 0.0
C236 C 0.17463 0.2997 0.15194 0.0
C237 C 0.1612 0.28816 0.1463 0.0
C238 C 0.17247 0.28501 0.12102 0.0
C239 C 0.16019 0.28092 0.13073 0.0
C240 C 0.14809 0.28442 0.15591 0.0
C241 C 0.17368 0.27254 0.18833 0.0
C242 C 0.17758 0.27981 0.20436 0.0
C243 C 0.16339 0.27282 0.1783 0.0
C244 C 0.15706 0.28062 0.18397 0.0
C245 C 0.17096 0.28728 0.21017 0.0
C246 C 0.16079 0.28764 0.2001 0.0
C247 C 0.14638 0.28144 0.17352 0.0
C248 C 0.08715 0.27093 0.18838 0.0
C249 C 0.09016 0.27693 0.20505 0.0
C250 C 0.09812 0.27194 0.178 0.0
C251 C 0.11235 0.27948 0.18396 0.0
C252 C 0.10425 0.28403 0.21117 0.0
C253 C 0.11522 0.28535 0.20072 0.0
C254 C 0.12437 0.28096 0.17342 0.0
C255 C 0.10631 0.30181 0.14119 0.0
C256 C 0.1022 0.29588 0.12451 0.0
C257 C 0.11373 0.29768 0.15162 0.0
C258 C 0.11691 0.28727 0.14574 0.0
C259 C 0.10534 0.28539 0.11873 0.0
C260 C 0.11263 0.28117 0.12923 0.0
C261 C 0.12615 0.284 0.15576 0.0
H262 H 0.19711 0.3128 0.14682 0.0
H263 H 0.1756 0.30567 0.16372 0.0
H264 H 0.17139 0.27935 0.10896 0.0
H265 H 0.1499 0.27214 0.12605 0.0
H266 H 0.17846 0.26653 0.18365 0.0
H267 H 0.16037 0.26689 0.16616 0.0
H268 H 0.17386 0.29312 0.22237 0.0
H269 H 0.15603 0.29368 0.20482 0.0
H270 H 0.0763 0.26528 0.18349 0.0
H271 H 0.09544 0.26678 0.16542 0.0
H272 H 0.10683 0.28883 0.22396 0.0
H273 H 0.12604 0.29112 0.20574 0.0
H274 H 0.10397 0.30981 0.14612 0.0
H275 H 0.11731 0.30292 0.16409 0.0
H276 H 0.10261 0.28079 0.10588 0.0
H277 H 0.11521 0.27334 0.12429 0.0
N278 N 0.13788 0.28547 0.14773 0.0
N279 N 0.13461 0.27985 0.18152 0.0
C280 C 0.69738 0.89088 0.13841 0.0
C281 C 0.70407 0.89756 0.12299 0.0
C282 C 0.70179 0.88286 0.1473 0.0
C283 C 0.71313 0.88155 0.14107 0.0
C284 C 0.71553 0.89639 0.11692 0.0
C285 C 0.71996 0.8884 0.12583 0.0
C286 C 0.71681 0.87172 0.14916 0.0
C287 C 0.72617 0.90695 0.18863 0.0
C288 C 0.71903 0.90173 0.20428 0.0
C289 C 0.72633 0.89731 0.1764 0.0
C290 C 0.71903 0.88225 0.17946 0.0
C291 C 0.71198 0.88673 0.20741 0.0
C292 C 0.71198 0.87712 0.19515 0.0
C293 C 0.71899 0.87167 0.16691 0.0
C294 C 0.72952 0.83011 0.19357 0.0
C295 C 0.71846 0.81552 0.19058 0.0
C296 C 0.73028 0.84132 0.18416 0.0
C297 C 0.7201 0.83817 0.17147 0.0
C298 C 0.70839 0.81236 0.17767 0.0
C299 C 0.70913 0.82359 0.1683 0.0
C300 C 0.72014 0.85026 0.16292 0.0
C301 C 0.70614 0.82318 0.10848 0.0
C302 C 0.71529 0.81784 0.10973 0.0
C303 C 0.70745 0.834 0.11987 0.0
C304 C 0.71791 0.83968 0.13276 0.0
C305 C 0.72607 0.82385 0.12227 0.0
C306 C 0.72748 0.83481 0.13357 0.0
C307 C 0.71861 0.85071 0.14509 0.0
H308 H 0.68837 0.89138 0.14327 0.0
H309 H 0.69602 0.87727 0.1587 0.0
H310 H 0.721 0.90153 0.10519 0.0
H311 H 0.72862 0.8874 0.12069 0.0
H312 H 0.73181 0.91849 0.186 0.0
H313 H 0.73226 0.90165 0.16466 0.0
H314 H 0.70625 0.88239 0.21927 0.0
H315 H 0.70631 0.86559 0.19789 0.0
H316 H 0.73751 0.83288 0.20332 0.0
H317 H 0.73874 0.8525 0.18694 0.0
H318 H 0.69958 0.80128 0.17527 0.0
H319 H 0.70086 0.8209 0.15898 0.0
H320 H 0.69766 0.81867 0.09904 0.0
H321 H 0.7 0.83764 0.11889 0.0
H322 H 0.7334 0.82007 0.12333 0.0
H323 H 0.73597 0.83937 0.143 0.0
N324 N 0.71689 0.86135 0.13898 0.0
N325 N 0.72047 0.86087 0.17304 0.0
C326 C 0.11016 0.81358 0.12759 0.0
C327 C 0.10263 0.81515 0.11432 0.0
C328 C 0.1194 0.82549 0.13807 0.0
C329 C 0.1212 0.83921 0.13565 0.0
C330 C 0.10447 0.82892 0.11187 0.0
C331 C 0.11375 0.84087 0.12239 0.0
C332 C 0.13196 0.85204 0.1458 0.0
C333 C 0.09748 0.8225 0.18277 0.0
C334 C 0.1023 0.81626 0.19432 0.0
C335 C 0.10729 0.83419 0.17276 0.0
C336 C 0.12205 0.83985 0.17431 0.0
C337 C 0.11707 0.8221 0.19598 0.0
C338 C 0.12683 0.83384 0.18617 0.0
C339 C 0.13273 0.85202 0.1638 0.0
C340 C 0.18697 0.90998 0.18087 0.0
C341 C 0.19229 0.90482 0.19325 0.0
C342 C 0.17501 0.90016 0.17098 0.0
C343 C 0.16822 0.88505 0.17333 0.0
C344 C 0.18534 0.88971 0.19564 0.0
C345 C 0.17343 0.87996 0.18584 0.0
C346 C 0.15547 0.8743 0.16329 0.0
C347 C 0.19123 0.89331 0.12487 0.0
C348 C 0.18985 0.90159 0.11238 0.0
C349 C 0.1799 0.8848 0.13589 0.0
C350 C 0.16699 0.88442 0.13465 0.0
C351 C 0.17697 0.90134 0.11125 0.0
C352 C 0.16555 0.89266 0.12219 0.0
C353 C 0.15466 0.87438 0.14531 0.0
H354 H 0.1093 0.80325 0.12956 0.0
H355 H 0.12547 0.82406 0.14774 0.0
H356 H 0.09878 0.83047 0.10179 0.0
H357 H 0.11519 0.85143 0.12014 0.0
H358 H 0.08614 0.81819 0.18131 0.0
H359 H 0.10339 0.83882 0.16386 0.0
H360 H 0.12108 0.81764 0.20497 0.0
H361 H 0.13816 0.83806 0.18764 0.0
H362 H 0.19209 0.92157 0.17878 0.0
H363 H 0.17101 0.90438 0.16164 0.0
H364 H 0.18897 0.88539 0.2053 0.0
H365 H 0.16833 0.86837 0.18798 0.0
H366 H 0.20107 0.89339 0.12608 0.0
H367 H 0.18112 0.87823 0.14514 0.0
H368 H 0.17561 0.90754 0.10163 0.0
H369 H 0.15558 0.89231 0.12088 0.0
N370 N 0.14291 0.86329 0.13725 0.0
N371 N 0.14447 0.86312 0.1718 0.0
C372 C 0.29313 0.1116 0.8302 0.0
C373 C 0.28103 0.10252 0.82 0.0
C374 C 0.29337 0.12206 0.84134 0.0
C375 C 0.28145 0.12356 0.84267 0.0
C376 C 0.26903 0.1039 0.82154 0.0
C377 C 0.26928 0.11439 0.83271 0.0
C378 C 0.28228 0.13572 0.85291 0.0
C379 C 0.2852 0.1066 0.89051 0.0
C380 C 0.29828 0.1133 0.89942 0.0
C381 C 0.28158 0.11492 0.88089 0.0
C382 C 0.29103 0.13009 0.87989 0.0
C383 C 0.30761 0.12851 0.89854 0.0
C384 C 0.30398 0.13681 0.88896 0.0
C385 C 0.28745 0.13918 0.86989 0.0
C386 C 0.28396 0.19237 0.88707 0.0
C387 C 0.29731 0.20106 0.89517 0.0
C388 C 0.28042 0.17921 0.87882 0.0
C389 C 0.29021 0.17459 0.87845 0.0
C390 C 0.3069 0.19618 0.89518 0.0
C391 C 0.30335 0.18304 0.88698 0.0
C392 C 0.28699 0.16103 0.86924 0.0
C393 C 0.29141 0.19177 0.82872 0.0
C394 C 0.27915 0.1869 0.81863 0.0
C395 C 0.29219 0.18234 0.83985 0.0
C396 C 0.28064 0.1679 0.84138 0.0
C397 C 0.2676 0.17242 0.82012 0.0
C398 C 0.26837 0.16299 0.83136 0.0
C399 C 0.28187 0.1576 0.85224 0.0
H400 H 0.30268 0.11108 0.82905 0.0
H401 H 0.30309 0.12935 0.84841 0.0
H402 H 0.2595 0.097 0.81396 0.0
H403 H 0.26004 0.11548 0.83338 0.0
H404 H 0.27766 0.09494 0.89116 0.0
H405 H 0.27134 0.10953 0.87438 0.0
H406 H 0.31784 0.13399 0.90505 0.0
H407 H 0.31143 0.1485 0.88842 0.0
H408 H 0.27636 0.19586 0.88683 0.0
H409 H 0.27008 0.1727 0.87264 0.0
H410 H 0.31715 0.20251 0.90159 0.0
H411 H 0.31101 0.17962 0.887 0.0
H412 H 0.30064 0.20273 0.82755 0.0
H413 H 0.30202 0.18624 0.8469 0.0
H414 H 0.25801 0.16836 0.81252 0.0
H415 H 0.25941 0.15183 0.83216 0.0
N416 N 0.27962 0.14503 0.8448 0.0
N417 N 0.28963 0.15172 0.87734 0.0
C418 C 0.90127 0.18927 0.89712 0.0
C419 C 0.89708 0.19603 0.90946 0.0
C420 C 0.89101 0.17762 0.88697 0.0
C421 C 0.87642 0.17278 0.88871 0.0
C422 C 0.88246 0.19083 0.91157 0.0
C423 C 0.87225 0.17932 0.90132 0.0
C424 C 0.86531 0.16079 0.87782 0.0
C425 C 0.89418 0.19636 0.84144 0.0
C426 C 0.90079 0.19212 0.82908 0.0
C427 C 0.88311 0.18596 0.85161 0.0
C428 C 0.87861 0.17114 0.84983 0.0
C429 C 0.8962 0.17726 0.82729 0.0
C430 C 0.88517 0.16688 0.8375 0.0
C431 C 0.86643 0.15991 0.85988 0.0
C432 C 0.80625 0.11536 0.83855 0.0
C433 C 0.80923 0.10958 0.82385 0.0
C434 C 0.81712 0.12451 0.85007 0.0
C435 C 0.83115 0.12764 0.84758 0.0
C436 C 0.82333 0.11285 0.82134 0.0
C437 C 0.83412 0.12172 0.83308 0.0
C438 C 0.84308 0.13826 0.85884 0.0
C439 C 0.81114 0.1032 0.89353 0.0
C440 C 0.80593 0.10825 0.90676 0.0
C441 C 0.82301 0.11308 0.88387 0.0
C442 C 0.82961 0.12819 0.88697 0.0
C443 C 0.81282 0.12332 0.91017 0.0
C444 C 0.82453 0.13318 0.90039 0.0
C445 C 0.8421 0.13896 0.87687 0.0
H446 H 0.91246 0.19293 0.89542 0.0
H447 H 0.89448 0.17244 0.87777 0.0
H448 H 0.87893 0.1959 0.92089 0.0
H449 H 0.86106 0.17571 0.90302 0.0
H450 H 0.89726 0.20767 0.8429 0.0
H451 H 0.8779 0.18947 0.86065 0.0
H452 H 0.90114 0.17365 0.81798 0.0
H453 H 0.88176 0.15549 0.83579 0.0
H454 H 0.79554 0.113 0.84112 0.0
H455 H 0.81457 0.12938 0.8607 0.0
H456 H 0.82621 0.10895 0.81002 0.0
H457 H 0.84489 0.12419 0.83064 0.0
H458 H 0.80614 0.09161 0.8908 0.0
H459 H 0.82701 0.1089 0.874 0.0
H460 H 0.80897 0.12752 0.92021 0.0
H461 H 0.8295 0.14476 0.90316 0.0
N462 N 0.85321 0.15028 0.88555 0.0
N463 N 0.8553 0.14867 0.85115 0.0
C464 C 0.81912 0.72463 0.88663 0.0
C465 C 0.81246 0.71254 0.89736 0.0
C466 C 0.83128 0.72772 0.87718 0.0
C467 C 0.83677 0.71857 0.87807 0.0
C468 C 0.81819 0.70363 0.89848 0.0
C469 C 0.83021 0.70663 0.88897 0.0
C470 C 0.84946 0.72127 0.86812 0.0
C471 C 0.8159 0.71255 0.82951 0.0
C472 C 0.81982 0.72408 0.81837 0.0
C473 C 0.8261 0.71262 0.83999 0.0
C474 C 0.84039 0.72437 0.83981 0.0
C475 C 0.83418 0.73571 0.81798 0.0
C476 C 0.84438 0.73583 0.82858 0.0
C477 C 0.85133 0.72428 0.85049 0.0
C478 C 0.89523 0.71013 0.83054 0.0
C479 C 0.90223 0.72005 0.8173 0.0
C480 C 0.88596 0.71155 0.84162 0.0
C481 C 0.88384 0.72323 0.84018 0.0
C482 C 0.90016 0.73179 0.81591 0.0
C483 C 0.89104 0.73334 0.82722 0.0
C484 C 0.8729 0.72394 0.85073 0.0
C485 C 0.90421 0.72549 0.88912 0.0
C486 C 0.89805 0.71302 0.89925 0.0
C487 C 0.89555 0.72822 0.8789 0.0
C488 C 0.88063 0.71853 0.87877 0.0
C489 C 0.88312 0.70346 0.89915 0.0
C490 C 0.87451 0.70625 0.88911 0.0
C491 C 0.87109 0.72113 0.86842 0.0
H492 H 0.81501 0.73177 0.88569 0.0
H493 H 0.83639 0.73724 0.86924 0.0
H494 H 0.81319 0.69413 0.90647 0.0
H495 H 0.83425 0.69943 0.88992 0.0
H496 H 0.805 0.70327 0.82981 0.0
H497 H 0.82285 0.70337 0.84804 0.0
H498 H 0.83751 0.74475 0.80953 0.0
H499 H 0.85539 0.74489 0.82805 0.0
H500 H 0.89667 0.70105 0.83218 0.0
H501 H 0.8801 0.70317 0.85094 0.0
H502 H 0.90516 0.73951 0.80572 0.0
H503 H 0.88936 0.74228 0.82561 0.0
H504 H 0.9157 0.73303 0.88898 0.0
H505 H 0.90047 0.73789 0.87121 0.0
H506 H 0.87807 0.6939 0.90703 0.0
H507 H 0.86302 0.69868 0.88931 0.0
N508 N 0.85943 0.71984 0.87631 0.0
N509 N 0.86302 0.72558 0.84252 0.0
C510 C 0.75767 0.617 0.45755 0.0
C511 C 0.76326 0.62915 0.44694 0.0
C512 C 0.76683 0.61379 0.46589 0.0
C513 C 0.78174 0.62281 0.46395 0.0
C514 C 0.77817 0.638 0.44485 0.0
C515 C 0.78729 0.63483 0.45321 0.0
C516 C 0.79175 0.61975 0.47257 0.0
C517 C 0.77137 0.63085 0.51558 0.0
C518 C 0.76392 0.6199 0.52765 0.0
C519 C 0.77971 0.62941 0.50302 0.0
C520 C 0.78057 0.61688 0.50203 0.0
C521 C 0.76461 0.60725 0.52651 0.0
C522 C 0.77296 0.60581 0.51388 0.0
C523 C 0.79066 0.6161 0.48997 0.0
C524 C 0.84775 0.62601 0.50603 0.0
C525 C 0.84407 0.61412 0.51647 0.0
C526 C 0.83736 0.6262 0.49621 0.0
C527 C 0.82309 0.61441 0.49642 0.0
C528 C 0.82979 0.60229 0.5166 0.0
C529 C 0.81939 0.60248 0.50673 0.0
C530 C 0.81182 0.61516 0.48727 0.0
C531 C 0.84168 0.61549 0.44687 0.0
C532 C 0.84914 0.62884 0.43839 0.0
C533 C 0.82984 0.61214 0.45715 0.0
C534 C 0.8253 0.62208 0.45899 0.0
C535 C 0.84438 0.6386 0.44003 0.0
C536 C 0.83252 0.6352 0.45013 0.0
C537 C 0.81305 0.61908 0.46998 0.0
H538 H 0.74622 0.60987 0.45921 0.0
H539 H 0.76225 0.60422 0.47372 0.0
H540 H 0.78282 0.64754 0.43695 0.0
H541 H 0.79874 0.64194 0.45148 0.0
H542 H 0.77097 0.64067 0.51604 0.0
H543 H 0.78584 0.63834 0.49442 0.0
H544 H 0.75914 0.59871 0.53576 0.0
H545 H 0.77368 0.59616 0.51354 0.0
H546 H 0.85857 0.63545 0.50594 0.0
H547 H 0.8404 0.6358 0.4889 0.0
H548 H 0.82663 0.59294 0.52445 0.0
H549 H 0.80841 0.59336 0.50725 0.0
H550 H 0.84515 0.60779 0.4458 0.0
H551 H 0.82427 0.60184 0.46365 0.0
H552 H 0.84981 0.64887 0.43344 0.0
H553 H 0.82913 0.64298 0.45128 0.0
N554 N 0.80296 0.62119 0.46334 0.0
N555 N 0.80064 0.61377 0.49657 0.0
C556 C 0.35637 0.22147 0.47087 0.0
C557 C 0.36313 0.22746 0.45525 0.0
C558 C 0.35999 0.21296 0.48005 0.0
C559 C 0.37064 0.2105 0.47396 0.0
C560 C 0.37352 0.22467 0.44894 0.0
C561 C 0.37721 0.21621 0.45821 0.0
C562 C 0.37432 0.20129 0.48352 0.0
C563 C 0.38644 0.24099 0.5166 0.0
C564 C 0.37743 0.23733 0.53094 0.0
C565 C 0.38678 0.23006 0.50691 0.0
C566 C 0.3782 0.21538 0.51154 0.0
C567 C 0.36917 0.22268 0.53576 0.0
C568 C 0.36965 0.21184 0.52624 0.0
C569 C 0.37768 0.20348 0.50112 0.0
C570 C 0.38997 0.15611 0.51522 0.0
C571 C 0.38348 0.15214 0.53142 0.0
C572 C 0.38846 0.16583 0.50532 0.0
C573 C 0.38027 0.17157 0.51134 0.0
C574 C 0.37554 0.15815 0.5375 0.0
C575 C 0.37401 0.1678 0.52761 0.0
C576 C 0.37828 0.1817 0.50108 0.0
C577 C 0.35572 0.13903 0.47193 0.0
C578 C 0.36098 0.13927 0.45538 0.0
C579 C 0.36028 0.152 0.48117 0.0
C580 C 0.37043 0.1655 0.47422 0.0
C581 C 0.37108 0.15281 0.44839 0.0
C582 C 0.37569 0.16581 0.4577 0.0
C583 C 0.37455 0.17929 0.48355 0.0
H584 H 0.34808 0.22313 0.47587 0.0
H585 H 0.35434 0.20817 0.49183 0.0
H586 H 0.37892 0.22917 0.43695 0.0
H587 H 0.38529 0.21424 0.45315 0.0
H588 H 0.39292 0.25222 0.51267 0.0
H589 H 0.3936 0.23303 0.49572 0.0
H590 H 0.36229 0.21962 0.5469 0.0
H591 H 0.36301 0.20059 0.53009 0.0
H592 H 0.39631 0.15181 0.51029 0.0
H593 H 0.39373 0.16888 0.493 0.0
H594 H 0.37023 0.15516 0.54981 0.0
H595 H 0.36767 0.1721 0.53256 0.0
H596 H 0.34802 0.1288 0.47776 0.0
H597 H 0.35565 0.15147 0.49365 0.0
H598 H 0.37518 0.15339 0.43557 0.0
H599 H 0.38332 0.17612 0.45196 0.0
N600 N 0.37292 0.18929 0.47539 0.0
N601 N 0.37953 0.19362 0.50919 0.0
C602 C 0.78709 0.14702 0.44892 0.0
C603 C 0.77711 0.14736 0.43827 0.0
C604 C 0.79553 0.15867 0.46011 0.0
C605 C 0.79421 0.17092 0.46081 0.0
C606 C 0.77578 0.15964 0.43896 0.0
C607 C 0.78443 0.17145 0.45004 0.0
C608 C 0.80331 0.18307 0.47274 0.0
C609 C 0.76629 0.14927 0.50408 0.0
C610 C 0.77047 0.14203 0.51499 0.0
C611 C 0.77663 0.16191 0.49583 0.0
C612 C 0.79126 0.16755 0.49857 0.0
C613 C 0.78512 0.14766 0.51755 0.0
C614 C 0.7954 0.16037 0.50953 0.0
C615 C 0.80241 0.18113 0.49051 0.0
C616 C 0.85244 0.2383 0.51857 0.0
C617 C 0.85598 0.23209 0.53167 0.0
C618 C 0.84212 0.22933 0.50629 0.0
C619 C 0.83549 0.21406 0.50674 0.0
C620 C 0.8493 0.21685 0.53208 0.0
C621 C 0.8392 0.20797 0.51978 0.0
C622 C 0.82426 0.20405 0.49436 0.0
C623 C 0.86347 0.23038 0.46192 0.0
C624 C 0.86202 0.23839 0.4491 0.0
C625 C 0.85156 0.22014 0.47114 0.0
C626 C 0.83799 0.21786 0.46794 0.0
C627 C 0.84841 0.23612 0.44594 0.0
C628 C 0.83649 0.22588 0.45523 0.0
C629 C 0.82516 0.20604 0.47648 0.0
H630 H 0.78822 0.13763 0.44878 0.0
H631 H 0.80313 0.15815 0.46826 0.0
H632 H 0.76817 0.16014 0.43082 0.0
H633 H 0.78335 0.18088 0.45039 0.0
H634 H 0.75506 0.14514 0.50194 0.0
H635 H 0.77322 0.1674 0.48756 0.0
H636 H 0.78862 0.1424 0.52607 0.0
H637 H 0.80664 0.16457 0.51185 0.0
H638 H 0.85739 0.25002 0.51807 0.0
H639 H 0.83921 0.23432 0.49665 0.0
H640 H 0.85198 0.21179 0.54188 0.0
H641 H 0.8343 0.19625 0.52044 0.0
H642 H 0.87373 0.23162 0.46439 0.0
H643 H 0.85291 0.21369 0.48042 0.0
H644 H 0.84697 0.24218 0.43621 0.0
H645 H 0.82607 0.22412 0.45238 0.0
N646 N 0.81461 0.19547 0.46635 0.0
N647 N 0.81289 0.19165 0.5006 0.0
C648 C 0.96427 0.52938 0.16709 0.0
C649 C 0.97179 0.53462 0.15167 0.0
C650 C 0.96594 0.51965 0.17677 0.0
C651 C 0.97547 0.51534 0.1714 0.0
C652 C 0.98112 0.53012 0.14622 0.0
C653 C 0.98294 0.52059 0.15598 0.0
C654 C 0.97733 0.50485 0.18112 0.0
C655 C 0.99116 0.54336 0.21711 0.0
C656 C 0.9838 0.54005 0.23281 0.0
C657 C 0.9896 0.53222 0.20604 0.0
C658 C 0.98034 0.51752 0.21022 0.0
C659 C 0.97472 0.52531 0.23706 0.0
C660 C 0.97304 0.51418 0.22589 0.0
C661 C 0.97907 0.50557 0.19909 0.0
C662 C 0.99757 0.46312 0.21019 0.0
C663 C 0.98996 0.45642 0.22516 0.0
C664 C 0.99457 0.47218 0.20117 0.0
C665 C 0.98372 0.47451 0.20676 0.0
C666 C 0.97932 0.45902 0.23096 0.0
C667 C 0.97626 0.46803 0.22185 0.0
C668 C 0.98068 0.48435 0.1975 0.0
C669 C 0.96933 0.44659 0.16146 0.0
C670 C 0.97893 0.45062 0.14767 0.0
C671 C 0.96923 0.45729 0.17187 0.0
C672 C 0.97867 0.47216 0.16857 0.0
C673 C 0.98819 0.4655 0.14426 0.0
C674 C 0.98796 0.47616 0.15453 0.0
C675 C 0.97892 0.48362 0.1796 0.0
H676 H 0.95687 0.53255 0.17145 0.0
H677 H 0.95968 0.51539 0.18831 0.0
H678 H 0.98715 0.5341 0.13446 0.0
H679 H 0.99028 0.51738 0.15149 0.0
H680 H 0.99815 0.55457 0.21333 0.0
H681 H 0.99577 0.53513 0.19433 0.0
H682 H 0.96913 0.52233 0.24917 0.0
H683 H 0.96605 0.50292 0.22954 0.0
H684 H 0.00604 0.46158 0.20562 0.0
H685 H 0.0009 0.47753 0.18996 0.0
H686 H 0.97324 0.45396 0.24242 0.0
H687 H 0.96798 0.46983 0.22652 0.0
H688 H 0.9621 0.4352 0.16435 0.0
H689 H 0.96182 0.45397 0.18251 0.0
H690 H 0.99556 0.46887 0.13358 0.0
H691 H 0.99524 0.48757 0.1517 0.0
N692 N 0.9774 0.49393 0.17212 0.0
N693 N 0.98057 0.49522 0.20655 0.0
C694 C 0.47793 0.42897 0.16223 0.0
C695 C 0.47495 0.43396 0.14741 0.0
C696 C 0.48807 0.43894 0.17406 0.0
C697 C 0.49505 0.45405 0.17143 0.0
C698 C 0.48202 0.44903 0.14477 0.0
C699 C 0.49192 0.45894 0.15664 0.0
C700 C 0.50612 0.46507 0.1833 0.0
C701 C 0.46636 0.44186 0.21579 0.0
C702 C 0.46752 0.43469 0.22985 0.0
C703 C 0.47844 0.45134 0.20624 0.0
C704 C 0.4919 0.45371 0.21042 0.0
C705 C 0.48101 0.43705 0.23394 0.0
C706 C 0.4931 0.44655 0.22438 0.0
C707 C 0.50489 0.46467 0.20133 0.0
C708 C 0.54711 0.52616 0.22185 0.0
C709 C 0.55422 0.5249 0.23585 0.0
C710 C 0.53823 0.51404 0.21147 0.0
C711 C 0.53642 0.50043 0.21467 0.0
C712 C 0.55206 0.51115 0.23937 0.0
C713 C 0.54318 0.49899 0.22888 0.0
C714 C 0.52695 0.48765 0.20358 0.0
C715 C 0.5649 0.5188 0.17172 0.0
C716 C 0.56111 0.52523 0.15917 0.0
C717 C 0.55428 0.50657 0.18035 0.0
C718 C 0.53976 0.50056 0.17639 0.0
C719 C 0.5466 0.51901 0.15506 0.0
C720 C 0.53605 0.50673 0.16349 0.0
C721 C 0.52823 0.48797 0.18561 0.0
H722 H 0.47266 0.41737 0.16445 0.0
H723 H 0.49057 0.43482 0.18506 0.0
H724 H 0.47979 0.45316 0.13355 0.0
H725 H 0.49712 0.4705 0.15426 0.0
H726 H 0.4562 0.44053 0.21251 0.0
H727 H 0.47733 0.45712 0.19587 0.0
H728 H 0.48225 0.4316 0.24459 0.0
H729 H 0.50343 0.44839 0.22794 0.0
H730 H 0.54824 0.5365 0.21907 0.0
H731 H 0.53268 0.5153 0.20097 0.0
H732 H 0.5574 0.50985 0.25007 0.0
H733 H 0.54172 0.48851 0.23171 0.0
H734 H 0.57603 0.5234 0.17506 0.0
H735 H 0.55737 0.50183 0.19011 0.0
H736 H 0.54341 0.52363 0.14525 0.0
H737 H 0.52492 0.50224 0.16018 0.0
N738 N 0.51776 0.47672 0.17623 0.0
N739 N 0.51541 0.47595 0.21077 0.0
C740 C 0.47288 0.02581 0.22513 0.0
C741 C 0.46557 0.01367 0.23574 0.0
C742 C 0.48363 0.02721 0.21408 0.0
C743 C 0.48715 0.01644 0.21336 0.0
C744 C 0.46942 0.00314 0.2353 0.0
C745 C 0.48015 0.00455 0.22428 0.0
C746 C 0.49826 0.0175 0.20156 0.0
C747 C 0.46225 0.01161 0.16904 0.0
C748 C 0.46603 0.02257 0.15704 0.0
C749 C 0.47277 0.01074 0.17771 0.0
C750 C 0.48734 0.02109 0.17504 0.0
C751 C 0.48066 0.03273 0.15412 0.0
C752 C 0.49118 0.03198 0.16302 0.0
C753 C 0.49864 0.02013 0.1839 0.0
C754 C 0.54229 0.00709 0.15731 0.0
C755 C 0.54964 0.01829 0.14548 0.0
C756 C 0.53258 0.00732 0.1688 0.0
C757 C 0.5302 0.0189 0.16895 0.0
C758 C 0.54705 0.02975 0.14547 0.0
C759 C 0.53737 0.03001 0.15705 0.0
C760 C 0.51975 0.01912 0.1809 0.0
C761 C 0.55485 0.02254 0.21349 0.0
C762 C 0.55027 0.01123 0.2252 0.0
C763 C 0.5449 0.02435 0.20479 0.0
C764 C 0.53015 0.01471 0.20737 0.0
C765 C 0.5355 0.00178 0.22797 0.0
C766 C 0.52557 0.00352 0.21917 0.0
C767 C 0.51937 0.01653 0.19857 0.0
H768 H 0.47013 0.03408 0.22516 0.0
H769 H 0.48913 0.03665 0.20604 0.0
H770 H 0.46416 0.99381 0.24354 0.0
H771 H 0.48283 0.99621 0.22409 0.0
H772 H 0.45113 0.00366 0.17177 0.0
H773 H 0.46946 0.00186 0.18639 0.0
H774 H 0.48403 0.04111 0.14471 0.0
H775 H 0.50236 0.03992 0.16048 0.0
H776 H 0.54409 0.99815 0.15775 0.0
H777 H 0.52686 0.99838 0.17751 0.0
H778 H 0.55233 0.03841 0.13634 0.0
H779 H 0.53553 0.03893 0.15676 0.0
H780 H 0.56613 0.02997 0.21097 0.0
H781 H 0.54874 0.03335 0.19616 0.0
H782 H 0.53159 0.99316 0.23716 0.0
H783 H 0.51426 0.99607 0.22157 0.0
N784 N 0.50859 0.01573 0.20814 0.0
N785 N 0.50944 0.02094 0.1743 0.0
C786 C 0.53294 0.99503 0.79777 0.0
C787 C 0.52964 0.98583 0.78327 0.0
C788 C 0.52224 0.99277 0.80937 0.0
C789 C 0.50806 0.98124 0.80672 0.0
C790 C 0.51543 0.97428 0.78062 0.0
C791 C 0.50469 0.9721 0.79218 0.0
C792 C 0.49665 0.9794 0.81851 0.0
C793 C 0.52176 0.96511 0.84804 0.0
C794 C 0.5309 0.97582 0.86006 0.0
C795 C 0.511 0.96613 0.84018 0.0
C796 C 0.50908 0.97771 0.84448 0.0
C797 C 0.529 0.98743 0.8643 0.0
C798 C 0.51803 0.98825 0.85673 0.0
C799 C 0.49764 0.97877 0.83637 0.0
C800 C 0.44146 0.96904 0.86191 0.0
C801 C 0.44622 0.97997 0.87477 0.0
C802 C 0.45125 0.96874 0.85057 0.0
C803 C 0.46593 0.97927 0.85207 0.0
C804 C 0.46093 0.99037 0.87636 0.0
C805 C 0.47072 0.98992 0.86521 0.0
C806 C 0.4764 0.97932 0.84001 0.0
C807 C 0.45219 0.99488 0.81095 0.0
C808 C 0.44492 0.98637 0.79638 0.0
C809 C 0.46194 0.99267 0.81946 0.0
C810 C 0.4644 0.98171 0.81379 0.0
C811 C 0.4475 0.9755 0.79061 0.0
C812 C 0.45718 0.97322 0.79922 0.0
C813 C 0.47533 0.97985 0.82209 0.0
H814 H 0.54381 0.00396 0.80018 0.0
H815 H 0.52502 0.0002 0.82027 0.0
H816 H 0.5126 0.96711 0.76946 0.0
H817 H 0.49376 0.96327 0.78981 0.0
H818 H 0.52307 0.95608 0.84461 0.0
H819 H 0.50408 0.95781 0.83086 0.0
H820 H 0.53589 0.99574 0.87364 0.0
H821 H 0.51667 0.99724 0.86023 0.0
H822 H 0.43016 0.96092 0.86046 0.0
H823 H 0.44738 0.96032 0.84062 0.0
H824 H 0.46485 0.9988 0.88629 0.0
H825 H 0.48201 0.99808 0.86662 0.0
H826 H 0.45066 0.00355 0.81547 0.0
H827 H 0.46781 -0.00019 0.83022 0.0
H828 H 0.44201 0.96874 0.77945 0.0
H829 H 0.45906 0.96484 0.79447 0.0
N830 N 0.48549 0.97982 0.81201 0.0
N831 N 0.48755 0.97886 0.84649 0.0
C832 C 0.99524 0.5394 0.79942 0.0
C833 C 0.00234 0.54549 0.78398 0.0
C834 C -0.00154 0.53062 0.80869 0.0
C835 C 0.00903 0.52794 0.80286 0.0
C836 C 0.01266 0.54249 0.77795 0.0
C837 C 0.01593 0.53375 0.78728 0.0
C838 C 0.01247 0.51857 0.81251 0.0
C839 C 0.02513 0.55805 0.84646 0.0
C840 C 0.01622 0.55451 0.86089 0.0
C841 C 0.02492 0.54701 0.8364 0.0
C842 C 0.01587 0.5323 0.8407 0.0
C843 C 0.00732 0.53979 0.86524 0.0
C844 C 0.00725 0.52881 0.85532 0.0
C845 C 0.01536 0.52044 0.83023 0.0
C846 C 0.03287 0.47694 0.84278 0.0
C847 C 0.02649 0.47206 0.85887 0.0
C848 C 0.02999 0.4859 0.83328 0.0
C849 C 0.02047 0.48991 0.83955 0.0
C850 C 0.01719 0.47633 0.86526 0.0
C851 C 0.01425 0.4852 0.85572 0.0
C852 C 0.01729 0.49943 0.82973 0.0
C853 C -8e-05 0.45806 0.79865 0.0
C854 C 0.00659 0.45968 0.7827 0.0
C855 C 0.00233 0.47027 0.8082 0.0
C856 C 0.01165 0.48438 0.80212 0.0
C857 C 0.01571 0.47382 0.7765 0.0
C858 C 0.01814 0.48605 0.78609 0.0
C859 C 0.01406 0.49735 0.81206 0.0
H860 H 0.98701 0.54125 0.80422 0.0
H861 H 0.99258 0.5258 0.82034 0.0
H862 H 0.01837 0.54708 0.76614 0.0
H863 H 0.02399 0.53167 0.78244 0.0
H864 H 0.03208 0.56931 0.84286 0.0
H865 H 0.03182 0.54993 0.82529 0.0
H866 H 0.00051 0.53679 0.87643 0.0
H867 H 0.00028 0.51753 0.85892 0.0
H868 H 0.04027 0.47403 0.83765 0.0
H869 H 0.03531 0.48978 0.8211 0.0
H870 H 0.01201 0.47264 0.87755 0.0
H871 H 0.00695 0.48823 0.86089 0.0
H872 H 0.9929 0.44733 0.80385 0.0
H873 H 0.99685 0.46868 0.82031 0.0
H874 H 0.02083 0.47542 0.76414 0.0
H875 H 0.02518 0.49683 0.78104 0.0
N876 N 0.01196 0.50711 0.80409 0.0
N877 N 0.01765 0.5108 0.83815 0.0
C878 C 0.52917 0.56929 0.79859 0.0
C879 C 0.5358 0.56323 0.789 0.0
C880 C 0.51617 0.56024 0.80692 0.0
C881 C 0.50963 0.545 0.80588 0.0
C882 C 0.529 0.54796 0.78759 0.0
C883 C 0.51601 0.53895 0.79587 0.0
C884 C 0.49619 0.53518 0.81512 0.0
C885 C 0.52967 0.55955 0.85546 0.0
C886 C 0.52679 0.56761 0.8675 0.0
C887 C 0.51913 0.54977 0.84403 0.0
C888 C 0.50558 0.54813 0.84398 0.0
C889 C 0.51319 0.5659 0.8675 0.0
C890 C 0.50267 0.55621 0.85589 0.0
C891 C 0.49408 0.53707 0.83264 0.0
C892 C 0.44253 0.47994 0.85094 0.0
C893 C 0.43532 0.48459 0.86179 0.0
C894 C 0.45392 0.48992 0.84081 0.0
C895 C 0.45812 0.50469 0.84105 0.0
C896 C 0.4396 0.49939 0.86208 0.0
C897 C 0.45093 0.50935 0.85184 0.0
C898 C 0.47073 0.51551 0.8312 0.0
C899 C 0.43816 0.48371 0.79324 0.0
C900 C 0.443 0.47624 0.78299 0.0
C901 C 0.44781 0.496 0.80306 0.0
C902 C 0.46246 0.50088 0.80304 0.0
C903 C 0.45774 0.48152 0.78253 0.0
C904 C 0.46734 0.49369 0.79244 0.0
C905 C 0.47292 0.51354 0.81373 0.0
H906 H 0.53417 0.58101 0.79992 0.0
H907 H 0.51129 0.56515 0.81427 0.0
H908 H 0.53369 0.54297 0.78004 0.0
H909 H 0.51109 0.52722 0.79475 0.0
H910 H 0.54006 0.56068 0.85494 0.0
H911 H 0.52152 0.54328 0.83546 0.0
H912 H 0.51052 0.57174 0.87678 0.0
H913 H 0.49221 0.55491 0.85631 0.0
H914 H 0.43969 0.46867 0.85071 0.0
H915 H 0.45963 0.48613 0.83308 0.0
H916 H 0.43421 0.50328 0.87026 0.0
H917 H 0.45413 0.52073 0.8524 0.0
H918 H 0.42688 0.47993 0.79392 0.0
H919 H 0.44382 0.50162 0.81072 0.0
H920 H 0.46191 0.47628 0.77446 0.0
H921 H 0.47861 0.49736 0.792 0.0
N922 N 0.48557 0.52345 0.80643 0.0
N923 N 0.48137 0.52724 0.83992 0.0
C924 C 0.62983 0.77559 0.49889 0.0
C925 C 0.61825 0.76759 0.48761 0.0
C926 C 0.62992 0.78557 0.51069 0.0
C927 C 0.6183 0.78757 0.51168 0.0
C928 C 0.60665 0.76966 0.48855 0.0
C929 C 0.60671 0.77961 0.50045 0.0
C930 C 0.61882 0.79889 0.52328 0.0
C931 C 0.61956 0.76571 0.55605 0.0
C932 C 0.63184 0.77148 0.56639 0.0
C933 C 0.61629 0.77499 0.5479 0.0
C934 C 0.62538 0.79022 0.54969 0.0
C935 C 0.64058 0.78672 0.56864 0.0
C936 C 0.63739 0.79595 0.5604 0.0
C937 C 0.6226 0.80042 0.54074 0.0
C938 C 0.62218 0.85475 0.56306 0.0
C939 C 0.63417 0.86086 0.57395 0.0
C940 C 0.61831 0.84222 0.55311 0.0
C941 C 0.62656 0.83578 0.55352 0.0
C942 C 0.64196 0.85393 0.57492 0.0
C943 C 0.63823 0.84159 0.5648 0.0
C944 C 0.62321 0.8229 0.5426 0.0
C945 C 0.6322 0.85788 0.50531 0.0
C946 C 0.62063 0.85452 0.49462 0.0
C947 C 0.63173 0.84721 0.51549 0.0
C948 C 0.61959 0.83299 0.51538 0.0
C949 C 0.60848 0.84026 0.49454 0.0
C950 C 0.60801 0.82959 0.50476 0.0
C951 C 0.61947 0.82137 0.52512 0.0
H952 H 0.63908 0.7745 0.49821 0.0
H953 H 0.63924 0.79199 0.51875 0.0
H954 H 0.59757 0.76363 0.48004 0.0
H955 H 0.59775 0.78117 0.50083 0.0
H956 H 0.61259 0.75403 0.55402 0.0
H957 H 0.60671 0.77025 0.54013 0.0
H958 H 0.64991 0.79156 0.57686 0.0
H959 H 0.64448 0.80765 0.56219 0.0
H960 H 0.61593 0.85977 0.56195 0.0
H961 H 0.60893 0.83766 0.54502 0.0
H962 H 0.65098 0.85803 0.58352 0.0
H963 H 0.64465 0.83672 0.56561 0.0
H964 H 0.64184 0.86865 0.5054 0.0
H965 H 0.64101 0.84998 0.52314 0.0
H966 H 0.59935 0.83734 0.48653 0.0
H967 H 0.59862 0.81864 0.50432 0.0
N968 N 0.61729 0.80937 0.51622 0.0
N969 N 0.62464 0.81236 0.54964 0.0
C970 C 0.15123 0.7714 0.49945 0.0
C971 C 0.13768 0.76982 0.49982 0.0
C972 C 0.16218 0.78159 0.51023 0.0
C973 C 0.15972 0.79017 0.52183 0.0
C974 C 0.13521 0.77831 0.51169 0.0
C975 C 0.14614 0.7884 0.52257 0.0
C976 C 0.17173 0.80188 0.53193 0.0
C977 C 0.14122 0.78898 0.58228 0.0
C978 C 0.13466 0.77382 0.57983 0.0
C979 C 0.15323 0.7986 0.57271 0.0
C980 C 0.1589 0.79325 0.56046 0.0
C981 C 0.14063 0.76846 0.56797 0.0
C982 C 0.15273 0.77809 0.55851 0.0
C983 C 0.17119 0.80367 0.54982 0.0
C984 C 0.21709 0.86615 0.56193 0.0
C985 C 0.22328 0.86529 0.5771 0.0
C986 C 0.20754 0.8535 0.55262 0.0
C987 C 0.20414 0.83976 0.55818 0.0
C988 C 0.21973 0.85149 0.58272 0.0
C989 C 0.21018 0.83884 0.57338 0.0
C990 C 0.19363 0.82629 0.54876 0.0
C991 C 0.23155 0.85143 0.51401 0.0
C992 C 0.22818 0.85555 0.49873 0.0
C993 C 0.22066 0.84113 0.52449 0.0
C994 C 0.20621 0.83495 0.52001 0.0
C995 C 0.21371 0.84912 0.49416 0.0
C996 C 0.20287 0.8389 0.50465 0.0
C997 C 0.1944 0.82422 0.53096 0.0
H998 H 0.15345 0.7649 0.49066 0.0
H999 H 0.17263 0.78286 0.50942 0.0
H1000 H 0.12501 0.7776 0.51213 0.0
H1001 H 0.14411 0.79518 0.53114 0.0
H1002 H 0.13681 0.79343 0.59126 0.0
H1003 H 0.15785 0.81024 0.57455 0.0
H1004 H 0.13595 0.75682 0.56606 0.0
H1005 H 0.15719 0.77367 0.5496 0.0
H1006 H 0.21938 0.87658 0.55744 0.0
H1007 H 0.20264 0.85445 0.54122 0.0
H1008 H 0.22439 0.85047 0.59429 0.0
H1009 H 0.20756 0.82833 0.57798 0.0
H1010 H 0.2426 0.85605 0.51774 0.0
H1011 H 0.22353 0.83797 0.53605 0.0
H1012 H 0.21074 0.85219 0.48261 0.0
H1013 H 0.19182 0.83427 0.50089 0.0
N1014 N 0.18336 0.81214 0.52324 0.0
N1015 N 0.18214 0.81587 0.55752 0.0
C1016 C 0.24488 0.39839 0.49656 0.0
C1017 C 0.24106 0.38791 0.48331 0.0
C1018 C 0.23426 0.39876 0.50625 0.0
C1019 C 0.21972 0.38875 0.50267 0.0
C1020 C 0.22652 0.37814 0.47956 0.0
C1021 C 0.21596 0.37865 0.48905 0.0
C1022 C 0.20822 0.38842 0.51306 0.0
C1023 C 0.22929 0.37176 0.54578 0.0
C1024 C 0.23547 0.37992 0.56092 0.0
C1025 C 0.22025 0.37418 0.53605 0.0
C1026 C 0.21746 0.38505 0.54102 0.0
C1027 C 0.2324 0.39057 0.56613 0.0
C1028 C 0.22344 0.39309 0.55626 0.0
C1029 C 0.20742 0.3872 0.53103 0.0
C1030 C 0.14629 0.36691 0.545 0.0
C1031 C 0.14732 0.37474 0.56011 0.0
C1032 C 0.15851 0.37048 0.53554 0.0
C1033 C 0.172 0.38223 0.54072 0.0
C1034 C 0.16086 0.38621 0.56561 0.0
C1035 C 0.1731 0.38992 0.55598 0.0
C1036 C 0.18501 0.38578 0.53088 0.0
C1037 C 0.15703 0.39274 0.49603 0.0
C1038 C 0.15107 0.38194 0.483 0.0
C1039 C 0.16853 0.39465 0.50573 0.0
C1040 C 0.17426 0.38587 0.50236 0.0
C1041 C 0.15707 0.37345 0.47942 0.0
C1042 C 0.16865 0.3755 0.4889 0.0
C1043 C 0.18586 0.38702 0.5129 0.0
H1044 H 0.25604 0.40604 0.49965 0.0
H1045 H 0.23738 0.40677 0.51658 0.0
H1046 H 0.22332 0.37009 0.46926 0.0
H1047 H 0.20481 0.37088 0.48602 0.0
H1048 H 0.23116 0.36322 0.54168 0.0
H1049 H 0.21524 0.36733 0.5248 0.0
H1050 H 0.23701 0.39699 0.57777 0.0
H1051 H 0.2212 0.40133 0.5605 0.0
H1052 H 0.13604 0.35779 0.54069 0.0
H1053 H 0.15741 0.36388 0.5243 0.0
H1054 H 0.16194 0.39239 0.57726 0.0
H1055 H 0.18343 0.39882 0.5604 0.0
H1056 H 0.15256 0.39942 0.49897 0.0
H1057 H 0.17284 0.40285 0.51594 0.0
H1058 H 0.15276 0.36518 0.46929 0.0
H1059 H 0.17295 0.36866 0.48605 0.0
N1060 N 0.19737 0.3882 0.50471 0.0
N1061 N 0.1959 0.38605 0.53927 0.0
C1062 C 0.98153 0.36657 0.04055 0.0
C1063 C 0.99555 0.36954 0.03876 0.0
C1064 C 0.97812 0.37327 0.05374 0.0
C1065 C 0.99198 0.39412 0.09497 0.0
H1066 H 0.96786 0.40909 0.08403 0.0
C1067 C 0.99261 0.44084 0.13304 0.0
C1068 C 0.97941 0.4394 0.13688 0.0
C1069 C 0.99321 0.43057 0.12241 0.0
C1070 C 0.97445 0.40479 0.08734 0.0
H1071 H 0.01696 0.38175 0.04952 0.0
H1072 H 0.01116 0.39364 0.07212 0.0
H1073 H 0.97137 0.39422 0.06286 0.0
H1074 H 0.95649 0.42609 0.13277 0.0
H1075 H 0.95756 0.40815 0.1139 0.0
H1076 H 0.9955 0.40524 0.1192 0.0
C1077 C 0.00267 0.38591 0.06364 0.0
C1078 C 0.97644 0.39623 0.07524 0.0
C1079 C 0.00603 0.37916 0.05057 0.0
C1080 C 0.96679 0.4274 0.13005 0.0
C1081 C 0.96741 0.41721 0.1192 0.0
C1082 C 0.9901 0.40279 0.10698 0.0
C1083 C 0.9887 0.38313 0.06536 0.0
C1084 C 0.98544 0.39101 0.07879 0.0
C1085 C 0.98064 0.41874 0.11525 0.0
C1086 C 0.98151 0.40841 0.10318 0.0
H1087 H 0.97318 0.35914 0.03172 0.0
H1088 H 0.96721 0.37072 0.05482 0.0
H1089 H -0.00128 0.39 0.0983 0.0
H1090 H 0.00248 0.44994 0.13826 0.0
H1091 H 0.00356 0.43208 0.11945 0.0
C1092 C 0.64204 0.61882 0.05905 0.0
C1093 C 0.63879 0.62968 0.05705 0.0
C1094 C 0.63509 0.60826 0.07157 0.0
C1095 C 0.60146 0.59023 0.0956 0.0
H1096 H 0.62014 0.57658 0.12458 0.0
C1097 C 0.57023 0.55024 0.14857 0.0
C1098 C 0.57209 0.53842 0.15023 0.0
C1099 C 0.57963 0.56207 0.13863 0.0
C1100 C 0.61477 0.5802 0.11647 0.0
H1101 H 0.6262 0.63838 0.06713 0.0
H1102 H 0.6142 0.62008 0.08888 0.0
H1103 H 0.63438 0.59599 0.1043 0.0
H1104 H 0.58554 0.52991 0.14345 0.0
H1105 H 0.60192 0.55056 0.12569 0.0
H1106 H 0.58187 0.57441 0.10737 0.0
C1107 C 0.62193 0.61956 0.08063 0.0
C1108 C 0.62291 0.59131 0.10488 0.0
C1109 C 0.62886 0.63008 0.06819 0.0
C1110 C 0.58392 0.53894 0.14239 0.0
C1111 C 0.59329 0.55076 0.13226 0.0
C1112 C 0.59335 0.57915 0.10707 0.0
C1113 C 0.62475 0.60838 0.08225 0.0
C1114 C 0.61633 0.5965 0.09444 0.0
C1115 C 0.59103 0.56229 0.12994 0.0
C1116 C 0.59989 0.57408 0.11776 0.0
H1117 H 0.64967 0.61825 0.05069 0.0
H1118 H 0.63744 0.59973 0.07248 0.0
H1119 H 0.59602 0.59376 0.08745 0.0
H1120 H 0.56133 0.55021 0.15476 0.0
H1121 H 0.5778 0.57095 0.13749 0.0
C1122 C 0.36708 0.004 0.07041 0.0
C1123 C 0.369 0.01532 0.06003 0.0
C1124 C 0.37736 0.00649 0.08252 0.0
C1125 C 0.41571 0.03159 0.09263 0.0
H1126 H 0.40481 0.00963 0.13439 0.0
C1127 C 0.45663 0.03659 0.14284 0.0
C1128 C 0.45479 0.02314 0.14732 0.0
C1129 C 0.44615 0.03703 0.13341 0.0
C1130 C 0.408 0.01583 0.12278 0.0
H1131 H 0.38299 0.0383 0.05466 0.0
H1132 H 0.40083 0.04277 0.07619 0.0
H1133 H 0.38635 0.00837 0.11621 0.0
H1134 H 0.44043 -0.0004 0.14507 0.0
H1135 H 0.42205 0.00045 0.12917 0.0
H1136 H 0.4374 0.03906 0.09937 0.0
C1137 C 0.39151 0.03187 0.07467 0.0
C1138 C 0.39744 0.01508 0.11231 0.0
C1139 C 0.38124 0.02933 0.06241 0.0
C1140 C 0.44213 0.01017 0.14225 0.0
C1141 C 0.4316 0.01063 0.13306 0.0
C1142 C 0.42629 0.03249 0.10324 0.0
C1143 C 0.38978 0.02042 0.08473 0.0
C1144 C 0.40112 0.02265 0.09687 0.0
C1145 C 0.43353 0.02405 0.12848 0.0
C1146 C 0.42249 0.02435 0.1182 0.0
H1147 H 0.35782 0.99305 0.06887 0.0
H1148 H 0.37575 0.99733 0.08975 0.0
H1149 H 0.41896 0.03743 0.08076 0.0
H1150 H 0.4661 0.04681 0.14675 0.0
H1151 H 0.44785 0.04752 0.13011 0.0
C1152 C 0.3717 0.0033 0.97119 0.0
C1153 C 0.36494 0.99342 0.9845 0.0
C1154 C 0.37965 0.00101 0.95885 0.0
C1155 C 0.38494 0.97374 0.93766 0.0
H1156 H 0.42383 0.00613 0.93091 0.0
C1157 C 0.42584 0.96842 0.89555 0.0
C1158 C 0.43592 0.9807 0.88645 0.0
C1159 C 0.41662 0.96941 0.90724 0.0
C1160 C 0.41293 0.99705 0.93237 0.0
H1161 H 0.36075 0.9731 0.99493 0.0
H1162 H 0.3745 0.96897 0.97305 0.0
H1163 H 0.40842 0.0087 0.95142 0.0
H1164 H 0.4439 0.00343 0.88176 0.0
H1165 H 0.42751 0.00509 0.90159 0.0
H1166 H 0.38927 0.96219 0.91827 0.0
C1167 C 0.37369 0.97853 0.97233 0.0
C1168 C 0.40414 0.99851 0.94421 0.0
C1169 C 0.36589 0.98093 0.98487 0.0
C1170 C 0.43636 0.99387 0.88884 0.0
C1171 C 0.42701 0.99481 0.90029 0.0
C1172 C 0.39367 0.97233 0.92558 0.0
C1173 C 0.38085 0.9887 0.95942 0.0
C1174 C 0.39007 0.9869 0.94694 0.0
C1175 C 0.41717 0.98267 0.90986 0.0
C1176 C 0.40778 0.984 0.92274 0.0
H1177 H 0.37118 0.01303 0.97052 0.0
H1178 H 0.38497 0.00894 0.94892 0.0
H1179 H 0.37408 0.96467 0.93949 0.0
H1180 H 0.42538 0.95817 0.89397 0.0
H1181 H 0.40934 0.95988 0.9145 0.0
C1182 C 0.03495 0.39639 0.96355 0.0
C1183 C 0.03186 0.38246 0.95826 0.0
C1184 C 0.03684 0.4066 0.95154 0.0
C1185 C 0.02655 0.40838 0.90761 0.0
H1186 H 0.05278 0.45002 0.91479 0.0
C1187 C 0.02953 0.45067 0.8612 0.0
C1188 C 0.02948 0.46253 0.86902 0.0
C1189 C 0.03168 0.44131 0.87094 0.0
C1190 C 0.04537 0.43842 0.91265 0.0
H1191 H 0.02901 0.36857 0.93616 0.0
H1192 H 0.03249 0.38649 0.91518 0.0
H1193 H 0.05364 0.43294 0.9338 0.0
H1194 H 0.03212 0.47418 0.89306 0.0
H1195 H 0.0357 0.45777 0.91009 0.0
H1196 H 0.01812 0.41387 0.88665 0.0
C1197 C 0.0332 0.38942 0.92864 0.0
C1198 C 0.04586 0.42863 0.92353 0.0
C1199 C 0.0313 0.37918 0.94067 0.0
C1200 C 0.03194 0.46503 0.8867 0.0
C1201 C 0.03416 0.45573 0.89642 0.0
C1202 C 0.0261 0.41816 0.8967 0.0
C1203 C 0.03572 0.40315 0.93395 0.0
C1204 C 0.03627 0.4135 0.92134 0.0
C1205 C 0.03391 0.44368 0.88869 0.0
C1206 C 0.03533 0.4333 0.89929 0.0
H1207 H 0.03547 0.39929 0.977 0.0
H1208 H 0.0386 0.417 0.95611 0.0
H1209 H 0.01887 0.39681 0.9057 0.0
H1210 H 0.02757 0.44841 0.8476 0.0
H1211 H 0.03153 0.43217 0.8646 0.0
C1212 C 0.62149 0.63015 0.97287 0.0
C1213 C 0.62353 0.64269 0.98156 0.0
C1214 C 0.61111 0.62327 0.96016 0.0
C1215 C 0.57802 0.61945 0.94354 0.0
H1216 H 0.58692 0.60326 0.90388 0.0
C1217 C 0.53959 0.59078 0.88552 0.0
C1218 C 0.53781 0.57731 0.88036 0.0
C1219 C 0.5501 0.59985 0.89751 0.0
C1220 C 0.58427 0.60769 0.9149 0.0
H1221 H 0.61618 0.65779 0.98376 0.0
H1222 H 0.59811 0.64583 0.96126 0.0
H1223 H 0.60529 0.61735 0.92533 0.0
H1224 H 0.54538 0.56263 0.8843 0.0
H1225 H 0.56384 0.57858 0.90479 0.0
H1226 H 0.55693 0.60971 0.93293 0.0
C1227 C 0.60446 0.64125 0.96448 0.0
C1228 C 0.59477 0.61573 0.92723 0.0
C1229 C 0.61485 0.64813 0.97732 0.0
C1230 C 0.54668 0.57308 0.8876 0.0
C1231 C 0.55723 0.58219 0.89941 0.0
C1232 C 0.56751 0.61148 0.93109 0.0
C1233 C 0.60255 0.62879 0.95567 0.0
C1234 C 0.59169 0.62142 0.94189 0.0
C1235 C 0.5591 0.59569 0.90443 0.0
C1236 C 0.57048 0.60527 0.91685 0.0
H1237 H 0.6279 0.62558 0.9759 0.0
H1238 H 0.60971 0.6135 0.95393 0.0
H1239 H 0.57526 0.6236 0.95473 0.0
H1240 H 0.53304 0.59444 0.88009 0.0
H1241 H 0.55137 0.61025 0.90113 0.0
C1242 C -0.00152 0.633 0.96003 0.0
C1243 C 0.01046 0.64318 0.96978 0.0
C1244 C -0.00024 0.62453 0.9472 0.0
C1245 C 0.02491 0.62158 0.91863 0.0
H1246 H 0.99667 0.58009 0.92011 0.0
C1247 C 0.02899 0.57828 0.87745 0.0
C1248 C 0.01614 0.56603 0.87151 0.0
C1249 C 0.02876 0.58852 0.8886 0.0
C1250 C 0.00451 0.59166 0.91929 0.0
H1251 H 0.03331 0.65286 0.97317 0.0
H1252 H 0.03553 0.63802 0.95055 0.0
H1253 H 0.99553 0.59662 0.94086 0.0
H1254 H 0.99303 0.55528 0.87173 0.0
H1255 H 0.99258 0.57329 0.89075 0.0
H1256 H 0.03381 0.61661 0.89689 0.0
C1257 C 0.02517 0.63664 0.95296 0.0
C1258 C 0.00388 0.60113 0.93125 0.0
C1259 C 0.02387 0.64508 0.96594 0.0
C1260 C 0.00309 0.5645 0.87637 0.0
C1261 C 0.00285 0.57479 0.88733 0.0
C1262 C 0.02548 0.6121 0.90652 0.0
C1263 C 0.01305 0.62609 0.94371 0.0
C1264 C 0.01401 0.61618 0.931 0.0
C1265 C 0.01566 0.58677 0.89388 0.0
C1266 C 0.01523 0.59701 0.90667 0.0
H1267 H 0.988 0.63131 0.96256 0.0
H1268 H 0.99029 0.61663 0.94009 0.0
H1269 H 0.03282 0.63317 0.91812 0.0
H1270 H 0.0392 0.57965 0.87395 0.0
H1271 H 0.03882 0.59753 0.8935 0.0
C1272 C 0.35797 0.39886 0.97105 0.0
C1273 C 0.34851 0.38474 0.96434 0.0
C1274 C 0.366 0.41051 0.96016 0.0
C1275 C 0.36941 0.42193 0.91496 0.0
H1276 H 0.40921 0.44821 0.92759 0.0
C1277 C 0.41349 0.46 0.86741 0.0
C1278 C 0.42384 0.47412 0.87333 0.0
C1279 C 0.40326 0.44985 0.87859 0.0
C1280 C 0.39808 0.4411 0.92398 0.0
H1281 H 0.33974 0.37188 0.94094 0.0
H1282 H 0.35396 0.39212 0.92195 0.0
H1283 H 0.39316 0.42917 0.947 0.0
H1284 H 0.43145 0.48873 0.89554 0.0
H1285 H 0.41354 0.47103 0.91503 0.0
H1286 H 0.37455 0.4337 0.89166 0.0
C1287 C 0.35502 0.39427 0.93562 0.0
C1288 C 0.38884 0.43019 0.93514 0.0
C1289 C 0.34691 0.38263 0.94652 0.0
C1290 C 0.42354 0.47798 0.89057 0.0
C1291 C 0.41338 0.46781 0.90176 0.0
C1292 C 0.37869 0.43281 0.90374 0.0
C1293 C 0.36485 0.40831 0.94231 0.0
C1294 C 0.37441 0.4204 0.93074 0.0
C1295 C 0.40323 0.45358 0.89595 0.0
C1296 C 0.39314 0.44246 0.9081 0.0
H1297 H 0.35937 0.40088 0.98473 0.0
H1298 H 0.37325 0.42123 0.96576 0.0
H1299 H 0.35832 0.41472 0.91127 0.0
H1300 H 0.41337 0.45676 0.85416 0.0
H1301 H 0.39564 0.43893 0.87376 0.0
C1302 C 0.61308 0.96694 0.95393 0.0
C1303 C 0.62772 0.97721 0.95142 0.0
C1304 C 0.60295 0.96516 0.9419 0.0
C1305 C 0.59732 0.98676 0.91275 0.0
H1306 H 0.56644 0.95027 0.89339 0.0
C1307 C 0.55662 0.98642 0.86726 0.0
C1308 C 0.54234 0.97486 0.86835 0.0
C1309 C 0.56741 0.98581 0.87567 0.0
C1310 C 0.57487 0.96055 0.89886 0.0
H1311 H 0.64326 0.99314 0.9339 0.0
H1312 H 0.62553 0.99023 0.91316 0.0
H1313 H 0.58447 0.95028 0.91133 0.0
H1314 H 0.528 0.95358 0.87886 0.0
H1315 H 0.54667 0.95274 0.89431 0.0
H1316 H 0.58753 0.99706 0.90129 0.0
C1317 C 0.62194 0.98354 0.92439 0.0
C1318 C 0.58523 0.96052 0.90902 0.0
C1319 C 0.63207 0.98514 0.93625 0.0
C1320 C 0.53899 0.96259 0.8778 0.0
C1321 C 0.54973 0.96209 0.88653 0.0
C1322 C 0.58685 0.98677 0.90291 0.0
C1323 C 0.60729 0.97379 0.92731 0.0
C1324 C 0.59654 0.97364 0.91601 0.0
C1325 C 0.56409 0.97377 0.88571 0.0
C1326 C 0.57546 0.97368 0.8958 0.0
H1327 H 0.6094 0.96063 0.96546 0.0
H1328 H 0.59169 0.95761 0.94444 0.0
H1329 H 0.60582 0.997 0.91826 0.0
H1330 H 0.55944 0.99592 0.85986 0.0
H1331 H 0.57834 0.99484 0.87431 0.0
C1332 C 0.62008 0.99617 0.04128 0.0
C1333 C 0.6328 0.00822 0.03511 0.0
C1334 C 0.61188 0.99807 0.05361 0.0
C1335 C 0.6049 0.0254 0.07268 0.0
H1336 H 0.58726 0.99696 0.10846 0.0
C1337 C 0.57274 0.0307 0.1289 0.0
C1338 C 0.55978 0.01787 0.13305 0.0
C1339 C 0.58229 0.0302 0.1173 0.0
C1340 C 0.59203 0.00493 0.09848 0.0
H1341 H 0.64685 0.03177 0.03704 0.0
H1342 H 0.63254 0.03508 0.05879 0.0
H1343 H 0.60295 0.99501 0.08774 0.0
H1344 H 0.54657 0.99454 0.12787 0.0
H1345 H 0.56327 0.99368 0.10784 0.0
H1346 H 0.59391 0.03529 0.08351 0.0
C1347 C 0.62887 0.02417 0.05391 0.0
C1348 C 0.60101 0.00381 0.08659 0.0
C1349 C 0.63709 0.02226 0.04151 0.0
C1350 C 0.55658 0.00457 0.12525 0.0
C1351 C 0.56614 0.00408 0.11375 0.0
C1352 C 0.59594 0.02655 0.08464 0.0
C1353 C 0.61619 0.01207 0.06015 0.0
C1354 C 0.60739 0.0139 0.0734 0.0
C1355 C 0.57912 0.01687 0.10968 0.0
C1356 C 0.58926 0.0162 0.09752 0.0
H1357 H 0.6164 0.9852 0.03658 0.0
H1358 H 0.60204 0.98854 0.05788 0.0
H1359 H 0.60954 0.03326 0.06258 0.0
H1360 H 0.57562 0.04109 0.13483 0.0
H1361 H 0.59227 0.04022 0.11454 0.0
C1362 C 0.97356 0.61737 0.04688 0.0
C1363 C 0.97817 0.6315 0.05321 0.0
C1364 C 0.97096 0.60633 0.05799 0.0
C1365 C 0.96446 0.59509 0.10296 0.0
H1366 H 0.98227 0.57348 0.08925 0.0
C1367 C 0.97101 0.55728 0.14839 0.0
C1368 C 0.96995 0.5447 0.14109 0.0
C1369 C 0.97058 0.56741 0.13803 0.0
C1370 C 0.97701 0.57921 0.09318 0.0
H1371 H 0.98298 0.64492 0.07629 0.0
H1372 H 0.97844 0.62556 0.09572 0.0
H1373 H 0.98376 0.59182 0.07057 0.0
H1374 H 0.96672 0.53235 0.11749 0.0
H1375 H 0.96562 0.54978 0.09947 0.0
H1376 H 0.95771 0.58241 0.12563 0.0
C1377 C 0.97683 0.62307 0.08214 0.0
C1378 C 0.97789 0.58976 0.08246 0.0
C1379 C 0.97948 0.63416 0.07099 0.0
C1380 C 0.96783 0.5421 0.12339 0.0
C1381 C 0.96725 0.55212 0.11308 0.0
C1382 C 0.96349 0.58443 0.11369 0.0
C1383 C 0.97287 0.60914 0.0757 0.0
C1384 C 0.97161 0.5978 0.08719 0.0
C1385 C 0.96896 0.56507 0.1202 0.0
C1386 C 0.96973 0.57633 0.10889 0.0
H1387 H 0.97232 0.61489 0.03327 0.0
H1388 H 0.96768 0.59562 0.05268 0.0
H1389 H 0.95946 0.60109 0.10689 0.0
H1390 H 0.97273 0.55955 0.16201 0.0
H1391 H 0.97203 0.57731 0.14392 0.0
C1392 C 0.3919 0.38072 0.02793 0.0
C1393 C 0.37742 0.37255 0.03273 0.0
C1394 C 0.40268 0.38541 0.04015 0.0
C1395 C 0.41026 0.37988 0.08434 0.0
H1396 H 0.44115 0.42033 0.08115 0.0
C1397 C 0.45047 0.41315 0.13925 0.0
C1398 C 0.46451 0.42373 0.13452 0.0
C1399 C 0.44008 0.40511 0.12669 0.0
C1400 C 0.43275 0.40894 0.0821 0.0
H1401 H 0.36288 0.36244 0.05405 0.0
H1402 H 0.38174 0.37082 0.07544 0.0
H1403 H 0.42258 0.40969 0.05946 0.0
H1404 H 0.47907 0.43342 0.1132 0.0
H1405 H 0.4611 0.41922 0.09133 0.0
H1406 H 0.42044 0.37928 0.10722 0.0
C1407 C 0.38475 0.37348 0.06219 0.0
C1408 C 0.42208 0.40284 0.06965 0.0
C1409 C 0.37394 0.36876 0.04994 0.0
C1410 C 0.46824 0.42548 0.11714 0.0
C1411 C 0.45793 0.4174 0.10464 0.0
C1412 C 0.42099 0.386 0.09685 0.0
C1413 C 0.39923 0.38207 0.05747 0.0
C1414 C 0.41071 0.38825 0.0706 0.0
C1415 C 0.44363 0.40748 0.10924 0.0
C1416 C 0.43237 0.40061 0.09584 0.0
H1417 H 0.39495 0.38371 0.01476 0.0
H1418 H 0.41374 0.3918 0.03606 0.0
H1419 H 0.40167 0.36857 0.08535 0.0
H1420 H 0.44735 0.41166 0.15259 0.0
H1421 H 0.42915 0.3976 0.13065 0.0
C1422 C 0.64767 0.70034 0.384 0.0
C1423 C 0.64565 0.70246 0.36687 0.0
C1424 C 0.64303 0.70573 0.3973 0.0
C1425 C 0.61939 0.71972 0.40777 0.0
H1426 H 0.64603 0.73934 0.44529 0.0
C1427 C 0.61483 0.75792 0.4574 0.0
C1428 C 0.61871 0.75772 0.47438 0.0
C1429 C 0.61659 0.74968 0.44461 0.0
C1430 C 0.63836 0.7337 0.43506 0.0
H1431 H 0.6368 0.71157 0.3503 0.0
H1432 H 0.62886 0.72117 0.3736 0.0
H1433 H 0.65196 0.72782 0.42229 0.0
H1434 H 0.62668 0.74811 0.49147 0.0
H1435 H 0.62968 0.73367 0.46918 0.0
H1436 H 0.60589 0.72585 0.42053 0.0
C1437 C 0.63391 0.71519 0.3767 0.0
C1438 C 0.64177 0.7271 0.42185 0.0
C1439 C 0.63853 0.70976 0.36336 0.0
C1440 C 0.62384 0.74867 0.47844 0.0
C1441 C 0.62557 0.74042 0.46568 0.0
C1442 C 0.61598 0.72635 0.42102 0.0
C1443 C 0.63629 0.71341 0.39383 0.0
C1444 C 0.63235 0.72006 0.40803 0.0
C1445 C 0.62224 0.74106 0.44856 0.0
C1446 C 0.62545 0.73345 0.43479 0.0
H1447 H 0.65299 0.69464 0.38717 0.0
H1448 H 0.64479 0.70395 0.41035 0.0
H1449 H 0.61185 0.71424 0.39738 0.0
H1450 H 0.611 0.7649 0.45384 0.0
H1451 H 0.61407 0.75053 0.43153 0.0
C1452 C 0.31253 0.95976 0.4117 0.0
C1453 C 0.30837 0.95684 0.39443 0.0
C1454 C 0.30571 0.9488 0.42377 0.0
C1455 C 0.28309 0.90869 0.42793 0.0
H1456 H 0.27069 0.91798 0.47042 0.0
C1457 C 0.23856 0.86473 0.46975 0.0
C1458 C 0.23959 0.86666 0.48762 0.0
C1459 C 0.24865 0.87562 0.45917 0.0
C1460 C 0.27429 0.91524 0.45877 0.0
H1461 H 0.29393 0.94004 0.37626 0.0
H1462 H 0.28204 0.92101 0.39727 0.0
H1463 H 0.28526 0.93733 0.45046 0.0
H1464 H 0.25225 0.88141 0.50842 0.0
H1465 H 0.27005 0.9004 0.4899 0.0
H1466 H 0.27192 0.88657 0.4361 0.0
C1467 C 0.29065 0.93172 0.40148 0.0
C1468 C 0.28263 0.92634 0.44731 0.0
C1469 C 0.29741 0.94267 0.38945 0.0
C1470 C 0.25121 0.87956 0.49469 0.0
C1471 C 0.26131 0.89049 0.48409 0.0
C1472 C 0.27478 0.89761 0.43939 0.0
C1473 C 0.29465 0.93467 0.4188 0.0
C1474 C 0.2869 0.92314 0.43163 0.0
C1475 C 0.26004 0.88872 0.46619 0.0
C1476 C 0.27006 0.9007 0.45481 0.0
H1477 H 0.32095 0.97055 0.41596 0.0
H1478 H 0.30911 0.95137 0.437 0.0
H1479 H 0.28643 0.90593 0.41608 0.0
H1480 H 0.22984 0.85483 0.4639 0.0
H1481 H 0.24725 0.87394 0.44545 0.0
C1482 C 0.04451 0.33859 0.39578 0.0
C1483 C 0.04505 0.34811 0.38347 0.0
C1484 C 0.0559 0.34312 0.40704 0.0
C1485 C 0.08678 0.37493 0.42722 0.0
H1486 H 0.1009 0.34891 0.43111 0.0
C1487 C 0.13834 0.39042 0.46486 0.0
C1488 C 0.1384 0.37913 0.47328 0.0
C1489 C 0.1268 0.38733 0.45439 0.0
C1490 C 0.09697 0.35622 0.43042 0.0
H1491 H 0.05778 0.37001 0.37366 0.0
H1492 H 0.0777 0.37798 0.39358 0.0
H1493 H 0.08102 0.34231 0.41204 0.0
H1494 H 0.12623 0.35599 0.4783 0.0
H1495 H 0.10592 0.35063 0.46058 0.0
H1496 H 0.10258 0.38873 0.44589 0.0
C1497 C 0.06844 0.367 0.3944 0.0
C1498 C 0.08562 0.35244 0.41941 0.0
C1499 C 0.05708 0.36241 0.38296 0.0
C1500 C 0.12651 0.36484 0.47169 0.0
C1501 C 0.11494 0.36178 0.46145 0.0
C1502 C 0.09808 0.37865 0.43843 0.0
C1503 C 0.06802 0.35731 0.40637 0.0
C1504 C 0.08034 0.3617 0.41778 0.0
C1505 C 0.11507 0.37291 0.45232 0.0
C1506 C 0.10324 0.36926 0.44026 0.0
H1507 H 0.0354 0.32752 0.39656 0.0
H1508 H 0.05525 0.33549 0.41628 0.0
H1509 H 0.08285 0.38222 0.42622 0.0
H1510 H 0.14744 0.40152 0.46588 0.0
H1511 H 0.12731 0.39615 0.44747 0.0
C1512 C 0.02549 0.29833 0.31836 0.0
C1513 C 0.02354 0.30967 0.31377 0.0
C1514 C 0.03008 0.2919 0.30624 0.0
C1515 C 0.03358 0.28681 0.26003 0.0
H1516 H 0.06715 0.28633 0.2733 0.0
C1517 C 0.07114 0.28252 0.21106 0.0
C1518 C 0.07885 0.27625 0.21616 0.0
C1519 C 0.06212 0.28397 0.22264 0.0
C1520 C 0.05758 0.28602 0.26942 0.0
H1521 H 0.02421 0.32269 0.2927 0.0
H1522 H 0.03211 0.31135 0.27153 0.0
H1523 H 0.05526 0.29342 0.2942 0.0
H1524 H 0.08254 0.26564 0.23675 0.0
H1525 H 0.06634 0.26753 0.25676 0.0
H1526 H 0.0359 0.27943 0.23521 0.0
C1527 C 0.03012 0.30747 0.2845 0.0
C1528 C 0.0508 0.29016 0.28143 0.0
C1529 C 0.02569 0.31403 0.29666 0.0
C1530 C 0.07677 0.27064 0.23263 0.0
C1531 C 0.06759 0.27185 0.2441 0.0
C1532 C 0.04026 0.28248 0.24803 0.0
C1533 C 0.03262 0.29654 0.28925 0.0
C1534 C 0.03887 0.29082 0.27681 0.0
C1535 C 0.06052 0.27898 0.23947 0.0
C1536 C 0.0525 0.28225 0.25249 0.0
H1537 H 0.02389 0.29471 0.33143 0.0
H1538 H 0.03183 0.28341 0.3102 0.0
H1539 H 0.02431 0.2871 0.25618 0.0
H1540 H 0.07269 0.28701 0.19844 0.0
H1541 H 0.057 0.28965 0.21863 0.0
C1542 C 0.68664 0.70855 0.27618 0.0
C1543 C 0.68648 0.71162 0.29373 0.0
C1544 C 0.69177 0.71969 0.26433 0.0
C1545 C 0.71364 0.75984 0.26018 0.0
H1546 H 0.69024 0.75238 0.22003 0.0
C1547 C 0.7188 0.80601 0.21934 0.0
C1548 C 0.71692 0.80374 0.20155 0.0
C1549 C 0.71651 0.79473 0.22986 0.0
C1550 C 0.69705 0.75459 0.231 0.0
H1551 H 0.69194 0.72889 0.31264 0.0
H1552 H 0.70083 0.7483 0.29196 0.0
H1553 H 0.6838 0.73275 0.23974 0.0
H1554 H 0.71162 0.78795 0.1808 0.0
H1555 H 0.70768 0.76822 0.19919 0.0
H1556 H 0.72678 0.78174 0.25155 0.0
C1557 C 0.69709 0.73729 0.28736 0.0
C1558 C 0.69334 0.74333 0.24232 0.0
C1559 C 0.69191 0.72614 0.29921 0.0
C1560 C 0.71297 0.78999 0.19448 0.0
C1561 C 0.71071 0.77869 0.20502 0.0
C1562 C 0.71737 0.77109 0.24883 0.0
C1563 C 0.69691 0.73416 0.26977 0.0
C1564 C 0.70148 0.74587 0.25715 0.0
C1565 C 0.7123 0.78088 0.22285 0.0
C1566 C 0.709 0.76866 0.23423 0.0
H1567 H 0.68258 0.69749 0.27153 0.0
H1568 H 0.69165 0.71697 0.25087 0.0
H1569 H 0.72025 0.76208 0.27136 0.0
H1570 H 0.7216 0.8164 0.22522 0.0
H1571 H 0.71759 0.79674 0.24355 0.0
C1572 C 0.28666 0.96251 0.30026 0.0
C1573 C 0.28869 0.97506 0.30889 0.0
C1574 C 0.27682 0.95606 0.2869 0.0
C1575 C 0.2556 0.96249 0.256 0.0
H1576 H 0.23292 0.92016 0.25393 0.0
C1577 C 0.20602 0.92753 0.21171 0.0
C1578 C 0.20482 0.91498 0.20405 0.0
C1579 C 0.21694 0.93605 0.22353 0.0
C1580 C 0.23927 0.93199 0.25422 0.0
H1581 H 0.28211 0.99082 0.31011 0.0
H1582 H 0.26463 0.97932 0.28695 0.0
H1583 H 0.2503 0.9326 0.27675 0.0
H1584 H 0.21474 0.90216 0.20175 0.0
H1585 H 0.23368 0.91693 0.22237 0.0
H1586 H 0.24424 0.96171 0.2335 0.0
C1587 C 0.27084 0.97461 0.29037 0.0
C1588 C 0.24926 0.93913 0.26729 0.0
C1589 C 0.28079 0.98115 0.3037 0.0
C1590 C 0.21518 0.91157 0.20774 0.0
C1591 C 0.22603 0.92003 0.21954 0.0
C1592 C 0.24549 0.9553 0.24293 0.0
C1593 C 0.26864 0.9619 0.28193 0.0
C1594 C 0.25768 0.95446 0.26825 0.0
C1595 C 0.2268 0.93212 0.22789 0.0
C1596 C 0.23735 0.93997 0.24181 0.0
H1597 H 0.29268 0.95763 0.30379 0.0
H1598 H 0.27564 0.94647 0.28044 0.0
H1599 H 0.26198 0.97431 0.25629 0.0
H1600 H 0.19814 0.93039 0.20918 0.0
H1601 H 0.21727 0.9453 0.22981 0.0
C1602 C 0.68526 0.96821 0.30178 0.0
C1603 C 0.68593 0.96607 0.31931 0.0
C1604 C 0.69107 0.96301 0.28966 0.0
C1605 C 0.69974 0.93472 0.28385 0.0
H1606 H 0.71997 0.95619 0.2435 0.0
C1607 C 0.72114 0.91056 0.23461 0.0
C1608 C 0.71863 0.91171 0.21734 0.0
C1609 C 0.71925 0.91878 0.24724 0.0
C1610 C 0.71426 0.95003 0.25464 0.0
H1611 H 0.69364 0.95721 0.33787 0.0
H1612 H 0.7038 0.94818 0.31669 0.0
H1613 H 0.71271 0.96766 0.26537 0.0
H1614 H 0.7127 0.92273 0.19966 0.0
H1615 H 0.70914 0.93698 0.22177 0.0
H1616 H 0.70089 0.91697 0.27306 0.0
C1617 C 0.69863 0.95373 0.31234 0.0
C1618 C 0.71012 0.9566 0.26717 0.0
C1619 C 0.69286 0.95897 0.32447 0.0
C1620 C 0.71478 0.92171 0.21287 0.0
C1621 C 0.71278 0.92988 0.22554 0.0
C1622 C 0.70381 0.92814 0.27134 0.0
C1623 C 0.69764 0.95553 0.29479 0.0
C1624 C 0.70274 0.94897 0.28186 0.0
C1625 C 0.71468 0.92826 0.24291 0.0
C1626 C 0.71105 0.93567 0.25653 0.0
H1627 H 0.68002 0.97367 0.29738 0.0
H1628 H 0.69001 0.96445 0.27623 0.0
H1629 H 0.69384 0.92845 0.29486 0.0
H1630 H 0.72435 0.9031 0.23837 0.0
H1631 H 0.72114 0.91753 0.26044 0.0
C1632 C 0.02852 0.72553 0.30171 0.0
C1633 C 0.03096 0.71397 0.30181 0.0
C1634 C 0.03515 0.7364 0.28949 0.0
C1635 C 0.06679 0.75361 0.26183 0.0
H1636 H 0.04666 0.7679 0.23668 0.0
C1637 C 0.09374 0.79166 0.20588 0.0
C1638 C 0.09215 0.80369 0.20476 0.0
C1639 C 0.08523 0.78042 0.21702 0.0
C1640 C 0.05245 0.76413 0.24374 0.0
H1641 H 0.04202 0.70461 0.28894 0.0
H1642 H 0.05354 0.72353 0.26777 0.0
H1643 H 0.03378 0.74897 0.2579 0.0
H1644 H 0.08006 0.81319 0.21387 0.0
H1645 H 0.06524 0.79357 0.23366 0.0
H1646 H 0.08547 0.76878 0.248 0.0
C1647 C 0.04662 0.72426 0.2772 0.0
C1648 C 0.04508 0.7533 0.25586 0.0
C1649 C 0.03996 0.71339 0.2893 0.0
C1650 C 0.08145 0.80399 0.21447 0.0
C1651 C 0.07298 0.79276 0.22576 0.0
C1652 C 0.07415 0.76444 0.24983 0.0
C1653 C 0.04441 0.73596 0.27726 0.0
C1654 C 0.05216 0.74782 0.26487 0.0
C1655 C 0.07501 0.78101 0.22743 0.0
C1656 C 0.06705 0.76972 0.24047 0.0
H1657 H 0.02161 0.72626 0.31115 0.0
H1658 H 0.03332 0.74533 0.28987 0.0
H1659 H 0.07261 0.74983 0.26884 0.0
H1660 H 0.10175 0.79105 0.1983 0.0
H1661 H 0.08681 0.77134 0.21763 0.0
C1662 C 0.28508 0.30714 0.28137 0.0
C1663 C 0.28405 0.30766 0.29928 0.0
C1664 C 0.27294 0.30202 0.27114 0.0
C1665 C 0.23752 0.29786 0.27244 0.0
H1666 H 0.23065 0.27489 0.23066 0.0
C1667 C 0.18686 0.27811 0.23269 0.0
C1668 C 0.18875 0.27997 0.21495 0.0
C1669 C 0.19786 0.27963 0.24295 0.0
C1670 C 0.23248 0.28138 0.24224 0.0
H1671 H 0.26934 0.30258 0.3205 0.0
H1672 H 0.24819 0.29352 0.30269 0.0
H1673 H 0.25109 0.28088 0.24875 0.0
H1674 H 0.2035 0.28442 0.19397 0.0
H1675 H 0.22281 0.28719 0.21193 0.0
H1676 H 0.21913 0.2986 0.26591 0.0
C1677 C 0.25842 0.29733 0.29653 0.0
C1678 C 0.24418 0.28481 0.2526 0.0
C1679 C 0.27054 0.30246 0.30674 0.0
C1680 C 0.20169 0.28282 0.20759 0.0
C1681 C 0.21275 0.28439 0.21788 0.0
C1682 C 0.22586 0.29444 0.26213 0.0
C1683 C 0.25952 0.29731 0.27861 0.0
C1684 C 0.24685 0.29313 0.2678 0.0
C1685 C 0.21105 0.2831 0.23573 0.0
C1686 C 0.22321 0.2862 0.24689 0.0
H1687 H 0.29533 0.31105 0.27521 0.0
H1688 H 0.27417 0.30226 0.25737 0.0
H1689 H 0.23943 0.30455 0.28387 0.0
H1690 H 0.1769 0.27564 0.23868 0.0
H1691 H 0.1961 0.27825 0.25661 0.0
C1692 C 0.30022 0.34846 0.38721 0.0
C1693 C 0.30893 0.35746 0.374 0.0
C1694 C 0.29578 0.35406 0.4005 0.0
C1695 C 0.28969 0.38382 0.41089 0.0
H1696 H 0.28471 0.36888 0.45665 0.0
C1697 C 0.26343 0.39913 0.46553 0.0
C1698 C 0.25207 0.38685 0.47343 0.0
C1699 C 0.27298 0.39767 0.45488 0.0
C1700 C 0.28609 0.37319 0.44395 0.0
H1701 H 0.32005 0.37954 0.36459 0.0
H1702 H 0.31237 0.38939 0.38796 0.0
H1703 H 0.29686 0.36255 0.43501 0.0
H1704 H 0.24215 0.36364 0.47716 0.0
H1705 H 0.25883 0.3611 0.45875 0.0
H1706 H 0.27864 0.39422 0.41983 0.0
C1707 C 0.30885 0.37792 0.38789 0.0
C1708 C 0.293 0.36953 0.43153 0.0
C1709 C 0.31329 0.37229 0.37453 0.0
C1710 C 0.25077 0.37325 0.4711 0.0
C1711 C 0.26038 0.37183 0.46069 0.0
C1712 C 0.28286 0.38756 0.42337 0.0
C1713 C 0.29998 0.36884 0.40098 0.0
C1714 C 0.29449 0.37443 0.41472 0.0
C1715 C 0.27144 0.38396 0.45224 0.0
C1716 C 0.28063 0.38193 0.43987 0.0
H1717 H 0.29663 0.33698 0.38721 0.0
H1718 H 0.28873 0.34667 0.41017 0.0
H1719 H 0.29055 0.38769 0.39805 0.0
H1720 H 0.26461 0.40972 0.4671 0.0
H1721 H 0.28145 0.40721 0.44856 0.0
C1722 C 0.64044 0.9419 0.38404 0.0
C1723 C 0.64826 0.95649 0.39001 0.0
C1724 C 0.63574 0.93046 0.39538 0.0
C1725 C 0.62939 0.92138 0.4413 0.0
H1726 H 0.63483 0.88986 0.42732 0.0
C1727 C 0.6278 0.88029 0.4886 0.0
C1728 C 0.62157 0.86567 0.48301 0.0
C1729 C 0.62957 0.89095 0.47732 0.0
C1730 C 0.63302 0.89845 0.43135 0.0
H1731 H 0.65697 0.97048 0.41266 0.0
H1732 H 0.64891 0.95052 0.4324 0.0
H1733 H 0.64054 0.9092 0.40751 0.0
H1734 H 0.61208 0.85076 0.46123 0.0
H1735 H 0.61492 0.8693 0.44165 0.0
H1736 H 0.62206 0.91069 0.46527 0.0
C1737 C 0.64627 0.94792 0.41897 0.0
C1738 C 0.6363 0.90955 0.41997 0.0
C1739 C 0.65097 0.95937 0.40763 0.0
C1740 C 0.61681 0.86189 0.46599 0.0
C1741 C 0.61859 0.87255 0.45471 0.0
C1742 C 0.62611 0.91027 0.4527 0.0
C1743 C 0.63876 0.93333 0.41295 0.0
C1744 C 0.63462 0.9212 0.42485 0.0
C1745 C 0.62517 0.88723 0.46018 0.0
C1746 C 0.62798 0.89872 0.44788 0.0
H1747 H 0.6381 0.9393 0.37055 0.0
H1748 H 0.62979 0.91934 0.39036 0.0
H1749 H 0.62778 0.9301 0.44537 0.0
H1750 H 0.63143 0.88352 0.50167 0.0
H1751 H 0.63477 0.90217 0.48191 0.0
C1752 C 0.04002 0.70465 0.39561 0.0
C1753 C 0.04522 0.70462 0.3791 0.0
C1754 C 0.0493 0.71003 0.40963 0.0
C1755 C 0.08554 0.7197 0.42348 0.0
H1756 H 0.08103 0.74389 0.45742 0.0
C1757 C 0.13024 0.75912 0.47015 0.0
C1758 C 0.12646 0.76007 0.48718 0.0
C1759 C 0.11971 0.75074 0.45795 0.0
C1760 C 0.0823 0.73698 0.44818 0.0
H1761 H 0.06423 0.71017 0.36436 0.0
H1762 H 0.08045 0.71985 0.38869 0.0
H1763 H 0.06381 0.73246 0.43413 0.0
H1764 H 0.10862 0.75249 0.50481 0.0
H1765 H 0.09021 0.73804 0.48335 0.0
H1766 H 0.10431 0.72464 0.43731 0.0
C1767 C 0.06916 0.71545 0.39091 0.0
C1768 C 0.07243 0.73041 0.43484 0.0
C1769 C 0.05987 0.70999 0.37692 0.0
C1770 C 0.11189 0.75219 0.49176 0.0
C1771 C 0.10135 0.74389 0.4795 0.0
C1772 C 0.09547 0.72636 0.43676 0.0
C1773 C 0.06401 0.71558 0.40744 0.0
C1774 C 0.07402 0.72183 0.4222 0.0
C1775 C 0.10516 0.74319 0.46244 0.0
C1776 C 0.09404 0.7352 0.44913 0.0
H1777 H 0.02876 0.7005 0.39774 0.0
H1778 H 0.04493 0.70978 0.4222 0.0
H1779 H 0.08693 0.71293 0.41417 0.0
H1780 H 0.14131 0.76525 0.46606 0.0
H1781 H 0.12296 0.75058 0.44485 0.0
C1782 C 0.31736 0.03984 0.72114 0.0
C1783 C 0.31433 0.03953 0.70368 0.0
C1784 C 0.31127 0.04461 0.7334 0.0
C1785 C 0.29656 0.06806 0.73834 0.0
H1786 H 0.28383 0.04971 0.78234 0.0
C1787 C 0.27594 0.09116 0.79048 0.0
C1788 C 0.2814 0.09241 0.807 0.0
C1789 C 0.27762 0.08286 0.77772 0.0
C1790 C 0.28741 0.055 0.77015 0.0
H1791 H 0.30229 0.04367 0.68543 0.0
H1792 H 0.29166 0.05203 0.70689 0.0
H1793 H 0.29117 0.03862 0.76013 0.0
H1794 H 0.29225 0.08528 0.82329 0.0
H1795 H 0.2955 0.0711 0.80094 0.0
H1796 H 0.29322 0.08465 0.74844 0.0
C1797 C 0.29883 0.04868 0.71105 0.0
C1798 C 0.2916 0.04864 0.75743 0.0
C1799 C 0.30488 0.04383 0.69877 0.0
C1800 C 0.28809 0.0847 0.81063 0.0
C1801 C 0.2898 0.07642 0.79786 0.0
C1802 C 0.29242 0.07444 0.75106 0.0
C1803 C 0.30206 0.04922 0.72848 0.0
C1804 C 0.29642 0.05522 0.74148 0.0
C1805 C 0.28483 0.07564 0.78116 0.0
C1806 C 0.28799 0.0681 0.76721 0.0
H1807 H 0.32458 0.03657 0.72536 0.0
H1808 H 0.31411 0.04508 0.7467 0.0
H1809 H 0.30041 0.07351 0.72627 0.0
H1810 H 0.27084 0.09705 0.7872 0.0
H1811 H 0.2735 0.08231 0.76505 0.0
C1812 C 0.98733 0.2931 0.73945 0.0
C1813 C 0.98453 0.28937 0.72198 0.0
C1814 C 0.98008 0.28254 0.75185 0.0
C1815 C 0.95805 0.24261 0.75836 0.0
H1816 H 0.94199 0.25337 0.79618 0.0
C1817 C 0.91202 0.19995 0.80012 0.0
C1818 C 0.91206 0.20308 0.81769 0.0
C1819 C 0.92223 0.21044 0.78924 0.0
C1820 C 0.94659 0.25023 0.78588 0.0
H1821 H 0.97228 0.2715 0.70382 0.0
H1822 H 0.9596 0.25314 0.72543 0.0
H1823 H 0.95765 0.27173 0.7758 0.0
H1824 H 0.92314 0.21954 0.83769 0.0
H1825 H 0.94101 0.23787 0.81867 0.0
H1826 H 0.9468 0.22104 0.76832 0.0
C1827 C 0.96747 0.26419 0.72956 0.0
C1828 C 0.95557 0.26077 0.77418 0.0
C1829 C 0.9747 0.27475 0.71717 0.0
C1830 C 0.9227 0.21687 0.82417 0.0
C1831 C 0.93293 0.22736 0.81328 0.0
C1832 C 0.94908 0.23207 0.77009 0.0
C1833 C 0.9699 0.26801 0.74705 0.0
C1834 C 0.96127 0.25704 0.76017 0.0
C1835 C 0.93274 0.22432 0.79565 0.0
C1836 C 0.94309 0.23571 0.78386 0.0
H1837 H 0.99489 0.30425 0.74359 0.0
H1838 H 0.98232 0.28578 0.76522 0.0
H1839 H 0.96244 0.23944 0.74784 0.0
H1840 H 0.90385 0.18951 0.79468 0.0
H1841 H 0.92161 0.2078 0.77569 0.0
C1842 C 0.71505 0.69611 0.73562 0.0
C1843 C 0.71637 0.6958 0.71774 0.0
C1844 C 0.72707 0.70143 0.74611 0.0
C1845 C 0.76334 0.70735 0.7456 0.0
H1846 H 0.7674 0.72792 0.78865 0.0
C1847 C 0.81218 0.72706 0.78949 0.0
C1848 C 0.809 0.72363 0.80682 0.0
C1849 C 0.80165 0.72558 0.77833 0.0
C1850 C 0.76638 0.72214 0.77668 0.0
H1851 H 0.73146 0.70146 0.69684 0.0
H1852 H 0.75245 0.71102 0.71511 0.0
H1853 H 0.74763 0.72208 0.7695 0.0
H1854 H 0.79248 0.71657 0.8262 0.0
H1855 H 0.77407 0.71388 0.8067 0.0
H1856 H 0.78199 0.7073 0.75285 0.0
C1857 C 0.74208 0.70683 0.72106 0.0
C1858 C 0.75504 0.71877 0.76573 0.0
C1859 C 0.73005 0.70143 0.71057 0.0
C1860 C 0.7952 0.71914 0.81287 0.0
C1861 C 0.7847 0.71775 0.80174 0.0
C1862 C 0.7747 0.71079 0.75651 0.0
C1863 C 0.7407 0.70666 0.73897 0.0
C1864 C 0.75328 0.71118 0.75014 0.0
C1865 C 0.78775 0.72074 0.7843 0.0
C1866 C 0.77625 0.71806 0.77225 0.0
H1867 H 0.70466 0.69183 0.74156 0.0
H1868 H 0.72557 0.70097 0.75984 0.0
H1869 H 0.76219 0.70127 0.73386 0.0
H1870 H 0.82268 0.73045 0.78442 0.0
H1871 H 0.80435 0.7281 0.76499 0.0
C1872 C 0.71292 0.64631 0.65408 0.0
C1873 C 0.70403 0.65143 0.64959 0.0
C1874 C 0.71808 0.64074 0.64156 0.0
C1875 C 0.71322 0.6272 0.59648 0.0
H1876 H 0.75368 0.64126 0.59962 0.0
C1877 C 0.76241 0.63577 0.55046 0.0
C1878 C 0.75617 0.62212 0.54194 0.0
C1879 C 0.75537 0.63797 0.56406 0.0
C1880 C 0.74237 0.63726 0.59854 0.0
H1881 H 0.69314 0.65421 0.62851 0.0
H1882 H 0.70231 0.6447 0.60665 0.0
H1883 H 0.74224 0.64725 0.62244 0.0
H1884 H 0.73759 0.60008 0.54099 0.0
H1885 H 0.72528 0.60391 0.56497 0.0
H1886 H 0.71355 0.61764 0.57223 0.0
C1887 C 0.70518 0.64483 0.61987 0.0
C1888 C 0.73577 0.64054 0.61172 0.0
C1889 C 0.69999 0.65037 0.63239 0.0
C1890 C 0.7427 0.6107 0.54736 0.0
C1891 C 0.73561 0.61292 0.56099 0.0
C1892 C 0.71985 0.6239 0.58327 0.0
C1893 C 0.71449 0.6402 0.62427 0.0
C1894 C 0.72115 0.63571 0.61077 0.0
C1895 C 0.74191 0.62658 0.56952 0.0
C1896 C 0.73455 0.6291 0.58404 0.0
H1897 H 0.71613 0.64685 0.66723 0.0
H1898 H 0.72504 0.63703 0.64542 0.0
H1899 H 0.70191 0.62319 0.59545 0.0
H1900 H 0.77287 0.64475 0.54677 0.0
H1901 H 0.76043 0.64868 0.57021 0.0
C1902 C 0.3626 0.04931 0.61681 0.0
C1903 C 0.36121 0.05241 0.63405 0.0
C1904 C 0.36776 0.06026 0.60469 0.0
C1905 C 0.38728 0.10034 0.59982 0.0
H1906 H 0.36438 0.09077 0.55876 0.0
C1907 C 0.38657 0.14374 0.55967 0.0
C1908 C 0.38462 0.14152 0.54189 0.0
C1909 C 0.38623 0.13312 0.56981 0.0
C1910 C 0.3711 0.09359 0.56996 0.0
H1911 H 0.36464 0.06956 0.65218 0.0
H1912 H 0.37359 0.08861 0.63106 0.0
H1913 H 0.35925 0.07162 0.57862 0.0
H1914 H 0.38134 0.12666 0.52072 0.0
H1915 H 0.381 0.10819 0.53843 0.0
H1916 H 0.39894 0.12238 0.59132 0.0
C1917 C 0.37078 0.07774 0.62691 0.0
C1918 C 0.36813 0.0826 0.58137 0.0
C1919 C 0.36555 0.06679 0.639 0.0
C1920 C 0.38293 0.12871 0.53438 0.0
C1921 C 0.38259 0.11807 0.54455 0.0
C1922 C 0.39028 0.11133 0.58837 0.0
C1923 C 0.37173 0.07455 0.60958 0.0
C1924 C 0.37599 0.08591 0.5966 0.0
C1925 C 0.38396 0.12003 0.56242 0.0
C1926 C 0.38201 0.10814 0.57349 0.0
H1927 H 0.3594 0.03835 0.61258 0.0
H1928 H 0.36851 0.05751 0.59146 0.0
H1929 H 0.39367 0.10318 0.61132 0.0
H1930 H 0.38811 0.1536 0.56581 0.0
H1931 H 0.38718 0.13495 0.58354 0.0
C1932 C 0.93937 0.27982 0.65145 0.0
C1933 C 0.95365 0.29043 0.64762 0.0
C1934 C 0.92879 0.27467 0.6389 0.0
C1935 C 0.92024 0.28313 0.59692 0.0
H1936 H 0.8928 0.24141 0.59464 0.0
C1937 C 0.88019 0.25301 0.54074 0.0
C1938 C 0.86657 0.24122 0.54507 0.0
C1939 C 0.89075 0.26026 0.55333 0.0
C1940 C 0.90025 0.25311 0.59523 0.0
H1941 H 0.96798 0.30413 0.62763 0.0
H1942 H 0.94947 0.29499 0.60564 0.0
H1943 H 0.9114 0.2515 0.61633 0.0
H1944 H 0.85294 0.22848 0.56599 0.0
H1945 H 0.87123 0.24122 0.58793 0.0
H1946 H 0.90904 0.28465 0.57564 0.0
C1947 C 0.94646 0.29077 0.61842 0.0
C1948 C 0.91093 0.2589 0.60768 0.0
C1949 C 0.95707 0.29593 0.63099 0.0
C1950 C 0.86345 0.23737 0.56228 0.0
C1951 C 0.87393 0.24462 0.57481 0.0
C1952 C 0.90951 0.27732 0.58442 0.0
C1953 C 0.93222 0.27999 0.6222 0.0
C1954 C 0.921 0.27397 0.60875 0.0
C1955 C 0.88783 0.25586 0.57043 0.0
C1956 C 0.89933 0.26225 0.58354 0.0
H1957 H 0.93634 0.27542 0.66415 0.0
H1958 H 0.91787 0.26652 0.6423 0.0
H1959 H 0.92779 0.29482 0.59751 0.0
H1960 H 0.88287 0.25615 0.52754 0.0
H1961 H 0.90137 0.26886 0.54954 0.0
C1962 C 0.34214 0.30105 0.6278 0.0
C1963 C 0.3521 0.31161 0.6394 0.0
C1964 C 0.34663 0.29551 0.61451 0.0
C1965 C 0.37609 0.29037 0.60179 0.0
H1966 H 0.35649 0.27982 0.55808 0.0
C1967 C 0.38854 0.2613 0.54707 0.0
C1968 C 0.37628 0.24858 0.54078 0.0
C1969 C 0.38721 0.27126 0.55754 0.0
C1970 C 0.36208 0.28274 0.57021 0.0
H1971 H 0.37465 0.32481 0.64594 0.0
H1972 H 0.38253 0.31521 0.62253 0.0
H1973 H 0.35131 0.29328 0.57948 0.0
H1974 H 0.35311 0.23656 0.53976 0.0
H1975 H 0.35077 0.25396 0.55788 0.0
H1976 H 0.3867 0.27961 0.59251 0.0
C1977 C 0.37121 0.3111 0.62389 0.0
C1978 C 0.35908 0.29039 0.5825 0.0
C1979 C 0.3667 0.31664 0.63726 0.0
C1980 C 0.36272 0.24625 0.54457 0.0
C1981 C 0.36139 0.25626 0.55481 0.0
C1982 C 0.37917 0.2828 0.58943 0.0
C1983 C 0.36121 0.30042 0.6124 0.0
C1984 C 0.36575 0.29394 0.59862 0.0
C1985 C 0.3736 0.26876 0.56162 0.0
C1986 C 0.37191 0.27858 0.57369 0.0
H1987 H 0.33081 0.2969 0.62909 0.0
H1988 H 0.3386 0.28709 0.60611 0.0
H1989 H 0.38134 0.29281 0.61411 0.0
H1990 H 0.39911 0.2633 0.54434 0.0
H1991 H 0.39679 0.28085 0.56258 0.0
C1992 C 0.69653 0.05462 0.62318 0.0
C1993 C 0.69824 0.04265 0.62446 0.0
C1994 C 0.70281 0.06428 0.6097 0.0
C1995 C 0.73292 0.07782 0.57993 0.0
H1996 H 0.71357 0.09325 0.55531 0.0
C1997 C 0.76095 0.11666 0.52472 0.0
C1998 C 0.75975 0.12897 0.52432 0.0
C1999 C 0.75199 0.10503 0.5352 0.0
C2000 C 0.71915 0.08913 0.56216 0.0
H2001 H 0.70758 0.03122 0.61233 0.0
H2002 H 0.71853 0.04807 0.58891 0.0
H2003 H 0.70067 0.07511 0.5773 0.0
H2004 H 0.74794 0.13861 0.534 0.0
H2005 H 0.73244 0.11841 0.55265 0.0
H2006 H 0.75148 0.09201 0.56531 0.0
C2007 C 0.71244 0.05006 0.5984 0.0
C2008 C 0.71176 0.07874 0.57472 0.0
C2009 C 0.70611 0.04037 0.61179 0.0
C2010 C 0.74901 0.12917 0.53401 0.0
C2011 C 0.74012 0.11759 0.54466 0.0
C2012 C 0.74032 0.08824 0.5675 0.0
C2013 C 0.711 0.0622 0.59731 0.0
C2014 C 0.71859 0.07299 0.58373 0.0
C2015 C 0.74175 0.10554 0.54569 0.0
C2016 C 0.73355 0.09403 0.55845 0.0
H2017 H 0.6905 0.05665 0.63271 0.0
H2018 H 0.70162 0.07362 0.60925 0.0
H2019 H 0.73855 0.0738 0.58688 0.0
H2020 H 0.76903 0.11616 0.51717 0.0
H2021 H 0.7533 0.09576 0.53534 0.0
C2022 C 0.94785 0.64457 0.60356 0.0
C2023 C 0.94534 0.64265 0.62123 0.0
C2024 C 0.93642 0.63957 0.59215 0.0
C2025 C 0.89907 0.6304 0.59085 0.0
H2026 H 0.89871 0.61383 0.54608 0.0
C2027 C 0.8515 0.61016 0.54497 0.0
C2028 C 0.85496 0.61457 0.52794 0.0
C2029 C 0.86203 0.61183 0.55624 0.0
C2030 C 0.8987 0.61852 0.5585 0.0
H2031 H 0.92882 0.63349 0.64072 0.0
H2032 H 0.90893 0.62463 0.62083 0.0
H2033 H 0.91809 0.61999 0.56605 0.0
H2034 H 0.87206 0.62356 0.50919 0.0
H2035 H 0.89051 0.62671 0.52894 0.0
H2036 H 0.87984 0.62913 0.58328 0.0
C2037 C 0.91973 0.63024 0.6158 0.0
C2038 C 0.9098 0.62205 0.56994 0.0
C2039 C 0.93114 0.63526 0.6272 0.0
C2040 C 0.86909 0.62022 0.52229 0.0
C2041 C 0.87963 0.62188 0.53356 0.0
C2042 C 0.88798 0.62685 0.57945 0.0
C2043 C 0.92224 0.63252 0.59817 0.0
C2044 C 0.91016 0.62812 0.58621 0.0
C2045 C 0.87627 0.61795 0.55075 0.0
C2046 C 0.88771 0.62096 0.5631 0.0
H2047 H 0.95865 0.65023 0.59853 0.0
H2048 H 0.93874 0.64164 0.57867 0.0
H2049 H 0.89914 0.6353 0.60314 0.0
H2050 H 0.84075 0.60588 0.54979 0.0
H2051 H 0.85906 0.60852 0.56935 0.0
C2052 C 0.95331 0.67672 0.71096 0.0
C2053 C 0.96382 0.68654 0.69964 0.0
C2054 C 0.94833 0.68176 0.72426 0.0
C2055 C 0.94564 0.71319 0.73845 0.0
H2056 H 0.93573 0.69322 0.7816 0.0
C2057 C 0.92345 0.72938 0.7974 0.0
C2058 C 0.91096 0.7176 0.8045 0.0
C2059 C 0.93139 0.7269 0.78515 0.0
C2060 C 0.93846 0.6989 0.76961 0.0
H2061 H 0.97742 0.70941 0.69346 0.0
H2062 H 0.96885 0.71826 0.71695 0.0
H2063 H 0.94716 0.68666 0.75928 0.0
H2064 H 0.89689 0.69398 0.80378 0.0
H2065 H 0.91095 0.68972 0.78293 0.0
H2066 H 0.93686 0.72542 0.74896 0.0
C2067 C 0.96432 0.70663 0.71535 0.0
C2068 C 0.94494 0.69511 0.75679 0.0
C2069 C 0.96927 0.70156 0.70194 0.0
C2070 C 0.90664 0.70332 0.79902 0.0
C2071 C 0.91466 0.70085 0.78698 0.0
C2072 C 0.93926 0.71709 0.75138 0.0
C2073 C 0.9538 0.69677 0.7267 0.0
C2074 C 0.94828 0.70194 0.74089 0.0
C2075 C 0.9271 0.71259 0.77992 0.0
C2076 C 0.93531 0.70973 0.76693 0.0
H2077 H 0.94881 0.66508 0.7095 0.0
H2078 H 0.93999 0.67382 0.73249 0.0
H2079 H 0.94797 0.71861 0.72632 0.0
H2080 H 0.92717 0.74052 0.80143 0.0
H2081 H 0.94099 0.73614 0.77993 0.0
C2082 C 0.3211 0.27716 0.71152 0.0
C2083 C 0.31387 0.28407 0.7068 0.0
C2084 C 0.31479 0.26554 0.72271 0.0
C2085 C 0.28826 0.24947 0.75696 0.0
H2086 H 0.29272 0.21644 0.74877 0.0
C2087 C 0.28464 0.21156 0.80993 0.0
C2088 C 0.27894 0.19671 0.80586 0.0
C2089 C 0.28607 0.22118 0.79735 0.0
C2090 C 0.29116 0.22546 0.75115 0.0
H2091 H 0.29429 0.28417 0.7101 0.0
H2092 H 0.28325 0.26381 0.7298 0.0
H2093 H 0.30064 0.23504 0.72722 0.0
H2094 H 0.26969 0.18021 0.78556 0.0
H2095 H 0.27202 0.19699 0.76364 0.0
H2096 H 0.27895 0.23995 0.78104 0.0
C2097 C 0.29384 0.26746 0.72482 0.0
C2098 C 0.29586 0.2362 0.73888 0.0
C2099 C 0.30014 0.27907 0.7135 0.0
C2100 C 0.27406 0.19157 0.78913 0.0
C2101 C 0.27552 0.2012 0.77653 0.0
C2102 C 0.2836 0.23873 0.76929 0.0
C2103 C 0.30111 0.26057 0.72951 0.0
C2104 C 0.29474 0.24847 0.74179 0.0
C2105 C 0.28186 0.21618 0.78041 0.0
C2106 C 0.28524 0.22674 0.76664 0.0
H2107 H 0.33169 0.28074 0.70662 0.0
H2108 H 0.32075 0.26061 0.72629 0.0
H2109 H 0.2873 0.25883 0.75959 0.0
H2110 H 0.28833 0.21581 0.82276 0.0
H2111 H 0.29109 0.23266 0.80074 0.0
C2112 C 0.71353 0.04796 0.71671 0.0
C2113 C 0.71681 0.04197 0.70251 0.0
C2114 C 0.72332 0.05479 0.73009 0.0
C2115 C 0.75199 0.05565 0.75283 0.0
H2116 H 0.76547 0.09618 0.76376 0.0
C2117 C 0.79794 0.08963 0.80109 0.0
C2118 C 0.79791 0.1008 0.81079 0.0
C2119 C 0.78784 0.08204 0.78815 0.0
C2120 C 0.76164 0.08478 0.76118 0.0
H2121 H 0.73271 0.03807 0.69138 0.0
H2122 H 0.74967 0.04965 0.71516 0.0
H2123 H 0.74799 0.08346 0.741 0.0
H2124 H 0.78688 0.11249 0.81444 0.0
H2125 H 0.7688 0.09865 0.79291 0.0
H2126 H 0.76512 0.05665 0.77335 0.0
C2127 C 0.73959 0.0492 0.71572 0.0
C2128 C 0.75171 0.07756 0.74802 0.0
C2129 C 0.72993 0.04265 0.70213 0.0
C2130 C 0.78721 0.10385 0.8075 0.0
C2131 C 0.77695 0.09607 0.79482 0.0
C2132 C 0.7617 0.06276 0.76626 0.0
C2133 C 0.73641 0.05545 0.7297 0.0
C2134 C 0.74686 0.06297 0.74371 0.0
C2135 C 0.77724 0.08521 0.78476 0.0
C2136 C 0.76671 0.07747 0.7706 0.0
H2137 H 0.70351 0.04764 0.71732 0.0
H2138 H 0.72065 0.05952 0.74079 0.0
H2139 H 0.74829 0.04434 0.74976 0.0
H2140 H 0.80581 0.08673 0.8034 0.0
H2141 H 0.78858 0.07389 0.78061 0.0
C2142 C 0.04187 0.32612 0.01789 0.0
C2143 C 0.04382 0.34005 0.01971 0.0
C2144 C 0.04905 0.32191 0.02863 0.0
C2145 C 0.06681 0.33115 0.07092 0.0
H2146 H 0.0792 0.30509 0.05534 0.0
C2147 C 0.09973 0.31593 0.11284 0.0
C2148 C 0.09532 0.30108 0.11286 0.0
C2149 C 0.09373 0.32095 0.10139 0.0
C2150 C 0.07569 0.31229 0.05988 0.0
H2151 H 0.05536 0.36077 0.03366 0.0
H2152 H 0.06821 0.3536 0.05205 0.0
H2153 H 0.06906 0.31389 0.0349 0.0
H2154 H 0.08082 0.27982 0.10108 0.0
H2155 H 0.07057 0.28868 0.0809 0.0
H2156 H 0.07363 0.32965 0.09587 0.0
C2157 C 0.06082 0.34575 0.04266 0.0
C2158 C 0.06987 0.31732 0.04819 0.0
C2159 C 0.05354 0.3499 0.03203 0.0
C2160 C 0.08466 0.29137 0.10124 0.0
C2161 C 0.07876 0.29642 0.08968 0.0
C2162 C 0.07276 0.32622 0.08257 0.0
C2163 C 0.05845 0.3316 0.04134 0.0
C2164 C 0.06526 0.32674 0.05358 0.0
C2165 C 0.08328 0.31127 0.0896 0.0
C2166 C 0.07717 0.31667 0.07719 0.0
H2167 H 0.03441 0.31824 0.00858 0.0
H2168 H 0.04681 0.31088 0.02735 0.0
H2169 H 0.06313 0.33815 0.07562 0.0
H2170 H 0.10809 0.32378 0.12136 0.0
H2171 H 0.09752 0.33248 0.10149 0.0
C2172 C 0.67657 0.70069 0.04092 0.0
C2173 C 0.67408 0.69908 0.0232 0.0
C2174 C 0.68217 0.71428 0.04909 0.0
C2175 C 0.68547 0.7496 0.04572 0.0
H2176 H 0.71635 0.76253 0.07836 0.0
C2177 C 0.71041 0.80539 0.08091 0.0
C2178 C 0.71307 0.80556 0.09845 0.0
C2179 C 0.70709 0.79323 0.07058 0.0
C2180 C 0.70765 0.75903 0.0694 0.0
H2181 H 0.67525 0.71044 0.00019 0.0
H2182 H 0.68489 0.73424 0.01459 0.0
H2183 H 0.70732 0.7395 0.06257 0.0
H2184 H 0.71453 0.79327 0.1189 0.0
H2185 H 0.70852 0.77195 0.10099 0.0
H2186 H 0.68545 0.76885 0.05289 0.0
C2187 C 0.68254 0.72493 0.02209 0.0
C2188 C 0.70251 0.74586 0.06034 0.0
C2189 C 0.67707 0.71133 0.01386 0.0
C2190 C 0.71272 0.79351 0.10537 0.0
C2191 C 0.70928 0.7813 0.09508 0.0
C2192 C 0.69053 0.76272 0.05489 0.0
C2193 C 0.68527 0.72655 0.03975 0.0
C2194 C 0.69127 0.74094 0.04856 0.0
C2195 C 0.70624 0.78093 0.0776 0.0
C2196 C 0.70157 0.76751 0.06699 0.0
H2197 H 0.67438 0.69147 0.0485 0.0
H2198 H 0.68398 0.71518 0.06276 0.0
H2199 H 0.67671 0.74598 0.03682 0.0
H2200 H 0.71079 0.81463 0.07521 0.0
H2201 H 0.70507 0.79342 0.05711 0.0
C2202 C 0.2989 0.98492 0.03358 0.0
C2203 C 0.30515 0.978 0.02507 0.0
C2204 C 0.28553 0.97672 0.04135 0.0
C2205 C 0.25328 0.93923 0.04378 0.0
H2206 H 0.24848 0.95376 0.08768 0.0
C2207 C 0.20878 0.90396 0.09223 0.0
C2208 C 0.20179 0.91025 0.10043 0.0
C2209 C 0.2205 0.91225 0.08158 0.0
C2210 C 0.2496 0.94966 0.07533 0.0
H2211 H 0.3022 0.95705 0.01777 0.0
H2212 H 0.27901 0.94267 0.03184 0.0
H2213 H 0.27074 0.96806 0.07194 0.0
H2214 H 0.20137 0.93003 0.10374 0.0
H2215 H 0.22202 0.94464 0.08518 0.0
H2216 H 0.23224 0.92055 0.04762 0.0
C2217 C 0.28429 0.95445 0.03219 0.0
C2218 C 0.26234 0.95786 0.06626 0.0
C2219 C 0.29762 0.96268 0.0242 0.0
C2220 C 0.20655 0.92492 0.09752 0.0
C2221 C 0.21839 0.93327 0.08701 0.0
C2222 C 0.24058 0.93095 0.05296 0.0
C2223 C 0.27815 0.96139 0.04103 0.0
C2224 C 0.26438 0.95274 0.05039 0.0
C2225 C 0.22554 0.92704 0.07906 0.0
C2226 C 0.23865 0.93608 0.06885 0.0
H2227 H 0.30435 0.99672 0.03427 0.0
H2228 H 0.281 0.98245 0.04767 0.0
H2229 H 0.25437 0.93505 0.03148 0.0
H2230 H 0.20522 0.89262 0.09414 0.0
H2231 H 0.22587 0.9072 0.07571 0.0
C2232 C 0.33975 0.05023 0.9884 0.0
C2233 C 0.33608 0.03654 0.98142 0.0
C2234 C 0.33586 0.05894 0.98002 0.0
C2235 C 0.30996 0.05617 0.94817 0.0
H2236 H 0.33581 0.09805 0.94506 0.0
C2237 C 0.29946 0.09091 0.90318 0.0
C2238 C 0.30226 0.1045 0.90951 0.0
C2239 C 0.3035 0.0828 0.9125 0.0
C2240 C 0.32841 0.08639 0.94599 0.0
H2241 H 0.32586 0.02145 0.95992 0.0
H2242 H 0.31933 0.03666 0.94526 0.0
H2243 H 0.34333 0.08374 0.96031 0.0
H2244 H 0.31124 0.12006 0.93081 0.0
H2245 H 0.31837 0.10591 0.94702 0.0
H2246 H 0.2951 0.05877 0.93375 0.0
C2247 C 0.32491 0.04057 0.95737 0.0
C2248 C 0.33272 0.0782 0.95473 0.0
C2249 C 0.32875 0.03189 0.96573 0.0
C2250 C 0.30913 0.10974 0.92543 0.0
C2251 C 0.31321 0.10164 0.93473 0.0
C2252 C 0.30568 0.06434 0.93941 0.0
C2253 C 0.32824 0.05411 0.9645 0.0
C2254 C 0.32358 0.06298 0.95579 0.0
C2255 C 0.31046 0.08809 0.92835 0.0
C2256 C 0.31489 0.07952 0.93811 0.0
H2257 H 0.34537 0.05411 0.00048 0.0
H2258 H 0.33851 0.06928 0.9859 0.0
H2259 H 0.30254 0.04451 0.94905 0.0
H2260 H 0.2944 0.08667 0.89084 0.0
H2261 H 0.30142 0.07249 0.90713 0.0
C2262 C 0.97422 0.30256 0.00249 0.0
C2263 C 0.98463 0.31461 0.99329 0.0
C2264 C 0.96483 0.28932 0.99403 0.0
C2265 C 0.96139 0.26821 0.9548 0.0
H2266 H 0.92068 0.24737 0.9644 0.0
C2267 C 0.92 0.22033 0.91202 0.0
C2268 C 0.90789 0.20874 0.91983 0.0
C2269 C 0.92966 0.23278 0.92157 0.0
C2270 C 0.93204 0.25291 0.96175 0.0
H2271 H 0.99328 0.32224 0.96797 0.0
H2272 H 0.97693 0.29914 0.95328 0.0
H2273 H 0.93682 0.27001 0.9801 0.0
H2274 H 0.89667 0.2008 0.94386 0.0
H2275 H 0.91368 0.2224 0.96065 0.0
H2276 H 0.9567 0.25111 0.93655 0.0
C2277 C 0.97609 0.29991 0.96703 0.0
C2278 C 0.94128 0.2659 0.97072 0.0
C2279 C 0.98538 0.31317 0.97545 0.0
C2280 C 0.90583 0.20967 0.93747 0.0
C2281 C 0.91554 0.22206 0.94706 0.0
C2282 C 0.95218 0.25516 0.94592 0.0
C2283 C 0.96576 0.28783 0.97623 0.0
C2284 C 0.95602 0.27375 0.96722 0.0
C2285 C 0.92747 0.23386 0.93919 0.0
C2286 C 0.93738 0.24741 0.94917 0.0
H2287 H 0.97337 0.30333 0.01624 0.0
H2288 H 0.95701 0.28015 0.00145 0.0
H2289 H 0.97275 0.27393 0.95202 0.0
H2290 H 0.92175 0.21998 0.8984 0.0
H2291 H 0.9386 0.24173 0.91503 0.0
C2292 C 0.69405 0.66862 0.95906 0.0
C2293 C 0.69237 0.66438 0.97618 0.0
C2294 C 0.70715 0.67397 0.95075 0.0
C2295 C 0.74109 0.67497 0.95235 0.0
H2296 H 0.75535 0.70941 0.92493 0.0
C2297 C 0.79793 0.70457 0.92422 0.0
C2298 C 0.79939 0.70888 0.90716 0.0
C2299 C 0.78514 0.69982 0.93304 0.0
C2300 C 0.75146 0.69971 0.9324 0.0
H2301 H 0.70304 0.6621 0.99789 0.0
H2302 H 0.72596 0.67147 0.98333 0.0
H2303 H 0.7323 0.69919 0.93934 0.0
H2304 H 0.78876 0.71194 0.88606 0.0
H2305 H 0.76633 0.70356 0.90144 0.0
H2306 H 0.76017 0.6754 0.94532 0.0
C2307 C 0.71709 0.67058 0.97634 0.0
C2308 C 0.73825 0.69385 0.94065 0.0
C2309 C 0.70398 0.66526 0.98468 0.0
C2310 C 0.78797 0.70881 0.89926 0.0
C2311 C 0.77514 0.70401 0.90807 0.0
C2312 C 0.75427 0.68081 0.94407 0.0
C2313 C 0.71886 0.67517 0.95935 0.0
C2314 C 0.73291 0.6814 0.95068 0.0
C2315 C 0.77351 0.69924 0.92498 0.0
C2316 C 0.75961 0.69324 0.93399 0.0
H2317 H 0.6853 0.66804 0.9521 0.0
H2318 H 0.70811 0.67719 0.93756 0.0
H2319 H 0.73717 0.66527 0.95981 0.0
H2320 H 0.80666 0.70474 0.93072 0.0
H2321 H 0.78434 0.69652 0.94616 0.0
C2322 C 0.96927 0.69085 -1e-05 0.0
C2323 C 0.96712 0.6769 0.99716 0.0
C2324 C 0.96152 0.69529 0.99065 0.0
C2325 C 0.92901 0.68142 0.96462 0.0
H2326 H 0.95038 0.71881 0.9425 0.0
C2327 C 0.90439 0.69565 0.91038 0.0
C2328 C 0.90698 0.70986 0.9101 0.0
C2329 C 0.91191 0.69225 0.92156 0.0
C2330 C 0.94422 0.70844 0.94877 0.0
H2331 H 0.95482 0.65649 0.98277 0.0
H2332 H 0.94126 0.66419 0.96661 0.0
H2333 H 0.96264 0.71162 0.96197 0.0
H2334 H 0.91967 0.73174 0.92101 0.0
H2335 H 0.93279 0.72577 0.94077 0.0
H2336 H 0.9106 0.67818 0.95151 0.0
C2337 C 0.94892 0.67169 0.97603 0.0
C2338 C 0.95124 0.70432 0.95992 0.0
C2339 C 0.95674 0.66731 0.98524 0.0
C2340 C 0.91755 0.72073 0.92089 0.0
C2341 C 0.92504 0.71729 0.93219 0.0
C2342 C 0.92199 0.68555 0.95358 0.0
C2343 C 0.95138 0.6858 0.97845 0.0
C2344 C 0.94374 0.69068 0.96776 0.0
C2345 C 0.92214 0.70295 0.93283 0.0
C2346 C 0.92955 0.699 0.94529 0.0
H2347 H 0.9772 0.69851 0.00908 0.0
H2348 H 0.96353 0.70617 0.99288 0.0
H2349 H 0.92292 0.67094 0.97069 0.0
H2350 H 0.89646 0.68713 0.90199 0.0
H2351 H 0.90967 0.68119 0.92139 0.0
C2352 C 0.32251 0.31155 0.9754 0.0
C2353 C 0.33646 0.32365 0.97322 0.0
C2354 C 0.31803 0.2984 0.96659 0.0
C2355 C 0.32642 0.28273 0.92902 0.0
H2356 H 0.30378 0.24639 0.95295 0.0
C2357 C 0.31519 0.22753 0.90136 0.0
C2358 C 0.30134 0.21525 0.90349 0.0
C2359 C 0.31916 0.24083 0.90945 0.0
C2360 C 0.30994 0.25643 0.94603 0.0
H2361 H 0.35664 0.33144 0.96004 0.0
H2362 H 0.34886 0.3084 0.9448 0.0
H2363 H 0.31147 0.26948 0.96795 0.0
H2364 H 0.28078 0.20732 0.91573 0.0
H2365 H 0.28767 0.23065 0.92975 0.0
H2366 H 0.32497 0.26965 0.90714 0.0
C2367 C 0.34133 0.30915 0.95316 0.0
C2368 C 0.31435 0.26967 0.95462 0.0
C2369 C 0.34581 0.32233 0.96197 0.0
C2370 C 0.29149 0.21661 0.91376 0.0
C2371 C 0.29548 0.22992 0.92191 0.0
C2372 C 0.32202 0.26949 0.92044 0.0
C2373 C 0.3274 0.29703 0.95541 0.0
C2374 C 0.32266 0.28297 0.94622 0.0
C2375 C 0.30938 0.24216 0.9199 0.0
C2376 C 0.31376 0.2562 0.92887 0.0
H2377 H 0.315 0.31222 0.98391 0.0
H2378 H 0.30717 0.28934 0.96841 0.0
H2379 H 0.33261 0.29278 0.92211 0.0
H2380 H 0.32296 0.22686 0.89336 0.0
H2381 H 0.32997 0.25002 0.90777 0.0
C2382 C 0.70354 0.03166 0.00042 0.0
C2383 C 0.69085 0.02236 0.9913 0.0
C2384 C 0.71614 0.04143 0.99176 0.0
C2385 C 0.72948 0.05892 0.9496 0.0
H2386 H 0.76553 0.06479 0.96513 0.0
C2387 C 0.78073 0.08689 0.90855 0.0
C2388 C 0.79318 0.09791 0.91682 0.0
C2389 C 0.7684 0.07775 0.91796 0.0
C2390 C 0.75555 0.06332 0.96073 0.0
H2391 H 0.68142 0.01608 0.96595 0.0
H2392 H 0.70333 0.03274 0.95092 0.0
H2393 H 0.74364 0.04904 0.9811 0.0
H2394 H 0.80269 0.10772 0.94144 0.0
H2395 H 0.78116 0.09162 0.95793 0.0
H2396 H 0.74139 0.07295 0.92901 0.0
C2397 C 0.70356 0.0328 0.96476 0.0
C2398 C 0.74301 0.05436 0.96992 0.0
C2399 C 0.69098 0.02315 0.97339 0.0
C2400 C 0.79319 0.09938 0.93473 0.0
C2401 C 0.78092 0.09012 0.94417 0.0
C2402 C 0.74198 0.06773 0.94034 0.0
C2403 C 0.71633 0.04203 0.9738 0.0
C2404 C 0.72979 0.052 0.96443 0.0
C2405 C 0.76835 0.07934 0.93585 0.0
C2406 C 0.75513 0.06998 0.94577 0.0
H2407 H 0.70377 0.03136 0.01423 0.0
H2408 H 0.72571 0.04854 0.99917 0.0
H2409 H 0.71957 0.0576 0.94518 0.0
H2410 H 0.78041 0.08559 0.89475 0.0
H2411 H 0.75889 0.06943 0.91125 0.0
C2412 C 0.66054 0.95547 0.02844 0.0
C2413 C 0.65794 0.96537 0.03727 0.0
C2414 C 0.66489 0.94735 0.0373 0.0
C2415 C 0.66553 0.93454 0.08043 0.0
H2416 H 0.69719 0.93192 0.06251 0.0
C2417 C 0.69477 0.91433 0.12101 0.0
C2418 C 0.69873 0.90519 0.1129 0.0
C2419 C 0.68946 0.92123 0.11149 0.0
C2420 C 0.68822 0.93239 0.06759 0.0
H2421 H 0.65764 0.97434 0.06235 0.0
H2422 H 0.66523 0.96028 0.0777 0.0
H2423 H 0.68808 0.94429 0.04622 0.0
H2424 H 0.69999 0.89593 0.08845 0.0
H2425 H 0.6907 0.90795 0.07185 0.0
H2426 H 0.66568 0.92269 0.10182 0.0
C2427 C 0.66381 0.95867 0.06397 0.0
C2428 C 0.68299 0.93946 0.05824 0.0
C2429 C 0.65954 0.96681 0.05514 0.0
C2430 C 0.69727 0.90312 0.09505 0.0
C2431 C 0.69194 0.90999 0.08554 0.0
C2432 C 0.67073 0.92744 0.08976 0.0
C2433 C 0.66662 0.94892 0.05516 0.0
C2434 C 0.67167 0.94072 0.06463 0.0
C2435 C 0.68794 0.91911 0.09364 0.0
C2436 C 0.68221 0.92638 0.08352 0.0
H2437 H 0.65939 0.9541 0.01468 0.0
H2438 H 0.66684 0.93981 0.03018 0.0
H2439 H 0.65664 0.93514 0.08558 0.0
H2440 H 0.69593 0.91627 0.13472 0.0
H2441 H 0.6867 0.92838 0.1181 0.0
C2442 C 0.03382 0.71351 0.01106 0.0
C2443 C 0.02627 0.7001 0.01938 0.0
C2444 C 0.04311 0.72639 0.02025 0.0
C2445 C 0.06278 0.74015 0.06138 0.0
H2446 H 0.06089 0.77437 0.05297 0.0
C2447 C 0.08493 0.78843 0.10929 0.0
C2448 C 0.09339 0.80252 0.10273 0.0
C2449 C 0.07717 0.77635 0.09834 0.0
C2450 C 0.06164 0.76495 0.05533 0.0
H2451 H 0.02283 0.68963 0.04379 0.0
H2452 H 0.03881 0.712 0.05976 0.0
H2453 H 0.04718 0.75245 0.03495 0.0
H2454 H 0.10004 0.81498 0.07949 0.0
H2455 H 0.08625 0.79383 0.06035 0.0
H2456 H 0.07699 0.75254 0.08199 0.0
C2457 C 0.03774 0.71261 0.04612 0.0
C2458 C 0.05384 0.75241 0.04498 0.0
C2459 C 0.0285 0.69977 0.03696 0.0
C2460 C 0.09351 0.8043 0.08497 0.0
C2461 C 0.08566 0.79219 0.074 0.0
C2462 C 0.0705 0.75263 0.07176 0.0
C2463 C 0.04504 0.7261 0.03793 0.0
C2464 C 0.05417 0.7398 0.04803 0.0
C2465 C 0.07761 0.77807 0.08057 0.0
C2466 C 0.06987 0.7651 0.06899 0.0
H2467 H 0.03236 0.71413 0.99752 0.0
H2468 H 0.04872 0.73658 0.01352 0.0
H2469 H 0.0635 0.73073 0.06387 0.0
H2470 H 0.08437 0.78671 0.12293 0.0
H2471 H 0.07081 0.76562 0.10379 0.0
C2472 C 0.28955 0.32137 0.04011 0.0
C2473 C 0.299 0.33594 0.0355 0.0
C2474 C 0.27712 0.31747 0.04934 0.0
C2475 C 0.26158 0.33218 0.07897 0.0
H2476 H 0.22553 0.29737 0.06595 0.0
C2477 C 0.20852 0.31624 0.11308 0.0
C2478 C 0.19884 0.30135 0.11597 0.0
C2479 C 0.22061 0.32073 0.10287 0.0
C2480 C 0.23554 0.30702 0.0699 0.0
H2481 H 0.30282 0.35783 0.03694 0.0
H2482 H 0.28109 0.35099 0.05327 0.0
H2483 H 0.24686 0.30477 0.04873 0.0
H2484 H 0.19432 0.27948 0.11068 0.0
H2485 H 0.21556 0.28729 0.09311 0.0
H2486 H 0.2504 0.33429 0.10034 0.0
C2487 C 0.28336 0.34263 0.04971 0.0
C2488 C 0.24774 0.31128 0.05999 0.0
C2489 C 0.29575 0.34652 0.0403 0.0
C2490 C 0.20152 0.29102 0.1085 0.0
C2491 C 0.21366 0.29551 0.09839 0.0
C2492 C 0.2494 0.32786 0.08897 0.0
C2493 C 0.27393 0.32805 0.0543 0.0
C2494 C 0.26089 0.32386 0.06447 0.0
C2495 C 0.22334 0.31042 0.09541 0.0
C2496 C 0.23624 0.31519 0.0846 0.0
H2497 H 0.29174 0.31295 0.03659 0.0
H2498 H 0.27013 0.30618 0.05287 0.0
H2499 H 0.27162 0.34183 0.08283 0.0
H2500 H 0.20661 0.32442 0.11848 0.0
H2501 H 0.22769 0.33227 0.10061 0.0
C2502 C 0.69938 0.6727 0.36494 0.0
C2503 C 0.68828 0.67287 0.37386 0.0
C2504 C 0.70734 0.66773 0.37277 0.0
C2505 C 0.7169 0.661 0.41513 0.0
H2506 H 0.72628 0.63592 0.38931 0.0
C2507 C 0.7422 0.63227 0.44694 0.0
C2508 C 0.75369 0.63277 0.43817 0.0
C2509 C 0.73377 0.63658 0.43896 0.0
C2510 C 0.72384 0.64301 0.39664 0.0
H2511 H 0.6769 0.66807 0.39803 0.0
H2512 H 0.69067 0.65932 0.41158 0.0
H2513 H 0.71282 0.64506 0.37563 0.0
H2514 H 0.76502 0.63765 0.41399 0.0
H2515 H 0.75044 0.64536 0.40016 0.0
H2516 H 0.72793 0.65896 0.43613 0.0
C2517 C 0.69335 0.66317 0.39862 0.0
C2518 C 0.71616 0.64827 0.3888 0.0
C2519 C 0.68541 0.66812 0.39081 0.0
C2520 C 0.75635 0.63732 0.42114 0.0
C2521 C 0.7479 0.64158 0.41316 0.0
C2522 C 0.72456 0.65572 0.42297 0.0
C2523 C 0.70437 0.66286 0.38968 0.0
C2524 C 0.71262 0.65734 0.39795 0.0
C2525 C 0.73662 0.64143 0.42204 0.0
C2526 C 0.72814 0.64669 0.41381 0.0
H2527 H 0.70188 0.67631 0.35188 0.0
H2528 H 0.71588 0.66781 0.36561 0.0
H2529 H 0.71452 0.66814 0.42246 0.0
H2530 H 0.73996 0.62891 0.46011 0.0
H2531 H 0.72504 0.63618 0.44607 0.0
C2532 C 0.33197 0.02825 0.37425 0.0
C2533 C 0.31798 0.01618 0.37628 0.0
C2534 C 0.33611 0.0417 0.38207 0.0
C2535 C 0.32644 0.0581 0.41761 0.0
H2536 H 0.35198 0.09424 0.39448 0.0
C2537 C 0.34117 0.11426 0.44597 0.0
C2538 C 0.35571 0.12543 0.4454 0.0
C2539 C 0.33623 0.10109 0.43697 0.0
C2540 C 0.34493 0.08423 0.40114 0.0
H2541 H 0.29729 0.00885 0.38787 0.0
H2542 H 0.30446 0.03242 0.40133 0.0
H2543 H 0.3437 0.07092 0.37963 0.0
H2544 H 0.37644 0.13154 0.43482 0.0
H2545 H 0.36777 0.10855 0.41897 0.0
H2546 H 0.32767 0.07143 0.4391 0.0
C2547 C 0.3123 0.0314 0.39392 0.0
C2548 C 0.34019 0.07088 0.39265 0.0
C2549 C 0.30816 0.01791 0.38613 0.0
C2550 C 0.36515 0.12322 0.43537 0.0
C2551 C 0.36019 0.11005 0.4263 0.0
C2552 C 0.33113 0.07145 0.42606 0.0
C2553 C 0.32635 0.04343 0.39207 0.0
C2554 C 0.33096 0.05765 0.40082 0.0
C2555 C 0.34569 0.09882 0.42711 0.0
C2556 C 0.34048 0.08466 0.41795 0.0
H2557 H 0.33982 0.02728 0.36679 0.0
H2558 H 0.34707 0.05066 0.38058 0.0
H2559 H 0.31953 0.04813 0.42439 0.0
H2560 H 0.33355 0.11571 0.45327 0.0
H2561 H 0.32496 0.09272 0.43761 0.0
C2562 C 0.96103 0.30621 0.34837 0.0
C2563 C 0.97455 0.31421 0.35623 0.0
C2564 C 0.94863 0.29838 0.35824 0.0
C2565 C 0.9365 0.28214 0.40075 0.0
H2566 H 0.90221 0.28226 0.39018 0.0
C2567 C 0.8881 0.25747 0.44606 0.0
C2568 C 0.87456 0.24849 0.43853 0.0
C2569 C 0.90012 0.26609 0.43596 0.0
C2570 C 0.91168 0.28203 0.3932 0.0
H2571 H 0.98564 0.32034 0.38062 0.0
H2572 H 0.96409 0.30685 0.39776 0.0
H2573 H 0.92355 0.29587 0.37243 0.0
H2574 H 0.86298 0.24172 0.41448 0.0
H2575 H 0.88397 0.25681 0.39684 0.0
H2576 H 0.92468 0.26832 0.42148 0.0
C2577 C 0.96305 0.30643 0.38397 0.0
C2578 C 0.92388 0.28979 0.38302 0.0
C2579 C 0.97541 0.31424 0.37414 0.0
C2580 C 0.87323 0.24866 0.4207 0.0
C2581 C 0.88526 0.25729 0.41059 0.0
C2582 C 0.92434 0.27441 0.41092 0.0
C2583 C 0.94952 0.29838 0.37615 0.0
C2584 C 0.93644 0.28997 0.38672 0.0
C2585 C 0.89887 0.26592 0.41809 0.0
C2586 C 0.9118 0.2743 0.4073 0.0
H2587 H 0.96 0.30595 0.3346 0.0
H2588 H 0.93838 0.29215 0.35182 0.0
H2589 H 0.94592 0.28182 0.40376 0.0
H2590 H 0.88943 0.25777 0.45979 0.0
H2591 H 0.91042 0.27284 0.44215 0.0
C2592 C 0.01423 0.37954 0.31414 0.0
C2593 C 0.01421 0.36831 0.30458 0.0
C2594 C 0.01249 0.3899 0.30603 0.0
C2595 C 0.01557 0.40619 0.26421 0.0
H2596 H 0.98822 0.41519 0.28311 0.0
C2597 C 0.99527 0.43654 0.22595 0.0
C2598 C 0.99321 0.44684 0.23472 0.0
C2599 C -0.00157 0.42756 0.23489 0.0
C2600 C 0.99605 0.41297 0.27779 0.0
H2601 H 0.01263 0.35927 0.27899 0.0
H2602 H 0.00962 0.37733 0.26488 0.0
H2603 H 0.99304 0.3987 0.29809 0.0
H2604 H 0.99303 0.45593 0.25971 0.0
H2605 H -0.00132 0.44033 0.27535 0.0
H2606 H 0.01861 0.42044 0.24392 0.0
C2607 C 0.01104 0.37818 0.27862 0.0
C2608 C -0.0012 0.40352 0.28637 0.0
C2609 C 0.01268 0.36778 0.28673 0.0
C2610 C 0.99437 0.44796 0.25263 0.0
C2611 C 0.9976 0.43902 0.26158 0.0
C2612 C 0.01288 0.4157 0.25567 0.0
C2613 C 0.01082 0.38927 0.28819 0.0
C2614 C 0.00848 0.39992 0.27957 0.0
C2615 C -0.00033 0.42871 0.2528 0.0
C2616 C 0.00298 0.41909 0.26227 0.0
H2617 H 0.0154 0.38025 0.32792 0.0
H2618 H 0.01249 0.39841 0.31371 0.0
H2619 H 0.02325 0.40378 0.2588 0.0
H2620 H 0.99424 0.43529 0.21216 0.0
H2621 H -0.00031 0.41955 0.22775 0.0
C2622 C 0.6337 0.64267 0.30688 0.0
C2623 C 0.63406 0.64302 0.32484 0.0
C2624 C 0.62451 0.62967 0.29792 0.0
C2625 C 0.60469 0.58977 0.30203 0.0
H2626 H 0.58466 0.59014 0.26185 0.0
C2627 C 0.56324 0.53719 0.26461 0.0
C2628 C 0.56373 0.53795 0.24668 0.0
C2629 C 0.57162 0.54977 0.27472 0.0
C2630 C 0.59029 0.58988 0.27295 0.0
H2631 H 0.62492 0.63004 0.34749 0.0
H2632 H 0.60879 0.60736 0.33178 0.0
H2633 H 0.59928 0.61261 0.27853 0.0
H2634 H 0.57386 0.5523 0.22531 0.0
H2635 H 0.58849 0.57417 0.24291 0.0
H2636 H 0.59574 0.56702 0.29634 0.0
C2637 C 0.61574 0.61711 0.32466 0.0
C2638 C 0.59865 0.60275 0.28251 0.0
C2639 C 0.62491 0.63013 0.33365 0.0
C2640 C 0.57304 0.55143 0.23909 0.0
C2641 C 0.5814 0.56396 0.24918 0.0
C2642 C 0.59631 0.57687 0.29245 0.0
C2643 C 0.61549 0.61673 0.30669 0.0
C2644 C 0.60606 0.60288 0.29705 0.0
C2645 C 0.58065 0.56332 0.2671 0.0
C2646 C 0.58914 0.57683 0.2777 0.0
H2647 H 0.64063 0.65239 0.2997 0.0
H2648 H 0.62471 0.6297 0.28407 0.0
H2649 H 0.6104 0.58955 0.31307 0.0
H2650 H 0.55607 0.52698 0.27082 0.0
H2651 H 0.57074 0.54895 0.28851 0.0
C2652 C 0.36028 0.98518 0.32205 0.0
C2653 C 0.36137 0.99711 0.33124 0.0
C2654 C 0.37186 0.98682 0.31254 0.0
C2655 C 0.41103 0.01088 0.30672 0.0
H2656 H 0.40281 0.99274 0.26142 0.0
C2657 C 0.45517 0.02376 0.25658 0.0
C2658 C 0.45383 0.01184 0.24709 0.0
C2659 C 0.44408 0.02194 0.2673 0.0
C2660 C 0.40527 0.99774 0.27411 0.0
H2661 H 0.3756 0.02003 0.33799 0.0
H2662 H 0.39577 0.02292 0.32123 0.0
H2663 H 0.38322 0.98944 0.27964 0.0
H2664 H 0.43975 0.98873 0.24121 0.0
H2665 H 0.4205 0.98553 0.26005 0.0
H2666 H 0.43313 0.01927 0.30106 0.0
C2667 C 0.386 0.01226 0.32152 0.0
C2668 C 0.39404 0.99583 0.28457 0.0
C2669 C 0.37441 0.01062 0.33106 0.0
C2670 C 0.44117 0.9981 0.2485 0.0
C2671 C 0.43008 0.99629 0.25915 0.0
C2672 C 0.42228 0.01281 0.29623 0.0
C2673 C 0.38479 0.00042 0.31196 0.0
C2674 C 0.39678 0.00235 0.301 0.0
C2675 C 0.4314 0.00819 0.26866 0.0
C2676 C 0.41951 0.00624 0.27982 0.0
H2677 H 0.35041 0.9746 0.322 0.0
H2678 H 0.37066 0.97742 0.30556 0.0
H2679 H 0.41349 0.0159 0.31939 0.0
H2680 H 0.46484 0.03446 0.25587 0.0
H2681 H 0.44535 0.03135 0.27434 0.0
C2682 C 0.64326 0.01028 0.30876 0.0
C2683 C 0.63976 0.99654 0.31447 0.0
C2684 C 0.63353 0.01171 0.29905 0.0
C2685 C 0.59509 0.99264 0.28741 0.0
H2686 H 0.60942 0.02001 0.25034 0.0
C2687 C 0.558 0.9954 0.23817 0.0
C2688 C 0.56081 0.00942 0.23475 0.0
C2689 C 0.56765 0.99368 0.24766 0.0
C2690 C 0.60528 0.0124 0.26073 0.0
H2691 H 0.62329 0.9735 0.31447 0.0
H2692 H 0.60643 0.97592 0.29717 0.0
H2693 H 0.62613 0.01715 0.26738 0.0
H2694 H 0.57605 0.03263 0.2387 0.0
H2695 H 0.59302 0.02959 0.25495 0.0
H2696 H 0.5742 0.98777 0.28051 0.0
C2697 C 0.61659 0.98566 0.30048 0.0
C2698 C 0.61485 0.01078 0.27054 0.0
C2699 C 0.62628 0.98425 0.31033 0.0
C2700 C 0.57363 0.02168 0.24084 0.0
C2701 C 0.58334 0.01995 0.2502 0.0
C2702 C 0.58552 0.99417 0.27749 0.0
C2703 C 0.62011 -0.00059 0.29468 0.0
C2704 C 0.60988 0.00094 0.28407 0.0
C2705 C 0.5804 0.00594 0.2538 0.0
C2706 C 0.59053 0.00412 0.26411 0.0
H2707 H 0.65352 0.01998 0.31184 0.0
H2708 H 0.63651 0.0225 0.2951 0.0
H2709 H 0.5909 0.98513 0.29789 0.0
H2710 H 0.54837 0.98572 0.23342 0.0
H2711 H 0.56521 0.98275 0.25006 0.0
C2712 C 0.01009 0.647 0.32137 0.0
C2713 C -0.001 0.64482 0.33246 0.0
C2714 C 0.00894 0.63538 0.31168 0.0
C2715 C 0.98801 0.59483 0.30704 0.0
H2716 H 0.00237 0.6032 0.26055 0.0
C2717 C 0.9742 0.55035 0.25458 0.0
C2718 C 0.98576 0.5519 0.24483 0.0
C2719 C 0.97608 0.56145 0.26595 0.0
C2720 C 0.99842 0.60073 0.27355 0.0
H2721 H 0.97815 0.62873 0.34238 0.0
H2722 H 0.9759 0.60848 0.32506 0.0
H2723 H 0.00514 0.6229 0.27931 0.0
H2724 H 0.00847 0.5663 0.23974 0.0
H2725 H 0.0116 0.58583 0.25919 0.0
H2726 H 0.9809 0.5725 0.30091 0.0
C2727 C 0.98565 0.61909 0.3241 0.0
C2728 C 6e-05 0.61203 0.28436 0.0
C2729 C 0.98689 0.63071 0.33399 0.0
C2730 C -0.00075 0.56484 0.24674 0.0
C2731 C 0.00108 0.576 0.25795 0.0
C2732 C 0.98621 0.58349 0.29613 0.0
C2733 C 0.99658 0.62133 0.31264 0.0
C2734 C 0.99492 0.60924 0.30127 0.0
C2735 C 0.98952 0.57441 0.26766 0.0
C2736 C 0.99144 0.58636 0.2793 0.0
H2737 H 0.01963 0.65774 0.32006 0.0
H2738 H 0.01774 0.63745 0.30333 0.0
H2739 H 0.9841 0.5923 0.32004 0.0
H2740 H 0.96361 0.54066 0.25325 0.0
H2741 H 0.96696 0.56004 0.27315 0.0
C2742 C 0.36918 0.36693 0.33142 0.0
C2743 C 0.35562 0.35813 0.32384 0.0
C2744 C 0.38129 0.37531 0.32132 0.0
C2745 C 0.39254 0.39099 0.27831 0.0
H2746 H 0.42771 0.3928 0.28942 0.0
C2747 C 0.4413 0.41597 0.23303 0.0
C2748 C 0.45479 0.42528 0.24057 0.0
C2749 C 0.42922 0.40762 0.24319 0.0
C2750 C 0.41801 0.3925 0.28625 0.0
H2751 H 0.34413 0.35133 0.29972 0.0
H2752 H 0.36525 0.3658 0.28212 0.0
H2753 H 0.40657 0.37881 0.30724 0.0
H2754 H 0.46614 0.4331 0.26472 0.0
H2755 H 0.44509 0.41843 0.28241 0.0
H2756 H 0.40397 0.40462 0.25725 0.0
C2757 C 0.36652 0.36639 0.29588 0.0
C2758 C 0.4059 0.38452 0.29648 0.0
C2759 C 0.35441 0.35803 0.30597 0.0
C2760 C 0.45596 0.42587 0.25849 0.0
C2761 C 0.44389 0.41748 0.26864 0.0
C2762 C 0.40463 0.39894 0.26805 0.0
C2763 C 0.38011 0.37507 0.30342 0.0
C2764 C 0.39302 0.38368 0.29263 0.0
C2765 C 0.43038 0.40835 0.2611 0.0
C2766 C 0.4175 0.39978 0.27191 0.0
H2767 H 0.37047 0.3673 0.34515 0.0
H2768 H 0.39157 0.38205 0.32755 0.0
H2769 H 0.38286 0.39075 0.27514 0.0
H2770 H 0.44007 0.41509 0.21926 0.0
H2771 H 0.41899 0.40051 0.237 0.0
C2772 C 0.32553 0.29433 0.36707 0.0
C2773 C 0.32491 0.30526 0.37653 0.0
C2774 C 0.32932 0.28538 0.37502 0.0
C2775 C 0.331 0.27208 0.41725 0.0
H2776 H 0.35885 0.26491 0.39587 0.0
C2777 C 0.35724 0.2469 0.45415 0.0
C2778 C 0.35916 0.23644 0.44556 0.0
C2779 C 0.35297 0.255 0.44522 0.0
C2780 C 0.35092 0.26665 0.40191 0.0
H2781 H 0.32767 0.31529 0.40177 0.0
H2782 H 0.33426 0.29971 0.41556 0.0
H2783 H 0.35113 0.27926 0.3811 0.0
H2784 H 0.35818 0.22631 0.42088 0.0
H2785 H 0.35062 0.24041 0.40526 0.0
H2786 H 0.33074 0.25949 0.43803 0.0
C2787 C 0.33173 0.29799 0.40204 0.0
C2788 C 0.34651 0.27486 0.39344 0.0
C2789 C 0.32803 0.30697 0.3941 0.0
C2790 C 0.35693 0.23441 0.4278 0.0
C2791 C 0.3526 0.24249 0.41887 0.0
C2792 C 0.33537 0.26383 0.42567 0.0
C2793 C 0.33245 0.28712 0.39259 0.0
C2794 C 0.33661 0.27779 0.40111 0.0
C2795 C 0.35046 0.25279 0.42751 0.0
C2796 C 0.34549 0.26115 0.4182 0.0
H2797 H 0.32319 0.29275 0.35351 0.0
H2798 H 0.32967 0.27702 0.36744 0.0
H2799 H 0.32318 0.27394 0.42335 0.0
H2800 H 0.35912 0.24889 0.46778 0.0
H2801 H 0.35172 0.26307 0.45221 0.0
C2802 C 0.69142 0.02991 0.37036 0.0
C2803 C 0.69746 0.02385 0.35968 0.0
C2804 C 0.70002 0.04381 0.37779 0.0
C2805 C 0.73696 0.07015 0.39083 0.0
H2806 H 0.72525 0.09835 0.39069 0.0
C2807 C 0.77423 0.12857 0.41658 0.0
C2808 C 0.76803 0.1347 0.42678 0.0
C2809 C 0.76564 0.11573 0.40708 0.0
C2810 C 0.7286 0.09056 0.39099 0.0
H2811 H 0.71726 0.02761 0.34845 0.0
H2812 H 0.73229 0.05184 0.36157 0.0
H2813 H 0.71009 0.07434 0.37704 0.0
H2814 H 0.74805 0.13253 0.43472 0.0
H2815 H 0.73294 0.10986 0.41838 0.0
H2816 H 0.75526 0.0861 0.40508 0.0
C2817 C 0.7209 0.04581 0.36419 0.0
C2818 C 0.71993 0.07682 0.38315 0.0
C2819 C 0.71228 0.03196 0.35664 0.0
C2820 C 0.75308 0.12805 0.42684 0.0
C2821 C 0.74445 0.11509 0.41746 0.0
C2822 C 0.74556 0.08381 0.39877 0.0
C2823 C 0.71486 0.05188 0.37482 0.0
C2824 C 0.72404 0.06649 0.38299 0.0
C2825 C 0.75063 0.10863 0.40772 0.0
C2826 C 0.74151 0.09421 0.39893 0.0
H2827 H 0.68002 0.02394 0.37292 0.0
H2828 H 0.6951 0.04816 0.38607 0.0
H2829 H 0.74029 0.06233 0.39113 0.0
H2830 H 0.78575 0.13362 0.41615 0.0
H2831 H 0.77078 0.11128 0.39939 0.0
C2832 C 0.96333 0.67863 0.36545 0.0
C2833 C 0.96449 0.67052 0.35186 0.0
C2834 C 0.9501 0.67393 0.37312 0.0
C2835 C 0.91577 0.64102 0.38171 0.0
H2836 H 0.90356 0.66803 0.39304 0.0
C2837 C 0.86191 0.62299 0.41578 0.0
C2838 C 0.862 0.63283 0.428 0.0
C2839 C 0.87387 0.62719 0.40537 0.0
C2840 C 0.90688 0.66037 0.39015 0.0
H2841 H 0.95266 0.65123 0.33547 0.0
H2842 H 0.9295 0.64291 0.3491 0.0
H2843 H 0.92537 0.67634 0.3765 0.0
H2844 H 0.8748 0.65449 0.43947 0.0
H2845 H 0.89576 0.6617 0.42171 0.0
H2846 H 0.89757 0.62516 0.39582 0.0
C2847 C 0.93887 0.65292 0.35374 0.0
C2848 C 0.91933 0.66513 0.3806 0.0
C2849 C 0.95209 0.65773 0.34589 0.0
C2850 C 0.87437 0.64678 0.42994 0.0
C2851 C 0.88634 0.65093 0.41969 0.0
C2852 C 0.90337 0.63628 0.39142 0.0
C2853 C 0.93778 0.66093 0.3675 0.0
C2854 C 0.92399 0.65555 0.37646 0.0
C2855 C 0.88619 0.64127 0.40712 0.0
C2856 C 0.89888 0.64597 0.39596 0.0
H2857 H 0.97269 0.68854 0.37031 0.0
H2858 H 0.94958 0.68024 0.38381 0.0
H2859 H 0.91922 0.63345 0.37883 0.0
H2860 H 0.85245 0.6122 0.41395 0.0
H2861 H 0.87334 0.61952 0.39573 0.0
C2862 C 0.37318 0.0157 0.7065 0.0
C2863 C 0.36271 0.01698 0.71549 0.0
C2864 C 0.38212 0.01236 0.71509 0.0
C2865 C 0.39651 0.01365 0.75768 0.0
H2866 H 0.40316 0.98418 0.73853 0.0
C2867 C 0.42528 0.99163 0.79583 0.0
C2868 C 0.43506 0.98919 0.78695 0.0
C2869 C 0.41634 0.9948 0.78698 0.0
C2870 C 0.40156 0.99256 0.74396 0.0
H2871 H 0.35349 0.01586 0.74055 0.0
H2872 H 0.36912 0.01007 0.75549 0.0
H2873 H 0.38807 0.99049 0.7232 0.0
H2874 H 0.44319 0.98824 0.76186 0.0
H2875 H 0.4277 0.99393 0.7464 0.0
H2876 H 0.41008 0.01586 0.77834 0.0
C2877 C 0.37045 0.01172 0.74183 0.0
C2878 C 0.3929 0.99616 0.73517 0.0
C2879 C 0.36145 0.01496 0.73325 0.0
C2880 C 0.43562 0.98986 0.76903 0.0
C2881 C 0.42673 0.99312 0.76018 0.0
C2882 C 0.40522 0.01011 0.76641 0.0
C2883 C 0.38084 0.01034 0.73284 0.0
C2884 C 0.39025 0.00671 0.74198 0.0
C2885 C 0.41704 0.9957 0.76906 0.0
C2886 C 0.40781 -0.00052 0.7597 0.0
H2887 H 0.37442 0.01719 0.69282 0.0
H2888 H 0.39013 0.0115 0.70785 0.0
H2889 H 0.39481 0.02198 0.76311 0.0
H2890 H 0.42449 0.99099 0.80963 0.0
H2891 H 0.40881 0.99646 0.7942 0.0
C2892 C 0.97531 0.3439 0.71071 0.0
C2893 C 0.98691 0.34411 0.70263 0.0
C2894 C 0.97713 0.35649 0.71878 0.0
C2895 C 0.00122 0.39667 0.72056 0.0
H2896 H 0.98324 0.39335 0.76461 0.0
C2897 C 0.01539 0.44665 0.76412 0.0
C2898 C 0.00404 0.44666 0.77262 0.0
C2899 C 0.01304 0.43424 0.75502 0.0
C2900 C 0.98819 0.39444 0.75223 0.0
H2901 H 0.00953 0.35771 0.69664 0.0
H2902 H 0.01274 0.37961 0.7109 0.0
H2903 H 0.9796 0.37147 0.7498 0.0
H2904 H 0.98123 0.43377 0.7778 0.0
H2905 H 0.97715 0.41209 0.76198 0.0
H2906 H 0.00992 0.41968 0.7231 0.0
C2907 C 0.00218 0.36978 0.71079 0.0
C2908 C 0.9861 0.3819 0.74373 0.0
C2909 C 0.00036 0.35719 0.70271 0.0
C2910 C 0.99025 0.43403 0.77165 0.0
C2911 C 0.98791 0.42162 0.76258 0.0
C2912 C 0.00333 0.40922 0.72908 0.0
C2913 C 0.9906 0.36956 0.71896 0.0
C2914 C 0.99262 0.38288 0.72782 0.0
C2915 C -0.00071 0.42156 0.75424 0.0
C2916 C 0.99687 0.40824 0.74503 0.0
H2917 H 0.96479 0.33401 0.71082 0.0
H2918 H 0.96795 0.35602 0.72475 0.0
H2919 H 0.00622 0.39777 0.7082 0.0
H2920 H 0.02617 0.45614 0.76481 0.0
H2921 H 0.02206 0.43447 0.74892 0.0
C2922 C 0.65318 0.63071 0.71833 0.0
C2923 C 0.65516 0.64237 0.70855 0.0
C2924 C 0.64053 0.62231 0.72758 0.0
C2925 C 0.60988 0.62312 0.74609 0.0
H2926 H 0.59122 0.58096 0.745 0.0
C2927 C 0.55254 0.58511 0.77171 0.0
C2928 C 0.54981 0.57273 0.78055 0.0
C2929 C 0.56563 0.59381 0.76341 0.0
C2930 C 0.59639 0.59273 0.74562 0.0
H2931 H 0.64541 0.65437 0.70083 0.0
H2932 H 0.62337 0.63968 0.71686 0.0
H2933 H 0.61371 0.59573 0.72973 0.0
H2934 H 0.55883 0.56004 0.7881 0.0
H2935 H 0.58168 0.57524 0.77373 0.0
H2936 H 0.59256 0.62014 0.76198 0.0
C2937 C 0.63164 0.63712 0.71754 0.0
C2938 C 0.60927 0.60119 0.73687 0.0
C2939 C 0.64425 0.64548 0.70826 0.0
C2940 C 0.56052 0.56936 0.78113 0.0
C2941 C 0.57361 0.57806 0.77288 0.0
C2942 C 0.59701 0.61467 0.75488 0.0
C2943 C 0.62963 0.62543 0.72728 0.0
C2944 C 0.61613 0.61647 0.73695 0.0
C2945 C 0.57629 0.59034 0.76383 0.0
C2946 C 0.59008 0.59937 0.7547 0.0
H2947 H 0.66138 0.62805 0.71885 0.0
H2948 H 0.63934 0.61345 0.73511 0.0
H2949 H 0.61501 0.63489 0.7466 0.0
H2950 H 0.54444 0.5879 0.77088 0.0
H2951 H 0.56728 0.60308 0.75636 0.0
C2952 C 0.67728 0.70569 0.64183 0.0
C2953 C 0.66671 0.69171 0.64721 0.0
C2954 C 0.67352 0.71413 0.63269 0.0
C2955 C 0.64384 0.71135 0.60724 0.0
H2956 H 0.66407 0.75317 0.61595 0.0
C2957 C 0.62499 0.74851 0.58187 0.0
C2958 C 0.63563 0.76178 0.57482 0.0
C2959 C 0.62871 0.73969 0.59026 0.0
C2960 C 0.6584 0.74151 0.61329 0.0
H2961 H 0.64389 0.67569 0.64743 0.0
H2962 H 0.6373 0.69054 0.63195 0.0
H2963 H 0.67071 0.73841 0.63164 0.0
H2964 H 0.65851 0.77585 0.57054 0.0
H2965 H 0.66496 0.76062 0.58549 0.0
H2966 H 0.63134 0.71452 0.58911 0.0
C2967 C 0.64853 0.69487 0.63437 0.0
C2968 C 0.66224 0.73305 0.62223 0.0
C2969 C 0.65231 0.68639 0.64336 0.0
C2970 C 0.65005 0.76589 0.57616 0.0
C2971 C 0.65376 0.75715 0.58467 0.0
C2972 C 0.63992 0.71981 0.59842 0.0
C2973 C 0.65908 0.70884 0.62888 0.0
C2974 C 0.65502 0.71786 0.61931 0.0
C2975 C 0.64315 0.74401 0.5919 0.0
C2976 C 0.64719 0.73498 0.60132 0.0
H2977 H 0.68849 0.71006 0.64451 0.0
H2978 H 0.68195 0.72474 0.62844 0.0
H2979 H 0.6382 0.69973 0.60444 0.0
H2980 H 0.61381 0.74508 0.58126 0.0
H2981 H 0.62032 0.72966 0.59585 0.0
C2982 C 0.2973 0.97123 0.67214 0.0
C2983 C 0.30752 0.98384 0.66359 0.0
C2984 C 0.28804 0.95837 0.66295 0.0
C2985 C 0.27286 0.94453 0.61984 0.0
H2986 H 0.26529 0.90754 0.63639 0.0
C2987 C 0.24352 0.89146 0.57891 0.0
C2988 C 0.23318 0.87873 0.58717 0.0
C2989 C 0.25259 0.90422 0.58836 0.0
C2990 C 0.26718 0.91777 0.6317 0.0
H2991 H 0.31599 0.99284 0.63866 0.0
H2992 H 0.29993 0.97039 0.62268 0.0
H2993 H 0.28094 0.92998 0.65273 0.0
H2994 H 0.22421 0.86944 0.61182 0.0
H2995 H 0.24007 0.8917 0.62831 0.0
H2996 H 0.25913 0.93233 0.5988 0.0
C2997 C 0.29896 0.97049 0.63647 0.0
C2998 C 0.27613 0.93062 0.64106 0.0
C2999 C 0.30821 0.98333 0.64565 0.0
C3000 C 0.23221 0.879 0.6051 0.0
C3001 C 0.24128 0.89176 0.61454 0.0
C3002 C 0.26392 0.93169 0.61048 0.0
C3003 C 0.28879 0.95785 0.64501 0.0
C3004 C 0.2791 0.94415 0.63522 0.0
C3005 C 0.25153 0.90453 0.60627 0.0
C3006 C 0.261 0.91816 0.61628 0.0
H3007 H 0.29647 0.97127 0.68595 0.0
H3008 H 0.28021 0.94886 0.66989 0.0
H3009 H 0.27475 0.95476 0.61513 0.0
H3010 H 0.24469 0.89153 0.56514 0.0
H3011 H 0.26053 0.91381 0.58163 0.0
C3012 C 0.0398 0.3295 0.64988 0.0
C3013 C 0.0284 0.32896 0.64123 0.0
C3014 C 0.05291 0.33448 0.64164 0.0
C3015 C 0.06892 0.33908 0.59905 0.0
H3016 H 0.1044 0.36812 0.62124 0.0
C3017 C 0.12184 0.36805 0.56187 0.0
C3018 C 0.13425 0.37066 0.57014 0.0
C3019 C 0.1092 0.36328 0.57103 0.0
C3020 C 0.09462 0.35986 0.61494 0.0
H3021 H 0.02177 0.33306 0.61712 0.0
H3022 H 0.04457 0.34157 0.60276 0.0
H3023 H 0.08171 0.35861 0.63643 0.0
H3024 H 0.14325 0.3705 0.59452 0.0
H3025 H 0.12107 0.36188 0.61056 0.0
H3026 H 0.08169 0.34009 0.57768 0.0
C3027 C 0.04336 0.33815 0.61588 0.0
C3028 C 0.08163 0.35444 0.62365 0.0
C3029 C 0.03033 0.33334 0.62415 0.0
C3030 C 0.13386 0.36869 0.58786 0.0
C3031 C 0.12115 0.36377 0.59703 0.0
C3032 C 0.08188 0.34438 0.59041 0.0
C3033 C 0.0548 0.33882 0.62455 0.0
C3034 C 0.06865 0.34411 0.61571 0.0
C3035 C 0.10862 0.36084 0.58868 0.0
C3036 C 0.09489 0.35496 0.59816 0.0
H3037 H 0.03864 0.32623 0.66306 0.0
H3038 H 0.06153 0.33479 0.64858 0.0
H3039 H 0.05909 0.33094 0.59272 0.0
H3040 H 0.12191 0.36969 0.54826 0.0
H3041 H 0.09987 0.36149 0.56425 0.0
C3042 C 0.30808 0.33816 0.62227 0.0
C3043 C 0.30583 0.33407 0.63947 0.0
C3044 C 0.30078 0.34406 0.615 0.0
C3045 C 0.26896 0.34693 0.62022 0.0
H3046 H 0.2895 0.37878 0.58884 0.0
C3047 C 0.24277 0.37527 0.5891 0.0
C3048 C 0.24475 0.37694 0.57134 0.0
C3049 C 0.25078 0.37128 0.59865 0.0
C3050 C 0.28361 0.36985 0.59753 0.0
H3051 H 0.29403 0.33283 0.66248 0.0
H3052 H 0.28134 0.34328 0.64978 0.0
H3053 H 0.30216 0.36909 0.6032 0.0
H3054 H 0.25703 0.37634 0.54975 0.0
H3055 H 0.27096 0.36934 0.56637 0.0
H3056 H 0.25037 0.34765 0.61439 0.0
C3057 C 0.28867 0.34178 0.64189 0.0
C3058 C 0.29084 0.36427 0.60572 0.0
C3059 C 0.29596 0.33583 0.64918 0.0
C3060 C 0.25519 0.375 0.5634 0.0
C3061 C 0.26326 0.37112 0.57294 0.0
C3062 C 0.26173 0.35255 0.61205 0.0
C3063 C 0.29109 0.34607 0.62475 0.0
C3064 C 0.28355 0.35258 0.61694 0.0
C3065 C 0.26101 0.36903 0.59062 0.0
C3066 C 0.26893 0.36392 0.60042 0.0
H3067 H 0.31555 0.33687 0.6144 0.0
H3068 H 0.30268 0.34696 0.60166 0.0
H3069 H 0.263 0.33783 0.62866 0.0
H3070 H 0.23472 0.37661 0.59552 0.0
H3071 H 0.24891 0.36986 0.61228 0.0
C3072 C 0.68541 0.97657 0.65578 0.0
C3073 C 0.67581 0.98127 0.65866 0.0
C3074 C 0.68082 0.96316 0.64749 0.0
C3075 C 0.64931 0.92733 0.63726 0.0
H3076 H 0.6711 0.92777 0.59762 0.0
C3077 C 0.62864 0.87735 0.59128 0.0
C3078 C 0.63876 0.87452 0.58408 0.0
C3079 C 0.63308 0.89022 0.60077 0.0
C3080 C 0.66501 0.92736 0.60881 0.0
H3081 H 0.6538 0.97544 0.65573 0.0
H3082 H 0.64575 0.95189 0.64153 0.0
H3083 H 0.6792 0.95018 0.61431 0.0
H3084 H 0.66152 0.88322 0.58106 0.0
H3085 H 0.66918 0.90515 0.59825 0.0
H3086 H 0.63527 0.90448 0.63206 0.0
C3087 C 0.65682 0.95863 0.64557 0.0
C3088 C 0.66965 0.94022 0.61833 0.0
C3089 C 0.66145 0.97212 0.65361 0.0
C3090 C 0.6534 0.88487 0.58664 0.0
C3091 C 0.65782 0.89762 0.59629 0.0
C3092 C 0.64477 0.91439 0.62789 0.0
C3093 C 0.66651 0.95414 0.64221 0.0
C3094 C 0.66182 0.94034 0.63258 0.0
C3095 C 0.64773 0.90051 0.60343 0.0
C3096 C 0.65254 0.91425 0.6135 0.0
H3097 H 0.69654 0.9834 0.65951 0.0
H3098 H 0.68847 0.95987 0.64512 0.0
H3099 H 0.64315 0.92715 0.64828 0.0
H3100 H 0.61728 0.86957 0.58975 0.0
H3101 H 0.62499 0.89216 0.60586 0.0
C3102 C 0.02657 0.70028 0.66645 0.0
C3103 C 0.01458 0.69005 0.65678 0.0
C3104 C 0.03977 0.7093 0.65851 0.0
C3105 C 0.06037 0.7116 0.62008 0.0
H3106 H 0.08273 0.75305 0.63124 0.0
C3107 C 0.1097 0.75193 0.58057 0.0
C3108 C 0.12138 0.76366 0.58924 0.0
C3109 C 0.09692 0.74276 0.58921 0.0
C3110 C 0.07674 0.74146 0.62815 0.0
H3111 H 0.00702 0.68132 0.63116 0.0
H3112 H 0.03006 0.69703 0.61735 0.0
H3113 H 0.05994 0.73751 0.64563 0.0
H3114 H 0.12901 0.77474 0.61383 0.0
H3115 H 0.1068 0.75857 0.62903 0.0
H3116 H 0.07717 0.71546 0.60275 0.0
C3117 C 0.02926 0.69801 0.63108 0.0
C3118 C 0.06366 0.73258 0.63637 0.0
C3119 C 0.01605 0.68908 0.63899 0.0
C3120 C 0.12012 0.76588 0.60679 0.0
C3121 C 0.10737 0.75665 0.61546 0.0
C3122 C 0.07349 0.72046 0.61196 0.0
C3123 C 0.04126 0.70819 0.64076 0.0
C3124 C 0.0553 0.71758 0.63233 0.0
C3125 C 0.09557 0.74504 0.60675 0.0
C3126 C 0.08181 0.73552 0.6158 0.0
H3127 H 0.0258 0.7013 0.68017 0.0
H3128 H 0.04886 0.71698 0.6663 0.0
H3129 H 0.05424 0.70003 0.6169 0.0
H3130 H 0.1103 0.75008 0.56699 0.0
H3131 H 0.08799 0.73409 0.58201 0.0
C3132 C 0.97901 0.63331 0.72101 0.0
C3133 C 0.97717 0.63251 0.70319 0.0
C3134 C 0.98097 0.62317 0.72921 0.0
C3135 C 0.9931 0.59763 0.72174 0.0
H3136 H 0.97391 0.5816 0.76476 0.0
C3137 C 0.99748 0.55344 0.75637 0.0
C3138 C -0.00101 0.55494 0.77425 0.0
C3139 C 0.99425 0.56231 0.74726 0.0
C3140 C 0.97946 0.58609 0.75285 0.0
H3141 H 0.9759 0.62036 0.68 0.0
H3142 H 0.97935 0.60262 0.69439 0.0
H3143 H 0.96919 0.59807 0.74961 0.0
H3144 H -0.00142 0.56711 0.79654 0.0
H3145 H 0.99308 0.58267 0.78068 0.0
H3146 H 0.00355 0.58583 0.72509 0.0
C3147 C 0.97934 0.61117 0.70197 0.0
C3148 C 0.97674 0.5955 0.74416 0.0
C3149 C 0.9773 0.62129 0.69375 0.0
C3150 C 0.99726 0.56553 0.78281 0.0
C3151 C 0.99408 0.57443 0.77371 0.0
C3152 C 0.99588 0.58824 0.73047 0.0
C3153 C 0.98121 0.61202 0.71979 0.0
C3154 C 0.98361 0.60148 0.72858 0.0
C3155 C 0.99251 0.57292 0.75583 0.0
C3156 C 0.98918 0.58246 0.7462 0.0
H3157 H 0.97898 0.64183 0.72866 0.0
H3158 H 0.98256 0.62423 0.74293 0.0
H3159 H -0.0013 0.6022 0.70986 0.0
H3160 H -0.00144 0.54524 0.74944 0.0
H3161 H 0.99292 0.56073 0.73353 0.0
C3162 C 0.357 0.36092 0.7088 0.0
C3163 C 0.35798 0.36143 0.69088 0.0
C3164 C 0.36605 0.37327 0.71886 0.0
C3165 C 0.39136 0.39825 0.73756 0.0
H3166 H 0.40151 0.43648 0.72237 0.0
C3167 C 0.43484 0.45111 0.77137 0.0
C3168 C 0.4328 0.46292 0.77287 0.0
C3169 C 0.42554 0.43873 0.76154 0.0
C3170 C 0.39866 0.42588 0.72691 0.0
H3171 H 0.3694 0.37521 0.66946 0.0
H3172 H 0.38547 0.39665 0.68702 0.0
H3173 H 0.38554 0.41491 0.70502 0.0
H3174 H 0.41926 0.47086 0.76525 0.0
H3175 H 0.40271 0.449 0.74858 0.0
H3176 H 0.40408 0.40915 0.75972 0.0
C3177 C 0.37748 0.38681 0.69331 0.0
C3178 C 0.38967 0.41351 0.71681 0.0
C3179 C 0.36833 0.37449 0.68323 0.0
C3180 C 0.42108 0.46193 0.76449 0.0
C3181 C 0.4117 0.44947 0.75474 0.0
C3182 C 0.40026 0.4106 0.7477 0.0
C3183 C 0.37639 0.38638 0.71125 0.0
C3184 C 0.38594 0.39955 0.72199 0.0
C3185 C 0.41386 0.43774 0.75308 0.0
C3186 C 0.40408 0.42457 0.74247 0.0
H3187 H 0.34907 0.35104 0.71509 0.0
H3188 H 0.36476 0.37258 0.73261 0.0
H3189 H 0.38886 0.3877 0.74186 0.0
H3190 H 0.44362 0.4514 0.77786 0.0
H3191 H 0.42765 0.43 0.76039 0.0
C3192 C 0.63629 0.0185 0.6969 0.0
C3193 C 0.63844 0.00677 0.69562 0.0
C3194 C 0.62385 0.01665 0.70448 0.0
C3195 C 0.58683 0.98877 0.71612 0.0
H3196 H 0.59144 0.01674 0.75163 0.0
C3197 C 0.54245 0.97677 0.76509 0.0
C3198 C 0.54106 0.98838 0.77098 0.0
C3199 C 0.55373 0.97935 0.75428 0.0
C3200 C 0.58989 0.00896 0.74154 0.0
H3201 H 0.62909 0.98382 0.70083 0.0
H3202 H 0.60741 0.9806 0.71395 0.0
H3203 H 0.61221 0.02079 0.7353 0.0
H3204 H 0.54996 0.01167 0.76959 0.0
H3205 H 0.56951 0.01617 0.75045 0.0
H3206 H 0.56452 0.9769 0.72234 0.0
C3207 C 0.61531 0.9912 0.70909 0.0
C3208 C 0.60182 0.01128 0.73221 0.0
C3209 C 0.62778 0.99309 0.70168 0.0
C3210 C 0.55092 0.00256 0.76545 0.0
C3211 C 0.56213 0.00512 0.75453 0.0
C3212 C 0.57487 0.9865 0.72535 0.0
C3213 C 0.61328 0.00299 0.71072 0.0
C3214 C 0.60043 0.00111 0.71958 0.0
C3215 C 0.5638 0.99359 0.749 0.0
C3216 C 0.5763 0.99646 0.73835 0.0
H3217 H 0.64431 0.02918 0.69233 0.0
H3218 H 0.6225 0.02589 0.70548 0.0
H3219 H 0.58544 0.98085 0.7063 0.0
H3220 H 0.53506 0.96576 0.76929 0.0
H3221 H 0.55481 0.97024 0.75049 0.0
loop_
_geom_bond_atom_site_label_1
_geom_bond_atom_site_label_2
_geom_bond_distance
_geom_bond_site_symmetry_2
_ccdc_geom_bond_type
C0 O1 1.160 . S
C0 O7 1.185 . S
O1 C0 1.160 . S
O2 Zn3 1.899 1_656 S
O2 C10 1.288 . S
Zn3 O2 1.899 1_454 S
Zn3 O4 2.032 . S
Zn3 O7 2.086 . S
Zn3 O12 1.977 1_554 S
O4 Zn3 2.032 . S
O4 C8 1.278 1_455 S
C5 O6 1.203 1_455 S
C5 O12 1.267 . S
O6 C5 1.203 1_655 S
O7 C0 1.185 . S
O7 Zn3 2.086 . S
C8 O4 1.278 1_655 S
C8 O9 1.211 . S
O9 C8 1.211 . S
C10 O2 1.288 . S
C10 O11 1.264 1_556 S
O11 C10 1.264 1_554 S
O12 Zn3 1.977 1_556 S
O12 C5 1.267 . S
C13 O14 1.160 . S
C13 O20 1.185 1_556 S
O14 C13 1.160 . S
O15 Zn16 1.899 . S
O15 C23 1.284 . S
Zn16 O15 1.899 . S
Zn16 O17 2.032 1_554 S
Zn16 O20 2.086 . S
Zn16 O25 1.977 . S
O17 Zn16 2.032 1_556 S
O17 C21 1.278 . S
C18 O19 1.203 . S
C18 O25 1.267 . S
O19 C18 1.203 . S
O20 C13 1.185 1_554 S
O20 Zn16 2.086 . S
C21 O17 1.278 . S
C21 O22 1.201 1_556 S
O22 C21 1.201 1_554 S
C23 O15 1.284 . S
C23 O24 1.273 . S
O24 C23 1.273 . S
O25 Zn16 1.977 . S
O25 C18 1.267 . S
C26 O27 1.159 1_554 S
C26 O33 1.187 . S
O27 C26 1.159 1_556 S
O28 Zn29 1.916 . S
O28 C36 1.210 1_545 S
Zn29 O28 1.916 . S
Zn29 O30 2.032 1_554 S
Zn29 O33 2.086 . S
Zn29 O38 1.977 . S
O30 Zn29 2.032 1_556 S
O30 C34 1.278 . S
C31 O32 1.250 . S
C31 O38 1.267 . S
O32 C31 1.250 . S
O33 C26 1.187 . S
O33 Zn29 2.086 . S
C34 O30 1.278 . S
C34 O35 1.213 1_546 S
O35 C34 1.213 1_564 S
C36 O28 1.210 1_565 S
C36 O37 1.273 . S
O37 C36 1.273 . S
O38 Zn29 1.977 . S
O38 C31 1.267 . S
C39 O40 1.160 . S
C39 O46 1.185 1_556 S
O40 C39 1.160 . S
O41 Zn42 1.899 1_455 S
O41 C49 1.284 . S
Zn42 O41 1.899 1_655 S
Zn42 O43 2.009 1_654 S
Zn42 O46 2.086 . S
Zn42 O51 1.977 . S
O43 Zn42 2.009 1_456 S
O43 C47 1.336 . S
C44 O45 1.203 1_655 S
C44 O51 1.267 . S
O45 C44 1.203 1_455 S
O46 C39 1.185 1_554 S
O46 Zn42 2.086 . S
C47 O43 1.336 . S
C47 O48 1.211 . S
O48 C47 1.211 . S
C49 O41 1.284 . S
C49 O50 1.273 . S
O50 C49 1.273 . S
O51 Zn42 1.977 . S
O51 C44 1.267 . S
C52 O53 1.160 . S
C52 O59 1.185 . S
O53 C52 1.160 . S
O54 Zn55 1.899 1_556 S
O54 C62 1.284 . S
Zn55 O54 1.899 1_554 S
Zn55 O56 2.032 . S
Zn55 O59 2.086 . S
Zn55 O64 1.977 1_554 S
O56 Zn55 2.032 . S
O56 C60 1.278 . S
C57 O58 1.203 . S
C57 O64 1.267 . S
O58 C57 1.203 . S
O59 C52 1.185 . S
O59 Zn55 2.086 . S
C60 O56 1.278 . S
C60 O61 1.211 . S
O61 C60 1.211 . S
C62 O54 1.284 . S
C62 O63 1.273 1_556 S
O63 C62 1.273 1_554 S
O64 Zn55 1.977 1_556 S
O64 C57 1.267 . S
C65 O66 1.160 . S
C65 O72 1.185 . S
O66 C65 1.160 . S
O67 Zn68 1.899 1_546 S
O67 C75 1.299 . S
Zn68 O67 1.899 1_564 S
Zn68 O69 2.032 1_565 S
Zn68 O72 2.086 . S
Zn68 O77 1.977 1_554 S
O69 Zn68 2.032 1_545 S
O69 C73 1.278 . S
C70 O71 1.203 1_565 S
C70 O77 1.267 . S
O71 C70 1.203 1_545 S
O72 C65 1.185 . S
O72 Zn68 2.086 . S
C73 O69 1.278 . S
C73 O74 1.211 . S
O74 C73 1.211 . S
C75 O67 1.299 . S
C75 O76 1.241 1_556 S
O76 C75 1.241 1_554 S
O77 Zn68 1.977 1_556 S
O77 C70 1.267 . S
C78 O79 1.160 . S
C78 O85 1.185 . S
O79 C78 1.160 . S
O80 Zn81 1.899 . S
O80 C88 1.284 . S
Zn81 O80 1.899 . S
Zn81 O82 2.032 . S
Zn81 O85 2.086 . S
Zn81 O90 1.977 . S
O82 Zn81 2.032 . S
O82 C86 1.278 . S
C83 O84 1.203 . S
C83 O90 1.267 . S
O84 C83 1.203 . S
O85 C78 1.185 . S
O85 Zn81 2.086 . S
C86 O82 1.278 . S
C86 O87 1.211 . S
O87 C86 1.211 . S
C88 O80 1.284 . S
C88 O89 1.273 . S
O89 C88 1.273 . S
O90 Zn81 1.977 . S
O90 C83 1.267 . S
C91 O92 1.160 1_565 S
C91 O98 1.185 . S
O92 C91 1.160 1_545 S
O93 Zn94 1.899 1_545 S
O93 C101 1.284 . S
Zn94 O93 1.899 1_565 S
Zn94 O95 2.032 . S
Zn94 O98 2.086 . S
Zn94 O103 1.977 . S
O95 Zn94 2.032 . S
O95 C99 1.278 . S
C96 O97 1.203 . S
C96 O103 1.267 . S
O97 C96 1.203 . S
O98 C91 1.185 . S
O98 Zn94 2.086 . S
C99 O95 1.278 . S
C99 O100 1.211 . S
O100 C99 1.211 . S
C101 O93 1.284 . S
C101 O102 1.273 . S
O102 C101 1.273 . S
O103 Zn94 1.977 . S
O103 C96 1.267 . S
C104 O105 1.160 . S
C104 O111 1.185 . S
O105 C104 1.160 . S
O106 Zn107 1.899 . S
O106 C114 1.285 1_455 S
Zn107 O106 1.899 . S
Zn107 O108 2.032 . S
Zn107 O111 2.086 . S
Zn107 O116 1.977 . S
O108 Zn107 2.032 . S
O108 C112 1.278 . S
C109 O110 1.203 . S
C109 O116 1.267 . S
O110 C109 1.203 . S
O111 C104 1.185 . S
O111 Zn107 2.086 . S
C112 O108 1.278 . S
C112 O113 1.211 . S
O113 C112 1.211 . S
C114 O106 1.285 1_655 S
C114 O115 1.261 1_655 S
O115 C114 1.261 1_455 S
O116 Zn107 1.977 . S
O116 C109 1.267 . S
C117 O118 1.137 1_565 S
C117 O124 1.185 . S
O118 C117 1.137 1_545 S
O119 Zn120 1.899 1_545 S
O119 C127 1.284 . S
Zn120 O119 1.899 1_565 S
Zn120 O121 2.032 . S
Zn120 O124 2.086 . S
Zn120 O129 1.977 . S
O121 Zn120 2.032 . S
O121 C125 1.278 . S
C122 O123 1.203 . S
C122 O129 1.267 . S
O123 C122 1.203 . S
O124 C117 1.185 . S
O124 Zn120 2.086 . S
C125 O121 1.278 . S
C125 O126 1.211 . S
O126 C125 1.211 . S
C127 O119 1.284 . S
C127 O128 1.273 . S
O128 C127 1.273 . S
O129 Zn120 1.977 . S
O129 C122 1.267 . S
C130 O131 1.160 . S
C130 O137 1.185 . S
O131 C130 1.160 . S
O132 Zn133 1.899 . S
O132 C140 1.284 . S
Zn133 O132 1.899 . S
Zn133 O134 2.032 . S
Zn133 O137 2.086 1_455 S
Zn133 O142 1.977 . S
O134 Zn133 2.032 . S
O134 C138 1.278 . S
C135 O136 1.203 . S
C135 O142 1.267 . S
O136 C135 1.203 . S
O137 C130 1.185 . S
O137 Zn133 2.086 1_655 S
C138 O134 1.278 . S
C138 O139 1.211 . S
O139 C138 1.211 . S
C140 O132 1.284 . S
C140 O141 1.273 . S
O141 C140 1.273 . S
O142 Zn133 1.977 . S
O142 C135 1.267 . S
C143 O144 1.160 . S
C143 O150 1.185 . S
O144 C143 1.160 . S
O145 Zn146 1.899 . S
O145 C153 1.284 . S
Zn146 O145 1.899 . S
Zn146 O147 2.032 . S
Zn146 O150 2.086 . S
Zn146 O155 1.977 . S
O147 Zn146 2.032 . S
O147 C151 1.278 . S
C148 O149 1.203 . S
C148 O155 1.267 . S
O149 C148 1.203 . S
O150 C143 1.185 . S
O150 Zn146 2.086 . S
C151 O147 1.278 . S
C151 O152 1.211 . S
O152 C151 1.211 . S
C153 O145 1.284 . S
C153 O154 1.273 . S
O154 C153 1.273 . S
O155 Zn146 1.977 . S
O155 C148 1.267 . S
C156 O157 1.160 . S
C156 O163 1.185 . S
O157 C156 1.160 . S
O158 Zn159 1.899 . S
O158 C166 1.284 1_545 S
Zn159 O158 1.899 . S
Zn159 O160 2.032 . S
Zn159 O163 2.086 . S
Zn159 O168 1.977 . S
O160 Zn159 2.032 . S
O160 C164 1.278 . S
C161 O162 1.203 . S
C161 O168 1.267 . S
O162 C161 1.203 . S
O163 C156 1.185 . S
O163 Zn159 2.086 . S
C164 O160 1.278 . S
C164 O165 1.211 . S
O165 C164 1.211 . S
C166 O158 1.284 1_565 S
C166 O167 1.273 1_565 S
O167 C166 1.273 1_545 S
O168 Zn159 1.977 . S
O168 C161 1.267 . S
C169 O170 1.160 . S
C169 O176 1.185 . S
O170 C169 1.160 . S
O171 Zn172 1.899 . S
O171 C179 1.284 . S
Zn172 O171 1.899 . S
Zn172 O173 2.032 . S
Zn172 O176 2.086 1_655 S
Zn172 O181 1.977 . S
O173 Zn172 2.032 . S
O173 C177 1.278 . S
C174 O175 1.203 . S
C174 O181 1.267 . S
O175 C174 1.203 . S
O176 C169 1.185 . S
O176 Zn172 2.086 1_455 S
C177 O173 1.278 . S
C177 O178 1.211 . S
O178 C177 1.211 . S
C179 O171 1.284 . S
C179 O180 1.273 . S
O180 C179 1.273 . S
O181 Zn172 1.977 . S
O181 C174 1.267 . S
C182 O183 1.160 . S
C182 O189 1.185 . S
O183 C182 1.160 . S
O184 Zn185 1.899 . S
O184 C192 1.284 . S
Zn185 O184 1.899 . S
Zn185 O186 2.032 . S
Zn185 O189 2.086 . S
Zn185 O194 1.977 . S
O186 Zn185 2.032 . S
O186 C190 1.278 . S
C187 O188 1.203 . S
C187 O194 1.267 . S
O188 C187 1.203 . S
O189 C182 1.185 . S
O189 Zn185 2.086 . S
C190 O186 1.278 . S
C190 O191 1.211 . S
O191 C190 1.211 . S
C192 O184 1.284 . S
C192 O193 1.273 . S
O193 C192 1.273 . S
O194 Zn185 1.977 . S
O194 C187 1.267 . S
C195 O196 1.160 . S
C195 O202 1.185 . S
O196 C195 1.160 . S
O197 Zn198 1.899 . S
O197 C205 1.284 . S
Zn198 O197 1.899 . S
Zn198 O199 2.032 . S
Zn198 O202 2.086 . S
Zn198 O207 1.977 . S
O199 Zn198 2.032 . S
O199 C203 1.278 . S
C200 O201 1.203 . S
C200 O207 1.267 . S
O201 C200 1.203 . S
O202 C195 1.185 . S
O202 Zn198 2.086 . S
C203 O199 1.278 . S
C203 O204 1.211 . S
O204 C203 1.211 . S
C205 O197 1.284 . S
C205 O206 1.273 . S
O206 C205 1.273 . S
O207 Zn198 1.977 . S
O207 C200 1.267 . S
C208 O209 1.160 . S
C208 O215 1.185 . S
O209 C208 1.160 . S
O210 Zn211 1.899 . S
O210 C218 1.284 1_545 S
Zn211 O210 1.899 . S
Zn211 O212 2.032 . S
Zn211 O215 2.086 . S
Zn211 O220 1.977 . S
O212 Zn211 2.032 . S
O212 C216 1.278 . S
C213 O214 1.203 . S
C213 O220 1.267 . S
O214 C213 1.203 . S
O215 C208 1.185 . S
O215 Zn211 2.086 . S
C216 O212 1.278 . S
C216 O217 1.211 . S
O217 C216 1.211 . S
C218 O210 1.284 1_565 S
C218 O219 1.273 1_565 S
O219 C218 1.273 1_545 S
O220 Zn211 1.977 . S
O220 C213 1.267 . S
C221 O222 1.160 . S
C221 O228 1.185 . S
O222 C221 1.160 . S
O223 Zn224 1.899 . S
O223 C231 1.284 1_655 S
Zn224 O223 1.899 . S
Zn224 O225 2.032 . S
Zn224 O228 2.086 . S
Zn224 O233 1.977 . S
O225 Zn224 2.032 . S
O225 C229 1.278 . S
C226 O227 1.203 . S
C226 O233 1.267 . S
O227 C226 1.203 . S
O228 C221 1.185 . S
O228 Zn224 2.086 . S
C229 O225 1.278 . S
C229 O230 1.211 . S
O230 C229 1.211 . S
C231 O223 1.284 1_455 S
C231 O232 1.273 1_455 S
O232 C231 1.273 1_655 S
O233 Zn224 1.977 . S
O233 C226 1.267 . S
C234 C235 1.384 . S
C234 C236 1.384 . S
C234 H262 0.931 . S
C235 C234 1.384 . S
C235 C238 1.382 . S
C236 C234 1.384 . S
C236 C237 1.381 . S
C236 H263 0.930 . S
C237 C236 1.381 . S
C237 C239 1.381 . S
C237 C240 1.487 . S
C238 C235 1.382 . S
C238 C239 1.387 . S
C238 H264 0.930 . S
C239 C237 1.381 . S
C239 C238 1.387 . S
C239 H265 0.931 . S
C240 C237 1.487 . S
C240 C247 1.399 . S
C240 N278 1.343 . S
C241 C242 1.384 . S
C241 C243 1.384 . S
C241 H266 0.931 . S
C242 C241 1.384 . S
C242 C245 1.382 . S
C243 C241 1.384 . S
C243 C244 1.381 . S
C243 H267 0.930 . S
C244 C243 1.381 . S
C244 C246 1.381 . S
C244 C247 1.487 . S
C245 C242 1.382 . S
C245 C246 1.387 . S
C245 H268 0.930 . S
C246 C244 1.381 . S
C246 C245 1.387 . S
C246 H269 0.931 . S
C247 C240 1.399 . S
C247 C244 1.487 . S
C247 N279 1.343 . S
C248 C249 1.384 . S
C248 C250 1.384 . S
C248 H270 0.931 . S
C249 C248 1.384 . S
C249 C252 1.382 . S
C250 C248 1.384 . S
C250 C251 1.381 . S
C250 H271 0.930 . S
C251 C250 1.381 . S
C251 C253 1.381 . S
C251 C254 1.487 . S
C252 C249 1.382 . S
C252 C253 1.387 . S
C252 H272 0.930 . S
C253 C251 1.381 . S
C253 C252 1.387 . S
C253 H273 0.931 . S
C254 C251 1.487 . S
C254 C261 1.399 . S
C254 N279 1.343 . S
C255 C256 1.384 . S
C255 C257 1.384 . S
C255 H274 0.931 . S
C256 C255 1.384 . S
C256 C259 1.382 . S
C257 C255 1.384 . S
C257 C258 1.381 . S
C257 H275 0.930 . S
C258 C257 1.381 . S
C258 C260 1.381 . S
C258 C261 1.487 . S
C259 C256 1.382 . S
C259 C260 1.387 . S
C259 H276 0.930 . S
C260 C258 1.381 . S
C260 C259 1.387 . S
C260 H277 0.931 . S
C261 C254 1.399 . S
C261 C258 1.487 . S
C261 N278 1.343 . S
H262 C234 0.931 . S
H263 C236 0.930 . S
H264 C238 0.930 . S
H265 C239 0.931 . S
H266 C241 0.931 . S
H267 C243 0.930 . S
H268 C245 0.930 . S
H269 C246 0.931 . S
H270 C248 0.931 . S
H271 C250 0.930 . S
H272 C252 0.930 . S
H273 C253 0.931 . S
H274 C255 0.931 . S
H275 C257 0.930 . S
H276 C259 0.930 . S
H277 C260 0.931 . S
N278 C240 1.343 . S
N278 C261 1.343 . S
N279 C247 1.343 . S
N279 C254 1.343 . S
C280 C281 1.384 . S
C280 C282 1.384 . S
C280 H308 0.931 . S
C281 C280 1.384 . S
C281 C284 1.382 . S
C282 C280 1.384 . S
C282 C283 1.381 . S
C282 H309 0.930 . S
C283 C282 1.381 . S
C283 C285 1.381 . S
C283 C286 1.487 . S
C284 C281 1.382 . S
C284 C285 1.387 . S
C284 H310 0.930 . S
C285 C283 1.381 . S
C285 C284 1.387 . S
C285 H311 0.931 . S
C286 C283 1.487 . S
C286 C293 1.399 . S
C286 N324 1.343 . S
C287 C288 1.384 . S
C287 C289 1.384 . S
C287 H312 0.931 . S
C288 C287 1.384 . S
C288 C291 1.382 . S
C289 C287 1.384 . S
C289 C290 1.381 . S
C289 H313 0.930 . S
C290 C289 1.381 . S
C290 C292 1.381 . S
C290 C293 1.487 . S
C291 C288 1.382 . S
C291 C292 1.387 . S
C291 H314 0.930 . S
C292 C290 1.381 . S
C292 C291 1.387 . S
C292 H315 0.931 . S
C293 C286 1.399 . S
C293 C290 1.487 . S
C293 N325 1.343 . S
C294 C295 1.384 . S
C294 C296 1.384 . S
C294 H316 0.931 . S
C295 C294 1.384 . S
C295 C298 1.382 . S
C296 C294 1.384 . S
C296 C297 1.381 . S
C296 H317 0.930 . S
C297 C296 1.381 . S
C297 C299 1.381 . S
C297 C300 1.487 . S
C298 C295 1.382 . S
C298 C299 1.387 . S
C298 H318 0.930 . S
C299 C297 1.381 . S
C299 C298 1.387 . S
C299 H319 0.931 . S
C300 C297 1.487 . S
C300 C307 1.399 . S
C300 N325 1.343 . S
C301 C302 1.384 . S
C301 C303 1.384 . S
C301 H320 0.931 . S
C302 C301 1.384 . S
C302 C305 1.382 . S
C303 C301 1.384 . S
C303 C304 1.381 . S
C303 H321 0.930 . S
C304 C303 1.381 . S
C304 C306 1.381 . S
C304 C307 1.487 . S
C305 C302 1.382 . S
C305 C306 1.387 . S
C305 H322 0.930 . S
C306 C304 1.381 . S
C306 C305 1.387 . S
C306 H323 0.931 . S
C307 C300 1.399 . S
C307 C304 1.487 . S
C307 N324 1.343 . S
H308 C280 0.931 . S
H309 C282 0.930 . S
H310 C284 0.930 . S
H311 C285 0.931 . S
H312 C287 0.931 . S
H313 C289 0.930 . S
H314 C291 0.930 . S
H315 C292 0.931 . S
H316 C294 0.931 . S
H317 C296 0.930 . S
H318 C298 0.930 . S
H319 C299 0.931 . S
H320 C301 0.931 . S
H321 C303 0.930 . S
H322 C305 0.930 . S
H323 C306 0.931 . S
N324 C286 1.343 . S
N324 C307 1.343 . S
N325 C293 1.343 . S
N325 C300 1.343 . S
C326 C327 1.384 . S
C326 C328 1.384 . S
C326 H354 0.931 . S
C327 C326 1.384 . S
C327 C330 1.382 . S
C328 C326 1.384 . S
C328 C329 1.381 . S
C328 H355 0.930 . S
C329 C328 1.381 . S
C329 C331 1.381 . S
C329 C332 1.487 . S
C330 C327 1.382 . S
C330 C331 1.387 . S
C330 H356 0.930 . S
C331 C329 1.381 . S
C331 C330 1.387 . S
C331 H357 0.931 . S
C332 C329 1.487 . S
C332 C339 1.399 . S
C332 N370 1.343 . S
C333 C334 1.384 . S
C333 C335 1.384 . S
C333 H358 0.931 . S
C334 C333 1.384 . S
C334 C337 1.382 . S
C335 C333 1.384 . S
C335 C336 1.381 . S
C335 H359 0.930 . S
C336 C335 1.381 . S
C336 C338 1.381 . S
C336 C339 1.487 . S
C337 C334 1.382 . S
C337 C338 1.387 . S
C337 H360 0.930 . S
C338 C336 1.381 . S
C338 C337 1.387 . S
C338 H361 0.931 . S
C339 C332 1.399 . S
C339 C336 1.487 . S
C339 N371 1.343 . S
C340 C341 1.384 . S
C340 C342 1.384 . S
C340 H362 0.931 . S
C341 C340 1.384 . S
C341 C344 1.382 . S
C342 C340 1.384 . S
C342 C343 1.381 . S
C342 H363 0.930 . S
C343 C342 1.381 . S
C343 C345 1.381 . S
C343 C346 1.487 . S
C344 C341 1.382 . S
C344 C345 1.387 . S
C344 H364 0.930 . S
C345 C343 1.381 . S
C345 C344 1.387 . S
C345 H365 0.931 . S
C346 C343 1.487 . S
C346 C353 1.399 . S
C346 N371 1.343 . S
C347 C348 1.384 . S
C347 C349 1.384 . S
C347 H366 0.931 . S
C348 C347 1.384 . S
C348 C351 1.382 . S
C349 C347 1.384 . S
C349 C350 1.381 . S
C349 H367 0.930 . S
C350 C349 1.381 . S
C350 C352 1.381 . S
C350 C353 1.487 . S
C351 C348 1.382 . S
C351 C352 1.387 . S
C351 H368 0.930 . S
C352 C350 1.381 . S
C352 C351 1.387 . S
C352 H369 0.931 . S
C353 C346 1.399 . S
C353 C350 1.487 . S
C353 N370 1.343 . S
H354 C326 0.931 . S
H355 C328 0.930 . S
H356 C330 0.930 . S
H357 C331 0.931 . S
H358 C333 0.931 . S
H359 C335 0.930 . S
H360 C337 0.930 . S
H361 C338 0.931 . S
H362 C340 0.931 . S
H363 C342 0.930 . S
H364 C344 0.930 . S
H365 C345 0.931 . S
H366 C347 0.931 . S
H367 C349 0.930 . S
H368 C351 0.930 . S
H369 C352 0.931 . S
N370 C332 1.343 . S
N370 C353 1.343 . S
N371 C339 1.343 . S
N371 C346 1.343 . S
C372 C373 1.384 . S
C372 C374 1.384 . S
C372 H400 0.931 . S
C373 C372 1.384 . S
C373 C376 1.382 . S
C374 C372 1.384 . S
C374 C375 1.381 . S
C374 H401 0.930 . S
C375 C374 1.381 . S
C375 C377 1.381 . S
C375 C378 1.487 . S
C376 C373 1.382 . S
C376 C377 1.387 . S
C376 H402 0.930 . S
C377 C375 1.381 . S
C377 C376 1.387 . S
C377 H403 0.931 . S
C378 C375 1.487 . S
C378 C385 1.399 . S
C378 N416 1.343 . S
C379 C380 1.384 . S
C379 C381 1.384 . S
C379 H404 0.931 . S
C380 C379 1.384 . S
C380 C383 1.382 . S
C381 C379 1.384 . S
C381 C382 1.381 . S
C381 H405 0.930 . S
C382 C381 1.381 . S
C382 C384 1.381 . S
C382 C385 1.487 . S
C383 C380 1.382 . S
C383 C384 1.387 . S
C383 H406 0.930 . S
C384 C382 1.381 . S
C384 C383 1.387 . S
C384 H407 0.931 . S
C385 C378 1.399 . S
C385 C382 1.487 . S
C385 N417 1.343 . S
C386 C387 1.384 . S
C386 C388 1.384 . S
C386 H408 0.931 . S
C387 C386 1.384 . S
C387 C390 1.382 . S
C388 C386 1.384 . S
C388 C389 1.381 . S
C388 H409 0.930 . S
C389 C388 1.381 . S
C389 C391 1.381 . S
C389 C392 1.487 . S
C390 C387 1.382 . S
C390 C391 1.387 . S
C390 H410 0.930 . S
C391 C389 1.381 . S
C391 C390 1.387 . S
C391 H411 0.931 . S
C392 C389 1.487 . S
C392 C399 1.399 . S
C392 N417 1.343 . S
C393 C394 1.384 . S
C393 C395 1.384 . S
C393 H412 0.931 . S
C394 C393 1.384 . S
C394 C397 1.382 . S
C395 C393 1.384 . S
C395 C396 1.381 . S
C395 H413 0.930 . S
C396 C395 1.381 . S
C396 C398 1.381 . S
C396 C399 1.487 . S
C397 C394 1.382 . S
C397 C398 1.387 . S
C397 H414 0.930 . S
C398 C396 1.381 . S
C398 C397 1.387 . S
C398 H415 0.931 . S
C399 C392 1.399 . S
C399 C396 1.487 . S
C399 N416 1.343 . S
H400 C372 0.931 . S
H401 C374 0.930 . S
H402 C376 0.930 . S
H403 C377 0.931 . S
H404 C379 0.931 . S
H405 C381 0.930 . S
H406 C383 0.930 . S
H407 C384 0.931 . S
H408 C386 0.931 . S
H409 C388 0.930 . S
H410 C390 0.930 . S
H411 C391 0.931 . S
H412 C393 0.931 . S
H413 C395 0.930 . S
H414 C397 0.930 . S
H415 C398 0.931 . S
N416 C378 1.343 . S
N416 C399 1.343 . S
N417 C385 1.343 . S
N417 C392 1.343 . S
C418 C419 1.384 . S
C418 C420 1.384 . S
C418 H446 0.931 . S
C419 C418 1.384 . S
C419 C422 1.382 . S
C420 C418 1.384 . S
C420 C421 1.381 . S
C420 H447 0.930 . S
C421 C420 1.381 . S
C421 C423 1.381 . S
C421 C424 1.487 . S
C422 C419 1.382 . S
C422 C423 1.387 . S
C422 H448 0.930 . S
C423 C421 1.381 . S
C423 C422 1.387 . S
C423 H449 0.931 . S
C424 C421 1.487 . S
C424 C431 1.399 . S
C424 N462 1.343 . S
C425 C426 1.384 . S
C425 C427 1.384 . S
C425 H450 0.931 . S
C426 C425 1.384 . S
C426 C429 1.382 . S
C427 C425 1.384 . S
C427 C428 1.381 . S
C427 H451 0.930 . S
C428 C427 1.381 . S
C428 C430 1.381 . S
C428 C431 1.487 . S
C429 C426 1.382 . S
C429 C430 1.387 . S
C429 H452 0.930 . S
C430 C428 1.381 . S
C430 C429 1.387 . S
C430 H453 0.931 . S
C431 C424 1.399 . S
C431 C428 1.487 . S
C431 N463 1.343 . S
C432 C433 1.384 . S
C432 C434 1.384 . S
C432 H454 0.931 . S
C433 C432 1.384 . S
C433 C436 1.382 . S
C434 C432 1.384 . S
C434 C435 1.381 . S
C434 H455 0.930 . S
C435 C434 1.381 . S
C435 C437 1.381 . S
C435 C438 1.487 . S
C436 C433 1.382 . S
C436 C437 1.387 . S
C436 H456 0.930 . S
C437 C435 1.381 . S
C437 C436 1.387 . S
C437 H457 0.931 . S
C438 C435 1.487 . S
C438 C445 1.399 . S
C438 N463 1.343 . S
C439 C440 1.384 . S
C439 C441 1.384 . S
C439 H458 0.931 . S
C440 C439 1.384 . S
C440 C443 1.382 . S
C441 C439 1.384 . S
C441 C442 1.381 . S
C441 H459 0.930 . S
C442 C441 1.381 . S
C442 C444 1.381 . S
C442 C445 1.487 . S
C443 C440 1.382 . S
C443 C444 1.387 . S
C443 H460 0.930 . S
C444 C442 1.381 . S
C444 C443 1.387 . S
C444 H461 0.931 . S
C445 C438 1.399 . S
C445 C442 1.487 . S
C445 N462 1.343 . S
H446 C418 0.931 . S
H447 C420 0.930 . S
H448 C422 0.930 . S
H449 C423 0.931 . S
H450 C425 0.931 . S
H451 C427 0.930 . S
H452 C429 0.930 . S
H453 C430 0.931 . S
H454 C432 0.931 . S
H455 C434 0.930 . S
H456 C436 0.930 . S
H457 C437 0.931 . S
H458 C439 0.931 . S
H459 C441 0.930 . S
H460 C443 0.930 . S
H461 C444 0.931 . S
N462 C424 1.343 . S
N462 C445 1.343 . S
N463 C431 1.343 . S
N463 C438 1.343 . S
C464 C465 1.384 . S
C464 C466 1.384 . S
C464 H492 0.931 . S
C465 C464 1.384 . S
C465 C468 1.382 . S
C466 C464 1.384 . S
C466 C467 1.381 . S
C466 H493 0.930 . S
C467 C466 1.381 . S
C467 C469 1.381 . S
C467 C470 1.487 . S
C468 C465 1.382 . S
C468 C469 1.387 . S
C468 H494 0.930 . S
C469 C467 1.381 . S
C469 C468 1.387 . S
C469 H495 0.931 . S
C470 C467 1.487 . S
C470 C477 1.399 . S
C470 N508 1.343 . S
C471 C472 1.384 . S
C471 C473 1.384 . S
C471 H496 0.931 . S
C472 C471 1.384 . S
C472 C475 1.382 . S
C473 C471 1.384 . S
C473 C474 1.381 . S
C473 H497 0.930 . S
C474 C473 1.381 . S
C474 C476 1.381 . S
C474 C477 1.487 . S
C475 C472 1.382 . S
C475 C476 1.387 . S
C475 H498 0.930 . S
C476 C474 1.381 . S
C476 C475 1.387 . S
C476 H499 0.931 . S
C477 C470 1.399 . S
C477 C474 1.487 . S
C477 N509 1.343 . S
C478 C479 1.384 . S
C478 C480 1.384 . S
C478 H500 0.931 . S
C479 C478 1.384 . S
C479 C482 1.382 . S
C480 C478 1.384 . S
C480 C481 1.381 . S
C480 H501 0.930 . S
C481 C480 1.381 . S
C481 C483 1.381 . S
C481 C484 1.487 . S
C482 C479 1.382 . S
C482 C483 1.387 . S
C482 H502 0.930 . S
C483 C481 1.381 . S
C483 C482 1.387 . S
C483 H503 0.931 . S
C484 C481 1.487 . S
C484 C491 1.399 . S
C484 N509 1.343 . S
C485 C486 1.384 . S
C485 C487 1.384 . S
C485 H504 0.931 . S
C486 C485 1.384 . S
C486 C489 1.382 . S
C487 C485 1.384 . S
C487 C488 1.381 . S
C487 H505 0.930 . S
C488 C487 1.381 . S
C488 C490 1.381 . S
C488 C491 1.487 . S
C489 C486 1.382 . S
C489 C490 1.387 . S
C489 H506 0.930 . S
C490 C488 1.381 . S
C490 C489 1.387 . S
C490 H507 0.931 . S
C491 C484 1.399 . S
C491 C488 1.487 . S
C491 N508 1.343 . S
H492 C464 0.931 . S
H493 C466 0.930 . S
H494 C468 0.930 . S
H495 C469 0.931 . S
H496 C471 0.931 . S
H497 C473 0.930 . S
H498 C475 0.930 . S
H499 C476 0.931 . S
H500 C478 0.931 . S
H501 C480 0.930 . S
H502 C482 0.930 . S
H503 C483 0.931 . S
H504 C485 0.931 . S
H505 C487 0.930 . S
H506 C489 0.930 . S
H507 C490 0.931 . S
N508 C470 1.343 . S
N508 C491 1.343 . S
N509 C477 1.343 . S
N509 C484 1.343 . S
C510 C511 1.384 . S
C510 C512 1.384 . S
C510 H538 0.931 . S
C511 C510 1.384 . S
C511 C514 1.382 . S
C512 C510 1.384 . S
C512 C513 1.381 . S
C512 H539 0.930 . S
C513 C512 1.381 . S
C513 C515 1.381 . S
C513 C516 1.487 . S
C514 C511 1.382 . S
C514 C515 1.387 . S
C514 H540 0.930 . S
C515 C513 1.381 . S
C515 C514 1.387 . S
C515 H541 0.931 . S
C516 C513 1.487 . S
C516 C523 1.399 . S
C516 N554 1.343 . S
C517 C518 1.384 . S
C517 C519 1.384 . S
C517 H542 0.931 . S
C518 C517 1.384 . S
C518 C521 1.382 . S
C519 C517 1.384 . S
C519 C520 1.381 . S
C519 H543 0.930 . S
C520 C519 1.381 . S
C520 C522 1.381 . S
C520 C523 1.487 . S
C521 C518 1.382 . S
C521 C522 1.387 . S
C521 H544 0.930 . S
C522 C520 1.381 . S
C522 C521 1.387 . S
C522 H545 0.931 . S
C523 C516 1.399 . S
C523 C520 1.487 . S
C523 N555 1.343 . S
C524 C525 1.384 . S
C524 C526 1.384 . S
C524 H546 0.931 . S
C525 C524 1.384 . S
C525 C528 1.382 . S
C526 C524 1.384 . S
C526 C527 1.381 . S
C526 H547 0.930 . S
C527 C526 1.381 . S
C527 C529 1.381 . S
C527 C530 1.487 . S
C528 C525 1.382 . S
C528 C529 1.387 . S
C528 H548 0.930 . S
C529 C527 1.381 . S
C529 C528 1.387 . S
C529 H549 0.931 . S
C530 C527 1.487 . S
C530 C537 1.399 . S
C530 N555 1.343 . S
C531 C532 1.384 . S
C531 C533 1.384 . S
C531 H550 0.931 . S
C532 C531 1.384 . S
C532 C535 1.382 . S
C533 C531 1.384 . S
C533 C534 1.381 . S
C533 H551 0.930 . S
C534 C533 1.381 . S
C534 C536 1.381 . S
C534 C537 1.487 . S
C535 C532 1.382 . S
C535 C536 1.387 . S
C535 H552 0.930 . S
C536 C534 1.381 . S
C536 C535 1.387 . S
C536 H553 0.931 . S
C537 C530 1.399 . S
C537 C534 1.487 . S
C537 N554 1.343 . S
H538 C510 0.931 . S
H539 C512 0.930 . S
H540 C514 0.930 . S
H541 C515 0.931 . S
H542 C517 0.931 . S
H543 C519 0.930 . S
H544 C521 0.930 . S
H545 C522 0.931 . S
H546 C524 0.931 . S
H547 C526 0.930 . S
H548 C528 0.930 . S
H549 C529 0.931 . S
H550 C531 0.931 . S
H551 C533 0.930 . S
H552 C535 0.930 . S
H553 C536 0.931 . S
N554 C516 1.343 . S
N554 C537 1.343 . S
N555 C523 1.343 . S
N555 C530 1.343 . S
C556 C557 1.384 . S
C556 C558 1.384 . S
C556 H584 0.931 . S
C557 C556 1.384 . S
C557 C560 1.382 . S
C558 C556 1.384 . S
C558 C559 1.381 . S
C558 H585 0.930 . S
C559 C558 1.381 . S
C559 C561 1.381 . S
C559 C562 1.487 . S
C560 C557 1.382 . S
C560 C561 1.387 . S
C560 H586 0.930 . S
C561 C559 1.381 . S
C561 C560 1.387 . S
C561 H587 0.931 . S
C562 C559 1.487 . S
C562 C569 1.399 . S
C562 N600 1.343 . S
C563 C564 1.384 . S
C563 C565 1.384 . S
C563 H588 0.931 . S
C564 C563 1.384 . S
C564 C567 1.382 . S
C565 C563 1.384 . S
C565 C566 1.381 . S
C565 H589 0.930 . S
C566 C565 1.381 . S
C566 C568 1.381 . S
C566 C569 1.487 . S
C567 C564 1.382 . S
C567 C568 1.387 . S
C567 H590 0.930 . S
C568 C566 1.381 . S
C568 C567 1.387 . S
C568 H591 0.931 . S
C569 C562 1.399 . S
C569 C566 1.487 . S
C569 N601 1.343 . S
C570 C571 1.384 . S
C570 C572 1.384 . S
C570 H592 0.931 . S
C571 C570 1.384 . S
C571 C574 1.382 . S
C572 C570 1.384 . S
C572 C573 1.381 . S
C572 H593 0.930 . S
C573 C572 1.381 . S
C573 C575 1.381 . S
C573 C576 1.487 . S
C574 C571 1.382 . S
C574 C575 1.387 . S
C574 H594 0.930 . S
C575 C573 1.381 . S
C575 C574 1.387 . S
C575 H595 0.931 . S
C576 C573 1.487 . S
C576 C583 1.399 . S
C576 N601 1.343 . S
C577 C578 1.384 . S
C577 C579 1.384 . S
C577 H596 0.931 . S
C578 C577 1.384 . S
C578 C581 1.382 . S
C579 C577 1.384 . S
C579 C580 1.381 . S
C579 H597 0.930 . S
C580 C579 1.381 . S
C580 C582 1.381 . S
C580 C583 1.487 . S
C581 C578 1.382 . S
C581 C582 1.387 . S
C581 H598 0.930 . S
C582 C580 1.381 . S
C582 C581 1.387 . S
C582 H599 0.931 . S
C583 C576 1.399 . S
C583 C580 1.487 . S
C583 N600 1.343 . S
H584 C556 0.931 . S
H585 C558 0.930 . S
H586 C560 0.930 . S
H587 C561 0.931 . S
H588 C563 0.931 . S
H589 C565 0.930 . S
H590 C567 0.930 . S
H591 C568 0.931 . S
H592 C570 0.931 . S
H593 C572 0.930 . S
H594 C574 0.930 . S
H595 C575 0.931 . S
H596 C577 0.931 . S
H597 C579 0.930 . S
H598 C581 0.930 . S
H599 C582 0.931 . S
N600 C562 1.343 . S
N600 C583 1.343 . S
N601 C569 1.343 . S
N601 C576 1.343 . S
C602 C603 1.384 . S
C602 C604 1.384 . S
C602 H630 0.931 . S
C603 C602 1.384 . S
C603 C606 1.382 . S
C604 C602 1.384 . S
C604 C605 1.381 . S
C604 H631 0.930 . S
C605 C604 1.381 . S
C605 C607 1.381 . S
C605 C608 1.487 . S
C606 C603 1.382 . S
C606 C607 1.387 . S
C606 H632 0.930 . S
C607 C605 1.381 . S
C607 C606 1.387 . S
C607 H633 0.931 . S
C608 C605 1.487 . S
C608 C615 1.399 . S
C608 N646 1.343 . S
C609 C610 1.384 . S
C609 C611 1.384 . S
C609 H634 0.931 . S
C610 C609 1.384 . S
C610 C613 1.382 . S
C611 C609 1.384 . S
C611 C612 1.381 . S
C611 H635 0.930 . S
C612 C611 1.381 . S
C612 C614 1.381 . S
C612 C615 1.487 . S
C613 C610 1.382 . S
C613 C614 1.387 . S
C613 H636 0.930 . S
C614 C612 1.381 . S
C614 C613 1.387 . S
C614 H637 0.931 . S
C615 C608 1.399 . S
C615 C612 1.487 . S
C615 N647 1.343 . S
C616 C617 1.384 . S
C616 C618 1.384 . S
C616 H638 0.931 . S
C617 C616 1.384 . S
C617 C620 1.382 . S
C618 C616 1.384 . S
C618 C619 1.381 . S
C618 H639 0.930 . S
C619 C618 1.381 . S
C619 C621 1.381 . S
C619 C622 1.487 . S
C620 C617 1.382 . S
C620 C621 1.387 . S
C620 H640 0.930 . S
C621 C619 1.381 . S
C621 C620 1.387 . S
C621 H641 0.931 . S
C622 C619 1.487 . S
C622 C629 1.399 . S
C622 N647 1.343 . S
C623 C624 1.384 . S
C623 C625 1.384 . S
C623 H642 0.931 . S
C624 C623 1.384 . S
C624 C627 1.382 . S
C625 C623 1.384 . S
C625 C626 1.381 . S
C625 H643 0.930 . S
C626 C625 1.381 . S
C626 C628 1.381 . S
C626 C629 1.487 . S
C627 C624 1.382 . S
C627 C628 1.387 . S
C627 H644 0.930 . S
C628 C626 1.381 . S
C628 C627 1.387 . S
C628 H645 0.931 . S
C629 C622 1.399 . S
C629 C626 1.487 . S
C629 N646 1.343 . S
H630 C602 0.931 . S
H631 C604 0.930 . S
H632 C606 0.930 . S
H633 C607 0.931 . S
H634 C609 0.931 . S
H635 C611 0.930 . S
H636 C613 0.930 . S
H637 C614 0.931 . S
H638 C616 0.931 . S
H639 C618 0.930 . S
H640 C620 0.930 . S
H641 C621 0.931 . S
H642 C623 0.931 . S
H643 C625 0.930 . S
H644 C627 0.930 . S
H645 C628 0.931 . S
N646 C608 1.343 . S
N646 C629 1.343 . S
N647 C615 1.343 . S
N647 C622 1.343 . S
C648 C649 1.384 . S
C648 C650 1.384 . S
C648 H676 0.931 . S
C649 C648 1.384 . S
C649 C652 1.382 1_655 S
C650 C648 1.384 . S
C650 C651 1.425 . S
C650 H677 0.930 . S
C651 C650 1.425 . S
C651 C653 1.360 1_655 S
C651 C654 1.468 1_655 S
C652 C649 1.382 1_455 S
C652 C653 1.387 . S
C652 H678 0.930 . S
C653 C651 1.360 1_455 S
C653 C652 1.387 . S
C653 H679 0.931 . S
C654 C651 1.468 1_455 S
C654 C661 1.399 1_455 S
C654 N692 1.304 . S
C655 C656 1.430 . S
C655 C657 1.384 . S
C655 H680 0.931 . S
C656 C655 1.430 . S
C656 C659 1.371 1_455 S
C657 C655 1.384 . S
C657 C658 1.379 1_455 S
C657 H681 0.930 . S
C658 C657 1.379 1_655 S
C658 C660 1.390 . S
C658 C661 1.491 . S
C659 C656 1.371 1_655 S
C659 C660 1.387 . S
C659 H682 0.930 . S
C660 C658 1.390 . S
C660 C659 1.387 . S
C660 H683 0.931 . S
C661 C654 1.399 1_655 S
C661 C658 1.491 . S
C661 N693 1.357 . S
C662 C663 1.384 . S
C662 C664 1.384 . S
C662 H684 0.931 . S
C663 C662 1.384 . S
C663 C666 1.382 1_455 S
C664 C662 1.384 . S
C664 C665 1.446 . S
C664 H685 0.930 . S
C665 C664 1.446 . S
C665 C667 1.350 1_455 S
C665 C668 1.459 . S
C666 C663 1.382 1_655 S
C666 C667 1.387 . S
C666 H686 0.930 . S
C667 C665 1.350 1_655 S
C667 C666 1.387 . S
C667 H687 0.931 . S
C668 C665 1.459 . S
C668 C675 1.399 . S
C668 N693 1.314 1_455 S
C669 C670 1.417 . S
C669 C671 1.384 . S
C669 H688 0.931 . S
C670 C669 1.417 . S
C670 C673 1.373 1_655 S
C671 C669 1.384 . S
C671 C672 1.376 1_655 S
C671 H689 0.930 . S
C672 C671 1.376 1_455 S
C672 C674 1.402 . S
C672 C675 1.491 . S
C673 C670 1.373 1_455 S
C673 C674 1.387 . S
C673 H690 0.930 . S
C674 C672 1.402 . S
C674 C673 1.387 . S
C674 H691 0.931 . S
C675 C668 1.399 . S
C675 C672 1.491 . S
C675 N692 1.357 . S
H676 C648 0.931 . S
H677 C650 0.930 . S
H678 C652 0.930 . S
H679 C653 0.931 . S
H680 C655 0.931 . S
H681 C657 0.930 . S
H682 C659 0.930 . S
H683 C660 0.931 . S
H684 C662 0.931 . S
H685 C664 0.930 . S
H686 C666 0.930 . S
H687 C667 0.931 . S
H688 C669 0.931 . S
H689 C671 0.930 . S
H690 C673 0.930 . S
H691 C674 0.931 . S
N692 C654 1.304 . S
N692 C675 1.357 . S
N693 C661 1.357 . S
N693 C668 1.314 1_655 S
C694 C695 1.384 . S
C694 C696 1.384 . S
C694 H722 0.931 . S
C695 C694 1.384 . S
C695 C698 1.382 . S
C696 C694 1.384 . S
C696 C697 1.381 . S
C696 H723 0.930 . S
C697 C696 1.381 . S
C697 C699 1.381 . S
C697 C700 1.487 . S
C698 C695 1.382 . S
C698 C699 1.387 . S
C698 H724 0.930 . S
C699 C697 1.381 . S
C699 C698 1.387 . S
C699 H725 0.931 . S
C700 C697 1.487 . S
C700 C707 1.399 . S
C700 N738 1.343 . S
C701 C702 1.384 . S
C701 C703 1.384 . S
C701 H726 0.931 . S
C702 C701 1.384 . S
C702 C705 1.382 . S
C703 C701 1.384 . S
C703 C704 1.381 . S
C703 H727 0.930 . S
C704 C703 1.381 . S
C704 C706 1.381 . S
C704 C707 1.487 . S
C705 C702 1.382 . S
C705 C706 1.387 . S
C705 H728 0.930 . S
C706 C704 1.381 . S
C706 C705 1.387 . S
C706 H729 0.931 . S
C707 C700 1.399 . S
C707 C704 1.487 . S
C707 N739 1.343 . S
C708 C709 1.384 . S
C708 C710 1.384 . S
C708 H730 0.931 . S
C709 C708 1.384 . S
C709 C712 1.382 . S
C710 C708 1.384 . S
C710 C711 1.381 . S
C710 H731 0.930 . S
C711 C710 1.381 . S
C711 C713 1.381 . S
C711 C714 1.487 . S
C712 C709 1.382 . S
C712 C713 1.387 . S
C712 H732 0.930 . S
C713 C711 1.381 . S
C713 C712 1.387 . S
C713 H733 0.931 . S
C714 C711 1.487 . S
C714 C721 1.399 . S
C714 N739 1.343 . S
C715 C716 1.384 . S
C715 C717 1.384 . S
C715 H734 0.931 . S
C716 C715 1.384 . S
C716 C719 1.382 . S
C717 C715 1.384 . S
C717 C718 1.381 . S
C717 H735 0.930 . S
C718 C717 1.381 . S
C718 C720 1.381 . S
C718 C721 1.487 . S
C719 C716 1.382 . S
C719 C720 1.387 . S
C719 H736 0.930 . S
C720 C718 1.381 . S
C720 C719 1.387 . S
C720 H737 0.931 . S
C721 C714 1.399 . S
C721 C718 1.487 . S
C721 N738 1.343 . S
H722 C694 0.931 . S
H723 C696 0.930 . S
H724 C698 0.930 . S
H725 C699 0.931 . S
H726 C701 0.931 . S
H727 C703 0.930 . S
H728 C705 0.930 . S
H729 C706 0.931 . S
H730 C708 0.931 . S
H731 C710 0.930 . S
H732 C712 0.930 . S
H733 C713 0.931 . S
H734 C715 0.931 . S
H735 C717 0.930 . S
H736 C719 0.930 . S
H737 C720 0.931 . S
N738 C700 1.343 . S
N738 C721 1.343 . S
N739 C707 1.343 . S
N739 C714 1.343 . S
C740 C741 1.384 1_545 S
C740 C742 1.384 . S
C740 H768 0.931 . S
C741 C740 1.384 1_565 S
C741 C744 1.382 . S
C742 C740 1.384 . S
C742 C743 1.381 1_545 S
C742 H769 0.930 . S
C743 C742 1.381 1_565 S
C743 C745 1.381 . S
C743 C746 1.487 . S
C744 C741 1.382 . S
C744 C745 1.387 . S
C744 H770 0.930 . S
C745 C743 1.381 . S
C745 C744 1.387 . S
C745 H771 0.931 . S
C746 C743 1.487 . S
C746 C753 1.399 1_565 S
C746 N784 1.343 . S
C747 C748 1.384 1_565 S
C747 C749 1.384 . S
C747 H772 0.931 . S
C748 C747 1.384 1_545 S
C748 C751 1.382 . S
C749 C747 1.384 . S
C749 C750 1.381 1_565 S
C749 H773 0.930 . S
C750 C749 1.381 1_545 S
C750 C752 1.381 . S
C750 C753 1.487 . S
C751 C748 1.382 . S
C751 C752 1.387 . S
C751 H774 0.930 . S
C752 C750 1.381 . S
C752 C751 1.387 . S
C752 H775 0.931 . S
C753 C746 1.399 1_545 S
C753 C750 1.487 . S
C753 N785 1.343 . S
C754 C755 1.384 1_565 S
C754 C756 1.384 . S
C754 H776 0.931 . S
C755 C754 1.384 1_545 S
C755 C758 1.382 . S
C756 C754 1.384 . S
C756 C757 1.381 1_565 S
C756 H777 0.930 . S
C757 C756 1.381 1_545 S
C757 C759 1.381 . S
C757 C760 1.456 . S
C758 C755 1.382 . S
C758 C759 1.387 . S
C758 H778 0.930 . S
C759 C757 1.381 . S
C759 C758 1.387 . S
C759 H779 0.931 . S
C760 C757 1.456 . S
C760 C767 1.388 1_545 S
C760 N785 1.395 . S
C761 C762 1.384 1_545 S
C761 C763 1.384 . S
C761 H780 0.931 . S
C762 C761 1.384 1_565 S
C762 C765 1.382 . S
C763 C761 1.384 . S
C763 C764 1.381 1_545 S
C763 H781 0.930 . S
C764 C763 1.381 1_565 S
C764 C766 1.381 . S
C764 C767 1.487 . S
C765 C762 1.382 . S
C765 C766 1.387 . S
C765 H782 0.930 . S
C766 C764 1.381 . S
C766 C765 1.387 . S
C766 H783 0.931 . S
C767 C760 1.388 1_565 S
C767 C764 1.487 . S
C767 N784 1.343 . S
H768 C740 0.931 . S
H769 C742 0.930 . S
H770 C744 0.930 . S
H771 C745 0.931 . S
H772 C747 0.931 . S
H773 C749 0.930 . S
H774 C751 0.930 . S
H775 C752 0.931 . S
H776 C754 0.931 . S
H777 C756 0.930 . S
H778 C758 0.930 . S
H779 C759 0.931 . S
H780 C761 0.931 . S
H781 C763 0.930 . S
H782 C765 0.930 . S
H783 C766 0.931 . S
N784 C746 1.343 . S
N784 C767 1.343 . S
N785 C753 1.343 . S
N785 C760 1.395 . S
C786 C787 1.384 . S
C786 C788 1.384 . S
C786 H814 0.931 . S
C787 C786 1.384 . S
C787 C790 1.382 1_545 S
C788 C786 1.384 . S
C788 C789 1.381 1_545 S
C788 H815 0.930 . S
C789 C788 1.381 1_565 S
C789 C791 1.381 . S
C789 C792 1.494 . S
C790 C787 1.382 1_565 S
C790 C791 1.387 . S
C790 H816 0.930 . S
C791 C789 1.381 . S
C791 C790 1.387 . S
C791 H817 0.931 . S
C792 C789 1.494 . S
C792 C799 1.399 1_565 S
C792 N830 1.359 . S
C793 C794 1.384 . S
C793 C795 1.384 . S
C793 H818 0.931 . S
C794 C793 1.384 . S
C794 C797 1.382 1_565 S
C795 C793 1.384 . S
C795 C796 1.416 . S
C795 H819 0.930 . S
C796 C795 1.416 . S
C796 C798 1.365 1_565 S
C796 C799 1.470 1_565 S
C797 C794 1.382 1_545 S
C797 C798 1.387 . S
C797 H820 0.930 . S
C798 C796 1.365 1_545 S
C798 C797 1.387 . S
C798 H821 0.931 . S
C799 C792 1.399 1_545 S
C799 C796 1.470 1_545 S
C799 N831 1.309 . S
C800 C801 1.434 . S
C800 C802 1.384 . S
C800 H822 0.931 . S
C801 C800 1.434 . S
C801 C804 1.369 1_565 S
C802 C800 1.384 . S
C802 C803 1.378 1_565 S
C802 H823 0.930 . S
C803 C802 1.378 1_545 S
C803 C805 1.393 . S
C803 C806 1.494 . S
C804 C801 1.369 1_545 S
C804 C805 1.387 . S
C804 H824 0.930 . S
C805 C803 1.393 . S
C805 C804 1.387 . S
C805 H825 0.931 . S
C806 C803 1.494 . S
C806 C813 1.400 . S
C806 N831 1.359 . S
C807 C808 1.384 . S
C807 C809 1.384 . S
C807 H826 0.931 . S
C808 C807 1.384 . S
C808 C811 1.382 1_545 S
C809 C807 1.384 . S
C809 C810 1.436 . S
C809 H827 0.930 . S
C810 C809 1.436 . S
C810 C812 1.356 1_545 S
C810 C813 1.460 . S
C811 C808 1.382 1_565 S
C811 C812 1.387 . S
C811 H828 0.930 . S
C812 C810 1.356 1_565 S
C812 C811 1.387 . S
C812 H829 0.931 . S
C813 C806 1.400 . S
C813 C810 1.460 . S
C813 N830 1.319 1_545 S
H814 C786 0.931 . S
H815 C788 0.930 . S
H816 C790 0.930 . S
H817 C791 0.931 . S
H818 C793 0.931 . S
H819 C795 0.930 . S
H820 C797 0.930 . S
H821 C798 0.931 . S
H822 C800 0.931 . S
H823 C802 0.930 . S
H824 C804 0.930 . S
H825 C805 0.931 . S
H826 C807 0.931 . S
H827 C809 0.930 . S
H828 C811 0.930 . S
H829 C812 0.931 . S
N830 C792 1.359 . S
N830 C813 1.319 1_565 S
N831 C799 1.309 . S
N831 C806 1.359 . S
C832 C833 1.384 . S
C832 C834 1.384 . S
C832 H860 0.931 . S
C833 C832 1.384 . S
C833 C836 1.382 1_655 S
C834 C832 1.384 . S
C834 C835 1.463 . S
C834 H861 0.930 . S
C835 C834 1.463 . S
C835 C837 1.343 1_655 S
C835 C838 1.454 . S
C836 C833 1.382 1_455 S
C836 C837 1.387 . S
C836 H862 0.930 . S
C837 C835 1.343 1_455 S
C837 C836 1.387 . S
C837 H863 0.931 . S
C838 C835 1.454 . S
C838 C845 1.399 . S
C838 N876 1.318 1_655 S
C839 C840 1.439 . S
C839 C841 1.384 . S
C839 H864 0.931 . S
C840 C839 1.439 . S
C840 C843 1.369 1_455 S
C841 C839 1.384 . S
C841 C842 1.378 1_455 S
C841 H865 0.930 . S
C842 C841 1.378 1_655 S
C842 C844 1.392 . S
C842 C845 1.495 . S
C843 C840 1.369 1_655 S
C843 C844 1.387 . S
C843 H866 0.930 . S
C844 C842 1.392 . S
C844 C843 1.387 . S
C844 H867 0.931 . S
C845 C838 1.399 . S
C845 C842 1.495 . S
C845 N877 1.353 . S
C846 C847 1.384 . S
C846 C848 1.384 . S
C846 H868 0.931 . S
C847 C846 1.384 . S
C847 C850 1.382 1_455 S
C848 C846 1.384 . S
C848 C849 1.442 . S
C848 H869 0.930 . S
C849 C848 1.442 . S
C849 C851 1.352 1_455 S
C849 C852 1.454 . S
C850 C847 1.382 1_655 S
C850 C851 1.387 . S
C850 H870 0.930 . S
C851 C849 1.352 1_655 S
C851 C850 1.387 . S
C851 H871 0.931 . S
C852 C849 1.454 . S
C852 C859 1.399 . S
C852 N877 1.318 1_455 S
C853 C854 1.384 . S
C853 C855 1.384 . S
C853 H872 0.931 . S
C854 C853 1.384 . S
C854 C857 1.382 1_655 S
C855 C853 1.384 . S
C855 C856 1.382 1_655 S
C855 H873 0.930 . S
C856 C855 1.382 1_455 S
C856 C858 1.380 . S
C856 C859 1.495 . S
C857 C854 1.382 1_455 S
C857 C858 1.387 . S
C857 H874 0.930 . S
C858 C856 1.380 . S
C858 C857 1.387 . S
C858 H875 0.931 . S
C859 C852 1.399 . S
C859 C856 1.495 . S
C859 N876 1.353 . S
H860 C832 0.931 . S
H861 C834 0.930 . S
H862 C836 0.930 . S
H863 C837 0.931 . S
H864 C839 0.931 . S
H865 C841 0.930 . S
H866 C843 0.930 . S
H867 C844 0.931 . S
H868 C846 0.931 . S
H869 C848 0.930 . S
H870 C850 0.930 . S
H871 C851 0.931 . S
H872 C853 0.931 . S
H873 C855 0.930 . S
H874 C857 0.930 . S
H875 C858 0.931 . S
N876 C838 1.318 1_455 S
N876 C859 1.353 . S
N877 C845 1.353 . S
N877 C852 1.318 1_655 S
C878 C879 1.384 . S
C878 C880 1.384 . S
C878 H906 0.931 . S
C879 C878 1.384 . S
C879 C882 1.382 . S
C880 C878 1.384 . S
C880 C881 1.381 . S
C880 H907 0.930 . S
C881 C880 1.381 . S
C881 C883 1.381 . S
C881 C884 1.487 . S
C882 C879 1.382 . S
C882 C883 1.387 . S
C882 H908 0.930 . S
C883 C881 1.381 . S
C883 C882 1.387 . S
C883 H909 0.931 . S
C884 C881 1.487 . S
C884 C891 1.399 . S
C884 N922 1.343 . S
C885 C886 1.384 . S
C885 C887 1.384 . S
C885 H910 0.931 . S
C886 C885 1.384 . S
C886 C889 1.382 . S
C887 C885 1.384 . S
C887 C888 1.381 . S
C887 H911 0.930 . S
C888 C887 1.381 . S
C888 C890 1.381 . S
C888 C891 1.487 . S
C889 C886 1.382 . S
C889 C890 1.387 . S
C889 H912 0.930 . S
C890 C888 1.381 . S
C890 C889 1.387 . S
C890 H913 0.931 . S
C891 C884 1.399 . S
C891 C888 1.487 . S
C891 N923 1.343 . S
C892 C893 1.384 . S
C892 C894 1.384 . S
C892 H914 0.931 . S
C893 C892 1.384 . S
C893 C896 1.382 . S
C894 C892 1.384 . S
C894 C895 1.381 . S
C894 H915 0.930 . S
C895 C894 1.381 . S
C895 C897 1.381 . S
C895 C898 1.487 . S
C896 C893 1.382 . S
C896 C897 1.387 . S
C896 H916 0.930 . S
C897 C895 1.381 . S
C897 C896 1.387 . S
C897 H917 0.931 . S
C898 C895 1.487 . S
C898 C905 1.399 . S
C898 N923 1.343 . S
C899 C900 1.384 . S
C899 C901 1.384 . S
C899 H918 0.931 . S
C900 C899 1.384 . S
C900 C903 1.382 . S
C901 C899 1.384 . S
C901 C902 1.381 . S
C901 H919 0.930 . S
C902 C901 1.381 . S
C902 C904 1.381 . S
C902 C905 1.487 . S
C903 C900 1.382 . S
C903 C904 1.387 . S
C903 H920 0.930 . S
C904 C902 1.381 . S
C904 C903 1.387 . S
C904 H921 0.931 . S
C905 C898 1.399 . S
C905 C902 1.487 . S
C905 N922 1.343 . S
H906 C878 0.931 . S
H907 C880 0.930 . S
H908 C882 0.930 . S
H909 C883 0.931 . S
H910 C885 0.931 . S
H911 C887 0.930 . S
H912 C889 0.930 . S
H913 C890 0.931 . S
H914 C892 0.931 . S
H915 C894 0.930 . S
H916 C896 0.930 . S
H917 C897 0.931 . S
H918 C899 0.931 . S
H919 C901 0.930 . S
H920 C903 0.930 . S
H921 C904 0.931 . S
N922 C884 1.343 . S
N922 C905 1.343 . S
N923 C891 1.343 . S
N923 C898 1.343 . S
C924 C925 1.384 . S
C924 C926 1.384 . S
C924 H952 0.931 . S
C925 C924 1.384 . S
C925 C928 1.382 . S
C926 C924 1.384 . S
C926 C927 1.381 . S
C926 H953 0.930 . S
C927 C926 1.381 . S
C927 C929 1.381 . S
C927 C930 1.487 . S
C928 C925 1.382 . S
C928 C929 1.387 . S
C928 H954 0.930 . S
C929 C927 1.381 . S
C929 C928 1.387 . S
C929 H955 0.931 . S
C930 C927 1.487 . S
C930 C937 1.399 . S
C930 N968 1.343 . S
C931 C932 1.384 . S
C931 C933 1.384 . S
C931 H956 0.931 . S
C932 C931 1.384 . S
C932 C935 1.382 . S
C933 C931 1.384 . S
C933 C934 1.381 . S
C933 H957 0.930 . S
C934 C933 1.381 . S
C934 C936 1.381 . S
C934 C937 1.487 . S
C935 C932 1.382 . S
C935 C936 1.387 . S
C935 H958 0.930 . S
C936 C934 1.381 . S
C936 C935 1.387 . S
C936 H959 0.931 . S
C937 C930 1.399 . S
C937 C934 1.487 . S
C937 N969 1.343 . S
C938 C939 1.384 . S
C938 C940 1.384 . S
C938 H960 0.931 . S
C939 C938 1.384 . S
C939 C942 1.382 . S
C940 C938 1.384 . S
C940 C941 1.381 . S
C940 H961 0.930 . S
C941 C940 1.381 . S
C941 C943 1.381 . S
C941 C944 1.487 . S
C942 C939 1.382 . S
C942 C943 1.387 . S
C942 H962 0.930 . S
C943 C941 1.381 . S
C943 C942 1.387 . S
C943 H963 0.931 . S
C944 C941 1.487 . S
C944 C951 1.399 . S
C944 N969 1.343 . S
C945 C946 1.384 . S
C945 C947 1.384 . S
C945 H964 0.931 . S
C946 C945 1.384 . S
C946 C949 1.382 . S
C947 C945 1.384 . S
C947 C948 1.381 . S
C947 H965 0.930 . S
C948 C947 1.381 . S
C948 C950 1.381 . S
C948 C951 1.487 . S
C949 C946 1.382 . S
C949 C950 1.387 . S
C949 H966 0.930 . S
C950 C948 1.381 . S
C950 C949 1.387 . S
C950 H967 0.931 . S
C951 C944 1.399 . S
C951 C948 1.487 . S
C951 N968 1.343 . S
H952 C924 0.931 . S
H953 C926 0.930 . S
H954 C928 0.930 . S
H955 C929 0.931 . S
H956 C931 0.931 . S
H957 C933 0.930 . S
H958 C935 0.930 . S
H959 C936 0.931 . S
H960 C938 0.931 . S
H961 C940 0.930 . S
H962 C942 0.930 . S
H963 C943 0.931 . S
H964 C945 0.931 . S
H965 C947 0.930 . S
H966 C949 0.930 . S
H967 C950 0.931 . S
N968 C930 1.343 . S
N968 C951 1.343 . S
N969 C937 1.343 . S
N969 C944 1.343 . S
C970 C971 1.384 . S
C970 C972 1.384 . S
C970 H998 0.931 . S
C971 C970 1.384 . S
C971 C974 1.382 . S
C972 C970 1.384 . S
C972 C973 1.381 . S
C972 H999 0.930 . S
C973 C972 1.381 . S
C973 C975 1.381 . S
C973 C976 1.487 . S
C974 C971 1.382 . S
C974 C975 1.387 . S
C974 H1000 0.930 . S
C975 C973 1.381 . S
C975 C974 1.387 . S
C975 H1001 0.931 . S
C976 C973 1.487 . S
C976 C983 1.399 . S
C976 N1014 1.343 . S
C977 C978 1.384 . S
C977 C979 1.384 . S
C977 H1002 0.931 . S
C978 C977 1.384 . S
C978 C981 1.382 . S
C979 C977 1.384 . S
C979 C980 1.381 . S
C979 H1003 0.930 . S
C980 C979 1.381 . S
C980 C982 1.381 . S
C980 C983 1.487 . S
C981 C978 1.382 . S
C981 C982 1.387 . S
C981 H1004 0.930 . S
C982 C980 1.381 . S
C982 C981 1.387 . S
C982 H1005 0.931 . S
C983 C976 1.399 . S
C983 C980 1.487 . S
C983 N1015 1.343 . S
C984 C985 1.384 . S
C984 C986 1.384 . S
C984 H1006 0.931 . S
C985 C984 1.384 . S
C985 C988 1.382 . S
C986 C984 1.384 . S
C986 C987 1.381 . S
C986 H1007 0.930 . S
C987 C986 1.381 . S
C987 C989 1.381 . S
C987 C990 1.487 . S
C988 C985 1.382 . S
C988 C989 1.387 . S
C988 H1008 0.930 . S
C989 C987 1.381 . S
C989 C988 1.387 . S
C989 H1009 0.931 . S
C990 C987 1.487 . S
C990 C997 1.399 . S
C990 N1015 1.343 . S
C991 C992 1.384 . S
C991 C993 1.384 . S
C991 H1010 0.931 . S
C992 C991 1.384 . S
C992 C995 1.382 . S
C993 C991 1.384 . S
C993 C994 1.381 . S
C993 H1011 0.930 . S
C994 C993 1.381 . S
C994 C996 1.381 . S
C994 C997 1.487 . S
C995 C992 1.382 . S
C995 C996 1.387 . S
C995 H1012 0.930 . S
C996 C994 1.381 . S
C996 C995 1.387 . S
C996 H1013 0.931 . S
C997 C990 1.399 . S
C997 C994 1.487 . S
C997 N1014 1.343 . S
H998 C970 0.931 . S
H999 C972 0.930 . S
H1000 C974 0.930 . S
H1001 C975 0.931 . S
H1002 C977 0.931 . S
H1003 C979 0.930 . S
H1004 C981 0.930 . S
H1005 C982 0.931 . S
H1006 C984 0.931 . S
H1007 C986 0.930 . S
H1008 C988 0.930 . S
H1009 C989 0.931 . S
H1010 C991 0.931 . S
H1011 C993 0.930 . S
H1012 C995 0.930 . S
H1013 C996 0.931 . S
N1014 C976 1.343 . S
N1014 C997 1.343 . S
N1015 C983 1.343 . S
N1015 C990 1.343 . S
C1016 C1017 1.384 . S
C1016 C1018 1.384 . S
C1016 H1044 0.931 . S
C1017 C1016 1.384 . S
C1017 C1020 1.382 . S
C1018 C1016 1.384 . S
C1018 C1019 1.381 . S
C1018 H1045 0.930 . S
C1019 C1018 1.381 . S
C1019 C1021 1.381 . S
C1019 C1022 1.487 . S
C1020 C1017 1.382 . S
C1020 C1021 1.387 . S
C1020 H1046 0.930 . S
C1021 C1019 1.381 . S
C1021 C1020 1.387 . S
C1021 H1047 0.931 . S
C1022 C1019 1.487 . S
C1022 C1029 1.399 . S
C1022 N1060 1.343 . S
C1023 C1024 1.384 . S
C1023 C1025 1.384 . S
C1023 H1048 0.931 . S
C1024 C1023 1.384 . S
C1024 C1027 1.382 . S
C1025 C1023 1.384 . S
C1025 C1026 1.381 . S
C1025 H1049 0.930 . S
C1026 C1025 1.381 . S
C1026 C1028 1.381 . S
C1026 C1029 1.487 . S
C1027 C1024 1.382 . S
C1027 C1028 1.387 . S
C1027 H1050 0.930 . S
C1028 C1026 1.381 . S
C1028 C1027 1.387 . S
C1028 H1051 0.931 . S
C1029 C1022 1.399 . S
C1029 C1026 1.487 . S
C1029 N1061 1.343 . S
C1030 C1031 1.384 . S
C1030 C1032 1.384 . S
C1030 H1052 0.931 . S
C1031 C1030 1.384 . S
C1031 C1034 1.382 . S
C1032 C1030 1.384 . S
C1032 C1033 1.381 . S
C1032 H1053 0.930 . S
C1033 C1032 1.381 . S
C1033 C1035 1.381 . S
C1033 C1036 1.487 . S
C1034 C1031 1.382 . S
C1034 C1035 1.387 . S
C1034 H1054 0.930 . S
C1035 C1033 1.381 . S
C1035 C1034 1.387 . S
C1035 H1055 0.931 . S
C1036 C1033 1.487 . S
C1036 C1043 1.399 . S
C1036 N1061 1.343 . S
C1037 C1038 1.384 . S
C1037 C1039 1.384 . S
C1037 H1056 0.931 . S
C1038 C1037 1.384 . S
C1038 C1041 1.382 . S
C1039 C1037 1.384 . S
C1039 C1040 1.381 . S
C1039 H1057 0.930 . S
C1040 C1039 1.381 . S
C1040 C1042 1.381 . S
C1040 C1043 1.487 . S
C1041 C1038 1.382 . S
C1041 C1042 1.387 . S
C1041 H1058 0.930 . S
C1042 C1040 1.381 . S
C1042 C1041 1.387 . S
C1042 H1059 0.931 . S
C1043 C1036 1.399 . S
C1043 C1040 1.487 . S
C1043 N1060 1.343 . S
H1044 C1016 0.931 . S
H1045 C1018 0.930 . S
H1046 C1020 0.930 . S
H1047 C1021 0.931 . S
H1048 C1023 0.931 . S
H1049 C1025 0.930 . S
H1050 C1027 0.930 . S
H1051 C1028 0.931 . S
H1052 C1030 0.931 . S
H1053 C1032 0.930 . S
H1054 C1034 0.930 . S
H1055 C1035 0.931 . S
H1056 C1037 0.931 . S
H1057 C1039 0.930 . S
H1058 C1041 0.930 . S
H1059 C1042 0.931 . S
N1060 C1022 1.343 . S
N1060 C1043 1.343 . S
N1061 C1029 1.343 . S
N1061 C1036 1.343 . S
C1062 C1063 1.349 . S
C1062 C1064 1.327 . S
C1062 H1087 0.950 . S
C1063 C1062 1.349 . S
C1063 C1079 1.349 1_655 S
C1064 C1062 1.327 . S
C1064 C1083 1.429 . S
C1064 H1088 0.950 . S
C1065 C1082 1.574 . S
C1065 C1084 1.368 1_455 S
C1065 H1089 0.949 . S
H1066 C1070 0.949 . S
C1067 C1068 1.349 1_455 S
C1067 C1069 1.327 . S
C1067 H1090 0.950 . S
C1068 C1067 1.349 1_655 S
C1068 C1080 1.349 . S
C1069 C1067 1.327 . S
C1069 C1085 1.429 1_455 S
C1069 H1091 0.950 . S
C1070 H1066 0.949 . S
C1070 C1078 1.574 . S
C1070 C1086 1.368 . S
H1071 C1079 0.950 . S
H1072 C1077 0.950 . S
H1073 C1078 0.949 . S
H1074 C1080 0.950 . S
H1075 C1081 0.950 . S
H1076 C1082 0.949 . S
C1077 H1072 0.950 . S
C1077 C1079 1.327 . S
C1077 C1083 1.429 1_455 S
C1078 C1070 1.574 . S
C1078 H1073 0.949 . S
C1078 C1084 1.368 . S
C1079 C1063 1.349 1_455 S
C1079 H1071 0.950 . S
C1079 C1077 1.327 . S
C1080 C1068 1.349 . S
C1080 H1074 0.950 . S
C1080 C1081 1.327 . S
C1081 H1075 0.950 . S
C1081 C1080 1.327 . S
C1081 C1085 1.429 . S
C1082 C1065 1.574 . S
C1082 H1076 0.949 . S
C1082 C1086 1.368 1_455 S
C1083 C1064 1.429 . S
C1083 C1077 1.429 1_655 S
C1083 C1084 1.523 . S
C1084 C1065 1.368 1_655 S
C1084 C1078 1.368 . S
C1084 C1083 1.523 . S
C1085 C1069 1.429 1_655 S
C1085 C1081 1.429 . S
C1085 C1086 1.523 . S
C1086 C1070 1.368 . S
C1086 C1082 1.368 1_655 S
C1086 C1085 1.523 . S
H1087 C1062 0.950 . S
H1088 C1064 0.950 . S
H1089 C1065 0.949 . S
H1090 C1067 0.950 . S
H1091 C1069 0.950 . S
C1092 C1093 1.349 . S
C1092 C1094 1.327 . S
C1092 H1117 0.950 . S
C1093 C1092 1.349 . S
C1093 C1109 1.349 . S
C1094 C1092 1.327 . S
C1094 C1113 1.429 . S
C1094 H1118 0.950 . S
C1095 C1112 1.574 . S
C1095 C1114 1.368 . S
C1095 H1119 0.949 . S
H1096 C1100 0.949 . S
C1097 C1098 1.349 . S
C1097 C1099 1.327 . S
C1097 H1120 0.950 . S
C1098 C1097 1.349 . S
C1098 C1110 1.349 . S
C1099 C1097 1.327 . S
C1099 C1115 1.429 . S
C1099 H1121 0.950 . S
C1100 H1096 0.949 . S
C1100 C1108 1.574 . S
C1100 C1116 1.368 . S
H1101 C1109 0.950 . S
H1102 C1107 0.950 . S
H1103 C1108 0.949 . S
H1104 C1110 0.950 . S
H1105 C1111 0.950 . S
H1106 C1112 0.949 . S
C1107 H1102 0.950 . S
C1107 C1109 1.327 . S
C1107 C1113 1.429 . S
C1108 C1100 1.574 . S
C1108 H1103 0.949 . S
C1108 C1114 1.368 . S
C1109 C1093 1.349 . S
C1109 H1101 0.950 . S
C1109 C1107 1.327 . S
C1110 C1098 1.349 . S
C1110 H1104 0.950 . S
C1110 C1111 1.327 . S
C1111 H1105 0.950 . S
C1111 C1110 1.327 . S
C1111 C1115 1.429 . S
C1112 C1095 1.574 . S
C1112 H1106 0.949 . S
C1112 C1116 1.368 . S
C1113 C1094 1.429 . S
C1113 C1107 1.429 . S
C1113 C1114 1.523 . S
C1114 C1095 1.368 . S
C1114 C1108 1.368 . S
C1114 C1113 1.523 . S
C1115 C1099 1.429 . S
C1115 C1111 1.429 . S
C1115 C1116 1.523 . S
C1116 C1100 1.368 . S
C1116 C1112 1.368 . S
C1116 C1115 1.523 . S
H1117 C1092 0.950 . S
H1118 C1094 0.950 . S
H1119 C1095 0.949 . S
H1120 C1097 0.950 . S
H1121 C1099 0.950 . S
C1122 C1123 1.349 . S
C1122 C1124 1.327 . S
C1122 H1147 0.950 . S
C1123 C1122 1.349 . S
C1123 C1139 1.349 . S
C1124 C1122 1.327 . S
C1124 C1143 1.429 . S
C1124 H1148 0.950 1_545 S
C1125 C1142 1.574 . S
C1125 C1144 1.368 . S
C1125 H1149 0.949 . S
H1126 C1130 0.948 1_565 S
C1127 C1128 1.349 . S
C1127 C1129 1.327 . S
C1127 H1150 0.950 . S
C1128 C1127 1.349 . S
C1128 C1140 1.349 1_545 S
C1129 C1127 1.327 . S
C1129 C1145 1.429 . S
C1129 H1151 0.950 . S
C1130 H1126 0.948 1_545 S
C1130 C1138 1.574 . S
C1130 C1146 1.369 . S
H1131 C1139 0.950 . S
H1132 C1137 0.950 . S
H1133 C1138 0.949 1_565 S
H1134 C1140 0.950 . S
H1135 C1141 0.950 . S
H1136 C1142 0.949 . S
C1137 H1132 0.950 . S
C1137 C1139 1.327 . S
C1137 C1143 1.429 . S
C1138 C1130 1.574 . S
C1138 H1133 0.949 1_545 S
C1138 C1144 1.368 . S
C1139 C1123 1.349 . S
C1139 H1131 0.950 . S
C1139 C1137 1.327 . S
C1140 C1128 1.349 1_565 S
C1140 H1134 0.950 . S
C1140 C1141 1.327 . S
C1141 H1135 0.950 . S
C1141 C1140 1.327 . S
C1141 C1145 1.429 1_565 S
C1142 C1125 1.574 . S
C1142 H1136 0.949 . S
C1142 C1146 1.368 . S
C1143 C1124 1.429 . S
C1143 C1137 1.429 . S
C1143 C1144 1.523 . S
C1144 C1125 1.368 . S
C1144 C1138 1.368 . S
C1144 C1143 1.523 . S
C1145 C1129 1.429 . S
C1145 C1141 1.429 1_545 S
C1145 C1146 1.523 . S
C1146 C1130 1.369 . S
C1146 C1142 1.368 . S
C1146 C1145 1.523 . S
H1147 C1122 0.950 . S
H1148 C1124 0.950 1_565 S
H1149 C1125 0.949 . S
H1150 C1127 0.950 . S
H1151 C1129 0.950 . S
C1152 C1153 1.356 . S
C1152 C1154 1.327 . S
C1152 H1177 0.950 . S
C1153 C1152 1.356 . S
C1153 C1169 1.333 1_545 S
C1154 C1152 1.327 . S
C1154 C1173 1.425 1_545 S
C1154 H1178 0.950 . S
C1155 C1172 1.574 . S
C1155 C1174 1.389 . S
C1155 H1179 0.949 . S
H1156 C1160 0.949 . S
C1157 C1158 1.349 . S
C1157 C1159 1.327 . S
C1157 H1180 0.950 . S
C1158 C1157 1.349 . S
C1158 C1170 1.349 1_565 S
C1159 C1157 1.327 . S
C1159 C1175 1.429 . S
C1159 H1181 0.950 . S
C1160 H1156 0.949 . S
C1160 C1168 1.574 . S
C1160 C1176 1.318 1_545 S
H1161 C1169 0.950 . S
H1162 C1167 0.950 . S
H1163 C1168 0.949 . S
H1164 C1170 0.950 . S
H1165 C1171 0.950 . S
H1166 C1172 0.949 . S
C1167 H1162 0.950 . S
C1167 C1169 1.327 . S
C1167 C1173 1.430 . S
C1168 C1160 1.574 . S
C1168 H1163 0.949 . S
C1168 C1174 1.357 1_545 S
C1169 C1153 1.333 1_565 S
C1169 H1161 0.950 . S
C1169 C1167 1.327 . S
C1170 C1158 1.349 1_545 S
C1170 H1164 0.950 . S
C1170 C1171 1.327 . S
C1171 H1165 0.950 . S
C1171 C1170 1.327 . S
C1171 C1175 1.429 1_545 S
C1172 C1155 1.574 . S
C1172 H1166 0.949 . S
C1172 C1176 1.398 . S
C1173 C1154 1.425 1_565 S
C1173 C1167 1.430 . S
C1173 C1174 1.513 . S
C1174 C1155 1.389 . S
C1174 C1168 1.357 1_565 S
C1174 C1173 1.513 . S
C1175 C1159 1.429 . S
C1175 C1171 1.429 1_565 S
C1175 C1176 1.555 . S
C1176 C1160 1.318 1_565 S
C1176 C1172 1.398 . S
C1176 C1175 1.555 . S
H1177 C1152 0.950 . S
H1178 C1154 0.950 . S
H1179 C1155 0.949 . S
H1180 C1157 0.950 . S
H1181 C1159 0.950 . S
C1182 C1183 1.349 . S
C1182 C1184 1.327 . S
C1182 H1207 0.950 . S
C1183 C1182 1.349 . S
C1183 C1199 1.349 . S
C1184 C1182 1.327 . S
C1184 C1203 1.429 . S
C1184 H1208 0.950 . S
C1185 C1202 1.535 1_455 S
C1185 C1204 1.395 . S
C1185 H1209 0.959 1_455 S
H1186 C1190 0.949 . S
C1187 C1188 1.349 1_655 S
C1187 C1189 1.327 . S
C1187 H1210 0.950 . S
C1188 C1187 1.349 1_455 S
C1188 C1200 1.349 . S
C1189 C1187 1.327 . S
C1189 C1205 1.429 1_655 S
C1189 H1211 0.950 . S
C1190 H1186 0.949 . S
C1190 C1198 1.574 . S
C1190 C1206 1.368 . S
H1191 C1199 0.955 1_655 S
H1192 C1197 0.950 1_655 S
H1193 C1198 0.949 . S
H1194 C1200 0.950 . S
H1195 C1201 0.950 . S
H1196 C1202 0.957 . S
C1197 H1192 0.950 1_455 S
C1197 C1199 1.327 . S
C1197 C1203 1.429 . S
C1198 C1190 1.574 . S
C1198 H1193 0.949 . S
C1198 C1204 1.368 . S
C1199 C1183 1.349 . S
C1199 H1191 0.955 1_455 S
C1199 C1197 1.327 . S
C1200 C1188 1.349 . S
C1200 H1194 0.950 . S
C1200 C1201 1.327 . S
C1201 H1195 0.950 . S
C1201 C1200 1.327 . S
C1201 C1205 1.429 . S
C1202 C1185 1.535 1_655 S
C1202 H1196 0.957 . S
C1202 C1206 1.369 1_655 S
C1203 C1184 1.429 . S
C1203 C1197 1.429 . S
C1203 C1204 1.523 . S
C1204 C1185 1.395 . S
C1204 C1198 1.368 . S
C1204 C1203 1.523 . S
C1205 C1189 1.429 1_455 S
C1205 C1201 1.429 . S
C1205 C1206 1.523 . S
C1206 C1190 1.368 . S
C1206 C1202 1.369 1_455 S
C1206 C1205 1.523 . S
H1207 C1182 0.950 . S
H1208 C1184 0.950 . S
H1209 C1185 0.959 1_655 S
H1210 C1187 0.950 . S
H1211 C1189 0.950 . S
C1212 C1213 1.349 . S
C1212 C1214 1.327 . S
C1212 H1237 0.950 . S
C1213 C1212 1.349 . S
C1213 C1229 1.349 . S
C1214 C1212 1.327 . S
C1214 C1233 1.429 . S
C1214 H1238 0.950 . S
C1215 C1232 1.574 . S
C1215 C1234 1.368 . S
C1215 H1239 0.949 . S
H1216 C1220 0.949 . S
C1217 C1218 1.349 . S
C1217 C1219 1.327 . S
C1217 H1240 0.950 . S
C1218 C1217 1.349 . S
C1218 C1230 1.349 . S
C1219 C1217 1.327 . S
C1219 C1235 1.429 . S
C1219 H1241 0.950 . S
C1220 H1216 0.949 . S
C1220 C1228 1.574 . S
C1220 C1236 1.368 . S
H1221 C1229 0.950 . S
H1222 C1227 0.950 . S
H1223 C1228 0.949 . S
H1224 C1230 0.950 . S
H1225 C1231 0.950 . S
H1226 C1232 0.949 . S
C1227 H1222 0.950 . S
C1227 C1229 1.327 . S
C1227 C1233 1.429 . S
C1228 C1220 1.574 . S
C1228 H1223 0.949 . S
C1228 C1234 1.368 . S
C1229 C1213 1.349 . S
C1229 H1221 0.950 . S
C1229 C1227 1.327 . S
C1230 C1218 1.349 . S
C1230 H1224 0.950 . S
C1230 C1231 1.327 . S
C1231 H1225 0.950 . S
C1231 C1230 1.327 . S
C1231 C1235 1.429 . S
C1232 C1215 1.574 . S
C1232 H1226 0.949 . S
C1232 C1236 1.368 . S
C1233 C1214 1.429 . S
C1233 C1227 1.429 . S
C1233 C1234 1.523 . S
C1234 C1215 1.368 . S
C1234 C1228 1.368 . S
C1234 C1233 1.523 . S
C1235 C1219 1.429 . S
C1235 C1231 1.429 . S
C1235 C1236 1.523 . S
C1236 C1220 1.368 . S
C1236 C1232 1.368 . S
C1236 C1235 1.523 . S
H1237 C1212 0.950 . S
H1238 C1214 0.950 . S
H1239 C1215 0.949 . S
H1240 C1217 0.950 . S
H1241 C1219 0.950 . S
C1242 C1243 1.349 1_655 S
C1242 C1244 1.327 . S
C1242 H1267 0.950 . S
C1243 C1242 1.349 1_455 S
C1243 C1259 1.349 . S
C1244 C1242 1.327 . S
C1244 C1263 1.429 1_655 S
C1244 H1268 0.950 . S
C1245 C1262 1.574 . S
C1245 C1264 1.368 . S
C1245 H1269 0.949 . S
H1246 C1250 0.949 . S
C1247 C1248 1.349 . S
C1247 C1249 1.327 . S
C1247 H1270 0.950 . S
C1248 C1247 1.349 . S
C1248 C1260 1.349 1_455 S
C1249 C1247 1.327 . S
C1249 C1265 1.429 . S
C1249 H1271 0.950 . S
C1250 H1246 0.949 . S
C1250 C1258 1.574 . S
C1250 C1266 1.368 1_655 S
H1251 C1259 0.950 . S
H1252 C1257 0.950 . S
H1253 C1258 0.949 . S
H1254 C1260 0.950 . S
H1255 C1261 0.950 . S
H1256 C1262 0.949 . S
C1257 H1252 0.950 . S
C1257 C1259 1.327 . S
C1257 C1263 1.429 . S
C1258 C1250 1.574 . S
C1258 H1253 0.949 . S
C1258 C1264 1.368 1_655 S
C1259 C1243 1.349 . S
C1259 H1251 0.950 . S
C1259 C1257 1.327 . S
C1260 C1248 1.349 1_655 S
C1260 H1254 0.950 . S
C1260 C1261 1.327 . S
C1261 H1255 0.950 . S
C1261 C1260 1.327 . S
C1261 C1265 1.429 1_655 S
C1262 C1245 1.574 . S
C1262 H1256 0.949 . S
C1262 C1266 1.368 . S
C1263 C1244 1.429 1_455 S
C1263 C1257 1.429 . S
C1263 C1264 1.523 . S
C1264 C1245 1.368 . S
C1264 C1258 1.368 1_455 S
C1264 C1263 1.523 . S
C1265 C1249 1.429 . S
C1265 C1261 1.429 1_455 S
C1265 C1266 1.523 . S
C1266 C1250 1.368 1_455 S
C1266 C1262 1.368 . S
C1266 C1265 1.523 . S
H1267 C1242 0.950 . S
H1268 C1244 0.950 . S
H1269 C1245 0.949 . S
H1270 C1247 0.950 . S
H1271 C1249 0.950 . S
C1272 C1273 1.349 . S
C1272 C1274 1.327 . S
C1272 H1297 0.950 . S
C1273 C1272 1.349 . S
C1273 C1289 1.349 . S
C1274 C1272 1.327 . S
C1274 C1293 1.429 . S
C1274 H1298 0.950 . S
C1275 C1292 1.574 . S
C1275 C1294 1.368 . S
C1275 H1299 0.949 . S
H1276 C1280 0.949 . S
C1277 C1278 1.349 . S
C1277 C1279 1.327 . S
C1277 H1300 0.950 . S
C1278 C1277 1.349 . S
C1278 C1290 1.349 . S
C1279 C1277 1.327 . S
C1279 C1295 1.429 . S
C1279 H1301 0.950 . S
C1280 H1276 0.949 . S
C1280 C1288 1.574 . S
C1280 C1296 1.368 . S
H1281 C1289 0.950 . S
H1282 C1287 0.950 . S
H1283 C1288 0.949 . S
H1284 C1290 0.950 . S
H1285 C1291 0.950 . S
H1286 C1292 0.949 . S
C1287 H1282 0.950 . S
C1287 C1289 1.327 . S
C1287 C1293 1.429 . S
C1288 C1280 1.574 . S
C1288 H1283 0.949 . S
C1288 C1294 1.368 . S
C1289 C1273 1.349 . S
C1289 H1281 0.950 . S
C1289 C1287 1.327 . S
C1290 C1278 1.349 . S
C1290 H1284 0.950 . S
C1290 C1291 1.327 . S
C1291 H1285 0.950 . S
C1291 C1290 1.327 . S
C1291 C1295 1.429 . S
C1292 C1275 1.574 . S
C1292 H1286 0.949 . S
C1292 C1296 1.368 . S
C1293 C1274 1.429 . S
C1293 C1287 1.429 . S
C1293 C1294 1.523 . S
C1294 C1275 1.368 . S
C1294 C1288 1.368 . S
C1294 C1293 1.523 . S
C1295 C1279 1.429 . S
C1295 C1291 1.429 . S
C1295 C1296 1.523 . S
C1296 C1280 1.368 . S
C1296 C1292 1.368 . S
C1296 C1295 1.523 . S
H1297 C1272 0.950 . S
H1298 C1274 0.950 . S
H1299 C1275 0.949 . S
H1300 C1277 0.950 . S
H1301 C1279 0.950 . S
C1302 C1303 1.349 . S
C1302 C1304 1.327 . S
C1302 H1327 0.950 . S
C1303 C1302 1.349 . S
C1303 C1319 1.349 1_565 S
C1304 C1302 1.327 . S
C1304 C1323 1.429 . S
C1304 H1328 0.950 . S
C1305 C1322 1.574 . S
C1305 C1324 1.368 1_545 S
C1305 H1329 0.949 . S
H1306 C1310 0.949 . S
C1307 C1308 1.349 1_545 S
C1307 C1309 1.327 . S
C1307 H1330 0.950 . S
C1308 C1307 1.349 1_565 S
C1308 C1320 1.349 . S
C1309 C1307 1.327 . S
C1309 C1325 1.429 1_545 S
C1309 H1331 0.950 . S
C1310 H1306 0.949 . S
C1310 C1318 1.574 . S
C1310 C1326 1.368 . S
H1311 C1319 0.950 . S
H1312 C1317 0.950 . S
H1313 C1318 0.949 . S
H1314 C1320 0.950 . S
H1315 C1321 0.950 . S
H1316 C1322 0.949 . S
C1317 H1312 0.950 . S
C1317 C1319 1.327 . S
C1317 C1323 1.429 1_545 S
C1318 C1310 1.574 . S
C1318 H1313 0.949 . S
C1318 C1324 1.368 . S
C1319 C1303 1.349 1_545 S
C1319 H1311 0.950 . S
C1319 C1317 1.327 . S
C1320 C1308 1.349 . S
C1320 H1314 0.950 . S
C1320 C1321 1.327 . S
C1321 H1315 0.950 . S
C1321 C1320 1.327 . S
C1321 C1325 1.429 . S
C1322 C1305 1.574 . S
C1322 H1316 0.949 . S
C1322 C1326 1.368 1_545 S
C1323 C1304 1.429 . S
C1323 C1317 1.429 1_565 S
C1323 C1324 1.523 . S
C1324 C1305 1.368 1_565 S
C1324 C1318 1.368 . S
C1324 C1323 1.523 . S
C1325 C1309 1.429 1_565 S
C1325 C1321 1.429 . S
C1325 C1326 1.523 . S
C1326 C1310 1.368 . S
C1326 C1322 1.368 1_565 S
C1326 C1325 1.523 . S
H1327 C1302 0.950 . S
H1328 C1304 0.950 . S
H1329 C1305 0.949 . S
H1330 C1307 0.950 . S
H1331 C1309 0.950 . S
C1332 C1333 1.349 1_565 S
C1332 C1334 1.327 . S
C1332 H1357 0.950 . S
C1333 C1332 1.349 1_545 S
C1333 C1349 1.349 . S
C1334 C1332 1.327 . S
C1334 C1353 1.429 1_565 S
C1334 H1358 0.950 . S
C1335 C1352 1.574 . S
C1335 C1354 1.368 . S
C1335 H1359 0.949 . S
H1336 C1340 0.949 . S
C1337 C1338 1.349 . S
C1337 C1339 1.327 . S
C1337 H1360 0.950 . S
C1338 C1337 1.349 . S
C1338 C1350 1.349 1_545 S
C1339 C1337 1.327 . S
C1339 C1355 1.429 . S
C1339 H1361 0.950 . S
C1340 H1336 0.949 . S
C1340 C1348 1.574 . S
C1340 C1356 1.368 1_565 S
H1341 C1349 0.950 . S
H1342 C1347 0.950 . S
H1343 C1348 0.949 . S
H1344 C1350 0.950 . S
H1345 C1351 0.950 . S
H1346 C1352 0.949 . S
C1347 H1342 0.950 . S
C1347 C1349 1.327 . S
C1347 C1353 1.429 . S
C1348 C1340 1.574 . S
C1348 H1343 0.949 . S
C1348 C1354 1.368 1_565 S
C1349 C1333 1.349 . S
C1349 H1341 0.950 . S
C1349 C1347 1.327 . S
C1350 C1338 1.349 1_565 S
C1350 H1344 0.950 . S
C1350 C1351 1.327 . S
C1351 H1345 0.950 . S
C1351 C1350 1.327 . S
C1351 C1355 1.429 1_565 S
C1352 C1335 1.574 . S
C1352 H1346 0.949 . S
C1352 C1356 1.368 . S
C1353 C1334 1.429 1_545 S
C1353 C1347 1.429 . S
C1353 C1354 1.523 . S
C1354 C1335 1.368 . S
C1354 C1348 1.368 1_545 S
C1354 C1353 1.523 . S
C1355 C1339 1.429 . S
C1355 C1351 1.429 1_545 S
C1355 C1356 1.523 . S
C1356 C1340 1.368 1_545 S
C1356 C1352 1.368 . S
C1356 C1355 1.523 . S
H1357 C1332 0.950 . S
H1358 C1334 0.950 . S
H1359 C1335 0.949 . S
H1360 C1337 0.950 . S
H1361 C1339 0.950 . S
C1362 C1363 1.349 . S
C1362 C1364 1.327 . S
C1362 H1387 0.950 . S
C1363 C1362 1.349 . S
C1363 C1379 1.349 . S
C1364 C1362 1.327 . S
C1364 C1383 1.429 . S
C1364 H1388 0.950 . S
C1365 C1382 1.574 . S
C1365 C1384 1.368 . S
C1365 H1389 0.949 . S
H1366 C1370 0.949 . S
C1367 C1368 1.349 . S
C1367 C1369 1.327 . S
C1367 H1390 0.951 . S
C1368 C1367 1.349 . S
C1368 C1380 1.349 . S
C1369 C1367 1.327 . S
C1369 C1385 1.429 . S
C1369 H1391 0.950 . S
C1370 H1366 0.949 . S
C1370 C1378 1.574 . S
C1370 C1386 1.368 . S
H1371 C1379 0.950 . S
H1372 C1377 0.950 . S
H1373 C1378 0.949 . S
H1374 C1380 0.950 . S
H1375 C1381 0.950 . S
H1376 C1382 0.949 . S
C1377 H1372 0.950 . S
C1377 C1379 1.327 . S
C1377 C1383 1.429 . S
C1378 C1370 1.574 . S
C1378 H1373 0.949 . S
C1378 C1384 1.368 . S
C1379 C1363 1.349 . S
C1379 H1371 0.950 . S
C1379 C1377 1.327 . S
C1380 C1368 1.349 . S
C1380 H1374 0.950 . S
C1380 C1381 1.327 . S
C1381 H1375 0.950 . S
C1381 C1380 1.327 . S
C1381 C1385 1.429 . S
C1382 C1365 1.574 . S
C1382 H1376 0.949 . S
C1382 C1386 1.368 . S
C1383 C1364 1.429 . S
C1383 C1377 1.429 . S
C1383 C1384 1.523 . S
C1384 C1365 1.368 . S
C1384 C1378 1.368 . S
C1384 C1383 1.523 . S
C1385 C1369 1.429 . S
C1385 C1381 1.429 . S
C1385 C1386 1.523 . S
C1386 C1370 1.368 . S
C1386 C1382 1.368 . S
C1386 C1385 1.523 . S
H1387 C1362 0.950 . S
H1388 C1364 0.950 . S
H1389 C1365 0.949 . S
H1390 C1367 0.951 . S
H1391 C1369 0.950 . S
C1392 C1393 1.349 . S
C1392 C1394 1.327 . S
C1392 H1417 0.950 . S
C1393 C1392 1.349 . S
C1393 C1409 1.349 . S
C1394 C1392 1.327 . S
C1394 C1413 1.429 . S
C1394 H1418 0.950 . S
C1395 C1412 1.574 . S
C1395 C1414 1.368 . S
C1395 H1419 0.949 . S
H1396 C1400 0.949 . S
C1397 C1398 1.349 . S
C1397 C1399 1.327 . S
C1397 H1420 0.950 . S
C1398 C1397 1.349 . S
C1398 C1410 1.349 . S
C1399 C1397 1.327 . S
C1399 C1415 1.429 . S
C1399 H1421 0.950 . S
C1400 H1396 0.949 . S
C1400 C1408 1.574 . S
C1400 C1416 1.368 . S
H1401 C1409 0.950 . S
H1402 C1407 0.950 . S
H1403 C1408 0.949 . S
H1404 C1410 0.950 . S
H1405 C1411 0.950 . S
H1406 C1412 0.949 . S
C1407 H1402 0.950 . S
C1407 C1409 1.327 . S
C1407 C1413 1.429 . S
C1408 C1400 1.574 . S
C1408 H1403 0.949 . S
C1408 C1414 1.368 . S
C1409 C1393 1.349 . S
C1409 H1401 0.950 . S
C1409 C1407 1.327 . S
C1410 C1398 1.349 . S
C1410 H1404 0.950 . S
C1410 C1411 1.327 . S
C1411 H1405 0.950 . S
C1411 C1410 1.327 . S
C1411 C1415 1.429 . S
C1412 C1395 1.574 . S
C1412 H1406 0.949 . S
C1412 C1416 1.368 . S
C1413 C1394 1.429 . S
C1413 C1407 1.429 . S
C1413 C1414 1.523 . S
C1414 C1395 1.368 . S
C1414 C1408 1.368 . S
C1414 C1413 1.523 . S
C1415 C1399 1.429 . S
C1415 C1411 1.429 . S
C1415 C1416 1.523 . S
C1416 C1400 1.368 . S
C1416 C1412 1.368 . S
C1416 C1415 1.523 . S
H1417 C1392 0.950 . S
H1418 C1394 0.950 . S
H1419 C1395 0.949 . S
H1420 C1397 0.950 . S
H1421 C1399 0.950 . S
C1422 C1423 1.349 . S
C1422 C1424 1.327 . S
C1422 H1447 0.950 . S
C1423 C1422 1.349 . S
C1423 C1439 1.349 . S
C1424 C1422 1.327 . S
C1424 C1443 1.429 . S
C1424 H1448 0.950 . S
C1425 C1442 1.574 . S
C1425 C1444 1.368 . S
C1425 H1449 0.949 . S
H1426 C1430 0.949 . S
C1427 C1428 1.349 . S
C1427 C1429 1.327 . S
C1427 H1450 0.950 . S
C1428 C1427 1.349 . S
C1428 C1440 1.349 . S
C1429 C1427 1.327 . S
C1429 C1445 1.429 . S
C1429 H1451 0.950 . S
C1430 H1426 0.949 . S
C1430 C1438 1.574 . S
C1430 C1446 1.368 . S
H1431 C1439 0.950 . S
H1432 C1437 0.950 . S
H1433 C1438 0.949 . S
H1434 C1440 0.950 . S
H1435 C1441 0.950 . S
H1436 C1442 0.949 . S
C1437 H1432 0.950 . S
C1437 C1439 1.327 . S
C1437 C1443 1.429 . S
C1438 C1430 1.574 . S
C1438 H1433 0.949 . S
C1438 C1444 1.368 . S
C1439 C1423 1.349 . S
C1439 H1431 0.950 . S
C1439 C1437 1.327 . S
C1440 C1428 1.349 . S
C1440 H1434 0.950 . S
C1440 C1441 1.327 . S
C1441 H1435 0.950 . S
C1441 C1440 1.327 . S
C1441 C1445 1.429 . S
C1442 C1425 1.574 . S
C1442 H1436 0.949 . S
C1442 C1446 1.368 . S
C1443 C1424 1.429 . S
C1443 C1437 1.429 . S
C1443 C1444 1.523 . S
C1444 C1425 1.368 . S
C1444 C1438 1.368 . S
C1444 C1443 1.523 . S
C1445 C1429 1.429 . S
C1445 C1441 1.429 . S
C1445 C1446 1.523 . S
C1446 C1430 1.368 . S
C1446 C1442 1.368 . S
C1446 C1445 1.523 . S
H1447 C1422 0.950 . S
H1448 C1424 0.950 . S
H1449 C1425 0.949 . S
H1450 C1427 0.950 . S
H1451 C1429 0.950 . S
C1452 C1453 1.349 . S
C1452 C1454 1.327 . S
C1452 H1477 0.950 . S
C1453 C1452 1.349 . S
C1453 C1469 1.349 . S
C1454 C1452 1.327 . S
C1454 C1473 1.429 . S
C1454 H1478 0.950 . S
C1455 C1472 1.574 . S
C1455 C1474 1.368 . S
C1455 H1479 0.949 . S
H1456 C1460 0.949 . S
C1457 C1458 1.349 . S
C1457 C1459 1.327 . S
C1457 H1480 0.950 . S
C1458 C1457 1.349 . S
C1458 C1470 1.349 . S
C1459 C1457 1.327 . S
C1459 C1475 1.429 . S
C1459 H1481 0.950 . S
C1460 H1456 0.949 . S
C1460 C1468 1.574 . S
C1460 C1476 1.368 . S
H1461 C1469 0.950 . S
H1462 C1467 0.950 . S
H1463 C1468 0.949 . S
H1464 C1470 0.950 . S
H1465 C1471 0.950 . S
H1466 C1472 0.949 . S
C1467 H1462 0.950 . S
C1467 C1469 1.327 . S
C1467 C1473 1.429 . S
C1468 C1460 1.574 . S
C1468 H1463 0.949 . S
C1468 C1474 1.368 . S
C1469 C1453 1.349 . S
C1469 H1461 0.950 . S
C1469 C1467 1.327 . S
C1470 C1458 1.349 . S
C1470 H1464 0.950 . S
C1470 C1471 1.327 . S
C1471 H1465 0.950 . S
C1471 C1470 1.327 . S
C1471 C1475 1.429 . S
C1472 C1455 1.574 . S
C1472 H1466 0.949 . S
C1472 C1476 1.368 . S
C1473 C1454 1.429 . S
C1473 C1467 1.429 . S
C1473 C1474 1.523 . S
C1474 C1455 1.368 . S
C1474 C1468 1.368 . S
C1474 C1473 1.523 . S
C1475 C1459 1.429 . S
C1475 C1471 1.429 . S
C1475 C1476 1.523 . S
C1476 C1460 1.368 . S
C1476 C1472 1.368 . S
C1476 C1475 1.523 . S
H1477 C1452 0.950 . S
H1478 C1454 0.950 . S
H1479 C1455 0.949 . S
H1480 C1457 0.950 . S
H1481 C1459 0.950 . S
C1482 C1483 1.349 . S
C1482 C1484 1.327 . S
C1482 H1507 0.950 . S
C1483 C1482 1.349 . S
C1483 C1499 1.349 . S
C1484 C1482 1.327 . S
C1484 C1503 1.429 . S
C1484 H1508 0.950 . S
C1485 C1502 1.574 . S
C1485 C1504 1.368 . S
C1485 H1509 0.949 . S
H1486 C1490 0.949 . S
C1487 C1488 1.349 . S
C1487 C1489 1.327 . S
C1487 H1510 0.950 . S
C1488 C1487 1.349 . S
C1488 C1500 1.349 . S
C1489 C1487 1.327 . S
C1489 C1505 1.429 . S
C1489 H1511 0.950 . S
C1490 H1486 0.949 . S
C1490 C1498 1.574 . S
C1490 C1506 1.368 . S
H1491 C1499 0.950 . S
H1492 C1497 0.950 . S
H1493 C1498 0.949 . S
H1494 C1500 0.950 . S
H1495 C1501 0.950 . S
H1496 C1502 0.949 . S
C1497 H1492 0.950 . S
C1497 C1499 1.327 . S
C1497 C1503 1.429 . S
C1498 C1490 1.574 . S
C1498 H1493 0.949 . S
C1498 C1504 1.368 . S
C1499 C1483 1.349 . S
C1499 H1491 0.950 . S
C1499 C1497 1.327 . S
C1500 C1488 1.349 . S
C1500 H1494 0.950 . S
C1500 C1501 1.327 . S
C1501 H1495 0.950 . S
C1501 C1500 1.327 . S
C1501 C1505 1.429 . S
C1502 C1485 1.574 . S
C1502 H1496 0.949 . S
C1502 C1506 1.368 . S
C1503 C1484 1.429 . S
C1503 C1497 1.429 . S
C1503 C1504 1.523 . S
C1504 C1485 1.368 . S
C1504 C1498 1.368 . S
C1504 C1503 1.523 . S
C1505 C1489 1.429 . S
C1505 C1501 1.429 . S
C1505 C1506 1.523 . S
C1506 C1490 1.368 . S
C1506 C1502 1.368 . S
C1506 C1505 1.523 . S
H1507 C1482 0.950 . S
H1508 C1484 0.950 . S
H1509 C1485 0.949 . S
H1510 C1487 0.950 . S
H1511 C1489 0.950 . S
C1512 C1513 1.349 . S
C1512 C1514 1.327 . S
C1512 H1537 0.950 . S
C1513 C1512 1.349 . S
C1513 C1529 1.349 . S
C1514 C1512 1.327 . S
C1514 C1533 1.429 . S
C1514 H1538 0.950 . S
C1515 C1532 1.574 . S
C1515 C1534 1.368 . S
C1515 H1539 0.949 . S
H1516 C1520 0.949 . S
C1517 C1518 1.349 . S
C1517 C1519 1.327 . S
C1517 H1540 0.950 . S
C1518 C1517 1.349 . S
C1518 C1530 1.349 . S
C1519 C1517 1.327 . S
C1519 C1535 1.429 . S
C1519 H1541 0.950 . S
C1520 H1516 0.949 . S
C1520 C1528 1.574 . S
C1520 C1536 1.368 . S
H1521 C1529 0.950 . S
H1522 C1527 0.950 . S
H1523 C1528 0.949 . S
H1524 C1530 0.950 . S
H1525 C1531 0.950 . S
H1526 C1532 0.949 . S
C1527 H1522 0.950 . S
C1527 C1529 1.327 . S
C1527 C1533 1.429 . S
C1528 C1520 1.574 . S
C1528 H1523 0.949 . S
C1528 C1534 1.368 . S
C1529 C1513 1.349 . S
C1529 H1521 0.950 . S
C1529 C1527 1.327 . S
C1530 C1518 1.349 . S
C1530 H1524 0.950 . S
C1530 C1531 1.327 . S
C1531 H1525 0.950 . S
C1531 C1530 1.327 . S
C1531 C1535 1.429 . S
C1532 C1515 1.574 . S
C1532 H1526 0.949 . S
C1532 C1536 1.368 . S
C1533 C1514 1.429 . S
C1533 C1527 1.429 . S
C1533 C1534 1.523 . S
C1534 C1515 1.368 . S
C1534 C1528 1.368 . S
C1534 C1533 1.523 . S
C1535 C1519 1.429 . S
C1535 C1531 1.429 . S
C1535 C1536 1.523 . S
C1536 C1520 1.368 . S
C1536 C1532 1.368 . S
C1536 C1535 1.523 . S
H1537 C1512 0.950 . S
H1538 C1514 0.950 . S
H1539 C1515 0.949 . S
H1540 C1517 0.950 . S
H1541 C1519 0.950 . S
C1542 C1543 1.349 . S
C1542 C1544 1.327 . S
C1542 H1567 0.950 . S
C1543 C1542 1.349 . S
C1543 C1559 1.349 . S
C1544 C1542 1.327 . S
C1544 C1563 1.429 . S
C1544 H1568 0.950 . S
C1545 C1562 1.574 . S
C1545 C1564 1.368 . S
C1545 H1569 0.949 . S
H1546 C1550 0.949 . S
C1547 C1548 1.349 . S
C1547 C1549 1.327 . S
C1547 H1570 0.950 . S
C1548 C1547 1.349 . S
C1548 C1560 1.349 . S
C1549 C1547 1.327 . S
C1549 C1565 1.429 . S
C1549 H1571 0.950 . S
C1550 H1546 0.949 . S
C1550 C1558 1.574 . S
C1550 C1566 1.368 . S
H1551 C1559 0.950 . S
H1552 C1557 0.950 . S
H1553 C1558 0.949 . S
H1554 C1560 0.950 . S
H1555 C1561 0.950 . S
H1556 C1562 0.949 . S
C1557 H1552 0.950 . S
C1557 C1559 1.327 . S
C1557 C1563 1.429 . S
C1558 C1550 1.574 . S
C1558 H1553 0.949 . S
C1558 C1564 1.368 . S
C1559 C1543 1.349 . S
C1559 H1551 0.950 . S
C1559 C1557 1.327 . S
C1560 C1548 1.349 . S
C1560 H1554 0.950 . S
C1560 C1561 1.327 . S
C1561 H1555 0.950 . S
C1561 C1560 1.327 . S
C1561 C1565 1.429 . S
C1562 C1545 1.574 . S
C1562 H1556 0.949 . S
C1562 C1566 1.368 . S
C1563 C1544 1.429 . S
C1563 C1557 1.429 . S
C1563 C1564 1.523 . S
C1564 C1545 1.368 . S
C1564 C1558 1.368 . S
C1564 C1563 1.523 . S
C1565 C1549 1.429 . S
C1565 C1561 1.429 . S
C1565 C1566 1.523 . S
C1566 C1550 1.368 . S
C1566 C1562 1.368 . S
C1566 C1565 1.523 . S
H1567 C1542 0.950 . S
H1568 C1544 0.950 . S
H1569 C1545 0.949 . S
H1570 C1547 0.950 . S
H1571 C1549 0.950 . S
C1572 C1573 1.349 . S
C1572 C1574 1.327 . S
C1572 H1597 0.950 . S
C1573 C1572 1.349 . S
C1573 C1589 1.349 . S
C1574 C1572 1.327 . S
C1574 C1593 1.429 . S
C1574 H1598 0.950 . S
C1575 C1592 1.574 . S
C1575 C1594 1.368 . S
C1575 H1599 0.949 . S
H1576 C1580 0.949 . S
C1577 C1578 1.349 . S
C1577 C1579 1.327 . S
C1577 H1600 0.950 . S
C1578 C1577 1.349 . S
C1578 C1590 1.349 . S
C1579 C1577 1.327 . S
C1579 C1595 1.429 . S
C1579 H1601 0.950 . S
C1580 H1576 0.949 . S
C1580 C1588 1.574 . S
C1580 C1596 1.368 . S
H1581 C1589 0.950 . S
H1582 C1587 0.950 . S
H1583 C1588 0.949 . S
H1584 C1590 0.950 . S
H1585 C1591 0.950 . S
H1586 C1592 0.949 . S
C1587 H1582 0.950 . S
C1587 C1589 1.327 . S
C1587 C1593 1.429 . S
C1588 C1580 1.574 . S
C1588 H1583 0.949 . S
C1588 C1594 1.368 . S
C1589 C1573 1.349 . S
C1589 H1581 0.950 . S
C1589 C1587 1.327 . S
C1590 C1578 1.349 . S
C1590 H1584 0.950 . S
C1590 C1591 1.327 . S
C1591 H1585 0.950 . S
C1591 C1590 1.327 . S
C1591 C1595 1.429 . S
C1592 C1575 1.574 . S
C1592 H1586 0.949 . S
C1592 C1596 1.368 . S
C1593 C1574 1.429 . S
C1593 C1587 1.429 . S
C1593 C1594 1.523 . S
C1594 C1575 1.368 . S
C1594 C1588 1.368 . S
C1594 C1593 1.523 . S
C1595 C1579 1.429 . S
C1595 C1591 1.429 . S
C1595 C1596 1.523 . S
C1596 C1580 1.368 . S
C1596 C1592 1.368 . S
C1596 C1595 1.523 . S
H1597 C1572 0.950 . S
H1598 C1574 0.950 . S
H1599 C1575 0.949 . S
H1600 C1577 0.950 . S
H1601 C1579 0.950 . S
C1602 C1603 1.349 . S
C1602 C1604 1.327 . S
C1602 H1627 0.950 . S
C1603 C1602 1.349 . S
C1603 C1619 1.349 . S
C1604 C1602 1.327 . S
C1604 C1623 1.429 . S
C1604 H1628 0.950 . S
C1605 C1622 1.574 . S
C1605 C1624 1.368 . S
C1605 H1629 0.949 . S
H1606 C1610 0.949 . S
C1607 C1608 1.349 . S
C1607 C1609 1.327 . S
C1607 H1630 0.950 . S
C1608 C1607 1.349 . S
C1608 C1620 1.349 . S
C1609 C1607 1.327 . S
C1609 C1625 1.429 . S
C1609 H1631 0.950 . S
C1610 H1606 0.949 . S
C1610 C1618 1.574 . S
C1610 C1626 1.368 . S
H1611 C1619 0.950 . S
H1612 C1617 0.950 . S
H1613 C1618 0.949 . S
H1614 C1620 0.950 . S
H1615 C1621 0.950 . S
H1616 C1622 0.949 . S
C1617 H1612 0.950 . S
C1617 C1619 1.327 . S
C1617 C1623 1.429 . S
C1618 C1610 1.574 . S
C1618 H1613 0.949 . S
C1618 C1624 1.368 . S
C1619 C1603 1.349 . S
C1619 H1611 0.950 . S
C1619 C1617 1.327 . S
C1620 C1608 1.349 . S
C1620 H1614 0.950 . S
C1620 C1621 1.327 . S
C1621 H1615 0.950 . S
C1621 C1620 1.327 . S
C1621 C1625 1.429 . S
C1622 C1605 1.574 . S
C1622 H1616 0.949 . S
C1622 C1626 1.368 . S
C1623 C1604 1.429 . S
C1623 C1617 1.429 . S
C1623 C1624 1.523 . S
C1624 C1605 1.368 . S
C1624 C1618 1.368 . S
C1624 C1623 1.523 . S
C1625 C1609 1.429 . S
C1625 C1621 1.429 . S
C1625 C1626 1.523 . S
C1626 C1610 1.368 . S
C1626 C1622 1.368 . S
C1626 C1625 1.523 . S
H1627 C1602 0.950 . S
H1628 C1604 0.950 . S
H1629 C1605 0.949 . S
H1630 C1607 0.950 . S
H1631 C1609 0.950 . S
C1632 C1633 1.349 . S
C1632 C1634 1.327 . S
C1632 H1657 0.950 . S
C1633 C1632 1.349 . S
C1633 C1649 1.349 . S
C1634 C1632 1.327 . S
C1634 C1653 1.429 . S
C1634 H1658 0.950 . S
C1635 C1652 1.574 . S
C1635 C1654 1.368 . S
C1635 H1659 0.949 . S
H1636 C1640 0.949 . S
C1637 C1638 1.349 . S
C1637 C1639 1.327 . S
C1637 H1660 0.950 . S
C1638 C1637 1.349 . S
C1638 C1650 1.349 . S
C1639 C1637 1.327 . S
C1639 C1655 1.429 . S
C1639 H1661 0.950 . S
C1640 H1636 0.949 . S
C1640 C1648 1.574 . S
C1640 C1656 1.368 . S
H1641 C1649 0.950 . S
H1642 C1647 0.950 . S
H1643 C1648 0.949 . S
H1644 C1650 0.950 . S
H1645 C1651 0.950 . S
H1646 C1652 0.949 . S
C1647 H1642 0.950 . S
C1647 C1649 1.327 . S
C1647 C1653 1.429 . S
C1648 C1640 1.574 . S
C1648 H1643 0.949 . S
C1648 C1654 1.368 . S
C1649 C1633 1.349 . S
C1649 H1641 0.950 . S
C1649 C1647 1.327 . S
C1650 C1638 1.349 . S
C1650 H1644 0.950 . S
C1650 C1651 1.327 . S
C1651 H1645 0.950 . S
C1651 C1650 1.327 . S
C1651 C1655 1.429 . S
C1652 C1635 1.574 . S
C1652 H1646 0.949 . S
C1652 C1656 1.368 . S
C1653 C1634 1.429 . S
C1653 C1647 1.429 . S
C1653 C1654 1.523 . S
C1654 C1635 1.368 . S
C1654 C1648 1.368 . S
C1654 C1653 1.523 . S
C1655 C1639 1.429 . S
C1655 C1651 1.429 . S
C1655 C1656 1.523 . S
C1656 C1640 1.368 . S
C1656 C1652 1.368 . S
C1656 C1655 1.523 . S
H1657 C1632 0.950 . S
H1658 C1634 0.950 . S
H1659 C1635 0.949 . S
H1660 C1637 0.950 . S
H1661 C1639 0.950 . S
C1662 C1663 1.349 . S
C1662 C1664 1.327 . S
C1662 H1687 0.950 . S
C1663 C1662 1.349 . S
C1663 C1679 1.349 . S
C1664 C1662 1.327 . S
C1664 C1683 1.429 . S
C1664 H1688 0.950 . S
C1665 C1682 1.574 . S
C1665 C1684 1.368 . S
C1665 H1689 0.949 . S
H1666 C1670 0.949 . S
C1667 C1668 1.349 . S
C1667 C1669 1.327 . S
C1667 H1690 0.950 . S
C1668 C1667 1.349 . S
C1668 C1680 1.349 . S
C1669 C1667 1.327 . S
C1669 C1685 1.429 . S
C1669 H1691 0.950 . S
C1670 H1666 0.949 . S
C1670 C1678 1.574 . S
C1670 C1686 1.368 . S
H1671 C1679 0.950 . S
H1672 C1677 0.950 . S
H1673 C1678 0.949 . S
H1674 C1680 0.950 . S
H1675 C1681 0.950 . S
H1676 C1682 0.949 . S
C1677 H1672 0.950 . S
C1677 C1679 1.327 . S
C1677 C1683 1.429 . S
C1678 C1670 1.574 . S
C1678 H1673 0.949 . S
C1678 C1684 1.368 . S
C1679 C1663 1.349 . S
C1679 H1671 0.950 . S
C1679 C1677 1.327 . S
C1680 C1668 1.349 . S
C1680 H1674 0.950 . S
C1680 C1681 1.327 . S
C1681 H1675 0.950 . S
C1681 C1680 1.327 . S
C1681 C1685 1.429 . S
C1682 C1665 1.574 . S
C1682 H1676 0.949 . S
C1682 C1686 1.368 . S
C1683 C1664 1.429 . S
C1683 C1677 1.429 . S
C1683 C1684 1.523 . S
C1684 C1665 1.368 . S
C1684 C1678 1.368 . S
C1684 C1683 1.523 . S
C1685 C1669 1.429 . S
C1685 C1681 1.429 . S
C1685 C1686 1.523 . S
C1686 C1670 1.368 . S
C1686 C1682 1.368 . S
C1686 C1685 1.523 . S
H1687 C1662 0.950 . S
H1688 C1664 0.950 . S
H1689 C1665 0.949 . S
H1690 C1667 0.950 . S
H1691 C1669 0.950 . S
C1692 C1693 1.349 . S
C1692 C1694 1.327 . S
C1692 H1717 0.950 . S
C1693 C1692 1.349 . S
C1693 C1709 1.349 . S
C1694 C1692 1.327 . S
C1694 C1713 1.429 . S
C1694 H1718 0.950 . S
C1695 C1712 1.574 . S
C1695 C1714 1.368 . S
C1695 H1719 0.949 . S
H1696 C1700 0.949 . S
C1697 C1698 1.349 . S
C1697 C1699 1.327 . S
C1697 H1720 0.950 . S
C1698 C1697 1.349 . S
C1698 C1710 1.349 . S
C1699 C1697 1.327 . S
C1699 C1715 1.429 . S
C1699 H1721 0.950 . S
C1700 H1696 0.949 . S
C1700 C1708 1.574 . S
C1700 C1716 1.368 . S
H1701 C1709 0.950 . S
H1702 C1707 0.950 . S
H1703 C1708 0.949 . S
H1704 C1710 0.950 . S
H1705 C1711 0.950 . S
H1706 C1712 0.949 . S
C1707 H1702 0.950 . S
C1707 C1709 1.327 . S
C1707 C1713 1.429 . S
C1708 C1700 1.574 . S
C1708 H1703 0.949 . S
C1708 C1714 1.368 . S
C1709 C1693 1.349 . S
C1709 H1701 0.950 . S
C1709 C1707 1.327 . S
C1710 C1698 1.349 . S
C1710 H1704 0.950 . S
C1710 C1711 1.327 . S
C1711 H1705 0.950 . S
C1711 C1710 1.327 . S
C1711 C1715 1.429 . S
C1712 C1695 1.574 . S
C1712 H1706 0.949 . S
C1712 C1716 1.368 . S
C1713 C1694 1.429 . S
C1713 C1707 1.429 . S
C1713 C1714 1.523 . S
C1714 C1695 1.368 . S
C1714 C1708 1.368 . S
C1714 C1713 1.523 . S
C1715 C1699 1.429 . S
C1715 C1711 1.429 . S
C1715 C1716 1.523 . S
C1716 C1700 1.368 . S
C1716 C1712 1.368 . S
C1716 C1715 1.523 . S
H1717 C1692 0.950 . S
H1718 C1694 0.950 . S
H1719 C1695 0.949 . S
H1720 C1697 0.950 . S
H1721 C1699 0.950 . S
C1722 C1723 1.349 . S
C1722 C1724 1.327 . S
C1722 H1747 0.950 . S
C1723 C1722 1.349 . S
C1723 C1739 1.349 . S
C1724 C1722 1.327 . S
C1724 C1743 1.429 . S
C1724 H1748 0.950 . S
C1725 C1742 1.574 . S
C1725 C1744 1.368 . S
C1725 H1749 0.949 . S
H1726 C1730 0.949 . S
C1727 C1728 1.349 . S
C1727 C1729 1.327 . S
C1727 H1750 0.950 . S
C1728 C1727 1.349 . S
C1728 C1740 1.349 . S
C1729 C1727 1.327 . S
C1729 C1745 1.429 . S
C1729 H1751 0.950 . S
C1730 H1726 0.949 . S
C1730 C1738 1.574 . S
C1730 C1746 1.368 . S
H1731 C1739 0.950 . S
H1732 C1737 0.950 . S
H1733 C1738 0.949 . S
H1734 C1740 0.950 . S
H1735 C1741 0.950 . S
H1736 C1742 0.949 . S
C1737 H1732 0.950 . S
C1737 C1739 1.327 . S
C1737 C1743 1.429 . S
C1738 C1730 1.574 . S
C1738 H1733 0.949 . S
C1738 C1744 1.368 . S
C1739 C1723 1.349 . S
C1739 H1731 0.950 . S
C1739 C1737 1.327 . S
C1740 C1728 1.349 . S
C1740 H1734 0.950 . S
C1740 C1741 1.327 . S
C1741 H1735 0.950 . S
C1741 C1740 1.327 . S
C1741 C1745 1.429 . S
C1742 C1725 1.574 . S
C1742 H1736 0.949 . S
C1742 C1746 1.368 . S
C1743 C1724 1.429 . S
C1743 C1737 1.429 . S
C1743 C1744 1.523 . S
C1744 C1725 1.368 . S
C1744 C1738 1.368 . S
C1744 C1743 1.523 . S
C1745 C1729 1.429 . S
C1745 C1741 1.429 . S
C1745 C1746 1.523 . S
C1746 C1730 1.368 . S
C1746 C1742 1.368 . S
C1746 C1745 1.523 . S
H1747 C1722 0.950 . S
H1748 C1724 0.950 . S
H1749 C1725 0.949 . S
H1750 C1727 0.950 . S
H1751 C1729 0.950 . S
C1752 C1753 1.349 . S
C1752 C1754 1.327 . S
C1752 H1777 0.950 . S
C1753 C1752 1.349 . S
C1753 C1769 1.349 . S
C1754 C1752 1.327 . S
C1754 C1773 1.429 . S
C1754 H1778 0.950 . S
C1755 C1772 1.574 . S
C1755 C1774 1.368 . S
C1755 H1779 0.949 . S
H1756 C1760 0.949 . S
C1757 C1758 1.349 . S
C1757 C1759 1.327 . S
C1757 H1780 0.950 . S
C1758 C1757 1.349 . S
C1758 C1770 1.349 . S
C1759 C1757 1.327 . S
C1759 C1775 1.429 . S
C1759 H1781 0.950 . S
C1760 H1756 0.949 . S
C1760 C1768 1.574 . S
C1760 C1776 1.368 . S
H1761 C1769 0.950 . S
H1762 C1767 0.950 . S
H1763 C1768 0.949 . S
H1764 C1770 0.950 . S
H1765 C1771 0.950 . S
H1766 C1772 0.949 . S
C1767 H1762 0.950 . S
C1767 C1769 1.327 . S
C1767 C1773 1.429 . S
C1768 C1760 1.574 . S
C1768 H1763 0.949 . S
C1768 C1774 1.368 . S
C1769 C1753 1.349 . S
C1769 H1761 0.950 . S
C1769 C1767 1.327 . S
C1770 C1758 1.349 . S
C1770 H1764 0.950 . S
C1770 C1771 1.327 . S
C1771 H1765 0.950 . S
C1771 C1770 1.327 . S
C1771 C1775 1.429 . S
C1772 C1755 1.574 . S
C1772 H1766 0.949 . S
C1772 C1776 1.368 . S
C1773 C1754 1.429 . S
C1773 C1767 1.429 . S
C1773 C1774 1.523 . S
C1774 C1755 1.368 . S
C1774 C1768 1.368 . S
C1774 C1773 1.523 . S
C1775 C1759 1.429 . S
C1775 C1771 1.429 . S
C1775 C1776 1.523 . S
C1776 C1760 1.368 . S
C1776 C1772 1.368 . S
C1776 C1775 1.523 . S
H1777 C1752 0.950 . S
H1778 C1754 0.950 . S
H1779 C1755 0.949 . S
H1780 C1757 0.950 . S
H1781 C1759 0.950 . S
C1782 C1783 1.349 . S
C1782 C1784 1.327 . S
C1782 H1807 0.950 . S
C1783 C1782 1.349 . S
C1783 C1799 1.349 . S
C1784 C1782 1.327 . S
C1784 C1803 1.429 . S
C1784 H1808 0.950 . S
C1785 C1802 1.574 . S
C1785 C1804 1.368 . S
C1785 H1809 0.949 . S
H1786 C1790 0.949 . S
C1787 C1788 1.349 . S
C1787 C1789 1.327 . S
C1787 H1810 0.950 . S
C1788 C1787 1.349 . S
C1788 C1800 1.349 . S
C1789 C1787 1.327 . S
C1789 C1805 1.429 . S
C1789 H1811 0.950 . S
C1790 H1786 0.949 . S
C1790 C1798 1.574 . S
C1790 C1806 1.368 . S
H1791 C1799 0.950 . S
H1792 C1797 0.950 . S
H1793 C1798 0.949 . S
H1794 C1800 0.950 . S
H1795 C1801 0.950 . S
H1796 C1802 0.949 . S
C1797 H1792 0.950 . S
C1797 C1799 1.327 . S
C1797 C1803 1.429 . S
C1798 C1790 1.574 . S
C1798 H1793 0.949 . S
C1798 C1804 1.368 . S
C1799 C1783 1.349 . S
C1799 H1791 0.950 . S
C1799 C1797 1.327 . S
C1800 C1788 1.349 . S
C1800 H1794 0.950 . S
C1800 C1801 1.327 . S
C1801 H1795 0.950 . S
C1801 C1800 1.327 . S
C1801 C1805 1.429 . S
C1802 C1785 1.574 . S
C1802 H1796 0.949 . S
C1802 C1806 1.368 . S
C1803 C1784 1.429 . S
C1803 C1797 1.429 . S
C1803 C1804 1.523 . S
C1804 C1785 1.368 . S
C1804 C1798 1.368 . S
C1804 C1803 1.523 . S
C1805 C1789 1.429 . S
C1805 C1801 1.429 . S
C1805 C1806 1.523 . S
C1806 C1790 1.368 . S
C1806 C1802 1.368 . S
C1806 C1805 1.523 . S
H1807 C1782 0.950 . S
H1808 C1784 0.950 . S
H1809 C1785 0.949 . S
H1810 C1787 0.950 . S
H1811 C1789 0.950 . S
C1812 C1813 1.349 . S
C1812 C1814 1.327 . S
C1812 H1837 0.950 . S
C1813 C1812 1.349 . S
C1813 C1829 1.349 . S
C1814 C1812 1.327 . S
C1814 C1833 1.429 . S
C1814 H1838 0.950 . S
C1815 C1832 1.574 . S
C1815 C1834 1.368 . S
C1815 H1839 0.949 . S
H1816 C1820 0.949 . S
C1817 C1818 1.349 . S
C1817 C1819 1.327 . S
C1817 H1840 0.950 . S
C1818 C1817 1.349 . S
C1818 C1830 1.349 . S
C1819 C1817 1.327 . S
C1819 C1835 1.429 . S
C1819 H1841 0.950 . S
C1820 H1816 0.949 . S
C1820 C1828 1.574 . S
C1820 C1836 1.368 . S
H1821 C1829 0.950 . S
H1822 C1827 0.950 . S
H1823 C1828 0.949 . S
H1824 C1830 0.950 . S
H1825 C1831 0.950 . S
H1826 C1832 0.949 . S
C1827 H1822 0.950 . S
C1827 C1829 1.327 . S
C1827 C1833 1.429 . S
C1828 C1820 1.574 . S
C1828 H1823 0.949 . S
C1828 C1834 1.368 . S
C1829 C1813 1.349 . S
C1829 H1821 0.950 . S
C1829 C1827 1.327 . S
C1830 C1818 1.349 . S
C1830 H1824 0.950 . S
C1830 C1831 1.327 . S
C1831 H1825 0.950 . S
C1831 C1830 1.327 . S
C1831 C1835 1.429 . S
C1832 C1815 1.574 . S
C1832 H1826 0.949 . S
C1832 C1836 1.368 . S
C1833 C1814 1.429 . S
C1833 C1827 1.429 . S
C1833 C1834 1.523 . S
C1834 C1815 1.368 . S
C1834 C1828 1.368 . S
C1834 C1833 1.523 . S
C1835 C1819 1.429 . S
C1835 C1831 1.429 . S
C1835 C1836 1.523 . S
C1836 C1820 1.368 . S
C1836 C1832 1.368 . S
C1836 C1835 1.523 . S
H1837 C1812 0.950 . S
H1838 C1814 0.950 . S
H1839 C1815 0.949 . S
H1840 C1817 0.950 . S
H1841 C1819 0.950 . S
C1842 C1843 1.349 . S
C1842 C1844 1.327 . S
C1842 H1867 0.950 . S
C1843 C1842 1.349 . S
C1843 C1859 1.349 . S
C1844 C1842 1.327 . S
C1844 C1863 1.429 . S
C1844 H1868 0.950 . S
C1845 C1862 1.574 . S
C1845 C1864 1.368 . S
C1845 H1869 0.949 . S
H1846 C1850 0.949 . S
C1847 C1848 1.349 . S
C1847 C1849 1.327 . S
C1847 H1870 0.950 . S
C1848 C1847 1.349 . S
C1848 C1860 1.349 . S
C1849 C1847 1.327 . S
C1849 C1865 1.429 . S
C1849 H1871 0.950 . S
C1850 H1846 0.949 . S
C1850 C1858 1.574 . S
C1850 C1866 1.368 . S
H1851 C1859 0.950 . S
H1852 C1857 0.950 . S
H1853 C1858 0.949 . S
H1854 C1860 0.950 . S
H1855 C1861 0.950 . S
H1856 C1862 0.949 . S
C1857 H1852 0.950 . S
C1857 C1859 1.327 . S
C1857 C1863 1.429 . S
C1858 C1850 1.574 . S
C1858 H1853 0.949 . S
C1858 C1864 1.368 . S
C1859 C1843 1.349 . S
C1859 H1851 0.950 . S
C1859 C1857 1.327 . S
C1860 C1848 1.349 . S
C1860 H1854 0.950 . S
C1860 C1861 1.327 . S
C1861 H1855 0.950 . S
C1861 C1860 1.327 . S
C1861 C1865 1.429 . S
C1862 C1845 1.574 . S
C1862 H1856 0.949 . S
C1862 C1866 1.368 . S
C1863 C1844 1.429 . S
C1863 C1857 1.429 . S
C1863 C1864 1.523 . S
C1864 C1845 1.368 . S
C1864 C1858 1.368 . S
C1864 C1863 1.523 . S
C1865 C1849 1.429 . S
C1865 C1861 1.429 . S
C1865 C1866 1.523 . S
C1866 C1850 1.368 . S
C1866 C1862 1.368 . S
C1866 C1865 1.523 . S
H1867 C1842 0.950 . S
H1868 C1844 0.950 . S
H1869 C1845 0.949 . S
H1870 C1847 0.950 . S
H1871 C1849 0.950 . S
C1872 C1873 1.349 . S
C1872 C1874 1.327 . S
C1872 H1897 0.950 . S
C1873 C1872 1.349 . S
C1873 C1889 1.349 . S
C1874 C1872 1.327 . S
C1874 C1893 1.429 . S
C1874 H1898 0.950 . S
C1875 C1892 1.574 . S
C1875 C1894 1.368 . S
C1875 H1899 0.949 . S
H1876 C1880 0.949 . S
C1877 C1878 1.349 . S
C1877 C1879 1.327 . S
C1877 H1900 0.950 . S
C1878 C1877 1.349 . S
C1878 C1890 1.349 . S
C1879 C1877 1.327 . S
C1879 C1895 1.429 . S
C1879 H1901 0.950 . S
C1880 H1876 0.949 . S
C1880 C1888 1.574 . S
C1880 C1896 1.368 . S
H1881 C1889 0.950 . S
H1882 C1887 0.950 . S
H1883 C1888 0.949 . S
H1884 C1890 0.950 . S
H1885 C1891 0.950 . S
H1886 C1892 0.949 . S
C1887 H1882 0.950 . S
C1887 C1889 1.327 . S
C1887 C1893 1.429 . S
C1888 C1880 1.574 . S
C1888 H1883 0.949 . S
C1888 C1894 1.368 . S
C1889 C1873 1.349 . S
C1889 H1881 0.950 . S
C1889 C1887 1.327 . S
C1890 C1878 1.349 . S
C1890 H1884 0.950 . S
C1890 C1891 1.327 . S
C1891 H1885 0.950 . S
C1891 C1890 1.327 . S
C1891 C1895 1.429 . S
C1892 C1875 1.574 . S
C1892 H1886 0.949 . S
C1892 C1896 1.368 . S
C1893 C1874 1.429 . S
C1893 C1887 1.429 . S
C1893 C1894 1.523 . S
C1894 C1875 1.368 . S
C1894 C1888 1.368 . S
C1894 C1893 1.523 . S
C1895 C1879 1.429 . S
C1895 C1891 1.429 . S
C1895 C1896 1.523 . S
C1896 C1880 1.368 . S
C1896 C1892 1.368 . S
C1896 C1895 1.523 . S
H1897 C1872 0.950 . S
H1898 C1874 0.950 . S
H1899 C1875 0.949 . S
H1900 C1877 0.950 . S
H1901 C1879 0.950 . S
C1902 C1903 1.349 . S
C1902 C1904 1.327 . S
C1902 H1927 0.950 . S
C1903 C1902 1.349 . S
C1903 C1919 1.349 . S
C1904 C1902 1.327 . S
C1904 C1923 1.429 . S
C1904 H1928 0.950 . S
C1905 C1922 1.574 . S
C1905 C1924 1.368 . S
C1905 H1929 0.949 . S
H1906 C1910 0.949 . S
C1907 C1908 1.349 . S
C1907 C1909 1.327 . S
C1907 H1930 0.950 . S
C1908 C1907 1.349 . S
C1908 C1920 1.349 . S
C1909 C1907 1.327 . S
C1909 C1925 1.429 . S
C1909 H1931 0.950 . S
C1910 H1906 0.949 . S
C1910 C1918 1.574 . S
C1910 C1926 1.368 . S
H1911 C1919 0.950 . S
H1912 C1917 0.950 . S
H1913 C1918 0.949 . S
H1914 C1920 0.950 . S
H1915 C1921 0.950 . S
H1916 C1922 0.949 . S
C1917 H1912 0.950 . S
C1917 C1919 1.327 . S
C1917 C1923 1.429 . S
C1918 C1910 1.574 . S
C1918 H1913 0.949 . S
C1918 C1924 1.368 . S
C1919 C1903 1.349 . S
C1919 H1911 0.950 . S
C1919 C1917 1.327 . S
C1920 C1908 1.349 . S
C1920 H1914 0.950 . S
C1920 C1921 1.327 . S
C1921 H1915 0.950 . S
C1921 C1920 1.327 . S
C1921 C1925 1.429 . S
C1922 C1905 1.574 . S
C1922 H1916 0.949 . S
C1922 C1926 1.368 . S
C1923 C1904 1.429 . S
C1923 C1917 1.429 . S
C1923 C1924 1.523 . S
C1924 C1905 1.368 . S
C1924 C1918 1.368 . S
C1924 C1923 1.523 . S
C1925 C1909 1.429 . S
C1925 C1921 1.429 . S
C1925 C1926 1.523 . S
C1926 C1910 1.368 . S
C1926 C1922 1.368 . S
C1926 C1925 1.523 . S
H1927 C1902 0.950 . S
H1928 C1904 0.950 . S
H1929 C1905 0.949 . S
H1930 C1907 0.950 . S
H1931 C1909 0.950 . S
C1932 C1933 1.349 . S
C1932 C1934 1.327 . S
C1932 H1957 0.950 . S
C1933 C1932 1.349 . S
C1933 C1949 1.349 . S
C1934 C1932 1.327 . S
C1934 C1953 1.429 . S
C1934 H1958 0.950 . S
C1935 C1952 1.574 . S
C1935 C1954 1.368 . S
C1935 H1959 0.949 . S
H1936 C1940 0.949 . S
C1937 C1938 1.349 . S
C1937 C1939 1.327 . S
C1937 H1960 0.950 . S
C1938 C1937 1.349 . S
C1938 C1950 1.349 . S
C1939 C1937 1.327 . S
C1939 C1955 1.429 . S
C1939 H1961 0.950 . S
C1940 H1936 0.949 . S
C1940 C1948 1.574 . S
C1940 C1956 1.368 . S
H1941 C1949 0.950 . S
H1942 C1947 0.950 . S
H1943 C1948 0.949 . S
H1944 C1950 0.950 . S
H1945 C1951 0.950 . S
H1946 C1952 0.949 . S
C1947 H1942 0.950 . S
C1947 C1949 1.327 . S
C1947 C1953 1.429 . S
C1948 C1940 1.574 . S
C1948 H1943 0.949 . S
C1948 C1954 1.368 . S
C1949 C1933 1.349 . S
C1949 H1941 0.950 . S
C1949 C1947 1.327 . S
C1950 C1938 1.349 . S
C1950 H1944 0.950 . S
C1950 C1951 1.327 . S
C1951 H1945 0.950 . S
C1951 C1950 1.327 . S
C1951 C1955 1.429 . S
C1952 C1935 1.574 . S
C1952 H1946 0.949 . S
C1952 C1956 1.368 . S
C1953 C1934 1.429 . S
C1953 C1947 1.429 . S
C1953 C1954 1.523 . S
C1954 C1935 1.368 . S
C1954 C1948 1.368 . S
C1954 C1953 1.523 . S
C1955 C1939 1.429 . S
C1955 C1951 1.429 . S
C1955 C1956 1.523 . S
C1956 C1940 1.368 . S
C1956 C1952 1.368 . S
C1956 C1955 1.523 . S
H1957 C1932 0.950 . S
H1958 C1934 0.950 . S
H1959 C1935 0.949 . S
H1960 C1937 0.950 . S
H1961 C1939 0.950 . S
C1962 C1963 1.349 . S
C1962 C1964 1.327 . S
C1962 H1987 0.950 . S
C1963 C1962 1.349 . S
C1963 C1979 1.349 . S
C1964 C1962 1.327 . S
C1964 C1983 1.429 . S
C1964 H1988 0.950 . S
C1965 C1982 1.574 . S
C1965 C1984 1.368 . S
C1965 H1989 0.949 . S
H1966 C1970 0.949 . S
C1967 C1968 1.349 . S
C1967 C1969 1.327 . S
C1967 H1990 0.950 . S
C1968 C1967 1.349 . S
C1968 C1980 1.349 . S
C1969 C1967 1.327 . S
C1969 C1985 1.429 . S
C1969 H1991 0.950 . S
C1970 H1966 0.949 . S
C1970 C1978 1.574 . S
C1970 C1986 1.368 . S
H1971 C1979 0.950 . S
H1972 C1977 0.950 . S
H1973 C1978 0.949 . S
H1974 C1980 0.950 . S
H1975 C1981 0.950 . S
H1976 C1982 0.949 . S
C1977 H1972 0.950 . S
C1977 C1979 1.327 . S
C1977 C1983 1.429 . S
C1978 C1970 1.574 . S
C1978 H1973 0.949 . S
C1978 C1984 1.368 . S
C1979 C1963 1.349 . S
C1979 H1971 0.950 . S
C1979 C1977 1.327 . S
C1980 C1968 1.349 . S
C1980 H1974 0.950 . S
C1980 C1981 1.327 . S
C1981 H1975 0.950 . S
C1981 C1980 1.327 . S
C1981 C1985 1.429 . S
C1982 C1965 1.574 . S
C1982 H1976 0.949 . S
C1982 C1986 1.368 . S
C1983 C1964 1.429 . S
C1983 C1977 1.429 . S
C1983 C1984 1.523 . S
C1984 C1965 1.368 . S
C1984 C1978 1.368 . S
C1984 C1983 1.523 . S
C1985 C1969 1.429 . S
C1985 C1981 1.429 . S
C1985 C1986 1.523 . S
C1986 C1970 1.368 . S
C1986 C1982 1.368 . S
C1986 C1985 1.523 . S
H1987 C1962 0.950 . S
H1988 C1964 0.950 . S
H1989 C1965 0.949 . S
H1990 C1967 0.950 . S
H1991 C1969 0.950 . S
C1992 C1993 1.349 . S
C1992 C1994 1.327 . S
C1992 H2017 0.950 . S
C1993 C1992 1.349 . S
C1993 C2009 1.349 . S
C1994 C1992 1.327 . S
C1994 C2013 1.429 . S
C1994 H2018 0.950 . S
C1995 C2012 1.574 . S
C1995 C2014 1.368 . S
C1995 H2019 0.949 . S
H1996 C2000 0.949 . S
C1997 C1998 1.349 . S
C1997 C1999 1.327 . S
C1997 H2020 0.950 . S
C1998 C1997 1.349 . S
C1998 C2010 1.349 . S
C1999 C1997 1.327 . S
C1999 C2015 1.429 . S
C1999 H2021 0.950 . S
C2000 H1996 0.949 . S
C2000 C2008 1.574 . S
C2000 C2016 1.368 . S
H2001 C2009 0.950 . S
H2002 C2007 0.950 . S
H2003 C2008 0.949 . S
H2004 C2010 0.950 . S
H2005 C2011 0.950 . S
H2006 C2012 0.949 . S
C2007 H2002 0.950 . S
C2007 C2009 1.327 . S
C2007 C2013 1.429 . S
C2008 C2000 1.574 . S
C2008 H2003 0.949 . S
C2008 C2014 1.368 . S
C2009 C1993 1.349 . S
C2009 H2001 0.950 . S
C2009 C2007 1.327 . S
C2010 C1998 1.349 . S
C2010 H2004 0.950 . S
C2010 C2011 1.327 . S
C2011 H2005 0.950 . S
C2011 C2010 1.327 . S
C2011 C2015 1.429 . S
C2012 C1995 1.574 . S
C2012 H2006 0.949 . S
C2012 C2016 1.368 . S
C2013 C1994 1.429 . S
C2013 C2007 1.429 . S
C2013 C2014 1.523 . S
C2014 C1995 1.368 . S
C2014 C2008 1.368 . S
C2014 C2013 1.523 . S
C2015 C1999 1.429 . S
C2015 C2011 1.429 . S
C2015 C2016 1.523 . S
C2016 C2000 1.368 . S
C2016 C2012 1.368 . S
C2016 C2015 1.523 . S
H2017 C1992 0.950 . S
H2018 C1994 0.950 . S
H2019 C1995 0.949 . S
H2020 C1997 0.950 . S
H2021 C1999 0.950 . S
C2022 C2023 1.349 . S
C2022 C2024 1.327 . S
C2022 H2047 0.950 . S
C2023 C2022 1.349 . S
C2023 C2039 1.349 . S
C2024 C2022 1.327 . S
C2024 C2043 1.429 . S
C2024 H2048 0.950 . S
C2025 C2042 1.574 . S
C2025 C2044 1.368 . S
C2025 H2049 0.949 . S
H2026 C2030 0.949 . S
C2027 C2028 1.349 . S
C2027 C2029 1.327 . S
C2027 H2050 0.950 . S
C2028 C2027 1.349 . S
C2028 C2040 1.349 . S
C2029 C2027 1.327 . S
C2029 C2045 1.429 . S
C2029 H2051 0.950 . S
C2030 H2026 0.949 . S
C2030 C2038 1.574 . S
C2030 C2046 1.368 . S
H2031 C2039 0.950 . S
H2032 C2037 0.950 . S
H2033 C2038 0.949 . S
H2034 C2040 0.950 . S
H2035 C2041 0.950 . S
H2036 C2042 0.949 . S
C2037 H2032 0.950 . S
C2037 C2039 1.327 . S
C2037 C2043 1.429 . S
C2038 C2030 1.574 . S
C2038 H2033 0.949 . S
C2038 C2044 1.368 . S
C2039 C2023 1.349 . S
C2039 H2031 0.950 . S
C2039 C2037 1.327 . S
C2040 C2028 1.349 . S
C2040 H2034 0.950 . S
C2040 C2041 1.327 . S
C2041 H2035 0.950 . S
C2041 C2040 1.327 . S
C2041 C2045 1.429 . S
C2042 C2025 1.574 . S
C2042 H2036 0.949 . S
C2042 C2046 1.368 . S
C2043 C2024 1.429 . S
C2043 C2037 1.429 . S
C2043 C2044 1.523 . S
C2044 C2025 1.368 . S
C2044 C2038 1.368 . S
C2044 C2043 1.523 . S
C2045 C2029 1.429 . S
C2045 C2041 1.429 . S
C2045 C2046 1.523 . S
C2046 C2030 1.368 . S
C2046 C2042 1.368 . S
C2046 C2045 1.523 . S
H2047 C2022 0.950 . S
H2048 C2024 0.950 . S
H2049 C2025 0.949 . S
H2050 C2027 0.950 . S
H2051 C2029 0.950 . S
C2052 C2053 1.349 . S
C2052 C2054 1.327 . S
C2052 H2077 0.950 . S
C2053 C2052 1.349 . S
C2053 C2069 1.349 . S
C2054 C2052 1.327 . S
C2054 C2073 1.429 . S
C2054 H2078 0.950 . S
C2055 C2072 1.574 . S
C2055 C2074 1.368 . S
C2055 H2079 0.949 . S
H2056 C2060 0.949 . S
C2057 C2058 1.349 . S
C2057 C2059 1.327 . S
C2057 H2080 0.950 . S
C2058 C2057 1.349 . S
C2058 C2070 1.349 . S
C2059 C2057 1.327 . S
C2059 C2075 1.429 . S
C2059 H2081 0.950 . S
C2060 H2056 0.949 . S
C2060 C2068 1.574 . S
C2060 C2076 1.368 . S
H2061 C2069 0.950 . S
H2062 C2067 0.950 . S
H2063 C2068 0.949 . S
H2064 C2070 0.950 . S
H2065 C2071 0.950 . S
H2066 C2072 0.949 . S
C2067 H2062 0.950 . S
C2067 C2069 1.327 . S
C2067 C2073 1.429 . S
C2068 C2060 1.574 . S
C2068 H2063 0.949 . S
C2068 C2074 1.368 . S
C2069 C2053 1.349 . S
C2069 H2061 0.950 . S
C2069 C2067 1.327 . S
C2070 C2058 1.349 . S
C2070 H2064 0.950 . S
C2070 C2071 1.327 . S
C2071 H2065 0.950 . S
C2071 C2070 1.327 . S
C2071 C2075 1.429 . S
C2072 C2055 1.574 . S
C2072 H2066 0.949 . S
C2072 C2076 1.368 . S
C2073 C2054 1.429 . S
C2073 C2067 1.429 . S
C2073 C2074 1.523 . S
C2074 C2055 1.368 . S
C2074 C2068 1.368 . S
C2074 C2073 1.523 . S
C2075 C2059 1.429 . S
C2075 C2071 1.429 . S
C2075 C2076 1.523 . S
C2076 C2060 1.368 . S
C2076 C2072 1.368 . S
C2076 C2075 1.523 . S
H2077 C2052 0.950 . S
H2078 C2054 0.950 . S
H2079 C2055 0.949 . S
H2080 C2057 0.950 . S
H2081 C2059 0.950 . S
C2082 C2083 1.349 . S
C2082 C2084 1.327 . S
C2082 H2107 0.950 . S
C2083 C2082 1.349 . S
C2083 C2099 1.349 . S
C2084 C2082 1.327 . S
C2084 C2103 1.429 . S
C2084 H2108 0.950 . S
C2085 C2102 1.574 . S
C2085 C2104 1.368 . S
C2085 H2109 0.949 . S
H2086 C2090 0.949 . S
C2087 C2088 1.349 . S
C2087 C2089 1.327 . S
C2087 H2110 0.950 . S
C2088 C2087 1.349 . S
C2088 C2100 1.349 . S
C2089 C2087 1.327 . S
C2089 C2105 1.429 . S
C2089 H2111 0.950 . S
C2090 H2086 0.949 . S
C2090 C2098 1.574 . S
C2090 C2106 1.368 . S
H2091 C2099 0.950 . S
H2092 C2097 0.950 . S
H2093 C2098 0.949 . S
H2094 C2100 0.950 . S
H2095 C2101 0.950 . S
H2096 C2102 0.949 . S
C2097 H2092 0.950 . S
C2097 C2099 1.327 . S
C2097 C2103 1.429 . S
C2098 C2090 1.574 . S
C2098 H2093 0.949 . S
C2098 C2104 1.368 . S
C2099 C2083 1.349 . S
C2099 H2091 0.950 . S
C2099 C2097 1.327 . S
C2100 C2088 1.349 . S
C2100 H2094 0.950 . S
C2100 C2101 1.327 . S
C2101 H2095 0.950 . S
C2101 C2100 1.327 . S
C2101 C2105 1.429 . S
C2102 C2085 1.574 . S
C2102 H2096 0.949 . S
C2102 C2106 1.368 . S
C2103 C2084 1.429 . S
C2103 C2097 1.429 . S
C2103 C2104 1.523 . S
C2104 C2085 1.368 . S
C2104 C2098 1.368 . S
C2104 C2103 1.523 . S
C2105 C2089 1.429 . S
C2105 C2101 1.429 . S
C2105 C2106 1.523 . S
C2106 C2090 1.368 . S
C2106 C2102 1.368 . S
C2106 C2105 1.523 . S
H2107 C2082 0.950 . S
H2108 C2084 0.950 . S
H2109 C2085 0.949 . S
H2110 C2087 0.950 . S
H2111 C2089 0.950 . S
C2112 C2113 1.349 . S
C2112 C2114 1.327 . S
C2112 H2137 0.950 . S
C2113 C2112 1.349 . S
C2113 C2129 1.349 . S
C2114 C2112 1.327 . S
C2114 C2133 1.429 . S
C2114 H2138 0.950 . S
C2115 C2132 1.574 . S
C2115 C2134 1.368 . S
C2115 H2139 0.949 . S
H2116 C2120 0.949 . S
C2117 C2118 1.349 . S
C2117 C2119 1.327 . S
C2117 H2140 0.950 . S
C2118 C2117 1.349 . S
C2118 C2130 1.349 . S
C2119 C2117 1.327 . S
C2119 C2135 1.429 . S
C2119 H2141 0.950 . S
C2120 H2116 0.949 . S
C2120 C2128 1.574 . S
C2120 C2136 1.368 . S
H2121 C2129 0.950 . S
H2122 C2127 0.950 . S
H2123 C2128 0.949 . S
H2124 C2130 0.950 . S
H2125 C2131 0.950 . S
H2126 C2132 0.949 . S
C2127 H2122 0.950 . S
C2127 C2129 1.327 . S
C2127 C2133 1.429 . S
C2128 C2120 1.574 . S
C2128 H2123 0.949 . S
C2128 C2134 1.368 . S
C2129 C2113 1.349 . S
C2129 H2121 0.950 . S
C2129 C2127 1.327 . S
C2130 C2118 1.349 . S
C2130 H2124 0.950 . S
C2130 C2131 1.327 . S
C2131 H2125 0.950 . S
C2131 C2130 1.327 . S
C2131 C2135 1.429 . S
C2132 C2115 1.574 . S
C2132 H2126 0.949 . S
C2132 C2136 1.368 . S
C2133 C2114 1.429 . S
C2133 C2127 1.429 . S
C2133 C2134 1.523 . S
C2134 C2115 1.368 . S
C2134 C2128 1.368 . S
C2134 C2133 1.523 . S
C2135 C2119 1.429 . S
C2135 C2131 1.429 . S
C2135 C2136 1.523 . S
C2136 C2120 1.368 . S
C2136 C2132 1.368 . S
C2136 C2135 1.523 . S
H2137 C2112 0.950 . S
H2138 C2114 0.950 . S
H2139 C2115 0.949 . S
H2140 C2117 0.950 . S
H2141 C2119 0.950 . S
C2142 C2143 1.349 . S
C2142 C2144 1.327 . S
C2142 H2167 0.950 . S
C2143 C2142 1.349 . S
C2143 C2159 1.349 . S
C2144 C2142 1.327 . S
C2144 C2163 1.429 . S
C2144 H2168 0.950 . S
C2145 C2162 1.574 . S
C2145 C2164 1.368 . S
C2145 H2169 0.949 . S
H2146 C2150 0.949 . S
C2147 C2148 1.349 . S
C2147 C2149 1.327 . S
C2147 H2170 0.950 . S
C2148 C2147 1.349 . S
C2148 C2160 1.349 . S
C2149 C2147 1.327 . S
C2149 C2165 1.429 . S
C2149 H2171 0.950 . S
C2150 H2146 0.949 . S
C2150 C2158 1.574 . S
C2150 C2166 1.368 . S
H2151 C2159 0.950 . S
H2152 C2157 0.950 . S
H2153 C2158 0.949 . S
H2154 C2160 0.950 . S
H2155 C2161 0.950 . S
H2156 C2162 0.949 . S
C2157 H2152 0.950 . S
C2157 C2159 1.327 . S
C2157 C2163 1.429 . S
C2158 C2150 1.574 . S
C2158 H2153 0.949 . S
C2158 C2164 1.368 . S
C2159 C2143 1.349 . S
C2159 H2151 0.950 . S
C2159 C2157 1.327 . S
C2160 C2148 1.349 . S
C2160 H2154 0.950 . S
C2160 C2161 1.327 . S
C2161 H2155 0.950 . S
C2161 C2160 1.327 . S
C2161 C2165 1.429 . S
C2162 C2145 1.574 . S
C2162 H2156 0.949 . S
C2162 C2166 1.368 . S
C2163 C2144 1.429 . S
C2163 C2157 1.429 . S
C2163 C2164 1.523 . S
C2164 C2145 1.368 . S
C2164 C2158 1.368 . S
C2164 C2163 1.523 . S
C2165 C2149 1.429 . S
C2165 C2161 1.429 . S
C2165 C2166 1.523 . S
C2166 C2150 1.368 . S
C2166 C2162 1.368 . S
C2166 C2165 1.523 . S
H2167 C2142 0.950 . S
H2168 C2144 0.950 . S
H2169 C2145 0.949 . S
H2170 C2147 0.950 . S
H2171 C2149 0.950 . S
C2172 C2173 1.349 . S
C2172 C2174 1.327 . S
C2172 H2197 0.950 . S
C2173 C2172 1.349 . S
C2173 C2189 1.349 . S
C2174 C2172 1.327 . S
C2174 C2193 1.429 . S
C2174 H2198 0.950 . S
C2175 C2192 1.574 . S
C2175 C2194 1.368 . S
C2175 H2199 0.949 . S
H2176 C2180 0.949 . S
C2177 C2178 1.349 . S
C2177 C2179 1.327 . S
C2177 H2200 0.950 . S
C2178 C2177 1.349 . S
C2178 C2190 1.349 . S
C2179 C2177 1.327 . S
C2179 C2195 1.429 . S
C2179 H2201 0.950 . S
C2180 H2176 0.949 . S
C2180 C2188 1.574 . S
C2180 C2196 1.368 . S
H2181 C2189 0.950 . S
H2182 C2187 0.950 . S
H2183 C2188 0.949 . S
H2184 C2190 0.950 . S
H2185 C2191 0.950 . S
H2186 C2192 0.949 . S
C2187 H2182 0.950 . S
C2187 C2189 1.327 . S
C2187 C2193 1.429 . S
C2188 C2180 1.574 . S
C2188 H2183 0.949 . S
C2188 C2194 1.368 . S
C2189 C2173 1.349 . S
C2189 H2181 0.950 . S
C2189 C2187 1.327 . S
C2190 C2178 1.349 . S
C2190 H2184 0.950 . S
C2190 C2191 1.327 . S
C2191 H2185 0.950 . S
C2191 C2190 1.327 . S
C2191 C2195 1.429 . S
C2192 C2175 1.574 . S
C2192 H2186 0.949 . S
C2192 C2196 1.368 . S
C2193 C2174 1.429 . S
C2193 C2187 1.429 . S
C2193 C2194 1.523 . S
C2194 C2175 1.368 . S
C2194 C2188 1.368 . S
C2194 C2193 1.523 . S
C2195 C2179 1.429 . S
C2195 C2191 1.429 . S
C2195 C2196 1.523 . S
C2196 C2180 1.368 . S
C2196 C2192 1.368 . S
C2196 C2195 1.523 . S
H2197 C2172 0.950 . S
H2198 C2174 0.950 . S
H2199 C2175 0.949 . S
H2200 C2177 0.950 . S
H2201 C2179 0.950 . S
C2202 C2203 1.349 . S
C2202 C2204 1.327 . S
C2202 H2227 0.950 . S
C2203 C2202 1.349 . S
C2203 C2219 1.349 . S
C2204 C2202 1.327 . S
C2204 C2223 1.429 . S
C2204 H2228 0.950 . S
C2205 C2222 1.574 . S
C2205 C2224 1.368 . S
C2205 H2229 0.949 . S
H2206 C2210 0.949 . S
C2207 C2208 1.349 . S
C2207 C2209 1.327 . S
C2207 H2230 0.950 . S
C2208 C2207 1.349 . S
C2208 C2220 1.349 . S
C2209 C2207 1.327 . S
C2209 C2225 1.429 . S
C2209 H2231 0.950 . S
C2210 H2206 0.949 . S
C2210 C2218 1.574 . S
C2210 C2226 1.368 . S
H2211 C2219 0.950 . S
H2212 C2217 0.950 . S
H2213 C2218 0.949 . S
H2214 C2220 0.950 . S
H2215 C2221 0.950 . S
H2216 C2222 0.949 . S
C2217 H2212 0.950 . S
C2217 C2219 1.327 . S
C2217 C2223 1.429 . S
C2218 C2210 1.574 . S
C2218 H2213 0.949 . S
C2218 C2224 1.368 . S
C2219 C2203 1.349 . S
C2219 H2211 0.950 . S
C2219 C2217 1.327 . S
C2220 C2208 1.349 . S
C2220 H2214 0.950 . S
C2220 C2221 1.327 . S
C2221 H2215 0.950 . S
C2221 C2220 1.327 . S
C2221 C2225 1.429 . S
C2222 C2205 1.574 . S
C2222 H2216 0.949 . S
C2222 C2226 1.368 . S
C2223 C2204 1.429 . S
C2223 C2217 1.429 . S
C2223 C2224 1.523 . S
C2224 C2205 1.368 . S
C2224 C2218 1.368 . S
C2224 C2223 1.523 . S
C2225 C2209 1.429 . S
C2225 C2221 1.429 . S
C2225 C2226 1.523 . S
C2226 C2210 1.368 . S
C2226 C2222 1.368 . S
C2226 C2225 1.523 . S
H2227 C2202 0.950 . S
H2228 C2204 0.950 . S
H2229 C2205 0.949 . S
H2230 C2207 0.950 . S
H2231 C2209 0.950 . S
C2232 C2233 1.349 . S
C2232 C2234 1.327 . S
C2232 H2257 0.950 1_556 S
C2233 C2232 1.349 . S
C2233 C2249 1.349 . S
C2234 C2232 1.327 . S
C2234 C2253 1.429 . S
C2234 H2258 0.950 . S
C2235 C2252 1.574 . S
C2235 C2254 1.368 . S
C2235 H2259 0.949 . S
H2236 C2240 0.949 . S
C2237 C2238 1.349 . S
C2237 C2239 1.327 . S
C2237 H2260 0.950 . S
C2238 C2237 1.349 . S
C2238 C2250 1.349 . S
C2239 C2237 1.327 . S
C2239 C2255 1.429 . S
C2239 H2261 0.950 . S
C2240 H2236 0.949 . S
C2240 C2248 1.574 . S
C2240 C2256 1.368 . S
H2241 C2249 0.950 . S
H2242 C2247 0.950 . S
H2243 C2248 0.949 . S
H2244 C2250 0.950 . S
H2245 C2251 0.950 . S
H2246 C2252 0.949 . S
C2247 H2242 0.950 . S
C2247 C2249 1.327 . S
C2247 C2253 1.429 . S
C2248 C2240 1.574 . S
C2248 H2243 0.949 . S
C2248 C2254 1.368 . S
C2249 C2233 1.349 . S
C2249 H2241 0.950 . S
C2249 C2247 1.327 . S
C2250 C2238 1.349 . S
C2250 H2244 0.950 . S
C2250 C2251 1.327 . S
C2251 H2245 0.950 . S
C2251 C2250 1.327 . S
C2251 C2255 1.429 . S
C2252 C2235 1.574 . S
C2252 H2246 0.949 . S
C2252 C2256 1.368 . S
C2253 C2234 1.429 . S
C2253 C2247 1.429 . S
C2253 C2254 1.523 . S
C2254 C2235 1.368 . S
C2254 C2248 1.368 . S
C2254 C2253 1.523 . S
C2255 C2239 1.429 . S
C2255 C2251 1.429 . S
C2255 C2256 1.523 . S
C2256 C2240 1.368 . S
C2256 C2252 1.368 . S
C2256 C2255 1.523 . S
H2257 C2232 0.950 1_554 S
H2258 C2234 0.950 . S
H2259 C2235 0.949 . S
H2260 C2237 0.950 . S
H2261 C2239 0.950 . S
C2262 C2263 1.349 . S
C2262 C2264 1.327 . S
C2262 H2287 0.950 1_556 S
C2263 C2262 1.349 . S
C2263 C2279 1.349 . S
C2264 C2262 1.327 . S
C2264 C2283 1.429 . S
C2264 H2288 0.950 . S
C2265 C2282 1.574 . S
C2265 C2284 1.368 . S
C2265 H2289 0.949 . S
H2266 C2270 0.949 . S
C2267 C2268 1.349 . S
C2267 C2269 1.327 . S
C2267 H2290 0.950 . S
C2268 C2267 1.349 . S
C2268 C2280 1.349 . S
C2269 C2267 1.327 . S
C2269 C2285 1.429 . S
C2269 H2291 0.950 . S
C2270 H2266 0.949 . S
C2270 C2278 1.574 . S
C2270 C2286 1.368 . S
H2271 C2279 0.950 . S
H2272 C2277 0.950 . S
H2273 C2278 0.949 . S
H2274 C2280 0.950 . S
H2275 C2281 0.950 . S
H2276 C2282 0.949 . S
C2277 H2272 0.950 . S
C2277 C2279 1.327 . S
C2277 C2283 1.429 . S
C2278 C2270 1.574 . S
C2278 H2273 0.949 . S
C2278 C2284 1.368 . S
C2279 C2263 1.349 . S
C2279 H2271 0.950 . S
C2279 C2277 1.327 . S
C2280 C2268 1.349 . S
C2280 H2274 0.950 . S
C2280 C2281 1.327 . S
C2281 H2275 0.950 . S
C2281 C2280 1.327 . S
C2281 C2285 1.429 . S
C2282 C2265 1.574 . S
C2282 H2276 0.949 . S
C2282 C2286 1.368 . S
C2283 C2264 1.429 . S
C2283 C2277 1.429 . S
C2283 C2284 1.523 . S
C2284 C2265 1.368 . S
C2284 C2278 1.368 . S
C2284 C2283 1.523 . S
C2285 C2269 1.429 . S
C2285 C2281 1.429 . S
C2285 C2286 1.523 . S
C2286 C2270 1.368 . S
C2286 C2282 1.368 . S
C2286 C2285 1.523 . S
H2287 C2262 0.950 1_554 S
H2288 C2264 0.950 . S
H2289 C2265 0.949 . S
H2290 C2267 0.950 . S
H2291 C2269 0.950 . S
C2292 C2293 1.349 . S
C2292 C2294 1.327 . S
C2292 H2317 0.950 . S
C2293 C2292 1.349 . S
C2293 C2309 1.349 . S
C2294 C2292 1.327 . S
C2294 C2313 1.429 . S
C2294 H2318 0.950 . S
C2295 C2312 1.574 . S
C2295 C2314 1.368 . S
C2295 H2319 0.949 . S
H2296 C2300 0.949 . S
C2297 C2298 1.349 . S
C2297 C2299 1.327 . S
C2297 H2320 0.950 . S
C2298 C2297 1.349 . S
C2298 C2310 1.349 . S
C2299 C2297 1.327 . S
C2299 C2315 1.429 . S
C2299 H2321 0.950 . S
C2300 H2296 0.949 . S
C2300 C2308 1.574 . S
C2300 C2316 1.368 . S
H2301 C2309 0.950 . S
H2302 C2307 0.950 . S
H2303 C2308 0.949 . S
H2304 C2310 0.950 . S
H2305 C2311 0.950 . S
H2306 C2312 0.949 . S
C2307 H2302 0.950 . S
C2307 C2309 1.327 . S
C2307 C2313 1.429 . S
C2308 C2300 1.574 . S
C2308 H2303 0.949 . S
C2308 C2314 1.368 . S
C2309 C2293 1.349 . S
C2309 H2301 0.950 . S
C2309 C2307 1.327 . S
C2310 C2298 1.349 . S
C2310 H2304 0.950 . S
C2310 C2311 1.327 . S
C2311 H2305 0.950 . S
C2311 C2310 1.327 . S
C2311 C2315 1.429 . S
C2312 C2295 1.574 . S
C2312 H2306 0.949 . S
C2312 C2316 1.368 . S
C2313 C2294 1.429 . S
C2313 C2307 1.429 . S
C2313 C2314 1.523 . S
C2314 C2295 1.368 . S
C2314 C2308 1.368 . S
C2314 C2313 1.523 . S
C2315 C2299 1.429 . S
C2315 C2311 1.429 . S
C2315 C2316 1.523 . S
C2316 C2300 1.368 . S
C2316 C2312 1.368 . S
C2316 C2315 1.523 . S
H2317 C2292 0.950 . S
H2318 C2294 0.950 . S
H2319 C2295 0.949 . S
H2320 C2297 0.950 . S
H2321 C2299 0.950 . S
C2322 C2323 1.349 . S
C2322 C2324 1.327 . S
C2322 H2347 0.950 . S
C2323 C2322 1.349 . S
C2323 C2339 1.349 . S
C2324 C2322 1.327 . S
C2324 C2343 1.429 . S
C2324 H2348 0.950 . S
C2325 C2342 1.574 . S
C2325 C2344 1.368 . S
C2325 H2349 0.949 . S
H2326 C2330 0.949 . S
C2327 C2328 1.349 . S
C2327 C2329 1.327 . S
C2327 H2350 0.950 . S
C2328 C2327 1.349 . S
C2328 C2340 1.349 . S
C2329 C2327 1.327 . S
C2329 C2345 1.429 . S
C2329 H2351 0.950 . S
C2330 H2326 0.949 . S
C2330 C2338 1.574 . S
C2330 C2346 1.368 . S
H2331 C2339 0.950 . S
H2332 C2337 0.950 . S
H2333 C2338 0.949 . S
H2334 C2340 0.950 . S
H2335 C2341 0.950 . S
H2336 C2342 0.949 . S
C2337 H2332 0.950 . S
C2337 C2339 1.327 . S
C2337 C2343 1.429 . S
C2338 C2330 1.574 . S
C2338 H2333 0.949 . S
C2338 C2344 1.368 . S
C2339 C2323 1.349 . S
C2339 H2331 0.950 . S
C2339 C2337 1.327 . S
C2340 C2328 1.349 . S
C2340 H2334 0.950 . S
C2340 C2341 1.327 . S
C2341 H2335 0.950 . S
C2341 C2340 1.327 . S
C2341 C2345 1.429 . S
C2342 C2325 1.574 . S
C2342 H2336 0.949 . S
C2342 C2346 1.368 . S
C2343 C2324 1.429 . S
C2343 C2337 1.429 . S
C2343 C2344 1.523 . S
C2344 C2325 1.368 . S
C2344 C2338 1.368 . S
C2344 C2343 1.523 . S
C2345 C2329 1.429 . S
C2345 C2341 1.429 . S
C2345 C2346 1.523 . S
C2346 C2330 1.368 . S
C2346 C2342 1.368 . S
C2346 C2345 1.523 . S
H2347 C2322 0.950 . S
H2348 C2324 0.950 . S
H2349 C2325 0.949 . S
H2350 C2327 0.950 . S
H2351 C2329 0.950 . S
C2352 C2353 1.349 . S
C2352 C2354 1.327 . S
C2352 H2377 0.920 1_556 S
C2353 C2352 1.349 . S
C2353 C2369 1.349 . S
C2354 C2352 1.327 . S
C2354 C2373 1.429 . S
C2354 H2378 0.950 . S
C2355 C2372 1.574 . S
C2355 C2374 1.368 . S
C2355 H2379 0.949 . S
H2356 C2360 0.949 . S
C2357 C2358 1.349 . S
C2357 C2359 1.327 . S
C2357 H2380 0.950 . S
C2358 C2357 1.349 . S
C2358 C2370 1.349 . S
C2359 C2357 1.327 . S
C2359 C2375 1.429 . S
C2359 H2381 0.950 . S
C2360 H2356 0.949 . S
C2360 C2368 1.574 . S
C2360 C2376 1.368 . S
H2361 C2369 0.950 . S
H2362 C2367 0.950 . S
H2363 C2368 0.949 . S
H2364 C2370 0.950 . S
H2365 C2371 0.950 . S
H2366 C2372 0.949 . S
C2367 H2362 0.950 . S
C2367 C2369 1.327 . S
C2367 C2373 1.429 . S
C2368 C2360 1.574 . S
C2368 H2363 0.949 . S
C2368 C2374 1.368 . S
C2369 C2353 1.349 . S
C2369 H2361 0.950 . S
C2369 C2367 1.327 . S
C2370 C2358 1.349 . S
C2370 H2364 0.950 . S
C2370 C2371 1.327 . S
C2371 H2365 0.950 . S
C2371 C2370 1.327 . S
C2371 C2375 1.429 . S
C2372 C2355 1.574 . S
C2372 H2366 0.949 . S
C2372 C2376 1.368 . S
C2373 C2354 1.429 . S
C2373 C2367 1.429 . S
C2373 C2374 1.523 . S
C2374 C2355 1.368 . S
C2374 C2368 1.368 . S
C2374 C2373 1.523 . S
C2375 C2359 1.429 . S
C2375 C2371 1.429 . S
C2375 C2376 1.523 . S
C2376 C2360 1.368 . S
C2376 C2372 1.368 . S
C2376 C2375 1.523 . S
H2377 C2352 0.920 1_554 S
H2378 C2354 0.950 . S
H2379 C2355 0.949 . S
H2380 C2357 0.950 . S
H2381 C2359 0.950 . S
C2382 C2383 1.349 . S
C2382 C2384 1.327 . S
C2382 H2407 0.950 1_556 S
C2383 C2382 1.349 . S
C2383 C2399 1.349 . S
C2384 C2382 1.327 . S
C2384 C2403 1.429 . S
C2384 H2408 0.950 . S
C2385 C2402 1.574 . S
C2385 C2404 1.368 . S
C2385 H2409 0.949 . S
H2386 C2390 0.949 . S
C2387 C2388 1.349 . S
C2387 C2389 1.327 . S
C2387 H2410 0.950 . S
C2388 C2387 1.349 . S
C2388 C2400 1.349 . S
C2389 C2387 1.327 . S
C2389 C2405 1.429 . S
C2389 H2411 0.950 . S
C2390 H2386 0.949 . S
C2390 C2398 1.574 . S
C2390 C2406 1.368 . S
H2391 C2399 0.950 . S
H2392 C2397 0.950 . S
H2393 C2398 0.949 . S
H2394 C2400 0.950 . S
H2395 C2401 0.950 . S
H2396 C2402 0.949 . S
C2397 H2392 0.950 . S
C2397 C2399 1.327 . S
C2397 C2403 1.429 . S
C2398 C2390 1.574 . S
C2398 H2393 0.949 . S
C2398 C2404 1.368 . S
C2399 C2383 1.349 . S
C2399 H2391 0.950 . S
C2399 C2397 1.327 . S
C2400 C2388 1.349 . S
C2400 H2394 0.950 . S
C2400 C2401 1.327 . S
C2401 H2395 0.950 . S
C2401 C2400 1.327 . S
C2401 C2405 1.429 . S
C2402 C2385 1.574 . S
C2402 H2396 0.949 . S
C2402 C2406 1.368 . S
C2403 C2384 1.429 . S
C2403 C2397 1.429 . S
C2403 C2404 1.523 . S
C2404 C2385 1.368 . S
C2404 C2398 1.368 . S
C2404 C2403 1.523 . S
C2405 C2389 1.429 . S
C2405 C2401 1.429 . S
C2405 C2406 1.523 . S
C2406 C2390 1.368 . S
C2406 C2402 1.368 . S
C2406 C2405 1.523 . S
H2407 C2382 0.950 1_554 S
H2408 C2384 0.950 . S
H2409 C2385 0.949 . S
H2410 C2387 0.950 . S
H2411 C2389 0.950 . S
C2412 C2413 1.349 . S
C2412 C2414 1.327 . S
C2412 H2437 0.950 . S
C2413 C2412 1.349 . S
C2413 C2429 1.349 . S
C2414 C2412 1.327 . S
C2414 C2433 1.429 . S
C2414 H2438 0.950 . S
C2415 C2432 1.574 . S
C2415 C2434 1.368 . S
C2415 H2439 0.949 . S
H2416 C2420 0.949 . S
C2417 C2418 1.349 . S
C2417 C2419 1.327 . S
C2417 H2440 0.950 . S
C2418 C2417 1.349 . S
C2418 C2430 1.349 . S
C2419 C2417 1.327 . S
C2419 C2435 1.429 . S
C2419 H2441 0.950 . S
C2420 H2416 0.949 . S
C2420 C2428 1.574 . S
C2420 C2436 1.368 . S
H2421 C2429 0.950 . S
H2422 C2427 0.950 . S
H2423 C2428 0.949 . S
H2424 C2430 0.950 . S
H2425 C2431 0.950 . S
H2426 C2432 0.949 . S
C2427 H2422 0.950 . S
C2427 C2429 1.327 . S
C2427 C2433 1.429 . S
C2428 C2420 1.574 . S
C2428 H2423 0.949 . S
C2428 C2434 1.368 . S
C2429 C2413 1.349 . S
C2429 H2421 0.950 . S
C2429 C2427 1.327 . S
C2430 C2418 1.349 . S
C2430 H2424 0.950 . S
C2430 C2431 1.327 . S
C2431 H2425 0.950 . S
C2431 C2430 1.327 . S
C2431 C2435 1.429 . S
C2432 C2415 1.574 . S
C2432 H2426 0.949 . S
C2432 C2436 1.368 . S
C2433 C2414 1.429 . S
C2433 C2427 1.429 . S
C2433 C2434 1.523 . S
C2434 C2415 1.368 . S
C2434 C2428 1.368 . S
C2434 C2433 1.523 . S
C2435 C2419 1.429 . S
C2435 C2431 1.429 . S
C2435 C2436 1.523 . S
C2436 C2420 1.368 . S
C2436 C2432 1.368 . S
C2436 C2435 1.523 . S
H2437 C2412 0.950 . S
H2438 C2414 0.950 . S
H2439 C2415 0.949 . S
H2440 C2417 0.950 . S
H2441 C2419 0.950 . S
C2442 C2443 1.349 . S
C2442 C2444 1.327 . S
C2442 H2467 0.950 . S
C2443 C2442 1.349 . S
C2443 C2459 1.349 . S
C2444 C2442 1.327 . S
C2444 C2463 1.429 . S
C2444 H2468 0.950 . S
C2445 C2462 1.574 . S
C2445 C2464 1.368 . S
C2445 H2469 0.949 . S
H2446 C2450 0.949 . S
C2447 C2448 1.349 . S
C2447 C2449 1.327 . S
C2447 H2470 0.950 . S
C2448 C2447 1.349 . S
C2448 C2460 1.349 . S
C2449 C2447 1.327 . S
C2449 C2465 1.429 . S
C2449 H2471 0.950 . S
C2450 H2446 0.949 . S
C2450 C2458 1.574 . S
C2450 C2466 1.368 . S
H2451 C2459 0.950 . S
H2452 C2457 0.950 . S
H2453 C2458 0.949 . S
H2454 C2460 0.950 . S
H2455 C2461 0.950 . S
H2456 C2462 0.949 . S
C2457 H2452 0.950 . S
C2457 C2459 1.327 . S
C2457 C2463 1.429 . S
C2458 C2450 1.574 . S
C2458 H2453 0.949 . S
C2458 C2464 1.368 . S
C2459 C2443 1.349 . S
C2459 H2451 0.950 . S
C2459 C2457 1.327 . S
C2460 C2448 1.349 . S
C2460 H2454 0.950 . S
C2460 C2461 1.327 . S
C2461 H2455 0.950 . S
C2461 C2460 1.327 . S
C2461 C2465 1.429 . S
C2462 C2445 1.574 . S
C2462 H2456 0.949 . S
C2462 C2466 1.368 . S
C2463 C2444 1.429 . S
C2463 C2457 1.429 . S
C2463 C2464 1.523 . S
C2464 C2445 1.368 . S
C2464 C2458 1.368 . S
C2464 C2463 1.523 . S
C2465 C2449 1.429 . S
C2465 C2461 1.429 . S
C2465 C2466 1.523 . S
C2466 C2450 1.368 . S
C2466 C2462 1.368 . S
C2466 C2465 1.523 . S
H2467 C2442 0.950 . S
H2468 C2444 0.950 . S
H2469 C2445 0.949 . S
H2470 C2447 0.950 . S
H2471 C2449 0.950 . S
C2472 C2473 1.349 . S
C2472 C2474 1.327 . S
C2472 H2497 0.950 . S
C2473 C2472 1.349 . S
C2473 C2489 1.349 . S
C2474 C2472 1.327 . S
C2474 C2493 1.429 . S
C2474 H2498 0.950 . S
C2475 C2492 1.574 . S
C2475 C2494 1.368 . S
C2475 H2499 0.949 . S
H2476 C2480 0.949 . S
C2477 C2478 1.349 . S
C2477 C2479 1.327 . S
C2477 H2500 0.950 . S
C2478 C2477 1.349 . S
C2478 C2490 1.349 . S
C2479 C2477 1.327 . S
C2479 C2495 1.429 . S
C2479 H2501 0.950 . S
C2480 H2476 0.949 . S
C2480 C2488 1.574 . S
C2480 C2496 1.368 . S
H2481 C2489 0.950 . S
H2482 C2487 0.950 . S
H2483 C2488 0.949 . S
H2484 C2490 0.950 . S
H2485 C2491 0.950 . S
H2486 C2492 0.949 . S
C2487 H2482 0.950 . S
C2487 C2489 1.327 . S
C2487 C2493 1.429 . S
C2488 C2480 1.574 . S
C2488 H2483 0.949 . S
C2488 C2494 1.368 . S
C2489 C2473 1.349 . S
C2489 H2481 0.950 . S
C2489 C2487 1.327 . S
C2490 C2478 1.349 . S
C2490 H2484 0.950 . S
C2490 C2491 1.327 . S
C2491 H2485 0.950 . S
C2491 C2490 1.327 . S
C2491 C2495 1.429 . S
C2492 C2475 1.574 . S
C2492 H2486 0.949 . S
C2492 C2496 1.368 . S
C2493 C2474 1.429 . S
C2493 C2487 1.429 . S
C2493 C2494 1.523 . S
C2494 C2475 1.368 . S
C2494 C2488 1.368 . S
C2494 C2493 1.523 . S
C2495 C2479 1.429 . S
C2495 C2491 1.429 . S
C2495 C2496 1.523 . S
C2496 C2480 1.368 . S
C2496 C2492 1.368 . S
C2496 C2495 1.523 . S
H2497 C2472 0.950 . S
H2498 C2474 0.950 . S
H2499 C2475 0.949 . S
H2500 C2477 0.950 . S
H2501 C2479 0.950 . S
C2502 C2503 1.349 . S
C2502 C2504 1.327 . S
C2502 H2527 0.950 . S
C2503 C2502 1.349 . S
C2503 C2519 1.349 . S
C2504 C2502 1.327 . S
C2504 C2523 1.429 . S
C2504 H2528 0.950 . S
C2505 C2522 1.574 . S
C2505 C2524 1.368 . S
C2505 H2529 0.949 . S
H2506 C2510 0.949 . S
C2507 C2508 1.349 . S
C2507 C2509 1.327 . S
C2507 H2530 0.950 . S
C2508 C2507 1.349 . S
C2508 C2520 1.349 . S
C2509 C2507 1.327 . S
C2509 C2525 1.429 . S
C2509 H2531 0.950 . S
C2510 H2506 0.949 . S
C2510 C2518 1.574 . S
C2510 C2526 1.368 . S
H2511 C2519 0.950 . S
H2512 C2517 0.950 . S
H2513 C2518 0.949 . S
H2514 C2520 0.950 . S
H2515 C2521 0.950 . S
H2516 C2522 0.949 . S
C2517 H2512 0.950 . S
C2517 C2519 1.327 . S
C2517 C2523 1.429 . S
C2518 C2510 1.574 . S
C2518 H2513 0.949 . S
C2518 C2524 1.368 . S
C2519 C2503 1.349 . S
C2519 H2511 0.950 . S
C2519 C2517 1.327 . S
C2520 C2508 1.349 . S
C2520 H2514 0.950 . S
C2520 C2521 1.327 . S
C2521 H2515 0.950 . S
C2521 C2520 1.327 . S
C2521 C2525 1.429 . S
C2522 C2505 1.574 . S
C2522 H2516 0.949 . S
C2522 C2526 1.368 . S
C2523 C2504 1.429 . S
C2523 C2517 1.429 . S
C2523 C2524 1.523 . S
C2524 C2505 1.368 . S
C2524 C2518 1.368 . S
C2524 C2523 1.523 . S
C2525 C2509 1.429 . S
C2525 C2521 1.429 . S
C2525 C2526 1.523 . S
C2526 C2510 1.368 . S
C2526 C2522 1.368 . S
C2526 C2525 1.523 . S
H2527 C2502 0.950 . S
H2528 C2504 0.950 . S
H2529 C2505 0.949 . S
H2530 C2507 0.950 . S
H2531 C2509 0.950 . S
C2532 C2533 1.349 . S
C2532 C2534 1.327 . S
C2532 H2557 0.950 . S
C2533 C2532 1.349 . S
C2533 C2549 1.349 . S
C2534 C2532 1.327 . S
C2534 C2553 1.429 . S
C2534 H2558 0.950 . S
C2535 C2552 1.574 . S
C2535 C2554 1.368 . S
C2535 H2559 0.949 . S
H2536 C2540 0.949 . S
C2537 C2538 1.349 . S
C2537 C2539 1.327 . S
C2537 H2560 0.950 . S
C2538 C2537 1.349 . S
C2538 C2550 1.349 . S
C2539 C2537 1.327 . S
C2539 C2555 1.429 . S
C2539 H2561 0.950 . S
C2540 H2536 0.949 . S
C2540 C2548 1.574 . S
C2540 C2556 1.368 . S
H2541 C2549 0.950 . S
H2542 C2547 0.950 . S
H2543 C2548 0.949 . S
H2544 C2550 0.950 . S
H2545 C2551 0.950 . S
H2546 C2552 0.949 . S
C2547 H2542 0.950 . S
C2547 C2549 1.327 . S
C2547 C2553 1.429 . S
C2548 C2540 1.574 . S
C2548 H2543 0.949 . S
C2548 C2554 1.368 . S
C2549 C2533 1.349 . S
C2549 H2541 0.950 . S
C2549 C2547 1.327 . S
C2550 C2538 1.349 . S
C2550 H2544 0.950 . S
C2550 C2551 1.327 . S
C2551 H2545 0.950 . S
C2551 C2550 1.327 . S
C2551 C2555 1.429 . S
C2552 C2535 1.574 . S
C2552 H2546 0.949 . S
C2552 C2556 1.368 . S
C2553 C2534 1.429 . S
C2553 C2547 1.429 . S
C2553 C2554 1.523 . S
C2554 C2535 1.368 . S
C2554 C2548 1.368 . S
C2554 C2553 1.523 . S
C2555 C2539 1.429 . S
C2555 C2551 1.429 . S
C2555 C2556 1.523 . S
C2556 C2540 1.368 . S
C2556 C2552 1.368 . S
C2556 C2555 1.523 . S
H2557 C2532 0.950 . S
H2558 C2534 0.950 . S
H2559 C2535 0.949 . S
H2560 C2537 0.950 . S
H2561 C2539 0.950 . S
C2562 C2563 1.349 . S
C2562 C2564 1.327 . S
C2562 H2587 0.950 . S
C2563 C2562 1.349 . S
C2563 C2579 1.349 . S
C2564 C2562 1.327 . S
C2564 C2583 1.429 . S
C2564 H2588 0.950 . S
C2565 C2582 1.574 . S
C2565 C2584 1.368 . S
C2565 H2589 0.949 . S
H2566 C2570 0.949 . S
C2567 C2568 1.349 . S
C2567 C2569 1.327 . S
C2567 H2590 0.950 . S
C2568 C2567 1.349 . S
C2568 C2580 1.349 . S
C2569 C2567 1.327 . S
C2569 C2585 1.429 . S
C2569 H2591 0.950 . S
C2570 H2566 0.949 . S
C2570 C2578 1.574 . S
C2570 C2586 1.368 . S
H2571 C2579 0.950 . S
H2572 C2577 0.950 . S
H2573 C2578 0.949 . S
H2574 C2580 0.950 . S
H2575 C2581 0.950 . S
H2576 C2582 0.949 . S
C2577 H2572 0.950 . S
C2577 C2579 1.327 . S
C2577 C2583 1.429 . S
C2578 C2570 1.574 . S
C2578 H2573 0.949 . S
C2578 C2584 1.368 . S
C2579 C2563 1.349 . S
C2579 H2571 0.950 . S
C2579 C2577 1.327 . S
C2580 C2568 1.349 . S
C2580 H2574 0.950 . S
C2580 C2581 1.327 . S
C2581 H2575 0.950 . S
C2581 C2580 1.327 . S
C2581 C2585 1.429 . S
C2582 C2565 1.574 . S
C2582 H2576 0.949 . S
C2582 C2586 1.368 . S
C2583 C2564 1.429 . S
C2583 C2577 1.429 . S
C2583 C2584 1.523 . S
C2584 C2565 1.368 . S
C2584 C2578 1.368 . S
C2584 C2583 1.523 . S
C2585 C2569 1.429 . S
C2585 C2581 1.429 . S
C2585 C2586 1.523 . S
C2586 C2570 1.368 . S
C2586 C2582 1.368 . S
C2586 C2585 1.523 . S
H2587 C2562 0.950 . S
H2588 C2564 0.950 . S
H2589 C2565 0.949 . S
H2590 C2567 0.950 . S
H2591 C2569 0.950 . S
C2592 C2593 1.349 . S
C2592 C2594 1.327 . S
C2592 H2617 0.950 . S
C2593 C2592 1.349 . S
C2593 C2609 1.349 . S
C2594 C2592 1.327 . S
C2594 C2613 1.429 . S
C2594 H2618 0.950 . S
C2595 C2612 1.574 . S
C2595 C2614 1.368 . S
C2595 H2619 0.949 . S
H2596 C2600 0.949 . S
C2597 C2598 1.349 . S
C2597 C2599 1.327 . S
C2597 H2620 0.950 . S
C2598 C2597 1.349 . S
C2598 C2610 1.349 . S
C2599 C2597 1.327 . S
C2599 C2615 1.429 . S
C2599 H2621 0.950 . S
C2600 H2596 0.949 . S
C2600 C2608 1.574 . S
C2600 C2616 1.368 . S
H2601 C2609 0.950 . S
H2602 C2607 0.950 . S
H2603 C2608 0.949 . S
H2604 C2610 0.950 . S
H2605 C2611 0.950 . S
H2606 C2612 0.949 . S
C2607 H2602 0.950 . S
C2607 C2609 1.327 . S
C2607 C2613 1.429 . S
C2608 C2600 1.574 . S
C2608 H2603 0.949 . S
C2608 C2614 1.368 . S
C2609 C2593 1.349 . S
C2609 H2601 0.950 . S
C2609 C2607 1.327 . S
C2610 C2598 1.349 . S
C2610 H2604 0.950 . S
C2610 C2611 1.327 . S
C2611 H2605 0.950 . S
C2611 C2610 1.327 . S
C2611 C2615 1.429 . S
C2612 C2595 1.574 . S
C2612 H2606 0.949 . S
C2612 C2616 1.368 . S
C2613 C2594 1.429 . S
C2613 C2607 1.429 . S
C2613 C2614 1.523 . S
C2614 C2595 1.368 . S
C2614 C2608 1.368 . S
C2614 C2613 1.523 . S
C2615 C2599 1.429 . S
C2615 C2611 1.429 . S
C2615 C2616 1.523 . S
C2616 C2600 1.368 . S
C2616 C2612 1.368 . S
C2616 C2615 1.523 . S
H2617 C2592 0.950 . S
H2618 C2594 0.950 . S
H2619 C2595 0.949 . S
H2620 C2597 0.950 . S
H2621 C2599 0.950 . S
C2622 C2623 1.349 . S
C2622 C2624 1.327 . S
C2622 H2647 0.950 . S
C2623 C2622 1.349 . S
C2623 C2639 1.349 . S
C2624 C2622 1.327 . S
C2624 C2643 1.429 . S
C2624 H2648 0.950 . S
C2625 C2642 1.574 . S
C2625 C2644 1.368 . S
C2625 H2649 0.949 . S
H2626 C2630 0.949 . S
C2627 C2628 1.349 . S
C2627 C2629 1.327 . S
C2627 H2650 0.950 . S
C2628 C2627 1.349 . S
C2628 C2640 1.349 . S
C2629 C2627 1.327 . S
C2629 C2645 1.429 . S
C2629 H2651 0.950 . S
C2630 H2626 0.949 . S
C2630 C2638 1.574 . S
C2630 C2646 1.368 . S
H2631 C2639 0.950 . S
H2632 C2637 0.950 . S
H2633 C2638 0.949 . S
H2634 C2640 0.950 . S
H2635 C2641 0.950 . S
H2636 C2642 0.949 . S
C2637 H2632 0.950 . S
C2637 C2639 1.327 . S
C2637 C2643 1.429 . S
C2638 C2630 1.574 . S
C2638 H2633 0.949 . S
C2638 C2644 1.368 . S
C2639 C2623 1.349 . S
C2639 H2631 0.950 . S
C2639 C2637 1.327 . S
C2640 C2628 1.349 . S
C2640 H2634 0.950 . S
C2640 C2641 1.327 . S
C2641 H2635 0.950 . S
C2641 C2640 1.327 . S
C2641 C2645 1.429 . S
C2642 C2625 1.574 . S
C2642 H2636 0.949 . S
C2642 C2646 1.368 . S
C2643 C2624 1.429 . S
C2643 C2637 1.429 . S
C2643 C2644 1.523 . S
C2644 C2625 1.368 . S
C2644 C2638 1.368 . S
C2644 C2643 1.523 . S
C2645 C2629 1.429 . S
C2645 C2641 1.429 . S
C2645 C2646 1.523 . S
C2646 C2630 1.368 . S
C2646 C2642 1.368 . S
C2646 C2645 1.523 . S
H2647 C2622 0.950 . S
H2648 C2624 0.950 . S
H2649 C2625 0.949 . S
H2650 C2627 0.950 . S
H2651 C2629 0.950 . S
C2652 C2653 1.349 . S
C2652 C2654 1.327 . S
C2652 H2677 0.950 . S
C2653 C2652 1.349 . S
C2653 C2669 1.349 . S
C2654 C2652 1.327 . S
C2654 C2673 1.429 . S
C2654 H2678 0.950 . S
C2655 C2672 1.574 . S
C2655 C2674 1.368 1_545 S
C2655 H2679 0.949 . S
H2656 C2660 0.949 . S
C2657 C2658 1.349 1_545 S
C2657 C2659 1.327 . S
C2657 H2680 0.950 . S
C2658 C2657 1.349 1_565 S
C2658 C2670 1.349 . S
C2659 C2657 1.327 . S
C2659 C2675 1.429 1_545 S
C2659 H2681 0.950 . S
C2660 H2656 0.949 . S
C2660 C2668 1.574 . S
C2660 C2676 1.368 . S
H2661 C2669 0.950 1_545 S
H2662 C2667 0.949 1_545 S
H2663 C2668 0.949 . S
H2664 C2670 0.950 . S
H2665 C2671 0.950 . S
H2666 C2672 0.949 . S
C2667 H2662 0.949 1_565 S
C2667 C2669 1.327 . S
C2667 C2673 1.429 . S
C2668 C2660 1.574 . S
C2668 H2663 0.949 . S
C2668 C2674 1.368 . S
C2669 C2653 1.349 . S
C2669 H2661 0.950 1_565 S
C2669 C2667 1.327 . S
C2670 C2658 1.349 . S
C2670 H2664 0.950 . S
C2670 C2671 1.327 . S
C2671 H2665 0.950 . S
C2671 C2670 1.327 . S
C2671 C2675 1.429 . S
C2672 C2655 1.574 . S
C2672 H2666 0.949 . S
C2672 C2676 1.368 1_545 S
C2673 C2654 1.429 . S
C2673 C2667 1.429 . S
C2673 C2674 1.523 . S
C2674 C2655 1.368 1_565 S
C2674 C2668 1.368 . S
C2674 C2673 1.523 . S
C2675 C2659 1.429 1_565 S
C2675 C2671 1.429 . S
C2675 C2676 1.523 . S
C2676 C2660 1.368 . S
C2676 C2672 1.368 1_565 S
C2676 C2675 1.523 . S
H2677 C2652 0.950 . S
H2678 C2654 0.950 . S
H2679 C2655 0.949 . S
H2680 C2657 0.950 . S
H2681 C2659 0.950 . S
C2682 C2683 1.355 1_545 S
C2682 C2684 1.323 . S
C2682 H2707 0.947 . S
C2683 C2682 1.355 1_565 S
C2683 C2699 1.349 . S
C2684 C2682 1.323 . S
C2684 C2703 1.429 1_545 S
C2684 H2708 0.950 . S
C2685 C2702 1.574 . S
C2685 C2704 1.368 . S
C2685 H2709 0.949 . S
H2686 C2690 0.949 . S
C2687 C2688 1.349 . S
C2687 C2689 1.327 . S
C2687 H2710 0.950 . S
C2688 C2687 1.349 . S
C2688 C2700 1.349 1_565 S
C2689 C2687 1.327 . S
C2689 C2705 1.429 . S
C2689 H2711 0.950 . S
C2690 H2686 0.949 . S
C2690 C2698 1.574 . S
C2690 C2706 1.368 1_545 S
H2691 C2699 0.950 . S
H2692 C2697 0.950 . S
H2693 C2698 0.949 . S
H2694 C2700 0.950 . S
H2695 C2701 0.950 . S
H2696 C2702 0.949 . S
C2697 H2692 0.950 . S
C2697 C2699 1.327 . S
C2697 C2703 1.429 . S
C2698 C2690 1.574 . S
C2698 H2693 0.949 . S
C2698 C2704 1.368 1_545 S
C2699 C2683 1.349 . S
C2699 H2691 0.950 . S
C2699 C2697 1.327 . S
C2700 C2688 1.349 1_545 S
C2700 H2694 0.950 . S
C2700 C2701 1.327 . S
C2701 H2695 0.950 . S
C2701 C2700 1.327 . S
C2701 C2705 1.429 1_545 S
C2702 C2685 1.574 . S
C2702 H2696 0.949 . S
C2702 C2706 1.368 . S
C2703 C2684 1.429 1_565 S
C2703 C2697 1.429 . S
C2703 C2704 1.523 . S
C2704 C2685 1.368 . S
C2704 C2698 1.368 1_565 S
C2704 C2703 1.523 . S
C2705 C2689 1.429 . S
C2705 C2701 1.429 1_565 S
C2705 C2706 1.523 . S
C2706 C2690 1.368 1_565 S
C2706 C2702 1.368 . S
C2706 C2705 1.523 . S
H2707 C2682 0.947 . S
H2708 C2684 0.950 . S
H2709 C2685 0.949 . S
H2710 C2687 0.950 . S
H2711 C2689 0.950 . S
C2712 C2713 1.349 . S
C2712 C2714 1.327 . S
C2712 H2737 0.950 . S
C2713 C2712 1.349 . S
C2713 C2729 1.370 . S
C2714 C2712 1.327 . S
C2714 C2733 1.429 . S
C2714 H2738 0.950 . S
C2715 C2732 1.574 . S
C2715 C2734 1.368 1_655 S
C2715 H2739 0.949 . S
H2716 C2720 0.949 . S
C2717 C2718 1.349 1_655 S
C2717 C2719 1.327 . S
C2717 H2740 0.950 . S
C2718 C2717 1.349 1_455 S
C2718 C2730 1.349 . S
C2719 C2717 1.327 . S
C2719 C2735 1.429 1_655 S
C2719 H2741 0.950 . S
C2720 H2716 0.949 . S
C2720 C2728 1.574 . S
C2720 C2736 1.368 . S
H2721 C2729 0.900 1_655 S
H2722 C2727 0.957 . S
H2723 C2728 0.949 . S
H2724 C2730 0.950 . S
H2725 C2731 0.950 . S
H2726 C2732 0.949 . S
C2727 H2722 0.957 . S
C2727 C2729 1.377 1_655 S
C2727 C2733 1.410 1_655 S
C2728 C2720 1.574 . S
C2728 H2723 0.949 . S
C2728 C2734 1.368 . S
C2729 C2713 1.370 . S
C2729 H2721 0.900 1_455 S
C2729 C2727 1.377 1_455 S
C2730 C2718 1.349 . S
C2730 H2724 0.950 . S
C2730 C2731 1.327 . S
C2731 H2725 0.950 . S
C2731 C2730 1.327 . S
C2731 C2735 1.429 . S
C2732 C2715 1.574 . S
C2732 H2726 0.949 . S
C2732 C2736 1.368 1_655 S
C2733 C2714 1.429 . S
C2733 C2727 1.410 1_455 S
C2733 C2734 1.523 . S
C2734 C2715 1.368 1_455 S
C2734 C2728 1.368 . S
C2734 C2733 1.523 . S
C2735 C2719 1.429 1_455 S
C2735 C2731 1.429 . S
C2735 C2736 1.523 . S
C2736 C2720 1.368 . S
C2736 C2732 1.368 1_455 S
C2736 C2735 1.523 . S
H2737 C2712 0.950 . S
H2738 C2714 0.950 . S
H2739 C2715 0.949 . S
H2740 C2717 0.950 . S
H2741 C2719 0.950 . S
C2742 C2743 1.349 . S
C2742 C2744 1.327 . S
C2742 H2767 0.950 . S
C2743 C2742 1.349 . S
C2743 C2759 1.349 . S
C2744 C2742 1.327 . S
C2744 C2763 1.429 . S
C2744 H2768 0.950 . S
C2745 C2762 1.574 . S
C2745 C2764 1.368 . S
C2745 H2769 0.949 . S
H2746 C2750 0.949 . S
C2747 C2748 1.349 . S
C2747 C2749 1.327 . S
C2747 H2770 0.950 . S
C2748 C2747 1.349 . S
C2748 C2760 1.349 . S
C2749 C2747 1.327 . S
C2749 C2765 1.429 . S
C2749 H2771 0.950 . S
C2750 H2746 0.949 . S
C2750 C2758 1.574 . S
C2750 C2766 1.368 . S
H2751 C2759 0.950 . S
H2752 C2757 0.950 . S
H2753 C2758 0.949 . S
H2754 C2760 0.950 . S
H2755 C2761 0.950 . S
H2756 C2762 0.949 . S
C2757 H2752 0.950 . S
C2757 C2759 1.327 . S
C2757 C2763 1.429 . S
C2758 C2750 1.574 . S
C2758 H2753 0.949 . S
C2758 C2764 1.368 . S
C2759 C2743 1.349 . S
C2759 H2751 0.950 . S
C2759 C2757 1.327 . S
C2760 C2748 1.349 . S
C2760 H2754 0.950 . S
C2760 C2761 1.327 . S
C2761 H2755 0.950 . S
C2761 C2760 1.327 . S
C2761 C2765 1.429 . S
C2762 C2745 1.574 . S
C2762 H2756 0.949 . S
C2762 C2766 1.368 . S
C2763 C2744 1.429 . S
C2763 C2757 1.429 . S
C2763 C2764 1.523 . S
C2764 C2745 1.368 . S
C2764 C2758 1.368 . S
C2764 C2763 1.523 . S
C2765 C2749 1.429 . S
C2765 C2761 1.429 . S
C2765 C2766 1.523 . S
C2766 C2750 1.368 . S
C2766 C2762 1.368 . S
C2766 C2765 1.523 . S
H2767 C2742 0.950 . S
H2768 C2744 0.950 . S
H2769 C2745 0.949 . S
H2770 C2747 0.950 . S
H2771 C2749 0.950 . S
C2772 C2773 1.349 . S
C2772 C2774 1.327 . S
C2772 H2797 0.950 . S
C2773 C2772 1.349 . S
C2773 C2789 1.349 . S
C2774 C2772 1.327 . S
C2774 C2793 1.429 . S
C2774 H2798 0.950 . S
C2775 C2792 1.574 . S
C2775 C2794 1.368 . S
C2775 H2799 0.949 . S
H2776 C2780 0.949 . S
C2777 C2778 1.349 . S
C2777 C2779 1.327 . S
C2777 H2800 0.950 . S
C2778 C2777 1.349 . S
C2778 C2790 1.349 . S
C2779 C2777 1.327 . S
C2779 C2795 1.429 . S
C2779 H2801 0.950 . S
C2780 H2776 0.949 . S
C2780 C2788 1.574 . S
C2780 C2796 1.368 . S
H2781 C2789 0.950 . S
H2782 C2787 0.950 . S
H2783 C2788 0.949 . S
H2784 C2790 0.950 . S
H2785 C2791 0.950 . S
H2786 C2792 0.949 . S
C2787 H2782 0.950 . S
C2787 C2789 1.327 . S
C2787 C2793 1.429 . S
C2788 C2780 1.574 . S
C2788 H2783 0.949 . S
C2788 C2794 1.368 . S
C2789 C2773 1.349 . S
C2789 H2781 0.950 . S
C2789 C2787 1.327 . S
C2790 C2778 1.349 . S
C2790 H2784 0.950 . S
C2790 C2791 1.327 . S
C2791 H2785 0.950 . S
C2791 C2790 1.327 . S
C2791 C2795 1.429 . S
C2792 C2775 1.574 . S
C2792 H2786 0.949 . S
C2792 C2796 1.368 . S
C2793 C2774 1.429 . S
C2793 C2787 1.429 . S
C2793 C2794 1.523 . S
C2794 C2775 1.368 . S
C2794 C2788 1.368 . S
C2794 C2793 1.523 . S
C2795 C2779 1.429 . S
C2795 C2791 1.429 . S
C2795 C2796 1.523 . S
C2796 C2780 1.368 . S
C2796 C2792 1.368 . S
C2796 C2795 1.523 . S
H2797 C2772 0.950 . S
H2798 C2774 0.950 . S
H2799 C2775 0.949 . S
H2800 C2777 0.950 . S
H2801 C2779 0.950 . S
C2802 C2803 1.349 . S
C2802 C2804 1.327 . S
C2802 H2827 0.950 . S
C2803 C2802 1.349 . S
C2803 C2819 1.349 . S
C2804 C2802 1.327 . S
C2804 C2823 1.429 . S
C2804 H2828 0.950 . S
C2805 C2822 1.574 . S
C2805 C2824 1.368 . S
C2805 H2829 0.949 . S
H2806 C2810 0.949 . S
C2807 C2808 1.349 . S
C2807 C2809 1.327 . S
C2807 H2830 0.950 . S
C2808 C2807 1.349 . S
C2808 C2820 1.349 . S
C2809 C2807 1.327 . S
C2809 C2825 1.429 . S
C2809 H2831 0.950 . S
C2810 H2806 0.949 . S
C2810 C2818 1.574 . S
C2810 C2826 1.368 . S
H2811 C2819 0.950 . S
H2812 C2817 0.950 . S
H2813 C2818 0.949 . S
H2814 C2820 0.950 . S
H2815 C2821 0.950 . S
H2816 C2822 0.949 . S
C2817 H2812 0.950 . S
C2817 C2819 1.327 . S
C2817 C2823 1.429 . S
C2818 C2810 1.574 . S
C2818 H2813 0.949 . S
C2818 C2824 1.368 . S
C2819 C2803 1.349 . S
C2819 H2811 0.950 . S
C2819 C2817 1.327 . S
C2820 C2808 1.349 . S
C2820 H2814 0.950 . S
C2820 C2821 1.327 . S
C2821 H2815 0.950 . S
C2821 C2820 1.327 . S
C2821 C2825 1.429 . S
C2822 C2805 1.574 . S
C2822 H2816 0.949 . S
C2822 C2826 1.368 . S
C2823 C2804 1.429 . S
C2823 C2817 1.429 . S
C2823 C2824 1.523 . S
C2824 C2805 1.368 . S
C2824 C2818 1.368 . S
C2824 C2823 1.523 . S
C2825 C2809 1.429 . S
C2825 C2821 1.429 . S
C2825 C2826 1.523 . S
C2826 C2810 1.368 . S
C2826 C2822 1.368 . S
C2826 C2825 1.523 . S
H2827 C2802 0.950 . S
H2828 C2804 0.950 . S
H2829 C2805 0.949 . S
H2830 C2807 0.950 . S
H2831 C2809 0.950 . S
C2832 C2833 1.349 . S
C2832 C2834 1.327 . S
C2832 H2857 0.950 . S
C2833 C2832 1.349 . S
C2833 C2849 1.349 . S
C2834 C2832 1.327 . S
C2834 C2853 1.429 . S
C2834 H2858 0.950 . S
C2835 C2852 1.574 . S
C2835 C2854 1.368 . S
C2835 H2859 0.949 . S
H2836 C2840 0.949 . S
C2837 C2838 1.349 . S
C2837 C2839 1.327 . S
C2837 H2860 0.950 . S
C2838 C2837 1.349 . S
C2838 C2850 1.349 . S
C2839 C2837 1.327 . S
C2839 C2855 1.429 . S
C2839 H2861 0.950 . S
C2840 H2836 0.949 . S
C2840 C2848 1.574 . S
C2840 C2856 1.368 . S
H2841 C2849 0.950 . S
H2842 C2847 0.950 . S
H2843 C2848 0.949 . S
H2844 C2850 0.950 . S
H2845 C2851 0.950 . S
H2846 C2852 0.949 . S
C2847 H2842 0.950 . S
C2847 C2849 1.327 . S
C2847 C2853 1.429 . S
C2848 C2840 1.574 . S
C2848 H2843 0.949 . S
C2848 C2854 1.368 . S
C2849 C2833 1.349 . S
C2849 H2841 0.950 . S
C2849 C2847 1.327 . S
C2850 C2838 1.349 . S
C2850 H2844 0.950 . S
C2850 C2851 1.327 . S
C2851 H2845 0.950 . S
C2851 C2850 1.327 . S
C2851 C2855 1.429 . S
C2852 C2835 1.574 . S
C2852 H2846 0.949 . S
C2852 C2856 1.368 . S
C2853 C2834 1.429 . S
C2853 C2847 1.429 . S
C2853 C2854 1.523 . S
C2854 C2835 1.368 . S
C2854 C2848 1.368 . S
C2854 C2853 1.523 . S
C2855 C2839 1.429 . S
C2855 C2851 1.429 . S
C2855 C2856 1.523 . S
C2856 C2840 1.368 . S
C2856 C2852 1.368 . S
C2856 C2855 1.523 . S
H2857 C2832 0.950 . S
H2858 C2834 0.950 . S
H2859 C2835 0.949 . S
H2860 C2837 0.950 . S
H2861 C2839 0.950 . S
C2862 C2863 1.349 . S
C2862 C2864 1.327 . S
C2862 H2887 0.950 . S
C2863 C2862 1.349 . S
C2863 C2879 1.349 . S
C2864 C2862 1.327 . S
C2864 C2883 1.429 . S
C2864 H2888 0.950 . S
C2865 C2882 1.574 . S
C2865 C2884 1.368 . S
C2865 H2889 0.949 . S
H2866 C2870 0.949 . S
C2867 C2868 1.349 . S
C2867 C2869 1.327 . S
C2867 H2890 0.950 . S
C2868 C2867 1.349 . S
C2868 C2880 1.365 . S
C2869 C2867 1.327 . S
C2869 C2885 1.429 . S
C2869 H2891 0.950 . S
C2870 H2866 0.949 . S
C2870 C2878 1.574 . S
C2870 C2886 1.368 . S
H2871 C2879 0.950 . S
H2872 C2877 0.950 . S
H2873 C2878 0.949 . S
H2874 C2880 0.887 1_565 S
H2875 C2881 0.954 . S
H2876 C2882 0.949 . S
C2877 H2872 0.950 . S
C2877 C2879 1.327 . S
C2877 C2883 1.429 . S
C2878 C2870 1.574 . S
C2878 H2873 0.949 . S
C2878 C2884 1.368 . S
C2879 C2863 1.349 . S
C2879 H2871 0.950 . S
C2879 C2877 1.327 . S
C2880 C2868 1.365 . S
C2880 H2874 0.887 1_545 S
C2880 C2881 1.380 . S
C2881 H2875 0.954 . S
C2881 C2880 1.380 . S
C2881 C2885 1.429 . S
C2882 C2865 1.574 . S
C2882 H2876 0.949 . S
C2882 C2886 1.368 . S
C2883 C2864 1.429 . S
C2883 C2877 1.429 . S
C2883 C2884 1.523 . S
C2884 C2865 1.368 . S
C2884 C2878 1.368 . S
C2884 C2883 1.523 . S
C2885 C2869 1.429 . S
C2885 C2881 1.429 . S
C2885 C2886 1.523 . S
C2886 C2870 1.368 . S
C2886 C2882 1.368 . S
C2886 C2885 1.523 . S
H2887 C2862 0.950 . S
H2888 C2864 0.950 . S
H2889 C2865 0.949 . S
H2890 C2867 0.950 . S
H2891 C2869 0.950 . S
C2892 C2893 1.349 . S
C2892 C2894 1.327 . S
C2892 H2917 0.950 . S
C2893 C2892 1.349 . S
C2893 C2909 1.349 1_655 S
C2894 C2892 1.327 . S
C2894 C2913 1.429 . S
C2894 H2918 0.950 . S
C2895 C2912 1.574 . S
C2895 C2914 1.368 1_455 S
C2895 H2919 0.949 . S
H2896 C2900 0.949 . S
C2897 C2898 1.349 1_455 S
C2897 C2899 1.327 . S
C2897 H2920 0.950 . S
C2898 C2897 1.349 1_655 S
C2898 C2910 1.349 . S
C2899 C2897 1.327 . S
C2899 C2915 1.429 1_455 S
C2899 H2921 0.950 . S
C2900 H2896 0.949 . S
C2900 C2908 1.574 . S
C2900 C2916 1.368 . S
H2901 C2909 0.950 . S
H2902 C2907 0.950 . S
H2903 C2908 0.949 . S
H2904 C2910 0.950 . S
H2905 C2911 0.950 . S
H2906 C2912 0.949 . S
C2907 H2902 0.950 . S
C2907 C2909 1.327 . S
C2907 C2913 1.429 1_455 S
C2908 C2900 1.574 . S
C2908 H2903 0.949 . S
C2908 C2914 1.368 . S
C2909 C2893 1.349 1_455 S
C2909 H2901 0.950 . S
C2909 C2907 1.327 . S
C2910 C2898 1.349 . S
C2910 H2904 0.950 . S
C2910 C2911 1.327 . S
C2911 H2905 0.950 . S
C2911 C2910 1.327 . S
C2911 C2915 1.429 . S
C2912 C2895 1.574 . S
C2912 H2906 0.949 . S
C2912 C2916 1.368 1_455 S
C2913 C2894 1.429 . S
C2913 C2907 1.429 1_655 S
C2913 C2914 1.523 . S
C2914 C2895 1.368 1_655 S
C2914 C2908 1.368 . S
C2914 C2913 1.523 . S
C2915 C2899 1.429 1_655 S
C2915 C2911 1.429 . S
C2915 C2916 1.523 . S
C2916 C2900 1.368 . S
C2916 C2912 1.368 1_655 S
C2916 C2915 1.523 . S
H2917 C2892 0.950 . S
H2918 C2894 0.950 . S
H2919 C2895 0.949 . S
H2920 C2897 0.950 . S
H2921 C2899 0.950 . S
C2922 C2923 1.349 . S
C2922 C2924 1.327 . S
C2922 H2947 0.950 . S
C2923 C2922 1.349 . S
C2923 C2939 1.349 . S
C2924 C2922 1.327 . S
C2924 C2943 1.429 . S
C2924 H2948 0.950 . S
C2925 C2942 1.574 . S
C2925 C2944 1.368 . S
C2925 H2949 0.949 . S
H2926 C2930 0.949 . S
C2927 C2928 1.349 . S
C2927 C2929 1.327 . S
C2927 H2950 0.950 . S
C2928 C2927 1.349 . S
C2928 C2940 1.349 . S
C2929 C2927 1.327 . S
C2929 C2945 1.429 . S
C2929 H2951 0.950 . S
C2930 H2926 0.949 . S
C2930 C2938 1.574 . S
C2930 C2946 1.368 . S
H2931 C2939 0.950 . S
H2932 C2937 0.950 . S
H2933 C2938 0.949 . S
H2934 C2940 0.950 . S
H2935 C2941 0.950 . S
H2936 C2942 0.949 . S
C2937 H2932 0.950 . S
C2937 C2939 1.327 . S
C2937 C2943 1.429 . S
C2938 C2930 1.574 . S
C2938 H2933 0.949 . S
C2938 C2944 1.368 . S
C2939 C2923 1.349 . S
C2939 H2931 0.950 . S
C2939 C2937 1.327 . S
C2940 C2928 1.349 . S
C2940 H2934 0.950 . S
C2940 C2941 1.327 . S
C2941 H2935 0.950 . S
C2941 C2940 1.327 . S
C2941 C2945 1.429 . S
C2942 C2925 1.574 . S
C2942 H2936 0.949 . S
C2942 C2946 1.368 . S
C2943 C2924 1.429 . S
C2943 C2937 1.429 . S
C2943 C2944 1.523 . S
C2944 C2925 1.368 . S
C2944 C2938 1.368 . S
C2944 C2943 1.523 . S
C2945 C2929 1.429 . S
C2945 C2941 1.429 . S
C2945 C2946 1.523 . S
C2946 C2930 1.368 . S
C2946 C2942 1.368 . S
C2946 C2945 1.523 . S
H2947 C2922 0.950 . S
H2948 C2924 0.950 . S
H2949 C2925 0.949 . S
H2950 C2927 0.950 . S
H2951 C2929 0.950 . S
C2952 C2953 1.349 . S
C2952 C2954 1.327 . S
C2952 H2977 0.950 . S
C2953 C2952 1.349 . S
C2953 C2969 1.349 . S
C2954 C2952 1.327 . S
C2954 C2973 1.429 . S
C2954 H2978 0.950 . S
C2955 C2972 1.574 . S
C2955 C2974 1.368 . S
C2955 H2979 0.949 . S
H2956 C2960 0.949 . S
C2957 C2958 1.349 . S
C2957 C2959 1.327 . S
C2957 H2980 0.950 . S
C2958 C2957 1.349 . S
C2958 C2970 1.349 . S
C2959 C2957 1.327 . S
C2959 C2975 1.429 . S
C2959 H2981 0.950 . S
C2960 H2956 0.949 . S
C2960 C2968 1.574 . S
C2960 C2976 1.368 . S
H2961 C2969 0.950 . S
H2962 C2967 0.950 . S
H2963 C2968 0.949 . S
H2964 C2970 0.950 . S
H2965 C2971 0.950 . S
H2966 C2972 0.949 . S
C2967 H2962 0.950 . S
C2967 C2969 1.327 . S
C2967 C2973 1.429 . S
C2968 C2960 1.574 . S
C2968 H2963 0.949 . S
C2968 C2974 1.368 . S
C2969 C2953 1.349 . S
C2969 H2961 0.950 . S
C2969 C2967 1.327 . S
C2970 C2958 1.349 . S
C2970 H2964 0.950 . S
C2970 C2971 1.327 . S
C2971 H2965 0.950 . S
C2971 C2970 1.327 . S
C2971 C2975 1.429 . S
C2972 C2955 1.574 . S
C2972 H2966 0.949 . S
C2972 C2976 1.368 . S
C2973 C2954 1.429 . S
C2973 C2967 1.429 . S
C2973 C2974 1.523 . S
C2974 C2955 1.368 . S
C2974 C2968 1.368 . S
C2974 C2973 1.523 . S
C2975 C2959 1.429 . S
C2975 C2971 1.429 . S
C2975 C2976 1.523 . S
C2976 C2960 1.368 . S
C2976 C2972 1.368 . S
C2976 C2975 1.523 . S
H2977 C2952 0.950 . S
H2978 C2954 0.950 . S
H2979 C2955 0.949 . S
H2980 C2957 0.950 . S
H2981 C2959 0.950 . S
C2982 C2983 1.349 . S
C2982 C2984 1.327 . S
C2982 H3007 0.950 . S
C2983 C2982 1.349 . S
C2983 C2999 1.349 . S
C2984 C2982 1.327 . S
C2984 C3003 1.429 . S
C2984 H3008 0.950 . S
C2985 C3002 1.574 . S
C2985 C3004 1.368 . S
C2985 H3009 0.949 . S
H2986 C2990 0.949 . S
C2987 C2988 1.349 . S
C2987 C2989 1.327 . S
C2987 H3010 0.950 . S
C2988 C2987 1.349 . S
C2988 C3000 1.349 . S
C2989 C2987 1.327 . S
C2989 C3005 1.429 . S
C2989 H3011 0.950 . S
C2990 H2986 0.949 . S
C2990 C2998 1.574 . S
C2990 C3006 1.368 . S
H2991 C2999 0.950 . S
H2992 C2997 0.950 . S
H2993 C2998 0.949 . S
H2994 C3000 0.950 . S
H2995 C3001 0.950 . S
H2996 C3002 0.949 . S
C2997 H2992 0.950 . S
C2997 C2999 1.327 . S
C2997 C3003 1.429 . S
C2998 C2990 1.574 . S
C2998 H2993 0.949 . S
C2998 C3004 1.368 . S
C2999 C2983 1.349 . S
C2999 H2991 0.950 . S
C2999 C2997 1.327 . S
C3000 C2988 1.349 . S
C3000 H2994 0.950 . S
C3000 C3001 1.327 . S
C3001 H2995 0.950 . S
C3001 C3000 1.327 . S
C3001 C3005 1.429 . S
C3002 C2985 1.574 . S
C3002 H2996 0.949 . S
C3002 C3006 1.368 . S
C3003 C2984 1.429 . S
C3003 C2997 1.429 . S
C3003 C3004 1.523 . S
C3004 C2985 1.368 . S
C3004 C2998 1.368 . S
C3004 C3003 1.523 . S
C3005 C2989 1.429 . S
C3005 C3001 1.429 . S
C3005 C3006 1.523 . S
C3006 C2990 1.368 . S
C3006 C3002 1.368 . S
C3006 C3005 1.523 . S
H3007 C2982 0.950 . S
H3008 C2984 0.950 . S
H3009 C2985 0.949 . S
H3010 C2987 0.950 . S
H3011 C2989 0.950 . S
C3012 C3013 1.349 . S
C3012 C3014 1.327 . S
C3012 H3037 0.950 . S
C3013 C3012 1.349 . S
C3013 C3029 1.349 . S
C3014 C3012 1.327 . S
C3014 C3033 1.429 . S
C3014 H3038 0.950 . S
C3015 C3032 1.574 . S
C3015 C3034 1.368 . S
C3015 H3039 0.949 . S
H3016 C3020 0.949 . S
C3017 C3018 1.349 . S
C3017 C3019 1.327 . S
C3017 H3040 0.950 . S
C3018 C3017 1.349 . S
C3018 C3030 1.349 . S
C3019 C3017 1.327 . S
C3019 C3035 1.429 . S
C3019 H3041 0.950 . S
C3020 H3016 0.949 . S
C3020 C3028 1.574 . S
C3020 C3036 1.368 . S
H3021 C3029 0.950 . S
H3022 C3027 0.950 . S
H3023 C3028 0.949 . S
H3024 C3030 0.950 . S
H3025 C3031 0.950 . S
H3026 C3032 0.949 . S
C3027 H3022 0.950 . S
C3027 C3029 1.327 . S
C3027 C3033 1.429 . S
C3028 C3020 1.574 . S
C3028 H3023 0.949 . S
C3028 C3034 1.368 . S
C3029 C3013 1.349 . S
C3029 H3021 0.950 . S
C3029 C3027 1.327 . S
C3030 C3018 1.349 . S
C3030 H3024 0.950 . S
C3030 C3031 1.327 . S
C3031 H3025 0.950 . S
C3031 C3030 1.327 . S
C3031 C3035 1.429 . S
C3032 C3015 1.574 . S
C3032 H3026 0.949 . S
C3032 C3036 1.368 . S
C3033 C3014 1.429 . S
C3033 C3027 1.429 . S
C3033 C3034 1.523 . S
C3034 C3015 1.368 . S
C3034 C3028 1.368 . S
C3034 C3033 1.523 . S
C3035 C3019 1.429 . S
C3035 C3031 1.429 . S
C3035 C3036 1.523 . S
C3036 C3020 1.368 . S
C3036 C3032 1.368 . S
C3036 C3035 1.523 . S
H3037 C3012 0.950 . S
H3038 C3014 0.950 . S
H3039 C3015 0.949 . S
H3040 C3017 0.950 . S
H3041 C3019 0.950 . S
C3042 C3043 1.349 . S
C3042 C3044 1.327 . S
C3042 H3067 0.950 . S
C3043 C3042 1.349 . S
C3043 C3059 1.349 . S
C3044 C3042 1.327 . S
C3044 C3063 1.429 . S
C3044 H3068 0.950 . S
C3045 C3062 1.574 . S
C3045 C3064 1.368 . S
C3045 H3069 0.949 . S
H3046 C3050 0.949 . S
C3047 C3048 1.349 . S
C3047 C3049 1.327 . S
C3047 H3070 0.950 . S
C3048 C3047 1.349 . S
C3048 C3060 1.349 . S
C3049 C3047 1.327 . S
C3049 C3065 1.429 . S
C3049 H3071 0.950 . S
C3050 H3046 0.949 . S
C3050 C3058 1.574 . S
C3050 C3066 1.368 . S
H3051 C3059 0.950 . S
H3052 C3057 0.950 . S
H3053 C3058 0.949 . S
H3054 C3060 0.950 . S
H3055 C3061 0.950 . S
H3056 C3062 0.949 . S
C3057 H3052 0.950 . S
C3057 C3059 1.327 . S
C3057 C3063 1.429 . S
C3058 C3050 1.574 . S
C3058 H3053 0.949 . S
C3058 C3064 1.368 . S
C3059 C3043 1.349 . S
C3059 H3051 0.950 . S
C3059 C3057 1.327 . S
C3060 C3048 1.349 . S
C3060 H3054 0.950 . S
C3060 C3061 1.327 . S
C3061 H3055 0.950 . S
C3061 C3060 1.327 . S
C3061 C3065 1.429 . S
C3062 C3045 1.574 . S
C3062 H3056 0.949 . S
C3062 C3066 1.368 . S
C3063 C3044 1.429 . S
C3063 C3057 1.429 . S
C3063 C3064 1.523 . S
C3064 C3045 1.368 . S
C3064 C3058 1.368 . S
C3064 C3063 1.523 . S
C3065 C3049 1.429 . S
C3065 C3061 1.429 . S
C3065 C3066 1.523 . S
C3066 C3050 1.368 . S
C3066 C3062 1.368 . S
C3066 C3065 1.523 . S
H3067 C3042 0.950 . S
H3068 C3044 0.950 . S
H3069 C3045 0.949 . S
H3070 C3047 0.950 . S
H3071 C3049 0.950 . S
C3072 C3073 1.349 . S
C3072 C3074 1.327 . S
C3072 H3097 0.950 . S
C3073 C3072 1.349 . S
C3073 C3089 1.349 . S
C3074 C3072 1.327 . S
C3074 C3093 1.429 . S
C3074 H3098 0.950 . S
C3075 C3092 1.574 . S
C3075 C3094 1.368 . S
C3075 H3099 0.949 . S
H3076 C3080 0.949 . S
C3077 C3078 1.349 . S
C3077 C3079 1.327 . S
C3077 H3100 0.950 . S
C3078 C3077 1.349 . S
C3078 C3090 1.349 . S
C3079 C3077 1.327 . S
C3079 C3095 1.429 . S
C3079 H3101 0.950 . S
C3080 H3076 0.949 . S
C3080 C3088 1.574 . S
C3080 C3096 1.368 . S
H3081 C3089 0.950 . S
H3082 C3087 0.950 . S
H3083 C3088 0.949 . S
H3084 C3090 0.950 . S
H3085 C3091 0.950 . S
H3086 C3092 0.949 . S
C3087 H3082 0.950 . S
C3087 C3089 1.327 . S
C3087 C3093 1.429 . S
C3088 C3080 1.574 . S
C3088 H3083 0.949 . S
C3088 C3094 1.368 . S
C3089 C3073 1.349 . S
C3089 H3081 0.950 . S
C3089 C3087 1.327 . S
C3090 C3078 1.349 . S
C3090 H3084 0.950 . S
C3090 C3091 1.327 . S
C3091 H3085 0.950 . S
C3091 C3090 1.327 . S
C3091 C3095 1.429 . S
C3092 C3075 1.574 . S
C3092 H3086 0.949 . S
C3092 C3096 1.368 . S
C3093 C3074 1.429 . S
C3093 C3087 1.429 . S
C3093 C3094 1.523 . S
C3094 C3075 1.368 . S
C3094 C3088 1.368 . S
C3094 C3093 1.523 . S
C3095 C3079 1.429 . S
C3095 C3091 1.429 . S
C3095 C3096 1.523 . S
C3096 C3080 1.368 . S
C3096 C3092 1.368 . S
C3096 C3095 1.523 . S
H3097 C3072 0.950 . S
H3098 C3074 0.950 . S
H3099 C3075 0.949 . S
H3100 C3077 0.950 . S
H3101 C3079 0.950 . S
C3102 C3103 1.349 . S
C3102 C3104 1.327 . S
C3102 H3127 0.950 . S
C3103 C3102 1.349 . S
C3103 C3119 1.349 . S
C3104 C3102 1.327 . S
C3104 C3123 1.429 . S
C3104 H3128 0.950 . S
C3105 C3122 1.574 . S
C3105 C3124 1.368 . S
C3105 H3129 0.949 . S
H3106 C3110 0.949 . S
C3107 C3108 1.349 . S
C3107 C3109 1.327 . S
C3107 H3130 0.950 . S
C3108 C3107 1.349 . S
C3108 C3120 1.349 . S
C3109 C3107 1.327 . S
C3109 C3125 1.429 . S
C3109 H3131 0.950 . S
C3110 H3106 0.949 . S
C3110 C3118 1.574 . S
C3110 C3126 1.368 . S
H3111 C3119 0.950 . S
H3112 C3117 0.950 . S
H3113 C3118 0.949 . S
H3114 C3120 0.950 . S
H3115 C3121 0.950 . S
H3116 C3122 0.949 . S
C3117 H3112 0.950 . S
C3117 C3119 1.327 . S
C3117 C3123 1.429 . S
C3118 C3110 1.574 . S
C3118 H3113 0.949 . S
C3118 C3124 1.368 . S
C3119 C3103 1.349 . S
C3119 H3111 0.950 . S
C3119 C3117 1.327 . S
C3120 C3108 1.349 . S
C3120 H3114 0.950 . S
C3120 C3121 1.327 . S
C3121 H3115 0.950 . S
C3121 C3120 1.327 . S
C3121 C3125 1.429 . S
C3122 C3105 1.574 . S
C3122 H3116 0.949 . S
C3122 C3126 1.368 . S
C3123 C3104 1.429 . S
C3123 C3117 1.429 . S
C3123 C3124 1.523 . S
C3124 C3105 1.368 . S
C3124 C3118 1.368 . S
C3124 C3123 1.523 . S
C3125 C3109 1.429 . S
C3125 C3121 1.429 . S
C3125 C3126 1.523 . S
C3126 C3110 1.368 . S
C3126 C3122 1.368 . S
C3126 C3125 1.523 . S
H3127 C3102 0.950 . S
H3128 C3104 0.950 . S
H3129 C3105 0.949 . S
H3130 C3107 0.950 . S
H3131 C3109 0.950 . S
C3132 C3133 1.349 . S
C3132 C3134 1.327 . S
C3132 H3157 0.950 . S
C3133 C3132 1.349 . S
C3133 C3149 1.349 . S
C3134 C3132 1.327 . S
C3134 C3153 1.429 . S
C3134 H3158 0.950 . S
C3135 C3152 1.574 . S
C3135 C3154 1.368 . S
C3135 H3159 0.949 . S
H3136 C3140 0.949 . S
C3137 C3138 1.349 . S
C3137 C3139 1.327 . S
C3137 H3160 0.950 . S
C3138 C3137 1.349 . S
C3138 C3150 1.349 . S
C3139 C3137 1.327 . S
C3139 C3155 1.429 . S
C3139 H3161 0.950 . S
C3140 H3136 0.949 . S
C3140 C3148 1.574 . S
C3140 C3156 1.368 . S
H3141 C3149 0.950 . S
H3142 C3147 0.950 . S
H3143 C3148 0.949 . S
H3144 C3150 0.950 . S
H3145 C3151 0.950 . S
H3146 C3152 0.949 . S
C3147 H3142 0.950 . S
C3147 C3149 1.327 . S
C3147 C3153 1.429 . S
C3148 C3140 1.574 . S
C3148 H3143 0.949 . S
C3148 C3154 1.368 . S
C3149 C3133 1.349 . S
C3149 H3141 0.950 . S
C3149 C3147 1.327 . S
C3150 C3138 1.349 . S
C3150 H3144 0.950 . S
C3150 C3151 1.327 . S
C3151 H3145 0.950 . S
C3151 C3150 1.327 . S
C3151 C3155 1.429 . S
C3152 C3135 1.574 . S
C3152 H3146 0.949 . S
C3152 C3156 1.368 . S
C3153 C3134 1.429 . S
C3153 C3147 1.429 . S
C3153 C3154 1.523 . S
C3154 C3135 1.368 . S
C3154 C3148 1.368 . S
C3154 C3153 1.523 . S
C3155 C3139 1.429 . S
C3155 C3151 1.429 . S
C3155 C3156 1.523 . S
C3156 C3140 1.368 . S
C3156 C3152 1.368 . S
C3156 C3155 1.523 . S
H3157 C3132 0.950 . S
H3158 C3134 0.950 . S
H3159 C3135 0.949 . S
H3160 C3137 0.950 . S
H3161 C3139 0.950 . S
C3162 C3163 1.349 . S
C3162 C3164 1.327 . S
C3162 H3187 0.950 . S
C3163 C3162 1.349 . S
C3163 C3179 1.349 . S
C3164 C3162 1.327 . S
C3164 C3183 1.429 . S
C3164 H3188 0.950 . S
C3165 C3182 1.574 . S
C3165 C3184 1.368 . S
C3165 H3189 0.949 . S
H3166 C3170 0.949 . S
C3167 C3168 1.349 . S
C3167 C3169 1.327 . S
C3167 H3190 0.950 . S
C3168 C3167 1.349 . S
C3168 C3180 1.349 . S
C3169 C3167 1.327 . S
C3169 C3185 1.429 . S
C3169 H3191 0.950 . S
C3170 H3166 0.949 . S
C3170 C3178 1.574 . S
C3170 C3186 1.368 . S
H3171 C3179 0.950 . S
H3172 C3177 0.950 . S
H3173 C3178 0.949 . S
H3174 C3180 0.950 . S
H3175 C3181 0.950 . S
H3176 C3182 0.949 . S
C3177 H3172 0.950 . S
C3177 C3179 1.327 . S
C3177 C3183 1.429 . S
C3178 C3170 1.574 . S
C3178 H3173 0.949 . S
C3178 C3184 1.368 . S
C3179 C3163 1.349 . S
C3179 H3171 0.950 . S
C3179 C3177 1.327 . S
C3180 C3168 1.349 . S
C3180 H3174 0.950 . S
C3180 C3181 1.327 . S
C3181 H3175 0.950 . S
C3181 C3180 1.327 . S
C3181 C3185 1.429 . S
C3182 C3165 1.574 . S
C3182 H3176 0.949 . S
C3182 C3186 1.368 . S
C3183 C3164 1.429 . S
C3183 C3177 1.429 . S
C3183 C3184 1.523 . S
C3184 C3165 1.368 . S
C3184 C3178 1.368 . S
C3184 C3183 1.523 . S
C3185 C3169 1.429 . S
C3185 C3181 1.429 . S
C3185 C3186 1.523 . S
C3186 C3170 1.368 . S
C3186 C3182 1.368 . S
C3186 C3185 1.523 . S
H3187 C3162 0.950 . S
H3188 C3164 0.950 . S
H3189 C3165 0.949 . S
H3190 C3167 0.950 . S
H3191 C3169 0.950 . S
C3192 C3193 1.349 . S
C3192 C3194 1.327 . S
C3192 H3217 0.950 . S
C3193 C3192 1.349 . S
C3193 C3209 1.349 . S
C3194 C3192 1.327 . S
C3194 C3213 1.429 . S
C3194 H3218 0.950 . S
C3195 C3212 1.574 . S
C3195 C3214 1.368 1_565 S
C3195 H3219 0.949 . S
H3196 C3200 0.949 . S
C3197 C3198 1.349 1_565 S
C3197 C3199 1.327 . S
C3197 H3220 0.950 . S
C3198 C3197 1.349 1_545 S
C3198 C3210 1.349 . S
C3199 C3197 1.327 . S
C3199 C3215 1.429 1_565 S
C3199 H3221 0.950 . S
C3200 H3196 0.949 . S
C3200 C3208 1.574 . S
C3200 C3216 1.368 . S
H3201 C3209 0.950 1_565 S
H3202 C3207 0.950 1_565 S
H3203 C3208 0.949 . S
H3204 C3210 0.950 . S
H3205 C3211 0.950 . S
H3206 C3212 0.949 . S
C3207 H3202 0.950 1_545 S
C3207 C3209 1.327 . S
C3207 C3213 1.429 . S
C3208 C3200 1.574 . S
C3208 H3203 0.949 . S
C3208 C3214 1.368 . S
C3209 C3193 1.349 . S
C3209 H3201 0.950 1_545 S
C3209 C3207 1.327 . S
C3210 C3198 1.349 . S
C3210 H3204 0.950 . S
C3210 C3211 1.327 . S
C3211 H3205 0.950 . S
C3211 C3210 1.327 . S
C3211 C3215 1.429 . S
C3212 C3195 1.574 . S
C3212 H3206 0.949 . S
C3212 C3216 1.368 1_565 S
C3213 C3194 1.429 . S
C3213 C3207 1.429 . S
C3213 C3214 1.523 . S
C3214 C3195 1.368 1_545 S
C3214 C3208 1.368 . S
C3214 C3213 1.523 . S
C3215 C3199 1.429 1_545 S
C3215 C3211 1.429 . S
C3215 C3216 1.523 . S
C3216 C3200 1.368 . S
C3216 C3212 1.368 1_545 S
C3216 C3215 1.523 . S
H3217 C3192 0.950 . S
H3218 C3194 0.950 . S
H3219 C3195 0.949 . S
H3220 C3197 0.950 . S
H3221 C3199 0.950 . S
C1063 C8 1.349 . S
C1068 C670 1.396 . S
C1093 C18 1.463 . S
C1098 C716 1.502 . S
C1128 C748 1.459 . S
C1123 C31 1.378 . S
C1153 C34 1.376 . S
C1158 C801 1.404 . S
C1183 C5 1.376 . S
C1188 C847 1.457 . S
C1213 C21 1.472 . S
C1218 C886 1.522 . S
C1243 C47 1.338 . S
C1248 C840 1.375 . S
C1278 C893 1.502 . S
C1273 C57 1.458 . S
C1308 C794 1.483 . S
C1303 C70 1.411 . S
C1333 C73 1.332 . S
C1338 C755 1.399 . S
C1368 C649 1.470 . S
C1363 C44 1.399 . S
C1393 C60 1.466 . S
C1398 C695 1.509 . S
C1423 C86 1.563 . S
C1428 C925 1.610 . S
C1453 C96 1.531 . S
C1458 C992 1.550 . S
C1488 C1038 1.605 . S
C1483 C109 1.590 . S
C1513 C112 1.555 . S
C1518 C249 1.587 . S
C1543 C83 1.589 . S
C1548 C295 1.616 . S
C1573 C99 1.534 . S
C1578 C341 1.563 . S
C1603 C125 1.458 . S
C1608 C288 1.493 . S
C1633 C135 1.521 . S
C1638 C334 1.553 . S
C1668 C242 1.620 . S
C1663 C148 1.593 . S
C1698 C1017 1.688 . S
C1693 C151 1.654 . S
C1728 C946 1.586 . S
C1723 C122 1.562 . S
C1758 C971 1.601 . S
C1753 C138 1.571 . S
C1783 C164 1.466 . S
C1788 C373 1.511 . S
C1813 C174 1.509 . S
C1818 C426 1.548 . S
C1843 C187 1.585 . S
C1848 C472 1.621 . S
C1873 C190 1.647 . S
C1878 C518 1.691 . S
C1908 C571 1.600 . S
C1903 C161 1.585 . S
C1938 C617 1.605 . S
C1933 C177 1.575 . S
C1968 C564 1.617 . S
C1963 C203 1.578 . S
C1998 C610 1.567 . S
C1993 C213 1.547 . S
C2023 C226 1.578 . S
C2028 C525 1.602 . S
C2058 C479 1.585 . S
C2053 C229 1.543 . S
C2083 C200 1.585 . S
C2088 C394 1.622 . S
C2118 C433 1.583 . S
C2113 C216 1.544 . S
C2148 C256 1.473 . S
C2143 C0 1.418 . S
C2173 C23 1.388 . S
C2178 C302 1.372 . S
C2208 C348 1.479 . S
C2203 C36 1.494 . S
C2238 C380 1.495 . S
C2233 C26 1.445 1_556 S
C2268 C419 1.434 . S
C2263 C10 1.472 . S
C2298 C465 1.387 . S
C2293 C13 1.360 . S
C2323 C39 1.432 . S
C2328 C486 1.482 . S
C2353 C62 1.375 . S
C2358 C387 1.350 . S
C2383 C75 1.488 . S
C2388 C440 1.426 . S
C2413 C65 1.485 . S
C2418 C281 1.548 . S
C2448 C327 1.437 . S
C2443 C49 1.454 . S
C2473 C52 1.358 . S
C2478 C235 1.397 . S
C2508 C511 1.407 . S
C2503 C78 1.377 . S
C2533 C101 1.527 . S
C2538 C578 1.511 . S
C2563 C114 1.548 . S
C2568 C624 1.524 . S
C2598 C663 1.241 . S
C2593 C104 1.217 . S
C2623 C88 1.395 . S
C2628 C709 1.382 . S
C2653 C91 1.129 . S
C2658 C741 1.146 . S
C2683 C117 1.168 . S
C2688 C762 1.177 . S
C2713 C140 1.184 . S
C2718 C656 1.161 . S
C2748 C702 1.411 . S
C2743 C153 1.421 . S
C2773 C143 1.416 . S
C2778 C557 1.458 . S
C2803 C127 1.527 . S
C2808 C603 1.509 . S
C2838 C532 1.508 . S
C2833 C130 1.491 . S
C2868 C808 1.208 . S
C2863 C156 1.186 . S
C2893 C179 1.175 . S
C2898 C854 1.181 . S
C2923 C192 1.410 . S
C2928 C879 1.393 . S
C2958 C932 1.417 . S
C2953 C182 1.387 . S
C2988 C985 1.516 . S
C2983 C166 1.534 . S
C3013 C169 1.497 . S
C3018 C1031 1.526 . S
C3043 C195 1.394 . S
C3048 C1024 1.435 . S
C3073 C218 1.520 . S
C3078 C939 1.494 . S
C3108 C978 1.497 . S
C3103 C231 1.510 . S
C3138 C833 1.218 . S
C3133 C221 1.195 . S
C3168 C900 1.383 . S
C3163 C205 1.406 . S
C3193 C208 1.149 . S
C3198 C787 1.170 . S
