# Generated by pormake.
# Topology ptr, (4,4)-cn, num edge types: 1
# Building blocks:
#     Node 0, Type 0, BuildingBlock: QUQFOY_clean_sbu_3, # of connection points: 4
#     Node 1, Type 0, BuildingBlock: QUQFOY_clean_sbu_3, # of connection points: 4
#     Node 2, Type 0, BuildingBlock: QUQFOY_clean_sbu_3, # of connection points: 4
#     Node 3, Type 0, BuildingBlock: QUQFOY_clean_sbu_3, # of connection points: 4
#     Node 4, Type 0, BuildingBlock: QUQFOY_clean_sbu_3, # of connection points: 4
#     Node 5, Type 0, BuildingBlock: QUQFOY_clean_sbu_3, # of connection points: 4
#     Node 6, Type 0, BuildingBlock: QUQFOY_clean_sbu_3, # of connection points: 4
#     Node 7, Type 0, BuildingBlock: QUQFOY_clean_sbu_3, # of connection points: 4
#     Node 8, Type 0, BuildingBlock: QUQFOY_clean_sbu_3, # of connection points: 4
#     Node 9, Type 0, BuildingBlock: QUQFOY_clean_sbu_3, # of connection points: 4
#     Node 10, Type 0, BuildingBlock: QUQFOY_clean_sbu_3, # of connection points: 4
#     Node 11, Type 0, BuildingBlock: QUQFOY_clean_sbu_3, # of connection points: 4
#     Node 12, Type 0, BuildingBlock: QUQFOY_clean_sbu_3, # of connection points: 4
#     Node 13, Type 0, BuildingBlock: QUQFOY_clean_sbu_3, # of connection points: 4
#     Node 14, Type 0, BuildingBlock: QUQFOY_clean_sbu_3, # of connection points: 4
#     Node 15, Type 0, BuildingBlock: QUQFOY_clean_sbu_3, # of connection points: 4
#     Node 16, Type 0, BuildingBlock: QUQFOY_clean_sbu_3, # of connection points: 4
#     Node 17, Type 0, BuildingBlock: QUQFOY_clean_sbu_3, # of connection points: 4
#     Node 18, Type 1, BuildingBlock: NAHDIM_clean_linker_0, # of connection points: 4
#     Node 19, Type 1, BuildingBlock: NAHDIM_clean_linker_0, # of connection points: 4
#     Node 20, Type 1, BuildingBlock: NAHDIM_clean_linker_0, # of connection points: 4
#     Node 21, Type 1, BuildingBlock: NAHDIM_clean_linker_0, # of connection points: 4
#     Node 22, Type 1, BuildingBlock: NAHDIM_clean_linker_0, # of connection points: 4
#     Node 23, Type 1, BuildingBlock: NAHDIM_clean_linker_0, # of connection points: 4
#     Node 24, Type 1, BuildingBlock: NAHDIM_clean_linker_0, # of connection points: 4
#     Node 25, Type 1, BuildingBlock: NAHDIM_clean_linker_0, # of connection points: 4
#     Node 26, Type 1, BuildingBlock: NAHDIM_clean_linker_0, # of connection points: 4
#     Node 27, Type 1, BuildingBlock: NAHDIM_clean_linker_0, # of connection points: 4
#     Node 28, Type 1, BuildingBlock: NAHDIM_clean_linker_0, # of connection points: 4
#     Node 29, Type 1, BuildingBlock: NAHDIM_clean_linker_0, # of connection points: 4
#     Node 30, Type 1, BuildingBlock: NAHDIM_clean_linker_0, # of connection points: 4
#     Node 31, Type 1, BuildingBlock: NAHDIM_clean_linker_0, # of connection points: 4
#     Node 32, Type 1, BuildingBlock: NAHDIM_clean_linker_0, # of connection points: 4
#     Node 33, Type 1, BuildingBlock: NAHDIM_clean_linker_0, # of connection points: 4
#     Node 34, Type 1, BuildingBlock: NAHDIM_clean_linker_0, # of connection points: 4
#     Node 35, Type 1, BuildingBlock: NAHDIM_clean_linker_0, # of connection points: 4
#     Edge 36, Type (0, 1), BuildingBlock: AJUNOK_clean_linker_0, # of connection points: 2
#     Edge 37, Type (0, 1), BuildingBlock: AJUNOK_clean_linker_0, # of connection points: 2
#     Edge 38, Type (0, 1), BuildingBlock: AJUNOK_clean_linker_0, # of connection points: 2
#     Edge 39, Type (0, 1), BuildingBlock: AJUNOK_clean_linker_0, # of connection points: 2
#     Edge 40, Type (0, 1), BuildingBlock: AJUNOK_clean_linker_0, # of connection points: 2
#     Edge 41, Type (0, 1), BuildingBlock: AJUNOK_clean_linker_0, # of connection points: 2
#     Edge 42, Type (0, 1), BuildingBlock: AJUNOK_clean_linker_0, # of connection points: 2
#     Edge 43, Type (0, 1), BuildingBlock: AJUNOK_clean_linker_0, # of connection points: 2
#     Edge 44, Type (0, 1), BuildingBlock: AJUNOK_clean_linker_0, # of connection points: 2
#     Edge 45, Type (0, 1), BuildingBlock: AJUNOK_clean_linker_0, # of connection points: 2
#     Edge 46, Type (0, 1), BuildingBlock: AJUNOK_clean_linker_0, # of connection points: 2
#     Edge 47, Type (0, 1), BuildingBlock: AJUNOK_clean_linker_0, # of connection points: 2
#     Edge 48, Type (0, 1), BuildingBlock: AJUNOK_clean_linker_0, # of connection points: 2
#     Edge 49, Type (0, 1), BuildingBlock: AJUNOK_clean_linker_0, # of connection points: 2
#     Edge 50, Type (0, 1), BuildingBlock: AJUNOK_clean_linker_0, # of connection points: 2
#     Edge 51, Type (0, 1), BuildingBlock: AJUNOK_clean_linker_0, # of connection points: 2
#     Edge 52, Type (0, 1), BuildingBlock: AJUNOK_clean_linker_0, # of connection points: 2
#     Edge 53, Type (0, 1), BuildingBlock: AJUNOK_clean_linker_0, # of connection points: 2
#     Edge 54, Type (0, 1), BuildingBlock: AJUNOK_clean_linker_0, # of connection points: 2
#     Edge 55, Type (0, 1), BuildingBlock: AJUNOK_clean_linker_0, # of connection points: 2
#     Edge 56, Type (0, 1), BuildingBlock: AJUNOK_clean_linker_0, # of connection points: 2
#     Edge 57, Type (0, 1), BuildingBlock: AJUNOK_clean_linker_0, # of connection points: 2
#     Edge 58, Type (0, 1), BuildingBlock: AJUNOK_clean_linker_0, # of connection points: 2
#     Edge 59, Type (0, 1), BuildingBlock: AJUNOK_clean_linker_0, # of connection points: 2
#     Edge 60, Type (0, 1), BuildingBlock: AJUNOK_clean_linker_0, # of connection points: 2
#     Edge 61, Type (0, 1), BuildingBlock: AJUNOK_clean_linker_0, # of connection points: 2
#     Edge 62, Type (0, 1), BuildingBlock: AJUNOK_clean_linker_0, # of connection points: 2
#     Edge 63, Type (0, 1), BuildingBlock: AJUNOK_clean_linker_0, # of connection points: 2
#     Edge 64, Type (0, 1), BuildingBlock: AJUNOK_clean_linker_0, # of connection points: 2
#     Edge 65, Type (0, 1), BuildingBlock: AJUNOK_clean_linker_0, # of connection points: 2
#     Edge 66, Type (0, 1), BuildingBlock: AJUNOK_clean_linker_0, # of connection points: 2
#     Edge 67, Type (0, 1), BuildingBlock: AJUNOK_clean_linker_0, # of connection points: 2
#     Edge 68, Type (0, 1), BuildingBlock: AJUNOK_clean_linker_0, # of connection points: 2
#     Edge 69, Type (0, 1), BuildingBlock: AJUNOK_clean_linker_0, # of connection points: 2
#     Edge 70, Type (0, 1), BuildingBlock: AJUNOK_clean_linker_0, # of connection points: 2
#     Edge 71, Type (0, 1), BuildingBlock: AJUNOK_clean_linker_0, # of connection points: 2
#     Edge 72, Type (0, 1), BuildingBlock: AJUNOK_clean_linker_0, # of connection points: 2
#     Edge 73, Type (0, 1), BuildingBlock: AJUNOK_clean_linker_0, # of connection points: 2
#     Edge 74, Type (0, 1), BuildingBlock: AJUNOK_clean_linker_0, # of connection points: 2
#     Edge 75, Type (0, 1), BuildingBlock: AJUNOK_clean_linker_0, # of connection points: 2
#     Edge 76, Type (0, 1), BuildingBlock: AJUNOK_clean_linker_0, # of connection points: 2
#     Edge 77, Type (0, 1), BuildingBlock: AJUNOK_clean_linker_0, # of connection points: 2
#     Edge 78, Type (0, 1), BuildingBlock: AJUNOK_clean_linker_0, # of connection points: 2
#     Edge 79, Type (0, 1), BuildingBlock: AJUNOK_clean_linker_0, # of connection points: 2
#     Edge 80, Type (0, 1), BuildingBlock: AJUNOK_clean_linker_0, # of connection points: 2
#     Edge 81, Type (0, 1), BuildingBlock: AJUNOK_clean_linker_0, # of connection points: 2
#     Edge 82, Type (0, 1), BuildingBlock: AJUNOK_clean_linker_0, # of connection points: 2
#     Edge 83, Type (0, 1), BuildingBlock: AJUNOK_clean_linker_0, # of connection points: 2
#     Edge 84, Type (0, 1), BuildingBlock: AJUNOK_clean_linker_0, # of connection points: 2
#     Edge 85, Type (0, 1), BuildingBlock: AJUNOK_clean_linker_0, # of connection points: 2
#     Edge 86, Type (0, 1), BuildingBlock: AJUNOK_clean_linker_0, # of connection points: 2
#     Edge 87, Type (0, 1), BuildingBlock: AJUNOK_clean_linker_0, # of connection points: 2
#     Edge 88, Type (0, 1), BuildingBlock: AJUNOK_clean_linker_0, # of connection points: 2
#     Edge 89, Type (0, 1), BuildingBlock: AJUNOK_clean_linker_0, # of connection points: 2
#     Edge 90, Type (0, 1), BuildingBlock: AJUNOK_clean_linker_0, # of connection points: 2
#     Edge 91, Type (0, 1), BuildingBlock: AJUNOK_clean_linker_0, # of connection points: 2
#     Edge 92, Type (0, 1), BuildingBlock: AJUNOK_clean_linker_0, # of connection points: 2
#     Edge 93, Type (0, 1), BuildingBlock: AJUNOK_clean_linker_0, # of connection points: 2
#     Edge 94, Type (0, 1), BuildingBlock: AJUNOK_clean_linker_0, # of connection points: 2
#     Edge 95, Type (0, 1), BuildingBlock: AJUNOK_clean_linker_0, # of connection points: 2
#     Edge 96, Type (0, 1), BuildingBlock: AJUNOK_clean_linker_0, # of connection points: 2
#     Edge 97, Type (0, 1), BuildingBlock: AJUNOK_clean_linker_0, # of connection points: 2
#     Edge 98, Type (0, 1), BuildingBlock: AJUNOK_clean_linker_0, # of connection points: 2
#     Edge 99, Type (0, 1), BuildingBlock: AJUNOK_clean_linker_0, # of connection points: 2
#     Edge 100, Type (0, 1), BuildingBlock: AJUNOK_clean_linker_0, # of connection points: 2
#     Edge 101, Type (0, 1), BuildingBlock: AJUNOK_clean_linker_0, # of connection points: 2
#     Edge 102, Type (0, 1), BuildingBlock: AJUNOK_clean_linker_0, # of connection points: 2
#     Edge 103, Type (0, 1), BuildingBlock: AJUNOK_clean_linker_0, # of connection points: 2
#     Edge 104, Type (0, 1), BuildingBlock: AJUNOK_clean_linker_0, # of connection points: 2
#     Edge 105, Type (0, 1), BuildingBlock: AJUNOK_clean_linker_0, # of connection points: 2
#     Edge 106, Type (0, 1), BuildingBlock: AJUNOK_clean_linker_0, # of connection points: 2
#     Edge 107, Type (0, 1), BuildingBlock: AJUNOK_clean_linker_0, # of connection points: 2
# Relax obj value: 0.030
# Max RMSD: 0.173
# Mean RMSD: 0.060
data_MOF--net-ptr--node1-QUQFOY_clean_sbu_3--node2-NAHDIM_clean_linker_0--edge1-AJUNOK_clean_linker_0
_symmetry_space_group_name_H-M    P1
_symmetry_Int_Tables_number       1
_symmetry_cell_setting            triclinic
loop_
_symmetry_equiv_pos_as_xyz
'x, y, z'
_cell_length_a     77.252143
_cell_length_b     77.280396
_cell_length_c     65.954028
_cell_angle_alpha  91.213553
_cell_angle_beta   89.974718
_cell_angle_gamma 120.72343
loop_
_atom_site_label
_atom_site_type_symbol
_atom_site_fract_x
_atom_site_fract_y
_atom_site_fract_z
_atom_type_partial_charge
C0 C 0.96166 0.29935 0.99195 0.0
O1 O 0.95167 0.30562 0.00166 0.0
Cd2 Cd 0.96882 0.33716 0.02092 0.0
O3 O 0.98067 0.30817 0.99395 0.0
Cd4 Cd 0.00893 0.3358 0.01281 0.0
C5 C 0.00081 0.36581 0.98301 0.0
O6 O 0.9939 0.3395 0.04403 0.0
O7 O 0.02255 0.36478 0.03524 0.0
O8 O 0.01968 0.31318 0.02457 0.0
C9 C 0.00852 0.35717 0.0481 0.0
O10 O 0.98606 0.36179 0.99458 0.0
C11 C 0.03714 0.32286 0.01707 0.0
O12 O 0.01117 0.35735 0.98519 0.0
O13 O 0.04158 0.33856 0.00729 0.0
C14 C 0.66085 0.68545 0.04413 0.0
O15 O 0.64186 0.67735 0.04333 0.0
Cd16 Cd 0.62106 0.64999 0.02014 0.0
O17 O 0.66994 0.67962 0.03226 0.0
Cd18 Cd 0.66268 0.65518 0.00425 0.0
C19 C 0.63486 0.61596 0.03434 0.0
O20 O 0.63629 0.65861 0.98764 0.0
O21 O 0.6402 0.63433 0.97677 0.0
O22 O 0.69224 0.68382 0.99061 0.0
C23 C 0.63134 0.64423 0.97496 0.0
O24 O 0.62148 0.62077 0.03239 0.0
C25 C 0.70025 0.67414 0.98381 0.0
O26 O 0.65245 0.62675 0.02714 0.0
O27 O 0.69118 0.65536 0.98701 0.0
C28 C 0.2972 0.96107 0.00986 0.0
O29 O 0.30431 0.95026 0.00385 0.0
Cd30 Cd 0.33863 0.96546 0.99258 0.0
O31 O 0.30792 0.98013 0.00904 0.0
Cd32 Cd 0.3414 0.00658 -0.00175 0.0
C33 C 0.36501 0.99497 0.03383 0.0
O34 O 0.34643 0.99089 0.96786 0.0
O35 O 0.37247 0.01771 0.98036 0.0
O36 O 0.32859 0.02352 0.97816 0.0
C37 C 0.36475 0.00469 0.966 0.0
O38 O 0.35996 0.97939 0.02273 0.0
C39 C 0.33429 0.03856 0.9901 0.0
O40 O 0.35963 0.00745 0.02905 0.0
O41 O 0.34351 0.03902 0.00624 0.0
C42 C 0.96195 0.6595 0.99728 0.0
O43 O 0.94942 0.64073 -0.00194 0.0
Cd44 Cd 0.95839 0.61888 0.01485 0.0
O45 O 0.97925 0.66728 0.00555 0.0
Cd46 Cd 0.00161 0.6604 0.02557 0.0
C47 C 4e-05 0.63007 0.98621 0.0
O48 O 0.97527 0.63548 0.04618 0.0
O49 O 0.00511 0.64059 0.05195 0.0
O50 O 0.0085 0.69139 0.04231 0.0
C51 C 0.98648 0.631 0.05605 0.0
O52 O 0.98166 0.6181 0.99049 0.0
C53 C 0.02728 0.70113 0.03899 0.0
O54 O 0.01073 0.64652 0.99624 0.0
O55 O 0.03458 0.69146 0.03027 0.0
C56 C 0.3121 0.35023 0.02823 0.0
O57 O 0.3196 0.36915 0.02988 0.0
Cd58 Cd 0.3525 0.39095 0.01594 0.0
O59 O 0.3213 0.34304 0.01848 0.0
Cd60 Cd 0.35091 0.35146 -0.00208 0.0
C61 C 0.38252 0.37554 0.03808 0.0
O62 O 0.34916 0.37824 0.98142 0.0
O63 O 0.3726 0.3729 0.97094 0.0
O64 O 0.32511 0.32178 0.98001 0.0
C65 C 0.36347 0.38257 0.96926 0.0
O66 O 0.37689 0.38839 0.03758 0.0
C67 C 0.33388 0.31173 0.98092 0.0
O68 O 0.37543 0.36076 0.02545 0.0
O69 O 0.3515 0.32072 0.98868 0.0
C70 C 0.70415 0.039 0.99264 0.0
O71 O 0.69895 0.05174 0.99723 0.0
Cd72 Cd 0.6664 0.04031 0.0124 0.0
O73 O 0.69302 0.02071 -0.00259 0.0
Cd74 Cd 0.66231 0.99703 0.01518 0.0
C75 C 0.63438 0.00201 0.97887 0.0
O76 O 0.6634 0.0205 0.04119 0.0
O77 O 0.63679 0.99072 0.04027 0.0
O78 O 0.68605 0.98971 0.03034 0.0
C79 C 0.64647 0.00807 0.0487 0.0
O80 O 0.64128 0.0196 0.98658 0.0
C81 C 0.67652 0.97095 0.02638 0.0
O82 O 0.64017 0.99042 0.98562 0.0
O83 O 0.65948 0.96375 0.01752 0.0
C84 C 0.63023 0.63907 0.31246 0.0
O85 O 0.61864 0.64618 0.31336 0.0
Cd86 Cd 0.62688 0.67587 0.33303 0.0
O87 O 0.64637 0.6468 0.32304 0.0
Cd88 Cd 0.66538 0.67397 0.34885 0.0
C89 C 0.67388 0.70775 0.31281 0.0
O90 O 0.63636 0.6717 0.36624 0.0
O91 O 0.66538 0.69729 0.37435 0.0
O92 O 0.66828 0.64773 0.3651 0.0
C93 C 0.64656 0.68739 0.37729 0.0
O94 O 0.65534 0.70208 0.31485 0.0
C95 C 0.68674 0.65858 0.3699 0.0
O96 O 0.68186 0.69963 0.32285 0.0
O97 O 0.69577 0.67684 0.3646 0.0
C98 C 0.33038 0.02236 0.37996 0.0
O99 O 0.31152 0.01539 0.38004 0.0
Cd100 Cd 0.28729 0.98748 0.35916 0.0
O101 O 0.33792 0.01404 0.36918 0.0
Cd102 Cd 0.32499 0.98399 0.34623 0.0
C103 C 0.29126 0.94944 0.37871 0.0
O104 O 0.30295 0.99188 0.3267 0.0
O105 O 0.30257 0.96476 0.31774 0.0
O106 O 0.35867 0.00145 0.33129 0.0
C107 C 0.2964 0.97683 0.31462 0.0
O108 O 0.27966 0.95622 0.37522 0.0
C109 C 0.36056 0.98605 0.33088 0.0
O110 O 0.30894 0.95785 0.37156 0.0
O111 O 0.34592 0.96988 0.33748 0.0
C112 C 0.9774 0.2984 0.35691 0.0
O113 O 0.98516 0.28735 0.35742 0.0
Cd114 Cd 0.01754 0.29639 0.34434 0.0
O115 O 0.98702 0.31585 0.3493 0.0
Cd116 Cd 0.01992 0.3377 0.33286 0.0
C117 C 0.04832 0.33867 0.37293 0.0
O118 O 0.01716 0.30997 0.31208 0.0
O119 O 0.04399 0.3387 0.30787 0.0
O120 O 0.00195 0.35177 0.31574 0.0
C121 C 0.03349 0.32026 0.30272 0.0
O122 O 0.04271 0.32039 0.36866 0.0
C123 C 0.01617 0.36995 0.31775 0.0
O124 O 0.04144 0.34778 0.36294 0.0
O125 O 0.03203 0.37301 0.32677 0.0
C126 C 0.62668 0.97373 0.31516 0.0
O127 O 0.61704 0.95461 0.31433 0.0
Cd128 Cd 0.63117 0.93649 0.32952 0.0
O129 O 0.64345 0.98342 0.32466 0.0
Cd130 Cd 0.66742 0.97933 0.34576 0.0
C131 C 0.67728 0.95567 0.30707 0.0
O132 O 0.63972 0.95194 0.3631 0.0
O133 O 0.66928 0.96069 0.37471 0.0
O134 O 0.67068 0.00968 0.36132 0.0
C135 C 0.65031 0.94962 0.3762 0.0
O136 O 0.65902 0.94143 0.30775 0.0
C137 C 0.68973 0.02016 0.36045 0.0
O138 O 0.68393 0.97087 0.31909 0.0
O139 O 0.69863 0.01124 0.3537 0.0
C140 C 0.97519 0.68498 0.36711 0.0
O141 O 0.98227 0.70355 0.37112 0.0
Cd142 Cd 0.01638 0.72731 0.36136 0.0
O143 O 0.98554 0.67922 0.35721 0.0
Cd144 Cd 0.01797 0.69261 0.33995 0.0
C145 C 0.04639 0.7121 0.3827 0.0
O146 O 0.01777 0.7213 0.32521 0.0
O147 O 0.04355 0.71827 0.31856 0.0
O148 O 0.0003 0.66804 0.31278 0.0
C149 C 0.0338 0.72709 0.31522 0.0
O150 O 0.04001 0.72434 0.38386 0.0
C151 C 0.00788 0.65724 0.31649 0.0
O152 O 0.04053 0.69901 0.36838 0.0
O153 O 0.02076 0.66318 0.33082 0.0
C154 C 0.35719 0.36695 0.31987 0.0
O155 O 0.34982 0.37826 0.31817 0.0
Cd156 Cd 0.31871 0.36988 0.33463 0.0
O157 O 0.34833 0.35111 0.33026 0.0
Cd158 Cd 0.31896 0.3311 0.35159 0.0
C159 C 0.28799 0.32401 0.31117 0.0
O160 O 0.32198 0.36065 0.36862 0.0
O161 O 0.29768 0.33201 0.37866 0.0
O162 O 0.34386 0.32615 0.36864 0.0
C163 C 0.30734 0.35108 0.3805 0.0
O164 O 0.29383 0.34265 0.31267 0.0
C165 C 0.33375 0.30705 0.3678 0.0
O166 O 0.29479 0.31614 0.32319 0.0
O167 O 0.316 0.29897 0.36044 0.0
C168 C 0.30075 0.98098 0.65125 0.0
O169 O 0.2893 0.98832 0.65145 0.0
Cd170 Cd 0.29608 0.01861 0.66926 0.0
O171 O 0.31791 0.99023 0.66011 0.0
Cd172 Cd 0.33851 0.02177 0.68025 0.0
C173 C 0.33853 0.05495 0.64679 0.0
O174 O 0.30962 0.01506 0.70043 0.0
O175 O 0.33734 0.04126 0.70999 0.0
O176 O 0.3548 0.00398 0.69313 0.0
C177 C 0.3186 0.0299 0.71263 0.0
O178 O 0.32012 0.04838 0.65073 0.0
C179 C 0.37252 0.01915 0.69239 0.0
O180 O 0.34783 0.0469 0.65423 0.0
O181 O 0.37421 0.03543 0.68641 0.0
C182 C 0.97433 0.34932 0.69326 0.0
O183 O 0.95561 0.33835 0.68945 0.0
Cd184 Cd 0.93984 0.30681 0.67162 0.0
O185 O 0.98687 0.34422 0.68739 0.0
Cd186 Cd 0.98709 0.31676 0.66666 0.0
C187 C 0.95585 0.27899 0.69792 0.0
O188 O 0.96293 0.31704 0.64466 0.0
O189 O 0.97125 0.29577 0.63483 0.0
O190 O 0.01914 0.34492 0.65619 0.0
C191 C 0.96084 0.30392 0.63169 0.0
O192 O 0.94181 0.28188 0.69219 0.0
C193 C 0.02885 0.33576 0.6563 0.0
O194 O 0.97386 0.29005 0.6919 0.0
O195 O 0.0191 0.31741 0.66133 0.0
C196 C 0.64538 0.63291 0.69653 0.0
O197 O 0.65462 0.62325 0.69596 0.0
Cd198 Cd 0.68632 0.6363 0.67859 0.0
O199 O 0.65249 0.64953 0.68752 0.0
Cd200 Cd 0.68076 0.67275 0.66651 0.0
C201 C 0.71516 0.68173 0.70339 0.0
O202 O 0.68134 0.6465 0.64592 0.0
O203 O 0.70485 0.677 0.64024 0.0
O204 O 0.65516 0.67681 0.64972 0.0
C205 C 0.69638 0.65844 0.63546 0.0
O206 O 0.71219 0.66422 0.69937 0.0
C207 C 0.66468 0.6959 0.65105 0.0
O208 O 0.70481 0.68801 0.69461 0.0
O209 O 0.68207 0.70435 0.65927 0.0
C210 C 0.2955 0.32123 0.64956 0.0
O211 O 0.28383 0.30236 0.64709 0.0
Cd212 Cd 0.29437 0.27986 0.6591 0.0
O213 O 0.31222 0.32815 0.65894 0.0
Cd214 Cd 0.33336 0.31862 0.67797 0.0
C215 C 0.33993 0.29611 0.63603 0.0
O216 O 0.30426 0.29109 0.69389 0.0
O217 O 0.33315 0.29591 0.70359 0.0
O218 O 0.33789 0.34752 0.69746 0.0
C219 C 0.31412 0.28609 0.70528 0.0
O220 O 0.32117 0.28323 0.63669 0.0
C221 C 0.35696 0.35737 0.69728 0.0
O222 O 0.34815 0.31049 0.6491 0.0
O223 O 0.36543 0.3487 0.68884 0.0
C224 C 0.66185 0.02837 0.69112 0.0
O225 O 0.67321 0.04738 0.69277 0.0
Cd226 Cd 0.70282 0.06496 0.67198 0.0
O227 O 0.66631 0.01817 0.67917 0.0
Cd228 Cd 0.69161 0.02126 0.6551 0.0
C229 C 0.72939 0.04502 0.69091 0.0
O230 O 0.69118 0.04885 0.639 0.0
O231 O 0.71058 0.0396 0.62507 0.0
O232 O 0.66185 0.99131 0.64191 0.0
C233 C 0.70287 0.05069 0.62466 0.0
O234 O 0.72875 0.061 0.68887 0.0
C235 C 0.66976 0.98044 0.64056 0.0
O236 O 0.71711 0.02879 0.68138 0.0
O237 O 0.68839 0.98892 0.6451 0.0
C238 C 0.0221 0.70457 0.65224 0.0
O239 O 0.01515 0.7162 0.6502 0.0
Cd240 Cd 0.98187 0.70687 0.66125 0.0
O241 O 0.0116 0.68761 0.66062 0.0
Cd242 Cd 0.97862 0.66732 0.67741 0.0
C243 C 0.95193 0.66315 0.63451 0.0
O244 O 0.98105 0.69634 0.69572 0.0
O245 O 0.9545 0.66764 0.70144 0.0
O246 O 0.99763 0.65651 0.6978 0.0
C247 C 0.96498 0.68632 0.70564 0.0
O248 O 0.95819 0.68185 0.63648 0.0
C249 C 0.98499 0.6378 0.69582 0.0
O250 O 0.95734 0.65451 0.64708 0.0
O251 O 0.9691 0.63286 0.68566 0.0
C252 C 0.22197 0.27794 0.01868 0.0
C253 C 0.2272 0.29157 0.03762 0.0
C254 C 0.21137 0.28229 0.07046 0.0
C255 C 0.21594 0.30145 0.07745 0.0
C256 C 0.20409 0.30361 0.09223 0.0
C257 C 0.18721 0.28623 0.09994 0.0
C258 C 0.18321 0.26688 0.09366 0.0
C259 C 0.19564 0.26519 0.07921 0.0
C260 C 0.20915 0.32447 0.09898 0.0
C261 C 0.16524 0.24802 0.10143 0.0
C262 C 0.0782 0.32016 0.04287 0.0
C263 C 0.0943 0.31686 0.05021 0.0
C264 C 0.10298 0.3037 0.07883 0.0
C265 C 0.09798 0.28422 0.08377 0.0
C266 C 0.11144 0.28083 0.09481 0.0
C267 C 0.13002 0.29744 0.1016 0.0
C268 C 0.13491 0.31725 0.09708 0.0
C269 C 0.12134 0.32017 0.08561 0.0
C270 C 0.1059 0.25951 0.0991 0.0
C271 C 0.15439 0.33529 0.1045 0.0
C272 C 0.09673 0.295 0.23027 0.0
C273 C 0.09178 0.27582 0.22274 0.0
C274 C 0.10631 0.27287 0.21311 0.0
C275 C 0.12606 0.28942 0.21083 0.0
C276 C 0.1312 0.30859 0.21885 0.0
C277 C 0.11645 0.31108 0.22854 0.0
C278 C 0.10043 0.2522 0.20483 0.0
C279 C 0.15213 0.32656 0.21664 0.0
C280 C 0.25241 0.26312 0.23355 0.0
C281 C 0.24442 0.27717 0.23868 0.0
C282 C 0.21054 0.27028 0.23083 0.0
C283 C 0.19146 0.25433 0.22528 0.0
C284 C 0.17773 0.25771 0.21469 0.0
C285 C 0.18319 0.27761 0.20989 0.0
C286 C 0.20214 0.29392 0.21629 0.0
C287 C 0.21563 0.29009 0.22671 0.0
C288 C 0.15753 0.24001 0.20835 0.0
C289 C 0.20817 0.31537 0.21195 0.0
C290 C 0.17254 0.28834 0.11266 0.0
C291 C 0.15877 0.29194 0.10266 0.0
C292 C 0.14435 0.29404 0.11336 0.0
C293 C 0.14349 0.29248 0.13468 0.0
C294 C 0.12916 0.29455 0.14589 0.0
C295 C 0.12832 0.29285 0.16684 0.0
C296 C 0.14175 0.28895 0.1774 0.0
C297 C 0.14091 0.28707 0.19869 0.0
C298 C 0.15449 0.2833 0.20879 0.0
C299 C 0.1691 0.28138 0.19814 0.0
C300 C 0.1702 0.2832 0.17679 0.0
C301 C 0.18473 0.28141 0.16556 0.0
C302 C 0.18567 0.28327 0.14457 0.0
C303 C 0.17198 0.28676 0.13399 0.0
C304 C 0.15731 0.28874 0.14502 0.0
C305 C 0.15642 0.28695 0.16642 0.0
C306 C 0.05166 0.28355 0.22088 0.0
C307 C 0.06258 0.28595 0.24107 0.0
O308 O 0.22132 0.27989 0.05473 0.0
O309 O 0.22362 0.26599 0.24 0.0
O310 O 0.08312 0.29888 0.23903 0.0
O311 O 0.08962 0.30628 0.06803 0.0
H312 H 0.21831 0.29921 0.03615 0.0
H313 H 0.20542 0.26748 0.01771 0.0
H314 H 0.22933 0.26881 0.01913 0.0
H315 H 0.22679 0.28711 0.00481 0.0
H316 H 0.22852 0.31472 0.07109 0.0
H317 H 0.19243 0.25047 0.07383 0.0
H318 H 0.19804 0.32782 0.09224 0.0
H319 H 0.22445 0.33619 0.0942 0.0
H320 H 0.2082 0.32537 0.11574 0.0
H321 H 0.16389 0.23412 0.09456 0.0
H322 H 0.15122 0.24815 0.09808 0.0
H323 H 0.16648 0.24752 0.11814 0.0
H324 H 0.10963 0.33048 0.0499 0.0
H325 H 0.0673 0.30304 0.01595 0.0
H326 H 0.06978 0.32244 0.05549 0.0
H327 H 0.06978 0.32244 0.05549 0.0
H328 H 0.08366 0.27164 0.0786 0.0
H329 H 0.12486 0.33528 0.08226 0.0
H330 H 0.11746 0.25655 0.09268 0.0
H331 H 0.09096 0.24823 0.09256 0.0
H332 H 0.10567 0.25749 0.11573 0.0
H333 H 0.15584 0.34973 0.09996 0.0
H334 H 0.16732 0.33443 0.09836 0.0
H335 H 0.15532 0.33522 0.1213 0.0
H336 H 0.05965 0.27103 0.24597 0.0
H337 H 0.07663 0.26315 0.22402 0.0
H338 H 0.12013 0.32577 0.23448 0.0
H339 H 0.10101 0.25246 0.18801 0.0
H340 H 0.08503 0.24053 0.20939 0.0
H341 H 0.1113 0.24788 0.21019 0.0
H342 H 0.15378 0.34041 0.22395 0.0
H343 H 0.15573 0.32937 0.2003 0.0
H344 H 0.16331 0.32339 0.22351 0.0
H345 H 0.24896 0.28756 0.22569 0.0
H346 H 0.26913 0.2718 0.23299 0.0
H347 H 0.24654 0.25581 0.21843 0.0
H348 H 0.24758 0.25109 0.24482 0.0
H349 H 0.18756 0.23913 0.22879 0.0
H350 H 0.23008 0.30259 0.23166 0.0
H351 H 0.15563 0.23979 0.19164 0.0
H352 H 0.14534 0.2416 0.21537 0.0
H353 H 0.15576 0.22542 0.21282 0.0
H354 H 0.22302 0.32644 0.21881 0.0
H355 H 0.19663 0.3186 0.21788 0.0
H356 H 0.20892 0.31746 0.1953 0.0
H357 H 0.15924 0.29304 0.08626 0.0
H358 H 0.11841 0.29751 0.13859 0.0
H359 H 0.11695 0.2946 0.17464 0.0
H360 H 0.15376 0.28196 0.22515 0.0
H361 H 0.19555 0.27858 0.17288 0.0
H362 H 0.1972 0.28184 0.1367 0.0
H363 H 0.03517 0.27335 0.22259 0.0
H364 H 0.05689 0.27692 0.20902 0.0
H365 H 0.0546 0.2984 0.21569 0.0
C366 C 0.72298 0.9214 0.02114 0.0
C367 C 0.71173 0.92071 0.04048 0.0
C368 C 0.72324 0.91594 0.07324 0.0
C369 C 0.70451 0.90296 0.08192 0.0
C370 C 0.7029 0.89028 0.09765 0.0
C371 C 0.72035 0.89057 0.10469 0.0
C372 C 0.73941 0.90468 0.09693 0.0
C373 C 0.74062 0.91741 0.08144 0.0
C374 C 0.68241 0.87593 0.10606 0.0
C375 C 0.75835 0.90554 0.10423 0.0
C376 C 0.68717 0.73893 0.05908 0.0
C377 C 0.69952 0.75944 0.06837 0.0
C378 C 0.6944 0.78553 0.08384 0.0
C379 C 0.71455 0.79842 0.08993 0.0
C380 C 0.72021 0.81615 0.10125 0.0
C381 C 0.70535 0.8208 0.10693 0.0
C382 C 0.68503 0.80771 0.10099 0.0
C383 C 0.67989 0.79034 0.08934 0.0
C384 C 0.74207 0.83001 0.10699 0.0
C385 C 0.66876 0.81215 0.10678 0.0
C386 C 0.70926 0.79446 0.23781 0.0
C387 C 0.72893 0.80911 0.23241 0.0
C388 C 0.7325 0.82614 0.2217 0.0
C389 C 0.71613 0.82861 0.21647 0.0
C390 C 0.69642 0.81413 0.22234 0.0
C391 C 0.69327 0.79723 0.2329 0.0
C392 C 0.75369 0.84135 0.21562 0.0
C393 C 0.67862 0.81633 0.21714 0.0
C394 C 0.74436 0.98373 0.2373 0.0
C395 C 0.72987 0.96131 0.24078 0.0
C396 C 0.73664 0.93399 0.23509 0.0
C397 C 0.75255 0.93066 0.23157 0.0
C398 C 0.74934 0.91308 0.22144 0.0
C399 C 0.72963 0.89836 0.21505 0.0
C400 C 0.71329 0.90115 0.21953 0.0
C401 C 0.71697 0.91896 0.22948 0.0
C402 C 0.76704 0.91042 0.21719 0.0
C403 C 0.69198 0.88542 0.21356 0.0
C404 C 0.71827 0.87415 0.11764 0.0
C405 C 0.71367 0.8561 0.10776 0.0
C406 C 0.71106 0.83963 0.11855 0.0
C407 C 0.71329 0.84111 0.13988 0.0
C408 C 0.71071 0.82476 0.1512 0.0
C409 C 0.71292 0.82634 0.17219 0.0
C410 C 0.71753 0.84425 0.18271 0.0
C411 C 0.71942 0.84584 0.20409 0.0
C412 C 0.72366 0.86371 0.21412 0.0
C413 C 0.7261 0.88019 0.20334 0.0
C414 C 0.72449 0.87898 0.18191 0.0
C415 C 0.727 0.89532 0.17055 0.0
C416 C 0.72499 0.89381 0.14949 0.0
C417 C 0.7205 0.87596 0.13899 0.0
C418 C 0.71805 0.85935 0.15014 0.0
C419 C 0.7201 0.86089 0.17159 0.0
C420 C 0.72315 0.76202 0.23526 0.0
C421 C 0.71753 0.77067 0.25353 0.0
O422 O 0.72503 0.92703 0.05685 0.0
O423 O 0.74082 0.95186 0.24372 0.0
O424 O 0.70477 0.77734 0.24751 0.0
O425 O 0.68829 0.76842 0.07262 0.0
H426 H 0.69952 0.90473 0.04207 0.0
H427 H 0.72914 0.91124 0.02249 0.0
H428 H 0.73569 0.9369 0.01857 0.0
H429 H 0.7126 0.91628 0.00781 0.0
H430 H 0.69113 0.9025 0.07621 0.0
H431 H 0.75505 0.92784 0.0749 0.0
H432 H 0.67727 0.8605 0.10009 0.0
H433 H 0.67106 0.87999 0.10173 0.0
H434 H 0.68318 0.87567 0.12286 0.0
H435 H 0.77211 0.91807 0.09743 0.0
H436 H 0.75758 0.89112 0.10028 0.0
H437 H 0.75963 0.90745 0.12099 0.0
H438 H 0.71383 0.76952 0.06039 0.0
H439 H 0.69345 0.74006 0.04343 0.0
H440 H 0.67272 0.73755 0.05353 0.0
H441 H 0.68791 0.72012 0.08102 0.0
H442 H 0.72595 0.79488 0.08571 0.0
H443 H 0.6644 0.78029 0.08454 0.0
H444 H 0.74719 0.84549 0.10191 0.0
H445 H 0.75197 0.82494 0.10026 0.0
H446 H 0.74383 0.83075 0.12374 0.0
H447 H 0.65344 0.79926 0.1032 0.0
H448 H 0.67096 0.8254 0.09839 0.0
H449 H 0.66975 0.81592 0.12325 0.0
H450 H 0.73137 0.78342 0.26062 0.0
H451 H 0.7415 0.80728 0.23626 0.0
H452 H 0.67817 0.78589 0.23721 0.0
H453 H 0.7545 0.84235 0.19884 0.0
H454 H 0.76486 0.83744 0.22103 0.0
H455 H 0.75788 0.85646 0.22188 0.0
H456 H 0.66439 0.80426 0.22368 0.0
H457 H 0.67676 0.81585 0.20041 0.0
H458 H 0.68134 0.83115 0.22281 0.0
H459 H 0.72072 0.95545 0.22654 0.0
H460 H 0.73584 0.99162 0.2354 0.0
H461 H 0.75305 0.98559 0.22326 0.0
H462 H 0.75525 0.99096 0.25009 0.0
H463 H 0.76763 0.94221 0.23625 0.0
H464 H 0.70444 0.92107 0.23284 0.0
H465 H 0.76803 0.9082 0.20062 0.0
H466 H 0.76482 0.89671 0.22471 0.0
H467 H 0.78152 0.92353 0.22264 0.0
H468 H 0.68078 0.88907 0.21967 0.0
H469 H 0.68836 0.87048 0.21912 0.0
H470 H 0.69051 0.88419 0.19678 0.0
H471 H 0.71189 0.85479 0.09137 0.0
H472 H 0.70699 0.81055 0.14395 0.0
H473 H 0.71084 0.81328 0.18007 0.0
H474 H 0.72476 0.8647 0.23055 0.0
H475 H 0.73049 0.90945 0.17782 0.0
H476 H 0.72696 0.90679 0.1415 0.0
H477 H 0.73317 0.75645 0.24014 0.0
H478 H 0.73126 0.77374 0.22383 0.0
H479 H 0.70941 0.74937 0.22793 0.0
C480 C 0.20116 0.91594 0.0322 0.0
C481 C 0.2182 0.92788 0.04776 0.0
C482 C 0.20264 0.90826 0.07835 0.0
C483 C 0.18887 0.91478 0.08175 0.0
C484 C 0.17353 0.90536 0.09604 0.0
C485 C 0.17189 0.88911 0.10707 0.0
C486 C 0.18629 0.88314 0.10434 0.0
C487 C 0.20159 0.89296 0.09012 0.0
C488 C 0.15862 0.91231 0.09887 0.0
C489 C 0.185 0.86582 0.11579 0.0
C490 C 0.06185 0.79381 0.02522 0.0
C491 C 0.06866 0.78875 0.04484 0.0
C492 C 0.07499 0.80699 0.07713 0.0
C493 C 0.08953 0.8031 0.0849 0.0
C494 C 0.1032 0.81573 0.1 0.0
C495 C 0.10237 0.83266 0.10729 0.0
C496 C 0.08691 0.83584 0.10037 0.0
C497 C 0.07318 0.82271 0.08554 0.0
C498 C 0.11916 0.81156 0.10742 0.0
C499 C 0.0856 0.85374 0.10778 0.0
C500 C 0.06857 0.80857 0.23801 0.0
C501 C 0.0843 0.80536 0.23254 0.0
C502 C 0.10115 0.82007 0.22225 0.0
C503 C 0.1024 0.83847 0.21758 0.0
C504 C 0.08708 0.84216 0.22401 0.0
C505 C 0.07038 0.82715 0.23427 0.0
C506 C 0.11746 0.81584 0.21605 0.0
C507 C 0.08814 0.86174 0.21956 0.0
C508 C 0.24408 0.96917 0.23324 0.0
C509 C 0.2347 0.95647 0.25203 0.0
C510 C 0.20826 0.92366 0.23758 0.0
C511 C 0.20354 0.90394 0.23337 0.0
C512 C 0.1857 0.89016 0.2231 0.0
C513 C 0.17213 0.89629 0.21703 0.0
C514 C 0.17654 0.91612 0.22161 0.0
C515 C 0.19463 0.92967 0.23179 0.0
C516 C 0.18147 0.86912 0.21855 0.0
C517 C 0.16228 0.92303 0.21544 0.0
C518 C 0.15381 0.87674 0.11945 0.0
C519 C 0.13664 0.86191 0.10921 0.0
C520 C 0.11936 0.84847 0.11964 0.0
C521 C 0.11901 0.84987 0.14101 0.0
C522 C 0.10202 0.83636 0.15204 0.0
C523 C 0.10201 0.83767 0.17312 0.0
C524 C 0.11906 0.85248 0.18398 0.0
C525 C 0.11945 0.85353 0.20543 0.0
C526 C 0.13668 0.86834 0.21573 0.0
C527 C 0.15376 0.88211 0.20517 0.0
C528 C 0.15368 0.88131 0.18372 0.0
C529 C 0.1707 0.89482 0.17264 0.0
C530 C 0.1707 0.89353 0.15156 0.0
C531 C 0.15374 0.87862 0.14079 0.0
C532 C 0.13629 0.86506 0.15162 0.0
C533 C 0.13628 0.86639 0.17312 0.0
C534 C 0.021 0.76529 0.23524 0.0
C535 C 0.04248 0.77354 0.24327 0.0
O536 O 0.21686 0.91586 0.06371 0.0
O537 O 0.22616 0.93619 0.24705 0.0
O538 O 0.05147 0.79413 0.24681 0.0
O539 O 0.06294 0.79625 0.06116 0.0
H540 H 0.21714 0.94087 0.05373 0.0
H541 H 0.18631 0.91111 0.03906 0.0
H542 H 0.2012 0.9023 0.02662 0.0
H543 H 0.20292 0.92548 0.01909 0.0
H544 H 0.18972 0.92691 0.0731 0.0
H545 H 0.21242 0.8882 0.08756 0.0
H546 H 0.1438 0.90073 0.09235 0.0
H547 H 0.16349 0.9268 0.09135 0.0
H548 H 0.15648 0.91409 0.11527 0.0
H549 H 0.19731 0.86297 0.11181 0.0
H550 H 0.17033 0.85191 0.11246 0.0
H551 H 0.18573 0.86901 0.13235 0.0
H552 H 0.08538 0.79639 0.04426 0.0
H553 H 0.06649 0.78822 0.01184 0.0
H554 H 0.06892 0.81039 0.02417 0.0
H555 H 0.04521 0.78691 0.02482 0.0
H556 H 0.09048 0.79046 0.0789 0.0
H557 H 0.06166 0.82535 0.07963 0.0
H558 H 0.12084 0.81349 0.12418 0.0
H559 H 0.13383 0.8225 0.10071 0.0
H560 H 0.11564 0.79611 0.1031 0.0
H561 H 0.0723 0.85374 0.10138 0.0
H562 H 0.09943 0.86786 0.10348 0.0
H563 H 0.08474 0.85381 0.12458 0.0
H564 H 0.0502 0.77018 0.23093 0.0
H565 H 0.08349 0.79141 0.23628 0.0
H566 H 0.05833 0.82963 0.2389 0.0
H567 H 0.1186 0.81592 0.19927 0.0
H568 H 0.11458 0.80108 0.22143 0.0
H569 H 0.13221 0.82788 0.22225 0.0
H570 H 0.07514 0.8624 0.22583 0.0
H571 H 0.08851 0.8637 0.20291 0.0
H572 H 0.10227 0.87452 0.22609 0.0
H573 H 0.22295 0.9593 0.25821 0.0
H574 H 0.23238 0.96534 0.2214 0.0
H575 H 0.25108 0.98544 0.23724 0.0
H576 H 0.25576 0.96638 0.22682 0.0
H577 H 0.21411 0.89943 0.23798 0.0
H578 H 0.19799 0.94487 0.23496 0.0
H579 H 0.17888 0.8657 0.20201 0.0
H580 H 0.16755 0.85811 0.22639 0.0
H581 H 0.194 0.86701 0.22351 0.0
H582 H 0.16721 0.93848 0.22126 0.0
H583 H 0.14696 0.91251 0.22117 0.0
H584 H 0.16121 0.92281 0.19864 0.0
H585 H 0.13689 0.8605 0.09281 0.0
H586 H 0.08857 0.82458 0.14446 0.0
H587 H 0.08851 0.82683 0.18082 0.0
H588 H 0.13699 0.86883 0.23219 0.0
H589 H 0.18427 0.90649 0.18013 0.0
H590 H 0.18421 0.90427 0.1438 0.0
H591 H 0.01213 0.76907 0.24579 0.0
H592 H 0.01322 0.74867 0.23304 0.0
H593 H 0.02149 0.77201 0.22037 0.0
C594 C 0.3311 0.1205 0.97516 0.0
C595 C 0.31558 0.0997 0.96634 0.0
C596 C 0.30719 0.10904 0.93434 0.0
C597 C 0.28698 0.10353 0.9365 0.0
C598 C 0.27862 0.11234 0.92454 0.0
C599 C 0.2909 0.12722 0.91051 0.0
C600 C 0.31136 0.13276 0.90842 0.0
C601 C 0.31904 0.12315 0.92002 0.0
C602 C 0.25669 0.10579 0.92694 0.0
C603 C 0.3253 0.14908 0.89427 0.0
C604 C 0.27011 0.21995 0.9917 0.0
C605 C 0.28307 0.22466 0.97278 0.0
C606 C 0.27221 0.20671 0.94033 0.0
C607 C 0.29102 0.2107 0.93334 0.0
C608 C 0.29238 0.198 0.91876 0.0
C609 C 0.27456 0.18083 0.9113 0.0
C610 C 0.25555 0.17742 0.91753 0.0
C611 C 0.25464 0.19068 0.93176 0.0
C612 C 0.3129 0.20251 0.91194 0.0
C613 C 0.23624 0.15922 0.90998 0.0
C614 C 0.26332 0.20407 0.78148 0.0
C615 C 0.28239 0.207 0.78618 0.0
C616 C 0.28425 0.19214 0.79611 0.0
C617 C 0.2667 0.17392 0.80121 0.0
C618 C 0.24754 0.17048 0.79546 0.0
C619 C 0.24612 0.18561 0.78553 0.0
C620 C 0.30495 0.19605 0.80148 0.0
C621 C 0.22858 0.15105 0.80031 0.0
C622 C 0.27234 0.04161 0.7904 0.0
C623 C 0.2769 0.05359 0.77092 0.0
C624 C 0.28451 0.0872 0.78325 0.0
C625 C 0.3002 0.10688 0.78702 0.0
C626 C 0.29668 0.12127 0.79626 0.0
C627 C 0.27685 0.11576 0.80175 0.0
C628 C 0.26073 0.09604 0.79737 0.0
C629 C 0.26471 0.08188 0.78819 0.0
C630 C 0.31423 0.1422 0.80064 0.0
C631 C 0.23941 0.08981 0.80294 0.0
C632 C 0.28287 0.13793 0.8989 0.0
C633 C 0.28072 0.15265 0.90924 0.0
C634 C 0.27594 0.16532 0.89897 0.0
C635 C 0.27345 0.16352 0.87766 0.0
C636 C 0.2698 0.17676 0.8667 0.0
C637 C 0.26792 0.17515 0.84565 0.0
C638 C 0.26959 0.16021 0.83477 0.0
C639 C 0.26844 0.1589 0.81332 0.0
C640 C 0.2702 0.14389 0.80299 0.0
C641 C 0.27335 0.13021 0.81354 0.0
C642 C 0.27466 0.13135 0.83496 0.0
C643 C 0.27809 0.11796 0.84598 0.0
C644 C 0.28036 0.11982 0.86697 0.0
C645 C 0.27934 0.13515 0.87772 0.0
C646 C 0.27502 0.14826 0.86702 0.0
C647 C 0.27289 0.14648 0.84558 0.0
C648 C 0.26102 0.24823 0.7841 0.0
C649 C 0.27349 0.23925 0.7763 0.0
O650 O 0.31552 0.10049 0.94536 0.0
O651 O 0.2894 0.07397 0.77514 0.0
O652 O 0.26096 0.21866 0.77315 0.0
O653 O 0.27057 0.21761 0.95579 0.0
H654 H 0.30045 0.09539 0.97226 0.0
H655 H 0.32713 0.13183 0.97066 0.0
H656 H 0.34637 0.12519 0.96941 0.0
H657 H 0.33143 0.1204 0.99198 0.0
H658 H 0.27766 0.09212 0.94721 0.0
H659 H 0.33459 0.12708 0.91841 0.0
H660 H 0.2555 0.11797 0.93479 0.0
H661 H 0.24847 0.09192 0.93594 0.0
H662 H 0.24924 0.10301 0.91185 0.0
H663 H 0.34136 0.15413 0.89732 0.0
H664 H 0.32334 0.16233 0.89567 0.0
H665 H 0.32169 0.14328 0.87838 0.0
H666 H 0.29134 0.21642 0.97423 0.0
H667 H 0.27978 0.22532 0.00558 0.0
H668 H 0.25977 0.20342 0.99264 0.0
H669 H 0.26092 0.22727 0.99119 0.0
H670 H 0.30462 0.22353 0.93953 0.0
H671 H 0.24021 0.18795 0.9371 0.0
H672 H 0.31298 0.20036 0.89524 0.0
H673 H 0.31658 0.19191 0.91914 0.0
H674 H 0.32486 0.21812 0.91619 0.0
H675 H 0.22271 0.15842 0.91681 0.0
H676 H 0.23631 0.14527 0.91355 0.0
H677 H 0.23509 0.15965 0.89325 0.0
H678 H 0.28477 0.24249 0.78852 0.0
H679 H 0.29583 0.22088 0.78217 0.0
H680 H 0.2315 0.18334 0.78146 0.0
H681 H 0.30653 0.19597 0.8182 0.0
H682 H 0.31713 0.21072 0.79587 0.0
H683 H 0.30696 0.18385 0.79493 0.0
H684 H 0.21484 0.15047 0.79432 0.0
H685 H 0.22726 0.1493 0.81701 0.0
H686 H 0.22936 0.13811 0.79379 0.0
H687 H 0.26262 0.0509 0.76394 0.0
H688 H 0.2625 0.02525 0.78695 0.0
H689 H 0.2644 0.04617 0.80134 0.0
H690 H 0.28651 0.0443 0.79768 0.0
H691 H 0.31539 0.11085 0.78303 0.0
H692 H 0.25233 0.06673 0.78527 0.0
H693 H 0.31559 0.14546 0.81722 0.0
H694 H 0.31156 0.15342 0.79327 0.0
H695 H 0.32871 0.14415 0.79514 0.0
H696 H 0.22835 0.07436 0.79727 0.0
H697 H 0.23539 0.10053 0.79664 0.0
H698 H 0.23824 0.09035 0.81969 0.0
H699 H 0.28343 0.1547 0.9255 0.0
H700 H 0.26858 0.18865 0.87427 0.0
H701 H 0.26527 0.18586 0.838 0.0
H702 H 0.26966 0.14318 0.78654 0.0
H703 H 0.27927 0.10601 0.83851 0.0
H704 H 0.28311 0.10919 0.87466 0.0
H705 H 0.27077 0.26478 0.78653 0.0
H706 H 0.25414 0.24148 0.79881 0.0
H707 H 0.24872 0.24517 0.77326 0.0
C708 C 0.7939 0.05634 0.98406 0.0
C709 C 0.78596 0.06414 0.96749 0.0
C710 C 0.79766 0.06929 0.93299 0.0
C711 C 0.79239 0.08318 0.92664 0.0
C712 C 0.80398 0.09757 0.91226 0.0
C713 C 0.82147 0.09835 0.90453 0.0
C714 C 0.82602 0.08347 0.90997 0.0
C715 C 0.81377 0.06884 0.92394 0.0
C716 C 0.79821 0.11273 0.90639 0.0
C717 C 0.84457 0.08387 0.90215 0.0
C718 C 0.937 0.2483 0.96531 0.0
C719 C 0.92839 0.23158 0.94982 0.0
C720 C 0.8979 0.20086 0.94017 0.0
C721 C 0.90585 0.18936 0.93238 0.0
C722 C 0.89473 0.17334 0.91855 0.0
C723 C 0.87539 0.16896 0.91217 0.0
C724 C 0.86727 0.18042 0.92018 0.0
C725 C 0.87851 0.196 0.9344 0.0
C726 C 0.90353 0.16094 0.91093 0.0
C727 C 0.84669 0.17618 0.91379 0.0
C728 C 0.91111 0.21261 0.78226 0.0
C729 C 0.9173 0.19883 0.78655 0.0
C730 C 0.90448 0.18096 0.79669 0.0
C731 C 0.88512 0.17682 0.8026 0.0
C732 C 0.87903 0.19084 0.79856 0.0
C733 C 0.89218 0.20861 0.78854 0.0
C734 C 0.91152 0.16643 0.801 0.0
C735 C 0.85854 0.18695 0.80467 0.0
C736 C 0.78294 0.02311 0.7485 0.0
C737 C 0.78263 0.04256 0.75228 0.0
C738 C 0.8118 0.07343 0.76555 0.0
C739 C 0.83181 0.07989 0.77033 0.0
C740 C 0.84251 0.09526 0.7849 0.0
C741 C 0.83314 0.10496 0.7943 0.0
C742 C 0.81295 0.0988 0.78908 0.0
C743 C 0.80237 0.08284 0.77496 0.0
C744 C 0.86394 0.10124 0.79001 0.0
C745 C 0.8027 0.10932 0.79808 0.0
C746 C 0.83666 0.11664 0.89402 0.0
C747 C 0.849 0.13353 0.90628 0.0
C748 C 0.86322 0.15175 0.89795 0.0
C749 C 0.86539 0.15331 0.87668 0.0
C750 C 0.87943 0.17151 0.86777 0.0
C751 C 0.8814 0.17294 0.84681 0.0
C752 C 0.86932 0.15625 0.83396 0.0
C753 C 0.87105 0.15766 0.81264 0.0
C754 C 0.85888 0.14077 0.80029 0.0
C755 C 0.84494 0.1223 0.80859 0.0
C756 C 0.84287 0.12062 0.82992 0.0
C757 C 0.82898 0.10236 0.83889 0.0
C758 C 0.82675 0.10104 0.85987 0.0
C759 C 0.83871 0.11777 0.8727 0.0
C760 C 0.85311 0.13623 0.86401 0.0
C761 C 0.8551 0.1377 0.84261 0.0
C762 C 0.94493 0.25024 0.74583 0.0
C763 C 0.94042 0.23508 0.76175 0.0
O764 O 0.7882 0.05711 0.94872 0.0
O765 O 0.80225 0.05858 0.75126 0.0
O766 O 0.92269 0.22975 0.7719 0.0
O767 O 0.90862 0.21669 0.95319 0.0
H768 H 0.79544 0.08091 0.96844 0.0
H769 H 0.81012 0.0619 0.98159 0.0
H770 H 0.78565 0.03963 0.98387 0.0
H771 H 0.7923 0.06189 -0.00077 0.0
H772 H 0.77959 0.08312 0.93343 0.0
H773 H 0.81752 0.05785 0.92888 0.0
H774 H 0.80746 0.12685 0.9154 0.0
H775 H 0.78209 0.10723 0.90947 0.0
H776 H 0.80111 0.11631 0.89008 0.0
H777 H 0.84569 0.07091 0.90742 0.0
H778 H 0.85823 0.09803 0.90735 0.0
H779 H 0.84445 0.08363 0.88532 0.0
H780 H 0.93841 0.22559 0.94587 0.0
H781 H 0.92673 0.24276 0.97878 0.0
H782 H 0.94204 0.27325 0.94877 0.0
H783 H 0.94954 0.24739 0.97289 0.0
H784 H 0.92057 0.1926 0.93739 0.0
H785 H 0.87237 0.20476 0.94073 0.0
H786 H 0.90537 0.16227 0.89424 0.0
H787 H 0.89306 0.1448 0.91411 0.0
H788 H 0.91839 0.16573 0.91803 0.0
H789 H 0.84375 0.18815 0.91917 0.0
H790 H 0.83508 0.16168 0.92018 0.0
H791 H 0.84505 0.17471 0.89702 0.0
H792 H 0.95316 0.23845 0.77219 0.0
H793 H 0.93206 0.20193 0.78201 0.0
H794 H 0.88759 0.21937 0.78523 0.0
H795 H 0.90997 0.16301 0.81739 0.0
H796 H 0.92744 0.17241 0.79661 0.0
H797 H 0.90188 0.15207 0.79248 0.0
H798 H 0.85585 0.1991 0.7999 0.0
H799 H 0.85708 0.1857 0.8214 0.0
H800 H 0.84664 0.17243 0.79784 0.0
H801 H 0.77658 0.04184 0.76779 0.0
H802 H 0.76767 0.00968 0.75005 0.0
H803 H 0.79305 0.02211 0.75979 0.0
H804 H 0.78858 0.02287 0.73305 0.0
H805 H 0.83896 0.0726 0.76279 0.0
H806 H 0.78698 0.0781 0.77083 0.0
H807 H 0.86652 0.10306 0.80668 0.0
H808 H 0.87436 0.11593 0.78312 0.0
H809 H 0.86774 0.09001 0.78418 0.0
H810 H 0.78797 0.10441 0.7906 0.0
H811 H 0.81248 0.12588 0.79672 0.0
H812 H 0.80011 0.10606 0.81446 0.0
H813 H 0.84737 0.13253 0.92264 0.0
H814 H 0.88904 0.18487 0.87692 0.0
H815 H 0.89249 0.18732 0.84081 0.0
H816 H 0.8603 0.142 0.78394 0.0
H817 H 0.81952 0.08893 0.82977 0.0
H818 H 0.81562 0.0867 0.86596 0.0
H819 H 0.95934 0.26404 0.75108 0.0
H820 H 0.93526 0.257 0.74905 0.0
H821 H 0.9427 0.2346 0.71874 0.0
C822 C 0.75497 0.69979 0.96949 0.0
C823 C 0.77465 0.71104 0.95896 0.0
C824 C 0.79955 0.70485 0.94307 0.0
C825 C 0.81204 0.72449 0.93612 0.0
C826 C 0.82788 0.72887 0.92282 0.0
C827 C 0.83086 0.71316 0.91578 0.0
C828 C 0.81815 0.69333 0.92262 0.0
C829 C 0.80288 0.68954 0.93646 0.0
C830 C 0.84158 0.75033 0.9165 0.0
C831 C 0.82072 0.6761 0.91544 0.0
C832 C 0.97345 0.73241 0.94195 0.0
C833 C 0.95256 0.71669 0.94937 0.0
C834 C 0.92582 0.71133 0.92532 0.0
C835 C 0.91021 0.69617 0.91361 0.0
C836 C 0.89522 0.69892 0.90515 0.0
C837 C 0.89629 0.71765 0.908 0.0
C838 C 0.91223 0.73323 0.91965 0.0
C839 C 0.92686 0.7299 0.92829 0.0
C840 C 0.87826 0.68177 0.89315 0.0
C841 C 0.91388 0.75342 0.92273 0.0
C842 C 0.9278 0.73502 0.78001 0.0
C843 C 0.91165 0.71586 0.78456 0.0
C844 C 0.89474 0.7137 0.79477 0.0
C845 C 0.89399 0.73106 0.80046 0.0
C846 C 0.90967 0.75029 0.79474 0.0
C847 C 0.92634 0.75199 0.78439 0.0
C848 C 0.878 0.69292 0.80011 0.0
C849 C 0.90919 0.76906 0.80032 0.0
C850 C 0.7683 0.74508 0.77969 0.0
C851 C 0.77371 0.73163 0.76703 0.0
C852 C 0.79233 0.72069 0.78826 0.0
C853 C 0.79219 0.70341 0.79429 0.0
C854 C 0.80927 0.70461 0.80317 0.0
C855 C 0.8267 0.72371 0.80676 0.0
C856 C 0.82694 0.74131 0.80079 0.0
C857 C 0.80981 0.73962 0.79144 0.0
C858 C 0.80864 0.68546 0.80878 0.0
C859 C 0.84523 0.76192 0.80451 0.0
C860 C 0.84784 0.71754 0.90211 0.0
C861 C 0.86463 0.71798 0.91061 0.0
C862 C 0.88069 0.72075 0.89861 0.0
C863 C 0.88053 0.72399 0.87765 0.0
C864 C 0.89681 0.72749 0.86533 0.0
C865 C 0.89606 0.7295 0.84452 0.0
C866 C 0.87898 0.72806 0.8352 0.0
C867 C 0.87773 0.7292 0.81392 0.0
C868 C 0.86061 0.72785 0.80515 0.0
C869 C 0.84454 0.72532 0.8171 0.0
C870 C 0.84543 0.72397 0.83841 0.0
C871 C 0.82946 0.72118 0.85089 0.0
C872 C 0.83016 0.71904 0.87173 0.0
C873 C 0.84705 0.72005 0.88099 0.0
C874 C 0.86351 0.72331 0.86874 0.0
C875 C 0.86268 0.72524 0.84745 0.0
C876 C 0.97519 0.74085 0.78504 0.0
C877 C 0.95408 0.72662 0.77628 0.0
O878 O 0.78413 0.70007 0.95603 0.0
O879 O 0.77524 0.71842 0.77977 0.0
O880 O 0.94505 0.73765 0.7717 0.0
O881 O 0.93969 0.70741 0.93298 0.0
H882 H 0.78494 0.72657 0.96513 0.0
H883 H 0.75454 0.68648 0.97669 0.0
H884 H 0.73409 0.69677 0.94738 0.0
H885 H 0.75723 0.7083 0.98426 0.0
H886 H 0.80974 0.73654 0.94129 0.0
H887 H 0.79319 0.67445 0.94192 0.0
H888 H 0.85759 0.75471 0.91855 0.0
H889 H 0.83886 0.76112 0.92529 0.0
H890 H 0.83909 0.75165 0.90018 0.0
H891 H 0.80763 0.66124 0.91934 0.0
H892 H 0.83439 0.67758 0.92269 0.0
H893 H 0.82281 0.6765 0.89876 0.0
H894 H 0.94672 0.72429 0.9594 0.0
H895 H 0.98384 0.74003 0.95506 0.0
H896 H 0.97248 0.744 0.93318 0.0
H897 H 0.97976 0.72524 0.93201 0.0
H898 H 0.9097 0.68198 0.91134 0.0
H899 H 0.93918 0.7419 0.93697 0.0
H900 H 0.87994 0.68545 0.87683 0.0
H901 H 0.86351 0.6795 0.89806 0.0
H902 H 0.87811 0.66741 0.89482 0.0
H903 H 0.92788 0.76442 0.93104 0.0
H904 H 0.90073 0.75152 0.93143 0.0
H905 H 0.91357 0.75968 0.90782 0.0
H906 H 0.94585 0.71586 0.78854 0.0
H907 H 0.91232 0.7026 0.78034 0.0
H908 H 0.93872 0.76668 0.78044 0.0
H909 H 0.87784 0.69121 0.81679 0.0
H910 H 0.87979 0.68088 0.79272 0.0
H911 H 0.86321 0.69083 0.79552 0.0
H912 H 0.92232 0.78286 0.79433 0.0
H913 H 0.90906 0.77067 0.81708 0.0
H914 H 0.89515 0.76779 0.79429 0.0
H915 H 0.78834 0.74153 0.75952 0.0
H916 H 0.76816 0.75662 0.77005 0.0
H917 H 0.77967 0.75313 0.79193 0.0
H918 H 0.75341 0.73589 0.78692 0.0
H919 H 0.77865 0.68889 0.79174 0.0
H920 H 0.81008 0.75316 0.78703 0.0
H921 H 0.8086 0.68443 0.82553 0.0
H922 H 0.82224 0.68557 0.80312 0.0
H923 H 0.79503 0.67183 0.80253 0.0
H924 H 0.8425 0.7742 0.80041 0.0
H925 H 0.85797 0.76335 0.79541 0.0
H926 H 0.84985 0.7639 0.82074 0.0
H927 H 0.86486 0.71536 0.92669 0.0
H928 H 0.91027 0.72857 0.87164 0.0
H929 H 0.90899 0.73201 0.83582 0.0
H930 H 0.8597 0.7286 0.7888 0.0
H931 H 0.81609 0.72036 0.84465 0.0
H932 H 0.81725 0.71651 0.8805 0.0
H933 H 0.98294 0.7324 0.78825 0.0
H934 H 0.97404 0.74783 0.79949 0.0
H935 H 0.98445 0.75311 0.77444 0.0
C936 C 0.88664 0.61018 0.35142 0.0
C937 C 0.89027 0.62376 0.37011 0.0
C938 C 0.87245 0.61438 0.40192 0.0
C939 C 0.87662 0.63351 0.40856 0.0
C940 C 0.86394 0.6356 0.42231 0.0
C941 C 0.84659 0.6182 0.4293 0.0
C942 C 0.8429 0.59887 0.4234 0.0
C943 C 0.85614 0.59723 0.40998 0.0
C944 C 0.86875 0.65644 0.42885 0.0
C945 C 0.82458 0.58001 0.43063 0.0
C946 C 0.71955 0.63727 0.38225 0.0
C947 C 0.72962 0.62742 0.39204 0.0
C948 C 0.76283 0.6356 0.40429 0.0
C949 C 0.75633 0.61688 0.41313 0.0
C950 C 0.76955 0.6137 0.42489 0.0
C951 C 0.78952 0.62972 0.42837 0.0
C952 C 0.79609 0.64861 0.41954 0.0
C953 C 0.78269 0.65119 0.4074 0.0
C954 C 0.76216 0.59315 0.43349 0.0
C955 C 0.81727 0.66606 0.42284 0.0
C956 C 0.75861 0.63495 0.55857 0.0
C957 C 0.75311 0.61556 0.55125 0.0
C958 C 0.76714 0.61207 0.54127 0.0
C959 C 0.78695 0.62831 0.53837 0.0
C960 C 0.7926 0.64776 0.54596 0.0
C961 C 0.77834 0.65078 0.55604 0.0
C962 C 0.76073 0.5911 0.53351 0.0
C963 C 0.81359 0.66541 0.5431 0.0
C964 C 0.91143 0.59825 0.56067 0.0
C965 C 0.90472 0.61353 0.56468 0.0
C966 C 0.87082 0.60763 0.55942 0.0
C967 C 0.85116 0.59189 0.55558 0.0
C968 C 0.8372 0.59524 0.54542 0.0
C969 C 0.84305 0.61492 0.53935 0.0
C970 C 0.86258 0.63112 0.54426 0.0
C971 C 0.87629 0.6273 0.55423 0.0
C972 C 0.81639 0.57768 0.54068 0.0
C973 C 0.86908 0.6524 0.53862 0.0
C974 C 0.83154 0.62034 0.44131 0.0
C975 C 0.81777 0.62347 0.43068 0.0
C976 C 0.80368 0.62658 0.44082 0.0
C977 C 0.80322 0.62656 0.46226 0.0
C978 C 0.78962 0.63016 0.47302 0.0
C979 C 0.78905 0.62974 0.49409 0.0
C980 C 0.80213 0.6258 0.50524 0.0
C981 C 0.80152 0.62514 0.52665 0.0
C982 C 0.81493 0.62148 0.53731 0.0
C983 C 0.82906 0.61845 0.52712 0.0
C984 C 0.82983 0.61892 0.50569 0.0
C985 C 0.84385 0.6159 0.49494 0.0
C986 C 0.84455 0.61651 0.47387 0.0
C987 C 0.83108 0.61987 0.46272 0.0
C988 C 0.81683 0.62295 0.47322 0.0
C989 C 0.81626 0.62254 0.49473 0.0
C990 C 0.71333 0.62391 0.55111 0.0
C991 C 0.72506 0.62658 0.57082 0.0
O992 O 0.88344 0.61209 0.38721 0.0
O993 O 0.88414 0.60328 0.56791 0.0
O994 O 0.74553 0.63925 0.56796 0.0
O995 O 0.75045 0.63923 0.3928 0.0
H996 H 0.88115 0.63097 0.36741 0.0
H997 H 0.87023 0.59946 0.34936 0.0
H998 H 0.89418 0.60131 0.35306 0.0
H999 H 0.89231 0.61936 0.33761 0.0
H1000 H 0.88962 0.64681 0.40279 0.0
H1001 H 0.85323 0.58254 0.40491 0.0
H1002 H 0.85776 0.65971 0.42171 0.0
H1003 H 0.88415 0.66822 0.42441 0.0
H1004 H 0.86738 0.65732 0.44555 0.0
H1005 H 0.8238 0.56612 0.42452 0.0
H1006 H 0.81074 0.57992 0.42592 0.0
H1007 H 0.82477 0.57977 0.44744 0.0
H1008 H 0.72412 0.61168 0.38659 0.0
H1009 H 0.7118 0.62769 0.36834 0.0
H1010 H 0.73153 0.65028 0.37354 0.0
H1011 H 0.70377 0.64103 0.40608 0.0
H1012 H 0.74103 0.60459 0.41074 0.0
H1013 H 0.7876 0.66555 0.40049 0.0
H1014 H 0.77303 0.58811 0.43021 0.0
H1015 H 0.74716 0.58167 0.42725 0.0
H1016 H 0.761 0.59396 0.45021 0.0
H1017 H 0.81903 0.68047 0.4177 0.0
H1018 H 0.82783 0.66308 0.41418 0.0
H1019 H 0.82162 0.66773 0.43912 0.0
H1020 H 0.7221 0.61162 0.57567 0.0
H1021 H 0.73794 0.60307 0.55309 0.0
H1022 H 0.78245 0.66566 0.56178 0.0
H1023 H 0.76117 0.59093 0.51669 0.0
H1024 H 0.74528 0.5798 0.53831 0.0
H1025 H 0.77138 0.58658 0.53906 0.0
H1026 H 0.81551 0.67966 0.54964 0.0
H1027 H 0.81706 0.66739 0.52667 0.0
H1028 H 0.8247 0.66239 0.5504 0.0
H1029 H 0.90832 0.62235 0.55059 0.0
H1030 H 0.92797 0.60614 0.55844 0.0
H1031 H 0.90388 0.58922 0.5467 0.0
H1032 H 0.90738 0.58777 0.57345 0.0
H1033 H 0.84699 0.57682 0.55995 0.0
H1034 H 0.89124 0.63969 0.55789 0.0
H1035 H 0.81367 0.5762 0.52403 0.0
H1036 H 0.80494 0.58045 0.54772 0.0
H1037 H 0.81424 0.56326 0.54628 0.0
H1038 H 0.88413 0.66353 0.54503 0.0
H1039 H 0.85792 0.65637 0.54408 0.0
H1040 H 0.86966 0.65354 0.52185 0.0
H1041 H 0.81813 0.62364 0.41423 0.0
H1042 H 0.77921 0.63329 0.46526 0.0
H1043 H 0.77819 0.63255 0.50152 0.0
H1044 H 0.8144 0.62108 0.55374 0.0
H1045 H 0.85448 0.61307 0.50269 0.0
H1046 H 0.85571 0.61418 0.46641 0.0
H1047 H 0.69691 0.61402 0.5536 0.0
H1048 H 0.71782 0.61678 0.53907 0.0
H1049 H 0.71629 0.63868 0.54568 0.0
C1050 C 0.39103 0.27172 0.35711 0.0
C1051 C 0.37786 0.26489 0.37597 0.0
C1052 C 0.38855 0.25709 0.40743 0.0
C1053 C 0.36974 0.24182 0.41408 0.0
C1054 C 0.36834 0.22752 0.42776 0.0
C1055 C 0.38613 0.22845 0.43475 0.0
C1056 C 0.40515 0.24443 0.4288 0.0
C1057 C 0.4061 0.25876 0.4154 0.0
C1058 C 0.34781 0.21106 0.43422 0.0
C1059 C 0.42441 0.24595 0.43606 0.0
C1060 C 0.35902 0.07729 0.39051 0.0
C1061 C 0.37091 0.09832 0.39816 0.0
C1062 C 0.3645 0.124 0.41261 0.0
C1063 C 0.38455 0.13789 0.41826 0.0
C1064 C 0.38943 0.15561 0.42926 0.0
C1065 C 0.37392 0.15933 0.43493 0.0
C1066 C 0.35374 0.14532 0.42926 0.0
C1067 C 0.34935 0.12793 0.41801 0.0
C1068 C 0.41111 0.17034 0.43494 0.0
C1069 C 0.33678 0.14867 0.43517 0.0
C1070 C 0.36353 0.12585 0.56536 0.0
C1071 C 0.3838 0.14105 0.56322 0.0
C1072 C 0.38891 0.15871 0.55288 0.0
C1073 C 0.37347 0.16123 0.54462 0.0
C1074 C 0.35306 0.14603 0.54692 0.0
C1075 C 0.3484 0.12846 0.55714 0.0
C1076 C 0.4108 0.17457 0.55052 0.0
C1077 C 0.33619 0.14827 0.53842 0.0
C1078 C 0.40701 0.31751 0.56665 0.0
C1079 C 0.39076 0.29562 0.57034 0.0
C1080 C 0.39583 0.26707 0.5658 0.0
C1081 C 0.4115 0.26318 0.56338 0.0
C1082 C 0.40841 0.2458 0.55291 0.0
C1083 C 0.38902 0.23179 0.54507 0.0
C1084 C 0.37284 0.23512 0.54844 0.0
C1085 C 0.37642 0.25276 0.55874 0.0
C1086 C 0.42593 0.24258 0.54985 0.0
C1087 C 0.35182 0.22016 0.54092 0.0
C1088 C 0.38471 0.21188 0.44699 0.0
C1089 C 0.38145 0.1945 0.43658 0.0
C1090 C 0.37867 0.17772 0.44697 0.0
C1091 C 0.37924 0.17823 0.46841 0.0
C1092 C 0.37622 0.1615 0.47934 0.0
C1093 C 0.37623 0.16192 0.50042 0.0
C1094 C 0.37922 0.17906 0.5114 0.0
C1095 C 0.37859 0.17935 0.53282 0.0
C1096 C 0.38198 0.19673 0.54332 0.0
C1097 C 0.38576 0.21391 0.53296 0.0
C1098 C 0.38601 0.21376 0.51149 0.0
C1099 C 0.38929 0.23058 0.50053 0.0
C1100 C 0.38886 0.23002 0.47941 0.0
C1101 C 0.38552 0.21276 0.46843 0.0
C1102 C 0.38265 0.1958 0.47917 0.0
C1103 C 0.38273 0.19625 0.5007 0.0
C1104 C 0.35898 0.08781 0.60135 0.0
C1105 C 0.37032 0.10476 0.58726 0.0
O1106 O 0.39019 0.27011 0.39303 0.0
O1107 O 0.39995 0.28474 0.57491 0.0
O1108 O 0.35792 0.10859 0.57534 0.0
O1109 O 0.35903 0.10666 0.40204 0.0
H1110 H 0.36818 0.24822 0.37439 0.0
H1111 H 0.39997 0.26415 0.35618 0.0
H1112 H 0.4016 0.28827 0.3577 0.0
H1113 H 0.38149 0.26763 0.34319 0.0
H1114 H 0.35615 0.24096 0.40841 0.0
H1115 H 0.42055 0.27081 0.41036 0.0
H1116 H 0.34439 0.19665 0.42671 0.0
H1117 H 0.33578 0.21421 0.43004 0.0
H1118 H 0.34757 0.20908 0.45086 0.0
H1119 H 0.43799 0.25929 0.43004 0.0
H1120 H 0.42458 0.23217 0.43129 0.0
H1121 H 0.42518 0.2469 0.45288 0.0
H1122 H 0.38436 0.10801 0.38888 0.0
H1123 H 0.36127 0.06041 0.41236 0.0
H1124 H 0.34556 0.07426 0.38123 0.0
H1125 H 0.34556 0.07426 0.38123 0.0
H1126 H 0.39643 0.13503 0.41405 0.0
H1127 H 0.33394 0.11711 0.41357 0.0
H1128 H 0.41559 0.18547 0.42923 0.0
H1129 H 0.42152 0.16568 0.42873 0.0
H1130 H 0.4128 0.17173 0.45171 0.0
H1131 H 0.32178 0.13571 0.4307 0.0
H1132 H 0.33883 0.16232 0.42775 0.0
H1133 H 0.33707 0.15127 0.45183 0.0
H1134 H 0.38235 0.10423 0.57841 0.0
H1135 H 0.39568 0.13915 0.56941 0.0
H1136 H 0.33283 0.11667 0.55889 0.0
H1137 H 0.41434 0.17747 0.53418 0.0
H1138 H 0.42107 0.17012 0.55733 0.0
H1139 H 0.41378 0.1889 0.55789 0.0
H1140 H 0.32114 0.13596 0.54312 0.0
H1141 H 0.33675 0.14816 0.52161 0.0
H1142 H 0.33804 0.16292 0.54349 0.0
H1143 H 0.38225 0.29005 0.55574 0.0
H1144 H 0.39998 0.32664 0.56346 0.0
H1145 H 0.4161 0.31814 0.55332 0.0
H1146 H 0.41733 0.32424 0.57995 0.0
H1147 H 0.42635 0.27416 0.56918 0.0
H1148 H 0.36405 0.25529 0.56129 0.0
H1149 H 0.42801 0.24098 0.5334 0.0
H1150 H 0.42269 0.2284 0.55707 0.0
H1151 H 0.4402 0.25518 0.55638 0.0
H1152 H 0.34058 0.22408 0.54626 0.0
H1153 H 0.34729 0.20485 0.5461 0.0
H1154 H 0.35155 0.21963 0.52408 0.0
H1155 H 0.38064 0.19386 0.42013 0.0
H1156 H 0.37368 0.14784 0.47172 0.0
H1157 H 0.37376 0.14856 0.50799 0.0
H1158 H 0.38142 0.19681 0.55976 0.0
H1159 H 0.392 0.2443 0.50815 0.0
H1160 H 0.39119 0.2433 0.47177 0.0
H1161 H 0.36249 0.07593 0.59629 0.0
H1162 H 0.34291 0.07918 0.59566 0.0
H1163 H 0.36709 0.10186 0.63009 0.0
C1164 C 0.88079 0.25849 0.36137 0.0
C1165 C 0.89323 0.2633 0.381 0.0
C1166 C 0.8706 0.23504 0.40274 0.0
C1167 C 0.85646 0.24101 0.40646 0.0
C1168 C 0.83922 0.22901 0.41793 0.0
C1169 C 0.83615 0.21079 0.42585 0.0
C1170 C 0.85047 0.20488 0.42228 0.0
C1171 C 0.86752 0.21714 0.41079 0.0
C1172 C 0.82424 0.23574 0.42161 0.0
C1173 C 0.84772 0.18558 0.43057 0.0
C1174 C 0.71758 0.11153 0.34777 0.0
C1175 C 0.7268 0.10738 0.36621 0.0
C1176 C 0.73615 0.12677 0.3979 0.0
C1177 C 0.75167 0.1236 0.40401 0.0
C1178 C 0.76665 0.13703 0.41771 0.0
C1179 C 0.76619 0.15409 0.42521 0.0
C1180 C 0.75007 0.15685 0.41969 0.0
C1181 C 0.73502 0.14289 0.40633 0.0
C1182 C 0.78331 0.13329 0.42364 0.0
C1183 C 0.74914 0.1749 0.42731 0.0
C1184 C 0.72873 0.12973 0.55213 0.0
C1185 C 0.74372 0.12512 0.5476 0.0
C1186 C 0.76202 0.13956 0.53917 0.0
C1187 C 0.76534 0.15893 0.5352 0.0
C1188 C 0.7508 0.16399 0.54092 0.0
C1189 C 0.73269 0.14931 0.54949 0.0
C1190 C 0.77752 0.13389 0.53383 0.0
C1191 C 0.75406 0.18464 0.53721 0.0
C1192 C 0.90986 0.28723 0.54736 0.0
C1193 C 0.89991 0.27642 0.56695 0.0
C1194 C 0.8728 0.24293 0.55508 0.0
C1195 C 0.86745 0.22283 0.55236 0.0
C1196 C 0.84937 0.20881 0.54256 0.0
C1197 C 0.83617 0.21507 0.53558 0.0
C1198 C 0.84111 0.23524 0.53887 0.0
C1199 C 0.85948 0.24904 0.54835 0.0
C1200 C 0.8446 0.18743 0.53924 0.0
C1201 C 0.82718 0.24231 0.5319 0.0
C1202 C 0.81793 0.19778 0.43777 0.0
C1203 C 0.80069 0.18336 0.42726 0.0
C1204 C 0.78335 0.16972 0.43755 0.0
C1205 C 0.78302 0.17062 0.45897 0.0
C1206 C 0.76588 0.15711 0.46982 0.0
C1207 C 0.76578 0.15809 0.49091 0.0
C1208 C 0.78295 0.17239 0.50197 0.0
C1209 C 0.78315 0.17322 0.52343 0.0
C1210 C 0.80054 0.18741 0.53397 0.0
C1211 C 0.81791 0.20088 0.5236 0.0
C1212 C 0.81796 0.2004 0.50215 0.0
C1213 C 0.8352 0.21376 0.49126 0.0
C1214 C 0.83515 0.21311 0.47019 0.0
C1215 C 0.81795 0.1989 0.45917 0.0
C1216 C 0.80042 0.18528 0.4698 0.0
C1217 C 0.80041 0.18609 0.49132 0.0
C1218 C 0.67849 0.08661 0.55093 0.0
C1219 C 0.70092 0.09508 0.55506 0.0
O1220 O 0.88733 0.2458 0.39144 0.0
O1221 O 0.89095 0.25578 0.56402 0.0
O1222 O 0.71022 0.11567 0.55868 0.0
O1223 O 0.72241 0.11486 0.38351 0.0
H1224 H 0.89114 0.27401 0.39073 0.0
H1225 H 0.86456 0.2517 0.36478 0.0
H1226 H 0.88268 0.24769 0.35158 0.0
H1227 H 0.88563 0.27247 0.35287 0.0
H1228 H 0.85867 0.2549 0.40045 0.0
H1229 H 0.87856 0.21271 0.40789 0.0
H1230 H 0.80938 0.22438 0.415 0.0
H1231 H 0.82903 0.25056 0.41488 0.0
H1232 H 0.82222 0.2368 0.43817 0.0
H1233 H 0.86002 0.1829 0.42601 0.0
H1234 H 0.83315 0.17264 0.42512 0.0
H1235 H 0.84725 0.18611 0.44738 0.0
H1236 H 0.74336 0.11564 0.36375 0.0
H1237 H 0.72095 0.10571 0.33368 0.0
H1238 H 0.72409 0.12801 0.34642 0.0
H1239 H 0.70099 0.1043 0.34926 0.0
H1240 H 0.75219 0.11075 0.39791 0.0
H1241 H 0.7228 0.14502 0.40165 0.0
H1242 H 0.78615 0.13553 0.44027 0.0
H1243 H 0.79738 0.14426 0.41599 0.0
H1244 H 0.77976 0.11786 0.41923 0.0
H1245 H 0.736 0.17524 0.42097 0.0
H1246 H 0.76313 0.18896 0.4232 0.0
H1247 H 0.74818 0.17475 0.4441 0.0
H1248 H 0.70692 0.09199 0.54095 0.0
H1249 H 0.7411 0.11023 0.55037 0.0
H1250 H 0.72117 0.15281 0.55339 0.0
H1251 H 0.77887 0.13352 0.51709 0.0
H1252 H 0.77352 0.11893 0.53966 0.0
H1253 H 0.79248 0.14539 0.54011 0.0
H1254 H 0.74163 0.18645 0.54325 0.0
H1255 H 0.75527 0.18736 0.52067 0.0
H1256 H 0.76845 0.19631 0.54442 0.0
H1257 H 0.88832 0.28014 0.57148 0.0
H1258 H 0.91714 0.30379 0.54973 0.0
H1259 H 0.89841 0.28253 0.53506 0.0
H1260 H 0.92141 0.28358 0.54242 0.0
H1261 H 0.87775 0.21823 0.55763 0.0
H1262 H 0.86326 0.26452 0.55017 0.0
H1263 H 0.84231 0.18342 0.52279 0.0
H1264 H 0.83036 0.17698 0.54698 0.0
H1265 H 0.85673 0.1851 0.54507 0.0
H1266 H 0.83196 0.25772 0.53776 0.0
H1267 H 0.81158 0.23181 0.53695 0.0
H1268 H 0.82691 0.24238 0.51508 0.0
H1269 H 0.80092 0.18245 0.41082 0.0
H1270 H 0.75232 0.14566 0.46213 0.0
H1271 H 0.75209 0.14736 0.49841 0.0
H1272 H 0.80063 0.18781 0.55043 0.0
H1273 H 0.84896 0.2249 0.49889 0.0
H1274 H 0.84883 0.22381 0.46264 0.0
H1275 H 0.67132 0.08976 0.56398 0.0
H1276 H 0.67069 0.07008 0.54805 0.0
H1277 H 0.67654 0.09369 0.5373 0.0
C1278 C 0.01107 0.4511 0.31046 0.0
C1279 C 0.00569 0.43617 0.29259 0.0
C1280 C 0.01321 0.45638 0.26223 0.0
C1281 C 0.99354 0.44986 0.25544 0.0
C1282 C 0.98976 0.46141 0.24204 0.0
C1283 C 0.00602 0.47968 0.23501 0.0
C1284 C 0.02594 0.48581 0.24103 0.0
C1285 C 0.02929 0.47395 0.2545 0.0
C1286 C 0.96834 0.45422 0.23557 0.0
C1287 C 0.04361 0.50501 0.23347 0.0
C1288 C 0.94987 0.57047 0.27286 0.0
C1289 C 0.97217 0.5779 0.27712 0.0
C1290 C 0.98459 0.56356 0.2514 0.0
C1291 C 0.00041 0.56904 0.23796 0.0
C1292 C 0.00381 0.55454 0.22877 0.0
C1293 C 0.99023 0.53388 0.23226 0.0
C1294 C 0.97417 0.52819 0.24595 0.0
C1295 C 0.97179 0.54314 0.25571 0.0
C1296 C 0.02178 0.56144 0.21516 0.0
C1297 C 0.95926 0.50634 0.25001 0.0
C1298 C 0.95415 0.53828 0.11128 0.0
C1299 C 0.97507 0.54724 0.11369 0.0
C1300 C 0.98351 0.53596 0.12018 0.0
C1301 C 0.9707 0.51537 0.12457 0.0
C1302 C 0.94978 0.50596 0.12048 0.0
C1303 C 0.94179 0.51756 0.11363 0.0
C1304 C 0.00598 0.54632 0.12359 0.0
C1305 C 0.93574 0.48396 0.12458 0.0
C1306 C 0.02357 0.4128 0.13007 0.0
C1307 C 0.00837 0.40955 0.11338 0.0
C1308 C 0.00721 0.4405 0.11094 0.0
C1309 C 0.02104 0.46118 0.11146 0.0
C1310 C 0.01559 0.47485 0.1189 0.0
C1311 C 0.99571 0.46756 0.12565 0.0
C1312 C 0.98125 0.44679 0.12371 0.0
C1313 C 0.98714 0.43344 0.11629 0.0
C1314 C 0.03129 0.49697 0.12044 0.0
C1315 C 0.95977 0.43864 0.13021 0.0
C1316 C 0.00188 0.49268 0.22213 0.0
C1317 C -0.00085 0.50733 0.23186 0.0
C1318 C 0.9925 0.51827 0.22112 0.0
C1319 C 0.98823 0.51438 0.20011 0.0
C1320 C 0.97995 0.52388 0.18914 0.0
C1321 C 0.97654 0.52054 0.16837 0.0
C1322 C 0.98138 0.50764 0.15768 0.0
C1323 C 0.97863 0.50471 0.1364 0.0
C1324 C 0.98343 0.49164 0.12628 0.0
C1325 C 0.99074 0.4812 0.13698 0.0
C1326 C 0.99345 0.48384 0.15827 0.0
C1327 C 0.00048 0.47331 0.16953 0.0
C1328 C 0.0031 0.47603 0.19046 0.0
C1329 C -0.00083 0.48967 0.2009 0.0
C1330 C 0.9922 0.5005 0.18987 0.0
C1331 C 0.98901 0.49733 0.16859 0.0
C1332 C 0.93317 0.56761 0.12594 0.0
C1333 C 0.95144 0.56803 0.11638 0.0
O1334 O 0.01729 0.44602 0.27595 0.0
O1335 O 0.01372 0.4279 0.10494 0.0
O1336 O 0.94545 0.54935 0.10749 0.0
O1337 O 0.982 0.5784 0.2594 0.0
H1338 H 0.98944 0.42975 0.28925 0.0
H1339 H 0.00739 0.46277 0.30648 0.0
H1340 H 0.02737 0.45876 0.31429 0.0
H1341 H 0.00224 0.4432 0.32402 0.0
H1342 H 0.98105 0.4357 0.26032 0.0
H1343 H 0.04446 0.47864 0.25949 0.0
H1344 H 0.96437 0.46572 0.23991 0.0
H1345 H 0.95734 0.43974 0.24252 0.0
H1346 H 0.9669 0.45223 0.21882 0.0
H1347 H 0.05826 0.50709 0.23861 0.0
H1348 H 0.04249 0.51806 0.23902 0.0
H1349 H 0.04326 0.50496 0.21663 0.0
H1350 H 0.97299 0.56742 0.2879 0.0
H1351 H 0.94241 0.57106 0.28706 0.0
H1352 H 0.94186 0.55468 0.26706 0.0
H1353 H 0.94809 0.57974 0.26136 0.0
H1354 H 0.01031 0.58486 0.23486 0.0
H1355 H 0.9596 0.53866 0.26626 0.0
H1356 H 0.01687 0.55999 0.1991 0.0
H1357 H 0.02877 0.55208 0.21706 0.0
H1358 H 0.0334 0.57746 0.2183 0.0
H1359 H 0.94589 0.50437 0.25833 0.0
H1360 H 0.96667 0.50008 0.25929 0.0
H1361 H 0.9541 0.49742 0.23557 0.0
H1362 H 0.96207 0.57118 0.12924 0.0
H1363 H 0.98474 0.56315 0.11101 0.0
H1364 H 0.9257 0.51072 0.11128 0.0
H1365 H 0.00934 0.54907 0.1401 0.0
H1366 H 0.0141 0.56103 0.11594 0.0
H1367 H 0.0118 0.53663 0.11796 0.0
H1368 H 0.91998 0.47871 0.11988 0.0
H1369 H 0.93604 0.48133 0.14103 0.0
H1370 H 0.94089 0.47474 0.11635 0.0
H1371 H 0.99335 0.40277 0.1205 0.0
H1372 H 0.01967 0.3982 0.13679 0.0
H1373 H 0.02329 0.42278 0.14228 0.0
H1374 H 0.03907 0.41997 0.12395 0.0
H1375 H 0.03638 0.46651 0.10677 0.0
H1376 H 0.97603 0.41757 0.11476 0.0
H1377 H 0.03444 0.50177 0.13667 0.0
H1378 H 0.02553 0.50595 0.11326 0.0
H1379 H 0.04562 0.50043 0.1131 0.0
H1380 H 0.94993 0.42243 0.12609 0.0
H1381 H 0.95357 0.44726 0.1231 0.0
H1382 H 0.95939 0.44055 0.1469 0.0
H1383 H 0.00185 0.50995 0.24808 0.0
H1384 H 0.97599 0.53402 0.19649 0.0
H1385 H 0.97017 0.52835 0.16082 0.0
H1386 H 0.98141 0.48955 0.10995 0.0
H1387 H 0.00398 0.46277 0.16232 0.0
H1388 H 0.00851 0.46752 0.19834 0.0
H1389 H 0.92091 0.56319 0.11458 0.0
H1390 H 0.93755 0.58265 0.13261 0.0
H1391 H 0.92723 0.55649 0.13824 0.0
C1392 C 0.42333 0.36082 0.26428 0.0
C1393 C 0.42766 0.38096 0.27368 0.0
C1394 C 0.44902 0.40853 0.25078 0.0
C1395 C 0.44907 0.42354 0.23941 0.0
C1396 C 0.46682 0.43884 0.23101 0.0
C1397 C 0.48496 0.43874 0.23362 0.0
C1398 C 0.48504 0.42344 0.24496 0.0
C1399 C 0.46703 0.40845 0.25351 0.0
C1400 C 0.46611 0.45508 0.21933 0.0
C1401 C 0.5041 0.42286 0.24785 0.0
C1402 C 0.60521 0.58509 0.29665 0.0
C1403 C 0.5979 0.5652 0.28629 0.0
C1404 C 0.56719 0.53899 0.26927 0.0
C1405 C 0.57536 0.52752 0.26188 0.0
C1406 C 0.56421 0.51101 0.24855 0.0
C1407 C 0.54476 0.50628 0.24208 0.0
C1408 C 0.53663 0.51797 0.24939 0.0
C1409 C 0.54788 0.53399 0.26314 0.0
C1410 C 0.57312 0.49852 0.24157 0.0
C1411 C 0.51601 0.51353 0.2428 0.0
C1412 C 0.58461 0.54656 0.1135 0.0
C1413 C 0.59021 0.53253 0.11867 0.0
C1414 C 0.5765 0.5146 0.12822 0.0
C1415 C 0.55694 0.51073 0.1327 0.0
C1416 C 0.55137 0.52492 0.12761 0.0
C1417 C 0.56534 0.54269 0.11813 0.0
C1418 C 0.5829 0.49979 0.13363 0.0
C1419 C 0.53065 0.52132 0.1322 0.0
C1420 C 0.43063 0.35519 0.10479 0.0
C1421 C 0.43653 0.37703 0.10118 0.0
C1422 C 0.47074 0.40571 0.10459 0.0
C1423 C 0.49033 0.40947 0.10709 0.0
C1424 C 0.50495 0.42669 0.11782 0.0
C1425 C 0.49986 0.44064 0.12579 0.0
C1426 C 0.48045 0.43762 0.122 0.0
C1427 C 0.46606 0.42013 0.1115 0.0
C1428 C 0.52557 0.42959 0.12134 0.0
C1429 C 0.47469 0.45253 0.12962 0.0
C1430 C 0.5037 0.45477 0.2244 0.0
C1431 C 0.51673 0.47139 0.23661 0.0
C1432 C 0.53258 0.48872 0.22823 0.0
C1433 C 0.53558 0.48953 0.20701 0.0
C1434 C 0.55062 0.50708 0.19786 0.0
C1435 C 0.55305 0.50784 0.17691 0.0
C1436 C 0.54044 0.49112 0.16429 0.0
C1437 C 0.54228 0.49197 0.14294 0.0
C1438 C 0.52919 0.47521 0.1308 0.0
C1439 C 0.51419 0.45749 0.13944 0.0
C1440 C 0.51226 0.45629 0.16077 0.0
C1441 C 0.49741 0.43864 0.16997 0.0
C1442 C 0.49481 0.43799 0.19084 0.0
C1443 C 0.5071 0.45488 0.20336 0.0
C1444 C 0.52284 0.47246 0.19457 0.0
C1445 C 0.52532 0.47323 0.17321 0.0
C1446 C 0.62127 0.5851 0.07975 0.0
C1447 C 0.61572 0.56963 0.09552 0.0
O1448 O 0.43114 0.39433 0.2584 0.0
O1449 O 0.45664 0.38794 0.09581 0.0
O1450 O 0.59713 0.56391 0.10392 0.0
O1451 O 0.57737 0.55495 0.28231 0.0
H1452 H 0.44105 0.38708 0.28394 0.0
H1453 H 0.43628 0.36304 0.25502 0.0
H1454 H 0.40971 0.35428 0.25434 0.0
H1455 H 0.42092 0.34998 0.27629 0.0
H1456 H 0.43505 0.42335 0.23733 0.0
H1457 H 0.46709 0.39664 0.26198 0.0
H1458 H 0.47849 0.47019 0.22438 0.0
H1459 H 0.45155 0.45454 0.22116 0.0
H1460 H 0.46819 0.45317 0.20295 0.0
H1461 H 0.50143 0.40923 0.25589 0.0
H1462 H 0.51522 0.43641 0.25674 0.0
H1463 H 0.51087 0.42323 0.23288 0.0
H1464 H 0.60312 0.55561 0.29325 0.0
H1465 H 0.59156 0.58504 0.30277 0.0
H1466 H 0.62426 0.60573 0.27534 0.0
H1467 H 0.61074 0.58369 0.31198 0.0
H1468 H 0.59028 0.53118 0.26667 0.0
H1469 H 0.54173 0.54294 0.26896 0.0
H1470 H 0.5764 0.50067 0.22513 0.0
H1471 H 0.56218 0.48228 0.24374 0.0
H1472 H 0.58731 0.50269 0.24983 0.0
H1473 H 0.51333 0.52593 0.24716 0.0
H1474 H 0.50436 0.49958 0.25006 0.0
H1475 H 0.51408 0.511 0.22611 0.0
H1476 H 0.62758 0.57299 0.10712 0.0
H1477 H 0.60521 0.53553 0.11534 0.0
H1478 H 0.56121 0.55365 0.11409 0.0
H1479 H 0.58172 0.49756 0.15026 0.0
H1480 H 0.59859 0.5049 0.12901 0.0
H1481 H 0.57262 0.48497 0.12616 0.0
H1482 H 0.52866 0.53384 0.12719 0.0
H1483 H 0.52794 0.5195 0.14876 0.0
H1484 H 0.51906 0.50714 0.12452 0.0
H1485 H 0.43426 0.38272 0.116 0.0
H1486 H 0.41443 0.34606 0.10865 0.0
H1487 H 0.43962 0.35469 0.11766 0.0
H1488 H 0.43355 0.34837 0.09119 0.0
H1489 H 0.49388 0.39841 0.10136 0.0
H1490 H 0.45113 0.41766 0.10887 0.0
H1491 H 0.52858 0.43021 0.13789 0.0
H1492 H 0.5372 0.44415 0.11505 0.0
H1493 H 0.52713 0.4173 0.11423 0.0
H1494 H 0.46025 0.44961 0.12283 0.0
H1495 H 0.48668 0.46813 0.12615 0.0
H1496 H 0.47304 0.45156 0.14634 0.0
H1497 H 0.51393 0.4712 0.25276 0.0
H1498 H 0.56058 0.5205 0.20677 0.0
H1499 H 0.56482 0.52179 0.17072 0.0
H1500 H 0.53041 0.47614 0.11442 0.0
H1501 H 0.48741 0.4252 0.16111 0.0
H1502 H 0.48295 0.42411 0.19707 0.0
H1503 H 0.62157 0.57032 0.05286 0.0
H1504 H 0.63507 0.59892 0.08605 0.0
H1505 H 0.61117 0.59156 0.08185 0.0
C1506 C 0.43732 0.97414 0.31996 0.0
C1507 C 0.4328 0.98589 0.30453 0.0
C1508 C 0.44393 0.98286 0.27078 0.0
C1509 C 0.45632 0.00326 0.26622 0.0
C1510 C 0.47189 0.00932 0.25216 0.0
C1511 C 0.47494 0.99465 0.24235 0.0
C1512 C 0.46163 0.97399 0.24595 0.0
C1513 C 0.44612 0.96834 0.26003 0.0
C1514 C 0.48552 0.03145 0.24828 0.0
C1515 C 0.46435 0.95796 0.23559 0.0
C1516 C 0.5978 0.03708 0.32101 0.0
C1517 C 0.58949 0.02173 0.30333 0.0
C1518 C 0.57851 0.02653 0.27062 0.0
C1519 C 0.56478 0.00631 0.26543 0.0
C1520 C 0.54903 0.00117 0.25157 0.0
C1521 C 0.54686 0.0166 0.24299 0.0
C1522 C 0.56116 0.03704 0.24765 0.0
C1523 C 0.57709 0.04173 0.26114 0.0
C1524 C 0.5344 0.97925 0.24655 0.0
C1525 C 0.55921 0.05393 0.23906 0.0
C1526 C 0.58813 0.03568 0.11917 0.0
C1527 C 0.57297 0.01532 0.11995 0.0
C1528 C 0.55378 0.00974 0.12724 0.0
C1529 C 0.54973 0.02487 0.13375 0.0
C1530 C 0.56449 0.0454 0.13147 0.0
C1531 C 0.58352 0.05054 0.12402 0.0
C1532 C 0.53816 0.98771 0.1289 0.0
C1533 C 0.56052 0.06188 0.13794 0.0
C1534 C 0.40711 0.0081 0.12362 0.0
C1535 C 0.41879 0.01267 0.10375 0.0
C1536 C 0.44508 0.00478 0.11236 0.0
C1537 C 0.44986 0.98963 0.11115 0.0
C1538 C 0.46651 0.99144 0.12167 0.0
C1539 C 0.47895 0.00912 0.13337 0.0
C1540 C 0.47459 0.02483 0.13419 0.0
C1541 C 0.45756 0.02241 0.12389 0.0
C1542 C 0.47064 0.97436 0.12051 0.0
C1543 C 0.48782 0.04413 0.14609 0.0
C1544 C 0.49328 0.00102 0.23017 0.0
C1545 C 0.5108 0.00536 0.24066 0.0
C1546 C 0.52878 0.01133 0.23051 0.0
C1547 C 0.52934 0.01277 0.20919 0.0
C1548 C 0.54698 0.01799 0.19843 0.0
C1549 C 0.54758 0.01998 0.17751 0.0
C1550 C 0.53054 0.01684 0.16653 0.0
C1551 C 0.53116 0.01927 0.1453 0.0
C1552 C 0.51414 0.01652 0.1349 0.0
C1553 C 0.49624 0.01103 0.14515 0.0
C1554 C 0.49516 0.00795 0.16631 0.0
C1555 C 0.47723 0.00179 0.17701 0.0
C1556 C 0.47651 -0.00064 0.19792 0.0
C1557 C 0.49368 0.00302 0.2089 0.0
C1558 C 0.51181 0.00893 0.19838 0.0
C1559 C 0.51249 0.01119 0.17705 0.0
C1560 C 0.63548 0.0461 0.13361 0.0
C1561 C 0.61755 0.03184 0.11993 0.0
O1562 O 0.42986 0.97674 0.2855 0.0
O1563 O 0.42838 0.00166 0.10218 0.0
O1564 O 0.60737 0.04147 0.11419 0.0
O1565 O 0.59275 0.03175 0.28528 0.0
H1566 H 0.44619 0.00133 0.30476 0.0
H1567 H 0.4516 0.97476 0.31598 0.0
H1568 H 0.42512 0.95808 0.32007 0.0
H1569 H 0.43908 0.98089 0.33542 0.0
H1570 H 0.45398 0.01447 0.27375 0.0
H1571 H 0.43617 0.9526 0.26336 0.0
H1572 H 0.50082 0.03653 0.25439 0.0
H1573 H 0.47995 0.04079 0.25549 0.0
H1574 H 0.48689 0.03406 0.23171 0.0
H1575 H 0.4522 0.94251 0.23935 0.0
H1576 H 0.47906 0.95986 0.24022 0.0
H1577 H 0.46458 0.95961 0.21889 0.0
H1578 H 0.573 0.0122 0.30607 0.0
H1579 H 0.5956 0.02929 0.33559 0.0
H1580 H 0.58965 0.04547 0.32172 0.0
H1581 H 0.61408 0.04814 0.31919 0.0
H1582 H 0.56624 0.99454 0.27239 0.0
H1583 H 0.58792 0.05728 0.26516 0.0
H1584 H 0.53154 0.97691 0.22994 0.0
H1585 H 0.51982 0.97458 0.254 0.0
H1586 H 0.53998 0.96938 0.25181 0.0
H1587 H 0.57042 0.06884 0.24578 0.0
H1588 H 0.54386 0.05129 0.2418 0.0
H1589 H 0.56141 0.05438 0.22242 0.0
H1590 H 0.60792 0.01871 0.1295 0.0
H1591 H 0.57619 0.00377 0.11522 0.0
H1592 H 0.5952 0.06622 0.12291 0.0
H1593 H 0.53549 0.98378 0.14515 0.0
H1594 H 0.54287 0.97785 0.12125 0.0
H1595 H 0.52365 0.9846 0.12213 0.0
H1596 H 0.57298 0.07703 0.13379 0.0
H1597 H 0.55858 0.06164 0.15463 0.0
H1598 H 0.54632 0.05924 0.13082 0.0
H1599 H 0.43013 0.02903 0.10339 0.0
H1600 H 0.39916 0.01667 0.1247 0.0
H1601 H 0.41757 0.01259 0.13681 0.0
H1602 H 0.39588 0.99175 0.12451 0.0
H1603 H 0.4402 0.97613 0.10216 0.0
H1604 H 0.45421 0.03437 0.12497 0.0
H1605 H 0.47195 0.9698 0.13603 0.0
H1606 H 0.48521 0.97946 0.11285 0.0
H1607 H 0.45865 0.96101 0.11203 0.0
H1608 H 0.48413 0.05594 0.14283 0.0
H1609 H 0.50392 0.05002 0.1426 0.0
H1610 H 0.48584 0.04111 0.16256 0.0
H1611 H 0.51047 0.00421 0.25705 0.0
H1612 H 0.56056 0.02067 0.20609 0.0
H1613 H 0.56165 0.02419 0.17012 0.0
H1614 H 0.51486 0.01877 0.11867 0.0
H1615 H 0.46355 -0.00119 0.16935 0.0
H1616 H 0.46236 0.99473 0.2054 0.0
H1617 H 0.64435 0.03897 0.13765 0.0
H1618 H 0.62993 0.04945 0.14784 0.0
H1619 H 0.64547 0.06057 0.1261 0.0
C1620 C 0.59149 0.97094 0.75369 0.0
C1621 C 0.58973 0.9861 0.74058 0.0
C1622 C 0.57114 -0.00132 0.76036 0.0
C1623 C 0.57323 0.01573 0.77036 0.0
C1624 C 0.55661 0.01574 0.77877 0.0
C1625 C 0.53739 0.99809 0.77722 0.0
C1626 C 0.53506 0.98073 0.76705 0.0
C1627 C 0.55201 0.98115 0.75874 0.0
C1628 C 0.55964 0.03457 0.78948 0.0
C1629 C 0.51474 0.9617 0.76529 0.0
C1630 C 0.45999 0.02722 0.68995 0.0
C1631 C 0.44616 0.01755 0.70803 0.0
C1632 C 0.46348 0.0226 0.74067 0.0
C1633 C 0.45461 0.00242 0.74637 0.0
C1634 C 0.46386 0.99677 0.76099 0.0
C1635 C 0.48205 0.01164 0.77038 0.0
C1636 C 0.49025 0.03213 0.76564 0.0
C1637 C 0.48077 0.03734 0.75087 0.0
C1638 C 0.45447 0.97485 0.76609 0.0
C1639 C 0.50939 0.04844 0.7757 0.0
C1640 C 0.44351 0.01876 0.89172 0.0
C1641 C 0.43665 0.99809 0.88961 0.0
C1642 C 0.44977 0.99153 0.88331 0.0
C1643 C 0.47011 0.00591 0.8794 0.0
C1644 C 0.47739 0.02661 0.88316 0.0
C1645 C 0.46394 0.03274 0.88933 0.0
C1646 C 0.44174 0.96932 0.87998 0.0
C1647 C 0.49914 0.04232 0.87967 0.0
C1648 C 0.57844 0.95938 0.89538 0.0
C1649 C 0.57933 0.9765 0.9084 0.0
C1650 C 0.54768 0.97634 0.90496 0.0
C1651 C 0.52719 0.962 0.90295 0.0
C1652 C 0.514 0.96632 0.8926 0.0
C1653 C 0.52144 0.98572 0.88469 0.0
C1654 C 0.54189 0.00074 0.88796 0.0
C1655 C 0.55484 0.9958 0.89776 0.0
C1656 C 0.49227 0.94999 0.88954 0.0
C1657 C 0.55025 0.02191 0.88062 0.0
C1658 C 0.51994 0.99782 0.78683 0.0
C1659 C 0.5083 0.00299 0.77512 0.0
C1660 C 0.49333 0.00564 0.78388 0.0
C1661 C 0.49001 0.00336 0.80499 0.0
C1662 C 0.47577 0.00686 0.81448 0.0
C1663 C 0.47329 0.00541 0.8354 0.0
C1664 C 0.48488 0.00028 0.84762 0.0
C1665 C 0.48315 -0.00032 0.86898 0.0
C1666 C 0.49484 0.99447 0.88068 0.0
C1667 C 0.50843 0.9899 0.87155 0.0
C1668 C 0.51046 0.99058 0.85021 0.0
C1669 C 0.5241 0.98624 0.84052 0.0
C1670 C 0.52709 0.9884 0.81974 0.0
C1671 C 0.51622 0.99451 0.80776 0.0
C1672 C 0.50152 0.99776 0.81696 0.0
C1673 C 0.49882 0.99602 0.83826 0.0
C1674 C 0.40667 0.03044 0.87891 0.0
C1675 C 0.41059 0.01655 0.8918 0.0
O1676 O 0.58808 -8e-05 0.75285 0.0
O1677 O 0.55995 0.97101 0.91424 0.0
O1678 O 0.43107 0.02592 0.89593 0.0
O1679 O 0.45579 0.02847 0.72558 0.0
H1680 H 0.57627 0.97802 0.73045 0.0
H1681 H 0.57797 0.9628 0.76328 0.0
H1682 H 0.605 0.97878 0.76376 0.0
H1683 H 0.59266 0.95967 0.74396 0.0
H1684 H 0.58806 0.02912 0.77157 0.0
H1685 H 0.55016 0.96769 0.75131 0.0
H1686 H 0.54914 0.03893 0.78311 0.0
H1687 H 0.5753 0.04744 0.78813 0.0
H1688 H 0.55617 0.0316 0.80581 0.0
H1689 H 0.51541 0.94939 0.75702 0.0
H1690 H 0.50403 0.9648 0.75722 0.0
H1691 H 0.50867 0.95652 0.78067 0.0
H1692 H 0.44333 0.00197 0.7085 0.0
H1693 H 0.45235 0.01897 0.67564 0.0
H1694 H 0.47393 0.02657 0.6919 0.0
H1695 H 0.46434 0.04326 0.68869 0.0
H1696 H 0.44052 0.99104 0.73946 0.0
H1697 H 0.48721 0.05292 0.74672 0.0
H1698 H 0.46506 0.96958 0.76224 0.0
H1699 H 0.44003 0.96515 0.7578 0.0
H1700 H 0.45169 0.97299 0.78263 0.0
H1701 H 0.51254 0.06376 0.77209 0.0
H1702 H 0.52224 0.04694 0.77051 0.0
H1703 H 0.50844 0.0468 0.79242 0.0
H1704 H 0.40529 0.00251 0.88258 0.0
H1705 H 0.42109 0.98705 0.89262 0.0
H1706 H 0.46919 0.04862 0.89153 0.0
H1707 H 0.44244 0.96613 0.8636 0.0
H1708 H 0.42592 0.95995 0.88503 0.0
H1709 H 0.45128 0.96485 0.88831 0.0
H1710 H 0.5029 0.05746 0.88547 0.0
H1711 H 0.50224 0.04322 0.86317 0.0
H1712 H 0.5092 0.03801 0.88719 0.0
H1713 H 0.58588 0.98975 0.89843 0.0
H1714 H 0.59386 0.96288 0.89138 0.0
H1715 H 0.57004 0.95756 0.88107 0.0
H1716 H 0.57045 0.94489 0.9034 0.0
H1717 H 0.52171 0.94713 0.90888 0.0
H1718 H 0.57048 0.00729 0.89979 0.0
H1719 H 0.48849 0.94757 0.87309 0.0
H1720 H 0.48234 0.95475 0.89678 0.0
H1721 H 0.48898 0.93549 0.89605 0.0
H1722 H 0.56494 0.03266 0.88799 0.0
H1723 H 0.53953 0.0272 0.88362 0.0
H1724 H 0.55254 0.02211 0.864 0.0
H1725 H 0.51132 0.00552 0.75904 0.0
H1726 H 0.4666 0.01106 0.80587 0.0
H1727 H 0.46224 0.00852 0.84186 0.0
H1728 H 0.49369 0.99444 0.89708 0.0
H1729 H 0.53291 0.98148 0.84893 0.0
H1730 H 0.53809 0.98528 0.81319 0.0
H1731 H 0.39033 0.02328 0.87535 0.0
H1732 H 0.41492 0.03336 0.86441 0.0
H1733 H 0.41187 0.04508 0.88698 0.0
C1734 C 0.01502 0.57438 0.70519 0.0
C1735 C 0.00126 0.57535 0.7213 0.0
C1736 C 0.00686 0.56427 0.75358 0.0
C1737 C 0.98723 0.54953 0.75879 0.0
C1738 C 0.98389 0.53423 0.77212 0.0
C1739 C 0.00054 0.53372 0.78034 0.0
C1740 C 0.02037 0.54893 0.77552 0.0
C1741 C 0.02325 0.56424 0.76242 0.0
C1742 C 0.96257 0.51846 0.77723 0.0
C1743 C 0.03848 0.54876 0.78383 0.0
C1744 C 0.97618 0.39176 0.7234 0.0
C1745 C 0.98004 0.41173 0.7309 0.0
C1746 C 0.98673 0.43164 0.76155 0.0
C1747 C 0.00459 0.44554 0.77148 0.0
C1748 C 0.00631 0.46246 0.7817 0.0
C1749 C 0.9894 0.46501 0.78261 0.0
C1750 C 0.97109 0.45065 0.77299 0.0
C1751 C 0.96997 0.43412 0.76249 0.0
C1752 C 0.02624 0.4776 0.79144 0.0
C1753 C 0.95271 0.45271 0.77392 0.0
C1754 C 0.00057 0.43948 0.90642 0.0
C1755 C 0.0177 0.45492 0.89703 0.0
C1756 C 0.01756 0.47154 0.88915 0.0
C1757 C -8e-05 0.47275 0.89056 0.0
C1758 C 0.98287 0.45757 0.90054 0.0
C1759 C 0.98343 0.4411 0.90833 0.0
C1760 C 0.036 0.48732 0.87838 0.0
C1761 C 0.9638 0.45835 0.90213 0.0
C1762 C 0.04853 0.63349 0.90417 0.0
C1763 C 0.03173 0.61362 0.91252 0.0
C1764 C 0.03036 0.5815 0.90775 0.0
C1765 C 0.04297 0.57416 0.90253 0.0
C1766 C 0.03524 0.55506 0.89332 0.0
C1767 C 0.01423 0.54278 0.88976 0.0
C1768 C 0.00123 0.54966 0.89613 0.0
C1769 C 0.00943 0.569 0.90502 0.0
C1770 C 0.04961 0.54814 0.88721 0.0
C1771 C 0.97872 0.53669 0.89324 0.0
C1772 C 0.99718 0.5167 0.79308 0.0
C1773 C 0.9937 0.49902 0.78314 0.0
C1774 C 0.99086 0.48248 0.79403 0.0
C1775 C 0.99102 0.48334 0.81544 0.0
C1776 C 0.9874 0.46667 0.82681 0.0
C1777 C 0.98929 0.46815 0.84778 0.0
C1778 C 0.99486 0.48636 0.85821 0.0
C1779 C -0.00131 0.48852 0.87933 0.0
C1780 C 0.00401 0.50672 0.88935 0.0
C1781 C 0.00611 0.52315 0.87868 0.0
C1782 C 0.00267 0.52135 0.85742 0.0
C1783 C 0.00505 0.53764 0.84606 0.0
C1784 C 0.00266 0.53599 0.82504 0.0
C1785 C -0.00172 0.51816 0.81452 0.0
C1786 C 0.99529 0.50141 0.82571 0.0
C1787 C 0.99729 0.50295 0.84717 0.0
C1788 C 0.01713 0.41004 0.89406 0.0
C1789 C 0.01537 0.41875 0.91463 0.0
O1790 O 0.0104 0.57879 0.74023 0.0
O1791 O 0.03893 0.60067 0.91528 0.0
O1792 O -0.00029 0.42258 0.91332 0.0
O1793 O 0.98598 0.41602 0.75107 0.0
H1794 H 0.98691 0.56056 0.72068 0.0
H1795 H 0.01758 0.5618 0.70838 0.0
H1796 H 0.02984 0.58862 0.70517 0.0
H1797 H 0.00793 0.57167 0.6899 0.0
H1798 H 0.97454 0.55004 0.75254 0.0
H1799 H 0.03834 0.57589 0.75847 0.0
H1800 H 0.95918 0.50363 0.77082 0.0
H1801 H 0.95136 0.52199 0.7711 0.0
H1802 H 0.96089 0.51705 0.79393 0.0
H1803 H 0.05283 0.56103 0.7777 0.0
H1804 H 0.03726 0.53409 0.78012 0.0
H1805 H 0.03899 0.5505 0.8006 0.0
H1806 H 0.96831 0.41535 0.72655 0.0
H1807 H -0.00136 0.39921 0.70177 0.0
H1808 H 0.95965 0.38294 0.71943 0.0
H1809 H 0.97471 0.38279 0.73722 0.0
H1810 H 0.01737 0.44336 0.77071 0.0
H1811 H 0.95596 0.42298 0.75523 0.0
H1812 H 0.02508 0.4762 0.80816 0.0
H1813 H 0.03022 0.49318 0.78785 0.0
H1814 H 0.03864 0.47528 0.78638 0.0
H1815 H 0.93915 0.43935 0.76721 0.0
H1816 H 0.95559 0.46622 0.76554 0.0
H1817 H 0.94955 0.45487 0.78991 0.0
H1818 H 0.02981 0.43286 0.91817 0.0
H1819 H 0.03106 0.45392 0.89518 0.0
H1820 H 0.97029 0.42915 0.91562 0.0
H1821 H 0.03291 0.48586 0.8618 0.0
H1822 H 0.04935 0.48579 0.88111 0.0
H1823 H 0.03969 0.50263 0.88339 0.0
H1824 H 0.95219 0.44594 0.9113 0.0
H1825 H 0.95753 0.4573 0.8867 0.0
H1826 H 0.96719 0.47298 0.90909 0.0
H1827 H 0.01966 0.60744 0.90064 0.0
H1828 H 0.04317 0.64426 0.90243 0.0
H1829 H 0.05304 0.63067 0.88902 0.0
H1830 H 0.06205 0.64044 0.91421 0.0
H1831 H 0.05904 0.58377 0.90511 0.0
H1832 H -0.00051 0.57429 0.90984 0.0
H1833 H 0.04661 0.54225 0.87131 0.0
H1834 H 0.04729 0.53572 0.89712 0.0
H1835 H 0.0656 0.56041 0.88865 0.0
H1836 H 0.97053 0.54326 0.90098 0.0
H1837 H 0.97331 0.52143 0.89915 0.0
H1838 H 0.97494 0.53494 0.87681 0.0
H1839 H 0.99364 0.49829 0.76669 0.0
H1840 H 0.98339 0.45236 0.81959 0.0
H1841 H 0.98666 0.45489 0.85568 0.0
H1842 H 0.00745 0.50841 0.90547 0.0
H1843 H 0.00897 0.55192 0.85326 0.0
H1844 H 0.00477 0.54903 0.81708 0.0
H1845 H 0.00411 0.39455 0.89145 0.0
H1846 H 0.03141 0.40989 0.89333 0.0
H1847 H 0.01735 0.41947 0.88149 0.0
C1848 C 0.55039 0.58947 0.7101 0.0
C1849 C 0.56402 0.59646 0.72906 0.0
C1850 C 0.54299 0.56975 0.75285 0.0
C1851 C 0.52873 0.57566 0.75625 0.0
C1852 C 0.51155 0.56385 0.76783 0.0
C1853 C 0.50861 0.54588 0.77621 0.0
C1854 C 0.52314 0.54014 0.77322 0.0
C1855 C 0.54018 0.55222 0.76161 0.0
C1856 C 0.49639 0.57045 0.77095 0.0
C1857 C 0.52049 0.52109 0.78206 0.0
C1858 C 0.39516 0.45162 0.69365 0.0
C1859 C 0.40098 0.44416 0.71228 0.0
C1860 C 0.4097 0.46296 0.7444 0.0
C1861 C 0.42462 0.45923 0.7513 0.0
C1862 C 0.43909 0.47219 0.76566 0.0
C1863 C 0.43868 0.48931 0.77308 0.0
C1864 C 0.42312 0.49262 0.76673 0.0
C1865 C 0.40858 0.47913 0.7527 0.0
C1866 C 0.45515 0.46791 0.77246 0.0
C1867 C 0.42229 0.51078 0.77417 0.0
C1868 C 0.39561 0.46517 0.89853 0.0
C1869 C 0.41111 0.46104 0.89516 0.0
C1870 C 0.42961 0.47571 0.88731 0.0
C1871 C 0.43262 0.49485 0.88272 0.0
C1872 C 0.41751 0.49946 0.88732 0.0
C1873 C 0.3992 0.48454 0.89535 0.0
C1874 C 0.44569 0.47054 0.88323 0.0
C1875 C 0.42041 0.51985 0.88295 0.0
C1876 C 0.57278 0.62616 0.89605 0.0
C1877 C 0.56486 0.61591 0.91639 0.0
C1878 C 0.53839 0.58166 0.90534 0.0
C1879 C 0.53415 0.56189 0.9028 0.0
C1880 C 0.5165 0.54719 0.89288 0.0
C1881 C 0.5027 0.55247 0.88544 0.0
C1882 C 0.50645 0.57226 0.88865 0.0
C1883 C 0.5243 0.58671 0.89856 0.0
C1884 C 0.51291 0.52619 0.88981 0.0
C1885 C 0.49188 0.57825 0.88107 0.0
C1886 C 0.49 0.53267 0.78751 0.0
C1887 C 0.47333 0.51805 0.77645 0.0
C1888 C 0.45547 0.50457 0.78606 0.0
C1889 C 0.45407 0.50569 0.80737 0.0
C1890 C 0.43644 0.49219 0.81759 0.0
C1891 C 0.43525 0.49347 0.83857 0.0
C1892 C 0.45173 0.50816 0.85017 0.0
C1893 C 0.45081 0.50936 0.87155 0.0
C1894 C 0.46746 0.52411 0.88262 0.0
C1895 C 0.48521 0.53771 0.87288 0.0
C1896 C 0.48646 0.53672 0.85153 0.0
C1897 C 0.50419 0.55008 0.8413 0.0
C1898 C 0.50537 0.54886 0.82033 0.0
C1899 C 0.48888 0.5342 0.80879 0.0
C1900 C 0.47084 0.52064 0.81875 0.0
C1901 C 0.46965 0.52189 0.84016 0.0
C1902 C 0.34601 0.42221 0.89351 0.0
C1903 C 0.36792 0.43036 0.89994 0.0
O1904 O 0.55946 0.58021 0.74109 0.0
O1905 O 0.55633 0.59525 0.9141 0.0
O1906 O 0.37695 0.45079 0.90441 0.0
O1907 O 0.39635 0.4514 0.7296 0.0
H1908 H 0.56188 0.6076 0.73793 0.0
H1909 H 0.53435 0.58263 0.71432 0.0
H1910 H 0.55216 0.5781 0.70122 0.0
H1911 H 0.55426 0.60248 0.70033 0.0
H1912 H 0.53073 0.58931 0.74983 0.0
H1913 H 0.5513 0.54785 0.75902 0.0
H1914 H 0.48168 0.55898 0.76414 0.0
H1915 H 0.50119 0.5852 0.76405 0.0
H1916 H 0.49404 0.57159 0.78742 0.0
H1917 H 0.5333 0.51887 0.77855 0.0
H1918 H 0.50641 0.50791 0.77598 0.0
H1919 H 0.51902 0.52154 0.79878 0.0
H1920 H 0.41753 0.45038 0.71139 0.0
H1921 H 0.39891 0.4462 0.67952 0.0
H1922 H 0.40364 0.46835 0.69383 0.0
H1923 H 0.37879 0.44625 0.69354 0.0
H1924 H 0.42503 0.44626 0.74535 0.0
H1925 H 0.39678 0.48165 0.74743 0.0
H1926 H 0.45713 0.4697 0.7892 0.0
H1927 H 0.46971 0.47889 0.76558 0.0
H1928 H 0.45153 0.45248 0.76788 0.0
H1929 H 0.40981 0.51171 0.76695 0.0
H1930 H 0.43674 0.52475 0.77099 0.0
H1931 H 0.42021 0.51016 0.79084 0.0
H1932 H 0.37519 0.42781 0.88655 0.0
H1933 H 0.40872 0.44631 0.8984 0.0
H1934 H 0.38727 0.48768 0.89838 0.0
H1935 H 0.44766 0.46988 0.86661 0.0
H1936 H 0.44187 0.45582 0.88959 0.0
H1937 H 0.46033 0.48244 0.88981 0.0
H1938 H 0.40743 0.52125 0.88794 0.0
H1939 H 0.42246 0.52252 0.86641 0.0
H1940 H 0.43427 0.53179 0.89075 0.0
H1941 H 0.55338 0.61928 0.92224 0.0
H1942 H 0.58001 0.64275 0.89804 0.0
H1943 H 0.56029 0.621 0.88486 0.0
H1944 H 0.58399 0.62258 0.88979 0.0
H1945 H 0.54503 0.55811 0.90825 0.0
H1946 H 0.5272 0.60188 0.90063 0.0
H1947 H 0.51203 0.52253 0.87334 0.0
H1948 H 0.49827 0.51512 0.89651 0.0
H1949 H 0.52498 0.52443 0.8968 0.0
H1950 H 0.49606 0.59368 0.88629 0.0
H1951 H 0.47644 0.56745 0.88631 0.0
H1952 H 0.49152 0.57766 0.86423 0.0
H1953 H 0.47435 0.51703 0.76009 0.0
H1954 H 0.42336 0.48049 0.80946 0.0
H1955 H 0.42124 0.48272 0.84557 0.0
H1956 H 0.46669 0.52482 0.89902 0.0
H1957 H 0.51741 0.56164 0.84936 0.0
H1958 H 0.51939 0.55952 0.81328 0.0
H1959 H 0.33763 0.42496 0.9056 0.0
H1960 H 0.3384 0.40577 0.89009 0.0
H1961 H 0.34553 0.42983 0.87962 0.0
C1962 C 0.61794 0.74557 0.64464 0.0
C1963 C 0.62479 0.73915 0.62555 0.0
C1964 C 0.632 0.76616 0.60175 0.0
C1965 C 0.61187 0.76059 0.59789 0.0
C1966 C 0.60727 0.77223 0.58543 0.0
C1967 C 0.62307 0.78975 0.5767 0.0
C1968 C 0.6433 0.79522 0.5803 0.0
C1969 C 0.64747 0.78328 0.59274 0.0
C1970 C 0.58553 0.76597 0.58176 0.0
C1971 C 0.66052 0.81385 0.57124 0.0
C1972 C 0.60623 0.88805 0.65517 0.0
C1973 C 0.61901 0.89299 0.63607 0.0
C1974 C 0.60836 0.87302 0.60466 0.0
C1975 C 0.62728 0.87692 0.59814 0.0
C1976 C 0.6289 0.86385 0.58423 0.0
C1977 C 0.61123 0.84648 0.57685 0.0
C1978 C 0.59211 0.84304 0.58269 0.0
C1979 C 0.59094 0.8566 0.59632 0.0
C1980 C 0.64952 0.86827 0.5779 0.0
C1981 C 0.57296 0.82464 0.57519 0.0
C1982 C 0.59844 0.87027 0.45037 0.0
C1983 C 0.61799 0.87402 0.45403 0.0
C1984 C 0.62101 0.85918 0.4623 0.0
C1985 C 0.60415 0.84026 0.46694 0.0
C1986 C 0.58452 0.83601 0.46199 0.0
C1987 C 0.58194 0.85109 0.45361 0.0
C1988 C 0.64218 0.86398 0.46684 0.0
C1989 C 0.56626 0.81585 0.46642 0.0
C1990 C 0.60795 0.70773 0.45562 0.0
C1991 C 0.61101 0.71842 0.43546 0.0
C1992 C 0.62018 0.75269 0.44711 0.0
C1993 C 0.6364 0.77227 0.45018 0.0
C1994 C 0.63392 0.78709 0.46007 0.0
C1995 C 0.61462 0.78217 0.46693 0.0
C1996 C 0.59797 0.76256 0.46333 0.0
C1997 C 0.6009 0.74797 0.45349 0.0
C1998 C 0.65199 0.80788 0.46361 0.0
C1999 C 0.57716 0.75693 0.47027 0.0
C2000 C 0.6185 0.80287 0.56455 0.0
C2001 C 0.61643 0.81763 0.57493 0.0
C2002 C 0.61283 0.83107 0.56455 0.0
C2003 C 0.6112 0.82981 0.54316 0.0
C2004 C 0.6079 0.84327 0.53222 0.0
C2005 C 0.60636 0.8419 0.51116 0.0
C2006 C 0.6082 0.82709 0.50022 0.0
C2007 C 0.60696 0.82577 0.47879 0.0
C2008 C 0.60885 0.81088 0.46837 0.0
C2009 C 0.61212 0.79724 0.47884 0.0
C2010 C 0.61351 0.79837 0.50027 0.0
C2011 C 0.61698 0.785 0.51126 0.0
C2012 C 0.61852 0.78636 0.53231 0.0
C2013 C 0.61669 0.80118 0.54319 0.0
C2014 C 0.61307 0.81474 0.53246 0.0
C2015 C 0.61153 0.81336 0.51097 0.0
C2016 C 0.59446 0.91443 0.45362 0.0
C2017 C 0.60737 0.90536 0.44771 0.0
O2018 O 0.63731 0.75575 0.61414 0.0
O2019 O 0.624 0.73898 0.43817 0.0
O2020 O 0.5949 0.88484 0.44415 0.0
O2021 O 0.60642 0.88452 0.61928 0.0
H2022 H 0.61132 0.72845 0.61632 0.0
H2023 H 0.60903 0.75258 0.64049 0.0
H2024 H 0.63108 0.75665 0.65398 0.0
H2025 H 0.60826 0.73223 0.65393 0.0
H2026 H 0.59964 0.74736 0.60464 0.0
H2027 H 0.66293 0.78742 0.59575 0.0
H2028 H 0.58267 0.77766 0.58821 0.0
H2029 H 0.57493 0.75133 0.58869 0.0
H2030 H 0.58235 0.76476 0.56521 0.0
H2031 H 0.67543 0.81607 0.57557 0.0
H2032 H 0.6599 0.82731 0.57632 0.0
H2033 H 0.65908 0.81278 0.55445 0.0
H2034 H 0.62844 0.88601 0.63805 0.0
H2035 H 0.61606 0.89472 0.66883 0.0
H2036 H 0.59716 0.87147 0.65685 0.0
H2037 H 0.59576 0.89388 0.65434 0.0
H2038 H 0.64079 0.89005 0.60408 0.0
H2039 H 0.57641 0.85391 0.60128 0.0
H2040 H 0.65 0.86656 0.56118 0.0
H2041 H 0.65277 0.85729 0.58492 0.0
H2042 H 0.66154 0.8837 0.58265 0.0
H2043 H 0.55929 0.82396 0.58149 0.0
H2044 H 0.573 0.81083 0.57944 0.0
H2045 H 0.57211 0.82463 0.55839 0.0
H2046 H 0.61739 0.90817 0.46103 0.0
H2047 H 0.6309 0.88857 0.45073 0.0
H2048 H 0.56694 0.84824 0.45036 0.0
H2049 H 0.64448 0.86458 0.48352 0.0
H2050 H 0.65371 0.87863 0.46058 0.0
H2051 H 0.6445 0.85191 0.46045 0.0
H2052 H 0.5521 0.81455 0.46072 0.0
H2053 H 0.56508 0.8136 0.48305 0.0
H2054 H 0.5679 0.8036 0.45936 0.0
H2055 H 0.59628 0.71556 0.42955 0.0
H2056 H 0.59777 0.69122 0.45338 0.0
H2057 H 0.60101 0.71311 0.46692 0.0
H2058 H 0.6226 0.71069 0.46187 0.0
H2059 H 0.65118 0.77581 0.44509 0.0
H2060 H 0.58811 0.73296 0.45109 0.0
H2061 H 0.65425 0.81148 0.48013 0.0
H2062 H 0.64931 0.8192 0.45648 0.0
H2063 H 0.666 0.8093 0.45732 0.0
H2064 H 0.56552 0.74151 0.46508 0.0
H2065 H 0.57312 0.76782 0.46449 0.0
H2066 H 0.577 0.75775 0.48709 0.0
H2067 H 0.61784 0.81879 0.59134 0.0
H2068 H 0.60647 0.85503 0.53983 0.0
H2069 H 0.60375 0.85267 0.50359 0.0
H2070 H 0.60798 0.81005 0.45193 0.0
H2071 H 0.6186 0.77334 0.50371 0.0
H2072 H 0.62121 0.77568 0.53997 0.0
H2073 H 0.60413 0.93093 0.45643 0.0
H2074 H 0.58618 0.90751 0.46775 0.0
H2075 H 0.58328 0.91161 0.44149 0.0
C2076 C 0.11139 0.7182 0.65563 0.0
C2077 C 0.10618 0.72852 0.63914 0.0
C2078 C 0.12264 0.73701 0.60672 0.0
C2079 C 0.12 0.75292 0.60123 0.0
C2080 C 0.13391 0.76814 0.58875 0.0
C2081 C 0.151 0.76756 0.58193 0.0
C2082 C 0.1532 0.75101 0.58673 0.0
C2083 C 0.13875 0.73572 0.59886 0.0
C2084 C 0.13068 0.78518 0.58344 0.0
C2085 C 0.17118 0.74988 0.5797 0.0
C2086 C 0.26953 0.88629 0.64692 0.0
C2087 C 0.26746 0.89628 0.62797 0.0
C2088 C 0.23557 0.87085 0.61123 0.0
C2089 C 0.24188 0.85759 0.60449 0.0
C2090 C 0.22896 0.84037 0.59267 0.0
C2091 C 0.20957 0.83657 0.5873 0.0
C2092 C 0.20321 0.84987 0.59418 0.0
C2093 C 0.21627 0.86673 0.60621 0.0
C2094 C 0.23606 0.82631 0.58577 0.0
C2095 C 0.18264 0.84633 0.58879 0.0
C2096 C 0.24192 0.87805 0.45873 0.0
C2097 C 0.24633 0.86267 0.46119 0.0
C2098 C 0.23267 0.84475 0.47075 0.0
C2099 C 0.21422 0.84213 0.47786 0.0
C2100 C 0.20976 0.8576 0.4754 0.0
C2101 C 0.22378 0.87543 0.466 0.0
C2102 C 0.23797 0.82864 0.47337 0.0
C2103 C 0.1902 0.85529 0.48274 0.0
C2104 C 0.08719 0.6848 0.45078 0.0
C2105 C 0.0948 0.70714 0.44778 0.0
C2106 C 0.12912 0.73554 0.45227 0.0
C2107 C 0.14883 0.73981 0.45519 0.0
C2108 C 0.16322 0.75762 0.46525 0.0
C2109 C 0.15773 0.77159 0.47217 0.0
C2110 C 0.13822 0.76805 0.4679 0.0
C2111 C 0.12407 0.75001 0.45802 0.0
C2112 C 0.18402 0.76113 0.46923 0.0
C2113 C 0.13212 0.78299 0.47445 0.0
C2114 C 0.16722 0.78501 0.57115 0.0
C2115 C 0.18115 0.80161 0.58292 0.0
C2116 C 0.19611 0.81909 0.57393 0.0
C2117 C 0.19736 0.82017 0.55257 0.0
C2118 C 0.21198 0.83772 0.54305 0.0
C2119 C 0.2129 0.83877 0.52203 0.0
C2120 C 0.19919 0.82235 0.5097 0.0
C2121 C 0.19976 0.82342 0.48831 0.0
C2122 C 0.18613 0.8067 0.47647 0.0
C2123 C 0.17172 0.7889 0.48546 0.0
C2124 C 0.17063 0.78767 0.50685 0.0
C2125 C 0.15599 0.77013 0.5164 0.0
C2126 C 0.15476 0.76923 0.53744 0.0
C2127 C 0.16839 0.78568 0.54975 0.0
C2128 C 0.18348 0.80339 0.54045 0.0
C2129 C 0.18447 0.80445 0.51898 0.0
C2130 C 0.27767 0.91623 0.42371 0.0
C2131 C 0.27115 0.89919 0.43781 0.0
O2132 O 0.11035 0.7233 0.6203 0.0
O2133 O 0.11533 0.71722 0.44428 0.0
O2134 O 0.25454 0.89544 0.4492 0.0
O2135 O 0.24731 0.88766 0.62274 0.0
H2136 H 0.11627 0.74497 0.64227 0.0
H2137 H 0.12779 0.72379 0.65545 0.0
H2138 H 0.10319 0.70162 0.65309 0.0
H2139 H 0.10756 0.72169 0.67083 0.0
H2140 H 0.10718 0.75354 0.60696 0.0
H2141 H 0.1405 0.72322 0.6031 0.0
H2142 H 0.14146 0.79888 0.59231 0.0
H2143 H 0.11517 0.78171 0.58695 0.0
H2144 H 0.13354 0.78862 0.5671 0.0
H2145 H 0.17076 0.73608 0.58486 0.0
H2146 H 0.18524 0.76326 0.58553 0.0
H2147 H 0.17179 0.75008 0.56288 0.0
H2148 H 0.27581 0.89439 0.6152 0.0
H2149 H 0.26295 0.8699 0.64406 0.0
H2150 H 0.26154 0.88841 0.65988 0.0
H2151 H 0.28564 0.89286 0.65114 0.0
H2152 H 0.25673 0.86048 0.60842 0.0
H2153 H 0.21153 0.877 0.61162 0.0
H2154 H 0.22485 0.81063 0.58986 0.0
H2155 H 0.25089 0.83046 0.59255 0.0
H2156 H 0.23739 0.82662 0.569 0.0
H2157 H 0.18076 0.8591 0.59371 0.0
H2158 H 0.171 0.83254 0.59626 0.0
H2159 H 0.17996 0.84388 0.57216 0.0
H2160 H 0.28341 0.89959 0.4471 0.0
H2161 H 0.26043 0.8646 0.4558 0.0
H2162 H 0.22052 0.88738 0.46403 0.0
H2163 H 0.23717 0.82492 0.48964 0.0
H2164 H 0.25328 0.83331 0.46777 0.0
H2165 H 0.22685 0.81472 0.46498 0.0
H2166 H 0.18838 0.86808 0.47835 0.0
H2167 H 0.18962 0.85434 0.49952 0.0
H2168 H 0.1773 0.84109 0.47646 0.0
H2169 H 0.09174 0.71266 0.46232 0.0
H2170 H 0.07069 0.67645 0.45341 0.0
H2171 H 0.09476 0.68308 0.46425 0.0
H2172 H 0.09044 0.67799 0.43741 0.0
H2173 H 0.15267 0.72871 0.45033 0.0
H2174 H 0.10905 0.74718 0.45507 0.0
H2175 H 0.1868 0.76196 0.48584 0.0
H2176 H 0.19549 0.77576 0.46293 0.0
H2177 H 0.18607 0.74902 0.46244 0.0
H2178 H 0.11728 0.77918 0.46796 0.0
H2179 H 0.14364 0.79837 0.46978 0.0
H2180 H 0.13122 0.78328 0.49125 0.0
H2181 H 0.18008 0.80107 0.59933 0.0
H2182 H 0.22286 0.85089 0.55173 0.0
H2183 H 0.22447 0.85267 0.51558 0.0
H2184 H 0.18668 0.8076 0.46007 0.0
H2185 H 0.14516 0.75692 0.50774 0.0
H2186 H 0.14304 0.75545 0.54394 0.0
H2187 H 0.29312 0.92806 0.4293 0.0
H2188 H 0.27023 0.92484 0.42888 0.0
H2189 H 0.27253 0.90236 0.39495 0.0
C2190 C 0.12656 0.37991 0.65385 0.0
C2191 C 0.11409 0.37509 0.63426 0.0
C2192 C 0.13357 0.36777 0.60947 0.0
C2193 C 0.14926 0.38782 0.60714 0.0
C2194 C 0.16574 0.39236 0.5947 0.0
C2195 C 0.16673 0.37659 0.58457 0.0
C2196 C 0.151 0.35643 0.58684 0.0
C2197 C 0.13455 0.35233 0.59913 0.0
C2198 C 0.18224 0.41404 0.59256 0.0
C2199 C 0.15172 0.33918 0.57654 0.0
C2200 C 0.28458 0.39674 0.66163 0.0
C2201 C 0.27346 0.38252 0.64358 0.0
C2202 C 0.26543 0.39161 0.61155 0.0
C2203 C 0.24956 0.37269 0.60512 0.0
C2204 C 0.23476 0.37103 0.59162 0.0
C2205 C 0.23577 0.38871 0.58463 0.0
C2206 C 0.25222 0.40783 0.59048 0.0
C2207 C 0.26709 0.40901 0.60364 0.0
C2208 C 0.21775 0.35038 0.58528 0.0
C2209 C 0.2537 0.42699 0.58346 0.0
C2210 C 0.27334 0.40078 0.45601 0.0
C2211 C 0.25764 0.38115 0.45988 0.0
C2212 C 0.23995 0.37785 0.46931 0.0
C2213 C 0.2379 0.3945 0.47484 0.0
C2214 C 0.25322 0.41419 0.46992 0.0
C2215 C 0.27072 0.41704 0.4604 0.0
C2216 C 0.22363 0.35661 0.4738 0.0
C2217 C 0.25135 0.43223 0.47531 0.0
C2218 C 0.09816 0.38385 0.45644 0.0
C2219 C 0.10791 0.3796 0.43827 0.0
C2220 C 0.13271 0.37251 0.45371 0.0
C2221 C 0.13647 0.3571 0.45799 0.0
C2222 C 0.15395 0.36107 0.46846 0.0
C2223 C 0.16809 0.38105 0.47473 0.0
C2224 C 0.1646 0.39684 0.4702 0.0
C2225 C 0.14689 0.39242 0.4598 0.0
C2226 C 0.15717 0.34387 0.47308 0.0
C2227 C 0.17947 0.41831 0.47667 0.0
C2228 C 0.1847 0.38109 0.57243 0.0
C2229 C 0.20159 0.38352 0.58279 0.0
C2230 C 0.21886 0.38711 0.57244 0.0
C2231 C 0.21946 0.38842 0.55109 0.0
C2232 C 0.23648 0.39171 0.54018 0.0
C2233 C 0.23688 0.39292 0.51915 0.0
C2234 C 0.22018 0.39062 0.5082 0.0
C2235 C 0.22029 0.39141 0.48678 0.0
C2236 C 0.20331 0.38872 0.47635 0.0
C2237 C 0.18608 0.38521 0.48676 0.0
C2238 C 0.18576 0.38462 0.50818 0.0
C2239 C 0.1687 0.38126 0.51911 0.0
C2240 C 0.16839 0.38033 0.54016 0.0
C2241 C 0.18505 0.38253 0.55108 0.0
C2242 C 0.20248 0.38615 0.54038 0.0
C2243 C 0.20285 0.38723 0.51891 0.0
C2244 C 0.3219 0.40738 0.45924 0.0
C2245 C 0.30033 0.39338 0.4515 0.0
O2246 O 0.11741 0.36255 0.62158 0.0
O2247 O 0.11518 0.36728 0.44391 0.0
O2248 O 0.29121 0.40459 0.44825 0.0
O2249 O 0.27883 0.39347 0.62597 0.0
H2250 H 0.11849 0.3893 0.6264 0.0
H2251 H 0.14287 0.38785 0.65043 0.0
H2252 H 0.12257 0.36586 0.66185 0.0
H2253 H 0.1238 0.38985 0.66408 0.0
H2254 H 0.14893 0.40005 0.61501 0.0
H2255 H 0.12245 0.33693 0.601 0.0
H2256 H 0.19634 0.41634 0.59961 0.0
H2257 H 0.1784 0.42471 0.59988 0.0
H2258 H 0.18527 0.41765 0.57626 0.0
H2259 H 0.13878 0.3243 0.58067 0.0
H2260 H 0.16592 0.33973 0.58073 0.0
H2261 H 0.15161 0.34061 0.55984 0.0
H2262 H 0.25715 0.37628 0.64653 0.0
H2263 H 0.28076 0.38818 0.67589 0.0
H2264 H 0.27997 0.40816 0.66315 0.0
H2265 H 0.30114 0.40476 0.65955 0.0
H2266 H 0.24863 0.35921 0.61082 0.0
H2267 H 0.27954 0.42354 0.60861 0.0
H2268 H 0.2153 0.34948 0.56861 0.0
H2269 H 0.20365 0.34761 0.59262 0.0
H2270 H 0.22066 0.33829 0.58967 0.0
H2271 H 0.26693 0.44065 0.59018 0.0
H2272 H 0.23983 0.42713 0.58758 0.0
H2273 H 0.2549 0.42769 0.56669 0.0
H2274 H 0.29263 0.38247 0.46382 0.0
H2275 H 0.2592 0.3684 0.45565 0.0
H2276 H 0.28277 0.4321 0.45699 0.0
H2277 H 0.22184 0.35483 0.49046 0.0
H2278 H 0.227 0.34522 0.46752 0.0
H2279 H 0.20904 0.3536 0.46737 0.0
H2280 H 0.26433 0.4465 0.46991 0.0
H2281 H 0.25033 0.43342 0.49202 0.0
H2282 H 0.23728 0.43029 0.46856 0.0
H2283 H 0.12049 0.39401 0.43261 0.0
H2284 H 0.09229 0.3937 0.45197 0.0
H2285 H 0.10938 0.39165 0.46886 0.0
H2286 H 0.08555 0.36956 0.46229 0.0
H2287 H 0.12547 0.34182 0.45322 0.0
H2288 H 0.14424 0.40456 0.4567 0.0
H2289 H 0.15848 0.34293 0.48974 0.0
H2290 H 0.1715 0.34665 0.46629 0.0
H2291 H 0.14471 0.32917 0.46716 0.0
H2292 H 0.17506 0.42903 0.47119 0.0
H2293 H 0.19463 0.42278 0.47079 0.0
H2294 H 0.18064 0.41951 0.49347 0.0
H2295 H 0.20119 0.38233 0.59918 0.0
H2296 H 0.2497 0.39341 0.54779 0.0
H2297 H 0.25043 0.39555 0.5116 0.0
H2298 H 0.20338 0.38902 0.4599 0.0
H2299 H 0.15537 0.3793 0.51152 0.0
H2300 H 0.15487 0.37772 0.54777 0.0
H2301 H 0.32955 0.39869 0.4617 0.0
H2302 H 0.32163 0.41452 0.47394 0.0
H2303 H 0.33077 0.4195 0.44838 0.0
C2304 C 0.02388 0.38985 0.06743 0.0
C2305 C 0.00832 0.36958 0.06544 0.0
C2306 C 0.0238 0.40246 0.08289 0.0
C2307 C 0.00809 0.39539 0.09697 0.0
H2308 H 0.03621 0.39621 0.05682 0.0
H2309 H 0.03607 0.41797 0.08373 0.0
S2310 S 0.96457 0.34321 0.09951 0.0
N2311 N 0.9773 0.34272 0.0796 0.0
N2312 N 0.97721 0.3665 0.10878 0.0
C2313 C 0.99275 0.37501 0.09559 0.0
C2314 C 0.99282 0.36211 0.07978 0.0
C2315 C 0.60278 0.57955 0.0482 0.0
C2316 C 0.62941 0.59763 0.04531 0.0
C2317 C 0.59454 0.55755 0.06338 0.0
C2318 C 0.61497 0.5577 0.07869 0.0
H2319 H 0.59168 0.58205 0.04106 0.0
H2320 H 0.57876 0.54755 0.06653 0.0
S2321 S 0.67686 0.59506 0.0713 0.0
N2322 N 0.66854 0.60638 0.05571 0.0
N2323 N 0.65793 0.57375 0.08102 0.0
C2324 C 0.64198 0.57256 0.0715 0.0
C2325 C 0.64853 0.59368 0.05617 0.0
C2326 C 0.38912 0.01843 0.06055 0.0
C2327 C 0.37782 -0.00116 0.05209 0.0
C2328 C 0.40218 0.02266 0.0771 0.0
C2329 C 0.40448 0.00749 0.08586 0.0
H2330 H 0.38817 0.03071 0.05413 0.0
H2331 H 0.41069 0.038 0.08301 0.0
S2332 S 0.37663 0.95325 0.07085 0.0
N2333 N 0.36872 0.9638 0.05467 0.0
N2334 N 0.393 0.97173 0.08594 0.0
C2335 C 0.39264 0.98766 0.07808 0.0
C2336 C 0.37946 0.98337 0.06112 0.0
C2337 C 0.39561 0.02365 0.94521 0.0
C2338 C 0.37641 0.00647 0.94751 0.0
C2339 C 0.40663 0.02653 0.9275 0.0
C2340 C 0.39906 0.01221 0.91144 0.0
H2341 H 0.40208 0.03527 0.95701 0.0
H2342 H 0.42107 0.04029 0.92624 0.0
S2343 S 0.34978 0.96444 0.90984 0.0
N2344 N 0.3504 0.97475 0.93223 0.0
N2345 N 0.37125 0.9802 0.89891 0.0
C2346 C 0.38001 0.99485 0.91358 0.0
C2347 C 0.36869 0.99193 0.93163 0.0
C2348 C 0.01365 0.37755 0.94824 0.0
C2349 C 0.00531 0.37986 0.96628 0.0
C2350 C 0.01686 0.38987 0.93169 0.0
C2351 C 0.0117 0.405 0.93244 0.0
H2352 H 0.01739 0.36585 0.94671 0.0
H2353 H 0.02331 0.38722 0.9183 0.0
S2354 S 0.99242 0.41913 0.97766 0.0
N2355 N 0.99383 0.39956 0.98484 0.0
N2356 N 0.00029 0.4231 0.95403 0.0
C2357 C 0.0044 0.40812 0.95094 0.0
C2358 C 0.00096 0.39541 0.9677 0.0
C2359 C 0.61064 0.62243 0.94575 0.0
C2360 C 0.61486 0.63802 0.95989 0.0
C2361 C 0.59473 0.61558 0.93177 0.0
C2362 C 0.58213 0.6238 0.93157 0.0
H2363 H 0.61965 0.61535 0.94545 0.0
H2364 H 0.59218 0.60361 0.92113 0.0
S2365 S 0.58766 0.666 0.96429 0.0
N2366 N 0.60584 0.66233 0.97202 0.0
N2367 N 0.5758 0.64929 0.94575 0.0
C2368 C 0.58655 0.63982 0.94518 0.0
C2369 C 0.60287 0.64692 0.95937 0.0
C2370 C 0.99636 0.61727 0.95062 0.0
C2371 C 0.00839 0.62538 0.96821 0.0
C2372 C 0.00396 0.61337 0.93295 0.0
C2373 C 0.02375 0.61704 0.93229 0.0
H2374 H 0.98109 0.6144 0.95034 0.0
H2375 H 0.99428 0.60759 0.91962 0.0
S2376 S 0.06066 0.63632 0.97504 0.0
N2377 N 0.04067 0.63605 0.98434 0.0
N2378 N 0.05476 0.62789 0.95135 0.0
C2379 C 0.0357 0.62446 0.95006 0.0
C2380 C 0.02809 0.62887 0.96794 0.0
C2381 C 0.36038 0.40995 0.95356 0.0
C2382 C 0.36704 0.39609 0.95218 0.0
C2383 C 0.36148 0.42147 0.93698 0.0
C2384 C 0.36899 0.41935 0.91823 0.0
H2385 H 0.35392 0.41168 0.9675 0.0
H2386 H 0.35587 0.43171 0.93865 0.0
S2387 S 0.3893 0.38588 0.90693 0.0
N2388 N 0.38241 0.38165 0.93087 0.0
N2389 N 0.384 0.40294 0.8995 0.0
C2390 C 0.37628 0.406 0.91681 0.0
C2391 C 0.37545 0.39448 0.93383 0.0
C2392 C 0.61281 0.97637 0.952 0.0
C2393 C 0.61975 0.99526 0.96161 0.0
C2394 C 0.59959 0.97002 0.93524 0.0
C2395 C 0.59297 0.98247 0.92713 0.0
H2396 H 0.61773 0.9664 0.95732 0.0
H2397 H 0.59489 0.95535 0.9286 0.0
S2398 S 0.60509 0.03251 0.94784 0.0
N2399 N 0.61771 0.02572 0.96261 0.0
N2400 N 0.59323 0.01389 0.93108 0.0
C2401 C 0.59926 0.00105 0.93709 0.0
C2402 C 0.61257 0.00747 0.95421 0.0
C2403 C 0.64522 0.03394 0.07095 0.0
C2404 C 0.63849 0.01358 0.06651 0.0
C2405 C 0.63806 0.03963 0.08781 0.0
C2406 C 0.62431 0.02522 0.10123 0.0
H2407 H 0.65598 0.0456 0.06121 0.0
H2408 H 0.6435 0.05548 0.09047 0.0
S2409 S 0.60161 0.96983 0.09604 0.0
N2410 N 0.61674 0.97888 0.07646 0.0
N2411 N 0.60374 0.9896 0.1085 0.0
C2412 C 0.61724 0.00477 0.09678 0.0
C2413 C 0.62425 -0.00105 0.07939 0.0
C2414 C 0.95821 0.59902 0.0693 0.0
C2415 C 0.97814 0.61514 0.07134 0.0
C2416 C 0.94992 0.58373 0.08356 0.0
C2417 C 0.96107 0.5843 0.10071 0.0
H2418 H 0.949 0.59805 0.05644 0.0
H2419 H 0.93459 0.57145 0.08122 0.0
S2420 S 0.01398 0.62347 0.11305 0.0
N2421 N 0.00899 0.63069 0.09154 0.0
N2422 N 0.99319 0.60241 0.11879 0.0
C2423 C 0.98107 0.60038 0.10288 0.0
C2424 C 0.98964 0.61569 0.08811 0.0
C2425 C 0.41036 0.37048 0.04983 0.0
C2426 C 0.39696 0.37733 0.05391 0.0
C2427 C 0.42351 0.37112 0.06487 0.0
C2428 C 0.42338 0.3781 0.08473 0.0
H2429 H 0.4107 0.36458 0.03488 0.0
H2430 H 0.43359 0.36571 0.06102 0.0
S2431 S 0.39121 0.39787 0.10315 0.0
N2432 N 0.38469 0.39183 0.07906 0.0
N2433 N 0.40886 0.39235 0.10752 0.0
C2434 C 0.41021 0.38524 0.08892 0.0
C2435 C 0.39713 0.385 0.07348 0.0
C2436 C 0.6492 0.71074 0.40549 0.0
C2437 C 0.63701 0.69462 0.39204 0.0
C2438 C 0.64079 0.71825 0.41937 0.0
C2439 C 0.61983 0.71023 0.4201 0.0
H2440 H 0.66543 0.7176 0.40541 0.0
H2441 H 0.65082 0.73049 0.42958 0.0
S2442 S 0.58115 0.66722 0.38897 0.0
N2443 N 0.60278 0.6703 0.38094 0.0
N2444 N 0.58701 0.68459 0.40695 0.0
C2445 C 0.60743 0.69384 0.40705 0.0
C2446 C 0.61599 0.68605 0.393 0.0
C2447 C 0.30107 0.9224 0.3964 0.0
C2448 C 0.28378 0.93095 0.39013 0.0
C2449 C 0.29228 0.89911 0.40966 0.0
C2450 C 0.2661 0.88773 0.41961 0.0
H2451 H 0.31671 0.93122 0.39216 0.0
H2452 H 0.3027 0.89472 0.41501 0.0
S2453 S 0.22263 0.9015 0.40225 0.0
N2454 N 0.2431 0.92072 0.39154 0.0
N2455 N 0.2277 0.88504 0.41326 0.0
C2456 C 0.24719 0.89304 0.40854 0.0
C2457 C 0.25726 0.91606 0.39559 0.0
C2458 C 0.06612 0.33843 0.40448 0.0
C2459 C 0.06319 0.34945 0.38954 0.0
C2460 C 0.08028 0.34815 0.42017 0.0
C2461 C 0.09251 0.3693 0.42127 0.0
H2462 H 0.05728 0.32213 0.40418 0.0
H2463 H 0.08174 0.33897 0.43145 0.0
S2464 S 0.09026 0.40519 0.38647 0.0
N2465 N 0.07321 0.38277 0.37731 0.0
N2466 N 0.10004 0.40097 0.40668 0.0
C2467 C 0.08945 0.38051 0.40669 0.0
C2468 C 0.07483 0.37063 0.39083 0.0
C2469 C 0.05629 0.3236 0.27434 0.0
C2470 C 0.0403 0.31112 0.28707 0.0
C2471 C 0.06324 0.31545 0.25953 0.0
C2472 C 0.0548 0.29448 0.25718 0.0
H2473 H 0.06344 0.33983 0.27569 0.0
H2474 H 0.07541 0.32569 0.24991 0.0
S2475 S 0.01197 0.2552 0.286 0.0
N2476 N 0.01565 0.27667 0.29581 0.0
N2477 N 0.02895 0.2614 0.26809 0.0
C2478 C 0.03853 0.28182 0.26952 0.0
C2479 C 0.03129 0.29012 0.28448 0.0
C2480 C 0.67548 0.72637 0.28185 0.0
C2481 C 0.6857 0.72346 0.29785 0.0
C2482 C 0.68581 0.74129 0.26762 0.0
C2483 C 0.7068 0.75439 0.26907 0.0
H2484 H 0.65929 0.71691 0.28013 0.0
H2485 H 0.67718 0.74265 0.25547 0.0
S2486 S 0.74089 0.75238 0.30731 0.0
N2487 N 0.7182 0.73422 0.31369 0.0
N2488 N 0.73764 0.76266 0.28705 0.0
C2489 C 0.71732 0.75133 0.28465 0.0
C2490 C 0.70679 0.73585 0.29904 0.0
C2491 C 0.27701 0.95769 0.2836 0.0
C2492 C 0.28129 0.97266 0.29852 0.0
C2493 C 0.26228 0.95276 0.26862 0.0
C2494 C 0.25084 0.96227 0.26822 0.0
H2495 H 0.28513 0.94967 0.28343 0.0
H2496 H 0.25972 0.94126 0.25737 0.0
S2497 S 0.25701 0.00344 0.30301 0.0
N2498 N 0.27363 0.99777 0.31131 0.0
N2499 N 0.2457 0.98824 0.28326 0.0
C2500 C 0.25535 0.97767 0.28269 0.0
C2501 C 0.27055 0.98287 0.29785 0.0
C2502 C 0.68288 0.94868 0.27135 0.0
C2503 C 0.69054 0.95536 0.29111 0.0
C2504 C 0.69558 0.95026 0.2554 0.0
C2505 C 0.71632 0.95817 0.25871 0.0
H2506 H 0.66711 0.94294 0.268 0.0
H2507 H 0.68915 0.94561 0.24028 0.0
S2508 S 0.74322 0.97535 0.30829 0.0
N2509 N 0.71978 0.96888 0.31349 0.0
N2510 N 0.74352 0.971 0.2837 0.0
C2511 C 0.72393 0.96389 0.27866 0.0
C2512 C 0.71108 0.96272 0.2948 0.0
C2513 C 0.02994 0.75294 0.29697 0.0
C2514 C 0.03863 0.74081 0.298 0.0
C2515 C 0.03205 0.76413 0.27975 0.0
C2516 C 0.0425 0.76326 0.26264 0.0
H2517 H 0.02107 0.75348 0.30943 0.0
H2518 H 0.02487 0.77305 0.27958 0.0
S2519 S 0.06975 0.73534 0.25834 0.0
N2520 N 0.05962 0.72997 0.28107 0.0
N2521 N 0.06308 0.75056 0.24848 0.0
C2522 C 0.05209 0.75196 0.26384 0.0
C2523 C 0.05026 0.74083 0.28155 0.0
C2524 C 0.27721 0.32129 0.27505 0.0
C2525 C 0.27501 0.31199 0.29376 0.0
C2526 C 0.26693 0.31003 0.25762 0.0
C2527 C 0.25374 0.28907 0.25826 0.0
H2528 H 0.28761 0.3373 0.27364 0.0
H2529 H 0.26969 0.31776 0.24342 0.0
S2530 S 0.24074 0.25794 0.30412 0.0
N2531 N 0.25762 0.28087 0.31227 0.0
N2532 N 0.23758 0.25978 0.27966 0.0
C2533 C 0.25055 0.27976 0.27713 0.0
C2534 C 0.26138 0.29119 0.29482 0.0
C2535 C 0.2952 0.35144 0.41556 0.0
C2536 C 0.30364 0.36156 0.39748 0.0
C2537 C 0.29366 0.36167 0.43264 0.0
C2538 C 0.30017 0.38231 0.43217 0.0
H2539 H 0.29048 0.33568 0.41683 0.0
H2540 H 0.28776 0.35344 0.44648 0.0
S2541 S 0.32119 0.41512 0.3877 0.0
N2542 N 0.31724 0.39301 0.3796 0.0
N2543 N 0.31386 0.4121 0.41154 0.0
C2544 C 0.30769 0.39235 0.41383 0.0
C2545 C 0.30954 0.38201 0.39654 0.0
C2546 C 0.61992 0.92241 0.39297 0.0
C2547 C 0.64062 0.93686 0.39393 0.0
C2548 C 0.60957 0.91178 0.4101 0.0
C2549 C 0.61946 0.91528 0.42894 0.0
H2550 H 0.61149 0.9196 0.37895 0.0
H2551 H 0.59353 0.90117 0.40874 0.0
S2552 S 0.6738 0.95067 0.43939 0.0
N2553 N 0.6709 0.95334 0.41507 0.0
N2554 N 0.65132 0.93355 0.4474 0.0
C2555 C 0.6403 0.92917 0.42999 0.0
C2556 C 0.65092 0.93987 0.41246 0.0
C2557 C 0.0582 0.71742 0.41878 0.0
C2558 C 0.06002 0.71237 0.3986 0.0
C2559 C 0.06969 0.71602 0.4344 0.0
C2560 C 0.08372 0.70993 0.43037 0.0
H2561 H 0.04731 0.72179 0.42265 0.0
H2562 H 0.06736 0.71945 0.44981 0.0
S2563 S 0.09565 0.69711 0.37974 0.0
N2564 N 0.07771 0.70221 0.3752 0.0
N2565 N 0.09976 0.70019 0.40448 0.0
C2566 C 0.08627 0.70567 0.41011 0.0
C2567 C 0.07432 0.70674 0.39427 0.0
C2568 C 0.31829 0.04965 0.74293 0.0
C2569 C 0.30756 0.03487 0.72778 0.0
C2570 C 0.30835 0.05533 0.7569 0.0
C2571 C 0.2873 0.0468 0.75598 0.0
H2572 H 0.33454 0.05694 0.74402 0.0
H2573 H 0.31729 0.0667 0.76837 0.0
S2574 S 0.25204 0.00647 0.72011 0.0
N2575 N 0.27453 0.01095 0.7134 0.0
N2576 N 0.25593 0.02191 0.73954 0.0
C2577 C 0.27632 0.03156 0.74132 0.0
C2578 C 0.28641 0.02559 0.7272 0.0
C2579 C 0.92423 0.24448 0.71589 0.0
C2580 C 0.95068 0.26187 0.71093 0.0
C2581 C 0.91665 0.22275 0.73139 0.0
C2582 C 0.93789 0.22256 0.74481 0.0
H2583 H 0.91285 0.24702 0.7095 0.0
H2584 H 0.90111 0.2131 0.73567 0.0
S2585 S -0.00096 0.25768 0.73181 0.0
N2586 N 0.99006 0.2693 0.71751 0.0
N2587 N 0.9806 0.23715 0.74316 0.0
C2588 C 0.96422 0.23662 0.73552 0.0
C2589 C 0.97012 0.25748 0.72007 0.0
C2590 C 0.72797 0.70898 0.73013 0.0
C2591 C 0.73043 0.69475 0.71887 0.0
C2592 C 0.74171 0.72095 0.74547 0.0
C2593 C 0.75868 0.71931 0.75009 0.0
H2594 H 0.71506 0.71062 0.72737 0.0
H2595 H 0.73867 0.73134 0.75368 0.0
S2596 S 0.77301 0.68571 0.72347 0.0
N2597 N 0.75163 0.68047 0.71245 0.0
N2598 N 0.77778 0.7033 0.74088 0.0
C2599 C 0.76162 0.70562 0.73831 0.0
C2600 C 0.74745 0.69323 0.7229 0.0
C2601 C 0.6972 0.63023 0.61718 0.0
C2602 C 0.70387 0.6509 0.61884 0.0
C2603 C 0.70414 0.62263 0.60177 0.0
C2604 C 0.71807 0.63538 0.58743 0.0
H2605 H 0.68661 0.61979 0.62795 0.0
H2606 H 0.69859 0.60661 0.6011 0.0
S2607 S 0.73909 0.69048 0.58415 0.0
N2608 N 0.72451 0.6839 0.60424 0.0
N2609 N 0.73737 0.66956 0.57514 0.0
C2610 C 0.72448 0.65603 0.58861 0.0
C2611 C 0.71751 0.6638 0.60438 0.0
C2612 C 0.33786 0.08751 0.62874 0.0
C2613 C 0.34976 0.07319 0.63495 0.0
C2614 C 0.35166 0.11098 0.61549 0.0
C2615 C 0.37655 0.11631 0.60541 0.0
H2616 H 0.32248 0.08215 0.63316 0.0
H2617 H 0.3444 0.11897 0.61044 0.0
S2618 S 0.4085 0.08863 0.62223 0.0
N2619 N 0.38626 0.07311 0.63325 0.0
N2620 N 0.40891 0.10836 0.61125 0.0
C2621 C 0.39069 0.10513 0.61636 0.0
C2622 C 0.37591 0.08235 0.62939 0.0
C2623 C 0.9427 0.28194 0.60126 0.0
C2624 C 0.94558 0.29727 0.61517 0.0
C2625 C 0.92803 0.27528 0.58581 0.0
C2626 C 0.91552 0.28351 0.58386 0.0
H2627 H 0.95181 0.27502 0.6023 0.0
H2628 H 0.92643 0.26355 0.57534 0.0
S2629 S 0.91774 0.32482 0.6156 0.0
N2630 N 0.93519 0.3211 0.62539 0.0
N2631 N 0.90774 0.30851 0.59644 0.0
C2632 C 0.91857 0.29914 0.59738 0.0
C2633 C 0.9335 0.30597 0.61304 0.0
C2634 C 0.3728 0.30185 0.62279 0.0
C2635 C 0.35222 0.29474 0.61951 0.0
C2636 C 0.38489 0.30141 0.60714 0.0
C2637 C 0.37701 0.29437 0.58745 0.0
H2638 H 0.37962 0.30776 0.63758 0.0
H2639 H 0.40064 0.30699 0.61039 0.0
S2640 S 0.32395 0.27392 0.57103 0.0
N2641 N 0.32433 0.27992 0.59527 0.0
N2642 N 0.34718 0.27978 0.56572 0.0
C2643 C 0.35638 0.28699 0.58406 0.0
C2644 C 0.34398 0.28703 0.6001 0.0
C2645 C 0.69975 0.0782 0.60936 0.0
C2646 C 0.70503 0.06332 0.60716 0.0
C2647 C 0.69924 0.08886 0.5927 0.0
C2648 C 0.70383 0.08495 0.57311 0.0
H2649 H 0.69554 0.08137 0.62404 0.0
H2650 H 0.69465 0.09985 0.59505 0.0
S2651 S 0.71947 0.04818 0.55926 0.0
N2652 N 0.71585 0.04588 0.58397 0.0
N2653 N 0.71455 0.0657 0.55255 0.0
C2654 C 0.70972 0.07055 0.57076 0.0
C2655 C 0.71046 0.05983 0.58781 0.0
C2656 C 0.92498 0.63067 0.61891 0.0
C2657 C 0.93892 0.65135 0.61703 0.0
C2658 C 0.91351 0.61882 0.60222 0.0
C2659 C 0.9159 0.62708 0.58288 0.0
H2660 H 0.923 0.62355 0.63339 0.0
H2661 H 0.90301 0.60295 0.60437 0.0
S2662 S 0.95015 0.68057 0.57 0.0
N2663 N 0.95398 0.67977 0.5945 0.0
N2664 N 0.93297 0.65737 0.56297 0.0
C2665 C 0.92953 0.64783 0.58089 0.0
C2666 C 0.9409 0.65999 0.59799 0.0
C2667 C 0.96829 0.71672 0.72344 0.0
C2668 C 0.96019 0.69575 0.72283 0.0
C2669 C 0.96555 0.72638 0.74029 0.0
C2670 C 0.95501 0.71553 0.75741 0.0
H2671 H 0.97702 0.72579 0.71088 0.0
H2672 H 0.97219 0.74257 0.74013 0.0
S2673 S 0.9299 0.66018 0.76297 0.0
N2674 N 0.9402 0.66427 0.74033 0.0
N2675 N 0.93553 0.6825 0.77223 0.0
C2676 C 0.94628 0.69447 0.75672 0.0
C2677 C 0.94877 0.68457 0.73939 0.0
C2678 C 0.31481 0.27426 0.74012 0.0
C2679 C 0.3041 0.27213 0.7221 0.0
C2680 C 0.30496 0.2631 0.75724 0.0
C2681 C 0.2841 0.24916 0.75686 0.0
H2682 H 0.33075 0.28527 0.74134 0.0
H2683 H 0.31365 0.26583 0.77105 0.0
S2684 S 0.24969 0.23627 0.71257 0.0
N2685 N 0.27183 0.25395 0.70436 0.0
N2686 N 0.25341 0.23268 0.73639 0.0
C2687 C 0.27345 0.24612 0.73857 0.0
C2688 C 0.28342 0.25766 0.72124 0.0
C2689 C 0.76386 0.05711 0.70509 0.0
C2690 C 0.74288 0.04463 0.7064 0.0
C2691 C 0.77671 0.05663 0.71986 0.0
C2692 C 0.76893 0.04415 0.73682 0.0
H2693 H 0.77036 0.06699 0.69237 0.0
H2694 H 0.7928 0.06606 0.71788 0.0
S2695 S 0.71482 0.00962 0.74759 0.0
N2696 N 0.71479 0.01986 0.72588 0.0
N2697 N 0.73874 0.01959 0.75415 0.0
C2698 C 0.74787 0.03201 0.7384 0.0
C2699 C 0.7349 0.03211 0.7231 0.0
C2700 C 0.07661 0.33094 0.0094 0.0
C2701 C 0.05167 0.31627 0.01992 0.0
C2702 C 0.09532 0.32391 0.01328 0.0
C2703 C 0.08818 0.30412 0.0327 0.0
H2704 H 0.08039 0.34409 0.00069 0.0
H2705 H 0.11073 0.33355 0.00862 0.0
S2706 S 0.03074 0.26576 0.05511 0.0
N2707 N 0.02646 0.28216 0.0428 0.0
N2708 N 0.05432 0.27029 0.0517 0.0
C2709 C 0.06145 0.2856 0.0388 0.0
C2710 C 0.04426 0.29376 0.03384 0.0
C2711 C 0.65963 0.71032 0.07555 0.0
C2712 C 0.67267 0.70251 0.05808 0.0
C2713 C 0.67359 0.73286 0.09128 0.0
C2714 C 0.70084 0.74877 0.08474 0.0
H2715 H 0.64338 0.70171 0.07631 0.0
H2716 H 0.66595 0.7386 0.1005 0.0
S2717 S 0.73429 0.73178 0.04877 0.0
N2718 N 0.71099 0.71196 0.04403 0.0
N2719 N 0.73436 0.74796 0.06638 0.0
C2720 C 0.71487 0.73827 0.07157 0.0
C2721 C 0.69983 0.71593 0.05681 0.0
C2722 C 0.26854 0.96406 0.02328 0.0
C2723 C 0.27673 0.95183 0.0186 0.0
C2724 C 0.24976 0.95621 0.03251 0.0
C2725 C 0.23843 0.93583 0.03765 0.0
H2726 H 0.27672 0.97994 0.01991 0.0
H2727 H 0.24414 0.96624 0.03581 0.0
S2728 S 0.25243 0.89707 0.0279 0.0
N2729 N 0.27157 0.91801 0.01923 0.0
N2730 N 0.23626 0.9033 0.03661 0.0
C2731 C 0.24616 0.92328 0.03266 0.0
C2732 C 0.26529 0.93126 0.02317 0.0
C2733 C 0.33412 0.06204 0.96516 0.0
C2734 C 0.33048 0.05477 0.98496 0.0
C2735 C 0.32969 0.07667 0.95932 0.0
C2736 C 0.32069 0.08405 0.97289 0.0
H2737 H 0.34057 0.05644 0.9541 0.0
H2738 H 0.33318 0.08198 0.94396 0.0
S2739 S 0.30801 0.0695 0.02653 0.0
N2740 N 0.31789 0.05611 0.01831 0.0
N2741 N 0.30851 0.08293 0.00714 0.0
C2742 C 0.31706 0.07686 0.99281 0.0
C2743 C 0.32216 0.06237 -0.00111 0.0
C2744 C 0.96816 0.27956 0.95922 0.0
C2745 C 0.95192 0.28359 0.97616 0.0
C2746 C 0.95771 0.26232 0.93765 0.0
C2747 C 0.92963 0.24656 0.93716 0.0
H2748 H 0.98428 0.28778 0.96177 0.0
H2749 H 0.967 0.25865 0.92837 0.0
S2750 S 0.88992 0.25729 0.97064 0.0
N2751 N 0.91176 0.2737 0.98262 0.0
N2752 N 0.89328 0.24542 0.95059 0.0
C2753 C 0.91342 0.25438 0.95069 0.0
C2754 C 0.92516 0.27163 0.97145 0.0
C2755 C 0.73119 0.7115 0.97006 0.0
C2756 C 0.7184 0.68426 0.97152 0.0
C2757 C 0.75259 0.72496 0.95363 0.0
C2758 C 0.76238 0.70927 0.94236 0.0
H2759 H 0.7259 0.7198 0.97891 0.0
H2760 H 0.76132 0.74124 0.95386 0.0
S2761 S 0.73224 0.64641 0.93903 0.0
N2762 N 0.71714 0.6495 0.95538 0.0
N2763 N 0.75094 0.66845 0.93028 0.0
C2764 C 0.74641 0.68138 0.93922 0.0
C2765 C 0.72561 0.66961 0.95583 0.0
C2766 C 0.95882 0.6898 0.99434 0.0
C2767 C 0.95743 0.67252 0.98529 0.0
C2768 C 0.95686 0.70367 0.98269 0.0
C2769 C 0.95381 0.70092 0.96154 0.0
H2770 H 0.96166 0.6927 0.0105 0.0
H2771 H 0.95804 0.71684 0.99023 0.0
S2772 S 0.95141 0.65895 0.93056 0.0
N2773 N 0.95389 0.65373 0.95414 0.0
N2774 N 0.95111 0.68016 0.93194 0.0
C2775 C 0.95297 0.68385 0.95231 0.0
C2776 C 0.95447 0.66952 0.96428 0.0
C2777 C 0.30307 0.2809 0.96763 0.0
C2778 C 0.32283 0.28991 0.97554 0.0
C2779 C 0.29072 0.25995 0.96582 0.0
C2780 C 0.29766 0.24714 0.97171 0.0
H2781 H 0.29671 0.29003 0.96361 0.0
H2782 H 0.27534 0.2537 0.96054 0.0
S2783 S 0.34868 0.26299 0.99162 0.0
N2784 N 0.34921 0.28432 0.98795 0.0
N2785 N 0.32591 0.2449 0.98458 0.0
C2786 C 0.31768 0.25592 0.97867 0.0
C2787 C 0.33031 0.27729 0.9805 0.0
C2788 C 0.73967 0.06575 0.98536 0.0
C2789 C 0.72407 0.04551 0.98353 0.0
C2790 C 0.75934 0.0717 0.97944 0.0
C2791 C 0.76413 0.05772 0.9712 0.0
H2792 H 0.7369 0.07695 0.99224 0.0
H2793 H 0.77103 0.08728 0.9819 0.0
S2794 S 0.7284 0.0033 0.9613 0.0
N2795 N 0.71449 0.01172 0.97149 0.0
N2796 N 0.75142 0.02302 0.96028 0.0
C2797 C 0.7485 0.03763 0.96838 0.0
C2798 C 0.7285 0.03152 0.97453 0.0
C2799 C 0.67383 0.93733 0.02912 0.0
C2800 C 0.68542 0.95843 0.0312 0.0
C2801 C 0.68229 0.92534 0.0327 0.0
C2802 C 0.70264 0.93397 0.03854 0.0
H2803 H 0.65815 0.92999 0.02447 0.0
H2804 H 0.67289 0.90917 0.03056 0.0
S2805 S 0.7397 0.98852 0.04554 0.0
N2806 N 0.7185 0.98748 0.03928 0.0
N2807 N 0.73429 0.96492 0.04577 0.0
C2808 C 0.7144 0.95504 0.04068 0.0
C2809 C 0.70581 0.96725 0.03713 0.0
C2810 C 0.02969 0.73304 0.05141 0.0
C2811 C 0.03929 0.72317 0.04318 0.0
C2812 C 0.03948 0.75407 0.05271 0.0
C2813 C 0.0594 0.76614 0.04611 0.0
H2814 H 0.01415 0.72451 0.05615 0.0
H2815 H 0.03114 0.76094 0.05829 0.0
S2816 S 0.0918 0.74795 0.02459 0.0
N2817 N 0.07029 0.72719 0.02925 0.0
N2818 N 0.0887 0.76677 0.03181 0.0
C2819 C 0.06947 0.75652 0.0386 0.0
C2820 C 0.05947 0.73505 0.0372 0.0
C2821 C 0.27661 0.34175 0.0331 0.0
C2822 C 0.29126 0.33619 0.03468 0.0
C2823 C 0.25609 0.32742 0.03484 0.0
C2824 C 0.24951 0.30712 0.03858 0.0
H2825 H 0.2809 0.35698 0.02925 0.0
H2826 H 0.24525 0.33215 0.03252 0.0
S2827 S 0.28213 0.28555 0.04683 0.0
N2828 N 0.29799 0.30946 0.04203 0.0
N2829 N 0.25944 0.28268 0.04593 0.0
C2830 C 0.26412 0.30169 0.04161 0.0
C2831 C 0.28498 0.3162 0.03951 0.0
C2832 C 0.72048 0.66749 0.39473 0.0
C2833 C 0.69669 0.65041 0.38199 0.0
C2834 C 0.73241 0.65781 0.41096 0.0
C2835 C 0.72059 0.62973 0.40959 0.0
H2836 H 0.7275 0.68355 0.39283 0.0
H2837 H 0.74722 0.66759 0.41752 0.0
S2838 S 0.66395 0.58818 0.3857 0.0
N2839 N 0.66605 0.60964 0.37731 0.0
N2840 N 0.68356 0.59246 0.40062 0.0
C2841 C 0.69402 0.61268 0.40145 0.0
C2842 C 0.68357 0.62363 0.38596 0.0
C2843 C 0.3709 0.05382 0.38773 0.0
C2844 C 0.34367 0.04076 0.39182 0.0
C2845 C 0.38793 0.07841 0.40179 0.0
C2846 C 0.37393 0.08912 0.41524 0.0
H2847 H 0.37475 0.04448 0.37629 0.0
H2848 H 0.38219 0.066 0.39312 0.0
S2849 S 0.31299 0.05909 0.43013 0.0
N2850 N 0.31286 0.04186 0.41386 0.0
N2851 N 0.33635 0.07892 0.43449 0.0
C2852 C 0.34737 0.07328 0.42352 0.0
C2853 C 0.33254 0.05019 0.40981 0.0
C2854 C 0.94409 0.26939 0.36665 0.0
C2855 C 0.95647 0.29025 0.36401 0.0
C2856 C 0.92393 0.26089 0.37218 0.0
C2857 C 0.91536 0.27294 0.37584 0.0
H2858 H 0.94983 0.25936 0.36395 0.0
H2859 H 0.91497 0.24468 0.37342 0.0
S2860 S 0.9411 0.32835 0.37083 0.0
N2861 N 0.95856 0.32279 0.36521 0.0
N2862 N 0.92065 0.30674 0.37598 0.0
C2863 C 0.92753 0.29382 0.37327 0.0
C2864 C 0.94807 0.30249 0.36737 0.0
C2865 C 0.99478 0.38393 0.3073 0.0
C2866 C 0.01407 0.38679 0.31054 0.0
C2867 C 0.99229 0.39983 0.3014 0.0
C2868 C 0.00898 0.41914 0.29819 0.0
H2869 H 0.98146 0.3694 0.30977 0.0
H2870 H 0.97712 0.39699 0.29948 0.0
S2871 S 0.06275 0.43422 0.30348 0.0
N2872 N 0.05022 0.41024 0.30949 0.0
N2873 N 0.04551 0.44003 0.29801 0.0
C2874 C 0.02838 0.42209 0.30097 0.0
C2875 C 0.03093 0.40595 0.30722 0.0
C2876 C 0.64071 0.61047 0.2994 0.0
C2877 C 0.6251 0.62182 0.29892 0.0
C2878 C 0.63458 0.58874 0.28329 0.0
C2879 C 0.60949 0.5772 0.27019 0.0
H2880 H 0.65365 0.61658 0.30948 0.0
H2881 H 0.64264 0.58077 0.28471 0.0
S2882 S 0.57446 0.60361 0.26275 0.0
N2883 N 0.59146 0.62001 0.27989 0.0
N2884 N 0.5795 0.5857 0.25505 0.0
C2885 C 0.5968 0.5917 0.26518 0.0
C2886 C 0.60402 0.61289 0.28155 0.0
C2887 C 0.3781 0.96871 0.3174 0.0
C2888 C 0.37893 0.98672 0.32331 0.0
C2889 C 0.39534 0.96866 0.31091 0.0
C2890 C 0.41419 0.98659 0.31042 0.0
H2891 H 0.36401 0.95447 0.31778 0.0
H2892 H 0.39397 0.95443 0.3065 0.0
S2893 S 0.4244 0.03786 0.32403 0.0
N2894 N 0.40003 0.02304 0.32779 0.0
N2895 N 0.43255 0.02293 0.31599 0.0
C2896 C 0.41518 0.00476 0.31603 0.0
C2897 C 0.39754 0.00483 0.32238 0.0
C2898 C 0.59628 0.97661 0.31044 0.0
C2899 C 0.61713 0.98493 0.30812 0.0
C2900 C 0.58743 0.98838 0.30808 0.0
C2901 C 0.59902 0.00878 0.30293 0.0
H2902 H 0.58693 0.96127 0.31536 0.0
H2903 H 0.5715 0.98164 0.31102 0.0
S2904 S 0.6537 0.03673 0.29204 0.0
N2905 N 0.64882 0.01414 0.29846 0.0
N2906 N 0.63202 0.03607 0.29325 0.0
C2907 C 0.61962 0.01682 0.29907 0.0
C2908 C 0.6287 0.00494 0.30185 0.0
C2909 C -0.00156 0.62121 0.31623 0.0
C2910 C 0.00068 0.63783 0.30568 0.0
C2911 C 0.98938 0.60203 0.30692 0.0
C2912 C 0.98261 0.5989 0.28662 0.0
H2913 H 0.00301 0.62287 0.33201 0.0
H2914 H 0.98744 0.58953 0.31577 0.0
S2915 S 0.98714 0.63815 0.25185 0.0
N2916 N 0.99658 0.65033 0.27365 0.0
N2917 N 0.98032 0.61449 0.25583 0.0
C2918 C 0.98563 0.61567 0.27568 0.0
C2919 C 0.99446 0.63507 0.28529 0.0
C2920 C 0.37917 0.37974 0.28962 0.0
C2921 C 0.37568 0.37149 0.30898 0.0
C2922 C 0.39575 0.38267 0.27829 0.0
C2923 C 0.40988 0.37806 0.28619 0.0
H2924 H 0.36866 0.38337 0.28288 0.0
H2925 H 0.39735 0.38849 0.2632 0.0
S2926 S 0.40771 0.35656 0.33654 0.0
N2927 N 0.38755 0.35875 0.3357 0.0
N2928 N 0.4192 0.36499 0.31473 0.0
C2929 C 0.40663 0.37004 0.3057 0.0
C2930 C 0.38948 0.36664 0.31704 0.0
C2931 C 0.36324 0.3052 0.38042 0.0
C2932 C 0.34326 0.29516 0.37299 0.0
C2933 C 0.37393 0.29513 0.38233 0.0
C2934 C 0.36505 0.2746 0.37698 0.0
H2935 H 0.37105 0.32119 0.38402 0.0
H2936 H 0.38953 0.30369 0.38727 0.0
S2937 S 0.31267 0.24095 0.35831 0.0
N2938 N 0.3146 0.26312 0.36153 0.0
N2939 N 0.33477 0.24428 0.36503 0.0
C2940 C 0.34481 0.26415 0.37043 0.0
C2941 C 0.33388 0.27438 0.36853 0.0
C2942 C 0.68975 0.0511 0.37232 0.0
C2943 C 0.70056 0.04215 0.36497 0.0
C2944 C 0.6986 0.07207 0.37367 0.0
C2945 C 0.71862 0.08495 0.36775 0.0
H2946 H 0.67406 0.04188 0.37634 0.0
H2947 H 0.68945 0.07826 0.37862 0.0
S2948 S 0.75405 0.06929 0.3492 0.0
N2949 N 0.73289 0.04792 0.35311 0.0
N2950 N 0.74942 0.08732 0.35549 0.0
C2951 C 0.72991 0.07625 0.36131 0.0
C2952 C 0.72093 0.05487 0.36002 0.0
C2953 C 0.93902 0.67495 0.36859 0.0
C2954 C 0.95401 0.67003 0.37148 0.0
C2955 C 0.91857 0.66005 0.36884 0.0
C2956 C 0.91236 0.6398 0.3724 0.0
H2957 H 0.94311 0.69017 0.36497 0.0
H2958 H 0.90753 0.66434 0.3656 0.0
S2959 S 0.94581 0.61979 0.38373 0.0
N2960 N 0.96138 0.64395 0.37972 0.0
N2961 N 0.9229 0.61608 0.38104 0.0
C2962 C 0.92723 0.63498 0.37668 0.0
C2963 C 0.94805 0.65007 0.376 0.0
C2964 C 0.40898 0.03588 0.70157 0.0
C2965 C 0.39054 0.01802 0.69762 0.0
C2966 C 0.4266 0.03551 0.70539 0.0
C2967 C 0.42656 0.01727 0.70517 0.0
H2968 H 0.40988 0.05034 0.70159 0.0
H2969 H 0.44048 0.04966 0.70822 0.0
S2970 S 0.38215 0.96624 0.69587 0.0
N2971 N 0.37318 0.98151 0.69411 0.0
N2972 N 0.40642 0.98084 0.70099 0.0
C2973 C 0.40817 -0.00074 0.70152 0.0
C2974 C 0.39014 -0.00038 0.69784 0.0
C2975 C 0.00085 0.38128 0.72042 0.0
C2976 C 0.98181 0.36993 0.70048 0.0
C2977 C 0.0106 0.40727 0.72857 0.0
C2978 C 0.99658 0.41901 0.71788 0.0
H2979 H 0.00646 0.37256 0.72744 0.0
H2980 H 0.02083 0.41387 0.7414 0.0
S2981 S 0.95702 0.39773 0.6683 0.0
N2982 N 0.95929 0.37744 0.6721 0.0
N2983 N 0.97194 0.41728 0.68406 0.0
C2984 C 0.98166 0.40968 0.69396 0.0
C2985 C 0.97306 0.38422 0.68718 0.0
C2986 C 0.61431 0.60365 0.71056 0.0
C2987 C 0.62556 0.62434 0.70656 0.0
C2988 C 0.59475 0.59485 0.71822 0.0
C2989 C 0.58583 0.60646 0.72261 0.0
H2990 H 0.62034 0.594 0.7071 0.0
H2991 H 0.58641 0.57873 0.72032 0.0
S2992 S 0.6091 0.6614 0.71553 0.0
N2993 N 0.62647 0.65633 0.70807 0.0
N2994 N 0.58979 0.63973 0.72255 0.0
C2995 C 0.59705 0.62722 0.71904 0.0
C2996 C 0.6169 0.63618 0.71109 0.0
C2997 C 0.63559 0.69711 0.63622 0.0
C2998 C 0.65545 0.70748 0.64396 0.0
C2999 C 0.62601 0.70743 0.63018 0.0
C3000 C 0.63594 0.72856 0.63145 0.0
H3001 H 0.62719 0.68082 0.63503 0.0
H3002 H 0.61063 0.69876 0.6246 0.0
S3003 S 0.68799 0.76292 0.6507 0.0
N3004 N 0.68474 0.74018 0.65259 0.0
N3005 N 0.66669 0.75956 0.64122 0.0
C3006 C 0.65582 0.73916 0.63913 0.0
C3007 C 0.66559 0.72864 0.64532 0.0
C3008 C 0.27195 0.94666 0.64303 0.0
C3009 C 0.29285 0.96024 0.64314 0.0
C3010 C 0.26389 0.92629 0.638 0.0
C3011 C 0.27636 0.91868 0.63222 0.0
H3012 H 0.26168 0.95159 0.64773 0.0
H3013 H 0.24774 0.91644 0.63901 0.0
S3014 S 0.3321 0.94812 0.62929 0.0
N3015 N 0.32592 0.96477 0.63676 0.0
N3016 N 0.31067 0.92647 0.62658 0.0
C3017 C 0.29728 0.9322 0.63179 0.0
C3018 C 0.30554 0.95295 0.63734 0.0
C3019 C 0.06029 0.33494 0.6488 0.0
C3020 C 0.05044 0.34599 0.65068 0.0
C3021 C 0.08063 0.34428 0.64333 0.0
C3022 C 0.09188 0.365 0.63934 0.0
H3023 H 0.05227 0.31894 0.65157 0.0
H3024 H 0.08762 0.3352 0.64229 0.0
S3025 S 0.07363 0.40099 0.64335 0.0
N3026 N 0.05384 0.37904 0.64889 0.0
N3027 N 0.09196 0.39646 0.63871 0.0
C3028 C 0.08232 0.37628 0.64155 0.0
C3029 C 0.06164 0.36681 0.6471 0.0
C3030 C 0.3034 0.35557 0.64009 0.0
C3031 C 0.28888 0.33548 0.64423 0.0
C3032 C 0.29814 0.37037 0.63876 0.0
C3033 C 0.27824 0.36576 0.64205 0.0
H3034 H 0.31909 0.36002 0.63851 0.0
H3035 H 0.30989 0.38572 0.636 0.0
S3036 S 0.23428 0.31509 0.65167 0.0
N3037 N 0.25349 0.31141 0.64995 0.0
N3038 N 0.24368 0.33935 0.64813 0.0
C3039 C 0.2634 0.34554 0.64519 0.0
C3040 C 0.2687 0.33037 0.64611 0.0
C3041 C 0.66524 0.946 0.64007 0.0
C3042 C 0.65734 0.95848 0.63617 0.0
C3043 C 0.65297 0.92498 0.63918 0.0
C3044 C 0.63238 0.91559 0.6341 0.0
H3045 H 0.68082 0.95247 0.64475 0.0
H3046 H 0.65952 0.916 0.64314 0.0
S3047 S 0.60469 0.94134 0.62054 0.0
N3048 N 0.62786 0.95984 0.6256 0.0
N3049 N 0.60492 0.92033 0.62374 0.0
C3050 C 0.62451 0.92786 0.62914 0.0
C3051 C 0.63696 0.94928 0.63018 0.0
C3052 C 0.04861 0.6968 0.64191 0.0
C3053 C 0.04308 0.7112 0.64641 0.0
C3054 C 0.06876 0.70253 0.63858 0.0
C3055 C 0.08425 0.72286 0.64021 0.0
H3056 H 0.03731 0.68091 0.64126 0.0
H3057 H 0.0723 0.6909 0.63535 0.0
S3058 S 0.0776 0.76657 0.65012 0.0
N3059 N 0.05457 0.74681 0.65082 0.0
N3060 N 0.09248 0.75753 0.64525 0.0
C3061 C 0.07882 0.73747 0.64386 0.0
C3062 C 0.05825 0.73166 0.64683 0.0
C3063 C 0.97473 0.60182 0.70078 0.0
C3064 C 0.98897 0.62239 0.70399 0.0
C3065 C 0.97864 0.58688 0.70689 0.0
C3066 C 0.99687 0.59187 0.71661 0.0
H3067 H 0.96057 0.59714 0.69309 0.0
H3068 H 0.96742 0.57127 0.70364 0.0
S3069 S 0.03907 0.64346 0.72898 0.0
N3070 N 0.02197 0.64696 0.71792 0.0
N3071 N 0.02929 0.61884 0.72931 0.0
C3072 C 0.01114 0.61237 0.72021 0.0
C3073 C 0.00717 0.62761 0.71399 0.0
C3074 C 0.38917 0.39059 0.70025 0.0
C3075 C 0.3685 0.37872 0.70443 0.0
C3076 C 0.39967 0.41149 0.70378 0.0
C3077 C 0.39 0.42133 0.7118 0.0
H3078 H 0.39713 0.38386 0.69333 0.0
H3079 H 0.41534 0.42012 0.69947 0.0
S3080 S 0.33647 0.39703 0.72698 0.0
N3081 N 0.33907 0.37827 0.71841 0.0
N3082 N 0.35881 0.41751 0.7248 0.0
C3083 C 0.36957 0.40955 0.71691 0.0
C3084 C 0.35886 0.38827 0.71336 0.0
C3085 C 0.64205 0.02584 0.72201 0.0
C3086 C 0.64331 0.01775 0.70318 0.0
C3087 C 0.62493 0.01558 0.73404 0.0
C3088 C 0.60816 0.99711 0.72741 0.0
H3089 H 0.65454 0.03999 0.72772 0.0
H3090 H 0.62489 0.02223 0.74865 0.0
S3091 S 0.60399 0.96948 0.67926 0.0
N3092 N 0.62647 0.99003 0.67852 0.0
N3093 N 0.59415 0.971 0.70098 0.0
C3094 C 0.6093 0.98885 0.70863 0.0
C3095 C 0.62684 -0.00087 0.69652 0.0
loop_
_geom_bond_atom_site_label_1
_geom_bond_atom_site_label_2
_geom_bond_distance
_geom_bond_site_symmetry_2
_ccdc_geom_bond_type
C0 O1 1.306 . S
C0 O3 1.160 . S
O1 C0 1.306 . S
O1 Cd2 2.228 1_556 S
Cd2 O1 2.228 1_554 S
Cd2 O6 2.273 . S
Cd2 O10 2.277 1_554 S
O3 C0 1.160 . S
O3 Cd4 2.203 1_656 S
Cd4 O3 2.203 1_454 S
Cd4 O6 2.411 1_455 S
Cd4 O7 2.333 . S
Cd4 O8 2.352 . S
Cd4 O12 2.277 1_554 S
Cd4 O13 2.356 . S
C5 O10 1.209 1_455 S
C5 O12 1.226 . S
O6 Cd2 2.273 . S
O6 Cd4 2.411 1_655 S
O6 C9 1.309 1_655 S
O7 Cd4 2.333 . S
O7 C9 1.247 . S
O8 Cd4 2.352 . S
O8 C11 1.258 . S
C9 O6 1.309 1_455 S
C9 O7 1.247 . S
O10 Cd2 2.277 1_556 S
O10 C5 1.209 1_655 S
C11 O8 1.258 . S
C11 O13 1.282 . S
O12 Cd4 2.277 1_556 S
O12 C5 1.226 . S
O13 Cd4 2.356 . S
O13 C11 1.282 . S
C14 O15 1.306 . S
C14 O17 1.160 . S
O15 C14 1.306 . S
O15 Cd16 2.228 . S
Cd16 O15 2.228 . S
Cd16 O20 2.273 1_554 S
Cd16 O24 2.277 . S
O17 C14 1.160 . S
O17 Cd18 2.203 . S
Cd18 O17 2.203 . S
Cd18 O20 2.411 1_554 S
Cd18 O21 2.333 1_554 S
Cd18 O22 2.352 1_554 S
Cd18 O26 2.277 . S
Cd18 O27 2.356 . S
C19 O24 1.209 . S
C19 O26 1.226 . S
O20 Cd16 2.273 1_556 S
O20 Cd18 2.411 1_556 S
O20 C23 1.320 . S
O21 Cd18 2.333 1_556 S
O21 C23 1.214 . S
O22 Cd18 2.352 1_556 S
O22 C25 1.258 . S
C23 O20 1.320 . S
C23 O21 1.214 . S
O24 Cd16 2.277 . S
O24 C19 1.209 . S
C25 O22 1.258 . S
C25 O27 1.282 1_556 S
O26 Cd18 2.277 . S
O26 C19 1.226 . S
O27 Cd18 2.356 . S
O27 C25 1.282 1_554 S
C28 O29 1.306 . S
C28 O31 1.160 . S
O29 C28 1.306 . S
O29 Cd30 2.228 . S
Cd30 O29 2.228 . S
Cd30 O34 2.273 1_554 S
Cd30 O38 2.277 . S
O31 C28 1.160 . S
O31 Cd32 2.203 1_565 S
Cd32 O31 2.203 1_545 S
Cd32 O34 2.411 1_544 S
Cd32 O35 2.333 1_554 S
Cd32 O36 2.352 1_554 S
Cd32 O40 2.277 . S
Cd32 O41 2.355 1_554 S
C33 O38 1.209 1_545 S
C33 O40 1.226 . S
O34 Cd30 2.273 1_556 S
O34 Cd32 2.411 1_566 S
O34 C37 1.324 . S
O35 Cd32 2.333 1_556 S
O35 C37 1.203 1_545 S
O36 Cd32 2.352 1_556 S
O36 C39 1.258 . S
C37 O34 1.324 . S
C37 O35 1.203 1_565 S
O38 Cd30 2.277 . S
O38 C33 1.209 1_565 S
C39 O36 1.258 . S
C39 O41 1.286 . S
O40 Cd32 2.277 . S
O40 C33 1.226 . S
O41 Cd32 2.355 1_556 S
O41 C39 1.286 . S
C42 O43 1.306 . S
C42 O45 1.160 . S
O43 C42 1.306 . S
O43 Cd44 2.228 1_556 S
Cd44 O43 2.228 1_554 S
Cd44 O48 2.273 . S
Cd44 O52 2.277 1_554 S
O45 C42 1.160 . S
O45 Cd46 2.203 1_656 S
Cd46 O45 2.203 1_454 S
Cd46 O48 2.411 1_455 S
Cd46 O49 2.333 . S
Cd46 O50 2.352 . S
Cd46 O54 2.277 1_554 S
Cd46 O55 2.356 . S
C47 O52 1.209 1_455 S
C47 O54 1.226 . S
O48 Cd44 2.273 . S
O48 Cd46 2.411 1_655 S
O48 C51 1.320 . S
O49 Cd46 2.333 . S
O49 C51 1.214 1_455 S
O50 Cd46 2.352 . S
O50 C53 1.258 . S
C51 O48 1.320 . S
C51 O49 1.214 1_655 S
O52 Cd44 2.277 1_556 S
O52 C47 1.209 1_655 S
C53 O50 1.258 . S
C53 O55 1.282 . S
O54 Cd46 2.277 1_556 S
O54 C47 1.226 . S
O55 Cd46 2.356 . S
O55 C53 1.282 . S
C56 O57 1.306 . S
C56 O59 1.160 . S
O57 C56 1.306 . S
O57 Cd58 2.228 . S
Cd58 O57 2.228 . S
Cd58 O62 2.273 1_554 S
Cd58 O66 2.277 . S
O59 C56 1.160 . S
O59 Cd60 2.226 . S
Cd60 O59 2.226 . S
Cd60 O62 2.395 1_554 S
Cd60 O63 2.307 1_554 S
Cd60 O64 2.327 1_554 S
Cd60 O68 2.303 . S
Cd60 O69 2.344 1_554 S
C61 O66 1.209 . S
C61 O68 1.226 . S
O62 Cd58 2.273 1_556 S
O62 Cd60 2.395 1_556 S
O62 C65 1.320 . S
O63 Cd60 2.307 1_556 S
O63 C65 1.214 . S
O64 Cd60 2.327 1_556 S
O64 C67 1.258 . S
C65 O62 1.320 . S
C65 O63 1.214 . S
O66 Cd58 2.277 . S
O66 C61 1.209 . S
C67 O64 1.258 . S
C67 O69 1.282 . S
O68 Cd60 2.303 . S
O68 C61 1.226 . S
O69 Cd60 2.344 1_556 S
O69 C67 1.282 . S
C70 O71 1.325 . S
C70 O73 1.160 . S
O71 C70 1.325 . S
O71 Cd72 2.217 1_556 S
Cd72 O71 2.217 1_554 S
Cd72 O76 2.273 . S
Cd72 O80 2.277 1_554 S
O73 C70 1.160 . S
O73 Cd74 2.203 1_546 S
Cd74 O73 2.203 1_564 S
Cd74 O76 2.411 1_565 S
Cd74 O77 2.333 . S
Cd74 O78 2.352 . S
Cd74 O82 2.277 1_554 S
Cd74 O83 2.356 . S
C75 O80 1.209 1_565 S
C75 O82 1.226 . S
O76 Cd72 2.273 . S
O76 Cd74 2.411 1_545 S
O76 C79 1.320 . S
O77 Cd74 2.333 . S
O77 C79 1.214 1_565 S
O78 Cd74 2.352 . S
O78 C81 1.258 . S
C79 O76 1.320 . S
C79 O77 1.214 1_545 S
O80 Cd72 2.277 1_556 S
O80 C75 1.209 1_545 S
C81 O78 1.258 . S
C81 O83 1.282 . S
O82 Cd74 2.277 1_556 S
O82 C75 1.226 . S
O83 Cd74 2.356 . S
O83 C81 1.282 . S
C84 O85 1.306 . S
C84 O87 1.160 . S
O85 C84 1.306 . S
O85 Cd86 2.228 . S
Cd86 O85 2.228 . S
Cd86 O90 2.273 . S
Cd86 O94 2.277 . S
O87 C84 1.160 . S
O87 Cd88 2.203 . S
Cd88 O87 2.203 . S
Cd88 O90 2.411 . S
Cd88 O91 2.333 . S
Cd88 O92 2.352 . S
Cd88 O96 2.277 . S
Cd88 O97 2.356 . S
C89 O94 1.209 . S
C89 O96 1.226 . S
O90 Cd86 2.273 . S
O90 Cd88 2.411 . S
O90 C93 1.320 . S
O91 Cd88 2.333 . S
O91 C93 1.214 . S
O92 Cd88 2.352 . S
O92 C95 1.258 . S
C93 O90 1.320 . S
C93 O91 1.214 . S
O94 Cd86 2.277 . S
O94 C89 1.209 . S
C95 O92 1.258 . S
C95 O97 1.282 . S
O96 Cd88 2.277 . S
O96 C89 1.226 . S
O97 Cd88 2.356 . S
O97 C95 1.282 . S
C98 O99 1.306 . S
C98 O101 1.160 . S
O99 C98 1.306 . S
O99 Cd100 2.228 1_545 S
Cd100 O99 2.228 1_565 S
Cd100 O104 2.273 . S
Cd100 O108 2.277 . S
O101 C98 1.160 . S
O101 Cd102 2.203 1_545 S
Cd102 O101 2.203 1_565 S
Cd102 O104 2.411 . S
Cd102 O105 2.333 . S
Cd102 O106 2.350 1_565 S
Cd102 O110 2.277 . S
Cd102 O111 2.356 . S
C103 O108 1.209 . S
C103 O110 1.226 . S
O104 Cd100 2.273 . S
O104 Cd102 2.411 . S
O104 C107 1.320 . S
O105 Cd102 2.333 . S
O105 C107 1.214 . S
O106 Cd102 2.350 1_545 S
O106 C109 1.252 1_545 S
C107 O104 1.320 . S
C107 O105 1.214 . S
O108 Cd100 2.277 . S
O108 C103 1.209 . S
C109 O106 1.252 1_565 S
C109 O111 1.282 . S
O110 Cd102 2.277 . S
O110 C103 1.226 . S
O111 Cd102 2.356 . S
O111 C109 1.282 . S
C112 O113 1.306 . S
C112 O115 1.160 1_655 S
O113 C112 1.306 . S
O113 Cd114 2.228 1_655 S
Cd114 O113 2.228 1_455 S
Cd114 O118 2.273 . S
Cd114 O122 2.277 . S
O115 C112 1.160 1_455 S
O115 Cd116 2.203 . S
Cd116 O115 2.203 . S
Cd116 O118 2.411 . S
Cd116 O119 2.333 . S
Cd116 O120 2.352 . S
Cd116 O124 2.277 . S
Cd116 O125 2.356 . S
C117 O122 1.209 . S
C117 O124 1.226 . S
O118 Cd114 2.273 . S
O118 Cd116 2.411 . S
O118 C121 1.320 . S
O119 Cd116 2.333 . S
O119 C121 1.214 . S
O120 Cd116 2.352 . S
O120 C123 1.258 . S
C121 O118 1.320 . S
C121 O119 1.214 . S
O122 Cd114 2.277 . S
O122 C117 1.209 . S
C123 O120 1.258 . S
C123 O125 1.282 . S
O124 Cd116 2.277 . S
O124 C117 1.226 . S
O125 Cd116 2.356 . S
O125 C123 1.282 . S
C126 O127 1.306 . S
C126 O129 1.160 . S
O127 C126 1.306 . S
O127 Cd128 2.228 . S
Cd128 O127 2.228 . S
Cd128 O132 2.273 . S
Cd128 O136 2.277 . S
O129 C126 1.160 . S
O129 Cd130 2.203 . S
Cd130 O129 2.203 . S
Cd130 O132 2.411 . S
Cd130 O133 2.333 . S
Cd130 O134 2.352 1_565 S
Cd130 O138 2.277 . S
Cd130 O139 2.356 1_565 S
C131 O136 1.209 . S
C131 O138 1.226 . S
O132 Cd128 2.273 . S
O132 Cd130 2.411 . S
O132 C135 1.320 . S
O133 Cd130 2.333 . S
O133 C135 1.214 . S
O134 Cd130 2.352 1_545 S
O134 C137 1.258 . S
C135 O132 1.320 . S
C135 O133 1.214 . S
O136 Cd128 2.277 . S
O136 C131 1.209 . S
C137 O134 1.258 . S
C137 O139 1.282 . S
O138 Cd130 2.277 . S
O138 C131 1.226 . S
O139 Cd130 2.356 1_545 S
O139 C137 1.282 . S
C140 O141 1.306 . S
C140 O143 1.160 . S
O141 C140 1.306 . S
O141 Cd142 2.228 1_655 S
Cd142 O141 2.228 1_455 S
Cd142 O146 2.273 . S
Cd142 O150 2.277 . S
O143 C140 1.160 . S
O143 Cd144 2.203 1_655 S
Cd144 O143 2.203 1_455 S
Cd144 O146 2.411 . S
Cd144 O147 2.333 . S
Cd144 O148 2.352 . S
Cd144 O152 2.277 . S
Cd144 O153 2.356 . S
C145 O150 1.209 . S
C145 O152 1.226 . S
O146 Cd142 2.273 . S
O146 Cd144 2.411 . S
O146 C149 1.320 . S
O147 Cd144 2.333 . S
O147 C149 1.214 . S
O148 Cd144 2.352 . S
O148 C151 1.258 . S
C149 O146 1.320 . S
C149 O147 1.214 . S
O150 Cd142 2.277 . S
O150 C145 1.209 . S
C151 O148 1.258 . S
C151 O153 1.282 . S
O152 Cd144 2.277 . S
O152 C145 1.226 . S
O153 Cd144 2.356 . S
O153 C151 1.282 . S
C154 O155 1.306 . S
C154 O157 1.160 . S
O155 C154 1.306 . S
O155 Cd156 2.228 . S
Cd156 O155 2.228 . S
Cd156 O160 2.273 . S
Cd156 O164 2.277 . S
O157 C154 1.160 . S
O157 Cd158 2.203 . S
Cd158 O157 2.203 . S
Cd158 O160 2.411 . S
Cd158 O161 2.333 . S
Cd158 O162 2.352 . S
Cd158 O166 2.277 . S
Cd158 O167 2.356 . S
C159 O164 1.209 . S
C159 O166 1.226 . S
O160 Cd156 2.273 . S
O160 Cd158 2.411 . S
O160 C163 1.320 . S
O161 Cd158 2.333 . S
O161 C163 1.214 . S
O162 Cd158 2.352 . S
O162 C165 1.258 . S
C163 O160 1.320 . S
C163 O161 1.214 . S
O164 Cd156 2.277 . S
O164 C159 1.209 . S
C165 O162 1.258 . S
C165 O167 1.282 . S
O166 Cd158 2.277 . S
O166 C159 1.226 . S
O167 Cd158 2.356 . S
O167 C165 1.282 . S
C168 O169 1.306 . S
C168 O171 1.160 . S
O169 C168 1.306 . S
O169 Cd170 2.228 1_565 S
Cd170 O169 2.228 1_545 S
Cd170 O174 2.273 . S
Cd170 O178 2.277 . S
O171 C168 1.160 . S
O171 Cd172 2.203 1_565 S
Cd172 O171 2.203 1_545 S
Cd172 O174 2.411 . S
Cd172 O175 2.333 . S
Cd172 O176 2.352 . S
Cd172 O180 2.277 . S
Cd172 O181 2.356 . S
C173 O178 1.209 . S
C173 O180 1.226 . S
O174 Cd170 2.273 . S
O174 Cd172 2.411 . S
O174 C177 1.320 . S
O175 Cd172 2.333 . S
O175 C177 1.214 . S
O176 Cd172 2.352 . S
O176 C179 1.258 . S
C177 O174 1.320 . S
C177 O175 1.214 . S
O178 Cd170 2.277 . S
O178 C173 1.209 . S
C179 O176 1.258 . S
C179 O181 1.282 . S
O180 Cd172 2.277 . S
O180 C173 1.226 . S
O181 Cd172 2.356 . S
O181 C179 1.282 . S
C182 O183 1.306 . S
C182 O185 1.160 1_655 S
O183 C182 1.306 . S
O183 Cd184 2.228 . S
Cd184 O183 2.228 . S
Cd184 O188 2.273 . S
Cd184 O192 2.277 . S
O185 C182 1.160 1_455 S
O185 Cd186 2.203 1_455 S
Cd186 O185 2.203 1_655 S
Cd186 O188 2.411 . S
Cd186 O189 2.333 . S
Cd186 O190 2.352 1_655 S
Cd186 O194 2.277 . S
Cd186 O195 2.356 1_655 S
C187 O192 1.209 . S
C187 O194 1.226 . S
O188 Cd184 2.273 . S
O188 Cd186 2.411 . S
O188 C191 1.320 . S
O189 Cd186 2.333 . S
O189 C191 1.214 . S
O190 Cd186 2.352 1_455 S
O190 C193 1.258 . S
C191 O188 1.320 . S
C191 O189 1.214 . S
O192 Cd184 2.277 . S
O192 C187 1.209 . S
C193 O190 1.258 . S
C193 O195 1.282 . S
O194 Cd186 2.277 . S
O194 C187 1.226 . S
O195 Cd186 2.356 1_455 S
O195 C193 1.282 . S
C196 O197 1.306 . S
C196 O199 1.160 . S
O197 C196 1.306 . S
O197 Cd198 2.228 . S
Cd198 O197 2.228 . S
Cd198 O202 2.273 . S
Cd198 O206 2.277 . S
O199 C196 1.160 . S
O199 Cd200 2.203 . S
Cd200 O199 2.203 . S
Cd200 O202 2.411 . S
Cd200 O203 2.333 . S
Cd200 O204 2.352 . S
Cd200 O208 2.277 . S
Cd200 O209 2.356 . S
C201 O206 1.209 . S
C201 O208 1.226 . S
O202 Cd198 2.273 . S
O202 Cd200 2.411 . S
O202 C205 1.320 . S
O203 Cd200 2.333 . S
O203 C205 1.214 . S
O204 Cd200 2.352 . S
O204 C207 1.258 . S
C205 O202 1.320 . S
C205 O203 1.214 . S
O206 Cd198 2.277 . S
O206 C201 1.209 . S
C207 O204 1.258 . S
C207 O209 1.282 . S
O208 Cd200 2.277 . S
O208 C201 1.226 . S
O209 Cd200 2.356 . S
O209 C207 1.282 . S
C210 O211 1.306 . S
C210 O213 1.160 . S
O211 C210 1.306 . S
O211 Cd212 2.228 . S
Cd212 O211 2.228 . S
Cd212 O216 2.273 . S
Cd212 O220 2.277 . S
O213 C210 1.160 . S
O213 Cd214 2.203 . S
Cd214 O213 2.203 . S
Cd214 O216 2.411 . S
Cd214 O217 2.333 . S
Cd214 O218 2.352 . S
Cd214 O222 2.277 . S
Cd214 O223 2.356 . S
C215 O220 1.209 . S
C215 O222 1.226 . S
O216 Cd212 2.273 . S
O216 Cd214 2.411 . S
O216 C219 1.320 . S
O217 Cd214 2.333 . S
O217 C219 1.214 . S
O218 Cd214 2.352 . S
O218 C221 1.258 . S
C219 O216 1.320 . S
C219 O217 1.214 . S
O220 Cd212 2.277 . S
O220 C215 1.209 . S
C221 O218 1.258 . S
C221 O223 1.282 . S
O222 Cd214 2.277 . S
O222 C215 1.226 . S
O223 Cd214 2.356 . S
O223 C221 1.282 . S
C224 O225 1.306 . S
C224 O227 1.160 . S
O225 C224 1.306 . S
O225 Cd226 2.228 . S
Cd226 O225 2.228 . S
Cd226 O230 2.273 . S
Cd226 O234 2.277 . S
O227 C224 1.160 . S
O227 Cd228 2.203 . S
Cd228 O227 2.203 . S
Cd228 O230 2.411 . S
Cd228 O231 2.333 . S
Cd228 O232 2.352 1_545 S
Cd228 O236 2.277 . S
Cd228 O237 2.356 1_545 S
C229 O234 1.209 . S
C229 O236 1.226 . S
O230 Cd226 2.273 . S
O230 Cd228 2.411 . S
O230 C233 1.320 . S
O231 Cd228 2.333 . S
O231 C233 1.214 . S
O232 Cd228 2.352 1_565 S
O232 C235 1.258 . S
C233 O230 1.320 . S
C233 O231 1.214 . S
O234 Cd226 2.277 . S
O234 C229 1.209 . S
C235 O232 1.258 . S
C235 O237 1.282 . S
O236 Cd228 2.277 . S
O236 C229 1.226 . S
O237 Cd228 2.356 1_565 S
O237 C235 1.282 . S
C238 O239 1.306 . S
C238 O241 1.160 . S
O239 C238 1.306 . S
O239 Cd240 2.228 1_455 S
Cd240 O239 2.228 1_655 S
Cd240 O244 2.273 . S
Cd240 O248 2.277 . S
O241 C238 1.160 . S
O241 Cd242 2.203 1_455 S
Cd242 O241 2.203 1_655 S
Cd242 O244 2.411 . S
Cd242 O245 2.333 . S
Cd242 O246 2.391 . S
Cd242 O250 2.277 . S
Cd242 O251 2.356 . S
C243 O248 1.209 . S
C243 O250 1.226 . S
O244 Cd240 2.273 . S
O244 Cd242 2.411 . S
O244 C247 1.320 . S
O245 Cd242 2.333 . S
O245 C247 1.214 . S
O246 Cd242 2.391 . S
O246 C249 1.262 . S
C247 O244 1.320 . S
C247 O245 1.214 . S
O248 Cd240 2.277 . S
O248 C243 1.209 . S
C249 O246 1.262 . S
C249 O251 1.282 . S
O250 Cd242 2.277 . S
O250 C243 1.226 . S
O251 Cd242 2.356 . S
O251 C249 1.282 . S
C252 C253 1.560 . S
C252 H313 0.959 . S
C252 H314 0.959 . S
C252 H315 0.960 . S
C253 C252 1.560 . S
C253 O308 1.426 . S
C253 H312 0.980 . S
C254 C255 1.407 . S
C254 C259 1.418 . S
C254 O308 1.334 . S
C255 C254 1.407 . S
C255 C256 1.360 . S
C255 H316 0.929 . S
C256 C255 1.360 . S
C256 C257 1.401 . S
C256 C260 1.527 . S
C257 C256 1.401 . S
C257 C258 1.405 . S
C257 C290 1.587 . S
C258 C257 1.405 . S
C258 C259 1.332 . S
C258 C261 1.496 . S
C259 C254 1.418 . S
C259 C258 1.332 . S
C259 H317 0.929 . S
C260 C256 1.527 . S
C260 H318 0.959 . S
C260 H319 0.961 . S
C260 H320 0.961 . S
C261 C258 1.496 . S
C261 H321 0.960 . S
C261 H322 0.960 . S
C261 H323 0.961 . S
C262 C263 1.517 . S
C262 H325 0.961 . S
C262 H326 0.960 . S
C262 H327 0.959 . S
C263 C262 1.517 . S
C263 O311 1.468 . S
C263 H324 0.980 . S
C264 C265 1.349 . S
C264 C269 1.367 . S
C264 O311 1.408 . S
C265 C264 1.349 . S
C265 C266 1.407 . S
C265 H328 0.930 . S
C266 C265 1.407 . S
C266 C267 1.449 . S
C266 C270 1.535 . S
C267 C266 1.449 . S
C267 C268 1.384 . S
C267 C292 1.553 . S
C268 C267 1.384 . S
C268 C269 1.364 . S
C268 C271 1.450 . S
C269 C264 1.367 . S
C269 C268 1.364 . S
C269 H329 0.931 . S
C270 C266 1.535 . S
C270 H330 0.959 . S
C270 H331 0.961 . S
C270 H332 0.959 . S
C271 C268 1.450 . S
C271 H333 0.960 . S
C271 H334 0.960 . S
C271 H335 0.960 . S
C272 C273 1.309 . S
C272 C277 1.304 . S
C272 O310 1.435 . S
C273 C272 1.309 . S
C273 C274 1.476 . S
C273 H337 0.930 . S
C274 C273 1.476 . S
C274 C275 1.400 . S
C274 C278 1.567 . S
C275 C274 1.400 . S
C275 C276 1.373 . S
C275 C297 1.432 . S
C276 C275 1.373 . S
C276 C277 1.339 . S
C276 C279 1.530 . S
C277 C272 1.304 . S
C277 C276 1.339 . S
C277 H338 0.930 . S
C278 C274 1.567 . S
C278 H339 0.961 . S
C278 H340 0.960 . S
C278 H341 0.958 . S
C279 C276 1.530 . S
C279 H342 0.961 . S
C279 H343 0.960 . S
C279 H344 0.960 . S
C280 C281 1.530 . S
C280 H346 0.961 . S
C280 H347 0.961 . S
C280 H348 0.959 . S
C281 C280 1.530 . S
C281 O309 1.412 . S
C281 H345 0.980 . S
C282 C283 1.288 . S
C282 C287 1.377 . S
C282 O309 1.393 . S
C283 C282 1.288 . S
C283 C284 1.369 . S
C283 H349 0.932 . S
C284 C283 1.369 . S
C284 C285 1.398 . S
C284 C288 1.527 . S
C285 C284 1.398 . S
C285 C286 1.380 . S
C285 C299 1.497 . S
C286 C285 1.380 . S
C286 C287 1.383 . S
C286 C289 1.603 . S
C287 C282 1.377 . S
C287 C286 1.383 . S
C287 H350 0.929 . S
C288 C284 1.527 . S
C288 H351 0.961 . S
C288 H352 0.959 . S
C288 H353 0.959 . S
C289 C286 1.603 . S
C289 H354 0.960 . S
C289 H355 0.962 . S
C289 H356 0.961 . S
C290 C257 1.587 . S
C290 C291 1.360 . S
C290 C303 1.412 . S
C291 C290 1.360 . S
C291 C292 1.365 . S
C291 H357 0.929 . S
C292 C267 1.553 . S
C292 C291 1.365 . S
C292 C293 1.404 . S
C293 C292 1.404 . S
C293 C294 1.395 . S
C293 C304 1.451 . S
C294 C293 1.395 . S
C294 C295 1.322 . S
C294 H358 0.930 . S
C295 C294 1.322 . S
C295 C296 1.459 . S
C295 H359 0.929 . S
C296 C295 1.459 . S
C296 C297 1.445 . S
C296 C305 1.395 . S
C297 C275 1.432 . S
C297 C296 1.445 . S
C297 C298 1.370 . S
C298 C297 1.370 . S
C298 C299 1.438 . S
C298 H360 0.930 . S
C299 C285 1.497 . S
C299 C298 1.438 . S
C299 C300 1.360 . S
C300 C299 1.360 . S
C300 C301 1.401 . S
C300 C305 1.446 . S
C301 C300 1.401 . S
C301 C302 1.347 . S
C301 H361 0.929 . S
C302 C301 1.347 . S
C302 C303 1.455 . S
C302 H362 0.930 . S
C303 C290 1.412 . S
C303 C302 1.455 . S
C303 C304 1.331 . S
C304 C293 1.451 . S
C304 C303 1.331 . S
C304 C305 1.497 . S
C305 C296 1.395 . S
C305 C300 1.446 . S
C305 C304 1.497 . S
C306 C307 1.582 . S
C306 H363 0.962 . S
C306 H364 0.959 . S
C306 H365 0.958 . S
C307 C306 1.582 . S
C307 O310 1.458 . S
C307 H336 0.980 . S
O308 C253 1.426 . S
O308 C254 1.334 . S
O309 C281 1.412 . S
O309 C282 1.393 . S
O310 C272 1.435 . S
O310 C307 1.458 . S
O311 C263 1.468 . S
O311 C264 1.408 . S
H312 C253 0.980 . S
H313 C252 0.959 . S
H314 C252 0.959 . S
H315 C252 0.960 . S
H316 C255 0.929 . S
H317 C259 0.929 . S
H318 C260 0.959 . S
H319 C260 0.961 . S
H320 C260 0.961 . S
H321 C261 0.960 . S
H322 C261 0.960 . S
H323 C261 0.961 . S
H324 C263 0.980 . S
H325 C262 0.961 . S
H326 C262 0.960 . S
H327 C262 0.959 . S
H328 C265 0.930 . S
H329 C269 0.931 . S
H330 C270 0.959 . S
H331 C270 0.961 . S
H332 C270 0.959 . S
H333 C271 0.960 . S
H334 C271 0.960 . S
H335 C271 0.960 . S
H336 C307 0.980 . S
H337 C273 0.930 . S
H338 C277 0.930 . S
H339 C278 0.961 . S
H340 C278 0.960 . S
H341 C278 0.958 . S
H342 C279 0.961 . S
H343 C279 0.960 . S
H344 C279 0.960 . S
H345 C281 0.980 . S
H346 C280 0.961 . S
H347 C280 0.961 . S
H348 C280 0.959 . S
H349 C283 0.932 . S
H350 C287 0.929 . S
H351 C288 0.961 . S
H352 C288 0.959 . S
H353 C288 0.959 . S
H354 C289 0.960 . S
H355 C289 0.962 . S
H356 C289 0.961 . S
H357 C291 0.929 . S
H358 C294 0.930 . S
H359 C295 0.929 . S
H360 C298 0.930 . S
H361 C301 0.929 . S
H362 C302 0.930 . S
H363 C306 0.962 . S
H364 C306 0.959 . S
H365 C306 0.958 . S
C366 C367 1.560 . S
C366 H427 0.959 . S
C366 H428 0.959 . S
C366 H429 0.960 . S
C367 C366 1.560 . S
C367 O422 1.426 . S
C367 H426 0.980 . S
C368 C369 1.407 . S
C368 C373 1.418 . S
C368 O422 1.334 . S
C369 C368 1.407 . S
C369 C370 1.360 . S
C369 H430 0.929 . S
C370 C369 1.360 . S
C370 C371 1.401 . S
C370 C374 1.527 . S
C371 C370 1.401 . S
C371 C372 1.405 . S
C371 C404 1.587 . S
C372 C371 1.405 . S
C372 C373 1.332 . S
C372 C375 1.496 . S
C373 C368 1.418 . S
C373 C372 1.332 . S
C373 H431 0.929 . S
C374 C370 1.527 . S
C374 H432 0.959 . S
C374 H433 0.961 . S
C374 H434 0.961 . S
C375 C372 1.496 . S
C375 H435 0.960 . S
C375 H436 0.960 . S
C375 H437 0.961 . S
C376 C377 1.517 . S
C376 H439 0.961 . S
C376 H440 0.960 . S
C376 H441 0.959 . S
C377 C376 1.517 . S
C377 O425 1.468 . S
C377 H438 0.980 . S
C378 C379 1.349 . S
C378 C383 1.367 . S
C378 O425 1.408 . S
C379 C378 1.349 . S
C379 C380 1.407 . S
C379 H442 0.930 . S
C380 C379 1.407 . S
C380 C381 1.449 . S
C380 C384 1.535 . S
C381 C380 1.449 . S
C381 C382 1.384 . S
C381 C406 1.553 . S
C382 C381 1.384 . S
C382 C383 1.364 . S
C382 C385 1.450 . S
C383 C378 1.367 . S
C383 C382 1.364 . S
C383 H443 0.931 . S
C384 C380 1.535 . S
C384 H444 0.959 . S
C384 H445 0.961 . S
C384 H446 0.959 . S
C385 C382 1.450 . S
C385 H447 0.960 . S
C385 H448 0.960 . S
C385 H449 0.960 . S
C386 C387 1.309 . S
C386 C391 1.304 . S
C386 O424 1.435 . S
C387 C386 1.309 . S
C387 C388 1.476 . S
C387 H451 0.930 . S
C388 C387 1.476 . S
C388 C389 1.400 . S
C388 C392 1.567 . S
C389 C388 1.400 . S
C389 C390 1.373 . S
C389 C411 1.432 . S
C390 C389 1.373 . S
C390 C391 1.339 . S
C390 C393 1.530 . S
C391 C386 1.304 . S
C391 C390 1.339 . S
C391 H452 0.930 . S
C392 C388 1.567 . S
C392 H453 0.961 . S
C392 H454 0.960 . S
C392 H455 0.958 . S
C393 C390 1.530 . S
C393 H456 0.961 . S
C393 H457 0.960 . S
C393 H458 0.960 . S
C394 C395 1.530 . S
C394 H460 0.961 . S
C394 H461 0.961 . S
C394 H462 0.959 . S
C395 C394 1.530 . S
C395 O423 1.412 . S
C395 H459 0.980 . S
C396 C397 1.288 . S
C396 C401 1.377 . S
C396 O423 1.393 . S
C397 C396 1.288 . S
C397 C398 1.369 . S
C397 H463 0.932 . S
C398 C397 1.369 . S
C398 C399 1.398 . S
C398 C402 1.527 . S
C399 C398 1.398 . S
C399 C400 1.380 . S
C399 C413 1.497 . S
C400 C399 1.380 . S
C400 C401 1.383 . S
C400 C403 1.603 . S
C401 C396 1.377 . S
C401 C400 1.383 . S
C401 H464 0.929 . S
C402 C398 1.527 . S
C402 H465 0.961 . S
C402 H466 0.959 . S
C402 H467 0.959 . S
C403 C400 1.603 . S
C403 H468 0.960 . S
C403 H469 0.962 . S
C403 H470 0.961 . S
C404 C371 1.587 . S
C404 C405 1.360 . S
C404 C417 1.412 . S
C405 C404 1.360 . S
C405 C406 1.365 . S
C405 H471 0.929 . S
C406 C381 1.553 . S
C406 C405 1.365 . S
C406 C407 1.404 . S
C407 C406 1.404 . S
C407 C408 1.395 . S
C407 C418 1.451 . S
C408 C407 1.395 . S
C408 C409 1.322 . S
C408 H472 0.930 . S
C409 C408 1.322 . S
C409 C410 1.459 . S
C409 H473 0.929 . S
C410 C409 1.459 . S
C410 C411 1.445 . S
C410 C419 1.395 . S
C411 C389 1.432 . S
C411 C410 1.445 . S
C411 C412 1.370 . S
C412 C411 1.370 . S
C412 C413 1.438 . S
C412 H474 0.930 . S
C413 C399 1.497 . S
C413 C412 1.438 . S
C413 C414 1.360 . S
C414 C413 1.360 . S
C414 C415 1.401 . S
C414 C419 1.446 . S
C415 C414 1.401 . S
C415 C416 1.347 . S
C415 H475 0.929 . S
C416 C415 1.347 . S
C416 C417 1.455 . S
C416 H476 0.930 . S
C417 C404 1.412 . S
C417 C416 1.455 . S
C417 C418 1.331 . S
C418 C407 1.451 . S
C418 C417 1.331 . S
C418 C419 1.497 . S
C419 C410 1.395 . S
C419 C414 1.446 . S
C419 C418 1.497 . S
C420 C421 1.582 . S
C420 H477 0.962 . S
C420 H478 0.959 . S
C420 H479 0.958 . S
C421 C420 1.582 . S
C421 O424 1.458 . S
C421 H450 0.980 . S
O422 C367 1.426 . S
O422 C368 1.334 . S
O423 C395 1.412 . S
O423 C396 1.393 . S
O424 C386 1.435 . S
O424 C421 1.458 . S
O425 C377 1.468 . S
O425 C378 1.408 . S
H426 C367 0.980 . S
H427 C366 0.959 . S
H428 C366 0.959 . S
H429 C366 0.960 . S
H430 C369 0.929 . S
H431 C373 0.929 . S
H432 C374 0.959 . S
H433 C374 0.961 . S
H434 C374 0.961 . S
H435 C375 0.960 . S
H436 C375 0.960 . S
H437 C375 0.961 . S
H438 C377 0.980 . S
H439 C376 0.961 . S
H440 C376 0.960 . S
H441 C376 0.959 . S
H442 C379 0.930 . S
H443 C383 0.931 . S
H444 C384 0.959 . S
H445 C384 0.961 . S
H446 C384 0.959 . S
H447 C385 0.960 . S
H448 C385 0.960 . S
H449 C385 0.960 . S
H450 C421 0.980 . S
H451 C387 0.930 . S
H452 C391 0.930 . S
H453 C392 0.961 . S
H454 C392 0.960 . S
H455 C392 0.958 . S
H456 C393 0.961 . S
H457 C393 0.960 . S
H458 C393 0.960 . S
H459 C395 0.980 . S
H460 C394 0.961 . S
H461 C394 0.961 . S
H462 C394 0.959 . S
H463 C397 0.932 . S
H464 C401 0.929 . S
H465 C402 0.961 . S
H466 C402 0.959 . S
H467 C402 0.959 . S
H468 C403 0.960 . S
H469 C403 0.962 . S
H470 C403 0.961 . S
H471 C405 0.929 . S
H472 C408 0.930 . S
H473 C409 0.929 . S
H474 C412 0.930 . S
H475 C415 0.929 . S
H476 C416 0.930 . S
H477 C420 0.962 . S
H478 C420 0.959 . S
H479 C420 0.958 . S
C480 C481 1.560 . S
C480 H541 0.959 . S
C480 H542 0.959 . S
C480 H543 0.960 . S
C481 C480 1.560 . S
C481 O536 1.426 . S
C481 H540 0.980 . S
C482 C483 1.407 . S
C482 C487 1.418 . S
C482 O536 1.334 . S
C483 C482 1.407 . S
C483 C484 1.360 . S
C483 H544 0.929 . S
C484 C483 1.360 . S
C484 C485 1.401 . S
C484 C488 1.527 . S
C485 C484 1.401 . S
C485 C486 1.405 . S
C485 C518 1.587 . S
C486 C485 1.405 . S
C486 C487 1.332 . S
C486 C489 1.496 . S
C487 C482 1.418 . S
C487 C486 1.332 . S
C487 H545 0.929 . S
C488 C484 1.527 . S
C488 H546 0.959 . S
C488 H547 0.961 . S
C488 H548 0.961 . S
C489 C486 1.496 . S
C489 H549 0.960 . S
C489 H550 0.960 . S
C489 H551 0.961 . S
C490 C491 1.517 . S
C490 H553 0.961 . S
C490 H554 0.960 . S
C490 H555 0.959 . S
C491 C490 1.517 . S
C491 O539 1.468 . S
C491 H552 0.980 . S
C492 C493 1.349 . S
C492 C497 1.367 . S
C492 O539 1.408 . S
C493 C492 1.349 . S
C493 C494 1.407 . S
C493 H556 0.930 . S
C494 C493 1.407 . S
C494 C495 1.449 . S
C494 C498 1.535 . S
C495 C494 1.449 . S
C495 C496 1.384 . S
C495 C520 1.553 . S
C496 C495 1.384 . S
C496 C497 1.364 . S
C496 C499 1.450 . S
C497 C492 1.367 . S
C497 C496 1.364 . S
C497 H557 0.931 . S
C498 C494 1.535 . S
C498 H558 0.959 . S
C498 H559 0.961 . S
C498 H560 0.959 . S
C499 C496 1.450 . S
C499 H561 0.960 . S
C499 H562 0.960 . S
C499 H563 0.960 . S
C500 C501 1.309 . S
C500 C505 1.304 . S
C500 O538 1.435 . S
C501 C500 1.309 . S
C501 C502 1.476 . S
C501 H565 0.930 . S
C502 C501 1.476 . S
C502 C503 1.400 . S
C502 C506 1.567 . S
C503 C502 1.400 . S
C503 C504 1.373 . S
C503 C525 1.432 . S
C504 C503 1.373 . S
C504 C505 1.339 . S
C504 C507 1.530 . S
C505 C500 1.304 . S
C505 C504 1.339 . S
C505 H566 0.930 . S
C506 C502 1.567 . S
C506 H567 0.961 . S
C506 H568 0.960 . S
C506 H569 0.958 . S
C507 C504 1.530 . S
C507 H570 0.961 . S
C507 H571 0.960 . S
C507 H572 0.960 . S
C508 C509 1.530 . S
C508 H574 0.961 . S
C508 H575 0.961 . S
C508 H576 0.959 . S
C509 C508 1.530 . S
C509 O537 1.412 . S
C509 H573 0.980 . S
C510 C511 1.288 . S
C510 C515 1.377 . S
C510 O537 1.393 . S
C511 C510 1.288 . S
C511 C512 1.369 . S
C511 H577 0.932 . S
C512 C511 1.369 . S
C512 C513 1.398 . S
C512 C516 1.527 . S
C513 C512 1.398 . S
C513 C514 1.380 . S
C513 C527 1.497 . S
C514 C513 1.380 . S
C514 C515 1.383 . S
C514 C517 1.603 . S
C515 C510 1.377 . S
C515 C514 1.383 . S
C515 H578 0.929 . S
C516 C512 1.527 . S
C516 H579 0.961 . S
C516 H580 0.959 . S
C516 H581 0.959 . S
C517 C514 1.603 . S
C517 H582 0.960 . S
C517 H583 0.962 . S
C517 H584 0.961 . S
C518 C485 1.587 . S
C518 C519 1.360 . S
C518 C531 1.412 . S
C519 C518 1.360 . S
C519 C520 1.365 . S
C519 H585 0.929 . S
C520 C495 1.553 . S
C520 C519 1.365 . S
C520 C521 1.404 . S
C521 C520 1.404 . S
C521 C522 1.395 . S
C521 C532 1.451 . S
C522 C521 1.395 . S
C522 C523 1.322 . S
C522 H586 0.930 . S
C523 C522 1.322 . S
C523 C524 1.459 . S
C523 H587 0.929 . S
C524 C523 1.459 . S
C524 C525 1.445 . S
C524 C533 1.395 . S
C525 C503 1.432 . S
C525 C524 1.445 . S
C525 C526 1.370 . S
C526 C525 1.370 . S
C526 C527 1.438 . S
C526 H588 0.930 . S
C527 C513 1.497 . S
C527 C526 1.438 . S
C527 C528 1.360 . S
C528 C527 1.360 . S
C528 C529 1.401 . S
C528 C533 1.446 . S
C529 C528 1.401 . S
C529 C530 1.347 . S
C529 H589 0.929 . S
C530 C529 1.347 . S
C530 C531 1.455 . S
C530 H590 0.930 . S
C531 C518 1.412 . S
C531 C530 1.455 . S
C531 C532 1.331 . S
C532 C521 1.451 . S
C532 C531 1.331 . S
C532 C533 1.497 . S
C533 C524 1.395 . S
C533 C528 1.446 . S
C533 C532 1.497 . S
C534 C535 1.582 . S
C534 H591 0.962 . S
C534 H592 0.959 . S
C534 H593 0.958 . S
C535 C534 1.582 . S
C535 O538 1.458 . S
C535 H564 0.980 . S
O536 C481 1.426 . S
O536 C482 1.334 . S
O537 C509 1.412 . S
O537 C510 1.393 . S
O538 C500 1.435 . S
O538 C535 1.458 . S
O539 C491 1.468 . S
O539 C492 1.408 . S
H540 C481 0.980 . S
H541 C480 0.959 . S
H542 C480 0.959 . S
H543 C480 0.960 . S
H544 C483 0.929 . S
H545 C487 0.929 . S
H546 C488 0.959 . S
H547 C488 0.961 . S
H548 C488 0.961 . S
H549 C489 0.960 . S
H550 C489 0.960 . S
H551 C489 0.961 . S
H552 C491 0.980 . S
H553 C490 0.961 . S
H554 C490 0.960 . S
H555 C490 0.959 . S
H556 C493 0.930 . S
H557 C497 0.931 . S
H558 C498 0.959 . S
H559 C498 0.961 . S
H560 C498 0.959 . S
H561 C499 0.960 . S
H562 C499 0.960 . S
H563 C499 0.960 . S
H564 C535 0.980 . S
H565 C501 0.930 . S
H566 C505 0.930 . S
H567 C506 0.961 . S
H568 C506 0.960 . S
H569 C506 0.958 . S
H570 C507 0.961 . S
H571 C507 0.960 . S
H572 C507 0.960 . S
H573 C509 0.980 . S
H574 C508 0.961 . S
H575 C508 0.961 . S
H576 C508 0.959 . S
H577 C511 0.932 . S
H578 C515 0.929 . S
H579 C516 0.961 . S
H580 C516 0.959 . S
H581 C516 0.959 . S
H582 C517 0.960 . S
H583 C517 0.962 . S
H584 C517 0.961 . S
H585 C519 0.929 . S
H586 C522 0.930 . S
H587 C523 0.929 . S
H588 C526 0.930 . S
H589 C529 0.929 . S
H590 C530 0.930 . S
H591 C534 0.962 . S
H592 C534 0.959 . S
H593 C534 0.958 . S
C594 C595 1.560 . S
C594 H655 0.959 . S
C594 H656 0.959 . S
C594 H657 0.960 . S
C595 C594 1.560 . S
C595 O650 1.426 . S
C595 H654 0.980 . S
C596 C597 1.407 . S
C596 C601 1.418 . S
C596 O650 1.334 . S
C597 C596 1.407 . S
C597 C598 1.360 . S
C597 H658 0.929 . S
C598 C597 1.360 . S
C598 C599 1.401 . S
C598 C602 1.527 . S
C599 C598 1.401 . S
C599 C600 1.405 . S
C599 C632 1.587 . S
C600 C599 1.405 . S
C600 C601 1.332 . S
C600 C603 1.496 . S
C601 C596 1.418 . S
C601 C600 1.332 . S
C601 H659 0.929 . S
C602 C598 1.527 . S
C602 H660 0.959 . S
C602 H661 0.961 . S
C602 H662 0.961 . S
C603 C600 1.496 . S
C603 H663 0.960 . S
C603 H664 0.960 . S
C603 H665 0.961 . S
C604 C605 1.517 . S
C604 H667 0.961 . S
C604 H668 0.960 . S
C604 H669 0.959 . S
C605 C604 1.517 . S
C605 O653 1.468 . S
C605 H666 0.980 . S
C606 C607 1.349 . S
C606 C611 1.367 . S
C606 O653 1.408 . S
C607 C606 1.349 . S
C607 C608 1.407 . S
C607 H670 0.930 . S
C608 C607 1.407 . S
C608 C609 1.449 . S
C608 C612 1.535 . S
C609 C608 1.449 . S
C609 C610 1.384 . S
C609 C634 1.553 . S
C610 C609 1.384 . S
C610 C611 1.364 . S
C610 C613 1.450 . S
C611 C606 1.367 . S
C611 C610 1.364 . S
C611 H671 0.931 . S
C612 C608 1.535 . S
C612 H672 0.959 . S
C612 H673 0.961 . S
C612 H674 0.959 . S
C613 C610 1.450 . S
C613 H675 0.960 . S
C613 H676 0.960 . S
C613 H677 0.960 . S
C614 C615 1.309 . S
C614 C619 1.304 . S
C614 O652 1.435 . S
C615 C614 1.309 . S
C615 C616 1.476 . S
C615 H679 0.930 . S
C616 C615 1.476 . S
C616 C617 1.400 . S
C616 C620 1.567 . S
C617 C616 1.400 . S
C617 C618 1.373 . S
C617 C639 1.432 . S
C618 C617 1.373 . S
C618 C619 1.339 . S
C618 C621 1.530 . S
C619 C614 1.304 . S
C619 C618 1.339 . S
C619 H680 0.930 . S
C620 C616 1.567 . S
C620 H681 0.961 . S
C620 H682 0.960 . S
C620 H683 0.958 . S
C621 C618 1.530 . S
C621 H684 0.961 . S
C621 H685 0.960 . S
C621 H686 0.960 . S
C622 C623 1.530 . S
C622 H688 0.961 . S
C622 H689 0.961 . S
C622 H690 0.959 . S
C623 C622 1.530 . S
C623 O651 1.412 . S
C623 H687 0.980 . S
C624 C625 1.288 . S
C624 C629 1.377 . S
C624 O651 1.393 . S
C625 C624 1.288 . S
C625 C626 1.369 . S
C625 H691 0.932 . S
C626 C625 1.369 . S
C626 C627 1.398 . S
C626 C630 1.527 . S
C627 C626 1.398 . S
C627 C628 1.380 . S
C627 C641 1.497 . S
C628 C627 1.380 . S
C628 C629 1.383 . S
C628 C631 1.603 . S
C629 C624 1.377 . S
C629 C628 1.383 . S
C629 H692 0.929 . S
C630 C626 1.527 . S
C630 H693 0.961 . S
C630 H694 0.959 . S
C630 H695 0.959 . S
C631 C628 1.603 . S
C631 H696 0.960 . S
C631 H697 0.962 . S
C631 H698 0.961 . S
C632 C599 1.587 . S
C632 C633 1.360 . S
C632 C645 1.412 . S
C633 C632 1.360 . S
C633 C634 1.365 . S
C633 H699 0.929 . S
C634 C609 1.553 . S
C634 C633 1.365 . S
C634 C635 1.404 . S
C635 C634 1.404 . S
C635 C636 1.395 . S
C635 C646 1.451 . S
C636 C635 1.395 . S
C636 C637 1.322 . S
C636 H700 0.930 . S
C637 C636 1.322 . S
C637 C638 1.459 . S
C637 H701 0.929 . S
C638 C637 1.459 . S
C638 C639 1.445 . S
C638 C647 1.395 . S
C639 C617 1.432 . S
C639 C638 1.445 . S
C639 C640 1.370 . S
C640 C639 1.370 . S
C640 C641 1.438 . S
C640 H702 0.930 . S
C641 C627 1.497 . S
C641 C640 1.438 . S
C641 C642 1.360 . S
C642 C641 1.360 . S
C642 C643 1.401 . S
C642 C647 1.446 . S
C643 C642 1.401 . S
C643 C644 1.347 . S
C643 H703 0.929 . S
C644 C643 1.347 . S
C644 C645 1.455 . S
C644 H704 0.930 . S
C645 C632 1.412 . S
C645 C644 1.455 . S
C645 C646 1.331 . S
C646 C635 1.451 . S
C646 C645 1.331 . S
C646 C647 1.497 . S
C647 C638 1.395 . S
C647 C642 1.446 . S
C647 C646 1.497 . S
C648 C649 1.582 . S
C648 H705 0.962 . S
C648 H706 0.959 . S
C648 H707 0.958 . S
C649 C648 1.582 . S
C649 O652 1.458 . S
C649 H678 0.980 . S
O650 C595 1.426 . S
O650 C596 1.334 . S
O651 C623 1.412 . S
O651 C624 1.393 . S
O652 C614 1.435 . S
O652 C649 1.458 . S
O653 C605 1.468 . S
O653 C606 1.408 . S
H654 C595 0.980 . S
H655 C594 0.959 . S
H656 C594 0.959 . S
H657 C594 0.960 . S
H658 C597 0.929 . S
H659 C601 0.929 . S
H660 C602 0.959 . S
H661 C602 0.961 . S
H662 C602 0.961 . S
H663 C603 0.960 . S
H664 C603 0.960 . S
H665 C603 0.961 . S
H666 C605 0.980 . S
H667 C604 0.961 . S
H668 C604 0.960 . S
H669 C604 0.959 . S
H670 C607 0.930 . S
H671 C611 0.931 . S
H672 C612 0.959 . S
H673 C612 0.961 . S
H674 C612 0.959 . S
H675 C613 0.960 . S
H676 C613 0.960 . S
H677 C613 0.960 . S
H678 C649 0.980 . S
H679 C615 0.930 . S
H680 C619 0.930 . S
H681 C620 0.961 . S
H682 C620 0.960 . S
H683 C620 0.958 . S
H684 C621 0.961 . S
H685 C621 0.960 . S
H686 C621 0.960 . S
H687 C623 0.980 . S
H688 C622 0.961 . S
H689 C622 0.961 . S
H690 C622 0.959 . S
H691 C625 0.932 . S
H692 C629 0.929 . S
H693 C630 0.961 . S
H694 C630 0.959 . S
H695 C630 0.959 . S
H696 C631 0.960 . S
H697 C631 0.962 . S
H698 C631 0.961 . S
H699 C633 0.929 . S
H700 C636 0.930 . S
H701 C637 0.929 . S
H702 C640 0.930 . S
H703 C643 0.929 . S
H704 C644 0.930 . S
H705 C648 0.962 . S
H706 C648 0.959 . S
H707 C648 0.958 . S
C708 C709 1.560 . S
C708 H769 0.959 . S
C708 H770 0.959 . S
C708 H771 0.960 . S
C709 C708 1.560 . S
C709 O764 1.426 . S
C709 H768 0.980 . S
C710 C711 1.407 . S
C710 C715 1.418 . S
C710 O764 1.334 . S
C711 C710 1.407 . S
C711 C712 1.360 . S
C711 H772 0.929 . S
C712 C711 1.360 . S
C712 C713 1.401 . S
C712 C716 1.527 . S
C713 C712 1.401 . S
C713 C714 1.405 . S
C713 C746 1.587 . S
C714 C713 1.405 . S
C714 C715 1.332 . S
C714 C717 1.496 . S
C715 C710 1.418 . S
C715 C714 1.332 . S
C715 H773 0.929 . S
C716 C712 1.527 . S
C716 H774 0.959 . S
C716 H775 0.961 . S
C716 H776 0.961 . S
C717 C714 1.496 . S
C717 H777 0.960 . S
C717 H778 0.960 . S
C717 H779 0.961 . S
C718 C719 1.517 . S
C718 H781 0.961 . S
C718 H782 0.960 . S
C718 H783 0.959 . S
C719 C718 1.517 . S
C719 O767 1.468 . S
C719 H780 0.980 . S
C720 C721 1.349 . S
C720 C725 1.367 . S
C720 O767 1.408 . S
C721 C720 1.349 . S
C721 C722 1.407 . S
C721 H784 0.930 . S
C722 C721 1.407 . S
C722 C723 1.449 . S
C722 C726 1.535 . S
C723 C722 1.449 . S
C723 C724 1.384 . S
C723 C748 1.553 . S
C724 C723 1.384 . S
C724 C725 1.364 . S
C724 C727 1.450 . S
C725 C720 1.367 . S
C725 C724 1.364 . S
C725 H785 0.931 . S
C726 C722 1.535 . S
C726 H786 0.959 . S
C726 H787 0.961 . S
C726 H788 0.959 . S
C727 C724 1.450 . S
C727 H789 0.960 . S
C727 H790 0.960 . S
C727 H791 0.960 . S
C728 C729 1.309 . S
C728 C733 1.304 . S
C728 O766 1.435 . S
C729 C728 1.309 . S
C729 C730 1.476 . S
C729 H793 0.930 . S
C730 C729 1.476 . S
C730 C731 1.400 . S
C730 C734 1.567 . S
C731 C730 1.400 . S
C731 C732 1.373 . S
C731 C753 1.432 . S
C732 C731 1.373 . S
C732 C733 1.339 . S
C732 C735 1.530 . S
C733 C728 1.304 . S
C733 C732 1.339 . S
C733 H794 0.930 . S
C734 C730 1.567 . S
C734 H795 0.961 . S
C734 H796 0.960 . S
C734 H797 0.958 . S
C735 C732 1.530 . S
C735 H798 0.961 . S
C735 H799 0.960 . S
C735 H800 0.960 . S
C736 C737 1.530 . S
C736 H802 0.961 . S
C736 H803 0.961 . S
C736 H804 0.959 . S
C737 C736 1.530 . S
C737 O765 1.412 . S
C737 H801 0.980 . S
C738 C739 1.288 . S
C738 C743 1.377 . S
C738 O765 1.393 . S
C739 C738 1.288 . S
C739 C740 1.369 . S
C739 H805 0.932 . S
C740 C739 1.369 . S
C740 C741 1.398 . S
C740 C744 1.527 . S
C741 C740 1.398 . S
C741 C742 1.380 . S
C741 C755 1.497 . S
C742 C741 1.380 . S
C742 C743 1.383 . S
C742 C745 1.603 . S
C743 C738 1.377 . S
C743 C742 1.383 . S
C743 H806 0.929 . S
C744 C740 1.527 . S
C744 H807 0.961 . S
C744 H808 0.959 . S
C744 H809 0.959 . S
C745 C742 1.603 . S
C745 H810 0.960 . S
C745 H811 0.962 . S
C745 H812 0.961 . S
C746 C713 1.587 . S
C746 C747 1.360 . S
C746 C759 1.412 . S
C747 C746 1.360 . S
C747 C748 1.365 . S
C747 H813 0.929 . S
C748 C723 1.553 . S
C748 C747 1.365 . S
C748 C749 1.404 . S
C749 C748 1.404 . S
C749 C750 1.395 . S
C749 C760 1.451 . S
C750 C749 1.395 . S
C750 C751 1.322 . S
C750 H814 0.930 . S
C751 C750 1.322 . S
C751 C752 1.459 . S
C751 H815 0.929 . S
C752 C751 1.459 . S
C752 C753 1.445 . S
C752 C761 1.395 . S
C753 C731 1.432 . S
C753 C752 1.445 . S
C753 C754 1.370 . S
C754 C753 1.370 . S
C754 C755 1.438 . S
C754 H816 0.930 . S
C755 C741 1.497 . S
C755 C754 1.438 . S
C755 C756 1.360 . S
C756 C755 1.360 . S
C756 C757 1.401 . S
C756 C761 1.446 . S
C757 C756 1.401 . S
C757 C758 1.347 . S
C757 H817 0.929 . S
C758 C757 1.347 . S
C758 C759 1.455 . S
C758 H818 0.930 . S
C759 C746 1.412 . S
C759 C758 1.455 . S
C759 C760 1.331 . S
C760 C749 1.451 . S
C760 C759 1.331 . S
C760 C761 1.497 . S
C761 C752 1.395 . S
C761 C756 1.446 . S
C761 C760 1.497 . S
C762 C763 1.582 . S
C762 H819 0.962 . S
C762 H820 0.959 . S
C762 H821 0.958 . S
C763 C762 1.582 . S
C763 O766 1.458 . S
C763 H792 0.980 . S
O764 C709 1.426 . S
O764 C710 1.334 . S
O765 C737 1.412 . S
O765 C738 1.393 . S
O766 C728 1.435 . S
O766 C763 1.458 . S
O767 C719 1.468 . S
O767 C720 1.408 . S
H768 C709 0.980 . S
H769 C708 0.959 . S
H770 C708 0.959 . S
H771 C708 0.960 . S
H772 C711 0.929 . S
H773 C715 0.929 . S
H774 C716 0.959 . S
H775 C716 0.961 . S
H776 C716 0.961 . S
H777 C717 0.960 . S
H778 C717 0.960 . S
H779 C717 0.961 . S
H780 C719 0.980 . S
H781 C718 0.961 . S
H782 C718 0.960 . S
H783 C718 0.959 . S
H784 C721 0.930 . S
H785 C725 0.931 . S
H786 C726 0.959 . S
H787 C726 0.961 . S
H788 C726 0.959 . S
H789 C727 0.960 . S
H790 C727 0.960 . S
H791 C727 0.960 . S
H792 C763 0.980 . S
H793 C729 0.930 . S
H794 C733 0.930 . S
H795 C734 0.961 . S
H796 C734 0.960 . S
H797 C734 0.958 . S
H798 C735 0.961 . S
H799 C735 0.960 . S
H800 C735 0.960 . S
H801 C737 0.980 . S
H802 C736 0.961 . S
H803 C736 0.961 . S
H804 C736 0.959 . S
H805 C739 0.932 . S
H806 C743 0.929 . S
H807 C744 0.961 . S
H808 C744 0.959 . S
H809 C744 0.959 . S
H810 C745 0.960 . S
H811 C745 0.962 . S
H812 C745 0.961 . S
H813 C747 0.929 . S
H814 C750 0.930 . S
H815 C751 0.929 . S
H816 C754 0.930 . S
H817 C757 0.929 . S
H818 C758 0.930 . S
H819 C762 0.962 . S
H820 C762 0.959 . S
H821 C762 0.958 . S
C822 C823 1.560 . S
C822 H883 0.959 . S
C822 H884 0.959 . S
C822 H885 0.960 . S
C823 C822 1.560 . S
C823 O878 1.426 . S
C823 H882 0.980 . S
C824 C825 1.407 . S
C824 C829 1.418 . S
C824 O878 1.334 . S
C825 C824 1.407 . S
C825 C826 1.360 . S
C825 H886 0.929 . S
C826 C825 1.360 . S
C826 C827 1.401 . S
C826 C830 1.527 . S
C827 C826 1.401 . S
C827 C828 1.405 . S
C827 C860 1.587 . S
C828 C827 1.405 . S
C828 C829 1.332 . S
C828 C831 1.496 . S
C829 C824 1.418 . S
C829 C828 1.332 . S
C829 H887 0.929 . S
C830 C826 1.527 . S
C830 H888 0.959 . S
C830 H889 0.961 . S
C830 H890 0.961 . S
C831 C828 1.496 . S
C831 H891 0.960 . S
C831 H892 0.960 . S
C831 H893 0.961 . S
C832 C833 1.517 . S
C832 H895 0.961 . S
C832 H896 0.960 . S
C832 H897 0.959 . S
C833 C832 1.517 . S
C833 O881 1.468 . S
C833 H894 0.980 . S
C834 C835 1.349 . S
C834 C839 1.367 . S
C834 O881 1.408 . S
C835 C834 1.349 . S
C835 C836 1.407 . S
C835 H898 0.930 . S
C836 C835 1.407 . S
C836 C837 1.449 . S
C836 C840 1.535 . S
C837 C836 1.449 . S
C837 C838 1.384 . S
C837 C862 1.553 . S
C838 C837 1.384 . S
C838 C839 1.364 . S
C838 C841 1.450 . S
C839 C834 1.367 . S
C839 C838 1.364 . S
C839 H899 0.931 . S
C840 C836 1.535 . S
C840 H900 0.959 . S
C840 H901 0.961 . S
C840 H902 0.959 . S
C841 C838 1.450 . S
C841 H903 0.960 . S
C841 H904 0.960 . S
C841 H905 0.960 . S
C842 C843 1.309 . S
C842 C847 1.304 . S
C842 O880 1.435 . S
C843 C842 1.309 . S
C843 C844 1.476 . S
C843 H907 0.930 . S
C844 C843 1.476 . S
C844 C845 1.400 . S
C844 C848 1.567 . S
C845 C844 1.400 . S
C845 C846 1.373 . S
C845 C867 1.432 . S
C846 C845 1.373 . S
C846 C847 1.339 . S
C846 C849 1.530 . S
C847 C842 1.304 . S
C847 C846 1.339 . S
C847 H908 0.930 . S
C848 C844 1.567 . S
C848 H909 0.961 . S
C848 H910 0.960 . S
C848 H911 0.958 . S
C849 C846 1.530 . S
C849 H912 0.961 . S
C849 H913 0.960 . S
C849 H914 0.960 . S
C850 C851 1.530 . S
C850 H916 0.961 . S
C850 H917 0.961 . S
C850 H918 0.959 . S
C851 C850 1.530 . S
C851 O879 1.412 . S
C851 H915 0.980 . S
C852 C853 1.288 . S
C852 C857 1.377 . S
C852 O879 1.393 . S
C853 C852 1.288 . S
C853 C854 1.369 . S
C853 H919 0.932 . S
C854 C853 1.369 . S
C854 C855 1.398 . S
C854 C858 1.527 . S
C855 C854 1.398 . S
C855 C856 1.380 . S
C855 C869 1.497 . S
C856 C855 1.380 . S
C856 C857 1.383 . S
C856 C859 1.603 . S
C857 C852 1.377 . S
C857 C856 1.383 . S
C857 H920 0.929 . S
C858 C854 1.527 . S
C858 H921 0.961 . S
C858 H922 0.959 . S
C858 H923 0.959 . S
C859 C856 1.603 . S
C859 H924 0.960 . S
C859 H925 0.962 . S
C859 H926 0.961 . S
C860 C827 1.587 . S
C860 C861 1.360 . S
C860 C873 1.412 . S
C861 C860 1.360 . S
C861 C862 1.365 . S
C861 H927 0.929 . S
C862 C837 1.553 . S
C862 C861 1.365 . S
C862 C863 1.404 . S
C863 C862 1.404 . S
C863 C864 1.395 . S
C863 C874 1.451 . S
C864 C863 1.395 . S
C864 C865 1.322 . S
C864 H928 0.930 . S
C865 C864 1.322 . S
C865 C866 1.459 . S
C865 H929 0.929 . S
C866 C865 1.459 . S
C866 C867 1.445 . S
C866 C875 1.395 . S
C867 C845 1.432 . S
C867 C866 1.445 . S
C867 C868 1.370 . S
C868 C867 1.370 . S
C868 C869 1.438 . S
C868 H930 0.930 . S
C869 C855 1.497 . S
C869 C868 1.438 . S
C869 C870 1.360 . S
C870 C869 1.360 . S
C870 C871 1.401 . S
C870 C875 1.446 . S
C871 C870 1.401 . S
C871 C872 1.347 . S
C871 H931 0.929 . S
C872 C871 1.347 . S
C872 C873 1.455 . S
C872 H932 0.930 . S
C873 C860 1.412 . S
C873 C872 1.455 . S
C873 C874 1.331 . S
C874 C863 1.451 . S
C874 C873 1.331 . S
C874 C875 1.497 . S
C875 C866 1.395 . S
C875 C870 1.446 . S
C875 C874 1.497 . S
C876 C877 1.582 . S
C876 H933 0.962 . S
C876 H934 0.959 . S
C876 H935 0.958 . S
C877 C876 1.582 . S
C877 O880 1.458 . S
C877 H906 0.980 . S
O878 C823 1.426 . S
O878 C824 1.334 . S
O879 C851 1.412 . S
O879 C852 1.393 . S
O880 C842 1.435 . S
O880 C877 1.458 . S
O881 C833 1.468 . S
O881 C834 1.408 . S
H882 C823 0.980 . S
H883 C822 0.959 . S
H884 C822 0.959 . S
H885 C822 0.960 . S
H886 C825 0.929 . S
H887 C829 0.929 . S
H888 C830 0.959 . S
H889 C830 0.961 . S
H890 C830 0.961 . S
H891 C831 0.960 . S
H892 C831 0.960 . S
H893 C831 0.961 . S
H894 C833 0.980 . S
H895 C832 0.961 . S
H896 C832 0.960 . S
H897 C832 0.959 . S
H898 C835 0.930 . S
H899 C839 0.931 . S
H900 C840 0.959 . S
H901 C840 0.961 . S
H902 C840 0.959 . S
H903 C841 0.960 . S
H904 C841 0.960 . S
H905 C841 0.960 . S
H906 C877 0.980 . S
H907 C843 0.930 . S
H908 C847 0.930 . S
H909 C848 0.961 . S
H910 C848 0.960 . S
H911 C848 0.958 . S
H912 C849 0.961 . S
H913 C849 0.960 . S
H914 C849 0.960 . S
H915 C851 0.980 . S
H916 C850 0.961 . S
H917 C850 0.961 . S
H918 C850 0.959 . S
H919 C853 0.932 . S
H920 C857 0.929 . S
H921 C858 0.961 . S
H922 C858 0.959 . S
H923 C858 0.959 . S
H924 C859 0.960 . S
H925 C859 0.962 . S
H926 C859 0.961 . S
H927 C861 0.929 . S
H928 C864 0.930 . S
H929 C865 0.929 . S
H930 C868 0.930 . S
H931 C871 0.929 . S
H932 C872 0.930 . S
H933 C876 0.962 . S
H934 C876 0.959 . S
H935 C876 0.958 . S
C936 C937 1.560 . S
C936 H997 0.959 . S
C936 H998 0.959 . S
C936 H999 0.960 . S
C937 C936 1.560 . S
C937 O992 1.426 . S
C937 H996 0.980 . S
C938 C939 1.407 . S
C938 C943 1.418 . S
C938 O992 1.334 . S
C939 C938 1.407 . S
C939 C940 1.360 . S
C939 H1000 0.929 . S
C940 C939 1.360 . S
C940 C941 1.401 . S
C940 C944 1.527 . S
C941 C940 1.401 . S
C941 C942 1.405 . S
C941 C974 1.587 . S
C942 C941 1.405 . S
C942 C943 1.332 . S
C942 C945 1.496 . S
C943 C938 1.418 . S
C943 C942 1.332 . S
C943 H1001 0.929 . S
C944 C940 1.527 . S
C944 H1002 0.959 . S
C944 H1003 0.961 . S
C944 H1004 0.961 . S
C945 C942 1.496 . S
C945 H1005 0.960 . S
C945 H1006 0.960 . S
C945 H1007 0.961 . S
C946 C947 1.517 . S
C946 H1009 0.961 . S
C946 H1010 0.960 . S
C946 H1011 0.959 . S
C947 C946 1.517 . S
C947 O995 1.468 . S
C947 H1008 0.980 . S
C948 C949 1.349 . S
C948 C953 1.367 . S
C948 O995 1.408 . S
C949 C948 1.349 . S
C949 C950 1.407 . S
C949 H1012 0.930 . S
C950 C949 1.407 . S
C950 C951 1.449 . S
C950 C954 1.535 . S
C951 C950 1.449 . S
C951 C952 1.384 . S
C951 C976 1.553 . S
C952 C951 1.384 . S
C952 C953 1.364 . S
C952 C955 1.450 . S
C953 C948 1.367 . S
C953 C952 1.364 . S
C953 H1013 0.931 . S
C954 C950 1.535 . S
C954 H1014 0.959 . S
C954 H1015 0.961 . S
C954 H1016 0.959 . S
C955 C952 1.450 . S
C955 H1017 0.960 . S
C955 H1018 0.960 . S
C955 H1019 0.960 . S
C956 C957 1.309 . S
C956 C961 1.304 . S
C956 O994 1.435 . S
C957 C956 1.309 . S
C957 C958 1.476 . S
C957 H1021 0.930 . S
C958 C957 1.476 . S
C958 C959 1.400 . S
C958 C962 1.567 . S
C959 C958 1.400 . S
C959 C960 1.373 . S
C959 C981 1.432 . S
C960 C959 1.373 . S
C960 C961 1.339 . S
C960 C963 1.530 . S
C961 C956 1.304 . S
C961 C960 1.339 . S
C961 H1022 0.930 . S
C962 C958 1.567 . S
C962 H1023 0.961 . S
C962 H1024 0.960 . S
C962 H1025 0.958 . S
C963 C960 1.530 . S
C963 H1026 0.961 . S
C963 H1027 0.960 . S
C963 H1028 0.960 . S
C964 C965 1.530 . S
C964 H1030 0.961 . S
C964 H1031 0.961 . S
C964 H1032 0.959 . S
C965 C964 1.530 . S
C965 O993 1.412 . S
C965 H1029 0.980 . S
C966 C967 1.288 . S
C966 C971 1.377 . S
C966 O993 1.393 . S
C967 C966 1.288 . S
C967 C968 1.369 . S
C967 H1033 0.932 . S
C968 C967 1.369 . S
C968 C969 1.398 . S
C968 C972 1.527 . S
C969 C968 1.398 . S
C969 C970 1.380 . S
C969 C983 1.497 . S
C970 C969 1.380 . S
C970 C971 1.383 . S
C970 C973 1.603 . S
C971 C966 1.377 . S
C971 C970 1.383 . S
C971 H1034 0.929 . S
C972 C968 1.527 . S
C972 H1035 0.961 . S
C972 H1036 0.959 . S
C972 H1037 0.959 . S
C973 C970 1.603 . S
C973 H1038 0.960 . S
C973 H1039 0.962 . S
C973 H1040 0.961 . S
C974 C941 1.587 . S
C974 C975 1.360 . S
C974 C987 1.412 . S
C975 C974 1.360 . S
C975 C976 1.365 . S
C975 H1041 0.929 . S
C976 C951 1.553 . S
C976 C975 1.365 . S
C976 C977 1.404 . S
C977 C976 1.404 . S
C977 C978 1.395 . S
C977 C988 1.451 . S
C978 C977 1.395 . S
C978 C979 1.322 . S
C978 H1042 0.930 . S
C979 C978 1.322 . S
C979 C980 1.459 . S
C979 H1043 0.929 . S
C980 C979 1.459 . S
C980 C981 1.445 . S
C980 C989 1.395 . S
C981 C959 1.432 . S
C981 C980 1.445 . S
C981 C982 1.370 . S
C982 C981 1.370 . S
C982 C983 1.438 . S
C982 H1044 0.930 . S
C983 C969 1.497 . S
C983 C982 1.438 . S
C983 C984 1.360 . S
C984 C983 1.360 . S
C984 C985 1.401 . S
C984 C989 1.446 . S
C985 C984 1.401 . S
C985 C986 1.347 . S
C985 H1045 0.929 . S
C986 C985 1.347 . S
C986 C987 1.455 . S
C986 H1046 0.930 . S
C987 C974 1.412 . S
C987 C986 1.455 . S
C987 C988 1.331 . S
C988 C977 1.451 . S
C988 C987 1.331 . S
C988 C989 1.497 . S
C989 C980 1.395 . S
C989 C984 1.446 . S
C989 C988 1.497 . S
C990 C991 1.582 . S
C990 H1047 0.962 . S
C990 H1048 0.959 . S
C990 H1049 0.958 . S
C991 C990 1.582 . S
C991 O994 1.458 . S
C991 H1020 0.980 . S
O992 C937 1.426 . S
O992 C938 1.334 . S
O993 C965 1.412 . S
O993 C966 1.393 . S
O994 C956 1.435 . S
O994 C991 1.458 . S
O995 C947 1.468 . S
O995 C948 1.408 . S
H996 C937 0.980 . S
H997 C936 0.959 . S
H998 C936 0.959 . S
H999 C936 0.960 . S
H1000 C939 0.929 . S
H1001 C943 0.929 . S
H1002 C944 0.959 . S
H1003 C944 0.961 . S
H1004 C944 0.961 . S
H1005 C945 0.960 . S
H1006 C945 0.960 . S
H1007 C945 0.961 . S
H1008 C947 0.980 . S
H1009 C946 0.961 . S
H1010 C946 0.960 . S
H1011 C946 0.959 . S
H1012 C949 0.930 . S
H1013 C953 0.931 . S
H1014 C954 0.959 . S
H1015 C954 0.961 . S
H1016 C954 0.959 . S
H1017 C955 0.960 . S
H1018 C955 0.960 . S
H1019 C955 0.960 . S
H1020 C991 0.980 . S
H1021 C957 0.930 . S
H1022 C961 0.930 . S
H1023 C962 0.961 . S
H1024 C962 0.960 . S
H1025 C962 0.958 . S
H1026 C963 0.961 . S
H1027 C963 0.960 . S
H1028 C963 0.960 . S
H1029 C965 0.980 . S
H1030 C964 0.961 . S
H1031 C964 0.961 . S
H1032 C964 0.959 . S
H1033 C967 0.932 . S
H1034 C971 0.929 . S
H1035 C972 0.961 . S
H1036 C972 0.959 . S
H1037 C972 0.959 . S
H1038 C973 0.960 . S
H1039 C973 0.962 . S
H1040 C973 0.961 . S
H1041 C975 0.929 . S
H1042 C978 0.930 . S
H1043 C979 0.929 . S
H1044 C982 0.930 . S
H1045 C985 0.929 . S
H1046 C986 0.930 . S
H1047 C990 0.962 . S
H1048 C990 0.959 . S
H1049 C990 0.958 . S
C1050 C1051 1.560 . S
C1050 H1111 0.959 . S
C1050 H1112 0.959 . S
C1050 H1113 0.960 . S
C1051 C1050 1.560 . S
C1051 O1106 1.426 . S
C1051 H1110 0.980 . S
C1052 C1053 1.407 . S
C1052 C1057 1.418 . S
C1052 O1106 1.334 . S
C1053 C1052 1.407 . S
C1053 C1054 1.360 . S
C1053 H1114 0.929 . S
C1054 C1053 1.360 . S
C1054 C1055 1.401 . S
C1054 C1058 1.527 . S
C1055 C1054 1.401 . S
C1055 C1056 1.405 . S
C1055 C1088 1.587 . S
C1056 C1055 1.405 . S
C1056 C1057 1.332 . S
C1056 C1059 1.496 . S
C1057 C1052 1.418 . S
C1057 C1056 1.332 . S
C1057 H1115 0.929 . S
C1058 C1054 1.527 . S
C1058 H1116 0.959 . S
C1058 H1117 0.961 . S
C1058 H1118 0.961 . S
C1059 C1056 1.496 . S
C1059 H1119 0.960 . S
C1059 H1120 0.960 . S
C1059 H1121 0.961 . S
C1060 C1061 1.517 . S
C1060 H1123 0.961 . S
C1060 H1124 0.960 . S
C1060 H1125 0.959 . S
C1061 C1060 1.517 . S
C1061 O1109 1.468 . S
C1061 H1122 0.980 . S
C1062 C1063 1.349 . S
C1062 C1067 1.367 . S
C1062 O1109 1.408 . S
C1063 C1062 1.349 . S
C1063 C1064 1.407 . S
C1063 H1126 0.930 . S
C1064 C1063 1.407 . S
C1064 C1065 1.449 . S
C1064 C1068 1.535 . S
C1065 C1064 1.449 . S
C1065 C1066 1.384 . S
C1065 C1090 1.553 . S
C1066 C1065 1.384 . S
C1066 C1067 1.364 . S
C1066 C1069 1.450 . S
C1067 C1062 1.367 . S
C1067 C1066 1.364 . S
C1067 H1127 0.931 . S
C1068 C1064 1.535 . S
C1068 H1128 0.959 . S
C1068 H1129 0.961 . S
C1068 H1130 0.959 . S
C1069 C1066 1.450 . S
C1069 H1131 0.960 . S
C1069 H1132 0.960 . S
C1069 H1133 0.960 . S
C1070 C1071 1.309 . S
C1070 C1075 1.304 . S
C1070 O1108 1.435 . S
C1071 C1070 1.309 . S
C1071 C1072 1.476 . S
C1071 H1135 0.930 . S
C1072 C1071 1.476 . S
C1072 C1073 1.400 . S
C1072 C1076 1.567 . S
C1073 C1072 1.400 . S
C1073 C1074 1.373 . S
C1073 C1095 1.432 . S
C1074 C1073 1.373 . S
C1074 C1075 1.339 . S
C1074 C1077 1.530 . S
C1075 C1070 1.304 . S
C1075 C1074 1.339 . S
C1075 H1136 0.930 . S
C1076 C1072 1.567 . S
C1076 H1137 0.961 . S
C1076 H1138 0.960 . S
C1076 H1139 0.958 . S
C1077 C1074 1.530 . S
C1077 H1140 0.961 . S
C1077 H1141 0.960 . S
C1077 H1142 0.960 . S
C1078 C1079 1.530 . S
C1078 H1144 0.961 . S
C1078 H1145 0.961 . S
C1078 H1146 0.959 . S
C1079 C1078 1.530 . S
C1079 O1107 1.412 . S
C1079 H1143 0.980 . S
C1080 C1081 1.288 . S
C1080 C1085 1.377 . S
C1080 O1107 1.393 . S
C1081 C1080 1.288 . S
C1081 C1082 1.369 . S
C1081 H1147 0.932 . S
C1082 C1081 1.369 . S
C1082 C1083 1.398 . S
C1082 C1086 1.527 . S
C1083 C1082 1.398 . S
C1083 C1084 1.380 . S
C1083 C1097 1.497 . S
C1084 C1083 1.380 . S
C1084 C1085 1.383 . S
C1084 C1087 1.603 . S
C1085 C1080 1.377 . S
C1085 C1084 1.383 . S
C1085 H1148 0.929 . S
C1086 C1082 1.527 . S
C1086 H1149 0.961 . S
C1086 H1150 0.959 . S
C1086 H1151 0.959 . S
C1087 C1084 1.603 . S
C1087 H1152 0.960 . S
C1087 H1153 0.962 . S
C1087 H1154 0.961 . S
C1088 C1055 1.587 . S
C1088 C1089 1.360 . S
C1088 C1101 1.412 . S
C1089 C1088 1.360 . S
C1089 C1090 1.365 . S
C1089 H1155 0.929 . S
C1090 C1065 1.553 . S
C1090 C1089 1.365 . S
C1090 C1091 1.404 . S
C1091 C1090 1.404 . S
C1091 C1092 1.395 . S
C1091 C1102 1.451 . S
C1092 C1091 1.395 . S
C1092 C1093 1.322 . S
C1092 H1156 0.930 . S
C1093 C1092 1.322 . S
C1093 C1094 1.459 . S
C1093 H1157 0.929 . S
C1094 C1093 1.459 . S
C1094 C1095 1.445 . S
C1094 C1103 1.395 . S
C1095 C1073 1.432 . S
C1095 C1094 1.445 . S
C1095 C1096 1.370 . S
C1096 C1095 1.370 . S
C1096 C1097 1.438 . S
C1096 H1158 0.930 . S
C1097 C1083 1.497 . S
C1097 C1096 1.438 . S
C1097 C1098 1.360 . S
C1098 C1097 1.360 . S
C1098 C1099 1.401 . S
C1098 C1103 1.446 . S
C1099 C1098 1.401 . S
C1099 C1100 1.347 . S
C1099 H1159 0.929 . S
C1100 C1099 1.347 . S
C1100 C1101 1.455 . S
C1100 H1160 0.930 . S
C1101 C1088 1.412 . S
C1101 C1100 1.455 . S
C1101 C1102 1.331 . S
C1102 C1091 1.451 . S
C1102 C1101 1.331 . S
C1102 C1103 1.497 . S
C1103 C1094 1.395 . S
C1103 C1098 1.446 . S
C1103 C1102 1.497 . S
C1104 C1105 1.582 . S
C1104 H1161 0.962 . S
C1104 H1162 0.959 . S
C1104 H1163 0.958 . S
C1105 C1104 1.582 . S
C1105 O1108 1.458 . S
C1105 H1134 0.980 . S
O1106 C1051 1.426 . S
O1106 C1052 1.334 . S
O1107 C1079 1.412 . S
O1107 C1080 1.393 . S
O1108 C1070 1.435 . S
O1108 C1105 1.458 . S
O1109 C1061 1.468 . S
O1109 C1062 1.408 . S
H1110 C1051 0.980 . S
H1111 C1050 0.959 . S
H1112 C1050 0.959 . S
H1113 C1050 0.960 . S
H1114 C1053 0.929 . S
H1115 C1057 0.929 . S
H1116 C1058 0.959 . S
H1117 C1058 0.961 . S
H1118 C1058 0.961 . S
H1119 C1059 0.960 . S
H1120 C1059 0.960 . S
H1121 C1059 0.961 . S
H1122 C1061 0.980 . S
H1123 C1060 0.961 . S
H1124 C1060 0.960 . S
H1125 C1060 0.959 . S
H1126 C1063 0.930 . S
H1127 C1067 0.931 . S
H1128 C1068 0.959 . S
H1129 C1068 0.961 . S
H1130 C1068 0.959 . S
H1131 C1069 0.960 . S
H1132 C1069 0.960 . S
H1133 C1069 0.960 . S
H1134 C1105 0.980 . S
H1135 C1071 0.930 . S
H1136 C1075 0.930 . S
H1137 C1076 0.961 . S
H1138 C1076 0.960 . S
H1139 C1076 0.958 . S
H1140 C1077 0.961 . S
H1141 C1077 0.960 . S
H1142 C1077 0.960 . S
H1143 C1079 0.980 . S
H1144 C1078 0.961 . S
H1145 C1078 0.961 . S
H1146 C1078 0.959 . S
H1147 C1081 0.932 . S
H1148 C1085 0.929 . S
H1149 C1086 0.961 . S
H1150 C1086 0.959 . S
H1151 C1086 0.959 . S
H1152 C1087 0.960 . S
H1153 C1087 0.962 . S
H1154 C1087 0.961 . S
H1155 C1089 0.929 . S
H1156 C1092 0.930 . S
H1157 C1093 0.929 . S
H1158 C1096 0.930 . S
H1159 C1099 0.929 . S
H1160 C1100 0.930 . S
H1161 C1104 0.962 . S
H1162 C1104 0.959 . S
H1163 C1104 0.958 . S
C1164 C1165 1.560 . S
C1164 H1225 0.959 . S
C1164 H1226 0.959 . S
C1164 H1227 0.960 . S
C1165 C1164 1.560 . S
C1165 O1220 1.426 . S
C1165 H1224 0.980 . S
C1166 C1167 1.407 . S
C1166 C1171 1.418 . S
C1166 O1220 1.334 . S
C1167 C1166 1.407 . S
C1167 C1168 1.360 . S
C1167 H1228 0.929 . S
C1168 C1167 1.360 . S
C1168 C1169 1.401 . S
C1168 C1172 1.527 . S
C1169 C1168 1.401 . S
C1169 C1170 1.405 . S
C1169 C1202 1.587 . S
C1170 C1169 1.405 . S
C1170 C1171 1.332 . S
C1170 C1173 1.496 . S
C1171 C1166 1.418 . S
C1171 C1170 1.332 . S
C1171 H1229 0.929 . S
C1172 C1168 1.527 . S
C1172 H1230 0.959 . S
C1172 H1231 0.961 . S
C1172 H1232 0.961 . S
C1173 C1170 1.496 . S
C1173 H1233 0.960 . S
C1173 H1234 0.960 . S
C1173 H1235 0.961 . S
C1174 C1175 1.517 . S
C1174 H1237 0.961 . S
C1174 H1238 0.960 . S
C1174 H1239 0.959 . S
C1175 C1174 1.517 . S
C1175 O1223 1.468 . S
C1175 H1236 0.980 . S
C1176 C1177 1.349 . S
C1176 C1181 1.367 . S
C1176 O1223 1.408 . S
C1177 C1176 1.349 . S
C1177 C1178 1.407 . S
C1177 H1240 0.930 . S
C1178 C1177 1.407 . S
C1178 C1179 1.449 . S
C1178 C1182 1.535 . S
C1179 C1178 1.449 . S
C1179 C1180 1.384 . S
C1179 C1204 1.553 . S
C1180 C1179 1.384 . S
C1180 C1181 1.364 . S
C1180 C1183 1.450 . S
C1181 C1176 1.367 . S
C1181 C1180 1.364 . S
C1181 H1241 0.931 . S
C1182 C1178 1.535 . S
C1182 H1242 0.959 . S
C1182 H1243 0.961 . S
C1182 H1244 0.959 . S
C1183 C1180 1.450 . S
C1183 H1245 0.960 . S
C1183 H1246 0.960 . S
C1183 H1247 0.960 . S
C1184 C1185 1.309 . S
C1184 C1189 1.304 . S
C1184 O1222 1.435 . S
C1185 C1184 1.309 . S
C1185 C1186 1.476 . S
C1185 H1249 0.930 . S
C1186 C1185 1.476 . S
C1186 C1187 1.400 . S
C1186 C1190 1.567 . S
C1187 C1186 1.400 . S
C1187 C1188 1.373 . S
C1187 C1209 1.432 . S
C1188 C1187 1.373 . S
C1188 C1189 1.339 . S
C1188 C1191 1.530 . S
C1189 C1184 1.304 . S
C1189 C1188 1.339 . S
C1189 H1250 0.930 . S
C1190 C1186 1.567 . S
C1190 H1251 0.961 . S
C1190 H1252 0.960 . S
C1190 H1253 0.958 . S
C1191 C1188 1.530 . S
C1191 H1254 0.961 . S
C1191 H1255 0.960 . S
C1191 H1256 0.960 . S
C1192 C1193 1.530 . S
C1192 H1258 0.961 . S
C1192 H1259 0.961 . S
C1192 H1260 0.959 . S
C1193 C1192 1.530 . S
C1193 O1221 1.412 . S
C1193 H1257 0.980 . S
C1194 C1195 1.288 . S
C1194 C1199 1.377 . S
C1194 O1221 1.393 . S
C1195 C1194 1.288 . S
C1195 C1196 1.369 . S
C1195 H1261 0.932 . S
C1196 C1195 1.369 . S
C1196 C1197 1.398 . S
C1196 C1200 1.527 . S
C1197 C1196 1.398 . S
C1197 C1198 1.380 . S
C1197 C1211 1.497 . S
C1198 C1197 1.380 . S
C1198 C1199 1.383 . S
C1198 C1201 1.603 . S
C1199 C1194 1.377 . S
C1199 C1198 1.383 . S
C1199 H1262 0.929 . S
C1200 C1196 1.527 . S
C1200 H1263 0.961 . S
C1200 H1264 0.959 . S
C1200 H1265 0.959 . S
C1201 C1198 1.603 . S
C1201 H1266 0.960 . S
C1201 H1267 0.962 . S
C1201 H1268 0.961 . S
C1202 C1169 1.587 . S
C1202 C1203 1.360 . S
C1202 C1215 1.412 . S
C1203 C1202 1.360 . S
C1203 C1204 1.365 . S
C1203 H1269 0.929 . S
C1204 C1179 1.553 . S
C1204 C1203 1.365 . S
C1204 C1205 1.404 . S
C1205 C1204 1.404 . S
C1205 C1206 1.395 . S
C1205 C1216 1.451 . S
C1206 C1205 1.395 . S
C1206 C1207 1.322 . S
C1206 H1270 0.930 . S
C1207 C1206 1.322 . S
C1207 C1208 1.459 . S
C1207 H1271 0.929 . S
C1208 C1207 1.459 . S
C1208 C1209 1.445 . S
C1208 C1217 1.395 . S
C1209 C1187 1.432 . S
C1209 C1208 1.445 . S
C1209 C1210 1.370 . S
C1210 C1209 1.370 . S
C1210 C1211 1.438 . S
C1210 H1272 0.930 . S
C1211 C1197 1.497 . S
C1211 C1210 1.438 . S
C1211 C1212 1.360 . S
C1212 C1211 1.360 . S
C1212 C1213 1.401 . S
C1212 C1217 1.446 . S
C1213 C1212 1.401 . S
C1213 C1214 1.347 . S
C1213 H1273 0.929 . S
C1214 C1213 1.347 . S
C1214 C1215 1.455 . S
C1214 H1274 0.930 . S
C1215 C1202 1.412 . S
C1215 C1214 1.455 . S
C1215 C1216 1.331 . S
C1216 C1205 1.451 . S
C1216 C1215 1.331 . S
C1216 C1217 1.497 . S
C1217 C1208 1.395 . S
C1217 C1212 1.446 . S
C1217 C1216 1.497 . S
C1218 C1219 1.582 . S
C1218 H1275 0.962 . S
C1218 H1276 0.959 . S
C1218 H1277 0.958 . S
C1219 C1218 1.582 . S
C1219 O1222 1.458 . S
C1219 H1248 0.980 . S
O1220 C1165 1.426 . S
O1220 C1166 1.334 . S
O1221 C1193 1.412 . S
O1221 C1194 1.393 . S
O1222 C1184 1.435 . S
O1222 C1219 1.458 . S
O1223 C1175 1.468 . S
O1223 C1176 1.408 . S
H1224 C1165 0.980 . S
H1225 C1164 0.959 . S
H1226 C1164 0.959 . S
H1227 C1164 0.960 . S
H1228 C1167 0.929 . S
H1229 C1171 0.929 . S
H1230 C1172 0.959 . S
H1231 C1172 0.961 . S
H1232 C1172 0.961 . S
H1233 C1173 0.960 . S
H1234 C1173 0.960 . S
H1235 C1173 0.961 . S
H1236 C1175 0.980 . S
H1237 C1174 0.961 . S
H1238 C1174 0.960 . S
H1239 C1174 0.959 . S
H1240 C1177 0.930 . S
H1241 C1181 0.931 . S
H1242 C1182 0.959 . S
H1243 C1182 0.961 . S
H1244 C1182 0.959 . S
H1245 C1183 0.960 . S
H1246 C1183 0.960 . S
H1247 C1183 0.960 . S
H1248 C1219 0.980 . S
H1249 C1185 0.930 . S
H1250 C1189 0.930 . S
H1251 C1190 0.961 . S
H1252 C1190 0.960 . S
H1253 C1190 0.958 . S
H1254 C1191 0.961 . S
H1255 C1191 0.960 . S
H1256 C1191 0.960 . S
H1257 C1193 0.980 . S
H1258 C1192 0.961 . S
H1259 C1192 0.961 . S
H1260 C1192 0.959 . S
H1261 C1195 0.932 . S
H1262 C1199 0.929 . S
H1263 C1200 0.961 . S
H1264 C1200 0.959 . S
H1265 C1200 0.959 . S
H1266 C1201 0.960 . S
H1267 C1201 0.962 . S
H1268 C1201 0.961 . S
H1269 C1203 0.929 . S
H1270 C1206 0.930 . S
H1271 C1207 0.929 . S
H1272 C1210 0.930 . S
H1273 C1213 0.929 . S
H1274 C1214 0.930 . S
H1275 C1218 0.962 . S
H1276 C1218 0.959 . S
H1277 C1218 0.958 . S
C1278 C1279 1.560 . S
C1278 H1339 0.959 . S
C1278 H1340 0.959 . S
C1278 H1341 0.960 . S
C1279 C1278 1.560 . S
C1279 O1334 1.426 . S
C1279 H1338 0.980 . S
C1280 C1281 1.407 1_455 S
C1280 C1285 1.418 . S
C1280 O1334 1.334 . S
C1281 C1280 1.407 1_655 S
C1281 C1282 1.360 . S
C1281 H1342 0.929 . S
C1282 C1281 1.360 . S
C1282 C1283 1.401 1_655 S
C1282 C1286 1.527 . S
C1283 C1282 1.401 1_455 S
C1283 C1284 1.405 . S
C1283 C1316 1.587 1_455 S
C1284 C1283 1.405 . S
C1284 C1285 1.332 . S
C1284 C1287 1.496 . S
C1285 C1280 1.418 . S
C1285 C1284 1.332 . S
C1285 H1343 0.929 . S
C1286 C1282 1.527 . S
C1286 H1344 0.959 . S
C1286 H1345 0.961 . S
C1286 H1346 0.961 . S
C1287 C1284 1.496 . S
C1287 H1347 0.960 . S
C1287 H1348 0.960 . S
C1287 H1349 0.961 . S
C1288 C1289 1.517 . S
C1288 H1351 0.970 . S
C1288 H1352 0.960 . S
C1288 H1353 0.959 . S
C1289 C1288 1.517 . S
C1289 O1337 1.468 . S
C1289 H1350 0.980 1_655 S
C1290 C1291 1.349 . S
C1290 C1295 1.367 . S
C1290 O1337 1.408 . S
C1291 C1290 1.349 . S
C1291 C1292 1.407 1_655 S
C1291 H1354 0.930 1_655 S
C1292 C1291 1.407 1_455 S
C1292 C1293 1.449 1_455 S
C1292 C1296 1.535 . S
C1293 C1292 1.449 1_655 S
C1293 C1294 1.384 . S
C1293 C1318 1.553 . S
C1294 C1293 1.384 . S
C1294 C1295 1.364 . S
C1294 C1297 1.450 . S
C1295 C1290 1.367 . S
C1295 C1294 1.364 . S
C1295 H1355 0.931 . S
C1296 C1292 1.535 . S
C1296 H1356 0.959 . S
C1296 H1357 0.961 . S
C1296 H1358 0.959 . S
C1297 C1294 1.450 . S
C1297 H1359 0.960 . S
C1297 H1360 0.960 . S
C1297 H1361 0.960 . S
C1298 C1299 1.309 . S
C1298 C1303 1.304 . S
C1298 O1336 1.435 . S
C1299 C1298 1.309 . S
C1299 C1300 1.483 . S
C1299 H1363 0.930 1_655 S
C1300 C1299 1.483 . S
C1300 C1301 1.405 . S
C1300 C1304 1.555 1_655 S
C1301 C1300 1.405 . S
C1301 C1302 1.373 . S
C1301 C1323 1.432 . S
C1302 C1301 1.373 . S
C1302 C1303 1.339 . S
C1302 C1305 1.530 . S
C1303 C1298 1.304 . S
C1303 C1302 1.339 . S
C1303 H1364 0.930 . S
C1304 C1300 1.555 1_455 S
C1304 H1365 0.961 . S
C1304 H1366 0.960 . S
C1304 H1367 0.958 . S
C1305 C1302 1.530 . S
C1305 H1368 0.961 . S
C1305 H1369 0.960 . S
C1305 H1370 0.960 . S
C1306 C1307 1.504 1_455 S
C1306 H1372 0.961 . S
C1306 H1373 0.961 . S
C1306 H1374 0.959 . S
C1307 C1306 1.504 1_655 S
C1307 O1335 1.407 1_655 S
C1307 H1371 0.988 . S
C1308 C1309 1.288 . S
C1308 C1313 1.377 1_455 S
C1308 O1335 1.393 . S
C1309 C1308 1.288 . S
C1309 C1310 1.369 . S
C1309 H1375 0.932 . S
C1310 C1309 1.369 . S
C1310 C1311 1.398 1_455 S
C1310 C1314 1.527 . S
C1311 C1310 1.398 1_655 S
C1311 C1312 1.380 . S
C1311 C1325 1.497 . S
C1312 C1311 1.380 . S
C1312 C1313 1.383 . S
C1312 C1315 1.603 . S
C1313 C1308 1.377 1_655 S
C1313 C1312 1.383 . S
C1313 H1376 0.929 . S
C1314 C1310 1.527 . S
C1314 H1377 0.961 . S
C1314 H1378 0.959 . S
C1314 H1379 0.959 . S
C1315 C1312 1.603 . S
C1315 H1380 0.960 . S
C1315 H1381 0.962 . S
C1315 H1382 0.961 . S
C1316 C1283 1.587 1_655 S
C1316 C1317 1.360 . S
C1316 C1329 1.412 . S
C1317 C1316 1.360 . S
C1317 C1318 1.365 . S
C1317 H1383 0.929 . S
C1318 C1293 1.553 . S
C1318 C1317 1.365 . S
C1318 C1319 1.404 . S
C1319 C1318 1.404 . S
C1319 C1320 1.395 . S
C1319 C1330 1.451 . S
C1320 C1319 1.395 . S
C1320 C1321 1.322 . S
C1320 H1384 0.930 . S
C1321 C1320 1.322 . S
C1321 C1322 1.459 . S
C1321 H1385 0.929 . S
C1322 C1321 1.459 . S
C1322 C1323 1.445 . S
C1322 C1331 1.395 . S
C1323 C1301 1.432 . S
C1323 C1322 1.445 . S
C1323 C1324 1.370 . S
C1324 C1323 1.370 . S
C1324 C1325 1.438 . S
C1324 H1386 0.930 . S
C1325 C1311 1.497 . S
C1325 C1324 1.438 . S
C1325 C1326 1.360 . S
C1326 C1325 1.360 . S
C1326 C1327 1.401 . S
C1326 C1331 1.446 . S
C1327 C1326 1.401 . S
C1327 C1328 1.347 . S
C1327 H1387 0.929 . S
C1328 C1327 1.347 . S
C1328 C1329 1.455 . S
C1328 H1388 0.930 . S
C1329 C1316 1.412 . S
C1329 C1328 1.455 . S
C1329 C1330 1.331 . S
C1330 C1319 1.451 . S
C1330 C1329 1.331 . S
C1330 C1331 1.497 . S
C1331 C1322 1.395 . S
C1331 C1326 1.446 . S
C1331 C1330 1.497 . S
C1332 C1333 1.582 . S
C1332 H1389 0.962 . S
C1332 H1390 0.959 . S
C1332 H1391 0.958 . S
C1333 C1332 1.582 . S
C1333 O1336 1.458 . S
C1333 H1362 0.980 . S
O1334 C1279 1.426 . S
O1334 C1280 1.334 . S
O1335 C1307 1.407 1_455 S
O1335 C1308 1.393 . S
O1336 C1298 1.435 . S
O1336 C1333 1.458 . S
O1337 C1289 1.468 . S
O1337 C1290 1.408 . S
H1338 C1279 0.980 . S
H1339 C1278 0.959 . S
H1340 C1278 0.959 . S
H1341 C1278 0.960 . S
H1342 C1281 0.929 . S
H1343 C1285 0.929 . S
H1344 C1286 0.959 . S
H1345 C1286 0.961 . S
H1346 C1286 0.961 . S
H1347 C1287 0.960 . S
H1348 C1287 0.960 . S
H1349 C1287 0.961 . S
H1350 C1289 0.980 1_455 S
H1351 C1288 0.970 . S
H1352 C1288 0.960 . S
H1353 C1288 0.959 . S
H1354 C1291 0.930 1_455 S
H1355 C1295 0.931 . S
H1356 C1296 0.959 . S
H1357 C1296 0.961 . S
H1358 C1296 0.959 . S
H1359 C1297 0.960 . S
H1360 C1297 0.960 . S
H1361 C1297 0.960 . S
H1362 C1333 0.980 . S
H1363 C1299 0.930 1_455 S
H1364 C1303 0.930 . S
H1365 C1304 0.961 . S
H1366 C1304 0.960 . S
H1367 C1304 0.958 . S
H1368 C1305 0.961 . S
H1369 C1305 0.960 . S
H1370 C1305 0.960 . S
H1371 C1307 0.988 . S
H1372 C1306 0.961 . S
H1373 C1306 0.961 . S
H1374 C1306 0.959 . S
H1375 C1309 0.932 . S
H1376 C1313 0.929 . S
H1377 C1314 0.961 . S
H1378 C1314 0.959 . S
H1379 C1314 0.959 . S
H1380 C1315 0.960 . S
H1381 C1315 0.962 . S
H1382 C1315 0.961 . S
H1383 C1317 0.929 . S
H1384 C1320 0.930 . S
H1385 C1321 0.929 . S
H1386 C1324 0.930 . S
H1387 C1327 0.929 . S
H1388 C1328 0.930 . S
H1389 C1332 0.962 . S
H1390 C1332 0.959 . S
H1391 C1332 0.958 . S
C1392 C1393 1.560 . S
C1392 H1453 0.959 . S
C1392 H1454 0.959 . S
C1392 H1455 0.960 . S
C1393 C1392 1.560 . S
C1393 O1448 1.426 . S
C1393 H1452 0.980 . S
C1394 C1395 1.407 . S
C1394 C1399 1.418 . S
C1394 O1448 1.334 . S
C1395 C1394 1.407 . S
C1395 C1396 1.360 . S
C1395 H1456 0.929 . S
C1396 C1395 1.360 . S
C1396 C1397 1.401 . S
C1396 C1400 1.527 . S
C1397 C1396 1.401 . S
C1397 C1398 1.405 . S
C1397 C1430 1.587 . S
C1398 C1397 1.405 . S
C1398 C1399 1.332 . S
C1398 C1401 1.496 . S
C1399 C1394 1.418 . S
C1399 C1398 1.332 . S
C1399 H1457 0.929 . S
C1400 C1396 1.527 . S
C1400 H1458 0.959 . S
C1400 H1459 0.961 . S
C1400 H1460 0.961 . S
C1401 C1398 1.496 . S
C1401 H1461 0.960 . S
C1401 H1462 0.960 . S
C1401 H1463 0.961 . S
C1402 C1403 1.517 . S
C1402 H1465 0.961 . S
C1402 H1466 0.960 . S
C1402 H1467 0.959 . S
C1403 C1402 1.517 . S
C1403 O1451 1.468 . S
C1403 H1464 0.980 . S
C1404 C1405 1.349 . S
C1404 C1409 1.367 . S
C1404 O1451 1.408 . S
C1405 C1404 1.349 . S
C1405 C1406 1.407 . S
C1405 H1468 0.930 . S
C1406 C1405 1.407 . S
C1406 C1407 1.449 . S
C1406 C1410 1.535 . S
C1407 C1406 1.449 . S
C1407 C1408 1.384 . S
C1407 C1432 1.553 . S
C1408 C1407 1.384 . S
C1408 C1409 1.364 . S
C1408 C1411 1.450 . S
C1409 C1404 1.367 . S
C1409 C1408 1.364 . S
C1409 H1469 0.931 . S
C1410 C1406 1.535 . S
C1410 H1470 0.959 . S
C1410 H1471 0.961 . S
C1410 H1472 0.959 . S
C1411 C1408 1.450 . S
C1411 H1473 0.960 . S
C1411 H1474 0.960 . S
C1411 H1475 0.960 . S
C1412 C1413 1.309 . S
C1412 C1417 1.304 . S
C1412 O1450 1.435 . S
C1413 C1412 1.309 . S
C1413 C1414 1.476 . S
C1413 H1477 0.930 . S
C1414 C1413 1.476 . S
C1414 C1415 1.400 . S
C1414 C1418 1.567 . S
C1415 C1414 1.400 . S
C1415 C1416 1.373 . S
C1415 C1437 1.432 . S
C1416 C1415 1.373 . S
C1416 C1417 1.339 . S
C1416 C1419 1.530 . S
C1417 C1412 1.304 . S
C1417 C1416 1.339 . S
C1417 H1478 0.930 . S
C1418 C1414 1.567 . S
C1418 H1479 0.961 . S
C1418 H1480 0.960 . S
C1418 H1481 0.958 . S
C1419 C1416 1.530 . S
C1419 H1482 0.961 . S
C1419 H1483 0.960 . S
C1419 H1484 0.960 . S
C1420 C1421 1.530 . S
C1420 H1486 0.961 . S
C1420 H1487 0.961 . S
C1420 H1488 0.959 . S
C1421 C1420 1.530 . S
C1421 O1449 1.412 . S
C1421 H1485 0.980 . S
C1422 C1423 1.288 . S
C1422 C1427 1.377 . S
C1422 O1449 1.393 . S
C1423 C1422 1.288 . S
C1423 C1424 1.369 . S
C1423 H1489 0.932 . S
C1424 C1423 1.369 . S
C1424 C1425 1.398 . S
C1424 C1428 1.527 . S
C1425 C1424 1.398 . S
C1425 C1426 1.380 . S
C1425 C1439 1.497 . S
C1426 C1425 1.380 . S
C1426 C1427 1.383 . S
C1426 C1429 1.603 . S
C1427 C1422 1.377 . S
C1427 C1426 1.383 . S
C1427 H1490 0.929 . S
C1428 C1424 1.527 . S
C1428 H1491 0.961 . S
C1428 H1492 0.959 . S
C1428 H1493 0.959 . S
C1429 C1426 1.603 . S
C1429 H1494 0.960 . S
C1429 H1495 0.962 . S
C1429 H1496 0.961 . S
C1430 C1397 1.587 . S
C1430 C1431 1.360 . S
C1430 C1443 1.412 . S
C1431 C1430 1.360 . S
C1431 C1432 1.365 . S
C1431 H1497 0.929 . S
C1432 C1407 1.553 . S
C1432 C1431 1.365 . S
C1432 C1433 1.404 . S
C1433 C1432 1.404 . S
C1433 C1434 1.395 . S
C1433 C1444 1.451 . S
C1434 C1433 1.395 . S
C1434 C1435 1.322 . S
C1434 H1498 0.930 . S
C1435 C1434 1.322 . S
C1435 C1436 1.459 . S
C1435 H1499 0.929 . S
C1436 C1435 1.459 . S
C1436 C1437 1.445 . S
C1436 C1445 1.395 . S
C1437 C1415 1.432 . S
C1437 C1436 1.445 . S
C1437 C1438 1.370 . S
C1438 C1437 1.370 . S
C1438 C1439 1.438 . S
C1438 H1500 0.930 . S
C1439 C1425 1.497 . S
C1439 C1438 1.438 . S
C1439 C1440 1.360 . S
C1440 C1439 1.360 . S
C1440 C1441 1.401 . S
C1440 C1445 1.446 . S
C1441 C1440 1.401 . S
C1441 C1442 1.347 . S
C1441 H1501 0.929 . S
C1442 C1441 1.347 . S
C1442 C1443 1.455 . S
C1442 H1502 0.930 . S
C1443 C1430 1.412 . S
C1443 C1442 1.455 . S
C1443 C1444 1.331 . S
C1444 C1433 1.451 . S
C1444 C1443 1.331 . S
C1444 C1445 1.497 . S
C1445 C1436 1.395 . S
C1445 C1440 1.446 . S
C1445 C1444 1.497 . S
C1446 C1447 1.582 . S
C1446 H1503 0.962 . S
C1446 H1504 0.959 . S
C1446 H1505 0.958 . S
C1447 C1446 1.582 . S
C1447 O1450 1.458 . S
C1447 H1476 0.980 . S
O1448 C1393 1.426 . S
O1448 C1394 1.334 . S
O1449 C1421 1.412 . S
O1449 C1422 1.393 . S
O1450 C1412 1.435 . S
O1450 C1447 1.458 . S
O1451 C1403 1.468 . S
O1451 C1404 1.408 . S
H1452 C1393 0.980 . S
H1453 C1392 0.959 . S
H1454 C1392 0.959 . S
H1455 C1392 0.960 . S
H1456 C1395 0.929 . S
H1457 C1399 0.929 . S
H1458 C1400 0.959 . S
H1459 C1400 0.961 . S
H1460 C1400 0.961 . S
H1461 C1401 0.960 . S
H1462 C1401 0.960 . S
H1463 C1401 0.961 . S
H1464 C1403 0.980 . S
H1465 C1402 0.961 . S
H1466 C1402 0.960 . S
H1467 C1402 0.959 . S
H1468 C1405 0.930 . S
H1469 C1409 0.931 . S
H1470 C1410 0.959 . S
H1471 C1410 0.961 . S
H1472 C1410 0.959 . S
H1473 C1411 0.960 . S
H1474 C1411 0.960 . S
H1475 C1411 0.960 . S
H1476 C1447 0.980 . S
H1477 C1413 0.930 . S
H1478 C1417 0.930 . S
H1479 C1418 0.961 . S
H1480 C1418 0.960 . S
H1481 C1418 0.958 . S
H1482 C1419 0.961 . S
H1483 C1419 0.960 . S
H1484 C1419 0.960 . S
H1485 C1421 0.980 . S
H1486 C1420 0.961 . S
H1487 C1420 0.961 . S
H1488 C1420 0.959 . S
H1489 C1423 0.932 . S
H1490 C1427 0.929 . S
H1491 C1428 0.961 . S
H1492 C1428 0.959 . S
H1493 C1428 0.959 . S
H1494 C1429 0.960 . S
H1495 C1429 0.962 . S
H1496 C1429 0.961 . S
H1497 C1431 0.929 . S
H1498 C1434 0.930 . S
H1499 C1435 0.929 . S
H1500 C1438 0.930 . S
H1501 C1441 0.929 . S
H1502 C1442 0.930 . S
H1503 C1446 0.962 . S
H1504 C1446 0.959 . S
H1505 C1446 0.958 . S
C1506 C1507 1.560 . S
C1506 H1567 0.959 . S
C1506 H1568 0.959 . S
C1506 H1569 0.960 . S
C1507 C1506 1.560 . S
C1507 O1562 1.426 . S
C1507 H1566 0.980 . S
C1508 C1509 1.407 1_565 S
C1508 C1513 1.418 . S
C1508 O1562 1.334 . S
C1509 C1508 1.407 1_545 S
C1509 C1510 1.360 . S
C1509 H1570 0.929 . S
C1510 C1509 1.360 . S
C1510 C1511 1.401 1_545 S
C1510 C1514 1.527 . S
C1511 C1510 1.401 1_565 S
C1511 C1512 1.405 . S
C1511 C1544 1.587 1_565 S
C1512 C1511 1.405 . S
C1512 C1513 1.332 . S
C1512 C1515 1.496 . S
C1513 C1508 1.418 . S
C1513 C1512 1.332 . S
C1513 H1571 0.929 . S
C1514 C1510 1.527 . S
C1514 H1572 0.959 . S
C1514 H1573 0.961 . S
C1514 H1574 0.961 . S
C1515 C1512 1.496 . S
C1515 H1575 0.960 . S
C1515 H1576 0.960 . S
C1515 H1577 0.961 . S
C1516 C1517 1.517 . S
C1516 H1579 0.961 1_545 S
C1516 H1580 0.960 . S
C1516 H1581 0.959 . S
C1517 C1516 1.517 . S
C1517 O1565 1.468 . S
C1517 H1578 0.980 1_545 S
C1518 C1519 1.376 . S
C1518 C1523 1.367 . S
C1518 O1565 1.408 . S
C1519 C1518 1.376 . S
C1519 C1520 1.424 1_545 S
C1519 H1582 0.887 1_545 S
C1520 C1519 1.424 1_565 S
C1520 C1521 1.449 1_565 S
C1520 C1524 1.535 . S
C1521 C1520 1.449 1_545 S
C1521 C1522 1.384 . S
C1521 C1546 1.553 . S
C1522 C1521 1.384 . S
C1522 C1523 1.364 . S
C1522 C1525 1.450 . S
C1523 C1518 1.367 . S
C1523 C1522 1.364 . S
C1523 H1583 0.931 . S
C1524 C1520 1.535 . S
C1524 H1584 0.959 . S
C1524 H1585 0.961 . S
C1524 H1586 0.959 . S
C1525 C1522 1.450 . S
C1525 H1587 0.960 . S
C1525 H1588 0.960 . S
C1525 H1589 0.960 . S
C1526 C1527 1.309 . S
C1526 C1531 1.304 . S
C1526 O1564 1.435 . S
C1527 C1526 1.309 . S
C1527 C1528 1.495 1_545 S
C1527 H1591 0.930 1_545 S
C1528 C1527 1.495 1_565 S
C1528 C1529 1.339 1_565 S
C1528 C1532 1.609 . S
C1529 C1528 1.339 1_545 S
C1529 C1530 1.373 . S
C1529 C1551 1.432 . S
C1530 C1529 1.373 . S
C1530 C1531 1.339 . S
C1530 C1533 1.530 . S
C1531 C1526 1.304 . S
C1531 C1530 1.339 . S
C1531 H1592 0.930 . S
C1532 C1528 1.609 . S
C1532 H1593 0.961 . S
C1532 H1594 0.960 . S
C1532 H1595 0.958 . S
C1533 C1530 1.530 . S
C1533 H1596 0.961 . S
C1533 H1597 0.960 . S
C1533 H1598 0.960 . S
C1534 C1535 1.530 1_565 S
C1534 H1600 0.961 . S
C1534 H1601 0.961 . S
C1534 H1602 0.959 . S
C1535 C1534 1.530 1_545 S
C1535 O1563 1.412 1_545 S
C1535 H1599 0.980 . S
C1536 C1537 1.288 . S
C1536 C1541 1.377 1_565 S
C1536 O1563 1.393 . S
C1537 C1536 1.288 . S
C1537 C1538 1.369 . S
C1537 H1603 0.932 . S
C1538 C1537 1.369 . S
C1538 C1539 1.398 1_565 S
C1538 C1542 1.527 . S
C1539 C1538 1.398 1_545 S
C1539 C1540 1.380 . S
C1539 C1553 1.497 . S
C1540 C1539 1.380 . S
C1540 C1541 1.383 . S
C1540 C1543 1.603 . S
C1541 C1536 1.377 1_545 S
C1541 C1540 1.383 . S
C1541 H1604 0.929 . S
C1542 C1538 1.527 . S
C1542 H1605 0.961 . S
C1542 H1606 0.959 . S
C1542 H1607 0.959 . S
C1543 C1540 1.603 . S
C1543 H1608 0.960 . S
C1543 H1609 0.962 . S
C1543 H1610 0.961 . S
C1544 C1511 1.587 1_545 S
C1544 C1545 1.360 . S
C1544 C1557 1.412 . S
C1545 C1544 1.360 . S
C1545 C1546 1.365 . S
C1545 H1611 0.929 . S
C1546 C1521 1.553 . S
C1546 C1545 1.365 . S
C1546 C1547 1.404 . S
C1547 C1546 1.404 . S
C1547 C1548 1.395 . S
C1547 C1558 1.451 . S
C1548 C1547 1.395 . S
C1548 C1549 1.322 . S
C1548 H1612 0.930 . S
C1549 C1548 1.322 . S
C1549 C1550 1.459 . S
C1549 H1613 0.929 . S
C1550 C1549 1.459 . S
C1550 C1551 1.445 . S
C1550 C1559 1.395 . S
C1551 C1529 1.432 . S
C1551 C1550 1.445 . S
C1551 C1552 1.370 . S
C1552 C1551 1.370 . S
C1552 C1553 1.438 . S
C1552 H1614 0.930 . S
C1553 C1539 1.497 . S
C1553 C1552 1.438 . S
C1553 C1554 1.360 . S
C1554 C1553 1.360 . S
C1554 C1555 1.401 . S
C1554 C1559 1.446 . S
C1555 C1554 1.401 . S
C1555 C1556 1.347 . S
C1555 H1615 0.929 . S
C1556 C1555 1.347 . S
C1556 C1557 1.455 . S
C1556 H1616 0.930 . S
C1557 C1544 1.412 . S
C1557 C1556 1.455 . S
C1557 C1558 1.331 . S
C1558 C1547 1.451 . S
C1558 C1557 1.331 . S
C1558 C1559 1.497 . S
C1559 C1550 1.395 . S
C1559 C1554 1.446 . S
C1559 C1558 1.497 . S
C1560 C1561 1.582 . S
C1560 H1617 0.962 . S
C1560 H1618 0.959 . S
C1560 H1619 0.958 . S
C1561 C1560 1.582 . S
C1561 O1564 1.458 . S
C1561 H1590 0.980 . S
O1562 C1507 1.426 . S
O1562 C1508 1.334 . S
O1563 C1535 1.412 1_565 S
O1563 C1536 1.393 . S
O1564 C1526 1.435 . S
O1564 C1561 1.458 . S
O1565 C1517 1.468 . S
O1565 C1518 1.408 . S
H1566 C1507 0.980 . S
H1567 C1506 0.959 . S
H1568 C1506 0.959 . S
H1569 C1506 0.960 . S
H1570 C1509 0.929 . S
H1571 C1513 0.929 . S
H1572 C1514 0.959 . S
H1573 C1514 0.961 . S
H1574 C1514 0.961 . S
H1575 C1515 0.960 . S
H1576 C1515 0.960 . S
H1577 C1515 0.961 . S
H1578 C1517 0.980 1_565 S
H1579 C1516 0.961 1_565 S
H1580 C1516 0.960 . S
H1581 C1516 0.959 . S
H1582 C1519 0.887 1_565 S
H1583 C1523 0.931 . S
H1584 C1524 0.959 . S
H1585 C1524 0.961 . S
H1586 C1524 0.959 . S
H1587 C1525 0.960 . S
H1588 C1525 0.960 . S
H1589 C1525 0.960 . S
H1590 C1561 0.980 . S
H1591 C1527 0.930 1_565 S
H1592 C1531 0.930 . S
H1593 C1532 0.961 . S
H1594 C1532 0.960 . S
H1595 C1532 0.958 . S
H1596 C1533 0.961 . S
H1597 C1533 0.960 . S
H1598 C1533 0.960 . S
H1599 C1535 0.980 . S
H1600 C1534 0.961 . S
H1601 C1534 0.961 . S
H1602 C1534 0.959 . S
H1603 C1537 0.932 . S
H1604 C1541 0.929 . S
H1605 C1542 0.961 . S
H1606 C1542 0.959 . S
H1607 C1542 0.959 . S
H1608 C1543 0.960 . S
H1609 C1543 0.962 . S
H1610 C1543 0.961 . S
H1611 C1545 0.929 . S
H1612 C1548 0.930 . S
H1613 C1549 0.929 . S
H1614 C1552 0.930 . S
H1615 C1555 0.929 . S
H1616 C1556 0.930 . S
H1617 C1560 0.962 . S
H1618 C1560 0.959 . S
H1619 C1560 0.958 . S
C1620 C1621 1.560 . S
C1620 H1681 0.959 . S
C1620 H1682 0.959 . S
C1620 H1683 0.960 . S
C1621 C1620 1.560 . S
C1621 O1676 1.426 . S
C1621 H1680 0.980 1_565 S
C1622 C1623 1.407 1_565 S
C1622 C1627 1.418 . S
C1622 O1676 1.334 . S
C1623 C1622 1.407 1_545 S
C1623 C1624 1.360 . S
C1623 H1684 0.929 . S
C1624 C1623 1.360 . S
C1624 C1625 1.401 . S
C1624 C1628 1.527 . S
C1625 C1624 1.401 . S
C1625 C1626 1.405 1_545 S
C1625 C1658 1.587 . S
C1626 C1625 1.405 1_565 S
C1626 C1627 1.332 . S
C1626 C1629 1.496 . S
C1627 C1622 1.418 . S
C1627 C1626 1.332 . S
C1627 H1685 0.929 . S
C1628 C1624 1.527 . S
C1628 H1686 0.959 . S
C1628 H1687 0.961 . S
C1628 H1688 0.961 . S
C1629 C1626 1.496 . S
C1629 H1689 0.960 . S
C1629 H1690 0.960 . S
C1629 H1691 0.961 . S
C1630 C1631 1.517 . S
C1630 H1693 0.961 . S
C1630 H1694 0.960 . S
C1630 H1695 0.959 . S
C1631 C1630 1.517 . S
C1631 O1679 1.468 . S
C1631 H1692 0.980 . S
C1632 C1633 1.349 . S
C1632 C1637 1.367 . S
C1632 O1679 1.408 . S
C1633 C1632 1.349 . S
C1633 C1634 1.407 . S
C1633 H1696 0.932 1_545 S
C1634 C1633 1.407 . S
C1634 C1635 1.449 . S
C1634 C1638 1.535 1_545 S
C1635 C1634 1.449 . S
C1635 C1636 1.384 . S
C1635 C1660 1.553 . S
C1636 C1635 1.384 . S
C1636 C1637 1.364 . S
C1636 C1639 1.450 . S
C1637 C1632 1.367 . S
C1637 C1636 1.364 . S
C1637 H1697 0.931 . S
C1638 C1634 1.535 1_565 S
C1638 H1698 0.959 . S
C1638 H1699 0.961 . S
C1638 H1700 0.959 . S
C1639 C1636 1.450 . S
C1639 H1701 0.960 . S
C1639 H1702 0.960 . S
C1639 H1703 0.960 . S
C1640 C1641 1.309 1_545 S
C1640 C1645 1.304 . S
C1640 O1678 1.435 . S
C1641 C1640 1.309 1_565 S
C1641 C1642 1.476 . S
C1641 H1705 0.930 . S
C1642 C1641 1.476 . S
C1642 C1643 1.400 1_565 S
C1642 C1646 1.567 . S
C1643 C1642 1.400 1_545 S
C1643 C1644 1.373 . S
C1643 C1665 1.432 . S
C1644 C1643 1.373 . S
C1644 C1645 1.339 . S
C1644 C1647 1.530 . S
C1645 C1640 1.304 . S
C1645 C1644 1.339 . S
C1645 H1706 0.930 . S
C1646 C1642 1.567 . S
C1646 H1707 0.961 . S
C1646 H1708 0.960 . S
C1646 H1709 0.958 . S
C1647 C1644 1.530 . S
C1647 H1710 0.961 . S
C1647 H1711 0.960 . S
C1647 H1712 0.960 . S
C1648 C1649 1.530 . S
C1648 H1714 0.961 . S
C1648 H1715 0.961 . S
C1648 H1716 0.959 . S
C1649 C1648 1.530 . S
C1649 O1677 1.412 . S
C1649 H1713 0.980 . S
C1650 C1651 1.288 . S
C1650 C1655 1.377 1_565 S
C1650 O1677 1.393 . S
C1651 C1650 1.288 . S
C1651 C1652 1.369 . S
C1651 H1717 0.932 . S
C1652 C1651 1.369 . S
C1652 C1653 1.398 . S
C1652 C1656 1.527 . S
C1653 C1652 1.398 . S
C1653 C1654 1.380 1_565 S
C1653 C1667 1.497 1_565 S
C1654 C1653 1.380 1_545 S
C1654 C1655 1.383 . S
C1654 C1657 1.603 . S
C1655 C1650 1.377 1_545 S
C1655 C1654 1.383 . S
C1655 H1718 0.929 . S
C1656 C1652 1.527 . S
C1656 H1719 0.961 . S
C1656 H1720 0.959 . S
C1656 H1721 0.959 . S
C1657 C1654 1.603 . S
C1657 H1722 0.960 . S
C1657 H1723 0.962 . S
C1657 H1724 0.961 . S
C1658 C1625 1.587 . S
C1658 C1659 1.360 . S
C1658 C1671 1.412 . S
C1659 C1658 1.360 . S
C1659 C1660 1.365 . S
C1659 H1725 0.929 . S
C1660 C1635 1.553 . S
C1660 C1659 1.365 . S
C1660 C1661 1.404 . S
C1661 C1660 1.404 . S
C1661 C1662 1.395 . S
C1661 C1672 1.451 . S
C1662 C1661 1.395 . S
C1662 C1663 1.322 . S
C1662 H1726 0.930 . S
C1663 C1662 1.322 . S
C1663 C1664 1.459 . S
C1663 H1727 0.929 . S
C1664 C1663 1.459 . S
C1664 C1665 1.445 . S
C1664 C1673 1.395 . S
C1665 C1643 1.432 . S
C1665 C1664 1.445 . S
C1665 C1666 1.370 . S
C1666 C1665 1.370 . S
C1666 C1667 1.438 . S
C1666 H1728 0.930 . S
C1667 C1653 1.497 1_545 S
C1667 C1666 1.438 . S
C1667 C1668 1.360 . S
C1668 C1667 1.360 . S
C1668 C1669 1.401 . S
C1668 C1673 1.446 . S
C1669 C1668 1.401 . S
C1669 C1670 1.347 . S
C1669 H1729 0.959 . S
C1670 C1669 1.347 . S
C1670 C1671 1.455 . S
C1670 H1730 0.930 . S
C1671 C1658 1.412 . S
C1671 C1670 1.455 . S
C1671 C1672 1.331 . S
C1672 C1661 1.451 . S
C1672 C1671 1.331 . S
C1672 C1673 1.497 . S
C1673 C1664 1.395 . S
C1673 C1668 1.446 . S
C1673 C1672 1.497 . S
C1674 C1675 1.582 . S
C1674 H1731 0.962 . S
C1674 H1732 0.959 . S
C1674 H1733 0.958 . S
C1675 C1674 1.582 . S
C1675 O1678 1.458 . S
C1675 H1704 0.980 1_545 S
O1676 C1621 1.426 . S
O1676 C1622 1.334 . S
O1677 C1649 1.412 . S
O1677 C1650 1.393 . S
O1678 C1640 1.435 . S
O1678 C1675 1.458 . S
O1679 C1631 1.468 . S
O1679 C1632 1.408 . S
H1680 C1621 0.980 1_545 S
H1681 C1620 0.959 . S
H1682 C1620 0.959 . S
H1683 C1620 0.960 . S
H1684 C1623 0.929 . S
H1685 C1627 0.929 . S
H1686 C1628 0.959 . S
H1687 C1628 0.961 . S
H1688 C1628 0.961 . S
H1689 C1629 0.960 . S
H1690 C1629 0.960 . S
H1691 C1629 0.961 . S
H1692 C1631 0.980 . S
H1693 C1630 0.961 . S
H1694 C1630 0.960 . S
H1695 C1630 0.959 . S
H1696 C1633 0.932 1_565 S
H1697 C1637 0.931 . S
H1698 C1638 0.959 . S
H1699 C1638 0.961 . S
H1700 C1638 0.959 . S
H1701 C1639 0.960 . S
H1702 C1639 0.960 . S
H1703 C1639 0.960 . S
H1704 C1675 0.980 1_565 S
H1705 C1641 0.930 . S
H1706 C1645 0.930 . S
H1707 C1646 0.961 . S
H1708 C1646 0.960 . S
H1709 C1646 0.958 . S
H1710 C1647 0.961 . S
H1711 C1647 0.960 . S
H1712 C1647 0.960 . S
H1713 C1649 0.980 . S
H1714 C1648 0.961 . S
H1715 C1648 0.961 . S
H1716 C1648 0.959 . S
H1717 C1651 0.932 . S
H1718 C1655 0.929 . S
H1719 C1656 0.961 . S
H1720 C1656 0.959 . S
H1721 C1656 0.959 . S
H1722 C1657 0.960 . S
H1723 C1657 0.962 . S
H1724 C1657 0.961 . S
H1725 C1659 0.929 . S
H1726 C1662 0.930 . S
H1727 C1663 0.929 . S
H1728 C1666 0.930 . S
H1729 C1669 0.959 . S
H1730 C1670 0.930 . S
H1731 C1674 0.962 . S
H1732 C1674 0.959 . S
H1733 C1674 0.958 . S
C1734 C1735 1.560 . S
C1734 H1795 0.959 . S
C1734 H1796 0.959 . S
C1734 H1797 0.960 . S
C1735 C1734 1.560 . S
C1735 O1790 1.426 . S
C1735 H1794 0.980 1_455 S
C1736 C1737 1.407 1_455 S
C1736 C1741 1.418 . S
C1736 O1790 1.334 . S
C1737 C1736 1.407 1_655 S
C1737 C1738 1.360 . S
C1737 H1798 0.929 . S
C1738 C1737 1.360 . S
C1738 C1739 1.401 . S
C1738 C1742 1.527 . S
C1739 C1738 1.401 . S
C1739 C1740 1.405 1_655 S
C1739 C1772 1.587 . S
C1740 C1739 1.405 1_455 S
C1740 C1741 1.332 . S
C1740 C1743 1.496 . S
C1741 C1736 1.418 . S
C1741 C1740 1.332 . S
C1741 H1799 0.929 . S
C1742 C1738 1.527 . S
C1742 H1800 0.959 . S
C1742 H1801 0.961 . S
C1742 H1802 0.961 . S
C1743 C1740 1.496 . S
C1743 H1803 0.960 . S
C1743 H1804 0.960 . S
C1743 H1805 0.961 . S
C1744 C1745 1.517 . S
C1744 H1807 0.961 . S
C1744 H1808 0.960 . S
C1744 H1809 0.959 . S
C1745 C1744 1.517 . S
C1745 O1793 1.468 . S
C1745 H1806 0.980 . S
C1746 C1747 1.349 . S
C1746 C1751 1.367 . S
C1746 O1793 1.408 . S
C1747 C1746 1.349 . S
C1747 C1748 1.407 . S
C1747 H1810 0.886 1_655 S
C1748 C1747 1.407 . S
C1748 C1749 1.449 . S
C1748 C1752 1.535 1_655 S
C1749 C1748 1.449 . S
C1749 C1750 1.384 . S
C1749 C1774 1.553 . S
C1750 C1749 1.384 . S
C1750 C1751 1.364 . S
C1750 C1753 1.450 . S
C1751 C1746 1.367 . S
C1751 C1750 1.364 . S
C1751 H1811 0.931 . S
C1752 C1748 1.535 1_455 S
C1752 H1812 0.959 . S
C1752 H1813 0.961 . S
C1752 H1814 0.959 . S
C1753 C1750 1.450 . S
C1753 H1815 0.960 . S
C1753 H1816 0.960 . S
C1753 H1817 0.960 . S
C1754 C1755 1.309 1_655 S
C1754 C1759 1.304 . S
C1754 O1792 1.435 . S
C1755 C1754 1.309 1_455 S
C1755 C1756 1.476 . S
C1755 H1819 0.930 . S
C1756 C1755 1.476 . S
C1756 C1757 1.400 1_455 S
C1756 C1760 1.567 . S
C1757 C1756 1.400 1_655 S
C1757 C1758 1.373 . S
C1757 C1779 1.432 . S
C1758 C1757 1.373 . S
C1758 C1759 1.339 . S
C1758 C1761 1.530 . S
C1759 C1754 1.304 . S
C1759 C1758 1.339 . S
C1759 H1820 0.930 . S
C1760 C1756 1.567 . S
C1760 H1821 0.961 . S
C1760 H1822 0.960 . S
C1760 H1823 0.958 . S
C1761 C1758 1.530 . S
C1761 H1824 0.961 . S
C1761 H1825 0.960 . S
C1761 H1826 0.960 . S
C1762 C1763 1.530 . S
C1762 H1828 0.961 . S
C1762 H1829 0.961 . S
C1762 H1830 0.959 . S
C1763 C1762 1.530 . S
C1763 O1791 1.412 . S
C1763 H1827 0.969 1_455 S
C1764 C1765 1.288 . S
C1764 C1769 1.377 1_455 S
C1764 O1791 1.393 . S
C1765 C1764 1.288 . S
C1765 C1766 1.369 . S
C1765 H1831 0.932 . S
C1766 C1765 1.369 . S
C1766 C1767 1.398 . S
C1766 C1770 1.527 . S
C1767 C1766 1.398 . S
C1767 C1768 1.380 1_455 S
C1767 C1781 1.497 1_455 S
C1768 C1767 1.380 1_655 S
C1768 C1769 1.383 . S
C1768 C1771 1.603 . S
C1769 C1764 1.377 1_655 S
C1769 C1768 1.383 . S
C1769 H1832 0.929 . S
C1770 C1766 1.527 . S
C1770 H1833 0.961 . S
C1770 H1834 0.959 . S
C1770 H1835 0.959 . S
C1771 C1768 1.603 . S
C1771 H1836 0.960 . S
C1771 H1837 0.962 . S
C1771 H1838 0.961 . S
C1772 C1739 1.587 . S
C1772 C1773 1.360 . S
C1772 C1785 1.412 . S
C1773 C1772 1.360 . S
C1773 C1774 1.365 . S
C1773 H1839 0.929 . S
C1774 C1749 1.553 . S
C1774 C1773 1.365 . S
C1774 C1775 1.404 . S
C1775 C1774 1.404 . S
C1775 C1776 1.395 . S
C1775 C1786 1.451 . S
C1776 C1775 1.395 . S
C1776 C1777 1.322 . S
C1776 H1840 0.930 . S
C1777 C1776 1.322 . S
C1777 C1778 1.459 . S
C1777 H1841 0.929 . S
C1778 C1777 1.459 . S
C1778 C1779 1.445 . S
C1778 C1787 1.395 . S
C1779 C1757 1.432 . S
C1779 C1778 1.445 . S
C1779 C1780 1.370 . S
C1780 C1779 1.370 . S
C1780 C1781 1.438 . S
C1780 H1842 0.930 . S
C1781 C1767 1.497 1_655 S
C1781 C1780 1.438 . S
C1781 C1782 1.360 . S
C1782 C1781 1.360 . S
C1782 C1783 1.401 . S
C1782 C1787 1.446 . S
C1783 C1782 1.401 . S
C1783 C1784 1.347 . S
C1783 H1843 0.929 . S
C1784 C1783 1.347 . S
C1784 C1785 1.455 . S
C1784 H1844 0.930 . S
C1785 C1772 1.412 . S
C1785 C1784 1.455 . S
C1785 C1786 1.331 . S
C1786 C1775 1.451 . S
C1786 C1785 1.331 . S
C1786 C1787 1.497 . S
C1787 C1778 1.395 . S
C1787 C1782 1.446 . S
C1787 C1786 1.497 . S
C1788 C1789 1.582 1_655 S
C1788 H1845 0.966 1_655 S
C1788 H1846 0.959 . S
C1788 H1847 0.958 . S
C1789 C1788 1.582 1_455 S
C1789 O1792 1.458 1_455 S
C1789 H1818 0.980 . S
O1790 C1735 1.426 . S
O1790 C1736 1.334 . S
O1791 C1763 1.412 . S
O1791 C1764 1.393 . S
O1792 C1754 1.435 . S
O1792 C1789 1.458 1_655 S
O1793 C1745 1.468 . S
O1793 C1746 1.408 . S
H1794 C1735 0.980 1_655 S
H1795 C1734 0.959 . S
H1796 C1734 0.959 . S
H1797 C1734 0.960 . S
H1798 C1737 0.929 . S
H1799 C1741 0.929 . S
H1800 C1742 0.959 . S
H1801 C1742 0.961 . S
H1802 C1742 0.961 . S
H1803 C1743 0.960 . S
H1804 C1743 0.960 . S
H1805 C1743 0.961 . S
H1806 C1745 0.980 . S
H1807 C1744 0.961 . S
H1808 C1744 0.960 . S
H1809 C1744 0.959 . S
H1810 C1747 0.886 1_455 S
H1811 C1751 0.931 . S
H1812 C1752 0.959 . S
H1813 C1752 0.961 . S
H1814 C1752 0.959 . S
H1815 C1753 0.960 . S
H1816 C1753 0.960 . S
H1817 C1753 0.960 . S
H1818 C1789 0.980 . S
H1819 C1755 0.930 . S
H1820 C1759 0.930 . S
H1821 C1760 0.961 . S
H1822 C1760 0.960 . S
H1823 C1760 0.958 . S
H1824 C1761 0.961 . S
H1825 C1761 0.960 . S
H1826 C1761 0.960 . S
H1827 C1763 0.969 1_655 S
H1828 C1762 0.961 . S
H1829 C1762 0.961 . S
H1830 C1762 0.959 . S
H1831 C1765 0.932 . S
H1832 C1769 0.929 . S
H1833 C1770 0.961 . S
H1834 C1770 0.959 . S
H1835 C1770 0.959 . S
H1836 C1771 0.960 . S
H1837 C1771 0.962 . S
H1838 C1771 0.961 . S
H1839 C1773 0.929 . S
H1840 C1776 0.930 . S
H1841 C1777 0.929 . S
H1842 C1780 0.930 . S
H1843 C1783 0.929 . S
H1844 C1784 0.930 . S
H1845 C1788 0.966 1_455 S
H1846 C1788 0.959 . S
H1847 C1788 0.958 . S
C1848 C1849 1.560 . S
C1848 H1909 0.959 . S
C1848 H1910 0.959 . S
C1848 H1911 0.960 . S
C1849 C1848 1.560 . S
C1849 O1904 1.426 . S
C1849 H1908 0.980 . S
C1850 C1851 1.407 . S
C1850 C1855 1.418 . S
C1850 O1904 1.334 . S
C1851 C1850 1.407 . S
C1851 C1852 1.360 . S
C1851 H1912 0.929 . S
C1852 C1851 1.360 . S
C1852 C1853 1.401 . S
C1852 C1856 1.527 . S
C1853 C1852 1.401 . S
C1853 C1854 1.405 . S
C1853 C1886 1.587 . S
C1854 C1853 1.405 . S
C1854 C1855 1.332 . S
C1854 C1857 1.496 . S
C1855 C1850 1.418 . S
C1855 C1854 1.332 . S
C1855 H1913 0.929 . S
C1856 C1852 1.527 . S
C1856 H1914 0.959 . S
C1856 H1915 0.961 . S
C1856 H1916 0.961 . S
C1857 C1854 1.496 . S
C1857 H1917 0.960 . S
C1857 H1918 0.960 . S
C1857 H1919 0.961 . S
C1858 C1859 1.517 . S
C1858 H1921 0.961 . S
C1858 H1922 0.960 . S
C1858 H1923 0.959 . S
C1859 C1858 1.517 . S
C1859 O1907 1.468 . S
C1859 H1920 0.980 . S
C1860 C1861 1.349 . S
C1860 C1865 1.367 . S
C1860 O1907 1.408 . S
C1861 C1860 1.349 . S
C1861 C1862 1.407 . S
C1861 H1924 0.930 . S
C1862 C1861 1.407 . S
C1862 C1863 1.449 . S
C1862 C1866 1.535 . S
C1863 C1862 1.449 . S
C1863 C1864 1.384 . S
C1863 C1888 1.553 . S
C1864 C1863 1.384 . S
C1864 C1865 1.364 . S
C1864 C1867 1.450 . S
C1865 C1860 1.367 . S
C1865 C1864 1.364 . S
C1865 H1925 0.931 . S
C1866 C1862 1.535 . S
C1866 H1926 0.959 . S
C1866 H1927 0.961 . S
C1866 H1928 0.959 . S
C1867 C1864 1.450 . S
C1867 H1929 0.960 . S
C1867 H1930 0.960 . S
C1867 H1931 0.960 . S
C1868 C1869 1.309 . S
C1868 C1873 1.304 . S
C1868 O1906 1.435 . S
C1869 C1868 1.309 . S
C1869 C1870 1.476 . S
C1869 H1933 0.930 . S
C1870 C1869 1.476 . S
C1870 C1871 1.400 . S
C1870 C1874 1.567 . S
C1871 C1870 1.400 . S
C1871 C1872 1.373 . S
C1871 C1893 1.432 . S
C1872 C1871 1.373 . S
C1872 C1873 1.339 . S
C1872 C1875 1.530 . S
C1873 C1868 1.304 . S
C1873 C1872 1.339 . S
C1873 H1934 0.930 . S
C1874 C1870 1.567 . S
C1874 H1935 0.961 . S
C1874 H1936 0.960 . S
C1874 H1937 0.958 . S
C1875 C1872 1.530 . S
C1875 H1938 0.961 . S
C1875 H1939 0.960 . S
C1875 H1940 0.960 . S
C1876 C1877 1.530 . S
C1876 H1942 0.961 . S
C1876 H1943 0.961 . S
C1876 H1944 0.959 . S
C1877 C1876 1.530 . S
C1877 O1905 1.412 . S
C1877 H1941 0.980 . S
C1878 C1879 1.288 . S
C1878 C1883 1.377 . S
C1878 O1905 1.393 . S
C1879 C1878 1.288 . S
C1879 C1880 1.369 . S
C1879 H1945 0.932 . S
C1880 C1879 1.369 . S
C1880 C1881 1.398 . S
C1880 C1884 1.527 . S
C1881 C1880 1.398 . S
C1881 C1882 1.380 . S
C1881 C1895 1.497 . S
C1882 C1881 1.380 . S
C1882 C1883 1.383 . S
C1882 C1885 1.603 . S
C1883 C1878 1.377 . S
C1883 C1882 1.383 . S
C1883 H1946 0.929 . S
C1884 C1880 1.527 . S
C1884 H1947 0.961 . S
C1884 H1948 0.959 . S
C1884 H1949 0.959 . S
C1885 C1882 1.603 . S
C1885 H1950 0.960 . S
C1885 H1951 0.962 . S
C1885 H1952 0.961 . S
C1886 C1853 1.587 . S
C1886 C1887 1.360 . S
C1886 C1899 1.412 . S
C1887 C1886 1.360 . S
C1887 C1888 1.365 . S
C1887 H1953 0.929 . S
C1888 C1863 1.553 . S
C1888 C1887 1.365 . S
C1888 C1889 1.404 . S
C1889 C1888 1.404 . S
C1889 C1890 1.395 . S
C1889 C1900 1.451 . S
C1890 C1889 1.395 . S
C1890 C1891 1.322 . S
C1890 H1954 0.930 . S
C1891 C1890 1.322 . S
C1891 C1892 1.459 . S
C1891 H1955 0.929 . S
C1892 C1891 1.459 . S
C1892 C1893 1.445 . S
C1892 C1901 1.395 . S
C1893 C1871 1.432 . S
C1893 C1892 1.445 . S
C1893 C1894 1.370 . S
C1894 C1893 1.370 . S
C1894 C1895 1.438 . S
C1894 H1956 0.930 . S
C1895 C1881 1.497 . S
C1895 C1894 1.438 . S
C1895 C1896 1.360 . S
C1896 C1895 1.360 . S
C1896 C1897 1.401 . S
C1896 C1901 1.446 . S
C1897 C1896 1.401 . S
C1897 C1898 1.347 . S
C1897 H1957 0.929 . S
C1898 C1897 1.347 . S
C1898 C1899 1.455 . S
C1898 H1958 0.930 . S
C1899 C1886 1.412 . S
C1899 C1898 1.455 . S
C1899 C1900 1.331 . S
C1900 C1889 1.451 . S
C1900 C1899 1.331 . S
C1900 C1901 1.497 . S
C1901 C1892 1.395 . S
C1901 C1896 1.446 . S
C1901 C1900 1.497 . S
C1902 C1903 1.582 . S
C1902 H1959 0.962 . S
C1902 H1960 0.959 . S
C1902 H1961 0.958 . S
C1903 C1902 1.582 . S
C1903 O1906 1.458 . S
C1903 H1932 0.980 . S
O1904 C1849 1.426 . S
O1904 C1850 1.334 . S
O1905 C1877 1.412 . S
O1905 C1878 1.393 . S
O1906 C1868 1.435 . S
O1906 C1903 1.458 . S
O1907 C1859 1.468 . S
O1907 C1860 1.408 . S
H1908 C1849 0.980 . S
H1909 C1848 0.959 . S
H1910 C1848 0.959 . S
H1911 C1848 0.960 . S
H1912 C1851 0.929 . S
H1913 C1855 0.929 . S
H1914 C1856 0.959 . S
H1915 C1856 0.961 . S
H1916 C1856 0.961 . S
H1917 C1857 0.960 . S
H1918 C1857 0.960 . S
H1919 C1857 0.961 . S
H1920 C1859 0.980 . S
H1921 C1858 0.961 . S
H1922 C1858 0.960 . S
H1923 C1858 0.959 . S
H1924 C1861 0.930 . S
H1925 C1865 0.931 . S
H1926 C1866 0.959 . S
H1927 C1866 0.961 . S
H1928 C1866 0.959 . S
H1929 C1867 0.960 . S
H1930 C1867 0.960 . S
H1931 C1867 0.960 . S
H1932 C1903 0.980 . S
H1933 C1869 0.930 . S
H1934 C1873 0.930 . S
H1935 C1874 0.961 . S
H1936 C1874 0.960 . S
H1937 C1874 0.958 . S
H1938 C1875 0.961 . S
H1939 C1875 0.960 . S
H1940 C1875 0.960 . S
H1941 C1877 0.980 . S
H1942 C1876 0.961 . S
H1943 C1876 0.961 . S
H1944 C1876 0.959 . S
H1945 C1879 0.932 . S
H1946 C1883 0.929 . S
H1947 C1884 0.961 . S
H1948 C1884 0.959 . S
H1949 C1884 0.959 . S
H1950 C1885 0.960 . S
H1951 C1885 0.962 . S
H1952 C1885 0.961 . S
H1953 C1887 0.929 . S
H1954 C1890 0.930 . S
H1955 C1891 0.929 . S
H1956 C1894 0.930 . S
H1957 C1897 0.929 . S
H1958 C1898 0.930 . S
H1959 C1902 0.962 . S
H1960 C1902 0.959 . S
H1961 C1902 0.958 . S
C1962 C1963 1.560 . S
C1962 H2023 0.959 . S
C1962 H2024 0.959 . S
C1962 H2025 0.960 . S
C1963 C1962 1.560 . S
C1963 O2018 1.426 . S
C1963 H2022 0.980 . S
C1964 C1965 1.407 . S
C1964 C1969 1.418 . S
C1964 O2018 1.334 . S
C1965 C1964 1.407 . S
C1965 C1966 1.360 . S
C1965 H2026 0.929 . S
C1966 C1965 1.360 . S
C1966 C1967 1.401 . S
C1966 C1970 1.527 . S
C1967 C1966 1.401 . S
C1967 C1968 1.405 . S
C1967 C2000 1.587 . S
C1968 C1967 1.405 . S
C1968 C1969 1.332 . S
C1968 C1971 1.496 . S
C1969 C1964 1.418 . S
C1969 C1968 1.332 . S
C1969 H2027 0.929 . S
C1970 C1966 1.527 . S
C1970 H2028 0.959 . S
C1970 H2029 0.961 . S
C1970 H2030 0.961 . S
C1971 C1968 1.496 . S
C1971 H2031 0.960 . S
C1971 H2032 0.960 . S
C1971 H2033 0.961 . S
C1972 C1973 1.517 . S
C1972 H2035 0.961 . S
C1972 H2036 0.960 . S
C1972 H2037 0.959 . S
C1973 C1972 1.517 . S
C1973 O2021 1.468 . S
C1973 H2034 0.980 . S
C1974 C1975 1.349 . S
C1974 C1979 1.367 . S
C1974 O2021 1.408 . S
C1975 C1974 1.349 . S
C1975 C1976 1.407 . S
C1975 H2038 0.930 . S
C1976 C1975 1.407 . S
C1976 C1977 1.449 . S
C1976 C1980 1.535 . S
C1977 C1976 1.449 . S
C1977 C1978 1.384 . S
C1977 C2002 1.553 . S
C1978 C1977 1.384 . S
C1978 C1979 1.364 . S
C1978 C1981 1.450 . S
C1979 C1974 1.367 . S
C1979 C1978 1.364 . S
C1979 H2039 0.931 . S
C1980 C1976 1.535 . S
C1980 H2040 0.959 . S
C1980 H2041 0.961 . S
C1980 H2042 0.959 . S
C1981 C1978 1.450 . S
C1981 H2043 0.960 . S
C1981 H2044 0.960 . S
C1981 H2045 0.960 . S
C1982 C1983 1.309 . S
C1982 C1987 1.304 . S
C1982 O2020 1.435 . S
C1983 C1982 1.309 . S
C1983 C1984 1.476 . S
C1983 H2047 0.930 . S
C1984 C1983 1.476 . S
C1984 C1985 1.400 . S
C1984 C1988 1.567 . S
C1985 C1984 1.400 . S
C1985 C1986 1.373 . S
C1985 C2007 1.432 . S
C1986 C1985 1.373 . S
C1986 C1987 1.339 . S
C1986 C1989 1.530 . S
C1987 C1982 1.304 . S
C1987 C1986 1.339 . S
C1987 H2048 0.930 . S
C1988 C1984 1.567 . S
C1988 H2049 0.961 . S
C1988 H2050 0.960 . S
C1988 H2051 0.958 . S
C1989 C1986 1.530 . S
C1989 H2052 0.961 . S
C1989 H2053 0.960 . S
C1989 H2054 0.960 . S
C1990 C1991 1.530 . S
C1990 H2056 0.961 . S
C1990 H2057 0.961 . S
C1990 H2058 0.959 . S
C1991 C1990 1.530 . S
C1991 O2019 1.412 . S
C1991 H2055 0.980 . S
C1992 C1993 1.288 . S
C1992 C1997 1.377 . S
C1992 O2019 1.393 . S
C1993 C1992 1.288 . S
C1993 C1994 1.369 . S
C1993 H2059 0.932 . S
C1994 C1993 1.369 . S
C1994 C1995 1.398 . S
C1994 C1998 1.527 . S
C1995 C1994 1.398 . S
C1995 C1996 1.380 . S
C1995 C2009 1.497 . S
C1996 C1995 1.380 . S
C1996 C1997 1.383 . S
C1996 C1999 1.603 . S
C1997 C1992 1.377 . S
C1997 C1996 1.383 . S
C1997 H2060 0.929 . S
C1998 C1994 1.527 . S
C1998 H2061 0.961 . S
C1998 H2062 0.959 . S
C1998 H2063 0.959 . S
C1999 C1996 1.603 . S
C1999 H2064 0.960 . S
C1999 H2065 0.962 . S
C1999 H2066 0.961 . S
C2000 C1967 1.587 . S
C2000 C2001 1.360 . S
C2000 C2013 1.412 . S
C2001 C2000 1.360 . S
C2001 C2002 1.365 . S
C2001 H2067 0.929 . S
C2002 C1977 1.553 . S
C2002 C2001 1.365 . S
C2002 C2003 1.404 . S
C2003 C2002 1.404 . S
C2003 C2004 1.395 . S
C2003 C2014 1.451 . S
C2004 C2003 1.395 . S
C2004 C2005 1.322 . S
C2004 H2068 0.930 . S
C2005 C2004 1.322 . S
C2005 C2006 1.459 . S
C2005 H2069 0.929 . S
C2006 C2005 1.459 . S
C2006 C2007 1.445 . S
C2006 C2015 1.395 . S
C2007 C1985 1.432 . S
C2007 C2006 1.445 . S
C2007 C2008 1.370 . S
C2008 C2007 1.370 . S
C2008 C2009 1.438 . S
C2008 H2070 0.930 . S
C2009 C1995 1.497 . S
C2009 C2008 1.438 . S
C2009 C2010 1.360 . S
C2010 C2009 1.360 . S
C2010 C2011 1.401 . S
C2010 C2015 1.446 . S
C2011 C2010 1.401 . S
C2011 C2012 1.347 . S
C2011 H2071 0.929 . S
C2012 C2011 1.347 . S
C2012 C2013 1.455 . S
C2012 H2072 0.930 . S
C2013 C2000 1.412 . S
C2013 C2012 1.455 . S
C2013 C2014 1.331 . S
C2014 C2003 1.451 . S
C2014 C2013 1.331 . S
C2014 C2015 1.497 . S
C2015 C2006 1.395 . S
C2015 C2010 1.446 . S
C2015 C2014 1.497 . S
C2016 C2017 1.582 . S
C2016 H2073 0.962 . S
C2016 H2074 0.959 . S
C2016 H2075 0.958 . S
C2017 C2016 1.582 . S
C2017 O2020 1.458 . S
C2017 H2046 0.980 . S
O2018 C1963 1.426 . S
O2018 C1964 1.334 . S
O2019 C1991 1.412 . S
O2019 C1992 1.393 . S
O2020 C1982 1.435 . S
O2020 C2017 1.458 . S
O2021 C1973 1.468 . S
O2021 C1974 1.408 . S
H2022 C1963 0.980 . S
H2023 C1962 0.959 . S
H2024 C1962 0.959 . S
H2025 C1962 0.960 . S
H2026 C1965 0.929 . S
H2027 C1969 0.929 . S
H2028 C1970 0.959 . S
H2029 C1970 0.961 . S
H2030 C1970 0.961 . S
H2031 C1971 0.960 . S
H2032 C1971 0.960 . S
H2033 C1971 0.961 . S
H2034 C1973 0.980 . S
H2035 C1972 0.961 . S
H2036 C1972 0.960 . S
H2037 C1972 0.959 . S
H2038 C1975 0.930 . S
H2039 C1979 0.931 . S
H2040 C1980 0.959 . S
H2041 C1980 0.961 . S
H2042 C1980 0.959 . S
H2043 C1981 0.960 . S
H2044 C1981 0.960 . S
H2045 C1981 0.960 . S
H2046 C2017 0.980 . S
H2047 C1983 0.930 . S
H2048 C1987 0.930 . S
H2049 C1988 0.961 . S
H2050 C1988 0.960 . S
H2051 C1988 0.958 . S
H2052 C1989 0.961 . S
H2053 C1989 0.960 . S
H2054 C1989 0.960 . S
H2055 C1991 0.980 . S
H2056 C1990 0.961 . S
H2057 C1990 0.961 . S
H2058 C1990 0.959 . S
H2059 C1993 0.932 . S
H2060 C1997 0.929 . S
H2061 C1998 0.961 . S
H2062 C1998 0.959 . S
H2063 C1998 0.959 . S
H2064 C1999 0.960 . S
H2065 C1999 0.962 . S
H2066 C1999 0.961 . S
H2067 C2001 0.929 . S
H2068 C2004 0.930 . S
H2069 C2005 0.929 . S
H2070 C2008 0.930 . S
H2071 C2011 0.929 . S
H2072 C2012 0.930 . S
H2073 C2016 0.962 . S
H2074 C2016 0.959 . S
H2075 C2016 0.958 . S
C2076 C2077 1.560 . S
C2076 H2137 0.959 . S
C2076 H2138 0.959 . S
C2076 H2139 0.960 . S
C2077 C2076 1.560 . S
C2077 O2132 1.426 . S
C2077 H2136 0.980 . S
C2078 C2079 1.407 . S
C2078 C2083 1.418 . S
C2078 O2132 1.334 . S
C2079 C2078 1.407 . S
C2079 C2080 1.360 . S
C2079 H2140 0.929 . S
C2080 C2079 1.360 . S
C2080 C2081 1.401 . S
C2080 C2084 1.527 . S
C2081 C2080 1.401 . S
C2081 C2082 1.405 . S
C2081 C2114 1.587 . S
C2082 C2081 1.405 . S
C2082 C2083 1.332 . S
C2082 C2085 1.496 . S
C2083 C2078 1.418 . S
C2083 C2082 1.332 . S
C2083 H2141 0.929 . S
C2084 C2080 1.527 . S
C2084 H2142 0.959 . S
C2084 H2143 0.961 . S
C2084 H2144 0.961 . S
C2085 C2082 1.496 . S
C2085 H2145 0.960 . S
C2085 H2146 0.960 . S
C2085 H2147 0.961 . S
C2086 C2087 1.517 . S
C2086 H2149 0.961 . S
C2086 H2150 0.960 . S
C2086 H2151 0.959 . S
C2087 C2086 1.517 . S
C2087 O2135 1.468 . S
C2087 H2148 0.980 . S
C2088 C2089 1.349 . S
C2088 C2093 1.367 . S
C2088 O2135 1.408 . S
C2089 C2088 1.349 . S
C2089 C2090 1.407 . S
C2089 H2152 0.930 . S
C2090 C2089 1.407 . S
C2090 C2091 1.449 . S
C2090 C2094 1.535 . S
C2091 C2090 1.449 . S
C2091 C2092 1.384 . S
C2091 C2116 1.553 . S
C2092 C2091 1.384 . S
C2092 C2093 1.364 . S
C2092 C2095 1.450 . S
C2093 C2088 1.367 . S
C2093 C2092 1.364 . S
C2093 H2153 0.931 . S
C2094 C2090 1.535 . S
C2094 H2154 0.959 . S
C2094 H2155 0.961 . S
C2094 H2156 0.959 . S
C2095 C2092 1.450 . S
C2095 H2157 0.960 . S
C2095 H2158 0.960 . S
C2095 H2159 0.960 . S
C2096 C2097 1.309 . S
C2096 C2101 1.304 . S
C2096 O2134 1.435 . S
C2097 C2096 1.309 . S
C2097 C2098 1.476 . S
C2097 H2161 0.930 . S
C2098 C2097 1.476 . S
C2098 C2099 1.400 . S
C2098 C2102 1.567 . S
C2099 C2098 1.400 . S
C2099 C2100 1.373 . S
C2099 C2121 1.432 . S
C2100 C2099 1.373 . S
C2100 C2101 1.339 . S
C2100 C2103 1.530 . S
C2101 C2096 1.304 . S
C2101 C2100 1.339 . S
C2101 H2162 0.930 . S
C2102 C2098 1.567 . S
C2102 H2163 0.961 . S
C2102 H2164 0.960 . S
C2102 H2165 0.958 . S
C2103 C2100 1.530 . S
C2103 H2166 0.961 . S
C2103 H2167 0.960 . S
C2103 H2168 0.960 . S
C2104 C2105 1.530 . S
C2104 H2170 0.961 . S
C2104 H2171 0.961 . S
C2104 H2172 0.959 . S
C2105 C2104 1.530 . S
C2105 O2133 1.412 . S
C2105 H2169 0.980 . S
C2106 C2107 1.288 . S
C2106 C2111 1.377 . S
C2106 O2133 1.393 . S
C2107 C2106 1.288 . S
C2107 C2108 1.369 . S
C2107 H2173 0.932 . S
C2108 C2107 1.369 . S
C2108 C2109 1.398 . S
C2108 C2112 1.527 . S
C2109 C2108 1.398 . S
C2109 C2110 1.380 . S
C2109 C2123 1.497 . S
C2110 C2109 1.380 . S
C2110 C2111 1.383 . S
C2110 C2113 1.603 . S
C2111 C2106 1.377 . S
C2111 C2110 1.383 . S
C2111 H2174 0.929 . S
C2112 C2108 1.527 . S
C2112 H2175 0.961 . S
C2112 H2176 0.959 . S
C2112 H2177 0.959 . S
C2113 C2110 1.603 . S
C2113 H2178 0.960 . S
C2113 H2179 0.962 . S
C2113 H2180 0.961 . S
C2114 C2081 1.587 . S
C2114 C2115 1.360 . S
C2114 C2127 1.412 . S
C2115 C2114 1.360 . S
C2115 C2116 1.365 . S
C2115 H2181 0.929 . S
C2116 C2091 1.553 . S
C2116 C2115 1.365 . S
C2116 C2117 1.404 . S
C2117 C2116 1.404 . S
C2117 C2118 1.395 . S
C2117 C2128 1.451 . S
C2118 C2117 1.395 . S
C2118 C2119 1.322 . S
C2118 H2182 0.930 . S
C2119 C2118 1.322 . S
C2119 C2120 1.459 . S
C2119 H2183 0.929 . S
C2120 C2119 1.459 . S
C2120 C2121 1.445 . S
C2120 C2129 1.395 . S
C2121 C2099 1.432 . S
C2121 C2120 1.445 . S
C2121 C2122 1.370 . S
C2122 C2121 1.370 . S
C2122 C2123 1.438 . S
C2122 H2184 0.930 . S
C2123 C2109 1.497 . S
C2123 C2122 1.438 . S
C2123 C2124 1.360 . S
C2124 C2123 1.360 . S
C2124 C2125 1.401 . S
C2124 C2129 1.446 . S
C2125 C2124 1.401 . S
C2125 C2126 1.347 . S
C2125 H2185 0.929 . S
C2126 C2125 1.347 . S
C2126 C2127 1.455 . S
C2126 H2186 0.930 . S
C2127 C2114 1.412 . S
C2127 C2126 1.455 . S
C2127 C2128 1.331 . S
C2128 C2117 1.451 . S
C2128 C2127 1.331 . S
C2128 C2129 1.497 . S
C2129 C2120 1.395 . S
C2129 C2124 1.446 . S
C2129 C2128 1.497 . S
C2130 C2131 1.582 . S
C2130 H2187 0.962 . S
C2130 H2188 0.959 . S
C2130 H2189 0.958 . S
C2131 C2130 1.582 . S
C2131 O2134 1.458 . S
C2131 H2160 0.980 . S
O2132 C2077 1.426 . S
O2132 C2078 1.334 . S
O2133 C2105 1.412 . S
O2133 C2106 1.393 . S
O2134 C2096 1.435 . S
O2134 C2131 1.458 . S
O2135 C2087 1.468 . S
O2135 C2088 1.408 . S
H2136 C2077 0.980 . S
H2137 C2076 0.959 . S
H2138 C2076 0.959 . S
H2139 C2076 0.960 . S
H2140 C2079 0.929 . S
H2141 C2083 0.929 . S
H2142 C2084 0.959 . S
H2143 C2084 0.961 . S
H2144 C2084 0.961 . S
H2145 C2085 0.960 . S
H2146 C2085 0.960 . S
H2147 C2085 0.961 . S
H2148 C2087 0.980 . S
H2149 C2086 0.961 . S
H2150 C2086 0.960 . S
H2151 C2086 0.959 . S
H2152 C2089 0.930 . S
H2153 C2093 0.931 . S
H2154 C2094 0.959 . S
H2155 C2094 0.961 . S
H2156 C2094 0.959 . S
H2157 C2095 0.960 . S
H2158 C2095 0.960 . S
H2159 C2095 0.960 . S
H2160 C2131 0.980 . S
H2161 C2097 0.930 . S
H2162 C2101 0.930 . S
H2163 C2102 0.961 . S
H2164 C2102 0.960 . S
H2165 C2102 0.958 . S
H2166 C2103 0.961 . S
H2167 C2103 0.960 . S
H2168 C2103 0.960 . S
H2169 C2105 0.980 . S
H2170 C2104 0.961 . S
H2171 C2104 0.961 . S
H2172 C2104 0.959 . S
H2173 C2107 0.932 . S
H2174 C2111 0.929 . S
H2175 C2112 0.961 . S
H2176 C2112 0.959 . S
H2177 C2112 0.959 . S
H2178 C2113 0.960 . S
H2179 C2113 0.962 . S
H2180 C2113 0.961 . S
H2181 C2115 0.929 . S
H2182 C2118 0.930 . S
H2183 C2119 0.929 . S
H2184 C2122 0.930 . S
H2185 C2125 0.929 . S
H2186 C2126 0.930 . S
H2187 C2130 0.962 . S
H2188 C2130 0.959 . S
H2189 C2130 0.958 . S
C2190 C2191 1.560 . S
C2190 H2251 0.959 . S
C2190 H2252 0.959 . S
C2190 H2253 0.960 . S
C2191 C2190 1.560 . S
C2191 O2246 1.426 . S
C2191 H2250 0.980 . S
C2192 C2193 1.407 . S
C2192 C2197 1.418 . S
C2192 O2246 1.334 . S
C2193 C2192 1.407 . S
C2193 C2194 1.360 . S
C2193 H2254 0.929 . S
C2194 C2193 1.360 . S
C2194 C2195 1.401 . S
C2194 C2198 1.527 . S
C2195 C2194 1.401 . S
C2195 C2196 1.405 . S
C2195 C2228 1.587 . S
C2196 C2195 1.405 . S
C2196 C2197 1.332 . S
C2196 C2199 1.496 . S
C2197 C2192 1.418 . S
C2197 C2196 1.332 . S
C2197 H2255 0.929 . S
C2198 C2194 1.527 . S
C2198 H2256 0.959 . S
C2198 H2257 0.961 . S
C2198 H2258 0.961 . S
C2199 C2196 1.496 . S
C2199 H2259 0.960 . S
C2199 H2260 0.960 . S
C2199 H2261 0.961 . S
C2200 C2201 1.517 . S
C2200 H2263 0.961 . S
C2200 H2264 0.960 . S
C2200 H2265 0.959 . S
C2201 C2200 1.517 . S
C2201 O2249 1.468 . S
C2201 H2262 0.980 . S
C2202 C2203 1.349 . S
C2202 C2207 1.367 . S
C2202 O2249 1.408 . S
C2203 C2202 1.349 . S
C2203 C2204 1.407 . S
C2203 H2266 0.930 . S
C2204 C2203 1.407 . S
C2204 C2205 1.449 . S
C2204 C2208 1.535 . S
C2205 C2204 1.449 . S
C2205 C2206 1.384 . S
C2205 C2230 1.553 . S
C2206 C2205 1.384 . S
C2206 C2207 1.364 . S
C2206 C2209 1.450 . S
C2207 C2202 1.367 . S
C2207 C2206 1.364 . S
C2207 H2267 0.931 . S
C2208 C2204 1.535 . S
C2208 H2268 0.959 . S
C2208 H2269 0.961 . S
C2208 H2270 0.959 . S
C2209 C2206 1.450 . S
C2209 H2271 0.960 . S
C2209 H2272 0.960 . S
C2209 H2273 0.960 . S
C2210 C2211 1.309 . S
C2210 C2215 1.304 . S
C2210 O2248 1.435 . S
C2211 C2210 1.309 . S
C2211 C2212 1.476 . S
C2211 H2275 0.930 . S
C2212 C2211 1.476 . S
C2212 C2213 1.400 . S
C2212 C2216 1.567 . S
C2213 C2212 1.400 . S
C2213 C2214 1.373 . S
C2213 C2235 1.432 . S
C2214 C2213 1.373 . S
C2214 C2215 1.339 . S
C2214 C2217 1.530 . S
C2215 C2210 1.304 . S
C2215 C2214 1.339 . S
C2215 H2276 0.930 . S
C2216 C2212 1.567 . S
C2216 H2277 0.961 . S
C2216 H2278 0.960 . S
C2216 H2279 0.958 . S
C2217 C2214 1.530 . S
C2217 H2280 0.961 . S
C2217 H2281 0.960 . S
C2217 H2282 0.960 . S
C2218 C2219 1.530 . S
C2218 H2284 0.961 . S
C2218 H2285 0.961 . S
C2218 H2286 0.959 . S
C2219 C2218 1.530 . S
C2219 O2247 1.412 . S
C2219 H2283 0.980 . S
C2220 C2221 1.288 . S
C2220 C2225 1.377 . S
C2220 O2247 1.393 . S
C2221 C2220 1.288 . S
C2221 C2222 1.369 . S
C2221 H2287 0.932 . S
C2222 C2221 1.369 . S
C2222 C2223 1.398 . S
C2222 C2226 1.527 . S
C2223 C2222 1.398 . S
C2223 C2224 1.380 . S
C2223 C2237 1.497 . S
C2224 C2223 1.380 . S
C2224 C2225 1.383 . S
C2224 C2227 1.603 . S
C2225 C2220 1.377 . S
C2225 C2224 1.383 . S
C2225 H2288 0.929 . S
C2226 C2222 1.527 . S
C2226 H2289 0.961 . S
C2226 H2290 0.959 . S
C2226 H2291 0.959 . S
C2227 C2224 1.603 . S
C2227 H2292 0.960 . S
C2227 H2293 0.962 . S
C2227 H2294 0.961 . S
C2228 C2195 1.587 . S
C2228 C2229 1.360 . S
C2228 C2241 1.412 . S
C2229 C2228 1.360 . S
C2229 C2230 1.365 . S
C2229 H2295 0.929 . S
C2230 C2205 1.553 . S
C2230 C2229 1.365 . S
C2230 C2231 1.404 . S
C2231 C2230 1.404 . S
C2231 C2232 1.395 . S
C2231 C2242 1.451 . S
C2232 C2231 1.395 . S
C2232 C2233 1.322 . S
C2232 H2296 0.930 . S
C2233 C2232 1.322 . S
C2233 C2234 1.459 . S
C2233 H2297 0.929 . S
C2234 C2233 1.459 . S
C2234 C2235 1.445 . S
C2234 C2243 1.395 . S
C2235 C2213 1.432 . S
C2235 C2234 1.445 . S
C2235 C2236 1.370 . S
C2236 C2235 1.370 . S
C2236 C2237 1.438 . S
C2236 H2298 0.930 . S
C2237 C2223 1.497 . S
C2237 C2236 1.438 . S
C2237 C2238 1.360 . S
C2238 C2237 1.360 . S
C2238 C2239 1.401 . S
C2238 C2243 1.446 . S
C2239 C2238 1.401 . S
C2239 C2240 1.347 . S
C2239 H2299 0.929 . S
C2240 C2239 1.347 . S
C2240 C2241 1.455 . S
C2240 H2300 0.930 . S
C2241 C2228 1.412 . S
C2241 C2240 1.455 . S
C2241 C2242 1.331 . S
C2242 C2231 1.451 . S
C2242 C2241 1.331 . S
C2242 C2243 1.497 . S
C2243 C2234 1.395 . S
C2243 C2238 1.446 . S
C2243 C2242 1.497 . S
C2244 C2245 1.582 . S
C2244 H2301 0.962 . S
C2244 H2302 0.959 . S
C2244 H2303 0.958 . S
C2245 C2244 1.582 . S
C2245 O2248 1.458 . S
C2245 H2274 0.980 . S
O2246 C2191 1.426 . S
O2246 C2192 1.334 . S
O2247 C2219 1.412 . S
O2247 C2220 1.393 . S
O2248 C2210 1.435 . S
O2248 C2245 1.458 . S
O2249 C2201 1.468 . S
O2249 C2202 1.408 . S
H2250 C2191 0.980 . S
H2251 C2190 0.959 . S
H2252 C2190 0.959 . S
H2253 C2190 0.960 . S
H2254 C2193 0.929 . S
H2255 C2197 0.929 . S
H2256 C2198 0.959 . S
H2257 C2198 0.961 . S
H2258 C2198 0.961 . S
H2259 C2199 0.960 . S
H2260 C2199 0.960 . S
H2261 C2199 0.961 . S
H2262 C2201 0.980 . S
H2263 C2200 0.961 . S
H2264 C2200 0.960 . S
H2265 C2200 0.959 . S
H2266 C2203 0.930 . S
H2267 C2207 0.931 . S
H2268 C2208 0.959 . S
H2269 C2208 0.961 . S
H2270 C2208 0.959 . S
H2271 C2209 0.960 . S
H2272 C2209 0.960 . S
H2273 C2209 0.960 . S
H2274 C2245 0.980 . S
H2275 C2211 0.930 . S
H2276 C2215 0.930 . S
H2277 C2216 0.961 . S
H2278 C2216 0.960 . S
H2279 C2216 0.958 . S
H2280 C2217 0.961 . S
H2281 C2217 0.960 . S
H2282 C2217 0.960 . S
H2283 C2219 0.980 . S
H2284 C2218 0.961 . S
H2285 C2218 0.961 . S
H2286 C2218 0.959 . S
H2287 C2221 0.932 . S
H2288 C2225 0.929 . S
H2289 C2226 0.961 . S
H2290 C2226 0.959 . S
H2291 C2226 0.959 . S
H2292 C2227 0.960 . S
H2293 C2227 0.962 . S
H2294 C2227 0.961 . S
H2295 C2229 0.929 . S
H2296 C2232 0.930 . S
H2297 C2233 0.929 . S
H2298 C2236 0.930 . S
H2299 C2239 0.929 . S
H2300 C2240 0.930 . S
H2301 C2244 0.962 . S
H2302 C2244 0.959 . S
H2303 C2244 0.958 . S
C2304 C2305 1.369 . S
C2304 C2306 1.419 . S
C2304 H2308 0.930 . S
C2305 C2304 1.369 . S
C2305 C2314 1.429 1_655 S
C2306 C2304 1.419 . S
C2306 C2307 1.363 . S
C2306 H2309 0.929 . S
C2307 C2306 1.363 . S
C2307 C2313 1.464 . S
H2308 C2304 0.930 . S
H2309 C2306 0.929 . S
S2310 N2311 1.613 . S
S2310 N2312 1.610 . S
N2311 S2310 1.613 . S
N2311 C2314 1.350 . S
N2312 S2310 1.610 . S
N2312 C2313 1.337 1_455 S
C2313 C2307 1.464 . S
C2313 N2312 1.337 1_655 S
C2313 C2314 1.411 1_655 S
C2314 C2305 1.429 1_455 S
C2314 N2311 1.350 . S
C2314 C2313 1.411 1_455 S
C2315 C2316 1.369 . S
C2315 C2317 1.419 . S
C2315 H2319 0.930 . S
C2316 C2315 1.369 . S
C2316 C2325 1.429 . S
C2317 C2315 1.419 . S
C2317 C2318 1.363 . S
C2317 H2320 0.929 . S
C2318 C2317 1.363 . S
C2318 C2324 1.428 . S
H2319 C2315 0.930 . S
H2320 C2317 0.929 . S
S2321 N2322 1.613 . S
S2321 N2323 1.610 . S
N2322 S2321 1.613 . S
N2322 C2325 1.350 . S
N2323 S2321 1.610 . S
N2323 C2324 1.351 . S
C2324 C2318 1.428 . S
C2324 N2323 1.351 . S
C2324 C2325 1.434 . S
C2325 C2316 1.429 . S
C2325 N2322 1.350 . S
C2325 C2324 1.434 . S
C2326 C2327 1.369 . S
C2326 C2328 1.419 . S
C2326 H2330 0.930 . S
C2327 C2326 1.369 . S
C2327 C2336 1.429 . S
C2328 C2326 1.419 . S
C2328 C2329 1.363 . S
C2328 H2331 0.929 . S
C2329 C2328 1.363 . S
C2329 C2335 1.428 . S
H2330 C2326 0.930 . S
H2331 C2328 0.929 . S
S2332 N2333 1.620 . S
S2332 N2334 1.610 . S
N2333 S2332 1.620 . S
N2333 C2336 1.350 . S
N2334 S2332 1.610 . S
N2334 C2335 1.351 . S
C2335 C2329 1.428 . S
C2335 N2334 1.351 . S
C2335 C2336 1.434 . S
C2336 C2327 1.429 . S
C2336 N2333 1.350 . S
C2336 C2335 1.434 . S
C2337 C2338 1.369 1_545 S
C2337 C2339 1.419 . S
C2337 H2341 0.930 . S
C2338 C2337 1.369 1_565 S
C2338 C2347 1.429 . S
C2339 C2337 1.419 . S
C2339 C2340 1.363 1_545 S
C2339 H2342 0.929 . S
C2340 C2339 1.363 1_565 S
C2340 C2346 1.428 . S
H2341 C2337 0.930 . S
H2342 C2339 0.929 . S
S2343 N2344 1.613 . S
S2343 N2345 1.610 . S
N2344 S2343 1.613 . S
N2344 C2347 1.350 . S
N2345 S2343 1.610 . S
N2345 C2346 1.351 . S
C2346 C2340 1.428 . S
C2346 N2345 1.351 . S
C2346 C2347 1.434 . S
C2347 C2338 1.429 . S
C2347 N2344 1.350 . S
C2347 C2346 1.434 . S
C2348 C2349 1.369 . S
C2348 C2350 1.419 . S
C2348 H2352 0.930 . S
C2349 C2348 1.369 . S
C2349 C2358 1.429 . S
C2350 C2348 1.419 . S
C2350 C2351 1.363 . S
C2350 H2353 0.929 . S
C2351 C2350 1.363 . S
C2351 C2357 1.428 . S
H2352 C2348 0.930 . S
H2353 C2350 0.929 . S
S2354 N2355 1.610 1_655 S
S2354 N2356 1.610 . S
N2355 S2354 1.610 1_455 S
N2355 C2358 1.352 . S
N2356 S2354 1.610 . S
N2356 C2357 1.351 1_655 S
C2357 C2351 1.428 . S
C2357 N2356 1.351 1_455 S
C2357 C2358 1.434 . S
C2358 C2349 1.429 . S
C2358 N2355 1.352 . S
C2358 C2357 1.434 . S
C2359 C2360 1.369 . S
C2359 C2361 1.419 . S
C2359 H2363 0.930 . S
C2360 C2359 1.369 . S
C2360 C2369 1.429 . S
C2361 C2359 1.419 . S
C2361 C2362 1.363 . S
C2361 H2364 0.929 . S
C2362 C2361 1.363 . S
C2362 C2368 1.428 . S
H2363 C2359 0.930 . S
H2364 C2361 0.929 . S
S2365 N2366 1.613 . S
S2365 N2367 1.610 . S
N2366 S2365 1.613 . S
N2366 C2369 1.350 . S
N2367 S2365 1.610 . S
N2367 C2368 1.351 . S
C2368 C2362 1.428 . S
C2368 N2367 1.351 . S
C2368 C2369 1.434 . S
C2369 C2360 1.429 . S
C2369 N2366 1.350 . S
C2369 C2368 1.434 . S
C2370 C2371 1.369 . S
C2370 C2372 1.419 . S
C2370 H2374 0.930 . S
C2371 C2370 1.369 . S
C2371 C2380 1.429 . S
C2372 C2370 1.419 . S
C2372 C2373 1.363 . S
C2372 H2375 0.929 . S
C2373 C2372 1.363 . S
C2373 C2379 1.428 . S
H2374 C2370 0.930 . S
H2375 C2372 0.929 . S
S2376 N2377 1.602 . S
S2376 N2378 1.620 1_455 S
N2377 S2376 1.602 . S
N2377 C2380 1.350 . S
N2378 S2376 1.620 1_655 S
N2378 C2379 1.375 1_655 S
C2379 C2373 1.428 . S
C2379 N2378 1.375 1_455 S
C2379 C2380 1.434 . S
C2380 C2371 1.429 . S
C2380 N2377 1.350 . S
C2380 C2379 1.434 . S
C2381 C2382 1.369 . S
C2381 C2383 1.419 . S
C2381 H2385 0.930 . S
C2382 C2381 1.369 . S
C2382 C2391 1.429 . S
C2383 C2381 1.419 . S
C2383 C2384 1.363 . S
C2383 H2386 0.929 . S
C2384 C2383 1.363 . S
C2384 C2390 1.428 . S
H2385 C2381 0.930 . S
H2386 C2383 0.929 . S
S2387 N2388 1.613 . S
S2387 N2389 1.610 . S
N2388 S2387 1.613 . S
N2388 C2391 1.350 . S
N2389 S2387 1.610 . S
N2389 C2390 1.351 . S
C2390 C2384 1.428 . S
C2390 N2389 1.351 . S
C2390 C2391 1.434 . S
C2391 C2382 1.429 . S
C2391 N2388 1.350 . S
C2391 C2390 1.434 . S
C2392 C2393 1.369 . S
C2392 C2394 1.419 . S
C2392 H2396 0.930 . S
C2393 C2392 1.369 . S
C2393 C2402 1.429 1_565 S
C2394 C2392 1.419 . S
C2394 C2395 1.363 . S
C2394 H2397 0.929 . S
C2395 C2394 1.363 . S
C2395 C2401 1.428 1_565 S
H2396 C2392 0.930 . S
H2397 C2394 0.929 . S
S2398 N2399 1.613 . S
S2398 N2400 1.610 . S
N2399 S2398 1.613 . S
N2399 C2402 1.350 . S
N2400 S2398 1.610 . S
N2400 C2401 1.351 . S
C2401 C2395 1.428 1_545 S
C2401 N2400 1.351 . S
C2401 C2402 1.434 . S
C2402 C2393 1.429 1_545 S
C2402 N2399 1.350 . S
C2402 C2401 1.434 . S
C2403 C2404 1.369 . S
C2403 C2405 1.419 . S
C2403 H2407 0.930 . S
C2404 C2403 1.369 . S
C2404 C2413 1.429 1_545 S
C2405 C2403 1.419 . S
C2405 C2406 1.363 . S
C2405 H2408 0.929 . S
C2406 C2405 1.363 . S
C2406 C2412 1.428 1_545 S
H2407 C2403 0.930 . S
H2408 C2405 0.929 . S
S2409 N2410 1.613 . S
S2409 N2411 1.610 . S
N2410 S2409 1.613 . S
N2410 C2413 1.350 . S
N2411 S2409 1.610 . S
N2411 C2412 1.351 . S
C2412 C2406 1.428 1_565 S
C2412 N2411 1.351 . S
C2412 C2413 1.434 . S
C2413 C2404 1.429 1_565 S
C2413 N2410 1.350 . S
C2413 C2412 1.434 . S
C2414 C2415 1.369 . S
C2414 C2416 1.419 . S
C2414 H2418 0.930 . S
C2415 C2414 1.369 . S
C2415 C2424 1.429 . S
C2416 C2414 1.419 . S
C2416 C2417 1.363 . S
C2416 H2419 0.929 . S
C2417 C2416 1.363 . S
C2417 C2423 1.428 . S
H2418 C2414 0.930 . S
H2419 C2416 0.929 . S
S2420 N2421 1.613 . S
S2420 N2422 1.610 . S
N2421 S2420 1.613 . S
N2421 C2424 1.350 . S
N2422 S2420 1.610 . S
N2422 C2423 1.351 . S
C2423 C2417 1.428 . S
C2423 N2422 1.351 . S
C2423 C2424 1.434 . S
C2424 C2415 1.429 . S
C2424 N2421 1.350 . S
C2424 C2423 1.434 . S
C2425 C2426 1.369 . S
C2425 C2427 1.419 . S
C2425 H2429 0.930 . S
C2426 C2425 1.369 . S
C2426 C2435 1.429 . S
C2427 C2425 1.419 . S
C2427 C2428 1.363 . S
C2427 H2430 0.929 . S
C2428 C2427 1.363 . S
C2428 C2434 1.428 . S
H2429 C2425 0.930 . S
H2430 C2427 0.929 . S
S2431 N2432 1.613 . S
S2431 N2433 1.610 . S
N2432 S2431 1.613 . S
N2432 C2435 1.350 . S
N2433 S2431 1.610 . S
N2433 C2434 1.351 . S
C2434 C2428 1.428 . S
C2434 N2433 1.351 . S
C2434 C2435 1.434 . S
C2435 C2426 1.429 . S
C2435 N2432 1.350 . S
C2435 C2434 1.434 . S
C2436 C2437 1.369 . S
C2436 C2438 1.419 . S
C2436 H2440 0.930 . S
C2437 C2436 1.369 . S
C2437 C2446 1.429 . S
C2438 C2436 1.419 . S
C2438 C2439 1.363 . S
C2438 H2441 0.929 . S
C2439 C2438 1.363 . S
C2439 C2445 1.428 . S
H2440 C2436 0.930 . S
H2441 C2438 0.929 . S
S2442 N2443 1.613 . S
S2442 N2444 1.610 . S
N2443 S2442 1.613 . S
N2443 C2446 1.350 . S
N2444 S2442 1.610 . S
N2444 C2445 1.351 . S
C2445 C2439 1.428 . S
C2445 N2444 1.351 . S
C2445 C2446 1.434 . S
C2446 C2437 1.429 . S
C2446 N2443 1.350 . S
C2446 C2445 1.434 . S
C2447 C2448 1.369 . S
C2447 C2449 1.419 . S
C2447 H2451 0.930 . S
C2448 C2447 1.369 . S
C2448 C2457 1.429 . S
C2449 C2447 1.419 . S
C2449 C2450 1.363 . S
C2449 H2452 0.929 . S
C2450 C2449 1.363 . S
C2450 C2456 1.428 . S
H2451 C2447 0.930 . S
H2452 C2449 0.929 . S
S2453 N2454 1.613 . S
S2453 N2455 1.610 . S
N2454 S2453 1.613 . S
N2454 C2457 1.350 . S
N2455 S2453 1.610 . S
N2455 C2456 1.351 . S
C2456 C2450 1.428 . S
C2456 N2455 1.351 . S
C2456 C2457 1.434 . S
C2457 C2448 1.429 . S
C2457 N2454 1.350 . S
C2457 C2456 1.434 . S
C2458 C2459 1.369 . S
C2458 C2460 1.419 . S
C2458 H2462 0.930 . S
C2459 C2458 1.369 . S
C2459 C2468 1.429 . S
C2460 C2458 1.419 . S
C2460 C2461 1.363 . S
C2460 H2463 0.929 . S
C2461 C2460 1.363 . S
C2461 C2467 1.428 . S
H2462 C2458 0.930 . S
H2463 C2460 0.929 . S
S2464 N2465 1.613 . S
S2464 N2466 1.610 . S
N2465 S2464 1.613 . S
N2465 C2468 1.350 . S
N2466 S2464 1.610 . S
N2466 C2467 1.351 . S
C2467 C2461 1.428 . S
C2467 N2466 1.351 . S
C2467 C2468 1.434 . S
C2468 C2459 1.429 . S
C2468 N2465 1.350 . S
C2468 C2467 1.434 . S
C2469 C2470 1.369 . S
C2469 C2471 1.419 . S
C2469 H2473 0.930 . S
C2470 C2469 1.369 . S
C2470 C2479 1.429 . S
C2471 C2469 1.419 . S
C2471 C2472 1.363 . S
C2471 H2474 0.929 . S
C2472 C2471 1.363 . S
C2472 C2478 1.428 . S
H2473 C2469 0.930 . S
H2474 C2471 0.929 . S
S2475 N2476 1.613 . S
S2475 N2477 1.604 . S
N2476 S2475 1.613 . S
N2476 C2479 1.350 . S
N2477 S2475 1.604 . S
N2477 C2478 1.351 . S
C2478 C2472 1.428 . S
C2478 N2477 1.351 . S
C2478 C2479 1.434 . S
C2479 C2470 1.429 . S
C2479 N2476 1.350 . S
C2479 C2478 1.434 . S
C2480 C2481 1.369 . S
C2480 C2482 1.419 . S
C2480 H2484 0.930 . S
C2481 C2480 1.369 . S
C2481 C2490 1.429 . S
C2482 C2480 1.419 . S
C2482 C2483 1.363 . S
C2482 H2485 0.929 . S
C2483 C2482 1.363 . S
C2483 C2489 1.428 . S
H2484 C2480 0.930 . S
H2485 C2482 0.929 . S
S2486 N2487 1.613 . S
S2486 N2488 1.610 . S
N2487 S2486 1.613 . S
N2487 C2490 1.350 . S
N2488 S2486 1.610 . S
N2488 C2489 1.351 . S
C2489 C2483 1.428 . S
C2489 N2488 1.351 . S
C2489 C2490 1.434 . S
C2490 C2481 1.429 . S
C2490 N2487 1.350 . S
C2490 C2489 1.434 . S
C2491 C2492 1.369 . S
C2491 C2493 1.419 . S
C2491 H2495 0.930 . S
C2492 C2491 1.369 . S
C2492 C2501 1.429 . S
C2493 C2491 1.419 . S
C2493 C2494 1.363 . S
C2493 H2496 0.929 . S
C2494 C2493 1.363 . S
C2494 C2500 1.428 . S
H2495 C2491 0.930 . S
H2496 C2493 0.929 . S
S2497 N2498 1.613 . S
S2497 N2499 1.610 . S
N2498 S2497 1.613 . S
N2498 C2501 1.350 . S
N2499 S2497 1.610 . S
N2499 C2500 1.351 . S
C2500 C2494 1.428 . S
C2500 N2499 1.351 . S
C2500 C2501 1.434 . S
C2501 C2492 1.429 . S
C2501 N2498 1.350 . S
C2501 C2500 1.434 . S
C2502 C2503 1.369 . S
C2502 C2504 1.419 . S
C2502 H2506 0.930 . S
C2503 C2502 1.369 . S
C2503 C2512 1.429 . S
C2504 C2502 1.419 . S
C2504 C2505 1.363 . S
C2504 H2507 0.929 . S
C2505 C2504 1.363 . S
C2505 C2511 1.428 . S
H2506 C2502 0.930 . S
H2507 C2504 0.929 . S
S2508 N2509 1.613 . S
S2508 N2510 1.610 . S
N2509 S2508 1.613 . S
N2509 C2512 1.350 . S
N2510 S2508 1.610 . S
N2510 C2511 1.351 . S
C2511 C2505 1.428 . S
C2511 N2510 1.351 . S
C2511 C2512 1.434 . S
C2512 C2503 1.429 . S
C2512 N2509 1.350 . S
C2512 C2511 1.434 . S
C2513 C2514 1.369 . S
C2513 C2515 1.419 . S
C2513 H2517 0.930 . S
C2514 C2513 1.369 . S
C2514 C2523 1.429 . S
C2515 C2513 1.419 . S
C2515 C2516 1.363 . S
C2515 H2518 0.929 . S
C2516 C2515 1.363 . S
C2516 C2522 1.428 . S
H2517 C2513 0.930 . S
H2518 C2515 0.929 . S
S2519 N2520 1.613 . S
S2519 N2521 1.610 . S
N2520 S2519 1.613 . S
N2520 C2523 1.350 . S
N2521 S2519 1.610 . S
N2521 C2522 1.351 . S
C2522 C2516 1.428 . S
C2522 N2521 1.351 . S
C2522 C2523 1.434 . S
C2523 C2514 1.429 . S
C2523 N2520 1.350 . S
C2523 C2522 1.434 . S
C2524 C2525 1.369 . S
C2524 C2526 1.419 . S
C2524 H2528 0.930 . S
C2525 C2524 1.369 . S
C2525 C2534 1.429 . S
C2526 C2524 1.419 . S
C2526 C2527 1.363 . S
C2526 H2529 0.929 . S
C2527 C2526 1.363 . S
C2527 C2533 1.428 . S
H2528 C2524 0.930 . S
H2529 C2526 0.929 . S
S2530 N2531 1.613 . S
S2530 N2532 1.610 . S
N2531 S2530 1.613 . S
N2531 C2534 1.350 . S
N2532 S2530 1.610 . S
N2532 C2533 1.351 . S
C2533 C2527 1.428 . S
C2533 N2532 1.351 . S
C2533 C2534 1.434 . S
C2534 C2525 1.429 . S
C2534 N2531 1.350 . S
C2534 C2533 1.434 . S
C2535 C2536 1.369 . S
C2535 C2537 1.419 . S
C2535 H2539 0.930 . S
C2536 C2535 1.369 . S
C2536 C2545 1.429 . S
C2537 C2535 1.419 . S
C2537 C2538 1.363 . S
C2537 H2540 0.929 . S
C2538 C2537 1.363 . S
C2538 C2544 1.428 . S
H2539 C2535 0.930 . S
H2540 C2537 0.929 . S
S2541 N2542 1.613 . S
S2541 N2543 1.610 . S
N2542 S2541 1.613 . S
N2542 C2545 1.350 . S
N2543 S2541 1.610 . S
N2543 C2544 1.351 . S
C2544 C2538 1.428 . S
C2544 N2543 1.351 . S
C2544 C2545 1.434 . S
C2545 C2536 1.429 . S
C2545 N2542 1.350 . S
C2545 C2544 1.434 . S
C2546 C2547 1.369 . S
C2546 C2548 1.419 . S
C2546 H2550 0.930 . S
C2547 C2546 1.369 . S
C2547 C2556 1.429 . S
C2548 C2546 1.419 . S
C2548 C2549 1.363 . S
C2548 H2551 0.929 . S
C2549 C2548 1.363 . S
C2549 C2555 1.428 . S
H2550 C2546 0.930 . S
H2551 C2548 0.929 . S
S2552 N2553 1.613 . S
S2552 N2554 1.610 . S
N2553 S2552 1.613 . S
N2553 C2556 1.350 . S
N2554 S2552 1.610 . S
N2554 C2555 1.351 . S
C2555 C2549 1.428 . S
C2555 N2554 1.351 . S
C2555 C2556 1.434 . S
C2556 C2547 1.429 . S
C2556 N2553 1.350 . S
C2556 C2555 1.434 . S
C2557 C2558 1.369 . S
C2557 C2559 1.419 . S
C2557 H2561 0.930 . S
C2558 C2557 1.369 . S
C2558 C2567 1.429 . S
C2559 C2557 1.419 . S
C2559 C2560 1.363 . S
C2559 H2562 0.929 . S
C2560 C2559 1.363 . S
C2560 C2566 1.428 . S
H2561 C2557 0.930 . S
H2562 C2559 0.929 . S
S2563 N2564 1.613 . S
S2563 N2565 1.610 . S
N2564 S2563 1.613 . S
N2564 C2567 1.350 . S
N2565 S2563 1.610 . S
N2565 C2566 1.351 . S
C2566 C2560 1.428 . S
C2566 N2565 1.351 . S
C2566 C2567 1.434 . S
C2567 C2558 1.429 . S
C2567 N2564 1.350 . S
C2567 C2566 1.434 . S
C2568 C2569 1.369 . S
C2568 C2570 1.419 . S
C2568 H2572 0.930 . S
C2569 C2568 1.369 . S
C2569 C2578 1.429 . S
C2570 C2568 1.419 . S
C2570 C2571 1.363 . S
C2570 H2573 0.929 . S
C2571 C2570 1.363 . S
C2571 C2577 1.428 . S
H2572 C2568 0.930 . S
H2573 C2570 0.929 . S
S2574 N2575 1.613 . S
S2574 N2576 1.619 . S
N2575 S2574 1.613 . S
N2575 C2578 1.350 . S
N2576 S2574 1.619 . S
N2576 C2577 1.351 . S
C2577 C2571 1.428 . S
C2577 N2576 1.351 . S
C2577 C2578 1.434 . S
C2578 C2569 1.429 . S
C2578 N2575 1.350 . S
C2578 C2577 1.434 . S
C2579 C2580 1.369 . S
C2579 C2581 1.419 . S
C2579 H2583 0.930 . S
C2580 C2579 1.369 . S
C2580 C2589 1.429 . S
C2581 C2579 1.419 . S
C2581 C2582 1.363 . S
C2581 H2584 0.929 . S
C2582 C2581 1.363 . S
C2582 C2588 1.428 . S
H2583 C2579 0.930 . S
H2584 C2581 0.929 . S
S2585 N2586 1.613 . S
S2585 N2587 1.610 . S
N2586 S2585 1.613 . S
N2586 C2589 1.350 . S
N2587 S2585 1.610 . S
N2587 C2588 1.351 . S
C2588 C2582 1.428 . S
C2588 N2587 1.351 . S
C2588 C2589 1.434 . S
C2589 C2580 1.429 . S
C2589 N2586 1.350 . S
C2589 C2588 1.434 . S
C2590 C2591 1.369 . S
C2590 C2592 1.419 . S
C2590 H2594 0.930 . S
C2591 C2590 1.369 . S
C2591 C2600 1.429 . S
C2592 C2590 1.419 . S
C2592 C2593 1.363 . S
C2592 H2595 0.929 . S
C2593 C2592 1.363 . S
C2593 C2599 1.428 . S
H2594 C2590 0.930 . S
H2595 C2592 0.929 . S
S2596 N2597 1.613 . S
S2596 N2598 1.610 . S
N2597 S2596 1.613 . S
N2597 C2600 1.350 . S
N2598 S2596 1.610 . S
N2598 C2599 1.351 . S
C2599 C2593 1.428 . S
C2599 N2598 1.351 . S
C2599 C2600 1.434 . S
C2600 C2591 1.429 . S
C2600 N2597 1.350 . S
C2600 C2599 1.434 . S
C2601 C2602 1.369 . S
C2601 C2603 1.419 . S
C2601 H2605 0.930 . S
C2602 C2601 1.369 . S
C2602 C2611 1.429 . S
C2603 C2601 1.419 . S
C2603 C2604 1.363 . S
C2603 H2606 0.929 . S
C2604 C2603 1.363 . S
C2604 C2610 1.428 . S
H2605 C2601 0.930 . S
H2606 C2603 0.929 . S
S2607 N2608 1.613 . S
S2607 N2609 1.610 . S
N2608 S2607 1.613 . S
N2608 C2611 1.350 . S
N2609 S2607 1.610 . S
N2609 C2610 1.351 . S
C2610 C2604 1.428 . S
C2610 N2609 1.351 . S
C2610 C2611 1.434 . S
C2611 C2602 1.429 . S
C2611 N2608 1.350 . S
C2611 C2610 1.434 . S
C2612 C2613 1.369 . S
C2612 C2614 1.419 . S
C2612 H2616 0.930 . S
C2613 C2612 1.369 . S
C2613 C2622 1.429 . S
C2614 C2612 1.419 . S
C2614 C2615 1.363 . S
C2614 H2617 0.929 . S
C2615 C2614 1.363 . S
C2615 C2621 1.428 . S
H2616 C2612 0.930 . S
H2617 C2614 0.929 . S
S2618 N2619 1.613 . S
S2618 N2620 1.610 . S
N2619 S2618 1.613 . S
N2619 C2622 1.350 . S
N2620 S2618 1.610 . S
N2620 C2621 1.351 . S
C2621 C2615 1.428 . S
C2621 N2620 1.351 . S
C2621 C2622 1.434 . S
C2622 C2613 1.429 . S
C2622 N2619 1.350 . S
C2622 C2621 1.434 . S
C2623 C2624 1.369 . S
C2623 C2625 1.419 . S
C2623 H2627 0.930 . S
C2624 C2623 1.369 . S
C2624 C2633 1.429 . S
C2625 C2623 1.419 . S
C2625 C2626 1.363 . S
C2625 H2628 0.929 . S
C2626 C2625 1.363 . S
C2626 C2632 1.428 . S
H2627 C2623 0.930 . S
H2628 C2625 0.929 . S
S2629 N2630 1.613 . S
S2629 N2631 1.610 . S
N2630 S2629 1.613 . S
N2630 C2633 1.350 . S
N2631 S2629 1.610 . S
N2631 C2632 1.351 . S
C2632 C2626 1.428 . S
C2632 N2631 1.351 . S
C2632 C2633 1.434 . S
C2633 C2624 1.429 . S
C2633 N2630 1.350 . S
C2633 C2632 1.434 . S
C2634 C2635 1.369 . S
C2634 C2636 1.419 . S
C2634 H2638 0.930 . S
C2635 C2634 1.369 . S
C2635 C2644 1.429 . S
C2636 C2634 1.419 . S
C2636 C2637 1.363 . S
C2636 H2639 0.929 . S
C2637 C2636 1.363 . S
C2637 C2643 1.428 . S
H2638 C2634 0.930 . S
H2639 C2636 0.929 . S
S2640 N2641 1.613 . S
S2640 N2642 1.610 . S
N2641 S2640 1.613 . S
N2641 C2644 1.350 . S
N2642 S2640 1.610 . S
N2642 C2643 1.351 . S
C2643 C2637 1.428 . S
C2643 N2642 1.351 . S
C2643 C2644 1.434 . S
C2644 C2635 1.429 . S
C2644 N2641 1.350 . S
C2644 C2643 1.434 . S
C2645 C2646 1.369 . S
C2645 C2647 1.419 . S
C2645 H2649 0.930 . S
C2646 C2645 1.369 . S
C2646 C2655 1.429 . S
C2647 C2645 1.419 . S
C2647 C2648 1.363 . S
C2647 H2650 0.929 . S
C2648 C2647 1.363 . S
C2648 C2654 1.428 . S
H2649 C2645 0.930 . S
H2650 C2647 0.929 . S
S2651 N2652 1.613 . S
S2651 N2653 1.610 . S
N2652 S2651 1.613 . S
N2652 C2655 1.350 . S
N2653 S2651 1.610 . S
N2653 C2654 1.351 . S
C2654 C2648 1.428 . S
C2654 N2653 1.351 . S
C2654 C2655 1.434 . S
C2655 C2646 1.429 . S
C2655 N2652 1.350 . S
C2655 C2654 1.434 . S
C2656 C2657 1.369 . S
C2656 C2658 1.419 . S
C2656 H2660 0.930 . S
C2657 C2656 1.369 . S
C2657 C2666 1.429 . S
C2658 C2656 1.419 . S
C2658 C2659 1.363 . S
C2658 H2661 0.929 . S
C2659 C2658 1.363 . S
C2659 C2665 1.428 . S
H2660 C2656 0.930 . S
H2661 C2658 0.929 . S
S2662 N2663 1.613 . S
S2662 N2664 1.610 . S
N2663 S2662 1.613 . S
N2663 C2666 1.350 . S
N2664 S2662 1.610 . S
N2664 C2665 1.351 . S
C2665 C2659 1.428 . S
C2665 N2664 1.351 . S
C2665 C2666 1.434 . S
C2666 C2657 1.429 . S
C2666 N2663 1.350 . S
C2666 C2665 1.434 . S
C2667 C2668 1.369 . S
C2667 C2669 1.419 . S
C2667 H2671 0.930 . S
C2668 C2667 1.369 . S
C2668 C2677 1.429 . S
C2669 C2667 1.419 . S
C2669 C2670 1.363 . S
C2669 H2672 0.929 . S
C2670 C2669 1.363 . S
C2670 C2676 1.428 . S
H2671 C2667 0.930 . S
H2672 C2669 0.929 . S
S2673 N2674 1.613 . S
S2673 N2675 1.610 . S
N2674 S2673 1.613 . S
N2674 C2677 1.350 . S
N2675 S2673 1.610 . S
N2675 C2676 1.351 . S
C2676 C2670 1.428 . S
C2676 N2675 1.351 . S
C2676 C2677 1.434 . S
C2677 C2668 1.429 . S
C2677 N2674 1.350 . S
C2677 C2676 1.434 . S
C2678 C2679 1.369 . S
C2678 C2680 1.419 . S
C2678 H2682 0.930 . S
C2679 C2678 1.369 . S
C2679 C2688 1.429 . S
C2680 C2678 1.419 . S
C2680 C2681 1.363 . S
C2680 H2683 0.929 . S
C2681 C2680 1.363 . S
C2681 C2687 1.428 . S
H2682 C2678 0.930 . S
H2683 C2680 0.929 . S
S2684 N2685 1.613 . S
S2684 N2686 1.610 . S
N2685 S2684 1.613 . S
N2685 C2688 1.350 . S
N2686 S2684 1.610 . S
N2686 C2687 1.351 . S
C2687 C2681 1.428 . S
C2687 N2686 1.351 . S
C2687 C2688 1.434 . S
C2688 C2679 1.429 . S
C2688 N2685 1.350 . S
C2688 C2687 1.434 . S
C2689 C2690 1.369 . S
C2689 C2691 1.419 . S
C2689 H2693 0.930 . S
C2690 C2689 1.369 . S
C2690 C2699 1.429 . S
C2691 C2689 1.419 . S
C2691 C2692 1.363 . S
C2691 H2694 0.929 . S
C2692 C2691 1.363 . S
C2692 C2698 1.428 . S
H2693 C2689 0.930 . S
H2694 C2691 0.929 . S
S2695 N2696 1.613 . S
S2695 N2697 1.610 . S
N2696 S2695 1.613 . S
N2696 C2699 1.350 . S
N2697 S2695 1.610 . S
N2697 C2698 1.351 . S
C2698 C2692 1.428 . S
C2698 N2697 1.351 . S
C2698 C2699 1.434 . S
C2699 C2690 1.429 . S
C2699 N2696 1.350 . S
C2699 C2698 1.434 . S
C2700 C2701 1.369 . S
C2700 C2702 1.419 . S
C2700 H2704 0.930 . S
C2701 C2700 1.369 . S
C2701 C2710 1.429 . S
C2702 C2700 1.419 . S
C2702 C2703 1.363 . S
C2702 H2705 0.929 . S
C2703 C2702 1.363 . S
C2703 C2709 1.428 . S
H2704 C2700 0.930 . S
H2705 C2702 0.929 . S
S2706 N2707 1.613 . S
S2706 N2708 1.610 . S
N2707 S2706 1.613 . S
N2707 C2710 1.350 . S
N2708 S2706 1.610 . S
N2708 C2709 1.351 . S
C2709 C2703 1.428 . S
C2709 N2708 1.351 . S
C2709 C2710 1.434 . S
C2710 C2701 1.429 . S
C2710 N2707 1.350 . S
C2710 C2709 1.434 . S
C2711 C2712 1.369 . S
C2711 C2713 1.419 . S
C2711 H2715 0.930 . S
C2712 C2711 1.369 . S
C2712 C2721 1.429 . S
C2713 C2711 1.419 . S
C2713 C2714 1.363 . S
C2713 H2716 0.929 . S
C2714 C2713 1.363 . S
C2714 C2720 1.428 . S
H2715 C2711 0.930 . S
H2716 C2713 0.929 . S
S2717 N2718 1.613 . S
S2717 N2719 1.610 . S
N2718 S2717 1.613 . S
N2718 C2721 1.350 . S
N2719 S2717 1.610 . S
N2719 C2720 1.351 . S
C2720 C2714 1.428 . S
C2720 N2719 1.351 . S
C2720 C2721 1.434 . S
C2721 C2712 1.429 . S
C2721 N2718 1.350 . S
C2721 C2720 1.434 . S
C2722 C2723 1.369 . S
C2722 C2724 1.419 . S
C2722 H2726 0.930 . S
C2723 C2722 1.369 . S
C2723 C2732 1.429 . S
C2724 C2722 1.419 . S
C2724 C2725 1.363 . S
C2724 H2727 0.929 . S
C2725 C2724 1.363 . S
C2725 C2731 1.428 . S
H2726 C2722 0.930 . S
H2727 C2724 0.929 . S
S2728 N2729 1.613 . S
S2728 N2730 1.610 . S
N2729 S2728 1.613 . S
N2729 C2732 1.350 . S
N2730 S2728 1.610 . S
N2730 C2731 1.351 . S
C2731 C2725 1.428 . S
C2731 N2730 1.351 . S
C2731 C2732 1.434 . S
C2732 C2723 1.429 . S
C2732 N2729 1.350 . S
C2732 C2731 1.434 . S
C2733 C2734 1.369 . S
C2733 C2735 1.419 . S
C2733 H2737 0.930 . S
C2734 C2733 1.369 . S
C2734 C2743 1.429 . S
C2735 C2733 1.419 . S
C2735 C2736 1.363 . S
C2735 H2738 0.929 . S
C2736 C2735 1.363 . S
C2736 C2742 1.428 . S
H2737 C2733 0.930 . S
H2738 C2735 0.929 . S
S2739 N2740 1.613 . S
S2739 N2741 1.610 1_554 S
N2740 S2739 1.613 . S
N2740 C2743 1.350 1_554 S
N2741 S2739 1.610 1_556 S
N2741 C2742 1.351 . S
C2742 C2736 1.428 . S
C2742 N2741 1.351 . S
C2742 C2743 1.434 . S
C2743 C2734 1.429 . S
C2743 N2740 1.350 1_556 S
C2743 C2742 1.434 . S
C2744 C2745 1.369 . S
C2744 C2746 1.419 . S
C2744 H2748 0.930 . S
C2745 C2744 1.369 . S
C2745 C2754 1.429 . S
C2746 C2744 1.419 . S
C2746 C2747 1.363 . S
C2746 H2749 0.929 . S
C2747 C2746 1.363 . S
C2747 C2753 1.428 . S
H2748 C2744 0.930 . S
H2749 C2746 0.929 . S
S2750 N2751 1.613 . S
S2750 N2752 1.610 1_554 S
N2751 S2750 1.613 . S
N2751 C2754 1.350 1_554 S
N2752 S2750 1.610 1_556 S
N2752 C2753 1.351 . S
C2753 C2747 1.428 . S
C2753 N2752 1.351 . S
C2753 C2754 1.434 . S
C2754 C2745 1.429 . S
C2754 N2751 1.350 1_556 S
C2754 C2753 1.434 . S
C2755 C2756 1.369 . S
C2755 C2757 1.419 . S
C2755 H2759 0.930 . S
C2756 C2755 1.369 . S
C2756 C2765 1.429 . S
C2757 C2755 1.419 . S
C2757 C2758 1.363 . S
C2757 H2760 0.929 . S
C2758 C2757 1.363 . S
C2758 C2764 1.428 . S
H2759 C2755 0.930 . S
H2760 C2757 0.929 . S
S2761 N2762 1.613 . S
S2761 N2763 1.610 . S
N2762 S2761 1.613 . S
N2762 C2765 1.350 . S
N2763 S2761 1.610 . S
N2763 C2764 1.351 . S
C2764 C2758 1.428 . S
C2764 N2763 1.351 . S
C2764 C2765 1.434 . S
C2765 C2756 1.429 . S
C2765 N2762 1.350 . S
C2765 C2764 1.434 . S
C2766 C2767 1.369 . S
C2766 C2768 1.419 . S
C2766 H2770 0.930 . S
C2767 C2766 1.369 . S
C2767 C2776 1.429 . S
C2768 C2766 1.419 . S
C2768 C2769 1.363 . S
C2768 H2771 0.929 . S
C2769 C2768 1.363 . S
C2769 C2775 1.428 . S
H2770 C2766 0.930 . S
H2771 C2768 0.929 . S
S2772 N2773 1.613 . S
S2772 N2774 1.610 . S
N2773 S2772 1.613 . S
N2773 C2776 1.350 . S
N2774 S2772 1.610 . S
N2774 C2775 1.351 . S
C2775 C2769 1.428 . S
C2775 N2774 1.351 . S
C2775 C2776 1.434 . S
C2776 C2767 1.429 . S
C2776 N2773 1.350 . S
C2776 C2775 1.434 . S
C2777 C2778 1.369 . S
C2777 C2779 1.419 . S
C2777 H2781 0.930 . S
C2778 C2777 1.369 . S
C2778 C2787 1.429 . S
C2779 C2777 1.419 . S
C2779 C2780 1.363 . S
C2779 H2782 0.929 . S
C2780 C2779 1.363 . S
C2780 C2786 1.428 . S
H2781 C2777 0.930 . S
H2782 C2779 0.929 . S
S2783 N2784 1.613 . S
S2783 N2785 1.610 . S
N2784 S2783 1.613 . S
N2784 C2787 1.350 . S
N2785 S2783 1.610 . S
N2785 C2786 1.351 . S
C2786 C2780 1.428 . S
C2786 N2785 1.351 . S
C2786 C2787 1.434 . S
C2787 C2778 1.429 . S
C2787 N2784 1.350 . S
C2787 C2786 1.434 . S
C2788 C2789 1.369 . S
C2788 C2790 1.419 . S
C2788 H2792 0.930 . S
C2789 C2788 1.369 . S
C2789 C2798 1.429 . S
C2790 C2788 1.419 . S
C2790 C2791 1.363 . S
C2790 H2793 0.929 . S
C2791 C2790 1.363 . S
C2791 C2797 1.428 . S
H2792 C2788 0.930 . S
H2793 C2790 0.929 . S
S2794 N2795 1.613 1_565 S
S2794 N2796 1.610 1_565 S
N2795 S2794 1.613 1_545 S
N2795 C2798 1.350 . S
N2796 S2794 1.610 1_545 S
N2796 C2797 1.351 . S
C2797 C2791 1.428 . S
C2797 N2796 1.351 . S
C2797 C2798 1.434 . S
C2798 C2789 1.429 . S
C2798 N2795 1.350 . S
C2798 C2797 1.434 . S
C2799 C2800 1.369 . S
C2799 C2801 1.419 . S
C2799 H2803 0.930 . S
C2800 C2799 1.369 . S
C2800 C2809 1.429 . S
C2801 C2799 1.419 . S
C2801 C2802 1.363 . S
C2801 H2804 0.929 . S
C2802 C2801 1.363 . S
C2802 C2808 1.428 . S
H2803 C2799 0.930 . S
H2804 C2801 0.929 . S
S2805 N2806 1.613 . S
S2805 N2807 1.610 . S
N2806 S2805 1.613 . S
N2806 C2809 1.350 . S
N2807 S2805 1.610 . S
N2807 C2808 1.351 . S
C2808 C2802 1.428 . S
C2808 N2807 1.351 . S
C2808 C2809 1.434 . S
C2809 C2800 1.429 . S
C2809 N2806 1.350 . S
C2809 C2808 1.434 . S
C2810 C2811 1.369 . S
C2810 C2812 1.419 . S
C2810 H2814 0.930 . S
C2811 C2810 1.369 . S
C2811 C2820 1.429 . S
C2812 C2810 1.419 . S
C2812 C2813 1.363 . S
C2812 H2815 0.929 . S
C2813 C2812 1.363 . S
C2813 C2819 1.428 . S
H2814 C2810 0.930 . S
H2815 C2812 0.929 . S
S2816 N2817 1.613 . S
S2816 N2818 1.610 . S
N2817 S2816 1.613 . S
N2817 C2820 1.350 . S
N2818 S2816 1.610 . S
N2818 C2819 1.351 . S
C2819 C2813 1.428 . S
C2819 N2818 1.351 . S
C2819 C2820 1.434 . S
C2820 C2811 1.429 . S
C2820 N2817 1.350 . S
C2820 C2819 1.434 . S
C2821 C2822 1.369 . S
C2821 C2823 1.419 . S
C2821 H2825 0.930 . S
C2822 C2821 1.369 . S
C2822 C2831 1.429 . S
C2823 C2821 1.419 . S
C2823 C2824 1.363 . S
C2823 H2826 0.929 . S
C2824 C2823 1.363 . S
C2824 C2830 1.428 . S
H2825 C2821 0.930 . S
H2826 C2823 0.929 . S
S2827 N2828 1.613 . S
S2827 N2829 1.610 . S
N2828 S2827 1.613 . S
N2828 C2831 1.350 . S
N2829 S2827 1.610 . S
N2829 C2830 1.351 . S
C2830 C2824 1.428 . S
C2830 N2829 1.351 . S
C2830 C2831 1.434 . S
C2831 C2822 1.429 . S
C2831 N2828 1.350 . S
C2831 C2830 1.434 . S
C2832 C2833 1.369 . S
C2832 C2834 1.419 . S
C2832 H2836 0.930 . S
C2833 C2832 1.369 . S
C2833 C2842 1.429 . S
C2834 C2832 1.419 . S
C2834 C2835 1.363 . S
C2834 H2837 0.929 . S
C2835 C2834 1.363 . S
C2835 C2841 1.428 . S
H2836 C2832 0.930 . S
H2837 C2834 0.929 . S
S2838 N2839 1.613 . S
S2838 N2840 1.610 . S
N2839 S2838 1.613 . S
N2839 C2842 1.350 . S
N2840 S2838 1.610 . S
N2840 C2841 1.351 . S
C2841 C2835 1.428 . S
C2841 N2840 1.351 . S
C2841 C2842 1.434 . S
C2842 C2833 1.429 . S
C2842 N2839 1.350 . S
C2842 C2841 1.434 . S
C2843 C2844 1.369 . S
C2843 C2845 1.419 . S
C2843 H2847 0.930 . S
C2844 C2843 1.369 . S
C2844 C2853 1.429 . S
C2845 C2843 1.419 . S
C2845 C2846 1.363 . S
C2845 H2848 0.929 . S
C2846 C2845 1.363 . S
C2846 C2852 1.428 . S
H2847 C2843 0.930 . S
H2848 C2845 0.929 . S
S2849 N2850 1.613 . S
S2849 N2851 1.610 . S
N2850 S2849 1.613 . S
N2850 C2853 1.350 . S
N2851 S2849 1.610 . S
N2851 C2852 1.351 . S
C2852 C2846 1.428 . S
C2852 N2851 1.351 . S
C2852 C2853 1.434 . S
C2853 C2844 1.429 . S
C2853 N2850 1.350 . S
C2853 C2852 1.434 . S
C2854 C2855 1.369 . S
C2854 C2856 1.419 . S
C2854 H2858 0.930 . S
C2855 C2854 1.369 . S
C2855 C2864 1.429 . S
C2856 C2854 1.419 . S
C2856 C2857 1.363 . S
C2856 H2859 0.929 . S
C2857 C2856 1.363 . S
C2857 C2863 1.428 . S
H2858 C2854 0.930 . S
H2859 C2856 0.929 . S
S2860 N2861 1.613 . S
S2860 N2862 1.610 . S
N2861 S2860 1.613 . S
N2861 C2864 1.350 . S
N2862 S2860 1.610 . S
N2862 C2863 1.351 . S
C2863 C2857 1.428 . S
C2863 N2862 1.351 . S
C2863 C2864 1.434 . S
C2864 C2855 1.429 . S
C2864 N2861 1.350 . S
C2864 C2863 1.434 . S
C2865 C2866 1.369 1_655 S
C2865 C2867 1.419 . S
C2865 H2869 0.930 . S
C2866 C2865 1.369 1_455 S
C2866 C2875 1.429 . S
C2867 C2865 1.419 . S
C2867 C2868 1.363 1_655 S
C2867 H2870 0.929 . S
C2868 C2867 1.363 1_455 S
C2868 C2874 1.428 . S
H2869 C2865 0.930 . S
H2870 C2867 0.929 . S
S2871 N2872 1.613 . S
S2871 N2873 1.610 . S
N2872 S2871 1.613 . S
N2872 C2875 1.350 . S
N2873 S2871 1.610 . S
N2873 C2874 1.351 . S
C2874 C2868 1.428 . S
C2874 N2873 1.351 . S
C2874 C2875 1.434 . S
C2875 C2866 1.429 . S
C2875 N2872 1.350 . S
C2875 C2874 1.434 . S
C2876 C2877 1.369 . S
C2876 C2878 1.419 . S
C2876 H2880 0.930 . S
C2877 C2876 1.369 . S
C2877 C2886 1.429 . S
C2878 C2876 1.419 . S
C2878 C2879 1.363 . S
C2878 H2881 0.929 . S
C2879 C2878 1.363 . S
C2879 C2885 1.428 . S
H2880 C2876 0.930 . S
H2881 C2878 0.929 . S
S2882 N2883 1.613 . S
S2882 N2884 1.610 . S
N2883 S2882 1.613 . S
N2883 C2886 1.350 . S
N2884 S2882 1.610 . S
N2884 C2885 1.351 . S
C2885 C2879 1.428 . S
C2885 N2884 1.351 . S
C2885 C2886 1.434 . S
C2886 C2877 1.429 . S
C2886 N2883 1.350 . S
C2886 C2885 1.434 . S
C2887 C2888 1.369 . S
C2887 C2889 1.419 . S
C2887 H2891 0.930 . S
C2888 C2887 1.369 . S
C2888 C2897 1.429 . S
C2889 C2887 1.419 . S
C2889 C2890 1.363 . S
C2889 H2892 0.929 . S
C2890 C2889 1.363 . S
C2890 C2896 1.428 . S
H2891 C2887 0.930 . S
H2892 C2889 0.929 . S
S2893 N2894 1.637 1_545 S
S2893 N2895 1.610 1_545 S
N2894 S2893 1.637 1_565 S
N2894 C2897 1.354 . S
N2895 S2893 1.610 1_565 S
N2895 C2896 1.351 . S
C2896 C2890 1.428 . S
C2896 N2895 1.351 . S
C2896 C2897 1.434 . S
C2897 C2888 1.429 . S
C2897 N2894 1.354 . S
C2897 C2896 1.434 . S
C2898 C2899 1.369 . S
C2898 C2900 1.419 . S
C2898 H2902 0.930 . S
C2899 C2898 1.369 . S
C2899 C2908 1.429 . S
C2900 C2898 1.419 . S
C2900 C2901 1.363 . S
C2900 H2903 0.929 . S
C2901 C2900 1.363 . S
C2901 C2907 1.428 . S
H2902 C2898 0.930 . S
H2903 C2900 0.929 . S
S2904 N2905 1.613 . S
S2904 N2906 1.610 . S
N2905 S2904 1.613 . S
N2905 C2908 1.350 . S
N2906 S2904 1.610 . S
N2906 C2907 1.351 . S
C2907 C2901 1.428 . S
C2907 N2906 1.351 . S
C2907 C2908 1.434 . S
C2908 C2899 1.429 . S
C2908 N2905 1.350 . S
C2908 C2907 1.434 . S
C2909 C2910 1.369 1_655 S
C2909 C2911 1.419 . S
C2909 H2913 0.930 . S
C2910 C2909 1.369 1_455 S
C2910 C2919 1.429 . S
C2911 C2909 1.419 . S
C2911 C2912 1.363 1_655 S
C2911 H2914 0.929 . S
C2912 C2911 1.363 1_455 S
C2912 C2918 1.428 . S
H2913 C2909 0.930 . S
H2914 C2911 0.929 . S
S2915 N2916 1.613 . S
S2915 N2917 1.610 . S
N2916 S2915 1.613 . S
N2916 C2919 1.350 . S
N2917 S2915 1.610 . S
N2917 C2918 1.351 . S
C2918 C2912 1.428 . S
C2918 N2917 1.351 . S
C2918 C2919 1.434 . S
C2919 C2910 1.429 . S
C2919 N2916 1.350 . S
C2919 C2918 1.434 . S
C2920 C2921 1.369 . S
C2920 C2922 1.419 . S
C2920 H2924 0.930 . S
C2921 C2920 1.369 . S
C2921 C2930 1.429 . S
C2922 C2920 1.419 . S
C2922 C2923 1.363 . S
C2922 H2925 0.929 . S
C2923 C2922 1.363 . S
C2923 C2929 1.428 . S
H2924 C2920 0.930 . S
H2925 C2922 0.929 . S
S2926 N2927 1.613 . S
S2926 N2928 1.610 . S
N2927 S2926 1.613 . S
N2927 C2930 1.350 . S
N2928 S2926 1.610 . S
N2928 C2929 1.351 . S
C2929 C2923 1.428 . S
C2929 N2928 1.351 . S
C2929 C2930 1.434 . S
C2930 C2921 1.429 . S
C2930 N2927 1.350 . S
C2930 C2929 1.434 . S
C2931 C2932 1.369 . S
C2931 C2933 1.419 . S
C2931 H2935 0.930 . S
C2932 C2931 1.369 . S
C2932 C2941 1.429 . S
C2933 C2931 1.419 . S
C2933 C2934 1.363 . S
C2933 H2936 0.929 . S
C2934 C2933 1.363 . S
C2934 C2940 1.428 . S
H2935 C2931 0.930 . S
H2936 C2933 0.929 . S
S2937 N2938 1.613 . S
S2937 N2939 1.610 . S
N2938 S2937 1.613 . S
N2938 C2941 1.350 . S
N2939 S2937 1.610 . S
N2939 C2940 1.351 . S
C2940 C2934 1.428 . S
C2940 N2939 1.351 . S
C2940 C2941 1.434 . S
C2941 C2932 1.429 . S
C2941 N2938 1.350 . S
C2941 C2940 1.434 . S
C2942 C2943 1.369 . S
C2942 C2944 1.419 . S
C2942 H2946 0.930 . S
C2943 C2942 1.369 . S
C2943 C2952 1.429 . S
C2944 C2942 1.419 . S
C2944 C2945 1.363 . S
C2944 H2947 0.929 . S
C2945 C2944 1.363 . S
C2945 C2951 1.428 . S
H2946 C2942 0.930 . S
H2947 C2944 0.929 . S
S2948 N2949 1.613 . S
S2948 N2950 1.610 . S
N2949 S2948 1.613 . S
N2949 C2952 1.350 . S
N2950 S2948 1.610 . S
N2950 C2951 1.351 . S
C2951 C2945 1.428 . S
C2951 N2950 1.351 . S
C2951 C2952 1.434 . S
C2952 C2943 1.429 . S
C2952 N2949 1.350 . S
C2952 C2951 1.434 . S
C2953 C2954 1.369 . S
C2953 C2955 1.419 . S
C2953 H2957 0.930 . S
C2954 C2953 1.369 . S
C2954 C2963 1.429 . S
C2955 C2953 1.419 . S
C2955 C2956 1.363 . S
C2955 H2958 0.929 . S
C2956 C2955 1.363 . S
C2956 C2962 1.428 . S
H2957 C2953 0.930 . S
H2958 C2955 0.929 . S
S2959 N2960 1.613 . S
S2959 N2961 1.610 . S
N2960 S2959 1.613 . S
N2960 C2963 1.350 . S
N2961 S2959 1.610 . S
N2961 C2962 1.351 . S
C2962 C2956 1.428 . S
C2962 N2961 1.351 . S
C2962 C2963 1.434 . S
C2963 C2954 1.429 . S
C2963 N2960 1.350 . S
C2963 C2962 1.434 . S
C2964 C2965 1.369 . S
C2964 C2966 1.419 . S
C2964 H2968 0.930 . S
C2965 C2964 1.369 . S
C2965 C2974 1.429 1_545 S
C2966 C2964 1.419 . S
C2966 C2967 1.363 . S
C2966 H2969 0.929 . S
C2967 C2966 1.363 . S
C2967 C2973 1.428 1_545 S
H2968 C2964 0.930 . S
H2969 C2966 0.929 . S
S2970 N2971 1.613 . S
S2970 N2972 1.610 . S
N2971 S2970 1.613 . S
N2971 C2974 1.350 . S
N2972 S2970 1.610 . S
N2972 C2973 1.351 . S
C2973 C2967 1.428 1_565 S
C2973 N2972 1.351 . S
C2973 C2974 1.434 . S
C2974 C2965 1.429 1_565 S
C2974 N2971 1.350 . S
C2974 C2973 1.434 . S
C2975 C2976 1.369 1_455 S
C2975 C2977 1.419 . S
C2975 H2979 0.930 . S
C2976 C2975 1.369 1_655 S
C2976 C2985 1.429 . S
C2977 C2975 1.419 . S
C2977 C2978 1.363 1_455 S
C2977 H2980 0.929 . S
C2978 C2977 1.363 1_655 S
C2978 C2984 1.428 . S
H2979 C2975 0.930 . S
H2980 C2977 0.929 . S
S2981 N2982 1.613 . S
S2981 N2983 1.610 . S
N2982 S2981 1.613 . S
N2982 C2985 1.350 . S
N2983 S2981 1.610 . S
N2983 C2984 1.351 . S
C2984 C2978 1.428 . S
C2984 N2983 1.351 . S
C2984 C2985 1.434 . S
C2985 C2976 1.429 . S
C2985 N2982 1.350 . S
C2985 C2984 1.434 . S
C2986 C2987 1.369 . S
C2986 C2988 1.419 . S
C2986 H2990 0.930 . S
C2987 C2986 1.369 . S
C2987 C2996 1.429 . S
C2988 C2986 1.419 . S
C2988 C2989 1.363 . S
C2988 H2991 0.929 . S
C2989 C2988 1.363 . S
C2989 C2995 1.428 . S
H2990 C2986 0.930 . S
H2991 C2988 0.929 . S
S2992 N2993 1.613 . S
S2992 N2994 1.610 . S
N2993 S2992 1.613 . S
N2993 C2996 1.350 . S
N2994 S2992 1.610 . S
N2994 C2995 1.351 . S
C2995 C2989 1.428 . S
C2995 N2994 1.351 . S
C2995 C2996 1.434 . S
C2996 C2987 1.429 . S
C2996 N2993 1.350 . S
C2996 C2995 1.434 . S
C2997 C2998 1.369 . S
C2997 C2999 1.419 . S
C2997 H3001 0.930 . S
C2998 C2997 1.369 . S
C2998 C3007 1.429 . S
C2999 C2997 1.419 . S
C2999 C3000 1.363 . S
C2999 H3002 0.929 . S
C3000 C2999 1.363 . S
C3000 C3006 1.428 . S
H3001 C2997 0.930 . S
H3002 C2999 0.929 . S
S3003 N3004 1.613 . S
S3003 N3005 1.610 . S
N3004 S3003 1.613 . S
N3004 C3007 1.350 . S
N3005 S3003 1.610 . S
N3005 C3006 1.351 . S
C3006 C3000 1.428 . S
C3006 N3005 1.351 . S
C3006 C3007 1.434 . S
C3007 C2998 1.429 . S
C3007 N3004 1.350 . S
C3007 C3006 1.434 . S
C3008 C3009 1.369 . S
C3008 C3010 1.419 . S
C3008 H3012 0.930 . S
C3009 C3008 1.369 . S
C3009 C3018 1.429 . S
C3010 C3008 1.419 . S
C3010 C3011 1.363 . S
C3010 H3013 0.929 . S
C3011 C3010 1.363 . S
C3011 C3017 1.428 . S
H3012 C3008 0.930 . S
H3013 C3010 0.929 . S
S3014 N3015 1.613 . S
S3014 N3016 1.610 . S
N3015 S3014 1.613 . S
N3015 C3018 1.350 . S
N3016 S3014 1.610 . S
N3016 C3017 1.351 . S
C3017 C3011 1.428 . S
C3017 N3016 1.351 . S
C3017 C3018 1.434 . S
C3018 C3009 1.429 . S
C3018 N3015 1.350 . S
C3018 C3017 1.434 . S
C3019 C3020 1.369 . S
C3019 C3021 1.419 . S
C3019 H3023 0.930 . S
C3020 C3019 1.369 . S
C3020 C3029 1.429 . S
C3021 C3019 1.419 . S
C3021 C3022 1.363 . S
C3021 H3024 0.929 . S
C3022 C3021 1.363 . S
C3022 C3028 1.428 . S
H3023 C3019 0.930 . S
H3024 C3021 0.929 . S
S3025 N3026 1.613 . S
S3025 N3027 1.610 . S
N3026 S3025 1.613 . S
N3026 C3029 1.350 . S
N3027 S3025 1.610 . S
N3027 C3028 1.351 . S
C3028 C3022 1.428 . S
C3028 N3027 1.351 . S
C3028 C3029 1.434 . S
C3029 C3020 1.429 . S
C3029 N3026 1.350 . S
C3029 C3028 1.434 . S
C3030 C3031 1.369 . S
C3030 C3032 1.419 . S
C3030 H3034 0.930 . S
C3031 C3030 1.369 . S
C3031 C3040 1.429 . S
C3032 C3030 1.419 . S
C3032 C3033 1.363 . S
C3032 H3035 0.929 . S
C3033 C3032 1.363 . S
C3033 C3039 1.428 . S
H3034 C3030 0.930 . S
H3035 C3032 0.929 . S
S3036 N3037 1.613 . S
S3036 N3038 1.610 . S
N3037 S3036 1.613 . S
N3037 C3040 1.350 . S
N3038 S3036 1.610 . S
N3038 C3039 1.351 . S
C3039 C3033 1.428 . S
C3039 N3038 1.351 . S
C3039 C3040 1.434 . S
C3040 C3031 1.429 . S
C3040 N3037 1.350 . S
C3040 C3039 1.434 . S
C3041 C3042 1.369 . S
C3041 C3043 1.419 . S
C3041 H3045 0.930 . S
C3042 C3041 1.369 . S
C3042 C3051 1.429 . S
C3043 C3041 1.419 . S
C3043 C3044 1.363 . S
C3043 H3046 0.929 . S
C3044 C3043 1.363 . S
C3044 C3050 1.428 . S
H3045 C3041 0.930 . S
H3046 C3043 0.929 . S
S3047 N3048 1.613 . S
S3047 N3049 1.610 . S
N3048 S3047 1.613 . S
N3048 C3051 1.350 . S
N3049 S3047 1.610 . S
N3049 C3050 1.351 . S
C3050 C3044 1.428 . S
C3050 N3049 1.351 . S
C3050 C3051 1.434 . S
C3051 C3042 1.429 . S
C3051 N3048 1.350 . S
C3051 C3050 1.434 . S
C3052 C3053 1.369 . S
C3052 C3054 1.419 . S
C3052 H3056 0.930 . S
C3053 C3052 1.369 . S
C3053 C3062 1.429 . S
C3054 C3052 1.419 . S
C3054 C3055 1.363 . S
C3054 H3057 0.929 . S
C3055 C3054 1.363 . S
C3055 C3061 1.428 . S
H3056 C3052 0.930 . S
H3057 C3054 0.929 . S
S3058 N3059 1.613 . S
S3058 N3060 1.610 . S
N3059 S3058 1.613 . S
N3059 C3062 1.350 . S
N3060 S3058 1.610 . S
N3060 C3061 1.351 . S
C3061 C3055 1.428 . S
C3061 N3060 1.351 . S
C3061 C3062 1.434 . S
C3062 C3053 1.429 . S
C3062 N3059 1.350 . S
C3062 C3061 1.434 . S
C3063 C3064 1.369 . S
C3063 C3065 1.419 . S
C3063 H3067 0.930 . S
C3064 C3063 1.369 . S
C3064 C3073 1.429 . S
C3065 C3063 1.419 . S
C3065 C3066 1.363 . S
C3065 H3068 0.929 . S
C3066 C3065 1.363 . S
C3066 C3072 1.428 . S
H3067 C3063 0.930 . S
H3068 C3065 0.929 . S
S3069 N3070 1.613 . S
S3069 N3071 1.610 . S
N3070 S3069 1.613 . S
N3070 C3073 1.350 . S
N3071 S3069 1.610 . S
N3071 C3072 1.351 . S
C3072 C3066 1.428 . S
C3072 N3071 1.351 . S
C3072 C3073 1.434 . S
C3073 C3064 1.429 . S
C3073 N3070 1.350 . S
C3073 C3072 1.434 . S
C3074 C3075 1.369 . S
C3074 C3076 1.419 . S
C3074 H3078 0.930 . S
C3075 C3074 1.369 . S
C3075 C3084 1.429 . S
C3076 C3074 1.419 . S
C3076 C3077 1.363 . S
C3076 H3079 0.929 . S
C3077 C3076 1.363 . S
C3077 C3083 1.428 . S
H3078 C3074 0.930 . S
H3079 C3076 0.929 . S
S3080 N3081 1.613 . S
S3080 N3082 1.610 . S
N3081 S3080 1.613 . S
N3081 C3084 1.350 . S
N3082 S3080 1.610 . S
N3082 C3083 1.351 . S
C3083 C3077 1.428 . S
C3083 N3082 1.351 . S
C3083 C3084 1.434 . S
C3084 C3075 1.429 . S
C3084 N3081 1.350 . S
C3084 C3083 1.434 . S
C3085 C3086 1.369 . S
C3085 C3087 1.419 . S
C3085 H3089 0.930 . S
C3086 C3085 1.369 . S
C3086 C3095 1.425 1_545 S
C3087 C3085 1.419 . S
C3087 C3088 1.363 . S
C3087 H3090 0.929 . S
C3088 C3087 1.363 . S
C3088 C3094 1.428 1_545 S
H3089 C3085 0.930 . S
H3090 C3087 0.929 . S
S3091 N3092 1.613 . S
S3091 N3093 1.610 . S
N3092 S3091 1.613 . S
N3092 C3095 1.368 . S
N3093 S3091 1.610 . S
N3093 C3094 1.351 . S
C3094 C3088 1.428 1_565 S
C3094 N3093 1.351 . S
C3094 C3095 1.421 . S
C3095 C3086 1.425 1_565 S
C3095 N3092 1.368 . S
C3095 C3094 1.421 . S
C2305 C9 1.357 1_655 S
C2307 C1307 1.078 . S
C2316 C19 1.801 . S
C2318 C1447 1.095 . S
C2329 C1535 1.180 . S
C2327 C33 1.432 . S
C2338 C37 1.476 . S
C2340 C1675 1.090 1_565 S
C2349 C5 1.401 . S
C2351 C1789 1.064 . S
C2360 C23 1.884 . S
C2362 C1877 1.302 . S
C2371 C47 1.370 . S
C2373 C1763 1.091 . S
C2384 C1903 1.531 . S
C2382 C65 1.745 . S
C2395 C1649 1.149 . S
C2393 C75 1.392 . S
C2404 C79 1.382 . S
C2406 C1561 1.049 . S
C2417 C1333 1.071 . S
C2415 C51 1.426 . S
C2426 C61 1.705 . S
C2428 C1421 1.574 . S
C2437 C93 1.984 . S
C2439 C1991 1.359 . S
C2448 C103 1.900 . S
C2450 C2131 1.189 . S
C2461 C2219 1.321 . S
C2459 C117 1.872 . S
C2470 C121 1.943 . S
C2472 C307 1.206 . S
C2481 C89 1.926 . S
C2483 C421 1.193 . S
C2492 C107 1.970 . S
C2494 C509 1.391 . S
C2503 C131 1.667 . S
C2505 C395 1.546 . S
C2514 C149 1.824 . S
C2516 C535 1.651 . S
C2527 C281 1.591 . S
C2525 C159 1.723 . S
C2538 C2245 1.726 . S
C2536 C163 1.900 . S
C2549 C2017 1.674 . S
C2547 C135 1.852 . S
C2560 C2105 1.702 . S
C2558 C145 1.789 . S
C2569 C177 1.868 . S
C2571 C623 1.247 . S
C2580 C187 1.886 . S
C2582 C763 1.178 . S
C2591 C201 1.899 . S
C2593 C851 1.339 . S
C2602 C205 2.059 . S
C2604 C991 1.302 . S
C2615 C1105 1.182 . S
C2613 C173 1.921 . S
C2626 C1193 1.419 . S
C2624 C191 1.991 . S
C2637 C1079 1.663 . S
C2635 C215 1.800 . S
C2648 C1219 1.663 . S
C2646 C233 1.840 . S
C2657 C243 1.698 . S
C2659 C965 1.587 . S
C2670 C877 1.615 . S
C2668 C247 1.772 . S
C2679 C219 1.865 . S
C2681 C649 1.666 . S
C2692 C737 1.681 . S
C2690 C229 1.780 . S
C2703 C263 0.963 . S
C2701 C11 1.851 . S
C2712 C14 1.733 . S
C2714 C377 0.935 . S
C2725 C481 1.331 . S
C2723 C28 1.917 . S
C2736 C595 1.274 . S
C2734 C39 1.828 . S
C2747 C719 0.995 . S
C2745 C0 1.863 . S
C2758 C823 1.199 . S
C2756 C25 1.713 . S
C2767 C42 2.081 . S
C2769 C833 1.661 . S
C2778 C67 1.890 . S
C2780 C605 1.557 . S
C2789 C70 1.932 . S
C2791 C709 1.760 . S
C2800 C81 1.872 . S
C2802 C367 1.726 . S
C2813 C491 1.678 . S
C2811 C53 2.037 . S
C2822 C56 1.953 . S
C2824 C253 1.784 . S
C2835 C947 0.974 . S
C2833 C95 1.763 . S
C2844 C98 1.854 . S
C2846 C1061 1.056 . S
C2855 C112 1.919 . S
C2857 C1165 1.414 . S
C2868 C1279 1.095 . S
C2866 C123 1.319 . S
C2877 C84 1.764 . S
C2879 C1403 0.966 . S
C2888 C109 1.344 . S
C2890 C1507 1.125 . S
C2899 C126 1.515 . S
C2901 C1517 0.982 1_565 S
C2910 C151 1.387 . S
C2912 C1289 0.951 1_455 S
C2923 C1393 1.666 . S
C2921 C154 1.845 . S
C2932 C165 1.815 . S
C2934 C1051 1.693 . S
C2943 C137 1.994 . S
C2945 C1175 1.633 . S
C2956 C937 1.862 . S
C2954 C140 2.053 . S
C2967 C1631 0.946 . S
C2965 C179 1.449 . S
C2976 C182 1.349 . S
C2978 C1745 0.920 . S
C2987 C196 1.818 . S
C2989 C1849 1.299 . S
C3000 C1963 1.270 . S
C2998 C207 1.764 . S
C3011 C2087 1.097 . S
C3009 C168 1.853 . S
C3020 C193 1.824 . S
C3022 C2191 1.343 . S
C3031 C210 2.004 . S
C3033 C2201 1.605 . S
C3042 C235 1.997 . S
C3044 C1973 1.622 . S
C3055 C2077 1.770 . S
C3053 C238 1.929 . S
C3066 C1735 1.098 1_655 S
C3064 C249 1.273 . S
C3077 C1859 1.560 . S
C3075 C221 1.917 . S
C3086 C224 1.439 . S
C3088 C1621 1.196 1_545 S
