# Generated by pormake.
# Topology ctn, (3,4)-cn, num edge types: 1
# Building blocks:
#     Node 0, Type 0, BuildingBlock: ESEHIV_clean_linker_0, # of connection points: 3
#     Node 1, Type 0, BuildingBlock: ESEHIV_clean_linker_0, # of connection points: 3
#     Node 2, Type 0, BuildingBlock: ESEHIV_clean_linker_0, # of connection points: 3
#     Node 3, Type 0, BuildingBlock: ESEHIV_clean_linker_0, # of connection points: 3
#     Node 4, Type 0, BuildingBlock: ESEHIV_clean_linker_0, # of connection points: 3
#     Node 5, Type 0, BuildingBlock: ESEHIV_clean_linker_0, # of connection points: 3
#     Node 6, Type 0, BuildingBlock: ESEHIV_clean_linker_0, # of connection points: 3
#     Node 7, Type 0, BuildingBlock: ESEHIV_clean_linker_0, # of connection points: 3
#     Node 8, Type 0, BuildingBlock: ESEHIV_clean_linker_0, # of connection points: 3
#     Node 9, Type 0, BuildingBlock: ESEHIV_clean_linker_0, # of connection points: 3
#     Node 10, Type 0, BuildingBlock: ESEHIV_clean_linker_0, # of connection points: 3
#     Node 11, Type 0, BuildingBlock: ESEHIV_clean_linker_0, # of connection points: 3
#     Node 12, Type 0, BuildingBlock: ESEHIV_clean_linker_0, # of connection points: 3
#     Node 13, Type 0, BuildingBlock: ESEHIV_clean_linker_0, # of connection points: 3
#     Node 14, Type 0, BuildingBlock: ESEHIV_clean_linker_0, # of connection points: 3
#     Node 15, Type 0, BuildingBlock: ESEHIV_clean_linker_0, # of connection points: 3
#     Node 16, Type 1, BuildingBlock: KUFVIS_clean_sbu_0, # of connection points: 4
#     Node 17, Type 1, BuildingBlock: KUFVIS_clean_sbu_0, # of connection points: 4
#     Node 18, Type 1, BuildingBlock: KUFVIS_clean_sbu_0, # of connection points: 4
#     Node 19, Type 1, BuildingBlock: KUFVIS_clean_sbu_0, # of connection points: 4
#     Node 20, Type 1, BuildingBlock: KUFVIS_clean_sbu_0, # of connection points: 4
#     Node 21, Type 1, BuildingBlock: KUFVIS_clean_sbu_0, # of connection points: 4
#     Node 22, Type 1, BuildingBlock: KUFVIS_clean_sbu_0, # of connection points: 4
#     Node 23, Type 1, BuildingBlock: KUFVIS_clean_sbu_0, # of connection points: 4
#     Node 24, Type 1, BuildingBlock: KUFVIS_clean_sbu_0, # of connection points: 4
#     Node 25, Type 1, BuildingBlock: KUFVIS_clean_sbu_0, # of connection points: 4
#     Node 26, Type 1, BuildingBlock: KUFVIS_clean_sbu_0, # of connection points: 4
#     Node 27, Type 1, BuildingBlock: KUFVIS_clean_sbu_0, # of connection points: 4
#     Edge 28, Type (0, 1), BuildingBlock: MIFKUJ_clean_linker_0, # of connection points: 2
#     Edge 29, Type (0, 1), BuildingBlock: MIFKUJ_clean_linker_0, # of connection points: 2
#     Edge 30, Type (0, 1), BuildingBlock: MIFKUJ_clean_linker_0, # of connection points: 2
#     Edge 31, Type (0, 1), BuildingBlock: MIFKUJ_clean_linker_0, # of connection points: 2
#     Edge 32, Type (0, 1), BuildingBlock: MIFKUJ_clean_linker_0, # of connection points: 2
#     Edge 33, Type (0, 1), BuildingBlock: MIFKUJ_clean_linker_0, # of connection points: 2
#     Edge 34, Type (0, 1), BuildingBlock: MIFKUJ_clean_linker_0, # of connection points: 2
#     Edge 35, Type (0, 1), BuildingBlock: MIFKUJ_clean_linker_0, # of connection points: 2
#     Edge 36, Type (0, 1), BuildingBlock: MIFKUJ_clean_linker_0, # of connection points: 2
#     Edge 37, Type (0, 1), BuildingBlock: MIFKUJ_clean_linker_0, # of connection points: 2
#     Edge 38, Type (0, 1), BuildingBlock: MIFKUJ_clean_linker_0, # of connection points: 2
#     Edge 39, Type (0, 1), BuildingBlock: MIFKUJ_clean_linker_0, # of connection points: 2
#     Edge 40, Type (0, 1), BuildingBlock: MIFKUJ_clean_linker_0, # of connection points: 2
#     Edge 41, Type (0, 1), BuildingBlock: MIFKUJ_clean_linker_0, # of connection points: 2
#     Edge 42, Type (0, 1), BuildingBlock: MIFKUJ_clean_linker_0, # of connection points: 2
#     Edge 43, Type (0, 1), BuildingBlock: MIFKUJ_clean_linker_0, # of connection points: 2
#     Edge 44, Type (0, 1), BuildingBlock: MIFKUJ_clean_linker_0, # of connection points: 2
#     Edge 45, Type (0, 1), BuildingBlock: MIFKUJ_clean_linker_0, # of connection points: 2
#     Edge 46, Type (0, 1), BuildingBlock: MIFKUJ_clean_linker_0, # of connection points: 2
#     Edge 47, Type (0, 1), BuildingBlock: MIFKUJ_clean_linker_0, # of connection points: 2
#     Edge 48, Type (0, 1), BuildingBlock: MIFKUJ_clean_linker_0, # of connection points: 2
#     Edge 49, Type (0, 1), BuildingBlock: MIFKUJ_clean_linker_0, # of connection points: 2
#     Edge 50, Type (0, 1), BuildingBlock: MIFKUJ_clean_linker_0, # of connection points: 2
#     Edge 51, Type (0, 1), BuildingBlock: MIFKUJ_clean_linker_0, # of connection points: 2
#     Edge 52, Type (0, 1), BuildingBlock: MIFKUJ_clean_linker_0, # of connection points: 2
#     Edge 53, Type (0, 1), BuildingBlock: MIFKUJ_clean_linker_0, # of connection points: 2
#     Edge 54, Type (0, 1), BuildingBlock: MIFKUJ_clean_linker_0, # of connection points: 2
#     Edge 55, Type (0, 1), BuildingBlock: MIFKUJ_clean_linker_0, # of connection points: 2
#     Edge 56, Type (0, 1), BuildingBlock: MIFKUJ_clean_linker_0, # of connection points: 2
#     Edge 57, Type (0, 1), BuildingBlock: MIFKUJ_clean_linker_0, # of connection points: 2
#     Edge 58, Type (0, 1), BuildingBlock: MIFKUJ_clean_linker_0, # of connection points: 2
#     Edge 59, Type (0, 1), BuildingBlock: MIFKUJ_clean_linker_0, # of connection points: 2
#     Edge 60, Type (0, 1), BuildingBlock: MIFKUJ_clean_linker_0, # of connection points: 2
#     Edge 61, Type (0, 1), BuildingBlock: MIFKUJ_clean_linker_0, # of connection points: 2
#     Edge 62, Type (0, 1), BuildingBlock: MIFKUJ_clean_linker_0, # of connection points: 2
#     Edge 63, Type (0, 1), BuildingBlock: MIFKUJ_clean_linker_0, # of connection points: 2
#     Edge 64, Type (0, 1), BuildingBlock: MIFKUJ_clean_linker_0, # of connection points: 2
#     Edge 65, Type (0, 1), BuildingBlock: MIFKUJ_clean_linker_0, # of connection points: 2
#     Edge 66, Type (0, 1), BuildingBlock: MIFKUJ_clean_linker_0, # of connection points: 2
#     Edge 67, Type (0, 1), BuildingBlock: MIFKUJ_clean_linker_0, # of connection points: 2
#     Edge 68, Type (0, 1), BuildingBlock: MIFKUJ_clean_linker_0, # of connection points: 2
#     Edge 69, Type (0, 1), BuildingBlock: MIFKUJ_clean_linker_0, # of connection points: 2
#     Edge 70, Type (0, 1), BuildingBlock: MIFKUJ_clean_linker_0, # of connection points: 2
#     Edge 71, Type (0, 1), BuildingBlock: MIFKUJ_clean_linker_0, # of connection points: 2
#     Edge 72, Type (0, 1), BuildingBlock: MIFKUJ_clean_linker_0, # of connection points: 2
#     Edge 73, Type (0, 1), BuildingBlock: MIFKUJ_clean_linker_0, # of connection points: 2
#     Edge 74, Type (0, 1), BuildingBlock: MIFKUJ_clean_linker_0, # of connection points: 2
#     Edge 75, Type (0, 1), BuildingBlock: MIFKUJ_clean_linker_0, # of connection points: 2
# Relax obj value: 0.012
# Max RMSD: 0.062
# Mean RMSD: 0.030
data_MOF--net-ctn--node1-KUFVIS_clean_sbu_0--node2-ESEHIV_clean_linker_0--edge1-MIFKUJ_clean_linker_0
_symmetry_space_group_name_H-M    P1
_symmetry_Int_Tables_number       1
_symmetry_cell_setting            triclinic
loop_
_symmetry_equiv_pos_as_xyz
'x, y, z'
_cell_length_a     67.603108
_cell_length_b     67.397601
_cell_length_c     67.6416
_cell_angle_alpha  90.846537
_cell_angle_beta   90.37555
_cell_angle_gamma 91.486481
loop_
_atom_site_label
_atom_site_type_symbol
_atom_site_fract_x
_atom_site_fract_y
_atom_site_fract_z
_atom_type_partial_charge
H0 H 0.01791 0.07063 0.05303 0.0
H1 H 0.05461 0.02173 0.06758 0.0
H2 H 0.06791 0.05709 0.01673 0.0
C3 C 0.03054 0.06157 0.04988 0.0
C4 C 0.04236 0.06582 0.03334 0.0
C5 C 0.03482 0.0457 0.06236 0.0
C6 C 0.05125 0.03401 0.05809 0.0
C7 C 0.06332 0.03796 0.04167 0.0
C8 C 0.05873 0.05393 0.02942 0.0
H9 H 0.31665 0.68011 0.22103 0.0
H10 H 0.33853 0.73074 0.18911 0.0
H11 H 0.28701 0.69785 0.16788 0.0
C12 C 0.31546 0.69011 0.20868 0.0
C13 C 0.30023 0.68705 0.19466 0.0
C14 C 0.32952 0.7056 0.20658 0.0
C15 C 0.32793 0.71851 0.19058 0.0
C16 C 0.31258 0.71587 0.1766 0.0
C17 C 0.29901 0.69985 0.17849 0.0
H18 H 0.96343 0.50242 0.06051 0.0
H19 H 0.99934 0.45304 0.04443 0.0
H20 H 0.94748 0.46525 0.01027 0.0
C21 C 0.96632 0.48991 0.05084 0.0
C22 C 0.95347 0.48559 0.03474 0.0
C23 C 0.98279 0.47814 0.05469 0.0
C24 C 0.9866 0.4621 0.04184 0.0
C25 C 0.97394 0.45739 0.02581 0.0
C26 C 0.95737 0.4691 0.02247 0.0
H27 H 0.67628 0.78453 0.20219 0.0
H28 H 0.7271 0.81727 0.18115 0.0
H29 H 0.69461 0.83926 0.23114 0.0
C30 C 0.68628 0.79735 0.20324 0.0
C31 C 0.68348 0.81182 0.21806 0.0
C32 C 0.70205 0.79922 0.18994 0.0
C33 C 0.7151 0.81571 0.19162 0.0
C34 C 0.71255 0.83037 0.20634 0.0
C35 C 0.69652 0.82837 0.2194 0.0
H36 H 0.0115 0.94994 0.46882 0.0
H37 H 0.0538 0.99441 0.45038 0.0
H38 H 0.0653 0.96035 0.50227 0.0
C39 C 0.02552 0.95784 0.47109 0.0
C40 C 0.03782 0.95303 0.48712 0.0
C41 C 0.03128 0.97268 0.45777 0.0
C42 C 0.04937 0.98305 0.46074 0.0
C43 C 0.06165 0.97895 0.47695 0.0
C44 C 0.05579 0.96379 0.48992 0.0
H45 H 0.17852 0.72271 0.81987 0.0
H46 H 0.22823 0.69044 0.84133 0.0
H47 H 0.20141 0.67452 0.78526 0.0
C48 C 0.18901 0.71093 0.81804 0.0
C49 C 0.18809 0.69886 0.80093 0.0
C50 C 0.20343 0.70804 0.83272 0.0
C51 C 0.21701 0.69279 0.83014 0.0
C52 C 0.2164 0.68071 0.81304 0.0
C53 C 0.20189 0.68379 0.7985 0.0
H54 H 0.95982 0.54645 0.50406 0.0
H55 H 0.01014 0.55894 0.46712 0.0
H56 H 0.97133 0.50883 0.45372 0.0
C57 C 0.96893 0.54272 0.49146 0.0
C58 C 0.96372 0.52614 0.47957 0.0
C59 C 0.98567 0.55464 0.48713 0.0
C60 C 0.99724 0.5498 0.47065 0.0
C61 C 0.99212 0.5333 0.45855 0.0
C62 C 0.97538 0.5215 0.4631 0.0
H63 H 0.784 0.81826 0.83457 0.0
H64 H 0.81802 0.84304 0.78719 0.0
H65 H 0.83813 0.79115 0.8169 0.0
C66 C 0.79697 0.81792 0.82526 0.0
C67 C 0.81106 0.80315 0.82793 0.0
C68 C 0.79945 0.83234 0.81063 0.0
C69 C 0.81613 0.83182 0.79838 0.0
C70 C 0.8301 0.81681 0.80023 0.0
C71 C 0.82744 0.80268 0.8152 0.0
H72 H 0.2854 0.32248 0.33651 0.0
H73 H 0.31874 0.34339 0.28695 0.0
H74 H 0.33554 0.29004 0.31637 0.0
C75 C 0.29753 0.32061 0.32632 0.0
C76 C 0.31046 0.30478 0.32865 0.0
C77 C 0.30028 0.33438 0.31114 0.0
C78 C 0.3165 0.33254 0.29842 0.0
C79 C 0.3295 0.31664 0.30017 0.0
C80 C 0.3262 0.3028 0.31531 0.0
H81 H 0.46152 1.00093 0.56227 0.0
H82 H 0.49633 0.95014 0.54803 0.0
H83 H 0.44893 0.96662 0.50939 0.0
C84 C 0.46485 0.98859 0.55251 0.0
C85 C 0.4535 0.98541 0.5352 0.0
C86 C 0.48044 0.97602 0.55727 0.0
C87 C 0.48442 0.95996 0.5445 0.0
C88 C 0.47307 0.95634 0.52727 0.0
C89 C 0.45772 0.96925 0.52267 0.0
H90 H 0.17721 0.28373 0.69584 0.0
H91 H 0.22876 0.31681 0.67672 0.0
H92 H 0.1983 0.33471 0.72943 0.0
C93 C 0.18761 0.29614 0.69771 0.0
C94 C 0.18575 0.30912 0.71402 0.0
C95 C 0.20337 0.29855 0.68439 0.0
C96 C 0.21696 0.3145 0.68727 0.0
C97 C 0.21522 0.32773 0.70339 0.0
C98 C 0.19962 0.32481 0.71675 0.0
H99 H 0.82004 0.17268 0.71834 0.0
H100 H 0.83977 0.22536 0.68822 0.0
H101 H 0.78656 0.19427 0.66921 0.0
C102 C 0.81817 0.18336 0.7067 0.0
C103 C 0.80162 0.18151 0.69404 0.0
C104 C 0.83207 0.1991 0.70478 0.0
C105 C 0.82946 0.21288 0.6896 0.0
C106 C 0.81298 0.21132 0.67685 0.0
C107 C 0.79915 0.19562 0.67918 0.0
H108 H 0.51546 0.56657 0.5529 0.0
H109 H 0.55326 0.51832 0.56657 0.0
H110 H 0.56506 0.55403 0.51569 0.0
C111 C 0.52817 0.55775 0.54947 0.0
C112 C 0.53963 0.56231 0.53274 0.0
C113 C 0.53294 0.54192 0.56184 0.0
C114 C 0.54947 0.53053 0.55718 0.0
C115 C 0.56118 0.5347 0.54055 0.0
C116 C 0.55612 0.55066 0.52848 0.0
H117 H 0.51289 0.44976 0.96845 0.0
H118 H 0.54819 0.50259 0.95872 0.0
H119 H 0.56123 0.46555 0.008 0.0
C120 C 0.52494 0.45975 0.973 0.0
C121 C 0.53653 0.45537 0.9897 0.0
C122 C 0.52884 0.47695 0.96198 0.0
C123 C 0.54474 0.48969 0.96757 0.0
C124 C 0.55678 0.48538 0.98387 0.0
C125 C 0.55238 0.4684 0.99499 0.0
H126 H 0.6812 0.22673 0.31962 0.0
H127 H 0.7341 0.19778 0.33825 0.0
H128 H 0.7027 0.17728 0.28599 0.0
C129 C 0.69187 0.21512 0.31772 0.0
C130 C 0.69 0.20209 0.30139 0.0
C131 C 0.70785 0.21388 0.33102 0.0
C132 C 0.72191 0.19914 0.32791 0.0
C133 C 0.72005 0.18575 0.31183 0.0
C134 C 0.7041 0.18739 0.29857 0.0
H135 H 0.45576 0.04784 0.00413 0.0
H136 H 0.50833 0.05845 0.96965 0.0
H137 H 0.46751 0.01106 0.95334 0.0
C138 C 0.46543 0.04384 0.99207 0.0
C139 C 0.45985 0.02781 0.97954 0.0
C140 C 0.48278 0.05525 0.9886 0.0
C141 C 0.49477 0.05007 0.97245 0.0
C142 C 0.48918 0.03436 0.95956 0.0
C143 C 0.47169 0.02336 0.96315 0.0
Mn144 Mn 0.25278 0.87767 0.00409 0.0
Mn145 Mn 0.24984 0.89687 0.95839 0.0
C146 C 0.23544 0.86049 0.97909 0.0
C147 C 0.26821 0.85854 0.02795 0.0
C148 C 0.22577 0.91165 0.99303 0.0
O149 O 0.27533 0.89855 0.00431 0.0
O150 O 0.27285 0.90894 0.9729 0.0
C151 C 0.28654 0.88105 0.94126 0.0
N152 N 0.26655 0.883 0.94053 0.0
C153 C 0.26424 0.86479 0.9097 0.0
C154 C 0.28482 0.86266 0.91006 0.0
C155 C 0.296 0.87078 0.92594 0.0
C156 C 0.25564 0.8752 0.92537 0.0
H157 H 0.29518 0.88731 0.95342 0.0
C158 C 0.28132 0.90918 0.98991 0.0
O159 O 0.25639 0.87264 0.03279 0.0
O160 O 0.27163 0.85597 0.00923 0.0
N161 N 0.22836 0.88634 0.9427 0.0
C162 C 0.20857 0.88852 0.94534 0.0
C163 C 0.19526 0.88103 0.93094 0.0
C164 C 0.20246 0.87147 0.91398 0.0
C165 C 0.22285 0.86908 0.91173 0.0
C166 C 0.23542 0.87707 0.92647 0.0
H167 H 0.20298 0.89602 0.95828 0.0
O168 O 0.23161 0.85718 0.99755 0.0
O169 O 0.24923 0.87382 0.97581 0.0
O170 O 0.23219 0.89943 0.0056 0.0
O171 O 0.23172 0.91212 0.97518 0.0
C172 C 0.2312 0.85901 0.89554 0.0
C173 C 0.25187 0.85676 0.89458 0.0
H174 H 0.29216 0.8547 0.8983 0.0
H175 H 0.31188 0.86913 0.92636 0.0
H176 H 0.1795 0.88278 0.93278 0.0
H177 H 0.19219 0.86617 0.90275 0.0
H178 H 0.22186 0.85275 0.88385 0.0
H179 H 0.25809 0.8487 0.88223 0.0
Mn180 Mn 0.1388 0.50872 0.2543 0.0
Mn181 Mn 0.11797 0.55373 0.25543 0.0
C182 C 0.15425 0.53533 0.23877 0.0
C183 C 0.15915 0.48458 0.26742 0.0
C184 C 0.10436 0.52085 0.22734 0.0
O185 O 0.11928 0.506 0.277 0.0
O186 O 0.10563 0.53603 0.27537 0.0
C187 C 0.13265 0.56623 0.29519 0.0
N188 N 0.13083 0.56973 0.27548 0.0
C189 C 0.14747 0.60157 0.27911 0.0
C190 C 0.14945 0.59836 0.29946 0.0
C191 C 0.14209 0.58057 0.30751 0.0
C192 C 0.13806 0.58669 0.26756 0.0
H193 H 0.12694 0.55262 0.30147 0.0
C194 C 0.10693 0.51878 0.28284 0.0
O195 O 0.14466 0.47993 0.25541 0.0
O196 O 0.16154 0.50321 0.27223 0.0
N197 N 0.1281 0.57283 0.23726 0.0
C198 C 0.12564 0.57328 0.21726 0.0
C199 C 0.13186 0.59021 0.20695 0.0
C200 C 0.14045 0.6065 0.21732 0.0
C201 C 0.14318 0.60555 0.23782 0.0
C202 C 0.13634 0.58845 0.24735 0.0
H203 H 0.11872 0.56093 0.20928 0.0
O204 O 0.1578 0.51719 0.23347 0.0
O205 O 0.14172 0.53749 0.25318 0.0
O206 O 0.11603 0.50785 0.23392 0.0
O207 O 0.10407 0.5386 0.23414 0.0
C208 C 0.15234 0.62093 0.24919 0.0
C209 C 0.15463 0.61887 0.2698 0.0
H210 H 0.15669 0.6094 0.30901 0.0
H211 H 0.14366 0.57794 0.32318 0.0
H212 H 0.12975 0.59082 0.1911 0.0
H213 H 0.14469 0.61978 0.20946 0.0
H214 H 0.15785 0.63431 0.24219 0.0
H215 H 0.16193 0.63068 0.27835 0.0
Mn216 Mn 0.7588 0.63198 0.0071 0.0
Mn217 Mn 0.71885 0.65231 0.98576 0.0
C218 C 0.72826 0.61541 0.00799 0.0
C219 C 0.7872 0.6128 0.00687 0.0
C220 C 0.73398 0.66492 0.02611 0.0
O221 O 0.77155 0.65271 0.98918 0.0
O222 O 0.74371 0.66607 0.97762 0.0
C223 C 0.72804 0.63975 0.94475 0.0
N224 N 0.71512 0.64054 0.96009 0.0
C225 C 0.68935 0.62445 0.94055 0.0
C226 C 0.70234 0.62356 0.9245 0.0
C227 C 0.7218 0.63116 0.92664 0.0
C228 C 0.69646 0.63308 0.95825 0.0
H229 H 0.74298 0.64564 0.9463 0.0
C230 C 0.76254 0.66543 0.97895 0.0
O231 O 0.78468 0.62679 0.01989 0.0
O232 O 0.77341 0.61021 0.99352 0.0
N233 N 0.69335 0.64114 0.99165 0.0
C234 C 0.68289 0.64269 0.00872 0.0
C235 C 0.66305 0.63608 0.009 0.0
C236 C 0.65416 0.628 0.99175 0.0
C237 C 0.66522 0.62651 0.97439 0.0
C238 C 0.68481 0.63373 0.97488 0.0
H239 H 0.68955 0.6492 0.02192 0.0
O240 O 0.74202 0.61186 0.02083 0.0
O241 O 0.73276 0.62848 0.99455 0.0
O242 O 0.74905 0.65389 0.02586 0.0
O243 O 0.72126 0.66509 0.01209 0.0
C244 C 0.65759 0.61814 0.95662 0.0
C245 C 0.6697 0.61697 0.93975 0.0
H246 H 0.69756 0.61699 0.9105 0.0
H247 H 0.73193 0.63047 0.91435 0.0
H248 H 0.65456 0.63754 0.0224 0.0
H249 H 0.63877 0.62319 0.99188 0.0
H250 H 0.6425 0.61236 0.95583 0.0
H251 H 0.66376 0.61028 0.92624 0.0
Mn252 Mn 0.87933 0.00865 0.25809 0.0
Mn253 Mn 0.89938 0.96327 0.25643 0.0
C254 C 0.8626 0.98244 0.24209 0.0
C255 C 0.86002 0.03316 0.27244 0.0
C256 C 0.91265 0.99661 0.22989 0.0
O257 O 0.89969 0.01055 0.28046 0.0
O258 O 0.91259 0.98018 0.27718 0.0
C259 C 0.88581 0.94965 0.29566 0.0
N260 N 0.88699 0.94676 0.27573 0.0
C261 C 0.87007 0.91501 0.27769 0.0
C262 C 0.86875 0.91759 0.29824 0.0
C263 C 0.87655 0.93504 0.30724 0.0
C264 C 0.87934 0.93014 0.2669 0.0
H265 H 0.89185 0.963 0.30265 0.0
C266 C 0.91185 0.99733 0.2855 0.0
O267 O 0.87425 0.0375 0.26036 0.0
O268 O 0.85733 0.01456 0.27672 0.0
N269 N 0.88827 0.94498 0.23731 0.0
C270 C 0.88981 0.94529 0.21724 0.0
C271 C 0.88294 0.92884 0.20599 0.0
C272 C 0.87459 0.91226 0.21548 0.0
C273 C 0.87274 0.91247 0.2361 0.0
C274 C 0.88024 0.92909 0.24656 0.0
H275 H 0.89652 0.95787 0.20991 0.0
O276 O 0.85933 1.00069 0.23743 0.0
O277 O 0.87584 0.97996 0.25588 0.0
O278 O 0.90128 0.00953 0.23727 0.0
O279 O 0.91295 0.97873 0.23577 0.0
C280 C 0.86378 0.89682 0.24667 0.0
C281 C 0.8623 0.89816 0.26745 0.0
H282 H 0.86164 0.90636 0.30724 0.0
H283 H 0.87543 0.93721 0.32307 0.0
H284 H 0.88433 0.92883 0.19006 0.0
H285 H 0.86977 0.89938 0.20683 0.0
H286 H 0.85777 0.88379 0.23895 0.0
H287 H 0.85511 0.88618 0.27539 0.0
Mn288 Mn 0.25939 0.12885 0.50414 0.0
Mn289 Mn 0.21548 0.14267 0.48518 0.0
C290 C 0.23146 0.10834 0.50696 0.0
C291 C 0.28973 0.11305 0.50172 0.0
C292 C 0.2328 0.15986 0.52335 0.0
O293 O 0.26762 0.15075 0.48499 0.0
O294 O 0.23757 0.15778 0.47266 0.0
C295 C 0.22027 0.12716 0.44435 0.0
N296 N 0.20974 0.12787 0.46143 0.0
C297 C 0.18434 0.10593 0.44778 0.0
C298 C 0.19487 0.10503 0.43001 0.0
C299 C 0.21293 0.11564 0.42831 0.0
C300 C 0.19239 0.11765 0.46325 0.0
H301 H 0.23415 0.1353 0.443 0.0
C302 C 0.25643 0.16037 0.47343 0.0
O303 O 0.28687 0.12702 0.51471 0.0
O304 O 0.27522 0.10883 0.48956 0.0
N305 N 0.19275 0.12924 0.49582 0.0
C306 C 0.18498 0.13087 0.51429 0.0
C307 C 0.167 0.12099 0.51853 0.0
C308 C 0.15715 0.10966 0.50372 0.0
C309 C 0.16544 0.10818 0.48484 0.0
C310 C 0.18328 0.11854 0.48141 0.0
H311 H 0.19243 0.13964 0.5257 0.0
O312 O 0.24622 0.10678 0.51914 0.0
O313 O 0.23339 0.12189 0.49359 0.0
O314 O 0.24843 0.14966 0.52332 0.0
O315 O 0.21964 0.15846 0.50974 0.0
C316 C 0.15687 0.0966 0.46936 0.0
C317 C 0.16635 0.09541 0.45087 0.0
H318 H 0.1893 0.09612 0.41762 0.0
H319 H 0.22118 0.11496 0.41467 0.0
H320 H 0.16072 0.12214 0.53317 0.0
H321 H 0.14326 0.10214 0.50705 0.0
H322 H 0.14314 0.08831 0.47162 0.0
H323 H 0.15977 0.08622 0.43918 0.0
Mn324 Mn 0.37963 0.50827 0.75939 0.0
Mn325 Mn 0.39721 0.46187 0.75667 0.0
C326 C 0.36104 0.48282 0.7443 0.0
C327 C 0.36202 0.53344 0.77482 0.0
C328 C 0.41185 0.49537 0.73073 0.0
O329 O 0.40164 0.50888 0.78049 0.0
O330 O 0.41045 0.47683 0.77869 0.0
C331 C 0.382 0.44622 0.79447 0.0
N332 N 0.3831 0.44493 0.7744 0.0
C333 C 0.36308 0.41488 0.77364 0.0
C334 C 0.36178 0.41584 0.79432 0.0
C335 C 0.37123 0.43162 0.80476 0.0
C336 C 0.37393 0.4299 0.76419 0.0
H337 H 0.38929 0.45829 0.80255 0.0
C338 C 0.41177 0.49428 0.78647 0.0
O339 O 0.37565 0.53727 0.76193 0.0
O340 O 0.35927 0.51496 0.77957 0.0
N341 N 0.38533 0.44582 0.73601 0.0
C342 C 0.38726 0.44757 0.71606 0.0
C343 C 0.37823 0.43324 0.70344 0.0
C344 C 0.36753 0.41717 0.71145 0.0
C345 C 0.36593 0.41558 0.73202 0.0
C346 C 0.37521 0.43032 0.74387 0.0
H347 H 0.39557 0.45982 0.70982 0.0
O348 O 0.35786 0.50117 0.74003 0.0
O349 O 0.37497 0.47996 0.75715 0.0
O350 O 0.39994 0.50825 0.73714 0.0
O351 O 0.41256 0.47782 0.73746 0.0
C352 C 0.3554 0.40001 0.74124 0.0
C353 C 0.35388 0.39971 0.76203 0.0
H354 H 0.3535 0.4046 0.80231 0.0
H355 H 0.37024 0.4325 0.82071 0.0
H356 H 0.37955 0.43457 0.68758 0.0
H357 H 0.36053 0.40618 0.70167 0.0
H358 H 0.34819 0.38835 0.73245 0.0
H359 H 0.34545 0.38783 0.76891 0.0
Mn360 Mn 0.75568 0.37929 0.50838 0.0
Mn361 Mn 0.75668 0.40291 0.46469 0.0
C362 C 0.74082 0.36451 0.48063 0.0
C363 C 0.76916 0.35835 0.53188 0.0
C364 C 0.72953 0.41422 0.49822 0.0
O365 O 0.77793 0.40017 0.51237 0.0
O366 O 0.77835 0.41364 0.48198 0.0
C367 C 0.79465 0.38839 0.44926 0.0
N368 N 0.77478 0.39055 0.44711 0.0
C369 C 0.7749 0.37466 0.41502 0.0
C370 C 0.79539 0.37235 0.41684 0.0
C371 C 0.80528 0.37917 0.43407 0.0
C372 C 0.7651 0.38394 0.43065 0.0
H373 H 0.8023 0.39364 0.46248 0.0
C374 C 0.78506 0.41219 0.49964 0.0
O375 O 0.75653 0.37174 0.53664 0.0
O376 O 0.77448 0.35745 0.51347 0.0
N377 N 0.73652 0.39392 0.44654 0.0
C378 C 0.71659 0.39618 0.44771 0.0
C379 C 0.70446 0.3899 0.4318 0.0
C380 C 0.71297 0.38147 0.41489 0.0
C381 C 0.73348 0.37907 0.41411 0.0
C382 C 0.74485 0.38585 0.43031 0.0
H383 H 0.71 0.40283 0.46061 0.0
O384 O 0.73551 0.35934 0.49826 0.0
O385 O 0.75473 0.37818 0.47975 0.0
O386 O 0.73456 0.40053 0.50987 0.0
O387 O 0.7373 0.41674 0.48129 0.0
C388 C 0.74308 0.37014 0.39797 0.0
C389 C 0.76377 0.36782 0.39848 0.0
H390 H 0.80364 0.3652 0.40518 0.0
H391 H 0.82105 0.37729 0.43563 0.0
H392 H 0.68862 0.39172 0.43249 0.0
H393 H 0.70362 0.37706 0.40257 0.0
H394 H 0.73469 0.36481 0.38519 0.0
H395 H 0.77094 0.36064 0.38613 0.0
Mn396 Mn 0.63699 0.00625 0.7564 0.0
Mn397 Mn 0.61657 0.05149 0.75698 0.0
C398 C 0.65288 0.03263 0.74084 0.0
C399 C 0.65699 0.98191 0.76969 0.0
C400 C 0.60281 0.01845 0.72915 0.0
O401 O 0.61734 0.00393 0.77902 0.0
O402 O 0.60399 0.03409 0.77706 0.0
C403 C 0.63102 0.0644 0.79671 0.0
N404 N 0.62936 0.06767 0.77695 0.0
C405 C 0.64594 0.09957 0.78033 0.0
C406 C 0.64776 0.0966 0.80073 0.0
C407 C 0.64036 0.07889 0.80893 0.0
C408 C 0.63661 0.08455 0.76888 0.0
H409 H 0.62526 0.05087 0.8031 0.0
C410 C 0.6051 0.01689 0.78469 0.0
O411 O 0.6425 0.97742 0.75764 0.0
O412 O 0.65958 1.00054 0.77446 0.0
N413 N 0.62696 0.0703 0.73867 0.0
C414 C 0.62476 0.07046 0.71864 0.0
C415 C 0.63109 0.08724 0.70816 0.0
C416 C 0.63956 0.10368 0.71839 0.0
C417 C 0.64204 0.10302 0.73894 0.0
C418 C 0.63508 0.08606 0.74863 0.0
H419 H 0.61796 0.05799 0.71076 0.0
O420 O 0.6562 0.01441 0.73563 0.0
O421 O 0.64023 0.03502 0.75511 0.0
O422 O 0.61432 0.00541 0.73591 0.0
O423 O 0.60267 0.03627 0.73576 0.0
C424 C 0.6511 0.11854 0.7502 0.0
C425 C 0.65318 0.11675 0.77087 0.0
H426 H 0.65492 0.10774 0.81022 0.0
H427 H 0.6418 0.07645 0.82465 0.0
H428 H 0.62914 0.08761 0.69229 0.0
H429 H 0.64395 0.11682 0.71036 0.0
H430 H 0.65669 0.13182 0.74309 0.0
H431 H 0.66041 0.12865 0.77934 0.0
Mn432 Mn 0.00621 0.25542 0.87234 0.0
Mn433 Mn 0.95928 0.25081 0.88868 0.0
C434 C 0.98211 0.23876 0.85337 0.0
C435 C 0.03132 0.27168 0.85481 0.0
C436 C 0.99285 0.22657 0.90457 0.0
O437 O 0.00514 0.2772 0.89374 0.0
O438 O 0.97313 0.27342 0.90251 0.0
C439 C 0.94356 0.28829 0.87345 0.0
N440 N 0.94268 0.26811 0.87429 0.0
C441 C 0.9137 0.26645 0.85342 0.0
C442 C 0.91425 0.28722 0.8524 0.0
C443 C 0.92929 0.29818 0.8624 0.0
C444 C 0.92837 0.25742 0.86458 0.0
H445 H 0.95506 0.29677 0.88117 0.0
C446 C 0.9901 0.28231 0.90386 0.0
O447 O 0.03525 0.25951 0.8689 0.0
O448 O 0.01279 0.27516 0.85153 0.0
N449 N 0.94426 0.22962 0.87618 0.0
C450 C 0.94638 0.20967 0.87789 0.0
C451 C 0.93284 0.19657 0.86828 0.0
C452 C 0.91716 0.20413 0.8572 0.0
C453 C 0.91519 0.22472 0.85581 0.0
C454 C 0.92915 0.23704 0.86566 0.0
H455 H 0.95836 0.20377 0.88644 0.0
O456 O 1.00067 0.23501 0.85089 0.0
O457 O 0.9783 0.25179 0.86702 0.0
O458 O 0.00619 0.23394 0.89344 0.0
O459 O 0.9749 0.23199 0.90414 0.0
C460 C 0.89999 0.23349 0.84493 0.0
C461 C 0.89927 0.25434 0.84368 0.0
H462 H 0.90326 0.2949 0.8439 0.0
H463 H 0.92985 0.31421 0.86163 0.0
H464 H 0.93448 0.1807 0.86942 0.0
H465 H 0.90678 0.19399 0.84977 0.0
H466 H 0.88893 0.22432 0.83726 0.0
H467 H 0.88767 0.2609 0.83501 0.0
Mn468 Mn 0.50449 0.75391 0.37469 0.0
Mn469 Mn 0.45707 0.7494 0.38977 0.0
C470 C 0.48078 0.73856 0.35439 0.0
C471 C 0.53036 0.77064 0.35879 0.0
C472 C 0.49003 0.72414 0.40545 0.0
O473 O 0.50314 0.77453 0.3972 0.0
O474 O 0.47059 0.77178 0.40426 0.0
C475 C 0.44163 0.78714 0.37491 0.0
N476 N 0.44072 0.76694 0.37538 0.0
C477 C 0.41263 0.76565 0.3533 0.0
C478 C 0.4132 0.78644 0.35268 0.0
C479 C 0.42779 0.79722 0.36351 0.0
C480 C 0.42673 0.75642 0.36504 0.0
H481 H 0.45286 0.79548 0.38314 0.0
C482 C 0.48778 0.78006 0.40658 0.0
O483 O 0.5336 0.75751 0.37217 0.0
O484 O 0.51203 0.77485 0.35534 0.0
N485 N 0.44241 0.72843 0.37645 0.0
C486 C 0.44476 0.70845 0.37753 0.0
C487 C 0.4318 0.69553 0.36694 0.0
C488 C 0.41653 0.70327 0.35543 0.0
C489 C 0.41434 0.72387 0.35463 0.0
C490 C 0.4276 0.73601 0.36563 0.0
H491 H 0.4565 0.70241 0.38631 0.0
O492 O 0.49936 0.73482 0.35211 0.0
O493 O 0.47667 0.75096 0.36856 0.0
O494 O 0.50354 0.73118 0.39434 0.0
O495 O 0.47234 0.73032 0.4054 0.0
C496 C 0.39978 0.73285 0.34303 0.0
C497 C 0.39894 0.75372 0.34235 0.0
H498 H 0.40265 0.79428 0.34379 0.0
H499 H 0.42839 0.81327 0.36302 0.0
H500 H 0.43362 0.67965 0.36758 0.0
H501 H 0.40668 0.69327 0.34712 0.0
H502 H 0.38938 0.72384 0.33431 0.0
H503 H 0.38789 0.76044 0.33311 0.0
Mn504 Mn 0.00884 0.75613 0.63241 0.0
Mn505 Mn 0.98725 0.71478 0.6512 0.0
C506 C 0.00972 0.72625 0.61511 0.0
C507 C 0.00826 0.78528 0.61414 0.0
C508 C 0.02719 0.73074 0.665 0.0
O509 O 0.99052 0.7675 0.65327 0.0
O510 O 0.97803 0.73888 0.66537 0.0
C511 C 0.94637 0.72262 0.63801 0.0
N512 N 0.96217 0.7105 0.63843 0.0
C513 C 0.94431 0.68507 0.61983 0.0
C514 C 0.9278 0.69724 0.61928 0.0
C515 C 0.92888 0.71614 0.62833 0.0
C516 C 0.96139 0.69242 0.62952 0.0
H517 H 0.94709 0.73711 0.64503 0.0
C518 C 0.97958 0.75786 0.66527 0.0
O519 O 0.02123 0.78278 0.62804 0.0
O520 O 0.99532 0.77097 0.61106 0.0
N521 N 0.99437 0.69013 0.63913 0.0
C522 C 0.01171 0.68038 0.64065 0.0
C523 C 0.0132 0.66138 0.63206 0.0
C524 C 0.99674 0.65243 0.62239 0.0
C525 C 0.97893 0.66258 0.62141 0.0
C526 C 0.97837 0.68154 0.63009 0.0
H527 H 0.02434 0.6871 0.64824 0.0
O528 O 0.0228 0.74024 0.61187 0.0
O529 O 0.9964 0.73013 0.62833 0.0
O530 O 0.02733 0.74604 0.65409 0.0
O531 O 0.01309 0.71775 0.66483 0.0
C532 C 0.96169 0.65463 0.61215 0.0
C533 C 0.94447 0.66594 0.61116 0.0
H534 H 0.91425 0.69225 0.61192 0.0
H535 H 0.91623 0.72564 0.62793 0.0
H536 H 0.02699 0.65362 0.63295 0.0
H537 H 0.99795 0.63778 0.61577 0.0
H538 H 0.96155 0.63987 0.60562 0.0
H539 H 0.93141 0.65977 0.60373 0.0
Mn540 Mn 0.51023 0.25681 0.13312 0.0
Mn541 Mn 0.4893 0.21473 0.15121 0.0
C542 C 0.51138 0.22744 0.11506 0.0
C543 C 0.50899 0.28629 0.11543 0.0
C544 C 0.5286 0.23202 0.16584 0.0
O545 O 0.49196 0.26718 0.1547 0.0
O546 O 0.47786 0.23825 0.16451 0.0
C547 C 0.44861 0.21936 0.13584 0.0
N548 N 0.46522 0.20846 0.13725 0.0
C549 C 0.45047 0.18198 0.11746 0.0
C550 C 0.43314 0.19287 0.1159 0.0
C551 C 0.43223 0.21166 0.12509 0.0
C552 C 0.46629 0.1904 0.12841 0.0
H553 H 0.44788 0.23382 0.14286 0.0
C554 C 0.47986 0.25721 0.16536 0.0
O555 O 0.52226 0.28364 0.129 0.0
O556 O 0.49593 0.27204 0.11253 0.0
N557 N 0.49888 0.19074 0.1397 0.0
C558 C 0.51702 0.18264 0.14176 0.0
C559 C 0.52054 0.164 0.13311 0.0
C560 C 0.50533 0.15382 0.12259 0.0
C561 C 0.48675 0.1624 0.12077 0.0
C562 C 0.48406 0.18093 0.12987 0.0
H563 H 0.52875 0.19036 0.14989 0.0
O564 O 0.52406 0.24179 0.11185 0.0
O565 O 0.49828 0.23071 0.12866 0.0
O566 O 0.52945 0.24649 0.15393 0.0
O567 O 0.51409 0.21954 0.16636 0.0
C568 C 0.4709 0.15346 0.10999 0.0
C569 C 0.4528 0.16328 0.10828 0.0
H570 H 0.42051 0.18702 0.10754 0.0
H571 H 0.41895 0.22018 0.12387 0.0
H572 H 0.53493 0.15749 0.13454 0.0
H573 H 0.50812 0.13947 0.1159 0.0
H574 H 0.47259 0.1392 0.10269 0.0
H575 H 0.44082 0.1564 0.0997 0.0
H576 H 0.23639 0.72632 0.84884 0.0
H577 H 0.23809 0.75029 0.87628 0.0
H578 H 0.17492 0.74399 0.88394 0.0
H579 H 0.17313 0.72024 0.85621 0.0
H580 H 0.18479 0.78115 0.88401 0.0
H581 H 0.20881 0.72555 0.91816 0.0
H582 H 0.22954 0.69662 0.92396 0.0
H583 H 0.28168 0.73439 0.9247 0.0
H584 H 0.2613 0.76353 0.91861 0.0
H585 H 0.19847 0.84358 0.97474 0.0
H586 H 0.18844 0.81634 0.95217 0.0
H587 H 0.24668 0.81754 0.92655 0.0
H588 H 0.25726 0.84305 0.95062 0.0
H589 H 0.23383 0.78069 0.93875 0.0
H590 H 0.1989 0.82191 0.8777 0.0
H591 H 0.17452 0.8467 0.8681 0.0
H592 H 0.14107 0.83444 0.92046 0.0
H593 H 0.16447 0.8086 0.92951 0.0
C594 C 0.22292 0.7298 0.85659 0.0
C595 C 0.20463 0.72141 0.85037 0.0
C596 C 0.2239 0.74347 0.87233 0.0
C597 C 0.20666 0.74881 0.88239 0.0
C598 C 0.18842 0.74013 0.87643 0.0
C599 C 0.18741 0.72659 0.86057 0.0
C600 C 0.20751 0.7645 0.89812 0.0
C601 C 0.19532 0.78088 0.89618 0.0
C602 C 0.22118 0.76419 0.91404 0.0
C603 C 0.23351 0.74672 0.9178 0.0
C604 C 0.22471 0.72768 0.91943 0.0
C605 C 0.2364 0.71124 0.92279 0.0
C606 C 0.25691 0.71366 0.92467 0.0
C607 C 0.26578 0.73253 0.92323 0.0
C608 C 0.25416 0.74902 0.91986 0.0
C609 C 0.20893 0.83827 0.96395 0.0
C610 C 0.22838 0.84612 0.96373 0.0
C611 C 0.20306 0.82295 0.95074 0.0
C612 C 0.21643 0.81549 0.93682 0.0
C613 C 0.23587 0.82339 0.9367 0.0
C614 C 0.24187 0.83819 0.95028 0.0
C615 C 0.21151 0.79766 0.92429 0.0
C616 C 0.22308 0.78081 0.92677 0.0
C617 C 0.19704 0.7974 0.90903 0.0
C618 C 0.18414 0.81425 0.90497 0.0
C619 C 0.18654 0.8248 0.88734 0.0
C620 C 0.17263 0.83869 0.88174 0.0
C621 C 0.15643 0.8424 0.89385 0.0
C622 C 0.15386 0.83187 0.91132 0.0
C623 C 0.16743 0.81756 0.91667 0.0
H624 H 0.14578 0.8533 0.88959 0.0
H625 H 0.26594 0.70091 0.92726 0.0
H626 H 0.97978 0.53272 0.42026 0.0
H627 H 0.99947 0.52638 0.39072 0.0
H628 H 0.0506 0.51638 0.42753 0.0
H629 H 0.03107 0.524 0.45701 0.0
H630 H 0.0623 0.53629 0.39863 0.0
H631 H 0.02181 0.47743 0.40203 0.0
H632 H 0.9909 0.45745 0.40478 0.0
H633 H 0.9694 0.48182 0.35068 0.0
H634 H 1.00007 0.50216 0.34773 0.0
H635 H 0.1159 0.49789 0.31596 0.0
H636 H 0.09628 0.49568 0.34638 0.0
H637 H 0.04948 0.52756 0.31848 0.0
H638 H 0.06916 0.53031 0.28836 0.0
H639 H 0.03732 0.49288 0.34356 0.0
H640 H 0.07721 0.55428 0.3435 0.0
H641 H 0.10899 0.57274 0.3406 0.0
H642 H 0.13268 0.54052 0.38928 0.0
H643 H 0.10106 0.52165 0.39226 0.0
C644 C 0.99521 0.52908 0.42196 0.0
C645 C 0.00395 0.52873 0.44081 0.0
C646 C 0.00645 0.52529 0.4051 0.0
C647 C 0.0265 0.52039 0.40679 0.0
C648 C 0.03519 0.52003 0.42574 0.0
C649 C 0.02405 0.52433 0.44258 0.0
C650 C 0.03854 0.51643 0.38879 0.0
C651 C 0.05692 0.52645 0.38684 0.0
C652 C 0.03161 0.50377 0.37312 0.0
C653 C 0.0132 0.49143 0.37474 0.0
C654 C 0.01045 0.47862 0.39078 0.0
C655 C 0.99297 0.46722 0.39237 0.0
C656 C 0.97818 0.46839 0.37793 0.0
C657 C 0.98087 0.48093 0.36185 0.0
C658 C 0.99831 0.49238 0.3602 0.0
C659 C 0.10125 0.50402 0.31621 0.0
C660 C 0.09405 0.51432 0.29986 0.0
C661 C 0.09011 0.5028 0.33357 0.0
C662 C 0.07147 0.5115 0.33464 0.0
C663 C 0.06379 0.5207 0.31791 0.0
C664 C 0.07507 0.52232 0.30076 0.0
C665 C 0.06074 0.51279 0.35363 0.0
C666 C 0.04267 0.50238 0.35564 0.0
C667 C 0.06804 0.52481 0.36947 0.0
C668 C 0.08688 0.53641 0.36795 0.0
C669 C 0.08925 0.55103 0.35348 0.0
C670 C 0.10723 0.56158 0.35183 0.0
C671 C 0.12288 0.55776 0.36469 0.0
C672 C 0.12055 0.54344 0.37929 0.0
C673 C 0.10261 0.53282 0.38098 0.0
H674 H 0.13679 0.56593 0.36338 0.0
H675 H 0.96466 0.45957 0.37919 0.0
H676 H 0.82061 0.76359 0.82727 0.0
H677 H 0.81784 0.73987 0.85397 0.0
H678 H 0.79212 0.78459 0.89138 0.0
H679 H 0.79639 0.80889 0.86534 0.0
H680 H 0.81569 0.76489 0.9126 0.0
H681 H 0.76428 0.74581 0.86625 0.0
H682 H 0.75001 0.73588 0.83383 0.0
H683 H 0.78587 0.68421 0.83258 0.0
H684 H 0.80053 0.69398 0.8649 0.0
H685 H 0.75555 0.70449 0.97511 0.0
H686 H 0.76982 0.72717 0.95083 0.0
H687 H 0.80815 0.68119 0.93024 0.0
H688 H 0.79419 0.65848 0.95505 0.0
H689 H 0.78254 0.69927 0.90056 0.0
H690 H 0.8301 0.71788 0.95066 0.0
H691 H 0.84116 0.72839 0.98409 0.0
H692 H 0.8085 0.78193 0.97927 0.0
H693 H 0.797 0.7716 0.94591 0.0
C694 C 0.81467 0.76856 0.84126 0.0
C695 C 0.80872 0.78829 0.84402 0.0
C696 C 0.81281 0.75482 0.85648 0.0
C697 C 0.80445 0.76026 0.87467 0.0
C698 C 0.79858 0.77994 0.87751 0.0
C699 C 0.80077 0.79379 0.86243 0.0
C700 C 0.80168 0.74553 0.89073 0.0
C701 C 0.8083 0.75062 0.90994 0.0
C702 C 0.79244 0.72664 0.88731 0.0
C703 C 0.78367 0.72075 0.86787 0.0
C704 C 0.76923 0.73242 0.85898 0.0
C705 C 0.76106 0.7268 0.84064 0.0
C706 C 0.76708 0.70946 0.83112 0.0
C707 C 0.78125 0.69767 0.83995 0.0
C708 C 0.78949 0.70323 0.85828 0.0
C709 C 0.76741 0.6994 0.96577 0.0
C710 C 0.77388 0.67982 0.96699 0.0
C711 C 0.77553 0.71235 0.95192 0.0
C712 C 0.79003 0.70585 0.93876 0.0
C713 C 0.79703 0.68648 0.94035 0.0
C714 C 0.78918 0.6736 0.95457 0.0
C715 C 0.79628 0.71883 0.92231 0.0
C716 C 0.79022 0.71343 0.90306 0.0
C717 C 0.80561 0.73758 0.92578 0.0
C718 C 0.81257 0.74389 0.94582 0.0
C719 C 0.82514 0.73182 0.95678 0.0
C720 C 0.83151 0.73776 0.97571 0.0
C721 C 0.82551 0.7558 0.98381 0.0
C722 C 0.81314 0.76795 0.97298 0.0
C723 C 0.80671 0.76207 0.95405 0.0
H724 H 0.83046 0.76037 0.99847 0.0
H725 H 0.76073 0.70514 0.81692 0.0
H726 H 0.04195 0.9751 0.41909 0.0
H727 H 0.02119 0.9832 0.39078 0.0
H728 H 0.97116 0.98964 0.42949 0.0
H729 H 0.99184 0.98075 0.45777 0.0
H730 H 0.95918 0.97132 0.39818 0.0
H731 H 0.99754 0.03066 0.40888 0.0
H732 H 0.02767 0.05151 0.41416 0.0
H733 H 0.04924 0.03379 0.35718 0.0
H734 H 0.01936 0.01259 0.35166 0.0
H735 H 0.90311 0.01555 0.32061 0.0
H736 H 0.92319 0.01573 0.35107 0.0
H737 H 0.97022 0.98732 0.31961 0.0
H738 H 0.95004 0.98652 0.28939 0.0
H739 H 0.98172 0.02047 0.34869 0.0
H740 H 0.94401 0.95793 0.34125 0.0
H741 H 0.91299 0.93836 0.33648 0.0
H742 H 0.88898 0.96509 0.3888 0.0
H743 H 0.91982 0.98504 0.39371 0.0
C744 C 0.02653 0.97831 0.42153 0.0
C745 C 0.01851 0.97739 0.44061 0.0
C746 C 0.01468 0.98307 0.40537 0.0
C747 C 0.99465 0.98751 0.40798 0.0
C748 C 0.98657 0.98637 0.42704 0.0
C749 C 0.99836 0.98128 0.44319 0.0
C750 C 0.98208 0.99277 0.39072 0.0
C751 C 0.96401 0.98237 0.38762 0.0
C752 C 0.9883 0.00709 0.37672 0.0
C753 C 0.00626 0.01991 0.37992 0.0
C754 C 0.00876 0.0311 0.39752 0.0
C755 C 0.02579 0.04299 0.40056 0.0
C756 C 0.04038 0.04394 0.38604 0.0
C757 C 0.03793 0.03303 0.36843 0.0
C758 C 0.02094 0.02109 0.36533 0.0
C759 C 0.91792 0.00981 0.32012 0.0
C760 C 0.92506 1.00103 0.3027 0.0
C761 C 0.92932 0.00984 0.33751 0.0
C762 C 0.94814 1.00149 0.33754 0.0
C763 C 0.95576 0.99389 0.31984 0.0
C764 C 0.94422 0.99341 0.30263 0.0
C765 C 0.95919 0.99887 0.35626 0.0
C766 C 0.97691 0.00971 0.35953 0.0
C767 C 0.95256 0.98521 0.37057 0.0
C768 C 0.9341 0.97314 0.3677 0.0
C769 C 0.93204 0.95977 0.35162 0.0
C770 C 0.91451 0.94859 0.34891 0.0
C771 C 0.89899 0.95053 0.36229 0.0
C772 C 0.901 0.96363 0.37843 0.0
C773 C 0.9185 0.97487 0.38119 0.0
H774 H 0.88543 0.94184 0.36019 0.0
H775 H 0.05355 0.05316 0.38841 0.0
H776 H 0.17503 0.28245 0.65925 0.0
H777 H 0.17968 0.25896 0.63181 0.0
H778 H 0.2423 0.2587 0.64447 0.0
H779 H 0.23776 0.2822 0.67181 0.0
H780 H 0.23622 0.26111 0.60578 0.0
H781 H 0.21101 0.22006 0.65781 0.0
H782 H 0.18749 0.20985 0.68368 0.0
H783 H 0.14118 0.20307 0.64017 0.0
H784 H 0.16438 0.21352 0.61406 0.0
H785 H 0.25976 0.17371 0.55111 0.0
H786 H 0.2543 0.19739 0.57819 0.0
H787 H 0.19319 0.20163 0.56051 0.0
H788 H 0.19847 0.1781 0.53335 0.0
H789 H 0.19813 0.19726 0.60126 0.0
H790 H 0.22362 0.23791 0.54922 0.0
H791 H 0.24734 0.24766 0.52337 0.0
H792 H 0.29341 0.25475 0.5671 0.0
H793 H 0.27001 0.24473 0.5932 0.0
C794 C 0.18976 0.27727 0.65627 0.0
C795 C 0.20602 0.2842 0.66772 0.0
C796 C 0.19241 0.26385 0.64057 0.0
C797 C 0.21133 0.2569 0.63616 0.0
C798 C 0.22758 0.26389 0.64752 0.0
C799 C 0.22496 0.27736 0.66313 0.0
C800 C 0.21426 0.24236 0.61973 0.0
C801 C 0.22806 0.24704 0.60496 0.0
C802 C 0.20334 0.22416 0.61836 0.0
C803 C 0.18939 0.21777 0.63401 0.0
C804 C 0.19578 0.21654 0.65378 0.0
C805 C 0.18251 0.21068 0.66848 0.0
C806 C 0.16284 0.20586 0.66358 0.0
C807 C 0.15641 0.20683 0.64395 0.0
C808 C 0.16962 0.21271 0.62919 0.0
C809 C 0.24514 0.17964 0.55298 0.0
C810 C 0.22958 0.17401 0.53998 0.0
C811 C 0.24207 0.19322 0.56843 0.0
C812 C 0.22336 0.20135 0.57128 0.0
C813 C 0.20773 0.19554 0.55856 0.0
C814 C 0.21083 0.18214 0.54299 0.0
C815 C 0.22011 0.216 0.58746 0.0
C816 C 0.20626 0.21134 0.60214 0.0
C817 C 0.23102 0.23418 0.58877 0.0
C818 C 0.2451 0.24037 0.57314 0.0
C819 C 0.23885 0.24138 0.55331 0.0
C820 C 0.25223 0.24699 0.53861 0.0
C821 C 0.27189 0.25177 0.54358 0.0
C822 C 0.27819 0.25101 0.56327 0.0
C823 C 0.26487 0.24538 0.57802 0.0
H824 H 0.28222 0.25611 0.53218 0.0
H825 H 0.15259 0.20134 0.67498 0.0
H826 H 0.49255 0.5446 0.56613 0.0
H827 H 0.47278 0.53748 0.59542 0.0
H828 H 0.52515 0.52029 0.62673 0.0
H829 H 0.54535 0.5286 0.59808 0.0
H830 H 0.48725 0.49237 0.62609 0.0
H831 H 0.51284 0.5593 0.64097 0.0
H832 H 0.51861 0.59454 0.63295 0.0
H833 H 0.45603 0.60211 0.62662 0.0
H834 H 0.44991 0.56681 0.63432 0.0
H835 H 0.44792 0.48031 0.72168 0.0
H836 H 0.46907 0.48875 0.6937 0.0
H837 H 0.42597 0.53023 0.67358 0.0
H838 H 0.40536 0.52265 0.70215 0.0
H839 H 0.45955 0.54591 0.66784 0.0
H840 H 0.43203 0.48168 0.65246 0.0
H841 H 0.42345 0.4464 0.65783 0.0
H842 H 0.48512 0.43305 0.66134 0.0
H843 H 0.49408 0.46833 0.6563 0.0
C844 C 0.50002 0.53967 0.57931 0.0
C845 C 0.52068 0.53725 0.5796 0.0
C846 C 0.48862 0.53541 0.59598 0.0
C847 C 0.49754 0.52833 0.61315 0.0
C848 C 0.51801 0.52563 0.61352 0.0
C849 C 0.5295 0.53026 0.59702 0.0
C850 C 0.48548 0.52389 0.63081 0.0
C851 C 0.48138 0.50401 0.63543 0.0
C852 C 0.47727 0.53913 0.64244 0.0
C853 C 0.48094 0.56038 0.638 0.0
C854 C 0.50032 0.56843 0.63768 0.0
C855 C 0.50366 0.58843 0.63323 0.0
C856 C 0.4877 0.60055 0.62922 0.0
C857 C 0.46837 0.5927 0.6297 0.0
C858 C 0.46497 0.57271 0.63412 0.0
C859 C 0.44301 0.49129 0.71131 0.0
C860 C 0.42496 0.50078 0.71409 0.0
C861 C 0.45505 0.49602 0.69522 0.0
C862 C 0.44898 0.50984 0.68118 0.0
C863 C 0.43105 0.51952 0.68413 0.0
C864 C 0.41924 0.51515 0.70047 0.0
C865 C 0.46125 0.51421 0.66343 0.0
C866 C 0.46537 0.53413 0.65865 0.0
C867 C 0.46903 0.49895 0.65132 0.0
C868 C 0.46372 0.47769 0.6542 0.0
C869 C 0.44376 0.47125 0.65451 0.0
C870 C 0.43883 0.45125 0.65748 0.0
C871 C 0.45373 0.4375 0.65997 0.0
C872 C 0.4736 0.44372 0.65944 0.0
C873 C 0.47861 0.46372 0.65652 0.0
H874 H 0.44988 0.42202 0.66227 0.0
H875 H 0.49031 0.61602 0.62578 0.0
H876 H 0.83935 0.22512 0.64946 0.0
H877 H 0.83381 0.24983 0.62394 0.0
H878 H 0.77411 0.25687 0.64472 0.0
H879 H 0.77942 0.23163 0.66967 0.0
H880 H 0.77302 0.25618 0.60719 0.0
H881 H 0.8139 0.29162 0.65461 0.0
H882 H 0.84308 0.29785 0.67609 0.0
H883 H 0.88074 0.29862 0.62522 0.0
H884 H 0.85179 0.29213 0.60344 0.0
H885 H 0.75331 0.35084 0.56797 0.0
H886 H 0.76292 0.32558 0.59148 0.0
H887 H 0.81024 0.3082 0.55304 0.0
H888 H 0.8004 0.33326 0.52907 0.0
H889 H 0.81909 0.31368 0.59751 0.0
H890 H 0.7756 0.27939 0.55045 0.0
H891 H 0.74495 0.27528 0.53069 0.0
H892 H 0.71051 0.2749 0.5838 0.0
H893 H 0.74096 0.27932 0.60388 0.0
C894 C 0.82508 0.23201 0.64856 0.0
C895 C 0.80981 0.22647 0.66151 0.0
C896 C 0.82193 0.2462 0.63404 0.0
C897 C 0.8036 0.2555 0.63251 0.0
C898 C 0.78836 0.24993 0.6455 0.0
C899 C 0.7914 0.23551 0.65977 0.0
C900 C 0.80009 0.27081 0.61725 0.0
C901 C 0.78306 0.26881 0.60528 0.0
C902 C 0.81328 0.28722 0.61437 0.0
C903 C 0.83071 0.29117 0.62741 0.0
C904 C 0.82842 0.29297 0.64801 0.0
C905 C 0.84492 0.29657 0.66024 0.0
C906 C 0.86376 0.29857 0.65203 0.0
C907 C 0.86614 0.29703 0.63156 0.0
C908 C 0.84969 0.2934 0.61927 0.0
C909 C 0.76587 0.34178 0.56455 0.0
C910 C 0.77608 0.34401 0.54663 0.0
C911 C 0.77131 0.32733 0.57799 0.0
C912 C 0.78723 0.31502 0.57395 0.0
C913 C 0.79791 0.3176 0.55641 0.0
C914 C 0.79225 0.33186 0.54273 0.0
C915 C 0.79206 0.29898 0.5878 0.0
C916 C 0.80925 0.30089 0.59945 0.0
C917 C 0.77885 0.2827 0.59068 0.0
C918 C 0.76054 0.27989 0.57865 0.0
C919 C 0.76148 0.27862 0.55791 0.0
C920 C 0.74414 0.27619 0.54665 0.0
C921 C 0.72579 0.27488 0.55598 0.0
C922 C 0.72473 0.27594 0.57659 0.0
C923 C 0.74203 0.27839 0.58792 0.0
H924 H 0.71238 0.273 0.54724 0.0
H925 H 0.87651 0.30136 0.66152 0.0
H926 H 0.49373 0.01174 0.57301 0.0
H927 H 0.5139 0.01764 0.60266 0.0
H928 H 0.51575 0.95456 0.61214 0.0
H929 H 0.49469 0.94857 0.58305 0.0
H930 H 0.51085 0.97296 0.64615 0.0
H931 H 0.55548 0.98088 0.59236 0.0
H932 H 0.56775 0.9939 0.56073 0.0
H933 H 0.56912 0.0531 0.58513 0.0
H934 H 0.55658 0.04046 0.61685 0.0
H935 H 0.59355 0.98125 0.71391 0.0
H936 H 0.57239 0.97287 0.68526 0.0
H937 H 0.56101 0.0349 0.67734 0.0
H938 H 0.58188 0.04343 0.70591 0.0
H939 H 0.57176 0.01538 0.64246 0.0
H940 H 0.52624 0.00626 0.69646 0.0
H941 H 0.51493 0.99208 0.72795 0.0
H942 H 0.51684 0.93335 0.70267 0.0
H943 H 0.52845 0.94717 0.67108 0.0
C944 C 0.49818 0.9991 0.58152 0.0
C945 C 0.49262 0.97966 0.57552 0.0
C946 C 0.50994 1.00249 0.59837 0.0
C947 C 0.51668 0.98653 0.60948 0.0
C948 C 0.51087 0.96712 0.60376 0.0
C949 C 0.49897 0.96372 0.58698 0.0
C950 C 0.52982 0.99011 0.627 0.0
C951 C 0.52432 0.982 0.64524 0.0
C952 C 0.54733 1.00207 0.62597 0.0
C953 C 0.55491 0.00974 0.60693 0.0
C954 C 0.55825 0.99669 0.59094 0.0
C955 C 0.56528 0.004 0.573 0.0
C956 C 0.56916 0.02432 0.5709 0.0
C957 C 0.56608 0.03737 0.58676 0.0
C958 C 0.55903 0.03014 0.60473 0.0
C959 C 0.58648 0.99311 0.70613 0.0
C960 C 0.58945 0.01303 0.71227 0.0
C961 C 0.57435 0.98828 0.68979 0.0
C962 C 0.5651 1.00327 0.6792 0.0
C963 C 0.56803 0.02311 0.68528 0.0
C964 C 0.57993 0.02794 0.70171 0.0
C965 C 0.55263 0.99844 0.66154 0.0
C966 C 0.55831 0.00629 0.64328 0.0
C967 C 0.53546 0.98605 0.66253 0.0
C968 C 0.52842 0.97773 0.68148 0.0
C969 C 0.52442 0.99031 0.69767 0.0
C970 C 0.51792 0.98234 0.71552 0.0
C971 C 0.51522 0.96182 0.71733 0.0
C972 C 0.51897 0.94923 0.70126 0.0
C973 C 0.52549 0.95713 0.68337 0.0
H974 H 0.51018 0.95568 0.73116 0.0
H975 H 0.5746 0.02995 0.557 0.0
H976 H 0.83105 0.19387 0.74483 0.0
H977 H 0.85786 0.19919 0.76876 0.0
H978 H 0.89732 0.21649 0.72185 0.0
H979 H 0.87069 0.2104 0.6976 0.0
H980 H 0.91627 0.1942 0.74817 0.0
H981 H 0.8763 0.2516 0.75049 0.0
H982 H 0.84554 0.27029 0.75336 0.0
H983 H 0.83608 0.24718 0.81145 0.0
H984 H 0.8666 0.22807 0.80876 0.0
H985 H 0.96073 0.26442 0.83256 0.0
H986 H 0.93718 0.2571 0.8058 0.0
H987 H 0.94703 0.19442 0.81213 0.0
H988 H 0.97162 0.20202 0.83826 0.0
H989 H 0.90436 0.24071 0.804 0.0
H990 H 0.93666 0.16883 0.76984 0.0
H991 H 0.9692 0.15397 0.76445 0.0
H992 H 0.99718 0.2119 0.76637 0.0
H993 H 0.96479 0.22712 0.77151 0.0
C994 C 0.84551 0.19845 0.7395 0.0
C995 C 0.84869 0.20172 0.71925 0.0
C996 C 0.86079 0.20168 0.75326 0.0
C997 C 0.87955 0.20847 0.74715 0.0
C998 C 0.88296 0.21128 0.72691 0.0
C999 C 0.86767 0.20798 0.7131 0.0
C1000 C 0.89529 0.21339 0.762 0.0
C1001 C 0.91366 0.20426 0.7605 0.0
C1002 C 0.8921 0.22693 0.77776 0.0
C1003 C 0.87367 0.23831 0.77937 0.0
C1004 C 0.86758 0.25039 0.76381 0.0
C1005 C 0.85019 0.26107 0.76541 0.0
C1006 C 0.83885 0.2599 0.78256 0.0
C1007 C 0.84488 0.24807 0.79817 0.0
C1008 C 0.86222 0.23732 0.79662 0.0
C1009 C 0.95786 0.24908 0.82816 0.0
C1010 C 0.96763 0.23372 0.83761 0.0
C1011 C 0.94439 0.24488 0.81286 0.0
C1012 C 0.94029 0.22519 0.80673 0.0
C1013 C 0.95017 0.20977 0.8162 0.0
C1014 C 0.96407 0.21406 0.83124 0.0
C1015 C 0.92528 0.22097 0.79082 0.0
C1016 C 0.907 0.23035 0.792 0.0
C1017 C 0.9288 0.20806 0.77454 0.0
C1018 C 0.94832 0.19907 0.77127 0.0
C1019 C 0.94975 0.17839 0.76904 0.0
C1020 C 0.96817 0.16991 0.76604 0.0
C1021 C 0.98525 0.18198 0.76514 0.0
C1022 C 0.98395 0.20257 0.76716 0.0
C1023 C 0.96557 0.21112 0.77013 0.0
H1024 H 0.9995 0.17538 0.76283 0.0
H1025 H 0.8254 0.26819 0.78378 0.0
H1026 H 0.44585 0.93029 0.51066 0.0
H1027 H 0.45199 0.90043 0.49096 0.0
H1028 H 0.51488 0.91212 0.49558 0.0
H1029 H 0.50883 0.94235 0.515 0.0
H1030 H 0.50353 0.89978 0.45789 0.0
H1031 H 0.49442 0.87778 0.52417 0.0
H1032 H 0.47755 0.87513 0.55627 0.0
H1033 H 0.42649 0.84836 0.52752 0.0
H1034 H 0.44295 0.85112 0.4952 0.0
H1035 H 0.52108 0.80204 0.41826 0.0
H1036 H 0.52242 0.83159 0.43993 0.0
H1037 H 0.45906 0.82748 0.44683 0.0
H1038 H 0.45761 0.79801 0.42587 0.0
H1039 H 0.4755 0.83551 0.48102 0.0
H1040 H 0.48289 0.86084 0.41462 0.0
H1041 H 0.49919 0.86385 0.38223 0.0
H1042 H 0.55293 0.88437 0.4109 0.0
H1043 H 0.537 0.88125 0.44349 0.0
C1044 C 0.46099 0.92668 0.50728 0.0
C1045 C 0.47685 0.93868 0.51447 0.0
C1046 C 0.46449 0.9095 0.49615 0.0
C1047 C 0.48391 0.90389 0.49202 0.0
C1048 C 0.49979 0.91611 0.49868 0.0
C1049 C 0.4963 0.93329 0.50989 0.0
C1050 C 0.48751 0.88503 0.4811 0.0
C1051 C 0.49769 0.88566 0.46308 0.0
C1052 C 0.47977 0.86663 0.4878 0.0
C1053 C 0.46988 0.86479 0.50724 0.0
C1054 C 0.47954 0.87145 0.52467 0.0
C1055 C 0.47006 0.86992 0.54291 0.0
C1056 C 0.45094 0.86162 0.54393 0.0
C1057 C 0.44129 0.8548 0.52671 0.0
C1058 C 0.4507 0.85632 0.50843 0.0
C1059 C 0.50746 0.80737 0.42451 0.0
C1060 C 0.48926 0.79755 0.42027 0.0
C1061 C 0.50823 0.82434 0.43681 0.0
C1062 C 0.4908 0.83192 0.4449 0.0
C1063 C 0.47273 0.82194 0.44087 0.0
C1064 C 0.47195 0.80502 0.42878 0.0
C1065 C 0.49095 0.85028 0.45743 0.0
C1066 C 0.48153 0.84957 0.47587 0.0
C1067 C 0.49932 0.86857 0.45105 0.0
C1068 C 0.50883 0.8706 0.43148 0.0
C1069 C 0.49822 0.86587 0.41401 0.0
C1070 C 0.50738 0.86761 0.39563 0.0
C1071 C 0.5271 0.87423 0.39451 0.0
C1072 C 0.53767 0.8792 0.41179 0.0
C1073 C 0.52858 0.87746 0.43021 0.0
H1074 H 0.53417 0.87556 0.38027 0.0
H1075 H 0.44362 0.86044 0.55806 0.0
H1076 H 0.18911 0.30764 0.75416 0.0
H1077 H 0.16258 0.30289 0.7783 0.0
H1078 H 0.11954 0.29926 0.73097 0.0
H1079 H 0.14611 0.30379 0.70669 0.0
H1080 H 0.10973 0.32525 0.76461 0.0
H1081 H 0.13031 0.25859 0.74992 0.0
H1082 H 0.15476 0.23229 0.74629 0.0
H1083 H 0.17128 0.23959 0.80742 0.0
H1084 H 0.14712 0.26616 0.81134 0.0
H1085 H 0.02717 0.28715 0.818 0.0
H1086 H 0.05337 0.29538 0.7946 0.0
H1087 H 0.0974 0.28209 0.83864 0.0
H1088 H 0.07117 0.27296 0.86178 0.0
H1089 H 0.10714 0.26537 0.80638 0.0
H1090 H 0.08743 0.33117 0.82233 0.0
H1091 H 0.06442 0.35861 0.82703 0.0
H1092 H 0.04798 0.35485 0.76564 0.0
H1093 H 0.0707 0.32719 0.76062 0.0
C1094 C 0.17398 0.30588 0.74892 0.0
C1095 C 0.16964 0.30607 0.72857 0.0
C1096 C 0.15887 0.30313 0.7627 0.0
C1097 C 0.13912 0.30073 0.7564 0.0
C1098 C 0.13469 0.30113 0.73611 0.0
C1099 C 0.14986 0.30357 0.72228 0.0
C1100 C 0.12318 0.29748 0.77106 0.0
C1101 C 0.10895 0.31206 0.77361 0.0
C1102 C 0.12262 0.28058 0.78317 0.0
C1103 C 0.13705 0.26451 0.78087 0.0
C1104 C 0.13928 0.25471 0.76255 0.0
C1105 C 0.15306 0.23973 0.76044 0.0
C1106 C 0.1646 0.23431 0.7766 0.0
C1107 C 0.16235 0.24382 0.79491 0.0
C1108 C 0.1486 0.25884 0.79709 0.0
C1109 C 0.04244 0.28631 0.8228 0.0
C1110 C 0.04711 0.27943 0.84174 0.0
C1111 C 0.05745 0.29109 0.80941 0.0
C1112 C 0.07747 0.28956 0.81483 0.0
C1113 C 0.08211 0.28334 0.83402 0.0
C1114 C 0.06711 0.27823 0.84729 0.0
C1115 C 0.0935 0.29321 0.80016 0.0
C1116 C 0.10782 0.27865 0.79753 0.0
C1117 C 0.09429 0.31031 0.78819 0.0
C1118 C 0.08064 0.32698 0.79114 0.0
C1119 C 0.0788 0.33609 0.80986 0.0
C1120 C 0.06583 0.3517 0.81258 0.0
C1121 C 0.05471 0.35844 0.79665 0.0
C1122 C 0.05659 0.3496 0.77796 0.0
C1123 C 0.06953 0.33397 0.77517 0.0
H1124 H 0.04467 0.37052 0.79879 0.0
H1125 H 0.17526 0.2227 0.77494 0.0
H1126 H 0.54309 0.56493 0.49225 0.0
H1127 H 0.53505 0.59286 0.47129 0.0
H1128 H 0.51487 0.62547 0.52219 0.0
H1129 H 0.52409 0.59829 0.54358 0.0
H1130 H 0.48853 0.61948 0.48135 0.0
H1131 H 0.55055 0.64399 0.5124 0.0
H1132 H 0.58564 0.64025 0.52149 0.0
H1133 H 0.60026 0.63129 0.46038 0.0
H1134 H 0.56517 0.63467 0.45098 0.0
H1135 H 0.47155 0.71321 0.43966 0.0
H1136 H 0.47998 0.68615 0.46157 0.0
H1137 H 0.5277 0.67025 0.42281 0.0
H1138 H 0.51994 0.69791 0.40143 0.0
H1139 H 0.5402 0.66695 0.45777 0.0
H1140 H 0.48132 0.64368 0.42496 0.0
H1141 H 0.4468 0.64463 0.4131 0.0
H1142 H 0.42635 0.64735 0.47303 0.0
H1143 H 0.46079 0.64673 0.48525 0.0
C1144 C 0.5373 0.57813 0.49915 0.0
C1145 C 0.53435 0.57921 0.51975 0.0
C1146 C 0.53252 0.594 0.48706 0.0
C1147 C 0.52435 0.61114 0.49523 0.0
C1148 C 0.52107 0.61228 0.51564 0.0
C1149 C 0.52623 0.5966 0.52781 0.0
C1150 C 0.5194 0.62796 0.48243 0.0
C1151 C 0.49971 0.63007 0.47637 0.0
C1152 C 0.53416 0.64122 0.4754 0.0
C1153 C 0.55523 0.63933 0.48103 0.0
C1154 C 0.56122 0.641 0.50094 0.0
C1155 C 0.58111 0.639 0.50614 0.0
C1156 C 0.59516 0.63546 0.49153 0.0
C1157 C 0.58935 0.63399 0.47168 0.0
C1158 C 0.56947 0.63596 0.46641 0.0
C1159 C 0.48384 0.70394 0.43582 0.0
C1160 C 0.49505 0.7077 0.41878 0.0
C1161 C 0.48859 0.68837 0.4483 0.0
C1162 C 0.50429 0.67582 0.44372 0.0
C1163 C 0.51555 0.67966 0.42675 0.0
C1164 C 0.51106 0.69548 0.41449 0.0
C1165 C 0.5091 0.65883 0.45667 0.0
C1166 C 0.52885 0.65652 0.46271 0.0
C1167 C 0.49441 0.64509 0.46329 0.0
C1168 C 0.47366 0.64536 0.45601 0.0
C1169 C 0.46947 0.64462 0.43561 0.0
C1170 C 0.44992 0.64509 0.42882 0.0
C1171 C 0.43439 0.6461 0.4423 0.0
C1172 C 0.43839 0.6466 0.4626 0.0
C1173 C 0.45793 0.64618 0.46947 0.0
H1174 H 0.41926 0.64645 0.43702 0.0
H1175 H 0.61055 0.63392 0.49558 0.0
H1176 H 0.83091 0.82596 0.76065 0.0
H1177 H 0.85788 0.82188 0.73746 0.0
H1178 H 0.89416 0.79861 0.78397 0.0
H1179 H 0.868 0.80452 0.8077 0.0
H1180 H 0.91683 0.81842 0.76196 0.0
H1181 H 0.86659 0.76846 0.74822 0.0
H1182 H 0.83309 0.75522 0.74018 0.0
H1183 H 0.83363 0.78701 0.68562 0.0
H1184 H 0.86705 0.80063 0.69347 0.0
H1185 H 0.9701 0.74726 0.70267 0.0
H1186 H 0.9467 0.76317 0.72497 0.0
H1187 H 0.93675 0.80835 0.68184 0.0
H1188 H 0.96076 0.79283 0.65961 0.0
H1189 H 0.90143 0.78104 0.69979 0.0
H1190 H 0.95548 0.8276 0.71455 0.0
H1191 H 0.98993 0.83644 0.72393 0.0
H1192 H 0.98289 0.80541 0.77853 0.0
H1193 H 0.94847 0.79611 0.76932 0.0
C1194 C 0.84476 0.82046 0.76616 0.0
C1195 C 0.84702 0.81536 0.78617 0.0
C1196 C 0.86013 0.8178 0.75272 0.0
C1197 C 0.87795 0.80938 0.75875 0.0
C1198 C 0.88054 0.80496 0.77882 0.0
C1199 C 0.86536 0.80807 0.79237 0.0
C1200 C 0.89362 0.80452 0.74415 0.0
C1201 C 0.91338 0.81018 0.74843 0.0
C1202 C 0.8893 0.7939 0.72629 0.0
C1203 C 0.86921 0.78575 0.72155 0.0
C1204 C 0.8595 0.77273 0.73458 0.0
C1205 C 0.84054 0.76515 0.73005 0.0
C1206 C 0.83121 0.77032 0.71243 0.0
C1207 C 0.84085 0.78305 0.69928 0.0
C1208 C 0.8598 0.7907 0.70376 0.0
C1209 C 0.96319 0.76078 0.69807 0.0
C1210 C 0.96724 0.76884 0.67944 0.0
C1211 C 0.94987 0.76984 0.71082 0.0
C1212 C 0.94008 0.7869 0.70502 0.0
C1213 C 0.9443 0.79523 0.68657 0.0
C1214 C 0.95803 0.78643 0.67397 0.0
C1215 C 0.92437 0.79491 0.71775 0.0
C1216 C 0.90467 0.78963 0.71317 0.0
C1217 C 0.92881 0.80535 0.73554 0.0
C1218 C 0.94946 0.811 0.74115 0.0
C1219 C 0.96134 0.82249 0.72846 0.0
C1220 C 0.98085 0.82762 0.73377 0.0
C1221 C 0.98861 0.82145 0.75179 0.0
C1222 C 0.97686 0.81016 0.76456 0.0
C1223 C 0.95735 0.80498 0.75931 0.0
H1224 H 0.00372 0.82544 0.75588 0.0
H1225 H 0.81654 0.76442 0.70895 0.0
H1226 H 0.0192 0.91727 0.47783 0.0
H1227 H 0.0117 0.88969 0.49988 0.0
H1228 H 0.03706 0.9232 0.54896 0.0
H1229 H 0.04379 0.95123 0.52733 0.0
H1230 H 0.05176 0.88382 0.54377 0.0
H1231 H 0.98987 0.91772 0.54784 0.0
H1232 H 0.96004 0.93281 0.53407 0.0
H1233 H 0.94226 0.87692 0.50735 0.0
H1234 H 0.97216 0.86155 0.52073 0.0
H1235 H 0.02816 0.82028 0.62187 0.0
H1236 H 0.03095 0.84925 0.60073 0.0
H1237 H 0.99329 0.81974 0.55707 0.0
H1238 H 0.9898 0.79097 0.5786 0.0
H1239 H 0.98455 0.85696 0.55859 0.0
H1240 H 0.04505 0.8226 0.5527 0.0
H1241 H 0.07523 0.80632 0.56408 0.0
H1242 H 0.09629 0.86107 0.59094 0.0
H1243 H 0.06609 0.87762 0.57994 0.0
C1244 C 0.02282 0.91901 0.49338 0.0
C1245 C 0.03223 0.93655 0.5007 0.0
C1246 C 0.01862 0.90314 0.50594 0.0
C1247 C 0.02387 0.9044 0.52603 0.0
C1248 C 0.03301 0.9219 0.53347 0.0
C1249 C 0.03696 0.93786 0.52101 0.0
C1250 C 0.02053 0.88721 0.53917 0.0
C1251 C 0.03707 0.87809 0.54726 0.0
C1252 C 1.00138 0.87934 0.54308 0.0
C1253 C 0.98336 0.88854 0.53512 0.0
C1254 C 0.9797 0.90869 0.53888 0.0
C1255 C 0.96275 0.91728 0.53118 0.0
C1256 C 0.94929 0.90584 0.5198 0.0
C1257 C 0.95271 0.88577 0.51614 0.0
C1258 C 0.96965 0.8771 0.5238 0.0
C1259 C 0.02036 0.82 0.60782 0.0
C1260 C 0.00887 0.80328 0.60184 0.0
C1261 C 0.02206 0.83655 0.59568 0.0
C1262 C 0.01272 0.83657 0.57705 0.0
C1263 C 1.00072 0.8201 0.57131 0.0
C1264 C 0.99876 0.80364 0.58362 0.0
C1265 C 0.01582 0.85357 0.56346 0.0
C1266 C 0.99927 0.86263 0.55518 0.0
C1267 C 0.03502 0.86119 0.55903 0.0
C1268 C 0.05321 0.8513 0.56566 0.0
C1269 C 0.05605 0.83113 0.56116 0.0
C1270 C 0.07317 0.82186 0.56752 0.0
C1271 C 0.08764 0.83264 0.57827 0.0
C1272 C 0.08505 0.85273 0.58264 0.0
C1273 C 0.06794 0.86207 0.57633 0.0
H1274 H 0.10089 0.82543 0.58318 0.0
H1275 H 0.93618 0.91253 0.51385 0.0
H1276 H 0.17858 0.73376 0.78375 0.0
H1277 H 0.1523 0.7394 0.75961 0.0
H1278 H 0.13612 0.67703 0.76004 0.0
H1279 H 0.16292 0.67127 0.78367 0.0
H1280 H 0.13384 0.68938 0.72412 0.0
H1281 H 0.10981 0.71367 0.7862 0.0
H1282 H 0.11072 0.73366 0.81705 0.0
H1283 H 0.11323 0.78723 0.78347 0.0
H1284 H 0.11261 0.76754 0.75241 0.0
H1285 H 0.03632 0.69715 0.68512 0.0
H1286 H 0.06449 0.6922 0.70714 0.0
H1287 H 0.08496 0.7524 0.69762 0.0
H1288 H 0.05683 0.75754 0.67547 0.0
H1289 H 0.08519 0.7417 0.73751 0.0
H1290 H 0.10794 0.7161 0.67516 0.0
H1291 H 0.10568 0.69518 0.64498 0.0
H1292 H 0.10386 0.64273 0.68026 0.0
H1293 H 0.10582 0.66336 0.71068 0.0
C1294 C 0.16941 0.72127 0.77865 0.0
C1295 C 0.17268 0.70211 0.78567 0.0
C1296 C 0.15434 0.72451 0.76491 0.0
C1297 C 0.14188 0.70872 0.75828 0.0
C1298 C 0.14546 0.68947 0.76494 0.0
C1299 C 0.16076 0.68618 0.77845 0.0
C1300 C 0.12504 0.71229 0.74457 0.0
C1301 C 0.12309 0.70066 0.72722 0.0
C1302 C 0.11112 0.72725 0.74833 0.0
C1303 C 0.11136 0.73913 0.76698 0.0
C1304 C 0.11069 0.72971 0.7854 0.0
C1305 C 0.11114 0.74098 0.80292 0.0
C1306 C 0.11209 0.7617 0.80222 0.0
C1307 C 0.11253 0.77118 0.78399 0.0
C1308 C 0.11211 0.75997 0.76642 0.0
C1309 C 0.04678 0.70938 0.68767 0.0
C1310 C 0.04429 0.72775 0.67845 0.0
C1311 C 0.06293 0.70648 0.70022 0.0
C1312 C 0.07689 0.72188 0.7039 0.0
C1313 C 0.07437 0.74031 0.69495 0.0
C1314 C 0.05831 0.74318 0.68223 0.0
C1315 C 0.09405 0.71877 0.71721 0.0
C1316 C 0.09602 0.73047 0.73446 0.0
C1317 C 0.10782 0.70372 0.71349 0.0
C1318 C 0.10684 0.69129 0.69521 0.0
C1319 C 0.10691 0.70011 0.67649 0.0
C1320 C 0.1057 0.6883 0.65934 0.0
C1321 C 0.10458 0.66764 0.6607 0.0
C1322 C 0.10471 0.65874 0.67923 0.0
C1323 C 0.10589 0.67048 0.69643 0.0
H1324 H 0.10364 0.65852 0.6474 0.0
H1325 H 0.11244 0.7704 0.8158 0.0
H1326 H 0.98837 0.55688 0.52736 0.0
H1327 H 0.99419 0.58655 0.54808 0.0
H1328 H 0.99923 0.62224 0.49581 0.0
H1329 H 0.99402 0.59243 0.47504 0.0
H1330 H 0.02495 0.63549 0.52201 0.0
H1331 H 0.95554 0.61941 0.52316 0.0
H1332 H 0.92593 0.59781 0.52766 0.0
H1333 H 0.94195 0.5895 0.58846 0.0
H1334 H 0.97185 0.61076 0.58421 0.0
H1335 H 0.97735 0.71392 0.59411 0.0
H1336 H 0.97446 0.68601 0.57061 0.0
H1337 H 0.03547 0.67208 0.58196 0.0
H1338 H 0.03851 0.70067 0.60474 0.0
H1339 H 0.97565 0.64928 0.57398 0.0
H1340 H 0.05591 0.64838 0.54339 0.0
H1341 H 0.08311 0.67215 0.53594 0.0
H1342 H 0.04142 0.71864 0.52945 0.0
H1343 H 0.01395 0.6951 0.53659 0.0
C1344 C 0.99084 0.57106 0.52032 0.0
C1345 C 0.9906 0.5724 0.49961 0.0
C1346 C 0.99411 0.58801 0.53215 0.0
C1347 C 0.99675 0.60674 0.52354 0.0
C1348 C 0.9972 0.608 0.50283 0.0
C1349 C 0.99422 0.59097 0.49097 0.0
C1350 C 0.99827 0.62503 0.53612 0.0
C1351 C 0.01424 0.63846 0.53347 0.0
C1352 C 0.98401 0.62927 0.55072 0.0
C1353 C 0.96597 0.61659 0.55334 0.0
C1354 C 0.95279 0.61289 0.53746 0.0
C1355 C 0.93597 0.6007 0.53996 0.0
C1356 C 0.93208 0.59226 0.55832 0.0
C1357 C 0.94498 0.59604 0.57424 0.0
C1358 C 0.96186 0.60816 0.5718 0.0
C1359 C 0.9901 0.70483 0.59154 0.0
C1360 C 0.00801 0.70904 0.60149 0.0
C1361 C 0.98848 0.68891 0.57809 0.0
C1362 C 0.00477 0.6769 0.57431 0.0
C1363 C 0.02277 0.68129 0.58422 0.0
C1364 C 0.02448 0.69749 0.59737 0.0
C1365 C 1.0027 0.65952 0.56046 0.0
C1366 C 0.98654 0.64626 0.56277 0.0
C1367 C 0.0165 0.65577 0.54524 0.0
C1368 C 0.0329 0.67 0.54073 0.0
C1369 C 0.05254 0.66365 0.5403 0.0
C1370 C 0.06801 0.67709 0.53614 0.0
C1371 C 0.064 0.69691 0.53229 0.0
C1372 C 0.04451 0.70331 0.53251 0.0
C1373 C 0.02899 0.68993 0.53663 0.0
H1374 H 0.076 0.70729 0.52909 0.0
H1375 H 0.91905 0.58282 0.56022 0.0
H1376 H 0.75281 0.82968 0.20275 0.0
H1377 H 0.77664 0.85731 0.2064 0.0
H1378 H 0.72916 0.89712 0.21864 0.0
H1379 H 0.70508 0.86952 0.21469 0.0
H1380 H 0.78136 0.89195 0.18666 0.0
H1381 H 0.7471 0.93183 0.25309 0.0
H1382 H 0.72524 0.92457 0.28131 0.0
H1383 H 0.7443 0.86429 0.28137 0.0
H1384 H 0.76644 0.87127 0.25334 0.0
H1385 H 0.84314 0.97833 0.20674 0.0
H1386 H 0.81586 0.95517 0.19844 0.0
H1387 H 0.82244 0.92767 0.25535 0.0
H1388 H 0.84724 0.95294 0.26458 0.0
H1389 H 0.78757 0.92897 0.25035 0.0
H1390 H 0.83565 0.90181 0.20054 0.0
H1391 H 0.85845 0.90559 0.17217 0.0
H1392 H 0.81374 0.93599 0.14005 0.0
H1393 H 0.79082 0.93215 0.16812 0.0
C1394 C 0.74735 0.84435 0.20594 0.0
C1395 C 0.72699 0.84736 0.20839 0.0
C1396 C 0.76103 0.86013 0.20807 0.0
C1397 C 0.7547 0.87926 0.21286 0.0
C1398 C 0.73439 0.88243 0.21514 0.0
C1399 C 0.72066 0.86662 0.21297 0.0
C1400 C 0.76957 0.89564 0.21591 0.0
C1401 C 0.78275 0.90008 0.2006 0.0
C1402 C 0.77131 0.90635 0.23399 0.0
C1403 C 0.75822 0.90203 0.25097 0.0
C1404 C 0.74664 0.91705 0.25916 0.0
C1405 C 0.73421 0.91298 0.27512 0.0
C1406 C 0.73332 0.89396 0.28308 0.0
C1407 C 0.74493 0.87899 0.27515 0.0
C1408 C 0.75741 0.88299 0.25921 0.0
C1409 C 0.83885 0.96712 0.21731 0.0
C1410 C 0.84816 0.96665 0.23592 0.0
C1411 C 0.82338 0.95362 0.21245 0.0
C1412 C 0.81728 0.93894 0.22589 0.0
C1413 C 0.82674 0.93859 0.24449 0.0
C1414 C 0.84146 0.95267 0.24963 0.0
C1415 C 0.80036 0.92471 0.22143 0.0
C1416 C 0.78641 0.9209 0.23639 0.0
C1417 C 0.79807 0.91436 0.2031 0.0
C1418 C 0.81188 0.91713 0.18651 0.0
C1419 C 0.83095 0.90955 0.1875 0.0
C1420 C 0.84379 0.9116 0.17148 0.0
C1421 C 0.83763 0.92125 0.15444 0.0
C1422 C 0.81855 0.92865 0.1533 0.0
C1423 C 0.80562 0.92646 0.16921 0.0
H1424 H 0.8476 0.92285 0.14208 0.0
H1425 H 0.72368 0.89084 0.29542 0.0
H1426 H 0.713 0.14606 0.30575 0.0
H1427 H 0.73744 0.12011 0.30104 0.0
H1428 H 0.78465 0.16417 0.30624 0.0
H1429 H 0.76029 0.19013 0.31127 0.0
H1430 H 0.78671 0.13665 0.27247 0.0
H1431 H 0.77835 0.1371 0.34332 0.0
H1432 H 0.75883 0.13545 0.37394 0.0
H1433 H 0.73679 0.07722 0.35726 0.0
H1434 H 0.75596 0.07865 0.32637 0.0
H1435 H 0.86724 0.07311 0.27426 0.0
H1436 H 0.84412 0.09898 0.28312 0.0
H1437 H 0.79907 0.05419 0.29475 0.0
H1438 H 0.82253 0.02822 0.28681 0.0
H1439 H 0.79554 0.08242 0.32031 0.0
H1440 H 0.80152 0.0809 0.24998 0.0
H1441 H 0.81865 0.08153 0.21791 0.0
H1442 H 0.84206 0.14006 0.2313 0.0
H1443 H 0.82528 0.13967 0.26358 0.0
C1444 C 0.7286 0.15018 0.30586 0.0
C1445 C 0.73479 0.17007 0.30888 0.0
C1446 C 0.74251 0.13537 0.30327 0.0
C1447 C 0.76283 0.14025 0.30338 0.0
C1448 C 0.76904 0.16013 0.30615 0.0
C1449 C 0.75515 0.17489 0.30909 0.0
C1450 C 0.77759 0.12462 0.30032 0.0
C1451 C 0.78889 0.12494 0.28304 0.0
C1452 C 0.77986 0.109 0.31381 0.0
C1453 C 0.76843 0.10807 0.33244 0.0
C1454 C 0.7692 0.12401 0.34609 0.0
C1455 C 0.75823 0.1231 0.36352 0.0
C1456 C 0.74654 0.10626 0.36752 0.0
C1457 C 0.74584 0.09027 0.35413 0.0
C1458 C 0.75677 0.09111 0.33667 0.0
C1459 C 0.85247 0.06878 0.27893 0.0
C1460 C 0.84665 0.04865 0.27972 0.0
C1461 C 0.8392 0.08359 0.28385 0.0
C1462 C 0.81962 0.07862 0.2891 0.0
C1463 C 0.81403 0.05847 0.29066 0.0
C1464 C 0.82745 0.04361 0.28611 0.0
C1465 C 0.80489 0.0944 0.2924 0.0
C1466 C 0.79349 0.09412 0.3097 0.0
C1467 C 0.80222 0.10987 0.2787 0.0
C1468 C 0.81231 0.11017 0.25928 0.0
C1469 C 0.81044 0.09385 0.24614 0.0
C1470 C 0.82007 0.09417 0.22792 0.0
C1471 C 0.83148 0.1108 0.22259 0.0
C1472 C 0.83324 0.12717 0.23546 0.0
C1473 C 0.82366 0.12692 0.25371 0.0
H1474 H 0.83892 0.11102 0.20847 0.0
H1475 H 0.73805 0.10558 0.38102 0.0
H1476 H 0.43114 0.01602 0.95294 0.0
H1477 H 0.40071 0.99679 0.95925 0.0
H1478 H 0.41636 0.99369 0.02101 0.0
H1479 H 0.44699 0.01287 0.01476 0.0
H1480 H 0.40242 0.95713 0.00483 0.0
H1481 H 0.38222 0.02439 0.00896 0.0
H1482 H 0.37949 0.05897 0.99808 0.0
H1483 H 0.34839 0.03889 0.94566 0.0
H1484 H 0.35119 0.00414 0.95608 0.0
H1485 H 0.30488 0.91545 0.02314 0.0
H1486 H 0.3349 0.93664 0.02602 0.0
H1487 H 0.32851 0.95311 0.96497 0.0
H1488 H 0.29869 0.93253 0.96203 0.0
H1489 H 0.33754 0.98477 0.98681 0.0
H1490 H 0.36152 0.91775 0.98035 0.0
H1491 H 0.36463 0.88293 0.99041 0.0
H1492 H 0.3887 0.90234 0.04654 0.0
H1493 H 0.3855 0.9373 0.03689 0.0
C1494 C 0.42818 0.01113 0.96784 0.0
C1495 C 0.44144 0.01599 0.98336 0.0
C1496 C 0.41073 1.00026 0.97145 0.0
C1497 C 0.40621 0.99395 0.99064 0.0
C1498 C 0.41956 0.99846 0.00612 0.0
C1499 C 0.43695 0.00952 1.00255 0.0
C1500 C 0.38742 0.98278 0.99435 0.0
C1501 C 0.38818 0.96327 1.00126 0.0
C1502 C 0.36888 0.99075 0.98952 0.0
C1503 C 0.36705 0.01164 0.98324 0.0
C1504 C 0.37493 0.02733 0.99504 0.0
C1505 C 0.37335 0.04696 0.98897 0.0
C1506 C 0.3638 0.05112 0.97117 0.0
C1507 C 0.35578 0.03564 0.95944 0.0
C1508 C 0.35735 0.01598 0.96543 0.0
C1509 C 0.30984 0.92366 0.01037 0.0
C1510 C 0.29928 0.92222 0.99237 0.0
C1511 C 0.32704 0.93571 0.01202 0.0
C1512 C 0.33404 0.9464 0.99567 0.0
C1513 C 0.32339 0.94511 0.97783 0.0
C1514 C 0.30629 0.93321 0.97618 0.0
C1515 C 0.35254 0.95884 0.99666 0.0
C1516 C 0.35173 0.97867 0.99069 0.0
C1517 C 0.371 0.95111 1.00225 0.0
C1518 C 0.37304 0.93012 0.008 0.0
C1519 C 0.36734 0.91458 0.99489 0.0
C1520 C 0.36914 0.89483 1.00051 0.0
C1521 C 0.37679 0.89042 0.01913 0.0
C1522 C 0.38273 0.90577 0.03214 0.0
C1523 C 0.38094 0.92556 0.02661 0.0
H1524 H 0.37817 0.87512 0.02345 0.0
H1525 H 0.36259 0.06633 0.9665 0.0
H1526 H 0.30765 0.37412 0.30564 0.0
H1527 H 0.28341 0.39996 0.29986 0.0
H1528 H 0.23596 0.35621 0.30375 0.0
H1529 H 0.26007 0.33039 0.30963 0.0
H1530 H 0.23359 0.38119 0.27036 0.0
H1531 H 0.24309 0.38643 0.34108 0.0
H1532 H 0.26299 0.39067 0.3716 0.0
H1533 H 0.28439 0.44759 0.3521 0.0
H1534 H 0.26483 0.44355 0.32131 0.0
H1535 H 0.15255 0.44454 0.26932 0.0
H1536 H 0.17607 0.41935 0.2787 0.0
H1537 H 0.22088 0.46515 0.2893 0.0
H1538 H 0.19699 0.49044 0.281 0.0
H1539 H 0.22518 0.439 0.31549 0.0
H1540 H 0.21782 0.43482 0.24513 0.0
H1541 H 0.19999 0.4314 0.21329 0.0
H1542 H 0.17736 0.37395 0.22988 0.0
H1543 H 0.19487 0.37713 0.26194 0.0
C1544 C 0.29204 0.37006 0.30529 0.0
C1545 C 0.28574 0.35026 0.30815 0.0
C1546 C 0.27822 0.38482 0.30208 0.0
C1547 C 0.25788 0.38 0.30147 0.0
C1548 C 0.25158 0.36024 0.30421 0.0
C1549 C 0.26535 0.34555 0.30768 0.0
C1550 C 0.24316 0.39546 0.29755 0.0
C1551 C 0.23154 0.39371 0.28033 0.0
C1552 C 0.24098 0.41211 0.31025 0.0
C1553 C 0.25264 0.4146 0.32881 0.0
C1554 C 0.25217 0.39977 0.34322 0.0
C1555 C 0.26336 0.40215 0.36059 0.0
C1556 C 0.27499 0.41936 0.36377 0.0
C1557 C 0.2754 0.43425 0.34961 0.0
C1558 C 0.26425 0.43193 0.3322 0.0
C1559 C 0.16737 0.44923 0.27382 0.0
C1560 C 0.17297 0.46945 0.27432 0.0
C1561 C 0.18089 0.4348 0.27903 0.0
C1562 C 0.2005 0.44022 0.28422 0.0
C1563 C 0.20591 0.4605 0.28528 0.0
C1564 C 0.19225 0.47497 0.28051 0.0
C1565 C 0.21542 0.4248 0.28822 0.0
C1566 C 0.22715 0.42653 0.30544 0.0
C1567 C 0.21799 0.40829 0.2753 0.0
C1568 C 0.2075 0.4063 0.25601 0.0
C1569 C 0.20894 0.42151 0.24204 0.0
C1570 C 0.1989 0.41961 0.22395 0.0
C1571 C 0.18751 0.40249 0.21959 0.0
C1572 C 0.18617 0.38721 0.23329 0.0
C1573 C 0.19616 0.38905 0.25142 0.0
H1574 H 0.17974 0.40105 0.20557 0.0
H1575 H 0.28364 0.42118 0.37722 0.0
H1576 H 0.09743 0.96587 0.49059 0.0
H1577 H 0.12737 0.98564 0.49819 0.0
H1578 H 0.09889 0.03813 0.4777 0.0
H1579 H 0.06851 0.0188 0.47137 0.0
H1580 H 0.15246 0.00598 0.47771 0.0
H1581 H 0.11453 0.07838 0.50175 0.0
H1582 H 0.08374 0.08885 0.51777 0.0
H1583 H 0.07861 0.03273 0.54679 0.0
H1584 H 0.10954 0.02207 0.53119 0.0
H1585 H 0.21993 0.08721 0.47445 0.0
H1586 H 0.19285 0.06267 0.47148 0.0
H1587 H 0.18247 0.06788 0.53427 0.0
H1588 H 0.20905 0.09337 0.53692 0.0
H1589 H 0.14933 0.06827 0.51737 0.0
H1590 H 0.20317 0.02505 0.51069 0.0
H1591 H 0.23478 0.01288 0.49789 0.0
H1592 H 0.20956 0.00735 0.43958 0.0
H1593 H 0.17788 0.01974 0.45198 0.0
C1594 C 0.09739 0.98168 0.48798 0.0
C1595 C 0.08039 0.99072 0.48054 0.0
C1596 C 0.11464 0.99294 0.49214 0.0
C1597 C 0.11534 0.01346 0.48885 0.0
C1598 C 0.09863 0.02241 0.4808 0.0
C1599 C 0.0813 0.01123 0.4769 0.0
C1600 C 0.13349 0.02555 0.49385 0.0
C1601 C 0.15178 0.01962 0.48636 0.0
C1602 C 0.13279 0.04307 0.50561 0.0
C1603 C 0.1143 0.04942 0.51524 0.0
C1604 C 0.10691 0.06835 0.51168 0.0
C1605 C 0.08942 0.0743 0.52064 0.0
C1606 C 0.07921 0.06145 0.53326 0.0
C1607 C 0.08651 0.04265 0.53698 0.0
C1608 C 0.10401 0.03664 0.52807 0.0
C1609 C 0.21173 0.08317 0.48757 0.0
C1610 C 0.21592 0.09266 0.50575 0.0
C1611 C 0.19648 0.06886 0.48595 0.0
C1612 C 0.18556 0.06323 0.50266 0.0
C1613 C 0.19052 0.07204 0.5211 0.0
C1614 C 0.2057 0.08653 0.52266 0.0
C1615 C 0.16826 0.04917 0.50059 0.0
C1616 C 0.15009 0.05469 0.50867 0.0
C1617 C 0.1692 0.03105 0.48976 0.0
C1618 C 0.18818 0.02344 0.48225 0.0
C1619 C 0.2044 0.02134 0.49512 0.0
C1620 C 0.22232 0.01439 0.48793 0.0
C1621 C 0.22418 0.00937 0.46793 0.0
C1622 C 0.2081 0.01125 0.45507 0.0
C1623 C 0.19014 0.0182 0.46218 0.0
H1624 H 0.23808 0.004 0.46239 0.0
H1625 H 0.06565 0.06607 0.54017 0.0
H1626 H 0.76128 0.18381 0.69232 0.0
H1627 H 0.73661 0.15746 0.69815 0.0
H1628 H 0.78313 0.1161 0.70814 0.0
H1629 H 0.80795 0.14237 0.70215 0.0
H1630 H 0.72825 0.12233 0.68016 0.0
H1631 H 0.76753 0.08391 0.74429 0.0
H1632 H 0.79202 0.0918 0.77065 0.0
H1633 H 0.77496 0.15274 0.77093 0.0
H1634 H 0.7502 0.14514 0.74479 0.0
H1635 H 0.6691 0.03647 0.70433 0.0
H1636 H 0.6951 0.05992 0.69434 0.0
H1637 H 0.69301 0.08856 0.75183 0.0
H1638 H 0.66941 0.06307 0.76257 0.0
H1639 H 0.72745 0.08752 0.74421 0.0
H1640 H 0.67613 0.11583 0.69849 0.0
H1641 H 0.65029 0.11238 0.6724 0.0
H1642 H 0.68923 0.07744 0.63702 0.0
H1643 H 0.71516 0.08094 0.66286 0.0
C1644 C 0.76629 0.16905 0.69548 0.0
C1645 C 0.78661 0.16523 0.69682 0.0
C1646 C 0.75216 0.15401 0.69887 0.0
C1647 C 0.758 0.13485 0.70375 0.0
C1648 C 0.77827 0.13084 0.70469 0.0
C1649 C 0.79243 0.1459 0.70131 0.0
C1650 C 0.74281 0.11927 0.70829 0.0
C1651 C 0.72805 0.1147 0.69418 0.0
C1652 C 0.74251 0.1093 0.72654 0.0
C1653 C 0.75719 0.11399 0.74242 0.0
C1654 C 0.76898 0.09897 0.75002 0.0
C1655 C 0.78291 0.1034 0.76492 0.0
C1656 C 0.7851 0.12277 0.77241 0.0
C1657 C 0.77331 0.13775 0.76507 0.0
C1658 C 0.75934 0.1334 0.75019 0.0
C1659 C 0.67406 0.04799 0.71469 0.0
C1660 C 0.66639 0.04866 0.73393 0.0
C1661 C 0.68876 0.06168 0.70886 0.0
C1662 C 0.69575 0.07675 0.72196 0.0
C1663 C 0.68794 0.07733 0.74121 0.0
C1664 C 0.67395 0.06309 0.74727 0.0
C1665 C 0.71212 0.09099 0.71638 0.0
C1666 C 0.72743 0.09512 0.73019 0.0
C1667 C 0.71276 0.10083 0.69798 0.0
C1668 C 0.69716 0.09813 0.68277 0.0
C1669 C 0.67888 0.10712 0.68528 0.0
C1670 C 0.66435 0.10529 0.6705 0.0
C1671 C 0.66802 0.09446 0.65319 0.0
C1672 C 0.68633 0.08568 0.6505 0.0
C1673 C 0.70096 0.08766 0.66515 0.0
H1674 H 0.65674 0.09301 0.6418 0.0
H1675 H 0.7959 0.12617 0.78393 0.0
H1676 H 0.42451 0.9988 0.55967 0.0
H1677 H 0.39743 0.02079 0.5515 0.0
H1678 H 0.41833 0.02441 0.49154 0.0
H1679 H 0.44551 1.00245 0.49964 0.0
H1680 H 0.40846 0.06134 0.50751 0.0
H1681 H 0.3797 0.9958 0.50008 0.0
H1682 H 0.37112 0.96178 0.51054 0.0
H1683 H 0.33771 0.98496 0.55905 0.0
H1684 H 0.34634 0.01915 0.54904 0.0
H1685 H 0.29735 0.07936 0.48035 0.0
H1686 H 0.32607 0.05817 0.48327 0.0
H1687 H 0.35186 0.09861 0.52683 0.0
H1688 H 0.32322 0.11987 0.52398 0.0
H1689 H 0.33859 0.0388 0.51588 0.0
H1690 H 0.40256 0.09728 0.52287 0.0
H1691 H 0.41115 0.1308 0.51093 0.0
H1692 H 0.37391 0.12072 0.45991 0.0
H1693 H 0.36531 0.08706 0.4714 0.0
C1694 C 0.4234 0.00438 0.54478 0.0
C1695 C 0.43712 0.99887 0.53028 0.0
C1696 C 0.40787 0.01685 0.54011 0.0
C1697 C 0.4058 0.02416 0.52088 0.0
C1698 C 0.41964 0.01893 0.50646 0.0
C1699 C 0.43506 0.00628 0.51107 0.0
C1700 C 0.38906 0.03707 0.51582 0.0
C1701 C 0.39318 0.05643 0.50933 0.0
C1702 C 0.36912 0.03057 0.51792 0.0
C1703 C 0.36382 0.01003 0.52391 0.0
C1704 C 0.37065 0.99364 0.51307 0.0
C1705 C 0.36576 0.97433 0.5189 0.0
C1706 C 0.35391 0.97121 0.53548 0.0
C1707 C 0.3469 0.9874 0.54623 0.0
C1708 C 0.35177 0.00675 0.54047 0.0
C1709 C 0.30926 0.08389 0.49035 0.0
C1710 C 0.308 0.10132 0.50192 0.0
C1711 C 0.32562 0.0717 0.49208 0.0
C1712 C 0.34115 0.0768 0.50523 0.0
C1713 C 0.34016 0.09446 0.51644 0.0
C1714 C 0.32375 0.10659 0.51481 0.0
C1715 C 0.35796 0.06323 0.5079 0.0
C1716 C 0.35385 0.04374 0.51401 0.0
C1717 C 0.37789 0.06958 0.50529 0.0
C1718 C 0.38315 0.08971 0.49811 0.0
C1719 C 0.39627 0.10219 0.50906 0.0
C1720 C 0.40113 0.12122 0.50238 0.0
C1721 C 0.39303 0.12791 0.4847 0.0
C1722 C 0.38011 0.11555 0.47364 0.0
C1723 C 0.37521 0.09651 0.48025 0.0
H1724 H 0.3968 0.14265 0.47956 0.0
H1725 H 0.35014 0.95624 0.53997 0.0
H1726 H 0.56527 0.49449 0.54534 0.0
H1727 H 0.59441 0.47476 0.53906 0.0
H1728 H 0.62567 0.52659 0.51774 0.0
H1729 H 0.59708 0.54683 0.52511 0.0
H1730 H 0.62612 0.48826 0.4928 0.0
H1731 H 0.639 0.51564 0.55863 0.0
H1732 H 0.6302 0.52238 0.59336 0.0
H1733 H 0.62367 0.45982 0.60352 0.0
H1734 H 0.63214 0.45272 0.56874 0.0
H1735 H 0.72185 0.45111 0.48435 0.0
H1736 H 0.69389 0.47188 0.49232 0.0
H1737 H 0.67182 0.42753 0.53256 0.0
H1738 H 0.70029 0.40704 0.52525 0.0
H1739 H 0.66592 0.46195 0.548 0.0
H1740 H 0.65272 0.43298 0.48459 0.0
H1741 H 0.65952 0.42376 0.44994 0.0
H1742 H 0.66344 0.48535 0.43471 0.0
H1743 H 0.65703 0.49496 0.46937 0.0
C1744 C 0.57839 0.50187 0.53963 0.0
C1745 C 0.57872 0.5224 0.5359 0.0
C1746 C 0.59499 0.49047 0.53588 0.0
C1747 C 0.61215 0.49925 0.52798 0.0
C1748 C 0.61249 0.51955 0.52377 0.0
C1749 C 0.59604 0.53107 0.52788 0.0
C1750 C 0.62984 0.48722 0.52436 0.0
C1751 C 0.63504 0.48271 0.50481 0.0
C1752 C 0.64092 0.47941 0.54009 0.0
C1753 C 0.63599 0.48366 0.56103 0.0
C1754 C 0.6355 0.50333 0.56822 0.0
C1755 C 0.63061 0.50721 0.58792 0.0
C1756 C 0.62632 0.49154 0.60063 0.0
C1757 C 0.62697 0.47194 0.59366 0.0
C1758 C 0.63183 0.46798 0.57396 0.0
C1759 C 0.71112 0.44582 0.495 0.0
C1760 C 0.71324 0.42735 0.50407 0.0
C1761 C 0.69504 0.45767 0.49947 0.0
C1762 C 0.68042 0.45111 0.5127 0.0
C1763 C 0.68283 0.43293 0.52224 0.0
C1764 C 0.69912 0.42121 0.51804 0.0
C1765 C 0.66251 0.46304 0.51631 0.0
C1766 C 0.65714 0.46748 0.53589 0.0
C1767 C 0.65097 0.4704 0.50056 0.0
C1768 C 0.65458 0.46469 0.47963 0.0
C1769 C 0.65516 0.44457 0.47388 0.0
C1770 C 0.65894 0.43927 0.45424 0.0
C1771 C 0.66195 0.45396 0.44014 0.0
C1772 C 0.66113 0.47399 0.44565 0.0
C1773 C 0.65742 0.47937 0.4653 0.0
H1774 H 0.66488 0.44983 0.42493 0.0
H1775 H 0.62254 0.49457 0.61588 0.0
H1776 H 0.74171 0.2329 0.34454 0.0
H1777 H 0.74499 0.25783 0.37104 0.0
H1778 H 0.68227 0.2527 0.38188 0.0
H1779 H 0.67889 0.22767 0.35544 0.0
H1780 H 0.69385 0.29058 0.37958 0.0
H1781 H 0.71577 0.23408 0.41442 0.0
H1782 H 0.73558 0.20447 0.42014 0.0
H1783 H 0.78891 0.24047 0.41982 0.0
H1784 H 0.76945 0.27027 0.41381 0.0
H1785 H 0.70408 0.34929 0.47162 0.0
H1786 H 0.69556 0.32387 0.44655 0.0
H1787 H 0.75595 0.32509 0.42642 0.0
H1788 H 0.76479 0.34903 0.45271 0.0
H1789 H 0.74227 0.28816 0.43477 0.0
H1790 H 0.71315 0.33294 0.37585 0.0
H1791 H 0.69102 0.35939 0.3652 0.0
H1792 H 0.65075 0.34466 0.4119 0.0
H1793 H 0.67208 0.31738 0.42197 0.0
C1794 C 0.72866 0.23682 0.35278 0.0
C1795 C 0.71003 0.22829 0.34784 0.0
C1796 C 0.73056 0.2511 0.36793 0.0
C1797 C 0.7139 0.25704 0.37858 0.0
C1798 C 0.69532 0.24838 0.37385 0.0
C1799 C 0.69341 0.23413 0.35868 0.0
C1800 C 0.7157 0.27301 0.39393 0.0
C1801 C 0.70424 0.2899 0.39184 0.0
C1802 C 0.72939 0.27227 0.40979 0.0
C1803 C 0.74115 0.25439 0.4135 0.0
C1804 C 0.73173 0.23567 0.41542 0.0
C1805 C 0.7429 0.21885 0.41874 0.0
C1806 C 0.76349 0.22058 0.4203 0.0
C1807 C 0.77296 0.23915 0.41859 0.0
C1808 C 0.76187 0.25601 0.41525 0.0
C1809 C 0.71537 0.34445 0.46148 0.0
C1810 C 0.73492 0.35177 0.4635 0.0
C1811 C 0.71041 0.33015 0.44689 0.0
C1812 C 0.72487 0.3231 0.4339 0.0
C1813 C 0.74439 0.33061 0.43589 0.0
C1814 C 0.74941 0.34449 0.45075 0.0
C1815 C 0.72062 0.30594 0.42026 0.0
C1816 C 0.73173 0.28876 0.42264 0.0
C1817 C 0.70649 0.30632 0.40474 0.0
C1818 C 0.69472 0.32389 0.40033 0.0
C1819 C 0.69974 0.33562 0.38404 0.0
C1820 C 0.68713 0.35045 0.37783 0.0
C1821 C 0.66962 0.35389 0.38805 0.0
C1822 C 0.66449 0.34222 0.40422 0.0
C1823 C 0.6768 0.32702 0.41014 0.0
H1824 H 0.65996 0.36551 0.38334 0.0
H1825 H 0.77211 0.20755 0.42287 0.0
H1826 H 0.47713 0.0324 0.92114 0.0
H1827 H 0.4971 0.02569 0.89192 0.0
H1828 H 0.54842 0.01846 0.92923 0.0
H1829 H 0.52855 0.02629 0.95841 0.0
H1830 H 0.55952 0.03784 0.89949 0.0
H1831 H 0.52117 0.97791 0.90533 0.0
H1832 H 0.49101 0.95695 0.90896 0.0
H1833 H 0.4685 0.97817 0.85388 0.0
H1834 H 0.4984 0.99948 0.85005 0.0
H1835 H 0.61424 0.99723 0.81849 0.0
H1836 H 0.59455 0.99578 0.84891 0.0
H1837 H 0.54734 0.02595 0.81974 0.0
H1838 H 0.56712 0.028 0.7896 0.0
H1839 H 0.536 0.99145 0.84619 0.0
H1840 H 0.57387 0.05405 0.8436 0.0
H1841 H 0.60505 0.0734 0.84 0.0
H1842 H 0.62973 0.04408 0.89004 0.0
H1843 H 0.59874 0.02431 0.89373 0.0
C1844 C 0.49266 0.02928 0.92305 0.0
C1845 C 0.50131 0.02975 0.94198 0.0
C1846 C 0.50407 0.0253 0.90636 0.0
C1847 C 0.52426 0.02107 0.90829 0.0
C1848 C 0.5329 0.02159 0.92727 0.0
C1849 C 0.52156 0.02602 0.94394 0.0
C1850 C 0.53644 0.01682 0.89046 0.0
C1851 C 0.55447 0.02737 0.88809 0.0
C1852 C 0.52993 1.00332 0.87531 0.0
C1853 C 0.51198 0.9904 0.87748 0.0
C1854 C 0.50974 0.9782 0.89405 0.0
C1855 C 0.49269 0.96624 0.89613 0.0
C1856 C 0.47783 0.96625 0.88168 0.0
C1857 C 0.48001 0.97818 0.86507 0.0
C1858 C 0.49702 0.99018 0.86292 0.0
C1859 C 0.59948 1.00313 0.81847 0.0
C1860 C 0.59218 0.01275 0.80174 0.0
C1861 C 0.58831 1.00235 0.83583 0.0
C1862 C 0.56954 0.01079 0.83652 0.0
C1863 C 0.56176 0.01929 0.81945 0.0
C1864 C 0.57308 0.0205 0.8023 0.0
C1865 C 0.55873 0.01254 0.85543 0.0
C1866 C 0.54102 1.00161 0.85787 0.0
C1867 C 0.56562 0.02543 0.87078 0.0
C1868 C 0.5841 0.03754 0.86879 0.0
C1869 C 0.58601 0.0516 0.85372 0.0
C1870 C 0.60363 0.06266 0.85168 0.0
C1871 C 0.61939 0.05992 0.86474 0.0
C1872 C 0.61752 0.04616 0.87991 0.0
C1873 C 0.59993 0.03503 0.88199 0.0
H1874 H 0.63303 0.06849 0.86314 0.0
H1875 H 0.46464 0.957 0.88333 0.0
H1876 H 0.33861 0.28672 0.35124 0.0
H1877 H 0.33338 0.26272 0.37763 0.0
H1878 H 0.27026 0.26625 0.36968 0.0
H1879 H 0.27527 0.28965 0.34287 0.0
H1880 H 0.2824 0.26907 0.40946 0.0
H1881 H 0.29332 0.22761 0.35147 0.0
H1882 H 0.31239 0.21605 0.32276 0.0
H1883 H 0.36047 0.20117 0.36112 0.0
H1884 H 0.34177 0.21291 0.39005 0.0
H1885 H 0.23678 0.18588 0.44985 0.0
H1886 H 0.25046 0.21088 0.42806 0.0
H1887 H 0.3096 0.19487 0.44452 0.0
H1888 H 0.29594 0.16939 0.46664 0.0
H1889 H 0.30501 0.19974 0.40385 0.0
H1890 H 0.29305 0.23686 0.46224 0.0
H1891 H 0.27451 0.24818 0.49138 0.0
H1892 H 0.2299 0.27171 0.45352 0.0
H1893 H 0.248 0.26025 0.42413 0.0
C1894 C 0.3236 0.28222 0.3549 0.0
C1895 C 0.30737 0.29019 0.34484 0.0
C1896 C 0.32065 0.26859 0.37009 0.0
C1897 C 0.30143 0.2627 0.37561 0.0
C1898 C 0.28522 0.2707 0.36575 0.0
C1899 C 0.28814 0.28418 0.35046 0.0
C1900 C 0.29804 0.24808 0.39153 0.0
C1901 C 0.28725 0.25388 0.4082 0.0
C1902 C 0.30506 0.22849 0.39025 0.0
C1903 C 0.31625 0.22137 0.37288 0.0
C1904 C 0.30803 0.22204 0.35376 0.0
C1905 C 0.31876 0.21542 0.33746 0.0
C1906 C 0.33766 0.20794 0.34011 0.0
C1907 C 0.34585 0.20701 0.35908 0.0
C1908 C 0.33519 0.21363 0.37544 0.0
C1909 C 0.25273 0.18755 0.44898 0.0
C1910 C 0.26524 0.17557 0.46015 0.0
C1911 C 0.26053 0.20199 0.43651 0.0
C1912 C 0.28104 0.20495 0.43485 0.0
C1913 C 0.2937 0.19289 0.44568 0.0
C1914 C 0.28587 0.17839 0.45834 0.0
C1915 C 0.28886 0.22058 0.4215 0.0
C1916 C 0.30047 0.21501 0.40532 0.0
C1917 C 0.28277 0.24047 0.42332 0.0
C1918 C 0.27185 0.24757 0.44095 0.0
C1919 C 0.27922 0.24433 0.46011 0.0
C1920 C 0.26879 0.25078 0.47669 0.0
C1921 C 0.25102 0.26063 0.47431 0.0
C1922 C 0.24366 0.26408 0.45534 0.0
C1923 C 0.25402 0.25762 0.43872 0.0
H1924 H 0.24297 0.26562 0.48715 0.0
H1925 H 0.34594 0.20282 0.32746 0.0
H1926 H 0.51187 0.512 0.95252 0.0
H1927 H 0.49264 0.51941 0.92272 0.0
H1928 H 0.49971 0.45939 0.90147 0.0
H1929 H 0.51878 0.45188 0.93126 0.0
H1930 H 0.50841 0.48935 0.87307 0.0
H1931 H 0.45742 0.47086 0.91989 0.0
H1932 H 0.43944 0.47378 0.95135 0.0
H1933 H 0.42587 0.53411 0.93834 0.0
H1934 H 0.44405 0.53163 0.9069 0.0
H1935 H 0.43855 0.46802 0.79978 0.0
H1936 H 0.45914 0.47039 0.82917 0.0
H1937 H 0.43703 0.52855 0.84226 0.0
H1938 H 0.41574 0.52615 0.81264 0.0
H1939 H 0.43733 0.50587 0.87493 0.0
H1940 H 0.48441 0.52367 0.82646 0.0
H1941 H 0.50244 0.52156 0.79497 0.0
H1942 H 0.52408 0.46458 0.81088 0.0
H1943 H 0.50594 0.4662 0.84235 0.0
C1944 C 0.50928 0.50041 0.94148 0.0
C1945 C 0.51676 0.48134 0.94422 0.0
C1946 C 0.49826 0.50463 0.92453 0.0
C1947 C 0.49474 0.48994 0.90991 0.0
C1948 C 0.50228 0.47094 0.91257 0.0
C1949 C 0.51304 0.46662 0.92964 0.0
C1950 C 0.48332 0.49428 0.89173 0.0
C1951 C 0.49284 0.49285 0.87343 0.0
C1952 C 0.46323 0.49966 0.89231 0.0
C1953 C 0.45231 0.50114 0.91118 0.0
C1954 C 0.45078 0.48481 0.92383 0.0
C1955 C 0.44051 0.48637 0.94164 0.0
C1956 C 0.43158 0.50414 0.94687 0.0
C1957 C 0.43284 0.52037 0.93428 0.0
C1958 C 0.44311 0.5189 0.91647 0.0
C1959 C 0.43804 0.48146 0.80872 0.0
C1960 C 0.4254 0.49692 0.80373 0.0
C1961 C 0.45 0.48282 0.82555 0.0
C1962 C 0.44989 0.49975 0.83783 0.0
C1963 C 0.43744 0.51537 0.83293 0.0
C1964 C 0.42536 0.51402 0.81595 0.0
C1965 C 0.46227 0.50038 0.85613 0.0
C1966 C 0.45298 0.50274 0.8745 0.0
C1967 C 0.48267 0.49606 0.85564 0.0
C1968 C 0.49371 0.49502 0.83675 0.0
C1969 C 0.4929 0.51062 0.8232 0.0
C1970 C 0.50316 0.50952 0.80535 0.0
C1971 C 0.51437 0.49294 0.80092 0.0
C1972 C 0.51539 0.47743 0.81434 0.0
C1973 C 0.50514 0.47844 0.8322 0.0
H1974 H 0.5223 0.49211 0.78709 0.0
H1975 H 0.42363 0.50532 0.96066 0.0
H1976 H 0.73593 0.77986 0.18145 0.0
H1977 H 0.74133 0.75569 0.15481 0.0
H1978 H 0.68051 0.7606 0.13605 0.0
H1979 H 0.67491 0.78419 0.16325 0.0
H1980 H 0.69012 0.72387 0.1329 0.0
H1981 H 0.72072 0.78507 0.11232 0.0
H1982 H 0.74289 0.81463 0.11528 0.0
H1983 H 0.79324 0.7773 0.11913 0.0
H1984 H 0.77134 0.7475 0.11647 0.0
H1985 H 0.70131 0.68651 0.03488 0.0
H1986 H 0.69617 0.70808 0.06357 0.0
H1987 H 0.75422 0.69485 0.08573 0.0
H1988 H 0.75961 0.67322 0.05698 0.0
H1989 H 0.74643 0.73502 0.08736 0.0
H1990 H 0.71449 0.67361 0.10626 0.0
H1991 H 0.69149 0.64491 0.10149 0.0
H1992 H 0.64244 0.68402 0.09879 0.0
H1993 H 0.66519 0.71299 0.10325 0.0
C1994 C 0.72372 0.77571 0.17164 0.0
C1995 C 0.70504 0.78397 0.17428 0.0
C1996 C 0.72683 0.76197 0.15637 0.0
C1997 C 0.71146 0.75661 0.14308 0.0
C1998 C 0.69264 0.76451 0.14603 0.0
C1999 C 0.68944 0.77799 0.16155 0.0
C2000 C 0.71507 0.74304 0.12596 0.0
C2001 C 0.7023 0.72648 0.12283 0.0
C2002 C 0.73116 0.74616 0.11292 0.0
C2003 C 0.74437 0.76406 0.11439 0.0
C2004 C 0.73651 0.78317 0.11393 0.0
C2005 C 0.74903 0.79996 0.11554 0.0
C2006 C 0.76945 0.79784 0.11744 0.0
C2007 C 0.77741 0.77892 0.11768 0.0
C2008 C 0.76496 0.76207 0.11611 0.0
C2009 C 0.71303 0.68815 0.04581 0.0
C2010 C 0.73089 0.67806 0.04358 0.0
C2011 C 0.71001 0.70044 0.06227 0.0
C2012 C 0.72474 0.70292 0.07688 0.0
C2013 C 0.74265 0.69309 0.07464 0.0
C2014 C 0.74566 0.68068 0.05822 0.0
C2015 C 0.72149 0.71599 0.09436 0.0
C2016 C 0.73431 0.73244 0.09751 0.0
C2017 C 0.70532 0.71291 0.10723 0.0
C2018 C 0.69157 0.69548 0.10493 0.0
C2019 C 0.69881 0.6761 0.10453 0.0
C2020 C 0.68582 0.65978 0.10189 0.0
C2021 C 0.66552 0.66264 0.09978 0.0
C2022 C 0.65817 0.68183 0.1004 0.0
C2023 C 0.6711 0.6982 0.10301 0.0
H2024 H 0.65549 0.64999 0.09771 0.0
H2025 H 0.77912 0.81086 0.11869 0.0
H2026 H 0.02293 0.0092 0.07612 0.0
H2027 H 1.00249 1.0019 0.10479 0.0
H2028 H 0.9964 0.06458 0.1162 0.0
H2029 H 0.01783 0.07203 0.08817 0.0
H2030 H 1.00218 0.04667 0.14961 0.0
H2031 H 0.95856 0.03515 0.09459 0.0
H2032 H 0.94755 0.021 0.06242 0.0
H2033 H 0.95035 0.96218 0.08564 0.0
H2034 H 0.96166 0.97597 0.11789 0.0
H2035 H 0.92043 0.03398 0.21566 0.0
H2036 H 0.94117 0.04309 0.18752 0.0
H2037 H 0.955 0.98159 0.17808 0.0
H2038 H 0.93436 0.97231 0.20611 0.0
H2039 H 0.94437 1.00005 0.14362 0.0
H2040 H 0.98862 0.01267 0.19887 0.0
H2041 H 0.99871 0.02777 0.23092 0.0
H2042 H 0.9932 0.08597 0.20683 0.0
H2043 H 0.98281 0.07121 0.17469 0.0
C2044 C 0.01748 0.02147 0.08484 0.0
C2045 C 0.02206 0.04123 0.07975 0.0
C2046 C 0.00554 0.01726 0.10112 0.0
C2047 C 0.99758 0.03267 0.11251 0.0
C2048 C 1.00226 0.05241 0.1076 0.0
C2049 C 0.01436 0.05665 0.09141 0.0
C2050 C 0.98457 0.02818 0.12965 0.0
C2051 C 0.98937 0.03671 0.1482 0.0
C2052 C 0.96798 0.01495 0.12797 0.0
C2053 C 0.96113 0.0066 0.10861 0.0
C2054 C 0.95697 0.01919 0.09279 0.0
C2055 C 0.95065 0.01123 0.07455 0.0
C2056 C 0.9483 0.9907 0.07198 0.0
C2057 C 0.95221 0.97808 0.08766 0.0
C2058 C 0.95855 0.98596 0.10592 0.0
C2059 C 0.92793 0.02237 0.20766 0.0
C2060 C 0.92572 1.00239 0.21323 0.0
C2061 C 0.93983 0.02763 0.19161 0.0
C2062 C 0.94971 0.01303 0.18076 0.0
C2063 C 0.94751 0.9931 0.18624 0.0
C2064 C 0.93575 0.98784 0.20235 0.0
C2065 C 0.96212 0.01841 0.16351 0.0
C2066 C 0.95716 0.01006 0.14495 0.0
C2067 C 0.97841 0.03195 0.16515 0.0
C2068 C 0.98474 0.04084 0.18444 0.0
C2069 C 0.9894 0.02869 0.20045 0.0
C2070 C 0.9952 0.03719 0.21863 0.0
C2071 C 0.99654 0.05781 0.22093 0.0
C2072 C 0.99213 0.06999 0.20504 0.0
C2073 C 0.9863 0.06157 0.18683 0.0
H2074 H 1.00104 0.06436 0.23501 0.0
H2075 H 0.9434 0.98457 0.05784 0.0
H2076 H 0.3105 0.75597 0.18056 0.0
H2077 H 0.30487 0.7802 0.15454 0.0
H2078 H 0.30369 0.7331 0.11069 0.0
H2079 H 0.30885 0.70868 0.1368 0.0
H2080 H 0.32852 0.77155 0.10271 0.0
H2081 H 0.26314 0.746 0.11948 0.0
H2082 H 0.23655 0.73722 0.14279 0.0
H2083 H 0.23533 0.79775 0.16338 0.0
H2084 H 0.26218 0.80682 0.1404 0.0
H2085 H 0.28706 0.82355 0.0219 0.0
H2086 H 0.29678 0.79968 0.04681 0.0
H2087 H 0.27708 0.83922 0.09299 0.0
H2088 H 0.26678 0.86283 0.06812 0.0
H2089 H 0.2635 0.80394 0.09986 0.0
H2090 H 0.32725 0.83074 0.08384 0.0
H2091 H 0.35492 0.84094 0.06236 0.0
H2092 H 0.36087 0.78062 0.04242 0.0
H2093 H 0.33303 0.77009 0.06357 0.0
C2094 C 0.3092 0.75082 0.16535 0.0
C2095 C 0.31011 0.73049 0.16064 0.0
C2096 C 0.30596 0.76464 0.15054 0.0
C2097 C 0.30392 0.7584 0.13074 0.0
C2098 C 0.30532 0.73817 0.1259 0.0
C2099 C 0.30815 0.72427 0.14078 0.0
C2100 C 0.29945 0.77302 0.11529 0.0
C2101 C 0.31423 0.77847 0.10183 0.0
C2102 C 0.28104 0.78243 0.11466 0.0
C2103 C 0.26482 0.77704 0.12839 0.0
C2104 C 0.25735 0.7574 0.12912 0.0
C2105 C 0.2422 0.75237 0.14224 0.0
C2106 C 0.23429 0.76691 0.1546 0.0
C2107 C 0.24149 0.7865 0.15382 0.0
C2108 C 0.25667 0.79159 0.14075 0.0
C2109 C 0.28504 0.82727 0.03738 0.0
C2110 C 0.27614 0.84508 0.04303 0.0
C2111 C 0.29067 0.81362 0.05163 0.0
C2112 C 0.28781 0.81765 0.07186 0.0
C2113 C 0.27939 0.83569 0.07751 0.0
C2114 C 0.27358 0.84924 0.06327 0.0
C2115 C 0.29259 0.80268 0.08705 0.0
C2116 C 0.27783 0.79711 0.10057 0.0
C2117 C 0.31116 0.7934 0.08789 0.0
C2118 C 0.32791 0.79966 0.07514 0.0
C2119 C 0.33435 0.81967 0.07475 0.0
C2120 C 0.35008 0.82551 0.06266 0.0
C2121 C 0.35961 0.81144 0.05099 0.0
C2122 C 0.35345 0.7915 0.05144 0.0
C2123 C 0.33771 0.78559 0.06349 0.0
H2124 H 0.37179 0.81599 0.04164 0.0
H2125 H 0.22256 0.76299 0.16475 0.0
H2126 H 1.00014 0.45121 0.07902 0.0
H2127 H 0.02114 0.45781 0.10788 0.0
H2128 H 0.01485 0.52078 0.10034 0.0
H2129 H 0.9949 0.51434 0.0706 0.0
H2130 H 0.05118 0.51417 0.10993 0.0
H2131 H 0.9885 0.49318 0.13615 0.0
H2132 H 0.95919 0.47109 0.14015 0.0
H2133 H 0.9963 0.42454 0.16006 0.0
H2134 H 0.02588 0.44628 0.15592 0.0
H2135 H 0.08122 0.54559 0.20595 0.0
H2136 H 0.06082 0.53737 0.17699 0.0
H2137 H 0.07675 0.47603 0.18096 0.0
H2138 H 0.09733 0.48407 0.21009 0.0
H2139 H 0.03619 0.48116 0.17339 0.0
H2140 H 0.09893 0.50379 0.14783 0.0
H2141 H 0.12732 0.5273 0.1452 0.0
H2142 H 0.08864 0.57246 0.12511 0.0
H2143 H 0.05995 0.5493 0.12792 0.0
C2144 C 0.00345 0.4665 0.08324 0.0
C2145 C 0.99572 0.48224 0.07238 0.0
C2146 C 0.01526 0.47025 0.1 0.0
C2147 C 0.01932 0.4898 0.1066 0.0
C2148 C 0.01186 0.50555 0.09566 0.0
C2149 C 1.00024 0.50183 0.07874 0.0
C2150 C 0.03138 0.49384 0.12482 0.0
C2151 C 0.0477 0.50712 0.12384 0.0
C2152 C 0.02718 0.48438 0.14298 0.0
C2153 C 0.00942 0.4713 0.14554 0.0
C2154 C 0.99043 0.47819 0.14124 0.0
C2155 C 0.97376 0.46574 0.14356 0.0
C2156 C 0.97589 0.44641 0.1503 0.0
C2157 C 0.99468 0.43951 0.1548 0.0
C2158 C 0.0114 0.45189 0.15249 0.0
C2159 C 0.08036 0.53029 0.20082 0.0
C2160 C 0.09106 0.51551 0.21038 0.0
C2161 C 0.06871 0.52565 0.18417 0.0
C2162 C 0.06744 0.50614 0.17668 0.0
C2163 C 0.07759 0.4912 0.18647 0.0
C2164 C 0.08938 0.49585 0.20309 0.0
C2165 C 0.0558 0.5015 0.15842 0.0
C2166 C 0.03961 0.48813 0.15942 0.0
C2167 C 0.05998 0.51103 0.14035 0.0
C2168 C 0.07727 0.52485 0.13825 0.0
C2169 C 0.09646 0.51877 0.14297 0.0
C2170 C 0.11261 0.53203 0.14144 0.0
C2171 C 0.10978 0.55138 0.13504 0.0
C2172 C 0.0908 0.55747 0.13008 0.0
C2173 C 0.0746 0.54428 0.13163 0.0
H2174 H 0.1223 0.56163 0.13389 0.0
H2175 H 0.96297 0.43679 0.15209 0.0
H2176 H 0.36902 0.70837 0.19909 0.0
H2177 H 0.39623 0.71141 0.2231 0.0
H2178 H 0.35402 0.71265 0.27072 0.0
H2179 H 0.32689 0.70862 0.24672 0.0
H2180 H 0.40784 0.73789 0.24726 0.0
H2181 H 0.37282 0.69482 0.31296 0.0
H2182 H 0.3494 0.66677 0.31828 0.0
H2183 H 0.36258 0.64297 0.26076 0.0
H2184 H 0.38631 0.6707 0.25522 0.0
H2185 H 0.45763 0.76406 0.33526 0.0
H2186 H 0.43339 0.75659 0.30915 0.0
H2187 H 0.44917 0.69492 0.30986 0.0
H2188 H 0.47294 0.7024 0.33683 0.0
H2189 H 0.41106 0.69678 0.30738 0.0
H2190 H 0.46403 0.72712 0.27201 0.0
H2191 H 0.48979 0.75253 0.26481 0.0
H2192 H 0.44524 0.79619 0.25775 0.0
H2193 H 0.41922 0.7711 0.26517 0.0
C2194 C 0.36562 0.70927 0.2147 0.0
C2195 C 0.34592 0.70818 0.2211 0.0
C2196 C 0.38115 0.711 0.22842 0.0
C2197 C 0.37728 0.71195 0.24881 0.0
C2198 C 0.3575 0.71138 0.25515 0.0
C2199 C 0.34199 0.70922 0.24145 0.0
C2200 C 0.39389 0.71402 0.26335 0.0
C2201 C 0.40855 0.72881 0.26034 0.0
C2202 C 0.39519 0.70193 0.28027 0.0
C2203 C 0.38119 0.68498 0.2836 0.0
C2204 C 0.3708 0.68356 0.30149 0.0
C2205 C 0.35745 0.66771 0.30453 0.0
C2206 C 0.35445 0.65314 0.28984 0.0
C2207 C 0.36486 0.65431 0.2721 0.0
C2208 C 0.37825 0.6701 0.269 0.0
C2209 C 0.45572 0.74888 0.32997 0.0
C2210 C 0.46654 0.73366 0.33842 0.0
C2211 C 0.4421 0.74465 0.31483 0.0
C2212 C 0.43951 0.7252 0.30735 0.0
C2213 C 0.45081 0.71003 0.31544 0.0
C2214 C 0.46439 0.71427 0.33076 0.0
C2215 C 0.42475 0.72082 0.29138 0.0
C2216 C 0.41042 0.70569 0.29417 0.0
C2217 C 0.4241 0.73214 0.27392 0.0
C2218 C 0.43968 0.74725 0.26927 0.0
C2219 C 0.45973 0.74217 0.26902 0.0
C2220 C 0.47438 0.75651 0.2649 0.0
C2221 C 0.46915 0.77596 0.26086 0.0
C2222 C 0.44926 0.78111 0.26089 0.0
C2223 C 0.43456 0.76683 0.26503 0.0
H2224 H 0.48052 0.78705 0.25767 0.0
H2225 H 0.34408 0.64091 0.29221 0.0
H2226 H 0.94758 0.4283 0.01348 0.0
H2227 H 0.95414 0.39874 0.99337 0.0
H2228 H 0.01554 0.41705 0.98908 0.0
H2229 H 0.00903 0.44678 0.00914 0.0
H2230 H 0.9991 0.40318 0.95285 0.0
H2231 H 0.00449 0.38185 0.01973 0.0
H2232 H 0.99386 0.37793 0.05428 0.0
H2233 H 0.94225 0.34456 0.03467 0.0
H2234 H 0.95242 0.34854 0.99996 0.0
H2235 H 0.02216 0.30793 0.91065 0.0
H2236 H 0.02339 0.3376 0.93216 0.0
H2237 H 0.96274 0.3262 0.94889 0.0
H2238 H 0.96145 0.29666 0.92799 0.0
H2239 H 0.98382 0.33671 0.98031 0.0
H2240 H 0.97605 0.36105 0.91383 0.0
H2241 H 0.98562 0.36536 0.879 0.0
H2242 H 0.04066 0.3932 0.89753 0.0
H2243 H 0.0315 0.38881 0.93249 0.0
C2244 C 0.96243 0.42614 0.00809 0.0
C2245 C 0.9778 0.43984 0.01293 0.0
C2246 C 0.96619 0.40918 0.99672 0.0
C2247 C 0.98537 0.4056 0.98988 0.0
C2248 C 1.00065 0.41949 0.99425 0.0
C2249 C 0.99694 0.43639 0.0058 0.0
C2250 C 0.98939 0.38715 0.97847 0.0
C2251 C 0.9961 0.38862 0.95894 0.0
C2252 C 0.98526 0.36818 0.98636 0.0
C2253 C 0.97915 0.36563 0.00723 0.0
C2254 C 0.9908 0.3738 0.02277 0.0
C2255 C 0.98487 0.37155 0.04239 0.0
C2256 C 0.96737 0.36103 0.04666 0.0
C2257 C 0.95579 0.35271 0.03133 0.0
C2258 C 0.96164 0.35495 0.01168 0.0
C2259 C 0.00914 0.31167 0.91902 0.0
C2260 C 0.99171 0.29984 0.91748 0.0
C2261 C 0.00984 0.3287 0.93125 0.0
C2262 C 0.99309 0.33426 0.94204 0.0
C2263 C 0.97588 0.32224 0.94079 0.0
C2264 C 0.97517 0.30531 0.9287 0.0
C2265 C 0.99302 0.35269 0.95445 0.0
C2266 C 0.98707 0.35124 0.97424 0.0
C2267 C 0.99773 0.37166 0.94674 0.0
C2268 C 1.0032 0.37438 0.92576 0.0
C2269 C 0.99026 0.36795 0.91047 0.0
C2270 C 0.9956 0.37043 0.89071 0.0
C2271 C 0.01377 0.37949 0.88606 0.0
C2272 C 0.02661 0.38615 0.90116 0.0
C2273 C 0.02135 0.38367 0.92095 0.0
H2274 H 0.01787 0.3814 0.87075 0.0
H2275 H 0.9628 0.3593 0.06186 0.0
H2276 H 0.67662 0.78015 0.24165 0.0
H2277 H 0.65044 0.7757 0.26605 0.0
H2278 H 0.62756 0.8329 0.25132 0.0
H2279 H 0.65452 0.83776 0.22759 0.0
H2280 H 0.62485 0.82921 0.28861 0.0
H2281 H 0.60541 0.78699 0.23469 0.0
H2282 H 0.6088 0.7612 0.20879 0.0
H2283 H 0.61884 0.71761 0.25316 0.0
H2284 H 0.61579 0.7432 0.27933 0.0
H2285 H 0.52941 0.80115 0.33238 0.0
H2286 H 0.55545 0.81101 0.30904 0.0
H2287 H 0.59366 0.76715 0.33325 0.0
H2288 H 0.56805 0.75753 0.35682 0.0
H2289 H 0.58626 0.76562 0.28991 0.0
H2290 H 0.60578 0.81081 0.34365 0.0
H2291 H 0.59965 0.8376 0.36789 0.0
H2292 H 0.58543 0.87692 0.3208 0.0
H2293 H 0.59119 0.85025 0.29627 0.0
C2294 C 0.66595 0.79172 0.24362 0.0
C2295 C 0.66742 0.8092 0.23265 0.0
C2296 C 0.65092 0.78916 0.2575 0.0
C2297 C 0.63664 0.80375 0.26026 0.0
C2298 C 0.6383 0.82137 0.24945 0.0
C2299 C 0.65363 0.82413 0.23586 0.0
C2300 C 0.62013 0.80054 0.27447 0.0
C2301 C 0.61624 0.8154 0.28864 0.0
C2302 C 0.60878 0.78255 0.27466 0.0
C2303 C 0.61053 0.76706 0.25897 0.0
C2304 C 0.60847 0.77193 0.23892 0.0
C2305 C 0.61031 0.75734 0.22419 0.0
C2306 C 0.61407 0.73779 0.22932 0.0
C2307 C 0.61594 0.73277 0.2492 0.0
C2308 C 0.61414 0.7473 0.264 0.0
C2309 C 0.5435 0.79387 0.33296 0.0
C2310 C 0.54667 0.77855 0.34643 0.0
C2311 C 0.55833 0.79951 0.31962 0.0
C2312 C 0.57641 0.78973 0.31941 0.0
C2313 C 0.57978 0.77484 0.33319 0.0
C2314 C 0.56515 0.76944 0.3467 0.0
C2315 C 0.59142 0.79406 0.30411 0.0
C2316 C 0.59488 0.77943 0.2897 0.0
C2317 C 0.60197 0.8124 0.30341 0.0
C2318 C 0.59869 0.82847 0.31815 0.0
C2319 C 0.60116 0.82511 0.33847 0.0
C2320 C 0.5978 0.84028 0.35226 0.0
C2321 C 0.59209 0.85893 0.3459 0.0
C2322 C 0.58981 0.86246 0.32571 0.0
C2323 C 0.59314 0.84732 0.31186 0.0
H2324 H 0.58948 0.87065 0.3566 0.0
H2325 H 0.6155 0.72651 0.21789 0.0
H2326 H 0.06799 0.09226 0.01556 0.0
H2327 H 0.05996 0.11935 0.99358 0.0
H2328 H 0.99775 0.10513 0.99981 0.0
H2329 H 0.0057 0.07732 0.02091 0.0
H2330 H 0.00521 0.11279 0.96286 0.0
H2331 H 0.02116 0.14537 0.02463 0.0
H2332 H 0.04161 0.15382 0.05404 0.0
H2333 H 0.08761 0.17723 0.01689 0.0
H2334 H 0.06754 0.16867 0.98724 0.0
H2335 H 0.96807 0.20291 0.92654 0.0
H2336 H 0.97699 0.17598 0.94838 0.0
H2337 H 0.03872 0.18682 0.93574 0.0
H2338 H 0.02999 0.21387 0.91386 0.0
H2339 H 0.03186 0.1811 0.97561 0.0
H2340 H 0.01491 0.14872 0.91379 0.0
H2341 H 0.99357 0.14091 0.88487 0.0
H2342 H 0.94832 0.11764 0.92298 0.0
H2343 H 0.96929 0.1256 0.95218 0.0
C2344 C 0.0526 0.09472 0.01209 0.0
C2345 C 0.0375 0.08258 0.02011 0.0
C2346 C 0.04801 0.11041 0.99969 0.0
C2347 C 0.02822 0.11454 0.99525 0.0
C2348 C 0.01313 0.10234 1.00307 0.0
C2349 C 0.01771 0.08654 0.01533 0.0
C2350 C 0.02321 0.13144 0.98234 0.0
C2351 C 0.01085 0.12776 0.96584 0.0
C2352 C 0.03085 0.15096 0.9859 0.0
C2353 C 0.04292 0.15619 0.00371 0.0
C2354 C 0.0357 0.15218 0.02273 0.0
C2355 C 0.04721 0.15702 0.03944 0.0
C2356 C 0.06592 0.16601 0.03733 0.0
C2357 C 0.07313 0.17024 0.0185 0.0
C2358 C 0.06169 0.16541 1.00174 0.0
C2359 C 0.98357 0.19967 0.92842 0.0
C2360 C 0.9983 0.21057 0.91834 0.0
C2361 C 0.98863 0.18419 0.94088 0.0
C2362 C 0.00851 0.17926 0.94354 0.0
C2363 C 0.02329 0.19035 0.93386 0.0
C2364 C 0.01824 0.20577 0.9213 0.0
C2365 C 0.01384 0.16241 0.95628 0.0
C2366 C 0.02626 0.1661 0.97269 0.0
C2367 C 0.00614 0.14294 0.95273 0.0
C2368 C 0.9936 0.13793 0.93518 0.0
C2369 C 1.00035 0.14208 0.91602 0.0
C2370 C 0.98833 0.1376 0.89957 0.0
C2371 C 0.96958 0.12883 0.90209 0.0
C2372 C 0.96284 0.12446 0.92106 0.0
C2373 C 0.97479 0.12893 0.93756 0.0
H2374 H 0.96029 0.12539 0.88934 0.0
H2375 H 0.07481 0.16974 0.05029 0.0
H2376 H 0.33056 0.32569 0.26051 0.0
H2377 H 0.3574 0.32086 0.23732 0.0
H2378 H 0.39249 0.29536 0.28351 0.0
H2379 H 0.36647 0.30188 0.30726 0.0
H2380 H 0.41586 0.31549 0.26235 0.0
H2381 H 0.36486 0.26692 0.24664 0.0
H2382 H 0.33124 0.25456 0.23784 0.0
H2383 H 0.33314 0.28783 0.1842 0.0
H2384 H 0.3667 0.30058 0.19281 0.0
H2385 H 0.4683 0.24494 0.2016 0.0
H2386 H 0.44446 0.26037 0.22372 0.0
H2387 H 0.43752 0.30801 0.18264 0.0
H2388 H 0.46201 0.29293 0.1606 0.0
H2389 H 0.4006 0.28025 0.19894 0.0
H2390 H 0.45507 0.32583 0.21582 0.0
H2391 H 0.48955 0.33378 0.2258 0.0
H2392 H 0.48157 0.30057 0.27897 0.0
H2393 H 0.44712 0.29215 0.26914 0.0
C2394 C 0.34411 0.31947 0.26595 0.0
C2395 C 0.34613 0.31408 0.2859 0.0
C2396 C 0.35941 0.3164 0.2525 0.0
C2397 C 0.37689 0.30728 0.25846 0.0
C2398 C 0.37914 0.3023 0.27842 0.0
C2399 C 0.36405 0.30578 0.29199 0.0
C2400 C 0.39264 0.3025 0.2439 0.0
C2401 C 0.41244 0.30772 0.24854 0.0
C2402 C 0.38836 0.29252 0.22568 0.0
C2403 C 0.36818 0.28489 0.22048 0.0
C2404 C 0.35804 0.27172 0.23304 0.0
C2405 C 0.33901 0.26462 0.22808 0.0
C2406 C 0.33003 0.27046 0.21051 0.0
C2407 C 0.3401 0.28336 0.19783 0.0
C2408 C 0.35913 0.29052 0.20273 0.0
C2409 C 0.46193 0.25887 0.1974 0.0
C2410 C 0.467 0.26777 0.1794 0.0
C2411 C 0.44835 0.26765 0.21006 0.0
C2412 C 0.4393 0.28529 0.20479 0.0
C2413 C 0.44448 0.29442 0.18696 0.0
C2414 C 0.45848 0.28587 0.17446 0.0
C2415 C 0.42353 0.29324 0.21751 0.0
C2416 C 0.40382 0.28839 0.2126 0.0
C2417 C 0.42792 0.30306 0.23565 0.0
C2418 C 0.44859 0.30819 0.24164 0.0
C2419 C 0.46073 0.32005 0.22954 0.0
C2420 C 0.48026 0.32468 0.23519 0.0
C2421 C 0.48777 0.31764 0.25298 0.0
C2422 C 0.47575 0.30599 0.26518 0.0
C2423 C 0.45621 0.3013 0.25958 0.0
H2424 H 0.50289 0.32125 0.25733 0.0
H2425 H 0.3153 0.26494 0.20669 0.0
H2426 H 0.56306 0.43139 0.00811 0.0
H2427 H 0.55615 0.40286 0.02871 0.0
H2428 H 0.49359 0.40835 0.01782 0.0
H2429 H 0.50029 0.43803 0.99844 0.0
H2430 H 0.49815 0.40004 0.05419 0.0
H2431 H 0.52265 0.37113 0.99508 0.0
H2432 H 0.54538 0.36618 0.96717 0.0
H2433 H 0.59179 0.35141 0.00758 0.0
H2434 H 0.56943 0.35654 0.03576 0.0
H2435 H 0.48017 0.2999 0.09066 0.0
H2436 H 0.4826 0.32853 0.06863 0.0
H2437 H 0.54211 0.34105 0.08939 0.0
H2438 H 0.53967 0.31289 0.11168 0.0
H2439 H 0.53633 0.33859 0.04621 0.0
H2440 H 0.50998 0.36971 0.10534 0.0
H2441 H 0.48544 0.37335 0.13188 0.0
H2442 H 0.43977 0.38181 0.08862 0.0
H2443 H 0.46402 0.37792 0.0618 0.0
C2444 C 0.54778 0.42679 0.01026 0.0
C2445 C 0.53226 0.43721 1.00156 0.0
C2446 C 0.54385 0.41016 0.02183 0.0
C2447 C 0.52434 0.40309 0.02457 0.0
C2448 C 0.50879 0.41339 0.01588 0.0
C2449 C 0.51268 0.43027 0.00457 0.0
C2450 C 0.52026 0.38528 0.0369 0.0
C2451 C 0.50628 0.3865 0.05215 0.0
C2452 C 0.53088 0.36754 0.03446 0.0
C2453 C 0.54439 0.36438 0.01755 0.0
C2454 C 0.53774 0.36696 0.99803 0.0
C2455 C 0.55056 0.3641 0.98216 0.0
C2456 C 0.57003 0.35853 0.9856 0.0
C2457 C 0.57671 0.35575 0.00493 0.0
C2458 C 0.56396 0.35861 0.02086 0.0
C2459 C 0.49369 0.30888 0.09065 0.0
C2460 C 0.50971 0.30416 0.10293 0.0
C2461 C 0.49505 0.3252 0.07807 0.0
C2462 C 0.51255 0.33685 0.07738 0.0
C2463 C 0.52849 0.33222 0.08969 0.0
C2464 C 0.52702 0.31617 0.10249 0.0
C2465 C 0.51458 0.35362 0.06352 0.0
C2466 C 0.52813 0.35212 0.048 0.0
C2467 C 0.5033 0.37089 0.06546 0.0
C2468 C 0.48876 0.37328 0.08157 0.0
C2469 C 0.49467 0.37214 0.10148 0.0
C2470 C 0.48082 0.3743 0.11658 0.0
C2471 C 0.46104 0.37774 0.11194 0.0
C2472 C 0.45509 0.3791 0.09219 0.0
C2473 C 0.46888 0.37693 0.07704 0.0
H2474 H 0.45035 0.37941 0.12364 0.0
H2475 H 0.57992 0.35632 0.9733 0.0
H2476 H 0.65049 0.20302 0.30904 0.0
H2477 H 0.62338 0.20762 0.2853 0.0
H2478 H 0.66553 0.21148 0.23787 0.0
H2479 H 0.69265 0.20639 0.26148 0.0
H2480 H 0.63486 0.24352 0.2414 0.0
H2481 H 0.64258 0.17227 0.23773 0.0
H2482 H 0.64481 0.13899 0.25211 0.0
H2483 H 0.5868 0.14442 0.27678 0.0
H2484 H 0.58436 0.17789 0.2628 0.0
H2485 H 0.56745 0.24286 0.16074 0.0
H2486 H 0.59519 0.23738 0.18319 0.0
H2487 H 0.55513 0.21041 0.22504 0.0
H2488 H 0.52758 0.21486 0.20211 0.0
H2489 H 0.58564 0.18998 0.22446 0.0
H2490 H 0.57653 0.2599 0.23023 0.0
H2491 H 0.57306 0.29421 0.21876 0.0
H2492 H 0.63133 0.2932 0.19396 0.0
H2493 H 0.63506 0.25878 0.20506 0.0
C2494 C 0.65391 0.20476 0.29352 0.0
C2495 C 0.67359 0.20428 0.28702 0.0
C2496 C 0.63847 0.20737 0.28002 0.0
C2497 C 0.64251 0.20989 0.25988 0.0
C2498 C 0.66216 0.20956 0.25337 0.0
C2499 C 0.67757 0.20655 0.26681 0.0
C2500 C 0.62617 0.21298 0.24565 0.0
C2501 C 0.62421 0.23179 0.23742 0.0
C2502 C 0.61197 0.19783 0.2411 0.0
C2503 C 0.61338 0.17766 0.2494 0.0
C2504 C 0.63038 0.16645 0.24638 0.0
C2505 C 0.63167 0.14753 0.25442 0.0
C2506 C 0.61598 0.13961 0.2654 0.0
C2507 C 0.59896 0.15058 0.2683 0.0
C2508 C 0.59761 0.16952 0.26031 0.0
C2509 C 0.56458 0.23583 0.17477 0.0
C2510 C 0.54533 0.22936 0.1797 0.0
C2511 C 0.58044 0.23279 0.18767 0.0
C2512 C 0.5773 0.22379 0.20606 0.0
C2513 C 0.55803 0.21737 0.21098 0.0
C2514 C 0.54226 0.21997 0.19788 0.0
C2515 C 0.59409 0.22069 0.22002 0.0
C2516 C 0.59619 0.20183 0.2283 0.0
C2517 C 0.60816 0.23598 0.22497 0.0
C2518 C 0.60599 0.25669 0.2183 0.0
C2519 C 0.58855 0.26695 0.2222 0.0
C2520 C 0.58654 0.28642 0.21579 0.0
C2521 C 0.60194 0.29586 0.20559 0.0
C2522 C 0.61941 0.28586 0.20183 0.0
C2523 C 0.62148 0.26637 0.2082 0.0
H2524 H 0.60036 0.31093 0.20064 0.0
H2525 H 0.617 0.12497 0.27161 0.0
H2526 H 0.49933 0.09099 0.97737 0.0
H2527 H 0.50694 0.12019 0.99797 0.0
H2528 H 0.4838 0.08982 0.04889 0.0
H2529 H 0.47749 0.06005 0.0287 0.0
H2530 H 0.48509 0.14409 0.01673 0.0
H2531 H 0.50484 0.1073 0.09113 0.0
H2532 H 0.52028 0.07693 0.10313 0.0
H2533 H 0.55222 0.07146 0.04874 0.0
H2534 H 0.53719 0.10194 0.03653 0.0
H2535 H 0.47874 0.21405 0.09506 0.0
H2536 H 0.47581 0.18541 0.07251 0.0
H2537 H 0.53835 0.17555 0.07938 0.0
H2538 H 0.54095 0.20372 0.10277 0.0
H2539 H 0.52037 0.14206 0.08114 0.0
H2540 H 0.5169 0.19543 0.03597 0.0
H2541 H 0.50488 0.22676 0.02251 0.0
H2542 H 0.44662 0.2006 0.01547 0.0
H2543 H 0.45823 0.16919 0.02913 0.0
C2544 C 0.49629 0.09028 0.99304 0.0
C2545 C 0.48788 0.07299 1.00132 0.0
C2546 C 0.50043 0.10715 0.00478 0.0
C2547 C 0.49613 0.10725 0.02507 0.0
C2548 C 0.48762 0.09008 0.03337 0.0
C2549 C 0.48375 0.07309 0.0217 0.0
C2550 C 0.50006 0.12547 0.03737 0.0
C2551 C 0.49283 0.14361 0.03081 0.0
C2552 C 0.51048 0.12506 0.0556 0.0
C2553 C 0.51973 0.10679 0.06285 0.0
C2554 C 0.51521 0.09965 0.08177 0.0
C2555 C 0.52389 0.08242 0.0886 0.0
C2556 C 0.53717 0.07224 0.07668 0.0
C2557 C 0.54187 0.07931 0.05792 0.0
C2558 C 0.53326 0.09656 0.05103 0.0
C2559 C 0.49177 0.20556 0.09189 0.0
C2560 C 0.50988 0.21045 0.10117 0.0
C2561 C 0.49019 0.18941 0.07874 0.0
C2562 C 0.50688 0.17827 0.0741 0.0
C2563 C 0.5252 0.18375 0.08283 0.0
C2564 C 0.52672 0.19983 0.09612 0.0
C2565 C 0.50508 0.16058 0.06069 0.0
C2566 C 0.51265 0.14253 0.06707 0.0
C2567 C 0.49543 0.16118 0.04206 0.0
C2568 C 0.48841 0.18 0.0337 0.0
C2569 C 0.5015 0.1964 0.03165 0.0
C2570 C 0.49476 0.21416 0.02398 0.0
C2571 C 0.47499 0.21568 0.01817 0.0
C2572 C 0.46193 0.19941 0.01998 0.0
C2573 C 0.46859 0.18161 0.02767 0.0
H2574 H 0.4698 0.22945 0.01224 0.0
H2575 H 0.54386 0.05889 0.08199 0.0
H2576 H 0.25543 0.3272 0.69861 0.0
H2577 H 0.2795 0.35438 0.7043 0.0
H2578 H 0.23245 0.39295 0.72145 0.0
H2579 H 0.20818 0.36604 0.71503 0.0
H2580 H 0.25856 0.41261 0.69937 0.0
H2581 H 0.26112 0.37156 0.75636 0.0
H2582 H 0.26441 0.34047 0.77474 0.0
H2583 H 0.32283 0.33354 0.75152 0.0
H2584 H 0.31973 0.3644 0.73273 0.0
H2585 H 0.34065 0.45998 0.76985 0.0
H2586 H 0.31483 0.43492 0.76235 0.0
H2587 H 0.32208 0.44555 0.69995 0.0
H2588 H 0.34724 0.4715 0.70769 0.0
H2589 H 0.31417 0.40191 0.74576 0.0
H2590 H 0.28024 0.43432 0.67428 0.0
H2591 H 0.27439 0.46701 0.65968 0.0
H2592 H 0.27496 0.49403 0.71757 0.0
H2593 H 0.28056 0.46148 0.73253 0.0
C2594 C 0.25015 0.34154 0.70332 0.0
C2595 C 0.22986 0.3444 0.70645 0.0
C2596 C 0.26396 0.35702 0.70674 0.0
C2597 C 0.25781 0.37564 0.71354 0.0
C2598 C 0.23755 0.3787 0.71625 0.0
C2599 C 0.22371 0.36323 0.71278 0.0
C2600 C 0.27257 0.39173 0.71838 0.0
C2601 C 0.27085 0.41026 0.70938 0.0
C2602 C 0.28829 0.38886 0.73186 0.0
C2603 C 0.29014 0.37021 0.74303 0.0
C2604 C 0.2746 0.36332 0.75506 0.0
C2605 C 0.27644 0.34574 0.76556 0.0
C2606 C 0.29381 0.33501 0.76427 0.0
C2607 C 0.30938 0.34185 0.75249 0.0
C2608 C 0.3076 0.35939 0.74193 0.0
C2609 C 0.33667 0.45691 0.75454 0.0
C2610 C 0.34609 0.46729 0.73929 0.0
C2611 C 0.32193 0.4426 0.75024 0.0
C2612 C 0.3163 0.43834 0.73057 0.0
C2613 C 0.32578 0.44879 0.71527 0.0
C2614 C 0.34026 0.46347 0.71964 0.0
C2615 C 0.30077 0.42273 0.72622 0.0
C2616 C 0.30222 0.40427 0.73542 0.0
C2617 C 0.28457 0.42588 0.71332 0.0
C2618 C 0.28103 0.44549 0.70449 0.0
C2619 C 0.27905 0.44723 0.68389 0.0
C2620 C 0.27579 0.46573 0.67555 0.0
C2621 C 0.27437 0.48259 0.68769 0.0
C2622 C 0.27614 0.48097 0.70819 0.0
C2623 C 0.27938 0.4625 0.7166 0.0
H2624 H 0.27186 0.4969 0.6812 0.0
H2625 H 0.29521 0.32142 0.77242 0.0
H2626 H 0.2418 0.67673 0.78233 0.0
H2627 H 0.26696 0.65166 0.77778 0.0
H2628 H 0.2491 0.62423 0.83237 0.0
H2629 H 0.22467 0.65008 0.83743 0.0
H2630 H 0.28648 0.62341 0.83091 0.0
H2631 H 0.2361 0.60475 0.78416 0.0
H2632 H 0.21232 0.60913 0.75687 0.0
H2633 H 0.26008 0.62371 0.7177 0.0
H2634 H 0.28414 0.61968 0.74483 0.0
H2635 H 0.33402 0.53117 0.804 0.0
H2636 H 0.3097 0.55624 0.81271 0.0
H2637 H 0.33528 0.59586 0.76984 0.0
H2638 H 0.35975 0.57118 0.76132 0.0
H2639 H 0.29309 0.58862 0.76626 0.0
H2640 H 0.34311 0.60687 0.81532 0.0
H2641 H 0.36549 0.60031 0.84327 0.0
H2642 H 0.31576 0.583 0.87885 0.0
H2643 H 0.2931 0.5892 0.85099 0.0
C2644 C 0.24326 0.66528 0.79329 0.0
C2645 C 0.23126 0.66518 0.81014 0.0
C2646 C 0.25755 0.65088 0.79066 0.0
C2647 C 0.25971 0.63568 0.80449 0.0
C2648 C 0.24775 0.63571 0.82144 0.0
C2649 C 0.23376 0.65041 0.8243 0.0
C2650 C 0.27455 0.61995 0.80136 0.0
C2651 C 0.28766 0.61561 0.81685 0.0
C2652 C 0.27633 0.60975 0.78299 0.0
C2653 C 0.26191 0.61208 0.76659 0.0
C2654 C 0.24152 0.60901 0.76976 0.0
C2655 C 0.22799 0.61142 0.75432 0.0
C2656 C 0.23468 0.61674 0.73558 0.0
C2657 C 0.25492 0.61961 0.73223 0.0
C2658 C 0.26851 0.61725 0.74763 0.0
C2659 C 0.33466 0.54535 0.79668 0.0
C2660 C 0.34881 0.54918 0.78197 0.0
C2661 C 0.32076 0.55964 0.80165 0.0
C2662 C 0.32067 0.57786 0.79185 0.0
C2663 C 0.33507 0.58187 0.77753 0.0
C2664 C 0.34911 0.56776 0.77276 0.0
C2665 C 0.305 0.5924 0.79567 0.0
C2666 C 0.29173 0.59642 0.78031 0.0
C2667 C 0.30282 0.60194 0.81425 0.0
C2668 C 0.31644 0.59828 0.831 0.0
C2669 C 0.33696 0.60149 0.82904 0.0
C2670 C 0.34969 0.59787 0.84488 0.0
C2671 C 0.34206 0.59118 0.86281 0.0
C2672 C 0.32166 0.58815 0.86495 0.0
C2673 C 0.30887 0.59172 0.84914 0.0
H2674 H 0.35193 0.5884 0.87505 0.0
H2675 H 0.22418 0.6186 0.72364 0.0
H2676 H 0.9261 0.53865 0.48446 0.0
H2677 H 0.89657 0.51861 0.49217 0.0
H2678 H 0.93182 0.46612 0.49383 0.0
H2679 H 0.9612 0.48612 0.48504 0.0
H2680 H 0.89978 0.45678 0.47638 0.0
H2681 H 0.91345 0.49104 0.53709 0.0
H2682 H 0.92095 0.5199 0.55896 0.0
H2683 H 0.8652 0.54494 0.5438 0.0
H2684 H 0.85748 0.51637 0.5216 0.0
H2685 H 0.81903 0.40081 0.51782 0.0
H2686 H 0.85061 0.41979 0.51952 0.0
H2687 H 0.82242 0.4702 0.49413 0.0
H2688 H 0.79113 0.45113 0.49179 0.0
H2689 H 0.85221 0.47828 0.5275 0.0
H2690 H 0.8422 0.44483 0.46325 0.0
H2691 H 0.83544 0.41514 0.44231 0.0
H2692 H 0.88602 0.38705 0.46713 0.0
H2693 H 0.89291 0.41653 0.48842 0.0
C2694 C 0.92749 0.52283 0.48652 0.0
C2695 C 0.94588 0.5139 0.48424 0.0
C2696 C 0.91065 0.51139 0.49109 0.0
C2697 C 0.91195 0.49085 0.4941 0.0
C2698 C 0.93037 0.48192 0.49168 0.0
C2699 C 0.94715 0.49331 0.48667 0.0
C2700 C 0.89397 0.47866 0.49908 0.0
C2701 C 0.88967 0.46135 0.48786 0.0
C2702 C 0.88053 0.48454 0.51397 0.0
C2703 C 0.88495 0.50161 0.52756 0.0
C2704 C 0.90283 0.50275 0.53834 0.0
C2705 C 0.90712 0.51906 0.55079 0.0
C2706 C 0.89358 0.53426 0.55273 0.0
C2707 C 0.87568 0.53315 0.54227 0.0
C2708 C 0.87133 0.51689 0.52977 0.0
C2709 C 0.8195 0.41612 0.51314 0.0
C2710 C 0.80272 0.42457 0.5047 0.0
C2711 C 0.83751 0.4269 0.51404 0.0
C2712 C 0.83879 0.44637 0.50692 0.0
C2713 C 0.82169 0.45524 0.49979 0.0
C2714 C 0.80387 0.44435 0.49843 0.0
C2715 C 0.85821 0.45675 0.50469 0.0
C2716 C 0.86266 0.47368 0.51633 0.0
C2717 C 0.87198 0.45038 0.49046 0.0
C2718 C 0.86792 0.43275 0.47759 0.0
C2719 C 0.85176 0.43224 0.46438 0.0
C2720 C 0.84793 0.41547 0.45242 0.0
C2721 C 0.86025 0.39918 0.45344 0.0
C2722 C 0.87646 0.39966 0.46639 0.0
C2723 C 0.88034 0.4164 0.47839 0.0
H2724 H 0.8573 0.38622 0.44415 0.0
H2725 H 0.89694 0.54689 0.56236 0.0
H2726 H 0.80553 0.87245 0.80762 0.0
H2727 H 0.78062 0.89775 0.80253 0.0
H2728 H 0.73455 0.85228 0.80206 0.0
H2729 H 0.75938 0.82694 0.80728 0.0
H2730 H 0.7325 0.87947 0.77023 0.0
H2731 H 0.73898 0.88013 0.84124 0.0
H2732 H 0.75742 0.88262 0.87278 0.0
H2733 H 0.77836 0.94126 0.85819 0.0
H2734 H 0.76026 0.939 0.8264 0.0
H2735 H 0.65057 0.94177 0.76985 0.0
H2736 H 0.67395 0.91633 0.77888 0.0
H2737 H 0.71801 0.96192 0.79309 0.0
H2738 H 0.69428 0.98743 0.78498 0.0
H2739 H 0.7212 0.9342 0.81837 0.0
H2740 H 0.71701 0.93433 0.74771 0.0
H2741 H 0.70058 0.9327 0.71504 0.0
H2742 H 0.67799 0.87404 0.72718 0.0
H2743 H 0.69407 0.87542 0.76004 0.0
C2744 C 0.79008 0.86788 0.80644 0.0
C2745 C 0.78438 0.84775 0.80789 0.0
C2746 C 0.77588 0.88233 0.80363 0.0
C2747 C 0.75573 0.87689 0.80202 0.0
C2748 C 0.75001 0.85679 0.80332 0.0
C2749 C 0.76418 0.84236 0.8064 0.0
C2750 C 0.74066 0.89213 0.79859 0.0
C2751 C 0.72979 0.89129 0.78086 0.0
C2752 C 0.73763 0.90788 0.8122 0.0
C2753 C 0.74842 0.90931 0.83135 0.0
C2754 C 0.74765 0.89349 0.84467 0.0
C2755 C 0.75801 0.89487 0.86261 0.0
C2756 C 0.76909 0.91207 0.86746 0.0
C2757 C 0.76979 0.92794 0.8544 0.0
C2758 C 0.75947 0.92662 0.83643 0.0
C2759 C 0.66519 0.94637 0.77507 0.0
C2760 C 0.67063 0.9666 0.77659 0.0
C2761 C 0.67862 0.9318 0.7801 0.0
C2762 C 0.69799 0.93712 0.7862 0.0
C2763 C 0.70322 0.95737 0.78835 0.0
C2764 C 0.68965 0.97196 0.78369 0.0
C2765 C 0.71288 0.92162 0.78993 0.0
C2766 C 0.7238 0.9224 0.8077 0.0
C2767 C 0.71622 0.90597 0.77618 0.0
C2768 C 0.70658 0.90507 0.75641 0.0
C2769 C 0.70842 0.92114 0.74347 0.0
C2770 C 0.69919 0.92025 0.72491 0.0
C2771 C 0.6882 0.9033 0.71906 0.0
C2772 C 0.68647 0.88717 0.73174 0.0
C2773 C 0.69566 0.888 0.75033 0.0
H2774 H 0.68107 0.90264 0.70469 0.0
H2775 H 0.77711 0.91311 0.88136 0.0
H2776 H 0.55934 0.52602 0.98544 0.0
H2777 H 0.58881 0.54705 0.99213 0.0
H2778 H 0.62337 0.49489 1.00045 0.0
H2779 H 0.59405 0.47379 0.99351 0.0
H2780 H 0.61388 0.55049 0.0247 0.0
H2781 H 0.66946 0.5048 0.98065 0.0
H2782 H 0.67002 0.48114 0.95245 0.0
H2783 H 0.61831 0.50732 0.92783 0.0
H2784 H 0.61761 0.53128 0.95571 0.0
H2785 H 0.7083 0.59994 0.0392 0.0
H2786 H 0.68077 0.57597 0.03841 0.0
H2787 H 0.6794 0.5786 0.97461 0.0
H2788 H 0.7093 0.59951 0.97563 0.0
H2789 H 0.67214 0.54522 0.98101 0.0
H2790 H 0.63162 0.60062 0.01631 0.0
H2791 H 0.62798 0.62447 0.04414 0.0
H2792 H 0.64579 0.57998 0.08492 0.0
H2793 H 0.64936 0.55601 0.05724 0.0
C2794 C 0.57323 0.51904 0.98868 0.0
C2795 C 0.57438 0.49825 0.98888 0.0
C2796 C 0.59 0.53107 0.99264 0.0
C2797 C 0.6083 0.52254 0.99666 0.0
C2798 C 0.60943 0.50179 0.99724 0.0
C2799 C 0.59264 0.48976 0.9934 0.0
C2800 C 0.62628 0.53539 0.99965 0.0
C2801 C 0.62662 0.54948 0.01508 0.0
C2802 C 0.64298 0.53386 0.98733 0.0
C2803 C 0.64336 0.51965 0.97039 0.0
C2804 C 0.65825 0.50552 0.96918 0.0
C2805 C 0.65859 0.49207 0.95326 0.0
C2806 C 0.64417 0.49268 0.9384 0.0
C2807 C 0.62942 0.5068 0.93939 0.0
C2808 C 0.62903 0.5203 0.95527 0.0
C2809 C 0.70193 0.59546 0.02504 0.0
C2810 C 0.71014 0.60261 0.00742 0.0
C2811 C 0.68577 0.58201 0.02459 0.0
C2812 C 0.6769 0.57597 0.00652 0.0
C2813 C 0.68551 0.58297 0.98891 0.0
C2814 C 0.70233 0.59548 0.9894 0.0
C2815 C 0.65959 0.56151 0.00549 0.0
C2816 C 0.65944 0.54665 0.99058 0.0
C2817 C 0.64297 0.56245 0.01823 0.0
C2818 C 0.64156 0.57695 0.03469 0.0
C2819 C 0.63522 0.59621 0.03116 0.0
C2820 C 0.63298 0.60963 0.04691 0.0
C2821 C 0.63699 0.60385 0.06625 0.0
C2822 C 0.6429 0.58453 0.06991 0.0
C2823 C 0.64495 0.57101 0.05422 0.0
H2824 H 0.63531 0.61428 0.07841 0.0
H2825 H 0.64445 0.48225 0.9261 0.0
H2826 H 0.2787 0.67904 0.22755 0.0
H2827 H 0.25457 0.65199 0.23237 0.0
H2828 H 0.26457 0.6308 0.17281 0.0
H2829 H 0.28819 0.6585 0.16772 0.0
H2830 H 0.22754 0.62785 0.17957 0.0
H2831 H 0.28392 0.6074 0.21506 0.0
H2832 H 0.31198 0.61042 0.23847 0.0
H2833 H 0.27173 0.61857 0.28658 0.0
H2834 H 0.24342 0.6159 0.26341 0.0
H2835 H 0.16909 0.54007 0.20179 0.0
H2836 H 0.19481 0.56373 0.19149 0.0
H2837 H 0.19495 0.59084 0.24974 0.0
H2838 H 0.17129 0.5654 0.26059 0.0
H2839 H 0.22986 0.58742 0.24013 0.0
H2840 H 0.17718 0.62166 0.19781 0.0
H2841 H 0.15048 0.6194 0.1725 0.0
H2842 H 0.18667 0.58272 0.13591 0.0
H2843 H 0.21347 0.58502 0.16094 0.0
C2844 C 0.27576 0.66857 0.21551 0.0
C2845 C 0.28538 0.67075 0.19731 0.0
C2846 C 0.26206 0.65302 0.2183 0.0
C2847 C 0.25805 0.63899 0.20313 0.0
C2848 C 0.26745 0.64134 0.18479 0.0
C2849 C 0.28093 0.65715 0.18188 0.0
C2850 C 0.24373 0.62218 0.20636 0.0
C2851 C 0.22823 0.61885 0.19272 0.0
C2852 C 0.24456 0.61025 0.2234 0.0
C2853 C 0.26154 0.61158 0.23745 0.0
C2854 C 0.28105 0.60994 0.23061 0.0
C2855 C 0.297 0.61159 0.24384 0.0
C2856 C 0.29364 0.61472 0.26399 0.0
C2857 C 0.27431 0.61615 0.27096 0.0
C2858 C 0.2583 0.61455 0.25779 0.0
C2859 C 0.17442 0.55134 0.21224 0.0
C2860 C 0.16743 0.55157 0.23175 0.0
C2861 C 0.18896 0.56513 0.20625 0.0
C2862 C 0.19651 0.57977 0.21952 0.0
C2863 C 0.18934 0.57996 0.23902 0.0
C2864 C 0.17541 0.56571 0.24517 0.0
C2865 C 0.21298 0.59383 0.21392 0.0
C2866 C 0.22913 0.59645 0.22701 0.0
C2867 C 0.213 0.60481 0.19619 0.0
C2868 C 0.19688 0.603 0.18143 0.0
C2869 C 0.17916 0.61286 0.18449 0.0
C2870 C 0.16414 0.6117 0.17016 0.0
C2871 C 0.16677 0.6007 0.15274 0.0
C2872 C 0.18457 0.5911 0.14948 0.0
C2873 C 0.19969 0.59241 0.16367 0.0
H2874 H 0.1551 0.59974 0.14172 0.0
H2875 H 0.30602 0.61602 0.27421 0.0
H2876 H 0.93748 0.49578 0.99881 0.0
H2877 H 0.90884 0.51601 0.99256 0.0
H2878 H 0.90188 0.52562 0.05531 0.0
H2879 H 0.92944 0.50404 0.06175 0.0
H2880 H 0.86767 0.52051 0.0405 0.0
H2881 H 0.92334 0.56151 0.02223 0.0
H2882 H 0.9541 0.5703 0.00463 0.0
H2883 H 0.92366 0.56361 0.94892 0.0
H2884 H 0.89276 0.55453 0.96619 0.0
H2885 H 0.81252 0.6089 0.03795 0.0
H2886 H 0.84019 0.58644 0.04075 0.0
H2887 H 0.82916 0.565 0.98124 0.0
H2888 H 0.80102 0.58723 0.97843 0.0
H2889 H 0.87137 0.57543 0.99252 0.0
H2890 H 0.81475 0.53606 0.01319 0.0
H2891 H 0.78463 0.52959 0.03267 0.0
H2892 H 0.81836 0.53614 0.08649 0.0
H2893 H 0.84864 0.54296 0.06732 0.0
C2894 C 0.92971 0.50189 0.01135 0.0
C2895 C 0.936 0.49822 0.03083 0.0
C2896 C 0.91345 0.51379 0.00771 0.0
C2897 C 0.90333 0.52278 0.02342 0.0
C2898 C 0.90944 0.51901 0.04287 0.0
C2899 C 0.92546 0.50681 0.04654 0.0
C2900 C 0.8863 0.53596 0.01969 0.0
C2901 C 0.86865 0.53262 0.03015 0.0
C2902 C 0.88725 0.55165 0.00592 0.0
C2903 C 0.90579 0.55713 0.99549 0.0
C2904 C 0.92324 0.56177 0.00622 0.0
C2905 C 0.94069 0.56683 0.99631 0.0
C2906 C 0.94085 0.56746 0.97567 0.0
C2907 C 0.92353 0.56308 0.9649 0.0
C2908 C 0.90603 0.558 0.97475 0.0
C2909 C 0.816 0.5995 0.02539 0.0
C2910 C 0.80456 0.59983 0.00796 0.0
C2911 C 0.8318 0.58664 0.02705 0.0
C2912 C 0.83666 0.57402 0.01124 0.0
C2913 C 0.82562 0.57464 0.99361 0.0
C2914 C 0.80955 0.58729 0.99205 0.0
C2915 C 0.85306 0.55997 0.01345 0.0
C2916 C 0.87051 0.56319 1.00274 0.0
C2917 C 0.85209 0.54444 0.02727 0.0
C2918 C 0.83393 0.54021 0.03882 0.0
C2919 C 0.81571 0.5363 0.02918 0.0
C2920 C 0.79862 0.53253 0.04017 0.0
C2921 C 0.79957 0.5325 0.06081 0.0
C2922 C 0.81764 0.53619 0.0705 0.0
C2923 C 0.83478 0.53999 0.05958 0.0
H2924 H 0.78632 0.52958 0.06929 0.0
H2925 H 0.95437 0.57138 0.96802 0.0
H2926 H 0.08937 0.02167 0.06788 0.0
H2927 H 0.11691 1.00014 0.06058 0.0
H2928 H 0.10477 0.00475 0.99815 0.0
H2929 H 0.0764 0.02522 0.00537 0.0
H2930 H 0.11249 0.96833 0.0058 0.0
H2931 H 0.1442 0.03086 0.02246 0.0
H2932 H 0.15183 0.06064 0.04301 0.0
H2933 H 0.1734 0.02403 0.08945 0.0
H2934 H 0.16565 0.99399 0.06926 0.0
H2935 H 0.20378 0.93518 0.96921 0.0
H2936 H 0.17683 0.95663 0.9787 0.0
H2937 H 0.1849 0.94111 0.03977 0.0
H2938 H 0.21198 0.91945 0.03044 0.0
H2939 H 0.17951 0.98227 0.03384 0.0
H2940 H 0.14837 0.91965 0.01551 0.0
H2941 H 0.14193 0.89069 0.99349 0.0
H2942 H 0.12019 0.92887 0.94844 0.0
H2943 H 0.1268 0.95811 0.97009 0.0
C2944 C 0.09237 0.01793 0.05259 0.0
C2945 C 0.08058 0.02527 0.03723 0.0
C2946 C 0.10835 0.00581 0.04842 0.0
C2947 C 0.11319 1.00103 0.02878 0.0
C2948 C 0.10143 0.00827 0.01342 0.0
C2949 C 0.08531 0.0202 0.01758 0.0
C2950 C 0.13029 0.98825 0.02421 0.0
C2951 C 0.12717 0.97158 0.01176 0.0
C2952 C 0.14944 0.99214 0.03228 0.0
C2953 C 0.15416 0.01017 0.04443 0.0
C2954 C 0.15043 0.02915 0.03711 0.0
C2955 C 0.1548 0.04608 0.04868 0.0
C2956 C 0.16304 0.04422 0.06754 0.0
C2957 C 0.16699 0.02544 0.07485 0.0
C2958 C 0.16263 0.00846 0.06334 0.0
C2959 C 0.19997 0.93636 0.9847 0.0
C2960 C 0.21005 0.92547 0.99905 0.0
C2961 C 0.18448 0.94861 0.99008 0.0
C2962 C 0.17875 0.95032 0.00991 0.0
C2963 C 0.18909 0.93996 0.02437 0.0
C2964 C 0.20451 0.92753 0.01899 0.0
C2965 C 0.16164 0.96259 0.01537 0.0
C2966 C 0.16477 0.97909 0.02797 0.0
C2967 C 0.14256 0.95869 0.00727 0.0
C2968 C 0.13824 0.94109 0.99436 0.0
C2969 C 0.14234 0.92189 1.00086 0.0
C2970 C 0.13865 0.90542 0.98845 0.0
C2971 C 0.1307 0.90794 0.96956 0.0
C2972 C 0.12637 0.92694 0.96307 0.0
C2973 C 0.13006 0.94347 0.97541 0.0
H2974 H 0.12787 0.89517 0.95997 0.0
H2975 H 0.16642 0.05735 0.07648 0.0
loop_
_geom_bond_atom_site_label_1
_geom_bond_atom_site_label_2
_geom_bond_distance
_geom_bond_site_symmetry_2
_ccdc_geom_bond_type
H0 C3 0.931 . S
H1 C6 0.928 . S
H2 C8 0.930 . S
C3 H0 0.931 . S
C3 C4 1.413 . S
C3 C5 1.360 . S
C4 C3 1.413 . S
C4 C8 1.429 . S
C5 C3 1.360 . S
C5 C6 1.372 . S
C6 H1 0.928 . S
C6 C5 1.372 . S
C6 C7 1.404 . S
C7 C6 1.404 . S
C7 C8 1.391 . S
C8 H2 0.930 . S
C8 C4 1.429 . S
C8 C7 1.391 . S
H9 C12 0.931 . S
H10 C15 0.928 . S
H11 C17 0.930 . S
C12 H9 0.931 . S
C12 C13 1.413 . S
C12 C14 1.360 . S
C13 C12 1.413 . S
C13 C17 1.429 . S
C14 C12 1.360 . S
C14 C15 1.372 . S
C15 H10 0.928 . S
C15 C14 1.372 . S
C15 C16 1.404 . S
C16 C15 1.404 . S
C16 C17 1.391 . S
C17 H11 0.930 . S
C17 C13 1.429 . S
C17 C16 1.391 . S
H18 C21 0.931 . S
H19 C24 0.928 . S
H20 C26 0.930 . S
C21 H18 0.931 . S
C21 C22 1.413 . S
C21 C23 1.360 . S
C22 C21 1.413 . S
C22 C26 1.429 . S
C23 C21 1.360 . S
C23 C24 1.372 . S
C24 H19 0.928 . S
C24 C23 1.372 . S
C24 C25 1.404 . S
C25 C24 1.404 . S
C25 C26 1.391 . S
C26 H20 0.930 . S
C26 C22 1.429 . S
C26 C25 1.391 . S
H27 C30 0.931 . S
H28 C33 0.928 . S
H29 C35 0.930 . S
C30 H27 0.931 . S
C30 C31 1.413 . S
C30 C32 1.360 . S
C31 C30 1.413 . S
C31 C35 1.429 . S
C32 C30 1.360 . S
C32 C33 1.372 . S
C33 H28 0.928 . S
C33 C32 1.372 . S
C33 C34 1.404 . S
C34 C33 1.404 . S
C34 C35 1.391 . S
C35 H29 0.930 . S
C35 C31 1.429 . S
C35 C34 1.391 . S
H36 C39 0.931 . S
H37 C42 0.928 . S
H38 C44 0.930 . S
C39 H36 0.931 . S
C39 C40 1.413 . S
C39 C41 1.360 . S
C40 C39 1.413 . S
C40 C44 1.429 . S
C41 C39 1.360 . S
C41 C42 1.372 . S
C42 H37 0.928 . S
C42 C41 1.372 . S
C42 C43 1.404 . S
C43 C42 1.404 . S
C43 C44 1.391 . S
C44 H38 0.930 . S
C44 C40 1.429 . S
C44 C43 1.391 . S
H45 C48 0.931 . S
H46 C51 0.928 . S
H47 C53 0.930 . S
C48 H45 0.931 . S
C48 C49 1.413 . S
C48 C50 1.360 . S
C49 C48 1.413 . S
C49 C53 1.429 . S
C50 C48 1.360 . S
C50 C51 1.372 . S
C51 H46 0.928 . S
C51 C50 1.372 . S
C51 C52 1.404 . S
C52 C51 1.404 . S
C52 C53 1.391 . S
C53 H47 0.930 . S
C53 C49 1.429 . S
C53 C52 1.391 . S
H54 C57 0.931 . S
H55 C60 0.928 . S
H56 C62 0.930 . S
C57 H54 0.931 . S
C57 C58 1.413 . S
C57 C59 1.360 . S
C58 C57 1.413 . S
C58 C62 1.429 . S
C59 C57 1.360 . S
C59 C60 1.372 . S
C60 H55 0.928 . S
C60 C59 1.372 . S
C60 C61 1.404 . S
C61 C60 1.404 . S
C61 C62 1.391 . S
C62 H56 0.930 . S
C62 C58 1.429 . S
C62 C61 1.391 . S
H63 C66 0.931 . S
H64 C69 0.928 . S
H65 C71 0.930 . S
C66 H63 0.931 . S
C66 C67 1.413 . S
C66 C68 1.360 . S
C67 C66 1.413 . S
C67 C71 1.429 . S
C68 C66 1.360 . S
C68 C69 1.372 . S
C69 H64 0.928 . S
C69 C68 1.372 . S
C69 C70 1.404 . S
C70 C69 1.404 . S
C70 C71 1.391 . S
C71 H65 0.930 . S
C71 C67 1.429 . S
C71 C70 1.391 . S
H72 C75 0.931 . S
H73 C78 0.928 . S
H74 C80 0.930 . S
C75 H72 0.931 . S
C75 C76 1.413 . S
C75 C77 1.360 . S
C76 C75 1.413 . S
C76 C80 1.429 . S
C77 C75 1.360 . S
C77 C78 1.372 . S
C78 H73 0.928 . S
C78 C77 1.372 . S
C78 C79 1.404 . S
C79 C78 1.404 . S
C79 C80 1.391 . S
C80 H74 0.930 . S
C80 C76 1.429 . S
C80 C79 1.391 . S
H81 C84 0.931 . S
H82 C87 0.928 . S
H83 C89 0.930 . S
C84 H81 0.931 . S
C84 C85 1.413 . S
C84 C86 1.360 . S
C85 C84 1.413 . S
C85 C89 1.429 . S
C86 C84 1.360 . S
C86 C87 1.372 . S
C87 H82 0.928 . S
C87 C86 1.372 . S
C87 C88 1.404 . S
C88 C87 1.404 . S
C88 C89 1.391 . S
C89 H83 0.930 . S
C89 C85 1.429 . S
C89 C88 1.391 . S
H90 C93 0.931 . S
H91 C96 0.928 . S
H92 C98 0.930 . S
C93 H90 0.931 . S
C93 C94 1.413 . S
C93 C95 1.360 . S
C94 C93 1.413 . S
C94 C98 1.429 . S
C95 C93 1.360 . S
C95 C96 1.372 . S
C96 H91 0.928 . S
C96 C95 1.372 . S
C96 C97 1.404 . S
C97 C96 1.404 . S
C97 C98 1.391 . S
C98 H92 0.930 . S
C98 C94 1.429 . S
C98 C97 1.391 . S
H99 C102 0.931 . S
H100 C105 0.928 . S
H101 C107 0.930 . S
C102 H99 0.931 . S
C102 C103 1.413 . S
C102 C104 1.360 . S
C103 C102 1.413 . S
C103 C107 1.429 . S
C104 C102 1.360 . S
C104 C105 1.372 . S
C105 H100 0.928 . S
C105 C104 1.372 . S
C105 C106 1.404 . S
C106 C105 1.404 . S
C106 C107 1.391 . S
C107 H101 0.930 . S
C107 C103 1.429 . S
C107 C106 1.391 . S
H108 C111 0.931 . S
H109 C114 0.928 . S
H110 C116 0.930 . S
C111 H108 0.931 . S
C111 C112 1.413 . S
C111 C113 1.360 . S
C112 C111 1.413 . S
C112 C116 1.429 . S
C113 C111 1.360 . S
C113 C114 1.372 . S
C114 H109 0.928 . S
C114 C113 1.372 . S
C114 C115 1.404 . S
C115 C114 1.404 . S
C115 C116 1.391 . S
C116 H110 0.930 . S
C116 C112 1.429 . S
C116 C115 1.391 . S
H117 C120 0.931 . S
H118 C123 0.928 . S
H119 C125 0.930 . S
C120 H117 0.931 . S
C120 C121 1.413 . S
C120 C122 1.360 . S
C121 C120 1.413 . S
C121 C125 1.429 . S
C122 C120 1.360 . S
C122 C123 1.372 . S
C123 H118 0.928 . S
C123 C122 1.372 . S
C123 C124 1.404 . S
C124 C123 1.404 . S
C124 C125 1.391 . S
C125 H119 0.930 . S
C125 C121 1.429 . S
C125 C124 1.391 . S
H126 C129 0.931 . S
H127 C132 0.928 . S
H128 C134 0.930 . S
C129 H126 0.931 . S
C129 C130 1.413 . S
C129 C131 1.360 . S
C130 C129 1.413 . S
C130 C134 1.429 . S
C131 C129 1.360 . S
C131 C132 1.372 . S
C132 H127 0.928 . S
C132 C131 1.372 . S
C132 C133 1.404 . S
C133 C132 1.404 . S
C133 C134 1.391 . S
C134 H128 0.930 . S
C134 C130 1.429 . S
C134 C133 1.391 . S
H135 C138 0.931 . S
H136 C141 0.928 . S
H137 C143 0.930 . S
C138 H135 0.931 . S
C138 C139 1.413 . S
C138 C140 1.360 . S
C139 C138 1.413 . S
C139 C143 1.429 . S
C140 C138 1.360 . S
C140 C141 1.372 . S
C141 H136 0.928 . S
C141 C140 1.372 . S
C141 C142 1.404 . S
C142 C141 1.404 . S
C142 C143 1.391 . S
C143 H137 0.930 . S
C143 C139 1.429 . S
C143 C142 1.391 . S
Mn144 O149 2.095 . S
Mn144 O159 2.162 . S
Mn144 O160 2.297 . S
Mn144 O168 2.369 1_554 S
Mn144 O169 2.209 1_554 S
Mn144 O170 2.094 . S
Mn145 O150 2.121 . S
Mn145 N152 2.257 . S
Mn145 N161 2.282 . S
Mn145 O169 2.215 . S
Mn145 O171 2.117 . S
C146 O168 1.263 . S
C146 O169 1.283 . S
C147 O159 1.281 . S
C147 O160 1.236 . S
C148 O170 1.240 . S
C148 O171 1.264 1_554 S
O149 Mn144 2.095 . S
O149 C158 1.250 . S
O150 Mn145 2.121 . S
O150 C158 1.258 1_556 S
C151 N152 1.326 . S
C151 C155 1.460 . S
C151 H157 0.929 . S
N152 Mn145 2.257 . S
N152 C151 1.326 . S
N152 C156 1.362 . S
C153 C154 1.258 . S
C153 C156 1.431 . S
C153 C173 1.449 . S
C154 C153 1.258 . S
C154 C155 1.477 . S
C154 H174 0.931 . S
C155 C151 1.460 . S
C155 C154 1.477 . S
C155 H175 0.930 . S
C156 N152 1.362 . S
C156 C153 1.431 . S
C156 C166 1.476 . S
H157 C151 0.929 . S
C158 O149 1.250 . S
C158 O150 1.258 1_554 S
O159 Mn144 2.162 . S
O159 C147 1.281 . S
O160 Mn144 2.297 . S
O160 C147 1.236 . S
N161 Mn145 2.282 . S
N161 C162 1.328 . S
N161 C166 1.318 . S
C162 N161 1.328 . S
C162 C163 1.457 . S
C162 H167 0.929 . S
C163 C162 1.457 . S
C163 C164 1.291 . S
C163 H176 0.931 . S
C164 C163 1.291 . S
C164 C165 1.373 . S
C164 H177 0.929 . S
C165 C164 1.373 . S
C165 C166 1.396 . S
C165 C172 1.403 . S
C166 C156 1.476 . S
C166 N161 1.318 . S
C166 C165 1.396 . S
H167 C162 0.929 . S
O168 Mn144 2.369 1_556 S
O168 C146 1.263 . S
O169 Mn144 2.209 1_556 S
O169 Mn145 2.215 . S
O169 C146 1.283 . S
O170 Mn144 2.094 . S
O170 C148 1.240 . S
O171 Mn145 2.117 . S
O171 C148 1.264 1_556 S
C172 C165 1.403 . S
C172 C173 1.399 . S
C172 H178 0.929 . S
C173 C153 1.449 . S
C173 C172 1.399 . S
C173 H179 0.930 . S
H174 C154 0.931 . S
H175 C155 0.930 . S
H176 C163 0.931 . S
H177 C164 0.929 . S
H178 C172 0.929 . S
H179 C173 0.930 . S
Mn180 O185 2.095 . S
Mn180 O195 2.162 . S
Mn180 O196 2.297 . S
Mn180 O204 2.385 . S
Mn180 O205 2.209 . S
Mn180 O206 2.094 . S
Mn181 O186 2.121 . S
Mn181 N188 2.257 . S
Mn181 N197 2.282 . S
Mn181 O205 2.215 . S
Mn181 O207 2.117 . S
C182 O204 1.234 . S
C182 O205 1.283 . S
C183 O195 1.281 . S
C183 O196 1.236 . S
C184 O206 1.240 . S
C184 O207 1.264 . S
O185 Mn180 2.095 . S
O185 C194 1.250 . S
O186 Mn181 2.121 . S
O186 C194 1.258 . S
C187 N188 1.326 . S
C187 C191 1.460 . S
C187 H193 0.929 . S
N188 Mn181 2.257 . S
N188 C187 1.326 . S
N188 C192 1.362 . S
C189 C190 1.258 . S
C189 C192 1.431 . S
C189 C209 1.449 . S
C190 C189 1.258 . S
C190 C191 1.477 . S
C190 H210 0.931 . S
C191 C187 1.460 . S
C191 C190 1.477 . S
C191 H211 0.930 . S
C192 N188 1.362 . S
C192 C189 1.431 . S
C192 C202 1.476 . S
H193 C187 0.929 . S
C194 O185 1.250 . S
C194 O186 1.258 . S
O195 Mn180 2.162 . S
O195 C183 1.281 . S
O196 Mn180 2.297 . S
O196 C183 1.236 . S
N197 Mn181 2.282 . S
N197 C198 1.328 . S
N197 C202 1.318 . S
C198 N197 1.328 . S
C198 C199 1.457 . S
C198 H203 0.929 . S
C199 C198 1.457 . S
C199 C200 1.291 . S
C199 H212 0.931 . S
C200 C199 1.291 . S
C200 C201 1.373 . S
C200 H213 0.929 . S
C201 C200 1.373 . S
C201 C202 1.396 . S
C201 C208 1.403 . S
C202 C192 1.476 . S
C202 N197 1.318 . S
C202 C201 1.396 . S
H203 C198 0.929 . S
O204 Mn180 2.385 . S
O204 C182 1.234 . S
O205 Mn180 2.209 . S
O205 Mn181 2.215 . S
O205 C182 1.283 . S
O206 Mn180 2.094 . S
O206 C184 1.240 . S
O207 Mn181 2.117 . S
O207 C184 1.264 . S
C208 C201 1.403 . S
C208 C209 1.399 . S
C208 H214 0.929 . S
C209 C189 1.449 . S
C209 C208 1.399 . S
C209 H215 0.930 . S
H210 C190 0.931 . S
H211 C191 0.930 . S
H212 C199 0.931 . S
H213 C200 0.929 . S
H214 C208 0.929 . S
H215 C209 0.930 . S
Mn216 O221 2.095 1_554 S
Mn216 O231 2.162 . S
Mn216 O232 2.297 1_554 S
Mn216 O240 2.385 . S
Mn216 O241 2.209 1_554 S
Mn216 O242 2.094 . S
Mn217 O222 2.121 . S
Mn217 N224 2.257 . S
Mn217 N233 2.294 . S
Mn217 O241 2.215 . S
Mn217 O243 2.117 1_556 S
C218 O240 1.234 . S
C218 O241 1.283 1_554 S
C219 O231 1.281 . S
C219 O232 1.236 1_554 S
C220 O242 1.240 . S
C220 O243 1.264 . S
O221 Mn216 2.095 1_556 S
O221 C230 1.250 . S
O222 Mn217 2.121 . S
O222 C230 1.258 . S
C223 N224 1.326 . S
C223 C227 1.460 . S
C223 H229 0.929 . S
N224 Mn217 2.257 . S
N224 C223 1.326 . S
N224 C228 1.362 . S
C225 C226 1.258 . S
C225 C228 1.431 . S
C225 C245 1.449 . S
C226 C225 1.258 . S
C226 C227 1.477 . S
C226 H246 0.931 . S
C227 C223 1.460 . S
C227 C226 1.477 . S
C227 H247 0.930 . S
C228 N224 1.362 . S
C228 C225 1.431 . S
C228 C238 1.476 . S
H229 C223 0.929 . S
C230 O221 1.250 . S
C230 O222 1.258 . S
O231 Mn216 2.162 . S
O231 C219 1.281 . S
O232 Mn216 2.297 1_556 S
O232 C219 1.236 1_556 S
N233 Mn217 2.294 . S
N233 C234 1.297 1_556 S
N233 C238 1.339 . S
C234 N233 1.297 1_554 S
C234 C235 1.457 . S
C234 H239 0.929 . S
C235 C234 1.457 . S
C235 C236 1.291 . S
C235 H248 0.931 . S
C236 C235 1.291 . S
C236 C237 1.373 1_554 S
C236 H249 0.929 . S
C237 C236 1.373 1_556 S
C237 C238 1.396 . S
C237 C244 1.403 . S
C238 C228 1.476 . S
C238 N233 1.339 . S
C238 C237 1.396 . S
H239 C234 0.929 . S
O240 Mn216 2.385 . S
O240 C218 1.234 . S
O241 Mn216 2.209 1_556 S
O241 Mn217 2.215 . S
O241 C218 1.283 1_556 S
O242 Mn216 2.094 . S
O242 C220 1.240 . S
O243 Mn217 2.117 1_554 S
O243 C220 1.264 . S
C244 C237 1.403 . S
C244 C245 1.399 . S
C244 H250 0.929 . S
C245 C225 1.449 . S
C245 C244 1.399 . S
C245 H251 0.930 . S
H246 C226 0.931 . S
H247 C227 0.930 . S
H248 C235 0.931 . S
H249 C236 0.929 . S
H250 C244 0.929 . S
H251 C245 0.930 . S
Mn252 O257 2.095 . S
Mn252 O267 2.162 . S
Mn252 O268 2.297 . S
Mn252 O276 2.365 1_545 S
Mn252 O277 2.209 1_545 S
Mn252 O278 2.094 . S
Mn253 O258 2.121 . S
Mn253 N260 2.257 . S
Mn253 N269 2.282 . S
Mn253 O277 2.215 . S
Mn253 O279 2.117 . S
C254 O276 1.274 . S
C254 O277 1.283 . S
C255 O267 1.281 . S
C255 O268 1.236 . S
C256 O278 1.240 . S
C256 O279 1.264 1_545 S
O257 Mn252 2.095 . S
O257 C266 1.289 . S
O258 Mn253 2.121 . S
O258 C266 1.208 1_565 S
C259 N260 1.326 . S
C259 C263 1.460 . S
C259 H265 0.929 . S
N260 Mn253 2.257 . S
N260 C259 1.326 . S
N260 C264 1.362 . S
C261 C262 1.258 . S
C261 C264 1.431 . S
C261 C281 1.449 . S
C262 C261 1.258 . S
C262 C263 1.477 . S
C262 H282 0.931 . S
C263 C259 1.460 . S
C263 C262 1.477 . S
C263 H283 0.930 . S
C264 N260 1.362 . S
C264 C261 1.431 . S
C264 C274 1.476 . S
H265 C259 0.929 . S
C266 O257 1.289 . S
C266 O258 1.208 1_545 S
O267 Mn252 2.162 . S
O267 C255 1.281 . S
O268 Mn252 2.297 . S
O268 C255 1.236 . S
N269 Mn253 2.282 . S
N269 C270 1.328 . S
N269 C274 1.318 . S
C270 N269 1.328 . S
C270 C271 1.457 . S
C270 H275 0.929 . S
C271 C270 1.457 . S
C271 C272 1.291 . S
C271 H284 0.931 . S
C272 C271 1.291 . S
C272 C273 1.373 . S
C272 H285 0.929 . S
C273 C272 1.373 . S
C273 C274 1.396 . S
C273 C280 1.403 . S
C274 C264 1.476 . S
C274 N269 1.318 . S
C274 C273 1.396 . S
H275 C270 0.929 . S
O276 Mn252 2.365 1_565 S
O276 C254 1.274 . S
O277 Mn252 2.209 1_565 S
O277 Mn253 2.215 . S
O277 C254 1.283 . S
O278 Mn252 2.094 . S
O278 C256 1.240 . S
O279 Mn253 2.117 . S
O279 C256 1.264 1_565 S
C280 C273 1.403 . S
C280 C281 1.399 . S
C280 H286 0.929 . S
C281 C261 1.449 . S
C281 C280 1.399 . S
C281 H287 0.930 . S
H282 C262 0.931 . S
H283 C263 0.930 . S
H284 C271 0.931 . S
H285 C272 0.929 . S
H286 C280 0.929 . S
H287 C281 0.930 . S
Mn288 O293 2.095 . S
Mn288 O303 2.162 . S
Mn288 O304 2.297 . S
Mn288 O312 2.385 . S
Mn288 O313 2.209 . S
Mn288 O314 2.094 . S
Mn289 O294 2.121 . S
Mn289 N296 2.257 . S
Mn289 N305 2.282 . S
Mn289 O313 2.215 . S
Mn289 O315 2.117 . S
C290 O312 1.234 . S
C290 O313 1.283 . S
C291 O303 1.281 . S
C291 O304 1.236 . S
C292 O314 1.240 . S
C292 O315 1.264 . S
O293 Mn288 2.095 . S
O293 C302 1.250 . S
O294 Mn289 2.121 . S
O294 C302 1.258 . S
C295 N296 1.326 . S
C295 C299 1.460 . S
C295 H301 0.929 . S
N296 Mn289 2.257 . S
N296 C295 1.326 . S
N296 C300 1.362 . S
C297 C298 1.258 . S
C297 C300 1.431 . S
C297 C317 1.449 . S
C298 C297 1.258 . S
C298 C299 1.477 . S
C298 H318 0.931 . S
C299 C295 1.460 . S
C299 C298 1.477 . S
C299 H319 0.930 . S
C300 N296 1.362 . S
C300 C297 1.431 . S
C300 C310 1.476 . S
H301 C295 0.929 . S
C302 O293 1.250 . S
C302 O294 1.258 . S
O303 Mn288 2.162 . S
O303 C291 1.281 . S
O304 Mn288 2.297 . S
O304 C291 1.236 . S
N305 Mn289 2.282 . S
N305 C306 1.328 . S
N305 C310 1.318 . S
C306 N305 1.328 . S
C306 C307 1.457 . S
C306 H311 0.929 . S
C307 C306 1.457 . S
C307 C308 1.291 . S
C307 H320 0.931 . S
C308 C307 1.291 . S
C308 C309 1.373 . S
C308 H321 0.929 . S
C309 C308 1.373 . S
C309 C310 1.396 . S
C309 C316 1.403 . S
C310 C300 1.476 . S
C310 N305 1.318 . S
C310 C309 1.396 . S
H311 C306 0.929 . S
O312 Mn288 2.385 . S
O312 C290 1.234 . S
O313 Mn288 2.209 . S
O313 Mn289 2.215 . S
O313 C290 1.283 . S
O314 Mn288 2.094 . S
O314 C292 1.240 . S
O315 Mn289 2.117 . S
O315 C292 1.264 . S
C316 C309 1.403 . S
C316 C317 1.399 . S
C316 H322 0.929 . S
C317 C297 1.449 . S
C317 C316 1.399 . S
C317 H323 0.930 . S
H318 C298 0.931 . S
H319 C299 0.930 . S
H320 C307 0.931 . S
H321 C308 0.929 . S
H322 C316 0.929 . S
H323 C317 0.930 . S
Mn324 O329 2.095 . S
Mn324 O339 2.162 . S
Mn324 O340 2.297 . S
Mn324 O348 2.385 . S
Mn324 O349 2.209 . S
Mn324 O350 2.094 . S
Mn325 O330 2.121 . S
Mn325 N332 2.257 . S
Mn325 N341 2.282 . S
Mn325 O349 2.215 . S
Mn325 O351 2.117 . S
C326 O348 1.234 . S
C326 O349 1.283 . S
C327 O339 1.281 . S
C327 O340 1.236 . S
C328 O350 1.240 . S
C328 O351 1.264 . S
O329 Mn324 2.095 . S
O329 C338 1.250 . S
O330 Mn325 2.121 . S
O330 C338 1.258 . S
C331 N332 1.326 . S
C331 C335 1.460 . S
C331 H337 0.929 . S
N332 Mn325 2.257 . S
N332 C331 1.326 . S
N332 C336 1.362 . S
C333 C334 1.258 . S
C333 C336 1.431 . S
C333 C353 1.449 . S
C334 C333 1.258 . S
C334 C335 1.477 . S
C334 H354 0.931 . S
C335 C331 1.460 . S
C335 C334 1.477 . S
C335 H355 0.930 . S
C336 N332 1.362 . S
C336 C333 1.431 . S
C336 C346 1.476 . S
H337 C331 0.929 . S
C338 O329 1.250 . S
C338 O330 1.258 . S
O339 Mn324 2.162 . S
O339 C327 1.281 . S
O340 Mn324 2.297 . S
O340 C327 1.236 . S
N341 Mn325 2.282 . S
N341 C342 1.328 . S
N341 C346 1.318 . S
C342 N341 1.328 . S
C342 C343 1.457 . S
C342 H347 0.929 . S
C343 C342 1.457 . S
C343 C344 1.291 . S
C343 H356 0.931 . S
C344 C343 1.291 . S
C344 C345 1.373 . S
C344 H357 0.929 . S
C345 C344 1.373 . S
C345 C346 1.396 . S
C345 C352 1.403 . S
C346 C336 1.476 . S
C346 N341 1.318 . S
C346 C345 1.396 . S
H347 C342 0.929 . S
O348 Mn324 2.385 . S
O348 C326 1.234 . S
O349 Mn324 2.209 . S
O349 Mn325 2.215 . S
O349 C326 1.283 . S
O350 Mn324 2.094 . S
O350 C328 1.240 . S
O351 Mn325 2.117 . S
O351 C328 1.264 . S
C352 C345 1.403 . S
C352 C353 1.399 . S
C352 H358 0.929 . S
C353 C333 1.449 . S
C353 C352 1.399 . S
C353 H359 0.930 . S
H354 C334 0.931 . S
H355 C335 0.930 . S
H356 C343 0.931 . S
H357 C344 0.929 . S
H358 C352 0.929 . S
H359 C353 0.930 . S
Mn360 O365 2.095 . S
Mn360 O375 2.162 . S
Mn360 O376 2.297 . S
Mn360 O384 2.385 . S
Mn360 O385 2.209 . S
Mn360 O386 2.094 . S
Mn361 O366 2.121 . S
Mn361 N368 2.257 . S
Mn361 N377 2.282 . S
Mn361 O385 2.215 . S
Mn361 O387 2.117 . S
C362 O384 1.234 . S
C362 O385 1.283 . S
C363 O375 1.281 . S
C363 O376 1.236 . S
C364 O386 1.240 . S
C364 O387 1.264 . S
O365 Mn360 2.095 . S
O365 C374 1.250 . S
O366 Mn361 2.121 . S
O366 C374 1.258 . S
C367 N368 1.326 . S
C367 C371 1.460 . S
C367 H373 0.929 . S
N368 Mn361 2.257 . S
N368 C367 1.326 . S
N368 C372 1.362 . S
C369 C370 1.258 . S
C369 C372 1.431 . S
C369 C389 1.449 . S
C370 C369 1.258 . S
C370 C371 1.477 . S
C370 H390 0.931 . S
C371 C367 1.460 . S
C371 C370 1.477 . S
C371 H391 0.930 . S
C372 N368 1.362 . S
C372 C369 1.431 . S
C372 C382 1.476 . S
H373 C367 0.929 . S
C374 O365 1.250 . S
C374 O366 1.258 . S
O375 Mn360 2.162 . S
O375 C363 1.281 . S
O376 Mn360 2.297 . S
O376 C363 1.236 . S
N377 Mn361 2.282 . S
N377 C378 1.328 . S
N377 C382 1.318 . S
C378 N377 1.328 . S
C378 C379 1.457 . S
C378 H383 0.929 . S
C379 C378 1.457 . S
C379 C380 1.291 . S
C379 H392 0.931 . S
C380 C379 1.291 . S
C380 C381 1.373 . S
C380 H393 0.929 . S
C381 C380 1.373 . S
C381 C382 1.396 . S
C381 C388 1.403 . S
C382 C372 1.476 . S
C382 N377 1.318 . S
C382 C381 1.396 . S
H383 C378 0.929 . S
O384 Mn360 2.385 . S
O384 C362 1.234 . S
O385 Mn360 2.209 . S
O385 Mn361 2.215 . S
O385 C362 1.283 . S
O386 Mn360 2.094 . S
O386 C364 1.240 . S
O387 Mn361 2.117 . S
O387 C364 1.264 . S
C388 C381 1.403 . S
C388 C389 1.399 . S
C388 H394 0.929 . S
C389 C369 1.449 . S
C389 C388 1.399 . S
C389 H395 0.930 . S
H390 C370 0.931 . S
H391 C371 0.930 . S
H392 C379 0.931 . S
H393 C380 0.929 . S
H394 C388 0.929 . S
H395 C389 0.930 . S
Mn396 O401 2.095 . S
Mn396 O411 2.162 . S
Mn396 O412 2.297 . S
Mn396 O420 2.385 1_565 S
Mn396 O421 2.209 1_565 S
Mn396 O422 2.094 . S
Mn397 O402 2.121 . S
Mn397 N404 2.257 . S
Mn397 N413 2.282 . S
Mn397 O421 2.215 . S
Mn397 O423 2.117 . S
C398 O420 1.234 . S
C398 O421 1.283 . S
C399 O411 1.281 . S
C399 O412 1.236 . S
C400 O422 1.223 1_545 S
C400 O423 1.287 . S
O401 Mn396 2.095 . S
O401 C410 1.250 1_565 S
O402 Mn397 2.121 . S
O402 C410 1.258 . S
C403 N404 1.326 . S
C403 C407 1.460 . S
C403 H409 0.929 . S
N404 Mn397 2.257 . S
N404 C403 1.326 . S
N404 C408 1.362 . S
C405 C406 1.258 . S
C405 C408 1.431 . S
C405 C425 1.449 . S
C406 C405 1.258 . S
C406 C407 1.477 . S
C406 H426 0.931 . S
C407 C403 1.460 . S
C407 C406 1.477 . S
C407 H427 0.930 . S
C408 N404 1.362 . S
C408 C405 1.431 . S
C408 C418 1.476 . S
H409 C403 0.929 . S
C410 O401 1.250 1_545 S
C410 O402 1.258 . S
O411 Mn396 2.162 . S
O411 C399 1.281 . S
O412 Mn396 2.297 . S
O412 C399 1.236 . S
N413 Mn397 2.282 . S
N413 C414 1.328 . S
N413 C418 1.318 . S
C414 N413 1.328 . S
C414 C415 1.457 . S
C414 H419 0.929 . S
C415 C414 1.457 . S
C415 C416 1.291 . S
C415 H428 0.931 . S
C416 C415 1.291 . S
C416 C417 1.373 . S
C416 H429 0.929 . S
C417 C416 1.373 . S
C417 C418 1.396 . S
C417 C424 1.403 . S
C418 C408 1.476 . S
C418 N413 1.318 . S
C418 C417 1.396 . S
H419 C414 0.929 . S
O420 Mn396 2.385 1_545 S
O420 C398 1.234 . S
O421 Mn396 2.209 1_545 S
O421 Mn397 2.215 . S
O421 C398 1.283 . S
O422 Mn396 2.094 . S
O422 C400 1.223 1_565 S
O423 Mn397 2.117 . S
O423 C400 1.287 . S
C424 C417 1.403 . S
C424 C425 1.399 . S
C424 H430 0.929 . S
C425 C405 1.449 . S
C425 C424 1.399 . S
C425 H431 0.930 . S
H426 C406 0.931 . S
H427 C407 0.930 . S
H428 C415 0.931 . S
H429 C416 0.929 . S
H430 C424 0.929 . S
H431 C425 0.930 . S
Mn432 O437 2.095 . S
Mn432 O447 2.162 . S
Mn432 O448 2.297 . S
Mn432 O456 2.385 1_455 S
Mn432 O457 2.209 1_455 S
Mn432 O458 2.094 . S
Mn433 O438 2.121 . S
Mn433 N440 2.257 . S
Mn433 N449 2.282 . S
Mn433 O457 2.215 . S
Mn433 O459 2.117 . S
C434 O456 1.234 . S
C434 O457 1.283 . S
C435 O447 1.281 . S
C435 O448 1.236 . S
C436 O458 1.240 . S
C436 O459 1.264 1_455 S
O437 Mn432 2.095 . S
O437 C446 1.250 1_455 S
O438 Mn433 2.121 . S
O438 C446 1.258 . S
C439 N440 1.326 . S
C439 C443 1.460 . S
C439 H445 0.929 . S
N440 Mn433 2.257 . S
N440 C439 1.326 . S
N440 C444 1.362 . S
C441 C442 1.258 . S
C441 C444 1.431 . S
C441 C461 1.449 . S
C442 C441 1.258 . S
C442 C443 1.477 . S
C442 H462 0.931 . S
C443 C439 1.460 . S
C443 C442 1.477 . S
C443 H463 0.930 . S
C444 N440 1.362 . S
C444 C441 1.431 . S
C444 C454 1.476 . S
H445 C439 0.929 . S
C446 O437 1.250 1_655 S
C446 O438 1.258 . S
O447 Mn432 2.162 . S
O447 C435 1.281 . S
O448 Mn432 2.297 . S
O448 C435 1.236 . S
N449 Mn433 2.282 . S
N449 C450 1.328 . S
N449 C454 1.318 . S
C450 N449 1.328 . S
C450 C451 1.457 . S
C450 H455 0.929 . S
C451 C450 1.457 . S
C451 C452 1.291 . S
C451 H464 0.931 . S
C452 C451 1.291 . S
C452 C453 1.373 . S
C452 H465 0.929 . S
C453 C452 1.373 . S
C453 C454 1.396 . S
C453 C460 1.403 . S
C454 C444 1.476 . S
C454 N449 1.318 . S
C454 C453 1.396 . S
H455 C450 0.929 . S
O456 Mn432 2.385 1_655 S
O456 C434 1.234 . S
O457 Mn432 2.209 1_655 S
O457 Mn433 2.215 . S
O457 C434 1.283 . S
O458 Mn432 2.094 . S
O458 C436 1.240 . S
O459 Mn433 2.117 . S
O459 C436 1.264 1_655 S
C460 C453 1.403 . S
C460 C461 1.399 . S
C460 H466 0.929 . S
C461 C441 1.449 . S
C461 C460 1.399 . S
C461 H467 0.930 . S
H462 C442 0.931 . S
H463 C443 0.930 . S
H464 C451 0.931 . S
H465 C452 0.929 . S
H466 C460 0.929 . S
H467 C461 0.930 . S
Mn468 O473 2.095 . S
Mn468 O483 2.162 . S
Mn468 O484 2.297 . S
Mn468 O492 2.385 . S
Mn468 O493 2.209 . S
Mn468 O494 2.094 . S
Mn469 O474 2.121 . S
Mn469 N476 2.257 . S
Mn469 N485 2.282 . S
Mn469 O493 2.215 . S
Mn469 O495 2.117 . S
C470 O492 1.234 . S
C470 O493 1.283 . S
C471 O483 1.281 . S
C471 O484 1.236 . S
C472 O494 1.240 . S
C472 O495 1.264 . S
O473 Mn468 2.095 . S
O473 C482 1.250 . S
O474 Mn469 2.121 . S
O474 C482 1.258 . S
C475 N476 1.326 . S
C475 C479 1.460 . S
C475 H481 0.929 . S
N476 Mn469 2.257 . S
N476 C475 1.326 . S
N476 C480 1.362 . S
C477 C478 1.258 . S
C477 C480 1.431 . S
C477 C497 1.449 . S
C478 C477 1.258 . S
C478 C479 1.477 . S
C478 H498 0.931 . S
C479 C475 1.460 . S
C479 C478 1.477 . S
C479 H499 0.930 . S
C480 N476 1.362 . S
C480 C477 1.431 . S
C480 C490 1.476 . S
H481 C475 0.929 . S
C482 O473 1.250 . S
C482 O474 1.258 . S
O483 Mn468 2.162 . S
O483 C471 1.281 . S
O484 Mn468 2.297 . S
O484 C471 1.236 . S
N485 Mn469 2.282 . S
N485 C486 1.328 . S
N485 C490 1.318 . S
C486 N485 1.328 . S
C486 C487 1.457 . S
C486 H491 0.929 . S
C487 C486 1.457 . S
C487 C488 1.291 . S
C487 H500 0.931 . S
C488 C487 1.291 . S
C488 C489 1.373 . S
C488 H501 0.929 . S
C489 C488 1.373 . S
C489 C490 1.396 . S
C489 C496 1.403 . S
C490 C480 1.476 . S
C490 N485 1.318 . S
C490 C489 1.396 . S
H491 C486 0.929 . S
O492 Mn468 2.385 . S
O492 C470 1.234 . S
O493 Mn468 2.209 . S
O493 Mn469 2.215 . S
O493 C470 1.283 . S
O494 Mn468 2.094 . S
O494 C472 1.240 . S
O495 Mn469 2.117 . S
O495 C472 1.264 . S
C496 C489 1.403 . S
C496 C497 1.399 . S
C496 H502 0.929 . S
C497 C477 1.449 . S
C497 C496 1.399 . S
C497 H503 0.930 . S
H498 C478 0.931 . S
H499 C479 0.930 . S
H500 C487 0.931 . S
H501 C488 0.929 . S
H502 C496 0.929 . S
H503 C497 0.930 . S
Mn504 O509 2.095 1_455 S
Mn504 O519 2.162 . S
Mn504 O520 2.297 1_455 S
Mn504 O528 2.385 . S
Mn504 O529 2.209 1_455 S
Mn504 O530 2.094 . S
Mn505 O510 2.121 . S
Mn505 N512 2.257 . S
Mn505 N521 2.282 1_655 S
Mn505 O529 2.215 . S
Mn505 O531 2.117 1_655 S
C506 O528 1.234 . S
C506 O529 1.283 1_455 S
C507 O519 1.281 . S
C507 O520 1.236 1_455 S
C508 O530 1.240 . S
C508 O531 1.264 . S
O509 Mn504 2.095 1_655 S
O509 C518 1.250 . S
O510 Mn505 2.121 . S
O510 C518 1.258 . S
C511 N512 1.326 . S
C511 C515 1.460 . S
C511 H517 0.929 . S
N512 Mn505 2.257 . S
N512 C511 1.326 . S
N512 C516 1.362 . S
C513 C514 1.258 . S
C513 C516 1.431 . S
C513 C533 1.449 . S
C514 C513 1.258 . S
C514 C515 1.477 . S
C514 H534 0.931 . S
C515 C511 1.460 . S
C515 C514 1.477 . S
C515 H535 0.930 . S
C516 N512 1.362 . S
C516 C513 1.431 . S
C516 C526 1.476 . S
H517 C511 0.929 . S
C518 O509 1.250 . S
C518 O510 1.258 . S
O519 Mn504 2.162 . S
O519 C507 1.281 . S
O520 Mn504 2.297 1_655 S
O520 C507 1.236 1_655 S
N521 Mn505 2.282 1_455 S
N521 C522 1.328 . S
N521 C526 1.318 1_455 S
C522 N521 1.328 . S
C522 C523 1.457 . S
C522 H527 0.929 . S
C523 C522 1.457 . S
C523 C524 1.291 . S
C523 H536 0.931 . S
C524 C523 1.291 . S
C524 C525 1.373 1_455 S
C524 H537 0.929 . S
C525 C524 1.373 1_655 S
C525 C526 1.396 . S
C525 C532 1.403 . S
C526 C516 1.476 . S
C526 N521 1.318 1_655 S
C526 C525 1.396 . S
H527 C522 0.929 . S
O528 Mn504 2.385 . S
O528 C506 1.234 . S
O529 Mn504 2.209 1_655 S
O529 Mn505 2.215 . S
O529 C506 1.283 1_655 S
O530 Mn504 2.094 . S
O530 C508 1.240 . S
O531 Mn505 2.117 1_455 S
O531 C508 1.264 . S
C532 C525 1.403 . S
C532 C533 1.399 . S
C532 H538 0.929 . S
C533 C513 1.449 . S
C533 C532 1.399 . S
C533 H539 0.930 . S
H534 C514 0.931 . S
H535 C515 0.930 . S
H536 C523 0.931 . S
H537 C524 0.929 . S
H538 C532 0.929 . S
H539 C533 0.930 . S
Mn540 O545 2.095 . S
Mn540 O555 2.162 . S
Mn540 O556 2.297 . S
Mn540 O564 2.385 . S
Mn540 O565 2.209 . S
Mn540 O566 2.094 . S
Mn541 O546 2.121 . S
Mn541 N548 2.257 . S
Mn541 N557 2.282 . S
Mn541 O565 2.215 . S
Mn541 O567 2.117 . S
C542 O564 1.234 . S
C542 O565 1.283 . S
C543 O555 1.281 . S
C543 O556 1.236 . S
C544 O566 1.240 . S
C544 O567 1.264 . S
O545 Mn540 2.095 . S
O545 C554 1.250 . S
O546 Mn541 2.121 . S
O546 C554 1.258 . S
C547 N548 1.326 . S
C547 C551 1.460 . S
C547 H553 0.929 . S
N548 Mn541 2.257 . S
N548 C547 1.326 . S
N548 C552 1.362 . S
C549 C550 1.258 . S
C549 C552 1.431 . S
C549 C569 1.449 . S
C550 C549 1.258 . S
C550 C551 1.477 . S
C550 H570 0.931 . S
C551 C547 1.460 . S
C551 C550 1.477 . S
C551 H571 0.930 . S
C552 N548 1.362 . S
C552 C549 1.431 . S
C552 C562 1.476 . S
H553 C547 0.929 . S
C554 O545 1.250 . S
C554 O546 1.258 . S
O555 Mn540 2.162 . S
O555 C543 1.281 . S
O556 Mn540 2.297 . S
O556 C543 1.236 . S
N557 Mn541 2.282 . S
N557 C558 1.328 . S
N557 C562 1.318 . S
C558 N557 1.328 . S
C558 C559 1.457 . S
C558 H563 0.929 . S
C559 C558 1.457 . S
C559 C560 1.291 . S
C559 H572 0.931 . S
C560 C559 1.291 . S
C560 C561 1.373 . S
C560 H573 0.929 . S
C561 C560 1.373 . S
C561 C562 1.396 . S
C561 C568 1.403 . S
C562 C552 1.476 . S
C562 N557 1.318 . S
C562 C561 1.396 . S
H563 C558 0.929 . S
O564 Mn540 2.385 . S
O564 C542 1.234 . S
O565 Mn540 2.209 . S
O565 Mn541 2.215 . S
O565 C542 1.283 . S
O566 Mn540 2.094 . S
O566 C544 1.240 . S
O567 Mn541 2.117 . S
O567 C544 1.264 . S
C568 C561 1.403 . S
C568 C569 1.399 . S
C568 H574 0.929 . S
C569 C549 1.449 . S
C569 C568 1.399 . S
C569 H575 0.930 . S
H570 C550 0.931 . S
H571 C551 0.930 . S
H572 C559 0.931 . S
H573 C560 0.929 . S
H574 C568 0.929 . S
H575 C569 0.930 . S
H576 C594 0.951 . S
H577 C596 0.951 . S
H578 C598 0.950 . S
H579 C599 0.950 . S
H580 C601 0.950 . S
H581 C604 0.950 . S
H582 C605 0.950 . S
H583 C607 0.950 . S
H584 C608 0.950 . S
H585 C609 0.951 . S
H586 C611 0.951 . S
H587 C613 0.950 . S
H588 C614 0.950 . S
H589 C616 0.950 . S
H590 C619 0.950 . S
H591 C620 0.950 . S
H592 C622 0.950 . S
H593 C623 0.950 . S
C594 H576 0.951 . S
C594 C595 1.366 . S
C594 C596 1.388 . S
C595 C594 1.366 . S
C595 C599 1.385 . S
C596 H577 0.951 . S
C596 C594 1.388 . S
C596 C597 1.366 . S
C597 C596 1.366 . S
C597 C598 1.414 . S
C597 C600 1.499 . S
C598 H578 0.950 . S
C598 C597 1.414 . S
C598 C599 1.374 . S
C599 H579 0.950 . S
C599 C595 1.385 . S
C599 C598 1.374 . S
C600 C597 1.499 . S
C600 C601 1.373 . S
C600 C602 1.389 . S
C601 H580 0.950 . S
C601 C600 1.373 . S
C601 C617 1.377 . S
C602 C600 1.389 . S
C602 C603 1.524 . S
C602 C616 1.377 . S
C603 C602 1.524 . S
C603 C604 1.397 . S
C603 C608 1.363 . S
C604 H581 0.950 . S
C604 C603 1.397 . S
C604 C605 1.334 . S
C605 H582 0.950 . S
C605 C604 1.334 . S
C605 C606 1.287 . S
C606 C605 1.287 . S
C606 C607 1.524 . S
C606 H625 0.913 . S
C607 H583 0.950 . S
C607 C606 1.524 . S
C607 C608 1.415 . S
C608 H584 0.950 . S
C608 C603 1.363 . S
C608 C607 1.415 . S
C609 H585 0.951 . S
C609 C610 1.366 . S
C609 C611 1.388 . S
C610 C609 1.366 . S
C610 C614 1.385 . S
C611 H586 0.951 . S
C611 C609 1.388 . S
C611 C612 1.366 . S
C612 C611 1.366 . S
C612 C613 1.414 . S
C612 C615 1.499 . S
C613 H587 0.950 . S
C613 C612 1.414 . S
C613 C614 1.374 . S
C614 H588 0.950 . S
C614 C610 1.385 . S
C614 C613 1.374 . S
C615 C612 1.499 . S
C615 C616 1.373 . S
C615 C617 1.389 . S
C616 H589 0.950 . S
C616 C602 1.377 . S
C616 C615 1.373 . S
C617 C601 1.377 . S
C617 C615 1.389 . S
C617 C618 1.524 . S
C618 C617 1.524 . S
C618 C619 1.397 . S
C618 C623 1.363 . S
C619 H590 0.950 . S
C619 C618 1.397 . S
C619 C620 1.334 . S
C620 H591 0.950 . S
C620 C619 1.334 . S
C620 C621 1.287 . S
C621 C620 1.287 . S
C621 C622 1.524 . S
C621 H624 0.999 . S
C622 H592 0.950 . S
C622 C621 1.524 . S
C622 C623 1.415 . S
C623 H593 0.950 . S
C623 C618 1.363 . S
C623 C622 1.415 . S
H624 C621 0.999 . S
H625 C606 0.913 . S
H626 C644 0.951 . S
H627 C646 0.951 . S
H628 C648 0.950 . S
H629 C649 0.950 . S
H630 C651 0.950 . S
H631 C654 0.950 . S
H632 C655 0.950 . S
H633 C657 0.950 . S
H634 C658 0.950 1_455 S
H635 C659 0.951 . S
H636 C661 0.951 . S
H637 C663 0.950 . S
H638 C664 0.950 . S
H639 C666 0.950 . S
H640 C669 0.950 . S
H641 C670 0.950 . S
H642 C672 0.950 . S
H643 C673 0.950 . S
C644 H626 0.951 . S
C644 C645 1.367 . S
C644 C646 1.388 1_655 S
C645 C644 1.367 . S
C645 C649 1.382 1_655 S
C646 H627 0.951 . S
C646 C644 1.388 1_455 S
C646 C647 1.366 . S
C647 C646 1.366 . S
C647 C648 1.414 . S
C647 C650 1.499 . S
C648 H628 0.950 . S
C648 C647 1.414 . S
C648 C649 1.374 . S
C649 H629 0.950 . S
C649 C645 1.382 1_455 S
C649 C648 1.374 . S
C650 C647 1.499 . S
C650 C651 1.373 . S
C650 C652 1.389 . S
C651 H630 0.950 . S
C651 C650 1.373 . S
C651 C667 1.377 . S
C652 C650 1.389 . S
C652 C653 1.524 . S
C652 C666 1.377 . S
C653 C652 1.524 . S
C653 C654 1.397 . S
C653 C658 1.363 1_455 S
C654 H631 0.950 . S
C654 C653 1.397 . S
C654 C655 1.334 1_455 S
C655 H632 0.950 . S
C655 C654 1.334 1_655 S
C655 C656 1.287 . S
C656 C655 1.287 . S
C656 C657 1.524 . S
C656 H675 0.913 . S
C657 H633 0.950 . S
C657 C656 1.524 . S
C657 C658 1.415 . S
C658 H634 0.950 1_655 S
C658 C653 1.363 1_655 S
C658 C657 1.415 . S
C659 H635 0.951 . S
C659 C660 1.366 . S
C659 C661 1.388 . S
C660 C659 1.366 . S
C660 C664 1.385 . S
C661 H636 0.951 . S
C661 C659 1.388 . S
C661 C662 1.366 . S
C662 C661 1.366 . S
C662 C663 1.414 . S
C662 C665 1.499 . S
C663 H637 0.950 . S
C663 C662 1.414 . S
C663 C664 1.374 . S
C664 H638 0.950 . S
C664 C660 1.385 . S
C664 C663 1.374 . S
C665 C662 1.499 . S
C665 C666 1.373 . S
C665 C667 1.389 . S
C666 H639 0.950 . S
C666 C652 1.377 . S
C666 C665 1.373 . S
C667 C651 1.377 . S
C667 C665 1.389 . S
C667 C668 1.524 . S
C668 C667 1.524 . S
C668 C669 1.397 . S
C668 C673 1.363 . S
C669 H640 0.950 . S
C669 C668 1.397 . S
C669 C670 1.334 . S
C670 H641 0.950 . S
C670 C669 1.334 . S
C670 C671 1.287 . S
C671 C670 1.287 . S
C671 C672 1.524 . S
C671 H674 0.999 . S
C672 H642 0.950 . S
C672 C671 1.524 . S
C672 C673 1.415 . S
C673 H643 0.950 . S
C673 C668 1.363 . S
C673 C672 1.415 . S
H674 C671 0.999 . S
H675 C656 0.913 . S
H676 C694 0.951 . S
H677 C696 0.951 . S
H678 C698 0.950 . S
H679 C699 0.950 . S
H680 C701 0.950 . S
H681 C704 0.950 . S
H682 C705 0.950 . S
H683 C707 0.950 . S
H684 C708 0.950 . S
H685 C709 0.951 . S
H686 C711 0.951 . S
H687 C713 0.950 . S
H688 C714 0.950 . S
H689 C716 0.950 . S
H690 C719 0.950 . S
H691 C720 0.950 . S
H692 C722 0.950 . S
H693 C723 0.950 . S
C694 H676 0.951 . S
C694 C695 1.366 . S
C694 C696 1.388 . S
C695 C694 1.366 . S
C695 C699 1.385 . S
C696 H677 0.951 . S
C696 C694 1.388 . S
C696 C697 1.366 . S
C697 C696 1.366 . S
C697 C698 1.414 . S
C697 C700 1.499 . S
C698 H678 0.950 . S
C698 C697 1.414 . S
C698 C699 1.374 . S
C699 H679 0.950 . S
C699 C695 1.385 . S
C699 C698 1.374 . S
C700 C697 1.499 . S
C700 C701 1.373 . S
C700 C702 1.389 . S
C701 H680 0.950 . S
C701 C700 1.373 . S
C701 C717 1.377 . S
C702 C700 1.389 . S
C702 C703 1.524 . S
C702 C716 1.377 . S
C703 C702 1.524 . S
C703 C704 1.397 . S
C703 C708 1.363 . S
C704 H681 0.950 . S
C704 C703 1.397 . S
C704 C705 1.334 . S
C705 H682 0.950 . S
C705 C704 1.334 . S
C705 C706 1.287 . S
C706 C705 1.287 . S
C706 C707 1.524 . S
C706 H725 0.913 . S
C707 H683 0.950 . S
C707 C706 1.524 . S
C707 C708 1.415 . S
C708 H684 0.950 . S
C708 C703 1.363 . S
C708 C707 1.415 . S
C709 H685 0.951 . S
C709 C710 1.366 . S
C709 C711 1.388 . S
C710 C709 1.366 . S
C710 C714 1.385 . S
C711 H686 0.951 . S
C711 C709 1.388 . S
C711 C712 1.366 . S
C712 C711 1.366 . S
C712 C713 1.414 . S
C712 C715 1.499 . S
C713 H687 0.950 . S
C713 C712 1.414 . S
C713 C714 1.374 . S
C714 H688 0.950 . S
C714 C710 1.385 . S
C714 C713 1.374 . S
C715 C712 1.499 . S
C715 C716 1.373 . S
C715 C717 1.389 . S
C716 H689 0.950 . S
C716 C702 1.377 . S
C716 C715 1.373 . S
C717 C701 1.377 . S
C717 C715 1.389 . S
C717 C718 1.524 . S
C718 C717 1.524 . S
C718 C719 1.397 . S
C718 C723 1.363 . S
C719 H690 0.950 . S
C719 C718 1.397 . S
C719 C720 1.334 . S
C720 H691 0.950 . S
C720 C719 1.334 . S
C720 C721 1.287 . S
C721 C720 1.287 . S
C721 C722 1.524 . S
C721 H724 0.999 . S
C722 H692 0.950 . S
C722 C721 1.524 . S
C722 C723 1.415 . S
C723 H693 0.950 . S
C723 C718 1.363 . S
C723 C722 1.415 . S
H724 C721 0.999 . S
H725 C706 0.913 . S
H726 C744 0.951 . S
H727 C746 0.951 . S
H728 C748 0.950 . S
H729 C749 0.950 . S
H730 C751 0.950 . S
H731 C754 0.950 1_655 S
H732 C755 0.950 . S
H733 C757 0.950 . S
H734 C758 0.946 1_565 S
H735 C759 0.951 . S
H736 C761 0.951 . S
H737 C763 0.950 . S
H738 C764 0.950 . S
H739 C766 0.950 1_545 S
H740 C769 0.950 . S
H741 C770 0.950 . S
H742 C772 0.950 . S
H743 C773 0.950 . S
C744 H726 0.951 . S
C744 C745 1.366 . S
C744 C746 1.388 . S
C745 C744 1.366 . S
C745 C749 1.385 1_455 S
C746 H727 0.951 . S
C746 C744 1.388 . S
C746 C747 1.366 1_455 S
C747 C746 1.366 1_655 S
C747 C748 1.414 . S
C747 C750 1.499 . S
C748 H728 0.950 . S
C748 C747 1.414 . S
C748 C749 1.374 . S
C749 H729 0.950 . S
C749 C745 1.385 1_655 S
C749 C748 1.374 . S
C750 C747 1.499 . S
C750 C751 1.373 . S
C750 C752 1.389 . S
C751 H730 0.950 . S
C751 C750 1.373 . S
C751 C767 1.377 . S
C752 C750 1.389 . S
C752 C753 1.524 1_665 S
C752 C766 1.377 . S
C753 C752 1.524 1_445 S
C753 C754 1.397 . S
C753 C758 1.365 . S
C754 H731 0.950 1_455 S
C754 C753 1.397 . S
C754 C755 1.334 . S
C755 H732 0.950 . S
C755 C754 1.334 . S
C755 C756 1.287 . S
C756 C755 1.287 . S
C756 C757 1.524 . S
C756 H775 0.913 . S
C757 H733 0.950 . S
C757 C756 1.524 . S
C757 C758 1.418 . S
C758 H734 0.946 1_545 S
C758 C753 1.365 . S
C758 C757 1.418 . S
C759 H735 0.951 . S
C759 C760 1.366 . S
C759 C761 1.388 . S
C760 C759 1.366 . S
C760 C764 1.385 1_545 S
C761 H736 0.951 . S
C761 C759 1.388 . S
C761 C762 1.366 1_545 S
C762 C761 1.366 1_565 S
C762 C763 1.414 . S
C762 C765 1.499 . S
C763 H737 0.950 . S
C763 C762 1.414 . S
C763 C764 1.374 . S
C764 H738 0.950 . S
C764 C760 1.385 1_565 S
C764 C763 1.374 . S
C765 C762 1.499 . S
C765 C766 1.373 . S
C765 C767 1.389 . S
C766 H739 0.950 1_565 S
C766 C752 1.377 . S
C766 C765 1.373 . S
C767 C751 1.377 . S
C767 C765 1.389 . S
C767 C768 1.524 . S
C768 C767 1.524 . S
C768 C769 1.397 . S
C768 C773 1.363 . S
C769 H740 0.950 . S
C769 C768 1.397 . S
C769 C770 1.334 . S
C770 H741 0.950 . S
C770 C769 1.334 . S
C770 C771 1.287 . S
C771 C770 1.287 . S
C771 C772 1.524 . S
C771 H774 0.999 . S
C772 H742 0.950 . S
C772 C771 1.524 . S
C772 C773 1.415 . S
C773 H743 0.950 . S
C773 C768 1.363 . S
C773 C772 1.415 . S
H774 C771 0.999 . S
H775 C756 0.913 . S
H776 C794 0.951 . S
H777 C796 0.951 . S
H778 C798 0.950 . S
H779 C799 0.950 . S
H780 C801 0.950 . S
H781 C804 0.950 . S
H782 C805 0.950 . S
H783 C807 0.950 . S
H784 C808 0.950 . S
H785 C809 0.951 . S
H786 C811 0.951 . S
H787 C813 0.950 . S
H788 C814 0.950 . S
H789 C816 0.950 . S
H790 C819 0.950 . S
H791 C820 0.950 . S
H792 C822 0.950 . S
H793 C823 0.950 . S
C794 H776 0.951 . S
C794 C795 1.366 . S
C794 C796 1.388 . S
C795 C794 1.366 . S
C795 C799 1.385 . S
C796 H777 0.951 . S
C796 C794 1.388 . S
C796 C797 1.366 . S
C797 C796 1.366 . S
C797 C798 1.414 . S
C797 C800 1.499 . S
C798 H778 0.950 . S
C798 C797 1.414 . S
C798 C799 1.374 . S
C799 H779 0.950 . S
C799 C795 1.385 . S
C799 C798 1.374 . S
C800 C797 1.499 . S
C800 C801 1.373 . S
C800 C802 1.389 . S
C801 H780 0.950 . S
C801 C800 1.373 . S
C801 C817 1.377 . S
C802 C800 1.389 . S
C802 C803 1.524 . S
C802 C816 1.377 . S
C803 C802 1.524 . S
C803 C804 1.397 . S
C803 C808 1.363 . S
C804 H781 0.950 . S
C804 C803 1.397 . S
C804 C805 1.334 . S
C805 H782 0.950 . S
C805 C804 1.334 . S
C805 C806 1.287 . S
C806 C805 1.287 . S
C806 C807 1.524 . S
C806 H825 0.913 . S
C807 H783 0.950 . S
C807 C806 1.524 . S
C807 C808 1.415 . S
C808 H784 0.950 . S
C808 C803 1.363 . S
C808 C807 1.415 . S
C809 H785 0.951 . S
C809 C810 1.366 . S
C809 C811 1.388 . S
C810 C809 1.366 . S
C810 C814 1.385 . S
C811 H786 0.951 . S
C811 C809 1.388 . S
C811 C812 1.366 . S
C812 C811 1.366 . S
C812 C813 1.414 . S
C812 C815 1.499 . S
C813 H787 0.950 . S
C813 C812 1.414 . S
C813 C814 1.374 . S
C814 H788 0.950 . S
C814 C810 1.385 . S
C814 C813 1.374 . S
C815 C812 1.499 . S
C815 C816 1.373 . S
C815 C817 1.389 . S
C816 H789 0.950 . S
C816 C802 1.377 . S
C816 C815 1.373 . S
C817 C801 1.377 . S
C817 C815 1.389 . S
C817 C818 1.524 . S
C818 C817 1.524 . S
C818 C819 1.397 . S
C818 C823 1.363 . S
C819 H790 0.950 . S
C819 C818 1.397 . S
C819 C820 1.334 . S
C820 H791 0.950 . S
C820 C819 1.334 . S
C820 C821 1.287 . S
C821 C820 1.287 . S
C821 C822 1.524 . S
C821 H824 0.999 . S
C822 H792 0.950 . S
C822 C821 1.524 . S
C822 C823 1.415 . S
C823 H793 0.950 . S
C823 C818 1.363 . S
C823 C822 1.415 . S
H824 C821 0.999 . S
H825 C806 0.913 . S
H826 C844 0.951 . S
H827 C846 0.951 . S
H828 C848 0.950 . S
H829 C849 0.950 . S
H830 C851 0.950 . S
H831 C854 0.950 . S
H832 C855 0.950 . S
H833 C857 0.950 . S
H834 C858 0.950 . S
H835 C859 0.951 . S
H836 C861 0.951 . S
H837 C863 0.950 . S
H838 C864 0.950 . S
H839 C866 0.950 . S
H840 C869 0.950 . S
H841 C870 0.950 . S
H842 C872 0.950 . S
H843 C873 0.950 . S
C844 H826 0.951 . S
C844 C845 1.366 . S
C844 C846 1.388 . S
C845 C844 1.366 . S
C845 C849 1.385 . S
C846 H827 0.951 . S
C846 C844 1.388 . S
C846 C847 1.366 . S
C847 C846 1.366 . S
C847 C848 1.414 . S
C847 C850 1.499 . S
C848 H828 0.950 . S
C848 C847 1.414 . S
C848 C849 1.374 . S
C849 H829 0.950 . S
C849 C845 1.385 . S
C849 C848 1.374 . S
C850 C847 1.499 . S
C850 C851 1.373 . S
C850 C852 1.389 . S
C851 H830 0.950 . S
C851 C850 1.373 . S
C851 C867 1.377 . S
C852 C850 1.389 . S
C852 C853 1.524 . S
C852 C866 1.377 . S
C853 C852 1.524 . S
C853 C854 1.397 . S
C853 C858 1.363 . S
C854 H831 0.950 . S
C854 C853 1.397 . S
C854 C855 1.334 . S
C855 H832 0.950 . S
C855 C854 1.334 . S
C855 C856 1.287 . S
C856 C855 1.287 . S
C856 C857 1.524 . S
C856 H875 0.913 . S
C857 H833 0.950 . S
C857 C856 1.524 . S
C857 C858 1.415 . S
C858 H834 0.950 . S
C858 C853 1.363 . S
C858 C857 1.415 . S
C859 H835 0.951 . S
C859 C860 1.366 . S
C859 C861 1.388 . S
C860 C859 1.366 . S
C860 C864 1.385 . S
C861 H836 0.951 . S
C861 C859 1.388 . S
C861 C862 1.366 . S
C862 C861 1.366 . S
C862 C863 1.414 . S
C862 C865 1.499 . S
C863 H837 0.950 . S
C863 C862 1.414 . S
C863 C864 1.374 . S
C864 H838 0.950 . S
C864 C860 1.385 . S
C864 C863 1.374 . S
C865 C862 1.499 . S
C865 C866 1.373 . S
C865 C867 1.389 . S
C866 H839 0.950 . S
C866 C852 1.377 . S
C866 C865 1.373 . S
C867 C851 1.377 . S
C867 C865 1.389 . S
C867 C868 1.524 . S
C868 C867 1.524 . S
C868 C869 1.397 . S
C868 C873 1.363 . S
C869 H840 0.950 . S
C869 C868 1.397 . S
C869 C870 1.334 . S
C870 H841 0.950 . S
C870 C869 1.334 . S
C870 C871 1.287 . S
C871 C870 1.287 . S
C871 C872 1.524 . S
C871 H874 0.999 . S
C872 H842 0.950 . S
C872 C871 1.524 . S
C872 C873 1.415 . S
C873 H843 0.950 . S
C873 C868 1.363 . S
C873 C872 1.415 . S
H874 C871 0.999 . S
H875 C856 0.913 . S
H876 C894 0.951 . S
H877 C896 0.951 . S
H878 C898 0.950 . S
H879 C899 0.950 . S
H880 C901 0.950 . S
H881 C904 0.950 . S
H882 C905 0.950 . S
H883 C907 0.950 . S
H884 C908 0.950 . S
H885 C909 0.951 . S
H886 C911 0.951 . S
H887 C913 0.950 . S
H888 C914 0.950 . S
H889 C916 0.950 . S
H890 C919 0.950 . S
H891 C920 0.950 . S
H892 C922 0.950 . S
H893 C923 0.950 . S
C894 H876 0.951 . S
C894 C895 1.366 . S
C894 C896 1.388 . S
C895 C894 1.366 . S
C895 C899 1.385 . S
C896 H877 0.951 . S
C896 C894 1.388 . S
C896 C897 1.366 . S
C897 C896 1.366 . S
C897 C898 1.414 . S
C897 C900 1.499 . S
C898 H878 0.950 . S
C898 C897 1.414 . S
C898 C899 1.374 . S
C899 H879 0.950 . S
C899 C895 1.385 . S
C899 C898 1.374 . S
C900 C897 1.499 . S
C900 C901 1.373 . S
C900 C902 1.389 . S
C901 H880 0.950 . S
C901 C900 1.373 . S
C901 C917 1.377 . S
C902 C900 1.389 . S
C902 C903 1.524 . S
C902 C916 1.377 . S
C903 C902 1.524 . S
C903 C904 1.397 . S
C903 C908 1.363 . S
C904 H881 0.950 . S
C904 C903 1.397 . S
C904 C905 1.334 . S
C905 H882 0.950 . S
C905 C904 1.334 . S
C905 C906 1.287 . S
C906 C905 1.287 . S
C906 C907 1.524 . S
C906 H925 0.913 . S
C907 H883 0.950 . S
C907 C906 1.524 . S
C907 C908 1.415 . S
C908 H884 0.950 . S
C908 C903 1.363 . S
C908 C907 1.415 . S
C909 H885 0.951 . S
C909 C910 1.366 . S
C909 C911 1.388 . S
C910 C909 1.366 . S
C910 C914 1.385 . S
C911 H886 0.951 . S
C911 C909 1.388 . S
C911 C912 1.366 . S
C912 C911 1.366 . S
C912 C913 1.414 . S
C912 C915 1.499 . S
C913 H887 0.950 . S
C913 C912 1.414 . S
C913 C914 1.374 . S
C914 H888 0.950 . S
C914 C910 1.385 . S
C914 C913 1.374 . S
C915 C912 1.499 . S
C915 C916 1.373 . S
C915 C917 1.389 . S
C916 H889 0.950 . S
C916 C902 1.377 . S
C916 C915 1.373 . S
C917 C901 1.377 . S
C917 C915 1.389 . S
C917 C918 1.524 . S
C918 C917 1.524 . S
C918 C919 1.397 . S
C918 C923 1.363 . S
C919 H890 0.950 . S
C919 C918 1.397 . S
C919 C920 1.334 . S
C920 H891 0.950 . S
C920 C919 1.334 . S
C920 C921 1.287 . S
C921 C920 1.287 . S
C921 C922 1.524 . S
C921 H924 0.999 . S
C922 H892 0.950 . S
C922 C921 1.524 . S
C922 C923 1.415 . S
C923 H893 0.950 . S
C923 C918 1.363 . S
C923 C922 1.415 . S
H924 C921 0.999 . S
H925 C906 0.913 . S
H926 C944 0.951 . S
H927 C946 0.927 1_545 S
H928 C948 0.950 . S
H929 C949 0.950 . S
H930 C951 0.950 . S
H931 C954 0.950 . S
H932 C955 0.950 . S
H933 C957 0.950 . S
H934 C958 0.950 1_545 S
H935 C959 0.951 . S
H936 C961 0.951 . S
H937 C963 0.950 . S
H938 C964 0.950 . S
H939 C966 0.950 . S
H940 C969 0.950 . S
H941 C970 0.950 . S
H942 C972 0.950 . S
H943 C973 0.950 . S
C944 H926 0.951 . S
C944 C945 1.366 . S
C944 C946 1.388 . S
C945 C944 1.366 . S
C945 C949 1.385 . S
C946 H927 0.927 1_565 S
C946 C944 1.388 . S
C946 C947 1.366 . S
C947 C946 1.366 . S
C947 C948 1.414 . S
C947 C950 1.499 . S
C948 H928 0.950 . S
C948 C947 1.414 . S
C948 C949 1.374 . S
C949 H929 0.950 . S
C949 C945 1.385 . S
C949 C948 1.374 . S
C950 C947 1.499 . S
C950 C951 1.373 . S
C950 C952 1.389 . S
C951 H930 0.950 . S
C951 C950 1.373 . S
C951 C967 1.377 . S
C952 C950 1.389 . S
C952 C953 1.524 . S
C952 C966 1.377 . S
C953 C952 1.524 . S
C953 C954 1.397 . S
C953 C958 1.363 . S
C954 H931 0.950 . S
C954 C953 1.397 . S
C954 C955 1.334 . S
C955 H932 0.950 . S
C955 C954 1.334 . S
C955 C956 1.287 . S
C956 C955 1.287 . S
C956 C957 1.524 . S
C956 H975 0.913 . S
C957 H933 0.950 . S
C957 C956 1.524 . S
C957 C958 1.415 . S
C958 H934 0.950 1_565 S
C958 C953 1.363 . S
C958 C957 1.415 . S
C959 H935 0.951 . S
C959 C960 1.366 . S
C959 C961 1.388 . S
C960 C959 1.366 . S
C960 C964 1.385 1_565 S
C961 H936 0.951 . S
C961 C959 1.388 . S
C961 C962 1.366 . S
C962 C961 1.366 . S
C962 C963 1.414 1_565 S
C962 C965 1.499 . S
C963 H937 0.950 . S
C963 C962 1.414 1_545 S
C963 C964 1.374 . S
C964 H938 0.950 . S
C964 C960 1.385 1_545 S
C964 C963 1.374 . S
C965 C962 1.499 . S
C965 C966 1.373 . S
C965 C967 1.389 . S
C966 H939 0.950 . S
C966 C952 1.377 . S
C966 C965 1.373 . S
C967 C951 1.377 . S
C967 C965 1.389 . S
C967 C968 1.524 . S
C968 C967 1.524 . S
C968 C969 1.397 1_565 S
C968 C973 1.363 . S
C969 H940 0.950 . S
C969 C968 1.397 1_545 S
C969 C970 1.334 . S
C970 H941 0.950 . S
C970 C969 1.334 . S
C970 C971 1.287 . S
C971 C970 1.287 . S
C971 C972 1.524 1_545 S
C971 H974 0.999 . S
C972 H942 0.950 . S
C972 C971 1.524 1_565 S
C972 C973 1.415 . S
C973 H943 0.950 . S
C973 C968 1.363 . S
C973 C972 1.415 . S
H974 C971 0.999 . S
H975 C956 0.913 . S
H976 C994 0.951 . S
H977 C996 0.951 . S
H978 C998 0.950 . S
H979 C999 0.950 . S
H980 C1001 0.950 . S
H981 C1004 0.950 . S
H982 C1005 0.950 . S
H983 C1007 0.950 . S
H984 C1008 0.950 . S
H985 C1009 0.951 . S
H986 C1011 0.951 . S
H987 C1013 0.950 . S
H988 C1014 0.950 . S
H989 C1016 0.950 . S
H990 C1019 0.950 . S
H991 C1020 0.950 . S
H992 C1022 0.950 . S
H993 C1023 0.950 . S
C994 H976 0.951 . S
C994 C995 1.366 . S
C994 C996 1.388 . S
C995 C994 1.366 . S
C995 C999 1.385 . S
C996 H977 0.951 . S
C996 C994 1.388 . S
C996 C997 1.366 . S
C997 C996 1.366 . S
C997 C998 1.414 . S
C997 C1000 1.499 . S
C998 H978 0.950 . S
C998 C997 1.414 . S
C998 C999 1.374 . S
C999 H979 0.950 . S
C999 C995 1.385 . S
C999 C998 1.374 . S
C1000 C997 1.499 . S
C1000 C1001 1.373 . S
C1000 C1002 1.389 . S
C1001 H980 0.950 . S
C1001 C1000 1.373 . S
C1001 C1017 1.377 . S
C1002 C1000 1.389 . S
C1002 C1003 1.524 . S
C1002 C1016 1.377 . S
C1003 C1002 1.524 . S
C1003 C1004 1.397 . S
C1003 C1008 1.363 . S
C1004 H981 0.950 . S
C1004 C1003 1.397 . S
C1004 C1005 1.334 . S
C1005 H982 0.950 . S
C1005 C1004 1.334 . S
C1005 C1006 1.287 . S
C1006 C1005 1.287 . S
C1006 C1007 1.524 . S
C1006 H1025 0.913 . S
C1007 H983 0.950 . S
C1007 C1006 1.524 . S
C1007 C1008 1.415 . S
C1008 H984 0.950 . S
C1008 C1003 1.363 . S
C1008 C1007 1.415 . S
C1009 H985 0.951 . S
C1009 C1010 1.366 . S
C1009 C1011 1.388 . S
C1010 C1009 1.366 . S
C1010 C1014 1.385 . S
C1011 H986 0.951 . S
C1011 C1009 1.388 . S
C1011 C1012 1.366 . S
C1012 C1011 1.366 . S
C1012 C1013 1.414 . S
C1012 C1015 1.499 . S
C1013 H987 0.950 . S
C1013 C1012 1.414 . S
C1013 C1014 1.374 . S
C1014 H988 0.950 . S
C1014 C1010 1.385 . S
C1014 C1013 1.374 . S
C1015 C1012 1.499 . S
C1015 C1016 1.373 . S
C1015 C1017 1.389 . S
C1016 H989 0.950 . S
C1016 C1002 1.377 . S
C1016 C1015 1.373 . S
C1017 C1001 1.377 . S
C1017 C1015 1.389 . S
C1017 C1018 1.524 . S
C1018 C1017 1.524 . S
C1018 C1019 1.397 . S
C1018 C1023 1.363 . S
C1019 H990 0.950 . S
C1019 C1018 1.397 . S
C1019 C1020 1.334 . S
C1020 H991 0.950 . S
C1020 C1019 1.334 . S
C1020 C1021 1.287 . S
C1021 C1020 1.287 . S
C1021 C1022 1.524 . S
C1021 H1024 0.999 . S
C1022 H992 0.950 . S
C1022 C1021 1.524 . S
C1022 C1023 1.415 . S
C1023 H993 0.950 . S
C1023 C1018 1.363 . S
C1023 C1022 1.415 . S
H1024 C1021 0.999 . S
H1025 C1006 0.913 . S
H1026 C1044 0.951 . S
H1027 C1046 0.951 . S
H1028 C1048 0.950 . S
H1029 C1049 0.950 . S
H1030 C1051 0.950 . S
H1031 C1054 0.950 . S
H1032 C1055 0.950 . S
H1033 C1057 0.950 . S
H1034 C1058 0.950 . S
H1035 C1059 0.951 . S
H1036 C1061 0.951 . S
H1037 C1063 0.950 . S
H1038 C1064 0.950 . S
H1039 C1066 0.950 . S
H1040 C1069 0.950 . S
H1041 C1070 0.950 . S
H1042 C1072 0.950 . S
H1043 C1073 0.950 . S
C1044 H1026 0.951 . S
C1044 C1045 1.366 . S
C1044 C1046 1.388 . S
C1045 C1044 1.366 . S
C1045 C1049 1.385 . S
C1046 H1027 0.951 . S
C1046 C1044 1.388 . S
C1046 C1047 1.366 . S
C1047 C1046 1.366 . S
C1047 C1048 1.414 . S
C1047 C1050 1.499 . S
C1048 H1028 0.950 . S
C1048 C1047 1.414 . S
C1048 C1049 1.374 . S
C1049 H1029 0.950 . S
C1049 C1045 1.385 . S
C1049 C1048 1.374 . S
C1050 C1047 1.499 . S
C1050 C1051 1.373 . S
C1050 C1052 1.389 . S
C1051 H1030 0.950 . S
C1051 C1050 1.373 . S
C1051 C1067 1.377 . S
C1052 C1050 1.389 . S
C1052 C1053 1.524 . S
C1052 C1066 1.377 . S
C1053 C1052 1.524 . S
C1053 C1054 1.397 . S
C1053 C1058 1.363 . S
C1054 H1031 0.950 . S
C1054 C1053 1.397 . S
C1054 C1055 1.334 . S
C1055 H1032 0.950 . S
C1055 C1054 1.334 . S
C1055 C1056 1.287 . S
C1056 C1055 1.287 . S
C1056 C1057 1.524 . S
C1056 H1075 0.913 . S
C1057 H1033 0.950 . S
C1057 C1056 1.524 . S
C1057 C1058 1.415 . S
C1058 H1034 0.950 . S
C1058 C1053 1.363 . S
C1058 C1057 1.415 . S
C1059 H1035 0.951 . S
C1059 C1060 1.366 . S
C1059 C1061 1.388 . S
C1060 C1059 1.366 . S
C1060 C1064 1.385 . S
C1061 H1036 0.951 . S
C1061 C1059 1.388 . S
C1061 C1062 1.366 . S
C1062 C1061 1.366 . S
C1062 C1063 1.414 . S
C1062 C1065 1.499 . S
C1063 H1037 0.950 . S
C1063 C1062 1.414 . S
C1063 C1064 1.374 . S
C1064 H1038 0.950 . S
C1064 C1060 1.385 . S
C1064 C1063 1.374 . S
C1065 C1062 1.499 . S
C1065 C1066 1.373 . S
C1065 C1067 1.389 . S
C1066 H1039 0.950 . S
C1066 C1052 1.377 . S
C1066 C1065 1.373 . S
C1067 C1051 1.377 . S
C1067 C1065 1.389 . S
C1067 C1068 1.524 . S
C1068 C1067 1.524 . S
C1068 C1069 1.397 . S
C1068 C1073 1.363 . S
C1069 H1040 0.950 . S
C1069 C1068 1.397 . S
C1069 C1070 1.334 . S
C1070 H1041 0.950 . S
C1070 C1069 1.334 . S
C1070 C1071 1.287 . S
C1071 C1070 1.287 . S
C1071 C1072 1.524 . S
C1071 H1074 0.999 . S
C1072 H1042 0.950 . S
C1072 C1071 1.524 . S
C1072 C1073 1.415 . S
C1073 H1043 0.950 . S
C1073 C1068 1.363 . S
C1073 C1072 1.415 . S
H1074 C1071 0.999 . S
H1075 C1056 0.913 . S
H1076 C1094 0.951 . S
H1077 C1096 0.951 . S
H1078 C1098 0.950 . S
H1079 C1099 0.950 . S
H1080 C1101 0.950 . S
H1081 C1104 0.950 . S
H1082 C1105 0.950 . S
H1083 C1107 0.950 . S
H1084 C1108 0.950 . S
H1085 C1109 0.951 . S
H1086 C1111 0.951 . S
H1087 C1113 0.950 . S
H1088 C1114 0.950 . S
H1089 C1116 0.950 . S
H1090 C1119 0.950 . S
H1091 C1120 0.950 . S
H1092 C1122 0.950 . S
H1093 C1123 0.950 . S
C1094 H1076 0.951 . S
C1094 C1095 1.366 . S
C1094 C1096 1.388 . S
C1095 C1094 1.366 . S
C1095 C1099 1.385 . S
C1096 H1077 0.951 . S
C1096 C1094 1.388 . S
C1096 C1097 1.366 . S
C1097 C1096 1.366 . S
C1097 C1098 1.414 . S
C1097 C1100 1.499 . S
C1098 H1078 0.950 . S
C1098 C1097 1.414 . S
C1098 C1099 1.374 . S
C1099 H1079 0.950 . S
C1099 C1095 1.385 . S
C1099 C1098 1.374 . S
C1100 C1097 1.499 . S
C1100 C1101 1.373 . S
C1100 C1102 1.389 . S
C1101 H1080 0.950 . S
C1101 C1100 1.373 . S
C1101 C1117 1.377 . S
C1102 C1100 1.389 . S
C1102 C1103 1.524 . S
C1102 C1116 1.377 . S
C1103 C1102 1.524 . S
C1103 C1104 1.397 . S
C1103 C1108 1.363 . S
C1104 H1081 0.950 . S
C1104 C1103 1.397 . S
C1104 C1105 1.334 . S
C1105 H1082 0.950 . S
C1105 C1104 1.334 . S
C1105 C1106 1.287 . S
C1106 C1105 1.287 . S
C1106 C1107 1.524 . S
C1106 H1125 0.913 . S
C1107 H1083 0.950 . S
C1107 C1106 1.524 . S
C1107 C1108 1.415 . S
C1108 H1084 0.950 . S
C1108 C1103 1.363 . S
C1108 C1107 1.415 . S
C1109 H1085 0.951 . S
C1109 C1110 1.366 . S
C1109 C1111 1.388 . S
C1110 C1109 1.366 . S
C1110 C1114 1.385 . S
C1111 H1086 0.951 . S
C1111 C1109 1.388 . S
C1111 C1112 1.366 . S
C1112 C1111 1.366 . S
C1112 C1113 1.414 . S
C1112 C1115 1.499 . S
C1113 H1087 0.950 . S
C1113 C1112 1.414 . S
C1113 C1114 1.374 . S
C1114 H1088 0.950 . S
C1114 C1110 1.385 . S
C1114 C1113 1.374 . S
C1115 C1112 1.499 . S
C1115 C1116 1.373 . S
C1115 C1117 1.389 . S
C1116 H1089 0.950 . S
C1116 C1102 1.377 . S
C1116 C1115 1.373 . S
C1117 C1101 1.377 . S
C1117 C1115 1.389 . S
C1117 C1118 1.524 . S
C1118 C1117 1.524 . S
C1118 C1119 1.397 . S
C1118 C1123 1.363 . S
C1119 H1090 0.950 . S
C1119 C1118 1.397 . S
C1119 C1120 1.334 . S
C1120 H1091 0.950 . S
C1120 C1119 1.334 . S
C1120 C1121 1.287 . S
C1121 C1120 1.287 . S
C1121 C1122 1.524 . S
C1121 H1124 0.999 . S
C1122 H1092 0.950 . S
C1122 C1121 1.524 . S
C1122 C1123 1.415 . S
C1123 H1093 0.950 . S
C1123 C1118 1.363 . S
C1123 C1122 1.415 . S
H1124 C1121 0.999 . S
H1125 C1106 0.913 . S
H1126 C1144 0.951 . S
H1127 C1146 0.951 . S
H1128 C1148 0.950 . S
H1129 C1149 0.950 . S
H1130 C1151 0.950 . S
H1131 C1154 0.950 . S
H1132 C1155 0.950 . S
H1133 C1157 0.950 . S
H1134 C1158 0.950 . S
H1135 C1159 0.951 . S
H1136 C1161 0.951 . S
H1137 C1163 0.950 . S
H1138 C1164 0.950 . S
H1139 C1166 0.950 . S
H1140 C1169 0.950 . S
H1141 C1170 0.950 . S
H1142 C1172 0.950 . S
H1143 C1173 0.950 . S
C1144 H1126 0.951 . S
C1144 C1145 1.366 . S
C1144 C1146 1.388 . S
C1145 C1144 1.366 . S
C1145 C1149 1.385 . S
C1146 H1127 0.951 . S
C1146 C1144 1.388 . S
C1146 C1147 1.366 . S
C1147 C1146 1.366 . S
C1147 C1148 1.414 . S
C1147 C1150 1.499 . S
C1148 H1128 0.950 . S
C1148 C1147 1.414 . S
C1148 C1149 1.374 . S
C1149 H1129 0.950 . S
C1149 C1145 1.385 . S
C1149 C1148 1.374 . S
C1150 C1147 1.499 . S
C1150 C1151 1.373 . S
C1150 C1152 1.389 . S
C1151 H1130 0.950 . S
C1151 C1150 1.373 . S
C1151 C1167 1.377 . S
C1152 C1150 1.389 . S
C1152 C1153 1.524 . S
C1152 C1166 1.377 . S
C1153 C1152 1.524 . S
C1153 C1154 1.397 . S
C1153 C1158 1.363 . S
C1154 H1131 0.950 . S
C1154 C1153 1.397 . S
C1154 C1155 1.334 . S
C1155 H1132 0.950 . S
C1155 C1154 1.334 . S
C1155 C1156 1.287 . S
C1156 C1155 1.287 . S
C1156 C1157 1.524 . S
C1156 H1175 0.913 . S
C1157 H1133 0.950 . S
C1157 C1156 1.524 . S
C1157 C1158 1.415 . S
C1158 H1134 0.950 . S
C1158 C1153 1.363 . S
C1158 C1157 1.415 . S
C1159 H1135 0.951 . S
C1159 C1160 1.366 . S
C1159 C1161 1.388 . S
C1160 C1159 1.366 . S
C1160 C1164 1.385 . S
C1161 H1136 0.951 . S
C1161 C1159 1.388 . S
C1161 C1162 1.366 . S
C1162 C1161 1.366 . S
C1162 C1163 1.414 . S
C1162 C1165 1.499 . S
C1163 H1137 0.950 . S
C1163 C1162 1.414 . S
C1163 C1164 1.374 . S
C1164 H1138 0.950 . S
C1164 C1160 1.385 . S
C1164 C1163 1.374 . S
C1165 C1162 1.499 . S
C1165 C1166 1.373 . S
C1165 C1167 1.389 . S
C1166 H1139 0.950 . S
C1166 C1152 1.377 . S
C1166 C1165 1.373 . S
C1167 C1151 1.377 . S
C1167 C1165 1.389 . S
C1167 C1168 1.524 . S
C1168 C1167 1.524 . S
C1168 C1169 1.397 . S
C1168 C1173 1.363 . S
C1169 H1140 0.950 . S
C1169 C1168 1.397 . S
C1169 C1170 1.334 . S
C1170 H1141 0.950 . S
C1170 C1169 1.334 . S
C1170 C1171 1.287 . S
C1171 C1170 1.287 . S
C1171 C1172 1.524 . S
C1171 H1174 0.999 . S
C1172 H1142 0.950 . S
C1172 C1171 1.524 . S
C1172 C1173 1.415 . S
C1173 H1143 0.950 . S
C1173 C1168 1.363 . S
C1173 C1172 1.415 . S
H1174 C1171 0.999 . S
H1175 C1156 0.913 . S
H1176 C1194 0.951 . S
H1177 C1196 0.951 . S
H1178 C1198 0.950 . S
H1179 C1199 0.950 . S
H1180 C1201 0.950 . S
H1181 C1204 0.950 . S
H1182 C1205 0.950 . S
H1183 C1207 0.950 . S
H1184 C1208 0.950 . S
H1185 C1209 0.951 . S
H1186 C1211 0.951 . S
H1187 C1213 0.950 . S
H1188 C1214 0.950 . S
H1189 C1216 0.950 . S
H1190 C1219 0.950 . S
H1191 C1220 0.950 . S
H1192 C1222 0.950 . S
H1193 C1223 0.950 . S
C1194 H1176 0.951 . S
C1194 C1195 1.366 . S
C1194 C1196 1.388 . S
C1195 C1194 1.366 . S
C1195 C1199 1.385 . S
C1196 H1177 0.951 . S
C1196 C1194 1.388 . S
C1196 C1197 1.366 . S
C1197 C1196 1.366 . S
C1197 C1198 1.414 . S
C1197 C1200 1.499 . S
C1198 H1178 0.950 . S
C1198 C1197 1.414 . S
C1198 C1199 1.374 . S
C1199 H1179 0.950 . S
C1199 C1195 1.385 . S
C1199 C1198 1.374 . S
C1200 C1197 1.499 . S
C1200 C1201 1.373 . S
C1200 C1202 1.389 . S
C1201 H1180 0.950 . S
C1201 C1200 1.373 . S
C1201 C1217 1.377 . S
C1202 C1200 1.389 . S
C1202 C1203 1.524 . S
C1202 C1216 1.377 . S
C1203 C1202 1.524 . S
C1203 C1204 1.397 . S
C1203 C1208 1.363 . S
C1204 H1181 0.950 . S
C1204 C1203 1.397 . S
C1204 C1205 1.334 . S
C1205 H1182 0.950 . S
C1205 C1204 1.334 . S
C1205 C1206 1.287 . S
C1206 C1205 1.287 . S
C1206 C1207 1.524 . S
C1206 H1225 0.913 . S
C1207 H1183 0.950 . S
C1207 C1206 1.524 . S
C1207 C1208 1.415 . S
C1208 H1184 0.950 . S
C1208 C1203 1.363 . S
C1208 C1207 1.415 . S
C1209 H1185 0.951 . S
C1209 C1210 1.366 . S
C1209 C1211 1.388 . S
C1210 C1209 1.366 . S
C1210 C1214 1.385 . S
C1211 H1186 0.951 . S
C1211 C1209 1.388 . S
C1211 C1212 1.366 . S
C1212 C1211 1.366 . S
C1212 C1213 1.414 . S
C1212 C1215 1.499 . S
C1213 H1187 0.950 . S
C1213 C1212 1.414 . S
C1213 C1214 1.374 . S
C1214 H1188 0.950 . S
C1214 C1210 1.385 . S
C1214 C1213 1.374 . S
C1215 C1212 1.499 . S
C1215 C1216 1.373 . S
C1215 C1217 1.389 . S
C1216 H1189 0.950 . S
C1216 C1202 1.377 . S
C1216 C1215 1.373 . S
C1217 C1201 1.377 . S
C1217 C1215 1.389 . S
C1217 C1218 1.524 . S
C1218 C1217 1.524 . S
C1218 C1219 1.397 . S
C1218 C1223 1.363 . S
C1219 H1190 0.950 . S
C1219 C1218 1.397 . S
C1219 C1220 1.334 . S
C1220 H1191 0.950 . S
C1220 C1219 1.334 . S
C1220 C1221 1.287 . S
C1221 C1220 1.287 . S
C1221 C1222 1.524 . S
C1221 H1224 0.999 . S
C1222 H1192 0.950 . S
C1222 C1221 1.524 . S
C1222 C1223 1.415 . S
C1223 H1193 0.950 . S
C1223 C1218 1.363 . S
C1223 C1222 1.415 . S
H1224 C1221 0.999 . S
H1225 C1206 0.913 . S
H1226 C1244 0.951 . S
H1227 C1246 0.951 . S
H1228 C1248 0.950 . S
H1229 C1249 0.950 . S
H1230 C1251 0.950 . S
H1231 C1254 0.950 1_455 S
H1232 C1255 0.950 . S
H1233 C1257 0.950 . S
H1234 C1258 0.950 . S
H1235 C1259 0.951 . S
H1236 C1261 0.951 . S
H1237 C1263 0.932 1_655 S
H1238 C1264 0.950 . S
H1239 C1266 0.950 1_655 S
H1240 C1269 0.950 . S
H1241 C1270 0.950 . S
H1242 C1272 0.950 . S
H1243 C1273 0.950 . S
C1244 H1226 0.951 . S
C1244 C1245 1.366 . S
C1244 C1246 1.388 . S
C1245 C1244 1.366 . S
C1245 C1249 1.385 . S
C1246 H1227 0.951 . S
C1246 C1244 1.388 . S
C1246 C1247 1.366 . S
C1247 C1246 1.366 . S
C1247 C1248 1.414 . S
C1247 C1250 1.499 . S
C1248 H1228 0.950 . S
C1248 C1247 1.414 . S
C1248 C1249 1.374 . S
C1249 H1229 0.950 . S
C1249 C1245 1.385 . S
C1249 C1248 1.374 . S
C1250 C1247 1.499 . S
C1250 C1251 1.373 . S
C1250 C1252 1.389 . S
C1251 H1230 0.950 . S
C1251 C1250 1.373 . S
C1251 C1267 1.377 . S
C1252 C1250 1.389 . S
C1252 C1253 1.524 1_455 S
C1252 C1266 1.377 . S
C1253 C1252 1.524 1_655 S
C1253 C1254 1.397 . S
C1253 C1258 1.363 . S
C1254 H1231 0.950 1_655 S
C1254 C1253 1.397 . S
C1254 C1255 1.334 . S
C1255 H1232 0.950 . S
C1255 C1254 1.334 . S
C1255 C1256 1.287 . S
C1256 C1255 1.287 . S
C1256 C1257 1.524 . S
C1256 H1275 0.913 . S
C1257 H1233 0.950 . S
C1257 C1256 1.524 . S
C1257 C1258 1.415 . S
C1258 H1234 0.950 . S
C1258 C1253 1.363 . S
C1258 C1257 1.415 . S
C1259 H1235 0.951 . S
C1259 C1260 1.366 . S
C1259 C1261 1.388 . S
C1260 C1259 1.366 . S
C1260 C1264 1.385 1_455 S
C1261 H1236 0.951 . S
C1261 C1259 1.388 . S
C1261 C1262 1.366 . S
C1262 C1261 1.366 . S
C1262 C1263 1.436 . S
C1262 C1265 1.499 . S
C1263 H1237 0.932 1_455 S
C1263 C1262 1.436 . S
C1263 C1264 1.371 1_455 S
C1264 H1238 0.950 . S
C1264 C1260 1.385 1_655 S
C1264 C1263 1.371 1_655 S
C1265 C1262 1.499 . S
C1265 C1266 1.373 . S
C1265 C1267 1.389 . S
C1266 H1239 0.950 1_455 S
C1266 C1252 1.377 . S
C1266 C1265 1.373 . S
C1267 C1251 1.377 . S
C1267 C1265 1.389 . S
C1267 C1268 1.524 . S
C1268 C1267 1.524 . S
C1268 C1269 1.397 . S
C1268 C1273 1.363 . S
C1269 H1240 0.950 . S
C1269 C1268 1.397 . S
C1269 C1270 1.334 . S
C1270 H1241 0.950 . S
C1270 C1269 1.334 . S
C1270 C1271 1.287 . S
C1271 C1270 1.287 . S
C1271 C1272 1.524 . S
C1271 H1274 0.999 . S
C1272 H1242 0.950 . S
C1272 C1271 1.524 . S
C1272 C1273 1.415 . S
C1273 H1243 0.950 . S
C1273 C1268 1.363 . S
C1273 C1272 1.415 . S
H1274 C1271 0.999 . S
H1275 C1256 0.913 . S
H1276 C1294 0.951 . S
H1277 C1296 0.951 . S
H1278 C1298 0.950 . S
H1279 C1299 0.950 . S
H1280 C1301 0.950 . S
H1281 C1304 0.950 . S
H1282 C1305 0.950 . S
H1283 C1307 0.950 . S
H1284 C1308 0.950 . S
H1285 C1309 0.951 . S
H1286 C1311 0.951 . S
H1287 C1313 0.950 . S
H1288 C1314 0.950 . S
H1289 C1316 0.950 . S
H1290 C1319 0.950 . S
H1291 C1320 0.950 . S
H1292 C1322 0.950 . S
H1293 C1323 0.950 . S
C1294 H1276 0.951 . S
C1294 C1295 1.366 . S
C1294 C1296 1.388 . S
C1295 C1294 1.366 . S
C1295 C1299 1.385 . S
C1296 H1277 0.951 . S
C1296 C1294 1.388 . S
C1296 C1297 1.366 . S
C1297 C1296 1.366 . S
C1297 C1298 1.414 . S
C1297 C1300 1.499 . S
C1298 H1278 0.950 . S
C1298 C1297 1.414 . S
C1298 C1299 1.374 . S
C1299 H1279 0.950 . S
C1299 C1295 1.385 . S
C1299 C1298 1.374 . S
C1300 C1297 1.499 . S
C1300 C1301 1.373 . S
C1300 C1302 1.389 . S
C1301 H1280 0.950 . S
C1301 C1300 1.373 . S
C1301 C1317 1.377 . S
C1302 C1300 1.389 . S
C1302 C1303 1.524 . S
C1302 C1316 1.377 . S
C1303 C1302 1.524 . S
C1303 C1304 1.397 . S
C1303 C1308 1.363 . S
C1304 H1281 0.950 . S
C1304 C1303 1.397 . S
C1304 C1305 1.334 . S
C1305 H1282 0.950 . S
C1305 C1304 1.334 . S
C1305 C1306 1.287 . S
C1306 C1305 1.287 . S
C1306 C1307 1.524 . S
C1306 H1325 0.913 . S
C1307 H1283 0.950 . S
C1307 C1306 1.524 . S
C1307 C1308 1.415 . S
C1308 H1284 0.950 . S
C1308 C1303 1.363 . S
C1308 C1307 1.415 . S
C1309 H1285 0.951 . S
C1309 C1310 1.366 . S
C1309 C1311 1.388 . S
C1310 C1309 1.366 . S
C1310 C1314 1.385 . S
C1311 H1286 0.951 . S
C1311 C1309 1.388 . S
C1311 C1312 1.366 . S
C1312 C1311 1.366 . S
C1312 C1313 1.414 . S
C1312 C1315 1.499 . S
C1313 H1287 0.950 . S
C1313 C1312 1.414 . S
C1313 C1314 1.374 . S
C1314 H1288 0.950 . S
C1314 C1310 1.385 . S
C1314 C1313 1.374 . S
C1315 C1312 1.499 . S
C1315 C1316 1.373 . S
C1315 C1317 1.389 . S
C1316 H1289 0.950 . S
C1316 C1302 1.377 . S
C1316 C1315 1.373 . S
C1317 C1301 1.377 . S
C1317 C1315 1.389 . S
C1317 C1318 1.524 . S
C1318 C1317 1.524 . S
C1318 C1319 1.397 . S
C1318 C1323 1.363 . S
C1319 H1290 0.950 . S
C1319 C1318 1.397 . S
C1319 C1320 1.334 . S
C1320 H1291 0.950 . S
C1320 C1319 1.334 . S
C1320 C1321 1.287 . S
C1321 C1320 1.287 . S
C1321 C1322 1.524 . S
C1321 H1324 0.999 . S
C1322 H1292 0.950 . S
C1322 C1321 1.524 . S
C1322 C1323 1.415 . S
C1323 H1293 0.950 . S
C1323 C1318 1.363 . S
C1323 C1322 1.415 . S
H1324 C1321 0.999 . S
H1325 C1306 0.913 . S
H1326 C1344 0.951 . S
H1327 C1346 0.951 . S
H1328 C1348 0.950 . S
H1329 C1349 0.950 . S
H1330 C1351 0.952 . S
H1331 C1354 0.950 . S
H1332 C1355 0.950 . S
H1333 C1357 0.950 . S
H1334 C1358 0.950 . S
H1335 C1359 0.951 . S
H1336 C1361 0.951 . S
H1337 C1363 0.950 . S
H1338 C1364 0.950 . S
H1339 C1366 0.950 . S
H1340 C1369 0.950 . S
H1341 C1370 0.950 . S
H1342 C1372 0.950 . S
H1343 C1373 0.950 1_655 S
C1344 H1326 0.951 . S
C1344 C1345 1.366 . S
C1344 C1346 1.388 . S
C1345 C1344 1.366 . S
C1345 C1349 1.385 . S
C1346 H1327 0.951 . S
C1346 C1344 1.388 . S
C1346 C1347 1.366 . S
C1347 C1346 1.366 . S
C1347 C1348 1.414 . S
C1347 C1350 1.499 . S
C1348 H1328 0.950 . S
C1348 C1347 1.414 . S
C1348 C1349 1.374 . S
C1349 H1329 0.950 . S
C1349 C1345 1.385 . S
C1349 C1348 1.374 . S
C1350 C1347 1.499 . S
C1350 C1351 1.373 . S
C1350 C1352 1.389 . S
C1351 H1330 0.952 . S
C1351 C1350 1.373 . S
C1351 C1367 1.382 . S
C1352 C1350 1.389 . S
C1352 C1353 1.524 . S
C1352 C1366 1.377 . S
C1353 C1352 1.524 . S
C1353 C1354 1.397 . S
C1353 C1358 1.363 . S
C1354 H1331 0.950 . S
C1354 C1353 1.397 . S
C1354 C1355 1.334 . S
C1355 H1332 0.950 . S
C1355 C1354 1.334 . S
C1355 C1356 1.287 . S
C1356 C1355 1.287 . S
C1356 C1357 1.524 . S
C1356 H1375 0.913 . S
C1357 H1333 0.950 . S
C1357 C1356 1.524 . S
C1357 C1358 1.415 . S
C1358 H1334 0.950 . S
C1358 C1353 1.363 . S
C1358 C1357 1.415 . S
C1359 H1335 0.951 . S
C1359 C1360 1.369 . S
C1359 C1361 1.388 . S
C1360 C1359 1.369 . S
C1360 C1364 1.382 1_655 S
C1361 H1336 0.951 . S
C1361 C1359 1.388 . S
C1361 C1362 1.366 . S
C1362 C1361 1.366 . S
C1362 C1363 1.414 1_655 S
C1362 C1365 1.499 . S
C1363 H1337 0.950 . S
C1363 C1362 1.414 1_455 S
C1363 C1364 1.374 . S
C1364 H1338 0.950 . S
C1364 C1360 1.382 1_455 S
C1364 C1363 1.374 . S
C1365 C1362 1.499 . S
C1365 C1366 1.373 . S
C1365 C1367 1.400 . S
C1366 H1339 0.950 . S
C1366 C1352 1.377 . S
C1366 C1365 1.373 . S
C1367 C1351 1.382 . S
C1367 C1365 1.400 . S
C1367 C1368 1.507 1_655 S
C1368 C1367 1.507 1_455 S
C1368 C1369 1.397 . S
C1368 C1373 1.363 . S
C1369 H1340 0.950 . S
C1369 C1368 1.397 . S
C1369 C1370 1.334 . S
C1370 H1341 0.950 . S
C1370 C1369 1.334 . S
C1370 C1371 1.287 . S
C1371 C1370 1.287 . S
C1371 C1372 1.524 . S
C1371 H1374 0.999 . S
C1372 H1342 0.950 . S
C1372 C1371 1.524 . S
C1372 C1373 1.415 . S
C1373 H1343 0.950 1_455 S
C1373 C1368 1.363 . S
C1373 C1372 1.415 . S
H1374 C1371 0.999 . S
H1375 C1356 0.913 . S
H1376 C1394 0.951 . S
H1377 C1396 0.951 . S
H1378 C1398 0.950 . S
H1379 C1399 0.950 . S
H1380 C1401 0.950 . S
H1381 C1404 0.950 . S
H1382 C1405 0.950 . S
H1383 C1407 0.950 . S
H1384 C1408 0.950 . S
H1385 C1409 0.951 . S
H1386 C1411 0.951 . S
H1387 C1413 0.950 . S
H1388 C1414 0.950 . S
H1389 C1416 0.950 . S
H1390 C1419 0.950 . S
H1391 C1420 0.950 . S
H1392 C1422 0.950 . S
H1393 C1423 0.950 . S
C1394 H1376 0.951 . S
C1394 C1395 1.366 . S
C1394 C1396 1.388 . S
C1395 C1394 1.366 . S
C1395 C1399 1.385 . S
C1396 H1377 0.951 . S
C1396 C1394 1.388 . S
C1396 C1397 1.366 . S
C1397 C1396 1.366 . S
C1397 C1398 1.414 . S
C1397 C1400 1.499 . S
C1398 H1378 0.950 . S
C1398 C1397 1.414 . S
C1398 C1399 1.374 . S
C1399 H1379 0.950 . S
C1399 C1395 1.385 . S
C1399 C1398 1.374 . S
C1400 C1397 1.499 . S
C1400 C1401 1.373 . S
C1400 C1402 1.389 . S
C1401 H1380 0.950 . S
C1401 C1400 1.373 . S
C1401 C1417 1.377 . S
C1402 C1400 1.389 . S
C1402 C1403 1.524 . S
C1402 C1416 1.377 . S
C1403 C1402 1.524 . S
C1403 C1404 1.397 . S
C1403 C1408 1.363 . S
C1404 H1381 0.950 . S
C1404 C1403 1.397 . S
C1404 C1405 1.334 . S
C1405 H1382 0.950 . S
C1405 C1404 1.334 . S
C1405 C1406 1.287 . S
C1406 C1405 1.287 . S
C1406 C1407 1.524 . S
C1406 H1425 0.913 . S
C1407 H1383 0.950 . S
C1407 C1406 1.524 . S
C1407 C1408 1.415 . S
C1408 H1384 0.950 . S
C1408 C1403 1.363 . S
C1408 C1407 1.415 . S
C1409 H1385 0.951 . S
C1409 C1410 1.366 . S
C1409 C1411 1.388 . S
C1410 C1409 1.366 . S
C1410 C1414 1.385 . S
C1411 H1386 0.951 . S
C1411 C1409 1.388 . S
C1411 C1412 1.366 . S
C1412 C1411 1.366 . S
C1412 C1413 1.414 . S
C1412 C1415 1.499 . S
C1413 H1387 0.950 . S
C1413 C1412 1.414 . S
C1413 C1414 1.374 . S
C1414 H1388 0.950 . S
C1414 C1410 1.385 . S
C1414 C1413 1.374 . S
C1415 C1412 1.499 . S
C1415 C1416 1.373 . S
C1415 C1417 1.389 . S
C1416 H1389 0.950 . S
C1416 C1402 1.377 . S
C1416 C1415 1.373 . S
C1417 C1401 1.377 . S
C1417 C1415 1.389 . S
C1417 C1418 1.524 . S
C1418 C1417 1.524 . S
C1418 C1419 1.397 . S
C1418 C1423 1.363 . S
C1419 H1390 0.950 . S
C1419 C1418 1.397 . S
C1419 C1420 1.334 . S
C1420 H1391 0.950 . S
C1420 C1419 1.334 . S
C1420 C1421 1.287 . S
C1421 C1420 1.287 . S
C1421 C1422 1.524 . S
C1421 H1424 0.999 . S
C1422 H1392 0.950 . S
C1422 C1421 1.524 . S
C1422 C1423 1.415 . S
C1423 H1393 0.950 . S
C1423 C1418 1.363 . S
C1423 C1422 1.415 . S
H1424 C1421 0.999 . S
H1425 C1406 0.913 . S
H1426 C1444 0.951 . S
H1427 C1446 0.951 . S
H1428 C1448 0.950 . S
H1429 C1449 0.950 . S
H1430 C1451 0.950 . S
H1431 C1454 0.950 . S
H1432 C1455 0.950 . S
H1433 C1457 0.950 . S
H1434 C1458 0.950 . S
H1435 C1459 0.951 . S
H1436 C1461 0.951 . S
H1437 C1463 0.950 . S
H1438 C1464 0.950 . S
H1439 C1466 0.950 . S
H1440 C1469 0.950 . S
H1441 C1470 0.950 . S
H1442 C1472 0.950 . S
H1443 C1473 0.950 . S
C1444 H1426 0.951 . S
C1444 C1445 1.366 . S
C1444 C1446 1.388 . S
C1445 C1444 1.366 . S
C1445 C1449 1.385 . S
C1446 H1427 0.951 . S
C1446 C1444 1.388 . S
C1446 C1447 1.366 . S
C1447 C1446 1.366 . S
C1447 C1448 1.414 . S
C1447 C1450 1.499 . S
C1448 H1428 0.950 . S
C1448 C1447 1.414 . S
C1448 C1449 1.374 . S
C1449 H1429 0.950 . S
C1449 C1445 1.385 . S
C1449 C1448 1.374 . S
C1450 C1447 1.499 . S
C1450 C1451 1.373 . S
C1450 C1452 1.389 . S
C1451 H1430 0.950 . S
C1451 C1450 1.373 . S
C1451 C1467 1.377 . S
C1452 C1450 1.389 . S
C1452 C1453 1.524 . S
C1452 C1466 1.377 . S
C1453 C1452 1.524 . S
C1453 C1454 1.397 . S
C1453 C1458 1.363 . S
C1454 H1431 0.950 . S
C1454 C1453 1.397 . S
C1454 C1455 1.334 . S
C1455 H1432 0.950 . S
C1455 C1454 1.334 . S
C1455 C1456 1.287 . S
C1456 C1455 1.287 . S
C1456 C1457 1.524 . S
C1456 H1475 0.913 . S
C1457 H1433 0.950 . S
C1457 C1456 1.524 . S
C1457 C1458 1.415 . S
C1458 H1434 0.950 . S
C1458 C1453 1.363 . S
C1458 C1457 1.415 . S
C1459 H1435 0.951 . S
C1459 C1460 1.366 . S
C1459 C1461 1.388 . S
C1460 C1459 1.366 . S
C1460 C1464 1.385 . S
C1461 H1436 0.951 . S
C1461 C1459 1.388 . S
C1461 C1462 1.366 . S
C1462 C1461 1.366 . S
C1462 C1463 1.414 . S
C1462 C1465 1.499 . S
C1463 H1437 0.950 . S
C1463 C1462 1.414 . S
C1463 C1464 1.374 . S
C1464 H1438 0.950 . S
C1464 C1460 1.385 . S
C1464 C1463 1.374 . S
C1465 C1462 1.499 . S
C1465 C1466 1.373 . S
C1465 C1467 1.389 . S
C1466 H1439 0.950 . S
C1466 C1452 1.377 . S
C1466 C1465 1.373 . S
C1467 C1451 1.377 . S
C1467 C1465 1.389 . S
C1467 C1468 1.524 . S
C1468 C1467 1.524 . S
C1468 C1469 1.397 . S
C1468 C1473 1.363 . S
C1469 H1440 0.950 . S
C1469 C1468 1.397 . S
C1469 C1470 1.334 . S
C1470 H1441 0.950 . S
C1470 C1469 1.334 . S
C1470 C1471 1.287 . S
C1471 C1470 1.287 . S
C1471 C1472 1.524 . S
C1471 H1474 0.999 . S
C1472 H1442 0.950 . S
C1472 C1471 1.524 . S
C1472 C1473 1.415 . S
C1473 H1443 0.950 . S
C1473 C1468 1.363 . S
C1473 C1472 1.415 . S
H1474 C1471 0.999 . S
H1475 C1456 0.913 . S
H1476 C1494 0.951 . S
H1477 C1496 0.951 . S
H1478 C1498 0.915 1_554 S
H1479 C1499 0.950 1_554 S
H1480 C1501 0.950 . S
H1481 C1504 0.950 1_554 S
H1482 C1505 0.950 . S
H1483 C1507 0.950 . S
H1484 C1508 0.950 1_565 S
H1485 C1509 0.951 . S
H1486 C1511 0.951 . S
H1487 C1513 0.950 . S
H1488 C1514 0.950 . S
H1489 C1516 0.950 . S
H1490 C1519 0.950 . S
H1491 C1520 0.950 . S
H1492 C1522 0.950 . S
H1493 C1523 0.950 . S
C1494 H1476 0.951 . S
C1494 C1495 1.366 . S
C1494 C1496 1.388 1_545 S
C1495 C1494 1.366 . S
C1495 C1499 1.385 . S
C1496 H1477 0.951 . S
C1496 C1494 1.388 1_565 S
C1496 C1497 1.366 . S
C1497 C1496 1.366 . S
C1497 C1498 1.442 . S
C1497 C1500 1.499 . S
C1498 H1478 0.915 1_556 S
C1498 C1497 1.442 . S
C1498 C1499 1.381 1_565 S
C1499 H1479 0.950 1_556 S
C1499 C1495 1.385 . S
C1499 C1498 1.381 1_545 S
C1500 C1497 1.499 . S
C1500 C1501 1.373 . S
C1500 C1502 1.389 . S
C1501 H1480 0.950 . S
C1501 C1500 1.373 . S
C1501 C1517 1.377 . S
C1502 C1500 1.389 . S
C1502 C1503 1.512 1_565 S
C1502 C1516 1.377 . S
C1503 C1502 1.512 1_545 S
C1503 C1504 1.406 . S
C1503 C1508 1.365 . S
C1504 H1481 0.950 1_556 S
C1504 C1503 1.406 . S
C1504 C1505 1.334 . S
C1505 H1482 0.950 . S
C1505 C1504 1.334 . S
C1505 C1506 1.287 . S
C1506 C1505 1.287 . S
C1506 C1507 1.524 . S
C1506 H1525 0.913 . S
C1507 H1483 0.950 . S
C1507 C1506 1.524 . S
C1507 C1508 1.415 . S
C1508 H1484 0.950 1_545 S
C1508 C1503 1.365 . S
C1508 C1507 1.415 . S
C1509 H1485 0.951 . S
C1509 C1510 1.366 . S
C1509 C1511 1.388 . S
C1510 C1509 1.366 . S
C1510 C1514 1.385 1_554 S
C1511 H1486 0.951 . S
C1511 C1509 1.388 . S
C1511 C1512 1.366 1_554 S
C1512 C1511 1.366 1_556 S
C1512 C1513 1.414 . S
C1512 C1515 1.499 . S
C1513 H1487 0.950 . S
C1513 C1512 1.414 . S
C1513 C1514 1.374 . S
C1514 H1488 0.950 . S
C1514 C1510 1.385 1_556 S
C1514 C1513 1.374 . S
C1515 C1512 1.499 . S
C1515 C1516 1.373 . S
C1515 C1517 1.389 . S
C1516 H1489 0.950 . S
C1516 C1502 1.377 . S
C1516 C1515 1.373 . S
C1517 C1501 1.377 . S
C1517 C1515 1.389 . S
C1517 C1518 1.524 1_556 S
C1518 C1517 1.524 1_554 S
C1518 C1519 1.397 1_554 S
C1518 C1523 1.363 . S
C1519 H1490 0.950 . S
C1519 C1518 1.397 1_556 S
C1519 C1520 1.334 . S
C1520 H1491 0.950 . S
C1520 C1519 1.334 . S
C1520 C1521 1.287 1_556 S
C1521 C1520 1.287 1_554 S
C1521 C1522 1.524 . S
C1521 H1524 0.999 . S
C1522 H1492 0.950 . S
C1522 C1521 1.524 . S
C1522 C1523 1.415 . S
C1523 H1493 0.950 . S
C1523 C1518 1.363 . S
C1523 C1522 1.415 . S
H1524 C1521 0.999 . S
H1525 C1506 0.913 . S
H1526 C1544 0.951 . S
H1527 C1546 0.951 . S
H1528 C1548 0.950 . S
H1529 C1549 0.950 . S
H1530 C1551 0.950 . S
H1531 C1554 0.950 . S
H1532 C1555 0.950 . S
H1533 C1557 0.950 . S
H1534 C1558 0.950 . S
H1535 C1559 0.951 . S
H1536 C1561 0.951 . S
H1537 C1563 0.950 . S
H1538 C1564 0.950 . S
H1539 C1566 0.950 . S
H1540 C1569 0.950 . S
H1541 C1570 0.950 . S
H1542 C1572 0.950 . S
H1543 C1573 0.950 . S
C1544 H1526 0.951 . S
C1544 C1545 1.366 . S
C1544 C1546 1.388 . S
C1545 C1544 1.366 . S
C1545 C1549 1.385 . S
C1546 H1527 0.951 . S
C1546 C1544 1.388 . S
C1546 C1547 1.366 . S
C1547 C1546 1.366 . S
C1547 C1548 1.414 . S
C1547 C1550 1.499 . S
C1548 H1528 0.950 . S
C1548 C1547 1.414 . S
C1548 C1549 1.374 . S
C1549 H1529 0.950 . S
C1549 C1545 1.385 . S
C1549 C1548 1.374 . S
C1550 C1547 1.499 . S
C1550 C1551 1.373 . S
C1550 C1552 1.389 . S
C1551 H1530 0.950 . S
C1551 C1550 1.373 . S
C1551 C1567 1.377 . S
C1552 C1550 1.389 . S
C1552 C1553 1.524 . S
C1552 C1566 1.377 . S
C1553 C1552 1.524 . S
C1553 C1554 1.397 . S
C1553 C1558 1.363 . S
C1554 H1531 0.950 . S
C1554 C1553 1.397 . S
C1554 C1555 1.334 . S
C1555 H1532 0.950 . S
C1555 C1554 1.334 . S
C1555 C1556 1.287 . S
C1556 C1555 1.287 . S
C1556 C1557 1.524 . S
C1556 H1575 0.913 . S
C1557 H1533 0.950 . S
C1557 C1556 1.524 . S
C1557 C1558 1.415 . S
C1558 H1534 0.950 . S
C1558 C1553 1.363 . S
C1558 C1557 1.415 . S
C1559 H1535 0.951 . S
C1559 C1560 1.366 . S
C1559 C1561 1.388 . S
C1560 C1559 1.366 . S
C1560 C1564 1.385 . S
C1561 H1536 0.951 . S
C1561 C1559 1.388 . S
C1561 C1562 1.366 . S
C1562 C1561 1.366 . S
C1562 C1563 1.414 . S
C1562 C1565 1.499 . S
C1563 H1537 0.950 . S
C1563 C1562 1.414 . S
C1563 C1564 1.374 . S
C1564 H1538 0.950 . S
C1564 C1560 1.385 . S
C1564 C1563 1.374 . S
C1565 C1562 1.499 . S
C1565 C1566 1.373 . S
C1565 C1567 1.389 . S
C1566 H1539 0.950 . S
C1566 C1552 1.377 . S
C1566 C1565 1.373 . S
C1567 C1551 1.377 . S
C1567 C1565 1.389 . S
C1567 C1568 1.524 . S
C1568 C1567 1.524 . S
C1568 C1569 1.397 . S
C1568 C1573 1.363 . S
C1569 H1540 0.950 . S
C1569 C1568 1.397 . S
C1569 C1570 1.334 . S
C1570 H1541 0.950 . S
C1570 C1569 1.334 . S
C1570 C1571 1.287 . S
C1571 C1570 1.287 . S
C1571 C1572 1.524 . S
C1571 H1574 0.999 . S
C1572 H1542 0.950 . S
C1572 C1571 1.524 . S
C1572 C1573 1.415 . S
C1573 H1543 0.950 . S
C1573 C1568 1.363 . S
C1573 C1572 1.415 . S
H1574 C1571 0.999 . S
H1575 C1556 0.913 . S
H1576 C1594 0.951 . S
H1577 C1596 0.951 . S
H1578 C1598 0.950 . S
H1579 C1599 0.950 . S
H1580 C1601 0.950 . S
H1581 C1604 0.950 . S
H1582 C1605 0.950 . S
H1583 C1607 0.950 . S
H1584 C1608 0.950 . S
H1585 C1609 0.951 . S
H1586 C1611 0.951 . S
H1587 C1613 0.950 . S
H1588 C1614 0.950 . S
H1589 C1616 0.950 . S
H1590 C1619 0.950 . S
H1591 C1620 0.950 . S
H1592 C1622 0.950 . S
H1593 C1623 0.950 . S
C1594 H1576 0.951 . S
C1594 C1595 1.357 1_565 S
C1594 C1596 1.388 1_565 S
C1595 C1594 1.357 1_545 S
C1595 C1599 1.412 . S
C1596 H1577 0.951 . S
C1596 C1594 1.388 1_545 S
C1596 C1597 1.366 . S
C1597 C1596 1.366 . S
C1597 C1598 1.414 . S
C1597 C1600 1.499 . S
C1598 H1578 0.950 . S
C1598 C1597 1.414 . S
C1598 C1599 1.374 . S
C1599 H1579 0.950 . S
C1599 C1595 1.412 . S
C1599 C1598 1.374 . S
C1600 C1597 1.499 . S
C1600 C1601 1.373 . S
C1600 C1602 1.389 . S
C1601 H1580 0.950 . S
C1601 C1600 1.373 . S
C1601 C1617 1.377 . S
C1602 C1600 1.389 . S
C1602 C1603 1.524 . S
C1602 C1616 1.377 . S
C1603 C1602 1.524 . S
C1603 C1604 1.397 . S
C1603 C1608 1.363 . S
C1604 H1581 0.950 . S
C1604 C1603 1.397 . S
C1604 C1605 1.334 . S
C1605 H1582 0.950 . S
C1605 C1604 1.334 . S
C1605 C1606 1.287 . S
C1606 C1605 1.287 . S
C1606 C1607 1.524 . S
C1606 H1625 0.913 . S
C1607 H1583 0.950 . S
C1607 C1606 1.524 . S
C1607 C1608 1.415 . S
C1608 H1584 0.950 . S
C1608 C1603 1.363 . S
C1608 C1607 1.415 . S
C1609 H1585 0.951 . S
C1609 C1610 1.366 . S
C1609 C1611 1.388 . S
C1610 C1609 1.366 . S
C1610 C1614 1.385 . S
C1611 H1586 0.951 . S
C1611 C1609 1.388 . S
C1611 C1612 1.366 . S
C1612 C1611 1.366 . S
C1612 C1613 1.414 . S
C1612 C1615 1.499 . S
C1613 H1587 0.950 . S
C1613 C1612 1.414 . S
C1613 C1614 1.374 . S
C1614 H1588 0.950 . S
C1614 C1610 1.385 . S
C1614 C1613 1.374 . S
C1615 C1612 1.499 . S
C1615 C1616 1.373 . S
C1615 C1617 1.389 . S
C1616 H1589 0.950 . S
C1616 C1602 1.377 . S
C1616 C1615 1.373 . S
C1617 C1601 1.377 . S
C1617 C1615 1.389 . S
C1617 C1618 1.524 . S
C1618 C1617 1.524 . S
C1618 C1619 1.397 . S
C1618 C1623 1.363 . S
C1619 H1590 0.950 . S
C1619 C1618 1.397 . S
C1619 C1620 1.334 . S
C1620 H1591 0.950 . S
C1620 C1619 1.334 . S
C1620 C1621 1.287 . S
C1621 C1620 1.287 . S
C1621 C1622 1.524 . S
C1621 H1624 0.999 . S
C1622 H1592 0.950 . S
C1622 C1621 1.524 . S
C1622 C1623 1.415 . S
C1623 H1593 0.950 . S
C1623 C1618 1.363 . S
C1623 C1622 1.415 . S
H1624 C1621 0.999 . S
H1625 C1606 0.913 . S
H1626 C1644 0.951 . S
H1627 C1646 0.951 . S
H1628 C1648 0.950 . S
H1629 C1649 0.950 . S
H1630 C1651 0.950 . S
H1631 C1654 0.950 . S
H1632 C1655 0.950 . S
H1633 C1657 0.950 . S
H1634 C1658 0.950 . S
H1635 C1659 0.951 . S
H1636 C1661 0.951 . S
H1637 C1663 0.950 . S
H1638 C1664 0.950 . S
H1639 C1666 0.950 . S
H1640 C1669 0.950 . S
H1641 C1670 0.950 . S
H1642 C1672 0.950 . S
H1643 C1673 0.950 . S
C1644 H1626 0.951 . S
C1644 C1645 1.366 . S
C1644 C1646 1.388 . S
C1645 C1644 1.366 . S
C1645 C1649 1.385 . S
C1646 H1627 0.951 . S
C1646 C1644 1.388 . S
C1646 C1647 1.366 . S
C1647 C1646 1.366 . S
C1647 C1648 1.414 . S
C1647 C1650 1.499 . S
C1648 H1628 0.950 . S
C1648 C1647 1.414 . S
C1648 C1649 1.374 . S
C1649 H1629 0.950 . S
C1649 C1645 1.385 . S
C1649 C1648 1.374 . S
C1650 C1647 1.499 . S
C1650 C1651 1.373 . S
C1650 C1652 1.389 . S
C1651 H1630 0.950 . S
C1651 C1650 1.373 . S
C1651 C1667 1.377 . S
C1652 C1650 1.389 . S
C1652 C1653 1.524 . S
C1652 C1666 1.377 . S
C1653 C1652 1.524 . S
C1653 C1654 1.397 . S
C1653 C1658 1.363 . S
C1654 H1631 0.950 . S
C1654 C1653 1.397 . S
C1654 C1655 1.334 . S
C1655 H1632 0.950 . S
C1655 C1654 1.334 . S
C1655 C1656 1.287 . S
C1656 C1655 1.287 . S
C1656 C1657 1.524 . S
C1656 H1675 0.913 . S
C1657 H1633 0.950 . S
C1657 C1656 1.524 . S
C1657 C1658 1.415 . S
C1658 H1634 0.950 . S
C1658 C1653 1.363 . S
C1658 C1657 1.415 . S
C1659 H1635 0.951 . S
C1659 C1660 1.366 . S
C1659 C1661 1.388 . S
C1660 C1659 1.366 . S
C1660 C1664 1.385 . S
C1661 H1636 0.951 . S
C1661 C1659 1.388 . S
C1661 C1662 1.366 . S
C1662 C1661 1.366 . S
C1662 C1663 1.414 . S
C1662 C1665 1.499 . S
C1663 H1637 0.950 . S
C1663 C1662 1.414 . S
C1663 C1664 1.374 . S
C1664 H1638 0.950 . S
C1664 C1660 1.385 . S
C1664 C1663 1.374 . S
C1665 C1662 1.499 . S
C1665 C1666 1.373 . S
C1665 C1667 1.389 . S
C1666 H1639 0.950 . S
C1666 C1652 1.377 . S
C1666 C1665 1.373 . S
C1667 C1651 1.377 . S
C1667 C1665 1.389 . S
C1667 C1668 1.524 . S
C1668 C1667 1.524 . S
C1668 C1669 1.397 . S
C1668 C1673 1.363 . S
C1669 H1640 0.950 . S
C1669 C1668 1.397 . S
C1669 C1670 1.334 . S
C1670 H1641 0.950 . S
C1670 C1669 1.334 . S
C1670 C1671 1.287 . S
C1671 C1670 1.287 . S
C1671 C1672 1.524 . S
C1671 H1674 0.999 . S
C1672 H1642 0.950 . S
C1672 C1671 1.524 . S
C1672 C1673 1.415 . S
C1673 H1643 0.950 . S
C1673 C1668 1.363 . S
C1673 C1672 1.415 . S
H1674 C1671 0.999 . S
H1675 C1656 0.913 . S
H1676 C1694 0.951 . S
H1677 C1696 0.951 . S
H1678 C1698 0.950 . S
H1679 C1699 0.950 . S
H1680 C1701 0.950 . S
H1681 C1704 0.950 . S
H1682 C1705 0.950 . S
H1683 C1707 0.950 . S
H1684 C1708 0.950 1_545 S
H1685 C1709 0.951 . S
H1686 C1711 0.951 . S
H1687 C1713 0.950 . S
H1688 C1714 0.950 . S
H1689 C1716 0.950 . S
H1690 C1719 0.950 . S
H1691 C1720 0.950 . S
H1692 C1722 0.950 . S
H1693 C1723 0.950 . S
C1694 H1676 0.951 . S
C1694 C1695 1.366 . S
C1694 C1696 1.388 1_565 S
C1695 C1694 1.366 . S
C1695 C1699 1.385 1_565 S
C1696 H1677 0.951 . S
C1696 C1694 1.388 1_545 S
C1696 C1697 1.366 . S
C1697 C1696 1.366 . S
C1697 C1698 1.414 . S
C1697 C1700 1.499 . S
C1698 H1678 0.950 . S
C1698 C1697 1.414 . S
C1698 C1699 1.374 . S
C1699 H1679 0.950 . S
C1699 C1695 1.385 1_545 S
C1699 C1698 1.374 . S
C1700 C1697 1.499 . S
C1700 C1701 1.373 . S
C1700 C1702 1.389 . S
C1701 H1680 0.950 . S
C1701 C1700 1.373 . S
C1701 C1717 1.377 . S
C1702 C1700 1.389 . S
C1702 C1703 1.524 . S
C1702 C1716 1.377 . S
C1703 C1702 1.524 . S
C1703 C1704 1.397 1_545 S
C1703 C1708 1.363 1_545 S
C1704 H1681 0.950 . S
C1704 C1703 1.397 1_565 S
C1704 C1705 1.334 . S
C1705 H1682 0.950 . S
C1705 C1704 1.334 . S
C1705 C1706 1.287 . S
C1706 C1705 1.287 . S
C1706 C1707 1.524 . S
C1706 H1725 0.913 . S
C1707 H1683 0.950 . S
C1707 C1706 1.524 . S
C1707 C1708 1.415 . S
C1708 H1684 0.950 1_565 S
C1708 C1703 1.363 1_565 S
C1708 C1707 1.415 . S
C1709 H1685 0.951 . S
C1709 C1710 1.366 . S
C1709 C1711 1.388 . S
C1710 C1709 1.366 . S
C1710 C1714 1.385 . S
C1711 H1686 0.951 . S
C1711 C1709 1.388 . S
C1711 C1712 1.366 . S
C1712 C1711 1.366 . S
C1712 C1713 1.414 . S
C1712 C1715 1.499 . S
C1713 H1687 0.950 . S
C1713 C1712 1.414 . S
C1713 C1714 1.374 . S
C1714 H1688 0.950 . S
C1714 C1710 1.385 . S
C1714 C1713 1.374 . S
C1715 C1712 1.499 . S
C1715 C1716 1.373 . S
C1715 C1717 1.389 . S
C1716 H1689 0.950 . S
C1716 C1702 1.377 . S
C1716 C1715 1.373 . S
C1717 C1701 1.377 . S
C1717 C1715 1.389 . S
C1717 C1718 1.524 . S
C1718 C1717 1.524 . S
C1718 C1719 1.397 . S
C1718 C1723 1.363 . S
C1719 H1690 0.950 . S
C1719 C1718 1.397 . S
C1719 C1720 1.334 . S
C1720 H1691 0.950 . S
C1720 C1719 1.334 . S
C1720 C1721 1.287 . S
C1721 C1720 1.287 . S
C1721 C1722 1.524 . S
C1721 H1724 0.999 . S
C1722 H1692 0.950 . S
C1722 C1721 1.524 . S
C1722 C1723 1.415 . S
C1723 H1693 0.950 . S
C1723 C1718 1.363 . S
C1723 C1722 1.415 . S
H1724 C1721 0.999 . S
H1725 C1706 0.913 . S
H1726 C1744 0.951 . S
H1727 C1746 0.951 . S
H1728 C1748 0.950 . S
H1729 C1749 0.950 . S
H1730 C1751 0.950 . S
H1731 C1754 0.950 . S
H1732 C1755 0.950 . S
H1733 C1757 0.950 . S
H1734 C1758 0.950 . S
H1735 C1759 0.951 . S
H1736 C1761 0.951 . S
H1737 C1763 0.950 . S
H1738 C1764 0.950 . S
H1739 C1766 0.950 . S
H1740 C1769 0.950 . S
H1741 C1770 0.950 . S
H1742 C1772 0.950 . S
H1743 C1773 0.950 . S
C1744 H1726 0.951 . S
C1744 C1745 1.366 . S
C1744 C1746 1.388 . S
C1745 C1744 1.366 . S
C1745 C1749 1.385 . S
C1746 H1727 0.951 . S
C1746 C1744 1.388 . S
C1746 C1747 1.366 . S
C1747 C1746 1.366 . S
C1747 C1748 1.414 . S
C1747 C1750 1.499 . S
C1748 H1728 0.950 . S
C1748 C1747 1.414 . S
C1748 C1749 1.374 . S
C1749 H1729 0.950 . S
C1749 C1745 1.385 . S
C1749 C1748 1.374 . S
C1750 C1747 1.499 . S
C1750 C1751 1.373 . S
C1750 C1752 1.389 . S
C1751 H1730 0.950 . S
C1751 C1750 1.373 . S
C1751 C1767 1.377 . S
C1752 C1750 1.389 . S
C1752 C1753 1.524 . S
C1752 C1766 1.377 . S
C1753 C1752 1.524 . S
C1753 C1754 1.397 . S
C1753 C1758 1.363 . S
C1754 H1731 0.950 . S
C1754 C1753 1.397 . S
C1754 C1755 1.334 . S
C1755 H1732 0.950 . S
C1755 C1754 1.334 . S
C1755 C1756 1.287 . S
C1756 C1755 1.287 . S
C1756 C1757 1.524 . S
C1756 H1775 0.913 . S
C1757 H1733 0.950 . S
C1757 C1756 1.524 . S
C1757 C1758 1.415 . S
C1758 H1734 0.950 . S
C1758 C1753 1.363 . S
C1758 C1757 1.415 . S
C1759 H1735 0.951 . S
C1759 C1760 1.366 . S
C1759 C1761 1.388 . S
C1760 C1759 1.366 . S
C1760 C1764 1.385 . S
C1761 H1736 0.951 . S
C1761 C1759 1.388 . S
C1761 C1762 1.366 . S
C1762 C1761 1.366 . S
C1762 C1763 1.414 . S
C1762 C1765 1.499 . S
C1763 H1737 0.950 . S
C1763 C1762 1.414 . S
C1763 C1764 1.374 . S
C1764 H1738 0.950 . S
C1764 C1760 1.385 . S
C1764 C1763 1.374 . S
C1765 C1762 1.499 . S
C1765 C1766 1.373 . S
C1765 C1767 1.389 . S
C1766 H1739 0.950 . S
C1766 C1752 1.377 . S
C1766 C1765 1.373 . S
C1767 C1751 1.377 . S
C1767 C1765 1.389 . S
C1767 C1768 1.524 . S
C1768 C1767 1.524 . S
C1768 C1769 1.397 . S
C1768 C1773 1.363 . S
C1769 H1740 0.950 . S
C1769 C1768 1.397 . S
C1769 C1770 1.334 . S
C1770 H1741 0.950 . S
C1770 C1769 1.334 . S
C1770 C1771 1.287 . S
C1771 C1770 1.287 . S
C1771 C1772 1.524 . S
C1771 H1774 0.999 . S
C1772 H1742 0.950 . S
C1772 C1771 1.524 . S
C1772 C1773 1.415 . S
C1773 H1743 0.950 . S
C1773 C1768 1.363 . S
C1773 C1772 1.415 . S
H1774 C1771 0.999 . S
H1775 C1756 0.913 . S
H1776 C1794 0.951 . S
H1777 C1796 0.951 . S
H1778 C1798 0.950 . S
H1779 C1799 0.950 . S
H1780 C1801 0.950 . S
H1781 C1804 0.950 . S
H1782 C1805 0.950 . S
H1783 C1807 0.950 . S
H1784 C1808 0.950 . S
H1785 C1809 0.951 . S
H1786 C1811 0.951 . S
H1787 C1813 0.950 . S
H1788 C1814 0.950 . S
H1789 C1816 0.950 . S
H1790 C1819 0.950 . S
H1791 C1820 0.950 . S
H1792 C1822 0.950 . S
H1793 C1823 0.950 . S
C1794 H1776 0.951 . S
C1794 C1795 1.366 . S
C1794 C1796 1.388 . S
C1795 C1794 1.366 . S
C1795 C1799 1.385 . S
C1796 H1777 0.951 . S
C1796 C1794 1.388 . S
C1796 C1797 1.366 . S
C1797 C1796 1.366 . S
C1797 C1798 1.414 . S
C1797 C1800 1.499 . S
C1798 H1778 0.950 . S
C1798 C1797 1.414 . S
C1798 C1799 1.374 . S
C1799 H1779 0.950 . S
C1799 C1795 1.385 . S
C1799 C1798 1.374 . S
C1800 C1797 1.499 . S
C1800 C1801 1.373 . S
C1800 C1802 1.389 . S
C1801 H1780 0.950 . S
C1801 C1800 1.373 . S
C1801 C1817 1.377 . S
C1802 C1800 1.389 . S
C1802 C1803 1.524 . S
C1802 C1816 1.377 . S
C1803 C1802 1.524 . S
C1803 C1804 1.397 . S
C1803 C1808 1.363 . S
C1804 H1781 0.950 . S
C1804 C1803 1.397 . S
C1804 C1805 1.334 . S
C1805 H1782 0.950 . S
C1805 C1804 1.334 . S
C1805 C1806 1.287 . S
C1806 C1805 1.287 . S
C1806 C1807 1.524 . S
C1806 H1825 0.913 . S
C1807 H1783 0.950 . S
C1807 C1806 1.524 . S
C1807 C1808 1.415 . S
C1808 H1784 0.950 . S
C1808 C1803 1.363 . S
C1808 C1807 1.415 . S
C1809 H1785 0.951 . S
C1809 C1810 1.366 . S
C1809 C1811 1.388 . S
C1810 C1809 1.366 . S
C1810 C1814 1.385 . S
C1811 H1786 0.951 . S
C1811 C1809 1.388 . S
C1811 C1812 1.366 . S
C1812 C1811 1.366 . S
C1812 C1813 1.414 . S
C1812 C1815 1.499 . S
C1813 H1787 0.950 . S
C1813 C1812 1.414 . S
C1813 C1814 1.374 . S
C1814 H1788 0.950 . S
C1814 C1810 1.385 . S
C1814 C1813 1.374 . S
C1815 C1812 1.499 . S
C1815 C1816 1.373 . S
C1815 C1817 1.389 . S
C1816 H1789 0.950 . S
C1816 C1802 1.377 . S
C1816 C1815 1.373 . S
C1817 C1801 1.377 . S
C1817 C1815 1.389 . S
C1817 C1818 1.524 . S
C1818 C1817 1.524 . S
C1818 C1819 1.397 . S
C1818 C1823 1.363 . S
C1819 H1790 0.950 . S
C1819 C1818 1.397 . S
C1819 C1820 1.334 . S
C1820 H1791 0.950 . S
C1820 C1819 1.334 . S
C1820 C1821 1.287 . S
C1821 C1820 1.287 . S
C1821 C1822 1.524 . S
C1821 H1824 0.999 . S
C1822 H1792 0.950 . S
C1822 C1821 1.524 . S
C1822 C1823 1.415 . S
C1823 H1793 0.950 . S
C1823 C1818 1.363 . S
C1823 C1822 1.415 . S
H1824 C1821 0.999 . S
H1825 C1806 0.913 . S
H1826 C1844 0.951 . S
H1827 C1846 0.951 . S
H1828 C1848 0.950 . S
H1829 C1849 0.950 . S
H1830 C1851 0.950 . S
H1831 C1854 0.950 . S
H1832 C1855 0.950 . S
H1833 C1857 0.950 . S
H1834 C1858 0.950 . S
H1835 C1859 0.955 . S
H1836 C1861 0.951 1_565 S
H1837 C1863 0.950 . S
H1838 C1864 0.950 . S
H1839 C1866 0.950 . S
H1840 C1869 0.950 . S
H1841 C1870 0.950 . S
H1842 C1872 0.950 . S
H1843 C1873 0.950 . S
C1844 H1826 0.951 . S
C1844 C1845 1.366 . S
C1844 C1846 1.388 . S
C1845 C1844 1.366 . S
C1845 C1849 1.385 . S
C1846 H1827 0.951 . S
C1846 C1844 1.388 . S
C1846 C1847 1.366 . S
C1847 C1846 1.366 . S
C1847 C1848 1.414 . S
C1847 C1850 1.499 . S
C1848 H1828 0.950 . S
C1848 C1847 1.414 . S
C1848 C1849 1.374 . S
C1849 H1829 0.950 . S
C1849 C1845 1.385 . S
C1849 C1848 1.374 . S
C1850 C1847 1.499 . S
C1850 C1851 1.373 . S
C1850 C1852 1.389 . S
C1851 H1830 0.950 . S
C1851 C1850 1.373 . S
C1851 C1867 1.377 . S
C1852 C1850 1.389 . S
C1852 C1853 1.524 . S
C1852 C1866 1.377 . S
C1853 C1852 1.524 . S
C1853 C1854 1.397 1_545 S
C1853 C1858 1.363 . S
C1854 H1831 0.950 . S
C1854 C1853 1.397 1_565 S
C1854 C1855 1.334 . S
C1855 H1832 0.950 . S
C1855 C1854 1.334 . S
C1855 C1856 1.287 . S
C1856 C1855 1.287 . S
C1856 C1857 1.524 1_565 S
C1856 H1875 0.913 . S
C1857 H1833 0.950 . S
C1857 C1856 1.524 1_545 S
C1857 C1858 1.415 . S
C1858 H1834 0.950 . S
C1858 C1853 1.363 . S
C1858 C1857 1.415 . S
C1859 H1835 0.955 . S
C1859 C1860 1.363 1_565 S
C1859 C1861 1.386 1_565 S
C1860 C1859 1.363 1_545 S
C1860 C1864 1.385 . S
C1861 H1836 0.951 1_545 S
C1861 C1859 1.386 1_545 S
C1861 C1862 1.366 . S
C1862 C1861 1.366 . S
C1862 C1863 1.414 . S
C1862 C1865 1.499 . S
C1863 H1837 0.950 . S
C1863 C1862 1.414 . S
C1863 C1864 1.374 . S
C1864 H1838 0.950 . S
C1864 C1860 1.385 . S
C1864 C1863 1.374 . S
C1865 C1862 1.499 . S
C1865 C1866 1.373 . S
C1865 C1867 1.389 . S
C1866 H1839 0.950 . S
C1866 C1852 1.377 . S
C1866 C1865 1.373 . S
C1867 C1851 1.377 . S
C1867 C1865 1.389 . S
C1867 C1868 1.524 . S
C1868 C1867 1.524 . S
C1868 C1869 1.397 . S
C1868 C1873 1.363 . S
C1869 H1840 0.950 . S
C1869 C1868 1.397 . S
C1869 C1870 1.334 . S
C1870 H1841 0.950 . S
C1870 C1869 1.334 . S
C1870 C1871 1.287 . S
C1871 C1870 1.287 . S
C1871 C1872 1.524 . S
C1871 H1874 0.999 . S
C1872 H1842 0.950 . S
C1872 C1871 1.524 . S
C1872 C1873 1.415 . S
C1873 H1843 0.950 . S
C1873 C1868 1.363 . S
C1873 C1872 1.415 . S
H1874 C1871 0.999 . S
H1875 C1856 0.913 . S
H1876 C1894 0.951 . S
H1877 C1896 0.951 . S
H1878 C1898 0.950 . S
H1879 C1899 0.950 . S
H1880 C1901 0.950 . S
H1881 C1904 0.950 . S
H1882 C1905 0.950 . S
H1883 C1907 0.950 . S
H1884 C1908 0.950 . S
H1885 C1909 0.951 . S
H1886 C1911 0.951 . S
H1887 C1913 0.950 . S
H1888 C1914 0.950 . S
H1889 C1916 0.950 . S
H1890 C1919 0.950 . S
H1891 C1920 0.950 . S
H1892 C1922 0.950 . S
H1893 C1923 0.950 . S
C1894 H1876 0.951 . S
C1894 C1895 1.366 . S
C1894 C1896 1.388 . S
C1895 C1894 1.366 . S
C1895 C1899 1.385 . S
C1896 H1877 0.951 . S
C1896 C1894 1.388 . S
C1896 C1897 1.366 . S
C1897 C1896 1.366 . S
C1897 C1898 1.414 . S
C1897 C1900 1.499 . S
C1898 H1878 0.950 . S
C1898 C1897 1.414 . S
C1898 C1899 1.374 . S
C1899 H1879 0.950 . S
C1899 C1895 1.385 . S
C1899 C1898 1.374 . S
C1900 C1897 1.499 . S
C1900 C1901 1.373 . S
C1900 C1902 1.389 . S
C1901 H1880 0.950 . S
C1901 C1900 1.373 . S
C1901 C1917 1.377 . S
C1902 C1900 1.389 . S
C1902 C1903 1.524 . S
C1902 C1916 1.377 . S
C1903 C1902 1.524 . S
C1903 C1904 1.397 . S
C1903 C1908 1.363 . S
C1904 H1881 0.950 . S
C1904 C1903 1.397 . S
C1904 C1905 1.334 . S
C1905 H1882 0.950 . S
C1905 C1904 1.334 . S
C1905 C1906 1.287 . S
C1906 C1905 1.287 . S
C1906 C1907 1.524 . S
C1906 H1925 0.913 . S
C1907 H1883 0.950 . S
C1907 C1906 1.524 . S
C1907 C1908 1.415 . S
C1908 H1884 0.950 . S
C1908 C1903 1.363 . S
C1908 C1907 1.415 . S
C1909 H1885 0.951 . S
C1909 C1910 1.366 . S
C1909 C1911 1.388 . S
C1910 C1909 1.366 . S
C1910 C1914 1.385 . S
C1911 H1886 0.951 . S
C1911 C1909 1.388 . S
C1911 C1912 1.366 . S
C1912 C1911 1.366 . S
C1912 C1913 1.414 . S
C1912 C1915 1.499 . S
C1913 H1887 0.950 . S
C1913 C1912 1.414 . S
C1913 C1914 1.374 . S
C1914 H1888 0.950 . S
C1914 C1910 1.385 . S
C1914 C1913 1.374 . S
C1915 C1912 1.499 . S
C1915 C1916 1.373 . S
C1915 C1917 1.389 . S
C1916 H1889 0.950 . S
C1916 C1902 1.377 . S
C1916 C1915 1.373 . S
C1917 C1901 1.377 . S
C1917 C1915 1.389 . S
C1917 C1918 1.524 . S
C1918 C1917 1.524 . S
C1918 C1919 1.397 . S
C1918 C1923 1.363 . S
C1919 H1890 0.950 . S
C1919 C1918 1.397 . S
C1919 C1920 1.334 . S
C1920 H1891 0.950 . S
C1920 C1919 1.334 . S
C1920 C1921 1.287 . S
C1921 C1920 1.287 . S
C1921 C1922 1.524 . S
C1921 H1924 0.999 . S
C1922 H1892 0.950 . S
C1922 C1921 1.524 . S
C1922 C1923 1.415 . S
C1923 H1893 0.950 . S
C1923 C1918 1.363 . S
C1923 C1922 1.415 . S
H1924 C1921 0.999 . S
H1925 C1906 0.913 . S
H1926 C1944 0.951 . S
H1927 C1946 0.951 . S
H1928 C1948 0.950 . S
H1929 C1949 0.950 . S
H1930 C1951 0.950 . S
H1931 C1954 0.950 . S
H1932 C1955 0.950 . S
H1933 C1957 0.950 . S
H1934 C1958 0.950 . S
H1935 C1959 0.951 . S
H1936 C1961 0.951 . S
H1937 C1963 0.950 . S
H1938 C1964 0.950 . S
H1939 C1966 0.950 . S
H1940 C1969 0.950 . S
H1941 C1970 0.950 . S
H1942 C1972 0.950 . S
H1943 C1973 0.950 . S
C1944 H1926 0.951 . S
C1944 C1945 1.366 . S
C1944 C1946 1.388 . S
C1945 C1944 1.366 . S
C1945 C1949 1.385 . S
C1946 H1927 0.951 . S
C1946 C1944 1.388 . S
C1946 C1947 1.366 . S
C1947 C1946 1.366 . S
C1947 C1948 1.414 . S
C1947 C1950 1.499 . S
C1948 H1928 0.950 . S
C1948 C1947 1.414 . S
C1948 C1949 1.374 . S
C1949 H1929 0.950 . S
C1949 C1945 1.385 . S
C1949 C1948 1.374 . S
C1950 C1947 1.499 . S
C1950 C1951 1.373 . S
C1950 C1952 1.389 . S
C1951 H1930 0.950 . S
C1951 C1950 1.373 . S
C1951 C1967 1.377 . S
C1952 C1950 1.389 . S
C1952 C1953 1.524 . S
C1952 C1966 1.377 . S
C1953 C1952 1.524 . S
C1953 C1954 1.397 . S
C1953 C1958 1.363 . S
C1954 H1931 0.950 . S
C1954 C1953 1.397 . S
C1954 C1955 1.334 . S
C1955 H1932 0.950 . S
C1955 C1954 1.334 . S
C1955 C1956 1.287 . S
C1956 C1955 1.287 . S
C1956 C1957 1.524 . S
C1956 H1975 0.913 . S
C1957 H1933 0.950 . S
C1957 C1956 1.524 . S
C1957 C1958 1.415 . S
C1958 H1934 0.950 . S
C1958 C1953 1.363 . S
C1958 C1957 1.415 . S
C1959 H1935 0.951 . S
C1959 C1960 1.366 . S
C1959 C1961 1.388 . S
C1960 C1959 1.366 . S
C1960 C1964 1.385 . S
C1961 H1936 0.951 . S
C1961 C1959 1.388 . S
C1961 C1962 1.366 . S
C1962 C1961 1.366 . S
C1962 C1963 1.414 . S
C1962 C1965 1.499 . S
C1963 H1937 0.950 . S
C1963 C1962 1.414 . S
C1963 C1964 1.374 . S
C1964 H1938 0.950 . S
C1964 C1960 1.385 . S
C1964 C1963 1.374 . S
C1965 C1962 1.499 . S
C1965 C1966 1.373 . S
C1965 C1967 1.389 . S
C1966 H1939 0.950 . S
C1966 C1952 1.377 . S
C1966 C1965 1.373 . S
C1967 C1951 1.377 . S
C1967 C1965 1.389 . S
C1967 C1968 1.524 . S
C1968 C1967 1.524 . S
C1968 C1969 1.397 . S
C1968 C1973 1.363 . S
C1969 H1940 0.950 . S
C1969 C1968 1.397 . S
C1969 C1970 1.334 . S
C1970 H1941 0.950 . S
C1970 C1969 1.334 . S
C1970 C1971 1.287 . S
C1971 C1970 1.287 . S
C1971 C1972 1.524 . S
C1971 H1974 0.999 . S
C1972 H1942 0.950 . S
C1972 C1971 1.524 . S
C1972 C1973 1.415 . S
C1973 H1943 0.950 . S
C1973 C1968 1.363 . S
C1973 C1972 1.415 . S
H1974 C1971 0.999 . S
H1975 C1956 0.913 . S
H1976 C1994 0.951 . S
H1977 C1996 0.951 . S
H1978 C1998 0.950 . S
H1979 C1999 0.950 . S
H1980 C2001 0.950 . S
H1981 C2004 0.950 . S
H1982 C2005 0.950 . S
H1983 C2007 0.950 . S
H1984 C2008 0.950 . S
H1985 C2009 0.951 . S
H1986 C2011 0.951 . S
H1987 C2013 0.950 . S
H1988 C2014 0.950 . S
H1989 C2016 0.950 . S
H1990 C2019 0.950 . S
H1991 C2020 0.950 . S
H1992 C2022 0.950 . S
H1993 C2023 0.950 . S
C1994 H1976 0.951 . S
C1994 C1995 1.366 . S
C1994 C1996 1.388 . S
C1995 C1994 1.366 . S
C1995 C1999 1.385 . S
C1996 H1977 0.951 . S
C1996 C1994 1.388 . S
C1996 C1997 1.366 . S
C1997 C1996 1.366 . S
C1997 C1998 1.414 . S
C1997 C2000 1.499 . S
C1998 H1978 0.950 . S
C1998 C1997 1.414 . S
C1998 C1999 1.374 . S
C1999 H1979 0.950 . S
C1999 C1995 1.385 . S
C1999 C1998 1.374 . S
C2000 C1997 1.499 . S
C2000 C2001 1.373 . S
C2000 C2002 1.389 . S
C2001 H1980 0.950 . S
C2001 C2000 1.373 . S
C2001 C2017 1.377 . S
C2002 C2000 1.389 . S
C2002 C2003 1.524 . S
C2002 C2016 1.377 . S
C2003 C2002 1.524 . S
C2003 C2004 1.397 . S
C2003 C2008 1.363 . S
C2004 H1981 0.950 . S
C2004 C2003 1.397 . S
C2004 C2005 1.334 . S
C2005 H1982 0.950 . S
C2005 C2004 1.334 . S
C2005 C2006 1.287 . S
C2006 C2005 1.287 . S
C2006 C2007 1.524 . S
C2006 H2025 0.913 . S
C2007 H1983 0.950 . S
C2007 C2006 1.524 . S
C2007 C2008 1.415 . S
C2008 H1984 0.950 . S
C2008 C2003 1.363 . S
C2008 C2007 1.415 . S
C2009 H1985 0.951 . S
C2009 C2010 1.366 . S
C2009 C2011 1.388 . S
C2010 C2009 1.366 . S
C2010 C2014 1.385 . S
C2011 H1986 0.951 . S
C2011 C2009 1.388 . S
C2011 C2012 1.366 . S
C2012 C2011 1.366 . S
C2012 C2013 1.414 . S
C2012 C2015 1.499 . S
C2013 H1987 0.950 . S
C2013 C2012 1.414 . S
C2013 C2014 1.374 . S
C2014 H1988 0.950 . S
C2014 C2010 1.385 . S
C2014 C2013 1.374 . S
C2015 C2012 1.499 . S
C2015 C2016 1.373 . S
C2015 C2017 1.389 . S
C2016 H1989 0.950 . S
C2016 C2002 1.377 . S
C2016 C2015 1.373 . S
C2017 C2001 1.377 . S
C2017 C2015 1.389 . S
C2017 C2018 1.524 . S
C2018 C2017 1.524 . S
C2018 C2019 1.397 . S
C2018 C2023 1.363 . S
C2019 H1990 0.950 . S
C2019 C2018 1.397 . S
C2019 C2020 1.334 . S
C2020 H1991 0.950 . S
C2020 C2019 1.334 . S
C2020 C2021 1.287 . S
C2021 C2020 1.287 . S
C2021 C2022 1.524 . S
C2021 H2024 0.999 . S
C2022 H1992 0.950 . S
C2022 C2021 1.524 . S
C2022 C2023 1.415 . S
C2023 H1993 0.950 . S
C2023 C2018 1.363 . S
C2023 C2022 1.415 . S
H2024 C2021 0.999 . S
H2025 C2006 0.913 . S
H2026 C2044 0.951 1_565 S
H2027 C2046 0.951 1_565 S
H2028 C2048 0.950 . S
H2029 C2049 0.950 . S
H2030 C2051 0.950 . S
H2031 C2054 0.950 . S
H2032 C2055 0.983 . S
H2033 C2057 0.950 . S
H2034 C2058 0.950 . S
H2035 C2059 0.951 . S
H2036 C2061 0.951 . S
H2037 C2063 0.950 . S
H2038 C2064 0.950 . S
H2039 C2066 0.950 1_565 S
H2040 C2069 0.950 . S
H2041 C2070 0.950 . S
H2042 C2072 0.950 . S
H2043 C2073 0.950 . S
C2044 H2026 0.951 1_545 S
C2044 C2045 1.366 . S
C2044 C2046 1.388 1_455 S
C2045 C2044 1.366 . S
C2045 C2049 1.385 . S
C2046 H2027 0.951 1_545 S
C2046 C2044 1.388 1_655 S
C2046 C2047 1.366 . S
C2047 C2046 1.366 . S
C2047 C2048 1.414 . S
C2047 C2050 1.499 . S
C2048 H2028 0.950 . S
C2048 C2047 1.414 . S
C2048 C2049 1.374 1_655 S
C2049 H2029 0.950 . S
C2049 C2045 1.385 . S
C2049 C2048 1.374 1_455 S
C2050 C2047 1.499 . S
C2050 C2051 1.373 . S
C2050 C2052 1.389 . S
C2051 H2030 0.950 . S
C2051 C2050 1.373 . S
C2051 C2067 1.377 . S
C2052 C2050 1.389 . S
C2052 C2053 1.524 1_545 S
C2052 C2066 1.377 . S
C2053 C2052 1.524 1_565 S
C2053 C2054 1.397 1_565 S
C2053 C2058 1.363 . S
C2054 H2031 0.950 . S
C2054 C2053 1.397 1_545 S
C2054 C2055 1.358 . S
C2055 H2032 0.983 . S
C2055 C2054 1.358 . S
C2055 C2056 1.231 1_545 S
C2056 C2055 1.231 1_565 S
C2056 C2057 1.524 . S
C2056 H2075 0.913 . S
C2057 H2033 0.950 . S
C2057 C2056 1.524 . S
C2057 C2058 1.415 . S
C2058 H2034 0.950 . S
C2058 C2053 1.363 . S
C2058 C2057 1.415 . S
C2059 H2035 0.951 . S
C2059 C2060 1.366 . S
C2059 C2061 1.388 . S
C2060 C2059 1.366 . S
C2060 C2064 1.385 1_545 S
C2061 H2036 0.951 . S
C2061 C2059 1.388 . S
C2061 C2062 1.366 . S
C2062 C2061 1.366 . S
C2062 C2063 1.414 1_545 S
C2062 C2065 1.499 . S
C2063 H2037 0.950 . S
C2063 C2062 1.414 1_565 S
C2063 C2064 1.374 . S
C2064 H2038 0.950 . S
C2064 C2060 1.385 1_565 S
C2064 C2063 1.374 . S
C2065 C2062 1.499 . S
C2065 C2066 1.373 . S
C2065 C2067 1.389 . S
C2066 H2039 0.950 1_545 S
C2066 C2052 1.377 . S
C2066 C2065 1.373 . S
C2067 C2051 1.377 . S
C2067 C2065 1.389 . S
C2067 C2068 1.524 . S
C2068 C2067 1.524 . S
C2068 C2069 1.397 . S
C2068 C2073 1.363 . S
C2069 H2040 0.950 . S
C2069 C2068 1.397 . S
C2069 C2070 1.334 . S
C2070 H2041 0.950 . S
C2070 C2069 1.334 . S
C2070 C2071 1.287 . S
C2071 C2070 1.287 . S
C2071 C2072 1.524 . S
C2071 H2074 0.999 . S
C2072 H2042 0.950 . S
C2072 C2071 1.524 . S
C2072 C2073 1.415 . S
C2073 H2043 0.950 . S
C2073 C2068 1.363 . S
C2073 C2072 1.415 . S
H2074 C2071 0.999 . S
H2075 C2056 0.913 . S
H2076 C2094 0.951 . S
H2077 C2096 0.951 . S
H2078 C2098 0.950 . S
H2079 C2099 0.950 . S
H2080 C2101 0.950 . S
H2081 C2104 0.950 . S
H2082 C2105 0.950 . S
H2083 C2107 0.950 . S
H2084 C2108 0.950 . S
H2085 C2109 0.951 . S
H2086 C2111 0.951 . S
H2087 C2113 0.950 . S
H2088 C2114 0.950 . S
H2089 C2116 0.950 . S
H2090 C2119 0.950 . S
H2091 C2120 0.950 . S
H2092 C2122 0.950 . S
H2093 C2123 0.950 . S
C2094 H2076 0.951 . S
C2094 C2095 1.366 . S
C2094 C2096 1.388 . S
C2095 C2094 1.366 . S
C2095 C2099 1.385 . S
C2096 H2077 0.951 . S
C2096 C2094 1.388 . S
C2096 C2097 1.366 . S
C2097 C2096 1.366 . S
C2097 C2098 1.414 . S
C2097 C2100 1.499 . S
C2098 H2078 0.950 . S
C2098 C2097 1.414 . S
C2098 C2099 1.374 . S
C2099 H2079 0.950 . S
C2099 C2095 1.385 . S
C2099 C2098 1.374 . S
C2100 C2097 1.499 . S
C2100 C2101 1.373 . S
C2100 C2102 1.389 . S
C2101 H2080 0.950 . S
C2101 C2100 1.373 . S
C2101 C2117 1.377 . S
C2102 C2100 1.389 . S
C2102 C2103 1.524 . S
C2102 C2116 1.377 . S
C2103 C2102 1.524 . S
C2103 C2104 1.397 . S
C2103 C2108 1.363 . S
C2104 H2081 0.950 . S
C2104 C2103 1.397 . S
C2104 C2105 1.334 . S
C2105 H2082 0.950 . S
C2105 C2104 1.334 . S
C2105 C2106 1.287 . S
C2106 C2105 1.287 . S
C2106 C2107 1.524 . S
C2106 H2125 0.913 . S
C2107 H2083 0.950 . S
C2107 C2106 1.524 . S
C2107 C2108 1.415 . S
C2108 H2084 0.950 . S
C2108 C2103 1.363 . S
C2108 C2107 1.415 . S
C2109 H2085 0.951 . S
C2109 C2110 1.366 . S
C2109 C2111 1.388 . S
C2110 C2109 1.366 . S
C2110 C2114 1.385 . S
C2111 H2086 0.951 . S
C2111 C2109 1.388 . S
C2111 C2112 1.366 . S
C2112 C2111 1.366 . S
C2112 C2113 1.414 . S
C2112 C2115 1.499 . S
C2113 H2087 0.950 . S
C2113 C2112 1.414 . S
C2113 C2114 1.374 . S
C2114 H2088 0.950 . S
C2114 C2110 1.385 . S
C2114 C2113 1.374 . S
C2115 C2112 1.499 . S
C2115 C2116 1.373 . S
C2115 C2117 1.389 . S
C2116 H2089 0.950 . S
C2116 C2102 1.377 . S
C2116 C2115 1.373 . S
C2117 C2101 1.377 . S
C2117 C2115 1.389 . S
C2117 C2118 1.524 . S
C2118 C2117 1.524 . S
C2118 C2119 1.397 . S
C2118 C2123 1.363 . S
C2119 H2090 0.950 . S
C2119 C2118 1.397 . S
C2119 C2120 1.334 . S
C2120 H2091 0.950 . S
C2120 C2119 1.334 . S
C2120 C2121 1.287 . S
C2121 C2120 1.287 . S
C2121 C2122 1.524 . S
C2121 H2124 0.999 . S
C2122 H2092 0.950 . S
C2122 C2121 1.524 . S
C2122 C2123 1.415 . S
C2123 H2093 0.950 . S
C2123 C2118 1.363 . S
C2123 C2122 1.415 . S
H2124 C2121 0.999 . S
H2125 C2106 0.913 . S
H2126 C2144 0.951 . S
H2127 C2146 0.951 . S
H2128 C2148 0.950 . S
H2129 C2149 0.950 . S
H2130 C2151 0.950 . S
H2131 C2154 0.950 . S
H2132 C2155 0.950 . S
H2133 C2157 0.950 . S
H2134 C2158 0.950 . S
H2135 C2159 0.951 . S
H2136 C2161 0.951 . S
H2137 C2163 0.950 . S
H2138 C2164 0.950 . S
H2139 C2166 0.950 . S
H2140 C2169 0.950 . S
H2141 C2170 0.950 . S
H2142 C2172 0.950 . S
H2143 C2173 0.950 . S
C2144 H2126 0.951 . S
C2144 C2145 1.366 1_455 S
C2144 C2146 1.388 . S
C2145 C2144 1.366 1_655 S
C2145 C2149 1.385 . S
C2146 H2127 0.951 . S
C2146 C2144 1.388 . S
C2146 C2147 1.366 . S
C2147 C2146 1.366 . S
C2147 C2148 1.414 . S
C2147 C2150 1.499 . S
C2148 H2128 0.950 . S
C2148 C2147 1.414 . S
C2148 C2149 1.374 1_455 S
C2149 H2129 0.950 . S
C2149 C2145 1.385 . S
C2149 C2148 1.374 1_655 S
C2150 C2147 1.499 . S
C2150 C2151 1.373 . S
C2150 C2152 1.389 . S
C2151 H2130 0.950 . S
C2151 C2150 1.373 . S
C2151 C2167 1.377 . S
C2152 C2150 1.389 . S
C2152 C2153 1.524 . S
C2152 C2166 1.377 . S
C2153 C2152 1.524 . S
C2153 C2154 1.397 1_455 S
C2153 C2158 1.363 . S
C2154 H2131 0.950 . S
C2154 C2153 1.397 1_655 S
C2154 C2155 1.334 . S
C2155 H2132 0.950 . S
C2155 C2154 1.334 . S
C2155 C2156 1.287 . S
C2156 C2155 1.287 . S
C2156 C2157 1.524 1_655 S
C2156 H2175 0.913 . S
C2157 H2133 0.950 . S
C2157 C2156 1.524 1_455 S
C2157 C2158 1.415 . S
C2158 H2134 0.950 . S
C2158 C2153 1.363 . S
C2158 C2157 1.415 . S
C2159 H2135 0.951 . S
C2159 C2160 1.366 . S
C2159 C2161 1.388 . S
C2160 C2159 1.366 . S
C2160 C2164 1.385 . S
C2161 H2136 0.951 . S
C2161 C2159 1.388 . S
C2161 C2162 1.366 . S
C2162 C2161 1.366 . S
C2162 C2163 1.414 . S
C2162 C2165 1.499 . S
C2163 H2137 0.950 . S
C2163 C2162 1.414 . S
C2163 C2164 1.374 . S
C2164 H2138 0.950 . S
C2164 C2160 1.385 . S
C2164 C2163 1.374 . S
C2165 C2162 1.499 . S
C2165 C2166 1.373 . S
C2165 C2167 1.389 . S
C2166 H2139 0.950 . S
C2166 C2152 1.377 . S
C2166 C2165 1.373 . S
C2167 C2151 1.377 . S
C2167 C2165 1.389 . S
C2167 C2168 1.524 . S
C2168 C2167 1.524 . S
C2168 C2169 1.397 . S
C2168 C2173 1.363 . S
C2169 H2140 0.950 . S
C2169 C2168 1.397 . S
C2169 C2170 1.334 . S
C2170 H2141 0.950 . S
C2170 C2169 1.334 . S
C2170 C2171 1.287 . S
C2171 C2170 1.287 . S
C2171 C2172 1.524 . S
C2171 H2174 0.999 . S
C2172 H2142 0.950 . S
C2172 C2171 1.524 . S
C2172 C2173 1.415 . S
C2173 H2143 0.950 . S
C2173 C2168 1.363 . S
C2173 C2172 1.415 . S
H2174 C2171 0.999 . S
H2175 C2156 0.913 . S
H2176 C2194 0.951 . S
H2177 C2196 0.951 . S
H2178 C2198 0.950 . S
H2179 C2199 0.950 . S
H2180 C2201 0.950 . S
H2181 C2204 0.950 . S
H2182 C2205 0.950 . S
H2183 C2207 0.950 . S
H2184 C2208 0.950 . S
H2185 C2209 0.951 . S
H2186 C2211 0.951 . S
H2187 C2213 0.950 . S
H2188 C2214 0.950 . S
H2189 C2216 0.950 . S
H2190 C2219 0.950 . S
H2191 C2220 0.950 . S
H2192 C2222 0.950 . S
H2193 C2223 0.950 . S
C2194 H2176 0.951 . S
C2194 C2195 1.366 . S
C2194 C2196 1.388 . S
C2195 C2194 1.366 . S
C2195 C2199 1.385 . S
C2196 H2177 0.951 . S
C2196 C2194 1.388 . S
C2196 C2197 1.366 . S
C2197 C2196 1.366 . S
C2197 C2198 1.414 . S
C2197 C2200 1.499 . S
C2198 H2178 0.950 . S
C2198 C2197 1.414 . S
C2198 C2199 1.374 . S
C2199 H2179 0.950 . S
C2199 C2195 1.385 . S
C2199 C2198 1.374 . S
C2200 C2197 1.499 . S
C2200 C2201 1.373 . S
C2200 C2202 1.389 . S
C2201 H2180 0.950 . S
C2201 C2200 1.373 . S
C2201 C2217 1.377 . S
C2202 C2200 1.389 . S
C2202 C2203 1.524 . S
C2202 C2216 1.377 . S
C2203 C2202 1.524 . S
C2203 C2204 1.397 . S
C2203 C2208 1.363 . S
C2204 H2181 0.950 . S
C2204 C2203 1.397 . S
C2204 C2205 1.334 . S
C2205 H2182 0.950 . S
C2205 C2204 1.334 . S
C2205 C2206 1.287 . S
C2206 C2205 1.287 . S
C2206 C2207 1.524 . S
C2206 H2225 0.913 . S
C2207 H2183 0.950 . S
C2207 C2206 1.524 . S
C2207 C2208 1.415 . S
C2208 H2184 0.950 . S
C2208 C2203 1.363 . S
C2208 C2207 1.415 . S
C2209 H2185 0.951 . S
C2209 C2210 1.366 . S
C2209 C2211 1.388 . S
C2210 C2209 1.366 . S
C2210 C2214 1.385 . S
C2211 H2186 0.951 . S
C2211 C2209 1.388 . S
C2211 C2212 1.366 . S
C2212 C2211 1.366 . S
C2212 C2213 1.414 . S
C2212 C2215 1.499 . S
C2213 H2187 0.950 . S
C2213 C2212 1.414 . S
C2213 C2214 1.374 . S
C2214 H2188 0.950 . S
C2214 C2210 1.385 . S
C2214 C2213 1.374 . S
C2215 C2212 1.499 . S
C2215 C2216 1.373 . S
C2215 C2217 1.389 . S
C2216 H2189 0.950 . S
C2216 C2202 1.377 . S
C2216 C2215 1.373 . S
C2217 C2201 1.377 . S
C2217 C2215 1.389 . S
C2217 C2218 1.524 . S
C2218 C2217 1.524 . S
C2218 C2219 1.397 . S
C2218 C2223 1.363 . S
C2219 H2190 0.950 . S
C2219 C2218 1.397 . S
C2219 C2220 1.334 . S
C2220 H2191 0.950 . S
C2220 C2219 1.334 . S
C2220 C2221 1.287 . S
C2221 C2220 1.287 . S
C2221 C2222 1.524 . S
C2221 H2224 0.999 . S
C2222 H2192 0.950 . S
C2222 C2221 1.524 . S
C2222 C2223 1.415 . S
C2223 H2193 0.950 . S
C2223 C2218 1.363 . S
C2223 C2222 1.415 . S
H2224 C2221 0.999 . S
H2225 C2206 0.913 . S
H2226 C2244 0.951 . S
H2227 C2246 0.951 . S
H2228 C2248 0.950 1_455 S
H2229 C2249 0.949 1_455 S
H2230 C2251 0.950 . S
H2231 C2254 0.950 1_455 S
H2232 C2255 0.950 1_455 S
H2233 C2257 0.950 . S
H2234 C2258 0.950 1_556 S
H2235 C2259 0.951 . S
H2236 C2261 0.951 . S
H2237 C2263 0.950 . S
H2238 C2264 0.950 . S
H2239 C2266 0.950 . S
H2240 C2269 0.950 . S
H2241 C2270 0.950 . S
H2242 C2272 0.950 . S
H2243 C2273 0.950 . S
C2244 H2226 0.951 . S
C2244 C2245 1.366 . S
C2244 C2246 1.388 1_554 S
C2245 C2244 1.366 . S
C2245 C2249 1.385 1_554 S
C2246 H2227 0.951 . S
C2246 C2244 1.388 1_556 S
C2246 C2247 1.366 . S
C2247 C2246 1.366 . S
C2247 C2248 1.414 . S
C2247 C2250 1.499 . S
C2248 H2228 0.950 1_655 S
C2248 C2247 1.414 . S
C2248 C2249 1.374 . S
C2249 H2229 0.949 1_655 S
C2249 C2245 1.385 1_556 S
C2249 C2248 1.374 . S
C2250 C2247 1.499 . S
C2250 C2251 1.373 . S
C2250 C2252 1.389 . S
C2251 H2230 0.950 . S
C2251 C2250 1.373 . S
C2251 C2267 1.377 . S
C2252 C2250 1.389 . S
C2252 C2253 1.524 . S
C2252 C2266 1.377 . S
C2253 C2252 1.524 . S
C2253 C2254 1.397 1_556 S
C2253 C2258 1.363 1_556 S
C2254 H2231 0.950 1_655 S
C2254 C2253 1.397 1_554 S
C2254 C2255 1.334 . S
C2255 H2232 0.950 1_655 S
C2255 C2254 1.334 . S
C2255 C2256 1.287 . S
C2256 C2255 1.287 . S
C2256 C2257 1.524 . S
C2256 H2275 0.913 . S
C2257 H2233 0.950 . S
C2257 C2256 1.524 . S
C2257 C2258 1.415 . S
C2258 H2234 0.950 1_554 S
C2258 C2253 1.363 1_554 S
C2258 C2257 1.415 . S
C2259 H2235 0.951 . S
C2259 C2260 1.366 1_455 S
C2259 C2261 1.388 . S
C2260 C2259 1.366 1_655 S
C2260 C2264 1.385 . S
C2261 H2236 0.951 . S
C2261 C2259 1.388 . S
C2261 C2262 1.366 1_455 S
C2262 C2261 1.366 1_655 S
C2262 C2263 1.414 . S
C2262 C2265 1.499 . S
C2263 H2237 0.950 . S
C2263 C2262 1.414 . S
C2263 C2264 1.374 . S
C2264 H2238 0.950 . S
C2264 C2260 1.385 . S
C2264 C2263 1.374 . S
C2265 C2262 1.499 . S
C2265 C2266 1.373 . S
C2265 C2267 1.389 . S
C2266 H2239 0.950 . S
C2266 C2252 1.377 . S
C2266 C2265 1.373 . S
C2267 C2251 1.377 . S
C2267 C2265 1.389 . S
C2267 C2268 1.524 . S
C2268 C2267 1.524 . S
C2268 C2269 1.397 . S
C2268 C2273 1.363 1_655 S
C2269 H2240 0.950 . S
C2269 C2268 1.397 . S
C2269 C2270 1.334 . S
C2270 H2241 0.950 . S
C2270 C2269 1.334 . S
C2270 C2271 1.287 . S
C2271 C2270 1.287 . S
C2271 C2272 1.524 1_655 S
C2271 H2274 0.999 . S
C2272 H2242 0.950 . S
C2272 C2271 1.524 1_455 S
C2272 C2273 1.415 . S
C2273 H2243 0.950 . S
C2273 C2268 1.363 1_455 S
C2273 C2272 1.415 . S
H2274 C2271 0.999 . S
H2275 C2256 0.913 . S
H2276 C2294 0.951 . S
H2277 C2296 0.951 . S
H2278 C2298 0.950 . S
H2279 C2299 0.950 . S
H2280 C2301 0.950 . S
H2281 C2304 0.950 . S
H2282 C2305 0.950 . S
H2283 C2307 0.950 . S
H2284 C2308 0.950 . S
H2285 C2309 0.951 . S
H2286 C2311 0.951 . S
H2287 C2313 0.950 . S
H2288 C2314 0.950 . S
H2289 C2316 0.950 . S
H2290 C2319 0.950 . S
H2291 C2320 0.950 . S
H2292 C2322 0.950 . S
H2293 C2323 0.950 . S
C2294 H2276 0.951 . S
C2294 C2295 1.366 . S
C2294 C2296 1.388 . S
C2295 C2294 1.366 . S
C2295 C2299 1.385 . S
C2296 H2277 0.951 . S
C2296 C2294 1.388 . S
C2296 C2297 1.366 . S
C2297 C2296 1.366 . S
C2297 C2298 1.414 . S
C2297 C2300 1.499 . S
C2298 H2278 0.950 . S
C2298 C2297 1.414 . S
C2298 C2299 1.374 . S
C2299 H2279 0.950 . S
C2299 C2295 1.385 . S
C2299 C2298 1.374 . S
C2300 C2297 1.499 . S
C2300 C2301 1.373 . S
C2300 C2302 1.389 . S
C2301 H2280 0.950 . S
C2301 C2300 1.373 . S
C2301 C2317 1.377 . S
C2302 C2300 1.389 . S
C2302 C2303 1.524 . S
C2302 C2316 1.377 . S
C2303 C2302 1.524 . S
C2303 C2304 1.397 . S
C2303 C2308 1.363 . S
C2304 H2281 0.950 . S
C2304 C2303 1.397 . S
C2304 C2305 1.334 . S
C2305 H2282 0.950 . S
C2305 C2304 1.334 . S
C2305 C2306 1.287 . S
C2306 C2305 1.287 . S
C2306 C2307 1.524 . S
C2306 H2325 0.913 . S
C2307 H2283 0.950 . S
C2307 C2306 1.524 . S
C2307 C2308 1.415 . S
C2308 H2284 0.950 . S
C2308 C2303 1.363 . S
C2308 C2307 1.415 . S
C2309 H2285 0.951 . S
C2309 C2310 1.366 . S
C2309 C2311 1.388 . S
C2310 C2309 1.366 . S
C2310 C2314 1.385 . S
C2311 H2286 0.951 . S
C2311 C2309 1.388 . S
C2311 C2312 1.366 . S
C2312 C2311 1.366 . S
C2312 C2313 1.414 . S
C2312 C2315 1.499 . S
C2313 H2287 0.950 . S
C2313 C2312 1.414 . S
C2313 C2314 1.374 . S
C2314 H2288 0.950 . S
C2314 C2310 1.385 . S
C2314 C2313 1.374 . S
C2315 C2312 1.499 . S
C2315 C2316 1.373 . S
C2315 C2317 1.389 . S
C2316 H2289 0.950 . S
C2316 C2302 1.377 . S
C2316 C2315 1.373 . S
C2317 C2301 1.377 . S
C2317 C2315 1.389 . S
C2317 C2318 1.524 . S
C2318 C2317 1.524 . S
C2318 C2319 1.397 . S
C2318 C2323 1.363 . S
C2319 H2290 0.950 . S
C2319 C2318 1.397 . S
C2319 C2320 1.334 . S
C2320 H2291 0.950 . S
C2320 C2319 1.334 . S
C2320 C2321 1.287 . S
C2321 C2320 1.287 . S
C2321 C2322 1.524 . S
C2321 H2324 0.999 . S
C2322 H2292 0.950 . S
C2322 C2321 1.524 . S
C2322 C2323 1.415 . S
C2323 H2293 0.950 . S
C2323 C2318 1.363 . S
C2323 C2322 1.415 . S
H2324 C2321 0.999 . S
H2325 C2306 0.913 . S
H2326 C2344 0.951 . S
H2327 C2346 0.951 . S
H2328 C2348 0.950 1_655 S
H2329 C2349 0.940 1_654 S
H2330 C2351 0.950 . S
H2331 C2354 0.950 . S
H2332 C2355 0.950 . S
H2333 C2357 0.950 . S
H2334 C2358 0.992 . S
H2335 C2359 0.951 . S
H2336 C2361 0.951 . S
H2337 C2363 0.950 . S
H2338 C2364 0.950 . S
H2339 C2366 0.950 . S
H2340 C2369 0.950 . S
H2341 C2370 0.950 . S
H2342 C2372 0.950 . S
H2343 C2373 0.950 . S
C2344 H2326 0.951 . S
C2344 C2345 1.366 . S
C2344 C2346 1.388 1_554 S
C2345 C2344 1.366 . S
C2345 C2349 1.385 1_554 S
C2346 H2327 0.951 . S
C2346 C2344 1.388 1_556 S
C2346 C2347 1.366 . S
C2347 C2346 1.366 . S
C2347 C2348 1.414 . S
C2347 C2350 1.499 . S
C2348 H2328 0.950 1_455 S
C2348 C2347 1.414 . S
C2348 C2349 1.374 . S
C2349 H2329 0.940 1_456 S
C2349 C2345 1.385 1_556 S
C2349 C2348 1.374 . S
C2350 C2347 1.499 . S
C2350 C2351 1.373 . S
C2350 C2352 1.389 . S
C2351 H2330 0.950 . S
C2351 C2350 1.373 . S
C2351 C2367 1.377 . S
C2352 C2350 1.389 . S
C2352 C2353 1.524 . S
C2352 C2366 1.377 . S
C2353 C2352 1.524 . S
C2353 C2354 1.397 1_556 S
C2353 C2358 1.368 . S
C2354 H2331 0.950 . S
C2354 C2353 1.397 1_554 S
C2354 C2355 1.334 . S
C2355 H2332 0.950 . S
C2355 C2354 1.334 . S
C2355 C2356 1.287 . S
C2356 C2355 1.287 . S
C2356 C2357 1.524 . S
C2356 H2375 0.913 . S
C2357 H2333 0.950 . S
C2357 C2356 1.524 . S
C2357 C2358 1.370 1_554 S
C2358 H2334 0.992 . S
C2358 C2353 1.368 . S
C2358 C2357 1.370 1_556 S
C2359 H2335 0.951 . S
C2359 C2360 1.366 1_655 S
C2359 C2361 1.388 . S
C2360 C2359 1.366 1_455 S
C2360 C2364 1.385 . S
C2361 H2336 0.951 . S
C2361 C2359 1.388 . S
C2361 C2362 1.366 1_655 S
C2362 C2361 1.366 1_455 S
C2362 C2363 1.414 . S
C2362 C2365 1.499 . S
C2363 H2337 0.950 . S
C2363 C2362 1.414 . S
C2363 C2364 1.374 . S
C2364 H2338 0.950 . S
C2364 C2360 1.385 . S
C2364 C2363 1.374 . S
C2365 C2362 1.499 . S
C2365 C2366 1.373 . S
C2365 C2367 1.389 . S
C2366 H2339 0.950 . S
C2366 C2352 1.377 . S
C2366 C2365 1.373 . S
C2367 C2351 1.377 . S
C2367 C2365 1.389 . S
C2367 C2368 1.524 . S
C2368 C2367 1.524 . S
C2368 C2369 1.397 . S
C2368 C2373 1.363 1_455 S
C2369 H2340 0.950 . S
C2369 C2368 1.397 . S
C2369 C2370 1.334 . S
C2370 H2341 0.950 . S
C2370 C2369 1.334 . S
C2370 C2371 1.287 1_455 S
C2371 C2370 1.287 1_655 S
C2371 C2372 1.524 . S
C2371 H2374 0.999 . S
C2372 H2342 0.950 . S
C2372 C2371 1.524 . S
C2372 C2373 1.415 . S
C2373 H2343 0.950 . S
C2373 C2368 1.363 1_655 S
C2373 C2372 1.415 . S
H2374 C2371 0.999 . S
H2375 C2356 0.913 . S
H2376 C2394 0.951 . S
H2377 C2396 0.951 . S
H2378 C2398 0.950 . S
H2379 C2399 0.950 . S
H2380 C2401 0.950 . S
H2381 C2404 0.950 . S
H2382 C2405 0.950 . S
H2383 C2407 0.950 . S
H2384 C2408 0.950 . S
H2385 C2409 0.951 . S
H2386 C2411 0.951 . S
H2387 C2413 0.950 . S
H2388 C2414 0.950 . S
H2389 C2416 0.950 . S
H2390 C2419 0.950 . S
H2391 C2420 0.950 . S
H2392 C2422 0.950 . S
H2393 C2423 0.950 . S
C2394 H2376 0.951 . S
C2394 C2395 1.366 . S
C2394 C2396 1.388 . S
C2395 C2394 1.366 . S
C2395 C2399 1.385 . S
C2396 H2377 0.951 . S
C2396 C2394 1.388 . S
C2396 C2397 1.366 . S
C2397 C2396 1.366 . S
C2397 C2398 1.414 . S
C2397 C2400 1.499 . S
C2398 H2378 0.950 . S
C2398 C2397 1.414 . S
C2398 C2399 1.374 . S
C2399 H2379 0.950 . S
C2399 C2395 1.385 . S
C2399 C2398 1.374 . S
C2400 C2397 1.499 . S
C2400 C2401 1.373 . S
C2400 C2402 1.389 . S
C2401 H2380 0.950 . S
C2401 C2400 1.373 . S
C2401 C2417 1.377 . S
C2402 C2400 1.389 . S
C2402 C2403 1.524 . S
C2402 C2416 1.377 . S
C2403 C2402 1.524 . S
C2403 C2404 1.397 . S
C2403 C2408 1.363 . S
C2404 H2381 0.950 . S
C2404 C2403 1.397 . S
C2404 C2405 1.334 . S
C2405 H2382 0.950 . S
C2405 C2404 1.334 . S
C2405 C2406 1.287 . S
C2406 C2405 1.287 . S
C2406 C2407 1.524 . S
C2406 H2425 0.913 . S
C2407 H2383 0.950 . S
C2407 C2406 1.524 . S
C2407 C2408 1.415 . S
C2408 H2384 0.950 . S
C2408 C2403 1.363 . S
C2408 C2407 1.415 . S
C2409 H2385 0.951 . S
C2409 C2410 1.366 . S
C2409 C2411 1.388 . S
C2410 C2409 1.366 . S
C2410 C2414 1.385 . S
C2411 H2386 0.951 . S
C2411 C2409 1.388 . S
C2411 C2412 1.366 . S
C2412 C2411 1.366 . S
C2412 C2413 1.414 . S
C2412 C2415 1.499 . S
C2413 H2387 0.950 . S
C2413 C2412 1.414 . S
C2413 C2414 1.374 . S
C2414 H2388 0.950 . S
C2414 C2410 1.385 . S
C2414 C2413 1.374 . S
C2415 C2412 1.499 . S
C2415 C2416 1.373 . S
C2415 C2417 1.389 . S
C2416 H2389 0.950 . S
C2416 C2402 1.377 . S
C2416 C2415 1.373 . S
C2417 C2401 1.377 . S
C2417 C2415 1.389 . S
C2417 C2418 1.524 . S
C2418 C2417 1.524 . S
C2418 C2419 1.397 . S
C2418 C2423 1.363 . S
C2419 H2390 0.950 . S
C2419 C2418 1.397 . S
C2419 C2420 1.334 . S
C2420 H2391 0.950 . S
C2420 C2419 1.334 . S
C2420 C2421 1.287 . S
C2421 C2420 1.287 . S
C2421 C2422 1.524 . S
C2421 H2424 0.999 . S
C2422 H2392 0.950 . S
C2422 C2421 1.524 . S
C2422 C2423 1.415 . S
C2423 H2393 0.950 . S
C2423 C2418 1.363 . S
C2423 C2422 1.415 . S
H2424 C2421 0.999 . S
H2425 C2406 0.913 . S
H2426 C2444 0.951 . S
H2427 C2446 0.951 . S
H2428 C2448 0.950 . S
H2429 C2449 0.950 . S
H2430 C2451 0.950 . S
H2431 C2454 0.950 . S
H2432 C2455 0.950 . S
H2433 C2457 0.950 . S
H2434 C2458 0.950 . S
H2435 C2459 0.951 . S
H2436 C2461 0.951 . S
H2437 C2463 0.950 . S
H2438 C2464 0.950 . S
H2439 C2466 0.950 . S
H2440 C2469 0.950 . S
H2441 C2470 0.950 . S
H2442 C2472 0.950 . S
H2443 C2473 0.950 . S
C2444 H2426 0.951 . S
C2444 C2445 1.366 1_554 S
C2444 C2446 1.388 . S
C2445 C2444 1.366 1_556 S
C2445 C2449 1.385 . S
C2446 H2427 0.951 . S
C2446 C2444 1.388 . S
C2446 C2447 1.366 . S
C2447 C2446 1.366 . S
C2447 C2448 1.414 . S
C2447 C2450 1.499 . S
C2448 H2428 0.950 . S
C2448 C2447 1.414 . S
C2448 C2449 1.374 1_554 S
C2449 H2429 0.950 . S
C2449 C2445 1.385 . S
C2449 C2448 1.374 1_556 S
C2450 C2447 1.499 . S
C2450 C2451 1.373 . S
C2450 C2452 1.389 . S
C2451 H2430 0.950 . S
C2451 C2450 1.373 . S
C2451 C2467 1.377 . S
C2452 C2450 1.389 . S
C2452 C2453 1.524 . S
C2452 C2466 1.377 . S
C2453 C2452 1.524 . S
C2453 C2454 1.397 1_554 S
C2453 C2458 1.363 . S
C2454 H2431 0.950 . S
C2454 C2453 1.397 1_556 S
C2454 C2455 1.334 . S
C2455 H2432 0.950 . S
C2455 C2454 1.334 . S
C2455 C2456 1.287 . S
C2456 C2455 1.287 . S
C2456 C2457 1.524 1_556 S
C2456 H2475 0.913 . S
C2457 H2433 0.950 . S
C2457 C2456 1.524 1_554 S
C2457 C2458 1.415 . S
C2458 H2434 0.950 . S
C2458 C2453 1.363 . S
C2458 C2457 1.415 . S
C2459 H2435 0.951 . S
C2459 C2460 1.366 . S
C2459 C2461 1.388 . S
C2460 C2459 1.366 . S
C2460 C2464 1.385 . S
C2461 H2436 0.951 . S
C2461 C2459 1.388 . S
C2461 C2462 1.366 . S
C2462 C2461 1.366 . S
C2462 C2463 1.414 . S
C2462 C2465 1.499 . S
C2463 H2437 0.950 . S
C2463 C2462 1.414 . S
C2463 C2464 1.374 . S
C2464 H2438 0.950 . S
C2464 C2460 1.385 . S
C2464 C2463 1.374 . S
C2465 C2462 1.499 . S
C2465 C2466 1.373 . S
C2465 C2467 1.389 . S
C2466 H2439 0.950 . S
C2466 C2452 1.377 . S
C2466 C2465 1.373 . S
C2467 C2451 1.377 . S
C2467 C2465 1.389 . S
C2467 C2468 1.524 . S
C2468 C2467 1.524 . S
C2468 C2469 1.397 . S
C2468 C2473 1.363 . S
C2469 H2440 0.950 . S
C2469 C2468 1.397 . S
C2469 C2470 1.334 . S
C2470 H2441 0.950 . S
C2470 C2469 1.334 . S
C2470 C2471 1.287 . S
C2471 C2470 1.287 . S
C2471 C2472 1.524 . S
C2471 H2474 0.999 . S
C2472 H2442 0.950 . S
C2472 C2471 1.524 . S
C2472 C2473 1.415 . S
C2473 H2443 0.950 . S
C2473 C2468 1.363 . S
C2473 C2472 1.415 . S
H2474 C2471 0.999 . S
H2475 C2456 0.913 . S
H2476 C2494 0.951 . S
H2477 C2496 0.951 . S
H2478 C2498 0.950 . S
H2479 C2499 0.950 . S
H2480 C2501 0.950 . S
H2481 C2504 0.950 . S
H2482 C2505 0.950 . S
H2483 C2507 0.950 . S
H2484 C2508 0.950 . S
H2485 C2509 0.951 . S
H2486 C2511 0.951 . S
H2487 C2513 0.950 . S
H2488 C2514 0.950 . S
H2489 C2516 0.950 . S
H2490 C2519 0.950 . S
H2491 C2520 0.950 . S
H2492 C2522 0.950 . S
H2493 C2523 0.950 . S
C2494 H2476 0.951 . S
C2494 C2495 1.366 . S
C2494 C2496 1.388 . S
C2495 C2494 1.366 . S
C2495 C2499 1.385 . S
C2496 H2477 0.951 . S
C2496 C2494 1.388 . S
C2496 C2497 1.366 . S
C2497 C2496 1.366 . S
C2497 C2498 1.414 . S
C2497 C2500 1.499 . S
C2498 H2478 0.950 . S
C2498 C2497 1.414 . S
C2498 C2499 1.374 . S
C2499 H2479 0.950 . S
C2499 C2495 1.385 . S
C2499 C2498 1.374 . S
C2500 C2497 1.499 . S
C2500 C2501 1.373 . S
C2500 C2502 1.389 . S
C2501 H2480 0.950 . S
C2501 C2500 1.373 . S
C2501 C2517 1.377 . S
C2502 C2500 1.389 . S
C2502 C2503 1.524 . S
C2502 C2516 1.377 . S
C2503 C2502 1.524 . S
C2503 C2504 1.397 . S
C2503 C2508 1.363 . S
C2504 H2481 0.950 . S
C2504 C2503 1.397 . S
C2504 C2505 1.334 . S
C2505 H2482 0.950 . S
C2505 C2504 1.334 . S
C2505 C2506 1.287 . S
C2506 C2505 1.287 . S
C2506 C2507 1.524 . S
C2506 H2525 0.913 . S
C2507 H2483 0.950 . S
C2507 C2506 1.524 . S
C2507 C2508 1.415 . S
C2508 H2484 0.950 . S
C2508 C2503 1.363 . S
C2508 C2507 1.415 . S
C2509 H2485 0.951 . S
C2509 C2510 1.366 . S
C2509 C2511 1.388 . S
C2510 C2509 1.366 . S
C2510 C2514 1.385 . S
C2511 H2486 0.951 . S
C2511 C2509 1.388 . S
C2511 C2512 1.366 . S
C2512 C2511 1.366 . S
C2512 C2513 1.414 . S
C2512 C2515 1.499 . S
C2513 H2487 0.950 . S
C2513 C2512 1.414 . S
C2513 C2514 1.374 . S
C2514 H2488 0.950 . S
C2514 C2510 1.385 . S
C2514 C2513 1.374 . S
C2515 C2512 1.499 . S
C2515 C2516 1.373 . S
C2515 C2517 1.389 . S
C2516 H2489 0.950 . S
C2516 C2502 1.377 . S
C2516 C2515 1.373 . S
C2517 C2501 1.377 . S
C2517 C2515 1.389 . S
C2517 C2518 1.524 . S
C2518 C2517 1.524 . S
C2518 C2519 1.397 . S
C2518 C2523 1.363 . S
C2519 H2490 0.950 . S
C2519 C2518 1.397 . S
C2519 C2520 1.334 . S
C2520 H2491 0.950 . S
C2520 C2519 1.334 . S
C2520 C2521 1.287 . S
C2521 C2520 1.287 . S
C2521 C2522 1.524 . S
C2521 H2524 0.999 . S
C2522 H2492 0.950 . S
C2522 C2521 1.524 . S
C2522 C2523 1.415 . S
C2523 H2493 0.950 . S
C2523 C2518 1.363 . S
C2523 C2522 1.415 . S
H2524 C2521 0.999 . S
H2525 C2506 0.913 . S
H2526 C2544 0.951 . S
H2527 C2546 0.938 1_556 S
H2528 C2548 0.950 . S
H2529 C2549 0.950 . S
H2530 C2551 0.950 . S
H2531 C2554 0.950 . S
H2532 C2555 0.950 . S
H2533 C2557 0.950 . S
H2534 C2558 0.950 . S
H2535 C2559 0.951 . S
H2536 C2561 0.951 . S
H2537 C2563 0.950 . S
H2538 C2564 0.950 . S
H2539 C2566 0.950 . S
H2540 C2569 0.950 . S
H2541 C2570 0.950 . S
H2542 C2572 0.950 . S
H2543 C2573 0.950 . S
C2544 H2526 0.951 . S
C2544 C2545 1.366 . S
C2544 C2546 1.388 1_556 S
C2545 C2544 1.366 . S
C2545 C2549 1.385 1_556 S
C2546 H2527 0.938 1_554 S
C2546 C2544 1.388 1_554 S
C2546 C2547 1.366 . S
C2547 C2546 1.366 . S
C2547 C2548 1.414 . S
C2547 C2550 1.499 . S
C2548 H2528 0.950 . S
C2548 C2547 1.414 . S
C2548 C2549 1.374 . S
C2549 H2529 0.950 . S
C2549 C2545 1.385 1_554 S
C2549 C2548 1.374 . S
C2550 C2547 1.499 . S
C2550 C2551 1.373 . S
C2550 C2552 1.389 . S
C2551 H2530 0.950 . S
C2551 C2550 1.373 . S
C2551 C2567 1.377 . S
C2552 C2550 1.389 . S
C2552 C2553 1.524 . S
C2552 C2566 1.377 . S
C2553 C2552 1.524 . S
C2553 C2554 1.397 . S
C2553 C2558 1.363 . S
C2554 H2531 0.950 . S
C2554 C2553 1.397 . S
C2554 C2555 1.334 . S
C2555 H2532 0.950 . S
C2555 C2554 1.334 . S
C2555 C2556 1.287 . S
C2556 C2555 1.287 . S
C2556 C2557 1.524 . S
C2556 H2575 0.913 . S
C2557 H2533 0.950 . S
C2557 C2556 1.524 . S
C2557 C2558 1.415 . S
C2558 H2534 0.950 . S
C2558 C2553 1.363 . S
C2558 C2557 1.415 . S
C2559 H2535 0.951 . S
C2559 C2560 1.366 . S
C2559 C2561 1.388 . S
C2560 C2559 1.366 . S
C2560 C2564 1.385 . S
C2561 H2536 0.951 . S
C2561 C2559 1.388 . S
C2561 C2562 1.366 . S
C2562 C2561 1.366 . S
C2562 C2563 1.414 . S
C2562 C2565 1.499 . S
C2563 H2537 0.950 . S
C2563 C2562 1.414 . S
C2563 C2564 1.374 . S
C2564 H2538 0.950 . S
C2564 C2560 1.385 . S
C2564 C2563 1.374 . S
C2565 C2562 1.499 . S
C2565 C2566 1.373 . S
C2565 C2567 1.389 . S
C2566 H2539 0.950 . S
C2566 C2552 1.377 . S
C2566 C2565 1.373 . S
C2567 C2551 1.377 . S
C2567 C2565 1.389 . S
C2567 C2568 1.524 . S
C2568 C2567 1.524 . S
C2568 C2569 1.397 . S
C2568 C2573 1.363 . S
C2569 H2540 0.950 . S
C2569 C2568 1.397 . S
C2569 C2570 1.334 . S
C2570 H2541 0.950 . S
C2570 C2569 1.334 . S
C2570 C2571 1.287 . S
C2571 C2570 1.287 . S
C2571 C2572 1.524 . S
C2571 H2574 0.999 . S
C2572 H2542 0.950 . S
C2572 C2571 1.524 . S
C2572 C2573 1.415 . S
C2573 H2543 0.950 . S
C2573 C2568 1.363 . S
C2573 C2572 1.415 . S
H2574 C2571 0.999 . S
H2575 C2556 0.913 . S
H2576 C2594 0.951 . S
H2577 C2596 0.951 . S
H2578 C2598 0.950 . S
H2579 C2599 0.950 . S
H2580 C2601 0.950 . S
H2581 C2604 0.950 . S
H2582 C2605 0.950 . S
H2583 C2607 0.950 . S
H2584 C2608 0.950 . S
H2585 C2609 0.951 . S
H2586 C2611 0.951 . S
H2587 C2613 0.950 . S
H2588 C2614 0.950 . S
H2589 C2616 0.950 . S
H2590 C2619 0.950 . S
H2591 C2620 0.950 . S
H2592 C2622 0.950 . S
H2593 C2623 0.950 . S
C2594 H2576 0.951 . S
C2594 C2595 1.366 . S
C2594 C2596 1.388 . S
C2595 C2594 1.366 . S
C2595 C2599 1.385 . S
C2596 H2577 0.951 . S
C2596 C2594 1.388 . S
C2596 C2597 1.366 . S
C2597 C2596 1.366 . S
C2597 C2598 1.414 . S
C2597 C2600 1.499 . S
C2598 H2578 0.950 . S
C2598 C2597 1.414 . S
C2598 C2599 1.374 . S
C2599 H2579 0.950 . S
C2599 C2595 1.385 . S
C2599 C2598 1.374 . S
C2600 C2597 1.499 . S
C2600 C2601 1.373 . S
C2600 C2602 1.389 . S
C2601 H2580 0.950 . S
C2601 C2600 1.373 . S
C2601 C2617 1.377 . S
C2602 C2600 1.389 . S
C2602 C2603 1.524 . S
C2602 C2616 1.377 . S
C2603 C2602 1.524 . S
C2603 C2604 1.397 . S
C2603 C2608 1.363 . S
C2604 H2581 0.950 . S
C2604 C2603 1.397 . S
C2604 C2605 1.334 . S
C2605 H2582 0.950 . S
C2605 C2604 1.334 . S
C2605 C2606 1.287 . S
C2606 C2605 1.287 . S
C2606 C2607 1.524 . S
C2606 H2625 0.913 . S
C2607 H2583 0.950 . S
C2607 C2606 1.524 . S
C2607 C2608 1.415 . S
C2608 H2584 0.950 . S
C2608 C2603 1.363 . S
C2608 C2607 1.415 . S
C2609 H2585 0.951 . S
C2609 C2610 1.366 . S
C2609 C2611 1.388 . S
C2610 C2609 1.366 . S
C2610 C2614 1.385 . S
C2611 H2586 0.951 . S
C2611 C2609 1.388 . S
C2611 C2612 1.366 . S
C2612 C2611 1.366 . S
C2612 C2613 1.414 . S
C2612 C2615 1.499 . S
C2613 H2587 0.950 . S
C2613 C2612 1.414 . S
C2613 C2614 1.374 . S
C2614 H2588 0.950 . S
C2614 C2610 1.385 . S
C2614 C2613 1.374 . S
C2615 C2612 1.499 . S
C2615 C2616 1.373 . S
C2615 C2617 1.389 . S
C2616 H2589 0.950 . S
C2616 C2602 1.377 . S
C2616 C2615 1.373 . S
C2617 C2601 1.377 . S
C2617 C2615 1.389 . S
C2617 C2618 1.524 . S
C2618 C2617 1.524 . S
C2618 C2619 1.397 . S
C2618 C2623 1.363 . S
C2619 H2590 0.950 . S
C2619 C2618 1.397 . S
C2619 C2620 1.334 . S
C2620 H2591 0.950 . S
C2620 C2619 1.334 . S
C2620 C2621 1.287 . S
C2621 C2620 1.287 . S
C2621 C2622 1.524 . S
C2621 H2624 0.999 . S
C2622 H2592 0.950 . S
C2622 C2621 1.524 . S
C2622 C2623 1.415 . S
C2623 H2593 0.950 . S
C2623 C2618 1.363 . S
C2623 C2622 1.415 . S
H2624 C2621 0.999 . S
H2625 C2606 0.913 . S
H2626 C2644 0.951 . S
H2627 C2646 0.951 . S
H2628 C2648 0.950 . S
H2629 C2649 0.950 . S
H2630 C2651 0.950 . S
H2631 C2654 0.950 . S
H2632 C2655 0.950 . S
H2633 C2657 0.950 . S
H2634 C2658 0.950 . S
H2635 C2659 0.951 . S
H2636 C2661 0.951 . S
H2637 C2663 0.950 . S
H2638 C2664 0.950 . S
H2639 C2666 0.950 . S
H2640 C2669 0.950 . S
H2641 C2670 0.950 . S
H2642 C2672 0.950 . S
H2643 C2673 0.950 . S
C2644 H2626 0.951 . S
C2644 C2645 1.366 . S
C2644 C2646 1.388 . S
C2645 C2644 1.366 . S
C2645 C2649 1.385 . S
C2646 H2627 0.951 . S
C2646 C2644 1.388 . S
C2646 C2647 1.366 . S
C2647 C2646 1.366 . S
C2647 C2648 1.414 . S
C2647 C2650 1.499 . S
C2648 H2628 0.950 . S
C2648 C2647 1.414 . S
C2648 C2649 1.374 . S
C2649 H2629 0.950 . S
C2649 C2645 1.385 . S
C2649 C2648 1.374 . S
C2650 C2647 1.499 . S
C2650 C2651 1.373 . S
C2650 C2652 1.389 . S
C2651 H2630 0.950 . S
C2651 C2650 1.373 . S
C2651 C2667 1.377 . S
C2652 C2650 1.389 . S
C2652 C2653 1.524 . S
C2652 C2666 1.377 . S
C2653 C2652 1.524 . S
C2653 C2654 1.397 . S
C2653 C2658 1.363 . S
C2654 H2631 0.950 . S
C2654 C2653 1.397 . S
C2654 C2655 1.334 . S
C2655 H2632 0.950 . S
C2655 C2654 1.334 . S
C2655 C2656 1.287 . S
C2656 C2655 1.287 . S
C2656 C2657 1.524 . S
C2656 H2675 0.913 . S
C2657 H2633 0.950 . S
C2657 C2656 1.524 . S
C2657 C2658 1.415 . S
C2658 H2634 0.950 . S
C2658 C2653 1.363 . S
C2658 C2657 1.415 . S
C2659 H2635 0.951 . S
C2659 C2660 1.366 . S
C2659 C2661 1.388 . S
C2660 C2659 1.366 . S
C2660 C2664 1.385 . S
C2661 H2636 0.951 . S
C2661 C2659 1.388 . S
C2661 C2662 1.366 . S
C2662 C2661 1.366 . S
C2662 C2663 1.414 . S
C2662 C2665 1.499 . S
C2663 H2637 0.950 . S
C2663 C2662 1.414 . S
C2663 C2664 1.374 . S
C2664 H2638 0.950 . S
C2664 C2660 1.385 . S
C2664 C2663 1.374 . S
C2665 C2662 1.499 . S
C2665 C2666 1.373 . S
C2665 C2667 1.389 . S
C2666 H2639 0.950 . S
C2666 C2652 1.377 . S
C2666 C2665 1.373 . S
C2667 C2651 1.377 . S
C2667 C2665 1.389 . S
C2667 C2668 1.524 . S
C2668 C2667 1.524 . S
C2668 C2669 1.397 . S
C2668 C2673 1.363 . S
C2669 H2640 0.950 . S
C2669 C2668 1.397 . S
C2669 C2670 1.334 . S
C2670 H2641 0.950 . S
C2670 C2669 1.334 . S
C2670 C2671 1.287 . S
C2671 C2670 1.287 . S
C2671 C2672 1.524 . S
C2671 H2674 0.999 . S
C2672 H2642 0.950 . S
C2672 C2671 1.524 . S
C2672 C2673 1.415 . S
C2673 H2643 0.950 . S
C2673 C2668 1.363 . S
C2673 C2672 1.415 . S
H2674 C2671 0.999 . S
H2675 C2656 0.913 . S
H2676 C2694 0.951 . S
H2677 C2696 0.951 . S
H2678 C2698 0.950 . S
H2679 C2699 0.950 . S
H2680 C2701 0.950 . S
H2681 C2704 0.950 . S
H2682 C2705 0.950 . S
H2683 C2707 0.950 . S
H2684 C2708 0.950 . S
H2685 C2709 0.951 . S
H2686 C2711 0.951 . S
H2687 C2713 0.950 . S
H2688 C2714 0.950 . S
H2689 C2716 0.950 . S
H2690 C2719 0.950 . S
H2691 C2720 0.950 . S
H2692 C2722 0.950 . S
H2693 C2723 0.950 . S
C2694 H2676 0.951 . S
C2694 C2695 1.366 . S
C2694 C2696 1.388 . S
C2695 C2694 1.366 . S
C2695 C2699 1.385 . S
C2696 H2677 0.951 . S
C2696 C2694 1.388 . S
C2696 C2697 1.366 . S
C2697 C2696 1.366 . S
C2697 C2698 1.414 . S
C2697 C2700 1.499 . S
C2698 H2678 0.950 . S
C2698 C2697 1.414 . S
C2698 C2699 1.374 . S
C2699 H2679 0.950 . S
C2699 C2695 1.385 . S
C2699 C2698 1.374 . S
C2700 C2697 1.499 . S
C2700 C2701 1.373 . S
C2700 C2702 1.389 . S
C2701 H2680 0.950 . S
C2701 C2700 1.373 . S
C2701 C2717 1.377 . S
C2702 C2700 1.389 . S
C2702 C2703 1.524 . S
C2702 C2716 1.377 . S
C2703 C2702 1.524 . S
C2703 C2704 1.397 . S
C2703 C2708 1.363 . S
C2704 H2681 0.950 . S
C2704 C2703 1.397 . S
C2704 C2705 1.334 . S
C2705 H2682 0.950 . S
C2705 C2704 1.334 . S
C2705 C2706 1.287 . S
C2706 C2705 1.287 . S
C2706 C2707 1.524 . S
C2706 H2725 0.913 . S
C2707 H2683 0.950 . S
C2707 C2706 1.524 . S
C2707 C2708 1.415 . S
C2708 H2684 0.950 . S
C2708 C2703 1.363 . S
C2708 C2707 1.415 . S
C2709 H2685 0.951 . S
C2709 C2710 1.366 . S
C2709 C2711 1.388 . S
C2710 C2709 1.366 . S
C2710 C2714 1.385 . S
C2711 H2686 0.951 . S
C2711 C2709 1.388 . S
C2711 C2712 1.366 . S
C2712 C2711 1.366 . S
C2712 C2713 1.414 . S
C2712 C2715 1.499 . S
C2713 H2687 0.950 . S
C2713 C2712 1.414 . S
C2713 C2714 1.374 . S
C2714 H2688 0.950 . S
C2714 C2710 1.385 . S
C2714 C2713 1.374 . S
C2715 C2712 1.499 . S
C2715 C2716 1.373 . S
C2715 C2717 1.389 . S
C2716 H2689 0.950 . S
C2716 C2702 1.377 . S
C2716 C2715 1.373 . S
C2717 C2701 1.377 . S
C2717 C2715 1.389 . S
C2717 C2718 1.524 . S
C2718 C2717 1.524 . S
C2718 C2719 1.397 . S
C2718 C2723 1.363 . S
C2719 H2690 0.950 . S
C2719 C2718 1.397 . S
C2719 C2720 1.334 . S
C2720 H2691 0.950 . S
C2720 C2719 1.334 . S
C2720 C2721 1.287 . S
C2721 C2720 1.287 . S
C2721 C2722 1.524 . S
C2721 H2724 0.999 . S
C2722 H2692 0.950 . S
C2722 C2721 1.524 . S
C2722 C2723 1.415 . S
C2723 H2693 0.950 . S
C2723 C2718 1.363 . S
C2723 C2722 1.415 . S
H2724 C2721 0.999 . S
H2725 C2706 0.913 . S
H2726 C2744 0.951 . S
H2727 C2746 0.951 . S
H2728 C2748 0.950 . S
H2729 C2749 0.950 . S
H2730 C2751 0.950 . S
H2731 C2754 0.950 . S
H2732 C2755 0.950 . S
H2733 C2757 0.950 . S
H2734 C2758 0.950 . S
H2735 C2759 0.951 . S
H2736 C2761 0.951 . S
H2737 C2763 0.950 . S
H2738 C2764 0.950 . S
H2739 C2766 0.950 . S
H2740 C2769 0.950 . S
H2741 C2770 0.950 . S
H2742 C2772 0.950 . S
H2743 C2773 0.950 . S
C2744 H2726 0.951 . S
C2744 C2745 1.366 . S
C2744 C2746 1.388 . S
C2745 C2744 1.366 . S
C2745 C2749 1.385 . S
C2746 H2727 0.951 . S
C2746 C2744 1.388 . S
C2746 C2747 1.366 . S
C2747 C2746 1.366 . S
C2747 C2748 1.414 . S
C2747 C2750 1.499 . S
C2748 H2728 0.950 . S
C2748 C2747 1.414 . S
C2748 C2749 1.374 . S
C2749 H2729 0.950 . S
C2749 C2745 1.385 . S
C2749 C2748 1.374 . S
C2750 C2747 1.499 . S
C2750 C2751 1.373 . S
C2750 C2752 1.389 . S
C2751 H2730 0.950 . S
C2751 C2750 1.373 . S
C2751 C2767 1.377 . S
C2752 C2750 1.389 . S
C2752 C2753 1.524 . S
C2752 C2766 1.377 . S
C2753 C2752 1.524 . S
C2753 C2754 1.397 . S
C2753 C2758 1.363 . S
C2754 H2731 0.950 . S
C2754 C2753 1.397 . S
C2754 C2755 1.334 . S
C2755 H2732 0.950 . S
C2755 C2754 1.334 . S
C2755 C2756 1.287 . S
C2756 C2755 1.287 . S
C2756 C2757 1.524 . S
C2756 H2775 0.913 . S
C2757 H2733 0.950 . S
C2757 C2756 1.524 . S
C2757 C2758 1.415 . S
C2758 H2734 0.950 . S
C2758 C2753 1.363 . S
C2758 C2757 1.415 . S
C2759 H2735 0.951 . S
C2759 C2760 1.366 . S
C2759 C2761 1.388 . S
C2760 C2759 1.366 . S
C2760 C2764 1.385 . S
C2761 H2736 0.951 . S
C2761 C2759 1.388 . S
C2761 C2762 1.366 . S
C2762 C2761 1.366 . S
C2762 C2763 1.414 . S
C2762 C2765 1.499 . S
C2763 H2737 0.950 . S
C2763 C2762 1.414 . S
C2763 C2764 1.374 . S
C2764 H2738 0.950 . S
C2764 C2760 1.385 . S
C2764 C2763 1.374 . S
C2765 C2762 1.499 . S
C2765 C2766 1.373 . S
C2765 C2767 1.389 . S
C2766 H2739 0.950 . S
C2766 C2752 1.377 . S
C2766 C2765 1.373 . S
C2767 C2751 1.377 . S
C2767 C2765 1.389 . S
C2767 C2768 1.524 . S
C2768 C2767 1.524 . S
C2768 C2769 1.397 . S
C2768 C2773 1.363 . S
C2769 H2740 0.950 . S
C2769 C2768 1.397 . S
C2769 C2770 1.334 . S
C2770 H2741 0.950 . S
C2770 C2769 1.334 . S
C2770 C2771 1.287 . S
C2771 C2770 1.287 . S
C2771 C2772 1.524 . S
C2771 H2774 0.999 . S
C2772 H2742 0.950 . S
C2772 C2771 1.524 . S
C2772 C2773 1.415 . S
C2773 H2743 0.950 . S
C2773 C2768 1.363 . S
C2773 C2772 1.415 . S
H2774 C2771 0.999 . S
H2775 C2756 0.913 . S
H2776 C2794 0.951 . S
H2777 C2796 0.951 . S
H2778 C2798 0.950 . S
H2779 C2799 0.950 . S
H2780 C2801 0.950 1_554 S
H2781 C2804 0.950 . S
H2782 C2805 0.950 . S
H2783 C2807 0.950 . S
H2784 C2808 0.950 . S
H2785 C2809 0.959 . S
H2786 C2811 0.951 1_554 S
H2787 C2813 0.950 . S
H2788 C2814 0.950 . S
H2789 C2816 0.950 . S
H2790 C2819 0.950 . S
H2791 C2820 0.950 . S
H2792 C2822 0.950 . S
H2793 C2823 0.950 . S
C2794 H2776 0.951 . S
C2794 C2795 1.366 . S
C2794 C2796 1.388 . S
C2795 C2794 1.366 . S
C2795 C2799 1.385 . S
C2796 H2777 0.951 . S
C2796 C2794 1.388 . S
C2796 C2797 1.366 . S
C2797 C2796 1.366 . S
C2797 C2798 1.414 . S
C2797 C2800 1.499 . S
C2798 H2778 0.950 . S
C2798 C2797 1.414 . S
C2798 C2799 1.374 . S
C2799 H2779 0.950 . S
C2799 C2795 1.385 . S
C2799 C2798 1.374 . S
C2800 C2797 1.499 . S
C2800 C2801 1.373 . S
C2800 C2802 1.389 . S
C2801 H2780 0.950 1_556 S
C2801 C2800 1.373 . S
C2801 C2817 1.377 1_556 S
C2802 C2800 1.389 . S
C2802 C2803 1.524 . S
C2802 C2816 1.377 . S
C2803 C2802 1.524 . S
C2803 C2804 1.397 . S
C2803 C2808 1.363 . S
C2804 H2781 0.950 . S
C2804 C2803 1.397 . S
C2804 C2805 1.334 . S
C2805 H2782 0.950 . S
C2805 C2804 1.334 . S
C2805 C2806 1.287 . S
C2806 C2805 1.287 . S
C2806 C2807 1.524 . S
C2806 H2825 0.913 . S
C2807 H2783 0.950 . S
C2807 C2806 1.524 . S
C2807 C2808 1.415 . S
C2808 H2784 0.950 . S
C2808 C2803 1.363 . S
C2808 C2807 1.415 . S
C2809 H2785 0.959 . S
C2809 C2810 1.360 1_554 S
C2809 C2811 1.386 1_554 S
C2810 C2809 1.360 1_556 S
C2810 C2814 1.385 . S
C2811 H2786 0.951 1_556 S
C2811 C2809 1.386 1_556 S
C2811 C2812 1.366 . S
C2812 C2811 1.366 . S
C2812 C2813 1.414 . S
C2812 C2815 1.499 . S
C2813 H2787 0.950 . S
C2813 C2812 1.414 . S
C2813 C2814 1.374 . S
C2814 H2788 0.950 . S
C2814 C2810 1.385 . S
C2814 C2813 1.374 . S
C2815 C2812 1.499 . S
C2815 C2816 1.373 . S
C2815 C2817 1.389 1_556 S
C2816 H2789 0.950 . S
C2816 C2802 1.377 . S
C2816 C2815 1.373 . S
C2817 C2801 1.377 1_554 S
C2817 C2815 1.389 1_554 S
C2817 C2818 1.524 . S
C2818 C2817 1.524 . S
C2818 C2819 1.397 . S
C2818 C2823 1.363 . S
C2819 H2790 0.950 . S
C2819 C2818 1.397 . S
C2819 C2820 1.334 . S
C2820 H2791 0.950 . S
C2820 C2819 1.334 . S
C2820 C2821 1.287 . S
C2821 C2820 1.287 . S
C2821 C2822 1.524 . S
C2821 H2824 0.999 . S
C2822 H2792 0.950 . S
C2822 C2821 1.524 . S
C2822 C2823 1.415 . S
C2823 H2793 0.950 . S
C2823 C2818 1.363 . S
C2823 C2822 1.415 . S
H2824 C2821 0.999 . S
H2825 C2806 0.913 . S
H2826 C2844 0.951 . S
H2827 C2846 0.951 . S
H2828 C2848 0.950 . S
H2829 C2849 0.950 . S
H2830 C2851 0.950 . S
H2831 C2854 0.950 . S
H2832 C2855 0.950 . S
H2833 C2857 0.950 . S
H2834 C2858 0.950 . S
H2835 C2859 0.951 . S
H2836 C2861 0.951 . S
H2837 C2863 0.950 . S
H2838 C2864 0.950 . S
H2839 C2866 0.950 . S
H2840 C2869 0.950 . S
H2841 C2870 0.950 . S
H2842 C2872 0.950 . S
H2843 C2873 0.950 . S
C2844 H2826 0.951 . S
C2844 C2845 1.366 . S
C2844 C2846 1.388 . S
C2845 C2844 1.366 . S
C2845 C2849 1.385 . S
C2846 H2827 0.951 . S
C2846 C2844 1.388 . S
C2846 C2847 1.366 . S
C2847 C2846 1.366 . S
C2847 C2848 1.414 . S
C2847 C2850 1.499 . S
C2848 H2828 0.950 . S
C2848 C2847 1.414 . S
C2848 C2849 1.374 . S
C2849 H2829 0.950 . S
C2849 C2845 1.385 . S
C2849 C2848 1.374 . S
C2850 C2847 1.499 . S
C2850 C2851 1.373 . S
C2850 C2852 1.389 . S
C2851 H2830 0.950 . S
C2851 C2850 1.373 . S
C2851 C2867 1.377 . S
C2852 C2850 1.389 . S
C2852 C2853 1.524 . S
C2852 C2866 1.377 . S
C2853 C2852 1.524 . S
C2853 C2854 1.397 . S
C2853 C2858 1.363 . S
C2854 H2831 0.950 . S
C2854 C2853 1.397 . S
C2854 C2855 1.334 . S
C2855 H2832 0.950 . S
C2855 C2854 1.334 . S
C2855 C2856 1.287 . S
C2856 C2855 1.287 . S
C2856 C2857 1.524 . S
C2856 H2875 0.913 . S
C2857 H2833 0.950 . S
C2857 C2856 1.524 . S
C2857 C2858 1.415 . S
C2858 H2834 0.950 . S
C2858 C2853 1.363 . S
C2858 C2857 1.415 . S
C2859 H2835 0.951 . S
C2859 C2860 1.366 . S
C2859 C2861 1.388 . S
C2860 C2859 1.366 . S
C2860 C2864 1.385 . S
C2861 H2836 0.951 . S
C2861 C2859 1.388 . S
C2861 C2862 1.366 . S
C2862 C2861 1.366 . S
C2862 C2863 1.414 . S
C2862 C2865 1.499 . S
C2863 H2837 0.950 . S
C2863 C2862 1.414 . S
C2863 C2864 1.374 . S
C2864 H2838 0.950 . S
C2864 C2860 1.385 . S
C2864 C2863 1.374 . S
C2865 C2862 1.499 . S
C2865 C2866 1.373 . S
C2865 C2867 1.389 . S
C2866 H2839 0.950 . S
C2866 C2852 1.377 . S
C2866 C2865 1.373 . S
C2867 C2851 1.377 . S
C2867 C2865 1.389 . S
C2867 C2868 1.524 . S
C2868 C2867 1.524 . S
C2868 C2869 1.397 . S
C2868 C2873 1.363 . S
C2869 H2840 0.950 . S
C2869 C2868 1.397 . S
C2869 C2870 1.334 . S
C2870 H2841 0.950 . S
C2870 C2869 1.334 . S
C2870 C2871 1.287 . S
C2871 C2870 1.287 . S
C2871 C2872 1.524 . S
C2871 H2874 0.999 . S
C2872 H2842 0.950 . S
C2872 C2871 1.524 . S
C2872 C2873 1.415 . S
C2873 H2843 0.950 . S
C2873 C2868 1.363 . S
C2873 C2872 1.415 . S
H2874 C2871 0.999 . S
H2875 C2856 0.913 . S
H2876 C2894 0.946 1_556 S
H2877 C2896 0.951 1_556 S
H2878 C2898 0.950 . S
H2879 C2899 0.950 . S
H2880 C2901 0.950 . S
H2881 C2904 0.950 1_554 S
H2882 C2905 0.950 . S
H2883 C2907 0.950 . S
H2884 C2908 0.950 . S
H2885 C2909 0.951 . S
H2886 C2911 0.951 . S
H2887 C2913 0.950 . S
H2888 C2914 0.950 . S
H2889 C2916 0.950 1_556 S
H2890 C2919 0.950 . S
H2891 C2920 0.950 . S
H2892 C2922 0.950 . S
H2893 C2923 0.950 . S
C2894 H2876 0.946 1_554 S
C2894 C2895 1.366 . S
C2894 C2896 1.388 . S
C2895 C2894 1.366 . S
C2895 C2899 1.385 . S
C2896 H2877 0.951 1_554 S
C2896 C2894 1.388 . S
C2896 C2897 1.366 . S
C2897 C2896 1.366 . S
C2897 C2898 1.414 . S
C2897 C2900 1.499 . S
C2898 H2878 0.950 . S
C2898 C2897 1.414 . S
C2898 C2899 1.374 . S
C2899 H2879 0.950 . S
C2899 C2895 1.385 . S
C2899 C2898 1.374 . S
C2900 C2897 1.499 . S
C2900 C2901 1.373 . S
C2900 C2902 1.389 . S
C2901 H2880 0.950 . S
C2901 C2900 1.373 . S
C2901 C2917 1.377 . S
C2902 C2900 1.389 . S
C2902 C2903 1.524 1_554 S
C2902 C2916 1.377 . S
C2903 C2902 1.524 1_556 S
C2903 C2904 1.397 . S
C2903 C2908 1.363 . S
C2904 H2881 0.950 1_556 S
C2904 C2903 1.397 . S
C2904 C2905 1.334 . S
C2905 H2882 0.950 . S
C2905 C2904 1.334 . S
C2905 C2906 1.287 . S
C2906 C2905 1.287 . S
C2906 C2907 1.524 . S
C2906 H2925 0.913 . S
C2907 H2883 0.950 . S
C2907 C2906 1.524 . S
C2907 C2908 1.415 . S
C2908 H2884 0.950 . S
C2908 C2903 1.363 . S
C2908 C2907 1.415 . S
C2909 H2885 0.951 . S
C2909 C2910 1.366 . S
C2909 C2911 1.388 . S
C2910 C2909 1.366 . S
C2910 C2914 1.385 1_554 S
C2911 H2886 0.951 . S
C2911 C2909 1.388 . S
C2911 C2912 1.366 . S
C2912 C2911 1.366 . S
C2912 C2913 1.414 1_554 S
C2912 C2915 1.499 . S
C2913 H2887 0.950 . S
C2913 C2912 1.414 1_556 S
C2913 C2914 1.374 . S
C2914 H2888 0.950 . S
C2914 C2910 1.385 1_556 S
C2914 C2913 1.374 . S
C2915 C2912 1.499 . S
C2915 C2916 1.373 . S
C2915 C2917 1.389 . S
C2916 H2889 0.950 1_554 S
C2916 C2902 1.377 . S
C2916 C2915 1.373 . S
C2917 C2901 1.377 . S
C2917 C2915 1.389 . S
C2917 C2918 1.524 . S
C2918 C2917 1.524 . S
C2918 C2919 1.397 . S
C2918 C2923 1.363 . S
C2919 H2890 0.950 . S
C2919 C2918 1.397 . S
C2919 C2920 1.334 . S
C2920 H2891 0.950 . S
C2920 C2919 1.334 . S
C2920 C2921 1.287 . S
C2921 C2920 1.287 . S
C2921 C2922 1.524 . S
C2921 H2924 0.999 . S
C2922 H2892 0.950 . S
C2922 C2921 1.524 . S
C2922 C2923 1.415 . S
C2923 H2893 0.950 . S
C2923 C2918 1.363 . S
C2923 C2922 1.415 . S
H2924 C2921 0.999 . S
H2925 C2906 0.913 . S
H2926 C2944 0.951 . S
H2927 C2946 0.951 . S
H2928 C2948 0.950 1_556 S
H2929 C2949 0.903 1_546 S
H2930 C2951 0.950 . S
H2931 C2954 0.950 . S
H2932 C2955 0.950 . S
H2933 C2957 0.950 . S
H2934 C2958 0.950 1_565 S
H2935 C2959 0.951 . S
H2936 C2961 0.951 . S
H2937 C2963 0.950 . S
H2938 C2964 0.950 . S
H2939 C2966 0.950 . S
H2940 C2969 0.950 . S
H2941 C2970 0.950 . S
H2942 C2972 0.950 . S
H2943 C2973 0.950 . S
C2944 H2926 0.951 . S
C2944 C2945 1.366 . S
C2944 C2946 1.388 1_545 S
C2945 C2944 1.366 . S
C2945 C2949 1.385 1_545 S
C2946 H2927 0.951 . S
C2946 C2944 1.388 1_565 S
C2946 C2947 1.366 . S
C2947 C2946 1.366 . S
C2947 C2948 1.414 . S
C2947 C2950 1.499 . S
C2948 H2928 0.950 1_554 S
C2948 C2947 1.414 . S
C2948 C2949 1.374 . S
C2949 H2929 0.903 1_564 S
C2949 C2945 1.385 1_565 S
C2949 C2948 1.374 . S
C2950 C2947 1.499 . S
C2950 C2951 1.373 . S
C2950 C2952 1.389 . S
C2951 H2930 0.950 . S
C2951 C2950 1.373 . S
C2951 C2967 1.377 . S
C2952 C2950 1.389 . S
C2952 C2953 1.524 . S
C2952 C2966 1.377 . S
C2953 C2952 1.524 . S
C2953 C2954 1.397 1_565 S
C2953 C2958 1.363 1_565 S
C2954 H2931 0.950 . S
C2954 C2953 1.397 1_545 S
C2954 C2955 1.334 . S
C2955 H2932 0.950 . S
C2955 C2954 1.334 . S
C2955 C2956 1.287 . S
C2956 C2955 1.287 . S
C2956 C2957 1.524 . S
C2956 H2975 0.913 . S
C2957 H2933 0.950 . S
C2957 C2956 1.524 . S
C2957 C2958 1.415 . S
C2958 H2934 0.950 1_545 S
C2958 C2953 1.363 1_545 S
C2958 C2957 1.415 . S
C2959 H2935 0.951 . S
C2959 C2960 1.366 1_556 S
C2959 C2961 1.388 . S
C2960 C2959 1.366 1_554 S
C2960 C2964 1.385 . S
C2961 H2936 0.951 . S
C2961 C2959 1.388 . S
C2961 C2962 1.366 1_556 S
C2962 C2961 1.366 1_554 S
C2962 C2963 1.414 . S
C2962 C2965 1.499 . S
C2963 H2937 0.950 . S
C2963 C2962 1.414 . S
C2963 C2964 1.374 . S
C2964 H2938 0.950 . S
C2964 C2960 1.385 . S
C2964 C2963 1.374 . S
C2965 C2962 1.499 . S
C2965 C2966 1.373 . S
C2965 C2967 1.389 . S
C2966 H2939 0.950 . S
C2966 C2952 1.377 . S
C2966 C2965 1.373 . S
C2967 C2951 1.377 . S
C2967 C2965 1.389 . S
C2967 C2968 1.524 . S
C2968 C2967 1.524 . S
C2968 C2969 1.397 . S
C2968 C2973 1.363 1_554 S
C2969 H2940 0.950 . S
C2969 C2968 1.397 . S
C2969 C2970 1.334 . S
C2970 H2941 0.950 . S
C2970 C2969 1.334 . S
C2970 C2971 1.287 1_554 S
C2971 C2970 1.287 1_556 S
C2971 C2972 1.524 . S
C2971 H2974 0.999 . S
C2972 H2942 0.950 . S
C2972 C2971 1.524 . S
C2972 C2973 1.415 . S
C2973 H2943 0.950 . S
C2973 C2968 1.363 1_556 S
C2973 C2972 1.415 . S
H2974 C2971 0.999 . S
H2975 C2956 0.913 . S
C610 C146 1.410 . S
C595 C50 1.414 . S
C660 C194 1.615 . S
C645 C61 1.672 . S
C695 C67 1.410 . S
C710 C230 1.350 . S
C760 C266 1.572 . S
C745 C41 1.622 . S
C810 C292 1.420 . S
C795 C95 1.419 . S
C860 C328 1.587 . S
C845 C113 1.589 . S
C895 C106 1.449 . S
C910 C363 1.454 . S
C960 C400 1.612 1_565 S
C945 C86 1.620 . S
C995 C104 1.402 . S
C1010 C434 1.398 . S
C1060 C482 1.554 . S
C1045 C88 1.606 . S
C1095 C94 1.414 . S
C1110 C435 1.420 . S
C1160 C472 1.603 . S
C1145 C112 1.604 . S
C1195 C70 1.430 . S
C1210 C518 1.371 . S
C1245 C40 1.634 . S
C1260 C507 1.629 . S
C1295 C49 1.459 . S
C1310 C508 1.459 . S
C1345 C59 1.660 . S
C1360 C506 1.653 1_655 S
C1395 C34 1.397 . S
C1410 C254 1.393 . S
C1445 C133 1.393 . S
C1460 C255 1.399 . S
C1510 C158 1.602 . S
C1495 C139 1.656 . S
C1560 C183 1.454 . S
C1545 C77 1.451 . S
C1595 C43 1.603 1_545 S
C1610 C290 1.616 . S
C1660 C398 1.443 . S
C1645 C103 1.445 . S
C1710 C291 1.608 . S
C1695 C85 1.613 . S
C1760 C364 1.599 . S
C1745 C115 1.602 . S
C1810 C362 1.410 . S
C1795 C131 1.414 . S
C1845 C142 1.669 . S
C1860 C410 1.615 . S
C1895 C76 1.410 . S
C1910 C302 1.351 . S
C1960 C338 1.570 . S
C1945 C122 1.622 . S
C1995 C32 1.419 . S
C2010 C220 1.420 . S
C2060 C256 1.587 . S
C2045 C5 1.589 . S
C2110 C147 1.454 . S
C2095 C16 1.449 . S
C2160 C184 1.616 . S
C2145 C23 1.619 . S
C2195 C14 1.402 . S
C2210 C470 1.398 . S
C2245 C25 1.606 . S
C2260 C446 1.555 . S
C2295 C31 1.414 . S
C2310 C471 1.420 . S
C2345 C4 1.604 . S
C2360 C436 1.602 . S
C2410 C554 1.371 . S
C2395 C79 1.430 . S
C2460 C543 1.629 . S
C2445 C121 1.634 . S
C2510 C544 1.459 . S
C2495 C130 1.459 . S
C2545 C140 1.660 . S
C2560 C542 1.654 . S
C2595 C97 1.398 . S
C2610 C326 1.393 . S
C2660 C327 1.399 . S
C2645 C52 1.393 . S
C2710 C374 1.603 . S
C2695 C58 1.657 . S
C2760 C399 1.454 . S
C2745 C68 1.456 . S
C2795 C124 1.622 . S
C2810 C218 1.617 1_556 S
C2860 C182 1.443 . S
C2845 C13 1.450 . S
C2895 C22 1.613 . S
C2910 C219 1.608 . S
C2960 C148 1.599 . S
C2945 C7 1.602 . S
