# Generated by pormake.
# Topology ctn, (3,4)-cn, num edge types: 1
# Building blocks:
#     Node 0, Type 0, BuildingBlock: BELTOD_clean_linker_0, # of connection points: 3
#     Node 1, Type 0, BuildingBlock: BELTOD_clean_linker_0, # of connection points: 3
#     Node 2, Type 0, BuildingBlock: BELTOD_clean_linker_0, # of connection points: 3
#     Node 3, Type 0, BuildingBlock: BELTOD_clean_linker_0, # of connection points: 3
#     Node 4, Type 0, BuildingBlock: BELTOD_clean_linker_0, # of connection points: 3
#     Node 5, Type 0, BuildingBlock: BELTOD_clean_linker_0, # of connection points: 3
#     Node 6, Type 0, BuildingBlock: BELTOD_clean_linker_0, # of connection points: 3
#     Node 7, Type 0, BuildingBlock: BELTOD_clean_linker_0, # of connection points: 3
#     Node 8, Type 0, BuildingBlock: BELTOD_clean_linker_0, # of connection points: 3
#     Node 9, Type 0, BuildingBlock: BELTOD_clean_linker_0, # of connection points: 3
#     Node 10, Type 0, BuildingBlock: BELTOD_clean_linker_0, # of connection points: 3
#     Node 11, Type 0, BuildingBlock: BELTOD_clean_linker_0, # of connection points: 3
#     Node 12, Type 0, BuildingBlock: BELTOD_clean_linker_0, # of connection points: 3
#     Node 13, Type 0, BuildingBlock: BELTOD_clean_linker_0, # of connection points: 3
#     Node 14, Type 0, BuildingBlock: BELTOD_clean_linker_0, # of connection points: 3
#     Node 15, Type 0, BuildingBlock: BELTOD_clean_linker_0, # of connection points: 3
#     Node 16, Type 1, BuildingBlock: TATPOV_clean_sbu_0, # of connection points: 4
#     Node 17, Type 1, BuildingBlock: TATPOV_clean_sbu_0, # of connection points: 4
#     Node 18, Type 1, BuildingBlock: TATPOV_clean_sbu_0, # of connection points: 4
#     Node 19, Type 1, BuildingBlock: TATPOV_clean_sbu_0, # of connection points: 4
#     Node 20, Type 1, BuildingBlock: TATPOV_clean_sbu_0, # of connection points: 4
#     Node 21, Type 1, BuildingBlock: TATPOV_clean_sbu_0, # of connection points: 4
#     Node 22, Type 1, BuildingBlock: TATPOV_clean_sbu_0, # of connection points: 4
#     Node 23, Type 1, BuildingBlock: TATPOV_clean_sbu_0, # of connection points: 4
#     Node 24, Type 1, BuildingBlock: TATPOV_clean_sbu_0, # of connection points: 4
#     Node 25, Type 1, BuildingBlock: TATPOV_clean_sbu_0, # of connection points: 4
#     Node 26, Type 1, BuildingBlock: TATPOV_clean_sbu_0, # of connection points: 4
#     Node 27, Type 1, BuildingBlock: TATPOV_clean_sbu_0, # of connection points: 4
#     Edge 28, Type (0, 1), BuildingBlock: TEMPAE_clean_linker_10, # of connection points: 2
#     Edge 29, Type (0, 1), BuildingBlock: TEMPAE_clean_linker_10, # of connection points: 2
#     Edge 30, Type (0, 1), BuildingBlock: TEMPAE_clean_linker_10, # of connection points: 2
#     Edge 31, Type (0, 1), BuildingBlock: TEMPAE_clean_linker_10, # of connection points: 2
#     Edge 32, Type (0, 1), BuildingBlock: TEMPAE_clean_linker_10, # of connection points: 2
#     Edge 33, Type (0, 1), BuildingBlock: TEMPAE_clean_linker_10, # of connection points: 2
#     Edge 34, Type (0, 1), BuildingBlock: TEMPAE_clean_linker_10, # of connection points: 2
#     Edge 35, Type (0, 1), BuildingBlock: TEMPAE_clean_linker_10, # of connection points: 2
#     Edge 36, Type (0, 1), BuildingBlock: TEMPAE_clean_linker_10, # of connection points: 2
#     Edge 37, Type (0, 1), BuildingBlock: TEMPAE_clean_linker_10, # of connection points: 2
#     Edge 38, Type (0, 1), BuildingBlock: TEMPAE_clean_linker_10, # of connection points: 2
#     Edge 39, Type (0, 1), BuildingBlock: TEMPAE_clean_linker_10, # of connection points: 2
#     Edge 40, Type (0, 1), BuildingBlock: TEMPAE_clean_linker_10, # of connection points: 2
#     Edge 41, Type (0, 1), BuildingBlock: TEMPAE_clean_linker_10, # of connection points: 2
#     Edge 42, Type (0, 1), BuildingBlock: TEMPAE_clean_linker_10, # of connection points: 2
#     Edge 43, Type (0, 1), BuildingBlock: TEMPAE_clean_linker_10, # of connection points: 2
#     Edge 44, Type (0, 1), BuildingBlock: TEMPAE_clean_linker_10, # of connection points: 2
#     Edge 45, Type (0, 1), BuildingBlock: TEMPAE_clean_linker_10, # of connection points: 2
#     Edge 46, Type (0, 1), BuildingBlock: TEMPAE_clean_linker_10, # of connection points: 2
#     Edge 47, Type (0, 1), BuildingBlock: TEMPAE_clean_linker_10, # of connection points: 2
#     Edge 48, Type (0, 1), BuildingBlock: TEMPAE_clean_linker_10, # of connection points: 2
#     Edge 49, Type (0, 1), BuildingBlock: TEMPAE_clean_linker_10, # of connection points: 2
#     Edge 50, Type (0, 1), BuildingBlock: TEMPAE_clean_linker_10, # of connection points: 2
#     Edge 51, Type (0, 1), BuildingBlock: TEMPAE_clean_linker_10, # of connection points: 2
#     Edge 52, Type (0, 1), BuildingBlock: TEMPAE_clean_linker_10, # of connection points: 2
#     Edge 53, Type (0, 1), BuildingBlock: TEMPAE_clean_linker_10, # of connection points: 2
#     Edge 54, Type (0, 1), BuildingBlock: TEMPAE_clean_linker_10, # of connection points: 2
#     Edge 55, Type (0, 1), BuildingBlock: TEMPAE_clean_linker_10, # of connection points: 2
#     Edge 56, Type (0, 1), BuildingBlock: TEMPAE_clean_linker_10, # of connection points: 2
#     Edge 57, Type (0, 1), BuildingBlock: TEMPAE_clean_linker_10, # of connection points: 2
#     Edge 58, Type (0, 1), BuildingBlock: TEMPAE_clean_linker_10, # of connection points: 2
#     Edge 59, Type (0, 1), BuildingBlock: TEMPAE_clean_linker_10, # of connection points: 2
#     Edge 60, Type (0, 1), BuildingBlock: TEMPAE_clean_linker_10, # of connection points: 2
#     Edge 61, Type (0, 1), BuildingBlock: TEMPAE_clean_linker_10, # of connection points: 2
#     Edge 62, Type (0, 1), BuildingBlock: TEMPAE_clean_linker_10, # of connection points: 2
#     Edge 63, Type (0, 1), BuildingBlock: TEMPAE_clean_linker_10, # of connection points: 2
#     Edge 64, Type (0, 1), BuildingBlock: TEMPAE_clean_linker_10, # of connection points: 2
#     Edge 65, Type (0, 1), BuildingBlock: TEMPAE_clean_linker_10, # of connection points: 2
#     Edge 66, Type (0, 1), BuildingBlock: TEMPAE_clean_linker_10, # of connection points: 2
#     Edge 67, Type (0, 1), BuildingBlock: TEMPAE_clean_linker_10, # of connection points: 2
#     Edge 68, Type (0, 1), BuildingBlock: TEMPAE_clean_linker_10, # of connection points: 2
#     Edge 69, Type (0, 1), BuildingBlock: TEMPAE_clean_linker_10, # of connection points: 2
#     Edge 70, Type (0, 1), BuildingBlock: TEMPAE_clean_linker_10, # of connection points: 2
#     Edge 71, Type (0, 1), BuildingBlock: TEMPAE_clean_linker_10, # of connection points: 2
#     Edge 72, Type (0, 1), BuildingBlock: TEMPAE_clean_linker_10, # of connection points: 2
#     Edge 73, Type (0, 1), BuildingBlock: TEMPAE_clean_linker_10, # of connection points: 2
#     Edge 74, Type (0, 1), BuildingBlock: TEMPAE_clean_linker_10, # of connection points: 2
#     Edge 75, Type (0, 1), BuildingBlock: TEMPAE_clean_linker_10, # of connection points: 2
# Relax obj value: 0.003
# Max RMSD: 0.051
# Mean RMSD: 0.025
data_MOF--net-ctn--node1-TATPOV_clean_sbu_0--node2-BELTOD_clean_linker_0--edge1-TEMPAE_clean_linker_10
_symmetry_space_group_name_H-M    P1
_symmetry_Int_Tables_number       1
_symmetry_cell_setting            triclinic
loop_
_symmetry_equiv_pos_as_xyz
'x, y, z'
_cell_length_a     62.518763
_cell_length_b     62.9993
_cell_length_c     62.409238
_cell_angle_alpha  90.329476
_cell_angle_beta   91.19856
_cell_angle_gamma 91.826602
loop_
_atom_site_label
_atom_site_type_symbol
_atom_site_fract_x
_atom_site_fract_y
_atom_site_fract_z
_atom_type_partial_charge
P0 P 0.05728 0.05326 0.05491 0.0
H1 H 0.05263 0.0511 0.1013 0.0
H2 H 0.02204 0.04402 0.12411 0.0
H3 H 0.98147 0.03391 0.06783 0.0
H4 H 0.01237 0.04065 0.04505 0.0
H5 H 0.08462 0.04509 0.01844 0.0
H6 H 0.10729 0.01554 0.00966 0.0
H7 H 0.08367 0.98127 0.06458 0.0
H8 H 0.06054 0.01056 0.07277 0.0
H9 H 0.05623 0.09921 0.05124 0.0
H10 H 0.03912 0.04484 0.01153 0.0
O11 O 0.07539 0.067 0.06986 0.0
H12 H 0.04486 0.12286 0.02276 0.0
H13 H 0.02711 0.06852 0.98291 0.0
C14 C 0.0347 0.04684 0.07147 0.0
C15 C 0.03716 0.04738 0.09383 0.0
C16 C 0.01961 0.04341 0.10688 0.0
C17 C 0.99921 0.0387 0.09782 0.0
C18 C 0.99695 0.03746 0.07534 0.0
C19 C 0.01458 0.04144 0.06229 0.0
C20 C 0.07042 0.02984 0.04592 0.0
C21 C 0.08381 0.03094 0.02819 0.0
C22 C 0.09702 0.01411 0.02336 0.0
C23 C 0.09743 0.99598 0.03645 0.0
C24 C 0.08355 0.99477 0.05391 0.0
C25 C 0.07027 0.01157 0.05864 0.0
C26 C 0.04895 0.07028 0.03334 0.0
C27 C 0.05007 0.09234 0.03632 0.0
C28 C 0.04333 0.10588 0.02006 0.0
C29 C 0.03504 0.09763 0.00049 0.0
C30 C 0.0337 0.07542 0.99764 0.0
C31 C 0.0405 0.06186 0.01399 0.0
P32 P 0.28067 0.67258 0.20488 0.0
H33 H 0.29559 0.68482 0.16274 0.0
H34 H 0.28521 0.71242 0.1377 0.0
H35 H 0.24047 0.73565 0.18341 0.0
H36 H 0.2509 0.70767 0.20856 0.0
H37 H 0.31536 0.64948 0.22466 0.0
H38 H 0.34369 0.65952 0.25068 0.0
H39 H 0.31889 0.72261 0.25467 0.0
H40 H 0.29047 0.7124 0.2286 0.0
H41 H 0.24549 0.64571 0.18867 0.0
H42 H 0.2639 0.67615 0.24861 0.0
O43 O 0.29026 0.65321 0.18983 0.0
H44 H 0.21511 0.62807 0.20575 0.0
H45 H 0.23316 0.65891 0.26581 0.0
C46 C 0.27375 0.694 0.18734 0.0
C47 C 0.2835 0.69577 0.16741 0.0
C48 C 0.27748 0.7115 0.15306 0.0
C49 C 0.26176 0.72595 0.15847 0.0
C50 C 0.25254 0.72465 0.1788 0.0
C51 C 0.25846 0.70869 0.19312 0.0
C52 C 0.30115 0.68035 0.22432 0.0
C53 C 0.31607 0.66551 0.23105 0.0
C54 C 0.33224 0.67125 0.24593 0.0
C55 C 0.33361 0.69189 0.25459 0.0
C56 C 0.31818 0.70656 0.24833 0.0
C57 C 0.30206 0.70081 0.2333 0.0
C58 C 0.25715 0.66184 0.21747 0.0
C59 C 0.24281 0.64878 0.20548 0.0
C60 C 0.22532 0.63886 0.21525 0.0
C61 C 0.22174 0.64199 0.23721 0.0
C62 C 0.23567 0.65591 0.24896 0.0
C63 C 0.25322 0.66581 0.23913 0.0
P64 P 0.00614 0.46596 0.03322 0.0
H65 H 0.97401 0.44766 0.00289 0.0
H66 H 0.97017 0.41281 0.98573 0.0
H67 H 0.02387 0.39117 0.02343 0.0
H68 H 0.02771 0.4262 0.0405 0.0
H69 H 0.99869 0.50614 0.01147 0.0
H70 H 0.96722 0.52765 0.00726 0.0
H71 H 0.9311 0.48314 0.04596 0.0
H72 H 0.9626 0.46124 0.04943 0.0
H73 H 0.04121 0.48808 0.05666 0.0
H74 H 0.98973 0.44339 0.07061 0.0
O75 O 0.02582 0.47653 0.01864 0.0
H76 H 0.05292 0.4878 0.09429 0.0
H77 H 0.00122 0.44331 0.1084 0.0
C78 C 0.00088 0.4394 0.02329 0.0
C79 C 0.9846 0.43528 0.00791 0.0
C80 C 0.98239 0.41531 0.99812 0.0
C81 C 0.99667 0.3992 0.0033 0.0
C82 C 0.01267 0.40327 0.01909 0.0
C83 C 0.01478 0.42323 0.02894 0.0
C84 C 0.98297 0.48206 0.03072 0.0
C85 C 0.98403 0.50099 0.01908 0.0
C86 C 0.96603 0.51341 0.01685 0.0
C87 C 0.94662 0.50721 0.02637 0.0
C88 C 0.94572 0.4883 0.03826 0.0
C89 C 0.96375 0.47583 0.04039 0.0
C90 C 0.01472 0.46561 0.06086 0.0
C91 C 0.03246 0.47816 0.0678 0.0
C92 C 0.03915 0.47799 0.08928 0.0
C93 C 0.02799 0.4655 0.1042 0.0
C94 C 0.01 0.45319 0.09724 0.0
C95 C 0.00346 0.4532 0.07569 0.0
P96 P 0.69305 0.78284 0.18035 0.0
H97 H 0.70775 0.81816 0.15403 0.0
H98 H 0.73369 0.84748 0.16038 0.0
H99 H 0.75002 0.82116 0.22219 0.0
H100 H 0.72446 0.79156 0.21538 0.0
H101 H 0.67051 0.75328 0.15133 0.0
H102 H 0.68233 0.72501 0.12788 0.0
H103 H 0.74753 0.73675 0.15031 0.0
H104 H 0.73543 0.76478 0.17416 0.0
H105 H 0.67966 0.80549 0.21813 0.0
H106 H 0.6815 0.74027 0.19705 0.0
O107 O 0.673 0.79401 0.16696 0.0
H108 H 0.6598 0.79443 0.24959 0.0
H109 H 0.6617 0.72904 0.22862 0.0
C110 C 0.7138 0.80304 0.18448 0.0
C111 C 0.71703 0.81864 0.16888 0.0
C112 C 0.73181 0.83544 0.17257 0.0
C113 C 0.74371 0.83687 0.19193 0.0
C114 C 0.74118 0.82054 0.20707 0.0
C115 C 0.72643 0.80369 0.2033 0.0
C116 C 0.70216 0.7614 0.16409 0.0
C117 C 0.68735 0.74976 0.1512 0.0
C118 C 0.69414 0.73365 0.13777 0.0
C119 C 0.71592 0.72882 0.137 0.0
C120 C 0.73064 0.74003 0.15057 0.0
C121 C 0.72378 0.75617 0.16409 0.0
C122 C 0.68228 0.77374 0.20535 0.0
C123 C 0.67631 0.78871 0.22059 0.0
C124 C 0.66501 0.78234 0.23863 0.0
C125 C 0.6592 0.76082 0.24166 0.0
C126 C 0.66585 0.74573 0.2267 0.0
C127 C 0.67727 0.75215 0.20866 0.0
P128 P 0.0692 0.93111 0.41242 0.0
H129 H 0.10183 0.93519 0.44645 0.0
H130 H 0.1281 0.96328 0.45615 0.0
H131 H 0.10468 0.00135 0.40377 0.0
H132 H 0.07795 0.97351 0.39471 0.0
H133 H 0.05327 0.88772 0.41812 0.0
H134 H 0.0381 0.86881 0.44852 0.0
H135 H 0.0462 0.92576 0.48731 0.0
H136 H 0.06016 0.94481 0.45638 0.0
H137 H 0.05312 0.92076 0.36908 0.0
H138 H 0.03658 0.96194 0.42118 0.0
O139 O 0.08283 0.91396 0.39798 0.0
H140 H 0.02274 0.93307 0.34788 0.0
H141 H 0.00584 0.97417 0.40015 0.0
C142 C 0.0875 0.95252 0.42029 0.0
C143 C 0.10206 0.94978 0.43734 0.0
C144 C 0.11724 0.96577 0.44272 0.0
C145 C 0.11847 0.98464 0.43079 0.0
C146 C 0.10388 0.98724 0.4136 0.0
C147 C 0.0886 0.97128 0.40835 0.0
C148 C 0.05847 0.91744 0.43521 0.0
C149 C 0.05186 0.89608 0.43322 0.0
C150 C 0.0433 0.88526 0.45069 0.0
C151 C 0.04124 0.89561 0.47056 0.0
C152 C 0.04746 0.91725 0.47229 0.0
C153 C 0.05573 0.92812 0.45467 0.0
C154 C 0.0471 0.94052 0.39665 0.0
C155 C 0.04295 0.93247 0.37596 0.0
C156 C 0.02549 0.93944 0.3639 0.0
C157 C 0.01186 0.95457 0.37235 0.0
C158 C 0.01618 0.96268 0.3931 0.0
C159 C 0.03364 0.95565 0.40517 0.0
P160 P 0.22896 0.74734 0.74653 0.0
H161 H 0.25911 0.77346 0.77225 0.0
H162 H 0.2575 0.78926 0.80794 0.0
H163 H 0.19322 0.76309 0.81438 0.0
H164 H 0.19524 0.74679 0.77895 0.0
H165 H 0.2313 0.71341 0.71487 0.0
H166 H 0.2488 0.67921 0.71507 0.0
H167 H 0.26869 0.68997 0.78108 0.0
H168 H 0.25153 0.72421 0.78063 0.0
H169 H 0.20885 0.77558 0.71572 0.0
H170 H 0.19189 0.71779 0.74891 0.0
O171 O 0.24563 0.76235 0.73203 0.0
H172 H 0.1731 0.7757 0.69903 0.0
H173 H 0.15585 0.71808 0.73252 0.0
C174 C 0.22717 0.7593 0.77272 0.0
C175 C 0.24461 0.77126 0.78127 0.0
C176 C 0.24361 0.78039 0.80166 0.0
C177 C 0.22511 0.77769 0.81396 0.0
C178 C 0.20773 0.76544 0.8054 0.0
C179 C 0.20881 0.75623 0.78501 0.0
C180 C 0.23981 0.72122 0.7478 0.0
C181 C 0.2392 0.70826 0.72946 0.0
C182 C 0.2492 0.68871 0.7296 0.0
C183 C 0.26018 0.68186 0.74808 0.0
C184 C 0.2606 0.69488 0.7665 0.0
C185 C 0.25058 0.71441 0.76632 0.0
C186 C 0.20306 0.74654 0.73334 0.0
C187 C 0.1975 0.7628 0.71926 0.0
C188 C 0.17709 0.76287 0.70972 0.0
C189 C 0.16177 0.74688 0.71447 0.0
C190 C 0.16736 0.73062 0.72866 0.0
C191 C 0.18792 0.73039 0.73793 0.0
P192 P 0.97427 0.5202 0.53172 0.0
H193 H 0.01728 0.53218 0.51852 0.0
H194 H 0.03528 0.5305 0.48409 0.0
H195 H 0.97671 0.50556 0.45414 0.0
H196 H 0.95881 0.50769 0.48832 0.0
H197 H 0.97557 0.5395 0.57427 0.0
H198 H 0.97154 0.57591 0.58686 0.0
H199 H 0.96116 0.59612 0.52147 0.0
H200 H 0.96589 0.55973 0.50901 0.0
H201 H 0.96113 0.47626 0.53971 0.0
H202 H 0.93112 0.53381 0.51982 0.0
O203 O 0.99007 0.50784 0.54919 0.0
H204 H 0.92688 0.45678 0.53573 0.0
H205 H 0.89667 0.51446 0.51604 0.0
C206 C 0.98683 0.51982 0.50605 0.0
C207 C 0.00833 0.52646 0.50448 0.0
C208 C 0.01859 0.52543 0.48483 0.0
C209 C 0.00745 0.5178 0.4664 0.0
C210 C 0.98569 0.51173 0.46797 0.0
C211 C 0.97547 0.51277 0.48761 0.0
C212 C 0.97145 0.54707 0.54072 0.0
C213 C 0.97261 0.55182 0.56266 0.0
C214 C 0.97009 0.57261 0.56983 0.0
C215 C 0.96609 0.58896 0.55516 0.0
C216 C 0.96461 0.58399 0.53316 0.0
C217 C 0.96725 0.5632 0.52601 0.0
C218 C 0.94857 0.50655 0.53052 0.0
C219 C 0.94708 0.48478 0.53487 0.0
C220 C 0.92747 0.47369 0.53263 0.0
C221 C 0.90902 0.48414 0.52576 0.0
C222 C 0.9106 0.50598 0.52133 0.0
C223 C 0.93025 0.51709 0.52367 0.0
P224 P 0.84153 0.86162 0.85221 0.0
H225 H 0.86257 0.88593 0.81863 0.0
H226 H 0.87947 0.87574 0.78531 0.0
H227 H 0.86788 0.80953 0.80067 0.0
H228 H 0.84976 0.81987 0.83284 0.0
H229 H 0.81182 0.88378 0.87882 0.0
H230 H 0.77742 0.89966 0.87132 0.0
H231 H 0.78479 0.88708 0.80368 0.0
H232 H 0.81824 0.86988 0.81156 0.0
H233 H 0.86746 0.83294 0.87737 0.0
H234 H 0.80062 0.83896 0.86079 0.0
O235 O 0.8581 0.87756 0.86668 0.0
H236 H 0.85919 0.79945 0.89532 0.0
H237 H 0.79198 0.80656 0.88002 0.0
C238 C 0.85501 0.85373 0.82832 0.0
C239 C 0.86372 0.86923 0.81475 0.0
C240 C 0.87351 0.86334 0.79576 0.0
C241 C 0.87511 0.84175 0.79018 0.0
C242 C 0.86662 0.8263 0.80412 0.0
C243 C 0.85645 0.83223 0.82281 0.0
C244 C 0.8177 0.87582 0.84578 0.0
C245 C 0.80606 0.88465 0.86236 0.0
C246 C 0.78641 0.89384 0.858 0.0
C247 C 0.77818 0.8947 0.83685 0.0
C248 C 0.79032 0.88637 0.8202 0.0
C249 C 0.80974 0.87677 0.82466 0.0
C250 C 0.83469 0.83861 0.86797 0.0
C251 C 0.85094 0.82734 0.87812 0.0
C252 C 0.84612 0.80822 0.88849 0.0
C253 C 0.82487 0.80016 0.88916 0.0
C254 C 0.80857 0.81197 0.87951 0.0
C255 C 0.81348 0.8308 0.86874 0.0
P256 P 0.34512 0.35632 0.35893 0.0
H257 H 0.37002 0.38225 0.32963 0.0
H258 H 0.38771 0.3745 0.29614 0.0
H259 H 0.36986 0.30796 0.30292 0.0
H260 H 0.35075 0.31623 0.33522 0.0
H261 H 0.3249 0.39531 0.37286 0.0
H262 H 0.29134 0.41162 0.36223 0.0
H263 H 0.27884 0.36119 0.31593 0.0
H264 H 0.31263 0.3453 0.32634 0.0
H265 H 0.36975 0.32061 0.37433 0.0
H266 H 0.30494 0.34154 0.37863 0.0
O267 O 0.36033 0.37279 0.37426 0.0
H268 H 0.35955 0.28763 0.3924 0.0
H269 H 0.29485 0.30917 0.39746 0.0
C270 C 0.35964 0.34976 0.3353 0.0
C271 C 0.37009 0.36598 0.32393 0.0
C272 C 0.38032 0.36146 0.30481 0.0
C273 C 0.38048 0.34052 0.29676 0.0
C274 C 0.36994 0.32431 0.30835 0.0
C275 C 0.35931 0.32896 0.32719 0.0
C276 C 0.32134 0.36931 0.35014 0.0
C277 C 0.31506 0.38795 0.36022 0.0
C278 C 0.29579 0.39714 0.35425 0.0
C279 C 0.28242 0.38771 0.33821 0.0
C280 C 0.28892 0.36906 0.32808 0.0
C281 C 0.3082 0.35993 0.33403 0.0
C282 C 0.33798 0.33318 0.37441 0.0
C283 C 0.35337 0.31818 0.37933 0.0
C284 C 0.34754 0.29941 0.38985 0.0
C285 C 0.32626 0.29556 0.39613 0.0
C286 C 0.31121 0.31131 0.39232 0.0
C287 C 0.31702 0.32993 0.38157 0.0
P288 P 0.50308 0.97029 0.538 0.0
H289 H 0.49949 0.96002 0.49287 0.0
H290 H 0.49455 0.92654 0.47296 0.0
H291 H 0.49217 0.89218 0.5325 0.0
H292 H 0.49604 0.9258 0.55246 0.0
H293 H 0.4941 0.00897 0.51416 0.0
H294 H 0.46152 0.02844 0.50803 0.0
H295 H 0.42674 0.98367 0.54762 0.0
H296 H 0.45947 0.9638 0.55305 0.0
H297 H 0.53311 0.94343 0.56078 0.0
H298 H 0.48963 0.99264 0.5767 0.0
O299 O 0.52354 0.98327 0.52665 0.0
H300 H 0.54358 0.9405 0.59854 0.0
H301 H 0.50059 0.99046 0.61422 0.0
C302 C 0.49884 0.94536 0.5241 0.0
C303 C 0.49782 0.94531 0.50166 0.0
C304 C 0.4949 0.92625 0.49032 0.0
C305 C 0.49315 0.9069 0.50128 0.0
C306 C 0.4937 0.90695 0.52378 0.0
C307 C 0.49611 0.92613 0.53514 0.0
C308 C 0.47919 0.98508 0.53422 0.0
C309 C 0.47951 0.00339 0.52161 0.0
C310 C 0.46086 0.01461 0.51825 0.0
C311 C 0.44152 0.00775 0.5275 0.0
C312 C 0.44131 0.98931 0.54014 0.0
C313 C 0.45999 0.97801 0.54336 0.0
C314 C 0.50992 0.96758 0.56601 0.0
C315 C 0.5256 0.95341 0.57244 0.0
C316 C 0.53178 0.95196 0.59402 0.0
C317 C 0.52278 0.96512 0.6095 0.0
C318 C 0.50742 0.97967 0.60286 0.0
C319 C 0.50113 0.98094 0.58132 0.0
P320 P 0.19292 0.28558 0.67016 0.0
H321 H 0.20463 0.32611 0.65041 0.0
H322 H 0.2285 0.35568 0.6616 0.0
H323 H 0.24425 0.32237 0.7199 0.0
H324 H 0.22063 0.29258 0.70831 0.0
H325 H 0.18176 0.24073 0.66294 0.0
H326 H 0.19899 0.21297 0.6426 0.0
H327 H 0.25324 0.25564 0.63237 0.0
H328 H 0.23583 0.28336 0.65243 0.0
H329 H 0.14957 0.29628 0.68106 0.0
H330 H 0.19915 0.25732 0.70712 0.0
O331 O 0.17726 0.29394 0.65015 0.0
H332 H 0.12617 0.28575 0.71014 0.0
H333 H 0.17567 0.24679 0.73664 0.0
C334 C 0.2105 0.30733 0.67875 0.0
C335 C 0.21312 0.32518 0.66565 0.0
C336 C 0.22676 0.34212 0.67209 0.0
C337 C 0.23815 0.34149 0.69174 0.0
C338 C 0.23582 0.32332 0.70462 0.0
C339 C 0.22216 0.30635 0.69812 0.0
C340 C 0.20767 0.26398 0.65956 0.0
C341 C 0.19762 0.24391 0.65684 0.0
C342 C 0.20749 0.22805 0.6452 0.0
C343 C 0.22745 0.23214 0.63582 0.0
C344 C 0.23778 0.25207 0.63924 0.0
C345 C 0.22791 0.26788 0.6509 0.0
C346 C 0.17595 0.27732 0.69175 0.0
C347 C 0.15537 0.2853 0.69296 0.0
C348 C 0.14197 0.27921 0.70957 0.0
C349 C 0.14899 0.26521 0.72551 0.0
C350 C 0.16983 0.25754 0.72454 0.0
C351 C 0.18321 0.26351 0.7077 0.0
P352 P 0.77394 0.17325 0.70757 0.0
H353 H 0.7881 0.18494 0.66503 0.0
H354 H 0.77803 0.2129 0.64027 0.0
H355 H 0.73533 0.23762 0.68716 0.0
H356 H 0.74548 0.20931 0.71203 0.0
H357 H 0.80748 0.14844 0.72712 0.0
H358 H 0.83731 0.15745 0.7518 0.0
H359 H 0.81732 0.22244 0.75397 0.0
H360 H 0.78736 0.21323 0.72936 0.0
H361 H 0.73542 0.15087 0.69231 0.0
H362 H 0.76101 0.17464 0.75282 0.0
O363 O 0.78195 0.15332 0.69226 0.0
H364 H 0.70522 0.13414 0.71055 0.0
H365 H 0.73056 0.1583 0.77122 0.0
C366 C 0.76724 0.19485 0.69019 0.0
C367 C 0.77652 0.1963 0.67001 0.0
C368 C 0.77067 0.21223 0.65583 0.0
C369 C 0.7556 0.22721 0.66165 0.0
C370 C 0.74689 0.22621 0.68223 0.0
C371 C 0.75263 0.21007 0.69639 0.0
C372 C 0.79556 0.18029 0.72601 0.0
C373 C 0.80957 0.16465 0.73284 0.0
C374 C 0.82661 0.16981 0.74694 0.0
C375 C 0.82977 0.19068 0.7547 0.0
C376 C 0.81524 0.20619 0.74835 0.0
C377 C 0.79823 0.20101 0.73414 0.0
C378 C 0.75059 0.16364 0.72124 0.0
C379 C 0.73434 0.15274 0.70951 0.0
C380 C 0.71698 0.14334 0.71997 0.0
C381 C 0.71552 0.14479 0.74239 0.0
C382 C 0.73139 0.15663 0.75398 0.0
C383 C 0.74879 0.16603 0.74347 0.0
P384 P 0.55704 0.55382 0.55511 0.0
H385 H 0.55572 0.54763 0.60118 0.0
H386 H 0.52679 0.53904 0.62564 0.0
H387 H 0.48246 0.53245 0.57177 0.0
H388 H 0.51162 0.54126 0.54734 0.0
H389 H 0.6032 0.54932 0.55243 0.0
H390 H 0.62552 0.51914 0.54525 0.0
H391 H 0.56878 0.47894 0.53581 0.0
H392 H 0.54642 0.50947 0.54288 0.0
H393 H 0.52521 0.58613 0.54963 0.0
H394 H 0.56832 0.55262 0.50947 0.0
O395 O 0.57251 0.57152 0.56873 0.0
H396 H 0.51488 0.6082 0.51933 0.0
H397 H 0.55789 0.57451 0.47895 0.0
C398 C 0.5357 0.5456 0.57252 0.0
C399 C 0.53979 0.54427 0.59462 0.0
C400 C 0.52324 0.53919 0.60858 0.0
C401 C 0.50225 0.5352 0.60068 0.0
C402 C 0.49837 0.53578 0.57839 0.0
C403 C 0.51502 0.54078 0.56441 0.0
C404 C 0.57316 0.53153 0.5486 0.0
C405 C 0.59551 0.53403 0.54886 0.0
C406 C 0.60829 0.51672 0.54482 0.0
C407 C 0.59895 0.49655 0.54025 0.0
C408 C 0.57647 0.49427 0.53927 0.0
C409 C 0.56367 0.51165 0.54341 0.0
C410 C 0.54718 0.56742 0.53173 0.0
C411 C 0.53206 0.58316 0.53414 0.0
C412 C 0.52616 0.59578 0.51677 0.0
C413 C 0.53551 0.5931 0.49667 0.0
C414 C 0.55048 0.57708 0.49425 0.0
C415 C 0.55632 0.5644 0.51165 0.0
P416 P 0.574 0.44398 0.91405 0.0
H417 H 0.59682 0.45353 0.95469 0.0
H418 H 0.62245 0.48181 0.9655 0.0
H419 H 0.61486 0.51084 0.90335 0.0
H420 H 0.5889 0.48267 0.89277 0.0
H421 H 0.58198 0.40196 0.9318 0.0
H422 H 0.56781 0.38296 0.96267 0.0
H423 H 0.52797 0.4359 0.9767 0.0
H424 H 0.54268 0.45504 0.9461 0.0
H425 H 0.55397 0.42519 0.87548 0.0
H426 H 0.54591 0.48037 0.91532 0.0
O427 O 0.5894 0.42796 0.90015 0.0
H428 H 0.52391 0.43541 0.85265 0.0
H429 H 0.51523 0.49033 0.89304 0.0
C430 C 0.5906 0.46624 0.92307 0.0
C431 C 0.60028 0.46622 0.94354 0.0
C432 C 0.61508 0.48231 0.94965 0.0
C433 C 0.62067 0.49859 0.93529 0.0
C434 C 0.61062 0.49875 0.91492 0.0
C435 C 0.59582 0.48263 0.90882 0.0
C436 C 0.56313 0.42978 0.93648 0.0
C437 C 0.57014 0.40946 0.94146 0.0
C438 C 0.56197 0.39857 0.95909 0.0
C439 C 0.54667 0.40786 0.9721 0.0
C440 C 0.53987 0.42837 0.96714 0.0
C441 C 0.54809 0.43925 0.94951 0.0
C442 C 0.55233 0.45218 0.8969 0.0
C443 C 0.54576 0.43957 0.87928 0.0
C444 C 0.52841 0.44534 0.86634 0.0
C445 C 0.5171 0.46371 0.87099 0.0
C446 C 0.52377 0.47629 0.88877 0.0
C447 C 0.54122 0.47055 0.90162 0.0
P448 P 0.72895 0.24683 0.2478 0.0
H449 H 0.75525 0.24041 0.28656 0.0
H450 H 0.75403 0.25513 0.3229 0.0
H451 H 0.69807 0.28985 0.30495 0.0
H452 H 0.6996 0.2755 0.26853 0.0
H453 H 0.77257 0.23558 0.23734 0.0
H454 H 0.79068 0.2018 0.23615 0.0
H455 H 0.73256 0.16916 0.25576 0.0
H456 H 0.71448 0.20301 0.25667 0.0
H457 H 0.71306 0.25663 0.20471 0.0
H458 H 0.68725 0.23143 0.2632 0.0
O459 O 0.74344 0.26491 0.23449 0.0
H460 H 0.67709 0.25667 0.18863 0.0
H461 H 0.65119 0.23121 0.24713 0.0
C462 C 0.72712 0.2563 0.27499 0.0
C463 C 0.74257 0.25097 0.29048 0.0
C464 C 0.74195 0.2595 0.31119 0.0
C465 C 0.72585 0.27349 0.31674 0.0
C466 C 0.71043 0.27884 0.30118 0.0
C467 C 0.71127 0.27057 0.28039 0.0
C468 C 0.74205 0.22177 0.2467 0.0
C469 C 0.76366 0.22115 0.24122 0.0
C470 C 0.77405 0.20183 0.24069 0.0
C471 C 0.76303 0.18276 0.24573 0.0
C472 C 0.74139 0.18351 0.25141 0.0
C473 C 0.73104 0.20287 0.252 0.0
C474 C 0.70274 0.24446 0.23529 0.0
C475 C 0.69967 0.25093 0.21403 0.0
C476 C 0.6791 0.25081 0.20481 0.0
C477 C 0.66127 0.24415 0.21669 0.0
C478 C 0.66457 0.23678 0.2377 0.0
C479 C 0.68516 0.23681 0.24686 0.0
P480 P 0.46598 0.0324 0.03528 0.0
H481 H 0.50956 0.04187 0.0222 0.0
H482 H 0.52767 0.03852 0.988 0.0
H483 H 0.46822 0.01587 0.95806 0.0
H484 H 0.45021 0.01971 0.99205 0.0
H485 H 0.46653 0.05329 0.077 0.0
H486 H 0.46318 0.09027 0.08802 0.0
H487 H 0.45493 0.1082 0.02166 0.0
H488 H 0.4589 0.07119 0.01077 0.0
H489 H 0.45274 0.98865 0.04379 0.0
H490 H 0.42271 0.04621 0.02397 0.0
O491 O 0.48155 0.02064 0.0534 0.0
H492 H 0.41836 0.96934 0.04059 0.0
H493 H 0.38808 0.02703 0.02101 0.0
C494 C 0.47867 0.03073 0.00975 0.0
C495 C 0.50045 0.03627 0.00822 0.0
C496 C 0.51078 0.03429 0.9887 0.0
C497 C 0.49942 0.0268 0.97033 0.0
C498 C 0.4774 0.02187 0.97184 0.0
C499 C 0.4671 0.02388 0.99137 0.0
C500 C 0.46342 0.05965 0.04309 0.0
C501 C 0.46415 0.06522 0.06484 0.0
C502 C 0.46201 0.08634 0.07111 0.0
C503 C 0.45884 0.10221 0.05571 0.0
C504 C 0.45772 0.09642 0.03389 0.0
C505 C 0.45994 0.07528 0.02764 0.0
C506 C 0.44018 0.01892 0.03457 0.0
C507 C 0.43865 0.99722 0.03914 0.0
C508 C 0.41896 0.98622 0.03737 0.0
C509 C 0.40043 0.99672 0.03078 0.0
C510 C 0.40205 0.01852 0.02613 0.0
C511 C 0.4218 0.02952 0.02797 0.0
Zn512 Zn 0.27882 0.84036 0.99913 0.0
Zn513 Zn 0.24336 0.86076 0.00419 0.0
O514 O 0.24347 0.84063 0.03064 0.0
O515 O 0.27447 0.82552 0.02699 0.0
O516 O 0.21656 0.87783 0.007 0.0
O517 O 0.29651 0.86724 0.99869 0.0
O518 O 0.26735 0.88442 0.00557 0.0
C519 C 0.25766 0.82807 0.03754 0.0
C520 C 0.25025 0.83277 0.96397 0.0
O521 O 0.239 0.84568 0.97444 0.0
O522 O 0.26814 0.82732 0.97158 0.0
C523 C 0.21297 0.88792 0.02421 0.0
O524 O 0.2265 0.88642 0.0405 0.0
C525 C 0.28749 0.88447 0.0026 0.0
Zn526 Zn 0.09083 0.44418 0.29913 0.0
Zn527 Zn 0.10944 0.48345 0.29316 0.0
O528 O 0.09106 0.48894 0.31921 0.0
O529 O 0.07536 0.45755 0.32398 0.0
O530 O 0.12495 0.51107 0.28674 0.0
O531 O 0.1203 0.43218 0.30422 0.0
O532 O 0.13447 0.46415 0.29933 0.0
C533 C 0.07828 0.47685 0.32954 0.0
C534 C 0.08143 0.46165 0.25766 0.0
O535 O 0.0927 0.47725 0.2652 0.0
O536 O 0.07829 0.44518 0.26888 0.0
C537 C 0.12041 0.52968 0.29272 0.0
O538 O 0.10372 0.53238 0.30477 0.0
C539 C 0.13665 0.44455 0.30338 0.0
Zn540 Zn 0.7945 0.60687 0.94203 0.0
Zn541 Zn 0.78389 0.62144 0.98117 0.0
O542 O 0.80971 0.60299 0.98822 0.0
O543 O 0.81843 0.59114 0.9564 0.0
O544 O 0.77667 0.63494 0.00938 0.0
O545 O 0.80036 0.63674 0.93168 0.0
O546 O 0.79055 0.64806 0.96331 0.0
C547 C 0.8217 0.59201 0.97649 0.0
C548 C 0.7516 0.59411 0.95461 0.0
O549 O 0.75674 0.60433 0.97173 0.0
O550 O 0.76476 0.59315 0.93948 0.0
C551 C 0.7631 0.62783 0.02265 0.0
O552 O 0.7529 0.60964 0.01864 0.0
C553 C 0.79704 0.65189 0.94447 0.0
Zn554 Zn 0.83647 0.99931 0.27747 0.0
Zn555 Zn 0.86017 0.00412 0.2421 0.0
O556 O 0.84438 0.03254 0.2437 0.0
O557 O 0.82539 0.02872 0.27282 0.0
O558 O 0.8802 0.00729 0.21713 0.0
O559 O 0.8629 0.99513 0.29591 0.0
O560 O 0.88178 0.99896 0.26678 0.0
C561 C 0.83117 0.03984 0.25699 0.0
C562 C 0.82637 0.96775 0.24458 0.0
O563 O 0.84084 0.97786 0.23429 0.0
O564 O 0.82156 0.97385 0.2632 0.0
C565 C 0.87708 0.01819 0.20033 0.0
O566 O 0.85913 0.02832 0.19801 0.0
C567 C 0.88085 0.99564 0.28687 0.0
Zn568 Zn 0.28638 0.10171 0.4401 0.0
Zn569 Zn 0.27488 0.11482 0.47946 0.0
O570 O 0.30086 0.09682 0.48663 0.0
O571 O 0.3104 0.08606 0.45467 0.0
O572 O 0.26557 0.12651 0.50778 0.0
O573 O 0.29172 0.13207 0.43102 0.0
O574 O 0.28202 0.1423 0.46304 0.0
C575 C 0.31329 0.08644 0.47484 0.0
C576 C 0.24381 0.08746 0.45115 0.0
O577 O 0.24856 0.09718 0.46866 0.0
O578 O 0.2571 0.0874 0.4361 0.0
C579 C 0.27903 0.13372 0.52177 0.0
O580 O 0.29958 0.13252 0.5181 0.0
C581 C 0.28856 0.1468 0.44436 0.0
Zn582 Zn 0.33781 0.49995 0.77992 0.0
Zn583 Zn 0.35933 0.50459 0.74315 0.0
O584 O 0.34336 0.53281 0.74547 0.0
O585 O 0.32571 0.52895 0.77544 0.0
O586 O 0.37694 0.50782 0.71642 0.0
O587 O 0.36553 0.49693 0.79665 0.0
O588 O 0.38269 0.49996 0.76636 0.0
C589 C 0.33058 0.54 0.75925 0.0
C590 C 0.32606 0.46797 0.74809 0.0
O591 O 0.33968 0.47823 0.73688 0.0
O592 O 0.32247 0.47398 0.76705 0.0
C593 C 0.39168 0.5222 0.716 0.0
O594 O 0.39438 0.53497 0.73262 0.0
C595 C 0.38292 0.49731 0.7866 0.0
Zn596 Zn 0.7744 0.33529 0.49987 0.0
Zn597 Zn 0.74184 0.35986 0.50539 0.0
O598 O 0.74082 0.34064 0.53254 0.0
O599 O 0.7704 0.32303 0.52897 0.0
O600 O 0.71764 0.38034 0.50868 0.0
O601 O 0.79474 0.36022 0.49653 0.0
O602 O 0.76829 0.38056 0.5052 0.0
C603 C 0.7542 0.32741 0.53977 0.0
C604 C 0.7434 0.32919 0.46658 0.0
O605 O 0.73486 0.34465 0.47617 0.0
O606 O 0.76023 0.32128 0.47424 0.0
C607 C 0.7004 0.37656 0.51866 0.0
O608 O 0.69726 0.3579 0.52756 0.0
C609 C 0.78795 0.37843 0.50083 0.0
Zn610 Zn 0.58406 0.94808 0.80616 0.0
Zn611 Zn 0.60198 0.98738 0.79844 0.0
O612 O 0.58373 0.99316 0.82459 0.0
O613 O 0.5678 0.96202 0.83006 0.0
O614 O 0.61677 0.01516 0.79111 0.0
O615 O 0.61382 0.93719 0.81256 0.0
O616 O 0.6275 0.96867 0.80434 0.0
C617 C 0.57077 0.98143 0.83512 0.0
C618 C 0.57456 0.96383 0.7638 0.0
O619 O 0.58517 0.98007 0.77088 0.0
O620 O 0.57207 0.94761 0.77552 0.0
C621 C 0.61391 0.03346 0.79903 0.0
O622 O 0.59961 0.03575 0.81392 0.0
C623 C 0.62997 0.94952 0.81001 0.0
Zn624 Zn 0.99326 0.28017 0.84224 0.0
Zn625 Zn 0.00052 0.24581 0.8653 0.0
O626 O 0.02722 0.24844 0.84595 0.0
O627 O 0.02169 0.27803 0.82838 0.0
O628 O 0.00703 0.22046 0.88413 0.0
O629 O 0.99082 0.29812 0.86847 0.0
O630 O 0.99785 0.27004 0.88783 0.0
C631 C 0.03333 0.26242 0.83246 0.0
C632 C 0.96135 0.24732 0.83444 0.0
O633 O 0.97232 0.23755 0.84853 0.0
O634 O 0.96717 0.26585 0.8288 0.0
C635 C 0.99356 0.2058 0.88906 0.0
O636 O 0.97389 0.20635 0.8813 0.0
C637 C 0.99386 0.28975 0.88661 0.0
Zn638 Zn 0.49477 0.78175 0.34588 0.0
Zn639 Zn 0.50031 0.74795 0.37013 0.0
O640 O 0.52742 0.74869 0.35121 0.0
O641 O 0.5219 0.77637 0.33073 0.0
O642 O 0.50504 0.7232 0.39009 0.0
O643 O 0.4956 0.80123 0.37134 0.0
O644 O 0.49829 0.773 0.39173 0.0
C645 C 0.53339 0.76104 0.33616 0.0
C646 C 0.46091 0.75038 0.33987 0.0
O647 O 0.47203 0.74008 0.35343 0.0
O648 O 0.46705 0.76887 0.33438 0.0
C649 C 0.50449 0.7038 0.38429 0.0
O650 O 0.50047 0.699 0.36405 0.0
C651 C 0.49693 0.79306 0.38976 0.0
Zn652 Zn 0.93981 0.78327 0.60674 0.0
Zn653 Zn 0.97886 0.77923 0.62689 0.0
O654 O 0.98515 0.80101 0.6033 0.0
O655 O 0.95432 0.80318 0.58579 0.0
O656 O 0.00768 0.77592 0.64171 0.0
O657 O 0.92872 0.79475 0.63479 0.0
O658 O 0.95981 0.78949 0.65088 0.0
C659 C 0.97396 0.80853 0.58799 0.0
C660 C 0.95505 0.74072 0.60538 0.0
O661 O 0.97107 0.74949 0.61524 0.0
O662 O 0.93902 0.75157 0.60028 0.0
C663 C 0.01347 0.75827 0.64937 0.0
O664 O 0.00028 0.74166 0.648 0.0
C665 C 0.94053 0.79537 0.65156 0.0
Zn666 Zn 0.44404 0.29832 0.10893 0.0
Zn667 Zn 0.48308 0.29105 0.12771 0.0
O668 O 0.49001 0.31335 0.1048 0.0
O669 O 0.45886 0.31934 0.08924 0.0
O670 O 0.51184 0.28546 0.14141 0.0
O671 O 0.43394 0.30813 0.13801 0.0
O672 O 0.46512 0.30074 0.15283 0.0
C673 C 0.4789 0.3229 0.09071 0.0
C674 C 0.45721 0.25491 0.10501 0.0
O675 O 0.47367 0.26223 0.11525 0.0
O676 O 0.44196 0.26698 0.10039 0.0
C677 C 0.51472 0.26866 0.15215 0.0
O678 O 0.49859 0.25505 0.1545 0.0
C679 C 0.44612 0.30719 0.15445 0.0
C680 C 0.23343 0.80744 0.84005 0.0
C681 C 0.22435 0.78714 0.83586 0.0
C682 C 0.23486 0.81569 0.86098 0.0
C683 C 0.22687 0.80342 0.87817 0.0
C684 C 0.21656 0.78346 0.87391 0.0
C685 C 0.2155 0.77551 0.85283 0.0
C686 C 0.24601 0.83703 0.86482 0.0
C687 C 0.20772 0.76995 0.89177 0.0
C688 C 0.25659 0.81109 0.93127 0.0
C689 C 0.24323 0.82457 0.94251 0.0
C690 C 0.25121 0.80392 0.91053 0.0
C691 C 0.23187 0.81021 0.90066 0.0
C692 C 0.21799 0.82338 0.91201 0.0
C693 C 0.22386 0.83048 0.93282 0.0
C694 C 0.26653 0.78995 0.899 0.0
C695 C 0.19714 0.83022 0.90204 0.0
H696 H 0.23986 0.81674 0.82698 0.0
H697 H 0.20857 0.75977 0.84981 0.0
H698 H 0.23615 0.84722 0.87497 0.0
H699 H 0.26141 0.83481 0.87356 0.0
H700 H 0.24938 0.84549 0.84963 0.0
H701 H 0.1976 0.75636 0.88559 0.0
H702 H 0.22113 0.76361 0.90145 0.0
H703 H 0.19807 0.77961 0.90265 0.0
H704 H 0.27157 0.80634 0.93855 0.0
H705 H 0.21342 0.84083 0.94138 0.0
H706 H 0.27216 0.79797 0.88427 0.0
H707 H 0.25827 0.77484 0.89396 0.0
H708 H 0.28073 0.78616 0.9091 0.0
H709 H 0.20038 0.84017 0.88779 0.0
H710 H 0.18755 0.83943 0.9134 0.0
H711 H 0.18746 0.81612 0.89644 0.0
C712 C 0.00864 0.5202 0.4263 0.0
C713 C 0.01866 0.5151 0.44585 0.0
C714 C 0.01831 0.51596 0.40671 0.0
C715 C 0.03848 0.50637 0.40668 0.0
C716 C 0.04903 0.5019 0.42636 0.0
C717 C 0.03899 0.50631 0.44569 0.0
C718 C 0.00662 0.52104 0.38605 0.0
C719 C 0.07055 0.49165 0.42699 0.0
C720 C 0.05271 0.4718 0.35949 0.0
C721 C 0.06726 0.48501 0.34857 0.0
C722 C 0.04294 0.47875 0.37816 0.0
C723 C 0.04782 0.49944 0.38617 0.0
C724 C 0.06212 0.51306 0.37501 0.0
C725 C 0.07167 0.50569 0.35632 0.0
C726 C 0.02771 0.46377 0.38957 0.0
C727 C 0.06767 0.53523 0.38309 0.0
H728 H 0.99307 0.5273 0.42633 0.0
H729 H 0.04673 0.50209 0.46071 0.0
H730 H 0.01722 0.5305 0.37544 0.0
H731 H 0.00207 0.50609 0.37739 0.0
H732 H 0.9919 0.52999 0.38882 0.0
H733 H 0.07734 0.49071 0.44353 0.0
H734 H 0.06891 0.47533 0.42025 0.0
H735 H 0.08206 0.50068 0.41695 0.0
H736 H 0.04911 0.45583 0.35361 0.0
H737 H 0.08287 0.51603 0.34798 0.0
H738 H 0.01203 0.47123 0.3915 0.0
H739 H 0.03414 0.4604 0.40586 0.0
H740 H 0.02505 0.44846 0.38084 0.0
H741 H 0.05288 0.54418 0.38533 0.0
H742 H 0.0782 0.54422 0.37197 0.0
H743 H 0.07594 0.53443 0.39895 0.0
C744 C 0.80385 0.76552 0.88977 0.0
C745 C 0.81984 0.77909 0.89894 0.0
C746 C 0.79941 0.74533 0.89823 0.0
C747 C 0.81162 0.73823 0.91597 0.0
C748 C 0.82764 0.75182 0.92546 0.0
C749 C 0.83139 0.77217 0.917 0.0
C750 C 0.78194 0.73141 0.88787 0.0
C751 C 0.8412 0.74467 0.94421 0.0
C752 C 0.7905 0.69077 0.94735 0.0
C753 C 0.80097 0.67404 0.93755 0.0
C754 C 0.79379 0.71179 0.94052 0.0
C755 C 0.80828 0.71618 0.92386 0.0
C756 C 0.81923 0.69939 0.91424 0.0
C757 C 0.81524 0.67849 0.92103 0.0
C758 C 0.78146 0.72923 0.95079 0.0
C759 C 0.83514 0.70349 0.89673 0.0
H760 H 0.79508 0.7704 0.87558 0.0
H761 H 0.84349 0.78261 0.9245 0.0
H762 H 0.78904 0.71736 0.88034 0.0
H763 H 0.77068 0.72547 0.90014 0.0
H764 H 0.77273 0.73995 0.87538 0.0
H765 H 0.85274 0.7573 0.95003 0.0
H766 H 0.83087 0.73977 0.95766 0.0
H767 H 0.85029 0.7306 0.93948 0.0
H768 H 0.77937 0.68736 0.96006 0.0
H769 H 0.82353 0.66563 0.91355 0.0
H770 H 0.77139 0.73702 0.93848 0.0
H771 H 0.79267 0.7416 0.95765 0.0
H772 H 0.77097 0.7232 0.96371 0.0
H773 H 0.82695 0.71031 0.88254 0.0
H774 H 0.84308 0.68881 0.89166 0.0
H775 H 0.84763 0.7153 0.90229 0.0
C776 C 0.98001 0.94665 0.3483 0.0
C777 C 0.99302 0.96157 0.35966 0.0
C778 C 0.96209 0.95292 0.33632 0.0
C779 C 0.95703 0.97465 0.33567 0.0
C780 C 0.97013 0.98983 0.34702 0.0
C781 C 0.98796 0.9831 0.35892 0.0
C782 C 0.94843 0.93624 0.32454 0.0
C783 C 0.96528 0.01315 0.34664 0.0
C784 C 0.92059 0.99155 0.28977 0.0
C785 C 0.90059 0.99154 0.29958 0.0
C786 C 0.93919 0.98654 0.30143 0.0
C787 C 0.93776 0.98137 0.32341 0.0
C788 C 0.91772 0.98177 0.33352 0.0
C789 C 0.8994 0.98687 0.3215 0.0
C790 C 0.96031 0.98634 0.29013 0.0
C791 C 0.91555 0.97633 0.35693 0.0
H792 H 0.98366 0.92996 0.34905 0.0
H793 H 0.9981 0.99472 0.36747 0.0
H794 H 0.93187 0.93617 0.3306 0.0
H795 H 0.9475 0.94002 0.30721 0.0
H796 H 0.95475 0.92006 0.3264 0.0
H797 H 0.97722 0.02295 0.35609 0.0
H798 H 0.965 0.01892 0.32988 0.0
H799 H 0.94918 0.0156 0.35319 0.0
H800 H 0.9217 0.99518 0.27287 0.0
H801 H 0.88406 0.98685 0.32926 0.0
H802 H 0.96649 0.97003 0.29019 0.0
H803 H 0.97234 0.99673 0.29875 0.0
H804 H 0.9589 0.99175 0.27326 0.0
H805 H 0.92012 0.95967 0.35963 0.0
H806 H 0.89898 0.9782 0.36259 0.0
H807 H 0.92658 0.98663 0.36687 0.0
C808 C 0.23627 0.19471 0.62595 0.0
C809 C 0.23654 0.21641 0.62099 0.0
C810 C 0.24369 0.1797 0.61134 0.0
C811 C 0.25137 0.18657 0.59127 0.0
C812 C 0.25196 0.20848 0.58633 0.0
C813 C 0.24458 0.22311 0.60125 0.0
C814 C 0.24299 0.15649 0.61723 0.0
C815 C 0.25988 0.21645 0.56504 0.0
C816 C 0.2864 0.15292 0.55655 0.0
C817 C 0.27164 0.14528 0.54087 0.0
C818 C 0.27987 0.16562 0.57364 0.0
C819 C 0.2581 0.17093 0.57497 0.0
C820 C 0.24301 0.1626 0.55966 0.0
C821 C 0.24994 0.14981 0.54285 0.0
C822 C 0.2964 0.17403 0.58978 0.0
C823 C 0.21966 0.16795 0.56048 0.0
H824 H 0.23021 0.18948 0.64125 0.0
H825 H 0.2445 0.23981 0.59716 0.0
H826 H 0.23196 0.14753 0.60607 0.0
H827 H 0.25908 0.14978 0.6156 0.0
H828 H 0.23757 0.15385 0.63387 0.0
H829 H 0.25987 0.23405 0.56395 0.0
H830 H 0.27639 0.21117 0.56244 0.0
H831 H 0.2496 0.20964 0.55185 0.0
H832 H 0.30317 0.14937 0.55524 0.0
H833 H 0.2384 0.14394 0.53085 0.0
H834 H 0.29101 0.17091 0.60632 0.0
H835 H 0.29843 0.19149 0.58807 0.0
H836 H 0.31222 0.16681 0.58771 0.0
H837 H 0.21327 0.16442 0.57657 0.0
H838 H 0.20973 0.15903 0.54828 0.0
H839 H 0.21793 0.1852 0.55769 0.0
C840 C 0.46495 0.54147 0.61296 0.0
C841 C 0.48446 0.53132 0.61583 0.0
C842 C 0.44872 0.53943 0.62814 0.0
C843 C 0.45204 0.52693 0.64662 0.0
C844 C 0.47141 0.51608 0.64924 0.0
C845 C 0.48736 0.51841 0.63384 0.0
C846 C 0.42832 0.55128 0.62476 0.0
C847 C 0.47555 0.50248 0.66865 0.0
C848 C 0.42255 0.53985 0.69749 0.0
C849 C 0.40638 0.52389 0.69765 0.0
C850 C 0.43727 0.54118 0.68083 0.0
C851 C 0.43586 0.52616 0.66385 0.0
C852 C 0.41937 0.5102 0.6637 0.0
C853 C 0.40482 0.50926 0.68058 0.0
C854 C 0.45456 0.55848 0.68159 0.0
C855 C 0.41733 0.49391 0.64587 0.0
H856 H 0.46265 0.55165 0.59922 0.0
H857 H 0.50226 0.51026 0.63601 0.0
H858 H 0.4142 0.54029 0.62615 0.0
H859 H 0.4271 0.56362 0.6374 0.0
H860 H 0.42757 0.5591 0.60886 0.0
H861 H 0.4909 0.49415 0.66771 0.0
H862 H 0.47602 0.51253 0.68332 0.0
H863 H 0.46235 0.49046 0.67041 0.0
H864 H 0.42389 0.55126 0.71055 0.0
H865 H 0.3924 0.49686 0.68055 0.0
H866 H 0.4539 0.56803 0.66672 0.0
H867 H 0.47053 0.5513 0.68244 0.0
H868 H 0.4531 0.56929 0.69557 0.0
H869 H 0.41595 0.50195 0.63016 0.0
H870 H 0.40322 0.48297 0.64772 0.0
H871 H 0.43195 0.48438 0.64555 0.0
C872 C 0.74465 0.23803 0.62472 0.0
C873 C 0.74933 0.24373 0.64608 0.0
C874 C 0.7418 0.25351 0.60897 0.0
C875 C 0.74377 0.27527 0.61471 0.0
C876 C 0.74687 0.28113 0.63653 0.0
C877 C 0.74961 0.26525 0.65202 0.0
C878 C 0.73832 0.24652 0.58594 0.0
C879 C 0.74891 0.30414 0.64332 0.0
C880 C 0.76908 0.30784 0.57081 0.0
C881 C 0.75127 0.31662 0.56058 0.0
C882 C 0.76688 0.29535 0.58913 0.0
C883 C 0.74629 0.29137 0.59749 0.0
C884 C 0.72832 0.30112 0.58799 0.0
C885 C 0.73104 0.31375 0.5696 0.0
C886 C 0.78654 0.28549 0.59884 0.0
C887 C 0.70615 0.29736 0.59654 0.0
H888 H 0.74398 0.22138 0.62017 0.0
H889 H 0.75317 0.26972 0.66854 0.0
H890 H 0.72517 0.25535 0.5783 0.0
H891 H 0.75306 0.25008 0.57684 0.0
H892 H 0.73444 0.22923 0.58452 0.0
H893 H 0.74732 0.30609 0.66092 0.0
H894 H 0.76485 0.31072 0.63878 0.0
H895 H 0.73664 0.31364 0.63504 0.0
H896 H 0.78485 0.3103 0.56416 0.0
H897 H 0.71723 0.32056 0.56179 0.0
H898 H 0.78538 0.26799 0.59669 0.0
H899 H 0.78765 0.2888 0.61631 0.0
H900 H 0.80155 0.29148 0.59142 0.0
H901 H 0.70045 0.28094 0.59248 0.0
H902 H 0.69455 0.30859 0.58965 0.0
H903 H 0.70631 0.2989 0.61426 0.0
C904 C 0.55139 0.96145 0.63794 0.0
C905 C 0.52977 0.9641 0.6324 0.0
C906 C 0.55827 0.9609 0.65946 0.0
C907 C 0.54323 0.96331 0.67586 0.0
C908 C 0.52139 0.96592 0.67043 0.0
C909 C 0.5149 0.96615 0.64878 0.0
C910 C 0.58169 0.95796 0.66464 0.0
C911 C 0.50491 0.96869 0.6875 0.0
C912 C 0.55829 0.94475 0.73181 0.0
C913 C 0.56569 0.96377 0.7416 0.0
C914 C 0.55079 0.94437 0.71045 0.0
C915 C 0.55047 0.96352 0.6987 0.0
C916 C 0.55749 0.98283 0.70862 0.0
C917 C 0.56514 0.98271 0.72991 0.0
C918 C 0.54362 0.92344 0.70032 0.0
C919 C 0.55714 0.00361 0.69668 0.0
H920 H 0.56306 0.9602 0.62544 0.0
H921 H 0.49812 0.96787 0.64467 0.0
H922 H 0.58844 0.97214 0.67333 0.0
H923 H 0.5836 0.94412 0.67535 0.0
H924 H 0.59119 0.95547 0.65004 0.0
H925 H 0.48855 0.97051 0.6806 0.0
H926 H 0.50468 0.95479 0.69833 0.0
H927 H 0.50921 0.98291 0.69744 0.0
H928 H 0.55874 0.93004 0.74071 0.0
H929 H 0.57071 0.9975 0.73739 0.0
H930 H 0.55379 0.91998 0.68644 0.0
H931 H 0.52691 0.92432 0.69414 0.0
H932 H 0.5445 0.91004 0.71176 0.0
H933 H 0.56775 0.00293 0.68268 0.0
H934 H 0.56244 0.01733 0.70694 0.0
H935 H 0.54073 0.0064 0.69043 0.0
C936 C 0.86894 0.1893 0.76356 0.0
C937 C 0.84863 0.19642 0.76868 0.0
C938 C 0.8872 0.19577 0.77565 0.0
C939 C 0.8851 0.20963 0.79336 0.0
C940 C 0.86452 0.21618 0.79915 0.0
C941 C 0.84654 0.20958 0.78667 0.0
C942 C 0.90886 0.18859 0.76882 0.0
C943 C 0.8616 0.23082 0.81803 0.0
C944 C 0.93281 0.2182 0.83186 0.0
C945 C 0.94185 0.23731 0.82424 0.0
C946 C 0.91419 0.20901 0.82213 0.0
C947 C 0.90456 0.21909 0.8043 0.0
C948 C 0.91369 0.2383 0.79653 0.0
C949 C 0.93211 0.24718 0.80661 0.0
C950 C 0.90479 0.18857 0.83092 0.0
C951 C 0.90406 0.24948 0.77744 0.0
H952 H 0.8707 0.17929 0.74956 0.0
H953 H 0.83083 0.21487 0.79088 0.0
H954 H 0.91838 0.2024 0.76282 0.0
H955 H 0.91784 0.18206 0.78267 0.0
H956 H 0.90759 0.17632 0.75595 0.0
H957 H 0.84445 0.23268 0.82172 0.0
H958 H 0.86999 0.22472 0.83246 0.0
H959 H 0.8688 0.24672 0.81455 0.0
H960 H 0.94019 0.2105 0.84549 0.0
H961 H 0.93897 0.2619 0.80051 0.0
H962 H 0.90448 0.17603 0.81835 0.0
H963 H 0.888 0.19084 0.83561 0.0
H964 H 0.914 0.18289 0.84507 0.0
H965 H 0.90362 0.23877 0.76324 0.0
H966 H 0.91318 0.26428 0.77335 0.0
H967 H 0.88731 0.25358 0.78073 0.0
C968 C 0.47516 0.88327 0.4738 0.0
C969 C 0.49169 0.88679 0.48899 0.0
C970 C 0.47515 0.86567 0.45994 0.0
C971 C 0.49242 0.85166 0.46094 0.0
C972 C 0.50865 0.85465 0.47696 0.0
C973 C 0.50797 0.87213 0.49097 0.0
C974 C 0.4573 0.8628 0.44341 0.0
C975 C 0.52753 0.84033 0.47831 0.0
C976 C 0.48798 0.80052 0.42802 0.0
C977 C 0.49707 0.80717 0.40875 0.0
C978 C 0.48654 0.81471 0.44539 0.0
C979 C 0.49489 0.83579 0.4435 0.0
C980 C 0.50489 0.84221 0.42435 0.0
C981 C 0.5056 0.82792 0.40714 0.0
C982 C 0.4754 0.80745 0.4654 0.0
C983 C 0.51446 0.86436 0.42183 0.0
H984 H 0.46254 0.89463 0.47242 0.0
H985 H 0.52082 0.87502 0.50266 0.0
H986 H 0.46344 0.86668 0.4273 0.0
H987 H 0.45131 0.84603 0.44292 0.0
H988 H 0.44369 0.87318 0.44667 0.0
H989 H 0.53731 0.84317 0.49318 0.0
H990 H 0.52211 0.8234 0.47771 0.0
H991 H 0.53788 0.84321 0.46432 0.0
H992 H 0.48128 0.78449 0.42923 0.0
H993 H 0.51285 0.83302 0.39232 0.0
H994 H 0.4606 0.81647 0.46736 0.0
H995 H 0.48576 0.81076 0.47976 0.0
H996 H 0.47102 0.79022 0.46489 0.0
H997 H 0.50162 0.87611 0.42228 0.0
H998 H 0.52305 0.86631 0.40652 0.0
H999 H 0.52582 0.8682 0.43529 0.0
C1000 C 0.11302 0.2537 0.73866 0.0
C1001 C 0.13452 0.25929 0.74322 0.0
C1002 C 0.09825 0.25118 0.75511 0.0
C1003 C 0.10512 0.25441 0.77668 0.0
C1004 C 0.12711 0.25858 0.78148 0.0
C1005 C 0.1416 0.26095 0.76466 0.0
C1006 C 0.075 0.24653 0.74926 0.0
C1007 C 0.13509 0.26202 0.80426 0.0
C1008 C 0.06221 0.27828 0.81022 0.0
C1009 C 0.0535 0.26044 0.82066 0.0
C1010 C 0.07973 0.27663 0.79678 0.0
C1011 C 0.08881 0.2566 0.79354 0.0
C1012 C 0.08086 0.2387 0.80488 0.0
C1013 C 0.06328 0.24084 0.8184 0.0
C1014 C 0.08782 0.29621 0.7852 0.0
C1015 C 0.09019 0.21712 0.80192 0.0
H1016 H 0.10759 0.25201 0.72211 0.0
H1017 H 0.15821 0.26528 0.76825 0.0
H1018 H 0.06838 0.23352 0.75929 0.0
H1019 H 0.06561 0.26084 0.75238 0.0
H1020 H 0.0727 0.242 0.73211 0.0
H1021 H 0.15282 0.2615 0.80562 0.0
H1022 H 0.13014 0.27778 0.81002 0.0
H1023 H 0.12798 0.24987 0.81502 0.0
H1024 H 0.05496 0.29356 0.81211 0.0
H1025 H 0.05665 0.227 0.82645 0.0
H1026 H 0.08458 0.2943 0.76773 0.0
H1027 H 0.10539 0.29834 0.78758 0.0
H1028 H 0.08011 0.31085 0.79074 0.0
H1029 H 0.08564 0.21084 0.78576 0.0
H1030 H 0.08438 0.20558 0.81405 0.0
H1031 H 0.10793 0.21825 0.80291 0.0
C1032 C 0.50938 0.61399 0.47483 0.0
C1033 C 0.53045 0.60775 0.47872 0.0
C1034 C 0.50462 0.6289 0.45889 0.0
C1035 C 0.52135 0.63784 0.44654 0.0
C1036 C 0.54258 0.63127 0.45007 0.0
C1037 C 0.54687 0.61632 0.46609 0.0
C1038 C 0.48176 0.63538 0.45555 0.0
C1039 C 0.56088 0.64048 0.43731 0.0
C1040 C 0.50768 0.66537 0.39402 0.0
C1041 C 0.50857 0.68685 0.4002 0.0
C1042 C 0.51171 0.64924 0.40893 0.0
C1043 C 0.51678 0.65469 0.43053 0.0
C1044 C 0.51764 0.67633 0.43687 0.0
C1045 C 0.51351 0.69212 0.42166 0.0
C1046 C 0.5106 0.62636 0.40155 0.0
C1047 C 0.52301 0.68283 0.45973 0.0
H1048 H 0.49656 0.60726 0.48433 0.0
H1049 H 0.56324 0.61183 0.46917 0.0
H1050 H 0.48048 0.65254 0.4592 0.0
H1051 H 0.47671 0.63295 0.43854 0.0
H1052 H 0.47048 0.62628 0.46583 0.0
H1053 H 0.5763 0.63299 0.44131 0.0
H1054 H 0.55745 0.63838 0.4199 0.0
H1055 H 0.56271 0.65779 0.44049 0.0
H1056 H 0.50387 0.66111 0.3775 0.0
H1057 H 0.51425 0.70864 0.42662 0.0
H1058 H 0.49863 0.61723 0.41097 0.0
H1059 H 0.5263 0.61903 0.4044 0.0
H1060 H 0.50621 0.62473 0.38426 0.0
H1061 H 0.51131 0.67532 0.47071 0.0
H1062 H 0.52296 0.70032 0.4621 0.0
H1063 H 0.53905 0.67717 0.46443 0.0
C1064 C 0.8773 0.81748 0.75824 0.0
C1065 C 0.88528 0.83531 0.76983 0.0
C1066 C 0.88686 0.81097 0.73927 0.0
C1067 C 0.90448 0.8229 0.73129 0.0
C1068 C 0.91248 0.84106 0.74267 0.0
C1069 C 0.90296 0.8469 0.76192 0.0
C1070 C 0.87805 0.79133 0.72774 0.0
C1071 C 0.93103 0.85438 0.73445 0.0
C1072 C 0.94048 0.79625 0.69161 0.0
C1073 C 0.93178 0.80288 0.67197 0.0
C1074 C 0.93178 0.80267 0.71108 0.0
C1075 C 0.91432 0.81646 0.71086 0.0
C1076 C 0.90584 0.82362 0.69108 0.0
C1077 C 0.9145 0.81653 0.67186 0.0
C1078 C 0.94094 0.79432 0.73185 0.0
C1079 C 0.88755 0.83871 0.69021 0.0
H1080 H 0.86339 0.80864 0.76384 0.0
H1081 H 0.90952 0.86048 0.77085 0.0
H1082 H 0.87184 0.7956 0.71161 0.0
H1083 H 0.89098 0.77992 0.72543 0.0
H1084 H 0.86492 0.78325 0.7366 0.0
H1085 H 0.93499 0.86835 0.74491 0.0
H1086 H 0.94542 0.84463 0.73333 0.0
H1087 H 0.9272 0.86009 0.71806 0.0
H1088 H 0.95377 0.7856 0.69176 0.0
H1089 H 0.90786 0.82185 0.6567 0.0
H1090 H 0.92833 0.78519 0.74045 0.0
H1091 H 0.94639 0.8077 0.74244 0.0
H1092 H 0.95463 0.78385 0.72926 0.0
H1093 H 0.87308 0.83108 0.69719 0.0
H1094 H 0.88355 0.84364 0.67358 0.0
H1095 H 0.89165 0.85312 0.69994 0.0
C1096 C 0.0189 0.89379 0.50363 0.0
C1097 C 0.03248 0.88387 0.48927 0.0
C1098 C 0.01005 0.88263 0.5209 0.0
C1099 C 0.01454 0.86093 0.52367 0.0
C1100 C 0.02844 0.85089 0.50946 0.0
C1101 C 0.0374 0.86253 0.49259 0.0
C1102 C 0.9955 0.89393 0.5359 0.0
C1103 C 0.03345 0.82771 0.51175 0.0
C1104 C 0.00394 0.83296 0.57641 0.0
C1105 C 0.98404 0.82277 0.57205 0.0
C1106 C 0.01385 0.84591 0.56101 0.0
C1107 C 0.00379 0.84835 0.54067 0.0
C1108 C 0.98365 0.8382 0.53625 0.0
C1109 C 0.97394 0.82571 0.55205 0.0
C1110 C 0.03515 0.85681 0.56641 0.0
C1111 C 0.97256 0.84013 0.51463 0.0
H1112 H 0.01476 0.91016 0.50112 0.0
H1113 H 0.04824 0.85483 0.48192 0.0
H1114 H 0.979 0.88704 0.53427 0.0
H1115 H 0.00086 0.89168 0.55278 0.0
H1116 H 0.99504 0.91123 0.53263 0.0
H1117 H 0.04492 0.82239 0.49962 0.0
H1118 H 0.04028 0.8247 0.52795 0.0
H1119 H 0.01848 0.81784 0.51 0.0
H1120 H 0.01177 0.83085 0.59188 0.0
H1121 H 0.95862 0.81778 0.5485 0.0
H1122 H 0.03421 0.87415 0.56367 0.0
H1123 H 0.0476 0.85084 0.55573 0.0
H1124 H 0.04031 0.85419 0.58331 0.0
H1125 H 0.97 0.85707 0.51094 0.0
H1126 H 0.95684 0.8314 0.51385 0.0
H1127 H 0.98283 0.83379 0.50195 0.0
C1128 C 0.122 0.74592 0.71809 0.0
C1129 C 0.13989 0.74752 0.70497 0.0
C1130 C 0.1012 0.7475 0.70944 0.0
C1131 C 0.09827 0.75039 0.68709 0.0
C1132 C 0.11629 0.7516 0.67373 0.0
C1133 C 0.13691 0.75034 0.68287 0.0
C1134 C 0.08241 0.74647 0.72424 0.0
C1135 C 0.1138 0.75428 0.64979 0.0
C1136 C 0.04369 0.73621 0.66211 0.0
C1137 C 0.03503 0.7563 0.65929 0.0
C1138 C 0.06428 0.73405 0.67106 0.0
C1139 C 0.07636 0.7524 0.6777 0.0
C1140 C 0.06758 0.77271 0.67516 0.0
C1141 C 0.0471 0.77443 0.6658 0.0
C1142 C 0.07322 0.71216 0.67318 0.0
C1143 C 0.07984 0.79263 0.68236 0.0
H1144 H 0.12432 0.74396 0.73522 0.0
H1145 H 0.15075 0.7514 0.6727 0.0
H1146 H 0.07346 0.76137 0.72309 0.0
H1147 H 0.07118 0.73324 0.71936 0.0
H1148 H 0.08742 0.74414 0.74123 0.0
H1149 H 0.12939 0.75422 0.64157 0.0
H1150 H 0.10328 0.74132 0.64295 0.0
H1151 H 0.106 0.76947 0.64622 0.0
H1152 H 0.0345 0.72214 0.65698 0.0
H1153 H 0.04044 0.78999 0.66378 0.0
H1154 H 0.07722 0.7089 0.69022 0.0
H1155 H 0.08828 0.71129 0.66415 0.0
H1156 H 0.06184 0.69951 0.66711 0.0
H1157 H 0.08424 0.79153 0.69962 0.0
H1158 H 0.07051 0.80715 0.67983 0.0
H1159 H 0.09495 0.79431 0.67344 0.0
C1160 C 0.95219 0.61524 0.58141 0.0
C1161 C 0.96362 0.61112 0.5628 0.0
C1162 C 0.95013 0.63605 0.58902 0.0
C1163 C 0.95959 0.65318 0.57766 0.0
C1164 C 0.97096 0.64918 0.55876 0.0
C1165 C 0.97291 0.6282 0.55161 0.0
C1166 C 0.93793 0.63972 0.60927 0.0
C1167 C 0.98123 0.66705 0.54619 0.0
C1168 C 0.93952 0.70886 0.58569 0.0
C1169 C 0.95557 0.718 0.59919 0.0
C1170 C 0.94048 0.68768 0.57877 0.0
C1171 C 0.95782 0.67532 0.58563 0.0
C1172 C 0.9738 0.68427 0.59962 0.0
C1173 C 0.97253 0.70552 0.60617 0.0
C1174 C 0.92319 0.67868 0.56375 0.0
C1175 C 0.99244 0.67151 0.60743 0.0
H1176 H 0.9447 0.60216 0.58998 0.0
H1177 H 0.98203 0.62514 0.5374 0.0
H1178 H 0.9485 0.64791 0.62142 0.0
H1179 H 0.92436 0.65022 0.60592 0.0
H1180 H 0.93155 0.62467 0.61623 0.0
H1181 H 0.98907 0.66129 0.53154 0.0
H1182 H 0.96902 0.67861 0.5414 0.0
H1183 H 0.99342 0.67571 0.55636 0.0
H1184 H 0.92638 0.71837 0.58018 0.0
H1185 H 0.98498 0.7124 0.61664 0.0
H1186 H 0.91575 0.66411 0.57065 0.0
H1187 H 0.93031 0.67409 0.54832 0.0
H1188 H 0.91045 0.69018 0.56043 0.0
H1189 H 0.98651 0.65679 0.61532 0.0
H1190 H 0.00306 0.68057 0.61894 0.0
H1191 H 0.00207 0.66663 0.59361 0.0
C1192 C 0.77757 0.85396 0.20743 0.0
C1193 C 0.75771 0.85592 0.19686 0.0
C1194 C 0.79003 0.87199 0.21366 0.0
C1195 C 0.78245 0.89249 0.20922 0.0
C1196 C 0.76279 0.89457 0.19788 0.0
C1197 C 0.75066 0.87629 0.19188 0.0
C1198 C 0.81094 0.86911 0.22567 0.0
C1199 C 0.75411 0.91612 0.19289 0.0
C1200 C 0.79957 0.93758 0.24696 0.0
C1201 C 0.81523 0.94858 0.23519 0.0
C1202 C 0.78895 0.91929 0.23871 0.0
C1203 C 0.79404 0.91171 0.21811 0.0
C1204 C 0.80982 0.92267 0.20608 0.0
C1205 C 0.82024 0.94099 0.21476 0.0
C1206 C 0.7722 0.9081 0.25207 0.0
C1207 C 0.81562 0.91506 0.18404 0.0
H1208 H 0.78327 0.83829 0.21106 0.0
H1209 H 0.73521 0.87801 0.18398 0.0
H1210 H 0.824 0.87847 0.21804 0.0
H1211 H 0.80966 0.87515 0.24232 0.0
H1212 H 0.81542 0.85221 0.22632 0.0
H1213 H 0.73958 0.91504 0.18233 0.0
H1214 H 0.74996 0.92421 0.20802 0.0
H1215 H 0.76643 0.92625 0.18501 0.0
H1216 H 0.79555 0.94324 0.26276 0.0
H1217 H 0.83233 0.94934 0.20555 0.0
H1218 H 0.7766 0.8914 0.25482 0.0
H1219 H 0.75653 0.90772 0.24338 0.0
H1220 H 0.77026 0.91594 0.26787 0.0
H1221 H 0.82113 0.89851 0.18488 0.0
H1222 H 0.8284 0.9252 0.17684 0.0
H1223 H 0.80129 0.91493 0.17325 0.0
C1224 C 0.7639 0.14391 0.23667 0.0
C1225 C 0.77414 0.16221 0.24543 0.0
C1226 C 0.77386 0.12424 0.23706 0.0
C1227 C 0.79456 0.12279 0.2465 0.0
C1228 C 0.80519 0.14129 0.25491 0.0
C1229 C 0.79487 0.16077 0.25426 0.0
C1230 C 0.76202 0.10491 0.22783 0.0
C1231 C 0.82719 0.14039 0.26525 0.0
C1232 C 0.80906 0.06954 0.26989 0.0
C1233 C 0.82226 0.06126 0.25415 0.0
C1234 C 0.80012 0.08954 0.2676 0.0
C1235 C 0.80435 0.10167 0.24907 0.0
C1236 C 0.81773 0.09352 0.23313 0.0
C1237 C 0.82657 0.07342 0.23587 0.0
C1238 C 0.78603 0.09766 0.28504 0.0
C1239 C 0.82257 0.10599 0.21313 0.0
H1240 H 0.74802 0.14497 0.22953 0.0
H1241 H 0.80281 0.17478 0.26125 0.0
H1242 H 0.7721 0.09683 0.21606 0.0
H1243 H 0.75856 0.09341 0.2408 0.0
H1244 H 0.74666 0.10894 0.21981 0.0
H1245 H 0.83389 0.15641 0.26967 0.0
H1246 H 0.8264 0.13061 0.27996 0.0
H1247 H 0.83836 0.13269 0.25427 0.0
H1248 H 0.80565 0.06036 0.28412 0.0
H1249 H 0.83672 0.06717 0.22362 0.0
H1250 H 0.76978 0.10049 0.27838 0.0
H1251 H 0.79262 0.11308 0.29135 0.0
H1252 H 0.78454 0.08639 0.29859 0.0
H1253 H 0.80747 0.1091 0.2042 0.0
H1254 H 0.83339 0.09753 0.20234 0.0
H1255 H 0.83012 0.12164 0.2175 0.0
C1256 C 0.37374 0.96907 0.04274 0.0
C1257 C 0.37985 0.98453 0.02781 0.0
C1258 C 0.35604 0.9553 0.03873 0.0
C1259 C 0.34413 0.95707 0.01931 0.0
C1260 C 0.34929 0.9736 0.00486 0.0
C1261 C 0.36715 0.98714 0.00926 0.0
C1262 C 0.35102 0.93794 0.05461 0.0
C1263 C 0.33689 0.9761 0.98407 0.0
C1264 C 0.32218 0.90426 0.99813 0.0
C1265 C 0.30088 0.90422 0.00475 0.0
C1266 C 0.3361 0.92174 0.00203 0.0
C1267 C 0.32857 0.93975 0.01284 0.0
C1268 C 0.30682 0.9403 0.01868 0.0
C1269 C 0.29317 0.92248 0.01454 0.0
C1270 C 0.35914 0.92053 0.99538 0.0
C1271 C 0.29822 0.95931 0.03007 0.0
H1272 H 0.38324 0.96729 0.05732 0.0
H1273 H 0.37182 0.99901 0.99761 0.0
H1274 H 0.33368 0.93728 0.05807 0.0
H1275 H 0.35504 0.92236 0.04765 0.0
H1276 H 0.36018 0.94021 0.06994 0.0
H1277 H 0.34055 0.99164 0.97641 0.0
H1278 H 0.34105 0.96329 0.97277 0.0
H1279 H 0.31942 0.97462 0.98672 0.0
H1280 H 0.32823 0.89033 0.9903 0.0
H1281 H 0.27671 0.92259 0.01966 0.0
H1282 H 0.3698 0.9208 0.00983 0.0
H1283 H 0.3637 0.9345 0.98554 0.0
H1284 H 0.36211 0.90589 0.98602 0.0
H1285 H 0.30518 0.96036 0.04655 0.0
H1286 H 0.2805 0.95837 0.03114 0.0
H1287 H 0.30296 0.97418 0.02172 0.0
C1288 C 0.2482 0.40424 0.34864 0.0
C1289 C 0.26145 0.39686 0.33252 0.0
C1290 C 0.22807 0.4123 0.3436 0.0
C1291 C 0.22097 0.41292 0.32193 0.0
C1292 C 0.23432 0.40566 0.30557 0.0
C1293 C 0.25442 0.39775 0.31106 0.0
C1294 C 0.21427 0.41991 0.3615 0.0
C1295 C 0.22729 0.40612 0.28228 0.0
C1296 C 0.16102 0.41466 0.31141 0.0
C1297 C 0.1583 0.43633 0.30749 0.0
C1298 C 0.18137 0.40679 0.31586 0.0
C1299 C 0.19943 0.42093 0.31647 0.0
C1300 C 0.19686 0.44276 0.3123 0.0
C1301 C 0.17633 0.4502 0.30784 0.0
C1302 C 0.18352 0.38337 0.32013 0.0
C1303 C 0.21575 0.45832 0.31285 0.0
H1304 H 0.25338 0.40331 0.36528 0.0
H1305 H 0.26469 0.39232 0.29851 0.0
H1306 H 0.21 0.43665 0.35875 0.0
H1307 H 0.1991 0.4103 0.36173 0.0
H1308 H 0.22236 0.41883 0.37746 0.0
H1309 H 0.23965 0.40007 0.27148 0.0
H1310 H 0.21237 0.39633 0.27985 0.0
H1311 H 0.22368 0.42259 0.27754 0.0
H1312 H 0.14721 0.4038 0.31112 0.0
H1313 H 0.17442 0.46696 0.30483 0.0
H1314 H 0.19012 0.38105 0.33656 0.0
H1315 H 0.19492 0.3765 0.30881 0.0
H1316 H 0.16797 0.37441 0.31854 0.0
H1317 H 0.22339 0.45858 0.32906 0.0
H1318 H 0.21111 0.4747 0.30875 0.0
H1319 H 0.22798 0.45324 0.30142 0.0
C1320 C 0.13126 0.02277 0.43426 0.0
C1321 C 0.13554 0.00107 0.43557 0.0
C1322 C 0.14759 0.03835 0.43758 0.0
C1323 C 0.16866 0.03207 0.44244 0.0
C1324 C 0.17298 0.01023 0.44434 0.0
C1325 C 0.15641 0.99502 0.44078 0.0
C1326 C 0.1424 0.06149 0.43539 0.0
C1327 C 0.19525 0.00289 0.44956 0.0
C1328 C 0.21687 0.06689 0.42856 0.0
C1329 C 0.22332 0.07513 0.44869 0.0
C1330 C 0.19859 0.05354 0.42619 0.0
C1331 C 0.18654 0.04814 0.44442 0.0
C1332 C 0.19248 0.057 0.46467 0.0
C1333 C 0.21078 0.07047 0.46655 0.0
C1334 C 0.19263 0.04461 0.40428 0.0
C1335 C 0.18006 0.05153 0.48448 0.0
H1336 H 0.11512 0.0276 0.43055 0.0
H1337 H 0.15998 0.97832 0.4415 0.0
H1338 H 0.14763 0.0704 0.45006 0.0
H1339 H 0.15127 0.06853 0.42181 0.0
H1340 H 0.12502 0.06378 0.43258 0.0
H1341 H 0.19567 0.98541 0.45172 0.0
H1342 H 0.20617 0.00744 0.43645 0.0
H1343 H 0.20157 0.01077 0.46443 0.0
H1344 H 0.22635 0.07055 0.41463 0.0
H1345 H 0.21564 0.07677 0.48216 0.0
H1346 H 0.17561 0.04757 0.40033 0.0
H1347 H 0.19449 0.02715 0.40423 0.0
H1348 H 0.20272 0.05159 0.3915 0.0
H1349 H 0.16277 0.05416 0.48169 0.0
H1350 H 0.1857 0.06106 0.49866 0.0
H1351 H 0.18173 0.03446 0.48821 0.0
C1352 C 0.67762 0.13075 0.74489 0.0
C1353 C 0.69849 0.13246 0.75359 0.0
C1354 C 0.66231 0.11662 0.75349 0.0
C1355 C 0.66799 0.10397 0.77126 0.0
C1356 C 0.68859 0.10659 0.78094 0.0
C1357 C 0.70361 0.12077 0.77196 0.0
C1358 C 0.64047 0.11435 0.74278 0.0
C1359 C 0.69526 0.09344 0.79995 0.0
C1360 C 0.62535 0.07204 0.80096 0.0
C1361 C 0.62713 0.05185 0.79166 0.0
C1362 C 0.63836 0.08931 0.79435 0.0
C1363 C 0.65344 0.08626 0.77808 0.0
C1364 C 0.65508 0.06599 0.76847 0.0
C1365 C 0.64193 0.04907 0.77537 0.0
C1366 C 0.6362 0.11071 0.80493 0.0
C1367 C 0.67092 0.06208 0.75103 0.0
H1368 H 0.67345 0.14001 0.73092 0.0
H1369 H 0.71974 0.12182 0.77868 0.0
H1370 H 0.63892 0.09876 0.73443 0.0
H1371 H 0.62773 0.11475 0.75486 0.0
H1372 H 0.63771 0.12705 0.73085 0.0
H1373 H 0.7108 0.09917 0.80716 0.0
H1374 H 0.68291 0.09366 0.81245 0.0
H1375 H 0.69682 0.07668 0.79481 0.0
H1376 H 0.61395 0.07433 0.81354 0.0
H1377 H 0.6434 0.03357 0.76803 0.0
H1378 H 0.63288 0.12291 0.79266 0.0
H1379 H 0.65147 0.11556 0.81319 0.0
H1380 H 0.6232 0.11064 0.8168 0.0
H1381 H 0.66809 0.07295 0.73742 0.0
H1382 H 0.66989 0.04547 0.74492 0.0
H1383 H 0.68745 0.06546 0.75722 0.0
C1384 C 0.40211 0.0084 0.51904 0.0
C1385 C 0.42159 0.01947 0.52328 0.0
C1386 C 0.3836 0.01922 0.51323 0.0
C1387 C 0.38466 0.04161 0.5114 0.0
C1388 C 0.40404 0.05294 0.51646 0.0
C1389 C 0.42223 0.04174 0.52244 0.0
C1390 C 0.36317 0.0066 0.50812 0.0
C1391 C 0.40582 0.07682 0.51464 0.0
C1392 C 0.34683 0.06637 0.4712 0.0
C1393 C 0.33138 0.07492 0.48446 0.0
C1394 C 0.3642 0.05555 0.47982 0.0
C1395 C 0.36614 0.053 0.50228 0.0
C1396 C 0.35057 0.06144 0.51581 0.0
C1397 C 0.3334 0.07241 0.50674 0.0
C1398 C 0.38059 0.04695 0.46486 0.0
C1399 C 0.35203 0.05883 0.53982 0.0
H1400 H 0.40147 0.9912 0.51945 0.0
H1401 H 0.43709 0.05044 0.52614 0.0
H1402 H 0.34957 0.01338 0.5167 0.0
H1403 H 0.35942 0.00753 0.4907 0.0
H1404 H 0.36436 0.98962 0.51253 0.0
H1405 H 0.42154 0.08336 0.52066 0.0
H1406 H 0.40372 0.08144 0.49761 0.0
H1407 H 0.39296 0.08429 0.52374 0.0
H1408 H 0.34548 0.0683 0.45398 0.0
H1409 H 0.3215 0.07891 0.51709 0.0
H1410 H 0.38151 0.02951 0.46676 0.0
H1411 H 0.39666 0.05399 0.46895 0.0
H1412 H 0.37679 0.05039 0.44778 0.0
H1413 H 0.3522 0.04172 0.54388 0.0
H1414 H 0.33848 0.06611 0.54808 0.0
H1415 H 0.36723 0.06624 0.54614 0.0
C1416 C 0.63061 0.47505 0.55046 0.0
C1417 C 0.61277 0.47802 0.53692 0.0
C1418 C 0.64422 0.45805 0.54731 0.0
C1419 C 0.63996 0.44363 0.53014 0.0
C1420 C 0.62182 0.44637 0.51655 0.0
C1421 C 0.60841 0.4635 0.52014 0.0
C1422 C 0.66326 0.45562 0.56228 0.0
C1423 C 0.61679 0.43141 0.49802 0.0
C1424 C 0.68738 0.41301 0.51064 0.0
C1425 C 0.68439 0.39335 0.52082 0.0
C1426 C 0.6728 0.42931 0.51316 0.0
C1427 C 0.65479 0.42597 0.52625 0.0
C1428 C 0.65147 0.40607 0.5363 0.0
C1429 C 0.66627 0.39 0.53343 0.0
C1430 C 0.67689 0.45027 0.50211 0.0
C1431 C 0.6325 0.4019 0.55043 0.0
H1432 H 0.63389 0.48599 0.56367 0.0
H1433 H 0.59475 0.46579 0.50951 0.0
H1434 H 0.66255 0.43973 0.56984 0.0
H1435 H 0.67827 0.45674 0.55312 0.0
H1436 H 0.66408 0.46791 0.57513 0.0
H1437 H 0.6018 0.43539 0.48928 0.0
H1438 H 0.63016 0.43196 0.4866 0.0
H1439 H 0.61519 0.41485 0.50387 0.0
H1440 H 0.70127 0.41576 0.5008 0.0
H1441 H 0.66378 0.37489 0.54136 0.0
H1442 H 0.67947 0.46308 0.51425 0.0
H1443 H 0.66273 0.45438 0.49214 0.0
H1444 H 0.6911 0.45002 0.49172 0.0
H1445 H 0.63339 0.4129 0.56439 0.0
H1446 H 0.63174 0.38533 0.55643 0.0
H1447 H 0.61741 0.40498 0.54148 0.0
C1448 C 0.74417 0.29235 0.34763 0.0
C1449 C 0.7255 0.2829 0.33856 0.0
C1450 C 0.74435 0.30089 0.36844 0.0
C1451 C 0.72548 0.29962 0.38062 0.0
C1452 C 0.70646 0.2904 0.3714 0.0
C1453 C 0.70666 0.28229 0.35038 0.0
C1454 C 0.7649 0.31085 0.37755 0.0
C1455 C 0.68615 0.28845 0.38398 0.0
C1456 C 0.73786 0.29975 0.44021 0.0
C1457 C 0.73493 0.32103 0.44574 0.0
C1458 C 0.73344 0.29226 0.41936 0.0
C1459 C 0.72634 0.30653 0.40349 0.0
C1460 C 0.72223 0.32779 0.40925 0.0
C1461 C 0.72639 0.33477 0.43044 0.0
C1462 C 0.73756 0.26934 0.41404 0.0
C1463 C 0.71485 0.34353 0.39275 0.0
H1464 H 0.75866 0.29311 0.33838 0.0
H1465 H 0.69223 0.2749 0.34338 0.0
H1466 H 0.76201 0.32701 0.3838 0.0
H1467 H 0.77077 0.30126 0.39118 0.0
H1468 H 0.77767 0.31202 0.36546 0.0
H1469 H 0.67236 0.2823 0.37402 0.0
H1470 H 0.68855 0.27752 0.39764 0.0
H1471 H 0.68212 0.30409 0.39079 0.0
H1472 H 0.74429 0.28904 0.45209 0.0
H1473 H 0.72425 0.35127 0.43466 0.0
H1474 H 0.75175 0.26854 0.40371 0.0
H1475 H 0.72375 0.26202 0.40497 0.0
H1476 H 0.74057 0.25978 0.42864 0.0
H1477 H 0.72809 0.34719 0.38165 0.0
H1478 H 0.70991 0.35861 0.40021 0.0
H1479 H 0.70125 0.33671 0.38301 0.0
C1480 C 0.53055 0.01347 0.95017 0.0
C1481 C 0.51064 0.02313 0.94994 0.0
C1482 C 0.54063 0.00838 0.93103 0.0
C1483 C 0.53054 0.01301 0.91116 0.0
C1484 C 0.51078 0.02337 0.91079 0.0
C1485 C 0.50106 0.02831 0.9302 0.0
C1486 C 0.5617 0.99731 0.93209 0.0
C1487 C 0.49959 0.02864 0.88991 0.0
C1488 C 0.56456 0.01078 0.86144 0.0
C1489 C 0.55963 0.99015 0.85381 0.0
C1490 C 0.55491 0.01864 0.87987 0.0
C1491 C 0.53996 0.00559 0.89087 0.0
C1492 C 0.53455 0.98498 0.88295 0.0
C1493 C 0.54445 0.97752 0.86456 0.0
C1494 C 0.56108 0.04071 0.88786 0.0
C1495 C 0.5186 0.97061 0.89417 0.0
H1496 H 0.53793 0.00918 0.96534 0.0
H1497 H 0.48583 0.03606 0.92992 0.0
H1498 H 0.55956 0.98101 0.9254 0.0
H1499 H 0.57372 0.00585 0.92222 0.0
H1500 H 0.56817 0.9962 0.94875 0.0
H1501 H 0.4851 0.03804 0.89237 0.0
H1502 H 0.51063 0.03772 0.87942 0.0
H1503 H 0.49475 0.01375 0.88128 0.0
H1504 H 0.57626 0.02066 0.85325 0.0
H1505 H 0.54044 0.96161 0.85875 0.0
H1506 H 0.56907 0.03975 0.90386 0.0
H1507 H 0.54657 0.05017 0.88981 0.0
H1508 H 0.57206 0.04926 0.87686 0.0
H1509 H 0.52463 0.96711 0.91058 0.0
H1510 H 0.51554 0.95534 0.88549 0.0
H1511 H 0.50319 0.97866 0.89581 0.0
C1512 C 0.33317 0.26427 0.41985 0.0
C1513 C 0.31956 0.27481 0.40557 0.0
C1514 C 0.32767 0.24394 0.42748 0.0
C1515 C 0.30798 0.234 0.42087 0.0
C1516 C 0.29381 0.24486 0.40713 0.0
C1517 C 0.29983 0.26504 0.39953 0.0
C1518 C 0.34324 0.23281 0.44205 0.0
C1519 C 0.2726 0.23485 0.39984 0.0
C1520 C 0.30401 0.17383 0.41942 0.0
C1521 C 0.29315 0.16918 0.43835 0.0
C1522 C 0.30904 0.19484 0.41367 0.0
C1523 C 0.30286 0.21169 0.42706 0.0
C1524 C 0.29174 0.20717 0.44611 0.0
C1525 C 0.28711 0.18595 0.45161 0.0
C1526 C 0.32107 0.19901 0.3933 0.0
C1527 C 0.28468 0.22476 0.46063 0.0
H1528 H 0.34827 0.27182 0.42491 0.0
H1529 H 0.28931 0.27285 0.38827 0.0
H1530 H 0.3352 0.22752 0.45686 0.0
H1531 H 0.34893 0.2184 0.43391 0.0
H1532 H 0.35736 0.24314 0.44661 0.0
H1533 H 0.26261 0.2461 0.39071 0.0
H1534 H 0.27539 0.2209 0.38945 0.0
H1535 H 0.26349 0.22906 0.41383 0.0
H1536 H 0.30884 0.16099 0.40913 0.0
H1537 H 0.27868 0.1825 0.46624 0.0
H1538 H 0.3362 0.20811 0.39701 0.0
H1539 H 0.31141 0.20882 0.38228 0.0
H1540 H 0.32498 0.18412 0.38482 0.0
H1541 H 0.29877 0.23456 0.46626 0.0
H1542 H 0.27611 0.21859 0.47483 0.0
H1543 H 0.27396 0.23539 0.45162 0.0
C1544 C 0.48347 0.45356 0.85026 0.0
C1545 C 0.49815 0.46941 0.85765 0.0
C1546 C 0.46532 0.45865 0.83798 0.0
C1547 C 0.46159 0.48015 0.8331 0.0
C1548 C 0.47638 0.49624 0.84035 0.0
C1549 C 0.49451 0.49067 0.85248 0.0
C1550 C 0.44993 0.44103 0.83052 0.0
C1551 C 0.4729 0.51935 0.83554 0.0
C1552 C 0.42236 0.49097 0.78735 0.0
C1553 C 0.40338 0.49406 0.79841 0.0
C1554 C 0.44154 0.48676 0.79844 0.0
C1555 C 0.44177 0.48579 0.8211 0.0
C1556 C 0.4228 0.48942 0.83236 0.0
C1557 C 0.40385 0.49344 0.82089 0.0
C1558 C 0.46144 0.48285 0.78588 0.0
C1559 C 0.42244 0.4887 0.85654 0.0
H1560 H 0.48593 0.43713 0.85444 0.0
H1561 H 0.50591 0.50299 0.85785 0.0
H1562 H 0.4341 0.44311 0.8378 0.0
H1563 H 0.44754 0.44169 0.81287 0.0
H1564 H 0.45565 0.42506 0.83482 0.0
H1565 H 0.48615 0.52989 0.84193 0.0
H1566 H 0.47141 0.5217 0.81797 0.0
H1567 H 0.4577 0.5243 0.84263 0.0
H1568 H 0.42216 0.49141 0.76999 0.0
H1569 H 0.38931 0.49594 0.8296 0.0
H1570 H 0.46666 0.46641 0.78869 0.0
H1571 H 0.4747 0.49377 0.79144 0.0
H1572 H 0.45882 0.48504 0.76838 0.0
H1573 H 0.4263 0.47255 0.86212 0.0
H1574 H 0.40662 0.49282 0.86291 0.0
H1575 H 0.43481 0.49989 0.86349 0.0
C1576 C 0.71483 0.71221 0.10045 0.0
C1577 C 0.72322 0.71272 0.12148 0.0
C1578 C 0.72166 0.69742 0.0854 0.0
C1579 C 0.73735 0.68277 0.09145 0.0
C1580 C 0.74582 0.68307 0.11268 0.0
C1581 C 0.73868 0.69807 0.12745 0.0
C1582 C 0.7123 0.69771 0.06289 0.0
C1583 C 0.76254 0.66766 0.11972 0.0
C1584 C 0.74106 0.63452 0.05501 0.0
C1585 C 0.7577 0.64091 0.04151 0.0
C1586 C 0.73472 0.64767 0.07184 0.0
C1587 C 0.74529 0.66766 0.07525 0.0
C1588 C 0.76259 0.67385 0.06216 0.0
C1589 C 0.76858 0.66042 0.04547 0.0
C1590 C 0.71622 0.64051 0.08549 0.0
C1591 C 0.7743 0.69502 0.06529 0.0
H1592 H 0.70316 0.7237 0.0956 0.0
H1593 H 0.74507 0.69823 0.14373 0.0
H1594 H 0.72516 0.70125 0.05132 0.0
H1595 H 0.70516 0.68187 0.05861 0.0
H1596 H 0.69979 0.70973 0.06093 0.0
H1597 H 0.76712 0.66961 0.13693 0.0
H1598 H 0.75649 0.6511 0.11694 0.0
H1599 H 0.77709 0.66997 0.11003 0.0
H1600 H 0.7326 0.61946 0.05212 0.0
H1601 H 0.78154 0.66547 0.03522 0.0
H1602 H 0.70255 0.65104 0.08275 0.0
H1603 H 0.7208 0.64173 0.10273 0.0
H1604 H 0.71077 0.62389 0.08187 0.0
H1605 H 0.76322 0.70806 0.06187 0.0
H1606 H 0.78828 0.69687 0.05469 0.0
H1607 H 0.77994 0.69692 0.08218 0.0
C1608 C 0.96507 0.01914 0.10762 0.0
C1609 C 0.98039 0.03548 0.11185 0.0
C1610 C 0.94754 0.01578 0.12109 0.0
C1611 C 0.94524 0.0291 0.13921 0.0
C1612 C 0.96049 0.04578 0.1434 0.0
C1613 C 0.97783 0.04877 0.12968 0.0
C1614 C 0.93164 0.9978 0.11611 0.0
C1615 C 0.9586 0.06039 0.16249 0.0
C1616 C 0.89132 0.03309 0.166 0.0
C1617 C 0.89403 0.02017 0.18404 0.0
C1618 C 0.90767 0.03581 0.15103 0.0
C1619 C 0.92721 0.02536 0.15416 0.0
C1620 C 0.92988 0.01197 0.1721 0.0
C1621 C 0.91329 0.00954 0.1868 0.0
C1622 C 0.90421 0.0502 0.1321 0.0
C1623 C 0.95045 0.00054 0.17602 0.0
H1624 H 0.96702 0.00868 0.09399 0.0
H1625 H 0.98936 0.06168 0.13286 0.0
H1626 H 0.93161 0.98624 0.12945 0.0
H1627 H 0.91525 0.00396 0.11465 0.0
H1628 H 0.93531 0.98931 0.10105 0.0
H1629 H 0.9716 0.07284 0.16329 0.0
H1630 H 0.94298 0.06826 0.16182 0.0
H1631 H 0.95914 0.05106 0.17751 0.0
H1632 H 0.87651 0.04134 0.16369 0.0
H1633 H 0.91556 -0.00052 0.20064 0.0
H1634 H 0.90702 0.04152 0.11695 0.0
H1635 H 0.91588 0.06383 0.13296 0.0
H1636 H 0.88778 0.05643 0.13144 0.0
H1637 H 0.9542 0.9908 0.1618 0.0
H1638 H 0.94967 0.99003 0.19023 0.0
H1639 H 0.96389 0.01228 0.17852 0.0
C1640 C 0.25481 0.76374 0.14861 0.0
C1641 C 0.25531 0.74225 0.14273 0.0
C1642 C 0.25178 0.7795 0.13306 0.0
C1643 C 0.24912 0.77355 0.11121 0.0
C1644 C 0.24802 0.75175 0.10549 0.0
C1645 C 0.2512 0.7364 0.1213 0.0
C1646 C 0.253 0.80255 0.13984 0.0
C1647 C 0.24503 0.74467 0.08243 0.0
C1648 C 0.23492 0.81214 0.06662 0.0
C1649 C 0.25508 0.81613 0.05777 0.0
C1650 C 0.23266 0.79895 0.08466 0.0
C1651 C 0.25101 0.78977 0.09403 0.0
C1652 C 0.27146 0.79468 0.08575 0.0
C1653 C 0.27321 0.80769 0.06775 0.0
C1654 C 0.21061 0.79411 0.09309 0.0
C1655 C 0.29151 0.78545 0.09533 0.0
H1656 H 0.25797 0.76832 0.16518 0.0
H1657 H 0.25115 0.71975 0.11678 0.0
H1658 H 0.26865 0.80972 0.13518 0.0
H1659 H 0.2403 0.81156 0.13161 0.0
H1660 H 0.25143 0.80446 0.15744 0.0
H1661 H 0.2418 0.72727 0.08099 0.0
H1662 H 0.23161 0.75301 0.07465 0.0
H1663 H 0.25973 0.74877 0.07348 0.0
H1664 H 0.22085 0.81866 0.05902 0.0
H1665 H 0.28891 0.81097 0.06124 0.0
H1666 H 0.21058 0.79591 0.11078 0.0
H1667 H 0.20586 0.77737 0.08929 0.0
H1668 H 0.19843 0.80457 0.08595 0.0
H1669 H 0.29252 0.78864 0.11283 0.0
H1670 H 0.30629 0.79203 0.08794 0.0
H1671 H 0.29098 0.76796 0.09304 0.0
C1672 C 0.05689 0.46225 0.13211 0.0
C1673 C 0.03527 0.46516 0.12692 0.0
C1674 C 0.06406 0.46175 0.15354 0.0
C1675 C 0.04928 0.4645 0.17013 0.0
C1676 C 0.02744 0.46761 0.16497 0.0
C1677 C 0.02067 0.46776 0.14339 0.0
C1678 C 0.08742 0.45811 0.15841 0.0
C1679 C 0.01129 0.47088 0.18223 0.0
C1680 C 0.06421 0.44404 0.22536 0.0
C1681 C 0.07244 0.46254 0.23556 0.0
C1682 C 0.05646 0.44448 0.20411 0.0
C1683 C 0.0567 0.46394 0.19289 0.0
C1684 C 0.06457 0.48276 0.20322 0.0
C1685 C 0.07247 0.48181 0.22439 0.0
C1686 C 0.0484 0.42405 0.19353 0.0
C1687 C 0.06484 0.50385 0.19183 0.0
H1688 H 0.06815 0.46002 0.11937 0.0
H1689 H 0.00398 0.47023 0.13936 0.0
H1690 H 0.09453 0.47171 0.16777 0.0
H1691 H 0.08902 0.44371 0.1684 0.0
H1692 H 0.09679 0.45611 0.14365 0.0
H1693 H 0.99498 0.47343 0.17552 0.0
H1694 H 0.01059 0.45687 0.1929 0.0
H1695 H 0.01626 0.48483 0.1923 0.0
H1696 H 0.06419 0.42907 0.23384 0.0
H1697 H 0.07869 0.4962 0.2322 0.0
H1698 H 0.0582 0.42062 0.17937 0.0
H1699 H 0.03166 0.42566 0.18769 0.0
H1700 H 0.049 0.4103 0.20457 0.0
H1701 H 0.07534 0.50319 0.17775 0.0
H1702 H 0.07064 0.51715 0.20242 0.0
H1703 H 0.04852 0.50732 0.18576 0.0
C1704 C 0.3726 0.69316 0.26455 0.0
C1705 C 0.35158 0.69831 0.26943 0.0
C1706 C 0.38998 0.70019 0.2776 0.0
C1707 C 0.38625 0.71255 0.29609 0.0
C1708 C 0.365 0.71713 0.30156 0.0
C1709 C 0.34792 0.71007 0.28807 0.0
C1710 C 0.41239 0.6952 0.27105 0.0
C1711 C 0.36037 0.73006 0.32126 0.0
C1712 C 0.43292 0.72085 0.33589 0.0
C1713 C 0.4412 0.74079 0.32966 0.0
C1714 C 0.41468 0.7116 0.32549 0.0
C1715 C 0.40469 0.72247 0.30836 0.0
C1716 C 0.41283 0.74268 0.30223 0.0
C1717 C 0.43086 0.75161 0.31298 0.0
C1718 C 0.40629 0.69011 0.33259 0.0
C1719 C 0.40279 0.75474 0.28393 0.0
H1720 H 0.37554 0.68426 0.25005 0.0
H1721 H 0.33167 0.71384 0.29204 0.0
H1722 H 0.42114 0.7101 0.26667 0.0
H1723 H 0.42133 0.6881 0.28462 0.0
H1724 H 0.41248 0.6841 0.25716 0.0
H1725 H 0.34296 0.73039 0.32445 0.0
H1726 H 0.36874 0.72356 0.33551 0.0
H1727 H 0.36649 0.74663 0.31918 0.0
H1728 H 0.44074 0.71241 0.34878 0.0
H1729 H 0.43708 0.76701 0.30799 0.0
H1730 H 0.40771 0.67838 0.31941 0.0
H1731 H 0.38905 0.69084 0.33632 0.0
H1732 H 0.41508 0.68429 0.34694 0.0
H1733 H 0.40359 0.74536 0.26888 0.0
H1734 H 0.41084 0.77048 0.28143 0.0
H1735 H 0.38564 0.7572 0.28702 0.0
C1736 C 0.97654 0.36869 0.98531 0.0
C1737 C 0.99609 0.37911 0.9907 0.0
C1738 C 0.97561 0.35153 0.97082 0.0
C1739 C 0.99466 0.34482 0.96135 0.0
C1740 C 0.01457 0.35443 0.96775 0.0
C1741 C 0.01505 0.37143 0.98238 0.0
C1742 C 0.9541 0.34152 0.96463 0.0
C1743 C 0.03524 0.34787 0.95793 0.0
C1744 C 0.9955 0.2948 0.92672 0.0
C1745 C 0.9933 0.30333 0.90609 0.0
C1746 C 0.99554 0.308 0.94501 0.0
C1747 C 0.99352 0.33019 0.94253 0.0
C1748 C 0.99105 0.33879 0.92177 0.0
C1749 C 0.9909 0.32529 0.90388 0.0
C1750 C 0.998 0.29828 0.96693 0.0
C1751 C 0.98896 0.36239 0.91837 0.0
H1752 H 0.96188 0.37438 0.99195 0.0
H1753 H 0.0302 0.37953 0.98631 0.0
H1754 H 0.9495 0.34654 0.9482 0.0
H1755 H 0.95486 0.32395 0.96446 0.0
H1756 H 0.94138 0.34622 0.97571 0.0
H1757 H 0.0495 0.35495 0.96655 0.0
H1758 H 0.03638 0.33034 0.95796 0.0
H1759 H 0.03562 0.3531 0.94099 0.0
H1760 H 0.99729 0.27785 0.92858 0.0
H1761 H 0.98918 0.3321 0.88805 0.0
H1762 H 0.98467 0.30297 0.97723 0.0
H1763 H 0.01309 0.30435 0.97476 0.0
H1764 H 0.99827 0.28066 0.96621 0.0
H1765 H 0.97502 0.36817 0.92715 0.0
H1766 H 0.98691 0.36649 0.90118 0.0
H1767 H 0.00342 0.37106 0.92487 0.0
C1768 C 0.64642 0.76423 0.27936 0.0
C1769 C 0.64428 0.75473 0.25901 0.0
C1770 C 0.63013 0.76197 0.29441 0.0
C1771 C 0.61122 0.75002 0.2889 0.0
C1772 C 0.60982 0.73887 0.26914 0.0
C1773 C 0.62637 0.74137 0.25441 0.0
C1774 C 0.63239 0.77392 0.3154 0.0
C1775 C 0.58999 0.72593 0.26262 0.0
C1776 C 0.56716 0.7412 0.3297 0.0
C1777 C 0.5536 0.75787 0.32464 0.0
C1778 C 0.58616 0.73841 0.31838 0.0
C1779 C 0.59159 0.75259 0.30165 0.0
C1780 C 0.57799 0.76945 0.29662 0.0
C1781 C 0.55927 0.77188 0.30813 0.0
C1782 C 0.60034 0.7203 0.3242 0.0
C1783 C 0.58311 0.78496 0.27889 0.0
H1784 H 0.66042 0.77425 0.28316 0.0
H1785 H 0.62451 0.73404 0.2387 0.0
H1786 H 0.62246 0.7882 0.3147 0.0
H1787 H 0.6266 0.76398 0.32883 0.0
H1788 H 0.64925 0.77917 0.3189 0.0
H1789 H 0.59282 0.71541 0.24869 0.0
H1790 H 0.58427 0.71605 0.27613 0.0
H1791 H 0.57701 0.73679 0.25817 0.0
H1792 H 0.56293 0.73033 0.34243 0.0
H1793 H 0.54899 0.78484 0.30404 0.0
H1794 H 0.61675 0.72647 0.32827 0.0
H1795 H 0.60161 0.70945 0.31026 0.0
H1796 H 0.59419 0.71103 0.33799 0.0
H1797 H 0.59888 0.79304 0.28217 0.0
H1798 H 0.57088 0.79727 0.27708 0.0
H1799 H 0.58418 0.77634 0.26342 0.0
C1800 C 0.01685 0.13061 0.98841 0.0
C1801 C 0.02792 0.11229 0.98325 0.0
C1802 C 0.01102 0.14521 0.97259 0.0
C1803 C 0.01622 0.14138 0.95097 0.0
C1804 C 0.02696 0.1227 0.94553 0.0
C1805 C 0.03271 0.1084 0.96173 0.0
C1806 C 0.99953 0.1649 0.97907 0.0
C1807 C 0.03273 0.11801 0.92266 0.0
C1808 C 0.98536 0.17185 0.90853 0.0
C1809 C -0.00025 0.18875 0.90412 0.0
C1810 C 0.99069 0.15606 0.92337 0.0
C1811 C 0.01083 0.15724 0.93419 0.0
C1812 C 0.02555 0.17408 0.92957 0.0
C1813 C 0.01986 0.18957 0.91456 0.0
C1814 C 0.97461 0.1383 0.92774 0.0
C1815 C 0.04715 0.17598 0.94083 0.0
H1816 H 0.01271 0.13357 0.00492 0.0
H1817 H 0.04144 0.09441 0.9576 0.0
H1818 H 0.00926 0.17927 0.9749 0.0
H1819 H 0.98406 0.1657 0.97013 0.0
H1820 H 0.99636 0.16537 0.99651 0.0
H1821 H 0.04023 0.10236 0.92093 0.0
H1822 H 0.01821 0.1182 0.91213 0.0
H1823 H 0.04402 0.13053 0.91685 0.0
H1824 H 0.96982 0.171 0.90049 0.0
H1825 H 0.0311 0.20255 0.91129 0.0
H1826 H 0.96972 0.13901 0.94471 0.0
H1827 H 0.98195 0.1227 0.92523 0.0
H1828 H 0.96005 0.1391 0.91729 0.0
H1829 H 0.045 0.17802 0.95832 0.0
H1830 H 0.05703 0.18961 0.93494 0.0
H1831 H 0.05604 0.16121 0.93852 0.0
C1832 C 0.40981 0.34698 0.27027 0.0
C1833 C 0.39113 0.33569 0.27618 0.0
C1834 C 0.41957 0.34301 0.25065 0.0
C1835 C 0.41081 0.32695 0.23683 0.0
C1836 C 0.39227 0.31518 0.24284 0.0
C1837 C 0.38248 0.3199 0.26225 0.0
C1838 C 0.43912 0.35616 0.24459 0.0
C1839 C 0.38264 0.29768 0.22869 0.0
C1840 C 0.42159 0.32767 0.17721 0.0
C1841 C 0.43793 0.31306 0.17564 0.0
C1842 C 0.4131 0.33285 0.19713 0.0
C1843 C 0.42073 0.3227 0.21584 0.0
C1844 C 0.43731 0.30799 0.21437 0.0
C1845 C 0.44593 0.30356 0.19429 0.0
C1846 C 0.39583 0.34903 0.19813 0.0
C1847 C 0.44549 0.29646 0.23388 0.0
H1848 H 0.41693 0.35893 0.281 0.0
H1849 H 0.36783 0.31135 0.2663 0.0
H1850 H 0.45285 0.34575 0.24223 0.0
H1851 H 0.43604 0.36431 0.22916 0.0
H1852 H 0.44372 0.36832 0.25695 0.0
H1853 H 0.36897 0.28916 0.23629 0.0
H1854 H 0.37695 0.3044 0.21329 0.0
H1855 H 0.39496 0.28601 0.2249 0.0
H1856 H 0.41551 0.33517 0.16282 0.0
H1857 H 0.45846 0.29213 0.19309 0.0
H1858 H 0.4005 0.36171 0.20989 0.0
H1859 H 0.38074 0.34136 0.20367 0.0
H1860 H 0.39266 0.35647 0.18233 0.0
H1861 H 0.45131 0.30802 0.24631 0.0
H1862 H 0.4587 0.28576 0.23007 0.0
H1863 H 0.43224 0.28685 0.24091 0.0
C1864 C 0.53214 0.37439 0.98863 0.0
C1865 C 0.53765 0.39608 0.99059 0.0
C1866 C 0.52325 0.3631 0.00577 0.0
C1867 C 0.5197 0.37376 0.02534 0.0
C1868 C 0.52539 0.39561 0.02752 0.0
C1869 C 0.53432 0.4065 0.01012 0.0
C1870 C 0.51736 0.33981 0.00281 0.0
C1871 C 0.52185 0.4075 0.04815 0.0
C1872 C 0.47712 0.3486 0.06035 0.0
C1873 C 0.48947 0.33731 0.07517 0.0
C1874 C 0.48679 0.36101 0.04444 0.0
C1875 C 0.50938 0.36212 0.04324 0.0
C1876 C 0.52198 0.35128 0.0585 0.0
C1877 C 0.51187 0.33903 0.07432 0.0
C1878 C 0.47281 0.37245 0.02852 0.0
C1879 C 0.54611 0.35209 0.05771 0.0
H1880 H 0.53438 0.36629 0.97351 0.0
H1881 H 0.53882 0.42319 0.01185 0.0
H1882 H 0.52543 0.33034 0.01535 0.0
H1883 H 0.49986 0.3372 0.00463 0.0
H1884 H 0.52184 0.33371 0.98683 0.0
H1885 H 0.52759 0.42434 0.04741 0.0
H1886 H 0.50455 0.40709 0.05179 0.0
H1887 H 0.53026 0.39969 0.06165 0.0
H1888 H 0.4598 0.34748 0.06092 0.0
H1889 H 0.52156 0.33038 0.0857 0.0
H1890 H 0.47504 0.36593 0.0122 0.0
H1891 H 0.47752 0.38956 0.02814 0.0
H1892 H 0.45556 0.3709 0.03235 0.0
H1893 H 0.55129 0.34453 0.04266 0.0
H1894 H 0.55362 0.34382 0.07149 0.0
H1895 H 0.55222 0.36882 0.05763 0.0
C1896 C 0.62316 0.2546 0.21993 0.0
C1897 C 0.63926 0.24594 0.20757 0.0
C1898 C 0.60264 0.25767 0.2112 0.0
C1899 C 0.59807 0.25189 0.18959 0.0
C1900 C 0.61411 0.24272 0.17716 0.0
C1901 C 0.63453 0.23991 0.18628 0.0
C1902 C 0.586 0.26759 0.22494 0.0
C1903 C 0.60978 0.23619 0.15412 0.0
C1904 C 0.5397 0.24496 0.1719 0.0
C1905 C 0.53605 0.26435 0.16171 0.0
C1906 C 0.55984 0.24062 0.18093 0.0
C1907 C 0.57671 0.25607 0.17983 0.0
C1908 C 0.57313 0.27567 0.16957 0.0
C1909 C 0.55287 0.27955 0.16059 0.0
C1910 C 0.56307 0.2195 0.19166 0.0
C1911 C 0.5907 0.29259 0.16816 0.0
H1912 H 0.6268 0.25956 0.2363 0.0
H1913 H 0.64686 0.23301 0.17674 0.0
H1914 H 0.58129 0.28294 0.21793 0.0
H1915 H 0.57139 0.25716 0.22533 0.0
H1916 H 0.59188 0.27051 0.24166 0.0
H1917 H 0.62371 0.22854 0.1469 0.0
H1918 H 0.59576 0.22496 0.15304 0.0
H1919 H 0.6058 0.25031 0.14446 0.0
H1920 H 0.52682 0.23309 0.17278 0.0
H1921 H 0.5502 0.29458 0.15276 0.0
H1922 H 0.56784 0.22205 0.20872 0.0
H1923 H 0.57625 0.21113 0.18392 0.0
H1924 H 0.54841 0.20907 0.1909 0.0
H1925 H 0.59642 0.29734 0.1845 0.0
H1926 H 0.58534 0.30697 0.15961 0.0
H1927 H 0.60456 0.28623 0.15967 0.0
C1928 C 0.46752 0.14099 0.05099 0.0
C1929 C 0.45709 0.12474 0.06242 0.0
C1930 C 0.46671 0.16225 0.05762 0.0
C1931 C 0.45529 0.16737 0.0762 0.0
C1932 C 0.44446 0.1511 0.08764 0.0
C1933 C 0.44543 0.12999 0.08057 0.0
C1934 C 0.47844 0.17918 0.04499 0.0
C1935 C 0.43212 0.15597 0.10753 0.0
C1936 C 0.47198 0.21849 0.10521 0.0
C1937 C 0.45621 0.23234 0.09815 0.0
C1938 C 0.4717 0.19724 0.0984 0.0
C1939 C 0.45531 0.18967 0.08407 0.0
C1940 C 0.43921 0.20347 0.07703 0.0
C1941 C 0.43981 0.22464 0.08421 0.0
C1942 C 0.48905 0.18295 0.10638 0.0
C1943 C 0.42155 0.19595 0.06167 0.0
H1944 H 0.47678 0.13703 0.03712 0.0
H1945 H 0.43704 0.11755 0.08928 0.0
H1946 H 0.46731 0.19175 0.04016 0.0
H1947 H 0.49128 0.18684 0.05516 0.0
H1948 H 0.48575 0.17269 0.03037 0.0
H1949 H 0.42414 0.14157 0.11428 0.0
H1950 H 0.44311 0.16312 0.11997 0.0
H1951 H 0.41979 0.16776 0.10387 0.0
H1952 H 0.48466 0.22426 0.11606 0.0
H1953 H 0.42758 0.23524 0.07865 0.0
H1954 H 0.49827 0.17711 0.09267 0.0
H1955 H 0.48181 0.16883 0.11434 0.0
H1956 H 0.50034 0.19116 0.1179 0.0
H1957 H 0.42852 0.19063 0.04641 0.0
H1958 H 0.41 0.20855 0.05806 0.0
H1959 H 0.4127 0.18209 0.06845 0.0
C1960 C 0.24517 0.38069 0.69618 0.0
C1961 C 0.25209 0.35988 0.69888 0.0
C1962 C 0.25785 0.39823 0.70327 0.0
C1963 C 0.27794 0.39492 0.71337 0.0
C1964 C 0.28518 0.37399 0.71588 0.0
C1965 C 0.27216 0.35672 0.70862 0.0
C1966 C 0.24951 0.42029 0.70038 0.0
C1967 C 0.30652 0.36983 0.72654 0.0
C1968 C 0.31749 0.44203 0.7181 0.0
C1969 C 0.31417 0.44904 0.73912 0.0
C1970 C 0.30599 0.42429 0.70953 0.0
C1971 C 0.29082 0.41332 0.72229 0.0
C1972 C 0.28755 0.4202 0.74356 0.0
C1973 C 0.29924 0.43793 0.7517 0.0
C1974 C 0.3099 0.4174 0.68678 0.0
C1975 C 0.27153 0.40894 0.75769 0.0
H1976 H 0.22957 0.38326 0.68893 0.0
H1977 H 0.27774 0.34071 0.71049 0.0
H1978 H 0.24721 0.42774 0.71628 0.0
H1979 H 0.26134 0.43042 0.6918 0.0
H1980 H 0.23404 0.42022 0.69128 0.0
H1981 H 0.31022 0.3527 0.72646 0.0
H1982 H 0.31949 0.37878 0.71831 0.0
H1983 H 0.30658 0.37552 0.7434 0.0
H1984 H 0.32899 0.45047 0.70826 0.0
H1985 H 0.29656 0.44314 0.76797 0.0
H1986 H 0.29492 0.41842 0.67704 0.0
H1987 H 0.31461 0.40057 0.68646 0.0
H1988 H 0.32261 0.42728 0.67914 0.0
H1989 H 0.25527 0.40955 0.7503 0.0
H1990 H 0.27117 0.41606 0.774 0.0
H1991 H 0.27542 0.39195 0.75921 0.0
C1992 C 0.29172 0.65993 0.75784 0.0
C1993 C 0.27139 0.66135 0.7481 0.0
C1994 C 0.30224 0.64057 0.75856 0.0
C1995 C 0.29219 0.62215 0.74931 0.0
C1996 C 0.27188 0.62357 0.73903 0.0
C1997 C 0.26172 0.64314 0.73856 0.0
C1998 C 0.3239 0.63973 0.76963 0.0
C1999 C 0.2606 0.60428 0.72905 0.0
C2000 C 0.3256 0.57378 0.73861 0.0
C2001 C 0.32108 0.56116 0.75652 0.0
C2002 C 0.31634 0.5937 0.736 0.0
C2003 C 0.30226 0.60115 0.75167 0.0
C2004 C 0.29772 0.58852 0.76978 0.0
C2005 C 0.30715 0.56874 0.77198 0.0
C2006 C 0.32156 0.60675 0.71648 0.0
C2007 C 0.28283 0.59588 0.78688 0.0
H2008 H 0.29947 0.674 0.76491 0.0
H2009 H 0.24594 0.64406 0.73116 0.0
H2010 H 0.32285 0.62925 0.78382 0.0
H2011 H 0.33566 0.63284 0.75871 0.0
H2012 H 0.33005 0.65567 0.775 0.0
H2013 H 0.24552 0.6083 0.7205 0.0
H2014 H 0.27123 0.59652 0.71757 0.0
H2015 H 0.25676 0.59253 0.74168 0.0
H2016 H 0.33632 0.56809 0.72659 0.0
H2017 H 0.30353 0.55918 0.7859 0.0
H2018 H 0.32871 0.6224 0.72145 0.0
H2019 H 0.30667 0.60983 0.70718 0.0
H2020 H 0.33288 0.59877 0.70583 0.0
H2021 H 0.28898 0.61116 0.7939 0.0
H2022 H 0.28097 0.58416 0.8 0.0
H2023 H 0.2668 0.59873 0.7797 0.0
C2024 C 0.87597 0.47469 0.50383 0.0
C2025 C 0.88848 0.47196 0.52249 0.0
C2026 C 0.85767 0.46172 0.49956 0.0
C2027 C 0.85181 0.44567 0.51429 0.0
C2028 C 0.8638 0.44353 0.53362 0.0
C2029 C 0.88198 0.45671 0.53747 0.0
C2030 C 0.84528 0.4645 0.4788 0.0
C2031 C 0.85801 0.42668 0.54979 0.0
C2032 C 0.79786 0.416 0.51163 0.0
C2033 C 0.80338 0.39677 0.50208 0.0
C2034 C 0.81327 0.4325 0.51502 0.0
C2035 C 0.8346 0.42965 0.50864 0.0
C2036 C 0.83997 0.41067 0.49809 0.0
C2037 C 0.82433 0.39449 0.49497 0.0
C2038 C 0.80695 0.45258 0.52621 0.0
C2039 C 0.86251 0.40706 0.49089 0.0
H2040 H 0.88099 0.48637 0.49212 0.0
H2041 H 0.89139 0.4548 0.55208 0.0
H2042 H 0.84786 0.45076 0.46806 0.0
H2043 H 0.82787 0.4649 0.48178 0.0
H2044 H 0.85028 0.47926 0.47036 0.0
H2045 H 0.86787 0.42826 0.56477 0.0
H2046 H 0.84088 0.4275 0.55391 0.0
H2047 H 0.86039 0.41072 0.54277 0.0
H2048 H 0.7817 0.41791 0.51715 0.0
H2049 H 0.8287 0.37978 0.48737 0.0
H2050 H 0.81249 0.46674 0.51714 0.0
H2051 H 0.8148 0.45354 0.54231 0.0
H2052 H 0.78936 0.45323 0.52817 0.0
H2053 H 0.86819 0.42041 0.48076 0.0
H2054 H 0.86372 0.39202 0.48168 0.0
H2055 H 0.87346 0.40647 0.50508 0.0
C2056 C 0.74943 0.9207 0.84426 0.0
C2057 C 0.7567 0.90352 0.83228 0.0
C2058 C 0.72886 0.92846 0.84077 0.0
C2059 C 0.7154 0.9192 0.82454 0.0
C2060 C 0.72276 0.90223 0.81203 0.0
C2061 C 0.74317 0.89442 0.81624 0.0
C2062 C 0.72144 0.94639 0.85465 0.0
C2063 C 0.70899 0.89218 0.79431 0.0
C2064 C 0.6552 0.9246 0.82744 0.0
C2065 C 0.65177 0.94171 0.81368 0.0
C2066 C 0.67589 0.91731 0.83137 0.0
C2067 C 0.69346 0.92704 0.82084 0.0
C2068 C 0.69004 0.94414 0.80669 0.0
C2069 C 0.66925 0.95145 0.80349 0.0
C2070 C 0.67897 0.89933 0.84692 0.0
C2071 C 0.7083 0.95456 0.79477 0.0
H2072 H 0.75982 0.92815 0.85642 0.0
H2073 H 0.74833 0.88088 0.80714 0.0
H2074 H 0.71743 0.9602 0.84456 0.0
H2075 H 0.70665 0.94133 0.86301 0.0
H2076 H 0.73372 0.95161 0.86685 0.0
H2077 H 0.71755 0.87995 0.78525 0.0
H2078 H 0.6944 0.88463 0.80113 0.0
H2079 H 0.70368 0.90453 0.78294 0.0
H2080 H 0.64174 0.91714 0.83547 0.0
H2081 H 0.66663 0.9646 0.79271 0.0
H2082 H 0.69042 0.90444 0.85991 0.0
H2083 H 0.68594 0.88565 0.83861 0.0
H2084 H 0.66372 0.8939 0.85425 0.0
H2085 H 0.72043 0.96135 0.8063 0.0
H2086 H 0.70288 0.96743 0.78404 0.0
H2087 H 0.71633 0.94253 0.78498 0.0
C2088 C 0.63625 0.53584 0.93539 0.0
C2089 C 0.63807 0.5144 0.94088 0.0
C2090 C 0.6534 0.55048 0.9389 0.0
C2091 C 0.67285 0.54345 0.948 0.0
C2092 C 0.6745 0.522 0.95428 0.0
C2093 C 0.6571 0.50775 0.95064 0.0
C2094 C 0.65099 0.57326 0.93216 0.0
C2095 C 0.69499 0.51385 0.96394 0.0
C2096 C 0.72528 0.57111 0.93369 0.0
C2097 C 0.73062 0.58252 0.95254 0.0
C2098 C 0.70624 0.55883 0.93185 0.0
C2099 C 0.6921 0.55793 0.94925 0.0
C2100 C 0.69701 0.56991 0.96809 0.0
C2101 C 0.71625 0.58206 0.96953 0.0
C2102 C 0.70158 0.5463 0.91147 0.0
C2103 C 0.68224 0.56941 0.98692 0.0
H2104 H 0.62147 0.54112 0.92809 0.0
H2105 H 0.65874 0.49116 0.95467 0.0
H2106 H 0.65602 0.58421 0.94545 0.0
H2107 H 0.66156 0.57681 0.91849 0.0
H2108 H 0.63426 0.57663 0.92723 0.0
H2109 H 0.69314 0.49716 0.96943 0.0
H2110 H 0.70778 0.51467 0.95187 0.0
H2111 H 0.70044 0.52393 0.97775 0.0
H2112 H 0.7362 0.57142 0.92043 0.0
H2113 H 0.72019 0.59086 0.98412 0.0
H2114 H 0.68563 0.55019 0.90475 0.0
H2115 H 0.70117 0.52906 0.91504 0.0
H2116 H 0.71376 0.54947 0.89908 0.0
H2117 H 0.66575 0.57316 0.98162 0.0
H2118 H 0.68756 0.58082 -0.00026 0.0
H2119 H 0.68155 0.55321 0.9938 0.0
C2120 C 0.18466 0.62551 0.23753 0.0
C2121 C 0.20451 0.62949 0.24794 0.0
C2122 C 0.16949 0.61116 0.246 0.0
C2123 C 0.17423 0.60063 0.26541 0.0
C2124 C 0.19364 0.60559 0.2767 0.0
C2125 C 0.20858 0.61991 0.26779 0.0
C2126 C 0.14895 0.60635 0.2335 0.0
C2127 C 0.19924 0.59477 0.29751 0.0
C2128 C 0.13015 0.5687 0.29307 0.0
C2129 C 0.13396 0.54805 0.28587 0.0
C2130 C 0.1431 0.58607 0.28659 0.0
C2131 C 0.16017 0.58265 0.27254 0.0
C2132 C 0.16401 0.56185 0.26518 0.0
C2133 C 0.15091 0.54485 0.27195 0.0
C2134 C 0.13861 0.60803 0.2948 0.0
C2135 C 0.18201 0.55753 0.25012 0.0
H2136 H 0.18124 0.63317 0.22238 0.0
H2137 H 0.22393 0.62272 0.27588 0.0
H2138 H 0.1492 0.58999 0.22684 0.0
H2139 H 0.135 0.60703 0.24415 0.0
H2140 H 0.14661 0.61755 0.22004 0.0
H2141 H 0.21356 0.60232 0.30561 0.0
H2142 H 0.18561 0.59511 0.30859 0.0
H2143 H 0.20255 0.57786 0.2943 0.0
H2144 H 0.1171 0.57132 0.30384 0.0
H2145 H 0.15399 0.52897 0.26624 0.0
H2146 H 0.13542 0.61876 0.28115 0.0
H2147 H 0.15285 0.61471 0.30368 0.0
H2148 H 0.12468 0.60803 0.30557 0.0
H2149 H 0.17998 0.5668 0.2352 0.0
H2150 H 0.18276 0.54045 0.24577 0.0
H2151 H 0.19757 0.5627 0.25764 0.0
C2152 C 0.929 0.54232 0.02311 0.0
C2153 C 0.92728 0.52005 0.02308 0.0
C2154 C 0.91135 0.5546 0.01777 0.0
C2155 C 0.89145 0.54438 0.01245 0.0
C2156 C 0.8893 0.52197 0.0135 0.0
C2157 C 0.90726 0.51007 0.01871 0.0
C2158 C 0.9143 0.57846 0.0168 0.0
C2159 C 0.8683 0.5105 0.00806 0.0
C2160 C 0.84147 0.57725 0.00829 0.0
C2161 C 0.83962 0.58018 0.98606 0.0
C2162 C 0.85824 0.56559 0.0172 0.0
C2163 C 0.87358 0.5569 0.00357 0.0
C2164 C 0.87191 0.56003 0.98118 0.0
C2165 C 0.85493 0.57153 0.97271 0.0
C2166 C 0.85945 0.56239 0.04114 0.0
C2167 C 0.88806 0.55121 0.96609 0.0
H2168 H 0.9443 0.55017 0.0269 0.0
H2169 H 0.90579 0.49288 0.01847 0.0
H2170 H 0.91274 0.58372 -8e-05 0.0
H2171 H 0.90167 0.58625 0.02594 0.0
H2172 H 0.93019 0.58405 0.02327 0.0
H2173 H 0.86862 0.49333 0.01201 0.0
H2174 H 0.85505 0.51772 0.0168 0.0
H2175 H 0.86467 0.51203 0.99067 0.0
H2176 H 0.82966 0.58383 0.0187 0.0
H2177 H 0.85373 0.57381 0.95553 0.0
H2178 H 0.87504 0.56869 0.04767 0.0
H2179 H 0.8585 0.54517 0.04479 0.0
H2180 H 0.84638 0.57033 0.04955 0.0
H2181 H 0.90437 0.55738 0.97058 0.0
H2182 H 0.88465 0.55537 0.94912 0.0
H2183 H 0.88813 0.53365 0.9674 0.0
C2184 C 0.13433 0.98469 0.02719 0.0
C2185 C 0.11326 0.97913 0.03284 0.0
C2186 C 0.14984 0.96922 0.02498 0.0
C2187 C 0.14427 0.9476 0.02866 0.0
C2188 C 0.12298 0.9418 0.034 0.0
C2189 C 0.10774 0.95761 0.03599 0.0
C2190 C 0.17235 0.9761 0.01923 0.0
C2191 C 0.1164 0.91893 0.03804 0.0
C2192 C 0.1818 0.9063 0.00733 0.0
C2193 C 0.19454 0.90217 0.02554 0.0
C2194 C 0.16513 0.92074 0.00818 0.0
C2195 C 0.161 0.93125 0.02772 0.0
C2196 C 0.17347 0.92676 0.04626 0.0
C2197 C 0.19009 0.91235 0.04493 0.0
C2198 C 0.15227 0.92515 0.98804 0.0
C2199 C 0.16952 0.93751 0.06744 0.0
H2200 H 0.13893 0.00126 0.02509 0.0
H2201 H 0.09147 0.9531 0.04009 0.0
H2202 H 0.18357 0.97243 0.03261 0.0
H2203 H 0.17746 0.96717 0.00495 0.0
H2204 H 0.17383 0.99336 0.01582 0.0
H2205 H 0.09905 0.91693 0.0413 0.0
H2206 H 0.12016 0.90895 0.024 0.0
H2207 H 0.12563 0.91287 0.05198 0.0
H2208 H 0.1851 0.89854 0.99227 0.0
H2209 H 0.19976 0.90923 0.05912 0.0
H2210 H 0.1547 0.94204 0.98348 0.0
H2211 H 0.13494 0.92249 0.99091 0.0
H2212 H 0.15683 0.91499 0.97437 0.0
H2213 H 0.17244 0.9549 0.06597 0.0
H2214 H 0.17998 0.9316 0.08057 0.0
H2215 H 0.15258 0.93492 0.07196 0.0
loop_
_geom_bond_atom_site_label_1
_geom_bond_atom_site_label_2
_geom_bond_distance
_geom_bond_site_symmetry_2
_ccdc_geom_bond_type
P0 O11 1.490 . S
P0 C14 1.812 . S
P0 C20 1.803 . S
P0 C26 1.819 . S
H1 C15 0.941 . S
H2 C16 0.939 . S
H3 C18 0.940 1_655 S
H4 C19 0.940 . S
H5 C21 0.939 . S
H6 C22 0.942 . S
H7 C24 0.944 1_565 S
H8 C25 0.939 . S
H9 C27 0.941 . S
H10 C31 0.939 . S
O11 P0 1.490 . S
H12 C28 0.939 . S
H13 C30 0.940 1_556 S
C14 P0 1.812 . S
C14 C15 1.389 . S
C14 C19 1.391 . S
C15 H1 0.941 . S
C15 C14 1.389 . S
C15 C16 1.397 . S
C16 H2 0.939 . S
C16 C15 1.397 . S
C16 C17 1.378 . S
C17 C16 1.378 . S
C17 C18 1.378 . S
C18 H3 0.940 1_455 S
C18 C17 1.378 . S
C18 C19 1.396 . S
C19 H4 0.940 . S
C19 C14 1.391 . S
C19 C18 1.396 . S
C20 P0 1.803 . S
C20 C21 1.378 . S
C20 C25 1.400 . S
C21 H5 0.939 . S
C21 C20 1.378 . S
C21 C22 1.361 . S
C22 H6 0.942 . S
C22 C21 1.361 . S
C22 C23 1.369 . S
C23 C22 1.369 . S
C23 C24 1.403 . S
C24 H7 0.944 1_545 S
C24 C23 1.403 . S
C24 C25 1.385 . S
C25 H8 0.939 . S
C25 C20 1.400 . S
C25 C24 1.385 . S
C26 P0 1.819 . S
C26 C27 1.391 . S
C26 C31 1.391 . S
C27 H9 0.941 . S
C27 C26 1.391 . S
C27 C28 1.396 . S
C28 H12 0.939 . S
C28 C27 1.396 . S
C28 C29 1.397 . S
C29 C28 1.397 . S
C29 C30 1.385 . S
C30 H13 0.940 1_554 S
C30 C29 1.385 . S
C30 C31 1.388 . S
C31 H10 0.939 . S
C31 C26 1.391 . S
C31 C30 1.388 . S
P32 O43 1.490 . S
P32 C46 1.812 . S
P32 C52 1.803 . S
P32 C58 1.819 . S
H33 C47 0.941 . S
H34 C48 0.939 . S
H35 C50 0.940 . S
H36 C51 0.940 . S
H37 C53 0.939 . S
H38 C54 0.942 . S
H39 C56 0.940 . S
H40 C57 0.939 . S
H41 C59 0.941 . S
H42 C63 0.939 . S
O43 P32 1.490 . S
H44 C60 0.939 . S
H45 C62 0.940 . S
C46 P32 1.812 . S
C46 C47 1.389 . S
C46 C51 1.391 . S
C47 H33 0.941 . S
C47 C46 1.389 . S
C47 C48 1.397 . S
C48 H34 0.939 . S
C48 C47 1.397 . S
C48 C49 1.378 . S
C49 C48 1.378 . S
C49 C50 1.378 . S
C50 H35 0.940 . S
C50 C49 1.378 . S
C50 C51 1.396 . S
C51 H36 0.940 . S
C51 C46 1.391 . S
C51 C50 1.396 . S
C52 P32 1.803 . S
C52 C53 1.378 . S
C52 C57 1.400 . S
C53 H37 0.939 . S
C53 C52 1.378 . S
C53 C54 1.361 . S
C54 H38 0.942 . S
C54 C53 1.361 . S
C54 C55 1.369 . S
C55 C54 1.369 . S
C55 C56 1.404 . S
C56 H39 0.940 . S
C56 C55 1.404 . S
C56 C57 1.389 . S
C57 H40 0.939 . S
C57 C52 1.400 . S
C57 C56 1.389 . S
C58 P32 1.819 . S
C58 C59 1.391 . S
C58 C63 1.391 . S
C59 H41 0.941 . S
C59 C58 1.391 . S
C59 C60 1.396 . S
C60 H44 0.939 . S
C60 C59 1.396 . S
C60 C61 1.397 . S
C61 C60 1.397 . S
C61 C62 1.385 . S
C62 H45 0.940 . S
C62 C61 1.385 . S
C62 C63 1.388 . S
C63 H42 0.939 . S
C63 C58 1.391 . S
C63 C62 1.388 . S
P64 O75 1.490 . S
P64 C78 1.812 . S
P64 C84 1.803 . S
P64 C90 1.819 . S
H65 C79 0.941 1_556 S
H66 C80 0.939 . S
H67 C82 0.940 . S
H68 C83 0.940 . S
H69 C85 0.939 . S
H70 C86 0.942 . S
H71 C88 0.940 . S
H72 C89 0.939 . S
H73 C91 0.941 1_455 S
H74 C95 0.939 . S
O75 P64 1.490 . S
H76 C92 0.939 . S
H77 C94 0.940 . S
C78 P64 1.812 . S
C78 C79 1.389 . S
C78 C83 1.391 . S
C79 H65 0.941 1_554 S
C79 C78 1.389 . S
C79 C80 1.397 1_554 S
C80 H66 0.939 . S
C80 C79 1.397 1_556 S
C80 C81 1.378 1_556 S
C81 C80 1.378 1_554 S
C81 C82 1.378 . S
C82 H67 0.940 . S
C82 C81 1.378 . S
C82 C83 1.396 . S
C83 H68 0.940 . S
C83 C78 1.391 . S
C83 C82 1.396 . S
C84 P64 1.803 . S
C84 C85 1.378 . S
C84 C89 1.400 . S
C85 H69 0.939 . S
C85 C84 1.378 . S
C85 C86 1.361 . S
C86 H70 0.942 . S
C86 C85 1.361 . S
C86 C87 1.369 . S
C87 C86 1.369 . S
C87 C88 1.404 . S
C88 H71 0.940 . S
C88 C87 1.404 . S
C88 C89 1.389 . S
C89 H72 0.939 . S
C89 C84 1.400 . S
C89 C88 1.389 . S
C90 P64 1.819 . S
C90 C91 1.391 . S
C90 C95 1.391 . S
C91 H73 0.941 1_655 S
C91 C90 1.391 . S
C91 C92 1.396 1_655 S
C92 H76 0.939 . S
C92 C91 1.396 1_455 S
C92 C93 1.397 1_455 S
C93 C92 1.397 1_655 S
C93 C94 1.385 . S
C94 H77 0.940 . S
C94 C93 1.385 . S
C94 C95 1.388 . S
C95 H74 0.939 . S
C95 C90 1.391 . S
C95 C94 1.388 . S
P96 O107 1.490 . S
P96 C110 1.812 . S
P96 C116 1.803 . S
P96 C122 1.819 . S
H97 C111 0.941 . S
H98 C112 0.939 . S
H99 C114 0.940 . S
H100 C115 0.940 . S
H101 C117 0.939 . S
H102 C118 0.942 . S
H103 C120 0.940 . S
H104 C121 0.939 . S
H105 C123 0.941 . S
H106 C127 0.939 . S
O107 P96 1.490 . S
H108 C124 0.939 . S
H109 C126 0.940 . S
C110 P96 1.812 . S
C110 C111 1.389 . S
C110 C115 1.391 . S
C111 H97 0.941 . S
C111 C110 1.389 . S
C111 C112 1.397 . S
C112 H98 0.939 . S
C112 C111 1.397 . S
C112 C113 1.378 . S
C113 C112 1.378 . S
C113 C114 1.378 . S
C114 H99 0.940 . S
C114 C113 1.378 . S
C114 C115 1.396 . S
C115 H100 0.940 . S
C115 C110 1.391 . S
C115 C114 1.396 . S
C116 P96 1.803 . S
C116 C117 1.378 . S
C116 C121 1.400 . S
C117 H101 0.939 . S
C117 C116 1.378 . S
C117 C118 1.361 . S
C118 H102 0.942 . S
C118 C117 1.361 . S
C118 C119 1.369 . S
C119 C118 1.369 . S
C119 C120 1.404 . S
C120 H103 0.940 . S
C120 C119 1.404 . S
C120 C121 1.389 . S
C121 H104 0.939 . S
C121 C116 1.400 . S
C121 C120 1.389 . S
C122 P96 1.819 . S
C122 C123 1.391 . S
C122 C127 1.391 . S
C123 H105 0.941 . S
C123 C122 1.391 . S
C123 C124 1.396 . S
C124 H108 0.939 . S
C124 C123 1.396 . S
C124 C125 1.397 . S
C125 C124 1.397 . S
C125 C126 1.385 . S
C126 H109 0.940 . S
C126 C125 1.385 . S
C126 C127 1.388 . S
C127 H106 0.939 . S
C127 C122 1.391 . S
C127 C126 1.388 . S
P128 O139 1.490 . S
P128 C142 1.812 . S
P128 C148 1.803 . S
P128 C154 1.819 . S
H129 C143 0.941 . S
H130 C144 0.939 . S
H131 C146 0.940 1_545 S
H132 C147 0.940 . S
H133 C149 0.939 . S
H134 C150 0.942 . S
H135 C152 0.940 . S
H136 C153 0.939 . S
H137 C155 0.941 . S
H138 C159 0.939 . S
O139 P128 1.490 . S
H140 C156 0.939 . S
H141 C158 0.940 1_655 S
C142 P128 1.812 . S
C142 C143 1.389 . S
C142 C147 1.391 . S
C143 H129 0.941 . S
C143 C142 1.389 . S
C143 C144 1.397 . S
C144 H130 0.939 . S
C144 C143 1.397 . S
C144 C145 1.378 . S
C145 C144 1.378 . S
C145 C146 1.378 . S
C146 H131 0.940 1_565 S
C146 C145 1.378 . S
C146 C147 1.396 . S
C147 H132 0.940 . S
C147 C142 1.391 . S
C147 C146 1.396 . S
C148 P128 1.803 . S
C148 C149 1.378 . S
C148 C153 1.400 . S
C149 H133 0.939 . S
C149 C148 1.378 . S
C149 C150 1.361 . S
C150 H134 0.942 . S
C150 C149 1.361 . S
C150 C151 1.369 . S
C151 C150 1.369 . S
C151 C152 1.404 . S
C152 H135 0.940 . S
C152 C151 1.404 . S
C152 C153 1.389 . S
C153 H136 0.939 . S
C153 C148 1.400 . S
C153 C152 1.389 . S
C154 P128 1.819 . S
C154 C155 1.391 . S
C154 C159 1.391 . S
C155 H137 0.941 . S
C155 C154 1.391 . S
C155 C156 1.396 . S
C156 H140 0.939 . S
C156 C155 1.396 . S
C156 C157 1.397 . S
C157 C156 1.397 . S
C157 C158 1.385 . S
C158 H141 0.940 1_455 S
C158 C157 1.385 . S
C158 C159 1.388 . S
C159 H138 0.939 . S
C159 C154 1.391 . S
C159 C158 1.388 . S
P160 O171 1.490 . S
P160 C174 1.812 . S
P160 C180 1.803 . S
P160 C186 1.819 . S
H161 C175 0.941 . S
H162 C176 0.939 . S
H163 C178 0.940 . S
H164 C179 0.940 . S
H165 C181 0.939 . S
H166 C182 0.942 . S
H167 C184 0.940 . S
H168 C185 0.939 . S
H169 C187 0.941 . S
H170 C191 0.939 . S
O171 P160 1.490 . S
H172 C188 0.939 . S
H173 C190 0.940 . S
C174 P160 1.812 . S
C174 C175 1.389 . S
C174 C179 1.391 . S
C175 H161 0.941 . S
C175 C174 1.389 . S
C175 C176 1.397 . S
C176 H162 0.939 . S
C176 C175 1.397 . S
C176 C177 1.378 . S
C177 C176 1.378 . S
C177 C178 1.378 . S
C178 H163 0.940 . S
C178 C177 1.378 . S
C178 C179 1.396 . S
C179 H164 0.940 . S
C179 C174 1.391 . S
C179 C178 1.396 . S
C180 P160 1.803 . S
C180 C181 1.378 . S
C180 C185 1.400 . S
C181 H165 0.939 . S
C181 C180 1.378 . S
C181 C182 1.361 . S
C182 H166 0.942 . S
C182 C181 1.361 . S
C182 C183 1.369 . S
C183 C182 1.369 . S
C183 C184 1.404 . S
C184 H167 0.940 . S
C184 C183 1.404 . S
C184 C185 1.389 . S
C185 H168 0.939 . S
C185 C180 1.400 . S
C185 C184 1.389 . S
C186 P160 1.819 . S
C186 C187 1.391 . S
C186 C191 1.391 . S
C187 H169 0.941 . S
C187 C186 1.391 . S
C187 C188 1.396 . S
C188 H172 0.939 . S
C188 C187 1.396 . S
C188 C189 1.397 . S
C189 C188 1.397 . S
C189 C190 1.385 . S
C190 H173 0.940 . S
C190 C189 1.385 . S
C190 C191 1.388 . S
C191 H170 0.939 . S
C191 C186 1.391 . S
C191 C190 1.388 . S
P192 O203 1.490 . S
P192 C206 1.812 . S
P192 C212 1.803 . S
P192 C218 1.819 . S
H193 C207 0.941 . S
H194 C208 0.939 . S
H195 C210 0.940 . S
H196 C211 0.940 . S
H197 C213 0.939 . S
H198 C214 0.942 . S
H199 C216 0.940 . S
H200 C217 0.939 . S
H201 C219 0.941 . S
H202 C223 0.939 . S
O203 P192 1.490 . S
H204 C220 0.939 . S
H205 C222 0.940 . S
C206 P192 1.812 . S
C206 C207 1.389 1_655 S
C206 C211 1.391 . S
C207 H193 0.941 . S
C207 C206 1.389 1_455 S
C207 C208 1.397 . S
C208 H194 0.939 . S
C208 C207 1.397 . S
C208 C209 1.378 1_455 S
C209 C208 1.378 1_655 S
C209 C210 1.378 . S
C210 H195 0.940 . S
C210 C209 1.378 . S
C210 C211 1.396 . S
C211 H196 0.940 . S
C211 C206 1.391 . S
C211 C210 1.396 . S
C212 P192 1.803 . S
C212 C213 1.378 . S
C212 C217 1.400 . S
C213 H197 0.939 . S
C213 C212 1.378 . S
C213 C214 1.361 . S
C214 H198 0.942 . S
C214 C213 1.361 . S
C214 C215 1.369 . S
C215 C214 1.369 . S
C215 C216 1.404 . S
C216 H199 0.940 . S
C216 C215 1.404 . S
C216 C217 1.389 . S
C217 H200 0.939 . S
C217 C212 1.400 . S
C217 C216 1.389 . S
C218 P192 1.819 . S
C218 C219 1.391 . S
C218 C223 1.391 . S
C219 H201 0.941 . S
C219 C218 1.391 . S
C219 C220 1.396 . S
C220 H204 0.939 . S
C220 C219 1.396 . S
C220 C221 1.397 . S
C221 C220 1.397 . S
C221 C222 1.385 . S
C222 H205 0.940 . S
C222 C221 1.385 . S
C222 C223 1.388 . S
C223 H202 0.939 . S
C223 C218 1.391 . S
C223 C222 1.388 . S
P224 O235 1.490 . S
P224 C238 1.812 . S
P224 C244 1.803 . S
P224 C250 1.819 . S
H225 C239 0.941 . S
H226 C240 0.939 . S
H227 C242 0.940 . S
H228 C243 0.940 . S
H229 C245 0.939 . S
H230 C246 0.942 . S
H231 C248 0.940 . S
H232 C249 0.939 . S
H233 C251 0.941 . S
H234 C255 0.939 . S
O235 P224 1.490 . S
H236 C252 0.939 . S
H237 C254 0.940 . S
C238 P224 1.812 . S
C238 C239 1.389 . S
C238 C243 1.391 . S
C239 H225 0.941 . S
C239 C238 1.389 . S
C239 C240 1.397 . S
C240 H226 0.939 . S
C240 C239 1.397 . S
C240 C241 1.378 . S
C241 C240 1.378 . S
C241 C242 1.378 . S
C242 H227 0.940 . S
C242 C241 1.378 . S
C242 C243 1.396 . S
C243 H228 0.940 . S
C243 C238 1.391 . S
C243 C242 1.396 . S
C244 P224 1.803 . S
C244 C245 1.378 . S
C244 C249 1.400 . S
C245 H229 0.939 . S
C245 C244 1.378 . S
C245 C246 1.361 . S
C246 H230 0.942 . S
C246 C245 1.361 . S
C246 C247 1.369 . S
C247 C246 1.369 . S
C247 C248 1.404 . S
C248 H231 0.940 . S
C248 C247 1.404 . S
C248 C249 1.389 . S
C249 H232 0.939 . S
C249 C244 1.400 . S
C249 C248 1.389 . S
C250 P224 1.819 . S
C250 C251 1.391 . S
C250 C255 1.391 . S
C251 H233 0.941 . S
C251 C250 1.391 . S
C251 C252 1.396 . S
C252 H236 0.939 . S
C252 C251 1.396 . S
C252 C253 1.397 . S
C253 C252 1.397 . S
C253 C254 1.385 . S
C254 H237 0.940 . S
C254 C253 1.385 . S
C254 C255 1.388 . S
C255 H234 0.939 . S
C255 C250 1.391 . S
C255 C254 1.388 . S
P256 O267 1.490 . S
P256 C270 1.812 . S
P256 C276 1.803 . S
P256 C282 1.819 . S
H257 C271 0.941 . S
H258 C272 0.939 . S
H259 C274 0.940 . S
H260 C275 0.940 . S
H261 C277 0.939 . S
H262 C278 0.942 . S
H263 C280 0.940 . S
H264 C281 0.939 . S
H265 C283 0.941 . S
H266 C287 0.939 . S
O267 P256 1.490 . S
H268 C284 0.939 . S
H269 C286 0.940 . S
C270 P256 1.812 . S
C270 C271 1.389 . S
C270 C275 1.391 . S
C271 H257 0.941 . S
C271 C270 1.389 . S
C271 C272 1.397 . S
C272 H258 0.939 . S
C272 C271 1.397 . S
C272 C273 1.378 . S
C273 C272 1.378 . S
C273 C274 1.378 . S
C274 H259 0.940 . S
C274 C273 1.378 . S
C274 C275 1.396 . S
C275 H260 0.940 . S
C275 C270 1.391 . S
C275 C274 1.396 . S
C276 P256 1.803 . S
C276 C277 1.378 . S
C276 C281 1.400 . S
C277 H261 0.939 . S
C277 C276 1.378 . S
C277 C278 1.361 . S
C278 H262 0.942 . S
C278 C277 1.361 . S
C278 C279 1.369 . S
C279 C278 1.369 . S
C279 C280 1.404 . S
C280 H263 0.940 . S
C280 C279 1.404 . S
C280 C281 1.389 . S
C281 H264 0.939 . S
C281 C276 1.400 . S
C281 C280 1.389 . S
C282 P256 1.819 . S
C282 C283 1.391 . S
C282 C287 1.391 . S
C283 H265 0.941 . S
C283 C282 1.391 . S
C283 C284 1.396 . S
C284 H268 0.939 . S
C284 C283 1.396 . S
C284 C285 1.397 . S
C285 C284 1.397 . S
C285 C286 1.385 . S
C286 H269 0.940 . S
C286 C285 1.385 . S
C286 C287 1.388 . S
C287 H266 0.939 . S
C287 C282 1.391 . S
C287 C286 1.388 . S
P288 O299 1.490 . S
P288 C302 1.812 . S
P288 C308 1.803 . S
P288 C314 1.819 . S
H289 C303 0.941 . S
H290 C304 0.939 . S
H291 C306 0.940 . S
H292 C307 0.940 . S
H293 C309 0.939 . S
H294 C310 0.942 . S
H295 C312 0.940 . S
H296 C313 0.939 . S
H297 C315 0.941 . S
H298 C319 0.939 . S
O299 P288 1.490 . S
H300 C316 0.939 . S
H301 C318 0.940 . S
C302 P288 1.812 . S
C302 C303 1.389 . S
C302 C307 1.391 . S
C303 H289 0.941 . S
C303 C302 1.389 . S
C303 C304 1.397 . S
C304 H290 0.939 . S
C304 C303 1.397 . S
C304 C305 1.378 . S
C305 C304 1.378 . S
C305 C306 1.378 . S
C306 H291 0.940 . S
C306 C305 1.378 . S
C306 C307 1.396 . S
C307 H292 0.940 . S
C307 C302 1.391 . S
C307 C306 1.396 . S
C308 P288 1.803 . S
C308 C309 1.378 1_565 S
C308 C313 1.400 . S
C309 H293 0.939 . S
C309 C308 1.378 1_545 S
C309 C310 1.361 . S
C310 H294 0.942 . S
C310 C309 1.361 . S
C310 C311 1.369 . S
C311 C310 1.369 . S
C311 C312 1.404 1_545 S
C312 H295 0.940 . S
C312 C311 1.404 1_565 S
C312 C313 1.389 . S
C313 H296 0.939 . S
C313 C308 1.400 . S
C313 C312 1.389 . S
C314 P288 1.819 . S
C314 C315 1.391 . S
C314 C319 1.391 . S
C315 H297 0.941 . S
C315 C314 1.391 . S
C315 C316 1.396 . S
C316 H300 0.939 . S
C316 C315 1.396 . S
C316 C317 1.397 . S
C317 C316 1.397 . S
C317 C318 1.385 . S
C318 H301 0.940 . S
C318 C317 1.385 . S
C318 C319 1.388 . S
C319 H298 0.939 . S
C319 C314 1.391 . S
C319 C318 1.388 . S
P320 O331 1.490 . S
P320 C334 1.812 . S
P320 C340 1.803 . S
P320 C346 1.819 . S
H321 C335 0.941 . S
H322 C336 0.939 . S
H323 C338 0.940 . S
H324 C339 0.940 . S
H325 C341 0.939 . S
H326 C342 0.942 . S
H327 C344 0.940 . S
H328 C345 0.939 . S
H329 C347 0.941 . S
H330 C351 0.939 . S
O331 P320 1.490 . S
H332 C348 0.939 . S
H333 C350 0.940 . S
C334 P320 1.812 . S
C334 C335 1.389 . S
C334 C339 1.391 . S
C335 H321 0.941 . S
C335 C334 1.389 . S
C335 C336 1.397 . S
C336 H322 0.939 . S
C336 C335 1.397 . S
C336 C337 1.378 . S
C337 C336 1.378 . S
C337 C338 1.378 . S
C338 H323 0.940 . S
C338 C337 1.378 . S
C338 C339 1.396 . S
C339 H324 0.940 . S
C339 C334 1.391 . S
C339 C338 1.396 . S
C340 P320 1.803 . S
C340 C341 1.378 . S
C340 C345 1.400 . S
C341 H325 0.939 . S
C341 C340 1.378 . S
C341 C342 1.361 . S
C342 H326 0.942 . S
C342 C341 1.361 . S
C342 C343 1.369 . S
C343 C342 1.369 . S
C343 C344 1.404 . S
C344 H327 0.940 . S
C344 C343 1.404 . S
C344 C345 1.389 . S
C345 H328 0.939 . S
C345 C340 1.400 . S
C345 C344 1.389 . S
C346 P320 1.819 . S
C346 C347 1.391 . S
C346 C351 1.391 . S
C347 H329 0.941 . S
C347 C346 1.391 . S
C347 C348 1.396 . S
C348 H332 0.939 . S
C348 C347 1.396 . S
C348 C349 1.397 . S
C349 C348 1.397 . S
C349 C350 1.385 . S
C350 H333 0.940 . S
C350 C349 1.385 . S
C350 C351 1.388 . S
C351 H330 0.939 . S
C351 C346 1.391 . S
C351 C350 1.388 . S
P352 O363 1.490 . S
P352 C366 1.812 . S
P352 C372 1.803 . S
P352 C378 1.819 . S
H353 C367 0.941 . S
H354 C368 0.939 . S
H355 C370 0.940 . S
H356 C371 0.940 . S
H357 C373 0.939 . S
H358 C374 0.942 . S
H359 C376 0.940 . S
H360 C377 0.939 . S
H361 C379 0.941 . S
H362 C383 0.939 . S
O363 P352 1.490 . S
H364 C380 0.939 . S
H365 C382 0.940 . S
C366 P352 1.812 . S
C366 C367 1.389 . S
C366 C371 1.391 . S
C367 H353 0.941 . S
C367 C366 1.389 . S
C367 C368 1.397 . S
C368 H354 0.939 . S
C368 C367 1.397 . S
C368 C369 1.378 . S
C369 C368 1.378 . S
C369 C370 1.378 . S
C370 H355 0.940 . S
C370 C369 1.378 . S
C370 C371 1.396 . S
C371 H356 0.940 . S
C371 C366 1.391 . S
C371 C370 1.396 . S
C372 P352 1.803 . S
C372 C373 1.378 . S
C372 C377 1.400 . S
C373 H357 0.939 . S
C373 C372 1.378 . S
C373 C374 1.361 . S
C374 H358 0.942 . S
C374 C373 1.361 . S
C374 C375 1.369 . S
C375 C374 1.369 . S
C375 C376 1.404 . S
C376 H359 0.940 . S
C376 C375 1.404 . S
C376 C377 1.389 . S
C377 H360 0.939 . S
C377 C372 1.400 . S
C377 C376 1.389 . S
C378 P352 1.819 . S
C378 C379 1.391 . S
C378 C383 1.391 . S
C379 H361 0.941 . S
C379 C378 1.391 . S
C379 C380 1.396 . S
C380 H364 0.939 . S
C380 C379 1.396 . S
C380 C381 1.397 . S
C381 C380 1.397 . S
C381 C382 1.385 . S
C382 H365 0.940 . S
C382 C381 1.385 . S
C382 C383 1.388 . S
C383 H362 0.939 . S
C383 C378 1.391 . S
C383 C382 1.388 . S
P384 O395 1.490 . S
P384 C398 1.812 . S
P384 C404 1.803 . S
P384 C410 1.819 . S
H385 C399 0.941 . S
H386 C400 0.939 . S
H387 C402 0.940 . S
H388 C403 0.940 . S
H389 C405 0.939 . S
H390 C406 0.942 . S
H391 C408 0.940 . S
H392 C409 0.939 . S
H393 C411 0.941 . S
H394 C415 0.939 . S
O395 P384 1.490 . S
H396 C412 0.939 . S
H397 C414 0.940 . S
C398 P384 1.812 . S
C398 C399 1.389 . S
C398 C403 1.391 . S
C399 H385 0.941 . S
C399 C398 1.389 . S
C399 C400 1.397 . S
C400 H386 0.939 . S
C400 C399 1.397 . S
C400 C401 1.378 . S
C401 C400 1.378 . S
C401 C402 1.378 . S
C402 H387 0.940 . S
C402 C401 1.378 . S
C402 C403 1.396 . S
C403 H388 0.940 . S
C403 C398 1.391 . S
C403 C402 1.396 . S
C404 P384 1.803 . S
C404 C405 1.378 . S
C404 C409 1.400 . S
C405 H389 0.939 . S
C405 C404 1.378 . S
C405 C406 1.361 . S
C406 H390 0.942 . S
C406 C405 1.361 . S
C406 C407 1.369 . S
C407 C406 1.369 . S
C407 C408 1.404 . S
C408 H391 0.940 . S
C408 C407 1.404 . S
C408 C409 1.389 . S
C409 H392 0.939 . S
C409 C404 1.400 . S
C409 C408 1.389 . S
C410 P384 1.819 . S
C410 C411 1.391 . S
C410 C415 1.391 . S
C411 H393 0.941 . S
C411 C410 1.391 . S
C411 C412 1.396 . S
C412 H396 0.939 . S
C412 C411 1.396 . S
C412 C413 1.397 . S
C413 C412 1.397 . S
C413 C414 1.385 . S
C414 H397 0.940 . S
C414 C413 1.385 . S
C414 C415 1.388 . S
C415 H394 0.939 . S
C415 C410 1.391 . S
C415 C414 1.388 . S
P416 O427 1.490 . S
P416 C430 1.812 . S
P416 C436 1.803 . S
P416 C442 1.819 . S
H417 C431 0.941 . S
H418 C432 0.939 . S
H419 C434 0.940 . S
H420 C435 0.940 . S
H421 C437 0.939 . S
H422 C438 0.942 . S
H423 C440 0.940 . S
H424 C441 0.939 . S
H425 C443 0.941 . S
H426 C447 0.939 . S
O427 P416 1.490 . S
H428 C444 0.939 . S
H429 C446 0.940 . S
C430 P416 1.812 . S
C430 C431 1.389 . S
C430 C435 1.391 . S
C431 H417 0.941 . S
C431 C430 1.389 . S
C431 C432 1.397 . S
C432 H418 0.939 . S
C432 C431 1.397 . S
C432 C433 1.378 . S
C433 C432 1.378 . S
C433 C434 1.378 . S
C434 H419 0.940 . S
C434 C433 1.378 . S
C434 C435 1.396 . S
C435 H420 0.940 . S
C435 C430 1.391 . S
C435 C434 1.396 . S
C436 P416 1.803 . S
C436 C437 1.378 . S
C436 C441 1.400 . S
C437 H421 0.939 . S
C437 C436 1.378 . S
C437 C438 1.361 . S
C438 H422 0.942 . S
C438 C437 1.361 . S
C438 C439 1.369 1_556 S
C439 C438 1.369 1_554 S
C439 C440 1.404 . S
C440 H423 0.940 . S
C440 C439 1.404 . S
C440 C441 1.389 1_554 S
C441 H424 0.939 . S
C441 C436 1.400 . S
C441 C440 1.389 1_556 S
C442 P416 1.819 . S
C442 C443 1.391 . S
C442 C447 1.391 . S
C443 H425 0.941 . S
C443 C442 1.391 . S
C443 C444 1.396 . S
C444 H428 0.939 . S
C444 C443 1.396 . S
C444 C445 1.397 . S
C445 C444 1.397 . S
C445 C446 1.385 . S
C446 H429 0.940 . S
C446 C445 1.385 . S
C446 C447 1.388 . S
C447 H426 0.939 . S
C447 C442 1.391 . S
C447 C446 1.388 . S
P448 O459 1.490 . S
P448 C462 1.812 . S
P448 C468 1.803 . S
P448 C474 1.819 . S
H449 C463 0.941 . S
H450 C464 0.939 . S
H451 C466 0.940 . S
H452 C467 0.940 . S
H453 C469 0.939 . S
H454 C470 0.942 . S
H455 C472 0.940 . S
H456 C473 0.939 . S
H457 C475 0.941 . S
H458 C479 0.939 . S
O459 P448 1.490 . S
H460 C476 0.939 . S
H461 C478 0.940 . S
C462 P448 1.812 . S
C462 C463 1.389 . S
C462 C467 1.391 . S
C463 H449 0.941 . S
C463 C462 1.389 . S
C463 C464 1.397 . S
C464 H450 0.939 . S
C464 C463 1.397 . S
C464 C465 1.378 . S
C465 C464 1.378 . S
C465 C466 1.378 . S
C466 H451 0.940 . S
C466 C465 1.378 . S
C466 C467 1.396 . S
C467 H452 0.940 . S
C467 C462 1.391 . S
C467 C466 1.396 . S
C468 P448 1.803 . S
C468 C469 1.378 . S
C468 C473 1.400 . S
C469 H453 0.939 . S
C469 C468 1.378 . S
C469 C470 1.361 . S
C470 H454 0.942 . S
C470 C469 1.361 . S
C470 C471 1.369 . S
C471 C470 1.369 . S
C471 C472 1.404 . S
C472 H455 0.940 . S
C472 C471 1.404 . S
C472 C473 1.389 . S
C473 H456 0.939 . S
C473 C468 1.400 . S
C473 C472 1.389 . S
C474 P448 1.819 . S
C474 C475 1.391 . S
C474 C479 1.391 . S
C475 H457 0.941 . S
C475 C474 1.391 . S
C475 C476 1.396 . S
C476 H460 0.939 . S
C476 C475 1.396 . S
C476 C477 1.397 . S
C477 C476 1.397 . S
C477 C478 1.385 . S
C478 H461 0.940 . S
C478 C477 1.385 . S
C478 C479 1.388 . S
C479 H458 0.939 . S
C479 C474 1.391 . S
C479 C478 1.388 . S
P480 O491 1.490 . S
P480 C494 1.812 . S
P480 C500 1.803 . S
P480 C506 1.819 . S
H481 C495 0.941 . S
H482 C496 0.939 . S
H483 C498 0.940 . S
H484 C499 0.940 . S
H485 C501 0.939 . S
H486 C502 0.942 . S
H487 C504 0.940 . S
H488 C505 0.939 . S
H489 C507 0.941 1_565 S
H490 C511 0.939 . S
O491 P480 1.490 . S
H492 C508 0.939 . S
H493 C510 0.940 . S
C494 P480 1.812 . S
C494 C495 1.389 . S
C494 C499 1.391 . S
C495 H481 0.941 . S
C495 C494 1.389 . S
C495 C496 1.397 . S
C496 H482 0.939 . S
C496 C495 1.397 . S
C496 C497 1.378 . S
C497 C496 1.378 . S
C497 C498 1.378 . S
C498 H483 0.940 . S
C498 C497 1.378 . S
C498 C499 1.396 . S
C499 H484 0.940 . S
C499 C494 1.391 . S
C499 C498 1.396 . S
C500 P480 1.803 . S
C500 C501 1.378 1_556 S
C500 C505 1.400 . S
C501 H485 0.939 . S
C501 C500 1.378 1_554 S
C501 C502 1.361 . S
C502 H486 0.942 . S
C502 C501 1.361 . S
C502 C503 1.341 1_554 S
C503 C502 1.341 1_556 S
C503 C504 1.453 . S
C504 H487 0.940 . S
C504 C503 1.453 . S
C504 C505 1.389 . S
C505 H488 0.939 . S
C505 C500 1.400 . S
C505 C504 1.389 . S
C506 P480 1.819 . S
C506 C507 1.391 . S
C506 C511 1.391 . S
C507 H489 0.941 1_545 S
C507 C506 1.391 . S
C507 C508 1.396 1_545 S
C508 H492 0.939 . S
C508 C507 1.396 1_565 S
C508 C509 1.397 1_565 S
C509 C508 1.397 1_545 S
C509 C510 1.385 . S
C510 H493 0.940 . S
C510 C509 1.385 . S
C510 C511 1.388 . S
C511 H490 0.939 . S
C511 C506 1.391 . S
C511 C510 1.388 . S
Zn512 O515 2.040 . S
Zn512 O517 2.043 1_554 S
Zn512 O522 2.055 1_554 S
Zn513 O514 1.962 . S
Zn513 O516 1.986 . S
Zn513 O518 1.996 . S
Zn513 O521 1.943 1_554 S
O514 Zn513 1.962 . S
O514 C519 1.254 . S
O515 Zn512 2.040 . S
O515 C519 1.269 . S
O516 Zn513 1.986 . S
O516 C523 1.262 . S
O517 Zn512 2.043 1_556 S
O517 C525 1.260 . S
O518 Zn513 1.996 . S
O518 C525 1.257 1_554 S
C519 O514 1.254 . S
C519 O515 1.269 . S
C520 O521 1.249 . S
C520 O522 1.270 . S
O521 Zn513 1.943 1_556 S
O521 C520 1.249 . S
O522 Zn512 2.055 1_556 S
O522 C520 1.270 . S
C523 O516 1.262 . S
C523 O524 1.232 . S
O524 C523 1.232 . S
C525 O517 1.260 . S
C525 O518 1.257 1_556 S
Zn526 O529 2.031 . S
Zn526 O531 2.049 . S
Zn526 O536 2.067 . S
Zn527 O528 1.962 . S
Zn527 O530 1.986 . S
Zn527 O532 1.996 . S
Zn527 O535 1.943 . S
O528 Zn527 1.962 . S
O528 C533 1.254 . S
O529 Zn526 2.031 . S
O529 C533 1.269 . S
O530 Zn527 1.986 . S
O530 C537 1.262 . S
O531 Zn526 2.049 . S
O531 C539 1.260 . S
O532 Zn527 1.996 . S
O532 C539 1.257 . S
C533 O528 1.254 . S
C533 O529 1.269 . S
C534 O535 1.249 . S
C534 O536 1.270 . S
O535 Zn527 1.943 . S
O535 C534 1.249 . S
O536 Zn526 2.067 . S
O536 C534 1.270 . S
C537 O530 1.262 . S
C537 O538 1.232 . S
O538 C537 1.232 . S
C539 O531 1.260 . S
C539 O532 1.257 . S
Zn540 O543 2.031 . S
Zn540 O545 2.049 . S
Zn540 O550 2.067 . S
Zn541 O542 1.962 . S
Zn541 O544 1.986 . S
Zn541 O546 1.996 1_554 S
Zn541 O549 1.943 . S
O542 Zn541 1.962 . S
O542 C547 1.254 . S
O543 Zn540 2.031 . S
O543 C547 1.269 1_556 S
O544 Zn541 1.986 . S
O544 C551 1.262 . S
O545 Zn540 2.049 . S
O545 C553 1.260 . S
O546 Zn541 1.996 1_556 S
O546 C553 1.257 . S
C547 O542 1.254 . S
C547 O543 1.269 1_554 S
C548 O549 1.249 1_556 S
C548 O550 1.270 . S
O549 Zn541 1.943 . S
O549 C548 1.249 1_554 S
O550 Zn540 2.067 . S
O550 C548 1.270 . S
C551 O544 1.262 . S
C551 O552 1.232 . S
O552 C551 1.232 . S
C553 O545 1.260 . S
C553 O546 1.257 . S
Zn554 O557 2.043 . S
Zn554 O559 2.041 1_545 S
Zn554 O564 2.051 1_545 S
Zn555 O556 1.962 . S
Zn555 O558 1.986 . S
Zn555 O560 1.996 . S
Zn555 O563 1.943 1_545 S
O556 Zn555 1.962 . S
O556 C561 1.254 . S
O557 Zn554 2.043 . S
O557 C561 1.269 . S
O558 Zn555 1.986 . S
O558 C565 1.262 . S
O559 Zn554 2.041 1_565 S
O559 C567 1.260 . S
O560 Zn555 1.996 . S
O560 C567 1.257 1_545 S
C561 O556 1.254 . S
C561 O557 1.269 . S
C562 O563 1.249 . S
C562 O564 1.270 . S
O563 Zn555 1.943 1_565 S
O563 C562 1.249 . S
O564 Zn554 2.051 1_565 S
O564 C562 1.270 . S
C565 O558 1.262 . S
C565 O566 1.232 . S
O566 C565 1.232 . S
C567 O559 1.260 . S
C567 O560 1.257 1_565 S
Zn568 O571 2.031 . S
Zn568 O573 2.049 . S
Zn568 O578 2.067 . S
Zn569 O570 1.962 . S
Zn569 O572 1.986 . S
Zn569 O574 1.996 . S
Zn569 O577 1.943 . S
O570 Zn569 1.962 . S
O570 C575 1.254 . S
O571 Zn568 2.031 . S
O571 C575 1.269 . S
O572 Zn569 1.986 . S
O572 C579 1.262 . S
O573 Zn568 2.049 . S
O573 C581 1.260 . S
O574 Zn569 1.996 . S
O574 C581 1.257 . S
C575 O570 1.254 . S
C575 O571 1.269 . S
C576 O577 1.249 . S
C576 O578 1.270 . S
O577 Zn569 1.943 . S
O577 C576 1.249 . S
O578 Zn568 2.067 . S
O578 C576 1.270 . S
C579 O572 1.262 . S
C579 O580 1.232 . S
O580 C579 1.232 . S
C581 O573 1.260 . S
C581 O574 1.257 . S
Zn582 O585 2.031 . S
Zn582 O587 2.049 . S
Zn582 O592 2.067 . S
Zn583 O584 1.962 . S
Zn583 O586 1.986 . S
Zn583 O588 1.996 . S
Zn583 O591 1.943 . S
O584 Zn583 1.962 . S
O584 C589 1.254 . S
O585 Zn582 2.031 . S
O585 C589 1.269 . S
O586 Zn583 1.986 . S
O586 C593 1.262 . S
O587 Zn582 2.049 . S
O587 C595 1.260 . S
O588 Zn583 1.996 . S
O588 C595 1.257 . S
C589 O584 1.254 . S
C589 O585 1.269 . S
C590 O591 1.249 . S
C590 O592 1.270 . S
O591 Zn583 1.943 . S
O591 C590 1.249 . S
O592 Zn582 2.067 . S
O592 C590 1.270 . S
C593 O586 1.262 . S
C593 O594 1.232 . S
O594 C593 1.232 . S
C595 O587 1.260 . S
C595 O588 1.257 . S
Zn596 O599 2.031 . S
Zn596 O601 2.049 . S
Zn596 O606 2.067 . S
Zn597 O598 1.962 . S
Zn597 O600 1.986 . S
Zn597 O602 1.996 . S
Zn597 O605 1.943 . S
O598 Zn597 1.962 . S
O598 C603 1.254 . S
O599 Zn596 2.031 . S
O599 C603 1.269 . S
O600 Zn597 1.986 . S
O600 C607 1.262 . S
O601 Zn596 2.049 . S
O601 C609 1.260 . S
O602 Zn597 1.996 . S
O602 C609 1.257 . S
C603 O598 1.254 . S
C603 O599 1.269 . S
C604 O605 1.249 . S
C604 O606 1.270 . S
O605 Zn597 1.943 . S
O605 C604 1.249 . S
O606 Zn596 2.067 . S
O606 C604 1.270 . S
C607 O600 1.262 . S
C607 O608 1.232 . S
O608 C607 1.232 . S
C609 O601 1.260 . S
C609 O602 1.257 . S
Zn610 O613 2.031 . S
Zn610 O615 2.049 . S
Zn610 O620 2.067 . S
Zn611 O612 1.962 . S
Zn611 O614 1.986 . S
Zn611 O616 1.996 1_545 S
Zn611 O619 1.943 . S
O612 Zn611 1.962 . S
O612 C617 1.254 . S
O613 Zn610 2.031 . S
O613 C617 1.269 1_565 S
O614 Zn611 1.986 . S
O614 C621 1.262 . S
O615 Zn610 2.049 . S
O615 C623 1.260 . S
O616 Zn611 1.996 1_565 S
O616 C623 1.257 . S
C617 O612 1.254 . S
C617 O613 1.269 1_545 S
C618 O619 1.249 1_565 S
C618 O620 1.270 . S
O619 Zn611 1.943 . S
O619 C618 1.249 1_545 S
O620 Zn610 2.067 . S
O620 C618 1.270 . S
C621 O614 1.262 . S
C621 O622 1.232 . S
O622 C621 1.232 . S
C623 O615 1.260 . S
C623 O616 1.257 . S
Zn624 O627 2.031 . S
Zn624 O629 2.049 1_455 S
Zn624 O634 2.067 1_455 S
Zn625 O626 1.962 . S
Zn625 O628 1.986 . S
Zn625 O630 1.996 . S
Zn625 O633 1.943 1_455 S
O626 Zn625 1.962 . S
O626 C631 1.254 . S
O627 Zn624 2.031 . S
O627 C631 1.269 . S
O628 Zn625 1.986 . S
O628 C635 1.262 . S
O629 Zn624 2.049 1_655 S
O629 C637 1.260 . S
O630 Zn625 1.996 . S
O630 C637 1.257 1_455 S
C631 O626 1.254 . S
C631 O627 1.269 . S
C632 O633 1.249 . S
C632 O634 1.270 . S
O633 Zn625 1.943 1_655 S
O633 C632 1.249 . S
O634 Zn624 2.067 1_655 S
O634 C632 1.270 . S
C635 O628 1.262 . S
C635 O636 1.232 . S
O636 C635 1.232 . S
C637 O629 1.260 . S
C637 O630 1.257 1_655 S
Zn638 O641 2.031 . S
Zn638 O643 2.049 . S
Zn638 O648 2.067 . S
Zn639 O640 1.962 . S
Zn639 O642 1.986 . S
Zn639 O644 1.996 . S
Zn639 O647 1.943 . S
O640 Zn639 1.962 . S
O640 C645 1.254 . S
O641 Zn638 2.031 . S
O641 C645 1.269 . S
O642 Zn639 1.986 . S
O642 C649 1.262 . S
O643 Zn638 2.049 . S
O643 C651 1.260 . S
O644 Zn639 1.996 . S
O644 C651 1.257 . S
C645 O640 1.254 . S
C645 O641 1.269 . S
C646 O647 1.249 . S
C646 O648 1.270 . S
O647 Zn639 1.943 . S
O647 C646 1.249 . S
O648 Zn638 2.067 . S
O648 C646 1.270 . S
C649 O642 1.262 . S
C649 O650 1.232 . S
O650 C649 1.232 . S
C651 O643 1.260 . S
C651 O644 1.257 . S
Zn652 O655 2.031 . S
Zn652 O657 2.049 . S
Zn652 O662 2.067 . S
Zn653 O654 1.962 . S
Zn653 O656 1.986 . S
Zn653 O658 1.996 1_455 S
Zn653 O661 1.943 . S
O654 Zn653 1.962 . S
O654 C659 1.254 . S
O655 Zn652 2.031 . S
O655 C659 1.269 1_655 S
O656 Zn653 1.986 . S
O656 C663 1.262 . S
O657 Zn652 2.049 . S
O657 C665 1.260 . S
O658 Zn653 1.996 1_655 S
O658 C665 1.257 . S
C659 O654 1.254 . S
C659 O655 1.269 1_455 S
C660 O661 1.249 1_655 S
C660 O662 1.270 . S
O661 Zn653 1.943 . S
O661 C660 1.249 1_455 S
O662 Zn652 2.067 . S
O662 C660 1.270 . S
C663 O656 1.262 . S
C663 O664 1.232 . S
O664 C663 1.232 . S
C665 O657 1.260 . S
C665 O658 1.257 . S
Zn666 O669 2.031 . S
Zn666 O671 2.049 . S
Zn666 O676 2.067 . S
Zn667 O668 1.962 . S
Zn667 O670 1.986 . S
Zn667 O672 1.996 . S
Zn667 O675 1.943 . S
O668 Zn667 1.962 . S
O668 C673 1.254 . S
O669 Zn666 2.031 . S
O669 C673 1.269 . S
O670 Zn667 1.986 . S
O670 C677 1.262 . S
O671 Zn666 2.049 . S
O671 C679 1.260 . S
O672 Zn667 1.996 . S
O672 C679 1.257 . S
C673 O668 1.254 . S
C673 O669 1.269 . S
C674 O675 1.249 . S
C674 O676 1.270 . S
O675 Zn667 1.943 . S
O675 C674 1.249 . S
O676 Zn666 2.067 . S
O676 C674 1.270 . S
C677 O670 1.262 . S
C677 O678 1.232 . S
O678 C677 1.232 . S
C679 O671 1.260 . S
C679 O672 1.257 . S
C680 C681 1.391 . S
C680 C682 1.394 . S
C680 H696 0.931 . S
C681 C680 1.391 . S
C681 C685 1.376 . S
C682 C680 1.394 . S
C682 C683 1.369 . S
C682 C686 1.531 . S
C683 C682 1.369 . S
C683 C684 1.410 . S
C683 C691 1.503 . S
C684 C683 1.410 . S
C684 C685 1.392 . S
C684 C687 1.511 . S
C685 C681 1.376 . S
C685 C684 1.392 . S
C685 H697 0.929 . S
C686 C682 1.531 . S
C686 H698 0.960 . S
C686 H699 0.962 . S
C686 H700 0.960 . S
C687 C684 1.511 . S
C687 H701 0.961 . S
C687 H702 0.961 . S
C687 H703 0.961 . S
C688 C689 1.370 . S
C688 C690 1.363 . S
C688 H704 0.931 . S
C689 C688 1.370 . S
C689 C693 1.408 . S
C690 C688 1.363 . S
C690 C691 1.370 . S
C690 C694 1.524 . S
C691 C683 1.503 . S
C691 C690 1.370 . S
C691 C692 1.403 . S
C692 C691 1.403 . S
C692 C693 1.404 . S
C692 C695 1.539 . S
C693 C689 1.408 . S
C693 C692 1.404 . S
C693 H705 0.930 . S
C694 C690 1.524 . S
C694 H706 0.956 . S
C694 H707 0.961 . S
C694 H708 0.961 . S
C695 C692 1.539 . S
C695 H709 0.958 . S
C695 H710 0.961 . S
C695 H711 0.960 . S
H696 C680 0.931 . S
H697 C685 0.929 . S
H698 C686 0.960 . S
H699 C686 0.962 . S
H700 C686 0.960 . S
H701 C687 0.961 . S
H702 C687 0.961 . S
H703 C687 0.961 . S
H704 C688 0.931 . S
H705 C693 0.930 . S
H706 C694 0.956 . S
H707 C694 0.961 . S
H708 C694 0.961 . S
H709 C695 0.958 . S
H710 C695 0.961 . S
H711 C695 0.960 . S
C712 C713 1.391 . S
C712 C714 1.394 . S
C712 H728 0.931 1_455 S
C713 C712 1.391 . S
C713 C717 1.376 . S
C714 C712 1.394 . S
C714 C715 1.369 . S
C714 C718 1.531 . S
C715 C714 1.369 . S
C715 C716 1.410 . S
C715 C723 1.503 . S
C716 C715 1.410 . S
C716 C717 1.392 . S
C716 C719 1.511 . S
C717 C713 1.376 . S
C717 C716 1.392 . S
C717 H729 0.929 . S
C718 C714 1.531 . S
C718 H730 0.960 . S
C718 H731 0.962 . S
C718 H732 0.960 . S
C719 C716 1.511 . S
C719 H733 0.961 . S
C719 H734 0.961 . S
C719 H735 0.961 . S
C720 C721 1.370 . S
C720 C722 1.363 . S
C720 H736 0.931 . S
C721 C720 1.370 . S
C721 C725 1.408 . S
C722 C720 1.363 . S
C722 C723 1.370 . S
C722 C726 1.524 . S
C723 C715 1.503 . S
C723 C722 1.370 . S
C723 C724 1.403 . S
C724 C723 1.403 . S
C724 C725 1.404 . S
C724 C727 1.539 . S
C725 C721 1.408 . S
C725 C724 1.404 . S
C725 H737 0.930 . S
C726 C722 1.524 . S
C726 H738 0.956 . S
C726 H739 0.961 . S
C726 H740 0.961 . S
C727 C724 1.539 . S
C727 H741 0.958 . S
C727 H742 0.961 . S
C727 H743 0.960 . S
H728 C712 0.931 1_655 S
H729 C717 0.929 . S
H730 C718 0.960 . S
H731 C718 0.962 . S
H732 C718 0.960 . S
H733 C719 0.961 . S
H734 C719 0.961 . S
H735 C719 0.961 . S
H736 C720 0.931 . S
H737 C725 0.930 . S
H738 C726 0.956 . S
H739 C726 0.961 . S
H740 C726 0.961 . S
H741 C727 0.958 . S
H742 C727 0.961 . S
H743 C727 0.960 . S
C744 C745 1.391 . S
C744 C746 1.394 . S
C744 H760 0.931 . S
C745 C744 1.391 . S
C745 C749 1.376 . S
C746 C744 1.394 . S
C746 C747 1.369 . S
C746 C750 1.531 . S
C747 C746 1.369 . S
C747 C748 1.410 . S
C747 C755 1.503 . S
C748 C747 1.410 . S
C748 C749 1.392 . S
C748 C751 1.511 . S
C749 C745 1.376 . S
C749 C748 1.392 . S
C749 H761 0.929 . S
C750 C746 1.531 . S
C750 H762 0.960 . S
C750 H763 0.962 . S
C750 H764 0.960 . S
C751 C748 1.511 . S
C751 H765 0.961 . S
C751 H766 0.961 . S
C751 H767 0.961 . S
C752 C753 1.370 . S
C752 C754 1.363 . S
C752 H768 0.931 . S
C753 C752 1.370 . S
C753 C757 1.408 . S
C754 C752 1.363 . S
C754 C755 1.370 . S
C754 C758 1.524 . S
C755 C747 1.503 . S
C755 C754 1.370 . S
C755 C756 1.403 . S
C756 C755 1.403 . S
C756 C757 1.404 . S
C756 C759 1.539 . S
C757 C753 1.408 . S
C757 C756 1.404 . S
C757 H769 0.930 . S
C758 C754 1.524 . S
C758 H770 0.956 . S
C758 H771 0.961 . S
C758 H772 0.961 . S
C759 C756 1.539 . S
C759 H773 0.958 . S
C759 H774 0.961 . S
C759 H775 0.960 . S
H760 C744 0.931 . S
H761 C749 0.929 . S
H762 C750 0.960 . S
H763 C750 0.962 . S
H764 C750 0.960 . S
H765 C751 0.961 . S
H766 C751 0.961 . S
H767 C751 0.961 . S
H768 C752 0.931 . S
H769 C757 0.930 . S
H770 C758 0.956 . S
H771 C758 0.961 . S
H772 C758 0.961 . S
H773 C759 0.958 . S
H774 C759 0.961 . S
H775 C759 0.960 . S
C776 C777 1.391 . S
C776 C778 1.394 . S
C776 H792 0.931 1_655 S
C777 C776 1.391 . S
C777 C781 1.376 . S
C778 C776 1.394 . S
C778 C779 1.369 . S
C778 C782 1.531 . S
C779 C778 1.369 . S
C779 C780 1.410 . S
C779 C787 1.503 . S
C780 C779 1.410 . S
C780 C781 1.392 . S
C780 C783 1.511 . S
C781 C777 1.376 . S
C781 C780 1.392 . S
C781 H793 0.929 . S
C782 C778 1.531 . S
C782 H794 0.960 . S
C782 H795 0.962 . S
C782 H796 0.960 . S
C783 C780 1.511 . S
C783 H797 0.961 . S
C783 H798 0.961 . S
C783 H799 0.961 . S
C784 C785 1.346 1_545 S
C784 C786 1.351 1_545 S
C784 H800 0.970 . S
C785 C784 1.346 1_565 S
C785 C789 1.408 . S
C786 C784 1.351 1_565 S
C786 C787 1.370 . S
C786 C790 1.524 1_565 S
C787 C779 1.503 . S
C787 C786 1.370 . S
C787 C788 1.403 . S
C788 C787 1.403 . S
C788 C789 1.404 . S
C788 C791 1.539 . S
C789 C785 1.408 . S
C789 C788 1.404 . S
C789 H801 0.930 . S
C790 C786 1.524 1_545 S
C790 H802 0.956 . S
C790 H803 0.961 . S
C790 H804 0.961 . S
C791 C788 1.539 . S
C791 H805 0.958 . S
C791 H806 0.961 . S
C791 H807 0.960 . S
H792 C776 0.931 1_455 S
H793 C781 0.929 . S
H794 C782 0.960 . S
H795 C782 0.962 . S
H796 C782 0.960 . S
H797 C783 0.961 . S
H798 C783 0.961 . S
H799 C783 0.961 . S
H800 C784 0.970 . S
H801 C789 0.930 . S
H802 C790 0.956 . S
H803 C790 0.961 . S
H804 C790 0.961 . S
H805 C791 0.958 . S
H806 C791 0.961 . S
H807 C791 0.960 . S
C808 C809 1.391 . S
C808 C810 1.394 . S
C808 H824 0.931 . S
C809 C808 1.391 . S
C809 C813 1.376 . S
C810 C808 1.394 . S
C810 C811 1.369 . S
C810 C814 1.531 . S
C811 C810 1.369 . S
C811 C812 1.410 . S
C811 C819 1.503 . S
C812 C811 1.410 . S
C812 C813 1.392 . S
C812 C815 1.511 . S
C813 C809 1.376 . S
C813 C812 1.392 . S
C813 H825 0.929 . S
C814 C810 1.531 . S
C814 H826 0.960 . S
C814 H827 0.962 . S
C814 H828 0.960 . S
C815 C812 1.511 . S
C815 H829 0.961 . S
C815 H830 0.961 . S
C815 H831 0.961 . S
C816 C817 1.370 . S
C816 C818 1.363 . S
C816 H832 0.931 . S
C817 C816 1.370 . S
C817 C821 1.408 . S
C818 C816 1.363 . S
C818 C819 1.370 . S
C818 C822 1.524 . S
C819 C811 1.503 . S
C819 C818 1.370 . S
C819 C820 1.403 . S
C820 C819 1.403 . S
C820 C821 1.404 . S
C820 C823 1.539 . S
C821 C817 1.408 . S
C821 C820 1.404 . S
C821 H833 0.930 . S
C822 C818 1.524 . S
C822 H834 0.956 . S
C822 H835 0.961 . S
C822 H836 0.961 . S
C823 C820 1.539 . S
C823 H837 0.958 . S
C823 H838 0.961 . S
C823 H839 0.960 . S
H824 C808 0.931 . S
H825 C813 0.929 . S
H826 C814 0.960 . S
H827 C814 0.962 . S
H828 C814 0.960 . S
H829 C815 0.961 . S
H830 C815 0.961 . S
H831 C815 0.961 . S
H832 C816 0.931 . S
H833 C821 0.930 . S
H834 C822 0.956 . S
H835 C822 0.961 . S
H836 C822 0.961 . S
H837 C823 0.958 . S
H838 C823 0.961 . S
H839 C823 0.960 . S
C840 C841 1.391 . S
C840 C842 1.394 . S
C840 H856 0.931 . S
C841 C840 1.391 . S
C841 C845 1.376 . S
C842 C840 1.394 . S
C842 C843 1.369 . S
C842 C846 1.531 . S
C843 C842 1.369 . S
C843 C844 1.410 . S
C843 C851 1.503 . S
C844 C843 1.410 . S
C844 C845 1.392 . S
C844 C847 1.511 . S
C845 C841 1.376 . S
C845 C844 1.392 . S
C845 H857 0.929 . S
C846 C842 1.531 . S
C846 H858 0.960 . S
C846 H859 0.962 . S
C846 H860 0.960 . S
C847 C844 1.511 . S
C847 H861 0.961 . S
C847 H862 0.961 . S
C847 H863 0.961 . S
C848 C849 1.370 . S
C848 C850 1.363 . S
C848 H864 0.931 . S
C849 C848 1.370 . S
C849 C853 1.408 . S
C850 C848 1.363 . S
C850 C851 1.370 . S
C850 C854 1.524 . S
C851 C843 1.503 . S
C851 C850 1.370 . S
C851 C852 1.403 . S
C852 C851 1.403 . S
C852 C853 1.404 . S
C852 C855 1.539 . S
C853 C849 1.408 . S
C853 C852 1.404 . S
C853 H865 0.930 . S
C854 C850 1.524 . S
C854 H866 0.956 . S
C854 H867 0.961 . S
C854 H868 0.961 . S
C855 C852 1.539 . S
C855 H869 0.958 . S
C855 H870 0.961 . S
C855 H871 0.960 . S
H856 C840 0.931 . S
H857 C845 0.929 . S
H858 C846 0.960 . S
H859 C846 0.962 . S
H860 C846 0.960 . S
H861 C847 0.961 . S
H862 C847 0.961 . S
H863 C847 0.961 . S
H864 C848 0.931 . S
H865 C853 0.930 . S
H866 C854 0.956 . S
H867 C854 0.961 . S
H868 C854 0.961 . S
H869 C855 0.958 . S
H870 C855 0.961 . S
H871 C855 0.960 . S
C872 C873 1.391 . S
C872 C874 1.394 . S
C872 H888 0.931 . S
C873 C872 1.391 . S
C873 C877 1.376 . S
C874 C872 1.394 . S
C874 C875 1.369 . S
C874 C878 1.531 . S
C875 C874 1.369 . S
C875 C876 1.410 . S
C875 C883 1.503 . S
C876 C875 1.410 . S
C876 C877 1.392 . S
C876 C879 1.511 . S
C877 C873 1.376 . S
C877 C876 1.392 . S
C877 H889 0.929 . S
C878 C874 1.531 . S
C878 H890 0.960 . S
C878 H891 0.962 . S
C878 H892 0.960 . S
C879 C876 1.511 . S
C879 H893 0.961 . S
C879 H894 0.961 . S
C879 H895 0.961 . S
C880 C881 1.370 . S
C880 C882 1.363 . S
C880 H896 0.931 . S
C881 C880 1.370 . S
C881 C885 1.408 . S
C882 C880 1.363 . S
C882 C883 1.370 . S
C882 C886 1.524 . S
C883 C875 1.503 . S
C883 C882 1.370 . S
C883 C884 1.403 . S
C884 C883 1.403 . S
C884 C885 1.404 . S
C884 C887 1.539 . S
C885 C881 1.408 . S
C885 C884 1.404 . S
C885 H897 0.930 . S
C886 C882 1.524 . S
C886 H898 0.956 . S
C886 H899 0.961 . S
C886 H900 0.961 . S
C887 C884 1.539 . S
C887 H901 0.958 . S
C887 H902 0.961 . S
C887 H903 0.960 . S
H888 C872 0.931 . S
H889 C877 0.929 . S
H890 C878 0.960 . S
H891 C878 0.962 . S
H892 C878 0.960 . S
H893 C879 0.961 . S
H894 C879 0.961 . S
H895 C879 0.961 . S
H896 C880 0.931 . S
H897 C885 0.930 . S
H898 C886 0.956 . S
H899 C886 0.961 . S
H900 C886 0.961 . S
H901 C887 0.958 . S
H902 C887 0.961 . S
H903 C887 0.960 . S
C904 C905 1.391 . S
C904 C906 1.394 . S
C904 H920 0.931 . S
C905 C904 1.391 . S
C905 C909 1.376 . S
C906 C904 1.394 . S
C906 C907 1.369 . S
C906 C910 1.531 . S
C907 C906 1.369 . S
C907 C908 1.410 . S
C907 C915 1.503 . S
C908 C907 1.410 . S
C908 C909 1.392 . S
C908 C911 1.511 . S
C909 C905 1.376 . S
C909 C908 1.392 . S
C909 H921 0.929 . S
C910 C906 1.531 . S
C910 H922 0.960 1_565 S
C910 H923 0.962 . S
C910 H924 0.960 1_565 S
C911 C908 1.511 . S
C911 H925 0.961 . S
C911 H926 0.961 . S
C911 H927 0.961 . S
C912 C913 1.370 . S
C912 C914 1.363 . S
C912 H928 0.931 . S
C913 C912 1.370 . S
C913 C917 1.408 1_565 S
C914 C912 1.363 . S
C914 C915 1.370 . S
C914 C918 1.524 . S
C915 C907 1.503 . S
C915 C914 1.370 . S
C915 C916 1.403 1_565 S
C916 C915 1.403 1_545 S
C916 C917 1.404 . S
C916 C919 1.539 . S
C917 C913 1.408 1_545 S
C917 C916 1.404 . S
C917 H929 0.930 . S
C918 C914 1.524 . S
C918 H930 0.956 . S
C918 H931 0.961 . S
C918 H932 0.961 . S
C919 C916 1.539 . S
C919 H933 0.958 . S
C919 H934 0.961 . S
C919 H935 0.960 . S
H920 C904 0.931 . S
H921 C909 0.929 . S
H922 C910 0.960 1_545 S
H923 C910 0.962 . S
H924 C910 0.960 1_545 S
H925 C911 0.961 . S
H926 C911 0.961 . S
H927 C911 0.961 . S
H928 C912 0.931 . S
H929 C917 0.930 . S
H930 C918 0.956 . S
H931 C918 0.961 . S
H932 C918 0.961 . S
H933 C919 0.958 . S
H934 C919 0.961 . S
H935 C919 0.960 . S
C936 C937 1.391 . S
C936 C938 1.394 . S
C936 H952 0.931 . S
C937 C936 1.391 . S
C937 C941 1.376 . S
C938 C936 1.394 . S
C938 C939 1.369 . S
C938 C942 1.531 . S
C939 C938 1.369 . S
C939 C940 1.410 . S
C939 C947 1.503 . S
C940 C939 1.410 . S
C940 C941 1.392 . S
C940 C943 1.511 . S
C941 C937 1.376 . S
C941 C940 1.392 . S
C941 H953 0.929 . S
C942 C938 1.531 . S
C942 H954 0.960 . S
C942 H955 0.962 . S
C942 H956 0.960 . S
C943 C940 1.511 . S
C943 H957 0.961 . S
C943 H958 0.961 . S
C943 H959 0.961 . S
C944 C945 1.370 . S
C944 C946 1.363 . S
C944 H960 0.931 . S
C945 C944 1.370 . S
C945 C949 1.408 . S
C946 C944 1.363 . S
C946 C947 1.370 . S
C946 C950 1.524 . S
C947 C939 1.503 . S
C947 C946 1.370 . S
C947 C948 1.403 . S
C948 C947 1.403 . S
C948 C949 1.404 . S
C948 C951 1.539 . S
C949 C945 1.408 . S
C949 C948 1.404 . S
C949 H961 0.930 . S
C950 C946 1.524 . S
C950 H962 0.956 . S
C950 H963 0.961 . S
C950 H964 0.961 . S
C951 C948 1.539 . S
C951 H965 0.958 . S
C951 H966 0.961 . S
C951 H967 0.960 . S
H952 C936 0.931 . S
H953 C941 0.929 . S
H954 C942 0.960 . S
H955 C942 0.962 . S
H956 C942 0.960 . S
H957 C943 0.961 . S
H958 C943 0.961 . S
H959 C943 0.961 . S
H960 C944 0.931 . S
H961 C949 0.930 . S
H962 C950 0.956 . S
H963 C950 0.961 . S
H964 C950 0.961 . S
H965 C951 0.958 . S
H966 C951 0.961 . S
H967 C951 0.960 . S
C968 C969 1.391 . S
C968 C970 1.394 . S
C968 H984 0.931 . S
C969 C968 1.391 . S
C969 C973 1.376 . S
C970 C968 1.394 . S
C970 C971 1.369 . S
C970 C974 1.531 . S
C971 C970 1.369 . S
C971 C972 1.410 . S
C971 C979 1.503 . S
C972 C971 1.410 . S
C972 C973 1.392 . S
C972 C975 1.511 . S
C973 C969 1.376 . S
C973 C972 1.392 . S
C973 H985 0.929 . S
C974 C970 1.531 . S
C974 H986 0.960 . S
C974 H987 0.962 . S
C974 H988 0.960 . S
C975 C972 1.511 . S
C975 H989 0.961 . S
C975 H990 0.961 . S
C975 H991 0.961 . S
C976 C977 1.370 . S
C976 C978 1.363 . S
C976 H992 0.931 . S
C977 C976 1.370 . S
C977 C981 1.408 . S
C978 C976 1.363 . S
C978 C979 1.370 . S
C978 C982 1.524 . S
C979 C971 1.503 . S
C979 C978 1.370 . S
C979 C980 1.403 . S
C980 C979 1.403 . S
C980 C981 1.404 . S
C980 C983 1.539 . S
C981 C977 1.408 . S
C981 C980 1.404 . S
C981 H993 0.930 . S
C982 C978 1.524 . S
C982 H994 0.956 . S
C982 H995 0.961 . S
C982 H996 0.961 . S
C983 C980 1.539 . S
C983 H997 0.958 . S
C983 H998 0.961 . S
C983 H999 0.960 . S
H984 C968 0.931 . S
H985 C973 0.929 . S
H986 C974 0.960 . S
H987 C974 0.962 . S
H988 C974 0.960 . S
H989 C975 0.961 . S
H990 C975 0.961 . S
H991 C975 0.961 . S
H992 C976 0.931 . S
H993 C981 0.930 . S
H994 C982 0.956 . S
H995 C982 0.961 . S
H996 C982 0.961 . S
H997 C983 0.958 . S
H998 C983 0.961 . S
H999 C983 0.960 . S
C1000 C1001 1.391 . S
C1000 C1002 1.394 . S
C1000 H1016 0.931 . S
C1001 C1000 1.391 . S
C1001 C1005 1.376 . S
C1002 C1000 1.394 . S
C1002 C1003 1.369 . S
C1002 C1006 1.531 . S
C1003 C1002 1.369 . S
C1003 C1004 1.410 . S
C1003 C1011 1.503 . S
C1004 C1003 1.410 . S
C1004 C1005 1.392 . S
C1004 C1007 1.511 . S
C1005 C1001 1.376 . S
C1005 C1004 1.392 . S
C1005 H1017 0.929 . S
C1006 C1002 1.531 . S
C1006 H1018 0.960 . S
C1006 H1019 0.962 . S
C1006 H1020 0.960 . S
C1007 C1004 1.511 . S
C1007 H1021 0.961 . S
C1007 H1022 0.961 . S
C1007 H1023 0.961 . S
C1008 C1009 1.370 . S
C1008 C1010 1.363 . S
C1008 H1024 0.931 . S
C1009 C1008 1.370 . S
C1009 C1013 1.408 . S
C1010 C1008 1.363 . S
C1010 C1011 1.370 . S
C1010 C1014 1.524 . S
C1011 C1003 1.503 . S
C1011 C1010 1.370 . S
C1011 C1012 1.403 . S
C1012 C1011 1.403 . S
C1012 C1013 1.404 . S
C1012 C1015 1.539 . S
C1013 C1009 1.408 . S
C1013 C1012 1.404 . S
C1013 H1025 0.930 . S
C1014 C1010 1.524 . S
C1014 H1026 0.956 . S
C1014 H1027 0.961 . S
C1014 H1028 0.961 . S
C1015 C1012 1.539 . S
C1015 H1029 0.958 . S
C1015 H1030 0.961 . S
C1015 H1031 0.960 . S
H1016 C1000 0.931 . S
H1017 C1005 0.929 . S
H1018 C1006 0.960 . S
H1019 C1006 0.962 . S
H1020 C1006 0.960 . S
H1021 C1007 0.961 . S
H1022 C1007 0.961 . S
H1023 C1007 0.961 . S
H1024 C1008 0.931 . S
H1025 C1013 0.930 . S
H1026 C1014 0.956 . S
H1027 C1014 0.961 . S
H1028 C1014 0.961 . S
H1029 C1015 0.958 . S
H1030 C1015 0.961 . S
H1031 C1015 0.960 . S
C1032 C1033 1.391 . S
C1032 C1034 1.394 . S
C1032 H1048 0.931 . S
C1033 C1032 1.391 . S
C1033 C1037 1.376 . S
C1034 C1032 1.394 . S
C1034 C1035 1.369 . S
C1034 C1038 1.531 . S
C1035 C1034 1.369 . S
C1035 C1036 1.410 . S
C1035 C1043 1.503 . S
C1036 C1035 1.410 . S
C1036 C1037 1.392 . S
C1036 C1039 1.511 . S
C1037 C1033 1.376 . S
C1037 C1036 1.392 . S
C1037 H1049 0.929 . S
C1038 C1034 1.531 . S
C1038 H1050 0.960 . S
C1038 H1051 0.962 . S
C1038 H1052 0.960 . S
C1039 C1036 1.511 . S
C1039 H1053 0.961 . S
C1039 H1054 0.961 . S
C1039 H1055 0.961 . S
C1040 C1041 1.370 . S
C1040 C1042 1.363 . S
C1040 H1056 0.931 . S
C1041 C1040 1.370 . S
C1041 C1045 1.408 . S
C1042 C1040 1.363 . S
C1042 C1043 1.370 . S
C1042 C1046 1.524 . S
C1043 C1035 1.503 . S
C1043 C1042 1.370 . S
C1043 C1044 1.403 . S
C1044 C1043 1.403 . S
C1044 C1045 1.404 . S
C1044 C1047 1.539 . S
C1045 C1041 1.408 . S
C1045 C1044 1.404 . S
C1045 H1057 0.930 . S
C1046 C1042 1.524 . S
C1046 H1058 0.956 . S
C1046 H1059 0.961 . S
C1046 H1060 0.961 . S
C1047 C1044 1.539 . S
C1047 H1061 0.958 . S
C1047 H1062 0.961 . S
C1047 H1063 0.960 . S
H1048 C1032 0.931 . S
H1049 C1037 0.929 . S
H1050 C1038 0.960 . S
H1051 C1038 0.962 . S
H1052 C1038 0.960 . S
H1053 C1039 0.961 . S
H1054 C1039 0.961 . S
H1055 C1039 0.961 . S
H1056 C1040 0.931 . S
H1057 C1045 0.930 . S
H1058 C1046 0.956 . S
H1059 C1046 0.961 . S
H1060 C1046 0.961 . S
H1061 C1047 0.958 . S
H1062 C1047 0.961 . S
H1063 C1047 0.960 . S
C1064 C1065 1.391 . S
C1064 C1066 1.394 . S
C1064 H1080 0.931 . S
C1065 C1064 1.391 . S
C1065 C1069 1.376 . S
C1066 C1064 1.394 . S
C1066 C1067 1.369 . S
C1066 C1070 1.531 . S
C1067 C1066 1.369 . S
C1067 C1068 1.410 . S
C1067 C1075 1.503 . S
C1068 C1067 1.410 . S
C1068 C1069 1.392 . S
C1068 C1071 1.511 . S
C1069 C1065 1.376 . S
C1069 C1068 1.392 . S
C1069 H1081 0.929 . S
C1070 C1066 1.531 . S
C1070 H1082 0.960 . S
C1070 H1083 0.962 . S
C1070 H1084 0.960 . S
C1071 C1068 1.511 . S
C1071 H1085 0.961 . S
C1071 H1086 0.961 . S
C1071 H1087 0.961 . S
C1072 C1073 1.370 . S
C1072 C1074 1.363 . S
C1072 H1088 0.931 . S
C1073 C1072 1.370 . S
C1073 C1077 1.408 . S
C1074 C1072 1.363 . S
C1074 C1075 1.370 . S
C1074 C1078 1.524 . S
C1075 C1067 1.503 . S
C1075 C1074 1.370 . S
C1075 C1076 1.403 . S
C1076 C1075 1.403 . S
C1076 C1077 1.404 . S
C1076 C1079 1.539 . S
C1077 C1073 1.408 . S
C1077 C1076 1.404 . S
C1077 H1089 0.930 . S
C1078 C1074 1.524 . S
C1078 H1090 0.956 . S
C1078 H1091 0.961 . S
C1078 H1092 0.961 . S
C1079 C1076 1.539 . S
C1079 H1093 0.958 . S
C1079 H1094 0.961 . S
C1079 H1095 0.960 . S
H1080 C1064 0.931 . S
H1081 C1069 0.929 . S
H1082 C1070 0.960 . S
H1083 C1070 0.962 . S
H1084 C1070 0.960 . S
H1085 C1071 0.961 . S
H1086 C1071 0.961 . S
H1087 C1071 0.961 . S
H1088 C1072 0.931 . S
H1089 C1077 0.930 . S
H1090 C1078 0.956 . S
H1091 C1078 0.961 . S
H1092 C1078 0.961 . S
H1093 C1079 0.958 . S
H1094 C1079 0.961 . S
H1095 C1079 0.960 . S
C1096 C1097 1.391 . S
C1096 C1098 1.394 . S
C1096 H1112 0.931 . S
C1097 C1096 1.391 . S
C1097 C1101 1.376 . S
C1098 C1096 1.394 . S
C1098 C1099 1.369 . S
C1098 C1102 1.531 1_455 S
C1099 C1098 1.369 . S
C1099 C1100 1.410 . S
C1099 C1107 1.503 . S
C1100 C1099 1.410 . S
C1100 C1101 1.392 . S
C1100 C1103 1.511 . S
C1101 C1097 1.376 . S
C1101 C1100 1.392 . S
C1101 H1113 0.929 . S
C1102 C1098 1.531 1_655 S
C1102 H1114 0.960 . S
C1102 H1115 0.962 . S
C1102 H1116 0.960 . S
C1103 C1100 1.511 . S
C1103 H1117 0.961 . S
C1103 H1118 0.961 . S
C1103 H1119 0.961 . S
C1104 C1105 1.370 . S
C1104 C1106 1.363 . S
C1104 H1120 0.931 . S
C1105 C1104 1.370 . S
C1105 C1109 1.408 . S
C1106 C1104 1.363 . S
C1106 C1107 1.370 . S
C1106 C1110 1.524 . S
C1107 C1099 1.503 . S
C1107 C1106 1.370 . S
C1107 C1108 1.403 . S
C1108 C1107 1.403 . S
C1108 C1109 1.404 . S
C1108 C1111 1.539 . S
C1109 C1105 1.408 . S
C1109 C1108 1.404 . S
C1109 H1121 0.930 . S
C1110 C1106 1.524 . S
C1110 H1122 0.956 . S
C1110 H1123 0.961 . S
C1110 H1124 0.961 . S
C1111 C1108 1.539 . S
C1111 H1125 0.958 . S
C1111 H1126 0.961 . S
C1111 H1127 0.960 . S
H1112 C1096 0.931 . S
H1113 C1101 0.929 . S
H1114 C1102 0.960 . S
H1115 C1102 0.962 . S
H1116 C1102 0.960 . S
H1117 C1103 0.961 . S
H1118 C1103 0.961 . S
H1119 C1103 0.961 . S
H1120 C1104 0.931 . S
H1121 C1109 0.930 . S
H1122 C1110 0.956 . S
H1123 C1110 0.961 . S
H1124 C1110 0.961 . S
H1125 C1111 0.958 . S
H1126 C1111 0.961 . S
H1127 C1111 0.960 . S
C1128 C1129 1.391 . S
C1128 C1130 1.394 . S
C1128 H1144 0.931 . S
C1129 C1128 1.391 . S
C1129 C1133 1.376 . S
C1130 C1128 1.394 . S
C1130 C1131 1.369 . S
C1130 C1134 1.531 . S
C1131 C1130 1.369 . S
C1131 C1132 1.410 . S
C1131 C1139 1.503 . S
C1132 C1131 1.410 . S
C1132 C1133 1.392 . S
C1132 C1135 1.511 . S
C1133 C1129 1.376 . S
C1133 C1132 1.392 . S
C1133 H1145 0.929 . S
C1134 C1130 1.531 . S
C1134 H1146 0.960 . S
C1134 H1147 0.962 . S
C1134 H1148 0.960 . S
C1135 C1132 1.511 . S
C1135 H1149 0.961 . S
C1135 H1150 0.961 . S
C1135 H1151 0.961 . S
C1136 C1137 1.370 . S
C1136 C1138 1.363 . S
C1136 H1152 0.931 . S
C1137 C1136 1.370 . S
C1137 C1141 1.408 . S
C1138 C1136 1.363 . S
C1138 C1139 1.370 . S
C1138 C1142 1.524 . S
C1139 C1131 1.503 . S
C1139 C1138 1.370 . S
C1139 C1140 1.403 . S
C1140 C1139 1.403 . S
C1140 C1141 1.404 . S
C1140 C1143 1.539 . S
C1141 C1137 1.408 . S
C1141 C1140 1.404 . S
C1141 H1153 0.930 . S
C1142 C1138 1.524 . S
C1142 H1154 0.956 . S
C1142 H1155 0.961 . S
C1142 H1156 0.961 . S
C1143 C1140 1.539 . S
C1143 H1157 0.958 . S
C1143 H1158 0.961 . S
C1143 H1159 0.960 . S
H1144 C1128 0.931 . S
H1145 C1133 0.929 . S
H1146 C1134 0.960 . S
H1147 C1134 0.962 . S
H1148 C1134 0.960 . S
H1149 C1135 0.961 . S
H1150 C1135 0.961 . S
H1151 C1135 0.961 . S
H1152 C1136 0.931 . S
H1153 C1141 0.930 . S
H1154 C1142 0.956 . S
H1155 C1142 0.961 . S
H1156 C1142 0.961 . S
H1157 C1143 0.958 . S
H1158 C1143 0.961 . S
H1159 C1143 0.960 . S
C1160 C1161 1.391 . S
C1160 C1162 1.394 . S
C1160 H1176 0.931 . S
C1161 C1160 1.391 . S
C1161 C1165 1.376 . S
C1162 C1160 1.394 . S
C1162 C1163 1.369 . S
C1162 C1166 1.531 . S
C1163 C1162 1.369 . S
C1163 C1164 1.410 . S
C1163 C1171 1.503 . S
C1164 C1163 1.410 . S
C1164 C1165 1.392 . S
C1164 C1167 1.511 1_655 S
C1165 C1161 1.376 . S
C1165 C1164 1.392 . S
C1165 H1177 0.929 . S
C1166 C1162 1.531 . S
C1166 H1178 0.960 . S
C1166 H1179 0.962 . S
C1166 H1180 0.960 . S
C1167 C1164 1.511 1_455 S
C1167 H1181 0.961 . S
C1167 H1182 0.961 . S
C1167 H1183 0.961 . S
C1168 C1169 1.370 . S
C1168 C1170 1.363 . S
C1168 H1184 0.931 . S
C1169 C1168 1.370 . S
C1169 C1173 1.408 1_655 S
C1170 C1168 1.363 . S
C1170 C1171 1.370 . S
C1170 C1174 1.524 . S
C1171 C1163 1.503 . S
C1171 C1170 1.370 . S
C1171 C1172 1.433 . S
C1172 C1171 1.433 . S
C1172 C1173 1.400 1_655 S
C1172 C1175 1.512 1_655 S
C1173 C1169 1.408 1_455 S
C1173 C1172 1.400 1_455 S
C1173 H1185 0.930 . S
C1174 C1170 1.524 . S
C1174 H1186 0.956 . S
C1174 H1187 0.961 . S
C1174 H1188 0.961 . S
C1175 C1172 1.512 1_455 S
C1175 H1189 0.958 . S
C1175 H1190 0.961 . S
C1175 H1191 0.960 . S
H1176 C1160 0.931 . S
H1177 C1165 0.929 . S
H1178 C1166 0.960 . S
H1179 C1166 0.962 . S
H1180 C1166 0.960 . S
H1181 C1167 0.961 . S
H1182 C1167 0.961 . S
H1183 C1167 0.961 . S
H1184 C1168 0.931 . S
H1185 C1173 0.930 . S
H1186 C1174 0.956 . S
H1187 C1174 0.961 . S
H1188 C1174 0.961 . S
H1189 C1175 0.958 . S
H1190 C1175 0.961 . S
H1191 C1175 0.960 . S
C1192 C1193 1.391 . S
C1192 C1194 1.394 . S
C1192 H1208 0.931 . S
C1193 C1192 1.391 . S
C1193 C1197 1.376 . S
C1194 C1192 1.394 . S
C1194 C1195 1.369 . S
C1194 C1198 1.531 . S
C1195 C1194 1.369 . S
C1195 C1196 1.410 . S
C1195 C1203 1.503 . S
C1196 C1195 1.410 . S
C1196 C1197 1.392 . S
C1196 C1199 1.511 . S
C1197 C1193 1.376 . S
C1197 C1196 1.392 . S
C1197 H1209 0.929 . S
C1198 C1194 1.531 . S
C1198 H1210 0.960 . S
C1198 H1211 0.962 . S
C1198 H1212 0.960 . S
C1199 C1196 1.511 . S
C1199 H1213 0.961 . S
C1199 H1214 0.961 . S
C1199 H1215 0.961 . S
C1200 C1201 1.370 . S
C1200 C1202 1.363 . S
C1200 H1216 0.931 . S
C1201 C1200 1.370 . S
C1201 C1205 1.408 . S
C1202 C1200 1.363 . S
C1202 C1203 1.370 . S
C1202 C1206 1.524 . S
C1203 C1195 1.503 . S
C1203 C1202 1.370 . S
C1203 C1204 1.403 . S
C1204 C1203 1.403 . S
C1204 C1205 1.404 . S
C1204 C1207 1.539 . S
C1205 C1201 1.408 . S
C1205 C1204 1.404 . S
C1205 H1217 0.930 . S
C1206 C1202 1.524 . S
C1206 H1218 0.956 . S
C1206 H1219 0.961 . S
C1206 H1220 0.961 . S
C1207 C1204 1.539 . S
C1207 H1221 0.958 . S
C1207 H1222 0.961 . S
C1207 H1223 0.960 . S
H1208 C1192 0.931 . S
H1209 C1197 0.929 . S
H1210 C1198 0.960 . S
H1211 C1198 0.962 . S
H1212 C1198 0.960 . S
H1213 C1199 0.961 . S
H1214 C1199 0.961 . S
H1215 C1199 0.961 . S
H1216 C1200 0.931 . S
H1217 C1205 0.930 . S
H1218 C1206 0.956 . S
H1219 C1206 0.961 . S
H1220 C1206 0.961 . S
H1221 C1207 0.958 . S
H1222 C1207 0.961 . S
H1223 C1207 0.960 . S
C1224 C1225 1.391 . S
C1224 C1226 1.394 . S
C1224 H1240 0.931 . S
C1225 C1224 1.391 . S
C1225 C1229 1.376 . S
C1226 C1224 1.394 . S
C1226 C1227 1.369 . S
C1226 C1230 1.531 . S
C1227 C1226 1.369 . S
C1227 C1228 1.410 . S
C1227 C1235 1.503 . S
C1228 C1227 1.410 . S
C1228 C1229 1.392 . S
C1228 C1231 1.511 . S
C1229 C1225 1.376 . S
C1229 C1228 1.392 . S
C1229 H1241 0.929 . S
C1230 C1226 1.531 . S
C1230 H1242 0.960 . S
C1230 H1243 0.962 . S
C1230 H1244 0.960 . S
C1231 C1228 1.511 . S
C1231 H1245 0.961 . S
C1231 H1246 0.961 . S
C1231 H1247 0.961 . S
C1232 C1233 1.370 . S
C1232 C1234 1.363 . S
C1232 H1248 0.931 . S
C1233 C1232 1.370 . S
C1233 C1237 1.408 . S
C1234 C1232 1.363 . S
C1234 C1235 1.370 . S
C1234 C1238 1.524 . S
C1235 C1227 1.503 . S
C1235 C1234 1.370 . S
C1235 C1236 1.403 . S
C1236 C1235 1.403 . S
C1236 C1237 1.404 . S
C1236 C1239 1.539 . S
C1237 C1233 1.408 . S
C1237 C1236 1.404 . S
C1237 H1249 0.930 . S
C1238 C1234 1.524 . S
C1238 H1250 0.956 . S
C1238 H1251 0.961 . S
C1238 H1252 0.961 . S
C1239 C1236 1.539 . S
C1239 H1253 0.958 . S
C1239 H1254 0.961 . S
C1239 H1255 0.960 . S
H1240 C1224 0.931 . S
H1241 C1229 0.929 . S
H1242 C1230 0.960 . S
H1243 C1230 0.962 . S
H1244 C1230 0.960 . S
H1245 C1231 0.961 . S
H1246 C1231 0.961 . S
H1247 C1231 0.961 . S
H1248 C1232 0.931 . S
H1249 C1237 0.930 . S
H1250 C1238 0.956 . S
H1251 C1238 0.961 . S
H1252 C1238 0.961 . S
H1253 C1239 0.958 . S
H1254 C1239 0.961 . S
H1255 C1239 0.960 . S
C1256 C1257 1.391 . S
C1256 C1258 1.394 . S
C1256 H1272 0.931 . S
C1257 C1256 1.391 . S
C1257 C1261 1.376 1_565 S
C1258 C1256 1.394 . S
C1258 C1259 1.369 . S
C1258 C1262 1.531 . S
C1259 C1258 1.369 . S
C1259 C1260 1.410 . S
C1259 C1267 1.503 . S
C1260 C1259 1.410 . S
C1260 C1261 1.392 1_565 S
C1260 C1263 1.511 . S
C1261 C1257 1.376 1_545 S
C1261 C1260 1.392 1_545 S
C1261 H1273 0.929 . S
C1262 C1258 1.531 . S
C1262 H1274 0.960 . S
C1262 H1275 0.962 . S
C1262 H1276 0.960 . S
C1263 C1260 1.511 . S
C1263 H1277 0.961 1_565 S
C1263 H1278 0.961 . S
C1263 H1279 0.954 1_565 S
C1264 C1265 1.370 . S
C1264 C1266 1.363 . S
C1264 H1280 0.931 . S
C1265 C1264 1.370 . S
C1265 C1269 1.408 1_556 S
C1266 C1264 1.363 . S
C1266 C1267 1.370 . S
C1266 C1270 1.524 . S
C1267 C1259 1.503 . S
C1267 C1266 1.370 . S
C1267 C1268 1.403 1_556 S
C1268 C1267 1.403 1_554 S
C1268 C1269 1.404 . S
C1268 C1271 1.539 . S
C1269 C1265 1.408 1_554 S
C1269 C1268 1.404 . S
C1269 H1281 0.930 . S
C1270 C1266 1.524 . S
C1270 H1282 0.956 . S
C1270 H1283 0.961 . S
C1270 H1284 0.961 . S
C1271 C1268 1.539 . S
C1271 H1285 0.958 . S
C1271 H1286 0.961 . S
C1271 H1287 0.960 . S
H1272 C1256 0.931 . S
H1273 C1261 0.929 . S
H1274 C1262 0.960 . S
H1275 C1262 0.962 . S
H1276 C1262 0.960 . S
H1277 C1263 0.961 1_545 S
H1278 C1263 0.961 . S
H1279 C1263 0.954 1_545 S
H1280 C1264 0.931 . S
H1281 C1269 0.930 . S
H1282 C1270 0.956 . S
H1283 C1270 0.961 . S
H1284 C1270 0.961 . S
H1285 C1271 0.958 . S
H1286 C1271 0.961 . S
H1287 C1271 0.960 . S
C1288 C1289 1.391 . S
C1288 C1290 1.394 . S
C1288 H1304 0.931 . S
C1289 C1288 1.391 . S
C1289 C1293 1.376 . S
C1290 C1288 1.394 . S
C1290 C1291 1.369 . S
C1290 C1294 1.531 . S
C1291 C1290 1.369 . S
C1291 C1292 1.410 . S
C1291 C1299 1.503 . S
C1292 C1291 1.410 . S
C1292 C1293 1.392 . S
C1292 C1295 1.511 . S
C1293 C1289 1.376 . S
C1293 C1292 1.392 . S
C1293 H1305 0.929 . S
C1294 C1290 1.531 . S
C1294 H1306 0.960 . S
C1294 H1307 0.962 . S
C1294 H1308 0.960 . S
C1295 C1292 1.511 . S
C1295 H1309 0.961 . S
C1295 H1310 0.961 . S
C1295 H1311 0.961 . S
C1296 C1297 1.370 . S
C1296 C1298 1.363 . S
C1296 H1312 0.931 . S
C1297 C1296 1.370 . S
C1297 C1301 1.408 . S
C1298 C1296 1.363 . S
C1298 C1299 1.370 . S
C1298 C1302 1.524 . S
C1299 C1291 1.503 . S
C1299 C1298 1.370 . S
C1299 C1300 1.403 . S
C1300 C1299 1.403 . S
C1300 C1301 1.404 . S
C1300 C1303 1.539 . S
C1301 C1297 1.408 . S
C1301 C1300 1.404 . S
C1301 H1313 0.930 . S
C1302 C1298 1.524 . S
C1302 H1314 0.956 . S
C1302 H1315 0.961 . S
C1302 H1316 0.961 . S
C1303 C1300 1.539 . S
C1303 H1317 0.958 . S
C1303 H1318 0.961 . S
C1303 H1319 0.960 . S
H1304 C1288 0.931 . S
H1305 C1293 0.929 . S
H1306 C1294 0.960 . S
H1307 C1294 0.962 . S
H1308 C1294 0.960 . S
H1309 C1295 0.961 . S
H1310 C1295 0.961 . S
H1311 C1295 0.961 . S
H1312 C1296 0.931 . S
H1313 C1301 0.930 . S
H1314 C1302 0.956 . S
H1315 C1302 0.961 . S
H1316 C1302 0.961 . S
H1317 C1303 0.958 . S
H1318 C1303 0.961 . S
H1319 C1303 0.960 . S
C1320 C1321 1.391 . S
C1320 C1322 1.394 . S
C1320 H1336 0.931 . S
C1321 C1320 1.391 . S
C1321 C1325 1.376 . S
C1322 C1320 1.394 . S
C1322 C1323 1.369 . S
C1322 C1326 1.531 . S
C1323 C1322 1.369 . S
C1323 C1324 1.410 . S
C1323 C1331 1.503 . S
C1324 C1323 1.410 . S
C1324 C1325 1.392 . S
C1324 C1327 1.511 . S
C1325 C1321 1.376 . S
C1325 C1324 1.392 . S
C1325 H1337 0.929 1_545 S
C1326 C1322 1.531 . S
C1326 H1338 0.960 . S
C1326 H1339 0.962 . S
C1326 H1340 0.960 . S
C1327 C1324 1.511 . S
C1327 H1341 0.961 . S
C1327 H1342 0.961 . S
C1327 H1343 0.961 . S
C1328 C1329 1.370 . S
C1328 C1330 1.363 . S
C1328 H1344 0.931 . S
C1329 C1328 1.370 . S
C1329 C1333 1.408 . S
C1330 C1328 1.363 . S
C1330 C1331 1.370 . S
C1330 C1334 1.524 . S
C1331 C1323 1.503 . S
C1331 C1330 1.370 . S
C1331 C1332 1.403 . S
C1332 C1331 1.403 . S
C1332 C1333 1.404 . S
C1332 C1335 1.539 . S
C1333 C1329 1.408 . S
C1333 C1332 1.404 . S
C1333 H1345 0.930 . S
C1334 C1330 1.524 . S
C1334 H1346 0.956 . S
C1334 H1347 0.961 . S
C1334 H1348 0.961 . S
C1335 C1332 1.539 . S
C1335 H1349 0.958 . S
C1335 H1350 0.961 . S
C1335 H1351 0.960 . S
H1336 C1320 0.931 . S
H1337 C1325 0.929 1_565 S
H1338 C1326 0.960 . S
H1339 C1326 0.962 . S
H1340 C1326 0.960 . S
H1341 C1327 0.961 . S
H1342 C1327 0.961 . S
H1343 C1327 0.961 . S
H1344 C1328 0.931 . S
H1345 C1333 0.930 . S
H1346 C1334 0.956 . S
H1347 C1334 0.961 . S
H1348 C1334 0.961 . S
H1349 C1335 0.958 . S
H1350 C1335 0.961 . S
H1351 C1335 0.960 . S
C1352 C1353 1.391 . S
C1352 C1354 1.394 . S
C1352 H1368 0.931 . S
C1353 C1352 1.391 . S
C1353 C1357 1.376 . S
C1354 C1352 1.394 . S
C1354 C1355 1.369 . S
C1354 C1358 1.531 . S
C1355 C1354 1.369 . S
C1355 C1356 1.410 . S
C1355 C1363 1.503 . S
C1356 C1355 1.410 . S
C1356 C1357 1.392 . S
C1356 C1359 1.511 . S
C1357 C1353 1.376 . S
C1357 C1356 1.392 . S
C1357 H1369 0.929 . S
C1358 C1354 1.531 . S
C1358 H1370 0.960 . S
C1358 H1371 0.962 . S
C1358 H1372 0.960 . S
C1359 C1356 1.511 . S
C1359 H1373 0.961 . S
C1359 H1374 0.961 . S
C1359 H1375 0.961 . S
C1360 C1361 1.370 . S
C1360 C1362 1.363 . S
C1360 H1376 0.931 . S
C1361 C1360 1.370 . S
C1361 C1365 1.408 . S
C1362 C1360 1.363 . S
C1362 C1363 1.370 . S
C1362 C1366 1.524 . S
C1363 C1355 1.503 . S
C1363 C1362 1.370 . S
C1363 C1364 1.403 . S
C1364 C1363 1.403 . S
C1364 C1365 1.404 . S
C1364 C1367 1.539 . S
C1365 C1361 1.408 . S
C1365 C1364 1.404 . S
C1365 H1377 0.930 . S
C1366 C1362 1.524 . S
C1366 H1378 0.956 . S
C1366 H1379 0.961 . S
C1366 H1380 0.961 . S
C1367 C1364 1.539 . S
C1367 H1381 0.958 . S
C1367 H1382 0.961 . S
C1367 H1383 0.960 . S
H1368 C1352 0.931 . S
H1369 C1357 0.929 . S
H1370 C1358 0.960 . S
H1371 C1358 0.962 . S
H1372 C1358 0.960 . S
H1373 C1359 0.961 . S
H1374 C1359 0.961 . S
H1375 C1359 0.961 . S
H1376 C1360 0.931 . S
H1377 C1365 0.930 . S
H1378 C1366 0.956 . S
H1379 C1366 0.961 . S
H1380 C1366 0.961 . S
H1381 C1367 0.958 . S
H1382 C1367 0.961 . S
H1383 C1367 0.960 . S
C1384 C1385 1.391 . S
C1384 C1386 1.394 . S
C1384 H1400 0.931 1_545 S
C1385 C1384 1.391 . S
C1385 C1389 1.376 . S
C1386 C1384 1.394 . S
C1386 C1387 1.369 . S
C1386 C1390 1.531 . S
C1387 C1386 1.369 . S
C1387 C1388 1.410 . S
C1387 C1395 1.503 . S
C1388 C1387 1.410 . S
C1388 C1389 1.392 . S
C1388 C1391 1.511 . S
C1389 C1385 1.376 . S
C1389 C1388 1.392 . S
C1389 H1401 0.929 . S
C1390 C1386 1.531 . S
C1390 H1402 0.960 . S
C1390 H1403 0.962 . S
C1390 H1404 0.960 . S
C1391 C1388 1.511 . S
C1391 H1405 0.961 . S
C1391 H1406 0.961 . S
C1391 H1407 0.961 . S
C1392 C1393 1.370 . S
C1392 C1394 1.363 . S
C1392 H1408 0.931 . S
C1393 C1392 1.370 . S
C1393 C1397 1.408 . S
C1394 C1392 1.363 . S
C1394 C1395 1.370 . S
C1394 C1398 1.524 . S
C1395 C1387 1.503 . S
C1395 C1394 1.370 . S
C1395 C1396 1.403 . S
C1396 C1395 1.403 . S
C1396 C1397 1.404 . S
C1396 C1399 1.539 . S
C1397 C1393 1.408 . S
C1397 C1396 1.404 . S
C1397 H1409 0.930 . S
C1398 C1394 1.524 . S
C1398 H1410 0.956 . S
C1398 H1411 0.961 . S
C1398 H1412 0.961 . S
C1399 C1396 1.539 . S
C1399 H1413 0.958 . S
C1399 H1414 0.961 . S
C1399 H1415 0.960 . S
H1400 C1384 0.931 1_565 S
H1401 C1389 0.929 . S
H1402 C1390 0.960 . S
H1403 C1390 0.962 . S
H1404 C1390 0.960 . S
H1405 C1391 0.961 . S
H1406 C1391 0.961 . S
H1407 C1391 0.961 . S
H1408 C1392 0.931 . S
H1409 C1397 0.930 . S
H1410 C1398 0.956 . S
H1411 C1398 0.961 . S
H1412 C1398 0.961 . S
H1413 C1399 0.958 . S
H1414 C1399 0.961 . S
H1415 C1399 0.960 . S
C1416 C1417 1.391 . S
C1416 C1418 1.394 . S
C1416 H1432 0.931 . S
C1417 C1416 1.391 . S
C1417 C1421 1.376 . S
C1418 C1416 1.394 . S
C1418 C1419 1.369 . S
C1418 C1422 1.531 . S
C1419 C1418 1.369 . S
C1419 C1420 1.410 . S
C1419 C1427 1.503 . S
C1420 C1419 1.410 . S
C1420 C1421 1.392 . S
C1420 C1423 1.511 . S
C1421 C1417 1.376 . S
C1421 C1420 1.392 . S
C1421 H1433 0.929 . S
C1422 C1418 1.531 . S
C1422 H1434 0.960 . S
C1422 H1435 0.962 . S
C1422 H1436 0.960 . S
C1423 C1420 1.511 . S
C1423 H1437 0.961 . S
C1423 H1438 0.961 . S
C1423 H1439 0.961 . S
C1424 C1425 1.370 . S
C1424 C1426 1.363 . S
C1424 H1440 0.931 . S
C1425 C1424 1.370 . S
C1425 C1429 1.408 . S
C1426 C1424 1.363 . S
C1426 C1427 1.370 . S
C1426 C1430 1.524 . S
C1427 C1419 1.503 . S
C1427 C1426 1.370 . S
C1427 C1428 1.403 . S
C1428 C1427 1.403 . S
C1428 C1429 1.404 . S
C1428 C1431 1.539 . S
C1429 C1425 1.408 . S
C1429 C1428 1.404 . S
C1429 H1441 0.930 . S
C1430 C1426 1.524 . S
C1430 H1442 0.956 . S
C1430 H1443 0.961 . S
C1430 H1444 0.961 . S
C1431 C1428 1.539 . S
C1431 H1445 0.958 . S
C1431 H1446 0.961 . S
C1431 H1447 0.960 . S
H1432 C1416 0.931 . S
H1433 C1421 0.929 . S
H1434 C1422 0.960 . S
H1435 C1422 0.962 . S
H1436 C1422 0.960 . S
H1437 C1423 0.961 . S
H1438 C1423 0.961 . S
H1439 C1423 0.961 . S
H1440 C1424 0.931 . S
H1441 C1429 0.930 . S
H1442 C1430 0.956 . S
H1443 C1430 0.961 . S
H1444 C1430 0.961 . S
H1445 C1431 0.958 . S
H1446 C1431 0.961 . S
H1447 C1431 0.960 . S
C1448 C1449 1.391 . S
C1448 C1450 1.394 . S
C1448 H1464 0.931 . S
C1449 C1448 1.391 . S
C1449 C1453 1.376 . S
C1450 C1448 1.394 . S
C1450 C1451 1.369 . S
C1450 C1454 1.531 . S
C1451 C1450 1.369 . S
C1451 C1452 1.410 . S
C1451 C1459 1.503 . S
C1452 C1451 1.410 . S
C1452 C1453 1.392 . S
C1452 C1455 1.511 . S
C1453 C1449 1.376 . S
C1453 C1452 1.392 . S
C1453 H1465 0.929 . S
C1454 C1450 1.531 . S
C1454 H1466 0.960 . S
C1454 H1467 0.962 . S
C1454 H1468 0.960 . S
C1455 C1452 1.511 . S
C1455 H1469 0.961 . S
C1455 H1470 0.961 . S
C1455 H1471 0.961 . S
C1456 C1457 1.370 . S
C1456 C1458 1.363 . S
C1456 H1472 0.931 . S
C1457 C1456 1.370 . S
C1457 C1461 1.408 . S
C1458 C1456 1.363 . S
C1458 C1459 1.370 . S
C1458 C1462 1.524 . S
C1459 C1451 1.503 . S
C1459 C1458 1.370 . S
C1459 C1460 1.403 . S
C1460 C1459 1.403 . S
C1460 C1461 1.404 . S
C1460 C1463 1.539 . S
C1461 C1457 1.408 . S
C1461 C1460 1.404 . S
C1461 H1473 0.930 . S
C1462 C1458 1.524 . S
C1462 H1474 0.956 . S
C1462 H1475 0.961 . S
C1462 H1476 0.961 . S
C1463 C1460 1.539 . S
C1463 H1477 0.958 . S
C1463 H1478 0.961 . S
C1463 H1479 0.960 . S
H1464 C1448 0.931 . S
H1465 C1453 0.929 . S
H1466 C1454 0.960 . S
H1467 C1454 0.962 . S
H1468 C1454 0.960 . S
H1469 C1455 0.961 . S
H1470 C1455 0.961 . S
H1471 C1455 0.961 . S
H1472 C1456 0.931 . S
H1473 C1461 0.930 . S
H1474 C1462 0.956 . S
H1475 C1462 0.961 . S
H1476 C1462 0.961 . S
H1477 C1463 0.958 . S
H1478 C1463 0.961 . S
H1479 C1463 0.960 . S
C1480 C1481 1.391 . S
C1480 C1482 1.394 . S
C1480 H1496 0.931 . S
C1481 C1480 1.391 . S
C1481 C1485 1.376 . S
C1482 C1480 1.394 . S
C1482 C1483 1.369 . S
C1482 C1486 1.531 . S
C1483 C1482 1.369 . S
C1483 C1484 1.410 . S
C1483 C1491 1.503 . S
C1484 C1483 1.410 . S
C1484 C1485 1.392 . S
C1484 C1487 1.511 . S
C1485 C1481 1.376 . S
C1485 C1484 1.392 . S
C1485 H1497 0.929 . S
C1486 C1482 1.531 . S
C1486 H1498 0.960 . S
C1486 H1499 0.962 . S
C1486 H1500 0.960 . S
C1487 C1484 1.511 . S
C1487 H1501 0.961 . S
C1487 H1502 0.961 . S
C1487 H1503 0.961 . S
C1488 C1489 1.370 . S
C1488 C1490 1.363 . S
C1488 H1504 0.931 . S
C1489 C1488 1.370 . S
C1489 C1493 1.371 1_545 S
C1490 C1488 1.363 . S
C1490 C1491 1.370 . S
C1490 C1494 1.524 . S
C1491 C1483 1.503 . S
C1491 C1490 1.370 . S
C1491 C1492 1.403 . S
C1492 C1491 1.403 . S
C1492 C1493 1.397 1_545 S
C1492 C1495 1.539 1_545 S
C1493 C1489 1.371 1_565 S
C1493 C1492 1.397 1_565 S
C1493 H1505 0.975 . S
C1494 C1490 1.524 . S
C1494 H1506 0.956 . S
C1494 H1507 0.961 . S
C1494 H1508 0.961 . S
C1495 C1492 1.539 1_565 S
C1495 H1509 0.958 . S
C1495 H1510 0.961 . S
C1495 H1511 0.960 . S
H1496 C1480 0.931 . S
H1497 C1485 0.929 . S
H1498 C1486 0.960 . S
H1499 C1486 0.962 . S
H1500 C1486 0.960 . S
H1501 C1487 0.961 . S
H1502 C1487 0.961 . S
H1503 C1487 0.961 . S
H1504 C1488 0.931 . S
H1505 C1493 0.975 . S
H1506 C1494 0.956 . S
H1507 C1494 0.961 . S
H1508 C1494 0.961 . S
H1509 C1495 0.958 . S
H1510 C1495 0.961 . S
H1511 C1495 0.960 . S
C1512 C1513 1.391 . S
C1512 C1514 1.394 . S
C1512 H1528 0.931 . S
C1513 C1512 1.391 . S
C1513 C1517 1.376 . S
C1514 C1512 1.394 . S
C1514 C1515 1.369 . S
C1514 C1518 1.531 . S
C1515 C1514 1.369 . S
C1515 C1516 1.410 . S
C1515 C1523 1.503 . S
C1516 C1515 1.410 . S
C1516 C1517 1.392 . S
C1516 C1519 1.511 . S
C1517 C1513 1.376 . S
C1517 C1516 1.392 . S
C1517 H1529 0.929 . S
C1518 C1514 1.531 . S
C1518 H1530 0.960 . S
C1518 H1531 0.962 . S
C1518 H1532 0.960 . S
C1519 C1516 1.511 . S
C1519 H1533 0.961 . S
C1519 H1534 0.961 . S
C1519 H1535 0.961 . S
C1520 C1521 1.370 . S
C1520 C1522 1.363 . S
C1520 H1536 0.931 . S
C1521 C1520 1.370 . S
C1521 C1525 1.408 . S
C1522 C1520 1.363 . S
C1522 C1523 1.370 . S
C1522 C1526 1.524 . S
C1523 C1515 1.503 . S
C1523 C1522 1.370 . S
C1523 C1524 1.403 . S
C1524 C1523 1.403 . S
C1524 C1525 1.404 . S
C1524 C1527 1.539 . S
C1525 C1521 1.408 . S
C1525 C1524 1.404 . S
C1525 H1537 0.930 . S
C1526 C1522 1.524 . S
C1526 H1538 0.956 . S
C1526 H1539 0.961 . S
C1526 H1540 0.961 . S
C1527 C1524 1.539 . S
C1527 H1541 0.958 . S
C1527 H1542 0.961 . S
C1527 H1543 0.960 . S
H1528 C1512 0.931 . S
H1529 C1517 0.929 . S
H1530 C1518 0.960 . S
H1531 C1518 0.962 . S
H1532 C1518 0.960 . S
H1533 C1519 0.961 . S
H1534 C1519 0.961 . S
H1535 C1519 0.961 . S
H1536 C1520 0.931 . S
H1537 C1525 0.930 . S
H1538 C1526 0.956 . S
H1539 C1526 0.961 . S
H1540 C1526 0.961 . S
H1541 C1527 0.958 . S
H1542 C1527 0.961 . S
H1543 C1527 0.960 . S
C1544 C1545 1.391 . S
C1544 C1546 1.394 . S
C1544 H1560 0.931 . S
C1545 C1544 1.391 . S
C1545 C1549 1.376 . S
C1546 C1544 1.394 . S
C1546 C1547 1.369 . S
C1546 C1550 1.531 . S
C1547 C1546 1.369 . S
C1547 C1548 1.410 . S
C1547 C1555 1.503 . S
C1548 C1547 1.410 . S
C1548 C1549 1.392 . S
C1548 C1551 1.511 . S
C1549 C1545 1.376 . S
C1549 C1548 1.392 . S
C1549 H1561 0.929 . S
C1550 C1546 1.531 . S
C1550 H1562 0.960 . S
C1550 H1563 0.962 . S
C1550 H1564 0.960 . S
C1551 C1548 1.511 . S
C1551 H1565 0.961 . S
C1551 H1566 0.961 . S
C1551 H1567 0.961 . S
C1552 C1553 1.370 . S
C1552 C1554 1.363 . S
C1552 H1568 0.931 . S
C1553 C1552 1.370 . S
C1553 C1557 1.408 . S
C1554 C1552 1.363 . S
C1554 C1555 1.370 . S
C1554 C1558 1.524 . S
C1555 C1547 1.503 . S
C1555 C1554 1.370 . S
C1555 C1556 1.403 . S
C1556 C1555 1.403 . S
C1556 C1557 1.404 . S
C1556 C1559 1.539 . S
C1557 C1553 1.408 . S
C1557 C1556 1.404 . S
C1557 H1569 0.930 . S
C1558 C1554 1.524 . S
C1558 H1570 0.956 . S
C1558 H1571 0.961 . S
C1558 H1572 0.961 . S
C1559 C1556 1.539 . S
C1559 H1573 0.958 . S
C1559 H1574 0.961 . S
C1559 H1575 0.960 . S
H1560 C1544 0.931 . S
H1561 C1549 0.929 . S
H1562 C1550 0.960 . S
H1563 C1550 0.962 . S
H1564 C1550 0.960 . S
H1565 C1551 0.961 . S
H1566 C1551 0.961 . S
H1567 C1551 0.961 . S
H1568 C1552 0.931 . S
H1569 C1557 0.930 . S
H1570 C1558 0.956 . S
H1571 C1558 0.961 . S
H1572 C1558 0.961 . S
H1573 C1559 0.958 . S
H1574 C1559 0.961 . S
H1575 C1559 0.960 . S
C1576 C1577 1.391 . S
C1576 C1578 1.394 . S
C1576 H1592 0.931 . S
C1577 C1576 1.391 . S
C1577 C1581 1.376 . S
C1578 C1576 1.394 . S
C1578 C1579 1.369 . S
C1578 C1582 1.531 . S
C1579 C1578 1.369 . S
C1579 C1580 1.410 . S
C1579 C1587 1.503 . S
C1580 C1579 1.410 . S
C1580 C1581 1.392 . S
C1580 C1583 1.511 . S
C1581 C1577 1.376 . S
C1581 C1580 1.392 . S
C1581 H1593 0.929 . S
C1582 C1578 1.531 . S
C1582 H1594 0.960 . S
C1582 H1595 0.962 . S
C1582 H1596 0.960 . S
C1583 C1580 1.511 . S
C1583 H1597 0.961 . S
C1583 H1598 0.961 . S
C1583 H1599 0.961 . S
C1584 C1585 1.370 . S
C1584 C1586 1.363 . S
C1584 H1600 0.931 . S
C1585 C1584 1.370 . S
C1585 C1589 1.408 . S
C1586 C1584 1.363 . S
C1586 C1587 1.370 . S
C1586 C1590 1.524 . S
C1587 C1579 1.503 . S
C1587 C1586 1.370 . S
C1587 C1588 1.403 . S
C1588 C1587 1.403 . S
C1588 C1589 1.404 . S
C1588 C1591 1.539 . S
C1589 C1585 1.408 . S
C1589 C1588 1.404 . S
C1589 H1601 0.930 . S
C1590 C1586 1.524 . S
C1590 H1602 0.956 . S
C1590 H1603 0.961 . S
C1590 H1604 0.961 . S
C1591 C1588 1.539 . S
C1591 H1605 0.958 . S
C1591 H1606 0.961 . S
C1591 H1607 0.960 . S
H1592 C1576 0.931 . S
H1593 C1581 0.929 . S
H1594 C1582 0.960 . S
H1595 C1582 0.962 . S
H1596 C1582 0.960 . S
H1597 C1583 0.961 . S
H1598 C1583 0.961 . S
H1599 C1583 0.961 . S
H1600 C1584 0.931 . S
H1601 C1589 0.930 . S
H1602 C1590 0.956 . S
H1603 C1590 0.961 . S
H1604 C1590 0.961 . S
H1605 C1591 0.958 . S
H1606 C1591 0.961 . S
H1607 C1591 0.960 . S
C1608 C1609 1.391 . S
C1608 C1610 1.394 . S
C1608 H1624 0.931 1_545 S
C1609 C1608 1.391 . S
C1609 C1613 1.376 . S
C1610 C1608 1.394 . S
C1610 C1611 1.369 . S
C1610 C1614 1.531 1_545 S
C1611 C1610 1.369 . S
C1611 C1612 1.410 . S
C1611 C1619 1.503 . S
C1612 C1611 1.410 . S
C1612 C1613 1.392 . S
C1612 C1615 1.511 . S
C1613 C1609 1.376 . S
C1613 C1612 1.392 . S
C1613 H1625 0.929 . S
C1614 C1610 1.531 1_565 S
C1614 H1626 0.960 . S
C1614 H1627 0.962 . S
C1614 H1628 0.960 . S
C1615 C1612 1.511 . S
C1615 H1629 0.961 . S
C1615 H1630 0.961 . S
C1615 H1631 0.961 . S
C1616 C1617 1.370 . S
C1616 C1618 1.363 . S
C1616 H1632 0.931 . S
C1617 C1616 1.370 . S
C1617 C1621 1.408 . S
C1618 C1616 1.363 . S
C1618 C1619 1.370 . S
C1618 C1622 1.524 . S
C1619 C1611 1.503 . S
C1619 C1618 1.370 . S
C1619 C1620 1.403 . S
C1620 C1619 1.403 . S
C1620 C1621 1.404 . S
C1620 C1623 1.539 . S
C1621 C1617 1.408 . S
C1621 C1620 1.404 . S
C1621 H1633 0.930 . S
C1622 C1618 1.524 . S
C1622 H1634 0.956 . S
C1622 H1635 0.961 . S
C1622 H1636 0.961 . S
C1623 C1620 1.539 . S
C1623 H1637 0.958 1_545 S
C1623 H1638 0.961 . S
C1623 H1639 0.960 . S
H1624 C1608 0.931 1_565 S
H1625 C1613 0.929 . S
H1626 C1614 0.960 . S
H1627 C1614 0.962 . S
H1628 C1614 0.960 . S
H1629 C1615 0.961 . S
H1630 C1615 0.961 . S
H1631 C1615 0.961 . S
H1632 C1616 0.931 . S
H1633 C1621 0.930 . S
H1634 C1622 0.956 . S
H1635 C1622 0.961 . S
H1636 C1622 0.961 . S
H1637 C1623 0.958 1_565 S
H1638 C1623 0.961 . S
H1639 C1623 0.960 . S
C1640 C1641 1.391 . S
C1640 C1642 1.394 . S
C1640 H1656 0.931 . S
C1641 C1640 1.391 . S
C1641 C1645 1.376 . S
C1642 C1640 1.394 . S
C1642 C1643 1.369 . S
C1642 C1646 1.531 . S
C1643 C1642 1.369 . S
C1643 C1644 1.410 . S
C1643 C1651 1.503 . S
C1644 C1643 1.410 . S
C1644 C1645 1.392 . S
C1644 C1647 1.511 . S
C1645 C1641 1.376 . S
C1645 C1644 1.392 . S
C1645 H1657 0.929 . S
C1646 C1642 1.531 . S
C1646 H1658 0.960 . S
C1646 H1659 0.962 . S
C1646 H1660 0.960 . S
C1647 C1644 1.511 . S
C1647 H1661 0.961 . S
C1647 H1662 0.961 . S
C1647 H1663 0.961 . S
C1648 C1649 1.370 . S
C1648 C1650 1.363 . S
C1648 H1664 0.931 . S
C1649 C1648 1.370 . S
C1649 C1653 1.408 . S
C1650 C1648 1.363 . S
C1650 C1651 1.370 . S
C1650 C1654 1.524 . S
C1651 C1643 1.503 . S
C1651 C1650 1.370 . S
C1651 C1652 1.403 . S
C1652 C1651 1.403 . S
C1652 C1653 1.404 . S
C1652 C1655 1.539 . S
C1653 C1649 1.408 . S
C1653 C1652 1.404 . S
C1653 H1665 0.930 . S
C1654 C1650 1.524 . S
C1654 H1666 0.956 . S
C1654 H1667 0.961 . S
C1654 H1668 0.961 . S
C1655 C1652 1.539 . S
C1655 H1669 0.958 . S
C1655 H1670 0.961 . S
C1655 H1671 0.960 . S
H1656 C1640 0.931 . S
H1657 C1645 0.929 . S
H1658 C1646 0.960 . S
H1659 C1646 0.962 . S
H1660 C1646 0.960 . S
H1661 C1647 0.961 . S
H1662 C1647 0.961 . S
H1663 C1647 0.961 . S
H1664 C1648 0.931 . S
H1665 C1653 0.930 . S
H1666 C1654 0.956 . S
H1667 C1654 0.961 . S
H1668 C1654 0.961 . S
H1669 C1655 0.958 . S
H1670 C1655 0.961 . S
H1671 C1655 0.960 . S
C1672 C1673 1.391 . S
C1672 C1674 1.394 . S
C1672 H1688 0.931 . S
C1673 C1672 1.391 . S
C1673 C1677 1.376 . S
C1674 C1672 1.394 . S
C1674 C1675 1.369 . S
C1674 C1678 1.531 . S
C1675 C1674 1.369 . S
C1675 C1676 1.410 . S
C1675 C1683 1.503 . S
C1676 C1675 1.410 . S
C1676 C1677 1.392 . S
C1676 C1679 1.511 . S
C1677 C1673 1.376 . S
C1677 C1676 1.392 . S
C1677 H1689 0.929 . S
C1678 C1674 1.531 . S
C1678 H1690 0.960 . S
C1678 H1691 0.962 . S
C1678 H1692 0.960 . S
C1679 C1676 1.511 . S
C1679 H1693 0.961 . S
C1679 H1694 0.961 . S
C1679 H1695 0.961 . S
C1680 C1681 1.370 . S
C1680 C1682 1.363 . S
C1680 H1696 0.931 . S
C1681 C1680 1.370 . S
C1681 C1685 1.408 . S
C1682 C1680 1.363 . S
C1682 C1683 1.370 . S
C1682 C1686 1.524 . S
C1683 C1675 1.503 . S
C1683 C1682 1.370 . S
C1683 C1684 1.403 . S
C1684 C1683 1.403 . S
C1684 C1685 1.404 . S
C1684 C1687 1.539 . S
C1685 C1681 1.408 . S
C1685 C1684 1.404 . S
C1685 H1697 0.930 . S
C1686 C1682 1.524 . S
C1686 H1698 0.956 . S
C1686 H1699 0.961 . S
C1686 H1700 0.961 . S
C1687 C1684 1.539 . S
C1687 H1701 0.958 . S
C1687 H1702 0.961 . S
C1687 H1703 0.960 . S
H1688 C1672 0.931 . S
H1689 C1677 0.929 . S
H1690 C1678 0.960 . S
H1691 C1678 0.962 . S
H1692 C1678 0.960 . S
H1693 C1679 0.961 . S
H1694 C1679 0.961 . S
H1695 C1679 0.961 . S
H1696 C1680 0.931 . S
H1697 C1685 0.930 . S
H1698 C1686 0.956 . S
H1699 C1686 0.961 . S
H1700 C1686 0.961 . S
H1701 C1687 0.958 . S
H1702 C1687 0.961 . S
H1703 C1687 0.960 . S
C1704 C1705 1.391 . S
C1704 C1706 1.394 . S
C1704 H1720 0.931 . S
C1705 C1704 1.391 . S
C1705 C1709 1.376 . S
C1706 C1704 1.394 . S
C1706 C1707 1.369 . S
C1706 C1710 1.531 . S
C1707 C1706 1.369 . S
C1707 C1708 1.410 . S
C1707 C1715 1.503 . S
C1708 C1707 1.410 . S
C1708 C1709 1.392 . S
C1708 C1711 1.511 . S
C1709 C1705 1.376 . S
C1709 C1708 1.392 . S
C1709 H1721 0.929 . S
C1710 C1706 1.531 . S
C1710 H1722 0.960 . S
C1710 H1723 0.962 . S
C1710 H1724 0.960 . S
C1711 C1708 1.511 . S
C1711 H1725 0.961 . S
C1711 H1726 0.961 . S
C1711 H1727 0.961 . S
C1712 C1713 1.370 . S
C1712 C1714 1.363 . S
C1712 H1728 0.931 . S
C1713 C1712 1.370 . S
C1713 C1717 1.408 . S
C1714 C1712 1.363 . S
C1714 C1715 1.370 . S
C1714 C1718 1.524 . S
C1715 C1707 1.503 . S
C1715 C1714 1.370 . S
C1715 C1716 1.403 . S
C1716 C1715 1.403 . S
C1716 C1717 1.404 . S
C1716 C1719 1.539 . S
C1717 C1713 1.408 . S
C1717 C1716 1.404 . S
C1717 H1729 0.930 . S
C1718 C1714 1.524 . S
C1718 H1730 0.956 . S
C1718 H1731 0.961 . S
C1718 H1732 0.961 . S
C1719 C1716 1.539 . S
C1719 H1733 0.958 . S
C1719 H1734 0.961 . S
C1719 H1735 0.960 . S
H1720 C1704 0.931 . S
H1721 C1709 0.929 . S
H1722 C1710 0.960 . S
H1723 C1710 0.962 . S
H1724 C1710 0.960 . S
H1725 C1711 0.961 . S
H1726 C1711 0.961 . S
H1727 C1711 0.961 . S
H1728 C1712 0.931 . S
H1729 C1717 0.930 . S
H1730 C1718 0.956 . S
H1731 C1718 0.961 . S
H1732 C1718 0.961 . S
H1733 C1719 0.958 . S
H1734 C1719 0.961 . S
H1735 C1719 0.960 . S
C1736 C1737 1.391 . S
C1736 C1738 1.394 . S
C1736 H1752 0.931 . S
C1737 C1736 1.391 . S
C1737 C1741 1.376 . S
C1738 C1736 1.394 . S
C1738 C1739 1.369 . S
C1738 C1742 1.531 . S
C1739 C1738 1.369 . S
C1739 C1740 1.410 . S
C1739 C1747 1.503 . S
C1740 C1739 1.410 . S
C1740 C1741 1.392 . S
C1740 C1743 1.511 1_655 S
C1741 C1737 1.376 . S
C1741 C1740 1.392 . S
C1741 H1753 0.941 . S
C1742 C1738 1.531 . S
C1742 H1754 0.960 . S
C1742 H1755 0.962 . S
C1742 H1756 0.960 . S
C1743 C1740 1.511 1_455 S
C1743 H1757 0.961 . S
C1743 H1758 0.961 . S
C1743 H1759 0.961 . S
C1744 C1745 1.370 . S
C1744 C1746 1.363 . S
C1744 H1760 0.931 . S
C1745 C1744 1.370 . S
C1745 C1749 1.408 . S
C1746 C1744 1.363 . S
C1746 C1747 1.370 . S
C1746 C1750 1.524 . S
C1747 C1739 1.503 . S
C1747 C1746 1.370 . S
C1747 C1748 1.403 . S
C1748 C1747 1.403 . S
C1748 C1749 1.404 . S
C1748 C1751 1.539 . S
C1749 C1745 1.408 . S
C1749 C1748 1.404 . S
C1749 H1761 0.930 . S
C1750 C1746 1.524 . S
C1750 H1762 0.956 . S
C1750 H1763 0.961 . S
C1750 H1764 0.961 . S
C1751 C1748 1.539 . S
C1751 H1765 0.958 . S
C1751 H1766 0.961 . S
C1751 H1767 0.960 . S
H1752 C1736 0.931 . S
H1753 C1741 0.941 . S
H1754 C1742 0.960 . S
H1755 C1742 0.962 . S
H1756 C1742 0.960 . S
H1757 C1743 0.961 . S
H1758 C1743 0.961 . S
H1759 C1743 0.961 . S
H1760 C1744 0.931 . S
H1761 C1749 0.930 . S
H1762 C1750 0.956 . S
H1763 C1750 0.961 . S
H1764 C1750 0.961 . S
H1765 C1751 0.958 . S
H1766 C1751 0.961 . S
H1767 C1751 0.960 . S
C1768 C1769 1.391 . S
C1768 C1770 1.394 . S
C1768 H1784 0.931 . S
C1769 C1768 1.391 . S
C1769 C1773 1.376 . S
C1770 C1768 1.394 . S
C1770 C1771 1.369 . S
C1770 C1774 1.531 . S
C1771 C1770 1.369 . S
C1771 C1772 1.410 . S
C1771 C1779 1.503 . S
C1772 C1771 1.410 . S
C1772 C1773 1.392 . S
C1772 C1775 1.511 . S
C1773 C1769 1.376 . S
C1773 C1772 1.392 . S
C1773 H1785 0.929 . S
C1774 C1770 1.531 . S
C1774 H1786 0.960 . S
C1774 H1787 0.962 . S
C1774 H1788 0.960 . S
C1775 C1772 1.511 . S
C1775 H1789 0.961 . S
C1775 H1790 0.961 . S
C1775 H1791 0.961 . S
C1776 C1777 1.370 . S
C1776 C1778 1.363 . S
C1776 H1792 0.931 . S
C1777 C1776 1.370 . S
C1777 C1781 1.408 . S
C1778 C1776 1.363 . S
C1778 C1779 1.370 . S
C1778 C1782 1.524 . S
C1779 C1771 1.503 . S
C1779 C1778 1.370 . S
C1779 C1780 1.403 . S
C1780 C1779 1.403 . S
C1780 C1781 1.404 . S
C1780 C1783 1.539 . S
C1781 C1777 1.408 . S
C1781 C1780 1.404 . S
C1781 H1793 0.930 . S
C1782 C1778 1.524 . S
C1782 H1794 0.956 . S
C1782 H1795 0.961 . S
C1782 H1796 0.961 . S
C1783 C1780 1.539 . S
C1783 H1797 0.958 . S
C1783 H1798 0.961 . S
C1783 H1799 0.960 . S
H1784 C1768 0.931 . S
H1785 C1773 0.929 . S
H1786 C1774 0.960 . S
H1787 C1774 0.962 . S
H1788 C1774 0.960 . S
H1789 C1775 0.961 . S
H1790 C1775 0.961 . S
H1791 C1775 0.961 . S
H1792 C1776 0.931 . S
H1793 C1781 0.930 . S
H1794 C1782 0.956 . S
H1795 C1782 0.961 . S
H1796 C1782 0.961 . S
H1797 C1783 0.958 . S
H1798 C1783 0.961 . S
H1799 C1783 0.960 . S
C1800 C1801 1.391 1_554 S
C1800 C1802 1.394 1_554 S
C1800 H1816 0.931 . S
C1801 C1800 1.391 1_556 S
C1801 C1805 1.376 . S
C1802 C1800 1.394 1_556 S
C1802 C1803 1.369 . S
C1802 C1806 1.535 . S
C1803 C1802 1.369 . S
C1803 C1804 1.410 . S
C1803 C1811 1.503 . S
C1804 C1803 1.410 . S
C1804 C1805 1.392 . S
C1804 C1807 1.511 . S
C1805 C1801 1.376 . S
C1805 C1804 1.392 . S
C1805 H1817 0.929 . S
C1806 C1802 1.535 . S
C1806 H1818 0.965 . S
C1806 H1819 0.965 1_455 S
C1806 H1820 0.949 1_556 S
C1807 C1804 1.511 . S
C1807 H1821 0.961 . S
C1807 H1822 0.961 . S
C1807 H1823 0.961 . S
C1808 C1809 1.370 . S
C1808 C1810 1.363 . S
C1808 H1824 0.931 1_455 S
C1809 C1808 1.370 . S
C1809 C1813 1.408 . S
C1810 C1808 1.363 . S
C1810 C1811 1.370 . S
C1810 C1814 1.524 1_455 S
C1811 C1803 1.503 . S
C1811 C1810 1.370 . S
C1811 C1812 1.403 . S
C1812 C1811 1.403 . S
C1812 C1813 1.404 . S
C1812 C1815 1.539 . S
C1813 C1809 1.408 . S
C1813 C1812 1.404 . S
C1813 H1825 0.930 . S
C1814 C1810 1.524 1_655 S
C1814 H1826 0.956 . S
C1814 H1827 0.961 . S
C1814 H1828 0.961 . S
C1815 C1812 1.539 . S
C1815 H1829 0.958 . S
C1815 H1830 0.961 . S
C1815 H1831 0.960 . S
H1816 C1800 0.931 . S
H1817 C1805 0.929 . S
H1818 C1806 0.965 . S
H1819 C1806 0.965 1_655 S
H1820 C1806 0.949 1_554 S
H1821 C1807 0.961 . S
H1822 C1807 0.961 . S
H1823 C1807 0.961 . S
H1824 C1808 0.931 1_655 S
H1825 C1813 0.930 . S
H1826 C1814 0.956 . S
H1827 C1814 0.961 . S
H1828 C1814 0.961 . S
H1829 C1815 0.958 . S
H1830 C1815 0.961 . S
H1831 C1815 0.960 . S
C1832 C1833 1.391 . S
C1832 C1834 1.394 . S
C1832 H1848 0.931 . S
C1833 C1832 1.391 . S
C1833 C1837 1.376 . S
C1834 C1832 1.394 . S
C1834 C1835 1.369 . S
C1834 C1838 1.531 . S
C1835 C1834 1.369 . S
C1835 C1836 1.410 . S
C1835 C1843 1.503 . S
C1836 C1835 1.410 . S
C1836 C1837 1.392 . S
C1836 C1839 1.511 . S
C1837 C1833 1.376 . S
C1837 C1836 1.392 . S
C1837 H1849 0.929 . S
C1838 C1834 1.531 . S
C1838 H1850 0.960 . S
C1838 H1851 0.962 . S
C1838 H1852 0.960 . S
C1839 C1836 1.511 . S
C1839 H1853 0.961 . S
C1839 H1854 0.961 . S
C1839 H1855 0.961 . S
C1840 C1841 1.370 . S
C1840 C1842 1.363 . S
C1840 H1856 0.931 . S
C1841 C1840 1.370 . S
C1841 C1845 1.408 . S
C1842 C1840 1.363 . S
C1842 C1843 1.370 . S
C1842 C1846 1.524 . S
C1843 C1835 1.503 . S
C1843 C1842 1.370 . S
C1843 C1844 1.403 . S
C1844 C1843 1.403 . S
C1844 C1845 1.404 . S
C1844 C1847 1.539 . S
C1845 C1841 1.408 . S
C1845 C1844 1.404 . S
C1845 H1857 0.930 . S
C1846 C1842 1.524 . S
C1846 H1858 0.956 . S
C1846 H1859 0.961 . S
C1846 H1860 0.961 . S
C1847 C1844 1.539 . S
C1847 H1861 0.958 . S
C1847 H1862 0.961 . S
C1847 H1863 0.960 . S
H1848 C1832 0.931 . S
H1849 C1837 0.929 . S
H1850 C1838 0.960 . S
H1851 C1838 0.962 . S
H1852 C1838 0.960 . S
H1853 C1839 0.961 . S
H1854 C1839 0.961 . S
H1855 C1839 0.961 . S
H1856 C1840 0.931 . S
H1857 C1845 0.930 . S
H1858 C1846 0.956 . S
H1859 C1846 0.961 . S
H1860 C1846 0.961 . S
H1861 C1847 0.958 . S
H1862 C1847 0.961 . S
H1863 C1847 0.960 . S
C1864 C1865 1.391 . S
C1864 C1866 1.394 . S
C1864 H1880 0.931 . S
C1865 C1864 1.391 . S
C1865 C1869 1.376 . S
C1866 C1864 1.394 . S
C1866 C1867 1.369 . S
C1866 C1870 1.531 . S
C1867 C1866 1.369 . S
C1867 C1868 1.410 . S
C1867 C1875 1.503 . S
C1868 C1867 1.410 . S
C1868 C1869 1.392 . S
C1868 C1871 1.511 . S
C1869 C1865 1.376 . S
C1869 C1868 1.392 . S
C1869 H1881 0.929 . S
C1870 C1866 1.531 . S
C1870 H1882 0.960 . S
C1870 H1883 0.962 . S
C1870 H1884 0.960 . S
C1871 C1868 1.511 . S
C1871 H1885 0.961 . S
C1871 H1886 0.961 . S
C1871 H1887 0.961 . S
C1872 C1873 1.370 . S
C1872 C1874 1.363 . S
C1872 H1888 0.931 . S
C1873 C1872 1.370 . S
C1873 C1877 1.408 . S
C1874 C1872 1.363 . S
C1874 C1875 1.370 . S
C1874 C1878 1.524 . S
C1875 C1867 1.503 . S
C1875 C1874 1.370 . S
C1875 C1876 1.403 . S
C1876 C1875 1.403 . S
C1876 C1877 1.404 . S
C1876 C1879 1.539 . S
C1877 C1873 1.408 . S
C1877 C1876 1.404 . S
C1877 H1889 0.930 . S
C1878 C1874 1.524 . S
C1878 H1890 0.956 . S
C1878 H1891 0.961 . S
C1878 H1892 0.961 . S
C1879 C1876 1.539 . S
C1879 H1893 0.958 . S
C1879 H1894 0.961 . S
C1879 H1895 0.960 . S
H1880 C1864 0.931 . S
H1881 C1869 0.929 . S
H1882 C1870 0.960 . S
H1883 C1870 0.962 . S
H1884 C1870 0.960 . S
H1885 C1871 0.961 . S
H1886 C1871 0.961 . S
H1887 C1871 0.961 . S
H1888 C1872 0.931 . S
H1889 C1877 0.930 . S
H1890 C1878 0.956 . S
H1891 C1878 0.961 . S
H1892 C1878 0.961 . S
H1893 C1879 0.958 . S
H1894 C1879 0.961 . S
H1895 C1879 0.960 . S
C1896 C1897 1.391 . S
C1896 C1898 1.394 . S
C1896 H1912 0.931 . S
C1897 C1896 1.391 . S
C1897 C1901 1.376 . S
C1898 C1896 1.394 . S
C1898 C1899 1.369 . S
C1898 C1902 1.531 . S
C1899 C1898 1.369 . S
C1899 C1900 1.410 . S
C1899 C1907 1.503 . S
C1900 C1899 1.410 . S
C1900 C1901 1.392 . S
C1900 C1903 1.511 . S
C1901 C1897 1.376 . S
C1901 C1900 1.392 . S
C1901 H1913 0.929 . S
C1902 C1898 1.531 . S
C1902 H1914 0.960 . S
C1902 H1915 0.962 . S
C1902 H1916 0.960 . S
C1903 C1900 1.511 . S
C1903 H1917 0.961 . S
C1903 H1918 0.961 . S
C1903 H1919 0.961 . S
C1904 C1905 1.370 . S
C1904 C1906 1.363 . S
C1904 H1920 0.931 . S
C1905 C1904 1.370 . S
C1905 C1909 1.408 . S
C1906 C1904 1.363 . S
C1906 C1907 1.370 . S
C1906 C1910 1.524 . S
C1907 C1899 1.503 . S
C1907 C1906 1.370 . S
C1907 C1908 1.403 . S
C1908 C1907 1.403 . S
C1908 C1909 1.404 . S
C1908 C1911 1.539 . S
C1909 C1905 1.408 . S
C1909 C1908 1.404 . S
C1909 H1921 0.930 . S
C1910 C1906 1.524 . S
C1910 H1922 0.956 . S
C1910 H1923 0.961 . S
C1910 H1924 0.961 . S
C1911 C1908 1.539 . S
C1911 H1925 0.958 . S
C1911 H1926 0.961 . S
C1911 H1927 0.960 . S
H1912 C1896 0.931 . S
H1913 C1901 0.929 . S
H1914 C1902 0.960 . S
H1915 C1902 0.962 . S
H1916 C1902 0.960 . S
H1917 C1903 0.961 . S
H1918 C1903 0.961 . S
H1919 C1903 0.961 . S
H1920 C1904 0.931 . S
H1921 C1909 0.930 . S
H1922 C1910 0.956 . S
H1923 C1910 0.961 . S
H1924 C1910 0.961 . S
H1925 C1911 0.958 . S
H1926 C1911 0.961 . S
H1927 C1911 0.960 . S
C1928 C1929 1.391 . S
C1928 C1930 1.394 . S
C1928 H1944 0.931 . S
C1929 C1928 1.391 . S
C1929 C1933 1.376 . S
C1930 C1928 1.394 . S
C1930 C1931 1.369 . S
C1930 C1934 1.531 . S
C1931 C1930 1.369 . S
C1931 C1932 1.410 . S
C1931 C1939 1.503 . S
C1932 C1931 1.410 . S
C1932 C1933 1.392 . S
C1932 C1935 1.511 . S
C1933 C1929 1.376 . S
C1933 C1932 1.392 . S
C1933 H1945 0.929 . S
C1934 C1930 1.531 . S
C1934 H1946 0.960 . S
C1934 H1947 0.962 . S
C1934 H1948 0.960 . S
C1935 C1932 1.511 . S
C1935 H1949 0.961 . S
C1935 H1950 0.961 . S
C1935 H1951 0.961 . S
C1936 C1937 1.370 . S
C1936 C1938 1.363 . S
C1936 H1952 0.931 . S
C1937 C1936 1.370 . S
C1937 C1941 1.408 . S
C1938 C1936 1.363 . S
C1938 C1939 1.370 . S
C1938 C1942 1.524 . S
C1939 C1931 1.503 . S
C1939 C1938 1.370 . S
C1939 C1940 1.403 . S
C1940 C1939 1.403 . S
C1940 C1941 1.404 . S
C1940 C1943 1.539 . S
C1941 C1937 1.408 . S
C1941 C1940 1.404 . S
C1941 H1953 0.930 . S
C1942 C1938 1.524 . S
C1942 H1954 0.956 . S
C1942 H1955 0.961 . S
C1942 H1956 0.961 . S
C1943 C1940 1.539 . S
C1943 H1957 0.958 . S
C1943 H1958 0.961 . S
C1943 H1959 0.960 . S
H1944 C1928 0.931 . S
H1945 C1933 0.929 . S
H1946 C1934 0.960 . S
H1947 C1934 0.962 . S
H1948 C1934 0.960 . S
H1949 C1935 0.961 . S
H1950 C1935 0.961 . S
H1951 C1935 0.961 . S
H1952 C1936 0.931 . S
H1953 C1941 0.930 . S
H1954 C1942 0.956 . S
H1955 C1942 0.961 . S
H1956 C1942 0.961 . S
H1957 C1943 0.958 . S
H1958 C1943 0.961 . S
H1959 C1943 0.960 . S
C1960 C1961 1.391 . S
C1960 C1962 1.394 . S
C1960 H1976 0.931 . S
C1961 C1960 1.391 . S
C1961 C1965 1.376 . S
C1962 C1960 1.394 . S
C1962 C1963 1.369 . S
C1962 C1966 1.531 . S
C1963 C1962 1.369 . S
C1963 C1964 1.410 . S
C1963 C1971 1.503 . S
C1964 C1963 1.410 . S
C1964 C1965 1.392 . S
C1964 C1967 1.511 . S
C1965 C1961 1.376 . S
C1965 C1964 1.392 . S
C1965 H1977 0.929 . S
C1966 C1962 1.531 . S
C1966 H1978 0.960 . S
C1966 H1979 0.962 . S
C1966 H1980 0.960 . S
C1967 C1964 1.511 . S
C1967 H1981 0.961 . S
C1967 H1982 0.961 . S
C1967 H1983 0.961 . S
C1968 C1969 1.370 . S
C1968 C1970 1.363 . S
C1968 H1984 0.931 . S
C1969 C1968 1.370 . S
C1969 C1973 1.408 . S
C1970 C1968 1.363 . S
C1970 C1971 1.370 . S
C1970 C1974 1.524 . S
C1971 C1963 1.503 . S
C1971 C1970 1.370 . S
C1971 C1972 1.403 . S
C1972 C1971 1.403 . S
C1972 C1973 1.404 . S
C1972 C1975 1.539 . S
C1973 C1969 1.408 . S
C1973 C1972 1.404 . S
C1973 H1985 0.930 . S
C1974 C1970 1.524 . S
C1974 H1986 0.956 . S
C1974 H1987 0.961 . S
C1974 H1988 0.961 . S
C1975 C1972 1.539 . S
C1975 H1989 0.958 . S
C1975 H1990 0.961 . S
C1975 H1991 0.960 . S
H1976 C1960 0.931 . S
H1977 C1965 0.929 . S
H1978 C1966 0.960 . S
H1979 C1966 0.962 . S
H1980 C1966 0.960 . S
H1981 C1967 0.961 . S
H1982 C1967 0.961 . S
H1983 C1967 0.961 . S
H1984 C1968 0.931 . S
H1985 C1973 0.930 . S
H1986 C1974 0.956 . S
H1987 C1974 0.961 . S
H1988 C1974 0.961 . S
H1989 C1975 0.958 . S
H1990 C1975 0.961 . S
H1991 C1975 0.960 . S
C1992 C1993 1.391 . S
C1992 C1994 1.394 . S
C1992 H2008 0.931 . S
C1993 C1992 1.391 . S
C1993 C1997 1.376 . S
C1994 C1992 1.394 . S
C1994 C1995 1.369 . S
C1994 C1998 1.531 . S
C1995 C1994 1.369 . S
C1995 C1996 1.410 . S
C1995 C2003 1.503 . S
C1996 C1995 1.410 . S
C1996 C1997 1.392 . S
C1996 C1999 1.511 . S
C1997 C1993 1.376 . S
C1997 C1996 1.392 . S
C1997 H2009 0.929 . S
C1998 C1994 1.531 . S
C1998 H2010 0.960 . S
C1998 H2011 0.962 . S
C1998 H2012 0.960 . S
C1999 C1996 1.511 . S
C1999 H2013 0.961 . S
C1999 H2014 0.961 . S
C1999 H2015 0.961 . S
C2000 C2001 1.370 . S
C2000 C2002 1.363 . S
C2000 H2016 0.931 . S
C2001 C2000 1.370 . S
C2001 C2005 1.408 . S
C2002 C2000 1.363 . S
C2002 C2003 1.370 . S
C2002 C2006 1.524 . S
C2003 C1995 1.503 . S
C2003 C2002 1.370 . S
C2003 C2004 1.403 . S
C2004 C2003 1.403 . S
C2004 C2005 1.404 . S
C2004 C2007 1.539 . S
C2005 C2001 1.408 . S
C2005 C2004 1.404 . S
C2005 H2017 0.930 . S
C2006 C2002 1.524 . S
C2006 H2018 0.956 . S
C2006 H2019 0.961 . S
C2006 H2020 0.961 . S
C2007 C2004 1.539 . S
C2007 H2021 0.958 . S
C2007 H2022 0.961 . S
C2007 H2023 0.960 . S
H2008 C1992 0.931 . S
H2009 C1997 0.929 . S
H2010 C1998 0.960 . S
H2011 C1998 0.962 . S
H2012 C1998 0.960 . S
H2013 C1999 0.961 . S
H2014 C1999 0.961 . S
H2015 C1999 0.961 . S
H2016 C2000 0.931 . S
H2017 C2005 0.930 . S
H2018 C2006 0.956 . S
H2019 C2006 0.961 . S
H2020 C2006 0.961 . S
H2021 C2007 0.958 . S
H2022 C2007 0.961 . S
H2023 C2007 0.960 . S
C2024 C2025 1.391 . S
C2024 C2026 1.394 . S
C2024 H2040 0.931 . S
C2025 C2024 1.391 . S
C2025 C2029 1.376 . S
C2026 C2024 1.394 . S
C2026 C2027 1.369 . S
C2026 C2030 1.531 . S
C2027 C2026 1.369 . S
C2027 C2028 1.410 . S
C2027 C2035 1.503 . S
C2028 C2027 1.410 . S
C2028 C2029 1.392 . S
C2028 C2031 1.511 . S
C2029 C2025 1.376 . S
C2029 C2028 1.392 . S
C2029 H2041 0.929 . S
C2030 C2026 1.531 . S
C2030 H2042 0.960 . S
C2030 H2043 0.962 . S
C2030 H2044 0.960 . S
C2031 C2028 1.511 . S
C2031 H2045 0.961 . S
C2031 H2046 0.961 . S
C2031 H2047 0.961 . S
C2032 C2033 1.370 . S
C2032 C2034 1.363 . S
C2032 H2048 0.931 . S
C2033 C2032 1.370 . S
C2033 C2037 1.408 . S
C2034 C2032 1.363 . S
C2034 C2035 1.370 . S
C2034 C2038 1.524 . S
C2035 C2027 1.503 . S
C2035 C2034 1.370 . S
C2035 C2036 1.403 . S
C2036 C2035 1.403 . S
C2036 C2037 1.404 . S
C2036 C2039 1.539 . S
C2037 C2033 1.408 . S
C2037 C2036 1.404 . S
C2037 H2049 0.930 . S
C2038 C2034 1.524 . S
C2038 H2050 0.956 . S
C2038 H2051 0.961 . S
C2038 H2052 0.961 . S
C2039 C2036 1.539 . S
C2039 H2053 0.958 . S
C2039 H2054 0.961 . S
C2039 H2055 0.960 . S
H2040 C2024 0.931 . S
H2041 C2029 0.929 . S
H2042 C2030 0.960 . S
H2043 C2030 0.962 . S
H2044 C2030 0.960 . S
H2045 C2031 0.961 . S
H2046 C2031 0.961 . S
H2047 C2031 0.961 . S
H2048 C2032 0.931 . S
H2049 C2037 0.930 . S
H2050 C2038 0.956 . S
H2051 C2038 0.961 . S
H2052 C2038 0.961 . S
H2053 C2039 0.958 . S
H2054 C2039 0.961 . S
H2055 C2039 0.960 . S
C2056 C2057 1.391 . S
C2056 C2058 1.394 . S
C2056 H2072 0.931 . S
C2057 C2056 1.391 . S
C2057 C2061 1.376 . S
C2058 C2056 1.394 . S
C2058 C2059 1.369 . S
C2058 C2062 1.531 . S
C2059 C2058 1.369 . S
C2059 C2060 1.410 . S
C2059 C2067 1.503 . S
C2060 C2059 1.410 . S
C2060 C2061 1.392 . S
C2060 C2063 1.511 . S
C2061 C2057 1.376 . S
C2061 C2060 1.392 . S
C2061 H2073 0.929 . S
C2062 C2058 1.531 . S
C2062 H2074 0.960 . S
C2062 H2075 0.962 . S
C2062 H2076 0.960 . S
C2063 C2060 1.511 . S
C2063 H2077 0.961 . S
C2063 H2078 0.961 . S
C2063 H2079 0.961 . S
C2064 C2065 1.370 . S
C2064 C2066 1.363 . S
C2064 H2080 0.931 . S
C2065 C2064 1.370 . S
C2065 C2069 1.408 . S
C2066 C2064 1.363 . S
C2066 C2067 1.370 . S
C2066 C2070 1.524 . S
C2067 C2059 1.503 . S
C2067 C2066 1.370 . S
C2067 C2068 1.403 . S
C2068 C2067 1.403 . S
C2068 C2069 1.404 . S
C2068 C2071 1.539 . S
C2069 C2065 1.408 . S
C2069 C2068 1.404 . S
C2069 H2081 0.930 . S
C2070 C2066 1.524 . S
C2070 H2082 0.956 . S
C2070 H2083 0.961 . S
C2070 H2084 0.961 . S
C2071 C2068 1.539 . S
C2071 H2085 0.958 . S
C2071 H2086 0.961 . S
C2071 H2087 0.960 . S
H2072 C2056 0.931 . S
H2073 C2061 0.929 . S
H2074 C2062 0.960 . S
H2075 C2062 0.962 . S
H2076 C2062 0.960 . S
H2077 C2063 0.961 . S
H2078 C2063 0.961 . S
H2079 C2063 0.961 . S
H2080 C2064 0.931 . S
H2081 C2069 0.930 . S
H2082 C2070 0.956 . S
H2083 C2070 0.961 . S
H2084 C2070 0.961 . S
H2085 C2071 0.958 . S
H2086 C2071 0.961 . S
H2087 C2071 0.960 . S
C2088 C2089 1.391 . S
C2088 C2090 1.394 . S
C2088 H2104 0.931 1_556 S
C2089 C2088 1.391 . S
C2089 C2093 1.376 . S
C2090 C2088 1.394 . S
C2090 C2091 1.371 . S
C2090 C2094 1.528 1_556 S
C2091 C2090 1.371 . S
C2091 C2092 1.410 . S
C2091 C2099 1.503 . S
C2092 C2091 1.410 . S
C2092 C2093 1.392 . S
C2092 C2095 1.511 . S
C2093 C2089 1.376 . S
C2093 C2092 1.392 . S
C2093 H2105 0.929 . S
C2094 C2090 1.528 1_554 S
C2094 H2106 0.960 . S
C2094 H2107 0.962 . S
C2094 H2108 0.960 . S
C2095 C2092 1.511 . S
C2095 H2109 0.961 . S
C2095 H2110 0.961 . S
C2095 H2111 0.961 . S
C2096 C2097 1.370 . S
C2096 C2098 1.363 . S
C2096 H2112 0.931 . S
C2097 C2096 1.370 . S
C2097 C2101 1.408 1_556 S
C2098 C2096 1.363 . S
C2098 C2099 1.370 . S
C2098 C2102 1.524 . S
C2099 C2091 1.503 . S
C2099 C2098 1.370 . S
C2099 C2100 1.403 1_556 S
C2100 C2099 1.403 1_554 S
C2100 C2101 1.404 . S
C2100 C2103 1.539 . S
C2101 C2097 1.408 1_554 S
C2101 C2100 1.404 . S
C2101 H2113 0.930 . S
C2102 C2098 1.524 . S
C2102 H2114 0.956 . S
C2102 H2115 0.961 . S
C2102 H2116 0.961 . S
C2103 C2100 1.539 . S
C2103 H2117 0.958 . S
C2103 H2118 0.961 . S
C2103 H2119 0.960 1_554 S
H2104 C2088 0.931 1_554 S
H2105 C2093 0.929 . S
H2106 C2094 0.960 . S
H2107 C2094 0.962 . S
H2108 C2094 0.960 . S
H2109 C2095 0.961 . S
H2110 C2095 0.961 . S
H2111 C2095 0.961 . S
H2112 C2096 0.931 . S
H2113 C2101 0.930 . S
H2114 C2102 0.956 . S
H2115 C2102 0.961 . S
H2116 C2102 0.961 . S
H2117 C2103 0.958 . S
H2118 C2103 0.961 . S
H2119 C2103 0.960 1_556 S
C2120 C2121 1.391 . S
C2120 C2122 1.394 . S
C2120 H2136 0.931 . S
C2121 C2120 1.391 . S
C2121 C2125 1.376 . S
C2122 C2120 1.394 . S
C2122 C2123 1.369 . S
C2122 C2126 1.531 . S
C2123 C2122 1.369 . S
C2123 C2124 1.410 . S
C2123 C2131 1.503 . S
C2124 C2123 1.410 . S
C2124 C2125 1.392 . S
C2124 C2127 1.511 . S
C2125 C2121 1.376 . S
C2125 C2124 1.392 . S
C2125 H2137 0.929 . S
C2126 C2122 1.531 . S
C2126 H2138 0.960 . S
C2126 H2139 0.962 . S
C2126 H2140 0.960 . S
C2127 C2124 1.511 . S
C2127 H2141 0.961 . S
C2127 H2142 0.961 . S
C2127 H2143 0.961 . S
C2128 C2129 1.370 . S
C2128 C2130 1.363 . S
C2128 H2144 0.931 . S
C2129 C2128 1.370 . S
C2129 C2133 1.408 . S
C2130 C2128 1.363 . S
C2130 C2131 1.370 . S
C2130 C2134 1.524 . S
C2131 C2123 1.503 . S
C2131 C2130 1.370 . S
C2131 C2132 1.403 . S
C2132 C2131 1.403 . S
C2132 C2133 1.404 . S
C2132 C2135 1.539 . S
C2133 C2129 1.408 . S
C2133 C2132 1.404 . S
C2133 H2145 0.930 . S
C2134 C2130 1.524 . S
C2134 H2146 0.956 . S
C2134 H2147 0.961 . S
C2134 H2148 0.961 . S
C2135 C2132 1.539 . S
C2135 H2149 0.958 . S
C2135 H2150 0.961 . S
C2135 H2151 0.960 . S
H2136 C2120 0.931 . S
H2137 C2125 0.929 . S
H2138 C2126 0.960 . S
H2139 C2126 0.962 . S
H2140 C2126 0.960 . S
H2141 C2127 0.961 . S
H2142 C2127 0.961 . S
H2143 C2127 0.961 . S
H2144 C2128 0.931 . S
H2145 C2133 0.930 . S
H2146 C2134 0.956 . S
H2147 C2134 0.961 . S
H2148 C2134 0.961 . S
H2149 C2135 0.958 . S
H2150 C2135 0.961 . S
H2151 C2135 0.960 . S
C2152 C2153 1.391 . S
C2152 C2154 1.394 . S
C2152 H2168 0.931 . S
C2153 C2152 1.391 . S
C2153 C2157 1.376 . S
C2154 C2152 1.394 . S
C2154 C2155 1.369 . S
C2154 C2158 1.531 . S
C2155 C2154 1.369 . S
C2155 C2156 1.410 . S
C2155 C2163 1.503 . S
C2156 C2155 1.410 . S
C2156 C2157 1.392 . S
C2156 C2159 1.511 . S
C2157 C2153 1.376 . S
C2157 C2156 1.392 . S
C2157 H2169 0.929 . S
C2158 C2154 1.531 . S
C2158 H2170 0.960 . S
C2158 H2171 0.962 . S
C2158 H2172 0.960 . S
C2159 C2156 1.511 . S
C2159 H2173 0.961 . S
C2159 H2174 0.961 . S
C2159 H2175 0.961 . S
C2160 C2161 1.370 . S
C2160 C2162 1.363 . S
C2160 H2176 0.931 . S
C2161 C2160 1.370 . S
C2161 C2165 1.366 1_554 S
C2162 C2160 1.363 . S
C2162 C2163 1.370 . S
C2162 C2166 1.524 . S
C2163 C2155 1.503 . S
C2163 C2162 1.370 . S
C2163 C2164 1.403 . S
C2164 C2163 1.403 . S
C2164 C2165 1.398 1_554 S
C2164 C2167 1.539 1_554 S
C2165 C2161 1.366 1_556 S
C2165 C2164 1.398 1_556 S
C2165 H2177 0.978 . S
C2166 C2162 1.524 . S
C2166 H2178 0.956 . S
C2166 H2179 0.961 . S
C2166 H2180 0.961 . S
C2167 C2164 1.539 1_556 S
C2167 H2181 0.958 . S
C2167 H2182 0.961 . S
C2167 H2183 0.960 . S
H2168 C2152 0.931 . S
H2169 C2157 0.929 . S
H2170 C2158 0.960 . S
H2171 C2158 0.962 . S
H2172 C2158 0.960 . S
H2173 C2159 0.961 . S
H2174 C2159 0.961 . S
H2175 C2159 0.961 . S
H2176 C2160 0.931 . S
H2177 C2165 0.978 . S
H2178 C2166 0.956 . S
H2179 C2166 0.961 . S
H2180 C2166 0.961 . S
H2181 C2167 0.958 . S
H2182 C2167 0.961 . S
H2183 C2167 0.960 . S
C2184 C2185 1.391 . S
C2184 C2186 1.394 . S
C2184 H2200 0.931 1_565 S
C2185 C2184 1.391 . S
C2185 C2189 1.376 . S
C2186 C2184 1.394 . S
C2186 C2187 1.369 . S
C2186 C2190 1.531 . S
C2187 C2186 1.369 . S
C2187 C2188 1.410 . S
C2187 C2195 1.503 . S
C2188 C2187 1.410 . S
C2188 C2189 1.392 . S
C2188 C2191 1.511 . S
C2189 C2185 1.376 . S
C2189 C2188 1.392 . S
C2189 H2201 0.929 . S
C2190 C2186 1.531 . S
C2190 H2202 0.960 . S
C2190 H2203 0.962 . S
C2190 H2204 0.960 . S
C2191 C2188 1.511 . S
C2191 H2205 0.961 . S
C2191 H2206 0.961 . S
C2191 H2207 0.961 . S
C2192 C2193 1.370 . S
C2192 C2194 1.363 . S
C2192 H2208 0.931 1_554 S
C2193 C2192 1.370 . S
C2193 C2197 1.408 . S
C2194 C2192 1.363 . S
C2194 C2195 1.370 . S
C2194 C2198 1.524 1_554 S
C2195 C2187 1.503 . S
C2195 C2194 1.370 . S
C2195 C2196 1.403 . S
C2196 C2195 1.403 . S
C2196 C2197 1.404 . S
C2196 C2199 1.539 . S
C2197 C2193 1.408 . S
C2197 C2196 1.404 . S
C2197 H2209 0.930 . S
C2198 C2194 1.524 1_556 S
C2198 H2210 0.956 . S
C2198 H2211 0.961 . S
C2198 H2212 0.961 . S
C2199 C2196 1.539 . S
C2199 H2213 0.958 . S
C2199 H2214 0.961 . S
C2199 H2215 0.960 . S
H2200 C2184 0.931 1_545 S
H2201 C2189 0.929 . S
H2202 C2190 0.960 . S
H2203 C2190 0.962 . S
H2204 C2190 0.960 . S
H2205 C2191 0.961 . S
H2206 C2191 0.961 . S
H2207 C2191 0.961 . S
H2208 C2192 0.931 1_556 S
H2209 C2197 0.930 . S
H2210 C2198 0.956 . S
H2211 C2198 0.961 . S
H2212 C2198 0.961 . S
H2213 C2199 0.958 . S
H2214 C2199 0.961 . S
H2215 C2199 0.960 . S
C689 C520 1.466 . S
C681 C177 1.471 . S
C721 C533 1.505 . S
C713 C209 1.467 1_455 S
C745 C253 1.561 . S
C753 C553 1.482 . S
C785 C567 1.377 . S
C777 C157 1.431 1_655 S
C817 C579 1.525 . S
C809 C343 1.482 . S
C849 C593 1.420 . S
C841 C401 1.396 . S
C873 C369 1.489 . S
C881 C603 1.507 . S
C913 C618 1.506 . S
C905 C317 1.474 . S
C937 C375 1.514 . S
C945 C632 1.491 . S
C977 C651 1.385 . S
C969 C305 1.415 . S
C1001 C349 1.466 . S
C1009 C631 1.511 . S
C1041 C649 1.434 . S
C1033 C413 1.373 . S
C1065 C241 1.544 . S
C1073 C665 1.510 . S
C1097 C151 1.428 . S
C1105 C659 1.452 . S
C1129 C189 1.472 . S
C1137 C663 1.513 . S
C1161 C215 1.472 . S
C1169 C660 1.517 . S
C1193 C113 1.464 . S
C1201 C562 1.491 . S
C1225 C471 1.426 . S
C1233 C561 1.470 . S
C1265 C525 1.377 . S
C1257 C509 1.377 1_565 S
C1297 C539 1.530 . S
C1289 C279 1.557 . S
C1321 C145 1.479 1_545 S
C1329 C576 1.473 . S
C1361 C621 1.557 . S
C1353 C381 1.503 . S
C1393 C575 1.497 . S
C1385 C311 1.477 . S
C1425 C607 1.412 . S
C1417 C407 1.386 . S
C1457 C604 1.462 . S
C1449 C465 1.451 . S
C1481 C497 1.467 . S
C1489 C617 1.495 . S
C1513 C285 1.541 . S
C1521 C581 1.509 . S
C1553 C595 1.383 . S
C1545 C445 1.424 . S
C1577 C119 1.499 . S
C1585 C551 1.521 . S
C1617 C565 1.420 . S
C1609 C17 1.366 1_655 S
C1649 C519 1.498 . S
C1641 C49 1.481 . S
C1681 C534 1.494 . S
C1673 C93 1.477 1_455 S
C1705 C55 1.494 . S
C1713 C646 1.496 . S
C1737 C81 1.417 1_556 S
C1745 C637 1.381 . S
C1769 C125 1.461 . S
C1777 C645 1.505 . S
C1801 C29 1.364 1_556 S
C1809 C635 1.431 . S
C1841 C679 1.516 . S
C1833 C273 1.585 . S
C1873 C673 1.455 . S
C1865 C439 1.423 . S
C1905 C677 1.513 . S
C1897 C477 1.471 . S
C1929 C503 1.496 1_554 S
C1937 C674 1.504 . S
C1961 C337 1.503 . S
C1969 C590 1.472 . S
C2001 C589 1.460 . S
C1993 C183 1.461 . S
C2033 C609 1.378 . S
C2025 C221 1.426 . S
C2065 C623 1.537 . S
C2057 C247 1.578 . S
C2089 C433 1.472 . S
C2097 C548 1.468 . S
C2129 C537 1.557 . S
C2121 C61 1.501 . S
C2153 C87 1.442 . S
C2161 C547 1.487 . S
C2193 C523 1.411 . S
C2185 C23 1.374 1_565 S
