# Generated by pormake.
# Topology rtl, (3,6)-cn, num edge types: 1
# Building blocks:
#     Node 0, Type 0, BuildingBlock: ESEHIV_clean_linker_0, # of connection points: 3
#     Node 1, Type 0, BuildingBlock: ESEHIV_clean_linker_0, # of connection points: 3
#     Node 2, Type 0, BuildingBlock: ESEHIV_clean_linker_0, # of connection points: 3
#     Node 3, Type 0, BuildingBlock: ESEHIV_clean_linker_0, # of connection points: 3
#     Node 4, Type 1, BuildingBlock: KUMBOL_clean_sbu_1, # of connection points: 6
#     Node 5, Type 1, BuildingBlock: KUMBOL_clean_sbu_1, # of connection points: 6
#     Edge 6, Type (0, 1), BuildingBlock: CIFDUS_clean_linker_0, # of connection points: 2
#     Edge 7, Type (0, 1), BuildingBlock: CIFDUS_clean_linker_0, # of connection points: 2
#     Edge 8, Type (0, 1), BuildingBlock: CIFDUS_clean_linker_0, # of connection points: 2
#     Edge 9, Type (0, 1), BuildingBlock: CIFDUS_clean_linker_0, # of connection points: 2
#     Edge 10, Type (0, 1), BuildingBlock: CIFDUS_clean_linker_0, # of connection points: 2
#     Edge 11, Type (0, 1), BuildingBlock: CIFDUS_clean_linker_0, # of connection points: 2
#     Edge 12, Type (0, 1), BuildingBlock: CIFDUS_clean_linker_0, # of connection points: 2
#     Edge 13, Type (0, 1), BuildingBlock: CIFDUS_clean_linker_0, # of connection points: 2
#     Edge 14, Type (0, 1), BuildingBlock: CIFDUS_clean_linker_0, # of connection points: 2
#     Edge 15, Type (0, 1), BuildingBlock: CIFDUS_clean_linker_0, # of connection points: 2
#     Edge 16, Type (0, 1), BuildingBlock: CIFDUS_clean_linker_0, # of connection points: 2
#     Edge 17, Type (0, 1), BuildingBlock: CIFDUS_clean_linker_0, # of connection points: 2
# Relax obj value: 0.018
# Max RMSD: 0.128
# Mean RMSD: 0.076
data_MOF--net-rtl--node1-KUMBOL_clean_sbu_1--node2-ESEHIV_clean_linker_0--edge1-CIFDUS_clean_linker_0
_symmetry_space_group_name_H-M    P1
_symmetry_Int_Tables_number       1
_symmetry_cell_setting            triclinic
loop_
_symmetry_equiv_pos_as_xyz
'x, y, z'
_cell_length_a     26.824919
_cell_length_b     27.671151
_cell_length_c     24.794211
_cell_angle_alpha  75.754149
_cell_angle_beta   99.547481
_cell_angle_gamma 91.036083
loop_
_atom_site_label
_atom_site_type_symbol
_atom_site_fract_x
_atom_site_fract_y
_atom_site_fract_z
_atom_type_partial_charge
H0 H 0.12237 0.87584 0.01478 0.0
H1 H 0.24919 0.7813 0.10991 0.0
H2 H 0.21132 0.79926 0.93096 0.0
C3 C 0.15372 0.85098 0.01672 0.0
C4 C 0.16268 0.8388 0.96714 0.0
C5 C 0.18541 0.8308 0.06868 0.0
C6 C 0.22584 0.79855 0.06994 0.0
C7 C 0.23563 0.78698 0.02065 0.0
C8 C 0.20374 0.80725 0.96955 0.0
H9 H 0.62986 0.6246 0.667 0.0
H10 H 0.72008 0.72136 0.56028 0.0
H11 H 0.71675 0.73781 0.72817 0.0
C12 C 0.65563 0.65531 0.66038 0.0
C13 C 0.67051 0.67996 0.70346 0.0
C14 C 0.67349 0.66975 0.60878 0.0
C15 C 0.70671 0.70975 0.6003 0.0
C16 C 0.7229 0.73458 0.64322 0.0
C17 C 0.70456 0.71921 0.69473 0.0
H18 H 0.88904 0.14643 0.09495 0.0
H19 H 0.80409 0.22084 0.18366 0.0
H20 H 0.77569 0.25712 1.00152 0.0
C21 C 0.85973 0.17321 0.09413 0.0
C22 C 0.83382 0.20123 0.04232 0.0
C23 C 0.84846 0.17991 0.14491 0.0
C24 C 0.81115 0.21491 0.14395 0.0
C25 C 0.78422 0.24313 0.09263 0.0
C26 C 0.79619 0.23625 0.04166 0.0
H27 H 0.35178 0.4 0.41646 0.0
H28 H 0.24359 0.31948 0.51181 0.0
H29 H 0.25688 0.29507 0.34942 0.0
C30 C 0.322 0.37301 0.42094 0.0
C31 C 0.30538 0.35009 0.3769 0.0
C32 C 0.30029 0.36169 0.47015 0.0
C33 C 0.26192 0.32648 0.47497 0.0
C34 C 0.24657 0.30083 0.43271 0.0
C35 C 0.26804 0.31377 0.38297 0.0
C36 C 0.91637 0.14888 0.48525 0.0
C37 C 0.8304 0.13316 0.44563 0.0
C38 C 0.87534 0.11775 0.48424 0.0
C39 C 0.8285 0.17908 0.40546 0.0
C40 C 0.91334 0.19645 0.44742 0.0
C41 C 0.86996 0.21061 0.40624 0.0
N42 N 0.95726 0.13449 0.52647 0.0
C43 C 0.99271 0.1686 0.53697 0.0
C44 C 0.95285 0.22933 0.45397 0.0
C45 C 0.99206 0.21578 0.49984 0.0
Gd46 Gd 0.04847 0.96438 0.52737 0.0
Gd47 Gd 0.95652 0.05189 0.58206 0.0
N48 N 0.87855 0.07324 0.52298 0.0
C49 C 0.7884 0.10241 0.44948 0.0
C50 C 0.83713 0.04429 0.52906 0.0
C51 C 0.79155 0.05817 0.492 0.0
H52 H 0.83983 0.01002 0.5618 0.0
H53 H 0.75901 0.03466 0.49603 0.0
H54 H 0.14383 0.04153 0.49283 0.0
H55 H 0.02168 0.15975 0.574 0.0
H56 H 0.23031 0.05727 0.53558 0.0
H57 H 0.75314 0.11297 0.42065 0.0
H58 H 0.79464 0.1912 0.37472 0.0
H59 H 0.0237 0.84771 0.58976 0.0
H60 H 0.95203 0.26617 0.42574 0.0
H61 H 0.02137 0.24193 0.50719 0.0
H62 H 0.26877 0.91957 0.69828 0.0
H63 H 0.8673 0.2467 0.37628 0.0
H64 H 0.14738 0.78974 0.72249 0.0
H65 H 0.06298 0.77906 0.66923 0.0
N66 N 0.08496 0.89625 0.59895 0.0
C67 C 0.13226 0.9019 0.62567 0.0
C68 C 0.06063 0.85228 0.61272 0.0
C69 C 0.13041 0.81971 0.68759 0.0
C70 C 0.08277 0.81352 0.6576 0.0
C71 C 0.15609 0.86407 0.67129 0.0
H72 H 0.22373 0.84302 0.73387 0.0
N73 N 0.13368 0.97939 0.56006 0.0
C74 C 0.15718 0.94517 0.60602 0.0
C75 C 0.23311 0.99343 0.60638 0.0
C76 C 0.20728 0.95154 0.63096 0.0
C77 C 0.16038 0.01759 0.53294 0.0
C78 C 0.2099 0.02602 0.55643 0.0
O79 O 0.92981 0.02604 0.50241 0.0
O80 O 0.00389 0.02989 0.46903 0.0
O81 O 0.09473 0.95037 0.46878 0.0
O82 O 0.02109 0.91794 0.46959 0.0
O83 O 0.93482 0.97032 0.59757 0.0
O84 O 0.97155 0.93199 0.53844 0.0
O85 O 0.03836 0.94751 0.61948 0.0
O86 O 0.03352 0.02616 0.631 0.0
O87 O 0.93545 0.02568 0.66549 0.0
O88 O 0.92345 0.10278 0.62078 0.0
O89 O 0.05534 0.04864 0.50176 0.0
O90 O 0.03824 0.074 0.57858 0.0
C91 C 0.95457 0.03271 0.45999 0.0
C92 C 0.93882 0.93356 0.57264 0.0
C93 C 0.08198 0.87891 0.43347 0.0
C94 C 0.10727 0.84101 0.3628 0.0
C95 C 0.12706 0.79915 0.46252 0.0
C96 C 0.10386 0.83829 0.47629 0.0
C97 C 0.12925 0.80066 0.40615 0.0
C98 C 0.08317 0.87983 0.37672 0.0
C99 C 0.06177 0.9228 0.44671 0.0
C100 C 0.23052 0.91505 0.67813 0.0
C101 C 0.20494 0.87139 0.69829 0.0
H102 H 0.27164 0.99974 0.62421 0.0
C103 C 0.04503 0.97883 0.65197 0.0
C104 C 0.06225 0.07909 0.5354 0.0
C105 C 0.94906 0.0866 0.71791 0.0
C106 C 0.94486 0.11382 0.80327 0.0
C107 C 0.02336 0.11971 0.76557 0.0
C108 C 0.99999 0.10006 0.72132 0.0
C109 C 0.99588 0.127 0.80614 0.0
C110 C 0.92166 0.09298 0.75933 0.0
C111 C 0.92373 0.07027 0.66847 0.0
H112 H 0.14418 0.76797 0.49568 0.0
H113 H 0.10388 0.83732 0.52017 0.0
H114 H 0.14822 0.77045 0.39632 0.0
H115 H 0.06708 0.91163 0.34355 0.0
H116 H 0.06262 0.13007 0.76789 0.0
H117 H 0.02127 0.09643 0.68899 0.0
H118 H 0.01442 0.14285 0.83987 0.0
H119 H 0.88209 0.08341 0.75635 0.0
C120 C 0.66489 0.54407 0.10353 0.0
C121 C 0.68184 0.62617 0.04851 0.0
C122 C 0.64768 0.59067 0.07109 0.0
C123 C 0.73327 0.61277 0.05609 0.0
C124 C 0.71679 0.53125 0.11388 0.0
C125 C 0.75071 0.56533 0.08865 0.0
N126 N 0.63127 0.51266 0.12828 0.0
C127 C 0.6473 0.46941 0.16718 0.0
C128 C 0.73316 0.4853 0.15083 0.0
C129 C 0.69835 0.45461 0.17829 0.0
Gd130 Gd 0.45227 0.46117 0.99983 0.0
Gd131 Gd 0.54583 0.53757 0.10139 0.0
N132 N 0.59785 0.60234 0.06478 0.0
C133 C 0.66346 0.67447 0.02064 0.0
C134 C 0.58035 0.6503 0.04162 0.0
C135 C 0.61265 0.68681 0.01809 0.0
H136 H 0.54093 0.65957 0.03944 0.0
H137 H 0.59837 0.72437 0.998 0.0
H138 H 0.53753 0.36482 0.02464 0.0
H139 H 0.62036 0.44573 0.18851 0.0
H140 H 0.55416 0.28181 0.08926 0.0
H141 H 0.68845 0.70283 1.00255 0.0
H142 H 0.76006 0.63927 0.03839 0.0
H143 H 0.33211 0.48996 0.99566 0.0
H144 H 0.77272 0.47392 0.15975 0.0
H145 H 0.71079 0.41957 0.20795 0.0
H146 H 0.40563 0.25008 0.17525 0.0
H147 H 0.7907 0.55599 0.09555 0.0
H148 H 0.26876 0.3701 0.10731 0.0
H149 H 0.25917 0.45301 0.0396 0.0
N150 N 0.38168 0.42863 0.03854 0.0
C151 C 0.3874 0.38236 0.07388 0.0
C152 C 0.33626 0.45369 0.02504 0.0
C153 C 0.30061 0.38598 0.08787 0.0
C154 C 0.29506 0.43285 0.04973 0.0
C155 C 0.34711 0.36002 0.10022 0.0
H156 H 0.32424 0.29526 0.1592 0.0
N157 N 0.4709 0.37901 0.05505 0.0
C158 C 0.43362 0.35725 0.0833 0.0
C159 C 0.48522 0.28225 0.12297 0.0
C160 C 0.4402 0.30863 0.11886 0.0
C161 C 0.51198 0.35111 0.05386 0.0
C162 C 0.52066 0.3031 0.08915 0.0
O163 O 0.54575 0.56963 0.0084 0.0
O164 O 0.49919 0.52053 0.95424 0.0
O165 O 0.43837 0.41049 0.94489 0.0
O166 O 0.40071 0.48241 0.91981 0.0
O167 O 0.47365 0.57827 0.0522 0.0
O168 O 0.41914 0.53613 0.99526 0.0
O169 O 0.43542 0.47431 0.08192 0.0
O170 O 0.51327 0.46328 0.13662 0.0
O171 O 0.49803 0.565 0.15048 0.0
O172 O 0.5792 0.561 0.17682 0.0
O173 O 0.53656 0.45466 1.00456 0.0
O174 O 0.55691 0.45907 0.0953 0.0
C175 C 0.52872 0.55802 0.96036 0.0
C176 C 0.43156 0.57457 0.01714 0.0
C177 C 0.42761 0.45121 0.84894 0.0
C178 C 0.41466 0.44242 0.75215 0.0
C179 C 0.48985 0.48219 0.78866 0.0
C180 C 0.474 0.47376 0.84086 0.0
C181 C 0.46038 0.46674 0.74443 0.0
C182 C 0.39818 0.43518 0.8046 0.0
C183 C 0.41111 0.44272 0.90418 0.0
C184 C 0.40094 0.28712 0.14722 0.0
C185 C 0.35449 0.31272 0.13786 0.0
H186 H 0.49175 0.24482 0.14977 0.0
C187 C 0.46429 0.45708 0.131 0.0
C188 C 0.57055 0.45148 0.04978 0.0
C189 C 0.52923 0.55489 0.24834 0.0
C190 C 0.54993 0.56502 0.3448 0.0
C191 C 0.48867 0.50386 0.32252 0.0
C192 C 0.49485 0.51799 0.26606 0.0
C193 C 0.51594 0.52714 0.36172 0.0
C194 C 0.5566 0.57834 0.28786 0.0
C195 C 0.5357 0.57108 0.18866 0.0
H196 H 0.52554 0.49989 0.7828 0.0
H197 H 0.49847 0.48424 0.87496 0.0
H198 H 0.47423 0.4723 0.70477 0.0
H199 H 0.36284 0.41679 0.81104 0.0
H200 H 0.46201 0.47533 0.33577 0.0
H201 H 0.47224 0.50073 0.23614 0.0
H202 H 0.50935 0.51642 0.40495 0.0
H203 H 0.58292 0.60715 0.2741 0.0
H204 H 0.23424 0.23609 0.53213 0.0
H205 H 0.17388 0.2731 0.35373 0.0
H206 H 0.11323 0.20643 0.36955 0.0
H207 H 0.07585 0.13848 0.43461 0.0
H208 H 0.13002 0.10922 0.6135 0.0
H209 H 0.19352 0.17344 0.59709 0.0
C210 C 0.20724 0.23069 0.49655 0.0
C211 C 0.20896 0.26023 0.44171 0.0
C212 C 0.17102 0.19378 0.50616 0.0
C213 C 0.1744 0.25079 0.39632 0.0
C214 C 0.13923 0.21288 0.40537 0.0
C215 C 0.10165 0.14641 0.46982 0.0
C216 C 0.09877 0.11929 0.52511 0.0
C217 C 0.13711 0.18425 0.46013 0.0
C218 C 0.13165 0.12998 0.57066 0.0
C219 C 0.16799 0.16645 0.56124 0.0
H220 H 0.23765 0.71417 0.96435 0.0
H221 H 0.33099 0.78419 0.08149 0.0
H222 H 0.4009 0.7267 0.08793 0.0
H223 H 0.43425 0.65468 0.06331 0.0
H224 H 0.34101 0.58547 0.94496 0.0
H225 H 0.27297 0.64573 0.93481 0.0
C226 C 0.27351 0.71745 0.99061 0.0
C227 C 0.27884 0.75328 0.02269 0.0
C228 C 0.31372 0.6846 0.99376 0.0
C229 C 0.32546 0.75638 0.05715 0.0
C230 C 0.36562 0.72377 0.06053 0.0
C231 C 0.39934 0.65296 0.03473 0.0
C232 C 0.39287 0.61509 1.0054 0.0
C233 C 0.35999 0.68741 0.02947 0.0
C234 C 0.34719 0.61383 0.9685 0.0
C235 C 0.30806 0.64825 0.96271 0.0
H236 H 0.80459 0.7419 0.58914 0.0
H237 H 0.7228 0.82154 0.67768 0.0
H238 H 0.78307 0.88883 0.66559 0.0
H239 H 0.85863 0.9255 0.62939 0.0
H240 H 0.93709 0.848 0.53562 0.0
H241 H 0.87816 0.77995 0.5499 0.0
C242 C 0.79943 0.77422 0.60519 0.0
C243 C 0.75912 0.77628 0.63451 0.0
C244 C 0.83374 0.81332 0.59724 0.0
C245 C 0.75385 0.81829 0.65581 0.0
C246 C 0.78815 0.85706 0.64859 0.0
C247 C 0.86294 0.89384 0.61192 0.0
C248 C 0.90265 0.89213 0.58165 0.0
C249 C 0.8283 0.85496 0.61944 0.0
C250 C 0.90725 0.85056 0.55938 0.0
C251 C 0.87341 0.81149 0.5674 0.0
H252 H 0.75815 0.33416 0.01902 0.0
H253 H 0.71799 0.23288 0.16749 0.0
H254 H 0.6542 0.29219 0.17198 0.0
H255 H 0.6064 0.37067 0.13157 0.0
H256 H 0.6367 0.46667 0.97586 0.0
H257 H 0.70789 0.4119 0.97642 0.0
C258 C 0.73516 0.32471 0.05202 0.0
C259 C 0.74372 0.27913 0.09323 0.0
C260 C 0.69692 0.3583 0.05332 0.0
C261 C 0.71357 0.26808 0.13598 0.0
C262 C 0.67667 0.30188 0.13849 0.0
C263 C 0.6292 0.37985 0.0983 0.0
C264 C 0.61703 0.42253 0.05401 0.0
C265 C 0.66792 0.34694 0.09735 0.0
C266 C 0.6459 0.43388 0.01045 0.0
C267 C 0.68624 0.4025 0.01065 0.0
H268 H 0.09576 0.83442 0.10773 0.0
H269 H 0.25655 0.85183 0.15116 0.0
H270 H 0.24641 0.85683 0.24542 0.0
H271 H 0.19294 0.85066 0.31809 0.0
H272 H 0.03192 0.83774 0.27515 0.0
H273 H 0.04079 0.83695 0.17828 0.0
C274 C 0.1284 0.84029 0.13745 0.0
C275 C 0.17699 0.84175 0.12255 0.0
C276 C 0.12231 0.84342 0.19196 0.0
C277 C 0.21886 0.84937 0.1618 0.0
C278 C 0.21314 0.85234 0.21579 0.0
C279 C 0.15988 0.84794 0.28726 0.0
C280 C 0.11199 0.84366 0.30348 0.0
C281 C 0.16528 0.84825 0.23177 0.0
C282 C 0.06918 0.84084 0.26334 0.0
C283 C 0.07429 0.84037 0.2081 0.0
H284 H 0.57397 0.65593 0.717 0.0
H285 H 0.72193 0.66832 0.81147 0.0
H286 H 0.68978 0.63633 0.9 0.0
H287 H 0.62121 0.59779 0.95006 0.0
H288 H 0.47467 0.58245 0.85456 0.0
H289 H 0.50491 0.62162 0.76683 0.0
C290 C 0.59931 0.65147 0.75693 0.0
C291 C 0.65042 0.66404 0.75748 0.0
C292 C 0.58087 0.63214 0.80746 0.0
C293 C 0.68236 0.6592 0.80972 0.0
C294 C 0.66408 0.64058 0.86038 0.0
C295 C 0.59568 0.60419 0.91017 0.0
C296 C 0.54582 0.58739 0.90873 0.0
C297 C 0.6136 0.62614 0.85973 0.0
C298 C 0.51334 0.59483 0.85662 0.0
C299 C 0.53058 0.61723 0.80647 0.0
H300 H 0.80858 0.12291 0.23167 0.0
H301 H 0.95019 0.17303 0.17956 0.0
H302 H 0.99604 0.13018 0.27253 0.0
H303 H 0.99507 0.08225 0.36952 0.0
H304 H 0.8541 0.02744 0.4201 0.0
H305 H 0.80838 0.06876 0.32675 0.0
C306 C 0.8495 0.12412 0.24084 0.0
C307 C 0.87618 0.15111 0.19944 0.0
C308 C 0.87544 0.09907 0.29395 0.0
C309 C 0.92913 0.15221 0.21105 0.0
C310 C 0.95521 0.12795 0.2641 0.0
C311 C 0.95439 0.07887 0.36 0.0
C312 C 0.92766 0.05315 0.40211 0.0
C313 C 0.92868 0.10173 0.306 0.0
C314 C 0.87515 0.04853 0.38887 0.0
C315 C 0.84911 0.07179 0.33543 0.0
H316 H 0.31383 0.31879 0.58302 0.0
H317 H 0.32755 0.45885 0.46292 0.0
H318 H 0.36205 0.49673 0.5398 0.0
H319 H 0.39105 0.48927 0.64094 0.0
H320 H 0.37544 0.34984 0.76083 0.0
H321 H 0.33696 0.31308 0.6842 0.0
C322 C 0.32342 0.35787 0.57356 0.0
C323 C 0.3184 0.38573 0.51709 0.0
C324 C 0.34255 0.37965 0.61796 0.0
C325 C 0.33192 0.43615 0.50583 0.0
C326 C 0.3513 0.458 0.54981 0.0
C327 C 0.37896 0.45091 0.65021 0.0
C328 C 0.38623 0.42222 0.70634 0.0
C329 C 0.35732 0.42993 0.60596 0.0
C330 C 0.36981 0.3728 0.71797 0.0
C331 C 0.34822 0.35165 0.67416 0.0
H332 H 0.64125 0.7095 0.49631 0.0
H333 H 0.66819 0.56921 0.6211 0.0
H334 H 0.63442 0.52442 0.55015 0.0
H335 H 0.59405 0.52512 0.45366 0.0
H336 H 0.56551 0.66526 0.32886 0.0
H337 H 0.60424 0.70984 0.39827 0.0
C338 C 0.64039 0.66909 0.50773 0.0
C339 C 0.65681 0.64281 0.56406 0.0
C340 C 0.62066 0.64348 0.46668 0.0
C341 C 0.65503 0.59042 0.57827 0.0
C342 C 0.6359 0.56474 0.53767 0.0
C343 C 0.5962 0.56543 0.44165 0.0
C344 C 0.57664 0.59173 0.38613 0.0
C345 C 0.61789 0.59091 0.48196 0.0
C346 C 0.58066 0.64394 0.37108 0.0
C347 C 0.60249 0.66954 0.4109 0.0
H348 H 0.83708 0.11481 0.01011 0.0
H349 H 0.8627 0.27233 0.95693 0.0
H350 H 0.89757 0.25951 0.87607 0.0
H351 H 0.92703 0.20224 0.8252 0.0
H352 H 0.89878 0.04518 0.87637 0.0
H353 H 0.85846 0.05877 0.95345 0.0
C354 C 0.84978 0.14629 0.9803 0.0
C355 C 0.8478 0.19436 0.98938 0.0
C356 C 0.8696 0.13858 0.93405 0.0
C357 C 0.86378 0.23507 0.95044 0.0
C358 C 0.88399 0.22768 0.90455 0.0
C359 C 0.91155 0.17121 0.85306 0.0
C360 C 0.91609 0.12277 0.84588 0.0
C361 C 0.88807 0.17947 0.89666 0.0
C362 C 0.89556 0.08273 0.88145 0.0
C363 C 0.87274 0.0905 0.92547 0.0
H364 H 0.40252 0.34122 0.36275 0.0
H365 H 0.25488 0.39633 0.27356 0.0
H366 H 0.2911 0.43496 0.18908 0.0
H367 H 0.36574 0.45827 0.14372 0.0
H368 H 0.51247 0.39681 0.22962 0.0
H369 H 0.47599 0.35633 0.31297 0.0
C370 C 0.37836 0.36101 0.32437 0.0
C371 C 0.32628 0.36615 0.32396 0.0
C372 C 0.39938 0.38255 0.27597 0.0
C373 C 0.29505 0.39175 0.27435 0.0
C374 C 0.31579 0.41409 0.22636 0.0
C375 C 0.38953 0.43504 0.18011 0.0
C376 C 0.44165 0.43039 0.18026 0.0
C377 C 0.36803 0.41048 0.22707 0.0
C378 C 0.47221 0.40109 0.22838 0.0
C379 C 0.45136 0.37779 0.27601 0.0
H380 H 0.14744 0.93565 0.90862 0.0
H381 H 0.10864 0.78557 0.90054 0.0
H382 H 0.06748 0.81563 0.8023 0.0
H383 H 0.04662 0.88405 0.71727 0.0
H384 H 0.08982 0.03369 0.72337 0.0
H385 H 0.1243 0.00478 0.8236 0.0
C386 C 0.12886 0.90988 0.88557 0.0
C387 C 0.13043 0.85865 0.91167 0.0
C388 C 0.10647 0.92732 0.82859 0.0
C389 C 0.10734 0.82526 0.88121 0.0
C390 C 0.08416 0.84237 0.82503 0.0
C391 C 0.06386 0.91024 0.74046 0.0
C392 C 0.06565 0.96091 0.71281 0.0
C393 C 0.08436 0.89319 0.79795 0.0
C394 C 0.08737 0.99456 0.74373 0.0
C395 C 0.10736 0.97801 0.80108 0.0
loop_
_geom_bond_atom_site_label_1
_geom_bond_atom_site_label_2
_geom_bond_distance
_geom_bond_site_symmetry_2
_ccdc_geom_bond_type
H0 C3 0.930 . S
H1 C6 0.928 . S
H2 C8 0.930 . S
C3 H0 0.930 . S
C3 C4 1.413 1_554 S
C3 C5 1.360 . S
C4 C3 1.413 1_556 S
C4 C8 1.429 . S
C5 C3 1.360 . S
C5 C6 1.372 . S
C6 H1 0.928 . S
C6 C5 1.372 . S
C6 C7 1.404 . S
C7 C6 1.404 . S
C7 C8 1.391 1_554 S
C8 H2 0.930 . S
C8 C4 1.429 . S
C8 C7 1.391 1_556 S
H9 C12 0.931 . S
H10 C15 0.928 . S
H11 C17 0.930 . S
C12 H9 0.931 . S
C12 C13 1.413 . S
C12 C14 1.360 . S
C13 C12 1.413 . S
C13 C17 1.429 . S
C14 C12 1.360 . S
C14 C15 1.372 . S
C15 H10 0.928 . S
C15 C14 1.372 . S
C15 C16 1.404 . S
C16 C15 1.404 . S
C16 C17 1.391 . S
C17 H11 0.930 . S
C17 C13 1.429 . S
C17 C16 1.391 . S
H18 C21 0.931 . S
H19 C24 0.928 . S
H20 C26 0.930 1_556 S
C21 H18 0.931 . S
C21 C22 1.413 . S
C21 C23 1.360 . S
C22 C21 1.413 . S
C22 C26 1.429 . S
C23 C21 1.360 . S
C23 C24 1.372 . S
C24 H19 0.928 . S
C24 C23 1.372 . S
C24 C25 1.404 . S
C25 C24 1.404 . S
C25 C26 1.391 . S
C26 H20 0.930 1_554 S
C26 C22 1.429 . S
C26 C25 1.391 . S
H27 C30 0.931 . S
H28 C33 0.928 . S
H29 C35 0.930 . S
C30 H27 0.931 . S
C30 C31 1.413 . S
C30 C32 1.360 . S
C31 C30 1.413 . S
C31 C35 1.429 . S
C32 C30 1.360 . S
C32 C33 1.372 . S
C33 H28 0.928 . S
C33 C32 1.372 . S
C33 C34 1.404 . S
C34 C33 1.404 . S
C34 C35 1.391 . S
C35 H29 0.930 . S
C35 C31 1.429 . S
C35 C34 1.391 . S
C36 C38 1.422 . S
C36 C40 1.415 . S
C36 N42 1.369 . S
C37 C38 1.421 . S
C37 C39 1.417 . S
C37 C49 1.422 . S
C38 C36 1.422 . S
C38 C37 1.421 . S
C38 N48 1.359 . S
C39 C37 1.417 . S
C39 C41 1.329 . S
C39 H58 0.930 . S
C40 C36 1.415 . S
C40 C41 1.437 . S
C40 C44 1.413 . S
C41 C39 1.329 . S
C41 C40 1.437 . S
C41 H63 0.929 . S
N42 C36 1.369 . S
N42 C43 1.338 . S
N42 Gd47 2.622 . S
C43 N42 1.338 . S
C43 C45 1.378 . S
C43 H55 0.929 1_655 S
C44 C40 1.413 . S
C44 C45 1.348 . S
C44 H60 0.931 . S
C45 C43 1.378 . S
C45 C44 1.348 . S
C45 H61 0.930 1_655 S
Gd46 N66 2.622 . S
Gd46 N73 2.570 . S
Gd46 O80 2.353 1_465 S
Gd46 O81 2.468 . S
Gd46 O82 2.427 . S
Gd46 O84 2.388 1_455 S
Gd46 O85 2.386 . S
Gd46 O89 2.307 1_565 S
Gd46 C99 2.805 . S
Gd47 N42 2.622 . S
Gd47 N48 2.570 . S
Gd47 O79 2.386 . S
Gd47 O83 2.307 1_545 S
Gd47 O86 2.353 1_655 S
Gd47 O87 2.468 . S
Gd47 O88 2.427 . S
Gd47 O90 2.388 1_655 S
Gd47 C111 2.805 . S
N48 C38 1.359 . S
N48 Gd47 2.570 . S
N48 C50 1.343 . S
C49 C37 1.422 . S
C49 C51 1.321 . S
C49 H57 0.931 . S
C50 N48 1.343 . S
C50 C51 1.390 . S
C50 H52 0.931 . S
C51 C49 1.321 . S
C51 C50 1.390 . S
C51 H53 0.930 . S
H52 C50 0.931 . S
H53 C51 0.930 . S
H54 C77 0.931 . S
H55 C43 0.929 1_455 S
H56 C78 0.930 . S
H57 C49 0.931 . S
H58 C39 0.930 . S
H59 C68 0.929 1_655 S
H60 C44 0.931 . S
H61 C45 0.930 1_455 S
H62 C100 0.930 . S
H63 C41 0.929 . S
H64 C69 0.931 . S
H65 C70 0.930 1_655 S
N66 Gd46 2.622 . S
N66 C67 1.369 . S
N66 C68 1.338 . S
C67 N66 1.369 . S
C67 C71 1.415 . S
C67 C74 1.422 . S
C68 H59 0.929 1_455 S
C68 N66 1.338 . S
C68 C70 1.378 . S
C69 H64 0.931 . S
C69 C70 1.348 . S
C69 C71 1.413 . S
C70 H65 0.930 1_455 S
C70 C68 1.378 . S
C70 C69 1.348 . S
C71 C67 1.415 . S
C71 C69 1.413 . S
C71 C101 1.437 . S
H72 C101 0.929 . S
N73 Gd46 2.570 . S
N73 C74 1.359 . S
N73 C77 1.343 . S
C74 C67 1.422 . S
C74 N73 1.359 . S
C74 C76 1.421 . S
C75 C76 1.422 . S
C75 C78 1.321 . S
C75 H102 0.931 . S
C76 C74 1.421 . S
C76 C75 1.422 . S
C76 C100 1.417 . S
C77 H54 0.931 . S
C77 N73 1.343 . S
C77 C78 1.390 . S
C78 H56 0.930 . S
C78 C75 1.321 . S
C78 C77 1.390 . S
O79 Gd47 2.386 . S
O79 C91 1.265 . S
O80 Gd46 2.353 1_645 S
O80 C91 1.242 . S
O81 Gd46 2.468 . S
O81 C99 1.263 . S
O82 Gd46 2.427 . S
O82 C99 1.252 . S
O83 Gd47 2.307 1_565 S
O83 C92 1.261 . S
O84 Gd46 2.388 1_655 S
O84 C92 1.252 . S
O85 Gd46 2.386 . S
O85 C103 1.265 . S
O86 Gd47 2.353 1_455 S
O86 C103 1.242 1_545 S
O87 Gd47 2.468 . S
O87 C111 1.263 . S
O88 Gd47 2.427 . S
O88 C111 1.252 . S
O89 Gd46 2.307 1_545 S
O89 C104 1.261 . S
O90 Gd47 2.388 1_455 S
O90 C104 1.252 . S
C91 O79 1.265 . S
C91 O80 1.242 . S
C92 O83 1.261 . S
C92 O84 1.252 . S
C93 C96 1.394 . S
C93 C98 1.370 . S
C93 C99 1.500 . S
C94 C97 1.383 . S
C94 C98 1.395 . S
C95 C96 1.396 . S
C95 C97 1.365 . S
C95 H112 0.929 . S
C96 C93 1.394 . S
C96 C95 1.396 . S
C96 H113 0.930 . S
C97 C94 1.383 . S
C97 C95 1.365 . S
C97 H114 0.931 . S
C98 C93 1.370 . S
C98 C94 1.395 . S
C98 H115 0.930 . S
C99 Gd46 2.805 . S
C99 O81 1.263 . S
C99 O82 1.252 . S
C99 C93 1.500 . S
C100 H62 0.930 . S
C100 C76 1.417 . S
C100 C101 1.329 . S
C101 C71 1.437 . S
C101 H72 0.929 . S
C101 C100 1.329 . S
H102 C75 0.931 . S
C103 O85 1.265 . S
C103 O86 1.242 1_565 S
C104 O89 1.261 . S
C104 O90 1.252 . S
C105 C108 1.394 . S
C105 C110 1.370 . S
C105 C111 1.500 . S
C106 C109 1.383 . S
C106 C110 1.395 . S
C107 C108 1.396 . S
C107 C109 1.365 . S
C107 H116 0.929 . S
C108 C105 1.394 . S
C108 C107 1.396 . S
C108 H117 0.930 . S
C109 C106 1.383 . S
C109 C107 1.365 . S
C109 H118 0.931 . S
C110 C105 1.370 . S
C110 C106 1.395 . S
C110 H119 0.930 . S
C111 Gd47 2.805 . S
C111 O87 1.263 . S
C111 O88 1.252 . S
C111 C105 1.500 . S
H112 C95 0.929 . S
H113 C96 0.930 . S
H114 C97 0.931 . S
H115 C98 0.930 . S
H116 C107 0.929 . S
H117 C108 0.930 . S
H118 C109 0.931 . S
H119 C110 0.930 . S
C120 C122 1.422 . S
C120 C124 1.415 . S
C120 N126 1.369 . S
C121 C122 1.421 . S
C121 C123 1.417 . S
C121 C133 1.422 . S
C122 C120 1.422 . S
C122 C121 1.421 . S
C122 N132 1.359 . S
C123 C121 1.417 . S
C123 C125 1.329 . S
C123 H142 0.930 . S
C124 C120 1.415 . S
C124 C125 1.437 . S
C124 C128 1.413 . S
C125 C123 1.329 . S
C125 C124 1.437 . S
C125 H147 0.929 . S
N126 C120 1.369 . S
N126 C127 1.338 . S
N126 Gd131 2.622 . S
C127 N126 1.338 . S
C127 C129 1.378 . S
C127 H139 0.929 . S
C128 C124 1.413 . S
C128 C129 1.348 . S
C128 H144 0.931 . S
C129 C127 1.378 . S
C129 C128 1.348 . S
C129 H145 0.930 . S
Gd130 N150 2.622 1_556 S
Gd130 N157 2.570 1_556 S
Gd130 O164 2.353 . S
Gd130 O165 2.468 . S
Gd130 O166 2.427 . S
Gd130 O168 2.388 1_556 S
Gd130 O169 2.386 1_556 S
Gd130 O173 2.307 1_556 S
Gd130 C183 2.805 . S
Gd131 N126 2.622 . S
Gd131 N132 2.570 . S
Gd131 O163 2.386 . S
Gd131 O167 2.307 . S
Gd131 O170 2.353 . S
Gd131 O171 2.468 . S
Gd131 O172 2.427 . S
Gd131 O174 2.388 . S
Gd131 C195 2.805 . S
N132 C122 1.359 . S
N132 Gd131 2.570 . S
N132 C134 1.343 . S
C133 C121 1.422 . S
C133 C135 1.321 . S
C133 H141 0.931 . S
C134 N132 1.343 . S
C134 C135 1.390 . S
C134 H136 0.931 . S
C135 C133 1.321 . S
C135 C134 1.390 . S
C135 H137 0.930 . S
H136 C134 0.931 . S
H137 C135 0.930 . S
H138 C161 0.931 . S
H139 C127 0.929 . S
H140 C162 0.930 . S
H141 C133 0.931 . S
H142 C123 0.930 . S
H143 C152 0.929 . S
H144 C128 0.931 . S
H145 C129 0.930 . S
H146 C184 0.930 . S
H147 C125 0.929 . S
H148 C153 0.931 . S
H149 C154 0.930 . S
N150 Gd130 2.622 1_554 S
N150 C151 1.369 . S
N150 C152 1.338 1_554 S
C151 N150 1.369 . S
C151 C155 1.415 . S
C151 C158 1.422 . S
C152 H143 0.929 . S
C152 N150 1.338 1_556 S
C152 C154 1.378 . S
C153 H148 0.931 . S
C153 C154 1.348 1_554 S
C153 C155 1.413 . S
C154 H149 0.930 . S
C154 C152 1.378 . S
C154 C153 1.348 1_556 S
C155 C151 1.415 . S
C155 C153 1.413 . S
C155 C185 1.437 . S
H156 C185 0.929 . S
N157 Gd130 2.570 1_554 S
N157 C158 1.359 . S
N157 C161 1.343 . S
C158 C151 1.422 . S
C158 N157 1.359 . S
C158 C160 1.421 . S
C159 C160 1.422 . S
C159 C162 1.321 . S
C159 H186 0.931 . S
C160 C158 1.421 . S
C160 C159 1.422 . S
C160 C184 1.417 . S
C161 H138 0.931 . S
C161 N157 1.343 . S
C161 C162 1.390 . S
C162 H140 0.930 . S
C162 C159 1.321 . S
C162 C161 1.390 . S
O163 Gd131 2.386 . S
O163 C175 1.265 1_554 S
O164 Gd130 2.353 . S
O164 C175 1.242 . S
O165 Gd130 2.468 . S
O165 C183 1.263 . S
O166 Gd130 2.427 . S
O166 C183 1.252 . S
O167 Gd131 2.307 . S
O167 C176 1.261 . S
O168 Gd130 2.388 1_554 S
O168 C176 1.252 . S
O169 Gd130 2.386 1_554 S
O169 C187 1.265 . S
O170 Gd131 2.353 . S
O170 C187 1.242 . S
O171 Gd131 2.468 . S
O171 C195 1.263 . S
O172 Gd131 2.427 . S
O172 C195 1.252 . S
O173 Gd130 2.307 1_554 S
O173 C188 1.261 . S
O174 Gd131 2.388 . S
O174 C188 1.252 . S
C175 O163 1.265 1_556 S
C175 O164 1.242 . S
C176 O167 1.261 . S
C176 O168 1.252 . S
C177 C180 1.394 . S
C177 C182 1.370 . S
C177 C183 1.500 . S
C178 C181 1.383 . S
C178 C182 1.395 . S
C179 C180 1.396 . S
C179 C181 1.365 . S
C179 H196 0.929 . S
C180 C177 1.394 . S
C180 C179 1.396 . S
C180 H197 0.930 . S
C181 C178 1.383 . S
C181 C179 1.365 . S
C181 H198 0.931 . S
C182 C177 1.370 . S
C182 C178 1.395 . S
C182 H199 0.930 . S
C183 Gd130 2.805 . S
C183 O165 1.263 . S
C183 O166 1.252 . S
C183 C177 1.500 . S
C184 H146 0.930 . S
C184 C160 1.417 . S
C184 C185 1.329 . S
C185 C155 1.437 . S
C185 H156 0.929 . S
C185 C184 1.329 . S
H186 C159 0.931 . S
C187 O169 1.265 . S
C187 O170 1.242 . S
C188 O173 1.261 . S
C188 O174 1.252 . S
C189 C192 1.394 . S
C189 C194 1.370 . S
C189 C195 1.500 . S
C190 C193 1.383 . S
C190 C194 1.395 . S
C191 C192 1.396 . S
C191 C193 1.365 . S
C191 H200 0.929 . S
C192 C189 1.394 . S
C192 C191 1.396 . S
C192 H201 0.930 . S
C193 C190 1.383 . S
C193 C191 1.365 . S
C193 H202 0.931 . S
C194 C189 1.370 . S
C194 C190 1.395 . S
C194 H203 0.930 . S
C195 Gd131 2.805 . S
C195 O171 1.263 . S
C195 O172 1.252 . S
C195 C189 1.500 . S
H196 C179 0.929 . S
H197 C180 0.930 . S
H198 C181 0.931 . S
H199 C182 0.930 . S
H200 C191 0.929 . S
H201 C192 0.930 . S
H202 C193 0.931 . S
H203 C194 0.930 . S
H204 C210 0.930 . S
H205 C213 0.930 . S
H206 C214 0.930 . S
H207 C215 0.930 . S
H208 C218 0.930 . S
H209 C219 0.930 . S
C210 H204 0.930 . S
C210 C211 1.355 . S
C210 C212 1.415 . S
C211 C210 1.355 . S
C211 C213 1.419 . S
C212 C210 1.415 . S
C212 C217 1.425 . S
C212 C219 1.409 . S
C213 H205 0.930 . S
C213 C211 1.419 . S
C213 C214 1.362 . S
C214 H206 0.930 . S
C214 C213 1.362 . S
C214 C217 1.409 . S
C215 H207 0.930 . S
C215 C216 1.355 . S
C215 C217 1.415 . S
C216 C215 1.355 . S
C216 C218 1.419 . S
C217 C212 1.425 . S
C217 C214 1.409 . S
C217 C215 1.415 . S
C218 H208 0.930 . S
C218 C216 1.419 . S
C218 C219 1.362 . S
C219 H209 0.930 . S
C219 C212 1.409 . S
C219 C218 1.362 . S
H220 C226 0.930 . S
H221 C229 0.930 . S
H222 C230 0.930 . S
H223 C231 0.930 . S
H224 C234 0.930 . S
H225 C235 0.932 . S
C226 H220 0.930 . S
C226 C227 1.355 . S
C226 C228 1.415 . S
C227 C226 1.355 . S
C227 C229 1.419 . S
C228 C226 1.415 . S
C228 C233 1.425 . S
C228 C235 1.409 . S
C229 H221 0.930 . S
C229 C227 1.419 . S
C229 C230 1.362 . S
C230 H222 0.930 . S
C230 C229 1.362 . S
C230 C233 1.409 . S
C231 H223 0.930 . S
C231 C232 1.355 . S
C231 C233 1.415 . S
C232 C231 1.355 . S
C232 C234 1.419 . S
C233 C228 1.425 . S
C233 C230 1.409 . S
C233 C231 1.415 . S
C234 H224 0.930 . S
C234 C232 1.419 . S
C234 C235 1.362 . S
C235 H225 0.932 . S
C235 C228 1.409 . S
C235 C234 1.362 . S
H236 C242 0.930 . S
H237 C245 0.930 . S
H238 C246 0.930 . S
H239 C247 0.930 . S
H240 C250 0.930 . S
H241 C251 0.930 . S
C242 H236 0.930 . S
C242 C243 1.355 . S
C242 C244 1.415 . S
C243 C242 1.355 . S
C243 C245 1.419 . S
C244 C242 1.415 . S
C244 C249 1.425 . S
C244 C251 1.409 . S
C245 H237 0.930 . S
C245 C243 1.419 . S
C245 C246 1.362 . S
C246 H238 0.930 . S
C246 C245 1.362 . S
C246 C249 1.409 . S
C247 H239 0.930 . S
C247 C248 1.355 . S
C247 C249 1.415 . S
C248 C247 1.355 . S
C248 C250 1.419 . S
C249 C244 1.425 . S
C249 C246 1.409 . S
C249 C247 1.415 . S
C250 H240 0.930 . S
C250 C248 1.419 . S
C250 C251 1.362 . S
C251 H241 0.930 . S
C251 C244 1.409 . S
C251 C250 1.362 . S
H252 C258 0.930 . S
H253 C261 0.930 . S
H254 C262 0.930 . S
H255 C263 0.930 . S
H256 C266 0.930 . S
H257 C267 0.919 1_556 S
C258 H252 0.930 . S
C258 C259 1.355 . S
C258 C260 1.415 . S
C259 C258 1.355 . S
C259 C261 1.419 . S
C260 C258 1.415 . S
C260 C265 1.425 . S
C260 C267 1.409 . S
C261 H253 0.930 . S
C261 C259 1.419 . S
C261 C262 1.362 . S
C262 H254 0.930 . S
C262 C261 1.362 . S
C262 C265 1.409 . S
C263 H255 0.930 . S
C263 C264 1.355 . S
C263 C265 1.415 . S
C264 C263 1.355 . S
C264 C266 1.419 . S
C265 C260 1.425 . S
C265 C262 1.409 . S
C265 C263 1.415 . S
C266 H256 0.930 . S
C266 C264 1.419 . S
C266 C267 1.362 . S
C267 H257 0.919 1_554 S
C267 C260 1.409 . S
C267 C266 1.362 . S
H268 C274 0.930 . S
H269 C277 0.930 . S
H270 C278 0.930 . S
H271 C279 0.930 . S
H272 C282 0.930 . S
H273 C283 0.930 . S
C274 H268 0.930 . S
C274 C275 1.355 . S
C274 C276 1.415 . S
C275 C274 1.355 . S
C275 C277 1.419 . S
C276 C274 1.415 . S
C276 C281 1.425 . S
C276 C283 1.409 . S
C277 H269 0.930 . S
C277 C275 1.419 . S
C277 C278 1.362 . S
C278 H270 0.930 . S
C278 C277 1.362 . S
C278 C281 1.409 . S
C279 H271 0.930 . S
C279 C280 1.355 . S
C279 C281 1.415 . S
C280 C279 1.355 . S
C280 C282 1.419 . S
C281 C276 1.425 . S
C281 C278 1.409 . S
C281 C279 1.415 . S
C282 H272 0.930 . S
C282 C280 1.419 . S
C282 C283 1.362 . S
C283 H273 0.930 . S
C283 C276 1.409 . S
C283 C282 1.362 . S
H284 C290 0.930 . S
H285 C293 0.930 . S
H286 C294 0.930 . S
H287 C295 0.930 . S
H288 C298 0.930 . S
H289 C299 0.930 . S
C290 H284 0.930 . S
C290 C291 1.355 . S
C290 C292 1.415 . S
C291 C290 1.355 . S
C291 C293 1.419 . S
C292 C290 1.415 . S
C292 C297 1.425 . S
C292 C299 1.409 . S
C293 H285 0.930 . S
C293 C291 1.419 . S
C293 C294 1.362 . S
C294 H286 0.930 . S
C294 C293 1.362 . S
C294 C297 1.409 . S
C295 H287 0.930 . S
C295 C296 1.355 . S
C295 C297 1.415 . S
C296 C295 1.355 . S
C296 C298 1.419 . S
C297 C292 1.425 . S
C297 C294 1.409 . S
C297 C295 1.415 . S
C298 H288 0.930 . S
C298 C296 1.419 . S
C298 C299 1.362 . S
C299 H289 0.930 . S
C299 C292 1.409 . S
C299 C298 1.362 . S
H300 C306 0.930 . S
H301 C309 0.930 . S
H302 C310 0.930 . S
H303 C311 0.930 . S
H304 C314 0.930 . S
H305 C315 0.930 . S
C306 H300 0.930 . S
C306 C307 1.355 . S
C306 C308 1.415 . S
C307 C306 1.355 . S
C307 C309 1.419 . S
C308 C306 1.415 . S
C308 C313 1.425 . S
C308 C315 1.409 . S
C309 H301 0.930 . S
C309 C307 1.419 . S
C309 C310 1.362 . S
C310 H302 0.930 . S
C310 C309 1.362 . S
C310 C313 1.409 . S
C311 H303 0.930 . S
C311 C312 1.355 . S
C311 C313 1.415 . S
C312 C311 1.355 . S
C312 C314 1.419 . S
C313 C308 1.425 . S
C313 C310 1.409 . S
C313 C311 1.415 . S
C314 H304 0.930 . S
C314 C312 1.419 . S
C314 C315 1.362 . S
C315 H305 0.930 . S
C315 C308 1.409 . S
C315 C314 1.362 . S
H316 C322 0.930 . S
H317 C325 0.930 . S
H318 C326 0.930 . S
H319 C327 0.930 . S
H320 C330 0.930 . S
H321 C331 0.930 . S
C322 H316 0.930 . S
C322 C323 1.355 . S
C322 C324 1.415 . S
C323 C322 1.355 . S
C323 C325 1.419 . S
C324 C322 1.415 . S
C324 C329 1.425 . S
C324 C331 1.409 . S
C325 H317 0.930 . S
C325 C323 1.419 . S
C325 C326 1.362 . S
C326 H318 0.930 . S
C326 C325 1.362 . S
C326 C329 1.409 . S
C327 H319 0.930 . S
C327 C328 1.355 . S
C327 C329 1.415 . S
C328 C327 1.355 . S
C328 C330 1.419 . S
C329 C324 1.425 . S
C329 C326 1.409 . S
C329 C327 1.415 . S
C330 H320 0.930 . S
C330 C328 1.419 . S
C330 C331 1.362 . S
C331 H321 0.930 . S
C331 C324 1.409 . S
C331 C330 1.362 . S
H332 C338 0.930 . S
H333 C341 0.930 . S
H334 C342 0.930 . S
H335 C343 0.930 . S
H336 C346 0.930 . S
H337 C347 0.930 . S
C338 H332 0.930 . S
C338 C339 1.355 . S
C338 C340 1.415 . S
C339 C338 1.355 . S
C339 C341 1.419 . S
C340 C338 1.415 . S
C340 C345 1.425 . S
C340 C347 1.409 . S
C341 H333 0.930 . S
C341 C339 1.419 . S
C341 C342 1.362 . S
C342 H334 0.930 . S
C342 C341 1.362 . S
C342 C345 1.409 . S
C343 H335 0.930 . S
C343 C344 1.355 . S
C343 C345 1.415 . S
C344 C343 1.355 . S
C344 C346 1.419 . S
C345 C340 1.425 . S
C345 C342 1.409 . S
C345 C343 1.415 . S
C346 H336 0.930 . S
C346 C344 1.419 . S
C346 C347 1.362 . S
C347 H337 0.930 . S
C347 C340 1.409 . S
C347 C346 1.362 . S
H348 C354 0.930 1_554 S
H349 C357 0.930 . S
H350 C358 0.930 . S
H351 C359 0.930 . S
H352 C362 0.930 1_565 S
H353 C363 0.936 . S
C354 H348 0.930 1_556 S
C354 C355 1.355 . S
C354 C356 1.415 . S
C355 C354 1.355 . S
C355 C357 1.419 . S
C356 C354 1.415 . S
C356 C361 1.425 . S
C356 C363 1.409 . S
C357 H349 0.930 . S
C357 C355 1.419 . S
C357 C358 1.362 . S
C358 H350 0.930 . S
C358 C357 1.362 . S
C358 C361 1.409 . S
C359 H351 0.930 . S
C359 C360 1.355 . S
C359 C361 1.415 . S
C360 C359 1.355 . S
C360 C362 1.419 . S
C361 C356 1.425 . S
C361 C358 1.409 . S
C361 C359 1.415 . S
C362 H352 0.930 1_545 S
C362 C360 1.419 . S
C362 C363 1.362 . S
C363 H353 0.936 . S
C363 C356 1.409 . S
C363 C362 1.362 . S
H364 C370 0.930 . S
H365 C373 0.930 . S
H366 C374 0.930 . S
H367 C375 0.930 . S
H368 C378 0.930 . S
H369 C379 0.930 . S
C370 H364 0.930 . S
C370 C371 1.355 . S
C370 C372 1.415 . S
C371 C370 1.355 . S
C371 C373 1.419 . S
C372 C370 1.415 . S
C372 C377 1.425 . S
C372 C379 1.409 . S
C373 H365 0.930 . S
C373 C371 1.419 . S
C373 C374 1.362 . S
C374 H366 0.930 . S
C374 C373 1.362 . S
C374 C377 1.409 . S
C375 H367 0.930 . S
C375 C376 1.355 . S
C375 C377 1.415 . S
C376 C375 1.355 . S
C376 C378 1.419 . S
C377 C372 1.425 . S
C377 C374 1.409 . S
C377 C375 1.415 . S
C378 H368 0.930 . S
C378 C376 1.419 . S
C378 C379 1.362 . S
C379 H369 0.930 . S
C379 C372 1.409 . S
C379 C378 1.362 . S
H380 C386 0.930 . S
H381 C389 0.930 . S
H382 C390 0.930 . S
H383 C391 0.930 . S
H384 C394 0.930 . S
H385 C395 0.930 . S
C386 H380 0.930 . S
C386 C387 1.355 . S
C386 C388 1.415 . S
C387 C386 1.355 . S
C387 C389 1.419 . S
C388 C386 1.415 . S
C388 C393 1.425 . S
C388 C395 1.409 1_565 S
C389 H381 0.930 . S
C389 C387 1.419 . S
C389 C390 1.362 . S
C390 H382 0.930 . S
C390 C389 1.362 . S
C390 C393 1.409 . S
C391 H383 0.930 . S
C391 C392 1.355 . S
C391 C393 1.415 . S
C392 C391 1.355 . S
C392 C394 1.419 1_565 S
C393 C388 1.425 . S
C393 C390 1.409 . S
C393 C391 1.415 . S
C394 H384 0.930 . S
C394 C392 1.419 1_545 S
C394 C395 1.362 . S
C395 H385 0.930 . S
C395 C388 1.409 1_545 S
C395 C394 1.362 . S
C216 C104 1.531 . S
C211 C34 1.563 . S
C227 C7 1.556 . S
C232 C176 1.516 . S
C243 C16 1.577 . S
C248 C92 1.530 . S
C259 C25 1.542 . S
C264 C188 1.548 . S
C280 C94 1.338 . S
C275 C5 1.522 . S
C296 C175 1.560 . S
C291 C13 1.557 . S
C307 C23 1.524 . S
C312 C91 1.550 . S
C323 C32 1.505 . S
C328 C178 1.413 . S
C344 C190 1.409 . S
C339 C14 1.499 . S
C360 C106 1.399 . S
C355 C22 1.513 1_556 S
C376 C187 1.563 . S
C371 C31 1.546 . S
C387 C4 1.515 . S
C392 C103 1.546 . S
