# Generated by pormake.
# Topology ptr, (4,4)-cn, num edge types: 1
# Building blocks:
#     Node 0, Type 0, BuildingBlock: QUQFOY_clean_sbu_3, # of connection points: 4
#     Node 1, Type 0, BuildingBlock: QUQFOY_clean_sbu_3, # of connection points: 4
#     Node 2, Type 0, BuildingBlock: QUQFOY_clean_sbu_3, # of connection points: 4
#     Node 3, Type 0, BuildingBlock: QUQFOY_clean_sbu_3, # of connection points: 4
#     Node 4, Type 0, BuildingBlock: QUQFOY_clean_sbu_3, # of connection points: 4
#     Node 5, Type 0, BuildingBlock: QUQFOY_clean_sbu_3, # of connection points: 4
#     Node 6, Type 0, BuildingBlock: QUQFOY_clean_sbu_3, # of connection points: 4
#     Node 7, Type 0, BuildingBlock: QUQFOY_clean_sbu_3, # of connection points: 4
#     Node 8, Type 0, BuildingBlock: QUQFOY_clean_sbu_3, # of connection points: 4
#     Node 9, Type 0, BuildingBlock: QUQFOY_clean_sbu_3, # of connection points: 4
#     Node 10, Type 0, BuildingBlock: QUQFOY_clean_sbu_3, # of connection points: 4
#     Node 11, Type 0, BuildingBlock: QUQFOY_clean_sbu_3, # of connection points: 4
#     Node 12, Type 0, BuildingBlock: QUQFOY_clean_sbu_3, # of connection points: 4
#     Node 13, Type 0, BuildingBlock: QUQFOY_clean_sbu_3, # of connection points: 4
#     Node 14, Type 0, BuildingBlock: QUQFOY_clean_sbu_3, # of connection points: 4
#     Node 15, Type 0, BuildingBlock: QUQFOY_clean_sbu_3, # of connection points: 4
#     Node 16, Type 0, BuildingBlock: QUQFOY_clean_sbu_3, # of connection points: 4
#     Node 17, Type 0, BuildingBlock: QUQFOY_clean_sbu_3, # of connection points: 4
#     Node 18, Type 1, BuildingBlock: GIZVER_clean_linker_0, # of connection points: 4
#     Node 19, Type 1, BuildingBlock: GIZVER_clean_linker_0, # of connection points: 4
#     Node 20, Type 1, BuildingBlock: GIZVER_clean_linker_0, # of connection points: 4
#     Node 21, Type 1, BuildingBlock: GIZVER_clean_linker_0, # of connection points: 4
#     Node 22, Type 1, BuildingBlock: GIZVER_clean_linker_0, # of connection points: 4
#     Node 23, Type 1, BuildingBlock: GIZVER_clean_linker_0, # of connection points: 4
#     Node 24, Type 1, BuildingBlock: GIZVER_clean_linker_0, # of connection points: 4
#     Node 25, Type 1, BuildingBlock: GIZVER_clean_linker_0, # of connection points: 4
#     Node 26, Type 1, BuildingBlock: GIZVER_clean_linker_0, # of connection points: 4
#     Node 27, Type 1, BuildingBlock: GIZVER_clean_linker_0, # of connection points: 4
#     Node 28, Type 1, BuildingBlock: GIZVER_clean_linker_0, # of connection points: 4
#     Node 29, Type 1, BuildingBlock: GIZVER_clean_linker_0, # of connection points: 4
#     Node 30, Type 1, BuildingBlock: GIZVER_clean_linker_0, # of connection points: 4
#     Node 31, Type 1, BuildingBlock: GIZVER_clean_linker_0, # of connection points: 4
#     Node 32, Type 1, BuildingBlock: GIZVER_clean_linker_0, # of connection points: 4
#     Node 33, Type 1, BuildingBlock: GIZVER_clean_linker_0, # of connection points: 4
#     Node 34, Type 1, BuildingBlock: GIZVER_clean_linker_0, # of connection points: 4
#     Node 35, Type 1, BuildingBlock: GIZVER_clean_linker_0, # of connection points: 4
#     Edge 36, Type (0, 1), BuildingBlock: XIVTED_clean_linker_0, # of connection points: 2
#     Edge 37, Type (0, 1), BuildingBlock: XIVTED_clean_linker_0, # of connection points: 2
#     Edge 38, Type (0, 1), BuildingBlock: XIVTED_clean_linker_0, # of connection points: 2
#     Edge 39, Type (0, 1), BuildingBlock: XIVTED_clean_linker_0, # of connection points: 2
#     Edge 40, Type (0, 1), BuildingBlock: XIVTED_clean_linker_0, # of connection points: 2
#     Edge 41, Type (0, 1), BuildingBlock: XIVTED_clean_linker_0, # of connection points: 2
#     Edge 42, Type (0, 1), BuildingBlock: XIVTED_clean_linker_0, # of connection points: 2
#     Edge 43, Type (0, 1), BuildingBlock: XIVTED_clean_linker_0, # of connection points: 2
#     Edge 44, Type (0, 1), BuildingBlock: XIVTED_clean_linker_0, # of connection points: 2
#     Edge 45, Type (0, 1), BuildingBlock: XIVTED_clean_linker_0, # of connection points: 2
#     Edge 46, Type (0, 1), BuildingBlock: XIVTED_clean_linker_0, # of connection points: 2
#     Edge 47, Type (0, 1), BuildingBlock: XIVTED_clean_linker_0, # of connection points: 2
#     Edge 48, Type (0, 1), BuildingBlock: XIVTED_clean_linker_0, # of connection points: 2
#     Edge 49, Type (0, 1), BuildingBlock: XIVTED_clean_linker_0, # of connection points: 2
#     Edge 50, Type (0, 1), BuildingBlock: XIVTED_clean_linker_0, # of connection points: 2
#     Edge 51, Type (0, 1), BuildingBlock: XIVTED_clean_linker_0, # of connection points: 2
#     Edge 52, Type (0, 1), BuildingBlock: XIVTED_clean_linker_0, # of connection points: 2
#     Edge 53, Type (0, 1), BuildingBlock: XIVTED_clean_linker_0, # of connection points: 2
#     Edge 54, Type (0, 1), BuildingBlock: XIVTED_clean_linker_0, # of connection points: 2
#     Edge 55, Type (0, 1), BuildingBlock: XIVTED_clean_linker_0, # of connection points: 2
#     Edge 56, Type (0, 1), BuildingBlock: XIVTED_clean_linker_0, # of connection points: 2
#     Edge 57, Type (0, 1), BuildingBlock: XIVTED_clean_linker_0, # of connection points: 2
#     Edge 58, Type (0, 1), BuildingBlock: XIVTED_clean_linker_0, # of connection points: 2
#     Edge 59, Type (0, 1), BuildingBlock: XIVTED_clean_linker_0, # of connection points: 2
#     Edge 60, Type (0, 1), BuildingBlock: XIVTED_clean_linker_0, # of connection points: 2
#     Edge 61, Type (0, 1), BuildingBlock: XIVTED_clean_linker_0, # of connection points: 2
#     Edge 62, Type (0, 1), BuildingBlock: XIVTED_clean_linker_0, # of connection points: 2
#     Edge 63, Type (0, 1), BuildingBlock: XIVTED_clean_linker_0, # of connection points: 2
#     Edge 64, Type (0, 1), BuildingBlock: XIVTED_clean_linker_0, # of connection points: 2
#     Edge 65, Type (0, 1), BuildingBlock: XIVTED_clean_linker_0, # of connection points: 2
#     Edge 66, Type (0, 1), BuildingBlock: XIVTED_clean_linker_0, # of connection points: 2
#     Edge 67, Type (0, 1), BuildingBlock: XIVTED_clean_linker_0, # of connection points: 2
#     Edge 68, Type (0, 1), BuildingBlock: XIVTED_clean_linker_0, # of connection points: 2
#     Edge 69, Type (0, 1), BuildingBlock: XIVTED_clean_linker_0, # of connection points: 2
#     Edge 70, Type (0, 1), BuildingBlock: XIVTED_clean_linker_0, # of connection points: 2
#     Edge 71, Type (0, 1), BuildingBlock: XIVTED_clean_linker_0, # of connection points: 2
#     Edge 72, Type (0, 1), BuildingBlock: XIVTED_clean_linker_0, # of connection points: 2
#     Edge 73, Type (0, 1), BuildingBlock: XIVTED_clean_linker_0, # of connection points: 2
#     Edge 74, Type (0, 1), BuildingBlock: XIVTED_clean_linker_0, # of connection points: 2
#     Edge 75, Type (0, 1), BuildingBlock: XIVTED_clean_linker_0, # of connection points: 2
#     Edge 76, Type (0, 1), BuildingBlock: XIVTED_clean_linker_0, # of connection points: 2
#     Edge 77, Type (0, 1), BuildingBlock: XIVTED_clean_linker_0, # of connection points: 2
#     Edge 78, Type (0, 1), BuildingBlock: XIVTED_clean_linker_0, # of connection points: 2
#     Edge 79, Type (0, 1), BuildingBlock: XIVTED_clean_linker_0, # of connection points: 2
#     Edge 80, Type (0, 1), BuildingBlock: XIVTED_clean_linker_0, # of connection points: 2
#     Edge 81, Type (0, 1), BuildingBlock: XIVTED_clean_linker_0, # of connection points: 2
#     Edge 82, Type (0, 1), BuildingBlock: XIVTED_clean_linker_0, # of connection points: 2
#     Edge 83, Type (0, 1), BuildingBlock: XIVTED_clean_linker_0, # of connection points: 2
#     Edge 84, Type (0, 1), BuildingBlock: XIVTED_clean_linker_0, # of connection points: 2
#     Edge 85, Type (0, 1), BuildingBlock: XIVTED_clean_linker_0, # of connection points: 2
#     Edge 86, Type (0, 1), BuildingBlock: XIVTED_clean_linker_0, # of connection points: 2
#     Edge 87, Type (0, 1), BuildingBlock: XIVTED_clean_linker_0, # of connection points: 2
#     Edge 88, Type (0, 1), BuildingBlock: XIVTED_clean_linker_0, # of connection points: 2
#     Edge 89, Type (0, 1), BuildingBlock: XIVTED_clean_linker_0, # of connection points: 2
#     Edge 90, Type (0, 1), BuildingBlock: XIVTED_clean_linker_0, # of connection points: 2
#     Edge 91, Type (0, 1), BuildingBlock: XIVTED_clean_linker_0, # of connection points: 2
#     Edge 92, Type (0, 1), BuildingBlock: XIVTED_clean_linker_0, # of connection points: 2
#     Edge 93, Type (0, 1), BuildingBlock: XIVTED_clean_linker_0, # of connection points: 2
#     Edge 94, Type (0, 1), BuildingBlock: XIVTED_clean_linker_0, # of connection points: 2
#     Edge 95, Type (0, 1), BuildingBlock: XIVTED_clean_linker_0, # of connection points: 2
#     Edge 96, Type (0, 1), BuildingBlock: XIVTED_clean_linker_0, # of connection points: 2
#     Edge 97, Type (0, 1), BuildingBlock: XIVTED_clean_linker_0, # of connection points: 2
#     Edge 98, Type (0, 1), BuildingBlock: XIVTED_clean_linker_0, # of connection points: 2
#     Edge 99, Type (0, 1), BuildingBlock: XIVTED_clean_linker_0, # of connection points: 2
#     Edge 100, Type (0, 1), BuildingBlock: XIVTED_clean_linker_0, # of connection points: 2
#     Edge 101, Type (0, 1), BuildingBlock: XIVTED_clean_linker_0, # of connection points: 2
#     Edge 102, Type (0, 1), BuildingBlock: XIVTED_clean_linker_0, # of connection points: 2
#     Edge 103, Type (0, 1), BuildingBlock: XIVTED_clean_linker_0, # of connection points: 2
#     Edge 104, Type (0, 1), BuildingBlock: XIVTED_clean_linker_0, # of connection points: 2
#     Edge 105, Type (0, 1), BuildingBlock: XIVTED_clean_linker_0, # of connection points: 2
#     Edge 106, Type (0, 1), BuildingBlock: XIVTED_clean_linker_0, # of connection points: 2
#     Edge 107, Type (0, 1), BuildingBlock: XIVTED_clean_linker_0, # of connection points: 2
# Relax obj value: 0.044
# Max RMSD: 0.106
# Mean RMSD: 0.074
data_MOF--net-ptr--node1-QUQFOY_clean_sbu_3--node2-GIZVER_clean_linker_0--edge1-XIVTED_clean_linker_0
_symmetry_space_group_name_H-M    P1
_symmetry_Int_Tables_number       1
_symmetry_cell_setting            triclinic
loop_
_symmetry_equiv_pos_as_xyz
'x, y, z'
_cell_length_a     81.074628
_cell_length_b     81.334597
_cell_length_c     50.071863
_cell_angle_alpha  90.411705
_cell_angle_beta   89.911454
_cell_angle_gamma 120.53176
loop_
_atom_site_label
_atom_site_type_symbol
_atom_site_fract_x
_atom_site_fract_y
_atom_site_fract_z
_atom_type_partial_charge
C0 C 0.95529 0.33725 0.00815 0.0
O1 O 0.94701 0.34605 0.01625 0.0
Cd2 Cd 0.96373 0.37962 0.02571 0.0
O3 O 0.97342 0.34614 0.00496 0.0
Cd4 Cd 0.0021 0.37872 0.01087 0.0
C5 C 0.98614 0.39842 0.96564 0.0
O6 O 0.99089 0.38599 0.05213 0.0
O7 O 0.01655 0.40923 0.03533 0.0
O8 O 0.01744 0.3609 0.02476 0.0
C9 C 0.00425 0.40324 0.05386 0.0
O10 O 0.97351 0.39591 0.98287 0.0
C11 C 0.03309 0.37119 0.01258 0.0
O12 O -0.00219 0.39256 0.96989 0.0
O13 O 0.03445 0.38504 -0.00077 0.0
C14 C 0.60707 0.66222 0.00222 0.0
O15 O 0.59012 0.65151 -0.00638 0.0
Cd16 Cd 0.57668 0.61872 0.98102 0.0
O17 O 0.61842 0.65576 0.00481 0.0
Cd18 Cd 0.6177 0.62486 -0.00286 0.0
C19 C 0.58065 0.60003 0.0402 0.0
O20 O 0.60052 0.61723 0.95449 0.0
O21 O 0.60491 0.5953 0.97069 0.0
O22 O 0.65156 0.64404 0.98463 0.0
C23 C 0.59878 0.60094 0.95168 0.0
O24 O 0.56984 0.60115 0.02279 0.0
C25 C 0.65714 0.63478 -0.00147 0.0
O26 O 0.59867 0.60818 0.03658 0.0
O27 O 0.64448 0.62115 0.01232 0.0
C28 C 0.33154 0.95109 0.98713 0.0
O29 O 0.34221 0.94548 0.97687 0.0
Cd30 Cd 0.3757 0.96438 0.96789 0.0
O31 O 0.33838 0.96853 -0.00585 0.0
Cd32 Cd 0.36976 -0.00045 -0.00651 0.0
C33 C 0.39249 0.98194 0.03143 0.0
O34 O 0.37746 0.99218 0.95066 0.0
O35 O 0.39925 0.01918 0.96631 0.0
O36 O 0.35034 0.01436 0.98674 0.0
C37 C 0.39378 0.00683 0.94775 0.0
O38 O 0.39136 0.9715 0.01159 0.0
C39 C 0.35995 0.02838 0.00246 0.0
O40 O 0.38512 0.99254 0.03043 0.0
O41 O 0.37391 0.0288 0.01458 0.0
C42 C 0.94628 0.61102 0.00663 0.0
O43 O 0.94082 0.59416 0.01432 0.0
Cd44 Cd 0.96183 0.58244 0.0252 0.0
O45 O 0.96407 0.62312 0.00367 0.0
Cd46 Cd 0.99527 0.62423 0.00913 0.0
C47 C 0.98433 0.58756 0.96556 0.0
O48 O 0.98676 0.60734 0.05163 0.0
O49 O 0.01393 0.61371 0.03526 0.0
O50 O 0.00931 0.65819 0.02021 0.0
C51 C 0.00207 0.60692 0.0543 0.0
O52 O 0.97325 0.57607 0.98325 0.0
C53 C 0.02394 0.66387 0.00544 0.0
O54 O 0.99277 0.60553 0.9694 0.0
O55 O 0.02508 0.65118 -0.00795 0.0
C56 C 0.33891 0.38393 0.00365 0.0
O57 O 0.34921 0.40138 -0.0027 0.0
Cd58 Cd 0.38254 0.41629 0.98582 0.0
O59 O 0.34615 0.37321 0.005 0.0
Cd60 Cd 0.3775 0.37521 -0.00167 0.0
C61 C 0.40168 0.41098 0.04367 0.0
O62 O 0.38457 0.39357 0.9574 0.0
O63 O 0.407 0.3891 0.97179 0.0
O64 O 0.35901 0.34153 0.98502 0.0
C65 C 0.40105 0.3958 0.95395 0.0
O66 O 0.40101 0.42242 0.02708 0.0
C67 C 0.36878 0.33638 -0.00135 0.0
O68 O 0.39306 0.39312 0.03886 0.0
O69 O 0.38248 0.34923 0.01238 0.0
C70 C 0.66385 0.04697 0.01027 0.0
O71 O 0.65381 0.05366 0.01932 0.0
Cd72 Cd 0.62047 0.03395 0.02893 0.0
O73 O 0.65629 0.02907 0.00598 0.0
Cd74 Cd 0.62434 -0.00086 0.01103 0.0
C75 C 0.6022 0.01331 0.96774 0.0
O76 O 0.61665 0.00735 0.05458 0.0
O77 O 0.59327 0.98349 0.03415 0.0
O78 O 0.64359 0.98485 0.02269 0.0
C79 C 0.59951 0.99359 0.05515 0.0
O80 O 0.60347 0.0248 0.98614 0.0
C81 C 0.63355 0.96935 0.00991 0.0
O82 O 0.60972 0.00298 0.97065 0.0
O83 O 0.61919 0.96762 -0.00276 0.0
C84 C 0.61924 0.67305 0.34276 0.0
O85 O 0.61286 0.68314 0.35263 0.0
Cd86 Cd 0.63266 0.716 0.36435 0.0
O87 O 0.63717 0.68026 0.3388 0.0
Cd88 Cd 0.66744 0.71181 0.34588 0.0
C89 C 0.65348 0.73474 0.30377 0.0
O90 O 0.65914 0.71894 0.38966 0.0
O91 O 0.6831 0.74252 0.37016 0.0
O92 O 0.6821 0.69283 0.3573 0.0
C93 C 0.67293 0.736 0.39092 0.0
O94 O 0.64205 0.7334 0.32223 0.0
C95 C 0.69759 0.703 0.3447 0.0
O96 O 0.66374 0.72708 0.30625 0.0
O97 O 0.69904 0.71716 0.33209 0.0
C98 C 0.2785 0.99733 0.33324 0.0
O99 O 0.26133 0.98796 0.32499 0.0
Cd100 Cd 0.24565 0.9546 0.31493 0.0
O101 O 0.28821 0.98907 0.33602 0.0
Cd102 Cd 0.2839 0.95657 0.32835 0.0
C103 C 0.24895 0.93575 0.37438 0.0
O104 O 0.26634 0.94937 0.28607 0.0
O105 O 0.26578 0.92549 0.3054 0.0
O106 O 0.317 0.97339 0.31251 0.0
C107 C 0.26199 0.93205 0.28495 0.0
O108 O 0.23833 0.93758 0.35739 0.0
C109 C 0.3223 0.96339 0.32514 0.0
O110 O 0.26669 0.94249 0.36977 0.0
O111 O 0.30982 0.95028 0.33981 0.0
C112 C 0.00922 0.28846 0.33133 0.0
O113 O 0.02077 0.28334 0.32303 0.0
Cd114 Cd 0.05398 0.30383 0.31279 0.0
O115 O 0.01486 0.30609 0.33523 0.0
Cd116 Cd 0.04507 0.33775 0.33081 0.0
C117 C 0.06965 0.3257 0.37406 0.0
O118 O 0.05411 0.32915 0.28965 0.0
O119 O 0.07518 0.35669 0.30496 0.0
O120 O 0.02537 0.35076 0.31677 0.0
C121 C 0.07021 0.34413 0.28678 0.0
O122 O 0.0703 0.3151 0.35573 0.0
C123 C 0.03343 0.3656 0.33148 0.0
O124 O 0.06037 0.33435 0.3708 0.0
O125 O 0.04659 0.36722 0.34697 0.0
C126 C 0.61416 0.94653 0.3477 0.0
O127 O 0.60902 0.92988 0.35592 0.0
Cd128 Cd 0.63086 0.91874 0.36339 0.0
O129 O 0.63177 0.95834 0.3428 0.0
Cd130 Cd 0.66279 0.95861 0.34542 0.0
C131 C 0.64947 0.9224 0.30118 0.0
O132 O 0.6572 0.94314 0.3888 0.0
O133 O 0.68064 0.94478 0.36629 0.0
O134 O 0.6781 0.99243 0.35792 0.0
C135 C 0.67161 0.941 0.38815 0.0
O136 O 0.63973 0.91123 0.32002 0.0
C137 C 0.69226 -0.00189 0.34223 0.0
O138 O 0.65795 0.94042 0.30446 0.0
O139 O 0.69262 0.98548 0.32762 0.0
C140 C -0.00097 0.71368 0.33727 0.0
O141 O 0.00776 0.73043 0.32779 0.0
Cd142 Cd 0.04106 0.74642 0.3169 0.0
O143 O 0.0079 0.70468 0.34119 0.0
Cd144 Cd 0.04039 0.70897 0.33477 0.0
C145 C 0.06156 0.74669 0.37698 0.0
O146 O 0.04569 0.72396 0.29128 0.0
O147 O 0.07048 0.72529 0.30933 0.0
O148 O 0.02319 0.675 0.32353 0.0
C149 C 0.063 0.72831 0.28916 0.0
O150 O 0.05894 0.75617 0.35905 0.0
C151 C 0.03372 0.67081 0.33713 0.0
O152 O 0.05522 0.72892 0.37395 0.0
O153 O 0.04741 0.68437 0.35 0.0
C154 C 0.32915 0.38048 0.33921 0.0
O155 O 0.31867 0.38733 0.34567 0.0
Cd156 Cd 0.28544 0.3683 0.35757 0.0
O157 O 0.32211 0.36245 0.33799 0.0
Cd158 Cd 0.29051 0.33264 0.34532 0.0
C159 C 0.26566 0.34281 0.30001 0.0
O160 O 0.28337 0.34409 0.38676 0.0
O161 O 0.26095 0.31696 0.3719 0.0
O162 O 0.31005 0.31878 0.35828 0.0
C163 C 0.26686 0.32964 0.39004 0.0
O164 O 0.26656 0.3551 0.31675 0.0
C165 C 0.29989 0.30298 0.34616 0.0
O166 O 0.27442 0.33379 0.30445 0.0
O167 O 0.28546 0.30098 0.33341 0.0
C168 C 0.28858 0.00913 0.67224 0.0
O169 O 0.28334 0.02066 0.68003 0.0
Cd170 Cd 0.30529 0.05317 0.69207 0.0
O171 O 0.30634 0.01475 0.6698 0.0
Cd172 Cd 0.33753 0.04532 0.67664 0.0
C173 C 0.32816 0.0711 0.63302 0.0
O174 O 0.32931 0.05305 0.72007 0.0
O175 O 0.35455 0.07582 0.70163 0.0
O176 O 0.35072 0.02497 0.68808 0.0
C177 C 0.34402 0.06951 0.7221 0.0
O178 O 0.31745 0.07179 0.65106 0.0
C179 C 0.36639 0.03474 0.67567 0.0
O180 O 0.33593 0.06102 0.63621 0.0
O181 O 0.36856 0.04926 0.66327 0.0
C182 C 0.94311 0.32657 0.66963 0.0
O183 O 0.92571 0.31498 0.66365 0.0
Cd184 Cd 0.91275 0.28201 0.65146 0.0
O185 O 0.9552 0.32093 0.67034 0.0
Cd186 Cd 0.95504 0.29035 0.66308 0.0
C187 C 0.92017 0.26438 0.70879 0.0
O188 O 0.93578 0.28131 0.62209 0.0
O189 O 0.94228 0.26051 0.63714 0.0
O190 O 0.98873 0.30953 0.64925 0.0
C191 C 0.93466 0.26529 0.61907 0.0
O192 O 0.90794 0.26385 0.69236 0.0
C193 C 0.99461 0.30077 0.66374 0.0
O194 O 0.93802 0.27418 0.70379 0.0
O195 O 0.98217 0.28738 0.67806 0.0
C196 C 0.67095 0.62722 0.65656 0.0
O197 O 0.68217 0.6218 0.6478 0.0
Cd198 Cd 0.71564 0.64138 0.63847 0.0
O199 O 0.67712 0.64483 0.66173 0.0
Cd200 Cd 0.70797 0.6762 0.65963 0.0
C201 C 0.73088 0.6608 0.70125 0.0
O202 O 0.71645 0.6679 0.61812 0.0
O203 O 0.73792 0.69534 0.63291 0.0
O204 O 0.68833 0.69041 0.6502 0.0
C205 C 0.73271 0.68259 0.61498 0.0
O206 O 0.73132 0.65056 0.68219 0.0
C207 C 0.69749 0.70477 0.66558 0.0
O208 O 0.72237 0.67026 0.69864 0.0
O209 O 0.71134 0.70567 0.67867 0.0
C210 C 0.28141 0.27236 0.68146 0.0
O211 O 0.27544 0.25529 0.68863 0.0
Cd212 Cd 0.29562 0.24233 0.69804 0.0
O213 O 0.2993 0.28411 0.67871 0.0
Cd214 Cd 0.33017 0.28452 0.68398 0.0
C215 C 0.31814 0.24909 0.63785 0.0
O216 O 0.32109 0.26597 0.72504 0.0
O217 O 0.34802 0.27211 0.70799 0.0
O218 O 0.34428 0.3179 0.69813 0.0
C219 C 0.33601 0.26474 0.72677 0.0
O220 O 0.30686 0.23723 0.65505 0.0
C221 C 0.35898 0.32428 0.68332 0.0
O222 O 0.32714 0.26696 0.64278 0.0
O223 O 0.36025 0.31221 0.66857 0.0
C224 C 0.67181 0.05272 0.67039 0.0
O225 O 0.6832 0.06962 0.66258 0.0
Cd226 Cd 0.71594 0.08127 0.65102 0.0
O227 O 0.67766 0.04094 0.67328 0.0
Cd228 Cd 0.70847 0.04129 0.66787 0.0
C229 C 0.73358 0.07799 0.71096 0.0
O230 O 0.7163 0.05669 0.62447 0.0
O231 O 0.73921 0.05517 0.64376 0.0
O232 O 0.68972 0.00723 0.65636 0.0
C233 C 0.73291 0.05897 0.623 0.0
O234 O 0.73446 0.08912 0.69255 0.0
C235 C 0.69908 0.00226 0.67127 0.0
O236 O 0.72364 0.05997 0.70784 0.0
O237 O 0.71255 0.01537 0.68498 0.0
C238 C 0.99113 0.71308 0.67291 0.0
O239 O 0.97958 0.71856 0.67976 0.0
Cd240 Cd 0.94673 0.69806 0.69226 0.0
O241 O 0.98552 0.69531 0.67155 0.0
Cd242 Cd 0.95513 0.66411 0.67914 0.0
C243 C 0.92813 0.67211 0.63463 0.0
O244 O 0.94656 0.67437 0.72036 0.0
O245 O 0.92551 0.64668 0.70534 0.0
O246 O 0.9757 0.65148 0.69259 0.0
C247 C 0.93044 0.65934 0.72334 0.0
O248 O 0.92818 0.68393 0.6515 0.0
C249 C 0.96661 0.63596 0.67946 0.0
O250 O 0.93797 0.66415 0.63876 0.0
O251 O 0.95234 0.63361 0.66589 0.0
H252 H 0.15451 0.332 0.13312 0.0
H253 H 0.14302 0.33492 0.04991 0.0
H254 H 0.12847 0.36398 0.10887 0.0
H255 H 0.14704 0.30511 0.09511 0.0
H256 H 0.1545 0.31449 0.06251 0.0
H257 H 0.17063 0.3162 0.1333 0.0
H258 H 0.22881 0.33679 0.11003 0.0
H259 H 0.1884 0.33358 0.05191 0.0
C260 C 0.15012 0.33791 0.11729 0.0
C261 C 0.14213 0.34916 0.12406 0.0
C262 C 0.15106 0.33308 0.09053 0.0
C263 C 0.14359 0.33955 0.07042 0.0
C264 C 0.13577 0.35103 0.07695 0.0
C265 C 0.13562 0.35618 0.10368 0.0
C266 C 0.15676 0.31841 0.08408 0.0
C267 C 0.1772 0.32476 0.09187 0.0
C268 C 0.1817 0.32225 0.11823 0.0
C269 C 0.20035 0.32676 0.12494 0.0
C270 C 0.21437 0.33336 0.10507 0.0
C271 C 0.21014 0.33576 0.07884 0.0
C272 C 0.19168 0.33187 0.07232 0.0
H273 H 0.67696 0.8279 0.13932 0.0
H274 H 0.66319 0.81183 0.05649 0.0
H275 H 0.64136 0.76899 0.1175 0.0
H276 H 0.69573 0.85021 0.1014 0.0
H277 H 0.68677 0.84437 0.06801 0.0
H278 H 0.67494 0.85485 0.13694 0.0
H279 H 0.64797 0.88447 0.10607 0.0
H280 H 0.66839 0.85768 0.05185 0.0
C281 C 0.66924 0.81716 0.12411 0.0
C282 C 0.65839 0.79795 0.13152 0.0
C283 C 0.6704 0.82245 0.09713 0.0
C284 C 0.66157 0.80806 0.07744 0.0
C285 C 0.65108 0.78876 0.08477 0.0
C286 C 0.64908 0.78391 0.11183 0.0
C287 C 0.68235 0.8432 0.08929 0.0
C288 C 0.67181 0.85392 0.09393 0.0
C289 C 0.66934 0.85879 0.12012 0.0
C290 C 0.66084 0.86988 0.1246 0.0
C291 C 0.65436 0.8757 0.10276 0.0
C292 C 0.65713 0.87148 0.07659 0.0
C293 C 0.66582 0.86054 0.07214 0.0
H294 H 0.16379 0.79601 0.13406 0.0
H295 H 0.15808 0.79147 0.04848 0.0
H296 H 0.10804 0.76968 0.09778 0.0
H297 H 0.19033 0.80014 0.10503 0.0
H298 H 0.1885 0.80061 0.06958 0.0
H299 H 0.19451 0.82775 0.133 0.0
H300 H 0.22271 0.88197 0.09343 0.0
H301 H 0.19887 0.8302 0.0473 0.0
C302 C 0.15482 0.79221 0.11644 0.0
C303 C 0.1348 0.78235 0.11908 0.0
C304 C 0.16334 0.79604 0.091 0.0
C305 C 0.15164 0.78958 0.06805 0.0
C306 C 0.13161 0.77991 0.07043 0.0
C307 C 0.12349 0.77721 0.09592 0.0
C308 C 0.18477 0.80513 0.08858 0.0
C309 C 0.19457 0.82662 0.08993 0.0
C310 C 0.1986 0.83607 0.11485 0.0
C311 C 0.20906 0.85612 0.11633 0.0
C312 C 0.21463 0.86653 0.09249 0.0
C313 C 0.21164 0.85743 0.0676 0.0
C314 C 0.20115 0.8374 0.0664 0.0
H315 H 0.37146 0.19397 0.87786 0.0
H316 H 0.37647 0.20968 0.96117 0.0
H317 H 0.34648 0.22606 0.90681 0.0
H318 H 0.39876 0.19723 0.91021 0.0
H319 H 0.39375 0.19521 0.94509 0.0
H320 H 0.37961 0.17027 0.87919 0.0
H321 H 0.34823 0.11456 0.91398 0.0
H322 H 0.37173 0.16429 0.96442 0.0
C323 C 0.36794 0.20023 0.89444 0.0
C324 C 0.35741 0.20925 0.88965 0.0
C325 C 0.37443 0.19981 0.92038 0.0
C326 C 0.37081 0.20917 0.94139 0.0
C327 C 0.36056 0.21856 0.93667 0.0
C328 C 0.35359 0.21809 0.9109 0.0
C329 C 0.38691 0.1912 0.92501 0.0
C330 C 0.37577 0.16972 0.92194 0.0
C331 C 0.37321 0.16128 0.89644 0.0
C332 C 0.36344 0.14135 0.89338 0.0
C333 C 0.35582 0.12996 0.9161 0.0
C334 C 0.35914 0.138 0.94177 0.0
C335 C 0.36893 0.15795 0.94462 0.0
H336 H 0.85774 0.16921 0.87554 0.0
H337 H 0.86152 0.18509 0.95881 0.0
H338 H 0.89317 0.22766 0.89974 0.0
H339 H 0.85074 0.14561 0.91406 0.0
H340 H 0.84734 0.15195 0.94689 0.0
H341 H 0.82801 0.1434 0.8764 0.0
H342 H 0.77 0.11921 0.90262 0.0
H343 H 0.8156 0.14303 0.96032 0.0
C344 C 0.86281 0.17997 0.89111 0.0
C345 C 0.87562 0.19906 0.88444 0.0
C346 C 0.85744 0.17472 0.91792 0.0
C347 C 0.8651 0.18893 0.93804 0.0
C348 C 0.87823 0.20794 0.93142 0.0
C349 C 0.8832 0.21287 0.90472 0.0
C350 C 0.84548 0.15387 0.92534 0.0
C351 C 0.82446 0.14548 0.91894 0.0
C352 C 0.81798 0.1408 0.89234 0.0
C353 C 0.79836 0.13131 0.88645 0.0
C354 C 0.78521 0.12691 0.90715 0.0
C355 C 0.79125 0.13097 0.93376 0.0
C356 C 0.81092 0.14033 0.93967 0.0
H357 H 0.82008 0.63289 0.8657 0.0
H358 H 0.82429 0.62336 0.94936 0.0
H359 H 0.87477 0.65034 0.90058 0.0
H360 H 0.79213 0.60626 0.89414 0.0
H361 H 0.79346 0.60921 0.92947 0.0
H362 H 0.79064 0.63025 0.86475 0.0
H363 H 0.7646 0.65966 0.90035 0.0
H364 H 0.78374 0.62975 0.94998 0.0
C365 C 0.82865 0.63483 0.88328 0.0
C366 C 0.84857 0.64335 0.88063 0.0
C367 C 0.81975 0.6281 0.90823 0.0
C368 C 0.83107 0.62939 0.93041 0.0
C369 C 0.85099 0.63752 0.92782 0.0
C370 C 0.85957 0.6449 0.90306 0.0
C371 C 0.79812 0.61719 0.91036 0.0
C372 C 0.78963 0.62994 0.90778 0.0
C373 C 0.78678 0.63535 0.88233 0.0
C374 C 0.77767 0.64602 0.8794 0.0
C375 C 0.77174 0.65153 0.90239 0.0
C376 C 0.7733 0.6453 0.92781 0.0
C377 C 0.78264 0.6348 0.93047 0.0
H378 H 0.81644 0.66256 0.46784 0.0
H379 H 0.80415 0.66254 0.38421 0.0
H380 H 0.79169 0.69498 0.44009 0.0
H381 H 0.80725 0.63381 0.43181 0.0
H382 H 0.81488 0.64196 0.39877 0.0
H383 H 0.83076 0.64468 0.46972 0.0
H384 H 0.88854 0.6628 0.44703 0.0
H385 H 0.84896 0.6603 0.38802 0.0
C386 C 0.81214 0.6681 0.4514 0.0
C387 C 0.80479 0.68009 0.45695 0.0
C388 C 0.81251 0.66204 0.42512 0.0
C389 C 0.80517 0.66807 0.40428 0.0
C390 C 0.79797 0.68026 0.40957 0.0
C391 C 0.79839 0.68662 0.43579 0.0
C392 C 0.81734 0.64658 0.42008 0.0
C393 C 0.83759 0.65234 0.42807 0.0
C394 C 0.84185 0.65004 0.45464 0.0
C395 C 0.86025 0.6539 0.4616 0.0
C396 C 0.87425 0.6597 0.44178 0.0
C397 C 0.87027 0.66191 0.41532 0.0
C398 C 0.85207 0.65869 0.40856 0.0
H399 H 0.35368 0.16511 0.46767 0.0
H400 H 0.33819 0.14917 0.38504 0.0
H401 H 0.32833 0.10656 0.44307 0.0
H402 H 0.36888 0.18876 0.42979 0.0
H403 H 0.35918 0.1823 0.39691 0.0
H404 H 0.34561 0.18801 0.46757 0.0
H405 H 0.31631 0.21639 0.44109 0.0
H406 H 0.33963 0.19458 0.38332 0.0
C407 C 0.34706 0.15429 0.45224 0.0
C408 C 0.34061 0.13519 0.4586 0.0
C409 C 0.34604 0.15954 0.42575 0.0
C410 C 0.3385 0.14532 0.40563 0.0
C411 C 0.33235 0.12627 0.41195 0.0
C412 C 0.33322 0.12134 0.43835 0.0
C413 C 0.35526 0.18041 0.41844 0.0
C414 C 0.34275 0.18883 0.42468 0.0
C415 C 0.33961 0.19207 0.45142 0.0
C416 C 0.3302 0.20211 0.4574 0.0
C417 C 0.32329 0.20833 0.43653 0.0
C418 C 0.32669 0.20574 0.40988 0.0
C419 C 0.3364 0.19596 0.40394 0.0
H420 H 0.83461 0.12412 0.46852 0.0
H421 H 0.82943 0.12373 0.38291 0.0
H422 H 0.7792 0.10057 0.4319 0.0
H423 H 0.86141 0.12986 0.43877 0.0
H424 H 0.85978 0.13209 0.40357 0.0
H425 H 0.86002 0.15594 0.46923 0.0
H426 H 0.89713 0.21199 0.43852 0.0
H427 H 0.87639 0.16329 0.38629 0.0
C428 C 0.82583 0.12147 0.45093 0.0
C429 C 0.80581 0.11182 0.45339 0.0
C430 C 0.83456 0.12658 0.42562 0.0
C431 C 0.82296 0.12115 0.40254 0.0
C432 C 0.80294 0.11164 0.40485 0.0
C433 C 0.79467 0.10793 0.43027 0.0
C434 C 0.85604 0.13573 0.42327 0.0
C435 C 0.86622 0.15717 0.427 0.0
C436 C 0.86716 0.16515 0.45243 0.0
C437 C 0.87789 0.18499 0.45648 0.0
C438 C 0.88784 0.19682 0.43495 0.0
C439 C 0.88762 0.18919 0.40966 0.0
C440 C 0.87648 0.16933 0.40569 0.0
H441 H 0.04214 0.54059 0.20397 0.0
H442 H 0.04011 0.54395 0.28977 0.0
H443 H 0.01579 0.56924 0.24029 0.0
H444 H 0.06325 0.53418 0.23476 0.0
H445 H 0.05824 0.53122 0.26973 0.0
H446 H 0.03275 0.5104 0.20331 0.0
H447 H 0.01002 0.45294 0.22869 0.0
H448 H 0.04488 0.49902 0.28263 0.0
C449 C 0.0372 0.54434 0.22178 0.0
C450 C 0.02733 0.55426 0.2192 0.0
C451 C 0.04091 0.53953 0.24717 0.0
C452 C 0.03625 0.54646 0.27014 0.0
C453 C 0.02726 0.55729 0.26768 0.0
C454 C 0.02233 0.56052 0.24225 0.0
C455 C 0.05146 0.52864 0.24965 0.0
C456 C 0.03865 0.50735 0.24462 0.0
C457 C 0.03038 0.50058 0.2192 0.0
C458 C 0.01985 0.481 0.21347 0.0
C459 C 0.01769 0.46809 0.23333 0.0
C460 C 0.02734 0.47438 0.25782 0.0
C461 C 0.03724 0.49403 0.26385 0.0
H462 H 0.52055 0.50628 0.20771 0.0
H463 H 0.52608 0.52269 0.2908 0.0
H464 H 0.54327 0.56493 0.22943 0.0
H465 H 0.52149 0.48565 0.24715 0.0
H466 H 0.51599 0.49032 0.27983 0.0
H467 H 0.4969 0.47566 0.20985 0.0
H468 H 0.43849 0.44382 0.23565 0.0
H469 H 0.48276 0.47725 0.29271 0.0
C470 C 0.52385 0.51695 0.22304 0.0
C471 C 0.53142 0.53602 0.2155 0.0
C472 C 0.52104 0.51179 0.2502 0.0
C473 C 0.52711 0.52625 0.26982 0.0
C474 C 0.53512 0.54544 0.26234 0.0
C475 C 0.53663 0.55008 0.23523 0.0
C476 C 0.51344 0.49125 0.25821 0.0
C477 C 0.49233 0.47858 0.25186 0.0
C478 C 0.48642 0.47183 0.22557 0.0
C479 C 0.46704 0.45938 0.21964 0.0
C480 C 0.45351 0.45354 0.24011 0.0
C481 C 0.45906 0.45984 0.26636 0.0
C482 C 0.47846 0.47251 0.27229 0.0
H483 H 0.48974 0.95524 0.19887 0.0
H484 H 0.49014 0.95323 0.2847 0.0
H485 H 0.54309 0.981 0.24148 0.0
H486 H 0.4611 0.93149 0.22605 0.0
H487 H 0.46064 0.93492 0.26115 0.0
H488 H 0.46214 0.95662 0.19436 0.0
H489 H 0.4274 0.97923 0.22158 0.0
H490 H 0.44722 0.9533 0.27758 0.0
C491 C 0.49759 0.95962 0.21751 0.0
C492 C 0.5177 0.96903 0.21715 0.0
C493 C 0.48751 0.95455 0.24188 0.0
C494 C 0.49779 0.9583 0.26601 0.0
C495 C 0.51789 0.96757 0.2659 0.0
C496 C 0.5276 0.97376 0.24155 0.0
C497 C 0.46586 0.94264 0.24192 0.0
C498 C 0.45651 0.95439 0.23675 0.0
C499 C 0.45553 0.96005 0.21057 0.0
C500 C 0.44534 0.96936 0.205 0.0
C501 C 0.43622 0.97309 0.226 0.0
C502 C 0.43674 0.96735 0.25218 0.0
C503 C 0.44707 0.95812 0.25752 0.0
H504 H 0.48231 0.99339 0.80133 0.0
H505 H 0.47666 0.99791 0.71651 0.0
H506 H 0.45504 0.02301 0.7718 0.0
H507 H 0.48387 0.97053 0.76569 0.0
H508 H 0.48962 0.97899 0.73221 0.0
H509 H 0.50718 0.98789 0.80323 0.0
H510 H 0.56607 0.02325 0.78112 0.0
H511 H 0.52239 0.00229 0.72052 0.0
C512 C 0.47837 -0.00093 0.78465 0.0
C513 C 0.46902 0.0093 0.78963 0.0
C514 C 0.48191 0.9955 0.75834 0.0
C515 C 0.4751 0.00154 0.73685 0.0
C516 C 0.46558 0.01167 0.74174 0.0
C517 C 0.46315 0.01596 0.76807 0.0
C518 C 0.49126 0.98369 0.75345 0.0
C519 C 0.51222 0.99458 0.76111 0.0
C520 C 0.51781 0.99554 0.788 0.0
C521 C 0.53717 0.00629 0.7953 0.0
C522 C 0.55103 0.0156 0.77558 0.0
C523 C 0.54585 0.01384 0.74861 0.0
C524 C 0.52641 0.00358 0.7414 0.0
H525 H 0.01096 0.49224 0.80175 0.0
H526 H -0.00336 0.47689 0.71883 0.0
H527 H 0.97376 0.43375 0.77938 0.0
H528 H 0.03046 0.51416 0.76342 0.0
H529 H 0.02079 0.50903 0.7304 0.0
H530 H 0.01108 0.51994 0.80056 0.0
H531 H 0.9887 0.5544 0.77247 0.0
H532 H 0.00448 0.52492 0.71592 0.0
C533 C 0.00284 0.48174 0.78647 0.0
C534 C 0.9915 0.46252 0.7937 0.0
C535 C 0.00408 0.48726 0.75958 0.0
C536 C 0.99486 0.47302 0.73975 0.0
C537 C 0.98391 0.4537 0.74689 0.0
C538 C 0.98181 0.4487 0.77389 0.0
C539 C 0.01685 0.50798 0.75188 0.0
C540 C 0.00774 0.51995 0.75762 0.0
C541 C 0.00611 0.52489 0.78417 0.0
C542 C -0.0007 0.53733 0.78961 0.0
C543 C 0.99381 0.54462 0.76841 0.0
C544 C 0.9957 0.54029 0.74195 0.0
C545 C 0.00258 0.52788 0.73648 0.0
H546 H 0.5016 0.46965 0.79875 0.0
H547 H 0.49193 0.4571 0.71456 0.0
H548 H 0.44444 0.43726 0.76856 0.0
H549 H 0.52689 0.47024 0.76662 0.0
H550 H 0.52392 0.47182 0.73165 0.0
H551 H 0.52843 0.49689 0.79776 0.0
H552 H 0.56157 0.55236 0.76386 0.0
H553 H 0.53811 0.50274 0.71286 0.0
C554 C 0.49201 0.46413 0.78184 0.0
C555 C 0.47223 0.45426 0.78644 0.0
C556 C 0.49935 0.46608 0.75583 0.0
C557 C 0.4865 0.45687 0.73443 0.0
C558 C 0.46663 0.44654 0.73897 0.0
C559 C 0.4597 0.44589 0.76483 0.0
C560 C 0.52079 0.47571 0.7516 0.0
C561 C 0.53092 0.49725 0.7547 0.0
C562 C 0.53375 0.5057 0.78022 0.0
C563 C 0.54417 0.5256 0.78347 0.0
C564 C 0.55236 0.53709 0.76103 0.0
C565 C 0.55062 0.52904 0.73556 0.0
C566 C 0.53943 0.50909 0.73242 0.0
H567 H 0.71331 0.87664 0.53867 0.0
H568 H 0.70875 0.87805 0.62436 0.0
H569 H 0.68379 0.9025 0.57475 0.0
H570 H 0.73389 0.87047 0.56846 0.0
H571 H 0.73087 0.86972 0.60384 0.0
H572 H 0.71079 0.84335 0.53976 0.0
H573 H 0.67936 0.78891 0.57844 0.0
H574 H 0.70936 0.83999 0.62565 0.0
C575 C 0.70775 0.88002 0.55624 0.0
C576 C 0.69818 0.89028 0.5536 0.0
C577 C 0.71124 0.87516 0.58174 0.0
C578 C 0.70524 0.88084 0.60467 0.0
C579 C 0.69529 0.8907 0.60216 0.0
C580 C 0.69128 0.89468 0.57663 0.0
C581 C 0.72293 0.86558 0.58454 0.0
C582 C 0.71037 0.84414 0.58285 0.0
C583 C 0.70538 0.83493 0.55773 0.0
C584 C 0.6946 0.8149 0.55592 0.0
C585 C 0.68788 0.80435 0.57953 0.0
C586 C 0.69351 0.81315 0.60464 0.0
C587 C 0.70465 0.83311 0.60628 0.0
H588 H 0.18399 0.84342 0.54114 0.0
H589 H 0.18741 0.8585 0.6246 0.0
H590 H 0.209 0.90202 0.56452 0.0
H591 H 0.18011 0.82046 0.57964 0.0
H592 H 0.17526 0.82564 0.61249 0.0
H593 H 0.15673 0.81574 0.54148 0.0
H594 H 0.09809 0.79045 0.56504 0.0
H595 H 0.14233 0.81344 0.62491 0.0
C596 C 0.18736 0.85392 0.55674 0.0
C597 C 0.1961 0.87321 0.54978 0.0
C598 C 0.18321 0.84829 0.58364 0.0
C599 C 0.18949 0.86249 0.60373 0.0
C600 C 0.19887 0.88189 0.59682 0.0
C601 C 0.2015 0.88703 0.56986 0.0
C602 C 0.17333 0.82733 0.59089 0.0
C603 C 0.15219 0.81696 0.58392 0.0
C604 C 0.1463 0.81246 0.55709 0.0
C605 C 0.12688 0.80343 0.5502 0.0
C606 C 0.11317 0.79819 0.57031 0.0
C607 C 0.11857 0.80131 0.59724 0.0
C608 C 0.13813 0.81096 0.60407 0.0
H609 H 0.1602 0.30188 0.53878 0.0
H610 H 0.16465 0.29163 0.62204 0.0
H611 H 0.21472 0.31719 0.5724 0.0
H612 H 0.13206 0.27532 0.56761 0.0
H613 H 0.13376 0.27854 0.60288 0.0
H614 H 0.13137 0.29975 0.538 0.0
H615 H 0.10602 0.32984 0.5733 0.0
H616 H 0.12399 0.29903 0.62312 0.0
C617 C 0.1688 0.3034 0.55611 0.0
C618 C 0.18862 0.31126 0.55301 0.0
C619 C 0.16003 0.29676 0.58115 0.0
C620 C 0.17135 0.29756 0.60301 0.0
C621 C 0.19116 0.30504 0.60001 0.0
C622 C 0.19965 0.31227 0.57515 0.0
C623 C 0.13841 0.28636 0.58365 0.0
C624 C 0.13033 0.29947 0.58104 0.0
C625 C 0.12769 0.30501 0.55557 0.0
C626 C 0.11888 0.31594 0.55256 0.0
C627 C 0.11299 0.32156 0.57547 0.0
C628 C 0.1141 0.31501 0.60086 0.0
C629 C 0.12324 0.30433 0.60364 0.0
H630 H 0.97751 0.39531 0.09271 0.0
H631 H 0.04131 0.49444 0.16813 0.0
H632 H 0.03131 0.4407 0.06259 0.0
H633 H 0.986 0.45043 0.196 0.0
H634 H 0.03553 0.47719 0.12589 0.0
H635 H 0.9785 0.41678 0.12785 0.0
C636 C 0.98952 0.40981 0.09347 0.0
C637 C 0.00447 0.41617 0.07491 0.0
C638 C 0.02448 0.47147 0.14102 0.0
C639 C 0.00566 0.44087 0.11499 0.0
C640 C 0.02767 0.48145 0.16505 0.0
C641 C 0.01421 0.47372 0.18574 0.0
C642 C 0.00777 0.45356 0.13778 0.0
C643 C -0.00311 0.45671 0.1807 0.0
C644 C 0.99003 0.42211 0.11345 0.0
C645 C 0.01957 0.43516 0.07665 0.0
N646 N 0.99431 0.44702 0.15742 0.0
N647 N 0.01985 0.44679 0.09648 0.0
H648 H 0.5458 0.58989 0.06189 0.0
H649 H 0.55361 0.52947 0.1811 0.0
H650 H 0.59577 0.58494 0.07446 0.0
H651 H 0.51977 0.55655 0.18648 0.0
H652 H 0.56467 0.54359 0.13675 0.0
H653 H 0.53187 0.57188 0.10289 0.0
C654 C 0.55381 0.58495 0.07321 0.0
C655 C 0.57204 0.58903 0.06485 0.0
C656 C 0.55465 0.54624 0.14754 0.0
C657 C 0.55603 0.56821 0.11148 0.0
C658 C 0.54821 0.53806 0.17264 0.0
C659 C 0.53577 0.54188 0.18729 0.0
C660 C 0.54836 0.55806 0.13698 0.0
C661 C 0.52939 0.55331 0.17572 0.0
C662 C 0.54585 0.57471 0.09659 0.0
C663 C 0.58176 0.58227 0.08031 0.0
N664 N 0.53575 0.56102 0.15121 0.0
N665 N 0.5736 0.57212 0.10286 0.0
H666 H 0.40228 0.00541 0.07543 0.0
H667 H 0.43756 0.94661 0.16051 0.0
H668 H 0.40577 0.95786 0.04329 0.0
H669 H 0.44525 0.00088 0.18605 0.0
H670 H 0.42713 0.95105 0.11681 0.0
H671 H 0.4184 0.00419 0.11593 0.0
C672 C 0.40644 0.99473 0.07685 0.0
C673 C 0.40254 0.98165 0.05595 0.0
C674 C 0.43132 0.9621 0.13187 0.0
C675 C 0.42103 0.98018 0.10229 0.0
C676 C 0.43746 0.95965 0.15679 0.0
C677 C 0.44213 0.97331 0.17712 0.0
C678 C 0.42967 0.97824 0.1273 0.0
C679 C 0.44143 0.9898 0.17115 0.0
C680 C 0.41574 0.9941 0.09994 0.0
C681 C 0.40841 0.9682 0.05888 0.0
N682 N 0.43508 0.99169 0.14692 0.0
N683 N 0.41723 0.96773 0.08168 0.0
H684 H 0.39011 0.97755 0.91685 0.0
H685 H 0.4721 0.04071 0.81509 0.0
H686 H 0.42698 0.03808 0.93025 0.0
H687 H 0.45056 0.98055 0.82538 0.0
H688 H 0.45578 0.04083 0.85637 0.0
H689 H 0.4115 0.97886 0.88163 0.0
C690 C 0.40272 0.99115 0.91234 0.0
C691 C 0.40675 0.00777 0.92638 0.0
C692 C 0.45496 0.02771 0.84983 0.0
C693 C 0.4313 0.00936 0.88599 0.0
C694 C 0.46424 0.02763 0.82635 0.0
C695 C 0.46261 0.01058 0.81686 0.0
C696 C 0.44369 0.01054 0.8635 0.0
C697 C 0.45229 0.99402 0.83211 0.0
C698 C 0.41501 0.99185 0.89237 0.0
C699 C 0.42337 0.02496 0.91983 0.0
N700 N 0.44296 0.99435 0.85445 0.0
N701 N 0.43498 0.02537 0.89984 0.0
H702 H 0.01597 0.41496 0.93007 0.0
H703 H 0.96012 0.44138 0.8246 0.0
H704 H 0.95937 0.40566 0.94478 0.0
H705 H 0.02165 0.46857 0.82496 0.0
H706 H 0.95911 0.42677 0.86764 0.0
H707 H 0.01792 0.43281 0.88979 0.0
C708 C 0.00394 0.4166 0.92479 0.0
C709 C 0.98746 0.40876 0.94078 0.0
C710 C 0.97286 0.43614 0.85851 0.0
C711 C 0.98962 0.42914 0.89483 0.0
C712 C 0.97342 0.44449 0.83405 0.0
C713 C 0.99099 0.45623 0.82145 0.0
C714 C 0.98997 0.43923 0.87013 0.0
C715 C 0.00785 0.45975 0.83428 0.0
C716 C 0.00513 0.42691 0.90193 0.0
C717 C 0.97236 0.41146 0.93308 0.0
N718 N 0.00693 0.45107 0.85781 0.0
N719 N 0.97376 0.42131 0.91058 0.0
H720 H 0.59279 0.56527 0.94066 0.0
H721 H 0.54286 0.55712 0.79948 0.0
H722 H 0.58231 0.60849 0.90948 0.0
H723 H 0.55569 0.515 0.82842 0.0
H724 H 0.55438 0.57456 0.84169 0.0
H725 H 0.57682 0.54533 0.9015 0.0
C726 C 0.5871 0.57056 0.9256 0.0
C727 C 0.58898 0.58863 0.92826 0.0
C728 C 0.55452 0.56141 0.83895 0.0
C729 C 0.57062 0.56584 0.88344 0.0
C730 C 0.54793 0.55145 0.81486 0.0
C731 C 0.54843 0.53465 0.81037 0.0
C732 C 0.56177 0.5546 0.85871 0.0
C733 C 0.55493 0.52782 0.8311 0.0
C734 C 0.57795 0.55915 0.90327 0.0
C735 C 0.58128 0.59471 0.90818 0.0
N736 N 0.56151 0.53792 0.85428 0.0
N737 N 0.57249 0.58336 0.8866 0.0
H738 H 0.00641 0.60788 0.92316 0.0
H739 H 0.9841 0.51609 0.83506 0.0
H740 H 0.9701 0.55011 0.95058 0.0
H741 H 0.01416 0.57401 0.80648 0.0
H742 H 0.9815 0.52803 0.87926 0.0
H743 H 0.01177 0.59544 0.88177 0.0
C744 C -0.00045 0.59256 0.92051 0.0
C745 C 0.98768 0.58004 0.94038 0.0
C746 C 0.98873 0.5381 0.86331 0.0
C747 C 0.99384 0.56564 0.89283 0.0
C748 C 0.9903 0.5313 0.83821 0.0
C749 C -0.00088 0.54408 0.81711 0.0
C750 C -0.0038 0.55778 0.86722 0.0
C751 C 0.00695 0.56365 0.82213 0.0
C752 C 0.00264 0.58545 0.89682 0.0
C753 C 0.97928 0.56031 0.93577 0.0
N754 N 0.00523 0.56987 0.84658 0.0
N755 N 0.98248 0.5537 0.91244 0.0
H756 H 0.43701 0.40302 0.94148 0.0
H757 H 0.44183 0.45646 0.80571 0.0
H758 H 0.39275 0.41379 0.91492 0.0
H759 H 0.48449 0.44263 0.82935 0.0
H760 H 0.42581 0.44467 0.84859 0.0
H761 H 0.45649 0.42077 0.90312 0.0
C762 C 0.43141 0.40916 0.92761 0.0
C763 C 0.41317 0.40679 0.93124 0.0
C764 C 0.4388 0.44442 0.84455 0.0
C765 C 0.43539 0.42717 0.88743 0.0
C766 C 0.44795 0.45117 0.82011 0.0
C767 C 0.46441 0.45038 0.81391 0.0
C768 C 0.4461 0.4367 0.86287 0.0
C769 C 0.47189 0.4436 0.83337 0.0
C770 C 0.44255 0.41932 0.90577 0.0
C771 C 0.40668 0.41514 0.91277 0.0
N772 N 0.46255 0.43681 0.85687 0.0
N773 N 0.41774 0.42488 0.8916 0.0
H774 H 0.58734 0.98426 0.93075 0.0
H775 H 0.5577 0.03768 0.82669 0.0
H776 H 0.59241 0.03865 0.94867 0.0
H777 H 0.53178 0.97648 0.82621 0.0
H778 H 0.5723 0.03906 0.87012 0.0
H779 H 0.56912 0.98182 0.89042 0.0
C780 C 0.58468 0.99571 0.92617 0.0
C781 C 0.59147 0.01172 0.94305 0.0
C782 C 0.5632 0.0253 0.86071 0.0
C783 C 0.57069 0.00901 0.89701 0.0
C784 C 0.55486 0.02453 0.83604 0.0
C785 C 0.54348 0.00694 0.82313 0.0
C786 C 0.5605 0.0084 0.87217 0.0
C787 C 0.54033 0.99028 0.83578 0.0
C788 C 0.57416 0.99423 0.90329 0.0
C789 C 0.58745 0.02605 0.93624 0.0
N790 N 0.54903 0.99142 0.8595 0.0
N791 N 0.57747 0.02444 0.91363 0.0
H792 H 0.61043 0.0035 0.10688 0.0
H793 H 0.51059 0.97875 0.16722 0.0
H794 H 0.56042 0.97662 0.05613 0.0
H795 H 0.54936 0.96581 0.20862 0.0
H796 H 0.52984 0.98467 0.12648 0.0
H797 H 0.58962 0.99748 0.14557 0.0
C798 C 0.59508 0.99644 0.10389 0.0
C799 C 0.58708 0.9904 0.0784 0.0
C800 C 0.53402 0.9806 0.14467 0.0
C801 C 0.56336 0.98386 0.1223 0.0
C802 C 0.52306 0.97716 0.16786 0.0
C803 C 0.52855 0.97223 0.19174 0.0
C804 C 0.55069 0.97944 0.14562 0.0
C805 C 0.5449 0.97037 0.19121 0.0
C806 C 0.58325 0.99298 0.12591 0.0
C807 C 0.56709 0.98131 0.07557 0.0
N808 N 0.55549 0.97423 0.1687 0.0
N809 N 0.55584 0.9784 0.09731 0.0
H810 H 0.97765 0.58871 0.09565 0.0
H811 H 0.05099 0.5686 0.17556 0.0
H812 H 0.03368 0.60424 0.06585 0.0
H813 H 0.99398 0.55152 0.20261 0.0
H814 H 0.04447 0.57999 0.13395 0.0
H815 H 0.98309 0.57381 0.13408 0.0
C816 C 0.99111 0.58899 0.09719 0.0
C817 C 0.00527 0.59781 0.07758 0.0
C818 C 0.03335 0.57361 0.14892 0.0
C819 C 0.01161 0.58072 0.12159 0.0
C820 C 0.03701 0.56698 0.17257 0.0
C821 C 0.02305 0.55924 0.19265 0.0
C822 C 0.0156 0.57249 0.14537 0.0
C823 C 0.00525 0.55767 0.18783 0.0
C824 C 0.9942 0.58042 0.11913 0.0
C825 C 0.0224 0.59764 0.08057 0.0
N826 N 0.00209 0.56434 0.1648 0.0
N827 N 0.02513 0.58929 0.10223 0.0
H828 H 0.42514 0.44842 0.05873 0.0
H829 H 0.44463 0.42237 0.20399 0.0
H830 H 0.40401 0.39072 0.08541 0.0
H831 H 0.47434 0.47975 0.17346 0.0
H832 H 0.43025 0.41057 0.16007 0.0
H833 H 0.4435 0.46035 0.1002 0.0
C834 C 0.42434 0.43825 0.07328 0.0
C835 C 0.4129 0.41852 0.06862 0.0
C836 C 0.44005 0.42573 0.16281 0.0
C837 C 0.43393 0.43211 0.11605 0.0
C838 C 0.44825 0.43244 0.18786 0.0
C839 C 0.46054 0.45204 0.19227 0.0
C840 C 0.44398 0.43873 0.14206 0.0
C841 C 0.46493 0.46452 0.17075 0.0
C842 C 0.43491 0.44509 0.09688 0.0
C843 C 0.41256 0.40604 0.08813 0.0
N844 N 0.45645 0.45767 0.14658 0.0
N845 N 0.42282 0.41305 0.11102 0.0
H846 H 0.66152 0.7244 0.44184 0.0
H847 H 0.68829 0.82421 0.50519 0.0
H848 H 0.69085 0.77505 0.39365 0.0
H849 H 0.69576 0.78226 0.54742 0.0
H850 H 0.68321 0.80572 0.46369 0.0
H851 H 0.66691 0.74455 0.4812 0.0
C852 C 0.66902 0.73976 0.43955 0.0
C853 C 0.6759 0.74811 0.41458 0.0
C854 C 0.68591 0.80068 0.48222 0.0
C855 C 0.68178 0.77113 0.45928 0.0
C856 C 0.68885 0.8112 0.50584 0.0
C857 C 0.69197 0.80459 0.53011 0.0
C858 C 0.68579 0.78337 0.48311 0.0
C859 C 0.6926 0.78761 0.5296 0.0
C860 C 0.67212 0.75122 0.46196 0.0
C861 C 0.68551 0.76811 0.41267 0.0
N862 N 0.6893 0.77752 0.50664 0.0
N863 N 0.68809 0.77901 0.43478 0.0
H864 H 0.2635 0.92007 0.40855 0.0
H865 H 0.18548 0.89461 0.52105 0.0
H866 H 0.21493 0.92753 0.39717 0.0
H867 H 0.21847 0.86664 0.51572 0.0
H868 H 0.19732 0.9086 0.47696 0.0
H869 H 0.24888 0.90258 0.44972 0.0
C870 C 0.2498 0.91808 0.41474 0.0
C871 C 0.24045 0.92533 0.39945 0.0
C872 C 0.20177 0.8992 0.48526 0.0
C873 C 0.22372 0.90541 0.44648 0.0
C874 C 0.19501 0.89123 0.51033 0.0
C875 C 0.20098 0.87944 0.5218 0.0
C876 C 0.21493 0.89569 0.4719 0.0
C877 C 0.21343 0.87554 0.50733 0.0
C878 C 0.24141 0.90798 0.4381 0.0
C879 C 0.22264 0.92219 0.40832 0.0
N880 N 0.22023 0.88386 0.48322 0.0
N881 N 0.21493 0.9126 0.43137 0.0
H882 H 0.06321 0.33764 0.42208 0.0
H883 H 0.13908 0.32373 0.50519 0.0
H884 H 0.09762 0.31723 0.38487 0.0
H885 H 0.08618 0.31579 0.53807 0.0
H886 H 0.12889 0.32824 0.46101 0.0
H887 H 0.07711 0.33749 0.46532 0.0
C888 C 0.07383 0.33332 0.42295 0.0
C889 C 0.07911 0.32723 0.3999 0.0
C890 C 0.1197 0.32569 0.47809 0.0
C891 C 0.09511 0.32716 0.44921 0.0
C892 C 0.12543 0.32303 0.50326 0.0
C893 C 0.11363 0.31959 0.52563 0.0
C894 C 0.10221 0.32517 0.47541 0.0
C895 C 0.09614 0.319 0.5218 0.0
C896 C 0.08169 0.33317 0.44762 0.0
C897 C 0.09298 0.32181 0.40223 0.0
N898 N 0.09104 0.32184 0.49728 0.0
N899 N 0.1005 0.32187 0.4265 0.0
H900 H 0.06823 0.31514 0.25704 0.0
H901 H 0.14581 0.38041 0.15114 0.0
H902 H 0.10209 0.37621 0.26803 0.0
H903 H 0.12577 0.32043 0.1603 0.0
H904 H 0.1308 0.38005 0.19392 0.0
H905 H 0.08939 0.31733 0.22095 0.0
C906 C 0.08016 0.32904 0.25183 0.0
C907 C 0.08336 0.34555 0.26537 0.0
C908 C 0.13007 0.36709 0.18678 0.0
C909 C 0.10765 0.34818 0.22395 0.0
C910 C 0.13861 0.36729 0.16242 0.0
C911 C 0.13697 0.35042 0.15211 0.0
C912 C 0.11958 0.34983 0.20058 0.0
C913 C 0.12755 0.33381 0.16754 0.0
C914 C 0.09233 0.33027 0.23135 0.0
C915 C 0.09914 0.36316 0.25798 0.0
N916 N 0.11896 0.33388 0.19076 0.0
N917 N 0.11061 0.36406 0.23748 0.0
H918 H 0.68241 0.74978 0.26687 0.0
H919 H 0.62712 0.77725 0.16284 0.0
H920 H 0.62779 0.7443 0.28516 0.0
H921 H 0.68864 0.8043 0.16264 0.0
H922 H 0.62634 0.76327 0.2064 0.0
H923 H 0.68433 0.76767 0.22667 0.0
C924 C 0.67082 0.7523 0.26241 0.0
C925 C 0.65488 0.74549 0.27934 0.0
C926 C 0.64003 0.77249 0.19702 0.0
C927 C 0.65697 0.76584 0.23344 0.0
C928 C 0.64046 0.78046 0.17228 0.0
C929 C 0.65797 0.79198 0.1594 0.0
C930 C 0.65719 0.77569 0.20859 0.0
C931 C 0.67489 0.79563 0.17218 0.0
C932 C 0.67199 0.76263 0.2396 0.0
C933 C 0.64034 0.74931 0.27269 0.0
N934 N 0.67408 0.78728 0.19596 0.0
N935 N 0.64165 0.75907 0.25013 0.0
H936 H 0.23958 0.89306 0.28214 0.0
H937 H 0.24387 0.88798 0.12672 0.0
H938 H 0.26297 0.94379 0.23397 0.0
H939 H 0.19115 0.84757 0.16581 0.0
H940 H 0.25498 0.90606 0.16806 0.0
H941 H 0.22508 0.87354 0.24169 0.0
C942 C 0.24162 0.90006 0.26308 0.0
C943 C 0.25253 0.92004 0.26127 0.0
C944 C 0.24094 0.89329 0.1675 0.0
C945 C 0.23639 0.89793 0.21537 0.0
C946 C 0.23442 0.88298 0.14382 0.0
C947 C 0.21616 0.86646 0.14232 0.0
C948 C 0.22949 0.88683 0.19032 0.0
C949 C 0.20523 0.86025 0.16588 0.0
C950 C 0.23328 0.88895 0.24017 0.0
C951 C 0.25466 0.92844 0.23621 0.0
N952 N 0.2121 0.87044 0.18903 0.0
N953 N 0.2469 0.91733 0.21416 0.0
H954 H 0.66725 0.94196 0.25587 0.0
H955 H 0.6484 0.8498 0.17156 0.0
H956 H 0.63635 0.88488 0.28772 0.0
H957 H 0.67199 0.90633 0.13909 0.0
H958 H 0.64598 0.86228 0.21541 0.0
H959 H 0.67094 0.92901 0.21383 0.0
C960 C 0.6612 0.92668 0.25404 0.0
C961 C 0.65141 0.9145 0.2754 0.0
C962 C 0.65168 0.87191 0.19865 0.0
C963 C 0.65567 0.89951 0.2271 0.0
C964 C 0.65315 0.86482 0.17373 0.0
C965 C 0.66016 0.87701 0.15167 0.0
C966 C 0.65747 0.89134 0.20142 0.0
C967 C 0.66615 0.89636 0.15547 0.0
C968 C 0.66332 0.91927 0.22997 0.0
C969 C 0.64393 0.8948 0.27176 0.0
N970 N 0.66463 0.90289 0.1798 0.0
N971 N 0.64623 0.88791 0.24807 0.0
H972 H 0.04907 0.72636 0.23925 0.0
H973 H 0.14567 0.80014 0.16867 0.0
H974 H 0.10196 0.75072 0.28382 0.0
H975 H 0.10273 0.74811 0.1301 0.0
H976 H 0.12894 0.78773 0.21141 0.0
H977 H 0.06744 0.74058 0.19855 0.0
C978 C 0.06455 0.7348 0.24047 0.0
C979 C 0.07406 0.73727 0.2648 0.0
C980 C 0.12329 0.77921 0.1934 0.0
C981 C 0.09503 0.75376 0.21856 0.0
C982 C 0.1328 0.78621 0.16908 0.0
C983 C 0.1254 0.7754 0.14549 0.0
C984 C 0.10618 0.76151 0.1939 0.0
C985 C 0.10864 0.75739 0.14735 0.0
C986 C 0.07498 0.74284 0.21729 0.0
C987 C 0.09415 0.74835 0.26532 0.0
N988 N 0.09951 0.75116 0.171 0.0
N989 N 0.10404 0.75633 0.24246 0.0
H990 H 0.24281 0.35719 0.28573 0.0
H991 H 0.21889 0.30847 0.14116 0.0
H992 H 0.26171 0.31902 0.25824 0.0
H993 H 0.19465 0.34142 0.17113 0.0
H994 H 0.23288 0.31045 0.18508 0.0
H995 H 0.2239 0.35049 0.24492 0.0
C996 C 0.243 0.34739 0.27114 0.0
C997 C 0.25402 0.33876 0.27539 0.0
C998 C 0.22432 0.31706 0.18223 0.0
C999 C 0.23228 0.33098 0.22859 0.0
C1000 C 0.2163 0.31589 0.15719 0.0
C1001 C 0.20574 0.32492 0.15254 0.0
C1002 C 0.22196 0.32753 0.20278 0.0
C1003 C 0.20268 0.33424 0.17396 0.0
C1004 C 0.2321 0.34351 0.24788 0.0
C1005 C 0.25354 0.32608 0.25581 0.0
N1006 N 0.21098 0.33553 0.1981 0.0
N1007 N 0.24295 0.32267 0.23324 0.0
H1008 H 0.27544 0.35519 0.43103 0.0
H1009 H 0.17582 0.29072 0.50637 0.0
H1010 H 0.23017 0.30119 0.40059 0.0
H1011 H 0.2226 0.3428 0.53911 0.0
H1012 H 0.19384 0.29643 0.46486 0.0
H1013 H 0.25497 0.35259 0.46858 0.0
C1014 C 0.26118 0.34279 0.43223 0.0
C1015 C 0.25456 0.32832 0.41275 0.0
C1016 C 0.20008 0.30673 0.481 0.0
C1017 C 0.23098 0.32528 0.45563 0.0
C1018 C 0.1897 0.30358 0.50461 0.0
C1019 C 0.19778 0.31625 0.52628 0.0
C1020 C 0.21866 0.32265 0.47908 0.0
C1021 C 0.21595 0.33255 0.52299 0.0
C1022 C 0.24948 0.34133 0.45364 0.0
C1023 C 0.23591 0.31263 0.41524 0.0
N1024 N 0.22584 0.33519 0.49995 0.0
N1025 N 0.2248 0.31149 0.43634 0.0
H1026 H 0.69011 0.92057 0.38816 0.0
H1027 H 0.70347 0.92563 0.54424 0.0
H1028 H 0.66444 0.9437 0.44044 0.0
H1029 H 0.69032 0.87341 0.50329 0.0
H1030 H 0.69758 0.93752 0.50311 0.0
H1031 H 0.6979 0.90764 0.42748 0.0
C1032 C 0.68621 0.92298 0.40788 0.0
C1033 C 0.67664 0.93321 0.41118 0.0
C1034 C 0.69602 0.92347 0.50315 0.0
C1035 C 0.68576 0.91889 0.45571 0.0
C1036 C 0.69924 0.91657 0.52664 0.0
C1037 C 0.69672 0.89816 0.52753 0.0
C1038 C 0.69073 0.91218 0.48001 0.0
C1039 C 0.6922 0.88757 0.5036 0.0
C1040 C 0.69054 0.91553 0.43014 0.0
C1041 C 0.67177 0.93585 0.43705 0.0
N1042 N 0.68925 0.89472 0.48069 0.0
N1043 N 0.67657 0.92893 0.45836 0.0
H1044 H 0.06855 0.78088 0.39781 0.0
H1045 H 0.13525 0.78239 0.51614 0.0
H1046 H 0.07975 0.73507 0.41129 0.0
H1047 H 0.10349 0.81165 0.52144 0.0
H1048 H 0.1208 0.76976 0.47216 0.0
H1049 H 0.08677 0.79684 0.43832 0.0
C1050 C 0.07488 0.77421 0.40923 0.0
C1051 C 0.07251 0.75655 0.40131 0.0
C1052 C 0.11717 0.77911 0.48287 0.0
C1053 C 0.09357 0.77485 0.44725 0.0
C1054 C 0.12552 0.78643 0.50775 0.0
C1055 C 0.12047 0.798 0.52228 0.0
C1056 C 0.10392 0.78365 0.4724 0.0
C1057 C 0.10763 0.80268 0.51079 0.0
C1058 C 0.08525 0.78331 0.43231 0.0
C1059 C 0.08105 0.74857 0.41684 0.0
N1060 N 0.09976 0.79547 0.48648 0.0
N1061 N 0.09127 0.75782 0.43903 0.0
H1062 H 0.36339 0.10855 0.72655 0.0
H1063 H 0.3665 0.10984 0.88358 0.0
H1064 H 0.33299 0.05702 0.77275 0.0
H1065 H 0.3585 0.15199 0.84292 0.0
H1066 H 0.36192 0.09306 0.84142 0.0
H1067 H 0.36897 0.12745 0.76775 0.0
C1068 C 0.35799 0.10125 0.74536 0.0
C1069 C 0.34774 0.08123 0.74638 0.0
C1070 C 0.36116 0.10598 0.84179 0.0
C1071 C 0.35433 0.1026 0.7931 0.0
C1072 C 0.3636 0.11553 0.86588 0.0
C1073 C 0.36228 0.13211 0.86709 0.0
C1074 C 0.3579 0.11324 0.81844 0.0
C1075 C 0.35952 0.13923 0.84303 0.0
C1076 C 0.36107 0.11201 0.76868 0.0
C1077 C 0.34091 0.07242 0.77113 0.0
N1078 N 0.35741 0.12973 0.81958 0.0
N1079 N 0.34451 0.08318 0.79358 0.0
H1080 H 0.94216 0.26272 0.74892 0.0
H1081 H 0.85311 0.19143 0.83992 0.0
H1082 H 0.88324 0.2402 0.72541 0.0
H1083 H 0.91202 0.22041 0.86587 0.0
H1084 H 0.86375 0.20561 0.79549 0.0
H1085 H 0.9312 0.24422 0.78985 0.0
C1086 C 0.9269 0.25388 0.75233 0.0
C1087 C 0.91361 0.25315 0.73373 0.0
C1088 C 0.87434 0.20871 0.81086 0.0
C1089 C 0.90093 0.23178 0.78068 0.0
C1090 C 0.86828 0.20051 0.83608 0.0
C1091 C 0.88172 0.20496 0.85655 0.0
C1092 C 0.89395 0.2213 0.80618 0.0
C1093 C 0.9012 0.21686 0.85068 0.0
C1094 C 0.92065 0.24327 0.77573 0.0
C1095 C 0.89401 0.24132 0.73925 0.0
N1096 N 0.90671 0.2247 0.82612 0.0
N1097 N 0.88826 0.23114 0.76226 0.0
H1098 H 0.72399 0.67131 0.75005 0.0
H1099 H 0.79802 0.65418 0.8321 0.0
H1100 H 0.75779 0.65072 0.71149 0.0
H1101 H 0.7449 0.64572 0.86485 0.0
H1102 H 0.78812 0.65933 0.78809 0.0
H1103 H 0.73693 0.66932 0.79319 0.0
C1104 C 0.73427 0.66655 0.75061 0.0
C1105 C 0.73969 0.661 0.72717 0.0
C1106 C 0.7788 0.65649 0.8051 0.0
C1107 C 0.75461 0.65883 0.7764 0.0
C1108 C 0.78437 0.65346 0.83018 0.0
C1109 C 0.77244 0.64974 0.85249 0.0
C1110 C 0.76136 0.65606 0.80245 0.0
C1111 C 0.75495 0.64914 0.84866 0.0
C1112 C 0.74157 0.66534 0.77523 0.0
C1113 C 0.75308 0.65494 0.72913 0.0
N1114 N 0.75003 0.65237 0.82424 0.0
N1115 N 0.76011 0.65401 0.75336 0.0
H1116 H 0.72986 0.65252 0.5871 0.0
H1117 H 0.80961 0.71273 0.48125 0.0
H1118 H 0.76558 0.71362 0.59592 0.0
H1119 H 0.78806 0.65291 0.49528 0.0
H1120 H 0.7946 0.71434 0.52306 0.0
H1121 H 0.75122 0.65301 0.55258 0.0
C1122 C 0.74224 0.66608 0.58174 0.0
C1123 C 0.7459 0.68309 0.59426 0.0
C1124 C 0.79356 0.701 0.51722 0.0
C1125 C 0.77047 0.68375 0.55456 0.0
C1126 C 0.8021 0.70007 0.49343 0.0
C1127 C 0.79998 0.68263 0.4847 0.0
C1128 C 0.78259 0.68431 0.53205 0.0
C1129 C 0.79019 0.66668 0.50125 0.0
C1130 C 0.75453 0.66632 0.56216 0.0
C1131 C 0.76225 0.70021 0.58667 0.0
N1132 N 0.78159 0.66783 0.52386 0.0
N1133 N 0.77386 0.70016 0.567 0.0
H1134 H 0.34962 0.07252 0.58988 0.0
H1135 H 0.32824 0.14305 0.50543 0.0
H1136 H 0.31526 0.09538 0.6197 0.0
H1137 H 0.35606 0.11386 0.4739 0.0
H1138 H 0.32691 0.12925 0.54947 0.0
H1139 H 0.35525 0.09071 0.54903 0.0
C1140 C 0.34326 0.08137 0.58788 0.0
C1141 C 0.33182 0.08228 0.60823 0.0
C1142 C 0.33345 0.12601 0.53294 0.0
C1143 C 0.33828 0.10327 0.56136 0.0
C1144 C 0.33433 0.13399 0.50793 0.0
C1145 C 0.34206 0.12937 0.48604 0.0
C1146 C 0.34049 0.11349 0.53598 0.0
C1147 C 0.34971 0.11752 0.49022 0.0
C1148 C 0.34651 0.0918 0.56452 0.0
C1149 C 0.32407 0.09412 0.60449 0.0
N1150 N 0.34863 0.10991 0.51462 0.0
N1151 N 0.32739 0.10411 0.58147 0.0
H1152 H 0.91541 0.27118 0.57895 0.0
H1153 H 0.88712 0.17352 0.5026 0.0
H1154 H 0.92885 0.22962 0.60855 0.0
H1155 H 0.87637 0.21655 0.4716 0.0
H1156 H 0.8984 0.19169 0.54444 0.0
H1157 H 0.89782 0.24964 0.54191 0.0
C1158 C 0.91464 0.25751 0.57768 0.0
C1159 C 0.92375 0.25226 0.59675 0.0
C1160 C 0.89333 0.19703 0.52862 0.0
C1161 C 0.90354 0.22745 0.55442 0.0
C1162 C 0.8867 0.18655 0.50485 0.0
C1163 C 0.88095 0.19363 0.48355 0.0
C1164 C 0.89423 0.2147 0.53105 0.0
C1165 C 0.88091 0.21072 0.48743 0.0
C1166 C 0.90454 0.24517 0.55656 0.0
C1167 C 0.92215 0.2343 0.5942 0.0
N1168 N 0.88765 0.22076 0.51058 0.0
N1169 N 0.91233 0.22258 0.57335 0.0
H1170 H 0.33852 0.27022 0.59485 0.0
H1171 H 0.3181 0.18058 0.50319 0.0
H1172 H 0.30422 0.21197 0.62151 0.0
H1173 H 0.34124 0.238 0.47436 0.0
H1174 H 0.316 0.19175 0.54824 0.0
H1175 H 0.34269 0.25855 0.55193 0.0
C1176 C 0.33187 0.25496 0.59172 0.0
C1177 C 0.3209 0.24207 0.61181 0.0
C1178 C 0.32154 0.20186 0.532 0.0
C1179 C 0.32568 0.22857 0.56255 0.0
C1180 C 0.3228 0.19551 0.50641 0.0
C1181 C 0.32957 0.20835 0.48506 0.0
C1182 C 0.32736 0.22119 0.53615 0.0
C1183 C 0.33558 0.22757 0.4902 0.0
C1184 C 0.33425 0.2483 0.56715 0.0
C1185 C 0.3127 0.22244 0.60654 0.0
N1186 N 0.3343 0.23338 0.51515 0.0
N1187 N 0.31524 0.21627 0.58239 0.0
H1188 H 0.77211 0.07917 0.61935 0.0
H1189 H 0.7734 0.07741 0.46232 0.0
H1190 H 0.72055 0.05733 0.57222 0.0
H1191 H 0.81653 0.12764 0.50412 0.0
H1192 H 0.75639 0.06521 0.50408 0.0
H1193 H 0.79119 0.09281 0.57855 0.0
C1194 C 0.76484 0.07719 0.60043 0.0
C1195 C 0.74476 0.06712 0.59901 0.0
C1196 C 0.76955 0.07893 0.50405 0.0
C1197 C 0.76633 0.08227 0.55278 0.0
C1198 C 0.77924 0.08605 0.48018 0.0
C1199 C 0.79619 0.10395 0.47941 0.0
C1200 C 0.77703 0.08944 0.52764 0.0
C1201 C 0.80348 0.11386 0.50368 0.0
C1202 C 0.7757 0.08505 0.57733 0.0
C1203 C 0.736 0.06504 0.57414 0.0
N1204 N 0.79383 0.10646 0.52692 0.0
N1205 N 0.74684 0.07238 0.55193 0.0
H1206 H 0.92427 0.64768 0.59382 0.0
H1207 H 0.85458 0.66936 0.50702 0.0
H1208 H 0.90438 0.68535 0.61996 0.0
H1209 H 0.87837 0.63548 0.47917 0.0
H1210 H 0.869 0.6718 0.55103 0.0
H1211 H 0.90451 0.64013 0.55377 0.0
C1212 C 0.91575 0.65437 0.59118 0.0
C1213 C 0.91615 0.66731 0.61024 0.0
C1214 C 0.87086 0.66364 0.53538 0.0
C1215 C 0.89334 0.65862 0.56438 0.0
C1216 C 0.86248 0.6621 0.51038 0.0
C1217 C 0.86548 0.65238 0.48944 0.0
C1218 C 0.88224 0.65535 0.53936 0.0
C1219 C 0.87595 0.64333 0.49473 0.0
C1220 C 0.90441 0.65001 0.56831 0.0
C1221 C 0.90466 0.6754 0.60575 0.0
N1222 N 0.88409 0.64518 0.51906 0.0
N1223 N 0.8938 0.67099 0.58326 0.0
H1224 H 0.89397 0.62987 0.73234 0.0
H1225 H 0.88123 0.67608 0.86648 0.0
H1226 H 0.93649 0.68516 0.76299 0.0
H1227 H 0.83785 0.62152 0.8351 0.0
H1228 H 0.90023 0.68111 0.82618 0.0
H1229 H 0.87215 0.62758 0.76781 0.0
C1230 C 0.89873 0.64153 0.74653 0.0
C1231 C 0.91714 0.65767 0.74481 0.0
C1232 C 0.88644 0.66815 0.82788 0.0
C1233 C 0.89219 0.6552 0.78539 0.0
C1234 C 0.87556 0.66533 0.85082 0.0
C1235 C 0.85801 0.64832 0.85415 0.0
C1236 C 0.87981 0.65378 0.8082 0.0
C1237 C 0.85126 0.63487 0.83325 0.0
C1238 C 0.88622 0.64025 0.76672 0.0
C1239 C 0.92248 0.6724 0.76365 0.0
N1240 N 0.8623 0.63777 0.8113 0.0
N1241 N 0.9101 0.67076 0.7832 0.0
H1242 H 0.36667 0.26001 0.73608 0.0
H1243 H 0.32295 0.20332 0.87206 0.0
H1244 H 0.31092 0.24474 0.76675 0.0
H1245 H 0.38029 0.22166 0.84534 0.0
H1246 H 0.31665 0.21415 0.82996 0.0
H1247 H 0.37058 0.24256 0.77282 0.0
C1248 C 0.35523 0.25295 0.75049 0.0
C1249 C 0.33851 0.25398 0.7485 0.0
C1250 C 0.33054 0.21558 0.83309 0.0
C1251 C 0.34283 0.23389 0.79043 0.0
C1252 C 0.33409 0.20932 0.85706 0.0
C1253 C 0.35221 0.21176 0.86224 0.0
C1254 C 0.34526 0.2245 0.81419 0.0
C1255 C 0.36611 0.21947 0.84209 0.0
C1256 C 0.35745 0.24294 0.77141 0.0
C1257 C 0.32411 0.24446 0.76763 0.0
N1258 N 0.36244 0.22583 0.81907 0.0
N1259 N 0.32665 0.23489 0.78783 0.0
H1260 H 0.73304 0.05847 0.75539 0.0
H1261 H 0.80812 0.15084 0.83898 0.0
H1262 H 0.75882 0.11558 0.72392 0.0
H1263 H 0.77229 0.09494 0.87246 0.0
H1264 H 0.79359 0.13805 0.79489 0.0
H1265 H 0.75061 0.07154 0.79687 0.0
C1266 C 0.74241 0.07378 0.75717 0.0
C1267 C 0.74434 0.08594 0.73615 0.0
C1268 C 0.78899 0.12862 0.81192 0.0
C1269 C 0.76462 0.10105 0.78378 0.0
C1270 C 0.79732 0.13587 0.83694 0.0
C1271 C 0.79116 0.12394 0.85929 0.0
C1272 C 0.77465 0.10929 0.8094 0.0
C1273 C 0.77719 0.10466 0.85575 0.0
C1274 C 0.75245 0.08125 0.78091 0.0
C1275 C 0.75679 0.10568 0.73967 0.0
N1276 N 0.76939 0.09797 0.83133 0.0
N1277 N 0.76646 0.11264 0.76308 0.0
H1278 H 0.03139 0.33791 0.02601 0.0
H1279 H 0.13986 0.38538 0.0632 0.0
H1280 H 0.07138 0.3963 0.00485 0.0
H1281 H 0.10489 0.32492 0.04834 0.0
H1282 H 0.11576 0.39021 0.04083 0.0
H1283 H 0.05827 0.33291 0.03404 0.0
C1284 C 0.04585 0.34964 0.02283 0.0
C1285 C 0.04918 0.36759 0.01493 0.0
C1286 C 0.11358 0.37595 0.04183 0.0
C1287 C 0.08002 0.36203 0.02442 0.0
C1288 C 0.12736 0.37322 0.05446 0.0
C1289 C 0.12435 0.35475 0.05745 0.0
C1290 C 0.09646 0.36003 0.03284 0.0
C1291 C 0.10781 0.3394 0.04618 0.0
C1292 C 0.06117 0.34674 0.02727 0.0
C1293 C 0.06819 0.38225 0.01095 0.0
N1294 N 0.09428 0.34233 0.03486 0.0
N1295 N 0.08293 0.37925 0.01619 0.0
H1296 H 0.5848 0.6782 0.01011 0.0
H1297 H 0.67207 0.78166 0.04906 0.0
H1298 H 0.6437 0.6919 0.01143 0.0
H1299 H 0.61434 0.75989 0.07681 0.0
H1300 H 0.66135 0.75165 0.0244 0.0
H1301 H 0.59516 0.7108 0.02451 0.0
C1302 C 0.59994 0.68809 0.01323 0.0
C1303 C 0.6134 0.68222 0.00979 0.0
C1304 C 0.65098 0.75362 0.03546 0.0
C1305 C 0.62532 0.71965 0.026 0.0
C1306 C 0.65702 0.77078 0.0492 0.0
C1307 C 0.644 0.77318 0.06478 0.0
C1308 C 0.63176 0.73891 0.03716 0.0
C1309 C 0.62475 0.75855 0.06486 0.0
C1310 C 0.60582 0.70669 0.02147 0.0
C1311 C 0.63282 0.69573 0.0141 0.0
N1312 N 0.61921 0.74198 0.05138 0.0
N1313 N 0.6382 0.71382 0.02202 0.0
H1314 H 0.31246 0.91301 0.97467 0.0
H1315 H 0.21749 0.89218 0.05089 0.0
H1316 H 0.30364 0.95682 0.00899 0.0
H1317 H 0.23255 0.84954 0.03246 0.0
H1318 H 0.24458 0.91519 0.02401 0.0
H1319 H 0.2794 0.8893 0.98507 0.0
C1320 C 0.30356 0.91771 0.98423 0.0
C1321 C 0.31101 0.93694 0.99142 0.0
C1322 C 0.24167 0.90067 0.02536 0.0
C1323 C 0.27298 0.90974 0.00326 0.0
C1324 C 0.22616 0.8875 0.04057 0.0
C1325 C 0.22302 0.86903 0.04449 0.0
C1326 C 0.25403 0.89527 0.01387 0.0
C1327 C 0.23445 0.86363 0.03019 0.0
C1328 C 0.28463 0.90412 0.99008 0.0
C1329 C 0.29862 0.94213 0.00342 0.0
N1330 N 0.24968 0.8768 0.01595 0.0
N1331 N 0.28027 0.92857 0.00923 0.0
H1332 H 0.3282 0.02896 0.98558 0.0
H1333 H 0.38414 0.14073 0.98033 0.0
H1334 H 0.38304 0.06413 0.02366 0.0
H1335 H 0.32569 0.10536 0.95412 0.0
H1336 H 0.3814 0.11382 0.00551 0.0
H1337 H 0.32447 0.0568 0.98211 0.0
C1338 C 0.33934 0.0425 -0.00642 0.0
C1339 C 0.35611 0.0443 0.00448 0.0
C1340 C 0.36896 0.11206 -0.00507 0.0
C1341 C 0.35208 0.07639 0.00023 0.0
C1342 C 0.37046 0.12754 0.98082 0.0
C1343 C 0.35522 0.12513 0.96474 0.0
C1344 C 0.35219 0.09408 -0.00738 0.0
C1345 C 0.33787 0.10767 0.96594 0.0
C1346 C 0.33719 0.05842 -0.00833 0.0
C1347 C 0.36996 0.06215 0.01484 0.0
N1348 N 0.33698 0.09267 0.97902 0.0
N1349 N 0.36782 0.07759 0.01197 0.0
H1350 H 0.96806 0.3131 -0.00662 0.0
H1351 H 0.86333 0.2254 0.96164 0.0
H1352 H 0.91619 0.31403 0.00949 0.0
H1353 H 0.91555 0.22546 0.9455 0.0
H1354 H 0.88194 0.25584 0.98586 0.0
H1355 H 0.94874 0.27936 0.98152 0.0
C1356 C 0.95261 0.30621 -0.00548 0.0
C1357 C 0.94376 0.31652 0.00214 0.0
C1358 C 0.88929 0.24899 0.97753 0.0
C1359 C 0.92148 0.27776 0.98857 0.0
C1360 C 0.87864 0.23156 0.96401 0.0
C1361 C 0.88801 0.22303 0.9518 0.0
C1362 C 0.90939 0.25789 0.97855 0.0
C1363 C 0.90788 0.23166 0.95484 0.0
C1364 C 0.94156 0.28689 0.98782 0.0
C1365 C 0.92365 0.30672 0.00351 0.0
N1366 N 0.91795 0.24872 0.96764 0.0
N1367 N 0.9132 0.28794 -0.00344 0.0
H1368 H 0.67139 0.61262 0.01637 0.0
H1369 H 0.77167 0.67686 0.94336 0.0
H1370 H 0.68833 0.66596 0.97716 0.0
H1371 H 0.74838 0.61734 0.96154 0.0
H1372 H 0.74558 0.67646 0.96851 0.0
H1373 H 0.7034 0.61754 0.00818 0.0
C1374 C 0.68193 0.62552 0.00644 0.0
C1375 C 0.6771 0.63878 -0.00291 0.0
C1376 C 0.74642 0.6636 0.96751 0.0
C1377 C 0.71373 0.64451 0.98782 0.0
C1378 C 0.76138 0.66385 0.95332 0.0
C1379 C 0.762 0.64701 0.94993 0.0
C1380 C 0.73199 0.6464 0.97844 0.0
C1381 C 0.74843 0.63063 0.96355 0.0
C1382 C 0.70018 0.62829 0.00175 0.0
C1383 C 0.69135 0.65525 0.98441 0.0
N1384 N 0.73376 0.63062 0.97679 0.0
N1385 N 0.70895 0.65757 0.97997 0.0
H1386 H 0.95225 0.64607 -0.00834 0.0
H1387 H 0.84234 0.60601 0.95746 0.0
H1388 H 0.90717 0.58848 0.00837 0.0
H1389 H 0.8868 0.66449 0.94532 0.0
H1390 H 0.865 0.60066 0.98256 0.0
H1391 H 0.92803 0.65416 0.97975 0.0
C1392 C 0.93727 0.63514 -0.00704 0.0
C1393 C 0.93179 0.61649 0.00072 0.0
C1394 C 0.86973 0.61477 0.97484 0.0
C1395 C 0.90392 0.62569 0.98714 0.0
C1396 C 0.85671 0.61789 0.96078 0.0
C1397 C 0.86276 0.63566 0.94899 0.0
C1398 C 0.88896 0.62949 0.97696 0.0
C1399 C 0.88164 0.65048 0.95371 0.0
C1400 C 0.92342 0.63979 0.98625 0.0
C1401 C 0.91212 0.603 0.00226 0.0
N1402 N 0.89415 0.64698 0.96692 0.0
N1403 N 0.89893 0.60782 -0.0047 0.0
H1404 H 0.33737 0.30475 0.97816 0.0
H1405 H 0.38918 0.24512 0.96879 0.0
H1406 H 0.39184 0.32304 0.01599 0.0
H1407 H 0.32949 0.2218 0.94961 0.0
H1408 H 0.38933 0.27192 0.99146 0.0
H1409 H 0.33309 0.27304 0.97167 0.0
C1410 C 0.34835 0.30203 0.98534 0.0
C1411 C 0.36509 0.31661 -0.00267 0.0
C1412 C 0.37607 0.26072 0.98284 0.0
C1413 C 0.3604 0.28035 0.98976 0.0
C1414 C 0.37594 0.2453 0.9701 0.0
C1415 C 0.35938 0.23138 0.95689 0.0
C1416 C 0.35959 0.26229 0.98206 0.0
C1417 C 0.34268 0.23245 0.95908 0.0
C1418 C 0.34587 0.28388 0.98174 0.0
C1419 C 0.37877 0.31223 0.00648 0.0
N1420 N 0.34331 0.24784 0.97087 0.0
N1421 N 0.37627 0.29458 0.00212 0.0
H1422 H 0.69164 0.03803 -0.00034 0.0
H1423 H 0.7861 0.10449 0.97093 0.0
H1424 H 0.68294 0.08598 0.00756 0.0
H1425 H 0.76203 0.13772 0.94252 0.0
H1426 H 0.75644 0.08421 -0.00438 0.0
H1427 H 0.72509 0.06004 0.98813 0.0
C1428 C 0.69681 0.0532 -0.00075 0.0
C1429 C 0.68441 0.06014 0.00448 0.0
C1430 C 0.7577 0.09604 0.98421 0.0
C1431 C 0.72284 0.08551 -0.00823 0.0
C1432 C 0.77476 0.10784 0.9706 0.0
C1433 C 0.7764 0.12271 0.9547 0.0
C1434 C 0.74225 0.0992 0.98174 0.0
C1435 C 0.76125 0.12635 0.95459 0.0
C1436 C 0.71601 0.06581 -0.00699 0.0
C1437 C 0.69194 0.07996 0.00367 0.0
N1438 N 0.74473 0.11457 0.9677 0.0
N1439 N 0.71058 0.09191 -0.00295 0.0
H1440 H 0.66765 0.97214 0.0222 0.0
H1441 H 0.62244 0.86494 0.05932 0.0
H1442 H 0.60929 0.93112 0.0007 0.0
H1443 H 0.68308 0.90113 0.04687 0.0
H1444 H 0.61693 0.88775 0.03491 0.0
H1445 H 0.67373 0.94597 0.02925 0.0
C1446 C 0.65617 0.95761 0.01868 0.0
C1447 C 0.6379 0.95377 0.0111 0.0
C1448 C 0.6314 0.89044 0.03674 0.0
C1449 C 0.64467 0.92371 0.01947 0.0
C1450 C 0.63451 0.87735 0.05046 0.0
C1451 C 0.65321 0.88115 0.05479 0.0
C1452 C 0.64717 0.90768 0.0281 0.0
C1453 C 0.66844 0.89762 0.04358 0.0
C1454 C 0.65967 0.94268 0.02255 0.0
C1455 C 0.62358 0.93469 0.00662 0.0
N1456 N 0.66514 0.91052 0.03126 0.0
N1457 N 0.62716 0.92033 0.01137 0.0
H1458 H 0.02334 0.69494 0.02548 0.0
H1459 H 0.13511 0.75637 0.03461 0.0
H1460 H 0.06026 0.67875 0.98567 0.0
H1461 H 0.09818 0.77818 0.05574 0.0
H1462 H 0.10876 0.73053 0.00954 0.0
H1463 H 0.05057 0.7273 0.03096 0.0
C1464 C 0.03714 0.69827 0.01758 0.0
C1465 C 0.0396 0.68406 0.00548 0.0
C1466 C 0.10653 0.74125 0.01902 0.0
C1467 C 0.07095 0.72106 0.01193 0.0
C1468 C 0.12168 0.75617 0.0331 0.0
C1469 C 0.1187 0.76921 0.04775 0.0
C1470 C 0.08828 0.73928 0.01994 0.0
C1471 C 0.10094 0.76816 0.04519 0.0
C1472 C 0.05269 0.71678 0.0206 0.0
C1473 C 0.05776 0.68923 -0.00465 0.0
N1474 N 0.08625 0.75315 0.0322 0.0
N1475 N 0.07282 0.70721 -0.00075 0.0
H1476 H 0.31182 0.34669 0.01336 0.0
H1477 H 0.23074 0.37024 0.0542 0.0
H1478 H 0.31897 0.40288 0.00702 0.0
H1479 H 0.22459 0.31457 0.05969 0.0
H1480 H 0.26115 0.38164 0.03035 0.0
H1481 H 0.27827 0.33396 0.02471 0.0
C1482 C 0.30634 0.35637 0.01429 0.0
C1483 C 0.31833 0.37594 0.00954 0.0
C1484 C 0.25294 0.36682 0.03624 0.0
C1485 C 0.27979 0.3614 0.02255 0.0
C1486 C 0.23555 0.36031 0.04955 0.0
C1487 C 0.22529 0.34149 0.05867 0.0
C1488 C 0.26004 0.35438 0.03234 0.0
C1489 C 0.23216 0.32919 0.05277 0.0
C1490 C 0.28712 0.34906 0.02068 0.0
C1491 C 0.31031 0.38772 0.01074 0.0
N1492 N 0.24921 0.33589 0.04024 0.0
N1493 N 0.29159 0.3803 0.01736 0.0
H1494 H 0.73568 0.72771 0.33512 0.0
H1495 H 0.76694 0.65353 0.38176 0.0
H1496 H 0.69586 0.66963 0.35795 0.0
H1497 H 0.80229 0.71432 0.3935 0.0
H1498 H 0.74318 0.65857 0.35882 0.0
H1499 H 0.76224 0.72202 0.34318 0.0
C1500 C 0.73251 0.71368 0.34137 0.0
C1501 C 0.71356 0.69917 0.34616 0.0
C1502 C 0.75635 0.67082 0.36585 0.0
C1503 C 0.74378 0.69256 0.35506 0.0
C1504 C 0.77 0.66798 0.37863 0.0
C1505 C 0.78656 0.68355 0.3895 0.0
C1506 C 0.7594 0.68937 0.36374 0.0
C1507 C 0.78968 0.70197 0.38538 0.0
C1508 C 0.74765 0.71048 0.34602 0.0
C1509 C 0.71027 0.68127 0.3543 0.0
N1510 N 0.77613 0.70438 0.37302 0.0
N1511 N 0.72523 0.67849 0.35858 0.0
H1512 H 0.26108 0.01872 0.33362 0.0
H1513 H 0.35336 0.11211 0.39107 0.0
H1514 H 0.31563 0.02295 0.34783 0.0
H1515 H 0.29717 0.10537 0.38855 0.0
H1516 H 0.34106 0.08179 0.36696 0.0
H1517 H 0.27515 0.05226 0.34643 0.0
C1518 C 0.27605 0.0267 0.3393 0.0
C1519 C 0.28713 0.01789 0.33989 0.0
C1520 C 0.33147 0.08708 0.37114 0.0
C1521 C 0.30336 0.05641 0.35445 0.0
C1522 C 0.33854 0.10446 0.3846 0.0
C1523 C 0.32626 0.11122 0.3914 0.0
C1524 C 0.31189 0.07627 0.36476 0.0
C1525 C 0.30709 0.10068 0.38324 0.0
C1526 C 0.28407 0.04588 0.34658 0.0
C1527 C 0.30647 0.02905 0.3473 0.0
N1528 N 0.30041 0.08358 0.37056 0.0
N1529 N 0.31393 0.04768 0.35439 0.0
H1530 H 0.97987 0.29328 0.34939 0.0
H1531 H 0.91123 0.18257 0.37796 0.0
H1532 H 0.99266 0.2497 0.32629 0.0
H1533 H 0.89598 0.22518 0.39552 0.0
H1534 H 0.93891 0.20631 0.353 0.0
H1535 H 0.94751 0.26828 0.36157 0.0
C1536 C 0.97586 0.27848 0.3467 0.0
C1537 C 0.98913 0.27362 0.33712 0.0
C1538 C 0.92935 0.21042 0.36192 0.0
C1539 C 0.95208 0.24491 0.351 0.0
C1540 C 0.91338 0.19678 0.37595 0.0
C1541 C 0.9014 0.20195 0.38919 0.0
C1542 C 0.93347 0.22942 0.36131 0.0
C1543 C 0.90508 0.22068 0.38607 0.0
C1544 C 0.95735 0.2642 0.35358 0.0
C1545 C 0.98303 0.25417 0.33385 0.0
N1546 N 0.92095 0.23381 0.37285 0.0
N1547 N 0.96504 0.24056 0.34101 0.0
H1548 H 0.00716 0.36604 0.2982 0.0
H1549 H 0.02365 0.46883 0.31286 0.0
H1550 H 0.05034 0.40078 0.3566 0.0
H1551 H 0.03581 0.44799 0.2403 0.0
H1552 H 0.02336 0.44224 0.33733 0.0
H1553 H 0.00496 0.39381 0.28568 0.0
C1554 C 0.01586 0.37937 0.30886 0.0
C1555 C 0.02923 0.38118 0.32813 0.0
C1556 C 0.02612 0.44372 0.31606 0.0
C1557 C 0.02651 0.41284 0.31403 0.0
C1558 C 0.02636 0.45882 0.30217 0.0
C1559 C 0.02919 0.46028 0.27438 0.0
C1560 C 0.02846 0.43012 0.30177 0.0
C1561 C 0.03284 0.44705 0.2615 0.0
C1562 C 0.01455 0.39516 0.30171 0.0
C1563 C 0.04001 0.39885 0.3414 0.0
N1564 N 0.03202 0.43239 0.27517 0.0
N1565 N 0.03866 0.41419 0.3338 0.0
H1566 H 0.58035 0.65565 0.33781 0.0
H1567 H 0.56507 0.55384 0.29532 0.0
H1568 H 0.62687 0.64446 0.33108 0.0
H1569 H 0.52678 0.57341 0.27229 0.0
H1570 H 0.58497 0.58413 0.31932 0.0
H1571 H 0.558 0.6228 0.32388 0.0
C1572 C 0.58587 0.64626 0.33359 0.0
C1573 C 0.60557 0.6529 0.33538 0.0
C1574 C 0.57201 0.58161 0.30945 0.0
C1575 C 0.57996 0.61518 0.31971 0.0
C1576 C 0.56056 0.56429 0.29608 0.0
C1577 C 0.54427 0.5612 0.28201 0.0
C1578 C 0.56697 0.59577 0.3089 0.0
C1579 C 0.5392 0.5753 0.28305 0.0
C1580 C 0.57309 0.62751 0.32563 0.0
C1581 C 0.61184 0.64002 0.3297 0.0
N1582 N 0.55056 0.59203 0.29615 0.0
N1583 N 0.59907 0.62177 0.32209 0.0
H1584 H 0.35345 0.99386 0.30277 0.0
H1585 H 0.41124 0.93983 0.2862 0.0
H1586 H 0.33532 0.93935 0.33908 0.0
H1587 H 0.43329 -0.0016 0.26354 0.0
H1588 H 0.38537 0.94051 0.31062 0.0
H1589 H 0.38427 0.99689 0.29241 0.0
C1590 C 0.35603 0.98259 0.30879 0.0
C1591 C 0.34172 0.96624 0.32156 0.0
C1592 C 0.39609 0.95334 0.30078 0.0
C1593 C 0.377 0.9695 0.30948 0.0
C1594 C 0.41097 0.95301 0.28704 0.0
C1595 C 0.42429 0.96901 0.27253 0.0
C1596 C 0.39448 0.96974 0.2998 0.0
C1597 C 0.42313 0.98565 0.2741 0.0
C1598 C 0.37368 0.98435 0.30294 0.0
C1599 C 0.34593 0.95216 0.3291 0.0
N1600 N 0.40832 0.98548 0.28705 0.0
N1601 N 0.36309 0.95398 0.3226 0.0
H1602 H 0.61938 0.98109 0.33148 0.0
H1603 H 0.50928 0.93787 0.29927 0.0
H1604 H 0.57528 0.92424 0.35351 0.0
H1605 H 0.55218 0.99666 0.28527 0.0
H1606 H 0.53218 0.93445 0.32672 0.0
H1607 H 0.59456 0.98859 0.32053 0.0
C1608 C 0.6045 0.97023 0.33422 0.0
C1609 C 0.59944 0.95191 0.34304 0.0
C1610 C 0.5365 0.94825 0.31817 0.0
C1611 C 0.5709 0.96041 0.33055 0.0
C1612 C 0.5233 0.95028 0.30277 0.0
C1613 C 0.52893 0.96749 0.28953 0.0
C1614 C 0.5555 0.96347 0.32011 0.0
C1615 C 0.54737 0.98302 0.29467 0.0
C1616 C 0.59031 0.97455 0.32808 0.0
C1617 C 0.5799 0.93849 0.34647 0.0
N1618 N 0.56014 0.98053 0.30903 0.0
N1619 N 0.56637 0.94293 0.33992 0.0
H1620 H 0.05835 0.65907 0.35368 0.0
H1621 H 0.99514 0.55733 0.28389 0.0
H1622 H 0.00238 0.63814 0.31911 0.0
H1623 H 0.05514 0.5821 0.3019 0.0
H1624 H 0.99474 0.58268 0.30989 0.0
H1625 H 0.05467 0.62749 0.34669 0.0
C1626 C 0.04517 0.64776 0.34503 0.0
C1627 C 0.03078 0.65131 0.33653 0.0
C1628 C 0.0079 0.58233 0.30875 0.0
C1629 C 0.02644 0.61521 0.32868 0.0
C1630 C 0.00807 0.56776 0.29414 0.0
C1631 C 0.02525 0.56781 0.29052 0.0
C1632 C 0.02508 0.59714 0.31958 0.0
C1633 C 0.04161 0.5816 0.3042 0.0
C1634 C 0.04309 0.62975 0.34105 0.0
C1635 C 0.01397 0.63611 0.32557 0.0
N1636 N 0.04125 0.596 0.31767 0.0
N1637 N 0.01234 0.6188 0.32175 0.0
H1638 H 0.34804 0.41942 0.33401 0.0
H1639 H 0.44804 0.42807 0.29566 0.0
H1640 H 0.35729 0.37163 0.33113 0.0
H1641 H 0.43499 0.47235 0.28114 0.0
H1642 H 0.41717 0.40941 0.31838 0.0
H1643 H 0.38176 0.44075 0.32311 0.0
C1644 C 0.35715 0.41339 0.3312 0.0
C1645 C 0.34972 0.39363 0.33323 0.0
C1646 C 0.42123 0.42341 0.31082 0.0
C1647 C 0.38846 0.41809 0.32098 0.0
C1648 C 0.43894 0.43415 0.29825 0.0
C1649 C 0.44407 0.45183 0.28701 0.0
C1650 C 0.40855 0.43039 0.31193 0.0
C1651 C 0.4316 0.45889 0.29003 0.0
C1652 C 0.37643 0.42561 0.32501 0.0
C1653 C 0.36231 0.38672 0.3295 0.0
N1654 N 0.41431 0.44807 0.302 0.0
N1655 N 0.38102 0.39891 0.32348 0.0
H1656 H 0.2757 0.26482 0.33678 0.0
H1657 H 0.35253 0.23617 0.38114 0.0
H1658 H 0.33382 0.30562 0.35974 0.0
H1659 H 0.29194 0.20011 0.39436 0.0
H1660 H 0.34642 0.25932 0.3587 0.0
H1661 H 0.28231 0.23892 0.34433 0.0
C1662 C 0.28992 0.26835 0.34302 0.0
C1663 C 0.30418 0.28738 0.34795 0.0
C1664 C 0.33443 0.24609 0.36587 0.0
C1665 C 0.31186 0.25791 0.35617 0.0
C1666 C 0.33788 0.2328 0.37831 0.0
C1667 C 0.32268 0.21623 0.38938 0.0
C1668 C 0.31564 0.24265 0.36435 0.0
C1669 C 0.30399 0.21269 0.38585 0.0
C1670 C 0.29365 0.25357 0.34734 0.0
C1671 C 0.32236 0.29113 0.35601 0.0
N1672 N 0.30098 0.22589 0.37382 0.0
N1673 N 0.32567 0.27653 0.35993 0.0
H1674 H 0.69303 0.02887 0.36582 0.0
H1675 H 0.77293 0.1152 0.38762 0.0
H1676 H 0.72784 0.01304 0.31958 0.0
H1677 H 0.80272 0.08491 0.37169 0.0
H1678 H 0.74512 0.0905 0.36327 0.0
H1679 H 0.72057 0.06078 0.37144 0.0
C1680 C 0.70641 0.03225 0.35636 0.0
C1681 C 0.70817 0.01821 0.34242 0.0
C1682 C 0.75776 0.08928 0.36482 0.0
C1683 C 0.73995 0.05504 0.34837 0.0
C1684 C 0.77379 0.10362 0.37819 0.0
C1685 C 0.78999 0.10191 0.38194 0.0
C1686 C 0.75785 0.07294 0.35569 0.0
C1687 C 0.79045 0.0867 0.36931 0.0
C1688 C 0.72217 0.05064 0.35929 0.0
C1689 C 0.72587 0.02342 0.33058 0.0
N1690 N 0.77443 0.07254 0.35726 0.0
N1691 N 0.74117 0.04131 0.33427 0.0
H1692 H 0.9749 0.67707 0.35389 0.0
H1693 H 0.88783 0.69394 0.38435 0.0
H1694 H 0.97606 0.72941 0.3353 0.0
H1695 H 0.88782 0.64221 0.40229 0.0
H1696 H 0.91809 0.70559 0.36001 0.0
H1697 H 0.94132 0.66269 0.3663 0.0
C1698 C 0.96809 0.68554 0.35235 0.0
C1699 C 0.97842 0.70456 0.34383 0.0
C1700 C 0.91127 0.69154 0.36883 0.0
C1701 C 0.93983 0.68814 0.35803 0.0
C1702 C 0.89395 0.68485 0.38245 0.0
C1703 C 0.88551 0.66719 0.39533 0.0
C1704 C 0.92008 0.68043 0.36827 0.0
C1705 C 0.89402 0.65597 0.39266 0.0
C1706 C 0.94886 0.67729 0.35935 0.0
C1707 C 0.96872 0.71475 0.34197 0.0
N1708 N 0.91094 0.66287 0.37971 0.0
N1709 N 0.95002 0.70647 0.34924 0.0
H1710 H 0.36335 0.00086 0.68952 0.0
H1711 H 0.47158 0.04596 0.72431 0.0
H1712 H 0.40459 0.05823 0.66555 0.0
H1713 H 0.43489 0.9853 0.71338 0.0
H1714 H 0.44819 0.05106 0.70041 0.0
H1715 H 0.38953 0.99465 0.69685 0.0
C1716 C 0.37791 0.01208 0.68551 0.0
C1717 C 0.38183 0.03013 0.67714 0.0
C1718 C 0.4455 0.03666 0.70251 0.0
C1719 C 0.41186 0.02322 0.68581 0.0
C1720 C 0.4589 0.03378 0.71595 0.0
C1721 C 0.45516 0.01521 0.72053 0.0
C1722 C 0.42801 0.02081 0.69439 0.0
C1723 C 0.43835 -0.00016 0.70991 0.0
C1724 C 0.39283 0.0085 0.68955 0.0
C1725 C 0.40094 0.04412 0.67209 0.0
N1726 N 0.42517 0.00294 0.69784 0.0
N1727 N 0.41529 0.04049 0.67698 0.0
H1728 H 0.97971 0.35711 0.67513 0.0
H1729 H 0.94701 0.42534 0.73851 0.0
H1730 H 0.92044 0.34203 0.67874 0.0
H1731 H 0.00475 0.44596 0.71179 0.0
H1732 H 0.93667 0.39522 0.71474 0.0
H1733 H 0.98922 0.38993 0.68753 0.0
C1734 C 0.96869 0.36069 0.67844 0.0
C1735 C 0.94923 0.34671 0.67611 0.0
C1736 C 0.95152 0.40646 0.71351 0.0
C1737 C 0.96003 0.38427 0.69033 0.0
C1738 C 0.95737 0.42368 0.72688 0.0
C1739 C 0.97669 0.43812 0.72685 0.0
C1740 C 0.96521 0.4035 0.70059 0.0
C1741 C 0.98967 0.43522 0.71196 0.0
C1742 C 0.97414 0.37947 0.68534 0.0
C1743 C 0.93561 0.35227 0.68041 0.0
N1744 N 0.98377 0.41808 0.69981 0.0
N1745 N 0.94126 0.37053 0.68759 0.0
H1746 H 0.64219 0.63256 0.67587 0.0
H1747 H 0.57245 0.52193 0.70095 0.0
H1748 H 0.65326 0.58862 0.64839 0.0
H1749 H 0.55822 0.56484 0.72158 0.0
H1750 H 0.59945 0.54556 0.67489 0.0
H1751 H 0.60952 0.60784 0.68724 0.0
C1752 C 0.63774 0.61775 0.67202 0.0
C1753 C 0.65063 0.61268 0.66154 0.0
C1754 C 0.59022 0.54976 0.68468 0.0
C1755 C 0.61322 0.58429 0.67449 0.0
C1756 C 0.57462 0.53617 0.69934 0.0
C1757 C 0.56323 0.54149 0.71388 0.0
C1758 C 0.59459 0.56885 0.6848 0.0
C1759 C 0.56691 0.56024 0.71117 0.0
C1760 C 0.61904 0.60363 0.67843 0.0
C1761 C 0.64394 0.59324 0.65674 0.0
N1762 N 0.58249 0.57334 0.69741 0.0
N1763 N 0.62581 0.57978 0.66352 0.0
H1764 H 0.66625 0.70468 0.64509 0.0
H1765 H 0.65995 0.78362 0.62384 0.0
H1766 H 0.71905 0.74053 0.68758 0.0
H1767 H 0.72099 0.81371 0.63636 0.0
H1768 H 0.65717 0.75652 0.64855 0.0
H1769 H 0.66171 0.73183 0.64046 0.0
C1770 C 0.67669 0.71821 0.65398 0.0
C1771 C 0.69315 0.72038 0.66648 0.0
C1772 C 0.67118 0.76907 0.64617 0.0
C1773 C 0.68795 0.75174 0.66165 0.0
C1774 C 0.67269 0.78471 0.63257 0.0
C1775 C 0.69075 0.80075 0.62773 0.0
C1776 C 0.68792 0.7694 0.6544 0.0
C1777 C 0.70681 0.80154 0.63956 0.0
C1778 C 0.67399 0.73377 0.65162 0.0
C1779 C 0.70619 0.73825 0.67766 0.0
N1780 N 0.70508 0.78587 0.65181 0.0
N1781 N 0.70351 0.75334 0.6745 0.0
H1782 H 0.24996 0.99409 0.66643 0.0
H1783 H 0.22807 0.88882 0.63041 0.0
H1784 H 0.29347 0.97842 0.66391 0.0
H1785 H 0.19175 0.91066 0.60696 0.0
H1786 H 0.24916 0.9191 0.65372 0.0
H1787 H 0.22591 0.96128 0.65462 0.0
C1788 C 0.25447 0.98374 0.66355 0.0
C1789 C 0.27384 0.9891 0.6659 0.0
C1790 C 0.23634 0.91709 0.64398 0.0
C1791 C 0.24625 0.95142 0.65265 0.0
C1792 C 0.2242 0.89976 0.63103 0.0
C1793 C 0.20816 0.89731 0.61695 0.0
C1794 C 0.23228 0.93194 0.64291 0.0
C1795 C 0.20395 0.91203 0.61777 0.0
C1796 C 0.2407 0.96501 0.65682 0.0
C1797 C 0.27876 0.975 0.66202 0.0
N1798 N 0.21602 0.92878 0.63034 0.0
N1799 N 0.26506 0.95681 0.65553 0.0
H1800 H 0.00943 0.27968 0.68365 0.0
H1801 H 0.11158 0.3461 0.61648 0.0
H1802 H 0.02561 0.33193 0.64183 0.0
H1803 H 0.08863 0.28644 0.63335 0.0
H1804 H 0.08423 0.34471 0.63939 0.0
H1805 H 0.04199 0.28555 0.67766 0.0
C1806 C 0.01989 0.29252 0.67354 0.0
C1807 C 0.01473 0.30521 0.66288 0.0
C1808 C 0.08543 0.33204 0.63863 0.0
C1809 C 0.05201 0.31208 0.65625 0.0
C1810 C 0.1011 0.33285 0.62575 0.0
C1811 C 0.10219 0.31626 0.6225 0.0
C1812 C 0.0708 0.31454 0.6485 0.0
C1813 C 0.08835 0.29956 0.63525 0.0
C1814 C 0.03846 0.29585 0.67015 0.0
C1815 C 0.0289 0.32165 0.65007 0.0
N1816 N 0.07301 0.29902 0.64725 0.0
N1817 N 0.04685 0.32455 0.64696 0.0
H1818 H 0.24224 0.25098 0.68425 0.0
H1819 H 0.22728 0.33129 0.61729 0.0
H1820 H 0.28843 0.30756 0.66526 0.0
H1821 H 0.18179 0.27326 0.62945 0.0
H1822 H 0.24892 0.32461 0.64271 0.0
H1823 H 0.21927 0.2605 0.67143 0.0
C1824 C 0.24758 0.26546 0.67755 0.0
C1825 C 0.26735 0.27841 0.67552 0.0
C1826 C 0.23413 0.31342 0.64024 0.0
C1827 C 0.24102 0.28942 0.66083 0.0
C1828 C 0.22175 0.31726 0.62583 0.0
C1829 C 0.20277 0.30274 0.62097 0.0
C1830 C 0.22751 0.29491 0.64977 0.0
C1831 C 0.19629 0.28488 0.63273 0.0
C1832 C 0.23442 0.27089 0.67028 0.0
C1833 C 0.27336 0.29702 0.66691 0.0
N1834 N 0.20872 0.28137 0.64622 0.0
N1835 N 0.26025 0.3019 0.65969 0.0
H1836 H 0.72133 0.98909 0.69241 0.0
H1837 H 0.66207 0.8896 0.61574 0.0
H1838 H 0.66858 0.97041 0.6494 0.0
H1839 H 0.72105 0.91415 0.63971 0.0
H1840 H 0.66014 0.91411 0.64181 0.0
H1841 H 0.71738 0.95741 0.68581 0.0
C1842 C 0.70874 0.97823 0.682 0.0
C1843 C 0.69543 0.98249 0.67102 0.0
C1844 C 0.67336 0.91384 0.64198 0.0
C1845 C 0.69079 0.94624 0.66357 0.0
C1846 C 0.67441 0.89975 0.62732 0.0
C1847 C 0.69184 0.90008 0.62523 0.0
C1848 C 0.68989 0.92838 0.65453 0.0
C1849 C 0.70736 0.91345 0.64071 0.0
C1850 C 0.70652 0.96017 0.67824 0.0
C1851 C 0.67934 0.96784 0.65784 0.0
N1852 N 0.70617 0.92737 0.65425 0.0
N1853 N 0.67758 0.95044 0.65425 0.0
H1854 H 0.00632 0.75146 0.66592 0.0
H1855 H 0.1116 0.77232 0.6308 0.0
H1856 H 0.02188 0.70796 0.66536 0.0
H1857 H 0.09 0.80876 0.60742 0.0
H1858 H 0.08129 0.75157 0.65398 0.0
H1859 H 0.03917 0.77513 0.65396 0.0
C1860 C 0.01664 0.74687 0.66342 0.0
C1861 C 0.01123 0.7276 0.6664 0.0
C1862 C 0.08336 0.76434 0.64429 0.0
C1863 C 0.049 0.75479 0.65294 0.0
C1864 C 0.10072 0.7763 0.63143 0.0
C1865 C 0.10325 0.79229 0.61743 0.0
C1866 C 0.06855 0.76853 0.64319 0.0
C1867 C 0.08858 0.79662 0.61821 0.0
C1868 C 0.03542 0.76042 0.65661 0.0
C1869 C 0.02533 0.72259 0.663 0.0
N1870 N 0.0718 0.78473 0.63069 0.0
N1871 N 0.04356 0.73609 0.65639 0.0
H1872 H 0.94455 0.59806 0.66634 0.0
H1873 H 0.02235 0.57279 0.71815 0.0
H1874 H 0.00047 0.63972 0.69624 0.0
H1875 H 0.96164 0.53303 0.72087 0.0
H1876 H 0.01617 0.59596 0.69602 0.0
H1877 H 0.9524 0.57297 0.67335 0.0
C1878 C 0.95857 0.60197 0.67401 0.0
C1879 C 0.97181 0.62098 0.68101 0.0
C1880 C 0.00423 0.58196 0.70075 0.0
C1881 C 0.98092 0.59242 0.68868 0.0
C1882 C 0.00777 0.56868 0.71298 0.0
C1883 C 0.99247 0.55096 0.72092 0.0
C1884 C 0.98526 0.57745 0.69647 0.0
C1885 C 0.97379 0.54646 0.71462 0.0
C1886 C 0.963 0.58764 0.67803 0.0
C1887 C 0.98976 0.62522 0.69086 0.0
N1888 N 0.97066 0.55971 0.70296 0.0
N1889 N 0.99377 0.61106 0.69447 0.0
H1890 H 0.35772 0.35397 0.70696 0.0
H1891 H 0.43367 0.44465 0.7222 0.0
H1892 H 0.39515 0.34087 0.66215 0.0
H1893 H 0.46765 0.41815 0.71105 0.0
H1894 H 0.40646 0.41692 0.7012 0.0
H1895 H 0.3839 0.3867 0.71234 0.0
C1896 C 0.37139 0.35809 0.69784 0.0
C1897 C 0.37426 0.34464 0.68421 0.0
C1898 C 0.41986 0.41716 0.70316 0.0
C1899 C 0.40445 0.38239 0.68983 0.0
C1900 C 0.4355 0.43316 0.71466 0.0
C1901 C 0.45281 0.43354 0.71863 0.0
C1902 C 0.42148 0.40128 0.69606 0.0
C1903 C 0.45451 0.41837 0.70839 0.0
C1904 C 0.38636 0.37692 0.70062 0.0
C1905 C 0.39232 0.35079 0.67284 0.0
N1906 N 0.43891 0.40266 0.69802 0.0
N1907 N 0.40682 0.36914 0.67629 0.0
H1908 H 0.64131 0.0165 0.67736 0.0
H1909 H 0.57465 0.05044 0.74088 0.0
H1910 H 0.6565 0.07565 0.67746 0.0
H1911 H 0.55255 0.99284 0.71255 0.0
H1912 H 0.60438 0.06034 0.71635 0.0
H1913 H 0.60857 0.00746 0.68974 0.0
C1914 C 0.63775 0.02757 0.67988 0.0
C1915 C 0.65171 0.04687 0.67661 0.0
C1916 C 0.59287 0.04563 0.71493 0.0
C1917 C 0.61432 0.03663 0.69082 0.0
C1918 C 0.5759 0.04004 0.72877 0.0
C1919 C 0.56121 0.02087 0.72849 0.0
C1920 C 0.5953 0.03182 0.70137 0.0
C1921 C 0.56354 0.0078 0.71295 0.0
C1922 C 0.61903 0.0224 0.68674 0.0
C1923 C 0.64623 0.0606 0.67988 0.0
N1924 N 0.58046 0.01343 0.70039 0.0
N1925 N 0.62803 0.05524 0.68714 0.0
loop_
_geom_bond_atom_site_label_1
_geom_bond_atom_site_label_2
_geom_bond_distance
_geom_bond_site_symmetry_2
_ccdc_geom_bond_type
C0 O1 1.306 1_556 S
C0 O3 1.160 . S
O1 C0 1.306 1_554 S
O1 Cd2 2.228 . S
Cd2 O1 2.228 . S
Cd2 O6 2.273 . S
Cd2 O10 2.277 1_554 S
O3 C0 1.160 . S
O3 Cd4 2.203 1_656 S
Cd4 O3 2.203 1_454 S
Cd4 O6 2.411 1_455 S
Cd4 O7 2.333 . S
Cd4 O8 2.352 . S
Cd4 O12 2.277 1_554 S
Cd4 O13 2.356 . S
C5 O10 1.209 1_455 S
C5 O12 1.226 . S
O6 Cd2 2.273 . S
O6 Cd4 2.411 1_655 S
O6 C9 1.320 1_655 S
O7 Cd4 2.333 . S
O7 C9 1.214 . S
O8 Cd4 2.352 . S
O8 C11 1.258 . S
C9 O6 1.320 1_455 S
C9 O7 1.214 . S
O10 Cd2 2.277 1_556 S
O10 C5 1.209 1_655 S
C11 O8 1.258 . S
C11 O13 1.282 . S
O12 Cd4 2.277 1_556 S
O12 C5 1.226 . S
O13 Cd4 2.356 . S
O13 C11 1.282 . S
C14 O15 1.306 . S
C14 O17 1.160 . S
O15 C14 1.306 . S
O15 Cd16 2.228 . S
Cd16 O15 2.228 . S
Cd16 O20 2.273 1_554 S
Cd16 O24 2.277 . S
O17 C14 1.160 . S
O17 Cd18 2.203 . S
Cd18 O17 2.203 . S
Cd18 O20 2.411 1_554 S
Cd18 O21 2.333 1_554 S
Cd18 O22 2.352 1_554 S
Cd18 O26 2.277 . S
Cd18 O27 2.356 . S
C19 O24 1.209 . S
C19 O26 1.226 . S
O20 Cd16 2.273 1_556 S
O20 Cd18 2.411 1_556 S
O20 C23 1.320 . S
O21 Cd18 2.333 1_556 S
O21 C23 1.214 . S
O22 Cd18 2.352 1_556 S
O22 C25 1.258 . S
C23 O20 1.320 . S
C23 O21 1.214 . S
O24 Cd16 2.277 . S
O24 C19 1.209 . S
C25 O22 1.258 . S
C25 O27 1.282 1_556 S
O26 Cd18 2.277 . S
O26 C19 1.226 . S
O27 Cd18 2.356 . S
O27 C25 1.282 1_554 S
C28 O29 1.306 . S
C28 O31 1.160 . S
O29 C28 1.306 . S
O29 Cd30 2.228 . S
Cd30 O29 2.228 . S
Cd30 O34 2.273 1_554 S
Cd30 O38 2.277 . S
O31 C28 1.160 . S
O31 Cd32 2.203 1_565 S
Cd32 O31 2.203 1_545 S
Cd32 O34 2.411 1_544 S
Cd32 O35 2.333 1_554 S
Cd32 O36 2.352 1_554 S
Cd32 O40 2.277 . S
Cd32 O41 2.356 . S
C33 O38 1.209 1_545 S
C33 O40 1.226 . S
O34 Cd30 2.273 1_556 S
O34 Cd32 2.411 1_566 S
O34 C37 1.320 1_565 S
O35 Cd32 2.333 1_556 S
O35 C37 1.214 . S
O36 Cd32 2.352 1_556 S
O36 C39 1.258 . S
C37 O34 1.320 1_545 S
C37 O35 1.214 . S
O38 Cd30 2.277 . S
O38 C33 1.209 1_565 S
C39 O36 1.258 . S
C39 O41 1.282 1_556 S
O40 Cd32 2.277 . S
O40 C33 1.226 . S
O41 Cd32 2.356 . S
O41 C39 1.282 1_554 S
C42 O43 1.306 1_556 S
C42 O45 1.160 . S
O43 C42 1.306 1_554 S
O43 Cd44 2.228 . S
Cd44 O43 2.228 . S
Cd44 O48 2.273 . S
Cd44 O52 2.277 1_554 S
O45 C42 1.160 . S
O45 Cd46 2.203 1_656 S
Cd46 O45 2.203 1_454 S
Cd46 O48 2.411 1_455 S
Cd46 O49 2.333 . S
Cd46 O50 2.352 . S
Cd46 O54 2.277 1_554 S
Cd46 O55 2.356 . S
C47 O52 1.209 1_455 S
C47 O54 1.226 . S
O48 Cd44 2.273 . S
O48 Cd46 2.411 1_655 S
O48 C51 1.320 1_655 S
O49 Cd46 2.333 . S
O49 C51 1.214 . S
O50 Cd46 2.352 . S
O50 C53 1.258 . S
C51 O48 1.320 1_455 S
C51 O49 1.214 . S
O52 Cd44 2.277 1_556 S
O52 C47 1.209 1_655 S
C53 O50 1.258 . S
C53 O55 1.282 . S
O54 Cd46 2.277 1_556 S
O54 C47 1.226 . S
O55 Cd46 2.356 . S
O55 C53 1.282 . S
C56 O57 1.306 . S
C56 O59 1.160 . S
O57 C56 1.306 . S
O57 Cd58 2.228 . S
Cd58 O57 2.228 . S
Cd58 O62 2.273 1_554 S
Cd58 O66 2.277 . S
O59 C56 1.160 . S
O59 Cd60 2.203 . S
Cd60 O59 2.203 . S
Cd60 O62 2.411 1_554 S
Cd60 O63 2.333 1_554 S
Cd60 O64 2.352 1_554 S
Cd60 O68 2.277 . S
Cd60 O69 2.356 . S
C61 O66 1.209 . S
C61 O68 1.226 . S
O62 Cd58 2.273 1_556 S
O62 Cd60 2.411 1_556 S
O62 C65 1.320 . S
O63 Cd60 2.333 1_556 S
O63 C65 1.214 . S
O64 Cd60 2.352 1_556 S
O64 C67 1.258 . S
C65 O62 1.320 . S
C65 O63 1.214 . S
O66 Cd58 2.277 . S
O66 C61 1.209 . S
C67 O64 1.258 . S
C67 O69 1.282 1_556 S
O68 Cd60 2.277 . S
O68 C61 1.226 . S
O69 Cd60 2.356 . S
O69 C67 1.282 1_554 S
C70 O71 1.306 1_556 S
C70 O73 1.160 . S
O71 C70 1.306 1_554 S
O71 Cd72 2.228 . S
Cd72 O71 2.228 . S
Cd72 O76 2.273 . S
Cd72 O80 2.277 1_554 S
O73 C70 1.160 . S
O73 Cd74 2.203 1_546 S
Cd74 O73 2.203 1_564 S
Cd74 O76 2.411 1_565 S
Cd74 O77 2.333 . S
Cd74 O78 2.352 . S
Cd74 O82 2.277 1_554 S
Cd74 O83 2.356 . S
C75 O80 1.181 1_565 S
C75 O82 1.266 . S
O76 Cd72 2.273 . S
O76 Cd74 2.411 1_545 S
O76 C79 1.340 . S
O77 Cd74 2.333 . S
O77 C79 1.172 1_565 S
O78 Cd74 2.352 . S
O78 C81 1.258 . S
C79 O76 1.340 . S
C79 O77 1.172 1_545 S
O80 Cd72 2.277 1_556 S
O80 C75 1.181 1_545 S
C81 O78 1.258 . S
C81 O83 1.282 . S
O82 Cd74 2.277 1_556 S
O82 C75 1.266 . S
O83 Cd74 2.356 . S
O83 C81 1.282 . S
C84 O85 1.306 . S
C84 O87 1.160 . S
O85 C84 1.306 . S
O85 Cd86 2.228 . S
Cd86 O85 2.228 . S
Cd86 O90 2.273 . S
Cd86 O94 2.277 . S
O87 C84 1.160 . S
O87 Cd88 2.203 . S
Cd88 O87 2.203 . S
Cd88 O90 2.411 . S
Cd88 O91 2.333 . S
Cd88 O92 2.352 . S
Cd88 O96 2.277 . S
Cd88 O97 2.356 . S
C89 O94 1.209 . S
C89 O96 1.226 . S
O90 Cd86 2.273 . S
O90 Cd88 2.411 . S
O90 C93 1.320 . S
O91 Cd88 2.333 . S
O91 C93 1.214 . S
O92 Cd88 2.352 . S
O92 C95 1.258 . S
C93 O90 1.320 . S
C93 O91 1.214 . S
O94 Cd86 2.277 . S
O94 C89 1.209 . S
C95 O92 1.258 . S
C95 O97 1.282 . S
O96 Cd88 2.277 . S
O96 C89 1.226 . S
O97 Cd88 2.356 . S
O97 C95 1.282 . S
C98 O99 1.306 . S
C98 O101 1.160 . S
O99 C98 1.306 . S
O99 Cd100 2.228 1_545 S
Cd100 O99 2.228 1_565 S
Cd100 O104 2.273 . S
Cd100 O108 2.277 . S
O101 C98 1.160 . S
O101 Cd102 2.203 1_545 S
Cd102 O101 2.203 1_565 S
Cd102 O104 2.411 . S
Cd102 O105 2.333 . S
Cd102 O106 2.364 . S
Cd102 O110 2.277 . S
Cd102 O111 2.356 . S
C103 O108 1.209 . S
C103 O110 1.226 . S
O104 Cd100 2.273 . S
O104 Cd102 2.411 . S
O104 C107 1.320 . S
O105 Cd102 2.333 . S
O105 C107 1.214 . S
O106 Cd102 2.364 . S
O106 C109 1.313 . S
C107 O104 1.320 . S
C107 O105 1.214 . S
O108 Cd100 2.277 . S
O108 C103 1.209 . S
C109 O106 1.313 . S
C109 O111 1.282 . S
O110 Cd102 2.277 . S
O110 C103 1.226 . S
O111 Cd102 2.356 . S
O111 C109 1.282 . S
C112 O113 1.306 . S
C112 O115 1.160 . S
O113 C112 1.306 . S
O113 Cd114 2.228 1_655 S
Cd114 O113 2.228 1_455 S
Cd114 O118 2.273 . S
Cd114 O122 2.277 . S
O115 C112 1.160 . S
O115 Cd116 2.203 1_655 S
Cd116 O115 2.203 1_455 S
Cd116 O118 2.411 . S
Cd116 O119 2.333 . S
Cd116 O120 2.352 . S
Cd116 O124 2.277 . S
Cd116 O125 2.356 . S
C117 O122 1.209 . S
C117 O124 1.226 . S
O118 Cd114 2.273 . S
O118 Cd116 2.411 . S
O118 C121 1.320 . S
O119 Cd116 2.333 . S
O119 C121 1.214 . S
O120 Cd116 2.352 . S
O120 C123 1.258 . S
C121 O118 1.320 . S
C121 O119 1.214 . S
O122 Cd114 2.277 . S
O122 C117 1.209 . S
C123 O120 1.258 . S
C123 O125 1.282 . S
O124 Cd116 2.277 . S
O124 C117 1.226 . S
O125 Cd116 2.356 . S
O125 C123 1.282 . S
C126 O127 1.306 . S
C126 O129 1.160 . S
O127 C126 1.306 . S
O127 Cd128 2.228 . S
Cd128 O127 2.228 . S
Cd128 O132 2.273 . S
Cd128 O136 2.277 . S
O129 C126 1.160 . S
O129 Cd130 2.203 . S
Cd130 O129 2.203 . S
Cd130 O132 2.411 . S
Cd130 O133 2.333 . S
Cd130 O134 2.352 1_565 S
Cd130 O138 2.277 . S
Cd130 O139 2.356 1_565 S
C131 O136 1.209 . S
C131 O138 1.226 . S
O132 Cd128 2.273 . S
O132 Cd130 2.411 . S
O132 C135 1.320 . S
O133 Cd130 2.333 . S
O133 C135 1.214 . S
O134 Cd130 2.352 1_545 S
O134 C137 1.258 . S
C135 O132 1.320 . S
C135 O133 1.214 . S
O136 Cd128 2.277 . S
O136 C131 1.209 . S
C137 O134 1.258 . S
C137 O139 1.282 . S
O138 Cd130 2.277 . S
O138 C131 1.226 . S
O139 Cd130 2.356 1_545 S
O139 C137 1.282 . S
C140 O141 1.306 . S
C140 O143 1.160 . S
O141 C140 1.306 . S
O141 Cd142 2.228 1_655 S
Cd142 O141 2.228 1_455 S
Cd142 O146 2.273 . S
Cd142 O150 2.277 . S
O143 C140 1.160 . S
O143 Cd144 2.203 1_655 S
Cd144 O143 2.203 1_455 S
Cd144 O146 2.411 . S
Cd144 O147 2.333 . S
Cd144 O148 2.352 . S
Cd144 O152 2.277 . S
Cd144 O153 2.356 . S
C145 O150 1.209 . S
C145 O152 1.226 . S
O146 Cd142 2.273 . S
O146 Cd144 2.411 . S
O146 C149 1.320 . S
O147 Cd144 2.333 . S
O147 C149 1.214 . S
O148 Cd144 2.352 . S
O148 C151 1.258 . S
C149 O146 1.320 . S
C149 O147 1.214 . S
O150 Cd142 2.277 . S
O150 C145 1.209 . S
C151 O148 1.258 . S
C151 O153 1.282 . S
O152 Cd144 2.277 . S
O152 C145 1.226 . S
O153 Cd144 2.356 . S
O153 C151 1.282 . S
C154 O155 1.306 . S
C154 O157 1.160 . S
O155 C154 1.306 . S
O155 Cd156 2.228 . S
Cd156 O155 2.228 . S
Cd156 O160 2.273 . S
Cd156 O164 2.277 . S
O157 C154 1.160 . S
O157 Cd158 2.203 . S
Cd158 O157 2.203 . S
Cd158 O160 2.411 . S
Cd158 O161 2.333 . S
Cd158 O162 2.352 . S
Cd158 O166 2.277 . S
Cd158 O167 2.356 . S
C159 O164 1.209 . S
C159 O166 1.226 . S
O160 Cd156 2.273 . S
O160 Cd158 2.411 . S
O160 C163 1.320 . S
O161 Cd158 2.333 . S
O161 C163 1.214 . S
O162 Cd158 2.352 . S
O162 C165 1.258 . S
C163 O160 1.320 . S
C163 O161 1.214 . S
O164 Cd156 2.277 . S
O164 C159 1.209 . S
C165 O162 1.258 . S
C165 O167 1.282 . S
O166 Cd158 2.277 . S
O166 C159 1.226 . S
O167 Cd158 2.356 . S
O167 C165 1.282 . S
C168 O169 1.306 . S
C168 O171 1.160 . S
O169 C168 1.306 . S
O169 Cd170 2.228 1_565 S
Cd170 O169 2.228 1_545 S
Cd170 O174 2.273 . S
Cd170 O178 2.277 . S
O171 C168 1.160 . S
O171 Cd172 2.203 1_565 S
Cd172 O171 2.203 1_545 S
Cd172 O174 2.411 . S
Cd172 O175 2.333 . S
Cd172 O176 2.352 . S
Cd172 O180 2.277 . S
Cd172 O181 2.356 . S
C173 O178 1.209 . S
C173 O180 1.226 . S
O174 Cd170 2.273 . S
O174 Cd172 2.411 . S
O174 C177 1.320 . S
O175 Cd172 2.333 . S
O175 C177 1.214 . S
O176 Cd172 2.352 . S
O176 C179 1.258 . S
C177 O174 1.320 . S
C177 O175 1.214 . S
O178 Cd170 2.277 . S
O178 C173 1.209 . S
C179 O176 1.258 . S
C179 O181 1.282 . S
O180 Cd172 2.277 . S
O180 C173 1.226 . S
O181 Cd172 2.356 . S
O181 C179 1.282 . S
C182 O183 1.306 . S
C182 O185 1.160 . S
O183 C182 1.306 . S
O183 Cd184 2.228 . S
Cd184 O183 2.228 . S
Cd184 O188 2.273 . S
Cd184 O192 2.277 . S
O185 C182 1.160 . S
O185 Cd186 2.203 . S
Cd186 O185 2.203 . S
Cd186 O188 2.411 . S
Cd186 O189 2.333 . S
Cd186 O190 2.352 1_655 S
Cd186 O194 2.277 . S
Cd186 O195 2.356 1_655 S
C187 O192 1.209 . S
C187 O194 1.226 . S
O188 Cd184 2.273 . S
O188 Cd186 2.411 . S
O188 C191 1.320 . S
O189 Cd186 2.333 . S
O189 C191 1.214 . S
O190 Cd186 2.352 1_455 S
O190 C193 1.258 . S
C191 O188 1.320 . S
C191 O189 1.214 . S
O192 Cd184 2.277 . S
O192 C187 1.209 . S
C193 O190 1.258 . S
C193 O195 1.282 . S
O194 Cd186 2.277 . S
O194 C187 1.226 . S
O195 Cd186 2.356 1_455 S
O195 C193 1.282 . S
C196 O197 1.306 . S
C196 O199 1.160 . S
O197 C196 1.306 . S
O197 Cd198 2.228 . S
Cd198 O197 2.228 . S
Cd198 O202 2.273 . S
Cd198 O206 2.277 . S
O199 C196 1.160 . S
O199 Cd200 2.203 . S
Cd200 O199 2.203 . S
Cd200 O202 2.411 . S
Cd200 O203 2.333 . S
Cd200 O204 2.352 . S
Cd200 O208 2.277 . S
Cd200 O209 2.356 . S
C201 O206 1.209 . S
C201 O208 1.226 . S
O202 Cd198 2.273 . S
O202 Cd200 2.411 . S
O202 C205 1.320 . S
O203 Cd200 2.333 . S
O203 C205 1.214 . S
O204 Cd200 2.352 . S
O204 C207 1.258 . S
C205 O202 1.320 . S
C205 O203 1.214 . S
O206 Cd198 2.277 . S
O206 C201 1.209 . S
C207 O204 1.258 . S
C207 O209 1.282 . S
O208 Cd200 2.277 . S
O208 C201 1.226 . S
O209 Cd200 2.356 . S
O209 C207 1.282 . S
C210 O211 1.306 . S
C210 O213 1.160 . S
O211 C210 1.306 . S
O211 Cd212 2.228 . S
Cd212 O211 2.228 . S
Cd212 O216 2.273 . S
Cd212 O220 2.277 . S
O213 C210 1.160 . S
O213 Cd214 2.203 . S
Cd214 O213 2.203 . S
Cd214 O216 2.411 . S
Cd214 O217 2.333 . S
Cd214 O218 2.352 . S
Cd214 O222 2.277 . S
Cd214 O223 2.356 . S
C215 O220 1.209 . S
C215 O222 1.226 . S
O216 Cd212 2.273 . S
O216 Cd214 2.411 . S
O216 C219 1.320 . S
O217 Cd214 2.333 . S
O217 C219 1.214 . S
O218 Cd214 2.352 . S
O218 C221 1.258 . S
C219 O216 1.320 . S
C219 O217 1.214 . S
O220 Cd212 2.277 . S
O220 C215 1.209 . S
C221 O218 1.258 . S
C221 O223 1.282 . S
O222 Cd214 2.277 . S
O222 C215 1.226 . S
O223 Cd214 2.356 . S
O223 C221 1.282 . S
C224 O225 1.306 . S
C224 O227 1.160 . S
O225 C224 1.306 . S
O225 Cd226 2.228 . S
Cd226 O225 2.228 . S
Cd226 O230 2.273 . S
Cd226 O234 2.277 . S
O227 C224 1.160 . S
O227 Cd228 2.203 . S
Cd228 O227 2.203 . S
Cd228 O230 2.411 . S
Cd228 O231 2.333 . S
Cd228 O232 2.352 1_545 S
Cd228 O236 2.277 . S
Cd228 O237 2.356 1_545 S
C229 O234 1.209 . S
C229 O236 1.226 . S
O230 Cd226 2.273 . S
O230 Cd228 2.411 . S
O230 C233 1.320 . S
O231 Cd228 2.333 . S
O231 C233 1.214 . S
O232 Cd228 2.352 1_565 S
O232 C235 1.258 . S
C233 O230 1.320 . S
C233 O231 1.214 . S
O234 Cd226 2.277 . S
O234 C229 1.209 . S
C235 O232 1.258 . S
C235 O237 1.282 . S
O236 Cd228 2.277 . S
O236 C229 1.226 . S
O237 Cd228 2.356 1_565 S
O237 C235 1.282 . S
C238 O239 1.306 . S
C238 O241 1.160 . S
O239 C238 1.306 . S
O239 Cd240 2.228 1_455 S
Cd240 O239 2.228 1_655 S
Cd240 O244 2.273 . S
Cd240 O248 2.277 . S
O241 C238 1.160 . S
O241 Cd242 2.203 1_455 S
Cd242 O241 2.203 1_655 S
Cd242 O244 2.411 . S
Cd242 O245 2.333 . S
Cd242 O246 2.403 . S
Cd242 O250 2.277 . S
Cd242 O251 2.356 . S
C243 O248 1.209 . S
C243 O250 1.226 . S
O244 Cd240 2.273 . S
O244 Cd242 2.411 . S
O244 C247 1.320 . S
O245 Cd242 2.333 . S
O245 C247 1.214 . S
O246 Cd242 2.403 . S
O246 C249 1.260 . S
C247 O244 1.320 . S
C247 O245 1.214 . S
O248 Cd240 2.277 . S
O248 C243 1.209 . S
C249 O246 1.260 . S
C249 O251 1.282 . S
O250 Cd242 2.277 . S
O250 C243 1.226 . S
O251 Cd242 2.356 . S
O251 C249 1.282 . S
H252 C260 0.930 . S
H253 C263 0.930 . S
H254 C265 0.930 . S
H255 C266 0.970 . S
H256 C266 0.970 . S
H257 C268 0.930 . S
H258 C270 0.930 . S
H259 C272 0.930 . S
C260 H252 0.930 . S
C260 C261 1.382 . S
C260 C262 1.426 . S
C261 C260 1.382 . S
C261 C265 1.389 . S
C262 C260 1.426 . S
C262 C263 1.375 . S
C262 C266 1.532 . S
C263 H253 0.930 . S
C263 C262 1.375 . S
C263 C264 1.416 . S
C264 C263 1.416 . S
C264 C265 1.371 . S
C265 H254 0.930 . S
C265 C261 1.389 . S
C265 C264 1.371 . S
C266 H255 0.970 . S
C266 H256 0.970 . S
C266 C262 1.532 . S
C266 C267 1.499 . S
C267 C266 1.499 . S
C267 C268 1.370 . S
C267 C272 1.415 . S
C268 H257 0.930 . S
C268 C267 1.370 . S
C268 C269 1.407 . S
C269 C268 1.407 . S
C269 C270 1.365 . S
C270 H258 0.930 . S
C270 C269 1.365 . S
C270 C271 1.393 . S
C271 C270 1.393 . S
C271 C272 1.387 . S
C272 H259 0.930 . S
C272 C267 1.415 . S
C272 C271 1.387 . S
H273 C281 0.930 . S
H274 C284 0.930 . S
H275 C286 0.930 . S
H276 C287 0.970 . S
H277 C287 0.970 . S
H278 C289 0.930 . S
H279 C291 0.930 . S
H280 C293 0.930 . S
C281 H273 0.930 . S
C281 C282 1.382 . S
C281 C283 1.426 . S
C282 C281 1.382 . S
C282 C286 1.389 . S
C283 C281 1.426 . S
C283 C284 1.375 . S
C283 C287 1.532 . S
C284 H274 0.930 . S
C284 C283 1.375 . S
C284 C285 1.416 . S
C285 C284 1.416 . S
C285 C286 1.371 . S
C286 H275 0.930 . S
C286 C282 1.389 . S
C286 C285 1.371 . S
C287 H276 0.970 . S
C287 H277 0.970 . S
C287 C283 1.532 . S
C287 C288 1.499 . S
C288 C287 1.499 . S
C288 C289 1.370 . S
C288 C293 1.415 . S
C289 H278 0.930 . S
C289 C288 1.370 . S
C289 C290 1.407 . S
C290 C289 1.407 . S
C290 C291 1.365 . S
C291 H279 0.930 . S
C291 C290 1.365 . S
C291 C292 1.393 . S
C292 C291 1.393 . S
C292 C293 1.387 . S
C293 H280 0.930 . S
C293 C288 1.415 . S
C293 C292 1.387 . S
H294 C302 0.930 . S
H295 C305 0.930 . S
H296 C307 0.930 . S
H297 C308 0.970 . S
H298 C308 0.970 . S
H299 C310 0.930 . S
H300 C312 0.930 . S
H301 C314 0.930 . S
C302 H294 0.930 . S
C302 C303 1.382 . S
C302 C304 1.426 . S
C303 C302 1.382 . S
C303 C307 1.389 . S
C304 C302 1.426 . S
C304 C305 1.375 . S
C304 C308 1.532 . S
C305 H295 0.930 . S
C305 C304 1.375 . S
C305 C306 1.416 . S
C306 C305 1.416 . S
C306 C307 1.371 . S
C307 H296 0.930 . S
C307 C303 1.389 . S
C307 C306 1.371 . S
C308 H297 0.970 . S
C308 H298 0.970 . S
C308 C304 1.532 . S
C308 C309 1.499 . S
C309 C308 1.499 . S
C309 C310 1.370 . S
C309 C314 1.415 . S
C310 H299 0.930 . S
C310 C309 1.370 . S
C310 C311 1.407 . S
C311 C310 1.407 . S
C311 C312 1.365 . S
C312 H300 0.930 . S
C312 C311 1.365 . S
C312 C313 1.393 . S
C313 C312 1.393 . S
C313 C314 1.387 . S
C314 H301 0.930 . S
C314 C309 1.415 . S
C314 C313 1.387 . S
H315 C323 0.930 . S
H316 C326 0.930 . S
H317 C328 0.930 . S
H318 C329 0.970 . S
H319 C329 0.970 . S
H320 C331 0.930 . S
H321 C333 0.930 . S
H322 C335 0.930 . S
C323 H315 0.930 . S
C323 C324 1.382 . S
C323 C325 1.426 . S
C324 C323 1.382 . S
C324 C328 1.389 . S
C325 C323 1.426 . S
C325 C326 1.375 . S
C325 C329 1.532 . S
C326 H316 0.930 . S
C326 C325 1.375 . S
C326 C327 1.416 . S
C327 C326 1.416 . S
C327 C328 1.371 . S
C328 H317 0.930 . S
C328 C324 1.389 . S
C328 C327 1.371 . S
C329 H318 0.970 . S
C329 H319 0.970 . S
C329 C325 1.532 . S
C329 C330 1.499 . S
C330 C329 1.499 . S
C330 C331 1.370 . S
C330 C335 1.415 . S
C331 H320 0.930 . S
C331 C330 1.370 . S
C331 C332 1.407 . S
C332 C331 1.407 . S
C332 C333 1.365 . S
C333 H321 0.930 . S
C333 C332 1.365 . S
C333 C334 1.393 . S
C334 C333 1.393 . S
C334 C335 1.387 . S
C335 H322 0.930 . S
C335 C330 1.415 . S
C335 C334 1.387 . S
H336 C344 0.930 . S
H337 C347 0.930 . S
H338 C349 0.930 . S
H339 C350 0.970 . S
H340 C350 0.970 . S
H341 C352 0.930 . S
H342 C354 0.930 . S
H343 C356 0.930 . S
C344 H336 0.930 . S
C344 C345 1.382 . S
C344 C346 1.426 . S
C345 C344 1.382 . S
C345 C349 1.389 . S
C346 C344 1.426 . S
C346 C347 1.375 . S
C346 C350 1.532 . S
C347 H337 0.930 . S
C347 C346 1.375 . S
C347 C348 1.416 . S
C348 C347 1.416 . S
C348 C349 1.371 . S
C349 H338 0.930 . S
C349 C345 1.389 . S
C349 C348 1.371 . S
C350 H339 0.970 . S
C350 H340 0.970 . S
C350 C346 1.532 . S
C350 C351 1.499 . S
C351 C350 1.499 . S
C351 C352 1.370 . S
C351 C356 1.415 . S
C352 H341 0.930 . S
C352 C351 1.370 . S
C352 C353 1.407 . S
C353 C352 1.407 . S
C353 C354 1.365 . S
C354 H342 0.930 . S
C354 C353 1.365 . S
C354 C355 1.393 . S
C355 C354 1.393 . S
C355 C356 1.387 . S
C356 H343 0.930 . S
C356 C351 1.415 . S
C356 C355 1.387 . S
H357 C365 0.930 . S
H358 C368 0.930 . S
H359 C370 0.930 . S
H360 C371 0.970 . S
H361 C371 0.970 . S
H362 C373 0.930 . S
H363 C375 0.930 . S
H364 C377 0.930 . S
C365 H357 0.930 . S
C365 C366 1.382 . S
C365 C367 1.426 . S
C366 C365 1.382 . S
C366 C370 1.389 . S
C367 C365 1.426 . S
C367 C368 1.375 . S
C367 C371 1.532 . S
C368 H358 0.930 . S
C368 C367 1.375 . S
C368 C369 1.416 . S
C369 C368 1.416 . S
C369 C370 1.371 . S
C370 H359 0.930 . S
C370 C366 1.389 . S
C370 C369 1.371 . S
C371 H360 0.970 . S
C371 H361 0.970 . S
C371 C367 1.532 . S
C371 C372 1.499 . S
C372 C371 1.499 . S
C372 C373 1.370 . S
C372 C377 1.415 . S
C373 H362 0.930 . S
C373 C372 1.370 . S
C373 C374 1.407 . S
C374 C373 1.407 . S
C374 C375 1.365 . S
C375 H363 0.930 . S
C375 C374 1.365 . S
C375 C376 1.393 . S
C376 C375 1.393 . S
C376 C377 1.387 . S
C377 H364 0.930 . S
C377 C372 1.415 . S
C377 C376 1.387 . S
H378 C386 0.930 . S
H379 C389 0.930 . S
H380 C391 0.930 . S
H381 C392 0.970 . S
H382 C392 0.970 . S
H383 C394 0.930 . S
H384 C396 0.930 . S
H385 C398 0.930 . S
C386 H378 0.930 . S
C386 C387 1.382 . S
C386 C388 1.426 . S
C387 C386 1.382 . S
C387 C391 1.389 . S
C388 C386 1.426 . S
C388 C389 1.375 . S
C388 C392 1.532 . S
C389 H379 0.930 . S
C389 C388 1.375 . S
C389 C390 1.416 . S
C390 C389 1.416 . S
C390 C391 1.371 . S
C391 H380 0.930 . S
C391 C387 1.389 . S
C391 C390 1.371 . S
C392 H381 0.970 . S
C392 H382 0.970 . S
C392 C388 1.532 . S
C392 C393 1.499 . S
C393 C392 1.499 . S
C393 C394 1.370 . S
C393 C398 1.415 . S
C394 H383 0.930 . S
C394 C393 1.370 . S
C394 C395 1.407 . S
C395 C394 1.407 . S
C395 C396 1.365 . S
C396 H384 0.930 . S
C396 C395 1.365 . S
C396 C397 1.393 . S
C397 C396 1.393 . S
C397 C398 1.387 . S
C398 H385 0.930 . S
C398 C393 1.415 . S
C398 C397 1.387 . S
H399 C407 0.930 . S
H400 C410 0.930 . S
H401 C412 0.930 . S
H402 C413 0.970 . S
H403 C413 0.970 . S
H404 C415 0.930 . S
H405 C417 0.930 . S
H406 C419 0.930 . S
C407 H399 0.930 . S
C407 C408 1.382 . S
C407 C409 1.426 . S
C408 C407 1.382 . S
C408 C412 1.389 . S
C409 C407 1.426 . S
C409 C410 1.375 . S
C409 C413 1.532 . S
C410 H400 0.930 . S
C410 C409 1.375 . S
C410 C411 1.416 . S
C411 C410 1.416 . S
C411 C412 1.371 . S
C412 H401 0.930 . S
C412 C408 1.389 . S
C412 C411 1.371 . S
C413 H402 0.970 . S
C413 H403 0.970 . S
C413 C409 1.532 . S
C413 C414 1.499 . S
C414 C413 1.499 . S
C414 C415 1.370 . S
C414 C419 1.415 . S
C415 H404 0.930 . S
C415 C414 1.370 . S
C415 C416 1.407 . S
C416 C415 1.407 . S
C416 C417 1.365 . S
C417 H405 0.930 . S
C417 C416 1.365 . S
C417 C418 1.393 . S
C418 C417 1.393 . S
C418 C419 1.387 . S
C419 H406 0.930 . S
C419 C414 1.415 . S
C419 C418 1.387 . S
H420 C428 0.930 . S
H421 C431 0.930 . S
H422 C433 0.930 . S
H423 C434 0.970 . S
H424 C434 0.970 . S
H425 C436 0.930 . S
H426 C438 0.930 . S
H427 C440 0.930 . S
C428 H420 0.930 . S
C428 C429 1.382 . S
C428 C430 1.426 . S
C429 C428 1.382 . S
C429 C433 1.389 . S
C430 C428 1.426 . S
C430 C431 1.375 . S
C430 C434 1.532 . S
C431 H421 0.930 . S
C431 C430 1.375 . S
C431 C432 1.416 . S
C432 C431 1.416 . S
C432 C433 1.371 . S
C433 H422 0.930 . S
C433 C429 1.389 . S
C433 C432 1.371 . S
C434 H423 0.970 . S
C434 H424 0.970 . S
C434 C430 1.532 . S
C434 C435 1.499 . S
C435 C434 1.499 . S
C435 C436 1.370 . S
C435 C440 1.415 . S
C436 H425 0.930 . S
C436 C435 1.370 . S
C436 C437 1.407 . S
C437 C436 1.407 . S
C437 C438 1.365 . S
C438 H426 0.930 . S
C438 C437 1.365 . S
C438 C439 1.393 . S
C439 C438 1.393 . S
C439 C440 1.387 . S
C440 H427 0.930 . S
C440 C435 1.415 . S
C440 C439 1.387 . S
H441 C449 0.930 . S
H442 C452 0.930 . S
H443 C454 0.930 . S
H444 C455 0.970 . S
H445 C455 0.970 . S
H446 C457 0.930 . S
H447 C459 0.930 . S
H448 C461 0.930 . S
C449 H441 0.930 . S
C449 C450 1.382 . S
C449 C451 1.426 . S
C450 C449 1.382 . S
C450 C454 1.389 1_455 S
C451 C449 1.426 . S
C451 C452 1.375 . S
C451 C455 1.532 . S
C452 H442 0.930 . S
C452 C451 1.375 . S
C452 C453 1.416 . S
C453 C452 1.416 . S
C453 C454 1.371 1_455 S
C454 H443 0.930 . S
C454 C450 1.389 1_655 S
C454 C453 1.371 1_655 S
C455 H444 0.970 . S
C455 H445 0.970 . S
C455 C451 1.532 . S
C455 C456 1.499 . S
C456 C455 1.499 . S
C456 C457 1.370 . S
C456 C461 1.415 . S
C457 H446 0.930 . S
C457 C456 1.370 . S
C457 C458 1.410 . S
C458 C457 1.410 . S
C458 C459 1.370 1_455 S
C459 H447 0.930 . S
C459 C458 1.370 1_655 S
C459 C460 1.393 1_655 S
C460 C459 1.393 1_455 S
C460 C461 1.387 . S
C461 H448 0.930 . S
C461 C456 1.415 . S
C461 C460 1.387 . S
H462 C470 0.930 . S
H463 C473 0.930 . S
H464 C475 0.930 . S
H465 C476 0.970 . S
H466 C476 0.970 . S
H467 C478 0.930 . S
H468 C480 0.930 . S
H469 C482 0.930 . S
C470 H462 0.930 . S
C470 C471 1.382 . S
C470 C472 1.426 . S
C471 C470 1.382 . S
C471 C475 1.389 . S
C472 C470 1.426 . S
C472 C473 1.375 . S
C472 C476 1.532 . S
C473 H463 0.930 . S
C473 C472 1.375 . S
C473 C474 1.416 . S
C474 C473 1.416 . S
C474 C475 1.371 . S
C475 H464 0.930 . S
C475 C471 1.389 . S
C475 C474 1.371 . S
C476 H465 0.970 . S
C476 H466 0.970 . S
C476 C472 1.532 . S
C476 C477 1.499 . S
C477 C476 1.499 . S
C477 C478 1.370 . S
C477 C482 1.415 . S
C478 H467 0.930 . S
C478 C477 1.370 . S
C478 C479 1.407 . S
C479 C478 1.407 . S
C479 C480 1.365 . S
C480 H468 0.930 . S
C480 C479 1.365 . S
C480 C481 1.393 . S
C481 C480 1.393 . S
C481 C482 1.387 . S
C482 H469 0.930 . S
C482 C477 1.415 . S
C482 C481 1.387 . S
H483 C491 0.930 . S
H484 C494 0.930 . S
H485 C496 0.930 . S
H486 C497 0.970 . S
H487 C497 0.970 . S
H488 C499 0.930 . S
H489 C501 0.930 . S
H490 C503 0.930 . S
C491 H483 0.930 . S
C491 C492 1.382 . S
C491 C493 1.426 . S
C492 C491 1.382 . S
C492 C496 1.389 1_565 S
C493 C491 1.426 . S
C493 C494 1.375 . S
C493 C497 1.532 . S
C494 H484 0.930 . S
C494 C493 1.375 . S
C494 C495 1.416 . S
C495 C494 1.416 . S
C495 C496 1.371 1_565 S
C496 H485 0.930 . S
C496 C492 1.389 1_545 S
C496 C495 1.371 1_545 S
C497 H486 0.970 . S
C497 H487 0.970 . S
C497 C493 1.532 . S
C497 C498 1.499 . S
C498 C497 1.499 . S
C498 C499 1.370 . S
C498 C503 1.415 . S
C499 H488 0.930 . S
C499 C498 1.370 . S
C499 C500 1.429 . S
C500 C499 1.429 . S
C500 C501 1.356 1_565 S
C501 H489 0.930 . S
C501 C500 1.356 1_545 S
C501 C502 1.393 1_545 S
C502 C501 1.393 1_565 S
C502 C503 1.387 . S
C503 H490 0.930 . S
C503 C498 1.415 . S
C503 C502 1.387 . S
H504 C512 0.930 . S
H505 C515 0.930 . S
H506 C517 0.930 . S
H507 C518 0.970 . S
H508 C518 0.970 . S
H509 C520 0.930 . S
H510 C522 0.930 . S
H511 C524 0.930 . S
C512 H504 0.930 . S
C512 C513 1.382 . S
C512 C514 1.426 . S
C513 C512 1.382 . S
C513 C517 1.389 1_565 S
C514 C512 1.426 . S
C514 C515 1.375 . S
C514 C518 1.532 . S
C515 H505 0.930 . S
C515 C514 1.375 . S
C515 C516 1.416 . S
C516 C515 1.416 . S
C516 C517 1.371 1_565 S
C517 H506 0.930 . S
C517 C513 1.389 1_545 S
C517 C516 1.371 1_545 S
C518 H507 0.970 . S
C518 H508 0.970 . S
C518 C514 1.532 . S
C518 C519 1.499 . S
C519 C518 1.499 . S
C519 C520 1.370 . S
C519 C524 1.415 . S
C520 H509 0.930 . S
C520 C519 1.370 . S
C520 C521 1.407 . S
C521 C520 1.407 . S
C521 C522 1.365 1_565 S
C522 H510 0.930 . S
C522 C521 1.365 1_545 S
C522 C523 1.393 1_545 S
C523 C522 1.393 1_565 S
C523 C524 1.387 . S
C524 H511 0.930 . S
C524 C519 1.415 . S
C524 C523 1.387 . S
H525 C533 0.930 . S
H526 C536 0.930 . S
H527 C538 0.930 . S
H528 C539 0.970 . S
H529 C539 0.970 . S
H530 C541 0.930 . S
H531 C543 0.930 . S
H532 C545 0.930 . S
C533 H525 0.930 . S
C533 C534 1.382 . S
C533 C535 1.426 . S
C534 C533 1.382 . S
C534 C538 1.389 1_455 S
C535 C533 1.426 . S
C535 C536 1.375 . S
C535 C539 1.532 . S
C536 H526 0.930 . S
C536 C535 1.375 . S
C536 C537 1.416 . S
C537 C536 1.416 . S
C537 C538 1.371 1_455 S
C538 H527 0.930 . S
C538 C534 1.389 1_655 S
C538 C537 1.371 1_655 S
C539 H528 0.970 . S
C539 H529 0.970 . S
C539 C535 1.532 . S
C539 C540 1.499 . S
C540 C539 1.499 . S
C540 C541 1.370 . S
C540 C545 1.415 . S
C541 H530 0.930 . S
C541 C540 1.370 . S
C541 C542 1.407 . S
C542 C541 1.407 . S
C542 C543 1.365 1_455 S
C543 H531 0.930 . S
C543 C542 1.365 1_655 S
C543 C544 1.393 1_655 S
C544 C543 1.393 1_455 S
C544 C545 1.387 . S
C545 H532 0.930 . S
C545 C540 1.415 . S
C545 C544 1.387 . S
H546 C554 0.930 . S
H547 C557 0.930 . S
H548 C559 0.930 . S
H549 C560 0.970 . S
H550 C560 0.970 . S
H551 C562 0.930 . S
H552 C564 0.930 . S
H553 C566 0.930 . S
C554 H546 0.930 . S
C554 C555 1.382 . S
C554 C556 1.426 . S
C555 C554 1.382 . S
C555 C559 1.389 . S
C556 C554 1.426 . S
C556 C557 1.375 . S
C556 C560 1.532 . S
C557 H547 0.930 . S
C557 C556 1.375 . S
C557 C558 1.416 . S
C558 C557 1.416 . S
C558 C559 1.371 . S
C559 H548 0.930 . S
C559 C555 1.389 . S
C559 C558 1.371 . S
C560 H549 0.970 . S
C560 H550 0.970 . S
C560 C556 1.532 . S
C560 C561 1.499 . S
C561 C560 1.499 . S
C561 C562 1.370 . S
C561 C566 1.415 . S
C562 H551 0.930 . S
C562 C561 1.370 . S
C562 C563 1.407 . S
C563 C562 1.407 . S
C563 C564 1.365 . S
C564 H552 0.930 . S
C564 C563 1.365 . S
C564 C565 1.393 . S
C565 C564 1.393 . S
C565 C566 1.387 . S
C566 H553 0.930 . S
C566 C561 1.415 . S
C566 C565 1.387 . S
H567 C575 0.930 . S
H568 C578 0.930 . S
H569 C580 0.930 . S
H570 C581 0.970 . S
H571 C581 0.970 . S
H572 C583 0.930 . S
H573 C585 0.930 . S
H574 C587 0.930 . S
C575 H567 0.930 . S
C575 C576 1.382 . S
C575 C577 1.426 . S
C576 C575 1.382 . S
C576 C580 1.389 . S
C577 C575 1.426 . S
C577 C578 1.375 . S
C577 C581 1.532 . S
C578 H568 0.930 . S
C578 C577 1.375 . S
C578 C579 1.416 . S
C579 C578 1.416 . S
C579 C580 1.371 . S
C580 H569 0.930 . S
C580 C576 1.389 . S
C580 C579 1.371 . S
C581 H570 0.970 . S
C581 H571 0.970 . S
C581 C577 1.532 . S
C581 C582 1.499 . S
C582 C581 1.499 . S
C582 C583 1.370 . S
C582 C587 1.415 . S
C583 H572 0.930 . S
C583 C582 1.370 . S
C583 C584 1.407 . S
C584 C583 1.407 . S
C584 C585 1.365 . S
C585 H573 0.930 . S
C585 C584 1.365 . S
C585 C586 1.393 . S
C586 C585 1.393 . S
C586 C587 1.387 . S
C587 H574 0.930 . S
C587 C582 1.415 . S
C587 C586 1.387 . S
H588 C596 0.930 . S
H589 C599 0.930 . S
H590 C601 0.930 . S
H591 C602 0.970 . S
H592 C602 0.970 . S
H593 C604 0.930 . S
H594 C606 0.930 . S
H595 C608 0.930 . S
C596 H588 0.930 . S
C596 C597 1.382 . S
C596 C598 1.426 . S
C597 C596 1.382 . S
C597 C601 1.389 . S
C598 C596 1.426 . S
C598 C599 1.375 . S
C598 C602 1.532 . S
C599 H589 0.930 . S
C599 C598 1.375 . S
C599 C600 1.416 . S
C600 C599 1.416 . S
C600 C601 1.371 . S
C601 H590 0.930 . S
C601 C597 1.389 . S
C601 C600 1.371 . S
C602 H591 0.970 . S
C602 H592 0.970 . S
C602 C598 1.532 . S
C602 C603 1.499 . S
C603 C602 1.499 . S
C603 C604 1.370 . S
C603 C608 1.415 . S
C604 H593 0.930 . S
C604 C603 1.370 . S
C604 C605 1.407 . S
C605 C604 1.407 . S
C605 C606 1.365 . S
C606 H594 0.930 . S
C606 C605 1.365 . S
C606 C607 1.393 . S
C607 C606 1.393 . S
C607 C608 1.387 . S
C608 H595 0.930 . S
C608 C603 1.415 . S
C608 C607 1.387 . S
H609 C617 0.930 . S
H610 C620 0.930 . S
H611 C622 0.930 . S
H612 C623 0.970 . S
H613 C623 0.970 . S
H614 C625 0.930 . S
H615 C627 0.930 . S
H616 C629 0.930 . S
C617 H609 0.930 . S
C617 C618 1.382 . S
C617 C619 1.426 . S
C618 C617 1.382 . S
C618 C622 1.389 . S
C619 C617 1.426 . S
C619 C620 1.375 . S
C619 C623 1.532 . S
C620 H610 0.930 . S
C620 C619 1.375 . S
C620 C621 1.416 . S
C621 C620 1.416 . S
C621 C622 1.371 . S
C622 H611 0.930 . S
C622 C618 1.389 . S
C622 C621 1.371 . S
C623 H612 0.970 . S
C623 H613 0.970 . S
C623 C619 1.532 . S
C623 C624 1.499 . S
C624 C623 1.499 . S
C624 C625 1.370 . S
C624 C629 1.415 . S
C625 H614 0.930 . S
C625 C624 1.370 . S
C625 C626 1.407 . S
C626 C625 1.407 . S
C626 C627 1.365 . S
C627 H615 0.930 . S
C627 C626 1.365 . S
C627 C628 1.393 . S
C628 C627 1.393 . S
C628 C629 1.387 . S
C629 H616 0.930 . S
C629 C624 1.415 . S
C629 C628 1.387 . S
H630 C636 0.930 . S
H631 C640 0.930 . S
H632 C645 0.929 . S
H633 C643 0.929 . S
H634 C638 0.929 . S
H635 C644 0.929 . S
C636 H630 0.930 . S
C636 C637 1.367 . S
C636 C644 1.378 . S
C637 C636 1.367 . S
C637 C645 1.433 1_655 S
C638 H634 0.929 . S
C638 C640 1.378 . S
C638 C642 1.350 1_455 S
C639 C642 1.463 . S
C639 C644 1.350 . S
C639 N647 1.427 1_655 S
C640 H631 0.930 . S
C640 C638 1.378 . S
C640 C641 1.367 1_455 S
C641 C640 1.367 1_655 S
C641 C643 1.433 . S
C642 C638 1.350 1_655 S
C642 C639 1.463 . S
C642 N646 1.427 . S
C643 H633 0.929 . S
C643 C641 1.433 . S
C643 N646 1.384 . S
C644 H635 0.929 . S
C644 C636 1.378 . S
C644 C639 1.350 . S
C645 H632 0.929 . S
C645 C637 1.433 1_455 S
C645 N647 1.384 . S
N646 C642 1.427 . S
N646 C643 1.384 . S
N647 C639 1.427 1_455 S
N647 C645 1.384 . S
H648 C654 0.930 . S
H649 C658 0.930 . S
H650 C663 0.929 . S
H651 C661 0.929 . S
H652 C656 0.929 . S
H653 C662 0.929 . S
C654 H648 0.930 . S
C654 C655 1.367 . S
C654 C662 1.378 . S
C655 C654 1.367 . S
C655 C663 1.433 . S
C656 H652 0.929 . S
C656 C658 1.378 . S
C656 C660 1.350 . S
C657 C660 1.463 . S
C657 C662 1.350 . S
C657 N665 1.427 . S
C658 H649 0.930 . S
C658 C656 1.378 . S
C658 C659 1.367 . S
C659 C658 1.367 . S
C659 C661 1.433 . S
C660 C656 1.350 . S
C660 C657 1.463 . S
C660 N664 1.427 . S
C661 H651 0.929 . S
C661 C659 1.433 . S
C661 N664 1.384 . S
C662 H653 0.929 . S
C662 C654 1.378 . S
C662 C657 1.350 . S
C663 H650 0.929 . S
C663 C655 1.433 . S
C663 N665 1.384 . S
N664 C660 1.427 . S
N664 C661 1.384 . S
N665 C657 1.427 . S
N665 C663 1.384 . S
H666 C672 0.930 . S
H667 C676 0.930 . S
H668 C681 0.929 . S
H669 C679 0.929 . S
H670 C674 0.929 . S
H671 C680 0.929 . S
C672 H666 0.930 . S
C672 C673 1.367 . S
C672 C680 1.378 . S
C673 C672 1.367 . S
C673 C681 1.433 1_545 S
C674 H670 0.929 . S
C674 C676 1.378 . S
C674 C678 1.350 1_565 S
C675 C678 1.463 . S
C675 C680 1.350 . S
C675 N683 1.427 1_545 S
C676 H667 0.930 . S
C676 C674 1.378 . S
C676 C677 1.367 1_565 S
C677 C676 1.367 1_545 S
C677 C679 1.433 . S
C678 C674 1.350 1_545 S
C678 C675 1.463 . S
C678 N682 1.427 . S
C679 H669 0.929 . S
C679 C677 1.433 . S
C679 N682 1.384 . S
C680 H671 0.929 . S
C680 C672 1.378 . S
C680 C675 1.350 . S
C681 H668 0.929 . S
C681 C673 1.433 1_565 S
C681 N683 1.384 . S
N682 C678 1.427 . S
N682 C679 1.384 . S
N683 C675 1.427 1_565 S
N683 C681 1.384 . S
H684 C690 0.930 . S
H685 C694 0.930 . S
H686 C699 0.929 . S
H687 C697 0.929 . S
H688 C692 0.929 . S
H689 C698 0.929 . S
C690 H684 0.930 . S
C690 C691 1.422 . S
C690 C698 1.378 . S
C691 C690 1.422 . S
C691 C699 1.406 1_565 S
C692 H688 0.929 . S
C692 C694 1.378 . S
C692 C696 1.350 1_545 S
C693 C696 1.463 . S
C693 C698 1.350 . S
C693 N701 1.427 1_565 S
C694 H685 0.930 . S
C694 C692 1.378 . S
C694 C695 1.367 1_545 S
C695 C694 1.367 1_565 S
C695 C697 1.433 . S
C696 C692 1.350 1_565 S
C696 C693 1.463 . S
C696 N700 1.427 . S
C697 H687 0.929 . S
C697 C695 1.433 . S
C697 N700 1.384 . S
C698 H689 0.929 . S
C698 C690 1.378 . S
C698 C693 1.350 . S
C699 H686 0.929 . S
C699 C691 1.406 1_545 S
C699 N701 1.384 . S
N700 C696 1.427 . S
N700 C697 1.384 . S
N701 C693 1.427 1_545 S
N701 C699 1.384 . S
H702 C708 0.930 . S
H703 C712 0.930 . S
H704 C717 0.929 . S
H705 C715 0.929 . S
H706 C710 0.929 . S
H707 C716 0.929 . S
C708 H702 0.930 . S
C708 C709 1.367 . S
C708 C716 1.378 . S
C709 C708 1.367 . S
C709 C717 1.433 1_455 S
C710 H706 0.929 . S
C710 C712 1.378 . S
C710 C714 1.350 1_655 S
C711 C714 1.463 . S
C711 C716 1.350 . S
C711 N719 1.427 1_455 S
C712 H703 0.930 . S
C712 C710 1.378 . S
C712 C713 1.367 1_655 S
C713 C712 1.367 1_455 S
C713 C715 1.433 . S
C714 C710 1.350 1_455 S
C714 C711 1.463 . S
C714 N718 1.427 . S
C715 H705 0.929 . S
C715 C713 1.433 . S
C715 N718 1.384 . S
C716 H707 0.929 . S
C716 C708 1.378 . S
C716 C711 1.350 . S
C717 H704 0.929 . S
C717 C709 1.433 1_655 S
C717 N719 1.384 . S
N718 C714 1.427 . S
N718 C715 1.384 . S
N719 C711 1.427 1_655 S
N719 C717 1.384 . S
H720 C726 0.930 . S
H721 C730 0.930 . S
H722 C735 0.929 . S
H723 C733 0.929 . S
H724 C728 0.929 . S
H725 C734 0.929 . S
C726 H720 0.930 . S
C726 C727 1.367 . S
C726 C734 1.378 . S
C727 C726 1.367 . S
C727 C735 1.433 . S
C728 H724 0.929 . S
C728 C730 1.378 . S
C728 C732 1.350 . S
C729 C732 1.463 . S
C729 C734 1.350 . S
C729 N737 1.427 . S
C730 H721 0.930 . S
C730 C728 1.378 . S
C730 C731 1.367 . S
C731 C730 1.367 . S
C731 C733 1.433 . S
C732 C728 1.350 . S
C732 C729 1.463 . S
C732 N736 1.427 . S
C733 H723 0.929 . S
C733 C731 1.433 . S
C733 N736 1.384 . S
C734 H725 0.929 . S
C734 C726 1.378 . S
C734 C729 1.350 . S
C735 H722 0.929 . S
C735 C727 1.433 . S
C735 N737 1.384 . S
N736 C732 1.427 . S
N736 C733 1.384 . S
N737 C729 1.427 . S
N737 C735 1.384 . S
H738 C744 0.930 . S
H739 C748 0.930 . S
H740 C753 0.929 . S
H741 C751 0.929 . S
H742 C746 0.929 . S
H743 C752 0.929 . S
C744 H738 0.930 . S
C744 C745 1.367 . S
C744 C752 1.378 . S
C745 C744 1.367 . S
C745 C753 1.433 1_455 S
C746 H742 0.929 . S
C746 C748 1.378 . S
C746 C750 1.350 1_655 S
C747 C750 1.463 . S
C747 C752 1.350 . S
C747 N755 1.427 1_455 S
C748 H739 0.930 . S
C748 C746 1.378 . S
C748 C749 1.360 1_655 S
C749 C748 1.360 1_455 S
C749 C751 1.429 . S
C750 C746 1.350 1_455 S
C750 C747 1.463 . S
C750 N754 1.427 . S
C751 H741 0.929 . S
C751 C749 1.429 . S
C751 N754 1.384 . S
C752 H743 0.929 . S
C752 C744 1.378 . S
C752 C747 1.350 . S
C753 H740 0.929 . S
C753 C745 1.433 1_655 S
C753 N755 1.384 . S
N754 C750 1.427 . S
N754 C751 1.384 . S
N755 C747 1.427 1_655 S
N755 C753 1.384 . S
H756 C762 0.930 . S
H757 C766 0.930 . S
H758 C771 0.929 . S
H759 C769 0.929 . S
H760 C764 0.929 . S
H761 C770 0.929 . S
C762 H756 0.930 . S
C762 C763 1.367 . S
C762 C770 1.378 . S
C763 C762 1.367 . S
C763 C771 1.433 . S
C764 H760 0.929 . S
C764 C766 1.378 . S
C764 C768 1.350 . S
C765 C768 1.463 . S
C765 C770 1.350 . S
C765 N773 1.427 . S
C766 H757 0.930 . S
C766 C764 1.378 . S
C766 C767 1.367 . S
C767 C766 1.367 . S
C767 C769 1.433 . S
C768 C764 1.350 . S
C768 C765 1.463 . S
C768 N772 1.427 . S
C769 H759 0.929 . S
C769 C767 1.433 . S
C769 N772 1.384 . S
C770 H761 0.929 . S
C770 C762 1.378 . S
C770 C765 1.350 . S
C771 H758 0.929 . S
C771 C763 1.433 . S
C771 N773 1.384 . S
N772 C768 1.427 . S
N772 C769 1.384 . S
N773 C765 1.427 . S
N773 C771 1.384 . S
H774 C780 0.930 . S
H775 C784 0.930 . S
H776 C789 0.929 . S
H777 C787 0.929 . S
H778 C782 0.929 . S
H779 C788 0.929 . S
C780 H774 0.930 . S
C780 C781 1.367 . S
C780 C788 1.378 . S
C781 C780 1.367 . S
C781 C789 1.433 1_565 S
C782 H778 0.929 . S
C782 C784 1.378 . S
C782 C786 1.339 1_545 S
C783 C786 1.469 . S
C783 C788 1.350 . S
C783 N791 1.427 1_565 S
C784 H775 0.930 . S
C784 C782 1.378 . S
C784 C785 1.365 1_545 S
C785 C784 1.365 1_565 S
C785 C787 1.437 . S
C786 C782 1.339 1_565 S
C786 C783 1.469 . S
C786 N790 1.433 . S
C787 H777 0.929 . S
C787 C785 1.437 . S
C787 N790 1.384 . S
C788 H779 0.929 . S
C788 C780 1.378 . S
C788 C783 1.350 . S
C789 H776 0.929 . S
C789 C781 1.433 1_545 S
C789 N791 1.384 . S
N790 C786 1.433 . S
N790 C787 1.384 . S
N791 C783 1.427 1_545 S
N791 C789 1.384 . S
H792 C798 0.930 . S
H793 C802 0.930 . S
H794 C807 0.929 . S
H795 C805 0.929 . S
H796 C800 0.929 . S
H797 C806 0.929 . S
C798 H792 0.930 . S
C798 C799 1.367 1_565 S
C798 C806 1.378 . S
C799 C798 1.367 1_545 S
C799 C807 1.433 . S
C800 H796 0.929 . S
C800 C802 1.378 . S
C800 C804 1.350 . S
C801 C804 1.463 . S
C801 C806 1.350 1_545 S
C801 N809 1.427 . S
C802 H793 0.930 . S
C802 C800 1.378 . S
C802 C803 1.380 . S
C803 C802 1.380 . S
C803 C805 1.404 1_545 S
C804 C800 1.350 . S
C804 C801 1.463 . S
C804 N808 1.427 1_545 S
C805 H795 0.929 . S
C805 C803 1.404 1_565 S
C805 N808 1.384 . S
C806 H797 0.929 . S
C806 C798 1.378 . S
C806 C801 1.350 1_565 S
C807 H794 0.929 . S
C807 C799 1.433 . S
C807 N809 1.384 . S
N808 C804 1.427 1_565 S
N808 C805 1.384 . S
N809 C801 1.427 . S
N809 C807 1.384 . S
H810 C816 0.930 . S
H811 C820 0.930 . S
H812 C825 0.929 . S
H813 C823 0.929 . S
H814 C818 0.929 . S
H815 C824 0.929 . S
C816 H810 0.930 . S
C816 C817 1.367 . S
C816 C824 1.378 . S
C817 C816 1.367 . S
C817 C825 1.433 1_655 S
C818 H814 0.929 . S
C818 C820 1.378 . S
C818 C822 1.333 1_455 S
C819 C822 1.477 . S
C819 C824 1.350 . S
C819 N827 1.427 1_655 S
C820 H811 0.930 . S
C820 C818 1.378 . S
C820 C821 1.364 1_455 S
C821 C820 1.364 1_655 S
C821 C823 1.448 . S
C822 C818 1.333 1_655 S
C822 C819 1.477 . S
C822 N826 1.432 . S
C823 H813 0.929 . S
C823 C821 1.448 . S
C823 N826 1.384 . S
C824 H815 0.929 . S
C824 C816 1.378 . S
C824 C819 1.350 . S
C825 H812 0.929 . S
C825 C817 1.433 1_455 S
C825 N827 1.384 . S
N826 C822 1.432 . S
N826 C823 1.384 . S
N827 C819 1.427 1_455 S
N827 C825 1.384 . S
H828 C834 0.930 . S
H829 C838 0.930 . S
H830 C843 0.929 . S
H831 C841 0.929 . S
H832 C836 0.929 . S
H833 C842 0.929 . S
C834 H828 0.930 . S
C834 C835 1.367 . S
C834 C842 1.378 . S
C835 C834 1.367 . S
C835 C843 1.433 . S
C836 H832 0.929 . S
C836 C838 1.378 . S
C836 C840 1.350 . S
C837 C840 1.463 . S
C837 C842 1.350 . S
C837 N845 1.427 . S
C838 H829 0.930 . S
C838 C836 1.378 . S
C838 C839 1.367 . S
C839 C838 1.367 . S
C839 C841 1.433 . S
C840 C836 1.350 . S
C840 C837 1.463 . S
C840 N844 1.427 . S
C841 H831 0.929 . S
C841 C839 1.433 . S
C841 N844 1.384 . S
C842 H833 0.929 . S
C842 C834 1.378 . S
C842 C837 1.350 . S
C843 H830 0.929 . S
C843 C835 1.433 . S
C843 N845 1.384 . S
N844 C840 1.427 . S
N844 C841 1.384 . S
N845 C837 1.427 . S
N845 C843 1.384 . S
H846 C852 0.930 . S
H847 C856 0.930 . S
H848 C861 0.929 . S
H849 C859 0.929 . S
H850 C854 0.929 . S
H851 C860 0.929 . S
C852 H846 0.930 . S
C852 C853 1.367 . S
C852 C860 1.378 . S
C853 C852 1.367 . S
C853 C861 1.433 . S
C854 H850 0.929 . S
C854 C856 1.378 . S
C854 C858 1.350 . S
C855 C858 1.463 . S
C855 C860 1.350 . S
C855 N863 1.427 . S
C856 H847 0.930 . S
C856 C854 1.378 . S
C856 C857 1.367 . S
C857 C856 1.367 . S
C857 C859 1.433 . S
C858 C854 1.350 . S
C858 C855 1.463 . S
C858 N862 1.427 . S
C859 H849 0.929 . S
C859 C857 1.433 . S
C859 N862 1.384 . S
C860 H851 0.929 . S
C860 C852 1.378 . S
C860 C855 1.350 . S
C861 H848 0.929 . S
C861 C853 1.433 . S
C861 N863 1.384 . S
N862 C858 1.427 . S
N862 C859 1.384 . S
N863 C855 1.427 . S
N863 C861 1.384 . S
H864 C870 0.930 . S
H865 C874 0.930 . S
H866 C879 0.929 . S
H867 C877 0.929 . S
H868 C872 0.929 . S
H869 C878 0.929 . S
C870 H864 0.930 . S
C870 C871 1.367 . S
C870 C878 1.378 . S
C871 C870 1.367 . S
C871 C879 1.433 . S
C872 H868 0.929 . S
C872 C874 1.378 . S
C872 C876 1.350 . S
C873 C876 1.463 . S
C873 C878 1.350 . S
C873 N881 1.427 . S
C874 H865 0.930 . S
C874 C872 1.378 . S
C874 C875 1.367 . S
C875 C874 1.367 . S
C875 C877 1.433 . S
C876 C872 1.350 . S
C876 C873 1.463 . S
C876 N880 1.427 . S
C877 H867 0.929 . S
C877 C875 1.433 . S
C877 N880 1.384 . S
C878 H869 0.929 . S
C878 C870 1.378 . S
C878 C873 1.350 . S
C879 H866 0.929 . S
C879 C871 1.433 . S
C879 N881 1.384 . S
N880 C876 1.427 . S
N880 C877 1.384 . S
N881 C873 1.427 . S
N881 C879 1.384 . S
H882 C888 0.930 . S
H883 C892 0.930 . S
H884 C897 0.929 . S
H885 C895 0.929 . S
H886 C890 0.929 . S
H887 C896 0.929 . S
C888 H882 0.930 . S
C888 C889 1.367 . S
C888 C896 1.378 . S
C889 C888 1.367 . S
C889 C897 1.433 . S
C890 H886 0.929 . S
C890 C892 1.378 . S
C890 C894 1.350 . S
C891 C894 1.463 . S
C891 C896 1.350 . S
C891 N899 1.427 . S
C892 H883 0.930 . S
C892 C890 1.378 . S
C892 C893 1.367 . S
C893 C892 1.367 . S
C893 C895 1.433 . S
C894 C890 1.350 . S
C894 C891 1.463 . S
C894 N898 1.427 . S
C895 H885 0.929 . S
C895 C893 1.433 . S
C895 N898 1.384 . S
C896 H887 0.929 . S
C896 C888 1.378 . S
C896 C891 1.350 . S
C897 H884 0.929 . S
C897 C889 1.433 . S
C897 N899 1.384 . S
N898 C894 1.427 . S
N898 C895 1.384 . S
N899 C891 1.427 . S
N899 C897 1.384 . S
H900 C906 0.930 . S
H901 C910 0.930 . S
H902 C915 0.929 . S
H903 C913 0.929 . S
H904 C908 0.929 . S
H905 C914 0.929 . S
C906 H900 0.930 . S
C906 C907 1.367 . S
C906 C914 1.378 . S
C907 C906 1.367 . S
C907 C915 1.433 . S
C908 H904 0.929 . S
C908 C910 1.378 . S
C908 C912 1.350 . S
C909 C912 1.463 . S
C909 C914 1.350 . S
C909 N917 1.427 . S
C910 H901 0.930 . S
C910 C908 1.378 . S
C910 C911 1.367 . S
C911 C910 1.367 . S
C911 C913 1.433 . S
C912 C908 1.350 . S
C912 C909 1.463 . S
C912 N916 1.427 . S
C913 H903 0.929 . S
C913 C911 1.433 . S
C913 N916 1.384 . S
C914 H905 0.929 . S
C914 C906 1.378 . S
C914 C909 1.350 . S
C915 H902 0.929 . S
C915 C907 1.433 . S
C915 N917 1.384 . S
N916 C912 1.427 . S
N916 C913 1.384 . S
N917 C909 1.427 . S
N917 C915 1.384 . S
H918 C924 0.930 . S
H919 C928 0.930 . S
H920 C933 0.929 . S
H921 C931 0.929 . S
H922 C926 0.929 . S
H923 C932 0.929 . S
C924 H918 0.930 . S
C924 C925 1.367 . S
C924 C932 1.378 . S
C925 C924 1.367 . S
C925 C933 1.433 . S
C926 H922 0.929 . S
C926 C928 1.378 . S
C926 C930 1.350 . S
C927 C930 1.463 . S
C927 C932 1.350 . S
C927 N935 1.427 . S
C928 H919 0.930 . S
C928 C926 1.378 . S
C928 C929 1.367 . S
C929 C928 1.367 . S
C929 C931 1.433 . S
C930 C926 1.350 . S
C930 C927 1.463 . S
C930 N934 1.427 . S
C931 H921 0.929 . S
C931 C929 1.433 . S
C931 N934 1.384 . S
C932 H923 0.929 . S
C932 C924 1.378 . S
C932 C927 1.350 . S
C933 H920 0.929 . S
C933 C925 1.433 . S
C933 N935 1.384 . S
N934 C930 1.427 . S
N934 C931 1.384 . S
N935 C927 1.427 . S
N935 C933 1.384 . S
H936 C942 0.930 . S
H937 C946 0.930 . S
H938 C951 0.929 . S
H939 C949 0.929 . S
H940 C944 0.929 . S
H941 C950 0.929 . S
C942 H936 0.930 . S
C942 C943 1.367 . S
C942 C950 1.378 . S
C943 C942 1.367 . S
C943 C951 1.433 . S
C944 H940 0.929 . S
C944 C946 1.378 . S
C944 C948 1.350 . S
C945 C948 1.463 . S
C945 C950 1.350 . S
C945 N953 1.427 . S
C946 H937 0.930 . S
C946 C944 1.378 . S
C946 C947 1.367 . S
C947 C946 1.367 . S
C947 C949 1.433 . S
C948 C944 1.350 . S
C948 C945 1.463 . S
C948 N952 1.427 . S
C949 H939 0.929 . S
C949 C947 1.433 . S
C949 N952 1.384 . S
C950 H941 0.929 . S
C950 C942 1.378 . S
C950 C945 1.350 . S
C951 H938 0.929 . S
C951 C943 1.433 . S
C951 N953 1.384 . S
N952 C948 1.427 . S
N952 C949 1.384 . S
N953 C945 1.427 . S
N953 C951 1.384 . S
H954 C960 0.930 . S
H955 C964 0.930 . S
H956 C969 0.929 . S
H957 C967 0.929 . S
H958 C962 0.929 . S
H959 C968 0.929 . S
C960 H954 0.930 . S
C960 C961 1.367 . S
C960 C968 1.378 . S
C961 C960 1.367 . S
C961 C969 1.433 . S
C962 H958 0.929 . S
C962 C964 1.378 . S
C962 C966 1.350 . S
C963 C966 1.463 . S
C963 C968 1.350 . S
C963 N971 1.427 . S
C964 H955 0.930 . S
C964 C962 1.378 . S
C964 C965 1.367 . S
C965 C964 1.367 . S
C965 C967 1.433 . S
C966 C962 1.350 . S
C966 C963 1.463 . S
C966 N970 1.427 . S
C967 H957 0.929 . S
C967 C965 1.433 . S
C967 N970 1.384 . S
C968 H959 0.929 . S
C968 C960 1.378 . S
C968 C963 1.350 . S
C969 H956 0.929 . S
C969 C961 1.433 . S
C969 N971 1.384 . S
N970 C966 1.427 . S
N970 C967 1.384 . S
N971 C963 1.427 . S
N971 C969 1.384 . S
H972 C978 0.930 . S
H973 C982 0.930 . S
H974 C987 0.929 . S
H975 C985 0.929 . S
H976 C980 0.929 . S
H977 C986 0.929 . S
C978 H972 0.930 . S
C978 C979 1.367 . S
C978 C986 1.378 . S
C979 C978 1.367 . S
C979 C987 1.433 . S
C980 H976 0.929 . S
C980 C982 1.378 . S
C980 C984 1.350 . S
C981 C984 1.463 . S
C981 C986 1.350 . S
C981 N989 1.427 . S
C982 H973 0.930 . S
C982 C980 1.378 . S
C982 C983 1.367 . S
C983 C982 1.367 . S
C983 C985 1.433 . S
C984 C980 1.350 . S
C984 C981 1.463 . S
C984 N988 1.427 . S
C985 H975 0.929 . S
C985 C983 1.433 . S
C985 N988 1.384 . S
C986 H977 0.929 . S
C986 C978 1.378 . S
C986 C981 1.350 . S
C987 H974 0.929 . S
C987 C979 1.433 . S
C987 N989 1.384 . S
N988 C984 1.427 . S
N988 C985 1.384 . S
N989 C981 1.427 . S
N989 C987 1.384 . S
H990 C996 0.930 . S
H991 C1000 0.930 . S
H992 C1005 0.929 . S
H993 C1003 0.929 . S
H994 C998 0.929 . S
H995 C1004 0.929 . S
C996 H990 0.930 . S
C996 C997 1.367 . S
C996 C1004 1.378 . S
C997 C996 1.367 . S
C997 C1005 1.433 . S
C998 H994 0.929 . S
C998 C1000 1.378 . S
C998 C1002 1.350 . S
C999 C1002 1.463 . S
C999 C1004 1.350 . S
C999 N1007 1.427 . S
C1000 H991 0.930 . S
C1000 C998 1.378 . S
C1000 C1001 1.367 . S
C1001 C1000 1.367 . S
C1001 C1003 1.433 . S
C1002 C998 1.350 . S
C1002 C999 1.463 . S
C1002 N1006 1.427 . S
C1003 H993 0.929 . S
C1003 C1001 1.433 . S
C1003 N1006 1.384 . S
C1004 H995 0.929 . S
C1004 C996 1.378 . S
C1004 C999 1.350 . S
C1005 H992 0.929 . S
C1005 C997 1.433 . S
C1005 N1007 1.384 . S
N1006 C1002 1.427 . S
N1006 C1003 1.384 . S
N1007 C999 1.427 . S
N1007 C1005 1.384 . S
H1008 C1014 0.930 . S
H1009 C1018 0.930 . S
H1010 C1023 0.929 . S
H1011 C1021 0.929 . S
H1012 C1016 0.929 . S
H1013 C1022 0.929 . S
C1014 H1008 0.930 . S
C1014 C1015 1.367 . S
C1014 C1022 1.378 . S
C1015 C1014 1.367 . S
C1015 C1023 1.433 . S
C1016 H1012 0.929 . S
C1016 C1018 1.378 . S
C1016 C1020 1.350 . S
C1017 C1020 1.463 . S
C1017 C1022 1.350 . S
C1017 N1025 1.427 . S
C1018 H1009 0.930 . S
C1018 C1016 1.378 . S
C1018 C1019 1.367 . S
C1019 C1018 1.367 . S
C1019 C1021 1.433 . S
C1020 C1016 1.350 . S
C1020 C1017 1.463 . S
C1020 N1024 1.427 . S
C1021 H1011 0.929 . S
C1021 C1019 1.433 . S
C1021 N1024 1.384 . S
C1022 H1013 0.929 . S
C1022 C1014 1.378 . S
C1022 C1017 1.350 . S
C1023 H1010 0.929 . S
C1023 C1015 1.433 . S
C1023 N1025 1.384 . S
N1024 C1020 1.427 . S
N1024 C1021 1.384 . S
N1025 C1017 1.427 . S
N1025 C1023 1.384 . S
H1026 C1032 0.930 . S
H1027 C1036 0.930 . S
H1028 C1041 0.929 . S
H1029 C1039 0.929 . S
H1030 C1034 0.929 . S
H1031 C1040 0.929 . S
C1032 H1026 0.930 . S
C1032 C1033 1.367 . S
C1032 C1040 1.378 . S
C1033 C1032 1.367 . S
C1033 C1041 1.433 . S
C1034 H1030 0.929 . S
C1034 C1036 1.378 . S
C1034 C1038 1.350 . S
C1035 C1038 1.463 . S
C1035 C1040 1.350 . S
C1035 N1043 1.427 . S
C1036 H1027 0.930 . S
C1036 C1034 1.378 . S
C1036 C1037 1.367 . S
C1037 C1036 1.367 . S
C1037 C1039 1.433 . S
C1038 C1034 1.350 . S
C1038 C1035 1.463 . S
C1038 N1042 1.427 . S
C1039 H1029 0.929 . S
C1039 C1037 1.433 . S
C1039 N1042 1.384 . S
C1040 H1031 0.929 . S
C1040 C1032 1.378 . S
C1040 C1035 1.350 . S
C1041 H1028 0.929 . S
C1041 C1033 1.433 . S
C1041 N1043 1.384 . S
N1042 C1038 1.427 . S
N1042 C1039 1.384 . S
N1043 C1035 1.427 . S
N1043 C1041 1.384 . S
H1044 C1050 0.930 . S
H1045 C1054 0.930 . S
H1046 C1059 0.929 . S
H1047 C1057 0.929 . S
H1048 C1052 0.929 . S
H1049 C1058 0.929 . S
C1050 H1044 0.930 . S
C1050 C1051 1.367 . S
C1050 C1058 1.378 . S
C1051 C1050 1.367 . S
C1051 C1059 1.433 . S
C1052 H1048 0.929 . S
C1052 C1054 1.378 . S
C1052 C1056 1.350 . S
C1053 C1056 1.463 . S
C1053 C1058 1.350 . S
C1053 N1061 1.427 . S
C1054 H1045 0.930 . S
C1054 C1052 1.378 . S
C1054 C1055 1.367 . S
C1055 C1054 1.367 . S
C1055 C1057 1.433 . S
C1056 C1052 1.350 . S
C1056 C1053 1.463 . S
C1056 N1060 1.427 . S
C1057 H1047 0.929 . S
C1057 C1055 1.433 . S
C1057 N1060 1.384 . S
C1058 H1049 0.929 . S
C1058 C1050 1.378 . S
C1058 C1053 1.350 . S
C1059 H1046 0.929 . S
C1059 C1051 1.433 . S
C1059 N1061 1.384 . S
N1060 C1056 1.427 . S
N1060 C1057 1.384 . S
N1061 C1053 1.427 . S
N1061 C1059 1.384 . S
H1062 C1068 0.930 . S
H1063 C1072 0.930 . S
H1064 C1077 0.929 . S
H1065 C1075 0.929 . S
H1066 C1070 0.929 . S
H1067 C1076 0.929 . S
C1068 H1062 0.930 . S
C1068 C1069 1.367 . S
C1068 C1076 1.378 . S
C1069 C1068 1.367 . S
C1069 C1077 1.433 . S
C1070 H1066 0.929 . S
C1070 C1072 1.378 . S
C1070 C1074 1.350 . S
C1071 C1074 1.463 . S
C1071 C1076 1.350 . S
C1071 N1079 1.427 . S
C1072 H1063 0.930 . S
C1072 C1070 1.378 . S
C1072 C1073 1.367 . S
C1073 C1072 1.367 . S
C1073 C1075 1.433 . S
C1074 C1070 1.350 . S
C1074 C1071 1.463 . S
C1074 N1078 1.427 . S
C1075 H1065 0.929 . S
C1075 C1073 1.433 . S
C1075 N1078 1.384 . S
C1076 H1067 0.929 . S
C1076 C1068 1.378 . S
C1076 C1071 1.350 . S
C1077 H1064 0.929 . S
C1077 C1069 1.433 . S
C1077 N1079 1.384 . S
N1078 C1074 1.427 . S
N1078 C1075 1.384 . S
N1079 C1071 1.427 . S
N1079 C1077 1.384 . S
H1080 C1086 0.930 . S
H1081 C1090 0.930 . S
H1082 C1095 0.929 . S
H1083 C1093 0.929 . S
H1084 C1088 0.929 . S
H1085 C1094 0.929 . S
C1086 H1080 0.930 . S
C1086 C1087 1.367 . S
C1086 C1094 1.378 . S
C1087 C1086 1.367 . S
C1087 C1095 1.433 . S
C1088 H1084 0.929 . S
C1088 C1090 1.378 . S
C1088 C1092 1.350 . S
C1089 C1092 1.463 . S
C1089 C1094 1.350 . S
C1089 N1097 1.427 . S
C1090 H1081 0.930 . S
C1090 C1088 1.378 . S
C1090 C1091 1.367 . S
C1091 C1090 1.367 . S
C1091 C1093 1.433 . S
C1092 C1088 1.350 . S
C1092 C1089 1.463 . S
C1092 N1096 1.427 . S
C1093 H1083 0.929 . S
C1093 C1091 1.433 . S
C1093 N1096 1.384 . S
C1094 H1085 0.929 . S
C1094 C1086 1.378 . S
C1094 C1089 1.350 . S
C1095 H1082 0.929 . S
C1095 C1087 1.433 . S
C1095 N1097 1.384 . S
N1096 C1092 1.427 . S
N1096 C1093 1.384 . S
N1097 C1089 1.427 . S
N1097 C1095 1.384 . S
H1098 C1104 0.930 . S
H1099 C1108 0.930 . S
H1100 C1113 0.929 . S
H1101 C1111 0.929 . S
H1102 C1106 0.929 . S
H1103 C1112 0.929 . S
C1104 H1098 0.930 . S
C1104 C1105 1.367 . S
C1104 C1112 1.378 . S
C1105 C1104 1.367 . S
C1105 C1113 1.433 . S
C1106 H1102 0.929 . S
C1106 C1108 1.378 . S
C1106 C1110 1.350 . S
C1107 C1110 1.463 . S
C1107 C1112 1.350 . S
C1107 N1115 1.427 . S
C1108 H1099 0.930 . S
C1108 C1106 1.378 . S
C1108 C1109 1.367 . S
C1109 C1108 1.367 . S
C1109 C1111 1.433 . S
C1110 C1106 1.350 . S
C1110 C1107 1.463 . S
C1110 N1114 1.427 . S
C1111 H1101 0.929 . S
C1111 C1109 1.433 . S
C1111 N1114 1.384 . S
C1112 H1103 0.929 . S
C1112 C1104 1.378 . S
C1112 C1107 1.350 . S
C1113 H1100 0.929 . S
C1113 C1105 1.433 . S
C1113 N1115 1.384 . S
N1114 C1110 1.427 . S
N1114 C1111 1.384 . S
N1115 C1107 1.427 . S
N1115 C1113 1.384 . S
H1116 C1122 0.930 . S
H1117 C1126 0.930 . S
H1118 C1131 0.929 . S
H1119 C1129 0.929 . S
H1120 C1124 0.929 . S
H1121 C1130 0.929 . S
C1122 H1116 0.930 . S
C1122 C1123 1.367 . S
C1122 C1130 1.378 . S
C1123 C1122 1.367 . S
C1123 C1131 1.433 . S
C1124 H1120 0.929 . S
C1124 C1126 1.378 . S
C1124 C1128 1.350 . S
C1125 C1128 1.463 . S
C1125 C1130 1.350 . S
C1125 N1133 1.427 . S
C1126 H1117 0.930 . S
C1126 C1124 1.378 . S
C1126 C1127 1.367 . S
C1127 C1126 1.367 . S
C1127 C1129 1.433 . S
C1128 C1124 1.350 . S
C1128 C1125 1.463 . S
C1128 N1132 1.427 . S
C1129 H1119 0.929 . S
C1129 C1127 1.433 . S
C1129 N1132 1.384 . S
C1130 H1121 0.929 . S
C1130 C1122 1.378 . S
C1130 C1125 1.350 . S
C1131 H1118 0.929 . S
C1131 C1123 1.433 . S
C1131 N1133 1.384 . S
N1132 C1128 1.427 . S
N1132 C1129 1.384 . S
N1133 C1125 1.427 . S
N1133 C1131 1.384 . S
H1134 C1140 0.930 . S
H1135 C1144 0.930 . S
H1136 C1149 0.929 . S
H1137 C1147 0.929 . S
H1138 C1142 0.929 . S
H1139 C1148 0.929 . S
C1140 H1134 0.930 . S
C1140 C1141 1.367 . S
C1140 C1148 1.378 . S
C1141 C1140 1.367 . S
C1141 C1149 1.433 . S
C1142 H1138 0.929 . S
C1142 C1144 1.378 . S
C1142 C1146 1.350 . S
C1143 C1146 1.463 . S
C1143 C1148 1.350 . S
C1143 N1151 1.427 . S
C1144 H1135 0.930 . S
C1144 C1142 1.378 . S
C1144 C1145 1.367 . S
C1145 C1144 1.367 . S
C1145 C1147 1.433 . S
C1146 C1142 1.350 . S
C1146 C1143 1.463 . S
C1146 N1150 1.427 . S
C1147 H1137 0.929 . S
C1147 C1145 1.433 . S
C1147 N1150 1.384 . S
C1148 H1139 0.929 . S
C1148 C1140 1.378 . S
C1148 C1143 1.350 . S
C1149 H1136 0.929 . S
C1149 C1141 1.433 . S
C1149 N1151 1.384 . S
N1150 C1146 1.427 . S
N1150 C1147 1.384 . S
N1151 C1143 1.427 . S
N1151 C1149 1.384 . S
H1152 C1158 0.930 . S
H1153 C1162 0.930 . S
H1154 C1167 0.929 . S
H1155 C1165 0.929 . S
H1156 C1160 0.929 . S
H1157 C1166 0.929 . S
C1158 H1152 0.930 . S
C1158 C1159 1.367 . S
C1158 C1166 1.378 . S
C1159 C1158 1.367 . S
C1159 C1167 1.433 . S
C1160 H1156 0.929 . S
C1160 C1162 1.378 . S
C1160 C1164 1.350 . S
C1161 C1164 1.463 . S
C1161 C1166 1.350 . S
C1161 N1169 1.427 . S
C1162 H1153 0.930 . S
C1162 C1160 1.378 . S
C1162 C1163 1.367 . S
C1163 C1162 1.367 . S
C1163 C1165 1.433 . S
C1164 C1160 1.350 . S
C1164 C1161 1.463 . S
C1164 N1168 1.427 . S
C1165 H1155 0.929 . S
C1165 C1163 1.433 . S
C1165 N1168 1.384 . S
C1166 H1157 0.929 . S
C1166 C1158 1.378 . S
C1166 C1161 1.350 . S
C1167 H1154 0.929 . S
C1167 C1159 1.433 . S
C1167 N1169 1.384 . S
N1168 C1164 1.427 . S
N1168 C1165 1.384 . S
N1169 C1161 1.427 . S
N1169 C1167 1.384 . S
H1170 C1176 0.930 . S
H1171 C1180 0.930 . S
H1172 C1185 0.929 . S
H1173 C1183 0.929 . S
H1174 C1178 0.929 . S
H1175 C1184 0.929 . S
C1176 H1170 0.930 . S
C1176 C1177 1.367 . S
C1176 C1184 1.378 . S
C1177 C1176 1.367 . S
C1177 C1185 1.433 . S
C1178 H1174 0.929 . S
C1178 C1180 1.378 . S
C1178 C1182 1.350 . S
C1179 C1182 1.463 . S
C1179 C1184 1.350 . S
C1179 N1187 1.427 . S
C1180 H1171 0.930 . S
C1180 C1178 1.378 . S
C1180 C1181 1.367 . S
C1181 C1180 1.367 . S
C1181 C1183 1.433 . S
C1182 C1178 1.350 . S
C1182 C1179 1.463 . S
C1182 N1186 1.427 . S
C1183 H1173 0.929 . S
C1183 C1181 1.433 . S
C1183 N1186 1.384 . S
C1184 H1175 0.929 . S
C1184 C1176 1.378 . S
C1184 C1179 1.350 . S
C1185 H1172 0.929 . S
C1185 C1177 1.433 . S
C1185 N1187 1.384 . S
N1186 C1182 1.427 . S
N1186 C1183 1.384 . S
N1187 C1179 1.427 . S
N1187 C1185 1.384 . S
H1188 C1194 0.930 . S
H1189 C1198 0.930 . S
H1190 C1203 0.929 . S
H1191 C1201 0.929 . S
H1192 C1196 0.929 . S
H1193 C1202 0.929 . S
C1194 H1188 0.930 . S
C1194 C1195 1.367 . S
C1194 C1202 1.378 . S
C1195 C1194 1.367 . S
C1195 C1203 1.433 . S
C1196 H1192 0.929 . S
C1196 C1198 1.378 . S
C1196 C1200 1.350 . S
C1197 C1200 1.463 . S
C1197 C1202 1.350 . S
C1197 N1205 1.427 . S
C1198 H1189 0.930 . S
C1198 C1196 1.378 . S
C1198 C1199 1.367 . S
C1199 C1198 1.367 . S
C1199 C1201 1.433 . S
C1200 C1196 1.350 . S
C1200 C1197 1.463 . S
C1200 N1204 1.427 . S
C1201 H1191 0.929 . S
C1201 C1199 1.433 . S
C1201 N1204 1.384 . S
C1202 H1193 0.929 . S
C1202 C1194 1.378 . S
C1202 C1197 1.350 . S
C1203 H1190 0.929 . S
C1203 C1195 1.433 . S
C1203 N1205 1.384 . S
N1204 C1200 1.427 . S
N1204 C1201 1.384 . S
N1205 C1197 1.427 . S
N1205 C1203 1.384 . S
H1206 C1212 0.930 . S
H1207 C1216 0.930 . S
H1208 C1221 0.929 . S
H1209 C1219 0.929 . S
H1210 C1214 0.929 . S
H1211 C1220 0.929 . S
C1212 H1206 0.930 . S
C1212 C1213 1.367 . S
C1212 C1220 1.378 . S
C1213 C1212 1.367 . S
C1213 C1221 1.433 . S
C1214 H1210 0.929 . S
C1214 C1216 1.378 . S
C1214 C1218 1.350 . S
C1215 C1218 1.463 . S
C1215 C1220 1.350 . S
C1215 N1223 1.427 . S
C1216 H1207 0.930 . S
C1216 C1214 1.378 . S
C1216 C1217 1.367 . S
C1217 C1216 1.367 . S
C1217 C1219 1.433 . S
C1218 C1214 1.350 . S
C1218 C1215 1.463 . S
C1218 N1222 1.427 . S
C1219 H1209 0.929 . S
C1219 C1217 1.433 . S
C1219 N1222 1.384 . S
C1220 H1211 0.929 . S
C1220 C1212 1.378 . S
C1220 C1215 1.350 . S
C1221 H1208 0.929 . S
C1221 C1213 1.433 . S
C1221 N1223 1.384 . S
N1222 C1218 1.427 . S
N1222 C1219 1.384 . S
N1223 C1215 1.427 . S
N1223 C1221 1.384 . S
H1224 C1230 0.930 . S
H1225 C1234 0.930 . S
H1226 C1239 0.929 . S
H1227 C1237 0.929 . S
H1228 C1232 0.929 . S
H1229 C1238 0.929 . S
C1230 H1224 0.930 . S
C1230 C1231 1.367 . S
C1230 C1238 1.378 . S
C1231 C1230 1.367 . S
C1231 C1239 1.433 . S
C1232 H1228 0.929 . S
C1232 C1234 1.378 . S
C1232 C1236 1.350 . S
C1233 C1236 1.463 . S
C1233 C1238 1.350 . S
C1233 N1241 1.427 . S
C1234 H1225 0.930 . S
C1234 C1232 1.378 . S
C1234 C1235 1.367 . S
C1235 C1234 1.367 . S
C1235 C1237 1.433 . S
C1236 C1232 1.350 . S
C1236 C1233 1.463 . S
C1236 N1240 1.427 . S
C1237 H1227 0.929 . S
C1237 C1235 1.433 . S
C1237 N1240 1.384 . S
C1238 H1229 0.929 . S
C1238 C1230 1.378 . S
C1238 C1233 1.350 . S
C1239 H1226 0.929 . S
C1239 C1231 1.433 . S
C1239 N1241 1.384 . S
N1240 C1236 1.427 . S
N1240 C1237 1.384 . S
N1241 C1233 1.427 . S
N1241 C1239 1.384 . S
H1242 C1248 0.930 . S
H1243 C1252 0.930 . S
H1244 C1257 0.929 . S
H1245 C1255 0.929 . S
H1246 C1250 0.929 . S
H1247 C1256 0.929 . S
C1248 H1242 0.930 . S
C1248 C1249 1.367 . S
C1248 C1256 1.378 . S
C1249 C1248 1.367 . S
C1249 C1257 1.433 . S
C1250 H1246 0.929 . S
C1250 C1252 1.378 . S
C1250 C1254 1.350 . S
C1251 C1254 1.463 . S
C1251 C1256 1.350 . S
C1251 N1259 1.427 . S
C1252 H1243 0.930 . S
C1252 C1250 1.378 . S
C1252 C1253 1.367 . S
C1253 C1252 1.367 . S
C1253 C1255 1.433 . S
C1254 C1250 1.350 . S
C1254 C1251 1.463 . S
C1254 N1258 1.427 . S
C1255 H1245 0.929 . S
C1255 C1253 1.433 . S
C1255 N1258 1.384 . S
C1256 H1247 0.929 . S
C1256 C1248 1.378 . S
C1256 C1251 1.350 . S
C1257 H1244 0.929 . S
C1257 C1249 1.433 . S
C1257 N1259 1.384 . S
N1258 C1254 1.427 . S
N1258 C1255 1.384 . S
N1259 C1251 1.427 . S
N1259 C1257 1.384 . S
H1260 C1266 0.930 . S
H1261 C1270 0.930 . S
H1262 C1275 0.929 . S
H1263 C1273 0.929 . S
H1264 C1268 0.929 . S
H1265 C1274 0.929 . S
C1266 H1260 0.930 . S
C1266 C1267 1.367 . S
C1266 C1274 1.378 . S
C1267 C1266 1.367 . S
C1267 C1275 1.433 . S
C1268 H1264 0.929 . S
C1268 C1270 1.378 . S
C1268 C1272 1.350 . S
C1269 C1272 1.463 . S
C1269 C1274 1.350 . S
C1269 N1277 1.427 . S
C1270 H1261 0.930 . S
C1270 C1268 1.378 . S
C1270 C1271 1.367 . S
C1271 C1270 1.367 . S
C1271 C1273 1.433 . S
C1272 C1268 1.350 . S
C1272 C1269 1.463 . S
C1272 N1276 1.427 . S
C1273 H1263 0.929 . S
C1273 C1271 1.433 . S
C1273 N1276 1.384 . S
C1274 H1265 0.929 . S
C1274 C1266 1.378 . S
C1274 C1269 1.350 . S
C1275 H1262 0.929 . S
C1275 C1267 1.433 . S
C1275 N1277 1.384 . S
N1276 C1272 1.427 . S
N1276 C1273 1.384 . S
N1277 C1269 1.427 . S
N1277 C1275 1.384 . S
H1278 C1284 0.930 . S
H1279 C1288 0.930 . S
H1280 C1293 0.929 . S
H1281 C1291 0.929 . S
H1282 C1286 0.929 . S
H1283 C1292 0.929 . S
C1284 H1278 0.930 . S
C1284 C1285 1.367 . S
C1284 C1292 1.378 . S
C1285 C1284 1.367 . S
C1285 C1293 1.433 . S
C1286 H1282 0.929 . S
C1286 C1288 1.378 . S
C1286 C1290 1.350 . S
C1287 C1290 1.463 . S
C1287 C1292 1.350 . S
C1287 N1295 1.427 . S
C1288 H1279 0.930 . S
C1288 C1286 1.378 . S
C1288 C1289 1.367 . S
C1289 C1288 1.367 . S
C1289 C1291 1.433 . S
C1290 C1286 1.350 . S
C1290 C1287 1.463 . S
C1290 N1294 1.427 . S
C1291 H1281 0.929 . S
C1291 C1289 1.433 . S
C1291 N1294 1.384 . S
C1292 H1283 0.929 . S
C1292 C1284 1.378 . S
C1292 C1287 1.350 . S
C1293 H1280 0.929 . S
C1293 C1285 1.433 . S
C1293 N1295 1.384 . S
N1294 C1290 1.427 . S
N1294 C1291 1.384 . S
N1295 C1287 1.427 . S
N1295 C1293 1.384 . S
H1296 C1302 0.930 . S
H1297 C1306 0.930 . S
H1298 C1311 0.929 . S
H1299 C1309 0.929 . S
H1300 C1304 0.929 . S
H1301 C1310 0.929 . S
C1302 H1296 0.930 . S
C1302 C1303 1.367 . S
C1302 C1310 1.378 . S
C1303 C1302 1.367 . S
C1303 C1311 1.433 . S
C1304 H1300 0.929 . S
C1304 C1306 1.378 . S
C1304 C1308 1.350 . S
C1305 C1308 1.463 . S
C1305 C1310 1.350 . S
C1305 N1313 1.427 . S
C1306 H1297 0.930 . S
C1306 C1304 1.378 . S
C1306 C1307 1.367 . S
C1307 C1306 1.367 . S
C1307 C1309 1.433 . S
C1308 C1304 1.350 . S
C1308 C1305 1.463 . S
C1308 N1312 1.427 . S
C1309 H1299 0.929 . S
C1309 C1307 1.433 . S
C1309 N1312 1.384 . S
C1310 H1301 0.929 . S
C1310 C1302 1.378 . S
C1310 C1305 1.350 . S
C1311 H1298 0.929 . S
C1311 C1303 1.433 . S
C1311 N1313 1.384 . S
N1312 C1308 1.427 . S
N1312 C1309 1.384 . S
N1313 C1305 1.427 . S
N1313 C1311 1.384 . S
H1314 C1320 0.930 . S
H1315 C1324 0.930 . S
H1316 C1329 0.929 . S
H1317 C1327 0.929 . S
H1318 C1322 0.929 . S
H1319 C1328 0.929 . S
C1320 H1314 0.930 . S
C1320 C1321 1.367 . S
C1320 C1328 1.378 . S
C1321 C1320 1.367 . S
C1321 C1329 1.433 . S
C1322 H1318 0.929 . S
C1322 C1324 1.378 . S
C1322 C1326 1.350 . S
C1323 C1326 1.463 . S
C1323 C1328 1.350 . S
C1323 N1331 1.427 . S
C1324 H1315 0.930 . S
C1324 C1322 1.378 . S
C1324 C1325 1.367 . S
C1325 C1324 1.367 . S
C1325 C1327 1.433 . S
C1326 C1322 1.350 . S
C1326 C1323 1.463 . S
C1326 N1330 1.427 . S
C1327 H1317 0.929 . S
C1327 C1325 1.433 . S
C1327 N1330 1.384 . S
C1328 H1319 0.929 . S
C1328 C1320 1.378 . S
C1328 C1323 1.350 . S
C1329 H1316 0.929 . S
C1329 C1321 1.433 . S
C1329 N1331 1.384 . S
N1330 C1326 1.427 . S
N1330 C1327 1.384 . S
N1331 C1323 1.427 . S
N1331 C1329 1.384 . S
H1332 C1338 0.930 . S
H1333 C1342 0.930 . S
H1334 C1347 0.929 1_554 S
H1335 C1345 0.929 . S
H1336 C1340 0.929 . S
H1337 C1346 0.929 . S
C1338 H1332 0.930 . S
C1338 C1339 1.367 . S
C1338 C1346 1.378 . S
C1339 C1338 1.367 . S
C1339 C1347 1.433 . S
C1340 H1336 0.929 . S
C1340 C1342 1.378 . S
C1340 C1344 1.350 . S
C1341 C1344 1.463 . S
C1341 C1346 1.350 . S
C1341 N1349 1.427 . S
C1342 H1333 0.930 . S
C1342 C1340 1.378 . S
C1342 C1343 1.367 . S
C1343 C1342 1.367 . S
C1343 C1345 1.433 . S
C1344 C1340 1.350 . S
C1344 C1341 1.463 . S
C1344 N1348 1.427 . S
C1345 H1335 0.929 . S
C1345 C1343 1.433 . S
C1345 N1348 1.384 . S
C1346 H1337 0.929 . S
C1346 C1338 1.378 . S
C1346 C1341 1.350 . S
C1347 H1334 0.929 1_556 S
C1347 C1339 1.433 . S
C1347 N1349 1.384 . S
N1348 C1344 1.427 . S
N1348 C1345 1.384 . S
N1349 C1341 1.427 . S
N1349 C1347 1.384 . S
H1350 C1356 0.930 . S
H1351 C1360 0.930 . S
H1352 C1365 0.929 . S
H1353 C1363 0.929 . S
H1354 C1358 0.929 . S
H1355 C1364 0.929 . S
C1356 H1350 0.930 . S
C1356 C1357 1.367 . S
C1356 C1364 1.378 . S
C1357 C1356 1.367 . S
C1357 C1365 1.433 . S
C1358 H1354 0.929 . S
C1358 C1360 1.378 . S
C1358 C1362 1.350 . S
C1359 C1362 1.463 . S
C1359 C1364 1.350 . S
C1359 N1367 1.427 . S
C1360 H1351 0.930 . S
C1360 C1358 1.378 . S
C1360 C1361 1.367 . S
C1361 C1360 1.367 . S
C1361 C1363 1.433 . S
C1362 C1358 1.350 . S
C1362 C1359 1.463 . S
C1362 N1366 1.427 . S
C1363 H1353 0.929 . S
C1363 C1361 1.433 . S
C1363 N1366 1.384 . S
C1364 H1355 0.929 . S
C1364 C1356 1.378 . S
C1364 C1359 1.350 . S
C1365 H1352 0.929 . S
C1365 C1357 1.433 . S
C1365 N1367 1.384 . S
N1366 C1362 1.427 . S
N1366 C1363 1.384 . S
N1367 C1359 1.427 . S
N1367 C1365 1.384 . S
H1368 C1374 0.930 . S
H1369 C1378 0.930 . S
H1370 C1383 0.929 . S
H1371 C1381 0.929 . S
H1372 C1376 0.929 . S
H1373 C1382 0.929 . S
C1374 H1368 0.930 . S
C1374 C1375 1.367 . S
C1374 C1382 1.378 . S
C1375 C1374 1.367 . S
C1375 C1383 1.433 . S
C1376 H1372 0.929 . S
C1376 C1378 1.378 . S
C1376 C1380 1.350 . S
C1377 C1380 1.463 . S
C1377 C1382 1.350 . S
C1377 N1385 1.427 . S
C1378 H1369 0.930 . S
C1378 C1376 1.378 . S
C1378 C1379 1.367 . S
C1379 C1378 1.367 . S
C1379 C1381 1.433 . S
C1380 C1376 1.350 . S
C1380 C1377 1.463 . S
C1380 N1384 1.427 . S
C1381 H1371 0.929 . S
C1381 C1379 1.433 . S
C1381 N1384 1.384 . S
C1382 H1373 0.929 . S
C1382 C1374 1.378 . S
C1382 C1377 1.350 . S
C1383 H1370 0.929 . S
C1383 C1375 1.433 . S
C1383 N1385 1.384 . S
N1384 C1380 1.427 . S
N1384 C1381 1.384 . S
N1385 C1377 1.427 . S
N1385 C1383 1.384 . S
H1386 C1392 0.930 . S
H1387 C1396 0.930 . S
H1388 C1401 0.929 . S
H1389 C1399 0.929 . S
H1390 C1394 0.929 . S
H1391 C1400 0.929 . S
C1392 H1386 0.930 . S
C1392 C1393 1.367 . S
C1392 C1400 1.378 . S
C1393 C1392 1.367 . S
C1393 C1401 1.433 . S
C1394 H1390 0.929 . S
C1394 C1396 1.378 . S
C1394 C1398 1.350 . S
C1395 C1398 1.463 . S
C1395 C1400 1.350 . S
C1395 N1403 1.427 . S
C1396 H1387 0.930 . S
C1396 C1394 1.378 . S
C1396 C1397 1.367 . S
C1397 C1396 1.367 . S
C1397 C1399 1.433 . S
C1398 C1394 1.350 . S
C1398 C1395 1.463 . S
C1398 N1402 1.427 . S
C1399 H1389 0.929 . S
C1399 C1397 1.433 . S
C1399 N1402 1.384 . S
C1400 H1391 0.929 . S
C1400 C1392 1.378 . S
C1400 C1395 1.350 . S
C1401 H1388 0.929 . S
C1401 C1393 1.433 . S
C1401 N1403 1.384 . S
N1402 C1398 1.427 . S
N1402 C1399 1.384 . S
N1403 C1395 1.427 . S
N1403 C1401 1.384 . S
H1404 C1410 0.930 1_554 S
H1405 C1414 0.930 . S
H1406 C1419 0.929 . S
H1407 C1417 0.929 . S
H1408 C1412 0.929 . S
H1409 C1418 0.929 . S
C1410 H1404 0.930 1_556 S
C1410 C1411 1.367 . S
C1410 C1418 1.378 . S
C1411 C1410 1.367 . S
C1411 C1419 1.433 . S
C1412 H1408 0.929 . S
C1412 C1414 1.378 . S
C1412 C1416 1.350 . S
C1413 C1416 1.463 . S
C1413 C1418 1.350 . S
C1413 N1421 1.427 . S
C1414 H1405 0.930 . S
C1414 C1412 1.378 . S
C1414 C1415 1.367 . S
C1415 C1414 1.367 . S
C1415 C1417 1.433 . S
C1416 C1412 1.350 . S
C1416 C1413 1.463 . S
C1416 N1420 1.427 . S
C1417 H1407 0.929 . S
C1417 C1415 1.433 . S
C1417 N1420 1.384 . S
C1418 H1409 0.929 . S
C1418 C1410 1.378 . S
C1418 C1413 1.350 . S
C1419 H1406 0.929 . S
C1419 C1411 1.433 . S
C1419 N1421 1.384 . S
N1420 C1416 1.427 . S
N1420 C1417 1.384 . S
N1421 C1413 1.427 . S
N1421 C1419 1.384 . S
H1422 C1428 0.930 . S
H1423 C1432 0.930 . S
H1424 C1437 0.929 1_554 S
H1425 C1435 0.929 . S
H1426 C1430 0.929 . S
H1427 C1436 0.929 . S
C1428 H1422 0.930 . S
C1428 C1429 1.367 . S
C1428 C1436 1.378 . S
C1429 C1428 1.367 . S
C1429 C1437 1.433 . S
C1430 H1426 0.929 . S
C1430 C1432 1.378 . S
C1430 C1434 1.350 . S
C1431 C1434 1.463 . S
C1431 C1436 1.350 . S
C1431 N1439 1.427 . S
C1432 H1423 0.930 . S
C1432 C1430 1.378 . S
C1432 C1433 1.367 . S
C1433 C1432 1.367 . S
C1433 C1435 1.433 . S
C1434 C1430 1.350 . S
C1434 C1431 1.463 . S
C1434 N1438 1.427 . S
C1435 H1425 0.929 . S
C1435 C1433 1.433 . S
C1435 N1438 1.384 . S
C1436 H1427 0.929 . S
C1436 C1428 1.378 . S
C1436 C1431 1.350 . S
C1437 H1424 0.929 1_556 S
C1437 C1429 1.433 . S
C1437 N1439 1.384 . S
N1438 C1434 1.427 . S
N1438 C1435 1.384 . S
N1439 C1431 1.427 . S
N1439 C1437 1.384 . S
H1440 C1446 0.930 . S
H1441 C1450 0.930 . S
H1442 C1455 0.929 . S
H1443 C1453 0.929 . S
H1444 C1448 0.929 . S
H1445 C1454 0.929 . S
C1446 H1440 0.930 . S
C1446 C1447 1.367 . S
C1446 C1454 1.378 . S
C1447 C1446 1.367 . S
C1447 C1455 1.433 . S
C1448 H1444 0.929 . S
C1448 C1450 1.378 . S
C1448 C1452 1.350 . S
C1449 C1452 1.463 . S
C1449 C1454 1.350 . S
C1449 N1457 1.427 . S
C1450 H1441 0.930 . S
C1450 C1448 1.378 . S
C1450 C1451 1.367 . S
C1451 C1450 1.367 . S
C1451 C1453 1.433 . S
C1452 C1448 1.350 . S
C1452 C1449 1.463 . S
C1452 N1456 1.427 . S
C1453 H1443 0.929 . S
C1453 C1451 1.433 . S
C1453 N1456 1.384 . S
C1454 H1445 0.929 . S
C1454 C1446 1.378 . S
C1454 C1449 1.350 . S
C1455 H1442 0.929 . S
C1455 C1447 1.433 . S
C1455 N1457 1.384 . S
N1456 C1452 1.427 . S
N1456 C1453 1.384 . S
N1457 C1449 1.427 . S
N1457 C1455 1.384 . S
H1458 C1464 0.930 . S
H1459 C1468 0.930 . S
H1460 C1473 0.929 . S
H1461 C1471 0.929 . S
H1462 C1466 0.929 . S
H1463 C1472 0.929 . S
C1464 H1458 0.930 . S
C1464 C1465 1.367 . S
C1464 C1472 1.378 . S
C1465 C1464 1.367 . S
C1465 C1473 1.433 . S
C1466 H1462 0.929 . S
C1466 C1468 1.378 . S
C1466 C1470 1.350 . S
C1467 C1470 1.463 . S
C1467 C1472 1.350 . S
C1467 N1475 1.427 . S
C1468 H1459 0.930 . S
C1468 C1466 1.378 . S
C1468 C1469 1.367 . S
C1469 C1468 1.367 . S
C1469 C1471 1.433 . S
C1470 C1466 1.350 . S
C1470 C1467 1.463 . S
C1470 N1474 1.427 . S
C1471 H1461 0.929 . S
C1471 C1469 1.433 . S
C1471 N1474 1.384 . S
C1472 H1463 0.929 . S
C1472 C1464 1.378 . S
C1472 C1467 1.350 . S
C1473 H1460 0.929 . S
C1473 C1465 1.433 . S
C1473 N1475 1.384 . S
N1474 C1470 1.427 . S
N1474 C1471 1.384 . S
N1475 C1467 1.427 . S
N1475 C1473 1.384 . S
H1476 C1482 0.930 . S
H1477 C1486 0.930 . S
H1478 C1491 0.929 . S
H1479 C1489 0.929 . S
H1480 C1484 0.929 . S
H1481 C1490 0.929 . S
C1482 H1476 0.930 . S
C1482 C1483 1.367 . S
C1482 C1490 1.378 . S
C1483 C1482 1.367 . S
C1483 C1491 1.433 . S
C1484 H1480 0.929 . S
C1484 C1486 1.378 . S
C1484 C1488 1.350 . S
C1485 C1488 1.463 . S
C1485 C1490 1.350 . S
C1485 N1493 1.427 . S
C1486 H1477 0.930 . S
C1486 C1484 1.378 . S
C1486 C1487 1.367 . S
C1487 C1486 1.367 . S
C1487 C1489 1.433 . S
C1488 C1484 1.350 . S
C1488 C1485 1.463 . S
C1488 N1492 1.427 . S
C1489 H1479 0.929 . S
C1489 C1487 1.433 . S
C1489 N1492 1.384 . S
C1490 H1481 0.929 . S
C1490 C1482 1.378 . S
C1490 C1485 1.350 . S
C1491 H1478 0.929 . S
C1491 C1483 1.433 . S
C1491 N1493 1.384 . S
N1492 C1488 1.427 . S
N1492 C1489 1.384 . S
N1493 C1485 1.427 . S
N1493 C1491 1.384 . S
H1494 C1500 0.930 . S
H1495 C1504 0.930 . S
H1496 C1509 0.929 . S
H1497 C1507 0.929 . S
H1498 C1502 0.929 . S
H1499 C1508 0.929 . S
C1500 H1494 0.930 . S
C1500 C1501 1.367 . S
C1500 C1508 1.378 . S
C1501 C1500 1.367 . S
C1501 C1509 1.433 . S
C1502 H1498 0.929 . S
C1502 C1504 1.378 . S
C1502 C1506 1.350 . S
C1503 C1506 1.463 . S
C1503 C1508 1.350 . S
C1503 N1511 1.427 . S
C1504 H1495 0.930 . S
C1504 C1502 1.378 . S
C1504 C1505 1.367 . S
C1505 C1504 1.367 . S
C1505 C1507 1.433 . S
C1506 C1502 1.350 . S
C1506 C1503 1.463 . S
C1506 N1510 1.427 . S
C1507 H1497 0.929 . S
C1507 C1505 1.433 . S
C1507 N1510 1.384 . S
C1508 H1499 0.929 . S
C1508 C1500 1.378 . S
C1508 C1503 1.350 . S
C1509 H1496 0.929 . S
C1509 C1501 1.433 . S
C1509 N1511 1.384 . S
N1510 C1506 1.427 . S
N1510 C1507 1.384 . S
N1511 C1503 1.427 . S
N1511 C1509 1.384 . S
H1512 C1518 0.930 . S
H1513 C1522 0.930 . S
H1514 C1527 0.929 . S
H1515 C1525 0.929 . S
H1516 C1520 0.929 . S
H1517 C1526 0.929 . S
C1518 H1512 0.930 . S
C1518 C1519 1.367 . S
C1518 C1526 1.378 . S
C1519 C1518 1.367 . S
C1519 C1527 1.433 . S
C1520 H1516 0.929 . S
C1520 C1522 1.378 . S
C1520 C1524 1.350 . S
C1521 C1524 1.463 . S
C1521 C1526 1.350 . S
C1521 N1529 1.427 . S
C1522 H1513 0.930 . S
C1522 C1520 1.378 . S
C1522 C1523 1.367 . S
C1523 C1522 1.367 . S
C1523 C1525 1.433 . S
C1524 C1520 1.350 . S
C1524 C1521 1.463 . S
C1524 N1528 1.427 . S
C1525 H1515 0.929 . S
C1525 C1523 1.433 . S
C1525 N1528 1.384 . S
C1526 H1517 0.929 . S
C1526 C1518 1.378 . S
C1526 C1521 1.350 . S
C1527 H1514 0.929 . S
C1527 C1519 1.433 . S
C1527 N1529 1.384 . S
N1528 C1524 1.427 . S
N1528 C1525 1.384 . S
N1529 C1521 1.427 . S
N1529 C1527 1.384 . S
H1530 C1536 0.930 . S
H1531 C1540 0.930 . S
H1532 C1545 0.929 . S
H1533 C1543 0.929 . S
H1534 C1538 0.929 . S
H1535 C1544 0.929 . S
C1536 H1530 0.930 . S
C1536 C1537 1.367 . S
C1536 C1544 1.378 . S
C1537 C1536 1.367 . S
C1537 C1545 1.433 . S
C1538 H1534 0.929 . S
C1538 C1540 1.378 . S
C1538 C1542 1.350 . S
C1539 C1542 1.463 . S
C1539 C1544 1.350 . S
C1539 N1547 1.427 . S
C1540 H1531 0.930 . S
C1540 C1538 1.378 . S
C1540 C1541 1.367 . S
C1541 C1540 1.367 . S
C1541 C1543 1.433 . S
C1542 C1538 1.350 . S
C1542 C1539 1.463 . S
C1542 N1546 1.427 . S
C1543 H1533 0.929 . S
C1543 C1541 1.433 . S
C1543 N1546 1.384 . S
C1544 H1535 0.929 . S
C1544 C1536 1.378 . S
C1544 C1539 1.350 . S
C1545 H1532 0.929 . S
C1545 C1537 1.433 . S
C1545 N1547 1.384 . S
N1546 C1542 1.427 . S
N1546 C1543 1.384 . S
N1547 C1539 1.427 . S
N1547 C1545 1.384 . S
H1548 C1554 0.924 . S
H1549 C1558 0.930 . S
H1550 C1563 0.929 . S
H1551 C1561 0.929 . S
H1552 C1556 0.929 . S
H1553 C1562 0.929 1_655 S
C1554 H1548 0.924 . S
C1554 C1555 1.367 . S
C1554 C1562 1.378 . S
C1555 C1554 1.367 . S
C1555 C1563 1.433 . S
C1556 H1552 0.929 . S
C1556 C1558 1.378 . S
C1556 C1560 1.350 . S
C1557 C1560 1.463 . S
C1557 C1562 1.350 . S
C1557 N1565 1.427 . S
C1558 H1549 0.930 . S
C1558 C1556 1.378 . S
C1558 C1559 1.367 . S
C1559 C1558 1.367 . S
C1559 C1561 1.433 1_455 S
C1560 C1556 1.350 . S
C1560 C1557 1.463 . S
C1560 N1564 1.429 . S
C1561 H1551 0.929 . S
C1561 C1559 1.433 1_655 S
C1561 N1564 1.382 1_655 S
C1562 H1553 0.929 1_455 S
C1562 C1554 1.378 . S
C1562 C1557 1.350 . S
C1563 H1550 0.929 . S
C1563 C1555 1.433 . S
C1563 N1565 1.384 . S
N1564 C1560 1.429 . S
N1564 C1561 1.382 1_455 S
N1565 C1557 1.427 . S
N1565 C1563 1.384 . S
H1566 C1572 0.930 . S
H1567 C1576 0.930 . S
H1568 C1581 0.929 . S
H1569 C1579 0.929 . S
H1570 C1574 0.929 . S
H1571 C1580 0.929 . S
C1572 H1566 0.930 . S
C1572 C1573 1.367 . S
C1572 C1580 1.378 . S
C1573 C1572 1.367 . S
C1573 C1581 1.433 . S
C1574 H1570 0.929 . S
C1574 C1576 1.378 . S
C1574 C1578 1.350 . S
C1575 C1578 1.463 . S
C1575 C1580 1.350 . S
C1575 N1583 1.427 . S
C1576 H1567 0.930 . S
C1576 C1574 1.378 . S
C1576 C1577 1.367 . S
C1577 C1576 1.367 . S
C1577 C1579 1.433 . S
C1578 C1574 1.350 . S
C1578 C1575 1.463 . S
C1578 N1582 1.427 . S
C1579 H1569 0.929 . S
C1579 C1577 1.433 . S
C1579 N1582 1.384 . S
C1580 H1571 0.929 . S
C1580 C1572 1.378 . S
C1580 C1575 1.350 . S
C1581 H1568 0.929 . S
C1581 C1573 1.433 . S
C1581 N1583 1.384 . S
N1582 C1578 1.427 . S
N1582 C1579 1.384 . S
N1583 C1575 1.427 . S
N1583 C1581 1.384 . S
H1584 C1590 0.930 . S
H1585 C1594 0.930 . S
H1586 C1599 0.929 . S
H1587 C1597 0.929 . S
H1588 C1592 0.929 . S
H1589 C1598 0.929 . S
C1590 H1584 0.930 . S
C1590 C1591 1.367 1_545 S
C1590 C1598 1.378 . S
C1591 C1590 1.367 1_565 S
C1591 C1599 1.433 . S
C1592 H1588 0.929 . S
C1592 C1594 1.378 . S
C1592 C1596 1.350 . S
C1593 C1596 1.463 . S
C1593 C1598 1.350 1_565 S
C1593 N1601 1.427 . S
C1594 H1585 0.930 . S
C1594 C1592 1.378 . S
C1594 C1595 1.367 . S
C1595 C1594 1.367 . S
C1595 C1597 1.433 1_565 S
C1596 C1592 1.350 . S
C1596 C1593 1.463 . S
C1596 N1600 1.427 1_565 S
C1597 H1587 0.929 . S
C1597 C1595 1.433 1_545 S
C1597 N1600 1.384 . S
C1598 H1589 0.929 . S
C1598 C1590 1.378 . S
C1598 C1593 1.350 1_545 S
C1599 H1586 0.929 . S
C1599 C1591 1.433 . S
C1599 N1601 1.384 . S
N1600 C1596 1.427 1_545 S
N1600 C1597 1.384 . S
N1601 C1593 1.427 . S
N1601 C1599 1.384 . S
H1602 C1608 0.930 . S
H1603 C1612 0.930 . S
H1604 C1617 0.929 . S
H1605 C1615 0.929 . S
H1606 C1610 0.929 . S
H1607 C1616 0.929 . S
C1608 H1602 0.930 . S
C1608 C1609 1.367 1_545 S
C1608 C1616 1.378 . S
C1609 C1608 1.367 1_565 S
C1609 C1617 1.433 . S
C1610 H1606 0.929 . S
C1610 C1612 1.378 . S
C1610 C1614 1.350 . S
C1611 C1614 1.463 . S
C1611 C1616 1.350 1_565 S
C1611 N1619 1.427 . S
C1612 H1603 0.930 . S
C1612 C1610 1.378 . S
C1612 C1613 1.367 . S
C1613 C1612 1.367 . S
C1613 C1615 1.433 1_565 S
C1614 C1610 1.350 . S
C1614 C1611 1.463 . S
C1614 N1618 1.427 1_565 S
C1615 H1605 0.929 . S
C1615 C1613 1.433 1_545 S
C1615 N1618 1.384 . S
C1616 H1607 0.929 . S
C1616 C1608 1.378 . S
C1616 C1611 1.350 1_545 S
C1617 H1604 0.929 . S
C1617 C1609 1.433 . S
C1617 N1619 1.384 . S
N1618 C1614 1.427 1_545 S
N1618 C1615 1.384 . S
N1619 C1611 1.427 . S
N1619 C1617 1.384 . S
H1620 C1626 0.930 . S
H1621 C1630 0.930 . S
H1622 C1635 0.929 . S
H1623 C1633 0.929 . S
H1624 C1628 0.929 . S
H1625 C1634 0.929 . S
C1626 H1620 0.930 . S
C1626 C1627 1.367 . S
C1626 C1634 1.378 . S
C1627 C1626 1.367 . S
C1627 C1635 1.433 1_455 S
C1628 H1624 0.929 . S
C1628 C1630 1.378 . S
C1628 C1632 1.350 1_655 S
C1629 C1632 1.463 . S
C1629 C1634 1.350 . S
C1629 N1637 1.427 1_455 S
C1630 H1621 0.930 . S
C1630 C1628 1.378 . S
C1630 C1631 1.305 1_655 S
C1631 C1630 1.305 1_455 S
C1631 C1633 1.470 . S
C1632 C1628 1.350 1_455 S
C1632 C1629 1.463 . S
C1632 N1636 1.427 . S
C1633 H1623 0.929 . S
C1633 C1631 1.470 . S
C1633 N1636 1.384 . S
C1634 H1625 0.929 . S
C1634 C1626 1.378 . S
C1634 C1629 1.350 . S
C1635 H1622 0.929 . S
C1635 C1627 1.433 1_655 S
C1635 N1637 1.384 . S
N1636 C1632 1.427 . S
N1636 C1633 1.384 . S
N1637 C1629 1.427 1_655 S
N1637 C1635 1.384 . S
H1638 C1644 0.930 . S
H1639 C1648 0.930 . S
H1640 C1653 0.929 . S
H1641 C1651 0.929 . S
H1642 C1646 0.929 . S
H1643 C1652 0.929 . S
C1644 H1638 0.930 . S
C1644 C1645 1.367 . S
C1644 C1652 1.378 . S
C1645 C1644 1.367 . S
C1645 C1653 1.433 . S
C1646 H1642 0.929 . S
C1646 C1648 1.378 . S
C1646 C1650 1.350 . S
C1647 C1650 1.463 . S
C1647 C1652 1.350 . S
C1647 N1655 1.427 . S
C1648 H1639 0.930 . S
C1648 C1646 1.378 . S
C1648 C1649 1.367 . S
C1649 C1648 1.367 . S
C1649 C1651 1.433 . S
C1650 C1646 1.350 . S
C1650 C1647 1.463 . S
C1650 N1654 1.427 . S
C1651 H1641 0.929 . S
C1651 C1649 1.433 . S
C1651 N1654 1.384 . S
C1652 H1643 0.929 . S
C1652 C1644 1.378 . S
C1652 C1647 1.350 . S
C1653 H1640 0.929 . S
C1653 C1645 1.433 . S
C1653 N1655 1.384 . S
N1654 C1650 1.427 . S
N1654 C1651 1.384 . S
N1655 C1647 1.427 . S
N1655 C1653 1.384 . S
H1656 C1662 0.930 . S
H1657 C1666 0.930 . S
H1658 C1671 0.929 . S
H1659 C1669 0.929 . S
H1660 C1664 0.929 . S
H1661 C1670 0.929 . S
C1662 H1656 0.930 . S
C1662 C1663 1.367 . S
C1662 C1670 1.378 . S
C1663 C1662 1.367 . S
C1663 C1671 1.433 . S
C1664 H1660 0.929 . S
C1664 C1666 1.378 . S
C1664 C1668 1.350 . S
C1665 C1668 1.463 . S
C1665 C1670 1.350 . S
C1665 N1673 1.427 . S
C1666 H1657 0.930 . S
C1666 C1664 1.378 . S
C1666 C1667 1.367 . S
C1667 C1666 1.367 . S
C1667 C1669 1.433 . S
C1668 C1664 1.350 . S
C1668 C1665 1.463 . S
C1668 N1672 1.427 . S
C1669 H1659 0.929 . S
C1669 C1667 1.433 . S
C1669 N1672 1.384 . S
C1670 H1661 0.929 . S
C1670 C1662 1.378 . S
C1670 C1665 1.350 . S
C1671 H1658 0.929 . S
C1671 C1663 1.433 . S
C1671 N1673 1.384 . S
N1672 C1668 1.427 . S
N1672 C1669 1.384 . S
N1673 C1665 1.427 . S
N1673 C1671 1.384 . S
H1674 C1680 0.930 . S
H1675 C1684 0.930 . S
H1676 C1689 0.929 . S
H1677 C1687 0.929 . S
H1678 C1682 0.929 . S
H1679 C1688 0.929 . S
C1680 H1674 0.930 . S
C1680 C1681 1.367 . S
C1680 C1688 1.378 . S
C1681 C1680 1.367 . S
C1681 C1689 1.433 . S
C1682 H1678 0.929 . S
C1682 C1684 1.378 . S
C1682 C1686 1.350 . S
C1683 C1686 1.463 . S
C1683 C1688 1.350 . S
C1683 N1691 1.427 . S
C1684 H1675 0.930 . S
C1684 C1682 1.378 . S
C1684 C1685 1.367 . S
C1685 C1684 1.367 . S
C1685 C1687 1.433 . S
C1686 C1682 1.350 . S
C1686 C1683 1.463 . S
C1686 N1690 1.427 . S
C1687 H1677 0.929 . S
C1687 C1685 1.433 . S
C1687 N1690 1.384 . S
C1688 H1679 0.929 . S
C1688 C1680 1.378 . S
C1688 C1683 1.350 . S
C1689 H1676 0.929 . S
C1689 C1681 1.433 . S
C1689 N1691 1.384 . S
N1690 C1686 1.427 . S
N1690 C1687 1.384 . S
N1691 C1683 1.427 . S
N1691 C1689 1.384 . S
H1692 C1698 0.930 . S
H1693 C1702 0.930 . S
H1694 C1707 0.929 . S
H1695 C1705 0.929 . S
H1696 C1700 0.929 . S
H1697 C1706 0.929 . S
C1698 H1692 0.930 . S
C1698 C1699 1.367 . S
C1698 C1706 1.378 . S
C1699 C1698 1.367 . S
C1699 C1707 1.433 . S
C1700 H1696 0.929 . S
C1700 C1702 1.378 . S
C1700 C1704 1.350 . S
C1701 C1704 1.463 . S
C1701 C1706 1.350 . S
C1701 N1709 1.427 . S
C1702 H1693 0.930 . S
C1702 C1700 1.378 . S
C1702 C1703 1.367 . S
C1703 C1702 1.367 . S
C1703 C1705 1.433 . S
C1704 C1700 1.350 . S
C1704 C1701 1.463 . S
C1704 N1708 1.427 . S
C1705 H1695 0.929 . S
C1705 C1703 1.433 . S
C1705 N1708 1.384 . S
C1706 H1697 0.929 . S
C1706 C1698 1.378 . S
C1706 C1701 1.350 . S
C1707 H1694 0.929 . S
C1707 C1699 1.433 . S
C1707 N1709 1.384 . S
N1708 C1704 1.427 . S
N1708 C1705 1.384 . S
N1709 C1701 1.427 . S
N1709 C1707 1.384 . S
H1710 C1716 0.930 . S
H1711 C1720 0.930 . S
H1712 C1725 0.929 . S
H1713 C1723 0.929 . S
H1714 C1718 0.929 . S
H1715 C1724 0.929 . S
C1716 H1710 0.930 . S
C1716 C1717 1.367 1_565 S
C1716 C1724 1.378 . S
C1717 C1716 1.367 1_545 S
C1717 C1725 1.433 . S
C1718 H1714 0.929 . S
C1718 C1720 1.378 . S
C1718 C1722 1.350 . S
C1719 C1722 1.463 . S
C1719 C1724 1.350 1_545 S
C1719 N1727 1.427 . S
C1720 H1711 0.930 . S
C1720 C1718 1.378 . S
C1720 C1721 1.367 . S
C1721 C1720 1.367 . S
C1721 C1723 1.433 1_545 S
C1722 C1718 1.350 . S
C1722 C1719 1.463 . S
C1722 N1726 1.427 1_545 S
C1723 H1713 0.929 . S
C1723 C1721 1.433 1_565 S
C1723 N1726 1.384 . S
C1724 H1715 0.929 . S
C1724 C1716 1.378 . S
C1724 C1719 1.350 1_565 S
C1725 H1712 0.929 . S
C1725 C1717 1.433 . S
C1725 N1727 1.384 . S
N1726 C1722 1.427 1_565 S
N1726 C1723 1.384 . S
N1727 C1719 1.427 . S
N1727 C1725 1.384 . S
H1728 C1734 0.958 . S
H1729 C1738 0.930 . S
H1730 C1743 0.929 . S
H1731 C1741 0.927 1_455 S
H1732 C1736 0.929 . S
H1733 C1742 0.927 1_455 S
C1734 H1728 0.958 . S
C1734 C1735 1.367 . S
C1734 C1742 1.378 . S
C1735 C1734 1.367 . S
C1735 C1743 1.433 . S
C1736 H1732 0.929 . S
C1736 C1738 1.378 . S
C1736 C1740 1.350 . S
C1737 C1740 1.463 . S
C1737 C1742 1.350 . S
C1737 N1745 1.427 . S
C1738 H1729 0.930 . S
C1738 C1736 1.378 . S
C1738 C1739 1.367 . S
C1739 C1738 1.367 . S
C1739 C1741 1.446 . S
C1740 C1736 1.350 . S
C1740 C1737 1.463 . S
C1740 N1744 1.427 . S
C1741 H1731 0.927 1_655 S
C1741 C1739 1.446 . S
C1741 N1744 1.374 . S
C1742 H1733 0.927 1_655 S
C1742 C1734 1.378 . S
C1742 C1737 1.350 . S
C1743 H1730 0.929 . S
C1743 C1735 1.433 . S
C1743 N1745 1.384 . S
N1744 C1740 1.427 . S
N1744 C1741 1.374 . S
N1745 C1737 1.427 . S
N1745 C1743 1.384 . S
H1746 C1752 0.930 . S
H1747 C1756 0.930 . S
H1748 C1761 0.929 . S
H1749 C1759 0.929 . S
H1750 C1754 0.929 . S
H1751 C1760 0.929 . S
C1752 H1746 0.930 . S
C1752 C1753 1.367 . S
C1752 C1760 1.378 . S
C1753 C1752 1.367 . S
C1753 C1761 1.433 . S
C1754 H1750 0.929 . S
C1754 C1756 1.378 . S
C1754 C1758 1.350 . S
C1755 C1758 1.463 . S
C1755 C1760 1.350 . S
C1755 N1763 1.427 . S
C1756 H1747 0.930 . S
C1756 C1754 1.378 . S
C1756 C1757 1.367 . S
C1757 C1756 1.367 . S
C1757 C1759 1.433 . S
C1758 C1754 1.350 . S
C1758 C1755 1.463 . S
C1758 N1762 1.427 . S
C1759 H1749 0.929 . S
C1759 C1757 1.433 . S
C1759 N1762 1.384 . S
C1760 H1751 0.929 . S
C1760 C1752 1.378 . S
C1760 C1755 1.350 . S
C1761 H1748 0.929 . S
C1761 C1753 1.433 . S
C1761 N1763 1.384 . S
N1762 C1758 1.427 . S
N1762 C1759 1.384 . S
N1763 C1755 1.427 . S
N1763 C1761 1.384 . S
H1764 C1770 0.930 . S
H1765 C1774 0.930 . S
H1766 C1779 0.929 . S
H1767 C1777 0.929 . S
H1768 C1772 0.929 . S
H1769 C1778 0.929 . S
C1770 H1764 0.930 . S
C1770 C1771 1.367 . S
C1770 C1778 1.378 . S
C1771 C1770 1.367 . S
C1771 C1779 1.433 . S
C1772 H1768 0.929 . S
C1772 C1774 1.378 . S
C1772 C1776 1.350 . S
C1773 C1776 1.463 . S
C1773 C1778 1.350 . S
C1773 N1781 1.427 . S
C1774 H1765 0.930 . S
C1774 C1772 1.378 . S
C1774 C1775 1.367 . S
C1775 C1774 1.367 . S
C1775 C1777 1.433 . S
C1776 C1772 1.350 . S
C1776 C1773 1.463 . S
C1776 N1780 1.427 . S
C1777 H1767 0.929 . S
C1777 C1775 1.433 . S
C1777 N1780 1.384 . S
C1778 H1769 0.929 . S
C1778 C1770 1.378 . S
C1778 C1773 1.350 . S
C1779 H1766 0.929 . S
C1779 C1771 1.433 . S
C1779 N1781 1.384 . S
N1780 C1776 1.427 . S
N1780 C1777 1.384 . S
N1781 C1773 1.427 . S
N1781 C1779 1.384 . S
H1782 C1788 0.930 . S
H1783 C1792 0.930 . S
H1784 C1797 0.929 . S
H1785 C1795 0.929 . S
H1786 C1790 0.929 . S
H1787 C1796 0.929 . S
C1788 H1782 0.930 . S
C1788 C1789 1.367 . S
C1788 C1796 1.378 . S
C1789 C1788 1.367 . S
C1789 C1797 1.433 . S
C1790 H1786 0.929 . S
C1790 C1792 1.378 . S
C1790 C1794 1.350 . S
C1791 C1794 1.463 . S
C1791 C1796 1.350 . S
C1791 N1799 1.427 . S
C1792 H1783 0.930 . S
C1792 C1790 1.378 . S
C1792 C1793 1.367 . S
C1793 C1792 1.367 . S
C1793 C1795 1.433 . S
C1794 C1790 1.350 . S
C1794 C1791 1.463 . S
C1794 N1798 1.427 . S
C1795 H1785 0.929 . S
C1795 C1793 1.433 . S
C1795 N1798 1.384 . S
C1796 H1787 0.929 . S
C1796 C1788 1.378 . S
C1796 C1791 1.350 . S
C1797 H1784 0.929 . S
C1797 C1789 1.433 . S
C1797 N1799 1.384 . S
N1798 C1794 1.427 . S
N1798 C1795 1.384 . S
N1799 C1791 1.427 . S
N1799 C1797 1.384 . S
H1800 C1806 0.930 . S
H1801 C1810 0.930 . S
H1802 C1815 0.929 . S
H1803 C1813 0.929 . S
H1804 C1808 0.929 . S
H1805 C1814 0.929 . S
C1806 H1800 0.930 . S
C1806 C1807 1.367 . S
C1806 C1814 1.378 . S
C1807 C1806 1.367 . S
C1807 C1815 1.433 . S
C1808 H1804 0.929 . S
C1808 C1810 1.378 . S
C1808 C1812 1.350 . S
C1809 C1812 1.463 . S
C1809 C1814 1.350 . S
C1809 N1817 1.427 . S
C1810 H1801 0.930 . S
C1810 C1808 1.378 . S
C1810 C1811 1.367 . S
C1811 C1810 1.367 . S
C1811 C1813 1.433 . S
C1812 C1808 1.350 . S
C1812 C1809 1.463 . S
C1812 N1816 1.427 . S
C1813 H1803 0.929 . S
C1813 C1811 1.433 . S
C1813 N1816 1.384 . S
C1814 H1805 0.929 . S
C1814 C1806 1.378 . S
C1814 C1809 1.350 . S
C1815 H1802 0.929 . S
C1815 C1807 1.433 . S
C1815 N1817 1.384 . S
N1816 C1812 1.427 . S
N1816 C1813 1.384 . S
N1817 C1809 1.427 . S
N1817 C1815 1.384 . S
H1818 C1824 0.930 . S
H1819 C1828 0.930 . S
H1820 C1833 0.929 . S
H1821 C1831 0.929 . S
H1822 C1826 0.929 . S
H1823 C1832 0.929 . S
C1824 H1818 0.930 . S
C1824 C1825 1.367 . S
C1824 C1832 1.378 . S
C1825 C1824 1.367 . S
C1825 C1833 1.433 . S
C1826 H1822 0.929 . S
C1826 C1828 1.378 . S
C1826 C1830 1.350 . S
C1827 C1830 1.463 . S
C1827 C1832 1.350 . S
C1827 N1835 1.427 . S
C1828 H1819 0.930 . S
C1828 C1826 1.378 . S
C1828 C1829 1.367 . S
C1829 C1828 1.367 . S
C1829 C1831 1.433 . S
C1830 C1826 1.350 . S
C1830 C1827 1.463 . S
C1830 N1834 1.427 . S
C1831 H1821 0.929 . S
C1831 C1829 1.433 . S
C1831 N1834 1.384 . S
C1832 H1823 0.929 . S
C1832 C1824 1.378 . S
C1832 C1827 1.350 . S
C1833 H1820 0.929 . S
C1833 C1825 1.433 . S
C1833 N1835 1.384 . S
N1834 C1830 1.427 . S
N1834 C1831 1.384 . S
N1835 C1827 1.427 . S
N1835 C1833 1.384 . S
H1836 C1842 0.930 . S
H1837 C1846 0.930 . S
H1838 C1851 0.929 . S
H1839 C1849 0.929 . S
H1840 C1844 0.929 . S
H1841 C1850 0.929 . S
C1842 H1836 0.930 . S
C1842 C1843 1.367 . S
C1842 C1850 1.378 . S
C1843 C1842 1.367 . S
C1843 C1851 1.433 . S
C1844 H1840 0.929 . S
C1844 C1846 1.378 . S
C1844 C1848 1.350 . S
C1845 C1848 1.463 . S
C1845 C1850 1.350 . S
C1845 N1853 1.427 . S
C1846 H1837 0.930 . S
C1846 C1844 1.378 . S
C1846 C1847 1.367 . S
C1847 C1846 1.367 . S
C1847 C1849 1.433 . S
C1848 C1844 1.350 . S
C1848 C1845 1.463 . S
C1848 N1852 1.427 . S
C1849 H1839 0.929 . S
C1849 C1847 1.433 . S
C1849 N1852 1.384 . S
C1850 H1841 0.929 . S
C1850 C1842 1.378 . S
C1850 C1845 1.350 . S
C1851 H1838 0.929 . S
C1851 C1843 1.433 . S
C1851 N1853 1.384 . S
N1852 C1848 1.427 . S
N1852 C1849 1.384 . S
N1853 C1845 1.427 . S
N1853 C1851 1.384 . S
H1854 C1860 0.930 . S
H1855 C1864 0.930 . S
H1856 C1869 0.929 . S
H1857 C1867 0.929 . S
H1858 C1862 0.929 . S
H1859 C1868 0.929 . S
C1860 H1854 0.930 . S
C1860 C1861 1.367 . S
C1860 C1868 1.378 . S
C1861 C1860 1.367 . S
C1861 C1869 1.433 . S
C1862 H1858 0.929 . S
C1862 C1864 1.378 . S
C1862 C1866 1.350 . S
C1863 C1866 1.463 . S
C1863 C1868 1.350 . S
C1863 N1871 1.427 . S
C1864 H1855 0.930 . S
C1864 C1862 1.378 . S
C1864 C1865 1.367 . S
C1865 C1864 1.367 . S
C1865 C1867 1.433 . S
C1866 C1862 1.350 . S
C1866 C1863 1.463 . S
C1866 N1870 1.427 . S
C1867 H1857 0.929 . S
C1867 C1865 1.433 . S
C1867 N1870 1.384 . S
C1868 H1859 0.929 . S
C1868 C1860 1.378 . S
C1868 C1863 1.350 . S
C1869 H1856 0.929 . S
C1869 C1861 1.433 . S
C1869 N1871 1.384 . S
N1870 C1866 1.427 . S
N1870 C1867 1.384 . S
N1871 C1863 1.427 . S
N1871 C1869 1.384 . S
H1872 C1878 0.930 . S
H1873 C1882 0.930 . S
H1874 C1887 0.929 . S
H1875 C1885 0.929 . S
H1876 C1880 0.929 . S
H1877 C1886 0.929 . S
C1878 H1872 0.930 . S
C1878 C1879 1.367 . S
C1878 C1886 1.378 . S
C1879 C1878 1.367 . S
C1879 C1887 1.433 1_655 S
C1880 H1876 0.929 . S
C1880 C1882 1.378 . S
C1880 C1884 1.350 1_455 S
C1881 C1884 1.463 . S
C1881 C1886 1.350 . S
C1881 N1889 1.427 1_655 S
C1882 H1873 0.930 . S
C1882 C1880 1.378 . S
C1882 C1883 1.367 1_455 S
C1883 C1882 1.367 1_655 S
C1883 C1885 1.433 . S
C1884 C1880 1.350 1_655 S
C1884 C1881 1.463 . S
C1884 N1888 1.427 . S
C1885 H1875 0.929 . S
C1885 C1883 1.433 . S
C1885 N1888 1.384 . S
C1886 H1877 0.929 . S
C1886 C1878 1.378 . S
C1886 C1881 1.350 . S
C1887 H1874 0.929 . S
C1887 C1879 1.433 1_455 S
C1887 N1889 1.384 . S
N1888 C1884 1.427 . S
N1888 C1885 1.384 . S
N1889 C1881 1.427 1_455 S
N1889 C1887 1.384 . S
H1890 C1896 0.930 . S
H1891 C1900 0.930 . S
H1892 C1905 0.929 . S
H1893 C1903 0.929 . S
H1894 C1898 0.929 . S
H1895 C1904 0.929 . S
C1896 H1890 0.930 . S
C1896 C1897 1.367 . S
C1896 C1904 1.378 . S
C1897 C1896 1.367 . S
C1897 C1905 1.433 . S
C1898 H1894 0.929 . S
C1898 C1900 1.378 . S
C1898 C1902 1.350 . S
C1899 C1902 1.463 . S
C1899 C1904 1.350 . S
C1899 N1907 1.427 . S
C1900 H1891 0.930 . S
C1900 C1898 1.378 . S
C1900 C1901 1.367 . S
C1901 C1900 1.367 . S
C1901 C1903 1.433 . S
C1902 C1898 1.350 . S
C1902 C1899 1.463 . S
C1902 N1906 1.427 . S
C1903 H1893 0.929 . S
C1903 C1901 1.433 . S
C1903 N1906 1.384 . S
C1904 H1895 0.929 . S
C1904 C1896 1.378 . S
C1904 C1899 1.350 . S
C1905 H1892 0.929 . S
C1905 C1897 1.433 . S
C1905 N1907 1.384 . S
N1906 C1902 1.427 . S
N1906 C1903 1.384 . S
N1907 C1899 1.427 . S
N1907 C1905 1.384 . S
H1908 C1914 0.930 . S
H1909 C1918 0.930 . S
H1910 C1923 0.929 . S
H1911 C1921 0.929 . S
H1912 C1916 0.929 . S
H1913 C1922 0.929 . S
C1914 H1908 0.930 . S
C1914 C1915 1.367 1_565 S
C1914 C1922 1.378 . S
C1915 C1914 1.367 1_545 S
C1915 C1923 1.433 . S
C1916 H1912 0.929 . S
C1916 C1918 1.378 . S
C1916 C1920 1.350 . S
C1917 C1920 1.463 . S
C1917 C1922 1.350 1_545 S
C1917 N1925 1.427 . S
C1918 H1909 0.930 . S
C1918 C1916 1.378 . S
C1918 C1919 1.367 . S
C1919 C1918 1.367 . S
C1919 C1921 1.433 1_545 S
C1920 C1916 1.350 . S
C1920 C1917 1.463 . S
C1920 N1924 1.427 1_545 S
C1921 H1911 0.929 . S
C1921 C1919 1.433 1_565 S
C1921 N1924 1.384 . S
C1922 H1913 0.929 . S
C1922 C1914 1.378 . S
C1922 C1917 1.350 1_565 S
C1923 H1910 0.929 . S
C1923 C1915 1.433 . S
C1923 N1925 1.384 . S
N1924 C1920 1.427 1_565 S
N1924 C1921 1.384 . S
N1925 C1917 1.427 . S
N1925 C1923 1.384 . S
C637 C9 1.561 1_655 S
C641 C458 1.502 1_655 S
C655 C19 1.564 . S
C659 C471 1.530 . S
C677 C500 1.495 1_545 S
C673 C33 1.576 . S
C691 C37 1.520 1_565 S
C695 C513 1.512 . S
C709 C5 1.539 . S
C713 C534 1.502 . S
C727 C23 1.588 . S
C731 C563 1.507 . S
C745 C47 1.559 . S
C749 C542 1.517 . S
C767 C555 1.518 . S
C763 C65 1.584 . S
C785 C521 1.485 . S
C781 C75 1.524 . S
C799 C79 1.519 . S
C803 C492 1.464 1_545 S
C821 C450 1.495 1_655 S
C817 C51 1.569 1_655 S
C835 C61 1.561 . S
C839 C479 1.512 . S
C853 C93 1.650 . S
C857 C584 1.557 . S
C871 C103 1.596 . S
C875 C597 1.567 . S
C893 C626 1.535 . S
C889 C117 1.626 . S
C907 C121 1.600 . S
C911 C261 1.568 . S
C925 C89 1.603 . S
C929 C282 1.571 . S
C943 C107 1.611 . S
C947 C311 1.513 . S
C961 C131 1.585 . S
C965 C290 1.545 . S
C979 C149 1.605 . S
C983 C303 1.538 . S
C1001 C269 1.535 . S
C997 C159 1.577 . S
C1019 C618 1.503 . S
C1015 C163 1.583 . S
C1037 C576 1.540 . S
C1033 C135 1.623 . S
C1055 C605 1.547 . S
C1051 C145 1.593 . S
C1069 C177 1.611 . S
C1073 C332 1.510 . S
C1087 C187 1.581 . S
C1091 C345 1.551 . S
C1105 C201 1.627 . S
C1109 C374 1.544 . S
C1123 C205 1.636 . S
C1127 C387 1.606 . S
C1145 C408 1.577 . S
C1141 C173 1.607 . S
C1163 C437 1.530 . S
C1159 C191 1.631 . S
C1181 C416 1.585 . S
C1177 C215 1.626 . S
C1199 C429 1.545 . S
C1195 C233 1.624 . S
C1213 C243 1.573 . S
C1217 C395 1.535 . S
C1235 C366 1.481 . S
C1231 C247 1.540 . S
C1249 C219 1.624 . S
C1253 C324 1.554 . S
C1271 C353 1.550 . S
C1267 C229 1.588 . S
C1289 C264 1.404 . S
C1285 C11 1.507 . S
C1303 C14 1.463 . S
C1307 C285 1.365 . S
C1325 C313 1.422 . S
C1321 C28 1.538 . S
C1343 C334 1.421 . S
C1339 C39 1.529 . S
C1361 C348 1.408 . S
C1357 C0 1.507 . S
C1379 C376 1.339 . S
C1375 C25 1.437 . S
C1393 C42 1.574 . S
C1397 C369 1.410 . S
C1411 C67 1.495 . S
C1415 C327 1.325 . S
C1429 C70 1.477 . S
C1433 C355 1.406 . S
C1447 C81 1.496 . S
C1451 C292 1.427 . S
C1469 C306 1.366 . S
C1465 C53 1.541 . S
C1483 C56 1.513 . S
C1487 C271 1.439 . S
C1505 C390 1.378 . S
C1501 C95 1.494 . S
C1519 C98 1.526 . S
C1523 C411 1.412 . S
C1537 C112 1.583 . S
C1541 C439 1.466 . S
C1559 C460 1.383 . S
C1555 C123 1.458 . S
C1573 C84 1.503 . S
C1577 C474 1.388 . S
C1591 C109 1.426 . S
C1595 C502 1.338 . S
C1609 C126 1.507 . S
C1613 C495 1.380 . S
C1627 C151 1.453 . S
C1631 C453 1.371 . S
C1649 C481 1.414 . S
C1645 C154 1.491 . S
C1663 C165 1.479 . S
C1667 C418 1.387 . S
C1681 C137 1.570 . S
C1685 C432 1.418 . S
C1703 C397 1.496 . S
C1699 C140 1.574 . S
C1721 C516 1.344 1_545 S
C1717 C179 1.457 . S
C1735 C182 1.444 . S
C1739 C537 1.347 1_655 S
C1753 C196 1.540 . S
C1757 C565 1.426 . S
C1775 C586 1.414 . S
C1771 C207 1.518 . S
C1793 C600 1.418 . S
C1789 C168 1.538 . S
C1807 C193 1.505 . S
C1811 C628 1.400 . S
C1825 C210 1.567 . S
C1829 C621 1.411 . S
C1843 C235 1.555 . S
C1847 C579 1.408 . S
C1865 C607 1.435 . S
C1861 C238 1.528 . S
C1883 C544 1.324 1_655 S
C1879 C249 1.409 . S
C1901 C558 1.387 . S
C1897 C221 1.531 . S
C1915 C224 1.478 . S
C1919 C523 1.410 1_545 S
