# Generated by pormake.
# Topology pyr, (3,6)-cn, num edge types: 1
# Building blocks:
#     Node 0, Type 0, BuildingBlock: CUQRIR_clean_linker_1, # of connection points: 3
#     Node 1, Type 0, BuildingBlock: CUQRIR_clean_linker_1, # of connection points: 3
#     Node 2, Type 0, BuildingBlock: CUQRIR_clean_linker_1, # of connection points: 3
#     Node 3, Type 0, BuildingBlock: CUQRIR_clean_linker_1, # of connection points: 3
#     Node 4, Type 0, BuildingBlock: CUQRIR_clean_linker_1, # of connection points: 3
#     Node 5, Type 0, BuildingBlock: CUQRIR_clean_linker_1, # of connection points: 3
#     Node 6, Type 0, BuildingBlock: CUQRIR_clean_linker_1, # of connection points: 3
#     Node 7, Type 0, BuildingBlock: CUQRIR_clean_linker_1, # of connection points: 3
#     Node 8, Type 1, BuildingBlock: BETDIP_clean_sbu_0, # of connection points: 6
#     Node 9, Type 1, BuildingBlock: BETDIP_clean_sbu_0, # of connection points: 6
#     Node 10, Type 1, BuildingBlock: BETDIP_clean_sbu_0, # of connection points: 6
#     Node 11, Type 1, BuildingBlock: BETDIP_clean_sbu_0, # of connection points: 6
#     Edge 12, Type (0, 1), BuildingBlock: KIFKEQ_clean_linker_1, # of connection points: 2
#     Edge 13, Type (0, 1), BuildingBlock: KIFKEQ_clean_linker_1, # of connection points: 2
#     Edge 14, Type (0, 1), BuildingBlock: KIFKEQ_clean_linker_1, # of connection points: 2
#     Edge 15, Type (0, 1), BuildingBlock: KIFKEQ_clean_linker_1, # of connection points: 2
#     Edge 16, Type (0, 1), BuildingBlock: KIFKEQ_clean_linker_1, # of connection points: 2
#     Edge 17, Type (0, 1), BuildingBlock: KIFKEQ_clean_linker_1, # of connection points: 2
#     Edge 18, Type (0, 1), BuildingBlock: KIFKEQ_clean_linker_1, # of connection points: 2
#     Edge 19, Type (0, 1), BuildingBlock: KIFKEQ_clean_linker_1, # of connection points: 2
#     Edge 20, Type (0, 1), BuildingBlock: KIFKEQ_clean_linker_1, # of connection points: 2
#     Edge 21, Type (0, 1), BuildingBlock: KIFKEQ_clean_linker_1, # of connection points: 2
#     Edge 22, Type (0, 1), BuildingBlock: KIFKEQ_clean_linker_1, # of connection points: 2
#     Edge 23, Type (0, 1), BuildingBlock: KIFKEQ_clean_linker_1, # of connection points: 2
#     Edge 24, Type (0, 1), BuildingBlock: KIFKEQ_clean_linker_1, # of connection points: 2
#     Edge 25, Type (0, 1), BuildingBlock: KIFKEQ_clean_linker_1, # of connection points: 2
#     Edge 26, Type (0, 1), BuildingBlock: KIFKEQ_clean_linker_1, # of connection points: 2
#     Edge 27, Type (0, 1), BuildingBlock: KIFKEQ_clean_linker_1, # of connection points: 2
#     Edge 28, Type (0, 1), BuildingBlock: KIFKEQ_clean_linker_1, # of connection points: 2
#     Edge 29, Type (0, 1), BuildingBlock: KIFKEQ_clean_linker_1, # of connection points: 2
#     Edge 30, Type (0, 1), BuildingBlock: KIFKEQ_clean_linker_1, # of connection points: 2
#     Edge 31, Type (0, 1), BuildingBlock: KIFKEQ_clean_linker_1, # of connection points: 2
#     Edge 32, Type (0, 1), BuildingBlock: KIFKEQ_clean_linker_1, # of connection points: 2
#     Edge 33, Type (0, 1), BuildingBlock: KIFKEQ_clean_linker_1, # of connection points: 2
#     Edge 34, Type (0, 1), BuildingBlock: KIFKEQ_clean_linker_1, # of connection points: 2
#     Edge 35, Type (0, 1), BuildingBlock: KIFKEQ_clean_linker_1, # of connection points: 2
# Relax obj value: 0.204
# Max RMSD: 0.287
# Mean RMSD: 0.172
data_MOF--net-pyr--node1-BETDIP_clean_sbu_0--node2-CUQRIR_clean_linker_1--edge1-KIFKEQ_clean_linker_1
_symmetry_space_group_name_H-M    P1
_symmetry_Int_Tables_number       1
_symmetry_cell_setting            triclinic
loop_
_symmetry_equiv_pos_as_xyz
'x, y, z'
_cell_length_a     33.287572
_cell_length_b     37.704699
_cell_length_c     36.464417
_cell_angle_alpha  87.171647
_cell_angle_beta   94.345203
_cell_angle_gamma 107.75738
loop_
_atom_site_label
_atom_site_type_symbol
_atom_site_fract_x
_atom_site_fract_y
_atom_site_fract_z
_atom_type_partial_charge
C0 C 0.36401 0.33874 0.2381 0.0
N1 N 0.37934 0.31 0.2476 0.0
N2 N 0.37272 0.35119 0.2033 0.0
C3 C 0.33559 0.35164 0.26097 0.0
C4 C 0.39472 0.32928 0.19206 0.0
N5 N 0.39919 0.30456 0.2191 0.0
C6 C 0.40575 0.328 0.15301 0.0
H7 H 0.30214 0.33802 0.25156 0.0
H8 H 0.34186 0.38219 0.25728 0.0
H9 H 0.3403 0.34453 0.29055 0.0
H10 H 0.39679 0.34936 0.13508 0.0
H11 H 0.38944 0.29991 0.14212 0.0
H12 H 0.44025 0.3328 0.1523 0.0
C13 C 0.1444 0.7901 0.70732 0.0
N14 N 0.14155 0.81567 0.7309 0.0
N15 N 0.16902 0.76983 0.72253 0.0
C16 C 0.12562 0.7868 0.66835 0.0
C17 C 0.18065 0.78389 0.75656 0.0
N18 N 0.16391 0.81165 0.76163 0.0
C19 C 0.21403 0.77484 0.78222 0.0
H20 H 0.1214 0.7586 0.65802 0.0
H21 H 0.14698 0.80769 0.65045 0.0
H22 H 0.09474 0.79253 0.66671 0.0
H23 H 0.2447 0.78396 0.76912 0.0
H24 H 0.20565 0.7443 0.78728 0.0
H25 H 0.21771 0.78854 0.80901 0.0
C26 C 0.60788 0.36219 0.85859 0.0
N27 N 0.63161 0.35817 0.89015 0.0
N28 N 0.62504 0.39548 0.84048 0.0
C29 C 0.56667 0.33428 0.8466 0.0
C30 C 0.66026 0.41143 0.8624 0.0
N31 N 0.66441 0.38942 0.89247 0.0
C32 C 0.69177 0.44848 0.85357 0.0
H33 H 0.55776 0.33835 0.81717 0.0
H34 H 0.54149 0.33756 0.86319 0.0
H35 H 0.56859 0.30555 0.8516 0.0
H36 H 0.6828 0.47086 0.86632 0.0
H37 H 0.69205 0.45406 0.82341 0.0
H38 H 0.72405 0.44938 0.86459 0.0
C39 C 0.8632 0.70344 0.35666 0.0
N40 N 0.89826 0.73092 0.34539 0.0
N41 N 0.84295 0.7152 0.38253 0.0
C42 C 0.84888 0.66443 0.34246 0.0
C43 C 0.86644 0.7513 0.38649 0.0
N44 N 0.90043 0.76153 0.36502 0.0
C45 C 0.85535 0.7774 0.41133 0.0
H46 H 0.8329 0.66466 0.31466 0.0
H47 H 0.8267 0.64486 0.36075 0.0
H48 H 0.87627 0.65401 0.34003 0.0
H49 H 0.87345 0.77816 0.43826 0.0
H50 H 0.82113 0.76817 0.41602 0.0
H51 H 0.86343 0.8061 0.3994 0.0
C52 C 0.65059 0.82921 0.90729 0.0
N53 N 0.67837 0.81939 0.88785 0.0
N54 N 0.62962 0.84897 0.88581 0.0
C55 C 0.64685 0.82297 0.94815 0.0
C56 C 0.64511 0.85001 0.85234 0.0
N57 N 0.67465 0.83195 0.85348 0.0
C58 C 0.63611 0.8735 0.82005 0.0
H59 H 0.65913 0.79991 0.95866 0.0
H60 H 0.61336 0.81626 0.95483 0.0
H61 H 0.66497 0.84892 0.96233 0.0
H62 H 0.60856 0.88326 0.82418 0.0
H63 H 0.62964 0.85721 0.79462 0.0
H64 H 0.66435 0.89795 0.81619 0.0
C65 C 0.88839 0.3366 0.46936 0.0
N66 N 0.89751 0.31688 0.44284 0.0
N67 N 0.86277 0.35641 0.45524 0.0
C68 C 0.90373 0.33604 0.50914 0.0
C69 C 0.85625 0.34764 0.41922 0.0
N70 N 0.87766 0.32387 0.41163 0.0
C71 C 0.82397 0.35789 0.393 0.0
H72 H 0.88126 0.31286 0.52393 0.0
H73 H 0.90545 0.36253 0.52211 0.0
H74 H 0.93524 0.33151 0.51187 0.0
H75 H 0.83867 0.38601 0.38082 0.0
H76 H 0.79629 0.35883 0.40761 0.0
H77 H 0.81247 0.33799 0.37039 0.0
C78 C 0.357 0.70458 0.27089 0.0
N79 N 0.3925 0.73156 0.28337 0.0
N80 N 0.34191 0.71391 0.23743 0.0
C81 C 0.33754 0.6683 0.29112 0.0
C82 C 0.36934 0.74764 0.22953 0.0
N83 N 0.40023 0.75892 0.25703 0.0
C84 C 0.36443 0.77104 0.19569 0.0
H85 H 0.3623 0.65549 0.30137 0.0
H86 H 0.31351 0.64828 0.27337 0.0
H87 H 0.32225 0.67381 0.31532 0.0
H88 H 0.35298 0.79414 0.20358 0.0
H89 H 0.34155 0.75485 0.17446 0.0
H90 H 0.3954 0.78351 0.18361 0.0
C91 C 0.10946 0.36836 0.77112 0.0
N92 N 0.13244 0.36478 0.74206 0.0
N93 N 0.12522 0.40245 0.78771 0.0
C94 C 0.07147 0.33839 0.78375 0.0
C95 C 0.15909 0.41929 0.76723 0.0
N96 N 0.16361 0.39725 0.73983 0.0
C97 C 0.18999 0.45689 0.7756 0.0
H98 H 0.04836 0.35089 0.79386 0.0
H99 H 0.08174 0.32228 0.8069 0.0
H100 H 0.05593 0.31885 0.7616 0.0
H101 H 0.19137 0.46287 0.80522 0.0
H102 H 0.17978 0.47863 0.75932 0.0
H103 H 0.22217 0.45846 0.76805 0.0
Tb104 Tb 0.99581 0.05571 0.55749 0.0
Tb105 Tb 0.0753 0.07121 0.53578 0.0
C106 C 0.92092 1.03126 0.57667 0.0
C107 C 0.89448 0.99981 0.59763 0.0
C108 C 0.90851 0.96936 0.60959 0.0
C109 C 0.88633 0.94349 0.63548 0.0
C110 C 0.85029 0.94819 0.64974 0.0
C111 C 0.83509 0.97743 0.63589 0.0
C112 C 0.85704 1.00302 0.61004 0.0
C113 C 0.04268 0.12515 0.58025 0.0
C114 C 0.0551 1.0216 0.60687 0.0
C115 C 0.1534 0.09002 0.52629 0.0
C116 C 0.18124 0.10069 0.49582 0.0
C117 C 0.2249 0.10828 0.50313 0.0
C118 C 0.2525 0.12302 0.47539 0.0
C119 C 0.23672 0.13041 0.43993 0.0
C120 C 0.19266 0.12111 0.43239 0.0
C121 C 0.16511 0.10637 0.46017 0.0
C122 C 0.02264 1.01349 0.496 0.0
C123 C 1.01613 0.10681 0.48999 0.0
O124 O 0.93247 1.02451 0.54493 0.0
O125 O 0.9519 0.05376 0.59606 0.0
O126 O 0.05421 0.09558 0.58131 0.0
O127 O 1.00507 0.11578 0.56445 0.0
O128 O 1.01549 1.01923 0.59808 0.0
O129 O 0.08515 0.04368 0.5878 0.0
O130 O 0.1329 0.11336 0.53258 0.0
O131 O 0.12937 0.05551 0.52777 0.0
O132 O 0.02327 1.01861 0.53054 0.0
O133 O 0.05054 0.04258 0.48323 0.0
O134 O 0.05518 0.11382 0.50394 0.0
O135 O 0.98749 0.07714 0.50208 0.0
H136 H 0.93747 0.96659 0.60023 0.0
H137 H 0.89864 0.92119 0.64587 0.0
H138 H 0.80712 0.98135 0.64624 0.0
H139 H 0.84592 1.02643 0.60114 0.0
H140 H 0.23774 0.10397 0.53061 0.0
H141 H 0.2862 0.12951 0.48191 0.0
H142 H 0.1795 0.12692 0.40551 0.0
H143 H 0.1314 0.10076 0.4542 0.0
Tb144 Tb 0.57322 0.07843 0.10295 0.0
Tb145 Tb 0.47629 0.04738 0.07487 0.0
C146 C 0.64806 0.11967 0.11142 0.0
C147 C 0.67719 0.1382 0.14191 0.0
C148 C 0.66419 0.15825 0.16769 0.0
C149 C 0.69307 0.17803 0.19472 0.0
C150 C 0.7353 0.17781 0.19676 0.0
C151 C 0.74797 0.15676 0.17177 0.0
C152 C 0.71913 0.13728 0.14437 0.0
C153 C 0.533 1.01516 0.14107 0.0
C154 C 0.50341 0.10093 0.14215 0.0
C155 C 0.40112 1.00717 0.06528 0.0
C156 C 0.37158 0.99347 0.03358 0.0
C157 C 0.32976 0.97266 0.03932 0.0
C158 C 0.30183 0.95764 1.00954 0.0
C159 C 0.31535 0.96321 0.97349 0.0
C160 C 0.35716 0.98494 0.96783 0.0
C161 C 0.38508 0.99993 0.99768 0.0
C162 C 0.51753 0.11131 0.03776 0.0
C163 C 0.5449 1.02538 0.03411 0.0
O164 O 0.61569 0.13205 0.10277 0.0
O165 O 0.63786 0.08323 0.11114 0.0
O166 O 0.51852 0.03337 0.11593 0.0
O167 O 0.57255 0.03445 0.14614 0.0
O168 O 0.54405 0.10932 0.13597 0.0
O169 O 0.47378 0.07332 0.12597 0.0
O170 O 0.43345 0.994 0.06942 0.0
O171 O 0.41188 0.04314 0.07039 0.0
O172 O 0.53102 0.09183 0.06209 0.0
O173 O 0.47759 0.09304 0.03295 0.0
O174 O 0.50445 1.01807 0.04007 0.0
O175 O 0.57578 0.05033 0.0526 0.0
H176 H 0.6319 0.15913 0.16666 0.0
H177 H 0.68239 0.19357 0.21408 0.0
H178 H 0.78038 0.1562 0.17282 0.0
H179 H 0.72974 0.12197 0.12472 0.0
H180 H 0.31888 0.96756 0.06692 0.0
H181 H 0.26971 0.94143 1.01474 0.0
H182 H 0.36872 0.98935 0.94048 0.0
H183 H 0.4174 1.01592 0.99285 0.0
Tb184 Tb 0.5074 0.5937 0.57931 0.0
Tb185 Tb 0.4947 0.5205 0.53642 0.0
C186 C 0.49914 0.65463 0.59634 0.0
C187 C 0.46189 0.66599 0.60267 0.0
C188 C 0.42222 0.64782 0.58541 0.0
C189 C 0.38607 0.65572 0.59507 0.0
C190 C 0.38905 0.68132 0.62261 0.0
C191 C 0.4289 0.69988 0.63935 0.0
C192 C 0.46506 0.69234 0.62935 0.0
C193 C 0.54145 0.54695 0.62032 0.0
C194 C 0.4223 0.52285 0.58847 0.0
C195 C 0.5029 0.45909 0.52116 0.0
C196 C 0.54034 0.44604 0.52277 0.0
C197 C 0.57439 0.46031 0.54857 0.0
C198 C 0.61204 0.45145 0.54689 0.0
C199 C 0.61642 0.42875 0.51901 0.0
C200 C 0.58186 0.41372 0.49387 0.0
C201 C 0.5441 0.42226 0.4958 0.0
C202 C 0.46549 0.57043 0.4944 0.0
C203 C 0.57988 0.58966 0.52804 0.0
O204 O 0.50334 0.6466 0.56257 0.0
O205 O 0.50645 0.63017 0.62044 0.0
O206 O 0.52302 0.5427 0.58817 0.0
O207 O 0.54382 0.58062 0.62856 0.0
O208 O 0.44266 0.55897 0.59385 0.0
O209 O 0.43699 0.50264 0.56706 0.0
O210 O 0.49034 0.4654 0.55273 0.0
O211 O 0.50329 0.48568 0.49664 0.0
O212 O 0.48008 0.57162 0.52775 0.0
O213 O 0.46372 0.53719 0.4849 0.0
O214 O 0.56028 0.55327 0.52491 0.0
O215 O 0.56445 0.61121 0.54727 0.0
H216 H 0.41898 0.62676 0.5653 0.0
H217 H 0.35565 0.64087 0.58201 0.0
H218 H 0.43201 0.71999 0.66042 0.0
H219 H 0.49535 0.70626 0.64323 0.0
H220 H 0.57242 0.47929 0.56924 0.0
H221 H 0.6383 0.46365 0.56638 0.0
H222 H 0.58432 0.39587 0.47231 0.0
H223 H 0.5183 0.41128 0.47549 0.0
Tb224 Tb 1.00068 0.59059 0.0413 0.0
Tb225 Tb 0.99924 0.52939 0.09097 0.0
C226 C 0.98216 0.63853 0.99861 0.0
C227 C 0.96079 0.6673 0.9975 0.0
C228 C 0.92519 0.66296 1.01761 0.0
C229 C 0.90005 0.68643 1.01013 0.0
C230 C 0.91025 0.71454 0.98251 0.0
C231 C 0.94785 0.72059 0.96467 0.0
C232 C 0.97283 0.69704 0.97205 0.0
C233 C 0.07534 0.59634 0.07668 0.0
C234 C 0.97428 0.59655 0.12537 0.0
C235 C 0.02267 0.48136 0.12966 0.0
C236 C 0.06152 0.4704 0.12967 0.0
C237 C 0.10087 0.49756 0.12592 0.0
C238 C 0.13775 0.4873 0.12642 0.0
C239 C 0.13593 0.44964 0.1299 0.0
C240 C 0.09648 0.42234 0.13247 0.0
C241 C 0.05953 0.4327 0.13256 0.0
C242 C 0.92368 0.52037 0.05575 0.0
C243 C 0.03152 0.52796 1.00796 0.0
O244 O 0.95802 0.60417 1.00257 0.0
O245 O 0.01824 0.64491 1.01784 0.0
O246 O 0.03939 0.58491 0.08939 0.0
O247 O 0.07032 0.60619 0.04247 0.0
O248 O 0.97516 0.60956 0.09045 0.0
O249 O 0.98375 0.56478 0.13249 0.0
O250 O 0.02775 0.51508 0.14026 0.0
O251 O 0.99691 0.47322 0.1004 0.0
O252 O 0.95961 0.53388 0.04254 0.0
O253 O 0.9302 0.51085 0.08985 0.0
O254 O 0.03314 0.51666 0.04336 0.0
O255 O 1.01632 0.5563 0.99989 0.0
H256 H 0.91549 0.64016 0.03751 0.0
H257 H 0.87121 0.68097 1.02426 0.0
H258 H 0.95695 0.74249 0.9438 0.0
H259 H 1.00034 0.70085 0.95642 0.0
H260 H 0.10322 0.5268 0.1228 0.0
H261 H 0.16775 0.5088 0.12405 0.0
H262 H 0.09438 0.39311 0.13538 0.0
H263 H 0.02946 0.41133 0.13508 0.0
H264 H 0.42443 0.28695 0.3035 0.0
H265 H 0.29872 0.26995 0.25372 0.0
H266 H 0.39601 0.23798 0.35039 0.0
H267 H 0.27017 0.2219 0.30002 0.0
H268 H 0.23154 0.11754 0.36627 0.0
H269 H 0.27188 0.15816 0.31898 0.0
H270 H 0.34765 0.23065 0.4029 0.0
H271 H 0.30725 0.19026 0.45017 0.0
C272 C 0.39079 0.27283 0.30295 0.0
C273 C 0.36345 0.28246 0.27589 0.0
C274 C 0.37456 0.24492 0.32945 0.0
C275 C 0.33093 0.226 0.32863 0.0
C276 C 0.30396 0.23556 0.30108 0.0
C277 C 0.32006 0.26346 0.27504 0.0
C278 C 0.25715 0.14188 0.37463 0.0
C279 C 0.26579 0.15099 0.41188 0.0
C280 C 0.28028 0.16507 0.34761 0.0
C281 C 0.31248 0.19781 0.35731 0.0
C282 C 0.32319 0.20548 0.39467 0.0
C283 C 0.30001 0.18231 0.42172 0.0
H284 H 0.23309 0.87072 0.76076 0.0
H285 H 0.12833 0.81289 0.82494 0.0
H286 H 0.26514 0.91159 0.81206 0.0
H287 H 0.15932 0.85417 0.87649 0.0
H288 H 0.26221 0.89203 0.97168 0.0
H289 H 0.2198 0.85967 0.91928 0.0
H290 H 0.26143 0.9599 0.85172 0.0
H291 H 0.30428 0.99233 0.90438 0.0
C292 C 0.21659 0.86766 0.78576 0.0
C293 C 0.17861 0.83907 0.78943 0.0
C294 C 0.23465 0.89099 0.81504 0.0
C295 C 0.21493 0.886 0.84852 0.0
C296 C 0.17562 0.85838 0.85128 0.0
C297 C 0.15767 0.83502 0.82191 0.0
C298 C 0.26169 0.90742 0.94587 0.0
C299 C 0.28676 0.94471 0.94217 0.0
C300 C 0.23725 0.88887 0.91578 0.0
C301 C 0.23721 0.90716 0.88125 0.0
C302 C 0.26121 0.94486 0.87782 0.0
C303 C 0.28577 0.96342 0.90795 0.0
H304 H 0.60823 0.37099 0.76929 0.0
H305 H 0.6059 0.4606 0.83673 0.0
H306 H 0.58792 0.40407 0.71431 0.0
H307 H 0.58564 0.49354 0.78264 0.0
H308 H 0.59534 0.5662 0.68024 0.0
H309 H 0.61323 0.5284 0.73065 0.0
H310 H 0.53662 0.42889 0.6766 0.0
H311 H 0.51877 0.46768 0.62501 0.0
C312 C 0.60268 0.39745 0.77257 0.0
C313 C 0.60865 0.41284 0.80791 0.0
C314 C 0.59107 0.41666 0.74083 0.0
C315 C 0.58543 0.45227 0.74307 0.0
C316 C 0.59046 0.46689 0.77877 0.0
C317 C 0.60185 0.44775 0.81025 0.0
C318 C 0.58237 0.53622 0.67855 0.0
C319 C 0.55552 0.52052 0.64783 0.0
C320 C 0.59239 0.51422 0.70814 0.0
C321 C 0.57594 0.47501 0.70903 0.0
C322 C 0.5502 0.45885 0.67757 0.0
C323 C 0.54 0.48119 0.64758 0.0
H324 H 0.96199 0.69839 0.34511 0.0
H325 H 0.88074 0.74171 0.27153 0.0
H326 H 0.98041 0.66778 0.29386 0.0
H327 H 0.89866 0.71124 0.21993 0.0
H328 H 0.94835 0.66167 0.12311 0.0
H329 H 0.93569 0.69747 0.17307 0.0
H330 H 0.96615 0.61969 0.25245 0.0
H331 H 0.97887 0.58421 0.20243 0.0
C332 C 0.94947 0.70319 0.31768 0.0
C333 C 0.92132 0.72514 0.31347 0.0
C334 C 0.9592 0.68433 0.2877 0.0
C335 C 0.94131 0.6857 0.25102 0.0
C336 C 0.91429 0.70881 0.24661 0.0
C337 C 0.90433 0.72737 0.27672 0.0
C338 C 0.95231 0.6518 0.15113 0.0
C339 C 0.96477 0.61896 0.15736 0.0
C340 C 0.94479 0.67274 0.18052 0.0
C341 C 0.94961 0.66275 0.21852 0.0
C342 C 0.96219 0.62987 0.22458 0.0
C343 C 0.96933 0.60878 0.1952 0.0
H344 H 0.35649 0.23107 0.22449 0.0
H345 H 0.47822 0.30864 0.20407 0.0
H346 H 0.38393 0.17927 0.21807 0.0
H347 H 0.50492 0.25692 0.19263 0.0
H348 H 0.55146 0.15882 0.18504 0.0
H349 H 0.5273 0.20626 0.21174 0.0
H350 H 0.39909 0.14877 0.17201 0.0
H351 H 0.42256 0.10085 0.14818 0.0
C352 C 0.38938 0.23697 0.219 0.0
C353 C 0.41553 0.27377 0.21539 0.0
C354 C 0.40502 0.20724 0.21444 0.0
C355 C 0.44669 0.21356 0.20429 0.0
C356 C 0.47295 0.25064 0.20102 0.0
C357 C 0.45757 0.28037 0.20689 0.0
C358 C 0.51799 0.15595 0.183 0.0
C359 C 0.48907 0.12612 0.16426 0.0
C360 C 0.50413 0.18339 0.1979 0.0
C361 C 0.46119 0.18192 0.19374 0.0
C362 C 0.43224 0.15094 0.17659 0.0
C363 C 0.44589 0.12329 0.16251 0.0
H364 H 0.18102 0.86956 0.68431 0.0
H365 H 0.077 0.83572 0.7546 0.0
H366 H 0.1596 0.92357 0.66224 0.0
H367 H 0.05526 0.89058 0.73319 0.0
H368 H 1.00303 0.95785 0.63723 0.0
H369 H 0.02471 0.91077 0.67498 0.0
H370 H 0.15386 0.98253 0.67995 0.0
H371 H 0.13245 1.02899 0.64139 0.0
C372 C 0.15365 0.87416 0.69513 0.0
C373 C 0.13006 0.84863 0.72045 0.0
C374 C 0.14161 0.9052 0.68295 0.0
C375 C 0.10574 0.91146 0.69605 0.0
C376 C 0.08283 0.88634 0.72241 0.0
C377 C 0.09515 0.85517 0.73472 0.0
C378 C 0.03588 0.96388 0.64706 0.0
C379 C 0.0662 0.99674 0.63574 0.0
C380 C 0.04828 0.93695 0.66884 0.0
C381 C 0.09115 0.94263 0.67983 0.0
C382 C 0.12076 0.97695 0.67113 0.0
C383 C 0.10846 1.00362 0.64914 0.0
H384 H 0.67503 0.44856 0.93486 0.0
H385 H 0.72833 0.36081 0.91674 0.0
H386 H 0.73789 0.47998 0.97401 0.0
H387 H 0.79034 0.39108 0.95792 0.0
H388 H 0.86763 0.45174 0.07058 0.0
H389 H 0.80416 0.41697 0.03398 0.0
H390 H 0.82509 0.50746 0.95382 0.0
H391 H 0.88995 0.54173 0.98964 0.0
C392 C 0.69954 0.43525 0.94033 0.0
C393 C 0.69595 0.40164 0.92307 0.0
C394 C 0.73583 0.45351 0.96246 0.0
C395 C 0.76949 0.43832 0.96899 0.0
C396 C 0.76502 0.40358 0.95357 0.0
C397 C 0.72905 0.38578 0.93046 0.0
C398 C 0.85889 0.46435 0.04511 0.0
C399 C 0.88417 0.49984 0.03328 0.0
C400 C 0.82248 0.44421 1.02403 0.0
C401 C 0.80932 0.45929 0.9909 0.0
C402 C 0.83421 0.49496 0.97921 0.0
C403 C 0.87145 0.51466 0.99976 0.0
H404 H 0.83705 0.71054 0.4569 0.0
H405 H 0.76449 0.67268 0.35584 0.0
H406 H 0.77484 0.6809 0.49177 0.0
H407 H 0.70233 0.64153 0.39085 0.0
H408 H 0.61025 0.56079 0.47151 0.0
H409 H 0.6726 0.58941 0.43654 0.0
H410 H 0.70385 0.68684 0.50275 0.0
H411 H 0.64095 0.65849 0.53733 0.0
C412 C 0.80781 0.69579 0.44202 0.0
C413 C 0.80625 0.69441 0.40326 0.0
C414 C 0.77185 0.67869 0.46213 0.0
C415 C 0.73282 0.65868 0.44451 0.0
C416 C 0.73154 0.65634 0.40577 0.0
C417 C 0.76741 0.67414 0.38553 0.0
C418 C 0.63037 0.58828 0.47889 0.0
C419 C 0.61998 0.60697 0.50775 0.0
C420 C 0.66626 0.60493 0.45845 0.0
C421 C 0.69392 0.64075 0.4664 0.0
C422 C 0.6839 0.65921 0.49566 0.0
C423 C 0.64749 0.64287 0.51561 0.0
H424 H 0.3842 0.4246 0.19221 0.0
H425 H 0.30131 0.31577 0.16546 0.0
H426 H 0.33107 0.45285 0.16518 0.0
H427 H 0.24708 0.34286 0.14034 0.0
H428 H 0.15512 0.39793 0.09041 0.0
H429 H 0.21881 0.37825 0.09791 0.0
H430 H 0.26774 0.45698 0.18495 0.0
H431 H 0.20526 0.47763 0.17587 0.0
C432 C 0.35489 0.407 0.17956 0.0
C433 C 0.34655 0.36831 0.18039 0.0
C434 C 0.3242 0.4229 0.1646 0.0
C435 C 0.28432 0.40016 0.15104 0.0
C436 C 0.27739 0.36147 0.14994 0.0
C437 C 0.30832 0.34579 0.16433 0.0
C438 C 0.17988 0.41117 0.11079 0.0
C439 C 0.17535 0.43909 0.13271 0.0
C440 C 0.21632 0.39991 0.11522 0.0
C441 C 0.24855 0.41581 0.14222 0.0
C442 C 0.24423 0.44453 0.16336 0.0
C443 C 0.2082 0.45621 0.15844 0.0
H444 H 0.67171 0.30499 0.90512 0.0
H445 H 0.56514 0.33713 0.93372 0.0
H446 H 0.64784 0.24738 0.94277 0.0
H447 H 0.54091 0.27995 0.97129 0.0
H448 H 0.47884 0.15661 0.99919 0.0
H449 H 0.50831 0.21579 0.96711 0.0
H450 H 0.6342 0.21274 1.00109 0.0
H451 H 0.60398 0.15225 0.03309 0.0
C452 C 0.64385 0.30038 0.92036 0.0
C453 C 0.62105 0.32654 0.91681 0.0
C454 C 0.62976 0.26691 0.94193 0.0
C455 C 0.59183 0.25787 0.96044 0.0
C456 C 0.56973 0.28473 0.95734 0.0
C457 C 0.58391 0.3181 0.93597 0.0
C458 C 0.51291 0.16844 1.00024 0.0
C459 C 0.53863 0.14915 1.01956 0.0
C460 C 0.53007 0.20303 0.98178 0.0
C461 C 0.57412 0.22036 0.98127 0.0
C462 C 0.60017 0.20093 1.0004 0.0
C463 C 0.58278 0.16612 1.0193 0.0
H464 H 0.96011 0.77572 0.42203 0.0
H465 H 0.9112 0.83063 0.33165 0.0
H466 H 0.98885 0.83499 0.45338 0.0
H467 H 0.94061 0.89043 0.3624 0.0
H468 H 1.01749 1.00167 0.42095 0.0
H469 H 0.99558 0.9439 0.3866 0.0
H470 H 0.97033 0.88038 0.4882 0.0
H471 H 0.99179 0.9386 0.52252 0.0
C472 C 0.95759 0.80077 0.40748 0.0
C473 C 0.93427 0.79715 0.37278 0.0
C474 C 0.97309 0.83522 0.42634 0.0
C475 C 0.9671 0.86894 0.41159 0.0
C476 C 0.94669 0.86607 0.3756 0.0
C477 C 0.93045 0.83132 0.35705 0.0
C478 C 1.00704 0.97551 0.43629 0.0
C479 C 1.00668 0.97604 0.4752 0.0
C480 C 0.99416 0.94174 0.41621 0.0
C481 C 0.98081 0.90596 0.43369 0.0
C482 C 0.98057 0.90648 0.47278 0.0
C483 C 0.99274 0.94042 0.49285 0.0
H484 H 0.2156 0.79678 0.66469 0.0
H485 H 0.17555 0.70092 0.73764 0.0
H486 H 0.2626 0.76882 0.63681 0.0
H487 H 0.22406 0.67314 0.71064 0.0
H488 H 0.36613 0.6801 0.69275 0.0
H489 H 0.30541 0.69533 0.71348 0.0
H490 H 0.26472 0.71284 0.60059 0.0
H491 H 0.32564 0.69748 0.57981 0.0
C492 C 0.21597 0.76915 0.67391 0.0
C493 C 0.19178 0.75072 0.70298 0.0
C494 C 0.24299 0.75323 0.65813 0.0
C495 C 0.24692 0.71885 0.6716 0.0
C496 C 0.22167 0.69977 0.69989 0.0
C497 C 0.19406 0.71552 0.7153 0.0
C498 C 0.34401 0.68695 0.6724 0.0
C499 C 0.35067 0.68803 0.63474 0.0
C500 C 0.30906 0.69523 0.68422 0.0
C501 C 0.28041 0.70517 0.6586 0.0
C502 C 0.28644 0.70529 0.62085 0.0
C503 C 0.32113 0.69647 0.609 0.0
H504 H 0.75589 0.87266 0.86319 0.0
H505 H 0.66388 0.80665 0.78449 0.0
H506 H 0.80608 0.89421 0.8154 0.0
H507 H 0.71341 0.82925 0.73582 0.0
H508 H 0.82106 0.87192 0.65768 0.0
H509 H 0.78416 0.83583 0.7099 0.0
H510 H 0.79953 0.9384 0.76512 0.0
H511 H 0.8361 0.97382 0.71367 0.0
C512 C 0.74707 0.86189 0.83579 0.0
C513 C 0.70633 0.83812 0.82721 0.0
C514 C 0.7755 0.87445 0.80838 0.0
C515 C 0.76341 0.86385 0.77178 0.0
C516 C 0.72369 0.83774 0.7638 0.0
C517 C 0.69531 0.82499 0.79142 0.0
C518 C 0.81686 0.88644 0.68131 0.0
C519 C 0.83084 0.92554 0.68165 0.0
C520 C 0.79575 0.86592 0.71101 0.0
C521 C 0.78918 0.88429 0.74163 0.0
C522 C 0.80465 0.92335 0.74225 0.0
C523 C 0.82515 0.94369 0.71261 0.0
H524 H 0.84099 0.24999 0.40821 0.0
H525 H 0.89487 0.3488 0.34245 0.0
H526 H 0.81634 0.21412 0.35258 0.0
H527 H 0.86954 0.31318 0.2862 0.0
H528 H 0.74872 0.25043 0.21191 0.0
H529 H 0.79386 0.28579 0.26178 0.0
H530 H 0.83612 0.19071 0.29461 0.0
H531 H 0.79054 0.15515 0.24453 0.0
C532 C 0.84881 0.2636 0.38172 0.0
C533 C 0.86999 0.30188 0.37928 0.0
C534 C 0.83466 0.24319 0.34991 0.0
C535 C 0.84092 0.26092 0.3151 0.0
C536 C 0.86413 0.29891 0.31272 0.0
C537 C 0.87871 0.3192 0.34465 0.0
C538 C 0.76799 0.23725 0.22958 0.0
C539 C 0.7659 0.20002 0.22472 0.0
C540 C 0.79419 0.25759 0.25782 0.0
C541 C 0.81853 0.24098 0.28199 0.0
C542 C 0.81758 0.20411 0.27636 0.0
C543 C 0.79169 0.18386 0.24774 0.0
H544 H 0.37601 0.73657 0.35446 0.0
H545 H 0.46069 0.70601 0.28818 0.0
H546 H 0.39672 0.70168 0.40729 0.0
H547 H 0.48206 0.67131 0.34072 0.0
H548 H 0.46464 0.56939 0.41986 0.0
H549 H 0.45461 0.61417 0.37271 0.0
H550 H 0.44316 0.6866 0.45656 0.0
H551 H 0.45298 0.64079 0.5043 0.0
C552 C 0.40097 0.7242 0.35164 0.0
C553 C 0.41764 0.72575 0.3168 0.0
C554 C 0.41247 0.70338 0.38207 0.0
C555 C 0.44083 0.68246 0.37905 0.0
C556 C 0.45956 0.68604 0.34481 0.0
C557 C 0.44821 0.70708 0.31454 0.0
C558 C 0.46031 0.59492 0.42867 0.0
C559 C 0.46027 0.60095 0.46666 0.0
C560 C 0.45483 0.62118 0.40117 0.0
C561 C 0.44841 0.65508 0.40985 0.0
C562 C 0.44799 0.66121 0.448 0.0
C563 C 0.45408 0.63485 0.47579 0.0
H564 H 0.11322 0.47151 0.79155 0.0
H565 H 0.10206 0.37154 0.85711 0.0
H566 H 0.09316 0.50025 0.84276 0.0
H567 H 0.08025 0.39969 0.90854 0.0
H568 H 0.06468 0.46656 1.00965 0.0
H569 H 0.08567 0.43667 0.95906 0.0
H570 H 0.0511 0.5143 0.88183 0.0
H571 H 0.03121 0.54415 0.93221 0.0
C572 C 0.10637 0.45526 0.81687 0.0
C573 C 0.10988 0.41858 0.81894 0.0
C574 C 0.09412 0.47194 0.84694 0.0
C575 C 0.08426 0.45326 0.88157 0.0
C576 C 0.08749 0.41627 0.88348 0.0
C577 C 0.09975 0.3995 0.85322 0.0
C578 C 0.06165 0.47758 0.98194 0.0
C579 C 0.04597 0.50868 0.97632 0.0
C580 C 0.07367 0.45994 0.95218 0.0
C581 C 0.07094 0.47215 0.9146 0.0
C582 C 0.05513 0.50329 0.90932 0.0
C583 C 0.04316 0.52079 0.93895 0.0
H584 H 0.55631 0.83619 0.9183 0.0
H585 H 0.66633 0.92275 0.8849 0.0
H586 H 0.53377 0.88203 0.95008 0.0
H587 H 0.64339 0.96904 0.91498 0.0
H588 H 0.62365 1.02362 1.01964 0.0
H589 H 0.64115 0.98256 0.97845 0.0
H590 H 0.50898 0.93654 0.94385 0.0
H591 H 0.49122 0.97704 0.9857 0.0
C592 C 0.57495 0.86525 0.91713 0.0
C593 C 0.61278 0.87623 0.89931 0.0
C594 C 0.56212 0.89151 0.93503 0.0
C595 C 0.58701 0.92916 0.93525 0.0
C596 C 0.62387 0.94021 0.91579 0.0
C597 C 0.63674 0.91394 0.8982 0.0
C598 C 0.59833 1.0051 1.00296 0.0
C599 C 0.55603 1.00343 1.00623 0.0
C600 C 0.60838 0.98166 0.97917 0.0
C601 C 0.57639 0.95618 0.95796 0.0
C602 C 0.53424 0.95547 0.96023 0.0
C603 C 0.52415 0.97883 0.98412 0.0
H604 H 0.96324 0.31275 0.40648 0.0
H605 H 0.87726 0.25671 0.48832 0.0
H606 H 0.9944 0.26114 0.40995 0.0
H607 H 0.908 0.20535 0.49207 0.0
H608 H 0.93644 0.10299 0.46264 0.0
H609 H 0.90952 0.15549 0.44741 0.0
H610 H 0.03624 0.23115 0.4591 0.0
H611 H 0.0635 0.1786 0.47454 0.0
C612 C 0.95161 0.28956 0.42555 0.0
C613 C 0.91859 0.28873 0.44766 0.0
C614 C 0.96918 0.26014 0.42745 0.0
C615 C 0.95327 0.22916 0.45098 0.0
C616 C 0.9205 0.22869 0.47335 0.0
C617 C 0.90341 0.25824 0.47175 0.0
C618 C 0.9588 0.13067 0.46102 0.0
C619 C 1.00205 0.13665 0.4704 0.0
C620 C 0.94329 0.16074 0.45257 0.0
C621 C 0.97073 0.19735 0.45297 0.0
C622 C 1.01442 0.20317 0.45878 0.0
C623 C 0.02999 0.17303 0.46751 0.0
H624 H 0.26062 0.69982 0.25397 0.0
H625 H 0.3381 0.68273 0.17155 0.0
H626 H 0.19681 0.66981 0.21539 0.0
H627 H 0.27467 0.6517 0.13295 0.0
H628 H 0.15462 0.63567 0.05545 0.0
H629 H 0.21881 0.66219 0.09459 0.0
H630 H 0.15138 0.61421 0.19065 0.0
H631 H 0.08714 0.58892 0.15146 0.0
C632 C 0.26381 0.68909 0.2277 0.0
C633 C 0.30421 0.69367 0.21568 0.0
C634 C 0.22726 0.6717 0.2055 0.0
C635 C 0.23004 0.65817 0.17061 0.0
C636 C 0.2708 0.66219 0.15913 0.0
C637 C 0.30728 0.67969 0.18133 0.0
C638 C 0.15361 0.63064 0.08491 0.0
C639 C 0.11557 0.61017 0.10019 0.0
C640 C 0.19061 0.64572 0.10752 0.0
C641 C 0.1908 0.64072 0.14618 0.0
C642 C 0.15275 0.61948 0.16125 0.0
C643 C 0.11579 0.60459 0.13866 0.0
H644 H 0.23027 0.37105 0.72913 0.0
H645 H 0.17302 0.45493 0.69037 0.0
H646 H 0.2906 0.40002 0.69152 0.0
H647 H 0.23356 0.4847 0.65351 0.0
H648 H 0.3709 0.55356 0.62565 0.0
H649 H 0.30779 0.52164 0.65878 0.0
H650 H 0.31869 0.41544 0.63057 0.0
H651 H 0.38138 0.44727 0.5973 0.0
C652 C 0.22965 0.39485 0.71157 0.0
C653 C 0.19552 0.40963 0.71217 0.0
C654 C 0.26485 0.41204 0.69018 0.0
C655 C 0.26799 0.44534 0.66912 0.0
C656 C 0.23335 0.4596 0.66935 0.0
C657 C 0.19802 0.44211 0.69022 0.0
C658 C 0.35986 0.5234 0.62622 0.0
C659 C 0.38196 0.50345 0.60819 0.0
C660 C 0.32317 0.50485 0.6453 0.0
C661 C 0.30719 0.46544 0.64785 0.0
C662 C 0.32949 0.44559 0.62992 0.0
C663 C 0.3657 0.4641 0.61037 0.0
H664 H 0.69669 0.7602 0.86433 0.0
H665 H 0.73661 0.84789 0.94272 0.0
H666 H 0.75501 0.73663 0.88774 0.0
H667 H 0.79483 0.82462 0.96646 0.0
H668 H 0.88766 0.72936 0.91148 0.0
H669 H 0.83267 0.75655 0.8889 0.0
H670 H 0.80607 0.76951 1.00074 0.0
H671 H 0.8623 0.7433 1.02351 0.0
C672 C 0.71793 0.77413 0.88675 0.0
C673 C 0.71185 0.80507 0.90245 0.0
C674 C 0.75134 0.76095 0.9 0.0
C675 C 0.77935 0.77873 0.92906 0.0
C676 C 0.77332 0.80996 0.94453 0.0
C677 C 0.74 0.82315 0.93115 0.0
C678 C 0.87076 0.73874 0.93132 0.0
C679 C 0.87942 0.7343 0.96932 0.0
C680 C 0.83882 0.7538 0.91834 0.0
C681 C 0.81479 0.76475 0.94304 0.0
C682 C 0.82421 0.7614 0.98106 0.0
C683 C 0.85617 0.7462 0.99409 0.0
H684 H 0.3842 0.82157 0.27539 0.0
H685 H 0.4785 0.783 0.23076 0.0
H686 H 0.41482 0.88352 0.24722 0.0
H687 H 0.51018 0.84509 0.20325 0.0
H688 H 0.57444 0.97088 0.17777 0.0
H689 H 0.54743 0.91182 0.21126 0.0
H690 H 0.41994 0.9138 0.18356 0.0
H691 H 0.44744 0.97342 0.14906 0.0
C692 C 0.41314 0.82687 0.26147 0.0
C693 C 0.42947 0.79694 0.25685 0.0
C694 C 0.43005 0.86234 0.24415 0.0
C695 C 0.46489 0.86996 0.222 0.0
C696 C 0.48349 0.841 0.21992 0.0
C697 C 0.4659 0.80527 0.23661 0.0
C698 C 0.5405 0.95884 0.17844 0.0
C699 C 0.51341 0.9775 0.16016 0.0
C700 C 0.52489 0.92452 0.19783 0.0
C701 C 0.48122 0.90724 0.20071 0.0
C702 C 0.45381 0.92594 0.18258 0.0
C703 C 0.46957 0.96021 0.16237 0.0
H704 H 0.06499 0.33936 0.69195 0.0
H705 H 0.17637 0.31383 0.73626 0.0
H706 H 0.0453 0.28381 0.65496 0.0
H707 H 0.1584 0.25886 0.69792 0.0
H708 H 0.10623 0.14426 0.6393 0.0
H709 H 0.12827 0.20033 0.67663 0.0
H710 H 0.04117 0.2451 0.61029 0.0
H711 H 0.01874 0.18904 0.57465 0.0
C712 C 0.08598 0.32227 0.69333 0.0
C713 C 0.123 0.33251 0.71715 0.0
C714 C 0.07472 0.28972 0.67157 0.0
C715 C 0.09983 0.26504 0.6719 0.0
C716 C 0.13718 0.27568 0.69586 0.0
C717 C 0.14825 0.30822 0.71787 0.0
C718 C 0.0918 0.16609 0.63257 0.0
C719 C 0.06016 0.16096 0.6033 0.0
C720 C 0.10464 0.19902 0.65429 0.0
C721 C 0.0869 0.22905 0.64797 0.0
C722 C 0.05587 0.22371 0.61802 0.0
C723 C 0.04289 0.19089 0.59674 0.0
H724 H 0.81065 0.32448 0.50851 0.0
H725 H 0.85701 0.42567 0.44401 0.0
H726 H 0.75545 0.34726 0.53005 0.0
H727 H 0.80159 0.4487 0.46517 0.0
H728 H 0.65741 0.43583 0.45619 0.0
H729 H 0.72404 0.42399 0.44784 0.0
H730 H 0.73575 0.39633 0.56371 0.0
H731 H 0.66845 0.40805 0.57204 0.0
C732 C 0.81 0.35228 0.50023 0.0
C733 C 0.83792 0.37349 0.47477 0.0
C734 C 0.77833 0.36527 0.51235 0.0
C735 C 0.77392 0.39954 0.4989 0.0
C736 C 0.80396 0.42196 0.47561 0.0
C737 C 0.83575 0.40903 0.46372 0.0
C738 C 0.6742 0.42723 0.47988 0.0
C739 C 0.6576 0.42247 0.51468 0.0
C740 C 0.71264 0.42095 0.47522 0.0
C741 C 0.73525 0.40951 0.50519 0.0
C742 C 0.71896 0.40515 0.54016 0.0
C743 C 0.6806 0.4119 0.54492 0.0
loop_
_geom_bond_atom_site_label_1
_geom_bond_atom_site_label_2
_geom_bond_distance
_geom_bond_site_symmetry_2
_ccdc_geom_bond_type
C0 N1 1.317 . S
C0 N2 1.348 . S
C0 C3 1.485 . S
N1 C0 1.317 . S
N1 N5 1.370 . S
N2 C0 1.348 . S
N2 C4 1.346 . S
C3 C0 1.485 . S
C3 H7 0.960 . S
C3 H8 0.961 . S
C3 H9 0.960 . S
C4 N2 1.346 . S
C4 N5 1.307 . S
C4 C6 1.486 . S
N5 N1 1.370 . S
N5 C4 1.307 . S
C6 C4 1.486 . S
C6 H10 0.960 . S
C6 H11 0.960 . S
C6 H12 0.959 . S
H7 C3 0.960 . S
H8 C3 0.961 . S
H9 C3 0.960 . S
H10 C6 0.960 . S
H11 C6 0.960 . S
H12 C6 0.959 . S
C13 N14 1.317 . S
C13 N15 1.348 . S
C13 C16 1.485 . S
N14 C13 1.317 . S
N14 N18 1.370 . S
N15 C13 1.348 . S
N15 C17 1.346 . S
C16 C13 1.485 . S
C16 H20 0.960 . S
C16 H21 0.961 . S
C16 H22 0.960 . S
C17 N15 1.346 . S
C17 N18 1.307 . S
C17 C19 1.486 . S
N18 N14 1.370 . S
N18 C17 1.307 . S
C19 C17 1.486 . S
C19 H23 0.960 . S
C19 H24 0.960 . S
C19 H25 0.959 . S
H20 C16 0.960 . S
H21 C16 0.961 . S
H22 C16 0.960 . S
H23 C19 0.960 . S
H24 C19 0.960 . S
H25 C19 0.959 . S
C26 N27 1.317 . S
C26 N28 1.348 . S
C26 C29 1.485 . S
N27 C26 1.317 . S
N27 N31 1.370 . S
N28 C26 1.348 . S
N28 C30 1.346 . S
C29 C26 1.485 . S
C29 H33 0.960 . S
C29 H34 0.961 . S
C29 H35 0.960 . S
C30 N28 1.346 . S
C30 N31 1.307 . S
C30 C32 1.486 . S
N31 N27 1.370 . S
N31 C30 1.307 . S
C32 C30 1.486 . S
C32 H36 0.960 . S
C32 H37 0.960 . S
C32 H38 0.959 . S
H33 C29 0.960 . S
H34 C29 0.961 . S
H35 C29 0.960 . S
H36 C32 0.960 . S
H37 C32 0.960 . S
H38 C32 0.959 . S
C39 N40 1.317 . S
C39 N41 1.348 . S
C39 C42 1.485 . S
N40 C39 1.317 . S
N40 N44 1.370 . S
N41 C39 1.348 . S
N41 C43 1.346 . S
C42 C39 1.485 . S
C42 H46 0.960 . S
C42 H47 0.961 . S
C42 H48 0.960 . S
C43 N41 1.346 . S
C43 N44 1.307 . S
C43 C45 1.486 . S
N44 N40 1.370 . S
N44 C43 1.307 . S
C45 C43 1.486 . S
C45 H49 0.960 . S
C45 H50 0.960 . S
C45 H51 0.959 . S
H46 C42 0.960 . S
H47 C42 0.961 . S
H48 C42 0.960 . S
H49 C45 0.960 . S
H50 C45 0.960 . S
H51 C45 0.959 . S
C52 N53 1.317 . S
C52 N54 1.348 . S
C52 C55 1.485 . S
N53 C52 1.317 . S
N53 N57 1.370 . S
N54 C52 1.348 . S
N54 C56 1.346 . S
C55 C52 1.485 . S
C55 H59 0.960 . S
C55 H60 0.961 . S
C55 H61 0.960 . S
C56 N54 1.346 . S
C56 N57 1.307 . S
C56 C58 1.486 . S
N57 N53 1.370 . S
N57 C56 1.307 . S
C58 C56 1.486 . S
C58 H62 0.960 . S
C58 H63 0.960 . S
C58 H64 0.959 . S
H59 C55 0.960 . S
H60 C55 0.961 . S
H61 C55 0.960 . S
H62 C58 0.960 . S
H63 C58 0.960 . S
H64 C58 0.959 . S
C65 N66 1.317 . S
C65 N67 1.348 . S
C65 C68 1.485 . S
N66 C65 1.317 . S
N66 N70 1.370 . S
N67 C65 1.348 . S
N67 C69 1.346 . S
C68 C65 1.485 . S
C68 H72 0.960 . S
C68 H73 0.961 . S
C68 H74 0.960 . S
C69 N67 1.346 . S
C69 N70 1.307 . S
C69 C71 1.486 . S
N70 N66 1.370 . S
N70 C69 1.307 . S
C71 C69 1.486 . S
C71 H75 0.960 . S
C71 H76 0.960 . S
C71 H77 0.959 . S
H72 C68 0.960 . S
H73 C68 0.961 . S
H74 C68 0.960 . S
H75 C71 0.960 . S
H76 C71 0.960 . S
H77 C71 0.959 . S
C78 N79 1.317 . S
C78 N80 1.348 . S
C78 C81 1.485 . S
N79 C78 1.317 . S
N79 N83 1.370 . S
N80 C78 1.348 . S
N80 C82 1.346 . S
C81 C78 1.485 . S
C81 H85 0.960 . S
C81 H86 0.961 . S
C81 H87 0.960 . S
C82 N80 1.346 . S
C82 N83 1.307 . S
C82 C84 1.486 . S
N83 N79 1.370 . S
N83 C82 1.307 . S
C84 C82 1.486 . S
C84 H88 0.960 . S
C84 H89 0.960 . S
C84 H90 0.959 . S
H85 C81 0.960 . S
H86 C81 0.961 . S
H87 C81 0.960 . S
H88 C84 0.960 . S
H89 C84 0.960 . S
H90 C84 0.959 . S
C91 N92 1.317 . S
C91 N93 1.348 . S
C91 C94 1.485 . S
N92 C91 1.317 . S
N92 N96 1.370 . S
N93 C91 1.348 . S
N93 C95 1.346 . S
C94 C91 1.485 . S
C94 H98 0.960 . S
C94 H99 0.961 . S
C94 H100 0.960 . S
C95 N93 1.346 . S
C95 N96 1.307 . S
C95 C97 1.486 . S
N96 N92 1.370 . S
N96 C95 1.307 . S
C97 C95 1.486 . S
C97 H101 0.960 . S
C97 H102 0.960 . S
C97 H103 0.959 . S
H98 C94 0.960 . S
H99 C94 0.961 . S
H100 C94 0.960 . S
H101 C97 0.960 . S
H102 C97 0.960 . S
H103 C97 0.959 . S
Tb104 C106 2.809 1_545 S
Tb104 O124 2.484 1_545 S
Tb104 O125 2.440 1_545 S
Tb104 O126 2.658 1_655 S
Tb104 O127 2.409 1_655 S
Tb104 O128 2.378 1_645 S
Tb104 O132 2.325 1_645 S
Tb104 O135 2.341 . S
Tb105 C115 2.809 . S
Tb105 O126 2.325 . S
Tb105 O129 2.341 1_545 S
Tb105 O130 2.484 . S
Tb105 O131 2.440 . S
Tb105 O132 2.658 1_545 S
Tb105 O133 2.409 1_545 S
Tb105 O134 2.378 . S
C106 Tb104 2.809 1_565 S
C106 C107 1.514 . S
C106 O124 1.248 . S
C106 O125 1.266 . S
C107 C106 1.514 . S
C107 C108 1.359 . S
C107 C112 1.348 . S
C108 C107 1.359 . S
C108 C109 1.380 . S
C108 H136 0.929 . S
C109 C108 1.380 . S
C109 C110 1.347 . S
C109 H137 0.931 . S
C110 C109 1.347 . S
C110 C111 1.369 . S
C111 C110 1.369 . S
C111 C112 1.408 . S
C111 H138 0.930 . S
C112 C107 1.348 . S
C112 C111 1.408 . S
C112 H139 0.930 . S
C113 O126 1.281 . S
C113 O127 1.254 . S
C114 O128 1.236 . S
C114 O129 1.266 . S
C115 Tb105 2.809 . S
C115 C116 1.514 . S
C115 O130 1.248 . S
C115 O131 1.266 . S
C116 C115 1.514 . S
C116 C117 1.359 . S
C116 C121 1.348 . S
C117 C116 1.359 . S
C117 C118 1.380 . S
C117 H140 0.929 . S
C118 C117 1.380 . S
C118 C119 1.347 . S
C118 H141 0.931 . S
C119 C118 1.347 . S
C119 C120 1.369 . S
C120 C119 1.369 . S
C120 C121 1.408 . S
C120 H142 0.930 . S
C121 C116 1.348 . S
C121 C120 1.408 . S
C121 H143 0.930 . S
C122 O132 1.281 . S
C122 O133 1.254 . S
C123 O134 1.236 . S
C123 O135 1.266 1_455 S
O124 Tb104 2.484 1_565 S
O124 C106 1.248 . S
O125 Tb104 2.440 1_565 S
O125 C106 1.266 . S
O126 Tb104 2.658 1_455 S
O126 Tb105 2.325 . S
O126 C113 1.281 . S
O127 Tb104 2.409 1_455 S
O127 C113 1.254 . S
O128 Tb104 2.378 1_465 S
O128 C114 1.236 . S
O129 Tb105 2.341 1_565 S
O129 C114 1.266 . S
O130 Tb105 2.484 . S
O130 C115 1.248 . S
O131 Tb105 2.440 . S
O131 C115 1.266 . S
O132 Tb104 2.325 1_465 S
O132 Tb105 2.658 1_565 S
O132 C122 1.281 . S
O133 Tb105 2.409 1_565 S
O133 C122 1.254 . S
O134 Tb105 2.378 . S
O134 C123 1.236 . S
O135 Tb104 2.341 . S
O135 C123 1.266 1_655 S
H136 C108 0.929 . S
H137 C109 0.931 . S
H138 C111 0.930 . S
H139 C112 0.930 . S
H140 C117 0.929 . S
H141 C118 0.931 . S
H142 C120 0.930 . S
H143 C121 0.930 . S
Tb144 C146 2.809 . S
Tb144 O164 2.484 . S
Tb144 O165 2.440 . S
Tb144 O166 2.658 1_545 S
Tb144 O167 2.409 1_545 S
Tb144 O168 2.378 . S
Tb144 O172 2.325 . S
Tb144 O175 2.343 . S
Tb145 C155 2.809 1_544 S
Tb145 O166 2.325 1_545 S
Tb145 O169 2.341 . S
Tb145 O170 2.484 1_545 S
Tb145 O171 2.440 1_554 S
Tb145 O172 2.658 . S
Tb145 O173 2.409 1_554 S
Tb145 O174 2.378 . S
C146 Tb144 2.809 . S
C146 C147 1.514 . S
C146 O164 1.248 . S
C146 O165 1.266 . S
C147 C146 1.514 . S
C147 C148 1.359 . S
C147 C152 1.348 . S
C148 C147 1.359 . S
C148 C149 1.380 . S
C148 H176 0.929 . S
C149 C148 1.380 . S
C149 C150 1.347 . S
C149 H177 0.931 . S
C150 C149 1.347 . S
C150 C151 1.369 . S
C151 C150 1.369 . S
C151 C152 1.408 . S
C151 H178 0.930 . S
C152 C147 1.348 . S
C152 C151 1.408 . S
C152 H179 0.930 . S
C153 O166 1.281 . S
C153 O167 1.254 . S
C154 O168 1.236 . S
C154 O169 1.266 . S
C155 Tb145 2.809 1_566 S
C155 C156 1.514 . S
C155 O170 1.248 1_556 S
C155 O171 1.266 1_565 S
C156 C155 1.514 . S
C156 C157 1.359 . S
C156 C161 1.348 . S
C157 C156 1.359 . S
C157 C158 1.380 . S
C157 H180 0.929 . S
C158 C157 1.380 . S
C158 C159 1.347 . S
C158 H181 0.931 . S
C159 C158 1.347 . S
C159 C160 1.369 . S
C160 C159 1.369 . S
C160 C161 1.408 . S
C160 H182 0.930 . S
C161 C156 1.348 . S
C161 C160 1.408 . S
C161 H183 0.930 . S
C162 O172 1.281 . S
C162 O173 1.254 1_554 S
C163 O174 1.236 1_565 S
C163 O175 1.265 1_565 S
O164 Tb144 2.484 . S
O164 C146 1.248 . S
O165 Tb144 2.440 . S
O165 C146 1.266 . S
O166 Tb144 2.658 1_565 S
O166 Tb145 2.325 1_565 S
O166 C153 1.281 . S
O167 Tb144 2.409 1_565 S
O167 C153 1.254 . S
O168 Tb144 2.378 . S
O168 C154 1.236 . S
O169 Tb145 2.341 . S
O169 C154 1.266 . S
O170 Tb145 2.484 1_565 S
O170 C155 1.248 1_554 S
O171 Tb145 2.440 1_556 S
O171 C155 1.266 1_545 S
O172 Tb144 2.325 . S
O172 Tb145 2.658 . S
O172 C162 1.281 . S
O173 Tb145 2.409 1_556 S
O173 C162 1.254 1_556 S
O174 Tb145 2.378 . S
O174 C163 1.236 1_545 S
O175 Tb144 2.343 . S
O175 C163 1.265 1_545 S
H176 C148 0.929 . S
H177 C149 0.931 . S
H178 C151 0.930 . S
H179 C152 0.930 . S
H180 C157 0.929 . S
H181 C158 0.931 . S
H182 C160 0.930 . S
H183 C161 0.930 . S
Tb184 C186 2.809 . S
Tb184 O204 2.484 . S
Tb184 O205 2.440 . S
Tb184 O206 2.658 . S
Tb184 O207 2.409 . S
Tb184 O208 2.378 . S
Tb184 O212 2.325 . S
Tb184 O215 2.341 . S
Tb185 C195 2.809 . S
Tb185 O206 2.325 . S
Tb185 O209 2.341 . S
Tb185 O210 2.484 . S
Tb185 O211 2.440 . S
Tb185 O212 2.658 . S
Tb185 O213 2.409 . S
Tb185 O214 2.378 . S
C186 Tb184 2.809 . S
C186 C187 1.514 . S
C186 O204 1.248 . S
C186 O205 1.266 . S
C187 C186 1.514 . S
C187 C188 1.359 . S
C187 C192 1.348 . S
C188 C187 1.359 . S
C188 C189 1.380 . S
C188 H216 0.929 . S
C189 C188 1.380 . S
C189 C190 1.347 . S
C189 H217 0.931 . S
C190 C189 1.347 . S
C190 C191 1.369 . S
C191 C190 1.369 . S
C191 C192 1.408 . S
C191 H218 0.930 . S
C192 C187 1.348 . S
C192 C191 1.408 . S
C192 H219 0.930 . S
C193 O206 1.281 . S
C193 O207 1.254 . S
C194 O208 1.236 . S
C194 O209 1.266 . S
C195 Tb185 2.809 . S
C195 C196 1.514 . S
C195 O210 1.248 . S
C195 O211 1.266 . S
C196 C195 1.514 . S
C196 C197 1.359 . S
C196 C201 1.348 . S
C197 C196 1.359 . S
C197 C198 1.380 . S
C197 H220 0.929 . S
C198 C197 1.380 . S
C198 C199 1.347 . S
C198 H221 0.931 . S
C199 C198 1.347 . S
C199 C200 1.369 . S
C200 C199 1.369 . S
C200 C201 1.408 . S
C200 H222 0.930 . S
C201 C196 1.348 . S
C201 C200 1.408 . S
C201 H223 0.930 . S
C202 O212 1.281 . S
C202 O213 1.254 . S
C203 O214 1.236 . S
C203 O215 1.266 . S
O204 Tb184 2.484 . S
O204 C186 1.248 . S
O205 Tb184 2.440 . S
O205 C186 1.266 . S
O206 Tb184 2.658 . S
O206 Tb185 2.325 . S
O206 C193 1.281 . S
O207 Tb184 2.409 . S
O207 C193 1.254 . S
O208 Tb184 2.378 . S
O208 C194 1.236 . S
O209 Tb185 2.341 . S
O209 C194 1.266 . S
O210 Tb185 2.484 . S
O210 C195 1.248 . S
O211 Tb185 2.440 . S
O211 C195 1.266 . S
O212 Tb184 2.325 . S
O212 Tb185 2.658 . S
O212 C202 1.281 . S
O213 Tb185 2.409 . S
O213 C202 1.254 . S
O214 Tb185 2.378 . S
O214 C203 1.236 . S
O215 Tb184 2.341 . S
O215 C203 1.266 . S
H216 C188 0.929 . S
H217 C189 0.931 . S
H218 C191 0.930 . S
H219 C192 0.930 . S
H220 C197 0.929 . S
H221 C198 0.931 . S
H222 C200 0.930 . S
H223 C201 0.930 . S
Tb224 C226 2.817 . S
Tb224 O244 2.494 . S
Tb224 O245 2.445 . S
Tb224 O246 2.652 1_656 S
Tb224 O247 2.402 1_656 S
Tb224 O248 2.382 1_556 S
Tb224 O252 2.328 . S
Tb224 O255 2.334 1_655 S
Tb225 C235 2.809 . S
Tb225 O246 2.325 . S
Tb225 O249 2.341 1_455 S
Tb225 O250 2.484 . S
Tb225 O251 2.440 . S
Tb225 O252 2.658 1_454 S
Tb225 O253 2.409 1_455 S
Tb225 O254 2.378 1_554 S
C226 Tb224 2.817 . S
C226 C227 1.514 . S
C226 O244 1.248 . S
C226 O245 1.266 . S
C227 C226 1.514 . S
C227 C228 1.359 . S
C227 C232 1.348 . S
C228 C227 1.359 . S
C228 C229 1.380 . S
C228 H256 0.929 . S
C229 C228 1.380 . S
C229 C230 1.347 . S
C229 H257 0.931 . S
C230 C229 1.347 . S
C230 C231 1.369 . S
C231 C230 1.369 . S
C231 C232 1.408 . S
C231 H258 0.930 . S
C232 C227 1.348 . S
C232 C231 1.408 . S
C232 H259 0.930 . S
C233 O246 1.281 . S
C233 O247 1.254 . S
C234 O248 1.236 . S
C234 O249 1.266 . S
C235 Tb225 2.809 . S
C235 C236 1.514 . S
C235 O250 1.248 . S
C235 O251 1.266 . S
C236 C235 1.514 . S
C236 C237 1.359 . S
C236 C241 1.348 . S
C237 C236 1.359 . S
C237 C238 1.380 . S
C237 H260 0.929 . S
C238 C237 1.380 . S
C238 C239 1.347 . S
C238 H261 0.931 . S
C239 C238 1.347 . S
C239 C240 1.369 . S
C240 C239 1.369 . S
C240 C241 1.408 . S
C240 H262 0.930 . S
C241 C236 1.348 . S
C241 C240 1.408 . S
C241 H263 0.930 . S
C242 O252 1.281 . S
C242 O253 1.254 1_556 S
C243 O254 1.236 . S
C243 O255 1.266 . S
O244 Tb224 2.494 . S
O244 C226 1.248 . S
O245 Tb224 2.445 . S
O245 C226 1.266 . S
O246 Tb224 2.652 1_454 S
O246 Tb225 2.325 . S
O246 C233 1.281 . S
O247 Tb224 2.402 1_454 S
O247 C233 1.254 . S
O248 Tb224 2.382 1_554 S
O248 C234 1.236 . S
O249 Tb225 2.341 1_655 S
O249 C234 1.266 . S
O250 Tb225 2.484 . S
O250 C235 1.248 . S
O251 Tb225 2.440 . S
O251 C235 1.266 . S
O252 Tb224 2.328 . S
O252 Tb225 2.658 1_656 S
O252 C242 1.281 . S
O253 Tb225 2.409 1_655 S
O253 C242 1.254 1_554 S
O254 Tb225 2.378 1_556 S
O254 C243 1.236 . S
O255 Tb224 2.334 1_455 S
O255 C243 1.266 . S
H256 C228 0.929 . S
H257 C229 0.931 . S
H258 C231 0.930 . S
H259 C232 0.930 . S
H260 C237 0.929 . S
H261 C238 0.931 . S
H262 C240 0.930 . S
H263 C241 0.930 . S
H264 C272 0.950 . S
H265 C277 0.950 . S
H266 C274 0.950 . S
H267 C276 0.950 . S
H268 C278 0.950 . S
H269 C280 0.950 . S
H270 C282 0.950 . S
H271 C283 0.950 . S
C272 H264 0.950 . S
C272 C273 1.386 . S
C272 C274 1.391 . S
C273 C272 1.386 . S
C273 C277 1.393 . S
C274 H266 0.950 . S
C274 C272 1.391 . S
C274 C275 1.400 . S
C275 C274 1.400 . S
C275 C276 1.398 . S
C275 C281 1.491 . S
C276 H267 0.950 . S
C276 C275 1.398 . S
C276 C277 1.391 . S
C277 H265 0.950 . S
C277 C273 1.393 . S
C277 C276 1.391 . S
C278 H268 0.950 . S
C278 C279 1.386 . S
C278 C280 1.391 . S
C279 C278 1.386 . S
C279 C283 1.393 . S
C280 H269 0.950 . S
C280 C278 1.391 . S
C280 C281 1.400 . S
C281 C275 1.491 . S
C281 C280 1.400 . S
C281 C282 1.398 . S
C282 H270 0.950 . S
C282 C281 1.398 . S
C282 C283 1.391 . S
C283 H271 0.950 . S
C283 C279 1.393 . S
C283 C282 1.391 . S
H284 C292 0.950 . S
H285 C297 0.950 . S
H286 C294 0.950 . S
H287 C296 0.950 . S
H288 C298 0.950 . S
H289 C300 0.950 . S
H290 C302 0.950 . S
H291 C303 0.950 . S
C292 H284 0.950 . S
C292 C293 1.386 . S
C292 C294 1.391 . S
C293 C292 1.386 . S
C293 C297 1.393 . S
C294 H286 0.950 . S
C294 C292 1.391 . S
C294 C295 1.400 . S
C295 C294 1.400 . S
C295 C296 1.398 . S
C295 C301 1.491 . S
C296 H287 0.950 . S
C296 C295 1.398 . S
C296 C297 1.391 . S
C297 H285 0.950 . S
C297 C293 1.393 . S
C297 C296 1.391 . S
C298 H288 0.950 . S
C298 C299 1.386 . S
C298 C300 1.391 . S
C299 C298 1.386 . S
C299 C303 1.393 . S
C300 H289 0.950 . S
C300 C298 1.391 . S
C300 C301 1.400 . S
C301 C295 1.491 . S
C301 C300 1.400 . S
C301 C302 1.398 . S
C302 H290 0.950 . S
C302 C301 1.398 . S
C302 C303 1.391 . S
C303 H291 0.950 . S
C303 C299 1.393 . S
C303 C302 1.391 . S
H304 C312 0.950 . S
H305 C317 0.950 . S
H306 C314 0.950 . S
H307 C316 0.950 . S
H308 C318 0.950 . S
H309 C320 0.950 . S
H310 C322 0.950 . S
H311 C323 0.950 . S
C312 H304 0.950 . S
C312 C313 1.386 . S
C312 C314 1.391 . S
C313 C312 1.386 . S
C313 C317 1.393 . S
C314 H306 0.950 . S
C314 C312 1.391 . S
C314 C315 1.400 . S
C315 C314 1.400 . S
C315 C316 1.398 . S
C315 C321 1.491 . S
C316 H307 0.950 . S
C316 C315 1.398 . S
C316 C317 1.391 . S
C317 H305 0.950 . S
C317 C313 1.393 . S
C317 C316 1.391 . S
C318 H308 0.950 . S
C318 C319 1.386 . S
C318 C320 1.391 . S
C319 C318 1.386 . S
C319 C323 1.393 . S
C320 H309 0.950 . S
C320 C318 1.391 . S
C320 C321 1.400 . S
C321 C315 1.491 . S
C321 C320 1.400 . S
C321 C322 1.398 . S
C322 H310 0.950 . S
C322 C321 1.398 . S
C322 C323 1.391 . S
C323 H311 0.950 . S
C323 C319 1.393 . S
C323 C322 1.391 . S
H324 C332 0.950 . S
H325 C337 0.950 . S
H326 C334 0.950 . S
H327 C336 0.950 . S
H328 C338 0.950 . S
H329 C340 0.950 . S
H330 C342 0.950 . S
H331 C343 0.950 . S
C332 H324 0.950 . S
C332 C333 1.386 . S
C332 C334 1.391 . S
C333 C332 1.386 . S
C333 C337 1.393 . S
C334 H326 0.950 . S
C334 C332 1.391 . S
C334 C335 1.400 . S
C335 C334 1.400 . S
C335 C336 1.398 . S
C335 C341 1.491 . S
C336 H327 0.950 . S
C336 C335 1.398 . S
C336 C337 1.391 . S
C337 H325 0.950 . S
C337 C333 1.393 . S
C337 C336 1.391 . S
C338 H328 0.950 . S
C338 C339 1.386 . S
C338 C340 1.391 . S
C339 C338 1.386 . S
C339 C343 1.393 . S
C340 H329 0.950 . S
C340 C338 1.391 . S
C340 C341 1.400 . S
C341 C335 1.491 . S
C341 C340 1.400 . S
C341 C342 1.398 . S
C342 H330 0.950 . S
C342 C341 1.398 . S
C342 C343 1.391 . S
C343 H331 0.950 . S
C343 C339 1.393 . S
C343 C342 1.391 . S
H344 C352 0.950 . S
H345 C357 0.950 . S
H346 C354 0.950 . S
H347 C356 0.950 . S
H348 C358 0.950 . S
H349 C360 0.950 . S
H350 C362 0.950 . S
H351 C363 0.950 . S
C352 H344 0.950 . S
C352 C353 1.386 . S
C352 C354 1.391 . S
C353 C352 1.386 . S
C353 C357 1.393 . S
C354 H346 0.950 . S
C354 C352 1.391 . S
C354 C355 1.400 . S
C355 C354 1.400 . S
C355 C356 1.398 . S
C355 C361 1.491 . S
C356 H347 0.950 . S
C356 C355 1.398 . S
C356 C357 1.391 . S
C357 H345 0.950 . S
C357 C353 1.393 . S
C357 C356 1.391 . S
C358 H348 0.950 . S
C358 C359 1.386 . S
C358 C360 1.391 . S
C359 C358 1.386 . S
C359 C363 1.393 . S
C360 H349 0.950 . S
C360 C358 1.391 . S
C360 C361 1.400 . S
C361 C355 1.491 . S
C361 C360 1.400 . S
C361 C362 1.398 . S
C362 H350 0.950 . S
C362 C361 1.398 . S
C362 C363 1.391 . S
C363 H351 0.950 . S
C363 C359 1.393 . S
C363 C362 1.391 . S
H364 C372 0.950 . S
H365 C377 0.950 . S
H366 C374 0.950 . S
H367 C376 0.950 . S
H368 C378 0.950 . S
H369 C380 0.950 . S
H370 C382 0.950 . S
H371 C383 0.950 . S
C372 H364 0.950 . S
C372 C373 1.386 . S
C372 C374 1.391 . S
C373 C372 1.386 . S
C373 C377 1.393 . S
C374 H366 0.950 . S
C374 C372 1.391 . S
C374 C375 1.400 . S
C375 C374 1.400 . S
C375 C376 1.398 . S
C375 C381 1.491 . S
C376 H367 0.950 . S
C376 C375 1.398 . S
C376 C377 1.391 . S
C377 H365 0.950 . S
C377 C373 1.393 . S
C377 C376 1.391 . S
C378 H368 0.950 . S
C378 C379 1.386 . S
C378 C380 1.391 . S
C379 C378 1.386 . S
C379 C383 1.393 . S
C380 H369 0.950 . S
C380 C378 1.391 . S
C380 C381 1.400 . S
C381 C375 1.491 . S
C381 C380 1.400 . S
C381 C382 1.398 . S
C382 H370 0.950 . S
C382 C381 1.398 . S
C382 C383 1.391 . S
C383 H371 0.950 . S
C383 C379 1.393 . S
C383 C382 1.391 . S
H384 C392 0.950 . S
H385 C397 0.950 . S
H386 C394 0.950 . S
H387 C396 0.950 . S
H388 C398 0.950 . S
H389 C400 0.950 . S
H390 C402 0.950 . S
H391 C403 0.950 . S
C392 H384 0.950 . S
C392 C393 1.386 . S
C392 C394 1.391 . S
C393 C392 1.386 . S
C393 C397 1.393 . S
C394 H386 0.950 . S
C394 C392 1.391 . S
C394 C395 1.400 . S
C395 C394 1.400 . S
C395 C396 1.398 . S
C395 C401 1.491 . S
C396 H387 0.950 . S
C396 C395 1.398 . S
C396 C397 1.391 . S
C397 H385 0.950 . S
C397 C393 1.393 . S
C397 C396 1.391 . S
C398 H388 0.950 . S
C398 C399 1.386 . S
C398 C400 1.391 . S
C399 C398 1.386 . S
C399 C403 1.393 . S
C400 H389 0.950 . S
C400 C398 1.391 . S
C400 C401 1.400 . S
C401 C395 1.491 . S
C401 C400 1.400 . S
C401 C402 1.398 . S
C402 H390 0.950 . S
C402 C401 1.398 . S
C402 C403 1.391 . S
C403 H391 0.950 . S
C403 C399 1.393 . S
C403 C402 1.391 . S
H404 C412 0.950 . S
H405 C417 0.950 . S
H406 C414 0.950 . S
H407 C416 0.950 . S
H408 C418 0.950 . S
H409 C420 0.950 . S
H410 C422 0.950 . S
H411 C423 0.950 . S
C412 H404 0.950 . S
C412 C413 1.386 . S
C412 C414 1.391 . S
C413 C412 1.386 . S
C413 C417 1.393 . S
C414 H406 0.950 . S
C414 C412 1.391 . S
C414 C415 1.400 . S
C415 C414 1.400 . S
C415 C416 1.398 . S
C415 C421 1.491 . S
C416 H407 0.950 . S
C416 C415 1.398 . S
C416 C417 1.391 . S
C417 H405 0.950 . S
C417 C413 1.393 . S
C417 C416 1.391 . S
C418 H408 0.950 . S
C418 C419 1.386 . S
C418 C420 1.391 . S
C419 C418 1.386 . S
C419 C423 1.393 . S
C420 H409 0.950 . S
C420 C418 1.391 . S
C420 C421 1.400 . S
C421 C415 1.491 . S
C421 C420 1.400 . S
C421 C422 1.398 . S
C422 H410 0.950 . S
C422 C421 1.398 . S
C422 C423 1.391 . S
C423 H411 0.950 . S
C423 C419 1.393 . S
C423 C422 1.391 . S
H424 C432 0.950 . S
H425 C437 0.950 . S
H426 C434 0.950 . S
H427 C436 0.950 . S
H428 C438 0.950 . S
H429 C440 0.950 . S
H430 C442 0.950 . S
H431 C443 0.950 . S
C432 H424 0.950 . S
C432 C433 1.386 . S
C432 C434 1.391 . S
C433 C432 1.386 . S
C433 C437 1.393 . S
C434 H426 0.950 . S
C434 C432 1.391 . S
C434 C435 1.400 . S
C435 C434 1.400 . S
C435 C436 1.398 . S
C435 C441 1.491 . S
C436 H427 0.950 . S
C436 C435 1.398 . S
C436 C437 1.391 . S
C437 H425 0.950 . S
C437 C433 1.393 . S
C437 C436 1.391 . S
C438 H428 0.950 . S
C438 C439 1.386 . S
C438 C440 1.391 . S
C439 C438 1.386 . S
C439 C443 1.393 . S
C440 H429 0.950 . S
C440 C438 1.391 . S
C440 C441 1.400 . S
C441 C435 1.491 . S
C441 C440 1.400 . S
C441 C442 1.398 . S
C442 H430 0.950 . S
C442 C441 1.398 . S
C442 C443 1.391 . S
C443 H431 0.950 . S
C443 C439 1.393 . S
C443 C442 1.391 . S
H444 C452 0.950 . S
H445 C457 0.950 . S
H446 C454 0.950 . S
H447 C456 0.950 . S
H448 C458 0.950 . S
H449 C460 0.950 . S
H450 C462 0.950 . S
H451 C463 0.950 . S
C452 H444 0.950 . S
C452 C453 1.386 . S
C452 C454 1.391 . S
C453 C452 1.386 . S
C453 C457 1.393 . S
C454 H446 0.950 . S
C454 C452 1.391 . S
C454 C455 1.400 . S
C455 C454 1.400 . S
C455 C456 1.398 . S
C455 C461 1.491 . S
C456 H447 0.950 . S
C456 C455 1.398 . S
C456 C457 1.391 . S
C457 H445 0.950 . S
C457 C453 1.393 . S
C457 C456 1.391 . S
C458 H448 0.950 . S
C458 C459 1.386 . S
C458 C460 1.391 . S
C459 C458 1.386 . S
C459 C463 1.393 . S
C460 H449 0.950 . S
C460 C458 1.391 . S
C460 C461 1.400 . S
C461 C455 1.491 . S
C461 C460 1.400 . S
C461 C462 1.398 . S
C462 H450 0.950 . S
C462 C461 1.398 . S
C462 C463 1.391 . S
C463 H451 0.950 . S
C463 C459 1.393 . S
C463 C462 1.391 . S
H464 C472 0.950 . S
H465 C477 0.950 . S
H466 C474 0.950 . S
H467 C476 0.950 . S
H468 C478 0.950 1_455 S
H469 C480 0.950 . S
H470 C482 0.950 . S
H471 C483 0.950 . S
C472 H464 0.950 . S
C472 C473 1.386 . S
C472 C474 1.391 . S
C473 C472 1.386 . S
C473 C477 1.393 . S
C474 H466 0.950 . S
C474 C472 1.391 . S
C474 C475 1.400 . S
C475 C474 1.400 . S
C475 C476 1.398 . S
C475 C481 1.491 . S
C476 H467 0.950 . S
C476 C475 1.398 . S
C476 C477 1.391 . S
C477 H465 0.950 . S
C477 C473 1.393 . S
C477 C476 1.391 . S
C478 H468 0.950 1_655 S
C478 C479 1.386 . S
C478 C480 1.391 . S
C479 C478 1.386 . S
C479 C483 1.393 . S
C480 H469 0.950 . S
C480 C478 1.391 . S
C480 C481 1.400 . S
C481 C475 1.491 . S
C481 C480 1.400 . S
C481 C482 1.398 . S
C482 H470 0.950 . S
C482 C481 1.398 . S
C482 C483 1.391 . S
C483 H471 0.950 . S
C483 C479 1.393 . S
C483 C482 1.391 . S
H484 C492 0.950 . S
H485 C497 0.950 . S
H486 C494 0.950 . S
H487 C496 0.950 . S
H488 C498 0.950 . S
H489 C500 0.950 . S
H490 C502 0.950 . S
H491 C503 0.950 . S
C492 H484 0.950 . S
C492 C493 1.386 . S
C492 C494 1.391 . S
C493 C492 1.386 . S
C493 C497 1.393 . S
C494 H486 0.950 . S
C494 C492 1.391 . S
C494 C495 1.400 . S
C495 C494 1.400 . S
C495 C496 1.398 . S
C495 C501 1.491 . S
C496 H487 0.950 . S
C496 C495 1.398 . S
C496 C497 1.391 . S
C497 H485 0.950 . S
C497 C493 1.393 . S
C497 C496 1.391 . S
C498 H488 0.950 . S
C498 C499 1.386 . S
C498 C500 1.391 . S
C499 C498 1.386 . S
C499 C503 1.393 . S
C500 H489 0.950 . S
C500 C498 1.391 . S
C500 C501 1.400 . S
C501 C495 1.491 . S
C501 C500 1.400 . S
C501 C502 1.398 . S
C502 H490 0.950 . S
C502 C501 1.398 . S
C502 C503 1.391 . S
C503 H491 0.950 . S
C503 C499 1.393 . S
C503 C502 1.391 . S
H504 C512 0.950 . S
H505 C517 0.950 . S
H506 C514 0.950 . S
H507 C516 0.950 . S
H508 C518 0.950 . S
H509 C520 0.950 . S
H510 C522 0.950 . S
H511 C523 0.950 . S
C512 H504 0.950 . S
C512 C513 1.386 . S
C512 C514 1.391 . S
C513 C512 1.386 . S
C513 C517 1.393 . S
C514 H506 0.950 . S
C514 C512 1.391 . S
C514 C515 1.400 . S
C515 C514 1.400 . S
C515 C516 1.398 . S
C515 C521 1.491 . S
C516 H507 0.950 . S
C516 C515 1.398 . S
C516 C517 1.391 . S
C517 H505 0.950 . S
C517 C513 1.393 . S
C517 C516 1.391 . S
C518 H508 0.950 . S
C518 C519 1.386 . S
C518 C520 1.391 . S
C519 C518 1.386 . S
C519 C523 1.393 . S
C520 H509 0.950 . S
C520 C518 1.391 . S
C520 C521 1.400 . S
C521 C515 1.491 . S
C521 C520 1.400 . S
C521 C522 1.398 . S
C522 H510 0.950 . S
C522 C521 1.398 . S
C522 C523 1.391 . S
C523 H511 0.950 . S
C523 C519 1.393 . S
C523 C522 1.391 . S
H524 C532 0.950 . S
H525 C537 0.950 . S
H526 C534 0.950 . S
H527 C536 0.950 . S
H528 C538 0.950 . S
H529 C540 0.950 . S
H530 C542 0.950 . S
H531 C543 0.950 . S
C532 H524 0.950 . S
C532 C533 1.386 . S
C532 C534 1.391 . S
C533 C532 1.386 . S
C533 C537 1.393 . S
C534 H526 0.950 . S
C534 C532 1.391 . S
C534 C535 1.400 . S
C535 C534 1.400 . S
C535 C536 1.398 . S
C535 C541 1.491 . S
C536 H527 0.950 . S
C536 C535 1.398 . S
C536 C537 1.391 . S
C537 H525 0.950 . S
C537 C533 1.393 . S
C537 C536 1.391 . S
C538 H528 0.950 . S
C538 C539 1.386 . S
C538 C540 1.391 . S
C539 C538 1.386 . S
C539 C543 1.393 . S
C540 H529 0.950 . S
C540 C538 1.391 . S
C540 C541 1.400 . S
C541 C535 1.491 . S
C541 C540 1.400 . S
C541 C542 1.398 . S
C542 H530 0.950 . S
C542 C541 1.398 . S
C542 C543 1.391 . S
C543 H531 0.950 . S
C543 C539 1.393 . S
C543 C542 1.391 . S
H544 C552 0.950 . S
H545 C557 0.950 . S
H546 C554 0.950 . S
H547 C556 0.950 . S
H548 C558 0.950 . S
H549 C560 0.950 . S
H550 C562 0.950 . S
H551 C563 0.950 . S
C552 H544 0.950 . S
C552 C553 1.386 . S
C552 C554 1.391 . S
C553 C552 1.386 . S
C553 C557 1.393 . S
C554 H546 0.950 . S
C554 C552 1.391 . S
C554 C555 1.400 . S
C555 C554 1.400 . S
C555 C556 1.398 . S
C555 C561 1.491 . S
C556 H547 0.950 . S
C556 C555 1.398 . S
C556 C557 1.391 . S
C557 H545 0.950 . S
C557 C553 1.393 . S
C557 C556 1.391 . S
C558 H548 0.950 . S
C558 C559 1.386 . S
C558 C560 1.391 . S
C559 C558 1.386 . S
C559 C563 1.393 . S
C560 H549 0.950 . S
C560 C558 1.391 . S
C560 C561 1.400 . S
C561 C555 1.491 . S
C561 C560 1.400 . S
C561 C562 1.398 . S
C562 H550 0.950 . S
C562 C561 1.398 . S
C562 C563 1.391 . S
C563 H551 0.950 . S
C563 C559 1.393 . S
C563 C562 1.391 . S
H564 C572 0.950 . S
H565 C577 0.950 . S
H566 C574 0.950 . S
H567 C576 0.950 . S
H568 C578 0.950 . S
H569 C580 0.950 . S
H570 C582 0.950 . S
H571 C583 0.950 . S
C572 H564 0.950 . S
C572 C573 1.386 . S
C572 C574 1.391 . S
C573 C572 1.386 . S
C573 C577 1.393 . S
C574 H566 0.950 . S
C574 C572 1.391 . S
C574 C575 1.400 . S
C575 C574 1.400 . S
C575 C576 1.398 . S
C575 C581 1.491 . S
C576 H567 0.950 . S
C576 C575 1.398 . S
C576 C577 1.391 . S
C577 H565 0.950 . S
C577 C573 1.393 . S
C577 C576 1.391 . S
C578 H568 0.950 . S
C578 C579 1.386 . S
C578 C580 1.391 . S
C579 C578 1.386 . S
C579 C583 1.393 . S
C580 H569 0.950 . S
C580 C578 1.391 . S
C580 C581 1.400 . S
C581 C575 1.491 . S
C581 C580 1.400 . S
C581 C582 1.398 . S
C582 H570 0.950 . S
C582 C581 1.398 . S
C582 C583 1.391 . S
C583 H571 0.950 . S
C583 C579 1.393 . S
C583 C582 1.391 . S
H584 C592 0.950 . S
H585 C597 0.950 . S
H586 C594 0.950 . S
H587 C596 0.950 . S
H588 C598 0.950 . S
H589 C600 0.950 . S
H590 C602 0.950 . S
H591 C603 0.950 . S
C592 H584 0.950 . S
C592 C593 1.386 . S
C592 C594 1.391 . S
C593 C592 1.386 . S
C593 C597 1.393 . S
C594 H586 0.950 . S
C594 C592 1.391 . S
C594 C595 1.400 . S
C595 C594 1.400 . S
C595 C596 1.398 . S
C595 C601 1.491 . S
C596 H587 0.950 . S
C596 C595 1.398 . S
C596 C597 1.391 . S
C597 H585 0.950 . S
C597 C593 1.393 . S
C597 C596 1.391 . S
C598 H588 0.950 . S
C598 C599 1.386 . S
C598 C600 1.391 1_554 S
C599 C598 1.386 . S
C599 C603 1.393 1_554 S
C600 H589 0.950 . S
C600 C598 1.391 1_556 S
C600 C601 1.400 . S
C601 C595 1.491 . S
C601 C600 1.400 . S
C601 C602 1.398 . S
C602 H590 0.950 . S
C602 C601 1.398 . S
C602 C603 1.391 . S
C603 H591 0.950 . S
C603 C599 1.393 1_556 S
C603 C602 1.391 . S
H604 C612 0.950 . S
H605 C617 0.950 . S
H606 C614 0.950 1_455 S
H607 C616 0.950 . S
H608 C618 0.950 . S
H609 C620 0.950 . S
H610 C622 0.950 . S
H611 C623 0.950 . S
C612 H604 0.950 . S
C612 C613 1.386 . S
C612 C614 1.391 . S
C613 C612 1.386 . S
C613 C617 1.393 . S
C614 H606 0.950 1_655 S
C614 C612 1.391 . S
C614 C615 1.400 . S
C615 C614 1.400 . S
C615 C616 1.398 . S
C615 C621 1.491 . S
C616 H607 0.950 . S
C616 C615 1.398 . S
C616 C617 1.391 . S
C617 H605 0.950 . S
C617 C613 1.393 . S
C617 C616 1.391 . S
C618 H608 0.950 . S
C618 C619 1.386 . S
C618 C620 1.391 . S
C619 C618 1.386 . S
C619 C623 1.393 1_655 S
C620 H609 0.950 . S
C620 C618 1.391 . S
C620 C621 1.400 . S
C621 C615 1.491 . S
C621 C620 1.400 . S
C621 C622 1.398 1_655 S
C622 H610 0.950 . S
C622 C621 1.398 1_455 S
C622 C623 1.391 . S
C623 H611 0.950 . S
C623 C619 1.393 1_455 S
C623 C622 1.391 . S
H624 C632 0.950 . S
H625 C637 0.950 . S
H626 C634 0.950 . S
H627 C636 0.950 . S
H628 C638 0.950 . S
H629 C640 0.950 . S
H630 C642 0.950 . S
H631 C643 0.950 . S
C632 H624 0.950 . S
C632 C633 1.386 . S
C632 C634 1.391 . S
C633 C632 1.386 . S
C633 C637 1.393 . S
C634 H626 0.950 . S
C634 C632 1.391 . S
C634 C635 1.400 . S
C635 C634 1.400 . S
C635 C636 1.398 . S
C635 C641 1.491 . S
C636 H627 0.950 . S
C636 C635 1.398 . S
C636 C637 1.391 . S
C637 H625 0.950 . S
C637 C633 1.393 . S
C637 C636 1.391 . S
C638 H628 0.950 . S
C638 C639 1.386 . S
C638 C640 1.391 . S
C639 C638 1.386 . S
C639 C643 1.393 . S
C640 H629 0.950 . S
C640 C638 1.391 . S
C640 C641 1.400 . S
C641 C635 1.491 . S
C641 C640 1.400 . S
C641 C642 1.398 . S
C642 H630 0.950 . S
C642 C641 1.398 . S
C642 C643 1.391 . S
C643 H631 0.950 . S
C643 C639 1.393 . S
C643 C642 1.391 . S
H644 C652 0.950 . S
H645 C657 0.950 . S
H646 C654 0.950 . S
H647 C656 0.950 . S
H648 C658 0.950 . S
H649 C660 0.950 . S
H650 C662 0.950 . S
H651 C663 0.950 . S
C652 H644 0.950 . S
C652 C653 1.386 . S
C652 C654 1.391 . S
C653 C652 1.386 . S
C653 C657 1.393 . S
C654 H646 0.950 . S
C654 C652 1.391 . S
C654 C655 1.400 . S
C655 C654 1.400 . S
C655 C656 1.398 . S
C655 C661 1.491 . S
C656 H647 0.950 . S
C656 C655 1.398 . S
C656 C657 1.391 . S
C657 H645 0.950 . S
C657 C653 1.393 . S
C657 C656 1.391 . S
C658 H648 0.950 . S
C658 C659 1.386 . S
C658 C660 1.391 . S
C659 C658 1.386 . S
C659 C663 1.393 . S
C660 H649 0.950 . S
C660 C658 1.391 . S
C660 C661 1.400 . S
C661 C655 1.491 . S
C661 C660 1.400 . S
C661 C662 1.398 . S
C662 H650 0.950 . S
C662 C661 1.398 . S
C662 C663 1.391 . S
C663 H651 0.950 . S
C663 C659 1.393 . S
C663 C662 1.391 . S
H664 C672 0.950 . S
H665 C677 0.950 . S
H666 C674 0.950 . S
H667 C676 0.950 . S
H668 C678 0.950 . S
H669 C680 0.950 . S
H670 C682 0.950 . S
H671 C683 0.950 . S
C672 H664 0.950 . S
C672 C673 1.386 . S
C672 C674 1.391 . S
C673 C672 1.386 . S
C673 C677 1.393 . S
C674 H666 0.950 . S
C674 C672 1.391 . S
C674 C675 1.400 . S
C675 C674 1.400 . S
C675 C676 1.398 . S
C675 C681 1.491 . S
C676 H667 0.950 . S
C676 C675 1.398 . S
C676 C677 1.391 . S
C677 H665 0.950 . S
C677 C673 1.393 . S
C677 C676 1.391 . S
C678 H668 0.950 . S
C678 C679 1.386 . S
C678 C680 1.391 . S
C679 C678 1.386 . S
C679 C683 1.393 . S
C680 H669 0.950 . S
C680 C678 1.391 . S
C680 C681 1.400 . S
C681 C675 1.491 . S
C681 C680 1.400 . S
C681 C682 1.398 . S
C682 H670 0.950 . S
C682 C681 1.398 . S
C682 C683 1.391 . S
C683 H671 0.950 . S
C683 C679 1.393 . S
C683 C682 1.391 . S
H684 C692 0.950 . S
H685 C697 0.950 . S
H686 C694 0.950 . S
H687 C696 0.950 . S
H688 C698 0.950 . S
H689 C700 0.950 . S
H690 C702 0.950 . S
H691 C703 0.950 . S
C692 H684 0.950 . S
C692 C693 1.386 . S
C692 C694 1.391 . S
C693 C692 1.386 . S
C693 C697 1.393 . S
C694 H686 0.950 . S
C694 C692 1.391 . S
C694 C695 1.400 . S
C695 C694 1.400 . S
C695 C696 1.398 . S
C695 C701 1.491 . S
C696 H687 0.950 . S
C696 C695 1.398 . S
C696 C697 1.391 . S
C697 H685 0.950 . S
C697 C693 1.393 . S
C697 C696 1.391 . S
C698 H688 0.950 . S
C698 C699 1.386 . S
C698 C700 1.391 . S
C699 C698 1.386 . S
C699 C703 1.393 . S
C700 H689 0.950 . S
C700 C698 1.391 . S
C700 C701 1.400 . S
C701 C695 1.491 . S
C701 C700 1.400 . S
C701 C702 1.398 . S
C702 H690 0.950 . S
C702 C701 1.398 . S
C702 C703 1.391 . S
C703 H691 0.950 . S
C703 C699 1.393 . S
C703 C702 1.391 . S
H704 C712 0.950 . S
H705 C717 0.950 . S
H706 C714 0.950 . S
H707 C716 0.950 . S
H708 C718 0.950 . S
H709 C720 0.950 . S
H710 C722 0.950 . S
H711 C723 0.950 . S
C712 H704 0.950 . S
C712 C713 1.386 . S
C712 C714 1.391 . S
C713 C712 1.386 . S
C713 C717 1.393 . S
C714 H706 0.950 . S
C714 C712 1.391 . S
C714 C715 1.400 . S
C715 C714 1.400 . S
C715 C716 1.398 . S
C715 C721 1.491 . S
C716 H707 0.950 . S
C716 C715 1.398 . S
C716 C717 1.391 . S
C717 H705 0.950 . S
C717 C713 1.393 . S
C717 C716 1.391 . S
C718 H708 0.950 . S
C718 C719 1.386 . S
C718 C720 1.391 . S
C719 C718 1.386 . S
C719 C723 1.393 . S
C720 H709 0.950 . S
C720 C718 1.391 . S
C720 C721 1.400 . S
C721 C715 1.491 . S
C721 C720 1.400 . S
C721 C722 1.398 . S
C722 H710 0.950 . S
C722 C721 1.398 . S
C722 C723 1.391 . S
C723 H711 0.950 . S
C723 C719 1.393 . S
C723 C722 1.391 . S
H724 C732 0.950 . S
H725 C737 0.950 . S
H726 C734 0.950 . S
H727 C736 0.950 . S
H728 C738 0.950 . S
H729 C740 0.950 . S
H730 C742 0.950 . S
H731 C743 0.950 . S
C732 H724 0.950 . S
C732 C733 1.386 . S
C732 C734 1.391 . S
C733 C732 1.386 . S
C733 C737 1.393 . S
C734 H726 0.950 . S
C734 C732 1.391 . S
C734 C735 1.400 . S
C735 C734 1.400 . S
C735 C736 1.398 . S
C735 C741 1.491 . S
C736 H727 0.950 . S
C736 C735 1.398 . S
C736 C737 1.391 . S
C737 H725 0.950 . S
C737 C733 1.393 . S
C737 C736 1.391 . S
C738 H728 0.950 . S
C738 C739 1.386 . S
C738 C740 1.391 . S
C739 C738 1.386 . S
C739 C743 1.393 . S
C740 H729 0.950 . S
C740 C738 1.391 . S
C740 C741 1.400 . S
C741 C735 1.491 . S
C741 C740 1.400 . S
C741 C742 1.398 . S
C742 H730 0.950 . S
C742 C741 1.398 . S
C742 C743 1.391 . S
C743 H731 0.950 . S
C743 C739 1.393 . S
C743 C742 1.391 . S
C273 N1 1.047 . S
C279 C119 1.089 . S
C293 N18 1.097 . S
C299 C159 1.132 . S
C319 C193 1.859 . S
C313 N28 1.885 . S
C333 N40 2.809 . S
C339 C234 2.806 . S
C359 C154 1.694 . S
C353 N5 1.689 . S
C379 C114 1.784 . S
C373 N14 1.679 . S
C399 C242 1.688 . S
C393 N31 1.697 . S
C419 C203 1.571 . S
C413 N41 1.600 . S
C433 N2 1.118 . S
C439 C239 1.116 . S
C459 C162 2.198 1_556 S
C453 N27 2.255 . S
C473 N44 2.509 . S
C479 C122 2.537 1_655 S
C493 N15 1.152 . S
C499 C190 1.186 . S
C519 C110 1.635 . S
C513 N57 1.689 . S
C533 N70 0.861 . S
C539 C150 0.903 . S
C553 N79 2.124 . S
C559 C202 2.200 . S
C573 N93 2.561 . S
C579 C243 2.499 . S
C593 N54 1.286 . S
C599 C163 1.315 . S
C619 C123 2.366 1_655 S
C613 N66 2.338 . S
C639 C233 1.190 . S
C633 N80 1.178 . S
C659 C194 1.737 . S
C653 N96 1.807 . S
C673 N53 1.223 . S
C679 C230 1.249 . S
C699 C153 1.731 . S
C693 N83 1.706 . S
C719 C113 2.489 . S
C713 N92 2.635 . S
C733 N67 1.473 . S
C739 C199 1.493 . S
